# Generated by pormake.
# Topology anh, (6,3)-cn, num edge types: 1
# Building blocks:
#     Node 0, Type 0, BuildingBlock: PAMTOO_clean_sbu_0, # of connection points: 6
#     Node 1, Type 0, BuildingBlock: PAMTOO_clean_sbu_0, # of connection points: 6
#     Node 2, Type 0, BuildingBlock: PAMTOO_clean_sbu_0, # of connection points: 6
#     Node 3, Type 1, BuildingBlock: OLANEW_clean_sbu_2, # of connection points: 3
#     Node 4, Type 1, BuildingBlock: OLANEW_clean_sbu_2, # of connection points: 3
#     Node 5, Type 1, BuildingBlock: OLANEW_clean_sbu_2, # of connection points: 3
#     Node 6, Type 1, BuildingBlock: OLANEW_clean_sbu_2, # of connection points: 3
#     Node 7, Type 1, BuildingBlock: OLANEW_clean_sbu_2, # of connection points: 3
#     Node 8, Type 1, BuildingBlock: OLANEW_clean_sbu_2, # of connection points: 3
#     Edge 9, Type (0, 1), BuildingBlock: MIFKUJ_clean_linker_0, # of connection points: 2
#     Edge 10, Type (0, 1), BuildingBlock: MIFKUJ_clean_linker_0, # of connection points: 2
#     Edge 11, Type (0, 1), BuildingBlock: MIFKUJ_clean_linker_0, # of connection points: 2
#     Edge 12, Type (0, 1), BuildingBlock: MIFKUJ_clean_linker_0, # of connection points: 2
#     Edge 13, Type (0, 1), BuildingBlock: MIFKUJ_clean_linker_0, # of connection points: 2
#     Edge 14, Type (0, 1), BuildingBlock: MIFKUJ_clean_linker_0, # of connection points: 2
#     Edge 15, Type (0, 1), BuildingBlock: MIFKUJ_clean_linker_0, # of connection points: 2
#     Edge 16, Type (0, 1), BuildingBlock: MIFKUJ_clean_linker_0, # of connection points: 2
#     Edge 17, Type (0, 1), BuildingBlock: MIFKUJ_clean_linker_0, # of connection points: 2
#     Edge 18, Type (0, 1), BuildingBlock: MIFKUJ_clean_linker_0, # of connection points: 2
#     Edge 19, Type (0, 1), BuildingBlock: MIFKUJ_clean_linker_0, # of connection points: 2
#     Edge 20, Type (0, 1), BuildingBlock: MIFKUJ_clean_linker_0, # of connection points: 2
#     Edge 21, Type (0, 1), BuildingBlock: MIFKUJ_clean_linker_0, # of connection points: 2
#     Edge 22, Type (0, 1), BuildingBlock: MIFKUJ_clean_linker_0, # of connection points: 2
#     Edge 23, Type (0, 1), BuildingBlock: MIFKUJ_clean_linker_0, # of connection points: 2
#     Edge 24, Type (0, 1), BuildingBlock: MIFKUJ_clean_linker_0, # of connection points: 2
#     Edge 25, Type (0, 1), BuildingBlock: MIFKUJ_clean_linker_0, # of connection points: 2
#     Edge 26, Type (0, 1), BuildingBlock: MIFKUJ_clean_linker_0, # of connection points: 2
# Relax obj value: 0.113
# Max RMSD: 0.138
# Mean RMSD: 0.110
data_MOF--net-anh--node1-PAMTOO_clean_sbu_0--node2-OLANEW_clean_sbu_2--edge1-MIFKUJ_clean_linker_0
_symmetry_space_group_name_H-M    P1
_symmetry_Int_Tables_number       1
_symmetry_cell_setting            triclinic
loop_
_symmetry_equiv_pos_as_xyz
'x, y, z'
_cell_length_a     46.127105
_cell_length_b     41.798386
_cell_length_c     65.624199
_cell_angle_alpha  89.881618
_cell_angle_beta   95.436382
_cell_angle_gamma 110.11361
loop_
_atom_site_label
_atom_site_type_symbol
_atom_site_fract_x
_atom_site_fract_y
_atom_site_fract_z
_atom_type_partial_charge
Dy0 Dy 0.03165 0.57763 0.13886 0.0
Dy1 Dy 0.00464 0.49373 0.13377 0.0
C2 C 0.0104 0.54081 0.09588 0.0
O3 O 0.98212 0.56413 0.14554 0.0
O4 O 0.96215 0.50844 0.13307 0.0
O5 O 0.04911 0.62562 0.12419 0.0
O6 O 0.04491 0.62485 0.15683 0.0
O7 O 1.00304 0.50657 0.16653 0.0
O8 O 0.04304 0.55768 0.16891 0.0
O9 O 0.05624 0.50684 0.13888 0.0
O10 O 0.07186 0.56334 0.13049 0.0
O11 O 1.00023 0.44355 0.14456 0.0
O12 O 0.97706 0.44924 0.11519 0.0
C13 C 0.95849 0.53607 0.14023 0.0
O14 O 0.00539 0.5625 0.10818 0.0
O15 O 0.01782 0.51527 0.10338 0.0
C16 C 0.08674 0.66935 0.14488 0.0
C17 C 0.14558 0.72132 0.15032 0.0
C18 C 0.14059 0.69255 0.13752 0.0
C19 C 0.11154 0.66675 0.13492 0.0
C20 C 0.09171 0.69764 0.15791 0.0
C21 C 0.12085 0.72331 0.16068 0.0
C22 C 0.05546 0.64343 0.14136 0.0
C23 C 0.02429 0.53127 0.17752 0.0
C24 C 0.07791 0.53517 0.13426 0.0
C25 C 0.95015 0.40432 0.13506 0.0
C26 C 0.89146 0.35982 0.14378 0.0
C27 C 0.90307 0.39355 0.15176 0.0
C28 C 0.93215 0.4156 0.14742 0.0
C29 C 0.9389 0.37072 0.1272 0.0
C30 C 0.9098 0.34858 0.13156 0.0
C31 C 0.9797 0.42825 0.12939 0.0
H32 H 0.1589 0.69027 0.1291 0.0
H33 H 0.10838 0.64506 0.12485 0.0
H34 H 0.07293 0.70001 0.16583 0.0
H35 H 0.12397 0.7447 0.17098 0.0
H36 H 0.88975 0.40289 0.16144 0.0
H37 H 0.94049 0.44158 0.15355 0.0
H38 H 0.9524 0.36175 0.11746 0.0
H39 H 0.90137 0.3229 0.12498 0.0
Dy40 Dy 0.49132 0.01876 0.51076 0.0
Dy41 Dy 0.56847 0.04825 0.51872 0.0
C42 C 0.52679 0.02642 0.55527 0.0
O43 O 0.50463 0.07509 0.50786 0.0
O44 O 0.5538 0.09265 0.52483 0.0
O45 O 0.44725 0.99492 0.52269 0.0
O46 O 0.4487 0.01066 0.49124 0.0
O47 O 0.55477 0.06037 0.48698 0.0
O48 O 0.5103 0.01425 0.48126 0.0
O49 O 0.55611 0.99276 0.51098 0.0
O50 O 0.50382 0.97214 0.51525 0.0
O51 O 0.61302 0.05372 0.50859 0.0
O52 O 0.61045 0.07644 0.53776 0.0
C53 C 0.52926 0.09903 0.51675 0.0
O54 O 0.50489 0.03341 0.54391 0.0
O55 O 0.55099 0.02381 0.5474 0.0
C56 C 0.40656 0.96234 0.49896 0.0
C57 C 0.35841 0.8993 0.48993 0.0
C58 C 0.38964 0.90219 0.48918 0.0
C59 C 0.41353 0.93349 0.49368 0.0
C60 C 0.37556 0.95973 0.49946 0.0
C61 C 0.3517 0.92854 0.49499 0.0
C62 C 0.43123 0.99478 0.50522 0.0
C63 C 0.53349 0.03852 0.47435 0.0
C64 C 0.52997 0.9674 0.51259 0.0
C65 C 0.65214 0.10661 0.51904 0.0
C66 C 0.69762 0.16915 0.51052 0.0
C67 C 0.67473 0.15053 0.49507 0.0
C68 C 0.65215 0.11969 0.49931 0.0
C69 C 0.67496 0.12499 0.53446 0.0
C70 C 0.69741 0.15598 0.53028 0.0
C71 C 0.62834 0.0743 0.52395 0.0
H72 H 0.39561 0.88029 0.48514 0.0
H73 H 0.43742 0.9351 0.4933 0.0
H74 H 0.36983 0.98172 0.50371 0.0
H75 H 0.32802 0.92717 0.49606 0.0
H76 H 0.67442 0.15956 0.4796 0.0
H77 H 0.63473 0.10615 0.48711 0.0
H78 H 0.67527 0.11546 0.54982 0.0
H79 H 0.71434 0.16982 0.54263 0.0
Dy80 Dy 0.52545 0.50888 0.85998 0.0
Dy81 Dy 0.44935 0.47787 0.85384 0.0
C82 C 0.48958 0.4922 0.8164 0.0
O83 O 0.5104 0.55299 0.85122 0.0
O84 O 0.46096 0.53338 0.86079 0.0
O85 O 0.56842 0.54124 0.8494 0.0
O86 O 0.56882 0.51457 0.87778 0.0
O87 O 0.46392 0.47113 0.88654 0.0
O88 O 0.50824 0.51773 0.88929 0.0
O89 O 0.46327 0.43228 0.84999 0.0
O90 O 0.51383 0.45304 0.86471 0.0
O91 O 0.40501 0.46706 0.86561 0.0
O92 O 0.40709 0.45413 0.834 0.0
C93 C 0.48515 0.55829 0.85553 0.0
O94 O 0.51148 0.48635 0.82834 0.0
O95 O 0.46708 0.49883 0.82427 0.0
C96 C 0.61113 0.52392 0.85819 0.0
C97 C 0.66117 0.50736 0.84585 0.0
C98 C 0.6318 0.48197 0.84617 0.0
C99 C 0.60687 0.49024 0.85221 0.0
C100 C 0.64033 0.5492 0.85793 0.0
C101 C 0.66514 0.54103 0.85182 0.0
C102 C 0.58538 0.53347 0.86428 0.0
C103 C 0.48575 0.49496 0.89777 0.0
C104 C 0.489 0.42764 0.8574 0.0
C105 C 0.36887 0.47651 0.84125 0.0
C106 C 0.32987 0.51497 0.83339 0.0
C107 C 0.36218 0.53051 0.83366 0.0
C108 C 0.38151 0.51139 0.83747 0.0
C109 C 0.33664 0.46059 0.84029 0.0
C110 C 0.31719 0.47968 0.83627 0.0
C111 C 0.38957 0.4577 0.84766 0.0
H112 H 0.62806 0.45588 0.84156 0.0
H113 H 0.58431 0.47046 0.85218 0.0
H114 H 0.64395 0.57531 0.86248 0.0
H115 H 0.6876 0.56103 0.85207 0.0
H116 H 0.37254 0.55758 0.83134 0.0
H117 H 0.40639 0.52404 0.83805 0.0
H118 H 0.32658 0.4337 0.84324 0.0
H119 H 0.29237 0.46716 0.83631 0.0
O120 O 0.54706 0.0809 0.24628 0.0
Cd121 Cd 0.54299 0.08375 0.20895 0.0
O122 O 0.51283 0.02891 0.24566 0.0
Cd123 Cd 0.49951 0.02202 0.21276 0.0
O124 O 0.46168 0.98931 0.19155 0.0
C125 C 0.43599 0.99449 0.19023 0.0
O126 O 0.43438 0.02112 0.20002 0.0
C127 C 0.53187 0.05481 0.25569 0.0
C128 C 0.59753 0.1294 0.19595 0.0
O129 O 0.57502 0.13927 0.1995 0.0
O130 O 0.59412 0.09793 0.19841 0.0
O131 O 0.52342 0.50352 0.58954 0.0
Cd132 Cd 0.52889 0.50495 0.55285 0.0
O133 O 0.50055 0.54185 0.5906 0.0
Cd134 Cd 0.50531 0.55966 0.55936 0.0
O135 O 0.50648 0.60334 0.54061 0.0
C136 C 0.53153 0.6288 0.54102 0.0
O137 O 0.55672 0.62686 0.55128 0.0
C138 C 0.51052 0.52006 0.59949 0.0
C139 C 0.53016 0.44154 0.54041 0.0
O140 O 0.55523 0.46601 0.54648 0.0
O141 O 0.50455 0.44732 0.53971 0.0
O142 O 0.07297 0.70205 0.89816 0.0
Cd143 Cd 0.089 0.73286 0.86719 0.0
O144 O 0.05656 0.65522 0.87907 0.0
Cd145 Cd 0.02948 0.60171 0.87144 0.0
O146 O 0.98618 0.56164 0.8605 0.0
C147 C 0.9713 0.56905 0.845 0.0
O148 O 0.98395 0.5983 0.83634 0.0
C149 C 0.06049 0.66978 0.89663 0.0
C150 C 0.12967 0.70616 0.85105 0.0
O151 O 0.13951 0.73143 0.86398 0.0
O152 O 0.10057 0.69425 0.84516 0.0
O153 O 0.04403 0.52013 0.40846 0.0
Cd154 Cd 0.04792 0.5265 0.44573 0.0
O155 O 0.99968 0.52934 0.40448 0.0
Cd156 Cd 0.98902 0.51738 0.43594 0.0
O157 O 0.95687 0.48176 0.4549 0.0
C158 C 0.9283 0.47337 0.44844 0.0
O159 O 0.92052 0.48793 0.43207 0.0
C160 C 0.02267 0.52559 0.39682 0.0
C161 C 0.09797 0.58574 0.45777 0.0
O162 O 0.1013 0.55653 0.45788 0.0
O163 O 0.07086 0.58681 0.45246 0.0
O164 O 0.48554 0.97157 0.77996 0.0
Cd165 Cd 0.48377 0.96514 0.81693 0.0
O166 O 0.52348 0.02144 0.78227 0.0
Cd167 Cd 0.5191 0.03634 0.81344 0.0
O168 O 0.51692 0.08072 0.83021 0.0
C169 C 0.4939 0.09024 0.82518 0.0
O170 O 0.47183 0.07168 0.81154 0.0
C171 C 0.50563 0.99556 0.77163 0.0
C172 C 0.48229 0.89932 0.82685 0.0
O173 O 0.45721 0.90624 0.82424 0.0
O174 O 0.50798 0.92353 0.82511 0.0
O175 O 0.54875 0.53113 0.12092 0.0
Cd176 Cd 0.58329 0.5335 0.15277 0.0
O177 O 0.50224 0.52719 0.12954 0.0
Cd178 Cd 0.45278 0.52499 0.12458 0.0
O179 O 0.40315 0.52115 0.12511 0.0
C180 C 0.39401 0.54629 0.12125 0.0
O181 O 0.41443 0.57534 0.11651 0.0
C182 C 0.52063 0.52892 0.11586 0.0
C183 C 0.64358 0.53233 0.14787 0.0
O184 O 0.62076 0.50479 0.14994 0.0
O185 O 0.63794 0.56031 0.14761 0.0
H186 H 0.12893 0.58797 0.12416 0.0
H187 H 0.18153 0.58803 0.12192 0.0
H188 H 0.15313 0.483 0.13924 0.0
H189 H 0.10045 0.48279 0.14172 0.0
H190 H 0.20861 0.51881 0.15912 0.0
H191 H 0.16396 0.50496 0.08938 0.0
H192 H 0.13674 0.51912 0.05841 0.0
H193 H 0.20912 0.61659 0.05738 0.0
H194 H 0.23657 0.60321 0.08853 0.0
H195 H 0.34508 0.491 0.13187 0.0
H196 H 0.29123 0.48734 0.13394 0.0
H197 H 0.31423 0.59149 0.11546 0.0
H198 H 0.36777 0.59517 0.11311 0.0
H199 H 0.26056 0.55381 0.09579 0.0
H200 H 0.30439 0.56851 0.16599 0.0
H201 H 0.33138 0.55492 0.19727 0.0
H202 H 0.26051 0.45623 0.19755 0.0
H203 H 0.2333 0.46908 0.1661 0.0
C204 C 0.13375 0.56481 0.12749 0.0
C205 C 0.11018 0.5353 0.13302 0.0
C206 C 0.16394 0.56485 0.12612 0.0
C207 C 0.17141 0.53538 0.13015 0.0
C208 C 0.14808 0.50606 0.136 0.0
C209 C 0.11784 0.50597 0.13734 0.0
C210 C 0.2035 0.53518 0.12827 0.0
C211 C 0.21976 0.52598 0.14515 0.0
C212 C 0.21851 0.54515 0.11023 0.0
C213 C 0.20218 0.55319 0.09141 0.0
C214 C 0.17396 0.52951 0.08264 0.0
C215 C 0.15851 0.53738 0.06504 0.0
C216 C 0.17116 0.56877 0.05596 0.0
C217 C 0.19934 0.59231 0.06444 0.0
C218 C 0.21487 0.58458 0.08206 0.0
C219 C 0.33869 0.51312 0.12822 0.0
C220 C 0.36096 0.54341 0.12237 0.0
C221 C 0.30784 0.51106 0.12951 0.0
C222 C 0.29851 0.53926 0.12507 0.0
C223 C 0.32065 0.56933 0.11898 0.0
C224 C 0.35142 0.57141 0.1177 0.0
C225 C 0.26581 0.53766 0.12669 0.0
C226 C 0.24939 0.54652 0.10975 0.0
C227 C 0.25069 0.5274 0.14468 0.0
C228 C 0.26701 0.51961 0.16357 0.0
C229 C 0.2947 0.5438 0.17263 0.0
C230 C 0.31001 0.53625 0.1904 0.0
C231 C 0.29772 0.50469 0.19935 0.0
C232 C 0.27004 0.48064 0.19058 0.0
C233 C 0.25465 0.48805 0.17279 0.0
H234 H 0.3096 0.4989 0.21312 0.0
H235 H 0.15916 0.57481 0.04233 0.0
H236 H 0.69025 0.21932 0.48575 0.0
H237 H 0.73 0.27216 0.47718 0.0
H238 H 0.79875 0.24741 0.51684 0.0
H239 H 0.75935 0.1939 0.52507 0.0
H240 H 0.80269 0.31606 0.52104 0.0
H241 H 0.79751 0.23484 0.46804 0.0
H242 H 0.7716 0.19086 0.4409 0.0
H243 H 0.73914 0.262 0.407 0.0
H244 H 0.76448 0.30629 0.4341 0.0
H245 H 0.93646 0.43386 0.48044 0.0
H246 H 0.8972 0.38419 0.49328 0.0
H247 H 0.82695 0.39986 0.45029 0.0
H248 H 0.86594 0.44917 0.43727 0.0
H249 H 0.82461 0.33519 0.44857 0.0
H250 H 0.82963 0.41662 0.50127 0.0
H251 H 0.8548 0.46066 0.52849 0.0
H252 H 0.8871 0.3899 0.56292 0.0
H253 H 0.86247 0.34554 0.53575 0.0
C254 C 0.71385 0.22486 0.49253 0.0
C255 C 0.72158 0.2021 0.50598 0.0
C256 C 0.7365 0.25522 0.48771 0.0
C257 C 0.76733 0.26355 0.49628 0.0
C258 C 0.77505 0.24146 0.51013 0.0
C259 C 0.75244 0.21093 0.51485 0.0
C260 C 0.79162 0.29484 0.49023 0.0
C261 C 0.80783 0.32014 0.50525 0.0
C262 C 0.79781 0.30031 0.46957 0.0
C263 C 0.78263 0.27377 0.45321 0.0
C264 C 0.78462 0.24102 0.45489 0.0
C265 C 0.77008 0.21605 0.43949 0.0
C266 C 0.75366 0.2236 0.42226 0.0
C267 C 0.75182 0.25617 0.42037 0.0
C268 C 0.76629 0.28123 0.43574 0.0
C269 C 0.91259 0.42697 0.47389 0.0
C270 C 0.90438 0.4454 0.45776 0.0
C271 C 0.89015 0.39862 0.48129 0.0
C272 C 0.85911 0.38833 0.47276 0.0
C273 C 0.85077 0.40726 0.45705 0.0
C274 C 0.87312 0.43553 0.44966 0.0
C275 C 0.83558 0.35678 0.47933 0.0
C276 C 0.81953 0.33126 0.46438 0.0
C277 C 0.82955 0.35122 0.50004 0.0
C278 C 0.8445 0.37787 0.51636 0.0
C279 C 0.84235 0.41054 0.51455 0.0
C280 C 0.85647 0.43554 0.53 0.0
C281 C 0.87262 0.42812 0.5474 0.0
C282 C 0.87463 0.39563 0.54941 0.0
C283 C 0.86057 0.37054 0.53401 0.0
H284 H 0.88352 0.4475 0.55934 0.0
H285 H 0.74243 0.20424 0.41036 0.0
H286 H 0.43879 0.58061 0.86574 0.0
H287 H 0.43644 0.638 0.86269 0.0
H288 H 0.52514 0.67192 0.83807 0.0
H289 H 0.52808 0.61498 0.84157 0.0
H290 H 0.52304 0.71693 0.86563 0.0
H291 H 0.45272 0.65244 0.80794 0.0
H292 H 0.40684 0.60587 0.79223 0.0
H293 H 0.3478 0.63994 0.82677 0.0
H294 H 0.39325 0.68623 0.84291 0.0
H295 H 0.52797 0.87284 0.82289 0.0
H296 H 0.52649 0.81477 0.82912 0.0
H297 H 0.43404 0.78865 0.84767 0.0
H298 H 0.4349 0.84646 0.84048 0.0
H299 H 0.43547 0.73907 0.8257 0.0
H300 H 0.50125 0.80234 0.8829 0.0
H301 H 0.54484 0.8485 0.90112 0.0
H302 H 0.60969 0.81652 0.87129 0.0
H303 H 0.56646 0.77042 0.85268 0.0
C304 C 0.45785 0.60029 0.85971 0.0
C305 C 0.48365 0.59312 0.85391 0.0
C306 C 0.45637 0.63308 0.85786 0.0
C307 C 0.48043 0.65926 0.84989 0.0
C308 C 0.50628 0.65218 0.84425 0.0
C309 C 0.5079 0.61953 0.84624 0.0
C310 C 0.47912 0.69419 0.84758 0.0
C311 C 0.50405 0.7218 0.85669 0.0
C312 C 0.45374 0.70051 0.83665 0.0
C313 C 0.42644 0.67265 0.82677 0.0
C314 C 0.42996 0.64984 0.81228 0.0
C315 C 0.404 0.62349 0.80328 0.0
C316 C 0.37438 0.6199 0.80849 0.0
C317 C 0.37068 0.64267 0.82271 0.0
C318 C 0.39653 0.66896 0.8318 0.0
C319 C 0.50737 0.85478 0.82838 0.0
C320 C 0.48162 0.86431 0.8313 0.0
C321 C 0.50659 0.82156 0.83206 0.0
C322 C 0.48038 0.79732 0.83929 0.0
C323 C 0.45458 0.8068 0.84216 0.0
C324 C 0.45513 0.83991 0.83811 0.0
C325 C 0.47974 0.76197 0.84341 0.0
C326 C 0.45444 0.73427 0.8347 0.0
C327 C 0.5045 0.75546 0.85505 0.0
C328 C 0.53059 0.78309 0.86627 0.0
C329 C 0.5248 0.80529 0.88012 0.0
C330 C 0.54944 0.83142 0.89054 0.0
C331 C 0.58001 0.83548 0.88733 0.0
C332 C 0.586 0.81336 0.87374 0.0
C333 C 0.56143 0.7872 0.86327 0.0
H334 H 0.59906 0.85574 0.89541 0.0
H335 H 0.3543 0.59948 0.80154 0.0
H336 H 0.90723 0.48103 0.14639 0.0
H337 H 0.85432 0.4796 0.14891 0.0
H338 H 0.88354 0.58789 0.13957 0.0
H339 H 0.93698 0.58967 0.13836 0.0
H340 H 0.84463 0.57452 0.16604 0.0
H341 H 0.84107 0.52045 0.09996 0.0
H342 H 0.84936 0.47791 0.07738 0.0
H343 H 0.78934 0.39688 0.11025 0.0
H344 H 0.78082 0.43896 0.13308 0.0
H345 H 0.69569 0.58568 0.14025 0.0
H346 H 0.74846 0.58549 0.13912 0.0
H347 H 0.71727 0.47832 0.15178 0.0
H348 H 0.66424 0.47818 0.15236 0.0
H349 H 0.75659 0.48979 0.12425 0.0
H350 H 0.75825 0.54246 0.18929 0.0
H351 H 0.75055 0.58385 0.21302 0.0
H352 H 0.81453 0.66632 0.18338 0.0
H353 H 0.82231 0.62542 0.1593 0.0
C354 C 0.9024 0.50457 0.1449 0.0
C355 C 0.92635 0.53544 0.14203 0.0
C356 C 0.87196 0.50369 0.14618 0.0
C357 C 0.86437 0.53347 0.14385 0.0
C358 C 0.88848 0.56445 0.14133 0.0
C359 C 0.9191 0.56547 0.14059 0.0
C360 C 0.83153 0.53249 0.1441 0.0
C361 C 0.82552 0.55629 0.15663 0.0
C362 C 0.80609 0.50809 0.13239 0.0
C363 C 0.81046 0.48284 0.11828 0.0
C364 C 0.82966 0.49356 0.10236 0.0
C365 C 0.8344 0.46953 0.08953 0.0
C366 C 0.81991 0.43472 0.09239 0.0
C367 C 0.80052 0.42385 0.10804 0.0
C368 C 0.79566 0.44777 0.12089 0.0
C369 C 0.69999 0.56202 0.14273 0.0
C370 C 0.67561 0.53198 0.14648 0.0
C371 C 0.73032 0.56197 0.14221 0.0
C372 C 0.73723 0.53202 0.14574 0.0
C373 C 0.71276 0.50184 0.14907 0.0
C374 C 0.68237 0.5018 0.14943 0.0
C375 C 0.76983 0.53215 0.14595 0.0
C376 C 0.77575 0.50812 0.13358 0.0
C377 C 0.79517 0.55626 0.15786 0.0
C378 C 0.79063 0.58089 0.17237 0.0
C379 C 0.77051 0.56943 0.18774 0.0
C380 C 0.76616 0.5928 0.20127 0.0
C381 C 0.78198 0.62769 0.19967 0.0
C382 C 0.80226 0.63928 0.18458 0.0
C383 C 0.80667 0.61602 0.171 0.0
H384 H 0.77858 0.64574 0.21016 0.0
H385 H 0.82369 0.41616 0.08248 0.0
H386 H 0.30128 0.88654 0.46873 0.0
H387 H 0.25809 0.83239 0.46445 0.0
H388 H 0.31434 0.78205 0.49774 0.0
H389 H 0.35761 0.8363 0.5024 0.0
H390 H 0.28058 0.74489 0.46322 0.0
H391 H 0.26168 0.80165 0.52146 0.0
H392 H 0.25534 0.84962 0.54008 0.0
H393 H 0.17803 0.84602 0.49705 0.0
H394 H 0.1842 0.79833 0.47798 0.0
H395 H 0.15566 0.5919 0.47589 0.0
H396 H 0.20057 0.64417 0.48269 0.0
H397 H 0.14629 0.70321 0.45703 0.0
H398 H 0.10106 0.65122 0.45093 0.0
H399 H 0.18048 0.73541 0.48924 0.0
H400 H 0.20009 0.68144 0.42994 0.0
H401 H 0.20641 0.63456 0.41016 0.0
H402 H 0.28187 0.63388 0.45363 0.0
H403 H 0.27575 0.6805 0.47381 0.0
C404 C 0.30447 0.86402 0.47525 0.0
C405 C 0.33287 0.86587 0.48606 0.0
C406 C 0.27977 0.83306 0.47274 0.0
C407 C 0.28288 0.8033 0.48103 0.0
C408 C 0.31145 0.80475 0.49125 0.0
C409 C 0.3362 0.83576 0.49382 0.0
C410 C 0.25608 0.77082 0.47927 0.0
C411 C 0.25881 0.74261 0.46916 0.0
C412 C 0.22751 0.76813 0.48664 0.0
C413 C 0.22358 0.7966 0.4982 0.0
C414 C 0.24347 0.81125 0.51588 0.0
C415 C 0.23988 0.83837 0.52653 0.0
C416 C 0.21634 0.85091 0.51973 0.0
C417 C 0.19628 0.8363 0.50229 0.0
C418 C 0.19979 0.8092 0.49157 0.0
C419 C 0.15327 0.61605 0.4718 0.0
C420 C 0.12484 0.61741 0.46279 0.0
C421 C 0.17903 0.64592 0.47558 0.0
C422 C 0.17706 0.67766 0.47001 0.0
C423 C 0.14847 0.67908 0.46143 0.0
C424 C 0.1226 0.6493 0.45792 0.0
C425 C 0.20473 0.7094 0.47294 0.0
C426 C 0.20222 0.73753 0.48333 0.0
C427 C 0.23343 0.7121 0.46565 0.0
C428 C 0.23725 0.68421 0.45348 0.0
C429 C 0.2179 0.67113 0.43535 0.0
C430 C 0.22146 0.64464 0.42406 0.0
C431 C 0.24447 0.63119 0.43067 0.0
C432 C 0.26403 0.64429 0.44855 0.0
C433 C 0.26054 0.67076 0.4599 0.0
H434 H 0.24719 0.61067 0.42191 0.0
H435 H 0.21361 0.87191 0.52799 0.0
H436 H 0.44292 0.36857 0.84327 0.0
H437 H 0.44546 0.31133 0.84168 0.0
H438 H 0.54017 0.34964 0.86914 0.0
H439 H 0.53806 0.40726 0.87047 0.0
H440 H 0.53457 0.30783 0.83733 0.0
H441 H 0.48116 0.30263 0.89667 0.0
H442 H 0.44125 0.30933 0.91705 0.0
H443 H 0.36978 0.23773 0.87667 0.0
H444 H 0.40925 0.23096 0.85587 0.0
H445 H 0.54004 0.14027 0.84827 0.0
H446 H 0.5406 0.19722 0.8576 0.0
H447 H 0.44757 0.17253 0.82819 0.0
H448 H 0.44672 0.11564 0.81893 0.0
H449 H 0.45543 0.20795 0.86438 0.0
H450 H 0.50902 0.21746 0.80361 0.0
H451 H 0.54905 0.2113 0.78312 0.0
H452 H 0.62061 0.27533 0.8268 0.0
H453 H 0.58097 0.28149 0.84771 0.0
C454 C 0.46428 0.36491 0.84908 0.0
C455 C 0.49025 0.39261 0.85706 0.0
C456 C 0.46564 0.33205 0.84825 0.0
C457 C 0.49287 0.32604 0.85555 0.0
C458 C 0.51887 0.35362 0.86349 0.0
C459 C 0.51757 0.38656 0.86429 0.0
C460 C 0.49441 0.29115 0.85422 0.0
C461 C 0.51761 0.2861 0.8436 0.0
C462 C 0.472 0.26264 0.86209 0.0
C463 C 0.44817 0.2665 0.87462 0.0
C464 C 0.45692 0.2885 0.89205 0.0
C465 C 0.43438 0.29228 0.90369 0.0
C466 C 0.403 0.27402 0.89814 0.0
C467 C 0.3941 0.25187 0.88095 0.0
C468 C 0.41655 0.24802 0.86924 0.0
C469 C 0.51956 0.14682 0.84401 0.0
C470 C 0.4934 0.12346 0.83273 0.0
C471 C 0.51998 0.17943 0.84927 0.0
C472 C 0.49426 0.18928 0.84337 0.0
C473 C 0.46769 0.16552 0.83288 0.0
C474 C 0.46729 0.13301 0.82754 0.0
C475 C 0.49532 0.22469 0.8473 0.0
C476 C 0.47259 0.22979 0.85836 0.0
C477 C 0.51821 0.25327 0.8399 0.0
C478 C 0.54204 0.24959 0.82734 0.0
C479 C 0.53329 0.22998 0.80894 0.0
C480 C 0.55591 0.22654 0.79723 0.0
C481 C 0.58735 0.24282 0.80369 0.0
C482 C 0.59624 0.26267 0.82184 0.0
C483 C 0.57372 0.26616 0.83362 0.0
H484 H 0.60483 0.24014 0.7946 0.0
H485 H 0.38558 0.27699 0.90717 0.0
H486 H 0.47985 0.90861 0.50644 0.0
H487 H 0.47952 0.85013 0.50684 0.0
H488 H 0.57941 0.88724 0.51786 0.0
H489 H 0.58 0.94597 0.51684 0.0
H490 H 0.56053 0.83381 0.49195 0.0
H491 H 0.532 0.85964 0.55697 0.0
H492 H 0.50115 0.87887 0.57967 0.0
H493 H 0.41875 0.79764 0.55592 0.0
H494 H 0.44898 0.7783 0.53276 0.0
H495 H 0.581 0.6877 0.53896 0.0
H496 H 0.57974 0.7438 0.52948 0.0
H497 H 0.48052 0.70085 0.51502 0.0
H498 H 0.48152 0.64463 0.52455 0.0
H499 H 0.49734 0.75606 0.54095 0.0
H500 H 0.52713 0.7283 0.47731 0.0
H501 H 0.55847 0.70954 0.45479 0.0
H502 H 0.6394 0.79414 0.47672 0.0
H503 H 0.60863 0.81316 0.4996 0.0
C504 C 0.50179 0.90439 0.50886 0.0
C505 C 0.52995 0.93199 0.51182 0.0
C506 C 0.50155 0.8709 0.50912 0.0
C507 C 0.5294 0.86425 0.51278 0.0
C508 C 0.55762 0.89174 0.51508 0.0
C509 C 0.55791 0.9253 0.51455 0.0
C510 C 0.52903 0.82872 0.51498 0.0
C511 C 0.54697 0.81691 0.50281 0.0
C512 C 0.51083 0.8064 0.52885 0.0
C513 C 0.49271 0.81772 0.54299 0.0
C514 C 0.50727 0.846 0.55649 0.0
C515 C 0.48991 0.85691 0.56945 0.0
C516 C 0.45803 0.83951 0.56923 0.0
C517 C 0.44345 0.81111 0.55606 0.0
C518 C 0.46068 0.80017 0.54302 0.0
C519 C 0.55895 0.69004 0.53346 0.0
C520 C 0.53133 0.66169 0.53264 0.0
C521 C 0.55829 0.72214 0.52796 0.0
C522 C 0.53003 0.7265 0.52151 0.0
C523 C 0.50257 0.69804 0.51998 0.0
C524 C 0.50322 0.6659 0.52538 0.0
C525 C 0.52886 0.76114 0.51795 0.0
C526 C 0.51072 0.77284 0.52996 0.0
C527 C 0.54703 0.78336 0.50405 0.0
C528 C 0.56562 0.77197 0.49032 0.0
C529 C 0.55167 0.74274 0.47747 0.0
C530 C 0.56932 0.73209 0.46461 0.0
C531 C 0.60092 0.75059 0.46436 0.0
C532 C 0.61492 0.77982 0.47694 0.0
C533 C 0.59738 0.79057 0.48985 0.0
H534 H 0.61455 0.74231 0.45439 0.0
H535 H 0.44463 0.848 0.57928 0.0
H536 H 0.70435 0.54299 0.82092 0.0
H537 H 0.75273 0.53458 0.81528 0.0
H538 H 0.72716 0.44438 0.8513 0.0
H539 H 0.67888 0.45332 0.85751 0.0
H540 H 0.78266 0.48748 0.86489 0.0
H541 H 0.73506 0.43856 0.79974 0.0
H542 H 0.70417 0.43353 0.76636 0.0
H543 H 0.77003 0.52699 0.7481 0.0
H544 H 0.8011 0.53289 0.78147 0.0
H545 H 0.9386 0.50526 0.85763 0.0
H546 H 0.88244 0.4756 0.85187 0.0
H547 H 0.87384 0.55692 0.81388 0.0
H548 H 0.92974 0.58578 0.81883 0.0
H549 H 0.83183 0.49938 0.79994 0.0
H550 H 0.86818 0.55606 0.86751 0.0
H551 H 0.89849 0.56523 0.9014 0.0
H552 H 0.8527 0.46038 0.91504 0.0
H553 H 0.82237 0.45055 0.88112 0.0
C554 C 0.70885 0.52112 0.82744 0.0
C555 C 0.68803 0.49905 0.83986 0.0
C556 C 0.73633 0.51606 0.82397 0.0
C557 C 0.74347 0.48864 0.83271 0.0
C558 C 0.72201 0.46558 0.84431 0.0
C559 C 0.69442 0.47064 0.84778 0.0
C560 C 0.77502 0.48718 0.83197 0.0
C561 C 0.79315 0.48899 0.85063 0.0
C562 C 0.78886 0.48975 0.8134 0.0
C563 C 0.7704 0.48618 0.79318 0.0
C564 C 0.74289 0.45814 0.78866 0.0
C565 C 0.72535 0.45513 0.76972 0.0
C566 C 0.73512 0.47993 0.75512 0.0
C567 C 0.7625 0.50777 0.75941 0.0
C568 C 0.78013 0.51092 0.77833 0.0
C569 C 0.92477 0.5164 0.84768 0.0
C570 C 0.93851 0.54817 0.83898 0.0
C571 C 0.89268 0.49946 0.84444 0.0
C572 C 0.87382 0.51444 0.83285 0.0
C573 C 0.88785 0.54487 0.82294 0.0
C574 C 0.91988 0.56148 0.82589 0.0
C575 C 0.83954 0.50115 0.83286 0.0
C576 C 0.82098 0.49661 0.81411 0.0
C577 C 0.82525 0.49651 0.85135 0.0
C578 C 0.84335 0.50248 0.87173 0.0
C579 C 0.86474 0.53494 0.87771 0.0
C580 C 0.88189 0.54026 0.89691 0.0
C581 C 0.8776 0.51338 0.91034 0.0
C582 C 0.85606 0.48115 0.90461 0.0
C583 C 0.83889 0.47569 0.8854 0.0
H584 H 0.8909 0.51754 0.92519 0.0
H585 H 0.7215 0.47756 0.74048 0.0
H586 H 0.15718 0.79015 0.15353 0.0
H587 H 0.20734 0.83604 0.1573 0.0
H588 H 0.25365 0.76256 0.15457 0.0
H589 H 0.2036 0.71629 0.15209 0.0
H590 H 0.28221 0.80773 0.18338 0.0
H591 H 0.24627 0.81373 0.11322 0.0
H592 H 0.20944 0.81726 0.08426 0.0
H593 H 0.21137 0.91357 0.10819 0.0
H594 H 0.2479 0.91041 0.13747 0.0
H595 H 0.42945 0.93153 0.1744 0.0
H596 H 0.38095 0.88515 0.16375 0.0
H597 H 0.3292 0.951 0.17432 0.0
H598 H 0.37755 0.9976 0.18492 0.0
H599 H 0.30498 0.90861 0.13955 0.0
H600 H 0.33832 0.89964 0.21082 0.0
H601 H 0.37547 0.89576 0.23949 0.0
H602 H 0.37877 0.80384 0.21235 0.0
H603 H 0.34194 0.80745 0.18336 0.0
C604 C 0.178 0.78362 0.154 0.0
C605 C 0.17624 0.7494 0.1525 0.0
C606 C 0.20672 0.81 0.15583 0.0
C607 C 0.23431 0.80285 0.15581 0.0
C608 C 0.23268 0.76875 0.15446 0.0
C609 C 0.20398 0.74231 0.15286 0.0
C610 C 0.26489 0.83087 0.15787 0.0
C611 C 0.28733 0.82945 0.17352 0.0
C612 C 0.27147 0.8596 0.14528 0.0
C613 C 0.24964 0.86169 0.12763 0.0
C614 C 0.23868 0.83555 0.11238 0.0
C615 C 0.21788 0.8375 0.0959 0.0
C616 C 0.20802 0.86558 0.09441 0.0
C617 C 0.21901 0.89182 0.10938 0.0
C618 C 0.23979 0.88999 0.12591 0.0
C619 C 0.40781 0.93637 0.17412 0.0
C620 C 0.40734 0.96816 0.18074 0.0
C621 C 0.38012 0.90979 0.16809 0.0
C622 C 0.3515 0.91453 0.16857 0.0
C623 C 0.35105 0.94681 0.17392 0.0
C624 C 0.37872 0.97338 0.18003 0.0
C625 C 0.32201 0.8853 0.16501 0.0
C626 C 0.29983 0.88661 0.14918 0.0
C627 C 0.31568 0.85634 0.17733 0.0
C628 C 0.33765 0.85403 0.19482 0.0
C629 C 0.34716 0.87875 0.21089 0.0
C630 C 0.36812 0.87658 0.22721 0.0
C631 C 0.37954 0.84962 0.22771 0.0
C632 C 0.36995 0.82473 0.21192 0.0
C633 C 0.34902 0.82682 0.19555 0.0
H634 H 0.39577 0.84798 0.24036 0.0
H635 H 0.19191 0.86704 0.08164 0.0
H636 H 0.57901 0.15708 0.52668 0.0
H637 H 0.57943 0.21551 0.52874 0.0
H638 H 0.48066 0.18005 0.51155 0.0
H639 H 0.48017 0.1215 0.50889 0.0
H640 H 0.50799 0.23651 0.49235 0.0
H641 H 0.51193 0.20165 0.56198 0.0
H642 H 0.53227 0.17831 0.59239 0.0
H643 H 0.62028 0.25903 0.59253 0.0
H644 H 0.60059 0.2826 0.56194 0.0
H645 H 0.48091 0.38442 0.52749 0.0
H646 H 0.48143 0.32693 0.52146 0.0
H647 H 0.58082 0.36335 0.53575 0.0
H648 H 0.58048 0.42086 0.54201 0.0
H649 H 0.55334 0.30666 0.55603 0.0
H650 H 0.54817 0.34222 0.48657 0.0
H651 H 0.52697 0.36517 0.45635 0.0
H652 H 0.43997 0.2829 0.45632 0.0
H653 H 0.46052 0.25969 0.48673 0.0
C654 C 0.55733 0.16164 0.52335 0.0
C655 C 0.52949 0.13454 0.51778 0.0
C656 C 0.55761 0.19511 0.52459 0.0
C657 C 0.52999 0.20216 0.52065 0.0
C658 C 0.50225 0.17524 0.51471 0.0
C659 C 0.502 0.14175 0.51326 0.0
C660 C 0.53002 0.23756 0.52292 0.0
C661 C 0.51755 0.2517 0.50637 0.0
C662 C 0.54304 0.25767 0.54106 0.0
C663 C 0.55486 0.2437 0.55956 0.0
C664 C 0.53568 0.21429 0.56842 0.0
C665 C 0.54709 0.20104 0.5857 0.0
C666 C 0.57757 0.21713 0.59436 0.0
C667 C 0.59669 0.24657 0.58579 0.0
C668 C 0.58541 0.25991 0.5685 0.0
C669 C 0.50293 0.38029 0.52916 0.0
C670 C 0.53066 0.40724 0.53525 0.0
C671 C 0.5032 0.34741 0.52564 0.0
C672 C 0.5312 0.34086 0.52803 0.0
C673 C 0.55895 0.36782 0.53382 0.0
C674 C 0.55872 0.4007 0.53733 0.0
C675 C 0.53139 0.30564 0.52546 0.0
C676 C 0.54385 0.2915 0.54199 0.0
C677 C 0.51819 0.28552 0.50736 0.0
C678 C 0.5058 0.2994 0.48905 0.0
C679 C 0.52444 0.32917 0.48023 0.0
C680 C 0.51255 0.3422 0.46304 0.0
C681 C 0.48212 0.32555 0.45445 0.0
C682 C 0.46353 0.29579 0.46301 0.0
C683 C 0.47529 0.28267 0.4802 0.0
H684 H 0.47296 0.33567 0.44115 0.0
H685 H 0.58636 0.20683 0.60774 0.0
H686 H 0.27504 0.50264 0.80933 0.0
H687 H 0.24041 0.5361 0.80863 0.0
H688 H 0.30458 0.60756 0.85336 0.0
H689 H 0.3391 0.57438 0.85414 0.0
H690 H 0.24447 0.58493 0.86367 0.0
H691 H 0.29936 0.63077 0.80545 0.0
H692 H 0.31916 0.62729 0.77222 0.0
H693 H 0.22586 0.58077 0.74418 0.0
H694 H 0.20559 0.58346 0.77739 0.0
H695 H 0.19096 0.72161 0.86406 0.0
H696 H 0.22419 0.6893 0.85694 0.0
H697 H 0.15009 0.6207 0.81627 0.0
H698 H 0.11643 0.65287 0.82336 0.0
H699 H 0.2117 0.63861 0.80236 0.0
H700 H 0.15677 0.5946 0.86062 0.0
H701 H 0.13751 0.59921 0.8939 0.0
H702 H 0.23117 0.64227 0.92188 0.0
H703 H 0.251 0.63844 0.88867 0.0
C704 C 0.28174 0.5256 0.8189 0.0
C705 C 0.30972 0.53598 0.83176 0.0
C706 C 0.26209 0.54473 0.81841 0.0
C707 C 0.27005 0.57431 0.83091 0.0
C708 C 0.29807 0.58481 0.84361 0.0
C709 C 0.31783 0.56597 0.84393 0.0
C710 C 0.24865 0.59365 0.83154 0.0
C711 C 0.23755 0.59692 0.85031 0.0
C712 C 0.23897 0.60843 0.81395 0.0
C713 C 0.25102 0.60691 0.79395 0.0
C714 C 0.28312 0.61946 0.79224 0.0
C715 C 0.29441 0.6177 0.77341 0.0
C716 C 0.27378 0.6037 0.75611 0.0
C717 C 0.24182 0.59153 0.75761 0.0
C718 C 0.23042 0.59319 0.77643 0.0
C719 C 0.18182 0.70001 0.85333 0.0
C720 C 0.15095 0.68957 0.84443 0.0
C721 C 0.20085 0.68159 0.84929 0.0
C722 C 0.1894 0.65248 0.83627 0.0
C723 C 0.15925 0.64312 0.82638 0.0
C724 C 0.14007 0.66145 0.83051 0.0
C725 C 0.20812 0.63035 0.83457 0.0
C726 C 0.21853 0.6264 0.81565 0.0
C727 C 0.21719 0.61482 0.85201 0.0
C728 C 0.20536 0.61656 0.87211 0.0
C729 C 0.17326 0.60529 0.87384 0.0
C730 C 0.16224 0.60773 0.89269 0.0
C731 C 0.18311 0.62115 0.90997 0.0
C732 C 0.21504 0.63195 0.90846 0.0
C733 C 0.22618 0.62963 0.88963 0.0
H734 H 0.17454 0.62317 0.92452 0.0
H735 H 0.28255 0.60237 0.74153 0.0
H736 H 0.83804 0.37457 0.14422 0.0
H737 H 0.78704 0.33643 0.152 0.0
H738 H 0.82312 0.25433 0.16058 0.0
H739 H 0.87427 0.29237 0.15305 0.0
H740 H 0.76681 0.23394 0.13767 0.0
H741 H 0.81237 0.29633 0.2014 0.0
H742 H 0.83737 0.34848 0.22311 0.0
H743 H 0.75845 0.37946 0.20831 0.0
H744 H 0.73315 0.32768 0.18629 0.0
H745 H 0.65064 0.11708 0.19006 0.0
H746 H 0.69911 0.1573 0.17994 0.0
H747 H 0.65904 0.23669 0.1767 0.0
H748 H 0.6106 0.19671 0.18726 0.0
H749 H 0.71597 0.26028 0.19555 0.0
H750 H 0.66917 0.19792 0.13304 0.0
H751 H 0.64389 0.14695 0.11042 0.0
H752 H 0.72412 0.11717 0.12164 0.0
H753 H 0.74974 0.16774 0.14457 0.0
C754 C 0.8352 0.34848 0.14795 0.0
C755 C 0.86029 0.33655 0.14813 0.0
C756 C 0.80602 0.32669 0.15232 0.0
C757 C 0.80138 0.29263 0.15706 0.0
C758 C 0.8262 0.28051 0.15693 0.0
C759 C 0.85539 0.30226 0.15257 0.0
C760 C 0.77071 0.26959 0.16229 0.0
C761 C 0.75582 0.23946 0.15047 0.0
C762 C 0.756 0.27739 0.1786 0.0
C763 C 0.77101 0.3083 0.19204 0.0
C764 C 0.80044 0.31438 0.20267 0.0
C765 C 0.81465 0.34385 0.21505 0.0
C766 C 0.79955 0.36731 0.21704 0.0
C767 C 0.77014 0.36128 0.20673 0.0
C768 C 0.75585 0.33186 0.19431 0.0
C769 C 0.65207 0.14306 0.18713 0.0
C770 C 0.62671 0.15366 0.18941 0.0
C771 C 0.67978 0.16601 0.18126 0.0
C772 C 0.68261 0.19993 0.17728 0.0
C773 C 0.65738 0.21064 0.17964 0.0
C774 C 0.62968 0.18772 0.18563 0.0
C775 C 0.71212 0.22431 0.17107 0.0
C776 C 0.72682 0.25474 0.18269 0.0
C777 C 0.72657 0.21691 0.15448 0.0
C778 C 0.71126 0.18647 0.14068 0.0
C779 C 0.68133 0.18036 0.13082 0.0
C780 C 0.66696 0.15157 0.11791 0.0
C781 C 0.68236 0.1288 0.11463 0.0
C782 C 0.71221 0.13482 0.12422 0.0
C783 C 0.72668 0.16356 0.13715 0.0
H784 H 0.67119 0.10652 0.10464 0.0
H785 H 0.8106 0.39013 0.22662 0.0
H786 H 0.0042 0.5962 0.07665 0.0
H787 H 0.00656 0.60867 0.04055 0.0
H788 H 0.01701 0.51202 0.02833 0.0
H789 H 0.01559 0.49969 0.06485 0.0
H790 H 0.05723 0.56033 0.00973 0.0
H791 H 0.94849 0.52685 0.01257 0.0
H792 H 0.89996 0.52524 0.02611 0.0
H793 H 0.92135 0.63175 0.01493 0.0
H794 H 0.97025 0.63415 0.00159 0.0
H795 H 0.05559 0.60363 0.90443 0.0
H796 H 0.03991 0.5724 0.93539 0.0
H797 H 0.02955 0.66155 0.9622 0.0
H798 H 0.04353 0.69222 0.93086 0.0
H799 H 0.98329 0.60563 0.97049 0.0
H800 H 0.09591 0.63899 0.97229 0.0
H801 H 0.14451 0.63942 0.95927 0.0
H802 H 0.11427 0.53028 0.96153 0.0
H803 H 0.06531 0.52919 0.97428 0.0
C804 C 0.00666 0.57733 0.06631 0.0
C805 C 0.00963 0.54687 0.07365 0.0
C806 C 0.00782 0.58444 0.04559 0.0
C807 C 0.01139 0.56103 0.03161 0.0
C808 C 0.01406 0.53038 0.03882 0.0
C809 C 0.01319 0.52335 0.05967 0.0
C810 C 0.01419 0.56983 0.00976 0.0
C811 C 0.04068 0.5695 0.00098 0.0
C812 C 0.99275 0.58208 0.99836 0.0
C813 C 0.96315 0.5807 0.00616 0.0
C814 C 0.94294 0.54998 0.0131 0.0
C815 C 0.91535 0.54892 0.02073 0.0
C816 C 0.90759 0.57838 0.0214 0.0
C817 C 0.92738 0.60895 0.01439 0.0
C818 C 0.95502 0.61016 0.00676 0.0
C819 C 0.04893 0.6162 0.91661 0.0
C820 C 0.05007 0.65015 0.91499 0.0
C821 C 0.04053 0.5985 0.93448 0.0
C822 C 0.03376 0.61469 0.9512 0.0
C823 C 0.03456 0.64846 0.94949 0.0
C824 C 0.04272 0.66604 0.93161 0.0
C825 C 0.02683 0.59723 0.97081 0.0
C826 C 0.9995 0.59586 0.97913 0.0
C827 C 0.04738 0.58319 0.98171 0.0
C828 C 0.07681 0.58398 0.97401 0.0
C829 C 0.09953 0.61508 0.96985 0.0
C830 C 0.12715 0.61544 0.96254 0.0
C831 C 0.13243 0.58489 0.95953 0.0
C832 C 0.11012 0.55392 0.96383 0.0
C833 C 0.08244 0.55341 0.97109 0.0
H834 H 0.15386 0.5852 0.95395 0.0
H835 H 0.88623 0.57751 0.02733 0.0
H836 H 0.4975 0.99435 0.4437 0.0
H837 H 0.50156 0.99915 0.40687 0.0
H838 H 0.57843 0.09376 0.4176 0.0
H839 H 0.57458 0.08925 0.45448 0.0
H840 H 0.53506 0.09721 0.38633 0.0
H841 H 0.59285 0.02435 0.40577 0.0
H842 H 0.60188 0.97497 0.42209 0.0
H843 H 0.52544 0.90681 0.38335 0.0
H844 H 0.51565 0.95581 0.36699 0.0
H845 H 0.57156 0.1042 0.28269 0.0
H846 H 0.57607 0.10333 0.32017 0.0
H847 H 0.50453 0.00404 0.3173 0.0
H848 H 0.50032 0.00436 0.28006 0.0
H849 H 0.55025 0.00576 0.34523 0.0
H850 H 0.4895 0.07731 0.32782 0.0
H851 H 0.47865 0.12595 0.31178 0.0
H852 H 0.55875 0.19566 0.34681 0.0
H853 H 0.57031 0.14737 0.36286 0.0
C854 C 0.51529 0.01619 0.43825 0.0
C855 C 0.53575 0.04138 0.45204 0.0
C856 C 0.51764 0.01882 0.41721 0.0
C857 C 0.54047 0.04666 0.40955 0.0
C858 C 0.5607 0.07205 0.42322 0.0
C859 C 0.55849 0.06935 0.44429 0.0
C860 C 0.54297 0.04934 0.38723 0.0
C861 C 0.53891 0.07752 0.37736 0.0
C862 C 0.54742 0.02332 0.37555 0.0
C863 C 0.55336 0.99377 0.38527 0.0
C864 C 0.57781 0.99884 0.40084 0.0
C865 C 0.58309 0.97091 0.41008 0.0
C866 C 0.5642 0.93777 0.4038 0.0
C867 C 0.54004 0.93249 0.38822 0.0
C868 C 0.53463 0.96033 0.37894 0.0
C869 C 0.55688 0.08215 0.29005 0.0
C870 C 0.53551 0.05441 0.27836 0.0
C871 C 0.5594 0.08174 0.31147 0.0
C872 C 0.54039 0.05375 0.32154 0.0
C873 C 0.51945 0.02587 0.30988 0.0
C874 C 0.51702 0.02618 0.28854 0.0
C875 C 0.54183 0.05338 0.34422 0.0
C876 C 0.54668 0.02563 0.35419 0.0
C877 C 0.53789 0.07969 0.35598 0.0
C878 C 0.53097 0.10873 0.34635 0.0
C879 C 0.50494 0.103 0.33197 0.0
C880 C 0.49864 0.13051 0.3229 0.0
C881 C 0.51806 0.16387 0.32822 0.0
C882 C 0.54377 0.1698 0.34267 0.0
C883 C 0.5502 0.14238 0.35177 0.0
H884 H 0.51313 0.18513 0.32119 0.0
H885 H 0.56833 0.91619 0.41097 0.0
H886 H 0.45706 0.51765 0.78779 0.0
H887 H 0.46026 0.51947 0.75087 0.0
H888 H 0.52761 0.46863 0.75728 0.0
H889 H 0.52534 0.46785 0.79435 0.0
H890 H 0.54551 0.518 0.73228 0.0
H891 H 0.44997 0.42681 0.73783 0.0
H892 H 0.39789 0.39862 0.74901 0.0
H893 H 0.36494 0.47096 0.71683 0.0
H894 H 0.41696 0.49989 0.70568 0.0
H895 H 0.53575 0.48226 0.62491 0.0
H896 H 0.53162 0.47457 0.66165 0.0
H897 H 0.47428 0.53725 0.66079 0.0
H898 H 0.47822 0.54508 0.62414 0.0
H899 H 0.45138 0.47853 0.6826 0.0
H900 H 0.54872 0.57043 0.67836 0.0
H901 H 0.60099 0.59716 0.66717 0.0
H902 H 0.63042 0.52024 0.69681 0.0
H903 H 0.57816 0.49277 0.70795 0.0
C904 C 0.47246 0.50672 0.78134 0.0
C905 C 0.49088 0.49252 0.79398 0.0
C906 C 0.47416 0.50762 0.76019 0.0
C907 C 0.4938 0.49367 0.75121 0.0
C908 C 0.51225 0.4795 0.76384 0.0
C909 C 0.51088 0.47902 0.78502 0.0
C910 C 0.49567 0.49463 0.72872 0.0
C911 C 0.52493 0.50881 0.72144 0.0
C912 C 0.46882 0.48316 0.71451 0.0
C913 C 0.43744 0.46568 0.72107 0.0
C914 C 0.43167 0.43685 0.73325 0.0
C915 C 0.40216 0.42072 0.73956 0.0
C916 C 0.37814 0.43304 0.73367 0.0
C917 C 0.38358 0.46147 0.7214 0.0
C918 C 0.41306 0.47771 0.71506 0.0
C919 C 0.52217 0.49431 0.63251 0.0
C920 C 0.50742 0.5144 0.62159 0.0
C921 C 0.51992 0.48997 0.65351 0.0
C922 C 0.50284 0.50556 0.66393 0.0
C923 C 0.48759 0.52502 0.65301 0.0
C924 C 0.48998 0.52956 0.63208 0.0
C925 C 0.50111 0.50205 0.6863 0.0
C926 C 0.4719 0.48742 0.69351 0.0
C927 C 0.528 0.51278 0.70043 0.0
C928 C 0.55944 0.52934 0.69379 0.0
C929 C 0.56626 0.55905 0.68234 0.0
C930 C 0.5959 0.57437 0.67604 0.0
C931 C 0.61898 0.56035 0.68122 0.0
C932 C 0.6125 0.53103 0.69277 0.0
C933 C 0.58288 0.51559 0.6991 0.0
H934 H 0.64192 0.57225 0.67632 0.0
H935 H 0.35531 0.42052 0.73858 0.0
H936 H 0.57356 0.0368 0.58594 0.0
H937 H 0.56892 0.02817 0.62247 0.0
H938 H 0.46906 0.99358 0.61073 0.0
H939 H 0.47377 0.00411 0.57432 0.0
H940 H 0.4839 0.03133 0.64254 0.0
H941 H 0.51299 0.93799 0.62206 0.0
H942 H 0.54424 0.9092 0.60624 0.0
H943 H 0.62372 0.96413 0.64757 0.0
H944 H 0.5931 0.99359 0.6635 0.0
H945 H 0.46058 0.95959 0.74189 0.0
H946 H 0.46325 0.96115 0.70471 0.0
H947 H 0.55813 0.02947 0.71392 0.0
H948 H 0.55548 0.02875 0.75101 0.0
H949 H 0.54345 0.97067 0.6837 0.0
H950 H 0.51181 0.06566 0.70224 0.0
H951 H 0.47798 0.09096 0.7181 0.0
H952 H 0.39903 0.02638 0.67965 0.0
H953 H 0.43237 0.00034 0.66377 0.0
C954 C 0.55064 0.02734 0.59118 0.0
C955 C 0.52402 0.0211 0.57733 0.0
C956 C 0.54797 0.02213 0.61206 0.0
C957 C 0.5186 0.00947 0.6194 0.0
C958 C 0.49199 0.0033 0.60551 0.0
C959 C 0.49468 0.00931 0.5847 0.0
C960 C 0.51563 0.00369 0.64162 0.0
C961 C 0.49656 0.01751 0.65137 0.0
C962 C 0.53234 0.98599 0.65337 0.0
C963 C 0.5508 0.96822 0.64387 0.0
C964 C 0.53719 0.9441 0.62769 0.0
C965 C 0.55477 0.92764 0.61872 0.0
C966 C 0.58594 0.93489 0.62586 0.0
C967 C 0.59958 0.95856 0.64204 0.0
C968 C 0.58211 0.97512 0.65107 0.0
C969 C 0.48209 0.97468 0.73599 0.0
C970 C 0.50778 0.99418 0.74933 0.0
C971 C 0.48354 0.97558 0.7148 0.0
C972 C 0.51087 0.99547 0.70668 0.0
C973 C 0.53688 0.01394 0.71996 0.0
C974 C 0.53526 0.01361 0.74111 0.0
C975 C 0.51196 0.99839 0.68429 0.0
C976 C 0.53067 0.98411 0.67463 0.0
C977 C 0.49448 0.01503 0.67253 0.0
C978 C 0.4745 0.03077 0.68201 0.0
C979 C 0.48718 0.05662 0.69731 0.0
C980 C 0.46812 0.07114 0.70627 0.0
C981 C 0.43636 0.0602 0.69993 0.0
C982 C 0.42362 0.03478 0.68457 0.0
C983 C 0.44259 0.02014 0.67559 0.0
H984 H 0.42164 0.07149 0.70688 0.0
H985 H 0.5995 0.92211 0.61888 0.0
H986 H 0.43897 0.45891 0.92065 0.0
H987 H 0.43853 0.46239 0.95794 0.0
H988 H 0.53034 0.53822 0.96281 0.0
H989 H 0.53103 0.53498 0.92579 0.0
H990 H 0.52468 0.4869 0.99014 0.0
H991 H 0.46868 0.56137 0.96678 0.0
H992 H 0.42646 0.57491 0.94696 0.0
H993 H 0.359 0.49821 0.97806 0.0
H994 H 0.40085 0.48388 0.99787 0.0
H995 H 0.5546 0.563 0.08627 0.0
H996 H 0.5417 0.55515 0.04932 0.0
H997 H 0.45104 0.48387 0.05834 0.0
H998 H 0.46379 0.49212 0.09566 0.0
H999 H 0.44997 0.52458 0.02445 0.0
H1000 H 0.50554 0.45287 0.0497 0.0
H1001 H 0.54743 0.43895 0.06967 0.0
H1002 H 0.61482 0.50836 0.03479 0.0
H1003 H 0.57337 0.5231 0.01481 0.0
C1004 C 0.45906 0.47632 0.92968 0.0
C1005 C 0.48505 0.49665 0.92025 0.0
C1006 C 0.45869 0.47838 0.95095 0.0
C1007 C 0.48435 0.50068 0.9631 0.0
C1008 C 0.5103 0.52084 0.95371 0.0
C1009 C 0.51061 0.51899 0.93252 0.0
C1010 C 0.48486 0.50274 0.98569 0.0
C1011 C 0.50845 0.49533 0.99763 0.0
C1012 C 0.46299 0.51256 0.99546 0.0
C1013 C 0.43787 0.52127 0.98362 0.0
C1014 C 0.44483 0.54718 0.96926 0.0
C1015 C 0.42097 0.55505 0.95805 0.0
C1016 C 0.39006 0.53736 0.9612 0.0
C1017 C 0.38295 0.51184 0.9756 0.0
C1018 C 0.40673 0.50385 0.98683 0.0
C1019 C 0.53169 0.54611 0.08041 0.0
C1020 C 0.51023 0.52807 0.09382 0.0
C1021 C 0.52437 0.54159 0.05929 0.0
C1022 C 0.49567 0.51836 0.0511 0.0
C1023 C 0.47336 0.50183 0.06438 0.0
C1024 C 0.48061 0.50666 0.08566 0.0
C1025 C 0.49043 0.50978 0.02881 0.0
C1026 C 0.46593 0.51574 0.01696 0.0
C1027 C 0.51135 0.49836 0.01904 0.0
C1028 C 0.53635 0.48925 0.03085 0.0
C1029 C 0.52931 0.46533 0.04637 0.0
C1030 C 0.55298 0.45727 0.05768 0.0
C1031 C 0.58377 0.4728 0.05352 0.0
C1032 C 0.59095 0.49636 0.038 0.0
C1033 C 0.56738 0.50454 0.02666 0.0
H1034 H 0.60206 0.46655 0.06231 0.0
H1035 H 0.37162 0.54349 0.95251 0.0
H1036 H 1.00114 0.47581 0.20097 0.0
H1037 H 1.00274 0.47463 0.2383 0.0
H1038 H 0.05222 0.58318 0.24233 0.0
H1039 H 0.05187 0.58423 0.20512 0.0
H1040 H 0.07549 0.55585 0.27135 0.0
H1041 H 0.9717 0.54637 0.24643 0.0
H1042 H 0.92126 0.52182 0.22568 0.0
H1043 H 0.9053 0.42635 0.25521 0.0
H1044 H 0.95586 0.45022 0.27595 0.0
H1045 H 0.98718 0.54784 0.36852 0.0
H1046 H 0.98912 0.54961 0.33148 0.0
H1047 H 0.06234 0.50694 0.33717 0.0
H1048 H 0.06123 0.50618 0.37433 0.0
H1049 H 0.97757 0.50279 0.30333 0.0
H1050 H 0.10971 0.53455 0.29982 0.0
H1051 H 0.15905 0.56572 0.32043 0.0
H1052 H 0.11608 0.62907 0.34768 0.0
H1053 H 0.06663 0.59859 0.32705 0.0
C1054 C 0.0125 0.49938 0.20984 0.0
C1055 C 0.02626 0.53014 0.20011 0.0
C1056 C 0.01328 0.49872 0.23118 0.0
C1057 C 0.0271 0.52893 0.24316 0.0
C1058 C 0.04141 0.55953 0.23346 0.0
C1059 C 0.04114 0.5601 0.21216 0.0
C1060 C 0.02625 0.52891 0.26576 0.0
C1061 C 0.05407 0.54419 0.27833 0.0
C1062 C 0.99823 0.51432 0.27493 0.0
C1063 C 0.96769 0.49999 0.2626 0.0
C1064 C 0.95751 0.52008 0.24841 0.0
C1065 C 0.9289 0.50629 0.23666 0.0
C1066 C 0.91012 0.47252 0.23909 0.0
C1067 C 0.91989 0.4525 0.25332 0.0
C1068 C 0.94851 0.46614 0.26509 0.0
C1069 C 0.00381 0.53899 0.36191 0.0
C1070 C 0.02415 0.52701 0.37439 0.0
C1071 C 0.00482 0.5399 0.3407 0.0
C1072 C 0.02604 0.5287 0.33151 0.0
C1073 C 0.04616 0.51636 0.34392 0.0
C1074 C 0.04544 0.51583 0.36517 0.0
C1075 C 0.02682 0.52962 0.30892 0.0
C1076 C 0.999 0.51439 0.29635 0.0
C1077 C 0.05465 0.54525 0.29975 0.0
C1078 C 0.0844 0.56402 0.31204 0.0
C1079 C 0.11083 0.55521 0.31016 0.0
C1080 C 0.13881 0.57275 0.32185 0.0
C1081 C 0.14066 0.59928 0.33541 0.0
C1082 C 0.11458 0.60843 0.33724 0.0
C1083 C 0.08657 0.591 0.32556 0.0
H1084 H 0.16233 0.6128 0.34446 0.0
H1085 H 0.88798 0.46189 0.22997 0.0
loop_
_geom_bond_atom_site_label_1
_geom_bond_atom_site_label_2
_geom_bond_distance
_geom_bond_site_symmetry_2
_ccdc_geom_bond_type
Dy0 O3 2.307 1_455 S
Dy0 O5 2.395 . S
Dy0 O6 2.379 . S
Dy0 O8 2.339 . S
Dy0 O10 2.298 . S
Dy0 O14 2.275 . S
Dy0 C22 2.738 . S
Dy1 O4 2.298 . S
Dy1 O7 2.275 1_655 S
Dy1 O9 2.307 1_655 S
Dy1 O11 2.395 . S
Dy1 O12 2.379 . S
Dy1 O15 2.339 . S
Dy1 C31 2.738 . S
C2 O14 1.254 . S
C2 O15 1.257 1_455 S
O3 Dy0 2.307 1_655 S
O3 C13 1.266 . S
O4 Dy1 2.298 . S
O4 C13 1.236 . S
O5 Dy0 2.395 . S
O5 C22 1.255 . S
O6 Dy0 2.379 . S
O6 C22 1.249 . S
O7 Dy1 2.275 1_455 S
O7 C23 1.254 . S
O8 Dy0 2.339 . S
O8 C23 1.257 . S
O9 Dy1 2.307 1_455 S
O9 C24 1.266 . S
O10 Dy0 2.298 . S
O10 C24 1.236 . S
O11 Dy1 2.395 . S
O11 C31 1.255 . S
O12 Dy1 2.379 . S
O12 C31 1.249 . S
C13 O3 1.266 . S
C13 O4 1.236 . S
O14 Dy0 2.275 . S
O14 C2 1.254 . S
O15 Dy1 2.339 . S
O15 C2 1.257 1_655 S
C16 C19 1.344 . S
C16 C20 1.328 . S
C16 C22 1.516 . S
C17 C18 1.304 . S
C17 C21 1.323 . S
C18 C17 1.304 . S
C18 C19 1.371 . S
C18 H32 0.930 . S
C19 C16 1.344 . S
C19 C18 1.371 . S
C19 H33 0.931 . S
C20 C16 1.328 . S
C20 C21 1.433 . S
C20 H34 0.931 . S
C21 C17 1.323 . S
C21 C20 1.433 . S
C21 H35 0.933 . S
C22 Dy0 2.738 . S
C22 O5 1.255 . S
C22 O6 1.249 . S
C22 C16 1.516 . S
C23 O7 1.254 . S
C23 O8 1.257 . S
C24 O9 1.266 . S
C24 O10 1.236 . S
C25 C28 1.344 . S
C25 C29 1.328 . S
C25 C31 1.516 . S
C26 C27 1.304 . S
C26 C30 1.323 . S
C27 C26 1.304 . S
C27 C28 1.371 . S
C27 H36 0.930 . S
C28 C25 1.344 . S
C28 C27 1.371 . S
C28 H37 0.931 . S
C29 C25 1.328 . S
C29 C30 1.433 . S
C29 H38 0.931 . S
C30 C26 1.323 . S
C30 C29 1.433 . S
C30 H39 0.933 . S
C31 Dy1 2.738 . S
C31 O11 1.255 . S
C31 O12 1.249 . S
C31 C25 1.516 . S
H32 C18 0.930 . S
H33 C19 0.931 . S
H34 C20 0.931 . S
H35 C21 0.933 . S
H36 C27 0.930 . S
H37 C28 0.931 . S
H38 C29 0.931 . S
H39 C30 0.933 . S
Dy40 O43 2.307 . S
Dy40 O45 2.395 1_545 S
Dy40 O46 2.379 1_545 S
Dy40 O48 2.339 . S
Dy40 O50 2.298 1_545 S
Dy40 O54 2.275 . S
Dy40 C62 2.738 1_545 S
Dy41 O44 2.298 . S
Dy41 O47 2.275 . S
Dy41 O49 2.307 1_545 S
Dy41 O51 2.395 . S
Dy41 O52 2.379 . S
Dy41 O55 2.339 . S
Dy41 C71 2.738 . S
C42 O54 1.254 . S
C42 O55 1.257 . S
O43 Dy40 2.307 . S
O43 C53 1.266 . S
O44 Dy41 2.298 . S
O44 C53 1.236 . S
O45 Dy40 2.395 1_565 S
O45 C62 1.255 . S
O46 Dy40 2.379 1_565 S
O46 C62 1.249 . S
O47 Dy41 2.275 . S
O47 C63 1.254 . S
O48 Dy40 2.339 . S
O48 C63 1.257 . S
O49 Dy41 2.307 1_565 S
O49 C64 1.266 . S
O50 Dy40 2.298 1_565 S
O50 C64 1.236 . S
O51 Dy41 2.395 . S
O51 C71 1.255 . S
O52 Dy41 2.379 . S
O52 C71 1.249 . S
C53 O43 1.266 . S
C53 O44 1.236 . S
O54 Dy40 2.275 . S
O54 C42 1.254 . S
O55 Dy41 2.339 . S
O55 C42 1.257 . S
C56 C59 1.344 . S
C56 C60 1.328 . S
C56 C62 1.516 . S
C57 C58 1.304 . S
C57 C61 1.323 . S
C58 C57 1.304 . S
C58 C59 1.371 . S
C58 H72 0.930 . S
C59 C56 1.344 . S
C59 C58 1.371 . S
C59 H73 0.931 . S
C60 C56 1.328 . S
C60 C61 1.433 . S
C60 H74 0.931 . S
C61 C57 1.323 . S
C61 C60 1.433 . S
C61 H75 0.933 . S
C62 Dy40 2.738 1_565 S
C62 O45 1.255 . S
C62 O46 1.249 . S
C62 C56 1.516 . S
C63 O47 1.254 . S
C63 O48 1.257 . S
C64 O49 1.266 . S
C64 O50 1.236 . S
C65 C68 1.344 . S
C65 C69 1.328 . S
C65 C71 1.516 . S
C66 C67 1.304 . S
C66 C70 1.323 . S
C67 C66 1.304 . S
C67 C68 1.371 . S
C67 H76 0.930 . S
C68 C65 1.344 . S
C68 C67 1.371 . S
C68 H77 0.931 . S
C69 C65 1.328 . S
C69 C70 1.433 . S
C69 H78 0.931 . S
C70 C66 1.323 . S
C70 C69 1.433 . S
C70 H79 0.933 . S
C71 Dy41 2.738 . S
C71 O51 1.255 . S
C71 O52 1.249 . S
C71 C65 1.516 . S
H72 C58 0.930 . S
H73 C59 0.931 . S
H74 C60 0.931 . S
H75 C61 0.933 . S
H76 C67 0.930 . S
H77 C68 0.931 . S
H78 C69 0.931 . S
H79 C70 0.933 . S
Dy80 O83 2.307 . S
Dy80 O85 2.395 . S
Dy80 O86 2.379 . S
Dy80 O88 2.339 . S
Dy80 O90 2.298 . S
Dy80 O94 2.275 . S
Dy80 C102 2.738 . S
Dy81 O84 2.298 . S
Dy81 O87 2.275 . S
Dy81 O89 2.307 . S
Dy81 O91 2.395 . S
Dy81 O92 2.379 . S
Dy81 O95 2.339 . S
Dy81 C111 2.738 . S
C82 O94 1.254 . S
C82 O95 1.257 . S
O83 Dy80 2.307 . S
O83 C93 1.266 . S
O84 Dy81 2.298 . S
O84 C93 1.236 . S
O85 Dy80 2.395 . S
O85 C102 1.255 . S
O86 Dy80 2.379 . S
O86 C102 1.249 . S
O87 Dy81 2.275 . S
O87 C103 1.254 . S
O88 Dy80 2.339 . S
O88 C103 1.257 . S
O89 Dy81 2.307 . S
O89 C104 1.266 . S
O90 Dy80 2.298 . S
O90 C104 1.236 . S
O91 Dy81 2.395 . S
O91 C111 1.255 . S
O92 Dy81 2.379 . S
O92 C111 1.249 . S
C93 O83 1.266 . S
C93 O84 1.236 . S
O94 Dy80 2.275 . S
O94 C82 1.254 . S
O95 Dy81 2.339 . S
O95 C82 1.257 . S
C96 C99 1.344 . S
C96 C100 1.328 . S
C96 C102 1.516 . S
C97 C98 1.304 . S
C97 C101 1.323 . S
C98 C97 1.304 . S
C98 C99 1.371 . S
C98 H112 0.930 . S
C99 C96 1.344 . S
C99 C98 1.371 . S
C99 H113 0.931 . S
C100 C96 1.328 . S
C100 C101 1.433 . S
C100 H114 0.931 . S
C101 C97 1.323 . S
C101 C100 1.433 . S
C101 H115 0.933 . S
C102 Dy80 2.738 . S
C102 O85 1.255 . S
C102 O86 1.249 . S
C102 C96 1.516 . S
C103 O87 1.254 . S
C103 O88 1.257 . S
C104 O89 1.266 . S
C104 O90 1.236 . S
C105 C108 1.344 . S
C105 C109 1.328 . S
C105 C111 1.516 . S
C106 C107 1.304 . S
C106 C110 1.323 . S
C107 C106 1.304 . S
C107 C108 1.371 . S
C107 H116 0.930 . S
C108 C105 1.344 . S
C108 C107 1.371 . S
C108 H117 0.931 . S
C109 C105 1.328 . S
C109 C110 1.433 . S
C109 H118 0.931 . S
C110 C106 1.323 . S
C110 C109 1.433 . S
C110 H119 0.933 . S
C111 Dy81 2.738 . S
C111 O91 1.255 . S
C111 O92 1.249 . S
C111 C105 1.516 . S
H112 C98 0.930 . S
H113 C99 0.931 . S
H114 C100 0.931 . S
H115 C101 0.933 . S
H116 C107 0.930 . S
H117 C108 0.931 . S
H118 C109 0.931 . S
H119 C110 0.933 . S
O120 Cd121 2.300 . S
O120 C127 1.275 . S
Cd121 O120 2.300 . S
Cd121 O129 2.381 . S
Cd121 O130 2.378 . S
O122 Cd123 2.385 1_545 S
O122 C127 1.255 . S
Cd123 O122 2.385 1_565 S
Cd123 O124 2.317 . S
O124 Cd123 2.317 . S
O124 C125 1.232 . S
C125 O124 1.232 . S
C125 O126 1.218 . S
O126 C125 1.218 . S
C127 O120 1.275 . S
C127 O122 1.255 . S
C128 O129 1.258 . S
C128 O130 1.256 . S
O129 Cd121 2.381 . S
O129 C128 1.258 . S
O130 Cd121 2.378 . S
O130 C128 1.256 . S
O131 Cd132 2.300 . S
O131 C138 1.275 . S
Cd132 O131 2.300 . S
Cd132 O140 2.381 . S
Cd132 O141 2.378 . S
O133 Cd134 2.385 . S
O133 C138 1.255 . S
Cd134 O133 2.385 . S
Cd134 O135 2.317 . S
O135 Cd134 2.317 . S
O135 C136 1.232 . S
C136 O135 1.232 . S
C136 O137 1.218 . S
O137 C136 1.218 . S
C138 O131 1.275 . S
C138 O133 1.255 . S
C139 O140 1.258 . S
C139 O141 1.256 . S
O140 Cd132 2.381 . S
O140 C139 1.258 . S
O141 Cd132 2.378 . S
O141 C139 1.256 . S
O142 Cd143 2.300 . S
O142 C149 1.275 . S
Cd143 O142 2.300 . S
Cd143 O151 2.381 . S
Cd143 O152 2.378 . S
O144 Cd145 2.385 1_455 S
O144 C149 1.255 . S
Cd145 O144 2.385 1_655 S
Cd145 O146 2.317 . S
O146 Cd145 2.317 . S
O146 C147 1.232 . S
C147 O146 1.232 . S
C147 O148 1.218 . S
O148 C147 1.218 . S
C149 O142 1.275 . S
C149 O144 1.255 . S
C150 O151 1.258 . S
C150 O152 1.256 . S
O151 Cd143 2.381 . S
O151 C150 1.258 . S
O152 Cd143 2.378 . S
O152 C150 1.256 . S
O153 Cd154 2.300 . S
O153 C160 1.275 . S
Cd154 O153 2.300 . S
Cd154 O162 2.381 . S
Cd154 O163 2.378 . S
O155 Cd156 2.385 . S
O155 C160 1.255 1_655 S
Cd156 O155 2.385 . S
Cd156 O157 2.317 . S
O157 Cd156 2.317 . S
O157 C158 1.232 . S
C158 O157 1.232 . S
C158 O159 1.218 . S
O159 C158 1.218 . S
C160 O153 1.275 . S
C160 O155 1.255 1_455 S
C161 O162 1.258 . S
C161 O163 1.256 . S
O162 Cd154 2.381 . S
O162 C161 1.258 . S
O163 Cd154 2.378 . S
O163 C161 1.256 . S
O164 Cd165 2.300 . S
O164 C171 1.275 1_565 S
Cd165 O164 2.300 . S
Cd165 O173 2.381 . S
Cd165 O174 2.378 . S
O166 Cd167 2.385 . S
O166 C171 1.255 . S
Cd167 O166 2.385 . S
Cd167 O168 2.317 . S
O168 Cd167 2.317 . S
O168 C169 1.232 . S
C169 O168 1.232 . S
C169 O170 1.218 . S
O170 C169 1.218 . S
C171 O164 1.275 1_545 S
C171 O166 1.255 . S
C172 O173 1.258 . S
C172 O174 1.256 . S
O173 Cd165 2.381 . S
O173 C172 1.258 . S
O174 Cd165 2.378 . S
O174 C172 1.256 . S
O175 Cd176 2.300 . S
O175 C182 1.275 . S
Cd176 O175 2.300 . S
Cd176 O184 2.381 . S
Cd176 O185 2.378 . S
O177 Cd178 2.385 . S
O177 C182 1.255 . S
Cd178 O177 2.385 . S
Cd178 O179 2.317 . S
O179 Cd178 2.317 . S
O179 C180 1.232 . S
C180 O179 1.232 . S
C180 O181 1.218 . S
O181 C180 1.218 . S
C182 O175 1.275 . S
C182 O177 1.255 . S
C183 O184 1.258 . S
C183 O185 1.256 . S
O184 Cd176 2.381 . S
O184 C183 1.258 . S
O185 Cd176 2.378 . S
O185 C183 1.256 . S
H186 C204 0.951 . S
H187 C206 0.951 . S
H188 C208 0.950 . S
H189 C209 0.950 . S
H190 C211 0.950 . S
H191 C214 0.950 . S
H192 C215 0.950 . S
H193 C217 0.950 . S
H194 C218 0.950 . S
H195 C219 0.951 . S
H196 C221 0.951 . S
H197 C223 0.950 . S
H198 C224 0.950 . S
H199 C226 0.950 . S
H200 C229 0.950 . S
H201 C230 0.950 . S
H202 C232 0.950 . S
H203 C233 0.950 . S
C204 H186 0.951 . S
C204 C205 1.366 . S
C204 C206 1.388 . S
C205 C204 1.366 . S
C205 C209 1.385 . S
C206 H187 0.951 . S
C206 C204 1.388 . S
C206 C207 1.366 . S
C207 C206 1.366 . S
C207 C208 1.414 . S
C207 C210 1.499 . S
C208 H188 0.950 . S
C208 C207 1.414 . S
C208 C209 1.374 . S
C209 H189 0.950 . S
C209 C205 1.385 . S
C209 C208 1.374 . S
C210 C207 1.499 . S
C210 C211 1.373 . S
C210 C212 1.389 . S
C211 H190 0.950 . S
C211 C210 1.373 . S
C211 C227 1.377 . S
C212 C210 1.389 . S
C212 C213 1.524 . S
C212 C226 1.377 . S
C213 C212 1.524 . S
C213 C214 1.397 . S
C213 C218 1.363 . S
C214 H191 0.950 . S
C214 C213 1.397 . S
C214 C215 1.334 . S
C215 H192 0.950 . S
C215 C214 1.334 . S
C215 C216 1.287 . S
C216 C215 1.287 . S
C216 C217 1.524 . S
C216 H235 0.913 . S
C217 H193 0.950 . S
C217 C216 1.524 . S
C217 C218 1.415 . S
C218 H194 0.950 . S
C218 C213 1.363 . S
C218 C217 1.415 . S
C219 H195 0.951 . S
C219 C220 1.366 . S
C219 C221 1.388 . S
C220 C219 1.366 . S
C220 C224 1.385 . S
C221 H196 0.951 . S
C221 C219 1.388 . S
C221 C222 1.366 . S
C222 C221 1.366 . S
C222 C223 1.414 . S
C222 C225 1.499 . S
C223 H197 0.950 . S
C223 C222 1.414 . S
C223 C224 1.374 . S
C224 H198 0.950 . S
C224 C220 1.385 . S
C224 C223 1.374 . S
C225 C222 1.499 . S
C225 C226 1.373 . S
C225 C227 1.389 . S
C226 H199 0.950 . S
C226 C212 1.377 . S
C226 C225 1.373 . S
C227 C211 1.377 . S
C227 C225 1.389 . S
C227 C228 1.524 . S
C228 C227 1.524 . S
C228 C229 1.397 . S
C228 C233 1.363 . S
C229 H200 0.950 . S
C229 C228 1.397 . S
C229 C230 1.334 . S
C230 H201 0.950 . S
C230 C229 1.334 . S
C230 C231 1.287 . S
C231 C230 1.287 . S
C231 C232 1.524 . S
C231 H234 0.999 . S
C232 H202 0.950 . S
C232 C231 1.524 . S
C232 C233 1.415 . S
C233 H203 0.950 . S
C233 C228 1.363 . S
C233 C232 1.415 . S
H234 C231 0.999 . S
H235 C216 0.913 . S
H236 C254 0.951 . S
H237 C256 0.951 . S
H238 C258 0.950 . S
H239 C259 0.950 . S
H240 C261 0.950 . S
H241 C264 0.950 . S
H242 C265 0.950 . S
H243 C267 0.950 . S
H244 C268 0.950 . S
H245 C269 0.951 . S
H246 C271 0.951 . S
H247 C273 0.950 . S
H248 C274 0.950 . S
H249 C276 0.950 . S
H250 C279 0.950 . S
H251 C280 0.950 . S
H252 C282 0.950 . S
H253 C283 0.950 . S
C254 H236 0.951 . S
C254 C255 1.366 . S
C254 C256 1.388 . S
C255 C254 1.366 . S
C255 C259 1.385 . S
C256 H237 0.951 . S
C256 C254 1.388 . S
C256 C257 1.366 . S
C257 C256 1.366 . S
C257 C258 1.414 . S
C257 C260 1.499 . S
C258 H238 0.950 . S
C258 C257 1.414 . S
C258 C259 1.374 . S
C259 H239 0.950 . S
C259 C255 1.385 . S
C259 C258 1.374 . S
C260 C257 1.499 . S
C260 C261 1.373 . S
C260 C262 1.389 . S
C261 H240 0.950 . S
C261 C260 1.373 . S
C261 C277 1.377 . S
C262 C260 1.389 . S
C262 C263 1.524 . S
C262 C276 1.377 . S
C263 C262 1.524 . S
C263 C264 1.397 . S
C263 C268 1.363 . S
C264 H241 0.950 . S
C264 C263 1.397 . S
C264 C265 1.334 . S
C265 H242 0.950 . S
C265 C264 1.334 . S
C265 C266 1.287 . S
C266 C265 1.287 . S
C266 C267 1.524 . S
C266 H285 0.913 . S
C267 H243 0.950 . S
C267 C266 1.524 . S
C267 C268 1.415 . S
C268 H244 0.950 . S
C268 C263 1.363 . S
C268 C267 1.415 . S
C269 H245 0.951 . S
C269 C270 1.366 . S
C269 C271 1.388 . S
C270 C269 1.366 . S
C270 C274 1.385 . S
C271 H246 0.951 . S
C271 C269 1.388 . S
C271 C272 1.366 . S
C272 C271 1.366 . S
C272 C273 1.414 . S
C272 C275 1.499 . S
C273 H247 0.950 . S
C273 C272 1.414 . S
C273 C274 1.374 . S
C274 H248 0.950 . S
C274 C270 1.385 . S
C274 C273 1.374 . S
C275 C272 1.499 . S
C275 C276 1.373 . S
C275 C277 1.389 . S
C276 H249 0.950 . S
C276 C262 1.377 . S
C276 C275 1.373 . S
C277 C261 1.377 . S
C277 C275 1.389 . S
C277 C278 1.524 . S
C278 C277 1.524 . S
C278 C279 1.397 . S
C278 C283 1.363 . S
C279 H250 0.950 . S
C279 C278 1.397 . S
C279 C280 1.334 . S
C280 H251 0.950 . S
C280 C279 1.334 . S
C280 C281 1.287 . S
C281 C280 1.287 . S
C281 C282 1.524 . S
C281 H284 0.999 . S
C282 H252 0.950 . S
C282 C281 1.524 . S
C282 C283 1.415 . S
C283 H253 0.950 . S
C283 C278 1.363 . S
C283 C282 1.415 . S
H284 C281 0.999 . S
H285 C266 0.913 . S
H286 C304 0.951 . S
H287 C306 0.951 . S
H288 C308 0.950 . S
H289 C309 0.950 . S
H290 C311 0.950 . S
H291 C314 0.950 . S
H292 C315 0.950 . S
H293 C317 0.950 . S
H294 C318 0.950 . S
H295 C319 0.951 . S
H296 C321 0.951 . S
H297 C323 0.950 . S
H298 C324 0.950 . S
H299 C326 0.950 . S
H300 C329 0.950 . S
H301 C330 0.950 . S
H302 C332 0.950 . S
H303 C333 0.950 . S
C304 H286 0.951 . S
C304 C305 1.366 . S
C304 C306 1.388 . S
C305 C304 1.366 . S
C305 C309 1.385 . S
C306 H287 0.951 . S
C306 C304 1.388 . S
C306 C307 1.366 . S
C307 C306 1.366 . S
C307 C308 1.414 . S
C307 C310 1.499 . S
C308 H288 0.950 . S
C308 C307 1.414 . S
C308 C309 1.374 . S
C309 H289 0.950 . S
C309 C305 1.385 . S
C309 C308 1.374 . S
C310 C307 1.499 . S
C310 C311 1.373 . S
C310 C312 1.389 . S
C311 H290 0.950 . S
C311 C310 1.373 . S
C311 C327 1.377 . S
C312 C310 1.389 . S
C312 C313 1.524 . S
C312 C326 1.377 . S
C313 C312 1.524 . S
C313 C314 1.397 . S
C313 C318 1.363 . S
C314 H291 0.950 . S
C314 C313 1.397 . S
C314 C315 1.334 . S
C315 H292 0.950 . S
C315 C314 1.334 . S
C315 C316 1.287 . S
C316 C315 1.287 . S
C316 C317 1.524 . S
C316 H335 0.913 . S
C317 H293 0.950 . S
C317 C316 1.524 . S
C317 C318 1.415 . S
C318 H294 0.950 . S
C318 C313 1.363 . S
C318 C317 1.415 . S
C319 H295 0.951 . S
C319 C320 1.366 . S
C319 C321 1.388 . S
C320 C319 1.366 . S
C320 C324 1.385 . S
C321 H296 0.951 . S
C321 C319 1.388 . S
C321 C322 1.366 . S
C322 C321 1.366 . S
C322 C323 1.414 . S
C322 C325 1.499 . S
C323 H297 0.950 . S
C323 C322 1.414 . S
C323 C324 1.374 . S
C324 H298 0.950 . S
C324 C320 1.385 . S
C324 C323 1.374 . S
C325 C322 1.499 . S
C325 C326 1.373 . S
C325 C327 1.389 . S
C326 H299 0.950 . S
C326 C312 1.377 . S
C326 C325 1.373 . S
C327 C311 1.377 . S
C327 C325 1.389 . S
C327 C328 1.524 . S
C328 C327 1.524 . S
C328 C329 1.397 . S
C328 C333 1.363 . S
C329 H300 0.950 . S
C329 C328 1.397 . S
C329 C330 1.334 . S
C330 H301 0.950 . S
C330 C329 1.334 . S
C330 C331 1.287 . S
C331 C330 1.287 . S
C331 C332 1.524 . S
C331 H334 0.999 . S
C332 H302 0.950 . S
C332 C331 1.524 . S
C332 C333 1.415 . S
C333 H303 0.950 . S
C333 C328 1.363 . S
C333 C332 1.415 . S
H334 C331 0.999 . S
H335 C316 0.913 . S
H336 C354 0.951 . S
H337 C356 0.951 . S
H338 C358 0.950 . S
H339 C359 0.950 . S
H340 C361 0.950 . S
H341 C364 0.950 . S
H342 C365 0.950 . S
H343 C367 0.950 . S
H344 C368 0.950 . S
H345 C369 0.951 . S
H346 C371 0.951 . S
H347 C373 0.950 . S
H348 C374 0.950 . S
H349 C376 0.950 . S
H350 C379 0.950 . S
H351 C380 0.950 . S
H352 C382 0.950 . S
H353 C383 0.950 . S
C354 H336 0.951 . S
C354 C355 1.366 . S
C354 C356 1.388 . S
C355 C354 1.366 . S
C355 C359 1.385 . S
C356 H337 0.951 . S
C356 C354 1.388 . S
C356 C357 1.366 . S
C357 C356 1.366 . S
C357 C358 1.414 . S
C357 C360 1.499 . S
C358 H338 0.950 . S
C358 C357 1.414 . S
C358 C359 1.374 . S
C359 H339 0.950 . S
C359 C355 1.385 . S
C359 C358 1.374 . S
C360 C357 1.499 . S
C360 C361 1.373 . S
C360 C362 1.389 . S
C361 H340 0.950 . S
C361 C360 1.373 . S
C361 C377 1.377 . S
C362 C360 1.389 . S
C362 C363 1.524 . S
C362 C376 1.377 . S
C363 C362 1.524 . S
C363 C364 1.397 . S
C363 C368 1.363 . S
C364 H341 0.950 . S
C364 C363 1.397 . S
C364 C365 1.334 . S
C365 H342 0.950 . S
C365 C364 1.334 . S
C365 C366 1.287 . S
C366 C365 1.287 . S
C366 C367 1.524 . S
C366 H385 0.913 . S
C367 H343 0.950 . S
C367 C366 1.524 . S
C367 C368 1.415 . S
C368 H344 0.950 . S
C368 C363 1.363 . S
C368 C367 1.415 . S
C369 H345 0.951 . S
C369 C370 1.366 . S
C369 C371 1.388 . S
C370 C369 1.366 . S
C370 C374 1.385 . S
C371 H346 0.951 . S
C371 C369 1.388 . S
C371 C372 1.366 . S
C372 C371 1.366 . S
C372 C373 1.414 . S
C372 C375 1.499 . S
C373 H347 0.950 . S
C373 C372 1.414 . S
C373 C374 1.374 . S
C374 H348 0.950 . S
C374 C370 1.385 . S
C374 C373 1.374 . S
C375 C372 1.499 . S
C375 C376 1.373 . S
C375 C377 1.389 . S
C376 H349 0.950 . S
C376 C362 1.377 . S
C376 C375 1.373 . S
C377 C361 1.377 . S
C377 C375 1.389 . S
C377 C378 1.524 . S
C378 C377 1.524 . S
C378 C379 1.397 . S
C378 C383 1.363 . S
C379 H350 0.950 . S
C379 C378 1.397 . S
C379 C380 1.334 . S
C380 H351 0.950 . S
C380 C379 1.334 . S
C380 C381 1.287 . S
C381 C380 1.287 . S
C381 C382 1.524 . S
C381 H384 0.999 . S
C382 H352 0.950 . S
C382 C381 1.524 . S
C382 C383 1.415 . S
C383 H353 0.950 . S
C383 C378 1.363 . S
C383 C382 1.415 . S
H384 C381 0.999 . S
H385 C366 0.913 . S
H386 C404 0.951 . S
H387 C406 0.951 . S
H388 C408 0.950 . S
H389 C409 0.950 . S
H390 C411 0.950 . S
H391 C414 0.950 . S
H392 C415 0.950 . S
H393 C417 0.950 . S
H394 C418 0.950 . S
H395 C419 0.951 . S
H396 C421 0.951 . S
H397 C423 0.950 . S
H398 C424 0.950 . S
H399 C426 0.950 . S
H400 C429 0.950 . S
H401 C430 0.950 . S
H402 C432 0.950 . S
H403 C433 0.950 . S
C404 H386 0.951 . S
C404 C405 1.366 . S
C404 C406 1.388 . S
C405 C404 1.366 . S
C405 C409 1.385 . S
C406 H387 0.951 . S
C406 C404 1.388 . S
C406 C407 1.366 . S
C407 C406 1.366 . S
C407 C408 1.414 . S
C407 C410 1.499 . S
C408 H388 0.950 . S
C408 C407 1.414 . S
C408 C409 1.374 . S
C409 H389 0.950 . S
C409 C405 1.385 . S
C409 C408 1.374 . S
C410 C407 1.499 . S
C410 C411 1.373 . S
C410 C412 1.389 . S
C411 H390 0.950 . S
C411 C410 1.373 . S
C411 C427 1.377 . S
C412 C410 1.389 . S
C412 C413 1.524 . S
C412 C426 1.377 . S
C413 C412 1.524 . S
C413 C414 1.397 . S
C413 C418 1.363 . S
C414 H391 0.950 . S
C414 C413 1.397 . S
C414 C415 1.334 . S
C415 H392 0.950 . S
C415 C414 1.334 . S
C415 C416 1.287 . S
C416 C415 1.287 . S
C416 C417 1.524 . S
C416 H435 0.913 . S
C417 H393 0.950 . S
C417 C416 1.524 . S
C417 C418 1.415 . S
C418 H394 0.950 . S
C418 C413 1.363 . S
C418 C417 1.415 . S
C419 H395 0.951 . S
C419 C420 1.366 . S
C419 C421 1.388 . S
C420 C419 1.366 . S
C420 C424 1.385 . S
C421 H396 0.951 . S
C421 C419 1.388 . S
C421 C422 1.366 . S
C422 C421 1.366 . S
C422 C423 1.414 . S
C422 C425 1.499 . S
C423 H397 0.950 . S
C423 C422 1.414 . S
C423 C424 1.374 . S
C424 H398 0.950 . S
C424 C420 1.385 . S
C424 C423 1.374 . S
C425 C422 1.499 . S
C425 C426 1.373 . S
C425 C427 1.389 . S
C426 H399 0.950 . S
C426 C412 1.377 . S
C426 C425 1.373 . S
C427 C411 1.377 . S
C427 C425 1.389 . S
C427 C428 1.524 . S
C428 C427 1.524 . S
C428 C429 1.397 . S
C428 C433 1.363 . S
C429 H400 0.950 . S
C429 C428 1.397 . S
C429 C430 1.334 . S
C430 H401 0.950 . S
C430 C429 1.334 . S
C430 C431 1.287 . S
C431 C430 1.287 . S
C431 C432 1.524 . S
C431 H434 0.999 . S
C432 H402 0.950 . S
C432 C431 1.524 . S
C432 C433 1.415 . S
C433 H403 0.950 . S
C433 C428 1.363 . S
C433 C432 1.415 . S
H434 C431 0.999 . S
H435 C416 0.913 . S
H436 C454 0.951 . S
H437 C456 0.951 . S
H438 C458 0.950 . S
H439 C459 0.950 . S
H440 C461 0.950 . S
H441 C464 0.950 . S
H442 C465 0.950 . S
H443 C467 0.950 . S
H444 C468 0.950 . S
H445 C469 0.951 . S
H446 C471 0.951 . S
H447 C473 0.950 . S
H448 C474 0.950 . S
H449 C476 0.950 . S
H450 C479 0.950 . S
H451 C480 0.950 . S
H452 C482 0.950 . S
H453 C483 0.950 . S
C454 H436 0.951 . S
C454 C455 1.366 . S
C454 C456 1.388 . S
C455 C454 1.366 . S
C455 C459 1.385 . S
C456 H437 0.951 . S
C456 C454 1.388 . S
C456 C457 1.366 . S
C457 C456 1.366 . S
C457 C458 1.414 . S
C457 C460 1.499 . S
C458 H438 0.950 . S
C458 C457 1.414 . S
C458 C459 1.374 . S
C459 H439 0.950 . S
C459 C455 1.385 . S
C459 C458 1.374 . S
C460 C457 1.499 . S
C460 C461 1.373 . S
C460 C462 1.389 . S
C461 H440 0.950 . S
C461 C460 1.373 . S
C461 C477 1.377 . S
C462 C460 1.389 . S
C462 C463 1.524 . S
C462 C476 1.377 . S
C463 C462 1.524 . S
C463 C464 1.397 . S
C463 C468 1.363 . S
C464 H441 0.950 . S
C464 C463 1.397 . S
C464 C465 1.334 . S
C465 H442 0.950 . S
C465 C464 1.334 . S
C465 C466 1.287 . S
C466 C465 1.287 . S
C466 C467 1.524 . S
C466 H485 0.913 . S
C467 H443 0.950 . S
C467 C466 1.524 . S
C467 C468 1.415 . S
C468 H444 0.950 . S
C468 C463 1.363 . S
C468 C467 1.415 . S
C469 H445 0.951 . S
C469 C470 1.366 . S
C469 C471 1.388 . S
C470 C469 1.366 . S
C470 C474 1.385 . S
C471 H446 0.951 . S
C471 C469 1.388 . S
C471 C472 1.366 . S
C472 C471 1.366 . S
C472 C473 1.414 . S
C472 C475 1.499 . S
C473 H447 0.950 . S
C473 C472 1.414 . S
C473 C474 1.374 . S
C474 H448 0.950 . S
C474 C470 1.385 . S
C474 C473 1.374 . S
C475 C472 1.499 . S
C475 C476 1.373 . S
C475 C477 1.389 . S
C476 H449 0.950 . S
C476 C462 1.377 . S
C476 C475 1.373 . S
C477 C461 1.377 . S
C477 C475 1.389 . S
C477 C478 1.524 . S
C478 C477 1.524 . S
C478 C479 1.397 . S
C478 C483 1.363 . S
C479 H450 0.950 . S
C479 C478 1.397 . S
C479 C480 1.334 . S
C480 H451 0.950 . S
C480 C479 1.334 . S
C480 C481 1.287 . S
C481 C480 1.287 . S
C481 C482 1.524 . S
C481 H484 0.999 . S
C482 H452 0.950 . S
C482 C481 1.524 . S
C482 C483 1.415 . S
C483 H453 0.950 . S
C483 C478 1.363 . S
C483 C482 1.415 . S
H484 C481 0.999 . S
H485 C466 0.913 . S
H486 C504 0.951 . S
H487 C506 0.951 . S
H488 C508 0.950 . S
H489 C509 0.950 . S
H490 C511 0.950 . S
H491 C514 0.950 . S
H492 C515 0.950 . S
H493 C517 0.950 . S
H494 C518 0.950 . S
H495 C519 0.951 . S
H496 C521 0.951 . S
H497 C523 0.950 . S
H498 C524 0.950 . S
H499 C526 0.950 . S
H500 C529 0.950 . S
H501 C530 0.950 . S
H502 C532 0.950 . S
H503 C533 0.950 . S
C504 H486 0.951 . S
C504 C505 1.366 . S
C504 C506 1.388 . S
C505 C504 1.366 . S
C505 C509 1.385 . S
C506 H487 0.951 . S
C506 C504 1.388 . S
C506 C507 1.366 . S
C507 C506 1.366 . S
C507 C508 1.414 . S
C507 C510 1.499 . S
C508 H488 0.950 . S
C508 C507 1.414 . S
C508 C509 1.374 . S
C509 H489 0.950 . S
C509 C505 1.385 . S
C509 C508 1.374 . S
C510 C507 1.499 . S
C510 C511 1.373 . S
C510 C512 1.389 . S
C511 H490 0.950 . S
C511 C510 1.373 . S
C511 C527 1.377 . S
C512 C510 1.389 . S
C512 C513 1.524 . S
C512 C526 1.377 . S
C513 C512 1.524 . S
C513 C514 1.397 . S
C513 C518 1.363 . S
C514 H491 0.950 . S
C514 C513 1.397 . S
C514 C515 1.334 . S
C515 H492 0.950 . S
C515 C514 1.334 . S
C515 C516 1.287 . S
C516 C515 1.287 . S
C516 C517 1.524 . S
C516 H535 0.913 . S
C517 H493 0.950 . S
C517 C516 1.524 . S
C517 C518 1.415 . S
C518 H494 0.950 . S
C518 C513 1.363 . S
C518 C517 1.415 . S
C519 H495 0.951 . S
C519 C520 1.366 . S
C519 C521 1.388 . S
C520 C519 1.366 . S
C520 C524 1.385 . S
C521 H496 0.951 . S
C521 C519 1.388 . S
C521 C522 1.366 . S
C522 C521 1.366 . S
C522 C523 1.414 . S
C522 C525 1.499 . S
C523 H497 0.950 . S
C523 C522 1.414 . S
C523 C524 1.374 . S
C524 H498 0.950 . S
C524 C520 1.385 . S
C524 C523 1.374 . S
C525 C522 1.499 . S
C525 C526 1.373 . S
C525 C527 1.389 . S
C526 H499 0.950 . S
C526 C512 1.377 . S
C526 C525 1.373 . S
C527 C511 1.377 . S
C527 C525 1.389 . S
C527 C528 1.524 . S
C528 C527 1.524 . S
C528 C529 1.397 . S
C528 C533 1.363 . S
C529 H500 0.950 . S
C529 C528 1.397 . S
C529 C530 1.334 . S
C530 H501 0.950 . S
C530 C529 1.334 . S
C530 C531 1.287 . S
C531 C530 1.287 . S
C531 C532 1.524 . S
C531 H534 0.999 . S
C532 H502 0.950 . S
C532 C531 1.524 . S
C532 C533 1.415 . S
C533 H503 0.950 . S
C533 C528 1.363 . S
C533 C532 1.415 . S
H534 C531 0.999 . S
H535 C516 0.913 . S
H536 C554 0.951 . S
H537 C556 0.951 . S
H538 C558 0.950 . S
H539 C559 0.950 . S
H540 C561 0.950 . S
H541 C564 0.950 . S
H542 C565 0.950 . S
H543 C567 0.950 . S
H544 C568 0.950 . S
H545 C569 0.951 . S
H546 C571 0.951 . S
H547 C573 0.950 . S
H548 C574 0.950 . S
H549 C576 0.950 . S
H550 C579 0.950 . S
H551 C580 0.950 . S
H552 C582 0.950 . S
H553 C583 0.950 . S
C554 H536 0.951 . S
C554 C555 1.366 . S
C554 C556 1.388 . S
C555 C554 1.366 . S
C555 C559 1.385 . S
C556 H537 0.951 . S
C556 C554 1.388 . S
C556 C557 1.366 . S
C557 C556 1.366 . S
C557 C558 1.414 . S
C557 C560 1.499 . S
C558 H538 0.950 . S
C558 C557 1.414 . S
C558 C559 1.374 . S
C559 H539 0.950 . S
C559 C555 1.385 . S
C559 C558 1.374 . S
C560 C557 1.499 . S
C560 C561 1.373 . S
C560 C562 1.389 . S
C561 H540 0.950 . S
C561 C560 1.373 . S
C561 C577 1.377 . S
C562 C560 1.389 . S
C562 C563 1.524 . S
C562 C576 1.377 . S
C563 C562 1.524 . S
C563 C564 1.397 . S
C563 C568 1.363 . S
C564 H541 0.950 . S
C564 C563 1.397 . S
C564 C565 1.334 . S
C565 H542 0.950 . S
C565 C564 1.334 . S
C565 C566 1.287 . S
C566 C565 1.287 . S
C566 C567 1.524 . S
C566 H585 0.913 . S
C567 H543 0.950 . S
C567 C566 1.524 . S
C567 C568 1.415 . S
C568 H544 0.950 . S
C568 C563 1.363 . S
C568 C567 1.415 . S
C569 H545 0.951 . S
C569 C570 1.366 . S
C569 C571 1.388 . S
C570 C569 1.366 . S
C570 C574 1.385 . S
C571 H546 0.951 . S
C571 C569 1.388 . S
C571 C572 1.366 . S
C572 C571 1.366 . S
C572 C573 1.414 . S
C572 C575 1.499 . S
C573 H547 0.950 . S
C573 C572 1.414 . S
C573 C574 1.374 . S
C574 H548 0.950 . S
C574 C570 1.385 . S
C574 C573 1.374 . S
C575 C572 1.499 . S
C575 C576 1.373 . S
C575 C577 1.389 . S
C576 H549 0.950 . S
C576 C562 1.377 . S
C576 C575 1.373 . S
C577 C561 1.377 . S
C577 C575 1.389 . S
C577 C578 1.524 . S
C578 C577 1.524 . S
C578 C579 1.397 . S
C578 C583 1.363 . S
C579 H550 0.950 . S
C579 C578 1.397 . S
C579 C580 1.334 . S
C580 H551 0.950 . S
C580 C579 1.334 . S
C580 C581 1.287 . S
C581 C580 1.287 . S
C581 C582 1.524 . S
C581 H584 0.999 . S
C582 H552 0.950 . S
C582 C581 1.524 . S
C582 C583 1.415 . S
C583 H553 0.950 . S
C583 C578 1.363 . S
C583 C582 1.415 . S
H584 C581 0.999 . S
H585 C566 0.913 . S
H586 C604 0.951 . S
H587 C606 0.951 . S
H588 C608 0.950 . S
H589 C609 0.950 . S
H590 C611 0.950 . S
H591 C614 0.950 . S
H592 C615 0.950 . S
H593 C617 0.950 . S
H594 C618 0.950 . S
H595 C619 0.951 . S
H596 C621 0.951 . S
H597 C623 0.950 . S
H598 C624 0.950 . S
H599 C626 0.950 . S
H600 C629 0.950 . S
H601 C630 0.950 . S
H602 C632 0.950 . S
H603 C633 0.950 . S
C604 H586 0.951 . S
C604 C605 1.366 . S
C604 C606 1.388 . S
C605 C604 1.366 . S
C605 C609 1.385 . S
C606 H587 0.951 . S
C606 C604 1.388 . S
C606 C607 1.366 . S
C607 C606 1.366 . S
C607 C608 1.414 . S
C607 C610 1.499 . S
C608 H588 0.950 . S
C608 C607 1.414 . S
C608 C609 1.374 . S
C609 H589 0.950 . S
C609 C605 1.385 . S
C609 C608 1.374 . S
C610 C607 1.499 . S
C610 C611 1.373 . S
C610 C612 1.389 . S
C611 H590 0.950 . S
C611 C610 1.373 . S
C611 C627 1.377 . S
C612 C610 1.389 . S
C612 C613 1.524 . S
C612 C626 1.377 . S
C613 C612 1.524 . S
C613 C614 1.397 . S
C613 C618 1.363 . S
C614 H591 0.950 . S
C614 C613 1.397 . S
C614 C615 1.334 . S
C615 H592 0.950 . S
C615 C614 1.334 . S
C615 C616 1.287 . S
C616 C615 1.287 . S
C616 C617 1.524 . S
C616 H635 0.913 . S
C617 H593 0.950 . S
C617 C616 1.524 . S
C617 C618 1.415 . S
C618 H594 0.950 . S
C618 C613 1.363 . S
C618 C617 1.415 . S
C619 H595 0.951 . S
C619 C620 1.366 . S
C619 C621 1.388 . S
C620 C619 1.366 . S
C620 C624 1.385 . S
C621 H596 0.951 . S
C621 C619 1.388 . S
C621 C622 1.366 . S
C622 C621 1.366 . S
C622 C623 1.414 . S
C622 C625 1.499 . S
C623 H597 0.950 . S
C623 C622 1.414 . S
C623 C624 1.374 . S
C624 H598 0.950 . S
C624 C620 1.385 . S
C624 C623 1.374 . S
C625 C622 1.499 . S
C625 C626 1.373 . S
C625 C627 1.389 . S
C626 H599 0.950 . S
C626 C612 1.377 . S
C626 C625 1.373 . S
C627 C611 1.377 . S
C627 C625 1.389 . S
C627 C628 1.524 . S
C628 C627 1.524 . S
C628 C629 1.397 . S
C628 C633 1.363 . S
C629 H600 0.950 . S
C629 C628 1.397 . S
C629 C630 1.334 . S
C630 H601 0.950 . S
C630 C629 1.334 . S
C630 C631 1.287 . S
C631 C630 1.287 . S
C631 C632 1.524 . S
C631 H634 0.999 . S
C632 H602 0.950 . S
C632 C631 1.524 . S
C632 C633 1.415 . S
C633 H603 0.950 . S
C633 C628 1.363 . S
C633 C632 1.415 . S
H634 C631 0.999 . S
H635 C616 0.913 . S
H636 C654 0.951 . S
H637 C656 0.951 . S
H638 C658 0.950 . S
H639 C659 0.950 . S
H640 C661 0.950 . S
H641 C664 0.950 . S
H642 C665 0.950 . S
H643 C667 0.950 . S
H644 C668 0.950 . S
H645 C669 0.951 . S
H646 C671 0.951 . S
H647 C673 0.950 . S
H648 C674 0.950 . S
H649 C676 0.950 . S
H650 C679 0.950 . S
H651 C680 0.950 . S
H652 C682 0.950 . S
H653 C683 0.950 . S
C654 H636 0.951 . S
C654 C655 1.366 . S
C654 C656 1.388 . S
C655 C654 1.366 . S
C655 C659 1.385 . S
C656 H637 0.951 . S
C656 C654 1.388 . S
C656 C657 1.366 . S
C657 C656 1.366 . S
C657 C658 1.414 . S
C657 C660 1.499 . S
C658 H638 0.950 . S
C658 C657 1.414 . S
C658 C659 1.374 . S
C659 H639 0.950 . S
C659 C655 1.385 . S
C659 C658 1.374 . S
C660 C657 1.499 . S
C660 C661 1.373 . S
C660 C662 1.389 . S
C661 H640 0.950 . S
C661 C660 1.373 . S
C661 C677 1.377 . S
C662 C660 1.389 . S
C662 C663 1.524 . S
C662 C676 1.377 . S
C663 C662 1.524 . S
C663 C664 1.397 . S
C663 C668 1.363 . S
C664 H641 0.950 . S
C664 C663 1.397 . S
C664 C665 1.334 . S
C665 H642 0.950 . S
C665 C664 1.334 . S
C665 C666 1.287 . S
C666 C665 1.287 . S
C666 C667 1.524 . S
C666 H685 0.913 . S
C667 H643 0.950 . S
C667 C666 1.524 . S
C667 C668 1.415 . S
C668 H644 0.950 . S
C668 C663 1.363 . S
C668 C667 1.415 . S
C669 H645 0.951 . S
C669 C670 1.366 . S
C669 C671 1.388 . S
C670 C669 1.366 . S
C670 C674 1.385 . S
C671 H646 0.951 . S
C671 C669 1.388 . S
C671 C672 1.366 . S
C672 C671 1.366 . S
C672 C673 1.414 . S
C672 C675 1.499 . S
C673 H647 0.950 . S
C673 C672 1.414 . S
C673 C674 1.374 . S
C674 H648 0.950 . S
C674 C670 1.385 . S
C674 C673 1.374 . S
C675 C672 1.499 . S
C675 C676 1.373 . S
C675 C677 1.389 . S
C676 H649 0.950 . S
C676 C662 1.377 . S
C676 C675 1.373 . S
C677 C661 1.377 . S
C677 C675 1.389 . S
C677 C678 1.524 . S
C678 C677 1.524 . S
C678 C679 1.397 . S
C678 C683 1.363 . S
C679 H650 0.950 . S
C679 C678 1.397 . S
C679 C680 1.334 . S
C680 H651 0.950 . S
C680 C679 1.334 . S
C680 C681 1.287 . S
C681 C680 1.287 . S
C681 C682 1.524 . S
C681 H684 0.999 . S
C682 H652 0.950 . S
C682 C681 1.524 . S
C682 C683 1.415 . S
C683 H653 0.950 . S
C683 C678 1.363 . S
C683 C682 1.415 . S
H684 C681 0.999 . S
H685 C666 0.913 . S
H686 C704 0.951 . S
H687 C706 0.951 . S
H688 C708 0.950 . S
H689 C709 0.950 . S
H690 C711 0.950 . S
H691 C714 0.950 . S
H692 C715 0.950 . S
H693 C717 0.950 . S
H694 C718 0.950 . S
H695 C719 0.951 . S
H696 C721 0.951 . S
H697 C723 0.950 . S
H698 C724 0.950 . S
H699 C726 0.950 . S
H700 C729 0.950 . S
H701 C730 0.950 . S
H702 C732 0.950 . S
H703 C733 0.950 . S
C704 H686 0.951 . S
C704 C705 1.366 . S
C704 C706 1.388 . S
C705 C704 1.366 . S
C705 C709 1.385 . S
C706 H687 0.951 . S
C706 C704 1.388 . S
C706 C707 1.366 . S
C707 C706 1.366 . S
C707 C708 1.414 . S
C707 C710 1.499 . S
C708 H688 0.950 . S
C708 C707 1.414 . S
C708 C709 1.374 . S
C709 H689 0.950 . S
C709 C705 1.385 . S
C709 C708 1.374 . S
C710 C707 1.499 . S
C710 C711 1.373 . S
C710 C712 1.389 . S
C711 H690 0.950 . S
C711 C710 1.373 . S
C711 C727 1.377 . S
C712 C710 1.389 . S
C712 C713 1.524 . S
C712 C726 1.377 . S
C713 C712 1.524 . S
C713 C714 1.397 . S
C713 C718 1.363 . S
C714 H691 0.950 . S
C714 C713 1.397 . S
C714 C715 1.334 . S
C715 H692 0.950 . S
C715 C714 1.334 . S
C715 C716 1.287 . S
C716 C715 1.287 . S
C716 C717 1.524 . S
C716 H735 0.913 . S
C717 H693 0.950 . S
C717 C716 1.524 . S
C717 C718 1.415 . S
C718 H694 0.950 . S
C718 C713 1.363 . S
C718 C717 1.415 . S
C719 H695 0.951 . S
C719 C720 1.366 . S
C719 C721 1.388 . S
C720 C719 1.366 . S
C720 C724 1.385 . S
C721 H696 0.951 . S
C721 C719 1.388 . S
C721 C722 1.366 . S
C722 C721 1.366 . S
C722 C723 1.414 . S
C722 C725 1.499 . S
C723 H697 0.950 . S
C723 C722 1.414 . S
C723 C724 1.374 . S
C724 H698 0.950 . S
C724 C720 1.385 . S
C724 C723 1.374 . S
C725 C722 1.499 . S
C725 C726 1.373 . S
C725 C727 1.389 . S
C726 H699 0.950 . S
C726 C712 1.377 . S
C726 C725 1.373 . S
C727 C711 1.377 . S
C727 C725 1.389 . S
C727 C728 1.524 . S
C728 C727 1.524 . S
C728 C729 1.397 . S
C728 C733 1.363 . S
C729 H700 0.950 . S
C729 C728 1.397 . S
C729 C730 1.334 . S
C730 H701 0.950 . S
C730 C729 1.334 . S
C730 C731 1.287 . S
C731 C730 1.287 . S
C731 C732 1.524 . S
C731 H734 0.999 . S
C732 H702 0.950 . S
C732 C731 1.524 . S
C732 C733 1.415 . S
C733 H703 0.950 . S
C733 C728 1.363 . S
C733 C732 1.415 . S
H734 C731 0.999 . S
H735 C716 0.913 . S
H736 C754 0.951 . S
H737 C756 0.951 . S
H738 C758 0.950 . S
H739 C759 0.950 . S
H740 C761 0.950 . S
H741 C764 0.950 . S
H742 C765 0.950 . S
H743 C767 0.950 . S
H744 C768 0.950 . S
H745 C769 0.951 . S
H746 C771 0.951 . S
H747 C773 0.950 . S
H748 C774 0.950 . S
H749 C776 0.950 . S
H750 C779 0.950 . S
H751 C780 0.950 . S
H752 C782 0.950 . S
H753 C783 0.950 . S
C754 H736 0.951 . S
C754 C755 1.366 . S
C754 C756 1.388 . S
C755 C754 1.366 . S
C755 C759 1.385 . S
C756 H737 0.951 . S
C756 C754 1.388 . S
C756 C757 1.366 . S
C757 C756 1.366 . S
C757 C758 1.414 . S
C757 C760 1.499 . S
C758 H738 0.950 . S
C758 C757 1.414 . S
C758 C759 1.374 . S
C759 H739 0.950 . S
C759 C755 1.385 . S
C759 C758 1.374 . S
C760 C757 1.499 . S
C760 C761 1.373 . S
C760 C762 1.389 . S
C761 H740 0.950 . S
C761 C760 1.373 . S
C761 C777 1.377 . S
C762 C760 1.389 . S
C762 C763 1.524 . S
C762 C776 1.377 . S
C763 C762 1.524 . S
C763 C764 1.397 . S
C763 C768 1.363 . S
C764 H741 0.950 . S
C764 C763 1.397 . S
C764 C765 1.334 . S
C765 H742 0.950 . S
C765 C764 1.334 . S
C765 C766 1.287 . S
C766 C765 1.287 . S
C766 C767 1.524 . S
C766 H785 0.913 . S
C767 H743 0.950 . S
C767 C766 1.524 . S
C767 C768 1.415 . S
C768 H744 0.950 . S
C768 C763 1.363 . S
C768 C767 1.415 . S
C769 H745 0.951 . S
C769 C770 1.366 . S
C769 C771 1.388 . S
C770 C769 1.366 . S
C770 C774 1.385 . S
C771 H746 0.951 . S
C771 C769 1.388 . S
C771 C772 1.366 . S
C772 C771 1.366 . S
C772 C773 1.414 . S
C772 C775 1.499 . S
C773 H747 0.950 . S
C773 C772 1.414 . S
C773 C774 1.374 . S
C774 H748 0.950 . S
C774 C770 1.385 . S
C774 C773 1.374 . S
C775 C772 1.499 . S
C775 C776 1.373 . S
C775 C777 1.389 . S
C776 H749 0.950 . S
C776 C762 1.377 . S
C776 C775 1.373 . S
C777 C761 1.377 . S
C777 C775 1.389 . S
C777 C778 1.524 . S
C778 C777 1.524 . S
C778 C779 1.397 . S
C778 C783 1.363 . S
C779 H750 0.950 . S
C779 C778 1.397 . S
C779 C780 1.334 . S
C780 H751 0.950 . S
C780 C779 1.334 . S
C780 C781 1.287 . S
C781 C780 1.287 . S
C781 C782 1.524 . S
C781 H784 0.999 . S
C782 H752 0.950 . S
C782 C781 1.524 . S
C782 C783 1.415 . S
C783 H753 0.950 . S
C783 C778 1.363 . S
C783 C782 1.415 . S
H784 C781 0.999 . S
H785 C766 0.913 . S
H786 C804 0.951 . S
H787 C806 0.951 . S
H788 C808 0.950 . S
H789 C809 0.950 . S
H790 C811 0.950 . S
H791 C814 0.950 . S
H792 C815 0.950 . S
H793 C817 0.950 . S
H794 C818 0.950 . S
H795 C819 0.951 . S
H796 C821 0.951 . S
H797 C823 0.950 . S
H798 C824 0.950 . S
H799 C826 0.950 . S
H800 C829 0.950 . S
H801 C830 0.950 . S
H802 C832 0.950 1_655 S
H803 C833 0.950 1_655 S
C804 H786 0.951 . S
C804 C805 1.366 . S
C804 C806 1.388 . S
C805 C804 1.366 . S
C805 C809 1.385 1_455 S
C806 H787 0.951 . S
C806 C804 1.388 . S
C806 C807 1.366 . S
C807 C806 1.366 . S
C807 C808 1.414 1_455 S
C807 C810 1.499 . S
C808 H788 0.950 . S
C808 C807 1.414 1_655 S
C808 C809 1.374 . S
C809 H789 0.950 . S
C809 C805 1.385 1_655 S
C809 C808 1.374 . S
C810 C807 1.499 . S
C810 C811 1.373 . S
C810 C812 1.389 . S
C811 H790 0.950 . S
C811 C810 1.373 . S
C811 C827 1.377 . S
C812 C810 1.389 . S
C812 C813 1.524 . S
C812 C826 1.377 . S
C813 C812 1.524 . S
C813 C814 1.397 1_455 S
C813 C818 1.363 . S
C814 H791 0.950 . S
C814 C813 1.397 1_655 S
C814 C815 1.334 . S
C815 H792 0.950 . S
C815 C814 1.334 . S
C815 C816 1.287 . S
C816 C815 1.287 . S
C816 C817 1.524 1_655 S
C816 H835 0.913 . S
C817 H793 0.950 . S
C817 C816 1.524 1_455 S
C817 C818 1.415 . S
C818 H794 0.950 . S
C818 C813 1.363 . S
C818 C817 1.415 . S
C819 H795 0.951 . S
C819 C820 1.366 1_655 S
C819 C821 1.388 . S
C820 C819 1.366 1_455 S
C820 C824 1.385 . S
C821 H796 0.951 . S
C821 C819 1.388 . S
C821 C822 1.366 1_655 S
C822 C821 1.366 1_455 S
C822 C823 1.414 . S
C822 C825 1.499 . S
C823 H797 0.950 . S
C823 C822 1.414 . S
C823 C824 1.374 . S
C824 H798 0.950 . S
C824 C820 1.385 . S
C824 C823 1.374 . S
C825 C822 1.499 . S
C825 C826 1.373 1_556 S
C825 C827 1.389 1_556 S
C826 H799 0.950 . S
C826 C812 1.377 . S
C826 C825 1.373 1_554 S
C827 C811 1.377 . S
C827 C825 1.389 1_554 S
C827 C828 1.524 1_554 S
C828 C827 1.524 1_556 S
C828 C829 1.397 . S
C828 C833 1.363 1_556 S
C829 H800 0.950 . S
C829 C828 1.397 . S
C829 C830 1.334 . S
C830 H801 0.950 . S
C830 C829 1.334 . S
C830 C831 1.287 . S
C831 C830 1.287 . S
C831 C832 1.524 . S
C831 H834 0.999 . S
C832 H802 0.950 1_455 S
C832 C831 1.524 . S
C832 C833 1.415 1_556 S
C833 H803 0.950 1_455 S
C833 C828 1.363 1_554 S
C833 C832 1.415 1_554 S
H834 C831 0.999 . S
H835 C816 0.913 . S
H836 C854 0.951 . S
H837 C856 0.951 . S
H838 C858 0.950 . S
H839 C859 0.950 . S
H840 C861 0.950 . S
H841 C864 0.950 . S
H842 C865 0.950 . S
H843 C867 0.950 . S
H844 C868 0.950 . S
H845 C869 0.951 . S
H846 C871 0.951 . S
H847 C873 0.950 . S
H848 C874 0.950 . S
H849 C876 0.950 1_565 S
H850 C879 0.950 . S
H851 C880 0.950 . S
H852 C882 0.950 . S
H853 C883 0.950 . S
C854 H836 0.951 . S
C854 C855 1.366 . S
C854 C856 1.388 . S
C855 C854 1.366 . S
C855 C859 1.385 . S
C856 H837 0.951 . S
C856 C854 1.388 . S
C856 C857 1.366 . S
C857 C856 1.366 . S
C857 C858 1.414 . S
C857 C860 1.499 . S
C858 H838 0.950 . S
C858 C857 1.414 . S
C858 C859 1.374 . S
C859 H839 0.950 . S
C859 C855 1.385 . S
C859 C858 1.374 . S
C860 C857 1.499 . S
C860 C861 1.373 . S
C860 C862 1.389 . S
C861 H840 0.950 . S
C861 C860 1.373 . S
C861 C877 1.377 . S
C862 C860 1.389 . S
C862 C863 1.524 1_545 S
C862 C876 1.377 . S
C863 C862 1.524 1_565 S
C863 C864 1.397 . S
C863 C868 1.363 . S
C864 H841 0.950 . S
C864 C863 1.397 . S
C864 C865 1.334 . S
C865 H842 0.950 . S
C865 C864 1.334 . S
C865 C866 1.287 . S
C866 C865 1.287 . S
C866 C867 1.524 . S
C866 H885 0.913 . S
C867 H843 0.950 . S
C867 C866 1.524 . S
C867 C868 1.415 . S
C868 H844 0.950 . S
C868 C863 1.363 . S
C868 C867 1.415 . S
C869 H845 0.951 . S
C869 C870 1.366 . S
C869 C871 1.388 . S
C870 C869 1.366 . S
C870 C874 1.385 . S
C871 H846 0.951 . S
C871 C869 1.388 . S
C871 C872 1.366 . S
C872 C871 1.366 . S
C872 C873 1.414 . S
C872 C875 1.499 . S
C873 H847 0.950 . S
C873 C872 1.414 . S
C873 C874 1.374 . S
C874 H848 0.950 . S
C874 C870 1.385 . S
C874 C873 1.374 . S
C875 C872 1.499 . S
C875 C876 1.373 . S
C875 C877 1.389 . S
C876 H849 0.950 1_545 S
C876 C862 1.377 . S
C876 C875 1.373 . S
C877 C861 1.377 . S
C877 C875 1.389 . S
C877 C878 1.524 . S
C878 C877 1.524 . S
C878 C879 1.397 . S
C878 C883 1.363 . S
C879 H850 0.950 . S
C879 C878 1.397 . S
C879 C880 1.334 . S
C880 H851 0.950 . S
C880 C879 1.334 . S
C880 C881 1.287 . S
C881 C880 1.287 . S
C881 C882 1.524 . S
C881 H884 0.999 . S
C882 H852 0.950 . S
C882 C881 1.524 . S
C882 C883 1.415 . S
C883 H853 0.950 . S
C883 C878 1.363 . S
C883 C882 1.415 . S
H884 C881 0.999 . S
H885 C866 0.913 . S
H886 C904 0.951 . S
H887 C906 0.951 . S
H888 C908 0.950 . S
H889 C909 0.950 . S
H890 C911 0.950 . S
H891 C914 0.950 . S
H892 C915 0.950 . S
H893 C917 0.950 . S
H894 C918 0.950 . S
H895 C919 0.951 . S
H896 C921 0.951 . S
H897 C923 0.950 . S
H898 C924 0.950 . S
H899 C926 0.950 . S
H900 C929 0.950 . S
H901 C930 0.950 . S
H902 C932 0.950 . S
H903 C933 0.950 . S
C904 H886 0.951 . S
C904 C905 1.366 . S
C904 C906 1.388 . S
C905 C904 1.366 . S
C905 C909 1.385 . S
C906 H887 0.951 . S
C906 C904 1.388 . S
C906 C907 1.366 . S
C907 C906 1.366 . S
C907 C908 1.414 . S
C907 C910 1.499 . S
C908 H888 0.950 . S
C908 C907 1.414 . S
C908 C909 1.374 . S
C909 H889 0.950 . S
C909 C905 1.385 . S
C909 C908 1.374 . S
C910 C907 1.499 . S
C910 C911 1.373 . S
C910 C912 1.389 . S
C911 H890 0.950 . S
C911 C910 1.373 . S
C911 C927 1.377 . S
C912 C910 1.389 . S
C912 C913 1.524 . S
C912 C926 1.377 . S
C913 C912 1.524 . S
C913 C914 1.397 . S
C913 C918 1.363 . S
C914 H891 0.950 . S
C914 C913 1.397 . S
C914 C915 1.334 . S
C915 H892 0.950 . S
C915 C914 1.334 . S
C915 C916 1.287 . S
C916 C915 1.287 . S
C916 C917 1.524 . S
C916 H935 0.913 . S
C917 H893 0.950 . S
C917 C916 1.524 . S
C917 C918 1.415 . S
C918 H894 0.950 . S
C918 C913 1.363 . S
C918 C917 1.415 . S
C919 H895 0.951 . S
C919 C920 1.366 . S
C919 C921 1.388 . S
C920 C919 1.366 . S
C920 C924 1.385 . S
C921 H896 0.951 . S
C921 C919 1.388 . S
C921 C922 1.366 . S
C922 C921 1.366 . S
C922 C923 1.414 . S
C922 C925 1.499 . S
C923 H897 0.950 . S
C923 C922 1.414 . S
C923 C924 1.374 . S
C924 H898 0.950 . S
C924 C920 1.385 . S
C924 C923 1.374 . S
C925 C922 1.499 . S
C925 C926 1.373 . S
C925 C927 1.389 . S
C926 H899 0.950 . S
C926 C912 1.377 . S
C926 C925 1.373 . S
C927 C911 1.377 . S
C927 C925 1.389 . S
C927 C928 1.524 . S
C928 C927 1.524 . S
C928 C929 1.397 . S
C928 C933 1.363 . S
C929 H900 0.950 . S
C929 C928 1.397 . S
C929 C930 1.334 . S
C930 H901 0.950 . S
C930 C929 1.334 . S
C930 C931 1.287 . S
C931 C930 1.287 . S
C931 C932 1.524 . S
C931 H934 0.999 . S
C932 H902 0.950 . S
C932 C931 1.524 . S
C932 C933 1.415 . S
C933 H903 0.950 . S
C933 C928 1.363 . S
C933 C932 1.415 . S
H934 C931 0.999 . S
H935 C916 0.913 . S
H936 C954 0.951 . S
H937 C956 0.951 . S
H938 C958 0.950 . S
H939 C959 0.950 . S
H940 C961 0.950 . S
H941 C964 0.950 . S
H942 C965 0.950 . S
H943 C967 0.950 . S
H944 C968 0.950 . S
H945 C969 0.951 . S
H946 C971 0.951 . S
H947 C973 0.950 . S
H948 C974 0.950 . S
H949 C976 0.950 . S
H950 C979 0.950 . S
H951 C980 0.950 . S
H952 C982 0.950 1_565 S
H953 C983 0.950 1_565 S
C954 H936 0.951 . S
C954 C955 1.366 . S
C954 C956 1.388 . S
C955 C954 1.366 . S
C955 C959 1.385 1_545 S
C956 H937 0.951 . S
C956 C954 1.388 . S
C956 C957 1.366 . S
C957 C956 1.366 . S
C957 C958 1.414 1_545 S
C957 C960 1.499 . S
C958 H938 0.950 . S
C958 C957 1.414 1_565 S
C958 C959 1.374 . S
C959 H939 0.950 . S
C959 C955 1.385 1_565 S
C959 C958 1.374 . S
C960 C957 1.499 . S
C960 C961 1.373 . S
C960 C962 1.389 . S
C961 H940 0.950 . S
C961 C960 1.373 . S
C961 C977 1.377 . S
C962 C960 1.389 . S
C962 C963 1.524 . S
C962 C976 1.377 . S
C963 C962 1.524 . S
C963 C964 1.397 1_545 S
C963 C968 1.363 . S
C964 H941 0.950 . S
C964 C963 1.397 1_565 S
C964 C965 1.334 . S
C965 H942 0.950 . S
C965 C964 1.334 . S
C965 C966 1.287 . S
C966 C965 1.287 . S
C966 C967 1.524 1_565 S
C966 H985 0.913 . S
C967 H943 0.950 . S
C967 C966 1.524 1_545 S
C967 C968 1.415 . S
C968 H944 0.950 . S
C968 C963 1.363 . S
C968 C967 1.415 . S
C969 H945 0.951 . S
C969 C970 1.366 1_565 S
C969 C971 1.388 . S
C970 C969 1.366 1_545 S
C970 C974 1.385 . S
C971 H946 0.951 . S
C971 C969 1.388 . S
C971 C972 1.366 1_565 S
C972 C971 1.366 1_545 S
C972 C973 1.414 . S
C972 C975 1.499 . S
C973 H947 0.950 . S
C973 C972 1.414 . S
C973 C974 1.374 . S
C974 H948 0.950 . S
C974 C970 1.385 . S
C974 C973 1.374 . S
C975 C972 1.499 . S
C975 C976 1.373 . S
C975 C977 1.389 . S
C976 H949 0.950 . S
C976 C962 1.377 . S
C976 C975 1.373 . S
C977 C961 1.377 . S
C977 C975 1.389 . S
C977 C978 1.524 . S
C978 C977 1.524 . S
C978 C979 1.397 . S
C978 C983 1.363 . S
C979 H950 0.950 . S
C979 C978 1.397 . S
C979 C980 1.334 . S
C980 H951 0.950 . S
C980 C979 1.334 . S
C980 C981 1.287 . S
C981 C980 1.287 . S
C981 C982 1.524 . S
C981 H984 0.999 . S
C982 H952 0.950 1_545 S
C982 C981 1.524 . S
C982 C983 1.415 . S
C983 H953 0.950 1_545 S
C983 C978 1.363 . S
C983 C982 1.415 . S
H984 C981 0.999 . S
H985 C966 0.913 . S
H986 C1004 0.951 . S
H987 C1006 0.951 . S
H988 C1008 0.950 . S
H989 C1009 0.950 . S
H990 C1011 0.950 . S
H991 C1014 0.950 . S
H992 C1015 0.950 . S
H993 C1017 0.950 . S
H994 C1018 0.950 . S
H995 C1019 0.951 . S
H996 C1021 0.951 . S
H997 C1023 0.950 . S
H998 C1024 0.950 . S
H999 C1026 0.950 . S
H1000 C1029 0.950 . S
H1001 C1030 0.950 . S
H1002 C1032 0.950 . S
H1003 C1033 0.950 . S
C1004 H986 0.951 . S
C1004 C1005 1.366 . S
C1004 C1006 1.388 . S
C1005 C1004 1.366 . S
C1005 C1009 1.385 . S
C1006 H987 0.951 . S
C1006 C1004 1.388 . S
C1006 C1007 1.366 . S
C1007 C1006 1.366 . S
C1007 C1008 1.414 . S
C1007 C1010 1.499 . S
C1008 H988 0.950 . S
C1008 C1007 1.414 . S
C1008 C1009 1.374 . S
C1009 H989 0.950 . S
C1009 C1005 1.385 . S
C1009 C1008 1.374 . S
C1010 C1007 1.499 . S
C1010 C1011 1.373 . S
C1010 C1012 1.389 . S
C1011 H990 0.950 . S
C1011 C1010 1.373 . S
C1011 C1027 1.377 . S
C1012 C1010 1.389 . S
C1012 C1013 1.524 . S
C1012 C1026 1.377 . S
C1013 C1012 1.524 . S
C1013 C1014 1.397 . S
C1013 C1018 1.363 . S
C1014 H991 0.950 . S
C1014 C1013 1.397 . S
C1014 C1015 1.334 . S
C1015 H992 0.950 . S
C1015 C1014 1.334 . S
C1015 C1016 1.287 . S
C1016 C1015 1.287 . S
C1016 C1017 1.524 . S
C1016 H1035 0.913 . S
C1017 H993 0.950 . S
C1017 C1016 1.524 . S
C1017 C1018 1.415 . S
C1018 H994 0.950 . S
C1018 C1013 1.363 . S
C1018 C1017 1.415 . S
C1019 H995 0.951 . S
C1019 C1020 1.366 . S
C1019 C1021 1.388 . S
C1020 C1019 1.366 . S
C1020 C1024 1.385 . S
C1021 H996 0.951 . S
C1021 C1019 1.388 . S
C1021 C1022 1.366 . S
C1022 C1021 1.366 . S
C1022 C1023 1.414 . S
C1022 C1025 1.455 1_554 S
C1023 H997 0.950 . S
C1023 C1022 1.414 . S
C1023 C1024 1.374 . S
C1024 H998 0.950 . S
C1024 C1020 1.385 . S
C1024 C1023 1.374 . S
C1025 C1022 1.455 1_556 S
C1025 C1026 1.396 . S
C1025 C1027 1.413 . S
C1026 H999 0.950 . S
C1026 C1012 1.377 . S
C1026 C1025 1.396 . S
C1027 C1011 1.377 . S
C1027 C1025 1.413 . S
C1027 C1028 1.524 1_556 S
C1028 C1027 1.524 1_554 S
C1028 C1029 1.397 . S
C1028 C1033 1.363 1_554 S
C1029 H1000 0.950 . S
C1029 C1028 1.397 . S
C1029 C1030 1.334 . S
C1030 H1001 0.950 . S
C1030 C1029 1.334 . S
C1030 C1031 1.287 . S
C1031 C1030 1.287 . S
C1031 C1032 1.524 . S
C1031 H1034 0.999 . S
C1032 H1002 0.950 . S
C1032 C1031 1.524 . S
C1032 C1033 1.415 1_554 S
C1033 H1003 0.950 . S
C1033 C1028 1.363 1_556 S
C1033 C1032 1.415 1_556 S
H1034 C1031 0.999 . S
H1035 C1016 0.913 . S
H1036 C1054 0.951 . S
H1037 C1056 0.958 1_655 S
H1038 C1058 0.950 . S
H1039 C1059 0.950 . S
H1040 C1061 0.950 . S
H1041 C1064 0.950 . S
H1042 C1065 0.950 . S
H1043 C1067 0.950 . S
H1044 C1068 0.950 . S
H1045 C1069 0.951 . S
H1046 C1071 0.951 . S
H1047 C1073 0.956 1_655 S
H1048 C1074 0.949 . S
H1049 C1076 0.950 . S
H1050 C1079 0.950 . S
H1051 C1080 0.950 . S
H1052 C1082 0.950 . S
H1053 C1083 0.950 . S
C1054 H1036 0.951 . S
C1054 C1055 1.366 . S
C1054 C1056 1.393 . S
C1055 C1054 1.366 . S
C1055 C1059 1.385 . S
C1056 H1037 0.958 1_455 S
C1056 C1054 1.393 . S
C1056 C1057 1.355 . S
C1057 C1056 1.355 . S
C1057 C1058 1.414 . S
C1057 C1060 1.499 . S
C1058 H1038 0.950 . S
C1058 C1057 1.414 . S
C1058 C1059 1.374 . S
C1059 H1039 0.950 . S
C1059 C1055 1.385 . S
C1059 C1058 1.374 . S
C1060 C1057 1.499 . S
C1060 C1061 1.373 . S
C1060 C1062 1.389 1_455 S
C1061 H1040 0.950 . S
C1061 C1060 1.373 . S
C1061 C1077 1.377 . S
C1062 C1060 1.389 1_655 S
C1062 C1063 1.524 . S
C1062 C1076 1.377 . S
C1063 C1062 1.524 . S
C1063 C1064 1.397 . S
C1063 C1068 1.363 . S
C1064 H1041 0.950 . S
C1064 C1063 1.397 . S
C1064 C1065 1.334 . S
C1065 H1042 0.950 . S
C1065 C1064 1.334 . S
C1065 C1066 1.287 . S
C1066 C1065 1.287 . S
C1066 C1067 1.524 . S
C1066 H1085 0.913 . S
C1067 H1043 0.950 . S
C1067 C1066 1.524 . S
C1067 C1068 1.415 . S
C1068 H1044 0.950 . S
C1068 C1063 1.363 . S
C1068 C1067 1.415 . S
C1069 H1045 0.951 . S
C1069 C1070 1.366 . S
C1069 C1071 1.388 . S
C1070 C1069 1.366 . S
C1070 C1074 1.386 1_455 S
C1071 H1046 0.951 . S
C1071 C1069 1.388 . S
C1071 C1072 1.366 . S
C1072 C1071 1.366 . S
C1072 C1073 1.411 . S
C1072 C1075 1.499 . S
C1073 H1047 0.956 1_455 S
C1073 C1072 1.411 . S
C1073 C1074 1.371 1_455 S
C1074 H1048 0.949 . S
C1074 C1070 1.386 1_655 S
C1074 C1073 1.371 1_655 S
C1075 C1072 1.499 . S
C1075 C1076 1.373 1_455 S
C1075 C1077 1.389 . S
C1076 H1049 0.950 . S
C1076 C1062 1.377 . S
C1076 C1075 1.373 1_655 S
C1077 C1061 1.377 . S
C1077 C1075 1.389 . S
C1077 C1078 1.524 . S
C1078 C1077 1.524 . S
C1078 C1079 1.397 . S
C1078 C1083 1.363 . S
C1079 H1050 0.950 . S
C1079 C1078 1.397 . S
C1079 C1080 1.334 . S
C1080 H1051 0.950 . S
C1080 C1079 1.334 . S
C1080 C1081 1.287 . S
C1081 C1080 1.287 . S
C1081 C1082 1.524 . S
C1081 H1084 0.999 . S
C1082 H1052 0.950 . S
C1082 C1081 1.524 . S
C1082 C1083 1.415 . S
C1083 H1053 0.950 . S
C1083 C1078 1.363 . S
C1083 C1082 1.415 . S
H1084 C1081 0.999 . S
H1085 C1066 0.913 . S
C205 C24 3.124 . S
C220 C180 2.811 . S
C255 C66 1.249 . S
C270 C158 1.109 . S
C305 C93 1.569 . S
C320 C172 1.529 . S
C355 C13 2.873 . S
C370 C183 2.804 . S
C420 C161 0.950 . S
C405 C57 0.966 . S
C470 C169 1.789 . S
C455 C104 2.107 . S
C505 C64 2.102 . S
C520 C136 1.787 . S
C555 C97 0.436 . S
C570 C147 0.724 . S
C605 C17 1.377 . S
C620 C125 1.194 . S
C670 C139 1.529 . S
C655 C53 1.575 . S
C720 C150 0.345 . S
C705 C106 0.269 . S
C755 C26 0.910 . S
C770 C128 0.902 . S
C820 C149 1.201 . S
C805 C2 1.224 . S
C855 C63 1.471 . S
C870 C127 1.459 . S
C905 C82 1.449 . S
C920 C138 1.402 . S
C970 C171 1.416 . S
C955 C42 1.460 . S
C1020 C182 1.658 . S
C1005 C103 1.701 . S
C1055 C23 1.523 . S
C1070 C160 1.481 . S
