# Generated by pormake.
# Topology anh, (6,3)-cn, num edge types: 1
# Building blocks:
#     Node 0, Type 0, BuildingBlock: VOLQOD_clean_sbu_1, # of connection points: 6
#     Node 1, Type 0, BuildingBlock: VOLQOD_clean_sbu_1, # of connection points: 6
#     Node 2, Type 0, BuildingBlock: VOLQOD_clean_sbu_1, # of connection points: 6
#     Node 3, Type 1, BuildingBlock: WUSLED_clean_sbu_0, # of connection points: 3
#     Node 4, Type 1, BuildingBlock: WUSLED_clean_sbu_0, # of connection points: 3
#     Node 5, Type 1, BuildingBlock: WUSLED_clean_sbu_0, # of connection points: 3
#     Node 6, Type 1, BuildingBlock: WUSLED_clean_sbu_0, # of connection points: 3
#     Node 7, Type 1, BuildingBlock: WUSLED_clean_sbu_0, # of connection points: 3
#     Node 8, Type 1, BuildingBlock: WUSLED_clean_sbu_0, # of connection points: 3
#     Edge 9, Type (0, 1), BuildingBlock: MIFKUJ_clean_linker_0, # of connection points: 2
#     Edge 10, Type (0, 1), BuildingBlock: MIFKUJ_clean_linker_0, # of connection points: 2
#     Edge 11, Type (0, 1), BuildingBlock: MIFKUJ_clean_linker_0, # of connection points: 2
#     Edge 12, Type (0, 1), BuildingBlock: MIFKUJ_clean_linker_0, # of connection points: 2
#     Edge 13, Type (0, 1), BuildingBlock: MIFKUJ_clean_linker_0, # of connection points: 2
#     Edge 14, Type (0, 1), BuildingBlock: MIFKUJ_clean_linker_0, # of connection points: 2
#     Edge 15, Type (0, 1), BuildingBlock: MIFKUJ_clean_linker_0, # of connection points: 2
#     Edge 16, Type (0, 1), BuildingBlock: MIFKUJ_clean_linker_0, # of connection points: 2
#     Edge 17, Type (0, 1), BuildingBlock: MIFKUJ_clean_linker_0, # of connection points: 2
#     Edge 18, Type (0, 1), BuildingBlock: MIFKUJ_clean_linker_0, # of connection points: 2
#     Edge 19, Type (0, 1), BuildingBlock: MIFKUJ_clean_linker_0, # of connection points: 2
#     Edge 20, Type (0, 1), BuildingBlock: MIFKUJ_clean_linker_0, # of connection points: 2
#     Edge 21, Type (0, 1), BuildingBlock: MIFKUJ_clean_linker_0, # of connection points: 2
#     Edge 22, Type (0, 1), BuildingBlock: MIFKUJ_clean_linker_0, # of connection points: 2
#     Edge 23, Type (0, 1), BuildingBlock: MIFKUJ_clean_linker_0, # of connection points: 2
#     Edge 24, Type (0, 1), BuildingBlock: MIFKUJ_clean_linker_0, # of connection points: 2
#     Edge 25, Type (0, 1), BuildingBlock: MIFKUJ_clean_linker_0, # of connection points: 2
#     Edge 26, Type (0, 1), BuildingBlock: MIFKUJ_clean_linker_0, # of connection points: 2
# Relax obj value: 0.163
# Max RMSD: 0.228
# Mean RMSD: 0.110
data_MOF--net-anh--node1-VOLQOD_clean_sbu_1--node2-WUSLED_clean_sbu_0--edge1-MIFKUJ_clean_linker_0
_symmetry_space_group_name_H-M    P1
_symmetry_Int_Tables_number       1
_symmetry_cell_setting            triclinic
loop_
_symmetry_equiv_pos_as_xyz
'x, y, z'
_cell_length_a     45.139734
_cell_length_b     45.084321
_cell_length_c     96.569392
_cell_angle_alpha  89.808676
_cell_angle_beta   90.010065
_cell_angle_gamma 120.12858
loop_
_atom_site_label
_atom_site_type_symbol
_atom_site_fract_x
_atom_site_fract_y
_atom_site_fract_z
_atom_type_partial_charge
O0 O 0.99937 0.52753 0.19783 0.0
Zn1 Zn 0.00119 0.54185 0.17791 0.0
O2 O 0.00795 0.51114 0.16572 0.0
Zn3 Zn 0.96953 0.48782 0.15322 0.0
Zn4 Zn 0.01249 0.47698 0.17677 0.0
Zn5 Zn 0.04815 0.53767 0.15427 0.0
O6 O 0.98384 0.49198 0.13326 0.0
O7 O 0.03653 0.53682 0.13398 0.0
O8 O 0.95736 0.54208 0.17315 0.0
O9 O 0.93928 0.50818 0.15467 0.0
O10 O 0.94035 0.43837 0.15844 0.0
O11 O 0.96968 0.43022 0.17498 0.0
O12 O 0.05431 0.47421 0.17072 0.0
O13 O 0.04192 0.59016 0.17674 0.0
O14 O 0.0781 0.51685 0.15542 0.0
O15 O 0.07536 0.58642 0.16082 0.0
C16 C 0.00743 0.5075 0.20397 0.0
C17 C 0.01062 0.51488 0.12715 0.0
C18 C 0.9432 0.41905 0.16733 0.0
C19 C 0.93636 0.52806 0.16317 0.0
C20 C 0.07795 0.49228 0.16202 0.0
C21 C 0.06963 0.60371 0.16973 0.0
O22 O 0.01544 0.48831 0.19716 0.0
O23 O 0.48758 0.01905 0.46883 0.0
Zn24 Zn 0.47495 0.01628 0.48908 0.0
O25 O 0.50606 0.00726 0.5003 0.0
Zn26 Zn 0.53139 0.04458 0.51317 0.0
Zn27 Zn 0.53893 0.00269 0.48847 0.0
Zn28 Zn 0.4794 0.96537 0.5109 0.0
O29 O 0.52468 0.02868 0.53304 0.0
O30 O 0.48524 0.97345 0.53147 0.0
O31 O 0.47629 0.06055 0.49496 0.0
O32 O 0.51521 0.07798 0.51166 0.0
O33 O 0.58144 0.07156 0.50839 0.0
O34 O 0.5864 0.04417 0.49031 0.0
O35 O 0.54052 0.95922 0.49289 0.0
O36 O 0.42624 0.97633 0.49038 0.0
O37 O 0.49597 0.93295 0.50709 0.0
O38 O 0.42967 0.94119 0.5056 0.0
C39 C 0.50682 0.01082 0.46219 0.0
C40 C 0.50488 0.99973 0.53864 0.0
C41 C 0.59939 0.06915 0.49877 0.0
C42 C 0.4943 0.08218 0.50426 0.0
C43 C 0.5203 0.93341 0.5003 0.0
C44 C 0.41231 0.94827 0.4972 0.0
O45 O 0.52611 0.00206 0.46846 0.0
O46 O 0.4822 0.49503 0.80361 0.0
Zn47 Zn 0.47102 0.47828 0.82335 0.0
O48 O 0.50884 0.5082 0.83562 0.0
Zn49 Zn 0.49433 0.53096 0.84862 0.0
Zn50 Zn 0.5474 0.54307 0.82477 0.0
Zn51 Zn 0.52234 0.4806 0.84647 0.0
O52 O 0.50605 0.52633 0.86836 0.0
O53 O 0.51287 0.48099 0.86689 0.0
O54 O 0.42615 0.47487 0.8295 0.0
O55 O 0.44353 0.50929 0.8478 0.0
O56 O 0.51374 0.58058 0.84365 0.0
O57 O 0.55259 0.59008 0.82754 0.0
O58 O 0.59169 0.54407 0.82982 0.0
O59 O 0.46539 0.43084 0.82299 0.0
O60 O 0.57296 0.50056 0.84469 0.0
O61 O 0.50021 0.43205 0.8395 0.0
C62 C 0.5103 0.51546 0.79753 0.0
C63 C 0.50983 0.50295 0.87408 0.0
C64 C 0.53668 0.60064 0.83514 0.0
C65 C 0.4198 0.48844 0.83982 0.0
C66 C 0.59725 0.52509 0.838 0.0
C67 C 0.47857 0.41627 0.82992 0.0
O68 O 0.53781 0.53361 0.80434 0.0
C69 C 0.56118 0.07303 0.21825 0.0
C70 C 0.58587 0.0949 0.2278 0.0
C71 C 0.62525 0.12639 0.20897 0.0
C72 C 0.6176 0.12136 0.2232 0.0
C73 C 0.60034 0.10428 0.19944 0.0
C74 C 0.56857 0.07781 0.20406 0.0
U75 U 0.50306 0.02333 0.24799 0.0
O76 O 0.4482 0.00379 0.25157 0.0
O77 O 0.46792 0.9681 0.25108 0.0
C78 C 0.44077 0.97162 0.25182 0.0
C79 C 0.52785 0.04525 0.22311 0.0
C80 C 0.41152 0.9478 0.24331 0.0
C81 C 0.38347 0.92825 0.22102 0.0
C82 C 0.4116 0.95166 0.22889 0.0
C83 C 0.35513 0.89711 0.24196 0.0
C84 C 0.35488 0.90067 0.22748 0.0
C85 C 0.38317 0.92047 0.24978 0.0
C86 C 0.53708 0.04862 0.28466 0.0
C87 C 0.50041 0.02444 0.30484 0.0
C88 C 0.562 0.05849 0.30763 0.0
C89 C 0.56585 0.06324 0.29329 0.0
C90 C 0.52923 0.03907 0.31356 0.0
C91 C 0.50432 0.02906 0.29049 0.0
C92 C 0.54163 0.05352 0.26961 0.0
O93 O 0.52872 0.01963 0.22925 0.0
O94 O 0.50911 0.05536 0.22979 0.0
O95 O 0.52281 0.06442 0.2635 0.0
O96 O 0.54231 0.0286 0.26288 0.0
H97 H 0.58053 0.09156 0.23881 0.0
H98 H 0.63595 0.13818 0.23081 0.0
H99 H 0.60555 0.10718 0.18842 0.0
H100 H 0.5498 0.06104 0.19657 0.0
H101 H 0.38399 0.93189 0.20992 0.0
H102 H 0.43338 0.97268 0.22374 0.0
H103 H 0.33389 0.87585 0.24725 0.0
H104 H 0.38282 0.91705 0.2609 0.0
H105 H 0.47489 0.00903 0.30909 0.0
H106 H 0.58465 0.07038 0.31409 0.0
H107 H 0.59132 0.07836 0.28895 0.0
H108 H 0.48182 0.01733 0.28394 0.0
C109 C 0.52487 0.57438 0.55316 0.0
C110 C 0.51742 0.59482 0.56175 0.0
C111 C 0.53318 0.63696 0.54329 0.0
C112 C 0.52138 0.62576 0.55684 0.0
C113 C 0.54129 0.61673 0.5348 0.0
C114 C 0.53705 0.58558 0.5397 0.0
U115 U 0.51463 0.51633 0.58325 0.0
O116 O 0.48026 0.46103 0.58635 0.0
O117 O 0.53601 0.4826 0.58697 0.0
C118 C 0.50568 0.45471 0.5869 0.0
C119 C 0.52022 0.5416 0.55828 0.0
C120 C 0.50244 0.4271 0.57787 0.0
C121 C 0.49078 0.39914 0.55544 0.0
C122 C 0.49363 0.4257 0.56384 0.0
C123 C 0.50586 0.37552 0.57499 0.0
C124 C 0.49706 0.37388 0.56092 0.0
C125 C 0.5085 0.40189 0.58338 0.0
C126 C 0.51709 0.54907 0.61979 0.0
C127 C 0.50801 0.51355 0.6401 0.0
C128 C 0.52427 0.57327 0.64278 0.0
C129 C 0.52482 0.57696 0.6284 0.0
C130 C 0.51595 0.54155 0.6488 0.0
C131 C 0.50867 0.51731 0.6257 0.0
C132 C 0.51851 0.55365 0.60471 0.0
O133 O 0.54638 0.54378 0.56514 0.0
O134 O 0.4906 0.52145 0.5643 0.0
O135 O 0.48979 0.53392 0.59807 0.0
O136 O 0.54551 0.55562 0.59866 0.0
H137 H 0.50838 0.58675 0.57225 0.0
H138 H 0.51539 0.64104 0.56368 0.0
H139 H 0.55023 0.62465 0.52429 0.0
H140 H 0.54309 0.57015 0.53297 0.0
H141 H 0.4842 0.39865 0.54462 0.0
H142 H 0.48906 0.44514 0.5594 0.0
H143 H 0.51033 0.35615 0.57957 0.0
H144 H 0.51526 0.40259 0.59419 0.0
H145 H 0.50184 0.4889 0.64442 0.0
H146 H 0.53006 0.59519 0.64919 0.0
H147 H 0.53135 0.60164 0.62398 0.0
H148 H 0.50282 0.49555 0.61917 0.0
C149 C 0.96791 0.53619 0.88265 0.0
C150 C 0.94163 0.53341 0.89127 0.0
C151 C 0.91658 0.54796 0.87192 0.0
C152 C 0.91613 0.5391 0.88594 0.0
C153 C 0.94344 0.55137 0.8634 0.0
C154 C 0.96887 0.54547 0.86873 0.0
U155 U 0.01193 0.52211 0.91322 0.0
O156 O 0.02726 0.48341 0.91669 0.0
O157 O 0.06595 0.53822 0.91692 0.0
C158 C 0.05999 0.50652 0.91724 0.0
C159 C 0.99391 0.52881 0.8881 0.0
C160 C 0.08258 0.4996 0.9086 0.0
C161 C 0.11126 0.50373 0.88678 0.0
C162 C 0.08862 0.50959 0.89463 0.0
C163 C 0.12115 0.47706 0.90672 0.0
C164 C 0.1281 0.48775 0.8928 0.0
C165 C 0.09867 0.48302 0.91454 0.0
C166 C 0.98505 0.52911 0.94981 0.0
C167 C 0.99939 0.50664 0.97005 0.0
C168 C 0.98202 0.54917 0.97279 0.0
C169 C 0.9782 0.54988 0.95844 0.0
C170 C 0.99259 0.52749 0.97874 0.0
C171 C 0.99586 0.5076 0.95569 0.0
C172 C 0.98164 0.5308 0.93472 0.0
O173 O 0.01929 0.55412 0.89482 0.0
O174 O 0.98164 0.49907 0.89445 0.0
O175 O 0.96925 0.50152 0.92808 0.0
O176 O 0.00807 0.55624 0.92846 0.0
H177 H 0.94054 0.5263 0.90206 0.0
H178 H 0.89559 0.53567 0.89276 0.0
H179 H 0.94483 0.55858 0.85261 0.0
H180 H 0.98912 0.5479 0.86197 0.0
H181 H 0.1162 0.51245 0.87612 0.0
H182 H 0.07621 0.52231 0.88987 0.0
H183 H 0.13314 0.46408 0.9116 0.0
H184 H 0.09404 0.47488 0.92528 0.0
H185 H 0.00796 0.49 0.97434 0.0
H186 H 0.97632 0.56529 0.97924 0.0
H187 H 0.96996 0.56673 0.95408 0.0
H188 H 0.0017 0.49165 0.94919 0.0
C189 C 0.94548 0.4516 0.44817 0.0
C190 C 0.92028 0.42883 0.43899 0.0
C191 C 0.89205 0.38772 0.45773 0.0
C192 C 0.89377 0.39724 0.44372 0.0
C193 C 0.91746 0.41073 0.46688 0.0
C194 C 0.94393 0.4424 0.46213 0.0
U195 U 0.99552 0.50939 0.41825 0.0
O196 O 0.01733 0.56475 0.41486 0.0
O197 O 0.05099 0.54262 0.41496 0.0
C198 C 0.04897 0.57068 0.4144 0.0
C199 C 0.97376 0.48455 0.44316 0.0
C200 C 0.07438 0.59965 0.42269 0.0
C201 C 0.09204 0.63391 0.44369 0.0
C202 C 0.06728 0.60574 0.4362 0.0
C203 C 0.13119 0.64977 0.42428 0.0
C204 C 0.12433 0.65619 0.4378 0.0
C205 C 0.10645 0.62181 0.41681 0.0
C206 C 0.96825 0.47566 0.38157 0.0
C207 C 0.99354 0.51146 0.36121 0.0
C208 C 0.9566 0.45005 0.35871 0.0
C209 C 0.95204 0.44672 0.37306 0.0
C210 C 0.97741 0.48245 0.35262 0.0
C211 C 0.9891 0.50807 0.37559 0.0
C212 C 0.96373 0.47151 0.39665 0.0
O213 O 0.99853 0.48264 0.43684 0.0
O214 O 0.96447 0.50421 0.43662 0.0
O215 O 0.95433 0.49148 0.4028 0.0
O216 O 0.98807 0.46952 0.4033 0.0
H217 H 0.92114 0.43551 0.42815 0.0
H218 H 0.87442 0.38043 0.43643 0.0
H219 H 0.91723 0.40407 0.47768 0.0
H220 H 0.96333 0.45959 0.46934 0.0
H221 H 0.08611 0.63801 0.45412 0.0
H222 H 0.04267 0.58878 0.44094 0.0
H223 H 0.15558 0.66668 0.41937 0.0
H224 H 0.11234 0.61756 0.40638 0.0
H225 H 0.01004 0.5367 0.35685 0.0
H226 H 0.94352 0.42728 0.35236 0.0
H227 H 0.9359 0.42151 0.37753 0.0
H228 H 0.00206 0.53068 0.38203 0.0
C229 C 0.51961 0.95576 0.78329 0.0
C230 C 0.52735 0.93641 0.77419 0.0
C231 C 0.52994 0.90297 0.79354 0.0
C232 C 0.53255 0.91029 0.77926 0.0
C233 C 0.52237 0.92265 0.80262 0.0
C234 C 0.51727 0.94884 0.79752 0.0
U235 U 0.50619 0.0007 0.75286 0.0
O236 O 0.46965 0.01901 0.74979 0.0
O237 O 0.52502 0.05523 0.74863 0.0
C238 C 0.49408 0.05124 0.74877 0.0
C239 C 0.51315 0.98255 0.77795 0.0
C240 C 0.48936 0.0759 0.75711 0.0
C241 C 0.50573 0.11675 0.776 0.0
C242 C 0.50974 0.09213 0.76875 0.0
C243 C 0.46028 0.10841 0.76034 0.0
C244 C 0.48116 0.12545 0.7718 0.0
C245 C 0.46444 0.08401 0.75307 0.0
C246 C 0.50887 0.96929 0.71644 0.0
C247 C 0.51595 0.00187 0.69538 0.0
C248 C 0.49704 0.94128 0.69405 0.0
C249 C 0.49858 0.9398 0.70847 0.0
C250 C 0.50595 0.97239 0.6873 0.0
C251 C 0.51727 1.00031 0.70982 0.0
C252 C 0.51092 0.96726 0.73158 0.0
O253 O 0.53857 0.00728 0.77094 0.0
O254 O 0.48326 0.97117 0.77194 0.0
O255 O 0.48216 0.95735 0.73834 0.0
O256 O 0.53759 0.99316 0.73746 0.0
H257 H 0.52903 0.94129 0.76314 0.0
H258 H 0.53784 0.89533 0.77197 0.0
H259 H 0.52052 0.91789 0.81367 0.0
H260 H 0.5113 0.96356 0.80469 0.0
H261 H 0.52247 0.12953 0.78469 0.0
H262 H 0.52907 0.08619 0.77212 0.0
H263 H 0.44064 0.11391 0.75697 0.0
H264 H 0.44833 0.07164 0.74417 0.0
H265 H 0.52339 0.02635 0.69055 0.0
H266 H 0.48864 0.91795 0.6882 0.0
H267 H 0.49177 0.91559 0.71342 0.0
H268 H 0.52514 0.02337 0.7158 0.0
C269 C 0.55241 0.48655 0.11873 0.0
C270 C 0.57294 0.47733 0.11106 0.0
C271 C 0.61609 0.49935 0.12926 0.0
C272 C 0.60434 0.48346 0.11631 0.0
C273 C 0.59532 0.50846 0.13691 0.0
C274 C 0.56374 0.50207 0.13168 0.0
U275 U 0.49721 0.4777 0.08778 0.0
O276 O 0.44245 0.44243 0.08377 0.0
O277 O 0.46288 0.49808 0.08375 0.0
C278 C 0.4355 0.46743 0.08309 0.0
C279 C 0.51979 0.4811 0.11307 0.0
C280 C 0.40615 0.46268 0.09135 0.0
C281 C 0.38055 0.46392 0.11333 0.0
C282 C 0.40839 0.46679 0.10579 0.0
C283 C 0.34796 0.4521 0.09209 0.0
C284 C 0.35019 0.45702 0.10651 0.0
C285 C 0.3757 0.45495 0.08459 0.0
C286 C 0.53408 0.4862 0.05155 0.0
C287 C 0.49964 0.46839 0.03061 0.0
C288 C 0.56067 0.5084 0.02916 0.0
C289 C 0.56325 0.50684 0.04354 0.0
C290 C 0.52884 0.48916 0.02254 0.0
C291 C 0.50219 0.46708 0.04501 0.0
C292 C 0.53726 0.4857 0.0667 0.0
O293 O 0.52165 0.50764 0.10656 0.0
O294 O 0.50125 0.45202 0.10646 0.0
O295 O 0.51785 0.45598 0.07284 0.0
O296 O 0.53784 0.51152 0.07322 0.0
H297 H 0.56475 0.46549 0.10098 0.0
H298 H 0.61932 0.47556 0.11022 0.0
H299 H 0.60374 0.52115 0.14682 0.0
H300 H 0.54833 0.50962 0.13769 0.0
H301 H 0.38314 0.46806 0.12441 0.0
H302 H 0.43181 0.47278 0.11116 0.0
H303 H 0.32475 0.44618 0.08656 0.0
H304 H 0.37353 0.45155 0.07346 0.0
H305 H 0.47472 0.4536 0.0258 0.0
H306 H 0.58364 0.5244 0.0232 0.0
H307 H 0.58803 0.52187 0.04842 0.0
H308 H 0.47926 0.45129 0.05102 0.0
H309 H 0.12511 0.51906 0.14131 0.0
H310 H 0.16819 0.50428 0.13503 0.0
H311 H 0.13662 0.43249 0.16901 0.0
H312 H 0.09258 0.44694 0.17543 0.0
H313 H 0.2127 0.47951 0.16466 0.0
H314 H 0.11185 0.39658 0.14109 0.0
H315 H 0.05955 0.37687 0.12715 0.0
H316 H 0.11971 0.4403 0.09321 0.0
H317 H 0.17236 0.46081 0.10703 0.0
H318 H 0.32329 0.42697 0.13173 0.0
H319 H 0.27479 0.42524 0.14399 0.0
H320 H 0.26386 0.48373 0.11097 0.0
H321 H 0.31199 0.48559 0.09877 0.0
H322 H 0.2033 0.43043 0.11786 0.0
H323 H 0.30153 0.52005 0.14213 0.0
H324 H 0.35459 0.54349 0.15588 0.0
H325 H 0.30036 0.47028 0.18818 0.0
H326 H 0.24704 0.44611 0.17452 0.0
C327 C 0.12725 0.50024 0.14756 0.0
C328 C 0.10519 0.48406 0.15886 0.0
C329 C 0.15194 0.49181 0.14392 0.0
C330 C 0.15536 0.46716 0.15149 0.0
C331 C 0.13423 0.45156 0.16304 0.0
C332 C 0.10908 0.45977 0.16665 0.0
C333 C 0.18056 0.45749 0.1468 0.0
C334 C 0.21038 0.46793 0.1546 0.0
C335 C 0.1776 0.44293 0.13357 0.0
C336 C 0.14605 0.43036 0.12514 0.0
C337 C 0.11392 0.4065 0.13069 0.0
C338 C 0.08421 0.39516 0.1228 0.0
C339 C 0.0863 0.40735 0.10931 0.0
C340 C 0.11813 0.43087 0.10366 0.0
C341 C 0.14792 0.44232 0.11151 0.0
C342 C 0.31064 0.43964 0.12716 0.0
C343 C 0.32131 0.4562 0.11423 0.0
C344 C 0.28294 0.43859 0.13416 0.0
C345 C 0.26569 0.45435 0.12839 0.0
C346 C 0.27655 0.4711 0.11556 0.0
C347 C 0.30403 0.47207 0.10857 0.0
C348 C 0.23613 0.45355 0.1355 0.0
C349 C 0.2054 0.44113 0.1281 0.0
C350 C 0.23842 0.46649 0.14904 0.0
C351 C 0.27044 0.48099 0.15723 0.0
C352 C 0.301 0.50875 0.15211 0.0
C353 C 0.3311 0.52221 0.15989 0.0
C354 C 0.33087 0.5083 0.17287 0.0
C355 C 0.30052 0.48097 0.17811 0.0
C356 C 0.27035 0.46739 0.17036 0.0
H357 H 0.3542 0.51876 0.17889 0.0
H358 H 0.06327 0.39855 0.10322 0.0
H359 H 0.63663 0.12481 0.51539 0.0
H360 H 0.68975 0.17721 0.50954 0.0
H361 H 0.69447 0.13281 0.4707 0.0
H362 H 0.64152 0.07998 0.47654 0.0
H363 H 0.75811 0.17206 0.48197 0.0
H364 H 0.66018 0.1838 0.47187 0.0
H365 H 0.60566 0.18143 0.47733 0.0
H366 H 0.65556 0.25728 0.50897 0.0
H367 H 0.71031 0.25973 0.50383 0.0
H368 H 0.86376 0.32558 0.44458 0.0
H369 H 0.81677 0.27049 0.45256 0.0
H370 H 0.81036 0.3177 0.49036 0.0
H371 H 0.85643 0.37324 0.48219 0.0
H372 H 0.74823 0.27679 0.48012 0.0
H373 H 0.84712 0.26641 0.48947 0.0
H374 H 0.90122 0.26806 0.48387 0.0
H375 H 0.84946 0.18959 0.45334 0.0
H376 H 0.79511 0.18779 0.45863 0.0
C377 C 0.64923 0.12587 0.5057 0.0
C378 C 0.63453 0.09827 0.49636 0.0
C379 C 0.67956 0.15594 0.50235 0.0
C380 C 0.69564 0.15919 0.48955 0.0
C381 C 0.68236 0.13092 0.4806 0.0
C382 C 0.65206 0.10072 0.48397 0.0
C383 C 0.72482 0.19276 0.4851 0.0
C384 C 0.7559 0.19491 0.48143 0.0
C385 C 0.72204 0.22268 0.48461 0.0
C386 C 0.68927 0.2217 0.48756 0.0
C387 C 0.65948 0.19982 0.48005 0.0
C388 C 0.62854 0.19847 0.48308 0.0
C389 C 0.62712 0.21912 0.49352 0.0
C390 C 0.65668 0.24126 0.5009 0.0
C391 C 0.68769 0.24266 0.49793 0.0
C392 C 0.8522 0.32436 0.45454 0.0
C393 C 0.86394 0.35392 0.46274 0.0
C394 C 0.82556 0.29271 0.45917 0.0
C395 C 0.8103 0.28981 0.47215 0.0
C396 C 0.82185 0.31926 0.48033 0.0
C397 C 0.84841 0.35096 0.4757 0.0
C398 C 0.78174 0.25625 0.47704 0.0
C399 C 0.75062 0.25405 0.48074 0.0
C400 C 0.7845 0.2263 0.47751 0.0
C401 C 0.81711 0.22719 0.47437 0.0
C402 C 0.84732 0.24968 0.48149 0.0
C403 C 0.87803 0.25062 0.47838 0.0
C404 C 0.8788 0.22901 0.46823 0.0
C405 C 0.84883 0.20634 0.46119 0.0
C406 C 0.81806 0.20533 0.46425 0.0
H407 H 0.90259 0.22977 0.46584 0.0
H408 H 0.60313 0.21801 0.49586 0.0
H409 H 0.58381 0.65189 0.81828 0.0
H410 H 0.58706 0.70643 0.8126 0.0
H411 H 0.50471 0.68288 0.84119 0.0
H412 H 0.50129 0.62856 0.84698 0.0
H413 H 0.49302 0.69993 0.81515 0.0
H414 H 0.58335 0.74455 0.84886 0.0
H415 H 0.63741 0.75468 0.85937 0.0
H416 H 0.69216 0.80637 0.82241 0.0
H417 H 0.6383 0.79611 0.8116 0.0
H418 H 0.49156 0.85531 0.81327 0.0
H419 H 0.49703 0.80689 0.82137 0.0
H420 H 0.58251 0.83654 0.79373 0.0
H421 H 0.57778 0.88567 0.78582 0.0
H422 H 0.59408 0.8169 0.81893 0.0
H423 H 0.50517 0.7723 0.78501 0.0
H424 H 0.45161 0.76163 0.77384 0.0
H425 H 0.39471 0.70888 0.81026 0.0
H426 H 0.44805 0.71971 0.82174 0.0
C427 C 0.56677 0.65855 0.82354 0.0
C428 C 0.54217 0.63569 0.83304 0.0
C429 C 0.56871 0.68977 0.82029 0.0
C430 C 0.54606 0.69864 0.82646 0.0
C431 C 0.52235 0.67647 0.83629 0.0
C432 C 0.52055 0.64544 0.83961 0.0
C433 C 0.54532 0.72978 0.82199 0.0
C434 C 0.51496 0.72556 0.81617 0.0
C435 C 0.57432 0.76306 0.82289 0.0
C436 C 0.60672 0.76922 0.82936 0.0
C437 C 0.60686 0.75779 0.84292 0.0
C438 C 0.63748 0.76362 0.84894 0.0
C439 C 0.66819 0.78107 0.84155 0.0
C440 C 0.66834 0.7928 0.82812 0.0
C441 C 0.63778 0.78701 0.82204 0.0
C442 C 0.51184 0.85185 0.80904 0.0
C443 C 0.53415 0.8743 0.79885 0.0
C444 C 0.51475 0.82398 0.8136 0.0
C445 C 0.53991 0.81785 0.80803 0.0
C446 C 0.56283 0.84071 0.79813 0.0
C447 C 0.5599 0.86859 0.79354 0.0
C448 C 0.5416 0.78704 0.81227 0.0
C449 C 0.57213 0.79128 0.81795 0.0
C450 C 0.51282 0.75365 0.81115 0.0
C451 C 0.48068 0.74715 0.8043 0.0
C452 C 0.48129 0.7587 0.79069 0.0
C453 C 0.45096 0.75258 0.78429 0.0
C454 C 0.41979 0.73467 0.79135 0.0
C455 C 0.41888 0.7228 0.80482 0.0
C456 C 0.44916 0.72891 0.81127 0.0
H457 H 0.39633 0.72993 0.78637 0.0
H458 H 0.69187 0.78557 0.84623 0.0
H459 H 0.89854 0.53581 0.18351 0.0
H460 H 0.84474 0.5365 0.18047 0.0
H461 H 0.85422 0.53282 0.13616 0.0
H462 H 0.90715 0.53114 0.13912 0.0
H463 H 0.83443 0.58173 0.14649 0.0
H464 H 0.80656 0.46286 0.1501 0.0
H465 H 0.8054 0.41334 0.16158 0.0
H466 H 0.7523 0.42423 0.19632 0.0
H467 H 0.75369 0.47424 0.18514 0.0
H468 H 0.67544 0.52124 0.11458 0.0
H469 H 0.73051 0.53137 0.12307 0.0
H470 H 0.68987 0.50629 0.16459 0.0
H471 H 0.63387 0.4942 0.15603 0.0
H472 H 0.72599 0.47672 0.15941 0.0
H473 H 0.74638 0.59045 0.15455 0.0
H474 H 0.74646 0.63938 0.14304 0.0
H475 H 0.81317 0.63937 0.11135 0.0
H476 H 0.81312 0.59012 0.12256 0.0
C477 C 0.88935 0.53573 0.17314 0.0
C478 C 0.90685 0.53335 0.16154 0.0
C479 C 0.85865 0.53595 0.17142 0.0
C480 C 0.84558 0.53456 0.1581 0.0
C481 C 0.86396 0.53393 0.14652 0.0
C482 C 0.8941 0.5329 0.14823 0.0
C483 C 0.81188 0.53191 0.15605 0.0
C484 C 0.81065 0.55882 0.14929 0.0
C485 C 0.78104 0.50233 0.16007 0.0
C486 C 0.78072 0.47264 0.16689 0.0
C487 C 0.79507 0.45501 0.16028 0.0
C488 C 0.79426 0.42677 0.1667 0.0
C489 C 0.77889 0.41571 0.17969 0.0
C490 C 0.76429 0.43288 0.18628 0.0
C491 C 0.7651 0.46118 0.1799 0.0
C492 C 0.678 0.51752 0.12551 0.0
C493 C 0.65008 0.50677 0.1346 0.0
C494 C 0.70974 0.52385 0.13039 0.0
C495 C 0.71457 0.52021 0.14452 0.0
C496 C 0.68682 0.50952 0.15366 0.0
C497 C 0.6549 0.50289 0.14876 0.0
C498 C 0.74831 0.52636 0.14956 0.0
C499 C 0.74963 0.50005 0.15686 0.0
C500 C 0.77927 0.55663 0.14612 0.0
C501 C 0.77957 0.58643 0.13937 0.0
C502 C 0.7609 0.60073 0.14508 0.0
C503 C 0.76096 0.62855 0.13861 0.0
C504 C 0.77977 0.64244 0.12646 0.0
C505 C 0.79861 0.62858 0.12076 0.0
C506 C 0.79862 0.60074 0.12719 0.0
H507 H 0.77978 0.66397 0.12146 0.0
H508 H 0.77818 0.39377 0.18463 0.0
H509 H 0.37606 0.88355 0.50814 0.0
H510 H 0.32223 0.83612 0.49968 0.0
H511 H 0.31328 0.90412 0.47066 0.0
H512 H 0.36764 0.95174 0.47885 0.0
H513 H 0.25646 0.81849 0.49678 0.0
H514 H 0.28593 0.86265 0.43991 0.0
H515 H 0.33568 0.89972 0.42511 0.0
H516 H 0.40119 0.88176 0.45181 0.0
H517 H 0.35177 0.84423 0.46664 0.0
H518 H 0.11626 0.70205 0.45368 0.0
H519 H 0.16099 0.75312 0.4654 0.0
H520 H 0.23708 0.72899 0.45123 0.0
H521 H 0.19265 0.67816 0.43951 0.0
H522 H 0.25852 0.79423 0.44682 0.0
H523 H 0.20901 0.71594 0.48507 0.0
H524 H 0.16248 0.67583 0.50054 0.0
H525 H 0.14204 0.75577 0.51205 0.0
H526 H 0.18818 0.79625 0.4965 0.0
C527 C 0.36242 0.88868 0.50013 0.0
C528 C 0.37656 0.92142 0.49402 0.0
C529 C 0.3315 0.86147 0.49533 0.0
C530 C 0.31405 0.86639 0.48435 0.0
C531 C 0.32665 0.8996 0.47898 0.0
C532 C 0.3577 0.92684 0.48372 0.0
C533 C 0.2848 0.83623 0.47769 0.0
C534 C 0.25673 0.81332 0.48583 0.0
C535 C 0.28545 0.82907 0.46346 0.0
C536 C 0.31523 0.85098 0.45446 0.0
C537 C 0.31094 0.86653 0.44258 0.0
C538 C 0.33908 0.88762 0.43419 0.0
C539 C 0.3716 0.8932 0.43755 0.0
C540 C 0.37602 0.87753 0.44925 0.0
C541 C 0.34796 0.85635 0.45765 0.0
C542 C 0.14248 0.70744 0.45322 0.0
C543 C 0.15094 0.68614 0.44561 0.0
C544 C 0.16802 0.73666 0.4599 0.0
C545 C 0.20243 0.74491 0.45922 0.0
C546 C 0.21078 0.72334 0.45181 0.0
C547 C 0.18535 0.6943 0.4451 0.0
C548 C 0.23005 0.77635 0.46589 0.0
C549 C 0.2579 0.79957 0.45773 0.0
C550 C 0.22951 0.7833 0.48016 0.0
C551 C 0.20178 0.75901 0.48951 0.0
C552 C 0.1944 0.72489 0.49081 0.0
C553 C 0.16814 0.7021 0.49961 0.0
C554 C 0.14925 0.71322 0.50724 0.0
C555 C 0.15665 0.74717 0.50611 0.0
C556 C 0.18286 0.77006 0.49732 0.0
H557 H 0.12893 0.69554 0.51405 0.0
H558 H 0.39336 0.9096 0.43107 0.0
H559 H 0.48776 0.3704 0.84531 0.0
H560 H 0.48267 0.31651 0.83748 0.0
H561 H 0.45047 0.3312 0.79719 0.0
H562 H 0.45397 0.38416 0.80517 0.0
H563 H 0.41681 0.26686 0.80305 0.0
H564 H 0.53623 0.35356 0.80517 0.0
H565 H 0.58902 0.39797 0.81639 0.0
H566 H 0.58395 0.32366 0.84567 0.0
H567 H 0.53085 0.27889 0.83472 0.0
H568 H 0.4695 0.17432 0.76034 0.0
H569 H 0.46393 0.21901 0.77216 0.0
H570 H 0.48082 0.18431 0.81146 0.0
H571 H 0.48565 0.13882 0.79974 0.0
H572 H 0.51976 0.25492 0.80802 0.0
H573 H 0.40201 0.16684 0.80336 0.0
H574 H 0.35095 0.1239 0.79074 0.0
H575 H 0.35514 0.20301 0.76451 0.0
H576 H 0.40653 0.24638 0.77684 0.0
C577 C 0.4791 0.36185 0.83485 0.0
C578 C 0.47149 0.38167 0.82584 0.0
C579 C 0.47643 0.33115 0.83035 0.0
C580 C 0.46703 0.32015 0.81662 0.0
C581 C 0.45791 0.33913 0.80781 0.0
C582 C 0.45993 0.36946 0.81239 0.0
C583 C 0.46808 0.28981 0.81119 0.0
C584 C 0.43945 0.26445 0.80406 0.0
C585 C 0.49735 0.28616 0.81269 0.0
C586 C 0.52938 0.31298 0.81923 0.0
C587 C 0.54626 0.34676 0.81406 0.0
C588 C 0.57624 0.37198 0.82036 0.0
C589 C 0.58977 0.36367 0.83176 0.0
C590 C 0.5734 0.33008 0.83686 0.0
C591 C 0.54338 0.30477 0.8306 0.0
C592 C 0.47149 0.17574 0.77152 0.0
C593 C 0.47779 0.15272 0.77908 0.0
C594 C 0.46842 0.20143 0.77825 0.0
C595 C 0.47158 0.20475 0.7927 0.0
C596 C 0.47825 0.18215 0.8003 0.0
C597 C 0.48116 0.15627 0.79357 0.0
C598 C 0.46872 0.2324 0.79976 0.0
C599 C 0.49702 0.25723 0.80717 0.0
C600 C 0.43938 0.23583 0.79832 0.0
C601 C 0.40828 0.20983 0.79097 0.0
C602 C 0.39219 0.17505 0.79484 0.0
C603 C 0.36316 0.15064 0.78774 0.0
C604 C 0.34985 0.16071 0.77681 0.0
C605 C 0.36549 0.19524 0.77297 0.0
C606 C 0.39454 0.21976 0.78002 0.0
H607 H 0.32738 0.14177 0.77133 0.0
H608 H 0.61298 0.38323 0.83663 0.0
H609 H 0.4739 0.86984 0.50949 0.0
H610 H 0.48363 0.82299 0.51542 0.0
H611 H 0.58794 0.88214 0.50099 0.0
H612 H 0.57833 0.92971 0.49487 0.0
H613 H 0.55381 0.8104 0.49397 0.0
H614 H 0.57609 0.88124 0.53396 0.0
H615 H 0.56332 0.91432 0.55081 0.0
H616 H 0.47201 0.82258 0.5634 0.0
H617 H 0.48389 0.78901 0.54646 0.0
H618 H 0.58639 0.68852 0.52878 0.0
H619 H 0.59123 0.74221 0.52044 0.0
H620 H 0.49137 0.71148 0.53737 0.0
H621 H 0.48673 0.65828 0.54588 0.0
H622 H 0.53388 0.77566 0.54346 0.0
H623 H 0.50577 0.70667 0.50208 0.0
H624 H 0.51417 0.67222 0.48439 0.0
H625 H 0.61235 0.75847 0.47401 0.0
H626 H 0.60469 0.79331 0.49178 0.0
C627 C 0.49889 0.87293 0.50743 0.0
C628 C 0.52553 0.90372 0.5019 0.0
C629 C 0.50437 0.84608 0.51084 0.0
C630 C 0.53668 0.84945 0.50892 0.0
C631 C 0.56289 0.87926 0.50263 0.0
C632 C 0.55736 0.90632 0.49914 0.0
C633 C 0.54291 0.82225 0.51424 0.0
C634 C 0.55023 0.80318 0.50483 0.0
C635 C 0.53759 0.81262 0.52838 0.0
C636 C 0.53082 0.83262 0.53887 0.0
C637 C 0.55319 0.86813 0.54027 0.0
C638 C 0.54611 0.88697 0.54984 0.0
C639 C 0.51685 0.87057 0.55816 0.0
C640 C 0.49467 0.83525 0.55695 0.0
C641 C 0.50159 0.81629 0.54738 0.0
C642 C 0.56544 0.69322 0.53064 0.0
C643 C 0.53621 0.66928 0.538 0.0
C644 C 0.56822 0.72387 0.52587 0.0
C645 C 0.54156 0.7308 0.5282 0.0
C646 C 0.51236 0.70682 0.53552 0.0
C647 C 0.50973 0.67643 0.54039 0.0
C648 C 0.54374 0.76297 0.52312 0.0
C649 C 0.53809 0.78313 0.53262 0.0
C650 C 0.55025 0.77334 0.50905 0.0
C651 C 0.55484 0.75244 0.49837 0.0
C652 C 0.52927 0.71819 0.4961 0.0
C653 C 0.53387 0.69862 0.48605 0.0
C654 C 0.56383 0.71311 0.47811 0.0
C655 C 0.58919 0.74725 0.48019 0.0
C656 C 0.58473 0.76693 0.49024 0.0
H657 H 0.56734 0.69792 0.47033 0.0
H658 H 0.51137 0.88522 0.56554 0.0
H659 H 0.61809 0.49372 0.85655 0.0
H660 H 0.67529 0.50267 0.85995 0.0
H661 H 0.71381 0.57854 0.82731 0.0
H662 H 0.6562 0.57017 0.82397 0.0
H663 H 0.71484 0.49187 0.84355 0.0
H664 H 0.7986 0.63774 0.83505 0.0
H665 H 0.79456 0.69016 0.83707 0.0
H666 H 0.71722 0.64192 0.86845 0.0
H667 H 0.72112 0.58941 0.86674 0.0
H668 H 0.88534 0.52729 0.8466 0.0
H669 H 0.8356 0.52965 0.83812 0.0
H670 H 0.8329 0.57886 0.87595 0.0
H671 H 0.8837 0.57825 0.8842 0.0
H672 H 0.81577 0.60476 0.85487 0.0
H673 H 0.78328 0.49154 0.87162 0.0
H674 H 0.785 0.43776 0.87267 0.0
H675 H 0.75551 0.4183 0.82991 0.0
H676 H 0.75406 0.47225 0.82857 0.0
C677 C 0.63861 0.51239 0.85006 0.0
C678 C 0.63247 0.53122 0.83996 0.0
C679 C 0.67137 0.51739 0.852 0.0
C680 C 0.69888 0.54128 0.84391 0.0
C681 C 0.693 0.5602 0.83378 0.0
C682 C 0.66007 0.55532 0.83186 0.0
C683 C 0.73344 0.54583 0.8462 0.0
C684 C 0.73697 0.51663 0.8459 0.0
C685 C 0.76225 0.57804 0.84942 0.0
C686 C 0.75986 0.60954 0.85062 0.0
C687 C 0.78079 0.63837 0.84239 0.0
C688 C 0.77852 0.66809 0.84349 0.0
C689 C 0.75555 0.66932 0.85284 0.0
C690 C 0.73489 0.64088 0.86116 0.0
C691 C 0.73708 0.61112 0.86012 0.0
C692 C 0.87472 0.53939 0.85299 0.0
C693 C 0.88832 0.55221 0.86617 0.0
C694 C 0.84606 0.54043 0.84816 0.0
C695 C 0.83014 0.55387 0.8565 0.0
C696 C 0.84465 0.56822 0.86936 0.0
C697 C 0.87346 0.56745 0.87414 0.0
C698 C 0.79699 0.55071 0.85236 0.0
C699 C 0.79377 0.58013 0.85228 0.0
C700 C 0.76811 0.51852 0.84917 0.0
C701 C 0.76897 0.48611 0.84995 0.0
C702 C 0.77743 0.47592 0.86242 0.0
C703 C 0.77831 0.44539 0.86307 0.0
C704 C 0.77048 0.42468 0.85135 0.0
C705 C 0.76165 0.43441 0.83897 0.0
C706 C 0.76079 0.46495 0.83826 0.0
H707 H 0.77116 0.40105 0.85187 0.0
H708 H 0.75382 0.69234 0.85367 0.0
H709 H 0.07012 0.64679 0.18984 0.0
H710 H 0.11826 0.70214 0.19678 0.0
H711 H 0.17952 0.69655 0.16373 0.0
H712 H 0.13173 0.64102 0.15682 0.0
H713 H 0.21257 0.71015 0.18772 0.0
H714 H 0.1521 0.75505 0.16283 0.0
H715 H 0.10242 0.76085 0.15633 0.0
H716 H 0.09657 0.79187 0.19776 0.0
H717 H 0.14595 0.7858 0.20457 0.0
H718 H 0.35576 0.87241 0.20248 0.0
H719 H 0.30706 0.82721 0.18989 0.0
H720 H 0.23833 0.82489 0.22146 0.0
H721 H 0.28668 0.87099 0.23381 0.0
H722 H 0.2104 0.81748 0.19627 0.0
H723 H 0.26652 0.76728 0.22163 0.0
H724 H 0.3154 0.76056 0.22859 0.0
H725 H 0.3283 0.73844 0.18653 0.0
H726 H 0.27974 0.74549 0.17929 0.0
C727 C 0.09362 0.65755 0.18389 0.0
C728 C 0.09706 0.63928 0.17282 0.0
C729 C 0.12112 0.68932 0.18784 0.0
C730 C 0.1525 0.70358 0.18074 0.0
C731 C 0.15558 0.68601 0.16937 0.0
C732 C 0.12815 0.65426 0.16542 0.0
C733 C 0.18287 0.73533 0.18586 0.0
C734 C 0.21231 0.73383 0.18932 0.0
C735 C 0.18225 0.76595 0.1883 0.0
C736 C 0.15257 0.76969 0.18424 0.0
C737 C 0.14006 0.76285 0.17059 0.0
C738 C 0.11198 0.76623 0.16684 0.0
C739 C 0.0963 0.77665 0.17663 0.0
C740 C 0.10873 0.78378 0.19019 0.0
C741 C 0.13679 0.78041 0.19399 0.0
C742 C 0.33023 0.86277 0.20661 0.0
C743 C 0.32518 0.87509 0.21924 0.0
C744 C 0.30243 0.83671 0.19946 0.0
C745 C 0.2691 0.82226 0.20486 0.0
C746 C 0.26382 0.83552 0.21714 0.0
C747 C 0.29155 0.86163 0.22426 0.0
C748 C 0.23993 0.79217 0.19815 0.0
C749 C 0.21073 0.79391 0.19448 0.0
C750 C 0.24064 0.76164 0.19555 0.0
C751 C 0.26976 0.7573 0.1999 0.0
C752 C 0.27995 0.76125 0.21385 0.0
C753 C 0.30757 0.75734 0.21785 0.0
C754 C 0.32501 0.74918 0.208 0.0
C755 C 0.31481 0.74482 0.19414 0.0
C756 C 0.28723 0.74876 0.19009 0.0
H757 H 0.34638 0.74615 0.21112 0.0
H758 H 0.07457 0.77925 0.17371 0.0
H759 H 0.44424 0.09628 0.49555 0.0
H760 H 0.43852 0.14588 0.50224 0.0
H761 H 0.53248 0.1869 0.52549 0.0
H762 H 0.53841 0.13825 0.51898 0.0
H763 H 0.47835 0.18111 0.54087 0.0
H764 H 0.53133 0.2228 0.49585 0.0
H765 H 0.53426 0.2201 0.47042 0.0
H766 H 0.43945 0.22009 0.4667 0.0
H767 H 0.43574 0.22233 0.49214 0.0
H768 H 0.54143 0.34965 0.55987 0.0
H769 H 0.53461 0.29971 0.54733 0.0
H770 H 0.44039 0.28444 0.52948 0.0
H771 H 0.44704 0.33466 0.5421 0.0
H772 H 0.4819 0.27203 0.5106 0.0
H773 H 0.43306 0.23722 0.55585 0.0
H774 H 0.43173 0.24119 0.58128 0.0
H775 H 0.51918 0.22781 0.58458 0.0
H776 H 0.52138 0.2243 0.55915 0.0
C777 C 0.46381 0.11611 0.50195 0.0
C778 C 0.49146 0.11301 0.50691 0.0
C779 C 0.46053 0.14438 0.50575 0.0
C780 C 0.48495 0.16982 0.51446 0.0
C781 C 0.51317 0.16735 0.51889 0.0
C782 C 0.51644 0.1394 0.51515 0.0
C783 C 0.4808 0.19826 0.51983 0.0
C784 C 0.47914 0.20099 0.53424 0.0
C785 C 0.48074 0.22357 0.51116 0.0
C786 C 0.48301 0.22226 0.49589 0.0
C787 C 0.51093 0.22187 0.48961 0.0
C788 C 0.51278 0.22051 0.4752 0.0
C789 C 0.48699 0.21979 0.46695 0.0
C790 C 0.45936 0.22056 0.4731 0.0
C791 C 0.45738 0.22189 0.48752 0.0
C792 C 0.5193 0.33576 0.55324 0.0
C793 C 0.49448 0.34573 0.55214 0.0
C794 C 0.51552 0.30734 0.54603 0.0
C795 C 0.48672 0.28811 0.53766 0.0
C796 C 0.46275 0.29895 0.53592 0.0
C797 C 0.46659 0.32759 0.54313 0.0
C798 C 0.48088 0.25543 0.53164 0.0
C799 C 0.48044 0.25179 0.51719 0.0
C800 C 0.47903 0.22912 0.54025 0.0
C801 C 0.47748 0.23068 0.55558 0.0
C802 C 0.45213 0.23532 0.56199 0.0
C803 C 0.45121 0.23748 0.57641 0.0
C804 C 0.47538 0.2348 0.58454 0.0
C805 C 0.50048 0.22988 0.57827 0.0
C806 C 0.50154 0.22776 0.56385 0.0
H807 H 0.47464 0.23649 0.5957 0.0
H808 H 0.48847 0.21875 0.45579 0.0
H809 H 0.36424 0.46286 0.82225 0.0
H810 H 0.30676 0.45333 0.82763 0.0
H811 H 0.3385 0.48612 0.86963 0.0
H812 H 0.39533 0.49575 0.86441 0.0
H813 H 0.27466 0.42742 0.86808 0.0
H814 H 0.33852 0.54097 0.84662 0.0
H815 H 0.36993 0.58041 0.82735 0.0
H816 H 0.2823 0.52611 0.80097 0.0
H817 H 0.25052 0.48607 0.82008 0.0
H818 H 0.18963 0.49777 0.90186 0.0
H819 H 0.23093 0.48833 0.88931 0.0
H820 H 0.16678 0.45876 0.85302 0.0
H821 H 0.12471 0.46773 0.86566 0.0
H822 H 0.23619 0.50301 0.84709 0.0
H823 H 0.16854 0.39732 0.87064 0.0
H824 H 0.13752 0.35961 0.89039 0.0
H825 H 0.23183 0.39864 0.91288 0.0
H826 H 0.26337 0.43699 0.89335 0.0
C827 C 0.35875 0.4677 0.83264 0.0
C828 C 0.38436 0.48025 0.84288 0.0
C829 C 0.32602 0.46236 0.83568 0.0
C830 C 0.31849 0.46912 0.84902 0.0
C831 C 0.34375 0.48065 0.85929 0.0
C832 C 0.37632 0.48633 0.85625 0.0
C833 C 0.28493 0.46565 0.85249 0.0
C834 C 0.26609 0.44378 0.86345 0.0
C835 C 0.27324 0.48623 0.84614 0.0
C836 C 0.29234 0.51027 0.8347 0.0
C837 C 0.32608 0.53726 0.83667 0.0
C838 C 0.34392 0.55976 0.82579 0.0
C839 C 0.32817 0.55568 0.81293 0.0
C840 C 0.2945 0.52917 0.81093 0.0
C841 C 0.27656 0.50658 0.82178 0.0
C842 C 0.184 0.48887 0.89127 0.0
C843 C 0.1536 0.48303 0.88483 0.0
C844 C 0.20772 0.4836 0.88409 0.0
C845 C 0.20162 0.47226 0.87032 0.0
C846 C 0.17184 0.46732 0.86367 0.0
C847 C 0.14792 0.47256 0.87089 0.0
C848 C 0.22682 0.46586 0.86308 0.0
C849 C 0.24404 0.48581 0.85144 0.0
C850 C 0.23707 0.44347 0.86879 0.0
C851 C 0.21831 0.42014 0.88053 0.0
C852 C 0.18265 0.39801 0.87983 0.0
C853 C 0.16497 0.3765 0.89098 0.0
C854 C 0.18269 0.37675 0.90289 0.0
C855 C 0.21814 0.39846 0.90365 0.0
C856 C 0.23594 0.42005 0.89253 0.0
H857 H 0.16895 0.36009 0.91152 0.0
H858 H 0.34201 0.57314 0.80452 0.0
H859 H 0.93524 0.37266 0.1876 0.0
H860 H 0.88258 0.31974 0.19371 0.0
H861 H 0.83086 0.33436 0.15908 0.0
H862 H 0.88308 0.38718 0.15292 0.0
H863 H 0.79631 0.32474 0.1831 0.0
H864 H 0.84957 0.27039 0.15897 0.0
H865 H 0.89572 0.25785 0.15394 0.0
H866 H 0.88846 0.21959 0.19532 0.0
H867 H 0.84256 0.23235 0.20066 0.0
H868 H 0.63835 0.1692 0.18673 0.0
H869 H 0.69369 0.21631 0.179 0.0
H870 H 0.74368 0.19574 0.21269 0.0
H871 H 0.68858 0.14777 0.22018 0.0
H872 H 0.77996 0.20826 0.18955 0.0
H873 H 0.72731 0.26164 0.21393 0.0
H874 H 0.68312 0.2763 0.21992 0.0
H875 H 0.69127 0.31886 0.17931 0.0
H876 H 0.73501 0.30382 0.17297 0.0
C877 C 0.91287 0.36428 0.18111 0.0
C878 C 0.91339 0.38435 0.16982 0.0
C879 C 0.88278 0.33398 0.18462 0.0
C880 C 0.85278 0.32316 0.17686 0.0
C881 C 0.85368 0.34233 0.16524 0.0
C882 C 0.88366 0.37251 0.16172 0.0
C883 C 0.81976 0.29347 0.18141 0.0
C884 C 0.79252 0.29911 0.18429 0.0
C885 C 0.81532 0.2604 0.18346 0.0
C886 C 0.84286 0.25265 0.18026 0.0
C887 C 0.85801 0.25958 0.16704 0.0
C888 C 0.88408 0.25237 0.16412 0.0
C889 C 0.89508 0.23802 0.17432 0.0
C890 C 0.87995 0.23076 0.18744 0.0
C891 C 0.85388 0.23794 0.19041 0.0
C892 C 0.66115 0.17441 0.1924 0.0
C893 C 0.65898 0.15476 0.20411 0.0
C894 C 0.69274 0.20159 0.18806 0.0
C895 C 0.7228 0.20987 0.19538 0.0
C896 C 0.72082 0.18993 0.20691 0.0
C897 C 0.68925 0.16271 0.21125 0.0
C898 C 0.75626 0.2394 0.19104 0.0
C899 C 0.78364 0.23382 0.18829 0.0
C900 C 0.76097 0.27269 0.18921 0.0
C901 C 0.73413 0.28114 0.19291 0.0
C902 C 0.71937 0.27371 0.20621 0.0
C903 C 0.69445 0.28217 0.20968 0.0
C904 C 0.68429 0.29837 0.19999 0.0
C905 C 0.69906 0.30619 0.1868 0.0
C906 C 0.72391 0.29768 0.18326 0.0
H907 H 0.66505 0.30497 0.20271 0.0
H908 H 0.91526 0.23245 0.17204 0.0
H909 H 0.05062 0.56987 0.11047 0.0
H910 H 0.04963 0.5724 0.08512 0.0
H911 H 0.97187 0.4655 0.0839 0.0
H912 H 0.97209 0.46288 0.10923 0.0
H913 H 0.03041 0.48846 0.06431 0.0
H914 H 0.94406 0.51464 0.07972 0.0
H915 H 0.92311 0.54646 0.09343 0.0
H916 H 0.9974 0.64066 0.07404 0.0
H917 H 0.01917 0.60942 0.06037 0.0
H918 H 0.97009 0.47121 0.99547 0.0
H919 H 0.97585 0.46985 0.02061 0.0
H920 H 0.03013 0.5805 0.02152 0.0
H921 H 0.02378 0.58191 0.9964 0.0
H922 H 0.98587 0.55707 0.04157 0.0
H923 H 0.07152 0.5331 0.02549 0.0
H924 H 0.09555 0.50362 0.01208 0.0
H925 H 0.02758 0.40883 0.03274 0.0
H926 H 0.00278 0.43765 0.04614 0.0
C927 C 0.03345 0.54686 0.1048 0.0
C928 C 0.01132 0.51621 0.11184 0.0
C929 C 0.03289 0.54838 0.09034 0.0
C930 C 0.01063 0.51915 0.0827 0.0
C931 C 0.98923 0.48829 0.08965 0.0
C932 C 0.98928 0.48691 0.10411 0.0
C933 C 0.00887 0.52101 0.06745 0.0
C934 C 0.02036 0.50313 0.05929 0.0
C935 C 0.99667 0.54098 0.06099 0.0
C936 C 0.98351 0.55976 0.06915 0.0
C937 C 0.95616 0.54218 0.07848 0.0
C938 C 0.94409 0.5601 0.08622 0.0
C939 C 0.95899 0.59558 0.08464 0.0
C940 C 0.98593 0.61319 0.07527 0.0
C941 C 0.99813 0.59539 0.06752 0.0
C942 C 0.98348 0.49523 0.00103 0.0
C943 C 0.99654 0.52666 0.99398 0.0
C944 C 0.98684 0.49445 0.01539 0.0
C945 C 0.00387 0.52509 0.02297 0.0
C946 C 0.01688 0.55652 0.01593 0.0
C947 C 0.0132 0.5573 0.00158 0.0
C948 C 0.00733 0.52435 0.03826 0.0
C949 C 0.99612 0.54247 0.04649 0.0
C950 C 0.02024 0.50493 0.04477 0.0
C951 C 0.03506 0.48748 0.03672 0.0
C952 C 0.0615 0.5059 0.02709 0.0
C953 C 0.07529 0.48932 0.01951 0.0
C954 C 0.06304 0.45436 0.02153 0.0
C955 C 0.03701 0.43591 0.03117 0.0
C956 C 0.0231 0.45236 0.03877 0.0
H957 H 0.07376 0.44157 0.01565 0.0
H958 H 0.9496 0.6094 0.09063 0.0
H959 H 0.54693 0.99847 0.44462 0.0
H960 H 0.54872 0.00167 0.4194 0.0
H961 H 0.46966 0.02874 0.41962 0.0
H962 H 0.46738 0.02529 0.44492 0.0
H963 H 0.459 0.98127 0.39957 0.0
H964 H 0.55141 0.08989 0.4149 0.0
H965 H 0.60355 0.1278 0.42819 0.0
H966 H 0.65798 0.08575 0.40721 0.0
H967 H 0.606 0.04721 0.39394 0.0
H968 H 0.48261 0.04347 0.33024 0.0
H969 H 0.477 0.03677 0.35541 0.0
H970 H 0.56106 0.0169 0.35647 0.0
H971 H 0.56694 0.02385 0.33132 0.0
H972 H 0.56852 0.06081 0.37601 0.0
H973 H 0.47695 0.95222 0.36068 0.0
H974 H 0.42486 0.91309 0.34762 0.0
H975 H 0.36901 0.9536 0.36858 0.0
H976 H 0.42091 0.99333 0.38163 0.0
C977 C 0.52983 0.00502 0.43935 0.0
C978 C 0.50719 0.01187 0.44684 0.0
C979 C 0.53096 0.00693 0.42491 0.0
C980 C 0.50963 0.01587 0.41765 0.0
C981 C 0.4864 0.0219 0.42504 0.0
C982 C 0.48527 0.02004 0.4395 0.0
C983 C 0.51204 0.01949 0.40237 0.0
C984 C 0.4828 0.99898 0.3944 0.0
C985 C 0.54332 0.04203 0.39565 0.0
C986 C 0.57472 0.06544 0.40352 0.0
C987 C 0.57443 0.08855 0.41319 0.0
C988 C 0.60396 0.11018 0.42071 0.0
C989 C 0.63403 0.10912 0.41857 0.0
C990 C 0.63465 0.08651 0.40887 0.0
C991 C 0.60517 0.06479 0.40134 0.0
C992 C 0.49965 0.03732 0.33583 0.0
C993 C 0.52521 0.03418 0.3288 0.0
C994 C 0.49641 0.03348 0.35021 0.0
C995 C 0.51839 0.02598 0.35783 0.0
C996 C 0.54386 0.02275 0.35082 0.0
C997 C 0.54725 0.0268 0.33645 0.0
C998 C 0.51549 0.02245 0.37314 0.0
C999 C 0.54467 0.04305 0.38114 0.0
C1000 C 0.48418 0.99989 0.37986 0.0
C1001 C 0.45292 0.976 0.37203 0.0
C1002 C 0.45364 0.95299 0.36242 0.0
C1003 C 0.42413 0.93066 0.35504 0.0
C1004 C 0.39367 0.93093 0.35724 0.0
C1005 C 0.39264 0.95346 0.36687 0.0
C1006 C 0.42208 0.97587 0.37427 0.0
H1007 H 0.37086 0.91361 0.35152 0.0
H1008 H 0.65686 0.12588 0.42441 0.0
H1009 H 0.46143 0.47222 0.77925 0.0
H1010 H 0.46298 0.47611 0.75397 0.0
H1011 H 0.56203 0.56799 0.75583 0.0
H1012 H 0.56084 0.56429 0.78113 0.0
H1013 H 0.51606 0.5733 0.73789 0.0
H1014 H 0.55856 0.49643 0.74695 0.0
H1015 H 0.55696 0.4455 0.75722 0.0
H1016 H 0.46355 0.37993 0.73551 0.0
H1017 H 0.46432 0.43054 0.72527 0.0
H1018 H 0.56269 0.5861 0.66738 0.0
H1019 H 0.56151 0.58086 0.69259 0.0
H1020 H 0.46767 0.48349 0.69009 0.0
H1021 H 0.46875 0.48854 0.66482 0.0
H1022 H 0.5104 0.48051 0.70849 0.0
H1023 H 0.46681 0.55587 0.69948 0.0
H1024 H 0.46656 0.60606 0.6894 0.0
H1025 H 0.55933 0.67347 0.71113 0.0
H1026 H 0.56041 0.62364 0.72119 0.0
C1027 C 0.48355 0.4933 0.7743 0.0
C1028 C 0.51105 0.51792 0.78222 0.0
C1029 C 0.48444 0.49538 0.75985 0.0
C1030 C 0.51272 0.5222 0.75305 0.0
C1031 C 0.54 0.54707 0.7609 0.0
C1032 C 0.53931 0.54483 0.77535 0.0
C1033 C 0.51372 0.52443 0.73773 0.0
C1034 C 0.51531 0.55326 0.73144 0.0
C1035 C 0.51175 0.49778 0.72938 0.0
C1036 C 0.51132 0.4673 0.73546 0.0
C1037 C 0.53752 0.47117 0.74446 0.0
C1038 C 0.53679 0.44236 0.75026 0.0
C1039 C 0.51012 0.4095 0.74705 0.0
C1040 C 0.48417 0.4054 0.738 0.0
C1041 C 0.48475 0.43414 0.73219 0.0
C1042 C 0.54168 0.56367 0.6722 0.0
C1043 C 0.51567 0.53785 0.66411 0.0
C1044 C 0.54106 0.56069 0.68661 0.0
C1045 C 0.51423 0.53201 0.69324 0.0
C1046 C 0.4886 0.50585 0.68519 0.0
C1047 C 0.48929 0.50874 0.67075 0.0
C1048 C 0.51288 0.5295 0.70859 0.0
C1049 C 0.51117 0.50058 0.71491 0.0
C1050 C 0.51447 0.55597 0.71698 0.0
C1051 C 0.51387 0.58601 0.71098 0.0
C1052 C 0.48731 0.58139 0.70203 0.0
C1053 C 0.48699 0.60977 0.69633 0.0
C1054 C 0.51296 0.64293 0.69959 0.0
C1055 C 0.53926 0.64777 0.70859 0.0
C1056 C 0.53972 0.61947 0.7143 0.0
H1057 H 0.51267 0.66488 0.69518 0.0
H1058 H 0.5096 0.38722 0.75155 0.0
H1059 H 0.51128 0.95179 0.55328 0.0
H1060 H 0.51332 0.94706 0.57845 0.0
H1061 H 0.49853 0.03407 0.58315 0.0
H1062 H 0.49969 0.04055 0.55794 0.0
H1063 H 0.54046 0.03988 0.60106 0.0
H1064 H 0.43135 0.94233 0.58824 0.0
H1065 H 0.39398 0.8898 0.57503 0.0
H1066 H 0.44803 0.84175 0.59145 0.0
H1067 H 0.4858 0.89406 0.60471 0.0
H1068 H 0.48524 0.00906 0.67126 0.0
H1069 H 0.48563 0.01305 0.646 0.0
H1070 H 0.5244 0.94322 0.64315 0.0
H1071 H 0.52497 0.9397 0.66839 0.0
H1072 H 0.471 0.92778 0.62471 0.0
H1073 H 0.57789 0.02588 0.63848 0.0
H1074 H 0.61418 0.07883 0.6516 0.0
H1075 H 0.56151 0.12627 0.63327 0.0
H1076 H 0.52457 0.07341 0.62018 0.0
C1077 C 0.50849 0.96983 0.55975 0.0
C1078 C 0.5051 0.99638 0.55378 0.0
C1079 C 0.50933 0.96697 0.57414 0.0
C1080 C 0.50508 0.98959 0.58283 0.0
C1081 C 0.50178 0.01621 0.57676 0.0
C1082 C 0.50228 0.01985 0.56237 0.0
C1083 C 0.50459 0.98599 0.5982 0.0
C1084 C 0.52477 0.0154 0.60618 0.0
C1085 C 0.48487 0.95396 0.60501 0.0
C1086 C 0.4615 0.92215 0.59739 0.0
C1087 C 0.43525 0.92055 0.58902 0.0
C1088 C 0.41401 0.89083 0.58153 0.0
C1089 C 0.41866 0.86248 0.58239 0.0
C1090 C 0.44444 0.86372 0.59081 0.0
C1091 C 0.4657 0.89335 0.59834 0.0
C1092 C 0.49419 0.99479 0.66529 0.0
C1093 C 0.50522 0.97416 0.6719 0.0
C1094 C 0.49423 0.99699 0.65085 0.0
C1095 C 0.50526 0.9786 0.64272 0.0
C1096 C 0.51569 0.95752 0.64924 0.0
C1097 C 0.51585 0.95546 0.66368 0.0
C1098 C 0.50631 0.9817 0.62741 0.0
C1099 C 0.48641 0.9522 0.6195 0.0
C1100 C 0.52588 0.01368 0.62067 0.0
C1101 C 0.54826 0.04557 0.62845 0.0
C1102 C 0.57387 0.04751 0.63732 0.0
C1103 C 0.59459 0.07752 0.64474 0.0
C1104 C 0.59009 0.10587 0.6433 0.0
C1105 C 0.56493 0.10428 0.63439 0.0
C1106 C 0.54412 0.07432 0.62696 0.0
H1107 H 0.60616 0.12908 0.64905 0.0
H1108 H 0.40227 0.83954 0.57654 0.0
H1109 H 0.52673 0.55496 0.89246 0.0
H1110 H 0.52961 0.55251 0.91775 0.0
H1111 H 0.4975 0.44504 0.91556 0.0
H1112 H 0.49538 0.4474 0.89023 0.0
H1113 H 0.46141 0.46709 0.93604 0.0
H1114 H 0.57336 0.48952 0.92115 0.0
H1115 H 0.6276 0.52149 0.90821 0.0
H1116 H 0.65099 0.61345 0.93011 0.0
H1117 H 0.59658 0.5821 0.94303 0.0
H1118 H 0.49436 0.4359 0.00459 0.0
H1119 H 0.49041 0.43866 0.97942 0.0
H1120 H 0.55284 0.54897 0.98084 0.0
H1121 H 0.55741 0.54622 0.00601 0.0
H1122 H 0.57315 0.52639 0.96041 0.0
H1123 H 0.4646 0.50735 0.97561 0.0
H1124 H 0.4097 0.47909 0.98826 0.0
H1125 H 0.37858 0.38594 0.96584 0.0
H1126 H 0.43353 0.4135 0.95318 0.0
C1127 C 0.52022 0.53079 0.89736 0.0
C1128 C 0.51091 0.50138 0.88937 0.0
C1129 C 0.52194 0.52947 0.91179 0.0
C1130 C 0.51379 0.49861 0.91846 0.0
C1131 C 0.50385 0.46906 0.91056 0.0
C1132 C 0.50281 0.47051 0.89611 0.0
C1133 C 0.51611 0.49734 0.9337 0.0
C1134 C 0.4858 0.47962 0.94141 0.0
C1135 C 0.54791 0.51473 0.94062 0.0
C1136 C 0.58072 0.53355 0.93293 0.0
C1137 C 0.5899 0.51663 0.9231 0.0
C1138 C 0.62071 0.53462 0.91579 0.0
C1139 C 0.64268 0.56951 0.9183 0.0
C1140 C 0.63392 0.58644 0.92816 0.0
C1141 C 0.60311 0.56857 0.93548 0.0
C1142 C 0.50703 0.46074 0.99953 0.0
C1143 C 0.52612 0.49085 0.00727 0.0
C1144 C 0.50471 0.46231 0.98515 0.0
C1145 C 0.52092 0.49407 0.97822 0.0
C1146 C 0.54013 0.52416 0.98593 0.0
C1147 C 0.54276 0.52257 0.00031 0.0
C1148 C 0.51834 0.49585 0.96292 0.0
C1149 C 0.54864 0.51377 0.95514 0.0
C1150 C 0.48642 0.47912 0.95595 0.0
C1151 C 0.45335 0.4624 0.96355 0.0
C1152 C 0.44618 0.48075 0.97346 0.0
C1153 C 0.41503 0.46488 0.98061 0.0
C1154 C 0.39071 0.43071 0.97788 0.0
C1155 C 0.39746 0.41238 0.96796 0.0
C1156 C 0.4286 0.42813 0.96078 0.0
H1157 H 0.3666 0.41847 0.98343 0.0
H1158 H 0.66652 0.58339 0.91263 0.0
H1159 H 0.01665 0.46374 0.22084 0.0
H1160 H 0.01351 0.46035 0.24612 0.0
H1161 H 0.9934 0.54426 0.24717 0.0
H1162 H 0.99671 0.54806 0.22193 0.0
H1163 H 0.03991 0.5509 0.26685 0.0
H1164 H 0.92884 0.46364 0.25118 0.0
H1165 H 0.88857 0.41279 0.23774 0.0
H1166 H 0.92495 0.35269 0.25837 0.0
H1167 H 0.96581 0.40334 0.27181 0.0
H1168 H 0.97654 0.53067 0.3356 0.0
H1169 H 0.98377 0.53566 0.31044 0.0
H1170 H 0.99663 0.44707 0.31 0.0
H1171 H 0.98915 0.44181 0.33514 0.0
H1172 H 0.95489 0.44273 0.28993 0.0
H1173 H 0.06522 0.52935 0.30597 0.0
H1174 H 0.10599 0.58015 0.31931 0.0
H1175 H 0.07192 0.64137 0.29801 0.0
H1176 H 0.03059 0.5908 0.28467 0.0
C1177 C 0.0117 0.48159 0.22643 0.0
C1178 C 0.00677 0.50606 0.21932 0.0
C1179 C 0.0098 0.47952 0.24089 0.0
C1180 C 0.00287 0.50183 0.24851 0.0
C1181 C 0.99872 0.52678 0.24148 0.0
C1182 C 0.0005 0.5288 0.22704 0.0
C1183 C 0.9994 0.49884 0.26381 0.0
C1184 C 0.02108 0.52739 0.27191 0.0
C1185 C 0.97534 0.46791 0.27039 0.0
C1186 C 0.95063 0.43737 0.26239 0.0
C1187 C 0.92844 0.43965 0.25277 0.0
C1188 C 0.90548 0.41085 0.24517 0.0
C1189 C 0.90427 0.37955 0.24717 0.0
C1190 C 0.92595 0.37696 0.25682 0.0
C1191 C 0.949 0.4057 0.26444 0.0
C1192 C 0.98124 0.51246 0.33015 0.0
C1193 C 0.98232 0.48587 0.33736 0.0
C1194 C 0.98537 0.51534 0.31577 0.0
C1195 C 0.99114 0.49197 0.30833 0.0
C1196 C 0.99216 0.46537 0.31551 0.0
C1197 C 0.98781 0.46235 0.32987 0.0
C1198 C 0.99543 0.49483 0.29304 0.0
C1199 C 0.97385 0.46624 0.28491 0.0
C1200 C 0.01966 0.52571 0.28644 0.0
C1201 C 0.04458 0.5562 0.29441 0.0
C1202 C 0.06623 0.55358 0.30421 0.0
C1203 C 0.08948 0.58235 0.31176 0.0
C1204 C 0.09149 0.61395 0.30953 0.0
C1205 C 0.07031 0.61687 0.29973 0.0
C1206 C 0.04699 0.58817 0.29216 0.0
H1207 H 0.1095 0.63619 0.31539 0.0
H1208 H 0.88648 0.35729 0.24127 0.0
loop_
_geom_bond_atom_site_label_1
_geom_bond_atom_site_label_2
_geom_bond_distance
_geom_bond_site_symmetry_2
_ccdc_geom_bond_type
O0 Zn1 1.953 . S
O0 C16 1.225 1_655 S
Zn1 O0 1.953 . S
Zn1 O2 1.949 1_655 S
Zn1 O8 1.919 . S
Zn1 O13 1.924 1_655 S
O2 Zn1 1.949 1_455 S
O2 Zn3 1.923 1_455 S
O2 Zn4 1.950 . S
O2 Zn5 1.945 . S
Zn3 O2 1.923 1_655 S
Zn3 O6 1.933 . S
Zn3 O9 1.941 . S
Zn3 O10 1.965 . S
Zn4 O2 1.950 . S
Zn4 O11 1.938 1_455 S
Zn4 O12 1.906 . S
Zn4 O22 1.953 . S
Zn5 O2 1.945 . S
Zn5 O7 1.932 . S
Zn5 O14 1.977 . S
Zn5 O15 1.910 . S
O6 Zn3 1.933 . S
O6 C17 1.226 1_655 S
O7 Zn5 1.932 . S
O7 C17 1.307 . S
O8 Zn1 1.919 . S
O8 C19 1.253 . S
O9 Zn3 1.941 . S
O9 C19 1.283 . S
O10 Zn3 1.965 . S
O10 C18 1.303 . S
O11 Zn4 1.938 1_655 S
O11 C18 1.247 . S
O12 Zn4 1.906 . S
O12 C20 1.304 . S
O13 Zn1 1.924 1_455 S
O13 C21 1.311 . S
O14 Zn5 1.977 . S
O14 C20 1.272 . S
O15 Zn5 1.910 . S
O15 C21 1.231 . S
C16 O0 1.225 1_455 S
C16 O22 1.298 . S
C17 O6 1.226 1_455 S
C17 O7 1.307 . S
C18 O10 1.303 . S
C18 O11 1.247 . S
C19 O8 1.253 . S
C19 O9 1.283 . S
C20 O12 1.304 . S
C20 O14 1.272 . S
C21 O13 1.311 . S
C21 O15 1.231 . S
O22 Zn4 1.953 . S
O22 C16 1.298 . S
O23 Zn24 1.953 . S
O23 C39 1.225 . S
Zn24 O23 1.953 . S
Zn24 O25 1.949 . S
Zn24 O31 1.919 . S
Zn24 O36 1.924 1_545 S
O25 Zn24 1.949 . S
O25 Zn26 1.923 . S
O25 Zn27 1.950 1_545 S
O25 Zn28 1.945 1_545 S
Zn26 O25 1.923 . S
Zn26 O29 1.933 . S
Zn26 O32 1.941 . S
Zn26 O33 1.965 . S
Zn27 O25 1.950 1_565 S
Zn27 O34 1.938 1_565 S
Zn27 O35 1.906 . S
Zn27 O45 1.953 . S
Zn28 O25 1.945 1_565 S
Zn28 O30 1.932 . S
Zn28 O37 1.977 . S
Zn28 O38 1.910 . S
O29 Zn26 1.933 . S
O29 C40 1.226 . S
O30 Zn28 1.932 . S
O30 C40 1.307 1_565 S
O31 Zn24 1.919 . S
O31 C42 1.253 . S
O32 Zn26 1.941 . S
O32 C42 1.283 . S
O33 Zn26 1.965 . S
O33 C41 1.303 . S
O34 Zn27 1.938 1_545 S
O34 C41 1.247 . S
O35 Zn27 1.906 . S
O35 C43 1.304 . S
O36 Zn24 1.924 1_565 S
O36 C44 1.311 . S
O37 Zn28 1.977 . S
O37 C43 1.272 . S
O38 Zn28 1.910 . S
O38 C44 1.231 . S
C39 O23 1.225 . S
C39 O45 1.298 1_545 S
C40 O29 1.226 . S
C40 O30 1.307 1_545 S
C41 O33 1.303 . S
C41 O34 1.247 . S
C42 O31 1.253 . S
C42 O32 1.283 . S
C43 O35 1.304 . S
C43 O37 1.272 . S
C44 O36 1.311 . S
C44 O38 1.231 . S
O45 Zn27 1.953 . S
O45 C39 1.298 1_565 S
O46 Zn47 1.953 . S
O46 C62 1.225 . S
Zn47 O46 1.953 . S
Zn47 O48 1.949 . S
Zn47 O54 1.919 . S
Zn47 O59 1.924 . S
O48 Zn47 1.949 . S
O48 Zn49 1.923 . S
O48 Zn50 1.950 . S
O48 Zn51 1.945 . S
Zn49 O48 1.923 . S
Zn49 O52 1.933 . S
Zn49 O55 1.941 . S
Zn49 O56 1.965 . S
Zn50 O48 1.950 . S
Zn50 O57 1.938 . S
Zn50 O58 1.906 . S
Zn50 O68 1.953 . S
Zn51 O48 1.945 . S
Zn51 O53 1.932 . S
Zn51 O60 1.977 . S
Zn51 O61 1.910 . S
O52 Zn49 1.933 . S
O52 C63 1.226 . S
O53 Zn51 1.932 . S
O53 C63 1.307 . S
O54 Zn47 1.919 . S
O54 C65 1.253 . S
O55 Zn49 1.941 . S
O55 C65 1.283 . S
O56 Zn49 1.965 . S
O56 C64 1.303 . S
O57 Zn50 1.938 . S
O57 C64 1.247 . S
O58 Zn50 1.906 . S
O58 C66 1.304 . S
O59 Zn47 1.924 . S
O59 C67 1.311 . S
O60 Zn51 1.977 . S
O60 C66 1.272 . S
O61 Zn51 1.910 . S
O61 C67 1.231 . S
C62 O46 1.225 . S
C62 O68 1.298 . S
C63 O52 1.226 . S
C63 O53 1.307 . S
C64 O56 1.303 . S
C64 O57 1.247 . S
C65 O54 1.253 . S
C65 O55 1.283 . S
C66 O58 1.304 . S
C66 O60 1.272 . S
C67 O59 1.311 . S
C67 O61 1.231 . S
O68 Zn50 1.953 . S
O68 C62 1.298 . S
C69 C70 1.264 . S
C69 C74 1.479 . S
C69 C79 1.465 . S
C70 C69 1.264 . S
C70 C72 1.339 . S
C70 H97 0.931 . S
C71 C72 1.395 . S
C71 C73 1.320 . S
C72 C70 1.339 . S
C72 C71 1.395 . S
C72 H98 0.929 . S
C73 C71 1.320 . S
C73 C74 1.405 . S
C73 H99 0.930 . S
C74 C69 1.479 . S
C74 C73 1.405 . S
C74 H100 0.931 . S
U75 O76 2.454 1_545 S
U75 O77 2.458 1_545 S
U75 C78 2.984 1_545 S
U75 C79 2.847 . S
U75 C92 2.882 . S
U75 O93 2.441 . S
U75 O94 2.420 . S
U75 O95 2.455 1_545 S
U75 O96 2.449 . S
O76 U75 2.454 1_565 S
O76 C78 1.353 . S
O77 U75 2.458 1_565 S
O77 C78 1.286 . S
C78 U75 2.984 1_565 S
C78 O76 1.353 . S
C78 O77 1.286 . S
C78 C80 1.363 . S
C79 C69 1.465 . S
C79 U75 2.847 . S
C79 O93 1.249 . S
C79 O94 1.202 . S
C80 C78 1.363 . S
C80 C82 1.408 . S
C80 C85 1.342 . S
C81 C82 1.310 . S
C81 C84 1.461 . S
C81 H101 0.932 . S
C82 C80 1.408 . S
C82 C81 1.310 . S
C82 H102 0.930 . S
C83 C84 1.474 . S
C83 C85 1.285 . S
C83 H103 0.929 . S
C84 C81 1.461 . S
C84 C83 1.474 . S
C85 C80 1.342 . S
C85 C83 1.285 . S
C85 H104 0.930 . S
C86 C89 1.424 . S
C86 C91 1.245 1_545 S
C86 C92 1.428 . S
C87 C90 1.260 1_565 S
C87 C91 1.477 . S
C87 H105 0.932 . S
C88 C89 1.384 . S
C88 C90 1.479 . S
C88 H106 0.929 . S
C89 C86 1.424 . S
C89 C88 1.384 . S
C89 H107 0.928 . S
C90 C87 1.260 1_545 S
C90 C88 1.479 . S
C91 C86 1.245 1_565 S
C91 C87 1.477 . S
C91 H108 0.932 . S
C92 U75 2.882 . S
C92 C86 1.428 . S
C92 O95 1.301 1_545 S
C92 O96 1.282 . S
O93 U75 2.441 . S
O93 C79 1.249 . S
O94 U75 2.420 . S
O94 C79 1.202 . S
O95 U75 2.455 1_565 S
O95 C92 1.301 1_565 S
O96 U75 2.449 . S
O96 C92 1.282 . S
H97 C70 0.931 . S
H98 C72 0.929 . S
H99 C73 0.930 . S
H100 C74 0.931 . S
H101 C81 0.932 . S
H102 C82 0.930 . S
H103 C83 0.929 . S
H104 C85 0.930 . S
H105 C87 0.932 . S
H106 C88 0.929 . S
H107 C89 0.928 . S
H108 C91 0.932 . S
C109 C110 1.264 . S
C109 C114 1.479 . S
C109 C119 1.465 . S
C110 C109 1.264 . S
C110 C112 1.339 . S
C110 H137 0.931 . S
C111 C112 1.395 . S
C111 C113 1.320 . S
C112 C110 1.339 . S
C112 C111 1.395 . S
C112 H138 0.929 . S
C113 C111 1.320 . S
C113 C114 1.405 . S
C113 H139 0.930 . S
C114 C109 1.479 . S
C114 C113 1.405 . S
C114 H140 0.931 . S
U115 O116 2.454 . S
U115 O117 2.458 . S
U115 C118 2.984 . S
U115 C119 2.847 . S
U115 C132 2.882 . S
U115 O133 2.441 . S
U115 O134 2.420 . S
U115 O135 2.455 . S
U115 O136 2.449 . S
O116 U115 2.454 . S
O116 C118 1.353 . S
O117 U115 2.458 . S
O117 C118 1.286 . S
C118 U115 2.984 . S
C118 O116 1.353 . S
C118 O117 1.286 . S
C118 C120 1.363 . S
C119 C109 1.465 . S
C119 U115 2.847 . S
C119 O133 1.249 . S
C119 O134 1.202 . S
C120 C118 1.363 . S
C120 C122 1.408 . S
C120 C125 1.342 . S
C121 C122 1.310 . S
C121 C124 1.461 . S
C121 H141 0.932 . S
C122 C120 1.408 . S
C122 C121 1.310 . S
C122 H142 0.930 . S
C123 C124 1.474 . S
C123 C125 1.285 . S
C123 H143 0.929 . S
C124 C121 1.461 . S
C124 C123 1.474 . S
C125 C120 1.342 . S
C125 C123 1.285 . S
C125 H144 0.930 . S
C126 C129 1.424 . S
C126 C131 1.245 . S
C126 C132 1.428 . S
C127 C130 1.260 . S
C127 C131 1.477 . S
C127 H145 0.932 . S
C128 C129 1.384 . S
C128 C130 1.479 . S
C128 H146 0.929 . S
C129 C126 1.424 . S
C129 C128 1.384 . S
C129 H147 0.928 . S
C130 C127 1.260 . S
C130 C128 1.479 . S
C131 C126 1.245 . S
C131 C127 1.477 . S
C131 H148 0.932 . S
C132 U115 2.882 . S
C132 C126 1.428 . S
C132 O135 1.301 . S
C132 O136 1.282 . S
O133 U115 2.441 . S
O133 C119 1.249 . S
O134 U115 2.420 . S
O134 C119 1.202 . S
O135 U115 2.455 . S
O135 C132 1.301 . S
O136 U115 2.449 . S
O136 C132 1.282 . S
H137 C110 0.931 . S
H138 C112 0.929 . S
H139 C113 0.930 . S
H140 C114 0.931 . S
H141 C121 0.932 . S
H142 C122 0.930 . S
H143 C123 0.929 . S
H144 C125 0.930 . S
H145 C127 0.932 . S
H146 C128 0.929 . S
H147 C129 0.928 . S
H148 C131 0.932 . S
C149 C150 1.264 . S
C149 C154 1.479 . S
C149 C159 1.465 . S
C150 C149 1.264 . S
C150 C152 1.339 . S
C150 H177 0.931 . S
C151 C152 1.395 . S
C151 C153 1.320 . S
C152 C150 1.339 . S
C152 C151 1.395 . S
C152 H178 0.929 . S
C153 C151 1.320 . S
C153 C154 1.405 . S
C153 H179 0.930 . S
C154 C149 1.479 . S
C154 C153 1.405 . S
C154 H180 0.931 . S
U155 O156 2.454 . S
U155 O157 2.458 . S
U155 C158 2.984 . S
U155 C159 2.847 1_455 S
U155 C172 2.882 . S
U155 O173 2.441 1_455 S
U155 O174 2.420 1_455 S
U155 O175 2.455 . S
U155 O176 2.449 1_455 S
O156 U155 2.454 . S
O156 C158 1.353 . S
O157 U155 2.458 . S
O157 C158 1.286 . S
C158 U155 2.984 . S
C158 O156 1.353 . S
C158 O157 1.286 . S
C158 C160 1.363 . S
C159 C149 1.465 . S
C159 U155 2.847 1_655 S
C159 O173 1.249 . S
C159 O174 1.202 . S
C160 C158 1.363 . S
C160 C162 1.408 . S
C160 C165 1.342 . S
C161 C162 1.310 . S
C161 C164 1.461 . S
C161 H181 0.932 . S
C162 C160 1.408 . S
C162 C161 1.310 . S
C162 H182 0.930 . S
C163 C164 1.474 . S
C163 C165 1.285 . S
C163 H183 0.929 . S
C164 C161 1.461 . S
C164 C163 1.474 . S
C165 C160 1.342 . S
C165 C163 1.285 . S
C165 H184 0.930 . S
C166 C169 1.424 1_455 S
C166 C171 1.245 . S
C166 C172 1.428 . S
C167 C170 1.260 . S
C167 C171 1.477 . S
C167 H185 0.932 . S
C168 C169 1.384 . S
C168 C170 1.479 1_655 S
C168 H186 0.929 . S
C169 C166 1.424 1_655 S
C169 C168 1.384 . S
C169 H187 0.928 . S
C170 C167 1.260 . S
C170 C168 1.479 1_455 S
C171 C166 1.245 . S
C171 C167 1.477 . S
C171 H188 0.932 . S
C172 U155 2.882 . S
C172 C166 1.428 . S
C172 O175 1.301 . S
C172 O176 1.282 1_455 S
O173 U155 2.441 1_655 S
O173 C159 1.249 . S
O174 U155 2.420 1_655 S
O174 C159 1.202 . S
O175 U155 2.455 . S
O175 C172 1.301 . S
O176 U155 2.449 1_655 S
O176 C172 1.282 1_655 S
H177 C150 0.931 . S
H178 C152 0.929 . S
H179 C153 0.930 . S
H180 C154 0.931 . S
H181 C161 0.932 . S
H182 C162 0.930 . S
H183 C163 0.929 . S
H184 C165 0.930 . S
H185 C167 0.932 . S
H186 C168 0.929 . S
H187 C169 0.928 . S
H188 C171 0.932 . S
C189 C190 1.264 . S
C189 C194 1.479 . S
C189 C199 1.465 . S
C190 C189 1.264 . S
C190 C192 1.339 . S
C190 H217 0.931 . S
C191 C192 1.395 . S
C191 C193 1.320 . S
C192 C190 1.339 . S
C192 C191 1.395 . S
C192 H218 0.929 . S
C193 C191 1.320 . S
C193 C194 1.405 . S
C193 H219 0.930 . S
C194 C189 1.479 . S
C194 C193 1.405 . S
C194 H220 0.931 . S
U195 O196 2.454 1_655 S
U195 O197 2.458 1_655 S
U195 C198 2.984 1_655 S
U195 C199 2.847 . S
U195 C212 2.882 . S
U195 O213 2.441 . S
U195 O214 2.420 . S
U195 O215 2.455 1_655 S
U195 O216 2.449 . S
O196 U195 2.454 1_455 S
O196 C198 1.353 . S
O197 U195 2.458 1_455 S
O197 C198 1.286 . S
C198 U195 2.984 1_455 S
C198 O196 1.353 . S
C198 O197 1.286 . S
C198 C200 1.363 . S
C199 C189 1.465 . S
C199 U195 2.847 . S
C199 O213 1.249 . S
C199 O214 1.202 . S
C200 C198 1.363 . S
C200 C202 1.408 . S
C200 C205 1.342 . S
C201 C202 1.310 . S
C201 C204 1.461 . S
C201 H221 0.932 . S
C202 C200 1.408 . S
C202 C201 1.310 . S
C202 H222 0.930 . S
C203 C204 1.474 . S
C203 C205 1.285 . S
C203 H223 0.929 . S
C204 C201 1.461 . S
C204 C203 1.474 . S
C205 C200 1.342 . S
C205 C203 1.285 . S
C205 H224 0.930 . S
C206 C209 1.424 . S
C206 C211 1.245 1_655 S
C206 C212 1.428 . S
C207 C210 1.260 1_455 S
C207 C211 1.477 . S
C207 H225 0.932 . S
C208 C209 1.384 . S
C208 C210 1.479 . S
C208 H226 0.929 . S
C209 C206 1.424 . S
C209 C208 1.384 . S
C209 H227 0.928 . S
C210 C207 1.260 1_655 S
C210 C208 1.479 . S
C211 C206 1.245 1_455 S
C211 C207 1.477 . S
C211 H228 0.932 . S
C212 U195 2.882 . S
C212 C206 1.428 . S
C212 O215 1.301 1_655 S
C212 O216 1.282 . S
O213 U195 2.441 . S
O213 C199 1.249 . S
O214 U195 2.420 . S
O214 C199 1.202 . S
O215 U195 2.455 1_455 S
O215 C212 1.301 1_455 S
O216 U195 2.449 . S
O216 C212 1.282 . S
H217 C190 0.931 . S
H218 C192 0.929 . S
H219 C193 0.930 . S
H220 C194 0.931 . S
H221 C201 0.932 . S
H222 C202 0.930 . S
H223 C203 0.929 . S
H224 C205 0.930 . S
H225 C207 0.932 . S
H226 C208 0.929 . S
H227 C209 0.928 . S
H228 C211 0.932 . S
C229 C230 1.264 . S
C229 C234 1.479 . S
C229 C239 1.465 . S
C230 C229 1.264 . S
C230 C232 1.339 . S
C230 H257 0.931 . S
C231 C232 1.395 . S
C231 C233 1.320 . S
C232 C230 1.339 . S
C232 C231 1.395 . S
C232 H258 0.929 . S
C233 C231 1.320 . S
C233 C234 1.405 . S
C233 H259 0.930 . S
C234 C229 1.479 . S
C234 C233 1.405 . S
C234 H260 0.931 . S
U235 O236 2.454 1_565 S
U235 O237 2.458 1_565 S
U235 C238 2.984 1_565 S
U235 C239 2.847 . S
U235 C252 2.882 . S
U235 O253 2.441 . S
U235 O254 2.420 . S
U235 O255 2.455 1_565 S
U235 O256 2.449 . S
O236 U235 2.454 1_545 S
O236 C238 1.353 . S
O237 U235 2.458 1_545 S
O237 C238 1.286 . S
C238 U235 2.984 1_545 S
C238 O236 1.353 . S
C238 O237 1.286 . S
C238 C240 1.363 . S
C239 C229 1.465 . S
C239 U235 2.847 . S
C239 O253 1.249 . S
C239 O254 1.202 . S
C240 C238 1.363 . S
C240 C242 1.408 . S
C240 C245 1.342 . S
C241 C242 1.310 . S
C241 C244 1.461 . S
C241 H261 0.932 . S
C242 C240 1.408 . S
C242 C241 1.310 . S
C242 H262 0.930 . S
C243 C244 1.474 . S
C243 C245 1.285 . S
C243 H263 0.929 . S
C244 C241 1.461 . S
C244 C243 1.474 . S
C245 C240 1.342 . S
C245 C243 1.285 . S
C245 H264 0.930 . S
C246 C249 1.424 . S
C246 C251 1.245 1_565 S
C246 C252 1.428 . S
C247 C250 1.260 1_545 S
C247 C251 1.477 . S
C247 H265 0.932 . S
C248 C249 1.384 . S
C248 C250 1.479 . S
C248 H266 0.929 . S
C249 C246 1.424 . S
C249 C248 1.384 . S
C249 H267 0.928 . S
C250 C247 1.260 1_565 S
C250 C248 1.479 . S
C251 C246 1.245 1_545 S
C251 C247 1.477 . S
C251 H268 0.932 . S
C252 U235 2.882 . S
C252 C246 1.428 . S
C252 O255 1.301 1_565 S
C252 O256 1.282 . S
O253 U235 2.441 . S
O253 C239 1.249 . S
O254 U235 2.420 . S
O254 C239 1.202 . S
O255 U235 2.455 1_545 S
O255 C252 1.301 1_545 S
O256 U235 2.449 . S
O256 C252 1.282 . S
H257 C230 0.931 . S
H258 C232 0.929 . S
H259 C233 0.930 . S
H260 C234 0.931 . S
H261 C241 0.932 . S
H262 C242 0.930 . S
H263 C243 0.929 . S
H264 C245 0.930 . S
H265 C247 0.932 . S
H266 C248 0.929 . S
H267 C249 0.928 . S
H268 C251 0.932 . S
C269 C270 1.264 . S
C269 C274 1.479 . S
C269 C279 1.465 . S
C270 C269 1.264 . S
C270 C272 1.339 . S
C270 H297 0.931 . S
C271 C272 1.395 . S
C271 C273 1.320 . S
C272 C270 1.339 . S
C272 C271 1.395 . S
C272 H298 0.929 . S
C273 C271 1.320 . S
C273 C274 1.405 . S
C273 H299 0.930 . S
C274 C269 1.479 . S
C274 C273 1.405 . S
C274 H300 0.931 . S
U275 O276 2.454 . S
U275 O277 2.458 . S
U275 C278 2.984 . S
U275 C279 2.847 . S
U275 C292 2.882 . S
U275 O293 2.441 . S
U275 O294 2.420 . S
U275 O295 2.455 . S
U275 O296 2.449 . S
O276 U275 2.454 . S
O276 C278 1.353 . S
O277 U275 2.458 . S
O277 C278 1.286 . S
C278 U275 2.984 . S
C278 O276 1.353 . S
C278 O277 1.286 . S
C278 C280 1.363 . S
C279 C269 1.465 . S
C279 U275 2.847 . S
C279 O293 1.249 . S
C279 O294 1.202 . S
C280 C278 1.363 . S
C280 C282 1.408 . S
C280 C285 1.342 . S
C281 C282 1.310 . S
C281 C284 1.461 . S
C281 H301 0.932 . S
C282 C280 1.408 . S
C282 C281 1.310 . S
C282 H302 0.930 . S
C283 C284 1.474 . S
C283 C285 1.285 . S
C283 H303 0.929 . S
C284 C281 1.461 . S
C284 C283 1.474 . S
C285 C280 1.342 . S
C285 C283 1.285 . S
C285 H304 0.930 . S
C286 C289 1.424 . S
C286 C291 1.245 . S
C286 C292 1.428 . S
C287 C290 1.260 . S
C287 C291 1.477 . S
C287 H305 0.932 . S
C288 C289 1.384 . S
C288 C290 1.479 . S
C288 H306 0.929 . S
C289 C286 1.424 . S
C289 C288 1.384 . S
C289 H307 0.928 . S
C290 C287 1.260 . S
C290 C288 1.479 . S
C291 C286 1.245 . S
C291 C287 1.477 . S
C291 H308 0.932 . S
C292 U275 2.882 . S
C292 C286 1.428 . S
C292 O295 1.301 . S
C292 O296 1.282 . S
O293 U275 2.441 . S
O293 C279 1.249 . S
O294 U275 2.420 . S
O294 C279 1.202 . S
O295 U275 2.455 . S
O295 C292 1.301 . S
O296 U275 2.449 . S
O296 C292 1.282 . S
H297 C270 0.931 . S
H298 C272 0.929 . S
H299 C273 0.930 . S
H300 C274 0.931 . S
H301 C281 0.932 . S
H302 C282 0.930 . S
H303 C283 0.929 . S
H304 C285 0.930 . S
H305 C287 0.932 . S
H306 C288 0.929 . S
H307 C289 0.928 . S
H308 C291 0.932 . S
H309 C327 0.951 . S
H310 C329 0.951 . S
H311 C331 0.950 . S
H312 C332 0.950 . S
H313 C334 0.950 . S
H314 C337 0.950 . S
H315 C338 0.950 . S
H316 C340 0.950 . S
H317 C341 0.950 . S
H318 C342 0.951 . S
H319 C344 0.951 . S
H320 C346 0.950 . S
H321 C347 0.950 . S
H322 C349 0.950 . S
H323 C352 0.950 . S
H324 C353 0.950 . S
H325 C355 0.950 . S
H326 C356 0.950 . S
C327 H309 0.951 . S
C327 C328 1.366 . S
C327 C329 1.388 . S
C328 C327 1.366 . S
C328 C332 1.385 . S
C329 H310 0.951 . S
C329 C327 1.388 . S
C329 C330 1.366 . S
C330 C329 1.366 . S
C330 C331 1.414 . S
C330 C333 1.499 . S
C331 H311 0.950 . S
C331 C330 1.414 . S
C331 C332 1.374 . S
C332 H312 0.950 . S
C332 C328 1.385 . S
C332 C331 1.374 . S
C333 C330 1.499 . S
C333 C334 1.373 . S
C333 C335 1.389 . S
C334 H313 0.950 . S
C334 C333 1.373 . S
C334 C350 1.377 . S
C335 C333 1.389 . S
C335 C336 1.524 . S
C335 C349 1.377 . S
C336 C335 1.524 . S
C336 C337 1.397 . S
C336 C341 1.363 . S
C337 H314 0.950 . S
C337 C336 1.397 . S
C337 C338 1.334 . S
C338 H315 0.950 . S
C338 C337 1.334 . S
C338 C339 1.287 . S
C339 C338 1.287 . S
C339 C340 1.524 . S
C339 H358 0.913 . S
C340 H316 0.950 . S
C340 C339 1.524 . S
C340 C341 1.415 . S
C341 H317 0.950 . S
C341 C336 1.363 . S
C341 C340 1.415 . S
C342 H318 0.951 . S
C342 C343 1.366 . S
C342 C344 1.388 . S
C343 C342 1.366 . S
C343 C347 1.385 . S
C344 H319 0.951 . S
C344 C342 1.388 . S
C344 C345 1.366 . S
C345 C344 1.366 . S
C345 C346 1.414 . S
C345 C348 1.499 . S
C346 H320 0.950 . S
C346 C345 1.414 . S
C346 C347 1.374 . S
C347 H321 0.950 . S
C347 C343 1.385 . S
C347 C346 1.374 . S
C348 C345 1.499 . S
C348 C349 1.373 . S
C348 C350 1.389 . S
C349 H322 0.950 . S
C349 C335 1.377 . S
C349 C348 1.373 . S
C350 C334 1.377 . S
C350 C348 1.389 . S
C350 C351 1.524 . S
C351 C350 1.524 . S
C351 C352 1.397 . S
C351 C356 1.363 . S
C352 H323 0.950 . S
C352 C351 1.397 . S
C352 C353 1.334 . S
C353 H324 0.950 . S
C353 C352 1.334 . S
C353 C354 1.287 . S
C354 C353 1.287 . S
C354 C355 1.524 . S
C354 H357 0.999 . S
C355 H325 0.950 . S
C355 C354 1.524 . S
C355 C356 1.415 . S
C356 H326 0.950 . S
C356 C351 1.363 . S
C356 C355 1.415 . S
H357 C354 0.999 . S
H358 C339 0.913 . S
H359 C377 0.951 . S
H360 C379 0.951 . S
H361 C381 0.950 . S
H362 C382 0.950 . S
H363 C384 0.950 . S
H364 C387 0.950 . S
H365 C388 0.950 . S
H366 C390 0.950 . S
H367 C391 0.950 . S
H368 C392 0.951 . S
H369 C394 0.951 . S
H370 C396 0.950 . S
H371 C397 0.950 . S
H372 C399 0.950 . S
H373 C402 0.950 . S
H374 C403 0.950 . S
H375 C405 0.950 . S
H376 C406 0.950 . S
C377 H359 0.951 . S
C377 C378 1.366 . S
C377 C379 1.388 . S
C378 C377 1.366 . S
C378 C382 1.385 . S
C379 H360 0.951 . S
C379 C377 1.388 . S
C379 C380 1.366 . S
C380 C379 1.366 . S
C380 C381 1.414 . S
C380 C383 1.499 . S
C381 H361 0.950 . S
C381 C380 1.414 . S
C381 C382 1.374 . S
C382 H362 0.950 . S
C382 C378 1.385 . S
C382 C381 1.374 . S
C383 C380 1.499 . S
C383 C384 1.373 . S
C383 C385 1.389 . S
C384 H363 0.950 . S
C384 C383 1.373 . S
C384 C400 1.377 . S
C385 C383 1.389 . S
C385 C386 1.524 . S
C385 C399 1.377 . S
C386 C385 1.524 . S
C386 C387 1.397 . S
C386 C391 1.363 . S
C387 H364 0.950 . S
C387 C386 1.397 . S
C387 C388 1.334 . S
C388 H365 0.950 . S
C388 C387 1.334 . S
C388 C389 1.287 . S
C389 C388 1.287 . S
C389 C390 1.524 . S
C389 H408 0.913 . S
C390 H366 0.950 . S
C390 C389 1.524 . S
C390 C391 1.415 . S
C391 H367 0.950 . S
C391 C386 1.363 . S
C391 C390 1.415 . S
C392 H368 0.951 . S
C392 C393 1.366 . S
C392 C394 1.388 . S
C393 C392 1.366 . S
C393 C397 1.385 . S
C394 H369 0.951 . S
C394 C392 1.388 . S
C394 C395 1.366 . S
C395 C394 1.366 . S
C395 C396 1.414 . S
C395 C398 1.499 . S
C396 H370 0.950 . S
C396 C395 1.414 . S
C396 C397 1.374 . S
C397 H371 0.950 . S
C397 C393 1.385 . S
C397 C396 1.374 . S
C398 C395 1.499 . S
C398 C399 1.373 . S
C398 C400 1.389 . S
C399 H372 0.950 . S
C399 C385 1.377 . S
C399 C398 1.373 . S
C400 C384 1.377 . S
C400 C398 1.389 . S
C400 C401 1.524 . S
C401 C400 1.524 . S
C401 C402 1.397 . S
C401 C406 1.363 . S
C402 H373 0.950 . S
C402 C401 1.397 . S
C402 C403 1.334 . S
C403 H374 0.950 . S
C403 C402 1.334 . S
C403 C404 1.287 . S
C404 C403 1.287 . S
C404 C405 1.524 . S
C404 H407 0.999 . S
C405 H375 0.950 . S
C405 C404 1.524 . S
C405 C406 1.415 . S
C406 H376 0.950 . S
C406 C401 1.363 . S
C406 C405 1.415 . S
H407 C404 0.999 . S
H408 C389 0.913 . S
H409 C427 0.951 . S
H410 C429 0.951 . S
H411 C431 0.950 . S
H412 C432 0.950 . S
H413 C434 0.950 . S
H414 C437 0.950 . S
H415 C438 0.950 . S
H416 C440 0.950 . S
H417 C441 0.950 . S
H418 C442 0.951 . S
H419 C444 0.951 . S
H420 C446 0.950 . S
H421 C447 0.950 . S
H422 C449 0.950 . S
H423 C452 0.950 . S
H424 C453 0.950 . S
H425 C455 0.950 . S
H426 C456 0.950 . S
C427 H409 0.951 . S
C427 C428 1.366 . S
C427 C429 1.388 . S
C428 C427 1.366 . S
C428 C432 1.385 . S
C429 H410 0.951 . S
C429 C427 1.388 . S
C429 C430 1.366 . S
C430 C429 1.366 . S
C430 C431 1.414 . S
C430 C433 1.499 . S
C431 H411 0.950 . S
C431 C430 1.414 . S
C431 C432 1.374 . S
C432 H412 0.950 . S
C432 C428 1.385 . S
C432 C431 1.374 . S
C433 C430 1.499 . S
C433 C434 1.373 . S
C433 C435 1.389 . S
C434 H413 0.950 . S
C434 C433 1.373 . S
C434 C450 1.377 . S
C435 C433 1.389 . S
C435 C436 1.524 . S
C435 C449 1.377 . S
C436 C435 1.524 . S
C436 C437 1.397 . S
C436 C441 1.363 . S
C437 H414 0.950 . S
C437 C436 1.397 . S
C437 C438 1.334 . S
C438 H415 0.950 . S
C438 C437 1.334 . S
C438 C439 1.287 . S
C439 C438 1.287 . S
C439 C440 1.524 . S
C439 H458 0.913 . S
C440 H416 0.950 . S
C440 C439 1.524 . S
C440 C441 1.415 . S
C441 H417 0.950 . S
C441 C436 1.363 . S
C441 C440 1.415 . S
C442 H418 0.951 . S
C442 C443 1.366 . S
C442 C444 1.388 . S
C443 C442 1.366 . S
C443 C447 1.385 . S
C444 H419 0.951 . S
C444 C442 1.388 . S
C444 C445 1.366 . S
C445 C444 1.366 . S
C445 C446 1.414 . S
C445 C448 1.499 . S
C446 H420 0.950 . S
C446 C445 1.414 . S
C446 C447 1.374 . S
C447 H421 0.950 . S
C447 C443 1.385 . S
C447 C446 1.374 . S
C448 C445 1.499 . S
C448 C449 1.373 . S
C448 C450 1.389 . S
C449 H422 0.950 . S
C449 C435 1.377 . S
C449 C448 1.373 . S
C450 C434 1.377 . S
C450 C448 1.389 . S
C450 C451 1.524 . S
C451 C450 1.524 . S
C451 C452 1.397 . S
C451 C456 1.363 . S
C452 H423 0.950 . S
C452 C451 1.397 . S
C452 C453 1.334 . S
C453 H424 0.950 . S
C453 C452 1.334 . S
C453 C454 1.287 . S
C454 C453 1.287 . S
C454 C455 1.524 . S
C454 H457 0.999 . S
C455 H425 0.950 . S
C455 C454 1.524 . S
C455 C456 1.415 . S
C456 H426 0.950 . S
C456 C451 1.363 . S
C456 C455 1.415 . S
H457 C454 0.999 . S
H458 C439 0.913 . S
H459 C477 0.951 . S
H460 C479 0.951 . S
H461 C481 0.950 . S
H462 C482 0.950 . S
H463 C484 0.950 . S
H464 C487 0.950 . S
H465 C488 0.950 . S
H466 C490 0.950 . S
H467 C491 0.950 . S
H468 C492 0.951 . S
H469 C494 0.951 . S
H470 C496 0.950 . S
H471 C497 0.950 . S
H472 C499 0.950 . S
H473 C502 0.950 . S
H474 C503 0.950 . S
H475 C505 0.950 . S
H476 C506 0.950 . S
C477 H459 0.951 . S
C477 C478 1.366 . S
C477 C479 1.388 . S
C478 C477 1.366 . S
C478 C482 1.385 . S
C479 H460 0.951 . S
C479 C477 1.388 . S
C479 C480 1.366 . S
C480 C479 1.366 . S
C480 C481 1.414 . S
C480 C483 1.499 . S
C481 H461 0.950 . S
C481 C480 1.414 . S
C481 C482 1.374 . S
C482 H462 0.950 . S
C482 C478 1.385 . S
C482 C481 1.374 . S
C483 C480 1.499 . S
C483 C484 1.373 . S
C483 C485 1.389 . S
C484 H463 0.950 . S
C484 C483 1.373 . S
C484 C500 1.377 . S
C485 C483 1.389 . S
C485 C486 1.524 . S
C485 C499 1.377 . S
C486 C485 1.524 . S
C486 C487 1.397 . S
C486 C491 1.363 . S
C487 H464 0.950 . S
C487 C486 1.397 . S
C487 C488 1.334 . S
C488 H465 0.950 . S
C488 C487 1.334 . S
C488 C489 1.287 . S
C489 C488 1.287 . S
C489 C490 1.524 . S
C489 H508 0.913 . S
C490 H466 0.950 . S
C490 C489 1.524 . S
C490 C491 1.415 . S
C491 H467 0.950 . S
C491 C486 1.363 . S
C491 C490 1.415 . S
C492 H468 0.951 . S
C492 C493 1.366 . S
C492 C494 1.388 . S
C493 C492 1.366 . S
C493 C497 1.385 . S
C494 H469 0.951 . S
C494 C492 1.388 . S
C494 C495 1.366 . S
C495 C494 1.366 . S
C495 C496 1.414 . S
C495 C498 1.499 . S
C496 H470 0.950 . S
C496 C495 1.414 . S
C496 C497 1.374 . S
C497 H471 0.950 . S
C497 C493 1.385 . S
C497 C496 1.374 . S
C498 C495 1.499 . S
C498 C499 1.373 . S
C498 C500 1.389 . S
C499 H472 0.950 . S
C499 C485 1.377 . S
C499 C498 1.373 . S
C500 C484 1.377 . S
C500 C498 1.389 . S
C500 C501 1.524 . S
C501 C500 1.524 . S
C501 C502 1.397 . S
C501 C506 1.363 . S
C502 H473 0.950 . S
C502 C501 1.397 . S
C502 C503 1.334 . S
C503 H474 0.950 . S
C503 C502 1.334 . S
C503 C504 1.287 . S
C504 C503 1.287 . S
C504 C505 1.524 . S
C504 H507 0.999 . S
C505 H475 0.950 . S
C505 C504 1.524 . S
C505 C506 1.415 . S
C506 H476 0.950 . S
C506 C501 1.363 . S
C506 C505 1.415 . S
H507 C504 0.999 . S
H508 C489 0.913 . S
H509 C527 0.951 . S
H510 C529 0.951 . S
H511 C531 0.950 . S
H512 C532 0.950 . S
H513 C534 0.950 . S
H514 C537 0.950 . S
H515 C538 0.950 . S
H516 C540 0.950 . S
H517 C541 0.950 . S
H518 C542 0.951 . S
H519 C544 0.951 . S
H520 C546 0.950 . S
H521 C547 0.950 . S
H522 C549 0.950 . S
H523 C552 0.950 . S
H524 C553 0.950 . S
H525 C555 0.950 . S
H526 C556 0.950 . S
C527 H509 0.951 . S
C527 C528 1.366 . S
C527 C529 1.388 . S
C528 C527 1.366 . S
C528 C532 1.385 . S
C529 H510 0.951 . S
C529 C527 1.388 . S
C529 C530 1.366 . S
C530 C529 1.366 . S
C530 C531 1.414 . S
C530 C533 1.499 . S
C531 H511 0.950 . S
C531 C530 1.414 . S
C531 C532 1.374 . S
C532 H512 0.950 . S
C532 C528 1.385 . S
C532 C531 1.374 . S
C533 C530 1.499 . S
C533 C534 1.373 . S
C533 C535 1.389 . S
C534 H513 0.950 . S
C534 C533 1.373 . S
C534 C550 1.377 . S
C535 C533 1.389 . S
C535 C536 1.524 . S
C535 C549 1.377 . S
C536 C535 1.524 . S
C536 C537 1.397 . S
C536 C541 1.363 . S
C537 H514 0.950 . S
C537 C536 1.397 . S
C537 C538 1.334 . S
C538 H515 0.950 . S
C538 C537 1.334 . S
C538 C539 1.287 . S
C539 C538 1.287 . S
C539 C540 1.524 . S
C539 H558 0.913 . S
C540 H516 0.950 . S
C540 C539 1.524 . S
C540 C541 1.415 . S
C541 H517 0.950 . S
C541 C536 1.363 . S
C541 C540 1.415 . S
C542 H518 0.951 . S
C542 C543 1.366 . S
C542 C544 1.388 . S
C543 C542 1.366 . S
C543 C547 1.385 . S
C544 H519 0.951 . S
C544 C542 1.388 . S
C544 C545 1.366 . S
C545 C544 1.366 . S
C545 C546 1.414 . S
C545 C548 1.499 . S
C546 H520 0.950 . S
C546 C545 1.414 . S
C546 C547 1.374 . S
C547 H521 0.950 . S
C547 C543 1.385 . S
C547 C546 1.374 . S
C548 C545 1.499 . S
C548 C549 1.373 . S
C548 C550 1.389 . S
C549 H522 0.950 . S
C549 C535 1.377 . S
C549 C548 1.373 . S
C550 C534 1.377 . S
C550 C548 1.389 . S
C550 C551 1.524 . S
C551 C550 1.524 . S
C551 C552 1.397 . S
C551 C556 1.363 . S
C552 H523 0.950 . S
C552 C551 1.397 . S
C552 C553 1.334 . S
C553 H524 0.950 . S
C553 C552 1.334 . S
C553 C554 1.287 . S
C554 C553 1.287 . S
C554 C555 1.524 . S
C554 H557 0.999 . S
C555 H525 0.950 . S
C555 C554 1.524 . S
C555 C556 1.415 . S
C556 H526 0.950 . S
C556 C551 1.363 . S
C556 C555 1.415 . S
H557 C554 0.999 . S
H558 C539 0.913 . S
H559 C577 0.951 . S
H560 C579 0.951 . S
H561 C581 0.950 . S
H562 C582 0.950 . S
H563 C584 0.950 . S
H564 C587 0.950 . S
H565 C588 0.950 . S
H566 C590 0.950 . S
H567 C591 0.950 . S
H568 C592 0.951 . S
H569 C594 0.951 . S
H570 C596 0.950 . S
H571 C597 0.950 . S
H572 C599 0.950 . S
H573 C602 0.950 . S
H574 C603 0.950 . S
H575 C605 0.950 . S
H576 C606 0.950 . S
C577 H559 0.951 . S
C577 C578 1.366 . S
C577 C579 1.388 . S
C578 C577 1.366 . S
C578 C582 1.385 . S
C579 H560 0.951 . S
C579 C577 1.388 . S
C579 C580 1.366 . S
C580 C579 1.366 . S
C580 C581 1.414 . S
C580 C583 1.499 . S
C581 H561 0.950 . S
C581 C580 1.414 . S
C581 C582 1.374 . S
C582 H562 0.950 . S
C582 C578 1.385 . S
C582 C581 1.374 . S
C583 C580 1.499 . S
C583 C584 1.373 . S
C583 C585 1.389 . S
C584 H563 0.950 . S
C584 C583 1.373 . S
C584 C600 1.377 . S
C585 C583 1.389 . S
C585 C586 1.524 . S
C585 C599 1.377 . S
C586 C585 1.524 . S
C586 C587 1.397 . S
C586 C591 1.363 . S
C587 H564 0.950 . S
C587 C586 1.397 . S
C587 C588 1.334 . S
C588 H565 0.950 . S
C588 C587 1.334 . S
C588 C589 1.287 . S
C589 C588 1.287 . S
C589 C590 1.524 . S
C589 H608 0.913 . S
C590 H566 0.950 . S
C590 C589 1.524 . S
C590 C591 1.415 . S
C591 H567 0.950 . S
C591 C586 1.363 . S
C591 C590 1.415 . S
C592 H568 0.951 . S
C592 C593 1.366 . S
C592 C594 1.388 . S
C593 C592 1.366 . S
C593 C597 1.385 . S
C594 H569 0.951 . S
C594 C592 1.388 . S
C594 C595 1.366 . S
C595 C594 1.366 . S
C595 C596 1.414 . S
C595 C598 1.499 . S
C596 H570 0.950 . S
C596 C595 1.414 . S
C596 C597 1.374 . S
C597 H571 0.950 . S
C597 C593 1.385 . S
C597 C596 1.374 . S
C598 C595 1.499 . S
C598 C599 1.373 . S
C598 C600 1.389 . S
C599 H572 0.950 . S
C599 C585 1.377 . S
C599 C598 1.373 . S
C600 C584 1.377 . S
C600 C598 1.389 . S
C600 C601 1.524 . S
C601 C600 1.524 . S
C601 C602 1.397 . S
C601 C606 1.363 . S
C602 H573 0.950 . S
C602 C601 1.397 . S
C602 C603 1.334 . S
C603 H574 0.950 . S
C603 C602 1.334 . S
C603 C604 1.287 . S
C604 C603 1.287 . S
C604 C605 1.524 . S
C604 H607 0.999 . S
C605 H575 0.950 . S
C605 C604 1.524 . S
C605 C606 1.415 . S
C606 H576 0.950 . S
C606 C601 1.363 . S
C606 C605 1.415 . S
H607 C604 0.999 . S
H608 C589 0.913 . S
H609 C627 0.951 . S
H610 C629 0.951 . S
H611 C631 0.950 . S
H612 C632 0.950 . S
H613 C634 0.950 . S
H614 C637 0.950 . S
H615 C638 0.950 . S
H616 C640 0.950 . S
H617 C641 0.950 . S
H618 C642 0.951 . S
H619 C644 0.951 . S
H620 C646 0.950 . S
H621 C647 0.950 . S
H622 C649 0.950 . S
H623 C652 0.950 . S
H624 C653 0.950 . S
H625 C655 0.950 . S
H626 C656 0.950 . S
C627 H609 0.951 . S
C627 C628 1.366 . S
C627 C629 1.388 . S
C628 C627 1.366 . S
C628 C632 1.385 . S
C629 H610 0.951 . S
C629 C627 1.388 . S
C629 C630 1.366 . S
C630 C629 1.366 . S
C630 C631 1.414 . S
C630 C633 1.499 . S
C631 H611 0.950 . S
C631 C630 1.414 . S
C631 C632 1.374 . S
C632 H612 0.950 . S
C632 C628 1.385 . S
C632 C631 1.374 . S
C633 C630 1.499 . S
C633 C634 1.373 . S
C633 C635 1.389 . S
C634 H613 0.950 . S
C634 C633 1.373 . S
C634 C650 1.377 . S
C635 C633 1.389 . S
C635 C636 1.524 . S
C635 C649 1.377 . S
C636 C635 1.524 . S
C636 C637 1.397 . S
C636 C641 1.363 . S
C637 H614 0.950 . S
C637 C636 1.397 . S
C637 C638 1.334 . S
C638 H615 0.950 . S
C638 C637 1.334 . S
C638 C639 1.287 . S
C639 C638 1.287 . S
C639 C640 1.524 . S
C639 H658 0.913 . S
C640 H616 0.950 . S
C640 C639 1.524 . S
C640 C641 1.415 . S
C641 H617 0.950 . S
C641 C636 1.363 . S
C641 C640 1.415 . S
C642 H618 0.951 . S
C642 C643 1.366 . S
C642 C644 1.388 . S
C643 C642 1.366 . S
C643 C647 1.385 . S
C644 H619 0.951 . S
C644 C642 1.388 . S
C644 C645 1.366 . S
C645 C644 1.366 . S
C645 C646 1.414 . S
C645 C648 1.499 . S
C646 H620 0.950 . S
C646 C645 1.414 . S
C646 C647 1.374 . S
C647 H621 0.950 . S
C647 C643 1.385 . S
C647 C646 1.374 . S
C648 C645 1.499 . S
C648 C649 1.373 . S
C648 C650 1.389 . S
C649 H622 0.950 . S
C649 C635 1.377 . S
C649 C648 1.373 . S
C650 C634 1.377 . S
C650 C648 1.389 . S
C650 C651 1.524 . S
C651 C650 1.524 . S
C651 C652 1.397 . S
C651 C656 1.363 . S
C652 H623 0.950 . S
C652 C651 1.397 . S
C652 C653 1.334 . S
C653 H624 0.950 . S
C653 C652 1.334 . S
C653 C654 1.287 . S
C654 C653 1.287 . S
C654 C655 1.524 . S
C654 H657 0.999 . S
C655 H625 0.950 . S
C655 C654 1.524 . S
C655 C656 1.415 . S
C656 H626 0.950 . S
C656 C651 1.363 . S
C656 C655 1.415 . S
H657 C654 0.999 . S
H658 C639 0.913 . S
H659 C677 0.951 . S
H660 C679 0.951 . S
H661 C681 0.950 . S
H662 C682 0.950 . S
H663 C684 0.950 . S
H664 C687 0.950 . S
H665 C688 0.950 . S
H666 C690 0.950 . S
H667 C691 0.950 . S
H668 C692 0.951 . S
H669 C694 0.951 . S
H670 C696 0.950 . S
H671 C697 0.950 . S
H672 C699 0.950 . S
H673 C702 0.950 . S
H674 C703 0.950 . S
H675 C705 0.950 . S
H676 C706 0.950 . S
C677 H659 0.951 . S
C677 C678 1.366 . S
C677 C679 1.388 . S
C678 C677 1.366 . S
C678 C682 1.385 . S
C679 H660 0.951 . S
C679 C677 1.388 . S
C679 C680 1.366 . S
C680 C679 1.366 . S
C680 C681 1.414 . S
C680 C683 1.499 . S
C681 H661 0.950 . S
C681 C680 1.414 . S
C681 C682 1.374 . S
C682 H662 0.950 . S
C682 C678 1.385 . S
C682 C681 1.374 . S
C683 C680 1.499 . S
C683 C684 1.373 . S
C683 C685 1.389 . S
C684 H663 0.950 . S
C684 C683 1.373 . S
C684 C700 1.377 . S
C685 C683 1.389 . S
C685 C686 1.524 . S
C685 C699 1.377 . S
C686 C685 1.524 . S
C686 C687 1.397 . S
C686 C691 1.363 . S
C687 H664 0.950 . S
C687 C686 1.397 . S
C687 C688 1.334 . S
C688 H665 0.950 . S
C688 C687 1.334 . S
C688 C689 1.287 . S
C689 C688 1.287 . S
C689 C690 1.524 . S
C689 H708 0.913 . S
C690 H666 0.950 . S
C690 C689 1.524 . S
C690 C691 1.415 . S
C691 H667 0.950 . S
C691 C686 1.363 . S
C691 C690 1.415 . S
C692 H668 0.951 . S
C692 C693 1.366 . S
C692 C694 1.388 . S
C693 C692 1.366 . S
C693 C697 1.385 . S
C694 H669 0.951 . S
C694 C692 1.388 . S
C694 C695 1.366 . S
C695 C694 1.366 . S
C695 C696 1.414 . S
C695 C698 1.499 . S
C696 H670 0.950 . S
C696 C695 1.414 . S
C696 C697 1.374 . S
C697 H671 0.950 . S
C697 C693 1.385 . S
C697 C696 1.374 . S
C698 C695 1.499 . S
C698 C699 1.373 . S
C698 C700 1.389 . S
C699 H672 0.950 . S
C699 C685 1.377 . S
C699 C698 1.373 . S
C700 C684 1.377 . S
C700 C698 1.389 . S
C700 C701 1.524 . S
C701 C700 1.524 . S
C701 C702 1.397 . S
C701 C706 1.363 . S
C702 H673 0.950 . S
C702 C701 1.397 . S
C702 C703 1.334 . S
C703 H674 0.950 . S
C703 C702 1.334 . S
C703 C704 1.287 . S
C704 C703 1.287 . S
C704 C705 1.524 . S
C704 H707 0.999 . S
C705 H675 0.950 . S
C705 C704 1.524 . S
C705 C706 1.415 . S
C706 H676 0.950 . S
C706 C701 1.363 . S
C706 C705 1.415 . S
H707 C704 0.999 . S
H708 C689 0.913 . S
H709 C727 0.951 . S
H710 C729 0.951 . S
H711 C731 0.950 . S
H712 C732 0.950 . S
H713 C734 0.950 . S
H714 C737 0.950 . S
H715 C738 0.950 . S
H716 C740 0.950 . S
H717 C741 0.950 . S
H718 C742 0.951 . S
H719 C744 0.951 . S
H720 C746 0.950 . S
H721 C747 0.950 . S
H722 C749 0.950 . S
H723 C752 0.950 . S
H724 C753 0.950 . S
H725 C755 0.950 . S
H726 C756 0.950 . S
C727 H709 0.951 . S
C727 C728 1.366 . S
C727 C729 1.388 . S
C728 C727 1.366 . S
C728 C732 1.385 . S
C729 H710 0.951 . S
C729 C727 1.388 . S
C729 C730 1.366 . S
C730 C729 1.366 . S
C730 C731 1.414 . S
C730 C733 1.499 . S
C731 H711 0.950 . S
C731 C730 1.414 . S
C731 C732 1.374 . S
C732 H712 0.950 . S
C732 C728 1.385 . S
C732 C731 1.374 . S
C733 C730 1.499 . S
C733 C734 1.373 . S
C733 C735 1.389 . S
C734 H713 0.950 . S
C734 C733 1.373 . S
C734 C750 1.377 . S
C735 C733 1.389 . S
C735 C736 1.524 . S
C735 C749 1.377 . S
C736 C735 1.524 . S
C736 C737 1.397 . S
C736 C741 1.363 . S
C737 H714 0.950 . S
C737 C736 1.397 . S
C737 C738 1.334 . S
C738 H715 0.950 . S
C738 C737 1.334 . S
C738 C739 1.287 . S
C739 C738 1.287 . S
C739 C740 1.524 . S
C739 H758 0.913 . S
C740 H716 0.950 . S
C740 C739 1.524 . S
C740 C741 1.415 . S
C741 H717 0.950 . S
C741 C736 1.363 . S
C741 C740 1.415 . S
C742 H718 0.951 . S
C742 C743 1.366 . S
C742 C744 1.388 . S
C743 C742 1.366 . S
C743 C747 1.385 . S
C744 H719 0.951 . S
C744 C742 1.388 . S
C744 C745 1.366 . S
C745 C744 1.366 . S
C745 C746 1.414 . S
C745 C748 1.499 . S
C746 H720 0.950 . S
C746 C745 1.414 . S
C746 C747 1.374 . S
C747 H721 0.950 . S
C747 C743 1.385 . S
C747 C746 1.374 . S
C748 C745 1.499 . S
C748 C749 1.373 . S
C748 C750 1.389 . S
C749 H722 0.950 . S
C749 C735 1.377 . S
C749 C748 1.373 . S
C750 C734 1.377 . S
C750 C748 1.389 . S
C750 C751 1.524 . S
C751 C750 1.524 . S
C751 C752 1.397 . S
C751 C756 1.363 . S
C752 H723 0.950 . S
C752 C751 1.397 . S
C752 C753 1.334 . S
C753 H724 0.950 . S
C753 C752 1.334 . S
C753 C754 1.287 . S
C754 C753 1.287 . S
C754 C755 1.524 . S
C754 H757 0.999 . S
C755 H725 0.950 . S
C755 C754 1.524 . S
C755 C756 1.415 . S
C756 H726 0.950 . S
C756 C751 1.363 . S
C756 C755 1.415 . S
H757 C754 0.999 . S
H758 C739 0.913 . S
H759 C777 0.951 . S
H760 C779 0.951 . S
H761 C781 0.950 . S
H762 C782 0.950 . S
H763 C784 0.950 . S
H764 C787 0.950 . S
H765 C788 0.950 . S
H766 C790 0.950 . S
H767 C791 0.950 . S
H768 C792 0.951 . S
H769 C794 0.951 . S
H770 C796 0.950 . S
H771 C797 0.950 . S
H772 C799 0.950 . S
H773 C802 0.950 . S
H774 C803 0.950 . S
H775 C805 0.950 . S
H776 C806 0.950 . S
C777 H759 0.951 . S
C777 C778 1.366 . S
C777 C779 1.388 . S
C778 C777 1.366 . S
C778 C782 1.385 . S
C779 H760 0.951 . S
C779 C777 1.388 . S
C779 C780 1.366 . S
C780 C779 1.366 . S
C780 C781 1.414 . S
C780 C783 1.499 . S
C781 H761 0.950 . S
C781 C780 1.414 . S
C781 C782 1.374 . S
C782 H762 0.950 . S
C782 C778 1.385 . S
C782 C781 1.374 . S
C783 C780 1.499 . S
C783 C784 1.373 . S
C783 C785 1.389 . S
C784 H763 0.950 . S
C784 C783 1.373 . S
C784 C800 1.377 . S
C785 C783 1.389 . S
C785 C786 1.524 . S
C785 C799 1.377 . S
C786 C785 1.524 . S
C786 C787 1.397 . S
C786 C791 1.363 . S
C787 H764 0.950 . S
C787 C786 1.397 . S
C787 C788 1.334 . S
C788 H765 0.950 . S
C788 C787 1.334 . S
C788 C789 1.287 . S
C789 C788 1.287 . S
C789 C790 1.524 . S
C789 H808 0.913 . S
C790 H766 0.950 . S
C790 C789 1.524 . S
C790 C791 1.415 . S
C791 H767 0.950 . S
C791 C786 1.363 . S
C791 C790 1.415 . S
C792 H768 0.951 . S
C792 C793 1.366 . S
C792 C794 1.388 . S
C793 C792 1.366 . S
C793 C797 1.385 . S
C794 H769 0.951 . S
C794 C792 1.388 . S
C794 C795 1.366 . S
C795 C794 1.366 . S
C795 C796 1.414 . S
C795 C798 1.499 . S
C796 H770 0.950 . S
C796 C795 1.414 . S
C796 C797 1.374 . S
C797 H771 0.950 . S
C797 C793 1.385 . S
C797 C796 1.374 . S
C798 C795 1.499 . S
C798 C799 1.373 . S
C798 C800 1.389 . S
C799 H772 0.950 . S
C799 C785 1.377 . S
C799 C798 1.373 . S
C800 C784 1.377 . S
C800 C798 1.389 . S
C800 C801 1.524 . S
C801 C800 1.524 . S
C801 C802 1.397 . S
C801 C806 1.363 . S
C802 H773 0.950 . S
C802 C801 1.397 . S
C802 C803 1.334 . S
C803 H774 0.950 . S
C803 C802 1.334 . S
C803 C804 1.287 . S
C804 C803 1.287 . S
C804 C805 1.524 . S
C804 H807 0.999 . S
C805 H775 0.950 . S
C805 C804 1.524 . S
C805 C806 1.415 . S
C806 H776 0.950 . S
C806 C801 1.363 . S
C806 C805 1.415 . S
H807 C804 0.999 . S
H808 C789 0.913 . S
H809 C827 0.951 . S
H810 C829 0.951 . S
H811 C831 0.950 . S
H812 C832 0.950 . S
H813 C834 0.950 . S
H814 C837 0.950 . S
H815 C838 0.950 . S
H816 C840 0.950 . S
H817 C841 0.950 . S
H818 C842 0.951 . S
H819 C844 0.951 . S
H820 C846 0.950 . S
H821 C847 0.950 . S
H822 C849 0.950 . S
H823 C852 0.950 . S
H824 C853 0.950 . S
H825 C855 0.950 . S
H826 C856 0.950 . S
C827 H809 0.951 . S
C827 C828 1.366 . S
C827 C829 1.388 . S
C828 C827 1.366 . S
C828 C832 1.385 . S
C829 H810 0.951 . S
C829 C827 1.388 . S
C829 C830 1.366 . S
C830 C829 1.366 . S
C830 C831 1.414 . S
C830 C833 1.499 . S
C831 H811 0.950 . S
C831 C830 1.414 . S
C831 C832 1.374 . S
C832 H812 0.950 . S
C832 C828 1.385 . S
C832 C831 1.374 . S
C833 C830 1.499 . S
C833 C834 1.373 . S
C833 C835 1.389 . S
C834 H813 0.950 . S
C834 C833 1.373 . S
C834 C850 1.377 . S
C835 C833 1.389 . S
C835 C836 1.524 . S
C835 C849 1.377 . S
C836 C835 1.524 . S
C836 C837 1.397 . S
C836 C841 1.363 . S
C837 H814 0.950 . S
C837 C836 1.397 . S
C837 C838 1.334 . S
C838 H815 0.950 . S
C838 C837 1.334 . S
C838 C839 1.287 . S
C839 C838 1.287 . S
C839 C840 1.524 . S
C839 H858 0.913 . S
C840 H816 0.950 . S
C840 C839 1.524 . S
C840 C841 1.415 . S
C841 H817 0.950 . S
C841 C836 1.363 . S
C841 C840 1.415 . S
C842 H818 0.951 . S
C842 C843 1.366 . S
C842 C844 1.388 . S
C843 C842 1.366 . S
C843 C847 1.385 . S
C844 H819 0.951 . S
C844 C842 1.388 . S
C844 C845 1.366 . S
C845 C844 1.366 . S
C845 C846 1.414 . S
C845 C848 1.499 . S
C846 H820 0.950 . S
C846 C845 1.414 . S
C846 C847 1.374 . S
C847 H821 0.950 . S
C847 C843 1.385 . S
C847 C846 1.374 . S
C848 C845 1.499 . S
C848 C849 1.373 . S
C848 C850 1.389 . S
C849 H822 0.950 . S
C849 C835 1.377 . S
C849 C848 1.373 . S
C850 C834 1.377 . S
C850 C848 1.389 . S
C850 C851 1.524 . S
C851 C850 1.524 . S
C851 C852 1.397 . S
C851 C856 1.363 . S
C852 H823 0.950 . S
C852 C851 1.397 . S
C852 C853 1.334 . S
C853 H824 0.950 . S
C853 C852 1.334 . S
C853 C854 1.287 . S
C854 C853 1.287 . S
C854 C855 1.524 . S
C854 H857 0.999 . S
C855 H825 0.950 . S
C855 C854 1.524 . S
C855 C856 1.415 . S
C856 H826 0.950 . S
C856 C851 1.363 . S
C856 C855 1.415 . S
H857 C854 0.999 . S
H858 C839 0.913 . S
H859 C877 0.951 . S
H860 C879 0.951 . S
H861 C881 0.950 . S
H862 C882 0.950 . S
H863 C884 0.950 . S
H864 C887 0.950 . S
H865 C888 0.950 . S
H866 C890 0.950 . S
H867 C891 0.950 . S
H868 C892 0.951 . S
H869 C894 0.951 . S
H870 C896 0.950 . S
H871 C897 0.950 . S
H872 C899 0.950 . S
H873 C902 0.950 . S
H874 C903 0.950 . S
H875 C905 0.950 . S
H876 C906 0.950 . S
C877 H859 0.951 . S
C877 C878 1.366 . S
C877 C879 1.388 . S
C878 C877 1.366 . S
C878 C882 1.385 . S
C879 H860 0.951 . S
C879 C877 1.388 . S
C879 C880 1.366 . S
C880 C879 1.366 . S
C880 C881 1.414 . S
C880 C883 1.499 . S
C881 H861 0.950 . S
C881 C880 1.414 . S
C881 C882 1.374 . S
C882 H862 0.950 . S
C882 C878 1.385 . S
C882 C881 1.374 . S
C883 C880 1.499 . S
C883 C884 1.373 . S
C883 C885 1.389 . S
C884 H863 0.950 . S
C884 C883 1.373 . S
C884 C900 1.377 . S
C885 C883 1.389 . S
C885 C886 1.524 . S
C885 C899 1.377 . S
C886 C885 1.524 . S
C886 C887 1.397 . S
C886 C891 1.363 . S
C887 H864 0.950 . S
C887 C886 1.397 . S
C887 C888 1.334 . S
C888 H865 0.950 . S
C888 C887 1.334 . S
C888 C889 1.287 . S
C889 C888 1.287 . S
C889 C890 1.524 . S
C889 H908 0.913 . S
C890 H866 0.950 . S
C890 C889 1.524 . S
C890 C891 1.415 . S
C891 H867 0.950 . S
C891 C886 1.363 . S
C891 C890 1.415 . S
C892 H868 0.951 . S
C892 C893 1.366 . S
C892 C894 1.388 . S
C893 C892 1.366 . S
C893 C897 1.385 . S
C894 H869 0.951 . S
C894 C892 1.388 . S
C894 C895 1.366 . S
C895 C894 1.366 . S
C895 C896 1.414 . S
C895 C898 1.499 . S
C896 H870 0.950 . S
C896 C895 1.414 . S
C896 C897 1.374 . S
C897 H871 0.950 . S
C897 C893 1.385 . S
C897 C896 1.374 . S
C898 C895 1.499 . S
C898 C899 1.373 . S
C898 C900 1.389 . S
C899 H872 0.950 . S
C899 C885 1.377 . S
C899 C898 1.373 . S
C900 C884 1.377 . S
C900 C898 1.389 . S
C900 C901 1.524 . S
C901 C900 1.524 . S
C901 C902 1.397 . S
C901 C906 1.363 . S
C902 H873 0.950 . S
C902 C901 1.397 . S
C902 C903 1.334 . S
C903 H874 0.950 . S
C903 C902 1.334 . S
C903 C904 1.287 . S
C904 C903 1.287 . S
C904 C905 1.524 . S
C904 H907 0.999 . S
C905 H875 0.950 . S
C905 C904 1.524 . S
C905 C906 1.415 . S
C906 H876 0.950 . S
C906 C901 1.363 . S
C906 C905 1.415 . S
H907 C904 0.999 . S
H908 C889 0.913 . S
H909 C927 0.951 . S
H910 C929 0.951 . S
H911 C931 0.950 . S
H912 C932 0.950 . S
H913 C934 0.950 . S
H914 C937 0.950 . S
H915 C938 0.950 . S
H916 C940 0.950 . S
H917 C941 0.950 . S
H918 C942 0.951 1_656 S
H919 C944 0.951 1_655 S
H920 C946 0.950 . S
H921 C947 0.939 1_556 S
H922 C949 0.950 . S
H923 C952 0.950 . S
H924 C953 0.950 . S
H925 C955 0.950 . S
H926 C956 0.950 . S
C927 H909 0.951 . S
C927 C928 1.366 . S
C927 C929 1.388 . S
C928 C927 1.366 . S
C928 C932 1.385 1_455 S
C929 H910 0.951 . S
C929 C927 1.388 . S
C929 C930 1.366 . S
C930 C929 1.366 . S
C930 C931 1.414 1_455 S
C930 C933 1.499 . S
C931 H911 0.950 . S
C931 C930 1.414 1_655 S
C931 C932 1.374 . S
C932 H912 0.950 . S
C932 C928 1.385 1_655 S
C932 C931 1.374 . S
C933 C930 1.499 . S
C933 C934 1.373 . S
C933 C935 1.389 1_455 S
C934 H913 0.950 . S
C934 C933 1.373 . S
C934 C950 1.377 . S
C935 C933 1.389 1_655 S
C935 C936 1.524 . S
C935 C949 1.377 . S
C936 C935 1.524 . S
C936 C937 1.397 . S
C936 C941 1.363 . S
C937 H914 0.950 . S
C937 C936 1.397 . S
C937 C938 1.334 . S
C938 H915 0.950 . S
C938 C937 1.334 . S
C938 C939 1.287 . S
C939 C938 1.287 . S
C939 C940 1.524 . S
C939 H958 0.913 . S
C940 H916 0.950 . S
C940 C939 1.524 . S
C940 C941 1.415 . S
C941 H917 0.950 . S
C941 C936 1.363 . S
C941 C940 1.415 . S
C942 H918 0.951 1_454 S
C942 C943 1.366 1_554 S
C942 C944 1.388 . S
C943 C942 1.366 1_556 S
C943 C947 1.385 1_556 S
C944 H919 0.951 1_455 S
C944 C942 1.388 . S
C944 C945 1.366 . S
C945 C944 1.366 . S
C945 C946 1.414 . S
C945 C948 1.499 . S
C946 H920 0.950 . S
C946 C945 1.414 . S
C946 C947 1.374 . S
C947 H921 0.939 1_554 S
C947 C943 1.385 1_554 S
C947 C946 1.374 . S
C948 C945 1.499 . S
C948 C949 1.373 1_455 S
C948 C950 1.389 . S
C949 H922 0.950 . S
C949 C935 1.377 . S
C949 C948 1.373 1_655 S
C950 C934 1.377 . S
C950 C948 1.389 . S
C950 C951 1.524 . S
C951 C950 1.524 . S
C951 C952 1.397 . S
C951 C956 1.363 . S
C952 H923 0.950 . S
C952 C951 1.397 . S
C952 C953 1.334 . S
C953 H924 0.950 . S
C953 C952 1.334 . S
C953 C954 1.287 . S
C954 C953 1.287 . S
C954 C955 1.524 . S
C954 H957 0.999 . S
C955 H925 0.950 . S
C955 C954 1.524 . S
C955 C956 1.415 . S
C956 H926 0.950 . S
C956 C951 1.363 . S
C956 C955 1.415 . S
H957 C954 0.999 . S
H958 C939 0.913 . S
H959 C977 0.964 . S
H960 C979 0.934 1_565 S
H961 C981 0.950 . S
H962 C982 0.950 . S
H963 C984 0.950 . S
H964 C987 0.950 . S
H965 C988 0.950 . S
H966 C990 0.950 . S
H967 C991 0.950 . S
H968 C992 0.951 . S
H969 C994 0.951 . S
H970 C996 0.940 1_565 S
H971 C997 0.950 1_565 S
H972 C999 0.950 . S
H973 C1002 0.950 . S
H974 C1003 0.950 . S
H975 C1005 0.950 . S
H976 C1006 0.950 . S
C977 H959 0.964 . S
C977 C978 1.354 1_565 S
C977 C979 1.387 1_565 S
C978 C977 1.354 1_545 S
C978 C982 1.385 . S
C979 H960 0.934 1_545 S
C979 C977 1.387 1_545 S
C979 C980 1.383 . S
C980 C979 1.383 . S
C980 C981 1.414 . S
C980 C983 1.499 . S
C981 H961 0.950 . S
C981 C980 1.414 . S
C981 C982 1.374 . S
C982 H962 0.950 . S
C982 C978 1.385 . S
C982 C981 1.374 . S
C983 C980 1.499 . S
C983 C984 1.373 1_545 S
C983 C985 1.389 . S
C984 H963 0.950 . S
C984 C983 1.373 1_565 S
C984 C1000 1.377 . S
C985 C983 1.389 . S
C985 C986 1.524 . S
C985 C999 1.377 . S
C986 C985 1.524 . S
C986 C987 1.397 . S
C986 C991 1.363 . S
C987 H964 0.950 . S
C987 C986 1.397 . S
C987 C988 1.334 . S
C988 H965 0.950 . S
C988 C987 1.334 . S
C988 C989 1.287 . S
C989 C988 1.287 . S
C989 C990 1.524 . S
C989 H1008 0.913 . S
C990 H966 0.950 . S
C990 C989 1.524 . S
C990 C991 1.415 . S
C991 H967 0.950 . S
C991 C986 1.363 . S
C991 C990 1.415 . S
C992 H968 0.951 . S
C992 C993 1.366 . S
C992 C994 1.388 . S
C993 C992 1.366 . S
C993 C997 1.385 . S
C994 H969 0.951 . S
C994 C992 1.388 . S
C994 C995 1.366 . S
C995 C994 1.366 . S
C995 C996 1.424 . S
C995 C998 1.499 . S
C996 H970 0.940 1_545 S
C996 C995 1.424 . S
C996 C997 1.374 . S
C997 H971 0.950 1_545 S
C997 C993 1.385 . S
C997 C996 1.374 . S
C998 C995 1.499 . S
C998 C999 1.373 . S
C998 C1000 1.389 1_545 S
C999 H972 0.950 . S
C999 C985 1.377 . S
C999 C998 1.373 . S
C1000 C984 1.377 . S
C1000 C998 1.389 1_565 S
C1000 C1001 1.524 . S
C1001 C1000 1.524 . S
C1001 C1002 1.397 . S
C1001 C1006 1.363 . S
C1002 H973 0.950 . S
C1002 C1001 1.397 . S
C1002 C1003 1.334 . S
C1003 H974 0.950 . S
C1003 C1002 1.334 . S
C1003 C1004 1.287 . S
C1004 C1003 1.287 . S
C1004 C1005 1.524 . S
C1004 H1007 0.999 . S
C1005 H975 0.950 . S
C1005 C1004 1.524 . S
C1005 C1006 1.415 . S
C1006 H976 0.950 . S
C1006 C1001 1.363 . S
C1006 C1005 1.415 . S
H1007 C1004 0.999 . S
H1008 C989 0.913 . S
H1009 C1027 0.951 . S
H1010 C1029 0.951 . S
H1011 C1031 0.950 . S
H1012 C1032 0.950 . S
H1013 C1034 0.950 . S
H1014 C1037 0.950 . S
H1015 C1038 0.950 . S
H1016 C1040 0.950 . S
H1017 C1041 0.950 . S
H1018 C1042 0.951 . S
H1019 C1044 0.951 . S
H1020 C1046 0.950 . S
H1021 C1047 0.950 . S
H1022 C1049 0.950 . S
H1023 C1052 0.950 . S
H1024 C1053 0.950 . S
H1025 C1055 0.950 . S
H1026 C1056 0.950 . S
C1027 H1009 0.951 . S
C1027 C1028 1.366 . S
C1027 C1029 1.388 . S
C1028 C1027 1.366 . S
C1028 C1032 1.385 . S
C1029 H1010 0.951 . S
C1029 C1027 1.388 . S
C1029 C1030 1.366 . S
C1030 C1029 1.366 . S
C1030 C1031 1.414 . S
C1030 C1033 1.499 . S
C1031 H1011 0.950 . S
C1031 C1030 1.414 . S
C1031 C1032 1.374 . S
C1032 H1012 0.950 . S
C1032 C1028 1.385 . S
C1032 C1031 1.374 . S
C1033 C1030 1.499 . S
C1033 C1034 1.373 . S
C1033 C1035 1.389 . S
C1034 H1013 0.950 . S
C1034 C1033 1.373 . S
C1034 C1050 1.377 . S
C1035 C1033 1.389 . S
C1035 C1036 1.524 . S
C1035 C1049 1.377 . S
C1036 C1035 1.524 . S
C1036 C1037 1.397 . S
C1036 C1041 1.363 . S
C1037 H1014 0.950 . S
C1037 C1036 1.397 . S
C1037 C1038 1.334 . S
C1038 H1015 0.950 . S
C1038 C1037 1.334 . S
C1038 C1039 1.287 . S
C1039 C1038 1.287 . S
C1039 C1040 1.524 . S
C1039 H1058 0.913 . S
C1040 H1016 0.950 . S
C1040 C1039 1.524 . S
C1040 C1041 1.415 . S
C1041 H1017 0.950 . S
C1041 C1036 1.363 . S
C1041 C1040 1.415 . S
C1042 H1018 0.951 . S
C1042 C1043 1.366 . S
C1042 C1044 1.388 . S
C1043 C1042 1.366 . S
C1043 C1047 1.385 . S
C1044 H1019 0.951 . S
C1044 C1042 1.388 . S
C1044 C1045 1.366 . S
C1045 C1044 1.366 . S
C1045 C1046 1.414 . S
C1045 C1048 1.499 . S
C1046 H1020 0.950 . S
C1046 C1045 1.414 . S
C1046 C1047 1.374 . S
C1047 H1021 0.950 . S
C1047 C1043 1.385 . S
C1047 C1046 1.374 . S
C1048 C1045 1.499 . S
C1048 C1049 1.373 . S
C1048 C1050 1.389 . S
C1049 H1022 0.950 . S
C1049 C1035 1.377 . S
C1049 C1048 1.373 . S
C1050 C1034 1.377 . S
C1050 C1048 1.389 . S
C1050 C1051 1.524 . S
C1051 C1050 1.524 . S
C1051 C1052 1.397 . S
C1051 C1056 1.363 . S
C1052 H1023 0.950 . S
C1052 C1051 1.397 . S
C1052 C1053 1.334 . S
C1053 H1024 0.950 . S
C1053 C1052 1.334 . S
C1053 C1054 1.287 . S
C1054 C1053 1.287 . S
C1054 C1055 1.524 . S
C1054 H1057 0.999 . S
C1055 H1025 0.950 . S
C1055 C1054 1.524 . S
C1055 C1056 1.415 . S
C1056 H1026 0.950 . S
C1056 C1051 1.363 . S
C1056 C1055 1.415 . S
H1057 C1054 0.999 . S
H1058 C1039 0.913 . S
H1059 C1077 0.951 . S
H1060 C1079 0.951 . S
H1061 C1081 0.950 . S
H1062 C1082 0.950 . S
H1063 C1084 0.950 . S
H1064 C1087 0.950 . S
H1065 C1088 0.950 . S
H1066 C1090 0.950 . S
H1067 C1091 0.950 . S
H1068 C1092 0.951 . S
H1069 C1094 0.951 . S
H1070 C1096 0.950 . S
H1071 C1097 0.950 . S
H1072 C1099 0.950 . S
H1073 C1102 0.950 . S
H1074 C1103 0.950 . S
H1075 C1105 0.950 . S
H1076 C1106 0.950 . S
C1077 H1059 0.951 . S
C1077 C1078 1.366 1_565 S
C1077 C1079 1.388 . S
C1078 C1077 1.366 1_545 S
C1078 C1082 1.385 . S
C1079 H1060 0.951 . S
C1079 C1077 1.388 . S
C1079 C1080 1.366 1_565 S
C1080 C1079 1.366 1_545 S
C1080 C1081 1.414 . S
C1080 C1083 1.499 . S
C1081 H1061 0.950 . S
C1081 C1080 1.414 . S
C1081 C1082 1.374 . S
C1082 H1062 0.950 . S
C1082 C1078 1.385 . S
C1082 C1081 1.374 . S
C1083 C1080 1.499 . S
C1083 C1084 1.373 . S
C1083 C1085 1.389 1_545 S
C1084 H1063 0.950 . S
C1084 C1083 1.373 . S
C1084 C1100 1.377 . S
C1085 C1083 1.389 1_565 S
C1085 C1086 1.524 . S
C1085 C1099 1.377 . S
C1086 C1085 1.524 . S
C1086 C1087 1.397 . S
C1086 C1091 1.363 . S
C1087 H1064 0.950 . S
C1087 C1086 1.397 . S
C1087 C1088 1.334 . S
C1088 H1065 0.950 . S
C1088 C1087 1.334 . S
C1088 C1089 1.287 . S
C1089 C1088 1.287 . S
C1089 C1090 1.524 . S
C1089 H1108 0.913 . S
C1090 H1066 0.950 . S
C1090 C1089 1.524 . S
C1090 C1091 1.415 . S
C1091 H1067 0.950 . S
C1091 C1086 1.363 . S
C1091 C1090 1.415 . S
C1092 H1068 0.951 . S
C1092 C1093 1.366 . S
C1092 C1094 1.388 . S
C1093 C1092 1.366 . S
C1093 C1097 1.385 1_545 S
C1094 H1069 0.951 . S
C1094 C1092 1.388 . S
C1094 C1095 1.366 . S
C1095 C1094 1.366 . S
C1095 C1096 1.414 1_545 S
C1095 C1098 1.499 . S
C1096 H1070 0.950 . S
C1096 C1095 1.414 1_565 S
C1096 C1097 1.374 . S
C1097 H1071 0.950 . S
C1097 C1093 1.385 1_565 S
C1097 C1096 1.374 . S
C1098 C1095 1.499 . S
C1098 C1099 1.373 1_545 S
C1098 C1100 1.389 . S
C1099 H1072 0.950 . S
C1099 C1085 1.377 . S
C1099 C1098 1.373 1_565 S
C1100 C1084 1.377 . S
C1100 C1098 1.389 . S
C1100 C1101 1.524 . S
C1101 C1100 1.524 . S
C1101 C1102 1.397 . S
C1101 C1106 1.363 . S
C1102 H1073 0.950 . S
C1102 C1101 1.397 . S
C1102 C1103 1.334 . S
C1103 H1074 0.950 . S
C1103 C1102 1.334 . S
C1103 C1104 1.287 . S
C1104 C1103 1.287 . S
C1104 C1105 1.524 . S
C1104 H1107 0.999 . S
C1105 H1075 0.950 . S
C1105 C1104 1.524 . S
C1105 C1106 1.415 . S
C1106 H1076 0.950 . S
C1106 C1101 1.363 . S
C1106 C1105 1.415 . S
H1107 C1104 0.999 . S
H1108 C1089 0.913 . S
H1109 C1127 0.951 . S
H1110 C1129 0.951 . S
H1111 C1131 0.950 . S
H1112 C1132 0.950 . S
H1113 C1134 0.950 . S
H1114 C1137 0.950 . S
H1115 C1138 0.950 . S
H1116 C1140 0.950 . S
H1117 C1141 0.950 . S
H1118 C1142 0.955 . S
H1119 C1144 0.951 . S
H1120 C1146 0.950 . S
H1121 C1147 0.950 1_554 S
H1122 C1149 0.950 . S
H1123 C1152 0.950 . S
H1124 C1153 0.950 . S
H1125 C1155 0.950 . S
H1126 C1156 0.950 . S
C1127 H1109 0.951 . S
C1127 C1128 1.366 . S
C1127 C1129 1.388 . S
C1128 C1127 1.366 . S
C1128 C1132 1.385 . S
C1129 H1110 0.951 . S
C1129 C1127 1.388 . S
C1129 C1130 1.366 . S
C1130 C1129 1.366 . S
C1130 C1131 1.414 . S
C1130 C1133 1.499 . S
C1131 H1111 0.950 . S
C1131 C1130 1.414 . S
C1131 C1132 1.374 . S
C1132 H1112 0.950 . S
C1132 C1128 1.385 . S
C1132 C1131 1.374 . S
C1133 C1130 1.499 . S
C1133 C1134 1.373 . S
C1133 C1135 1.389 . S
C1134 H1113 0.950 . S
C1134 C1133 1.373 . S
C1134 C1150 1.377 . S
C1135 C1133 1.389 . S
C1135 C1136 1.524 . S
C1135 C1149 1.377 . S
C1136 C1135 1.524 . S
C1136 C1137 1.397 . S
C1136 C1141 1.363 . S
C1137 H1114 0.950 . S
C1137 C1136 1.397 . S
C1137 C1138 1.334 . S
C1138 H1115 0.950 . S
C1138 C1137 1.334 . S
C1138 C1139 1.287 . S
C1139 C1138 1.287 . S
C1139 C1140 1.524 . S
C1139 H1158 0.913 . S
C1140 H1116 0.950 . S
C1140 C1139 1.524 . S
C1140 C1141 1.415 . S
C1141 H1117 0.950 . S
C1141 C1136 1.363 . S
C1141 C1140 1.415 . S
C1142 H1118 0.955 . S
C1142 C1143 1.366 1_556 S
C1142 C1144 1.388 . S
C1143 C1142 1.366 1_554 S
C1143 C1147 1.385 1_554 S
C1144 H1119 0.951 . S
C1144 C1142 1.388 . S
C1144 C1145 1.366 . S
C1145 C1144 1.366 . S
C1145 C1146 1.414 . S
C1145 C1148 1.499 . S
C1146 H1120 0.950 . S
C1146 C1145 1.414 . S
C1146 C1147 1.374 . S
C1147 H1121 0.950 1_556 S
C1147 C1143 1.385 1_556 S
C1147 C1146 1.374 . S
C1148 C1145 1.499 . S
C1148 C1149 1.373 . S
C1148 C1150 1.389 . S
C1149 H1122 0.950 . S
C1149 C1135 1.377 . S
C1149 C1148 1.373 . S
C1150 C1134 1.377 . S
C1150 C1148 1.389 . S
C1150 C1151 1.524 . S
C1151 C1150 1.524 . S
C1151 C1152 1.397 . S
C1151 C1156 1.363 . S
C1152 H1123 0.950 . S
C1152 C1151 1.397 . S
C1152 C1153 1.334 . S
C1153 H1124 0.950 . S
C1153 C1152 1.334 . S
C1153 C1154 1.287 . S
C1154 C1153 1.287 . S
C1154 C1155 1.524 . S
C1154 H1157 0.999 . S
C1155 H1125 0.950 . S
C1155 C1154 1.524 . S
C1155 C1156 1.415 . S
C1156 H1126 0.950 . S
C1156 C1151 1.363 . S
C1156 C1155 1.415 . S
H1157 C1154 0.999 . S
H1158 C1139 0.913 . S
H1159 C1177 0.951 . S
H1160 C1179 0.951 . S
H1161 C1181 0.950 . S
H1162 C1182 0.950 . S
H1163 C1184 0.950 . S
H1164 C1187 0.950 . S
H1165 C1188 0.950 . S
H1166 C1190 0.950 . S
H1167 C1191 0.950 . S
H1168 C1192 0.951 . S
H1169 C1194 0.951 . S
H1170 C1196 0.950 . S
H1171 C1197 0.950 . S
H1172 C1199 0.950 . S
H1173 C1202 0.950 . S
H1174 C1203 0.950 . S
H1175 C1205 0.950 . S
H1176 C1206 0.950 . S
C1177 H1159 0.951 . S
C1177 C1178 1.366 . S
C1177 C1179 1.388 . S
C1178 C1177 1.366 . S
C1178 C1182 1.385 1_455 S
C1179 H1160 0.951 . S
C1179 C1177 1.388 . S
C1179 C1180 1.386 . S
C1180 C1179 1.386 . S
C1180 C1181 1.396 1_455 S
C1180 C1183 1.498 . S
C1181 H1161 0.950 . S
C1181 C1180 1.396 1_655 S
C1181 C1182 1.374 . S
C1182 H1162 0.950 . S
C1182 C1178 1.385 1_655 S
C1182 C1181 1.374 . S
C1183 C1180 1.498 . S
C1183 C1184 1.376 . S
C1183 C1185 1.388 1_455 S
C1184 H1163 0.950 . S
C1184 C1183 1.376 . S
C1184 C1200 1.377 . S
C1185 C1183 1.388 1_655 S
C1185 C1186 1.524 . S
C1185 C1199 1.377 . S
C1186 C1185 1.524 . S
C1186 C1187 1.397 . S
C1186 C1191 1.363 . S
C1187 H1164 0.950 . S
C1187 C1186 1.397 . S
C1187 C1188 1.334 . S
C1188 H1165 0.950 . S
C1188 C1187 1.334 . S
C1188 C1189 1.287 . S
C1189 C1188 1.287 . S
C1189 C1190 1.524 . S
C1189 H1208 0.913 . S
C1190 H1166 0.950 . S
C1190 C1189 1.524 . S
C1190 C1191 1.415 . S
C1191 H1167 0.950 . S
C1191 C1186 1.363 . S
C1191 C1190 1.415 . S
C1192 H1168 0.951 . S
C1192 C1193 1.366 1_655 S
C1192 C1194 1.388 . S
C1193 C1192 1.366 1_455 S
C1193 C1197 1.385 . S
C1194 H1169 0.951 . S
C1194 C1192 1.388 . S
C1194 C1195 1.366 1_655 S
C1195 C1194 1.366 1_455 S
C1195 C1196 1.414 . S
C1195 C1198 1.499 . S
C1196 H1170 0.950 . S
C1196 C1195 1.414 . S
C1196 C1197 1.374 . S
C1197 H1171 0.950 . S
C1197 C1193 1.385 . S
C1197 C1196 1.374 . S
C1198 C1195 1.499 . S
C1198 C1199 1.373 1_455 S
C1198 C1200 1.389 . S
C1199 H1172 0.950 . S
C1199 C1185 1.377 . S
C1199 C1198 1.373 1_655 S
C1200 C1184 1.377 . S
C1200 C1198 1.389 . S
C1200 C1201 1.524 . S
C1201 C1200 1.524 . S
C1201 C1202 1.397 . S
C1201 C1206 1.363 . S
C1202 H1173 0.950 . S
C1202 C1201 1.397 . S
C1202 C1203 1.334 . S
C1203 H1174 0.950 . S
C1203 C1202 1.334 . S
C1203 C1204 1.287 . S
C1204 C1203 1.287 . S
C1204 C1205 1.524 . S
C1204 H1207 0.999 . S
C1205 H1175 0.950 . S
C1205 C1204 1.524 . S
C1205 C1206 1.415 . S
C1206 H1176 0.950 . S
C1206 C1201 1.363 . S
C1206 C1205 1.415 . S
H1207 C1204 0.999 . S
H1208 C1189 0.913 . S
C328 C20 1.056 . S
C343 C284 1.075 . S
C378 C41 1.102 . S
C393 C191 1.100 . S
C428 C64 1.126 . S
C443 C231 1.126 . S
C478 C19 1.097 . S
C493 C271 1.132 . S
C543 C204 1.106 . S
C528 C44 1.108 . S
C593 C244 1.098 . S
C578 C67 1.100 . S
C628 C43 1.037 . S
C643 C111 1.061 . S
C678 C66 1.041 . S
C693 C151 1.063 . S
C728 C21 1.106 . S
C743 C84 1.104 . S
C793 C124 1.124 . S
C778 C42 1.099 . S
C843 C164 1.134 . S
C828 C65 1.108 . S
C878 C18 1.104 . S
C893 C71 1.103 . S
C943 C170 1.436 . S
C928 C17 1.450 . S
C978 C39 1.446 . S
C993 C90 1.437 . S
C1028 C62 1.467 . S
C1043 C130 1.454 . S
C1093 C250 1.422 1_545 S
C1078 C40 1.429 . S
C1143 C290 1.446 . S
C1128 C63 1.453 . S
C1178 C16 1.446 . S
C1193 C210 1.437 1_455 S
