# Generated by pormake.
# Topology alb, (6,12)-cn, num edge types: 1
# Building blocks:
#     Node 0, Type 0, BuildingBlock: OJICUG_clean_sbu_0, # of connection points: 6
#     Node 1, Type 0, BuildingBlock: OJICUG_clean_sbu_0, # of connection points: 6
#     Node 2, Type 1, BuildingBlock: QEWDON_clean_sbu_0, # of connection points: 12
#     Edge 3, Type (0, 1), BuildingBlock: FUNLAD_clean_linker_1, # of connection points: 2
#     Edge 4, Type (0, 1), BuildingBlock: FUNLAD_clean_linker_1, # of connection points: 2
#     Edge 5, Type (0, 1), BuildingBlock: FUNLAD_clean_linker_1, # of connection points: 2
#     Edge 6, Type (0, 1), BuildingBlock: FUNLAD_clean_linker_1, # of connection points: 2
#     Edge 7, Type (0, 1), BuildingBlock: FUNLAD_clean_linker_1, # of connection points: 2
#     Edge 8, Type (0, 1), BuildingBlock: FUNLAD_clean_linker_1, # of connection points: 2
#     Edge 9, Type (0, 1), BuildingBlock: FUNLAD_clean_linker_1, # of connection points: 2
#     Edge 10, Type (0, 1), BuildingBlock: FUNLAD_clean_linker_1, # of connection points: 2
#     Edge 11, Type (0, 1), BuildingBlock: FUNLAD_clean_linker_1, # of connection points: 2
#     Edge 12, Type (0, 1), BuildingBlock: FUNLAD_clean_linker_1, # of connection points: 2
#     Edge 13, Type (0, 1), BuildingBlock: FUNLAD_clean_linker_1, # of connection points: 2
#     Edge 14, Type (0, 1), BuildingBlock: FUNLAD_clean_linker_1, # of connection points: 2
# Relax obj value: 0.123
# Max RMSD: 0.221
# Mean RMSD: 0.143
data_MOF--net-alb--node1-OJICUG_clean_sbu_0--node2-QEWDON_clean_sbu_0--edge1-FUNLAD_clean_linker_1
_symmetry_space_group_name_H-M    P1
_symmetry_Int_Tables_number       1
_symmetry_cell_setting            triclinic
loop_
_symmetry_equiv_pos_as_xyz
'x, y, z'
_cell_length_a     25.154591
_cell_length_b     26.072099
_cell_length_c     21.240639
_cell_angle_alpha  89.940932
_cell_angle_beta   90.774031
_cell_angle_gamma 121.09832
loop_
_atom_site_label
_atom_site_type_symbol
_atom_site_fract_x
_atom_site_fract_y
_atom_site_fract_z
_atom_type_partial_charge
Sc0 Sc 0.31041 0.71197 0.12052 0.0
Sc1 Sc 0.16525 0.58051 0.14796 0.0
Sc2 Sc 0.30207 0.57509 0.15005 0.0
O3 O 0.25921 0.62258 0.13929 0.0
C4 C 0.37779 0.66274 0.03607 0.0
C5 C 0.18726 0.67089 0.03676 0.0
C6 C 0.18142 0.48463 0.07088 0.0
C7 C 0.21373 0.70454 0.22118 0.0
C8 C 0.39994 0.69611 0.21689 0.0
C9 C 0.19917 0.51709 0.25659 0.0
O10 O 0.35988 0.69986 0.04481 0.0
O11 O 0.15469 0.62154 0.06491 0.0
O12 O 0.23716 0.50471 0.08854 0.0
O13 O 0.26717 0.73201 0.19625 0.0
O14 O 0.37111 0.63953 0.21312 0.0
O15 O 0.16342 0.53307 0.23262 0.0
O16 O 0.38505 0.72823 0.18492 0.0
O17 O 0.17172 0.65127 0.20651 0.0
O18 O 0.24956 0.52849 0.23133 0.0
O19 O 0.24327 0.70884 0.05248 0.0
O20 O 0.36131 0.61722 0.0706 0.0
O21 O 0.14914 0.50646 0.08898 0.0
Sc22 Sc 0.72802 0.2966 0.06232 0.0
Sc23 Sc 0.8492 0.44223 0.02897 0.0
Sc24 Sc 0.69836 0.41418 0.05967 0.0
O25 O 0.75852 0.38456 0.05068 0.0
C26 C 0.61718 0.28977 0.98484 0.0
C27 C 0.82138 0.32957 0.947 0.0
C28 C 0.77985 0.49157 0.94383 0.0
C29 C 0.85812 0.35615 0.1311 0.0
C30 C 0.64571 0.31433 0.16487 0.0
C31 C 0.82306 0.51859 0.1275 0.0
O32 O 0.65316 0.27025 0.99643 0.0
O33 O 0.84779 0.38622 0.95236 0.0
O34 O 0.72871 0.46352 0.9727 0.0
O35 O 0.80077 0.31615 0.12885 0.0
O36 O 0.65768 0.3655 0.14573 0.0
O37 O 0.85879 0.50357 0.1025 0.0
O38 O 0.66758 0.28534 0.13904 0.0
O39 O 0.88258 0.40154 0.09521 0.0
O40 O 0.76491 0.49224 0.11513 0.0
O41 O 0.78183 0.29362 0.98597 0.0
O42 O 0.62592 0.33923 0.00635 0.0
O43 O 0.82801 0.4906 0.96051 0.0
Zn44 Zn 0.12349 0.12642 0.45725 0.0
Zn45 Zn 0.11801 0.99938 0.4575 0.0
O46 O 0.06812 0.03824 0.46883 0.0
H47 H 0.02823 0.02126 0.48858 0.0
C48 C 0.12748 0.20175 0.59864 0.0
O49 O 0.06685 0.16609 0.59669 0.0
Zn50 Zn 0.89929 0.88433 0.74074 0.0
Zn51 Zn 0.89063 0.99475 0.73159 0.0
O52 O 0.95392 0.97178 0.75323 0.0
H53 H 0.98949 0.99183 0.78135 0.0
Zn54 Zn 0.12103 0.10709 0.6812 0.0
O55 O 0.09199 0.03072 0.63125 0.0
Zn56 Zn 0.10661 0.97568 0.68452 0.0
H57 H 0.0662 0.01952 0.59381 0.0
Zn58 Zn 0.92165 0.02394 0.52009 0.0
O59 O 0.93612 0.96615 0.57161 0.0
H60 H 0.95971 0.97662 0.6106 0.0
Zn61 Zn 0.91133 0.89493 0.51366 0.0
C62 C 0.89918 0.10204 0.60307 0.0
O63 O 0.85885 0.04991 0.62719 0.0
O64 O 0.21042 0.14842 0.42924 0.0
O65 O 0.20349 0.05993 0.41721 0.0
O66 O 0.80279 0.93135 0.75902 0.0
O67 O 0.8135 0.8534 0.77973 0.0
O68 O 0.17006 0.10977 0.76038 0.0
O69 O 0.16906 0.02371 0.75414 0.0
C70 C 0.00611 0.89298 0.4234 0.0
O71 O 0.85523 0.97885 0.45158 0.0
O72 O 0.84528 0.88847 0.4515 0.0
O73 O 0.91774 0.08044 0.75788 0.0
C74 C 0.23367 0.1173 0.41265 0.0
O75 O 0.08234 0.1683 0.41323 0.0
C76 C 0.00303 0.87265 0.75907 0.0
O77 O 0.16019 0.18691 0.63095 0.0
C78 C 0.78116 0.87849 0.77966 0.0
O79 O 0.93224 0.10368 0.55749 0.0
C80 C 0.1444 0.94148 0.57094 0.0
O81 O 0.06277 0.92246 0.40687 0.0
O82 O 0.98986 0.9141 0.46815 0.0
C83 C 0.18733 0.07446 0.7802 0.0
O84 O 0.94664 0.84706 0.77596 0.0
O85 O 0.0232 0.91712 0.72213 0.0
C86 C 0.87524 0.82117 0.6234 0.0
O87 O 0.13927 0.93364 0.63023 0.0
O88 O 0.12892 0.97647 0.54615 0.0
C89 C 0.8294 0.92509 0.43147 0.0
O90 O 0.87835 0.81716 0.56406 0.0
O91 O 0.89077 0.87142 0.64743 0.0
C92 C 0.94634 0.09828 0.81021 0.0
O93 O 0.95711 0.06211 0.84371 0.0
C94 C 0.02413 0.13985 0.40322 0.0
O95 O 0.99036 0.08392 0.42095 0.0
H96 H 0.15057 0.72664 0.26819 0.0
C97 C 0.1981 0.73634 0.26771 0.0
H98 H 0.28691 0.7833 0.31 0.0
H99 H 0.27743 0.99734 0.43074 0.0
H100 H 0.36972 0.04656 0.36694 0.0
H101 H 0.39467 0.98877 0.29431 0.0
H102 H 0.32918 0.88106 0.28667 0.0
C103 C 0.23979 0.77474 0.31017 0.0
C104 C 0.2245 0.80928 0.35508 0.0
C105 C 0.26203 0.87274 0.35696 0.0
C106 C 0.24604 0.90647 0.3968 0.0
C107 C 0.28615 0.96953 0.39996 0.0
C108 C 0.33939 0.99849 0.36369 0.0
C109 C 0.35363 0.96589 0.32297 0.0
C110 C 0.31557 0.90385 0.31928 0.0
H111 H 0.1718 0.8745 0.5574 0.0
C112 C 0.16447 0.9071 0.53306 0.0
H113 H 0.16965 0.94847 0.44654 0.0
H114 H 0.15284 0.68863 0.37804 0.0
H115 H 0.05859 0.63894 0.43889 0.0
H116 H 0.02082 0.69742 0.49309 0.0
H117 H 0.0772 0.80546 0.48745 0.0
C118 C 0.17268 0.91352 0.47057 0.0
C119 C 0.191 0.87705 0.43264 0.0
C120 C 0.15337 0.81352 0.43072 0.0
C121 C 0.17218 0.77964 0.39487 0.0
C122 C 0.13808 0.71641 0.40025 0.0
C123 C 0.08426 0.68731 0.43565 0.0
C124 C 0.0631 0.7202 0.46631 0.0
C125 C 0.09665 0.78248 0.46353 0.0
H126 H 0.59118 0.23978 0.22999 0.0
C127 C 0.59785 0.28215 0.21334 0.0
H128 H 0.55944 0.3372 0.20864 0.0
H129 H 0.28115 0.13365 0.23875 0.0
H130 H 0.28242 0.16825 0.13246 0.0
H131 H 0.38106 0.24112 0.08276 0.0
H132 H 0.47904 0.2792 0.1384 0.0
C133 C 0.55553 0.29689 0.22825 0.0
C134 C 0.49599 0.25304 0.2596 0.0
C135 C 0.43891 0.22994 0.22571 0.0
C136 C 0.38185 0.18759 0.25425 0.0
C137 C 0.32574 0.16584 0.21941 0.0
C138 C 0.32576 0.18535 0.15836 0.0
C139 C 0.38129 0.22644 0.13041 0.0
C140 C 0.43732 0.24812 0.16312 0.0
H141 H 0.32447 0.19864 0.39813 0.0
C142 C 0.29736 0.15088 0.38767 0.0
H143 H 0.29306 0.08154 0.33257 0.0
H144 H 0.59547 0.29168 0.34028 0.0
H145 H 0.59365 0.25723 0.44677 0.0
H146 H 0.49515 0.18133 0.49461 0.0
H147 H 0.39767 0.13973 0.43634 0.0
C148 C 0.32091 0.12791 0.348 0.0
C149 C 0.3815 0.16851 0.31685 0.0
C150 C 0.4384 0.1914 0.35074 0.0
C151 C 0.49556 0.23405 0.3224 0.0
C152 C 0.5511 0.2578 0.35855 0.0
C153 C 0.55065 0.23873 0.41995 0.0
C154 C 0.49517 0.19611 0.44695 0.0
C155 C 0.43955 0.17271 0.41306 0.0
H156 H 0.1306 0.45604 0.32615 0.0
C157 C 0.17944 0.47987 0.31396 0.0
H158 H 0.26863 0.49527 0.33545 0.0
H159 H 0.10386 0.34255 0.58573 0.0
H160 H 0.09338 0.42813 0.60853 0.0
H161 H 0.13276 0.51301 0.53488 0.0
H162 H 0.18185 0.51231 0.43748 0.0
C163 C 0.21988 0.47149 0.34798 0.0
C164 C 0.19932 0.42294 0.39536 0.0
C165 C 0.17132 0.42447 0.45227 0.0
C166 C 0.1498 0.37612 0.49538 0.0
C167 C 0.12104 0.37814 0.55141 0.0
C168 C 0.11505 0.42712 0.56522 0.0
C169 C 0.13721 0.4749 0.52374 0.0
C170 C 0.16495 0.47378 0.4678 0.0
H171 H 0.20869 0.2856 0.565 0.0
C172 C 0.1584 0.25752 0.56174 0.0
H173 H 0.07636 0.24598 0.51972 0.0
H174 H 0.25321 0.40676 0.29162 0.0
H175 H 0.27339 0.32669 0.27447 0.0
H176 H 0.2441 0.24755 0.35342 0.0
H177 H 0.19332 0.24743 0.44937 0.0
C178 C 0.12674 0.27287 0.52242 0.0
C179 C 0.15817 0.32742 0.48254 0.0
C180 C 0.1913 0.32866 0.42843 0.0
C181 C 0.21035 0.3756 0.38398 0.0
C182 C 0.23932 0.37338 0.32804 0.0
C183 C 0.25102 0.32747 0.31735 0.0
C184 C 0.23437 0.28283 0.36173 0.0
C185 C 0.20491 0.28321 0.41661 0.0
H186 H 0.94888 0.38002 0.17355 0.0
C187 C 0.89939 0.34712 0.17351 0.0
H188 H 0.82903 0.26249 0.20591 0.0
H189 H 0.01029 0.16532 0.24116 0.0
H190 H 0.95999 0.1175 0.14207 0.0
H191 H 0.88931 0.14294 0.08803 0.0
H192 H 0.86975 0.21745 0.13201 0.0
C193 C 0.87797 0.29701 0.2076 0.0
C194 C 0.92069 0.28237 0.24055 0.0
C195 C 0.92965 0.23714 0.21529 0.0
C196 C 0.96829 0.2207 0.24763 0.0
C197 C 0.97938 0.17781 0.21969 0.0
C198 C 0.9512 0.15035 0.1626 0.0
C199 C 0.91159 0.16485 0.13206 0.0
C200 C 0.90085 0.20776 0.1578 0.0
H201 H 0.94466 0.14045 0.35994 0.0
C202 C 0.99448 0.16748 0.36864 0.0
H203 H 0.07635 0.25154 0.35444 0.0
H204 H 0.91434 0.37191 0.30078 0.0
H205 H 0.96289 0.41799 0.40103 0.0
H206 H 0.02503 0.38521 0.45995 0.0
H207 H 0.04131 0.30779 0.41796 0.0
C208 C 0.02682 0.22311 0.34531 0.0
C209 C 0.99484 0.24703 0.30692 0.0
C210 C 0.98717 0.29326 0.33143 0.0
C211 C 0.95035 0.31135 0.2979 0.0
C212 C 0.94229 0.35679 0.324 0.0
C213 C 0.96969 0.38345 0.38161 0.0
C214 C 0.00498 0.36519 0.41471 0.0
C215 C 0.01386 0.3207 0.39014 0.0
H216 H 0.45969 0.69842 0.29461 0.0
C217 C 0.456 0.72482 0.25699 0.0
H218 H 0.50493 0.80265 0.20171 0.0
H219 H 0.6755 0.85696 0.46512 0.0
H220 H 0.59451 0.86513 0.51609 0.0
H221 H 0.50023 0.84462 0.45714 0.0
H222 H 0.48615 0.81502 0.34702 0.0
C223 C 0.50577 0.77794 0.24259 0.0
C224 C 0.56586 0.79831 0.2756 0.0
C225 C 0.57423 0.81759 0.33919 0.0
C226 C 0.62949 0.83147 0.37241 0.0
C227 C 0.63541 0.84784 0.43688 0.0
C228 C 0.58906 0.85234 0.46688 0.0
C229 C 0.53592 0.84062 0.43376 0.0
C230 C 0.52831 0.82341 0.37066 0.0
H231 H 0.76556 0.93779 0.37117 0.0
C232 C 0.77622 0.9046 0.38797 0.0
H233 H 0.74546 0.81217 0.39095 0.0
H234 H 0.56374 0.76151 0.15426 0.0
H235 H 0.64545 0.75456 0.10289 0.0
H236 H 0.74312 0.78242 0.15955 0.0
H237 H 0.75917 0.81634 0.26843 0.0
C238 C 0.73656 0.84662 0.37473 0.0
C239 C 0.67721 0.82823 0.34113 0.0
C240 C 0.66901 0.80929 0.27749 0.0
C241 C 0.61314 0.79417 0.24462 0.0
C242 C 0.60553 0.77413 0.18135 0.0
C243 C 0.65206 0.76992 0.15129 0.0
C244 C 0.70704 0.78558 0.18319 0.0
C245 C 0.71568 0.80504 0.24559 0.0
H246 H 0.90063 0.58775 0.18523 0.0
C247 C 0.85218 0.56988 0.1722 0.0
H248 H 0.77566 0.58205 0.18052 0.0
H249 H 0.94803 0.73221 0.43042 0.0
H250 H 0.90446 0.63357 0.47648 0.0
H251 H 0.83918 0.54247 0.4129 0.0
H252 H 0.81652 0.54938 0.30277 0.0
C253 C 0.82314 0.59704 0.19483 0.0
C254 C 0.85751 0.65192 0.23519 0.0
C255 C 0.86977 0.64734 0.29969 0.0
C256 C 0.90694 0.70007 0.33661 0.0
C257 C 0.91947 0.69386 0.40043 0.0
C258 C 0.89493 0.63747 0.42742 0.0
C259 C 0.85815 0.58614 0.39162 0.0
C260 C 0.84564 0.59073 0.32845 0.0
H261 H 0.91216 0.81412 0.40514 0.0
C262 C 0.96034 0.83664 0.39078 0.0
H263 H 0.02485 0.83597 0.32874 0.0
H264 H 0.83835 0.67667 0.11478 0.0
H265 H 0.87723 0.77527 0.06996 0.0
H266 H 0.94135 0.86653 0.13375 0.0
H267 H 0.96665 0.8599 0.24299 0.0
C268 C 0.97704 0.81286 0.34436 0.0
C269 C 0.9315 0.75743 0.30902 0.0
C270 C 0.91686 0.7619 0.24527 0.0
C271 C 0.87966 0.70919 0.20847 0.0
C272 C 0.86619 0.7152 0.14488 0.0
C273 C 0.88825 0.77151 0.11855 0.0
C274 C 0.92438 0.82291 0.15447 0.0
C275 C 0.93871 0.81846 0.21706 0.0
H276 H 0.11056 0.64871 0.96992 0.0
C277 C 0.15557 0.68494 0.98652 0.0
H278 H 0.2198 0.77817 0.983 0.0
H279 H 0.10509 0.8098 0.72656 0.0
H280 H 0.20176 0.82267 0.6892 0.0
H281 H 0.26954 0.80508 0.75954 0.0
H282 H 0.24045 0.77368 0.86756 0.0
C283 C 0.1752 0.74097 0.96706 0.0
C284 C 0.13521 0.75398 0.92544 0.0
C285 C 0.15384 0.77442 0.86316 0.0
C286 C 0.1157 0.78652 0.82316 0.0
C287 C 0.13368 0.80303 0.75996 0.0
C288 C 0.18875 0.80984 0.73762 0.0
C289 C 0.22681 0.79976 0.77718 0.0
C290 C 0.20965 0.78193 0.83913 0.0
H291 H 0.09393 0.88659 0.78974 0.0
C292 C 0.04461 0.85365 0.7856 0.0
H293 H 0.97255 0.76549 0.802 0.0
H294 H 0.08702 0.71947 0.04391 0.0
H295 H 0.98778 0.70128 0.07929 0.0
H296 H 0.91992 0.71831 0.00867 0.0
H297 H 0.95164 0.75549 0.90355 0.0
C298 C 0.02188 0.79773 0.80742 0.0
C299 C 0.0599 0.78018 0.84626 0.0
C300 C 0.04002 0.75745 0.90781 0.0
C301 C 0.07822 0.74553 0.94782 0.0
C302 C 0.05881 0.72653 0.01033 0.0
C303 C 1.00212 0.71651 0.03164 0.0
C304 C 0.96404 0.72636 0.99204 0.0
C305 C 0.98285 0.7474 0.93129 0.0
H306 H 0.56055 0.21667 0.91763 0.0
C307 C 0.56092 0.25072 0.94752 0.0
H308 H 0.50652 0.28195 0.98821 0.0
H309 H 0.33617 0.13647 0.73703 0.0
H310 H 0.41675 0.21867 0.6773 0.0
H311 H 0.51314 0.29667 0.72965 0.0
H312 H 0.52969 0.2926 0.84186 0.0
C313 C 0.50855 0.25152 0.95472 0.0
C314 C 0.45025 0.20565 0.92324 0.0
C315 C 0.44123 0.20944 0.85783 0.0
C316 C 0.38522 0.16533 0.82802 0.0
C317 C 0.37751 0.1694 0.76233 0.0
C318 C 0.42346 0.21625 0.72743 0.0
C319 C 0.47775 0.26009 0.75688 0.0
C320 C 0.48676 0.25705 0.82131 0.0
H321 H 0.24616 0.13837 0.8538 0.0
C322 C 0.23613 0.09769 0.82911 0.0
H323 H 0.26998 0.04069 0.80682 0.0
H324 H 0.45584 0.18234 0.04818 0.0
H325 H 0.37519 0.09965 0.10759 0.0
H326 H 0.276 0.02552 0.0564 0.0
H327 H 0.25744 0.03295 0.94493 0.0
C328 C 0.27636 0.07871 0.83421 0.0
C329 C 0.33775 0.11885 0.86415 0.0
C330 C 0.34734 0.11418 0.9291 0.0
C331 C 0.40401 0.15746 0.9587 0.0
C332 C 0.41325 0.15107 0.02347 0.0
C333 C 0.3674 0.10376 0.05806 0.0
C334 C 0.31153 0.06204 0.02925 0.0
C335 C 0.30136 0.06691 0.96544 0.0
H336 H 0.17404 0.40457 0.02844 0.0
C337 C 0.15297 0.43197 0.02924 0.0
H338 H 0.08212 0.44445 0.99238 0.0
H339 H 0.10989 0.23746 0.82719 0.0
H340 H 0.21202 0.31924 0.79861 0.0
H341 H 0.25103 0.42177 0.83831 0.0
H342 H 0.18851 0.44277 0.90776 0.0
C343 C 0.10341 0.41728 0.99216 0.0
C344 C 0.0744 0.3611 0.95421 0.0
C345 C 0.11071 0.35019 0.9119 0.0
C346 C 0.08747 0.29169 0.88739 0.0
C347 C 0.12535 0.28128 0.84702 0.0
C348 C 0.18391 0.32784 0.83001 0.0
C349 C 0.20591 0.38553 0.85245 0.0
C350 C 0.1699 0.39686 0.89282 0.0
H351 H 0.94859 0.1837 0.8091 0.0
C352 C 0.96617 0.15864 0.83306 0.0
H353 H 0.02518 0.15961 0.90532 0.0
H354 H 0.98858 0.36972 0.02484 0.0
H355 H 0.88281 0.29038 0.04361 0.0
H356 H 0.84123 0.18983 0.99798 0.0
H357 H 0.90575 0.16732 0.93402 0.0
C358 C 0.00533 0.18321 0.88211 0.0
C359 C 0.02696 0.24519 0.90276 0.0
C360 C 0.9881 0.25761 0.93915 0.0
C361 C 0.01195 0.31582 0.96512 0.0
C362 C 0.97298 0.32657 0.00336 0.0
C363 C 0.91206 0.28143 0.0146 0.0
C364 C 0.88861 0.22473 0.98884 0.0
C365 C 0.92612 0.21251 0.95199 0.0
H366 H 0.81343 0.25334 0.89497 0.0
C367 C 0.83457 0.30176 0.89346 0.0
H368 H 0.88958 0.3793 0.83927 0.0
H369 H 0.99955 0.24174 0.68958 0.0
H370 H 0.09246 0.33024 0.72791 0.0
H371 H 0.08606 0.40363 0.79552 0.0
H372 H 0.98623 0.3884 0.82561 0.0
C373 C 0.86706 0.33091 0.84221 0.0
C374 C 0.87216 0.29612 0.78882 0.0
C375 C 0.93075 0.30554 0.77145 0.0
C376 C 0.93427 0.26346 0.7313 0.0
C377 C 0.99357 0.27284 0.71753 0.0
C378 C 0.04753 0.32334 0.7399 0.0
C379 C 0.04395 0.36458 0.77815 0.0
C380 C 0.98637 0.35541 0.79491 0.0
H381 H 0.93254 0.19928 0.6015 0.0
C382 C 0.9054 0.15817 0.62781 0.0
H383 H 0.84904 0.1168 0.70594 0.0
H384 H 0.75479 0.27714 0.79483 0.0
H385 H 0.66149 0.19528 0.74625 0.0
H386 H 0.66667 0.1207 0.67939 0.0
H387 H 0.7652 0.12796 0.66014 0.0
C388 C 0.87818 0.1588 0.68174 0.0
C389 C 0.87876 0.21227 0.70832 0.0
C390 C 0.82089 0.20758 0.71922 0.0
C391 C 0.81767 0.24987 0.7587 0.0
C392 C 0.75941 0.24483 0.76724 0.0
C393 C 0.70562 0.19844 0.7391 0.0
C394 C 0.70855 0.1565 0.70142 0.0
C395 C 0.76536 0.16092 0.6912 0.0
H396 H 0.43781 0.64149 0.98134 0.0
C397 C 0.4252 0.67517 0.98841 0.0
H398 H 0.45007 0.76441 0.97098 0.0
H399 H 0.7342 0.85719 0.94016 0.0
H400 H 0.73383 0.90453 0.03827 0.0
H401 H 0.63524 0.87962 0.08773 0.0
H402 H 0.53656 0.80659 0.04017 0.0
C403 C 0.45954 0.72898 0.96135 0.0
C404 C 0.51866 0.74524 0.92933 0.0
C405 C 0.57609 0.7882 0.95791 0.0
C406 C 0.63301 0.80313 0.92905 0.0
C407 C 0.68963 0.84514 0.95936 0.0
C408 C 0.69011 0.87248 0.01584 0.0
C409 C 0.63461 0.85845 0.04368 0.0
C410 C 0.57819 0.81648 0.01566 0.0
H411 H 0.69475 0.87399 0.80555 0.0
C412 C 0.71869 0.84916 0.80711 0.0
H413 H 0.71406 0.77033 0.8404 0.0
H414 H 0.4172 0.66349 0.86013 0.0
H415 H 0.41812 0.61679 0.76172 0.0
H416 H 0.51704 0.6427 0.71213 0.0
H417 H 0.61572 0.71575 0.76072 0.0
C418 C 0.69201 0.79676 0.83761 0.0
C419 C 0.63256 0.77605 0.87101 0.0
C420 C 0.57533 0.73287 0.84267 0.0
C421 C 0.51828 0.71754 0.87167 0.0
C422 C 0.46185 0.67567 0.84109 0.0
C423 C 0.46173 0.64885 0.78433 0.0
C424 C 0.51742 0.66348 0.75637 0.0
C425 C 0.57369 0.70525 0.7848 0.0
H426 H 0.74135 0.5062 0.85658 0.0
C427 C 0.78241 0.52506 0.88689 0.0
H428 H 0.87284 0.59729 0.90475 0.0
H429 H 0.95201 0.71225 0.63892 0.0
H430 H 0.03393 0.69381 0.66845 0.0
H431 H 0.02572 0.6362 0.76371 0.0
H432 H 0.93583 0.59695 0.83017 0.0
C433 C 0.83256 0.57858 0.87333 0.0
C434 C 0.83628 0.61239 0.81484 0.0
C435 C 0.88803 0.63256 0.77458 0.0
C436 C 0.89227 0.66481 0.71875 0.0
C437 C 0.94584 0.68683 0.68127 0.0
C438 C 0.99331 0.67653 0.69763 0.0
C439 C 0.98869 0.64411 0.75127 0.0
C440 C 0.93675 0.62204 0.78925 0.0
H441 H 0.84722 0.77678 0.71436 0.0
C442 C 0.85652 0.77035 0.66613 0.0
H443 H 0.86566 0.71237 0.60398 0.0
H444 H 0.73893 0.59597 0.88795 0.0
H445 H 0.65413 0.60895 0.85493 0.0
H446 H 0.65212 0.64673 0.74894 0.0
H447 H 0.73743 0.67594 0.67731 0.0
C448 C 0.8541 0.7192 0.6511 0.0
C449 C 0.84419 0.67577 0.70234 0.0
C450 C 0.79105 0.65286 0.74079 0.0
C451 C 0.78895 0.62483 0.79894 0.0
C452 C 0.74009 0.61179 0.84068 0.0
C453 C 0.69152 0.62001 0.82273 0.0
C454 C 0.69066 0.64186 0.76336 0.0
C455 C 0.73994 0.65858 0.72284 0.0
loop_
_geom_bond_atom_site_label_1
_geom_bond_atom_site_label_2
_geom_bond_distance
_geom_bond_site_symmetry_2
_ccdc_geom_bond_type
Sc0 O3 2.025 . S
Sc0 O10 2.105 . S
Sc0 O13 2.105 . S
Sc0 O16 2.105 . S
Sc0 O19 2.105 . S
Sc1 O3 2.025 . S
Sc1 O11 2.105 . S
Sc1 O15 2.105 . S
Sc1 O17 2.105 . S
Sc1 O21 2.105 . S
Sc2 O3 2.025 . S
Sc2 O12 2.105 . S
Sc2 O14 2.105 . S
Sc2 O18 2.105 . S
Sc2 O20 2.105 . S
O3 Sc0 2.025 . S
O3 Sc1 2.025 . S
O3 Sc2 2.025 . S
C4 O10 1.268 . S
C4 O20 1.268 . S
C5 O11 1.268 . S
C5 O19 1.268 . S
C6 O12 1.268 . S
C6 O21 1.268 . S
C7 O13 1.268 . S
C7 O17 1.268 . S
C8 O14 1.268 . S
C8 O16 1.268 . S
C9 O15 1.268 . S
C9 O18 1.268 . S
O10 Sc0 2.105 . S
O10 C4 1.268 . S
O11 Sc1 2.105 . S
O11 C5 1.268 . S
O12 Sc2 2.105 . S
O12 C6 1.268 . S
O13 Sc0 2.105 . S
O13 C7 1.268 . S
O14 Sc2 2.105 . S
O14 C8 1.268 . S
O15 Sc1 2.105 . S
O15 C9 1.268 . S
O16 Sc0 2.105 . S
O16 C8 1.268 . S
O17 Sc1 2.105 . S
O17 C7 1.268 . S
O18 Sc2 2.105 . S
O18 C9 1.268 . S
O19 Sc0 2.105 . S
O19 C5 1.268 . S
O20 Sc2 2.105 . S
O20 C4 1.268 . S
O21 Sc1 2.105 . S
O21 C6 1.268 . S
Sc22 O25 2.025 . S
Sc22 O32 2.105 1_554 S
Sc22 O35 2.105 . S
Sc22 O38 2.105 . S
Sc22 O41 2.105 1_554 S
Sc23 O25 2.025 . S
Sc23 O33 2.105 1_554 S
Sc23 O37 2.105 . S
Sc23 O39 2.105 . S
Sc23 O43 2.105 1_554 S
Sc24 O25 2.025 . S
Sc24 O34 2.105 1_554 S
Sc24 O36 2.105 . S
Sc24 O40 2.105 . S
Sc24 O42 2.105 1_554 S
O25 Sc22 2.025 . S
O25 Sc23 2.025 . S
O25 Sc24 2.025 . S
C26 O32 1.268 . S
C26 O42 1.268 . S
C27 O33 1.268 . S
C27 O41 1.268 . S
C28 O34 1.268 . S
C28 O43 1.268 . S
C29 O35 1.268 . S
C29 O39 1.268 . S
C30 O36 1.268 . S
C30 O38 1.268 . S
C31 O37 1.268 . S
C31 O40 1.268 . S
O32 Sc22 2.105 1_556 S
O32 C26 1.268 . S
O33 Sc23 2.105 1_556 S
O33 C27 1.268 . S
O34 Sc24 2.105 1_556 S
O34 C28 1.268 . S
O35 Sc22 2.105 . S
O35 C29 1.268 . S
O36 Sc24 2.105 . S
O36 C30 1.268 . S
O37 Sc23 2.105 . S
O37 C31 1.268 . S
O38 Sc22 2.105 . S
O38 C30 1.268 . S
O39 Sc23 2.105 . S
O39 C29 1.268 . S
O40 Sc24 2.105 . S
O40 C31 1.268 . S
O41 Sc22 2.105 1_556 S
O41 C27 1.268 . S
O42 Sc24 2.105 1_556 S
O42 C26 1.268 . S
O43 Sc23 2.105 1_556 S
O43 C28 1.268 . S
Zn44 O46 1.933 . S
Zn44 O64 1.985 . S
Zn44 O75 1.968 . S
Zn45 O46 1.911 1_565 S
Zn45 O65 1.970 1_565 S
Zn45 O81 1.945 . S
Zn45 O88 1.981 . S
O46 Zn44 1.933 . S
O46 Zn45 1.911 1_545 S
O46 H47 0.841 1_445 S
H47 O46 0.841 1_665 S
C48 O49 1.246 . S
C48 O77 1.276 . S
O49 C48 1.246 . S
Zn50 O52 1.911 . S
Zn50 O67 1.970 . S
Zn50 O84 1.945 1_655 S
Zn50 O91 1.981 . S
Zn51 O52 1.933 1_545 S
Zn51 O66 1.985 1_545 S
Zn51 O73 1.955 1_655 S
O52 Zn50 1.911 . S
O52 Zn51 1.933 1_565 S
O52 H53 0.841 1_665 S
H53 O52 0.841 1_445 S
Zn54 O55 1.933 . S
Zn54 O68 1.985 . S
Zn54 O77 1.955 . S
O55 Zn54 1.933 . S
O55 Zn56 1.911 . S
O55 H57 0.841 . S
Zn56 O55 1.911 . S
Zn56 O69 1.970 . S
Zn56 O85 1.981 1_545 S
Zn56 O87 1.945 1_545 S
H57 O55 0.841 . S
Zn58 O59 1.933 . S
Zn58 O71 1.985 . S
Zn58 O79 1.955 1_565 S
O59 Zn58 1.933 . S
O59 H60 0.841 . S
O59 Zn61 1.911 . S
H60 O59 0.841 . S
Zn61 O59 1.911 . S
Zn61 O72 1.970 . S
Zn61 O82 1.981 . S
Zn61 O90 1.945 . S
C62 O63 1.246 . S
C62 O79 1.276 . S
O63 C62 1.246 . S
O64 Zn44 1.985 . S
O64 C74 1.245 . S
O65 Zn45 1.970 1_545 S
O65 C74 1.263 . S
O66 Zn51 1.985 1_565 S
O66 C78 1.245 . S
O67 Zn50 1.970 . S
O67 C78 1.263 . S
O68 Zn54 1.985 . S
O68 C83 1.245 . S
O69 Zn56 1.970 . S
O69 C83 1.263 . S
C70 O81 1.262 1_655 S
C70 O82 1.245 . S
O71 Zn58 1.985 . S
O71 C89 1.245 . S
O72 Zn61 1.970 . S
O72 C89 1.263 . S
O73 Zn51 1.955 1_455 S
O73 C92 1.276 . S
C74 O64 1.245 . S
C74 O65 1.263 . S
O75 Zn44 1.968 . S
O75 C94 1.263 1_455 S
C76 O84 1.262 . S
C76 O85 1.245 . S
O77 C48 1.276 . S
O77 Zn54 1.955 . S
C78 O66 1.245 . S
C78 O67 1.263 . S
O79 Zn58 1.955 1_545 S
O79 C62 1.276 . S
C80 O87 1.262 . S
C80 O88 1.245 . S
O81 Zn45 1.945 . S
O81 C70 1.262 1_455 S
O82 Zn61 1.981 . S
O82 C70 1.245 . S
C83 O68 1.245 . S
C83 O69 1.263 . S
O84 Zn50 1.945 1_455 S
O84 C76 1.262 . S
O85 Zn56 1.981 1_565 S
O85 C76 1.245 . S
C86 O90 1.262 . S
C86 O91 1.245 . S
O87 Zn56 1.945 1_565 S
O87 C80 1.262 . S
O88 Zn45 1.981 . S
O88 C80 1.245 . S
C89 O71 1.245 . S
C89 O72 1.263 . S
O90 Zn61 1.945 . S
O90 C86 1.262 . S
O91 Zn50 1.981 . S
O91 C86 1.245 . S
C92 O73 1.276 . S
C92 O93 1.246 . S
O93 C92 1.246 . S
C94 O75 1.263 1_655 S
C94 O95 1.246 . S
O95 C94 1.246 . S
H96 C97 0.951 . S
C97 H96 0.951 . S
C97 C103 1.265 . S
H98 C103 0.950 . S
H99 C107 0.949 . S
H100 C108 0.950 1_545 S
H101 C109 0.951 . S
H102 C110 0.951 . S
C103 C97 1.265 . S
C103 H98 0.950 . S
C103 C104 1.478 . S
C104 C103 1.478 . S
C104 C105 1.397 . S
C104 C121 1.394 . S
C105 C104 1.397 . S
C105 C106 1.438 . S
C105 C110 1.429 . S
C106 C105 1.438 . S
C106 C107 1.428 . S
C106 C119 1.394 . S
C107 H99 0.949 . S
C107 C106 1.428 . S
C107 C108 1.345 . S
C108 H100 0.950 1_565 S
C108 C107 1.345 . S
C108 C109 1.424 . S
C109 H101 0.951 . S
C109 C108 1.424 . S
C109 C110 1.347 . S
C110 H102 0.951 . S
C110 C105 1.429 . S
C110 C109 1.347 . S
H111 C112 0.951 . S
C112 H111 0.951 . S
C112 C118 1.265 . S
H113 C118 0.950 . S
H114 C122 0.949 . S
H115 C123 0.950 . S
H116 C124 0.951 . S
H117 C125 0.951 . S
C118 C112 1.265 . S
C118 H113 0.950 . S
C118 C119 1.478 . S
C119 C106 1.394 . S
C119 C118 1.478 . S
C119 C120 1.397 . S
C120 C119 1.397 . S
C120 C121 1.438 . S
C120 C125 1.429 . S
C121 C104 1.394 . S
C121 C120 1.438 . S
C121 C122 1.428 . S
C122 H114 0.949 . S
C122 C121 1.428 . S
C122 C123 1.345 . S
C123 H115 0.950 . S
C123 C122 1.345 . S
C123 C124 1.424 . S
C124 H116 0.951 . S
C124 C123 1.424 . S
C124 C125 1.347 . S
C125 H117 0.951 . S
C125 C120 1.429 . S
C125 C124 1.347 . S
H126 C127 0.951 . S
C127 H126 0.951 . S
C127 C133 1.265 . S
H128 C133 0.950 . S
H129 C137 0.949 . S
H130 C138 0.950 . S
H131 C139 0.951 . S
H132 C140 0.951 . S
C133 C127 1.265 . S
C133 H128 0.950 . S
C133 C134 1.478 . S
C134 C133 1.478 . S
C134 C135 1.397 . S
C134 C151 1.394 . S
C135 C134 1.397 . S
C135 C136 1.438 . S
C135 C140 1.429 . S
C136 C135 1.438 . S
C136 C137 1.428 . S
C136 C149 1.394 . S
C137 H129 0.949 . S
C137 C136 1.428 . S
C137 C138 1.345 . S
C138 H130 0.950 . S
C138 C137 1.345 . S
C138 C139 1.424 . S
C139 H131 0.951 . S
C139 C138 1.424 . S
C139 C140 1.347 . S
C140 H132 0.951 . S
C140 C135 1.429 . S
C140 C139 1.347 . S
H141 C142 0.951 . S
C142 H141 0.951 . S
C142 C148 1.265 . S
H143 C148 0.950 . S
H144 C152 0.949 . S
H145 C153 0.950 . S
H146 C154 0.951 1_565 S
H147 C155 0.951 . S
C148 C142 1.265 . S
C148 H143 0.950 . S
C148 C149 1.478 . S
C149 C136 1.394 . S
C149 C148 1.478 . S
C149 C150 1.397 . S
C150 C149 1.397 . S
C150 C151 1.438 . S
C150 C155 1.429 . S
C151 C134 1.394 . S
C151 C150 1.438 . S
C151 C152 1.428 . S
C152 H144 0.949 . S
C152 C151 1.428 . S
C152 C153 1.345 . S
C153 H145 0.950 . S
C153 C152 1.345 . S
C153 C154 1.424 . S
C154 H146 0.951 1_545 S
C154 C153 1.424 . S
C154 C155 1.347 . S
C155 H147 0.951 . S
C155 C150 1.429 . S
C155 C154 1.347 . S
H156 C157 0.951 . S
C157 H156 0.951 . S
C157 C163 1.265 . S
H158 C163 0.950 . S
H159 C167 0.949 . S
H160 C168 0.950 . S
H161 C169 0.951 . S
H162 C170 0.951 . S
C163 C157 1.265 . S
C163 H158 0.950 . S
C163 C164 1.478 . S
C164 C163 1.478 . S
C164 C165 1.397 . S
C164 C181 1.394 . S
C165 C164 1.397 . S
C165 C166 1.438 . S
C165 C170 1.429 . S
C166 C165 1.438 . S
C166 C167 1.428 . S
C166 C179 1.394 . S
C167 H159 0.949 . S
C167 C166 1.428 . S
C167 C168 1.345 . S
C168 H160 0.950 . S
C168 C167 1.345 . S
C168 C169 1.424 . S
C169 H161 0.951 . S
C169 C168 1.424 . S
C169 C170 1.347 . S
C170 H162 0.951 . S
C170 C165 1.429 . S
C170 C169 1.347 . S
H171 C172 0.951 . S
C172 H171 0.951 . S
C172 C178 1.265 . S
H173 C178 0.950 . S
H174 C182 0.949 . S
H175 C183 0.950 . S
H176 C184 0.951 . S
H177 C185 0.951 . S
C178 C172 1.265 . S
C178 H173 0.950 . S
C178 C179 1.478 . S
C179 C166 1.394 . S
C179 C178 1.478 . S
C179 C180 1.397 . S
C180 C179 1.397 . S
C180 C181 1.438 . S
C180 C185 1.429 . S
C181 C164 1.394 . S
C181 C180 1.438 . S
C181 C182 1.428 . S
C182 H174 0.949 . S
C182 C181 1.428 . S
C182 C183 1.345 . S
C183 H175 0.950 . S
C183 C182 1.345 . S
C183 C184 1.424 . S
C184 H176 0.951 . S
C184 C183 1.424 . S
C184 C185 1.347 . S
C185 H177 0.951 . S
C185 C180 1.429 . S
C185 C184 1.347 . S
H186 C187 0.951 . S
C187 H186 0.951 . S
C187 C193 1.265 . S
H188 C193 0.950 . S
H189 C197 0.949 . S
H190 C198 0.950 . S
H191 C199 0.951 . S
H192 C200 0.951 . S
C193 C187 1.265 . S
C193 H188 0.950 . S
C193 C194 1.478 . S
C194 C193 1.478 . S
C194 C195 1.397 . S
C194 C211 1.394 . S
C195 C194 1.397 . S
C195 C196 1.438 . S
C195 C200 1.429 . S
C196 C195 1.438 . S
C196 C197 1.428 . S
C196 C209 1.394 . S
C197 H189 0.949 . S
C197 C196 1.428 . S
C197 C198 1.345 . S
C198 H190 0.950 . S
C198 C197 1.345 . S
C198 C199 1.424 . S
C199 H191 0.951 . S
C199 C198 1.424 . S
C199 C200 1.347 . S
C200 H192 0.951 . S
C200 C195 1.429 . S
C200 C199 1.347 . S
H201 C202 0.951 . S
C202 H201 0.951 . S
C202 C208 1.265 . S
H203 C208 0.950 . S
H204 C212 0.949 . S
H205 C213 0.950 . S
H206 C214 0.951 1_455 S
H207 C215 0.951 . S
C208 C202 1.265 . S
C208 H203 0.950 . S
C208 C209 1.478 . S
C209 C196 1.394 . S
C209 C208 1.478 . S
C209 C210 1.397 . S
C210 C209 1.397 . S
C210 C211 1.438 . S
C210 C215 1.429 . S
C211 C194 1.394 . S
C211 C210 1.438 . S
C211 C212 1.428 . S
C212 H204 0.949 . S
C212 C211 1.428 . S
C212 C213 1.345 . S
C213 H205 0.950 . S
C213 C212 1.345 . S
C213 C214 1.424 . S
C214 H206 0.951 1_655 S
C214 C213 1.424 . S
C214 C215 1.347 . S
C215 H207 0.951 . S
C215 C210 1.429 . S
C215 C214 1.347 . S
H216 C217 0.951 . S
C217 H216 0.951 . S
C217 C223 1.265 . S
H218 C223 0.950 . S
H219 C227 0.949 . S
H220 C228 0.950 . S
H221 C229 0.951 . S
H222 C230 0.951 . S
C223 C217 1.265 . S
C223 H218 0.950 . S
C223 C224 1.478 . S
C224 C223 1.478 . S
C224 C225 1.397 . S
C224 C241 1.394 . S
C225 C224 1.397 . S
C225 C226 1.438 . S
C225 C230 1.429 . S
C226 C225 1.438 . S
C226 C227 1.428 . S
C226 C239 1.394 . S
C227 H219 0.949 . S
C227 C226 1.428 . S
C227 C228 1.345 . S
C228 H220 0.950 . S
C228 C227 1.345 . S
C228 C229 1.424 . S
C229 H221 0.951 . S
C229 C228 1.424 . S
C229 C230 1.347 . S
C230 H222 0.951 . S
C230 C225 1.429 . S
C230 C229 1.347 . S
H231 C232 0.951 . S
C232 H231 0.951 . S
C232 C238 1.265 . S
H233 C238 0.950 . S
H234 C242 0.949 . S
H235 C243 0.950 . S
H236 C244 0.951 . S
H237 C245 0.951 . S
C238 C232 1.265 . S
C238 H233 0.950 . S
C238 C239 1.478 . S
C239 C226 1.394 . S
C239 C238 1.478 . S
C239 C240 1.397 . S
C240 C239 1.397 . S
C240 C241 1.438 . S
C240 C245 1.429 . S
C241 C224 1.394 . S
C241 C240 1.438 . S
C241 C242 1.428 . S
C242 H234 0.949 . S
C242 C241 1.428 . S
C242 C243 1.345 . S
C243 H235 0.950 . S
C243 C242 1.345 . S
C243 C244 1.424 . S
C244 H236 0.951 . S
C244 C243 1.424 . S
C244 C245 1.347 . S
C245 H237 0.951 . S
C245 C240 1.429 . S
C245 C244 1.347 . S
H246 C247 0.951 . S
C247 H246 0.951 . S
C247 C253 1.265 . S
H248 C253 0.950 . S
H249 C257 0.949 . S
H250 C258 0.950 . S
H251 C259 0.951 . S
H252 C260 0.951 . S
C253 C247 1.265 . S
C253 H248 0.950 . S
C253 C254 1.478 . S
C254 C253 1.478 . S
C254 C255 1.397 . S
C254 C271 1.394 . S
C255 C254 1.397 . S
C255 C256 1.438 . S
C255 C260 1.429 . S
C256 C255 1.438 . S
C256 C257 1.428 . S
C256 C269 1.394 . S
C257 H249 0.949 . S
C257 C256 1.428 . S
C257 C258 1.345 . S
C258 H250 0.950 . S
C258 C257 1.345 . S
C258 C259 1.424 . S
C259 H251 0.951 . S
C259 C258 1.424 . S
C259 C260 1.347 . S
C260 H252 0.951 . S
C260 C255 1.429 . S
C260 C259 1.347 . S
H261 C262 0.951 . S
C262 H261 0.951 . S
C262 C268 1.265 . S
H263 C268 0.950 . S
H264 C272 0.949 . S
H265 C273 0.950 . S
H266 C274 0.942 1_455 S
H267 C275 0.951 . S
C268 C262 1.265 . S
C268 H263 0.950 . S
C268 C269 1.478 . S
C269 C256 1.394 . S
C269 C268 1.478 . S
C269 C270 1.397 . S
C270 C269 1.397 . S
C270 C271 1.438 . S
C270 C275 1.429 . S
C271 C254 1.394 . S
C271 C270 1.438 . S
C271 C272 1.428 . S
C272 H264 0.949 . S
C272 C271 1.428 . S
C272 C273 1.345 . S
C273 H265 0.950 . S
C273 C272 1.345 . S
C273 C274 1.424 . S
C274 H266 0.942 1_655 S
C274 C273 1.424 . S
C274 C275 1.347 . S
C275 H267 0.951 . S
C275 C270 1.429 . S
C275 C274 1.347 . S
H276 C277 0.951 . S
C277 H276 0.951 . S
C277 C283 1.265 . S
H278 C283 0.950 1_554 S
H279 C287 0.949 . S
H280 C288 0.950 . S
H281 C289 0.951 . S
H282 C290 0.951 . S
C283 C277 1.265 . S
C283 H278 0.950 1_556 S
C283 C284 1.478 . S
C284 C283 1.478 . S
C284 C285 1.397 . S
C284 C301 1.394 . S
C285 C284 1.397 . S
C285 C286 1.438 . S
C285 C290 1.429 . S
C286 C285 1.438 . S
C286 C287 1.428 . S
C286 C299 1.394 . S
C287 H279 0.949 . S
C287 C286 1.428 . S
C287 C288 1.345 . S
C288 H280 0.950 . S
C288 C287 1.345 . S
C288 C289 1.424 . S
C289 H281 0.951 . S
C289 C288 1.424 . S
C289 C290 1.347 . S
C290 H282 0.951 . S
C290 C285 1.429 . S
C290 C289 1.347 . S
H291 C292 0.951 . S
C292 H291 0.951 . S
C292 C298 1.265 . S
H293 C298 0.950 . S
H294 C302 0.949 1_554 S
H295 C303 0.950 . S
H296 C304 0.951 1_655 S
H297 C305 0.951 . S
C298 C292 1.265 . S
C298 H293 0.950 . S
C298 C299 1.478 . S
C299 C286 1.394 . S
C299 C298 1.478 . S
C299 C300 1.397 . S
C300 C299 1.397 . S
C300 C301 1.438 . S
C300 C305 1.429 . S
C301 C284 1.394 . S
C301 C300 1.438 . S
C301 C302 1.428 . S
C302 H294 0.949 1_556 S
C302 C301 1.428 . S
C302 C303 1.345 . S
C303 H295 0.950 . S
C303 C302 1.345 . S
C303 C304 1.424 . S
C304 H296 0.951 1_455 S
C304 C303 1.424 . S
C304 C305 1.347 . S
C305 H297 0.951 . S
C305 C300 1.429 . S
C305 C304 1.347 . S
H306 C307 0.951 . S
C307 H306 0.951 . S
C307 C313 1.265 . S
H308 C313 0.950 . S
H309 C317 0.949 . S
H310 C318 0.950 . S
H311 C319 0.951 . S
H312 C320 0.951 . S
C313 C307 1.265 . S
C313 H308 0.950 . S
C313 C314 1.478 . S
C314 C313 1.478 . S
C314 C315 1.397 . S
C314 C331 1.394 . S
C315 C314 1.397 . S
C315 C316 1.438 . S
C315 C320 1.429 . S
C316 C315 1.438 . S
C316 C317 1.428 . S
C316 C329 1.394 . S
C317 H309 0.949 . S
C317 C316 1.428 . S
C317 C318 1.345 . S
C318 H310 0.950 . S
C318 C317 1.345 . S
C318 C319 1.424 . S
C319 H311 0.951 . S
C319 C318 1.424 . S
C319 C320 1.347 . S
C320 H312 0.951 . S
C320 C315 1.429 . S
C320 C319 1.347 . S
H321 C322 0.951 . S
C322 H321 0.951 . S
C322 C328 1.265 . S
H323 C328 0.950 . S
H324 C332 0.949 . S
H325 C333 0.950 . S
H326 C334 0.951 . S
H327 C335 0.951 . S
C328 C322 1.265 . S
C328 H323 0.950 . S
C328 C329 1.478 . S
C329 C316 1.394 . S
C329 C328 1.478 . S
C329 C330 1.397 . S
C330 C329 1.397 . S
C330 C331 1.438 . S
C330 C335 1.429 . S
C331 C314 1.394 . S
C331 C330 1.438 . S
C331 C332 1.428 . S
C332 H324 0.949 . S
C332 C331 1.428 . S
C332 C333 1.345 . S
C333 H325 0.950 . S
C333 C332 1.345 . S
C333 C334 1.424 . S
C334 H326 0.951 . S
C334 C333 1.424 . S
C334 C335 1.347 . S
C335 H327 0.951 . S
C335 C330 1.429 . S
C335 C334 1.347 . S
H336 C337 0.951 . S
C337 H336 0.951 . S
C337 C343 1.265 . S
H338 C343 0.950 . S
H339 C347 0.949 . S
H340 C348 0.950 . S
H341 C349 0.951 . S
H342 C350 0.951 . S
C343 C337 1.265 . S
C343 H338 0.950 . S
C343 C344 1.478 . S
C344 C343 1.478 . S
C344 C345 1.397 . S
C344 C361 1.394 . S
C345 C344 1.397 . S
C345 C346 1.438 . S
C345 C350 1.429 . S
C346 C345 1.438 . S
C346 C347 1.428 . S
C346 C359 1.394 . S
C347 H339 0.949 . S
C347 C346 1.428 . S
C347 C348 1.345 . S
C348 H340 0.950 . S
C348 C347 1.345 . S
C348 C349 1.424 . S
C349 H341 0.951 . S
C349 C348 1.424 . S
C349 C350 1.347 . S
C350 H342 0.951 . S
C350 C345 1.429 . S
C350 C349 1.347 . S
H351 C352 0.951 . S
C352 H351 0.951 . S
C352 C358 1.265 . S
H353 C358 0.950 . S
H354 C362 0.949 . S
H355 C363 0.950 . S
H356 C364 0.951 1_554 S
H357 C365 0.951 . S
C358 C352 1.265 . S
C358 H353 0.950 . S
C358 C359 1.478 . S
C359 C346 1.394 . S
C359 C358 1.478 . S
C359 C360 1.397 . S
C360 C359 1.397 . S
C360 C361 1.438 . S
C360 C365 1.429 . S
C361 C344 1.394 . S
C361 C360 1.438 . S
C361 C362 1.428 1_556 S
C362 H354 0.949 . S
C362 C361 1.428 1_554 S
C362 C363 1.345 . S
C363 H355 0.950 . S
C363 C362 1.345 . S
C363 C364 1.424 1_554 S
C364 H356 0.951 1_556 S
C364 C363 1.424 1_556 S
C364 C365 1.347 . S
C365 H357 0.951 . S
C365 C360 1.429 . S
C365 C364 1.347 . S
H366 C367 0.951 . S
C367 H366 0.951 . S
C367 C373 1.265 . S
H368 C373 0.950 . S
H369 C377 0.949 . S
H370 C378 0.950 1_455 S
H371 C379 0.951 . S
H372 C380 0.951 . S
C373 C367 1.265 . S
C373 H368 0.950 . S
C373 C374 1.478 . S
C374 C373 1.478 . S
C374 C375 1.397 . S
C374 C391 1.394 . S
C375 C374 1.397 . S
C375 C376 1.438 . S
C375 C380 1.429 . S
C376 C375 1.438 . S
C376 C377 1.428 . S
C376 C389 1.394 . S
C377 H369 0.949 . S
C377 C376 1.428 . S
C377 C378 1.345 . S
C378 H370 0.950 1_655 S
C378 C377 1.345 . S
C378 C379 1.424 . S
C379 H371 0.951 . S
C379 C378 1.424 . S
C379 C380 1.347 . S
C380 H372 0.951 . S
C380 C375 1.429 . S
C380 C379 1.347 . S
H381 C382 0.951 . S
C382 H381 0.951 . S
C382 C388 1.265 . S
H383 C388 0.950 . S
H384 C392 0.949 . S
H385 C393 0.950 . S
H386 C394 0.941 1_565 S
H387 C395 0.951 . S
C388 C382 1.265 . S
C388 H383 0.950 . S
C388 C389 1.478 . S
C389 C376 1.394 . S
C389 C388 1.478 . S
C389 C390 1.397 . S
C390 C389 1.397 . S
C390 C391 1.438 . S
C390 C395 1.429 . S
C391 C374 1.394 . S
C391 C390 1.438 . S
C391 C392 1.428 . S
C392 H384 0.949 . S
C392 C391 1.428 . S
C392 C393 1.345 . S
C393 H385 0.950 . S
C393 C392 1.345 . S
C393 C394 1.424 . S
C394 H386 0.941 1_545 S
C394 C393 1.424 . S
C394 C395 1.347 . S
C395 H387 0.951 . S
C395 C390 1.429 . S
C395 C394 1.347 . S
H396 C397 0.951 . S
C397 H396 0.951 . S
C397 C403 1.265 1_554 S
H398 C403 0.950 . S
H399 C407 0.949 . S
H400 C408 0.951 1_545 S
H401 C409 0.953 1_545 S
H402 C410 0.951 1_554 S
C403 C397 1.265 1_556 S
C403 H398 0.950 . S
C403 C404 1.478 . S
C404 C403 1.478 . S
C404 C405 1.397 . S
C404 C421 1.394 . S
C405 C404 1.397 . S
C405 C406 1.438 . S
C405 C410 1.429 . S
C406 C405 1.438 . S
C406 C407 1.428 . S
C406 C419 1.394 . S
C407 H399 0.949 . S
C407 C406 1.428 . S
C407 C408 1.343 . S
C408 H400 0.951 1_565 S
C408 C407 1.343 . S
C408 C409 1.424 . S
C409 H401 0.953 1_565 S
C409 C408 1.424 . S
C409 C410 1.347 . S
C410 H402 0.951 1_556 S
C410 C405 1.429 . S
C410 C409 1.347 . S
H411 C412 0.951 . S
C412 H411 0.951 . S
C412 C418 1.265 . S
H413 C418 0.950 . S
H414 C422 0.949 . S
H415 C423 0.950 . S
H416 C424 0.951 . S
H417 C425 0.951 . S
C418 C412 1.265 . S
C418 H413 0.950 . S
C418 C419 1.478 . S
C419 C406 1.394 . S
C419 C418 1.478 . S
C419 C420 1.397 . S
C420 C419 1.397 . S
C420 C421 1.438 . S
C420 C425 1.429 . S
C421 C404 1.394 . S
C421 C420 1.438 . S
C421 C422 1.428 . S
C422 H414 0.949 . S
C422 C421 1.428 . S
C422 C423 1.345 . S
C423 H415 0.950 . S
C423 C422 1.345 . S
C423 C424 1.424 . S
C424 H416 0.951 . S
C424 C423 1.424 . S
C424 C425 1.347 . S
C425 H417 0.951 . S
C425 C420 1.429 . S
C425 C424 1.347 . S
H426 C427 0.951 . S
C427 H426 0.951 . S
C427 C433 1.265 . S
H428 C433 0.950 . S
H429 C437 0.949 . S
H430 C438 0.950 . S
H431 C439 0.951 . S
H432 C440 0.951 . S
C433 C427 1.265 . S
C433 H428 0.950 . S
C433 C434 1.478 . S
C434 C433 1.478 . S
C434 C435 1.397 . S
C434 C451 1.394 . S
C435 C434 1.397 . S
C435 C436 1.438 . S
C435 C440 1.429 . S
C436 C435 1.438 . S
C436 C437 1.428 . S
C436 C449 1.394 . S
C437 H429 0.949 . S
C437 C436 1.428 . S
C437 C438 1.345 . S
C438 H430 0.950 . S
C438 C437 1.345 . S
C438 C439 1.424 . S
C439 H431 0.951 . S
C439 C438 1.424 . S
C439 C440 1.347 . S
C440 H432 0.951 . S
C440 C435 1.429 . S
C440 C439 1.347 . S
H441 C442 0.951 . S
C442 H441 0.951 . S
C442 C448 1.265 . S
H443 C448 0.950 . S
H444 C452 0.949 . S
H445 C453 0.950 . S
H446 C454 0.951 . S
H447 C455 0.951 . S
C448 C442 1.265 . S
C448 H443 0.950 . S
C448 C449 1.478 . S
C449 C436 1.394 . S
C449 C448 1.478 . S
C449 C450 1.397 . S
C450 C449 1.397 . S
C450 C451 1.438 . S
C450 C455 1.429 . S
C451 C434 1.394 . S
C451 C450 1.438 . S
C451 C452 1.428 . S
C452 H444 0.949 . S
C452 C451 1.428 . S
C452 C453 1.345 . S
C453 H445 0.950 . S
C453 C452 1.345 . S
C453 C454 1.424 . S
C454 H446 0.951 . S
C454 C453 1.424 . S
C454 C455 1.347 . S
C455 H447 0.951 . S
C455 C450 1.429 . S
C455 C454 1.347 . S
C97 C7 1.387 . S
C112 C80 1.420 . S
C142 C74 1.662 . S
C127 C30 1.597 . S
C172 C48 1.455 . S
C157 C9 1.417 . S
C202 C94 1.951 . S
C187 C29 1.950 . S
C232 C89 0.243 . S
C217 C8 0.349 . S
C247 C31 1.888 . S
C262 C70 1.842 . S
C277 C5 1.905 1_556 S
C292 C76 1.816 . S
C307 C26 0.542 . S
C322 C83 0.393 . S
C337 C6 1.969 1_556 S
C352 C92 1.919 . S
C367 C27 1.414 . S
C382 C62 1.485 . S
C412 C78 1.662 . S
C397 C4 1.597 . S
C427 C28 1.400 . S
C442 C86 1.455 . S
