# Generated by pormake.
# Topology zzz, (3,6)-cn, num edge types: 1
# Building blocks:
#     Node 0, Type 0, BuildingBlock: OLANEW_clean_sbu_2, # of connection points: 3
#     Node 1, Type 0, BuildingBlock: OLANEW_clean_sbu_2, # of connection points: 3
#     Node 2, Type 0, BuildingBlock: OLANEW_clean_sbu_2, # of connection points: 3
#     Node 3, Type 0, BuildingBlock: OLANEW_clean_sbu_2, # of connection points: 3
#     Node 4, Type 0, BuildingBlock: OLANEW_clean_sbu_2, # of connection points: 3
#     Node 5, Type 0, BuildingBlock: OLANEW_clean_sbu_2, # of connection points: 3
#     Node 6, Type 0, BuildingBlock: OLANEW_clean_sbu_2, # of connection points: 3
#     Node 7, Type 0, BuildingBlock: OLANEW_clean_sbu_2, # of connection points: 3
#     Node 8, Type 1, BuildingBlock: HISSIN_clean_sbu_0, # of connection points: 6
#     Node 9, Type 1, BuildingBlock: HISSIN_clean_sbu_0, # of connection points: 6
#     Node 10, Type 1, BuildingBlock: HISSIN_clean_sbu_0, # of connection points: 6
#     Node 11, Type 1, BuildingBlock: HISSIN_clean_sbu_0, # of connection points: 6
#     Edge 12, Type (0, 1), BuildingBlock: XIVTED_clean_linker_0, # of connection points: 2
#     Edge 13, Type (0, 1), BuildingBlock: XIVTED_clean_linker_0, # of connection points: 2
#     Edge 14, Type (0, 1), BuildingBlock: XIVTED_clean_linker_0, # of connection points: 2
#     Edge 15, Type (0, 1), BuildingBlock: XIVTED_clean_linker_0, # of connection points: 2
#     Edge 16, Type (0, 1), BuildingBlock: XIVTED_clean_linker_0, # of connection points: 2
#     Edge 17, Type (0, 1), BuildingBlock: XIVTED_clean_linker_0, # of connection points: 2
#     Edge 18, Type (0, 1), BuildingBlock: XIVTED_clean_linker_0, # of connection points: 2
#     Edge 19, Type (0, 1), BuildingBlock: XIVTED_clean_linker_0, # of connection points: 2
#     Edge 20, Type (0, 1), BuildingBlock: XIVTED_clean_linker_0, # of connection points: 2
#     Edge 21, Type (0, 1), BuildingBlock: XIVTED_clean_linker_0, # of connection points: 2
#     Edge 22, Type (0, 1), BuildingBlock: XIVTED_clean_linker_0, # of connection points: 2
#     Edge 23, Type (0, 1), BuildingBlock: XIVTED_clean_linker_0, # of connection points: 2
#     Edge 24, Type (0, 1), BuildingBlock: XIVTED_clean_linker_0, # of connection points: 2
#     Edge 25, Type (0, 1), BuildingBlock: XIVTED_clean_linker_0, # of connection points: 2
#     Edge 26, Type (0, 1), BuildingBlock: XIVTED_clean_linker_0, # of connection points: 2
#     Edge 27, Type (0, 1), BuildingBlock: XIVTED_clean_linker_0, # of connection points: 2
#     Edge 28, Type (0, 1), BuildingBlock: XIVTED_clean_linker_0, # of connection points: 2
#     Edge 29, Type (0, 1), BuildingBlock: XIVTED_clean_linker_0, # of connection points: 2
#     Edge 30, Type (0, 1), BuildingBlock: XIVTED_clean_linker_0, # of connection points: 2
#     Edge 31, Type (0, 1), BuildingBlock: XIVTED_clean_linker_0, # of connection points: 2
#     Edge 32, Type (0, 1), BuildingBlock: XIVTED_clean_linker_0, # of connection points: 2
#     Edge 33, Type (0, 1), BuildingBlock: XIVTED_clean_linker_0, # of connection points: 2
#     Edge 34, Type (0, 1), BuildingBlock: XIVTED_clean_linker_0, # of connection points: 2
#     Edge 35, Type (0, 1), BuildingBlock: XIVTED_clean_linker_0, # of connection points: 2
# Relax obj value: 0.224
# Max RMSD: 0.188
# Mean RMSD: 0.098
data_MOF--net-zzz--node1-OLANEW_clean_sbu_2--node2-HISSIN_clean_sbu_0--edge1-XIVTED_clean_linker_0
_symmetry_space_group_name_H-M    P1
_symmetry_Int_Tables_number       1
_symmetry_cell_setting            triclinic
loop_
_symmetry_equiv_pos_as_xyz
'x, y, z'
_cell_length_a     54.001118
_cell_length_b     53.889836
_cell_length_c     18.48908
_cell_angle_alpha  89.509467
_cell_angle_beta   93.802971
_cell_angle_gamma 90.724064
loop_
_atom_site_label
_atom_site_type_symbol
_atom_site_fract_x
_atom_site_fract_y
_atom_site_fract_z
_atom_type_partial_charge
O0 O 0.76195 0.64224 0.04124 0.0
Cd1 Cd 0.72457 0.6606 0.08322 0.0
O2 O 0.75397 0.61259 0.11835 0.0
Cd3 Cd 0.7612 0.57648 0.16912 0.0
O4 O 0.78744 0.55178 0.22626 0.0
C5 C 0.78988 0.55276 0.29493 0.0
O6 O 0.77488 0.56687 0.32917 0.0
C7 C 0.76757 0.62149 0.0706 0.0
C8 C 0.68489 0.63073 0.03286 0.0
O9 O 0.69049 0.65063 0.99881 0.0
O10 O 0.69754 0.62541 0.0919 0.0
O11 O 0.90367 0.74892 0.01312 0.0
Cd12 Cd 0.87375 0.71525 0.02635 0.0
O13 O 0.89499 0.76912 0.11082 0.0
Cd14 Cd 0.90278 0.79807 0.19166 0.0
O15 O 0.91639 0.82638 0.2686 0.0
C16 C 0.91816 0.84903 0.24968 0.0
O17 O 0.91118 0.85555 0.18286 0.0
C18 C 0.90768 0.7671 0.05567 0.0
C19 C 0.89281 0.67463 0.95763 0.0
O20 O 0.87843 0.68994 0.92265 0.0
O21 O 0.89735 0.67799 0.02579 0.0
O22 O 0.78308 0.95095 0.15415 0.0
Cd23 Cd 0.8211 0.93491 0.21589 0.0
O24 O 0.76538 0.94441 0.25559 0.0
Cd25 Cd 0.73609 0.94742 0.33047 0.0
O26 O 0.70546 0.95205 0.39948 0.0
C27 C 0.68469 0.94181 0.38148 0.0
O28 O 0.68244 0.92841 0.32232 0.0
C29 C 0.76395 0.95216 0.19029 0.0
C30 C 0.86169 0.94571 0.13555 0.0
O31 O 0.85107 0.92432 0.13162 0.0
O32 O 0.85335 0.96177 0.17817 0.0
O33 O 0.46037 0.77315 0.14364 0.0
Cd34 Cd 0.45607 0.81297 0.20274 0.0
O35 O 0.4535 0.75745 0.24995 0.0
Cd36 Cd 0.4523 0.72624 0.32481 0.0
O37 O 0.45879 0.69156 0.38276 0.0
C38 C 0.47611 0.67774 0.36399 0.0
O39 O 0.48929 0.68483 0.31008 0.0
C40 C 0.4575 0.75426 0.18373 0.0
C41 C 0.46433 0.85197 0.10822 0.0
O42 O 0.48187 0.8441 0.15232 0.0
O43 O 0.44293 0.84148 0.10937 0.0
O44 O 0.28412 0.51351 0.20293 0.0
Cd45 Cd 0.32596 0.50777 0.16544 0.0
O46 O 0.27118 0.48008 0.14454 0.0
Cd47 Cd 0.24156 0.45645 0.09638 0.0
O48 O 0.20695 0.45141 0.03105 0.0
C49 C 0.20416 0.46632 0.97766 0.0
O50 O 0.22221 0.48211 0.96558 0.0
C51 C 0.26667 0.49845 0.18417 0.0
C52 C 0.35526 0.48841 0.28088 0.0
O53 O 0.3507 0.51166 0.27597 0.0
O54 O 0.34627 0.47414 0.23036 0.0
O55 O 0.00356 0.26919 0.08062 0.0
Cd56 Cd 0.00775 0.31086 0.03164 0.0
O57 O 0.04261 0.26064 0.06685 0.0
Cd58 Cd 0.07363 0.23482 0.06664 0.0
O59 O 0.08925 0.19955 0.03632 0.0
C60 C 0.08916 0.18107 0.07945 0.0
O61 O 0.08205 0.18422 0.14525 0.0
C62 C 0.02157 0.2543 0.0888 0.0
C63 C 0.00692 0.34264 0.14898 0.0
O64 O 0.98677 0.33588 0.1137 0.0
O65 O 0.02752 0.33503 0.12712 0.0
O66 O 0.21635 0.06305 0.0762 0.0
Cd67 Cd 0.17451 0.07299 0.02779 0.0
O68 O 0.23415 0.09538 0.02718 0.0
Cd69 Cd 0.26754 0.11543 0.99797 0.0
O70 O 0.30385 0.12004 0.95423 0.0
C71 C 0.30473 0.11901 0.88585 0.0
O72 O 0.28385 0.11684 0.84556 0.0
C73 C 0.23573 0.07589 0.06641 0.0
C74 C 0.14311 0.06247 0.13769 0.0
O75 O 0.14865 0.04568 0.09305 0.0
O76 O 0.15168 0.08449 0.1286 0.0
O77 O 0.66495 0.21823 0.29646 0.0
Cd78 Cd 0.66516 0.17977 0.22777 0.0
O79 O 0.63592 0.2252 0.21127 0.0
Cd80 Cd 0.60553 0.24549 0.15607 0.0
O81 O 0.58439 0.2727 0.09166 0.0
C82 C 0.57476 0.29089 0.12222 0.0
O83 O 0.57669 0.29227 0.19329 0.0
C84 C 0.64836 0.23244 0.26817 0.0
C85 C 0.62355 0.15267 0.26372 0.0
O86 O 0.64522 0.14699 0.29071 0.0
O87 O 0.62157 0.17054 0.21774 0.0
Eu88 Eu 0.00425 0.02838 0.65641 0.0
Eu89 Eu 0.04098 0.98338 0.71563 0.0
C90 C 0.04435 0.03606 0.78584 0.0
C91 C 0.98005 0.08053 0.53657 0.0
C92 C 0.99852 0.07558 0.48893 0.0
C93 C 0.96775 0.11653 0.4639 0.0
C94 C 0.00192 0.09129 0.42989 0.0
C95 C 0.96447 0.10085 0.52325 0.0
C96 C 0.98682 0.11217 0.41739 0.0
C97 C 0.97832 0.06555 0.60263 0.0
O98 O 0.01093 0.9844 0.79479 0.0
O99 O 0.98061 0.0071 0.73125 0.0
C100 C 0.9881 0.99265 0.78579 0.0
O101 O 0.00021 0.99736 0.57533 0.0
O102 O 0.06699 0.96885 0.80023 0.0
O103 O 0.05782 0.94708 0.70412 0.0
O104 O 0.00764 0.96583 0.65639 0.0
C105 C 0.9981 0.9739 0.59368 0.0
O106 O 0.04071 0.03479 0.60701 0.0
O107 O 0.05505 0.99496 0.6081 0.0
O108 O 0.05776 0.01983 0.75415 0.0
O109 O 0.97167 0.04237 0.59328 0.0
O110 O 0.99709 0.06802 0.65023 0.0
O111 O 0.02056 0.03782 0.76798 0.0
C112 C 0.05921 0.92587 0.81671 0.0
C113 C 0.05559 0.90217 0.78653 0.0
C114 C 0.03977 0.91137 0.92465 0.0
C115 C 0.04332 0.88355 0.82387 0.0
C116 C 0.05197 0.92998 0.88734 0.0
C117 C 0.03452 0.88824 0.89232 0.0
C118 C 0.06716 0.94686 0.77114 0.0
C119 C 0.05475 0.01767 0.5816 0.0
H120 H 0.01069 0.05989 0.49846 0.0
H121 H 0.95602 0.13261 0.45614 0.0
H122 H 0.01658 0.0873 0.39461 0.0
H123 H 0.95022 0.10496 0.5598 0.0
H124 H 0.06102 0.89845 0.73234 0.0
H125 H 0.03371 0.9154 0.97794 0.0
H126 H 0.03949 0.86596 0.79723 0.0
H127 H 0.05462 0.94794 0.91271 0.0
Eu128 Eu 0.51741 0.0423 0.72551 0.0
Eu129 Eu 0.47916 0.01469 0.59811 0.0
C130 C 0.49025 0.99019 0.75544 0.0
C131 C 0.56962 0.05023 0.87091 0.0
C132 C 0.5718 0.02443 0.8793 0.0
C133 C 0.60843 0.05586 0.94332 0.0
C134 C 0.59225 0.01439 0.9192 0.0
C135 C 0.58791 0.06588 0.90363 0.0
C136 C 0.61098 0.02998 0.95092 0.0
C137 C 0.54932 0.06081 0.82393 0.0
O138 O 0.45533 0.03866 0.66312 0.0
O139 O 0.48333 0.066 0.72015 0.0
C140 C 0.46054 0.05908 0.69963 0.0
O141 O 0.52302 0.06226 0.62048 0.0
O142 O 0.44436 0.99473 0.57033 0.0
O143 O 0.47046 0.00157 0.48816 0.0
O144 O 0.48798 0.05158 0.5485 0.0
C145 C 0.50823 0.06494 0.5617 0.0
O146 O 0.53798 0.00935 0.68686 0.0
O147 O 0.51782 0.00425 0.57447 0.0
O148 O 0.48708 0.98613 0.68557 0.0
O149 O 0.55278 0.06075 0.75488 0.0
O150 O 0.52685 0.05379 0.83713 0.0
O151 O 0.49696 0.01198 0.78155 0.0
C152 C 0.42774 0.00217 0.45111 0.0
C153 C 0.42856 0.02554 0.41712 0.0
C154 C 0.38701 0.99462 0.39114 0.0
C155 C 0.40881 0.03331 0.37006 0.0
C156 C 0.40687 0.98679 0.43777 0.0
C157 C 0.38772 0.01799 0.35665 0.0
C158 C 0.44823 0.99381 0.50154 0.0
C159 C 0.53697 0.00063 0.62061 0.0
H160 H 0.55796 0.01205 0.85365 0.0
H161 H 0.62237 0.06838 0.96773 0.0
H162 H 0.59379 0.9944 0.9232 0.0
H163 H 0.58657 0.08584 0.89738 0.0
H164 H 0.44446 0.0378 0.42695 0.0
H165 H 0.37093 0.98251 0.38322 0.0
H166 H 0.41017 0.05127 0.34382 0.0
H167 H 0.40584 0.96877 0.46397 0.0
Eu168 Eu 0.50244 0.49217 0.8 0.0
Eu169 Eu 0.54343 0.47322 0.68723 0.0
C170 C 0.55761 0.51275 0.8111 0.0
C171 C 0.46932 0.535 0.91934 0.0
C172 C 0.47618 0.55559 0.87788 0.0
C173 C 0.45881 0.56267 0.01522 0.0
C174 C 0.47438 0.57958 0.90491 0.0
C175 C 0.46051 0.53867 0.98792 0.0
C176 C 0.46591 0.58343 0.97427 0.0
C177 C 0.47324 0.50972 0.89371 0.0
O178 O 0.53205 0.43954 0.74969 0.0
O179 O 0.52299 0.45993 0.85219 0.0
C180 C 0.52879 0.43956 0.81927 0.0
O181 O 0.48204 0.4629 0.73304 0.0
O182 O 0.57933 0.45661 0.67329 0.0
O183 O 0.55646 0.46834 0.57876 0.0
O184 O 0.50564 0.46466 0.63385 0.0
C185 C 0.48484 0.45916 0.66392 0.0
O186 O 0.49714 0.51617 0.70061 0.0
O187 O 0.53544 0.5129 0.65423 0.0
O188 O 0.56431 0.49192 0.78228 0.0
O189 O 0.46604 0.50527 0.82621 0.0
O190 O 0.4951 0.50069 0.9116 0.0
O191 O 0.53431 0.5192 0.80854 0.0
C192 C 0.58242 0.43391 0.56578 0.0
C193 C 0.57431 0.41073 0.59082 0.0
C194 C 0.60356 0.41335 0.47156 0.0
C195 C 0.58106 0.38894 0.55687 0.0
C196 C 0.5969 0.43508 0.50572 0.0
C197 C 0.59589 0.39001 0.49709 0.0
C198 C 0.57658 0.45696 0.60266 0.0
C199 C 0.51398 0.52401 0.65739 0.0
H200 H 0.48329 0.5531 0.82499 0.0
H201 H 0.45257 0.56488 0.06922 0.0
H202 H 0.47967 0.59511 0.87144 0.0
H203 H 0.45547 0.52295 0.02101 0.0
H204 H 0.56297 0.40947 0.63695 0.0
H205 H 0.61521 0.41481 0.42619 0.0
H206 H 0.57458 0.37128 0.57724 0.0
H207 H 0.60335 0.45283 0.48578 0.0
Eu208 Eu 0.0085 0.51833 0.57333 0.0
Eu209 Eu 0.98124 0.48655 0.69925 0.0
C210 C 0.03979 0.49113 0.70566 0.0
C211 C 0.05641 0.53902 0.4452 0.0
C212 C 0.07226 0.52016 0.47192 0.0
C213 C 0.08591 0.55019 0.35665 0.0
C214 C 0.09478 0.51626 0.44098 0.0
C215 C 0.06335 0.55405 0.38764 0.0
C216 C 0.10182 0.53116 0.38272 0.0
C217 C 0.03231 0.5424 0.47571 0.0
O218 O 0.9915 0.52484 0.73946 0.0
O219 O 0.98625 0.54571 0.6327 0.0
C220 C 0.98527 0.54502 0.70327 0.0
O221 O 0.96996 0.50922 0.52625 0.0
O222 O 0.97839 0.4775 0.81382 0.0
O223 O 0.95013 0.46427 0.73475 0.0
O224 O 0.95148 0.50718 0.63368 0.0
C225 C 0.94999 0.50935 0.56292 0.0
O226 O 0.01785 0.47839 0.55717 0.0
O227 O 0.98431 0.45985 0.60678 0.0
O228 O 0.02122 0.47571 0.7148 0.0
O229 O 0.01588 0.52498 0.46034 0.0
O230 O 0.03303 0.54873 0.54383 0.0
O231 O 0.03695 0.51145 0.66613 0.0
C232 C 0.93699 0.48352 0.83809 0.0
C233 C 0.93347 0.50826 0.81605 0.0
C234 C 0.90433 0.48787 0.92126 0.0
C235 C 0.91561 0.52266 0.84575 0.0
C236 C 0.92246 0.47336 0.89127 0.0
C237 C 0.90056 0.5126 0.89795 0.0
C238 C 0.95569 0.46908 0.80302 0.0
C239 C 0.00254 0.45947 0.56297 0.0
H240 H 0.06712 0.50837 0.51643 0.0
H241 H 0.09066 0.5618 0.31138 0.0
H242 H 0.10675 0.5017 0.46303 0.0
H243 H 0.05121 0.56859 0.36618 0.0
H244 H 0.94449 0.51646 0.77513 0.0
H245 H 0.89293 0.47961 0.96127 0.0
H246 H 0.91359 0.54175 0.82763 0.0
H247 H 0.92492 0.45428 0.90889 0.0
H248 H 0.12374 0.0944 0.23286 0.0
H249 H 0.08016 0.98634 0.49747 0.0
H250 H 0.12989 0.01642 0.1865 0.0
H251 H 0.06184 0.06351 0.52122 0.0
H252 H 0.10105 0.99718 0.38785 0.0
H253 H 0.10274 0.08355 0.3421 0.0
C254 C 0.12055 0.075 0.24545 0.0
C255 C 0.12861 0.05628 0.20058 0.0
C256 C 0.09249 0.01172 0.41722 0.0
C257 C 0.10486 0.04372 0.32595 0.0
C258 C 0.08071 0.00558 0.48009 0.0
C259 C 0.06923 0.02403 0.5187 0.0
C260 C 0.09291 0.03651 0.39305 0.0
C261 C 0.0704 0.04863 0.49326 0.0
C262 C 0.10859 0.06881 0.30787 0.0
C263 C 0.12394 0.03145 0.21947 0.0
N264 N 0.08201 0.05414 0.43211 0.0
N265 N 0.11251 0.02589 0.28097 0.0
H266 H 0.58008 0.17408 0.2933 0.0
H267 H 0.51102 0.05303 0.42037 0.0
H268 H 0.61715 0.10362 0.2956 0.0
H269 H 0.52697 0.112 0.57323 0.0
H270 H 0.53525 0.07549 0.33196 0.0
H271 H 0.54578 0.15439 0.35505 0.0
C272 C 0.58064 0.15435 0.30507 0.0
C273 C 0.60138 0.14036 0.28991 0.0
C274 C 0.53271 0.08374 0.38414 0.0
C275 C 0.56231 0.11796 0.35779 0.0
C276 C 0.51883 0.07113 0.43418 0.0
C277 C 0.51709 0.08083 0.50376 0.0
C278 C 0.54413 0.10642 0.4035 0.0
C279 C 0.52795 0.10405 0.51992 0.0
C280 C 0.56121 0.14327 0.34026 0.0
C281 C 0.60148 0.11498 0.30689 0.0
N282 N 0.54112 0.11612 0.47002 0.0
N283 N 0.58215 0.10451 0.33999 0.0
H284 H 0.36101 0.50736 0.41674 0.0
H285 H 0.48318 0.43941 0.5278 0.0
H286 H 0.38454 0.44723 0.28591 0.0
H287 H 0.4363 0.46693 0.68874 0.0
H288 H 0.44778 0.4407 0.43802 0.0
H289 H 0.38903 0.49286 0.51702 0.0
C290 C 0.372 0.49099 0.40939 0.0
C291 C 0.3707 0.47857 0.34298 0.0
C292 C 0.44513 0.44583 0.49346 0.0
C293 C 0.4029 0.46206 0.45695 0.0
C294 C 0.46529 0.4451 0.54469 0.0
C295 C 0.46273 0.45337 0.61556 0.0
C296 C 0.42253 0.45549 0.51301 0.0
C297 C 0.43914 0.46048 0.63466 0.0
C298 C 0.3878 0.48261 0.46675 0.0
C299 C 0.38511 0.45733 0.33638 0.0
N300 N 0.42007 0.46198 0.58317 0.0
N301 N 0.40104 0.44998 0.39234 0.0
H302 H 0.96645 0.35617 0.22038 0.0
H303 H 0.04308 0.44665 0.49187 0.0
H304 H 0.0462 0.36425 0.22675 0.0
H305 H 0.96705 0.42495 0.51947 0.0
H306 H 0.04471 0.41619 0.39561 0.0
H307 H 0.96609 0.38159 0.32919 0.0
C308 C 0.98388 0.36333 0.24457 0.0
C309 C 0.00638 0.35822 0.21418 0.0
C310 C 0.02775 0.41784 0.42326 0.0
C311 C 0.0061 0.38722 0.33877 0.0
C312 C 0.02681 0.43523 0.4783 0.0
C313 C 0.00484 0.43843 0.51342 0.0
C314 C 0.00645 0.40379 0.40236 0.0
C315 C 0.98437 0.42305 0.49386 0.0
C316 C 0.98367 0.37769 0.30696 0.0
C317 C 0.02842 0.3678 0.24817 0.0
N318 N 0.98556 0.4066 0.43887 0.0
N319 N 0.02771 0.38196 0.30839 0.0
H320 H 0.89281 0.91418 0.07101 0.0
H321 H 0.94706 0.01801 0.81905 0.0
H322 H 0.87699 0.99186 0.09526 0.0
H323 H 0.98863 0.95193 0.87572 0.0
H324 H 0.91758 0.0066 0.90882 0.0
H325 H 0.92506 0.92558 0.98874 0.0
C326 C 0.89618 0.93361 0.05918 0.0
C327 C 0.8822 0.95213 0.08967 0.0
C328 C 0.93321 0.99466 0.90172 0.0
C329 C 0.91856 0.96516 0.99526 0.0
C330 C 0.94993 0.00106 0.85024 0.0
C331 C 0.97027 0.98587 0.83995 0.0
C332 C 0.93655 0.97266 0.94212 0.0
C333 C 0.97321 0.9642 0.88224 0.0
C334 C 0.9146 0.94007 0.01259 0.0
C335 C 0.88739 0.97702 0.07301 0.0
N336 N 0.95636 0.95808 0.93113 0.0
N337 N 0.90495 0.9828 0.02619 0.0
H338 H 0.50303 0.88533 0.1122 0.0
H339 H 0.46315 0.94756 0.73094 0.0
H340 H 0.43554 0.86501 0.98735 0.0
H341 H 0.50895 0.98581 0.89585 0.0
H342 H 0.45703 0.91363 0.81708 0.0
H343 H 0.50968 0.91911 0.02577 0.0
C344 C 0.48965 0.88795 0.06657 0.0
C345 C 0.46867 0.87242 0.05692 0.0
C346 C 0.46837 0.9295 0.8343 0.0
C347 C 0.47629 0.9107 0.95793 0.0
C348 C 0.47196 0.94878 0.78518 0.0
C349 C 0.48648 0.96954 0.80648 0.0
C350 C 0.47975 0.93082 0.90467 0.0
C351 C 0.49743 0.97022 0.87746 0.0
C352 C 0.49341 0.90725 0.01755 0.0
C353 C 0.45189 0.87665 0.99699 0.0
N354 N 0.49395 0.95105 0.924 0.0
N355 N 0.45614 0.89532 0.94945 0.0
H356 H 0.64633 0.64158 0.93497 0.0
H357 H 0.60454 0.50168 0.86647 0.0
H358 H 0.67893 0.58136 0.06218 0.0
H359 H 0.55355 0.5624 0.8333 0.0
H360 H 0.63532 0.53057 0.92351 0.0
H361 H 0.61494 0.61261 0.88206 0.0
C362 C 0.64682 0.62228 0.95188 0.0
C363 C 0.66515 0.61383 0.00314 0.0
C364 C 0.61734 0.53746 0.90384 0.0
C365 C 0.62973 0.58066 0.94206 0.0
C366 C 0.59987 0.52106 0.87104 0.0
C367 C 0.57649 0.52968 0.84535 0.0
C368 C 0.61152 0.56266 0.90939 0.0
C369 C 0.57131 0.55496 0.8528 0.0
C370 C 0.62891 0.60582 0.92185 0.0
C371 C 0.66498 0.58864 0.02318 0.0
N372 N 0.58877 0.57062 0.88363 0.0
N373 N 0.64767 0.57285 0.99203 0.0
H374 H 0.89128 0.66598 0.81171 0.0
H375 H 0.98273 0.55036 0.84939 0.0
H376 H 0.92261 0.638 0.01686 0.0
H377 H 0.96068 0.58545 0.64476 0.0
H378 H 0.95945 0.58123 0.91147 0.0
H379 H 0.91447 0.63492 0.74943 0.0
C380 C 0.90288 0.65318 0.84372 0.0
C381 C 0.90507 0.65464 0.91964 0.0
C382 C 0.95987 0.58233 0.85306 0.0
C383 C 0.93179 0.61917 0.84862 0.0
C384 C 0.97325 0.56476 0.81751 0.0
C385 C 0.97375 0.56537 0.74169 0.0
C386 C 0.94676 0.60064 0.81258 0.0
C387 C 0.96095 0.58436 0.7033 0.0
C388 C 0.91622 0.63555 0.80807 0.0
C389 C 0.92042 0.6376 0.95826 0.0
N390 N 0.94787 0.60118 0.73915 0.0
N391 N 0.93322 0.6206 0.92231 0.0
H392 H 0.05475 0.2294 0.17973 0.0
H393 H 0.95349 0.13554 0.32192 0.0
H394 H 0.97935 0.22591 0.08748 0.0
H395 H 0.03192 0.13017 0.38096 0.0
H396 H 0.96248 0.16792 0.23339 0.0
H397 H 0.04688 0.19221 0.25112 0.0
C398 C 0.03678 0.22032 0.17261 0.0
C399 C 0.01789 0.23035 0.12612 0.0
C400 C 0.97773 0.15947 0.26522 0.0
C401 C 0.0084 0.18828 0.20989 0.0
C402 C 0.9726 0.1411 0.31598 0.0
C403 C 0.99197 0.13024 0.35911 0.0
C404 C 0.0024 0.16724 0.25815 0.0
C405 C 0.01642 0.1379 0.34851 0.0
C406 C 0.03218 0.19924 0.21415 0.0
C407 C 0.9945 0.2186 0.12227 0.0
N408 N 0.02091 0.15608 0.29962 0.0
N409 N 0.99037 0.19823 0.16384 0.0
H410 H 0.27334 0.10505 0.1265 0.0
H411 H 0.35799 0.99051 0.25998 0.0
H412 H 0.25208 0.02863 0.08861 0.0
H413 H 0.36865 0.06496 0.34196 0.0
H414 H 0.32209 0.00468 0.18411 0.0
H415 H 0.31175 0.09122 0.19121 0.0
C416 C 0.27705 0.08537 0.13032 0.0
C417 C 0.25977 0.06795 0.10102 0.0
C418 C 0.33235 0.0179 0.21861 0.0
C419 C 0.30329 0.05196 0.17668 0.0
C420 C 0.35278 0.00981 0.26232 0.0
C421 C 0.36638 0.02651 0.30796 0.0
C422 C 0.32549 0.04292 0.22002 0.0
C423 C 0.35901 0.05144 0.30716 0.0
C424 C 0.2988 0.07748 0.16812 0.0
C425 C 0.26501 0.04264 0.11018 0.0
N426 N 0.33907 0.05886 0.26403 0.0
N427 N 0.28633 0.03539 0.14713 0.0
H428 H 0.65005 0.24277 0.41254 0.0
H429 H 0.59793 0.3806 0.35197 0.0
H430 H 0.63462 0.27629 0.20211 0.0
H431 H 0.61202 0.34679 0.56288 0.0
H432 H 0.6121 0.34283 0.29616 0.0
H433 H 0.63774 0.28128 0.46901 0.0
C434 C 0.64412 0.25828 0.37828 0.0
C435 C 0.64274 0.25617 0.3026 0.0
C436 C 0.61212 0.34366 0.35466 0.0
C437 C 0.62861 0.30023 0.36653 0.0
C438 C 0.6041 0.36526 0.38658 0.0
C439 C 0.6038 0.3669 0.46228 0.0
C440 C 0.62002 0.32351 0.39868 0.0
C441 C 0.61166 0.34627 0.50431 0.0
C442 C 0.63697 0.2802 0.41046 0.0
C443 C 0.63507 0.27682 0.26063 0.0
N444 N 0.6195 0.32548 0.47198 0.0
N445 N 0.62822 0.29796 0.29313 0.0
H446 H 0.23144 0.46401 0.21824 0.0
H447 H 0.13542 0.5656 0.33733 0.0
H448 H 0.24512 0.54292 0.20689 0.0
H449 H 0.12239 0.48657 0.35139 0.0
H450 H 0.17473 0.55776 0.28384 0.0
H451 H 0.19046 0.47194 0.2609 0.0
C452 C 0.22558 0.48302 0.22303 0.0
C453 C 0.24144 0.50285 0.20726 0.0
C454 C 0.16326 0.54213 0.29852 0.0
C455 C 0.19491 0.51211 0.25874 0.0
C456 C 0.14074 0.5466 0.32874 0.0
C457 C 0.1256 0.52672 0.34917 0.0
C458 C 0.17073 0.51758 0.28851 0.0
C459 C 0.13363 0.50247 0.33755 0.0
C460 C 0.2023 0.48755 0.2484 0.0
C461 C 0.23337 0.5271 0.21804 0.0
N462 N 0.15563 0.49859 0.30809 0.0
N463 N 0.21066 0.53106 0.24306 0.0
H464 H 0.90829 0.81745 0.0759 0.0
H465 H 0.03867 0.83746 0.89953 0.0
H466 H 0.9517 0.75776 0.9988 0.0
H467 H 0.99253 0.8974 0.96237 0.0
H468 H 0.00901 0.80778 0.94667 0.0
H469 H 0.94107 0.84688 0.04651 0.0
C470 C 0.92499 0.81049 0.05442 0.0
C471 C 0.92756 0.78513 0.04117 0.0
C472 C 0.00549 0.82744 0.95064 0.0
C473 C 0.96476 0.81867 0.00504 0.0
C474 C 0.02238 0.84438 0.92354 0.0
C475 C 0.01809 0.86996 0.92679 0.0
C476 C 0.98407 0.83612 0.98099 0.0
C477 C 0.99681 0.87788 0.95947 0.0
C478 C 0.94357 0.82731 0.03675 0.0
C479 C 0.94906 0.77721 0.01002 0.0
N480 N 0.98055 0.86103 0.98487 0.0
N481 N 0.96683 0.79391 0.99297 0.0
H482 H 0.71553 0.94003 0.21344 0.0
H483 H 0.65935 0.04505 0.94261 0.0
H484 H 0.76019 0.98941 0.08987 0.0
H485 H 0.61413 0.99037 0.04575 0.0
H486 H 0.69636 0.02657 0.00273 0.0
H487 H 0.67809 0.95973 0.159 0.0
C488 C 0.71747 0.95531 0.17587 0.0
C489 C 0.74101 0.96348 0.15742 0.0
C490 C 0.67836 0.01861 0.01236 0.0
C491 C 0.69826 0.98568 0.09327 0.0
C492 C 0.65717 0.02928 0.97845 0.0
C493 C 0.63355 0.01928 0.98916 0.0
C494 C 0.676 0.99777 0.05769 0.0
C495 C 0.63196 0.99854 0.0353 0.0
C496 C 0.69608 0.96635 0.14407 0.0
C497 C 0.74239 0.98261 0.10583 0.0
N498 N 0.65288 0.9885 0.0679 0.0
N499 N 0.72135 0.99312 0.07581 0.0
H500 H 0.42917 0.71374 0.21419 0.0
H501 H 0.49911 0.62202 0.96037 0.0
H502 H 0.4882 0.73781 0.08307 0.0
H503 H 0.43071 0.60305 0.05733 0.0
H504 H 0.49725 0.66366 0.01066 0.0
H505 H 0.43168 0.67205 0.16467 0.0
C506 C 0.44296 0.71011 0.17584 0.0
C507 C 0.45891 0.72904 0.15392 0.0
C508 C 0.48263 0.65039 0.02077 0.0
C509 C 0.46143 0.68156 0.09535 0.0
C510 C 0.48358 0.62662 0.99171 0.0
C511 C 0.46498 0.60892 0.00434 0.0
C512 C 0.46303 0.65654 0.06324 0.0
C513 C 0.44564 0.6159 0.04685 0.0
C514 C 0.44418 0.68639 0.14687 0.0
C515 C 0.47569 0.72363 0.10168 0.0
N516 N 0.4452 0.63911 0.07478 0.0
N517 N 0.47662 0.70032 0.07439 0.0
H518 H 0.78192 0.61715 0.93317 0.0
H519 H 0.88723 0.51703 0.03849 0.0
H520 H 0.80159 0.59426 0.15317 0.0
H521 H 0.86877 0.54342 0.82076 0.0
H522 H 0.85571 0.54454 0.08247 0.0
H523 H 0.81453 0.59071 0.89179 0.0
C524 C 0.79317 0.60655 0.97274 0.0
C525 C 0.78862 0.60725 0.04637 0.0
C526 C 0.85862 0.5443 0.02509 0.0
C527 C 0.82587 0.57684 -0.00028 0.0
C528 C 0.87645 0.52847 -6e-05 0.0
C529 C 0.88076 0.52804 0.92593 0.0
C530 C 0.84495 0.55969 0.97574 0.0
C531 C 0.8664 0.54343 0.87844 0.0
C532 C 0.8117 0.59135 0.94917 0.0
C533 C 0.80383 0.59335 0.09557 0.0
N534 N 0.84921 0.5586 0.90414 0.0
N535 N 0.8217 0.57856 0.07136 0.0
H536 H 0.1108 0.16705 0.95662 0.0
H537 H 0.02353 0.05346 0.90456 0.0
H538 H 0.07136 0.13773 0.13474 0.0
H539 H 0.09098 0.05677 0.79218 0.0
H540 H 0.04089 0.08459 0.9896 0.0
H541 H 0.10525 0.12702 0.8955 0.0
C542 C 0.10146 0.15203 0.98355 0.0
C543 C 0.09116 0.15582 0.05024 0.0
C544 C 0.05208 0.07822 0.94711 0.0
C545 C 0.08434 0.11038 0.98014 0.0
C546 C 0.04212 0.06063 0.89833 0.0
C547 C 0.05582 0.05281 0.84118 0.0
C548 C 0.07559 0.08859 0.93727 0.0
C549 C 0.07988 0.06244 0.83566 0.0
C550 C 0.09836 0.1292 0.94876 0.0
C551 C 0.07941 0.13569 0.08306 0.0
N552 N 0.08885 0.08031 0.88227 0.0
N553 N 0.07577 0.11399 0.04682 0.0
H554 H 0.31272 0.11142 0.74339 0.0
H555 H 0.45881 0.09066 0.8151 0.0
H556 H 0.35164 0.12135 0.95298 0.0
H557 H 0.41421 0.06112 0.63269 0.0
H558 H 0.42177 0.11083 0.85638 0.0
H559 H 0.35205 0.10216 0.69242 0.0
C560 C 0.32957 0.11196 0.77859 0.0
C561 C 0.32882 0.11681 0.85284 0.0
C562 C 0.42023 0.10015 0.80691 0.0
C563 C 0.37393 0.10613 0.7947 0.0
C564 C 0.44134 0.08875 0.78318 0.0
C565 C 0.43947 0.07396 0.72091 0.0
C566 C 0.39729 0.09696 0.76742 0.0
C567 C 0.4164 0.07205 0.68161 0.0
C568 C 0.35202 0.1066 0.74943 0.0
C569 C 0.35132 0.11744 0.89559 0.0
N570 N 0.39622 0.08331 0.70568 0.0
N571 N 0.37297 0.11192 0.86603 0.0
H572 H 0.5555 0.33424 0.16906 0.0
H573 H 0.54115 0.39368 0.77103 0.0
H574 H 0.56945 0.29448 0.97435 0.0
H575 H 0.52489 0.43279 0.96496 0.0
H576 H 0.549 0.35628 0.84393 0.0
H577 H 0.54132 0.36958 0.09448 0.0
C578 C 0.55537 0.33285 0.11062 0.0
C579 C 0.56387 0.31145 0.07792 0.0
C580 C 0.54358 0.37301 0.87048 0.0
C581 C 0.54784 0.35188 0.99229 0.0
C582 C 0.53913 0.3944 0.82888 0.0
C583 C 0.53253 0.41647 0.86199 0.0
C584 C 0.54152 0.37371 0.94578 0.0
C585 C 0.53008 0.41624 0.93712 0.0
C586 C 0.54731 0.35305 0.06806 0.0
C587 C 0.56322 0.31067 0.00194 0.0
N588 N 0.53471 0.39524 0.97652 0.0
N589 N 0.55554 0.33066 0.96174 0.0
H590 H 0.16174 0.43859 0.99236 0.0
H591 H 0.08357 0.51533 0.68556 0.0
H592 H 0.19256 0.49652 0.86147 0.0
H593 H 0.05239 0.45502 0.80674 0.0
H594 H 0.12398 0.50747 0.74716 0.0
H595 H 0.12193 0.44292 0.92231 0.0
C596 C 0.16019 0.45209 0.94861 0.0
C597 C 0.18047 0.46732 0.93301 0.0
C598 C 0.10834 0.49588 0.76024 0.0
C599 C 0.13501 0.47244 0.85301 0.0
C600 C 0.0852 0.50041 0.72519 0.0
C601 C 0.06449 0.48593 0.74142 0.0
C602 C 0.11086 0.47679 0.81228 0.0
C603 C 0.06783 0.46669 0.79271 0.0
C604 C 0.13746 0.45457 0.90871 0.0
C605 C 0.17741 0.48447 0.87569 0.0
N606 N 0.09058 0.46277 0.82665 0.0
N607 N 0.1551 0.48664 0.83808 0.0
H608 H 0.93541 0.84148 0.39054 0.0
H609 H 0.97732 0.98304 0.45661 0.0
H610 H 0.92507 0.89901 0.22768 0.0
H611 H 0.98952 0.92433 0.61493 0.0
H612 H 0.95684 0.95305 0.37321 0.0
H613 H 0.95391 0.87211 0.47473 0.0
C614 C 0.93696 0.86058 0.37248 0.0
C615 C 0.92873 0.86765 0.3018 0.0
C616 C 0.96397 0.94676 0.42626 0.0
C617 C 0.94999 0.9029 0.39817 0.0
C618 C 0.97566 0.96387 0.47395 0.0
C619 C 0.98521 0.95619 0.54289 0.0
C620 C 0.96179 0.92179 0.44767 0.0
C621 C 0.9825 0.93112 0.56234 0.0
C622 C 0.94756 0.87808 0.42064 0.0
C623 C 0.93122 0.89269 0.28158 0.0
N624 N 0.97108 0.91484 0.51498 0.0
N625 N 0.94167 0.90941 0.3295 0.0
H626 H 0.63655 0.92718 0.34965 0.0
H627 H 0.58434 0.99878 0.68402 0.0
H628 H 0.68331 0.96661 0.5099 0.0
H629 H 0.53875 0.97269 0.49871 0.0
H630 H 0.62062 0.98074 0.63264 0.0
H631 H 0.6004 0.93751 0.41553 0.0
C632 C 0.63925 0.93784 0.39899 0.0
C633 C 0.66296 0.94627 0.42387 0.0
C634 C 0.60262 0.97881 0.60365 0.0
C635 C 0.62165 0.95816 0.49952 0.0
C636 C 0.5819 0.989 0.63306 0.0
C637 C 0.55854 0.98748 0.59517 0.0
C638 C 0.59988 0.96689 0.53625 0.0
C639 C 0.55645 0.97458 0.52938 0.0
C640 C 0.61859 0.94377 0.43652 0.0
C641 C 0.66534 0.95993 0.48838 0.0
N642 N 0.57687 0.96491 0.50185 0.0
N643 N 0.64491 0.96557 0.52379 0.0
H644 H 0.51426 0.64568 0.34638 0.0
H645 H 0.47338 0.55351 0.65925 0.0
H646 H 0.45081 0.65666 0.47236 0.0
H647 H 0.54169 0.54539 0.55309 0.0
H648 H 0.46401 0.59015 0.58573 0.0
H649 H 0.52371 0.6077 0.41591 0.0
C650 C 0.50228 0.64008 0.38848 0.0
C651 C 0.48176 0.65441 0.40378 0.0
C652 C 0.48107 0.58041 0.57837 0.0
C653 C 0.49246 0.61107 0.48329 0.0
C654 C 0.48645 0.55939 0.62037 0.0
C655 C 0.50841 0.5463 0.61243 0.0
C656 C 0.49769 0.5885 0.52772 0.0
C657 C 0.52458 0.55494 0.56114 0.0
C658 C 0.50772 0.61844 0.4282 0.0
C659 C 0.46688 0.64627 0.45885 0.0
N660 N 0.51889 0.57553 0.52061 0.0
N661 N 0.47253 0.62517 0.49656 0.0
H662 H 0.82921 0.52997 0.23821 0.0
H663 H 0.90556 0.51664 0.62201 0.0
H664 H 0.80037 0.55022 0.44163 0.0
H665 H 0.93836 0.50994 0.41636 0.0
H666 H 0.86526 0.52339 0.5576 0.0
H667 H 0.86745 0.51642 0.3039 0.0
C668 C 0.83077 0.53126 0.29678 0.0
C669 C 0.81163 0.54145 0.33449 0.0
C670 C 0.88126 0.52037 0.52658 0.0
C671 C 0.85544 0.52614 0.40982 0.0
C672 C 0.90429 0.5165 0.56329 0.0
C673 C 0.92542 0.51291 0.52446 0.0
C674 C 0.87928 0.52052 0.4505 0.0
C675 C 0.92261 0.51285 0.44847 0.0
C676 C 0.85267 0.52364 0.33418 0.0
C677 C 0.81471 0.54266 0.41033 0.0
N678 N 0.89996 0.51666 0.41395 0.0
N679 N 0.83627 0.53525 0.44548 0.0
loop_
_geom_bond_atom_site_label_1
_geom_bond_atom_site_label_2
_geom_bond_distance
_geom_bond_site_symmetry_2
_ccdc_geom_bond_type
O0 Cd1 2.300 . S
O0 C7 1.275 . S
Cd1 O0 2.300 . S
Cd1 O9 2.381 . S
Cd1 O10 2.378 . S
O2 Cd3 2.385 . S
O2 C7 1.255 . S
Cd3 O2 2.385 . S
Cd3 O4 2.317 . S
O4 Cd3 2.317 . S
O4 C5 1.232 . S
C5 O4 1.232 . S
C5 O6 1.218 . S
O6 C5 1.218 . S
C7 O0 1.275 . S
C7 O2 1.255 . S
C8 O9 1.258 . S
C8 O10 1.256 . S
O9 Cd1 2.381 . S
O9 C8 1.258 . S
O10 Cd1 2.378 . S
O10 C8 1.256 . S
O11 Cd12 2.300 . S
O11 C18 1.275 . S
Cd12 O11 2.300 . S
Cd12 O20 2.381 . S
Cd12 O21 2.378 . S
O13 Cd14 2.385 1_655 S
O13 C18 1.255 . S
Cd14 O13 2.385 1_455 S
Cd14 O15 2.317 1_455 S
O15 Cd14 2.317 1_655 S
O15 C16 1.232 . S
C16 O15 1.232 . S
C16 O17 1.218 . S
O17 C16 1.218 . S
C18 O11 1.275 . S
C18 O13 1.255 . S
C19 O20 1.258 . S
C19 O21 1.256 . S
O20 Cd12 2.381 . S
O20 C19 1.258 . S
O21 Cd12 2.378 . S
O21 C19 1.256 . S
O22 Cd23 2.300 . S
O22 C29 1.275 . S
Cd23 O22 2.300 . S
Cd23 O31 2.381 . S
Cd23 O32 2.378 . S
O24 Cd25 2.385 1_565 S
O24 C29 1.255 . S
Cd25 O24 2.385 1_545 S
Cd25 O26 2.317 1_545 S
O26 Cd25 2.317 1_565 S
O26 C27 1.232 . S
C27 O26 1.232 . S
C27 O28 1.218 . S
O28 C27 1.218 . S
C29 O22 1.275 . S
C29 O24 1.255 . S
C30 O31 1.258 . S
C30 O32 1.256 . S
O31 Cd23 2.381 . S
O31 C30 1.258 . S
O32 Cd23 2.378 . S
O32 C30 1.256 . S
O33 Cd34 2.300 . S
O33 C40 1.275 . S
Cd34 O33 2.300 . S
Cd34 O42 2.381 . S
Cd34 O43 2.378 . S
O35 Cd36 2.385 . S
O35 C40 1.255 . S
Cd36 O35 2.385 . S
Cd36 O37 2.317 . S
O37 Cd36 2.317 . S
O37 C38 1.232 . S
C38 O37 1.232 . S
C38 O39 1.218 . S
O39 C38 1.218 . S
C40 O33 1.275 . S
C40 O35 1.255 . S
C41 O42 1.258 . S
C41 O43 1.256 . S
O42 Cd34 2.381 . S
O42 C41 1.258 . S
O43 Cd34 2.378 . S
O43 C41 1.256 . S
O44 Cd45 2.300 . S
O44 C51 1.275 . S
Cd45 O44 2.300 . S
Cd45 O53 2.381 . S
Cd45 O54 2.378 . S
O46 Cd47 2.385 . S
O46 C51 1.255 . S
Cd47 O46 2.385 . S
Cd47 O48 2.317 1_554 S
O48 Cd47 2.317 1_556 S
O48 C49 1.232 . S
C49 O48 1.232 . S
C49 O50 1.218 . S
O50 C49 1.218 . S
C51 O44 1.275 . S
C51 O46 1.255 . S
C52 O53 1.258 . S
C52 O54 1.256 . S
O53 Cd45 2.381 . S
O53 C52 1.258 . S
O54 Cd45 2.378 . S
O54 C52 1.256 . S
O55 Cd56 2.300 . S
O55 C62 1.275 . S
Cd56 O55 2.300 . S
Cd56 O64 2.381 . S
Cd56 O65 2.378 . S
O57 Cd58 2.385 . S
O57 C62 1.255 . S
Cd58 O57 2.385 . S
Cd58 O59 2.317 1_554 S
O59 Cd58 2.317 1_556 S
O59 C60 1.232 . S
C60 O59 1.232 . S
C60 O61 1.218 . S
O61 C60 1.218 . S
C62 O55 1.275 . S
C62 O57 1.255 . S
C63 O64 1.258 . S
C63 O65 1.256 . S
O64 Cd56 2.381 . S
O64 C63 1.258 . S
O65 Cd56 2.378 . S
O65 C63 1.256 . S
O66 Cd67 2.300 . S
O66 C73 1.275 . S
Cd67 O66 2.300 . S
Cd67 O75 2.381 . S
Cd67 O76 2.378 . S
O68 Cd69 2.385 1_554 S
O68 C73 1.255 . S
Cd69 O68 2.385 1_556 S
Cd69 O70 2.317 . S
O70 Cd69 2.317 . S
O70 C71 1.232 . S
C71 O70 1.232 . S
C71 O72 1.218 . S
O72 C71 1.218 . S
C73 O66 1.275 . S
C73 O68 1.255 . S
C74 O75 1.258 . S
C74 O76 1.256 . S
O75 Cd67 2.381 . S
O75 C74 1.258 . S
O76 Cd67 2.378 . S
O76 C74 1.256 . S
O77 Cd78 2.300 . S
O77 C84 1.275 . S
Cd78 O77 2.300 . S
Cd78 O86 2.381 . S
Cd78 O87 2.378 . S
O79 Cd80 2.385 . S
O79 C84 1.255 . S
Cd80 O79 2.385 . S
Cd80 O81 2.317 1_554 S
O81 Cd80 2.317 1_556 S
O81 C82 1.232 . S
C82 O81 1.232 . S
C82 O83 1.218 . S
O83 C82 1.218 . S
C84 O77 1.275 . S
C84 O79 1.255 . S
C85 O86 1.258 . S
C85 O87 1.256 . S
O86 Cd78 2.381 . S
O86 C85 1.258 . S
O87 Cd78 2.378 . S
O87 C85 1.256 . S
Eu88 C97 2.828 . S
Eu88 O99 2.392 . S
Eu88 O101 2.418 1_545 S
Eu88 O106 2.373 1_655 S
Eu88 O109 2.488 . S
Eu88 O110 2.482 . S
Eu88 O111 2.349 1_655 S
Eu89 O98 2.373 1_455 S
Eu89 O102 2.488 . S
Eu89 O103 2.471 . S
Eu89 O104 2.349 . S
Eu89 O107 2.392 1_565 S
Eu89 O108 2.418 1_565 S
Eu89 C118 2.828 . S
C90 O108 1.244 . S
C90 O111 1.265 . S
C91 C92 1.379 1_655 S
C91 C95 1.373 . S
C91 C97 1.505 . S
C92 C91 1.379 1_455 S
C92 C94 1.369 . S
C92 H120 0.930 . S
C93 C95 1.383 . S
C93 C96 1.382 1_655 S
C93 H121 0.930 . S
C94 C92 1.369 . S
C94 C96 1.392 . S
C94 H122 0.930 . S
C95 C91 1.373 . S
C95 C93 1.383 . S
C95 H123 0.931 . S
C96 C93 1.382 1_455 S
C96 C94 1.392 . S
C97 Eu88 2.828 . S
C97 C91 1.505 . S
C97 O109 1.249 . S
C97 O110 1.252 . S
O98 Eu89 2.373 1_655 S
O98 C100 1.258 1_565 S
O99 Eu88 2.392 . S
O99 C100 1.242 . S
C100 O98 1.258 1_545 S
C100 O99 1.242 . S
O101 Eu88 2.418 1_565 S
O101 C105 1.244 . S
O102 Eu89 2.488 . S
O102 C118 1.249 . S
O103 Eu89 2.471 . S
O103 C118 1.244 . S
O104 Eu89 2.349 . S
O104 C105 1.265 1_455 S
C105 O101 1.244 . S
C105 O104 1.265 1_655 S
O106 Eu88 2.373 1_455 S
O106 C119 1.258 . S
O107 Eu89 2.392 1_545 S
O107 C119 1.242 . S
O108 Eu89 2.418 1_545 S
O108 C90 1.244 . S
O109 Eu88 2.488 . S
O109 C97 1.249 . S
O110 Eu88 2.482 . S
O110 C97 1.252 . S
O111 Eu88 2.349 1_455 S
O111 C90 1.265 . S
C112 C113 1.379 . S
C112 C116 1.373 . S
C112 C118 1.505 . S
C113 C112 1.379 . S
C113 C115 1.362 1_455 S
C113 H124 0.930 1_455 S
C114 C116 1.383 1_554 S
C114 C117 1.382 . S
C114 H125 0.930 . S
C115 C113 1.362 1_655 S
C115 C117 1.379 1_656 S
C115 H126 0.952 . S
C116 C112 1.373 . S
C116 C114 1.383 1_556 S
C116 H127 0.931 . S
C117 C114 1.382 . S
C117 C115 1.379 1_454 S
C118 Eu89 2.828 . S
C118 O102 1.249 . S
C118 O103 1.244 . S
C118 C112 1.505 . S
C119 O106 1.258 . S
C119 O107 1.242 . S
H120 C92 0.930 . S
H121 C93 0.930 . S
H122 C94 0.930 . S
H123 C95 0.931 . S
H124 C113 0.930 1_655 S
H125 C114 0.930 . S
H126 C115 0.952 . S
H127 C116 0.931 . S
Eu128 C137 2.828 . S
Eu128 O139 2.392 . S
Eu128 O141 2.418 . S
Eu128 O146 2.373 . S
Eu128 O149 2.488 . S
Eu128 O150 2.471 . S
Eu128 O151 2.349 1_545 S
Eu129 O138 2.373 1_565 S
Eu129 O142 2.488 . S
Eu129 O143 2.471 1_565 S
Eu129 O144 2.349 1_565 S
Eu129 O147 2.392 . S
Eu129 O148 2.418 . S
Eu129 C158 2.828 . S
C130 O148 1.244 . S
C130 O151 1.265 . S
C131 C132 1.379 . S
C131 C135 1.373 . S
C131 C137 1.505 . S
C132 C131 1.379 . S
C132 C134 1.369 . S
C132 H160 0.930 1_545 S
C133 C135 1.383 . S
C133 C136 1.382 . S
C133 H161 0.930 . S
C134 C132 1.369 . S
C134 C136 1.392 . S
C134 H162 0.930 1_545 S
C135 C131 1.373 . S
C135 C133 1.383 . S
C135 H163 0.931 . S
C136 C133 1.382 . S
C136 C134 1.392 . S
C137 Eu128 2.828 . S
C137 C131 1.505 . S
C137 O149 1.249 . S
C137 O150 1.244 . S
O138 Eu129 2.373 1_545 S
O138 C140 1.258 . S
O139 Eu128 2.392 . S
O139 C140 1.242 . S
C140 O138 1.258 . S
C140 O139 1.242 . S
O141 Eu128 2.418 . S
O141 C145 1.244 . S
O142 Eu129 2.488 . S
O142 C158 1.249 . S
O143 Eu129 2.471 1_545 S
O143 C158 1.244 1_545 S
O144 Eu129 2.349 1_545 S
O144 C145 1.265 . S
C145 O141 1.244 . S
C145 O144 1.265 . S
O146 Eu128 2.373 . S
O146 C159 1.258 1_545 S
O147 Eu129 2.392 . S
O147 C159 1.242 . S
O148 Eu129 2.418 . S
O148 C130 1.244 . S
O149 Eu128 2.488 . S
O149 C137 1.249 . S
O150 Eu128 2.471 . S
O150 C137 1.244 . S
O151 Eu128 2.349 1_565 S
O151 C130 1.265 . S
C152 C153 1.379 1_565 S
C152 C156 1.373 . S
C152 C158 1.505 . S
C153 C152 1.379 1_545 S
C153 C155 1.369 . S
C153 H164 0.930 . S
C154 C156 1.383 . S
C154 C157 1.400 . S
C154 H165 0.930 . S
C155 C153 1.369 . S
C155 C157 1.376 1_545 S
C155 H166 0.930 . S
C156 C152 1.373 . S
C156 C154 1.383 . S
C156 H167 0.931 . S
C157 C154 1.400 . S
C157 C155 1.376 1_565 S
C158 Eu129 2.828 . S
C158 O142 1.249 . S
C158 O143 1.244 1_565 S
C158 C152 1.505 . S
C159 O146 1.258 1_565 S
C159 O147 1.242 . S
H160 C132 0.930 1_565 S
H161 C133 0.930 . S
H162 C134 0.930 1_565 S
H163 C135 0.931 . S
H164 C153 0.930 . S
H165 C154 0.930 . S
H166 C155 0.930 . S
H167 C156 0.931 . S
Eu168 C177 2.828 . S
Eu168 O179 2.392 . S
Eu168 O181 2.418 . S
Eu168 O186 2.373 . S
Eu168 O189 2.488 . S
Eu168 O190 2.471 . S
Eu168 O191 2.349 . S
Eu169 O178 2.373 . S
Eu169 O182 2.488 . S
Eu169 O183 2.471 . S
Eu169 O184 2.349 . S
Eu169 O187 2.392 . S
Eu169 O188 2.418 . S
Eu169 C198 2.828 . S
C170 O188 1.244 . S
C170 O191 1.265 . S
C171 C172 1.379 . S
C171 C175 1.373 . S
C171 C177 1.505 . S
C172 C171 1.379 . S
C172 C174 1.369 . S
C172 H200 0.930 . S
C173 C175 1.383 . S
C173 C176 1.382 . S
C173 H201 0.930 . S
C174 C172 1.369 . S
C174 C176 1.392 . S
C174 H202 0.930 . S
C175 C171 1.373 . S
C175 C173 1.383 . S
C175 H203 0.931 . S
C176 C173 1.382 . S
C176 C174 1.392 . S
C177 Eu168 2.828 . S
C177 C171 1.505 . S
C177 O189 1.249 . S
C177 O190 1.244 . S
O178 Eu169 2.373 . S
O178 C180 1.258 . S
O179 Eu168 2.392 . S
O179 C180 1.242 . S
C180 O178 1.258 . S
C180 O179 1.242 . S
O181 Eu168 2.418 . S
O181 C185 1.244 . S
O182 Eu169 2.488 . S
O182 C198 1.249 . S
O183 Eu169 2.471 . S
O183 C198 1.244 . S
O184 Eu169 2.349 . S
O184 C185 1.265 . S
C185 O181 1.244 . S
C185 O184 1.265 . S
O186 Eu168 2.373 . S
O186 C199 1.258 . S
O187 Eu169 2.392 . S
O187 C199 1.242 . S
O188 Eu169 2.418 . S
O188 C170 1.244 . S
O189 Eu168 2.488 . S
O189 C177 1.249 . S
O190 Eu168 2.471 . S
O190 C177 1.244 . S
O191 Eu168 2.349 . S
O191 C170 1.265 . S
C192 C193 1.379 . S
C192 C196 1.373 . S
C192 C198 1.505 . S
C193 C192 1.379 . S
C193 C195 1.369 . S
C193 H204 0.930 . S
C194 C196 1.383 . S
C194 C197 1.382 . S
C194 H205 0.930 . S
C195 C193 1.369 . S
C195 C197 1.392 . S
C195 H206 0.930 . S
C196 C192 1.373 . S
C196 C194 1.383 . S
C196 H207 0.931 . S
C197 C194 1.382 . S
C197 C195 1.392 . S
C198 Eu169 2.828 . S
C198 O182 1.249 . S
C198 O183 1.244 . S
C198 C192 1.505 . S
C199 O186 1.258 . S
C199 O187 1.242 . S
H200 C172 0.930 . S
H201 C173 0.930 . S
H202 C174 0.930 . S
H203 C175 0.931 . S
H204 C193 0.930 . S
H205 C194 0.930 . S
H206 C195 0.930 . S
H207 C196 0.931 . S
Eu208 C217 2.828 . S
Eu208 O219 2.392 . S
Eu208 O221 2.418 1_455 S
Eu208 O226 2.373 . S
Eu208 O229 2.488 . S
Eu208 O230 2.471 . S
Eu208 O231 2.349 . S
Eu209 O218 2.373 . S
Eu209 O222 2.488 . S
Eu209 O223 2.471 . S
Eu209 O224 2.349 . S
Eu209 O227 2.392 1_655 S
Eu209 O228 2.418 1_655 S
Eu209 C238 2.828 . S
C210 O228 1.244 . S
C210 O231 1.265 . S
C211 C212 1.379 . S
C211 C215 1.373 . S
C211 C217 1.505 . S
C212 C211 1.379 . S
C212 C214 1.369 . S
C212 H240 0.930 . S
C213 C215 1.383 . S
C213 C216 1.382 . S
C213 H241 0.930 . S
C214 C212 1.369 . S
C214 C216 1.392 . S
C214 H242 0.930 . S
C215 C211 1.373 . S
C215 C213 1.383 . S
C215 H243 0.931 . S
C216 C213 1.382 . S
C216 C214 1.392 . S
C217 Eu208 2.828 . S
C217 C211 1.505 . S
C217 O229 1.249 . S
C217 O230 1.244 . S
O218 Eu209 2.373 . S
O218 C220 1.252 1_655 S
O219 Eu208 2.392 . S
O219 C220 1.255 . S
C220 O218 1.252 1_455 S
C220 O219 1.255 . S
O221 Eu208 2.418 1_655 S
O221 C225 1.244 . S
O222 Eu209 2.488 . S
O222 C238 1.249 . S
O223 Eu209 2.471 . S
O223 C238 1.244 . S
O224 Eu209 2.349 . S
O224 C225 1.265 . S
C225 O221 1.244 . S
C225 O224 1.265 . S
O226 Eu208 2.373 . S
O226 C239 1.258 . S
O227 Eu209 2.392 1_455 S
O227 C239 1.242 . S
O228 Eu209 2.418 1_455 S
O228 C210 1.244 . S
O229 Eu208 2.488 . S
O229 C217 1.249 . S
O230 Eu208 2.471 . S
O230 C217 1.244 . S
O231 Eu208 2.349 . S
O231 C210 1.265 . S
C232 C233 1.379 . S
C232 C236 1.373 . S
C232 C238 1.505 . S
C233 C232 1.379 . S
C233 C235 1.369 . S
C233 H244 0.930 . S
C234 C236 1.383 1_554 S
C234 C237 1.382 1_554 S
C234 H245 0.930 . S
C235 C233 1.369 . S
C235 C237 1.392 . S
C235 H246 0.930 . S
C236 C232 1.373 . S
C236 C234 1.383 1_556 S
C236 H247 0.931 . S
C237 C234 1.382 1_556 S
C237 C235 1.392 . S
C238 Eu209 2.828 . S
C238 O222 1.249 . S
C238 O223 1.244 . S
C238 C232 1.505 . S
C239 O226 1.258 . S
C239 O227 1.242 . S
H240 C212 0.930 . S
H241 C213 0.930 . S
H242 C214 0.930 . S
H243 C215 0.931 . S
H244 C233 0.930 . S
H245 C234 0.930 . S
H246 C235 0.930 . S
H247 C236 0.931 . S
H248 C254 0.930 . S
H249 C258 0.926 1_565 S
H250 C263 0.929 . S
H251 C261 0.929 . S
H252 C256 0.929 . S
H253 C262 0.929 . S
C254 H248 0.930 . S
C254 C255 1.367 . S
C254 C262 1.378 . S
C255 C254 1.367 . S
C255 C263 1.433 . S
C256 H252 0.929 . S
C256 C258 1.378 . S
C256 C260 1.350 . S
C257 C260 1.463 . S
C257 C262 1.350 . S
C257 N265 1.427 . S
C258 H249 0.926 1_545 S
C258 C256 1.378 . S
C258 C259 1.367 . S
C259 C258 1.367 . S
C259 C261 1.433 . S
C260 C256 1.350 . S
C260 C257 1.463 . S
C260 N264 1.427 . S
C261 H251 0.929 . S
C261 C259 1.433 . S
C261 N264 1.384 . S
C262 H253 0.929 . S
C262 C254 1.378 . S
C262 C257 1.350 . S
C263 H250 0.929 . S
C263 C255 1.433 . S
C263 N265 1.384 . S
N264 C260 1.427 . S
N264 C261 1.384 . S
N265 C257 1.427 . S
N265 C263 1.384 . S
H266 C272 0.930 . S
H267 C276 0.930 . S
H268 C281 0.929 . S
H269 C279 0.929 . S
H270 C274 0.929 . S
H271 C280 0.929 . S
C272 H266 0.930 . S
C272 C273 1.367 . S
C272 C280 1.378 . S
C273 C272 1.367 . S
C273 C281 1.433 . S
C274 H270 0.929 . S
C274 C276 1.378 . S
C274 C278 1.350 . S
C275 C278 1.463 . S
C275 C280 1.350 . S
C275 N283 1.427 . S
C276 H267 0.930 . S
C276 C274 1.378 . S
C276 C277 1.367 . S
C277 C276 1.367 . S
C277 C279 1.433 . S
C278 C274 1.350 . S
C278 C275 1.463 . S
C278 N282 1.427 . S
C279 H269 0.929 . S
C279 C277 1.433 . S
C279 N282 1.384 . S
C280 H271 0.929 . S
C280 C272 1.378 . S
C280 C275 1.350 . S
C281 H268 0.929 . S
C281 C273 1.433 . S
C281 N283 1.384 . S
N282 C278 1.427 . S
N282 C279 1.384 . S
N283 C275 1.427 . S
N283 C281 1.384 . S
H284 C290 0.930 . S
H285 C294 0.930 . S
H286 C299 0.929 . S
H287 C297 0.929 . S
H288 C292 0.929 . S
H289 C298 0.929 . S
C290 H284 0.930 . S
C290 C291 1.367 . S
C290 C298 1.378 . S
C291 C290 1.367 . S
C291 C299 1.433 . S
C292 H288 0.929 . S
C292 C294 1.378 . S
C292 C296 1.350 . S
C293 C296 1.463 . S
C293 C298 1.350 . S
C293 N301 1.427 . S
C294 H285 0.930 . S
C294 C292 1.378 . S
C294 C295 1.367 . S
C295 C294 1.367 . S
C295 C297 1.433 . S
C296 C292 1.350 . S
C296 C293 1.463 . S
C296 N300 1.427 . S
C297 H287 0.929 . S
C297 C295 1.433 . S
C297 N300 1.384 . S
C298 H289 0.929 . S
C298 C290 1.378 . S
C298 C293 1.350 . S
C299 H286 0.929 . S
C299 C291 1.433 . S
C299 N301 1.384 . S
N300 C296 1.427 . S
N300 C297 1.384 . S
N301 C293 1.427 . S
N301 C299 1.384 . S
H302 C308 0.930 . S
H303 C312 0.930 . S
H304 C317 0.929 . S
H305 C315 0.929 1_655 S
H306 C310 0.929 . S
H307 C316 0.929 . S
C308 H302 0.930 . S
C308 C309 1.367 . S
C308 C316 1.378 . S
C309 C308 1.367 . S
C309 C317 1.433 . S
C310 H306 0.929 . S
C310 C312 1.378 . S
C310 C314 1.350 . S
C311 C314 1.463 . S
C311 C316 1.350 . S
C311 N319 1.427 . S
C312 H303 0.930 . S
C312 C310 1.378 . S
C312 C313 1.367 . S
C313 C312 1.367 . S
C313 C315 1.433 . S
C314 C310 1.350 . S
C314 C311 1.463 . S
C314 N318 1.427 . S
C315 H305 0.929 1_455 S
C315 C313 1.433 . S
C315 N318 1.384 . S
C316 H307 0.929 . S
C316 C308 1.378 . S
C316 C311 1.350 . S
C317 H304 0.929 . S
C317 C309 1.433 . S
C317 N319 1.384 . S
N318 C314 1.427 . S
N318 C315 1.384 . S
N319 C311 1.427 . S
N319 C317 1.384 . S
H320 C326 0.930 . S
H321 C330 0.930 . S
H322 C335 0.929 1_545 S
H323 C333 0.929 . S
H324 C328 0.929 . S
H325 C334 0.929 . S
C326 H320 0.930 . S
C326 C327 1.367 . S
C326 C334 1.378 . S
C327 C326 1.367 . S
C327 C335 1.433 . S
C328 H324 0.929 . S
C328 C330 1.378 . S
C328 C332 1.350 1_545 S
C329 C332 1.463 1_554 S
C329 C334 1.350 . S
C329 N337 1.427 1_565 S
C330 H321 0.930 . S
C330 C328 1.378 . S
C330 C331 1.367 1_545 S
C331 C330 1.367 1_565 S
C331 C333 1.433 . S
C332 C328 1.350 1_565 S
C332 C329 1.463 1_556 S
C332 N336 1.427 . S
C333 H323 0.929 . S
C333 C331 1.433 . S
C333 N336 1.384 . S
C334 H325 0.929 . S
C334 C326 1.378 . S
C334 C329 1.350 . S
C335 H322 0.929 1_565 S
C335 C327 1.433 . S
C335 N337 1.384 1_565 S
N336 C332 1.427 . S
N336 C333 1.384 . S
N337 C329 1.427 1_545 S
N337 C335 1.384 1_545 S
H338 C344 0.930 . S
H339 C348 0.930 . S
H340 C353 0.929 . S
H341 C351 0.929 . S
H342 C346 0.929 . S
H343 C352 0.929 . S
C344 H338 0.930 . S
C344 C345 1.367 . S
C344 C352 1.378 . S
C345 C344 1.367 . S
C345 C353 1.433 . S
C346 H342 0.929 . S
C346 C348 1.378 . S
C346 C350 1.350 . S
C347 C350 1.463 . S
C347 C352 1.350 1_556 S
C347 N355 1.427 . S
C348 H339 0.930 . S
C348 C346 1.378 . S
C348 C349 1.367 . S
C349 C348 1.367 . S
C349 C351 1.433 . S
C350 C346 1.350 . S
C350 C347 1.463 . S
C350 N354 1.427 . S
C351 H341 0.929 . S
C351 C349 1.433 . S
C351 N354 1.384 . S
C352 H343 0.929 . S
C352 C344 1.378 . S
C352 C347 1.350 1_554 S
C353 H340 0.929 . S
C353 C345 1.433 . S
C353 N355 1.384 1_554 S
N354 C350 1.427 . S
N354 C351 1.384 . S
N355 C347 1.427 . S
N355 C353 1.384 1_556 S
H356 C362 0.930 . S
H357 C366 0.930 . S
H358 C371 0.929 . S
H359 C369 0.929 . S
H360 C364 0.929 . S
H361 C370 0.929 . S
C362 H356 0.930 . S
C362 C363 1.367 . S
C362 C370 1.378 1_554 S
C363 C362 1.367 . S
C363 C371 1.433 . S
C364 H360 0.929 . S
C364 C366 1.378 . S
C364 C368 1.350 . S
C365 C368 1.463 . S
C365 C370 1.350 . S
C365 N373 1.427 1_556 S
C366 H357 0.930 . S
C366 C364 1.378 . S
C366 C367 1.367 . S
C367 C366 1.367 . S
C367 C369 1.433 . S
C368 C364 1.350 . S
C368 C365 1.463 . S
C368 N372 1.427 . S
C369 H359 0.929 . S
C369 C367 1.433 . S
C369 N372 1.384 . S
C370 H361 0.929 . S
C370 C362 1.378 1_556 S
C370 C365 1.350 . S
C371 H358 0.929 . S
C371 C363 1.433 . S
C371 N373 1.384 . S
N372 C368 1.427 . S
N372 C369 1.384 . S
N373 C365 1.427 1_554 S
N373 C371 1.384 . S
H374 C380 0.930 . S
H375 C384 0.930 . S
H376 C389 0.929 . S
H377 C387 0.929 . S
H378 C382 0.929 1_554 S
H379 C388 0.929 1_556 S
C380 H374 0.930 . S
C380 C381 1.367 . S
C380 C388 1.378 . S
C381 C380 1.367 . S
C381 C389 1.433 . S
C382 H378 0.929 1_556 S
C382 C384 1.378 . S
C382 C386 1.350 . S
C383 C386 1.463 1_554 S
C383 C388 1.350 . S
C383 N391 1.427 . S
C384 H375 0.930 . S
C384 C382 1.378 . S
C384 C385 1.367 . S
C385 C384 1.367 . S
C385 C387 1.433 . S
C386 C382 1.350 . S
C386 C383 1.463 1_556 S
C386 N390 1.427 . S
C387 H377 0.929 . S
C387 C385 1.433 . S
C387 N390 1.384 . S
C388 H379 0.929 1_554 S
C388 C380 1.378 . S
C388 C383 1.350 . S
C389 H376 0.929 . S
C389 C381 1.433 . S
C389 N391 1.384 . S
N390 C386 1.427 . S
N390 C387 1.384 . S
N391 C383 1.427 . S
N391 C389 1.384 . S
H392 C398 0.930 . S
H393 C402 0.930 . S
H394 C407 0.929 . S
H395 C405 0.929 . S
H396 C400 0.929 . S
H397 C406 0.929 . S
C398 H392 0.930 . S
C398 C399 1.367 . S
C398 C406 1.378 . S
C399 C398 1.367 . S
C399 C407 1.433 . S
C400 H396 0.929 . S
C400 C402 1.378 . S
C400 C404 1.350 . S
C401 C404 1.463 . S
C401 C406 1.350 . S
C401 N409 1.427 . S
C402 H393 0.930 . S
C402 C400 1.378 . S
C402 C403 1.367 . S
C403 C402 1.367 . S
C403 C405 1.433 . S
C404 C400 1.350 . S
C404 C401 1.463 . S
C404 N408 1.427 . S
C405 H395 0.929 . S
C405 C403 1.433 . S
C405 N408 1.384 . S
C406 H397 0.929 . S
C406 C398 1.378 . S
C406 C401 1.350 . S
C407 H394 0.929 . S
C407 C399 1.433 . S
C407 N409 1.384 . S
N408 C404 1.427 . S
N408 C405 1.384 . S
N409 C401 1.427 . S
N409 C407 1.384 . S
H410 C416 0.930 . S
H411 C420 0.930 . S
H412 C425 0.929 . S
H413 C423 0.929 . S
H414 C418 0.929 . S
H415 C424 0.929 . S
C416 H410 0.930 . S
C416 C417 1.367 . S
C416 C424 1.378 . S
C417 C416 1.367 . S
C417 C425 1.433 . S
C418 H414 0.929 . S
C418 C420 1.378 . S
C418 C422 1.350 1_565 S
C419 C422 1.463 . S
C419 C424 1.350 . S
C419 N427 1.427 . S
C420 H411 0.930 . S
C420 C418 1.378 . S
C420 C421 1.351 1_565 S
C421 C420 1.351 1_545 S
C421 C423 1.460 . S
C422 C418 1.350 1_545 S
C422 C419 1.463 . S
C422 N426 1.427 . S
C423 H413 0.929 . S
C423 C421 1.460 . S
C423 N426 1.384 . S
C424 H415 0.929 . S
C424 C416 1.378 . S
C424 C419 1.350 . S
C425 H412 0.929 . S
C425 C417 1.433 . S
C425 N427 1.384 . S
N426 C422 1.427 . S
N426 C423 1.384 . S
N427 C419 1.427 . S
N427 C425 1.384 . S
H428 C434 0.930 . S
H429 C438 0.930 . S
H430 C443 0.929 . S
H431 C441 0.929 . S
H432 C436 0.929 . S
H433 C442 0.929 . S
C434 H428 0.930 . S
C434 C435 1.367 . S
C434 C442 1.378 . S
C435 C434 1.367 . S
C435 C443 1.433 . S
C436 H432 0.929 . S
C436 C438 1.378 . S
C436 C440 1.350 . S
C437 C440 1.463 . S
C437 C442 1.350 . S
C437 N445 1.427 . S
C438 H429 0.930 . S
C438 C436 1.378 . S
C438 C439 1.367 . S
C439 C438 1.367 . S
C439 C441 1.433 . S
C440 C436 1.350 . S
C440 C437 1.463 . S
C440 N444 1.427 . S
C441 H431 0.929 . S
C441 C439 1.433 . S
C441 N444 1.384 . S
C442 H433 0.929 . S
C442 C434 1.378 . S
C442 C437 1.350 . S
C443 H430 0.929 . S
C443 C435 1.433 . S
C443 N445 1.384 . S
N444 C440 1.427 . S
N444 C441 1.384 . S
N445 C437 1.427 . S
N445 C443 1.384 . S
H446 C452 0.930 . S
H447 C456 0.930 . S
H448 C461 0.929 . S
H449 C459 0.929 . S
H450 C454 0.929 . S
H451 C460 0.929 . S
C452 H446 0.930 . S
C452 C453 1.367 . S
C452 C460 1.378 . S
C453 C452 1.367 . S
C453 C461 1.433 . S
C454 H450 0.929 . S
C454 C456 1.378 . S
C454 C458 1.350 . S
C455 C458 1.463 . S
C455 C460 1.350 . S
C455 N463 1.427 . S
C456 H447 0.930 . S
C456 C454 1.378 . S
C456 C457 1.367 . S
C457 C456 1.367 . S
C457 C459 1.433 . S
C458 C454 1.350 . S
C458 C455 1.463 . S
C458 N462 1.427 . S
C459 H449 0.929 . S
C459 C457 1.433 . S
C459 N462 1.384 . S
C460 H451 0.929 . S
C460 C452 1.378 . S
C460 C455 1.350 . S
C461 H448 0.929 . S
C461 C453 1.433 . S
C461 N463 1.384 . S
N462 C458 1.427 . S
N462 C459 1.384 . S
N463 C455 1.427 . S
N463 C461 1.384 . S
H464 C470 0.930 . S
H465 C474 0.930 . S
H466 C479 0.929 . S
H467 C477 0.929 . S
H468 C472 0.929 1_556 S
H469 C478 0.929 . S
C470 H464 0.930 . S
C470 C471 1.367 . S
C470 C478 1.378 . S
C471 C470 1.367 . S
C471 C479 1.433 . S
C472 H468 0.929 1_554 S
C472 C474 1.378 1_554 S
C472 C476 1.350 . S
C473 C476 1.463 . S
C473 C478 1.350 . S
C473 N481 1.427 . S
C474 H465 0.930 . S
C474 C472 1.378 1_556 S
C474 C475 1.367 1_656 S
C475 C474 1.367 1_454 S
C475 C477 1.433 . S
C476 C472 1.350 . S
C476 C473 1.463 . S
C476 N480 1.427 1_655 S
C477 H467 0.929 . S
C477 C475 1.433 . S
C477 N480 1.384 . S
C478 H469 0.929 . S
C478 C470 1.378 . S
C478 C473 1.350 . S
C479 H466 0.929 . S
C479 C471 1.433 . S
C479 N481 1.384 . S
N480 C476 1.427 1_455 S
N480 C477 1.384 . S
N481 C473 1.427 . S
N481 C479 1.384 . S
H482 C488 0.930 . S
H483 C492 0.930 . S
H484 C497 0.929 . S
H485 C495 0.929 . S
H486 C490 0.929 . S
H487 C496 0.929 . S
C488 H482 0.930 . S
C488 C489 1.367 . S
C488 C496 1.378 . S
C489 C488 1.367 . S
C489 C497 1.433 . S
C490 H486 0.929 . S
C490 C492 1.378 . S
C490 C494 1.350 1_556 S
C491 C494 1.463 1_565 S
C491 C496 1.350 . S
C491 N499 1.427 . S
C492 H483 0.930 . S
C492 C490 1.378 . S
C492 C493 1.367 . S
C493 C492 1.367 . S
C493 C495 1.433 1_556 S
C494 C490 1.350 1_554 S
C494 C491 1.463 1_545 S
C494 N498 1.424 1_545 S
C495 H485 0.929 . S
C495 C493 1.433 1_554 S
C495 N498 1.368 1_545 S
C496 H487 0.929 . S
C496 C488 1.378 . S
C496 C491 1.350 . S
C497 H484 0.929 . S
C497 C489 1.433 . S
C497 N499 1.384 . S
N498 C494 1.424 1_565 S
N498 C495 1.368 1_565 S
N499 C491 1.427 . S
N499 C497 1.384 . S
H500 C506 0.930 . S
H501 C510 0.930 1_554 S
H502 C515 0.929 . S
H503 C513 0.929 . S
H504 C508 0.929 . S
H505 C514 0.929 1_556 S
C506 H500 0.930 . S
C506 C507 1.367 . S
C506 C514 1.378 . S
C507 C506 1.367 . S
C507 C515 1.433 . S
C508 H504 0.929 . S
C508 C510 1.378 1_554 S
C508 C512 1.350 . S
C509 C512 1.463 . S
C509 C514 1.350 . S
C509 N517 1.427 . S
C510 H501 0.930 1_556 S
C510 C508 1.378 1_556 S
C510 C511 1.367 . S
C511 C510 1.367 . S
C511 C513 1.433 . S
C512 C508 1.350 . S
C512 C509 1.463 . S
C512 N516 1.427 1_554 S
C513 H503 0.929 . S
C513 C511 1.433 . S
C513 N516 1.384 . S
C514 H505 0.929 1_554 S
C514 C506 1.378 . S
C514 C509 1.350 . S
C515 H502 0.929 . S
C515 C507 1.433 . S
C515 N517 1.384 . S
N516 C512 1.427 1_556 S
N516 C513 1.384 . S
N517 C509 1.427 . S
N517 C515 1.384 . S
H518 C524 0.930 . S
H519 C528 0.930 . S
H520 C533 0.929 . S
H521 C531 0.929 . S
H522 C526 0.929 . S
H523 C532 0.929 1_556 S
C524 H518 0.930 . S
C524 C525 1.367 . S
C524 C532 1.378 . S
C525 C524 1.367 . S
C525 C533 1.433 . S
C526 H522 0.929 . S
C526 C528 1.378 . S
C526 C530 1.350 . S
C527 C530 1.463 . S
C527 C532 1.350 . S
C527 N535 1.427 . S
C528 H519 0.930 . S
C528 C526 1.378 . S
C528 C529 1.367 . S
C529 C528 1.367 . S
C529 C531 1.433 1_554 S
C530 C526 1.350 . S
C530 C527 1.463 . S
C530 N534 1.427 1_554 S
C531 H521 0.929 . S
C531 C529 1.433 1_556 S
C531 N534 1.384 . S
C532 H523 0.929 1_554 S
C532 C524 1.378 . S
C532 C527 1.350 . S
C533 H520 0.929 . S
C533 C525 1.433 . S
C533 N535 1.384 . S
N534 C530 1.427 1_556 S
N534 C531 1.384 . S
N535 C527 1.427 . S
N535 C533 1.384 . S
H536 C542 0.930 . S
H537 C546 0.930 . S
H538 C551 0.929 . S
H539 C549 0.929 . S
H540 C544 0.929 . S
H541 C550 0.929 . S
C542 H536 0.930 . S
C542 C543 1.367 . S
C542 C550 1.378 . S
C543 C542 1.367 . S
C543 C551 1.433 . S
C544 H540 0.929 . S
C544 C546 1.378 . S
C544 C548 1.350 . S
C545 C548 1.463 . S
C545 C550 1.350 . S
C545 N553 1.427 . S
C546 H537 0.930 . S
C546 C544 1.378 . S
C546 C547 1.367 . S
C547 C546 1.367 . S
C547 C549 1.433 . S
C548 C544 1.350 . S
C548 C545 1.463 . S
C548 N552 1.427 . S
C549 H539 0.929 . S
C549 C547 1.433 . S
C549 N552 1.384 . S
C550 H541 0.929 . S
C550 C542 1.378 . S
C550 C545 1.350 . S
C551 H538 0.929 . S
C551 C543 1.433 . S
C551 N553 1.384 . S
N552 C548 1.427 . S
N552 C549 1.384 . S
N553 C545 1.427 . S
N553 C551 1.384 . S
H554 C560 0.930 . S
H555 C564 0.930 . S
H556 C569 0.929 . S
H557 C567 0.929 1_565 S
H558 C562 0.929 . S
H559 C568 0.929 . S
C560 H554 0.930 . S
C560 C561 1.367 . S
C560 C568 1.378 . S
C561 C560 1.367 . S
C561 C569 1.433 . S
C562 H558 0.929 . S
C562 C564 1.378 . S
C562 C566 1.350 . S
C563 C566 1.463 . S
C563 C568 1.350 . S
C563 N571 1.427 . S
C564 H555 0.930 . S
C564 C562 1.378 . S
C564 C565 1.367 . S
C565 C564 1.367 . S
C565 C567 1.433 . S
C566 C562 1.350 . S
C566 C563 1.463 . S
C566 N570 1.427 . S
C567 H557 0.929 1_545 S
C567 C565 1.433 . S
C567 N570 1.384 . S
C568 H559 0.929 . S
C568 C560 1.378 . S
C568 C563 1.350 . S
C569 H556 0.929 . S
C569 C561 1.433 . S
C569 N571 1.384 . S
N570 C566 1.427 . S
N570 C567 1.384 . S
N571 C563 1.427 . S
N571 C569 1.384 . S
H572 C578 0.930 . S
H573 C582 0.930 . S
H574 C587 0.929 . S
H575 C585 0.929 . S
H576 C580 0.929 . S
H577 C586 0.929 . S
C578 H572 0.930 . S
C578 C579 1.367 . S
C578 C586 1.378 . S
C579 C578 1.367 . S
C579 C587 1.433 . S
C580 H576 0.929 . S
C580 C582 1.378 . S
C580 C584 1.350 . S
C581 C584 1.463 . S
C581 C586 1.350 . S
C581 N589 1.427 . S
C582 H573 0.930 . S
C582 C580 1.378 . S
C582 C583 1.367 . S
C583 C582 1.367 . S
C583 C585 1.433 . S
C584 C580 1.350 . S
C584 C581 1.463 . S
C584 N588 1.427 . S
C585 H575 0.929 . S
C585 C583 1.433 . S
C585 N588 1.384 . S
C586 H577 0.929 . S
C586 C578 1.378 . S
C586 C581 1.350 . S
C587 H574 0.929 . S
C587 C579 1.433 . S
C587 N589 1.384 . S
N588 C584 1.427 . S
N588 C585 1.384 . S
N589 C581 1.427 . S
N589 C587 1.384 . S
H590 C596 0.930 . S
H591 C600 0.930 . S
H592 C605 0.929 . S
H593 C603 0.929 . S
H594 C598 0.929 . S
H595 C604 0.929 . S
C596 H590 0.930 . S
C596 C597 1.367 . S
C596 C604 1.378 . S
C597 C596 1.367 . S
C597 C605 1.433 . S
C598 H594 0.929 . S
C598 C600 1.378 . S
C598 C602 1.350 . S
C599 C602 1.463 . S
C599 C604 1.350 . S
C599 N607 1.427 . S
C600 H591 0.930 . S
C600 C598 1.378 . S
C600 C601 1.367 . S
C601 C600 1.367 . S
C601 C603 1.433 . S
C602 C598 1.350 . S
C602 C599 1.463 . S
C602 N606 1.427 . S
C603 H593 0.929 . S
C603 C601 1.433 . S
C603 N606 1.384 . S
C604 H595 0.929 . S
C604 C596 1.378 . S
C604 C599 1.350 . S
C605 H592 0.929 . S
C605 C597 1.433 . S
C605 N607 1.384 . S
N606 C602 1.427 . S
N606 C603 1.384 . S
N607 C599 1.427 . S
N607 C605 1.384 . S
H608 C614 0.930 . S
H609 C618 0.930 . S
H610 C623 0.929 . S
H611 C621 0.929 1_455 S
H612 C616 0.929 . S
H613 C622 0.929 . S
C614 H608 0.930 . S
C614 C615 1.367 . S
C614 C622 1.378 . S
C615 C614 1.367 . S
C615 C623 1.433 . S
C616 H612 0.929 . S
C616 C618 1.378 . S
C616 C620 1.350 . S
C617 C620 1.463 . S
C617 C622 1.350 . S
C617 N625 1.427 . S
C618 H609 0.930 . S
C618 C616 1.378 . S
C618 C619 1.367 . S
C619 C618 1.367 . S
C619 C621 1.433 . S
C620 C616 1.350 . S
C620 C617 1.463 . S
C620 N624 1.427 . S
C621 H611 0.929 1_655 S
C621 C619 1.433 . S
C621 N624 1.384 . S
C622 H613 0.929 . S
C622 C614 1.378 . S
C622 C617 1.350 . S
C623 H610 0.929 . S
C623 C615 1.433 . S
C623 N625 1.384 . S
N624 C620 1.427 . S
N624 C621 1.384 . S
N625 C617 1.427 . S
N625 C623 1.384 . S
H626 C632 0.930 . S
H627 C636 0.930 . S
H628 C641 0.929 1_545 S
H629 C639 0.929 . S
H630 C634 0.929 . S
H631 C640 0.929 . S
C632 H626 0.930 . S
C632 C633 1.367 . S
C632 C640 1.378 . S
C633 C632 1.367 . S
C633 C641 1.433 . S
C634 H630 0.929 . S
C634 C636 1.378 . S
C634 C638 1.350 1_545 S
C635 C638 1.463 . S
C635 C640 1.350 . S
C635 N643 1.459 . S
C636 H627 0.930 . S
C636 C634 1.378 . S
C636 C637 1.367 1_545 S
C637 C636 1.367 1_565 S
C637 C639 1.433 . S
C638 C634 1.350 1_565 S
C638 C635 1.463 . S
C638 N642 1.427 . S
C639 H629 0.929 . S
C639 C637 1.433 . S
C639 N642 1.384 . S
C640 H631 0.929 . S
C640 C632 1.378 . S
C640 C635 1.350 . S
C641 H628 0.929 1_565 S
C641 C633 1.433 . S
C641 N643 1.389 . S
N642 C638 1.427 . S
N642 C639 1.384 . S
N643 C635 1.459 . S
N643 C641 1.389 . S
H644 C650 0.930 . S
H645 C654 0.930 . S
H646 C659 0.929 . S
H647 C657 0.929 . S
H648 C652 0.929 . S
H649 C658 0.929 . S
C650 H644 0.930 . S
C650 C651 1.367 . S
C650 C658 1.378 . S
C651 C650 1.367 . S
C651 C659 1.433 . S
C652 H648 0.929 . S
C652 C654 1.378 . S
C652 C656 1.350 . S
C653 C656 1.463 . S
C653 C658 1.350 . S
C653 N661 1.427 . S
C654 H645 0.930 . S
C654 C652 1.378 . S
C654 C655 1.367 . S
C655 C654 1.367 . S
C655 C657 1.433 . S
C656 C652 1.350 . S
C656 C653 1.463 . S
C656 N660 1.427 . S
C657 H647 0.929 . S
C657 C655 1.433 . S
C657 N660 1.384 . S
C658 H649 0.929 . S
C658 C650 1.378 . S
C658 C653 1.350 . S
C659 H646 0.929 . S
C659 C651 1.433 . S
C659 N661 1.384 . S
N660 C656 1.427 . S
N660 C657 1.384 . S
N661 C653 1.427 . S
N661 C659 1.384 . S
H662 C668 0.930 . S
H663 C672 0.930 . S
H664 C677 0.929 . S
H665 C675 0.929 . S
H666 C670 0.929 . S
H667 C676 0.929 . S
C668 H662 0.930 . S
C668 C669 1.367 . S
C668 C676 1.378 . S
C669 C668 1.367 . S
C669 C677 1.433 . S
C670 H666 0.929 . S
C670 C672 1.378 . S
C670 C674 1.350 . S
C671 C674 1.463 . S
C671 C676 1.350 . S
C671 N679 1.427 . S
C672 H663 0.930 . S
C672 C670 1.378 . S
C672 C673 1.367 . S
C673 C672 1.367 . S
C673 C675 1.433 . S
C674 C670 1.350 . S
C674 C671 1.463 . S
C674 N678 1.427 . S
C675 H665 0.929 . S
C675 C673 1.433 . S
C675 N678 1.384 . S
C676 H667 0.929 . S
C676 C668 1.378 . S
C676 C671 1.350 . S
C677 H664 0.929 . S
C677 C669 1.433 . S
C677 N679 1.384 . S
N678 C674 1.427 . S
N678 C675 1.384 . S
N679 C671 1.427 . S
N679 C677 1.384 . S
C255 C74 2.179 . S
C259 C119 2.291 . S
C277 C145 1.803 . S
C273 C85 1.663 . S
C295 C185 1.880 . S
C291 C52 1.792 . S
C313 C239 2.322 . S
C309 C63 2.228 . S
C331 C100 2.290 1_565 S
C327 C30 2.147 . S
C345 C41 1.708 . S
C349 C130 1.805 . S
C363 C8 1.763 . S
C367 C170 1.877 . S
C381 C19 2.183 . S
C385 C220 2.312 1_655 S
C403 C96 0.571 . S
C399 C62 0.530 . S
C421 C157 0.803 1_545 S
C417 C73 0.799 . S
C439 C197 0.654 . S
C435 C84 0.653 . S
C453 C51 0.389 . S
C457 C216 0.449 . S
C471 C18 0.594 . S
C475 C117 0.542 . S
C493 C136 0.814 . S
C489 C29 0.807 . S
C511 C176 0.652 . S
C507 C40 0.658 . S
C525 C7 0.508 . S
C529 C237 0.453 1_554 S
C543 C60 1.687 . S
C547 C90 2.085 . S
C561 C71 2.156 . S
C565 C140 2.595 . S
C583 C180 2.364 . S
C579 C82 1.810 . S
C601 C210 1.842 . S
C597 C49 1.471 . S
C615 C16 1.531 . S
C619 C105 2.083 . S
C637 C159 2.592 . S
C633 C27 2.046 . S
C655 C199 2.362 . S
C651 C38 1.986 . S
C669 C5 1.350 . S
C673 C225 1.841 . S
