# Generated by pormake.
# Topology anh, (6,3)-cn, num edge types: 1
# Building blocks:
#     Node 0, Type 0, BuildingBlock: BETGAK_clean_sbu_0, # of connection points: 6
#     Node 1, Type 0, BuildingBlock: BETGAK_clean_sbu_0, # of connection points: 6
#     Node 2, Type 0, BuildingBlock: BETGAK_clean_sbu_0, # of connection points: 6
#     Node 3, Type 1, BuildingBlock: WUSLED_clean_sbu_0, # of connection points: 3
#     Node 4, Type 1, BuildingBlock: WUSLED_clean_sbu_0, # of connection points: 3
#     Node 5, Type 1, BuildingBlock: WUSLED_clean_sbu_0, # of connection points: 3
#     Node 6, Type 1, BuildingBlock: WUSLED_clean_sbu_0, # of connection points: 3
#     Node 7, Type 1, BuildingBlock: WUSLED_clean_sbu_0, # of connection points: 3
#     Node 8, Type 1, BuildingBlock: WUSLED_clean_sbu_0, # of connection points: 3
#     Edge 9, Type (0, 1), None
#     Edge 10, Type (0, 1), None
#     Edge 11, Type (0, 1), None
#     Edge 12, Type (0, 1), None
#     Edge 13, Type (0, 1), None
#     Edge 14, Type (0, 1), None
#     Edge 15, Type (0, 1), None
#     Edge 16, Type (0, 1), None
#     Edge 17, Type (0, 1), None
#     Edge 18, Type (0, 1), None
#     Edge 19, Type (0, 1), None
#     Edge 20, Type (0, 1), None
#     Edge 21, Type (0, 1), None
#     Edge 22, Type (0, 1), None
#     Edge 23, Type (0, 1), None
#     Edge 24, Type (0, 1), None
#     Edge 25, Type (0, 1), None
#     Edge 26, Type (0, 1), None
# Relax obj value: 0.253
# Max RMSD: 0.240
# Mean RMSD: 0.170
data_MOF--net-anh--node1-BETGAK_clean_sbu_0--node2-WUSLED_clean_sbu_0--edge1-none
_symmetry_space_group_name_H-M    P1
_symmetry_Int_Tables_number       1
_symmetry_cell_setting            triclinic
loop_
_symmetry_equiv_pos_as_xyz
'x, y, z'
_cell_length_a     22.599761
_cell_length_b     29.280217
_cell_length_c     40.595516
_cell_angle_alpha  90.913566
_cell_angle_beta   90.071144
_cell_angle_gamma 133.10926
loop_
_atom_site_label
_atom_site_type_symbol
_atom_site_fract_x
_atom_site_fract_y
_atom_site_fract_z
_atom_type_partial_charge
La0 La 0.18124 0.51448 0.1823 0.0
La1 La 1.06411 0.52806 0.18167 0.0
C2 C 0.2998 0.52648 0.17052 0.0
C3 C 0.37884 0.57946 0.15711 0.0
C4 C 0.4432 0.58289 0.16047 0.0
C5 C 0.51563 0.62933 0.14445 0.0
C6 C 0.52445 0.67292 0.12466 0.0
C7 C 0.46266 0.67325 0.1245 0.0
C8 C 0.39003 0.62639 0.14032 0.0
C9 C 1.12121 0.50178 0.2409 0.0
C10 C 0.24846 0.65166 0.18606 0.0
C11 C 0.97184 0.54441 0.1967 0.0
C12 C 0.88487 0.50936 0.19517 0.0
C13 C 0.8411 0.48482 0.16529 0.0
C14 C 0.76194 0.45968 0.16381 0.0
C15 C 0.72493 0.45837 0.1922 0.0
C16 C 0.76655 0.47771 0.2226 0.0
C17 C 0.84606 0.50337 0.224 0.0
C18 C 1.09229 0.50626 0.12195 0.0
C19 C 0.99883 0.39354 0.18445 0.0
O20 O 0.28606 0.537 0.1996 0.0
O21 O 0.23783 0.49821 0.15012 0.0
O22 O 1.13734 0.46946 0.23008 0.0
O23 O 1.14055 0.54009 0.21909 0.0
O24 O 0.26461 0.61607 0.18539 0.0
O25 O 0.17336 0.62743 0.18476 0.0
O26 O 1.01108 0.5626 0.16888 0.0
O27 O 0.99251 0.52294 0.21701 0.0
O28 O 1.02207 0.48338 0.1319 0.0
O29 O 1.14288 0.54072 0.14506 0.0
O30 O 0.98664 0.42999 0.19337 0.0
O31 O 1.06949 0.41726 0.17286 0.0
H32 H 0.43593 0.54764 0.17388 0.0
H33 H 0.56125 0.62682 0.14507 0.0
H34 H 0.46766 0.70623 0.10975 0.0
H35 H 0.34126 0.625 0.13783 0.0
H36 H 0.86921 0.48792 0.14276 0.0
H37 H 0.73256 0.44604 0.13982 0.0
H38 H 0.73952 0.47659 0.24495 0.0
H39 H 0.87855 0.52117 0.24743 0.0
La40 La 0.74585 0.05515 0.48798 0.0
La41 La 0.63444 0.07584 0.4878 0.0
C42 C 0.81598 1.01765 0.50167 0.0
C43 C 0.79574 0.95964 0.51094 0.0
C44 C 0.84301 0.9486 0.49859 0.0
C45 C 0.82674 0.89481 0.50697 0.0
C46 C 0.7626 0.85047 0.52801 0.0
C47 C 0.7153 0.86175 0.54054 0.0
C48 C 0.73155 0.91572 0.53202 0.0
C49 C 0.71455 0.07126 0.42862 0.0
C50 C 0.55431 0.93906 0.48411 0.0
C51 C 0.56703 0.11717 0.48007 0.0
C52 C 0.5857 0.17324 0.49338 0.0
C53 C 0.65497 0.21738 0.51327 0.0
C54 C 0.67023 0.26861 0.52742 0.0
C55 C 0.61635 0.27681 0.52215 0.0
C56 C 0.54758 0.23282 0.50173 0.0
C57 C 0.53251 0.18162 0.48751 0.0
C58 C 0.66731 0.06039 0.54695 0.0
C59 C 0.82698 0.19271 0.48328 0.0
O60 O 0.79573 1.01899 0.47179 0.0
O61 O 0.80213 0.043 0.52323 0.0
O62 O 0.7833 0.09018 0.43799 0.0
O63 O 0.66451 0.04101 0.45164 0.0
O64 O 0.62518 0.9618 0.49556 0.0
O65 O 0.54632 0.97707 0.47338 0.0
O66 O 0.54468 0.07563 0.50175 0.0
O67 O 0.61943 0.12723 0.45963 0.0
O68 O 0.59858 0.04114 0.53786 0.0
O69 O 0.71691 0.09102 0.52391 0.0
O70 O 0.75263 0.16977 0.48006 0.0
O71 O 0.84064 0.15673 0.49062 0.0
H72 H 0.89306 0.98191 0.48245 0.0
H73 H 0.86527 0.88838 0.49723 0.0
H74 H 0.66497 0.8284 0.55654 0.0
H75 H 0.69397 0.92305 0.54184 0.0
H76 H 0.69652 0.21157 0.51842 0.0
H77 H 0.72304 0.3007 0.54337 0.0
H78 H 0.50517 0.23782 0.4968 0.0
H79 H 0.47865 0.14808 0.47227 0.0
La80 La 0.75058 0.60615 0.86394 0.0
La81 La 0.63836 0.46592 0.85562 0.0
C82 C 0.84146 0.7203 0.85017 0.0
C83 C 0.82731 0.76127 0.84011 0.0
C84 C 0.81921 0.79218 0.86387 0.0
C85 C 0.80661 0.83097 0.85447 0.0
C86 C 0.8021 0.84051 0.82096 0.0
C87 C 0.81028 0.80959 0.79718 0.0
C88 C 0.82297 0.77079 0.8066 0.0
C89 C 0.69126 0.54343 0.918 0.0
C90 C 0.55998 0.52696 0.86876 0.0
C91 C 0.54901 0.34876 0.85508 0.0
C92 C 0.56789 0.31117 0.84431 0.0
C93 C 0.63926 0.33943 0.82705 0.0
C94 C 0.65684 0.30429 0.81592 0.0
C95 C 0.60365 0.23969 0.82181 0.0
C96 C 0.53262 0.2117 0.83962 0.0
C97 C 0.51503 0.24707 0.85074 0.0
C98 C 0.69828 0.53125 0.8009 0.0
C99 C 0.82882 0.54322 0.86733 0.0
O100 O 0.82277 0.69962 0.88036 0.0
O101 O 0.82025 0.67688 0.8289 0.0
O102 O 0.70838 0.59535 0.91406 0.0
O103 O 0.71333 0.53195 0.89359 0.0
O104 O 0.63359 0.58225 0.86265 0.0
O105 O 0.54914 0.47553 0.8696 0.0
O106 O 0.54806 0.37865 0.83175 0.0
O107 O 0.58816 0.38455 0.8814 0.0
O108 O 0.68857 0.48313 0.80626 0.0
O109 O 0.67323 0.54016 0.82546 0.0
O110 O 0.75275 0.48779 0.86512 0.0
O111 O 0.84245 0.59585 0.86582 0.0
H112 H 0.82247 0.78639 0.8899 0.0
H113 H 0.79941 0.85293 0.87362 0.0
H114 H 0.80827 0.81615 0.77117 0.0
H115 H 0.82972 0.74839 0.78753 0.0
H116 H 0.68117 0.38876 0.82169 0.0
H117 H 0.71132 0.32769 0.80187 0.0
H118 H 0.49052 0.16238 0.84505 0.0
H119 H 0.45984 0.22421 0.86417 0.0
C120 C 0.80764 0.19588 0.20156 0.0
C121 C 0.79963 0.23756 0.21149 0.0
C122 C 0.93366 0.32551 0.19037 0.0
C123 C 0.86195 0.3016 0.206 0.0
C124 C 0.9427 0.28404 0.18143 0.0
C125 C 0.88016 0.21988 0.18686 0.0
U126 U 0.62356 1.01992 0.22866 0.0
O127 O 0.59075 0.94142 0.19949 0.0
O128 O 0.50824 0.95656 0.20048 0.0
C129 C 0.51948 0.91999 0.19065 0.0
C130 C 0.73707 0.12753 0.20041 0.0
C131 C 0.4497 0.85153 0.19259 0.0
C132 C 0.30407 0.76095 0.1888 0.0
C133 C 0.36973 0.82587 0.19051 0.0
C134 C 0.39705 0.74613 0.19124 0.0
C135 C 0.3171 0.72038 0.18882 0.0
C136 C 0.46247 0.81082 0.19298 0.0
C137 C 0.64177 1.03511 0.32636 0.0
C138 C 0.6105 1.03112 0.38433 0.0
C139 C 0.74807 0.08644 0.36853 0.0
C140 C 0.72357 0.07172 0.33527 0.0
C141 C 0.6912 0.06442 0.39346 0.0
C142 C 0.5861 1.01659 0.35112 0.0
C143 C 0.60993 1.00666 0.29294 0.0
O144 O 0.7473 0.09015 0.20898 0.0
O145 O 0.66554 0.10647 0.20794 0.0
O146 O 0.57439 1.02016 0.27573 0.0
O147 O 0.65208 1.00006 0.27488 0.0
H148 H 0.74419 0.2206 0.22247 0.0
H149 H 0.85312 0.3322 0.2136 0.0
H150 H 0.99729 0.30086 0.16962 0.0
H151 H 0.88728 0.18862 0.17835 0.0
H152 H 0.24329 0.74268 0.18694 0.0
H153 H 0.35786 0.85594 0.18952 0.0
H154 H 0.40953 0.7164 0.19138 0.0
H155 H 0.52319 0.82883 0.19394 0.0
H156 H 0.5654 1.01382 0.40293 0.0
H157 H 0.81088 0.11259 0.3748 0.0
H158 H 0.76781 0.08648 0.31676 0.0
H159 H 0.52256 0.98788 0.34492 0.0
C160 C 0.71829 0.6856 0.55184 0.0
C161 C 0.71204 0.71658 0.57631 0.0
C162 C 0.74539 0.79276 0.53637 0.0
C163 C 0.72521 0.76956 0.56861 0.0
C164 C 0.75083 0.761 0.51203 0.0
C165 C 0.73745 0.70816 0.51971 0.0
U166 U 0.69853 0.57218 0.60995 0.0
O167 O 0.61385 0.46925 0.60669 0.0
O168 O 0.7448 0.52643 0.60387 0.0
C169 C 0.67194 0.4698 0.60209 0.0
C170 C 0.70501 0.62976 0.55887 0.0
C171 C 0.65716 0.42479 0.5772 0.0
C172 C 0.56478 0.31915 0.55289 0.0
C173 C 0.57823 0.36617 0.57172 0.0
C174 C 0.70872 0.3886 0.54373 0.0
C175 C 0.63 0.32919 0.53921 0.0
C176 C 0.72216 0.43567 0.56254 0.0
C177 C 0.71805 0.59672 0.70364 0.0
C178 C 0.72206 0.534 0.7404 0.0
C179 C 0.70262 0.60009 0.76274 0.0
C180 C 0.7071 0.62015 0.73095 0.0
C181 C 0.70942 0.55641 0.76775 0.0
C182 C 0.72603 0.55379 0.7086 0.0
C183 C 0.71842 0.61588 0.67017 0.0
O184 O 0.76804 0.64051 0.57039 0.0
O185 O 0.63728 0.58376 0.57368 0.0
O186 O 0.6482 0.57826 0.65442 0.0
O187 O 0.77889 0.63493 0.65148 0.0
H188 H 0.69742 0.7 0.60133 0.0
H189 H 0.7212 0.79308 0.58804 0.0
H190 H 0.76492 0.77673 0.48686 0.0
H191 H 0.74215 0.68481 0.50041 0.0
H192 H 0.50344 0.2739 0.55039 0.0
H193 H 0.52686 0.3556 0.58316 0.0
H194 H 0.76039 0.39845 0.53324 0.0
H195 H 0.78393 0.47984 0.56651 0.0
H196 H 0.72722 0.50015 0.74348 0.0
H197 H 0.69225 0.61784 0.78328 0.0
H198 H 0.70069 0.65325 0.72763 0.0
H199 H 0.73421 0.53494 0.68784 0.0
C200 C 1.02341 0.54015 0.88712 0.0
C201 C 0.94015 0.48521 0.88294 0.0
C202 C 0.89749 0.54381 0.87407 0.0
C203 C 0.87943 0.48699 0.87678 0.0
C204 C 0.98074 0.59901 0.87844 0.0
C205 C 1.04181 0.59719 0.88458 0.0
U206 U 0.18812 0.52837 0.91928 0.0
O207 O 0.21687 0.4768 0.89383 0.0
O208 O 0.30918 0.57804 0.897 0.0
C209 C 0.29253 0.52711 0.88733 0.0
C210 C 1.09017 0.5376 0.88854 0.0
C211 C 0.36069 0.52584 0.8868 0.0
C212 C 0.4076 0.46926 0.88004 0.0
C213 C 0.34487 0.46964 0.88528 0.0
C214 C 0.50541 0.58095 0.8772 0.0
C215 C 0.48996 0.52502 0.87541 0.0
C216 C 0.44317 0.58133 0.88262 0.0
C217 C 0.15836 0.51993 0.01866 0.0
C218 C 0.19591 0.55301 0.07687 0.0
C219 C 1.05459 0.47269 0.06126 0.0
C220 C 1.0763 0.4771 0.02793 0.0
C221 C 1.11423 0.5102 0.08633 0.0
C222 C 0.21748 0.55783 0.04371 0.0
C223 C 0.18583 0.52141 0.98455 0.0
O224 O 0.16434 0.58581 0.89921 0.0
O225 O 1.07094 0.48461 0.89404 0.0
O226 O 0.23471 0.57447 0.96884 0.0
O227 O 1.13735 0.47237 0.96458 0.0
H228 H 0.92148 0.43995 0.88369 0.0
H229 H 0.81732 0.44277 0.87373 0.0
H230 H 0.99929 0.64413 0.87675 0.0
H231 H 1.10441 0.64112 0.88664 0.0
H232 H 0.3909 0.4247 0.87903 0.0
H233 H 0.28308 0.4252 0.88748 0.0
H234 H 0.56663 0.62553 0.874 0.0
H235 H 0.45995 0.62593 0.88268 0.0
H236 H 0.2436 0.58304 0.09517 0.0
H237 H 0.99102 0.43925 0.06747 0.0
H238 H 1.02895 0.44638 1.00954 0.0
H239 H 0.28123 0.59055 0.03773 0.0
C240 C 1.02412 0.39023 0.46672 0.0
C241 C 0.94325 0.36117 0.46184 0.0
C242 C 0.89548 0.26042 0.47723 0.0
C243 C 0.87982 0.29713 0.46699 0.0
C244 C 0.97645 0.28906 0.48102 0.0
C245 C 1.04002 0.35333 0.47597 0.0
U246 U 0.18639 0.56907 0.44054 0.0
O247 O 0.21632 0.64512 0.47161 0.0
O248 O 0.30519 0.6368 0.46577 0.0
C249 C 0.29018 0.66963 0.47823 0.0
C250 C 1.09054 0.45931 0.46852 0.0
C251 C 0.35722 0.73846 0.47733 0.0
C252 C 0.49532 0.83083 0.49392 0.0
C253 C 0.43184 0.76592 0.49183 0.0
C254 C 0.41108 0.84276 0.46694 0.0
C255 C 0.48574 0.87015 0.48169 0.0
C256 C 0.34725 0.77742 0.46478 0.0
C257 C 1.1504 0.55116 0.34382 0.0
C258 C 1.12451 0.56102 0.28727 0.0
C259 C 1.12613 0.4815 0.30031 0.0
C260 C 1.14119 0.50048 0.33362 0.0
C261 C 1.12074 0.5132 0.27661 0.0
C262 C 1.1392 0.57976 0.32053 0.0
C263 C 0.18442 0.58198 0.37665 0.0
O264 O 0.16162 0.48563 0.4566 0.0
O265 O 1.07205 0.4929 0.46476 0.0
O266 O 1.13818 0.58045 0.39721 0.0
O267 O 0.23223 0.57746 0.39121 0.0
H268 H 0.92858 0.38818 0.45521 0.0
H269 H 0.81827 0.27674 0.46348 0.0
H270 H 0.99078 0.26223 0.48863 0.0
H271 H 1.10172 0.3747 0.48058 0.0
H272 H 0.55182 0.85005 0.50542 0.0
H273 H 0.44078 0.737 0.50204 0.0
H274 H 0.40183 0.87172 0.45715 0.0
H275 H 0.29013 0.75756 0.45366 0.0
H276 H 1.1204 0.58622 0.26967 0.0
H277 H 1.12311 0.44425 0.29287 0.0
H278 H 1.14966 0.47764 0.35103 0.0
H279 H 1.14652 0.61919 0.32775 0.0
C280 C 0.75938 0.9598 0.7946 0.0
C281 C 0.72512 0.90589 0.7755 0.0
C282 C 0.7891 0.88254 0.8111 0.0
C283 C 0.73989 0.86782 0.78362 0.0
C284 C 0.82473 0.93747 0.82957 0.0
C285 C 0.80995 0.97537 0.82145 0.0
U286 U 0.71324 0.04185 0.74033 0.0
O287 O 0.61943 0.04543 0.74726 0.0
O288 O 0.74806 0.13231 0.74839 0.0
C289 C 0.67274 0.10669 0.75113 0.0
C290 C 0.73908 0.99797 0.78883 0.0
C291 C 0.65498 0.13531 0.77497 0.0
C292 C 0.55785 0.14086 0.795 0.0
C293 C 0.57472 0.1083 0.77863 0.0
C294 C 0.70094 0.22753 0.80575 0.0
C295 C 0.62085 0.20176 0.80804 0.0
C296 C 0.71779 0.19497 0.78934 0.0
C297 C 0.71109 1.03321 0.64524 0.0
C298 C 0.62063 1.01655 0.60314 0.0
C299 C 0.76205 0.07927 0.59087 0.0
C300 C 0.77516 0.06946 0.62282 0.0
C301 C 0.68433 0.05233 0.58064 0.0
C302 C 0.63374 1.00718 0.63498 0.0
C303 C 0.72449 1.02033 0.67844 0.0
O304 O 0.79627 0.05404 0.77681 0.0
O305 O 0.66694 0.96862 0.77618 0.0
O306 O 0.65971 0.98011 0.6963 0.0
O307 O 0.7867 0.06874 0.69588 0.0
H308 H 0.68563 0.89246 0.75469 0.0
H309 H 0.71076 0.82584 0.76888 0.0
H310 H 0.86421 0.95136 0.85047 0.0
H311 H 0.83712 1.01656 0.83663 0.0
H312 H 0.49551 0.11942 0.79582 0.0
H313 H 0.52488 0.06308 0.76733 0.0
H314 H 0.75118 0.27374 0.81594 0.0
H315 H 0.78047 0.21783 0.78673 0.0
H316 H 0.56 0.99524 0.5961 0.0
H317 H 0.81253 0.10772 0.57425 0.0
H318 H 0.83536 0.08989 0.62994 0.0
H319 H 0.58275 0.97893 0.65139 0.0
C320 C 0.5686 0.47854 0.15987 0.0
C321 C 0.55416 0.42606 0.14856 0.0
C322 C 0.6532 0.45074 0.18833 0.0
C323 C 0.59587 0.41183 0.16297 0.0
C324 C 0.6547 0.49511 0.20353 0.0
C325 C 0.61227 0.50882 0.18933 0.0
U326 U 0.57459 0.51424 0.07153 0.0
O327 O 0.53723 0.55404 0.04272 0.0
O328 O 0.66594 0.60416 0.04702 0.0
C329 C 0.61256 0.60706 0.03838 0.0
C330 C 0.56896 0.51538 0.13585 0.0
C331 C 0.62923 0.66257 0.05049 0.0
C332 C 0.65582 0.71595 0.10237 0.0
C333 C 0.67784 0.69465 0.079 0.0
C334 C 0.55159 0.68832 0.06523 0.0
C335 C 0.58343 0.70215 0.09754 0.0
C336 C 0.57433 0.66794 0.04161 0.0
C337 C 0.56531 0.434 1.002 0.0
C338 C 0.57983 0.49417 0.9569 0.0
C339 C 0.65866 0.46591 0.95806 0.0
C340 C 0.62119 0.43373 0.98725 0.0
C341 C 0.64169 0.4996 0.94423 0.0
C342 C 0.54069 0.46053 0.98521 0.0
C343 C 0.55618 0.42932 0.03784 0.0
O344 O 0.6367 0.55147 0.11934 0.0
O345 O 0.5039 0.4858 0.117 0.0
O346 O 0.49366 0.41979 0.04868 0.0
O347 O 0.62424 0.47499 0.05378 0.0
H348 H 0.52023 0.40185 0.12585 0.0
H349 H 0.59126 0.37582 0.15148 0.0
H350 H 0.69728 0.52558 0.22336 0.0
H351 H 0.62386 0.54936 0.19843 0.0
H352 H 0.68469 0.73039 0.12653 0.0
H353 H 0.72361 0.69402 0.08587 0.0
H354 H 0.49823 0.6805 0.05995 0.0
H355 H 0.53841 0.64574 0.01909 0.0
H356 H 0.56463 0.51862 0.94592 0.0
H357 H 0.7057 0.46904 0.94801 0.0
H358 H 0.64176 0.41431 0.99993 0.0
H359 H 0.49777 0.46167 0.99585 0.0
loop_
_geom_bond_atom_site_label_1
_geom_bond_atom_site_label_2
_geom_bond_distance
_geom_bond_site_symmetry_2
_ccdc_geom_bond_type
La0 C2 2.928 . S
La0 O20 2.521 . S
La0 O21 2.628 . S
La0 O22 2.554 . S
La0 O23 2.757 1_455 S
La0 O24 2.470 . S
La0 O29 2.482 . S
La0 O31 2.503 1_455 S
La1 C11 2.928 . S
La1 O23 2.482 . S
La1 O25 2.503 1_655 S
La1 O26 2.521 . S
La1 O27 2.628 . S
La1 O28 2.554 . S
La1 O29 2.757 1_655 S
La1 O30 2.470 . S
C2 La0 2.928 . S
C2 C3 1.503 . S
C2 O20 1.261 . S
C2 O21 1.243 . S
C3 C2 1.503 . S
C3 C4 1.394 . S
C3 C8 1.373 . S
C4 C3 1.394 . S
C4 C5 1.380 . S
C4 H32 0.930 . S
C5 C4 1.380 . S
C5 C6 1.376 . S
C5 H33 0.930 . S
C6 C5 1.376 . S
C6 C7 1.370 . S
C7 C6 1.370 . S
C7 C8 1.396 . S
C7 H34 0.929 . S
C8 C3 1.373 . S
C8 C7 1.396 . S
C8 H35 0.929 . S
C9 O22 1.240 . S
C9 O23 1.289 1_455 S
C10 O24 1.258 . S
C10 O25 1.256 . S
C11 La1 2.928 . S
C11 C12 1.503 . S
C11 O26 1.261 . S
C11 O27 1.243 . S
C12 C11 1.503 . S
C12 C13 1.394 . S
C12 C17 1.373 . S
C13 C12 1.394 . S
C13 C14 1.380 . S
C13 H36 0.930 . S
C14 C13 1.380 . S
C14 C15 1.376 . S
C14 H37 0.930 . S
C15 C14 1.376 . S
C15 C16 1.370 . S
C16 C15 1.370 . S
C16 C17 1.396 . S
C16 H38 0.929 . S
C17 C12 1.373 . S
C17 C16 1.396 . S
C17 H39 0.929 . S
C18 O28 1.240 1_455 S
C18 O29 1.289 . S
C19 O30 1.258 . S
C19 O31 1.256 . S
O20 La0 2.521 . S
O20 C2 1.261 . S
O21 La0 2.628 . S
O21 C2 1.243 . S
O22 La0 2.554 . S
O22 C9 1.240 . S
O23 La0 2.757 1_655 S
O23 La1 2.482 . S
O23 C9 1.289 1_655 S
O24 La0 2.470 . S
O24 C10 1.258 . S
O25 La1 2.503 1_455 S
O25 C10 1.256 . S
O26 La1 2.521 . S
O26 C11 1.261 . S
O27 La1 2.628 . S
O27 C11 1.243 . S
O28 La1 2.554 . S
O28 C18 1.240 1_655 S
O29 La0 2.482 . S
O29 La1 2.757 1_455 S
O29 C18 1.289 . S
O30 La1 2.470 . S
O30 C19 1.258 . S
O31 La0 2.503 1_655 S
O31 C19 1.256 . S
H32 C4 0.930 . S
H33 C5 0.930 . S
H34 C7 0.929 . S
H35 C8 0.929 . S
H36 C13 0.930 . S
H37 C14 0.930 . S
H38 C16 0.929 . S
H39 C17 0.929 . S
La40 C42 2.928 . S
La40 O60 2.521 . S
La40 O61 2.628 . S
La40 O62 2.554 . S
La40 O63 2.757 1_565 S
La40 O64 2.470 . S
La40 O69 2.482 . S
La40 O71 2.503 1_565 S
La41 C51 2.928 . S
La41 O63 2.482 . S
La41 O65 2.503 1_545 S
La41 O66 2.521 . S
La41 O67 2.628 . S
La41 O68 2.554 . S
La41 O69 2.757 1_545 S
La41 O70 2.470 . S
C42 La40 2.928 . S
C42 C43 1.503 . S
C42 O60 1.261 . S
C42 O61 1.243 . S
C43 C42 1.503 . S
C43 C44 1.394 . S
C43 C48 1.373 . S
C44 C43 1.394 . S
C44 C45 1.380 . S
C44 H72 0.930 . S
C45 C44 1.380 . S
C45 C46 1.376 . S
C45 H73 0.930 . S
C46 C45 1.376 . S
C46 C47 1.370 . S
C47 C46 1.370 . S
C47 C48 1.396 . S
C47 H74 0.929 . S
C48 C43 1.373 . S
C48 C47 1.396 . S
C48 H75 0.929 . S
C49 O62 1.240 1_545 S
C49 O63 1.289 . S
C50 O64 1.258 . S
C50 O65 1.256 . S
C51 La41 2.928 . S
C51 C52 1.503 . S
C51 O66 1.261 . S
C51 O67 1.243 . S
C52 C51 1.503 . S
C52 C53 1.394 . S
C52 C57 1.373 . S
C53 C52 1.394 . S
C53 C54 1.380 . S
C53 H76 0.930 . S
C54 C53 1.380 . S
C54 C55 1.376 . S
C54 H77 0.930 . S
C55 C54 1.376 . S
C55 C56 1.370 . S
C56 C55 1.370 . S
C56 C57 1.396 . S
C56 H78 0.929 . S
C57 C52 1.373 . S
C57 C56 1.396 . S
C57 H79 0.929 . S
C58 O68 1.240 . S
C58 O69 1.289 1_545 S
C59 O70 1.258 . S
C59 O71 1.256 . S
O60 La40 2.521 . S
O60 C42 1.261 . S
O61 La40 2.628 . S
O61 C42 1.243 . S
O62 La40 2.554 . S
O62 C49 1.240 1_565 S
O63 La40 2.757 1_545 S
O63 La41 2.482 . S
O63 C49 1.289 . S
O64 La40 2.470 . S
O64 C50 1.258 . S
O65 La41 2.503 1_565 S
O65 C50 1.256 . S
O66 La41 2.521 . S
O66 C51 1.261 . S
O67 La41 2.628 . S
O67 C51 1.243 . S
O68 La41 2.554 . S
O68 C58 1.240 . S
O69 La40 2.482 . S
O69 La41 2.757 1_565 S
O69 C58 1.289 1_565 S
O70 La41 2.470 . S
O70 C59 1.258 . S
O71 La40 2.503 1_545 S
O71 C59 1.256 . S
H72 C44 0.930 . S
H73 C45 0.930 . S
H74 C47 0.929 . S
H75 C48 0.929 . S
H76 C53 0.930 . S
H77 C54 0.930 . S
H78 C56 0.929 . S
H79 C57 0.929 . S
La80 C82 2.928 . S
La80 O100 2.521 . S
La80 O101 2.628 . S
La80 O102 2.554 . S
La80 O103 2.757 . S
La80 O104 2.470 . S
La80 O109 2.482 . S
La80 O111 2.503 . S
La81 C91 2.928 . S
La81 O103 2.482 . S
La81 O105 2.503 . S
La81 O106 2.521 . S
La81 O107 2.628 . S
La81 O108 2.554 . S
La81 O109 2.757 . S
La81 O110 2.470 . S
C82 La80 2.928 . S
C82 C83 1.503 . S
C82 O100 1.261 . S
C82 O101 1.243 . S
C83 C82 1.503 . S
C83 C84 1.394 . S
C83 C88 1.373 . S
C84 C83 1.394 . S
C84 C85 1.380 . S
C84 H112 0.930 . S
C85 C84 1.380 . S
C85 C86 1.376 . S
C85 H113 0.930 . S
C86 C85 1.376 . S
C86 C87 1.370 . S
C87 C86 1.370 . S
C87 C88 1.396 . S
C87 H114 0.929 . S
C88 C83 1.373 . S
C88 C87 1.396 . S
C88 H115 0.929 . S
C89 O102 1.240 . S
C89 O103 1.289 . S
C90 O104 1.258 . S
C90 O105 1.256 . S
C91 La81 2.928 . S
C91 C92 1.503 . S
C91 O106 1.261 . S
C91 O107 1.243 . S
C92 C91 1.503 . S
C92 C93 1.394 . S
C92 C97 1.373 . S
C93 C92 1.394 . S
C93 C94 1.380 . S
C93 H116 0.930 . S
C94 C93 1.380 . S
C94 C95 1.376 . S
C94 H117 0.930 . S
C95 C94 1.376 . S
C95 C96 1.370 . S
C96 C95 1.370 . S
C96 C97 1.396 . S
C96 H118 0.929 . S
C97 C92 1.373 . S
C97 C96 1.396 . S
C97 H119 0.929 . S
C98 O108 1.240 . S
C98 O109 1.289 . S
C99 O110 1.258 . S
C99 O111 1.256 . S
O100 La80 2.521 . S
O100 C82 1.261 . S
O101 La80 2.628 . S
O101 C82 1.243 . S
O102 La80 2.554 . S
O102 C89 1.240 . S
O103 La80 2.757 . S
O103 La81 2.482 . S
O103 C89 1.289 . S
O104 La80 2.470 . S
O104 C90 1.258 . S
O105 La81 2.503 . S
O105 C90 1.256 . S
O106 La81 2.521 . S
O106 C91 1.261 . S
O107 La81 2.628 . S
O107 C91 1.243 . S
O108 La81 2.554 . S
O108 C98 1.240 . S
O109 La80 2.482 . S
O109 La81 2.757 . S
O109 C98 1.289 . S
O110 La81 2.470 . S
O110 C99 1.258 . S
O111 La80 2.503 . S
O111 C99 1.256 . S
H112 C84 0.930 . S
H113 C85 0.930 . S
H114 C87 0.929 . S
H115 C88 0.929 . S
H116 C93 0.930 . S
H117 C94 0.930 . S
H118 C96 0.929 . S
H119 C97 0.929 . S
C120 C121 1.264 . S
C120 C125 1.479 . S
C120 C130 1.465 . S
C121 C120 1.264 . S
C121 C123 1.339 . S
C121 H148 0.931 . S
C122 C123 1.395 . S
C122 C124 1.320 . S
C123 C121 1.339 . S
C123 C122 1.395 . S
C123 H149 0.929 . S
C124 C122 1.320 . S
C124 C125 1.405 . S
C124 H150 0.930 . S
C125 C120 1.479 . S
C125 C124 1.405 . S
C125 H151 0.931 . S
U126 O127 2.454 1_545 S
U126 O128 2.458 1_545 S
U126 C129 2.984 1_545 S
U126 C130 2.847 . S
U126 C143 2.882 . S
U126 O144 2.441 . S
U126 O145 2.420 . S
U126 O146 2.455 1_545 S
U126 O147 2.449 . S
O127 U126 2.454 1_565 S
O127 C129 1.353 . S
O128 U126 2.458 1_565 S
O128 C129 1.286 . S
C129 U126 2.984 1_565 S
C129 O127 1.353 . S
C129 O128 1.286 . S
C129 C131 1.363 . S
C130 C120 1.465 . S
C130 U126 2.847 . S
C130 O144 1.249 . S
C130 O145 1.202 . S
C131 C129 1.363 . S
C131 C133 1.408 . S
C131 C136 1.342 . S
C132 C133 1.310 . S
C132 C135 1.461 . S
C132 H152 0.932 . S
C133 C131 1.408 . S
C133 C132 1.310 . S
C133 H153 0.930 . S
C134 C135 1.474 . S
C134 C136 1.285 . S
C134 H154 0.929 . S
C135 C132 1.461 . S
C135 C134 1.474 . S
C136 C131 1.342 . S
C136 C134 1.285 . S
C136 H155 0.930 . S
C137 C140 1.424 . S
C137 C142 1.245 1_545 S
C137 C143 1.428 . S
C138 C141 1.260 1_565 S
C138 C142 1.477 . S
C138 H156 0.932 . S
C139 C140 1.384 . S
C139 C141 1.479 . S
C139 H157 0.929 . S
C140 C137 1.424 . S
C140 C139 1.384 . S
C140 H158 0.928 . S
C141 C138 1.260 1_545 S
C141 C139 1.479 . S
C142 C137 1.245 1_565 S
C142 C138 1.477 . S
C142 H159 0.932 . S
C143 U126 2.882 . S
C143 C137 1.428 . S
C143 O146 1.301 1_545 S
C143 O147 1.282 . S
O144 U126 2.441 . S
O144 C130 1.249 . S
O145 U126 2.420 . S
O145 C130 1.202 . S
O146 U126 2.455 1_565 S
O146 C143 1.301 1_565 S
O147 U126 2.449 . S
O147 C143 1.282 . S
H148 C121 0.931 . S
H149 C123 0.929 . S
H150 C124 0.930 . S
H151 C125 0.931 . S
H152 C132 0.932 . S
H153 C133 0.930 . S
H154 C134 0.929 . S
H155 C136 0.930 . S
H156 C138 0.932 . S
H157 C139 0.929 . S
H158 C140 0.928 . S
H159 C142 0.932 . S
C160 C161 1.264 . S
C160 C165 1.479 . S
C160 C170 1.465 . S
C161 C160 1.264 . S
C161 C163 1.339 . S
C161 H188 0.931 . S
C162 C163 1.395 . S
C162 C164 1.320 . S
C163 C161 1.339 . S
C163 C162 1.395 . S
C163 H189 0.929 . S
C164 C162 1.320 . S
C164 C165 1.405 . S
C164 H190 0.930 . S
C165 C160 1.479 . S
C165 C164 1.405 . S
C165 H191 0.931 . S
U166 O167 2.454 . S
U166 O168 2.458 . S
U166 C169 2.984 . S
U166 C170 2.847 . S
U166 C183 2.882 . S
U166 O184 2.441 . S
U166 O185 2.420 . S
U166 O186 2.455 . S
U166 O187 2.449 . S
O167 U166 2.454 . S
O167 C169 1.353 . S
O168 U166 2.458 . S
O168 C169 1.286 . S
C169 U166 2.984 . S
C169 O167 1.353 . S
C169 O168 1.286 . S
C169 C171 1.363 . S
C170 C160 1.465 . S
C170 U166 2.847 . S
C170 O184 1.249 . S
C170 O185 1.202 . S
C171 C169 1.363 . S
C171 C173 1.408 . S
C171 C176 1.342 . S
C172 C173 1.310 . S
C172 C175 1.461 . S
C172 H192 0.932 . S
C173 C171 1.408 . S
C173 C172 1.310 . S
C173 H193 0.930 . S
C174 C175 1.474 . S
C174 C176 1.285 . S
C174 H194 0.929 . S
C175 C172 1.461 . S
C175 C174 1.474 . S
C176 C171 1.342 . S
C176 C174 1.285 . S
C176 H195 0.930 . S
C177 C180 1.424 . S
C177 C182 1.245 . S
C177 C183 1.428 . S
C178 C181 1.260 . S
C178 C182 1.477 . S
C178 H196 0.932 . S
C179 C180 1.384 . S
C179 C181 1.479 . S
C179 H197 0.929 . S
C180 C177 1.424 . S
C180 C179 1.384 . S
C180 H198 0.928 . S
C181 C178 1.260 . S
C181 C179 1.479 . S
C182 C177 1.245 . S
C182 C178 1.477 . S
C182 H199 0.932 . S
C183 U166 2.882 . S
C183 C177 1.428 . S
C183 O186 1.301 . S
C183 O187 1.282 . S
O184 U166 2.441 . S
O184 C170 1.249 . S
O185 U166 2.420 . S
O185 C170 1.202 . S
O186 U166 2.455 . S
O186 C183 1.301 . S
O187 U166 2.449 . S
O187 C183 1.282 . S
H188 C161 0.931 . S
H189 C163 0.929 . S
H190 C164 0.930 . S
H191 C165 0.931 . S
H192 C172 0.932 . S
H193 C173 0.930 . S
H194 C174 0.929 . S
H195 C176 0.930 . S
H196 C178 0.932 . S
H197 C179 0.929 . S
H198 C180 0.928 . S
H199 C182 0.932 . S
C200 C201 1.264 . S
C200 C205 1.479 . S
C200 C210 1.465 . S
C201 C200 1.264 . S
C201 C203 1.339 . S
C201 H228 0.931 . S
C202 C203 1.395 . S
C202 C204 1.320 . S
C203 C201 1.339 . S
C203 C202 1.395 . S
C203 H229 0.929 . S
C204 C202 1.320 . S
C204 C205 1.405 . S
C204 H230 0.930 . S
C205 C200 1.479 . S
C205 C204 1.405 . S
C205 H231 0.931 . S
U206 O207 2.454 . S
U206 O208 2.458 . S
U206 C209 2.984 . S
U206 C210 2.847 1_455 S
U206 C223 2.882 . S
U206 O224 2.441 1_455 S
U206 O225 2.420 1_455 S
U206 O226 2.455 . S
U206 O227 2.449 1_455 S
O207 U206 2.454 . S
O207 C209 1.353 . S
O208 U206 2.458 . S
O208 C209 1.286 . S
C209 U206 2.984 . S
C209 O207 1.353 . S
C209 O208 1.286 . S
C209 C211 1.363 . S
C210 C200 1.465 . S
C210 U206 2.847 1_655 S
C210 O224 1.249 . S
C210 O225 1.202 . S
C211 C209 1.363 . S
C211 C213 1.408 . S
C211 C216 1.342 . S
C212 C213 1.310 . S
C212 C215 1.461 . S
C212 H232 0.932 . S
C213 C211 1.408 . S
C213 C212 1.310 . S
C213 H233 0.930 . S
C214 C215 1.474 . S
C214 C216 1.285 . S
C214 H234 0.929 . S
C215 C212 1.461 . S
C215 C214 1.474 . S
C216 C211 1.342 . S
C216 C214 1.285 . S
C216 H235 0.930 . S
C217 C220 1.424 1_456 S
C217 C222 1.245 1_556 S
C217 C223 1.428 . S
C218 C221 1.260 . S
C218 C222 1.477 . S
C218 H236 0.932 . S
C219 C220 1.384 . S
C219 C221 1.479 1_655 S
C219 H237 0.929 . S
C220 C217 1.424 1_654 S
C220 C219 1.384 . S
C220 H238 0.948 . S
C221 C218 1.260 . S
C221 C219 1.479 1_455 S
C222 C217 1.245 1_554 S
C222 C218 1.477 . S
C222 H239 0.932 . S
C223 U206 2.882 . S
C223 C217 1.428 . S
C223 O226 1.301 . S
C223 O227 1.282 1_455 S
O224 U206 2.441 1_655 S
O224 C210 1.249 . S
O225 U206 2.420 1_655 S
O225 C210 1.202 . S
O226 U206 2.455 . S
O226 C223 1.301 . S
O227 U206 2.449 1_655 S
O227 C223 1.282 1_655 S
H228 C201 0.931 . S
H229 C203 0.929 . S
H230 C204 0.930 . S
H231 C205 0.931 . S
H232 C212 0.932 . S
H233 C213 0.930 . S
H234 C214 0.929 . S
H235 C216 0.930 . S
H236 C218 0.932 . S
H237 C219 0.929 . S
H238 C220 0.948 . S
H239 C222 0.932 . S
C240 C241 1.264 . S
C240 C245 1.479 . S
C240 C250 1.465 . S
C241 C240 1.264 . S
C241 C243 1.339 . S
C241 H268 0.931 . S
C242 C243 1.395 . S
C242 C244 1.320 . S
C243 C241 1.339 . S
C243 C242 1.395 . S
C243 H269 0.929 . S
C244 C242 1.320 . S
C244 C245 1.405 . S
C244 H270 0.930 . S
C245 C240 1.479 . S
C245 C244 1.405 . S
C245 H271 0.931 . S
U246 O247 2.454 1_655 S
U246 O248 2.458 1_655 S
U246 C249 2.984 1_655 S
U246 C250 2.847 . S
U246 C263 2.882 . S
U246 O264 2.441 . S
U246 O265 2.420 . S
U246 O266 2.455 1_655 S
U246 O267 2.449 . S
O247 U246 2.454 1_455 S
O247 C249 1.353 . S
O248 U246 2.458 1_455 S
O248 C249 1.286 . S
C249 U246 2.984 1_455 S
C249 O247 1.353 . S
C249 O248 1.286 . S
C249 C251 1.363 . S
C250 C240 1.465 . S
C250 U246 2.847 . S
C250 O264 1.249 . S
C250 O265 1.202 . S
C251 C249 1.363 . S
C251 C253 1.408 . S
C251 C256 1.342 . S
C252 C253 1.310 . S
C252 C255 1.461 . S
C252 H272 0.932 . S
C253 C251 1.408 . S
C253 C252 1.310 . S
C253 H273 0.930 . S
C254 C255 1.474 . S
C254 C256 1.285 . S
C254 H274 0.929 . S
C255 C252 1.461 . S
C255 C254 1.474 . S
C256 C251 1.342 . S
C256 C254 1.285 . S
C256 H275 0.930 . S
C257 C260 1.424 . S
C257 C262 1.245 1_655 S
C257 C263 1.428 . S
C258 C261 1.260 1_455 S
C258 C262 1.477 . S
C258 H276 0.932 . S
C259 C260 1.384 . S
C259 C261 1.479 . S
C259 H277 0.929 . S
C260 C257 1.424 . S
C260 C259 1.384 . S
C260 H278 0.928 . S
C261 C258 1.260 1_655 S
C261 C259 1.479 . S
C262 C257 1.245 1_455 S
C262 C258 1.477 . S
C262 H279 0.932 . S
C263 U246 2.882 . S
C263 C257 1.428 . S
C263 O266 1.301 1_655 S
C263 O267 1.282 . S
O264 U246 2.441 . S
O264 C250 1.249 . S
O265 U246 2.420 . S
O265 C250 1.202 . S
O266 U246 2.455 1_455 S
O266 C263 1.301 1_455 S
O267 U246 2.449 . S
O267 C263 1.282 . S
H268 C241 0.931 . S
H269 C243 0.929 . S
H270 C244 0.930 . S
H271 C245 0.931 . S
H272 C252 0.932 . S
H273 C253 0.930 . S
H274 C254 0.929 . S
H275 C256 0.930 . S
H276 C258 0.932 . S
H277 C259 0.929 . S
H278 C260 0.928 . S
H279 C262 0.932 . S
C280 C281 1.264 . S
C280 C285 1.479 . S
C280 C290 1.465 . S
C281 C280 1.264 . S
C281 C283 1.339 . S
C281 H308 0.931 . S
C282 C283 1.395 . S
C282 C284 1.320 . S
C283 C281 1.339 . S
C283 C282 1.395 . S
C283 H309 0.929 . S
C284 C282 1.320 . S
C284 C285 1.405 . S
C284 H310 0.930 . S
C285 C280 1.479 . S
C285 C284 1.405 . S
C285 H311 0.931 . S
U286 O287 2.454 1_565 S
U286 O288 2.458 1_565 S
U286 C289 2.984 1_565 S
U286 C290 2.847 . S
U286 C303 2.882 . S
U286 O304 2.441 . S
U286 O305 2.420 . S
U286 O306 2.455 1_565 S
U286 O307 2.449 . S
O287 U286 2.454 1_545 S
O287 C289 1.353 . S
O288 U286 2.458 1_545 S
O288 C289 1.286 . S
C289 U286 2.984 1_545 S
C289 O287 1.353 . S
C289 O288 1.286 . S
C289 C291 1.363 . S
C290 C280 1.465 . S
C290 U286 2.847 . S
C290 O304 1.249 . S
C290 O305 1.202 . S
C291 C289 1.363 . S
C291 C293 1.408 . S
C291 C296 1.342 . S
C292 C293 1.310 . S
C292 C295 1.461 . S
C292 H312 0.932 . S
C293 C291 1.408 . S
C293 C292 1.310 . S
C293 H313 0.930 . S
C294 C295 1.474 . S
C294 C296 1.285 . S
C294 H314 0.929 . S
C295 C292 1.461 . S
C295 C294 1.474 . S
C296 C291 1.342 . S
C296 C294 1.285 . S
C296 H315 0.930 . S
C297 C300 1.424 . S
C297 C302 1.245 1_565 S
C297 C303 1.428 . S
C298 C301 1.260 1_545 S
C298 C302 1.477 . S
C298 H316 0.932 . S
C299 C300 1.384 . S
C299 C301 1.479 . S
C299 H317 0.929 . S
C300 C297 1.424 . S
C300 C299 1.384 . S
C300 H318 0.928 . S
C301 C298 1.260 1_565 S
C301 C299 1.479 . S
C302 C297 1.245 1_545 S
C302 C298 1.477 . S
C302 H319 0.932 . S
C303 U286 2.882 . S
C303 C297 1.428 . S
C303 O306 1.301 1_565 S
C303 O307 1.282 . S
O304 U286 2.441 . S
O304 C290 1.249 . S
O305 U286 2.420 . S
O305 C290 1.202 . S
O306 U286 2.455 1_545 S
O306 C303 1.301 1_545 S
O307 U286 2.449 . S
O307 C303 1.282 . S
H308 C281 0.931 . S
H309 C283 0.929 . S
H310 C284 0.930 . S
H311 C285 0.931 . S
H312 C292 0.932 . S
H313 C293 0.930 . S
H314 C294 0.929 . S
H315 C296 0.930 . S
H316 C298 0.932 . S
H317 C299 0.929 . S
H318 C300 0.928 . S
H319 C302 0.932 . S
C320 C321 1.264 . S
C320 C325 1.479 . S
C320 C330 1.465 . S
C321 C320 1.264 . S
C321 C323 1.339 . S
C321 H348 0.931 . S
C322 C323 1.395 . S
C322 C324 1.320 . S
C323 C321 1.339 . S
C323 C322 1.395 . S
C323 H349 0.929 . S
C324 C322 1.320 . S
C324 C325 1.405 . S
C324 H350 0.930 . S
C325 C320 1.479 . S
C325 C324 1.405 . S
C325 H351 0.931 . S
U326 O327 2.454 . S
U326 O328 2.458 . S
U326 C329 2.984 . S
U326 C330 2.847 . S
U326 C343 2.882 . S
U326 O344 2.441 . S
U326 O345 2.420 . S
U326 O346 2.455 . S
U326 O347 2.449 . S
O327 U326 2.454 . S
O327 C329 1.353 . S
O328 U326 2.458 . S
O328 C329 1.286 . S
C329 U326 2.984 . S
C329 O327 1.353 . S
C329 O328 1.286 . S
C329 C331 1.363 . S
C330 C320 1.465 . S
C330 U326 2.847 . S
C330 O344 1.249 . S
C330 O345 1.202 . S
C331 C329 1.363 . S
C331 C333 1.408 . S
C331 C336 1.342 . S
C332 C333 1.310 . S
C332 C335 1.461 . S
C332 H352 0.932 . S
C333 C331 1.408 . S
C333 C332 1.310 . S
C333 H353 0.930 . S
C334 C335 1.474 . S
C334 C336 1.285 . S
C334 H354 0.929 . S
C335 C332 1.461 . S
C335 C334 1.474 . S
C336 C331 1.342 . S
C336 C334 1.285 . S
C336 H355 0.930 . S
C337 C340 1.424 . S
C337 C342 1.245 . S
C337 C343 1.428 1_556 S
C338 C341 1.260 . S
C338 C342 1.477 . S
C338 H356 0.932 . S
C339 C340 1.384 . S
C339 C341 1.479 . S
C339 H357 0.929 . S
C340 C337 1.424 . S
C340 C339 1.384 . S
C340 H358 0.928 . S
C341 C338 1.260 . S
C341 C339 1.479 . S
C342 C337 1.245 . S
C342 C338 1.477 . S
C342 H359 0.932 . S
C343 U326 2.882 . S
C343 C337 1.428 1_554 S
C343 O346 1.301 . S
C343 O347 1.282 . S
O344 U326 2.441 . S
O344 C330 1.249 . S
O345 U326 2.420 . S
O345 C330 1.202 . S
O346 U326 2.455 . S
O346 C343 1.301 . S
O347 U326 2.449 . S
O347 C343 1.282 . S
H348 C321 0.931 . S
H349 C323 0.929 . S
H350 C324 0.930 . S
H351 C325 0.931 . S
H352 C332 0.932 . S
H353 C333 0.930 . S
H354 C334 0.929 . S
H355 C336 0.930 . S
H356 C338 0.932 . S
H357 C339 0.929 . S
H358 C340 0.928 . S
H359 C342 0.932 . S
C6 C335 2.838 . S
C59 C242 3.099 . S
C86 C282 2.128 . S
C15 C322 1.311 . S
C255 C50 3.575 . S
C295 C95 1.396 . S
C46 C162 1.259 . S
C99 C202 5.252 . S
C10 C135 3.702 . S
C175 C55 1.462 . S
C215 C90 5.156 . S
C19 C122 3.096 . S
C221 C18 2.015 . S
C49 C141 1.304 . S
C98 C181 1.433 . S
C301 C58 1.527 1_565 S
C341 C89 1.662 . S
C9 C261 1.286 1_455 S
