# Generated by pormake.
# Topology soc, (4,6)-cn, num edge types: 1
# Building blocks:
#     Node 0, Type 0, BuildingBlock: ESEHIV_clean_sbu_0, # of connection points: 4
#     Node 1, Type 0, BuildingBlock: ESEHIV_clean_sbu_0, # of connection points: 4
#     Node 2, Type 0, BuildingBlock: ESEHIV_clean_sbu_0, # of connection points: 4
#     Node 3, Type 0, BuildingBlock: ESEHIV_clean_sbu_0, # of connection points: 4
#     Node 4, Type 0, BuildingBlock: ESEHIV_clean_sbu_0, # of connection points: 4
#     Node 5, Type 0, BuildingBlock: ESEHIV_clean_sbu_0, # of connection points: 4
#     Node 6, Type 0, BuildingBlock: ESEHIV_clean_sbu_0, # of connection points: 4
#     Node 7, Type 0, BuildingBlock: ESEHIV_clean_sbu_0, # of connection points: 4
#     Node 8, Type 0, BuildingBlock: ESEHIV_clean_sbu_0, # of connection points: 4
#     Node 9, Type 0, BuildingBlock: ESEHIV_clean_sbu_0, # of connection points: 4
#     Node 10, Type 0, BuildingBlock: ESEHIV_clean_sbu_0, # of connection points: 4
#     Node 11, Type 0, BuildingBlock: ESEHIV_clean_sbu_0, # of connection points: 4
#     Node 12, Type 1, BuildingBlock: KUMJIN_clean_sbu_0, # of connection points: 6
#     Node 13, Type 1, BuildingBlock: KUMJIN_clean_sbu_0, # of connection points: 6
#     Node 14, Type 1, BuildingBlock: KUMJIN_clean_sbu_0, # of connection points: 6
#     Node 15, Type 1, BuildingBlock: KUMJIN_clean_sbu_0, # of connection points: 6
#     Node 16, Type 1, BuildingBlock: KUMJIN_clean_sbu_0, # of connection points: 6
#     Node 17, Type 1, BuildingBlock: KUMJIN_clean_sbu_0, # of connection points: 6
#     Node 18, Type 1, BuildingBlock: KUMJIN_clean_sbu_0, # of connection points: 6
#     Node 19, Type 1, BuildingBlock: KUMJIN_clean_sbu_0, # of connection points: 6
#     Edge 20, Type (0, 1), BuildingBlock: CIFDUS_clean_linker_0, # of connection points: 2
#     Edge 21, Type (0, 1), BuildingBlock: CIFDUS_clean_linker_0, # of connection points: 2
#     Edge 22, Type (0, 1), BuildingBlock: CIFDUS_clean_linker_0, # of connection points: 2
#     Edge 23, Type (0, 1), BuildingBlock: CIFDUS_clean_linker_0, # of connection points: 2
#     Edge 24, Type (0, 1), BuildingBlock: CIFDUS_clean_linker_0, # of connection points: 2
#     Edge 25, Type (0, 1), BuildingBlock: CIFDUS_clean_linker_0, # of connection points: 2
#     Edge 26, Type (0, 1), BuildingBlock: CIFDUS_clean_linker_0, # of connection points: 2
#     Edge 27, Type (0, 1), BuildingBlock: CIFDUS_clean_linker_0, # of connection points: 2
#     Edge 28, Type (0, 1), BuildingBlock: CIFDUS_clean_linker_0, # of connection points: 2
#     Edge 29, Type (0, 1), BuildingBlock: CIFDUS_clean_linker_0, # of connection points: 2
#     Edge 30, Type (0, 1), BuildingBlock: CIFDUS_clean_linker_0, # of connection points: 2
#     Edge 31, Type (0, 1), BuildingBlock: CIFDUS_clean_linker_0, # of connection points: 2
#     Edge 32, Type (0, 1), BuildingBlock: CIFDUS_clean_linker_0, # of connection points: 2
#     Edge 33, Type (0, 1), BuildingBlock: CIFDUS_clean_linker_0, # of connection points: 2
#     Edge 34, Type (0, 1), BuildingBlock: CIFDUS_clean_linker_0, # of connection points: 2
#     Edge 35, Type (0, 1), BuildingBlock: CIFDUS_clean_linker_0, # of connection points: 2
#     Edge 36, Type (0, 1), BuildingBlock: CIFDUS_clean_linker_0, # of connection points: 2
#     Edge 37, Type (0, 1), BuildingBlock: CIFDUS_clean_linker_0, # of connection points: 2
#     Edge 38, Type (0, 1), BuildingBlock: CIFDUS_clean_linker_0, # of connection points: 2
#     Edge 39, Type (0, 1), BuildingBlock: CIFDUS_clean_linker_0, # of connection points: 2
#     Edge 40, Type (0, 1), BuildingBlock: CIFDUS_clean_linker_0, # of connection points: 2
#     Edge 41, Type (0, 1), BuildingBlock: CIFDUS_clean_linker_0, # of connection points: 2
#     Edge 42, Type (0, 1), BuildingBlock: CIFDUS_clean_linker_0, # of connection points: 2
#     Edge 43, Type (0, 1), BuildingBlock: CIFDUS_clean_linker_0, # of connection points: 2
#     Edge 44, Type (0, 1), BuildingBlock: CIFDUS_clean_linker_0, # of connection points: 2
#     Edge 45, Type (0, 1), BuildingBlock: CIFDUS_clean_linker_0, # of connection points: 2
#     Edge 46, Type (0, 1), BuildingBlock: CIFDUS_clean_linker_0, # of connection points: 2
#     Edge 47, Type (0, 1), BuildingBlock: CIFDUS_clean_linker_0, # of connection points: 2
#     Edge 48, Type (0, 1), BuildingBlock: CIFDUS_clean_linker_0, # of connection points: 2
#     Edge 49, Type (0, 1), BuildingBlock: CIFDUS_clean_linker_0, # of connection points: 2
#     Edge 50, Type (0, 1), BuildingBlock: CIFDUS_clean_linker_0, # of connection points: 2
#     Edge 51, Type (0, 1), BuildingBlock: CIFDUS_clean_linker_0, # of connection points: 2
#     Edge 52, Type (0, 1), BuildingBlock: CIFDUS_clean_linker_0, # of connection points: 2
#     Edge 53, Type (0, 1), BuildingBlock: CIFDUS_clean_linker_0, # of connection points: 2
#     Edge 54, Type (0, 1), BuildingBlock: CIFDUS_clean_linker_0, # of connection points: 2
#     Edge 55, Type (0, 1), BuildingBlock: CIFDUS_clean_linker_0, # of connection points: 2
#     Edge 56, Type (0, 1), BuildingBlock: CIFDUS_clean_linker_0, # of connection points: 2
#     Edge 57, Type (0, 1), BuildingBlock: CIFDUS_clean_linker_0, # of connection points: 2
#     Edge 58, Type (0, 1), BuildingBlock: CIFDUS_clean_linker_0, # of connection points: 2
#     Edge 59, Type (0, 1), BuildingBlock: CIFDUS_clean_linker_0, # of connection points: 2
#     Edge 60, Type (0, 1), BuildingBlock: CIFDUS_clean_linker_0, # of connection points: 2
#     Edge 61, Type (0, 1), BuildingBlock: CIFDUS_clean_linker_0, # of connection points: 2
#     Edge 62, Type (0, 1), BuildingBlock: CIFDUS_clean_linker_0, # of connection points: 2
#     Edge 63, Type (0, 1), BuildingBlock: CIFDUS_clean_linker_0, # of connection points: 2
#     Edge 64, Type (0, 1), BuildingBlock: CIFDUS_clean_linker_0, # of connection points: 2
#     Edge 65, Type (0, 1), BuildingBlock: CIFDUS_clean_linker_0, # of connection points: 2
#     Edge 66, Type (0, 1), BuildingBlock: CIFDUS_clean_linker_0, # of connection points: 2
#     Edge 67, Type (0, 1), BuildingBlock: CIFDUS_clean_linker_0, # of connection points: 2
# Relax obj value: 0.079
# Max RMSD: 0.224
# Mean RMSD: 0.148
data_MOF--net-soc--node1-ESEHIV_clean_sbu_0--node2-KUMJIN_clean_sbu_0--edge1-CIFDUS_clean_linker_0
_symmetry_space_group_name_H-M    P1
_symmetry_Int_Tables_number       1
_symmetry_cell_setting            triclinic
loop_
_symmetry_equiv_pos_as_xyz
'x, y, z'
_cell_length_a     46.563881
_cell_length_b     44.594832
_cell_length_c     36.839597
_cell_angle_alpha  82.63043
_cell_angle_beta   81.240549
_cell_angle_gamma 71.250042
loop_
_atom_site_label
_atom_site_type_symbol
_atom_site_fract_x
_atom_site_fract_y
_atom_site_fract_z
_atom_type_partial_charge
Cu0 Cu 0.05096 0.05919 0.36386 0.0
N1 N 0.06831 0.07643 0.3948 0.0
N2 N 0.09583 0.1045 0.41047 0.0
C3 C 0.08892 0.09193 0.38282 0.0
C4 C 0.07896 0.09641 0.44106 0.0
C5 C 0.062 0.07906 0.4313 0.0
O6 O 0.08565 0.03012 0.33599 0.0
C7 C 0.99693 0.09732 0.33329 0.0
O8 O 0.98991 0.07079 0.33615 0.0
H9 H 0.09782 0.09485 0.35413 0.0
H10 H 0.0459 0.06955 0.44942 0.0
N11 N 0.027 0.03497 0.3894 0.0
N12 N 1.00362 0.9976 0.39888 0.0
C13 C 0.02546 0.00805 0.3781 0.0
C14 C 1.00517 0.042 0.41822 0.0
C15 C 0.99072 0.01888 0.42421 0.0
C16 C 0.09929 1.00534 0.35571 0.0
O17 O 0.08907 1.00202 0.39076 0.0
H18 H 0.0392 0.99715 0.35399 0.0
H19 H 0.99934 0.06308 0.43284 0.0
O20 O 0.02366 0.09626 0.33871 0.0
H21 H 0.07883 0.10261 0.46856 0.0
H22 H 0.97198 0.01798 0.44523 0.0
Cu23 Cu 0.05637 0.049 0.77464 0.0
N24 N 0.04113 0.02558 0.74896 0.0
N25 N 1.01097 1.00026 0.73506 0.0
C26 C 1.01398 0.02035 0.75735 0.0
C27 C 0.03693 0.99253 0.71174 0.0
C28 C 0.05552 0.00841 0.72026 0.0
O29 O 0.02201 0.0795 0.80131 0.0
C30 C 0.11234 1.00454 0.7798 0.0
O31 O 0.11387 0.0152 0.74493 0.0
H32 H 0.99719 0.03031 0.7799 0.0
H33 H 0.078 1.00723 0.70653 0.0
N34 N 0.07458 0.07395 0.74114 0.0
N35 N 0.10386 0.10475 0.7202 0.0
C36 C 0.0923 0.08958 0.75007 0.0
C37 C 0.07431 0.07944 0.70447 0.0
C38 C 0.09243 0.09844 0.69141 0.0
C39 C 1.00373 0.09769 0.77935 0.0
O40 O 1.00941 0.0926 0.74425 0.0
H41 H 0.09674 0.0891 0.77809 0.0
H42 H 0.06218 0.06998 0.68837 0.0
O43 O 0.08838 0.01764 0.80118 0.0
H44 H 0.04196 0.97659 0.69017 0.0
H45 H 0.09718 0.10624 0.66276 0.0
Cu46 Cu 0.32851 0.0707 0.11496 0.0
N47 N 0.35615 0.04063 0.08547 0.0
N48 N 0.36702 1.00131 0.04875 0.0
C49 C 0.34647 0.01873 0.07372 0.0
C50 C 0.39069 0.01324 0.04352 0.0
C51 C 0.38396 0.03759 0.06653 0.0
O52 O 0.30484 0.04379 0.14398 0.0
C53 C 0.32808 0.11906 0.06042 0.0
O54 O 0.3553 0.11191 0.07115 0.0
H55 H 0.32351 0.01735 0.08114 0.0
H56 H 0.39763 0.05287 0.06785 0.0
N57 N 0.34735 0.08744 0.14562 0.0
N58 N 0.35584 0.11872 0.18325 0.0
C59 C 0.33529 0.1139 0.16411 0.0
C60 C 0.37643 0.07541 0.153 0.0
C61 C 0.38171 0.0945 0.17611 0.0
C62 C 0.3122 0.02832 0.17482 0.0
O63 O 0.33036 0.03662 0.19274 0.0
H64 H 0.31183 0.12891 0.16403 0.0
H65 H 0.39266 0.05415 0.14234 0.0
O66 O 0.30963 0.10474 0.07798 0.0
H67 H 0.41082 1.0056 0.02385 0.0
H68 H 0.40312 0.09083 0.18673 0.0
Cu69 Cu 0.07054 0.3281 0.11766 0.0
N70 N 0.10157 0.32031 0.07711 0.0
N71 N 0.13655 0.31405 0.02683 0.0
C72 C 0.12357 0.29898 0.0563 0.0
C73 C 0.12269 0.34523 0.02983 0.0
C74 C 0.10183 0.34882 0.06017 0.0
O75 O 0.08939 0.34544 0.15131 0.0
C76 C 0.03236 0.33646 0.06807 0.0
O77 O 0.04992 0.30672 0.06823 0.0
H78 H 0.12937 0.27345 0.06191 0.0
H79 H 0.08708 0.37132 0.06948 0.0
N80 N 0.04833 0.30194 0.14572 0.0
N81 N 1.00466 0.29531 0.17671 0.0
C82 C 1.01781 0.31491 0.15444 0.0
C83 C 0.05494 0.27274 0.16382 0.0
C84 C 0.02807 0.26865 0.18299 0.0
C85 C 0.10825 0.32489 0.17103 0.0
O86 O 0.11048 0.29477 0.17115 0.0
H87 H 1.00543 0.33907 0.1455 0.0
H88 H 0.07759 0.25585 0.16382 0.0
O89 O 0.03733 0.35445 0.08938 0.0
H90 H 0.12747 0.36438 1.01124 0.0
H91 H 0.02599 0.24766 0.2001 0.0
Cu92 Cu 0.78574 0.02618 1.00208 0.0
N93 N 0.80761 0.04742 0.96724 0.0
N94 N 0.81884 0.08805 0.93241 0.0
C95 C 0.79851 0.079 0.95798 0.0
C96 C 0.8416 0.06092 0.9253 0.0
C97 C 0.83456 0.03591 0.94673 0.0
O98 O 0.76138 0.05864 0.0349 0.0
C99 C 0.78217 0.97856 0.96325 0.0
O100 O 0.81064 0.96755 0.97044 0.0
H101 H 0.77714 0.09493 0.96955 0.0
H102 H 0.84812 0.01114 0.94727 0.0
N103 N 0.81101 0.99503 0.03214 0.0
N104 N 0.8244 0.95969 0.08 0.0
C105 C 0.80112 0.97857 0.06192 0.0
C106 C 0.84158 0.98622 0.03126 0.0
C107 C 0.8499 0.96438 0.06077 0.0
C108 C 0.77866 0.06928 0.05009 0.0
O109 O 0.80837 0.05662 0.04308 0.0
H110 H 0.77722 0.98141 0.07093 0.0
H111 H 0.85667 0.99568 1.01131 0.0
O112 O 0.76536 1.0051 0.97511 0.0
H113 H 0.86209 0.0592 0.90628 0.0
H114 H 0.87291 0.95312 0.06778 0.0
Cu115 Cu 0.03051 0.79721 0.0207 0.0
N116 N 1.00426 0.80563 0.98343 0.0
N117 N 0.96933 0.80378 0.94842 0.0
C118 C 0.98305 0.79173 0.97937 0.0
C119 C 0.98235 0.82597 0.9326 0.0
C120 C 1.00347 0.82726 0.95423 0.0
O121 O 1.01048 0.77915 0.06771 0.0
C122 C 0.08758 0.79387 0.97337 0.0
O123 O 0.07053 0.82251 0.96309 0.0
H124 H 0.97792 0.77307 0.9985 0.0
H125 H 1.01696 0.84335 0.94911 0.0
N126 N 0.03248 0.8348 0.03562 0.0
N127 N 0.05412 0.86173 0.06409 0.0
C128 C 0.05853 0.83641 0.04528 0.0
C129 C 1.01044 0.86013 0.04901 0.0
C130 C 0.0238 0.87676 0.06695 0.0
C131 C 0.98175 0.79238 0.07797 0.0
O132 O 0.96623 0.8151 0.05562 0.0
H133 H 0.07994 0.81742 0.04218 0.0
H134 H 0.98625 0.86478 0.04851 0.0
O135 O 0.075 0.777 0.99816 0.0
H136 H 0.97647 0.8408 0.90748 0.0
H137 H 1.01203 0.89698 0.08272 0.0
Cu138 Cu 0.54807 0.5465 0.86295 0.0
N139 N 0.56145 0.56656 0.89476 0.0
N140 N 0.58276 0.59805 0.9152 0.0
C141 C 0.5785 0.58619 0.88536 0.0
C142 C 0.56793 0.58537 0.94435 0.0
C143 C 0.55472 0.56592 0.9316 0.0
O144 O 0.58334 0.5191 0.83349 0.0
C145 C 0.4953 0.58375 0.82389 0.0
O146 O 0.49243 0.55767 0.81408 0.0
H147 H 0.58686 0.59226 0.85722 0.0
H148 H 0.54084 0.55259 0.9479 0.0
N149 N 0.52982 0.5188 0.89191 0.0
N150 N 0.49823 0.49053 0.9126 0.0
C151 C 0.50163 0.51675 0.89225 0.0
C152 C 0.54436 0.49341 0.91355 0.0
C153 C 0.52496 0.47583 0.92623 0.0
C154 C 0.60597 0.50503 0.85164 0.0
O155 O 0.60506 0.51353 0.88468 0.0
H156 H 0.48438 0.53313 0.87671 0.0
H157 H 0.56781 0.48732 0.91879 0.0
O158 O 0.51828 0.58234 0.83955 0.0
H159 H 0.56664 0.58996 0.97279 0.0
H160 H 0.53034 0.45355 0.94326 0.0
Cu161 Cu 0.55392 0.55854 0.27513 0.0
N162 N 0.54021 0.53613 0.24565 0.0
N163 N 0.51363 0.51024 0.22368 0.0
C164 C 0.51459 0.52742 0.25095 0.0
C165 C 0.53966 0.50799 0.20085 0.0
C166 C 0.5558 0.52393 0.21431 0.0
O167 O 0.51883 0.58908 0.30142 0.0
C168 C 0.60974 0.51317 0.28153 0.0
O169 O 0.61224 0.52435 0.24691 0.0
H170 H 0.49711 0.5337 0.27409 0.0
H171 H 0.57755 0.52633 0.20184 0.0
N172 N 0.57352 0.58419 0.24405 0.0
N173 N 0.60343 0.61475 0.22456 0.0
C174 C 0.59257 0.59811 0.25365 0.0
C175 C 0.57194 0.59241 0.20784 0.0
C176 C 0.59042 0.61107 0.19572 0.0
C177 C 0.50161 0.60849 0.27913 0.0
O178 O 0.50773 0.60364 0.24398 0.0
H179 H 0.59817 0.59585 0.28148 0.0
H180 H 0.55828 0.58539 0.19131 0.0
O181 O 0.58518 0.52606 0.3022 0.0
H182 H 0.54702 0.49516 0.17638 0.0
H183 H 0.59418 0.62064 0.16756 0.0
Cu184 Cu 0.81833 0.57067 0.61429 0.0
N185 N 0.84315 0.57848 0.57158 0.0
N186 N 0.85473 0.59947 0.51515 0.0
C187 C 0.83493 0.60317 0.54621 0.0
C188 C 0.87615 0.57128 0.52082 0.0
C189 C 0.8689 0.55831 0.5556 0.0
O190 O 0.8102 0.6032 0.64895 0.0
C191 C 0.79359 0.53797 0.57843 0.0
O192 O 0.82305 0.52344 0.57276 0.0
H193 H 0.81383 0.62249 0.54939 0.0
H194 H 0.88055 0.53481 0.56712 0.0
N195 N 0.83798 0.53286 0.64025 0.0
N196 N 0.84268 0.48619 0.67254 0.0
C197 C 0.82319 0.51352 0.65968 0.0
C198 C 0.86792 0.51755 0.64159 0.0
C199 C 0.87091 0.48839 0.66115 0.0
C200 C 0.80349 0.63331 0.64288 0.0
O201 O 0.79709 0.64687 0.61007 0.0
H202 H 0.7986 0.51881 0.66286 0.0
H203 H 0.8863 0.52661 0.62883 0.0
O204 O 0.78402 0.56212 0.59734 0.0
H205 H 0.89529 0.56061 0.50101 0.0
H206 H 0.89207 0.47019 0.66646 0.0
Cu207 Cu 0.5714 0.81208 0.59817 0.0
N208 N 0.60543 0.79318 0.56214 0.0
N209 N 0.64326 0.79039 0.51436 0.0
C210 C 0.61953 0.80959 0.53545 0.0
C211 C 0.64383 0.76067 0.52838 0.0
C212 C 0.62073 0.76243 0.55741 0.0
O213 O 0.58831 0.82802 0.63463 0.0
C214 C 0.53684 0.82925 0.54478 0.0
O215 O 0.55099 0.79869 0.54316 0.0
H216 H 0.61265 0.83528 0.53195 0.0
H217 H 0.6157 0.74254 0.57403 0.0
N218 N 0.54523 0.78823 0.62423 0.0
N219 N 0.5041 0.77686 0.65806 0.0
C220 C 0.5172 0.79992 0.64413 0.0
C221 C 0.54952 0.75687 0.62527 0.0
C222 C 0.52468 0.74991 0.6459 0.0
C223 C 0.61403 0.81036 0.64428 0.0
O224 O 0.62746 0.78325 0.62968 0.0
H225 H 0.50688 0.82478 0.64886 0.0
H226 H 0.56932 0.74008 0.61187 0.0
O227 O 0.54328 0.84353 0.56877 0.0
H228 H 0.65961 0.73895 0.51818 0.0
H229 H 0.52204 0.72645 0.65165 0.0
Cu230 Cu 0.27977 0.53181 0.51971 0.0
N231 N 0.2996 0.55894 0.48985 0.0
N232 N 0.30524 0.6042 0.45899 0.0
C233 C 0.28616 0.59026 0.48091 0.0
C234 C 0.33186 0.58048 0.4538 0.0
C235 C 0.32833 0.55272 0.47282 0.0
O236 O 0.24374 0.56223 0.54315 0.0
C237 C 0.29261 0.47786 0.48188 0.0
O238 O 0.31915 0.47302 0.49357 0.0
H239 H 0.26251 0.60245 0.48971 0.0
H240 H 0.34553 0.52967 0.47416 0.0
N241 N 0.30277 0.50623 0.55684 0.0
N242 N 0.31586 0.47123 0.60589 0.0
C243 C 0.29552 0.4834 0.581 0.0
C244 C 0.32891 0.508 0.56618 0.0
C245 C 0.33704 0.48655 0.59615 0.0
C246 C 0.24175 0.56647 0.5771 0.0
O247 O 0.25026 0.54154 0.60067 0.0
H248 H 0.27492 0.47705 0.58131 0.0
H249 H 0.34093 0.52422 0.55256 0.0
O250 O 0.27113 0.50333 0.48926 0.0
H251 H 0.3526 0.58301 0.43785 0.0
H252 H 0.35702 0.48286 0.60983 0.0
Cu253 Cu 0.52016 0.29823 0.52186 0.0
N254 N 0.55612 0.27703 0.4923 0.0
N255 N 0.60242 0.2711 0.46004 0.0
C256 C 0.57574 0.29182 0.47337 0.0
C257 C 0.59928 0.24207 0.47092 0.0
C258 C 0.57083 0.24578 0.49077 0.0
O259 O 0.53418 0.32591 0.54779 0.0
C260 C 0.48286 0.29901 0.4675 0.0
O261 O 0.50479 0.27251 0.46068 0.0
H262 H 0.57117 0.31731 0.47148 0.0
H263 H 0.56211 0.22699 0.50436 0.0
N264 N 0.50506 0.27369 0.56064 0.0
N265 N 0.47363 0.26562 0.61092 0.0
C266 C 0.47846 0.28591 0.58183 0.0
C267 C 0.51773 0.24456 0.57687 0.0
C268 C 0.49839 0.23949 0.60779 0.0
C269 C 0.55753 0.30969 0.56401 0.0
O270 O 0.56743 0.27873 0.56257 0.0
H271 H 0.46367 0.30994 0.57679 0.0
H272 H 0.53991 0.22859 0.56786 0.0
O273 O 0.48578 0.31594 0.49155 0.0
H274 H 0.6165 0.21962 0.46556 0.0
H275 H 0.50255 0.21829 0.62668 0.0
Eu276 Eu 0.27749 0.29625 0.36311 0.0
C277 C 0.30233 0.33707 0.19665 0.0
C278 C 0.34194 0.29066 0.17459 0.0
C279 C 0.30628 0.32462 0.13342 0.0
C280 C 0.32693 0.31047 0.20305 0.0
C281 C 0.29219 0.34493 0.16152 0.0
C282 C 0.33104 0.29747 0.13999 0.0
C283 C 0.25637 0.39337 0.18392 0.0
N284 N 0.289 0.35596 0.22448 0.0
C285 C 0.26704 0.3844 0.21842 0.0
C286 C 0.26864 0.3733 0.15551 0.0
Eu287 Eu 0.30705 0.33804 0.28235 0.0
N288 N 0.33691 0.3046 0.23673 0.0
C289 C 0.36328 0.28092 0.24293 0.0
C290 C 0.3678 0.26497 0.18156 0.0
C291 C 0.37879 0.2604 0.21571 0.0
H292 H 0.25729 0.39979 0.24044 0.0
H293 H 0.39907 0.24095 0.2212 0.0
H294 H 0.34204 0.28231 0.11789 0.0
H295 H 0.23854 0.41561 0.17937 0.0
H296 H 0.37184 0.27692 0.26931 0.0
H297 H 0.18176 0.3948 0.41487 0.0
H298 H 0.37982 0.249 0.16054 0.0
H299 H 0.32858 0.23984 0.40986 0.0
H300 H 0.21064 0.35534 0.37094 0.0
H301 H 0.34766 0.23089 0.47082 0.0
H302 H 0.29858 0.33002 0.10634 0.0
H303 H 0.20059 0.39349 0.47455 0.0
H304 H 0.23913 0.3661 0.51878 0.0
H305 H 0.26022 0.38022 0.12887 0.0
H306 H 0.2841 0.3214 0.53416 0.0
N307 N 0.24561 0.33203 0.40523 0.0
C308 C 0.21883 0.35413 0.39711 0.0
C309 C 0.2132 0.37587 0.4555 0.0
C310 C 0.23971 0.35192 0.4645 0.0
C311 C 0.20244 0.37664 0.4219 0.0
C312 C 0.25546 0.32985 0.43855 0.0
H313 H 0.32437 0.2705 0.51673 0.0
N314 N 0.29513 0.28389 0.4216 0.0
C315 C 0.32897 0.25189 0.46442 0.0
C316 C 0.28093 0.30495 0.44706 0.0
C317 C 0.31806 0.25686 0.43012 0.0
C318 C 0.31579 0.27434 0.49023 0.0
C319 C 0.2912 0.30108 0.4819 0.0
O320 O 0.2763 0.2475 0.37479 0.0
O321 O 0.29722 0.29327 0.30465 0.0
O322 O 0.26404 0.33211 0.26602 0.0
O323 O 0.24052 0.31965 0.3241 0.0
O324 O 0.31533 0.25435 0.34002 0.0
O325 O 0.23396 0.28637 0.37279 0.0
O326 O 0.31072 0.38561 0.27981 0.0
O327 O 0.28701 0.34085 0.34058 0.0
O328 O 0.31979 0.30475 0.37792 0.0
O329 O 0.34476 0.31014 0.31908 0.0
O330 O 0.26916 0.37997 0.30581 0.0
O331 O 0.35174 0.34561 0.27093 0.0
C332 C 0.31541 0.26534 0.30586 0.0
C333 C 0.23253 0.24054 0.41112 0.0
C334 C 0.19723 0.21118 0.4371 0.0
C335 C 0.21154 0.22519 0.40636 0.0
C336 C 0.2048 0.21216 0.47241 0.0
C337 C 0.23946 0.24169 0.4465 0.0
C338 C 0.22576 0.22736 0.47699 0.0
C339 C 0.24038 0.32701 0.28788 0.0
C340 C 0.24653 0.2558 0.37905 0.0
C341 C 0.27631 0.32368 0.50739 0.0
C342 C 0.25068 0.34911 0.49865 0.0
C343 C 0.26884 0.36881 0.3399 0.0
C344 C 0.35232 0.39582 0.24272 0.0
C345 C 0.37332 0.40979 0.25061 0.0
C346 C 0.38329 0.43105 0.22424 0.0
C347 C 0.37158 0.43813 0.18991 0.0
C348 C 0.34176 0.4022 0.20807 0.0
C349 C 0.35131 0.42342 0.18181 0.0
C350 C 0.34445 0.30616 0.35554 0.0
C351 C 0.34027 0.37633 0.27184 0.0
H352 H 0.20584 0.22486 0.37897 0.0
H353 H 0.19449 0.20114 0.49655 0.0
H354 H 0.25536 0.25365 0.45062 0.0
H355 H 0.23128 0.22816 0.50427 0.0
H356 H 0.38186 0.40393 0.27725 0.0
H357 H 0.37791 0.45516 0.16924 0.0
H358 H 0.32581 0.39128 0.20153 0.0
H359 H 0.34273 0.42878 0.15526 0.0
Eu360 Eu 0.8075 0.31486 0.35516 0.0
C361 C 0.71398 0.28196 0.29928 0.0
C362 C 0.71645 0.22981 0.33016 0.0
C363 C 0.66737 0.26746 0.31863 0.0
C364 C 0.73123 0.25218 0.31335 0.0
C365 C 0.68187 0.28953 0.30142 0.0
C366 C 0.6846 0.23771 0.33288 0.0
C367 C 0.68038 0.33938 0.26652 0.0
N368 N 0.72829 0.30331 0.28303 0.0
C369 C 0.71208 0.33076 0.2646 0.0
C370 C 0.66512 0.31892 0.2856 0.0
Eu371 Eu 0.78237 0.28582 0.28018 0.0
N372 N 0.76209 0.2453 0.31172 0.0
C373 C 0.77908 0.21614 0.32599 0.0
C374 C 0.73397 0.20017 0.34442 0.0
C375 C 0.7654 0.19335 0.3423 0.0
H376 H 0.72333 0.34563 0.24659 0.0
H377 H 0.7792 0.17053 0.35354 0.0
H378 H 0.67302 0.22091 0.34606 0.0
H379 H 0.66784 0.36142 0.25235 0.0
H380 H 0.8032 0.20953 0.32569 0.0
H381 H 0.83876 0.40747 0.26185 0.0
H382 H 0.72341 0.1825 0.35751 0.0
H383 H 0.84574 0.26386 0.41913 0.0
H384 H 0.80459 0.37738 0.29287 0.0
H385 H 0.89709 0.24751 0.44006 0.0
H386 H 0.64277 0.2731 0.32078 0.0
H387 H 0.89201 0.39224 0.27635 0.0
H388 H 0.93312 0.3566 0.31317 0.0
H389 H 0.64051 0.32551 0.28673 0.0
H390 H 0.94917 0.31274 0.36091 0.0
N391 N 0.83823 0.34499 0.32387 0.0
C392 C 0.82772 0.37044 0.29931 0.0
C393 C 0.87706 0.37894 0.29006 0.0
C394 C 0.88734 0.35345 0.31624 0.0
C395 C 0.84704 0.3876 0.28175 0.0
C396 C 0.86705 0.33677 0.3331 0.0
H397 H 0.9359 0.27207 0.40847 0.0
N398 N 0.85628 0.29599 0.37524 0.0
C399 C 0.89171 0.26519 0.41701 0.0
C400 C 0.87644 0.31137 0.35922 0.0
C401 C 0.86282 0.27434 0.40507 0.0
C402 C 0.91354 0.27914 0.3991 0.0
C403 C 0.90589 0.30291 0.37025 0.0
O404 O 0.79656 0.31967 0.41453 0.0
O405 O 0.76993 0.29937 0.33915 0.0
O406 O 0.76611 0.33966 0.27475 0.0
O407 O 0.76527 0.35193 0.33436 0.0
O408 O 0.787 0.27963 0.38922 0.0
O409 O 0.79223 0.36166 0.37682 0.0
O410 O 0.7731 0.29721 0.22301 0.0
O411 O 0.81604 0.30639 0.2958 0.0
O412 O 0.83947 0.26428 0.348 0.0
O413 O 0.82403 0.24721 0.29859 0.0
O414 O 0.82409 0.29332 0.2431 0.0
O415 O 0.79105 0.24779 0.24405 0.0
C416 C 0.76659 0.28143 0.36817 0.0
C417 C 0.80462 0.36391 0.43619 0.0
C418 C 0.79981 0.39942 0.48353 0.0
C419 C 0.78624 0.38737 0.45943 0.0
C420 C 0.83163 0.38841 0.48369 0.0
C421 C 0.83634 0.35345 0.43706 0.0
C422 C 0.84976 0.36563 0.46047 0.0
C423 C 0.75575 0.35902 0.3014 0.0
C424 C 0.79075 0.35047 0.41128 0.0
C425 C 0.92634 0.31911 0.35306 0.0
C426 C 0.91714 0.3442 0.32601 0.0
C427 C 0.83496 0.30442 0.26659 0.0
C428 C 0.75793 0.25887 0.19749 0.0
C429 C 0.76653 0.22892 0.18347 0.0
C430 C 0.7474 0.22119 0.16228 0.0
C431 C 0.71885 0.24363 0.15686 0.0
C432 C 0.72947 0.28083 0.19113 0.0
C433 C 0.70995 0.27302 0.17148 0.0
C434 C 0.84219 0.24295 0.32453 0.0
C435 C 0.77963 0.26743 0.2166 0.0
H436 H 0.7617 0.39587 0.45911 0.0
H437 H 0.84248 0.39762 0.5018 0.0
H438 H 0.85095 0.33579 0.41994 0.0
H439 H 0.87429 0.35728 0.4607 0.0
H440 H 0.78844 0.21196 0.18856 0.0
H441 H 0.70372 0.23911 0.14015 0.0
H442 H 0.72242 0.30434 0.20054 0.0
H443 H 0.68813 0.29022 0.1666 0.0
Eu444 Eu 0.80495 0.76883 0.28478 0.0
C445 C 0.77625 0.86266 0.38188 0.0
C446 C 0.75911 0.91462 0.34955 0.0
C447 C 0.73067 0.90204 0.40732 0.0
C448 C 0.77928 0.88336 0.3516 0.0
C449 C 0.75315 0.87241 0.41126 0.0
C450 C 0.73365 0.92321 0.37636 0.0
C451 C 0.78086 0.827 0.44889 0.0
N452 N 0.79907 0.83501 0.38522 0.0
C453 C 0.80342 0.81904 0.41894 0.0
C454 C 0.75491 0.85321 0.44461 0.0
Eu455 Eu 0.83342 0.81921 0.33214 0.0
N456 N 0.80506 0.87457 0.32773 0.0
C457 C 0.81475 0.89741 0.30546 0.0
C458 C 0.76671 0.93695 0.32272 0.0
C459 C 0.79519 0.92856 0.30141 0.0
H460 H 0.82481 0.80109 0.42287 0.0
H461 H 0.8022 0.94608 0.28217 0.0
H462 H 0.71744 0.94689 0.37483 0.0
H463 H 0.78388 0.81348 0.47538 0.0
H464 H 0.83698 0.89098 0.28942 0.0
H465 H 0.92132 0.69034 0.25588 0.0
H466 H 0.75183 0.96124 0.32014 0.0
H467 H 0.74985 0.79857 0.22878 0.0
H468 H 0.8763 0.72043 0.29462 0.0
H469 H 0.74452 0.80204 0.16244 0.0
H470 H 0.71221 0.90968 0.42915 0.0
H471 H 0.92077 0.69307 0.18853 0.0
H472 H 0.89219 0.71417 0.13352 0.0
H473 H 0.73765 0.85978 0.46794 0.0
H474 H 0.84457 0.74526 0.108 0.0
N475 N 0.84977 0.73986 0.24996 0.0
C476 C 0.87527 0.7215 0.26547 0.0
C477 C 0.90066 0.70617 0.20551 0.0
C478 C 0.8743 0.72457 0.18986 0.0
C479 C 0.90106 0.70451 0.2435 0.0
C480 C 0.84877 0.7413 0.21313 0.0
H481 H 0.78946 0.77801 0.11849 0.0
N482 N 0.79762 0.77442 0.22184 0.0
C483 C 0.7665 0.79019 0.17218 0.0
C484 C 0.82203 0.75927 0.19863 0.0
C485 C 0.7696 0.78821 0.20961 0.0
C486 C 0.79193 0.77662 0.14748 0.0
C487 C 0.81997 0.76035 0.16067 0.0
O488 O 0.76327 0.75566 0.28619 0.0
O489 O 0.79796 0.79377 0.33656 0.0
O490 O 0.83802 0.77236 0.36724 0.0
O491 O 0.82874 0.73736 0.33199 0.0
O492 O 0.75978 0.80049 0.31192 0.0
O493 O 0.80592 0.71923 0.29441 0.0
O494 O 0.87674 0.79618 0.35501 0.0
O495 O 0.84349 0.78875 0.28524 0.0
O496 O 0.79385 0.81589 0.25069 0.0
O497 O 0.81393 0.84648 0.28041 0.0
O498 O 0.87162 0.81609 0.28438 0.0
O499 O 0.85677 0.8479 0.35298 0.0
C500 C 0.76902 0.80558 0.3412 0.0
C501 C 0.77175 0.70671 0.26199 0.0
C502 C 0.73859 0.68171 0.24077 0.0
C503 C 0.7447 0.69836 0.26712 0.0
C504 C 0.75951 0.67395 0.20904 0.0
C505 C 0.79281 0.69771 0.23069 0.0
C506 C 0.7865 0.68188 0.20414 0.0
C507 C 0.83802 0.74361 0.36154 0.0
C508 C 0.77755 0.72528 0.28886 0.0
C509 C 0.84562 0.74444 0.1373 0.0
C510 C 0.87271 0.72662 0.15185 0.0
C511 C 0.86649 0.79573 0.26647 0.0
C512 C 0.90506 0.82529 0.37884 0.0
C513 C 0.91058 0.85463 0.37829 0.0
C514 C 0.93596 0.85626 0.39347 0.0
C515 C 0.95529 0.82835 0.40989 0.0
C516 C 0.92474 0.79777 0.3953 0.0
C517 C 0.94963 0.79939 0.41085 0.0
C518 C 0.80013 0.84219 0.2536 0.0
C519 C 0.87917 0.82311 0.36196 0.0
H520 H 0.72843 0.70491 0.29136 0.0
H521 H 0.75534 0.66099 0.18848 0.0
H522 H 0.81432 0.70257 0.22686 0.0
H523 H 0.80276 0.67535 0.17995 0.0
H524 H 0.89565 0.87595 0.36532 0.0
H525 H 0.97471 0.82897 0.42233 0.0
H526 H 0.92087 0.77498 0.39624 0.0
H527 H 0.96463 0.77808 0.42364 0.0
Eu528 Eu 0.28784 0.8016 0.27502 0.0
C529 C 0.32799 0.89525 0.34791 0.0
C530 C 0.37078 0.89813 0.30238 0.0
C531 C 0.34485 0.94227 0.3398 0.0
C532 C 0.35108 0.88124 0.32093 0.0
C533 C 0.32481 0.92586 0.35767 0.0
C534 C 0.36765 0.92852 0.31212 0.0
C535 C 0.2816 0.9224 0.40158 0.0
N536 N 0.3078 0.8797 0.36341 0.0
C537 C 0.28533 0.89238 0.3907 0.0
C538 C 0.30131 0.93931 0.38485 0.0
Eu539 Eu 0.31827 0.82753 0.34668 0.0
N540 N 0.35326 0.85201 0.3114 0.0
C541 C 0.37439 0.83881 0.28313 0.0
C542 C 0.39265 0.88436 0.2739 0.0
C543 C 0.39431 0.85467 0.26412 0.0
H544 H 0.27035 0.87913 0.40431 0.0
H545 H 0.41075 0.84408 0.24161 0.0
H546 H 0.38259 0.94175 0.29812 0.0
H547 H 0.26364 0.93239 0.42301 0.0
H548 H 0.37553 0.81666 0.27378 0.0
H549 H 0.21745 0.73465 0.35802 0.0
H550 H 0.408 0.89669 0.25886 0.0
H551 H 0.33264 0.78275 0.19587 0.0
H552 H 0.23268 0.7822 0.3346 0.0
H553 H 0.35842 0.7352 0.16139 0.0
H554 H 0.34264 0.96583 0.34686 0.0
H555 H 0.24618 0.68287 0.33353 0.0
H556 H 0.28726 0.65206 0.28779 0.0
H557 H 0.29825 0.96268 0.39317 0.0
H558 H 0.32602 0.65208 0.23434 0.0
N559 N 0.27047 0.75755 0.29799 0.0
C560 C 0.24548 0.75983 0.32359 0.0
C561 C 0.2531 0.70368 0.32321 0.0
C562 C 0.27746 0.70192 0.2953 0.0
C563 C 0.23675 0.73288 0.337 0.0
C564 C 0.28568 0.72966 0.28302 0.0
H565 H 0.35218 0.68316 0.18643 0.0
N566 N 0.31321 0.75736 0.24034 0.0
C567 C 0.34451 0.73321 0.18739 0.0
C568 C 0.30793 0.72949 0.25338 0.0
C569 C 0.32986 0.76004 0.20683 0.0
C570 C 0.34105 0.70384 0.20173 0.0
C571 C 0.32198 0.70185 0.23463 0.0
O572 O 0.27462 0.81994 0.22011 0.0
O573 O 0.29937 0.84204 0.2926 0.0
O574 O 0.27027 0.86082 0.34211 0.0
O575 O 0.24919 0.82902 0.3163 0.0
O576 O 0.30987 0.83518 0.23749 0.0
O577 O 0.2404 0.81343 0.26453 0.0
O578 O 0.3127 0.82144 0.40647 0.0
O579 O 0.30501 0.78817 0.32994 0.0
O580 O 0.33784 0.77174 0.27357 0.0
O581 O 0.35636 0.78473 0.32327 0.0
O582 O 0.29035 0.79875 0.38331 0.0
O583 O 0.3581 0.81521 0.37656 0.0
C584 C 0.30958 0.85352 0.26201 0.0
C585 C 0.23404 0.8053 0.20481 0.0
C586 C 0.20137 0.8097 0.15774 0.0
C587 C 0.21226 0.82407 0.18209 0.0
C588 C 0.21212 0.77656 0.15641 0.0
C589 C 0.2441 0.77219 0.2036 0.0
C590 C 0.23333 0.75789 0.17946 0.0
C591 C 0.24655 0.85452 0.33306 0.0
C592 C 0.24634 0.82035 0.2293 0.0
C593 C 0.31517 0.67368 0.24809 0.0
C594 C 0.29302 0.67369 0.27846 0.0
C595 C 0.29215 0.77882 0.35995 0.0
C596 C 0.34726 0.83781 0.43429 0.0
C597 C 0.37714 0.83817 0.43514 0.0
C598 C 0.38409 0.85326 0.46249 0.0
C599 C 0.35996 0.87024 0.48726 0.0
C600 C 0.32369 0.85461 0.45965 0.0
C601 C 0.32999 0.87129 0.48533 0.0
C602 C 0.35952 0.76763 0.29499 0.0
C603 C 0.34131 0.81816 0.40865 0.0
H604 H 0.20405 0.84967 0.18306 0.0
H605 H 0.20369 0.76515 0.13795 0.0
H606 H 0.26011 0.75734 0.22132 0.0
H607 H 0.24134 0.73232 0.17873 0.0
H608 H 0.39508 0.82571 0.41507 0.0
H609 H 0.36411 0.88163 0.50927 0.0
H610 H 0.30041 0.85459 0.46008 0.0
H611 H 0.3117 0.8841 0.50479 0.0
Eu612 Eu 0.30873 0.8029 0.84832 0.0
C613 C 0.21229 0.77199 0.801 0.0
C614 C 0.21356 0.72343 0.83996 0.0
C615 C 0.1653 0.75867 0.82199 0.0
C616 C 0.22903 0.74389 0.81934 0.0
C617 C 0.18032 0.77928 0.80192 0.0
C618 C 0.18184 0.73092 0.84101 0.0
C619 C 0.17985 0.82664 0.76196 0.0
N620 N 0.22688 0.7924 0.78266 0.0
C621 C 0.21138 0.81853 0.7617 0.0
C622 C 0.16417 0.80714 0.78252 0.0
Eu623 Eu 0.28052 0.77509 0.77967 0.0
N624 N 0.25985 0.73732 0.81869 0.0
C625 C 0.27566 0.71115 0.8397 0.0
C626 C 0.23014 0.69631 0.85993 0.0
C627 C 0.26123 0.69036 0.86004 0.0
H628 H 0.22318 0.8328 0.74347 0.0
H629 H 0.27418 0.66985 0.87627 0.0
H630 H 0.16979 0.71547 0.85679 0.0
H631 H 0.16778 0.84761 0.74566 0.0
H632 H 0.29924 0.70567 0.84264 0.0
H633 H 0.3466 0.89302 0.75806 0.0
H634 H 0.21902 0.68021 0.8761 0.0
H635 H 0.34465 0.74922 0.91276 0.0
H636 H 0.30934 0.86614 0.78822 0.0
H637 H 0.39671 0.72786 0.93181 0.0
H638 H 0.14079 0.76408 0.82312 0.0
H639 H 0.40085 0.87058 0.76882 0.0
H640 H 0.44124 0.82912 0.80135 0.0
H641 H 0.13967 0.81342 0.78256 0.0
H642 H 0.45496 0.78393 0.84797 0.0
N643 N 0.34229 0.82881 0.81532 0.0
C644 C 0.33296 0.85614 0.79294 0.0
C645 C 0.38457 0.85873 0.78218 0.0
C646 C 0.39372 0.83126 0.80616 0.0
C647 C 0.35397 0.87151 0.77603 0.0
C648 C 0.37168 0.81675 0.82305 0.0
H649 H 0.43847 0.74657 0.8972 0.0
N650 N 0.35767 0.77809 0.86669 0.0
C651 C 0.3923 0.74518 0.90827 0.0
C652 C 0.37957 0.79076 0.84922 0.0
C653 C 0.363 0.75719 0.89744 0.0
C654 C 0.41579 0.75582 0.88862 0.0
C655 C 0.40947 0.77935 0.85927 0.0
O656 O 0.3043 0.80854 0.90708 0.0
O657 O 0.267 0.7934 0.83596 0.0
O658 O 0.26589 0.8292 0.77241 0.0
O659 O 0.26785 0.84327 0.83012 0.0
O660 O 0.27959 0.77657 0.88768 0.0
O661 O 0.30568 0.84838 0.86696 0.0
O662 O 0.27493 0.79041 0.7214 0.0
O663 O 0.31443 0.80009 0.78652 0.0
O664 O 0.33948 0.75195 0.83941 0.0
O665 O 0.32022 0.73292 0.79521 0.0
O666 O 0.32916 0.76408 0.75079 0.0
O667 O 0.27099 0.74458 0.74495 0.0
C668 C 0.25852 0.78041 0.86675 0.0
C669 C 0.28665 0.86005 0.92821 0.0
C670 C 0.2858 0.89634 0.97255 0.0
C671 C 0.30179 0.87568 0.94558 0.0
C672 C 0.25421 0.90149 0.98161 0.0
C673 C 0.25518 0.86549 0.93704 0.0
C674 C 0.23901 0.88628 0.96372 0.0
C675 C 0.25735 0.84986 0.79775 0.0
C676 C 0.30481 0.83785 0.90157 0.0
C677 C 0.43177 0.79272 0.84096 0.0
C678 C 0.42393 0.81853 0.81446 0.0
C679 C 0.33728 0.78493 0.76458 0.0
C680 C 0.2826 0.74999 0.68032 0.0
C681 C 0.27514 0.72311 0.67414 0.0
C682 C 0.28376 0.71016 0.63996 0.0
C683 C 0.29999 0.72453 0.61158 0.0
C684 C 0.29908 0.76395 0.65186 0.0
C685 C 0.30776 0.75115 0.61767 0.0
C686 C 0.3404 0.72956 0.81841 0.0
C687 C 0.27021 0.76424 0.71551 0.0
H688 H 0.32625 0.87108 0.93876 0.0
H689 H 0.24129 0.9174 1.00233 0.0
H690 H 0.24331 0.85358 0.92354 0.0
H691 H 0.21469 0.89046 0.97074 0.0
H692 H 0.2618 0.71266 0.69576 0.0
H693 H 0.30696 0.71494 0.58494 0.0
H694 H 0.30486 0.78488 0.65581 0.0
H695 H 0.32036 0.76203 0.59572 0.0
Eu696 Eu 0.29512 0.26425 0.79882 0.0
C697 C 0.2728 0.33282 0.92528 0.0
C698 C 0.23077 0.37941 0.90984 0.0
C699 C 0.23117 0.35477 0.97249 0.0
C700 C 0.25881 0.35637 0.89923 0.0
C701 C 0.25944 0.33251 0.96239 0.0
C702 C 0.21685 0.3781 0.94629 0.0
C703 C 0.30442 0.2904 0.9781 0.0
N704 N 0.30017 0.31138 0.91504 0.0
C705 C 0.31691 0.29189 0.94128 0.0
C706 C 0.27526 0.31035 0.9886 0.0
Eu707 Eu 0.31909 0.31504 0.8518 0.0
N708 N 0.27258 0.35709 0.86387 0.0
C709 C 0.26029 0.38177 0.83885 0.0
C710 C 0.21742 0.40331 0.88359 0.0
C711 C 0.23244 0.40467 0.8481 0.0
H712 H 0.34027 0.27774 0.93432 0.0
H713 H 0.22277 0.42368 0.82786 0.0
H714 H 0.19519 0.39539 0.95466 0.0
H715 H 0.31756 0.27427 0.99844 0.0
H716 H 0.27159 0.38511 0.81174 0.0
H717 H 0.40321 0.16871 0.79693 0.0
H718 H 0.19585 0.42124 0.89067 0.0
H719 H 0.25183 0.2941 0.72985 0.0
H720 H 0.35595 0.2054 0.82533 0.0
H721 H 0.25771 0.29645 0.66173 0.0
H722 H 0.22043 0.35452 1.00071 0.0
H723 H 0.41547 0.17152 0.72907 0.0
H724 H 0.40025 0.19654 0.66702 0.0
H725 H 0.26569 0.30936 0.01727 0.0
H726 H 0.36111 0.23241 0.63013 0.0
N727 N 0.34164 0.2293 0.77433 0.0
C728 C 0.36102 0.20713 0.79582 0.0
C729 C 0.39462 0.18777 0.74145 0.0
C730 C 0.37422 0.21003 0.71954 0.0
C731 C 0.38779 0.18609 0.77975 0.0
C732 C 0.34734 0.23055 0.73699 0.0
H733 H 0.30767 0.26938 0.62785 0.0
N734 N 0.29851 0.26808 0.73389 0.0
C735 C 0.27702 0.28387 0.67663 0.0
C736 C 0.32533 0.25092 0.71616 0.0
C737 C 0.27378 0.28253 0.71507 0.0
C738 C 0.30528 0.26866 0.65764 0.0
C739 C 0.32958 0.25106 0.67743 0.0
O740 O 0.25358 0.25406 0.79116 0.0
O741 O 0.28348 0.29126 0.84912 0.0
O742 O 0.337 0.26384 0.87598 0.0
O743 O 0.30603 0.23895 0.8557 0.0
O744 O 0.24929 0.29927 0.81543 0.0
O745 O 0.29238 0.21595 0.80888 0.0
O746 O 0.3562 0.31599 0.88102 0.0
O747 O 0.33241 0.28197 0.80786 0.0
O748 O 0.29062 0.31087 0.76299 0.0
O749 O 0.30927 0.34104 0.79554 0.0
O750 O 0.36445 0.30268 0.81497 0.0
O751 O 0.33128 0.35843 0.8491 0.0
C752 C 0.25542 0.30481 0.8465 0.0
C753 C 0.26305 0.20411 0.7691 0.0
C754 C 0.2335 0.17747 0.74362 0.0
C755 C 0.2364 0.19567 0.77052 0.0
C756 C 0.25719 0.16854 0.71474 0.0
C757 C 0.28684 0.19408 0.7407 0.0
C758 C 0.28372 0.17686 0.71336 0.0
C759 C 0.32454 0.24064 0.87891 0.0
C760 C 0.26571 0.22344 0.79715 0.0
C761 C 0.35723 0.23225 0.65989 0.0
C762 C 0.37947 0.21173 0.6809 0.0
C763 C 0.35856 0.28428 0.79511 0.0
C764 C 0.35266 0.36597 0.89968 0.0
C765 C 0.37785 0.37681 0.89836 0.0
C766 C 0.378 0.3978 0.92353 0.0
C767 C 0.3529 0.40748 0.9505 0.0
C768 C 0.32768 0.37584 0.92666 0.0
C769 C 0.32792 0.39634 0.95214 0.0
C770 C 0.29817 0.33655 0.76629 0.0
C771 C 0.35233 0.34611 0.87119 0.0
H772 H 0.21805 0.20311 0.79258 0.0
H773 H 0.25562 0.15425 0.6939 0.0
H774 H 0.30803 0.19902 0.73987 0.0
H775 H 0.30214 0.16942 0.69147 0.0
H776 H 0.3969 0.3697 0.877 0.0
H777 H 0.35266 0.42357 0.9703 0.0
H778 H 0.30784 0.36826 0.92772 0.0
H779 H 0.30856 0.40391 0.97288 0.0
Eu780 Eu 0.78315 0.28611 0.78637 0.0
C781 C 0.83711 0.38346 0.82326 0.0
C782 C 0.88292 0.37527 0.77946 0.0
C783 C 0.85563 0.42813 0.79833 0.0
C784 C 0.86129 0.36309 0.80251 0.0
C785 C 0.83475 0.41601 0.82215 0.0
C786 C 0.87959 0.40784 0.77698 0.0
C787 C 0.79367 0.42181 0.87171 0.0
N788 N 0.81691 0.37138 0.84599 0.0
C789 C 0.79709 0.38953 0.87202 0.0
C790 C 0.81212 0.43531 0.84603 0.0
Eu791 Eu 0.82511 0.31585 0.84554 0.0
N792 N 0.86409 0.33151 0.80518 0.0
C793 C 0.88899 0.31099 0.78676 0.0
C794 C 0.90754 0.35439 0.75962 0.0
C795 C 0.9107 0.32211 0.76357 0.0
H796 H 0.78366 0.37906 0.89308 0.0
H797 H 0.92999 0.30564 0.74882 0.0
H798 H 0.89577 0.41751 0.75904 0.0
H799 H 0.77714 0.43609 0.89168 0.0
H800 H 0.89305 0.28586 0.78953 0.0
H801 H 0.69599 0.27938 0.90357 0.0
H802 H 0.92444 0.36289 0.74156 0.0
H803 H 0.82143 0.23075 0.72788 0.0
H804 H 0.72778 0.3048 0.86052 0.0
H805 H 0.82958 0.17416 0.72136 0.0
H806 H 0.85382 0.45309 0.79678 0.0
H807 H 0.70124 0.22285 0.90071 0.0
H808 H 0.72687 0.17234 0.8706 0.0
H809 H 0.80966 0.46032 0.84599 0.0
H810 H 0.76357 0.14357 0.82186 0.0
N811 N 0.75122 0.26368 0.83119 0.0
C812 C 0.73028 0.28046 0.8575 0.0
C813 C 0.71515 0.23408 0.88091 0.0
C814 C 0.73614 0.21702 0.8538 0.0
C815 C 0.7121 0.26597 0.88259 0.0
C816 C 0.75382 0.23272 0.8287 0.0
H817 H 0.80189 0.14396 0.76635 0.0
N818 N 0.79115 0.23208 0.77757 0.0
C819 C 0.81428 0.18561 0.74422 0.0
C820 C 0.77455 0.21643 0.80134 0.0
C821 C 0.80991 0.21753 0.74832 0.0
C822 C 0.79854 0.16871 0.76957 0.0
C823 C 0.77806 0.18417 0.79824 0.0
O824 O 0.76906 0.27866 0.73472 0.0
O825 O 0.80581 0.32219 0.7919 0.0
O826 O 0.77694 0.34959 0.84573 0.0
O827 O 0.74987 0.3302 0.81068 0.0
O828 O 0.81529 0.30213 0.74156 0.0
O829 O 0.74476 0.32092 0.76176 0.0
O830 O 0.82278 0.31414 0.90496 0.0
O831 O 0.80492 0.2784 0.8382 0.0
O832 O 0.83302 0.25601 0.77873 0.0
O833 O 0.8561 0.26808 0.82523 0.0
O834 O 0.79974 0.29099 0.89111 0.0
O835 O 0.86655 0.30866 0.87209 0.0
C836 C 0.81978 0.32281 0.75979 0.0
C837 C 0.71563 0.29886 0.73281 0.0
C838 C 0.67222 0.30491 0.69934 0.0
C839 C 0.70139 0.30809 0.7002 0.0
C840 C 0.65809 0.29181 0.73107 0.0
C841 C 0.70079 0.28594 0.76388 0.0
C842 C 0.67237 0.28231 0.76299 0.0
C843 C 0.75194 0.35112 0.83172 0.0
C844 C 0.74514 0.30373 0.73562 0.0
C845 C 0.76094 0.1684 0.82359 0.0
C846 C 0.74003 0.18479 0.85129 0.0
C847 C 0.79531 0.27161 0.87104 0.0
C848 C 0.85668 0.33497 0.92801 0.0
C849 C 0.88643 0.33186 0.93535 0.0
C850 C 0.89119 0.35074 0.96074 0.0
C851 C 0.86566 0.37387 0.97689 0.0
C852 C 0.83182 0.35766 0.94583 0.0
C853 C 0.8364 0.37744 0.96914 0.0
C854 C 0.85627 0.2509 0.79805 0.0
C855 C 0.85119 0.31272 0.90487 0.0
H856 H 0.71263 0.31809 0.67598 0.0
H857 H 0.63611 0.28834 0.73099 0.0
H858 H 0.71091 0.27901 0.78914 0.0
H859 H 0.66131 0.27217 0.78721 0.0
H860 H 0.90558 0.31411 0.92211 0.0
H861 H 0.86782 0.38832 0.99714 0.0
H862 H 0.80856 0.35966 0.94284 0.0
H863 H 0.81697 0.39477 0.98255 0.0
Eu864 Eu 0.77175 0.78836 0.83798 0.0
C865 C 0.80371 0.83936 0.67701 0.0
C866 C 0.83939 0.79262 0.6503 0.0
C867 C 0.80724 0.83421 0.61148 0.0
C868 C 0.82609 0.81027 0.68103 0.0
C869 C 0.79449 0.85196 0.64206 0.0
C870 C 0.82953 0.80454 0.61563 0.0
C871 C 0.76118 0.89906 0.67006 0.0
N872 N 0.79106 0.8555 0.70729 0.0
C873 C 0.77091 0.88553 0.70418 0.0
C874 C 0.77275 0.88206 0.63893 0.0
Eu875 Eu 0.80832 0.8304 0.76385 0.0
N876 N 0.83498 0.79927 0.71492 0.0
C877 C 0.8585 0.77186 0.71958 0.0
C878 C 0.86233 0.7636 0.6553 0.0
C879 C 0.87215 0.75336 0.69002 0.0
H880 H 0.76185 0.89865 0.72824 0.0
H881 H 0.89014 0.73116 0.6941 0.0
H882 H 0.8393 0.79118 0.59175 0.0
H883 H 0.74472 0.92253 0.6678 0.0
H884 H 0.86624 0.76357 0.74627 0.0
H885 H 0.67615 0.89489 0.86854 0.0
H886 H 0.8729 0.74918 0.63245 0.0
H887 H 0.81367 0.73342 0.89653 0.0
H888 H 0.70824 0.85195 0.83102 0.0
H889 H 0.82411 0.72806 0.96139 0.0
H890 H 0.80018 0.8433 0.58447 0.0
H891 H 0.68631 0.89586 0.93227 0.0
H892 H 0.71707 0.86979 0.9845 0.0
H893 H 0.76504 0.89254 0.61255 0.0
H894 H 0.75751 0.82476 1.0096 0.0
N895 N 0.73647 0.82825 0.87301 0.0
C896 C 0.71267 0.85147 0.85897 0.0
C897 C 0.70032 0.87659 0.91605 0.0
C898 C 0.72397 0.85205 0.93076 0.0
C899 C 0.69446 0.87609 0.88013 0.0
C900 C 0.74181 0.82775 0.90834 0.0
H901 H 0.79725 0.77167 1.00138 0.0
N902 N 0.78172 0.77969 0.90006 0.0
C903 C 0.80762 0.74929 0.95066 0.0
C904 C 0.76514 0.80282 0.92222 0.0
C905 C 0.80159 0.75231 0.91413 0.0
C906 C 0.79244 0.77398 0.97311 0.0
C907 C 0.77051 0.80093 0.95919 0.0
O908 O 0.77026 0.74007 0.85275 0.0
O909 O 0.79306 0.78758 0.78026 0.0
O910 O 0.76467 0.8323 0.74363 0.0
O911 O 0.73837 0.81055 0.79369 0.0
O912 O 0.80652 0.74552 0.81239 0.0
O913 O 0.72838 0.7786 0.84405 0.0
O914 O 0.8181 0.8744 0.76658 0.0
O915 O 0.78777 0.83029 0.82185 0.0
O916 O 0.81699 0.78756 0.85562 0.0
O917 O 0.84331 0.79502 0.79838 0.0
O918 O 0.77558 0.8734 0.79187 0.0
O919 O 0.85526 0.83176 0.7532 0.0
C920 C 0.80803 0.75847 0.779 0.0
C921 C 0.72451 0.73515 0.88524 0.0
C922 C 0.69265 0.7018 0.90869 0.0
C923 C 0.70802 0.71556 0.87898 0.0
C924 C 0.69427 0.70779 0.94485 0.0
C925 C 0.72533 0.74163 0.92121 0.0
C926 C 0.71038 0.7278 0.95095 0.0
C927 C 0.74045 0.8243 0.75941 0.0
C928 C 0.74062 0.74846 0.85371 0.0
C929 C 0.75339 0.82554 0.98128 0.0
C930 C 0.73028 0.85112 0.96703 0.0
C931 C 0.77346 0.85935 0.82455 0.0
C932 C 0.86063 0.88113 0.72849 0.0
C933 C 0.8836 0.8917 0.73715 0.0
C934 C 0.89515 0.91223 0.71182 0.0
C935 C 0.88379 0.9222 0.67769 0.0
C936 C 0.84969 0.89051 0.69404 0.0
C937 C 0.86122 0.91107 0.66874 0.0
C938 C 0.84239 0.78878 0.8346 0.0
C939 C 0.84721 0.86216 0.75676 0.0
H940 H 0.70682 0.7115 0.85091 0.0
H941 H 0.68316 0.69697 0.96845 0.0
H942 H 0.73741 0.75723 0.92642 0.0
H943 H 0.71129 0.73257 0.97875 0.0
H944 H 0.89206 0.88453 0.76383 0.0
H945 H 0.89267 0.93819 0.65794 0.0
H946 H 0.83213 0.88242 0.68677 0.0
H947 H 0.85256 0.91848 0.64231 0.0
H948 H 0.09049 0.15115 0.45265 0.0
H949 H 0.14647 0.10106 0.36152 0.0
H950 H 0.18212 0.13161 0.35931 0.0
H951 H 0.19922 0.17002 0.38682 0.0
H952 H 0.14226 0.21956 0.47803 0.0
H953 H 0.1053 0.19166 0.47682 0.0
C954 C 0.11058 0.14677 0.43245 0.0
C955 C 0.11607 0.1235 0.40777 0.0
C956 C 0.13092 0.16424 0.4315 0.0
C957 C 0.14173 0.11881 0.38094 0.0
C958 C 0.16219 0.13618 0.37975 0.0
C959 C 0.17852 0.17492 0.40609 0.0
C960 C 0.17376 0.19631 0.43304 0.0
C961 C 0.15727 0.15863 0.40535 0.0
C962 C 0.14679 0.20259 0.45768 0.0
C963 C 0.12558 0.18676 0.45693 0.0
H964 H 0.94342 0.10981 0.30538 0.0
H965 H 0.99423 0.15363 0.35839 0.0
H966 H 0.95019 0.20185 0.36292 0.0
H967 H 0.89658 0.23081 0.35321 0.0
H968 H 0.84888 0.18836 0.29325 0.0
H969 H 0.89191 0.14024 0.29116 0.0
C970 C 0.94501 0.13003 0.31755 0.0
C971 C 0.9721 0.12809 0.33139 0.0
C972 C 0.91981 0.15773 0.31968 0.0
C973 C 0.97377 0.15458 0.34707 0.0
C974 C 0.94848 0.18206 0.35002 0.0
C975 C 0.89538 0.21102 0.34001 0.0
C976 C 0.8687 0.21322 0.32466 0.0
C977 C 0.92119 0.18376 0.33679 0.0
C978 C 0.86835 0.18739 0.30656 0.0
C979 C 0.89326 0.15979 0.30483 0.0
H980 H 0.94737 0.99091 0.41126 0.0
H981 H 0.04158 0.94243 0.37457 0.0
H982 H 0.02838 0.89504 0.36698 0.0
H983 H 0.9906 0.86655 0.37363 0.0
H984 H 0.89628 0.91438 0.41058 0.0
H985 H 0.90881 0.96309 0.41464 0.0
C986 C 0.96496 0.96988 0.40182 0.0
C987 C 0.99544 0.97003 0.39389 0.0
C988 C 0.95716 0.94272 0.39742 0.0
C989 C 1.01795 0.94291 0.38078 0.0
C990 C 1.01044 0.91579 0.37654 0.0
C991 C 0.9728 0.88765 0.38262 0.0
C992 C 0.94268 0.88675 0.39237 0.0
C993 C 0.98021 0.91532 0.38519 0.0
C994 C 0.91966 0.91448 0.40298 0.0
C995 C 0.92685 0.94224 0.40554 0.0
H996 H 0.11095 0.94212 0.36763 0.0
H997 H 0.1503 0.01397 0.31417 0.0
H998 H 0.20015 0.97329 0.30324 0.0
H999 H 0.23283 0.91771 0.31293 0.0
H1000 H 0.19257 0.84543 0.36226 0.0
H1001 H 0.14245 0.88588 0.37107 0.0
C1002 C 0.13035 0.9487 0.35287 0.0
C1003 C 0.12712 0.98086 0.34156 0.0
C1004 C 0.15868 0.92522 0.34663 0.0
C1005 C 0.15226 0.98927 0.32256 0.0
C1006 C 0.18077 0.96608 0.31676 0.0
C1007 C 0.21313 0.91087 0.32572 0.0
C1008 C 0.21637 0.8788 0.33782 0.0
C1009 C 0.18435 0.93409 0.32943 0.0
C1010 C 0.19052 0.87005 0.35325 0.0
C1011 C 0.16196 0.89313 0.35815 0.0
H1012 H 0.15924 0.97023 0.73537 0.0
H1013 H 0.1224 0.97504 0.85005 0.0
H1014 H 0.16531 0.92821 0.8663 0.0
H1015 H 0.21326 0.88547 0.84691 0.0
H1016 H 0.24715 0.88184 0.73122 0.0
H1017 H 0.20527 0.92905 0.71641 0.0
C1018 C 0.16044 0.9614 0.76411 0.0
C1019 C 0.13768 0.97647 0.79152 0.0
C1020 C 0.18477 0.9347 0.77299 0.0
C1021 C 0.13967 0.96407 0.82842 0.0
C1022 C 0.16422 0.93733 0.83766 0.0
C1023 C 0.21166 0.8954 0.81856 0.0
C1024 C 0.23348 0.88035 0.79013 0.0
C1025 C 0.18699 0.92247 0.81009 0.0
C1026 C 0.23079 0.89303 0.75351 0.0
C1027 C 0.2068 0.91997 0.74502 0.0
H1028 H 0.13179 0.11096 0.77724 0.0
H1029 H 0.12493 0.13856 0.66107 0.0
H1030 H 0.16327 0.16503 0.65882 0.0
H1031 H 0.20029 0.17858 0.68898 0.0
H1032 H 0.20705 0.15078 0.80471 0.0
H1033 H 0.16622 0.12687 0.80806 0.0
C1034 C 0.13814 0.12287 0.75132 0.0
C1035 C 0.12532 0.12216 0.71927 0.0
C1036 C 0.16012 0.13828 0.75016 0.0
C1037 C 0.13443 0.13805 0.68619 0.0
C1038 C 0.15637 0.15342 0.68483 0.0
C1039 C 0.1927 0.16736 0.71492 0.0
C1040 C 0.20666 0.16623 0.74647 0.0
C1041 C 0.16961 0.15333 0.71651 0.0
C1042 C 0.1964 0.15214 0.78012 0.0
C1043 C 0.17328 0.13826 0.78197 0.0
H1044 H 0.95893 0.1315 0.73892 0.0
H1045 H 0.9888 0.12569 0.84556 0.0
H1046 H 0.94583 0.17326 0.86096 0.0
H1047 H 0.89989 0.21698 0.84303 0.0
H1048 H 0.87324 0.22179 0.7346 0.0
H1049 H 0.9148 0.17391 0.72118 0.0
C1050 C 0.9562 0.14044 0.76568 0.0
C1051 C 0.97711 0.12497 0.79107 0.0
C1052 C 0.93193 0.16768 0.77399 0.0
C1053 C 0.97292 0.13699 0.8256 0.0
C1054 C 0.94845 0.16427 0.83429 0.0
C1055 C 0.90341 0.20765 0.81638 0.0
C1056 C 0.88317 0.22288 0.78998 0.0
C1057 C 0.92788 0.17998 0.80852 0.0
C1058 C 0.88793 0.21033 0.75572 0.0
C1059 C 0.91188 0.18298 0.74787 0.0
H1060 H 1.01414 0.93994 0.73409 0.0
H1061 H 0.95173 0.03479 0.73948 0.0
H1062 H 0.90881 0.01534 0.73497 0.0
H1063 H 0.89046 0.97169 0.72389 0.0
H1064 H 0.95282 0.8765 0.72113 0.0
H1065 H 0.99482 0.89541 0.73064 0.0
C1066 C 0.99103 0.95611 0.73449 0.0
C1067 C 0.98572 0.98858 0.73637 0.0
C1068 C 0.96684 0.9447 0.73222 0.0
C1069 C 0.95592 0.00965 0.73781 0.0
C1070 C 0.9316 0.99858 0.73511 0.0
C1071 C 0.91329 0.95528 0.72562 0.0
C1072 C 0.91922 0.92313 0.72103 0.0
C1073 C 0.93698 0.96628 0.7314 0.0
C1074 C 0.94834 0.9015 0.72414 0.0
C1075 C 0.97217 0.91227 0.72952 0.0
H1076 H 0.31729 0.17961 0.17961 0.0
H1077 H 0.38427 0.11262 0.24346 0.0
H1078 H 0.37898 0.15272 0.28493 0.0
H1079 H 0.35507 0.20635 0.30437 0.0
H1080 H 0.2865 0.27371 0.24344 0.0
H1081 H 0.29288 0.2345 0.19958 0.0
C1082 C 0.33059 0.17381 0.20269 0.0
C1083 C 0.35141 0.14301 0.20804 0.0
C1084 C 0.32737 0.19724 0.22689 0.0
C1085 C 0.36854 0.1361 0.23808 0.0
C1086 C 0.36544 0.15905 0.26204 0.0
C1087 C 0.3417 0.21253 0.2813 0.0
C1088 C 0.32079 0.2431 0.27689 0.0
C1089 C 0.34502 0.18964 0.25674 0.0
C1090 C 0.30328 0.2506 0.24712 0.0
C1091 C 0.30673 0.22802 0.22217 0.0
H1092 H 0.97909 0.27201 0.2409 0.0
H1093 H 0.95665 0.33456 0.14292 0.0
H1094 H 0.90229 0.346 0.16442 0.0
H1095 H 0.86051 0.33549 0.20927 0.0
H1096 H 0.8834 0.27178 0.30551 0.0
H1097 H 0.93728 0.26373 0.28708 0.0
C1098 C 0.96235 0.28807 0.22419 0.0
C1099 C 0.97232 0.30217 0.19017 0.0
C1100 C 0.93084 0.29458 0.23667 0.0
C1101 C 0.94999 0.32342 0.16931 0.0
C1102 C 0.91872 0.32995 0.18154 0.0
C1103 C 0.8773 0.32048 0.22667 0.0
C1104 C 0.86734 0.30505 0.25977 0.0
C1105 C 0.9088 0.31544 0.21505 0.0
C1106 C 0.88972 0.28462 0.28078 0.0
C1107 C 0.92091 0.27983 0.26991 0.0
H1108 H 0.78315 0.92837 0.1035 0.0
H1109 H 0.86104 0.94789 0.13342 0.0
H1110 H 0.85904 0.91427 0.19071 0.0
H1111 H 0.83704 0.87778 0.23044 0.0
H1112 H 0.75908 0.8573 0.20263 0.0
H1113 H 0.75944 0.89255 0.14571 0.0
C1114 C 0.79944 0.92545 0.12279 0.0
C1115 C 0.82238 0.94039 0.11412 0.0
C1116 C 0.79818 0.90597 0.1558 0.0
C1117 C 0.84357 0.93619 0.13914 0.0
C1118 C 0.84231 0.91716 0.17199 0.0
C1119 C 0.81927 0.88199 0.21286 0.0
C1120 C 0.79737 0.86588 0.22143 0.0
C1121 C 0.81985 0.90188 0.18045 0.0
C1122 C 0.77587 0.86988 0.19687 0.0
C1123 C 0.77614 0.88995 0.16436 0.0
H1124 H 0.1123 0.85381 0.03844 0.0
H1125 H 0.04686 0.87658 0.13465 0.0
H1126 H 0.08832 0.86778 0.17246 0.0
H1127 H 0.14324 0.8438 0.17945 0.0
H1128 H 0.20784 0.81625 0.08345 0.0
H1129 H 0.16691 0.83686 0.0439 0.0
C1130 C 0.10722 0.8577 0.06751 0.0
C1131 C 0.0768 0.86558 0.08389 0.0
C1132 C 0.13109 0.85122 0.08905 0.0
C1133 C 0.07017 0.87074 0.12148 0.0
C1134 C 0.09388 0.86531 0.14311 0.0
C1135 C 0.14826 0.84332 0.14974 0.0
C1136 C 0.17818 0.8286 0.13405 0.0
C1137 C 0.12443 0.85414 0.12745 0.0
C1138 C 0.18478 0.82754 0.09575 0.0
C1139 C 0.16144 0.83917 0.07329 0.0
H1140 H 0.34069 0.95757 0.07839 0.0
H1141 H 0.38012 0.99326 0.97556 0.0
H1142 H 0.36002 0.96151 0.9421 0.0
H1143 H 0.32593 0.92848 0.94247 0.0
H1144 H 0.28308 0.89753 0.04636 0.0
H1145 H 0.30891 0.92346 0.07938 0.0
C1146 C 0.34487 0.95838 0.04872 0.0
C1147 C 0.36135 0.97807 0.02945 0.0
C1148 C 0.33202 0.94147 0.03 0.0
C1149 C 0.3676 0.97813 0.99097 0.0
C1150 C 0.35574 0.96033 0.97191 0.0
C1151 C 0.32249 0.92729 0.97235 0.0
C1152 C 0.30232 0.91152 0.99205 0.0
C1153 C 0.33708 0.94272 0.99113 0.0
C1154 C 0.29801 0.91006 0.03069 0.0
C1155 C 0.31294 0.92465 0.04953 0.0
H1156 H 0.13496 0.33685 0.95673 0.0
H1157 H 0.19106 0.26664 0.02934 0.0
H1158 H 0.23428 0.2571 0.97966 0.0
H1159 H 0.25651 0.27196 0.91581 0.0
H1160 H 0.19927 0.34611 0.84744 0.0
H1161 H 0.15632 0.35193 0.89575 0.0
C1162 C 0.15659 0.3192 0.96166 0.0
C1163 C 0.15976 0.30244 0.99666 0.0
C1164 C 0.18131 0.31528 0.93394 0.0
C1165 C 0.18785 0.27946 1.0025 0.0
C1166 C 0.21263 0.27445 0.97425 0.0
C1167 C 0.23466 0.28954 0.91177 0.0
C1168 C 0.2311 0.30908 0.87822 0.0
C1169 C 0.20979 0.29278 0.93999 0.0
C1170 C 0.20256 0.33117 0.87305 0.0
C1171 C 0.17799 0.33436 0.90057 0.0
H1172 H 0.78682 0.14373 0.96161 0.0
H1173 H 0.84551 0.10437 0.86555 0.0
H1174 H 0.84322 0.15765 0.83802 0.0
H1175 H 0.82545 0.21523 0.84163 0.0
H1176 H 0.76597 0.25535 0.93642 0.0
H1177 H 0.76744 0.20191 0.96406 0.0
C1178 C 0.79886 0.14674 0.9345 0.0
C1179 C 0.81658 0.11984 0.91591 0.0
C1180 C 0.79729 0.1776 0.91863 0.0
C1181 C 0.83224 0.12443 0.88091 0.0
C1182 C 0.83082 0.15496 0.86501 0.0
C1183 C 0.81262 0.21238 0.86815 0.0
C1184 C 0.79511 0.23928 0.88661 0.0
C1185 C 0.81361 0.18167 0.88372 0.0
C1186 C 0.77921 0.235 0.92144 0.0
C1187 C 0.78008 0.20447 0.93722 0.0
H1188 H 0.965 0.79895 0.87791 0.0
H1189 H 0.91926 0.79171 0.98779 0.0
H1190 H 0.8758 0.78486 0.96288 0.0
H1191 H 0.84959 0.7844 0.90871 0.0
H1192 H 0.89784 0.78994 0.79936 0.0
H1193 H 0.94114 0.79419 0.82513 0.0
C1194 C 0.9456 0.79564 0.89641 0.0
C1195 C 0.9453 0.79603 0.93459 0.0
C1196 C 0.92097 0.79156 0.88189 0.0
C1197 C 0.92015 0.7913 0.95831 0.0
C1198 C 0.89523 0.78759 0.944 0.0
C1199 C 0.8698 0.78583 0.89054 0.0
C1200 C 0.87012 0.78675 0.8519 0.0
C1201 C 0.8952 0.78806 0.90568 0.0
C1202 C 0.89657 0.78913 0.82905 0.0
C1203 C 0.92152 0.79164 0.84377 0.0
H1204 H 0.12945 0.29728 0.23556 0.0
H1205 H 0.13847 0.36921 0.14864 0.0
H1206 H 0.18067 0.37608 0.1761 0.0
H1207 H 0.21631 0.36006 0.22452 0.0
H1208 H 0.20407 0.2901 0.31278 0.0
H1209 H 0.16211 0.28415 0.28536 0.0
C1210 C 0.14026 0.31492 0.22296 0.0
C1211 C 0.13043 0.33303 0.19032 0.0
C1212 C 0.16419 0.31897 0.23918 0.0
C1213 C 0.14502 0.35548 0.17419 0.0
C1214 C 0.1694 0.35916 0.18974 0.0
C1215 C 0.20432 0.34374 0.23788 0.0
C1216 C 0.21347 0.32577 0.27104 0.0
C1217 C 0.17939 0.34085 0.22219 0.0
C1218 C 0.19746 0.30469 0.28775 0.0
C1219 C 0.17343 0.3011 0.27193 0.0
H1220 H 0.11429 0.82407 0.91511 0.0
H1221 H 0.13758 0.74255 0.99414 0.0
H1222 H 0.19175 0.73109 0.9686 0.0
H1223 H 0.23342 0.74524 0.92403 0.0
H1224 H 0.208 0.82765 0.84661 0.0
H1225 H 0.15445 0.83757 0.87122 0.0
C1226 C 0.13098 0.80357 0.92696 0.0
C1227 C 0.12112 0.78422 0.9569 0.0
C1228 C 0.16219 0.79729 0.91223 0.0
C1229 C 0.14382 0.75787 0.97118 0.0
C1230 C 0.17504 0.75142 0.95655 0.0
C1231 C 0.21614 0.76533 0.91249 0.0
C1232 C 0.22527 0.78531 0.88266 0.0
C1233 C 0.18468 0.77108 0.92714 0.0
C1234 C 0.20219 0.81143 0.86879 0.0
C1235 C 0.1713 0.81722 0.88307 0.0
H1236 H 0.36361 0.15281 0.02265 0.0
H1237 H 0.27781 0.13543 0.02149 0.0
H1238 H 0.26967 0.17038 0.96416 0.0
H1239 H 0.2873 0.20628 0.91431 0.0
H1240 H 0.37366 0.222 0.9172 0.0
H1241 H 0.38123 0.18707 0.97378 0.0
C1242 C 0.34298 0.15657 1.0101 0.0
C1243 C 0.32128 0.14147 0.02672 0.0
C1244 C 0.33868 0.17632 0.97718 0.0
C1245 C 0.2948 0.14685 1.00966 0.0
C1246 C 0.29025 0.16673 0.97672 0.0
C1247 C 0.30796 0.20167 0.92709 0.0
C1248 C 0.32995 0.21678 0.91136 0.0
C1249 C 0.31213 0.18154 0.96011 0.0
C1250 C 0.35635 0.21085 0.92863 0.0
C1251 C 0.36068 0.19089 0.96108 0.0
H1252 H 1.0151 0.29839 0.03049 0.0
H1253 H 0.99073 0.39593 0.05597 0.0
H1254 H 0.94682 0.40964 0.02074 0.0
H1255 H 0.91477 0.39317 0.98485 0.0
H1256 H 0.93699 0.2938 0.96693 0.0
H1257 H 0.98342 0.28204 0.99546 0.0
C1258 C 1.0004 0.32281 0.02832 0.0
C1259 C 1.00627 0.34619 0.04593 0.0
C1260 C 0.97507 0.33024 1.00887 0.0
C1261 C 0.98676 0.37754 0.04274 0.0
C1262 C 0.96171 0.38532 0.02257 0.0
C1263 C 0.92945 0.36881 0.98743 0.0
C1264 C 0.92176 0.34447 0.97371 0.0
C1265 C 0.95547 0.36173 1.00589 0.0
C1266 C 0.94208 0.31333 0.97637 0.0
C1267 C 0.96859 0.30639 0.99329 0.0
H1268 H 0.80274 0.91545 0.95814 0.0
H1269 H 0.73883 1.00104 0.91472 0.0
H1270 H 0.7286 0.97106 0.86924 0.0
H1271 H 0.74157 0.92087 0.83844 0.0
H1272 H 0.807 0.83689 0.88269 0.0
H1273 H 0.81251 0.8655 0.93117 0.0
C1274 C 0.78622 0.92754 0.93906 0.0
C1275 C 0.77165 0.96046 0.93971 0.0
C1276 C 0.78074 0.91028 0.91299 0.0
C1277 C 0.75017 0.97568 0.91498 0.0
C1278 C 0.74453 0.95855 0.88879 0.0
C1279 C 0.75662 0.90879 0.8591 0.0
C1280 C 0.7734 0.87634 0.85698 0.0
C1281 C 0.76019 0.9259 0.88702 0.0
C1282 C 0.79322 0.86132 0.88367 0.0
C1283 C 0.79662 0.87789 0.9115 0.0
H1284 H 0.92007 0.80542 0.09737 0.0
H1285 H 1.00529 0.76454 0.14363 0.0
H1286 H 0.97701 0.75942 0.205 0.0
H1287 H 0.92764 0.76995 0.24659 0.0
H1288 H 0.8432 0.81182 0.19935 0.0
H1289 H 0.87125 0.81291 0.13796 0.0
C1290 C 0.93267 0.79491 0.12069 0.0
C1291 C 0.96515 0.78516 0.11524 0.0
C1292 C 0.91615 0.79211 0.15606 0.0
C1293 C 0.98058 0.77184 0.14633 0.0
C1294 C 0.96427 0.7691 0.18165 0.0
C1295 C 0.91531 0.7784 0.22271 0.0
C1296 C 0.88284 0.78951 0.2281 0.0
C1297 C 0.932 0.77943 0.18699 0.0
C1298 C 0.86771 0.80196 0.19668 0.0
C1299 C 0.88397 0.80286 0.16126 0.0
H1300 H 0.29335 1.00236 0.24253 0.0
H1301 H 0.32528 0.98079 0.1305 0.0
H1302 H 0.32948 0.92485 0.14715 0.0
H1303 H 0.32625 0.88113 0.19486 0.0
H1304 H 0.28487 0.90461 0.30408 0.0
H1305 H 0.28284 0.95981 0.28829 0.0
C1306 C 0.30061 0.98551 0.22166 0.0
C1307 C 0.30867 0.99598 0.18488 0.0
C1308 C 0.30219 0.95327 0.23155 0.0
C1309 C 0.31826 0.97363 0.15847 0.0
C1310 C 0.32106 0.94146 0.16825 0.0
C1311 C 0.31696 0.89826 0.21533 0.0
C1312 C 0.30783 0.88783 0.25182 0.0
C1313 C 0.31351 0.93083 0.2049 0.0
C1314 C 0.29429 0.91102 0.27695 0.0
C1315 C 0.29249 0.943 0.26753 0.0
H1316 H 0.81191 0.1017 0.07175 0.0
H1317 H 0.71941 0.09879 0.07946 0.0
H1318 H 0.70181 0.14444 0.11706 0.0
H1319 H 0.7131 0.18509 0.14719 0.0
H1320 H 0.80569 0.18936 0.13385 0.0
H1321 H 0.82293 0.14228 0.10014 0.0
C1322 C 0.78784 0.11082 0.08172 0.0
C1323 C 0.76698 0.0967 0.07293 0.0
C1324 C 0.77799 0.13706 0.10272 0.0
C1325 C 0.73591 0.10919 0.08584 0.0
C1326 C 0.72591 0.13523 0.10737 0.0
C1327 C 0.73703 0.17601 0.13668 0.0
C1328 C 0.75796 0.19103 0.14351 0.0
C1329 C 0.74678 0.14941 0.11586 0.0
C1330 C 0.78898 0.17819 0.13011 0.0
C1331 C 0.7989 0.15138 0.11028 0.0
H1332 H 0.63308 0.60267 0.8711 0.0
H1333 H 0.56708 0.64468 0.9605 0.0
H1334 H 0.59447 0.68221 0.96425 0.0
H1335 H 0.63775 0.70157 0.94407 0.0
H1336 H 0.70634 0.65782 0.85766 0.0
H1337 H 0.67665 0.62332 0.84956 0.0
C1338 C 0.62465 0.62029 0.89108 0.0
C1339 C 0.59837 0.62083 0.91581 0.0
C1340 C 0.64079 0.6415 0.89342 0.0
C1341 C 0.58761 0.64355 0.94174 0.0
C1342 C 0.60312 0.66508 0.94373 0.0
C1343 C 0.64647 0.6842 0.9238 0.0
C1344 C 0.67441 0.68181 0.9021 0.0
C1345 C 0.62994 0.66389 0.92017 0.0
C1346 C 0.68482 0.66008 0.87483 0.0
C1347 C 0.66799 0.64021 0.87034 0.0
H1348 H 0.43883 0.59439 0.80279 0.0
H1349 H 0.49354 0.64128 0.84436 0.0
H1350 H 0.45034 0.68987 0.8479 0.0
H1351 H 0.39711 0.71937 0.83846 0.0
H1352 H 0.34236 0.67246 0.79732 0.0
H1353 H 0.38547 0.62383 0.7941 0.0
C1354 C 0.44146 0.61529 0.81224 0.0
C1355 C 0.46964 0.61408 0.82282 0.0
C1356 C 0.41639 0.64322 0.81455 0.0
C1357 C 0.47232 0.64145 0.83556 0.0
C1358 C 0.44754 0.66929 0.83782 0.0
C1359 C 0.39435 0.69834 0.82968 0.0
C1360 C 0.36625 0.69954 0.81889 0.0
C1361 C 0.41941 0.67043 0.82752 0.0
C1362 C 0.3636 0.67228 0.80607 0.0
C1363 C 0.3883 0.6444 0.80411 0.0
H1364 H 0.50119 0.42962 0.91327 0.0
H1365 H 0.43877 0.52485 0.91549 0.0
H1366 H 0.39548 0.5044 0.9186 0.0
H1367 H 0.37566 0.45919 0.92183 0.0
H1368 H 0.43838 0.36406 0.91846 0.0
H1369 H 0.4816 0.38465 0.91465 0.0
C1370 C 0.47806 0.44578 0.91495 0.0
C1371 C 0.47292 0.47854 0.91484 0.0
C1372 C 0.45354 0.43387 0.91645 0.0
C1373 C 0.44304 0.49949 0.91573 0.0
C1374 C 0.4184 0.48782 0.91757 0.0
C1375 C 0.39882 0.44305 0.92056 0.0
C1376 C 0.40401 0.41024 0.92091 0.0
C1377 C 0.4234 0.45504 0.91819 0.0
C1378 C 0.43402 0.38945 0.91831 0.0
C1379 C 0.45864 0.40117 0.91624 0.0
H1380 H 0.65187 0.47141 0.89007 0.0
H1381 H 0.61687 0.47425 0.7873 0.0
H1382 H 0.65889 0.42577 0.77189 0.0
H1383 H 0.70633 0.38289 0.7884 0.0
H1384 H 0.73544 0.37992 0.89491 0.0
H1385 H 0.69497 0.42865 0.90791 0.0
C1386 C 0.65321 0.46178 0.86406 0.0
C1387 C 0.6314 0.47684 0.83963 0.0
C1388 C 0.67658 0.43393 0.85605 0.0
C1389 C 0.63361 0.46344 0.80638 0.0
C1390 C 0.65752 0.43565 0.79771 0.0
C1391 C 0.70352 0.39285 0.81453 0.0
C1392 C 0.72471 0.37853 0.84013 0.0
C1393 C 0.67921 0.42065 0.82246 0.0
C1394 C 0.7206 0.3914 0.874 0.0
C1395 C 0.69713 0.41903 0.88169 0.0
H1396 H 0.65966 0.48152 0.23874 0.0
H1397 H 0.61689 0.48091 0.3512 0.0
H1398 H 0.65936 0.43383 0.36802 0.0
H1399 H 0.70848 0.392 0.34959 0.0
H1400 H 0.74857 0.39409 0.23601 0.0
H1401 H 0.70715 0.44165 0.22085 0.0
C1402 C 0.65942 0.47142 0.26714 0.0
C1403 C 0.63502 0.48505 0.29372 0.0
C1404 C 0.68356 0.44454 0.27634 0.0
C1405 C 0.63535 0.4711 0.33018 0.0
C1406 C 0.65966 0.44417 0.33974 0.0
C1407 C 0.7083 0.40325 0.32169 0.0
C1408 C 0.73174 0.3896 0.29393 0.0
C1409 C 0.68394 0.43063 0.31296 0.0
C1410 C 0.73092 0.40407 0.25781 0.0
C1411 C 0.70719 0.43125 0.24911 0.0
H1412 H 0.63816 0.61302 0.27837 0.0
H1413 H 0.61771 0.65619 0.16941 0.0
H1414 H 0.6565 0.68208 0.16609 0.0
H1415 H 0.69806 0.69059 0.19236 0.0
H1416 H 0.71799 0.64918 0.30152 0.0
H1417 H 0.67664 0.62544 0.30701 0.0
C1418 C 0.64167 0.62837 0.25403 0.0
C1419 C 0.62505 0.63194 0.22394 0.0
C1420 C 0.66383 0.64379 0.2524 0.0
C1421 C 0.6304 0.65209 0.19274 0.0
C1422 C 0.65253 0.66725 0.19083 0.0
C1423 C 0.69311 0.67658 0.21745 0.0
C1424 C 0.71105 0.67133 0.24635 0.0
C1425 C 0.66965 0.66289 0.22022 0.0
C1426 C 0.70429 0.65358 0.27899 0.0
C1427 C 0.68087 0.63983 0.28198 0.0
H1428 H 0.46699 0.65309 0.23403 0.0
H1429 H 0.47921 0.62934 0.34909 0.0
H1430 H 0.43705 0.67762 0.36464 0.0
H1431 H 0.39551 0.72634 0.34467 0.0
H1432 H 0.38691 0.74852 0.22858 0.0
H1433 H 0.42864 0.70085 0.21438 0.0
C1434 C 0.46062 0.65818 0.26268 0.0
C1435 C 0.4762 0.63725 0.29037 0.0
C1436 C 0.43683 0.68583 0.27117 0.0
C1437 C 0.46751 0.6448 0.32719 0.0
C1438 C 0.44344 0.67248 0.33603 0.0
C1439 C 0.40326 0.72094 0.31628 0.0
C1440 C 0.38786 0.74088 0.28762 0.0
C1441 C 0.42784 0.69323 0.30817 0.0
C1442 C 0.39785 0.73333 0.25109 0.0
C1443 C 0.42189 0.70612 0.24293 0.0
H1444 H 0.47142 0.4955 0.27643 0.0
H1445 H 0.50281 0.49475 0.15979 0.0
H1446 H 0.46737 0.46765 0.15123 0.0
H1447 H 0.42829 0.44374 0.17585 0.0
H1448 H 0.39057 0.44989 0.29021 0.0
H1449 H 0.42833 0.47434 0.30082 0.0
C1450 C 0.47025 0.48974 0.24912 0.0
C1451 C 0.49042 0.4966 0.21899 0.0
C1452 C 0.44895 0.47478 0.24397 0.0
C1453 C 0.48846 0.48892 0.18377 0.0
C1454 C 0.46798 0.47357 0.17869 0.0
C1455 C 0.42765 0.45107 0.20299 0.0
C1456 C 0.40623 0.44539 0.23187 0.0
C1457 C 0.44828 0.46631 0.20851 0.0
C1458 C 0.40689 0.45378 0.2673 0.0
C1459 C 0.4283 0.46807 0.27336 0.0
H1460 H 0.78624 0.69811 0.64267 0.0
H1461 H 0.82733 0.61164 0.70819 0.0
H1462 H 0.83454 0.6425 0.75422 0.0
H1463 H 0.8289 0.69416 0.7765 0.0
H1464 H 0.78436 0.78023 0.71329 0.0
H1465 H 0.77946 0.74976 0.66574 0.0
C1466 C 0.7967 0.68598 0.66706 0.0
C1467 C 0.80612 0.6525 0.67181 0.0
C1468 C 0.80062 0.70391 0.69374 0.0
C1469 C 0.8196 0.63732 0.70374 0.0
C1470 C 0.82392 0.65498 0.7301 0.0
C1471 C 0.81845 0.70627 0.7521 0.0
C1472 C 0.80782 0.73976 0.74818 0.0
C1473 C 0.81458 0.6883 0.72539 0.0
C1474 C 0.79361 0.75479 0.71675 0.0
C1475 C 0.79048 0.73721 0.6896 0.0
H1476 H 0.44633 0.82147 0.65887 0.0
H1477 H 0.49824 0.73496 0.71571 0.0
H1478 H 0.45238 0.7316 0.75547 0.0
H1479 H 0.39656 0.75017 0.77176 0.0
H1480 H 0.34282 0.8352 0.71514 0.0
H1481 H 0.38937 0.8423 0.67859 0.0
C1482 C 0.44768 0.80217 0.6803 0.0
C1483 C 0.47628 0.77825 0.68371 0.0
C1484 C 0.42051 0.80005 0.70344 0.0
C1485 C 0.47695 0.75344 0.71175 0.0
C1486 C 0.45054 0.7515 0.73475 0.0
C1487 C 0.39506 0.77076 0.75217 0.0
C1488 C 0.36601 0.79288 0.74771 0.0
C1489 C 0.42206 0.77423 0.73055 0.0
C1490 C 0.36475 0.8185 0.72059 0.0
C1491 C 0.39153 0.82234 0.69924 0.0
H1492 H 0.28469 0.42759 0.61769 0.0
H1493 H 0.34299 0.46445 0.66787 0.0
H1494 H 0.34219 0.42663 0.72119 0.0
H1495 H 0.32608 0.38254 0.75381 0.0
H1496 H 0.266 0.34635 0.70646 0.0
H1497 H 0.26636 0.38425 0.65234 0.0
C1498 C 0.29708 0.42754 0.64032 0.0
C1499 C 0.31432 0.44885 0.63799 0.0
C1500 C 0.29633 0.40565 0.67164 0.0
C1501 C 0.33017 0.44808 0.66794 0.0
C1502 C 0.32955 0.42651 0.69885 0.0
C1503 C 0.3128 0.38299 0.73187 0.0
C1504 C 0.2964 0.36106 0.73424 0.0
C1505 C 0.31289 0.40509 0.70096 0.0
C1506 C 0.27947 0.36223 0.70523 0.0
C1507 C 0.27949 0.38417 0.67426 0.0
H1508 H 0.61798 0.2986 0.55646 0.0
H1509 H 0.53469 0.34887 0.62006 0.0
H1510 H 0.56427 0.35605 0.66626 0.0
H1511 H 0.61313 0.3399 0.69298 0.0
H1512 H 0.696 0.28751 0.63004 0.0
H1513 H 0.66748 0.28988 0.57862 0.0
C1514 C 0.60641 0.31215 0.57981 0.0
C1515 C 0.57426 0.32342 0.58484 0.0
C1516 C 0.62354 0.31535 0.60652 0.0
C1517 C 0.5594 0.34057 0.6153 0.0
C1518 C 0.57633 0.34422 0.64193 0.0
C1519 C 0.625 0.32962 0.66764 0.0
C1520 C 0.65658 0.31318 0.66545 0.0
C1521 C 0.6083 0.33053 0.63853 0.0
C1522 C 0.67179 0.30033 0.63237 0.0
C1523 C 0.65542 0.30145 0.60311 0.0
H1524 H 0.7797 0.48569 0.60725 0.0
H1525 H 0.76729 0.55647 0.51513 0.0
H1526 H 0.76049 0.51874 0.47698 0.0
H1527 H 0.77281 0.46212 0.46613 0.0
H1528 H 0.78981 0.39083 0.55758 0.0
H1529 H 0.77959 0.4319 0.59994 0.0
C1530 C 0.77359 0.49334 0.5795 0.0
C1531 C 0.77363 0.52381 0.56405 0.0
C1532 C 0.77151 0.47093 0.55731 0.0
C1533 C 0.7667 0.53332 0.52777 0.0
C1534 C 0.76346 0.51149 0.50575 0.0
C1535 C 0.77268 0.45588 0.49559 0.0
C1536 C 0.78202 0.42368 0.50891 0.0
C1537 C 0.76793 0.47967 0.51956 0.0
C1538 C 0.78244 0.41557 0.54696 0.0
C1539 C 0.77692 0.43904 0.57108 0.0
H1540 H 0.70097 0.75558 0.48849 0.0
H1541 H 0.63208 0.84553 0.46905 0.0
H1542 H 0.66506 0.8593 0.41546 0.0
H1543 H 0.71302 0.84454 0.37118 0.0
H1544 H 0.78015 0.7539 0.39097 0.0
H1545 H 0.74899 0.74197 0.44656 0.0
C1546 C 0.69294 0.77821 0.47262 0.0
C1547 C 0.66356 0.79923 0.48324 0.0
C1548 C 0.71215 0.78609 0.44159 0.0
C1549 C 0.65434 0.82871 0.46215 0.0
C1550 C 0.67327 0.8366 0.43116 0.0
C1551 C 0.72105 0.82246 0.38809 0.0
C1552 C 0.75015 0.80087 0.37749 0.0
C1553 C 0.70218 0.81537 0.42023 0.0
C1554 C 0.75932 0.77195 0.39936 0.0
C1555 C 0.74094 0.76477 0.43098 0.0
H1556 H 0.33206 0.62874 0.39664 0.0
H1557 H 0.26318 0.65527 0.48911 0.0
H1558 H 0.25233 0.71125 0.46651 0.0
H1559 H 0.26324 0.75346 0.42078 0.0
H1560 H 0.33213 0.72614 0.32855 0.0
H1561 H 0.34205 0.67049 0.35046 0.0
C1562 C 0.31478 0.64671 0.41201 0.0
C1563 C 0.29861 0.63745 0.44483 0.0
C1564 C 0.30855 0.67909 0.3987 0.0
C1565 C 0.27591 0.66138 0.46379 0.0
C1566 C 0.26975 0.69357 0.45088 0.0
C1567 C 0.28031 0.73529 0.40542 0.0
C1568 C 0.29666 0.74439 0.37266 0.0
C1569 C 0.28599 0.70282 0.4184 0.0
C1570 C 0.31895 0.72032 0.35353 0.0
C1571 C 0.32472 0.68821 0.36616 0.0
H1572 H 0.47668 0.28298 0.40096 0.0
H1573 H 0.42395 0.32976 0.49586 0.0
H1574 H 0.3765 0.33465 0.47088 0.0
H1575 H 0.34989 0.32376 0.42251 0.0
H1576 H 0.40337 0.28156 0.3252 0.0
H1577 H 0.45039 0.27624 0.35079 0.0
C1578 C 0.45481 0.29464 0.416 0.0
C1579 C 0.45401 0.30612 0.45026 0.0
C1580 C 0.42764 0.29777 0.40115 0.0
C1581 C 0.42537 0.32111 0.46927 0.0
C1582 C 0.39818 0.32363 0.45509 0.0
C1583 C 0.37183 0.3136 0.40681 0.0
C1584 C 0.37295 0.30297 0.37186 0.0
C1585 C 0.39899 0.31176 0.42117 0.0
C1586 C 0.40169 0.28994 0.35201 0.0
C1587 C 0.42865 0.28692 0.36666 0.0
H1588 H 0.66843 0.8201 0.62913 0.0
H1589 H 0.59673 0.81925 0.71751 0.0
H1590 H 0.62914 0.82376 0.7622 0.0
H1591 H 0.68002 0.82422 0.77622 0.0
H1592 H 0.74951 0.82713 0.68488 0.0
H1593 H 0.71617 0.82576 0.64185 0.0
C1594 C 0.65967 0.82172 0.6581 0.0
C1595 C 0.63023 0.81981 0.6701 0.0
C1596 C 0.6783 0.82439 0.68332 0.0
C1597 C 0.61919 0.82138 0.70767 0.0
C1598 C 0.63785 0.8236 0.73321 0.0
C1599 C 0.68765 0.82495 0.74691 0.0
C1600 C 0.71751 0.82602 0.73425 0.0
C1601 C 0.66779 0.82455 0.72146 0.0
C1602 C 0.7268 0.82688 0.69595 0.0
C1603 C 0.70768 0.82588 0.67095 0.0
H1604 H 0.6611 0.23403 0.45965 0.0
H1605 H 0.60479 0.32493 0.41694 0.0
H1606 H 0.65024 0.33643 0.38333 0.0
H1607 H 0.70686 0.32014 0.36577 0.0
H1608 H 0.76196 0.22961 0.411 0.0
H1609 H 0.71632 0.21837 0.44335 0.0
C1610 C 0.65859 0.25621 0.44268 0.0
C1611 C 0.62933 0.2783 0.44061 0.0
C1612 C 0.68481 0.2627 0.42359 0.0
C1613 C 0.62691 0.3074 0.41922 0.0
C1614 C 0.65296 0.31396 0.39983 0.0
C1615 C 0.70869 0.2978 0.38231 0.0
C1616 C 0.73774 0.27513 0.38497 0.0
C1617 C 0.68213 0.2917 0.40164 0.0
C1618 C 0.73986 0.24698 0.40779 0.0
C1619 C 0.71377 0.2406 0.42643 0.0
H1620 H 0.83521 0.66248 0.51371 0.0
H1621 H 0.87057 0.58511 0.4441 0.0
H1622 H 0.86893 0.62292 0.38921 0.0
H1623 H 0.85787 0.67869 0.36143 0.0
H1624 H 0.82234 0.75429 0.43361 0.0
H1625 H 0.82386 0.71689 0.48674 0.0
C1626 C 0.84234 0.65395 0.48649 0.0
C1627 C 0.85306 0.62127 0.48278 0.0
C1628 C 0.84182 0.6756 0.4555 0.0
C1629 C 0.86259 0.61033 0.44747 0.0
C1630 C 0.86158 0.63189 0.41617 0.0
C1631 C 0.85093 0.68681 0.38887 0.0
C1632 C 0.84135 0.71952 0.39344 0.0
C1633 C 0.8515 0.66469 0.41988 0.0
C1634 C 0.8317 0.72962 0.42911 0.0
C1635 C 0.83186 0.70806 0.45974 0.0
H1636 H 0.52055 0.80212 0.494 0.0
H1637 H 0.49329 0.88803 0.5499 0.0
H1638 H 0.44447 0.90552 0.52389 0.0
H1639 H 0.40792 0.89308 0.49115 0.0
H1640 H 0.43389 0.80138 0.4468 0.0
H1641 H 0.48516 0.79013 0.46141 0.0
C1642 C 0.50416 0.82491 0.5003 0.0
C1643 C 0.51032 0.84363 0.52418 0.0
C1644 C 0.47584 0.83377 0.48719 0.0
C1645 C 0.489 0.87322 0.53157 0.0
C1646 C 0.46105 0.88305 0.51694 0.0
C1647 C 0.4246 0.8705 0.48485 0.0
C1648 C 0.41647 0.8483 0.46775 0.0
C1649 C 0.45386 0.86292 0.49577 0.0
C1650 C 0.43906 0.81959 0.45894 0.0
C1651 C 0.46855 0.81276 0.46782 0.0
H1652 H 0.25034 0.48429 0.43422 0.0
H1653 H 0.32608 0.41568 0.48311 0.0
H1654 H 0.32339 0.37513 0.44667 0.0
H1655 H 0.30278 0.36014 0.39701 0.0
H1656 H 0.22838 0.42807 0.34572 0.0
H1657 H 0.22733 0.46775 0.38664 0.0
C1658 C 0.26602 0.46037 0.4371 0.0
C1659 C 0.28856 0.45324 0.46118 0.0
C1660 C 0.26477 0.437 0.41534 0.0
C1661 C 0.30875 0.42208 0.46448 0.0
C1662 C 0.30725 0.39874 0.44362 0.0
C1663 C 0.28585 0.38327 0.39526 0.0
C1664 C 0.26539 0.39085 0.3686 0.0
C1665 C 0.28579 0.40606 0.41841 0.0
C1666 C 0.24417 0.42147 0.36627 0.0
C1667 C 0.24366 0.44422 0.38957 0.0
H1668 H 0.47315 0.23684 0.68006 0.0
H1669 H 0.41667 0.30823 0.60835 0.0
H1670 H 0.37433 0.31837 0.65801 0.0
H1671 H 0.35384 0.30788 0.7231 0.0
H1672 H 0.41202 0.23855 0.79454 0.0
H1673 H 0.45284 0.22598 0.74353 0.0
C1674 C 0.4515 0.25422 0.67488 0.0
C1675 C 0.4483 0.27143 0.64016 0.0
C1676 C 0.42726 0.25996 0.70355 0.0
C1677 C 0.42008 0.29461 0.63471 0.0
C1678 C 0.39569 0.30032 0.6631 0.0
C1679 C 0.37509 0.28932 0.72705 0.0
C1680 C 0.37934 0.27269 0.76202 0.0
C1681 C 0.399 0.28312 0.69773 0.0
C1682 C 0.40775 0.25035 0.7674 0.0
C1683 C 0.43123 0.24351 0.73837 0.0
H1684 H 0.87049 0.42497 0.66166 0.0
H1685 H 0.79632 0.48814 0.72651 0.0
H1686 H 0.78208 0.44278 0.75972 0.0
H1687 H 0.79144 0.38489 0.77051 0.0
H1688 H 0.86475 0.32199 0.7041 0.0
H1689 H 0.87851 0.36746 0.67065 0.0
C1690 C 0.8514 0.42862 0.68327 0.0
C1691 C 0.83467 0.45955 0.69211 0.0
C1692 C 0.84315 0.40257 0.70163 0.0
C1693 C 0.80945 0.46435 0.71944 0.0
C1694 C 0.80132 0.43851 0.7383 0.0
C1695 C 0.81058 0.38128 0.74892 0.0
C1696 C 0.82794 0.35033 0.7405 0.0
C1697 C 0.81812 0.4075 0.72972 0.0
C1698 C 0.85174 0.34574 0.71148 0.0
C1699 C 0.85953 0.37165 0.6924 0.0
H1700 H 0.26142 0.57839 0.63795 0.0
H1701 H 0.2238 0.62457 0.53776 0.0
H1702 H 0.2337 0.67325 0.54823 0.0
H1703 H 0.25639 0.70144 0.58366 0.0
H1704 H 0.29266 0.65525 0.68446 0.0
H1705 H 0.28007 0.60772 0.67577 0.0
C1706 C 0.25491 0.59919 0.61858 0.0
C1707 C 0.24233 0.59758 0.58673 0.0
C1708 C 0.26094 0.62693 0.62454 0.0
C1709 C 0.23403 0.62492 0.56213 0.0
C1710 C 0.23977 0.65274 0.56803 0.0
C1711 C 0.26159 0.68087 0.60357 0.0
C1712 C 0.27575 0.68163 0.63439 0.0
C1713 C 0.25395 0.65373 0.59862 0.0
C1714 C 0.28183 0.65514 0.66047 0.0
C1715 C 0.27463 0.62799 0.65552 0.0
loop_
_geom_bond_atom_site_label_1
_geom_bond_atom_site_label_2
_geom_bond_distance
_geom_bond_site_symmetry_2
_ccdc_geom_bond_type
Cu0 N1 1.999 . S
Cu0 O6 1.974 . S
Cu0 N11 1.985 . S
Cu0 O20 1.959 1_455 S
N1 Cu0 1.999 . S
N1 C3 1.263 . S
N1 C5 1.389 . S
N2 C3 1.358 . S
N2 C4 1.400 . S
C3 N1 1.263 . S
C3 N2 1.358 . S
C3 H9 0.930 . S
C4 N2 1.400 . S
C4 C5 1.351 . S
C4 H21 0.930 . S
C5 N1 1.389 . S
C5 C4 1.351 . S
C5 H10 0.930 . S
O6 Cu0 1.974 . S
O6 C16 1.282 1_545 S
C7 O8 1.261 . S
C7 O20 1.251 . S
O8 C7 1.261 . S
H9 C3 0.930 . S
H10 C5 0.930 . S
N11 Cu0 1.985 . S
N11 C13 1.335 1_455 S
N11 C14 1.390 1_545 S
N12 C13 1.345 1_565 S
N12 C15 1.313 1_655 S
C13 N11 1.335 1_655 S
C13 N12 1.345 1_545 S
C13 H18 0.930 . S
C14 N11 1.390 1_565 S
C14 C15 1.379 . S
C14 H19 0.930 . S
C15 N12 1.313 1_455 S
C15 C14 1.379 . S
C15 H22 0.923 . S
C16 O6 1.282 1_565 S
C16 O17 1.216 1_565 S
O17 C16 1.216 1_545 S
H18 C13 0.930 . S
H19 C14 0.930 . S
O20 Cu0 1.959 1_655 S
O20 C7 1.251 . S
H21 C4 0.930 . S
H22 C15 0.923 . S
Cu23 N24 1.999 . S
Cu23 O29 1.974 1_455 S
Cu23 N34 1.985 . S
Cu23 O43 1.959 . S
N24 Cu23 1.999 . S
N24 C26 1.263 1_455 S
N24 C28 1.389 1_545 S
N25 C26 1.358 1_565 S
N25 C27 1.400 . S
C26 N24 1.263 1_655 S
C26 N25 1.358 1_545 S
C26 H32 0.930 . S
C27 N25 1.400 . S
C27 C28 1.351 1_655 S
C27 H44 0.930 . S
C28 N24 1.389 1_565 S
C28 C27 1.351 1_455 S
C28 H33 0.930 . S
O29 Cu23 1.974 1_655 S
O29 C39 1.282 . S
C30 O31 1.261 . S
C30 O43 1.251 . S
O31 C30 1.261 . S
H32 C26 0.930 . S
H33 C28 0.930 . S
N34 Cu23 1.985 . S
N34 C36 1.335 . S
N34 C37 1.390 . S
N35 C36 1.345 . S
N35 C38 1.336 . S
C36 N34 1.335 . S
C36 N35 1.345 . S
C36 H41 0.930 . S
C37 N34 1.390 . S
C37 C38 1.346 . S
C37 H42 0.930 . S
C38 N35 1.336 . S
C38 C37 1.346 . S
C38 H45 0.929 . S
C39 O29 1.282 . S
C39 O40 1.216 . S
O40 C39 1.216 . S
H41 C36 0.930 . S
H42 C37 0.930 . S
O43 Cu23 1.959 . S
O43 C30 1.251 . S
H44 C27 0.930 . S
H45 C38 0.929 . S
Cu46 N47 1.999 . S
Cu46 O52 1.974 . S
Cu46 N57 1.985 . S
Cu46 O66 1.959 . S
N47 Cu46 1.999 . S
N47 C49 1.263 . S
N47 C51 1.389 . S
N48 C49 1.358 . S
N48 C50 1.400 . S
C49 N47 1.263 . S
C49 N48 1.358 . S
C49 H55 0.930 . S
C50 N48 1.400 . S
C50 C51 1.351 . S
C50 H67 0.930 1_554 S
C51 N47 1.389 . S
C51 C50 1.351 . S
C51 H56 0.930 . S
O52 Cu46 1.974 . S
O52 C62 1.282 . S
C53 O54 1.261 . S
C53 O66 1.251 . S
O54 C53 1.261 . S
H55 C49 0.930 . S
H56 C51 0.930 . S
N57 Cu46 1.985 . S
N57 C59 1.335 . S
N57 C60 1.390 . S
N58 C59 1.345 . S
N58 C61 1.336 . S
C59 N57 1.335 . S
C59 N58 1.345 . S
C59 H64 0.930 . S
C60 N57 1.390 . S
C60 C61 1.346 . S
C60 H65 0.930 . S
C61 N58 1.336 . S
C61 C60 1.346 . S
C61 H68 0.929 . S
C62 O52 1.282 . S
C62 O63 1.216 . S
O63 C62 1.216 . S
H64 C59 0.930 . S
H65 C60 0.930 . S
O66 Cu46 1.959 . S
O66 C53 1.251 . S
H67 C50 0.930 1_556 S
H68 C61 0.929 . S
Cu69 N70 1.999 . S
Cu69 O75 1.974 . S
Cu69 N80 1.985 . S
Cu69 O89 1.959 . S
N70 Cu69 1.999 . S
N70 C72 1.263 . S
N70 C74 1.389 . S
N71 C72 1.358 . S
N71 C73 1.400 1_554 S
C72 N70 1.263 . S
C72 N71 1.358 . S
C72 H78 0.930 . S
C73 N71 1.400 1_556 S
C73 C74 1.351 1_556 S
C73 H90 0.930 . S
C74 N70 1.389 . S
C74 C73 1.351 1_554 S
C74 H79 0.930 . S
O75 Cu69 1.974 . S
O75 C85 1.282 . S
C76 O77 1.261 . S
C76 O89 1.251 . S
O77 C76 1.261 . S
H78 C72 0.930 . S
H79 C74 0.930 . S
N80 Cu69 1.985 . S
N80 C82 1.335 . S
N80 C83 1.390 . S
N81 C82 1.345 1_655 S
N81 C84 1.336 1_655 S
C82 N80 1.335 . S
C82 N81 1.345 1_455 S
C82 H87 0.930 1_455 S
C83 N80 1.390 . S
C83 C84 1.346 . S
C83 H88 0.930 . S
C84 N81 1.336 1_455 S
C84 C83 1.346 . S
C84 H91 0.929 . S
C85 O75 1.282 . S
C85 O86 1.216 . S
O86 C85 1.216 . S
H87 C82 0.930 1_655 S
H88 C83 0.930 . S
O89 Cu69 1.959 . S
O89 C76 1.251 . S
H90 C73 0.930 . S
H91 C84 0.929 . S
Cu92 N93 1.999 1_554 S
Cu92 O98 1.974 . S
Cu92 N103 1.985 1_545 S
Cu92 O112 1.959 1_544 S
N93 Cu92 1.999 1_556 S
N93 C95 1.263 . S
N93 C97 1.389 . S
N94 C95 1.358 . S
N94 C96 1.400 . S
C95 N93 1.263 . S
C95 N94 1.358 . S
C95 H101 0.930 . S
C96 N94 1.400 . S
C96 C97 1.351 . S
C96 H113 0.930 . S
C97 N93 1.389 . S
C97 C96 1.351 . S
C97 H102 0.930 . S
O98 Cu92 1.974 . S
O98 C108 1.282 . S
C99 O100 1.261 . S
C99 O112 1.251 . S
O100 C99 1.261 . S
H101 C95 0.930 . S
H102 C97 0.930 . S
N103 Cu92 1.985 1_565 S
N103 C105 1.335 . S
N103 C106 1.390 . S
N104 C105 1.345 . S
N104 C107 1.336 . S
C105 N103 1.335 . S
C105 N104 1.345 . S
C105 H110 0.930 . S
C106 N103 1.390 . S
C106 C107 1.346 . S
C106 H111 0.930 . S
C107 N104 1.336 . S
C107 C106 1.346 . S
C107 H114 0.929 . S
C108 O98 1.282 . S
C108 O109 1.216 . S
O109 C108 1.216 . S
H110 C105 0.930 . S
H111 C106 0.930 . S
O112 Cu92 1.959 1_566 S
O112 C99 1.251 . S
H113 C96 0.930 . S
H114 C107 0.929 . S
Cu115 N116 1.999 1_454 S
Cu115 O121 1.974 1_455 S
Cu115 N126 1.985 . S
Cu115 O135 1.959 1_554 S
N116 Cu115 1.999 1_656 S
N116 C118 1.263 . S
N116 C120 1.389 . S
N117 C118 1.358 . S
N117 C119 1.400 . S
C118 N116 1.263 . S
C118 N117 1.358 . S
C118 H124 0.930 . S
C119 N117 1.400 . S
C119 C120 1.351 . S
C119 H136 0.930 . S
C120 N116 1.389 . S
C120 C119 1.351 . S
C120 H125 0.930 1_655 S
O121 Cu115 1.974 1_655 S
O121 C131 1.282 . S
C122 O123 1.261 . S
C122 O135 1.251 . S
O123 C122 1.261 . S
H124 C118 0.930 . S
H125 C120 0.930 1_455 S
N126 Cu115 1.985 . S
N126 C128 1.335 . S
N126 C129 1.390 . S
N127 C128 1.345 . S
N127 C130 1.336 . S
C128 N126 1.335 . S
C128 N127 1.345 . S
C128 H133 0.930 . S
C129 N126 1.390 . S
C129 C130 1.346 . S
C129 H134 0.930 1_455 S
C130 N127 1.336 . S
C130 C129 1.346 . S
C130 H137 0.929 . S
C131 O121 1.282 . S
C131 O132 1.216 . S
O132 C131 1.216 . S
H133 C128 0.930 . S
H134 C129 0.930 1_655 S
O135 Cu115 1.959 1_556 S
O135 C122 1.251 . S
H136 C119 0.930 . S
H137 C130 0.929 . S
Cu138 N139 1.999 . S
Cu138 O144 1.974 . S
Cu138 N149 1.985 . S
Cu138 O158 1.959 . S
N139 Cu138 1.999 . S
N139 C141 1.263 . S
N139 C143 1.389 . S
N140 C141 1.358 . S
N140 C142 1.400 . S
C141 N139 1.263 . S
C141 N140 1.358 . S
C141 H147 0.930 . S
C142 N140 1.400 . S
C142 C143 1.351 . S
C142 H159 0.930 . S
C143 N139 1.389 . S
C143 C142 1.351 . S
C143 H148 0.930 . S
O144 Cu138 1.974 . S
O144 C154 1.282 . S
C145 O146 1.261 . S
C145 O158 1.251 . S
O146 C145 1.261 . S
H147 C141 0.930 . S
H148 C143 0.930 . S
N149 Cu138 1.985 . S
N149 C151 1.335 . S
N149 C152 1.390 . S
N150 C151 1.345 . S
N150 C153 1.336 . S
C151 N149 1.335 . S
C151 N150 1.345 . S
C151 H156 0.930 . S
C152 N149 1.390 . S
C152 C153 1.346 . S
C152 H157 0.930 . S
C153 N150 1.336 . S
C153 C152 1.346 . S
C153 H160 0.929 . S
C154 O144 1.282 . S
C154 O155 1.216 . S
O155 C154 1.216 . S
H156 C151 0.930 . S
H157 C152 0.930 . S
O158 Cu138 1.959 . S
O158 C145 1.251 . S
H159 C142 0.930 . S
H160 C153 0.929 . S
Cu161 N162 1.999 . S
Cu161 O167 1.974 . S
Cu161 N172 1.985 . S
Cu161 O181 1.959 . S
N162 Cu161 1.999 . S
N162 C164 1.263 . S
N162 C166 1.389 . S
N163 C164 1.358 . S
N163 C165 1.400 . S
C164 N162 1.263 . S
C164 N163 1.358 . S
C164 H170 0.930 . S
C165 N163 1.400 . S
C165 C166 1.351 . S
C165 H182 0.930 . S
C166 N162 1.389 . S
C166 C165 1.351 . S
C166 H171 0.930 . S
O167 Cu161 1.974 . S
O167 C177 1.282 . S
C168 O169 1.261 . S
C168 O181 1.251 . S
O169 C168 1.261 . S
H170 C164 0.930 . S
H171 C166 0.930 . S
N172 Cu161 1.985 . S
N172 C174 1.335 . S
N172 C175 1.390 . S
N173 C174 1.345 . S
N173 C176 1.336 . S
C174 N172 1.335 . S
C174 N173 1.345 . S
C174 H179 0.930 . S
C175 N172 1.390 . S
C175 C176 1.346 . S
C175 H180 0.930 . S
C176 N173 1.336 . S
C176 C175 1.346 . S
C176 H183 0.929 . S
C177 O167 1.282 . S
C177 O178 1.216 . S
O178 C177 1.216 . S
H179 C174 0.930 . S
H180 C175 0.930 . S
O181 Cu161 1.959 . S
O181 C168 1.251 . S
H182 C165 0.930 . S
H183 C176 0.929 . S
Cu184 N185 1.999 . S
Cu184 O190 1.974 . S
Cu184 N195 1.985 . S
Cu184 O204 1.959 . S
N185 Cu184 1.999 . S
N185 C187 1.263 . S
N185 C189 1.389 . S
N186 C187 1.358 . S
N186 C188 1.400 . S
C187 N185 1.263 . S
C187 N186 1.358 . S
C187 H193 0.930 . S
C188 N186 1.400 . S
C188 C189 1.351 . S
C188 H205 0.930 . S
C189 N185 1.389 . S
C189 C188 1.351 . S
C189 H194 0.930 . S
O190 Cu184 1.974 . S
O190 C200 1.282 . S
C191 O192 1.261 . S
C191 O204 1.251 . S
O192 C191 1.261 . S
H193 C187 0.930 . S
H194 C189 0.930 . S
N195 Cu184 1.985 . S
N195 C197 1.335 . S
N195 C198 1.390 . S
N196 C197 1.345 . S
N196 C199 1.336 . S
C197 N195 1.335 . S
C197 N196 1.345 . S
C197 H202 0.930 . S
C198 N195 1.390 . S
C198 C199 1.346 . S
C198 H203 0.930 . S
C199 N196 1.336 . S
C199 C198 1.346 . S
C199 H206 0.929 . S
C200 O190 1.282 . S
C200 O201 1.216 . S
O201 C200 1.216 . S
H202 C197 0.930 . S
H203 C198 0.930 . S
O204 Cu184 1.959 . S
O204 C191 1.251 . S
H205 C188 0.930 . S
H206 C199 0.929 . S
Cu207 N208 1.999 . S
Cu207 O213 1.974 . S
Cu207 N218 1.985 . S
Cu207 O227 1.959 . S
N208 Cu207 1.999 . S
N208 C210 1.263 . S
N208 C212 1.389 . S
N209 C210 1.358 . S
N209 C211 1.400 . S
C210 N208 1.263 . S
C210 N209 1.358 . S
C210 H216 0.930 . S
C211 N209 1.400 . S
C211 C212 1.351 . S
C211 H228 0.930 . S
C212 N208 1.389 . S
C212 C211 1.351 . S
C212 H217 0.930 . S
O213 Cu207 1.974 . S
O213 C223 1.282 . S
C214 O215 1.261 . S
C214 O227 1.251 . S
O215 C214 1.261 . S
H216 C210 0.930 . S
H217 C212 0.930 . S
N218 Cu207 1.985 . S
N218 C220 1.335 . S
N218 C221 1.390 . S
N219 C220 1.345 . S
N219 C222 1.336 . S
C220 N218 1.335 . S
C220 N219 1.345 . S
C220 H225 0.930 . S
C221 N218 1.390 . S
C221 C222 1.346 . S
C221 H226 0.930 . S
C222 N219 1.336 . S
C222 C221 1.346 . S
C222 H229 0.929 . S
C223 O213 1.282 . S
C223 O224 1.216 . S
O224 C223 1.216 . S
H225 C220 0.930 . S
H226 C221 0.930 . S
O227 Cu207 1.959 . S
O227 C214 1.251 . S
H228 C211 0.930 . S
H229 C222 0.929 . S
Cu230 N231 1.999 . S
Cu230 O236 1.974 . S
Cu230 N241 1.985 . S
Cu230 O250 1.959 . S
N231 Cu230 1.999 . S
N231 C233 1.263 . S
N231 C235 1.389 . S
N232 C233 1.358 . S
N232 C234 1.400 . S
C233 N231 1.263 . S
C233 N232 1.358 . S
C233 H239 0.930 . S
C234 N232 1.400 . S
C234 C235 1.351 . S
C234 H251 0.930 . S
C235 N231 1.389 . S
C235 C234 1.351 . S
C235 H240 0.930 . S
O236 Cu230 1.974 . S
O236 C246 1.282 . S
C237 O238 1.261 . S
C237 O250 1.251 . S
O238 C237 1.261 . S
H239 C233 0.930 . S
H240 C235 0.930 . S
N241 Cu230 1.985 . S
N241 C243 1.335 . S
N241 C244 1.390 . S
N242 C243 1.345 . S
N242 C245 1.336 . S
C243 N241 1.335 . S
C243 N242 1.345 . S
C243 H248 0.930 . S
C244 N241 1.390 . S
C244 C245 1.346 . S
C244 H249 0.930 . S
C245 N242 1.336 . S
C245 C244 1.346 . S
C245 H252 0.929 . S
C246 O236 1.282 . S
C246 O247 1.216 . S
O247 C246 1.216 . S
H248 C243 0.930 . S
H249 C244 0.930 . S
O250 Cu230 1.959 . S
O250 C237 1.251 . S
H251 C234 0.930 . S
H252 C245 0.929 . S
Cu253 N254 1.999 . S
Cu253 O259 1.974 . S
Cu253 N264 1.985 . S
Cu253 O273 1.959 . S
N254 Cu253 1.999 . S
N254 C256 1.263 . S
N254 C258 1.389 . S
N255 C256 1.358 . S
N255 C257 1.400 . S
C256 N254 1.263 . S
C256 N255 1.358 . S
C256 H262 0.930 . S
C257 N255 1.400 . S
C257 C258 1.351 . S
C257 H274 0.930 . S
C258 N254 1.389 . S
C258 C257 1.351 . S
C258 H263 0.930 . S
O259 Cu253 1.974 . S
O259 C269 1.282 . S
C260 O261 1.261 . S
C260 O273 1.251 . S
O261 C260 1.261 . S
H262 C256 0.930 . S
H263 C258 0.930 . S
N264 Cu253 1.985 . S
N264 C266 1.335 . S
N264 C267 1.390 . S
N265 C266 1.345 . S
N265 C268 1.336 . S
C266 N264 1.335 . S
C266 N265 1.345 . S
C266 H271 0.930 . S
C267 N264 1.390 . S
C267 C268 1.346 . S
C267 H272 0.930 . S
C268 N265 1.336 . S
C268 C267 1.346 . S
C268 H275 0.929 . S
C269 O259 1.282 . S
C269 O270 1.216 . S
O270 C269 1.216 . S
H271 C266 0.930 . S
H272 C267 0.930 . S
O273 Cu253 1.959 . S
O273 C260 1.251 . S
H274 C257 0.930 . S
H275 C268 0.929 . S
Eu276 N307 2.657 . S
Eu276 N314 2.609 . S
Eu276 O320 2.558 . S
Eu276 O321 2.612 . S
Eu276 O323 2.339 . S
Eu276 O324 2.563 . S
Eu276 O325 2.419 . S
Eu276 O327 2.380 . S
Eu276 O328 2.432 . S
Eu276 C340 2.848 . S
C277 C280 1.429 . S
C277 C281 1.411 . S
C277 N284 1.377 . S
C278 C280 1.420 . S
C278 C282 1.423 . S
C278 C290 1.392 . S
C279 C281 1.420 . S
C279 C282 1.351 . S
C279 H302 0.931 . S
C280 C277 1.429 . S
C280 C278 1.420 . S
C280 N288 1.362 . S
C281 C277 1.411 . S
C281 C279 1.420 . S
C281 C286 1.395 . S
C282 C278 1.423 . S
C282 C279 1.351 . S
C282 H294 0.930 . S
C283 C285 1.400 . S
C283 C286 1.386 . S
C283 H295 0.930 . S
N284 C277 1.377 . S
N284 C285 1.321 . S
N284 Eu287 2.609 . S
C285 C283 1.400 . S
C285 N284 1.321 . S
C285 H292 0.930 . S
C286 C281 1.395 . S
C286 C283 1.386 . S
C286 H305 0.930 . S
Eu287 N284 2.609 . S
Eu287 N288 2.657 . S
Eu287 O321 2.380 . S
Eu287 O322 2.432 . S
Eu287 O326 2.558 . S
Eu287 O327 2.612 . S
Eu287 O329 2.339 . S
Eu287 O330 2.563 . S
Eu287 O331 2.419 . S
Eu287 C351 2.848 . S
N288 C280 1.362 . S
N288 Eu287 2.657 . S
N288 C289 1.334 . S
C289 N288 1.334 . S
C289 C291 1.413 . S
C289 H296 0.929 . S
C290 C278 1.392 . S
C290 C291 1.367 . S
C290 H298 0.930 . S
C291 C289 1.413 . S
C291 C290 1.367 . S
C291 H293 0.930 . S
H292 C285 0.930 . S
H293 C291 0.930 . S
H294 C282 0.930 . S
H295 C283 0.930 . S
H296 C289 0.929 . S
H297 C311 0.930 . S
H298 C290 0.930 . S
H299 C317 0.930 . S
H300 C308 0.929 . S
H301 C315 0.930 . S
H302 C279 0.931 . S
H303 C309 0.930 . S
H304 C342 0.930 . S
H305 C286 0.930 . S
H306 C341 0.931 . S
N307 Eu276 2.657 . S
N307 C308 1.334 . S
N307 C312 1.362 . S
C308 H300 0.929 . S
C308 N307 1.334 . S
C308 C311 1.413 . S
C309 H303 0.930 . S
C309 C310 1.392 . S
C309 C311 1.367 . S
C310 C309 1.392 . S
C310 C312 1.420 . S
C310 C342 1.423 . S
C311 H297 0.930 . S
C311 C308 1.413 . S
C311 C309 1.367 . S
C312 N307 1.362 . S
C312 C310 1.420 . S
C312 C316 1.429 . S
H313 C318 0.930 . S
N314 Eu276 2.609 . S
N314 C316 1.377 . S
N314 C317 1.321 . S
C315 H301 0.930 . S
C315 C317 1.400 . S
C315 C318 1.386 . S
C316 C312 1.429 . S
C316 N314 1.377 . S
C316 C319 1.411 . S
C317 H299 0.930 . S
C317 N314 1.321 . S
C317 C315 1.400 . S
C318 H313 0.930 . S
C318 C315 1.386 . S
C318 C319 1.395 . S
C319 C316 1.411 . S
C319 C318 1.395 . S
C319 C341 1.420 . S
O320 Eu276 2.558 . S
O320 C340 1.257 . S
O321 Eu276 2.612 . S
O321 Eu287 2.380 . S
O321 C332 1.276 . S
O322 Eu287 2.432 . S
O322 C339 1.264 . S
O323 Eu276 2.339 . S
O323 C339 1.254 . S
O324 Eu276 2.563 . S
O324 C332 1.235 . S
O325 Eu276 2.419 . S
O325 C340 1.249 . S
O326 Eu287 2.558 . S
O326 C351 1.257 . S
O327 Eu276 2.380 . S
O327 Eu287 2.612 . S
O327 C343 1.276 . S
O328 Eu276 2.432 . S
O328 C350 1.264 . S
O329 Eu287 2.339 . S
O329 C350 1.254 . S
O330 Eu287 2.563 . S
O330 C343 1.235 . S
O331 Eu287 2.419 . S
O331 C351 1.249 . S
C332 O321 1.276 . S
C332 O324 1.235 . S
C333 C335 1.393 . S
C333 C337 1.395 . S
C333 C340 1.492 . S
C334 C335 1.392 . S
C334 C336 1.386 . S
C335 C333 1.393 . S
C335 C334 1.392 . S
C335 H352 0.930 . S
C336 C334 1.386 . S
C336 C338 1.395 . S
C336 H353 0.930 . S
C337 C333 1.395 . S
C337 C338 1.379 . S
C337 H354 0.930 . S
C338 C336 1.395 . S
C338 C337 1.379 . S
C338 H355 0.930 . S
C339 O322 1.264 . S
C339 O323 1.254 . S
C340 Eu276 2.848 . S
C340 O320 1.257 . S
C340 O325 1.249 . S
C340 C333 1.492 . S
C341 H306 0.931 . S
C341 C319 1.420 . S
C341 C342 1.351 . S
C342 H304 0.930 . S
C342 C310 1.423 . S
C342 C341 1.351 . S
C343 O327 1.276 . S
C343 O330 1.235 . S
C344 C345 1.393 . S
C344 C348 1.395 . S
C344 C351 1.492 . S
C345 C344 1.393 . S
C345 C346 1.392 . S
C345 H356 0.930 . S
C346 C345 1.392 . S
C346 C347 1.386 . S
C347 C346 1.386 . S
C347 C349 1.395 . S
C347 H357 0.930 . S
C348 C344 1.395 . S
C348 C349 1.379 . S
C348 H358 0.930 . S
C349 C347 1.395 . S
C349 C348 1.379 . S
C349 H359 0.930 . S
C350 O328 1.264 . S
C350 O329 1.254 . S
C351 Eu287 2.848 . S
C351 O326 1.257 . S
C351 O331 1.249 . S
C351 C344 1.492 . S
H352 C335 0.930 . S
H353 C336 0.930 . S
H354 C337 0.930 . S
H355 C338 0.930 . S
H356 C345 0.930 . S
H357 C347 0.930 . S
H358 C348 0.930 . S
H359 C349 0.930 . S
Eu360 N391 2.657 . S
Eu360 N398 2.609 . S
Eu360 O404 2.558 . S
Eu360 O405 2.612 . S
Eu360 O407 2.339 . S
Eu360 O408 2.563 . S
Eu360 O409 2.419 . S
Eu360 O411 2.380 . S
Eu360 O412 2.432 . S
Eu360 C424 2.848 . S
C361 C364 1.429 . S
C361 C365 1.411 . S
C361 N368 1.377 . S
C362 C364 1.420 . S
C362 C366 1.423 . S
C362 C374 1.392 . S
C363 C365 1.420 . S
C363 C366 1.351 . S
C363 H386 0.931 . S
C364 C361 1.429 . S
C364 C362 1.420 . S
C364 N372 1.362 . S
C365 C361 1.411 . S
C365 C363 1.420 . S
C365 C370 1.395 . S
C366 C362 1.423 . S
C366 C363 1.351 . S
C366 H378 0.930 . S
C367 C369 1.400 . S
C367 C370 1.386 . S
C367 H379 0.930 . S
N368 C361 1.377 . S
N368 C369 1.321 . S
N368 Eu371 2.609 . S
C369 C367 1.400 . S
C369 N368 1.321 . S
C369 H376 0.930 . S
C370 C365 1.395 . S
C370 C367 1.386 . S
C370 H389 0.930 . S
Eu371 N368 2.609 . S
Eu371 N372 2.657 . S
Eu371 O405 2.380 . S
Eu371 O406 2.432 . S
Eu371 O410 2.558 . S
Eu371 O411 2.612 . S
Eu371 O413 2.339 . S
Eu371 O414 2.563 . S
Eu371 O415 2.419 . S
Eu371 C435 2.848 . S
N372 C364 1.362 . S
N372 Eu371 2.657 . S
N372 C373 1.334 . S
C373 N372 1.334 . S
C373 C375 1.413 . S
C373 H380 0.929 . S
C374 C362 1.392 . S
C374 C375 1.367 . S
C374 H382 0.930 . S
C375 C373 1.413 . S
C375 C374 1.367 . S
C375 H377 0.930 . S
H376 C369 0.930 . S
H377 C375 0.930 . S
H378 C366 0.930 . S
H379 C367 0.930 . S
H380 C373 0.929 . S
H381 C395 0.930 . S
H382 C374 0.930 . S
H383 C401 0.930 . S
H384 C392 0.929 . S
H385 C399 0.930 . S
H386 C363 0.931 . S
H387 C393 0.930 . S
H388 C426 0.930 . S
H389 C370 0.930 . S
H390 C425 0.931 . S
N391 Eu360 2.657 . S
N391 C392 1.334 . S
N391 C396 1.362 . S
C392 H384 0.929 . S
C392 N391 1.334 . S
C392 C395 1.413 . S
C393 H387 0.930 . S
C393 C394 1.392 . S
C393 C395 1.367 . S
C394 C393 1.392 . S
C394 C396 1.420 . S
C394 C426 1.423 . S
C395 H381 0.930 . S
C395 C392 1.413 . S
C395 C393 1.367 . S
C396 N391 1.362 . S
C396 C394 1.420 . S
C396 C400 1.429 . S
H397 C402 0.930 . S
N398 Eu360 2.609 . S
N398 C400 1.377 . S
N398 C401 1.321 . S
C399 H385 0.930 . S
C399 C401 1.400 . S
C399 C402 1.386 . S
C400 C396 1.429 . S
C400 N398 1.377 . S
C400 C403 1.411 . S
C401 H383 0.930 . S
C401 N398 1.321 . S
C401 C399 1.400 . S
C402 H397 0.930 . S
C402 C399 1.386 . S
C402 C403 1.395 . S
C403 C400 1.411 . S
C403 C402 1.395 . S
C403 C425 1.420 . S
O404 Eu360 2.558 . S
O404 C424 1.257 . S
O405 Eu360 2.612 . S
O405 Eu371 2.380 . S
O405 C416 1.276 . S
O406 Eu371 2.432 . S
O406 C423 1.264 . S
O407 Eu360 2.339 . S
O407 C423 1.254 . S
O408 Eu360 2.563 . S
O408 C416 1.235 . S
O409 Eu360 2.419 . S
O409 C424 1.249 . S
O410 Eu371 2.558 . S
O410 C435 1.257 . S
O411 Eu360 2.380 . S
O411 Eu371 2.612 . S
O411 C427 1.276 . S
O412 Eu360 2.432 . S
O412 C434 1.264 . S
O413 Eu371 2.339 . S
O413 C434 1.254 . S
O414 Eu371 2.563 . S
O414 C427 1.235 . S
O415 Eu371 2.419 . S
O415 C435 1.249 . S
C416 O405 1.276 . S
C416 O408 1.235 . S
C417 C419 1.393 . S
C417 C421 1.395 . S
C417 C424 1.492 . S
C418 C419 1.392 . S
C418 C420 1.386 . S
C419 C417 1.393 . S
C419 C418 1.392 . S
C419 H436 0.930 . S
C420 C418 1.386 . S
C420 C422 1.395 . S
C420 H437 0.930 . S
C421 C417 1.395 . S
C421 C422 1.379 . S
C421 H438 0.930 . S
C422 C420 1.395 . S
C422 C421 1.379 . S
C422 H439 0.930 . S
C423 O406 1.264 . S
C423 O407 1.254 . S
C424 Eu360 2.848 . S
C424 O404 1.257 . S
C424 O409 1.249 . S
C424 C417 1.492 . S
C425 H390 0.931 . S
C425 C403 1.420 . S
C425 C426 1.351 . S
C426 H388 0.930 . S
C426 C394 1.423 . S
C426 C425 1.351 . S
C427 O411 1.276 . S
C427 O414 1.235 . S
C428 C429 1.393 . S
C428 C432 1.395 . S
C428 C435 1.492 . S
C429 C428 1.393 . S
C429 C430 1.392 . S
C429 H440 0.930 . S
C430 C429 1.392 . S
C430 C431 1.386 . S
C431 C430 1.386 . S
C431 C433 1.395 . S
C431 H441 0.930 . S
C432 C428 1.395 . S
C432 C433 1.379 . S
C432 H442 0.930 . S
C433 C431 1.395 . S
C433 C432 1.379 . S
C433 H443 0.930 . S
C434 O412 1.264 . S
C434 O413 1.254 . S
C435 Eu371 2.848 . S
C435 O410 1.257 . S
C435 O415 1.249 . S
C435 C428 1.492 . S
H436 C419 0.930 . S
H437 C420 0.930 . S
H438 C421 0.930 . S
H439 C422 0.930 . S
H440 C429 0.930 . S
H441 C431 0.930 . S
H442 C432 0.930 . S
H443 C433 0.930 . S
Eu444 N475 2.657 . S
Eu444 N482 2.609 . S
Eu444 O488 2.558 . S
Eu444 O489 2.612 . S
Eu444 O491 2.339 . S
Eu444 O492 2.563 . S
Eu444 O493 2.419 . S
Eu444 O495 2.380 . S
Eu444 O496 2.432 . S
Eu444 C508 2.848 . S
C445 C448 1.429 . S
C445 C449 1.411 . S
C445 N452 1.377 . S
C446 C448 1.420 . S
C446 C450 1.423 . S
C446 C458 1.392 . S
C447 C449 1.420 . S
C447 C450 1.351 . S
C447 H470 0.931 . S
C448 C445 1.429 . S
C448 C446 1.420 . S
C448 N456 1.362 . S
C449 C445 1.411 . S
C449 C447 1.420 . S
C449 C454 1.395 . S
C450 C446 1.423 . S
C450 C447 1.351 . S
C450 H462 0.930 . S
C451 C453 1.400 . S
C451 C454 1.386 . S
C451 H463 0.930 . S
N452 C445 1.377 . S
N452 C453 1.321 . S
N452 Eu455 2.609 . S
C453 C451 1.400 . S
C453 N452 1.321 . S
C453 H460 0.930 . S
C454 C449 1.395 . S
C454 C451 1.386 . S
C454 H473 0.930 . S
Eu455 N452 2.609 . S
Eu455 N456 2.657 . S
Eu455 O489 2.380 . S
Eu455 O490 2.432 . S
Eu455 O494 2.558 . S
Eu455 O495 2.612 . S
Eu455 O497 2.339 . S
Eu455 O498 2.563 . S
Eu455 O499 2.419 . S
Eu455 C519 2.848 . S
N456 C448 1.362 . S
N456 Eu455 2.657 . S
N456 C457 1.334 . S
C457 N456 1.334 . S
C457 C459 1.413 . S
C457 H464 0.929 . S
C458 C446 1.392 . S
C458 C459 1.367 . S
C458 H466 0.930 . S
C459 C457 1.413 . S
C459 C458 1.367 . S
C459 H461 0.930 . S
H460 C453 0.930 . S
H461 C459 0.930 . S
H462 C450 0.930 . S
H463 C451 0.930 . S
H464 C457 0.929 . S
H465 C479 0.930 . S
H466 C458 0.930 . S
H467 C485 0.930 . S
H468 C476 0.929 . S
H469 C483 0.930 . S
H470 C447 0.931 . S
H471 C477 0.930 . S
H472 C510 0.930 . S
H473 C454 0.930 . S
H474 C509 0.931 . S
N475 Eu444 2.657 . S
N475 C476 1.334 . S
N475 C480 1.362 . S
C476 H468 0.929 . S
C476 N475 1.334 . S
C476 C479 1.413 . S
C477 H471 0.930 . S
C477 C478 1.392 . S
C477 C479 1.367 . S
C478 C477 1.392 . S
C478 C480 1.420 . S
C478 C510 1.423 . S
C479 H465 0.930 . S
C479 C476 1.413 . S
C479 C477 1.367 . S
C480 N475 1.362 . S
C480 C478 1.420 . S
C480 C484 1.429 . S
H481 C486 0.930 . S
N482 Eu444 2.609 . S
N482 C484 1.377 . S
N482 C485 1.321 . S
C483 H469 0.930 . S
C483 C485 1.400 . S
C483 C486 1.386 . S
C484 C480 1.429 . S
C484 N482 1.377 . S
C484 C487 1.411 . S
C485 H467 0.930 . S
C485 N482 1.321 . S
C485 C483 1.400 . S
C486 H481 0.930 . S
C486 C483 1.386 . S
C486 C487 1.395 . S
C487 C484 1.411 . S
C487 C486 1.395 . S
C487 C509 1.420 . S
O488 Eu444 2.558 . S
O488 C508 1.257 . S
O489 Eu444 2.612 . S
O489 Eu455 2.380 . S
O489 C500 1.276 . S
O490 Eu455 2.432 . S
O490 C507 1.264 . S
O491 Eu444 2.339 . S
O491 C507 1.254 . S
O492 Eu444 2.563 . S
O492 C500 1.235 . S
O493 Eu444 2.419 . S
O493 C508 1.249 . S
O494 Eu455 2.558 . S
O494 C519 1.257 . S
O495 Eu444 2.380 . S
O495 Eu455 2.612 . S
O495 C511 1.276 . S
O496 Eu444 2.432 . S
O496 C518 1.264 . S
O497 Eu455 2.339 . S
O497 C518 1.254 . S
O498 Eu455 2.563 . S
O498 C511 1.235 . S
O499 Eu455 2.419 . S
O499 C519 1.249 . S
C500 O489 1.276 . S
C500 O492 1.235 . S
C501 C503 1.393 . S
C501 C505 1.395 . S
C501 C508 1.492 . S
C502 C503 1.392 . S
C502 C504 1.386 . S
C503 C501 1.393 . S
C503 C502 1.392 . S
C503 H520 0.930 . S
C504 C502 1.386 . S
C504 C506 1.395 . S
C504 H521 0.930 . S
C505 C501 1.395 . S
C505 C506 1.379 . S
C505 H522 0.930 . S
C506 C504 1.395 . S
C506 C505 1.379 . S
C506 H523 0.930 . S
C507 O490 1.264 . S
C507 O491 1.254 . S
C508 Eu444 2.848 . S
C508 O488 1.257 . S
C508 O493 1.249 . S
C508 C501 1.492 . S
C509 H474 0.931 . S
C509 C487 1.420 . S
C509 C510 1.351 . S
C510 H472 0.930 . S
C510 C478 1.423 . S
C510 C509 1.351 . S
C511 O495 1.276 . S
C511 O498 1.235 . S
C512 C513 1.393 . S
C512 C516 1.395 . S
C512 C519 1.492 . S
C513 C512 1.393 . S
C513 C514 1.392 . S
C513 H524 0.930 . S
C514 C513 1.392 . S
C514 C515 1.386 . S
C515 C514 1.386 . S
C515 C517 1.395 . S
C515 H525 0.930 . S
C516 C512 1.395 . S
C516 C517 1.379 . S
C516 H526 0.930 . S
C517 C515 1.395 . S
C517 C516 1.379 . S
C517 H527 0.930 . S
C518 O496 1.264 . S
C518 O497 1.254 . S
C519 Eu455 2.848 . S
C519 O494 1.257 . S
C519 O499 1.249 . S
C519 C512 1.492 . S
H520 C503 0.930 . S
H521 C504 0.930 . S
H522 C505 0.930 . S
H523 C506 0.930 . S
H524 C513 0.930 . S
H525 C515 0.930 . S
H526 C516 0.930 . S
H527 C517 0.930 . S
Eu528 N559 2.657 . S
Eu528 N566 2.609 . S
Eu528 O572 2.558 . S
Eu528 O573 2.612 . S
Eu528 O575 2.339 . S
Eu528 O576 2.563 . S
Eu528 O577 2.419 . S
Eu528 O579 2.380 . S
Eu528 O580 2.432 . S
Eu528 C592 2.848 . S
C529 C532 1.429 . S
C529 C533 1.411 . S
C529 N536 1.377 . S
C530 C532 1.420 . S
C530 C534 1.423 . S
C530 C542 1.392 . S
C531 C533 1.420 . S
C531 C534 1.351 . S
C531 H554 0.931 . S
C532 C529 1.429 . S
C532 C530 1.420 . S
C532 N540 1.362 . S
C533 C529 1.411 . S
C533 C531 1.420 . S
C533 C538 1.395 . S
C534 C530 1.423 . S
C534 C531 1.351 . S
C534 H546 0.930 . S
C535 C537 1.400 . S
C535 C538 1.386 . S
C535 H547 0.930 . S
N536 C529 1.377 . S
N536 C537 1.321 . S
N536 Eu539 2.609 . S
C537 C535 1.400 . S
C537 N536 1.321 . S
C537 H544 0.930 . S
C538 C533 1.395 . S
C538 C535 1.386 . S
C538 H557 0.930 . S
Eu539 N536 2.609 . S
Eu539 N540 2.657 . S
Eu539 O573 2.380 . S
Eu539 O574 2.432 . S
Eu539 O578 2.558 . S
Eu539 O579 2.612 . S
Eu539 O581 2.339 . S
Eu539 O582 2.563 . S
Eu539 O583 2.419 . S
Eu539 C603 2.848 . S
N540 C532 1.362 . S
N540 Eu539 2.657 . S
N540 C541 1.334 . S
C541 N540 1.334 . S
C541 C543 1.413 . S
C541 H548 0.929 . S
C542 C530 1.392 . S
C542 C543 1.367 . S
C542 H550 0.930 . S
C543 C541 1.413 . S
C543 C542 1.367 . S
C543 H545 0.930 . S
H544 C537 0.930 . S
H545 C543 0.930 . S
H546 C534 0.930 . S
H547 C535 0.930 . S
H548 C541 0.929 . S
H549 C563 0.930 . S
H550 C542 0.930 . S
H551 C569 0.930 . S
H552 C560 0.929 . S
H553 C567 0.930 . S
H554 C531 0.931 . S
H555 C561 0.930 . S
H556 C594 0.930 . S
H557 C538 0.930 . S
H558 C593 0.931 . S
N559 Eu528 2.657 . S
N559 C560 1.334 . S
N559 C564 1.362 . S
C560 H552 0.929 . S
C560 N559 1.334 . S
C560 C563 1.413 . S
C561 H555 0.930 . S
C561 C562 1.392 . S
C561 C563 1.367 . S
C562 C561 1.392 . S
C562 C564 1.420 . S
C562 C594 1.423 . S
C563 H549 0.930 . S
C563 C560 1.413 . S
C563 C561 1.367 . S
C564 N559 1.362 . S
C564 C562 1.420 . S
C564 C568 1.429 . S
H565 C570 0.930 . S
N566 Eu528 2.609 . S
N566 C568 1.377 . S
N566 C569 1.321 . S
C567 H553 0.930 . S
C567 C569 1.400 . S
C567 C570 1.386 . S
C568 C564 1.429 . S
C568 N566 1.377 . S
C568 C571 1.411 . S
C569 H551 0.930 . S
C569 N566 1.321 . S
C569 C567 1.400 . S
C570 H565 0.930 . S
C570 C567 1.386 . S
C570 C571 1.395 . S
C571 C568 1.411 . S
C571 C570 1.395 . S
C571 C593 1.420 . S
O572 Eu528 2.558 . S
O572 C592 1.257 . S
O573 Eu528 2.612 . S
O573 Eu539 2.380 . S
O573 C584 1.276 . S
O574 Eu539 2.432 . S
O574 C591 1.264 . S
O575 Eu528 2.339 . S
O575 C591 1.254 . S
O576 Eu528 2.563 . S
O576 C584 1.235 . S
O577 Eu528 2.419 . S
O577 C592 1.249 . S
O578 Eu539 2.558 . S
O578 C603 1.257 . S
O579 Eu528 2.380 . S
O579 Eu539 2.612 . S
O579 C595 1.276 . S
O580 Eu528 2.432 . S
O580 C602 1.264 . S
O581 Eu539 2.339 . S
O581 C602 1.254 . S
O582 Eu539 2.563 . S
O582 C595 1.235 . S
O583 Eu539 2.419 . S
O583 C603 1.249 . S
C584 O573 1.276 . S
C584 O576 1.235 . S
C585 C587 1.393 . S
C585 C589 1.395 . S
C585 C592 1.492 . S
C586 C587 1.392 . S
C586 C588 1.386 . S
C587 C585 1.393 . S
C587 C586 1.392 . S
C587 H604 0.930 . S
C588 C586 1.386 . S
C588 C590 1.395 . S
C588 H605 0.930 . S
C589 C585 1.395 . S
C589 C590 1.379 . S
C589 H606 0.930 . S
C590 C588 1.395 . S
C590 C589 1.379 . S
C590 H607 0.930 . S
C591 O574 1.264 . S
C591 O575 1.254 . S
C592 Eu528 2.848 . S
C592 O572 1.257 . S
C592 O577 1.249 . S
C592 C585 1.492 . S
C593 H558 0.931 . S
C593 C571 1.420 . S
C593 C594 1.351 . S
C594 H556 0.930 . S
C594 C562 1.423 . S
C594 C593 1.351 . S
C595 O579 1.276 . S
C595 O582 1.235 . S
C596 C597 1.393 . S
C596 C600 1.395 . S
C596 C603 1.492 . S
C597 C596 1.393 . S
C597 C598 1.392 . S
C597 H608 0.930 . S
C598 C597 1.392 . S
C598 C599 1.386 . S
C599 C598 1.386 . S
C599 C601 1.395 . S
C599 H609 0.930 . S
C600 C596 1.395 . S
C600 C601 1.379 . S
C600 H610 0.930 . S
C601 C599 1.395 . S
C601 C600 1.379 . S
C601 H611 0.930 . S
C602 O580 1.264 . S
C602 O581 1.254 . S
C603 Eu539 2.848 . S
C603 O578 1.257 . S
C603 O583 1.249 . S
C603 C596 1.492 . S
H604 C587 0.930 . S
H605 C588 0.930 . S
H606 C589 0.930 . S
H607 C590 0.930 . S
H608 C597 0.930 . S
H609 C599 0.930 . S
H610 C600 0.930 . S
H611 C601 0.930 . S
Eu612 N643 2.657 . S
Eu612 N650 2.609 . S
Eu612 O656 2.558 . S
Eu612 O657 2.612 . S
Eu612 O659 2.339 . S
Eu612 O660 2.563 . S
Eu612 O661 2.419 . S
Eu612 O663 2.380 . S
Eu612 O664 2.432 . S
Eu612 C676 2.848 . S
C613 C616 1.429 . S
C613 C617 1.411 . S
C613 N620 1.377 . S
C614 C616 1.420 . S
C614 C618 1.423 . S
C614 C626 1.392 . S
C615 C617 1.420 . S
C615 C618 1.351 . S
C615 H638 0.931 . S
C616 C613 1.429 . S
C616 C614 1.420 . S
C616 N624 1.362 . S
C617 C613 1.411 . S
C617 C615 1.420 . S
C617 C622 1.395 . S
C618 C614 1.423 . S
C618 C615 1.351 . S
C618 H630 0.930 . S
C619 C621 1.400 . S
C619 C622 1.386 . S
C619 H631 0.930 . S
N620 C613 1.377 . S
N620 C621 1.321 . S
N620 Eu623 2.609 . S
C621 C619 1.400 . S
C621 N620 1.321 . S
C621 H628 0.930 . S
C622 C617 1.395 . S
C622 C619 1.386 . S
C622 H641 0.930 . S
Eu623 N620 2.609 . S
Eu623 N624 2.657 . S
Eu623 O657 2.380 . S
Eu623 O658 2.432 . S
Eu623 O662 2.558 . S
Eu623 O663 2.612 . S
Eu623 O665 2.339 . S
Eu623 O666 2.563 . S
Eu623 O667 2.419 . S
Eu623 C687 2.848 . S
N624 C616 1.362 . S
N624 Eu623 2.657 . S
N624 C625 1.334 . S
C625 N624 1.334 . S
C625 C627 1.413 . S
C625 H632 0.929 . S
C626 C614 1.392 . S
C626 C627 1.367 . S
C626 H634 0.930 . S
C627 C625 1.413 . S
C627 C626 1.367 . S
C627 H629 0.930 . S
H628 C621 0.930 . S
H629 C627 0.930 . S
H630 C618 0.930 . S
H631 C619 0.930 . S
H632 C625 0.929 . S
H633 C647 0.930 . S
H634 C626 0.930 . S
H635 C653 0.930 . S
H636 C644 0.929 . S
H637 C651 0.930 . S
H638 C615 0.931 . S
H639 C645 0.930 . S
H640 C678 0.930 . S
H641 C622 0.930 . S
H642 C677 0.931 . S
N643 Eu612 2.657 . S
N643 C644 1.334 . S
N643 C648 1.362 . S
C644 H636 0.929 . S
C644 N643 1.334 . S
C644 C647 1.413 . S
C645 H639 0.930 . S
C645 C646 1.392 . S
C645 C647 1.367 . S
C646 C645 1.392 . S
C646 C648 1.420 . S
C646 C678 1.423 . S
C647 H633 0.930 . S
C647 C644 1.413 . S
C647 C645 1.367 . S
C648 N643 1.362 . S
C648 C646 1.420 . S
C648 C652 1.429 . S
H649 C654 0.930 . S
N650 Eu612 2.609 . S
N650 C652 1.377 . S
N650 C653 1.321 . S
C651 H637 0.930 . S
C651 C653 1.400 . S
C651 C654 1.386 . S
C652 C648 1.429 . S
C652 N650 1.377 . S
C652 C655 1.411 . S
C653 H635 0.930 . S
C653 N650 1.321 . S
C653 C651 1.400 . S
C654 H649 0.930 . S
C654 C651 1.386 . S
C654 C655 1.395 . S
C655 C652 1.411 . S
C655 C654 1.395 . S
C655 C677 1.420 . S
O656 Eu612 2.558 . S
O656 C676 1.257 . S
O657 Eu612 2.612 . S
O657 Eu623 2.380 . S
O657 C668 1.276 . S
O658 Eu623 2.432 . S
O658 C675 1.264 . S
O659 Eu612 2.339 . S
O659 C675 1.254 . S
O660 Eu612 2.563 . S
O660 C668 1.235 . S
O661 Eu612 2.419 . S
O661 C676 1.249 . S
O662 Eu623 2.558 . S
O662 C687 1.257 . S
O663 Eu612 2.380 . S
O663 Eu623 2.612 . S
O663 C679 1.276 . S
O664 Eu612 2.432 . S
O664 C686 1.264 . S
O665 Eu623 2.339 . S
O665 C686 1.254 . S
O666 Eu623 2.563 . S
O666 C679 1.235 . S
O667 Eu623 2.419 . S
O667 C687 1.249 . S
C668 O657 1.276 . S
C668 O660 1.235 . S
C669 C671 1.393 . S
C669 C673 1.395 . S
C669 C676 1.492 . S
C670 C671 1.392 . S
C670 C672 1.386 . S
C671 C669 1.393 . S
C671 C670 1.392 . S
C671 H688 0.930 . S
C672 C670 1.386 . S
C672 C674 1.395 . S
C672 H689 0.930 . S
C673 C669 1.395 . S
C673 C674 1.379 . S
C673 H690 0.930 . S
C674 C672 1.395 . S
C674 C673 1.379 . S
C674 H691 0.930 . S
C675 O658 1.264 . S
C675 O659 1.254 . S
C676 Eu612 2.848 . S
C676 O656 1.257 . S
C676 O661 1.249 . S
C676 C669 1.492 . S
C677 H642 0.931 . S
C677 C655 1.420 . S
C677 C678 1.351 . S
C678 H640 0.930 . S
C678 C646 1.423 . S
C678 C677 1.351 . S
C679 O663 1.276 . S
C679 O666 1.235 . S
C680 C681 1.393 . S
C680 C684 1.395 . S
C680 C687 1.492 . S
C681 C680 1.393 . S
C681 C682 1.392 . S
C681 H692 0.930 . S
C682 C681 1.392 . S
C682 C683 1.386 . S
C683 C682 1.386 . S
C683 C685 1.395 . S
C683 H693 0.930 . S
C684 C680 1.395 . S
C684 C685 1.379 . S
C684 H694 0.930 . S
C685 C683 1.395 . S
C685 C684 1.379 . S
C685 H695 0.930 . S
C686 O664 1.264 . S
C686 O665 1.254 . S
C687 Eu623 2.848 . S
C687 O662 1.257 . S
C687 O667 1.249 . S
C687 C680 1.492 . S
H688 C671 0.930 . S
H689 C672 0.930 . S
H690 C673 0.930 . S
H691 C674 0.930 . S
H692 C681 0.930 . S
H693 C683 0.930 . S
H694 C684 0.930 . S
H695 C685 0.930 . S
Eu696 N727 2.657 . S
Eu696 N734 2.609 . S
Eu696 O740 2.558 . S
Eu696 O741 2.612 . S
Eu696 O743 2.339 . S
Eu696 O744 2.563 . S
Eu696 O745 2.419 . S
Eu696 O747 2.380 . S
Eu696 O748 2.432 . S
Eu696 C760 2.848 . S
C697 C700 1.429 . S
C697 C701 1.411 . S
C697 N704 1.377 . S
C698 C700 1.420 . S
C698 C702 1.423 . S
C698 C710 1.392 . S
C699 C701 1.420 . S
C699 C702 1.351 . S
C699 H722 0.931 1_556 S
C700 C697 1.429 . S
C700 C698 1.420 . S
C700 N708 1.362 . S
C701 C697 1.411 . S
C701 C699 1.420 . S
C701 C706 1.395 . S
C702 C698 1.423 . S
C702 C699 1.351 . S
C702 H714 0.930 . S
C703 C705 1.400 . S
C703 C706 1.386 . S
C703 H715 0.930 . S
N704 C697 1.377 . S
N704 C705 1.321 . S
N704 Eu707 2.609 . S
C705 C703 1.400 . S
C705 N704 1.321 . S
C705 H712 0.930 . S
C706 C701 1.395 . S
C706 C703 1.386 . S
C706 H725 0.930 1_556 S
Eu707 N704 2.609 . S
Eu707 N708 2.657 . S
Eu707 O741 2.380 . S
Eu707 O742 2.432 . S
Eu707 O746 2.558 . S
Eu707 O747 2.612 . S
Eu707 O749 2.339 . S
Eu707 O750 2.563 . S
Eu707 O751 2.419 . S
Eu707 C771 2.848 . S
N708 C700 1.362 . S
N708 Eu707 2.657 . S
N708 C709 1.334 . S
C709 N708 1.334 . S
C709 C711 1.413 . S
C709 H716 0.929 . S
C710 C698 1.392 . S
C710 C711 1.367 . S
C710 H718 0.930 . S
C711 C709 1.413 . S
C711 C710 1.367 . S
C711 H713 0.930 . S
H712 C705 0.930 . S
H713 C711 0.930 . S
H714 C702 0.930 . S
H715 C703 0.930 . S
H716 C709 0.929 . S
H717 C731 0.930 . S
H718 C710 0.930 . S
H719 C737 0.930 . S
H720 C728 0.929 . S
H721 C735 0.930 . S
H722 C699 0.931 1_554 S
H723 C729 0.930 . S
H724 C762 0.930 . S
H725 C706 0.930 1_554 S
H726 C761 0.931 . S
N727 Eu696 2.657 . S
N727 C728 1.334 . S
N727 C732 1.362 . S
C728 H720 0.929 . S
C728 N727 1.334 . S
C728 C731 1.413 . S
C729 H723 0.930 . S
C729 C730 1.392 . S
C729 C731 1.367 . S
C730 C729 1.392 . S
C730 C732 1.420 . S
C730 C762 1.423 . S
C731 H717 0.930 . S
C731 C728 1.413 . S
C731 C729 1.367 . S
C732 N727 1.362 . S
C732 C730 1.420 . S
C732 C736 1.429 . S
H733 C738 0.930 . S
N734 Eu696 2.609 . S
N734 C736 1.377 . S
N734 C737 1.321 . S
C735 H721 0.930 . S
C735 C737 1.400 . S
C735 C738 1.386 . S
C736 C732 1.429 . S
C736 N734 1.377 . S
C736 C739 1.411 . S
C737 H719 0.930 . S
C737 N734 1.321 . S
C737 C735 1.400 . S
C738 H733 0.930 . S
C738 C735 1.386 . S
C738 C739 1.395 . S
C739 C736 1.411 . S
C739 C738 1.395 . S
C739 C761 1.420 . S
O740 Eu696 2.558 . S
O740 C760 1.257 . S
O741 Eu696 2.612 . S
O741 Eu707 2.380 . S
O741 C752 1.276 . S
O742 Eu707 2.432 . S
O742 C759 1.264 . S
O743 Eu696 2.339 . S
O743 C759 1.254 . S
O744 Eu696 2.563 . S
O744 C752 1.235 . S
O745 Eu696 2.419 . S
O745 C760 1.249 . S
O746 Eu707 2.558 . S
O746 C771 1.257 . S
O747 Eu696 2.380 . S
O747 Eu707 2.612 . S
O747 C763 1.276 . S
O748 Eu696 2.432 . S
O748 C770 1.264 . S
O749 Eu707 2.339 . S
O749 C770 1.254 . S
O750 Eu707 2.563 . S
O750 C763 1.235 . S
O751 Eu707 2.419 . S
O751 C771 1.249 . S
C752 O741 1.276 . S
C752 O744 1.235 . S
C753 C755 1.393 . S
C753 C757 1.395 . S
C753 C760 1.492 . S
C754 C755 1.392 . S
C754 C756 1.386 . S
C755 C753 1.393 . S
C755 C754 1.392 . S
C755 H772 0.930 . S
C756 C754 1.386 . S
C756 C758 1.395 . S
C756 H773 0.930 . S
C757 C753 1.395 . S
C757 C758 1.379 . S
C757 H774 0.930 . S
C758 C756 1.395 . S
C758 C757 1.379 . S
C758 H775 0.930 . S
C759 O742 1.264 . S
C759 O743 1.254 . S
C760 Eu696 2.848 . S
C760 O740 1.257 . S
C760 O745 1.249 . S
C760 C753 1.492 . S
C761 H726 0.931 . S
C761 C739 1.420 . S
C761 C762 1.351 . S
C762 H724 0.930 . S
C762 C730 1.423 . S
C762 C761 1.351 . S
C763 O747 1.276 . S
C763 O750 1.235 . S
C764 C765 1.393 . S
C764 C768 1.395 . S
C764 C771 1.492 . S
C765 C764 1.393 . S
C765 C766 1.392 . S
C765 H776 0.930 . S
C766 C765 1.392 . S
C766 C767 1.386 . S
C767 C766 1.386 . S
C767 C769 1.395 . S
C767 H777 0.930 . S
C768 C764 1.395 . S
C768 C769 1.379 . S
C768 H778 0.930 . S
C769 C767 1.395 . S
C769 C768 1.379 . S
C769 H779 0.930 . S
C770 O748 1.264 . S
C770 O749 1.254 . S
C771 Eu707 2.848 . S
C771 O746 1.257 . S
C771 O751 1.249 . S
C771 C764 1.492 . S
H772 C755 0.930 . S
H773 C756 0.930 . S
H774 C757 0.930 . S
H775 C758 0.930 . S
H776 C765 0.930 . S
H777 C767 0.930 . S
H778 C768 0.930 . S
H779 C769 0.930 . S
Eu780 N811 2.657 . S
Eu780 N818 2.609 . S
Eu780 O824 2.558 . S
Eu780 O825 2.612 . S
Eu780 O827 2.339 . S
Eu780 O828 2.563 . S
Eu780 O829 2.419 . S
Eu780 O831 2.380 . S
Eu780 O832 2.432 . S
Eu780 C844 2.848 . S
C781 C784 1.429 . S
C781 C785 1.411 . S
C781 N788 1.377 . S
C782 C784 1.420 . S
C782 C786 1.423 . S
C782 C794 1.392 . S
C783 C785 1.420 . S
C783 C786 1.351 . S
C783 H806 0.931 . S
C784 C781 1.429 . S
C784 C782 1.420 . S
C784 N792 1.362 . S
C785 C781 1.411 . S
C785 C783 1.420 . S
C785 C790 1.395 . S
C786 C782 1.423 . S
C786 C783 1.351 . S
C786 H798 0.930 . S
C787 C789 1.400 . S
C787 C790 1.386 . S
C787 H799 0.930 . S
N788 C781 1.377 . S
N788 C789 1.321 . S
N788 Eu791 2.609 . S
C789 C787 1.400 . S
C789 N788 1.321 . S
C789 H796 0.930 . S
C790 C785 1.395 . S
C790 C787 1.386 . S
C790 H809 0.930 . S
Eu791 N788 2.609 . S
Eu791 N792 2.657 . S
Eu791 O825 2.380 . S
Eu791 O826 2.432 . S
Eu791 O830 2.558 . S
Eu791 O831 2.612 . S
Eu791 O833 2.339 . S
Eu791 O834 2.563 . S
Eu791 O835 2.419 . S
Eu791 C855 2.848 . S
N792 C784 1.362 . S
N792 Eu791 2.657 . S
N792 C793 1.334 . S
C793 N792 1.334 . S
C793 C795 1.413 . S
C793 H800 0.929 . S
C794 C782 1.392 . S
C794 C795 1.367 . S
C794 H802 0.930 . S
C795 C793 1.413 . S
C795 C794 1.367 . S
C795 H797 0.930 . S
H796 C789 0.930 . S
H797 C795 0.930 . S
H798 C786 0.930 . S
H799 C787 0.930 . S
H800 C793 0.929 . S
H801 C815 0.930 . S
H802 C794 0.930 . S
H803 C821 0.930 . S
H804 C812 0.929 . S
H805 C819 0.930 . S
H806 C783 0.931 . S
H807 C813 0.930 . S
H808 C846 0.930 . S
H809 C790 0.930 . S
H810 C845 0.931 . S
N811 Eu780 2.657 . S
N811 C812 1.334 . S
N811 C816 1.362 . S
C812 H804 0.929 . S
C812 N811 1.334 . S
C812 C815 1.413 . S
C813 H807 0.930 . S
C813 C814 1.392 . S
C813 C815 1.367 . S
C814 C813 1.392 . S
C814 C816 1.420 . S
C814 C846 1.423 . S
C815 H801 0.930 . S
C815 C812 1.413 . S
C815 C813 1.367 . S
C816 N811 1.362 . S
C816 C814 1.420 . S
C816 C820 1.429 . S
H817 C822 0.930 . S
N818 Eu780 2.609 . S
N818 C820 1.377 . S
N818 C821 1.321 . S
C819 H805 0.930 . S
C819 C821 1.400 . S
C819 C822 1.386 . S
C820 C816 1.429 . S
C820 N818 1.377 . S
C820 C823 1.411 . S
C821 H803 0.930 . S
C821 N818 1.321 . S
C821 C819 1.400 . S
C822 H817 0.930 . S
C822 C819 1.386 . S
C822 C823 1.395 . S
C823 C820 1.411 . S
C823 C822 1.395 . S
C823 C845 1.420 . S
O824 Eu780 2.558 . S
O824 C844 1.257 . S
O825 Eu780 2.612 . S
O825 Eu791 2.380 . S
O825 C836 1.276 . S
O826 Eu791 2.432 . S
O826 C843 1.264 . S
O827 Eu780 2.339 . S
O827 C843 1.254 . S
O828 Eu780 2.563 . S
O828 C836 1.235 . S
O829 Eu780 2.419 . S
O829 C844 1.249 . S
O830 Eu791 2.558 . S
O830 C855 1.257 . S
O831 Eu780 2.380 . S
O831 Eu791 2.612 . S
O831 C847 1.276 . S
O832 Eu780 2.432 . S
O832 C854 1.264 . S
O833 Eu791 2.339 . S
O833 C854 1.254 . S
O834 Eu791 2.563 . S
O834 C847 1.235 . S
O835 Eu791 2.419 . S
O835 C855 1.249 . S
C836 O825 1.276 . S
C836 O828 1.235 . S
C837 C839 1.393 . S
C837 C841 1.395 . S
C837 C844 1.492 . S
C838 C839 1.392 . S
C838 C840 1.386 . S
C839 C837 1.393 . S
C839 C838 1.392 . S
C839 H856 0.930 . S
C840 C838 1.386 . S
C840 C842 1.395 . S
C840 H857 0.930 . S
C841 C837 1.395 . S
C841 C842 1.379 . S
C841 H858 0.930 . S
C842 C840 1.395 . S
C842 C841 1.379 . S
C842 H859 0.930 . S
C843 O826 1.264 . S
C843 O827 1.254 . S
C844 Eu780 2.848 . S
C844 O824 1.257 . S
C844 O829 1.249 . S
C844 C837 1.492 . S
C845 H810 0.931 . S
C845 C823 1.420 . S
C845 C846 1.351 . S
C846 H808 0.930 . S
C846 C814 1.423 . S
C846 C845 1.351 . S
C847 O831 1.276 . S
C847 O834 1.235 . S
C848 C849 1.393 . S
C848 C852 1.395 . S
C848 C855 1.492 . S
C849 C848 1.393 . S
C849 C850 1.392 . S
C849 H860 0.930 . S
C850 C849 1.392 . S
C850 C851 1.386 . S
C851 C850 1.386 . S
C851 C853 1.395 . S
C851 H861 0.930 . S
C852 C848 1.395 . S
C852 C853 1.379 . S
C852 H862 0.930 . S
C853 C851 1.395 . S
C853 C852 1.379 . S
C853 H863 0.930 . S
C854 O832 1.264 . S
C854 O833 1.254 . S
C855 Eu791 2.848 . S
C855 O830 1.257 . S
C855 O835 1.249 . S
C855 C848 1.492 . S
H856 C839 0.930 . S
H857 C840 0.930 . S
H858 C841 0.930 . S
H859 C842 0.930 . S
H860 C849 0.930 . S
H861 C851 0.930 . S
H862 C852 0.930 . S
H863 C853 0.930 . S
Eu864 N895 2.657 . S
Eu864 N902 2.609 . S
Eu864 O908 2.558 . S
Eu864 O909 2.612 . S
Eu864 O911 2.339 . S
Eu864 O912 2.563 . S
Eu864 O913 2.419 . S
Eu864 O915 2.380 . S
Eu864 O916 2.432 . S
Eu864 C928 2.848 . S
C865 C868 1.429 . S
C865 C869 1.411 . S
C865 N872 1.377 . S
C866 C868 1.420 . S
C866 C870 1.423 . S
C866 C878 1.392 . S
C867 C869 1.420 . S
C867 C870 1.351 . S
C867 H890 0.931 . S
C868 C865 1.429 . S
C868 C866 1.420 . S
C868 N876 1.362 . S
C869 C865 1.411 . S
C869 C867 1.420 . S
C869 C874 1.395 . S
C870 C866 1.423 . S
C870 C867 1.351 . S
C870 H882 0.930 . S
C871 C873 1.400 . S
C871 C874 1.386 . S
C871 H883 0.930 . S
N872 C865 1.377 . S
N872 C873 1.321 . S
N872 Eu875 2.609 . S
C873 C871 1.400 . S
C873 N872 1.321 . S
C873 H880 0.930 . S
C874 C869 1.395 . S
C874 C871 1.386 . S
C874 H893 0.930 . S
Eu875 N872 2.609 . S
Eu875 N876 2.657 . S
Eu875 O909 2.380 . S
Eu875 O910 2.432 . S
Eu875 O914 2.558 . S
Eu875 O915 2.612 . S
Eu875 O917 2.339 . S
Eu875 O918 2.563 . S
Eu875 O919 2.419 . S
Eu875 C939 2.848 . S
N876 C868 1.362 . S
N876 Eu875 2.657 . S
N876 C877 1.334 . S
C877 N876 1.334 . S
C877 C879 1.413 . S
C877 H884 0.929 . S
C878 C866 1.392 . S
C878 C879 1.367 . S
C878 H886 0.930 . S
C879 C877 1.413 . S
C879 C878 1.367 . S
C879 H881 0.930 . S
H880 C873 0.930 . S
H881 C879 0.930 . S
H882 C870 0.930 . S
H883 C871 0.930 . S
H884 C877 0.929 . S
H885 C899 0.930 . S
H886 C878 0.930 . S
H887 C905 0.930 . S
H888 C896 0.929 . S
H889 C903 0.930 . S
H890 C867 0.931 . S
H891 C897 0.930 . S
H892 C930 0.930 . S
H893 C874 0.930 . S
H894 C929 0.931 . S
N895 Eu864 2.657 . S
N895 C896 1.334 . S
N895 C900 1.362 . S
C896 H888 0.929 . S
C896 N895 1.334 . S
C896 C899 1.413 . S
C897 H891 0.930 . S
C897 C898 1.392 . S
C897 C899 1.367 . S
C898 C897 1.392 . S
C898 C900 1.420 . S
C898 C930 1.423 . S
C899 H885 0.930 . S
C899 C896 1.413 . S
C899 C897 1.367 . S
C900 N895 1.362 . S
C900 C898 1.420 . S
C900 C904 1.429 . S
H901 C906 0.930 . S
N902 Eu864 2.609 . S
N902 C904 1.377 . S
N902 C905 1.321 . S
C903 H889 0.930 . S
C903 C905 1.400 . S
C903 C906 1.386 . S
C904 C900 1.429 . S
C904 N902 1.377 . S
C904 C907 1.411 . S
C905 H887 0.930 . S
C905 N902 1.321 . S
C905 C903 1.400 . S
C906 H901 0.930 . S
C906 C903 1.386 . S
C906 C907 1.395 . S
C907 C904 1.411 . S
C907 C906 1.395 . S
C907 C929 1.420 . S
O908 Eu864 2.558 . S
O908 C928 1.257 . S
O909 Eu864 2.612 . S
O909 Eu875 2.380 . S
O909 C920 1.276 . S
O910 Eu875 2.432 . S
O910 C927 1.264 . S
O911 Eu864 2.339 . S
O911 C927 1.254 . S
O912 Eu864 2.563 . S
O912 C920 1.235 . S
O913 Eu864 2.419 . S
O913 C928 1.249 . S
O914 Eu875 2.558 . S
O914 C939 1.257 . S
O915 Eu864 2.380 . S
O915 Eu875 2.612 . S
O915 C931 1.276 . S
O916 Eu864 2.432 . S
O916 C938 1.264 . S
O917 Eu875 2.339 . S
O917 C938 1.254 . S
O918 Eu875 2.563 . S
O918 C931 1.235 . S
O919 Eu875 2.419 . S
O919 C939 1.249 . S
C920 O909 1.276 . S
C920 O912 1.235 . S
C921 C923 1.393 . S
C921 C925 1.395 . S
C921 C928 1.492 . S
C922 C923 1.392 . S
C922 C924 1.386 . S
C923 C921 1.393 . S
C923 C922 1.392 . S
C923 H940 0.930 . S
C924 C922 1.386 . S
C924 C926 1.395 . S
C924 H941 0.930 . S
C925 C921 1.395 . S
C925 C926 1.379 . S
C925 H942 0.930 . S
C926 C924 1.395 . S
C926 C925 1.379 . S
C926 H943 0.930 . S
C927 O910 1.264 . S
C927 O911 1.254 . S
C928 Eu864 2.848 . S
C928 O908 1.257 . S
C928 O913 1.249 . S
C928 C921 1.492 . S
C929 H894 0.931 . S
C929 C907 1.420 . S
C929 C930 1.351 . S
C930 H892 0.930 . S
C930 C898 1.423 . S
C930 C929 1.351 . S
C931 O915 1.276 . S
C931 O918 1.235 . S
C932 C933 1.393 . S
C932 C936 1.395 . S
C932 C939 1.492 . S
C933 C932 1.393 . S
C933 C934 1.392 . S
C933 H944 0.930 . S
C934 C933 1.392 . S
C934 C935 1.386 . S
C935 C934 1.386 . S
C935 C937 1.395 . S
C935 H945 0.930 . S
C936 C932 1.395 . S
C936 C937 1.379 . S
C936 H946 0.930 . S
C937 C935 1.395 . S
C937 C936 1.379 . S
C937 H947 0.930 . S
C938 O916 1.264 . S
C938 O917 1.254 . S
C939 Eu875 2.848 . S
C939 O914 1.257 . S
C939 O919 1.249 . S
C939 C932 1.492 . S
H940 C923 0.930 . S
H941 C924 0.930 . S
H942 C925 0.930 . S
H943 C926 0.930 . S
H944 C933 0.930 . S
H945 C935 0.930 . S
H946 C936 0.930 . S
H947 C937 0.930 . S
H948 C954 0.930 . S
H949 C957 0.930 . S
H950 C958 0.930 . S
H951 C959 0.930 . S
H952 C962 0.930 . S
H953 C963 0.930 . S
C954 H948 0.930 . S
C954 C955 1.355 . S
C954 C956 1.415 . S
C955 C954 1.355 . S
C955 C957 1.419 . S
C956 C954 1.415 . S
C956 C961 1.425 . S
C956 C963 1.409 . S
C957 H949 0.930 . S
C957 C955 1.419 . S
C957 C958 1.362 . S
C958 H950 0.930 . S
C958 C957 1.362 . S
C958 C961 1.409 . S
C959 H951 0.930 . S
C959 C960 1.355 . S
C959 C961 1.415 . S
C960 C959 1.355 . S
C960 C962 1.419 . S
C961 C956 1.425 . S
C961 C958 1.409 . S
C961 C959 1.415 . S
C962 H952 0.930 . S
C962 C960 1.419 . S
C962 C963 1.362 . S
C963 H953 0.930 . S
C963 C956 1.409 . S
C963 C962 1.362 . S
H964 C970 0.930 . S
H965 C973 0.930 . S
H966 C974 0.930 . S
H967 C975 0.930 . S
H968 C978 0.930 . S
H969 C979 0.930 . S
C970 H964 0.930 . S
C970 C971 1.355 . S
C970 C972 1.415 . S
C971 C970 1.355 . S
C971 C973 1.419 . S
C972 C970 1.415 . S
C972 C977 1.425 . S
C972 C979 1.409 . S
C973 H965 0.930 . S
C973 C971 1.419 . S
C973 C974 1.362 . S
C974 H966 0.930 . S
C974 C973 1.362 . S
C974 C977 1.409 . S
C975 H967 0.930 . S
C975 C976 1.355 . S
C975 C977 1.415 . S
C976 C975 1.355 . S
C976 C978 1.419 . S
C977 C972 1.425 . S
C977 C974 1.409 . S
C977 C975 1.415 . S
C978 H968 0.930 . S
C978 C976 1.419 . S
C978 C979 1.362 . S
C979 H969 0.930 . S
C979 C972 1.409 . S
C979 C978 1.362 . S
H980 C986 0.930 . S
H981 C989 0.930 . S
H982 C990 0.930 . S
H983 C991 0.930 . S
H984 C994 0.930 . S
H985 C995 0.930 . S
C986 H980 0.930 . S
C986 C987 1.355 . S
C986 C988 1.415 . S
C987 C986 1.355 . S
C987 C989 1.419 . S
C988 C986 1.415 . S
C988 C993 1.425 . S
C988 C995 1.409 . S
C989 H981 0.930 . S
C989 C987 1.419 . S
C989 C990 1.362 . S
C990 H982 0.930 . S
C990 C989 1.362 . S
C990 C993 1.409 . S
C991 H983 0.930 . S
C991 C992 1.355 . S
C991 C993 1.415 . S
C992 C991 1.355 . S
C992 C994 1.419 . S
C993 C988 1.425 . S
C993 C990 1.409 . S
C993 C991 1.415 . S
C994 H984 0.930 . S
C994 C992 1.419 . S
C994 C995 1.362 . S
C995 H985 0.930 . S
C995 C988 1.409 . S
C995 C994 1.362 . S
H996 C1002 0.930 . S
H997 C1005 0.935 . S
H998 C1006 0.930 . S
H999 C1007 0.930 . S
H1000 C1010 0.930 . S
H1001 C1011 0.930 . S
C1002 H996 0.930 . S
C1002 C1003 1.355 . S
C1002 C1004 1.415 . S
C1003 C1002 1.355 . S
C1003 C1005 1.419 . S
C1004 C1002 1.415 . S
C1004 C1009 1.425 . S
C1004 C1011 1.409 . S
C1005 H997 0.935 . S
C1005 C1003 1.419 . S
C1005 C1006 1.362 . S
C1006 H998 0.930 . S
C1006 C1005 1.362 . S
C1006 C1009 1.409 . S
C1007 H999 0.930 . S
C1007 C1008 1.355 . S
C1007 C1009 1.415 . S
C1008 C1007 1.355 . S
C1008 C1010 1.419 . S
C1009 C1004 1.425 . S
C1009 C1006 1.409 . S
C1009 C1007 1.415 . S
C1010 H1000 0.930 . S
C1010 C1008 1.419 . S
C1010 C1011 1.362 . S
C1011 H1001 0.930 . S
C1011 C1004 1.409 . S
C1011 C1010 1.362 . S
H1012 C1018 0.930 . S
H1013 C1021 0.930 . S
H1014 C1022 0.930 . S
H1015 C1023 0.930 . S
H1016 C1026 0.930 . S
H1017 C1027 0.930 . S
C1018 H1012 0.930 . S
C1018 C1019 1.355 . S
C1018 C1020 1.415 . S
C1019 C1018 1.355 . S
C1019 C1021 1.419 . S
C1020 C1018 1.415 . S
C1020 C1025 1.425 . S
C1020 C1027 1.409 . S
C1021 H1013 0.930 . S
C1021 C1019 1.419 . S
C1021 C1022 1.362 . S
C1022 H1014 0.930 . S
C1022 C1021 1.362 . S
C1022 C1025 1.409 . S
C1023 H1015 0.930 . S
C1023 C1024 1.355 . S
C1023 C1025 1.415 . S
C1024 C1023 1.355 . S
C1024 C1026 1.419 . S
C1025 C1020 1.425 . S
C1025 C1022 1.409 . S
C1025 C1023 1.415 . S
C1026 H1016 0.930 . S
C1026 C1024 1.419 . S
C1026 C1027 1.362 . S
C1027 H1017 0.930 . S
C1027 C1020 1.409 . S
C1027 C1026 1.362 . S
H1028 C1034 0.930 . S
H1029 C1037 0.930 . S
H1030 C1038 0.930 . S
H1031 C1039 0.930 . S
H1032 C1042 0.930 . S
H1033 C1043 0.930 . S
C1034 H1028 0.930 . S
C1034 C1035 1.355 . S
C1034 C1036 1.415 . S
C1035 C1034 1.355 . S
C1035 C1037 1.419 . S
C1036 C1034 1.415 . S
C1036 C1041 1.425 . S
C1036 C1043 1.409 . S
C1037 H1029 0.930 . S
C1037 C1035 1.419 . S
C1037 C1038 1.362 . S
C1038 H1030 0.930 . S
C1038 C1037 1.362 . S
C1038 C1041 1.409 . S
C1039 H1031 0.930 . S
C1039 C1040 1.355 . S
C1039 C1041 1.415 . S
C1040 C1039 1.355 . S
C1040 C1042 1.419 . S
C1041 C1036 1.425 . S
C1041 C1038 1.409 . S
C1041 C1039 1.415 . S
C1042 H1032 0.930 . S
C1042 C1040 1.419 . S
C1042 C1043 1.362 . S
C1043 H1033 0.930 . S
C1043 C1036 1.409 . S
C1043 C1042 1.362 . S
H1044 C1050 0.930 . S
H1045 C1053 0.930 . S
H1046 C1054 0.930 . S
H1047 C1055 0.930 . S
H1048 C1058 0.930 . S
H1049 C1059 0.930 . S
C1050 H1044 0.930 . S
C1050 C1051 1.355 . S
C1050 C1052 1.415 . S
C1051 C1050 1.355 . S
C1051 C1053 1.419 . S
C1052 C1050 1.415 . S
C1052 C1057 1.425 . S
C1052 C1059 1.409 . S
C1053 H1045 0.930 . S
C1053 C1051 1.419 . S
C1053 C1054 1.362 . S
C1054 H1046 0.930 . S
C1054 C1053 1.362 . S
C1054 C1057 1.409 . S
C1055 H1047 0.930 . S
C1055 C1056 1.355 . S
C1055 C1057 1.415 . S
C1056 C1055 1.355 . S
C1056 C1058 1.419 . S
C1057 C1052 1.425 . S
C1057 C1054 1.409 . S
C1057 C1055 1.415 . S
C1058 H1048 0.930 . S
C1058 C1056 1.419 . S
C1058 C1059 1.362 . S
C1059 H1049 0.930 . S
C1059 C1052 1.409 . S
C1059 C1058 1.362 . S
H1060 C1066 0.930 . S
H1061 C1069 0.930 . S
H1062 C1070 0.930 1_545 S
H1063 C1071 0.930 . S
H1064 C1074 0.930 . S
H1065 C1075 0.930 . S
C1066 H1060 0.930 . S
C1066 C1067 1.355 . S
C1066 C1068 1.415 . S
C1067 C1066 1.355 . S
C1067 C1069 1.419 1_565 S
C1068 C1066 1.415 . S
C1068 C1073 1.425 . S
C1068 C1075 1.409 . S
C1069 H1061 0.930 . S
C1069 C1067 1.419 1_545 S
C1069 C1070 1.362 1_545 S
C1070 H1062 0.930 1_565 S
C1070 C1069 1.362 1_565 S
C1070 C1073 1.409 . S
C1071 H1063 0.930 . S
C1071 C1072 1.355 . S
C1071 C1073 1.415 . S
C1072 C1071 1.355 . S
C1072 C1074 1.419 . S
C1073 C1068 1.425 . S
C1073 C1070 1.409 . S
C1073 C1071 1.415 . S
C1074 H1064 0.930 . S
C1074 C1072 1.419 . S
C1074 C1075 1.362 . S
C1075 H1065 0.930 . S
C1075 C1068 1.409 . S
C1075 C1074 1.362 . S
H1076 C1082 0.930 . S
H1077 C1085 0.930 . S
H1078 C1086 0.930 . S
H1079 C1087 0.930 . S
H1080 C1090 0.930 . S
H1081 C1091 0.930 . S
C1082 H1076 0.930 . S
C1082 C1083 1.355 . S
C1082 C1084 1.415 . S
C1083 C1082 1.355 . S
C1083 C1085 1.419 . S
C1084 C1082 1.415 . S
C1084 C1089 1.425 . S
C1084 C1091 1.409 . S
C1085 H1077 0.930 . S
C1085 C1083 1.419 . S
C1085 C1086 1.362 . S
C1086 H1078 0.930 . S
C1086 C1085 1.362 . S
C1086 C1089 1.409 . S
C1087 H1079 0.930 . S
C1087 C1088 1.355 . S
C1087 C1089 1.415 . S
C1088 C1087 1.355 . S
C1088 C1090 1.419 . S
C1089 C1084 1.425 . S
C1089 C1086 1.409 . S
C1089 C1087 1.415 . S
C1090 H1080 0.930 . S
C1090 C1088 1.419 . S
C1090 C1091 1.362 . S
C1091 H1081 0.930 . S
C1091 C1084 1.409 . S
C1091 C1090 1.362 . S
H1092 C1098 0.930 . S
H1093 C1101 0.930 . S
H1094 C1102 0.930 . S
H1095 C1103 0.930 . S
H1096 C1106 0.930 . S
H1097 C1107 0.930 . S
C1098 H1092 0.930 . S
C1098 C1099 1.355 . S
C1098 C1100 1.415 . S
C1099 C1098 1.355 . S
C1099 C1101 1.419 . S
C1100 C1098 1.415 . S
C1100 C1105 1.425 . S
C1100 C1107 1.409 . S
C1101 H1093 0.930 . S
C1101 C1099 1.419 . S
C1101 C1102 1.362 . S
C1102 H1094 0.930 . S
C1102 C1101 1.362 . S
C1102 C1105 1.409 . S
C1103 H1095 0.930 . S
C1103 C1104 1.355 . S
C1103 C1105 1.415 . S
C1104 C1103 1.355 . S
C1104 C1106 1.419 . S
C1105 C1100 1.425 . S
C1105 C1102 1.409 . S
C1105 C1103 1.415 . S
C1106 H1096 0.930 . S
C1106 C1104 1.419 . S
C1106 C1107 1.362 . S
C1107 H1097 0.930 . S
C1107 C1100 1.409 . S
C1107 C1106 1.362 . S
H1108 C1114 0.930 . S
H1109 C1117 0.930 . S
H1110 C1118 0.930 . S
H1111 C1119 0.930 . S
H1112 C1122 0.930 . S
H1113 C1123 0.930 . S
C1114 H1108 0.930 . S
C1114 C1115 1.355 . S
C1114 C1116 1.415 . S
C1115 C1114 1.355 . S
C1115 C1117 1.419 . S
C1116 C1114 1.415 . S
C1116 C1121 1.425 . S
C1116 C1123 1.409 . S
C1117 H1109 0.930 . S
C1117 C1115 1.419 . S
C1117 C1118 1.362 . S
C1118 H1110 0.930 . S
C1118 C1117 1.362 . S
C1118 C1121 1.409 . S
C1119 H1111 0.930 . S
C1119 C1120 1.355 . S
C1119 C1121 1.415 . S
C1120 C1119 1.355 . S
C1120 C1122 1.419 . S
C1121 C1116 1.425 . S
C1121 C1118 1.409 . S
C1121 C1119 1.415 . S
C1122 H1112 0.930 . S
C1122 C1120 1.419 . S
C1122 C1123 1.362 . S
C1123 H1113 0.930 . S
C1123 C1116 1.409 . S
C1123 C1122 1.362 . S
H1124 C1130 0.930 . S
H1125 C1133 0.930 . S
H1126 C1134 0.930 . S
H1127 C1135 0.930 . S
H1128 C1138 0.930 . S
H1129 C1139 0.930 . S
C1130 H1124 0.930 . S
C1130 C1131 1.355 . S
C1130 C1132 1.415 . S
C1131 C1130 1.355 . S
C1131 C1133 1.419 . S
C1132 C1130 1.415 . S
C1132 C1137 1.425 . S
C1132 C1139 1.409 . S
C1133 H1125 0.930 . S
C1133 C1131 1.419 . S
C1133 C1134 1.362 . S
C1134 H1126 0.930 . S
C1134 C1133 1.362 . S
C1134 C1137 1.409 . S
C1135 H1127 0.930 . S
C1135 C1136 1.355 . S
C1135 C1137 1.415 . S
C1136 C1135 1.355 . S
C1136 C1138 1.419 . S
C1137 C1132 1.425 . S
C1137 C1134 1.409 . S
C1137 C1135 1.415 . S
C1138 H1128 0.930 . S
C1138 C1136 1.419 . S
C1138 C1139 1.362 . S
C1139 H1129 0.930 . S
C1139 C1132 1.409 . S
C1139 C1138 1.362 . S
H1140 C1146 0.930 . S
H1141 C1149 0.930 . S
H1142 C1150 0.930 . S
H1143 C1151 0.930 . S
H1144 C1154 0.930 . S
H1145 C1155 0.930 . S
C1146 H1140 0.930 . S
C1146 C1147 1.355 1_565 S
C1146 C1148 1.415 1_554 S
C1147 C1146 1.355 1_545 S
C1147 C1149 1.419 . S
C1148 C1146 1.415 1_556 S
C1148 C1153 1.425 . S
C1148 C1155 1.409 . S
C1149 H1141 0.930 . S
C1149 C1147 1.419 . S
C1149 C1150 1.362 1_554 S
C1150 H1142 0.930 . S
C1150 C1149 1.362 1_556 S
C1150 C1153 1.409 1_545 S
C1151 H1143 0.930 . S
C1151 C1152 1.355 . S
C1151 C1153 1.415 . S
C1152 C1151 1.355 . S
C1152 C1154 1.419 . S
C1153 C1148 1.425 . S
C1153 C1150 1.409 1_565 S
C1153 C1151 1.415 . S
C1154 H1144 0.930 . S
C1154 C1152 1.419 . S
C1154 C1155 1.362 . S
C1155 H1145 0.930 . S
C1155 C1148 1.409 . S
C1155 C1154 1.362 . S
H1156 C1162 0.930 . S
H1157 C1165 0.930 1_554 S
H1158 C1166 0.930 . S
H1159 C1167 0.930 . S
H1160 C1170 0.930 . S
H1161 C1171 0.930 . S
C1162 H1156 0.930 . S
C1162 C1163 1.355 . S
C1162 C1164 1.415 . S
C1163 C1162 1.355 . S
C1163 C1165 1.419 . S
C1164 C1162 1.415 . S
C1164 C1169 1.425 . S
C1164 C1171 1.409 . S
C1165 H1157 0.930 1_556 S
C1165 C1163 1.419 . S
C1165 C1166 1.362 . S
C1166 H1158 0.930 . S
C1166 C1165 1.362 . S
C1166 C1169 1.409 . S
C1167 H1159 0.930 . S
C1167 C1168 1.355 . S
C1167 C1169 1.415 . S
C1168 C1167 1.355 . S
C1168 C1170 1.419 . S
C1169 C1164 1.425 . S
C1169 C1166 1.409 . S
C1169 C1167 1.415 . S
C1170 H1160 0.930 . S
C1170 C1168 1.419 . S
C1170 C1171 1.362 . S
C1171 H1161 0.930 . S
C1171 C1164 1.409 . S
C1171 C1170 1.362 . S
H1172 C1178 0.930 . S
H1173 C1181 0.930 . S
H1174 C1182 0.930 . S
H1175 C1183 0.930 . S
H1176 C1186 0.930 . S
H1177 C1187 0.930 . S
C1178 H1172 0.930 . S
C1178 C1179 1.355 . S
C1178 C1180 1.415 . S
C1179 C1178 1.355 . S
C1179 C1181 1.419 . S
C1180 C1178 1.415 . S
C1180 C1185 1.425 . S
C1180 C1187 1.409 . S
C1181 H1173 0.930 . S
C1181 C1179 1.419 . S
C1181 C1182 1.362 . S
C1182 H1174 0.930 . S
C1182 C1181 1.362 . S
C1182 C1185 1.409 . S
C1183 H1175 0.930 . S
C1183 C1184 1.355 . S
C1183 C1185 1.415 . S
C1184 C1183 1.355 . S
C1184 C1186 1.419 . S
C1185 C1180 1.425 . S
C1185 C1182 1.409 . S
C1185 C1183 1.415 . S
C1186 H1176 0.930 . S
C1186 C1184 1.419 . S
C1186 C1187 1.362 . S
C1187 H1177 0.930 . S
C1187 C1180 1.409 . S
C1187 C1186 1.362 . S
H1188 C1194 0.930 . S
H1189 C1197 0.930 . S
H1190 C1198 0.930 . S
H1191 C1199 0.930 . S
H1192 C1202 0.930 . S
H1193 C1203 0.930 . S
C1194 H1188 0.930 . S
C1194 C1195 1.355 . S
C1194 C1196 1.415 . S
C1195 C1194 1.355 . S
C1195 C1197 1.419 . S
C1196 C1194 1.415 . S
C1196 C1201 1.425 . S
C1196 C1203 1.409 . S
C1197 H1189 0.930 . S
C1197 C1195 1.419 . S
C1197 C1198 1.362 . S
C1198 H1190 0.930 . S
C1198 C1197 1.362 . S
C1198 C1201 1.409 . S
C1199 H1191 0.930 . S
C1199 C1200 1.355 . S
C1199 C1201 1.415 . S
C1200 C1199 1.355 . S
C1200 C1202 1.419 . S
C1201 C1196 1.425 . S
C1201 C1198 1.409 . S
C1201 C1199 1.415 . S
C1202 H1192 0.930 . S
C1202 C1200 1.419 . S
C1202 C1203 1.362 . S
C1203 H1193 0.930 . S
C1203 C1196 1.409 . S
C1203 C1202 1.362 . S
H1204 C1210 0.930 . S
H1205 C1213 0.930 . S
H1206 C1214 0.930 . S
H1207 C1215 0.930 . S
H1208 C1218 0.930 . S
H1209 C1219 0.930 . S
C1210 H1204 0.930 . S
C1210 C1211 1.355 . S
C1210 C1212 1.415 . S
C1211 C1210 1.355 . S
C1211 C1213 1.419 . S
C1212 C1210 1.415 . S
C1212 C1217 1.425 . S
C1212 C1219 1.409 . S
C1213 H1205 0.930 . S
C1213 C1211 1.419 . S
C1213 C1214 1.362 . S
C1214 H1206 0.930 . S
C1214 C1213 1.362 . S
C1214 C1217 1.409 . S
C1215 H1207 0.930 . S
C1215 C1216 1.355 . S
C1215 C1217 1.415 . S
C1216 C1215 1.355 . S
C1216 C1218 1.419 . S
C1217 C1212 1.425 . S
C1217 C1214 1.409 . S
C1217 C1215 1.415 . S
C1218 H1208 0.930 . S
C1218 C1216 1.419 . S
C1218 C1219 1.362 . S
C1219 H1209 0.930 . S
C1219 C1212 1.409 . S
C1219 C1218 1.362 . S
H1220 C1226 0.930 . S
H1221 C1229 0.930 . S
H1222 C1230 0.930 . S
H1223 C1231 0.930 . S
H1224 C1234 0.930 . S
H1225 C1235 0.930 . S
C1226 H1220 0.930 . S
C1226 C1227 1.355 . S
C1226 C1228 1.415 . S
C1227 C1226 1.355 . S
C1227 C1229 1.419 . S
C1228 C1226 1.415 . S
C1228 C1233 1.425 . S
C1228 C1235 1.409 . S
C1229 H1221 0.930 . S
C1229 C1227 1.419 . S
C1229 C1230 1.362 . S
C1230 H1222 0.930 . S
C1230 C1229 1.362 . S
C1230 C1233 1.409 . S
C1231 H1223 0.930 . S
C1231 C1232 1.355 . S
C1231 C1233 1.415 . S
C1232 C1231 1.355 . S
C1232 C1234 1.419 . S
C1233 C1228 1.425 . S
C1233 C1230 1.409 . S
C1233 C1231 1.415 . S
C1234 H1224 0.930 . S
C1234 C1232 1.419 . S
C1234 C1235 1.362 . S
C1235 H1225 0.930 . S
C1235 C1228 1.409 . S
C1235 C1234 1.362 . S
H1236 C1242 0.930 . S
H1237 C1245 0.930 . S
H1238 C1246 0.930 . S
H1239 C1247 0.930 . S
H1240 C1250 0.930 . S
H1241 C1251 0.930 . S
C1242 H1236 0.930 . S
C1242 C1243 1.355 . S
C1242 C1244 1.415 1_554 S
C1243 C1242 1.355 . S
C1243 C1245 1.419 1_554 S
C1244 C1242 1.415 1_556 S
C1244 C1249 1.425 . S
C1244 C1251 1.409 . S
C1245 H1237 0.930 . S
C1245 C1243 1.419 1_556 S
C1245 C1246 1.362 . S
C1246 H1238 0.930 . S
C1246 C1245 1.362 . S
C1246 C1249 1.409 . S
C1247 H1239 0.930 . S
C1247 C1248 1.355 . S
C1247 C1249 1.415 . S
C1248 C1247 1.355 . S
C1248 C1250 1.419 . S
C1249 C1244 1.425 . S
C1249 C1246 1.409 . S
C1249 C1247 1.415 . S
C1250 H1240 0.930 . S
C1250 C1248 1.419 . S
C1250 C1251 1.362 . S
C1251 H1241 0.930 . S
C1251 C1244 1.409 . S
C1251 C1250 1.362 . S
H1252 C1258 0.930 1_455 S
H1253 C1261 0.930 . S
H1254 C1262 0.930 . S
H1255 C1263 0.930 . S
H1256 C1266 0.930 . S
H1257 C1267 0.930 . S
C1258 H1252 0.930 1_655 S
C1258 C1259 1.355 1_655 S
C1258 C1260 1.415 1_554 S
C1259 C1258 1.355 1_455 S
C1259 C1261 1.419 1_455 S
C1260 C1258 1.415 1_556 S
C1260 C1265 1.425 . S
C1260 C1267 1.409 . S
C1261 H1253 0.930 . S
C1261 C1259 1.419 1_655 S
C1261 C1262 1.362 1_554 S
C1262 H1254 0.930 . S
C1262 C1261 1.362 1_556 S
C1262 C1265 1.409 . S
C1263 H1255 0.930 . S
C1263 C1264 1.355 . S
C1263 C1265 1.415 . S
C1264 C1263 1.355 . S
C1264 C1266 1.419 . S
C1265 C1260 1.425 . S
C1265 C1262 1.409 . S
C1265 C1263 1.415 . S
C1266 H1256 0.930 . S
C1266 C1264 1.419 . S
C1266 C1267 1.362 . S
C1267 H1257 0.930 . S
C1267 C1260 1.409 . S
C1267 C1266 1.362 . S
H1268 C1274 0.930 . S
H1269 C1277 0.930 . S
H1270 C1278 0.930 . S
H1271 C1279 0.930 . S
H1272 C1282 0.930 . S
H1273 C1283 0.930 . S
C1274 H1268 0.930 . S
C1274 C1275 1.355 . S
C1274 C1276 1.415 . S
C1275 C1274 1.355 . S
C1275 C1277 1.419 . S
C1276 C1274 1.415 . S
C1276 C1281 1.425 . S
C1276 C1283 1.409 . S
C1277 H1269 0.930 . S
C1277 C1275 1.419 . S
C1277 C1278 1.362 . S
C1278 H1270 0.930 . S
C1278 C1277 1.362 . S
C1278 C1281 1.409 . S
C1279 H1271 0.930 . S
C1279 C1280 1.355 . S
C1279 C1281 1.415 . S
C1280 C1279 1.355 . S
C1280 C1282 1.419 . S
C1281 C1276 1.425 . S
C1281 C1278 1.409 . S
C1281 C1279 1.415 . S
C1282 H1272 0.930 . S
C1282 C1280 1.419 . S
C1282 C1283 1.362 . S
C1283 H1273 0.930 . S
C1283 C1276 1.409 . S
C1283 C1282 1.362 . S
H1284 C1290 0.930 . S
H1285 C1293 0.930 . S
H1286 C1294 0.930 . S
H1287 C1295 0.930 . S
H1288 C1298 0.930 . S
H1289 C1299 0.930 . S
C1290 H1284 0.930 . S
C1290 C1291 1.355 . S
C1290 C1292 1.415 . S
C1291 C1290 1.355 . S
C1291 C1293 1.419 . S
C1292 C1290 1.415 . S
C1292 C1297 1.425 . S
C1292 C1299 1.409 . S
C1293 H1285 0.930 . S
C1293 C1291 1.419 . S
C1293 C1294 1.362 . S
C1294 H1286 0.930 . S
C1294 C1293 1.362 . S
C1294 C1297 1.409 . S
C1295 H1287 0.930 . S
C1295 C1296 1.355 . S
C1295 C1297 1.415 . S
C1296 C1295 1.355 . S
C1296 C1298 1.419 . S
C1297 C1292 1.425 . S
C1297 C1294 1.409 . S
C1297 C1295 1.415 . S
C1298 H1288 0.930 . S
C1298 C1296 1.419 . S
C1298 C1299 1.362 . S
C1299 H1289 0.930 . S
C1299 C1292 1.409 . S
C1299 C1298 1.362 . S
H1300 C1306 0.930 . S
H1301 C1309 0.943 . S
H1302 C1310 0.930 . S
H1303 C1311 0.930 . S
H1304 C1314 0.930 . S
H1305 C1315 0.930 . S
C1306 H1300 0.930 . S
C1306 C1307 1.355 1_565 S
C1306 C1308 1.415 . S
C1307 C1306 1.355 1_545 S
C1307 C1309 1.419 1_545 S
C1308 C1306 1.415 . S
C1308 C1313 1.425 . S
C1308 C1315 1.409 . S
C1309 H1301 0.943 . S
C1309 C1307 1.419 1_565 S
C1309 C1310 1.362 . S
C1310 H1302 0.930 . S
C1310 C1309 1.362 . S
C1310 C1313 1.409 . S
C1311 H1303 0.930 . S
C1311 C1312 1.355 . S
C1311 C1313 1.415 . S
C1312 C1311 1.355 . S
C1312 C1314 1.419 . S
C1313 C1308 1.425 . S
C1313 C1310 1.409 . S
C1313 C1311 1.415 . S
C1314 H1304 0.930 . S
C1314 C1312 1.419 . S
C1314 C1315 1.362 . S
C1315 H1305 0.930 . S
C1315 C1308 1.409 . S
C1315 C1314 1.362 . S
H1316 C1322 0.930 . S
H1317 C1325 0.930 . S
H1318 C1326 0.930 . S
H1319 C1327 0.930 . S
H1320 C1330 0.930 . S
H1321 C1331 0.930 . S
C1322 H1316 0.930 . S
C1322 C1323 1.355 . S
C1322 C1324 1.415 . S
C1323 C1322 1.355 . S
C1323 C1325 1.419 . S
C1324 C1322 1.415 . S
C1324 C1329 1.425 . S
C1324 C1331 1.409 . S
C1325 H1317 0.930 . S
C1325 C1323 1.419 . S
C1325 C1326 1.362 . S
C1326 H1318 0.930 . S
C1326 C1325 1.362 . S
C1326 C1329 1.409 . S
C1327 H1319 0.930 . S
C1327 C1328 1.355 . S
C1327 C1329 1.415 . S
C1328 C1327 1.355 . S
C1328 C1330 1.419 . S
C1329 C1324 1.425 . S
C1329 C1326 1.409 . S
C1329 C1327 1.415 . S
C1330 H1320 0.930 . S
C1330 C1328 1.419 . S
C1330 C1331 1.362 . S
C1331 H1321 0.930 . S
C1331 C1324 1.409 . S
C1331 C1330 1.362 . S
H1332 C1338 0.930 . S
H1333 C1341 0.930 . S
H1334 C1342 0.930 . S
H1335 C1343 0.930 . S
H1336 C1346 0.930 . S
H1337 C1347 0.930 . S
C1338 H1332 0.930 . S
C1338 C1339 1.355 . S
C1338 C1340 1.415 . S
C1339 C1338 1.355 . S
C1339 C1341 1.419 . S
C1340 C1338 1.415 . S
C1340 C1345 1.425 . S
C1340 C1347 1.409 . S
C1341 H1333 0.930 . S
C1341 C1339 1.419 . S
C1341 C1342 1.362 . S
C1342 H1334 0.930 . S
C1342 C1341 1.362 . S
C1342 C1345 1.409 . S
C1343 H1335 0.930 . S
C1343 C1344 1.355 . S
C1343 C1345 1.415 . S
C1344 C1343 1.355 . S
C1344 C1346 1.419 . S
C1345 C1340 1.425 . S
C1345 C1342 1.409 . S
C1345 C1343 1.415 . S
C1346 H1336 0.930 . S
C1346 C1344 1.419 . S
C1346 C1347 1.362 . S
C1347 H1337 0.930 . S
C1347 C1340 1.409 . S
C1347 C1346 1.362 . S
H1348 C1354 0.930 . S
H1349 C1357 0.930 . S
H1350 C1358 0.930 . S
H1351 C1359 0.930 . S
H1352 C1362 0.930 . S
H1353 C1363 0.930 . S
C1354 H1348 0.930 . S
C1354 C1355 1.355 . S
C1354 C1356 1.415 . S
C1355 C1354 1.355 . S
C1355 C1357 1.419 . S
C1356 C1354 1.415 . S
C1356 C1361 1.425 . S
C1356 C1363 1.409 . S
C1357 H1349 0.930 . S
C1357 C1355 1.419 . S
C1357 C1358 1.362 . S
C1358 H1350 0.930 . S
C1358 C1357 1.362 . S
C1358 C1361 1.409 . S
C1359 H1351 0.930 . S
C1359 C1360 1.355 . S
C1359 C1361 1.415 . S
C1360 C1359 1.355 . S
C1360 C1362 1.419 . S
C1361 C1356 1.425 . S
C1361 C1358 1.409 . S
C1361 C1359 1.415 . S
C1362 H1352 0.930 . S
C1362 C1360 1.419 . S
C1362 C1363 1.362 . S
C1363 H1353 0.930 . S
C1363 C1356 1.409 . S
C1363 C1362 1.362 . S
H1364 C1370 0.930 . S
H1365 C1373 0.930 . S
H1366 C1374 0.930 . S
H1367 C1375 0.930 . S
H1368 C1378 0.930 . S
H1369 C1379 0.930 . S
C1370 H1364 0.930 . S
C1370 C1371 1.355 . S
C1370 C1372 1.415 . S
C1371 C1370 1.355 . S
C1371 C1373 1.419 . S
C1372 C1370 1.415 . S
C1372 C1377 1.425 . S
C1372 C1379 1.409 . S
C1373 H1365 0.930 . S
C1373 C1371 1.419 . S
C1373 C1374 1.362 . S
C1374 H1366 0.930 . S
C1374 C1373 1.362 . S
C1374 C1377 1.409 . S
C1375 H1367 0.930 . S
C1375 C1376 1.355 . S
C1375 C1377 1.415 . S
C1376 C1375 1.355 . S
C1376 C1378 1.419 . S
C1377 C1372 1.425 . S
C1377 C1374 1.409 . S
C1377 C1375 1.415 . S
C1378 H1368 0.930 . S
C1378 C1376 1.419 . S
C1378 C1379 1.362 . S
C1379 H1369 0.930 . S
C1379 C1372 1.409 . S
C1379 C1378 1.362 . S
H1380 C1386 0.930 . S
H1381 C1389 0.930 . S
H1382 C1390 0.930 . S
H1383 C1391 0.930 . S
H1384 C1394 0.930 . S
H1385 C1395 0.930 . S
C1386 H1380 0.930 . S
C1386 C1387 1.355 . S
C1386 C1388 1.415 . S
C1387 C1386 1.355 . S
C1387 C1389 1.419 . S
C1388 C1386 1.415 . S
C1388 C1393 1.425 . S
C1388 C1395 1.409 . S
C1389 H1381 0.930 . S
C1389 C1387 1.419 . S
C1389 C1390 1.362 . S
C1390 H1382 0.930 . S
C1390 C1389 1.362 . S
C1390 C1393 1.409 . S
C1391 H1383 0.930 . S
C1391 C1392 1.355 . S
C1391 C1393 1.415 . S
C1392 C1391 1.355 . S
C1392 C1394 1.419 . S
C1393 C1388 1.425 . S
C1393 C1390 1.409 . S
C1393 C1391 1.415 . S
C1394 H1384 0.930 . S
C1394 C1392 1.419 . S
C1394 C1395 1.362 . S
C1395 H1385 0.930 . S
C1395 C1388 1.409 . S
C1395 C1394 1.362 . S
H1396 C1402 0.930 . S
H1397 C1405 0.930 . S
H1398 C1406 0.930 . S
H1399 C1407 0.930 . S
H1400 C1410 0.930 . S
H1401 C1411 0.930 . S
C1402 H1396 0.930 . S
C1402 C1403 1.355 . S
C1402 C1404 1.415 . S
C1403 C1402 1.355 . S
C1403 C1405 1.419 . S
C1404 C1402 1.415 . S
C1404 C1409 1.425 . S
C1404 C1411 1.409 . S
C1405 H1397 0.930 . S
C1405 C1403 1.419 . S
C1405 C1406 1.362 . S
C1406 H1398 0.930 . S
C1406 C1405 1.362 . S
C1406 C1409 1.409 . S
C1407 H1399 0.930 . S
C1407 C1408 1.355 . S
C1407 C1409 1.415 . S
C1408 C1407 1.355 . S
C1408 C1410 1.419 . S
C1409 C1404 1.425 . S
C1409 C1406 1.409 . S
C1409 C1407 1.415 . S
C1410 H1400 0.930 . S
C1410 C1408 1.419 . S
C1410 C1411 1.362 . S
C1411 H1401 0.930 . S
C1411 C1404 1.409 . S
C1411 C1410 1.362 . S
H1412 C1418 0.930 . S
H1413 C1421 0.930 . S
H1414 C1422 0.930 . S
H1415 C1423 0.930 . S
H1416 C1426 0.930 . S
H1417 C1427 0.930 . S
C1418 H1412 0.930 . S
C1418 C1419 1.355 . S
C1418 C1420 1.415 . S
C1419 C1418 1.355 . S
C1419 C1421 1.419 . S
C1420 C1418 1.415 . S
C1420 C1425 1.425 . S
C1420 C1427 1.409 . S
C1421 H1413 0.930 . S
C1421 C1419 1.419 . S
C1421 C1422 1.362 . S
C1422 H1414 0.930 . S
C1422 C1421 1.362 . S
C1422 C1425 1.409 . S
C1423 H1415 0.930 . S
C1423 C1424 1.355 . S
C1423 C1425 1.415 . S
C1424 C1423 1.355 . S
C1424 C1426 1.419 . S
C1425 C1420 1.425 . S
C1425 C1422 1.409 . S
C1425 C1423 1.415 . S
C1426 H1416 0.930 . S
C1426 C1424 1.419 . S
C1426 C1427 1.362 . S
C1427 H1417 0.930 . S
C1427 C1420 1.409 . S
C1427 C1426 1.362 . S
H1428 C1434 0.930 . S
H1429 C1437 0.930 . S
H1430 C1438 0.930 . S
H1431 C1439 0.930 . S
H1432 C1442 0.930 . S
H1433 C1443 0.930 . S
C1434 H1428 0.930 . S
C1434 C1435 1.355 . S
C1434 C1436 1.415 . S
C1435 C1434 1.355 . S
C1435 C1437 1.419 . S
C1436 C1434 1.415 . S
C1436 C1441 1.425 . S
C1436 C1443 1.409 . S
C1437 H1429 0.930 . S
C1437 C1435 1.419 . S
C1437 C1438 1.362 . S
C1438 H1430 0.930 . S
C1438 C1437 1.362 . S
C1438 C1441 1.409 . S
C1439 H1431 0.930 . S
C1439 C1440 1.355 . S
C1439 C1441 1.415 . S
C1440 C1439 1.355 . S
C1440 C1442 1.419 . S
C1441 C1436 1.425 . S
C1441 C1438 1.409 . S
C1441 C1439 1.415 . S
C1442 H1432 0.930 . S
C1442 C1440 1.419 . S
C1442 C1443 1.362 . S
C1443 H1433 0.930 . S
C1443 C1436 1.409 . S
C1443 C1442 1.362 . S
H1444 C1450 0.930 . S
H1445 C1453 0.930 . S
H1446 C1454 0.930 . S
H1447 C1455 0.930 . S
H1448 C1458 0.930 . S
H1449 C1459 0.930 . S
C1450 H1444 0.930 . S
C1450 C1451 1.355 . S
C1450 C1452 1.415 . S
C1451 C1450 1.355 . S
C1451 C1453 1.419 . S
C1452 C1450 1.415 . S
C1452 C1457 1.425 . S
C1452 C1459 1.409 . S
C1453 H1445 0.930 . S
C1453 C1451 1.419 . S
C1453 C1454 1.362 . S
C1454 H1446 0.930 . S
C1454 C1453 1.362 . S
C1454 C1457 1.409 . S
C1455 H1447 0.930 . S
C1455 C1456 1.355 . S
C1455 C1457 1.415 . S
C1456 C1455 1.355 . S
C1456 C1458 1.419 . S
C1457 C1452 1.425 . S
C1457 C1454 1.409 . S
C1457 C1455 1.415 . S
C1458 H1448 0.930 . S
C1458 C1456 1.419 . S
C1458 C1459 1.362 . S
C1459 H1449 0.930 . S
C1459 C1452 1.409 . S
C1459 C1458 1.362 . S
H1460 C1466 0.930 . S
H1461 C1469 0.930 . S
H1462 C1470 0.930 . S
H1463 C1471 0.930 . S
H1464 C1474 0.930 . S
H1465 C1475 0.930 . S
C1466 H1460 0.930 . S
C1466 C1467 1.355 . S
C1466 C1468 1.415 . S
C1467 C1466 1.355 . S
C1467 C1469 1.419 . S
C1468 C1466 1.415 . S
C1468 C1473 1.425 . S
C1468 C1475 1.409 . S
C1469 H1461 0.930 . S
C1469 C1467 1.419 . S
C1469 C1470 1.362 . S
C1470 H1462 0.930 . S
C1470 C1469 1.362 . S
C1470 C1473 1.409 . S
C1471 H1463 0.930 . S
C1471 C1472 1.355 . S
C1471 C1473 1.415 . S
C1472 C1471 1.355 . S
C1472 C1474 1.419 . S
C1473 C1468 1.425 . S
C1473 C1470 1.409 . S
C1473 C1471 1.415 . S
C1474 H1464 0.930 . S
C1474 C1472 1.419 . S
C1474 C1475 1.362 . S
C1475 H1465 0.930 . S
C1475 C1468 1.409 . S
C1475 C1474 1.362 . S
H1476 C1482 0.930 . S
H1477 C1485 0.930 . S
H1478 C1486 0.930 . S
H1479 C1487 0.930 . S
H1480 C1490 0.930 . S
H1481 C1491 0.930 . S
C1482 H1476 0.930 . S
C1482 C1483 1.355 . S
C1482 C1484 1.415 . S
C1483 C1482 1.355 . S
C1483 C1485 1.419 . S
C1484 C1482 1.415 . S
C1484 C1489 1.425 . S
C1484 C1491 1.409 . S
C1485 H1477 0.930 . S
C1485 C1483 1.419 . S
C1485 C1486 1.362 . S
C1486 H1478 0.930 . S
C1486 C1485 1.362 . S
C1486 C1489 1.409 . S
C1487 H1479 0.930 . S
C1487 C1488 1.355 . S
C1487 C1489 1.415 . S
C1488 C1487 1.355 . S
C1488 C1490 1.419 . S
C1489 C1484 1.425 . S
C1489 C1486 1.409 . S
C1489 C1487 1.415 . S
C1490 H1480 0.930 . S
C1490 C1488 1.419 . S
C1490 C1491 1.362 . S
C1491 H1481 0.930 . S
C1491 C1484 1.409 . S
C1491 C1490 1.362 . S
H1492 C1498 0.930 . S
H1493 C1501 0.930 . S
H1494 C1502 0.930 . S
H1495 C1503 0.930 . S
H1496 C1506 0.930 . S
H1497 C1507 0.930 . S
C1498 H1492 0.930 . S
C1498 C1499 1.355 . S
C1498 C1500 1.415 . S
C1499 C1498 1.355 . S
C1499 C1501 1.419 . S
C1500 C1498 1.415 . S
C1500 C1505 1.425 . S
C1500 C1507 1.409 . S
C1501 H1493 0.930 . S
C1501 C1499 1.419 . S
C1501 C1502 1.362 . S
C1502 H1494 0.930 . S
C1502 C1501 1.362 . S
C1502 C1505 1.409 . S
C1503 H1495 0.930 . S
C1503 C1504 1.355 . S
C1503 C1505 1.415 . S
C1504 C1503 1.355 . S
C1504 C1506 1.419 . S
C1505 C1500 1.425 . S
C1505 C1502 1.409 . S
C1505 C1503 1.415 . S
C1506 H1496 0.930 . S
C1506 C1504 1.419 . S
C1506 C1507 1.362 . S
C1507 H1497 0.930 . S
C1507 C1500 1.409 . S
C1507 C1506 1.362 . S
H1508 C1514 0.930 . S
H1509 C1517 0.930 . S
H1510 C1518 0.930 . S
H1511 C1519 0.930 . S
H1512 C1522 0.930 . S
H1513 C1523 0.930 . S
C1514 H1508 0.930 . S
C1514 C1515 1.355 . S
C1514 C1516 1.415 . S
C1515 C1514 1.355 . S
C1515 C1517 1.419 . S
C1516 C1514 1.415 . S
C1516 C1521 1.425 . S
C1516 C1523 1.409 . S
C1517 H1509 0.930 . S
C1517 C1515 1.419 . S
C1517 C1518 1.362 . S
C1518 H1510 0.930 . S
C1518 C1517 1.362 . S
C1518 C1521 1.409 . S
C1519 H1511 0.930 . S
C1519 C1520 1.355 . S
C1519 C1521 1.415 . S
C1520 C1519 1.355 . S
C1520 C1522 1.419 . S
C1521 C1516 1.425 . S
C1521 C1518 1.409 . S
C1521 C1519 1.415 . S
C1522 H1512 0.930 . S
C1522 C1520 1.419 . S
C1522 C1523 1.362 . S
C1523 H1513 0.930 . S
C1523 C1516 1.409 . S
C1523 C1522 1.362 . S
H1524 C1530 0.930 . S
H1525 C1533 0.930 . S
H1526 C1534 0.930 . S
H1527 C1535 0.930 . S
H1528 C1538 0.930 . S
H1529 C1539 0.930 . S
C1530 H1524 0.930 . S
C1530 C1531 1.355 . S
C1530 C1532 1.415 . S
C1531 C1530 1.355 . S
C1531 C1533 1.419 . S
C1532 C1530 1.415 . S
C1532 C1537 1.425 . S
C1532 C1539 1.409 . S
C1533 H1525 0.930 . S
C1533 C1531 1.419 . S
C1533 C1534 1.362 . S
C1534 H1526 0.930 . S
C1534 C1533 1.362 . S
C1534 C1537 1.409 . S
C1535 H1527 0.930 . S
C1535 C1536 1.355 . S
C1535 C1537 1.415 . S
C1536 C1535 1.355 . S
C1536 C1538 1.419 . S
C1537 C1532 1.425 . S
C1537 C1534 1.409 . S
C1537 C1535 1.415 . S
C1538 H1528 0.930 . S
C1538 C1536 1.419 . S
C1538 C1539 1.362 . S
C1539 H1529 0.930 . S
C1539 C1532 1.409 . S
C1539 C1538 1.362 . S
H1540 C1546 0.930 . S
H1541 C1549 0.930 . S
H1542 C1550 0.930 . S
H1543 C1551 0.930 . S
H1544 C1554 0.930 . S
H1545 C1555 0.930 . S
C1546 H1540 0.930 . S
C1546 C1547 1.355 . S
C1546 C1548 1.415 . S
C1547 C1546 1.355 . S
C1547 C1549 1.419 . S
C1548 C1546 1.415 . S
C1548 C1553 1.425 . S
C1548 C1555 1.409 . S
C1549 H1541 0.930 . S
C1549 C1547 1.419 . S
C1549 C1550 1.362 . S
C1550 H1542 0.930 . S
C1550 C1549 1.362 . S
C1550 C1553 1.409 . S
C1551 H1543 0.930 . S
C1551 C1552 1.355 . S
C1551 C1553 1.415 . S
C1552 C1551 1.355 . S
C1552 C1554 1.419 . S
C1553 C1548 1.425 . S
C1553 C1550 1.409 . S
C1553 C1551 1.415 . S
C1554 H1544 0.930 . S
C1554 C1552 1.419 . S
C1554 C1555 1.362 . S
C1555 H1545 0.930 . S
C1555 C1548 1.409 . S
C1555 C1554 1.362 . S
H1556 C1562 0.930 . S
H1557 C1565 0.930 . S
H1558 C1566 0.930 . S
H1559 C1567 0.930 . S
H1560 C1570 0.930 . S
H1561 C1571 0.930 . S
C1562 H1556 0.930 . S
C1562 C1563 1.355 . S
C1562 C1564 1.415 . S
C1563 C1562 1.355 . S
C1563 C1565 1.419 . S
C1564 C1562 1.415 . S
C1564 C1569 1.425 . S
C1564 C1571 1.409 . S
C1565 H1557 0.930 . S
C1565 C1563 1.419 . S
C1565 C1566 1.362 . S
C1566 H1558 0.930 . S
C1566 C1565 1.362 . S
C1566 C1569 1.409 . S
C1567 H1559 0.930 . S
C1567 C1568 1.355 . S
C1567 C1569 1.415 . S
C1568 C1567 1.355 . S
C1568 C1570 1.419 . S
C1569 C1564 1.425 . S
C1569 C1566 1.409 . S
C1569 C1567 1.415 . S
C1570 H1560 0.930 . S
C1570 C1568 1.419 . S
C1570 C1571 1.362 . S
C1571 H1561 0.930 . S
C1571 C1564 1.409 . S
C1571 C1570 1.362 . S
H1572 C1578 0.930 . S
H1573 C1581 0.930 . S
H1574 C1582 0.930 . S
H1575 C1583 0.930 . S
H1576 C1586 0.930 . S
H1577 C1587 0.930 . S
C1578 H1572 0.930 . S
C1578 C1579 1.355 . S
C1578 C1580 1.415 . S
C1579 C1578 1.355 . S
C1579 C1581 1.419 . S
C1580 C1578 1.415 . S
C1580 C1585 1.425 . S
C1580 C1587 1.409 . S
C1581 H1573 0.930 . S
C1581 C1579 1.419 . S
C1581 C1582 1.362 . S
C1582 H1574 0.930 . S
C1582 C1581 1.362 . S
C1582 C1585 1.409 . S
C1583 H1575 0.930 . S
C1583 C1584 1.355 . S
C1583 C1585 1.415 . S
C1584 C1583 1.355 . S
C1584 C1586 1.419 . S
C1585 C1580 1.425 . S
C1585 C1582 1.409 . S
C1585 C1583 1.415 . S
C1586 H1576 0.930 . S
C1586 C1584 1.419 . S
C1586 C1587 1.362 . S
C1587 H1577 0.930 . S
C1587 C1580 1.409 . S
C1587 C1586 1.362 . S
H1588 C1594 0.930 . S
H1589 C1597 0.930 . S
H1590 C1598 0.930 . S
H1591 C1599 0.930 . S
H1592 C1602 0.930 . S
H1593 C1603 0.930 . S
C1594 H1588 0.930 . S
C1594 C1595 1.355 . S
C1594 C1596 1.415 . S
C1595 C1594 1.355 . S
C1595 C1597 1.419 . S
C1596 C1594 1.415 . S
C1596 C1601 1.425 . S
C1596 C1603 1.409 . S
C1597 H1589 0.930 . S
C1597 C1595 1.419 . S
C1597 C1598 1.362 . S
C1598 H1590 0.930 . S
C1598 C1597 1.362 . S
C1598 C1601 1.409 . S
C1599 H1591 0.930 . S
C1599 C1600 1.355 . S
C1599 C1601 1.415 . S
C1600 C1599 1.355 . S
C1600 C1602 1.419 . S
C1601 C1596 1.425 . S
C1601 C1598 1.409 . S
C1601 C1599 1.415 . S
C1602 H1592 0.930 . S
C1602 C1600 1.419 . S
C1602 C1603 1.362 . S
C1603 H1593 0.930 . S
C1603 C1596 1.409 . S
C1603 C1602 1.362 . S
H1604 C1610 0.930 . S
H1605 C1613 0.930 . S
H1606 C1614 0.930 . S
H1607 C1615 0.930 . S
H1608 C1618 0.930 . S
H1609 C1619 0.930 . S
C1610 H1604 0.930 . S
C1610 C1611 1.355 . S
C1610 C1612 1.415 . S
C1611 C1610 1.355 . S
C1611 C1613 1.419 . S
C1612 C1610 1.415 . S
C1612 C1617 1.425 . S
C1612 C1619 1.409 . S
C1613 H1605 0.930 . S
C1613 C1611 1.419 . S
C1613 C1614 1.362 . S
C1614 H1606 0.930 . S
C1614 C1613 1.362 . S
C1614 C1617 1.409 . S
C1615 H1607 0.930 . S
C1615 C1616 1.355 . S
C1615 C1617 1.415 . S
C1616 C1615 1.355 . S
C1616 C1618 1.419 . S
C1617 C1612 1.425 . S
C1617 C1614 1.409 . S
C1617 C1615 1.415 . S
C1618 H1608 0.930 . S
C1618 C1616 1.419 . S
C1618 C1619 1.362 . S
C1619 H1609 0.930 . S
C1619 C1612 1.409 . S
C1619 C1618 1.362 . S
H1620 C1626 0.930 . S
H1621 C1629 0.930 . S
H1622 C1630 0.930 . S
H1623 C1631 0.930 . S
H1624 C1634 0.930 . S
H1625 C1635 0.930 . S
C1626 H1620 0.930 . S
C1626 C1627 1.355 . S
C1626 C1628 1.415 . S
C1627 C1626 1.355 . S
C1627 C1629 1.419 . S
C1628 C1626 1.415 . S
C1628 C1633 1.425 . S
C1628 C1635 1.409 . S
C1629 H1621 0.930 . S
C1629 C1627 1.419 . S
C1629 C1630 1.362 . S
C1630 H1622 0.930 . S
C1630 C1629 1.362 . S
C1630 C1633 1.409 . S
C1631 H1623 0.930 . S
C1631 C1632 1.355 . S
C1631 C1633 1.415 . S
C1632 C1631 1.355 . S
C1632 C1634 1.419 . S
C1633 C1628 1.425 . S
C1633 C1630 1.409 . S
C1633 C1631 1.415 . S
C1634 H1624 0.930 . S
C1634 C1632 1.419 . S
C1634 C1635 1.362 . S
C1635 H1625 0.930 . S
C1635 C1628 1.409 . S
C1635 C1634 1.362 . S
H1636 C1642 0.930 . S
H1637 C1645 0.930 . S
H1638 C1646 0.930 . S
H1639 C1647 0.930 . S
H1640 C1650 0.930 . S
H1641 C1651 0.930 . S
C1642 H1636 0.930 . S
C1642 C1643 1.355 . S
C1642 C1644 1.415 . S
C1643 C1642 1.355 . S
C1643 C1645 1.419 . S
C1644 C1642 1.415 . S
C1644 C1649 1.425 . S
C1644 C1651 1.409 . S
C1645 H1637 0.930 . S
C1645 C1643 1.419 . S
C1645 C1646 1.362 . S
C1646 H1638 0.930 . S
C1646 C1645 1.362 . S
C1646 C1649 1.409 . S
C1647 H1639 0.930 . S
C1647 C1648 1.355 . S
C1647 C1649 1.415 . S
C1648 C1647 1.355 . S
C1648 C1650 1.419 . S
C1649 C1644 1.425 . S
C1649 C1646 1.409 . S
C1649 C1647 1.415 . S
C1650 H1640 0.930 . S
C1650 C1648 1.419 . S
C1650 C1651 1.362 . S
C1651 H1641 0.930 . S
C1651 C1644 1.409 . S
C1651 C1650 1.362 . S
H1652 C1658 0.930 . S
H1653 C1661 0.930 . S
H1654 C1662 0.930 . S
H1655 C1663 0.930 . S
H1656 C1666 0.930 . S
H1657 C1667 0.930 . S
C1658 H1652 0.930 . S
C1658 C1659 1.355 . S
C1658 C1660 1.415 . S
C1659 C1658 1.355 . S
C1659 C1661 1.419 . S
C1660 C1658 1.415 . S
C1660 C1665 1.425 . S
C1660 C1667 1.409 . S
C1661 H1653 0.930 . S
C1661 C1659 1.419 . S
C1661 C1662 1.362 . S
C1662 H1654 0.930 . S
C1662 C1661 1.362 . S
C1662 C1665 1.409 . S
C1663 H1655 0.930 . S
C1663 C1664 1.355 . S
C1663 C1665 1.415 . S
C1664 C1663 1.355 . S
C1664 C1666 1.419 . S
C1665 C1660 1.425 . S
C1665 C1662 1.409 . S
C1665 C1663 1.415 . S
C1666 H1656 0.930 . S
C1666 C1664 1.419 . S
C1666 C1667 1.362 . S
C1667 H1657 0.930 . S
C1667 C1660 1.409 . S
C1667 C1666 1.362 . S
H1668 C1674 0.930 . S
H1669 C1677 0.930 . S
H1670 C1678 0.930 . S
H1671 C1679 0.930 . S
H1672 C1682 0.930 . S
H1673 C1683 0.930 . S
C1674 H1668 0.930 . S
C1674 C1675 1.355 . S
C1674 C1676 1.415 . S
C1675 C1674 1.355 . S
C1675 C1677 1.419 . S
C1676 C1674 1.415 . S
C1676 C1681 1.425 . S
C1676 C1683 1.409 . S
C1677 H1669 0.930 . S
C1677 C1675 1.419 . S
C1677 C1678 1.362 . S
C1678 H1670 0.930 . S
C1678 C1677 1.362 . S
C1678 C1681 1.409 . S
C1679 H1671 0.930 . S
C1679 C1680 1.355 . S
C1679 C1681 1.415 . S
C1680 C1679 1.355 . S
C1680 C1682 1.419 . S
C1681 C1676 1.425 . S
C1681 C1678 1.409 . S
C1681 C1679 1.415 . S
C1682 H1672 0.930 . S
C1682 C1680 1.419 . S
C1682 C1683 1.362 . S
C1683 H1673 0.930 . S
C1683 C1676 1.409 . S
C1683 C1682 1.362 . S
H1684 C1690 0.930 . S
H1685 C1693 0.930 . S
H1686 C1694 0.930 . S
H1687 C1695 0.930 . S
H1688 C1698 0.930 . S
H1689 C1699 0.930 . S
C1690 H1684 0.930 . S
C1690 C1691 1.355 . S
C1690 C1692 1.415 . S
C1691 C1690 1.355 . S
C1691 C1693 1.419 . S
C1692 C1690 1.415 . S
C1692 C1697 1.425 . S
C1692 C1699 1.409 . S
C1693 H1685 0.930 . S
C1693 C1691 1.419 . S
C1693 C1694 1.362 . S
C1694 H1686 0.930 . S
C1694 C1693 1.362 . S
C1694 C1697 1.409 . S
C1695 H1687 0.930 . S
C1695 C1696 1.355 . S
C1695 C1697 1.415 . S
C1696 C1695 1.355 . S
C1696 C1698 1.419 . S
C1697 C1692 1.425 . S
C1697 C1694 1.409 . S
C1697 C1695 1.415 . S
C1698 H1688 0.930 . S
C1698 C1696 1.419 . S
C1698 C1699 1.362 . S
C1699 H1689 0.930 . S
C1699 C1692 1.409 . S
C1699 C1698 1.362 . S
H1700 C1706 0.930 . S
H1701 C1709 0.930 . S
H1702 C1710 0.930 . S
H1703 C1711 0.930 . S
H1704 C1714 0.930 . S
H1705 C1715 0.930 . S
C1706 H1700 0.930 . S
C1706 C1707 1.355 . S
C1706 C1708 1.415 . S
C1707 C1706 1.355 . S
C1707 C1709 1.419 . S
C1708 C1706 1.415 . S
C1708 C1713 1.425 . S
C1708 C1715 1.409 . S
C1709 H1701 0.930 . S
C1709 C1707 1.419 . S
C1709 C1710 1.362 . S
C1710 H1702 0.930 . S
C1710 C1709 1.362 . S
C1710 C1713 1.409 . S
C1711 H1703 0.930 . S
C1711 C1712 1.355 . S
C1711 C1713 1.415 . S
C1712 C1711 1.355 . S
C1712 C1714 1.419 . S
C1713 C1708 1.425 . S
C1713 C1710 1.409 . S
C1713 C1711 1.415 . S
C1714 H1704 0.930 . S
C1714 C1712 1.419 . S
C1714 C1715 1.362 . S
C1715 H1705 0.930 . S
C1715 C1708 1.409 . S
C1715 C1714 1.362 . S
C960 C334 1.118 . S
C955 N2 1.312 . S
C976 C434 2.082 . S
C971 C7 2.086 . S
C992 C514 1.147 . S
C987 N12 1.346 . S
C1003 C16 1.888 . S
C1008 C591 1.912 . S
C1024 C675 2.152 . S
C1019 C30 2.161 1_565 S
C1040 C754 1.103 . S
C1035 N35 1.242 . S
C1051 C39 2.017 . S
C1056 C854 1.987 . S
C1072 C934 1.153 . S
C1067 N25 1.209 . S
C1088 C332 1.106 . S
C1083 N58 1.194 . S
C1099 N81 1.912 . S
C1104 C427 1.931 . S
C1120 C518 1.254 . S
C1115 N104 1.193 . S
C1131 N127 1.250 . S
C1136 C586 1.056 . S
C1152 C670 0.700 . S
C1147 N48 0.957 . S
C1168 C752 1.439 . S
C1163 N71 1.435 1_556 S
C1179 N94 1.505 . S
C1184 C847 1.537 . S
C1200 C938 1.527 . S
C1195 N117 1.522 . S
C1211 C85 2.172 . S
C1216 C339 2.169 . S
C1227 C122 2.417 . S
C1232 C668 2.386 . S
C1243 C53 1.852 . S
C1248 C759 1.909 . S
C1264 C850 1.298 . S
C1259 C76 1.513 . S
C1280 C931 1.818 . S
C1275 C99 1.904 . S
C1296 C511 1.960 . S
C1291 C131 1.956 . S
C1312 C584 2.018 . S
C1307 C62 2.062 . S
C1323 C108 1.221 . S
C1328 C430 0.942 . S
C1344 C922 1.200 . S
C1339 N140 1.312 . S
C1355 C145 2.075 . S
C1360 C686 2.069 . S
C1376 C766 1.079 . S
C1371 N150 1.308 . S
C1387 C154 1.854 . S
C1392 C843 1.904 . S
C1408 C423 2.128 . S
C1403 C168 2.136 . S
C1419 N173 1.106 . S
C1424 C502 0.984 . S
C1440 C602 2.018 . S
C1435 C177 2.017 . S
C1456 C346 1.063 . S
C1451 N163 1.140 . S
C1472 C920 1.558 . S
C1467 C200 1.600 . S
C1488 C679 2.196 . S
C1483 N219 2.201 . S
C1499 N242 1.375 . S
C1504 C770 1.522 . S
C1520 C838 1.125 . S
C1515 C269 1.506 . S
C1536 C418 0.997 . S
C1531 C191 1.232 . S
C1547 N209 1.630 . S
C1552 C500 1.710 . S
C1563 N232 1.845 . S
C1568 C595 1.869 . S
C1579 C260 2.023 . S
C1584 C350 2.011 . S
C1595 C223 1.831 . S
C1600 C927 1.838 . S
C1611 N255 2.005 . S
C1616 C416 2.014 . S
C1627 N186 1.425 . S
C1632 C507 1.519 . S
C1648 C598 0.910 . S
C1643 C214 1.181 . S
C1664 C343 1.573 . S
C1659 C237 1.623 . S
C1680 C763 1.590 . S
C1675 N265 1.487 . S
C1696 C836 1.652 . S
C1691 N196 1.650 . S
C1712 C682 0.903 . S
C1707 C246 0.930 . S
