# Generated by pormake.
# Topology zzz, (3,6)-cn, num edge types: 1
# Building blocks:
#     Node 0, Type 0, BuildingBlock: OLANEW_clean_sbu_2, # of connection points: 3
#     Node 1, Type 0, BuildingBlock: OLANEW_clean_sbu_2, # of connection points: 3
#     Node 2, Type 0, BuildingBlock: OLANEW_clean_sbu_2, # of connection points: 3
#     Node 3, Type 0, BuildingBlock: OLANEW_clean_sbu_2, # of connection points: 3
#     Node 4, Type 0, BuildingBlock: OLANEW_clean_sbu_2, # of connection points: 3
#     Node 5, Type 0, BuildingBlock: OLANEW_clean_sbu_2, # of connection points: 3
#     Node 6, Type 0, BuildingBlock: OLANEW_clean_sbu_2, # of connection points: 3
#     Node 7, Type 0, BuildingBlock: OLANEW_clean_sbu_2, # of connection points: 3
#     Node 8, Type 1, BuildingBlock: BETDAH_clean_sbu_0, # of connection points: 6
#     Node 9, Type 1, BuildingBlock: BETDAH_clean_sbu_0, # of connection points: 6
#     Node 10, Type 1, BuildingBlock: BETDAH_clean_sbu_0, # of connection points: 6
#     Node 11, Type 1, BuildingBlock: BETDAH_clean_sbu_0, # of connection points: 6
#     Edge 12, Type (0, 1), BuildingBlock: UVAHIK_clean_linker_0, # of connection points: 2
#     Edge 13, Type (0, 1), BuildingBlock: UVAHIK_clean_linker_0, # of connection points: 2
#     Edge 14, Type (0, 1), BuildingBlock: UVAHIK_clean_linker_0, # of connection points: 2
#     Edge 15, Type (0, 1), BuildingBlock: UVAHIK_clean_linker_0, # of connection points: 2
#     Edge 16, Type (0, 1), BuildingBlock: UVAHIK_clean_linker_0, # of connection points: 2
#     Edge 17, Type (0, 1), BuildingBlock: UVAHIK_clean_linker_0, # of connection points: 2
#     Edge 18, Type (0, 1), BuildingBlock: UVAHIK_clean_linker_0, # of connection points: 2
#     Edge 19, Type (0, 1), BuildingBlock: UVAHIK_clean_linker_0, # of connection points: 2
#     Edge 20, Type (0, 1), BuildingBlock: UVAHIK_clean_linker_0, # of connection points: 2
#     Edge 21, Type (0, 1), BuildingBlock: UVAHIK_clean_linker_0, # of connection points: 2
#     Edge 22, Type (0, 1), BuildingBlock: UVAHIK_clean_linker_0, # of connection points: 2
#     Edge 23, Type (0, 1), BuildingBlock: UVAHIK_clean_linker_0, # of connection points: 2
#     Edge 24, Type (0, 1), BuildingBlock: UVAHIK_clean_linker_0, # of connection points: 2
#     Edge 25, Type (0, 1), BuildingBlock: UVAHIK_clean_linker_0, # of connection points: 2
#     Edge 26, Type (0, 1), BuildingBlock: UVAHIK_clean_linker_0, # of connection points: 2
#     Edge 27, Type (0, 1), BuildingBlock: UVAHIK_clean_linker_0, # of connection points: 2
#     Edge 28, Type (0, 1), BuildingBlock: UVAHIK_clean_linker_0, # of connection points: 2
#     Edge 29, Type (0, 1), BuildingBlock: UVAHIK_clean_linker_0, # of connection points: 2
#     Edge 30, Type (0, 1), BuildingBlock: UVAHIK_clean_linker_0, # of connection points: 2
#     Edge 31, Type (0, 1), BuildingBlock: UVAHIK_clean_linker_0, # of connection points: 2
#     Edge 32, Type (0, 1), BuildingBlock: UVAHIK_clean_linker_0, # of connection points: 2
#     Edge 33, Type (0, 1), BuildingBlock: UVAHIK_clean_linker_0, # of connection points: 2
#     Edge 34, Type (0, 1), BuildingBlock: UVAHIK_clean_linker_0, # of connection points: 2
#     Edge 35, Type (0, 1), BuildingBlock: UVAHIK_clean_linker_0, # of connection points: 2
# Relax obj value: 0.220
# Max RMSD: 0.180
# Mean RMSD: 0.171
data_MOF--net-zzz--node1-OLANEW_clean_sbu_2--node2-BETDAH_clean_sbu_0--edge1-UVAHIK_clean_linker_0
_symmetry_space_group_name_H-M    P1
_symmetry_Int_Tables_number       1
_symmetry_cell_setting            triclinic
loop_
_symmetry_equiv_pos_as_xyz
'x, y, z'
_cell_length_a     71.655662
_cell_length_b     72.02969
_cell_length_c     19.211566
_cell_angle_alpha  90.098034
_cell_angle_beta   89.997532
_cell_angle_gamma 90.035252
loop_
_atom_site_label
_atom_site_type_symbol
_atom_site_fract_x
_atom_site_fract_y
_atom_site_fract_z
_atom_type_partial_charge
O0 O 0.74493 0.52497 0.25094 0.0
Cd1 Cd 0.71461 0.53432 0.29843 0.0
O2 O 0.75036 0.5078 0.34269 0.0
Cd3 Cd 0.76449 0.48687 0.40659 0.0
O4 O 0.76683 0.46162 0.47796 0.0
C5 C 0.77908 0.45847 0.5251 0.0
O6 O 0.76636 0.46113 0.47773 0.0
C7 C 0.75569 0.51409 0.28411 0.0
C8 C 0.68478 0.52743 0.20815 0.0
O9 O 0.69443 0.54237 0.20359 0.0
O10 O 0.68931 0.51564 0.25508 0.0
O11 O 0.95632 0.7318 0.24421 0.0
Cd12 Cd 0.94727 0.70288 0.30076 0.0
O13 O 0.98166 0.73233 0.30802 0.0
Cd14 Cd 0.00752 0.74477 0.34539 0.0
O15 O 0.02055 0.76824 0.39688 0.0
C16 C 0.02758 0.78121 0.3607 0.0
O17 O 0.02899 0.77898 0.293 0.0
C18 C 0.97134 0.73985 0.26212 0.0
C19 C 0.95488 0.6733 0.21247 0.0
O20 O 0.93929 0.68198 0.20932 0.0
O21 O 0.96677 0.67842 0.2585 0.0
O22 O 0.75886 0.96697 0.26898 0.0
Cd23 Cd 0.79001 0.95924 0.31263 0.0
O24 O 0.75676 0.99079 0.33949 0.0
Cd25 Cd 0.74427 0.01477 0.39186 0.0
O26 O 0.74235 0.04294 0.44613 0.0
C27 C 0.73008 0.04817 0.49052 0.0
O28 O 0.74284 0.04343 0.44559 0.0
C29 C 0.74959 0.98071 0.29206 0.0
C30 C 0.81825 0.96532 0.21491 0.0
O31 O 0.80893 0.95013 0.21538 0.0
O32 O 0.81415 0.97772 0.26036 0.0
O33 O 0.53286 0.76837 0.20463 0.0
Cd34 Cd 0.5406 0.79573 0.27383 0.0
O35 O 0.50664 0.76632 0.26255 0.0
Cd36 Cd 0.48398 0.7498 0.30587 0.0
O37 O 0.47988 0.72341 0.35826 0.0
C38 C 0.49391 0.71282 0.35086 0.0
O39 O 0.50829 0.71878 0.31499 0.0
C40 C 0.51774 0.75979 0.21695 0.0
C41 C 0.53731 0.82774 0.195 0.0
O42 O 0.55248 0.81833 0.19523 0.0
O43 O 0.52371 0.82207 0.23282 0.0
O44 O 0.26764 0.51081 0.08034 0.0
Cd45 Cd 0.29949 0.51524 0.03735 0.0
O46 O 0.26112 0.49246 0.99258 0.0
Cd47 Cd 0.2451 0.47186 0.93344 0.0
O48 O 0.24208 0.44505 0.87055 0.0
C49 C 0.22981 0.44088 0.8245 0.0
O50 O 0.24253 0.44458 0.87096 0.0
C51 C 0.25601 0.50058 0.04823 0.0
C52 C 0.32638 0.51014 0.14099 0.0
O53 O 0.31863 0.52598 0.1316 0.0
O54 O 0.32136 0.49667 0.10152 0.0
O55 O 0.98256 0.26802 0.10411 0.0
Cd56 Cd 0.98147 0.29846 0.04942 0.0
O57 O 0.01273 0.26743 0.08593 0.0
Cd58 Cd 0.0387 0.25219 0.07156 0.0
O59 O 0.04448 0.22556 0.02348 0.0
C60 C 0.03084 0.22022 0.98627 0.0
O61 O 0.01628 0.2312 0.9802 0.0
C62 C 0.99803 0.25952 0.10848 0.0
C63 C 0.98727 0.32626 0.14727 0.0
O64 O 0.97089 0.31985 0.1353 0.0
O65 O 0.00097 0.31958 0.11238 0.0
O66 O 0.23863 0.00713 0.1042 0.0
Cd67 Cd 0.20691 0.00394 0.05867 0.0
O68 O 0.24697 0.00968 -0.00433 0.0
Cd69 Cd 0.26203 0.01317 0.89742 0.0
O70 O 0.25492 0.01286 0.78155 0.0
C71 C 0.26545 0.00787 0.73108 0.0
O72 O 0.25423 0.01308 0.78078 0.0
C73 C 0.25158 0.00906 0.05958 0.0
C74 C 0.17934 0.00561 0.16083 0.0
O75 O 0.18743 0.99025 0.14577 0.0
O76 O 0.18443 0.02024 0.128 0.0
O77 O 0.52852 0.22735 0.08708 0.0
Cd78 Cd 0.52496 0.19922 0.01759 0.0
O79 O 0.49858 0.23011 0.06841 0.0
Cd80 Cd 0.47285 0.24603 0.05967 0.0
O81 O 0.46057 0.27144 0.02056 0.0
C82 C 0.46033 0.27344 0.95491 0.0
O83 O 0.46572 0.25952 0.91544 0.0
C84 C 0.51354 0.23651 0.09501 0.0
C85 C 0.51355 0.16991 0.10102 0.0
O86 O 0.53078 0.17211 0.08515 0.0
O87 O 0.50165 0.18149 0.07675 0.0
Ho88 Ho 0.00457 0.99182 0.75692 0.0
Ho89 Ho 0.98981 0.00593 0.61575 0.0
C90 C 0.99389 0.96244 0.63363 0.0
C91 C 0.00848 0.97526 0.87541 0.0
C92 C 0.00675 0.95619 0.90221 0.0
C93 C 0.99336 0.94384 0.87558 0.0
C94 C 0.99171 0.92592 0.90294 0.0
C95 C 0.00349 0.91997 0.95719 0.0
C96 C 0.01708 0.93235 0.98276 0.0
C97 C 0.01865 0.95028 0.95559 0.0
C98 C 0.03095 0.0008 0.66307 0.0
C99 C 0.00428 0.03504 0.73411 0.0
C100 C 0.98332 0.02206 0.49763 0.0
C101 C 0.98582 0.04043 0.46572 0.0
C102 C 0.99659 0.0542 0.49816 0.0
C103 C -0.00144 0.0717 0.46744 0.0
C104 C 0.98985 0.07569 0.40345 0.0
C105 C 0.97921 0.0617 0.37098 0.0
C106 C 0.97719 0.04427 0.40197 0.0
C107 C 0.96392 -0.00357 0.71118 0.0
O108 O 0.99574 0.96548 0.70138 0.0
O109 O 0.9932 0.97613 0.58809 0.0
O110 O 0.02235 0.97832 0.83269 0.0
O111 O 0.99301 0.98336 0.85569 0.0
O112 O 0.03298 0.00309 0.72974 0.0
O113 O 0.0157 0.99279 0.65042 0.0
O114 O 0.00191 0.03153 0.66694 0.0
O115 O 0.00314 0.02194 0.7819 0.0
O116 O 0.97111 0.02108 0.54803 0.0
O117 O -0.00144 0.01277 0.51118 0.0
O118 O 0.96214 0.9931 0.64515 0.0
O119 O 0.97883 0.00514 0.72238 0.0
H120 H 0.98405 0.94808 0.83411 0.0
H121 H 0.98095 0.91688 0.88244 0.0
H122 H 0.02662 0.92816 0.02354 0.0
H123 H 0.02916 0.95957 0.97646 0.0
H124 H 0.00339 0.05143 0.54725 0.0
H125 H 0.00668 0.08217 0.49438 0.0
H126 H 0.97257 0.06413 0.32121 0.0
H127 H 0.96889 0.03375 0.37603 0.0
Ho128 Ho 0.50745 0.00934 0.72915 0.0
Ho129 Ho 0.50012 0.99305 0.5817 0.0
C130 C 0.54229 -0.00181 0.62558 0.0
C131 C 0.51919 0.01525 0.8545 0.0
C132 C 0.53714 0.0131 0.89066 0.0
C133 C 0.55072 0.00078 0.86543 0.0
C134 C 0.56775 -0.00115 0.90007 0.0
C135 C 0.5715 0.00918 0.96076 0.0
C136 C 0.55785 0.02157 0.98561 0.0
C137 C 0.54082 0.02351 0.95077 0.0
C138 C 0.50034 0.03401 0.6279 0.0
C139 C 0.46553 0.00487 0.68364 0.0
C140 C 0.48787 0.98674 0.45744 0.0
C141 C 0.47018 0.99038 0.42116 0.0
C142 C 0.45849 0.00498 0.44216 0.0
C143 C 0.44139 0.00787 0.40888 0.0
C144 C 0.43567 -0.00379 0.354 0.0
C145 C 0.44753 0.98167 0.33299 0.0
C146 C 0.46462 0.97878 0.36637 0.0
C147 C 0.5074 0.96843 0.68288 0.0
O148 O 0.53618 0.00102 0.69003 0.0
O149 O 0.53085 -0.00342 0.57194 0.0
O150 O 0.51859 0.02816 0.80675 0.0
O151 O 0.51105 -0.00015 0.83479 0.0
O152 O 0.49486 0.03634 0.69182 0.0
O153 O 0.51001 0.01955 0.62258 0.0
O154 O 0.47187 0.00311 0.6191 0.0
O155 O 0.47675 0.00513 0.73818 0.0
O156 O 0.48705 0.9745 0.50759 0.0
O157 O 0.4978 0.00136 0.47412 0.0
O158 O 0.51285 0.96618 0.61895 0.0
O159 O 0.4976 0.9828 0.68828 0.0
H160 H 0.54816 0.99261 0.81902 0.0
H161 H 0.57804 0.9894 0.87891 0.0
H162 H 0.56021 0.02957 0.03257 0.0
H163 H 0.53048 0.03308 0.97096 0.0
H164 H 0.46254 0.01411 0.48439 0.0
H165 H 0.43272 0.01933 0.42584 0.0
H166 H 0.44344 0.97228 0.29163 0.0
H167 H 0.47342 0.96737 0.34984 0.0
Ho168 Ho 0.49562 0.50122 0.76246 0.0
Ho169 Ho 0.51043 0.48843 0.6197 0.0
C170 C 0.50913 0.53177 0.64714 0.0
C171 C 0.49239 0.51705 0.88272 0.0
C172 C 0.49266 0.53634 0.90851 0.0
C173 C 0.50195 0.54041 0.97089 0.0
C174 C 0.50301 0.55869 -0.00482 0.0
C175 C 0.49471 0.57325 0.95761 0.0
C176 C 0.48527 0.56912 0.8953 0.0
C177 C 0.48433 0.55083 0.87076 0.0
C178 C 0.46947 0.49606 0.66351 0.0
C179 C 0.49453 0.45828 0.73233 0.0
C180 C 0.51592 0.4734 0.49882 0.0
C181 C 0.51497 0.45475 0.46772 0.0
C182 C 0.50326 0.441 0.49532 0.0
C183 C 0.50306 0.42315 0.46648 0.0
C184 C 0.51445 0.41877 0.40899 0.0
C185 C 0.52595 0.43276 0.381 0.0
C186 C 0.52624 0.45054 0.4103 0.0
C187 C 0.53631 0.49475 0.71838 0.0
O188 O 0.5057 0.52789 0.71329 0.0
O189 O 0.50965 0.51881 0.59841 0.0
O190 O 0.4781 0.51214 0.84444 0.0
O191 O 0.50824 0.51082 0.85835 0.0
O192 O 0.46665 0.49279 0.72916 0.0
O193 O 0.4854 0.50305 0.6548 0.0
O194 O 0.49796 0.46241 0.66633 0.0
O195 O 0.49542 0.47083 0.78239 0.0
O196 O 0.52917 0.476 0.54456 0.0
O197 O 0.50006 0.48085 0.51789 0.0
O198 O 0.53868 0.49874 0.65318 0.0
O199 O 0.52081 0.48685 0.72725 0.0
H200 H 0.50852 0.52944 0.00063 0.0
H201 H 0.51023 0.56141 0.04367 0.0
H202 H 0.47894 0.58007 0.86479 0.0
H203 H 0.47724 0.54806 0.82203 0.0
H204 H 0.49434 0.44405 0.53928 0.0
H205 H 0.49419 0.41273 0.48998 0.0
H206 H 0.53464 0.43005 0.33601 0.0
H207 H 0.53531 0.46101 0.3881 0.0
Ho208 Ho 0.00153 0.50098 0.74197 0.0
Ho209 Ho 0.01014 0.51362 0.59136 0.0
C210 C 0.9673 0.51069 0.63374 0.0
C211 C 0.9893 0.49887 0.86831 0.0
C212 C 0.97104 0.49639 0.90168 0.0
C213 C 0.96843 0.50263 0.97001 0.0
C214 C 0.95096 0.50114 0.00177 0.0
C215 C 0.93575 0.49334 0.96568 0.0
C216 C 0.9385 0.48699 0.89707 0.0
C217 C 0.95599 0.48853 0.8653 0.0
C218 C 0.00595 0.47361 0.64774 0.0
C219 C 0.04378 0.50255 0.69827 0.0
C220 C 0.02247 0.51714 0.46553 0.0
C221 C 0.04011 0.51326 0.42945 0.0
C222 C 0.05295 0.5005 0.45673 0.0
C223 C 0.06994 0.49736 0.42304 0.0
C224 C 0.07433 0.50685 0.36122 0.0
C225 C 0.0613 0.51947 0.33372 0.0
C226 C 0.04436 0.52268 0.36773 0.0
C227 C 0.00443 0.54067 0.68519 0.0
O228 O 0.97295 0.50817 0.69889 0.0
O229 O 0.97914 0.51156 0.58093 0.0
O230 O 0.99586 0.48462 0.83379 0.0
O231 O 0.99156 0.51456 0.8352 0.0
O232 O 0.01084 0.47201 0.71254 0.0
O233 O 0.99791 0.48888 0.63827 0.0
O234 O 0.03777 0.50284 0.63294 0.0
O235 O 0.03228 0.50465 0.75138 0.0
O236 O 0.023 0.53052 0.5116 0.0
O237 O 0.01314 0.50265 0.48731 0.0
O238 O -0.00112 0.54172 0.621 0.0
O239 O 0.01339 0.5259 0.69493 0.0
H240 H 0.97986 0.5089 -0.00147 0.0
H241 H 0.94928 0.5065 0.0541 0.0
H242 H 0.92716 0.48076 0.86797 0.0
H243 H 0.95775 0.48372 0.81225 0.0
H244 H 0.04983 0.49297 0.50404 0.0
H245 H 0.07959 0.4874 0.44508 0.0
H246 H 0.06437 0.52715 0.28666 0.0
H247 H 0.03462 0.53262 0.3461 0.0
C248 C 0.16065 0.99085 0.256 0.0
C249 C 0.16439 0.00635 0.21389 0.0
C250 C 0.14637 0.99145 0.3055 0.0
C251 C 0.10242 0.01489 0.34713 0.0
H252 H 0.11091 0.99563 0.53289 0.0
C253 C 0.04309 -0.00165 0.54158 0.0
C254 C 0.04584 0.00362 0.61122 0.0
C255 C 0.0575 0.00015 0.49307 0.0
C256 C 0.10838 0.00119 0.48139 0.0
H257 H 0.15605 0.03462 0.19058 0.0
H258 H 0.131 0.03557 0.2768 0.0
H259 H 0.13644 0.99586 0.44859 0.0
H260 H 0.06565 0.01514 0.68477 0.0
H261 H 0.09097 0.0181 0.60001 0.0
H262 H 0.07429 0.02006 0.37984 0.0
C263 C 0.13913 0.02298 0.27136 0.0
C264 C 0.12292 0.00116 0.43299 0.0
C265 C 0.15354 0.02245 0.2223 0.0
C266 C 0.06318 0.01094 0.63139 0.0
C267 C 0.07767 0.01257 0.58301 0.0
C268 C 0.0878 0.01475 0.39535 0.0
C269 C 0.13542 0.00748 0.31349 0.0
C270 C 0.12008 0.00795 0.36531 0.0
C271 C 0.07501 0.00706 0.51348 0.0
C272 C 0.09063 0.00785 0.46292 0.0
H273 H 0.16874 0.97823 0.25077 0.0
H274 H 0.1437 0.97923 0.33679 0.0
H275 H 0.09979 0.02009 0.29517 0.0
H276 H 0.02992 0.99247 0.5248 0.0
H277 H 0.05511 0.99559 0.44004 0.0
C278 C 0.51933 0.13929 0.15756 0.0
C279 C 0.50768 0.15473 0.14753 0.0
C280 C 0.51426 0.12532 0.20409 0.0
C281 C 0.48982 0.11811 0.36484 0.0
H282 H 0.49369 0.06586 0.31812 0.0
C283 C 0.48379 0.0612 0.57548 0.0
C284 C 0.49696 0.04688 0.56995 0.0
C285 C 0.48118 0.0736 0.52028 0.0
C286 C 0.49264 0.08039 0.33218 0.0
H287 H 0.48153 0.1676 0.17762 0.0
H288 H 0.47295 0.1433 0.26089 0.0
H289 H 0.49671 0.08915 0.22671 0.0
H290 H 0.51766 0.03412 0.50305 0.0
H291 H 0.51358 0.05585 0.4081 0.0
H292 H 0.48694 0.10956 0.47078 0.0
C293 C 0.48585 0.14199 0.2319 0.0
C294 C 0.49426 0.09367 0.27974 0.0
C295 C 0.49074 0.15582 0.18424 0.0
C296 C 0.50728 0.04496 0.50838 0.0
C297 C 0.50481 0.05736 0.45366 0.0
C298 C 0.48849 0.10484 0.41756 0.0
C299 C 0.49762 0.12669 0.24236 0.0
C300 C 0.4933 0.11264 0.2959 0.0
C301 C 0.49181 0.07192 0.45892 0.0
C302 C 0.4904 0.08583 0.40209 0.0
H303 H 0.53243 0.13807 0.12979 0.0
H304 H 0.52366 0.11373 0.21184 0.0
H305 H 0.48916 0.13269 0.37855 0.0
H306 H 0.47557 0.06285 0.62241 0.0
H307 H 0.47091 0.08452 0.52578 0.0
C308 C 0.34459 0.52179 0.24357 0.0
C309 C 0.34078 0.50756 0.19547 0.0
C310 C 0.35825 0.51942 0.29474 0.0
C311 C 0.4007 0.49298 0.33487 0.0
H312 H 0.39106 0.50883 0.52455 0.0
C313 C 0.45873 0.50167 0.54163 0.0
C314 C 0.45489 0.49539 0.60929 0.0
C315 C 0.44474 0.50183 0.49095 0.0
C316 C 0.39391 0.5042 0.47195 0.0
H317 H 0.34836 0.47967 0.16335 0.0
H318 H 0.37231 0.47561 0.25255 0.0
H319 H 0.36656 0.51168 0.43684 0.0
H320 H 0.43353 0.48414 0.67697 0.0
H321 H 0.40898 0.48454 0.58843 0.0
H322 H 0.4281 0.4856 0.36996 0.0
C323 C 0.36474 0.48861 0.25047 0.0
C324 C 0.37995 0.506 0.42159 0.0
C325 C 0.35095 0.49091 0.19963 0.0
C326 C 0.43685 0.48909 0.62521 0.0
C327 C 0.4228 0.48939 0.57466 0.0
C328 C 0.41472 0.49134 0.38511 0.0
C329 C 0.36851 0.50283 0.29863 0.0
C330 C 0.38321 0.50048 0.35245 0.0
C331 C 0.42657 0.49587 0.50708 0.0
C332 C 0.4115 0.49698 0.45416 0.0
H333 H 0.33702 0.53479 0.24177 0.0
H334 H 0.36099 0.53071 0.33064 0.0
H335 H 0.40367 0.48873 0.28191 0.0
H336 H 0.47247 0.5068 0.5281 0.0
H337 H 0.44803 0.50711 0.43963 0.0
C338 C 0.97558 0.34625 0.24422 0.0
C339 C 0.99023 0.34092 0.19996 0.0
C340 C 0.97822 0.3602 0.2937 0.0
C341 C 0.01469 0.38661 0.3884 0.0
H342 H 0.97408 0.42129 0.41752 0.0
C343 C 0.01416 0.44125 0.61099 0.0
C344 C 0.0062 0.45857 0.59578 0.0
C345 C 0.01328 0.42679 0.56232 0.0
C346 C 0.98566 0.41187 0.4096 0.0
H347 H 0.01919 0.34597 0.17303 0.0
H348 H 0.02367 0.37069 0.2584 0.0
H349 H 0.9706 0.39654 0.3328 0.0
H350 H 0.99129 0.47448 0.5179 0.0
H351 H 0.99042 0.44968 0.43235 0.0
H352 H 0.02995 0.40241 0.46396 0.0
C353 C 0.01024 0.36383 0.25575 0.0
C354 C 0.98354 0.39748 0.36167 0.0
C355 C 0.00763 0.34975 0.20652 0.0
C356 C 0.99772 0.46133 0.5308 0.0
C357 C 0.997 0.44701 0.48209 0.0
C358 C 0.01685 0.40112 0.43622 0.0
C359 C 0.99552 0.36928 0.29968 0.0
C360 C 0.99799 0.38463 0.35059 0.0
C361 C 0.00446 0.42946 0.49762 0.0
C362 C 0.00236 0.41394 0.44724 0.0
H363 H 0.96205 0.33959 0.2409 0.0
H364 H 0.96668 0.36379 0.32757 0.0
H365 H 0.02603 0.37684 0.38161 0.0
H366 H 0.02074 0.43879 0.66088 0.0
H367 H 0.01902 0.4134 0.57617 0.0
C368 C 0.84627 0.9829 0.17296 0.0
C369 C 0.83341 0.96837 0.16379 0.0
C370 C 0.86077 0.98557 0.12528 0.0
C371 C 0.8866 0.96172 0.98209 0.0
H372 H 0.90278 0.01178 0.93892 0.0
C373 C 0.9349 0.98021 0.74989 0.0
C374 C 0.94972 0.99234 0.76455 0.0
C375 C 0.92117 0.97675 0.8 0.0
C376 C 0.89849 -0.00228 0.95092 0.0
H377 H 0.8255 0.94542 0.09685 0.0
H378 H 0.85031 0.95047 0.01241 0.0
H379 H 0.87764 0.007 0.02241 0.0
H380 H 0.96195 0.01033 0.8428 0.0
H381 H 0.93777 0.00451 0.93 0.0
H382 H 0.90719 0.95258 0.90863 0.0
C383 C 0.8496 0.9595 0.05743 0.0
C384 C 0.88413 0.99494 -0.00098 0.0
C385 C 0.83526 0.95667 0.10562 0.0
C386 C 0.95066 0.00089 0.83022 0.0
C387 C 0.9368 -0.00236 0.87993 0.0
C388 C 0.9008 0.96453 0.93325 0.0
C389 C 0.86262 0.97394 0.06669 0.0
C390 C 0.87798 0.9769 0.01542 0.0
C391 C 0.92188 0.98559 0.86524 0.0
C392 C 0.90691 0.98255 0.91731 0.0
H393 H 0.8453 0.99206 0.21757 0.0
H394 H 0.87067 -0.00337 0.13503 0.0
H395 H 0.88255 0.94761 -0.00577 0.0
H396 H 0.93389 0.97343 0.69966 0.0
H397 H 0.90976 0.96748 0.78719 0.0
C398 C 0.52003 0.85627 0.15851 0.0
C399 C 0.53535 0.84431 0.15057 0.0
C400 C 0.51773 0.87142 0.11405 0.0
C401 C 0.54258 0.90012 0.98205 0.0
H402 H 0.49237 0.91024 0.91713 0.0
C403 C 0.5256 0.9424 0.73451 0.0
C404 C 0.51145 0.95573 0.74065 0.0
C405 C 0.52921 0.93019 0.78929 0.0
C406 C 0.50644 0.90769 0.93542 0.0
H407 H 0.56042 0.83894 0.09058 0.0
H408 H 0.55612 0.86493 0.01172 0.0
H409 H 0.49739 0.8864 0.00483 0.0
H410 H 0.48998 0.96694 0.80817 0.0
H411 H 0.49612 0.9454 0.90366 0.0
H412 H 0.55159 0.92103 0.9102 0.0
C413 C 0.54609 0.86297 0.05323 0.0
C414 C 0.50933 0.8941 0.98591 0.0
C415 C 0.5485 0.84797 0.09818 0.0
C416 C 0.50101 0.95678 0.80235 0.0
C417 C 0.50446 0.94444 0.85675 0.0
C418 C 0.53969 0.91357 0.9309 0.0
C419 C 0.53059 0.87479 0.06017 0.0
C420 C 0.52746 0.89004 0.0095 0.0
C421 C 0.51854 0.93099 0.85058 0.0
C422 C 0.52161 0.91738 0.90686 0.0
H423 H 0.50974 0.85389 0.19886 0.0
H424 H 0.50582 0.88044 0.12176 0.0
H425 H 0.55669 0.89761 -7e-05 0.0
H426 H 0.53386 0.9414 0.68741 0.0
H427 H 0.54005 0.91983 0.78313 0.0
C428 C 0.656 0.50968 0.17464 0.0
C429 C 0.66878 0.52402 0.16099 0.0
C430 C 0.64071 0.50671 0.13066 0.0
C431 C 0.61279 0.5297 0.99142 0.0
H432 H 0.59636 0.47945 0.95216 0.0
C433 C 0.56505 0.51068 0.76028 0.0
C434 C 0.55014 0.49855 0.77345 0.0
C435 C 0.57846 0.51415 0.81143 0.0
C436 C 0.60067 0.49356 0.96329 0.0
H437 H 0.6757 0.54633 0.08987 0.0
H438 H 0.6495 0.5408 0.01202 0.0
H439 H 0.62213 0.48462 0.03293 0.0
H440 H 0.53744 0.48052 0.85019 0.0
H441 H 0.56119 0.48633 0.93967 0.0
H442 H 0.59169 0.53851 0.91968 0.0
C443 C 0.65089 0.53213 0.05773 0.0
C444 C 0.61541 0.49656 0.00974 0.0
C445 C 0.66603 0.53523 0.10212 0.0
C446 C 0.54882 0.48995 0.83883 0.0
C447 C 0.56241 0.49321 0.88978 0.0
C448 C 0.59822 0.52667 0.94437 0.0
C449 C 0.63795 0.51789 0.07152 0.0
C450 C 0.62178 0.51467 0.02403 0.0
C451 C 0.57737 0.50534 0.87651 0.0
C452 C 0.5921 0.50857 0.92945 0.0
H453 H 0.65766 0.50087 0.21986 0.0
H454 H 0.63093 0.49579 0.14367 0.0
H455 H 0.61696 0.54386 0.00224 0.0
H456 H 0.56637 0.51751 0.71031 0.0
H457 H 0.58993 0.52343 0.79955 0.0
C458 C 0.97526 0.64727 0.17122 0.0
C459 C 0.95927 0.65833 0.16253 0.0
C460 C 0.9799 0.6338 0.1217 0.0
C461 C 0.97427 0.62338 0.93741 0.0
H462 H 0.98802 0.57308 0.98739 0.0
C463 C 0.98527 0.56697 0.7294 0.0
C464 C -0.00044 0.55402 0.74019 0.0
C465 C 0.98029 0.57936 0.78215 0.0
C466 C 0.98448 0.58714 0.9726 0.0
H467 H 0.93544 0.66373 0.09587 0.0
H468 H 0.94369 0.64036 0.00917 0.0
H469 H 0.97944 0.59519 0.07847 0.0
H470 H 0.02012 0.54391 0.81353 0.0
H471 H 0.01185 0.56592 0.90523 0.0
H472 H 0.97968 0.61565 0.83199 0.0
C473 C 0.95261 0.64215 0.05422 0.0
C474 C 0.97949 0.59975 0.02476 0.0
C475 C 0.94786 0.65544 0.10403 0.0
C476 C 0.00896 0.55374 0.80423 0.0
C477 C 0.00412 0.56625 0.85683 0.0
C478 C 0.97944 0.61087 0.88539 0.0
C479 C 0.96876 0.63133 0.06227 0.0
C480 C 0.97423 0.61794 0.00752 0.0
C481 C 0.98969 0.5792 0.84647 0.0
C482 C 0.9845 0.59256 0.90223 0.0
H483 H 0.98431 0.64915 0.21585 0.0
H484 H 0.99247 0.62568 0.12889 0.0
H485 H 0.97055 0.63742 0.92287 0.0
H486 H 0.97772 0.56733 0.68056 0.0
H487 H 0.9689 0.58889 0.77274 0.0
C488 C 0.98288 0.22865 0.12672 0.0
C489 C -0.00151 0.24025 0.13506 0.0
C490 C 0.98301 0.21053 0.1526 0.0
C491 C 0.00658 0.18082 0.28275 0.0
H492 H 0.98227 0.14102 0.18116 0.0
C493 C 0.0087 0.10414 0.37347 0.0
C494 C 0.9917 0.09437 0.37083 0.0
C495 C 0.01037 0.12167 0.3428 0.0
C496 C 0.98901 0.15202 0.21035 0.0
H497 H 0.02616 0.24218 0.17995 0.0
H498 H 0.02674 0.21033 0.22265 0.0
H499 H 0.98397 0.17194 0.13003 0.0
H500 H 0.96304 0.09565 0.33466 0.0
H501 H 0.96604 0.12606 0.28055 0.0
H502 H 0.01164 0.16082 0.36295 0.0
C503 C 0.01435 0.21522 0.19614 0.0
C504 C 0.98996 0.16976 0.18112 0.0
C505 C 0.01417 0.23339 0.17048 0.0
C506 C 0.97644 0.10258 0.33663 0.0
C507 C 0.97814 0.12004 0.30563 0.0
C508 C 0.00572 0.16305 0.31176 0.0
C509 C -0.00126 0.20357 0.18775 0.0
C510 C -0.00142 0.18445 0.21726 0.0
C511 C 0.99511 0.1298 0.3084 0.0
C512 C 0.99676 0.14849 0.27622 0.0
H513 H 0.97053 0.23359 0.10005 0.0
H514 H 0.9706 0.2021 0.14624 0.0
H515 H 0.01307 0.19183 0.31259 0.0
H516 H 0.02083 0.09815 0.3984 0.0
H517 H 0.02369 0.12876 0.34515 0.0
C518 C 0.27516 0.01387 0.15349 0.0
C519 C 0.27126 0.01024 0.08305 0.0
C520 C 0.29349 0.01392 0.17796 0.0
C521 C 0.34014 0.99537 0.13823 0.0
H522 H 0.35587 0.03044 0.27998 0.0
C523 C 0.41549 -0.003 0.24689 0.0
C524 C 0.41732 -0.00096 0.3194 0.0
C525 C 0.39817 -0.00061 0.21459 0.0
C526 C 0.35164 0.02046 0.24079 0.0
H527 H 0.28376 0.00366 0.98322 0.0
H528 H 0.31584 0.00417 0.02558 0.0
H529 H 0.32492 0.03327 0.22842 0.0
H530 H 0.40226 0.00498 0.41484 0.0
H531 H 0.3721 0.0092 0.35852 0.0
H532 H 0.36682 0.98246 0.15118 0.0
C533 C 0.30462 0.0069 0.06194 0.0
C534 C 0.33391 0.02209 0.21118 0.0
C535 C 0.28621 0.00687 0.03739 0.0
C536 C 0.40142 0.00362 0.35877 0.0
C537 C 0.38412 0.00603 0.32647 0.0
C538 C 0.3579 0.99376 0.16779 0.0
C539 C 0.30845 0.0103 0.13267 0.0
C540 C 0.32784 0.00942 0.16018 0.0
C541 C 0.38228 0.00391 0.25402 0.0
C542 C 0.36377 0.00616 0.22004 0.0
H543 H 0.26398 0.01647 0.19022 0.0
H544 H 0.29588 0.0163 0.23292 0.0
H545 H 0.33582 0.98522 0.09978 0.0
H546 H 0.4275 0.99375 0.21489 0.0
H547 H 0.39727 -0.00211 0.15859 0.0
C548 C 0.53014 0.2657 0.12943 0.0
C549 C 0.51387 0.25482 0.13017 0.0
C550 C 0.53039 0.2832 0.16112 0.0
C551 C 0.50487 0.31247 0.28943 0.0
H552 H 0.53154 0.35261 0.19903 0.0
C553 C 0.49782 0.38939 0.37358 0.0
C554 C 0.51444 0.39973 0.37843 0.0
C555 C 0.49784 0.37157 0.34456 0.0
C556 C 0.52416 0.34149 0.22519 0.0
H557 H 0.48557 0.25318 0.16943 0.0
H558 H 0.48562 0.28401 0.22135 0.0
H559 H 0.53138 0.32182 0.14621 0.0
H560 H 0.54422 0.3991 0.35766 0.0
H561 H 0.54414 0.3682 0.30586 0.0
H562 H 0.4974 0.33234 0.36773 0.0
C563 C 0.49823 0.2791 0.19637 0.0
C564 C 0.52411 0.32381 0.19506 0.0
C565 C 0.49805 0.26155 0.16515 0.0
C566 C 0.53108 0.39174 0.35357 0.0
C567 C 0.53107 0.37399 0.32404 0.0
C568 C 0.50479 0.3302 0.31921 0.0
C569 C 0.51438 0.29021 0.19445 0.0
C570 C 0.51449 0.30904 0.22682 0.0
C571 C 0.51446 0.36371 0.3192 0.0
C572 C 0.51447 0.34489 0.28748 0.0
H573 H 0.54264 0.26079 0.10359 0.0
H574 H 0.54321 0.29117 0.15984 0.0
H575 H 0.49758 0.30139 0.31607 0.0
H576 H 0.48468 0.39518 0.3911 0.0
H577 H 0.48478 0.36406 0.34078 0.0
C578 C 0.22163 0.49541 0.03272 0.0
C579 C 0.23704 0.49804 0.07682 0.0
C580 C 0.20359 0.49419 0.0603 0.0
C581 C 0.17768 0.48543 0.22342 0.0
H582 H 0.13903 0.5154 0.13813 0.0
C583 C 0.10909 0.50298 0.36526 0.0
C584 C 0.09255 0.50385 0.32616 0.0
C585 C 0.12631 0.50066 0.33227 0.0
C586 C 0.14955 0.50671 0.162 0.0
H587 H 0.24574 0.50142 0.18414 0.0
H588 H 0.21433 0.49932 0.23228 0.0
H589 H 0.16979 0.51371 0.08434 0.0
H590 H 0.08104 0.5025 0.22191 0.0
H591 H 0.11109 0.49827 0.16426 0.0
H592 H 0.15752 0.4785 0.3013 0.0
C593 C 0.21614 0.49795 0.17653 0.0
C594 C 0.16719 0.50575 0.13114 0.0
C595 C 0.23412 0.49928 0.14895 0.0
C596 C 0.09358 0.50214 0.25337 0.0
C597 C 0.1108 0.49973 0.22036 0.0
C598 C 0.16002 0.48631 0.2541 0.0
C599 C 0.20066 0.49555 0.13252 0.0
C600 C 0.18152 0.49532 0.16207 0.0
C601 C 0.12739 0.49906 0.25938 0.0
C602 C 0.14581 0.49718 0.22434 0.0
H603 H 0.22339 0.49497 0.97681 0.0
H604 H 0.19193 0.49233 0.02511 0.0
H605 H 0.18837 0.47706 0.2479 0.0
H606 H 0.10878 0.50452 0.42134 0.0
H607 H 0.13882 0.50055 0.36389 0.0
C608 C 0.98339 0.77244 0.27085 0.0
C609 C 0.97634 0.75782 0.23025 0.0
C610 C 0.98715 0.78973 0.24077 0.0
C611 C 0.97533 0.81828 0.08608 0.0
H612 H 0.01776 0.84775 0.14552 0.0
C613 C 0.99712 0.88569 0.94526 0.0
C614 C 0.00144 0.90105 0.98768 0.0
C615 C 0.99474 0.86805 0.97423 0.0
C616 C 0.00578 0.83973 0.12873 0.0
H617 H 0.96767 0.7497 0.12668 0.0
H618 H 0.97473 0.77962 0.07349 0.0
H619 H 0.0125 0.81719 0.19668 0.0
H620 H 0.00657 0.90974 0.09425 0.0
H621 H 0.00269 0.87893 0.14442 0.0
H622 H 0.96871 0.84074 0.01757 0.0
C623 C 0.97707 0.77795 0.1288 0.0
C624 C 0.00273 0.82223 0.15822 0.0
C625 C 0.97314 0.76076 0.15908 0.0
C626 C 0.00355 0.89822 0.05974 0.0
C627 C 0.0013 0.88055 0.08862 0.0
C628 C 0.97846 0.83569 0.05624 0.0
C629 C 0.98399 0.79274 0.16932 0.0
C630 C 0.98744 0.81129 0.13742 0.0
C631 C 0.99674 0.86529 0.04627 0.0
C632 C 0.99368 0.84663 0.07731 0.0
H633 H 0.98538 0.77072 0.32631 0.0
H634 H 0.9921 0.80087 0.27394 0.0
H635 H 0.96319 0.81045 0.06968 0.0
H636 H 0.99572 0.88725 0.88945 0.0
H637 H 0.99148 0.85651 0.94009 0.0
C638 C 0.72013 0.96967 0.23697 0.0
C639 C 0.73074 0.98441 0.26397 0.0
C640 C 0.70269 0.9729 0.20712 0.0
C641 C 0.66421 0.00688 0.19573 0.0
H642 H 0.65296 0.98032 0.02499 0.0
C643 C 0.59899 0.02231 0.02597 0.0
C644 C 0.58953 0.00688 -0.00187 0.0
C645 C 0.6161 0.02009 0.06008 0.0
C646 C 0.65579 0.9877 0.07302 0.0
H647 H 0.73155 0.01425 0.27869 0.0
H648 H 0.70088 0.0199 0.22769 0.0
H649 H 0.68288 0.97557 0.08205 0.0
H650 H 0.59038 0.97693 0.98631 0.0
H651 H 0.62018 0.97307 0.04542 0.0
H652 H 0.63702 0.01904 0.18633 0.0
C653 C 0.70594 0.00576 0.23096 0.0
C654 C 0.67294 0.98497 0.10577 0.0
C655 C 0.72346 0.0025 0.26078 0.0
C656 C 0.59747 0.98916 0.00589 0.0
C657 C 0.61455 0.98695 0.03985 0.0
C658 C 0.647 0.00963 0.16284 0.0
C659 C 0.69545 0.991 0.20307 0.0
C660 C 0.67731 0.9944 0.16781 0.0
C661 C 0.62413 0.00238 0.06698 0.0
C662 C 0.64254 -5e-05 0.10138 0.0
H663 H 0.72534 0.95556 0.23883 0.0
H664 H 0.69485 0.96119 0.18715 0.0
H665 H 0.6671 0.01423 0.24378 0.0
H666 H 0.59337 0.03618 0.02018 0.0
H667 H 0.62323 0.03228 0.07973 0.0
C668 C 0.52953 0.72953 0.17153 0.0
C669 C 0.51441 0.7414 0.18493 0.0
C670 C 0.5265 0.71155 0.14662 0.0
C671 C 0.49326 0.6819 0.05328 0.0
H672 H 0.51965 0.6418 0.14488 0.0
C673 C 0.48059 0.60452 0.98287 0.0
C674 C 0.4962 0.5927 0.98302 0.0
C675 C 0.48202 0.62272 0.00804 0.0
C676 C 0.51235 0.65282 0.11801 0.0
H677 H 0.48436 0.74425 0.1783 0.0
H678 H 0.47905 0.71272 0.13425 0.0
H679 H 0.5237 0.67354 0.18588 0.0
H680 H 0.52564 0.59088 0.00766 0.0
H681 H 0.52827 0.62262 0.05011 0.0
H682 H 0.48225 0.66126 0.98421 0.0
C683 C 0.49322 0.71728 0.14413 0.0
C684 C 0.51462 0.67102 0.14179 0.0
C685 C 0.49623 0.73524 0.16986 0.0
C686 C 0.51329 0.59955 0.00798 0.0
C687 C 0.51476 0.61775 0.03256 0.0
C688 C 0.49112 0.66368 0.02896 0.0
C689 C 0.50831 0.70514 0.13339 0.0
C690 C 0.50524 0.68577 0.10936 0.0
C691 C 0.49913 0.62957 0.03342 0.0
C692 C 0.50077 0.64891 0.06064 0.0
H693 H 0.54369 0.73393 0.18239 0.0
H694 H 0.53843 0.70261 0.1378 0.0
H695 H 0.48595 0.69302 0.02699 0.0
H696 H 0.46718 0.59957 0.96455 0.0
H697 H 0.46962 0.63131 0.00868 0.0
C698 C 0.78921 0.50461 0.2964 0.0
C699 C 0.7739 0.50885 0.25372 0.0
C700 C 0.80661 0.50053 0.26716 0.0
C701 C 0.82973 0.48804 0.09977 0.0
H702 H 0.87355 0.50893 0.18881 0.0
C703 C 0.90079 0.49621 0.96069 0.0
C704 C 0.91703 0.49232 -0.00091 0.0
C705 C 0.8833 0.4962 0.99298 0.0
C706 C 0.86148 0.50279 0.16379 0.0
H707 H 0.76485 0.51245 0.14696 0.0
H708 H 0.79524 0.50585 0.09591 0.0
H709 H 0.8431 0.5126 0.24337 0.0
H710 H 0.92747 0.48465 0.10112 0.0
H711 H 0.89698 0.48492 0.15753 0.0
H712 H 0.84816 0.47869 0.01919 0.0
C713 C 0.79376 0.50509 0.15193 0.0
C714 C 0.84401 0.50485 0.19514 0.0
C715 C 0.77636 0.50906 0.1812 0.0
C716 C 0.9153 0.48807 0.07025 0.0
C717 C 0.89783 0.48817 0.10259 0.0
C718 C 0.8472 0.48609 0.06819 0.0
C719 C 0.80914 0.50086 0.19452 0.0
C720 C 0.82788 0.49765 0.16322 0.0
C721 C 0.88167 0.49241 0.06446 0.0
C722 C 0.86324 0.49358 0.09957 0.0
H723 H 0.78798 0.5051 0.35244 0.0
H724 H 0.81811 0.49727 0.30158 0.0
H725 H 0.81767 0.48202 0.07433 0.0
H726 H 0.9016 0.49981 0.90607 0.0
H727 H 0.87112 0.49975 0.96239 0.0
C728 C 0.01471 0.19568 0.9173 0.0
C729 C 0.03068 0.20172 0.95316 0.0
C730 C 0.01398 0.17793 0.88848 0.0
C731 C 0.03454 0.13155 0.90612 0.0
H732 H 0.00855 0.12278 0.73205 0.0
C733 C 0.01459 0.06742 0.70703 0.0
C734 C 0.00887 0.05415 0.75613 0.0
C735 C 0.01913 0.08543 0.72792 0.0
C736 C 0.01606 0.12498 0.78027 0.0
H737 H 0.0586 0.19404 0.98576 0.0
H738 H 0.05742 0.16298 0.93443 0.0
H739 H 0.01387 0.15447 0.77137 0.0
H740 H 0.00347 0.04935 0.86576 0.0
H741 H 0.01101 0.08087 0.90204 0.0
H742 H 0.03689 0.10204 0.91466 0.0
C743 C 0.04537 0.17194 0.9295 0.0
C744 C 0.01892 0.14314 0.8032 0.0
C745 C 0.04608 0.18974 0.95858 0.0
C746 C 0.00788 0.05924 0.82664 0.0
C747 C 0.01234 0.07727 0.84751 0.0
C748 C 0.03174 0.11337 0.88305 0.0
C749 C 0.02925 0.16582 0.89457 0.0
C750 C 0.02788 0.14663 0.86699 0.0
C751 C 0.01799 0.09058 0.79838 0.0
C752 C 0.02219 0.10988 0.82046 0.0
H753 H 0.00256 0.20453 0.91245 0.0
H754 H 0.00123 0.17354 0.86302 0.0
H755 H 0.04137 0.13376 0.95574 0.0
H756 H 0.01581 0.06388 0.65249 0.0
H757 H 0.0237 0.09527 0.68891 0.0
C758 C 0.29515 0.9937 0.69529 0.0
C759 C 0.2857 0.00567 0.74052 0.0
C760 C 0.31459 0.9928 0.69582 0.0
C761 C 0.35726 0.00827 0.79249 0.0
H762 H 0.37984 0.00057 0.61143 0.0
C763 C 0.43714 0.00023 0.75737 0.0
C764 C 0.44519 0.00622 0.69469 0.0
C765 C 0.41776 0.00045 0.76609 0.0
C766 C 0.37387 0.00305 0.66235 0.0
H767 H 0.289 0.02619 0.8223 0.0
H768 H 0.32305 0.02527 0.82153 0.0
H769 H 0.34631 0.0004 0.6222 0.0
H770 H 0.43944 0.01795 0.59318 0.0
H771 H 0.40582 0.01926 0.60936 0.0
H772 H 0.38494 0.01207 0.83166 0.0
C773 C 0.31552 0.01599 0.78717 0.0
C774 C 0.3545 0.00253 0.66888 0.0
C775 C 0.29598 0.01655 0.78771 0.0
C776 C 0.43358 0.01301 0.64174 0.0
C777 C 0.41426 0.01361 0.65096 0.0
C778 C 0.3767 0.00915 0.78571 0.0
C779 C 0.32511 0.00437 0.74009 0.0
C780 C 0.34588 0.00497 0.73408 0.0
C781 C 0.40602 0.00702 0.71278 0.0
C782 C 0.38529 0.00648 0.7205 0.0
H783 H 0.28748 0.98519 0.65854 0.0
H784 H 0.32135 0.98323 0.66036 0.0
H785 H 0.35122 0.01005 0.8437 0.0
H786 H 0.44577 0.99479 0.79891 0.0
H787 H 0.41203 0.99498 0.81397 0.0
C788 C 0.45457 0.30753 0.96747 0.0
C789 C 0.45744 0.29202 0.92429 0.0
C790 C 0.45508 0.32544 0.93987 0.0
C791 C 0.47709 0.3503 0.79632 0.0
H792 H 0.44764 0.3918 0.86319 0.0
C793 C 0.48915 0.42505 0.69926 0.0
C794 C 0.48901 0.43909 0.75018 0.0
C795 C 0.48332 0.40708 0.71548 0.0
C796 C 0.45604 0.38035 0.84437 0.0
H797 H 0.46162 0.28306 0.81751 0.0
H798 H 0.46232 0.31434 0.76934 0.0
H799 H 0.43952 0.36027 0.89877 0.0
H800 H 0.48274 0.44517 0.85841 0.0
H801 H 0.47292 0.41373 0.88696 0.0
H802 H 0.4939 0.37032 0.74336 0.0
C803 C 0.46006 0.31264 0.82471 0.0
C804 C 0.45136 0.36231 0.86455 0.0
C805 C 0.45955 0.29473 0.85229 0.0
C806 C 0.48303 0.43471 0.81787 0.0
C807 C 0.47721 0.41673 0.8341 0.0
C808 C 0.48178 0.3683 0.77621 0.0
C809 C 0.45843 0.32819 0.86855 0.0
C810 C 0.462 0.34712 0.84151 0.0
C811 C 0.47726 0.40273 0.78305 0.0
C812 C 0.47148 0.38355 0.80083 0.0
H813 H 0.45285 0.30592 0.02315 0.0
H814 H 0.45389 0.33713 0.97511 0.0
H815 H 0.48578 0.33893 0.77866 0.0
H816 H 0.49373 0.42789 0.64674 0.0
H817 H 0.4834 0.39663 0.67486 0.0
C818 C 0.2037 0.45075 0.75025 0.0
C819 C 0.21295 0.45226 0.81422 0.0
C820 C 0.18666 0.45965 0.73946 0.0
C821 C 0.14538 0.47485 0.83332 0.0
H822 H 0.13294 0.49907 0.65927 0.0
C823 C 0.07112 0.50248 0.77974 0.0
C824 C 0.06391 0.49968 0.71246 0.0
C825 C 0.08998 0.49928 0.79387 0.0
C826 C 0.13612 0.4922 0.70793 0.0
H827 H 0.21151 0.46401 0.91814 0.0
H828 H 0.18156 0.47964 0.89937 0.0
H829 H 0.16501 0.48935 0.68124 0.0
H830 H 0.07098 0.49143 0.60711 0.0
H831 H 0.10371 0.48539 0.63197 0.0
H832 H 0.11644 0.47694 0.8591 0.0
C833 C 0.1877 0.47177 0.85711 0.0
C834 C 0.15452 0.48674 0.72065 0.0
C835 C 0.20494 0.46302 0.86758 0.0
C836 C 0.07607 0.49382 0.65942 0.0
C837 C 0.09491 0.49046 0.67367 0.0
C838 C 0.12694 0.48015 0.82039 0.0
C839 C 0.17831 0.47001 0.79306 0.0
C840 C 0.1593 0.47775 0.78301 0.0
C841 C 0.10211 0.49305 0.74121 0.0
C842 C 0.12199 0.48864 0.75704 0.0
H843 H 0.20951 0.44233 0.70875 0.0
H844 H 0.17965 0.45779 0.68998 0.0
H845 H 0.14859 0.46773 0.88148 0.0
H846 H 0.06219 0.50716 0.82174 0.0
H847 H 0.09505 0.50174 0.84617 0.0
C848 C 0.0271 0.80234 0.464 0.0
C849 C 0.0297 0.79983 0.39204 0.0
C850 C 0.02511 0.82014 0.49181 0.0
C851 C 0.00711 0.865 0.43946 0.0
H852 H 0.02784 0.88275 0.6137 0.0
C853 C 0.99666 0.9399 0.53535 0.0
C854 C 0.99516 0.94319 0.60725 0.0
C855 C 0.00058 0.92216 0.51026 0.0
C856 C 0.0217 0.87787 0.56552 0.0
H857 H 0.03398 0.81405 0.29391 0.0
H858 H 0.03025 0.84516 0.34247 0.0
H859 H 0.03761 0.85268 0.5675 0.0
H860 H 0.99561 0.93019 0.70909 0.0
H861 H 0.00195 0.89906 0.66501 0.0
H862 H 0.99086 0.88984 0.43788 0.0
C863 C 0.02951 0.83331 0.37705 0.0
C864 C 0.02743 0.86073 0.53888 0.0
C865 C 0.03172 0.81552 0.34935 0.0
C866 C 0.99678 0.92815 0.65338 0.0
C867 C 0.00059 0.91034 0.62817 0.0
C868 C 0.00125 0.88202 0.46634 0.0
C869 C 0.02556 0.83573 0.44811 0.0
C870 C 0.02025 0.8542 0.47542 0.0
C871 C 0.00293 0.90723 0.55639 0.0
C872 C 0.00853 0.88871 0.52954 0.0
H873 H 0.02564 0.79053 0.49839 0.0
H874 H 0.02208 0.82161 0.54679 0.0
H875 H 0.00103 0.86009 0.39117 0.0
H876 H 0.99556 0.95116 0.49827 0.0
H877 H 0.00248 0.92034 0.45475 0.0
C878 C 0.70483 0.0259 0.45161 0.0
C879 C 0.71299 0.03726 0.50291 0.0
C880 C 0.68749 0.0175 0.46367 0.0
C881 C 0.65396 0.00499 0.60271 0.0
H882 H 0.61622 0.01359 0.4619 0.0
C883 C 0.57529 0.00347 0.6645 0.0
C884 C 0.56267 -0.00216 0.61258 0.0
C885 C 0.59437 0.00478 0.65012 0.0
C886 C 0.62661 0.01068 0.50133 0.0
H887 H 0.70968 0.04865 0.60634 0.0
H888 H 0.67961 0.03383 0.6279 0.0
H889 H 0.64859 0.02158 0.43784 0.0
H890 H 0.56038 0.98819 0.50584 0.0
H891 H 0.59366 0.99006 0.48132 0.0
H892 H 0.63199 0.9943 0.6666 0.0
C893 C 0.6866 0.0312 0.57887 0.0
C894 C 0.64519 0.01529 0.48744 0.0
C895 C 0.70376 0.03976 0.56647 0.0
C896 C 0.56968 0.9928 0.54685 0.0
C897 C 0.58878 0.99396 0.53264 0.0
C898 C 0.6354 0.00023 0.61642 0.0
C899 C 0.67813 0.02022 0.52729 0.0
C900 C 0.65898 0.01291 0.53857 0.0
C901 C 0.60134 0.00033 0.58362 0.0
C902 C 0.6214 0.00342 0.56652 0.0
H903 H 0.71138 0.02416 0.40127 0.0
H904 H 0.68126 0.00916 0.42287 0.0
H905 H 0.66435 0.00278 0.64279 0.0
H906 H 0.57039 0.0075 0.71568 0.0
H907 H 0.60354 0.00997 0.6905 0.0
C908 C 0.507 0.68099 0.35763 0.0
C909 C 0.49468 0.69442 0.38377 0.0
C910 C 0.5089 0.66393 0.39083 0.0
C911 C 0.48643 0.63284 0.51949 0.0
H912 H 0.5357 0.61049 0.52263 0.0
C913 C 0.50295 0.56539 0.66884 0.0
C914 C 0.5104 0.55138 0.62606 0.0
C915 C 0.5021 0.58369 0.64534 0.0
C916 C 0.5219 0.61663 0.52215 0.0
H917 H 0.47444 0.70058 0.46434 0.0
H918 H 0.47819 0.67091 0.52415 0.0
H919 H 0.53145 0.64094 0.46977 0.0
H920 H 0.52372 0.54565 0.52693 0.0
H921 H 0.5226 0.57777 0.48658 0.0
H922 H 0.47705 0.6085 0.57304 0.0
C923 C 0.48611 0.67338 0.47706 0.0
C924 C 0.51939 0.63398 0.49146 0.0
C925 C 0.48398 0.69038 0.44301 0.0
C926 C 0.51782 0.55615 0.56084 0.0
C927 C 0.51726 0.5745 0.53788 0.0
C928 C 0.48901 0.61561 0.55116 0.0
C929 C 0.49877 0.66003 0.45175 0.0
C930 C 0.50156 0.64214 0.48852 0.0
C931 C 0.50902 0.58832 0.57932 0.0
C932 C 0.5067 0.60725 0.55168 0.0
H933 H 0.51525 0.68369 0.31146 0.0
H934 H 0.51836 0.65381 0.36861 0.0
H935 H 0.47248 0.63859 0.5175 0.0
H936 H 0.4971 0.56213 0.71934 0.0
H937 H 0.4958 0.59418 0.67827 0.0
C938 C 0.80536 0.47019 0.59501 0.0
C939 C 0.79621 0.46972 0.53064 0.0
C940 C 0.82261 0.47901 0.60195 0.0
C941 C 0.8643 0.49 0.50216 0.0
H942 H 0.87772 0.51831 0.66661 0.0
C943 C 0.94028 0.51343 0.55099 0.0
C944 C 0.94697 0.51093 0.61917 0.0
C945 C 0.9212 0.51202 0.53646 0.0
C946 C 0.87424 0.51035 0.62053 0.0
H947 H 0.79805 0.47771 0.42212 0.0
H948 H 0.82832 0.49329 0.43414 0.0
H949 H 0.84524 0.50951 0.64741 0.0
H950 H 0.93865 0.50559 0.72594 0.0
H951 H 0.90559 0.50274 0.70049 0.0
H952 H 0.89334 0.49009 0.47663 0.0
C953 C 0.82196 0.48706 0.47961 0.0
C954 C 0.85561 0.50538 0.60942 0.0
C955 C 0.80454 0.47838 0.4729 0.0
C956 C 0.93404 0.50759 0.67279 0.0
C957 C 0.915 0.50609 0.65822 0.0
C958 C 0.88296 0.49486 0.51349 0.0
C959 C 0.83126 0.48729 0.54417 0.0
C960 C 0.8505 0.49479 0.55092 0.0
C961 C 0.90833 0.50801 0.58969 0.0
C962 C 0.88824 0.50474 0.57365 0.0
H963 H 0.79931 0.46337 0.63994 0.0
H964 H 0.82953 0.47865 0.65206 0.0
H965 H 0.86084 0.48166 0.45698 0.0
H966 H 0.94981 0.51615 0.50845 0.0
H967 H 0.91655 0.51389 0.4833 0.0
loop_
_geom_bond_atom_site_label_1
_geom_bond_atom_site_label_2
_geom_bond_distance
_geom_bond_site_symmetry_2
_ccdc_geom_bond_type
O0 Cd1 2.300 . S
O0 C7 1.275 . S
Cd1 O0 2.300 . S
Cd1 O9 2.381 . S
Cd1 O10 2.378 . S
O2 Cd3 2.385 . S
O2 C7 1.255 . S
Cd3 O2 2.385 . S
Cd3 O4 2.317 . S
O4 Cd3 2.317 . S
O4 C5 1.232 . S
C5 O4 1.232 . S
C5 O6 1.218 . S
O6 C5 1.218 . S
C7 O0 1.275 . S
C7 O2 1.255 . S
C8 O9 1.258 . S
C8 O10 1.256 . S
O9 Cd1 2.381 . S
O9 C8 1.258 . S
O10 Cd1 2.378 . S
O10 C8 1.256 . S
O11 Cd12 2.300 1_655 S
O11 C18 1.275 1_655 S
Cd12 O11 2.300 1_455 S
Cd12 O20 2.381 1_455 S
Cd12 O21 2.378 . S
O13 Cd14 2.385 . S
O13 C18 1.255 . S
Cd14 O13 2.385 . S
Cd14 O15 2.317 . S
O15 Cd14 2.317 . S
O15 C16 1.232 . S
C16 O15 1.232 . S
C16 O17 1.218 . S
O17 C16 1.218 . S
C18 O11 1.275 1_455 S
C18 O13 1.255 . S
C19 O20 1.258 1_455 S
C19 O21 1.256 . S
O20 Cd12 2.381 1_655 S
O20 C19 1.258 1_655 S
O21 Cd12 2.378 . S
O21 C19 1.256 . S
O22 Cd23 2.300 1_565 S
O22 C29 1.275 1_565 S
Cd23 O22 2.300 1_545 S
Cd23 O31 2.381 1_545 S
Cd23 O32 2.378 . S
O24 Cd25 2.385 . S
O24 C29 1.255 . S
Cd25 O24 2.385 . S
Cd25 O26 2.317 . S
O26 Cd25 2.317 . S
O26 C27 1.232 . S
C27 O26 1.232 . S
C27 O28 1.218 . S
O28 C27 1.218 . S
C29 O22 1.275 1_545 S
C29 O24 1.255 . S
C30 O31 1.231 1_545 S
C30 O32 1.293 . S
O31 Cd23 2.381 1_565 S
O31 C30 1.231 1_565 S
O32 Cd23 2.378 . S
O32 C30 1.293 . S
O33 Cd34 2.300 . S
O33 C40 1.275 . S
Cd34 O33 2.300 . S
Cd34 O42 2.381 . S
Cd34 O43 2.378 . S
O35 Cd36 2.385 . S
O35 C40 1.255 . S
Cd36 O35 2.385 . S
Cd36 O37 2.317 . S
O37 Cd36 2.317 . S
O37 C38 1.232 . S
C38 O37 1.232 . S
C38 O39 1.218 . S
O39 C38 1.218 . S
C40 O33 1.275 . S
C40 O35 1.255 . S
C41 O42 1.258 . S
C41 O43 1.256 . S
O42 Cd34 2.381 . S
O42 C41 1.258 . S
O43 Cd34 2.378 . S
O43 C41 1.256 . S
O44 Cd45 2.300 . S
O44 C51 1.275 . S
Cd45 O44 2.300 . S
Cd45 O53 2.381 . S
Cd45 O54 2.378 . S
O46 Cd47 2.385 1_554 S
O46 C51 1.255 . S
Cd47 O46 2.385 1_556 S
Cd47 O48 2.317 . S
O48 Cd47 2.317 . S
O48 C49 1.232 . S
C49 O48 1.232 . S
C49 O50 1.218 . S
O50 C49 1.218 . S
C51 O44 1.275 . S
C51 O46 1.255 . S
C52 O53 1.258 . S
C52 O54 1.256 . S
O53 Cd45 2.381 . S
O53 C52 1.258 . S
O54 Cd45 2.378 . S
O54 C52 1.256 . S
O55 Cd56 2.300 . S
O55 C62 1.275 . S
Cd56 O55 2.300 . S
Cd56 O64 2.381 . S
Cd56 O65 2.378 . S
O57 Cd58 2.385 1_554 S
O57 C62 1.255 . S
Cd58 O57 2.385 1_556 S
Cd58 O59 2.317 . S
O59 Cd58 2.317 . S
O59 C60 1.232 . S
C60 O59 1.232 . S
C60 O61 1.218 . S
O61 C60 1.218 . S
C62 O55 1.275 . S
C62 O57 1.255 . S
C63 O64 1.258 . S
C63 O65 1.256 . S
O64 Cd56 2.381 . S
O64 C63 1.258 . S
O65 Cd56 2.378 . S
O65 C63 1.256 . S
O66 Cd67 2.300 . S
O66 C73 1.275 . S
Cd67 O66 2.300 . S
Cd67 O75 2.381 . S
Cd67 O76 2.378 . S
O68 Cd69 2.385 1_554 S
O68 C73 1.255 . S
Cd69 O68 2.385 1_556 S
Cd69 O70 2.317 . S
O70 Cd69 2.317 . S
O70 C71 1.232 . S
C71 O70 1.232 . S
C71 O72 1.218 . S
O72 C71 1.218 . S
C73 O66 1.275 . S
C73 O68 1.255 . S
C74 O75 1.258 . S
C74 O76 1.256 . S
O75 Cd67 2.381 . S
O75 C74 1.258 . S
O76 Cd67 2.378 . S
O76 C74 1.256 . S
O77 Cd78 2.300 . S
O77 C84 1.275 . S
Cd78 O77 2.300 . S
Cd78 O86 2.381 . S
Cd78 O87 2.378 . S
O79 Cd80 2.385 1_554 S
O79 C84 1.255 . S
Cd80 O79 2.385 1_556 S
Cd80 O81 2.317 . S
O81 Cd80 2.317 . S
O81 C82 1.232 . S
C82 O81 1.232 . S
C82 O83 1.218 . S
O83 C82 1.218 . S
C84 O77 1.275 . S
C84 O79 1.255 . S
C85 O86 1.258 . S
C85 O87 1.256 . S
O86 Cd78 2.381 . S
O86 C85 1.258 . S
O87 Cd78 2.378 . S
O87 C85 1.256 . S
Ho88 C91 2.811 . S
Ho88 O108 2.322 . S
Ho88 O110 2.378 . S
Ho88 O111 2.524 . S
Ho88 O112 2.381 . S
Ho88 O113 2.669 1_565 S
Ho88 O115 2.346 1_565 S
Ho88 O119 2.305 1_455 S
Ho89 C100 2.811 . S
Ho89 O109 2.346 1_545 S
Ho89 O113 2.305 1_655 S
Ho89 O114 2.322 . S
Ho89 O116 2.378 . S
Ho89 O117 2.524 1_655 S
Ho89 O118 2.381 . S
Ho89 O119 2.669 1_545 S
C90 O108 1.259 1_655 S
C90 O109 1.268 . S
C91 Ho88 2.811 . S
C91 C92 1.488 . S
C91 O110 1.215 . S
C91 O111 1.289 . S
C92 C91 1.488 . S
C92 C93 1.348 . S
C92 C97 1.413 . S
C93 C92 1.348 . S
C93 C94 1.442 . S
C93 H120 0.930 1_455 S
C94 C93 1.442 . S
C94 C95 1.381 . S
C94 H121 0.931 1_455 S
C95 C94 1.381 . S
C95 C96 1.321 . S
C96 C95 1.321 . S
C96 C97 1.403 . S
C96 H122 0.934 . S
C97 C92 1.413 . S
C97 C96 1.403 . S
C97 H123 0.930 . S
C98 O112 1.275 1_545 S
C98 O113 1.256 . S
C99 O114 1.259 1_455 S
C99 O115 1.268 . S
C100 Ho89 2.811 . S
C100 C101 1.488 . S
C100 O116 1.215 . S
C100 O117 1.289 1_655 S
C101 C100 1.488 . S
C101 C102 1.348 1_655 S
C101 C106 1.413 . S
C102 C101 1.348 1_455 S
C102 C103 1.443 . S
C102 H124 0.930 . S
C103 C102 1.443 . S
C103 C104 1.367 1_455 S
C103 H125 0.943 . S
C104 C103 1.367 1_655 S
C104 C105 1.321 . S
C105 C104 1.321 . S
C105 C106 1.403 . S
C105 H126 0.934 . S
C106 C101 1.413 . S
C106 C105 1.403 . S
C106 H127 0.930 . S
C107 O118 1.275 . S
C107 O119 1.256 1_545 S
O108 Ho88 2.322 . S
O108 C90 1.259 1_455 S
O109 Ho89 2.346 1_565 S
O109 C90 1.268 . S
O110 Ho88 2.378 . S
O110 C91 1.215 . S
O111 Ho88 2.524 . S
O111 C91 1.289 . S
O112 Ho88 2.381 . S
O112 C98 1.275 1_565 S
O113 Ho88 2.669 1_545 S
O113 Ho89 2.305 1_455 S
O113 C98 1.256 . S
O114 Ho89 2.322 . S
O114 C99 1.259 1_655 S
O115 Ho88 2.346 1_545 S
O115 C99 1.268 . S
O116 Ho89 2.378 . S
O116 C100 1.215 . S
O117 Ho89 2.524 1_455 S
O117 C100 1.289 1_455 S
O118 Ho89 2.381 . S
O118 C107 1.275 . S
O119 Ho88 2.305 1_655 S
O119 Ho89 2.669 1_565 S
O119 C107 1.256 1_565 S
H120 C93 0.930 1_655 S
H121 C94 0.931 1_655 S
H122 C96 0.934 . S
H123 C97 0.930 . S
H124 C102 0.930 . S
H125 C103 0.943 . S
H126 C105 0.934 . S
H127 C106 0.930 . S
Ho128 C131 2.811 . S
Ho128 O148 2.322 . S
Ho128 O150 2.378 . S
Ho128 O151 2.524 . S
Ho128 O152 2.381 . S
Ho128 O153 2.669 . S
Ho128 O155 2.346 . S
Ho128 O159 2.305 1_545 S
Ho129 C140 2.811 . S
Ho129 O149 2.346 . S
Ho129 O153 2.305 1_565 S
Ho129 O154 2.322 . S
Ho129 O156 2.378 . S
Ho129 O157 2.524 1_565 S
Ho129 O158 2.381 . S
Ho129 O159 2.669 . S
C130 O148 1.259 1_565 S
C130 O149 1.268 . S
C131 Ho128 2.811 . S
C131 C132 1.488 . S
C131 O150 1.215 . S
C131 O151 1.289 . S
C132 C131 1.488 . S
C132 C133 1.348 . S
C132 C137 1.413 . S
C133 C132 1.348 . S
C133 C134 1.442 . S
C133 H160 0.930 1_545 S
C134 C133 1.442 . S
C134 C135 1.381 . S
C134 H161 0.931 1_545 S
C135 C134 1.381 . S
C135 C136 1.321 . S
C136 C135 1.321 . S
C136 C137 1.403 . S
C136 H162 0.934 . S
C137 C132 1.413 . S
C137 C136 1.403 . S
C137 H163 0.930 . S
C138 O152 1.275 . S
C138 O153 1.256 . S
C139 O154 1.259 1_545 S
C139 O155 1.268 . S
C140 Ho129 2.811 . S
C140 C141 1.488 . S
C140 O156 1.215 . S
C140 O157 1.289 1_565 S
C141 C140 1.488 . S
C141 C142 1.348 1_565 S
C141 C146 1.413 . S
C142 C141 1.348 1_545 S
C142 C143 1.442 . S
C142 H164 0.930 . S
C143 C142 1.442 . S
C143 C144 1.377 1_545 S
C143 H165 0.934 . S
C144 C143 1.377 1_565 S
C144 C145 1.321 . S
C145 C144 1.321 . S
C145 C146 1.403 . S
C145 H166 0.934 . S
C146 C141 1.413 . S
C146 C145 1.403 . S
C146 H167 0.930 . S
C147 O158 1.275 . S
C147 O159 1.256 . S
O148 Ho128 2.322 . S
O148 C130 1.259 1_545 S
O149 Ho129 2.346 . S
O149 C130 1.268 . S
O150 Ho128 2.378 . S
O150 C131 1.215 . S
O151 Ho128 2.524 . S
O151 C131 1.289 . S
O152 Ho128 2.381 . S
O152 C138 1.275 . S
O153 Ho128 2.669 . S
O153 Ho129 2.305 1_545 S
O153 C138 1.256 . S
O154 Ho129 2.322 . S
O154 C139 1.259 1_565 S
O155 Ho128 2.346 . S
O155 C139 1.268 . S
O156 Ho129 2.378 . S
O156 C140 1.215 . S
O157 Ho129 2.524 1_545 S
O157 C140 1.289 1_545 S
O158 Ho129 2.381 . S
O158 C147 1.275 . S
O159 Ho128 2.305 1_565 S
O159 Ho129 2.669 . S
O159 C147 1.256 . S
H160 C133 0.930 1_565 S
H161 C134 0.931 1_565 S
H162 C136 0.934 . S
H163 C137 0.930 . S
H164 C142 0.930 . S
H165 C143 0.934 . S
H166 C145 0.934 . S
H167 C146 0.930 . S
Ho168 C171 2.811 . S
Ho168 O188 2.322 . S
Ho168 O190 2.378 . S
Ho168 O191 2.524 . S
Ho168 O192 2.381 . S
Ho168 O193 2.669 . S
Ho168 O195 2.346 . S
Ho168 O199 2.305 . S
Ho169 C180 2.811 . S
Ho169 O189 2.346 . S
Ho169 O193 2.305 . S
Ho169 O194 2.322 . S
Ho169 O196 2.378 . S
Ho169 O197 2.524 . S
Ho169 O198 2.381 . S
Ho169 O199 2.669 . S
C170 O188 1.259 . S
C170 O189 1.268 . S
C171 Ho168 2.811 . S
C171 C172 1.488 . S
C171 O190 1.215 . S
C171 O191 1.289 . S
C172 C171 1.488 . S
C172 C173 1.348 . S
C172 C177 1.413 . S
C173 C172 1.348 . S
C173 C174 1.442 . S
C173 H200 0.930 . S
C174 C173 1.442 . S
C174 C175 1.381 . S
C174 H201 0.931 . S
C175 C174 1.381 . S
C175 C176 1.321 . S
C176 C175 1.321 . S
C176 C177 1.403 . S
C176 H202 0.934 . S
C177 C172 1.413 . S
C177 C176 1.403 . S
C177 H203 0.930 . S
C178 O192 1.275 . S
C178 O193 1.256 . S
C179 O194 1.259 . S
C179 O195 1.268 . S
C180 Ho169 2.811 . S
C180 C181 1.488 . S
C180 O196 1.215 . S
C180 O197 1.289 . S
C181 C180 1.488 . S
C181 C182 1.348 . S
C181 C186 1.413 . S
C182 C181 1.348 . S
C182 C183 1.442 . S
C182 H204 0.930 . S
C183 C182 1.442 . S
C183 C184 1.381 . S
C183 H205 0.931 . S
C184 C183 1.381 . S
C184 C185 1.321 . S
C185 C184 1.321 . S
C185 C186 1.403 . S
C185 H206 0.934 . S
C186 C181 1.413 . S
C186 C185 1.403 . S
C186 H207 0.930 . S
C187 O198 1.275 . S
C187 O199 1.256 . S
O188 Ho168 2.322 . S
O188 C170 1.259 . S
O189 Ho169 2.346 . S
O189 C170 1.268 . S
O190 Ho168 2.378 . S
O190 C171 1.215 . S
O191 Ho168 2.524 . S
O191 C171 1.289 . S
O192 Ho168 2.381 . S
O192 C178 1.275 . S
O193 Ho168 2.669 . S
O193 Ho169 2.305 . S
O193 C178 1.256 . S
O194 Ho169 2.322 . S
O194 C179 1.259 . S
O195 Ho168 2.346 . S
O195 C179 1.268 . S
O196 Ho169 2.378 . S
O196 C180 1.215 . S
O197 Ho169 2.524 . S
O197 C180 1.289 . S
O198 Ho169 2.381 . S
O198 C187 1.275 . S
O199 Ho168 2.305 . S
O199 Ho169 2.669 . S
O199 C187 1.256 . S
H200 C173 0.930 . S
H201 C174 0.931 . S
H202 C176 0.934 . S
H203 C177 0.930 . S
H204 C182 0.930 . S
H205 C183 0.931 . S
H206 C185 0.934 . S
H207 C186 0.930 . S
Ho208 C211 2.811 . S
Ho208 O228 2.322 . S
Ho208 O230 2.378 . S
Ho208 O231 2.524 . S
Ho208 O232 2.381 . S
Ho208 O233 2.669 1_655 S
Ho208 O235 2.346 1_655 S
Ho208 O239 2.305 . S
Ho209 C220 2.811 . S
Ho209 O229 2.346 1_455 S
Ho209 O233 2.305 . S
Ho209 O234 2.322 . S
Ho209 O236 2.378 . S
Ho209 O237 2.524 . S
Ho209 O238 2.381 . S
Ho209 O239 2.669 1_455 S
C210 O228 1.259 . S
C210 O229 1.268 . S
C211 Ho208 2.811 . S
C211 C212 1.488 . S
C211 O230 1.215 . S
C211 O231 1.289 . S
C212 C211 1.488 . S
C212 C213 1.348 . S
C212 C217 1.413 . S
C213 C212 1.348 . S
C213 C214 1.442 . S
C213 H240 0.930 . S
C214 C213 1.442 . S
C214 C215 1.381 . S
C214 H241 0.931 . S
C215 C214 1.381 . S
C215 C216 1.321 . S
C216 C215 1.321 . S
C216 C217 1.403 . S
C216 H242 0.934 . S
C217 C212 1.413 . S
C217 C216 1.403 . S
C217 H243 0.930 . S
C218 O232 1.275 1_455 S
C218 O233 1.256 . S
C219 O234 1.259 . S
C219 O235 1.268 . S
C220 Ho209 2.811 . S
C220 C221 1.488 . S
C220 O236 1.215 . S
C220 O237 1.289 . S
C221 C220 1.488 . S
C221 C222 1.348 . S
C221 C226 1.413 . S
C222 C221 1.348 . S
C222 C223 1.442 . S
C222 H244 0.930 . S
C223 C222 1.442 . S
C223 C224 1.381 . S
C223 H245 0.931 . S
C224 C223 1.381 . S
C224 C225 1.321 . S
C225 C224 1.321 . S
C225 C226 1.403 . S
C225 H246 0.934 . S
C226 C221 1.413 . S
C226 C225 1.403 . S
C226 H247 0.930 . S
C227 O238 1.275 . S
C227 O239 1.256 1_455 S
O228 Ho208 2.322 . S
O228 C210 1.259 . S
O229 Ho209 2.346 1_655 S
O229 C210 1.268 . S
O230 Ho208 2.378 . S
O230 C211 1.215 . S
O231 Ho208 2.524 . S
O231 C211 1.289 . S
O232 Ho208 2.381 . S
O232 C218 1.275 1_655 S
O233 Ho208 2.669 1_455 S
O233 Ho209 2.305 . S
O233 C218 1.256 . S
O234 Ho209 2.322 . S
O234 C219 1.259 . S
O235 Ho208 2.346 1_455 S
O235 C219 1.268 . S
O236 Ho209 2.378 . S
O236 C220 1.215 . S
O237 Ho209 2.524 . S
O237 C220 1.289 . S
O238 Ho209 2.381 . S
O238 C227 1.275 . S
O239 Ho208 2.305 . S
O239 Ho209 2.669 1_655 S
O239 C227 1.256 1_655 S
H240 C213 0.930 . S
H241 C214 0.931 . S
H242 C216 0.934 . S
H243 C217 0.930 . S
H244 C222 0.930 . S
H245 C223 0.931 . S
H246 C225 0.934 . S
H247 C226 0.930 . S
C248 C249 1.349 1_565 S
C248 C250 1.327 . S
C248 H273 0.950 . S
C249 C248 1.349 1_545 S
C249 C265 1.349 . S
C250 C248 1.327 . S
C250 C269 1.429 1_565 S
C250 H274 0.950 . S
C251 C268 1.574 . S
C251 C270 1.368 . S
C251 H275 0.949 . S
H252 C256 0.949 . S
C253 C254 1.349 . S
C253 C255 1.327 . S
C253 H276 0.950 . S
C254 C253 1.349 . S
C254 C266 1.349 1_545 S
C255 C253 1.327 . S
C255 C271 1.429 . S
C255 H277 0.950 . S
C256 H252 0.949 . S
C256 C264 1.574 . S
C256 C272 1.368 1_565 S
H257 C265 0.950 . S
H258 C263 0.950 . S
H259 C264 0.949 . S
H260 C266 0.950 . S
H261 C267 0.950 . S
H262 C268 0.949 . S
C263 H258 0.950 . S
C263 C265 1.327 . S
C263 C269 1.429 . S
C264 C256 1.574 . S
C264 H259 0.949 . S
C264 C270 1.368 1_565 S
C265 C249 1.349 . S
C265 H257 0.950 . S
C265 C263 1.327 . S
C266 C254 1.349 1_565 S
C266 H260 0.950 . S
C266 C267 1.327 . S
C267 H261 0.950 . S
C267 C266 1.327 . S
C267 C271 1.429 1_565 S
C268 C251 1.574 . S
C268 H262 0.949 . S
C268 C272 1.368 . S
C269 C250 1.429 1_545 S
C269 C263 1.429 . S
C269 C270 1.523 . S
C270 C251 1.368 . S
C270 C264 1.368 1_545 S
C270 C269 1.523 . S
C271 C255 1.429 . S
C271 C267 1.429 1_545 S
C271 C272 1.523 . S
C272 C256 1.368 1_545 S
C272 C268 1.368 . S
C272 C271 1.523 . S
H273 C248 0.950 . S
H274 C250 0.950 . S
H275 C251 0.949 . S
H276 C253 0.950 . S
H277 C255 0.950 . S
C278 C279 1.349 . S
C278 C280 1.327 . S
C278 H303 0.950 . S
C279 C278 1.349 . S
C279 C295 1.349 . S
C280 C278 1.327 . S
C280 C299 1.429 . S
C280 H304 0.950 . S
C281 C298 1.574 . S
C281 C300 1.368 . S
C281 H305 0.949 . S
H282 C286 0.949 . S
C283 C284 1.349 . S
C283 C285 1.327 . S
C283 H306 0.950 . S
C284 C283 1.349 . S
C284 C296 1.349 . S
C285 C283 1.327 . S
C285 C301 1.429 . S
C285 H307 0.950 . S
C286 H282 0.949 . S
C286 C294 1.574 . S
C286 C302 1.368 . S
H287 C295 0.950 . S
H288 C293 0.950 . S
H289 C294 0.949 . S
H290 C296 0.950 . S
H291 C297 0.950 . S
H292 C298 0.949 . S
C293 H288 0.950 . S
C293 C295 1.327 . S
C293 C299 1.429 . S
C294 C286 1.574 . S
C294 H289 0.949 . S
C294 C300 1.368 . S
C295 C279 1.349 . S
C295 H287 0.950 . S
C295 C293 1.327 . S
C296 C284 1.349 . S
C296 H290 0.950 . S
C296 C297 1.327 . S
C297 H291 0.950 . S
C297 C296 1.327 . S
C297 C301 1.429 . S
C298 C281 1.574 . S
C298 H292 0.949 . S
C298 C302 1.368 . S
C299 C280 1.429 . S
C299 C293 1.429 . S
C299 C300 1.523 . S
C300 C281 1.368 . S
C300 C294 1.368 . S
C300 C299 1.523 . S
C301 C285 1.429 . S
C301 C297 1.429 . S
C301 C302 1.523 . S
C302 C286 1.368 . S
C302 C298 1.368 . S
C302 C301 1.523 . S
H303 C278 0.950 . S
H304 C280 0.950 . S
H305 C281 0.949 . S
H306 C283 0.950 . S
H307 C285 0.950 . S
C308 C309 1.349 . S
C308 C310 1.327 . S
C308 H333 0.950 . S
C309 C308 1.349 . S
C309 C325 1.349 . S
C310 C308 1.327 . S
C310 C329 1.429 . S
C310 H334 0.950 . S
C311 C328 1.574 . S
C311 C330 1.368 . S
C311 H335 0.949 . S
H312 C316 0.949 . S
C313 C314 1.349 . S
C313 C315 1.327 . S
C313 H336 0.950 . S
C314 C313 1.349 . S
C314 C326 1.349 . S
C315 C313 1.327 . S
C315 C331 1.429 . S
C315 H337 0.950 . S
C316 H312 0.949 . S
C316 C324 1.574 . S
C316 C332 1.368 . S
H317 C325 0.950 . S
H318 C323 0.950 . S
H319 C324 0.949 . S
H320 C326 0.950 . S
H321 C327 0.950 . S
H322 C328 0.949 . S
C323 H318 0.950 . S
C323 C325 1.327 . S
C323 C329 1.429 . S
C324 C316 1.574 . S
C324 H319 0.949 . S
C324 C330 1.368 . S
C325 C309 1.349 . S
C325 H317 0.950 . S
C325 C323 1.327 . S
C326 C314 1.349 . S
C326 H320 0.950 . S
C326 C327 1.327 . S
C327 H321 0.950 . S
C327 C326 1.327 . S
C327 C331 1.429 . S
C328 C311 1.574 . S
C328 H322 0.949 . S
C328 C332 1.368 . S
C329 C310 1.429 . S
C329 C323 1.429 . S
C329 C330 1.523 . S
C330 C311 1.368 . S
C330 C324 1.368 . S
C330 C329 1.523 . S
C331 C315 1.429 . S
C331 C327 1.429 . S
C331 C332 1.523 . S
C332 C316 1.368 . S
C332 C328 1.368 . S
C332 C331 1.523 . S
H333 C308 0.950 . S
H334 C310 0.950 . S
H335 C311 0.949 . S
H336 C313 0.950 . S
H337 C315 0.950 . S
C338 C339 1.349 1_655 S
C338 C340 1.327 . S
C338 H363 0.950 . S
C339 C338 1.349 1_455 S
C339 C355 1.349 . S
C340 C338 1.327 . S
C340 C359 1.429 1_655 S
C340 H364 0.950 . S
C341 C358 1.574 . S
C341 C360 1.368 . S
C341 H365 0.949 . S
H342 C346 0.949 . S
C343 C344 1.349 . S
C343 C345 1.327 . S
C343 H366 0.950 . S
C344 C343 1.349 . S
C344 C356 1.349 1_455 S
C345 C343 1.327 . S
C345 C361 1.429 . S
C345 H367 0.950 . S
C346 H342 0.949 . S
C346 C354 1.574 . S
C346 C362 1.368 1_655 S
H347 C355 0.950 . S
H348 C353 0.950 . S
H349 C354 0.949 . S
H350 C356 0.950 . S
H351 C357 0.950 . S
H352 C358 0.949 . S
C353 H348 0.950 . S
C353 C355 1.327 . S
C353 C359 1.429 . S
C354 C346 1.574 . S
C354 H349 0.949 . S
C354 C360 1.368 1_655 S
C355 C339 1.349 . S
C355 H347 0.950 . S
C355 C353 1.327 . S
C356 C344 1.349 1_655 S
C356 H350 0.950 . S
C356 C357 1.327 . S
C357 H351 0.950 . S
C357 C356 1.327 . S
C357 C361 1.429 1_655 S
C358 C341 1.574 . S
C358 H352 0.949 . S
C358 C362 1.368 . S
C359 C340 1.429 1_455 S
C359 C353 1.429 . S
C359 C360 1.523 . S
C360 C341 1.368 . S
C360 C354 1.368 1_455 S
C360 C359 1.523 . S
C361 C345 1.429 . S
C361 C357 1.429 1_455 S
C361 C362 1.523 . S
C362 C346 1.368 1_455 S
C362 C358 1.368 . S
C362 C361 1.523 . S
H363 C338 0.950 . S
H364 C340 0.950 . S
H365 C341 0.949 . S
H366 C343 0.950 . S
H367 C345 0.950 . S
C368 C369 1.349 1_545 S
C368 C370 1.327 . S
C368 H393 0.950 . S
C369 C368 1.349 1_565 S
C369 C385 1.349 . S
C370 C368 1.327 . S
C370 C389 1.409 1_545 S
C370 H394 0.950 . S
C371 C388 1.574 . S
C371 C390 1.371 1_556 S
C371 H395 0.949 . S
H372 C376 0.949 . S
C373 C374 1.349 1_565 S
C373 C375 1.327 . S
C373 H396 0.950 . S
C374 C373 1.349 1_545 S
C374 C386 1.349 . S
C375 C373 1.327 . S
C375 C391 1.394 1_565 S
C375 H397 0.950 . S
C376 H372 0.949 . S
C376 C384 1.574 1_556 S
C376 C392 1.388 . S
H377 C385 0.950 . S
H378 C383 0.950 . S
H379 C384 0.949 . S
H380 C386 0.950 . S
H381 C387 0.950 . S
H382 C388 0.949 . S
C383 H378 0.950 . S
C383 C385 1.327 . S
C383 C389 1.449 . S
C384 C376 1.574 1_554 S
C384 H379 0.949 . S
C384 C390 1.366 1_545 S
C385 C369 1.349 . S
C385 H377 0.950 . S
C385 C383 1.327 . S
C386 C374 1.349 . S
C386 H380 0.950 . S
C386 C387 1.327 . S
C387 H381 0.950 . S
C387 C386 1.327 . S
C387 C391 1.465 . S
C388 C371 1.574 . S
C388 H382 0.949 . S
C388 C392 1.348 1_565 S
C389 C370 1.409 1_565 S
C389 C383 1.449 . S
C389 C390 1.523 . S
C390 C371 1.371 1_554 S
C390 C384 1.366 1_565 S
C390 C389 1.523 . S
C391 C375 1.394 1_545 S
C391 C387 1.465 . S
C391 C392 1.523 . S
C392 C376 1.388 . S
C392 C388 1.348 1_545 S
C392 C391 1.523 . S
H393 C368 0.950 . S
H394 C370 0.950 . S
H395 C371 0.949 . S
H396 C373 0.950 . S
H397 C375 0.950 . S
C398 C399 1.349 . S
C398 C400 1.327 . S
C398 H423 0.950 . S
C399 C398 1.349 . S
C399 C415 1.349 . S
C400 C398 1.327 . S
C400 C419 1.429 . S
C400 H424 0.950 . S
C401 C418 1.574 1_554 S
C401 C420 1.368 . S
C401 H425 0.949 . S
H402 C406 0.949 . S
C403 C404 1.349 . S
C403 C405 1.327 . S
C403 H426 0.950 . S
C404 C403 1.349 . S
C404 C416 1.349 . S
C405 C403 1.327 . S
C405 C421 1.429 . S
C405 H427 0.950 . S
C406 H402 0.949 . S
C406 C414 1.574 . S
C406 C422 1.368 . S
H407 C415 0.950 . S
H408 C413 0.950 . S
H409 C414 0.949 . S
H410 C416 0.950 . S
H411 C417 0.950 . S
H412 C418 0.949 . S
C413 H408 0.950 . S
C413 C415 1.327 . S
C413 C419 1.429 . S
C414 C406 1.574 . S
C414 H409 0.949 . S
C414 C420 1.368 1_556 S
C415 C399 1.349 . S
C415 H407 0.950 . S
C415 C413 1.327 . S
C416 C404 1.349 . S
C416 H410 0.950 . S
C416 C417 1.327 . S
C417 H411 0.950 . S
C417 C416 1.327 . S
C417 C421 1.429 . S
C418 C401 1.574 1_556 S
C418 H412 0.949 . S
C418 C422 1.368 . S
C419 C400 1.429 . S
C419 C413 1.429 . S
C419 C420 1.523 . S
C420 C401 1.368 . S
C420 C414 1.368 1_554 S
C420 C419 1.523 . S
C421 C405 1.429 . S
C421 C417 1.429 . S
C421 C422 1.523 . S
C422 C406 1.368 . S
C422 C418 1.368 . S
C422 C421 1.523 . S
H423 C398 0.950 . S
H424 C400 0.950 . S
H425 C401 0.949 . S
H426 C403 0.950 . S
H427 C405 0.950 . S
C428 C429 1.349 . S
C428 C430 1.327 . S
C428 H453 0.950 . S
C429 C428 1.349 . S
C429 C445 1.349 . S
C430 C428 1.327 . S
C430 C449 1.429 . S
C430 H454 0.950 . S
C431 C448 1.574 . S
C431 C450 1.368 1_556 S
C431 H455 0.949 . S
H432 C436 0.949 . S
C433 C434 1.349 . S
C433 C435 1.327 . S
C433 H456 0.950 . S
C434 C433 1.349 . S
C434 C446 1.349 . S
C435 C433 1.327 . S
C435 C451 1.429 . S
C435 H457 0.950 . S
C436 H432 0.949 . S
C436 C444 1.574 1_556 S
C436 C452 1.368 . S
H437 C445 0.950 . S
H438 C443 0.950 . S
H439 C444 0.949 . S
H440 C446 0.950 . S
H441 C447 0.950 . S
H442 C448 0.949 . S
C443 H438 0.950 . S
C443 C445 1.327 . S
C443 C449 1.429 . S
C444 C436 1.574 1_554 S
C444 H439 0.949 . S
C444 C450 1.368 . S
C445 C429 1.349 . S
C445 H437 0.950 . S
C445 C443 1.327 . S
C446 C434 1.349 . S
C446 H440 0.950 . S
C446 C447 1.327 . S
C447 H441 0.950 . S
C447 C446 1.327 . S
C447 C451 1.429 . S
C448 C431 1.574 . S
C448 H442 0.949 . S
C448 C452 1.368 . S
C449 C430 1.429 . S
C449 C443 1.429 . S
C449 C450 1.523 . S
C450 C431 1.368 1_554 S
C450 C444 1.368 . S
C450 C449 1.523 . S
C451 C435 1.429 . S
C451 C447 1.429 . S
C451 C452 1.523 . S
C452 C436 1.368 . S
C452 C448 1.368 . S
C452 C451 1.523 . S
H453 C428 0.950 . S
H454 C430 0.950 . S
H455 C431 0.949 . S
H456 C433 0.950 . S
H457 C435 0.950 . S
C458 C459 1.356 . S
C458 C460 1.327 . S
C458 H483 0.950 . S
C459 C458 1.356 . S
C459 C475 1.343 1_655 S
C460 C458 1.327 . S
C460 C479 1.430 . S
C460 H484 0.950 . S
C461 C478 1.574 . S
C461 C480 1.368 1_556 S
C461 H485 0.949 . S
H462 C466 0.949 . S
C463 C464 1.349 . S
C463 C465 1.327 . S
C463 H486 0.950 . S
C464 C463 1.349 . S
C464 C476 1.345 1_455 S
C465 C463 1.327 . S
C465 C481 1.429 . S
C465 H487 0.950 . S
C466 H462 0.949 . S
C466 C474 1.574 . S
C466 C482 1.363 1_654 S
H467 C475 0.950 . S
H468 C473 0.950 . S
H469 C474 0.949 . S
H470 C476 0.955 . S
H471 C477 0.960 . S
H472 C478 0.949 . S
C473 H468 0.950 . S
C473 C475 1.327 . S
C473 C479 1.427 1_455 S
C474 C466 1.574 . S
C474 H469 0.949 . S
C474 C480 1.368 1_655 S
C475 C459 1.343 1_455 S
C475 H467 0.950 . S
C475 C473 1.327 . S
C476 C464 1.345 1_655 S
C476 H470 0.955 . S
C476 C477 1.327 . S
C477 H471 0.960 . S
C477 C476 1.327 . S
C477 C481 1.423 1_655 S
C478 C461 1.574 . S
C478 H472 0.949 . S
C478 C482 1.374 . S
C479 C460 1.430 . S
C479 C473 1.427 1_655 S
C479 C480 1.523 1_655 S
C480 C461 1.368 1_554 S
C480 C474 1.368 1_455 S
C480 C479 1.523 1_455 S
C481 C465 1.429 . S
C481 C477 1.423 1_455 S
C481 C482 1.524 . S
C482 C466 1.363 1_456 S
C482 C478 1.374 . S
C482 C481 1.524 . S
H483 C458 0.950 . S
H484 C460 0.950 . S
H485 C461 0.949 . S
H486 C463 0.950 . S
H487 C465 0.950 . S
C488 C489 1.349 1_655 S
C488 C490 1.327 . S
C488 H513 0.950 . S
C489 C488 1.349 1_455 S
C489 C505 1.349 . S
C490 C488 1.327 . S
C490 C509 1.429 1_655 S
C490 H514 0.950 . S
C491 C508 1.574 . S
C491 C510 1.368 1_455 S
C491 H515 0.949 . S
H492 C496 0.949 . S
C493 C494 1.349 . S
C493 C495 1.327 . S
C493 H516 0.950 1_655 S
C494 C493 1.349 . S
C494 C506 1.349 . S
C495 C493 1.327 . S
C495 C511 1.429 . S
C495 H517 0.950 1_655 S
C496 H492 0.949 . S
C496 C504 1.574 . S
C496 C512 1.368 . S
H497 C505 0.950 . S
H498 C503 0.950 . S
H499 C504 0.949 . S
H500 C506 0.950 . S
H501 C507 0.950 . S
H502 C508 0.949 . S
C503 H498 0.950 . S
C503 C505 1.327 . S
C503 C509 1.429 . S
C504 C496 1.574 . S
C504 H499 0.949 . S
C504 C510 1.368 . S
C505 C489 1.349 . S
C505 H497 0.950 . S
C505 C503 1.327 . S
C506 C494 1.349 . S
C506 H500 0.950 . S
C506 C507 1.327 . S
C507 H501 0.950 . S
C507 C506 1.327 . S
C507 C511 1.429 . S
C508 C491 1.574 . S
C508 H502 0.949 . S
C508 C512 1.368 1_455 S
C509 C490 1.429 1_455 S
C509 C503 1.429 . S
C509 C510 1.523 1_455 S
C510 C491 1.368 1_655 S
C510 C504 1.368 . S
C510 C509 1.523 1_655 S
C511 C495 1.429 . S
C511 C507 1.429 . S
C511 C512 1.523 . S
C512 C496 1.368 . S
C512 C508 1.368 1_655 S
C512 C511 1.523 . S
H513 C488 0.950 . S
H514 C490 0.950 . S
H515 C491 0.949 . S
H516 C493 0.950 1_455 S
H517 C495 0.950 1_455 S
C518 C519 1.349 . S
C518 C520 1.327 . S
C518 H543 0.950 . S
C519 C518 1.349 . S
C519 C535 1.349 . S
C520 C518 1.327 . S
C520 C539 1.429 . S
C520 H544 0.950 . S
C521 C538 1.574 . S
C521 C540 1.368 . S
C521 H545 0.949 . S
H522 C526 0.959 . S
C523 C524 1.349 . S
C523 C525 1.327 . S
C523 H546 0.950 . S
C524 C523 1.349 . S
C524 C536 1.349 . S
C525 C523 1.327 . S
C525 C541 1.429 . S
C525 H547 0.950 . S
C526 H522 0.959 . S
C526 C534 1.574 1_565 S
C526 C542 1.368 . S
H527 C535 0.958 . S
H528 C533 0.968 . S
H529 C534 0.949 . S
H530 C536 0.950 . S
H531 C537 0.950 . S
H532 C538 0.949 . S
C533 H528 0.968 . S
C533 C535 1.318 1_565 S
C533 C539 1.423 1_565 S
C534 C526 1.574 1_545 S
C534 H529 0.949 . S
C534 C540 1.368 1_545 S
C535 C519 1.349 . S
C535 H527 0.958 . S
C535 C533 1.318 1_545 S
C536 C524 1.349 . S
C536 H530 0.950 . S
C536 C537 1.327 . S
C537 H531 0.950 . S
C537 C536 1.327 . S
C537 C541 1.429 . S
C538 C521 1.574 . S
C538 H532 0.949 . S
C538 C542 1.368 . S
C539 C520 1.429 . S
C539 C533 1.423 1_545 S
C539 C540 1.523 1_545 S
C540 C521 1.368 . S
C540 C534 1.368 1_565 S
C540 C539 1.523 1_565 S
C541 C525 1.429 . S
C541 C537 1.429 . S
C541 C542 1.523 . S
C542 C526 1.368 . S
C542 C538 1.368 . S
C542 C541 1.523 . S
H543 C518 0.950 . S
H544 C520 0.950 . S
H545 C521 0.949 . S
H546 C523 0.950 . S
H547 C525 0.950 . S
C548 C549 1.349 . S
C548 C550 1.327 . S
C548 H573 0.950 . S
C549 C548 1.349 . S
C549 C565 1.349 . S
C550 C548 1.327 . S
C550 C569 1.429 . S
C550 H574 0.950 . S
C551 C568 1.574 . S
C551 C570 1.368 . S
C551 H575 0.949 . S
H552 C556 0.949 . S
C553 C554 1.349 . S
C553 C555 1.327 . S
C553 H576 0.950 . S
C554 C553 1.349 . S
C554 C566 1.349 . S
C555 C553 1.327 . S
C555 C571 1.429 . S
C555 H577 0.950 . S
C556 H552 0.949 . S
C556 C564 1.574 . S
C556 C572 1.368 . S
H557 C565 0.950 . S
H558 C563 0.950 . S
H559 C564 0.949 . S
H560 C566 0.950 . S
H561 C567 0.950 . S
H562 C568 0.949 . S
C563 H558 0.950 . S
C563 C565 1.327 . S
C563 C569 1.429 . S
C564 C556 1.574 . S
C564 H559 0.949 . S
C564 C570 1.368 . S
C565 C549 1.349 . S
C565 H557 0.950 . S
C565 C563 1.327 . S
C566 C554 1.349 . S
C566 H560 0.950 . S
C566 C567 1.327 . S
C567 H561 0.950 . S
C567 C566 1.327 . S
C567 C571 1.429 . S
C568 C551 1.574 . S
C568 H562 0.949 . S
C568 C572 1.368 . S
C569 C550 1.429 . S
C569 C563 1.429 . S
C569 C570 1.523 . S
C570 C551 1.368 . S
C570 C564 1.368 . S
C570 C569 1.523 . S
C571 C555 1.429 . S
C571 C567 1.429 . S
C571 C572 1.523 . S
C572 C556 1.368 . S
C572 C568 1.368 . S
C572 C571 1.523 . S
H573 C548 0.950 . S
H574 C550 0.950 . S
H575 C551 0.949 . S
H576 C553 0.950 . S
H577 C555 0.950 . S
C578 C579 1.349 . S
C578 C580 1.327 . S
C578 H603 0.950 . S
C579 C578 1.349 . S
C579 C595 1.349 . S
C580 C578 1.327 . S
C580 C599 1.429 . S
C580 H604 0.950 . S
C581 C598 1.574 . S
C581 C600 1.368 . S
C581 H605 0.949 . S
H582 C586 0.949 . S
C583 C584 1.349 . S
C583 C585 1.327 . S
C583 H606 0.950 . S
C584 C583 1.349 . S
C584 C596 1.349 . S
C585 C583 1.327 . S
C585 C601 1.429 . S
C585 H607 0.950 . S
C586 H582 0.949 . S
C586 C594 1.574 . S
C586 C602 1.368 . S
H587 C595 0.950 . S
H588 C593 0.950 . S
H589 C594 0.949 . S
H590 C596 0.950 . S
H591 C597 0.950 . S
H592 C598 0.949 . S
C593 H588 0.950 . S
C593 C595 1.327 . S
C593 C599 1.429 . S
C594 C586 1.574 . S
C594 H589 0.949 . S
C594 C600 1.368 . S
C595 C579 1.349 . S
C595 H587 0.950 . S
C595 C593 1.327 . S
C596 C584 1.349 . S
C596 H590 0.950 . S
C596 C597 1.327 . S
C597 H591 0.950 . S
C597 C596 1.327 . S
C597 C601 1.429 . S
C598 C581 1.574 . S
C598 H592 0.949 . S
C598 C602 1.368 . S
C599 C580 1.429 . S
C599 C593 1.429 . S
C599 C600 1.523 . S
C600 C581 1.368 . S
C600 C594 1.368 . S
C600 C599 1.523 . S
C601 C585 1.429 . S
C601 C597 1.429 . S
C601 C602 1.523 . S
C602 C586 1.368 . S
C602 C598 1.368 . S
C602 C601 1.523 . S
H603 C578 0.950 . S
H604 C580 0.950 . S
H605 C581 0.949 . S
H606 C583 0.950 . S
H607 C585 0.950 . S
C608 C609 1.349 1_455 S
C608 C610 1.327 . S
C608 H633 0.950 . S
C609 C608 1.349 1_655 S
C609 C625 1.349 . S
C610 C608 1.327 . S
C610 C629 1.429 . S
C610 H634 0.950 . S
C611 C628 1.583 1_554 S
C611 C630 1.389 . S
C611 H635 0.924 1_455 S
H612 C616 0.949 . S
C613 C614 1.349 . S
C613 C615 1.327 . S
C613 H636 0.950 . S
C614 C613 1.349 . S
C614 C626 1.349 . S
C615 C613 1.327 . S
C615 C631 1.429 . S
C615 H637 0.950 . S
C616 H612 0.949 . S
C616 C624 1.574 . S
C616 C632 1.368 . S
H617 C625 0.950 . S
H618 C623 0.950 . S
H619 C624 0.949 . S
H620 C626 0.950 1_554 S
H621 C627 0.950 . S
H622 C628 0.949 . S
C623 H618 0.950 . S
C623 C625 1.327 . S
C623 C629 1.429 1_655 S
C624 C616 1.574 . S
C624 H619 0.949 . S
C624 C630 1.368 . S
C625 C609 1.349 . S
C625 H617 0.950 . S
C625 C623 1.327 . S
C626 C614 1.349 . S
C626 H620 0.950 1_556 S
C626 C627 1.327 1_556 S
C627 H621 0.950 . S
C627 C626 1.327 1_554 S
C627 C631 1.429 1_554 S
C628 C611 1.583 1_556 S
C628 H622 0.949 . S
C628 C632 1.368 1_556 S
C629 C610 1.429 . S
C629 C623 1.429 1_455 S
C629 C630 1.523 . S
C630 C611 1.389 . S
C630 C624 1.368 . S
C630 C629 1.523 . S
C631 C615 1.429 . S
C631 C627 1.429 1_556 S
C631 C632 1.523 1_556 S
C632 C616 1.368 . S
C632 C628 1.368 1_554 S
C632 C631 1.523 1_554 S
H633 C608 0.950 . S
H634 C610 0.950 . S
H635 C611 0.924 1_655 S
H636 C613 0.950 . S
H637 C615 0.950 . S
C638 C639 1.349 . S
C638 C640 1.327 . S
C638 H663 0.950 . S
C639 C638 1.349 . S
C639 C655 1.349 1_565 S
C640 C638 1.327 . S
C640 C659 1.429 1_565 S
C640 H664 0.950 . S
C641 C658 1.574 . S
C641 C660 1.368 . S
C641 H665 0.949 . S
H642 C646 0.949 . S
C643 C644 1.349 . S
C643 C645 1.327 . S
C643 H666 0.950 . S
C644 C643 1.349 . S
C644 C656 1.349 . S
C645 C643 1.327 . S
C645 C661 1.429 . S
C645 H667 0.950 . S
C646 H642 0.949 . S
C646 C654 1.574 . S
C646 C662 1.368 1_565 S
H647 C655 0.950 . S
H648 C653 0.950 . S
H649 C654 0.949 . S
H650 C656 0.950 1_565 S
H651 C657 0.950 1_565 S
H652 C658 0.949 . S
C653 H648 0.950 . S
C653 C655 1.327 . S
C653 C659 1.429 . S
C654 C646 1.574 . S
C654 H649 0.949 . S
C654 C660 1.368 1_565 S
C655 C639 1.349 1_545 S
C655 H647 0.950 . S
C655 C653 1.327 . S
C656 C644 1.349 . S
C656 H650 0.950 1_545 S
C656 C657 1.327 . S
C657 H651 0.950 1_545 S
C657 C656 1.327 . S
C657 C661 1.429 . S
C658 C641 1.574 . S
C658 H652 0.949 . S
C658 C662 1.368 . S
C659 C640 1.429 1_545 S
C659 C653 1.429 . S
C659 C660 1.523 . S
C660 C641 1.368 . S
C660 C654 1.368 1_545 S
C660 C659 1.523 . S
C661 C645 1.429 . S
C661 C657 1.429 . S
C661 C662 1.523 1_556 S
C662 C646 1.368 1_545 S
C662 C658 1.368 . S
C662 C661 1.523 1_554 S
H663 C638 0.950 . S
H664 C640 0.950 . S
H665 C641 0.949 . S
H666 C643 0.950 . S
H667 C645 0.950 . S
C668 C669 1.349 . S
C668 C670 1.327 . S
C668 H693 0.950 . S
C669 C668 1.349 . S
C669 C685 1.349 . S
C670 C668 1.327 . S
C670 C689 1.429 . S
C670 H694 0.950 . S
C671 C688 1.574 . S
C671 C690 1.368 . S
C671 H695 0.949 . S
H672 C676 0.949 1_556 S
C673 C674 1.349 . S
C673 C675 1.327 . S
C673 H696 0.950 . S
C674 C673 1.349 . S
C674 C686 1.349 . S
C675 C673 1.327 . S
C675 C691 1.429 . S
C675 H697 0.950 1_556 S
C676 H672 0.949 1_554 S
C676 C684 1.574 . S
C676 C692 1.368 . S
H677 C685 0.950 . S
H678 C683 0.950 . S
H679 C684 0.949 . S
H680 C686 0.950 . S
H681 C687 0.950 . S
H682 C688 0.949 . S
C683 H678 0.950 . S
C683 C685 1.327 . S
C683 C689 1.429 . S
C684 C676 1.574 . S
C684 H679 0.949 . S
C684 C690 1.368 . S
C685 C669 1.349 . S
C685 H677 0.950 . S
C685 C683 1.327 . S
C686 C674 1.349 . S
C686 H680 0.950 . S
C686 C687 1.327 . S
C687 H681 0.950 . S
C687 C686 1.327 . S
C687 C691 1.429 . S
C688 C671 1.574 . S
C688 H682 0.949 . S
C688 C692 1.368 . S
C689 C670 1.429 . S
C689 C683 1.429 . S
C689 C690 1.523 . S
C690 C671 1.368 . S
C690 C684 1.368 . S
C690 C689 1.523 . S
C691 C675 1.429 . S
C691 C687 1.429 . S
C691 C692 1.523 1_556 S
C692 C676 1.368 . S
C692 C688 1.368 . S
C692 C691 1.523 1_554 S
H693 C668 0.950 . S
H694 C670 0.950 . S
H695 C671 0.949 . S
H696 C673 0.950 . S
H697 C675 0.950 1_554 S
C698 C699 1.349 . S
C698 C700 1.327 . S
C698 H723 0.950 . S
C699 C698 1.349 . S
C699 C715 1.349 . S
C700 C698 1.327 . S
C700 C719 1.429 . S
C700 H724 0.950 . S
C701 C718 1.574 . S
C701 C720 1.368 . S
C701 H725 0.949 . S
H702 C706 0.949 . S
C703 C704 1.349 . S
C703 C705 1.327 . S
C703 H726 0.950 . S
C704 C703 1.349 . S
C704 C716 1.349 . S
C705 C703 1.327 . S
C705 C721 1.429 . S
C705 H727 0.950 . S
C706 H702 0.949 . S
C706 C714 1.574 . S
C706 C722 1.368 . S
H707 C715 0.950 . S
H708 C713 0.950 . S
H709 C714 0.949 . S
H710 C716 0.950 . S
H711 C717 0.950 . S
H712 C718 0.949 1_556 S
C713 H708 0.950 . S
C713 C715 1.327 . S
C713 C719 1.429 . S
C714 C706 1.574 . S
C714 H709 0.949 . S
C714 C720 1.368 . S
C715 C699 1.349 . S
C715 H707 0.950 . S
C715 C713 1.327 . S
C716 C704 1.349 . S
C716 H710 0.950 . S
C716 C717 1.327 1_556 S
C717 H711 0.950 . S
C717 C716 1.327 1_554 S
C717 C721 1.429 1_554 S
C718 C701 1.574 . S
C718 H712 0.949 1_554 S
C718 C722 1.368 . S
C719 C700 1.429 . S
C719 C713 1.429 . S
C719 C720 1.523 . S
C720 C701 1.368 . S
C720 C714 1.368 . S
C720 C719 1.523 . S
C721 C705 1.429 . S
C721 C717 1.429 1_556 S
C721 C722 1.523 1_556 S
C722 C706 1.368 . S
C722 C718 1.368 . S
C722 C721 1.523 1_554 S
H723 C698 0.950 . S
H724 C700 0.950 . S
H725 C701 0.949 . S
H726 C703 0.950 . S
H727 C705 0.950 . S
C728 C729 1.349 1_655 S
C728 C730 1.327 . S
C728 H753 0.950 . S
C729 C728 1.349 1_455 S
C729 C745 1.349 . S
C730 C728 1.327 . S
C730 C749 1.429 1_655 S
C730 H754 0.950 . S
C731 C748 1.574 . S
C731 C750 1.368 . S
C731 H755 0.949 . S
H732 C736 0.949 . S
C733 C734 1.349 . S
C733 C735 1.327 . S
C733 H756 0.950 . S
C734 C733 1.349 . S
C734 C746 1.349 . S
C735 C733 1.327 . S
C735 C751 1.429 . S
C735 H757 0.950 . S
C736 H732 0.949 . S
C736 C744 1.574 . S
C736 C752 1.368 1_655 S
H737 C745 0.950 . S
H738 C743 0.950 . S
H739 C744 0.949 . S
H740 C746 0.950 1_655 S
H741 C747 0.931 1_655 S
H742 C748 0.949 . S
C743 H738 0.950 . S
C743 C745 1.327 . S
C743 C749 1.429 . S
C744 C736 1.574 . S
C744 H739 0.949 . S
C744 C750 1.368 1_655 S
C745 C729 1.349 . S
C745 H737 0.950 . S
C745 C743 1.327 . S
C746 C734 1.349 . S
C746 H740 0.950 1_455 S
C746 C747 1.329 . S
C747 H741 0.931 1_455 S
C747 C746 1.329 . S
C747 C751 1.446 . S
C748 C731 1.574 . S
C748 H742 0.949 . S
C748 C752 1.368 . S
C749 C730 1.429 1_455 S
C749 C743 1.429 . S
C749 C750 1.523 . S
C750 C731 1.368 . S
C750 C744 1.368 1_455 S
C750 C749 1.523 . S
C751 C735 1.429 . S
C751 C747 1.446 . S
C751 C752 1.523 . S
C752 C736 1.368 1_455 S
C752 C748 1.368 . S
C752 C751 1.523 . S
H753 C728 0.950 . S
H754 C730 0.950 . S
H755 C731 0.949 . S
H756 C733 0.950 . S
H757 C735 0.950 . S
C758 C759 1.349 1_565 S
C758 C760 1.327 . S
C758 H783 0.950 . S
C759 C758 1.349 1_545 S
C759 C775 1.349 . S
C760 C758 1.327 . S
C760 C779 1.429 1_565 S
C760 H784 0.950 . S
C761 C778 1.574 . S
C761 C780 1.368 . S
C761 H785 0.949 . S
H762 C766 0.949 . S
C763 C764 1.349 . S
C763 C765 1.327 . S
C763 H786 0.950 . S
C764 C763 1.349 . S
C764 C776 1.329 1_545 S
C765 C763 1.327 . S
C765 C781 1.429 . S
C765 H787 0.950 . S
C766 H762 0.949 . S
C766 C774 1.574 . S
C766 C782 1.368 1_565 S
H767 C775 0.950 . S
H768 C773 0.950 . S
H769 C774 0.949 . S
H770 C776 0.969 . S
H771 C777 0.950 . S
H772 C778 0.949 . S
C773 H768 0.950 . S
C773 C775 1.327 . S
C773 C779 1.429 . S
C774 C766 1.574 . S
C774 H769 0.949 . S
C774 C780 1.368 1_565 S
C775 C759 1.349 . S
C775 H767 0.950 . S
C775 C773 1.327 . S
C776 C764 1.329 1_565 S
C776 H770 0.969 . S
C776 C777 1.329 . S
C777 H771 0.950 . S
C777 C776 1.329 . S
C777 C781 1.429 1_565 S
C778 C761 1.574 . S
C778 H772 0.949 . S
C778 C782 1.368 . S
C779 C760 1.429 1_545 S
C779 C773 1.429 . S
C779 C780 1.523 . S
C780 C761 1.368 . S
C780 C774 1.368 1_545 S
C780 C779 1.523 . S
C781 C765 1.429 . S
C781 C777 1.429 1_545 S
C781 C782 1.523 . S
C782 C766 1.368 1_545 S
C782 C778 1.368 . S
C782 C781 1.523 . S
H783 C758 0.950 . S
H784 C760 0.950 . S
H785 C761 0.949 . S
H786 C763 0.950 . S
H787 C765 0.950 . S
C788 C789 1.349 . S
C788 C790 1.327 . S
C788 H813 0.950 . S
C789 C788 1.349 . S
C789 C805 1.349 . S
C790 C788 1.327 . S
C790 C809 1.429 . S
C790 H814 0.950 . S
C791 C808 1.574 . S
C791 C810 1.368 . S
C791 H815 0.949 . S
H792 C796 0.949 . S
C793 C794 1.349 . S
C793 C795 1.327 . S
C793 H816 0.950 . S
C794 C793 1.349 . S
C794 C806 1.349 . S
C795 C793 1.327 . S
C795 C811 1.429 . S
C795 H817 0.950 . S
C796 H792 0.949 . S
C796 C804 1.574 . S
C796 C812 1.368 . S
H797 C805 0.950 . S
H798 C803 0.950 . S
H799 C804 0.949 . S
H800 C806 0.950 . S
H801 C807 0.950 . S
H802 C808 0.949 . S
C803 H798 0.950 . S
C803 C805 1.327 . S
C803 C809 1.429 . S
C804 C796 1.574 . S
C804 H799 0.949 . S
C804 C810 1.368 . S
C805 C789 1.349 . S
C805 H797 0.950 . S
C805 C803 1.327 . S
C806 C794 1.349 . S
C806 H800 0.950 . S
C806 C807 1.327 . S
C807 H801 0.950 . S
C807 C806 1.327 . S
C807 C811 1.429 . S
C808 C791 1.574 . S
C808 H802 0.949 . S
C808 C812 1.368 . S
C809 C790 1.429 . S
C809 C803 1.429 . S
C809 C810 1.523 . S
C810 C791 1.368 . S
C810 C804 1.368 . S
C810 C809 1.523 . S
C811 C795 1.429 . S
C811 C807 1.429 . S
C811 C812 1.523 . S
C812 C796 1.368 . S
C812 C808 1.368 . S
C812 C811 1.523 . S
H813 C788 0.950 . S
H814 C790 0.950 . S
H815 C791 0.949 . S
H816 C793 0.950 . S
H817 C795 0.950 . S
C818 C819 1.349 . S
C818 C820 1.327 . S
C818 H843 0.950 . S
C819 C818 1.349 . S
C819 C835 1.349 . S
C820 C818 1.327 . S
C820 C839 1.429 . S
C820 H844 0.950 . S
C821 C838 1.574 . S
C821 C840 1.368 . S
C821 H845 0.949 . S
H822 C826 0.949 . S
C823 C824 1.349 . S
C823 C825 1.327 . S
C823 H846 0.950 . S
C824 C823 1.349 . S
C824 C836 1.349 . S
C825 C823 1.327 . S
C825 C841 1.429 . S
C825 H847 0.950 . S
C826 H822 0.949 . S
C826 C834 1.574 . S
C826 C842 1.368 . S
H827 C835 0.950 . S
H828 C833 0.950 . S
H829 C834 0.949 . S
H830 C836 0.950 . S
H831 C837 0.950 . S
H832 C838 0.949 . S
C833 H828 0.950 . S
C833 C835 1.327 . S
C833 C839 1.429 . S
C834 C826 1.574 . S
C834 H829 0.949 . S
C834 C840 1.368 . S
C835 C819 1.349 . S
C835 H827 0.950 . S
C835 C833 1.327 . S
C836 C824 1.349 . S
C836 H830 0.950 . S
C836 C837 1.327 . S
C837 H831 0.950 . S
C837 C836 1.327 . S
C837 C841 1.429 . S
C838 C821 1.574 . S
C838 H832 0.949 . S
C838 C842 1.368 . S
C839 C820 1.429 . S
C839 C833 1.429 . S
C839 C840 1.523 . S
C840 C821 1.368 . S
C840 C834 1.368 . S
C840 C839 1.523 . S
C841 C825 1.429 . S
C841 C837 1.429 . S
C841 C842 1.523 . S
C842 C826 1.368 . S
C842 C838 1.368 . S
C842 C841 1.523 . S
H843 C818 0.950 . S
H844 C820 0.950 . S
H845 C821 0.949 . S
H846 C823 0.950 . S
H847 C825 0.950 . S
C848 C849 1.349 1_455 S
C848 C850 1.327 . S
C848 H873 0.950 . S
C849 C848 1.349 1_655 S
C849 C865 1.349 . S
C850 C848 1.327 . S
C850 C869 1.429 1_455 S
C850 H874 0.950 . S
C851 C868 1.574 . S
C851 C870 1.368 . S
C851 H875 0.949 . S
H852 C856 0.949 . S
C853 C854 1.349 . S
C853 C855 1.327 . S
C853 H876 0.950 . S
C854 C853 1.349 . S
C854 C866 1.349 1_655 S
C855 C853 1.327 . S
C855 C871 1.429 . S
C855 H877 0.950 . S
C856 H852 0.949 . S
C856 C864 1.574 . S
C856 C872 1.368 1_455 S
H857 C865 0.950 . S
H858 C863 0.950 . S
H859 C864 0.949 . S
H860 C866 0.950 . S
H861 C867 0.950 . S
H862 C868 0.949 . S
C863 H858 0.950 . S
C863 C865 1.327 . S
C863 C869 1.429 . S
C864 C856 1.574 . S
C864 H859 0.949 . S
C864 C870 1.368 1_455 S
C865 C849 1.349 . S
C865 H857 0.950 . S
C865 C863 1.327 . S
C866 C854 1.349 1_455 S
C866 H860 0.950 . S
C866 C867 1.327 . S
C867 H861 0.950 . S
C867 C866 1.327 . S
C867 C871 1.429 1_455 S
C868 C851 1.574 . S
C868 H862 0.949 . S
C868 C872 1.368 . S
C869 C850 1.429 1_655 S
C869 C863 1.429 . S
C869 C870 1.523 . S
C870 C851 1.368 . S
C870 C864 1.368 1_655 S
C870 C869 1.523 . S
C871 C855 1.429 . S
C871 C867 1.429 1_655 S
C871 C872 1.523 . S
C872 C856 1.368 1_655 S
C872 C868 1.368 . S
C872 C871 1.523 . S
H873 C848 0.950 . S
H874 C850 0.950 . S
H875 C851 0.949 . S
H876 C853 0.950 . S
H877 C855 0.950 . S
C878 C879 1.349 1_545 S
C878 C880 1.327 . S
C878 H903 0.950 . S
C879 C878 1.349 1_565 S
C879 C895 1.349 . S
C880 C878 1.327 . S
C880 C899 1.429 1_545 S
C880 H904 0.950 . S
C881 C898 1.574 . S
C881 C900 1.368 . S
C881 H905 0.949 . S
H882 C886 0.949 . S
C883 C884 1.349 . S
C883 C885 1.327 . S
C883 H906 0.950 . S
C884 C883 1.349 . S
C884 C896 1.349 1_565 S
C885 C883 1.327 . S
C885 C901 1.429 . S
C885 H907 0.950 . S
C886 H882 0.949 . S
C886 C894 1.574 . S
C886 C902 1.368 1_545 S
H887 C895 0.950 . S
H888 C893 0.950 . S
H889 C894 0.949 . S
H890 C896 0.950 . S
H891 C897 0.950 . S
H892 C898 0.949 . S
C893 H888 0.950 . S
C893 C895 1.327 . S
C893 C899 1.429 . S
C894 C886 1.574 . S
C894 H889 0.949 . S
C894 C900 1.368 1_545 S
C895 C879 1.349 . S
C895 H887 0.950 . S
C895 C893 1.327 . S
C896 C884 1.349 1_545 S
C896 H890 0.950 . S
C896 C897 1.327 . S
C897 H891 0.950 . S
C897 C896 1.327 . S
C897 C901 1.429 1_545 S
C898 C881 1.574 . S
C898 H892 0.949 . S
C898 C902 1.368 . S
C899 C880 1.429 1_565 S
C899 C893 1.429 . S
C899 C900 1.523 . S
C900 C881 1.368 . S
C900 C894 1.368 1_565 S
C900 C899 1.523 . S
C901 C885 1.429 . S
C901 C897 1.429 1_565 S
C901 C902 1.523 . S
C902 C886 1.368 1_565 S
C902 C898 1.368 . S
C902 C901 1.523 . S
H903 C878 0.950 . S
H904 C880 0.950 . S
H905 C881 0.949 . S
H906 C883 0.950 . S
H907 C885 0.950 . S
C908 C909 1.349 . S
C908 C910 1.327 . S
C908 H933 0.950 . S
C909 C908 1.349 . S
C909 C925 1.349 . S
C910 C908 1.327 . S
C910 C929 1.429 . S
C910 H934 0.950 . S
C911 C928 1.574 . S
C911 C930 1.368 . S
C911 H935 0.949 . S
H912 C916 0.949 . S
C913 C914 1.349 . S
C913 C915 1.327 . S
C913 H936 0.950 . S
C914 C913 1.349 . S
C914 C926 1.349 . S
C915 C913 1.327 . S
C915 C931 1.429 . S
C915 H937 0.950 . S
C916 H912 0.949 . S
C916 C924 1.574 . S
C916 C932 1.368 . S
H917 C925 0.950 . S
H918 C923 0.950 . S
H919 C924 0.949 . S
H920 C926 0.950 . S
H921 C927 0.950 . S
H922 C928 0.949 . S
C923 H918 0.950 . S
C923 C925 1.327 . S
C923 C929 1.429 . S
C924 C916 1.574 . S
C924 H919 0.949 . S
C924 C930 1.368 . S
C925 C909 1.349 . S
C925 H917 0.950 . S
C925 C923 1.327 . S
C926 C914 1.349 . S
C926 H920 0.950 . S
C926 C927 1.327 . S
C927 H921 0.950 . S
C927 C926 1.327 . S
C927 C931 1.429 . S
C928 C911 1.574 . S
C928 H922 0.949 . S
C928 C932 1.368 . S
C929 C910 1.429 . S
C929 C923 1.429 . S
C929 C930 1.523 . S
C930 C911 1.368 . S
C930 C924 1.368 . S
C930 C929 1.523 . S
C931 C915 1.429 . S
C931 C927 1.429 . S
C931 C932 1.523 . S
C932 C916 1.368 . S
C932 C928 1.368 . S
C932 C931 1.523 . S
H933 C908 0.950 . S
H934 C910 0.950 . S
H935 C911 0.949 . S
H936 C913 0.950 . S
H937 C915 0.950 . S
C938 C939 1.349 . S
C938 C940 1.327 . S
C938 H963 0.950 . S
C939 C938 1.349 . S
C939 C955 1.349 . S
C940 C938 1.327 . S
C940 C959 1.429 . S
C940 H964 0.950 . S
C941 C958 1.574 . S
C941 C960 1.368 . S
C941 H965 0.949 . S
H942 C946 0.949 . S
C943 C944 1.349 . S
C943 C945 1.327 . S
C943 H966 0.950 . S
C944 C943 1.349 . S
C944 C956 1.349 . S
C945 C943 1.327 . S
C945 C961 1.429 . S
C945 H967 0.950 . S
C946 H942 0.949 . S
C946 C954 1.574 . S
C946 C962 1.368 . S
H947 C955 0.950 . S
H948 C953 0.950 . S
H949 C954 0.949 . S
H950 C956 0.950 . S
H951 C957 0.950 . S
H952 C958 0.949 . S
C953 H948 0.950 . S
C953 C955 1.327 . S
C953 C959 1.429 . S
C954 C946 1.574 . S
C954 H949 0.949 . S
C954 C960 1.368 . S
C955 C939 1.349 . S
C955 H947 0.950 . S
C955 C953 1.327 . S
C956 C944 1.349 . S
C956 H950 0.950 . S
C956 C957 1.327 . S
C957 H951 0.950 . S
C957 C956 1.327 . S
C957 C961 1.429 . S
C958 C941 1.574 . S
C958 H952 0.949 . S
C958 C962 1.368 . S
C959 C940 1.429 . S
C959 C953 1.429 . S
C959 C960 1.523 . S
C960 C941 1.368 . S
C960 C954 1.368 . S
C960 C959 1.523 . S
C961 C945 1.429 . S
C961 C957 1.429 . S
C961 C962 1.523 . S
C962 C946 1.368 . S
C962 C958 1.368 . S
C962 C961 1.523 . S
H963 C938 0.950 . S
H964 C940 0.950 . S
H965 C941 0.949 . S
H966 C943 0.950 . S
H967 C945 0.950 . S
C249 C74 1.666 . S
C254 C98 1.723 . S
C284 C138 1.724 . S
C279 C85 1.666 . S
C314 C178 1.723 . S
C309 C52 1.666 . S
C344 C218 1.723 . S
C339 C63 1.666 . S
C374 C107 1.724 . S
C369 C30 1.660 1_565 S
C399 C41 1.663 . S
C404 C147 1.723 . S
C429 C8 1.663 . S
C434 C187 1.723 . S
C459 C19 1.660 1_655 S
C464 C227 1.724 . S
C494 C104 0.434 . S
C489 C62 0.419 . S
C524 C144 0.434 . S
C519 C73 0.419 . S
C554 C184 0.434 . S
C549 C84 0.419 . S
C579 C51 0.419 . S
C584 C224 0.434 . S
C609 C18 0.487 1_655 S
C614 C95 0.434 . S
C644 C135 0.434 . S
C639 C29 0.487 1_565 S
C674 C175 0.434 . S
C669 C40 0.487 . S
C699 C7 0.487 . S
C704 C215 0.434 . S
C729 C60 1.579 . S
C734 C99 2.029 . S
C759 C71 1.580 . S
C764 C139 2.029 . S
C794 C179 2.029 . S
C789 C82 1.580 . S
C824 C219 2.029 . S
C819 C49 1.579 . S
C849 C16 1.605 1_655 S
C854 C90 2.029 . S
C884 C130 2.029 . S
C879 C27 1.605 1_565 S
C914 C170 2.029 . S
C909 C38 1.605 . S
C939 C5 1.604 . S
C944 C210 2.029 . S
