# Generated by pormake.
# Topology rtl, (3,6)-cn, num edge types: 1
# Building blocks:
#     Node 0, Type 0, BuildingBlock: WUSLED_clean_sbu_0, # of connection points: 3
#     Node 1, Type 0, BuildingBlock: WUSLED_clean_sbu_0, # of connection points: 3
#     Node 2, Type 0, BuildingBlock: WUSLED_clean_sbu_0, # of connection points: 3
#     Node 3, Type 0, BuildingBlock: WUSLED_clean_sbu_0, # of connection points: 3
#     Node 4, Type 1, BuildingBlock: KUMBOL_clean_sbu_1, # of connection points: 6
#     Node 5, Type 1, BuildingBlock: KUMBOL_clean_sbu_1, # of connection points: 6
#     Edge 6, Type (0, 1), BuildingBlock: KIFKEQ_clean_linker_1, # of connection points: 2
#     Edge 7, Type (0, 1), BuildingBlock: KIFKEQ_clean_linker_1, # of connection points: 2
#     Edge 8, Type (0, 1), BuildingBlock: KIFKEQ_clean_linker_1, # of connection points: 2
#     Edge 9, Type (0, 1), BuildingBlock: KIFKEQ_clean_linker_1, # of connection points: 2
#     Edge 10, Type (0, 1), BuildingBlock: KIFKEQ_clean_linker_1, # of connection points: 2
#     Edge 11, Type (0, 1), BuildingBlock: KIFKEQ_clean_linker_1, # of connection points: 2
#     Edge 12, Type (0, 1), BuildingBlock: KIFKEQ_clean_linker_1, # of connection points: 2
#     Edge 13, Type (0, 1), BuildingBlock: KIFKEQ_clean_linker_1, # of connection points: 2
#     Edge 14, Type (0, 1), BuildingBlock: KIFKEQ_clean_linker_1, # of connection points: 2
#     Edge 15, Type (0, 1), BuildingBlock: KIFKEQ_clean_linker_1, # of connection points: 2
#     Edge 16, Type (0, 1), BuildingBlock: KIFKEQ_clean_linker_1, # of connection points: 2
#     Edge 17, Type (0, 1), BuildingBlock: KIFKEQ_clean_linker_1, # of connection points: 2
# Relax obj value: 0.016
# Max RMSD: 0.101
# Mean RMSD: 0.058
data_MOF--net-rtl--node1-WUSLED_clean_sbu_0--node2-KUMBOL_clean_sbu_1--edge1-KIFKEQ_clean_linker_1
_symmetry_space_group_name_H-M    P1
_symmetry_Int_Tables_number       1
_symmetry_cell_setting            triclinic
loop_
_symmetry_equiv_pos_as_xyz
'x, y, z'
_cell_length_a     42.960807
_cell_length_b     43.347245
_cell_length_c     36.926873
_cell_angle_alpha  81.573255
_cell_angle_beta   99.212062
_cell_angle_gamma 90.525502
loop_
_atom_site_label
_atom_site_type_symbol
_atom_site_fract_x
_atom_site_fract_y
_atom_site_fract_z
_atom_type_partial_charge
C0 C 0.19975 0.84641 0.1276 0.0
C1 C 0.17184 0.86426 0.11693 0.0
C2 C 0.16982 0.86898 0.18164 0.0
C3 C 0.157 0.87541 0.14368 0.0
C4 C 0.1982 0.85164 0.19202 0.0
C5 C 0.21296 0.84042 0.16524 0.0
U6 U 0.20752 0.83976 0.02716 0.0
O7 O 0.24985 0.83529 1.0014 0.0
O8 O 0.21452 0.79839 1.00119 0.0
C9 C 0.24206 0.80756 0.99279 0.0
C10 C 0.21485 0.83323 0.09999 0.0
C11 C 0.26736 0.78366 1.00068 0.0
C12 C 0.29873 0.74228 0.04169 0.0
C13 C 0.2756 0.76593 0.03587 0.0
C14 C 0.30577 0.75423 0.97738 0.0
C15 C 0.31402 0.73603 1.01242 0.0
C16 C 0.28273 0.77775 0.97164 0.0
C17 C 0.15326 0.88847 0.94722 0.0
C18 C 0.16089 0.8938 0.8827 0.0
C19 C 0.11212 0.91185 0.8981 0.0
C20 C 0.12329 0.90233 0.93577 0.0
C21 C 0.13079 0.90776 0.87107 0.0
C22 C 0.17198 0.88412 0.92044 0.0
C23 C 0.16448 0.87871 0.9871 0.0
O24 O 0.19703 0.815 0.08011 0.0
O25 O 0.23128 0.8528 0.08012 0.0
O26 O 0.19321 0.88712 0.99961 0.0
O27 O 0.15842 0.84979 1.00003 0.0
H28 H 0.16137 0.86929 0.08795 0.0
H29 H 0.13543 0.88905 0.13462 0.0
H30 H 0.20857 0.84596 0.22095 0.0
H31 H 0.23449 0.82666 0.17401 0.0
H32 H 0.30471 0.72897 0.06912 0.0
H33 H 0.26398 0.77019 0.05867 0.0
H34 H 0.31658 0.74983 0.95404 0.0
H35 H 0.27655 0.79108 0.94422 0.0
H36 H 0.17572 0.89 0.8626 0.0
H37 H 0.08902 0.92285 0.89018 0.0
H38 H 0.10851 0.90589 0.95603 0.0
H39 H 0.19513 0.87325 0.92872 0.0
C40 C 0.6716 0.67479 0.71917 0.0
C41 C 0.6393 0.6808 0.71827 0.0
C42 C 0.63922 0.64479 0.77586 0.0
C43 C 0.62335 0.666 0.74624 0.0
C44 C 0.67146 0.63867 0.77653 0.0
C45 C 0.68741 0.65356 0.74869 0.0
U46 U 0.69401 0.69277 0.62065 0.0
O47 O 0.70477 0.73741 0.5885 0.0
O48 O 0.74079 0.70008 0.6035 0.0
C49 C 0.73381 0.72879 0.58727 0.0
C50 C 0.68962 0.69168 0.69117 0.0
C51 C 0.75895 0.75232 0.591 0.0
C52 C 0.77927 0.80199 0.60775 0.0
C53 C 0.75663 0.77834 0.60919 0.0
C54 C 0.80701 0.77357 0.57069 0.0
C55 C 0.80437 0.80019 0.58774 0.0
C56 C 0.78463 0.75001 0.57233 0.0
C57 C 0.65382 0.64826 0.54349 0.0
C58 C 0.6706 0.65081 0.48321 0.0
C59 C 0.62514 0.62032 0.49633 0.0
C60 C 0.62906 0.62887 0.53189 0.0
C61 C 0.64599 0.63097 0.47156 0.0
C62 C 0.67445 0.65939 0.51883 0.0
C63 C 0.65825 0.65573 0.58169 0.0
O64 O 0.71057 0.67512 0.67966 0.0
O65 O 0.67388 0.71161 0.66431 0.0
O66 O 0.64929 0.68385 0.58541 0.0
O67 O 0.68546 0.64698 0.60225 0.0
H68 H 0.62631 0.69714 0.69614 0.0
H69 H 0.59848 0.67108 0.74453 0.0
H70 H 0.68465 0.62289 0.79911 0.0
H71 H 0.71237 0.64875 0.75057 0.0
H72 H 0.77647 0.82219 0.62111 0.0
H73 H 0.73696 0.78082 0.62364 0.0
H74 H 0.82627 0.7711 0.5556 0.0
H75 H 0.7869 0.73026 0.55796 0.0
H76 H 0.68686 0.65978 0.46478 0.0
H77 H 0.60622 0.60471 0.48861 0.0
H78 H 0.61296 0.61994 0.55058 0.0
H79 H 0.69369 0.67447 0.52725 0.0
C80 C 0.83835 0.17154 0.16661 0.0
C81 C 0.82211 0.15273 0.1915 0.0
C82 C 0.87096 0.14063 0.23493 0.0
C83 C 0.83819 0.13737 0.22516 0.0
C84 C 0.88726 0.15928 0.20981 0.0
C85 C 0.87117 0.17457 0.17605 0.0
U86 U 0.81572 0.19158 0.06002 0.0
O87 O 0.76854 0.20133 0.02689 0.0
O88 O 0.80476 0.23729 0.02577 0.0
C89 C 0.77492 0.23063 0.01616 0.0
C90 C 0.8203 0.18904 0.13225 0.0
C91 C 0.7518 0.25372 0.02178 0.0
C92 C 0.7312 0.28674 0.06069 0.0
C93 C 0.75344 0.26483 0.05589 0.0
C94 C 0.70528 0.28637 0.9975 0.0
C95 C 0.70678 0.29774 0.03155 0.0
C96 C 0.72758 0.26462 0.99269 0.0
C97 C 0.85834 0.14606 0.99822 0.0
C98 C 0.85961 0.15797 0.93192 0.0
C99 C 0.88118 0.10889 0.96625 0.0
C100 C 0.87304 0.11727 0.99868 0.0
C101 C 0.87473 0.12913 0.93239 0.0
C102 C 0.85143 0.16635 0.96456 0.0
C103 C 0.85164 0.15436 0.03359 0.0
O104 O 0.83596 0.2089 0.1117 0.0
O105 O 0.79965 0.173 0.11259 0.0
O106 O 0.824 0.14625 0.04255 0.0
O107 O 0.8603 0.1822 0.04115 0.0
H108 H 0.79681 0.15011 0.18505 0.0
H109 H 0.82491 0.12285 0.2435 0.0
H110 H 0.91241 0.16267 0.21658 0.0
H111 H 0.88442 0.18908 0.15767 0.0
H112 H 0.73287 0.29473 0.08738 0.0
H113 H 0.77186 0.25651 0.07881 0.0
H114 H 0.68708 0.29461 0.97432 0.0
H115 H 0.72592 0.25633 0.96616 0.0
H116 H 0.85401 0.17402 0.90633 0.0
H117 H 0.89328 0.08679 0.96799 0.0
H118 H 0.87872 0.10135 0.02441 0.0
H119 H 0.84001 0.1887 0.9636 0.0
C120 C 0.34435 0.3383 0.35437 0.0
C121 C 0.34857 0.37076 0.35073 0.0
C122 C 0.37465 0.36959 0.2967 0.0
C123 C 0.36341 0.38623 0.32214 0.0
C124 C 0.3707 0.33705 0.30076 0.0
C125 C 0.35566 0.32164 0.32917 0.0
U126 U 0.32764 0.32355 0.4546 0.0
O127 O 0.28323 0.3141 0.47664 0.0
O128 O 0.32204 0.27967 0.49152 0.0
C129 C 0.29304 0.28666 0.49488 0.0
C130 C 0.32803 0.32143 0.3838 0.0
C131 C 0.27 0.2611 0.49511 0.0
C132 C 0.23032 0.22868 0.46471 0.0
C133 C 0.25281 0.25244 0.46258 0.0
C134 C 0.24214 0.22213 0.53172 0.0
C135 C 0.22466 0.21318 0.4994 0.0
C136 C 0.26449 0.24568 0.52954 0.0
C137 C 0.37255 0.37418 0.52352 0.0
C138 C 0.36295 0.37683 0.58626 0.0
C139 C 0.40754 0.40345 0.564 0.0
C140 C 0.39916 0.39271 0.52993 0.0
C141 C 0.38941 0.39595 0.59256 0.0
C142 C 0.35456 0.36605 0.55199 0.0
C143 C 0.36408 0.36417 0.48675 0.0
O144 O 0.34591 0.30323 0.41056 0.0
O145 O 0.30711 0.33756 0.39597 0.0
O146 O 0.33516 0.37068 0.46958 0.0
O147 O 0.37376 0.33611 0.48385 0.0
H148 H 0.34035 0.38424 0.36992 0.0
H149 H 0.3664 0.41122 0.32022 0.0
H150 H 0.37874 0.32349 0.28155 0.0
H151 H 0.35268 0.29662 0.33133 0.0
H152 H 0.21756 0.2223 0.4392 0.0
H153 H 0.25666 0.26409 0.43568 0.0
H154 H 0.23815 0.21137 0.55892 0.0
H155 H 0.2773 0.25216 0.555 0.0
H156 H 0.34834 0.37074 0.6075 0.0
H157 H 0.4284 0.41756 0.56801 0.0
H158 H 0.41347 0.39907 0.5084 0.0
H159 H 0.33393 0.35168 0.54758 0.0
C160 C 0.96901 0.10327 0.50965 0.0
C161 C 0.91446 0.09761 0.48216 0.0
C162 C 0.94177 0.08593 0.5066 0.0
C163 C 0.91555 0.12634 0.45923 0.0
C164 C 0.96967 0.13295 0.48825 0.0
C165 C 0.94314 0.14395 0.46221 0.0
N166 N 0.99404 0.09208 0.53547 0.0
C167 C 0.01876 0.11106 0.54443 0.0
C168 C 0.99647 0.15117 0.49475 0.0
C169 C 0.02083 0.14045 0.52355 0.0
Gd170 Gd 0.03609 0.97983 0.51874 0.0
Gd171 Gd 0.9895 0.04084 0.56602 0.0
N172 N 0.94173 0.05792 0.52848 0.0
C173 C 0.88679 0.08023 0.48195 0.0
C174 C 0.91451 0.04161 0.52991 0.0
C175 C 0.88671 0.05233 0.50635 0.0
H176 H 0.91457 0.01997 0.54864 0.0
H177 H 0.86531 0.03902 0.50688 0.0
H178 H 0.098 0.01969 0.48995 0.0
H179 H 0.0369 0.10375 0.56786 0.0
H180 H 0.15475 0.02487 0.51246 0.0
H181 H 0.8653 0.0884 0.46356 0.0
H182 H 0.89499 0.13547 0.43974 0.0
H183 H 0.01594 0.90959 0.5565 0.0
H184 H 0.99795 0.17408 0.47889 0.0
H185 H 0.04099 0.15497 0.53006 0.0
H186 H 0.17744 0.94197 0.61484 0.0
H187 H 0.94337 0.1665 0.44514 0.0
H188 H 0.09484 0.86924 0.63484 0.0
H189 H 0.0395 0.86612 0.60407 0.0
N190 N 0.05737 0.93675 0.56125 0.0
C191 C 0.08825 0.93803 0.57601 0.0
C192 C 0.04016 0.9108 0.56972 0.0
C193 C 0.08464 0.88819 0.61398 0.0
C194 C 0.05341 0.88631 0.59661 0.0
C195 C 0.10266 0.91404 0.60328 0.0
H196 H 0.14616 0.89821 0.63939 0.0
N197 N 0.09129 0.98392 0.53397 0.0
C198 C 0.1057 0.96267 0.56224 0.0
C199 C 0.15585 0.9874 0.558 0.0
C200 C 0.1383 0.96398 0.57532 0.0
C201 C 0.10883 1.00491 0.51481 0.0
C202 C 0.14115 1.00755 0.5271 0.0
O203 O 0.97083 0.02644 0.50981 0.0
O204 O 0.01503 0.02377 0.48366 0.0
O205 O 0.05923 0.95913 0.47838 0.0
O206 O 1.00842 0.95553 0.47814 0.0
O207 O 0.97069 0.9915 0.57328 0.0
O208 O 0.98671 0.96521 0.52821 0.0
O209 O 0.03159 0.97104 0.57987 0.0
O210 O 0.03593 0.01975 0.59629 0.0
O211 O 0.96907 0.02664 0.61597 0.0
O212 O 0.97961 0.07491 0.60071 0.0
O213 O 0.04852 0.03131 0.5092 0.0
O214 O 0.04177 0.04901 0.5634 0.0
C215 C 0.98541 0.03197 0.48097 0.0
C216 C 0.96836 0.96849 0.55307 0.0
C217 C 0.0284 0.93025 0.4322 0.0
C218 C 0.04467 0.91424 0.37705 0.0
C219 C 0.99537 0.89597 0.39632 0.0
C220 C 1.00094 0.91257 0.42621 0.0
C221 C 0.01692 0.89693 0.37177 0.0
C222 C 0.05065 0.93061 0.40778 0.0
C223 C 0.03246 0.94882 0.46323 0.0
C224 C 0.1525 0.94114 0.60409 0.0
C225 C 0.13471 0.91619 0.61803 0.0
H226 H 0.18095 0.98925 0.56721 0.0
C227 C 0.04126 0.98962 0.60426 0.0
C228 C 0.05608 0.05014 0.53414 0.0
C229 C 0.98393 0.05606 0.66452 0.0
C230 C 0.97802 0.0648 0.72709 0.0
C231 C 0.02896 0.04939 0.71393 0.0
C232 C 0.01597 0.04895 0.6769 0.0
C233 C 1.01018 0.05715 0.73891 0.0
C234 C 0.96503 0.06428 0.68957 0.0
C235 C 0.97014 0.05431 0.62571 0.0
H236 H 0.97413 0.88247 0.39201 0.0
H237 H 0.98358 0.91163 0.44463 0.0
H238 H 0.01196 0.88398 0.34857 0.0
H239 H 0.07184 0.94426 0.41188 0.0
H240 H 0.05371 0.04374 0.7233 0.0
H241 H 0.03087 0.04305 0.65789 0.0
H242 H 0.02094 0.05761 0.76743 0.0
H243 H 0.94022 0.06972 0.68004 0.0
C244 C 0.58844 0.57492 0.04256 0.0
C245 C 0.56753 0.62775 0.03156 0.0
C246 C 0.56451 0.59567 0.04402 0.0
C247 C 0.59418 0.63826 0.01596 0.0
C248 C 0.61583 0.58547 0.02835 0.0
C249 C 0.6183 0.61717 1.0144 0.0
N250 N 0.58506 0.54431 0.05554 0.0
C251 C 0.60898 0.52331 0.05748 0.0
C252 C 0.64005 0.56388 0.02901 0.0
C253 C 0.63675 0.53273 0.04407 0.0
Gd254 Gd 0.47619 0.49224 1.00036 0.0
Gd255 Gd 0.53754 0.53026 0.07685 0.0
N256 N 0.53919 0.58478 0.05959 0.0
C257 C 0.54421 0.64843 0.03634 0.0
C258 C 0.51802 0.6052 0.06735 0.0
C259 C 0.51968 0.63715 0.05499 0.0
H260 H 0.50011 0.59707 0.08371 0.0
H261 H 0.50233 0.65311 0.06041 0.0
H262 H 0.49528 0.41693 0.01768 0.0
H263 H 0.60637 0.49923 0.06898 0.0
H264 H 0.4732 0.36725 0.0445 0.0
H265 H 0.54565 0.67324 0.02715 0.0
H266 H 0.59674 0.66277 1.00591 0.0
H267 H 0.41455 0.54372 0.97972 0.0
H268 H 0.66149 0.57108 0.01842 0.0
H269 H 0.6555 0.51595 0.04517 0.0
H270 H 0.37407 0.39786 0.07414 0.0
H271 H 0.639 0.62569 1.00298 0.0
H272 H 0.33966 0.50393 0.03376 0.0
H273 H 0.36197 0.54853 0.99691 0.0
N274 N 0.42407 0.49857 1.01103 0.0
C275 C 0.4112 0.47297 0.02858 0.0
C276 C 0.40602 0.5248 0.99774 0.0
C277 C 0.36325 0.50207 0.02734 0.0
C278 C 0.37579 0.52732 1.00664 0.0
C279 C 0.38057 0.47411 0.03757 0.0
H280 H 0.3444 0.44758 0.06253 0.0
N281 N 0.4569 0.44447 0.02531 0.0
C282 C 0.42781 0.44492 0.03516 0.0
C283 C 0.4312 0.38919 0.05463 0.0
C284 C 0.41441 0.41735 0.05082 0.0
C285 C 0.47277 0.41699 0.02721 0.0
C286 C 0.46031 0.38896 0.04228 0.0
O287 O 0.54844 0.52878 0.01867 0.0
O288 O 0.50041 0.53703 0.98177 0.0
O289 O 0.49061 0.47265 0.95451 0.0
O290 O 0.4425 0.48761 0.95087 0.0
O291 O 0.4863 0.54667 0.06555 0.0
O292 O 0.47 0.54377 1.00356 0.0
O293 O 0.48598 0.46951 0.06096 0.0
O294 O 0.49125 0.51163 0.0916 0.0
O295 O 0.55179 0.55343 0.12524 0.0
O296 O 0.56161 0.50435 0.12857 0.0
O297 O 0.52586 0.47223 1.0122 0.0
O298 O 0.54828 0.47978 0.07212 0.0
C299 C 0.5311 0.54057 0.98714 0.0
C300 C 0.46881 0.55682 0.03339 0.0
C301 C 0.46331 0.49237 0.89518 0.0
C302 C 0.45572 0.49023 0.82844 0.0
C303 C 0.47168 0.53849 0.85228 0.0
C304 C 0.47121 0.52389 0.88842 0.0
C305 C 0.46402 0.52187 0.8225 0.0
C306 C 0.45539 0.47559 0.86515 0.0
C307 C 0.46322 0.47709 0.93351 0.0
C308 C 0.3846 0.41871 0.06155 0.0
C309 C 0.36775 0.44705 0.05504 0.0
H310 H 0.42168 0.36748 0.06648 0.0
C311 C 0.48187 0.48301 0.08948 0.0
C312 C 0.54656 0.46505 0.04286 0.0
C313 C 0.59581 0.53287 0.16861 0.0
C314 C 0.62608 0.54905 0.22473 0.0
C315 C 0.65292 0.52883 0.17957 0.0
C316 C 0.62401 0.52461 0.15771 0.0
C317 C 0.65402 0.54096 0.21276 0.0
C318 C 0.59695 0.54513 0.20212 0.0
C319 C 0.56498 0.52865 0.14577 0.0
H320 H 0.47782 0.56285 0.84731 0.0
H321 H 0.47682 0.53719 0.91111 0.0
H322 H 0.46407 0.534 0.79469 0.0
H323 H 0.44934 0.45119 0.87043 0.0
H324 H 0.67459 0.52258 0.17082 0.0
H325 H 0.62376 0.51473 0.13248 0.0
H326 H 0.67685 0.54419 0.22893 0.0
H327 H 0.5751 0.55099 0.21086 0.0
H328 H 0.16626 0.21015 0.45639 0.0
H329 H 0.22795 0.15922 0.54939 0.0
H330 H 0.12582 0.17079 0.46407 0.0
H331 H 0.18744 0.1203 0.55729 0.0
H332 H 0.0951 0.0767 0.58676 0.0
H333 H 0.13565 0.11567 0.57724 0.0
H334 H 0.11368 0.11581 0.45893 0.0
H335 H 0.07283 0.0772 0.46852 0.0
C336 C 0.17142 0.19044 0.47819 0.0
C337 C 0.20044 0.18817 0.50241 0.0
C338 C 0.14814 0.16787 0.48267 0.0
C339 C 0.15319 0.14245 0.51155 0.0
C340 C 0.18242 0.13986 0.53525 0.0
C341 C 0.2057 0.16228 0.53067 0.0
C342 C 0.09889 0.08514 0.55873 0.0
C343 C 0.08079 0.07382 0.52842 0.0
C344 C 0.1223 0.10732 0.55325 0.0
C345 C 0.12808 0.11889 0.51729 0.0
C346 C 0.10975 0.10767 0.48697 0.0
C347 C 0.0865 0.08534 0.49248 0.0
H348 H 0.36929 0.73591 0.98413 0.0
H349 H 0.31285 0.67761 0.05274 0.0
H350 H 0.40668 0.69288 0.98971 0.0
H351 H 0.35044 0.6346 0.0585 0.0
H352 H 0.44097 0.57415 0.08895 0.0
H353 H 0.40453 0.61784 0.08534 0.0
H354 H 0.40915 0.64223 0.96864 0.0
H355 H 0.44611 0.59891 0.97253 0.0
C356 C 0.36476 0.71388 1.00031 0.0
C357 C 0.33789 0.71026 0.01782 0.0
C358 C 0.38623 0.68918 1.00348 0.0
C359 C 0.3815 0.66018 0.02435 0.0
C360 C 0.355 0.65671 0.04252 0.0
C361 C 0.33346 0.68142 0.03928 0.0
C362 C 0.43428 0.58895 0.06257 0.0
C363 C 0.44643 0.58315 0.03103 0.0
C364 C 0.41321 0.61384 0.06043 0.0
C365 C 0.4039 0.63361 0.02671 0.0
C366 C 0.41611 0.62773 0.99516 0.0
C367 C 0.43707 0.60277 0.99729 0.0
H368 H 0.83393 0.83433 0.64041 0.0
H369 H 0.82622 0.82531 0.52449 0.0
H370 H 0.87307 0.87516 0.63277 0.0
H371 H 0.86458 0.8663 0.51657 0.0
H372 H 0.95827 0.91515 0.52129 0.0
H373 H 0.91895 0.87554 0.53077 0.0
H374 H 0.88242 0.92756 0.60641 0.0
H375 H 0.92268 0.96687 0.59791 0.0
C376 C 0.84034 0.84127 0.61322 0.0
C377 C 0.82718 0.82622 0.58319 0.0
C378 C 0.86276 0.86477 0.60876 0.0
C379 C 0.87242 0.87399 0.57408 0.0
C380 C 0.85852 0.85941 0.54393 0.0
C381 C 0.83637 0.83587 0.54844 0.0
C382 C 0.94196 0.91826 0.54004 0.0
C383 C 0.94383 0.94441 0.55878 0.0
C384 C 0.91911 0.89552 0.54529 0.0
C385 C 0.89716 0.89825 0.56921 0.0
C386 C 0.89906 0.92436 0.58809 0.0
C387 C 0.9221 0.94709 0.583 0.0
H388 H 0.64304 0.29843 1.00787 0.0
H389 H 0.71647 0.34968 0.06633 0.0
H390 H 0.60429 0.33753 1.01304 0.0
H391 H 0.67768 0.38909 0.07125 0.0
H392 H 0.59387 0.44127 0.09949 0.0
H393 H 0.6321 0.3999 0.09922 0.0
H394 H 0.59033 0.39039 0.98703 0.0
H395 H 0.55203 0.43094 0.98746 0.0
C396 C 0.65096 0.31815 0.02167 0.0
C397 C 0.68295 0.32101 0.03639 0.0
C398 C 0.62872 0.34063 0.02463 0.0
C399 C 0.63783 0.3667 0.04228 0.0
C400 C 0.66971 0.36919 0.05782 0.0
C401 C 0.69199 0.3466 0.05495 0.0
C402 C 0.59277 0.43026 0.07482 0.0
C403 C 0.56973 0.43955 0.04353 0.0
C404 C 0.61482 0.40663 0.0746 0.0
C405 C 0.6143 0.39165 0.04315 0.0
C406 C 0.59118 0.40093 1.012 0.0
C407 C 0.56924 0.42446 1.0122 0.0
H408 H 0.10654 0.86756 0.18385 0.0
H409 H 0.19497 0.89316 0.24478 0.0
H410 H 0.07884 0.88258 0.23108 0.0
H411 H 0.16708 0.90863 0.29221 0.0
H412 H 0.10683 0.89588 0.38888 0.0
H413 H 0.13872 0.88764 0.34156 0.0
H414 H 0.06288 0.9262 0.25578 0.0
H415 H 0.031 0.93327 0.30299 0.0
C416 C 0.12006 0.8769 0.20706 0.0
C417 C 0.153 0.87926 0.21032 0.0
C418 C 0.10413 0.88561 0.23424 0.0
C419 C 0.12061 0.89714 0.26549 0.0
C420 C 0.15361 0.8996 0.26877 0.0
C421 C 0.1696 0.89074 0.24154 0.0
C422 C 0.0974 0.90315 0.35989 0.0
C423 C 0.06644 0.91501 0.34951 0.0
C424 C 0.11559 0.89843 0.33273 0.0
C425 C 0.1032 0.90568 0.29468 0.0
C426 C 0.07293 0.91948 0.28467 0.0
C427 C 0.05475 0.92387 0.3117 0.0
H428 H 0.59555 0.67057 0.81006 0.0
H429 H 0.64493 0.58413 0.81079 0.0
H430 H 0.56948 0.64593 0.86067 0.0
H431 H 0.61868 0.5594 0.86108 0.0
H432 H 0.59153 0.53232 0.97554 0.0
H433 H 0.61737 0.55813 0.92545 0.0
H434 H 0.53085 0.60857 0.87694 0.0
H435 H 0.5057 0.58398 0.92847 0.0
C436 C 0.6006 0.6462 0.82069 0.0
C437 C 0.62249 0.62944 0.80624 0.0
C438 C 0.5856 0.63201 0.8498 0.0
C439 C 0.59194 0.60059 0.86529 0.0
C440 C 0.61358 0.58377 0.85053 0.0
C441 C 0.62865 0.59798 0.82153 0.0
C442 C 0.57819 0.54929 0.95452 0.0
C443 C 0.5466 0.55618 0.9562 0.0
C444 C 0.59287 0.5638 0.92537 0.0
C445 C 0.57628 0.58546 0.89677 0.0
C446 C 0.5446 0.59234 0.89853 0.0
C447 C 0.53 0.57795 0.92789 0.0
H448 H 0.92927 0.11198 0.24977 0.0
H449 H 0.85117 0.13374 0.30272 0.0
H450 H 0.95684 0.08619 0.3092 0.0
H451 H 0.87872 0.10781 0.36211 0.0
H452 H 0.92301 0.02873 0.45259 0.0
H453 H 0.89528 0.05557 0.39354 0.0
H454 H 0.98263 0.09765 0.36941 0.0
H455 H 1.01019 0.07072 0.42843 0.0
C456 C 0.91806 0.11152 0.2741 0.0
C457 C 0.88792 0.12492 0.27132 0.0
C458 C 0.93389 0.09671 0.30822 0.0
C459 C 0.91998 0.09487 0.34045 0.0
C460 C 0.8899 0.10835 0.33773 0.0
C461 C 0.87409 0.1232 0.30363 0.0
C462 C 0.93614 0.04392 0.43472 0.0
C463 C 0.96864 0.04784 0.44512 0.0
C464 C 0.9203 0.05933 0.40093 0.0
C465 C 0.93672 0.07879 0.37668 0.0
C466 C 0.96934 0.08252 0.38715 0.0
C467 C 0.98513 0.06714 0.42095 0.0
H468 H 0.38831 0.36629 0.6637 0.0
H469 H 0.40982 0.45451 0.60252 0.0
H470 H 0.40467 0.38693 0.72197 0.0
H471 H 0.42612 0.47496 0.66036 0.0
H472 H 0.48502 0.49233 0.76767 0.0
H473 H 0.46878 0.46832 0.7122 0.0
H474 H 0.39073 0.42524 0.75995 0.0
H475 H 0.40715 0.44933 0.8158 0.0
C476 C 0.39625 0.39014 0.66262 0.0
C477 C 0.39805 0.40859 0.62833 0.0
C478 C 0.40566 0.40197 0.69605 0.0
C479 C 0.41711 0.43251 0.69596 0.0
C480 C 0.4182 0.45109 0.66162 0.0
C481 C 0.40881 0.43933 0.62835 0.0
C482 C 0.46435 0.47778 0.76638 0.0
C483 C 0.44719 0.47308 0.79608 0.0
C484 C 0.45498 0.46403 0.73449 0.0
C485 C 0.42814 0.44519 0.73127 0.0
C486 C 0.4116 0.43949 0.76151 0.0
C487 C 0.42103 0.45328 0.79356 0.0
H488 H 0.59147 0.62397 0.42327 0.0
H489 H 0.69272 0.61427 0.43524 0.0
H490 H 0.58589 0.60428 0.36395 0.0
H491 H 0.68719 0.5957 0.37542 0.0
H492 H 0.66482 0.52907 0.29028 0.0
H493 H 0.66919 0.54977 0.34862 0.0
H494 H 0.5952 0.61709 0.30002 0.0
H495 H 0.59086 0.59636 0.24133 0.0
C496 C 0.61257 0.61772 0.41324 0.0
C497 C 0.64256 0.62062 0.43425 0.0
C498 C 0.60937 0.60674 0.37899 0.0
C499 C 0.63607 0.59823 0.36486 0.0
C500 C 0.66606 0.60159 0.38561 0.0
C501 C 0.66926 0.61265 0.41978 0.0
C502 C 0.64963 0.54848 0.29183 0.0
C503 C 0.62765 0.56116 0.26086 0.0
C504 C 0.65217 0.56039 0.32538 0.0
C505 C 0.63277 0.58532 0.32906 0.0
C506 C 0.61036 0.59771 0.29833 0.0
C507 C 0.60784 0.58578 0.26465 0.0
H508 H 0.90004 0.1665 0.87784 0.0
H509 H 0.87237 0.07156 0.90954 0.0
H510 H 0.92112 0.15071 0.82561 0.0
H511 H 0.89384 0.0558 0.85774 0.0
H512 H 0.97575 0.03481 0.79692 0.0
H513 H 0.94744 0.05067 0.84349 0.0
H514 H 0.9077 0.12989 0.76543 0.0
H515 H 0.93649 0.11409 0.71874 0.0
C516 C 0.89794 0.14238 0.87338 0.0
C517 C 0.88479 0.12028 0.8983 0.0
C518 C 0.91009 0.13332 0.8434 0.0
C519 C 0.90948 0.10191 0.83769 0.0
C520 C 0.89524 0.08007 0.86174 0.0
C521 C 0.88298 0.08913 0.89152 0.0
C522 C 0.96088 0.05556 0.78962 0.0
C523 C 0.9585 0.07327 0.75419 0.0
C524 C 0.94443 0.06452 0.81623 0.0
C525 C 0.9253 0.09159 0.80825 0.0
C526 C 0.92243 0.10906 0.77256 0.0
C527 C 0.93868 0.09986 0.74573 0.0
H528 H 0.42737 0.35137 0.27139 0.0
H529 H 0.35735 0.42521 0.25223 0.0
H530 H 0.45298 0.37833 0.22167 0.0
H531 H 0.38251 0.45195 0.202 0.0
H532 H 0.45281 0.50798 0.13936 0.0
H533 H 0.42738 0.48072 0.18902 0.0
H534 H 0.44904 0.39246 0.15672 0.0
H535 H 0.47612 0.41989 0.10853 0.0
C536 C 0.41722 0.37322 0.25631 0.0
C537 C 0.39028 0.38609 0.266 0.0
C538 C 0.43189 0.38871 0.22761 0.0
C539 C 0.41996 0.41747 0.20753 0.0
C540 C 0.39286 0.4302 0.21713 0.0
C541 C 0.37833 0.41481 0.24599 0.0
C542 C 0.45228 0.48273 0.14299 0.0
C543 C 0.46618 0.46613 0.11958 0.0
C544 C 0.43734 0.46704 0.1713 0.0
C545 C 0.43582 0.43423 0.17704 0.0
C546 C 0.4499 0.41767 0.15361 0.0
C547 C 0.46505 0.43341 0.12548 0.0
H548 H 0.07161 0.90077 0.833 0.0
H549 H 0.1629 0.9385 0.8184 0.0
H550 H 0.05134 0.91969 0.76806 0.0
H551 H 0.1428 0.95679 0.7531 0.0
H552 H 0.08289 0.01765 0.6526 0.0
H553 H 0.10544 0.99683 0.71644 0.0
H554 H 0.05645 0.91044 0.70509 0.0
H555 H 0.03313 0.93174 0.6417 0.0
C556 C 0.08738 0.91307 0.81592 0.0
C557 C 0.11886 0.91822 0.83099 0.0
C558 C 0.07584 0.92363 0.77857 0.0
C559 C 0.09544 0.93975 0.75534 0.0
C560 C 0.12701 0.94468 0.7703 0.0
C561 C 0.13861 0.93394 0.80764 0.0
C562 C 0.07693 0.99423 0.66382 0.0
C563 C 0.05617 0.97635 0.64223 0.0
C564 C 0.09008 0.98218 0.70025 0.0
C565 C 0.08271 0.95198 0.71594 0.0
C566 C 0.06235 0.93391 0.69402 0.0
C567 C 0.04926 0.94597 0.65756 0.0
loop_
_geom_bond_atom_site_label_1
_geom_bond_atom_site_label_2
_geom_bond_distance
_geom_bond_site_symmetry_2
_ccdc_geom_bond_type
C0 C1 1.264 . S
C0 C5 1.479 . S
C0 C10 1.465 . S
C1 C0 1.264 . S
C1 C3 1.339 . S
C1 H28 0.931 . S
C2 C3 1.395 . S
C2 C4 1.320 . S
C3 C1 1.339 . S
C3 C2 1.395 . S
C3 H29 0.929 . S
C4 C2 1.320 . S
C4 C5 1.405 . S
C4 H30 0.930 . S
C5 C0 1.479 . S
C5 C4 1.405 . S
C5 H31 0.931 . S
U6 O7 2.454 . S
U6 O8 2.457 . S
U6 C9 2.984 . S
U6 C10 2.847 . S
U6 C23 2.882 1_554 S
U6 O24 2.441 . S
U6 O25 2.420 . S
U6 O26 2.455 1_554 S
U6 O27 2.449 1_554 S
O7 U6 2.454 . S
O7 C9 1.353 . S
O8 U6 2.457 . S
O8 C9 1.285 . S
C9 U6 2.984 . S
C9 O7 1.353 . S
C9 O8 1.285 . S
C9 C11 1.363 . S
C10 C0 1.465 . S
C10 U6 2.847 . S
C10 O24 1.249 . S
C10 O25 1.202 . S
C11 C9 1.363 . S
C11 C13 1.408 . S
C11 C16 1.342 . S
C12 C13 1.310 . S
C12 C15 1.461 . S
C12 H32 0.932 . S
C13 C11 1.408 . S
C13 C12 1.310 . S
C13 H33 0.930 . S
C14 C15 1.474 . S
C14 C16 1.285 . S
C14 H34 0.929 1_554 S
C15 C12 1.461 . S
C15 C14 1.474 . S
C16 C11 1.342 . S
C16 C14 1.285 . S
C16 H35 0.930 1_554 S
C17 C20 1.424 . S
C17 C22 1.245 . S
C17 C23 1.428 . S
C18 C21 1.260 . S
C18 C22 1.477 . S
C18 H36 0.932 . S
C19 C20 1.384 . S
C19 C21 1.479 . S
C19 H37 0.929 . S
C20 C17 1.424 . S
C20 C19 1.384 . S
C20 H38 0.928 . S
C21 C18 1.260 . S
C21 C19 1.479 . S
C22 C17 1.245 . S
C22 C18 1.477 . S
C22 H39 0.932 . S
C23 U6 2.882 1_556 S
C23 C17 1.428 . S
C23 O26 1.301 . S
C23 O27 1.282 . S
O24 U6 2.441 . S
O24 C10 1.249 . S
O25 U6 2.420 . S
O25 C10 1.202 . S
O26 U6 2.455 1_556 S
O26 C23 1.301 . S
O27 U6 2.449 1_556 S
O27 C23 1.282 . S
H28 C1 0.931 . S
H29 C3 0.929 . S
H30 C4 0.930 . S
H31 C5 0.931 . S
H32 C12 0.932 . S
H33 C13 0.930 . S
H34 C14 0.929 1_556 S
H35 C16 0.930 1_556 S
H36 C18 0.932 . S
H37 C19 0.929 . S
H38 C20 0.928 . S
H39 C22 0.932 . S
C40 C41 1.264 . S
C40 C45 1.479 . S
C40 C50 1.465 . S
C41 C40 1.264 . S
C41 C43 1.339 . S
C41 H68 0.931 . S
C42 C43 1.395 . S
C42 C44 1.320 . S
C43 C41 1.339 . S
C43 C42 1.395 . S
C43 H69 0.929 . S
C44 C42 1.320 . S
C44 C45 1.405 . S
C44 H70 0.930 . S
C45 C40 1.479 . S
C45 C44 1.405 . S
C45 H71 0.931 . S
U46 O47 2.454 . S
U46 O48 2.458 . S
U46 C49 2.984 . S
U46 C50 2.847 . S
U46 C63 2.882 . S
U46 O64 2.441 . S
U46 O65 2.420 . S
U46 O66 2.455 . S
U46 O67 2.449 . S
O47 U46 2.454 . S
O47 C49 1.353 . S
O48 U46 2.458 . S
O48 C49 1.286 . S
C49 U46 2.984 . S
C49 O47 1.353 . S
C49 O48 1.286 . S
C49 C51 1.363 . S
C50 C40 1.465 . S
C50 U46 2.847 . S
C50 O64 1.249 . S
C50 O65 1.202 . S
C51 C49 1.363 . S
C51 C53 1.408 . S
C51 C56 1.342 . S
C52 C53 1.310 . S
C52 C55 1.461 . S
C52 H72 0.932 . S
C53 C51 1.408 . S
C53 C52 1.310 . S
C53 H73 0.930 . S
C54 C55 1.474 . S
C54 C56 1.285 . S
C54 H74 0.929 . S
C55 C52 1.461 . S
C55 C54 1.474 . S
C56 C51 1.342 . S
C56 C54 1.285 . S
C56 H75 0.930 . S
C57 C60 1.424 . S
C57 C62 1.245 . S
C57 C63 1.428 . S
C58 C61 1.260 . S
C58 C62 1.477 . S
C58 H76 0.932 . S
C59 C60 1.384 . S
C59 C61 1.479 . S
C59 H77 0.929 . S
C60 C57 1.424 . S
C60 C59 1.384 . S
C60 H78 0.928 . S
C61 C58 1.260 . S
C61 C59 1.479 . S
C62 C57 1.245 . S
C62 C58 1.477 . S
C62 H79 0.932 . S
C63 U46 2.882 . S
C63 C57 1.428 . S
C63 O66 1.301 . S
C63 O67 1.282 . S
O64 U46 2.441 . S
O64 C50 1.249 . S
O65 U46 2.420 . S
O65 C50 1.202 . S
O66 U46 2.455 . S
O66 C63 1.301 . S
O67 U46 2.449 . S
O67 C63 1.282 . S
H68 C41 0.931 . S
H69 C43 0.929 . S
H70 C44 0.930 . S
H71 C45 0.931 . S
H72 C52 0.932 . S
H73 C53 0.930 . S
H74 C54 0.929 . S
H75 C56 0.930 . S
H76 C58 0.932 . S
H77 C59 0.929 . S
H78 C60 0.928 . S
H79 C62 0.932 . S
C80 C81 1.264 . S
C80 C85 1.479 . S
C80 C90 1.465 . S
C81 C80 1.264 . S
C81 C83 1.339 . S
C81 H108 0.931 . S
C82 C83 1.395 . S
C82 C84 1.320 . S
C83 C81 1.339 . S
C83 C82 1.395 . S
C83 H109 0.929 . S
C84 C82 1.320 . S
C84 C85 1.405 . S
C84 H110 0.930 . S
C85 C80 1.479 . S
C85 C84 1.405 . S
C85 H111 0.931 . S
U86 O87 2.454 . S
U86 O88 2.458 . S
U86 C89 2.984 . S
U86 C90 2.847 . S
U86 C103 2.882 1_554 S
U86 O104 2.441 . S
U86 O105 2.420 . S
U86 O106 2.455 1_554 S
U86 O107 2.449 . S
O87 U86 2.454 . S
O87 C89 1.353 . S
O88 U86 2.458 . S
O88 C89 1.287 . S
C89 U86 2.984 . S
C89 O87 1.353 . S
C89 O88 1.287 . S
C89 C91 1.363 . S
C90 C80 1.465 . S
C90 U86 2.847 . S
C90 O104 1.249 . S
C90 O105 1.202 . S
C91 C89 1.363 . S
C91 C93 1.408 . S
C91 C96 1.342 1_554 S
C92 C93 1.310 . S
C92 C95 1.461 . S
C92 H112 0.932 . S
C93 C91 1.408 . S
C93 C92 1.310 . S
C93 H113 0.930 . S
C94 C95 1.474 1_556 S
C94 C96 1.285 . S
C94 H114 0.929 . S
C95 C92 1.461 . S
C95 C94 1.474 1_554 S
C96 C91 1.342 1_556 S
C96 C94 1.285 . S
C96 H115 0.930 . S
C97 C100 1.424 . S
C97 C102 1.245 . S
C97 C103 1.428 . S
C98 C101 1.260 . S
C98 C102 1.477 . S
C98 H116 0.932 . S
C99 C100 1.384 . S
C99 C101 1.479 . S
C99 H117 0.929 . S
C100 C97 1.424 . S
C100 C99 1.384 . S
C100 H118 0.928 . S
C101 C98 1.260 . S
C101 C99 1.479 . S
C102 C97 1.245 . S
C102 C98 1.477 . S
C102 H119 0.932 . S
C103 U86 2.882 1_556 S
C103 C97 1.428 . S
C103 O106 1.301 . S
C103 O107 1.282 1_556 S
O104 U86 2.441 . S
O104 C90 1.249 . S
O105 U86 2.420 . S
O105 C90 1.202 . S
O106 U86 2.455 1_556 S
O106 C103 1.301 . S
O107 U86 2.449 . S
O107 C103 1.282 1_554 S
H108 C81 0.931 . S
H109 C83 0.929 . S
H110 C84 0.930 . S
H111 C85 0.931 . S
H112 C92 0.932 . S
H113 C93 0.930 . S
H114 C94 0.929 . S
H115 C96 0.930 . S
H116 C98 0.932 . S
H117 C99 0.929 . S
H118 C100 0.928 . S
H119 C102 0.932 . S
C120 C121 1.264 . S
C120 C125 1.479 . S
C120 C130 1.465 . S
C121 C120 1.264 . S
C121 C123 1.339 . S
C121 H148 0.931 . S
C122 C123 1.395 . S
C122 C124 1.320 . S
C123 C121 1.339 . S
C123 C122 1.395 . S
C123 H149 0.929 . S
C124 C122 1.320 . S
C124 C125 1.405 . S
C124 H150 0.930 . S
C125 C120 1.479 . S
C125 C124 1.405 . S
C125 H151 0.931 . S
U126 O127 2.454 . S
U126 O128 2.458 . S
U126 C129 2.984 . S
U126 C130 2.847 . S
U126 C143 2.882 . S
U126 O144 2.441 . S
U126 O145 2.420 . S
U126 O146 2.455 . S
U126 O147 2.449 . S
O127 U126 2.454 . S
O127 C129 1.353 . S
O128 U126 2.458 . S
O128 C129 1.286 . S
C129 U126 2.984 . S
C129 O127 1.353 . S
C129 O128 1.286 . S
C129 C131 1.363 . S
C130 C120 1.465 . S
C130 U126 2.847 . S
C130 O144 1.249 . S
C130 O145 1.202 . S
C131 C129 1.363 . S
C131 C133 1.408 . S
C131 C136 1.342 . S
C132 C133 1.310 . S
C132 C135 1.461 . S
C132 H152 0.932 . S
C133 C131 1.408 . S
C133 C132 1.310 . S
C133 H153 0.930 . S
C134 C135 1.474 . S
C134 C136 1.285 . S
C134 H154 0.929 . S
C135 C132 1.461 . S
C135 C134 1.474 . S
C136 C131 1.342 . S
C136 C134 1.285 . S
C136 H155 0.930 . S
C137 C140 1.424 . S
C137 C142 1.245 . S
C137 C143 1.428 . S
C138 C141 1.260 . S
C138 C142 1.477 . S
C138 H156 0.932 . S
C139 C140 1.384 . S
C139 C141 1.479 . S
C139 H157 0.929 . S
C140 C137 1.424 . S
C140 C139 1.384 . S
C140 H158 0.928 . S
C141 C138 1.260 . S
C141 C139 1.479 . S
C142 C137 1.245 . S
C142 C138 1.477 . S
C142 H159 0.932 . S
C143 U126 2.882 . S
C143 C137 1.428 . S
C143 O146 1.301 . S
C143 O147 1.282 . S
O144 U126 2.441 . S
O144 C130 1.249 . S
O145 U126 2.420 . S
O145 C130 1.202 . S
O146 U126 2.455 . S
O146 C143 1.301 . S
O147 U126 2.449 . S
O147 C143 1.282 . S
H148 C121 0.931 . S
H149 C123 0.929 . S
H150 C124 0.930 . S
H151 C125 0.931 . S
H152 C132 0.932 . S
H153 C133 0.930 . S
H154 C134 0.929 . S
H155 C136 0.930 . S
H156 C138 0.932 . S
H157 C139 0.929 . S
H158 C140 0.928 . S
H159 C142 0.932 . S
C160 C162 1.422 . S
C160 C164 1.415 . S
C160 N166 1.369 . S
C161 C162 1.421 . S
C161 C163 1.417 . S
C161 C173 1.422 . S
C162 C160 1.422 . S
C162 C161 1.421 . S
C162 N172 1.359 . S
C163 C161 1.417 . S
C163 C165 1.329 . S
C163 H182 0.930 . S
C164 C160 1.415 . S
C164 C165 1.437 . S
C164 C168 1.413 . S
C165 C163 1.329 . S
C165 C164 1.437 . S
C165 H187 0.929 . S
N166 C160 1.369 . S
N166 C167 1.338 1_655 S
N166 Gd171 2.622 . S
C167 N166 1.338 1_455 S
C167 C169 1.378 1_455 S
C167 H179 0.929 . S
C168 C164 1.413 . S
C168 C169 1.372 . S
C168 H184 0.931 . S
C169 C167 1.378 1_655 S
C169 C168 1.372 . S
C169 H185 0.905 1_655 S
Gd170 N190 2.622 . S
Gd170 N197 2.570 . S
Gd170 O204 2.358 1_455 S
Gd170 O205 2.468 . S
Gd170 O206 2.427 . S
Gd170 O208 2.388 1_455 S
Gd170 O209 2.386 . S
Gd170 O213 2.307 1_565 S
Gd170 C223 2.805 . S
Gd171 N166 2.622 . S
Gd171 N172 2.570 . S
Gd171 O203 2.386 . S
Gd171 O207 2.307 1_545 S
Gd171 O210 2.353 1_655 S
Gd171 O211 2.468 . S
Gd171 O212 2.427 . S
Gd171 O214 2.388 1_655 S
Gd171 C235 2.805 . S
N172 C162 1.359 . S
N172 Gd171 2.570 . S
N172 C174 1.343 . S
C173 C161 1.422 . S
C173 C175 1.321 . S
C173 H181 0.931 . S
C174 N172 1.343 . S
C174 C175 1.390 . S
C174 H176 0.931 . S
C175 C173 1.321 . S
C175 C174 1.390 . S
C175 H177 0.930 . S
H176 C174 0.931 . S
H177 C175 0.930 . S
H178 C201 0.931 . S
H179 C167 0.929 . S
H180 C202 0.930 . S
H181 C173 0.931 . S
H182 C163 0.930 . S
H183 C192 0.929 1_655 S
H184 C168 0.931 . S
H185 C169 0.905 1_455 S
H186 C224 0.930 . S
H187 C165 0.929 . S
H188 C193 0.931 . S
H189 C194 0.930 1_655 S
N190 Gd170 2.622 . S
N190 C191 1.369 . S
N190 C192 1.338 . S
C191 N190 1.369 . S
C191 C195 1.415 . S
C191 C198 1.422 . S
C192 H183 0.929 1_455 S
C192 N190 1.338 . S
C192 C194 1.378 . S
C193 H188 0.931 . S
C193 C194 1.348 . S
C193 C195 1.413 . S
C194 H189 0.930 1_455 S
C194 C192 1.378 . S
C194 C193 1.348 . S
C195 C191 1.415 . S
C195 C193 1.413 . S
C195 C225 1.437 . S
H196 C225 0.929 . S
N197 Gd170 2.570 . S
N197 C198 1.359 . S
N197 C201 1.343 . S
C198 C191 1.422 . S
C198 N197 1.359 . S
C198 C200 1.421 . S
C199 C200 1.422 . S
C199 C202 1.321 . S
C199 H226 0.931 . S
C200 C198 1.421 . S
C200 C199 1.422 . S
C200 C224 1.417 . S
C201 H178 0.931 . S
C201 N197 1.343 . S
C201 C202 1.390 . S
C202 H180 0.930 . S
C202 C199 1.321 . S
C202 C201 1.390 . S
O203 Gd171 2.386 . S
O203 C215 1.265 . S
O204 Gd170 2.358 1_655 S
O204 C215 1.234 1_565 S
O205 Gd170 2.468 . S
O205 C223 1.263 . S
O206 Gd170 2.427 . S
O206 C223 1.252 . S
O207 Gd171 2.307 1_565 S
O207 C216 1.261 . S
O208 Gd170 2.388 1_655 S
O208 C216 1.252 . S
O209 Gd170 2.386 . S
O209 C227 1.265 . S
O210 Gd171 2.353 1_455 S
O210 C227 1.242 1_545 S
O211 Gd171 2.468 . S
O211 C235 1.263 . S
O212 Gd171 2.427 . S
O212 C235 1.252 . S
O213 Gd170 2.307 1_545 S
O213 C228 1.261 . S
O214 Gd171 2.388 1_455 S
O214 C228 1.252 . S
C215 O203 1.265 . S
C215 O204 1.234 1_545 S
C216 O207 1.261 . S
C216 O208 1.252 . S
C217 C220 1.394 . S
C217 C222 1.370 . S
C217 C223 1.500 . S
C218 C221 1.383 . S
C218 C222 1.395 . S
C219 C220 1.396 . S
C219 C221 1.365 . S
C219 H236 0.929 . S
C220 C217 1.394 . S
C220 C219 1.396 . S
C220 H237 0.930 . S
C221 C218 1.383 . S
C221 C219 1.365 . S
C221 H238 0.931 . S
C222 C217 1.370 . S
C222 C218 1.395 . S
C222 H239 0.930 . S
C223 Gd170 2.805 . S
C223 O205 1.263 . S
C223 O206 1.252 . S
C223 C217 1.500 . S
C224 H186 0.930 . S
C224 C200 1.417 . S
C224 C225 1.329 . S
C225 C195 1.437 . S
C225 H196 0.929 . S
C225 C224 1.329 . S
H226 C199 0.931 . S
C227 O209 1.265 . S
C227 O210 1.242 1_565 S
C228 O213 1.261 . S
C228 O214 1.252 . S
C229 C232 1.394 . S
C229 C234 1.370 . S
C229 C235 1.500 . S
C230 C233 1.383 . S
C230 C234 1.395 . S
C231 C232 1.396 . S
C231 C233 1.365 . S
C231 H240 0.929 . S
C232 C229 1.394 . S
C232 C231 1.396 . S
C232 H241 0.930 . S
C233 C230 1.383 . S
C233 C231 1.365 . S
C233 H242 0.931 . S
C234 C229 1.370 . S
C234 C230 1.395 . S
C234 H243 0.930 . S
C235 Gd171 2.805 . S
C235 O211 1.263 . S
C235 O212 1.252 . S
C235 C229 1.500 . S
H236 C219 0.929 . S
H237 C220 0.930 . S
H238 C221 0.931 . S
H239 C222 0.930 . S
H240 C231 0.929 . S
H241 C232 0.930 . S
H242 C233 0.931 . S
H243 C234 0.930 . S
C244 C246 1.422 . S
C244 C248 1.415 . S
C244 N250 1.369 . S
C245 C246 1.421 . S
C245 C247 1.417 . S
C245 C257 1.422 . S
C246 C244 1.422 . S
C246 C245 1.421 . S
C246 N256 1.359 . S
C247 C245 1.417 . S
C247 C249 1.329 . S
C247 H266 0.930 . S
C248 C244 1.415 . S
C248 C249 1.437 . S
C248 C252 1.413 . S
C249 C247 1.329 . S
C249 C248 1.437 . S
C249 H271 0.929 . S
N250 C244 1.369 . S
N250 C251 1.338 . S
N250 Gd255 2.622 . S
C251 N250 1.338 . S
C251 C253 1.378 . S
C251 H263 0.929 . S
C252 C248 1.413 . S
C252 C253 1.348 . S
C252 H268 0.931 . S
C253 C251 1.378 . S
C253 C252 1.348 . S
C253 H269 0.930 . S
Gd254 N274 2.622 . S
Gd254 N281 2.570 1_556 S
Gd254 O288 2.353 . S
Gd254 O289 2.468 . S
Gd254 O290 2.427 . S
Gd254 O292 2.388 . S
Gd254 O293 2.386 1_556 S
Gd254 O297 2.307 1_556 S
Gd254 C307 2.805 . S
Gd255 N250 2.622 . S
Gd255 N256 2.570 . S
Gd255 O287 2.386 1_554 S
Gd255 O291 2.307 . S
Gd255 O294 2.353 . S
Gd255 O295 2.468 . S
Gd255 O296 2.427 . S
Gd255 O298 2.388 . S
Gd255 C319 2.805 . S
N256 C246 1.359 . S
N256 Gd255 2.570 . S
N256 C258 1.343 . S
C257 C245 1.422 . S
C257 C259 1.321 . S
C257 H265 0.931 . S
C258 N256 1.343 . S
C258 C259 1.390 . S
C258 H260 0.931 . S
C259 C257 1.321 . S
C259 C258 1.390 . S
C259 H261 0.930 . S
H260 C258 0.931 . S
H261 C259 0.930 . S
H262 C285 0.931 . S
H263 C251 0.929 . S
H264 C286 0.930 . S
H265 C257 0.931 . S
H266 C247 0.930 . S
H267 C276 0.929 . S
H268 C252 0.931 . S
H269 C253 0.930 . S
H270 C308 0.930 . S
H271 C249 0.929 . S
H272 C277 0.931 . S
H273 C278 0.930 . S
N274 Gd254 2.622 . S
N274 C275 1.369 1_556 S
N274 C276 1.338 . S
C275 N274 1.369 1_554 S
C275 C279 1.415 . S
C275 C282 1.422 . S
C276 H267 0.929 . S
C276 N274 1.338 . S
C276 C278 1.378 . S
C277 H272 0.931 . S
C277 C278 1.348 1_554 S
C277 C279 1.413 . S
C278 H273 0.930 . S
C278 C276 1.378 . S
C278 C277 1.348 1_556 S
C279 C275 1.415 . S
C279 C277 1.413 . S
C279 C309 1.437 . S
H280 C309 0.929 . S
N281 Gd254 2.570 1_554 S
N281 C282 1.359 . S
N281 C285 1.343 . S
C282 C275 1.422 . S
C282 N281 1.359 . S
C282 C284 1.421 . S
C283 C284 1.422 . S
C283 C286 1.321 . S
C283 H310 0.931 . S
C284 C282 1.421 . S
C284 C283 1.422 . S
C284 C308 1.417 . S
C285 H262 0.931 . S
C285 N281 1.343 . S
C285 C286 1.390 . S
C286 H264 0.930 . S
C286 C283 1.321 . S
C286 C285 1.390 . S
O287 Gd255 2.386 1_556 S
O287 C299 1.265 . S
O288 Gd254 2.353 . S
O288 C299 1.242 . S
O289 Gd254 2.468 . S
O289 C307 1.263 . S
O290 Gd254 2.427 . S
O290 C307 1.252 . S
O291 Gd255 2.307 . S
O291 C300 1.261 . S
O292 Gd254 2.388 . S
O292 C300 1.252 1_556 S
O293 Gd254 2.386 1_554 S
O293 C311 1.265 . S
O294 Gd255 2.353 . S
O294 C311 1.242 . S
O295 Gd255 2.468 . S
O295 C319 1.263 . S
O296 Gd255 2.427 . S
O296 C319 1.252 . S
O297 Gd254 2.307 1_554 S
O297 C312 1.261 . S
O298 Gd255 2.388 . S
O298 C312 1.252 . S
C299 O287 1.265 . S
C299 O288 1.242 . S
C300 O291 1.261 . S
C300 O292 1.252 1_554 S
C301 C304 1.394 . S
C301 C306 1.370 . S
C301 C307 1.500 . S
C302 C305 1.383 . S
C302 C306 1.395 . S
C303 C304 1.396 . S
C303 C305 1.365 . S
C303 H320 0.929 . S
C304 C301 1.394 . S
C304 C303 1.396 . S
C304 H321 0.930 . S
C305 C302 1.383 . S
C305 C303 1.365 . S
C305 H322 0.931 . S
C306 C301 1.370 . S
C306 C302 1.395 . S
C306 H323 0.930 . S
C307 Gd254 2.805 . S
C307 O289 1.263 . S
C307 O290 1.252 . S
C307 C301 1.500 . S
C308 H270 0.930 . S
C308 C284 1.417 . S
C308 C309 1.329 . S
C309 C279 1.437 . S
C309 H280 0.929 . S
C309 C308 1.329 . S
H310 C283 0.931 . S
C311 O293 1.265 . S
C311 O294 1.242 . S
C312 O297 1.261 . S
C312 O298 1.252 . S
C313 C316 1.394 . S
C313 C318 1.370 . S
C313 C319 1.500 . S
C314 C317 1.383 . S
C314 C318 1.395 . S
C315 C316 1.396 . S
C315 C317 1.365 . S
C315 H324 0.929 . S
C316 C313 1.394 . S
C316 C315 1.396 . S
C316 H325 0.930 . S
C317 C314 1.383 . S
C317 C315 1.365 . S
C317 H326 0.931 . S
C318 C313 1.370 . S
C318 C314 1.395 . S
C318 H327 0.930 . S
C319 Gd255 2.805 . S
C319 O295 1.263 . S
C319 O296 1.252 . S
C319 C313 1.500 . S
H320 C303 0.929 . S
H321 C304 0.930 . S
H322 C305 0.931 . S
H323 C306 0.930 . S
H324 C315 0.929 . S
H325 C316 0.930 . S
H326 C317 0.931 . S
H327 C318 0.930 . S
H328 C336 0.950 . S
H329 C341 0.950 . S
H330 C338 0.950 . S
H331 C340 0.950 . S
H332 C342 0.950 . S
H333 C344 0.950 . S
H334 C346 0.950 . S
H335 C347 0.950 . S
C336 H328 0.950 . S
C336 C337 1.386 . S
C336 C338 1.391 . S
C337 C336 1.386 . S
C337 C341 1.393 . S
C338 H330 0.950 . S
C338 C336 1.391 . S
C338 C339 1.400 . S
C339 C338 1.400 . S
C339 C340 1.398 . S
C339 C345 1.491 . S
C340 H331 0.950 . S
C340 C339 1.398 . S
C340 C341 1.391 . S
C341 H329 0.950 . S
C341 C337 1.393 . S
C341 C340 1.391 . S
C342 H332 0.950 . S
C342 C343 1.386 . S
C342 C344 1.391 . S
C343 C342 1.386 . S
C343 C347 1.393 . S
C344 H333 0.950 . S
C344 C342 1.391 . S
C344 C345 1.400 . S
C345 C339 1.491 . S
C345 C344 1.400 . S
C345 C346 1.398 . S
C346 H334 0.950 . S
C346 C345 1.398 . S
C346 C347 1.391 . S
C347 H335 0.950 . S
C347 C343 1.393 . S
C347 C346 1.391 . S
H348 C356 0.950 . S
H349 C361 0.950 . S
H350 C358 0.950 . S
H351 C360 0.950 . S
H352 C362 0.950 . S
H353 C364 0.950 . S
H354 C366 0.950 . S
H355 C367 0.950 . S
C356 H348 0.950 . S
C356 C357 1.386 . S
C356 C358 1.391 . S
C357 C356 1.386 . S
C357 C361 1.393 . S
C358 H350 0.950 . S
C358 C356 1.391 . S
C358 C359 1.400 . S
C359 C358 1.400 . S
C359 C360 1.398 . S
C359 C365 1.491 . S
C360 H351 0.950 . S
C360 C359 1.398 . S
C360 C361 1.391 . S
C361 H349 0.950 . S
C361 C357 1.393 . S
C361 C360 1.391 . S
C362 H352 0.950 . S
C362 C363 1.386 . S
C362 C364 1.391 . S
C363 C362 1.386 . S
C363 C367 1.393 . S
C364 H353 0.950 . S
C364 C362 1.391 . S
C364 C365 1.400 . S
C365 C359 1.491 . S
C365 C364 1.400 . S
C365 C366 1.398 . S
C366 H354 0.950 . S
C366 C365 1.398 . S
C366 C367 1.391 . S
C367 H355 0.950 . S
C367 C363 1.393 . S
C367 C366 1.391 . S
H368 C376 0.950 . S
H369 C381 0.950 . S
H370 C378 0.950 . S
H371 C380 0.950 . S
H372 C382 0.950 . S
H373 C384 0.950 . S
H374 C386 0.950 . S
H375 C387 0.950 . S
C376 H368 0.950 . S
C376 C377 1.386 . S
C376 C378 1.391 . S
C377 C376 1.386 . S
C377 C381 1.393 . S
C378 H370 0.950 . S
C378 C376 1.391 . S
C378 C379 1.400 . S
C379 C378 1.400 . S
C379 C380 1.398 . S
C379 C385 1.491 . S
C380 H371 0.950 . S
C380 C379 1.398 . S
C380 C381 1.391 . S
C381 H369 0.950 . S
C381 C377 1.393 . S
C381 C380 1.391 . S
C382 H372 0.950 . S
C382 C383 1.386 . S
C382 C384 1.391 . S
C383 C382 1.386 . S
C383 C387 1.393 . S
C384 H373 0.950 . S
C384 C382 1.391 . S
C384 C385 1.400 . S
C385 C379 1.491 . S
C385 C384 1.400 . S
C385 C386 1.398 . S
C386 H374 0.950 . S
C386 C385 1.398 . S
C386 C387 1.391 . S
C387 H375 0.950 . S
C387 C383 1.393 . S
C387 C386 1.391 . S
H388 C396 0.950 . S
H389 C401 0.950 . S
H390 C398 0.950 . S
H391 C400 0.950 . S
H392 C402 0.950 . S
H393 C404 0.950 . S
H394 C406 0.950 . S
H395 C407 0.950 . S
C396 H388 0.950 . S
C396 C397 1.386 1_556 S
C396 C398 1.391 . S
C397 C396 1.386 1_554 S
C397 C401 1.393 . S
C398 H390 0.950 . S
C398 C396 1.391 . S
C398 C399 1.400 1_556 S
C399 C398 1.400 1_554 S
C399 C400 1.398 . S
C399 C405 1.491 . S
C400 H391 0.950 . S
C400 C399 1.398 . S
C400 C401 1.391 . S
C401 H389 0.950 . S
C401 C397 1.393 . S
C401 C400 1.391 . S
C402 H392 0.950 . S
C402 C403 1.386 . S
C402 C404 1.391 . S
C403 C402 1.386 . S
C403 C407 1.393 1_554 S
C404 H393 0.950 . S
C404 C402 1.391 . S
C404 C405 1.400 . S
C405 C399 1.491 . S
C405 C404 1.400 . S
C405 C406 1.398 1_554 S
C406 H394 0.950 . S
C406 C405 1.398 1_556 S
C406 C407 1.391 . S
C407 H395 0.950 . S
C407 C403 1.393 1_556 S
C407 C406 1.391 . S
H408 C416 0.950 . S
H409 C421 0.950 . S
H410 C418 0.950 . S
H411 C420 0.950 . S
H412 C422 0.950 . S
H413 C424 0.950 . S
H414 C426 0.950 . S
H415 C427 0.950 . S
C416 H408 0.950 . S
C416 C417 1.386 . S
C416 C418 1.391 . S
C417 C416 1.386 . S
C417 C421 1.393 . S
C418 H410 0.950 . S
C418 C416 1.391 . S
C418 C419 1.400 . S
C419 C418 1.400 . S
C419 C420 1.398 . S
C419 C425 1.491 . S
C420 H411 0.950 . S
C420 C419 1.398 . S
C420 C421 1.391 . S
C421 H409 0.950 . S
C421 C417 1.393 . S
C421 C420 1.391 . S
C422 H412 0.950 . S
C422 C423 1.386 . S
C422 C424 1.391 . S
C423 C422 1.386 . S
C423 C427 1.393 . S
C424 H413 0.950 . S
C424 C422 1.391 . S
C424 C425 1.400 . S
C425 C419 1.491 . S
C425 C424 1.400 . S
C425 C426 1.398 . S
C426 H414 0.950 . S
C426 C425 1.398 . S
C426 C427 1.391 . S
C427 H415 0.950 . S
C427 C423 1.393 . S
C427 C426 1.391 . S
H428 C436 0.950 . S
H429 C441 0.950 . S
H430 C438 0.950 . S
H431 C440 0.950 . S
H432 C442 0.950 . S
H433 C444 0.950 . S
H434 C446 0.950 . S
H435 C447 0.950 . S
C436 H428 0.950 . S
C436 C437 1.386 . S
C436 C438 1.391 . S
C437 C436 1.386 . S
C437 C441 1.393 . S
C438 H430 0.950 . S
C438 C436 1.391 . S
C438 C439 1.400 . S
C439 C438 1.400 . S
C439 C440 1.398 . S
C439 C445 1.491 . S
C440 H431 0.950 . S
C440 C439 1.398 . S
C440 C441 1.391 . S
C441 H429 0.950 . S
C441 C437 1.393 . S
C441 C440 1.391 . S
C442 H432 0.950 . S
C442 C443 1.386 . S
C442 C444 1.391 . S
C443 C442 1.386 . S
C443 C447 1.393 . S
C444 H433 0.950 . S
C444 C442 1.391 . S
C444 C445 1.400 . S
C445 C439 1.491 . S
C445 C444 1.400 . S
C445 C446 1.398 . S
C446 H434 0.950 . S
C446 C445 1.398 . S
C446 C447 1.391 . S
C447 H435 0.950 . S
C447 C443 1.393 . S
C447 C446 1.391 . S
H448 C456 0.950 . S
H449 C461 0.950 . S
H450 C458 0.950 . S
H451 C460 0.950 . S
H452 C462 0.950 1_565 S
H453 C464 0.950 1_565 S
H454 C466 0.950 . S
H455 C467 0.950 . S
C456 H448 0.950 . S
C456 C457 1.386 . S
C456 C458 1.391 . S
C457 C456 1.386 . S
C457 C461 1.393 . S
C458 H450 0.950 . S
C458 C456 1.391 . S
C458 C459 1.400 . S
C459 C458 1.400 . S
C459 C460 1.398 . S
C459 C465 1.491 . S
C460 H451 0.950 . S
C460 C459 1.398 . S
C460 C461 1.391 . S
C461 H449 0.950 . S
C461 C457 1.393 . S
C461 C460 1.391 . S
C462 H452 0.950 1_545 S
C462 C463 1.386 . S
C462 C464 1.391 . S
C463 C462 1.386 . S
C463 C467 1.393 . S
C464 H453 0.950 1_545 S
C464 C462 1.391 . S
C464 C465 1.400 . S
C465 C459 1.491 . S
C465 C464 1.400 . S
C465 C466 1.398 . S
C466 H454 0.950 . S
C466 C465 1.398 . S
C466 C467 1.391 . S
C467 H455 0.950 . S
C467 C463 1.393 . S
C467 C466 1.391 . S
H468 C476 0.950 . S
H469 C481 0.950 . S
H470 C478 0.950 . S
H471 C480 0.950 . S
H472 C482 0.950 . S
H473 C484 0.950 . S
H474 C486 0.950 . S
H475 C487 0.950 . S
C476 H468 0.950 . S
C476 C477 1.386 . S
C476 C478 1.391 . S
C477 C476 1.386 . S
C477 C481 1.393 . S
C478 H470 0.950 . S
C478 C476 1.391 . S
C478 C479 1.400 . S
C479 C478 1.400 . S
C479 C480 1.398 . S
C479 C485 1.491 . S
C480 H471 0.950 . S
C480 C479 1.398 . S
C480 C481 1.391 . S
C481 H469 0.950 . S
C481 C477 1.393 . S
C481 C480 1.391 . S
C482 H472 0.950 . S
C482 C483 1.386 . S
C482 C484 1.391 . S
C483 C482 1.386 . S
C483 C487 1.393 . S
C484 H473 0.950 . S
C484 C482 1.391 . S
C484 C485 1.400 . S
C485 C479 1.491 . S
C485 C484 1.400 . S
C485 C486 1.398 . S
C486 H474 0.950 . S
C486 C485 1.398 . S
C486 C487 1.391 . S
C487 H475 0.950 . S
C487 C483 1.393 . S
C487 C486 1.391 . S
H488 C496 0.950 . S
H489 C501 0.950 . S
H490 C498 0.950 . S
H491 C500 0.950 . S
H492 C502 0.950 . S
H493 C504 0.950 . S
H494 C506 0.950 . S
H495 C507 0.950 . S
C496 H488 0.950 . S
C496 C497 1.386 . S
C496 C498 1.391 . S
C497 C496 1.386 . S
C497 C501 1.393 . S
C498 H490 0.950 . S
C498 C496 1.391 . S
C498 C499 1.400 . S
C499 C498 1.400 . S
C499 C500 1.398 . S
C499 C505 1.491 . S
C500 H491 0.950 . S
C500 C499 1.398 . S
C500 C501 1.391 . S
C501 H489 0.950 . S
C501 C497 1.393 . S
C501 C500 1.391 . S
C502 H492 0.950 . S
C502 C503 1.386 . S
C502 C504 1.391 . S
C503 C502 1.386 . S
C503 C507 1.393 . S
C504 H493 0.950 . S
C504 C502 1.391 . S
C504 C505 1.400 . S
C505 C499 1.491 . S
C505 C504 1.400 . S
C505 C506 1.398 . S
C506 H494 0.950 . S
C506 C505 1.398 . S
C506 C507 1.391 . S
C507 H495 0.950 . S
C507 C503 1.393 . S
C507 C506 1.391 . S
H508 C516 0.950 . S
H509 C521 0.950 . S
H510 C518 0.950 . S
H511 C520 0.950 . S
H512 C522 0.950 . S
H513 C524 0.950 . S
H514 C526 0.950 . S
H515 C527 0.950 . S
C516 H508 0.950 . S
C516 C517 1.386 . S
C516 C518 1.391 . S
C517 C516 1.386 . S
C517 C521 1.393 . S
C518 H510 0.950 . S
C518 C516 1.391 . S
C518 C519 1.400 . S
C519 C518 1.400 . S
C519 C520 1.398 . S
C519 C525 1.491 . S
C520 H511 0.950 . S
C520 C519 1.398 . S
C520 C521 1.391 . S
C521 H509 0.950 . S
C521 C517 1.393 . S
C521 C520 1.391 . S
C522 H512 0.950 . S
C522 C523 1.386 . S
C522 C524 1.391 . S
C523 C522 1.386 . S
C523 C527 1.393 . S
C524 H513 0.950 . S
C524 C522 1.391 . S
C524 C525 1.400 . S
C525 C519 1.491 . S
C525 C524 1.400 . S
C525 C526 1.398 . S
C526 H514 0.950 . S
C526 C525 1.398 . S
C526 C527 1.391 . S
C527 H515 0.950 . S
C527 C523 1.393 . S
C527 C526 1.391 . S
H528 C536 0.950 . S
H529 C541 0.950 . S
H530 C538 0.950 . S
H531 C540 0.950 . S
H532 C542 0.950 . S
H533 C544 0.950 . S
H534 C546 0.950 . S
H535 C547 0.950 . S
C536 H528 0.950 . S
C536 C537 1.386 . S
C536 C538 1.391 . S
C537 C536 1.386 . S
C537 C541 1.393 . S
C538 H530 0.950 . S
C538 C536 1.391 . S
C538 C539 1.400 . S
C539 C538 1.400 . S
C539 C540 1.398 . S
C539 C545 1.491 . S
C540 H531 0.950 . S
C540 C539 1.398 . S
C540 C541 1.391 . S
C541 H529 0.950 . S
C541 C537 1.393 . S
C541 C540 1.391 . S
C542 H532 0.950 . S
C542 C543 1.386 . S
C542 C544 1.391 . S
C543 C542 1.386 . S
C543 C547 1.393 . S
C544 H533 0.950 . S
C544 C542 1.391 . S
C544 C545 1.400 . S
C545 C539 1.491 . S
C545 C544 1.400 . S
C545 C546 1.398 . S
C546 H534 0.950 . S
C546 C545 1.398 . S
C546 C547 1.391 . S
C547 H535 0.950 . S
C547 C543 1.393 . S
C547 C546 1.391 . S
H548 C556 0.950 . S
H549 C561 0.950 . S
H550 C558 0.950 . S
H551 C560 0.950 . S
H552 C562 0.950 1_545 S
H553 C564 0.950 . S
H554 C566 0.950 . S
H555 C567 0.950 . S
C556 H548 0.950 . S
C556 C557 1.386 . S
C556 C558 1.391 . S
C557 C556 1.386 . S
C557 C561 1.393 . S
C558 H550 0.950 . S
C558 C556 1.391 . S
C558 C559 1.400 . S
C559 C558 1.400 . S
C559 C560 1.398 . S
C559 C565 1.491 . S
C560 H551 0.950 . S
C560 C559 1.398 . S
C560 C561 1.391 . S
C561 H549 0.950 . S
C561 C557 1.393 . S
C561 C560 1.391 . S
C562 H552 0.950 1_565 S
C562 C563 1.386 . S
C562 C564 1.391 . S
C563 C562 1.386 . S
C563 C567 1.393 . S
C564 H553 0.950 . S
C564 C562 1.391 . S
C564 C565 1.400 . S
C565 C559 1.491 . S
C565 C564 1.400 . S
C565 C566 1.398 . S
C566 H554 0.950 . S
C566 C565 1.398 . S
C566 C567 1.391 . S
C567 H555 0.950 . S
C567 C563 1.393 . S
C567 C566 1.391 . S
C343 C228 1.665 . S
C337 C135 1.660 . S
C357 C15 1.647 . S
C363 C300 1.640 . S
C377 C55 1.647 . S
C383 C216 1.660 . S
C397 C95 1.660 . S
C403 C312 1.667 . S
C423 C218 1.432 . S
C417 C2 1.558 . S
C443 C299 1.616 . S
C437 C42 1.617 . S
C457 C82 1.613 . S
C463 C215 1.626 . S
C477 C141 1.525 . S
C483 C302 1.390 . S
C503 C314 1.428 . S
C497 C61 1.560 . S
C523 C230 1.463 . S
C517 C101 1.588 . S
C543 C311 1.645 . S
C537 C122 1.596 . S
C557 C21 1.658 . S
C563 C227 1.658 . S
