# Generated by pormake.
# Topology the, (3,8)-cn, num edge types: 1
# Building blocks:
#     Node 0, Type 0, BuildingBlock: OLANEW_clean_sbu_2, # of connection points: 3
#     Node 1, Type 0, BuildingBlock: OLANEW_clean_sbu_2, # of connection points: 3
#     Node 2, Type 0, BuildingBlock: OLANEW_clean_sbu_2, # of connection points: 3
#     Node 3, Type 0, BuildingBlock: OLANEW_clean_sbu_2, # of connection points: 3
#     Node 4, Type 0, BuildingBlock: OLANEW_clean_sbu_2, # of connection points: 3
#     Node 5, Type 0, BuildingBlock: OLANEW_clean_sbu_2, # of connection points: 3
#     Node 6, Type 0, BuildingBlock: OLANEW_clean_sbu_2, # of connection points: 3
#     Node 7, Type 0, BuildingBlock: OLANEW_clean_sbu_2, # of connection points: 3
#     Node 8, Type 1, BuildingBlock: GIZVER_clean_sbu_0, # of connection points: 8
#     Node 9, Type 1, BuildingBlock: GIZVER_clean_sbu_0, # of connection points: 8
#     Node 10, Type 1, BuildingBlock: GIZVER_clean_sbu_0, # of connection points: 8
#     Edge 11, Type (0, 1), BuildingBlock: XUDNAN_clean_linker_2, # of connection points: 2
#     Edge 12, Type (0, 1), BuildingBlock: XUDNAN_clean_linker_2, # of connection points: 2
#     Edge 13, Type (0, 1), BuildingBlock: XUDNAN_clean_linker_2, # of connection points: 2
#     Edge 14, Type (0, 1), BuildingBlock: XUDNAN_clean_linker_2, # of connection points: 2
#     Edge 15, Type (0, 1), BuildingBlock: XUDNAN_clean_linker_2, # of connection points: 2
#     Edge 16, Type (0, 1), BuildingBlock: XUDNAN_clean_linker_2, # of connection points: 2
#     Edge 17, Type (0, 1), BuildingBlock: XUDNAN_clean_linker_2, # of connection points: 2
#     Edge 18, Type (0, 1), BuildingBlock: XUDNAN_clean_linker_2, # of connection points: 2
#     Edge 19, Type (0, 1), BuildingBlock: XUDNAN_clean_linker_2, # of connection points: 2
#     Edge 20, Type (0, 1), BuildingBlock: XUDNAN_clean_linker_2, # of connection points: 2
#     Edge 21, Type (0, 1), BuildingBlock: XUDNAN_clean_linker_2, # of connection points: 2
#     Edge 22, Type (0, 1), BuildingBlock: XUDNAN_clean_linker_2, # of connection points: 2
#     Edge 23, Type (0, 1), BuildingBlock: XUDNAN_clean_linker_2, # of connection points: 2
#     Edge 24, Type (0, 1), BuildingBlock: XUDNAN_clean_linker_2, # of connection points: 2
#     Edge 25, Type (0, 1), BuildingBlock: XUDNAN_clean_linker_2, # of connection points: 2
#     Edge 26, Type (0, 1), BuildingBlock: XUDNAN_clean_linker_2, # of connection points: 2
#     Edge 27, Type (0, 1), BuildingBlock: XUDNAN_clean_linker_2, # of connection points: 2
#     Edge 28, Type (0, 1), BuildingBlock: XUDNAN_clean_linker_2, # of connection points: 2
#     Edge 29, Type (0, 1), BuildingBlock: XUDNAN_clean_linker_2, # of connection points: 2
#     Edge 30, Type (0, 1), BuildingBlock: XUDNAN_clean_linker_2, # of connection points: 2
#     Edge 31, Type (0, 1), BuildingBlock: XUDNAN_clean_linker_2, # of connection points: 2
#     Edge 32, Type (0, 1), BuildingBlock: XUDNAN_clean_linker_2, # of connection points: 2
#     Edge 33, Type (0, 1), BuildingBlock: XUDNAN_clean_linker_2, # of connection points: 2
#     Edge 34, Type (0, 1), BuildingBlock: XUDNAN_clean_linker_2, # of connection points: 2
# Relax obj value: 0.076
# Max RMSD: 0.210
# Mean RMSD: 0.134
data_MOF--net-the--node1-OLANEW_clean_sbu_2--node2-GIZVER_clean_sbu_0--edge1-XUDNAN_clean_linker_2
_symmetry_space_group_name_H-M    P1
_symmetry_Int_Tables_number       1
_symmetry_cell_setting            triclinic
loop_
_symmetry_equiv_pos_as_xyz
'x, y, z'
_cell_length_a     43.895198
_cell_length_b     42.117241
_cell_length_c     37.644025
_cell_angle_alpha  91.180222
_cell_angle_beta   92.884227
_cell_angle_gamma 107.64234
loop_
_atom_site_label
_atom_site_type_symbol
_atom_site_fract_x
_atom_site_fract_y
_atom_site_fract_z
_atom_type_partial_charge
O0 O 0.3368 0.32929 0.30797 0.0
Cd1 Cd 0.30733 0.29202 0.35249 0.0
O2 O 0.31839 0.36491 0.33564 0.0
Cd3 Cd 0.30306 0.40858 0.34703 0.0
O4 O 0.26278 0.42032 0.36991 0.0
C5 C 0.23841 0.39485 0.37186 0.0
O6 O 0.23997 0.36585 0.36 0.0
C7 C 0.33409 0.35845 0.31046 0.0
C8 C 0.34063 0.25687 0.39262 0.0
O9 O 0.32345 0.24351 0.3645 0.0
O10 O 0.34274 0.28711 0.40119 0.0
O11 O 0.72838 0.38546 0.31806 0.0
Cd12 Cd 0.6712 0.3624 0.29959 0.0
O13 O 0.73956 0.33836 0.32653 0.0
Cd14 Cd 0.6907 0.30452 0.31991 0.0
O15 O 0.65505 0.26089 0.33951 0.0
C16 C 0.6342 0.23956 0.31953 0.0
O17 O 0.63274 0.24404 0.28513 0.0
C18 C 0.74847 0.37003 0.32615 0.0
C19 C 0.65198 0.39377 0.24132 0.0
O20 O 0.6583 0.40823 0.27224 0.0
O21 O 0.65489 0.36455 0.23751 0.0
O22 O 0.7306 0.7255 0.25761 0.0
Cd23 Cd 0.7572 0.76218 0.30892 0.0
O24 O 0.68426 0.73011 0.27265 0.0
Cd25 Cd 0.70157 0.76688 0.31662 0.0
O26 O 0.68858 0.79471 0.35977 0.0
C27 C 0.69263 0.82593 0.36079 0.0
O28 O 0.70804 0.84427 0.33567 0.0
C29 C 0.70032 0.71761 0.25242 0.0
C30 C 0.80193 0.73993 0.34841 0.0
O31 O 0.77201 0.72882 0.35375 0.0
O32 O 0.81064 0.76123 0.32418 0.0
O33 O 0.34096 0.76307 0.33571 0.0
Cd34 Cd 0.30434 0.70965 0.31147 0.0
O35 O 0.35207 0.74159 0.38568 0.0
Cd36 Cd 0.31428 0.69506 0.37272 0.0
O37 O 0.26289 0.66977 0.37122 0.0
C38 C 0.24575 0.68885 0.37589 0.0
O39 O 0.25993 0.72112 0.37994 0.0
C40 C 0.35635 0.76648 0.36587 0.0
C41 C 0.32832 0.67786 0.25854 0.0
O42 O 0.31087 0.69647 0.25045 0.0
O43 O 0.33493 0.67477 0.2916 0.0
O44 O 0.38326 0.78491 0.75061 0.0
Cd45 Cd 0.34748 0.73666 0.779 0.0
O46 O 0.35026 0.78891 0.70579 0.0
Cd47 Cd 0.31006 0.74407 0.71345 0.0
O48 O 0.26499 0.7041 0.70036 0.0
C49 C 0.24496 0.70939 0.67738 0.0
O50 O 0.25166 0.73872 0.66306 0.0
C51 C 0.37713 0.79992 0.72338 0.0
C52 C 0.37749 0.69847 0.82018 0.0
O53 O 0.36409 0.68774 0.78941 0.0
O54 O 0.37742 0.72735 0.8314 0.0
O55 O 0.33335 0.34158 0.76243 0.0
Cd56 Cd 0.30316 0.30555 0.71229 0.0
O57 O 0.30898 0.37943 0.75162 0.0
Cd58 Cd 0.27426 0.35515 0.70793 0.0
O59 O 0.23688 0.36151 0.67026 0.0
C60 C 0.2088 0.34117 0.66529 0.0
O61 O 0.20128 0.31308 0.68213 0.0
C62 C 0.32968 0.36981 0.76962 0.0
C63 C 0.32925 0.25573 0.69052 0.0
O64 O 0.33905 0.28515 0.67855 0.0
O65 O 0.30749 0.25 0.7131 0.0
O66 O 0.72385 0.36928 0.79211 0.0
Cd67 Cd 0.74993 0.33382 0.76125 0.0
O68 O 0.71052 0.33217 0.8335 0.0
Cd69 Cd 0.7133 0.29195 0.79711 0.0
O70 O 0.69671 0.2558 0.75208 0.0
C71 C 0.69113 0.26709 0.72218 0.0
O72 O 0.69662 0.29938 0.71972 0.0
C73 C 0.7132 0.36121 0.8225 0.0
C74 C 0.79305 0.36695 0.71249 0.0
O75 O 0.76471 0.34892 0.70214 0.0
O76 O 0.80092 0.3697 0.74591 0.0
O77 O 0.7942 0.76568 0.58151 0.0
Cd78 Cd 0.77372 0.80541 0.6138 0.0
O79 O 0.7673 0.72963 0.6182 0.0
Cd80 Cd 0.75289 0.68358 0.64758 0.0
O81 O 0.73052 0.64925 0.68842 0.0
C82 C 0.73303 0.66064 0.72035 0.0
O83 O 0.74986 0.69189 0.72754 0.0
C84 C 0.78646 0.73641 0.59324 0.0
C85 C 0.73453 0.83698 0.57767 0.0
O86 O 0.76512 0.84794 0.57714 0.0
O87 O 0.72225 0.81007 0.59399 0.0
Co88 Co 0.05256 0.49184 0.52535 0.0
Co89 Co 0.02524 0.48615 0.46151 0.0
Co90 Co 0.99776 0.53326 0.50679 0.0
O91 O 0.01127 0.49203 0.5061 0.0
H92 H 0.99429 0.47247 0.51191 0.0
O93 O 0.98412 0.57433 0.50805 0.0
Co94 Co 0.94435 0.57572 0.48567 0.0
Co95 Co 0.96774 0.58046 0.55218 0.0
H96 H 1.00157 0.59391 0.50339 0.0
O97 O 0.02794 0.44545 0.44534 0.0
O98 O 0.06606 0.48598 0.47657 0.0
O99 O 0.03122 0.52223 0.42952 0.0
O100 O 0.03089 0.55806 0.47357 0.0
O101 O 0.96707 0.51337 0.46533 0.0
O102 O 0.90935 0.58197 0.46488 0.0
O103 O 0.95617 0.62039 0.48243 0.0
O104 O 0.92706 0.52893 0.48497 0.0
O105 O 0.96434 0.50848 0.53964 0.0
O106 O 0.96054 0.54328 0.5834 0.0
O107 O 0.92735 0.57802 0.53269 0.0
O108 O 0.95899 0.62033 0.56688 0.0
C109 C 0.07223 0.4565 0.54399 0.0
C110 C 0.05889 0.55591 0.54613 0.0
C111 C 0.03862 0.55177 0.44251 0.0
C112 C 0.05735 0.45788 0.45804 0.0
C113 C 0.92724 0.61296 0.4676 0.0
C114 C 0.93736 0.51068 0.4645 0.0
C115 C 0.95493 0.51396 0.57012 0.0
C116 C 0.93142 0.60569 0.55055 0.0
O117 O 0.0891 0.48776 0.54378 0.0
O118 O 0.04241 0.44735 0.53148 0.0
O119 O 0.02916 0.55274 0.54787 0.0
O120 O 0.06823 0.53871 0.52335 0.0
Co121 Co 0.54137 0.97154 0.5099 0.0
Co122 Co 0.56567 0.00716 0.56885 0.0
Co123 Co 0.50985 0.03203 0.53782 0.0
O124 O 0.54769 0.01727 0.52627 0.0
H125 H 0.56334 0.03352 0.51349 0.0
O126 O 0.47187 0.04643 0.5481 0.0
Co127 Co 0.47539 0.09066 0.56455 0.0
Co128 Co 0.45362 0.05597 0.505 0.0
H129 H 0.45614 0.02968 0.56025 0.0
O130 O 0.60752 0.00695 0.57138 0.0
O131 O 0.56351 0.96395 0.55514 0.0
O132 O 0.54213 0.00454 0.61105 0.0
O133 O 0.4973 1.00094 0.57889 0.0
O134 O 0.53843 0.06765 0.57089 0.0
O135 O 0.47401 0.12999 0.582 0.0
O136 O 0.43541 0.08038 0.57951 0.0
O137 O 0.51865 0.1072 0.552 0.0
O138 O 0.52213 0.06314 0.49689 0.0
O139 O 0.47704 0.05389 0.46338 0.0
O140 O 0.46109 0.10106 0.51667 0.0
O141 O 0.41398 0.06456 0.49795 0.0
C142 C 0.56607 0.94563 0.48281 0.0
C143 C 0.47993 0.96586 0.50857 0.0
C144 C 0.51182 0.99544 0.60736 0.0
C145 C 0.59451 0.97584 0.56149 0.0
C146 C 0.44522 0.112 0.58888 0.0
C147 C 0.54114 0.09836 0.56721 0.0
C148 C 0.50734 0.06452 0.46708 0.0
C149 C 0.43157 0.09511 0.50481 0.0
O150 O 0.538 0.93118 0.4942 0.0
O151 O 0.57872 0.97795 0.48759 0.0
O152 O 0.48176 0.99636 0.50496 0.0
O153 O 0.50081 0.95869 0.52882 0.0
Co154 Co 0.47556 0.54765 0.08406 0.0
Co155 Co 0.4678 0.48627 0.06646 0.0
Co156 Co 0.51735 0.53335 0.0143 0.0
O157 O 0.47725 0.52444 0.04036 0.0
H158 H 0.45913 0.52341 0.02419 0.0
O159 O 0.55777 0.5423 0.98906 0.0
Co160 Co 0.5619 0.51546 0.9495 0.0
Co161 Co 0.56789 0.57779 0.95947 0.0
H162 H 0.5757 0.54546 0.00618 0.0
O163 O 0.42677 0.46324 0.07819 0.0
O164 O 0.46291 0.50518 0.11001 0.0
O165 O 0.50113 0.46587 0.07308 0.0
O166 O 0.5372 0.5052 0.04555 0.0
O167 O 0.49411 0.49381 0.98206 0.0
O168 O 0.56998 0.49031 0.91473 0.0
O169 O 0.60264 0.51749 0.96113 0.0
O170 O 0.5194 0.5094 0.9328 0.0
O171 O 0.49797 0.5623 0.9832 0.0
O172 O 0.53382 0.59671 0.95004 0.0
O173 O 0.57493 0.55495 0.91964 0.0
O174 O 0.6099 0.59986 0.94769 0.0
C175 C 0.44175 0.56409 0.10738 0.0
C176 C 0.54219 0.57132 0.0801 0.0
C177 C 0.52971 0.47983 0.06517 0.0
C178 C 0.43591 0.48104 0.10761 0.0
C179 C 0.59733 0.4975 0.93306 0.0
C180 C 0.49443 0.49409 0.94823 0.0
C181 C 0.50579 0.58593 0.96114 0.0
C182 C 0.60235 0.57822 0.92112 0.0
O183 O 0.47016 0.56957 0.12281 0.0
O184 O 0.43432 0.54684 0.07726 0.0
O185 O 0.54028 0.57261 0.04632 0.0
O186 O 0.51918 0.55285 0.09657 0.0
H187 H 0.2286 0.44872 0.40703 0.0
H188 H 0.18067 0.3465 0.3701 0.0
H189 H 0.13028 0.35025 0.39299 0.0
H190 H 0.18438 0.44374 0.48844 0.0
H191 H 0.18254 0.48582 0.48629 0.0
H192 H 0.21592 0.47524 0.46891 0.0
H193 H 0.20487 0.49689 0.40688 0.0
H194 H 0.17268 0.50878 0.42507 0.0
H195 H 0.16511 0.4818 0.38567 0.0
H196 H 0.08435 0.36604 0.41518 0.0
H197 H 0.04548 0.39313 0.43559 0.0
H198 H 0.12285 0.48463 0.46024 0.0
C199 C 0.20754 0.42708 0.40398 0.0
C200 C 0.20858 0.39734 0.38667 0.0
C201 C 0.18052 0.36954 0.38329 0.0
C202 C 0.15176 0.37137 0.39629 0.0
C203 C 0.15148 0.40104 0.41301 0.0
C204 C 0.1786 0.42837 0.41713 0.0
C205 C 0.17142 0.45752 0.43534 0.0
C206 C 0.18966 0.46611 0.47192 0.0
C207 C 0.17895 0.48803 0.41178 0.0
C208 C 0.13572 0.44277 0.43922 0.0
C209 C 0.12486 0.41 0.4266 0.0
C210 C 0.09258 0.39156 0.42553 0.0
C211 C 0.07068 0.4072 0.43707 0.0
C212 C 0.08115 0.44093 0.44952 0.0
C213 C 0.1142 0.45868 0.45128 0.0
H214 H 0.63636 0.21882 0.38805 0.0
H215 H 0.58292 0.19238 0.28591 0.0
H216 H 0.54672 0.14243 0.31167 0.0
H217 H 0.63051 0.13424 0.41259 0.0
H218 H 0.62629 0.14228 0.45902 0.0
H219 H 0.6486 0.17547 0.43235 0.0
H220 H 0.61241 0.21123 0.44965 0.0
H221 H 0.59039 0.17826 0.47662 0.0
H222 H 0.56957 0.19415 0.4422 0.0
H223 H 0.51468 0.09711 0.34934 0.0
H224 H 0.48897 0.05979 0.39627 0.0
H225 H 0.56446 0.11469 0.47324 0.0
C226 C 0.61711 0.20251 0.37102 0.0
C227 C 0.61246 0.20956 0.33492 0.0
C228 C 0.587 0.1875 0.3136 0.0
C229 C 0.56635 0.15902 0.32798 0.0
C230 C 0.57165 0.15281 0.36362 0.0
C231 C 0.59645 0.17388 0.38485 0.0
C232 C 0.59654 0.16189 0.42254 0.0
C233 C 0.62732 0.15294 0.43217 0.0
C234 C 0.59194 0.18793 0.44931 0.0
C235 C 0.5676 0.13106 0.41934 0.0
C236 C 0.55363 0.12622 0.38512 0.0
C237 C 0.52561 0.10042 0.37612 0.0
C238 C 0.5112 0.07936 0.40293 0.0
C239 C 0.52491 0.08411 0.43827 0.0
C240 C 0.55379 0.10998 0.44632 0.0
H241 H 0.79093 0.68433 0.3885 0.0
H242 H 0.86678 0.76918 0.35513 0.0
H243 H 0.90687 0.74893 0.38813 0.0
H244 H 0.82795 0.67751 0.47749 0.0
H245 H 0.81483 0.63261 0.47499 0.0
H246 H 0.79121 0.6554 0.45269 0.0
H247 H 0.79317 0.62514 0.39273 0.0
H248 H 0.8162 0.60169 0.41464 0.0
H249 H 0.8314 0.62578 0.37679 0.0
H250 H 0.93898 0.71786 0.42178 0.0
H251 H 0.96088 0.6757 0.44876 0.0
H252 H 0.86432 0.60989 0.45758 0.0
C253 C 0.81592 0.69896 0.38869 0.0
C254 C 0.82574 0.72845 0.36944 0.0
C255 C 0.85872 0.74654 0.36972 0.0
C256 C 0.88165 0.73537 0.3886 0.0
C257 C 0.87123 0.70601 0.40699 0.0
C258 C 0.83915 0.68795 0.40707 0.0
C259 C 0.83453 0.65561 0.4261 0.0
C260 C 0.81605 0.65528 0.45981 0.0
C261 C 0.81785 0.62528 0.40106 0.0
C262 C 0.86905 0.65775 0.43547 0.0
C263 C 0.88982 0.68739 0.42508 0.0
C264 C 0.92295 0.69461 0.43014 0.0
C265 C 0.93517 0.67054 0.44546 0.0
C266 C 0.9143 0.63945 0.45478 0.0
C267 C 0.88084 0.63334 0.45033 0.0
H268 H 0.39653 0.78181 0.42636 0.0
H269 H 0.36104 0.82682 0.33699 0.0
H270 H 0.38899 0.88271 0.36374 0.0
H271 H 0.38855 0.83762 0.49331 0.0
H272 H 0.42489 0.83919 0.51877 0.0
H273 H 0.40399 0.80255 0.49174 0.0
H274 H 0.45536 0.80718 0.45839 0.0
H275 H 0.47656 0.84358 0.4857 0.0
H276 H 0.47541 0.84566 0.43791 0.0
H277 H 0.41688 0.93342 0.40257 0.0
H278 H 0.44768 0.97584 0.4477 0.0
H279 H 0.46627 0.89795 0.51104 0.0
C280 C 0.39502 0.8034 0.4121 0.0
C281 C 0.37653 0.79988 0.37954 0.0
C282 C 0.37515 0.82883 0.36184 0.0
C283 C 0.39084 0.86071 0.37691 0.0
C284 C 0.40811 0.86324 0.40948 0.0
C285 C 0.41076 0.83541 0.4266 0.0
C286 C 0.43056 0.84505 0.46154 0.0
C287 C 0.41081 0.83022 0.4932 0.0
C288 C 0.46129 0.83476 0.46082 0.0
C289 C 0.43804 0.88258 0.4617 0.0
C290 C 0.4248 0.89255 0.43149 0.0
C291 C 0.42766 0.92594 0.42615 0.0
C292 C 0.44504 0.94983 0.45207 0.0
C293 C 0.45953 0.94023 0.48283 0.0
C294 C 0.45568 0.90609 0.4877 0.0
H295 H 0.19876 0.71242 0.62673 0.0
H296 H 0.22416 0.64544 0.7006 0.0
H297 H 0.17625 0.60003 0.67835 0.0
H298 H 0.11154 0.67878 0.63207 0.0
H299 H 0.10369 0.6839 0.58542 0.0
H300 H 0.13858 0.71184 0.60905 0.0
H301 H 0.17481 0.69739 0.56306 0.0
H302 H 0.14008 0.6695 0.5393 0.0
H303 H 0.17253 0.6544 0.55468 0.0
H304 H 0.12816 0.56081 0.64481 0.0
H305 H 0.08332 0.53072 0.60224 0.0
H306 H 0.08857 0.62309 0.55081 0.0
C307 C 0.19407 0.68834 0.6386 0.0
C308 C 0.21525 0.68256 0.66553 0.0
C309 C 0.2083 0.65055 0.68006 0.0
C310 C 0.18109 0.6246 0.66763 0.0
C311 C 0.16092 0.63108 0.64082 0.0
C312 C 0.16701 0.66219 0.62654 0.0
C313 C 0.14241 0.66219 0.59675 0.0
C314 C 0.1229 0.68557 0.60641 0.0
C315 C 0.15842 0.6714 0.56136 0.0
C316 C 0.12194 0.62601 0.59592 0.0
C317 C 0.1329 0.60855 0.62177 0.0
C318 C 0.11906 0.57433 0.6249 0.0
C319 C 0.09365 0.55747 0.60073 0.0
C320 C 0.08232 0.57487 0.574 0.0
C321 C 0.09638 0.60956 0.57174 0.0
H322 H 0.38148 0.26197 0.65073 0.0
H323 H 0.30639 0.18902 0.70244 0.0
H324 H 0.32724 0.14422 0.68114 0.0
H325 H 0.38308 0.21028 0.57295 0.0
H326 H 0.42596 0.22619 0.57118 0.0
H327 H 0.40418 0.25209 0.58944 0.0
H328 H 0.44042 0.26077 0.6478 0.0
H329 H 0.46186 0.23454 0.62955 0.0
H330 H 0.44344 0.2249 0.67135 0.0
H331 H 0.35553 0.10711 0.65296 0.0
H332 H 0.39146 0.08096 0.62344 0.0
H333 H 0.44964 0.1784 0.59277 0.0
C334 C 0.36936 0.23657 0.65752 0.0
C335 C 0.34221 0.229 0.67819 0.0
C336 C 0.32723 0.19545 0.68669 0.0
C337 C 0.33883 0.1698 0.67461 0.0
C338 C 0.36558 0.1781 0.65423 0.0
C339 C 0.3808 0.21069 0.64595 0.0
C340 C 0.40966 0.213 0.62448 0.0
C341 C 0.40544 0.22616 0.58731 0.0
C342 C 0.44068 0.23458 0.6445 0.0
C343 C 0.4084 0.17667 0.62221 0.0
C344 C 0.38255 0.15688 0.63913 0.0
C345 C 0.37596 0.12238 0.6398 0.0
C346 C 0.39645 0.10775 0.62291 0.0
C347 C 0.42345 0.12764 0.60605 0.0
C348 C 0.42938 0.16255 0.60576 0.0
H349 H 0.84278 0.42479 0.7227 0.0
H350 H 0.79517 0.34676 0.6437 0.0
H351 H 0.83438 0.37387 0.60024 0.0
H352 H 0.85708 0.49114 0.66193 0.0
H353 H 0.89521 0.51453 0.68326 0.0
H354 H 0.86499 0.48761 0.70891 0.0
H355 H 0.90508 0.45658 0.7298 0.0
H356 H 0.93537 0.48329 0.70397 0.0
H357 H 0.92434 0.43867 0.69712 0.0
H358 H 0.87862 0.40906 0.56569 0.0
H359 H 0.9208 0.4535 0.53952 0.0
H360 H 0.93761 0.51103 0.63962 0.0
C361 C 0.84085 0.41331 0.69633 0.0
C362 C 0.81622 0.38355 0.68654 0.0
C363 C 0.81393 0.36956 0.65164 0.0
C364 C 0.83618 0.38465 0.6269 0.0
C365 C 0.86024 0.41395 0.63737 0.0
C366 C 0.86244 0.42845 0.67105 0.0
C367 C 0.88911 0.46129 0.67462 0.0
C368 C 0.87579 0.49036 0.68264 0.0
C369 C 0.91501 0.45985 0.70307 0.0
C370 C 0.9015 0.46302 0.63764 0.0
C371 C 0.88485 0.43516 0.61683 0.0
C372 C 0.89182 0.43102 0.5817 0.0
C373 C 0.91596 0.45638 0.56714 0.0
C374 C 0.93254 0.48581 0.58752 0.0
C375 C 0.92539 0.48887 0.62339 0.0
H376 H 0.67114 0.82907 0.58809 0.0
H377 H 0.75283 0.89024 0.5349 0.0
H378 H 0.72228 0.92852 0.51805 0.0
H379 H 0.60886 0.84177 0.52591 0.0
H380 H 0.58212 0.84561 0.55948 0.0
H381 H 0.6073 0.81913 0.56599 0.0
H382 H 0.63383 0.84915 0.62426 0.0
H383 H 0.60766 0.87471 0.62138 0.0
H384 H 0.65042 0.89393 0.62632 0.0
H385 H 0.68783 0.96523 0.51711 0.0
H386 H 0.64941 0.99614 0.5275 0.0
H387 H 0.58788 0.91078 0.57823 0.0
C388 C 0.68222 0.8499 0.57188 0.0
C389 C 0.71436 0.85657 0.56266 0.0
C390 C 0.72823 0.88454 0.54216 0.0
C391 C 0.71101 0.90639 0.53234 0.0
C392 C 0.6798 0.89979 0.54292 0.0
C393 C 0.66533 0.87206 0.56191 0.0
C394 C 0.63263 0.87251 0.57284 0.0
C395 C 0.60611 0.84304 0.55499 0.0
C396 C 0.63107 0.87259 0.61361 0.0
C397 C 0.63155 0.9055 0.55825 0.0
C398 C 0.65905 0.92071 0.54102 0.0
C399 C 0.66577 0.95318 0.5295 0.0
C400 C 0.64401 0.97067 0.53589 0.0
C401 C 0.61569 0.95566 0.55336 0.0
C402 C 0.60904 0.92243 0.56405 0.0
H403 H 0.32922 0.18911 0.39179 0.0
H404 H 0.38877 0.28142 0.44418 0.0
H405 H 0.41622 0.24958 0.48146 0.0
H406 H 0.32048 0.13943 0.47117 0.0
H407 H 0.32155 0.10238 0.44708 0.0
H408 H 0.30598 0.13232 0.42513 0.0
H409 H 0.34645 0.13751 0.37609 0.0
H410 H 0.36199 0.1075 0.39779 0.0
H411 H 0.3886 0.14801 0.38869 0.0
H412 H 0.44013 0.20831 0.50916 0.0
H413 H 0.45732 0.16034 0.52744 0.0
H414 H 0.37961 0.09419 0.4605 0.0
C415 C 0.34803 0.20263 0.41112 0.0
C416 C 0.35702 0.23777 0.41495 0.0
C417 C 0.38152 0.25451 0.44077 0.0
C418 C 0.39722 0.23665 0.4621 0.0
C419 C 0.38779 0.20204 0.45761 0.0
C420 C 0.36359 0.18516 0.43299 0.0
C421 C 0.35826 0.14789 0.43329 0.0
C422 C 0.32456 0.12942 0.44486 0.0
C423 C 0.36419 0.13445 0.3968 0.0
C424 C 0.38379 0.14651 0.46131 0.0
C425 C 0.40053 0.17804 0.47498 0.0
C426 C 0.42674 0.18344 0.49926 0.0
C427 C 0.43628 0.15595 0.50957 0.0
C428 C 0.41938 0.12334 0.49611 0.0
C429 C 0.39253 0.11865 0.47198 0.0
H430 H 0.76946 0.43273 0.35702 0.0
H431 H 0.80176 0.34905 0.32613 0.0
H432 H 0.8554 0.37778 0.3546 0.0
H433 H 0.84583 0.49955 0.34884 0.0
H434 H 0.84004 0.52217 0.38779 0.0
H435 H 0.8059 0.4971 0.36064 0.0
H436 H 0.78302 0.46489 0.41617 0.0
H437 H 0.81721 0.4896 0.44334 0.0
H438 H 0.80713 0.44478 0.44194 0.0
H439 H 0.90473 0.41448 0.38997 0.0
H440 H 0.94454 0.45502 0.43082 0.0
H441 H 0.87809 0.51234 0.44115 0.0
C442 C 0.78808 0.42086 0.35533 0.0
C443 C 0.78161 0.38888 0.33892 0.0
C444 C 0.80632 0.37369 0.33832 0.0
C445 C 0.83685 0.38983 0.35438 0.0
C446 C 0.84219 0.42101 0.37118 0.0
C447 C 0.81844 0.43634 0.37176 0.0
C448 C 0.82926 0.4684 0.39427 0.0
C449 C 0.83033 0.49859 0.37152 0.0
C450 C 0.80789 0.46679 0.42579 0.0
C451 C 0.86257 0.46844 0.40674 0.0
C452 C 0.86988 0.44124 0.39274 0.0
C453 C 0.89929 0.43594 0.40096 0.0
C454 C 0.92173 0.45904 0.42418 0.0
C455 C 0.91433 0.48667 0.43932 0.0
C456 C 0.88439 0.49133 0.43024 0.0
H457 H 0.69535 0.89189 0.37221 0.0
H458 H 0.65069 0.79178 0.40778 0.0
H459 H 0.61615 0.81299 0.44479 0.0
H460 H 0.69215 0.93407 0.45947 0.0
H461 H 0.68379 0.96934 0.4396 0.0
H462 H 0.70764 0.9479 0.41719 0.0
H463 H 0.66928 0.93754 0.36106 0.0
H464 H 0.64528 0.95933 0.38242 0.0
H465 H 0.62709 0.91731 0.36483 0.0
H466 H 0.58068 0.84172 0.46873 0.0
H467 H 0.55203 0.87914 0.49009 0.0
H468 H 0.62062 0.96293 0.44374 0.0
C469 C 0.67876 0.87459 0.38836 0.0
C470 C 0.67562 0.84008 0.38683 0.0
C471 C 0.65359 0.81826 0.40836 0.0
C472 C 0.63377 0.83004 0.42948 0.0
C473 C 0.63662 0.86382 0.42937 0.0
C474 C 0.65899 0.88605 0.41019 0.0
C475 C 0.65631 0.92107 0.41464 0.0
C476 C 0.68679 0.9445 0.43387 0.0
C477 C 0.64905 0.93459 0.37859 0.0
C478 C 0.62797 0.91456 0.43795 0.0
C479 C 0.6171 0.88125 0.44584 0.0
C480 C 0.5896 0.86809 0.46397 0.0
C481 C 0.57323 0.88963 0.47554 0.0
C482 C 0.58414 0.92412 0.46876 0.0
C483 C 0.61198 0.93679 0.44971 0.0
H484 H 0.20789 0.62393 0.36468 0.0
H485 H 0.205 0.72244 0.3971 0.0
H486 H 0.1482 0.69875 0.40987 0.0
H487 H 0.12417 0.59346 0.32413 0.0
H488 H 0.11848 0.55202 0.33979 0.0
H489 H 0.15773 0.57731 0.32884 0.0
H490 H 0.18033 0.56951 0.39181 0.0
H491 H 0.14119 0.54452 0.40301 0.0
H492 H 0.16253 0.58087 0.43033 0.0
H493 H 0.09487 0.66341 0.42816 0.0
H494 H 0.04838 0.61905 0.44812 0.0
H495 H 0.08461 0.5442 0.40023 0.0
C496 C 0.19513 0.64063 0.37373 0.0
C497 C 0.2109 0.67503 0.37989 0.0
C498 C 0.19342 0.69601 0.39204 0.0
C499 C 0.16109 0.68281 0.3993 0.0
C500 C 0.14641 0.64867 0.39365 0.0
C501 C 0.16274 0.62792 0.38071 0.0
C502 C 0.14209 0.59184 0.37931 0.0
C503 C 0.1352 0.57784 0.34071 0.0
C504 C 0.15748 0.57047 0.40251 0.0
C505 C 0.11213 0.59541 0.39492 0.0
C506 C 0.11498 0.62841 0.40281 0.0
C507 C 0.09193 0.63755 0.4212 0.0
C508 C 0.06565 0.61224 0.43246 0.0
C509 C 0.06258 0.5783 0.42503 0.0
C510 C 0.08573 0.56997 0.40519 0.0
H511 H 0.37471 0.83497 0.66293 0.0
H512 H 0.43343 0.8356 0.75946 0.0
H513 H 0.47215 0.88823 0.74244 0.0
H514 H 0.43985 0.86565 0.60649 0.0
H515 H 0.42026 0.89021 0.58073 0.0
H516 H 0.39675 0.85321 0.60116 0.0
H517 H 0.36598 0.88799 0.63329 0.0
H518 H 0.38967 0.92518 0.61322 0.0
H519 H 0.38799 0.92389 0.66093 0.0
H520 H 0.50523 0.94009 0.71422 0.0
H521 H 0.53178 0.98535 0.67515 0.0
H522 H 0.45131 0.95116 0.59726 0.0
C523 C 0.39565 0.84618 0.6806 0.0
C524 C 0.40091 0.8311 0.71266 0.0
C525 C 0.42881 0.84656 0.73479 0.0
C526 C 0.45089 0.87658 0.72543 0.0
C527 C 0.44482 0.89086 0.69382 0.0
C528 C 0.418 0.87605 0.6716 0.0
C529 C 0.4177 0.89588 0.63846 0.0
C530 C 0.41871 0.875 0.60473 0.0
C531 C 0.3886 0.90901 0.63637 0.0
C532 C 0.44862 0.92408 0.64546 0.0
C533 C 0.46382 0.92081 0.67761 0.0
C534 C 0.49343 0.94303 0.68911 0.0
C535 C 0.5083 0.96873 0.66677 0.0
C536 C 0.49355 0.97207 0.63326 0.0
C537 C 0.46297 0.94978 0.62297 0.0
H538 H 0.21438 0.40129 0.63548 0.0
H539 H 0.14717 0.30276 0.64587 0.0
H540 H 0.10526 0.3202 0.61253 0.0
H541 H 0.15987 0.44594 0.64966 0.0
H542 H 0.17643 0.47749 0.61834 0.0
H543 H 0.20156 0.45625 0.6403 0.0
H544 H 0.21703 0.43865 0.57914 0.0
H545 H 0.19183 0.45969 0.55684 0.0
H546 H 0.18601 0.41612 0.54671 0.0
H547 H 0.06973 0.35 0.58054 0.0
H548 H 0.04403 0.38955 0.55397 0.0
H549 H 0.13504 0.46805 0.56577 0.0
C550 C 0.19102 0.38314 0.63034 0.0
C551 C 0.18415 0.35057 0.64317 0.0
C552 C 0.15307 0.32782 0.63621 0.0
C553 C 0.1291 0.33749 0.61725 0.0
C554 C 0.1366 0.36998 0.60543 0.0
C555 C 0.16686 0.3924 0.61172 0.0
C556 C 0.16853 0.42632 0.59793 0.0
C557 C 0.17709 0.45306 0.62837 0.0
C558 C 0.19225 0.43574 0.56838 0.0
C559 C 0.13437 0.4197 0.58328 0.0
C560 C 0.11629 0.38704 0.58754 0.0
C561 C 0.08375 0.37558 0.5769 0.0
C562 C 0.06935 0.39821 0.56186 0.0
C563 C 0.08744 0.43193 0.55789 0.0
C564 C 0.12044 0.44248 0.56843 0.0
H565 H 0.66462 0.19877 0.72107 0.0
H566 H 0.68235 0.28426 0.65384 0.0
H567 H 0.65159 0.248 0.60393 0.0
H568 H 0.66598 0.13614 0.64911 0.0
H569 H 0.63407 0.10412 0.66746 0.0
H570 H 0.66157 0.13569 0.69647 0.0
H571 H 0.61388 0.15101 0.72196 0.0
H572 H 0.58633 0.11962 0.69307 0.0
H573 H 0.5858 0.16222 0.69196 0.0
H574 H 0.61277 0.20508 0.56452 0.0
H575 H 0.56907 0.1576 0.53773 0.0
H576 H 0.57726 0.09878 0.62883 0.0
C577 C 0.66276 0.20968 0.69556 0.0
C578 C 0.67598 0.24437 0.69136 0.0
C579 C 0.67247 0.25779 0.65775 0.0
C580 C 0.65515 0.23735 0.62914 0.0
C581 C 0.64169 0.20345 0.6344 0.0
C582 C 0.64549 0.18957 0.66664 0.0
C583 C 0.62616 0.15295 0.66609 0.0
C584 C 0.64827 0.13093 0.67001 0.0
C585 C 0.60159 0.14607 0.69497 0.0
C586 C 0.60988 0.14883 0.62905 0.0
C587 C 0.61951 0.17822 0.61111 0.0
C588 C 0.60558 0.18171 0.57792 0.0
C589 C 0.58074 0.15469 0.56297 0.0
C590 C 0.57023 0.12452 0.58104 0.0
C591 C 0.58551 0.1213 0.61408 0.0
H592 H 0.84863 0.74829 0.57704 0.0
H593 H 0.75877 0.66934 0.58146 0.0
H594 H 0.78555 0.62778 0.56448 0.0
H595 H 0.88211 0.71026 0.50337 0.0
H596 H 0.92196 0.72448 0.52416 0.0
H597 H 0.89467 0.74841 0.53021 0.0
H598 H 0.90311 0.74583 0.59872 0.0
H599 H 0.93007 0.72167 0.59277 0.0
H600 H 0.89556 0.7058 0.61862 0.0
H601 H 0.8226 0.59475 0.55042 0.0
H602 H 0.86789 0.5718 0.54622 0.0
H603 H 0.93463 0.67179 0.55652 0.0
C604 C 0.8345 0.72232 0.57353 0.0
C605 C 0.80163 0.71189 0.58025 0.0
C606 C 0.78399 0.67769 0.57645 0.0
C607 C 0.79895 0.65402 0.56655 0.0
C608 C 0.8316 0.66499 0.56092 0.0
C609 C 0.84923 0.69833 0.56441 0.0
C610 C 0.88461 0.70314 0.56092 0.0
C611 C 0.89652 0.72274 0.5277 0.0
C612 C 0.90449 0.7201 0.59478 0.0
C613 C 0.88428 0.66723 0.55643 0.0
C614 C 0.85335 0.64574 0.55527 0.0
C615 C 0.8469 0.61135 0.55133 0.0
C616 C 0.87276 0.59856 0.54906 0.0
C617 C 0.90468 0.62004 0.55167 0.0
C618 C 0.91045 0.65482 0.55505 0.0
H619 H 0.3427 0.34642 0.24078 0.0
H620 H 0.3567 0.42652 0.32 0.0
H621 H 0.38148 0.46763 0.27561 0.0
H622 H 0.41528 0.37914 0.19904 0.0
H623 H 0.39829 0.36547 0.1547 0.0
H624 H 0.38057 0.34289 0.19236 0.0
H625 H 0.32582 0.35038 0.17246 0.0
H626 H 0.34343 0.37306 0.13473 0.0
H627 H 0.32311 0.39169 0.16556 0.0
H628 H 0.40951 0.49927 0.2236 0.0
H629 H 0.43519 0.5188 0.16771 0.0
H630 H 0.39892 0.41827 0.12165 0.0
C631 C 0.35079 0.37264 0.24871 0.0
C632 C 0.34769 0.38335 0.28376 0.0
C633 C 0.35844 0.41785 0.29314 0.0
C634 C 0.37267 0.44134 0.26815 0.0
C635 C 0.37547 0.42991 0.23378 0.0
C636 C 0.36447 0.39638 0.22397 0.0
C637 C 0.37052 0.39041 0.18554 0.0
C638 C 0.39247 0.36818 0.18277 0.0
C639 C 0.33883 0.37551 0.16326 0.0
C640 C 0.3873 0.42574 0.17538 0.0
C641 C 0.3901 0.44822 0.20355 0.0
C642 C 0.40689 0.48196 0.20118 0.0
C643 C 0.42137 0.49286 0.16932 0.0
C644 C 0.41847 0.47023 0.14007 0.0
C645 C 0.40084 0.43635 0.14318 0.0
H646 H 0.4391 0.71249 0.84832 0.0
H647 H 0.34642 0.63692 0.84258 0.0
H648 H 0.36813 0.60175 0.88236 0.0
H649 H 0.48396 0.65408 0.84309 0.0
H650 H 0.51688 0.67861 0.87225 0.0
H651 H 0.49326 0.69882 0.84602 0.0
H652 H 0.48161 0.72713 0.90337 0.0
H653 H 0.50498 0.70673 0.9298 0.0
H654 H 0.46401 0.70173 0.93945 0.0
H655 H 0.39974 0.57596 0.92478 0.0
H656 H 0.44062 0.5568 0.95772 0.0
H657 H 0.51422 0.64612 0.9297 0.0
C658 C 0.42345 0.68861 0.85571 0.0
C659 C 0.39105 0.67739 0.84291 0.0
C660 C 0.3713 0.64581 0.85235 0.0
C661 C 0.38336 0.62584 0.87505 0.0
C662 C 0.41543 0.63757 0.88742 0.0
C663 C 0.43539 0.6679 0.87746 0.0
C664 C 0.46953 0.67338 0.89196 0.0
C665 C 0.49224 0.67639 0.86152 0.0
C666 C 0.48068 0.70407 0.91767 0.0
C667 C 0.46567 0.64143 0.91157 0.0
C668 C 0.43414 0.62149 0.90938 0.0
C669 C 0.42457 0.5912 0.92629 0.0
C670 C 0.44797 0.58057 0.94506 0.0
C671 C 0.48074 0.5996 0.94574 0.0
C672 C 0.48945 0.63073 0.92926 0.0
H673 H 0.36754 0.35523 0.8242 0.0
H674 H 0.33852 0.43631 0.77873 0.0
H675 H 0.37405 0.47566 0.82322 0.0
H676 H 0.37359 0.38669 0.91778 0.0
H677 H 0.408 0.37335 0.9295 0.0
H678 H 0.37884 0.35066 0.89531 0.0
H679 H 0.42357 0.35851 0.85095 0.0
H680 H 0.45282 0.38108 0.885 0.0
H681 H 0.44896 0.39996 0.84315 0.0
H682 H 0.41709 0.50731 0.86672 0.0
H683 H 0.46317 0.5289 0.9102 0.0
H684 H 0.46164 0.42817 0.93288 0.0
C685 C 0.36847 0.38121 0.82387 0.0
C686 C 0.35021 0.39263 0.79787 0.0
C687 C 0.35209 0.42684 0.79838 0.0
C688 C 0.37222 0.44946 0.82359 0.0
C689 C 0.39 0.43751 0.84863 0.0
C690 C 0.38813 0.40419 0.84936 0.0
C691 C 0.41055 0.39831 0.87883 0.0
C692 C 0.39161 0.37592 0.90703 0.0
C693 C 0.43545 0.38361 0.86356 0.0
C694 C 0.426 0.4337 0.89364 0.0
C695 C 0.41368 0.45584 0.87571 0.0
C696 C 0.42617 0.49018 0.88184 0.0
C697 C 0.45209 0.50227 0.90678 0.0
C698 C 0.46464 0.48017 0.92601 0.0
C699 C 0.45137 0.44542 0.91957 0.0
H700 H 0.67796 0.40134 0.80076 0.0
H701 H 0.7242 0.37317 0.89406 0.0
H702 H 0.70451 0.41073 0.93185 0.0
H703 H 0.68724 0.48869 0.82922 0.0
H704 H 0.64782 0.4866 0.81123 0.0
H705 H 0.66974 0.46187 0.79082 0.0
H706 H 0.62233 0.40838 0.79824 0.0
H707 H 0.60036 0.43296 0.81857 0.0
H708 H 0.60752 0.39866 0.84179 0.0
H709 H 0.67823 0.44978 0.95957 0.0
H710 H 0.64151 0.48127 0.9764 0.0
H711 H 0.60776 0.47891 0.86581 0.0
C712 C 0.68451 0.40378 0.82904 0.0
C713 C 0.70302 0.38498 0.8446 0.0
C714 C 0.71025 0.3877 0.88178 0.0
C715 C 0.69934 0.40907 0.90334 0.0
C716 C 0.68079 0.42704 0.88729 0.0
C717 C 0.67305 0.42427 0.85104 0.0
C718 C 0.64955 0.44304 0.84107 0.0
C719 C 0.66449 0.47175 0.81664 0.0
C720 C 0.61808 0.41934 0.82392 0.0
C721 C 0.64478 0.45618 0.87743 0.0
C722 C 0.66373 0.44752 0.9036 0.0
C723 C 0.66331 0.45673 0.93931 0.0
C724 C 0.64249 0.47467 0.94861 0.0
C725 C 0.62183 0.48236 0.9224 0.0
C726 C 0.6233 0.4733 0.88637 0.0
H727 H 0.73028 0.67946 0.78997 0.0
H728 H 0.69471 0.59555 0.71423 0.0
H729 H 0.66124 0.56315 0.75982 0.0
H730 H 0.7308 0.62998 0.87017 0.0
H731 H 0.71799 0.65849 0.89771 0.0
H732 H 0.74187 0.67361 0.86047 0.0
H733 H 0.69854 0.69873 0.83525 0.0
H734 H 0.67453 0.68363 0.87226 0.0
H735 H 0.65786 0.67214 0.8274 0.0
H736 H 0.62722 0.5424 0.81111 0.0
H737 H 0.59586 0.53448 0.86442 0.0
H738 H 0.6546 0.63124 0.90764 0.0
C739 C 0.71593 0.65405 0.78311 0.0
C740 C 0.71518 0.64004 0.74849 0.0
C741 C 0.69576 0.60681 0.74056 0.0
C742 C 0.67671 0.58818 0.76632 0.0
C743 C 0.67753 0.60302 0.79995 0.0
C744 C 0.69682 0.63512 0.80848 0.0
C745 C 0.69176 0.64606 0.84575 0.0
C746 C 0.72243 0.6524 0.86996 0.0
C747 C 0.67996 0.67696 0.8451 0.0
C748 C 0.66587 0.61549 0.85646 0.0
C749 C 0.65821 0.59083 0.82978 0.0
C750 C 0.63343 0.56128 0.83244 0.0
C751 C 0.61575 0.55699 0.86293 0.0
C752 C 0.62303 0.58199 0.89056 0.0
C753 C 0.64878 0.61139 0.88735 0.0
H754 H 0.6377 0.67987 0.24832 0.0
H755 H 0.72404 0.70246 0.19007 0.0
H756 H 0.69343 0.6661 0.13944 0.0
H757 H 0.60609 0.59272 0.21798 0.0
H758 H 0.5652 0.59344 0.21635 0.0
H759 H 0.59437 0.62031 0.2479 0.0
H760 H 0.58066 0.67164 0.22305 0.0
H761 H 0.5516 0.64495 0.19134 0.0
H762 H 0.58333 0.67928 0.17619 0.0
H763 H 0.65148 0.63054 0.09327 0.0
H764 H 0.60339 0.59543 0.05801 0.0
H765 H 0.54615 0.59437 0.14885 0.0
C766 C 0.65028 0.67705 0.22501 0.0
C767 C 0.6832 0.69413 0.22298 0.0
C768 C 0.69883 0.68951 0.19217 0.0
C769 C 0.68162 0.66901 0.1633 0.0
C770 C 0.64899 0.65292 0.16602 0.0
C771 C 0.63367 0.65636 0.19639 0.0
C772 C 0.59853 0.63653 0.19294 0.0
C773 C 0.5906 0.60912 0.22042 0.0
C774 C 0.5773 0.65948 0.19605 0.0
C775 C 0.5962 0.62183 0.15559 0.0
C776 C 0.62545 0.63162 0.1403 0.0
C777 C 0.62859 0.6224 0.10518 0.0
C778 C 0.60117 0.60262 0.08532 0.0
C779 C 0.57116 0.59202 0.10081 0.0
C780 C 0.56886 0.60167 0.13645 0.0
H781 H 0.37664 0.64931 0.26531 0.0
H782 H 0.30665 0.66631 0.18854 0.0
H783 H 0.32575 0.63589 0.14204 0.0
H784 H 0.43961 0.66232 0.20607 0.0
H785 H 0.4552 0.63083 0.22453 0.0
H786 H 0.43456 0.65201 0.2521 0.0
H787 H 0.39518 0.59506 0.26758 0.0
H788 H 0.41559 0.57372 0.23983 0.0
H789 H 0.37316 0.5666 0.23216 0.0
H790 H 0.35268 0.60323 0.10382 0.0
H791 H 0.38864 0.57589 0.07591 0.0
H792 H 0.44247 0.5832 0.17722 0.0
C793 C 0.36518 0.64644 0.23878 0.0
C794 C 0.34004 0.66002 0.23058 0.0
C795 C 0.32597 0.65613 0.19541 0.0
C796 C 0.33653 0.63874 0.16887 0.0
C797 C 0.36136 0.62562 0.17786 0.0
C798 C 0.3757 0.62956 0.21189 0.0
C799 C 0.40308 0.61469 0.21423 0.0
C800 C 0.43499 0.64157 0.22485 0.0
C801 C 0.39633 0.58581 0.23998 0.0
C802 C 0.40214 0.6021 0.17612 0.0
C803 C 0.37759 0.60809 0.15564 0.0
C804 C 0.37202 0.59848 0.11961 0.0
C805 C 0.39246 0.58287 0.10401 0.0
C806 C 0.41839 0.57759 0.12435 0.0
C807 C 0.42295 0.58707 0.16092 0.0
H808 H 0.59877 0.36868 0.19648 0.0
H809 H 0.68015 0.45654 0.21973 0.0
H810 H 0.66088 0.48561 0.17102 0.0
H811 H 0.58954 0.37653 0.09934 0.0
H812 H 0.54644 0.36381 0.09894 0.0
H813 H 0.56899 0.3482 0.13182 0.0
H814 H 0.54159 0.3701 0.18217 0.0
H815 H 0.51889 0.38557 0.14947 0.0
H816 H 0.54332 0.41343 0.18397 0.0
H817 H 0.63168 0.5057 0.12141 0.0
H818 H 0.59138 0.51846 0.08088 0.0
H819 H 0.5262 0.4193 0.09375 0.0
C820 C 0.61281 0.39377 0.19065 0.0
C821 C 0.64125 0.41029 0.21115 0.0
C822 C 0.65849 0.44349 0.20389 0.0
C823 C 0.64781 0.46006 0.17622 0.0
C824 C 0.6195 0.44324 0.15655 0.0
C825 C 0.60195 0.411 0.1638 0.0
C826 C 0.57041 0.40006 0.14175 0.0
C827 C 0.56876 0.37039 0.11646 0.0
C828 C 0.54188 0.39182 0.16577 0.0
C829 C 0.57276 0.43128 0.12133 0.0
C830 C 0.60163 0.45558 0.12958 0.0
C831 C 0.60906 0.48681 0.11463 0.0
C832 C 0.58605 0.49376 0.09144 0.0
C833 C 0.55565 0.46983 0.08401 0.0
C834 C 0.54928 0.43801 0.09874 0.0
loop_
_geom_bond_atom_site_label_1
_geom_bond_atom_site_label_2
_geom_bond_distance
_geom_bond_site_symmetry_2
_ccdc_geom_bond_type
O0 Cd1 2.300 . S
O0 C7 1.275 . S
Cd1 O0 2.300 . S
Cd1 O9 2.381 . S
Cd1 O10 2.378 . S
O2 Cd3 2.385 . S
O2 C7 1.255 . S
Cd3 O2 2.385 . S
Cd3 O4 2.317 . S
O4 Cd3 2.317 . S
O4 C5 1.232 . S
C5 O4 1.232 . S
C5 O6 1.218 . S
O6 C5 1.218 . S
C7 O0 1.275 . S
C7 O2 1.255 . S
C8 O9 1.258 . S
C8 O10 1.256 . S
O9 Cd1 2.381 . S
O9 C8 1.258 . S
O10 Cd1 2.378 . S
O10 C8 1.256 . S
O11 Cd12 2.300 . S
O11 C18 1.275 . S
Cd12 O11 2.300 . S
Cd12 O20 2.381 . S
Cd12 O21 2.378 . S
O13 Cd14 2.385 . S
O13 C18 1.255 . S
Cd14 O13 2.385 . S
Cd14 O15 2.317 . S
O15 Cd14 2.317 . S
O15 C16 1.232 . S
C16 O15 1.232 . S
C16 O17 1.218 . S
O17 C16 1.218 . S
C18 O11 1.275 . S
C18 O13 1.255 . S
C19 O20 1.258 . S
C19 O21 1.256 . S
O20 Cd12 2.381 . S
O20 C19 1.258 . S
O21 Cd12 2.378 . S
O21 C19 1.256 . S
O22 Cd23 2.300 . S
O22 C29 1.275 . S
Cd23 O22 2.300 . S
Cd23 O31 2.381 . S
Cd23 O32 2.378 . S
O24 Cd25 2.385 . S
O24 C29 1.255 . S
Cd25 O24 2.385 . S
Cd25 O26 2.317 . S
O26 Cd25 2.317 . S
O26 C27 1.232 . S
C27 O26 1.232 . S
C27 O28 1.218 . S
O28 C27 1.218 . S
C29 O22 1.275 . S
C29 O24 1.255 . S
C30 O31 1.258 . S
C30 O32 1.256 . S
O31 Cd23 2.381 . S
O31 C30 1.258 . S
O32 Cd23 2.378 . S
O32 C30 1.256 . S
O33 Cd34 2.300 . S
O33 C40 1.275 . S
Cd34 O33 2.300 . S
Cd34 O42 2.381 . S
Cd34 O43 2.378 . S
O35 Cd36 2.385 . S
O35 C40 1.255 . S
Cd36 O35 2.385 . S
Cd36 O37 2.317 . S
O37 Cd36 2.317 . S
O37 C38 1.232 . S
C38 O37 1.232 . S
C38 O39 1.218 . S
O39 C38 1.218 . S
C40 O33 1.275 . S
C40 O35 1.255 . S
C41 O42 1.258 . S
C41 O43 1.256 . S
O42 Cd34 2.381 . S
O42 C41 1.258 . S
O43 Cd34 2.378 . S
O43 C41 1.256 . S
O44 Cd45 2.300 . S
O44 C51 1.275 . S
Cd45 O44 2.300 . S
Cd45 O53 2.381 . S
Cd45 O54 2.378 . S
O46 Cd47 2.385 . S
O46 C51 1.255 . S
Cd47 O46 2.385 . S
Cd47 O48 2.317 . S
O48 Cd47 2.317 . S
O48 C49 1.232 . S
C49 O48 1.232 . S
C49 O50 1.218 . S
O50 C49 1.218 . S
C51 O44 1.275 . S
C51 O46 1.255 . S
C52 O53 1.258 . S
C52 O54 1.256 . S
O53 Cd45 2.381 . S
O53 C52 1.258 . S
O54 Cd45 2.378 . S
O54 C52 1.256 . S
O55 Cd56 2.300 . S
O55 C62 1.275 . S
Cd56 O55 2.300 . S
Cd56 O64 2.381 . S
Cd56 O65 2.378 . S
O57 Cd58 2.385 . S
O57 C62 1.255 . S
Cd58 O57 2.385 . S
Cd58 O59 2.317 . S
O59 Cd58 2.317 . S
O59 C60 1.232 . S
C60 O59 1.232 . S
C60 O61 1.218 . S
O61 C60 1.218 . S
C62 O55 1.275 . S
C62 O57 1.255 . S
C63 O64 1.258 . S
C63 O65 1.256 . S
O64 Cd56 2.381 . S
O64 C63 1.258 . S
O65 Cd56 2.378 . S
O65 C63 1.256 . S
O66 Cd67 2.300 . S
O66 C73 1.275 . S
Cd67 O66 2.300 . S
Cd67 O75 2.381 . S
Cd67 O76 2.378 . S
O68 Cd69 2.385 . S
O68 C73 1.255 . S
Cd69 O68 2.385 . S
Cd69 O70 2.317 . S
O70 Cd69 2.317 . S
O70 C71 1.232 . S
C71 O70 1.232 . S
C71 O72 1.218 . S
O72 C71 1.218 . S
C73 O66 1.275 . S
C73 O68 1.255 . S
C74 O75 1.258 . S
C74 O76 1.256 . S
O75 Cd67 2.381 . S
O75 C74 1.258 . S
O76 Cd67 2.378 . S
O76 C74 1.256 . S
O77 Cd78 2.300 . S
O77 C84 1.275 . S
Cd78 O77 2.300 . S
Cd78 O86 2.381 . S
Cd78 O87 2.378 . S
O79 Cd80 2.385 . S
O79 C84 1.255 . S
Cd80 O79 2.385 . S
Cd80 O81 2.317 . S
O81 Cd80 2.317 . S
O81 C82 1.232 . S
C82 O81 1.232 . S
C82 O83 1.218 . S
O83 C82 1.218 . S
C84 O77 1.275 . S
C84 O79 1.255 . S
C85 O86 1.258 . S
C85 O87 1.256 . S
O86 Cd78 2.381 . S
O86 C85 1.258 . S
O87 Cd78 2.378 . S
O87 C85 1.256 . S
Co88 O91 2.042 . S
Co88 O98 2.264 . S
Co88 O117 2.286 . S
Co88 O118 2.069 . S
Co88 O120 2.015 . S
Co89 O91 2.122 . S
Co89 O97 2.073 . S
Co89 O98 2.327 . S
Co89 O99 1.976 . S
Co90 O91 2.087 . S
Co90 O93 2.087 1_455 S
Co90 O100 2.111 . S
Co90 O101 2.143 1_455 S
Co90 O105 2.111 1_455 S
Co90 O119 2.143 . S
O91 Co88 2.042 . S
O91 Co89 2.122 . S
O91 Co90 2.087 . S
O91 H92 0.980 . S
H92 O91 0.980 . S
O93 Co90 2.087 1_655 S
O93 Co94 2.042 . S
O93 Co95 2.122 . S
O93 H96 0.980 1_655 S
Co94 O93 2.042 . S
Co94 O102 2.286 . S
Co94 O103 2.069 . S
Co94 O104 2.015 . S
Co94 O107 2.264 . S
Co95 O93 2.122 . S
Co95 O106 1.976 . S
Co95 O107 2.327 . S
Co95 O108 2.073 . S
H96 O93 0.980 1_455 S
O97 Co89 2.073 . S
O97 C112 1.245 . S
O98 Co88 2.264 . S
O98 Co89 2.327 . S
O98 C112 1.257 . S
O99 Co89 1.976 . S
O99 C111 1.251 . S
O100 Co90 2.111 . S
O100 C111 1.274 . S
O101 Co90 2.143 1_655 S
O101 C114 1.246 . S
O102 Co94 2.286 . S
O102 C113 1.259 . S
O103 Co94 2.069 . S
O103 C113 1.289 . S
O104 Co94 2.015 . S
O104 C114 1.257 . S
O105 Co90 2.111 1_655 S
O105 C115 1.274 . S
O106 Co95 1.976 . S
O106 C115 1.251 . S
O107 Co94 2.264 . S
O107 Co95 2.327 . S
O107 C116 1.257 . S
O108 Co95 2.073 . S
O108 C116 1.245 . S
C109 O117 1.259 . S
C109 O118 1.289 . S
C110 O119 1.246 . S
C110 O120 1.257 . S
C111 O99 1.251 . S
C111 O100 1.274 . S
C112 O97 1.245 . S
C112 O98 1.257 . S
C113 O102 1.259 . S
C113 O103 1.289 . S
C114 O101 1.246 . S
C114 O104 1.257 . S
C115 O105 1.274 . S
C115 O106 1.251 . S
C116 O107 1.257 . S
C116 O108 1.245 . S
O117 Co88 2.286 . S
O117 C109 1.259 . S
O118 Co88 2.069 . S
O118 C109 1.289 . S
O119 Co90 2.143 . S
O119 C110 1.246 . S
O120 Co88 2.015 . S
O120 C110 1.257 . S
Co121 O124 2.042 . S
Co121 O131 2.264 . S
Co121 O150 2.286 . S
Co121 O151 2.069 . S
Co121 O153 2.015 . S
Co122 O124 2.122 . S
Co122 O130 2.073 . S
Co122 O131 2.327 . S
Co122 O132 1.976 . S
Co123 O124 2.087 1_545 S
Co123 O126 2.087 . S
Co123 O133 2.111 1_545 S
Co123 O134 2.143 . S
Co123 O138 2.111 . S
Co123 O152 2.143 1_545 S
O124 Co121 2.042 . S
O124 Co122 2.122 . S
O124 Co123 2.087 1_565 S
O124 H125 0.980 1_565 S
H125 O124 0.980 1_545 S
O126 Co123 2.087 . S
O126 Co127 2.042 . S
O126 Co128 2.122 . S
O126 H129 0.980 . S
Co127 O126 2.042 . S
Co127 O135 2.286 . S
Co127 O136 2.069 . S
Co127 O137 2.015 . S
Co127 O140 2.264 . S
Co128 O126 2.122 . S
Co128 O139 1.976 . S
Co128 O140 2.327 . S
Co128 O141 2.073 . S
H129 O126 0.980 . S
O130 Co122 2.073 . S
O130 C145 1.245 . S
O131 Co121 2.264 . S
O131 Co122 2.327 . S
O131 C145 1.257 . S
O132 Co122 1.976 . S
O132 C144 1.251 . S
O133 Co123 2.111 1_565 S
O133 C144 1.274 . S
O134 Co123 2.143 . S
O134 C147 1.246 . S
O135 Co127 2.286 . S
O135 C146 1.259 . S
O136 Co127 2.069 . S
O136 C146 1.289 . S
O137 Co127 2.015 . S
O137 C147 1.257 . S
O138 Co123 2.111 . S
O138 C148 1.274 . S
O139 Co128 1.976 . S
O139 C148 1.251 . S
O140 Co127 2.264 . S
O140 Co128 2.327 . S
O140 C149 1.257 . S
O141 Co128 2.073 . S
O141 C149 1.245 . S
C142 O150 1.259 . S
C142 O151 1.289 . S
C143 O152 1.246 . S
C143 O153 1.257 . S
C144 O132 1.251 . S
C144 O133 1.274 . S
C145 O130 1.245 . S
C145 O131 1.257 . S
C146 O135 1.259 . S
C146 O136 1.289 . S
C147 O134 1.246 . S
C147 O137 1.257 . S
C148 O138 1.274 . S
C148 O139 1.251 . S
C149 O140 1.257 . S
C149 O141 1.245 . S
O150 Co121 2.286 . S
O150 C142 1.259 . S
O151 Co121 2.069 . S
O151 C142 1.289 . S
O152 Co123 2.143 1_565 S
O152 C143 1.246 . S
O153 Co121 2.015 . S
O153 C143 1.257 . S
Co154 O157 2.042 . S
Co154 O164 2.264 . S
Co154 O183 2.286 . S
Co154 O184 2.069 . S
Co154 O186 2.015 . S
Co155 O157 2.122 . S
Co155 O163 2.073 . S
Co155 O164 2.327 . S
Co155 O165 1.976 . S
Co156 O157 2.087 . S
Co156 O159 2.087 1_554 S
Co156 O166 2.111 . S
Co156 O167 2.143 1_554 S
Co156 O171 2.111 1_554 S
Co156 O185 2.143 . S
O157 Co154 2.042 . S
O157 Co155 2.122 . S
O157 Co156 2.087 . S
O157 H158 0.980 . S
H158 O157 0.980 . S
O159 Co156 2.087 1_556 S
O159 Co160 2.042 . S
O159 Co161 2.122 . S
O159 H162 0.980 . S
Co160 O159 2.042 . S
Co160 O168 2.286 . S
Co160 O169 2.069 . S
Co160 O170 2.015 . S
Co160 O173 2.264 . S
Co161 O159 2.122 . S
Co161 O172 1.976 . S
Co161 O173 2.327 . S
Co161 O174 2.073 . S
H162 O159 0.980 . S
O163 Co155 2.073 . S
O163 C178 1.245 . S
O164 Co154 2.264 . S
O164 Co155 2.327 . S
O164 C178 1.257 . S
O165 Co155 1.976 . S
O165 C177 1.251 . S
O166 Co156 2.111 . S
O166 C177 1.274 . S
O167 Co156 2.143 1_556 S
O167 C180 1.246 . S
O168 Co160 2.286 . S
O168 C179 1.259 . S
O169 Co160 2.069 . S
O169 C179 1.289 . S
O170 Co160 2.015 . S
O170 C180 1.257 . S
O171 Co156 2.111 1_556 S
O171 C181 1.274 . S
O172 Co161 1.976 . S
O172 C181 1.251 . S
O173 Co160 2.264 . S
O173 Co161 2.327 . S
O173 C182 1.257 . S
O174 Co161 2.073 . S
O174 C182 1.245 . S
C175 O183 1.259 . S
C175 O184 1.289 . S
C176 O185 1.246 . S
C176 O186 1.257 . S
C177 O165 1.251 . S
C177 O166 1.274 . S
C178 O163 1.245 . S
C178 O164 1.257 . S
C179 O168 1.259 . S
C179 O169 1.289 . S
C180 O167 1.246 . S
C180 O170 1.257 . S
C181 O171 1.274 . S
C181 O172 1.251 . S
C182 O173 1.257 . S
C182 O174 1.245 . S
O183 Co154 2.286 . S
O183 C175 1.259 . S
O184 Co154 2.069 . S
O184 C175 1.289 . S
O185 Co156 2.143 . S
O185 C176 1.246 . S
O186 Co154 2.015 . S
O186 C176 1.257 . S
H187 C199 0.930 . S
H188 C201 0.930 . S
H189 C202 0.930 . S
H190 C206 0.959 . S
H191 C206 0.959 . S
H192 C206 0.961 . S
H193 C207 0.960 . S
H194 C207 0.961 . S
H195 C207 0.959 . S
H196 C210 0.929 . S
H197 C211 0.931 . S
H198 C213 0.930 . S
C199 H187 0.930 . S
C199 C200 1.399 . S
C199 C204 1.399 . S
C200 C199 1.399 . S
C200 C201 1.376 . S
C201 H188 0.930 . S
C201 C200 1.376 . S
C201 C202 1.388 . S
C202 H189 0.930 . S
C202 C201 1.388 . S
C202 C203 1.390 . S
C203 C202 1.390 . S
C203 C204 1.394 . S
C203 C209 1.465 . S
C204 C199 1.399 . S
C204 C203 1.394 . S
C204 C205 1.516 . S
C205 C204 1.516 . S
C205 C206 1.502 . S
C205 C207 1.561 . S
C205 C208 1.526 . S
C206 H190 0.959 . S
C206 H191 0.959 . S
C206 H192 0.961 . S
C206 C205 1.502 . S
C207 H193 0.960 . S
C207 H194 0.961 . S
C207 H195 0.959 . S
C207 C205 1.561 . S
C208 C205 1.526 . S
C208 C209 1.396 . S
C208 C213 1.390 . S
C209 C203 1.465 . S
C209 C208 1.396 . S
C209 C210 1.399 . S
C210 H196 0.929 . S
C210 C209 1.399 . S
C210 C211 1.385 . S
C211 H197 0.931 . S
C211 C210 1.385 . S
C211 C212 1.389 . S
C212 C211 1.389 . S
C212 C213 1.387 . S
C213 H198 0.930 . S
C213 C208 1.390 . S
C213 C212 1.387 . S
H214 C226 0.930 . S
H215 C228 0.930 . S
H216 C229 0.930 . S
H217 C233 0.959 . S
H218 C233 0.959 . S
H219 C233 0.961 . S
H220 C234 0.960 . S
H221 C234 0.961 . S
H222 C234 0.959 . S
H223 C237 0.929 . S
H224 C238 0.931 . S
H225 C240 0.930 . S
C226 H214 0.930 . S
C226 C227 1.399 . S
C226 C231 1.399 . S
C227 C226 1.399 . S
C227 C228 1.376 . S
C228 H215 0.930 . S
C228 C227 1.376 . S
C228 C229 1.388 . S
C229 H216 0.930 . S
C229 C228 1.388 . S
C229 C230 1.390 . S
C230 C229 1.390 . S
C230 C231 1.394 . S
C230 C236 1.465 . S
C231 C226 1.399 . S
C231 C230 1.394 . S
C231 C232 1.516 . S
C232 C231 1.516 . S
C232 C233 1.502 . S
C232 C234 1.561 . S
C232 C235 1.526 . S
C233 H217 0.959 . S
C233 H218 0.959 . S
C233 H219 0.961 . S
C233 C232 1.502 . S
C234 H220 0.960 . S
C234 H221 0.961 . S
C234 H222 0.959 . S
C234 C232 1.561 . S
C235 C232 1.526 . S
C235 C236 1.396 . S
C235 C240 1.390 . S
C236 C230 1.465 . S
C236 C235 1.396 . S
C236 C237 1.399 . S
C237 H223 0.929 . S
C237 C236 1.399 . S
C237 C238 1.385 . S
C238 H224 0.931 . S
C238 C237 1.385 . S
C238 C239 1.389 . S
C239 C238 1.389 . S
C239 C240 1.387 . S
C240 H225 0.930 . S
C240 C235 1.390 . S
C240 C239 1.387 . S
H241 C253 0.930 . S
H242 C255 0.930 . S
H243 C256 0.930 . S
H244 C260 0.959 . S
H245 C260 0.959 . S
H246 C260 0.961 . S
H247 C261 0.960 . S
H248 C261 0.961 . S
H249 C261 0.959 . S
H250 C264 0.929 . S
H251 C265 0.931 . S
H252 C267 0.930 . S
C253 H241 0.930 . S
C253 C254 1.399 . S
C253 C258 1.399 . S
C254 C253 1.399 . S
C254 C255 1.376 . S
C255 H242 0.930 . S
C255 C254 1.376 . S
C255 C256 1.388 . S
C256 H243 0.930 . S
C256 C255 1.388 . S
C256 C257 1.390 . S
C257 C256 1.390 . S
C257 C258 1.394 . S
C257 C263 1.465 . S
C258 C253 1.399 . S
C258 C257 1.394 . S
C258 C259 1.516 . S
C259 C258 1.516 . S
C259 C260 1.502 . S
C259 C261 1.561 . S
C259 C262 1.526 . S
C260 H244 0.959 . S
C260 H245 0.959 . S
C260 H246 0.961 . S
C260 C259 1.502 . S
C261 H247 0.960 . S
C261 H248 0.961 . S
C261 H249 0.959 . S
C261 C259 1.561 . S
C262 C259 1.526 . S
C262 C263 1.396 . S
C262 C267 1.390 . S
C263 C257 1.465 . S
C263 C262 1.396 . S
C263 C264 1.399 . S
C264 H250 0.929 . S
C264 C263 1.399 . S
C264 C265 1.385 . S
C265 H251 0.931 . S
C265 C264 1.385 . S
C265 C266 1.389 . S
C266 C265 1.389 . S
C266 C267 1.387 . S
C267 H252 0.930 . S
C267 C262 1.390 . S
C267 C266 1.387 . S
H268 C280 0.930 . S
H269 C282 0.930 . S
H270 C283 0.930 . S
H271 C287 0.959 . S
H272 C287 0.959 . S
H273 C287 0.961 . S
H274 C288 0.960 . S
H275 C288 0.961 . S
H276 C288 0.959 . S
H277 C291 0.929 . S
H278 C292 0.931 . S
H279 C294 0.930 . S
C280 H268 0.930 . S
C280 C281 1.399 . S
C280 C285 1.399 . S
C281 C280 1.399 . S
C281 C282 1.376 . S
C282 H269 0.930 . S
C282 C281 1.376 . S
C282 C283 1.388 . S
C283 H270 0.930 . S
C283 C282 1.388 . S
C283 C284 1.390 . S
C284 C283 1.390 . S
C284 C285 1.394 . S
C284 C290 1.465 . S
C285 C280 1.399 . S
C285 C284 1.394 . S
C285 C286 1.516 . S
C286 C285 1.516 . S
C286 C287 1.502 . S
C286 C288 1.561 . S
C286 C289 1.526 . S
C287 H271 0.959 . S
C287 H272 0.959 . S
C287 H273 0.961 . S
C287 C286 1.502 . S
C288 H274 0.960 . S
C288 H275 0.961 . S
C288 H276 0.959 . S
C288 C286 1.561 . S
C289 C286 1.526 . S
C289 C290 1.396 . S
C289 C294 1.390 . S
C290 C284 1.465 . S
C290 C289 1.396 . S
C290 C291 1.399 . S
C291 H277 0.929 . S
C291 C290 1.399 . S
C291 C292 1.385 . S
C292 H278 0.931 . S
C292 C291 1.385 . S
C292 C293 1.389 . S
C293 C292 1.389 . S
C293 C294 1.387 . S
C294 H279 0.930 . S
C294 C289 1.390 . S
C294 C293 1.387 . S
H295 C307 0.930 . S
H296 C309 0.930 . S
H297 C310 0.930 . S
H298 C314 0.959 . S
H299 C314 0.959 . S
H300 C314 0.961 . S
H301 C315 0.960 . S
H302 C315 0.961 . S
H303 C315 0.959 . S
H304 C318 0.929 . S
H305 C319 0.931 . S
H306 C321 0.930 . S
C307 H295 0.930 . S
C307 C308 1.399 . S
C307 C312 1.399 . S
C308 C307 1.399 . S
C308 C309 1.376 . S
C309 H296 0.930 . S
C309 C308 1.376 . S
C309 C310 1.388 . S
C310 H297 0.930 . S
C310 C309 1.388 . S
C310 C311 1.390 . S
C311 C310 1.390 . S
C311 C312 1.394 . S
C311 C317 1.465 . S
C312 C307 1.399 . S
C312 C311 1.394 . S
C312 C313 1.516 . S
C313 C312 1.516 . S
C313 C314 1.502 . S
C313 C315 1.561 . S
C313 C316 1.526 . S
C314 H298 0.959 . S
C314 H299 0.959 . S
C314 H300 0.961 . S
C314 C313 1.502 . S
C315 H301 0.960 . S
C315 H302 0.961 . S
C315 H303 0.959 . S
C315 C313 1.561 . S
C316 C313 1.526 . S
C316 C317 1.396 . S
C316 C321 1.390 . S
C317 C311 1.465 . S
C317 C316 1.396 . S
C317 C318 1.399 . S
C318 H304 0.929 . S
C318 C317 1.399 . S
C318 C319 1.385 . S
C319 H305 0.931 . S
C319 C318 1.385 . S
C319 C320 1.389 . S
C320 C319 1.389 . S
C320 C321 1.387 . S
C321 H306 0.930 . S
C321 C316 1.390 . S
C321 C320 1.387 . S
H322 C334 0.930 . S
H323 C336 0.930 . S
H324 C337 0.930 . S
H325 C341 0.959 . S
H326 C341 0.959 . S
H327 C341 0.961 . S
H328 C342 0.960 . S
H329 C342 0.961 . S
H330 C342 0.959 . S
H331 C345 0.929 . S
H332 C346 0.931 . S
H333 C348 0.930 . S
C334 H322 0.930 . S
C334 C335 1.399 . S
C334 C339 1.399 . S
C335 C334 1.399 . S
C335 C336 1.376 . S
C336 H323 0.930 . S
C336 C335 1.376 . S
C336 C337 1.388 . S
C337 H324 0.930 . S
C337 C336 1.388 . S
C337 C338 1.390 . S
C338 C337 1.390 . S
C338 C339 1.394 . S
C338 C344 1.465 . S
C339 C334 1.399 . S
C339 C338 1.394 . S
C339 C340 1.516 . S
C340 C339 1.516 . S
C340 C341 1.502 . S
C340 C342 1.561 . S
C340 C343 1.526 . S
C341 H325 0.959 . S
C341 H326 0.959 . S
C341 H327 0.961 . S
C341 C340 1.502 . S
C342 H328 0.960 . S
C342 H329 0.961 . S
C342 H330 0.959 . S
C342 C340 1.561 . S
C343 C340 1.526 . S
C343 C344 1.396 . S
C343 C348 1.390 . S
C344 C338 1.465 . S
C344 C343 1.396 . S
C344 C345 1.399 . S
C345 H331 0.929 . S
C345 C344 1.399 . S
C345 C346 1.385 . S
C346 H332 0.931 . S
C346 C345 1.385 . S
C346 C347 1.389 . S
C347 C346 1.389 . S
C347 C348 1.387 . S
C348 H333 0.930 . S
C348 C343 1.390 . S
C348 C347 1.387 . S
H349 C361 0.930 . S
H350 C363 0.930 . S
H351 C364 0.930 . S
H352 C368 0.959 . S
H353 C368 0.959 . S
H354 C368 0.961 . S
H355 C369 0.960 . S
H356 C369 0.961 . S
H357 C369 0.959 . S
H358 C372 0.929 . S
H359 C373 0.931 . S
H360 C375 0.930 . S
C361 H349 0.930 . S
C361 C362 1.399 . S
C361 C366 1.399 . S
C362 C361 1.399 . S
C362 C363 1.376 . S
C363 H350 0.930 . S
C363 C362 1.376 . S
C363 C364 1.388 . S
C364 H351 0.930 . S
C364 C363 1.388 . S
C364 C365 1.390 . S
C365 C364 1.390 . S
C365 C366 1.394 . S
C365 C371 1.465 . S
C366 C361 1.399 . S
C366 C365 1.394 . S
C366 C367 1.516 . S
C367 C366 1.516 . S
C367 C368 1.502 . S
C367 C369 1.561 . S
C367 C370 1.526 . S
C368 H352 0.959 . S
C368 H353 0.959 . S
C368 H354 0.961 . S
C368 C367 1.502 . S
C369 H355 0.960 . S
C369 H356 0.961 . S
C369 H357 0.959 . S
C369 C367 1.561 . S
C370 C367 1.526 . S
C370 C371 1.396 . S
C370 C375 1.390 . S
C371 C365 1.465 . S
C371 C370 1.396 . S
C371 C372 1.399 . S
C372 H358 0.929 . S
C372 C371 1.399 . S
C372 C373 1.385 . S
C373 H359 0.931 . S
C373 C372 1.385 . S
C373 C374 1.389 . S
C374 C373 1.389 . S
C374 C375 1.387 . S
C375 H360 0.930 . S
C375 C370 1.390 . S
C375 C374 1.387 . S
H376 C388 0.930 . S
H377 C390 0.930 . S
H378 C391 0.930 . S
H379 C395 0.959 . S
H380 C395 0.959 . S
H381 C395 0.961 . S
H382 C396 0.960 . S
H383 C396 0.961 . S
H384 C396 0.959 . S
H385 C399 0.929 . S
H386 C400 0.931 . S
H387 C402 0.930 . S
C388 H376 0.930 . S
C388 C389 1.399 . S
C388 C393 1.399 . S
C389 C388 1.399 . S
C389 C390 1.376 . S
C390 H377 0.930 . S
C390 C389 1.376 . S
C390 C391 1.388 . S
C391 H378 0.930 . S
C391 C390 1.388 . S
C391 C392 1.390 . S
C392 C391 1.390 . S
C392 C393 1.394 . S
C392 C398 1.465 . S
C393 C388 1.399 . S
C393 C392 1.394 . S
C393 C394 1.516 . S
C394 C393 1.516 . S
C394 C395 1.502 . S
C394 C396 1.561 . S
C394 C397 1.526 . S
C395 H379 0.959 . S
C395 H380 0.959 . S
C395 H381 0.961 . S
C395 C394 1.502 . S
C396 H382 0.960 . S
C396 H383 0.961 . S
C396 H384 0.959 . S
C396 C394 1.561 . S
C397 C394 1.526 . S
C397 C398 1.396 . S
C397 C402 1.390 . S
C398 C392 1.465 . S
C398 C397 1.396 . S
C398 C399 1.399 . S
C399 H385 0.929 . S
C399 C398 1.399 . S
C399 C400 1.385 . S
C400 H386 0.931 . S
C400 C399 1.385 . S
C400 C401 1.389 . S
C401 C400 1.389 . S
C401 C402 1.387 . S
C402 H387 0.930 . S
C402 C397 1.390 . S
C402 C401 1.387 . S
H403 C415 0.930 . S
H404 C417 0.930 . S
H405 C418 0.930 . S
H406 C422 0.959 . S
H407 C422 0.959 . S
H408 C422 0.961 . S
H409 C423 0.960 . S
H410 C423 0.961 . S
H411 C423 0.959 . S
H412 C426 0.929 . S
H413 C427 0.931 . S
H414 C429 0.930 . S
C415 H403 0.930 . S
C415 C416 1.399 . S
C415 C420 1.399 . S
C416 C415 1.399 . S
C416 C417 1.376 . S
C417 H404 0.930 . S
C417 C416 1.376 . S
C417 C418 1.388 . S
C418 H405 0.930 . S
C418 C417 1.388 . S
C418 C419 1.390 . S
C419 C418 1.390 . S
C419 C420 1.394 . S
C419 C425 1.465 . S
C420 C415 1.399 . S
C420 C419 1.394 . S
C420 C421 1.516 . S
C421 C420 1.516 . S
C421 C422 1.502 . S
C421 C423 1.561 . S
C421 C424 1.526 . S
C422 H406 0.959 . S
C422 H407 0.959 . S
C422 H408 0.961 . S
C422 C421 1.502 . S
C423 H409 0.960 . S
C423 H410 0.961 . S
C423 H411 0.959 . S
C423 C421 1.561 . S
C424 C421 1.526 . S
C424 C425 1.396 . S
C424 C429 1.390 . S
C425 C419 1.465 . S
C425 C424 1.396 . S
C425 C426 1.399 . S
C426 H412 0.929 . S
C426 C425 1.399 . S
C426 C427 1.385 . S
C427 H413 0.931 . S
C427 C426 1.385 . S
C427 C428 1.389 . S
C428 C427 1.389 . S
C428 C429 1.387 . S
C429 H414 0.930 . S
C429 C424 1.390 . S
C429 C428 1.387 . S
H430 C442 0.930 . S
H431 C444 0.930 . S
H432 C445 0.930 . S
H433 C449 0.959 . S
H434 C449 0.959 . S
H435 C449 0.961 . S
H436 C450 0.960 . S
H437 C450 0.961 . S
H438 C450 0.959 . S
H439 C453 0.929 . S
H440 C454 0.931 . S
H441 C456 0.930 . S
C442 H430 0.930 . S
C442 C443 1.399 . S
C442 C447 1.399 . S
C443 C442 1.399 . S
C443 C444 1.376 . S
C444 H431 0.930 . S
C444 C443 1.376 . S
C444 C445 1.388 . S
C445 H432 0.930 . S
C445 C444 1.388 . S
C445 C446 1.390 . S
C446 C445 1.390 . S
C446 C447 1.394 . S
C446 C452 1.465 . S
C447 C442 1.399 . S
C447 C446 1.394 . S
C447 C448 1.516 . S
C448 C447 1.516 . S
C448 C449 1.502 . S
C448 C450 1.561 . S
C448 C451 1.526 . S
C449 H433 0.959 . S
C449 H434 0.959 . S
C449 H435 0.961 . S
C449 C448 1.502 . S
C450 H436 0.960 . S
C450 H437 0.961 . S
C450 H438 0.959 . S
C450 C448 1.561 . S
C451 C448 1.526 . S
C451 C452 1.396 . S
C451 C456 1.390 . S
C452 C446 1.465 . S
C452 C451 1.396 . S
C452 C453 1.399 . S
C453 H439 0.929 . S
C453 C452 1.399 . S
C453 C454 1.385 . S
C454 H440 0.931 . S
C454 C453 1.385 . S
C454 C455 1.389 . S
C455 C454 1.389 . S
C455 C456 1.387 . S
C456 H441 0.930 . S
C456 C451 1.390 . S
C456 C455 1.387 . S
H457 C469 0.930 . S
H458 C471 0.930 . S
H459 C472 0.930 . S
H460 C476 0.959 . S
H461 C476 0.959 . S
H462 C476 0.961 . S
H463 C477 0.960 . S
H464 C477 0.961 . S
H465 C477 0.959 . S
H466 C480 0.929 . S
H467 C481 0.931 . S
H468 C483 0.930 . S
C469 H457 0.930 . S
C469 C470 1.399 . S
C469 C474 1.399 . S
C470 C469 1.399 . S
C470 C471 1.376 . S
C471 H458 0.930 . S
C471 C470 1.376 . S
C471 C472 1.388 . S
C472 H459 0.930 . S
C472 C471 1.388 . S
C472 C473 1.390 . S
C473 C472 1.390 . S
C473 C474 1.394 . S
C473 C479 1.465 . S
C474 C469 1.399 . S
C474 C473 1.394 . S
C474 C475 1.516 . S
C475 C474 1.516 . S
C475 C476 1.502 . S
C475 C477 1.561 . S
C475 C478 1.526 . S
C476 H460 0.959 . S
C476 H461 0.959 . S
C476 H462 0.961 . S
C476 C475 1.502 . S
C477 H463 0.960 . S
C477 H464 0.961 . S
C477 H465 0.959 . S
C477 C475 1.561 . S
C478 C475 1.526 . S
C478 C479 1.396 . S
C478 C483 1.390 . S
C479 C473 1.465 . S
C479 C478 1.396 . S
C479 C480 1.399 . S
C480 H466 0.929 . S
C480 C479 1.399 . S
C480 C481 1.385 . S
C481 H467 0.931 . S
C481 C480 1.385 . S
C481 C482 1.389 . S
C482 C481 1.389 . S
C482 C483 1.387 . S
C483 H468 0.930 . S
C483 C478 1.390 . S
C483 C482 1.387 . S
H484 C496 0.930 . S
H485 C498 0.930 . S
H486 C499 0.930 . S
H487 C503 0.959 . S
H488 C503 0.959 . S
H489 C503 0.961 . S
H490 C504 0.960 . S
H491 C504 0.961 . S
H492 C504 0.959 . S
H493 C507 0.929 . S
H494 C508 0.931 . S
H495 C510 0.930 . S
C496 H484 0.930 . S
C496 C497 1.399 . S
C496 C501 1.399 . S
C497 C496 1.399 . S
C497 C498 1.376 . S
C498 H485 0.930 . S
C498 C497 1.376 . S
C498 C499 1.388 . S
C499 H486 0.930 . S
C499 C498 1.388 . S
C499 C500 1.390 . S
C500 C499 1.390 . S
C500 C501 1.394 . S
C500 C506 1.465 . S
C501 C496 1.399 . S
C501 C500 1.394 . S
C501 C502 1.516 . S
C502 C501 1.516 . S
C502 C503 1.502 . S
C502 C504 1.561 . S
C502 C505 1.526 . S
C503 H487 0.959 . S
C503 H488 0.959 . S
C503 H489 0.961 . S
C503 C502 1.502 . S
C504 H490 0.960 . S
C504 H491 0.961 . S
C504 H492 0.959 . S
C504 C502 1.561 . S
C505 C502 1.526 . S
C505 C506 1.396 . S
C505 C510 1.390 . S
C506 C500 1.465 . S
C506 C505 1.396 . S
C506 C507 1.399 . S
C507 H493 0.929 . S
C507 C506 1.399 . S
C507 C508 1.385 . S
C508 H494 0.931 . S
C508 C507 1.385 . S
C508 C509 1.389 . S
C509 C508 1.389 . S
C509 C510 1.387 . S
C510 H495 0.930 . S
C510 C505 1.390 . S
C510 C509 1.387 . S
H511 C523 0.930 . S
H512 C525 0.930 . S
H513 C526 0.930 . S
H514 C530 0.959 . S
H515 C530 0.959 . S
H516 C530 0.961 . S
H517 C531 0.960 . S
H518 C531 0.961 . S
H519 C531 0.959 . S
H520 C534 0.929 . S
H521 C535 0.931 . S
H522 C537 0.930 . S
C523 H511 0.930 . S
C523 C524 1.399 . S
C523 C528 1.399 . S
C524 C523 1.399 . S
C524 C525 1.376 . S
C525 H512 0.930 . S
C525 C524 1.376 . S
C525 C526 1.388 . S
C526 H513 0.930 . S
C526 C525 1.388 . S
C526 C527 1.390 . S
C527 C526 1.390 . S
C527 C528 1.394 . S
C527 C533 1.465 . S
C528 C523 1.399 . S
C528 C527 1.394 . S
C528 C529 1.516 . S
C529 C528 1.516 . S
C529 C530 1.502 . S
C529 C531 1.561 . S
C529 C532 1.526 . S
C530 H514 0.959 . S
C530 H515 0.959 . S
C530 H516 0.961 . S
C530 C529 1.502 . S
C531 H517 0.960 . S
C531 H518 0.961 . S
C531 H519 0.959 . S
C531 C529 1.561 . S
C532 C529 1.526 . S
C532 C533 1.396 . S
C532 C537 1.390 . S
C533 C527 1.465 . S
C533 C532 1.396 . S
C533 C534 1.399 . S
C534 H520 0.929 . S
C534 C533 1.399 . S
C534 C535 1.385 . S
C535 H521 0.931 . S
C535 C534 1.385 . S
C535 C536 1.389 . S
C536 C535 1.389 . S
C536 C537 1.387 . S
C537 H522 0.930 . S
C537 C532 1.390 . S
C537 C536 1.387 . S
H538 C550 0.930 . S
H539 C552 0.930 . S
H540 C553 0.930 . S
H541 C557 0.959 . S
H542 C557 0.959 . S
H543 C557 0.961 . S
H544 C558 0.960 . S
H545 C558 0.961 . S
H546 C558 0.959 . S
H547 C561 0.929 . S
H548 C562 0.931 . S
H549 C564 0.930 . S
C550 H538 0.930 . S
C550 C551 1.399 . S
C550 C555 1.399 . S
C551 C550 1.399 . S
C551 C552 1.376 . S
C552 H539 0.930 . S
C552 C551 1.376 . S
C552 C553 1.388 . S
C553 H540 0.930 . S
C553 C552 1.388 . S
C553 C554 1.390 . S
C554 C553 1.390 . S
C554 C555 1.394 . S
C554 C560 1.465 . S
C555 C550 1.399 . S
C555 C554 1.394 . S
C555 C556 1.516 . S
C556 C555 1.516 . S
C556 C557 1.502 . S
C556 C558 1.561 . S
C556 C559 1.526 . S
C557 H541 0.959 . S
C557 H542 0.959 . S
C557 H543 0.961 . S
C557 C556 1.502 . S
C558 H544 0.960 . S
C558 H545 0.961 . S
C558 H546 0.959 . S
C558 C556 1.561 . S
C559 C556 1.526 . S
C559 C560 1.396 . S
C559 C564 1.390 . S
C560 C554 1.465 . S
C560 C559 1.396 . S
C560 C561 1.399 . S
C561 H547 0.929 . S
C561 C560 1.399 . S
C561 C562 1.385 . S
C562 H548 0.931 . S
C562 C561 1.385 . S
C562 C563 1.389 . S
C563 C562 1.389 . S
C563 C564 1.387 . S
C564 H549 0.930 . S
C564 C559 1.390 . S
C564 C563 1.387 . S
H565 C577 0.930 . S
H566 C579 0.930 . S
H567 C580 0.930 . S
H568 C584 0.959 . S
H569 C584 0.959 . S
H570 C584 0.961 . S
H571 C585 0.960 . S
H572 C585 0.961 . S
H573 C585 0.959 . S
H574 C588 0.929 . S
H575 C589 0.931 . S
H576 C591 0.930 . S
C577 H565 0.930 . S
C577 C578 1.399 . S
C577 C582 1.399 . S
C578 C577 1.399 . S
C578 C579 1.376 . S
C579 H566 0.930 . S
C579 C578 1.376 . S
C579 C580 1.388 . S
C580 H567 0.930 . S
C580 C579 1.388 . S
C580 C581 1.390 . S
C581 C580 1.390 . S
C581 C582 1.394 . S
C581 C587 1.465 . S
C582 C577 1.399 . S
C582 C581 1.394 . S
C582 C583 1.516 . S
C583 C582 1.516 . S
C583 C584 1.502 . S
C583 C585 1.561 . S
C583 C586 1.526 . S
C584 H568 0.959 . S
C584 H569 0.959 . S
C584 H570 0.961 . S
C584 C583 1.502 . S
C585 H571 0.960 . S
C585 H572 0.961 . S
C585 H573 0.959 . S
C585 C583 1.561 . S
C586 C583 1.526 . S
C586 C587 1.396 . S
C586 C591 1.390 . S
C587 C581 1.465 . S
C587 C586 1.396 . S
C587 C588 1.399 . S
C588 H574 0.929 . S
C588 C587 1.399 . S
C588 C589 1.385 . S
C589 H575 0.931 . S
C589 C588 1.385 . S
C589 C590 1.389 . S
C590 C589 1.389 . S
C590 C591 1.387 . S
C591 H576 0.930 . S
C591 C586 1.390 . S
C591 C590 1.387 . S
H592 C604 0.930 . S
H593 C606 0.930 . S
H594 C607 0.930 . S
H595 C611 0.959 . S
H596 C611 0.959 . S
H597 C611 0.961 . S
H598 C612 0.960 . S
H599 C612 0.961 . S
H600 C612 0.959 . S
H601 C615 0.929 . S
H602 C616 0.931 . S
H603 C618 0.930 . S
C604 H592 0.930 . S
C604 C605 1.399 . S
C604 C609 1.399 . S
C605 C604 1.399 . S
C605 C606 1.376 . S
C606 H593 0.930 . S
C606 C605 1.376 . S
C606 C607 1.388 . S
C607 H594 0.930 . S
C607 C606 1.388 . S
C607 C608 1.390 . S
C608 C607 1.390 . S
C608 C609 1.394 . S
C608 C614 1.465 . S
C609 C604 1.399 . S
C609 C608 1.394 . S
C609 C610 1.516 . S
C610 C609 1.516 . S
C610 C611 1.502 . S
C610 C612 1.561 . S
C610 C613 1.526 . S
C611 H595 0.959 . S
C611 H596 0.959 . S
C611 H597 0.961 . S
C611 C610 1.502 . S
C612 H598 0.960 . S
C612 H599 0.961 . S
C612 H600 0.959 . S
C612 C610 1.561 . S
C613 C610 1.526 . S
C613 C614 1.396 . S
C613 C618 1.390 . S
C614 C608 1.465 . S
C614 C613 1.396 . S
C614 C615 1.399 . S
C615 H601 0.929 . S
C615 C614 1.399 . S
C615 C616 1.385 . S
C616 H602 0.931 . S
C616 C615 1.385 . S
C616 C617 1.389 . S
C617 C616 1.389 . S
C617 C618 1.387 . S
C618 H603 0.930 . S
C618 C613 1.390 . S
C618 C617 1.387 . S
H619 C631 0.930 . S
H620 C633 0.930 . S
H621 C634 0.930 . S
H622 C638 0.959 . S
H623 C638 0.959 . S
H624 C638 0.961 . S
H625 C639 0.960 . S
H626 C639 0.961 . S
H627 C639 0.959 . S
H628 C642 0.929 . S
H629 C643 0.931 . S
H630 C645 0.930 . S
C631 H619 0.930 . S
C631 C632 1.399 . S
C631 C636 1.399 . S
C632 C631 1.399 . S
C632 C633 1.376 . S
C633 H620 0.930 . S
C633 C632 1.376 . S
C633 C634 1.388 . S
C634 H621 0.930 . S
C634 C633 1.388 . S
C634 C635 1.390 . S
C635 C634 1.390 . S
C635 C636 1.394 . S
C635 C641 1.465 . S
C636 C631 1.399 . S
C636 C635 1.394 . S
C636 C637 1.516 . S
C637 C636 1.516 . S
C637 C638 1.502 . S
C637 C639 1.561 . S
C637 C640 1.526 . S
C638 H622 0.959 . S
C638 H623 0.959 . S
C638 H624 0.961 . S
C638 C637 1.502 . S
C639 H625 0.960 . S
C639 H626 0.961 . S
C639 H627 0.959 . S
C639 C637 1.561 . S
C640 C637 1.526 . S
C640 C641 1.396 . S
C640 C645 1.390 . S
C641 C635 1.465 . S
C641 C640 1.396 . S
C641 C642 1.399 . S
C642 H628 0.929 . S
C642 C641 1.399 . S
C642 C643 1.385 . S
C643 H629 0.931 . S
C643 C642 1.385 . S
C643 C644 1.389 . S
C644 C643 1.389 . S
C644 C645 1.387 . S
C645 H630 0.930 . S
C645 C640 1.390 . S
C645 C644 1.387 . S
H646 C658 0.930 . S
H647 C660 0.930 . S
H648 C661 0.930 . S
H649 C665 0.959 . S
H650 C665 0.959 . S
H651 C665 0.961 . S
H652 C666 0.960 . S
H653 C666 0.961 . S
H654 C666 0.959 . S
H655 C669 0.929 . S
H656 C670 0.931 . S
H657 C672 0.930 . S
C658 H646 0.930 . S
C658 C659 1.399 . S
C658 C663 1.399 . S
C659 C658 1.399 . S
C659 C660 1.376 . S
C660 H647 0.930 . S
C660 C659 1.376 . S
C660 C661 1.388 . S
C661 H648 0.930 . S
C661 C660 1.388 . S
C661 C662 1.390 . S
C662 C661 1.390 . S
C662 C663 1.394 . S
C662 C668 1.465 . S
C663 C658 1.399 . S
C663 C662 1.394 . S
C663 C664 1.516 . S
C664 C663 1.516 . S
C664 C665 1.502 . S
C664 C666 1.561 . S
C664 C667 1.526 . S
C665 H649 0.959 . S
C665 H650 0.959 . S
C665 H651 0.961 . S
C665 C664 1.502 . S
C666 H652 0.960 . S
C666 H653 0.961 . S
C666 H654 0.959 . S
C666 C664 1.561 . S
C667 C664 1.526 . S
C667 C668 1.396 . S
C667 C672 1.390 . S
C668 C662 1.465 . S
C668 C667 1.396 . S
C668 C669 1.399 . S
C669 H655 0.929 . S
C669 C668 1.399 . S
C669 C670 1.385 . S
C670 H656 0.931 . S
C670 C669 1.385 . S
C670 C671 1.389 . S
C671 C670 1.389 . S
C671 C672 1.387 . S
C672 H657 0.930 . S
C672 C667 1.390 . S
C672 C671 1.387 . S
H673 C685 0.930 . S
H674 C687 0.930 . S
H675 C688 0.930 . S
H676 C692 0.959 . S
H677 C692 0.959 . S
H678 C692 0.961 . S
H679 C693 0.960 . S
H680 C693 0.961 . S
H681 C693 0.959 . S
H682 C696 0.929 . S
H683 C697 0.931 . S
H684 C699 0.930 . S
C685 H673 0.930 . S
C685 C686 1.399 . S
C685 C690 1.399 . S
C686 C685 1.399 . S
C686 C687 1.376 . S
C687 H674 0.930 . S
C687 C686 1.376 . S
C687 C688 1.388 . S
C688 H675 0.930 . S
C688 C687 1.388 . S
C688 C689 1.390 . S
C689 C688 1.390 . S
C689 C690 1.394 . S
C689 C695 1.465 . S
C690 C685 1.399 . S
C690 C689 1.394 . S
C690 C691 1.516 . S
C691 C690 1.516 . S
C691 C692 1.502 . S
C691 C693 1.561 . S
C691 C694 1.526 . S
C692 H676 0.959 . S
C692 H677 0.959 . S
C692 H678 0.961 . S
C692 C691 1.502 . S
C693 H679 0.960 . S
C693 H680 0.961 . S
C693 H681 0.959 . S
C693 C691 1.561 . S
C694 C691 1.526 . S
C694 C695 1.396 . S
C694 C699 1.390 . S
C695 C689 1.465 . S
C695 C694 1.396 . S
C695 C696 1.399 . S
C696 H682 0.929 . S
C696 C695 1.399 . S
C696 C697 1.385 . S
C697 H683 0.931 . S
C697 C696 1.385 . S
C697 C698 1.389 . S
C698 C697 1.389 . S
C698 C699 1.387 . S
C699 H684 0.930 . S
C699 C694 1.390 . S
C699 C698 1.387 . S
H700 C712 0.930 . S
H701 C714 0.930 . S
H702 C715 0.930 . S
H703 C719 0.959 . S
H704 C719 0.959 . S
H705 C719 0.961 . S
H706 C720 0.960 . S
H707 C720 0.961 . S
H708 C720 0.959 . S
H709 C723 0.929 . S
H710 C724 0.931 . S
H711 C726 0.930 . S
C712 H700 0.930 . S
C712 C713 1.399 . S
C712 C717 1.399 . S
C713 C712 1.399 . S
C713 C714 1.376 . S
C714 H701 0.930 . S
C714 C713 1.376 . S
C714 C715 1.388 . S
C715 H702 0.930 . S
C715 C714 1.388 . S
C715 C716 1.390 . S
C716 C715 1.390 . S
C716 C717 1.394 . S
C716 C722 1.465 . S
C717 C712 1.399 . S
C717 C716 1.394 . S
C717 C718 1.516 . S
C718 C717 1.516 . S
C718 C719 1.502 . S
C718 C720 1.561 . S
C718 C721 1.526 . S
C719 H703 0.959 . S
C719 H704 0.959 . S
C719 H705 0.961 . S
C719 C718 1.502 . S
C720 H706 0.960 . S
C720 H707 0.961 . S
C720 H708 0.959 . S
C720 C718 1.561 . S
C721 C718 1.526 . S
C721 C722 1.396 . S
C721 C726 1.390 . S
C722 C716 1.465 . S
C722 C721 1.396 . S
C722 C723 1.399 . S
C723 H709 0.929 . S
C723 C722 1.399 . S
C723 C724 1.385 . S
C724 H710 0.931 . S
C724 C723 1.385 . S
C724 C725 1.389 . S
C725 C724 1.389 . S
C725 C726 1.387 . S
C726 H711 0.930 . S
C726 C721 1.390 . S
C726 C725 1.387 . S
H727 C739 0.930 . S
H728 C741 0.930 . S
H729 C742 0.930 . S
H730 C746 0.959 . S
H731 C746 0.959 . S
H732 C746 0.961 . S
H733 C747 0.960 . S
H734 C747 0.961 . S
H735 C747 0.959 . S
H736 C750 0.929 . S
H737 C751 0.931 . S
H738 C753 0.930 . S
C739 H727 0.930 . S
C739 C740 1.399 . S
C739 C744 1.399 . S
C740 C739 1.399 . S
C740 C741 1.376 . S
C741 H728 0.930 . S
C741 C740 1.376 . S
C741 C742 1.388 . S
C742 H729 0.930 . S
C742 C741 1.388 . S
C742 C743 1.390 . S
C743 C742 1.390 . S
C743 C744 1.394 . S
C743 C749 1.465 . S
C744 C739 1.399 . S
C744 C743 1.394 . S
C744 C745 1.516 . S
C745 C744 1.516 . S
C745 C746 1.502 . S
C745 C747 1.561 . S
C745 C748 1.526 . S
C746 H730 0.959 . S
C746 H731 0.959 . S
C746 H732 0.961 . S
C746 C745 1.502 . S
C747 H733 0.960 . S
C747 H734 0.961 . S
C747 H735 0.959 . S
C747 C745 1.561 . S
C748 C745 1.526 . S
C748 C749 1.396 . S
C748 C753 1.390 . S
C749 C743 1.465 . S
C749 C748 1.396 . S
C749 C750 1.399 . S
C750 H736 0.929 . S
C750 C749 1.399 . S
C750 C751 1.385 . S
C751 H737 0.931 . S
C751 C750 1.385 . S
C751 C752 1.389 . S
C752 C751 1.389 . S
C752 C753 1.387 . S
C753 H738 0.930 . S
C753 C748 1.390 . S
C753 C752 1.387 . S
H754 C766 0.930 . S
H755 C768 0.930 . S
H756 C769 0.930 . S
H757 C773 0.959 . S
H758 C773 0.959 . S
H759 C773 0.961 . S
H760 C774 0.960 . S
H761 C774 0.961 . S
H762 C774 0.959 . S
H763 C777 0.929 . S
H764 C778 0.931 . S
H765 C780 0.930 . S
C766 H754 0.930 . S
C766 C767 1.399 . S
C766 C771 1.399 . S
C767 C766 1.399 . S
C767 C768 1.376 . S
C768 H755 0.930 . S
C768 C767 1.376 . S
C768 C769 1.388 . S
C769 H756 0.930 . S
C769 C768 1.388 . S
C769 C770 1.390 . S
C770 C769 1.390 . S
C770 C771 1.394 . S
C770 C776 1.465 . S
C771 C766 1.399 . S
C771 C770 1.394 . S
C771 C772 1.516 . S
C772 C771 1.516 . S
C772 C773 1.502 . S
C772 C774 1.561 . S
C772 C775 1.526 . S
C773 H757 0.959 . S
C773 H758 0.959 . S
C773 H759 0.961 . S
C773 C772 1.502 . S
C774 H760 0.960 . S
C774 H761 0.961 . S
C774 H762 0.959 . S
C774 C772 1.561 . S
C775 C772 1.526 . S
C775 C776 1.396 . S
C775 C780 1.390 . S
C776 C770 1.465 . S
C776 C775 1.396 . S
C776 C777 1.399 . S
C777 H763 0.929 . S
C777 C776 1.399 . S
C777 C778 1.385 . S
C778 H764 0.931 . S
C778 C777 1.385 . S
C778 C779 1.389 . S
C779 C778 1.389 . S
C779 C780 1.387 . S
C780 H765 0.930 . S
C780 C775 1.390 . S
C780 C779 1.387 . S
H781 C793 0.930 . S
H782 C795 0.930 . S
H783 C796 0.930 . S
H784 C800 0.959 . S
H785 C800 0.959 . S
H786 C800 0.961 . S
H787 C801 0.960 . S
H788 C801 0.961 . S
H789 C801 0.959 . S
H790 C804 0.929 . S
H791 C805 0.931 . S
H792 C807 0.930 . S
C793 H781 0.930 . S
C793 C794 1.399 . S
C793 C798 1.399 . S
C794 C793 1.399 . S
C794 C795 1.376 . S
C795 H782 0.930 . S
C795 C794 1.376 . S
C795 C796 1.388 . S
C796 H783 0.930 . S
C796 C795 1.388 . S
C796 C797 1.390 . S
C797 C796 1.390 . S
C797 C798 1.394 . S
C797 C803 1.465 . S
C798 C793 1.399 . S
C798 C797 1.394 . S
C798 C799 1.516 . S
C799 C798 1.516 . S
C799 C800 1.502 . S
C799 C801 1.561 . S
C799 C802 1.526 . S
C800 H784 0.959 . S
C800 H785 0.959 . S
C800 H786 0.961 . S
C800 C799 1.502 . S
C801 H787 0.960 . S
C801 H788 0.961 . S
C801 H789 0.959 . S
C801 C799 1.561 . S
C802 C799 1.526 . S
C802 C803 1.396 . S
C802 C807 1.390 . S
C803 C797 1.465 . S
C803 C802 1.396 . S
C803 C804 1.399 . S
C804 H790 0.929 . S
C804 C803 1.399 . S
C804 C805 1.385 . S
C805 H791 0.931 . S
C805 C804 1.385 . S
C805 C806 1.389 . S
C806 C805 1.389 . S
C806 C807 1.387 . S
C807 H792 0.930 . S
C807 C802 1.390 . S
C807 C806 1.387 . S
H808 C820 0.930 . S
H809 C822 0.930 . S
H810 C823 0.930 . S
H811 C827 0.959 . S
H812 C827 0.959 . S
H813 C827 0.961 . S
H814 C828 0.960 . S
H815 C828 0.961 . S
H816 C828 0.959 . S
H817 C831 0.929 . S
H818 C832 0.931 . S
H819 C834 0.930 . S
C820 H808 0.930 . S
C820 C821 1.399 . S
C820 C825 1.399 . S
C821 C820 1.399 . S
C821 C822 1.376 . S
C822 H809 0.930 . S
C822 C821 1.376 . S
C822 C823 1.388 . S
C823 H810 0.930 . S
C823 C822 1.388 . S
C823 C824 1.390 . S
C824 C823 1.390 . S
C824 C825 1.394 . S
C824 C830 1.465 . S
C825 C820 1.399 . S
C825 C824 1.394 . S
C825 C826 1.516 . S
C826 C825 1.516 . S
C826 C827 1.502 . S
C826 C828 1.561 . S
C826 C829 1.526 . S
C827 H811 0.959 . S
C827 H812 0.959 . S
C827 H813 0.961 . S
C827 C826 1.502 . S
C828 H814 0.960 . S
C828 H815 0.961 . S
C828 H816 0.959 . S
C828 C826 1.561 . S
C829 C826 1.526 . S
C829 C830 1.396 . S
C829 C834 1.390 . S
C830 C824 1.465 . S
C830 C829 1.396 . S
C830 C831 1.399 . S
C831 H817 0.929 . S
C831 C830 1.399 . S
C831 C832 1.385 . S
C832 H818 0.931 . S
C832 C831 1.385 . S
C832 C833 1.389 . S
C833 C832 1.389 . S
C833 C834 1.387 . S
C834 H819 0.930 . S
C834 C829 1.390 . S
C834 C833 1.387 . S
C212 C112 1.479 . S
C200 C5 1.370 . S
C239 C148 1.833 . S
C227 C16 1.832 . S
C266 C113 1.186 . S
C254 C30 1.177 . S
C293 C143 1.155 . S
C281 C40 1.098 . S
C320 C110 1.107 . S
C308 C49 1.181 . S
C335 C63 1.448 . S
C347 C146 1.435 . S
C362 C74 0.621 . S
C374 C115 0.618 . S
C401 C145 1.607 . S
C389 C85 1.599 . S
C428 C149 1.530 . S
C416 C8 1.518 . S
C455 C114 1.858 . S
C443 C18 1.886 . S
C482 C142 1.616 . S
C470 C27 1.548 . S
C509 C111 0.822 . S
C497 C38 0.624 . S
C536 C144 1.764 . S
C524 C51 1.906 . S
C551 C60 1.459 . S
C563 C109 1.591 . S
C578 C71 1.165 . S
C590 C147 1.122 . S
C617 C116 1.426 . S
C605 C84 1.517 . S
C644 C178 2.177 . S
C632 C7 2.168 . S
C659 C52 1.903 . S
C671 C181 1.735 . S
C698 C180 1.869 . S
C686 C62 1.888 . S
C713 C73 1.958 . S
C725 C179 1.967 . S
C752 C182 1.775 . S
C740 C82 1.507 . S
C767 C29 1.875 . S
C779 C176 1.857 . S
C806 C175 1.453 . S
C794 C41 1.443 . S
C821 C19 1.933 . S
C833 C177 1.820 . S
