# Generated by pormake.
# Topology scu, (8,4)-cn, num edge types: 1
# Building blocks:
#     Node 0, Type 0, BuildingBlock: VETTIZ_charged_sbu_0, # of connection points: 8
#     Node 1, Type 1, BuildingBlock: ESEHIV_clean_sbu_0, # of connection points: 4
#     Node 2, Type 1, BuildingBlock: ESEHIV_clean_sbu_0, # of connection points: 4
#     Edge 3, Type (0, 1), BuildingBlock: ZUJKAS_clean_linker_0, # of connection points: 2
#     Edge 4, Type (0, 1), BuildingBlock: ZUJKAS_clean_linker_0, # of connection points: 2
#     Edge 5, Type (0, 1), BuildingBlock: ZUJKAS_clean_linker_0, # of connection points: 2
#     Edge 6, Type (0, 1), BuildingBlock: ZUJKAS_clean_linker_0, # of connection points: 2
#     Edge 7, Type (0, 1), BuildingBlock: ZUJKAS_clean_linker_0, # of connection points: 2
#     Edge 8, Type (0, 1), BuildingBlock: ZUJKAS_clean_linker_0, # of connection points: 2
#     Edge 9, Type (0, 1), BuildingBlock: ZUJKAS_clean_linker_0, # of connection points: 2
#     Edge 10, Type (0, 1), BuildingBlock: ZUJKAS_clean_linker_0, # of connection points: 2
# Relax obj value: 0.003
# Max RMSD: 0.097
# Mean RMSD: 0.073
data_MOF--net-scu--node1-VETTIZ_charged_sbu_0--node2-ESEHIV_clean_sbu_0--edge1-ZUJKAS_clean_linker_0
_symmetry_space_group_name_H-M    P1
_symmetry_Int_Tables_number       1
_symmetry_cell_setting            triclinic
loop_
_symmetry_equiv_pos_as_xyz
'x, y, z'
_cell_length_a     33.948068
_cell_length_b     33.94549
_cell_length_c     24.160176
_cell_angle_alpha  92.60342
_cell_angle_beta   92.54056
_cell_angle_gamma 91.564158
loop_
_atom_site_label
_atom_site_type_symbol
_atom_site_fract_x
_atom_site_fract_y
_atom_site_fract_z
_atom_type_partial_charge
Fe0 Fe 0.02583 0.04452 0.14646 0.0
O1 O 0.02057 0.04322 0.06536 0.0
Fe2 Fe 0.03493 0.99081 1.02166 0.0
Fe3 Fe 0.97055 0.05482 1.02329 0.0
O4 O 0.0236 0.04052 0.06505 0.0
O5 O 0.98465 1.00221 0.9796 0.0
O6 O 0.9821 1.00549 0.97927 0.0
Fe7 Fe 0.98007 1.00201 0.89799 0.0
C8 C 0.93675 0.0258 0.12755 0.0
O9 O 0.01903 0.10415 0.1374 0.0
O10 O 0.96524 0.10559 0.07591 0.0
O11 O 0.04012 1.00159 0.88772 0.0
O12 O 0.06812 0.02263 0.96897 0.0
O13 O 0.08752 0.98754 0.07202 0.0
O14 O 0.08529 0.04171 0.13362 0.0
O15 O 1.00237 0.08932 0.97203 0.0
O16 O 0.98158 0.06236 0.88979 0.0
C17 C 0.10388 0.01382 0.10793 0.0
O18 O 0.98456 0.94239 0.9074 0.0
O19 O 0.03826 0.93898 0.96952 0.0
O20 O 0.9657 0.04128 0.15709 0.0
O21 O 0.93735 0.02196 0.07489 0.0
C22 C 0.98955 0.12182 0.11424 0.0
C23 C 0.99736 0.09094 0.91967 0.0
C24 C 0.9026 0.0361 0.93365 0.0
O25 O 0.91899 0.06012 0.97226 0.0
O26 O 0.92041 1.00735 0.90881 0.0
C27 C 0.06985 0.01533 0.91707 0.0
O28 O 1.00442 0.95661 0.07478 0.0
O29 O 0.0277 0.98444 0.15517 0.0
C30 C 0.01314 0.92366 0.93118 0.0
C31 C 0.01284 0.95489 0.12646 0.0
Cu32 Cu 0.02657 0.52184 0.53048 0.0
N33 N 0.06008 0.49004 0.57133 0.0
N34 N 0.07702 0.44014 0.6241 0.0
C35 C 0.05042 0.45351 0.58672 0.0
C36 C 0.10478 0.46937 0.63202 0.0
C37 C 0.09422 0.50013 0.59945 0.0
O38 O 0.99372 0.4868 0.48018 0.0
C39 C 0.99796 0.55148 0.63365 0.0
O40 O 0.00935 0.51806 0.65351 0.0
H41 H 0.02282 0.43837 0.57387 0.0
H42 H 0.10917 0.52864 0.59873 0.0
N43 N 0.0543 0.55647 0.4872 0.0
N44 N 0.06429 0.60553 0.43006 0.0
C45 C 0.03767 0.58531 0.45855 0.0
C46 C 0.09287 0.55838 0.47671 0.0
C47 C 0.09912 0.58858 0.44139 0.0
C48 C 0.01229 0.47059 0.44087 0.0
O49 O 0.05013 0.47896 0.43804 0.0
H50 H 1.00641 0.59082 0.45806 0.0
H51 H 0.11483 0.53905 0.49321 0.0
O52 O 0.99867 0.55608 0.58161 0.0
H53 H 0.13017 0.46919 0.66071 0.0
H54 H 0.12723 0.5976 0.42588 0.0
Cu55 Cu 0.50629 0.99227 0.52427 0.0
N56 N 0.46923 0.96393 0.56304 0.0
N57 N 0.41823 0.95435 0.61719 0.0
C58 C 0.44454 0.98072 0.59867 0.0
C59 C 0.42685 0.9195 0.59186 0.0
C60 C 0.45816 0.92555 0.55833 0.0
O61 O 0.4755 0.01577 0.46486 0.0
C62 C 0.5481 0.01329 0.62107 0.0
O63 O 0.53868 0.97613 0.62825 0.0
H64 H 0.445 0.0121 0.60887 0.0
H65 H 0.47102 0.90374 0.53116 0.0
N66 N 0.54497 0.96124 0.49265 0.0
N67 N 0.59717 0.94727 0.44254 0.0
C68 C 0.57048 0.97446 0.45611 0.0
C69 C 0.55595 0.92441 0.50304 0.0
C70 C 0.588 0.91561 0.47186 0.0
C71 C 0.46503 0.99255 0.42346 0.0
O72 O 0.47797 0.95643 0.42193 0.0
H73 H 0.56951 1.00371 0.44017 0.0
H74 H 0.54249 0.90572 0.53239 0.0
O75 O 0.53535 0.02884 0.5769 0.0
H76 H 0.4114 0.89164 0.5965 0.0
H77 H 0.60411 0.88854 0.47233 0.0
H78 H 0.04016 0.17071 0.17759 0.0
H79 H 0.0256 0.23225 0.22693 0.0
H80 H 0.90724 0.22658 0.15417 0.0
H81 H 0.9215 0.16423 0.10409 0.0
H82 H 0.94807 0.3049 0.15882 0.0
H83 H 0.95189 0.23444 0.36106 0.0
H84 H 0.994 0.22356 0.32123 0.0
H85 H 0.94565 0.20651 0.29563 0.0
C86 C 0.01102 0.18246 0.17153 0.0
C87 C 0.98184 0.1621 0.13728 0.0
C88 C 1.00274 0.21767 0.20003 0.0
C89 C 0.9651 0.23345 0.19524 0.0
C90 C 0.93638 0.21459 0.15885 0.0
H91 H 0.94433 0.42523 0.44984 0.0
H92 H 0.9203 0.36989 0.38671 0.0
C93 C 0.94466 0.17908 0.1301 0.0
C94 C 0.9564 0.26923 0.2296 0.0
H95 H 0.96262 0.30492 0.36414 0.0
C96 C 0.95034 0.30486 0.20374 0.0
C97 C 0.95842 0.26905 0.28821 0.0
C98 C 0.96243 0.23126 0.31825 0.0
C99 C 0.94961 0.34079 0.23502 0.0
C100 C 0.95573 0.34101 0.29345 0.0
C101 C 0.95832 0.30495 0.31938 0.0
C102 C 0.96553 0.3779 0.32743 0.0
C103 C 0.94361 0.3783 0.20502 0.0
C104 C 0.99863 0.4009 0.31497 0.0
C105 C 0.01237 0.43207 0.35082 0.0
C106 C 0.99349 0.44104 0.40028 0.0
C107 C 0.95932 0.41916 0.41187 0.0
C108 C 0.94564 0.38755 0.3759 0.0
H109 H 0.92484 0.37262 0.16648 0.0
H110 H 0.92976 0.40109 0.23159 0.0
H111 H 0.97262 0.39011 0.19285 0.0
H112 H 0.01515 0.39353 0.27878 0.0
H113 H 0.03873 0.44838 0.34056 0.0
H114 H 0.92458 0.03005 0.23883 0.0
H115 H 0.8654 0.01116 0.28572 0.0
H116 H 0.80794 0.97373 0.12867 0.0
H117 H 0.8671 0.99328 0.08085 0.0
H118 H 0.76058 0.01895 0.19289 0.0
H119 H 0.82446 0.90164 0.31744 0.0
H120 H 0.85221 0.94736 0.32704 0.0
H121 H 0.84917 0.92181 0.25997 0.0
C122 C 0.89953 0.01762 0.21402 0.0
C123 C 0.9008 0.01315 0.1559 0.0
C124 C 0.86572 1.00652 0.2411 0.0
C125 C 0.83243 0.99031 0.21092 0.0
C126 C 0.8334 0.98589 0.15288 0.0
H127 H 0.63336 0.88982 0.38344 0.0
H128 H 0.68874 0.89823 0.32292 0.0
C129 C 0.86728 0.99706 0.12562 0.0
C130 C 0.79618 0.97971 0.24005 0.0
H131 H 0.76306 0.92695 0.34671 0.0
C132 C 0.76101 0.99849 0.22611 0.0
C133 C 0.79647 0.95252 0.28281 0.0
C134 C 0.8325 0.92935 0.29734 0.0
C135 C 0.72664 0.99209 0.25525 0.0
C136 C 0.72765 0.96682 0.30033 0.0
C137 C 0.76236 0.94675 0.31271 0.0
C138 C 0.69348 0.96169 0.33616 0.0
C139 C 0.68956 0.01244 0.23727 0.0
C140 C 0.67805 0.99442 0.36446 0.0
C141 C 0.64643 0.9897 0.39897 0.0
C142 C 0.62973 0.95203 0.40657 0.0
C143 C 0.64561 0.91918 0.3788 0.0
C144 C 0.67718 0.92398 0.34401 0.0
H145 H 0.68998 0.02005 0.19305 0.0
H146 H 0.66287 0.99369 0.24304 0.0
H147 H 0.68731 0.04032 0.26259 0.0
H148 H 0.69084 0.02368 0.3605 0.0
H149 H 0.63563 0.01555 0.4206 0.0
H150 H 1.00508 0.88001 0.07747 0.0
H151 H 0.00996 0.81734 0.12379 0.0
H152 H 0.01901 0.88063 0.28289 0.0
H153 H 0.01471 0.94302 0.23726 0.0
H154 H 0.07883 0.8284 0.26837 0.0
H155 H 0.93271 0.75523 0.21557 0.0
H156 H 0.95881 0.7722 0.15764 0.0
H157 H 0.94188 0.80736 0.20838 0.0
C158 C 1.00733 0.8805 0.12235 0.0
C159 C 0.00975 0.91659 0.1536 0.0
C160 C 0.01005 0.84464 0.14879 0.0
C161 C 0.01476 0.84427 0.20688 0.0
C162 C 0.01553 0.88018 0.23806 0.0
H163 H 1.00458 0.65703 0.4365 0.0
H164 H 0.99285 0.71318 0.37883 0.0
C165 C 0.01302 0.91587 0.21181 0.0
C166 C 0.02181 0.80707 0.23553 0.0
H167 H 0.98005 0.71778 0.26337 0.0
C168 C 0.05726 0.80416 0.26714 0.0
C169 C 0.99355 0.7756 0.2342 0.0
C170 C 0.95442 0.77767 0.20254 0.0
C171 C 0.06513 0.77087 0.29779 0.0
C172 C 0.03708 0.73919 0.29607 0.0
C173 C 1.00166 0.74196 0.26429 0.0
C174 C 0.04339 0.70373 0.32895 0.0
C175 C 0.10292 0.77047 0.33311 0.0
C176 C 0.0754 0.67933 0.31961 0.0
C177 C 0.08221 0.6471 0.35257 0.0
C178 C 0.05696 0.6384 0.39533 0.0
C179 C 0.02444 0.6625 0.40372 0.0
C180 C 0.01771 0.69473 0.37082 0.0
H181 H 0.11663 0.80049 0.34011 0.0
H182 H 0.09759 0.75816 0.37401 0.0
H183 H 0.12432 0.75159 0.31185 0.0
H184 H 0.09519 0.68525 0.28683 0.0
H185 H 0.10708 0.62883 0.34419 0.0
H186 H 0.14826 0.94774 0.11822 0.0
H187 H 0.21506 0.94522 0.16184 0.0
H188 H 0.22125 0.07223 0.1786 0.0
H189 H 0.15495 0.07497 0.13569 0.0
H190 H 0.29434 0.03221 0.14363 0.0
H191 H 0.22874 0.97787 0.33429 0.0
H192 H 0.21505 0.95161 0.26957 0.0
H193 H 0.19976 1.00133 0.28136 0.0
C194 C 0.16431 0.97506 0.13002 0.0
C195 C 0.14631 0.01152 0.12405 0.0
C196 C 0.20228 0.97361 0.1552 0.0
C197 C 0.22281 1.00857 0.17397 0.0
C198 C 0.20587 0.04495 0.16459 0.0
H199 H 0.40798 0.04806 0.43272 0.0
H200 H 0.35065 0.05549 0.36864 0.0
C201 C 0.16794 0.04642 0.14019 0.0
C202 C 0.26038 1.00767 0.20757 0.0
H203 H 0.29763 0.98808 0.33676 0.0
C204 C 0.29521 0.02232 0.18571 0.0
C205 C 0.26115 0.99554 0.26283 0.0
C206 C 0.22423 0.9809 0.28887 0.0
C207 C 0.33098 0.02463 0.21759 0.0
C208 C 0.33178 0.01209 0.27264 0.0
C209 C 0.29686 0.99781 0.29459 0.0
C210 C 0.3688 0.0118 0.30764 0.0
C211 C 0.36755 0.04097 0.19256 0.0
C212 C 0.39823 0.98536 0.29404 0.0
C213 C 0.4307 0.98093 0.33055 0.0
C214 C 0.43451 1.00298 0.38135 0.0
C215 C 0.40604 0.03096 0.39369 0.0
C216 C 0.37321 0.03506 0.3573 0.0
H217 H 0.36038 0.05724 0.1547 0.0
H218 H 0.38452 0.06105 0.22302 0.0
H219 H 0.38676 0.01628 0.18095 0.0
H220 H 0.39519 0.9668 0.25634 0.0
H221 H 0.45214 0.95911 0.31987 0.0
H222 H 0.04008 0.85897 0.98595 0.0
H223 H 0.04159 0.79029 0.94754 0.0
H224 H 0.99824 0.82814 0.78875 0.0
H225 H 0.99639 0.89568 0.82619 0.0
H226 H 0.96941 0.74598 0.88746 0.0
H227 H 0.10022 0.76231 0.7598 0.0
H228 H 0.09239 0.79406 0.8202 0.0
H229 H 0.06619 0.80183 0.75553 0.0
C230 C 0.03131 0.85252 0.94277 0.0
C231 C 0.01788 0.88266 0.90922 0.0
C232 C 0.032 0.81339 0.921 0.0
C233 C 0.02013 0.8043 0.86525 0.0
C234 C 1.00771 0.83455 0.83172 0.0
H235 H 0.98283 0.62744 0.60728 0.0
H236 H 0.98702 0.68624 0.66969 0.0
C237 C 1.00653 0.87316 0.85338 0.0
C238 C 0.0191 0.76336 0.84099 0.0
H239 H 0.05565 0.70816 0.73448 0.0
C240 C 0.98875 0.73718 0.85485 0.0
C241 C 0.04415 0.75228 0.79815 0.0
C242 C 0.07782 0.77892 0.7827 0.0
C243 C 0.98149 0.701 0.82479 0.0
C244 C 1.00554 0.69073 0.78027 0.0
C245 C 0.03696 0.71623 0.76821 0.0
C246 C 0.99808 0.65444 0.74415 0.0
C247 C 0.94697 0.67502 0.83896 0.0
C248 C 1.00191 0.61689 0.76542 0.0
C249 C 0.99933 0.5831 0.72981 0.0
C250 C 0.99318 0.58624 0.67215 0.0
C251 C 0.98753 0.62383 0.65138 0.0
C252 C 0.99011 0.65754 0.687 0.0
H253 H 0.9266 0.69083 0.86639 0.0
H254 H 0.93014 0.66383 0.80073 0.0
H255 H 0.95805 0.6492 0.86084 0.0
H256 H 1.0086 0.61379 0.80922 0.0
H257 H 1.00399 0.55469 0.74728 0.0
H258 H 0.14401 0.02321 0.96767 0.0
H259 H 0.20739 0.01957 0.92307 0.0
H260 H 0.14643 0.00931 0.76247 0.0
H261 H 0.08321 0.01317 0.80634 0.0
H262 H 0.23048 0.95527 0.85547 0.0
H263 H 0.23318 0.09305 0.74107 0.0
H264 H 0.201 0.08546 0.79744 0.0
H265 H 0.18811 0.06439 0.72919 0.0
C266 C 0.1441 0.02102 0.9228 0.0
C267 C 0.10843 0.01848 0.8906 0.0
C268 C 0.18037 0.01875 0.8974 0.0
C269 C 0.18168 0.01451 0.83941 0.0
C270 C 0.14621 0.01325 0.8072 0.0
H271 H 0.35048 0.91064 0.62586 0.0
H272 H 0.29556 0.92587 0.68431 0.0
C273 C 0.11003 0.01525 0.83246 0.0
C274 C 0.21969 1.00836 0.81242 0.0
H275 H 0.27785 0.04342 0.71266 0.0
C276 C 0.24109 0.97478 0.82471 0.0
C277 C 0.23372 0.03399 0.77262 0.0
C278 C 0.21304 0.07146 0.7596 0.0
C279 C 0.27529 0.96536 0.79676 0.0
C280 C 0.28819 0.98993 0.75499 0.0
C281 C 0.26769 0.02434 0.74425 0.0
C282 C 0.32236 0.97998 0.72108 0.0
C283 C 0.29729 0.92911 0.81208 0.0
C284 C 0.35557 1.00552 0.72178 0.0
C285 C 0.38722 0.9968 0.68852 0.0
C286 C 0.3862 0.9625 0.65327 0.0
C287 C 0.35279 0.93694 0.65292 0.0
C288 C 0.32124 0.94564 0.68636 0.0
H289 H 0.29003 0.91958 0.85391 0.0
H290 H 0.2889 0.90455 0.78158 0.0
H291 H 0.32967 0.9345 0.81126 0.0
H292 H 0.35705 0.03222 0.74822 0.0
H293 H 0.41252 0.01696 0.69066 0.0
H294 H 0.985 0.10709 0.81054 0.0
H295 H 1.00207 0.16746 0.76501 0.0
H296 H 0.05199 0.21884 0.91974 0.0
H297 H 0.03501 0.15825 0.96616 0.0
H298 H 0.97605 0.24569 0.79577 0.0
H299 H 0.13951 0.23502 0.80523 0.0
H300 H 0.10695 0.19286 0.81313 0.0
H301 H 0.11488 0.22928 0.86895 0.0
C302 C 0.99978 0.13105 0.83511 0.0
C303 C 1.00862 0.12767 0.89219 0.0
C304 C 0.00948 0.1656 0.80888 0.0
C305 C 0.02859 0.19748 0.83883 0.0
C306 C 0.0377 0.19435 0.89571 0.0
H307 H 0.10539 0.42808 0.72886 0.0
H308 H 0.09432 0.36958 0.78233 0.0
C309 C 0.0278 0.15975 0.9222 0.0
C310 C 0.03758 0.23432 0.8104 0.0
H311 H 0.11314 0.29132 0.76531 0.0
C312 C 1.00601 0.25574 0.78918 0.0
C313 C 0.07669 0.24743 0.80218 0.0
C314 C 0.1116 0.22495 0.82315 0.0
C315 C 0.01245 0.28995 0.75987 0.0
C316 C 0.05157 0.30256 0.75024 0.0
C317 C 0.08319 0.28152 0.77241 0.0
C318 C 0.06009 0.33722 0.71671 0.0
C319 C 0.97723 0.31257 0.74019 0.0
C320 C 0.04551 0.3381 0.66148 0.0
C321 C 0.05179 0.37149 0.63081 0.0
C322 C 0.07319 0.40462 0.65446 0.0
C323 C 0.08906 0.40305 0.70914 0.0
C324 C 0.08259 0.36967 0.7399 0.0
H325 H 0.95092 0.30599 0.76433 0.0
H326 H 0.9836 0.34487 0.74349 0.0
H327 H 0.96973 0.30393 0.69605 0.0
H328 H 0.02899 0.31301 0.64215 0.0
H329 H 0.03981 0.37142 0.58854 0.0
H330 H 0.85227 0.9844 0.87466 0.0
H331 H 0.78961 0.9982 0.82766 0.0
H332 H 0.79733 0.11794 0.89554 0.0
H333 H 0.86058 0.10432 0.9435 0.0
H334 H 0.71971 0.0813 0.8953 0.0
H335 H 0.78459 0.06575 0.6898 0.0
H336 H 0.79415 0.02421 0.73124 0.0
H337 H 0.81438 0.07219 0.75356 0.0
C338 C 0.84067 0.01367 0.88014 0.0
C339 C 0.86183 0.0434 0.91236 0.0
C340 C 0.80485 0.02153 0.85296 0.0
C341 C 0.78934 0.05936 0.85688 0.0
C342 C 0.80906 0.08865 0.89147 0.0
H343 H 0.59655 0.07798 0.60529 0.0
H344 H 0.65299 0.10205 0.66599 0.0
C345 C 0.84509 0.08075 0.91903 0.0
C346 C 0.75304 0.06777 0.82343 0.0
H347 H 0.71392 0.05793 0.69082 0.0
C348 C 0.71851 0.07699 0.85049 0.0
C349 C 0.75165 0.06327 0.76484 0.0
C350 C 0.78829 0.05624 0.73308 0.0
C351 C 0.68204 0.0786 0.82075 0.0
C352 C 0.68004 0.07004 0.7627 0.0
C353 C 0.71516 0.06408 0.73532 0.0
C354 C 0.64199 0.06161 0.73075 0.0
C355 C 0.6459 0.0885 0.85209 0.0
C356 C 0.61656 0.03152 0.74731 0.0
C357 C 0.58452 0.01789 0.71293 0.0
C358 C 0.57721 0.03372 0.66081 0.0
C359 C 0.60127 0.06536 0.64534 0.0
C360 C 0.63359 0.07902 0.67993 0.0
H361 H 0.65365 0.10897 0.88837 0.0
H362 H 0.62319 0.10217 0.82525 0.0
H363 H 0.63303 0.06108 0.86809 0.0
H364 H 0.62279 0.0168 0.78542 0.0
H365 H 0.56654 0.99351 0.72618 0.0
loop_
_geom_bond_atom_site_label_1
_geom_bond_atom_site_label_2
_geom_bond_distance
_geom_bond_site_symmetry_2
_ccdc_geom_bond_type
Fe0 O1 1.886 1_455 S
Fe0 O4 1.715 1_545 S
Fe0 O9 2.077 . S
Fe0 O14 1.935 . S
Fe0 O20 2.077 1_455 S
Fe0 O29 1.935 1_445 S
O1 Fe0 1.886 1_655 S
O1 Fe3 1.702 1_554 S
Fe2 O4 1.886 . S
Fe2 O5 1.715 1_554 S
Fe2 O12 1.935 1_554 S
Fe2 O13 2.077 . S
Fe2 O19 1.935 1_554 S
Fe2 O28 2.077 . S
Fe3 O1 1.702 1_556 S
Fe3 O6 1.899 . S
Fe3 O10 1.926 1_556 S
Fe3 O15 2.089 . S
Fe3 O21 1.925 1_556 S
Fe3 O25 2.088 . S
O4 Fe0 1.715 1_565 S
O4 Fe2 1.886 . S
O5 Fe2 1.715 1_556 S
O5 Fe7 1.881 1_565 S
O6 Fe3 1.899 . S
O6 Fe7 1.719 1_655 S
Fe7 O5 1.881 1_545 S
Fe7 O6 1.719 1_455 S
Fe7 O11 2.077 . S
Fe7 O16 1.942 . S
Fe7 O18 2.070 1_445 S
Fe7 O26 1.934 1_445 S
C8 O20 1.381 . S
C8 O21 1.421 . S
O9 Fe0 2.077 . S
O9 C22 1.381 1_455 S
O10 Fe3 1.926 1_554 S
O10 C22 1.421 . S
O11 Fe7 2.077 . S
O11 C27 1.381 1_545 S
O12 Fe2 1.935 1_556 S
O12 C27 1.421 . S
O13 Fe2 2.077 . S
O13 C17 1.381 . S
O14 Fe0 1.935 . S
O14 C17 1.421 1_545 S
O15 Fe3 2.089 . S
O15 C23 1.381 . S
O16 Fe7 1.942 . S
O16 C23 1.421 1_455 S
C17 O13 1.381 . S
C17 O14 1.421 1_565 S
O18 Fe7 2.070 1_665 S
O18 C30 1.381 1_655 S
O19 Fe2 1.935 1_556 S
O19 C30 1.421 . S
O20 Fe0 2.077 1_655 S
O20 C8 1.381 . S
O21 Fe3 1.925 1_554 S
O21 C8 1.421 . S
C22 O9 1.381 1_655 S
C22 O10 1.421 . S
C23 O15 1.381 . S
C23 O16 1.421 1_655 S
C24 O25 1.381 . S
C24 O26 1.421 1_545 S
O25 Fe3 2.088 . S
O25 C24 1.381 . S
O26 Fe7 1.934 1_665 S
O26 C24 1.421 1_565 S
C27 O11 1.381 1_565 S
C27 O12 1.421 . S
O28 Fe2 2.077 . S
O28 C31 1.381 . S
O29 Fe0 1.935 1_665 S
O29 C31 1.421 1_655 S
C30 O18 1.381 1_455 S
C30 O19 1.421 . S
C31 O28 1.381 . S
C31 O29 1.421 1_455 S
Cu32 N33 1.999 . S
Cu32 O38 1.974 . S
Cu32 N43 1.985 . S
Cu32 O52 1.959 . S
N33 Cu32 1.999 . S
N33 C35 1.263 . S
N33 C37 1.389 . S
N34 C35 1.358 . S
N34 C36 1.400 . S
C35 N33 1.263 . S
C35 N34 1.358 . S
C35 H41 0.930 1_655 S
C36 N34 1.400 . S
C36 C37 1.351 . S
C36 H53 0.930 . S
C37 N33 1.389 . S
C37 C36 1.351 . S
C37 H42 0.930 . S
O38 Cu32 1.974 . S
O38 C48 1.282 1_655 S
C39 O40 1.261 . S
C39 O52 1.251 1_455 S
O40 C39 1.261 . S
H41 C35 0.930 1_455 S
H42 C37 0.930 . S
N43 Cu32 1.985 . S
N43 C45 1.335 . S
N43 C46 1.390 1_655 S
N44 C45 1.345 . S
N44 C47 1.336 1_655 S
C45 N43 1.335 . S
C45 N44 1.345 . S
C45 H50 0.930 . S
C46 N43 1.390 1_455 S
C46 C47 1.346 . S
C46 H51 0.930 . S
C47 N44 1.336 1_455 S
C47 C46 1.346 . S
C47 H54 0.929 . S
C48 O38 1.282 1_455 S
C48 O49 1.216 . S
O49 C48 1.216 . S
H50 C45 0.930 . S
H51 C46 0.930 . S
O52 Cu32 1.959 . S
O52 C39 1.251 1_655 S
H53 C36 0.930 . S
H54 C47 0.929 . S
Cu55 N56 1.999 . S
Cu55 O61 1.974 . S
Cu55 N66 1.985 . S
Cu55 O75 1.959 . S
N56 Cu55 1.999 . S
N56 C58 1.263 . S
N56 C60 1.389 . S
N57 C58 1.358 . S
N57 C59 1.400 . S
C58 N56 1.263 . S
C58 N57 1.358 . S
C58 H64 0.930 1_545 S
C59 N57 1.400 . S
C59 C60 1.351 . S
C59 H76 0.930 . S
C60 N56 1.389 . S
C60 C59 1.351 . S
C60 H65 0.930 . S
O61 Cu55 1.974 . S
O61 C71 1.282 1_545 S
C62 O63 1.261 . S
C62 O75 1.251 1_565 S
O63 C62 1.261 . S
H64 C58 0.930 1_565 S
H65 C60 0.930 . S
N66 Cu55 1.985 . S
N66 C68 1.335 . S
N66 C69 1.390 1_545 S
N67 C68 1.345 . S
N67 C70 1.336 1_545 S
C68 N66 1.335 . S
C68 N67 1.345 . S
C68 H73 0.930 . S
C69 N66 1.390 1_565 S
C69 C70 1.346 . S
C69 H74 0.930 . S
C70 N67 1.336 1_565 S
C70 C69 1.346 . S
C70 H77 0.929 . S
C71 O61 1.282 1_565 S
C71 O72 1.216 . S
O72 C71 1.216 . S
H73 C68 0.930 . S
H74 C69 0.930 . S
O75 Cu55 1.959 . S
O75 C62 1.251 1_545 S
H76 C59 0.930 . S
H77 C70 0.929 . S
H78 C86 0.929 . S
H79 C88 0.930 . S
H80 C90 0.930 . S
H81 C93 0.929 . S
H82 C96 0.930 . S
H83 C98 0.960 . S
H84 C98 0.960 . S
H85 C98 0.960 . S
C86 H78 0.929 . S
C86 C87 1.377 . S
C86 C88 1.384 . S
C87 C86 1.377 . S
C87 C93 1.390 1_455 S
C88 H79 0.930 . S
C88 C86 1.384 . S
C88 C89 1.372 . S
C89 C88 1.372 . S
C89 C90 1.400 1_455 S
C89 C94 1.490 . S
C90 H80 0.930 . S
C90 C89 1.400 1_655 S
C90 C93 1.386 . S
H91 C107 0.930 . S
H92 C108 0.931 . S
C93 H81 0.929 . S
C93 C87 1.390 1_655 S
C93 C90 1.386 . S
C94 C89 1.490 . S
C94 C96 1.395 1_455 S
C94 C97 1.403 . S
H95 C101 0.930 . S
C96 H82 0.930 . S
C96 C94 1.395 1_655 S
C96 C99 1.403 . S
C97 C94 1.403 . S
C97 C98 1.524 . S
C97 C101 1.400 . S
C98 H83 0.960 . S
C98 H84 0.960 . S
C98 H85 0.960 . S
C98 C97 1.524 . S
C99 C96 1.403 . S
C99 C100 1.392 1_655 S
C99 C103 1.495 . S
C100 C99 1.392 1_455 S
C100 C101 1.385 . S
C100 C102 1.478 . S
C101 H95 0.930 . S
C101 C97 1.400 . S
C101 C100 1.385 . S
C102 C100 1.478 . S
C102 C104 1.381 . S
C102 C108 1.383 1_455 S
C103 C99 1.495 . S
C103 H109 0.959 . S
C103 H110 0.961 . S
C103 H111 0.959 1_655 S
C104 C102 1.381 . S
C104 C105 1.394 . S
C104 H112 0.930 . S
C105 C104 1.394 . S
C105 C106 1.383 . S
C105 H113 0.929 . S
C106 C105 1.383 . S
C106 C107 1.377 1_455 S
C107 H91 0.930 . S
C107 C106 1.377 1_655 S
C107 C108 1.379 . S
C108 H92 0.931 . S
C108 C102 1.383 1_655 S
C108 C107 1.379 . S
H109 C103 0.959 . S
H110 C103 0.961 . S
H111 C103 0.959 1_455 S
H112 C104 0.930 . S
H113 C105 0.929 . S
H114 C122 0.929 . S
H115 C124 0.930 . S
H116 C126 0.930 . S
H117 C129 0.929 . S
H118 C132 0.930 . S
H119 C134 0.960 . S
H120 C134 0.960 . S
H121 C134 0.960 . S
C122 H114 0.929 . S
C122 C123 1.377 . S
C122 C124 1.384 . S
C123 C122 1.377 . S
C123 C129 1.390 1_545 S
C124 H115 0.930 . S
C124 C122 1.384 . S
C124 C125 1.372 . S
C125 C124 1.372 . S
C125 C126 1.400 1_545 S
C125 C130 1.490 . S
C126 H116 0.930 . S
C126 C125 1.400 1_565 S
C126 C129 1.386 . S
H127 C143 0.930 . S
H128 C144 0.931 . S
C129 H117 0.929 . S
C129 C123 1.390 1_565 S
C129 C126 1.386 . S
C130 C125 1.490 . S
C130 C132 1.395 . S
C130 C133 1.403 1_545 S
H131 C137 0.930 . S
C132 H118 0.930 . S
C132 C130 1.395 . S
C132 C135 1.403 . S
C133 C130 1.403 1_565 S
C133 C134 1.524 . S
C133 C137 1.400 . S
C134 H119 0.960 . S
C134 H120 0.960 . S
C134 H121 0.960 . S
C134 C133 1.524 . S
C135 C132 1.403 . S
C135 C136 1.392 . S
C135 C139 1.495 . S
C136 C135 1.392 . S
C136 C137 1.385 1_545 S
C136 C138 1.478 . S
C137 H131 0.930 . S
C137 C133 1.400 . S
C137 C136 1.385 1_565 S
C138 C136 1.478 . S
C138 C140 1.381 . S
C138 C144 1.383 1_545 S
C139 C135 1.495 . S
C139 H145 0.959 . S
C139 H146 0.961 . S
C139 H147 0.960 . S
C140 C138 1.381 . S
C140 C141 1.394 . S
C140 H148 0.930 . S
C141 C140 1.394 . S
C141 C142 1.383 . S
C141 H149 0.929 . S
C142 C141 1.383 . S
C142 C143 1.377 1_545 S
C143 H127 0.930 . S
C143 C142 1.377 1_565 S
C143 C144 1.379 . S
C144 H128 0.931 . S
C144 C138 1.383 1_565 S
C144 C143 1.379 . S
H145 C139 0.959 . S
H146 C139 0.961 . S
H147 C139 0.960 . S
H148 C140 0.930 . S
H149 C141 0.929 . S
H150 C158 0.929 . S
H151 C160 0.930 . S
H152 C162 0.930 . S
H153 C165 0.929 . S
H154 C168 0.930 . S
H155 C170 0.960 . S
H156 C170 0.960 . S
H157 C170 0.960 . S
C158 H150 0.929 . S
C158 C159 1.377 . S
C158 C160 1.384 . S
C159 C158 1.377 . S
C159 C165 1.390 1_455 S
C160 H151 0.930 . S
C160 C158 1.384 . S
C160 C161 1.372 . S
C161 C160 1.372 . S
C161 C162 1.400 1_455 S
C161 C166 1.490 . S
C162 H152 0.930 . S
C162 C161 1.400 1_655 S
C162 C165 1.386 . S
H163 C179 0.930 . S
H164 C180 0.931 . S
C165 H153 0.929 . S
C165 C159 1.390 1_655 S
C165 C162 1.386 . S
C166 C161 1.490 . S
C166 C168 1.395 . S
C166 C169 1.403 1_455 S
H167 C173 0.930 . S
C168 H154 0.930 . S
C168 C166 1.395 . S
C168 C171 1.403 . S
C169 C166 1.403 1_655 S
C169 C170 1.524 . S
C169 C173 1.400 . S
C170 H155 0.960 . S
C170 H156 0.960 . S
C170 H157 0.960 . S
C170 C169 1.524 . S
C171 C168 1.403 . S
C171 C172 1.392 . S
C171 C175 1.495 . S
C172 C171 1.392 . S
C172 C173 1.385 1_455 S
C172 C174 1.478 . S
C173 H167 0.930 . S
C173 C169 1.400 . S
C173 C172 1.385 1_655 S
C174 C172 1.478 . S
C174 C176 1.381 . S
C174 C180 1.383 1_455 S
C175 C171 1.495 . S
C175 H181 0.959 . S
C175 H182 0.961 . S
C175 H183 0.960 . S
C176 C174 1.381 . S
C176 C177 1.394 . S
C176 H184 0.930 . S
C177 C176 1.394 . S
C177 C178 1.383 1_455 S
C177 H185 0.929 . S
C178 C177 1.383 1_655 S
C178 C179 1.377 . S
C179 H163 0.930 . S
C179 C178 1.377 . S
C179 C180 1.379 . S
C180 H164 0.931 . S
C180 C174 1.383 1_655 S
C180 C179 1.379 . S
H181 C175 0.959 . S
H182 C175 0.961 . S
H183 C175 0.960 . S
H184 C176 0.930 . S
H185 C177 0.929 . S
H186 C194 0.929 . S
H187 C196 0.930 . S
H188 C198 0.930 . S
H189 C201 0.929 . S
H190 C204 0.930 . S
H191 C206 0.960 . S
H192 C206 0.960 . S
H193 C206 0.960 . S
C194 H186 0.929 . S
C194 C195 1.377 1_565 S
C194 C196 1.384 . S
C195 C194 1.377 1_545 S
C195 C201 1.390 . S
C196 H187 0.930 . S
C196 C194 1.384 . S
C196 C197 1.370 1_565 S
C197 C196 1.370 1_545 S
C197 C198 1.402 . S
C197 C202 1.488 1_545 S
C198 H188 0.930 . S
C198 C197 1.402 . S
C198 C201 1.386 . S
H199 C215 0.930 . S
H200 C216 0.931 . S
C201 H189 0.929 . S
C201 C195 1.390 . S
C201 C198 1.386 . S
C202 C197 1.488 1_565 S
C202 C204 1.387 1_565 S
C202 C205 1.412 . S
H203 C209 0.930 . S
C204 H190 0.930 . S
C204 C202 1.387 1_545 S
C204 C207 1.403 . S
C205 C202 1.412 . S
C205 C206 1.524 . S
C205 C209 1.400 . S
C206 H191 0.960 . S
C206 H192 0.960 . S
C206 H193 0.960 . S
C206 C205 1.524 . S
C207 C204 1.403 . S
C207 C208 1.391 1_545 S
C207 C211 1.495 . S
C208 C207 1.391 1_565 S
C208 C209 1.386 . S
C208 C210 1.477 . S
C209 H203 0.930 . S
C209 C205 1.400 . S
C209 C208 1.386 . S
C210 C208 1.477 . S
C210 C212 1.393 . S
C210 C216 1.374 1_565 S
C211 C207 1.495 . S
C211 H217 0.959 . S
C211 H218 0.961 . S
C211 H219 0.960 . S
C212 C210 1.393 . S
C212 C213 1.394 . S
C212 H220 0.930 . S
C213 C212 1.394 . S
C213 C214 1.383 . S
C213 H221 0.929 . S
C214 C213 1.383 . S
C214 C215 1.377 1_565 S
C215 H199 0.930 . S
C215 C214 1.377 1_545 S
C215 C216 1.379 . S
C216 H200 0.931 . S
C216 C210 1.374 1_545 S
C216 C215 1.379 . S
H217 C211 0.959 . S
H218 C211 0.961 . S
H219 C211 0.960 . S
H220 C212 0.930 . S
H221 C213 0.929 . S
H222 C230 0.929 . S
H223 C232 0.930 . S
H224 C234 0.930 . S
H225 C237 0.929 . S
H226 C240 0.930 . S
H227 C242 0.960 . S
H228 C242 0.960 . S
H229 C242 0.960 . S
C230 H222 0.929 . S
C230 C231 1.377 . S
C230 C232 1.384 . S
C231 C230 1.377 . S
C231 C237 1.390 1_455 S
C232 H223 0.930 . S
C232 C230 1.384 . S
C232 C233 1.372 . S
C233 C232 1.372 . S
C233 C234 1.400 1_455 S
C233 C238 1.490 . S
C234 H224 0.930 . S
C234 C233 1.400 1_655 S
C234 C237 1.386 . S
H235 C251 0.930 . S
H236 C252 0.931 . S
C237 H225 0.929 . S
C237 C231 1.390 1_655 S
C237 C234 1.386 . S
C238 C233 1.490 . S
C238 C240 1.395 1_455 S
C238 C241 1.403 . S
H239 C245 0.930 . S
C240 H226 0.930 . S
C240 C238 1.395 1_655 S
C240 C243 1.403 . S
C241 C238 1.403 . S
C241 C242 1.524 . S
C241 C245 1.400 . S
C242 H227 0.960 . S
C242 H228 0.960 . S
C242 H229 0.960 . S
C242 C241 1.524 . S
C243 C240 1.403 . S
C243 C244 1.392 1_655 S
C243 C247 1.495 . S
C244 C243 1.392 1_455 S
C244 C245 1.385 . S
C244 C246 1.478 . S
C245 H239 0.930 . S
C245 C241 1.400 . S
C245 C244 1.385 . S
C246 C244 1.478 . S
C246 C248 1.381 . S
C246 C252 1.383 1_455 S
C247 C243 1.495 . S
C247 H253 0.959 . S
C247 H254 0.961 . S
C247 H255 0.960 . S
C248 C246 1.381 . S
C248 C249 1.394 . S
C248 H256 0.930 . S
C249 C248 1.394 . S
C249 C250 1.383 . S
C249 H257 0.929 . S
C250 C249 1.383 . S
C250 C251 1.377 1_455 S
C251 H235 0.930 . S
C251 C250 1.377 1_655 S
C251 C252 1.379 . S
C252 H236 0.931 . S
C252 C246 1.383 1_655 S
C252 C251 1.379 . S
H253 C247 0.959 . S
H254 C247 0.961 . S
H255 C247 0.960 . S
H256 C248 0.930 . S
H257 C249 0.929 . S
H258 C266 0.929 . S
H259 C268 0.930 . S
H260 C270 0.930 . S
H261 C273 0.929 . S
H262 C276 0.930 . S
H263 C278 0.960 . S
H264 C278 0.960 . S
H265 C278 0.960 . S
C266 H258 0.929 . S
C266 C267 1.377 . S
C266 C268 1.384 . S
C267 C266 1.377 . S
C267 C273 1.390 1_545 S
C268 H259 0.930 . S
C268 C266 1.384 . S
C268 C269 1.372 . S
C269 C268 1.372 . S
C269 C270 1.400 1_545 S
C269 C274 1.490 . S
C270 H260 0.930 . S
C270 C269 1.400 1_565 S
C270 C273 1.386 . S
H271 C287 0.930 . S
H272 C288 0.931 . S
C273 H261 0.929 . S
C273 C267 1.390 1_565 S
C273 C270 1.386 . S
C274 C269 1.490 . S
C274 C276 1.395 1_545 S
C274 C277 1.403 . S
H275 C281 0.930 . S
C276 H262 0.930 . S
C276 C274 1.395 1_565 S
C276 C279 1.403 . S
C277 C274 1.403 . S
C277 C278 1.524 . S
C277 C281 1.400 . S
C278 H263 0.960 . S
C278 H264 0.960 . S
C278 H265 0.960 . S
C278 C277 1.524 . S
C279 C276 1.403 . S
C279 C280 1.392 1_565 S
C279 C283 1.495 . S
C280 C279 1.392 1_545 S
C280 C281 1.385 . S
C280 C282 1.478 . S
C281 H275 0.930 . S
C281 C277 1.400 . S
C281 C280 1.385 . S
C282 C280 1.478 . S
C282 C284 1.381 . S
C282 C288 1.383 1_545 S
C283 C279 1.495 . S
C283 H289 0.959 . S
C283 H290 0.961 . S
C283 H291 0.960 1_565 S
C284 C282 1.381 . S
C284 C285 1.394 . S
C284 H292 0.930 . S
C285 C284 1.394 . S
C285 C286 1.383 . S
C285 H293 0.929 . S
C286 C285 1.383 . S
C286 C287 1.377 1_545 S
C287 H271 0.930 . S
C287 C286 1.377 1_565 S
C287 C288 1.379 . S
C288 H272 0.931 . S
C288 C282 1.383 1_565 S
C288 C287 1.379 . S
H289 C283 0.959 . S
H290 C283 0.961 . S
H291 C283 0.960 1_545 S
H292 C284 0.930 . S
H293 C285 0.929 . S
H294 C302 0.929 . S
H295 C304 0.930 . S
H296 C306 0.930 . S
H297 C309 0.929 . S
H298 C312 0.930 . S
H299 C314 0.960 . S
H300 C314 0.960 . S
H301 C314 0.960 . S
C302 H294 0.929 . S
C302 C303 1.377 . S
C302 C304 1.384 . S
C303 C302 1.377 . S
C303 C309 1.390 1_455 S
C304 H295 0.930 . S
C304 C302 1.384 . S
C304 C305 1.372 . S
C305 C304 1.372 . S
C305 C306 1.400 1_455 S
C305 C310 1.490 1_455 S
C306 H296 0.930 . S
C306 C305 1.400 1_655 S
C306 C309 1.386 . S
H307 C323 0.930 . S
H308 C324 0.931 . S
C309 H297 0.929 . S
C309 C303 1.390 1_655 S
C309 C306 1.386 . S
C310 C305 1.490 1_655 S
C310 C312 1.395 . S
C310 C313 1.403 1_655 S
H311 C317 0.930 . S
C312 H298 0.930 . S
C312 C310 1.395 . S
C312 C315 1.403 . S
C313 C310 1.403 1_455 S
C313 C314 1.524 . S
C313 C317 1.400 . S
C314 H299 0.960 . S
C314 H300 0.960 . S
C314 H301 0.960 . S
C314 C313 1.524 . S
C315 C312 1.403 . S
C315 C316 1.392 . S
C315 C319 1.495 . S
C316 C315 1.392 . S
C316 C317 1.385 1_655 S
C316 C318 1.478 . S
C317 H311 0.930 . S
C317 C313 1.400 . S
C317 C316 1.385 1_455 S
C318 C316 1.478 . S
C318 C320 1.381 1_655 S
C318 C324 1.383 . S
C319 C315 1.495 . S
C319 H325 0.959 . S
C319 H326 0.961 . S
C319 H327 0.960 . S
C320 C318 1.381 1_455 S
C320 C321 1.394 . S
C320 H328 0.930 . S
C321 C320 1.394 . S
C321 C322 1.383 1_455 S
C321 H329 0.929 . S
C322 C321 1.383 1_655 S
C322 C323 1.377 . S
C323 H307 0.930 . S
C323 C322 1.377 . S
C323 C324 1.379 . S
C324 H308 0.931 . S
C324 C318 1.383 . S
C324 C323 1.379 . S
H325 C319 0.959 . S
H326 C319 0.961 . S
H327 C319 0.960 . S
H328 C320 0.930 . S
H329 C321 0.929 . S
H330 C338 0.929 . S
H331 C340 0.930 . S
H332 C342 0.930 . S
H333 C345 0.929 . S
H334 C348 0.930 . S
H335 C350 0.960 . S
H336 C350 0.960 . S
H337 C350 0.960 1_545 S
C338 H330 0.929 . S
C338 C339 1.383 . S
C338 C340 1.384 . S
C339 C338 1.383 . S
C339 C345 1.384 1_565 S
C340 H331 0.930 . S
C340 C338 1.384 . S
C340 C341 1.372 . S
C341 C340 1.372 . S
C341 C342 1.400 1_565 S
C341 C346 1.490 . S
C342 H332 0.930 . S
C342 C341 1.400 1_545 S
C342 C345 1.386 . S
H343 C359 0.930 . S
H344 C360 0.931 . S
C345 H333 0.929 . S
C345 C339 1.384 1_545 S
C345 C342 1.386 . S
C346 C341 1.490 . S
C346 C348 1.395 . S
C346 C349 1.403 . S
H347 C353 0.930 . S
C348 H334 0.930 . S
C348 C346 1.395 . S
C348 C351 1.403 . S
C349 C346 1.403 . S
C349 C350 1.524 . S
C349 C353 1.400 . S
C350 H335 0.960 . S
C350 H336 0.960 . S
C350 H337 0.960 1_565 S
C350 C349 1.524 . S
C351 C348 1.403 . S
C351 C352 1.392 . S
C351 C355 1.495 . S
C352 C351 1.392 . S
C352 C353 1.385 . S
C352 C354 1.478 . S
C353 H347 0.930 . S
C353 C349 1.400 . S
C353 C352 1.385 . S
C354 C352 1.478 . S
C354 C356 1.381 . S
C354 C360 1.383 1_565 S
C355 C351 1.495 . S
C355 H361 0.959 . S
C355 H362 0.961 1_565 S
C355 H363 0.960 . S
C356 C354 1.381 . S
C356 C357 1.394 . S
C356 H364 0.930 . S
C357 C356 1.394 . S
C357 C358 1.383 . S
C357 H365 0.929 . S
C358 C357 1.383 . S
C358 C359 1.377 1_565 S
C359 H343 0.930 . S
C359 C358 1.377 1_545 S
C359 C360 1.379 . S
C360 H344 0.931 . S
C360 C354 1.383 1_545 S
C360 C359 1.379 . S
H361 C355 0.959 . S
H362 C355 0.961 1_545 S
H363 C355 0.960 . S
H364 C356 0.930 . S
H365 C357 0.929 . S
C87 C22 1.463 1_455 S
C106 C48 1.498 . S
C123 C8 1.344 . S
C142 N67 1.349 . S
C159 C31 1.361 . S
C178 N44 1.363 . S
C195 C17 1.447 1_545 S
C214 C71 1.501 . S
C231 C30 1.493 . S
C250 C39 1.552 . S
C267 C27 1.406 1_545 S
C286 N57 1.401 . S
C322 N34 1.409 . S
C303 C23 1.392 1_455 S
C339 C24 1.507 1_565 S
C358 C62 1.550 . S
