# Generated by pormake.
# Topology pyr, (3,6)-cn, num edge types: 1
# Building blocks:
#     Node 0, Type 0, BuildingBlock: WUSLED_clean_sbu_0, # of connection points: 3
#     Node 1, Type 0, BuildingBlock: WUSLED_clean_sbu_0, # of connection points: 3
#     Node 2, Type 0, BuildingBlock: WUSLED_clean_sbu_0, # of connection points: 3
#     Node 3, Type 0, BuildingBlock: WUSLED_clean_sbu_0, # of connection points: 3
#     Node 4, Type 0, BuildingBlock: WUSLED_clean_sbu_0, # of connection points: 3
#     Node 5, Type 0, BuildingBlock: WUSLED_clean_sbu_0, # of connection points: 3
#     Node 6, Type 0, BuildingBlock: WUSLED_clean_sbu_0, # of connection points: 3
#     Node 7, Type 0, BuildingBlock: WUSLED_clean_sbu_0, # of connection points: 3
#     Node 8, Type 1, BuildingBlock: BETFEN_clean_sbu_0, # of connection points: 6
#     Node 9, Type 1, BuildingBlock: BETFEN_clean_sbu_0, # of connection points: 6
#     Node 10, Type 1, BuildingBlock: BETFEN_clean_sbu_0, # of connection points: 6
#     Node 11, Type 1, BuildingBlock: BETFEN_clean_sbu_0, # of connection points: 6
#     Edge 12, Type (0, 1), BuildingBlock: AJUNOK_clean_linker_0, # of connection points: 2
#     Edge 13, Type (0, 1), BuildingBlock: AJUNOK_clean_linker_0, # of connection points: 2
#     Edge 14, Type (0, 1), BuildingBlock: AJUNOK_clean_linker_0, # of connection points: 2
#     Edge 15, Type (0, 1), BuildingBlock: AJUNOK_clean_linker_0, # of connection points: 2
#     Edge 16, Type (0, 1), BuildingBlock: AJUNOK_clean_linker_0, # of connection points: 2
#     Edge 17, Type (0, 1), BuildingBlock: AJUNOK_clean_linker_0, # of connection points: 2
#     Edge 18, Type (0, 1), BuildingBlock: AJUNOK_clean_linker_0, # of connection points: 2
#     Edge 19, Type (0, 1), BuildingBlock: AJUNOK_clean_linker_0, # of connection points: 2
#     Edge 20, Type (0, 1), BuildingBlock: AJUNOK_clean_linker_0, # of connection points: 2
#     Edge 21, Type (0, 1), BuildingBlock: AJUNOK_clean_linker_0, # of connection points: 2
#     Edge 22, Type (0, 1), BuildingBlock: AJUNOK_clean_linker_0, # of connection points: 2
#     Edge 23, Type (0, 1), BuildingBlock: AJUNOK_clean_linker_0, # of connection points: 2
#     Edge 24, Type (0, 1), BuildingBlock: AJUNOK_clean_linker_0, # of connection points: 2
#     Edge 25, Type (0, 1), BuildingBlock: AJUNOK_clean_linker_0, # of connection points: 2
#     Edge 26, Type (0, 1), BuildingBlock: AJUNOK_clean_linker_0, # of connection points: 2
#     Edge 27, Type (0, 1), BuildingBlock: AJUNOK_clean_linker_0, # of connection points: 2
#     Edge 28, Type (0, 1), BuildingBlock: AJUNOK_clean_linker_0, # of connection points: 2
#     Edge 29, Type (0, 1), BuildingBlock: AJUNOK_clean_linker_0, # of connection points: 2
#     Edge 30, Type (0, 1), BuildingBlock: AJUNOK_clean_linker_0, # of connection points: 2
#     Edge 31, Type (0, 1), BuildingBlock: AJUNOK_clean_linker_0, # of connection points: 2
#     Edge 32, Type (0, 1), BuildingBlock: AJUNOK_clean_linker_0, # of connection points: 2
#     Edge 33, Type (0, 1), BuildingBlock: AJUNOK_clean_linker_0, # of connection points: 2
#     Edge 34, Type (0, 1), BuildingBlock: AJUNOK_clean_linker_0, # of connection points: 2
#     Edge 35, Type (0, 1), BuildingBlock: AJUNOK_clean_linker_0, # of connection points: 2
# Relax obj value: 0.149
# Max RMSD: 0.248
# Mean RMSD: 0.115
data_MOF--net-pyr--node1-WUSLED_clean_sbu_0--node2-BETFEN_clean_sbu_0--edge1-AJUNOK_clean_linker_0
_symmetry_space_group_name_H-M    P1
_symmetry_Int_Tables_number       1
_symmetry_cell_setting            triclinic
loop_
_symmetry_equiv_pos_as_xyz
'x, y, z'
_cell_length_a     37.933521
_cell_length_b     42.000167
_cell_length_c     38.914999
_cell_angle_alpha  91.645649
_cell_angle_beta   99.01673
_cell_angle_gamma 110.50536
loop_
_atom_site_label
_atom_site_type_symbol
_atom_site_fract_x
_atom_site_fract_y
_atom_site_fract_z
_atom_type_partial_charge
C0 C 0.35649 0.38536 0.20548 0.0
C1 C 0.33756 0.39826 0.22735 0.0
C2 C 0.2998 0.41036 0.17678 0.0
C3 C 0.30952 0.41075 0.21312 0.0
C4 C 0.31916 0.39795 0.15489 0.0
C5 C 0.34743 0.38553 0.16921 0.0
U6 U 0.37678 0.33651 0.27793 0.0
O7 O 0.38091 0.28583 0.27937 0.0
O8 O 0.42879 0.33063 0.3063 0.0
C9 C 0.41687 0.29814 0.29499 0.0
C10 C 0.38059 0.36681 0.22042 0.0
C11 C 0.44195 0.28838 0.27563 0.0
C12 C 0.46538 0.2887 0.22117 0.0
C13 C 0.45011 0.30342 0.24467 0.0
C14 C 0.46712 0.2454 0.26071 0.0
C15 C 0.47237 0.25874 0.22839 0.0
C16 C 0.45175 0.2601 0.2842 0.0
C17 C 0.31237 0.3212 0.34375 0.0
C18 C 0.31242 0.27541 0.38009 0.0
C19 C 0.25909 0.29537 0.37315 0.0
C20 C 0.2772 0.31968 0.35182 0.0
C21 C 0.27605 0.2724 0.38633 0.0
C22 C 0.33048 0.29966 0.35871 0.0
C23 C 0.32607 0.33989 0.31469 0.0
O24 O 0.40369 0.38103 0.2501 0.0
O25 O 0.36154 0.33405 0.22089 0.0
O26 O 0.31739 0.32004 0.28561 0.0
O27 O 0.36168 0.36146 0.32096 0.0
H28 H 0.34327 0.39731 0.2554 0.0
H29 H 0.29424 0.41929 0.23046 0.0
H30 H 0.31177 0.39717 0.12676 0.0
H31 H 0.36111 0.37486 0.15199 0.0
H32 H 0.46942 0.29941 0.19645 0.0
H33 H 0.44218 0.32508 0.23759 0.0
H34 H 0.47206 0.22209 0.2666 0.0
H35 H 0.44512 0.24804 0.30782 0.0
H36 H 0.32564 0.25759 0.38982 0.0
H37 H 0.23101 0.2933 0.37791 0.0
H38 H 0.2627 0.3358 0.33993 0.0
H39 H 0.35732 0.30013 0.352 0.0
C40 C 0.21939 0.87928 0.64925 0.0
C41 C 0.21004 0.8958 0.67644 0.0
C42 C 0.17309 0.91862 0.63382 0.0
C43 C 0.18702 0.91544 0.66874 0.0
C44 C 0.18354 0.90274 0.60688 0.0
C45 C 0.20631 0.88316 0.61455 0.0
U46 U 0.29168 0.85038 0.70786 0.0
O47 O 0.29423 0.79882 0.7096 0.0
O48 O 0.3422 0.8415 0.69457 0.0
C49 C 0.32779 0.80902 0.69979 0.0
C50 C 0.24313 0.85826 0.65602 0.0
C51 C 0.34782 0.78543 0.69508 0.0
C52 C 0.34682 0.73088 0.67163 0.0
C53 C 0.32741 0.75233 0.67899 0.0
C54 C 0.40705 0.77481 0.69799 0.0
C55 C 0.38679 0.74205 0.68091 0.0
C56 C 0.3877 0.79645 0.70481 0.0
C57 C 0.33311 0.89088 0.80157 0.0
C58 C 0.3978 0.90909 0.83469 0.0
C59 C 0.34423 0.90004 0.86476 0.0
C60 C 0.31907 0.89046 0.83284 0.0
C61 C 0.38394 0.91058 0.8659 0.0
C62 C 0.37257 0.89904 0.8028 0.0
C63 C 0.30672 0.88593 0.76816 0.0
O64 O 0.2802 0.87491 0.66044 0.0
O65 O 0.23311 0.83505 0.67818 0.0
O66 O 0.27907 0.85594 0.76069 0.0
O67 O 0.32259 0.89796 0.74127 0.0
H68 H 0.22034 0.89337 0.70346 0.0
H69 H 0.17962 0.92765 0.68996 0.0
H70 H 0.17417 0.90556 0.57976 0.0
H71 H 0.21373 0.87098 0.59329 0.0
H72 H 0.33072 0.70577 0.65826 0.0
H73 H 0.29662 0.74349 0.67106 0.0
H74 H 0.43796 0.78411 0.70491 0.0
H75 H 0.40392 0.82194 0.71723 0.0
H76 H 0.42823 0.91761 0.8346 0.0
H77 H 0.33275 0.90063 0.88847 0.0
H78 H 0.28874 0.88406 0.83247 0.0
H79 H 0.38417 0.89929 0.77905 0.0
C80 C 0.61293 0.38432 0.75215 0.0
C81 C 0.64608 0.40961 0.74504 0.0
C82 C 0.60715 0.43209 0.70339 0.0
C83 C 0.6432 0.43331 0.72087 0.0
C84 C 0.57422 0.40715 0.71149 0.0
C85 C 0.57713 0.38349 0.73528 0.0
U86 U 0.65753 0.34619 0.83074 0.0
O87 O 0.62602 0.31767 0.8702 0.0
O88 O 0.65114 0.29218 0.8355 0.0
C89 C 0.63007 0.28927 0.85989 0.0
C90 C 0.61406 0.35824 0.77669 0.0
C91 C 0.6229 0.26022 0.8817 0.0
C92 C 0.57678 0.20834 0.89729 0.0
C93 C 0.58566 0.23611 0.87712 0.0
C94 C 0.64249 0.22819 0.92743 0.0
C95 C 0.60486 0.20401 0.92302 0.0
C96 C 0.65147 0.25602 0.90681 0.0
C97 C 0.76144 0.40538 0.87868 0.0
C98 C 0.80477 0.40066 0.9298 0.0
C99 C 0.82251 0.4513 0.89847 0.0
C100 C 0.78805 0.43749 0.87499 0.0
C101 C 0.8313 0.43327 0.92634 0.0
C102 C 0.76995 0.38681 0.90614 0.0
C103 C 0.72523 0.39316 0.85345 0.0
O104 O 0.63788 0.34232 0.77379 0.0
O105 O 0.61263 0.36586 0.80927 0.0
O106 O 0.69412 0.39252 0.86474 0.0
O107 O 0.71946 0.36764 0.83027 0.0
H108 H 0.67407 0.41093 0.75798 0.0
H109 H 0.66916 0.45231 0.71554 0.0
H110 H 0.54595 0.4061 0.69976 0.0
H111 H 0.55116 0.36443 0.7406 0.0
H112 H 0.54768 0.19017 0.89266 0.0
H113 H 0.56318 0.2388 0.85783 0.0
H114 H 0.66477 0.22615 0.94734 0.0
H115 H 0.68043 0.27441 0.91077 0.0
H116 H 0.81101 0.38583 0.95061 0.0
H117 H 0.84205 0.47649 0.89515 0.0
H118 H 0.78196 0.45221 0.85396 0.0
H119 H 0.74979 0.36186 0.90931 0.0
C120 C 0.80279 0.64002 0.39186 0.0
C121 C 0.78447 0.66264 0.39935 0.0
C122 C 0.74522 0.6213 0.43418 0.0
C123 C 0.75601 0.65339 0.42041 0.0
C124 C 0.76424 0.59921 0.427 0.0
C125 C 0.79254 0.60845 0.4062 0.0
U126 U 0.88713 0.68627 0.33958 0.0
O127 O 0.92492 0.66136 0.32222 0.0
O128 O 0.88346 0.6733 0.28304 0.0
C129 C 0.91055 0.66035 0.28902 0.0
C130 C 0.8294 0.64609 0.36643 0.0
C131 C 0.92409 0.64564 0.2604 0.0
C132 C 0.91389 0.62074 0.20028 0.0
C133 C 0.9011 0.63454 0.22714 0.0
C134 C 0.97337 0.62939 0.23901 0.0
C135 C 0.95056 0.61834 0.20549 0.0
C136 C 0.96026 0.64257 0.26602 0.0
C137 C 0.93072 0.78363 0.38325 0.0
C138 C 0.9641 0.84531 0.39143 0.0
C139 C 0.92635 0.81711 0.43384 0.0
C140 C 0.91688 0.78532 0.41449 0.0
C141 C 0.94973 0.84766 0.42224 0.0
C142 C 0.95447 0.81391 0.37217 0.0
C143 C 0.92302 0.75137 0.36164 0.0
O144 O 0.8252 0.66444 0.34033 0.0
O145 O 0.86525 0.64998 0.37807 0.0
O146 O 0.93229 0.72675 0.37593 0.0
O147 O 0.89314 0.7404 0.33628 0.0
H148 H 0.79143 0.68699 0.3883 0.0
H149 H 0.74159 0.67086 0.42489 0.0
H150 H 0.75696 0.57445 0.43724 0.0
H151 H 0.80581 0.59034 0.40049 0.0
H152 H 0.89458 0.61143 0.17559 0.0
H153 H 0.87288 0.6361 0.22195 0.0
H154 H 1.00178 0.62828 0.24439 0.0
H155 H 0.97879 0.65084 0.29127 0.0
H156 H 0.98328 0.86785 0.38221 0.0
H157 H 0.91502 0.81786 0.45759 0.0
H158 H 0.89885 0.76226 0.42384 0.0
H159 H 0.96606 0.81327 0.34852 0.0
C160 C 0.73089 0.6824 0.87443 0.0
C161 C 0.7472 0.66636 0.85274 0.0
C162 C 0.79057 0.66085 0.90308 0.0
C163 C 0.77666 0.65553 0.86698 0.0
C164 C 0.77331 0.67579 0.92492 0.0
C165 C 0.74361 0.6865 0.91064 0.0
U166 U 0.71013 0.73001 0.80078 0.0
O167 O 0.65818 0.73665 0.7731 0.0
O168 O 0.70758 0.7811 0.79843 0.0
C169 C 0.67163 0.76957 0.78279 0.0
C170 C 0.70663 0.70061 0.85883 0.0
C171 C 0.64756 0.78227 0.8006 0.0
C172 C 0.63139 0.79501 0.85579 0.0
C173 C 0.64485 0.77559 0.83538 0.0
C174 C 0.61953 0.82531 0.80567 0.0
C175 C 0.62056 0.82116 0.84146 0.0
C176 C 0.63334 0.80609 0.78535 0.0
C177 C 0.77296 0.74655 0.73482 0.0
C178 C 0.7749 0.79674 0.70499 0.0
C179 C 0.82392 0.77234 0.70268 0.0
C180 C 0.80598 0.74671 0.72294 0.0
C181 C 0.80912 0.79806 0.69478 0.0
C182 C 0.75671 0.77091 0.72471 0.0
C183 C 0.7602 0.72644 0.76338 0.0
O184 O 0.72559 0.73331 0.85784 0.0
O185 O 0.68337 0.68596 0.82931 0.0
O186 O 0.72454 0.70496 0.75729 0.0
O187 O 0.7695 0.74533 0.79317 0.0
H188 H 0.73855 0.66375 0.8246 0.0
H189 H 0.78955 0.6441 0.84962 0.0
H190 H 0.7841 0.68086 0.95275 0.0
H191 H 0.73206 0.69967 0.92762 0.0
H192 H 0.63252 0.79152 0.88337 0.0
H193 H 0.65603 0.75733 0.84747 0.0
H194 H 0.61074 0.84512 0.79414 0.0
H195 H 0.63544 0.81151 0.75853 0.0
H196 H 0.76342 0.81666 0.69924 0.0
H197 H 0.85067 0.77345 0.69527 0.0
H198 H 0.81916 0.72846 0.73118 0.0
H199 H 0.73154 0.77141 0.73423 0.0
C200 C 0.73498 0.20951 0.28256 0.0
C201 C 0.73125 0.17501 0.28068 0.0
C202 C 0.70051 0.16797 0.22007 0.0
C203 C 0.7138 0.15428 0.24963 0.0
C204 C 0.70609 0.20284 0.22147 0.0
C205 C 0.72317 0.2235 0.25265 0.0
U206 U 0.79696 0.23502 0.37324 0.0
O207 O 0.82344 0.28612 0.40178 0.0
O208 O 0.78027 0.24529 0.42274 0.0
C209 C 0.79951 0.27825 0.42397 0.0
C210 C 0.74836 0.23053 0.31596 0.0
C211 C 0.77586 0.29945 0.42452 0.0
C212 C 0.72185 0.31402 0.39736 0.0
C213 C 0.74614 0.29566 0.39631 0.0
C214 C 0.75741 0.34099 0.45438 0.0
C215 C 0.72693 0.33652 0.42664 0.0
C216 C 0.78164 0.3225 0.45337 0.0
C217 C 0.86566 0.18449 0.39819 0.0
C218 C 0.88938 0.16576 0.45268 0.0
C219 C 0.91409 0.15868 0.4004 0.0
C220 C 0.89063 0.17395 0.38183 0.0
C221 C 0.91302 0.15355 0.43578 0.0
C222 C 0.86573 0.181 0.43398 0.0
C223 C 0.83725 0.19518 0.3761 0.0
O224 O 0.73864 0.21429 0.34335 0.0
O225 O 0.78392 0.25201 0.32128 0.0
O226 O 0.84919 0.22597 0.36541 0.0
O227 O 0.80292 0.18603 0.38427 0.0
H228 H 0.74051 0.16384 0.3035 0.0
H229 H 0.70967 0.12739 0.24891 0.0
H230 H 0.69557 0.2137 0.19898 0.0
H231 H 0.7259 0.25008 0.25375 0.0
H232 H 0.699 0.31049 0.37541 0.0
H233 H 0.74137 0.27808 0.37369 0.0
H234 H 0.76184 0.35811 0.47732 0.0
H235 H 0.8044 0.32575 0.47531 0.0
H236 H 0.88861 0.1629 0.48015 0.0
H237 H 0.93188 0.14953 0.38662 0.0
H238 H 0.89086 0.17626 0.35419 0.0
H239 H 0.84676 0.18906 0.44719 0.0
C240 C 0.33598 0.67063 0.20962 0.0
C241 C 0.32219 0.69247 0.18953 0.0
C242 C 0.26584 0.6437 0.16219 0.0
C243 C 0.28737 0.67901 0.16577 0.0
C244 C 0.28042 0.62213 0.18185 0.0
C245 C 0.315 0.63547 0.20527 0.0
U246 U 0.43675 0.73097 0.26301 0.0
O247 O 0.45358 0.73303 0.32024 0.0
O248 O 0.48293 0.71328 0.28554 0.0
C249 C 0.47946 0.71927 0.3179 0.0
C250 C 0.37091 0.68287 0.2366 0.0
C251 C 0.4827 0.69344 0.3422 0.0
C252 C 0.45712 0.64894 0.38029 0.0
C253 C 0.45178 0.67223 0.35651 0.0
C254 C 0.52416 0.66809 0.37594 0.0
C255 C 0.49336 0.64635 0.38994 0.0
C256 C 0.51885 0.6912 0.35237 0.0
C257 C 0.46917 0.81806 0.21418 0.0
C258 C 0.50903 0.87544 0.20455 0.0
C259 C 0.45539 0.84246 0.15987 0.0
C260 C 0.44651 0.81522 0.18121 0.0
C261 C 0.48719 0.87272 0.17116 0.0
C262 C 0.5001 0.84849 0.22573 0.0
C263 C 0.46387 0.78952 0.23652 0.0
O264 O 0.40336 0.68499 0.22709 0.0
O265 O 0.37444 0.70731 0.26026 0.0
O266 O 0.44154 0.78496 0.26001 0.0
O267 O 0.46915 0.76188 0.22568 0.0
H268 H 0.33797 0.71973 0.1925 0.0
H269 H 0.27684 0.69619 0.15079 0.0
H270 H 0.26501 0.5948 0.17913 0.0
H271 H 0.32518 0.61818 0.22046 0.0
H272 H 0.43284 0.63253 0.39063 0.0
H273 H 0.42361 0.67359 0.34931 0.0
H274 H 0.55256 0.66729 0.38332 0.0
H275 H 0.54325 0.70758 0.34212 0.0
H276 H 0.53352 0.89837 0.21417 0.0
H277 H 0.43828 0.83938 0.13411 0.0
H278 H 0.42264 0.79182 0.17173 0.0
H279 H 0.51812 0.85113 0.25098 0.0
C280 C 0.16635 0.3001 0.70213 0.0
C281 C 0.17527 0.29912 0.66843 0.0
C282 C 0.14102 0.23714 0.66007 0.0
C283 C 0.16287 0.26776 0.64761 0.0
C284 C 0.13318 0.23842 0.69407 0.0
C285 C 0.14578 0.26938 0.71478 0.0
U286 U 0.21297 0.3964 0.74821 0.0
O287 O 0.17788 0.42438 0.76552 0.0
O288 O 0.21431 0.40682 0.80478 0.0
C289 C 0.18969 0.42246 0.79873 0.0
C290 C 0.17471 0.3321 0.72439 0.0
C291 C 0.17645 0.43718 0.82745 0.0
C292 C 0.1482 0.431 0.8805 0.0
C293 C 0.16245 0.41762 0.85442 0.0
C294 C 0.16386 0.48453 0.85439 0.0
C295 C 0.14817 0.46465 0.88082 0.0
C296 C 0.17703 0.47079 0.82781 0.0
C297 C 0.29878 0.44011 0.69666 0.0
C298 C 0.33371 0.47855 0.6575 0.0
C299 C 0.34943 0.42899 0.67211 0.0
C300 C 0.32081 0.41968 0.69305 0.0
C301 C 0.35693 0.45914 0.6549 0.0
C302 C 0.30524 0.46924 0.67813 0.0
C303 C 0.27256 0.43506 0.7225 0.0
O304 O 0.20393 0.34159 0.75038 0.0
O305 O 0.16722 0.35775 0.71056 0.0
O306 O 0.23732 0.43315 0.71109 0.0
O307 O 0.27527 0.41589 0.74822 0.0
H308 H 0.19092 0.3225 0.65797 0.0
H309 H 0.16901 0.26763 0.62136 0.0
H310 H 0.11647 0.21539 0.70446 0.0
H311 H 0.13834 0.26943 0.74056 0.0
H312 H 0.13649 0.41462 0.90005 0.0
H313 H 0.16163 0.3916 0.85487 0.0
H314 H 0.1664 0.51098 0.85422 0.0
H315 H 0.18814 0.48669 0.80768 0.0
H316 H 0.33816 0.50154 0.64414 0.0
H317 H 0.36674 0.41343 0.67056 0.0
H318 H 0.31676 0.39718 0.70716 0.0
H319 H 0.28906 0.48568 0.6806 0.0
Pr320 Pr 1.01921 1.03381 0.56529 0.0
Pr321 Pr 0.06687 0.04642 0.52255 0.0
C322 C 0.96523 1.01279 0.60497 0.0
C323 C 0.94458 0.98161 0.61908 0.0
C324 C 0.91315 0.98019 0.63424 0.0
C325 C 0.89136 0.94979 0.64582 0.0
C326 C 0.90095 0.92061 0.6423 0.0
C327 C 0.93286 0.92228 0.62738 0.0
C328 C 0.95455 0.95271 0.6156 0.0
C329 C 0.06427 0.10374 0.57943 0.0
C330 C 0.08547 1.00173 0.58492 0.0
C331 C 0.1257 0.06332 0.4877 0.0
C332 C 0.15109 0.09408 0.47611 0.0
C333 C 0.16599 0.09155 0.44595 0.0
C334 C 0.18752 0.121 0.43259 0.0
C335 C 0.19426 0.15307 0.44944 0.0
C336 C 0.18025 0.15558 0.48024 0.0
C337 C 0.15836 0.1261 0.4934 0.0
C338 C 1.0061 0.98492 0.49597 0.0
C339 C 0.99992 0.07397 0.50155 0.0
O340 O 0.95752 1.0121 0.57101 0.0
O341 O 1.00161 1.027 0.61809 0.0
O342 O 0.07775 0.08062 0.57442 0.0
O343 O 1.02752 0.09104 0.5749 0.0
O344 O 0.09473 1.01333 0.55556 0.0
O345 O 0.05666 1.0062 0.59632 0.0
O346 O 0.12976 0.06125 0.52134 0.0
O347 O 0.09011 0.05345 0.47226 0.0
O348 O 1.02309 0.99188 0.52745 0.0
O349 O 1.01784 1.01129 0.47863 0.0
O350 O 0.98361 0.04625 0.51636 0.0
O351 O 1.03731 0.08528 0.50507 0.0
H352 H 0.90516 1.00243 0.63663 0.0
H353 H 0.86673 0.94892 0.65712 0.0
H354 H 0.94108 0.90018 0.62501 0.0
H355 H 0.97878 0.95368 0.60357 0.0
H356 H 0.16018 0.06689 0.43232 0.0
H357 H 0.19836 0.11884 0.40881 0.0
H358 H 0.18511 0.18027 0.4933 0.0
H359 H 0.14637 0.12828 0.51645 0.0
Pr360 Pr 0.51649 0.04257 0.0521 0.0
Pr361 Pr 0.57673 1.02705 1.03512 0.0
C362 C 0.46618 0.0598 0.08222 0.0
C363 C 0.4684 0.092 0.09977 0.0
C364 C 0.47179 0.121 0.08137 0.0
C365 C 0.47691 0.15203 0.09915 0.0
C366 C 0.47898 0.15442 0.13545 0.0
C367 C 0.4757 0.12554 0.15376 0.0
C368 C 0.47024 0.09453 0.13603 0.0
C369 C 0.55085 0.08631 1.00358 0.0
C370 C 0.60121 0.08107 0.09998 0.0
C371 C 0.62794 1.01006 1.00639 0.0
C372 C 0.6237 0.98058 0.98294 0.0
C373 C 0.64091 0.95726 0.99454 0.0
C374 C 0.63606 0.92862 0.97269 0.0
C375 C 0.61417 0.92331 0.93913 0.0
C376 C 0.59636 0.94609 0.92772 0.0
C377 C 0.60079 0.97444 0.94958 0.0
C378 C 0.54314 0.98515 0.08493 0.0
C379 C 0.49158 0.98725 0.98786 0.0
O380 O 0.48837 0.04515 0.09849 0.0
O381 O 0.46541 0.05885 0.04854 0.0
O382 O 0.56903 0.07876 1.03014 0.0
O383 O 0.51441 0.07072 1.00126 0.0
O384 O 0.61411 0.07451 0.07244 0.0
O385 O 0.5646 0.06713 0.10111 0.0
O386 O 0.61258 1.03148 0.99333 0.0
O387 O 0.62217 1.00349 1.03803 0.0
O388 O 0.5247 0.9913 0.05761 0.0
O389 O 0.57951 1.00188 0.08778 0.0
O390 O 0.47875 0.99535 1.0148 0.0
O391 O 0.52833 0.99995 0.98674 0.0
H392 H 0.47092 0.11992 0.05339 0.0
H393 H 0.4794 0.17414 0.08467 0.0
H394 H 0.47673 0.12686 0.18177 0.0
H395 H 0.46794 0.07258 0.15073 0.0
H396 H 0.65829 0.96136 1.02032 0.0
H397 H 0.65045 0.91133 0.98142 0.0
H398 H 0.57985 0.94235 0.90158 0.0
H399 H 0.58657 0.99161 0.94012 0.0
Pr400 Pr 0.5625 0.57863 0.56728 0.0
Pr401 Pr 0.54191 0.50096 0.52416 0.0
C402 C 0.55417 0.63747 0.58408 0.0
C403 C 0.52816 0.64763 0.60238 0.0
C404 C 0.54307 0.67603 0.62712 0.0
C405 C 0.51854 0.68755 0.64279 0.0
C406 C 0.47871 0.67079 0.63391 0.0
C407 C 0.46384 0.64164 0.61 0.0
C408 C 0.48837 0.62999 0.5945 0.0
C409 C 0.5852 0.53287 0.60909 0.0
C410 C 0.48334 0.51056 0.57635 0.0
C411 C 0.55549 0.44386 0.51021 0.0
C412 C 0.58006 0.43209 0.49102 0.0
C413 C 0.56659 0.41526 0.4572 0.0
C414 C 0.58971 0.40219 0.44085 0.0
C415 C 0.62647 0.40556 0.45821 0.0
C416 C 0.64012 0.42322 0.49154 0.0
C417 C 0.61726 0.43621 0.50774 0.0
C418 C 0.51789 0.54564 0.48244 0.0
C419 C 0.62028 0.57024 0.51423 0.0
O420 O 0.53884 0.61962 0.5538 0.0
O421 O 0.57913 0.62711 0.60311 0.0
O422 O 0.56904 0.52856 0.5776 0.0
O423 O 0.59293 0.56456 0.62038 0.0
O424 O 0.49222 0.48857 0.55723 0.0
O425 O 0.50277 0.54405 0.57984 0.0
O426 O 0.57385 0.46615 0.53705 0.0
O427 O 0.526 0.44962 0.49272 0.0
O428 O 0.53353 0.55048 0.51414 0.0
O429 O 0.51262 0.51453 0.47076 0.0
O430 O 0.61196 0.59145 0.53471 0.0
O431 O 0.60009 0.53687 0.50888 0.0
H432 H 0.57364 0.68984 0.63362 0.0
H433 H 0.53066 0.71039 0.66078 0.0
H434 H 0.43322 0.62824 0.60289 0.0
H435 H 0.47612 0.60766 0.57581 0.0
H436 H 0.53806 0.41166 0.44369 0.0
H437 H 0.57867 0.38905 0.41491 0.0
H438 H 0.66807 0.42587 0.5058 0.0
H439 H 0.62861 0.44875 0.53392 0.0
Pr440 Pr 0.0484 0.56839 1.02342 0.0
Pr441 Pr 0.04858 0.51297 0.06335 0.0
C442 C 1.03259 0.61724 0.98807 0.0
C443 C 0.99719 0.62356 0.97701 0.0
C444 C 0.99854 0.65666 0.9713 0.0
C445 C 0.9647 0.66274 0.96102 0.0
C446 C 0.92915 0.63575 0.95639 0.0
C447 C 0.92797 0.60261 0.96237 0.0
C448 C 0.96176 0.5966 0.97288 0.0
C449 C 0.12033 0.58254 0.06579 0.0
C450 C 1.01209 0.56331 0.09624 0.0
C451 C 0.06382 0.46408 0.0991 0.0
C452 C 0.09833 0.45594 0.10748 0.0
C453 C 0.09665 0.42531 0.1216 0.0
C454 C 0.13006 0.41825 0.13068 0.0
C455 C 0.16538 0.44191 0.12586 0.0
C456 C 0.16674 0.47222 0.11089 0.0
C457 C 0.13338 0.47919 0.10171 0.0
C458 C 0.97626 0.49919 1.02239 0.0
C459 C 0.08342 0.51772 0.98928 0.0
O460 O 1.03457 0.58999 0.97283 0.0
O461 O 1.04498 0.62108 1.0217 0.0
O462 O 0.08851 0.56897 0.07522 0.0
O463 O 0.11571 0.58958 1.0336 0.0
O464 O 1.03178 0.54362 0.10527 0.0
O465 O 1.00821 0.57127 0.06362 0.0
O466 O 0.0659 0.49308 0.11396 0.0
O467 O 0.04811 0.45908 0.06613 0.0
O468 O 1.00769 0.5123 1.01195 0.0
O469 O 0.98173 0.49287 0.05475 0.0
O470 O 0.06392 0.53767 0.9811 0.0
O471 O 0.08754 0.50915 1.02174 0.0
H472 H 1.02571 0.67773 0.97475 0.0
H473 H 0.96628 0.68854 0.95671 0.0
H474 H 0.90103 0.58125 0.95831 0.0
H475 H 0.96026 0.57086 0.97751 0.0
H476 H 0.06967 0.40714 0.126 0.0
H477 H 0.12849 0.39474 0.14224 0.0
H478 H 0.19362 0.49055 0.10647 0.0
H479 H 0.13494 0.50288 0.09052 0.0
C480 C 0.26854 0.23686 0.43661 0.0
C481 C 0.25406 0.24286 0.40295 0.0
C482 C 0.24858 0.20785 0.45197 0.0
C483 C 0.21416 0.18395 0.4337 0.0
H484 H 0.29541 0.25465 0.45098 0.0
H485 H 0.26042 0.2037 0.47792 0.0
S486 S 0.16477 0.18778 0.34484 0.0
N487 N 0.20366 0.22259 0.35173 0.0
N488 N 0.16611 0.16794 0.38078 0.0
C489 C 0.19939 0.18967 0.40013 0.0
C490 C 0.21942 0.21924 0.38466 0.0
C491 C 0.40351 0.95234 0.91833 0.0
C492 C 0.41072 0.92737 0.89867 0.0
C493 C 0.4296 0.97102 0.94766 0.0
C494 C 0.46416 0.96585 0.95802 0.0
H495 H 0.37803 0.95833 0.91041 0.0
H496 H 0.42321 0.99044 0.96164 0.0
S497 S 0.49511 0.90124 0.91825 0.0
N498 N 0.45354 0.8964 0.89374 0.0
N499 N 0.50338 0.93268 0.94845 0.0
C500 C 0.47155 0.94056 0.93933 0.0
C501 C 0.44462 0.92103 0.90972 0.0
C502 C 0.62493 0.4922 0.68495 0.0
C503 C 0.60345 0.45704 0.67745 0.0
C504 C 0.61931 0.5163 0.66234 0.0
C505 C 0.5921 0.50636 0.63118 0.0
H506 H 0.64546 0.50133 0.70903 0.0
H507 H 0.63612 0.54306 0.66962 0.0
S508 S 0.52844 0.41748 0.59926 0.0
N509 N 0.55501 0.41349 0.63553 0.0
N510 N 0.54245 0.45882 0.59497 0.0
C511 C 0.57058 0.47132 0.62334 0.0
C512 C 0.57677 0.44672 0.64594 0.0
C513 C 0.98716 0.58339 0.18437 0.0
C514 C 0.965 0.60405 0.17665 0.0
C515 C 1.0017 0.57021 0.15836 0.0
C516 C 0.99484 0.57681 0.12306 0.0
H517 H 0.99323 0.57701 0.21085 0.0
H518 H 1.01874 0.5548 0.16621 0.0
S519 S 0.93886 0.62958 0.0882 0.0
N520 N 0.93767 0.6309 0.13043 0.0
N521 N 0.96385 0.60542 0.08179 0.0
C522 C 0.97246 0.59716 0.11476 0.0
C523 C 0.95783 0.61083 0.14134 0.0
C524 C 0.50854 0.22516 0.20739 0.0
C525 C 0.47896 0.23815 0.2006 0.0
C526 C 0.51005 0.19953 0.18462 0.0
C527 C 0.48199 0.18619 0.15451 0.0
H528 H 0.52942 0.23362 0.23133 0.0
H529 H 0.53213 0.18884 0.19149 0.0
S530 S 0.39967 0.21257 0.12431 0.0
N531 N 0.42197 0.23691 0.16096 0.0
N532 N 0.42501 0.18867 0.11809 0.0
C533 C 0.45364 0.20036 0.14632 0.0
C534 C 0.45206 0.22642 0.16946 0.0
C535 C 0.15854 0.97242 0.63911 0.0
C536 C 0.14774 0.93841 0.62493 0.0
C537 C 0.13712 0.99268 0.62742 0.0
C538 C 0.1041 0.97933 0.60159 0.0
H539 H 0.1846 0.98388 0.65812 0.0
H540 H 0.14721 1.01921 0.63761 0.0
S541 S 0.0621 0.89143 0.55816 0.0
N542 N 0.10032 0.89187 0.58543 0.0
N543 N 0.06085 0.93016 0.56327 0.0
C544 C 0.09232 0.9452 0.58827 0.0
C545 C 0.11389 0.92462 0.60006 0.0
C546 C 0.90235 0.46548 0.93911 0.0
C547 C 0.86803 0.44914 0.95153 0.0
C548 C 0.93703 0.48213 0.96212 0.0
C549 C 0.93889 0.48304 0.99854 0.0
H550 H 0.90247 0.46525 0.91129 0.0
H551 H 0.96262 0.49406 0.95123 0.0
S552 S 0.85702 0.44615 0.04458 0.0
N553 N 0.83797 0.43643 1.00274 0.0
N554 N 0.9031 0.46726 0.04598 0.0
C555 C 0.90479 0.46716 1.01135 0.0
C556 C 0.86944 0.45025 0.98789 0.0
C557 C 0.68559 0.57655 0.44725 0.0
C558 C 0.71329 0.60974 0.45473 0.0
C559 C 0.65614 0.56418 0.46672 0.0
C560 C 0.65273 0.58438 0.4947 0.0
H561 H 0.6865 0.55989 0.42591 0.0
H562 H 0.63565 0.53852 0.45941 0.0
S563 S 0.71833 0.67309 0.5256 0.0
N564 N 0.73574 0.6625 0.49255 0.0
N565 N 0.68023 0.6396 0.52889 0.0
C566 C 0.6801 0.6178 0.50236 0.0
C567 C 0.71028 0.63037 0.48247 0.0
C568 C 0.23675 0.39719 0.13796 0.0
C569 C 0.26734 0.42029 0.16191 0.0
C570 C 0.20392 0.40453 0.12605 0.0
C571 C 0.20088 0.43535 0.13744 0.0
H572 H 0.23772 0.37283 0.12922 0.0
H573 H 0.18065 0.38591 0.10801 0.0
S574 S 0.27342 0.50464 0.19928 0.0
N575 N 0.29299 0.47545 0.19596 0.0
N576 N 0.2311 0.48925 0.17359 0.0
C577 C 0.23154 0.45895 0.16081 0.0
C578 C 0.26483 0.45139 0.17311 0.0
C579 C 0.55855 0.16625 0.95757 0.0
C580 C 0.59367 0.17495 0.94556 0.0
C581 C 0.5453 0.13775 0.97636 0.0
C582 C 0.5669 0.11699 0.98484 0.0
H583 H 0.54083 0.18153 0.95221 0.0
H584 H 0.51786 0.13204 0.98448 0.0
S585 S 0.66078 0.12804 0.96037 0.0
N586 N 0.64966 0.15969 0.94351 0.0
N587 N 0.62541 0.10709 0.98051 0.0
C588 C 0.60257 0.12573 0.97415 0.0
C589 C 0.61582 0.15447 0.9542 0.0
C590 C 0.97221 0.88748 0.47824 0.0
C591 C 0.95966 0.88206 0.44171 0.0
C592 C 0.98539 0.92048 0.49602 0.0
C593 C 0.98705 0.9495 0.47802 0.0
H594 H 0.9731 0.86626 0.49308 0.0
H595 H 0.99521 0.92335 0.52394 0.0
S596 S 0.95194 0.94863 0.38322 0.0
N597 N 0.94524 0.90831 0.38907 0.0
N598 N 0.97099 0.96983 0.422 0.0
C599 C 0.97262 0.9441 0.44186 0.0
C600 C 0.95883 0.91063 0.42388 0.0
C601 C 0.40261 0.70957 0.63485 0.0
C602 C 0.40773 0.72074 0.6703 0.0
C603 C 0.42481 0.69229 0.62349 0.0
C604 C 0.4528 0.68555 0.64722 0.0
H605 H 0.38232 0.71538 0.61561 0.0
H606 H 0.42106 0.68534 0.59576 0.0
S607 S 0.47391 0.70579 0.74325 0.0
N608 N 0.44043 0.72147 0.72938 0.0
N609 N 0.48205 0.6886 0.70801 0.0
C610 C 0.45701 0.69527 0.6829 0.0
C611 C 0.4345 0.71298 0.69445 0.0
C612 C 0.84634 0.8599 0.70109 0.0
C613 C 0.83199 0.82869 0.68033 0.0
C614 C 0.86905 0.88951 0.6886 0.0
C615 C 0.8778 0.88876 0.65491 0.0
H616 H 0.8403 0.8613 0.72729 0.0
H617 H 0.88004 0.9131 0.70549 0.0
S618 S 0.84522 0.81341 0.59 0.0
N619 N 0.82706 0.79847 0.6247 0.0
N620 N 0.86927 0.8546 0.60053 0.0
C621 C 0.86334 0.85769 0.63381 0.0
C622 C 0.84047 0.82746 0.64672 0.0
C623 C 0.64342 0.11854 0.19276 0.0
C624 C 0.6771 0.14523 0.1891 0.0
C625 C 0.61892 0.09797 0.16361 0.0
C626 C 0.62766 0.10313 0.12999 0.0
H627 H 0.63553 0.11406 0.21826 0.0
H628 H 0.59306 0.0778 0.16749 0.0
S629 S 0.71298 0.16924 0.10682 0.0
N630 N 0.71834 0.1757 0.14971 0.0
N631 N 0.67251 0.1365 0.09461 0.0
C632 C 0.66164 0.12935 0.12603 0.0
C633 C 0.68631 0.15063 0.15572 0.0
C634 C 0.48788 0.61801 0.44656 0.0
C635 C 0.4993 0.6205 0.41361 0.0
C636 C 0.49471 0.5944 0.46939 0.0
C637 C 0.51249 0.57203 0.45972 0.0
H638 H 0.474 0.63471 0.45491 0.0
H639 H 0.48523 0.59311 0.49433 0.0
S640 S 0.54787 0.56813 0.3767 0.0
N641 N 0.5294 0.59835 0.37289 0.0
N642 N 0.54175 0.55418 0.41536 0.0
C643 C 0.52385 0.57422 0.42694 0.0
C644 C 0.51742 0.59839 0.40403 0.0
C645 C 0.13604 0.47008 0.94321 0.0
C646 C 0.13169 0.47869 0.9083 0.0
C647 C 0.12076 0.48278 0.96913 0.0
C648 C 0.10037 0.50488 0.9616 0.0
H649 H 0.15179 0.45358 0.95086 0.0
H650 H 0.12499 0.4751 0.99533 0.0
S651 S 0.07916 0.53453 0.87418 0.0
N652 N 0.10342 0.50978 0.86769 0.0
N653 N 0.07645 0.53448 0.91606 0.0
C654 C 0.09579 0.5137 0.92682 0.0
C655 C 0.11095 0.5005 0.90041 0.0
C656 C 0.5927 0.83822 0.88978 0.0
C657 C 0.61691 0.84743 0.86492 0.0
C658 C 0.59161 0.86296 0.91406 0.0
C659 C 0.61481 0.89728 0.91397 0.0
H660 H 0.57481 0.8118 0.89053 0.0
H661 H 0.57274 0.85533 0.93297 0.0
S662 S 0.68507 0.93408 0.85654 0.0
N663 N 0.66614 0.89297 0.8433 0.0
N664 N 0.66337 0.93935 0.88867 0.0
C665 C 0.63922 0.90676 0.88963 0.0
C666 C 0.64046 0.8818 0.86508 0.0
C667 C 0.97353 0.14108 0.45091 0.0
C668 C 0.93506 0.13384 0.45405 0.0
C669 C 0.99419 0.12153 0.46614 0.0
C670 C 0.97711 0.09368 0.48482 0.0
H671 H 0.98785 0.16212 0.43659 0.0
H672 H 1.02375 0.12825 0.46309 0.0
S673 S 0.87685 0.06387 0.5004 0.0
N674 N 0.88057 0.09667 0.477 0.0
N675 N 0.91921 0.06013 0.50583 0.0
C676 C 0.93861 0.08622 0.48822 0.0
C677 C 0.91769 0.10626 0.47286 0.0
C678 C 0.22463 0.63551 0.10287 0.0
C679 C 0.22817 0.62892 0.13824 0.0
C680 C 0.18985 0.62001 0.0795 0.0
C681 C 0.15717 0.59763 0.09069 0.0
H682 H 0.24912 0.65225 0.09303 0.0
H683 H 0.18857 0.62576 0.05247 0.0
S684 S 0.15104 0.57306 0.18105 0.0
N685 N 0.19568 0.59929 0.18355 0.0
N686 N 0.13061 0.57017 0.1398 0.0
C687 C 0.16028 0.59112 0.12609 0.0
C688 C 0.19566 0.60678 0.1498 0.0
C689 C 0.39542 0.45071 0.60985 0.0
C690 C 0.38997 0.47178 0.6358 0.0
C691 C 0.42538 0.46326 0.59061 0.0
C692 C 0.45119 0.49742 0.59654 0.0
H693 H 0.37595 0.4245 0.60391 0.0
H694 H 0.42808 0.44608 0.57076 0.0
S695 S 0.45191 0.5618 0.66481 0.0
N696 N 0.41488 0.52754 0.66843 0.0
N697 N 0.47052 0.55116 0.63275 0.0
C698 C 0.44657 0.51834 0.62331 0.0
C699 C 0.41623 0.50554 0.64276 0.0
C700 C 0.85779 0.66625 0.90153 0.0
C701 C 0.82523 0.65368 0.91727 0.0
C702 C 0.89133 0.66056 0.91459 0.0
C703 C 0.89351 0.64201 0.94383 0.0
H704 H 0.85749 0.68094 0.87911 0.0
H705 H 0.91561 0.67042 0.90145 0.0
S706 S 0.81634 0.60396 0.99468 0.0
N707 N 0.79708 0.6218 0.96347 0.0
N708 N 0.8606 0.61163 0.98861 0.0
C709 C 0.86124 0.6294 0.95993 0.0
C710 C 0.82702 0.6352 0.94657 0.0
C711 C 0.5386 0.91474 0.14492 0.0
C712 C 0.49973 0.90076 0.14791 0.0
C713 C 0.55212 0.94201 0.12468 0.0
C714 C 0.52734 0.95636 0.10611 0.0
H715 H 0.5589 0.90443 0.15833 0.0
H716 H 0.58232 0.9517 0.12335 0.0
S717 S 0.42327 0.93038 0.10604 0.0
N718 N 0.43675 0.90427 0.13136 0.0
N719 N 0.46213 0.95515 0.09253 0.0
C720 C 0.48835 0.94265 0.10858 0.0
C721 C 0.47455 0.91493 0.12958 0.0
C722 C 0.0833 0.18688 0.63343 0.0
C723 C 0.12302 0.20418 0.63734 0.0
C724 C 0.06509 0.15493 0.61431 0.0
C725 C 0.08571 0.13825 0.59853 0.0
H726 H 0.06599 0.19816 0.64544 0.0
H727 H 1.03442 0.14298 0.61248 0.0
S728 S 0.19039 0.17275 0.60024 0.0
N729 N 0.18254 0.20267 0.62302 0.0
N730 N 0.14831 0.14194 0.58769 0.0
C731 C 0.12549 0.15528 0.60193 0.0
C732 C 0.14409 0.18837 0.62105 0.0
C733 C 0.7141 0.38976 0.43912 0.0
C734 C 0.69991 0.35452 0.42913 0.0
C735 C 0.68966 0.40661 0.44607 0.0
C736 C 0.65012 0.3888 0.44358 0.0
H737 H 0.7445 0.40425 0.44253 0.0
H738 H 0.70204 0.43358 0.4548 0.0
S739 S 0.59843 0.29648 0.4169 0.0
N740 N 0.64358 0.30261 0.41541 0.0
N741 N 0.59769 0.3342 0.42903 0.0
C742 C 0.63529 0.35387 0.43196 0.0
C743 C 0.66018 0.33673 0.42466 0.0
loop_
_geom_bond_atom_site_label_1
_geom_bond_atom_site_label_2
_geom_bond_distance
_geom_bond_site_symmetry_2
_ccdc_geom_bond_type
C0 C1 1.264 . S
C0 C5 1.479 . S
C0 C10 1.465 . S
C1 C0 1.264 . S
C1 C3 1.339 . S
C1 H28 0.931 . S
C2 C3 1.395 . S
C2 C4 1.320 . S
C3 C1 1.339 . S
C3 C2 1.395 . S
C3 H29 0.929 . S
C4 C2 1.320 . S
C4 C5 1.405 . S
C4 H30 0.930 . S
C5 C0 1.479 . S
C5 C4 1.405 . S
C5 H31 0.931 . S
U6 O7 2.454 . S
U6 O8 2.458 . S
U6 C9 2.984 . S
U6 C10 2.847 . S
U6 C23 2.882 . S
U6 O24 2.441 . S
U6 O25 2.420 . S
U6 O26 2.455 . S
U6 O27 2.449 . S
O7 U6 2.454 . S
O7 C9 1.353 . S
O8 U6 2.458 . S
O8 C9 1.286 . S
C9 U6 2.984 . S
C9 O7 1.353 . S
C9 O8 1.286 . S
C9 C11 1.363 . S
C10 C0 1.465 . S
C10 U6 2.847 . S
C10 O24 1.249 . S
C10 O25 1.202 . S
C11 C9 1.363 . S
C11 C13 1.408 . S
C11 C16 1.342 . S
C12 C13 1.310 . S
C12 C15 1.461 . S
C12 H32 0.932 . S
C13 C11 1.408 . S
C13 C12 1.310 . S
C13 H33 0.930 . S
C14 C15 1.474 . S
C14 C16 1.285 . S
C14 H34 0.929 . S
C15 C12 1.461 . S
C15 C14 1.474 . S
C16 C11 1.342 . S
C16 C14 1.285 . S
C16 H35 0.930 . S
C17 C20 1.424 . S
C17 C22 1.245 . S
C17 C23 1.428 . S
C18 C21 1.260 . S
C18 C22 1.477 . S
C18 H36 0.932 . S
C19 C20 1.384 . S
C19 C21 1.479 . S
C19 H37 0.929 . S
C20 C17 1.424 . S
C20 C19 1.384 . S
C20 H38 0.928 . S
C21 C18 1.260 . S
C21 C19 1.479 . S
C22 C17 1.245 . S
C22 C18 1.477 . S
C22 H39 0.932 . S
C23 U6 2.882 . S
C23 C17 1.428 . S
C23 O26 1.301 . S
C23 O27 1.282 . S
O24 U6 2.441 . S
O24 C10 1.249 . S
O25 U6 2.420 . S
O25 C10 1.202 . S
O26 U6 2.455 . S
O26 C23 1.301 . S
O27 U6 2.449 . S
O27 C23 1.282 . S
H28 C1 0.931 . S
H29 C3 0.929 . S
H30 C4 0.930 . S
H31 C5 0.931 . S
H32 C12 0.932 . S
H33 C13 0.930 . S
H34 C14 0.929 . S
H35 C16 0.930 . S
H36 C18 0.932 . S
H37 C19 0.929 . S
H38 C20 0.928 . S
H39 C22 0.932 . S
C40 C41 1.264 . S
C40 C45 1.479 . S
C40 C50 1.465 . S
C41 C40 1.264 . S
C41 C43 1.339 . S
C41 H68 0.931 . S
C42 C43 1.395 . S
C42 C44 1.320 . S
C43 C41 1.339 . S
C43 C42 1.395 . S
C43 H69 0.929 . S
C44 C42 1.320 . S
C44 C45 1.405 . S
C44 H70 0.930 . S
C45 C40 1.479 . S
C45 C44 1.405 . S
C45 H71 0.931 . S
U46 O47 2.454 . S
U46 O48 2.458 . S
U46 C49 2.984 . S
U46 C50 2.847 . S
U46 C63 2.882 . S
U46 O64 2.441 . S
U46 O65 2.420 . S
U46 O66 2.455 . S
U46 O67 2.449 . S
O47 U46 2.454 . S
O47 C49 1.353 . S
O48 U46 2.458 . S
O48 C49 1.286 . S
C49 U46 2.984 . S
C49 O47 1.353 . S
C49 O48 1.286 . S
C49 C51 1.363 . S
C50 C40 1.465 . S
C50 U46 2.847 . S
C50 O64 1.249 . S
C50 O65 1.202 . S
C51 C49 1.363 . S
C51 C53 1.408 . S
C51 C56 1.342 . S
C52 C53 1.310 . S
C52 C55 1.461 . S
C52 H72 0.932 . S
C53 C51 1.408 . S
C53 C52 1.310 . S
C53 H73 0.930 . S
C54 C55 1.474 . S
C54 C56 1.285 . S
C54 H74 0.929 . S
C55 C52 1.461 . S
C55 C54 1.474 . S
C56 C51 1.342 . S
C56 C54 1.285 . S
C56 H75 0.930 . S
C57 C60 1.424 . S
C57 C62 1.245 . S
C57 C63 1.428 . S
C58 C61 1.260 . S
C58 C62 1.477 . S
C58 H76 0.932 . S
C59 C60 1.384 . S
C59 C61 1.479 . S
C59 H77 0.929 . S
C60 C57 1.424 . S
C60 C59 1.384 . S
C60 H78 0.928 . S
C61 C58 1.260 . S
C61 C59 1.479 . S
C62 C57 1.245 . S
C62 C58 1.477 . S
C62 H79 0.932 . S
C63 U46 2.882 . S
C63 C57 1.428 . S
C63 O66 1.301 . S
C63 O67 1.282 . S
O64 U46 2.441 . S
O64 C50 1.249 . S
O65 U46 2.420 . S
O65 C50 1.202 . S
O66 U46 2.455 . S
O66 C63 1.301 . S
O67 U46 2.449 . S
O67 C63 1.282 . S
H68 C41 0.931 . S
H69 C43 0.929 . S
H70 C44 0.930 . S
H71 C45 0.931 . S
H72 C52 0.932 . S
H73 C53 0.930 . S
H74 C54 0.929 . S
H75 C56 0.930 . S
H76 C58 0.932 . S
H77 C59 0.929 . S
H78 C60 0.928 . S
H79 C62 0.932 . S
C80 C81 1.264 . S
C80 C85 1.479 . S
C80 C90 1.465 . S
C81 C80 1.264 . S
C81 C83 1.339 . S
C81 H108 0.931 . S
C82 C83 1.395 . S
C82 C84 1.320 . S
C83 C81 1.339 . S
C83 C82 1.395 . S
C83 H109 0.929 . S
C84 C82 1.320 . S
C84 C85 1.405 . S
C84 H110 0.930 . S
C85 C80 1.479 . S
C85 C84 1.405 . S
C85 H111 0.931 . S
U86 O87 2.454 . S
U86 O88 2.458 . S
U86 C89 2.984 . S
U86 C90 2.847 . S
U86 C103 2.882 . S
U86 O104 2.441 . S
U86 O105 2.420 . S
U86 O106 2.455 . S
U86 O107 2.449 . S
O87 U86 2.454 . S
O87 C89 1.353 . S
O88 U86 2.458 . S
O88 C89 1.286 . S
C89 U86 2.984 . S
C89 O87 1.353 . S
C89 O88 1.286 . S
C89 C91 1.363 . S
C90 C80 1.465 . S
C90 U86 2.847 . S
C90 O104 1.249 . S
C90 O105 1.202 . S
C91 C89 1.363 . S
C91 C93 1.408 . S
C91 C96 1.342 . S
C92 C93 1.310 . S
C92 C95 1.461 . S
C92 H112 0.932 . S
C93 C91 1.408 . S
C93 C92 1.310 . S
C93 H113 0.930 . S
C94 C95 1.474 . S
C94 C96 1.285 . S
C94 H114 0.929 . S
C95 C92 1.461 . S
C95 C94 1.474 . S
C96 C91 1.342 . S
C96 C94 1.285 . S
C96 H115 0.930 . S
C97 C100 1.424 . S
C97 C102 1.245 . S
C97 C103 1.428 . S
C98 C101 1.260 . S
C98 C102 1.477 . S
C98 H116 0.932 . S
C99 C100 1.384 . S
C99 C101 1.479 . S
C99 H117 0.929 . S
C100 C97 1.424 . S
C100 C99 1.384 . S
C100 H118 0.928 . S
C101 C98 1.260 . S
C101 C99 1.479 . S
C102 C97 1.245 . S
C102 C98 1.477 . S
C102 H119 0.932 . S
C103 U86 2.882 . S
C103 C97 1.428 . S
C103 O106 1.301 . S
C103 O107 1.282 . S
O104 U86 2.441 . S
O104 C90 1.249 . S
O105 U86 2.420 . S
O105 C90 1.202 . S
O106 U86 2.455 . S
O106 C103 1.301 . S
O107 U86 2.449 . S
O107 C103 1.282 . S
H108 C81 0.931 . S
H109 C83 0.929 . S
H110 C84 0.930 . S
H111 C85 0.931 . S
H112 C92 0.932 . S
H113 C93 0.930 . S
H114 C94 0.929 . S
H115 C96 0.930 . S
H116 C98 0.932 . S
H117 C99 0.929 . S
H118 C100 0.928 . S
H119 C102 0.932 . S
C120 C121 1.264 . S
C120 C125 1.479 . S
C120 C130 1.465 . S
C121 C120 1.264 . S
C121 C123 1.339 . S
C121 H148 0.931 . S
C122 C123 1.395 . S
C122 C124 1.320 . S
C123 C121 1.339 . S
C123 C122 1.395 . S
C123 H149 0.929 . S
C124 C122 1.320 . S
C124 C125 1.405 . S
C124 H150 0.930 . S
C125 C120 1.479 . S
C125 C124 1.405 . S
C125 H151 0.931 . S
U126 O127 2.454 . S
U126 O128 2.458 . S
U126 C129 2.984 . S
U126 C130 2.847 . S
U126 C143 2.882 . S
U126 O144 2.441 . S
U126 O145 2.420 . S
U126 O146 2.455 . S
U126 O147 2.449 . S
O127 U126 2.454 . S
O127 C129 1.353 . S
O128 U126 2.458 . S
O128 C129 1.286 . S
C129 U126 2.984 . S
C129 O127 1.353 . S
C129 O128 1.286 . S
C129 C131 1.363 . S
C130 C120 1.465 . S
C130 U126 2.847 . S
C130 O144 1.249 . S
C130 O145 1.202 . S
C131 C129 1.363 . S
C131 C133 1.408 . S
C131 C136 1.342 . S
C132 C133 1.310 . S
C132 C135 1.461 . S
C132 H152 0.932 . S
C133 C131 1.408 . S
C133 C132 1.310 . S
C133 H153 0.930 . S
C134 C135 1.474 . S
C134 C136 1.285 . S
C134 H154 0.929 . S
C135 C132 1.461 . S
C135 C134 1.474 . S
C136 C131 1.342 . S
C136 C134 1.285 . S
C136 H155 0.930 . S
C137 C140 1.424 . S
C137 C142 1.245 . S
C137 C143 1.428 . S
C138 C141 1.260 . S
C138 C142 1.477 . S
C138 H156 0.932 . S
C139 C140 1.384 . S
C139 C141 1.479 . S
C139 H157 0.929 . S
C140 C137 1.424 . S
C140 C139 1.384 . S
C140 H158 0.928 . S
C141 C138 1.260 . S
C141 C139 1.479 . S
C142 C137 1.245 . S
C142 C138 1.477 . S
C142 H159 0.932 . S
C143 U126 2.882 . S
C143 C137 1.428 . S
C143 O146 1.301 . S
C143 O147 1.282 . S
O144 U126 2.441 . S
O144 C130 1.249 . S
O145 U126 2.420 . S
O145 C130 1.202 . S
O146 U126 2.455 . S
O146 C143 1.301 . S
O147 U126 2.449 . S
O147 C143 1.282 . S
H148 C121 0.931 . S
H149 C123 0.929 . S
H150 C124 0.930 . S
H151 C125 0.931 . S
H152 C132 0.932 . S
H153 C133 0.930 . S
H154 C134 0.929 . S
H155 C136 0.930 . S
H156 C138 0.932 . S
H157 C139 0.929 . S
H158 C140 0.928 . S
H159 C142 0.932 . S
C160 C161 1.264 . S
C160 C165 1.479 . S
C160 C170 1.465 . S
C161 C160 1.264 . S
C161 C163 1.339 . S
C161 H188 0.931 . S
C162 C163 1.395 . S
C162 C164 1.320 . S
C163 C161 1.339 . S
C163 C162 1.395 . S
C163 H189 0.929 . S
C164 C162 1.320 . S
C164 C165 1.405 . S
C164 H190 0.930 . S
C165 C160 1.479 . S
C165 C164 1.405 . S
C165 H191 0.931 . S
U166 O167 2.454 . S
U166 O168 2.458 . S
U166 C169 2.984 . S
U166 C170 2.847 . S
U166 C183 2.882 . S
U166 O184 2.441 . S
U166 O185 2.420 . S
U166 O186 2.455 . S
U166 O187 2.449 . S
O167 U166 2.454 . S
O167 C169 1.353 . S
O168 U166 2.458 . S
O168 C169 1.286 . S
C169 U166 2.984 . S
C169 O167 1.353 . S
C169 O168 1.286 . S
C169 C171 1.363 . S
C170 C160 1.465 . S
C170 U166 2.847 . S
C170 O184 1.249 . S
C170 O185 1.202 . S
C171 C169 1.363 . S
C171 C173 1.408 . S
C171 C176 1.342 . S
C172 C173 1.310 . S
C172 C175 1.461 . S
C172 H192 0.932 . S
C173 C171 1.408 . S
C173 C172 1.310 . S
C173 H193 0.930 . S
C174 C175 1.474 . S
C174 C176 1.285 . S
C174 H194 0.929 . S
C175 C172 1.461 . S
C175 C174 1.474 . S
C176 C171 1.342 . S
C176 C174 1.285 . S
C176 H195 0.930 . S
C177 C180 1.424 . S
C177 C182 1.245 . S
C177 C183 1.428 . S
C178 C181 1.260 . S
C178 C182 1.477 . S
C178 H196 0.932 . S
C179 C180 1.384 . S
C179 C181 1.479 . S
C179 H197 0.929 . S
C180 C177 1.424 . S
C180 C179 1.384 . S
C180 H198 0.928 . S
C181 C178 1.260 . S
C181 C179 1.479 . S
C182 C177 1.245 . S
C182 C178 1.477 . S
C182 H199 0.932 . S
C183 U166 2.882 . S
C183 C177 1.428 . S
C183 O186 1.301 . S
C183 O187 1.282 . S
O184 U166 2.441 . S
O184 C170 1.249 . S
O185 U166 2.420 . S
O185 C170 1.202 . S
O186 U166 2.455 . S
O186 C183 1.301 . S
O187 U166 2.449 . S
O187 C183 1.282 . S
H188 C161 0.931 . S
H189 C163 0.929 . S
H190 C164 0.930 . S
H191 C165 0.931 . S
H192 C172 0.932 . S
H193 C173 0.930 . S
H194 C174 0.929 . S
H195 C176 0.930 . S
H196 C178 0.932 . S
H197 C179 0.929 . S
H198 C180 0.928 . S
H199 C182 0.932 . S
C200 C201 1.264 . S
C200 C205 1.479 . S
C200 C210 1.465 . S
C201 C200 1.264 . S
C201 C203 1.339 . S
C201 H228 0.931 . S
C202 C203 1.395 . S
C202 C204 1.320 . S
C203 C201 1.339 . S
C203 C202 1.395 . S
C203 H229 0.929 . S
C204 C202 1.320 . S
C204 C205 1.405 . S
C204 H230 0.930 . S
C205 C200 1.479 . S
C205 C204 1.405 . S
C205 H231 0.931 . S
U206 O207 2.454 . S
U206 O208 2.458 . S
U206 C209 2.984 . S
U206 C210 2.847 . S
U206 C223 2.882 . S
U206 O224 2.441 . S
U206 O225 2.420 . S
U206 O226 2.455 . S
U206 O227 2.449 . S
O207 U206 2.454 . S
O207 C209 1.353 . S
O208 U206 2.458 . S
O208 C209 1.286 . S
C209 U206 2.984 . S
C209 O207 1.353 . S
C209 O208 1.286 . S
C209 C211 1.363 . S
C210 C200 1.465 . S
C210 U206 2.847 . S
C210 O224 1.249 . S
C210 O225 1.202 . S
C211 C209 1.363 . S
C211 C213 1.408 . S
C211 C216 1.342 . S
C212 C213 1.310 . S
C212 C215 1.461 . S
C212 H232 0.932 . S
C213 C211 1.408 . S
C213 C212 1.310 . S
C213 H233 0.930 . S
C214 C215 1.474 . S
C214 C216 1.285 . S
C214 H234 0.929 . S
C215 C212 1.461 . S
C215 C214 1.474 . S
C216 C211 1.342 . S
C216 C214 1.285 . S
C216 H235 0.930 . S
C217 C220 1.424 . S
C217 C222 1.245 . S
C217 C223 1.428 . S
C218 C221 1.260 . S
C218 C222 1.477 . S
C218 H236 0.932 . S
C219 C220 1.384 . S
C219 C221 1.479 . S
C219 H237 0.929 . S
C220 C217 1.424 . S
C220 C219 1.384 . S
C220 H238 0.928 . S
C221 C218 1.260 . S
C221 C219 1.479 . S
C222 C217 1.245 . S
C222 C218 1.477 . S
C222 H239 0.932 . S
C223 U206 2.882 . S
C223 C217 1.428 . S
C223 O226 1.301 . S
C223 O227 1.282 . S
O224 U206 2.441 . S
O224 C210 1.249 . S
O225 U206 2.420 . S
O225 C210 1.202 . S
O226 U206 2.455 . S
O226 C223 1.301 . S
O227 U206 2.449 . S
O227 C223 1.282 . S
H228 C201 0.931 . S
H229 C203 0.929 . S
H230 C204 0.930 . S
H231 C205 0.931 . S
H232 C212 0.932 . S
H233 C213 0.930 . S
H234 C214 0.929 . S
H235 C216 0.930 . S
H236 C218 0.932 . S
H237 C219 0.929 . S
H238 C220 0.928 . S
H239 C222 0.932 . S
C240 C241 1.264 . S
C240 C245 1.479 . S
C240 C250 1.465 . S
C241 C240 1.264 . S
C241 C243 1.339 . S
C241 H268 0.931 . S
C242 C243 1.395 . S
C242 C244 1.320 . S
C243 C241 1.339 . S
C243 C242 1.395 . S
C243 H269 0.929 . S
C244 C242 1.320 . S
C244 C245 1.405 . S
C244 H270 0.930 . S
C245 C240 1.479 . S
C245 C244 1.405 . S
C245 H271 0.931 . S
U246 O247 2.454 . S
U246 O248 2.458 . S
U246 C249 2.984 . S
U246 C250 2.847 . S
U246 C263 2.882 . S
U246 O264 2.441 . S
U246 O265 2.420 . S
U246 O266 2.455 . S
U246 O267 2.449 . S
O247 U246 2.454 . S
O247 C249 1.353 . S
O248 U246 2.458 . S
O248 C249 1.286 . S
C249 U246 2.984 . S
C249 O247 1.353 . S
C249 O248 1.286 . S
C249 C251 1.363 . S
C250 C240 1.465 . S
C250 U246 2.847 . S
C250 O264 1.249 . S
C250 O265 1.202 . S
C251 C249 1.363 . S
C251 C253 1.408 . S
C251 C256 1.342 . S
C252 C253 1.310 . S
C252 C255 1.461 . S
C252 H272 0.932 . S
C253 C251 1.408 . S
C253 C252 1.310 . S
C253 H273 0.930 . S
C254 C255 1.474 . S
C254 C256 1.285 . S
C254 H274 0.929 . S
C255 C252 1.461 . S
C255 C254 1.474 . S
C256 C251 1.342 . S
C256 C254 1.285 . S
C256 H275 0.930 . S
C257 C260 1.424 . S
C257 C262 1.245 . S
C257 C263 1.428 . S
C258 C261 1.260 . S
C258 C262 1.477 . S
C258 H276 0.932 . S
C259 C260 1.384 . S
C259 C261 1.479 . S
C259 H277 0.929 . S
C260 C257 1.424 . S
C260 C259 1.384 . S
C260 H278 0.928 . S
C261 C258 1.260 . S
C261 C259 1.479 . S
C262 C257 1.245 . S
C262 C258 1.477 . S
C262 H279 0.932 . S
C263 U246 2.882 . S
C263 C257 1.428 . S
C263 O266 1.301 . S
C263 O267 1.282 . S
O264 U246 2.441 . S
O264 C250 1.249 . S
O265 U246 2.420 . S
O265 C250 1.202 . S
O266 U246 2.455 . S
O266 C263 1.301 . S
O267 U246 2.449 . S
O267 C263 1.282 . S
H268 C241 0.931 . S
H269 C243 0.929 . S
H270 C244 0.930 . S
H271 C245 0.931 . S
H272 C252 0.932 . S
H273 C253 0.930 . S
H274 C254 0.929 . S
H275 C256 0.930 . S
H276 C258 0.932 . S
H277 C259 0.929 . S
H278 C260 0.928 . S
H279 C262 0.932 . S
C280 C281 1.264 . S
C280 C285 1.479 . S
C280 C290 1.465 . S
C281 C280 1.264 . S
C281 C283 1.339 . S
C281 H308 0.931 . S
C282 C283 1.395 . S
C282 C284 1.320 . S
C283 C281 1.339 . S
C283 C282 1.395 . S
C283 H309 0.929 . S
C284 C282 1.320 . S
C284 C285 1.405 . S
C284 H310 0.930 . S
C285 C280 1.479 . S
C285 C284 1.405 . S
C285 H311 0.931 . S
U286 O287 2.454 . S
U286 O288 2.458 . S
U286 C289 2.984 . S
U286 C290 2.847 . S
U286 C303 2.882 . S
U286 O304 2.441 . S
U286 O305 2.420 . S
U286 O306 2.455 . S
U286 O307 2.449 . S
O287 U286 2.454 . S
O287 C289 1.353 . S
O288 U286 2.458 . S
O288 C289 1.286 . S
C289 U286 2.984 . S
C289 O287 1.353 . S
C289 O288 1.286 . S
C289 C291 1.363 . S
C290 C280 1.465 . S
C290 U286 2.847 . S
C290 O304 1.249 . S
C290 O305 1.202 . S
C291 C289 1.363 . S
C291 C293 1.408 . S
C291 C296 1.342 . S
C292 C293 1.310 . S
C292 C295 1.461 . S
C292 H312 0.932 . S
C293 C291 1.408 . S
C293 C292 1.310 . S
C293 H313 0.930 . S
C294 C295 1.474 . S
C294 C296 1.285 . S
C294 H314 0.929 . S
C295 C292 1.461 . S
C295 C294 1.474 . S
C296 C291 1.342 . S
C296 C294 1.285 . S
C296 H315 0.930 . S
C297 C300 1.424 . S
C297 C302 1.245 . S
C297 C303 1.428 . S
C298 C301 1.260 . S
C298 C302 1.477 . S
C298 H316 0.932 . S
C299 C300 1.384 . S
C299 C301 1.479 . S
C299 H317 0.929 . S
C300 C297 1.424 . S
C300 C299 1.384 . S
C300 H318 0.928 . S
C301 C298 1.260 . S
C301 C299 1.479 . S
C302 C297 1.245 . S
C302 C298 1.477 . S
C302 H319 0.932 . S
C303 U286 2.882 . S
C303 C297 1.428 . S
C303 O306 1.301 . S
C303 O307 1.282 . S
O304 U286 2.441 . S
O304 C290 1.249 . S
O305 U286 2.420 . S
O305 C290 1.202 . S
O306 U286 2.455 . S
O306 C303 1.301 . S
O307 U286 2.449 . S
O307 C303 1.282 . S
H308 C281 0.931 . S
H309 C283 0.929 . S
H310 C284 0.930 . S
H311 C285 0.931 . S
H312 C292 0.932 . S
H313 C293 0.930 . S
H314 C294 0.929 . S
H315 C296 0.930 . S
H316 C298 0.932 . S
H317 C299 0.929 . S
H318 C300 0.928 . S
H319 C302 0.932 . S
Pr320 C322 2.880 . S
Pr320 O340 2.562 . S
Pr320 O341 2.490 . S
Pr320 O342 2.695 1_665 S
Pr320 O343 2.512 1_665 S
Pr320 O345 2.437 1_655 S
Pr320 O348 2.436 . S
Pr320 O350 2.438 1_565 S
Pr321 C331 2.880 . S
Pr321 O342 2.436 . S
Pr321 O344 2.438 1_545 S
Pr321 O346 2.562 . S
Pr321 O347 2.490 . S
Pr321 O348 2.695 1_445 S
Pr321 O349 2.519 1_545 S
Pr321 O351 2.437 1_455 S
C322 Pr320 2.880 . S
C322 C323 1.491 . S
C322 O340 1.254 . S
C322 O341 1.225 . S
C323 C322 1.491 . S
C323 C324 1.392 . S
C323 C328 1.356 . S
C324 C323 1.392 . S
C324 C325 1.368 . S
C324 H352 0.929 . S
C325 C324 1.368 . S
C325 C326 1.386 . S
C325 H353 0.929 . S
C326 C325 1.386 . S
C326 C327 1.373 . S
C327 C326 1.373 . S
C327 C328 1.409 . S
C327 H354 0.931 . S
C328 C323 1.356 . S
C328 C327 1.409 . S
C328 H355 0.930 . S
C329 O342 1.270 . S
C329 O343 1.248 . S
C330 O344 1.267 . S
C330 O345 1.278 . S
C331 Pr321 2.880 . S
C331 C332 1.491 . S
C331 O346 1.254 . S
C331 O347 1.225 . S
C332 C331 1.491 . S
C332 C333 1.392 . S
C332 C337 1.356 . S
C333 C332 1.392 . S
C333 C334 1.368 . S
C333 H356 0.929 . S
C334 C333 1.368 . S
C334 C335 1.386 . S
C334 H357 0.929 . S
C335 C334 1.386 . S
C335 C336 1.373 . S
C336 C335 1.373 . S
C336 C337 1.409 . S
C336 H358 0.931 . S
C337 C332 1.356 . S
C337 C336 1.409 . S
C337 H359 0.930 . S
C338 O348 1.270 . S
C338 O349 1.226 1_655 S
C339 O350 1.267 . S
C339 O351 1.278 . S
O340 Pr320 2.562 . S
O340 C322 1.254 . S
O341 Pr320 2.490 . S
O341 C322 1.225 . S
O342 Pr320 2.695 1_445 S
O342 Pr321 2.436 . S
O342 C329 1.270 . S
O343 Pr320 2.512 1_445 S
O343 C329 1.248 . S
O344 Pr321 2.438 1_565 S
O344 C330 1.267 . S
O345 Pr320 2.437 1_455 S
O345 C330 1.278 . S
O346 Pr321 2.562 . S
O346 C331 1.254 . S
O347 Pr321 2.490 . S
O347 C331 1.225 . S
O348 Pr320 2.436 . S
O348 Pr321 2.695 1_665 S
O348 C338 1.270 . S
O349 Pr321 2.519 1_565 S
O349 C338 1.226 1_455 S
O350 Pr320 2.438 1_545 S
O350 C339 1.267 . S
O351 Pr321 2.437 1_655 S
O351 C339 1.278 . S
H352 C324 0.929 . S
H353 C325 0.929 . S
H354 C327 0.931 . S
H355 C328 0.930 . S
H356 C333 0.929 . S
H357 C334 0.929 . S
H358 C336 0.931 . S
H359 C337 0.930 . S
Pr360 C362 2.880 . S
Pr360 O380 2.562 . S
Pr360 O381 2.490 . S
Pr360 O382 2.695 1_554 S
Pr360 O383 2.512 1_554 S
Pr360 O385 2.437 . S
Pr360 O388 2.436 1_545 S
Pr360 O390 2.438 1_544 S
Pr361 C371 2.880 1_554 S
Pr361 O382 2.436 1_564 S
Pr361 O384 2.438 1_565 S
Pr361 O386 2.562 1_554 S
Pr361 O387 2.490 1_554 S
Pr361 O388 2.695 . S
Pr361 O389 2.512 . S
Pr361 O391 2.437 1_554 S
C362 Pr360 2.880 . S
C362 C363 1.491 . S
C362 O380 1.254 . S
C362 O381 1.225 . S
C363 C362 1.491 . S
C363 C364 1.392 . S
C363 C368 1.356 . S
C364 C363 1.392 . S
C364 C365 1.368 . S
C364 H392 0.929 . S
C365 C364 1.368 . S
C365 C366 1.386 . S
C365 H393 0.929 . S
C366 C365 1.386 . S
C366 C367 1.373 . S
C367 C366 1.373 . S
C367 C368 1.409 . S
C367 H394 0.931 . S
C368 C363 1.356 . S
C368 C367 1.409 . S
C368 H395 0.930 . S
C369 O382 1.270 . S
C369 O383 1.248 . S
C370 O384 1.267 . S
C370 O385 1.278 . S
C371 Pr361 2.880 1_556 S
C371 C372 1.491 . S
C371 O386 1.254 . S
C371 O387 1.225 . S
C372 C371 1.491 . S
C372 C373 1.392 . S
C372 C377 1.356 . S
C373 C372 1.392 . S
C373 C374 1.368 . S
C373 H396 0.929 . S
C374 C373 1.368 . S
C374 C375 1.386 . S
C374 H397 0.929 . S
C375 C374 1.386 . S
C375 C376 1.373 . S
C376 C375 1.373 . S
C376 C377 1.409 . S
C376 H398 0.931 . S
C377 C372 1.356 . S
C377 C376 1.409 . S
C377 H399 0.930 . S
C378 O388 1.270 . S
C378 O389 1.248 . S
C379 O390 1.267 . S
C379 O391 1.278 . S
O380 Pr360 2.562 . S
O380 C362 1.254 . S
O381 Pr360 2.490 . S
O381 C362 1.225 . S
O382 Pr360 2.695 1_556 S
O382 Pr361 2.436 1_546 S
O382 C369 1.270 . S
O383 Pr360 2.512 1_556 S
O383 C369 1.248 . S
O384 Pr361 2.438 1_545 S
O384 C370 1.267 . S
O385 Pr360 2.437 . S
O385 C370 1.278 . S
O386 Pr361 2.562 1_556 S
O386 C371 1.254 . S
O387 Pr361 2.490 1_556 S
O387 C371 1.225 . S
O388 Pr360 2.436 1_565 S
O388 Pr361 2.695 . S
O388 C378 1.270 . S
O389 Pr361 2.512 . S
O389 C378 1.248 . S
O390 Pr360 2.438 1_566 S
O390 C379 1.267 . S
O391 Pr361 2.437 1_556 S
O391 C379 1.278 . S
H392 C364 0.929 . S
H393 C365 0.929 . S
H394 C367 0.931 . S
H395 C368 0.930 . S
H396 C373 0.929 . S
H397 C374 0.929 . S
H398 C376 0.931 . S
H399 C377 0.930 . S
Pr400 C402 2.880 . S
Pr400 O420 2.562 . S
Pr400 O421 2.490 . S
Pr400 O422 2.695 . S
Pr400 O423 2.512 . S
Pr400 O425 2.437 . S
Pr400 O428 2.436 . S
Pr400 O430 2.438 . S
Pr401 C411 2.880 . S
Pr401 O422 2.436 . S
Pr401 O424 2.438 . S
Pr401 O426 2.562 . S
Pr401 O427 2.490 . S
Pr401 O428 2.695 . S
Pr401 O429 2.512 . S
Pr401 O431 2.437 . S
C402 Pr400 2.880 . S
C402 C403 1.491 . S
C402 O420 1.254 . S
C402 O421 1.225 . S
C403 C402 1.491 . S
C403 C404 1.392 . S
C403 C408 1.356 . S
C404 C403 1.392 . S
C404 C405 1.368 . S
C404 H432 0.929 . S
C405 C404 1.368 . S
C405 C406 1.386 . S
C405 H433 0.929 . S
C406 C405 1.386 . S
C406 C407 1.373 . S
C407 C406 1.373 . S
C407 C408 1.409 . S
C407 H434 0.931 . S
C408 C403 1.356 . S
C408 C407 1.409 . S
C408 H435 0.930 . S
C409 O422 1.270 . S
C409 O423 1.248 . S
C410 O424 1.267 . S
C410 O425 1.278 . S
C411 Pr401 2.880 . S
C411 C412 1.491 . S
C411 O426 1.254 . S
C411 O427 1.225 . S
C412 C411 1.491 . S
C412 C413 1.392 . S
C412 C417 1.356 . S
C413 C412 1.392 . S
C413 C414 1.368 . S
C413 H436 0.929 . S
C414 C413 1.368 . S
C414 C415 1.386 . S
C414 H437 0.929 . S
C415 C414 1.386 . S
C415 C416 1.373 . S
C416 C415 1.373 . S
C416 C417 1.409 . S
C416 H438 0.931 . S
C417 C412 1.356 . S
C417 C416 1.409 . S
C417 H439 0.930 . S
C418 O428 1.270 . S
C418 O429 1.248 . S
C419 O430 1.267 . S
C419 O431 1.278 . S
O420 Pr400 2.562 . S
O420 C402 1.254 . S
O421 Pr400 2.490 . S
O421 C402 1.225 . S
O422 Pr400 2.695 . S
O422 Pr401 2.436 . S
O422 C409 1.270 . S
O423 Pr400 2.512 . S
O423 C409 1.248 . S
O424 Pr401 2.438 . S
O424 C410 1.267 . S
O425 Pr400 2.437 . S
O425 C410 1.278 . S
O426 Pr401 2.562 . S
O426 C411 1.254 . S
O427 Pr401 2.490 . S
O427 C411 1.225 . S
O428 Pr400 2.436 . S
O428 Pr401 2.695 . S
O428 C418 1.270 . S
O429 Pr401 2.512 . S
O429 C418 1.248 . S
O430 Pr400 2.438 . S
O430 C419 1.267 . S
O431 Pr401 2.437 . S
O431 C419 1.278 . S
H432 C404 0.929 . S
H433 C405 0.929 . S
H434 C407 0.931 . S
H435 C408 0.930 . S
H436 C413 0.929 . S
H437 C414 0.929 . S
H438 C416 0.931 . S
H439 C417 0.930 . S
Pr440 C442 2.863 1_455 S
Pr440 O460 2.541 1_455 S
Pr440 O461 2.480 1_455 S
Pr440 O462 2.707 1_556 S
Pr440 O463 2.524 1_556 S
Pr440 O465 2.424 1_456 S
Pr440 O468 2.428 1_455 S
Pr440 O470 2.456 . S
Pr441 C451 2.880 . S
Pr441 O462 2.436 . S
Pr441 O464 2.438 1_455 S
Pr441 O466 2.562 . S
Pr441 O467 2.490 . S
Pr441 O468 2.695 1_454 S
Pr441 O469 2.512 1_454 S
Pr441 O471 2.437 1_554 S
C442 Pr440 2.863 1_655 S
C442 C443 1.491 . S
C442 O460 1.254 . S
C442 O461 1.225 . S
C443 C442 1.491 . S
C443 C444 1.392 . S
C443 C448 1.356 . S
C444 C443 1.392 . S
C444 C445 1.368 . S
C444 H472 0.929 . S
C445 C444 1.368 . S
C445 C446 1.386 . S
C445 H473 0.929 . S
C446 C445 1.386 . S
C446 C447 1.373 . S
C447 C446 1.373 . S
C447 C448 1.409 . S
C447 H474 0.931 . S
C448 C443 1.356 . S
C448 C447 1.409 . S
C448 H475 0.930 . S
C449 O462 1.270 . S
C449 O463 1.248 . S
C450 O464 1.267 . S
C450 O465 1.278 . S
C451 Pr441 2.880 . S
C451 C452 1.491 . S
C451 O466 1.254 . S
C451 O467 1.225 . S
C452 C451 1.491 . S
C452 C453 1.392 . S
C452 C457 1.356 . S
C453 C452 1.392 . S
C453 C454 1.368 . S
C453 H476 0.929 . S
C454 C453 1.368 . S
C454 C455 1.386 . S
C454 H477 0.929 . S
C455 C454 1.386 . S
C455 C456 1.373 . S
C456 C455 1.373 . S
C456 C457 1.409 . S
C456 H478 0.931 . S
C457 C452 1.356 . S
C457 C456 1.409 . S
C457 H479 0.930 . S
C458 O468 1.270 . S
C458 O469 1.248 . S
C459 O470 1.267 . S
C459 O471 1.278 . S
O460 Pr440 2.541 1_655 S
O460 C442 1.254 . S
O461 Pr440 2.480 1_655 S
O461 C442 1.225 . S
O462 Pr440 2.707 1_554 S
O462 Pr441 2.436 . S
O462 C449 1.270 . S
O463 Pr440 2.524 1_554 S
O463 C449 1.248 . S
O464 Pr441 2.438 1_655 S
O464 C450 1.267 . S
O465 Pr440 2.424 1_654 S
O465 C450 1.278 . S
O466 Pr441 2.562 . S
O466 C451 1.254 . S
O467 Pr441 2.490 . S
O467 C451 1.225 . S
O468 Pr440 2.428 1_655 S
O468 Pr441 2.695 1_656 S
O468 C458 1.270 . S
O469 Pr441 2.512 1_656 S
O469 C458 1.248 . S
O470 Pr440 2.456 . S
O470 C459 1.267 . S
O471 Pr441 2.437 1_556 S
O471 C459 1.278 . S
H472 C444 0.929 . S
H473 C445 0.929 . S
H474 C447 0.931 . S
H475 C448 0.930 . S
H476 C453 0.929 . S
H477 C454 0.929 . S
H478 C456 0.931 . S
H479 C457 0.930 . S
C480 C481 1.369 . S
C480 C482 1.419 . S
C480 H484 0.930 . S
C481 C480 1.369 . S
C481 C490 1.429 . S
C482 C480 1.419 . S
C482 C483 1.363 . S
C482 H485 0.929 . S
C483 C482 1.363 . S
C483 C489 1.428 . S
H484 C480 0.930 . S
H485 C482 0.929 . S
S486 N487 1.613 . S
S486 N488 1.610 . S
N487 S486 1.613 . S
N487 C490 1.350 . S
N488 S486 1.610 . S
N488 C489 1.351 . S
C489 C483 1.428 . S
C489 N488 1.351 . S
C489 C490 1.434 . S
C490 C481 1.429 . S
C490 N487 1.350 . S
C490 C489 1.434 . S
C491 C492 1.369 . S
C491 C493 1.419 . S
C491 H495 0.930 . S
C492 C491 1.369 . S
C492 C501 1.429 . S
C493 C491 1.419 . S
C493 C494 1.363 . S
C493 H496 0.929 . S
C494 C493 1.363 . S
C494 C500 1.428 . S
H495 C491 0.930 . S
H496 C493 0.929 . S
S497 N498 1.613 . S
S497 N499 1.610 . S
N498 S497 1.613 . S
N498 C501 1.350 . S
N499 S497 1.610 . S
N499 C500 1.351 . S
C500 C494 1.428 . S
C500 N499 1.351 . S
C500 C501 1.434 . S
C501 C492 1.429 . S
C501 N498 1.350 . S
C501 C500 1.434 . S
C502 C503 1.369 . S
C502 C504 1.419 . S
C502 H506 0.930 . S
C503 C502 1.369 . S
C503 C512 1.429 . S
C504 C502 1.419 . S
C504 C505 1.363 . S
C504 H507 0.929 . S
C505 C504 1.363 . S
C505 C511 1.428 . S
H506 C502 0.930 . S
H507 C504 0.929 . S
S508 N509 1.613 . S
S508 N510 1.610 . S
N509 S508 1.613 . S
N509 C512 1.350 . S
N510 S508 1.610 . S
N510 C511 1.351 . S
C511 C505 1.428 . S
C511 N510 1.351 . S
C511 C512 1.434 . S
C512 C503 1.429 . S
C512 N509 1.350 . S
C512 C511 1.434 . S
C513 C514 1.369 . S
C513 C515 1.419 . S
C513 H517 0.930 . S
C514 C513 1.369 . S
C514 C523 1.429 . S
C515 C513 1.419 . S
C515 C516 1.363 . S
C515 H518 0.929 . S
C516 C515 1.363 . S
C516 C522 1.428 . S
H517 C513 0.930 . S
H518 C515 0.929 . S
S519 N520 1.613 . S
S519 N521 1.610 . S
N520 S519 1.613 . S
N520 C523 1.350 . S
N521 S519 1.610 . S
N521 C522 1.351 . S
C522 C516 1.428 . S
C522 N521 1.351 . S
C522 C523 1.434 . S
C523 C514 1.429 . S
C523 N520 1.350 . S
C523 C522 1.434 . S
C524 C525 1.369 . S
C524 C526 1.419 . S
C524 H528 0.930 . S
C525 C524 1.369 . S
C525 C534 1.429 . S
C526 C524 1.419 . S
C526 C527 1.363 . S
C526 H529 0.929 . S
C527 C526 1.363 . S
C527 C533 1.428 . S
H528 C524 0.930 . S
H529 C526 0.929 . S
S530 N531 1.613 . S
S530 N532 1.610 . S
N531 S530 1.613 . S
N531 C534 1.350 . S
N532 S530 1.610 . S
N532 C533 1.351 . S
C533 C527 1.428 . S
C533 N532 1.351 . S
C533 C534 1.434 . S
C534 C525 1.429 . S
C534 N531 1.350 . S
C534 C533 1.434 . S
C535 C536 1.369 . S
C535 C537 1.419 . S
C535 H539 0.930 . S
C536 C535 1.369 . S
C536 C545 1.429 . S
C537 C535 1.419 . S
C537 C538 1.363 . S
C537 H540 0.929 . S
C538 C537 1.363 . S
C538 C544 1.428 . S
H539 C535 0.930 . S
H540 C537 0.929 . S
S541 N542 1.613 . S
S541 N543 1.610 . S
N542 S541 1.613 . S
N542 C545 1.350 . S
N543 S541 1.610 . S
N543 C544 1.351 . S
C544 C538 1.428 . S
C544 N543 1.351 . S
C544 C545 1.434 . S
C545 C536 1.429 . S
C545 N542 1.350 . S
C545 C544 1.434 . S
C546 C547 1.369 . S
C546 C548 1.419 . S
C546 H550 0.930 . S
C547 C546 1.369 . S
C547 C556 1.429 . S
C548 C546 1.419 . S
C548 C549 1.363 . S
C548 H551 0.929 . S
C549 C548 1.363 . S
C549 C555 1.428 . S
H550 C546 0.930 . S
H551 C548 0.929 . S
S552 N553 1.613 . S
S552 N554 1.610 . S
N553 S552 1.613 . S
N553 C556 1.350 . S
N554 S552 1.610 . S
N554 C555 1.351 . S
C555 C549 1.428 . S
C555 N554 1.351 . S
C555 C556 1.434 . S
C556 C547 1.429 . S
C556 N553 1.350 . S
C556 C555 1.434 . S
C557 C558 1.369 . S
C557 C559 1.419 . S
C557 H561 0.930 . S
C558 C557 1.369 . S
C558 C567 1.429 . S
C559 C557 1.419 . S
C559 C560 1.363 . S
C559 H562 0.929 . S
C560 C559 1.363 . S
C560 C566 1.428 . S
H561 C557 0.930 . S
H562 C559 0.929 . S
S563 N564 1.613 . S
S563 N565 1.610 . S
N564 S563 1.613 . S
N564 C567 1.350 . S
N565 S563 1.610 . S
N565 C566 1.351 . S
C566 C560 1.428 . S
C566 N565 1.351 . S
C566 C567 1.434 . S
C567 C558 1.429 . S
C567 N564 1.350 . S
C567 C566 1.434 . S
C568 C569 1.369 . S
C568 C570 1.419 . S
C568 H572 0.930 . S
C569 C568 1.369 . S
C569 C578 1.429 . S
C570 C568 1.419 . S
C570 C571 1.363 . S
C570 H573 0.929 . S
C571 C570 1.363 . S
C571 C577 1.428 . S
H572 C568 0.930 . S
H573 C570 0.929 . S
S574 N575 1.613 . S
S574 N576 1.610 . S
N575 S574 1.613 . S
N575 C578 1.350 . S
N576 S574 1.610 . S
N576 C577 1.351 . S
C577 C571 1.428 . S
C577 N576 1.351 . S
C577 C578 1.434 . S
C578 C569 1.429 . S
C578 N575 1.350 . S
C578 C577 1.434 . S
C579 C580 1.369 . S
C579 C581 1.419 . S
C579 H583 0.930 . S
C580 C579 1.369 . S
C580 C589 1.429 . S
C581 C579 1.419 . S
C581 C582 1.363 . S
C581 H584 0.929 . S
C582 C581 1.363 . S
C582 C588 1.428 . S
H583 C579 0.930 . S
H584 C581 0.929 . S
S585 N586 1.613 . S
S585 N587 1.610 . S
N586 S585 1.613 . S
N586 C589 1.350 . S
N587 S585 1.610 . S
N587 C588 1.351 . S
C588 C582 1.428 . S
C588 N587 1.351 . S
C588 C589 1.434 . S
C589 C580 1.429 . S
C589 N586 1.350 . S
C589 C588 1.434 . S
C590 C591 1.369 . S
C590 C592 1.419 . S
C590 H594 0.930 . S
C591 C590 1.369 . S
C591 C600 1.429 . S
C592 C590 1.419 . S
C592 C593 1.363 . S
C592 H595 0.929 . S
C593 C592 1.363 . S
C593 C599 1.428 . S
H594 C590 0.930 . S
H595 C592 0.929 . S
S596 N597 1.613 . S
S596 N598 1.610 . S
N597 S596 1.613 . S
N597 C600 1.350 . S
N598 S596 1.610 . S
N598 C599 1.351 . S
C599 C593 1.428 . S
C599 N598 1.351 . S
C599 C600 1.434 . S
C600 C591 1.429 . S
C600 N597 1.350 . S
C600 C599 1.434 . S
C601 C602 1.369 . S
C601 C603 1.419 . S
C601 H605 0.930 . S
C602 C601 1.369 . S
C602 C611 1.429 . S
C603 C601 1.419 . S
C603 C604 1.363 . S
C603 H606 0.929 . S
C604 C603 1.363 . S
C604 C610 1.428 . S
H605 C601 0.930 . S
H606 C603 0.929 . S
S607 N608 1.613 . S
S607 N609 1.610 . S
N608 S607 1.613 . S
N608 C611 1.350 . S
N609 S607 1.610 . S
N609 C610 1.351 . S
C610 C604 1.428 . S
C610 N609 1.351 . S
C610 C611 1.434 . S
C611 C602 1.429 . S
C611 N608 1.350 . S
C611 C610 1.434 . S
C612 C613 1.369 . S
C612 C614 1.419 . S
C612 H616 0.930 . S
C613 C612 1.369 . S
C613 C622 1.429 . S
C614 C612 1.419 . S
C614 C615 1.363 . S
C614 H617 0.929 . S
C615 C614 1.363 . S
C615 C621 1.428 . S
H616 C612 0.930 . S
H617 C614 0.929 . S
S618 N619 1.613 . S
S618 N620 1.610 . S
N619 S618 1.613 . S
N619 C622 1.350 . S
N620 S618 1.610 . S
N620 C621 1.351 . S
C621 C615 1.428 . S
C621 N620 1.351 . S
C621 C622 1.434 . S
C622 C613 1.429 . S
C622 N619 1.350 . S
C622 C621 1.434 . S
C623 C624 1.369 . S
C623 C625 1.419 . S
C623 H627 0.930 . S
C624 C623 1.369 . S
C624 C633 1.429 . S
C625 C623 1.419 . S
C625 C626 1.363 . S
C625 H628 0.929 . S
C626 C625 1.363 . S
C626 C632 1.428 . S
H627 C623 0.930 . S
H628 C625 0.929 . S
S629 N630 1.613 . S
S629 N631 1.610 . S
N630 S629 1.613 . S
N630 C633 1.350 . S
N631 S629 1.610 . S
N631 C632 1.351 . S
C632 C626 1.428 . S
C632 N631 1.351 . S
C632 C633 1.434 . S
C633 C624 1.429 . S
C633 N630 1.350 . S
C633 C632 1.434 . S
C634 C635 1.369 . S
C634 C636 1.419 . S
C634 H638 0.930 . S
C635 C634 1.369 . S
C635 C644 1.429 . S
C636 C634 1.419 . S
C636 C637 1.363 . S
C636 H639 0.929 . S
C637 C636 1.363 . S
C637 C643 1.428 . S
H638 C634 0.930 . S
H639 C636 0.929 . S
S640 N641 1.613 . S
S640 N642 1.610 . S
N641 S640 1.613 . S
N641 C644 1.350 . S
N642 S640 1.610 . S
N642 C643 1.351 . S
C643 C637 1.428 . S
C643 N642 1.351 . S
C643 C644 1.434 . S
C644 C635 1.429 . S
C644 N641 1.350 . S
C644 C643 1.434 . S
C645 C646 1.369 . S
C645 C647 1.419 . S
C645 H649 0.930 . S
C646 C645 1.369 . S
C646 C655 1.429 . S
C647 C645 1.419 . S
C647 C648 1.363 . S
C647 H650 0.929 . S
C648 C647 1.363 . S
C648 C654 1.428 . S
H649 C645 0.930 . S
H650 C647 0.929 . S
S651 N652 1.613 . S
S651 N653 1.610 . S
N652 S651 1.613 . S
N652 C655 1.350 . S
N653 S651 1.610 . S
N653 C654 1.351 . S
C654 C648 1.428 . S
C654 N653 1.351 . S
C654 C655 1.434 . S
C655 C646 1.429 . S
C655 N652 1.350 . S
C655 C654 1.434 . S
C656 C657 1.369 . S
C656 C658 1.419 . S
C656 H660 0.930 . S
C657 C656 1.369 . S
C657 C666 1.429 . S
C658 C656 1.419 . S
C658 C659 1.363 . S
C658 H661 0.929 . S
C659 C658 1.363 . S
C659 C665 1.428 . S
H660 C656 0.930 . S
H661 C658 0.929 . S
S662 N663 1.613 . S
S662 N664 1.610 . S
N663 S662 1.613 . S
N663 C666 1.350 . S
N664 S662 1.610 . S
N664 C665 1.351 . S
C665 C659 1.428 . S
C665 N664 1.351 . S
C665 C666 1.434 . S
C666 C657 1.429 . S
C666 N663 1.350 . S
C666 C665 1.434 . S
C667 C668 1.369 . S
C667 C669 1.419 . S
C667 H671 0.930 . S
C668 C667 1.369 . S
C668 C677 1.429 . S
C669 C667 1.419 . S
C669 C670 1.363 . S
C669 H672 0.919 1_655 S
C670 C669 1.363 . S
C670 C676 1.428 . S
H671 C667 0.930 . S
H672 C669 0.919 1_455 S
S673 N674 1.613 . S
S673 N675 1.610 . S
N674 S673 1.613 . S
N674 C677 1.350 . S
N675 S673 1.610 . S
N675 C676 1.351 . S
C676 C670 1.428 . S
C676 N675 1.351 . S
C676 C677 1.434 . S
C677 C668 1.429 . S
C677 N674 1.350 . S
C677 C676 1.434 . S
C678 C679 1.369 . S
C678 C680 1.419 . S
C678 H682 0.930 . S
C679 C678 1.369 . S
C679 C688 1.429 . S
C680 C678 1.419 . S
C680 C681 1.363 . S
C680 H683 0.929 . S
C681 C680 1.363 . S
C681 C687 1.428 . S
H682 C678 0.930 . S
H683 C680 0.929 . S
S684 N685 1.613 . S
S684 N686 1.610 . S
N685 S684 1.613 . S
N685 C688 1.350 . S
N686 S684 1.610 . S
N686 C687 1.351 . S
C687 C681 1.428 . S
C687 N686 1.351 . S
C687 C688 1.434 . S
C688 C679 1.429 . S
C688 N685 1.350 . S
C688 C687 1.434 . S
C689 C690 1.369 . S
C689 C691 1.419 . S
C689 H693 0.930 . S
C690 C689 1.369 . S
C690 C699 1.429 . S
C691 C689 1.419 . S
C691 C692 1.363 . S
C691 H694 0.929 . S
C692 C691 1.363 . S
C692 C698 1.428 . S
H693 C689 0.930 . S
H694 C691 0.929 . S
S695 N696 1.613 . S
S695 N697 1.610 . S
N696 S695 1.613 . S
N696 C699 1.350 . S
N697 S695 1.610 . S
N697 C698 1.351 . S
C698 C692 1.428 . S
C698 N697 1.351 . S
C698 C699 1.434 . S
C699 C690 1.429 . S
C699 N696 1.350 . S
C699 C698 1.434 . S
C700 C701 1.369 . S
C700 C702 1.419 . S
C700 H704 0.930 . S
C701 C700 1.369 . S
C701 C710 1.429 . S
C702 C700 1.419 . S
C702 C703 1.363 . S
C702 H705 0.929 . S
C703 C702 1.363 . S
C703 C709 1.428 . S
H704 C700 0.930 . S
H705 C702 0.929 . S
S706 N707 1.613 . S
S706 N708 1.610 . S
N707 S706 1.613 . S
N707 C710 1.350 . S
N708 S706 1.610 . S
N708 C709 1.351 . S
C709 C703 1.428 . S
C709 N708 1.351 . S
C709 C710 1.434 . S
C710 C701 1.429 . S
C710 N707 1.350 . S
C710 C709 1.434 . S
C711 C712 1.369 . S
C711 C713 1.419 . S
C711 H715 0.930 . S
C712 C711 1.369 . S
C712 C721 1.429 . S
C713 C711 1.419 . S
C713 C714 1.363 . S
C713 H716 0.929 . S
C714 C713 1.363 . S
C714 C720 1.428 . S
H715 C711 0.930 . S
H716 C713 0.929 . S
S717 N718 1.613 . S
S717 N719 1.610 . S
N718 S717 1.613 . S
N718 C721 1.350 . S
N719 S717 1.610 . S
N719 C720 1.351 . S
C720 C714 1.428 . S
C720 N719 1.351 . S
C720 C721 1.434 . S
C721 C712 1.429 . S
C721 N718 1.350 . S
C721 C720 1.434 . S
C722 C723 1.369 . S
C722 C724 1.419 . S
C722 H726 0.930 . S
C723 C722 1.369 . S
C723 C732 1.429 . S
C724 C722 1.419 . S
C724 C725 1.363 . S
C724 H727 0.929 . S
C725 C724 1.363 . S
C725 C731 1.428 . S
H726 C722 0.930 . S
H727 C724 0.929 . S
S728 N729 1.613 . S
S728 N730 1.610 . S
N729 S728 1.613 . S
N729 C732 1.350 . S
N730 S728 1.610 . S
N730 C731 1.351 . S
C731 C725 1.428 . S
C731 N730 1.351 . S
C731 C732 1.434 . S
C732 C723 1.429 . S
C732 N729 1.350 . S
C732 C731 1.434 . S
C733 C734 1.369 . S
C733 C735 1.419 . S
C733 H737 0.930 . S
C734 C733 1.369 . S
C734 C743 1.429 . S
C735 C733 1.419 . S
C735 C736 1.363 . S
C735 H738 0.929 . S
C736 C735 1.363 . S
C736 C742 1.428 . S
H737 C733 0.930 . S
H738 C735 0.929 . S
S739 N740 1.613 . S
S739 N741 1.610 . S
N740 S739 1.613 . S
N740 C743 1.350 . S
N741 S739 1.610 . S
N741 C742 1.351 . S
C742 C736 1.428 . S
C742 N741 1.351 . S
C742 C743 1.434 . S
C743 C734 1.429 . S
C743 N740 1.350 . S
C743 C742 1.434 . S
C481 C21 1.315 . S
C483 C335 1.496 . S
C492 C61 1.883 . S
C494 C379 1.798 . S
C505 C409 2.327 . S
C503 C82 2.243 . S
C514 C135 2.798 . S
C516 C450 2.774 . S
C527 C366 1.084 . S
C525 C15 1.008 . S
C538 C330 2.654 . S
C536 C42 2.623 . S
C549 C458 1.298 . S
C547 C101 1.219 . S
C560 C419 2.428 . S
C558 C122 2.449 . S
C569 C2 1.478 . S
C571 C455 1.652 . S
C582 C369 2.108 . S
C580 C95 2.116 . S
C591 C141 2.122 . S
C593 C338 2.112 . S
C602 C55 2.127 . S
C604 C406 2.149 . S
C615 C326 1.497 . S
C613 C181 1.531 . S
C624 C202 1.850 . S
C626 C370 1.768 . S
C635 C255 2.289 . S
C637 C418 2.362 . S
C646 C295 2.779 . S
C648 C459 2.760 . S
C657 C175 0.995 . S
C659 C375 1.063 . S
C670 C339 2.667 . S
C668 C221 2.616 . S
C681 C449 1.230 . S
C679 C242 1.239 . S
C692 C410 2.458 . S
C690 C301 2.431 . S
C701 C162 1.740 . S
C703 C446 1.679 . S
C714 C378 2.152 . S
C712 C261 2.171 . S
C725 C329 2.074 . S
C723 C282 2.101 . S
C734 C215 2.109 . S
C736 C415 2.141 . S
