# Generated by pormake.
# Topology ocu, (6,8)-cn, num edge types: 1
# Building blocks:
#     Node 0, Type 0, BuildingBlock: VOLQOD_clean_sbu_1, # of connection points: 6
#     Node 1, Type 0, BuildingBlock: VOLQOD_clean_sbu_1, # of connection points: 6
#     Node 2, Type 0, BuildingBlock: VOLQOD_clean_sbu_1, # of connection points: 6
#     Node 3, Type 0, BuildingBlock: VOLQOD_clean_sbu_1, # of connection points: 6
#     Node 4, Type 0, BuildingBlock: VOLQOD_clean_sbu_1, # of connection points: 6
#     Node 5, Type 0, BuildingBlock: VOLQOD_clean_sbu_1, # of connection points: 6
#     Node 6, Type 0, BuildingBlock: VOLQOD_clean_sbu_1, # of connection points: 6
#     Node 7, Type 0, BuildingBlock: VOLQOD_clean_sbu_1, # of connection points: 6
#     Node 8, Type 1, BuildingBlock: GIZVER_clean_sbu_0, # of connection points: 8
#     Node 9, Type 1, BuildingBlock: GIZVER_clean_sbu_0, # of connection points: 8
#     Node 10, Type 1, BuildingBlock: GIZVER_clean_sbu_0, # of connection points: 8
#     Node 11, Type 1, BuildingBlock: GIZVER_clean_sbu_0, # of connection points: 8
#     Node 12, Type 1, BuildingBlock: GIZVER_clean_sbu_0, # of connection points: 8
#     Node 13, Type 1, BuildingBlock: GIZVER_clean_sbu_0, # of connection points: 8
#     Edge 14, Type (0, 1), BuildingBlock: TEMPAE_clean_linker_10, # of connection points: 2
#     Edge 15, Type (0, 1), BuildingBlock: TEMPAE_clean_linker_10, # of connection points: 2
#     Edge 16, Type (0, 1), BuildingBlock: TEMPAE_clean_linker_10, # of connection points: 2
#     Edge 17, Type (0, 1), BuildingBlock: TEMPAE_clean_linker_10, # of connection points: 2
#     Edge 18, Type (0, 1), BuildingBlock: TEMPAE_clean_linker_10, # of connection points: 2
#     Edge 19, Type (0, 1), BuildingBlock: TEMPAE_clean_linker_10, # of connection points: 2
#     Edge 20, Type (0, 1), BuildingBlock: TEMPAE_clean_linker_10, # of connection points: 2
#     Edge 21, Type (0, 1), BuildingBlock: TEMPAE_clean_linker_10, # of connection points: 2
#     Edge 22, Type (0, 1), BuildingBlock: TEMPAE_clean_linker_10, # of connection points: 2
#     Edge 23, Type (0, 1), BuildingBlock: TEMPAE_clean_linker_10, # of connection points: 2
#     Edge 24, Type (0, 1), BuildingBlock: TEMPAE_clean_linker_10, # of connection points: 2
#     Edge 25, Type (0, 1), BuildingBlock: TEMPAE_clean_linker_10, # of connection points: 2
#     Edge 26, Type (0, 1), BuildingBlock: TEMPAE_clean_linker_10, # of connection points: 2
#     Edge 27, Type (0, 1), BuildingBlock: TEMPAE_clean_linker_10, # of connection points: 2
#     Edge 28, Type (0, 1), BuildingBlock: TEMPAE_clean_linker_10, # of connection points: 2
#     Edge 29, Type (0, 1), BuildingBlock: TEMPAE_clean_linker_10, # of connection points: 2
#     Edge 30, Type (0, 1), BuildingBlock: TEMPAE_clean_linker_10, # of connection points: 2
#     Edge 31, Type (0, 1), BuildingBlock: TEMPAE_clean_linker_10, # of connection points: 2
#     Edge 32, Type (0, 1), BuildingBlock: TEMPAE_clean_linker_10, # of connection points: 2
#     Edge 33, Type (0, 1), BuildingBlock: TEMPAE_clean_linker_10, # of connection points: 2
#     Edge 34, Type (0, 1), BuildingBlock: TEMPAE_clean_linker_10, # of connection points: 2
#     Edge 35, Type (0, 1), BuildingBlock: TEMPAE_clean_linker_10, # of connection points: 2
#     Edge 36, Type (0, 1), BuildingBlock: TEMPAE_clean_linker_10, # of connection points: 2
#     Edge 37, Type (0, 1), BuildingBlock: TEMPAE_clean_linker_10, # of connection points: 2
#     Edge 38, Type (0, 1), BuildingBlock: TEMPAE_clean_linker_10, # of connection points: 2
#     Edge 39, Type (0, 1), BuildingBlock: TEMPAE_clean_linker_10, # of connection points: 2
#     Edge 40, Type (0, 1), BuildingBlock: TEMPAE_clean_linker_10, # of connection points: 2
#     Edge 41, Type (0, 1), BuildingBlock: TEMPAE_clean_linker_10, # of connection points: 2
#     Edge 42, Type (0, 1), BuildingBlock: TEMPAE_clean_linker_10, # of connection points: 2
#     Edge 43, Type (0, 1), BuildingBlock: TEMPAE_clean_linker_10, # of connection points: 2
#     Edge 44, Type (0, 1), BuildingBlock: TEMPAE_clean_linker_10, # of connection points: 2
#     Edge 45, Type (0, 1), BuildingBlock: TEMPAE_clean_linker_10, # of connection points: 2
#     Edge 46, Type (0, 1), BuildingBlock: TEMPAE_clean_linker_10, # of connection points: 2
#     Edge 47, Type (0, 1), BuildingBlock: TEMPAE_clean_linker_10, # of connection points: 2
#     Edge 48, Type (0, 1), BuildingBlock: TEMPAE_clean_linker_10, # of connection points: 2
#     Edge 49, Type (0, 1), BuildingBlock: TEMPAE_clean_linker_10, # of connection points: 2
#     Edge 50, Type (0, 1), BuildingBlock: TEMPAE_clean_linker_10, # of connection points: 2
#     Edge 51, Type (0, 1), BuildingBlock: TEMPAE_clean_linker_10, # of connection points: 2
#     Edge 52, Type (0, 1), BuildingBlock: TEMPAE_clean_linker_10, # of connection points: 2
#     Edge 53, Type (0, 1), BuildingBlock: TEMPAE_clean_linker_10, # of connection points: 2
#     Edge 54, Type (0, 1), BuildingBlock: TEMPAE_clean_linker_10, # of connection points: 2
#     Edge 55, Type (0, 1), BuildingBlock: TEMPAE_clean_linker_10, # of connection points: 2
#     Edge 56, Type (0, 1), BuildingBlock: TEMPAE_clean_linker_10, # of connection points: 2
#     Edge 57, Type (0, 1), BuildingBlock: TEMPAE_clean_linker_10, # of connection points: 2
#     Edge 58, Type (0, 1), BuildingBlock: TEMPAE_clean_linker_10, # of connection points: 2
#     Edge 59, Type (0, 1), BuildingBlock: TEMPAE_clean_linker_10, # of connection points: 2
#     Edge 60, Type (0, 1), BuildingBlock: TEMPAE_clean_linker_10, # of connection points: 2
#     Edge 61, Type (0, 1), BuildingBlock: TEMPAE_clean_linker_10, # of connection points: 2
# Relax obj value: 0.254
# Max RMSD: 0.358
# Mean RMSD: 0.249
data_MOF--net-ocu--node1-VOLQOD_clean_sbu_1--node2-GIZVER_clean_sbu_0--edge1-TEMPAE_clean_linker_10
_symmetry_space_group_name_H-M    P1
_symmetry_Int_Tables_number       1
_symmetry_cell_setting            triclinic
loop_
_symmetry_equiv_pos_as_xyz
'x, y, z'
_cell_length_a     42.408242
_cell_length_b     44.361823
_cell_length_c     31.134879
_cell_angle_alpha  88.721176
_cell_angle_beta   90.840369
_cell_angle_gamma 101.31151
loop_
_atom_site_label
_atom_site_type_symbol
_atom_site_fract_x
_atom_site_fract_y
_atom_site_fract_z
_atom_type_partial_charge
O0 O 0.3044 0.29817 0.2712 0.0
Zn1 Zn 0.26895 0.26677 0.29837 0.0
O2 O 0.24719 0.24032 0.25199 0.0
Zn3 Zn 0.20194 0.2411 0.25196 0.0
Zn4 Zn 0.26346 0.25333 0.19475 0.0
Zn5 Zn 0.2522 0.19854 0.26259 0.0
O6 O 0.1758 0.20192 0.2756 0.0
O7 O 0.21143 0.17161 0.28358 0.0
O8 O 0.23826 0.29131 0.32646 0.0
O9 O 0.19406 0.27572 0.28729 0.0
O10 O 0.18537 0.25118 0.19442 0.0
O11 O 0.23024 0.27154 0.16022 0.0
O12 O 0.27713 0.21823 0.16261 0.0
O13 O 0.29225 0.24234 0.34144 0.0
O14 O 0.2672 0.18006 0.21074 0.0
O15 O 0.28623 0.19811 0.307 0.0
C16 C 0.31522 0.30296 0.23314 0.0
C17 C 0.18289 0.17627 0.28682 0.0
C18 C 0.19971 0.26715 0.16348 0.0
C19 C 0.20951 0.29315 0.31549 0.0
C20 C 0.27701 0.19033 0.17384 0.0
C21 C 0.29895 0.21573 0.33681 0.0
O22 O 0.30219 0.28699 0.20172 0.0
O23 O 0.75 0.20556 0.19388 0.0
Zn24 Zn 0.77504 0.23947 0.2341 0.0
O25 O 0.7449 0.25847 0.26731 0.0
Zn26 Zn 0.75132 0.30222 0.25931 0.0
Zn27 Zn 0.70258 0.24409 0.24578 0.0
Zn28 Zn 0.74594 0.24986 0.32869 0.0
O29 O 0.76527 0.32508 0.31272 0.0
O30 O 0.76649 0.28806 0.36126 0.0
O31 O 0.80669 0.27349 0.20107 0.0
O32 O 0.78792 0.31433 0.22099 0.0
O33 O 0.71467 0.31708 0.23018 0.0
O34 O 0.68813 0.27316 0.20415 0.0
O35 O 0.6709 0.23461 0.29234 0.0
O36 O 0.80019 0.21781 0.27748 0.0
O37 O 0.7009 0.23199 0.35075 0.0
O38 O 0.77517 0.22008 0.3395 0.0
C39 C 0.71992 0.19374 0.19452 0.0
C40 C 0.7722 0.31645 0.35028 0.0
C41 C 0.6935 0.30226 0.20517 0.0
C42 C 0.80792 0.30259 0.20033 0.0
C43 C 0.6734 0.22858 0.33215 0.0
C44 C 0.79645 0.21089 0.31746 0.0
O45 O 0.70035 0.20567 0.21561 0.0
O46 O 0.71014 0.7119 0.26984 0.0
Zn47 Zn 0.74608 0.74445 0.2961 0.0
O48 O 0.7753 0.76451 0.2494 0.0
Zn49 Zn 0.81851 0.75761 0.25749 0.0
Zn50 Zn 0.76091 0.74858 0.19368 0.0
Zn51 Zn 0.77738 0.80864 0.247 0.0
O52 O 0.84889 0.79568 0.27652 0.0
O53 O 0.82053 0.83232 0.26646 0.0
O54 O 0.77121 0.72097 0.33859 0.0
O55 O 0.818 0.72749 0.30488 0.0
O56 O 0.8351 0.73835 0.20664 0.0
O57 O 0.79463 0.73295 0.15987 0.0
O58 O 0.74028 0.77906 0.16098 0.0
O59 O 0.72483 0.77661 0.32629 0.0
O60 O 0.76088 0.82375 0.19068 0.0
O61 O 0.74676 0.81872 0.28947 0.0
C62 C 0.70699 0.70123 0.23191 0.0
C63 C 0.84618 0.82367 0.27886 0.0
C64 C 0.82277 0.72928 0.1705 0.0
C65 C 0.79951 0.71533 0.33489 0.0
C66 C 0.74324 0.80811 0.16234 0.0
C67 C 0.72782 0.80549 0.31841 0.0
O68 O 0.72583 0.71281 0.20196 0.0
O69 O 0.28105 0.78291 0.32741 0.0
Zn70 Zn 0.25077 0.75513 0.28595 0.0
O71 O 0.23197 0.77969 0.24271 0.0
Zn72 Zn 0.18552 0.77375 0.24651 0.0
Zn73 Zn 0.24897 0.82189 0.2521 0.0
Zn74 Zn 0.24302 0.77118 0.18511 0.0
O75 O 0.16295 0.75511 0.19271 0.0
O76 O 0.2047 0.74723 0.15551 0.0
O77 O 0.21501 0.72578 0.3173 0.0
O78 O 0.17178 0.7405 0.28949 0.0
O79 O 0.17037 0.81121 0.26884 0.0
O80 O 0.21779 0.84104 0.28229 0.0
O81 O 0.26181 0.84551 0.1986 0.0
O82 O 0.27779 0.72917 0.25562 0.0
O83 O 0.26207 0.80932 0.15086 0.0
O84 O 0.27466 0.74377 0.18722 0.0
C85 C 0.2957 0.81056 0.32029 0.0
C86 C 0.17453 0.74302 0.16128 0.0
C87 C 0.18738 0.83527 0.28514 0.0
C88 C 0.18452 0.72306 0.31435 0.0
C89 C 0.26737 0.83752 0.161 0.0
C90 C 0.28548 0.72787 0.21633 0.0
O91 O 0.28751 0.82673 0.28952 0.0
O92 O 0.26326 0.69194 0.67679 0.0
Zn93 Zn 0.29247 0.72379 0.71475 0.0
O94 O 0.26753 0.75288 0.73732 0.0
Zn95 Zn 0.28385 0.79404 0.71669 0.0
Zn96 Zn 0.22379 0.74166 0.71835 0.0
Zn97 Zn 0.26729 0.75294 0.79974 0.0
O98 O 0.30465 0.81984 0.76545 0.0
O99 O 0.28452 0.79504 0.82466 0.0
O100 O 0.33028 0.74739 0.67976 0.0
O101 O 0.3185 0.79413 0.67468 0.0
O102 O 0.24933 0.81395 0.69016 0.0
O103 O 0.20547 0.77803 0.70062 0.0
O104 O 0.19692 0.71773 0.7641 0.0
O105 O 0.31241 0.70323 0.7645 0.0
O106 O 0.22514 0.72927 0.82419 0.0
O107 O 0.29884 0.7285 0.81996 0.0
C108 C 0.23602 0.69312 0.65926 0.0
C109 C 0.30202 0.81827 0.80618 0.0
C110 C 0.21896 0.80489 0.68825 0.0
C111 C 0.3359 0.77501 0.66515 0.0
C112 C 0.20004 0.71543 0.80457 0.0
C113 C 0.31408 0.70941 0.80443 0.0
O114 O 0.22022 0.71345 0.66932 0.0
O115 O 0.21364 0.20718 0.76003 0.0
Zn116 Zn 0.25044 0.23863 0.78771 0.0
O117 O 0.27632 0.26354 0.74113 0.0
Zn118 Zn 0.32192 0.26297 0.74549 0.0
Zn119 Zn 0.26178 0.24935 0.6843 0.0
Zn120 Zn 0.27307 0.30594 0.74414 0.0
O121 O 0.35006 0.3037 0.76081 0.0
O122 O 0.31371 0.3332 0.76221 0.0
O123 O 0.28026 0.21611 0.82495 0.0
O124 O 0.32702 0.23533 0.79416 0.0
O125 O 0.33832 0.24291 0.69517 0.0
O126 O 0.294 0.22895 0.65581 0.0
O127 O 0.24681 0.28203 0.64725 0.0
O128 O 0.22836 0.2665 0.82504 0.0
O129 O 0.25564 0.32167 0.69079 0.0
O130 O 0.2421 0.31042 0.78833 0.0
C131 C 0.20673 0.20173 0.72046 0.0
C132 C 0.3424 0.32945 0.76798 0.0
C133 C 0.32352 0.22882 0.66338 0.0
C134 C 0.31077 0.21825 0.82252 0.0
C135 C 0.24524 0.30971 0.65538 0.0
C136 C 0.22666 0.29471 0.81849 0.0
O137 O 0.22346 0.21645 0.69051 0.0
O138 O 0.79917 0.27267 0.81056 0.0
Zn139 Zn 0.76563 0.24471 0.77485 0.0
O140 O 0.73612 0.26762 0.74476 0.0
Zn141 Zn 0.69166 0.25164 0.75773 0.0
Zn142 Zn 0.74703 0.30987 0.76156 0.0
Zn143 Zn 0.74013 0.26555 0.68294 0.0
O144 O 0.66892 0.22902 0.70712 0.0
O145 O 0.69945 0.24635 0.65131 0.0
O146 O 0.74055 0.21122 0.81267 0.0
O147 O 0.6905 0.21801 0.8008 0.0
O148 O 0.66907 0.28423 0.78134 0.0
O149 O 0.70909 0.325 0.78275 0.0
O150 O 0.77019 0.33597 0.71414 0.0
O151 O 0.78789 0.22247 0.73271 0.0
O152 O 0.76603 0.30473 0.65863 0.0
O153 O 0.76683 0.2354 0.6711 0.0
C154 C 0.79955 0.29983 0.82334 0.0
C155 C 0.67466 0.22887 0.6671 0.0
C156 C 0.68 0.31237 0.79001 0.0
C157 C 0.71039 0.20345 0.81857 0.0
C158 C 0.77693 0.33052 0.67578 0.0
C159 C 0.7845 0.22031 0.69216 0.0
O160 O 0.77914 0.31532 0.80959 0.0
O161 O 0.79899 0.79067 0.76898 0.0
Zn162 Zn 0.76593 0.75731 0.79715 0.0
O163 O 0.738 0.73553 0.75163 0.0
Zn164 Zn 0.69587 0.74475 0.75703 0.0
Zn165 Zn 0.75456 0.74706 0.69389 0.0
Zn166 Zn 0.73387 0.69157 0.75819 0.0
O167 O 0.66319 0.70797 0.77604 0.0
O168 O 0.6888 0.66923 0.77045 0.0
O169 O 0.74139 0.78048 0.83721 0.0
O170 O 0.69632 0.77815 0.79903 0.0
O171 O 0.68136 0.75997 0.70149 0.0
O172 O 0.72046 0.76041 0.65476 0.0
O173 O 0.77427 0.71323 0.66826 0.0
O174 O 0.78923 0.7275 0.83014 0.0
O175 O 0.75317 0.67312 0.70934 0.0
O176 O 0.762 0.68301 0.80615 0.0
C177 C 0.80544 0.79836 0.72991 0.0
C178 C 0.66345 0.67934 0.77844 0.0
C179 C 0.69259 0.76516 0.66384 0.0
C180 C 0.71468 0.78893 0.83 0.0
C181 C 0.77086 0.68472 0.67813 0.0
C182 C 0.78381 0.69814 0.82996 0.0
O183 O 0.79027 0.78361 0.69887 0.0
Co184 Co 0.03724 0.95617 0.52514 0.0
Co185 Co 0.04097 0.97859 0.60121 0.0
Co186 Co 0.99411 0.00978 0.54351 0.0
O187 O 0.03471 0.99477 0.54847 0.0
H188 H 0.05313 0.0106 0.54143 0.0
O189 O 0.95438 0.02563 0.53685 0.0
Co190 Co 0.95307 0.06758 0.54646 0.0
Co191 Co 0.95161 0.03409 0.47832 0.0
H192 H 0.93557 0.01127 0.54662 0.0
O193 O 0.08149 0.97798 0.62074 0.0
O194 O 0.0485 0.94129 0.58302 0.0
O195 O 0.00539 0.97161 0.6391 0.0
O196 O 0.97036 0.98057 0.58861 0.0
O197 O 0.00984 0.03996 0.58817 0.0
O198 O 0.94722 0.10499 0.55573 0.0
O199 O 0.91016 0.0613 0.548 0.0
O200 O -0.00052 0.07974 0.55042 0.0
O201 O 0.0178 0.03876 0.4988 0.0
O202 O 0.98665 0.02951 0.44145 0.0
O203 O 0.95145 0.07562 0.48263 0.0
O204 O 0.91394 0.03835 0.45275 0.0
C205 C 0.07145 0.93906 0.49524 0.0
C206 C 0.97594 0.95073 0.50454 0.0
C207 C 0.97677 0.96994 0.62563 0.0
C208 C 0.07534 0.9508 0.60409 0.0
C209 C 0.91737 0.09067 0.55525 0.0
C210 C 0.01502 0.06873 0.58052 0.0
C211 C 0.01422 0.03829 0.45811 0.0
C212 C 0.92542 0.0673 0.45915 0.0
O213 O 0.04327 0.92201 0.50189 0.0
O214 O 0.07881 0.96662 0.51083 0.0
O215 O 0.97806 0.97944 0.49878 0.0
O216 O 0.9928 0.94093 0.53383 0.0
Co217 Co 0.54867 0.93992 0.99706 0.0
Co218 Co 0.53764 0.95383 0.07354 0.0
Co219 Co 0.51332 0.00238 0.00845 0.0
O220 O 0.54642 0.97774 0.02429 0.0
H221 H 0.5675 0.99067 0.02687 0.0
O222 O 0.47942 0.02649 0.99345 0.0
Co223 Co 0.47331 0.06134 0.02558 0.0
Co224 Co 0.48815 0.05409 0.94946 0.0
H225 H 0.45905 0.013 0.98773 0.0
O226 O 0.57125 0.94916 0.10824 0.0
O227 O 0.5487 0.91851 0.05429 0.0
O228 O 0.49442 0.9465 0.09415 0.0
O229 O 0.47958 0.98061 0.0485 0.0
O230 O 0.53261 0.03169 0.05377 0.0
O231 O 0.46389 0.092 0.05518 0.0
O232 O 0.42958 0.05279 0.02502 0.0
O233 O 0.5188 0.07509 0.03102 0.0
O234 O 0.54746 0.02453 0.96787 0.0
O235 O 0.53233 0.06598 0.93806 0.0
O236 O 0.4728 0.08628 0.97177 0.0
O237 O 0.4555 0.05894 0.91259 0.0
C238 C 0.5846 0.91869 0.97653 0.0
C239 C 0.48558 0.9439 0.97047 0.0
C240 C 0.4733 0.96027 0.07828 0.0
C241 C 0.57028 0.92499 0.08497 0.0
C242 C 0.43453 0.07815 0.04686 0.0
C243 C 0.53907 0.06081 0.04861 0.0
C244 C 0.55354 0.0503 0.94749 0.0
C245 C 0.45292 0.08056 0.93911 0.0
O246 O 0.55438 0.90624 0.97162 0.0
O247 O 0.59237 0.94528 0.99523 0.0
O248 O 0.49406 0.97278 0.96335 0.0
O249 O 0.50293 0.92937 0.99359 0.0
Co250 Co 0.04871 0.44027 0.98155 0.0
Co251 Co 0.0541 0.46541 0.057 0.0
Co252 Co 0.01074 0.50008 0.99371 0.0
O253 O 0.04981 0.48128 0.00157 0.0
H254 H 0.06929 0.49539 0.99347 0.0
O255 O 0.97122 0.51827 0.98578 0.0
Co256 Co 0.97244 0.5599 0.00191 0.0
Co257 Co 0.96687 0.53134 0.92846 0.0
H258 H 0.95191 0.50441 0.99507 0.0
O259 O 0.09332 0.45805 0.07848 0.0
O260 O 0.05635 0.4258 0.04061 0.0
O261 O 0.01692 0.46017 0.0926 0.0
O262 O 0.98558 0.474 0.04062 0.0
O263 O 0.03039 0.53357 0.03451 0.0
O264 O 0.97083 0.59763 0.01749 0.0
O265 O 0.93025 0.55643 0.01567 0.0
O266 O 0.01605 0.56864 0.99136 0.0
O267 O 0.03588 0.52582 0.94686 0.0
O268 O 0.00496 0.53772 0.89318 0.0
O269 O 0.96369 0.57105 0.94205 0.0
O270 O 0.9265 0.53673 0.90753 0.0
C271 C 0.08123 0.41649 0.9579 0.0
C272 C 0.98562 0.43954 0.96305 0.0
C273 C 0.98932 0.46084 0.07682 0.0
C274 C 0.08333 0.43116 0.06212 0.0
C275 C 0.94072 0.58557 0.02349 0.0
C276 C 0.0338 0.56163 0.02154 0.0
C277 C 0.03248 0.53825 0.91012 0.0
C278 C 0.93608 0.56402 0.92266 0.0
O279 O 0.05101 0.40394 0.96153 0.0
O280 O 0.09127 0.44488 0.96987 0.0
O281 O 0.99115 0.46788 0.95202 0.0
O282 O 0.00396 0.42957 0.99007 0.0
Co283 Co 0.52455 0.45295 0.0038 0.0
Co284 Co 0.54463 0.47541 0.07858 0.0
Co285 Co 0.49273 0.5105 0.04345 0.0
O286 O 0.53059 0.49274 0.02935 0.0
H287 H 0.54786 0.50756 0.01663 0.0
O288 O 0.45493 0.52815 0.0563 0.0
Co289 Co 0.45866 0.56879 0.07652 0.0
Co290 Co 0.44243 0.54245 0.00418 0.0
H291 H 0.43756 0.51349 0.0691 0.0
O292 O 0.58554 0.46708 0.08157 0.0
O293 O 0.54023 0.43628 0.05742 0.0
O294 O 0.51763 0.47133 0.12868 0.0
O295 O 0.47579 0.47861 0.08873 0.0
O296 O 0.51853 0.53609 0.08775 0.0
O297 O 0.45817 0.6053 0.09753 0.0
O298 O 0.41757 0.56421 0.09287 0.0
O299 O 0.50341 0.57849 0.06465 0.0
O300 O 0.50978 0.5426 -0.00137 0.0
O301 O 0.46879 0.54115 0.9538 0.0
O302 O 0.44697 0.58322 0.01794 0.0
O303 O 0.4022 0.54982 0.99617 0.0
C304 C 0.55156 0.43051 0.96736 0.0
C305 C 0.46373 0.45593 -0.00097 0.0
C306 C 0.48755 0.46902 0.12324 0.0
C307 C 0.57046 0.44055 0.06818 0.0
C308 C 0.42846 0.59232 0.10508 0.0
C309 C 0.52206 0.56523 0.08747 0.0
C310 C 0.49879 0.54709 0.96123 0.0
C311 C 0.4179 0.57779 0.00149 0.0
O312 O 0.52273 0.41712 0.97867 0.0
O313 O 0.56374 0.45819 0.9802 0.0
O314 O 0.4669 0.48498 -0.00097 0.0
O315 O 0.48201 0.44332 0.02307 0.0
Co316 Co 0.06976 0.46529 0.50311 0.0
Co317 Co 0.03712 0.46615 0.43227 0.0
Co318 Co 0.00682 0.5025 0.50598 0.0
O319 O 0.02574 0.46635 0.49021 0.0
H320 H 0.01159 0.44717 0.49775 0.0
O321 O 0.98757 0.53878 0.52138 0.0
Co322 Co 0.94314 0.53844 0.5074 0.0
Co323 Co 0.97629 0.53994 0.57923 0.0
H324 H 0.00131 0.55801 0.51309 0.0
O325 O 0.03915 0.42906 0.40577 0.0
O326 O 0.07868 0.45991 0.44153 0.0
O327 O 0.04244 0.50508 0.40183 0.0
O328 O 0.02714 0.52947 0.45733 0.0
O329 O 0.96835 0.48446 0.4699 0.0
O330 O 0.90341 0.54142 0.49292 0.0
O331 O 0.9469 0.57956 0.49788 0.0
O332 O 0.93292 0.4956 0.51479 0.0
O333 O 0.98622 0.47577 0.55505 0.0
O334 O 0.97428 0.50204 0.61095 0.0
O335 O 0.93351 0.54267 0.56846 0.0
O336 O 0.96957 0.57622 0.60528 0.0
C337 C 0.09521 0.4323 0.52005 0.0
C338 C 0.07402 0.52524 0.52581 0.0
C339 C 0.03949 0.52964 0.42018 0.0
C340 C 0.06882 0.4354 0.41903 0.0
C341 C 0.91626 0.57046 0.48928 0.0
C342 C 0.94022 0.47861 0.48589 0.0
C343 C 0.97532 0.47683 0.59298 0.0
C344 C 0.9404 0.56741 0.591 0.0
O345 O 0.10934 0.46097 0.51603 0.0
O346 O 0.0643 0.42426 0.513 0.0
O347 O 0.04572 0.52017 0.54156 0.0
O348 O 0.081 0.50837 0.49629 0.0
Co349 Co 0.57206 0.96448 0.51137 0.0
Co350 Co 0.55381 0.97598 0.43617 0.0
Co351 Co 0.50747 0.00047 0.50509 0.0
O352 O 0.53169 0.96909 0.48631 0.0
H353 H 0.51735 0.94931 0.48456 0.0
O354 O 0.48383 0.03236 0.52395 0.0
Co355 Co 0.44388 0.03803 0.49911 0.0
Co356 Co 0.46135 0.02415 0.57379 0.0
H357 H 0.49831 0.05199 0.52642 0.0
O358 O 0.55677 0.94324 0.4024 0.0
O359 O 0.59197 0.96506 0.45327 0.0
O360 O 0.55808 0.01672 0.41337 0.0
O361 O 0.52433 0.03206 0.45892 0.0
O362 O 0.47145 0.98045 0.46707 0.0
O363 O 0.40846 0.04696 0.47568 0.0
O364 O 0.45274 0.0799 0.49769 0.0
O365 O 0.42932 0.99493 0.49627 0.0
O366 O 0.49065 0.96859 0.55097 0.0
O367 O 0.45483 0.98254 0.59445 0.0
O368 O 0.42468 0.03757 0.55725 0.0
O369 O 0.46052 0.05612 0.60942 0.0
C370 C 0.59174 0.92757 0.52922 0.0
C371 C 0.57251 0.02722 0.53431 0.0
C372 C 0.54348 0.03699 0.42698 0.0
C373 C 0.58374 0.94456 0.42341 0.0
C374 C 0.42399 0.07508 0.48031 0.0
C375 C 0.44167 0.9754 0.47642 0.0
C376 C 0.47022 0.96272 0.58136 0.0
C377 C 0.43432 0.05725 0.58765 0.0
O378 O 0.60754 0.95549 0.53527 0.0
O379 O 0.56319 0.92323 0.51161 0.0
O380 O 0.54288 0.02022 0.54371 0.0
O381 O 0.5865 0.00844 0.51517 0.0
C382 C 0.16386 0.1226 0.31526 0.0
C383 C 0.1579 0.15216 0.30644 0.0
C384 C 0.14123 0.10044 0.33709 0.0
C385 C 0.11226 0.10825 0.35078 0.0
C386 C 0.10568 0.13768 0.34079 0.0
C387 C 0.1285 0.15922 0.31852 0.0
C388 C 0.14874 0.06906 0.34667 0.0
C389 C 0.07507 0.1469 0.35513 0.0
C390 C 0.03887 0.05036 0.38578 0.0
C391 C 0.04123 0.05283 0.43059 0.0
C392 C 0.0629 0.06692 0.35923 0.0
C393 C 0.08957 0.08661 0.37804 0.0
C394 C 0.09287 0.08796 0.42329 0.0
C395 C 0.06874 0.07086 0.44904 0.0
C396 C 0.05894 0.0645 0.31108 0.0
C397 C 0.12093 0.10884 0.44454 0.0
H398 H 0.18643 0.11689 0.30572 0.0
H399 H 0.12367 0.18198 0.31184 0.0
H400 H 0.15233 0.06615 0.38177 0.0
H401 H 0.12828 0.05079 0.33682 0.0
H402 H 0.17074 0.06561 0.33008 0.0
H403 H 0.07308 0.17026 0.34327 0.0
H404 H 0.05381 0.13025 0.34351 0.0
H405 H 0.07421 0.14649 0.39075 0.0
H406 H 0.01787 0.03608 0.37138 0.0
H407 H 0.07082 0.07274 0.48368 0.0
H408 H 0.08162 0.06116 0.29628 0.0
H409 H 0.05337 0.08622 0.29751 0.0
H410 H 0.03927 0.04525 0.30177 0.0
H411 H 0.14398 0.10482 0.43172 0.0
H412 H 0.12116 0.10545 0.48 0.0
H413 H 0.11969 0.13318 0.43721 0.0
C414 C 0.81054 0.18089 0.38156 0.0
C415 C 0.81745 0.19211 0.33948 0.0
C416 C 0.82965 0.16265 0.40284 0.0
C417 C 0.85658 0.15569 0.38177 0.0
C418 C 0.86429 0.16764 0.33982 0.0
C419 C 0.84453 0.18557 0.31907 0.0
C420 C 0.82045 0.1501 0.4474 0.0
C421 C 0.89297 0.16082 0.31646 0.0
C422 C 0.91823 0.1219 0.44761 0.0
C423 C 0.90825 0.09043 0.43984 0.0
C424 C 0.90165 0.14358 0.42907 0.0
C425 C 0.87472 0.13347 0.40191 0.0
C426 C 0.86459 0.10175 0.39406 0.0
C427 C 0.88141 0.08069 0.41311 0.0
C428 C 0.91285 0.1772 0.43865 0.0
C429 C 0.8358 0.08996 0.36565 0.0
H430 H 0.78976 0.18587 0.39778 0.0
H431 H 0.85029 0.19438 0.28679 0.0
H432 H 0.81585 0.1246 0.44759 0.0
H433 H 0.84053 0.15783 0.47032 0.0
H434 H 0.79861 0.1575 0.45912 0.0
H435 H 0.89718 0.17377 0.28545 0.0
H436 H 0.91493 0.16666 0.3368 0.0
H437 H 0.88919 0.13587 0.30994 0.0
H438 H 0.93889 0.12962 0.46827 0.0
H439 H 0.87343 0.05644 0.40684 0.0
H440 H 0.89375 0.18579 0.45583 0.0
H441 H 0.91744 0.1908 0.40826 0.0
H442 H 0.93508 0.18144 0.45875 0.0
H443 H 0.81404 0.09673 0.37869 0.0
H444 H 0.83105 0.06454 0.36285 0.0
H445 H 0.83963 0.10042 0.33298 0.0
C446 C 0.86272 0.8716 0.32085 0.0
C447 C 0.87059 0.84501 0.30386 0.0
C448 C 0.88231 0.88855 0.3521 0.0
C449 C 0.9108 0.87907 0.36614 0.0
C450 C 0.92003 0.85351 0.34708 0.0
C451 C 0.89969 0.83662 0.31638 0.0
C452 C 0.87158 0.91567 0.37174 0.0
C453 C 0.95071 0.84324 0.36037 0.0
C454 C 0.96878 0.93953 0.42704 0.0
C455 C 0.96176 0.93038 0.46978 0.0
C456 C 0.95363 0.92212 0.39291 0.0
C457 C 0.93019 0.89542 0.40183 0.0
C458 C 0.92367 0.88562 0.44507 0.0
C459 C 0.93997 0.90307 0.47867 0.0
C460 C 0.96196 0.93286 0.34737 0.0
C461 C 0.89844 0.85753 0.45586 0.0
H462 H 0.84026 0.87824 0.31161 0.0
H463 H 0.90604 0.81618 0.30333 0.0
H464 H 0.86707 0.91103 0.40652 0.0
H465 H 0.89077 0.93653 0.36886 0.0
H466 H 0.8493 0.92062 0.35634 0.0
H467 H 0.95609 0.82498 0.33941 0.0
H468 H 0.97131 0.863 0.35948 0.0
H469 H 0.94865 0.8342 0.39393 0.0
H470 H 0.98602 0.96056 0.42032 0.0
H471 H 0.93459 0.89618 0.51182 0.0
H472 H 0.94115 0.9406 0.33182 0.0
H473 H 0.96723 0.91363 0.32829 0.0
H474 H 0.98305 0.95217 0.34598 0.0
H475 H 0.87453 0.86116 0.4444 0.0
H476 H 0.89714 0.85235 0.49094 0.0
H477 H 0.90354 0.83722 0.43916 0.0
C478 C 0.19073 0.87002 0.34695 0.0
C479 C 0.17255 0.85494 0.31288 0.0
C480 C 0.17675 0.88616 0.377 0.0
C481 C 0.14402 0.88798 0.37214 0.0
C482 C 0.12591 0.87415 0.33662 0.0
C483 C 0.1403 0.85727 0.30768 0.0
C484 C 0.19654 0.89974 0.41519 0.0
C485 C 0.09109 0.87636 0.33001 0.0
C486 C 0.09455 0.89582 0.46956 0.0
C487 C 0.094 0.92723 0.46814 0.0
C488 C 0.11198 0.88303 0.43951 0.0
C489 C 0.12804 0.90199 0.40623 0.0
C490 C 0.12816 0.93394 0.4052 0.0
C491 C 0.11148 0.94633 0.4368 0.0
C492 C 0.11239 0.84907 0.44267 0.0
C493 C 0.14443 0.95468 0.36959 0.0
H494 H 0.21564 0.86798 0.3514 0.0
H495 H 0.12631 0.84575 0.28125 0.0
H496 H 0.19525 0.92431 0.41841 0.0
H497 H 0.18663 0.88759 0.44506 0.0
H498 H 0.2222 0.8979 0.41277 0.0
H499 H 0.08152 0.86737 0.2984 0.0
H500 H 0.0763 0.863 0.35567 0.0
H501 H 0.08824 0.90061 0.33222 0.0
H502 H 0.08073 0.88111 0.49364 0.0
H503 H 0.11047 0.97057 0.4354 0.0
H504 H 0.13753 0.8454 0.44243 0.0
H505 H 0.09979 0.83724 0.41446 0.0
H506 H 0.1006 0.83811 0.47228 0.0
H507 H 0.16995 0.95255 0.36705 0.0
H508 H 0.14348 0.97921 0.37455 0.0
H509 H 0.13254 0.94753 0.33845 0.0
C510 C 0.20927 0.8471 0.63876 0.0
C511 C 0.19872 0.82606 0.67219 0.0
C512 C 0.1898 0.86716 0.62319 0.0
C513 C 0.15978 0.86669 0.64269 0.0
C514 C 0.14911 0.84546 0.6765 0.0
C515 C 0.16857 0.82504 0.69041 0.0
C516 C 0.20131 0.88885 0.58611 0.0
C517 C 0.11743 0.84468 0.69851 0.0
C518 C 0.12403 0.9382 0.6402 0.0
C519 C 0.09813 0.92999 0.61152 0.0
C520 C 0.14483 0.91806 0.64975 0.0
C521 C 0.13996 0.8893 0.62944 0.0
C522 C 0.1146 0.88128 0.59927 0.0
C523 C 0.09371 0.90164 0.59102 0.0
C524 C 0.17119 0.92704 0.68292 0.0
C525 C 0.10934 0.85113 0.57607 0.0
H526 H 0.23249 0.84751 0.62439 0.0
H527 H 0.16055 0.80878 0.71639 0.0
H528 H 0.18302 0.88579 0.55988 0.0
H529 H 0.20448 0.913 0.59659 0.0
H530 H 0.22447 0.88515 0.57307 0.0
H531 H 0.11283 0.82685 0.7245 0.0
H532 H 0.11718 0.86741 0.71257 0.0
H533 H 0.09739 0.84006 0.67477 0.0
H534 H 0.12758 0.96006 0.65625 0.0
H535 H 0.07372 0.89515 0.56891 0.0
H536 H 0.19485 0.92554 0.66935 0.0
H537 H 0.167 0.91079 0.71082 0.0
H538 H 0.17243 0.95072 0.6946 0.0
H539 H 0.12971 0.85115 0.55411 0.0
H540 H 0.08665 0.84704 0.55693 0.0
H541 H 0.10865 0.83162 0.59918 0.0
C542 C 0.14904 0.17511 0.72908 0.0
C543 C 0.17821 0.17883 0.70718 0.0
C544 C 0.12072 0.15738 0.71153 0.0
C545 C 0.12191 0.14289 0.67157 0.0
C546 C 0.15167 0.14555 0.65047 0.0
C547 C 0.17932 0.16354 0.66842 0.0
C548 C 0.08939 0.15505 0.73487 0.0
C549 C 0.15421 0.13003 0.60827 0.0
C550 C 0.05839 0.07511 0.6367 0.0
C551 C 0.0411 0.08853 0.60519 0.0
C552 C 0.08383 0.09275 0.65976 0.0
C553 C 0.09233 0.12473 0.65138 0.0
C554 C 0.07445 0.13867 0.62057 0.0
C555 C 0.04905 0.12039 0.59776 0.0
C556 C 0.1024 0.07689 0.69196 0.0
C557 C 0.08281 0.17276 0.61079 0.0
H558 H 0.14804 0.18721 0.75874 0.0
H559 H 0.2019 0.16626 0.65148 0.0
H560 H 0.07262 0.16593 0.71496 0.0
H561 H 0.0778 0.13059 0.74001 0.0
H562 H 0.09272 0.16644 0.76649 0.0
H563 H 0.17937 0.13363 0.59673 0.0
H564 H 0.14477 0.10495 0.61165 0.0
H565 H 0.13936 0.1391 0.58337 0.0
H566 H 0.05243 0.05053 0.64302 0.0
H567 H 0.03574 0.131 0.57375 0.0
H568 H 0.1041 0.08857 0.72328 0.0
H569 H 0.1273 0.07827 0.6805 0.0
H570 H 0.09121 0.05228 0.69715 0.0
H571 H 0.08434 0.18586 0.64094 0.0
H572 H 0.06491 0.18051 0.58892 0.0
H573 H 0.10676 0.17852 0.59547 0.0
C574 C 0.82512 0.18682 0.68758 0.0
C575 C 0.80041 0.19931 0.66844 0.0
C576 C 0.84085 0.1676 0.66441 0.0
C577 C 0.83131 0.16062 0.62137 0.0
C578 C 0.80567 0.17232 0.60237 0.0
C579 C 0.79066 0.19174 0.62607 0.0
C580 C 0.86819 0.15538 0.68561 0.0
C581 C 0.79478 0.16544 0.55661 0.0
C582 C 0.89866 0.13994 0.55875 0.0
C583 C 0.89212 0.1079 0.56386 0.0
C584 C 0.87752 0.15745 0.5744 0.0
C585 C 0.84955 0.14239 0.59597 0.0
C586 C 0.84135 0.10992 0.5976 0.0
C587 C 0.86283 0.09291 0.58126 0.0
C588 C 0.88635 0.19207 0.57068 0.0
C589 C 0.81108 0.09326 0.61923 0.0
H590 H 0.83261 0.19255 0.72032 0.0
H591 H 0.77127 0.20106 0.61118 0.0
H592 H 0.86354 0.12993 0.68414 0.0
H593 H 0.89084 0.16426 0.6681 0.0
H594 H 0.8718 0.16209 0.71977 0.0
H595 H 0.76979 0.1689 0.55092 0.0
H596 H 0.8108 0.18129 0.53461 0.0
H597 H 0.79604 0.14156 0.54808 0.0
H598 H 0.92099 0.15145 0.54417 0.0
H599 H 0.85764 0.06806 0.58465 0.0
H600 H 0.89283 0.20173 0.60293 0.0
H601 H 0.86555 0.2016 0.5585 0.0
H602 H 0.907 0.19992 0.54891 0.0
H603 H 0.81344 0.09656 0.65445 0.0
H604 H 0.80625 0.0682 0.61304 0.0
H605 H 0.79008 0.10288 0.60798 0.0
C606 C 0.84729 0.82697 0.68118 0.0
C607 C 0.83056 0.82549 0.71985 0.0
C608 C 0.87049 0.85289 0.67007 0.0
C609 C 0.87653 0.87824 0.6979 0.0
C610 C 0.85953 0.87702 0.73688 0.0
C611 C 0.83696 0.8504 0.7477 0.0
C612 C 0.88865 0.85304 0.62863 0.0
C613 C 0.86487 0.90393 0.76675 0.0
C614 C 0.95789 0.92927 0.68108 0.0
C615 C 0.95057 0.95055 0.65032 0.0
C616 C 0.9337 0.90656 0.69882 0.0
C617 C 0.90135 0.90553 0.68619 0.0
C618 C 0.89351 0.9285 0.65797 0.0
C619 C 0.9183 0.9506 0.63996 0.0
C620 C 0.94311 0.8822 0.7283 0.0
C621 C 0.85916 0.92858 0.64468 0.0
H622 H 0.84246 0.80765 0.65971 0.0
H623 H 0.82371 0.8494 0.77739 0.0
H624 H 0.88422 0.87211 0.6072 0.0
H625 H 0.91489 0.85698 0.63539 0.0
H626 H 0.8816 0.83113 0.61117 0.0
H627 H 0.84929 0.89949 0.79548 0.0
H628 H 0.89035 0.90926 0.77758 0.0
H629 H 0.85992 0.92467 0.74943 0.0
H630 H 0.98277 0.92902 0.68934 0.0
H631 H 0.91245 0.96719 0.61658 0.0
H632 H 0.93931 0.86001 0.71132 0.0
H633 H 0.92781 0.87863 0.75725 0.0
H634 H 0.96871 0.88817 0.73869 0.0
H635 H 0.85073 0.90959 0.62214 0.0
H636 H 0.85663 0.95056 0.62846 0.0
H637 H 0.84317 0.92467 0.67299 0.0
C638 C 0.30558 0.18088 0.10653 0.0
C639 C 0.29212 0.17025 0.14627 0.0
C640 C 0.32468 0.16399 0.08416 0.0
C641 C 0.33098 0.13614 0.10231 0.0
C642 C 0.31543 0.1242 0.14068 0.0
C643 C 0.29608 0.14125 0.16199 0.0
C644 C 0.33976 0.17706 0.04257 0.0
C645 C 0.32121 0.09454 0.16112 0.0
C646 C 0.37624 0.08304 0.04383 0.0
C647 C 0.40753 0.09256 0.06028 0.0
C648 C 0.35113 0.09766 0.05583 0.0
C649 C 0.3574 0.12202 0.08542 0.0
C650 C 0.38905 0.13191 0.10151 0.0
C651 C 0.41362 0.11719 0.08868 0.0
C652 C 0.31784 0.08653 0.03756 0.0
C653 C 0.39695 0.15779 0.13305 0.0
H654 H 0.30237 0.20301 0.09371 0.0
H655 H 0.28551 0.13249 0.19237 0.0
H656 H 0.36484 0.18902 0.04902 0.0
H657 H 0.34042 0.15851 0.01953 0.0
H658 H 0.32655 0.19391 0.02748 0.0
H659 H 0.30472 0.08669 0.18828 0.0
H660 H 0.31812 0.07611 0.13705 0.0
H661 H 0.34634 0.09787 0.17341 0.0
H662 H 0.3714 0.06434 0.02136 0.0
H663 H 0.43771 0.1249 0.10137 0.0
H664 H 0.30565 0.10604 0.03023 0.0
H665 H 0.30314 0.07133 0.0616 0.0
H666 H 0.31845 0.07325 0.00785 0.0
H667 H 0.39017 0.1789 0.11917 0.0
H668 H 0.4229 0.16312 0.14187 0.0
H669 H 0.38285 0.1516 0.16281 0.0
C670 C 0.83384 0.35618 0.17977 0.0
C671 C 0.83381 0.32449 0.17789 0.0
C672 C 0.85892 0.37817 0.16279 0.0
C673 C 0.88465 0.36849 0.14251 0.0
C674 C 0.88449 0.33661 0.13899 0.0
C675 C 0.85912 0.31489 0.15706 0.0
C676 C 0.85822 0.41189 0.16758 0.0
C677 C 0.91141 0.32549 0.11699 0.0
C678 C 0.93418 0.42888 0.06971 0.0
C679 C 0.9612 0.43983 0.09567 0.0
C680 C 0.90969 0.40492 0.08398 0.0
C681 C 0.91173 0.3921 0.12569 0.0
C682 C 0.93845 0.40358 0.15255 0.0
C683 C 0.963 0.42712 0.13708 0.0
C684 C 0.88172 0.39323 0.05425 0.0
C685 C 0.94108 0.39098 0.19763 0.0
H686 H 0.81444 0.36412 0.19552 0.0
H687 H 0.85937 0.29056 0.15543 0.0
H688 H 0.87968 0.42329 0.18603 0.0
H689 H 0.85909 0.42346 0.13556 0.0
H690 H 0.83636 0.41557 0.18432 0.0
H691 H 0.90548 0.30038 0.11123 0.0
H692 H 0.91701 0.33785 0.08583 0.0
H693 H 0.93346 0.33045 0.13729 0.0
H694 H 0.9327 0.43816 0.03741 0.0
H695 H 0.98386 0.43529 0.15722 0.0
H696 H 0.85944 0.39903 0.06708 0.0
H697 H 0.87776 0.36782 0.05235 0.0
H698 H 0.88552 0.40331 0.02131 0.0
H699 H 0.92021 0.39433 0.21678 0.0
H700 H 0.96352 0.40221 0.2143 0.0
H701 H 0.94048 0.36589 0.19682 0.0
C702 C 0.72439 0.84731 0.11405 0.0
C703 C 0.71773 0.82174 0.1419 0.0
C704 C 0.69954 0.86209 0.09973 0.0
C705 C 0.66797 0.85199 0.11574 0.0
C706 C 0.66126 0.8258 0.1433 0.0
C707 C 0.68612 0.81066 0.15529 0.0
C708 C 0.70742 0.88931 0.06913 0.0
C709 C 0.62834 0.81491 0.16244 0.0
C710 C 0.61713 0.91273 0.12657 0.0
C711 C 0.59418 0.90519 0.09361 0.0
C712 C 0.64105 0.89545 0.13417 0.0
C713 C 0.64266 0.87041 0.10749 0.0
C714 C 0.61931 0.86231 0.07461 0.0
C715 C 0.59507 0.87955 0.06843 0.0
C716 C 0.66439 0.90384 0.17115 0.0
C717 C 0.62047 0.83608 0.04505 0.0
H718 H 0.74893 0.8559 0.10397 0.0
H719 H 0.6812 0.79113 0.17747 0.0
H720 H 0.68747 0.88976 0.04579 0.0
H721 H 0.71104 0.91086 0.08755 0.0
H722 H 0.72979 0.88906 0.05113 0.0
H723 H 0.62686 0.79346 0.18206 0.0
H724 H 0.62246 0.83304 0.1832 0.0
H725 H 0.60971 0.81074 0.13674 0.0
H726 H 0.61649 0.93224 0.14664 0.0
H727 H 0.57711 0.87315 0.04349 0.0
H728 H 0.6892 0.91087 0.15881 0.0
H729 H 0.66402 0.88357 0.19282 0.0
H730 H 0.65876 0.92292 0.19028 0.0
H731 H 0.64064 0.84333 0.02257 0.0
H732 H 0.59788 0.82945 0.02609 0.0
H733 H 0.6251 0.81553 0.06308 0.0
C734 C 0.12065 0.71013 0.14513 0.0
C735 C 0.15349 0.71898 0.13594 0.0
C736 C 0.10187 0.6839 0.12664 0.0
C737 C 0.11637 0.66599 0.09865 0.0
C738 C 0.14923 0.67522 0.08833 0.0
C739 C 0.16729 0.70173 0.10674 0.0
C740 C 0.06663 0.67509 0.1375 0.0
C741 C 0.1655 0.65675 0.0585 0.0
C742 C 0.07299 0.58357 0.07983 0.0
C743 C 0.05736 0.587 0.04063 0.0
C744 C 0.09282 0.60906 0.09897 0.0
C745 C 0.09678 0.63842 0.0784 0.0
C746 C 0.0818 0.64169 0.03827 0.0
C747 C 0.06257 0.61598 0.01981 0.0
C748 C 0.10909 0.60476 0.14148 0.0
C749 C 0.0854 0.67251 0.01518 0.0
H750 H 0.10977 0.72318 0.16772 0.0
H751 H 0.19266 0.70824 0.09941 0.0
H752 H 0.05183 0.67391 0.10766 0.0
H753 H 0.06154 0.65192 0.15301 0.0
H754 H 0.05894 0.69166 0.1594 0.0
H755 H 0.1622 0.63256 0.07027 0.0
H756 H 0.15433 0.65643 0.02605 0.0
H757 H 0.19167 0.66619 0.05553 0.0
H758 H 0.06916 0.56126 0.09594 0.0
H759 H 0.05106 0.61886 0.98907 0.0
H760 H 0.10006 0.61832 0.1664 0.0
H761 H 0.13539 0.61345 0.13898 0.0
H762 H 0.10482 0.58027 0.15229 0.0
H763 H 0.07694 0.68925 0.03597 0.0
H764 H 0.07162 0.67113 0.98443 0.0
H765 H 0.11108 0.68174 0.00821 0.0
C766 C 0.34929 0.86171 0.81254 0.0
C767 C 0.32367 0.84152 0.83233 0.0
C768 C 0.37356 0.87997 0.83691 0.0
C769 C 0.372 0.87856 0.88232 0.0
C770 C 0.34517 0.85975 0.90245 0.0
C771 C 0.32146 0.84127 0.87727 0.0
C772 C 0.40187 0.89938 0.81401 0.0
C773 C 0.34224 0.85813 0.95066 0.0
C774 C 0.45256 0.89557 0.94123 0.0
C775 C 0.45562 0.92681 0.95041 0.0
C776 C 0.42516 0.87948 0.9199 0.0
C777 C 0.39979 0.89477 0.9084 0.0
C778 C 0.40213 0.92595 0.91937 0.0
C779 C 0.43021 0.94172 0.9397 0.0
C780 C 0.42391 0.84639 0.90828 0.0
C781 C 0.37526 0.94282 0.9089 0.0
H782 H 0.3514 0.86213 0.77786 0.0
H783 H 0.30173 0.8259 0.8929 0.0
H784 H 0.4057 0.92349 0.8248 0.0
H785 H 0.42402 0.89057 0.82213 0.0
H786 H 0.39862 0.89925 0.77853 0.0
H787 H 0.36166 0.84745 0.9648 0.0
H788 H 0.34523 0.88162 0.96356 0.0
H789 H 0.31871 0.84452 0.96128 0.0
H790 H 0.47211 0.88393 0.94941 0.0
H791 H 0.43223 0.96574 0.94729 0.0
H792 H 0.42274 0.84421 0.87282 0.0
H793 H 0.40192 0.83155 0.92146 0.0
H794 H 0.4452 0.83759 0.92056 0.0
H795 H 0.37238 0.94487 0.87355 0.0
H796 H 0.37977 0.96626 0.92245 0.0
H797 H 0.35219 0.92969 0.92162 0.0
C798 C 0.19724 0.33732 0.82718 0.0
C799 C 0.20569 0.31035 0.84426 0.0
C800 C 0.17799 0.35355 0.84979 0.0
C801 C 0.16694 0.3429 0.89103 0.0
C802 C 0.1755 0.31585 0.90892 0.0
C803 C 0.19455 0.29963 0.88505 0.0
C804 C 0.16893 0.38182 0.82893 0.0
C805 C 0.1642 0.30363 0.95279 0.0
C806 C 0.13666 0.40483 0.95168 0.0
C807 C 0.10362 0.39741 0.94259 0.0
C808 C 0.15746 0.386 0.93774 0.0
C809 C 0.14494 0.35954 0.91351 0.0
C810 C 0.11147 0.35151 0.90553 0.0
C811 C 0.09126 0.37043 0.92028 0.0
C812 C 0.19295 0.39508 0.94756 0.0
C813 C 0.09711 0.32359 0.87979 0.0
H814 H 0.20533 0.34571 0.79546 0.0
H815 H 0.20098 0.27888 0.8985 0.0
H816 H 0.14239 0.3785 0.82554 0.0
H817 H 0.17697 0.40206 0.84944 0.0
H818 H 0.17967 0.38708 0.79663 0.0
H819 H 0.18059 0.28952 0.96752 0.0
H820 H 0.16235 0.32253 0.97468 0.0
H821 H 0.13998 0.28883 0.94976 0.0
H822 H 0.14625 0.42525 0.96978 0.0
H823 H 0.06568 0.36433 0.91352 0.0
H824 H 0.19775 0.41114 0.97482 0.0
H825 H 0.20547 0.4067 0.91888 0.0
H826 H 0.20345 0.37455 0.95531 0.0
H827 H 0.10628 0.32656 0.84644 0.0
H828 H 0.07042 0.31955 0.87848 0.0
H829 H 0.10447 0.30283 0.8939 0.0
C830 C 0.71336 0.16282 0.87532 0.0
C831 C 0.69707 0.17446 0.84125 0.0
C832 C 0.6985 0.13631 0.89835 0.0
C833 C 0.66694 0.1215 0.88658 0.0
C834 C 0.65194 0.13167 0.84954 0.0
C835 C 0.66715 0.15805 0.82759 0.0
C836 C 0.71589 0.12574 0.93666 0.0
C837 C 0.61861 0.11624 0.83481 0.0
C838 C 0.60893 0.05094 0.92026 0.0
C839 C 0.58709 0.06526 0.94124 0.0
C840 C 0.63889 0.06825 0.90764 0.0
C841 C 0.64637 0.10008 0.91639 0.0
C842 C 0.62649 0.11287 0.94395 0.0
C843 C 0.59676 0.09537 0.95542 0.0
C844 C 0.66074 0.05347 0.88086 0.0
C845 C 0.63406 0.14633 0.95586 0.0
H846 H 0.73695 0.17509 0.88517 0.0
H847 H 0.65511 0.1663 0.80003 0.0
H848 H 0.71475 0.14126 0.96377 0.0
H849 H 0.70545 0.10183 0.94707 0.0
H850 H 0.74171 0.12729 0.92923 0.0
H851 H 0.61166 0.12573 0.80353 0.0
H852 H 0.61724 0.0912 0.83136 0.0
H853 H 0.60066 0.1194 0.85904 0.0
H854 H 0.60173 0.02717 0.91088 0.0
H855 H 0.58017 0.10591 0.97336 0.0
H856 H 0.68636 0.06374 0.88734 0.0
H857 H 0.65573 0.05734 0.84631 0.0
H858 H 0.65674 0.02826 0.88719 0.0
H859 H 0.6602 0.15438 0.96129 0.0
H860 H 0.62111 0.15045 0.98528 0.0
H861 H 0.62644 0.16036 0.92913 0.0
C862 C 0.82787 0.69361 0.88384 0.0
C863 C 0.80603 0.68068 0.85189 0.0
C864 C 0.85042 0.6772 0.90149 0.0
C865 C 0.85163 0.64765 0.8858 0.0
C866 C 0.82971 0.63469 0.85344 0.0
C867 C 0.80697 0.65107 0.83754 0.0
C868 C 0.87333 0.69216 0.93579 0.0
C869 C 0.83091 0.60388 0.83433 0.0
C870 C 0.92637 0.61298 0.89026 0.0
C871 C 0.9161 0.58731 0.91698 0.0
C872 C 0.9063 0.63411 0.88164 0.0
C873 C 0.87593 0.62994 0.90172 0.0
C874 C 0.86689 0.60543 0.93181 0.0
C875 C 0.88668 0.58381 0.93804 0.0
C876 C 0.9167 0.65969 0.84906 0.0
C877 C 0.83561 0.60092 0.9558 0.0
H878 H 0.82752 0.71655 0.89487 0.0
H879 H 0.79064 0.64094 0.81233 0.0
H880 H 0.88324 0.67513 0.95572 0.0
H881 H 0.89364 0.70807 0.92032 0.0
H882 H 0.86124 0.70607 0.95705 0.0
H883 H 0.81365 0.59815 0.80715 0.0
H884 H 0.85547 0.60379 0.82255 0.0
H885 H 0.82525 0.58546 0.85928 0.0
H886 H 0.9494 0.61566 0.87447 0.0
H887 H 0.87914 0.56414 0.95939 0.0
H888 H 0.91613 0.6822 0.86348 0.0
H889 H 0.89969 0.65689 0.82132 0.0
H890 H 0.94131 0.66013 0.83701 0.0
H891 H 0.83762 0.58937 0.98748 0.0
H892 H 0.81653 0.58605 0.93689 0.0
H893 H 0.82798 0.62307 0.96099 0.0
C894 C 0.14975 0.28761 0.14957 0.0
C895 C 0.18105 0.28593 0.13706 0.0
C896 C 0.1342 0.31039 0.13275 0.0
C897 C 0.14973 0.33144 0.10132 0.0
C898 C 0.18015 0.32829 0.08577 0.0
C899 C 0.19566 0.3058 0.10422 0.0
C900 C 0.1021 0.31325 0.15097 0.0
C901 C 0.19746 0.34962 0.05153 0.0
C902 C 0.09284 0.378 0.04925 0.0
C903 C 0.1016 0.40621 0.07004 0.0
C904 C 0.10988 0.35424 0.05656 0.0
C905 C 0.13494 0.35795 0.08769 0.0
C906 C 0.14381 0.3863 0.10901 0.0
C907 C 0.12749 0.41028 0.09927 0.0
C908 C 0.09997 0.32495 0.03182 0.0
C909 C 0.16972 0.39093 0.14337 0.0
H910 H 0.13807 0.27239 0.1748 0.0
H911 H 0.21976 0.30469 0.09412 0.0
H912 H 0.10387 0.33632 0.16503 0.0
H913 H 0.08365 0.31098 0.12504 0.0
H914 H 0.0937 0.29555 0.17626 0.0
H915 H 0.21116 0.33707 0.03039 0.0
H916 H 0.18076 0.36041 0.03141 0.0
H917 H 0.21505 0.36812 0.06703 0.0
H918 H 0.07252 0.37421 0.02728 0.0
H919 H 0.13436 0.43188 0.11573 0.0
H920 H 0.07897 0.31026 0.04761 0.0
H921 H 0.11951 0.31168 0.03011 0.0
H922 H 0.09241 0.33006 -0.00141 0.0
H923 H 0.16402 0.37279 0.16878 0.0
H924 H 0.17255 0.41374 0.15856 0.0
H925 H 0.19306 0.38892 0.12928 0.0
C926 C 0.18527 0.66093 0.82619 0.0
C927 C 0.17801 0.69036 0.82642 0.0
C928 C 0.16272 0.63509 0.83957 0.0
C929 C 0.1323 0.63892 0.85402 0.0
C930 C 0.12527 0.66886 0.85571 0.0
C931 C 0.14815 0.69431 0.8412 0.0
C932 C 0.17105 0.60362 0.83684 0.0
C933 C 0.09337 0.67389 0.87191 0.0
C934 C 0.06095 0.57177 0.85071 0.0
C935 C 0.06041 0.56065 0.89324 0.0
C936 C 0.08482 0.59671 0.83712 0.0
C937 C 0.10787 0.61152 0.86719 0.0
C938 C 0.10767 0.60013 0.90995 0.0
C939 C 0.08446 0.57447 0.92214 0.0
C940 C 0.08494 0.60766 0.79086 0.0
C941 C 0.1311 0.6158 0.94338 0.0
H942 H 0.20826 0.65803 0.81383 0.0
H943 H 0.1425 0.71712 0.84053 0.0
H944 H 0.16875 0.59196 0.86885 0.0
H945 H 0.15392 0.58919 0.81479 0.0
H946 H 0.19587 0.60466 0.82514 0.0
H947 H 0.09256 0.69869 0.87409 0.0
H948 H 0.07376 0.66294 0.85005 0.0
H949 H 0.08849 0.66288 0.90412 0.0
H950 H 0.04241 0.56131 0.82831 0.0
H951 H 0.08416 0.56636 0.95523 0.0
H952 H 0.10902 0.60862 0.77677 0.0
H953 H 0.07997 0.63129 0.78913 0.0
H954 H 0.0667 0.59251 0.77095 0.0
H955 H 0.15618 0.61681 0.93295 0.0
H956 H 0.12783 0.60392 0.97527 0.0
H957 H 0.12791 0.63984 0.9471 0.0
C958 C 0.31346 0.17668 0.87917 0.0
C959 C 0.32876 0.19961 0.85052 0.0
C960 C 0.33112 0.15724 0.90139 0.0
C961 C 0.36459 0.16041 0.89386 0.0
C962 C 0.38023 0.18445 0.86663 0.0
C963 C 0.36231 0.20386 0.84594 0.0
C964 C 0.31348 0.13271 0.93139 0.0
C965 C 0.4158 0.18886 0.85753 0.0
C966 C 0.42639 0.12479 0.95609 0.0
C967 C 0.42817 0.0995 0.93065 0.0
C968 C 0.40405 0.14365 0.94667 0.0
C969 C 0.38323 0.13732 0.91053 0.0
C970 C 0.38401 0.11102 0.88591 0.0
C971 C 0.40628 0.0924 0.8964 0.0
C972 C 0.40451 0.17115 0.97443 0.0
C973 C 0.36269 0.10359 0.84674 0.0
H974 H 0.28768 0.17334 0.88343 0.0
H975 H 0.37476 0.22182 0.82466 0.0
H976 H 0.30135 0.11281 0.91236 0.0
H977 H 0.32984 0.12455 0.95513 0.0
H978 H 0.29457 0.14141 0.94893 0.0
H979 H 0.42412 0.20819 0.83452 0.0
H980 H 0.42981 0.19351 0.88783 0.0
H981 H 0.42134 0.16755 0.84405 0.0
H982 H 0.44299 0.13045 0.98283 0.0
H983 H 0.4071 0.07267 0.87684 0.0
H984 H 0.38358 0.18229 0.96862 0.0
H985 H 0.42684 0.18835 0.9682 0.0
H986 H 0.40517 0.16416 0.00887 0.0
H987 H 0.33711 0.10156 0.85557 0.0
H988 H 0.3656 0.08183 0.83171 0.0
H989 H 0.36843 0.12254 0.82249 0.0
C990 C 0.82042 0.33786 0.87944 0.0
C991 C 0.82601 0.31553 0.85091 0.0
C992 C 0.84598 0.35672 0.90079 0.0
C993 C 0.87791 0.35362 0.89257 0.0
C994 C 0.88361 0.33035 0.86493 0.0
C995 C 0.85749 0.31129 0.84477 0.0
C996 C 0.83886 0.38054 0.93117 0.0
C997 C 0.91736 0.32672 0.85478 0.0
C998 C 0.94304 0.42492 0.90674 0.0
C999 C 0.95745 0.41812 0.94558 0.0
C1000 C 0.91731 0.40395 0.88892 0.0
C1001 C 0.90532 0.37585 0.91101 0.0
C1002 C 0.91939 0.36914 0.95066 0.0
C1003 C 0.94547 0.39025 0.9673 0.0
C1004 C 0.90318 0.41172 0.84622 0.0
C1005 C 0.90695 0.33966 0.97543 0.0
H1006 H 0.79602 0.34102 0.88431 0.0
H1007 H 0.86184 0.2943 0.82225 0.0
H1008 H 0.8507 0.40389 0.92002 0.0
H1009 H 0.81266 0.37992 0.93409 0.0
H1010 H 0.84879 0.37664 0.96351 0.0
H1011 H 0.91764 0.30632 0.83483 0.0
H1012 H 0.93 0.34753 0.83718 0.0
H1013 H 0.93118 0.32455 0.88483 0.0
H1014 H 0.95234 0.44636 0.88976 0.0
H1015 H 0.95635 0.38499 0.99758 0.0
H1016 H 0.87738 0.41251 0.84994 0.0
H1017 H 0.90458 0.39356 0.82277 0.0
H1018 H 0.91575 0.43418 0.83268 0.0
H1019 H 0.88105 0.33777 0.98239 0.0
H1020 H 0.92018 0.33823 0.0062 0.0
H1021 H 0.90915 0.31961 0.95583 0.0
C1022 C 0.68909 0.83428 0.83622 0.0
C1023 C 0.70458 0.81258 0.85642 0.0
C1024 C 0.67525 0.85459 0.86012 0.0
C1025 C 0.67611 0.85269 0.90557 0.0
C1026 C 0.69356 0.83211 0.92619 0.0
C1027 C 0.70787 0.81241 0.90124 0.0
C1028 C 0.65774 0.87665 0.83657 0.0
C1029 C 0.69521 0.82902 0.97443 0.0
C1030 C 0.64208 0.91515 0.96083 0.0
C1031 C 0.60929 0.90157 0.96229 0.0
C1032 C 0.66473 0.899 0.94461 0.0
C1033 C 0.65435 0.86854 0.93015 0.0
C1034 C 0.62161 0.85425 0.93405 0.0
C1035 C 0.59955 0.87097 0.94955 0.0
C1036 C 0.69947 0.91494 0.94123 0.0
C1037 C 0.60959 0.82143 0.92067 0.0
H1038 H 0.68702 0.83481 0.80145 0.0
H1039 H 0.71992 0.79567 0.91691 0.0
H1040 H 0.63142 0.86865 0.84022 0.0
H1041 H 0.66421 0.89991 0.8504 0.0
H1042 H 0.66324 0.87842 0.80172 0.0
H1043 H 0.71715 0.82064 0.98503 0.0
H1044 H 0.69496 0.85113 0.99011 0.0
H1045 H 0.67401 0.81198 0.98562 0.0
H1046 H 0.64988 0.93865 0.97108 0.0
H1047 H 0.57443 0.85992 0.95147 0.0
H1048 H 0.70583 0.91912 0.90687 0.0
H1049 H 0.71541 0.90011 0.95516 0.0
H1050 H 0.70434 0.9373 0.95785 0.0
H1051 H 0.61124 0.81989 0.88528 0.0
H1052 H 0.58423 0.81265 0.93009 0.0
H1053 H 0.62479 0.8062 0.93546 0.0
C1054 C 0.82666 0.69945 0.10356 0.0
C1055 C 0.83969 0.71045 0.14328 0.0
C1056 C 0.84055 0.67877 0.08004 0.0
C1057 C 0.86783 0.66837 0.09695 0.0
C1058 C 0.8813 0.67968 0.13673 0.0
C1059 C 0.86727 0.7007 0.15914 0.0
C1060 C 0.82531 0.66752 0.03778 0.0
C1061 C 0.91019 0.66903 0.15617 0.0
C1062 C 0.89152 0.59417 0.06177 0.0
C1063 C 0.91904 0.60573 0.03769 0.0
C1064 C 0.8736 0.61423 0.07983 0.0
C1065 C 0.88321 0.64642 0.07294 0.0
C1066 C 0.90957 0.65789 0.04596 0.0
C1067 C 0.92729 0.63746 0.029 0.0
C1068 C 0.84535 0.60113 0.10795 0.0
C1069 C 0.9201 0.6919 0.0366 0.0
H1070 H 0.80521 0.70656 0.09107 0.0
H1071 H 0.87745 0.70875 0.18992 0.0
H1072 H 0.8435 0.66325 0.01472 0.0
H1073 H 0.80813 0.64552 0.04337 0.0
H1074 H 0.81179 0.68422 0.02296 0.0
H1075 H 0.9171 0.67921 0.18805 0.0
H1076 H 0.90504 0.64361 0.15995 0.0
H1077 H 0.93105 0.67535 0.13444 0.0
H1078 H 0.88489 0.56964 0.06818 0.0
H1079 H 0.94812 0.6465 0.0095 0.0
H1080 H 0.8236 0.60923 0.09615 0.0
H1081 H 0.85027 0.60943 0.14121 0.0
H1082 H 0.84018 0.57558 0.10882 0.0
H1083 H 0.89902 0.70266 0.02961 0.0
H1084 H 0.93676 0.69652 0.00897 0.0
H1085 H 0.93264 0.7032 0.06524 0.0
C1086 C 0.29157 0.89196 0.14372 0.0
C1087 C 0.28723 0.86082 0.13313 0.0
C1088 C 0.31877 0.91298 0.13001 0.0
C1089 C 0.34178 0.90244 0.10499 0.0
C1090 C 0.33523 0.87212 0.08932 0.0
C1091 C 0.30775 0.8516 0.10339 0.0
C1092 C 0.32466 0.94532 0.14671 0.0
C1093 C 0.35916 0.86012 0.06227 0.0
C1094 C 0.41522 0.9553 0.06033 0.0
C1095 C 0.43922 0.94946 0.08922 0.0
C1096 C 0.38304 0.94106 0.06577 0.0
C1097 C 0.37465 0.92099 0.10135 0.0
C1098 C 0.39837 0.91658 0.13218 0.0
C1099 C 0.43051 0.93068 0.12549 0.0
C1100 C 0.35851 0.94601 0.03203 0.0
C1101 C 0.39004 0.89582 0.17119 0.0
H1102 H 0.27534 0.89933 0.16605 0.0
H1103 H 0.30437 0.82764 0.09468 0.0
H1104 H 0.34172 0.94703 0.17432 0.0
H1105 H 0.3356 0.96224 0.12178 0.0
H1106 H 0.30208 0.95166 0.1578 0.0
H1107 H 0.34779 0.83885 0.04543 0.0
H1108 H 0.37034 0.87765 0.03822 0.0
H1109 H 0.37868 0.85462 0.08332 0.0
H1110 H 0.42173 0.9697 0.03202 0.0
H1111 H 0.44893 0.9263 0.14799 0.0
H1112 H 0.33647 0.95062 0.04715 0.0
H1113 H 0.3514 0.92483 0.01312 0.0
H1114 H 0.36805 0.96536 0.00956 0.0
H1115 H 0.36979 0.90223 0.18865 0.0
H1116 H 0.41075 0.89688 0.19376 0.0
H1117 H 0.38218 0.87168 0.16094 0.0
C1118 C 0.70767 0.1664 0.12495 0.0
C1119 C 0.70537 0.16641 0.16977 0.0
C1120 C 0.68476 0.1464 0.10028 0.0
C1121 C 0.65892 0.12647 0.12109 0.0
C1122 C 0.65852 0.12451 0.16653 0.0
C1123 C 0.68184 0.14434 0.19018 0.0
C1124 C 0.68673 0.14879 0.05202 0.0
C1125 C 0.63159 0.10376 0.19036 0.0
C1126 C 0.57476 0.10969 0.07239 0.0
C1127 C 0.57065 0.07827 0.0638 0.0
C1128 C 0.604 0.12603 0.08898 0.0
C1129 C 0.63004 0.11075 0.09648 0.0
C1130 C 0.62668 0.07954 0.08523 0.0
C1131 C 0.59693 0.06358 0.06954 0.0
C1132 C 0.60654 0.15934 0.10029 0.0
C1133 C 0.65423 0.0628 0.09093 0.0
H1134 H 0.72553 0.18372 0.10902 0.0
H1135 H 0.67998 0.14446 0.22491 0.0
H1136 H 0.6767 0.12652 0.0368 0.0
H1137 H 0.67268 0.16598 0.04024 0.0
H1138 H 0.71198 0.15668 0.04155 0.0
H1139 H 0.63635 0.10296 0.22553 0.0
H1140 H 0.60886 0.11221 0.18495 0.0
H1141 H 0.62785 0.08002 0.17813 0.0
H1142 H 0.55473 0.12132 0.0675 0.0
H1143 H 0.59426 0.0395 0.06191 0.0
H1144 H 0.62755 0.17372 0.08413 0.0
H1145 H 0.61039 0.16203 0.13546 0.0
H1146 H 0.58464 0.16821 0.09086 0.0
H1147 H 0.67645 0.07664 0.07678 0.0
H1148 H 0.6491 0.03989 0.07578 0.0
H1149 H 0.65905 0.05954 0.12566 0.0
C1150 C 0.6102 0.66924 0.81475 0.0
C1151 C 0.63473 0.65783 0.7947 0.0
C1152 C 0.58542 0.64945 0.83643 0.0
C1153 C 0.58495 0.61746 0.83757 0.0
C1154 C 0.60817 0.60557 0.81455 0.0
C1155 C 0.63297 0.62594 0.79362 0.0
C1156 C 0.56122 0.66305 0.86086 0.0
C1157 C 0.60803 0.57151 0.81432 0.0
C1158 C 0.55279 0.57615 0.94002 0.0
C1159 C 0.52108 0.56312 0.92826 0.0
C1160 C 0.57389 0.59334 0.91045 0.0
C1161 C 0.56322 0.59727 0.86779 0.0
C1162 C 0.53163 0.58327 0.85515 0.0
C1163 C 0.51078 0.56649 0.8857 0.0
C1164 C 0.60734 0.60812 0.92534 0.0
C1165 C 0.51968 0.58658 0.80973 0.0
H1166 H 0.61124 0.69383 0.81557 0.0
H1167 H 0.65159 0.6169 0.77768 0.0
H1168 H 0.53642 0.65055 0.85395 0.0
H1169 H 0.56561 0.66062 0.89588 0.0
H1170 H 0.5627 0.68782 0.85287 0.0
H1171 H 0.62426 0.5656 0.78952 0.0
H1172 H 0.6161 0.56406 0.8462 0.0
H1173 H 0.58336 0.55827 0.80845 0.0
H1174 H 0.561 0.57367 0.97281 0.0
H1175 H 0.48638 0.55626 0.87633 0.0
H1176 H 0.61069 0.63349 0.92176 0.0
H1177 H 0.6256 0.60062 0.90515 0.0
H1178 H 0.61202 0.60233 0.95944 0.0
H1179 H 0.51787 0.61085 0.80304 0.0
H1180 H 0.49571 0.57179 0.80401 0.0
H1181 H 0.53696 0.5806 0.7865 0.0
C1182 C 0.33817 0.70417 0.87699 0.0
C1183 C 0.33348 0.69406 0.83446 0.0
C1184 C 0.35424 0.6888 0.90727 0.0
C1185 C 0.36593 0.66269 0.89475 0.0
C1186 C 0.36258 0.65309 0.85152 0.0
C1187 C 0.34636 0.66896 0.82177 0.0
C1188 C 0.3575 0.69974 0.95305 0.0
C1189 C 0.37498 0.62532 0.83714 0.0
C1190 C 0.4248 0.62873 0.96411 0.0
C1191 C 0.40439 0.60296 0.98195 0.0
C1192 C 0.41251 0.64922 0.93667 0.0
C1193 C 0.3791 0.64379 0.92757 0.0
C1194 C 0.35819 0.61912 0.9482 0.0
C1195 C 0.37115 0.5989 0.97508 0.0
C1196 C 0.43545 0.67543 0.91537 0.0
C1197 C 0.32232 0.61302 0.93998 0.0
H1198 H 0.3287 0.72386 0.88703 0.0
H1199 H 0.343 0.66115 0.78897 0.0
H1200 H 0.34255 0.68244 0.9744 0.0
H1201 H 0.38277 0.70222 0.96444 0.0
H1202 H 0.34981 0.72209 0.95658 0.0
H1203 H 0.37265 0.62229 0.80183 0.0
H1204 H 0.40063 0.62735 0.84654 0.0
H1205 H 0.36134 0.60433 0.85331 0.0
H1206 H 0.45057 0.63178 0.96924 0.0
H1207 H 0.35536 0.57909 0.98927 0.0
H1208 H 0.42658 0.69723 0.91796 0.0
H1209 H 0.43696 0.67081 0.88065 0.0
H1210 H 0.46002 0.67858 0.9296 0.0
H1211 H 0.31263 0.63411 0.94524 0.0
H1212 H 0.30925 0.59426 0.96103 0.0
H1213 H 0.31724 0.60651 0.90601 0.0
C1214 C 0.39698 0.35038 0.79937 0.0
C1215 C 0.36508 0.35336 0.79137 0.0
C1216 C 0.41626 0.36918 0.82927 0.0
C1217 C 0.40296 0.39079 0.8523 0.0
C1218 C 0.37153 0.3952 0.84236 0.0
C1219 C 0.35319 0.37679 0.81155 0.0
C1220 C 0.45016 0.36469 0.83794 0.0
C1221 C 0.35627 0.41768 0.86662 0.0
C1222 C 0.43162 0.40894 0.96644 0.0
C1223 C 0.4485 0.43918 0.96158 0.0
C1224 C 0.41702 0.39273 0.93089 0.0
C1225 C 0.42048 0.40685 0.88946 0.0
C1226 C 0.43866 0.43701 0.88426 0.0
C1227 C 0.45204 0.45304 0.92057 0.0
C1228 C 0.39715 0.36085 0.93785 0.0
C1229 C 0.44379 0.45239 0.84048 0.0
H1230 H 0.40645 0.33253 0.78368 0.0
H1231 H 0.32861 0.37941 0.80559 0.0
H1232 H 0.46697 0.38721 0.83992 0.0
H1233 H 0.4512 0.35254 0.8693 0.0
H1234 H 0.45862 0.35092 0.8127 0.0
H1235 H 0.33232 0.41966 0.85322 0.0
H1236 H 0.35329 0.41006 0.90078 0.0
H1237 H 0.37197 0.44082 0.86604 0.0
H1238 H 0.42919 0.39828 0.99822 0.0
H1239 H 0.46579 0.47626 0.91677 0.0
H1240 H 0.40661 0.3441 0.91827 0.0
H1241 H 0.37198 0.3604 0.92718 0.0
H1242 H 0.397 0.35318 0.97208 0.0
H1243 H 0.45324 0.43727 0.81808 0.0
H1244 H 0.4608 0.47487 0.84161 0.0
H1245 H 0.42053 0.45626 0.82699 0.0
C1246 C 0.62677 0.32509 0.80857 0.0
C1247 C 0.66019 0.32995 0.81409 0.0
C1248 C 0.60829 0.3416 0.83262 0.0
C1249 C 0.6236 0.36255 0.86378 0.0
C1250 C 0.65727 0.36704 0.86993 0.0
C1251 C 0.67519 0.35106 0.84455 0.0
C1252 C 0.57247 0.33677 0.82464 0.0
C1253 C 0.67436 0.38836 0.90381 0.0
C1254 C 0.58481 0.42674 0.9035 0.0
C1255 C 0.57061 0.41364 0.9415 0.0
C1256 C 0.60131 0.40994 0.87713 0.0
C1257 C 0.6046 0.37988 0.89013 0.0
C1258 C 0.59092 0.36695 0.92924 0.0
C1259 C 0.57348 0.38382 0.95407 0.0
C1260 C 0.61505 0.42425 0.83529 0.0
C1261 C 0.59511 0.33556 0.9452 0.0
H1262 H 0.61519 0.30874 0.78508 0.0
H1263 H 0.701 0.35445 0.84948 0.0
H1264 H 0.55942 0.32769 0.85427 0.0
H1265 H 0.56554 0.35908 0.81638 0.0
H1266 H 0.56443 0.32051 0.79824 0.0
H1267 H 0.70056 0.38844 0.90545 0.0
H1268 H 0.671 0.41218 0.89701 0.0
H1269 H 0.66388 0.3814 0.93582 0.0
H1270 H 0.58218 0.44977 0.89386 0.0
H1271 H 0.56254 0.37395 0.98376 0.0
H1272 H 0.60592 0.40892 0.80829 0.0
H1273 H 0.64162 0.427 0.83596 0.0
H1274 H 0.60884 0.44713 0.82878 0.0
H1275 H 0.58479 0.31791 0.92153 0.0
H1276 H 0.58342 0.32914 0.97669 0.0
H1277 H 0.62109 0.33506 0.94864 0.0
C1278 C 0.66684 0.34624 0.19044 0.0
C1279 C 0.67501 0.31909 0.17661 0.0
C1280 C 0.64889 0.36247 0.16396 0.0
C1281 C 0.63987 0.35168 0.12216 0.0
C1282 C 0.64855 0.3245 0.10767 0.0
C1283 C 0.66575 0.3082 0.13547 0.0
C1284 C 0.63944 0.39109 0.18093 0.0
C1285 C 0.64033 0.3131 0.06275 0.0
C1286 C 0.57022 0.38592 0.08515 0.0
C1287 C 0.58676 0.41445 0.06987 0.0
C1288 C 0.5871 0.36317 0.09821 0.0
C1289 C 0.62099 0.36917 0.09457 0.0
C1290 C 0.637 0.39615 0.07305 0.0
C1291 C 0.61967 0.41893 0.06169 0.0
C1292 C 0.56915 0.33471 0.12107 0.0
C1293 C 0.67289 0.40253 0.06654 0.0
H1294 H 0.67395 0.35445 0.22237 0.0
H1295 H 0.67257 0.28731 0.12473 0.0
H1296 H 0.65063 0.41143 0.16127 0.0
H1297 H 0.61297 0.38909 0.1786 0.0
H1298 H 0.64698 0.39531 0.21494 0.0
H1299 H 0.64618 0.29008 0.05793 0.0
H1300 H 0.61444 0.31188 0.05548 0.0
H1301 H 0.65403 0.32954 0.03916 0.0
H1302 H 0.54458 0.38249 0.09089 0.0
H1303 H 0.63215 0.44084 0.04865 0.0
H1304 H 0.57266 0.33749 0.15627 0.0
H1305 H 0.57844 0.31406 0.11211 0.0
H1306 H 0.54294 0.33071 0.11389 0.0
H1307 H 0.68521 0.41121 0.09679 0.0
H1308 H 0.68018 0.42015 0.04077 0.0
H1309 H 0.68129 0.38125 0.05822 0.0
C1310 C 0.65072 0.67115 0.24201 0.0
C1311 C 0.67997 0.67622 0.22008 0.0
C1312 C 0.62354 0.65113 0.22549 0.0
C1313 C 0.62592 0.63605 0.18633 0.0
C1314 C 0.65592 0.63969 0.16567 0.0
C1315 C 0.68253 0.65958 0.18289 0.0
C1316 C 0.59198 0.64737 0.24867 0.0
C1317 C 0.6596 0.62397 0.12396 0.0
C1318 C 0.56417 0.56899 0.14524 0.0
C1319 C 0.54758 0.58356 0.1143 0.0
C1320 C 0.5886 0.58598 0.17073 0.0
C1321 C 0.59691 0.61825 0.16474 0.0
C1322 C 0.5797 0.63318 0.13436 0.0
C1323 C 0.55513 0.61566 0.10965 0.0
C1324 C 0.6062 0.5693 0.20307 0.0
C1325 C 0.58811 0.66755 0.1267 0.0
H1326 H 0.64862 0.68396 0.27073 0.0
H1327 H 0.70522 0.66303 0.16611 0.0
H1328 H 0.57529 0.65905 0.22985 0.0
H1329 H 0.58051 0.6227 0.25165 0.0
H1330 H 0.59501 0.65733 0.28125 0.0
H1331 H 0.68501 0.62781 0.11342 0.0
H1332 H 0.65038 0.59887 0.1273 0.0
H1333 H 0.64517 0.63283 0.09832 0.0
H1334 H 0.55819 0.54421 0.14947 0.0
H1335 H 0.54229 0.6271 0.08601 0.0
H1336 H 0.60753 0.58054 0.2347 0.0
H1337 H 0.63124 0.5704 0.19237 0.0
H1338 H 0.59447 0.54475 0.20728 0.0
H1339 H 0.58836 0.6797 0.15748 0.0
H1340 H 0.57097 0.67586 0.10419 0.0
H1341 H 0.61262 0.67391 0.11308 0.0
C1342 C 0.31424 0.70534 0.15973 0.0
C1343 C 0.30649 0.70679 0.20325 0.0
C1344 C 0.33342 0.68521 0.14602 0.0
C1345 C 0.34527 0.66604 0.17656 0.0
C1346 C 0.33756 0.6672 0.22051 0.0
C1347 C 0.31821 0.68762 0.23339 0.0
C1348 C 0.34124 0.68468 0.09883 0.0
C1349 C 0.34993 0.64704 0.25384 0.0
C1350 C 0.37415 0.59829 0.12967 0.0
C1351 C 0.4072 0.61006 0.12601 0.0
C1352 C 0.35373 0.61584 0.14768 0.0
C1353 C 0.36678 0.64574 0.16227 0.0
C1354 C 0.40023 0.65734 0.15984 0.0
C1355 C 0.42003 0.63936 0.1417 0.0
C1356 C 0.3181 0.60283 0.1497 0.0
C1357 C 0.41499 0.68919 0.17496 0.0
H1358 H 0.30528 0.71998 0.13609 0.0
H1359 H 0.31226 0.68851 0.26701 0.0
H1360 H 0.36761 0.69133 0.09433 0.0
H1361 H 0.33353 0.66108 0.08648 0.0
H1362 H 0.3294 0.70054 0.07909 0.0
H1363 H 0.34102 0.6501 0.28652 0.0
H1364 H 0.34248 0.62251 0.24523 0.0
H1365 H 0.3766 0.6524 0.25464 0.0
H1366 H 0.36411 0.57564 0.11766 0.0
H1367 H 0.4456 0.64855 0.13929 0.0
H1368 H 0.305 0.61624 0.12772 0.0
H1369 H 0.30913 0.60484 0.1826 0.0
H1370 H 0.31217 0.57831 0.14045 0.0
H1371 H 0.40613 0.70663 0.15448 0.0
H1372 H 0.44168 0.69386 0.17373 0.0
H1373 H 0.40765 0.69223 0.20838 0.0
C1374 C 0.35481 0.34965 0.25635 0.0
C1375 C 0.3432 0.32802 0.22478 0.0
C1376 C 0.3802 0.37442 0.2476 0.0
C1377 C 0.39427 0.37747 0.20642 0.0
C1378 C 0.38332 0.35519 0.17492 0.0
C1379 C 0.3579 0.33081 0.18446 0.0
C1380 C 0.39128 0.39781 0.28186 0.0
C1381 C 0.39787 0.35752 0.13064 0.0
C1382 C 0.43275 0.45243 0.15316 0.0
C1383 C 0.46517 0.44989 0.15336 0.0
C1384 C 0.40957 0.43022 0.17376 0.0
C1385 C 0.4191 0.40476 0.19469 0.0
C1386 C 0.45214 0.40349 0.19823 0.0
C1387 C 0.4749 0.42624 0.17761 0.0
C1388 C 0.37462 0.43266 0.16981 0.0
C1389 C 0.46322 0.37675 0.22041 0.0
H1390 H 0.34361 0.34765 0.28763 0.0
H1391 H 0.34933 0.31407 0.15999 0.0
H1392 H 0.41779 0.40162 0.28595 0.0
H1393 H 0.38521 0.42017 0.27189 0.0
H1394 H 0.37992 0.39066 0.31335 0.0
H1395 H 0.38769 0.33744 0.11062 0.0
H1396 H 0.39352 0.37866 0.1138 0.0
H1397 H 0.42429 0.35929 0.13316 0.0
H1398 H 0.42521 0.47096 0.13495 0.0
H1399 H 0.49995 0.42418 0.1779 0.0
H1400 H 0.36239 0.42752 0.20112 0.0
H1401 H 0.36228 0.4155 0.14662 0.0
H1402 H 0.37169 0.45586 0.15833 0.0
H1403 H 0.45041 0.37061 0.25114 0.0
H1404 H 0.48953 0.38178 0.22696 0.0
H1405 H 0.4576 0.35635 0.19961 0.0
C1406 C 0.79554 0.63797 0.67904 0.0
C1407 C 0.79212 0.6658 0.65875 0.0
C1408 C 0.81934 0.62211 0.66659 0.0
C1409 C 0.83991 0.63385 0.63223 0.0
C1410 C 0.83581 0.66119 0.61031 0.0
C1411 C 0.81209 0.67697 0.62398 0.0
C1412 C 0.82339 0.5935 0.69161 0.0
C1413 C 0.85714 0.67417 0.57326 0.0
C1414 C 0.92131 0.6099 0.62878 0.0
C1415 C 0.91487 0.58473 0.60133 0.0
C1416 C 0.89718 0.62616 0.63904 0.0
C1417 C 0.86616 0.61777 0.62017 0.0
C1418 C 0.85973 0.59283 0.59174 0.0
C1419 C 0.8838 0.57607 0.58378 0.0
C1420 C 0.90468 0.65182 0.67092 0.0
C1421 C 0.82735 0.58374 0.56984 0.0
H1422 H 0.78059 0.62919 0.70623 0.0
H1423 H 0.80978 0.69845 0.60817 0.0
H1424 H 0.8215 0.57383 0.66973 0.0
H1425 H 0.84768 0.59715 0.70671 0.0
H1426 H 0.80519 0.5872 0.71724 0.0
H1427 H 0.85629 0.65646 0.54846 0.0
H1428 H 0.85009 0.69488 0.55836 0.0
H1429 H 0.88247 0.68052 0.58442 0.0
H1430 H 0.94508 0.61659 0.64296 0.0
H1431 H 0.87815 0.5562 0.56352 0.0
H1432 H 0.88867 0.64631 0.69908 0.0
H1433 H 0.90001 0.67354 0.65623 0.0
H1434 H 0.93005 0.6557 0.68242 0.0
H1435 H 0.80838 0.5764 0.59414 0.0
H1436 H 0.8267 0.56473 0.54701 0.0
H1437 H 0.82134 0.60382 0.55197 0.0
C1438 C 0.39475 0.79289 0.66732 0.0
C1439 C 0.36609 0.78791 0.64325 0.0
C1440 C 0.42023 0.81707 0.65621 0.0
C1441 C 0.41663 0.83631 0.62031 0.0
C1442 C 0.38979 0.82806 0.59239 0.0
C1443 C 0.36457 0.80416 0.60458 0.0
C1444 C 0.449 0.82425 0.68592 0.0
C1445 C 0.38518 0.84675 0.55262 0.0
C1446 C 0.43709 0.92271 0.62855 0.0
C1447 C 0.46149 0.93059 0.5981 0.0
C1448 C 0.42394 0.89189 0.63842 0.0
C1449 C 0.43567 0.86825 0.6176 0.0
C1450 C 0.46226 0.87599 0.58982 0.0
C1451 C 0.47478 0.9071 0.58019 0.0
C1452 C 0.39581 0.88473 0.66874 0.0
C1453 C 0.47579 0.8515 0.56762 0.0
H1454 H 0.39583 0.78041 0.69749 0.0
H1455 H 0.34233 0.8003 0.58601 0.0
H1456 H 0.47117 0.83408 0.66794 0.0
H1457 H 0.44497 0.84147 0.70949 0.0
H1458 H 0.45277 0.80337 0.70406 0.0
H1459 H 0.36901 0.86277 0.56011 0.0
H1460 H 0.40799 0.86038 0.54006 0.0
H1461 H 0.37361 0.8313 0.52696 0.0
H1462 H 0.42694 0.94061 0.64304 0.0
H1463 H 0.4939 0.91287 0.55692 0.0
H1464 H 0.40023 0.86804 0.69408 0.0
H1465 H 0.3738 0.87407 0.65074 0.0
H1466 H 0.39113 0.9056 0.68454 0.0
H1467 H 0.47792 0.83235 0.59032 0.0
H1468 H 0.49976 0.86082 0.5536 0.0
H1469 H 0.4592 0.84181 0.5413 0.0
C1470 C 0.22295 0.35654 0.6382 0.0
C1471 C 0.22583 0.32665 0.62744 0.0
C1472 C 0.19991 0.37093 0.61823 0.0
C1473 C 0.17992 0.35557 0.58543 0.0
C1474 C 0.18301 0.32555 0.57388 0.0
C1475 C 0.2061 0.31157 0.59482 0.0
C1476 C 0.1958 0.4019 0.63409 0.0
C1477 C 0.16124 0.30691 0.54132 0.0
C1478 C 0.10336 0.38522 0.56058 0.0
C1479 C 0.11483 0.40941 0.5318 0.0
C1480 C 0.12401 0.36655 0.57729 0.0
C1481 C 0.15638 0.37162 0.56348 0.0
C1482 C 0.16721 0.39458 0.53187 0.0
C1483 C 0.14645 0.41355 0.51698 0.0
C1484 C 0.11174 0.34258 0.6114 0.0
C1485 C 0.20116 0.40021 0.5151 0.0
H1486 H 0.23775 0.36829 0.66377 0.0
H1487 H 0.20757 0.28821 0.58687 0.0
H1488 H 0.20275 0.41978 0.60872 0.0
H1489 H 0.1702 0.40129 0.64176 0.0
H1490 H 0.21063 0.40897 0.66321 0.0
H1491 H 0.17598 0.29877 0.51652 0.0
H1492 H 0.14728 0.28605 0.55749 0.0
H1493 H 0.14404 0.31956 0.52558 0.0
H1494 H 0.07889 0.38213 0.57201 0.0
H1495 H 0.15521 0.43209 0.49428 0.0
H1496 H 0.127 0.34676 0.64077 0.0
H1497 H 0.11321 0.31944 0.59985 0.0
H1498 H 0.08642 0.34255 0.6201 0.0
H1499 H 0.21752 0.41486 0.53772 0.0
H1500 H 0.20298 0.41232 0.48338 0.0
H1501 H 0.20983 0.37833 0.51208 0.0
C1502 C 0.63137 0.18175 0.65951 0.0
C1503 C 0.65712 0.20273 0.64137 0.0
C1504 C 0.61923 0.15331 0.64043 0.0
C1505 C 0.6326 0.1457 0.60159 0.0
C1506 C 0.65834 0.16695 0.58278 0.0
C1507 C 0.67001 0.19519 0.60263 0.0
C1508 C 0.59344 0.13058 0.66343 0.0
C1509 C 0.67559 0.1596 0.54347 0.0
C1510 C 0.61936 0.06109 0.5706 0.0
C1511 C 0.59044 0.05781 0.54726 0.0
C1512 C 0.63366 0.08965 0.58816 0.0
C1513 C 0.61921 0.11564 0.58095 0.0
C1514 C 0.59092 0.11261 0.55537 0.0
C1515 C 0.57668 0.0837 0.53944 0.0
C1516 C 0.66363 0.09176 0.61553 0.0
C1517 C 0.57523 0.13976 0.54555 0.0
H1518 H 0.62163 0.18689 0.68988 0.0
H1519 H 0.69055 0.21062 0.58882 0.0
H1520 H 0.57157 0.12492 0.64294 0.0
H1521 H 0.60203 0.10882 0.66996 0.0
H1522 H 0.58665 0.13941 0.69438 0.0
H1523 H 0.68107 0.18008 0.52167 0.0
H1524 H 0.69903 0.15403 0.55358 0.0
H1525 H 0.66197 0.1399 0.52545 0.0
H1526 H 0.62991 0.04104 0.57686 0.0
H1527 H 0.55446 0.08124 0.52104 0.0
H1528 H 0.66031 0.10213 0.64687 0.0
H1529 H 0.68407 0.10692 0.59926 0.0
H1530 H 0.67007 0.06893 0.62157 0.0
H1531 H 0.56599 0.14781 0.57545 0.0
H1532 H 0.55483 0.134 0.52252 0.0
H1533 H 0.59315 0.1592 0.53217 0.0
C1534 C 0.79842 0.37064 0.36571 0.0
C1535 C 0.79207 0.33949 0.37841 0.0
C1536 C 0.82199 0.39206 0.38663 0.0
C1537 C 0.83966 0.38224 0.42134 0.0
C1538 C 0.83225 0.35118 0.43586 0.0
C1539 C 0.80839 0.33019 0.41435 0.0
C1540 C 0.82884 0.42504 0.37044 0.0
C1541 C 0.84979 0.33988 0.47355 0.0
C1542 C 0.92197 0.43283 0.43915 0.0
C1543 C 0.9155 0.45221 0.47142 0.0
C1544 C 0.89779 0.40902 0.42385 0.0
C1545 C 0.86643 0.40458 0.44116 0.0
C1546 C 0.86009 0.42336 0.47476 0.0
C1547 C 0.88469 0.4468 0.48961 0.0
C1548 C 0.9055 0.38921 0.38821 0.0
C1549 C 0.82716 0.41906 0.49455 0.0
H1550 H 0.78582 0.37816 0.33819 0.0
H1551 H 0.80359 0.30622 0.42455 0.0
H1552 H 0.82679 0.44075 0.39704 0.0
H1553 H 0.85385 0.43113 0.35845 0.0
H1554 H 0.81219 0.42919 0.34406 0.0
H1555 H 0.87602 0.34911 0.47183 0.0
H1556 H 0.84088 0.34799 0.50364 0.0
H1557 H 0.8458 0.31437 0.47539 0.0
H1558 H 0.94575 0.4366 0.42527 0.0
H1559 H 0.87949 0.46131 0.51507 0.0
H1560 H 0.89136 0.39294 0.35897 0.0
H1561 H 0.89854 0.36454 0.39763 0.0
H1562 H 0.93144 0.39432 0.38005 0.0
H1563 H 0.80848 0.41925 0.46928 0.0
H1564 H 0.82545 0.43722 0.5179 0.0
H1565 H 0.82154 0.39637 0.51139 0.0
C1566 C 0.68392 0.81194 0.36997 0.0
C1567 C 0.70808 0.82465 0.34081 0.0
C1568 C 0.6639 0.83022 0.3879 0.0
C1569 C 0.66785 0.86183 0.37601 0.0
C1570 C 0.69273 0.87485 0.34756 0.0
C1571 C 0.71254 0.85627 0.33066 0.0
C1572 C 0.63784 0.81534 0.41832 0.0
C1573 C 0.69773 0.90827 0.33354 0.0
C1574 C 0.59715 0.90299 0.37777 0.0
C1575 C 0.60506 0.92284 0.41252 0.0
C1576 C 0.6169 0.88251 0.36637 0.0
C1577 C 0.64502 0.88116 0.39083 0.0
C1578 C 0.65257 0.90032 0.4269 0.0
C1579 C 0.63294 0.92138 0.43669 0.0
C1580 C 0.60815 0.86295 0.32726 0.0
C1581 C 0.68184 0.89936 0.45464 0.0
H1582 H 0.68016 0.78763 0.37814 0.0
H1583 H 0.73116 0.86662 0.30841 0.0
H1584 H 0.63334 0.83172 0.4428 0.0
H1585 H 0.61518 0.80776 0.39994 0.0
H1586 H 0.6441 0.79481 0.43487 0.0
H1587 H 0.71843 0.91499 0.31154 0.0
H1588 H 0.67578 0.91282 0.31686 0.0
H1589 H 0.70193 0.92319 0.36199 0.0
H1590 H 0.57572 0.90381 0.35875 0.0
H1591 H 0.63956 0.93668 0.46336 0.0
H1592 H 0.60599 0.83829 0.33619 0.0
H1593 H 0.62749 0.8687 0.30308 0.0
H1594 H 0.58516 0.86625 0.3121 0.0
H1595 H 0.68702 0.87583 0.457 0.0
H1596 H 0.67881 0.90744 0.48757 0.0
H1597 H 0.70302 0.91469 0.44018 0.0
C1598 C 0.17479 0.6742 0.35891 0.0
C1599 C 0.16274 0.69696 0.33559 0.0
C1600 C 0.15402 0.64744 0.37379 0.0
C1601 C 0.12065 0.64333 0.36457 0.0
C1602 C 0.10826 0.66668 0.3425 0.0
C1603 C 0.12938 0.69325 0.3286 0.0
C1604 C 0.16782 0.62326 0.39845 0.0
C1605 C 0.07279 0.66317 0.33228 0.0
C1606 C 0.07159 0.56197 0.36274 0.0
C1607 C 0.05671 0.55965 0.4029 0.0
C1608 C 0.0923 0.58924 0.34964 0.0
C1609 C 0.09853 0.61451 0.37765 0.0
C1610 C 0.08316 0.61251 0.41783 0.0
C1611 C 0.06213 0.58531 0.42969 0.0
C1612 C 0.10804 0.59081 0.30624 0.0
C1613 C 0.08925 0.63892 0.44867 0.0
H1614 H 0.20045 0.67687 0.36457 0.0
H1615 H 0.11967 0.71071 0.31084 0.0
H1616 H 0.1546 0.61708 0.42889 0.0
H1617 H 0.16482 0.60207 0.3793 0.0
H1618 H 0.19377 0.63102 0.40612 0.0
H1619 H 0.06695 0.68383 0.31561 0.0
H1620 H 0.0649 0.64303 0.31151 0.0
H1621 H 0.05862 0.65885 0.36222 0.0
H1622 H 0.06769 0.54227 0.34197 0.0
H1623 H 0.05102 0.58384 0.461 0.0
H1624 H 0.13456 0.59481 0.31038 0.0
H1625 H 0.10238 0.61046 0.28699 0.0
H1626 H 0.10011 0.56942 0.28788 0.0
H1627 H 0.11542 0.64789 0.45255 0.0
H1628 H 0.07893 0.63217 0.48088 0.0
H1629 H 0.07837 0.65802 0.43555 0.0
C1630 C 0.34583 0.19052 0.34424 0.0
C1631 C 0.3234 0.20484 0.3641 0.0
C1632 C 0.36566 0.17458 0.36831 0.0
C1633 C 0.3626 0.17231 0.41355 0.0
C1634 C 0.34164 0.18871 0.43408 0.0
C1635 C 0.32231 0.20499 0.40901 0.0
C1636 C 0.38797 0.15805 0.34487 0.0
C1637 C 0.33759 0.18724 0.48213 0.0
C1638 C 0.37591 0.09444 0.4529 0.0
C1639 C 0.40803 0.10092 0.46717 0.0
C1640 C 0.36029 0.11785 0.43834 0.0
C1641 C 0.37719 0.14871 0.43734 0.0
C1642 C 0.40916 0.15569 0.45356 0.0
C1643 C 0.42422 0.13169 0.4684 0.0
C1644 C 0.32591 0.1093 0.42249 0.0
C1645 C 0.4279 0.1883 0.4535 0.0
H1646 H 0.34693 0.19073 0.30944 0.0
H1647 H 0.30492 0.21602 0.4244 0.0
H1648 H 0.41212 0.16219 0.36036 0.0
H1649 H 0.37833 0.13291 0.34633 0.0
H1650 H 0.39066 0.1654 0.31055 0.0
H1651 H 0.32904 0.2077 0.49378 0.0
H1652 H 0.3194 0.16653 0.49089 0.0
H1653 H 0.36042 0.1856 0.49888 0.0
H1654 H 0.36285 0.07086 0.45261 0.0
H1655 H 0.4489 0.13699 0.47988 0.0
H1656 H 0.32494 0.11362 0.38729 0.0
H1657 H 0.31089 0.12375 0.43792 0.0
H1658 H 0.31522 0.08475 0.42919 0.0
H1659 H 0.43507 0.19559 0.42015 0.0
H1660 H 0.44997 0.19065 0.47382 0.0
H1661 H 0.41284 0.20419 0.46518 0.0
C1662 C 0.64485 0.7879 0.64525 0.0
C1663 C 0.67439 0.7812 0.63279 0.0
C1664 C 0.63054 0.80908 0.62202 0.0
C1665 C 0.64562 0.82333 0.58458 0.0
C1666 C 0.67361 0.81432 0.56926 0.0
C1667 C 0.68793 0.79352 0.59382 0.0
C1668 C 0.60082 0.81814 0.63977 0.0
C1669 C 0.68945 0.82799 0.52835 0.0
C1670 C 0.59456 0.8719 0.52414 0.0
C1671 C 0.60679 0.90109 0.54066 0.0
C1672 C 0.60827 0.84651 0.53587 0.0
C1673 C 0.63437 0.85039 0.56543 0.0
C1674 C 0.64743 0.88004 0.58102 0.0
C1675 C 0.63366 0.90505 0.56812 0.0
C1676 C 0.59375 0.81542 0.51813 0.0
C1677 C 0.67488 0.88513 0.61322 0.0
H1678 H 0.63379 0.77813 0.6749 0.0
H1679 H 0.7105 0.78819 0.58359 0.0
H1680 H 0.60674 0.84241 0.65009 0.0
H1681 H 0.58179 0.81655 0.61468 0.0
H1682 H 0.59095 0.8035 0.66774 0.0
H1683 H 0.70764 0.81509 0.51715 0.0
H1684 H 0.67111 0.82817 0.50268 0.0
H1685 H 0.70153 0.85217 0.53364 0.0
H1686 H 0.57413 0.8688 0.50223 0.0
H1687 H 0.64335 0.9276 0.58074 0.0
H1688 H 0.57608 0.80273 0.54127 0.0
H1689 H 0.61237 0.80145 0.51311 0.0
H1690 H 0.58088 0.81763 0.48723 0.0
H1691 H 0.66723 0.87222 0.64347 0.0
H1692 H 0.68305 0.90979 0.62083 0.0
H1693 H 0.69562 0.87628 0.60079 0.0
C1694 C 0.64709 0.19666 0.39362 0.0
C1695 C 0.64436 0.21132 0.35388 0.0
C1696 C 0.62304 0.17216 0.40739 0.0
C1697 C 0.59579 0.16219 0.3807 0.0
C1698 C 0.59073 0.17988 0.3439 0.0
C1699 C 0.61507 0.2044 0.33096 0.0
C1700 C 0.629 0.15546 0.44845 0.0
C1701 C 0.56155 0.17084 0.31524 0.0
C1702 C 0.57617 0.07568 0.37791 0.0
C1703 C 0.55191 0.06862 0.4087 0.0
C1704 C 0.58917 0.1062 0.36645 0.0
C1705 C 0.57739 0.13028 0.38594 0.0
C1706 C 0.551 0.12333 0.41411 0.0
C1707 C 0.53856 0.09249 0.4253 0.0
C1708 C 0.61709 0.11263 0.33574 0.0
C1709 C 0.5373 0.14852 0.43429 0.0
H1710 H 0.66916 0.20239 0.4123 0.0
H1711 H 0.6122 0.21626 0.30076 0.0
H1712 H 0.60844 0.1374 0.45868 0.0
H1713 H 0.65038 0.1448 0.44461 0.0
H1714 H 0.63453 0.17243 0.47444 0.0
H1715 H 0.55643 0.19093 0.29639 0.0
H1716 H 0.56608 0.15345 0.29224 0.0
H1717 H 0.53995 0.16053 0.33404 0.0
H1718 H 0.58633 0.05745 0.36439 0.0
H1719 H 0.51941 0.08725 0.4486 0.0
H1720 H 0.63915 0.12396 0.35309 0.0
H1721 H 0.61237 0.12852 0.30948 0.0
H1722 H 0.62185 0.09134 0.32118 0.0
H1723 H 0.55629 0.16358 0.45314 0.0
H1724 H 0.51679 0.1393 0.45572 0.0
H1725 H 0.52901 0.16314 0.40886 0.0
C1726 C 0.83612 0.67894 0.34892 0.0
C1727 C 0.81187 0.69331 0.36403 0.0
C1728 C 0.85032 0.65936 0.37529 0.0
C1729 C 0.84041 0.65402 0.41844 0.0
C1730 C 0.81523 0.66771 0.43382 0.0
C1731 C 0.8012 0.68724 0.4063 0.0
C1732 C 0.876 0.6443 0.35666 0.0
C1733 C 0.8032 0.66269 0.47923 0.0
C1734 C 0.86404 0.58134 0.46143 0.0
C1735 C 0.89541 0.5925 0.47668 0.0
C1736 C 0.84452 0.60138 0.446 0.0
C1737 C 0.85652 0.63344 0.4459 0.0
C1738 C 0.88697 0.64495 0.46486 0.0
C1739 C 0.90626 0.62434 0.47965 0.0
C1740 C 0.81186 0.58817 0.42717 0.0
C1741 C 0.89982 0.67906 0.46745 0.0
H1742 H 0.84414 0.68297 0.316 0.0
H1743 H 0.78248 0.69825 0.41823 0.0
H1744 H 0.89913 0.65198 0.37396 0.0
H1745 H 0.86924 0.61895 0.3608 0.0
H1746 H 0.87987 0.64983 0.32192 0.0
H1747 H 0.77652 0.65896 0.47946 0.0
H1748 H 0.8108 0.64293 0.4959 0.0
H1749 H 0.81235 0.68378 0.49766 0.0
H1750 H 0.85504 0.55677 0.45996 0.0
H1751 H 0.93003 0.63318 0.49269 0.0
H1752 H 0.81215 0.59242 0.3919 0.0
H1753 H 0.79337 0.59971 0.44071 0.0
H1754 H 0.80471 0.56303 0.43348 0.0
H1755 H 0.90844 0.6882 0.43535 0.0
H1756 H 0.92016 0.68436 0.49074 0.0
H1757 H 0.88055 0.69118 0.47702 0.0
C1758 C 0.31632 0.82616 0.39354 0.0
C1759 C 0.32124 0.82608 0.34924 0.0
C1760 C 0.33625 0.8476 0.41965 0.0
C1761 C 0.36219 0.86877 0.40094 0.0
C1762 C 0.3683 0.86726 0.35651 0.0
C1763 C 0.34769 0.84601 0.33127 0.0
C1764 C 0.32735 0.84869 0.4662 0.0
C1765 C 0.39487 0.88988 0.33475 0.0
C1766 C 0.38919 0.94837 0.44641 0.0
C1767 C 0.42038 0.94727 0.46087 0.0
C1768 C 0.36948 0.92253 0.42837 0.0
C1769 C 0.38093 0.89469 0.42585 0.0
C1770 C 0.41156 0.89289 0.44328 0.0
C1771 C 0.43123 0.91942 0.45985 0.0
C1772 C 0.33685 0.92534 0.41056 0.0
C1773 C 0.42384 0.8632 0.44344 0.0
H1774 H 0.29543 0.8112 0.40729 0.0
H1775 H 0.35123 0.84608 0.29682 0.0
H1776 H 0.34472 0.86539 0.48496 0.0
H1777 H 0.30333 0.85497 0.46819 0.0
H1778 H 0.32517 0.82545 0.48125 0.0
H1779 H 0.39716 0.88481 0.30027 0.0
H1780 H 0.39 0.91348 0.33706 0.0
H1781 H 0.41825 0.8897 0.35106 0.0
H1782 H 0.38069 0.96985 0.44755 0.0
H1783 H 0.45508 0.91837 0.47206 0.0
H1784 H 0.31788 0.90826 0.42674 0.0
H1785 H 0.33551 0.92026 0.37575 0.0
H1786 H 0.33156 0.94863 0.41488 0.0
H1787 H 0.44518 0.86413 0.46486 0.0
H1788 H 0.43072 0.85841 0.41042 0.0
H1789 H 0.40471 0.84373 0.454 0.0
C1790 C 0.17856 0.33485 0.30425 0.0
C1791 C 0.19376 0.31719 0.3328 0.0
C1792 C 0.16043 0.3557 0.31926 0.0
C1793 C 0.15643 0.35827 0.36402 0.0
C1794 C 0.17232 0.34086 0.39293 0.0
C1795 C 0.19116 0.32081 0.377 0.0
C1796 C 0.1448 0.37431 0.28714 0.0
C1797 C 0.16774 0.3415 0.44064 0.0
C1798 C 0.12473 0.4272 0.40489 0.0
C1799 C 0.09154 0.4155 0.40678 0.0
C1800 C 0.14618 0.40883 0.39138 0.0
C1801 C 0.13425 0.37785 0.38016 0.0
C1802 C 0.10089 0.36566 0.38358 0.0
C1803 C 0.07994 0.3847 0.39627 0.0
C1804 C 0.18151 0.42276 0.38819 0.0
C1805 C 0.08731 0.33243 0.37384 0.0
H1806 H 0.18063 0.33209 0.26994 0.0
H1807 H 0.20242 0.3068 0.39912 0.0
H1808 H 0.11827 0.36705 0.28863 0.0
H1809 H 0.15083 0.39905 0.29511 0.0
H1810 H 0.15244 0.37156 0.2537 0.0
H1811 H 0.18939 0.33707 0.45825 0.0
H1812 H 0.16239 0.36361 0.45112 0.0
H1813 H 0.14707 0.32303 0.44942 0.0
H1814 H 0.1339 0.45096 0.41301 0.0
H1815 H 0.05438 0.37535 0.39828 0.0
H1816 H 0.18845 0.42497 0.35386 0.0
H1817 H 0.19615 0.40757 0.40428 0.0
H1818 H 0.18752 0.44585 0.40274 0.0
H1819 H 0.09165 0.3279 0.33975 0.0
H1820 H 0.06106 0.3261 0.37984 0.0
H1821 H 0.0997 0.31724 0.39394 0.0
C1822 C 0.36273 0.20971 0.61646 0.0
C1823 C 0.33711 0.20402 0.64517 0.0
C1824 C 0.37723 0.18551 0.60336 0.0
C1825 C 0.36656 0.1555 0.62097 0.0
C1826 C 0.34044 0.14986 0.64972 0.0
C1827 C 0.32575 0.17413 0.66089 0.0
C1828 C 0.4047 0.19233 0.57212 0.0
C1829 C 0.32902 0.11854 0.6704 0.0
C1830 C 0.38841 0.08431 0.57317 0.0
C1831 C 0.416 0.08151 0.59711 0.0
C1832 C 0.37252 0.10874 0.57975 0.0
C1833 C 0.3839 0.13032 0.61198 0.0
C1834 C 0.411 0.12696 0.63735 0.0
C1835 C 0.42693 0.10285 0.62926 0.0
C1836 C 0.34413 0.11191 0.55144 0.0
C1837 C 0.42297 0.14861 0.67344 0.0
H1838 H 0.37159 0.23298 0.60471 0.0
H1839 H 0.30617 0.17004 0.68367 0.0
H1840 H 0.42783 0.19494 0.59006 0.0
H1841 H 0.40368 0.17324 0.54938 0.0
H1842 H 0.40462 0.21397 0.55348 0.0
H1843 H 0.30808 0.11796 0.69164 0.0
H1844 H 0.32216 0.10094 0.64544 0.0
H1845 H 0.34885 0.11192 0.6898 0.0
H1846 H 0.37941 0.06767 0.5488 0.0
H1847 H 0.44804 0.10078 0.64827 0.0
H1848 H 0.35116 0.13229 0.52998 0.0
H1849 H 0.3236 0.11576 0.5708 0.0
H1850 H 0.33595 0.0914 0.53138 0.0
H1851 H 0.43071 0.17234 0.66042 0.0
H1852 H 0.44351 0.14202 0.69135 0.0
H1853 H 0.40325 0.14898 0.69636 0.0
C1854 C 0.83482 0.33682 0.66468 0.0
C1855 C 0.8068 0.34876 0.65877 0.0
C1856 C 0.86514 0.3549 0.65667 0.0
C1857 C 0.8673 0.38537 0.64106 0.0
C1858 C 0.83888 0.3972 0.6335 0.0
C1859 C 0.80882 0.37889 0.6435 0.0
C1860 C 0.89482 0.3419 0.66688 0.0
C1861 C 0.84026 0.4294 0.61589 0.0
C1862 C 0.94176 0.44789 0.65165 0.0
C1863 C 0.95443 0.44861 0.61019 0.0
C1864 C 0.91455 0.42588 0.66331 0.0
C1865 C 0.89925 0.40488 0.63231 0.0
C1866 C 0.9134 0.40397 0.59168 0.0
C1867 C 0.9413 0.42533 0.58152 0.0
C1868 C 0.90102 0.42646 0.7078 0.0
C1869 C 0.8976 0.3822 0.55759 0.0
H1870 H 0.83304 0.31367 0.67775 0.0
H1871 H 0.78707 0.38813 0.63987 0.0
H1872 H 0.91045 0.34368 0.63835 0.0
H1873 H 0.90901 0.35548 0.6926 0.0
H1874 H 0.88885 0.31744 0.67773 0.0
H1875 H 0.81619 0.4333 0.60549 0.0
H1876 H 0.84978 0.44623 0.641 0.0
H1877 H 0.85679 0.43408 0.58818 0.0
H1878 H 0.95195 0.46558 0.67413 0.0
H1879 H 0.95094 0.42545 0.54946 0.0
H1880 H 0.89415 0.4028 0.72149 0.0
H1881 H 0.87899 0.43641 0.70605 0.0
H1882 H 0.91845 0.44046 0.73002 0.0
H1883 H 0.91105 0.38526 0.52694 0.0
H1884 H 0.87287 0.386 0.55119 0.0
H1885 H 0.8955 0.35804 0.56897 0.0
C1886 C 0.22101 0.63776 0.6393 0.0
C1887 C 0.2195 0.66858 0.63076 0.0
C1888 C 0.1992 0.6139 0.61954 0.0
C1889 C 0.17572 0.62119 0.59028 0.0
C1890 C 0.1758 0.6523 0.57919 0.0
C1891 C 0.19754 0.67559 0.59976 0.0
C1892 C 0.19992 0.58099 0.63209 0.0
C1893 C 0.15177 0.66105 0.54732 0.0
C1894 C 0.12843 0.55914 0.5193 0.0
C1895 C 0.09943 0.55054 0.54178 0.0
C1896 C 0.15348 0.58199 0.53468 0.0
C1897 C 0.14958 0.59659 0.57362 0.0
C1898 C 0.12027 0.5883 0.59624 0.0
C1899 C 0.09549 0.56547 0.57995 0.0
C1900 C 0.1842 0.59034 0.50941 0.0
C1901 C 0.11512 0.60348 0.63782 0.0
H1902 H 0.2377 0.63225 0.66357 0.0
H1903 H 0.19641 0.69944 0.59294 0.0
H1904 H 0.17816 0.57118 0.65093 0.0
H1905 H 0.19949 0.56685 0.60308 0.0
H1906 H 0.22151 0.57902 0.65177 0.0
H1907 H 0.15647 0.68614 0.53995 0.0
H1908 H 0.15236 0.64861 0.51693 0.0
H1909 H 0.12712 0.6542 0.56031 0.0
H1910 H 0.13165 0.54793 0.48955 0.0
H1911 H 0.07322 0.55898 0.59751 0.0
H1912 H 0.20466 0.58537 0.52909 0.0
H1913 H 0.18942 0.61533 0.50159 0.0
H1914 H 0.18303 0.57751 0.47901 0.0
H1915 H 0.13399 0.6003 0.6616 0.0
H1916 H 0.09119 0.59407 0.65189 0.0
H1917 H 0.11722 0.62858 0.63225 0.0
loop_
_geom_bond_atom_site_label_1
_geom_bond_atom_site_label_2
_geom_bond_distance
_geom_bond_site_symmetry_2
_ccdc_geom_bond_type
O0 Zn1 1.953 . S
O0 C16 1.225 . S
Zn1 O0 1.953 . S
Zn1 O2 1.949 . S
Zn1 O8 1.919 . S
Zn1 O13 1.924 . S
O2 Zn1 1.949 . S
O2 Zn3 1.923 . S
O2 Zn4 1.950 . S
O2 Zn5 1.945 . S
Zn3 O2 1.923 . S
Zn3 O6 1.933 . S
Zn3 O9 1.941 . S
Zn3 O10 1.965 . S
Zn4 O2 1.950 . S
Zn4 O11 1.938 . S
Zn4 O12 1.906 . S
Zn4 O22 1.953 . S
Zn5 O2 1.945 . S
Zn5 O7 1.932 . S
Zn5 O14 1.977 . S
Zn5 O15 1.910 . S
O6 Zn3 1.933 . S
O6 C17 1.226 . S
O7 Zn5 1.932 . S
O7 C17 1.307 . S
O8 Zn1 1.919 . S
O8 C19 1.253 . S
O9 Zn3 1.941 . S
O9 C19 1.283 . S
O10 Zn3 1.965 . S
O10 C18 1.303 . S
O11 Zn4 1.938 . S
O11 C18 1.247 . S
O12 Zn4 1.906 . S
O12 C20 1.304 . S
O13 Zn1 1.924 . S
O13 C21 1.311 . S
O14 Zn5 1.977 . S
O14 C20 1.272 . S
O15 Zn5 1.910 . S
O15 C21 1.231 . S
C16 O0 1.225 . S
C16 O22 1.298 . S
C17 O6 1.226 . S
C17 O7 1.307 . S
C18 O10 1.303 . S
C18 O11 1.247 . S
C19 O8 1.253 . S
C19 O9 1.283 . S
C20 O12 1.304 . S
C20 O14 1.272 . S
C21 O13 1.311 . S
C21 O15 1.231 . S
O22 Zn4 1.953 . S
O22 C16 1.298 . S
O23 Zn24 1.953 . S
O23 C39 1.225 . S
Zn24 O23 1.953 . S
Zn24 O25 1.949 . S
Zn24 O31 1.919 . S
Zn24 O36 1.924 . S
O25 Zn24 1.949 . S
O25 Zn26 1.923 . S
O25 Zn27 1.950 . S
O25 Zn28 1.945 . S
Zn26 O25 1.923 . S
Zn26 O29 1.933 . S
Zn26 O32 1.941 . S
Zn26 O33 1.965 . S
Zn27 O25 1.950 . S
Zn27 O34 1.938 . S
Zn27 O35 1.906 . S
Zn27 O45 1.953 . S
Zn28 O25 1.945 . S
Zn28 O30 1.932 . S
Zn28 O37 1.977 . S
Zn28 O38 1.910 . S
O29 Zn26 1.933 . S
O29 C40 1.226 . S
O30 Zn28 1.932 . S
O30 C40 1.307 . S
O31 Zn24 1.919 . S
O31 C42 1.253 . S
O32 Zn26 1.941 . S
O32 C42 1.283 . S
O33 Zn26 1.965 . S
O33 C41 1.303 . S
O34 Zn27 1.938 . S
O34 C41 1.247 . S
O35 Zn27 1.906 . S
O35 C43 1.304 . S
O36 Zn24 1.924 . S
O36 C44 1.311 . S
O37 Zn28 1.977 . S
O37 C43 1.272 . S
O38 Zn28 1.910 . S
O38 C44 1.231 . S
C39 O23 1.225 . S
C39 O45 1.298 . S
C40 O29 1.226 . S
C40 O30 1.307 . S
C41 O33 1.303 . S
C41 O34 1.247 . S
C42 O31 1.253 . S
C42 O32 1.283 . S
C43 O35 1.304 . S
C43 O37 1.272 . S
C44 O36 1.311 . S
C44 O38 1.231 . S
O45 Zn27 1.953 . S
O45 C39 1.298 . S
O46 Zn47 1.953 . S
O46 C62 1.225 . S
Zn47 O46 1.953 . S
Zn47 O48 1.949 . S
Zn47 O54 1.919 . S
Zn47 O59 1.924 . S
O48 Zn47 1.949 . S
O48 Zn49 1.923 . S
O48 Zn50 1.950 . S
O48 Zn51 1.945 . S
Zn49 O48 1.923 . S
Zn49 O52 1.933 . S
Zn49 O55 1.941 . S
Zn49 O56 1.965 . S
Zn50 O48 1.950 . S
Zn50 O57 1.938 . S
Zn50 O58 1.906 . S
Zn50 O68 1.953 . S
Zn51 O48 1.945 . S
Zn51 O53 1.932 . S
Zn51 O60 1.977 . S
Zn51 O61 1.910 . S
O52 Zn49 1.933 . S
O52 C63 1.226 . S
O53 Zn51 1.932 . S
O53 C63 1.307 . S
O54 Zn47 1.919 . S
O54 C65 1.253 . S
O55 Zn49 1.941 . S
O55 C65 1.283 . S
O56 Zn49 1.965 . S
O56 C64 1.303 . S
O57 Zn50 1.938 . S
O57 C64 1.247 . S
O58 Zn50 1.906 . S
O58 C66 1.304 . S
O59 Zn47 1.924 . S
O59 C67 1.311 . S
O60 Zn51 1.977 . S
O60 C66 1.272 . S
O61 Zn51 1.910 . S
O61 C67 1.231 . S
C62 O46 1.225 . S
C62 O68 1.298 . S
C63 O52 1.226 . S
C63 O53 1.307 . S
C64 O56 1.303 . S
C64 O57 1.247 . S
C65 O54 1.253 . S
C65 O55 1.283 . S
C66 O58 1.304 . S
C66 O60 1.272 . S
C67 O59 1.311 . S
C67 O61 1.231 . S
O68 Zn50 1.953 . S
O68 C62 1.298 . S
O69 Zn70 1.953 . S
O69 C85 1.225 . S
Zn70 O69 1.953 . S
Zn70 O71 1.949 . S
Zn70 O77 1.919 . S
Zn70 O82 1.924 . S
O71 Zn70 1.949 . S
O71 Zn72 1.923 . S
O71 Zn73 1.950 . S
O71 Zn74 1.945 . S
Zn72 O71 1.923 . S
Zn72 O75 1.933 . S
Zn72 O78 1.941 . S
Zn72 O79 1.965 . S
Zn73 O71 1.950 . S
Zn73 O80 1.938 . S
Zn73 O81 1.906 . S
Zn73 O91 1.953 . S
Zn74 O71 1.945 . S
Zn74 O76 1.932 . S
Zn74 O83 1.977 . S
Zn74 O84 1.910 . S
O75 Zn72 1.933 . S
O75 C86 1.226 . S
O76 Zn74 1.932 . S
O76 C86 1.307 . S
O77 Zn70 1.919 . S
O77 C88 1.253 . S
O78 Zn72 1.941 . S
O78 C88 1.283 . S
O79 Zn72 1.965 . S
O79 C87 1.303 . S
O80 Zn73 1.938 . S
O80 C87 1.247 . S
O81 Zn73 1.906 . S
O81 C89 1.304 . S
O82 Zn70 1.924 . S
O82 C90 1.311 . S
O83 Zn74 1.977 . S
O83 C89 1.272 . S
O84 Zn74 1.910 . S
O84 C90 1.231 . S
C85 O69 1.225 . S
C85 O91 1.298 . S
C86 O75 1.226 . S
C86 O76 1.307 . S
C87 O79 1.303 . S
C87 O80 1.247 . S
C88 O77 1.253 . S
C88 O78 1.283 . S
C89 O81 1.304 . S
C89 O83 1.272 . S
C90 O82 1.311 . S
C90 O84 1.231 . S
O91 Zn73 1.953 . S
O91 C85 1.298 . S
O92 Zn93 1.953 . S
O92 C108 1.225 . S
Zn93 O92 1.953 . S
Zn93 O94 1.949 . S
Zn93 O100 1.919 . S
Zn93 O105 1.924 . S
O94 Zn93 1.949 . S
O94 Zn95 1.923 . S
O94 Zn96 1.950 . S
O94 Zn97 1.945 . S
Zn95 O94 1.923 . S
Zn95 O98 1.933 . S
Zn95 O101 1.941 . S
Zn95 O102 1.965 . S
Zn96 O94 1.950 . S
Zn96 O103 1.938 . S
Zn96 O104 1.906 . S
Zn96 O114 1.953 . S
Zn97 O94 1.945 . S
Zn97 O99 1.932 . S
Zn97 O106 1.977 . S
Zn97 O107 1.910 . S
O98 Zn95 1.933 . S
O98 C109 1.226 . S
O99 Zn97 1.932 . S
O99 C109 1.307 . S
O100 Zn93 1.919 . S
O100 C111 1.253 . S
O101 Zn95 1.941 . S
O101 C111 1.283 . S
O102 Zn95 1.965 . S
O102 C110 1.303 . S
O103 Zn96 1.938 . S
O103 C110 1.247 . S
O104 Zn96 1.906 . S
O104 C112 1.304 . S
O105 Zn93 1.924 . S
O105 C113 1.311 . S
O106 Zn97 1.977 . S
O106 C112 1.272 . S
O107 Zn97 1.910 . S
O107 C113 1.231 . S
C108 O92 1.225 . S
C108 O114 1.298 . S
C109 O98 1.226 . S
C109 O99 1.307 . S
C110 O102 1.303 . S
C110 O103 1.247 . S
C111 O100 1.253 . S
C111 O101 1.283 . S
C112 O104 1.304 . S
C112 O106 1.272 . S
C113 O105 1.311 . S
C113 O107 1.231 . S
O114 Zn96 1.953 . S
O114 C108 1.298 . S
O115 Zn116 1.953 . S
O115 C131 1.225 . S
Zn116 O115 1.953 . S
Zn116 O117 1.949 . S
Zn116 O123 1.919 . S
Zn116 O128 1.924 . S
O117 Zn116 1.949 . S
O117 Zn118 1.923 . S
O117 Zn119 1.950 . S
O117 Zn120 1.945 . S
Zn118 O117 1.923 . S
Zn118 O121 1.933 . S
Zn118 O124 1.941 . S
Zn118 O125 1.965 . S
Zn119 O117 1.950 . S
Zn119 O126 1.938 . S
Zn119 O127 1.906 . S
Zn119 O137 1.953 . S
Zn120 O117 1.945 . S
Zn120 O122 1.932 . S
Zn120 O129 1.977 . S
Zn120 O130 1.910 . S
O121 Zn118 1.933 . S
O121 C132 1.226 . S
O122 Zn120 1.932 . S
O122 C132 1.307 . S
O123 Zn116 1.919 . S
O123 C134 1.253 . S
O124 Zn118 1.941 . S
O124 C134 1.283 . S
O125 Zn118 1.965 . S
O125 C133 1.303 . S
O126 Zn119 1.938 . S
O126 C133 1.247 . S
O127 Zn119 1.906 . S
O127 C135 1.304 . S
O128 Zn116 1.924 . S
O128 C136 1.311 . S
O129 Zn120 1.977 . S
O129 C135 1.272 . S
O130 Zn120 1.910 . S
O130 C136 1.231 . S
C131 O115 1.225 . S
C131 O137 1.298 . S
C132 O121 1.226 . S
C132 O122 1.307 . S
C133 O125 1.303 . S
C133 O126 1.247 . S
C134 O123 1.253 . S
C134 O124 1.283 . S
C135 O127 1.304 . S
C135 O129 1.272 . S
C136 O128 1.311 . S
C136 O130 1.231 . S
O137 Zn119 1.953 . S
O137 C131 1.298 . S
O138 Zn139 1.953 . S
O138 C154 1.225 . S
Zn139 O138 1.953 . S
Zn139 O140 1.949 . S
Zn139 O146 1.919 . S
Zn139 O151 1.924 . S
O140 Zn139 1.949 . S
O140 Zn141 1.923 . S
O140 Zn142 1.950 . S
O140 Zn143 1.945 . S
Zn141 O140 1.923 . S
Zn141 O144 1.933 . S
Zn141 O147 1.941 . S
Zn141 O148 1.965 . S
Zn142 O140 1.950 . S
Zn142 O149 1.938 . S
Zn142 O150 1.906 . S
Zn142 O160 1.953 . S
Zn143 O140 1.945 . S
Zn143 O145 1.932 . S
Zn143 O152 1.977 . S
Zn143 O153 1.910 . S
O144 Zn141 1.933 . S
O144 C155 1.226 . S
O145 Zn143 1.932 . S
O145 C155 1.307 . S
O146 Zn139 1.919 . S
O146 C157 1.253 . S
O147 Zn141 1.941 . S
O147 C157 1.283 . S
O148 Zn141 1.965 . S
O148 C156 1.303 . S
O149 Zn142 1.938 . S
O149 C156 1.247 . S
O150 Zn142 1.906 . S
O150 C158 1.304 . S
O151 Zn139 1.924 . S
O151 C159 1.311 . S
O152 Zn143 1.977 . S
O152 C158 1.272 . S
O153 Zn143 1.910 . S
O153 C159 1.231 . S
C154 O138 1.225 . S
C154 O160 1.298 . S
C155 O144 1.226 . S
C155 O145 1.307 . S
C156 O148 1.303 . S
C156 O149 1.247 . S
C157 O146 1.253 . S
C157 O147 1.283 . S
C158 O150 1.304 . S
C158 O152 1.272 . S
C159 O151 1.311 . S
C159 O153 1.231 . S
O160 Zn142 1.953 . S
O160 C154 1.298 . S
O161 Zn162 1.953 . S
O161 C177 1.225 . S
Zn162 O161 1.953 . S
Zn162 O163 1.949 . S
Zn162 O169 1.919 . S
Zn162 O174 1.924 . S
O163 Zn162 1.949 . S
O163 Zn164 1.923 . S
O163 Zn165 1.950 . S
O163 Zn166 1.945 . S
Zn164 O163 1.923 . S
Zn164 O167 1.933 . S
Zn164 O170 1.941 . S
Zn164 O171 1.965 . S
Zn165 O163 1.950 . S
Zn165 O172 1.938 . S
Zn165 O173 1.906 . S
Zn165 O183 1.953 . S
Zn166 O163 1.945 . S
Zn166 O168 1.932 . S
Zn166 O175 1.977 . S
Zn166 O176 1.910 . S
O167 Zn164 1.933 . S
O167 C178 1.226 . S
O168 Zn166 1.932 . S
O168 C178 1.307 . S
O169 Zn162 1.919 . S
O169 C180 1.253 . S
O170 Zn164 1.941 . S
O170 C180 1.283 . S
O171 Zn164 1.965 . S
O171 C179 1.303 . S
O172 Zn165 1.938 . S
O172 C179 1.247 . S
O173 Zn165 1.906 . S
O173 C181 1.304 . S
O174 Zn162 1.924 . S
O174 C182 1.311 . S
O175 Zn166 1.977 . S
O175 C181 1.272 . S
O176 Zn166 1.910 . S
O176 C182 1.231 . S
C177 O161 1.225 . S
C177 O183 1.298 . S
C178 O167 1.226 . S
C178 O168 1.307 . S
C179 O171 1.303 . S
C179 O172 1.247 . S
C180 O169 1.253 . S
C180 O170 1.283 . S
C181 O173 1.304 . S
C181 O175 1.272 . S
C182 O174 1.311 . S
C182 O176 1.231 . S
O183 Zn165 1.953 . S
O183 C177 1.298 . S
Co184 O187 2.042 . S
Co184 O194 2.264 . S
Co184 O213 2.286 . S
Co184 O214 2.069 . S
Co184 O216 2.015 1_455 S
Co185 O187 2.122 . S
Co185 O193 2.073 . S
Co185 O194 2.327 . S
Co185 O195 1.976 1_455 S
Co186 O187 2.087 1_545 S
Co186 O189 2.087 1_455 S
Co186 O196 2.111 1_445 S
Co186 O197 2.143 . S
Co186 O201 2.111 . S
Co186 O215 2.143 1_445 S
O187 Co184 2.042 . S
O187 Co185 2.122 . S
O187 Co186 2.087 1_565 S
O187 H188 0.980 . S
H188 O187 0.980 . S
O189 Co186 2.087 1_655 S
O189 Co190 2.042 . S
O189 Co191 2.122 . S
O189 H192 0.980 . S
Co190 O189 2.042 . S
Co190 O198 2.286 . S
Co190 O199 2.069 . S
Co190 O200 2.015 1_655 S
Co190 O203 2.264 . S
Co191 O189 2.122 . S
Co191 O202 1.976 1_655 S
Co191 O203 2.327 . S
Co191 O204 2.073 . S
H192 O189 0.980 . S
O193 Co185 2.073 . S
O193 C208 1.245 . S
O194 Co184 2.264 . S
O194 Co185 2.327 . S
O194 C208 1.257 . S
O195 Co185 1.976 1_655 S
O195 C207 1.251 . S
O196 Co186 2.111 1_665 S
O196 C207 1.274 . S
O197 Co186 2.143 . S
O197 C210 1.246 . S
O198 Co190 2.286 . S
O198 C209 1.259 . S
O199 Co190 2.069 . S
O199 C209 1.289 . S
O200 Co190 2.015 1_455 S
O200 C210 1.257 . S
O201 Co186 2.111 . S
O201 C211 1.274 . S
O202 Co191 1.976 1_455 S
O202 C211 1.251 . S
O203 Co190 2.264 . S
O203 Co191 2.327 . S
O203 C212 1.257 . S
O204 Co191 2.073 . S
O204 C212 1.245 . S
C205 O213 1.259 . S
C205 O214 1.289 . S
C206 O215 1.246 . S
C206 O216 1.257 . S
C207 O195 1.251 . S
C207 O196 1.274 . S
C208 O193 1.245 . S
C208 O194 1.257 . S
C209 O198 1.259 . S
C209 O199 1.289 . S
C210 O197 1.246 . S
C210 O200 1.257 . S
C211 O201 1.274 . S
C211 O202 1.251 . S
C212 O203 1.257 . S
C212 O204 1.245 . S
O213 Co184 2.286 . S
O213 C205 1.259 . S
O214 Co184 2.069 . S
O214 C205 1.289 . S
O215 Co186 2.143 1_665 S
O215 C206 1.246 . S
O216 Co184 2.015 1_655 S
O216 C206 1.257 . S
Co217 O220 2.042 1_556 S
Co217 O227 2.264 1_556 S
Co217 O246 2.286 . S
Co217 O247 2.069 . S
Co217 O249 2.015 . S
Co218 O220 2.122 . S
Co218 O226 2.073 . S
Co218 O227 2.327 . S
Co218 O228 1.976 . S
Co219 O220 2.087 1_545 S
Co219 O222 2.087 . S
Co219 O229 2.111 1_545 S
Co219 O230 2.143 . S
Co219 O234 2.111 1_554 S
Co219 O248 2.143 1_544 S
O220 Co217 2.042 1_554 S
O220 Co218 2.122 . S
O220 Co219 2.087 1_565 S
O220 H221 0.980 . S
H221 O220 0.980 . S
O222 Co219 2.087 . S
O222 Co223 2.042 . S
O222 Co224 2.122 1_554 S
O222 H225 0.980 . S
Co223 O222 2.042 . S
Co223 O231 2.286 . S
Co223 O232 2.069 . S
Co223 O233 2.015 . S
Co223 O236 2.264 1_554 S
Co224 O222 2.122 1_556 S
Co224 O235 1.976 . S
Co224 O236 2.327 . S
Co224 O237 2.073 . S
H225 O222 0.980 . S
O226 Co218 2.073 . S
O226 C241 1.245 . S
O227 Co217 2.264 1_554 S
O227 Co218 2.327 . S
O227 C241 1.257 . S
O228 Co218 1.976 . S
O228 C240 1.251 . S
O229 Co219 2.111 1_565 S
O229 C240 1.274 . S
O230 Co219 2.143 . S
O230 C243 1.246 . S
O231 Co223 2.286 . S
O231 C242 1.259 . S
O232 Co223 2.069 . S
O232 C242 1.289 . S
O233 Co223 2.015 . S
O233 C243 1.257 . S
O234 Co219 2.111 1_556 S
O234 C244 1.274 . S
O235 Co224 1.976 . S
O235 C244 1.251 . S
O236 Co223 2.264 1_556 S
O236 Co224 2.327 . S
O236 C245 1.257 . S
O237 Co224 2.073 . S
O237 C245 1.245 . S
C238 O246 1.259 . S
C238 O247 1.289 . S
C239 O248 1.246 . S
C239 O249 1.257 . S
C240 O228 1.251 . S
C240 O229 1.274 . S
C241 O226 1.245 . S
C241 O227 1.257 . S
C242 O231 1.259 . S
C242 O232 1.289 . S
C243 O230 1.246 . S
C243 O233 1.257 . S
C244 O234 1.274 . S
C244 O235 1.251 . S
C245 O236 1.257 . S
C245 O237 1.245 . S
O246 Co217 2.286 . S
O246 C238 1.259 . S
O247 Co217 2.069 . S
O247 C238 1.289 . S
O248 Co219 2.143 1_566 S
O248 C239 1.246 . S
O249 Co217 2.015 . S
O249 C239 1.257 . S
Co250 O253 2.042 1_556 S
Co250 O260 2.264 1_556 S
Co250 O279 2.286 . S
Co250 O280 2.069 . S
Co250 O282 2.015 1_455 S
Co251 O253 2.122 . S
Co251 O259 2.073 . S
Co251 O260 2.327 . S
Co251 O261 1.976 1_455 S
Co252 O253 2.087 . S
Co252 O255 2.087 1_454 S
Co252 O262 2.111 1_455 S
Co252 O263 2.143 . S
Co252 O267 2.111 1_554 S
Co252 O281 2.143 1_454 S
O253 Co250 2.042 1_554 S
O253 Co251 2.122 . S
O253 Co252 2.087 . S
O253 H254 0.980 . S
H254 O253 0.980 . S
O255 Co252 2.087 1_656 S
O255 Co256 2.042 1_556 S
O255 Co257 2.122 . S
O255 H258 0.980 . S
Co256 O255 2.042 1_554 S
Co256 O264 2.286 . S
Co256 O265 2.069 . S
Co256 O266 2.015 1_655 S
Co256 O269 2.264 1_554 S
Co257 O255 2.122 . S
Co257 O268 1.976 1_655 S
Co257 O269 2.327 . S
Co257 O270 2.073 . S
H258 O255 0.980 . S
O259 Co251 2.073 . S
O259 C274 1.245 . S
O260 Co250 2.264 1_554 S
O260 Co251 2.327 . S
O260 C274 1.257 . S
O261 Co251 1.976 1_655 S
O261 C273 1.251 . S
O262 Co252 2.111 1_655 S
O262 C273 1.274 . S
O263 Co252 2.143 . S
O263 C276 1.246 . S
O264 Co256 2.286 . S
O264 C275 1.259 . S
O265 Co256 2.069 . S
O265 C275 1.289 . S
O266 Co256 2.015 1_455 S
O266 C276 1.257 . S
O267 Co252 2.111 1_556 S
O267 C277 1.274 . S
O268 Co257 1.976 1_455 S
O268 C277 1.251 . S
O269 Co256 2.264 1_556 S
O269 Co257 2.327 . S
O269 C278 1.257 . S
O270 Co257 2.073 . S
O270 C278 1.245 . S
C271 O279 1.259 . S
C271 O280 1.289 . S
C272 O281 1.246 . S
C272 O282 1.257 . S
C273 O261 1.251 . S
C273 O262 1.274 . S
C274 O259 1.245 . S
C274 O260 1.257 . S
C275 O264 1.259 . S
C275 O265 1.289 . S
C276 O263 1.246 . S
C276 O266 1.257 . S
C277 O267 1.274 . S
C277 O268 1.251 . S
C278 O269 1.257 . S
C278 O270 1.245 . S
O279 Co250 2.286 . S
O279 C271 1.259 . S
O280 Co250 2.069 . S
O280 C271 1.289 . S
O281 Co252 2.143 1_656 S
O281 C272 1.246 . S
O282 Co250 2.015 1_655 S
O282 C272 1.257 . S
Co283 O286 2.042 1_556 S
Co283 O293 2.264 1_556 S
Co283 O312 2.286 . S
Co283 O313 2.069 . S
Co283 O315 2.015 . S
Co284 O286 2.122 . S
Co284 O292 2.073 . S
Co284 O293 2.327 . S
Co284 O294 1.976 . S
Co285 O286 2.087 . S
Co285 O288 2.087 1_554 S
Co285 O295 2.111 . S
Co285 O296 2.143 . S
Co285 O300 2.111 1_554 S
Co285 O314 2.143 1_554 S
O286 Co283 2.042 1_554 S
O286 Co284 2.122 . S
O286 Co285 2.087 . S
O286 H287 0.980 . S
H287 O286 0.980 . S
O288 Co285 2.087 1_556 S
O288 Co289 2.042 1_556 S
O288 Co290 2.122 . S
O288 H291 0.980 . S
Co289 O288 2.042 1_554 S
Co289 O297 2.286 . S
Co289 O298 2.069 . S
Co289 O299 2.015 . S
Co289 O302 2.264 1_554 S
Co290 O288 2.122 . S
Co290 O301 1.976 . S
Co290 O302 2.327 . S
Co290 O303 2.073 . S
H291 O288 0.980 . S
O292 Co284 2.073 . S
O292 C307 1.245 . S
O293 Co283 2.264 1_554 S
O293 Co284 2.327 . S
O293 C307 1.257 . S
O294 Co284 1.976 . S
O294 C306 1.251 . S
O295 Co285 2.111 . S
O295 C306 1.274 . S
O296 Co285 2.143 . S
O296 C309 1.246 . S
O297 Co289 2.286 . S
O297 C308 1.259 . S
O298 Co289 2.069 . S
O298 C308 1.289 . S
O299 Co289 2.015 . S
O299 C309 1.257 . S
O300 Co285 2.111 1_556 S
O300 C310 1.274 . S
O301 Co290 1.976 . S
O301 C310 1.251 . S
O302 Co289 2.264 1_556 S
O302 Co290 2.327 . S
O302 C311 1.257 . S
O303 Co290 2.073 . S
O303 C311 1.245 . S
C304 O312 1.259 . S
C304 O313 1.289 . S
C305 O314 1.246 . S
C305 O315 1.257 . S
C306 O294 1.251 . S
C306 O295 1.274 . S
C307 O292 1.245 . S
C307 O293 1.257 . S
C308 O297 1.259 . S
C308 O298 1.289 . S
C309 O296 1.246 . S
C309 O299 1.257 . S
C310 O300 1.274 . S
C310 O301 1.251 . S
C311 O302 1.257 . S
C311 O303 1.245 . S
O312 Co283 2.286 . S
O312 C304 1.259 . S
O313 Co283 2.069 . S
O313 C304 1.289 . S
O314 Co285 2.143 1_556 S
O314 C305 1.246 . S
O315 Co283 2.015 . S
O315 C305 1.257 . S
Co316 O319 2.042 . S
Co316 O326 2.264 . S
Co316 O345 2.286 . S
Co316 O346 2.069 . S
Co316 O348 2.015 . S
Co317 O319 2.122 . S
Co317 O325 2.073 . S
Co317 O326 2.327 . S
Co317 O327 1.976 . S
Co318 O319 2.087 . S
Co318 O321 2.087 1_455 S
Co318 O328 2.111 . S
Co318 O329 2.143 1_455 S
Co318 O333 2.111 1_455 S
Co318 O347 2.143 . S
O319 Co316 2.042 . S
O319 Co317 2.122 . S
O319 Co318 2.087 . S
O319 H320 0.980 . S
H320 O319 0.980 . S
O321 Co318 2.087 1_655 S
O321 Co322 2.042 . S
O321 Co323 2.122 . S
O321 H324 0.980 . S
Co322 O321 2.042 . S
Co322 O330 2.286 . S
Co322 O331 2.069 . S
Co322 O332 2.015 . S
Co322 O335 2.264 . S
Co323 O321 2.122 . S
Co323 O334 1.976 . S
Co323 O335 2.327 . S
Co323 O336 2.073 . S
H324 O321 0.980 . S
O325 Co317 2.073 . S
O325 C340 1.245 . S
O326 Co316 2.264 . S
O326 Co317 2.327 . S
O326 C340 1.257 . S
O327 Co317 1.976 . S
O327 C339 1.251 . S
O328 Co318 2.111 . S
O328 C339 1.274 . S
O329 Co318 2.143 1_655 S
O329 C342 1.246 . S
O330 Co322 2.286 . S
O330 C341 1.259 . S
O331 Co322 2.069 . S
O331 C341 1.289 . S
O332 Co322 2.015 . S
O332 C342 1.257 . S
O333 Co318 2.111 1_655 S
O333 C343 1.274 . S
O334 Co323 1.976 . S
O334 C343 1.251 . S
O335 Co322 2.264 . S
O335 Co323 2.327 . S
O335 C344 1.257 . S
O336 Co323 2.073 . S
O336 C344 1.245 . S
C337 O345 1.259 . S
C337 O346 1.289 . S
C338 O347 1.246 . S
C338 O348 1.257 . S
C339 O327 1.251 . S
C339 O328 1.274 . S
C340 O325 1.245 . S
C340 O326 1.257 . S
C341 O330 1.259 . S
C341 O331 1.289 . S
C342 O329 1.246 . S
C342 O332 1.257 . S
C343 O333 1.274 . S
C343 O334 1.251 . S
C344 O335 1.257 . S
C344 O336 1.245 . S
O345 Co316 2.286 . S
O345 C337 1.259 . S
O346 Co316 2.069 . S
O346 C337 1.289 . S
O347 Co318 2.143 . S
O347 C338 1.246 . S
O348 Co316 2.015 . S
O348 C338 1.257 . S
Co349 O352 2.042 . S
Co349 O359 2.264 . S
Co349 O378 2.286 . S
Co349 O379 2.069 . S
Co349 O381 2.015 1_565 S
Co350 O352 2.122 . S
Co350 O358 2.073 . S
Co350 O359 2.327 . S
Co350 O360 1.976 1_565 S
Co351 O352 2.087 1_545 S
Co351 O354 2.087 . S
Co351 O361 2.111 . S
Co351 O362 2.143 1_545 S
Co351 O366 2.111 1_545 S
Co351 O380 2.143 . S
O352 Co349 2.042 . S
O352 Co350 2.122 . S
O352 Co351 2.087 1_565 S
O352 H353 0.980 . S
H353 O352 0.980 . S
O354 Co351 2.087 . S
O354 Co355 2.042 . S
O354 Co356 2.122 . S
O354 H357 0.980 . S
Co355 O354 2.042 . S
Co355 O363 2.286 . S
Co355 O364 2.069 . S
Co355 O365 2.015 1_545 S
Co355 O368 2.264 . S
Co356 O354 2.122 . S
Co356 O367 1.976 1_545 S
Co356 O368 2.327 . S
Co356 O369 2.073 . S
H357 O354 0.980 . S
O358 Co350 2.073 . S
O358 C373 1.245 . S
O359 Co349 2.264 . S
O359 Co350 2.327 . S
O359 C373 1.257 . S
O360 Co350 1.976 1_545 S
O360 C372 1.251 . S
O361 Co351 2.111 . S
O361 C372 1.274 . S
O362 Co351 2.143 1_565 S
O362 C375 1.246 . S
O363 Co355 2.286 . S
O363 C374 1.259 . S
O364 Co355 2.069 . S
O364 C374 1.289 . S
O365 Co355 2.015 1_565 S
O365 C375 1.257 . S
O366 Co351 2.111 1_565 S
O366 C376 1.274 . S
O367 Co356 1.976 1_565 S
O367 C376 1.251 . S
O368 Co355 2.264 . S
O368 Co356 2.327 . S
O368 C377 1.257 . S
O369 Co356 2.073 . S
O369 C377 1.245 . S
C370 O378 1.259 . S
C370 O379 1.289 . S
C371 O380 1.246 . S
C371 O381 1.257 . S
C372 O360 1.251 . S
C372 O361 1.274 . S
C373 O358 1.245 . S
C373 O359 1.257 . S
C374 O363 1.259 . S
C374 O364 1.289 . S
C375 O362 1.246 . S
C375 O365 1.257 . S
C376 O366 1.274 . S
C376 O367 1.251 . S
C377 O368 1.257 . S
C377 O369 1.245 . S
O378 Co349 2.286 . S
O378 C370 1.259 . S
O379 Co349 2.069 . S
O379 C370 1.289 . S
O380 Co351 2.143 . S
O380 C371 1.246 . S
O381 Co349 2.015 1_545 S
O381 C371 1.257 . S
C382 C383 1.391 . S
C382 C384 1.394 . S
C382 H398 0.931 . S
C383 C382 1.391 . S
C383 C387 1.376 . S
C384 C382 1.394 . S
C384 C385 1.369 . S
C384 C388 1.531 . S
C385 C384 1.369 . S
C385 C386 1.410 . S
C385 C393 1.503 . S
C386 C385 1.410 . S
C386 C387 1.392 . S
C386 C389 1.511 . S
C387 C383 1.376 . S
C387 C386 1.392 . S
C387 H399 0.929 . S
C388 C384 1.531 . S
C388 H400 0.960 . S
C388 H401 0.962 . S
C388 H402 0.960 . S
C389 C386 1.511 . S
C389 H403 0.961 . S
C389 H404 0.961 . S
C389 H405 0.961 . S
C390 C391 1.370 . S
C390 C392 1.363 . S
C390 H406 0.931 . S
C391 C390 1.370 . S
C391 C395 1.408 . S
C392 C390 1.363 . S
C392 C393 1.370 . S
C392 C396 1.524 . S
C393 C385 1.503 . S
C393 C392 1.370 . S
C393 C394 1.403 . S
C394 C393 1.403 . S
C394 C395 1.404 . S
C394 C397 1.539 . S
C395 C391 1.408 . S
C395 C394 1.404 . S
C395 H407 0.930 . S
C396 C392 1.524 . S
C396 H408 0.956 . S
C396 H409 0.961 . S
C396 H410 0.961 . S
C397 C394 1.539 . S
C397 H411 0.958 . S
C397 H412 0.961 . S
C397 H413 0.960 . S
H398 C382 0.931 . S
H399 C387 0.929 . S
H400 C388 0.960 . S
H401 C388 0.962 . S
H402 C388 0.960 . S
H403 C389 0.961 . S
H404 C389 0.961 . S
H405 C389 0.961 . S
H406 C390 0.931 . S
H407 C395 0.930 . S
H408 C396 0.956 . S
H409 C396 0.961 . S
H410 C396 0.961 . S
H411 C397 0.958 . S
H412 C397 0.961 . S
H413 C397 0.960 . S
C414 C415 1.391 . S
C414 C416 1.394 . S
C414 H430 0.931 . S
C415 C414 1.391 . S
C415 C419 1.376 . S
C416 C414 1.394 . S
C416 C417 1.369 . S
C416 C420 1.531 . S
C417 C416 1.369 . S
C417 C418 1.410 . S
C417 C425 1.503 . S
C418 C417 1.410 . S
C418 C419 1.392 . S
C418 C421 1.511 . S
C419 C415 1.376 . S
C419 C418 1.392 . S
C419 H431 0.929 . S
C420 C416 1.531 . S
C420 H432 0.960 . S
C420 H433 0.962 . S
C420 H434 0.960 . S
C421 C418 1.511 . S
C421 H435 0.961 . S
C421 H436 0.961 . S
C421 H437 0.961 . S
C422 C423 1.370 . S
C422 C424 1.363 . S
C422 H438 0.931 . S
C423 C422 1.370 . S
C423 C427 1.408 . S
C424 C422 1.363 . S
C424 C425 1.370 . S
C424 C428 1.524 . S
C425 C417 1.503 . S
C425 C424 1.370 . S
C425 C426 1.403 . S
C426 C425 1.403 . S
C426 C427 1.404 . S
C426 C429 1.539 . S
C427 C423 1.408 . S
C427 C426 1.404 . S
C427 H439 0.930 . S
C428 C424 1.524 . S
C428 H440 0.956 . S
C428 H441 0.961 . S
C428 H442 0.961 . S
C429 C426 1.539 . S
C429 H443 0.958 . S
C429 H444 0.961 . S
C429 H445 0.960 . S
H430 C414 0.931 . S
H431 C419 0.929 . S
H432 C420 0.960 . S
H433 C420 0.962 . S
H434 C420 0.960 . S
H435 C421 0.961 . S
H436 C421 0.961 . S
H437 C421 0.961 . S
H438 C422 0.931 . S
H439 C427 0.930 . S
H440 C428 0.956 . S
H441 C428 0.961 . S
H442 C428 0.961 . S
H443 C429 0.958 . S
H444 C429 0.961 . S
H445 C429 0.960 . S
C446 C447 1.391 . S
C446 C448 1.394 . S
C446 H462 0.931 . S
C447 C446 1.391 . S
C447 C451 1.376 . S
C448 C446 1.394 . S
C448 C449 1.369 . S
C448 C452 1.531 . S
C449 C448 1.369 . S
C449 C450 1.410 . S
C449 C457 1.503 . S
C450 C449 1.410 . S
C450 C451 1.392 . S
C450 C453 1.511 . S
C451 C447 1.376 . S
C451 C450 1.392 . S
C451 H463 0.929 . S
C452 C448 1.531 . S
C452 H464 0.960 . S
C452 H465 0.962 . S
C452 H466 0.960 . S
C453 C450 1.511 . S
C453 H467 0.961 . S
C453 H468 0.961 . S
C453 H469 0.961 . S
C454 C455 1.370 . S
C454 C456 1.363 . S
C454 H470 0.931 . S
C455 C454 1.370 . S
C455 C459 1.408 . S
C456 C454 1.363 . S
C456 C457 1.370 . S
C456 C460 1.524 . S
C457 C449 1.503 . S
C457 C456 1.370 . S
C457 C458 1.403 . S
C458 C457 1.403 . S
C458 C459 1.404 . S
C458 C461 1.539 . S
C459 C455 1.408 . S
C459 C458 1.404 . S
C459 H471 0.930 . S
C460 C456 1.524 . S
C460 H472 0.956 . S
C460 H473 0.961 . S
C460 H474 0.961 . S
C461 C458 1.539 . S
C461 H475 0.958 . S
C461 H476 0.961 . S
C461 H477 0.960 . S
H462 C446 0.931 . S
H463 C451 0.929 . S
H464 C452 0.960 . S
H465 C452 0.962 . S
H466 C452 0.960 . S
H467 C453 0.961 . S
H468 C453 0.961 . S
H469 C453 0.961 . S
H470 C454 0.931 . S
H471 C459 0.930 . S
H472 C460 0.956 . S
H473 C460 0.961 . S
H474 C460 0.961 . S
H475 C461 0.958 . S
H476 C461 0.961 . S
H477 C461 0.960 . S
C478 C479 1.391 . S
C478 C480 1.394 . S
C478 H494 0.931 . S
C479 C478 1.391 . S
C479 C483 1.376 . S
C480 C478 1.394 . S
C480 C481 1.369 . S
C480 C484 1.531 . S
C481 C480 1.369 . S
C481 C482 1.410 . S
C481 C489 1.503 . S
C482 C481 1.410 . S
C482 C483 1.392 . S
C482 C485 1.511 . S
C483 C479 1.376 . S
C483 C482 1.392 . S
C483 H495 0.929 . S
C484 C480 1.531 . S
C484 H496 0.960 . S
C484 H497 0.962 . S
C484 H498 0.960 . S
C485 C482 1.511 . S
C485 H499 0.961 . S
C485 H500 0.961 . S
C485 H501 0.961 . S
C486 C487 1.370 . S
C486 C488 1.363 . S
C486 H502 0.931 . S
C487 C486 1.370 . S
C487 C491 1.408 . S
C488 C486 1.363 . S
C488 C489 1.370 . S
C488 C492 1.524 . S
C489 C481 1.503 . S
C489 C488 1.370 . S
C489 C490 1.403 . S
C490 C489 1.403 . S
C490 C491 1.404 . S
C490 C493 1.539 . S
C491 C487 1.408 . S
C491 C490 1.404 . S
C491 H503 0.930 . S
C492 C488 1.524 . S
C492 H504 0.956 . S
C492 H505 0.961 . S
C492 H506 0.961 . S
C493 C490 1.539 . S
C493 H507 0.958 . S
C493 H508 0.961 . S
C493 H509 0.960 . S
H494 C478 0.931 . S
H495 C483 0.929 . S
H496 C484 0.960 . S
H497 C484 0.962 . S
H498 C484 0.960 . S
H499 C485 0.961 . S
H500 C485 0.961 . S
H501 C485 0.961 . S
H502 C486 0.931 . S
H503 C491 0.930 . S
H504 C492 0.956 . S
H505 C492 0.961 . S
H506 C492 0.961 . S
H507 C493 0.958 . S
H508 C493 0.961 . S
H509 C493 0.960 . S
C510 C511 1.391 . S
C510 C512 1.394 . S
C510 H526 0.931 . S
C511 C510 1.391 . S
C511 C515 1.376 . S
C512 C510 1.394 . S
C512 C513 1.369 . S
C512 C516 1.531 . S
C513 C512 1.369 . S
C513 C514 1.410 . S
C513 C521 1.503 . S
C514 C513 1.410 . S
C514 C515 1.392 . S
C514 C517 1.511 . S
C515 C511 1.376 . S
C515 C514 1.392 . S
C515 H527 0.929 . S
C516 C512 1.531 . S
C516 H528 0.960 . S
C516 H529 0.962 . S
C516 H530 0.960 . S
C517 C514 1.511 . S
C517 H531 0.961 . S
C517 H532 0.961 . S
C517 H533 0.961 . S
C518 C519 1.370 . S
C518 C520 1.363 . S
C518 H534 0.931 . S
C519 C518 1.370 . S
C519 C523 1.408 . S
C520 C518 1.363 . S
C520 C521 1.370 . S
C520 C524 1.524 . S
C521 C513 1.503 . S
C521 C520 1.370 . S
C521 C522 1.403 . S
C522 C521 1.403 . S
C522 C523 1.404 . S
C522 C525 1.539 . S
C523 C519 1.408 . S
C523 C522 1.404 . S
C523 H535 0.930 . S
C524 C520 1.524 . S
C524 H536 0.956 . S
C524 H537 0.961 . S
C524 H538 0.961 . S
C525 C522 1.539 . S
C525 H539 0.958 . S
C525 H540 0.961 . S
C525 H541 0.960 . S
H526 C510 0.931 . S
H527 C515 0.929 . S
H528 C516 0.960 . S
H529 C516 0.962 . S
H530 C516 0.960 . S
H531 C517 0.961 . S
H532 C517 0.961 . S
H533 C517 0.961 . S
H534 C518 0.931 . S
H535 C523 0.930 . S
H536 C524 0.956 . S
H537 C524 0.961 . S
H538 C524 0.961 . S
H539 C525 0.958 . S
H540 C525 0.961 . S
H541 C525 0.960 . S
C542 C543 1.391 . S
C542 C544 1.394 . S
C542 H558 0.931 . S
C543 C542 1.391 . S
C543 C547 1.376 . S
C544 C542 1.394 . S
C544 C545 1.369 . S
C544 C548 1.531 . S
C545 C544 1.369 . S
C545 C546 1.410 . S
C545 C553 1.503 . S
C546 C545 1.410 . S
C546 C547 1.392 . S
C546 C549 1.511 . S
C547 C543 1.376 . S
C547 C546 1.392 . S
C547 H559 0.929 . S
C548 C544 1.531 . S
C548 H560 0.960 . S
C548 H561 0.962 . S
C548 H562 0.960 . S
C549 C546 1.511 . S
C549 H563 0.961 . S
C549 H564 0.961 . S
C549 H565 0.961 . S
C550 C551 1.370 . S
C550 C552 1.363 . S
C550 H566 0.931 . S
C551 C550 1.370 . S
C551 C555 1.408 . S
C552 C550 1.363 . S
C552 C553 1.370 . S
C552 C556 1.524 . S
C553 C545 1.503 . S
C553 C552 1.370 . S
C553 C554 1.403 . S
C554 C553 1.403 . S
C554 C555 1.404 . S
C554 C557 1.539 . S
C555 C551 1.408 . S
C555 C554 1.404 . S
C555 H567 0.930 . S
C556 C552 1.524 . S
C556 H568 0.956 . S
C556 H569 0.961 . S
C556 H570 0.961 . S
C557 C554 1.539 . S
C557 H571 0.958 . S
C557 H572 0.961 . S
C557 H573 0.960 . S
H558 C542 0.931 . S
H559 C547 0.929 . S
H560 C548 0.960 . S
H561 C548 0.962 . S
H562 C548 0.960 . S
H563 C549 0.961 . S
H564 C549 0.961 . S
H565 C549 0.961 . S
H566 C550 0.931 . S
H567 C555 0.930 . S
H568 C556 0.956 . S
H569 C556 0.961 . S
H570 C556 0.961 . S
H571 C557 0.958 . S
H572 C557 0.961 . S
H573 C557 0.960 . S
C574 C575 1.391 . S
C574 C576 1.394 . S
C574 H590 0.931 . S
C575 C574 1.391 . S
C575 C579 1.376 . S
C576 C574 1.394 . S
C576 C577 1.369 . S
C576 C580 1.531 . S
C577 C576 1.369 . S
C577 C578 1.410 . S
C577 C585 1.503 . S
C578 C577 1.410 . S
C578 C579 1.392 . S
C578 C581 1.511 . S
C579 C575 1.376 . S
C579 C578 1.392 . S
C579 H591 0.929 . S
C580 C576 1.531 . S
C580 H592 0.960 . S
C580 H593 0.962 . S
C580 H594 0.960 . S
C581 C578 1.511 . S
C581 H595 0.961 . S
C581 H596 0.961 . S
C581 H597 0.961 . S
C582 C583 1.370 . S
C582 C584 1.363 . S
C582 H598 0.931 . S
C583 C582 1.370 . S
C583 C587 1.408 . S
C584 C582 1.363 . S
C584 C585 1.370 . S
C584 C588 1.524 . S
C585 C577 1.503 . S
C585 C584 1.370 . S
C585 C586 1.403 . S
C586 C585 1.403 . S
C586 C587 1.404 . S
C586 C589 1.539 . S
C587 C583 1.408 . S
C587 C586 1.404 . S
C587 H599 0.930 . S
C588 C584 1.524 . S
C588 H600 0.956 . S
C588 H601 0.961 . S
C588 H602 0.961 . S
C589 C586 1.539 . S
C589 H603 0.958 . S
C589 H604 0.961 . S
C589 H605 0.960 . S
H590 C574 0.931 . S
H591 C579 0.929 . S
H592 C580 0.960 . S
H593 C580 0.962 . S
H594 C580 0.960 . S
H595 C581 0.961 . S
H596 C581 0.961 . S
H597 C581 0.961 . S
H598 C582 0.931 . S
H599 C587 0.930 . S
H600 C588 0.956 . S
H601 C588 0.961 . S
H602 C588 0.961 . S
H603 C589 0.958 . S
H604 C589 0.961 . S
H605 C589 0.960 . S
C606 C607 1.391 . S
C606 C608 1.394 . S
C606 H622 0.931 . S
C607 C606 1.391 . S
C607 C611 1.376 . S
C608 C606 1.394 . S
C608 C609 1.369 . S
C608 C612 1.531 . S
C609 C608 1.369 . S
C609 C610 1.410 . S
C609 C617 1.503 . S
C610 C609 1.410 . S
C610 C611 1.392 . S
C610 C613 1.511 . S
C611 C607 1.376 . S
C611 C610 1.392 . S
C611 H623 0.929 . S
C612 C608 1.531 . S
C612 H624 0.960 . S
C612 H625 0.962 . S
C612 H626 0.960 . S
C613 C610 1.511 . S
C613 H627 0.961 . S
C613 H628 0.961 . S
C613 H629 0.961 . S
C614 C615 1.370 . S
C614 C616 1.363 . S
C614 H630 0.931 . S
C615 C614 1.370 . S
C615 C619 1.408 . S
C616 C614 1.363 . S
C616 C617 1.370 . S
C616 C620 1.524 . S
C617 C609 1.503 . S
C617 C616 1.370 . S
C617 C618 1.403 . S
C618 C617 1.403 . S
C618 C619 1.404 . S
C618 C621 1.539 . S
C619 C615 1.408 . S
C619 C618 1.404 . S
C619 H631 0.930 . S
C620 C616 1.524 . S
C620 H632 0.956 . S
C620 H633 0.961 . S
C620 H634 0.961 . S
C621 C618 1.539 . S
C621 H635 0.958 . S
C621 H636 0.961 . S
C621 H637 0.960 . S
H622 C606 0.931 . S
H623 C611 0.929 . S
H624 C612 0.960 . S
H625 C612 0.962 . S
H626 C612 0.960 . S
H627 C613 0.961 . S
H628 C613 0.961 . S
H629 C613 0.961 . S
H630 C614 0.931 . S
H631 C619 0.930 . S
H632 C620 0.956 . S
H633 C620 0.961 . S
H634 C620 0.961 . S
H635 C621 0.958 . S
H636 C621 0.961 . S
H637 C621 0.960 . S
C638 C639 1.391 . S
C638 C640 1.394 . S
C638 H654 0.931 . S
C639 C638 1.391 . S
C639 C643 1.376 . S
C640 C638 1.394 . S
C640 C641 1.369 . S
C640 C644 1.531 . S
C641 C640 1.369 . S
C641 C642 1.410 . S
C641 C649 1.503 . S
C642 C641 1.410 . S
C642 C643 1.392 . S
C642 C645 1.511 . S
C643 C639 1.376 . S
C643 C642 1.392 . S
C643 H655 0.929 . S
C644 C640 1.531 . S
C644 H656 0.960 . S
C644 H657 0.962 . S
C644 H658 0.960 . S
C645 C642 1.511 . S
C645 H659 0.961 . S
C645 H660 0.961 . S
C645 H661 0.961 . S
C646 C647 1.370 . S
C646 C648 1.363 . S
C646 H662 0.931 . S
C647 C646 1.370 . S
C647 C651 1.408 . S
C648 C646 1.363 . S
C648 C649 1.370 . S
C648 C652 1.524 . S
C649 C641 1.503 . S
C649 C648 1.370 . S
C649 C650 1.403 . S
C650 C649 1.403 . S
C650 C651 1.404 . S
C650 C653 1.539 . S
C651 C647 1.408 . S
C651 C650 1.404 . S
C651 H663 0.930 . S
C652 C648 1.524 . S
C652 H664 0.956 . S
C652 H665 0.961 . S
C652 H666 0.961 . S
C653 C650 1.539 . S
C653 H667 0.958 . S
C653 H668 0.961 . S
C653 H669 0.960 . S
H654 C638 0.931 . S
H655 C643 0.929 . S
H656 C644 0.960 . S
H657 C644 0.962 . S
H658 C644 0.960 . S
H659 C645 0.961 . S
H660 C645 0.961 . S
H661 C645 0.961 . S
H662 C646 0.931 . S
H663 C651 0.930 . S
H664 C652 0.956 . S
H665 C652 0.961 . S
H666 C652 0.961 . S
H667 C653 0.958 . S
H668 C653 0.961 . S
H669 C653 0.960 . S
C670 C671 1.391 . S
C670 C672 1.394 . S
C670 H686 0.931 . S
C671 C670 1.391 . S
C671 C675 1.376 . S
C672 C670 1.394 . S
C672 C673 1.369 . S
C672 C676 1.531 . S
C673 C672 1.369 . S
C673 C674 1.410 . S
C673 C681 1.503 . S
C674 C673 1.410 . S
C674 C675 1.392 . S
C674 C677 1.511 . S
C675 C671 1.376 . S
C675 C674 1.392 . S
C675 H687 0.929 . S
C676 C672 1.531 . S
C676 H688 0.960 . S
C676 H689 0.962 . S
C676 H690 0.960 . S
C677 C674 1.511 . S
C677 H691 0.961 . S
C677 H692 0.961 . S
C677 H693 0.961 . S
C678 C679 1.370 . S
C678 C680 1.363 . S
C678 H694 0.931 . S
C679 C678 1.370 . S
C679 C683 1.408 . S
C680 C678 1.363 . S
C680 C681 1.370 . S
C680 C684 1.524 . S
C681 C673 1.503 . S
C681 C680 1.370 . S
C681 C682 1.403 . S
C682 C681 1.403 . S
C682 C683 1.404 . S
C682 C685 1.539 . S
C683 C679 1.408 . S
C683 C682 1.404 . S
C683 H695 0.930 . S
C684 C680 1.524 . S
C684 H696 0.956 . S
C684 H697 0.961 . S
C684 H698 0.961 . S
C685 C682 1.539 . S
C685 H699 0.958 . S
C685 H700 0.961 . S
C685 H701 0.960 . S
H686 C670 0.931 . S
H687 C675 0.929 . S
H688 C676 0.960 . S
H689 C676 0.962 . S
H690 C676 0.960 . S
H691 C677 0.961 . S
H692 C677 0.961 . S
H693 C677 0.961 . S
H694 C678 0.931 . S
H695 C683 0.930 . S
H696 C684 0.956 . S
H697 C684 0.961 . S
H698 C684 0.961 . S
H699 C685 0.958 . S
H700 C685 0.961 . S
H701 C685 0.960 . S
C702 C703 1.391 . S
C702 C704 1.394 . S
C702 H718 0.931 . S
C703 C702 1.391 . S
C703 C707 1.376 . S
C704 C702 1.394 . S
C704 C705 1.369 . S
C704 C708 1.531 . S
C705 C704 1.369 . S
C705 C706 1.410 . S
C705 C713 1.503 . S
C706 C705 1.410 . S
C706 C707 1.392 . S
C706 C709 1.511 . S
C707 C703 1.376 . S
C707 C706 1.392 . S
C707 H719 0.929 . S
C708 C704 1.531 . S
C708 H720 0.960 . S
C708 H721 0.962 . S
C708 H722 0.960 . S
C709 C706 1.511 . S
C709 H723 0.961 . S
C709 H724 0.961 . S
C709 H725 0.961 . S
C710 C711 1.370 . S
C710 C712 1.363 . S
C710 H726 0.931 . S
C711 C710 1.370 . S
C711 C715 1.408 . S
C712 C710 1.363 . S
C712 C713 1.370 . S
C712 C716 1.524 . S
C713 C705 1.503 . S
C713 C712 1.370 . S
C713 C714 1.403 . S
C714 C713 1.403 . S
C714 C715 1.404 . S
C714 C717 1.539 . S
C715 C711 1.408 . S
C715 C714 1.404 . S
C715 H727 0.930 . S
C716 C712 1.524 . S
C716 H728 0.956 . S
C716 H729 0.961 . S
C716 H730 0.961 . S
C717 C714 1.539 . S
C717 H731 0.958 . S
C717 H732 0.961 . S
C717 H733 0.960 . S
H718 C702 0.931 . S
H719 C707 0.929 . S
H720 C708 0.960 . S
H721 C708 0.962 . S
H722 C708 0.960 . S
H723 C709 0.961 . S
H724 C709 0.961 . S
H725 C709 0.961 . S
H726 C710 0.931 . S
H727 C715 0.930 . S
H728 C716 0.956 . S
H729 C716 0.961 . S
H730 C716 0.961 . S
H731 C717 0.958 . S
H732 C717 0.961 . S
H733 C717 0.960 . S
C734 C735 1.391 . S
C734 C736 1.394 . S
C734 H750 0.931 . S
C735 C734 1.391 . S
C735 C739 1.376 . S
C736 C734 1.394 . S
C736 C737 1.369 . S
C736 C740 1.531 . S
C737 C736 1.369 . S
C737 C738 1.410 . S
C737 C745 1.503 . S
C738 C737 1.410 . S
C738 C739 1.392 . S
C738 C741 1.511 . S
C739 C735 1.376 . S
C739 C738 1.392 . S
C739 H751 0.929 . S
C740 C736 1.531 . S
C740 H752 0.960 . S
C740 H753 0.962 . S
C740 H754 0.960 . S
C741 C738 1.511 . S
C741 H755 0.961 . S
C741 H756 0.961 . S
C741 H757 0.961 . S
C742 C743 1.370 . S
C742 C744 1.363 . S
C742 H758 0.931 . S
C743 C742 1.370 . S
C743 C747 1.408 . S
C744 C742 1.363 . S
C744 C745 1.370 . S
C744 C748 1.524 . S
C745 C737 1.503 . S
C745 C744 1.370 . S
C745 C746 1.403 . S
C746 C745 1.403 . S
C746 C747 1.404 . S
C746 C749 1.539 . S
C747 C743 1.408 . S
C747 C746 1.404 . S
C747 H759 0.930 . S
C748 C744 1.524 . S
C748 H760 0.956 . S
C748 H761 0.961 . S
C748 H762 0.961 . S
C749 C746 1.539 . S
C749 H763 0.958 . S
C749 H764 0.961 . S
C749 H765 0.960 . S
H750 C734 0.931 . S
H751 C739 0.929 . S
H752 C740 0.960 . S
H753 C740 0.962 . S
H754 C740 0.960 . S
H755 C741 0.961 . S
H756 C741 0.961 . S
H757 C741 0.961 . S
H758 C742 0.931 . S
H759 C747 0.930 . S
H760 C748 0.956 . S
H761 C748 0.961 . S
H762 C748 0.961 . S
H763 C749 0.958 . S
H764 C749 0.961 . S
H765 C749 0.960 . S
C766 C767 1.391 . S
C766 C768 1.394 . S
C766 H782 0.931 . S
C767 C766 1.391 . S
C767 C771 1.376 . S
C768 C766 1.394 . S
C768 C769 1.369 . S
C768 C772 1.531 . S
C769 C768 1.369 . S
C769 C770 1.410 . S
C769 C777 1.503 . S
C770 C769 1.410 . S
C770 C771 1.392 . S
C770 C773 1.511 . S
C771 C767 1.376 . S
C771 C770 1.392 . S
C771 H783 0.929 . S
C772 C768 1.531 . S
C772 H784 0.960 . S
C772 H785 0.962 . S
C772 H786 0.960 . S
C773 C770 1.511 . S
C773 H787 0.961 . S
C773 H788 0.961 . S
C773 H789 0.961 . S
C774 C775 1.370 . S
C774 C776 1.363 . S
C774 H790 0.931 . S
C775 C774 1.370 . S
C775 C779 1.408 . S
C776 C774 1.363 . S
C776 C777 1.370 . S
C776 C780 1.524 . S
C777 C769 1.503 . S
C777 C776 1.370 . S
C777 C778 1.403 . S
C778 C777 1.403 . S
C778 C779 1.404 . S
C778 C781 1.539 . S
C779 C775 1.408 . S
C779 C778 1.404 . S
C779 H791 0.930 . S
C780 C776 1.524 . S
C780 H792 0.956 . S
C780 H793 0.961 . S
C780 H794 0.961 . S
C781 C778 1.539 . S
C781 H795 0.958 . S
C781 H796 0.961 . S
C781 H797 0.960 . S
H782 C766 0.931 . S
H783 C771 0.929 . S
H784 C772 0.960 . S
H785 C772 0.962 . S
H786 C772 0.960 . S
H787 C773 0.961 . S
H788 C773 0.961 . S
H789 C773 0.961 . S
H790 C774 0.931 . S
H791 C779 0.930 . S
H792 C780 0.956 . S
H793 C780 0.961 . S
H794 C780 0.961 . S
H795 C781 0.958 . S
H796 C781 0.961 . S
H797 C781 0.960 . S
C798 C799 1.391 . S
C798 C800 1.394 . S
C798 H814 0.931 . S
C799 C798 1.391 . S
C799 C803 1.376 . S
C800 C798 1.394 . S
C800 C801 1.369 . S
C800 C804 1.531 . S
C801 C800 1.369 . S
C801 C802 1.410 . S
C801 C809 1.503 . S
C802 C801 1.410 . S
C802 C803 1.392 . S
C802 C805 1.511 . S
C803 C799 1.376 . S
C803 C802 1.392 . S
C803 H815 0.929 . S
C804 C800 1.531 . S
C804 H816 0.960 . S
C804 H817 0.962 . S
C804 H818 0.960 . S
C805 C802 1.511 . S
C805 H819 0.961 . S
C805 H820 0.961 . S
C805 H821 0.961 . S
C806 C807 1.370 . S
C806 C808 1.363 . S
C806 H822 0.931 . S
C807 C806 1.370 . S
C807 C811 1.408 . S
C808 C806 1.363 . S
C808 C809 1.370 . S
C808 C812 1.524 . S
C809 C801 1.503 . S
C809 C808 1.370 . S
C809 C810 1.403 . S
C810 C809 1.403 . S
C810 C811 1.404 . S
C810 C813 1.539 . S
C811 C807 1.408 . S
C811 C810 1.404 . S
C811 H823 0.930 . S
C812 C808 1.524 . S
C812 H824 0.956 . S
C812 H825 0.961 . S
C812 H826 0.961 . S
C813 C810 1.539 . S
C813 H827 0.958 . S
C813 H828 0.961 . S
C813 H829 0.960 . S
H814 C798 0.931 . S
H815 C803 0.929 . S
H816 C804 0.960 . S
H817 C804 0.962 . S
H818 C804 0.960 . S
H819 C805 0.961 . S
H820 C805 0.961 . S
H821 C805 0.961 . S
H822 C806 0.931 . S
H823 C811 0.930 . S
H824 C812 0.956 . S
H825 C812 0.961 . S
H826 C812 0.961 . S
H827 C813 0.958 . S
H828 C813 0.961 . S
H829 C813 0.960 . S
C830 C831 1.391 . S
C830 C832 1.394 . S
C830 H846 0.931 . S
C831 C830 1.391 . S
C831 C835 1.376 . S
C832 C830 1.394 . S
C832 C833 1.369 . S
C832 C836 1.531 . S
C833 C832 1.369 . S
C833 C834 1.410 . S
C833 C841 1.503 . S
C834 C833 1.410 . S
C834 C835 1.392 . S
C834 C837 1.511 . S
C835 C831 1.376 . S
C835 C834 1.392 . S
C835 H847 0.929 . S
C836 C832 1.531 . S
C836 H848 0.960 . S
C836 H849 0.962 . S
C836 H850 0.960 . S
C837 C834 1.511 . S
C837 H851 0.961 . S
C837 H852 0.961 . S
C837 H853 0.961 . S
C838 C839 1.370 . S
C838 C840 1.363 . S
C838 H854 0.931 . S
C839 C838 1.370 . S
C839 C843 1.408 . S
C840 C838 1.363 . S
C840 C841 1.370 . S
C840 C844 1.524 . S
C841 C833 1.503 . S
C841 C840 1.370 . S
C841 C842 1.403 . S
C842 C841 1.403 . S
C842 C843 1.404 . S
C842 C845 1.539 . S
C843 C839 1.408 . S
C843 C842 1.404 . S
C843 H855 0.930 1_556 S
C844 C840 1.524 . S
C844 H856 0.956 . S
C844 H857 0.961 . S
C844 H858 0.961 . S
C845 C842 1.539 . S
C845 H859 0.958 1_556 S
C845 H860 0.961 . S
C845 H861 0.960 . S
H846 C830 0.931 . S
H847 C835 0.929 . S
H848 C836 0.960 . S
H849 C836 0.962 . S
H850 C836 0.960 . S
H851 C837 0.961 . S
H852 C837 0.961 . S
H853 C837 0.961 . S
H854 C838 0.931 . S
H855 C843 0.930 1_554 S
H856 C844 0.956 . S
H857 C844 0.961 . S
H858 C844 0.961 . S
H859 C845 0.958 1_554 S
H860 C845 0.961 . S
H861 C845 0.960 . S
C862 C863 1.391 . S
C862 C864 1.394 . S
C862 H878 0.931 . S
C863 C862 1.391 . S
C863 C867 1.376 . S
C864 C862 1.394 . S
C864 C865 1.369 . S
C864 C868 1.531 . S
C865 C864 1.369 . S
C865 C866 1.410 . S
C865 C873 1.503 . S
C866 C865 1.410 . S
C866 C867 1.392 . S
C866 C869 1.511 . S
C867 C863 1.376 . S
C867 C866 1.392 . S
C867 H879 0.929 . S
C868 C864 1.531 . S
C868 H880 0.960 . S
C868 H881 0.962 . S
C868 H882 0.960 . S
C869 C866 1.511 . S
C869 H883 0.961 . S
C869 H884 0.961 . S
C869 H885 0.961 . S
C870 C871 1.370 . S
C870 C872 1.363 . S
C870 H886 0.931 . S
C871 C870 1.370 . S
C871 C875 1.408 . S
C872 C870 1.363 . S
C872 C873 1.370 . S
C872 C876 1.524 . S
C873 C865 1.503 . S
C873 C872 1.370 . S
C873 C874 1.403 . S
C874 C873 1.403 . S
C874 C875 1.404 . S
C874 C877 1.539 . S
C875 C871 1.408 . S
C875 C874 1.404 . S
C875 H887 0.930 . S
C876 C872 1.524 . S
C876 H888 0.956 . S
C876 H889 0.961 . S
C876 H890 0.961 . S
C877 C874 1.539 . S
C877 H891 0.958 . S
C877 H892 0.961 1_556 S
C877 H893 0.960 . S
H878 C862 0.931 . S
H879 C867 0.929 . S
H880 C868 0.960 . S
H881 C868 0.962 . S
H882 C868 0.960 . S
H883 C869 0.961 . S
H884 C869 0.961 . S
H885 C869 0.961 . S
H886 C870 0.931 . S
H887 C875 0.930 . S
H888 C876 0.956 . S
H889 C876 0.961 . S
H890 C876 0.961 . S
H891 C877 0.958 . S
H892 C877 0.961 1_554 S
H893 C877 0.960 . S
C894 C895 1.391 . S
C894 C896 1.394 . S
C894 H910 0.931 . S
C895 C894 1.391 . S
C895 C899 1.376 . S
C896 C894 1.394 . S
C896 C897 1.369 . S
C896 C900 1.531 . S
C897 C896 1.369 . S
C897 C898 1.410 . S
C897 C905 1.503 . S
C898 C897 1.410 . S
C898 C899 1.392 . S
C898 C901 1.511 . S
C899 C895 1.376 . S
C899 C898 1.392 . S
C899 H911 0.929 . S
C900 C896 1.531 . S
C900 H912 0.960 . S
C900 H913 0.962 . S
C900 H914 0.960 . S
C901 C898 1.511 . S
C901 H915 0.961 . S
C901 H916 0.961 . S
C901 H917 0.961 . S
C902 C903 1.370 . S
C902 C904 1.363 . S
C902 H918 0.931 . S
C903 C902 1.370 . S
C903 C907 1.408 . S
C904 C902 1.363 . S
C904 C905 1.370 . S
C904 C908 1.524 . S
C905 C897 1.503 . S
C905 C904 1.370 . S
C905 C906 1.403 . S
C906 C905 1.403 . S
C906 C907 1.404 . S
C906 C909 1.539 . S
C907 C903 1.408 . S
C907 C906 1.404 . S
C907 H919 0.930 . S
C908 C904 1.524 . S
C908 H920 0.956 . S
C908 H921 0.961 . S
C908 H922 0.961 . S
C909 C906 1.539 . S
C909 H923 0.958 . S
C909 H924 0.961 . S
C909 H925 0.960 . S
H910 C894 0.931 . S
H911 C899 0.929 . S
H912 C900 0.960 . S
H913 C900 0.962 . S
H914 C900 0.960 . S
H915 C901 0.961 . S
H916 C901 0.961 . S
H917 C901 0.961 . S
H918 C902 0.931 . S
H919 C907 0.930 . S
H920 C908 0.956 . S
H921 C908 0.961 . S
H922 C908 0.961 . S
H923 C909 0.958 . S
H924 C909 0.961 . S
H925 C909 0.960 . S
C926 C927 1.391 . S
C926 C928 1.394 . S
C926 H942 0.931 . S
C927 C926 1.391 . S
C927 C931 1.376 . S
C928 C926 1.394 . S
C928 C929 1.369 . S
C928 C932 1.531 . S
C929 C928 1.369 . S
C929 C930 1.410 . S
C929 C937 1.503 . S
C930 C929 1.410 . S
C930 C931 1.392 . S
C930 C933 1.511 . S
C931 C927 1.376 . S
C931 C930 1.392 . S
C931 H943 0.929 . S
C932 C928 1.531 . S
C932 H944 0.960 . S
C932 H945 0.962 . S
C932 H946 0.960 . S
C933 C930 1.511 . S
C933 H947 0.961 . S
C933 H948 0.961 . S
C933 H949 0.961 . S
C934 C935 1.370 . S
C934 C936 1.363 . S
C934 H950 0.931 . S
C935 C934 1.370 . S
C935 C939 1.408 . S
C936 C934 1.363 . S
C936 C937 1.370 . S
C936 C940 1.524 . S
C937 C929 1.503 . S
C937 C936 1.370 . S
C937 C938 1.403 . S
C938 C937 1.403 . S
C938 C939 1.404 . S
C938 C941 1.539 . S
C939 C935 1.408 . S
C939 C938 1.404 . S
C939 H951 0.930 . S
C940 C936 1.524 . S
C940 H952 0.956 . S
C940 H953 0.961 . S
C940 H954 0.961 . S
C941 C938 1.539 . S
C941 H955 0.958 1_556 S
C941 H956 0.958 1_556 S
C941 H957 0.960 . S
H942 C926 0.931 . S
H943 C931 0.929 . S
H944 C932 0.960 . S
H945 C932 0.962 . S
H946 C932 0.960 . S
H947 C933 0.961 . S
H948 C933 0.961 . S
H949 C933 0.961 . S
H950 C934 0.931 . S
H951 C939 0.930 . S
H952 C940 0.956 . S
H953 C940 0.961 . S
H954 C940 0.961 . S
H955 C941 0.958 1_554 S
H956 C941 0.958 1_554 S
H957 C941 0.960 . S
C958 C959 1.391 . S
C958 C960 1.394 . S
C958 H974 0.931 . S
C959 C958 1.391 . S
C959 C963 1.376 . S
C960 C958 1.394 . S
C960 C961 1.369 . S
C960 C964 1.531 . S
C961 C960 1.369 . S
C961 C962 1.410 . S
C961 C969 1.503 . S
C962 C961 1.410 . S
C962 C963 1.392 . S
C962 C965 1.511 . S
C963 C959 1.376 . S
C963 C962 1.392 . S
C963 H975 0.929 . S
C964 C960 1.531 . S
C964 H976 0.960 . S
C964 H977 0.962 . S
C964 H978 0.960 . S
C965 C962 1.511 . S
C965 H979 0.961 . S
C965 H980 0.961 . S
C965 H981 0.961 . S
C966 C967 1.370 . S
C966 C968 1.363 . S
C966 H982 0.931 . S
C967 C966 1.370 . S
C967 C971 1.408 . S
C968 C966 1.363 . S
C968 C969 1.370 . S
C968 C972 1.524 . S
C969 C961 1.503 . S
C969 C968 1.370 . S
C969 C970 1.403 . S
C970 C969 1.403 . S
C970 C971 1.404 . S
C970 C973 1.539 . S
C971 C967 1.408 . S
C971 C970 1.404 . S
C971 H983 0.930 . S
C972 C968 1.524 . S
C972 H984 0.956 . S
C972 H985 0.961 . S
C972 H986 0.961 . S
C973 C970 1.539 . S
C973 H987 0.958 . S
C973 H988 0.961 . S
C973 H989 0.960 . S
H974 C958 0.931 . S
H975 C963 0.929 . S
H976 C964 0.960 . S
H977 C964 0.962 . S
H978 C964 0.960 . S
H979 C965 0.961 . S
H980 C965 0.961 . S
H981 C965 0.961 . S
H982 C966 0.931 . S
H983 C971 0.930 . S
H984 C972 0.956 . S
H985 C972 0.961 . S
H986 C972 0.961 . S
H987 C973 0.958 . S
H988 C973 0.961 . S
H989 C973 0.960 . S
C990 C991 1.391 . S
C990 C992 1.394 . S
C990 H1006 0.931 . S
C991 C990 1.391 . S
C991 C995 1.376 . S
C992 C990 1.394 . S
C992 C993 1.369 . S
C992 C996 1.531 . S
C993 C992 1.369 . S
C993 C994 1.410 . S
C993 C1001 1.503 . S
C994 C993 1.410 . S
C994 C995 1.392 . S
C994 C997 1.511 . S
C995 C991 1.376 . S
C995 C994 1.392 . S
C995 H1007 0.929 . S
C996 C992 1.531 . S
C996 H1008 0.960 . S
C996 H1009 0.962 . S
C996 H1010 0.960 . S
C997 C994 1.511 . S
C997 H1011 0.961 . S
C997 H1012 0.961 . S
C997 H1013 0.961 . S
C998 C999 1.370 . S
C998 C1000 1.363 . S
C998 H1014 0.931 . S
C999 C998 1.370 . S
C999 C1003 1.408 . S
C1000 C998 1.363 . S
C1000 C1001 1.370 . S
C1000 C1004 1.524 . S
C1001 C993 1.503 . S
C1001 C1000 1.370 . S
C1001 C1002 1.403 . S
C1002 C1001 1.403 . S
C1002 C1003 1.404 . S
C1002 C1005 1.539 . S
C1003 C999 1.408 . S
C1003 C1002 1.404 . S
C1003 H1015 0.924 1_556 S
C1004 C1000 1.524 . S
C1004 H1016 0.956 . S
C1004 H1017 0.961 . S
C1004 H1018 0.961 . S
C1005 C1002 1.539 . S
C1005 H1019 0.958 1_556 S
C1005 H1020 0.961 1_556 S
C1005 H1021 0.960 . S
H1006 C990 0.931 . S
H1007 C995 0.929 . S
H1008 C996 0.960 . S
H1009 C996 0.962 . S
H1010 C996 0.960 . S
H1011 C997 0.961 . S
H1012 C997 0.961 . S
H1013 C997 0.961 . S
H1014 C998 0.931 . S
H1015 C1003 0.924 1_554 S
H1016 C1004 0.956 . S
H1017 C1004 0.961 . S
H1018 C1004 0.961 . S
H1019 C1005 0.958 1_554 S
H1020 C1005 0.961 1_554 S
H1021 C1005 0.960 . S
C1022 C1023 1.391 . S
C1022 C1024 1.394 . S
C1022 H1038 0.931 . S
C1023 C1022 1.391 . S
C1023 C1027 1.376 . S
C1024 C1022 1.394 . S
C1024 C1025 1.369 . S
C1024 C1028 1.531 . S
C1025 C1024 1.369 . S
C1025 C1026 1.410 . S
C1025 C1033 1.503 . S
C1026 C1025 1.410 . S
C1026 C1027 1.392 . S
C1026 C1029 1.511 . S
C1027 C1023 1.376 . S
C1027 C1026 1.392 . S
C1027 H1039 0.929 . S
C1028 C1024 1.531 . S
C1028 H1040 0.960 . S
C1028 H1041 0.962 . S
C1028 H1042 0.960 . S
C1029 C1026 1.511 . S
C1029 H1043 0.961 . S
C1029 H1044 0.961 . S
C1029 H1045 0.961 . S
C1030 C1031 1.370 . S
C1030 C1032 1.363 . S
C1030 H1046 0.931 . S
C1031 C1030 1.370 . S
C1031 C1035 1.408 . S
C1032 C1030 1.363 . S
C1032 C1033 1.370 . S
C1032 C1036 1.524 . S
C1033 C1025 1.503 . S
C1033 C1032 1.370 . S
C1033 C1034 1.403 . S
C1034 C1033 1.403 . S
C1034 C1035 1.404 . S
C1034 C1037 1.539 . S
C1035 C1031 1.408 . S
C1035 C1034 1.404 . S
C1035 H1047 0.930 . S
C1036 C1032 1.524 . S
C1036 H1048 0.956 . S
C1036 H1049 0.961 . S
C1036 H1050 0.961 . S
C1037 C1034 1.539 . S
C1037 H1051 0.958 . S
C1037 H1052 0.961 . S
C1037 H1053 0.960 . S
H1038 C1022 0.931 . S
H1039 C1027 0.929 . S
H1040 C1028 0.960 . S
H1041 C1028 0.962 . S
H1042 C1028 0.960 . S
H1043 C1029 0.961 . S
H1044 C1029 0.961 . S
H1045 C1029 0.961 . S
H1046 C1030 0.931 . S
H1047 C1035 0.930 . S
H1048 C1036 0.956 . S
H1049 C1036 0.961 . S
H1050 C1036 0.961 . S
H1051 C1037 0.958 . S
H1052 C1037 0.961 . S
H1053 C1037 0.960 . S
C1054 C1055 1.391 . S
C1054 C1056 1.394 . S
C1054 H1070 0.931 . S
C1055 C1054 1.391 . S
C1055 C1059 1.376 . S
C1056 C1054 1.394 . S
C1056 C1057 1.369 . S
C1056 C1060 1.531 . S
C1057 C1056 1.369 . S
C1057 C1058 1.410 . S
C1057 C1065 1.503 . S
C1058 C1057 1.410 . S
C1058 C1059 1.392 . S
C1058 C1061 1.511 . S
C1059 C1055 1.376 . S
C1059 C1058 1.392 . S
C1059 H1071 0.929 . S
C1060 C1056 1.531 . S
C1060 H1072 0.960 . S
C1060 H1073 0.962 . S
C1060 H1074 0.960 . S
C1061 C1058 1.511 . S
C1061 H1075 0.961 . S
C1061 H1076 0.961 . S
C1061 H1077 0.961 . S
C1062 C1063 1.370 . S
C1062 C1064 1.363 . S
C1062 H1078 0.931 . S
C1063 C1062 1.370 . S
C1063 C1067 1.408 . S
C1064 C1062 1.363 . S
C1064 C1065 1.370 . S
C1064 C1068 1.524 . S
C1065 C1057 1.503 . S
C1065 C1064 1.370 . S
C1065 C1066 1.403 . S
C1066 C1065 1.403 . S
C1066 C1067 1.404 . S
C1066 C1069 1.539 . S
C1067 C1063 1.408 . S
C1067 C1066 1.404 . S
C1067 H1079 0.930 . S
C1068 C1064 1.524 . S
C1068 H1080 0.956 . S
C1068 H1081 0.961 . S
C1068 H1082 0.961 . S
C1069 C1066 1.539 . S
C1069 H1083 0.958 . S
C1069 H1084 0.961 . S
C1069 H1085 0.960 . S
H1070 C1054 0.931 . S
H1071 C1059 0.929 . S
H1072 C1060 0.960 . S
H1073 C1060 0.962 . S
H1074 C1060 0.960 . S
H1075 C1061 0.961 . S
H1076 C1061 0.961 . S
H1077 C1061 0.961 . S
H1078 C1062 0.931 . S
H1079 C1067 0.930 . S
H1080 C1068 0.956 . S
H1081 C1068 0.961 . S
H1082 C1068 0.961 . S
H1083 C1069 0.958 . S
H1084 C1069 0.961 . S
H1085 C1069 0.960 . S
C1086 C1087 1.391 . S
C1086 C1088 1.394 . S
C1086 H1102 0.931 . S
C1087 C1086 1.391 . S
C1087 C1091 1.376 . S
C1088 C1086 1.394 . S
C1088 C1089 1.369 . S
C1088 C1092 1.531 . S
C1089 C1088 1.369 . S
C1089 C1090 1.410 . S
C1089 C1097 1.503 . S
C1090 C1089 1.410 . S
C1090 C1091 1.392 . S
C1090 C1093 1.511 . S
C1091 C1087 1.376 . S
C1091 C1090 1.392 . S
C1091 H1103 0.929 . S
C1092 C1088 1.531 . S
C1092 H1104 0.960 . S
C1092 H1105 0.962 . S
C1092 H1106 0.960 . S
C1093 C1090 1.511 . S
C1093 H1107 0.961 . S
C1093 H1108 0.961 . S
C1093 H1109 0.961 . S
C1094 C1095 1.370 . S
C1094 C1096 1.363 . S
C1094 H1110 0.931 . S
C1095 C1094 1.370 . S
C1095 C1099 1.408 . S
C1096 C1094 1.363 . S
C1096 C1097 1.370 . S
C1096 C1100 1.524 . S
C1097 C1089 1.503 . S
C1097 C1096 1.370 . S
C1097 C1098 1.403 . S
C1098 C1097 1.403 . S
C1098 C1099 1.404 . S
C1098 C1101 1.539 . S
C1099 C1095 1.408 . S
C1099 C1098 1.404 . S
C1099 H1111 0.930 . S
C1100 C1096 1.524 . S
C1100 H1112 0.956 . S
C1100 H1113 0.961 . S
C1100 H1114 0.961 . S
C1101 C1098 1.539 . S
C1101 H1115 0.958 . S
C1101 H1116 0.961 . S
C1101 H1117 0.960 . S
H1102 C1086 0.931 . S
H1103 C1091 0.929 . S
H1104 C1092 0.960 . S
H1105 C1092 0.962 . S
H1106 C1092 0.960 . S
H1107 C1093 0.961 . S
H1108 C1093 0.961 . S
H1109 C1093 0.961 . S
H1110 C1094 0.931 . S
H1111 C1099 0.930 . S
H1112 C1100 0.956 . S
H1113 C1100 0.961 . S
H1114 C1100 0.961 . S
H1115 C1101 0.958 . S
H1116 C1101 0.961 . S
H1117 C1101 0.960 . S
C1118 C1119 1.391 . S
C1118 C1120 1.394 . S
C1118 H1134 0.931 . S
C1119 C1118 1.391 . S
C1119 C1123 1.376 . S
C1120 C1118 1.394 . S
C1120 C1121 1.369 . S
C1120 C1124 1.531 . S
C1121 C1120 1.369 . S
C1121 C1122 1.410 . S
C1121 C1129 1.503 . S
C1122 C1121 1.410 . S
C1122 C1123 1.392 . S
C1122 C1125 1.511 . S
C1123 C1119 1.376 . S
C1123 C1122 1.392 . S
C1123 H1135 0.929 . S
C1124 C1120 1.531 . S
C1124 H1136 0.960 . S
C1124 H1137 0.962 . S
C1124 H1138 0.960 . S
C1125 C1122 1.511 . S
C1125 H1139 0.961 . S
C1125 H1140 0.961 . S
C1125 H1141 0.961 . S
C1126 C1127 1.370 . S
C1126 C1128 1.363 . S
C1126 H1142 0.931 . S
C1127 C1126 1.370 . S
C1127 C1131 1.408 . S
C1128 C1126 1.363 . S
C1128 C1129 1.370 . S
C1128 C1132 1.524 . S
C1129 C1121 1.503 . S
C1129 C1128 1.370 . S
C1129 C1130 1.403 . S
C1130 C1129 1.403 . S
C1130 C1131 1.404 . S
C1130 C1133 1.539 . S
C1131 C1127 1.408 . S
C1131 C1130 1.404 . S
C1131 H1143 0.930 . S
C1132 C1128 1.524 . S
C1132 H1144 0.956 . S
C1132 H1145 0.961 . S
C1132 H1146 0.961 . S
C1133 C1130 1.539 . S
C1133 H1147 0.958 . S
C1133 H1148 0.961 . S
C1133 H1149 0.960 . S
H1134 C1118 0.931 . S
H1135 C1123 0.929 . S
H1136 C1124 0.960 . S
H1137 C1124 0.962 . S
H1138 C1124 0.960 . S
H1139 C1125 0.961 . S
H1140 C1125 0.961 . S
H1141 C1125 0.961 . S
H1142 C1126 0.931 . S
H1143 C1131 0.930 . S
H1144 C1132 0.956 . S
H1145 C1132 0.961 . S
H1146 C1132 0.961 . S
H1147 C1133 0.958 . S
H1148 C1133 0.961 . S
H1149 C1133 0.960 . S
C1150 C1151 1.391 . S
C1150 C1152 1.394 . S
C1150 H1166 0.931 . S
C1151 C1150 1.391 . S
C1151 C1155 1.376 . S
C1152 C1150 1.394 . S
C1152 C1153 1.369 . S
C1152 C1156 1.531 . S
C1153 C1152 1.369 . S
C1153 C1154 1.410 . S
C1153 C1161 1.503 . S
C1154 C1153 1.410 . S
C1154 C1155 1.392 . S
C1154 C1157 1.511 . S
C1155 C1151 1.376 . S
C1155 C1154 1.392 . S
C1155 H1167 0.929 . S
C1156 C1152 1.531 . S
C1156 H1168 0.960 . S
C1156 H1169 0.962 . S
C1156 H1170 0.960 . S
C1157 C1154 1.511 . S
C1157 H1171 0.961 . S
C1157 H1172 0.961 . S
C1157 H1173 0.961 . S
C1158 C1159 1.370 . S
C1158 C1160 1.363 . S
C1158 H1174 0.931 . S
C1159 C1158 1.370 . S
C1159 C1163 1.408 . S
C1160 C1158 1.363 . S
C1160 C1161 1.370 . S
C1160 C1164 1.524 . S
C1161 C1153 1.503 . S
C1161 C1160 1.370 . S
C1161 C1162 1.403 . S
C1162 C1161 1.403 . S
C1162 C1163 1.404 . S
C1162 C1165 1.539 . S
C1163 C1159 1.408 . S
C1163 C1162 1.404 . S
C1163 H1175 0.930 . S
C1164 C1160 1.524 . S
C1164 H1176 0.956 . S
C1164 H1177 0.961 . S
C1164 H1178 0.961 . S
C1165 C1162 1.539 . S
C1165 H1179 0.958 . S
C1165 H1180 0.961 . S
C1165 H1181 0.960 . S
H1166 C1150 0.931 . S
H1167 C1155 0.929 . S
H1168 C1156 0.960 . S
H1169 C1156 0.962 . S
H1170 C1156 0.960 . S
H1171 C1157 0.961 . S
H1172 C1157 0.961 . S
H1173 C1157 0.961 . S
H1174 C1158 0.931 . S
H1175 C1163 0.930 . S
H1176 C1164 0.956 . S
H1177 C1164 0.961 . S
H1178 C1164 0.961 . S
H1179 C1165 0.958 . S
H1180 C1165 0.961 . S
H1181 C1165 0.960 . S
C1182 C1183 1.391 . S
C1182 C1184 1.394 . S
C1182 H1198 0.931 . S
C1183 C1182 1.391 . S
C1183 C1187 1.376 . S
C1184 C1182 1.394 . S
C1184 C1185 1.369 . S
C1184 C1188 1.531 . S
C1185 C1184 1.369 . S
C1185 C1186 1.410 . S
C1185 C1193 1.503 . S
C1186 C1185 1.410 . S
C1186 C1187 1.392 . S
C1186 C1189 1.511 . S
C1187 C1183 1.376 . S
C1187 C1186 1.392 . S
C1187 H1199 0.929 . S
C1188 C1184 1.531 . S
C1188 H1200 0.960 . S
C1188 H1201 0.962 . S
C1188 H1202 0.960 . S
C1189 C1186 1.511 . S
C1189 H1203 0.961 . S
C1189 H1204 0.961 . S
C1189 H1205 0.961 . S
C1190 C1191 1.370 . S
C1190 C1192 1.363 . S
C1190 H1206 0.931 . S
C1191 C1190 1.370 . S
C1191 C1195 1.408 . S
C1192 C1190 1.363 . S
C1192 C1193 1.370 . S
C1192 C1196 1.524 . S
C1193 C1185 1.503 . S
C1193 C1192 1.370 . S
C1193 C1194 1.403 . S
C1194 C1193 1.403 . S
C1194 C1195 1.404 . S
C1194 C1197 1.539 . S
C1195 C1191 1.408 . S
C1195 C1194 1.404 . S
C1195 H1207 0.930 . S
C1196 C1192 1.524 . S
C1196 H1208 0.956 . S
C1196 H1209 0.961 . S
C1196 H1210 0.961 . S
C1197 C1194 1.539 . S
C1197 H1211 0.958 . S
C1197 H1212 0.961 . S
C1197 H1213 0.960 . S
H1198 C1182 0.931 . S
H1199 C1187 0.929 . S
H1200 C1188 0.960 . S
H1201 C1188 0.962 . S
H1202 C1188 0.960 . S
H1203 C1189 0.961 . S
H1204 C1189 0.961 . S
H1205 C1189 0.961 . S
H1206 C1190 0.931 . S
H1207 C1195 0.930 . S
H1208 C1196 0.956 . S
H1209 C1196 0.961 . S
H1210 C1196 0.961 . S
H1211 C1197 0.958 . S
H1212 C1197 0.961 . S
H1213 C1197 0.960 . S
C1214 C1215 1.391 . S
C1214 C1216 1.394 . S
C1214 H1230 0.931 . S
C1215 C1214 1.391 . S
C1215 C1219 1.376 . S
C1216 C1214 1.394 . S
C1216 C1217 1.369 . S
C1216 C1220 1.531 . S
C1217 C1216 1.369 . S
C1217 C1218 1.410 . S
C1217 C1225 1.503 . S
C1218 C1217 1.410 . S
C1218 C1219 1.392 . S
C1218 C1221 1.511 . S
C1219 C1215 1.376 . S
C1219 C1218 1.392 . S
C1219 H1231 0.929 . S
C1220 C1216 1.531 . S
C1220 H1232 0.960 . S
C1220 H1233 0.962 . S
C1220 H1234 0.960 . S
C1221 C1218 1.511 . S
C1221 H1235 0.961 . S
C1221 H1236 0.961 . S
C1221 H1237 0.961 . S
C1222 C1223 1.370 . S
C1222 C1224 1.363 . S
C1222 H1238 0.931 . S
C1223 C1222 1.370 . S
C1223 C1227 1.408 . S
C1224 C1222 1.363 . S
C1224 C1225 1.370 . S
C1224 C1228 1.524 . S
C1225 C1217 1.503 . S
C1225 C1224 1.370 . S
C1225 C1226 1.403 . S
C1226 C1225 1.403 . S
C1226 C1227 1.404 . S
C1226 C1229 1.539 . S
C1227 C1223 1.408 . S
C1227 C1226 1.404 . S
C1227 H1239 0.930 . S
C1228 C1224 1.524 . S
C1228 H1240 0.956 . S
C1228 H1241 0.961 . S
C1228 H1242 0.961 . S
C1229 C1226 1.539 . S
C1229 H1243 0.958 . S
C1229 H1244 0.961 . S
C1229 H1245 0.960 . S
H1230 C1214 0.931 . S
H1231 C1219 0.929 . S
H1232 C1220 0.960 . S
H1233 C1220 0.962 . S
H1234 C1220 0.960 . S
H1235 C1221 0.961 . S
H1236 C1221 0.961 . S
H1237 C1221 0.961 . S
H1238 C1222 0.931 . S
H1239 C1227 0.930 . S
H1240 C1228 0.956 . S
H1241 C1228 0.961 . S
H1242 C1228 0.961 . S
H1243 C1229 0.958 . S
H1244 C1229 0.961 . S
H1245 C1229 0.960 . S
C1246 C1247 1.391 . S
C1246 C1248 1.394 . S
C1246 H1262 0.931 . S
C1247 C1246 1.391 . S
C1247 C1251 1.376 . S
C1248 C1246 1.394 . S
C1248 C1249 1.369 . S
C1248 C1252 1.531 . S
C1249 C1248 1.369 . S
C1249 C1250 1.410 . S
C1249 C1257 1.503 . S
C1250 C1249 1.410 . S
C1250 C1251 1.392 . S
C1250 C1253 1.511 . S
C1251 C1247 1.376 . S
C1251 C1250 1.392 . S
C1251 H1263 0.929 . S
C1252 C1248 1.531 . S
C1252 H1264 0.960 . S
C1252 H1265 0.962 . S
C1252 H1266 0.960 . S
C1253 C1250 1.511 . S
C1253 H1267 0.961 . S
C1253 H1268 0.961 . S
C1253 H1269 0.961 . S
C1254 C1255 1.370 . S
C1254 C1256 1.363 . S
C1254 H1270 0.931 . S
C1255 C1254 1.370 . S
C1255 C1259 1.408 . S
C1256 C1254 1.363 . S
C1256 C1257 1.370 . S
C1256 C1260 1.524 . S
C1257 C1249 1.503 . S
C1257 C1256 1.370 . S
C1257 C1258 1.403 . S
C1258 C1257 1.403 . S
C1258 C1259 1.404 . S
C1258 C1261 1.539 . S
C1259 C1255 1.408 . S
C1259 C1258 1.404 . S
C1259 H1271 0.930 . S
C1260 C1256 1.524 . S
C1260 H1272 0.956 . S
C1260 H1273 0.961 . S
C1260 H1274 0.961 . S
C1261 C1258 1.539 . S
C1261 H1275 0.958 . S
C1261 H1276 0.961 . S
C1261 H1277 0.960 . S
H1262 C1246 0.931 . S
H1263 C1251 0.929 . S
H1264 C1252 0.960 . S
H1265 C1252 0.962 . S
H1266 C1252 0.960 . S
H1267 C1253 0.961 . S
H1268 C1253 0.961 . S
H1269 C1253 0.961 . S
H1270 C1254 0.931 . S
H1271 C1259 0.930 . S
H1272 C1260 0.956 . S
H1273 C1260 0.961 . S
H1274 C1260 0.961 . S
H1275 C1261 0.958 . S
H1276 C1261 0.961 . S
H1277 C1261 0.960 . S
C1278 C1279 1.391 . S
C1278 C1280 1.394 . S
C1278 H1294 0.931 . S
C1279 C1278 1.391 . S
C1279 C1283 1.376 . S
C1280 C1278 1.394 . S
C1280 C1281 1.369 . S
C1280 C1284 1.531 . S
C1281 C1280 1.369 . S
C1281 C1282 1.410 . S
C1281 C1289 1.503 . S
C1282 C1281 1.410 . S
C1282 C1283 1.392 . S
C1282 C1285 1.511 . S
C1283 C1279 1.376 . S
C1283 C1282 1.392 . S
C1283 H1295 0.929 . S
C1284 C1280 1.531 . S
C1284 H1296 0.960 . S
C1284 H1297 0.962 . S
C1284 H1298 0.960 . S
C1285 C1282 1.511 . S
C1285 H1299 0.961 . S
C1285 H1300 0.961 . S
C1285 H1301 0.961 . S
C1286 C1287 1.370 . S
C1286 C1288 1.363 . S
C1286 H1302 0.931 . S
C1287 C1286 1.370 . S
C1287 C1291 1.408 . S
C1288 C1286 1.363 . S
C1288 C1289 1.370 . S
C1288 C1292 1.524 . S
C1289 C1281 1.503 . S
C1289 C1288 1.370 . S
C1289 C1290 1.403 . S
C1290 C1289 1.403 . S
C1290 C1291 1.404 . S
C1290 C1293 1.539 . S
C1291 C1287 1.408 . S
C1291 C1290 1.404 . S
C1291 H1303 0.930 . S
C1292 C1288 1.524 . S
C1292 H1304 0.956 . S
C1292 H1305 0.961 . S
C1292 H1306 0.961 . S
C1293 C1290 1.539 . S
C1293 H1307 0.958 . S
C1293 H1308 0.961 . S
C1293 H1309 0.960 . S
H1294 C1278 0.931 . S
H1295 C1283 0.929 . S
H1296 C1284 0.960 . S
H1297 C1284 0.962 . S
H1298 C1284 0.960 . S
H1299 C1285 0.961 . S
H1300 C1285 0.961 . S
H1301 C1285 0.961 . S
H1302 C1286 0.931 . S
H1303 C1291 0.930 . S
H1304 C1292 0.956 . S
H1305 C1292 0.961 . S
H1306 C1292 0.961 . S
H1307 C1293 0.958 . S
H1308 C1293 0.961 . S
H1309 C1293 0.960 . S
C1310 C1311 1.391 . S
C1310 C1312 1.394 . S
C1310 H1326 0.931 . S
C1311 C1310 1.391 . S
C1311 C1315 1.376 . S
C1312 C1310 1.394 . S
C1312 C1313 1.369 . S
C1312 C1316 1.531 . S
C1313 C1312 1.369 . S
C1313 C1314 1.410 . S
C1313 C1321 1.503 . S
C1314 C1313 1.410 . S
C1314 C1315 1.392 . S
C1314 C1317 1.511 . S
C1315 C1311 1.376 . S
C1315 C1314 1.392 . S
C1315 H1327 0.929 . S
C1316 C1312 1.531 . S
C1316 H1328 0.960 . S
C1316 H1329 0.962 . S
C1316 H1330 0.960 . S
C1317 C1314 1.511 . S
C1317 H1331 0.961 . S
C1317 H1332 0.961 . S
C1317 H1333 0.961 . S
C1318 C1319 1.370 . S
C1318 C1320 1.363 . S
C1318 H1334 0.931 . S
C1319 C1318 1.370 . S
C1319 C1323 1.408 . S
C1320 C1318 1.363 . S
C1320 C1321 1.370 . S
C1320 C1324 1.524 . S
C1321 C1313 1.503 . S
C1321 C1320 1.370 . S
C1321 C1322 1.403 . S
C1322 C1321 1.403 . S
C1322 C1323 1.404 . S
C1322 C1325 1.539 . S
C1323 C1319 1.408 . S
C1323 C1322 1.404 . S
C1323 H1335 0.930 . S
C1324 C1320 1.524 . S
C1324 H1336 0.956 . S
C1324 H1337 0.961 . S
C1324 H1338 0.961 . S
C1325 C1322 1.539 . S
C1325 H1339 0.958 . S
C1325 H1340 0.961 . S
C1325 H1341 0.960 . S
H1326 C1310 0.931 . S
H1327 C1315 0.929 . S
H1328 C1316 0.960 . S
H1329 C1316 0.962 . S
H1330 C1316 0.960 . S
H1331 C1317 0.961 . S
H1332 C1317 0.961 . S
H1333 C1317 0.961 . S
H1334 C1318 0.931 . S
H1335 C1323 0.930 . S
H1336 C1324 0.956 . S
H1337 C1324 0.961 . S
H1338 C1324 0.961 . S
H1339 C1325 0.958 . S
H1340 C1325 0.961 . S
H1341 C1325 0.960 . S
C1342 C1343 1.391 . S
C1342 C1344 1.394 . S
C1342 H1358 0.931 . S
C1343 C1342 1.391 . S
C1343 C1347 1.376 . S
C1344 C1342 1.394 . S
C1344 C1345 1.369 . S
C1344 C1348 1.531 . S
C1345 C1344 1.369 . S
C1345 C1346 1.410 . S
C1345 C1353 1.503 . S
C1346 C1345 1.410 . S
C1346 C1347 1.392 . S
C1346 C1349 1.511 . S
C1347 C1343 1.376 . S
C1347 C1346 1.392 . S
C1347 H1359 0.929 . S
C1348 C1344 1.531 . S
C1348 H1360 0.960 . S
C1348 H1361 0.962 . S
C1348 H1362 0.960 . S
C1349 C1346 1.511 . S
C1349 H1363 0.961 . S
C1349 H1364 0.961 . S
C1349 H1365 0.961 . S
C1350 C1351 1.370 . S
C1350 C1352 1.363 . S
C1350 H1366 0.931 . S
C1351 C1350 1.370 . S
C1351 C1355 1.408 . S
C1352 C1350 1.363 . S
C1352 C1353 1.370 . S
C1352 C1356 1.524 . S
C1353 C1345 1.503 . S
C1353 C1352 1.370 . S
C1353 C1354 1.403 . S
C1354 C1353 1.403 . S
C1354 C1355 1.404 . S
C1354 C1357 1.539 . S
C1355 C1351 1.408 . S
C1355 C1354 1.404 . S
C1355 H1367 0.930 . S
C1356 C1352 1.524 . S
C1356 H1368 0.956 . S
C1356 H1369 0.961 . S
C1356 H1370 0.961 . S
C1357 C1354 1.539 . S
C1357 H1371 0.958 . S
C1357 H1372 0.961 . S
C1357 H1373 0.960 . S
H1358 C1342 0.931 . S
H1359 C1347 0.929 . S
H1360 C1348 0.960 . S
H1361 C1348 0.962 . S
H1362 C1348 0.960 . S
H1363 C1349 0.961 . S
H1364 C1349 0.961 . S
H1365 C1349 0.961 . S
H1366 C1350 0.931 . S
H1367 C1355 0.930 . S
H1368 C1356 0.956 . S
H1369 C1356 0.961 . S
H1370 C1356 0.961 . S
H1371 C1357 0.958 . S
H1372 C1357 0.961 . S
H1373 C1357 0.960 . S
C1374 C1375 1.391 . S
C1374 C1376 1.394 . S
C1374 H1390 0.931 . S
C1375 C1374 1.391 . S
C1375 C1379 1.376 . S
C1376 C1374 1.394 . S
C1376 C1377 1.369 . S
C1376 C1380 1.531 . S
C1377 C1376 1.369 . S
C1377 C1378 1.410 . S
C1377 C1385 1.503 . S
C1378 C1377 1.410 . S
C1378 C1379 1.392 . S
C1378 C1381 1.511 . S
C1379 C1375 1.376 . S
C1379 C1378 1.392 . S
C1379 H1391 0.929 . S
C1380 C1376 1.531 . S
C1380 H1392 0.960 . S
C1380 H1393 0.962 . S
C1380 H1394 0.960 . S
C1381 C1378 1.511 . S
C1381 H1395 0.961 . S
C1381 H1396 0.961 . S
C1381 H1397 0.961 . S
C1382 C1383 1.370 . S
C1382 C1384 1.363 . S
C1382 H1398 0.931 . S
C1383 C1382 1.370 . S
C1383 C1387 1.408 . S
C1384 C1382 1.363 . S
C1384 C1385 1.370 . S
C1384 C1388 1.524 . S
C1385 C1377 1.503 . S
C1385 C1384 1.370 . S
C1385 C1386 1.403 . S
C1386 C1385 1.403 . S
C1386 C1387 1.404 . S
C1386 C1389 1.539 . S
C1387 C1383 1.408 . S
C1387 C1386 1.404 . S
C1387 H1399 0.930 . S
C1388 C1384 1.524 . S
C1388 H1400 0.956 . S
C1388 H1401 0.961 . S
C1388 H1402 0.961 . S
C1389 C1386 1.539 . S
C1389 H1403 0.958 . S
C1389 H1404 0.961 . S
C1389 H1405 0.960 . S
H1390 C1374 0.931 . S
H1391 C1379 0.929 . S
H1392 C1380 0.960 . S
H1393 C1380 0.962 . S
H1394 C1380 0.960 . S
H1395 C1381 0.961 . S
H1396 C1381 0.961 . S
H1397 C1381 0.961 . S
H1398 C1382 0.931 . S
H1399 C1387 0.930 . S
H1400 C1388 0.956 . S
H1401 C1388 0.961 . S
H1402 C1388 0.961 . S
H1403 C1389 0.958 . S
H1404 C1389 0.961 . S
H1405 C1389 0.960 . S
C1406 C1407 1.391 . S
C1406 C1408 1.394 . S
C1406 H1422 0.931 . S
C1407 C1406 1.391 . S
C1407 C1411 1.376 . S
C1408 C1406 1.394 . S
C1408 C1409 1.369 . S
C1408 C1412 1.531 . S
C1409 C1408 1.369 . S
C1409 C1410 1.410 . S
C1409 C1417 1.503 . S
C1410 C1409 1.410 . S
C1410 C1411 1.392 . S
C1410 C1413 1.511 . S
C1411 C1407 1.376 . S
C1411 C1410 1.392 . S
C1411 H1423 0.929 . S
C1412 C1408 1.531 . S
C1412 H1424 0.960 . S
C1412 H1425 0.962 . S
C1412 H1426 0.960 . S
C1413 C1410 1.511 . S
C1413 H1427 0.961 . S
C1413 H1428 0.961 . S
C1413 H1429 0.961 . S
C1414 C1415 1.370 . S
C1414 C1416 1.363 . S
C1414 H1430 0.931 . S
C1415 C1414 1.370 . S
C1415 C1419 1.408 . S
C1416 C1414 1.363 . S
C1416 C1417 1.370 . S
C1416 C1420 1.524 . S
C1417 C1409 1.503 . S
C1417 C1416 1.370 . S
C1417 C1418 1.403 . S
C1418 C1417 1.403 . S
C1418 C1419 1.404 . S
C1418 C1421 1.539 . S
C1419 C1415 1.408 . S
C1419 C1418 1.404 . S
C1419 H1431 0.930 . S
C1420 C1416 1.524 . S
C1420 H1432 0.956 . S
C1420 H1433 0.961 . S
C1420 H1434 0.961 . S
C1421 C1418 1.539 . S
C1421 H1435 0.958 . S
C1421 H1436 0.961 . S
C1421 H1437 0.960 . S
H1422 C1406 0.931 . S
H1423 C1411 0.929 . S
H1424 C1412 0.960 . S
H1425 C1412 0.962 . S
H1426 C1412 0.960 . S
H1427 C1413 0.961 . S
H1428 C1413 0.961 . S
H1429 C1413 0.961 . S
H1430 C1414 0.931 . S
H1431 C1419 0.930 . S
H1432 C1420 0.956 . S
H1433 C1420 0.961 . S
H1434 C1420 0.961 . S
H1435 C1421 0.958 . S
H1436 C1421 0.961 . S
H1437 C1421 0.960 . S
C1438 C1439 1.391 . S
C1438 C1440 1.394 . S
C1438 H1454 0.931 . S
C1439 C1438 1.391 . S
C1439 C1443 1.376 . S
C1440 C1438 1.394 . S
C1440 C1441 1.369 . S
C1440 C1444 1.531 . S
C1441 C1440 1.369 . S
C1441 C1442 1.410 . S
C1441 C1449 1.503 . S
C1442 C1441 1.410 . S
C1442 C1443 1.392 . S
C1442 C1445 1.511 . S
C1443 C1439 1.376 . S
C1443 C1442 1.392 . S
C1443 H1455 0.929 . S
C1444 C1440 1.531 . S
C1444 H1456 0.960 . S
C1444 H1457 0.962 . S
C1444 H1458 0.960 . S
C1445 C1442 1.511 . S
C1445 H1459 0.961 . S
C1445 H1460 0.961 . S
C1445 H1461 0.961 . S
C1446 C1447 1.370 . S
C1446 C1448 1.363 . S
C1446 H1462 0.931 . S
C1447 C1446 1.370 . S
C1447 C1451 1.408 . S
C1448 C1446 1.363 . S
C1448 C1449 1.370 . S
C1448 C1452 1.524 . S
C1449 C1441 1.503 . S
C1449 C1448 1.370 . S
C1449 C1450 1.403 . S
C1450 C1449 1.403 . S
C1450 C1451 1.404 . S
C1450 C1453 1.539 . S
C1451 C1447 1.408 . S
C1451 C1450 1.404 . S
C1451 H1463 0.930 . S
C1452 C1448 1.524 . S
C1452 H1464 0.956 . S
C1452 H1465 0.961 . S
C1452 H1466 0.961 . S
C1453 C1450 1.539 . S
C1453 H1467 0.958 . S
C1453 H1468 0.961 . S
C1453 H1469 0.960 . S
H1454 C1438 0.931 . S
H1455 C1443 0.929 . S
H1456 C1444 0.960 . S
H1457 C1444 0.962 . S
H1458 C1444 0.960 . S
H1459 C1445 0.961 . S
H1460 C1445 0.961 . S
H1461 C1445 0.961 . S
H1462 C1446 0.931 . S
H1463 C1451 0.930 . S
H1464 C1452 0.956 . S
H1465 C1452 0.961 . S
H1466 C1452 0.961 . S
H1467 C1453 0.958 . S
H1468 C1453 0.961 . S
H1469 C1453 0.960 . S
C1470 C1471 1.391 . S
C1470 C1472 1.394 . S
C1470 H1486 0.931 . S
C1471 C1470 1.391 . S
C1471 C1475 1.376 . S
C1472 C1470 1.394 . S
C1472 C1473 1.369 . S
C1472 C1476 1.531 . S
C1473 C1472 1.369 . S
C1473 C1474 1.410 . S
C1473 C1481 1.503 . S
C1474 C1473 1.410 . S
C1474 C1475 1.392 . S
C1474 C1477 1.511 . S
C1475 C1471 1.376 . S
C1475 C1474 1.392 . S
C1475 H1487 0.929 . S
C1476 C1472 1.531 . S
C1476 H1488 0.960 . S
C1476 H1489 0.962 . S
C1476 H1490 0.960 . S
C1477 C1474 1.511 . S
C1477 H1491 0.961 . S
C1477 H1492 0.961 . S
C1477 H1493 0.961 . S
C1478 C1479 1.370 . S
C1478 C1480 1.363 . S
C1478 H1494 0.931 . S
C1479 C1478 1.370 . S
C1479 C1483 1.408 . S
C1480 C1478 1.363 . S
C1480 C1481 1.370 . S
C1480 C1484 1.524 . S
C1481 C1473 1.503 . S
C1481 C1480 1.370 . S
C1481 C1482 1.403 . S
C1482 C1481 1.403 . S
C1482 C1483 1.404 . S
C1482 C1485 1.539 . S
C1483 C1479 1.408 . S
C1483 C1482 1.404 . S
C1483 H1495 0.930 . S
C1484 C1480 1.524 . S
C1484 H1496 0.956 . S
C1484 H1497 0.961 . S
C1484 H1498 0.961 . S
C1485 C1482 1.539 . S
C1485 H1499 0.958 . S
C1485 H1500 0.961 . S
C1485 H1501 0.960 . S
H1486 C1470 0.931 . S
H1487 C1475 0.929 . S
H1488 C1476 0.960 . S
H1489 C1476 0.962 . S
H1490 C1476 0.960 . S
H1491 C1477 0.961 . S
H1492 C1477 0.961 . S
H1493 C1477 0.961 . S
H1494 C1478 0.931 . S
H1495 C1483 0.930 . S
H1496 C1484 0.956 . S
H1497 C1484 0.961 . S
H1498 C1484 0.961 . S
H1499 C1485 0.958 . S
H1500 C1485 0.961 . S
H1501 C1485 0.960 . S
C1502 C1503 1.391 . S
C1502 C1504 1.394 . S
C1502 H1518 0.931 . S
C1503 C1502 1.391 . S
C1503 C1507 1.376 . S
C1504 C1502 1.394 . S
C1504 C1505 1.369 . S
C1504 C1508 1.531 . S
C1505 C1504 1.369 . S
C1505 C1506 1.410 . S
C1505 C1513 1.503 . S
C1506 C1505 1.410 . S
C1506 C1507 1.392 . S
C1506 C1509 1.511 . S
C1507 C1503 1.376 . S
C1507 C1506 1.392 . S
C1507 H1519 0.929 . S
C1508 C1504 1.531 . S
C1508 H1520 0.960 . S
C1508 H1521 0.962 . S
C1508 H1522 0.960 . S
C1509 C1506 1.511 . S
C1509 H1523 0.961 . S
C1509 H1524 0.961 . S
C1509 H1525 0.961 . S
C1510 C1511 1.370 . S
C1510 C1512 1.363 . S
C1510 H1526 0.931 . S
C1511 C1510 1.370 . S
C1511 C1515 1.408 . S
C1512 C1510 1.363 . S
C1512 C1513 1.370 . S
C1512 C1516 1.524 . S
C1513 C1505 1.503 . S
C1513 C1512 1.370 . S
C1513 C1514 1.403 . S
C1514 C1513 1.403 . S
C1514 C1515 1.404 . S
C1514 C1517 1.539 . S
C1515 C1511 1.408 . S
C1515 C1514 1.404 . S
C1515 H1527 0.930 . S
C1516 C1512 1.524 . S
C1516 H1528 0.956 . S
C1516 H1529 0.961 . S
C1516 H1530 0.961 . S
C1517 C1514 1.539 . S
C1517 H1531 0.958 . S
C1517 H1532 0.961 . S
C1517 H1533 0.960 . S
H1518 C1502 0.931 . S
H1519 C1507 0.929 . S
H1520 C1508 0.960 . S
H1521 C1508 0.962 . S
H1522 C1508 0.960 . S
H1523 C1509 0.961 . S
H1524 C1509 0.961 . S
H1525 C1509 0.961 . S
H1526 C1510 0.931 . S
H1527 C1515 0.930 . S
H1528 C1516 0.956 . S
H1529 C1516 0.961 . S
H1530 C1516 0.961 . S
H1531 C1517 0.958 . S
H1532 C1517 0.961 . S
H1533 C1517 0.960 . S
C1534 C1535 1.391 . S
C1534 C1536 1.394 . S
C1534 H1550 0.931 . S
C1535 C1534 1.391 . S
C1535 C1539 1.376 . S
C1536 C1534 1.394 . S
C1536 C1537 1.369 . S
C1536 C1540 1.531 . S
C1537 C1536 1.369 . S
C1537 C1538 1.410 . S
C1537 C1545 1.503 . S
C1538 C1537 1.410 . S
C1538 C1539 1.392 . S
C1538 C1541 1.511 . S
C1539 C1535 1.376 . S
C1539 C1538 1.392 . S
C1539 H1551 0.929 . S
C1540 C1536 1.531 . S
C1540 H1552 0.960 . S
C1540 H1553 0.962 . S
C1540 H1554 0.960 . S
C1541 C1538 1.511 . S
C1541 H1555 0.961 . S
C1541 H1556 0.961 . S
C1541 H1557 0.961 . S
C1542 C1543 1.370 . S
C1542 C1544 1.363 . S
C1542 H1558 0.931 . S
C1543 C1542 1.370 . S
C1543 C1547 1.408 . S
C1544 C1542 1.363 . S
C1544 C1545 1.370 . S
C1544 C1548 1.524 . S
C1545 C1537 1.503 . S
C1545 C1544 1.370 . S
C1545 C1546 1.403 . S
C1546 C1545 1.403 . S
C1546 C1547 1.404 . S
C1546 C1549 1.539 . S
C1547 C1543 1.408 . S
C1547 C1546 1.404 . S
C1547 H1559 0.930 . S
C1548 C1544 1.524 . S
C1548 H1560 0.956 . S
C1548 H1561 0.961 . S
C1548 H1562 0.961 . S
C1549 C1546 1.539 . S
C1549 H1563 0.958 . S
C1549 H1564 0.961 . S
C1549 H1565 0.960 . S
H1550 C1534 0.931 . S
H1551 C1539 0.929 . S
H1552 C1540 0.960 . S
H1553 C1540 0.962 . S
H1554 C1540 0.960 . S
H1555 C1541 0.961 . S
H1556 C1541 0.961 . S
H1557 C1541 0.961 . S
H1558 C1542 0.931 . S
H1559 C1547 0.930 . S
H1560 C1548 0.956 . S
H1561 C1548 0.961 . S
H1562 C1548 0.961 . S
H1563 C1549 0.958 . S
H1564 C1549 0.961 . S
H1565 C1549 0.960 . S
C1566 C1567 1.391 . S
C1566 C1568 1.394 . S
C1566 H1582 0.931 . S
C1567 C1566 1.391 . S
C1567 C1571 1.376 . S
C1568 C1566 1.394 . S
C1568 C1569 1.369 . S
C1568 C1572 1.531 . S
C1569 C1568 1.369 . S
C1569 C1570 1.410 . S
C1569 C1577 1.503 . S
C1570 C1569 1.410 . S
C1570 C1571 1.392 . S
C1570 C1573 1.511 . S
C1571 C1567 1.376 . S
C1571 C1570 1.392 . S
C1571 H1583 0.929 . S
C1572 C1568 1.531 . S
C1572 H1584 0.960 . S
C1572 H1585 0.962 . S
C1572 H1586 0.960 . S
C1573 C1570 1.511 . S
C1573 H1587 0.961 . S
C1573 H1588 0.961 . S
C1573 H1589 0.961 . S
C1574 C1575 1.370 . S
C1574 C1576 1.363 . S
C1574 H1590 0.931 . S
C1575 C1574 1.370 . S
C1575 C1579 1.408 . S
C1576 C1574 1.363 . S
C1576 C1577 1.370 . S
C1576 C1580 1.524 . S
C1577 C1569 1.503 . S
C1577 C1576 1.370 . S
C1577 C1578 1.403 . S
C1578 C1577 1.403 . S
C1578 C1579 1.404 . S
C1578 C1581 1.539 . S
C1579 C1575 1.408 . S
C1579 C1578 1.404 . S
C1579 H1591 0.930 . S
C1580 C1576 1.524 . S
C1580 H1592 0.956 . S
C1580 H1593 0.961 . S
C1580 H1594 0.961 . S
C1581 C1578 1.539 . S
C1581 H1595 0.958 . S
C1581 H1596 0.961 . S
C1581 H1597 0.960 . S
H1582 C1566 0.931 . S
H1583 C1571 0.929 . S
H1584 C1572 0.960 . S
H1585 C1572 0.962 . S
H1586 C1572 0.960 . S
H1587 C1573 0.961 . S
H1588 C1573 0.961 . S
H1589 C1573 0.961 . S
H1590 C1574 0.931 . S
H1591 C1579 0.930 . S
H1592 C1580 0.956 . S
H1593 C1580 0.961 . S
H1594 C1580 0.961 . S
H1595 C1581 0.958 . S
H1596 C1581 0.961 . S
H1597 C1581 0.960 . S
C1598 C1599 1.391 . S
C1598 C1600 1.394 . S
C1598 H1614 0.931 . S
C1599 C1598 1.391 . S
C1599 C1603 1.376 . S
C1600 C1598 1.394 . S
C1600 C1601 1.369 . S
C1600 C1604 1.531 . S
C1601 C1600 1.369 . S
C1601 C1602 1.410 . S
C1601 C1609 1.503 . S
C1602 C1601 1.410 . S
C1602 C1603 1.392 . S
C1602 C1605 1.511 . S
C1603 C1599 1.376 . S
C1603 C1602 1.392 . S
C1603 H1615 0.929 . S
C1604 C1600 1.531 . S
C1604 H1616 0.960 . S
C1604 H1617 0.962 . S
C1604 H1618 0.960 . S
C1605 C1602 1.511 . S
C1605 H1619 0.961 . S
C1605 H1620 0.961 . S
C1605 H1621 0.961 . S
C1606 C1607 1.370 . S
C1606 C1608 1.363 . S
C1606 H1622 0.931 . S
C1607 C1606 1.370 . S
C1607 C1611 1.408 . S
C1608 C1606 1.363 . S
C1608 C1609 1.370 . S
C1608 C1612 1.524 . S
C1609 C1601 1.503 . S
C1609 C1608 1.370 . S
C1609 C1610 1.403 . S
C1610 C1609 1.403 . S
C1610 C1611 1.404 . S
C1610 C1613 1.539 . S
C1611 C1607 1.408 . S
C1611 C1610 1.404 . S
C1611 H1623 0.930 . S
C1612 C1608 1.524 . S
C1612 H1624 0.956 . S
C1612 H1625 0.961 . S
C1612 H1626 0.961 . S
C1613 C1610 1.539 . S
C1613 H1627 0.958 . S
C1613 H1628 0.961 . S
C1613 H1629 0.960 . S
H1614 C1598 0.931 . S
H1615 C1603 0.929 . S
H1616 C1604 0.960 . S
H1617 C1604 0.962 . S
H1618 C1604 0.960 . S
H1619 C1605 0.961 . S
H1620 C1605 0.961 . S
H1621 C1605 0.961 . S
H1622 C1606 0.931 . S
H1623 C1611 0.930 . S
H1624 C1612 0.956 . S
H1625 C1612 0.961 . S
H1626 C1612 0.961 . S
H1627 C1613 0.958 . S
H1628 C1613 0.961 . S
H1629 C1613 0.960 . S
C1630 C1631 1.391 . S
C1630 C1632 1.394 . S
C1630 H1646 0.931 . S
C1631 C1630 1.391 . S
C1631 C1635 1.376 . S
C1632 C1630 1.394 . S
C1632 C1633 1.369 . S
C1632 C1636 1.531 . S
C1633 C1632 1.369 . S
C1633 C1634 1.410 . S
C1633 C1641 1.503 . S
C1634 C1633 1.410 . S
C1634 C1635 1.392 . S
C1634 C1637 1.511 . S
C1635 C1631 1.376 . S
C1635 C1634 1.392 . S
C1635 H1647 0.929 . S
C1636 C1632 1.531 . S
C1636 H1648 0.960 . S
C1636 H1649 0.962 . S
C1636 H1650 0.960 . S
C1637 C1634 1.511 . S
C1637 H1651 0.961 . S
C1637 H1652 0.961 . S
C1637 H1653 0.961 . S
C1638 C1639 1.370 . S
C1638 C1640 1.363 . S
C1638 H1654 0.931 . S
C1639 C1638 1.370 . S
C1639 C1643 1.408 . S
C1640 C1638 1.363 . S
C1640 C1641 1.370 . S
C1640 C1644 1.524 . S
C1641 C1633 1.503 . S
C1641 C1640 1.370 . S
C1641 C1642 1.403 . S
C1642 C1641 1.403 . S
C1642 C1643 1.404 . S
C1642 C1645 1.539 . S
C1643 C1639 1.408 . S
C1643 C1642 1.404 . S
C1643 H1655 0.930 . S
C1644 C1640 1.524 . S
C1644 H1656 0.956 . S
C1644 H1657 0.961 . S
C1644 H1658 0.961 . S
C1645 C1642 1.539 . S
C1645 H1659 0.958 . S
C1645 H1660 0.961 . S
C1645 H1661 0.960 . S
H1646 C1630 0.931 . S
H1647 C1635 0.929 . S
H1648 C1636 0.960 . S
H1649 C1636 0.962 . S
H1650 C1636 0.960 . S
H1651 C1637 0.961 . S
H1652 C1637 0.961 . S
H1653 C1637 0.961 . S
H1654 C1638 0.931 . S
H1655 C1643 0.930 . S
H1656 C1644 0.956 . S
H1657 C1644 0.961 . S
H1658 C1644 0.961 . S
H1659 C1645 0.958 . S
H1660 C1645 0.961 . S
H1661 C1645 0.960 . S
C1662 C1663 1.391 . S
C1662 C1664 1.394 . S
C1662 H1678 0.931 . S
C1663 C1662 1.391 . S
C1663 C1667 1.376 . S
C1664 C1662 1.394 . S
C1664 C1665 1.369 . S
C1664 C1668 1.531 . S
C1665 C1664 1.369 . S
C1665 C1666 1.410 . S
C1665 C1673 1.503 . S
C1666 C1665 1.410 . S
C1666 C1667 1.392 . S
C1666 C1669 1.511 . S
C1667 C1663 1.376 . S
C1667 C1666 1.392 . S
C1667 H1679 0.929 . S
C1668 C1664 1.531 . S
C1668 H1680 0.960 . S
C1668 H1681 0.962 . S
C1668 H1682 0.960 . S
C1669 C1666 1.511 . S
C1669 H1683 0.961 . S
C1669 H1684 0.961 . S
C1669 H1685 0.961 . S
C1670 C1671 1.370 . S
C1670 C1672 1.363 . S
C1670 H1686 0.931 . S
C1671 C1670 1.370 . S
C1671 C1675 1.408 . S
C1672 C1670 1.363 . S
C1672 C1673 1.370 . S
C1672 C1676 1.524 . S
C1673 C1665 1.503 . S
C1673 C1672 1.370 . S
C1673 C1674 1.403 . S
C1674 C1673 1.403 . S
C1674 C1675 1.404 . S
C1674 C1677 1.539 . S
C1675 C1671 1.408 . S
C1675 C1674 1.404 . S
C1675 H1687 0.930 . S
C1676 C1672 1.524 . S
C1676 H1688 0.956 . S
C1676 H1689 0.961 . S
C1676 H1690 0.961 . S
C1677 C1674 1.539 . S
C1677 H1691 0.958 . S
C1677 H1692 0.961 . S
C1677 H1693 0.960 . S
H1678 C1662 0.931 . S
H1679 C1667 0.929 . S
H1680 C1668 0.960 . S
H1681 C1668 0.962 . S
H1682 C1668 0.960 . S
H1683 C1669 0.961 . S
H1684 C1669 0.961 . S
H1685 C1669 0.961 . S
H1686 C1670 0.931 . S
H1687 C1675 0.930 . S
H1688 C1676 0.956 . S
H1689 C1676 0.961 . S
H1690 C1676 0.961 . S
H1691 C1677 0.958 . S
H1692 C1677 0.961 . S
H1693 C1677 0.960 . S
C1694 C1695 1.391 . S
C1694 C1696 1.394 . S
C1694 H1710 0.931 . S
C1695 C1694 1.391 . S
C1695 C1699 1.376 . S
C1696 C1694 1.394 . S
C1696 C1697 1.369 . S
C1696 C1700 1.531 . S
C1697 C1696 1.369 . S
C1697 C1698 1.410 . S
C1697 C1705 1.503 . S
C1698 C1697 1.410 . S
C1698 C1699 1.392 . S
C1698 C1701 1.511 . S
C1699 C1695 1.376 . S
C1699 C1698 1.392 . S
C1699 H1711 0.929 . S
C1700 C1696 1.531 . S
C1700 H1712 0.960 . S
C1700 H1713 0.962 . S
C1700 H1714 0.960 . S
C1701 C1698 1.511 . S
C1701 H1715 0.961 . S
C1701 H1716 0.961 . S
C1701 H1717 0.961 . S
C1702 C1703 1.370 . S
C1702 C1704 1.363 . S
C1702 H1718 0.931 . S
C1703 C1702 1.370 . S
C1703 C1707 1.408 . S
C1704 C1702 1.363 . S
C1704 C1705 1.370 . S
C1704 C1708 1.524 . S
C1705 C1697 1.503 . S
C1705 C1704 1.370 . S
C1705 C1706 1.403 . S
C1706 C1705 1.403 . S
C1706 C1707 1.404 . S
C1706 C1709 1.539 . S
C1707 C1703 1.408 . S
C1707 C1706 1.404 . S
C1707 H1719 0.930 . S
C1708 C1704 1.524 . S
C1708 H1720 0.956 . S
C1708 H1721 0.961 . S
C1708 H1722 0.961 . S
C1709 C1706 1.539 . S
C1709 H1723 0.958 . S
C1709 H1724 0.961 . S
C1709 H1725 0.960 . S
H1710 C1694 0.931 . S
H1711 C1699 0.929 . S
H1712 C1700 0.960 . S
H1713 C1700 0.962 . S
H1714 C1700 0.960 . S
H1715 C1701 0.961 . S
H1716 C1701 0.961 . S
H1717 C1701 0.961 . S
H1718 C1702 0.931 . S
H1719 C1707 0.930 . S
H1720 C1708 0.956 . S
H1721 C1708 0.961 . S
H1722 C1708 0.961 . S
H1723 C1709 0.958 . S
H1724 C1709 0.961 . S
H1725 C1709 0.960 . S
C1726 C1727 1.391 . S
C1726 C1728 1.394 . S
C1726 H1742 0.931 . S
C1727 C1726 1.391 . S
C1727 C1731 1.376 . S
C1728 C1726 1.394 . S
C1728 C1729 1.369 . S
C1728 C1732 1.531 . S
C1729 C1728 1.369 . S
C1729 C1730 1.410 . S
C1729 C1737 1.503 . S
C1730 C1729 1.410 . S
C1730 C1731 1.392 . S
C1730 C1733 1.511 . S
C1731 C1727 1.376 . S
C1731 C1730 1.392 . S
C1731 H1743 0.929 . S
C1732 C1728 1.531 . S
C1732 H1744 0.960 . S
C1732 H1745 0.962 . S
C1732 H1746 0.960 . S
C1733 C1730 1.511 . S
C1733 H1747 0.961 . S
C1733 H1748 0.961 . S
C1733 H1749 0.961 . S
C1734 C1735 1.370 . S
C1734 C1736 1.363 . S
C1734 H1750 0.931 . S
C1735 C1734 1.370 . S
C1735 C1739 1.408 . S
C1736 C1734 1.363 . S
C1736 C1737 1.370 . S
C1736 C1740 1.524 . S
C1737 C1729 1.503 . S
C1737 C1736 1.370 . S
C1737 C1738 1.403 . S
C1738 C1737 1.403 . S
C1738 C1739 1.404 . S
C1738 C1741 1.539 . S
C1739 C1735 1.408 . S
C1739 C1738 1.404 . S
C1739 H1751 0.930 . S
C1740 C1736 1.524 . S
C1740 H1752 0.956 . S
C1740 H1753 0.961 . S
C1740 H1754 0.961 . S
C1741 C1738 1.539 . S
C1741 H1755 0.958 . S
C1741 H1756 0.961 . S
C1741 H1757 0.960 . S
H1742 C1726 0.931 . S
H1743 C1731 0.929 . S
H1744 C1732 0.960 . S
H1745 C1732 0.962 . S
H1746 C1732 0.960 . S
H1747 C1733 0.961 . S
H1748 C1733 0.961 . S
H1749 C1733 0.961 . S
H1750 C1734 0.931 . S
H1751 C1739 0.930 . S
H1752 C1740 0.956 . S
H1753 C1740 0.961 . S
H1754 C1740 0.961 . S
H1755 C1741 0.958 . S
H1756 C1741 0.961 . S
H1757 C1741 0.960 . S
C1758 C1759 1.391 . S
C1758 C1760 1.394 . S
C1758 H1774 0.931 . S
C1759 C1758 1.391 . S
C1759 C1763 1.376 . S
C1760 C1758 1.394 . S
C1760 C1761 1.369 . S
C1760 C1764 1.531 . S
C1761 C1760 1.369 . S
C1761 C1762 1.410 . S
C1761 C1769 1.503 . S
C1762 C1761 1.410 . S
C1762 C1763 1.392 . S
C1762 C1765 1.511 . S
C1763 C1759 1.376 . S
C1763 C1762 1.392 . S
C1763 H1775 0.929 . S
C1764 C1760 1.531 . S
C1764 H1776 0.960 . S
C1764 H1777 0.962 . S
C1764 H1778 0.960 . S
C1765 C1762 1.511 . S
C1765 H1779 0.961 . S
C1765 H1780 0.961 . S
C1765 H1781 0.961 . S
C1766 C1767 1.370 . S
C1766 C1768 1.363 . S
C1766 H1782 0.931 . S
C1767 C1766 1.370 . S
C1767 C1771 1.408 . S
C1768 C1766 1.363 . S
C1768 C1769 1.370 . S
C1768 C1772 1.524 . S
C1769 C1761 1.503 . S
C1769 C1768 1.370 . S
C1769 C1770 1.403 . S
C1770 C1769 1.403 . S
C1770 C1771 1.404 . S
C1770 C1773 1.539 . S
C1771 C1767 1.408 . S
C1771 C1770 1.404 . S
C1771 H1783 0.930 . S
C1772 C1768 1.524 . S
C1772 H1784 0.956 . S
C1772 H1785 0.961 . S
C1772 H1786 0.961 . S
C1773 C1770 1.539 . S
C1773 H1787 0.958 . S
C1773 H1788 0.961 . S
C1773 H1789 0.960 . S
H1774 C1758 0.931 . S
H1775 C1763 0.929 . S
H1776 C1764 0.960 . S
H1777 C1764 0.962 . S
H1778 C1764 0.960 . S
H1779 C1765 0.961 . S
H1780 C1765 0.961 . S
H1781 C1765 0.961 . S
H1782 C1766 0.931 . S
H1783 C1771 0.930 . S
H1784 C1772 0.956 . S
H1785 C1772 0.961 . S
H1786 C1772 0.961 . S
H1787 C1773 0.958 . S
H1788 C1773 0.961 . S
H1789 C1773 0.960 . S
C1790 C1791 1.391 . S
C1790 C1792 1.394 . S
C1790 H1806 0.931 . S
C1791 C1790 1.391 . S
C1791 C1795 1.376 . S
C1792 C1790 1.394 . S
C1792 C1793 1.369 . S
C1792 C1796 1.531 . S
C1793 C1792 1.369 . S
C1793 C1794 1.410 . S
C1793 C1801 1.503 . S
C1794 C1793 1.410 . S
C1794 C1795 1.392 . S
C1794 C1797 1.511 . S
C1795 C1791 1.376 . S
C1795 C1794 1.392 . S
C1795 H1807 0.929 . S
C1796 C1792 1.531 . S
C1796 H1808 0.960 . S
C1796 H1809 0.962 . S
C1796 H1810 0.960 . S
C1797 C1794 1.511 . S
C1797 H1811 0.961 . S
C1797 H1812 0.961 . S
C1797 H1813 0.961 . S
C1798 C1799 1.370 . S
C1798 C1800 1.363 . S
C1798 H1814 0.931 . S
C1799 C1798 1.370 . S
C1799 C1803 1.408 . S
C1800 C1798 1.363 . S
C1800 C1801 1.370 . S
C1800 C1804 1.524 . S
C1801 C1793 1.503 . S
C1801 C1800 1.370 . S
C1801 C1802 1.403 . S
C1802 C1801 1.403 . S
C1802 C1803 1.404 . S
C1802 C1805 1.539 . S
C1803 C1799 1.408 . S
C1803 C1802 1.404 . S
C1803 H1815 0.930 . S
C1804 C1800 1.524 . S
C1804 H1816 0.956 . S
C1804 H1817 0.961 . S
C1804 H1818 0.961 . S
C1805 C1802 1.539 . S
C1805 H1819 0.958 . S
C1805 H1820 0.961 . S
C1805 H1821 0.960 . S
H1806 C1790 0.931 . S
H1807 C1795 0.929 . S
H1808 C1796 0.960 . S
H1809 C1796 0.962 . S
H1810 C1796 0.960 . S
H1811 C1797 0.961 . S
H1812 C1797 0.961 . S
H1813 C1797 0.961 . S
H1814 C1798 0.931 . S
H1815 C1803 0.930 . S
H1816 C1804 0.956 . S
H1817 C1804 0.961 . S
H1818 C1804 0.961 . S
H1819 C1805 0.958 . S
H1820 C1805 0.961 . S
H1821 C1805 0.960 . S
C1822 C1823 1.391 . S
C1822 C1824 1.394 . S
C1822 H1838 0.931 . S
C1823 C1822 1.391 . S
C1823 C1827 1.376 . S
C1824 C1822 1.394 . S
C1824 C1825 1.369 . S
C1824 C1828 1.531 . S
C1825 C1824 1.369 . S
C1825 C1826 1.410 . S
C1825 C1833 1.503 . S
C1826 C1825 1.410 . S
C1826 C1827 1.392 . S
C1826 C1829 1.511 . S
C1827 C1823 1.376 . S
C1827 C1826 1.392 . S
C1827 H1839 0.929 . S
C1828 C1824 1.531 . S
C1828 H1840 0.960 . S
C1828 H1841 0.962 . S
C1828 H1842 0.960 . S
C1829 C1826 1.511 . S
C1829 H1843 0.961 . S
C1829 H1844 0.961 . S
C1829 H1845 0.961 . S
C1830 C1831 1.370 . S
C1830 C1832 1.363 . S
C1830 H1846 0.931 . S
C1831 C1830 1.370 . S
C1831 C1835 1.408 . S
C1832 C1830 1.363 . S
C1832 C1833 1.370 . S
C1832 C1836 1.524 . S
C1833 C1825 1.503 . S
C1833 C1832 1.370 . S
C1833 C1834 1.403 . S
C1834 C1833 1.403 . S
C1834 C1835 1.404 . S
C1834 C1837 1.539 . S
C1835 C1831 1.408 . S
C1835 C1834 1.404 . S
C1835 H1847 0.930 . S
C1836 C1832 1.524 . S
C1836 H1848 0.956 . S
C1836 H1849 0.961 . S
C1836 H1850 0.961 . S
C1837 C1834 1.539 . S
C1837 H1851 0.958 . S
C1837 H1852 0.961 . S
C1837 H1853 0.960 . S
H1838 C1822 0.931 . S
H1839 C1827 0.929 . S
H1840 C1828 0.960 . S
H1841 C1828 0.962 . S
H1842 C1828 0.960 . S
H1843 C1829 0.961 . S
H1844 C1829 0.961 . S
H1845 C1829 0.961 . S
H1846 C1830 0.931 . S
H1847 C1835 0.930 . S
H1848 C1836 0.956 . S
H1849 C1836 0.961 . S
H1850 C1836 0.961 . S
H1851 C1837 0.958 . S
H1852 C1837 0.961 . S
H1853 C1837 0.960 . S
C1854 C1855 1.391 . S
C1854 C1856 1.394 . S
C1854 H1870 0.931 . S
C1855 C1854 1.391 . S
C1855 C1859 1.376 . S
C1856 C1854 1.394 . S
C1856 C1857 1.369 . S
C1856 C1860 1.531 . S
C1857 C1856 1.369 . S
C1857 C1858 1.410 . S
C1857 C1865 1.503 . S
C1858 C1857 1.410 . S
C1858 C1859 1.392 . S
C1858 C1861 1.511 . S
C1859 C1855 1.376 . S
C1859 C1858 1.392 . S
C1859 H1871 0.929 . S
C1860 C1856 1.531 . S
C1860 H1872 0.960 . S
C1860 H1873 0.962 . S
C1860 H1874 0.960 . S
C1861 C1858 1.511 . S
C1861 H1875 0.961 . S
C1861 H1876 0.961 . S
C1861 H1877 0.961 . S
C1862 C1863 1.370 . S
C1862 C1864 1.363 . S
C1862 H1878 0.931 . S
C1863 C1862 1.370 . S
C1863 C1867 1.408 . S
C1864 C1862 1.363 . S
C1864 C1865 1.370 . S
C1864 C1868 1.524 . S
C1865 C1857 1.503 . S
C1865 C1864 1.370 . S
C1865 C1866 1.403 . S
C1866 C1865 1.403 . S
C1866 C1867 1.404 . S
C1866 C1869 1.539 . S
C1867 C1863 1.408 . S
C1867 C1866 1.404 . S
C1867 H1879 0.930 . S
C1868 C1864 1.524 . S
C1868 H1880 0.956 . S
C1868 H1881 0.961 . S
C1868 H1882 0.961 . S
C1869 C1866 1.539 . S
C1869 H1883 0.958 . S
C1869 H1884 0.961 . S
C1869 H1885 0.960 . S
H1870 C1854 0.931 . S
H1871 C1859 0.929 . S
H1872 C1860 0.960 . S
H1873 C1860 0.962 . S
H1874 C1860 0.960 . S
H1875 C1861 0.961 . S
H1876 C1861 0.961 . S
H1877 C1861 0.961 . S
H1878 C1862 0.931 . S
H1879 C1867 0.930 . S
H1880 C1868 0.956 . S
H1881 C1868 0.961 . S
H1882 C1868 0.961 . S
H1883 C1869 0.958 . S
H1884 C1869 0.961 . S
H1885 C1869 0.960 . S
C1886 C1887 1.391 . S
C1886 C1888 1.394 . S
C1886 H1902 0.931 . S
C1887 C1886 1.391 . S
C1887 C1891 1.376 . S
C1888 C1886 1.394 . S
C1888 C1889 1.369 . S
C1888 C1892 1.531 . S
C1889 C1888 1.369 . S
C1889 C1890 1.410 . S
C1889 C1897 1.503 . S
C1890 C1889 1.410 . S
C1890 C1891 1.392 . S
C1890 C1893 1.511 . S
C1891 C1887 1.376 . S
C1891 C1890 1.392 . S
C1891 H1903 0.929 . S
C1892 C1888 1.531 . S
C1892 H1904 0.960 . S
C1892 H1905 0.962 . S
C1892 H1906 0.960 . S
C1893 C1890 1.511 . S
C1893 H1907 0.961 . S
C1893 H1908 0.961 . S
C1893 H1909 0.961 . S
C1894 C1895 1.370 . S
C1894 C1896 1.363 . S
C1894 H1910 0.931 . S
C1895 C1894 1.370 . S
C1895 C1899 1.408 . S
C1896 C1894 1.363 . S
C1896 C1897 1.370 . S
C1896 C1900 1.524 . S
C1897 C1889 1.503 . S
C1897 C1896 1.370 . S
C1897 C1898 1.403 . S
C1898 C1897 1.403 . S
C1898 C1899 1.404 . S
C1898 C1901 1.539 . S
C1899 C1895 1.408 . S
C1899 C1898 1.404 . S
C1899 H1911 0.930 . S
C1900 C1896 1.524 . S
C1900 H1912 0.956 . S
C1900 H1913 0.961 . S
C1900 H1914 0.961 . S
C1901 C1898 1.539 . S
C1901 H1915 0.958 . S
C1901 H1916 0.961 . S
C1901 H1917 0.960 . S
H1902 C1886 0.931 . S
H1903 C1891 0.929 . S
H1904 C1892 0.960 . S
H1905 C1892 0.962 . S
H1906 C1892 0.960 . S
H1907 C1893 0.961 . S
H1908 C1893 0.961 . S
H1909 C1893 0.961 . S
H1910 C1894 0.931 . S
H1911 C1899 0.930 . S
H1912 C1900 0.956 . S
H1913 C1900 0.961 . S
H1914 C1900 0.961 . S
H1915 C1901 0.958 . S
H1916 C1901 0.961 . S
H1917 C1901 0.960 . S
C391 C211 1.095 . S
C383 C17 1.170 . S
C423 C212 1.679 . S
C415 C44 1.735 . S
C455 C206 1.230 . S
C447 C63 1.237 . S
C479 C87 1.042 . S
C487 C205 1.027 . S
C511 C110 1.640 . S
C519 C208 1.555 . S
C551 C210 1.236 . S
C543 C131 1.231 . S
C575 C159 1.055 . S
C583 C209 1.195 . S
C607 C177 1.179 . S
C615 C207 1.134 . S
C647 C242 1.548 . S
C639 C20 1.329 . S
C671 C42 1.455 . S
C679 C273 1.358 . S
C711 C241 1.488 . S
C703 C66 1.333 . S
C743 C276 1.106 . S
C735 C86 1.137 . S
C767 C109 1.339 . S
C775 C239 1.329 . S
C807 C271 1.510 . S
C799 C136 1.426 . S
C831 C157 1.191 . S
C839 C244 1.188 . S
C863 C182 1.336 . S
C871 C278 1.397 . S
C895 C18 1.399 . S
C903 C274 1.347 . S
C927 C112 1.401 . S
C935 C277 1.427 . S
C967 C245 1.328 . S
C959 C134 1.291 . S
C999 C272 1.265 . S
C991 C154 1.322 . S
C1023 C180 1.412 . S
C1031 C238 1.466 . S
C1055 C64 1.434 . S
C1063 C275 1.452 . S
C1095 C240 1.344 . S
C1087 C89 1.175 . S
C1119 C39 1.487 . S
C1127 C243 1.495 . S
C1151 C178 1.173 . S
C1159 C310 1.070 . S
C1183 C113 1.305 . S
C1191 C311 1.362 . S
C1223 C305 1.210 . S
C1215 C132 1.244 . S
C1255 C304 1.448 . S
C1247 C156 1.446 . S
C1279 C41 1.203 . S
C1287 C307 1.131 . S
C1319 C309 1.224 . S
C1311 C62 1.222 . S
C1343 C90 1.462 . S
C1351 C308 1.533 . S
C1375 C16 1.197 . S
C1383 C306 1.091 . S
C1407 C181 1.504 . S
C1415 C344 1.540 . S
C1447 C376 1.231 . S
C1439 C111 1.258 . S
C1471 C135 1.236 . S
C1479 C337 1.305 . S
C1503 C155 1.386 . S
C1511 C371 1.391 . S
C1543 C342 1.101 . S
C1535 C40 1.123 . S
C1567 C67 1.622 . S
C1575 C373 1.766 . S
C1607 C339 1.382 . S
C1599 C88 1.425 . S
C1639 C374 1.423 . S
C1631 C21 1.331 . S
C1671 C370 1.321 . S
C1663 C179 1.324 . S
C1695 C43 1.191 . S
C1703 C372 1.352 . S
C1727 C65 1.262 . S
C1735 C341 1.300 . S
C1767 C375 1.548 . S
C1759 C85 1.546 . S
C1791 C19 1.521 . S
C1799 C340 1.535 . S
C1823 C133 1.628 . S
C1831 C377 1.567 . S
C1863 C343 1.441 . S
C1855 C158 1.415 . S
C1895 C338 1.289 . S
C1887 C108 1.254 . S
