# Generated by pormake.
# Topology pyr, (3,6)-cn, num edge types: 1
# Building blocks:
#     Node 0, Type 0, BuildingBlock: OLANEW_clean_sbu_2, # of connection points: 3
#     Node 1, Type 0, BuildingBlock: OLANEW_clean_sbu_2, # of connection points: 3
#     Node 2, Type 0, BuildingBlock: OLANEW_clean_sbu_2, # of connection points: 3
#     Node 3, Type 0, BuildingBlock: OLANEW_clean_sbu_2, # of connection points: 3
#     Node 4, Type 0, BuildingBlock: OLANEW_clean_sbu_2, # of connection points: 3
#     Node 5, Type 0, BuildingBlock: OLANEW_clean_sbu_2, # of connection points: 3
#     Node 6, Type 0, BuildingBlock: OLANEW_clean_sbu_2, # of connection points: 3
#     Node 7, Type 0, BuildingBlock: OLANEW_clean_sbu_2, # of connection points: 3
#     Node 8, Type 1, BuildingBlock: JUFBIX_clean_sbu_0, # of connection points: 6
#     Node 9, Type 1, BuildingBlock: JUFBIX_clean_sbu_0, # of connection points: 6
#     Node 10, Type 1, BuildingBlock: JUFBIX_clean_sbu_0, # of connection points: 6
#     Node 11, Type 1, BuildingBlock: JUFBIX_clean_sbu_0, # of connection points: 6
#     Edge 12, Type (0, 1), BuildingBlock: KIFKEQ_clean_linker_1, # of connection points: 2
#     Edge 13, Type (0, 1), BuildingBlock: KIFKEQ_clean_linker_1, # of connection points: 2
#     Edge 14, Type (0, 1), BuildingBlock: KIFKEQ_clean_linker_1, # of connection points: 2
#     Edge 15, Type (0, 1), BuildingBlock: KIFKEQ_clean_linker_1, # of connection points: 2
#     Edge 16, Type (0, 1), BuildingBlock: KIFKEQ_clean_linker_1, # of connection points: 2
#     Edge 17, Type (0, 1), BuildingBlock: KIFKEQ_clean_linker_1, # of connection points: 2
#     Edge 18, Type (0, 1), BuildingBlock: KIFKEQ_clean_linker_1, # of connection points: 2
#     Edge 19, Type (0, 1), BuildingBlock: KIFKEQ_clean_linker_1, # of connection points: 2
#     Edge 20, Type (0, 1), BuildingBlock: KIFKEQ_clean_linker_1, # of connection points: 2
#     Edge 21, Type (0, 1), BuildingBlock: KIFKEQ_clean_linker_1, # of connection points: 2
#     Edge 22, Type (0, 1), BuildingBlock: KIFKEQ_clean_linker_1, # of connection points: 2
#     Edge 23, Type (0, 1), BuildingBlock: KIFKEQ_clean_linker_1, # of connection points: 2
#     Edge 24, Type (0, 1), BuildingBlock: KIFKEQ_clean_linker_1, # of connection points: 2
#     Edge 25, Type (0, 1), BuildingBlock: KIFKEQ_clean_linker_1, # of connection points: 2
#     Edge 26, Type (0, 1), BuildingBlock: KIFKEQ_clean_linker_1, # of connection points: 2
#     Edge 27, Type (0, 1), BuildingBlock: KIFKEQ_clean_linker_1, # of connection points: 2
#     Edge 28, Type (0, 1), BuildingBlock: KIFKEQ_clean_linker_1, # of connection points: 2
#     Edge 29, Type (0, 1), BuildingBlock: KIFKEQ_clean_linker_1, # of connection points: 2
#     Edge 30, Type (0, 1), BuildingBlock: KIFKEQ_clean_linker_1, # of connection points: 2
#     Edge 31, Type (0, 1), BuildingBlock: KIFKEQ_clean_linker_1, # of connection points: 2
#     Edge 32, Type (0, 1), BuildingBlock: KIFKEQ_clean_linker_1, # of connection points: 2
#     Edge 33, Type (0, 1), BuildingBlock: KIFKEQ_clean_linker_1, # of connection points: 2
#     Edge 34, Type (0, 1), BuildingBlock: KIFKEQ_clean_linker_1, # of connection points: 2
#     Edge 35, Type (0, 1), BuildingBlock: KIFKEQ_clean_linker_1, # of connection points: 2
# Relax obj value: 0.120
# Max RMSD: 0.171
# Mean RMSD: 0.119
data_MOF--net-pry--node1-OLANEW_clean_sbu_2--node2-JUFBIX_clean_sbu_0--edge1-KIFKEQ_clean_linker_1
_symmetry_space_group_name_H-M    P1
_symmetry_Int_Tables_number       1
_symmetry_cell_setting            triclinic
loop_
_symmetry_equiv_pos_as_xyz
'x, y, z'
_cell_length_a     40.852385
_cell_length_b     38.472181
_cell_length_c     40.067722
_cell_angle_alpha  90.169701
_cell_angle_beta   89.527132
_cell_angle_gamma 96.667172
loop_
_atom_site_label
_atom_site_type_symbol
_atom_site_fract_x
_atom_site_fract_y
_atom_site_fract_z
_atom_type_partial_charge
O0 O 0.23404 0.17873 0.1781 0.0
Cd1 Cd 0.18738 0.20845 0.20027 0.0
O2 O 0.23806 0.14323 0.22103 0.0
Cd3 Cd 0.19637 0.15161 0.2547 0.0
O4 O 0.16406 0.14093 0.29932 0.0
C5 C 0.17272 0.11957 0.3209 0.0
O6 O 0.20008 0.10542 0.31559 0.0
C7 C 0.24846 0.15531 0.19273 0.0
C8 C 0.15765 0.25629 0.15983 0.0
O9 O 0.18518 0.26528 0.17438 0.0
O10 O 0.14471 0.22449 0.16319 0.0
O11 O 0.50437 0.93358 0.70243 0.0
Cd12 Cd 0.50687 0.92022 0.643 0.0
O13 O 0.45137 0.92162 0.69571 0.0
Cd14 Cd 0.3981 0.91772 0.70443 0.0
O15 O 0.34511 0.92064 0.70413 0.0
C16 C 0.33557 0.95021 0.71053 0.0
O17 O 0.35776 0.97656 0.718 0.0
C18 C 0.4755 0.93121 0.71487 0.0
C19 C 0.51718 0.85106 0.63108 0.0
O20 O 0.54124 0.87561 0.63038 0.0
O21 O 0.48826 0.8592 0.63758 0.0
O22 O 0.72793 0.46714 0.91343 0.0
Cd23 Cd 0.67279 0.47421 0.89329 0.0
O24 O 0.71316 0.41084 0.91667 0.0
Cd25 Cd 0.71268 0.3562 0.93152 0.0
O26 O 0.68483 0.30634 0.94561 0.0
C27 C 0.65864 0.30855 0.96246 0.0
O28 O 0.65109 0.33973 0.97079 0.0
C29 C 0.73473 0.43691 0.92157 0.0
C30 C 0.6666 0.48257 0.82464 0.0
O31 O 0.67494 0.50892 0.84366 0.0
O32 O 0.66213 0.45213 0.838 0.0
O33 O 0.07393 0.72177 0.44448 0.0
Cd34 Cd 0.0821 0.66406 0.42247 0.0
O35 O 0.03317 0.69459 0.47343 0.0
Cd36 Cd 0.98831 0.68914 0.50418 0.0
O37 O 0.93705 0.6701 0.51645 0.0
C38 C 0.92372 0.64541 0.49818 0.0
O39 O 0.94148 0.63301 0.47442 0.0
C40 C 0.05065 0.72295 0.46554 0.0
C41 C 0.06176 0.65236 0.35662 0.0
O42 O 0.04106 0.64873 0.38092 0.0
O43 O 0.09206 0.66214 0.36334 0.0
O44 O 0.87281 0.8548 0.85233 0.0
Cd45 Cd 0.8589 0.82133 0.9045 0.0
O46 O 0.83645 0.89367 0.84937 0.0
Cd47 Cd 0.8001 0.88777 0.89124 0.0
O48 O 0.75494 0.9044 0.91552 0.0
C49 C 0.74876 0.9035 0.94678 0.0
O50 O 0.76984 0.89119 0.96692 0.0
C51 C 0.86141 0.88028 0.83767 0.0
C52 C 0.89051 0.76044 0.91596 0.0
O53 O 0.86131 0.75836 0.90405 0.0
O54 O 0.90529 0.79111 0.92157 0.0
O55 O 0.57603 0.06086 0.44641 0.0
Cd56 Cd 0.58951 0.06221 0.50584 0.0
O57 O 0.59188 0.11707 0.44518 0.0
Cd58 Cd 0.60022 0.17089 0.42661 0.0
O59 O 0.60522 0.228 0.43054 0.0
C60 C 0.58069 0.2443 0.42411 0.0
O61 O 0.55344 0.22648 0.41325 0.0
C62 C 0.58072 0.08918 0.42993 0.0
C63 C 0.65533 0.05251 0.51621 0.0
O64 O 0.63275 0.02645 0.51523 0.0
O65 O 0.64677 0.08326 0.51238 0.0
O66 O 0.41594 0.71885 0.20154 0.0
Cd67 Cd 0.40053 0.65764 0.21671 0.0
O68 O 0.37742 0.70872 0.16429 0.0
Cd69 Cd 0.34086 0.71575 0.12608 0.0
O70 O 0.29272 0.692 0.10863 0.0
C71 C 0.28551 0.68448 0.07845 0.0
O72 O 0.30746 0.69301 0.05485 0.0
C73 C 0.39968 0.72996 0.17773 0.0
C74 C 0.42962 0.63846 0.27541 0.0
O75 O 0.44375 0.63547 0.24703 0.0
O76 O 0.4018 0.65084 0.27602 0.0
O77 O 0.11036 0.52307 0.64413 0.0
Cd78 Cd 0.12977 0.52706 0.58627 0.0
O79 O 0.09377 0.46763 0.63562 0.0
Cd80 Cd 0.07157 0.41361 0.64514 0.0
O81 O 0.0585 0.3566 0.64419 0.0
C82 C 0.02934 0.34209 0.63919 0.0
O83 O 1.00547 0.3618 0.63528 0.0
C84 C 0.09741 0.49377 0.6554 0.0
C85 C 0.19753 0.52314 0.58283 0.0
O86 O 0.17684 0.49542 0.58233 0.0
O87 O 0.18616 0.55277 0.58469 0.0
Co88 Co 0.98603 0.0193 0.56795 0.0
C89 C 0.01829 0.95871 0.56197 0.0
Co90 Co 0.03279 0.02042 0.59546 0.0
C91 C 0.91705 0.02321 0.55334 0.0
C92 C 0.94334 1.00269 0.51273 0.0
N93 N 0.94718 0.01528 0.54407 0.0
N94 N 0.89454 0.01584 0.52902 0.0
C95 C 0.9111 1.00296 0.50344 0.0
H96 H 0.91168 0.0336 0.57765 0.0
H97 H 0.9628 0.99377 0.49761 0.0
C98 C 1.00069 0.08136 0.6009 0.0
N99 N 0.07219 0.02524 0.61887 0.0
C100 C 0.08899 1.00089 0.63306 0.0
C101 C 0.09057 0.05606 0.62503 0.0
N102 N 0.11662 0.01559 0.64823 0.0
C103 C 0.11762 0.05023 0.64324 0.0
C104 C 0.04077 0.04562 0.53007 0.0
O105 O 0.97925 0.06551 0.58171 0.0
O106 O 0.02489 0.06584 0.60992 0.0
O107 O 0.05584 0.04011 0.55687 0.0
O108 O 0.00961 0.0384 0.52936 0.0
O109 O 0.03994 0.97488 0.58075 0.0
H110 H 0.08505 0.08131 0.61637 0.0
H111 H 0.0812 0.97302 0.63231 0.0
O112 O 0.99318 0.9734 0.55396 0.0
O113 O 0.96291 0.99989 0.60705 0.0
O114 O 0.00973 1.00057 0.63367 0.0
C115 C 0.97852 0.99334 0.63331 0.0
H116 H 0.90077 0.9947 0.47952 0.0
H117 H 0.1372 0.06982 0.65121 0.0
Co118 Co 0.48585 0.02568 0.04587 0.0
C119 C 0.47704 0.97356 0.09529 0.0
Co120 Co 0.51321 0.03784 0.09251 0.0
C121 C 0.47149 0.01203 0.9763 0.0
C122 C 0.42924 0.99942 0.00784 0.0
N123 N 0.46114 0.01323 0.00832 0.0
N124 N 0.44746 0.9975 0.956 0.0
C125 C 0.42081 0.98956 0.97573 0.0
H126 H 0.49664 0.01992 0.96833 0.0
H127 H 0.4135 0.9955 0.02968 0.0
C128 C 0.52234 0.08982 0.04316 0.0
N129 N 0.53857 0.0506 0.12977 0.0
C130 C 0.53097 0.04961 0.16269 0.0
C131 C 0.57018 0.06518 0.1282 0.0
N132 N 0.55673 0.06305 0.18169 0.0
C133 C 0.58132 0.07288 0.15982 0.0
C134 C 0.54823 1.00345 0.0442 0.0
O135 O 0.50349 0.06865 0.02552 0.0
O136 O 0.52868 0.08141 0.07282 0.0
O137 O 0.54974 0.01731 0.0731 0.0
O138 O 0.52178 1.00351 0.02771 0.0
O139 O 0.49751 0.99406 0.11193 0.0
H140 H 0.58412 0.07051 0.10535 0.0
H141 H 0.50702 0.03929 0.17238 0.0
O142 O 0.4686 0.98273 0.06645 0.0
O143 O 0.45009 0.048 0.06434 0.0
O144 O 0.47642 0.05818 0.11146 0.0
C145 C 0.45078 0.06012 0.09396 0.0
H146 H 0.39718 0.97683 0.96762 0.0
H147 H 0.60552 0.08564 0.16598 0.0
Co148 Co 0.58487 0.5565 0.53105 0.0
C149 C 0.53268 0.56202 0.48706 0.0
Co150 Co 0.53569 0.53496 0.55003 0.0
C151 C 0.65598 0.56996 0.51962 0.0
C152 C 0.62842 0.60516 0.49344 0.0
N153 N 0.62489 0.57728 0.51409 0.0
N154 N 0.67852 0.59194 0.50284 0.0
C155 C 0.66121 0.61402 0.48632 0.0
H156 H 0.662 0.54897 0.53556 0.0
H157 H 0.60846 0.61872 0.48453 0.0
C158 C 0.58755 0.5295 0.59422 0.0
N159 N 0.49549 0.51491 0.5666 0.0
C160 C 0.46593 0.5272 0.56455 0.0
C161 C 0.48928 0.48385 0.58222 0.0
N162 N 0.44139 0.50496 0.57816 0.0
C163 C 0.45613 0.47766 0.58934 0.0
C164 C 0.56943 0.48703 0.51491 0.0
O165 O 0.60538 0.54454 0.57112 0.0
O166 O 0.55664 0.52299 0.58992 0.0
O167 O 0.54317 0.49154 0.53078 0.0
O168 O 0.59206 0.51255 0.5119 0.0
O169 O 0.51506 0.54701 0.51023 0.0
H170 H 0.50762 0.46653 0.58754 0.0
H171 H 0.46263 0.55201 0.55318 0.0
O172 O 0.5636 0.56821 0.49112 0.0
O173 O 0.57738 0.6001 0.55026 0.0
O174 O 0.5285 0.57875 0.56886 0.0
C175 C 0.55087 0.6044 0.56574 0.0
H176 H 0.67164 0.6357 0.47095 0.0
H177 H 0.44382 0.45434 0.60101 0.0
Co178 Co 0.02573 0.48872 0.99708 0.0
C179 C 0.96134 0.45944 0.0128 0.0
Co180 Co 1.00792 0.50253 0.0472 0.0
C181 C 0.0439 0.49019 0.9256 0.0
C182 C 0.0399 0.43936 0.94787 0.0
N183 N 0.0386 0.47348 0.95521 0.0
N184 N 0.0481 0.46758 0.90036 0.0
C185 C 0.04588 0.43574 0.91451 0.0
H186 H 0.04296 0.51796 0.92229 0.0
H187 H 0.03518 0.41795 0.96531 0.0
C188 C 0.07164 0.53315 0.03055 0.0
N189 N 0.99414 0.51501 0.08945 0.0
C190 C 1.00406 0.54361 0.10808 0.0
C191 C 0.97415 0.49417 0.10981 0.0
N192 N 0.99122 0.54126 0.13937 0.0
C193 C 0.97227 0.51014 0.14029 0.0
C194 C 0.04113 0.44353 0.04849 0.0
O195 O 0.06667 0.5169 1.00298 0.0
O196 O 0.04936 0.52989 0.05311 0.0
O197 O 0.02517 0.46299 0.06656 0.0
O198 O 0.0442 0.45019 0.01752 0.0
O199 O 0.96671 0.4756 0.04021 0.0
H200 H 0.96291 0.46816 0.1035 0.0
H201 H 0.02114 0.5652 0.0991 0.0
O202 O 0.9843 0.46082 0.99111 0.0
O203 O 1.0075 0.52809 0.97783 0.0
O204 O 0.99061 0.54188 0.0279 0.0
C205 C 0.99286 0.54826 0.99671 0.0
H206 H 0.04766 0.41132 0.90149 0.0
H207 H 0.95941 0.49859 0.16199 0.0
H208 H 0.18634 0.07586 0.37114 0.0
H209 H 0.11366 0.142 0.34027 0.0
H210 H 0.15417 0.05974 0.42113 0.0
H211 H 0.0815 0.1262 0.39097 0.0
H212 H 0.01675 0.05791 0.46788 0.0
H213 H 0.04798 0.07708 0.41764 0.0
H214 H 0.13838 0.08353 0.47362 0.0
H215 H 0.10732 0.06383 0.52355 0.0
C216 C 0.16353 0.08716 0.37505 0.0
C217 C 0.15269 0.11032 0.35156 0.0
C218 C 0.14513 0.07805 0.40397 0.0
C219 C 0.11525 0.09178 0.41036 0.0
C220 C 0.10424 0.11487 0.3868 0.0
C221 C 0.12277 0.12409 0.35778 0.0
C222 C 0.04328 0.06359 0.46951 0.0
C223 C 0.05948 0.05913 0.49981 0.0
C224 C 0.0612 0.07477 0.44069 0.0
C225 C 0.0958 0.0817 0.44139 0.0
C226 C 0.11186 0.07788 0.4719 0.0
C227 C 0.09398 0.06676 0.50067 0.0
H228 H 0.42121 0.91439 0.75557 0.0
H229 H 0.51988 0.9685 0.7554 0.0
H230 H 0.41324 0.9329 0.81252 0.0
H231 H 0.51317 0.98428 0.81358 0.0
H232 H 0.48231 0.0359 0.90875 0.0
H233 H 0.48818 0.02071 0.84997 0.0
H234 H 0.42723 0.92257 0.8671 0.0
H235 H 0.42025 0.93891 0.9252 0.0
C236 C 0.44105 0.93069 0.76738 0.0
C237 C 0.47073 0.94094 0.7503 0.0
C238 C 0.43681 0.94063 0.80056 0.0
C239 C 0.46249 0.96032 0.8179 0.0
C240 C 0.49249 0.96988 0.80099 0.0
C241 C 0.49649 0.96044 0.76762 0.0
C242 C 0.47016 0.0112 0.89971 0.0
C243 C 0.45069 0.98868 0.92134 0.0
C244 C 0.47364 1.0023 0.86611 0.0
C245 C 0.45822 0.97031 0.85354 0.0
C246 C 0.43888 0.94776 0.87547 0.0
C247 C 0.43494 0.957 0.90886 0.0
H248 H 0.6779 0.54284 0.78822 0.0
H249 H 0.64055 0.43339 0.7799 0.0
H250 H 0.66183 0.55215 0.73069 0.0
H251 H 0.62462 0.44277 0.72234 0.0
H252 H 0.55824 0.48834 0.6438 0.0
H253 H 0.58115 0.47518 0.6976 0.0
H254 H 0.67296 0.53637 0.67096 0.0
H255 H 0.65001 0.54969 0.61687 0.0
C256 C 0.66667 0.52068 0.774 0.0
C257 C 0.66027 0.48743 0.78872 0.0
C258 C 0.65763 0.52599 0.74099 0.0
C259 C 0.64177 0.49824 0.72211 0.0
C260 C 0.63645 0.46474 0.73644 0.0
C261 C 0.64573 0.45935 0.76935 0.0
C262 C 0.58339 0.49885 0.64927 0.0
C263 C 0.60226 0.5202 0.62612 0.0
C264 C 0.59658 0.49108 0.68002 0.0
C265 C 0.62886 0.50471 0.68847 0.0
C266 C 0.64794 0.5257 0.66518 0.0
C267 C 0.63484 0.53319 0.6342 0.0
H268 H 0.10005 0.63632 0.30394 0.0
H269 H 0.99959 0.64839 0.3314 0.0
H270 H 0.08184 0.61486 0.24922 0.0
H271 H 0.98139 0.62887 0.27601 0.0
H272 H 0.95585 0.54508 0.1966 0.0
H273 H 0.97282 0.57664 0.24688 0.0
H274 H 0.06071 0.624 0.19631 0.0
H275 H 0.04482 0.59012 0.1465 0.0
C276 C 0.07412 0.63513 0.29797 0.0
C277 C 0.05119 0.6436 0.32208 0.0
C278 C 0.06364 0.62303 0.26643 0.0
C279 C 0.03 0.6197 0.25806 0.0
C280 C 1.00736 0.63013 0.28172 0.0
C281 C 0.01779 0.64157 0.31346 0.0
C282 C 0.9789 0.56202 0.19609 0.0
C283 C 0.99921 0.56427 0.16749 0.0
C284 C 0.98844 0.58074 0.22496 0.0
C285 C 0.01836 0.60285 0.22599 0.0
C286 C 0.03784 0.60669 0.19678 0.0
C287 C 0.02846 0.58754 0.16793 0.0
H288 H 0.28773 0.10985 0.21981 0.0
H289 H 0.27691 0.17059 0.13091 0.0
H290 H 0.33635 0.08826 0.19576 0.0
H291 H 0.32606 0.14906 0.10688 0.0
H292 H 0.39398 0.07175 0.06188 0.0
H293 H 0.34572 0.09544 0.08502 0.0
H294 H 0.39337 0.10771 0.18081 0.0
H295 H 0.44153 0.0837 0.15777 0.0
C296 C 0.29569 0.11871 0.19511 0.0
C297 C 0.27817 0.14207 0.17738 0.0
C298 C 0.32385 0.10645 0.18138 0.0
C299 C 0.3354 0.11696 0.14938 0.0
C300 C 0.3178 0.14014 0.13147 0.0
C301 C 0.28965 0.15263 0.14533 0.0
C302 C 0.39426 0.07959 0.08787 0.0
C303 C 0.42175 0.07568 0.10793 0.0
C304 C 0.36658 0.09341 0.10111 0.0
C305 C 0.36546 0.10349 0.13486 0.0
C306 C 0.39309 0.09984 0.15483 0.0
C307 C 0.42086 0.08623 0.14155 0.0
H308 H 0.28291 0.9015 0.69637 0.0
H309 H 0.30898 0.01162 0.71645 0.0
H310 H 0.22586 0.91204 0.68693 0.0
H311 H 0.25268 0.02228 0.70605 0.0
H312 H 0.14761 0.03501 0.70518 0.0
H313 H 0.19777 0.0143 0.72612 0.0
H314 H 0.19465 0.93894 0.64558 0.0
H315 H 0.14355 0.95901 0.62572 0.0
C316 C 0.27645 0.9279 0.69894 0.0
C317 C 0.30051 0.95575 0.70706 0.0
C318 C 0.24379 0.93396 0.69337 0.0
C319 C 0.23457 0.96799 0.69576 0.0
C320 C 0.25861 0.9956 0.70463 0.0
C321 C 0.29108 0.98954 0.71034 0.0
C322 C 0.15737 0.01347 0.69254 0.0
C323 C 0.14209 0.99875 0.66376 0.0
C324 C 0.18619 1.00177 0.70429 0.0
C325 C 0.20074 0.97551 0.68709 0.0
C326 C 0.1841 0.9591 0.65956 0.0
C327 C 0.15487 0.97053 0.64811 0.0
H328 H 0.77163 0.38134 0.91971 0.0
H329 H 0.76937 0.48494 0.96079 0.0
H330 H 0.82559 0.37832 0.94561 0.0
H331 H 0.82265 0.48186 0.98651 0.0
H332 H 0.90533 0.46007 0.05037 0.0
H333 H 0.84868 0.44763 0.0313 0.0
H334 H 0.88352 0.41297 0.93627 0.0
H335 H 0.9404 0.42542 0.95522 0.0
C336 C 0.78235 0.40313 0.9347 0.0
C337 C 0.76627 0.43333 0.93835 0.0
C338 C 0.81325 0.40149 0.94932 0.0
C339 C 0.82813 0.42972 0.96833 0.0
C340 C 0.81158 0.45946 0.97249 0.0
C341 C 0.78118 0.46134 0.95749 0.0
C342 C 0.90099 0.44897 0.0257 0.0
C343 C 0.92745 0.44427 1.00413 0.0
C344 C 0.86851 0.44198 0.01476 0.0
C345 C 0.86175 0.42985 0.98214 0.0
C346 C 0.88801 0.42224 0.96156 0.0
C347 C 0.9206 0.42949 0.97241 0.0
H348 H 0.88701 0.59913 0.45786 0.0
H349 H 0.88021 0.66208 0.54664 0.0
H350 H 0.8279 0.58107 0.46079 0.0
H351 H 0.82083 0.64383 0.54947 0.0
H352 H 0.71705 0.5812 0.55567 0.0
H353 H 0.77761 0.58995 0.55695 0.0
H354 H 0.77977 0.61534 0.45198 0.0
H355 H 0.71971 0.60665 0.45086 0.0
C356 C 0.87299 0.60887 0.47821 0.0
C357 C 0.8883 0.63234 0.50184 0.0
C358 C 0.83911 0.59854 0.47981 0.0
C359 C 0.81977 0.61118 0.50524 0.0
C360 C 0.8352 0.63348 0.52972 0.0
C361 C 0.86914 0.64411 0.52796 0.0
C362 C 0.73063 0.58808 0.53287 0.0
C363 C 0.71384 0.59337 0.50318 0.0
C364 C 0.76515 0.59337 0.53364 0.0
C365 C 0.78335 0.60334 0.50457 0.0
C366 C 0.76645 0.60737 0.4747 0.0
C367 C 0.7321 0.60263 0.47408 0.0
H368 H 0.09205 0.25301 0.14505 0.0
H369 H 0.18444 0.31871 0.13282 0.0
H370 H 0.06332 0.29743 0.1176 0.0
H371 H 0.15573 0.36266 0.10456 0.0
H372 H 0.09261 0.41184 0.0232 0.0
H373 H 0.12082 0.36601 0.04893 0.0
H374 H 0.05405 0.36317 0.13307 0.0
H375 H 0.02632 0.40972 0.10784 0.0
C376 C 0.10629 0.27672 0.13616 0.0
C377 C 0.14058 0.28227 0.14113 0.0
C378 C 0.08979 0.30224 0.12063 0.0
C379 C 0.10726 0.33354 0.10896 0.0
C380 C 0.14163 0.33873 0.11315 0.0
C381 C 0.15804 0.31359 0.1294 0.0
C382 C 0.08384 0.40138 0.04714 0.0
C383 C 0.05718 0.41448 0.06346 0.0
C384 C 0.10012 0.37525 0.06192 0.0
C385 C 0.08965 0.36098 0.09301 0.0
C386 C 0.06257 0.37353 0.10902 0.0
C387 C 0.04676 0.40025 0.09461 0.0
H388 H 0.661 0.24086 0.94168 0.0
H389 H 0.60642 0.30462 0.00559 0.0
H390 H 0.62484 0.18873 0.95909 0.0
H391 H 0.57053 0.25263 0.02287 0.0
H392 H 0.54896 0.14646 0.07822 0.0
H393 H 0.57996 0.19966 0.05681 0.0
H394 H 0.56398 0.16202 0.95596 0.0
H395 H 0.53252 0.1084 0.97747 0.0
C396 C 0.64129 0.24377 0.95935 0.0
C397 C 0.63672 0.27685 0.97242 0.0
C398 C 0.62044 0.21399 0.96907 0.0
C399 C 0.59491 0.21668 0.99232 0.0
C400 C 0.59016 0.24978 1.00508 0.0
C401 C 0.61071 0.27953 0.99513 0.0
C402 C 0.55172 0.14962 0.05144 0.0
C403 C 0.53831 0.12326 0.0295 0.0
C404 C 0.56938 0.18017 0.0392 0.0
C405 C 0.57443 0.18493 1.00474 0.0
C406 C 0.56061 0.15886 0.98266 0.0
C407 C 0.54243 0.12837 0.99494 0.0
H408 H 0.02986 0.73612 0.52881 0.0
H409 H 0.0576 0.7863 0.43488 0.0
H410 H 0.02167 0.79311 0.55314 0.0
H411 H 0.04887 0.84306 0.45904 0.0
H412 H 0.989 0.92714 0.50728 0.0
H413 H 0.99603 0.86953 0.48436 0.0
H414 H 0.06293 0.85272 0.56391 0.0
H415 H 0.05657 0.9109 0.58663 0.0
C416 C 0.03367 0.75923 0.51326 0.0
C417 C 0.04399 0.75683 0.47988 0.0
C418 C 0.02934 0.79178 0.52726 0.0
C419 C 0.03463 0.82231 0.50789 0.0
C420 C 0.04448 0.81982 0.4744 0.0
C421 C 0.04952 0.78744 0.46064 0.0
C422 C 1.00518 0.91117 0.51995 0.0
C423 C 0.02229 0.92353 0.54873 0.0
C424 C 1.00924 0.8783 0.50675 0.0
C425 C 0.02996 0.85682 0.52243 0.0
C426 C 0.04668 0.86881 0.55152 0.0
C427 C 0.04316 0.90208 0.56437 0.0
H428 H 0.56852 0.82799 0.59721 0.0
H429 H 0.47786 0.79165 0.6488 0.0
H430 H 0.5763 0.76804 0.58309 0.0
H431 H 0.48649 0.7313 0.63657 0.0
H432 H 0.49258 0.63061 0.57721 0.0
H433 H 0.48459 0.68988 0.59423 0.0
H434 H 0.59021 0.71537 0.60265 0.0
H435 H 0.59798 0.6568 0.58356 0.0
C436 C 0.5505 0.80705 0.60598 0.0
C437 C 0.52254 0.81447 0.62399 0.0
C438 C 0.55506 0.77255 0.59812 0.0
C439 C 0.5321 0.74452 0.60873 0.0
C440 C 0.5044 0.75208 0.62736 0.0
C441 C 0.49952 0.78668 0.63461 0.0
C442 C 0.51401 0.64893 0.58289 0.0
C443 C 0.54589 0.63926 0.57885 0.0
C444 C 0.50948 0.68291 0.59286 0.0
C445 C 0.53675 0.70776 0.59969 0.0
C446 C 0.56861 0.69743 0.59679 0.0
C447 C 0.57312 0.66373 0.58611 0.0
H448 H 0.91809 0.86336 0.80707 0.0
H449 H 0.8423 0.93222 0.79797 0.0
H450 H 0.94565 0.88984 0.75747 0.0
H451 H 0.87008 0.95892 0.7488 0.0
H452 H 0.91183 0.97624 0.64251 0.0
H453 H 0.8833 0.94784 0.69077 0.0
H454 H 0.97668 0.94448 0.73967 0.0
H455 H 1.00518 0.97236 0.69136 0.0
C456 C 0.90723 0.88408 0.79453 0.0
C457 C 0.8779 0.89557 0.80673 0.0
C458 C 0.92318 0.89946 0.76615 0.0
C459 C 0.9102 0.92667 0.74904 0.0
C460 C 0.88066 0.93781 0.761 0.0
C461 C 0.86479 0.92256 0.78942 0.0
C462 C 0.92628 0.96948 0.66356 0.0
C463 C 0.96085 0.97669 0.66295 0.0
C464 C 0.90989 0.9533 0.69135 0.0
C465 C 0.92762 0.94373 0.71923 0.0
C466 C 0.96219 0.95096 0.71855 0.0
C467 C 0.97855 0.96725 0.69086 0.0
H468 H 0.61108 0.13158 0.38138 0.0
H469 H 0.53525 0.04504 0.39669 0.0
H470 H 0.60261 0.12712 0.3212 0.0
H471 H 0.52713 0.04022 0.3364 0.0
H472 H 0.50522 0.06378 0.22546 0.0
H473 H 0.50847 0.07253 0.28588 0.0
H474 H 0.61461 0.08111 0.27975 0.0
H475 H 0.61158 0.0715 0.22004 0.0
C476 C 0.59205 0.11219 0.37199 0.0
C477 C 0.5736 0.08891 0.39379 0.0
C478 C 0.5875 0.10932 0.33749 0.0
C479 C 0.56427 0.08323 0.32411 0.0
C480 C 0.545 0.06075 0.34599 0.0
C481 C 0.5498 0.0634 0.38046 0.0
C482 C 0.52923 0.06719 0.23697 0.0
C483 C 0.55813 0.0672 0.21756 0.0
C484 C 0.53107 0.07237 0.27159 0.0
C485 C 0.56182 0.07799 0.28744 0.0
C486 C 0.59058 0.07767 0.26815 0.0
C487 C 0.58878 0.07216 0.23377 0.0
H488 H 0.40629 0.64258 0.3393 0.0
H489 H 0.48719 0.60949 0.28183 0.0
H490 H 0.4312 0.62419 0.39046 0.0
H491 H 0.51169 0.59045 0.33287 0.0
H492 H 0.56349 0.59585 0.43363 0.0
H493 H 0.53849 0.61477 0.38287 0.0
H494 H 0.44254 0.57113 0.41901 0.0
H495 H 0.46746 0.55282 0.47021 0.0
C496 C 0.42934 0.6313 0.33757 0.0
C497 C 0.44479 0.62754 0.3065 0.0
C498 C 0.4435 0.62055 0.36687 0.0
C499 C 0.47341 0.60581 0.36574 0.0
C500 C 0.48885 0.60212 0.33465 0.0
C501 C 0.47472 0.61288 0.30537 0.0
C502 C 0.53706 0.59023 0.43076 0.0
C503 C 0.51747 0.57278 0.45595 0.0
C504 C 0.52275 0.60093 0.40157 0.0
C505 C 0.48853 0.59441 0.39685 0.0
C506 C 0.46893 0.57692 0.42204 0.0
C507 C 0.48324 0.56622 0.45128 0.0
H508 H 0.09502 0.43612 0.6956 0.0
H509 H 0.07968 0.54526 0.69626 0.0
H510 H 0.08069 0.43194 0.75457 0.0
H511 H 0.06555 0.54122 0.75564 0.0
H512 H 0.08057 0.52484 0.87033 0.0
H513 H 0.09106 0.53268 0.81023 0.0
H514 H 0.03307 0.43353 0.79107 0.0
H515 H 0.02297 0.4258 0.85055 0.0
C516 C 0.08768 0.45896 0.70806 0.0
C517 C 0.08755 0.49072 0.69098 0.0
C518 C 0.07975 0.4567 0.74202 0.0
C519 C 0.07167 0.4862 0.75977 0.0
C520 C 0.07184 0.51808 0.74275 0.0
C521 C 0.07975 0.52032 0.70873 0.0
C522 C 0.06981 0.50507 0.85311 0.0
C523 C 0.0515 0.47445 0.86512 0.0
C524 C 0.07576 0.50949 0.81877 0.0
C525 C 0.06335 0.4834 0.79593 0.0
C526 C 0.04373 0.45366 0.80801 0.0
C527 C 0.03792 0.44924 0.84212 0.0
H528 H 0.70195 0.93556 0.91327 0.0
H529 H 0.72709 0.9024 0.01171 0.0
H530 H 0.65376 0.95938 0.93645 0.0
H531 H 0.67857 0.92529 0.03473 0.0
H532 H 0.60945 1.00252 0.07146 0.0
H533 H 0.65708 0.97852 0.04763 0.0
H534 H 0.60021 0.94478 0.96054 0.0
H535 H 0.55277 0.96969 0.98408 0.0
C536 C 0.6971 0.93309 0.93983 0.0
C537 C 0.7186 0.91708 0.96057 0.0
C538 C 0.66928 0.94662 0.95315 0.0
C539 C 0.66208 0.94447 0.9876 0.0
C540 C 0.68346 0.92809 0.00822 0.0
C541 C 0.71128 0.91468 0.99493 0.0
C542 C 0.60703 0.98993 0.04725 0.0
C543 C 0.57713 0.98804 0.02979 0.0
C544 C 0.63439 0.97593 0.0336 0.0
C545 C 0.63271 0.95948 1.00208 0.0
C546 C 0.60274 0.95759 0.98463 0.0
C547 C 0.57537 0.97169 0.99827 0.0
H548 H 0.68093 0.99056 0.524 0.0
H549 H 0.70887 0.10229 0.51937 0.0
H550 H 0.73861 0.98142 0.52996 0.0
H551 H 0.7667 0.09304 0.52483 0.0
H552 H 0.86517 0.06413 0.56438 0.0
H553 H 0.80678 0.07277 0.56407 0.0
H554 H 0.78762 0.98713 0.49432 0.0
H555 H 0.84548 0.97792 0.49542 0.0
C556 C 0.69936 0.01319 0.5243 0.0
C557 C 0.6903 0.04714 0.52104 0.0
C558 C 0.73245 1.00793 0.52757 0.0
C559 C 0.75727 0.03649 0.52771 0.0
C560 C 0.74816 0.07051 0.52515 0.0
C561 C 0.71503 0.07578 0.52181 0.0
C562 C 0.84838 0.04692 0.54933 0.0
C563 C 0.86001 0.02043 0.52983 0.0
C564 C 0.81502 0.05208 0.54889 0.0
C565 C 0.79256 0.03066 0.52914 0.0
C566 C 0.80417 1.00386 0.51007 0.0
C567 C 0.83745 0.99884 0.51039 0.0
H568 H 0.25846 0.66953 0.01687 0.0
H569 H 0.24031 0.65251 0.12227 0.0
H570 H 0.2064 0.6342 1.00435 0.0
H571 H 0.18922 0.61627 0.10984 0.0
H572 H 0.08464 0.58039 0.08087 0.0
H573 H 0.13522 0.61851 0.09101 0.0
H574 H 0.18014 0.5755 1.00447 0.0
H575 H 0.12879 0.53823 0.99355 0.0
C576 C 0.24341 0.65821 0.03735 0.0
C577 C 0.2535 0.66398 0.07056 0.0
C578 C 0.21366 0.63772 0.03018 0.0
C579 C 0.19347 0.62231 0.05606 0.0
C580 C 0.20369 0.6282 0.08924 0.0
C581 C 0.23317 0.6489 0.0964 0.0
C582 C 0.10528 0.57904 0.06395 0.0
C583 C 0.10272 0.55614 0.03647 0.0
C584 C 0.13443 0.60083 0.06988 0.0
C585 C 0.16199 0.60001 0.04873 0.0
C586 C 0.15934 0.57722 0.02106 0.0
C587 C 0.12997 0.55564 0.01492 0.0
H588 H 0.24734 0.57693 0.57753 0.0
H589 H 0.22904 0.46435 0.58564 0.0
H590 H 0.30662 0.57321 0.57667 0.0
H591 H 0.28825 0.46071 0.58459 0.0
H592 H 0.39531 0.47257 0.62044 0.0
H593 H 0.33644 0.47725 0.62116 0.0
H594 H 0.34911 0.55095 0.53975 0.0
H595 H 0.40799 0.54592 0.53852 0.0
C596 C 0.25595 0.5514 0.57905 0.0
C597 C 0.23347 0.52094 0.58169 0.0
C598 C 0.28989 0.54928 0.57839 0.0
C599 C 0.30209 0.51668 0.58064 0.0
C600 C 0.2796 0.48623 0.58321 0.0
C601 C 0.24568 0.48832 0.58361 0.0
C602 C 0.38565 0.48956 0.60246 0.0
C603 C 0.4066 0.50873 0.57933 0.0
C604 C 0.35184 0.49225 0.60292 0.0
C605 C 0.33812 0.51436 0.58044 0.0
C606 C 0.35902 0.53396 0.55763 0.0
C607 C 0.39284 0.53111 0.55701 0.0
H608 H 0.95619 0.754 0.92427 0.0
H609 H 0.85993 0.69442 0.92748 0.0
H610 H 0.98115 0.70187 0.94137 0.0
H611 H 0.88484 0.64275 0.94547 0.0
H612 H 0.94245 0.58043 0.02309 0.0
H613 H 0.91789 0.63058 1.00107 0.0
H614 H 0.9855 0.63605 0.91752 0.0
H615 H 0.0096 0.58497 0.93904 0.0
C616 C 0.94038 0.72979 0.92848 0.0
C617 C 0.90604 0.72842 0.92448 0.0
C618 C 0.9547 0.69993 0.93815 0.0
C619 C 0.93494 0.66826 0.94484 0.0
C620 C 0.90067 0.66682 0.94061 0.0
C621 C 0.88644 0.6964 0.93017 0.0
C622 C 0.95206 0.5922 0.99995 0.0
C623 C 0.97801 0.57866 0.98283 0.0
C624 C 0.93787 0.62084 0.98729 0.0
C625 C 0.94976 0.63724 0.95758 0.0
C626 C 0.9759 0.62398 0.94052 0.0
C627 C 0.98959 0.59469 0.95278 0.0
H628 H 0.42336 0.78616 0.21506 0.0
H629 H 0.3932 0.7563 0.11507 0.0
H630 H 0.43926 0.84594 0.19652 0.0
H631 H 0.41051 0.81572 0.0959 0.0
H632 H 0.42246 0.93179 0.07453 0.0
H633 H 0.40074 0.87436 0.0956 0.0
H634 H 0.48052 0.87916 0.16639 0.0
H635 H 0.5011 0.93734 0.14638 0.0
C636 C 0.42012 0.79247 0.18905 0.0
C637 C 0.40688 0.76664 0.16653 0.0
C638 C 0.42952 0.8267 0.1783 0.0
C639 C 0.42656 0.83584 0.14457 0.0
C640 C 0.41272 0.80998 0.12217 0.0
C641 C 0.40277 0.77582 0.1331 0.0
C642 C 0.43521 0.9206 0.09475 0.0
C643 C 0.4635 0.93908 0.10881 0.0
C644 C 0.42288 0.88751 0.1067 0.0
C645 C 0.43884 0.8718 0.13269 0.0
C646 C 0.4671 0.89052 0.14682 0.0
C647 C 0.47911 0.92386 0.1352 0.0
H648 H 0.96991 0.30216 0.63009 0.0
H649 H 0.07389 0.29442 0.64159 0.0
H650 H 0.9596 0.23863 0.62402 0.0
H651 H 0.06375 0.23136 0.63467 0.0
H652 H 0.03571 0.1172 0.65002 0.0
H653 H 0.03986 0.17949 0.66202 0.0
H654 H 0.96864 0.19223 0.58517 0.0
H655 H 0.96375 0.12934 0.57382 0.0
C656 C 0.99057 0.28694 0.63134 0.0
C657 C 0.02273 0.30343 0.63639 0.0
C658 C 0.98466 0.25052 0.62766 0.0
C659 C 0.01079 0.22976 0.62895 0.0
C660 C 0.0429 0.24635 0.63417 0.0
C661 C 0.04878 0.28264 0.63793 0.0
C662 C 0.02058 0.13317 0.63594 0.0
C663 C 0.99959 0.11835 0.61076 0.0
C664 C 0.02316 0.169 0.64266 0.0
C665 C 1.00505 0.19108 0.62418 0.0
C666 C 0.98285 0.17601 0.60002 0.0
C667 C 0.98008 0.13997 0.59344 0.0
H668 H 0.63137 0.28791 0.45144 0.0
H669 H 0.53163 0.28595 0.41572 0.0
H670 H 0.62998 0.34789 0.47102 0.0
H671 H 0.5305 0.34595 0.43481 0.0
H672 H 0.52414 0.42928 0.51531 0.0
H673 H 0.52858 0.37258 0.49011 0.0
H674 H 0.62642 0.40938 0.45417 0.0
H675 H 0.62216 0.46653 0.47992 0.0
C676 C 0.60933 0.30042 0.44732 0.0
C677 C 0.58146 0.28197 0.43236 0.0
C678 C 0.60861 0.33485 0.45841 0.0
C679 C 0.57999 0.35152 0.45483 0.0
C680 C 0.5527 0.33359 0.43851 0.0
C681 C 0.55343 0.29924 0.4274 0.0
C682 C 0.54665 0.42543 0.50204 0.0
C683 C 0.57281 0.45251 0.49964 0.0
C684 C 0.54907 0.39293 0.48734 0.0
C685 C 0.57772 0.38655 0.46986 0.0
C686 C 0.60407 0.41348 0.4676 0.0
C687 C 0.60159 0.4462 0.48226 0.0
loop_
_geom_bond_atom_site_label_1
_geom_bond_atom_site_label_2
_geom_bond_distance
_geom_bond_site_symmetry_2
_ccdc_geom_bond_type
O0 Cd1 2.300 . S
O0 C7 1.275 . S
Cd1 O0 2.300 . S
Cd1 O9 2.381 . S
Cd1 O10 2.378 . S
O2 Cd3 2.385 . S
O2 C7 1.255 . S
Cd3 O2 2.385 . S
Cd3 O4 2.317 . S
O4 Cd3 2.317 . S
O4 C5 1.232 . S
C5 O4 1.232 . S
C5 O6 1.218 . S
O6 C5 1.218 . S
C7 O0 1.275 . S
C7 O2 1.255 . S
C8 O9 1.258 . S
C8 O10 1.256 . S
O9 Cd1 2.381 . S
O9 C8 1.258 . S
O10 Cd1 2.378 . S
O10 C8 1.256 . S
O11 Cd12 2.300 . S
O11 C18 1.275 . S
Cd12 O11 2.300 . S
Cd12 O20 2.381 . S
Cd12 O21 2.378 . S
O13 Cd14 2.385 . S
O13 C18 1.255 . S
Cd14 O13 2.385 . S
Cd14 O15 2.317 . S
O15 Cd14 2.317 . S
O15 C16 1.232 . S
C16 O15 1.232 . S
C16 O17 1.218 . S
O17 C16 1.218 . S
C18 O11 1.275 . S
C18 O13 1.255 . S
C19 O20 1.258 . S
C19 O21 1.256 . S
O20 Cd12 2.381 . S
O20 C19 1.258 . S
O21 Cd12 2.378 . S
O21 C19 1.256 . S
O22 Cd23 2.300 . S
O22 C29 1.275 . S
Cd23 O22 2.300 . S
Cd23 O31 2.381 . S
Cd23 O32 2.378 . S
O24 Cd25 2.385 . S
O24 C29 1.255 . S
Cd25 O24 2.385 . S
Cd25 O26 2.317 . S
O26 Cd25 2.317 . S
O26 C27 1.232 . S
C27 O26 1.232 . S
C27 O28 1.218 . S
O28 C27 1.218 . S
C29 O22 1.275 . S
C29 O24 1.255 . S
C30 O31 1.258 . S
C30 O32 1.256 . S
O31 Cd23 2.381 . S
O31 C30 1.258 . S
O32 Cd23 2.378 . S
O32 C30 1.256 . S
O33 Cd34 2.300 . S
O33 C40 1.275 . S
Cd34 O33 2.300 . S
Cd34 O42 2.381 . S
Cd34 O43 2.378 . S
O35 Cd36 2.385 . S
O35 C40 1.255 . S
Cd36 O35 2.385 . S
Cd36 O37 2.317 . S
O37 Cd36 2.317 . S
O37 C38 1.232 . S
C38 O37 1.232 . S
C38 O39 1.218 . S
O39 C38 1.218 . S
C40 O33 1.275 . S
C40 O35 1.255 . S
C41 O42 1.258 . S
C41 O43 1.256 . S
O42 Cd34 2.381 . S
O42 C41 1.258 . S
O43 Cd34 2.378 . S
O43 C41 1.256 . S
O44 Cd45 2.300 . S
O44 C51 1.275 . S
Cd45 O44 2.300 . S
Cd45 O53 2.381 . S
Cd45 O54 2.378 . S
O46 Cd47 2.385 . S
O46 C51 1.255 . S
Cd47 O46 2.385 . S
Cd47 O48 2.317 . S
O48 Cd47 2.317 . S
O48 C49 1.232 . S
C49 O48 1.232 . S
C49 O50 1.218 . S
O50 C49 1.218 . S
C51 O44 1.275 . S
C51 O46 1.255 . S
C52 O53 1.258 . S
C52 O54 1.256 . S
O53 Cd45 2.381 . S
O53 C52 1.258 . S
O54 Cd45 2.378 . S
O54 C52 1.256 . S
O55 Cd56 2.300 . S
O55 C62 1.275 . S
Cd56 O55 2.300 . S
Cd56 O64 2.381 . S
Cd56 O65 2.378 . S
O57 Cd58 2.385 . S
O57 C62 1.255 . S
Cd58 O57 2.385 . S
Cd58 O59 2.317 . S
O59 Cd58 2.317 . S
O59 C60 1.232 . S
C60 O59 1.232 . S
C60 O61 1.218 . S
O61 C60 1.218 . S
C62 O55 1.275 . S
C62 O57 1.255 . S
C63 O64 1.258 . S
C63 O65 1.256 . S
O64 Cd56 2.381 . S
O64 C63 1.258 . S
O65 Cd56 2.378 . S
O65 C63 1.256 . S
O66 Cd67 2.300 . S
O66 C73 1.275 . S
Cd67 O66 2.300 . S
Cd67 O75 2.381 . S
Cd67 O76 2.378 . S
O68 Cd69 2.385 . S
O68 C73 1.255 . S
Cd69 O68 2.385 . S
Cd69 O70 2.317 . S
O70 Cd69 2.317 . S
O70 C71 1.232 . S
C71 O70 1.232 . S
C71 O72 1.218 . S
O72 C71 1.218 . S
C73 O66 1.275 . S
C73 O68 1.255 . S
C74 O75 1.258 . S
C74 O76 1.256 . S
O75 Cd67 2.381 . S
O75 C74 1.258 . S
O76 Cd67 2.378 . S
O76 C74 1.256 . S
O77 Cd78 2.300 . S
O77 C84 1.275 . S
Cd78 O77 2.300 . S
Cd78 O86 2.381 . S
Cd78 O87 2.378 . S
O79 Cd80 2.385 . S
O79 C84 1.255 . S
Cd80 O79 2.385 . S
Cd80 O81 2.317 . S
O81 Cd80 2.317 . S
O81 C82 1.232 . S
C82 O81 1.232 . S
C82 O83 1.218 . S
O83 C82 1.218 . S
C84 O77 1.275 . S
C84 O79 1.255 . S
C85 O86 1.258 . S
C85 O87 1.256 . S
O86 Cd78 2.381 . S
O86 C85 1.258 . S
O87 Cd78 2.378 . S
O87 C85 1.256 . S
Co88 N93 2.057 . S
Co88 O105 2.021 . S
Co88 O108 2.062 . S
Co88 O112 2.117 1_545 S
Co88 O113 2.015 1_545 S
C89 O109 1.259 1_655 S
C89 O112 1.258 . S
Co90 N99 2.057 . S
Co90 O106 2.117 1_565 S
Co90 O107 2.020 1_565 S
Co90 O109 2.021 . S
Co90 O114 2.062 . S
C91 N93 1.316 . S
C91 N94 1.347 . S
C91 H96 0.931 . S
C92 N93 1.375 1_565 S
C92 C95 1.350 1_565 S
C92 H97 0.930 . S
N93 Co88 2.057 . S
N93 C91 1.316 . S
N93 C92 1.375 1_545 S
N94 C91 1.347 . S
N94 C95 1.373 . S
C95 C92 1.350 1_545 S
C95 N94 1.373 . S
C95 H116 0.931 1_545 S
H96 C91 0.931 . S
H97 C92 0.930 . S
C98 O105 1.259 1_455 S
C98 O106 1.258 . S
N99 Co90 2.057 . S
N99 C100 1.316 . S
N99 C101 1.375 1_565 S
C100 N99 1.316 . S
C100 N102 1.347 . S
C100 H111 0.931 . S
C101 N99 1.375 1_545 S
C101 C103 1.350 . S
C101 H110 0.930 . S
N102 C100 1.347 . S
N102 C103 1.373 1_565 S
C103 C101 1.350 . S
C103 N102 1.373 1_545 S
C103 H117 0.931 . S
C104 O107 1.256 . S
C104 O108 1.255 1_455 S
O105 Co88 2.021 . S
O105 C98 1.259 1_655 S
O106 Co90 2.117 1_545 S
O106 C98 1.258 . S
O107 Co90 2.020 1_545 S
O107 C104 1.256 . S
O108 Co88 2.062 . S
O108 C104 1.255 1_655 S
O109 C89 1.259 1_455 S
O109 Co90 2.021 . S
H110 C101 0.930 . S
H111 C100 0.931 . S
O112 Co88 2.117 1_565 S
O112 C89 1.258 . S
O113 Co88 2.015 1_565 S
O113 C115 1.263 . S
O114 Co90 2.062 . S
O114 C115 1.255 1_455 S
C115 O113 1.263 . S
C115 O114 1.255 1_655 S
H116 C95 0.931 1_565 S
H117 C103 0.931 . S
Co118 N123 2.057 1_544 S
Co118 O135 2.021 . S
Co118 O138 2.062 . S
Co118 O142 2.117 1_545 S
Co118 O143 2.020 . S
C119 O139 1.259 . S
C119 O142 1.258 . S
Co120 N129 2.057 . S
Co120 O136 2.117 . S
Co120 O137 2.020 . S
Co120 O139 2.021 1_545 S
Co120 O144 2.062 . S
C121 N123 1.316 1_545 S
C121 N124 1.347 1_545 S
C121 H126 0.931 . S
C122 N123 1.375 . S
C122 C125 1.350 . S
C122 H127 0.930 . S
N123 Co118 2.057 1_566 S
N123 C121 1.316 1_565 S
N123 C122 1.375 . S
N124 C121 1.347 1_565 S
N124 C125 1.373 . S
C125 C122 1.350 . S
C125 N124 1.373 . S
C125 H146 0.931 . S
H126 C121 0.931 . S
H127 C122 0.930 . S
C128 O135 1.259 . S
C128 O136 1.258 . S
N129 Co120 2.057 . S
N129 C130 1.316 . S
N129 C131 1.375 . S
C130 N129 1.316 . S
C130 N132 1.347 . S
C130 H141 0.931 . S
C131 N129 1.375 . S
C131 C133 1.350 . S
C131 H140 0.930 . S
N132 C130 1.347 . S
N132 C133 1.373 . S
C133 C131 1.350 . S
C133 N132 1.373 . S
C133 H147 0.931 . S
C134 O137 1.256 . S
C134 O138 1.255 . S
O135 Co118 2.021 . S
O135 C128 1.259 . S
O136 Co120 2.117 . S
O136 C128 1.258 . S
O137 Co120 2.020 . S
O137 C134 1.256 . S
O138 Co118 2.062 . S
O138 C134 1.255 . S
O139 C119 1.259 . S
O139 Co120 2.021 1_565 S
H140 C131 0.930 . S
H141 C130 0.931 . S
O142 Co118 2.117 1_565 S
O142 C119 1.258 . S
O143 Co118 2.020 . S
O143 C145 1.256 . S
O144 Co120 2.062 . S
O144 C145 1.255 . S
C145 O143 1.256 . S
C145 O144 1.255 . S
H146 C125 0.931 . S
H147 C133 0.931 . S
Co148 N153 2.057 . S
Co148 O165 2.021 . S
Co148 O168 2.062 . S
Co148 O172 2.117 . S
Co148 O173 2.020 . S
C149 O169 1.259 . S
C149 O172 1.258 . S
Co150 N159 2.057 . S
Co150 O166 2.117 . S
Co150 O167 2.020 . S
Co150 O169 2.021 . S
Co150 O174 2.062 . S
C151 N153 1.316 . S
C151 N154 1.347 . S
C151 H156 0.931 . S
C152 N153 1.375 . S
C152 C155 1.350 . S
C152 H157 0.930 . S
N153 Co148 2.057 . S
N153 C151 1.316 . S
N153 C152 1.375 . S
N154 C151 1.347 . S
N154 C155 1.373 . S
C155 C152 1.350 . S
C155 N154 1.373 . S
C155 H176 0.931 . S
H156 C151 0.931 . S
H157 C152 0.930 . S
C158 O165 1.259 . S
C158 O166 1.258 . S
N159 Co150 2.057 . S
N159 C160 1.316 . S
N159 C161 1.375 . S
C160 N159 1.316 . S
C160 N162 1.347 . S
C160 H171 0.931 . S
C161 N159 1.375 . S
C161 C163 1.350 . S
C161 H170 0.930 . S
N162 C160 1.347 . S
N162 C163 1.373 . S
C163 C161 1.350 . S
C163 N162 1.373 . S
C163 H177 0.931 . S
C164 O167 1.256 . S
C164 O168 1.255 . S
O165 Co148 2.021 . S
O165 C158 1.259 . S
O166 Co150 2.117 . S
O166 C158 1.258 . S
O167 Co150 2.020 . S
O167 C164 1.256 . S
O168 Co148 2.062 . S
O168 C164 1.255 . S
O169 C149 1.259 . S
O169 Co150 2.021 . S
H170 C161 0.930 . S
H171 C160 0.931 . S
O172 Co148 2.117 . S
O172 C149 1.258 . S
O173 Co148 2.020 . S
O173 C175 1.256 . S
O174 Co150 2.062 . S
O174 C175 1.255 . S
C175 O173 1.256 . S
C175 O174 1.255 . S
H176 C155 0.931 . S
H177 C163 0.931 . S
Co178 N183 2.057 . S
Co178 O195 2.021 1_556 S
Co178 O198 2.062 1_556 S
Co178 O202 2.117 1_455 S
Co178 O203 2.020 . S
C179 O199 1.259 . S
C179 O202 1.258 1_554 S
Co180 N189 2.057 . S
Co180 O196 2.117 . S
Co180 O197 2.020 . S
Co180 O199 2.021 1_455 S
Co180 O204 2.062 . S
C181 N183 1.316 . S
C181 N184 1.347 . S
C181 H186 0.931 . S
C182 N183 1.375 . S
C182 C185 1.350 . S
C182 H187 0.930 1_455 S
N183 Co178 2.057 . S
N183 C181 1.316 . S
N183 C182 1.375 . S
N184 C181 1.347 . S
N184 C185 1.373 . S
C185 C182 1.350 . S
C185 N184 1.373 . S
C185 H206 0.931 . S
H186 C181 0.931 . S
H187 C182 0.930 1_655 S
C188 O195 1.259 . S
C188 O196 1.258 . S
N189 Co180 2.057 . S
N189 C190 1.316 1_455 S
N189 C191 1.375 . S
C190 N189 1.316 1_655 S
C190 N192 1.347 . S
C190 H201 0.931 . S
C191 N189 1.375 . S
C191 C193 1.350 . S
C191 H200 0.930 . S
N192 C190 1.347 . S
N192 C193 1.373 1_655 S
C193 C191 1.350 . S
C193 N192 1.373 1_455 S
C193 H207 0.931 . S
C194 O197 1.256 . S
C194 O198 1.255 . S
O195 Co178 2.021 1_554 S
O195 C188 1.259 . S
O196 Co180 2.117 . S
O196 C188 1.258 . S
O197 Co180 2.020 . S
O197 C194 1.256 . S
O198 Co178 2.062 1_554 S
O198 C194 1.255 . S
O199 C179 1.259 . S
O199 Co180 2.021 1_655 S
H200 C191 0.930 . S
H201 C190 0.931 . S
O202 Co178 2.117 1_655 S
O202 C179 1.258 1_556 S
O203 Co178 2.020 . S
O203 C205 1.256 1_556 S
O204 Co180 2.062 . S
O204 C205 1.255 . S
C205 O203 1.256 1_554 S
C205 O204 1.255 . S
H206 C185 0.931 . S
H207 C193 0.931 . S
H208 C216 0.950 . S
H209 C221 0.950 . S
H210 C218 0.950 . S
H211 C220 0.950 . S
H212 C222 0.950 . S
H213 C224 0.950 . S
H214 C226 0.950 . S
H215 C227 0.950 . S
C216 H208 0.950 . S
C216 C217 1.386 . S
C216 C218 1.391 . S
C217 C216 1.386 . S
C217 C221 1.393 . S
C218 H210 0.950 . S
C218 C216 1.391 . S
C218 C219 1.400 . S
C219 C218 1.400 . S
C219 C220 1.398 . S
C219 C225 1.491 . S
C220 H211 0.950 . S
C220 C219 1.398 . S
C220 C221 1.391 . S
C221 H209 0.950 . S
C221 C217 1.393 . S
C221 C220 1.391 . S
C222 H212 0.950 . S
C222 C223 1.386 . S
C222 C224 1.391 . S
C223 C222 1.386 . S
C223 C227 1.393 . S
C224 H213 0.950 . S
C224 C222 1.391 . S
C224 C225 1.400 . S
C225 C219 1.491 . S
C225 C224 1.400 . S
C225 C226 1.398 . S
C226 H214 0.950 . S
C226 C225 1.398 . S
C226 C227 1.391 . S
C227 H215 0.950 . S
C227 C223 1.393 . S
C227 C226 1.391 . S
H228 C236 0.950 . S
H229 C241 0.950 . S
H230 C238 0.950 . S
H231 C240 0.950 . S
H232 C242 0.950 . S
H233 C244 0.950 1_545 S
H234 C246 0.950 . S
H235 C247 0.950 . S
C236 H228 0.950 . S
C236 C237 1.386 . S
C236 C238 1.391 . S
C237 C236 1.386 . S
C237 C241 1.393 . S
C238 H230 0.950 . S
C238 C236 1.391 . S
C238 C239 1.400 . S
C239 C238 1.400 . S
C239 C240 1.398 . S
C239 C245 1.491 . S
C240 H231 0.950 . S
C240 C239 1.398 . S
C240 C241 1.391 . S
C241 H229 0.950 . S
C241 C237 1.393 . S
C241 C240 1.391 . S
C242 H232 0.950 . S
C242 C243 1.386 1_545 S
C242 C244 1.391 1_545 S
C243 C242 1.386 1_565 S
C243 C247 1.393 . S
C244 H233 0.950 1_565 S
C244 C242 1.391 1_565 S
C244 C245 1.400 . S
C245 C239 1.491 . S
C245 C244 1.400 . S
C245 C246 1.398 . S
C246 H234 0.950 . S
C246 C245 1.398 . S
C246 C247 1.391 . S
C247 H235 0.950 . S
C247 C243 1.393 . S
C247 C246 1.391 . S
H248 C256 0.950 . S
H249 C261 0.950 . S
H250 C258 0.950 . S
H251 C260 0.950 . S
H252 C262 0.950 . S
H253 C264 0.950 . S
H254 C266 0.950 . S
H255 C267 0.950 . S
C256 H248 0.950 . S
C256 C257 1.386 . S
C256 C258 1.391 . S
C257 C256 1.386 . S
C257 C261 1.393 . S
C258 H250 0.950 . S
C258 C256 1.391 . S
C258 C259 1.400 . S
C259 C258 1.400 . S
C259 C260 1.398 . S
C259 C265 1.491 . S
C260 H251 0.950 . S
C260 C259 1.398 . S
C260 C261 1.391 . S
C261 H249 0.950 . S
C261 C257 1.393 . S
C261 C260 1.391 . S
C262 H252 0.950 . S
C262 C263 1.386 . S
C262 C264 1.391 . S
C263 C262 1.386 . S
C263 C267 1.393 . S
C264 H253 0.950 . S
C264 C262 1.391 . S
C264 C265 1.400 . S
C265 C259 1.491 . S
C265 C264 1.400 . S
C265 C266 1.398 . S
C266 H254 0.950 . S
C266 C265 1.398 . S
C266 C267 1.391 . S
C267 H255 0.950 . S
C267 C263 1.393 . S
C267 C266 1.391 . S
H268 C276 0.961 . S
H269 C281 0.950 . S
H270 C278 0.935 1_455 S
H271 C280 0.950 . S
H272 C282 0.950 . S
H273 C284 0.950 . S
H274 C286 0.950 1_455 S
H275 C287 0.950 1_455 S
C276 H268 0.961 . S
C276 C277 1.375 1_455 S
C276 C278 1.393 1_455 S
C277 C276 1.375 1_655 S
C277 C281 1.393 . S
C278 H270 0.935 1_655 S
C278 C276 1.393 1_655 S
C278 C279 1.415 . S
C279 C278 1.415 . S
C279 C280 1.398 . S
C279 C285 1.491 . S
C280 H271 0.950 . S
C280 C279 1.398 . S
C280 C281 1.391 . S
C281 H269 0.950 . S
C281 C277 1.393 . S
C281 C280 1.391 . S
C282 H272 0.950 . S
C282 C283 1.386 . S
C282 C284 1.391 . S
C283 C282 1.386 . S
C283 C287 1.393 . S
C284 H273 0.950 . S
C284 C282 1.391 . S
C284 C285 1.400 . S
C285 C279 1.491 . S
C285 C284 1.400 . S
C285 C286 1.398 . S
C286 H274 0.950 1_655 S
C286 C285 1.398 . S
C286 C287 1.391 . S
C287 H275 0.950 1_655 S
C287 C283 1.393 . S
C287 C286 1.391 . S
H288 C296 0.950 . S
H289 C301 0.950 . S
H290 C298 0.950 . S
H291 C300 0.950 . S
H292 C302 0.950 . S
H293 C304 0.950 . S
H294 C306 0.950 . S
H295 C307 0.950 . S
C296 H288 0.950 . S
C296 C297 1.386 . S
C296 C298 1.391 . S
C297 C296 1.386 . S
C297 C301 1.393 . S
C298 H290 0.950 . S
C298 C296 1.391 . S
C298 C299 1.400 . S
C299 C298 1.400 . S
C299 C300 1.398 . S
C299 C305 1.491 . S
C300 H291 0.950 . S
C300 C299 1.398 . S
C300 C301 1.391 . S
C301 H289 0.950 . S
C301 C297 1.393 . S
C301 C300 1.391 . S
C302 H292 0.950 . S
C302 C303 1.386 . S
C302 C304 1.391 . S
C303 C302 1.386 . S
C303 C307 1.393 . S
C304 H293 0.950 . S
C304 C302 1.391 . S
C304 C305 1.400 . S
C305 C299 1.491 . S
C305 C304 1.400 . S
C305 C306 1.398 . S
C306 H294 0.950 . S
C306 C305 1.398 . S
C306 C307 1.391 . S
C307 H295 0.950 . S
C307 C303 1.393 . S
C307 C306 1.391 . S
H308 C316 0.950 . S
H309 C321 0.950 . S
H310 C318 0.950 . S
H311 C320 0.950 . S
H312 C322 0.950 1_545 S
H313 C324 0.950 . S
H314 C326 0.950 . S
H315 C327 0.950 . S
C316 H308 0.950 . S
C316 C317 1.386 . S
C316 C318 1.391 . S
C317 C316 1.386 . S
C317 C321 1.393 . S
C318 H310 0.950 . S
C318 C316 1.391 . S
C318 C319 1.400 . S
C319 C318 1.400 . S
C319 C320 1.398 . S
C319 C325 1.491 . S
C320 H311 0.950 . S
C320 C319 1.398 . S
C320 C321 1.391 . S
C321 H309 0.950 . S
C321 C317 1.393 . S
C321 C320 1.391 . S
C322 H312 0.950 1_565 S
C322 C323 1.386 . S
C322 C324 1.391 . S
C323 C322 1.386 . S
C323 C327 1.393 . S
C324 H313 0.950 . S
C324 C322 1.391 . S
C324 C325 1.400 . S
C325 C319 1.491 . S
C325 C324 1.400 . S
C325 C326 1.398 . S
C326 H314 0.950 . S
C326 C325 1.398 . S
C326 C327 1.391 . S
C327 H315 0.950 . S
C327 C323 1.393 . S
C327 C326 1.391 . S
H328 C336 0.950 . S
H329 C341 0.950 . S
H330 C338 0.950 . S
H331 C340 0.950 . S
H332 C342 0.950 1_554 S
H333 C344 0.950 . S
H334 C346 0.950 . S
H335 C347 0.950 . S
C336 H328 0.950 . S
C336 C337 1.386 . S
C336 C338 1.391 . S
C337 C336 1.386 . S
C337 C341 1.393 . S
C338 H330 0.950 . S
C338 C336 1.391 . S
C338 C339 1.400 . S
C339 C338 1.400 . S
C339 C340 1.398 . S
C339 C345 1.491 . S
C340 H331 0.950 . S
C340 C339 1.398 . S
C340 C341 1.391 . S
C341 H329 0.950 . S
C341 C337 1.393 . S
C341 C340 1.391 . S
C342 H332 0.950 1_556 S
C342 C343 1.386 . S
C342 C344 1.391 . S
C343 C342 1.386 . S
C343 C347 1.393 . S
C344 H333 0.950 . S
C344 C342 1.391 . S
C344 C345 1.400 . S
C345 C339 1.491 . S
C345 C344 1.400 . S
C345 C346 1.398 . S
C346 H334 0.950 . S
C346 C345 1.398 . S
C346 C347 1.391 . S
C347 H335 0.950 . S
C347 C343 1.393 . S
C347 C346 1.391 . S
H348 C356 0.950 . S
H349 C361 0.950 . S
H350 C358 0.950 . S
H351 C360 0.950 . S
H352 C362 0.950 . S
H353 C364 0.950 . S
H354 C366 0.950 . S
H355 C367 0.950 . S
C356 H348 0.950 . S
C356 C357 1.386 . S
C356 C358 1.391 . S
C357 C356 1.386 . S
C357 C361 1.393 . S
C358 H350 0.950 . S
C358 C356 1.391 . S
C358 C359 1.400 . S
C359 C358 1.400 . S
C359 C360 1.398 . S
C359 C365 1.491 . S
C360 H351 0.950 . S
C360 C359 1.398 . S
C360 C361 1.391 . S
C361 H349 0.950 . S
C361 C357 1.393 . S
C361 C360 1.391 . S
C362 H352 0.950 . S
C362 C363 1.386 . S
C362 C364 1.391 . S
C363 C362 1.386 . S
C363 C367 1.393 . S
C364 H353 0.950 . S
C364 C362 1.391 . S
C364 C365 1.400 . S
C365 C359 1.491 . S
C365 C364 1.400 . S
C365 C366 1.398 . S
C366 H354 0.950 . S
C366 C365 1.398 . S
C366 C367 1.391 . S
C367 H355 0.950 . S
C367 C363 1.393 . S
C367 C366 1.391 . S
H368 C376 0.950 . S
H369 C381 0.950 . S
H370 C378 0.950 . S
H371 C380 0.950 . S
H372 C382 0.950 . S
H373 C384 0.950 . S
H374 C386 0.950 . S
H375 C387 0.950 . S
C376 H368 0.950 . S
C376 C377 1.386 . S
C376 C378 1.391 . S
C377 C376 1.386 . S
C377 C381 1.393 . S
C378 H370 0.950 . S
C378 C376 1.391 . S
C378 C379 1.400 . S
C379 C378 1.400 . S
C379 C380 1.398 . S
C379 C385 1.491 . S
C380 H371 0.950 . S
C380 C379 1.398 . S
C380 C381 1.391 . S
C381 H369 0.950 . S
C381 C377 1.393 . S
C381 C380 1.391 . S
C382 H372 0.950 . S
C382 C383 1.386 . S
C382 C384 1.391 . S
C383 C382 1.386 . S
C383 C387 1.393 . S
C384 H373 0.950 . S
C384 C382 1.391 . S
C384 C385 1.400 . S
C385 C379 1.491 . S
C385 C384 1.400 . S
C385 C386 1.398 . S
C386 H374 0.950 . S
C386 C385 1.398 . S
C386 C387 1.391 . S
C387 H375 0.950 . S
C387 C383 1.393 . S
C387 C386 1.391 . S
H388 C396 0.950 . S
H389 C401 0.950 . S
H390 C398 0.950 . S
H391 C400 0.950 . S
H392 C402 0.950 . S
H393 C404 0.950 . S
H394 C406 0.950 . S
H395 C407 0.950 . S
C396 H388 0.950 . S
C396 C397 1.386 . S
C396 C398 1.391 . S
C397 C396 1.386 . S
C397 C401 1.393 1_556 S
C398 H390 0.950 . S
C398 C396 1.391 . S
C398 C399 1.400 . S
C399 C398 1.400 . S
C399 C400 1.398 1_556 S
C399 C405 1.491 1_556 S
C400 H391 0.950 . S
C400 C399 1.398 1_554 S
C400 C401 1.391 . S
C401 H389 0.950 . S
C401 C397 1.393 1_554 S
C401 C400 1.391 . S
C402 H392 0.950 . S
C402 C403 1.386 . S
C402 C404 1.391 . S
C403 C402 1.386 . S
C403 C407 1.393 1_554 S
C404 H393 0.950 . S
C404 C402 1.391 . S
C404 C405 1.400 . S
C405 C399 1.491 1_554 S
C405 C404 1.400 . S
C405 C406 1.398 1_554 S
C406 H394 0.950 . S
C406 C405 1.398 1_556 S
C406 C407 1.391 . S
C407 H395 0.950 . S
C407 C403 1.393 1_556 S
C407 C406 1.391 . S
H408 C416 0.950 . S
H409 C421 0.950 . S
H410 C418 0.950 . S
H411 C420 0.950 . S
H412 C422 0.950 . S
H413 C424 0.950 . S
H414 C426 0.950 . S
H415 C427 0.950 1_455 S
C416 H408 0.950 . S
C416 C417 1.386 . S
C416 C418 1.391 . S
C417 C416 1.386 . S
C417 C421 1.393 . S
C418 H410 0.950 . S
C418 C416 1.391 . S
C418 C419 1.400 . S
C419 C418 1.400 . S
C419 C420 1.398 . S
C419 C425 1.491 . S
C420 H411 0.950 . S
C420 C419 1.398 . S
C420 C421 1.391 . S
C421 H409 0.950 . S
C421 C417 1.393 . S
C421 C420 1.391 . S
C422 H412 0.950 . S
C422 C423 1.386 . S
C422 C424 1.391 . S
C423 C422 1.386 . S
C423 C427 1.393 . S
C424 H413 0.950 . S
C424 C422 1.391 . S
C424 C425 1.400 . S
C425 C419 1.491 . S
C425 C424 1.400 . S
C425 C426 1.398 . S
C426 H414 0.950 . S
C426 C425 1.398 . S
C426 C427 1.391 . S
C427 H415 0.950 1_655 S
C427 C423 1.393 . S
C427 C426 1.391 . S
H428 C436 0.950 . S
H429 C441 0.950 . S
H430 C438 0.950 . S
H431 C440 0.950 . S
H432 C442 0.950 . S
H433 C444 0.950 . S
H434 C446 0.950 . S
H435 C447 0.950 . S
C436 H428 0.950 . S
C436 C437 1.386 . S
C436 C438 1.391 . S
C437 C436 1.386 . S
C437 C441 1.393 . S
C438 H430 0.950 . S
C438 C436 1.391 . S
C438 C439 1.400 . S
C439 C438 1.400 . S
C439 C440 1.398 . S
C439 C445 1.491 . S
C440 H431 0.950 . S
C440 C439 1.398 . S
C440 C441 1.391 . S
C441 H429 0.950 . S
C441 C437 1.393 . S
C441 C440 1.391 . S
C442 H432 0.950 . S
C442 C443 1.386 . S
C442 C444 1.391 . S
C443 C442 1.386 . S
C443 C447 1.393 . S
C444 H433 0.950 . S
C444 C442 1.391 . S
C444 C445 1.400 . S
C445 C439 1.491 . S
C445 C444 1.400 . S
C445 C446 1.398 . S
C446 H434 0.950 . S
C446 C445 1.398 . S
C446 C447 1.391 . S
C447 H435 0.950 . S
C447 C443 1.393 . S
C447 C446 1.391 . S
H448 C456 0.950 . S
H449 C461 0.950 . S
H450 C458 0.950 . S
H451 C460 0.950 . S
H452 C462 0.950 . S
H453 C464 0.950 . S
H454 C466 0.950 . S
H455 C467 0.950 1_455 S
C456 H448 0.950 . S
C456 C457 1.386 . S
C456 C458 1.391 . S
C457 C456 1.386 . S
C457 C461 1.393 . S
C458 H450 0.950 . S
C458 C456 1.391 . S
C458 C459 1.400 . S
C459 C458 1.400 . S
C459 C460 1.398 . S
C459 C465 1.491 . S
C460 H451 0.950 . S
C460 C459 1.398 . S
C460 C461 1.391 . S
C461 H449 0.950 . S
C461 C457 1.393 . S
C461 C460 1.391 . S
C462 H452 0.950 . S
C462 C463 1.386 . S
C462 C464 1.391 . S
C463 C462 1.386 . S
C463 C467 1.393 . S
C464 H453 0.950 . S
C464 C462 1.391 . S
C464 C465 1.400 . S
C465 C459 1.491 . S
C465 C464 1.400 . S
C465 C466 1.398 . S
C466 H454 0.950 . S
C466 C465 1.398 . S
C466 C467 1.391 . S
C467 H455 0.950 1_655 S
C467 C463 1.393 . S
C467 C466 1.391 . S
H468 C476 0.950 . S
H469 C481 0.950 . S
H470 C478 0.950 . S
H471 C480 0.950 . S
H472 C482 0.950 . S
H473 C484 0.950 . S
H474 C486 0.950 . S
H475 C487 0.950 . S
C476 H468 0.950 . S
C476 C477 1.386 . S
C476 C478 1.391 . S
C477 C476 1.386 . S
C477 C481 1.393 . S
C478 H470 0.950 . S
C478 C476 1.391 . S
C478 C479 1.400 . S
C479 C478 1.400 . S
C479 C480 1.398 . S
C479 C485 1.491 . S
C480 H471 0.950 . S
C480 C479 1.398 . S
C480 C481 1.391 . S
C481 H469 0.950 . S
C481 C477 1.393 . S
C481 C480 1.391 . S
C482 H472 0.950 . S
C482 C483 1.386 . S
C482 C484 1.391 . S
C483 C482 1.386 . S
C483 C487 1.393 . S
C484 H473 0.950 . S
C484 C482 1.391 . S
C484 C485 1.400 . S
C485 C479 1.491 . S
C485 C484 1.400 . S
C485 C486 1.398 . S
C486 H474 0.950 . S
C486 C485 1.398 . S
C486 C487 1.391 . S
C487 H475 0.950 . S
C487 C483 1.393 . S
C487 C486 1.391 . S
H488 C496 0.950 . S
H489 C501 0.950 . S
H490 C498 0.950 . S
H491 C500 0.950 . S
H492 C502 0.950 . S
H493 C504 0.950 . S
H494 C506 0.950 . S
H495 C507 0.950 . S
C496 H488 0.950 . S
C496 C497 1.386 . S
C496 C498 1.391 . S
C497 C496 1.386 . S
C497 C501 1.393 . S
C498 H490 0.950 . S
C498 C496 1.391 . S
C498 C499 1.400 . S
C499 C498 1.400 . S
C499 C500 1.398 . S
C499 C505 1.491 . S
C500 H491 0.950 . S
C500 C499 1.398 . S
C500 C501 1.391 . S
C501 H489 0.950 . S
C501 C497 1.393 . S
C501 C500 1.391 . S
C502 H492 0.950 . S
C502 C503 1.386 . S
C502 C504 1.391 . S
C503 C502 1.386 . S
C503 C507 1.393 . S
C504 H493 0.950 . S
C504 C502 1.391 . S
C504 C505 1.400 . S
C505 C499 1.491 . S
C505 C504 1.400 . S
C505 C506 1.398 . S
C506 H494 0.950 . S
C506 C505 1.398 . S
C506 C507 1.391 . S
C507 H495 0.950 . S
C507 C503 1.393 . S
C507 C506 1.391 . S
H508 C516 0.950 . S
H509 C521 0.950 . S
H510 C518 0.950 . S
H511 C520 0.950 . S
H512 C522 0.950 . S
H513 C524 0.950 . S
H514 C526 0.950 . S
H515 C527 0.950 . S
C516 H508 0.950 . S
C516 C517 1.386 . S
C516 C518 1.391 . S
C517 C516 1.386 . S
C517 C521 1.393 . S
C518 H510 0.950 . S
C518 C516 1.391 . S
C518 C519 1.400 . S
C519 C518 1.400 . S
C519 C520 1.398 . S
C519 C525 1.491 . S
C520 H511 0.950 . S
C520 C519 1.398 . S
C520 C521 1.391 . S
C521 H509 0.950 . S
C521 C517 1.393 . S
C521 C520 1.391 . S
C522 H512 0.950 . S
C522 C523 1.386 . S
C522 C524 1.391 . S
C523 C522 1.386 . S
C523 C527 1.393 . S
C524 H513 0.950 . S
C524 C522 1.391 . S
C524 C525 1.400 . S
C525 C519 1.491 . S
C525 C524 1.400 . S
C525 C526 1.398 . S
C526 H514 0.950 . S
C526 C525 1.398 . S
C526 C527 1.391 . S
C527 H515 0.950 . S
C527 C523 1.393 . S
C527 C526 1.391 . S
H528 C536 0.950 . S
H529 C541 0.950 . S
H530 C538 0.950 . S
H531 C540 0.950 . S
H532 C542 0.950 1_545 S
H533 C544 0.950 . S
H534 C546 0.950 . S
H535 C547 0.950 . S
C536 H528 0.950 . S
C536 C537 1.386 . S
C536 C538 1.391 . S
C537 C536 1.386 . S
C537 C541 1.393 1_556 S
C538 H530 0.950 . S
C538 C536 1.391 . S
C538 C539 1.400 . S
C539 C538 1.400 . S
C539 C540 1.398 1_556 S
C539 C545 1.484 1_556 S
C540 H531 0.950 . S
C540 C539 1.398 1_554 S
C540 C541 1.391 . S
C541 H529 0.950 . S
C541 C537 1.393 1_554 S
C541 C540 1.391 . S
C542 H532 0.950 1_565 S
C542 C543 1.386 . S
C542 C544 1.391 . S
C543 C542 1.386 . S
C543 C547 1.393 1_554 S
C544 H533 0.950 . S
C544 C542 1.391 . S
C544 C545 1.423 . S
C545 C539 1.484 1_554 S
C545 C544 1.423 . S
C545 C546 1.383 1_554 S
C546 H534 0.950 . S
C546 C545 1.383 1_556 S
C546 C547 1.391 . S
C547 H535 0.950 . S
C547 C543 1.393 1_556 S
C547 C546 1.391 . S
H548 C556 0.950 . S
H549 C561 0.950 . S
H550 C558 0.950 . S
H551 C560 0.950 . S
H552 C562 0.950 . S
H553 C564 0.950 . S
H554 C566 0.950 . S
H555 C567 0.950 . S
C556 H548 0.950 . S
C556 C557 1.386 . S
C556 C558 1.391 . S
C557 C556 1.386 . S
C557 C561 1.393 . S
C558 H550 0.950 . S
C558 C556 1.391 . S
C558 C559 1.400 . S
C559 C558 1.400 . S
C559 C560 1.398 . S
C559 C565 1.491 . S
C560 H551 0.950 . S
C560 C559 1.398 . S
C560 C561 1.391 . S
C561 H549 0.950 . S
C561 C557 1.393 . S
C561 C560 1.391 . S
C562 H552 0.950 . S
C562 C563 1.386 . S
C562 C564 1.391 . S
C563 C562 1.386 . S
C563 C567 1.393 . S
C564 H553 0.950 . S
C564 C562 1.391 . S
C564 C565 1.400 . S
C565 C559 1.491 . S
C565 C564 1.400 . S
C565 C566 1.398 . S
C566 H554 0.950 . S
C566 C565 1.398 . S
C566 C567 1.391 . S
C567 H555 0.950 . S
C567 C563 1.393 . S
C567 C566 1.391 . S
H568 C576 0.950 . S
H569 C581 0.950 . S
H570 C578 0.950 . S
H571 C580 0.950 . S
H572 C582 0.950 . S
H573 C584 0.950 . S
H574 C586 0.950 . S
H575 C587 0.950 . S
C576 H568 0.950 . S
C576 C577 1.386 . S
C576 C578 1.391 . S
C577 C576 1.386 . S
C577 C581 1.393 . S
C578 H570 0.950 . S
C578 C576 1.391 . S
C578 C579 1.400 . S
C579 C578 1.400 . S
C579 C580 1.398 . S
C579 C585 1.491 . S
C580 H571 0.950 . S
C580 C579 1.398 . S
C580 C581 1.391 . S
C581 H569 0.950 . S
C581 C577 1.393 . S
C581 C580 1.391 . S
C582 H572 0.950 . S
C582 C583 1.386 . S
C582 C584 1.391 . S
C583 C582 1.386 . S
C583 C587 1.393 . S
C584 H573 0.950 . S
C584 C582 1.391 . S
C584 C585 1.400 . S
C585 C579 1.491 . S
C585 C584 1.400 . S
C585 C586 1.398 . S
C586 H574 0.950 . S
C586 C585 1.398 . S
C586 C587 1.391 . S
C587 H575 0.950 . S
C587 C583 1.393 . S
C587 C586 1.391 . S
H588 C596 0.950 . S
H589 C601 0.950 . S
H590 C598 0.950 . S
H591 C600 0.950 . S
H592 C602 0.950 . S
H593 C604 0.950 . S
H594 C606 0.950 . S
H595 C607 0.950 . S
C596 H588 0.950 . S
C596 C597 1.386 . S
C596 C598 1.391 . S
C597 C596 1.386 . S
C597 C601 1.393 . S
C598 H590 0.950 . S
C598 C596 1.391 . S
C598 C599 1.400 . S
C599 C598 1.400 . S
C599 C600 1.398 . S
C599 C605 1.491 . S
C600 H591 0.950 . S
C600 C599 1.398 . S
C600 C601 1.391 . S
C601 H589 0.950 . S
C601 C597 1.393 . S
C601 C600 1.391 . S
C602 H592 0.950 . S
C602 C603 1.386 . S
C602 C604 1.391 . S
C603 C602 1.386 . S
C603 C607 1.393 . S
C604 H593 0.950 . S
C604 C602 1.391 . S
C604 C605 1.400 . S
C605 C599 1.491 . S
C605 C604 1.400 . S
C605 C606 1.398 . S
C606 H594 0.950 . S
C606 C605 1.398 . S
C606 C607 1.391 . S
C607 H595 0.950 . S
C607 C603 1.393 . S
C607 C606 1.391 . S
H608 C616 0.950 . S
H609 C621 0.950 1_554 S
H610 C618 0.945 1_455 S
H611 C620 0.950 1_554 S
H612 C622 0.950 . S
H613 C624 0.950 . S
H614 C626 0.950 . S
H615 C627 0.950 . S
C616 H608 0.950 . S
C616 C617 1.386 . S
C616 C618 1.391 . S
C617 C616 1.386 . S
C617 C621 1.393 . S
C618 H610 0.945 1_655 S
C618 C616 1.391 . S
C618 C619 1.400 . S
C619 C618 1.400 . S
C619 C620 1.398 . S
C619 C625 1.491 . S
C620 H611 0.950 1_556 S
C620 C619 1.398 . S
C620 C621 1.391 . S
C621 H609 0.950 1_556 S
C621 C617 1.393 . S
C621 C620 1.391 . S
C622 H612 0.950 . S
C622 C623 1.386 1_554 S
C622 C624 1.391 . S
C623 C622 1.386 1_556 S
C623 C627 1.393 1_655 S
C624 H613 0.950 . S
C624 C622 1.391 . S
C624 C625 1.400 1_554 S
C625 C619 1.491 . S
C625 C624 1.400 1_556 S
C625 C626 1.398 1_655 S
C626 H614 0.950 . S
C626 C625 1.398 1_455 S
C626 C627 1.391 . S
C627 H615 0.950 . S
C627 C623 1.393 1_455 S
C627 C626 1.391 . S
H628 C636 0.950 . S
H629 C641 0.950 . S
H630 C638 0.950 . S
H631 C640 0.950 . S
H632 C642 0.950 . S
H633 C644 0.950 . S
H634 C646 0.950 . S
H635 C647 0.950 . S
C636 H628 0.950 . S
C636 C637 1.386 . S
C636 C638 1.391 . S
C637 C636 1.386 . S
C637 C641 1.393 . S
C638 H630 0.950 . S
C638 C636 1.391 . S
C638 C639 1.400 . S
C639 C638 1.400 . S
C639 C640 1.398 . S
C639 C645 1.491 . S
C640 H631 0.950 . S
C640 C639 1.398 . S
C640 C641 1.391 . S
C641 H629 0.950 . S
C641 C637 1.393 . S
C641 C640 1.391 . S
C642 H632 0.950 . S
C642 C643 1.386 . S
C642 C644 1.391 . S
C643 C642 1.386 . S
C643 C647 1.393 . S
C644 H633 0.950 . S
C644 C642 1.391 . S
C644 C645 1.400 . S
C645 C639 1.491 . S
C645 C644 1.400 . S
C645 C646 1.398 . S
C646 H634 0.950 . S
C646 C645 1.398 . S
C646 C647 1.391 . S
C647 H635 0.950 . S
C647 C643 1.393 . S
C647 C646 1.391 . S
H648 C656 0.950 . S
H649 C661 0.950 . S
H650 C658 0.950 . S
H651 C660 0.950 . S
H652 C662 0.950 . S
H653 C664 0.950 . S
H654 C666 0.950 1_655 S
H655 C667 0.950 1_655 S
C656 H648 0.950 . S
C656 C657 1.386 . S
C656 C658 1.391 . S
C657 C656 1.386 . S
C657 C661 1.393 . S
C658 H650 0.950 . S
C658 C656 1.391 . S
C658 C659 1.400 . S
C659 C658 1.400 . S
C659 C660 1.398 . S
C659 C665 1.491 . S
C660 H651 0.950 . S
C660 C659 1.398 . S
C660 C661 1.391 . S
C661 H649 0.950 . S
C661 C657 1.393 . S
C661 C660 1.391 . S
C662 H652 0.950 . S
C662 C663 1.386 . S
C662 C664 1.391 . S
C663 C662 1.386 . S
C663 C667 1.393 . S
C664 H653 0.950 . S
C664 C662 1.391 . S
C664 C665 1.400 . S
C665 C659 1.491 . S
C665 C664 1.400 . S
C665 C666 1.398 . S
C666 H654 0.950 1_455 S
C666 C665 1.398 . S
C666 C667 1.391 . S
C667 H655 0.950 1_455 S
C667 C663 1.393 . S
C667 C666 1.391 . S
H668 C676 0.950 . S
H669 C681 0.950 . S
H670 C678 0.950 . S
H671 C680 0.950 . S
H672 C682 0.950 . S
H673 C684 0.950 . S
H674 C686 0.950 . S
H675 C687 0.950 . S
C676 H668 0.950 . S
C676 C677 1.386 . S
C676 C678 1.391 . S
C677 C676 1.386 . S
C677 C681 1.393 . S
C678 H670 0.950 . S
C678 C676 1.391 . S
C678 C679 1.400 . S
C679 C678 1.400 . S
C679 C680 1.398 . S
C679 C685 1.491 . S
C680 H671 0.950 . S
C680 C679 1.398 . S
C680 C681 1.391 . S
C681 H669 0.950 . S
C681 C677 1.393 . S
C681 C680 1.391 . S
C682 H672 0.950 . S
C682 C683 1.386 . S
C682 C684 1.391 . S
C683 C682 1.386 . S
C683 C687 1.393 . S
C684 H673 0.950 . S
C684 C682 1.391 . S
C684 C685 1.400 . S
C685 C679 1.491 . S
C685 C684 1.400 . S
C685 C686 1.398 . S
C686 H674 0.950 . S
C686 C685 1.398 . S
C686 C687 1.391 . S
C687 H675 0.950 . S
C687 C683 1.393 . S
C687 C686 1.391 . S
C217 C5 2.375 . S
C223 C104 2.497 . S
C237 C18 1.120 . S
C243 N124 1.147 . S
C263 C158 1.763 . S
C257 C30 1.715 . S
C277 C41 1.119 . S
C283 N192 1.072 . S
C303 C145 2.627 . S
C297 C7 2.571 . S
C323 N102 1.324 . S
C317 C16 1.090 . S
C343 C179 2.054 1_556 S
C337 C29 1.929 . S
C363 N154 0.710 . S
C357 C38 0.705 . S
C377 C8 1.929 . S
C383 C194 1.931 . S
C403 C128 1.844 . S
C397 C27 1.515 . S
C417 C40 1.387 . S
C423 C89 1.395 . S
C437 C19 1.035 . S
C443 C175 1.053 . S
C463 C115 2.231 . S
C457 C51 2.146 . S
C477 C62 1.180 . S
C483 N132 1.239 . S
C497 C74 1.822 . S
C503 C149 1.861 . S
C517 C84 1.084 . S
C523 N184 1.141 . S
C537 C49 2.512 . S
C543 C134 2.655 1_565 S
C563 N94 1.076 . S
C557 C63 1.078 . S
C583 C188 1.881 . S
C577 C71 1.566 . S
C603 N162 0.776 . S
C597 C85 0.792 . S
C617 C52 1.865 . S
C623 C205 1.863 1_656 S
C643 C119 1.943 . S
C637 C73 1.815 . S
C663 C98 1.236 . S
C657 C82 1.000 . S
C677 C60 1.268 . S
C683 C164 1.600 . S
