# Generated by pormake.
# Topology anh, (6,3)-cn, num edge types: 1
# Building blocks:
#     Node 0, Type 0, BuildingBlock: CUWYAW_clean_sbu_0, # of connection points: 6
#     Node 1, Type 0, BuildingBlock: CUWYAW_clean_sbu_0, # of connection points: 6
#     Node 2, Type 0, BuildingBlock: CUWYAW_clean_sbu_0, # of connection points: 6
#     Node 3, Type 1, BuildingBlock: OLANEW_clean_sbu_2, # of connection points: 3
#     Node 4, Type 1, BuildingBlock: OLANEW_clean_sbu_2, # of connection points: 3
#     Node 5, Type 1, BuildingBlock: OLANEW_clean_sbu_2, # of connection points: 3
#     Node 6, Type 1, BuildingBlock: OLANEW_clean_sbu_2, # of connection points: 3
#     Node 7, Type 1, BuildingBlock: OLANEW_clean_sbu_2, # of connection points: 3
#     Node 8, Type 1, BuildingBlock: OLANEW_clean_sbu_2, # of connection points: 3
#     Edge 9, Type (0, 1), BuildingBlock: XIVTED_clean_linker_0, # of connection points: 2
#     Edge 10, Type (0, 1), BuildingBlock: XIVTED_clean_linker_0, # of connection points: 2
#     Edge 11, Type (0, 1), BuildingBlock: XIVTED_clean_linker_0, # of connection points: 2
#     Edge 12, Type (0, 1), BuildingBlock: XIVTED_clean_linker_0, # of connection points: 2
#     Edge 13, Type (0, 1), BuildingBlock: XIVTED_clean_linker_0, # of connection points: 2
#     Edge 14, Type (0, 1), BuildingBlock: XIVTED_clean_linker_0, # of connection points: 2
#     Edge 15, Type (0, 1), BuildingBlock: XIVTED_clean_linker_0, # of connection points: 2
#     Edge 16, Type (0, 1), BuildingBlock: XIVTED_clean_linker_0, # of connection points: 2
#     Edge 17, Type (0, 1), BuildingBlock: XIVTED_clean_linker_0, # of connection points: 2
#     Edge 18, Type (0, 1), BuildingBlock: XIVTED_clean_linker_0, # of connection points: 2
#     Edge 19, Type (0, 1), BuildingBlock: XIVTED_clean_linker_0, # of connection points: 2
#     Edge 20, Type (0, 1), BuildingBlock: XIVTED_clean_linker_0, # of connection points: 2
#     Edge 21, Type (0, 1), BuildingBlock: XIVTED_clean_linker_0, # of connection points: 2
#     Edge 22, Type (0, 1), BuildingBlock: XIVTED_clean_linker_0, # of connection points: 2
#     Edge 23, Type (0, 1), BuildingBlock: XIVTED_clean_linker_0, # of connection points: 2
#     Edge 24, Type (0, 1), BuildingBlock: XIVTED_clean_linker_0, # of connection points: 2
#     Edge 25, Type (0, 1), BuildingBlock: XIVTED_clean_linker_0, # of connection points: 2
#     Edge 26, Type (0, 1), BuildingBlock: XIVTED_clean_linker_0, # of connection points: 2
# Relax obj value: 0.228
# Max RMSD: 0.128
# Mean RMSD: 0.113
data_MOF--net-anh--node1-CUWYAW_clean_sbu_0--node2-OLANEW_clean_sbu_2--edge1-XIVTED_clean_linker_0
_symmetry_space_group_name_H-M    P1
_symmetry_Int_Tables_number       1
_symmetry_cell_setting            triclinic
loop_
_symmetry_equiv_pos_as_xyz
'x, y, z'
_cell_length_a     36.929779
_cell_length_b     36.968156
_cell_length_c     49.933892
_cell_angle_alpha  89.980566
_cell_angle_beta   89.051777
_cell_angle_gamma 119.97732
loop_
_atom_site_label
_atom_site_type_symbol
_atom_site_fract_x
_atom_site_fract_y
_atom_site_fract_z
_atom_type_partial_charge
C0 C 0.97608 0.39124 0.16513 0.0
Eu1 Eu 0.02416 0.46689 0.18213 0.0
C2 C 0.93266 0.36817 0.15615 0.0
C3 C 0.90801 0.32566 0.16248 0.0
C4 C 0.86537 0.30443 0.15702 0.0
C5 C 0.84665 0.3255 0.14526 0.0
C6 C 0.87184 0.36776 0.13796 0.0
C7 C 0.91455 0.3889 0.1433 0.0
C8 C 0.04008 0.48935 0.23433 0.0
C9 C 0.96874 0.51395 0.18566 0.0
C10 C 0.11436 0.63354 0.21094 0.0
Eu11 Eu 0.06709 0.55951 0.19173 0.0
C12 C 0.15816 0.66623 0.20673 0.0
C13 C 0.17749 0.67338 0.18128 0.0
C14 C 0.21903 0.70491 0.17751 0.0
C15 C 0.24203 0.72928 0.19919 0.0
C16 C 0.22282 0.72144 0.22473 0.0
C17 C 0.18114 0.69023 0.22843 0.0
C18 C 0.05019 0.53869 0.13995 0.0
C19 C 0.12424 0.51423 0.17981 0.0
O20 O 1.00259 0.42199 0.14967 0.0
O21 O 0.9807 0.40098 0.19048 0.0
O22 O 0.04388 0.45936 0.22366 0.0
O23 O 0.02691 0.5051 0.21736 0.0
O24 O 0.97262 0.48294 0.1755 0.0
O25 O 1.0004 0.54537 0.19778 0.0
O26 O 0.10833 0.59941 0.22294 0.0
O27 O 0.08963 0.62614 0.19068 0.0
O28 O 0.0502 0.57077 0.15048 0.0
O29 O 0.06285 0.52183 0.1564 0.0
O30 O 0.12269 0.54781 0.18767 0.0
O31 O 0.08971 0.47874 0.17486 0.0
H32 H 0.92145 0.30924 0.17251 0.0
H33 H 0.84671 0.27202 0.1632 0.0
H34 H 0.85836 0.38469 0.12868 0.0
H35 H 0.93311 0.42174 0.13811 0.0
H36 H 0.16047 0.65473 0.16431 0.0
H37 H 0.23325 0.71008 0.1577 0.0
H38 H 0.23976 0.74006 0.24173 0.0
H39 H 0.16678 0.68496 0.24821 0.0
C40 C 0.50037 0.1277 0.49067 0.0
Eu41 Eu 0.52691 0.081 0.51168 0.0
C42 C 0.51917 0.17296 0.48726 0.0
C43 C 0.55086 0.2002 0.50432 0.0
C44 C 0.56962 0.24327 0.50063 0.0
C45 C 0.55726 0.25992 0.47966 0.0
C46 C 0.5259 0.23238 0.46233 0.0
C47 C 0.50702 0.18919 0.46612 0.0
C48 C 0.53262 0.06973 0.56484 0.0
C49 C 0.62982 0.13747 0.51441 0.0
C50 C 0.60381 0.99328 0.54549 0.0
Eu51 Eu 0.57674 0.03929 0.52423 0.0
C52 C 0.5896 0.94841 0.54492 0.0
C53 C 0.61893 0.93531 0.54118 0.0
C54 C 0.60568 0.89301 0.53789 0.0
C55 C 0.56279 0.86311 0.53814 0.0
C56 C 0.53351 0.87634 0.54245 0.0
C57 C 0.54681 0.9186 0.54587 0.0
C58 C 0.57146 0.05162 0.47155 0.0
C59 C 0.47449 0.98121 0.51405 0.0
O60 O 0.51837 0.11097 0.47672 0.0
O61 O 0.49154 0.11348 0.51531 0.0
O62 O 0.49948 0.06605 0.5537 0.0
O63 O 0.56209 0.08118 0.54776 0.0
O64 O 0.5944 0.13379 0.50582 0.0
O65 O 0.63042 0.10581 0.52629 0.0
O66 O 0.57974 1.00435 0.5584 0.0
O67 O 0.61786 1.01292 0.52257 0.0
O68 O 0.60455 0.05422 0.48208 0.0
O69 O 0.5424 0.0398 0.48874 0.0
O70 O 0.50916 0.98355 0.52331 0.0
O71 O 0.47426 0.0151 0.50587 0.0
H72 H 0.56101 0.18816 0.52058 0.0
H73 H 0.59315 0.26347 0.51462 0.0
H74 H 0.51604 0.24418 0.44581 0.0
H75 H 0.48305 0.16848 0.45252 0.0
H76 H 0.65208 0.95789 0.54034 0.0
H77 H 0.62906 0.88376 0.53514 0.0
H78 H 0.50026 0.8542 0.54255 0.0
H79 H 0.52359 0.92799 0.54878 0.0
C80 C 0.66262 0.5867 0.82448 0.0
Eu81 Eu 0.58837 0.5615 0.84467 0.0
C82 C 0.68599 0.56436 0.82153 0.0
C83 C 0.67914 0.53282 0.83996 0.0
C84 C 0.69807 0.50872 0.83605 0.0
C85 C 0.7241 0.51545 0.81354 0.0
C86 C 0.73139 0.54745 0.79523 0.0
C87 C 0.71227 0.57162 0.79915 0.0
C88 C 0.56991 0.55679 0.8979 0.0
C89 C 0.54303 0.45931 0.84881 0.0
C90 C 0.42339 0.48225 0.88039 0.0
Eu91 Eu 0.49717 0.5118 0.85815 0.0
C92 C 0.38752 0.48854 0.87766 0.0
C93 C 0.39013 0.52081 0.86145 0.0
C94 C 0.35447 0.5239 0.85702 0.0
C95 C 0.31574 0.49445 0.86853 0.0
C96 C 0.31367 0.46283 0.88525 0.0
C97 C 0.3493 0.45992 0.88976 0.0
C98 C 0.51503 0.51683 0.80519 0.0
C99 C 0.54129 0.61399 0.84587 0.0
O100 O 0.62923 0.57228 0.80993 0.0
O101 O 0.65599 0.59459 0.84905 0.0
O102 O 0.59875 0.58997 0.88572 0.0
O103 O 0.5529 0.52671 0.88176 0.0
O104 O 0.57388 0.49456 0.83879 0.0
O105 O 0.51131 0.45887 0.86177 0.0
O106 O 0.45731 0.51316 0.8904 0.0
O107 O 0.43112 0.46533 0.85972 0.0
O108 O 0.48407 0.48422 0.81646 0.0
O109 O 0.53226 0.54592 0.82173 0.0
O110 O 0.50854 0.57934 0.85569 0.0
O111 O 0.57551 0.61405 0.83765 0.0
H112 H 0.65855 0.52628 0.85722 0.0
H113 H 0.69245 0.4849 0.85081 0.0
H114 H 0.75125 0.55328 0.77767 0.0
H115 H 0.71742 0.59546 0.78453 0.0
H116 H 0.41945 0.54291 0.85174 0.0
H117 H 0.35691 0.54843 0.84395 0.0
H118 H 0.2844 0.44012 0.89473 0.0
H119 H 0.34683 0.43476 0.90224 0.0
O120 O 0.51085 0.09525 0.26909 0.0
Cd121 Cd 0.48496 0.09783 0.22409 0.0
O122 O 0.57095 0.09746 0.26084 0.0
Cd123 Cd 0.55584 0.07828 0.21979 0.0
O124 O 0.51441 0.02242 0.19777 0.0
C125 C 0.51453 0.98969 0.20537 0.0
O126 O 0.54165 0.9932 0.22337 0.0
C127 C 0.5446 0.09793 0.27734 0.0
C128 C 0.54922 0.15249 0.1894 0.0
O129 O 0.53208 0.1129 0.18677 0.0
O130 O 0.53461 0.16635 0.20762 0.0
O131 O 0.61045 0.57795 0.5996 0.0
Cd132 Cd 0.63827 0.60777 0.55456 0.0
O133 O 0.55736 0.51415 0.59333 0.0
Cd134 Cd 0.55217 0.52542 0.55151 0.0
O135 O 0.54158 0.56945 0.52911 0.0
C136 C 0.51186 0.57431 0.53792 0.0
O137 O 0.48758 0.54958 0.5573 0.0
C138 C 0.58215 0.54272 0.60893 0.0
C139 C 0.63949 0.54911 0.52014 0.0
O140 O 0.66745 0.56669 0.53797 0.0
O141 O 0.61241 0.56079 0.51782 0.0
O142 O 0.97156 0.47682 0.93427 0.0
Cd143 Cd 0.96745 0.47516 0.88545 0.0
O144 O 0.96667 0.41555 0.94113 0.0
Cd145 Cd 0.9461 0.39696 0.90023 0.0
O146 O 0.91455 0.4 0.86458 0.0
C147 C 0.87571 0.37513 0.86178 0.0
O148 O 0.85589 0.34423 0.87904 0.0
C149 C 0.97279 0.45039 0.95004 0.0
C150 C 0.04237 0.48409 0.86548 0.0
O151 O 0.03922 0.51626 0.87102 0.0
O152 O 1.00972 0.44804 0.86831 0.0
O153 O 0.10549 0.58977 0.43605 0.0
Cd154 Cd 0.13685 0.62467 0.47955 0.0
O155 O 0.05036 0.53082 0.45027 0.0
Cd156 Cd 0.9904 0.46881 0.45081 0.0
O157 O 0.9323 0.408 0.46169 0.0
C158 C 0.89638 0.40496 0.46407 0.0
O159 O 0.89335 0.43834 0.45947 0.0
C160 C 0.07303 0.5546 0.43095 0.0
C161 C 0.21239 0.70353 0.48165 0.0
O162 O 0.21297 0.66913 0.48187 0.0
O163 O 0.17667 0.70101 0.47923 0.0
O164 O 0.5375 0.99445 0.76858 0.0
Cd165 Cd 0.53112 0.95709 0.81199 0.0
O166 O 0.53157 0.04838 0.78219 0.0
Cd167 Cd 0.52976 0.10853 0.78302 0.0
O168 O 0.5251 0.16515 0.79475 0.0
C169 C 0.55733 0.20145 0.79651 0.0
O170 O 0.59414 0.20577 0.79076 0.0
C171 C 0.53654 0.02788 0.76318 0.0
C172 C 0.5309 0.87966 0.81407 0.0
O173 O 0.49674 0.8806 0.81262 0.0
O174 O 0.5651 0.91485 0.81332 0.0
O175 O 0.5943 0.52294 0.10457 0.0
Cd176 Cd 0.61991 0.51092 0.14814 0.0
O177 O 0.53218 0.51536 0.11495 0.0
Cd178 Cd 0.4708 0.51464 0.1128 0.0
O179 O 0.40803 0.50951 0.1213 0.0
C180 C 0.40422 0.53786 0.13351 0.0
O181 O 0.43829 0.57169 0.14089 0.0
C182 C 0.56091 0.52266 0.09749 0.0
C183 C 0.69829 0.51317 0.15147 0.0
O184 O 0.66468 0.47962 0.14539 0.0
O185 O 0.69557 0.54612 0.15487 0.0
H186 H 0.20325 0.58178 0.18678 0.0
H187 H 0.3253 0.47036 0.12473 0.0
H188 H 0.14058 0.45423 0.15972 0.0
H189 H 0.38695 0.59463 0.15729 0.0
H190 H 0.25745 0.464 0.13649 0.0
H191 H 0.27057 0.58708 0.17559 0.0
C192 C 0.20351 0.55476 0.17862 0.0
C193 C 0.16582 0.51744 0.1743 0.0
C194 C 0.28584 0.49266 0.14106 0.0
C195 C 0.24344 0.52347 0.16114 0.0
C196 C 0.32469 0.49635 0.13428 0.0
C197 C 0.36221 0.5331 0.13997 0.0
C198 C 0.28424 0.526 0.15359 0.0
C199 C 0.3591 0.56563 0.15247 0.0
C200 C 0.24212 0.55785 0.17216 0.0
C201 C 0.16859 0.48365 0.16352 0.0
N202 N 0.32106 0.56133 0.15878 0.0
N203 N 0.20651 0.4875 0.15728 0.0
H204 H 0.63927 0.21204 0.49675 0.0
H205 H 0.88964 0.32964 0.47946 0.0
H206 H 0.71158 0.1549 0.51944 0.0
H207 H 0.81536 0.38839 0.46742 0.0
H208 H 0.82572 0.26494 0.49308 0.0
H209 H 0.70388 0.27618 0.48527 0.0
C210 C 0.66873 0.21293 0.4995 0.0
C211 C 0.66966 0.1777 0.50921 0.0
C212 C 0.82349 0.29205 0.48748 0.0
C213 C 0.74461 0.25175 0.49562 0.0
C214 C 0.86001 0.32903 0.47962 0.0
C215 C 0.85815 0.36479 0.47219 0.0
C216 C 0.78463 0.29057 0.48781 0.0
C217 C 0.81866 0.36188 0.47292 0.0
C218 C 0.70581 0.24976 0.49286 0.0
C219 C 0.70914 0.18118 0.5122 0.0
N220 N 0.78375 0.32564 0.48047 0.0
N221 N 0.74491 0.21735 0.50531 0.0
H222 H 0.6051 0.69187 0.83188 0.0
H223 H 0.46369 0.8003 0.82223 0.0
H224 H 0.47291 0.62587 0.85076 0.0
H225 H 0.59824 0.86708 0.81477 0.0
H226 H 0.46518 0.73555 0.83048 0.0
H227 H 0.60192 0.7552 0.82377 0.0
C228 C 0.57528 0.69057 0.8344 0.0
C229 C 0.5392 0.65311 0.84207 0.0
C230 C 0.49436 0.76435 0.82699 0.0
C231 C 0.53533 0.7264 0.83252 0.0
C232 C 0.49355 0.8014 0.82215 0.0
C233 C 0.53092 0.83946 0.81773 0.0
C234 C 0.5328 0.76509 0.82729 0.0
C235 C 0.5686 0.8387 0.81803 0.0
C236 C 0.57353 0.72698 0.82974 0.0
C237 C 0.5016 0.65388 0.84499 0.0
N238 N 0.56853 0.80231 0.82268 0.0
N239 N 0.50062 0.6898 0.84012 0.0
H240 H 0.95123 0.57705 0.19621 0.0
H241 H 0.71459 0.44873 0.14462 0.0
H242 H 0.89433 0.45122 0.16646 0.0
H243 H 0.7738 0.5778 0.16823 0.0
H244 H 0.77961 0.44873 0.15347 0.0
H245 H 0.88614 0.57735 0.18766 0.0
C246 C 0.92507 0.54937 0.18803 0.0
C247 C 0.9286 0.51407 0.18203 0.0
C248 C 0.7785 0.47713 0.15666 0.0
C249 C 0.85362 0.51429 0.17201 0.0
C250 C 0.74128 0.47718 0.15155 0.0
C251 C 0.73848 0.51336 0.15559 0.0
C252 C 0.81349 0.51348 0.16605 0.0
C253 C 0.77433 0.54918 0.16471 0.0
C254 C 0.88787 0.54964 0.18303 0.0
C255 C 0.89343 0.47926 0.17131 0.0
N256 N 0.81014 0.54829 0.16967 0.0
N257 N 0.85765 0.48027 0.16668 0.0
H258 H 0.46515 0.90234 0.51825 0.0
H259 H 0.22159 0.7821 0.48074 0.0
H260 H 0.3957 0.96464 0.50096 0.0
H261 H 0.29225 0.71926 0.49155 0.0
H262 H 0.28478 0.84887 0.48905 0.0
H263 H 0.40219 0.83504 0.51014 0.0
C264 C 0.43668 0.90199 0.51302 0.0
C265 C 0.436 0.93955 0.51047 0.0
C266 C 0.28659 0.82054 0.48954 0.0
C267 C 0.36343 0.86212 0.5008 0.0
C268 C 0.25041 0.78227 0.48473 0.0
C269 C 0.25136 0.74473 0.48535 0.0
C270 C 0.32434 0.82166 0.49519 0.0
C271 C 0.28986 0.74724 0.49076 0.0
C272 C 0.40068 0.86343 0.5082 0.0
C273 C 0.39801 0.93675 0.5032 0.0
N274 N 0.32463 0.78487 0.49552 0.0
N275 N 0.36349 0.89893 0.49867 0.0
H276 H 0.48073 0.37695 0.85774 0.0
H277 H 0.62012 0.28296 0.79825 0.0
H278 H 0.60728 0.45112 0.82749 0.0
H279 H 0.48787 0.20559 0.81465 0.0
H280 H 0.61615 0.34394 0.8124 0.0
H281 H 0.48292 0.31336 0.84583 0.0
C282 C 0.50911 0.37999 0.8489 0.0
C283 C 0.54396 0.41978 0.8438 0.0
C284 C 0.58787 0.31372 0.81293 0.0
C285 C 0.5466 0.34692 0.83 0.0
C286 C 0.59011 0.27865 0.80482 0.0
C287 C 0.55425 0.23873 0.8051 0.0
C288 C 0.54948 0.30937 0.82166 0.0
C289 C 0.51635 0.23561 0.81395 0.0
C290 C 0.51025 0.34362 0.84197 0.0
C291 C 0.57967 0.42146 0.83203 0.0
N292 N 0.51496 0.27035 0.82189 0.0
N293 N 0.58003 0.38584 0.82562 0.0
H294 H 0.49854 0.79506 0.56373 0.0
H295 H 0.56166 0.63565 0.50174 0.0
H296 H 0.59474 0.829 0.50278 0.0
H297 H 0.45959 0.6002 0.55844 0.0
H298 H 0.5681 0.70438 0.49729 0.0
H299 H 0.4783 0.72188 0.55805 0.0
C300 C 0.51512 0.78711 0.54893 0.0
C301 C 0.54874 0.81832 0.53394 0.0
C302 C 0.5439 0.68138 0.51042 0.0
C303 C 0.52603 0.73453 0.52755 0.0
C304 C 0.54011 0.64205 0.51291 0.0
C305 C 0.51054 0.6124 0.53087 0.0
C306 C 0.51814 0.69117 0.52616 0.0
C307 C 0.48322 0.62229 0.54463 0.0
C308 C 0.50362 0.74528 0.54574 0.0
C309 C 0.56929 0.80611 0.51523 0.0
N310 N 0.48811 0.66107 0.5423 0.0
N311 N 0.55784 0.76521 0.51273 0.0
H312 H 0.80513 0.54154 0.79818 0.0
H313 H 0.79104 0.33464 0.85444 0.0
H314 H 0.68949 0.43109 0.82108 0.0
H315 H 0.90612 0.44328 0.82837 0.0
H316 H 0.75189 0.36363 0.83326 0.0
H317 H 0.84077 0.50099 0.80004 0.0
C318 C 0.78706 0.50856 0.80307 0.0
C319 C 0.7445 0.48989 0.81008 0.0
C320 C 0.7857 0.3808 0.83175 0.0
C321 C 0.78517 0.44342 0.81269 0.0
C322 C 0.80809 0.36418 0.84379 0.0
C323 C 0.85193 0.38704 0.84377 0.0
C324 C 0.80734 0.42071 0.81983 0.0
C325 C 0.87233 0.4249 0.82934 0.0
C326 C 0.80746 0.48542 0.80426 0.0
C327 C 0.72265 0.44702 0.81629 0.0
N328 N 0.84987 0.44094 0.81841 0.0
N329 N 0.74335 0.4254 0.81787 0.0
H330 H 0.27268 0.78955 0.16002 0.0
H331 H 0.49932 0.91381 0.22409 0.0
H332 H 0.31006 0.74729 0.22927 0.0
H333 H 0.45084 0.97048 0.17053 0.0
H334 H 0.43601 0.84654 0.21814 0.0
H335 H 0.34345 0.84996 0.1562 0.0
C336 C 0.29599 0.79271 0.17417 0.0
C337 C 0.28553 0.76372 0.19516 0.0
C338 C 0.43947 0.87362 0.20745 0.0
C339 C 0.36621 0.83249 0.19093 0.0
C340 C 0.47568 0.91203 0.21073 0.0
C341 C 0.48006 0.94799 0.19813 0.0
C342 C 0.40748 0.87109 0.19139 0.0
C343 C 0.44853 0.94366 0.18089 0.0
C344 C 0.33623 0.82722 0.17205 0.0
C345 C 0.31675 0.76934 0.21306 0.0
N346 N 0.41331 0.90594 0.17823 0.0
N347 N 0.35565 0.80319 0.21061 0.0
H348 H 0.63871 0.32166 0.4867 0.0
H349 H 0.57945 0.50156 0.48424 0.0
H350 H 0.51715 0.30288 0.46683 0.0
H351 H 0.68937 0.5138 0.52193 0.0
H352 H 0.56474 0.43415 0.46654 0.0
H353 H 0.66511 0.3968 0.48903 0.0
C354 C 0.61764 0.33332 0.48261 0.0
C355 C 0.5754 0.30579 0.47706 0.0
C356 C 0.59243 0.45189 0.47834 0.0
C357 C 0.60562 0.3917 0.47932 0.0
C358 C 0.60097 0.49047 0.48838 0.0
C359 C 0.63529 0.51297 0.505 0.0
C360 C 0.61837 0.4357 0.485 0.0
C361 C 0.66226 0.49721 0.5095 0.0
C362 C 0.63282 0.37621 0.48379 0.0
C363 C 0.5499 0.32281 0.47116 0.0
N364 N 0.65289 0.4592 0.49986 0.0
N365 N 0.56529 0.36461 0.47276 0.0
H366 H 0.30469 0.56261 0.86744 0.0
H367 H 0.05777 0.42233 0.84964 0.0
H368 H 0.23922 0.42922 0.85607 0.0
H369 H 0.11992 0.55442 0.86592 0.0
H370 H 0.12568 0.42683 0.84507 0.0
H371 H 0.2391 0.56259 0.86059 0.0
C372 C 0.27661 0.53342 0.86324 0.0
C373 C 0.2772 0.49576 0.86271 0.0
C374 C 0.12456 0.45496 0.84938 0.0
C375 C 0.20227 0.49547 0.85493 0.0
C376 C 0.08575 0.45243 0.85192 0.0
C377 C 0.08317 0.48796 0.85851 0.0
C378 C 0.16115 0.49324 0.85365 0.0
C379 C 0.12048 0.52619 0.86101 0.0
C380 C 0.2392 0.5334 0.85941 0.0
C381 C 0.23995 0.45882 0.85724 0.0
N382 N 0.15799 0.52774 0.8589 0.0
N383 N 0.204 0.45957 0.85373 0.0
H384 H 0.79503 0.35656 0.15768 0.0
H385 H 0.59056 0.13189 0.15196 0.0
H386 H 0.79331 0.24601 0.12815 0.0
H387 H 0.59597 0.23778 0.19222 0.0
H388 H 0.66067 0.17745 0.13347 0.0
H389 H 0.71873 0.31768 0.16068 0.0
C390 C 0.77857 0.32434 0.15127 0.0
C391 C 0.80057 0.30429 0.14299 0.0
C392 C 0.64628 0.19085 0.14602 0.0
C393 C 0.71331 0.2595 0.14676 0.0
C394 C 0.60617 0.16488 0.15653 0.0
C395 C 0.58768 0.18094 0.17405 0.0
C396 C 0.66811 0.23314 0.15316 0.0
C397 C 0.60926 0.22398 0.17907 0.0
C398 C 0.73501 0.30209 0.15317 0.0
C399 C 0.7776 0.26241 0.13515 0.0
N400 N 0.64861 0.2485 0.16898 0.0
N401 N 0.73524 0.24127 0.13751 0.0
H402 H 1.0178 0.56953 0.10412 0.0
H403 H 0.99018 0.40826 0.9885 0.0
H404 H 0.05554 0.47703 0.11282 0.0
H405 H 0.97742 0.51705 0.9766 0.0
H406 H 1.00833 0.42863 0.03522 0.0
H407 H 0.99729 0.5466 0.05826 0.0
C408 C 0.02176 0.54435 0.09632 0.0
C409 C 0.03824 0.52502 0.11222 0.0
C410 C 1.0015 0.44795 0.02233 0.0
C411 C 1.01468 0.49844 0.05981 0.0
C412 C 0.991 0.43629 0.99571 0.0
C413 C 0.98236 0.46104 0.97857 0.0
C414 C 1.00304 0.48442 0.03189 0.0
C415 C 0.98399 0.49708 0.989 0.0
C416 C 1.01002 0.53124 0.07016 0.0
C417 C 0.04258 0.49245 0.10123 0.0
N418 N 0.99409 0.50762 0.01494 0.0
N419 N 0.0308 0.48009 0.07564 0.0
H420 H 0.50227 0.04174 0.44627 0.0
H421 H 0.61467 0.10824 0.3023 0.0
H422 H 0.63275 0.08212 0.43277 0.0
H423 H 0.49013 0.08648 0.31875 0.0
H424 H 0.62245 0.0999 0.34999 0.0
H425 H 0.49731 0.05803 0.39951 0.0
C426 C 0.52991 0.05419 0.43343 0.0
C427 C 0.56801 0.06075 0.44332 0.0
C428 C 0.59356 0.09729 0.34319 0.0
C429 C 0.56256 0.07915 0.38979 0.0
C430 C 0.58909 0.10211 0.31595 0.0
C431 C 0.55157 0.0978 0.30644 0.0
C432 C 0.56016 0.08776 0.36107 0.0
C433 C 0.51958 0.08998 0.32512 0.0
C434 C 0.52709 0.06352 0.40676 0.0
C435 C 0.60278 0.07657 0.42585 0.0
N436 N 0.52448 0.08485 0.3515 0.0
N437 N 0.5992 0.08513 0.39987 0.0
H438 H 0.57485 0.58552 0.77822 0.0
H439 H 0.52562 0.47193 0.63634 0.0
H440 H 0.4827 0.45585 0.76753 0.0
H441 H 0.62419 0.59894 0.64846 0.0
H442 H 0.51125 0.46443 0.68453 0.0
H443 H 0.59468 0.59039 0.73085 0.0
C444 C 0.5589 0.55803 0.76586 0.0
C445 C 0.52711 0.52023 0.77669 0.0
C446 C 0.53622 0.49384 0.67666 0.0
C447 C 0.54941 0.52555 0.72252 0.0
C448 C 0.54451 0.49814 0.64913 0.0
C449 C 0.576 0.53623 0.63827 0.0
C450 C 0.55941 0.52793 0.69348 0.0
C451 C 0.5995 0.56903 0.65589 0.0
C452 C 0.57023 0.56081 0.73884 0.0
C453 C 0.50727 0.48561 0.75986 0.0
N454 N 0.59052 0.56422 0.68257 0.0
N455 N 0.51867 0.48913 0.73356 0.0
H456 H 0.59629 0.06949 0.59249 0.0
H457 H 0.50144 0.06924 0.73816 0.0
H458 H 0.47884 0.06644 0.60419 0.0
H459 H 0.58046 0.0161 0.72314 0.0
H460 H 0.50321 0.08349 0.68986 0.0
H461 H 0.60074 0.06407 0.64128 0.0
C462 C 0.57152 0.06778 0.6053 0.0
C463 C 0.53692 0.06792 0.59424 0.0
C464 C 0.52046 0.06907 0.69725 0.0
C465 C 0.54228 0.06277 0.65001 0.0
C466 C 0.51976 0.06129 0.72481 0.0
C467 C 0.5408 0.04142 0.7347 0.0
C468 C 0.54299 0.05762 0.67955 0.0
C469 C 0.56358 0.03125 0.71637 0.0
C470 C 0.57409 0.06474 0.63311 0.0
C471 C 0.50591 0.06607 0.61184 0.0
N472 N 0.56414 0.03951 0.68976 0.0
N473 N 0.50938 0.06372 0.63881 0.0
H474 H 0.61808 0.61446 0.93451 0.0
H475 H 0.49083 0.48731 0.06588 0.0
H476 H 0.50961 0.49168 0.92876 0.0
H477 H 0.62301 0.57616 0.0638 0.0
H478 H 0.48936 0.49613 0.01691 0.0
H479 H 0.61219 0.60844 0.98325 0.0
C480 C 0.59282 0.58624 0.94351 0.0
C481 C 0.56455 0.55333 0.92751 0.0
C482 C 0.5185 0.51389 0.02733 0.0
C483 C 0.55735 0.54644 0.98358 0.0
C484 C 0.51928 0.5092 0.05523 0.0
C485 C 0.55712 0.53107 0.0689 0.0
C486 C 0.55562 0.54133 0.01325 0.0
C487 C 0.5932 0.55859 0.05408 0.0
C488 C 0.58953 0.58283 0.97138 0.0
C489 C 0.53228 0.51763 0.94038 0.0
N490 N 0.59152 0.563 0.0272 0.0
N491 N 0.52952 0.51508 0.96772 0.0
H492 H 0.04053 0.5555 0.25912 0.0
H493 H 0.036 0.476 0.40883 0.0
H494 H 0.04579 0.44376 0.27572 0.0
H495 H 0.08808 0.60613 0.38814 0.0
H496 H 0.02602 0.45889 0.36088 0.0
H497 H 0.04537 0.57015 0.30724 0.0
C498 C 0.04274 0.53407 0.27289 0.0
C499 C 0.04315 0.49857 0.26339 0.0
C500 C 0.03936 0.49112 0.36694 0.0
C501 C 0.04771 0.51463 0.31853 0.0
C502 C 0.04467 0.50084 0.39428 0.0
C503 C 0.0628 0.54254 0.40251 0.0
C504 C 0.05149 0.52324 0.34779 0.0
C505 C 0.07412 0.57358 0.38271 0.0
C506 C 0.04546 0.54242 0.30034 0.0
C507 C 0.0457 0.47166 0.28219 0.0
N508 N 0.06813 0.56332 0.35636 0.0
N509 N 0.04765 0.4801 0.30887 0.0
loop_
_geom_bond_atom_site_label_1
_geom_bond_atom_site_label_2
_geom_bond_distance
_geom_bond_site_symmetry_2
_ccdc_geom_bond_type
C0 Eu1 2.835 . S
C0 C2 1.500 . S
C0 O20 1.257 . S
C0 O21 1.260 . S
Eu1 C0 2.835 . S
Eu1 O20 2.473 . S
Eu1 O21 2.480 . S
Eu1 O22 2.430 . S
Eu1 O23 2.670 1_655 S
Eu1 O24 2.394 . S
Eu1 O29 2.355 1_655 S
Eu1 O31 2.374 1_655 S
C2 C0 1.500 . S
C2 C3 1.377 . S
C2 C7 1.377 . S
C3 C2 1.377 . S
C3 C4 1.395 . S
C3 H32 0.931 . S
C4 C3 1.395 . S
C4 C5 1.383 . S
C4 H33 0.931 . S
C5 C4 1.383 . S
C5 C6 1.394 . S
C6 C5 1.394 . S
C6 C7 1.378 . S
C6 H34 0.931 . S
C7 C2 1.377 . S
C7 C6 1.378 . S
C7 H35 0.931 . S
C8 O22 1.259 1_455 S
C8 O23 1.270 . S
C9 O24 1.251 . S
C9 O25 1.251 . S
C10 Eu11 2.835 . S
C10 C12 1.500 . S
C10 O26 1.257 . S
C10 O27 1.260 . S
Eu11 C10 2.835 . S
Eu11 O23 2.355 . S
Eu11 O25 2.374 1_455 S
Eu11 O26 2.473 . S
Eu11 O27 2.480 . S
Eu11 O28 2.430 . S
Eu11 O29 2.670 . S
Eu11 O30 2.394 . S
C12 C10 1.500 . S
C12 C13 1.377 . S
C12 C17 1.377 . S
C13 C12 1.377 . S
C13 C14 1.395 . S
C13 H36 0.931 . S
C14 C13 1.395 . S
C14 C15 1.383 . S
C14 H37 0.931 . S
C15 C14 1.383 . S
C15 C16 1.394 . S
C16 C15 1.394 . S
C16 C17 1.378 . S
C16 H38 0.931 . S
C17 C12 1.377 . S
C17 C16 1.378 . S
C17 H39 0.931 . S
C18 O28 1.259 . S
C18 O29 1.270 . S
C19 O30 1.251 . S
C19 O31 1.251 . S
O20 C0 1.257 . S
O20 Eu1 2.473 . S
O21 C0 1.260 . S
O21 Eu1 2.480 . S
O22 Eu1 2.430 . S
O22 C8 1.259 1_655 S
O23 Eu1 2.670 1_455 S
O23 C8 1.270 . S
O23 Eu11 2.355 . S
O24 Eu1 2.394 . S
O24 C9 1.251 . S
O25 C9 1.251 . S
O25 Eu11 2.374 1_655 S
O26 C10 1.257 . S
O26 Eu11 2.473 . S
O27 C10 1.260 . S
O27 Eu11 2.480 . S
O28 Eu11 2.430 . S
O28 C18 1.259 . S
O29 Eu1 2.355 1_455 S
O29 Eu11 2.670 . S
O29 C18 1.270 . S
O30 Eu11 2.394 . S
O30 C19 1.251 . S
O31 Eu1 2.374 1_455 S
O31 C19 1.251 . S
H32 C3 0.931 . S
H33 C4 0.931 . S
H34 C6 0.931 . S
H35 C7 0.931 . S
H36 C13 0.931 . S
H37 C14 0.931 . S
H38 C16 0.931 . S
H39 C17 0.931 . S
C40 Eu41 2.835 . S
C40 C42 1.500 . S
C40 O60 1.257 . S
C40 O61 1.260 . S
Eu41 C40 2.835 . S
Eu41 O60 2.473 . S
Eu41 O61 2.480 . S
Eu41 O62 2.430 . S
Eu41 O63 2.670 . S
Eu41 O64 2.394 . S
Eu41 O69 2.355 . S
Eu41 O71 2.374 1_545 S
C42 C40 1.500 . S
C42 C43 1.377 . S
C42 C47 1.377 . S
C43 C42 1.377 . S
C43 C44 1.395 . S
C43 H72 0.931 . S
C44 C43 1.395 . S
C44 C45 1.383 . S
C44 H73 0.931 . S
C45 C44 1.383 . S
C45 C46 1.394 . S
C46 C45 1.394 . S
C46 C47 1.378 . S
C46 H74 0.931 . S
C47 C42 1.377 . S
C47 C46 1.378 . S
C47 H75 0.931 . S
C48 O62 1.259 . S
C48 O63 1.270 . S
C49 O64 1.251 . S
C49 O65 1.251 . S
C50 Eu51 2.835 . S
C50 C52 1.500 . S
C50 O66 1.257 . S
C50 O67 1.260 . S
Eu51 C50 2.835 . S
Eu51 O63 2.355 1_565 S
Eu51 O65 2.374 1_565 S
Eu51 O66 2.473 . S
Eu51 O67 2.480 . S
Eu51 O68 2.430 1_565 S
Eu51 O69 2.670 1_565 S
Eu51 O70 2.394 . S
C52 C50 1.500 . S
C52 C53 1.377 . S
C52 C57 1.377 . S
C53 C52 1.377 . S
C53 C54 1.395 . S
C53 H76 0.931 . S
C54 C53 1.395 . S
C54 C55 1.383 . S
C54 H77 0.931 . S
C55 C54 1.383 . S
C55 C56 1.394 . S
C56 C55 1.394 . S
C56 C57 1.378 . S
C56 H78 0.931 . S
C57 C52 1.377 . S
C57 C56 1.378 . S
C57 H79 0.931 . S
C58 O68 1.259 . S
C58 O69 1.270 . S
C59 O70 1.251 . S
C59 O71 1.251 . S
O60 C40 1.257 . S
O60 Eu41 2.473 . S
O61 C40 1.260 . S
O61 Eu41 2.480 . S
O62 Eu41 2.430 . S
O62 C48 1.259 . S
O63 Eu41 2.670 . S
O63 C48 1.270 . S
O63 Eu51 2.355 1_545 S
O64 Eu41 2.394 . S
O64 C49 1.251 . S
O65 C49 1.251 . S
O65 Eu51 2.374 1_545 S
O66 C50 1.257 . S
O66 Eu51 2.473 . S
O67 C50 1.260 . S
O67 Eu51 2.480 . S
O68 Eu51 2.430 1_545 S
O68 C58 1.259 . S
O69 Eu41 2.355 . S
O69 Eu51 2.670 1_545 S
O69 C58 1.270 . S
O70 Eu51 2.394 . S
O70 C59 1.251 . S
O71 Eu41 2.374 1_565 S
O71 C59 1.251 . S
H72 C43 0.931 . S
H73 C44 0.931 . S
H74 C46 0.931 . S
H75 C47 0.931 . S
H76 C53 0.931 . S
H77 C54 0.931 . S
H78 C56 0.931 . S
H79 C57 0.931 . S
C80 Eu81 2.835 . S
C80 C82 1.500 . S
C80 O100 1.257 . S
C80 O101 1.260 . S
Eu81 C80 2.835 . S
Eu81 O100 2.473 . S
Eu81 O101 2.480 . S
Eu81 O102 2.430 . S
Eu81 O103 2.670 . S
Eu81 O104 2.394 . S
Eu81 O109 2.355 . S
Eu81 O111 2.374 . S
C82 C80 1.500 . S
C82 C83 1.377 . S
C82 C87 1.377 . S
C83 C82 1.377 . S
C83 C84 1.395 . S
C83 H112 0.931 . S
C84 C83 1.395 . S
C84 C85 1.383 . S
C84 H113 0.931 . S
C85 C84 1.383 . S
C85 C86 1.394 . S
C86 C85 1.394 . S
C86 C87 1.378 . S
C86 H114 0.931 . S
C87 C82 1.377 . S
C87 C86 1.378 . S
C87 H115 0.931 . S
C88 O102 1.259 . S
C88 O103 1.270 . S
C89 O104 1.251 . S
C89 O105 1.251 . S
C90 Eu91 2.835 . S
C90 C92 1.500 . S
C90 O106 1.257 . S
C90 O107 1.260 . S
Eu91 C90 2.835 . S
Eu91 O103 2.355 . S
Eu91 O105 2.374 . S
Eu91 O106 2.473 . S
Eu91 O107 2.480 . S
Eu91 O108 2.430 . S
Eu91 O109 2.670 . S
Eu91 O110 2.394 . S
C92 C90 1.500 . S
C92 C93 1.377 . S
C92 C97 1.377 . S
C93 C92 1.377 . S
C93 C94 1.395 . S
C93 H116 0.931 . S
C94 C93 1.395 . S
C94 C95 1.383 . S
C94 H117 0.931 . S
C95 C94 1.383 . S
C95 C96 1.394 . S
C96 C95 1.394 . S
C96 C97 1.378 . S
C96 H118 0.931 . S
C97 C92 1.377 . S
C97 C96 1.378 . S
C97 H119 0.931 . S
C98 O108 1.259 . S
C98 O109 1.270 . S
C99 O110 1.251 . S
C99 O111 1.251 . S
O100 C80 1.257 . S
O100 Eu81 2.473 . S
O101 C80 1.260 . S
O101 Eu81 2.480 . S
O102 Eu81 2.430 . S
O102 C88 1.259 . S
O103 Eu81 2.670 . S
O103 C88 1.270 . S
O103 Eu91 2.355 . S
O104 Eu81 2.394 . S
O104 C89 1.251 . S
O105 C89 1.251 . S
O105 Eu91 2.374 . S
O106 C90 1.257 . S
O106 Eu91 2.473 . S
O107 C90 1.260 . S
O107 Eu91 2.480 . S
O108 Eu91 2.430 . S
O108 C98 1.259 . S
O109 Eu81 2.355 . S
O109 Eu91 2.670 . S
O109 C98 1.270 . S
O110 Eu91 2.394 . S
O110 C99 1.251 . S
O111 Eu81 2.374 . S
O111 C99 1.251 . S
H112 C83 0.931 . S
H113 C84 0.931 . S
H114 C86 0.931 . S
H115 C87 0.931 . S
H116 C93 0.931 . S
H117 C94 0.931 . S
H118 C96 0.931 . S
H119 C97 0.931 . S
O120 Cd121 2.300 . S
O120 C127 1.275 . S
Cd121 O120 2.300 . S
Cd121 O129 2.381 . S
Cd121 O130 2.378 . S
O122 Cd123 2.385 1_545 S
O122 C127 1.255 . S
Cd123 O122 2.385 1_565 S
Cd123 O124 2.317 . S
O124 Cd123 2.317 . S
O124 C125 1.232 . S
C125 O124 1.232 . S
C125 O126 1.218 . S
O126 C125 1.218 . S
C127 O120 1.275 . S
C127 O122 1.255 . S
C128 O129 1.258 . S
C128 O130 1.256 . S
O129 Cd121 2.381 . S
O129 C128 1.258 . S
O130 Cd121 2.378 . S
O130 C128 1.256 . S
O131 Cd132 2.300 . S
O131 C138 1.275 . S
Cd132 O131 2.300 . S
Cd132 O140 2.381 . S
Cd132 O141 2.378 . S
O133 Cd134 2.385 . S
O133 C138 1.255 . S
Cd134 O133 2.385 . S
Cd134 O135 2.317 . S
O135 Cd134 2.317 . S
O135 C136 1.232 . S
C136 O135 1.232 . S
C136 O137 1.218 . S
O137 C136 1.218 . S
C138 O131 1.275 . S
C138 O133 1.255 . S
C139 O140 1.258 . S
C139 O141 1.256 . S
O140 Cd132 2.381 . S
O140 C139 1.258 . S
O141 Cd132 2.378 . S
O141 C139 1.256 . S
O142 Cd143 2.300 . S
O142 C149 1.275 1_455 S
Cd143 O142 2.300 . S
Cd143 O151 2.381 . S
Cd143 O152 2.378 . S
O144 Cd145 2.385 . S
O144 C149 1.255 . S
Cd145 O144 2.385 . S
Cd145 O146 2.317 . S
O146 Cd145 2.317 . S
O146 C147 1.232 . S
C147 O146 1.232 . S
C147 O148 1.218 . S
O148 C147 1.218 . S
C149 O142 1.275 1_655 S
C149 O144 1.255 . S
C150 O151 1.258 . S
C150 O152 1.256 . S
O151 Cd143 2.381 . S
O151 C150 1.258 . S
O152 Cd143 2.378 . S
O152 C150 1.256 . S
O153 Cd154 2.300 . S
O153 C160 1.275 . S
Cd154 O153 2.300 . S
Cd154 O162 2.381 . S
Cd154 O163 2.378 . S
O155 Cd156 2.407 . S
O155 C160 1.234 1_655 S
Cd156 O155 2.407 . S
Cd156 O157 2.317 . S
O157 Cd156 2.317 . S
O157 C158 1.232 . S
C158 O157 1.232 . S
C158 O159 1.218 . S
O159 C158 1.218 . S
C160 O153 1.275 . S
C160 O155 1.234 1_455 S
C161 O162 1.258 . S
C161 O163 1.256 . S
O162 Cd154 2.381 . S
O162 C161 1.258 . S
O163 Cd154 2.378 . S
O163 C161 1.256 . S
O164 Cd165 2.300 . S
O164 C171 1.275 1_565 S
Cd165 O164 2.300 . S
Cd165 O173 2.381 . S
Cd165 O174 2.378 . S
O166 Cd167 2.385 . S
O166 C171 1.255 . S
Cd167 O166 2.385 . S
Cd167 O168 2.317 . S
O168 Cd167 2.317 . S
O168 C169 1.232 . S
C169 O168 1.232 . S
C169 O170 1.218 . S
O170 C169 1.218 . S
C171 O164 1.275 1_545 S
C171 O166 1.255 . S
C172 O173 1.258 . S
C172 O174 1.256 . S
O173 Cd165 2.381 . S
O173 C172 1.258 . S
O174 Cd165 2.378 . S
O174 C172 1.256 . S
O175 Cd176 2.300 . S
O175 C182 1.275 . S
Cd176 O175 2.300 . S
Cd176 O184 2.381 . S
Cd176 O185 2.378 . S
O177 Cd178 2.385 . S
O177 C182 1.255 . S
Cd178 O177 2.385 . S
Cd178 O179 2.317 . S
O179 Cd178 2.317 . S
O179 C180 1.232 . S
C180 O179 1.232 . S
C180 O181 1.218 . S
O181 C180 1.218 . S
C182 O175 1.275 . S
C182 O177 1.255 . S
C183 O184 1.258 . S
C183 O185 1.256 . S
O184 Cd176 2.381 . S
O184 C183 1.258 . S
O185 Cd176 2.378 . S
O185 C183 1.256 . S
H186 C192 0.930 . S
H187 C196 0.930 . S
H188 C201 0.929 . S
H189 C199 0.929 . S
H190 C194 0.929 . S
H191 C200 0.929 . S
C192 H186 0.930 . S
C192 C193 1.367 . S
C192 C200 1.378 . S
C193 C192 1.367 . S
C193 C201 1.433 . S
C194 H190 0.929 . S
C194 C196 1.378 . S
C194 C198 1.350 . S
C195 C198 1.463 . S
C195 C200 1.350 . S
C195 N203 1.427 . S
C196 H187 0.930 . S
C196 C194 1.378 . S
C196 C197 1.367 . S
C197 C196 1.367 . S
C197 C199 1.433 . S
C198 C194 1.350 . S
C198 C195 1.463 . S
C198 N202 1.427 . S
C199 H189 0.929 . S
C199 C197 1.433 . S
C199 N202 1.384 . S
C200 H191 0.929 . S
C200 C192 1.378 . S
C200 C195 1.350 . S
C201 H188 0.929 . S
C201 C193 1.433 . S
C201 N203 1.384 . S
N202 C198 1.427 . S
N202 C199 1.384 . S
N203 C195 1.427 . S
N203 C201 1.384 . S
H204 C210 0.930 . S
H205 C214 0.930 . S
H206 C219 0.929 . S
H207 C217 0.929 . S
H208 C212 0.929 . S
H209 C218 0.929 . S
C210 H204 0.930 . S
C210 C211 1.367 . S
C210 C218 1.378 . S
C211 C210 1.367 . S
C211 C219 1.433 . S
C212 H208 0.929 . S
C212 C214 1.378 . S
C212 C216 1.350 . S
C213 C216 1.463 . S
C213 C218 1.350 . S
C213 N221 1.427 . S
C214 H205 0.930 . S
C214 C212 1.378 . S
C214 C215 1.367 . S
C215 C214 1.367 . S
C215 C217 1.433 . S
C216 C212 1.350 . S
C216 C213 1.463 . S
C216 N220 1.427 . S
C217 H207 0.929 . S
C217 C215 1.433 . S
C217 N220 1.384 . S
C218 H209 0.929 . S
C218 C210 1.378 . S
C218 C213 1.350 . S
C219 H206 0.929 . S
C219 C211 1.433 . S
C219 N221 1.384 . S
N220 C216 1.427 . S
N220 C217 1.384 . S
N221 C213 1.427 . S
N221 C219 1.384 . S
H222 C228 0.930 . S
H223 C232 0.930 . S
H224 C237 0.929 . S
H225 C235 0.929 . S
H226 C230 0.929 . S
H227 C236 0.929 . S
C228 H222 0.930 . S
C228 C229 1.367 . S
C228 C236 1.378 . S
C229 C228 1.367 . S
C229 C237 1.433 . S
C230 H226 0.929 . S
C230 C232 1.378 . S
C230 C234 1.350 . S
C231 C234 1.463 . S
C231 C236 1.350 . S
C231 N239 1.427 . S
C232 H223 0.930 . S
C232 C230 1.378 . S
C232 C233 1.367 . S
C233 C232 1.367 . S
C233 C235 1.433 . S
C234 C230 1.350 . S
C234 C231 1.463 . S
C234 N238 1.427 . S
C235 H225 0.929 . S
C235 C233 1.433 . S
C235 N238 1.384 . S
C236 H227 0.929 . S
C236 C228 1.378 . S
C236 C231 1.350 . S
C237 H224 0.929 . S
C237 C229 1.433 . S
C237 N239 1.384 . S
N238 C234 1.427 . S
N238 C235 1.384 . S
N239 C231 1.427 . S
N239 C237 1.384 . S
H240 C246 0.930 . S
H241 C250 0.930 . S
H242 C255 0.929 . S
H243 C253 0.929 . S
H244 C248 0.929 . S
H245 C254 0.929 . S
C246 H240 0.930 . S
C246 C247 1.367 . S
C246 C254 1.378 . S
C247 C246 1.367 . S
C247 C255 1.433 . S
C248 H244 0.929 . S
C248 C250 1.378 . S
C248 C252 1.350 . S
C249 C252 1.463 . S
C249 C254 1.350 . S
C249 N257 1.427 . S
C250 H241 0.930 . S
C250 C248 1.378 . S
C250 C251 1.367 . S
C251 C250 1.367 . S
C251 C253 1.433 . S
C252 C248 1.350 . S
C252 C249 1.463 . S
C252 N256 1.427 . S
C253 H243 0.929 . S
C253 C251 1.433 . S
C253 N256 1.384 . S
C254 H245 0.929 . S
C254 C246 1.378 . S
C254 C249 1.350 . S
C255 H242 0.929 . S
C255 C247 1.433 . S
C255 N257 1.384 . S
N256 C252 1.427 . S
N256 C253 1.384 . S
N257 C249 1.427 . S
N257 C255 1.384 . S
H258 C264 0.930 . S
H259 C268 0.930 . S
H260 C273 0.929 . S
H261 C271 0.929 . S
H262 C266 0.929 . S
H263 C272 0.929 . S
C264 H258 0.930 . S
C264 C265 1.367 . S
C264 C272 1.378 . S
C265 C264 1.367 . S
C265 C273 1.433 . S
C266 H262 0.929 . S
C266 C268 1.378 . S
C266 C270 1.350 . S
C267 C270 1.463 . S
C267 C272 1.350 . S
C267 N275 1.427 . S
C268 H259 0.930 . S
C268 C266 1.378 . S
C268 C269 1.367 . S
C269 C268 1.367 . S
C269 C271 1.433 . S
C270 C266 1.350 . S
C270 C267 1.463 . S
C270 N274 1.427 . S
C271 H261 0.929 . S
C271 C269 1.433 . S
C271 N274 1.384 . S
C272 H263 0.929 . S
C272 C264 1.378 . S
C272 C267 1.350 . S
C273 H260 0.929 . S
C273 C265 1.433 . S
C273 N275 1.384 . S
N274 C270 1.427 . S
N274 C271 1.384 . S
N275 C267 1.427 . S
N275 C273 1.384 . S
H276 C282 0.930 . S
H277 C286 0.930 . S
H278 C291 0.929 . S
H279 C289 0.929 . S
H280 C284 0.929 . S
H281 C290 0.929 . S
C282 H276 0.930 . S
C282 C283 1.367 . S
C282 C290 1.378 . S
C283 C282 1.367 . S
C283 C291 1.433 . S
C284 H280 0.929 . S
C284 C286 1.378 . S
C284 C288 1.350 . S
C285 C288 1.463 . S
C285 C290 1.350 . S
C285 N293 1.427 . S
C286 H277 0.930 . S
C286 C284 1.378 . S
C286 C287 1.367 . S
C287 C286 1.367 . S
C287 C289 1.433 . S
C288 C284 1.350 . S
C288 C285 1.463 . S
C288 N292 1.427 . S
C289 H279 0.929 . S
C289 C287 1.433 . S
C289 N292 1.384 . S
C290 H281 0.929 . S
C290 C282 1.378 . S
C290 C285 1.350 . S
C291 H278 0.929 . S
C291 C283 1.433 . S
C291 N293 1.384 . S
N292 C288 1.427 . S
N292 C289 1.384 . S
N293 C285 1.427 . S
N293 C291 1.384 . S
H294 C300 0.930 . S
H295 C304 0.930 . S
H296 C309 0.929 . S
H297 C307 0.929 . S
H298 C302 0.929 . S
H299 C308 0.929 . S
C300 H294 0.930 . S
C300 C301 1.367 . S
C300 C308 1.378 . S
C301 C300 1.367 . S
C301 C309 1.433 . S
C302 H298 0.929 . S
C302 C304 1.378 . S
C302 C306 1.350 . S
C303 C306 1.463 . S
C303 C308 1.350 . S
C303 N311 1.427 . S
C304 H295 0.930 . S
C304 C302 1.378 . S
C304 C305 1.367 . S
C305 C304 1.367 . S
C305 C307 1.433 . S
C306 C302 1.350 . S
C306 C303 1.463 . S
C306 N310 1.427 . S
C307 H297 0.929 . S
C307 C305 1.433 . S
C307 N310 1.384 . S
C308 H299 0.929 . S
C308 C300 1.378 . S
C308 C303 1.350 . S
C309 H296 0.929 . S
C309 C301 1.433 . S
C309 N311 1.384 . S
N310 C306 1.427 . S
N310 C307 1.384 . S
N311 C303 1.427 . S
N311 C309 1.384 . S
H312 C318 0.930 . S
H313 C322 0.930 . S
H314 C327 0.929 . S
H315 C325 0.929 . S
H316 C320 0.929 . S
H317 C326 0.929 . S
C318 H312 0.930 . S
C318 C319 1.367 . S
C318 C326 1.378 . S
C319 C318 1.367 . S
C319 C327 1.433 . S
C320 H316 0.929 . S
C320 C322 1.378 . S
C320 C324 1.350 . S
C321 C324 1.463 . S
C321 C326 1.350 . S
C321 N329 1.427 . S
C322 H313 0.930 . S
C322 C320 1.378 . S
C322 C323 1.367 . S
C323 C322 1.367 . S
C323 C325 1.433 . S
C324 C320 1.350 . S
C324 C321 1.463 . S
C324 N328 1.427 . S
C325 H315 0.929 . S
C325 C323 1.433 . S
C325 N328 1.384 . S
C326 H317 0.929 . S
C326 C318 1.378 . S
C326 C321 1.350 . S
C327 H314 0.929 . S
C327 C319 1.433 . S
C327 N329 1.384 . S
N328 C324 1.427 . S
N328 C325 1.384 . S
N329 C321 1.427 . S
N329 C327 1.384 . S
H330 C336 0.930 . S
H331 C340 0.930 . S
H332 C345 0.929 . S
H333 C343 0.929 . S
H334 C338 0.929 . S
H335 C344 0.929 . S
C336 H330 0.930 . S
C336 C337 1.367 . S
C336 C344 1.378 . S
C337 C336 1.367 . S
C337 C345 1.433 . S
C338 H334 0.929 . S
C338 C340 1.378 . S
C338 C342 1.350 . S
C339 C342 1.463 . S
C339 C344 1.350 . S
C339 N347 1.427 . S
C340 H331 0.930 . S
C340 C338 1.378 . S
C340 C341 1.367 . S
C341 C340 1.367 . S
C341 C343 1.433 . S
C342 C338 1.350 . S
C342 C339 1.463 . S
C342 N346 1.427 . S
C343 H333 0.929 . S
C343 C341 1.433 . S
C343 N346 1.384 . S
C344 H335 0.929 . S
C344 C336 1.378 . S
C344 C339 1.350 . S
C345 H332 0.929 . S
C345 C337 1.433 . S
C345 N347 1.384 . S
N346 C342 1.427 . S
N346 C343 1.384 . S
N347 C339 1.427 . S
N347 C345 1.384 . S
H348 C354 0.930 . S
H349 C358 0.930 . S
H350 C363 0.929 . S
H351 C361 0.929 . S
H352 C356 0.929 . S
H353 C362 0.929 . S
C354 H348 0.930 . S
C354 C355 1.367 . S
C354 C362 1.378 . S
C355 C354 1.367 . S
C355 C363 1.433 . S
C356 H352 0.929 . S
C356 C358 1.378 . S
C356 C360 1.350 . S
C357 C360 1.463 . S
C357 C362 1.350 . S
C357 N365 1.427 . S
C358 H349 0.930 . S
C358 C356 1.378 . S
C358 C359 1.367 . S
C359 C358 1.367 . S
C359 C361 1.433 . S
C360 C356 1.350 . S
C360 C357 1.463 . S
C360 N364 1.427 . S
C361 H351 0.929 . S
C361 C359 1.433 . S
C361 N364 1.384 . S
C362 H353 0.929 . S
C362 C354 1.378 . S
C362 C357 1.350 . S
C363 H350 0.929 . S
C363 C355 1.433 . S
C363 N365 1.384 . S
N364 C360 1.427 . S
N364 C361 1.384 . S
N365 C357 1.427 . S
N365 C363 1.384 . S
H366 C372 0.930 . S
H367 C376 0.930 . S
H368 C381 0.929 . S
H369 C379 0.929 . S
H370 C374 0.929 . S
H371 C380 0.929 . S
C372 H366 0.930 . S
C372 C373 1.367 . S
C372 C380 1.378 . S
C373 C372 1.367 . S
C373 C381 1.433 . S
C374 H370 0.929 . S
C374 C376 1.378 . S
C374 C378 1.350 . S
C375 C378 1.463 . S
C375 C380 1.350 . S
C375 N383 1.427 . S
C376 H367 0.930 . S
C376 C374 1.378 . S
C376 C377 1.367 . S
C377 C376 1.367 . S
C377 C379 1.433 . S
C378 C374 1.350 . S
C378 C375 1.463 . S
C378 N382 1.427 . S
C379 H369 0.929 . S
C379 C377 1.433 . S
C379 N382 1.384 . S
C380 H371 0.929 . S
C380 C372 1.378 . S
C380 C375 1.350 . S
C381 H368 0.929 . S
C381 C373 1.433 . S
C381 N383 1.384 . S
N382 C378 1.427 . S
N382 C379 1.384 . S
N383 C375 1.427 . S
N383 C381 1.384 . S
H384 C390 0.930 . S
H385 C394 0.930 . S
H386 C399 0.929 . S
H387 C397 0.929 . S
H388 C392 0.929 . S
H389 C398 0.929 . S
C390 H384 0.930 . S
C390 C391 1.367 . S
C390 C398 1.378 . S
C391 C390 1.367 . S
C391 C399 1.433 . S
C392 H388 0.929 . S
C392 C394 1.378 . S
C392 C396 1.350 . S
C393 C396 1.463 . S
C393 C398 1.350 . S
C393 N401 1.427 . S
C394 H385 0.930 . S
C394 C392 1.378 . S
C394 C395 1.367 . S
C395 C394 1.367 . S
C395 C397 1.433 . S
C396 C392 1.350 . S
C396 C393 1.463 . S
C396 N400 1.427 . S
C397 H387 0.929 . S
C397 C395 1.433 . S
C397 N400 1.384 . S
C398 H389 0.929 . S
C398 C390 1.378 . S
C398 C393 1.350 . S
C399 H386 0.929 . S
C399 C391 1.433 . S
C399 N401 1.384 . S
N400 C396 1.427 . S
N400 C397 1.384 . S
N401 C393 1.427 . S
N401 C399 1.384 . S
H402 C408 0.930 . S
H403 C412 0.930 . S
H404 C417 0.929 . S
H405 C415 0.929 . S
H406 C410 0.938 . S
H407 C416 0.929 . S
C408 H402 0.930 . S
C408 C409 1.367 . S
C408 C416 1.378 . S
C409 C408 1.367 . S
C409 C417 1.433 1_455 S
C410 H406 0.938 . S
C410 C412 1.362 1_554 S
C410 C414 1.356 . S
C411 C414 1.463 1_455 S
C411 C416 1.350 . S
C411 N419 1.427 1_455 S
C412 H403 0.930 . S
C412 C410 1.362 1_556 S
C412 C413 1.367 . S
C413 C412 1.367 . S
C413 C415 1.433 1_655 S
C414 C410 1.356 . S
C414 C411 1.463 1_655 S
C414 N418 1.428 1_654 S
C415 H405 0.929 . S
C415 C413 1.433 1_455 S
C415 N418 1.384 . S
C416 H407 0.929 . S
C416 C408 1.378 . S
C416 C411 1.350 . S
C417 H404 0.929 . S
C417 C409 1.433 1_655 S
C417 N419 1.384 . S
N418 C414 1.428 1_456 S
N418 C415 1.384 . S
N419 C411 1.427 1_655 S
N419 C417 1.384 . S
H420 C426 0.917 1_565 S
H421 C430 0.930 . S
H422 C435 0.929 . S
H423 C433 0.929 1_565 S
H424 C428 0.929 . S
H425 C434 0.929 1_565 S
C426 H420 0.917 1_545 S
C426 C427 1.377 . S
C426 C434 1.381 . S
C427 C426 1.377 . S
C427 C435 1.433 . S
C428 H424 0.929 . S
C428 C430 1.378 . S
C428 C432 1.350 . S
C429 C432 1.463 . S
C429 C434 1.350 . S
C429 N437 1.427 . S
C430 H421 0.930 . S
C430 C428 1.378 . S
C430 C431 1.367 . S
C431 C430 1.367 . S
C431 C433 1.433 . S
C432 C428 1.350 . S
C432 C429 1.463 . S
C432 N436 1.427 . S
C433 H423 0.929 1_545 S
C433 C431 1.433 . S
C433 N436 1.384 . S
C434 H425 0.929 1_545 S
C434 C426 1.381 . S
C434 C429 1.350 . S
C435 H422 0.929 . S
C435 C427 1.433 . S
C435 N437 1.384 . S
N436 C432 1.427 . S
N436 C433 1.384 . S
N437 C429 1.427 . S
N437 C435 1.384 . S
H438 C444 0.930 . S
H439 C448 0.930 . S
H440 C453 0.929 . S
H441 C451 0.929 . S
H442 C446 0.929 . S
H443 C452 0.929 . S
C444 H438 0.930 . S
C444 C445 1.367 . S
C444 C452 1.378 . S
C445 C444 1.367 . S
C445 C453 1.433 . S
C446 H442 0.929 . S
C446 C448 1.378 . S
C446 C450 1.350 . S
C447 C450 1.463 . S
C447 C452 1.350 . S
C447 N455 1.427 . S
C448 H439 0.930 . S
C448 C446 1.378 . S
C448 C449 1.367 . S
C449 C448 1.367 . S
C449 C451 1.433 . S
C450 C446 1.350 . S
C450 C447 1.463 . S
C450 N454 1.427 . S
C451 H441 0.929 . S
C451 C449 1.433 . S
C451 N454 1.384 . S
C452 H443 0.929 . S
C452 C444 1.378 . S
C452 C447 1.350 . S
C453 H440 0.929 . S
C453 C445 1.433 . S
C453 N455 1.384 . S
N454 C450 1.427 . S
N454 C451 1.384 . S
N455 C447 1.427 . S
N455 C453 1.384 . S
H456 C462 0.930 . S
H457 C466 0.930 . S
H458 C471 0.929 . S
H459 C469 0.929 . S
H460 C464 0.929 . S
H461 C470 0.929 . S
C462 H456 0.930 . S
C462 C463 1.367 1_565 S
C462 C470 1.378 . S
C463 C462 1.367 1_545 S
C463 C471 1.433 . S
C464 H460 0.929 . S
C464 C466 1.378 . S
C464 C468 1.350 . S
C465 C468 1.463 . S
C465 C470 1.350 1_545 S
C465 N473 1.427 . S
C466 H457 0.930 . S
C466 C464 1.378 . S
C466 C467 1.367 . S
C467 C466 1.367 . S
C467 C469 1.433 1_545 S
C468 C464 1.350 . S
C468 C465 1.463 . S
C468 N472 1.427 1_545 S
C469 H459 0.929 . S
C469 C467 1.433 1_565 S
C469 N472 1.384 . S
C470 H461 0.929 . S
C470 C462 1.378 . S
C470 C465 1.350 1_565 S
C471 H458 0.929 . S
C471 C463 1.433 . S
C471 N473 1.384 . S
N472 C468 1.427 1_565 S
N472 C469 1.384 . S
N473 C465 1.427 . S
N473 C471 1.384 . S
H474 C480 0.930 . S
H475 C484 0.930 . S
H476 C489 0.929 . S
H477 C487 0.929 . S
H478 C482 0.929 1_556 S
H479 C488 0.929 . S
C480 H474 0.930 . S
C480 C481 1.367 . S
C480 C488 1.378 . S
C481 C480 1.367 . S
C481 C489 1.433 . S
C482 H478 0.929 1_554 S
C482 C484 1.378 . S
C482 C486 1.350 1_554 S
C483 C486 1.463 . S
C483 C488 1.350 . S
C483 N491 1.427 . S
C484 H475 0.930 . S
C484 C482 1.378 . S
C484 C485 1.367 . S
C485 C484 1.367 . S
C485 C487 1.433 . S
C486 C482 1.350 1_556 S
C486 C483 1.463 . S
C486 N490 1.427 1_556 S
C487 H477 0.929 . S
C487 C485 1.433 . S
C487 N490 1.384 . S
C488 H479 0.929 . S
C488 C480 1.378 . S
C488 C483 1.350 . S
C489 H476 0.929 . S
C489 C481 1.433 . S
C489 N491 1.384 . S
N490 C486 1.427 1_554 S
N490 C487 1.384 . S
N491 C483 1.427 . S
N491 C489 1.384 . S
H492 C498 0.930 . S
H493 C502 0.930 . S
H494 C507 0.929 . S
H495 C505 0.929 . S
H496 C500 0.929 . S
H497 C506 0.929 . S
C498 H492 0.930 . S
C498 C499 1.367 . S
C498 C506 1.378 . S
C499 C498 1.367 . S
C499 C507 1.433 . S
C500 H496 0.929 . S
C500 C502 1.378 . S
C500 C504 1.350 . S
C501 C504 1.463 . S
C501 C506 1.350 . S
C501 N509 1.427 . S
C502 H493 0.930 . S
C502 C500 1.378 . S
C502 C503 1.367 . S
C503 C502 1.367 . S
C503 C505 1.433 . S
C504 C500 1.350 . S
C504 C501 1.463 . S
C504 N508 1.427 . S
C505 H495 0.929 . S
C505 C503 1.433 . S
C505 N508 1.384 . S
C506 H497 0.929 . S
C506 C498 1.378 . S
C506 C501 1.350 . S
C507 H494 0.929 . S
C507 C499 1.433 . S
C507 N509 1.384 . S
N508 C504 1.427 . S
N508 C505 1.384 . S
N509 C501 1.427 . S
N509 C507 1.384 . S
C193 C19 3.160 . S
C197 C180 2.832 . S
C211 C49 3.241 . S
C215 C158 2.901 . S
C229 C99 2.875 . S
C233 C172 2.818 . S
C247 C9 2.945 . S
C251 C183 2.877 . S
C269 C161 2.817 . S
C265 C59 2.874 . S
C287 C169 2.888 . S
C283 C89 3.237 . S
C301 C55 0.480 . S
C305 C136 0.730 . S
C319 C85 0.471 . S
C323 C147 0.604 . S
C337 C15 0.475 . S
C341 C125 0.702 . S
C359 C139 0.316 . S
C355 C45 0.278 . S
C377 C150 0.239 . S
C373 C95 0.243 . S
C391 C5 0.313 . S
C395 C128 0.267 . S
C413 C149 1.186 . S
C409 C18 1.191 . S
C427 C58 1.218 . S
C431 C127 1.167 . S
C445 C98 1.219 . S
C449 C138 1.164 . S
C467 C171 1.674 . S
C463 C48 1.662 . S
C485 C182 1.679 . S
C481 C88 1.691 . S
C499 C8 1.667 . S
C503 C160 1.681 . S
