# Generated by pormake.
# Topology nia, (6,6)-cn, num edge types: 1
# Building blocks:
#     Node 0, Type 0, BuildingBlock: PAMTOO_clean_sbu_0, # of connection points: 6
#     Node 1, Type 0, BuildingBlock: PAMTOO_clean_sbu_0, # of connection points: 6
#     Node 2, Type 1, BuildingBlock: MIDCAF_clean_sbu_0, # of connection points: 6
#     Node 3, Type 1, BuildingBlock: MIDCAF_clean_sbu_0, # of connection points: 6
#     Edge 4, Type (0, 1), BuildingBlock: FUNLAD_clean_linker_0, # of connection points: 2
#     Edge 5, Type (0, 1), BuildingBlock: FUNLAD_clean_linker_0, # of connection points: 2
#     Edge 6, Type (0, 1), BuildingBlock: FUNLAD_clean_linker_0, # of connection points: 2
#     Edge 7, Type (0, 1), BuildingBlock: FUNLAD_clean_linker_0, # of connection points: 2
#     Edge 8, Type (0, 1), BuildingBlock: FUNLAD_clean_linker_0, # of connection points: 2
#     Edge 9, Type (0, 1), BuildingBlock: FUNLAD_clean_linker_0, # of connection points: 2
#     Edge 10, Type (0, 1), BuildingBlock: FUNLAD_clean_linker_0, # of connection points: 2
#     Edge 11, Type (0, 1), BuildingBlock: FUNLAD_clean_linker_0, # of connection points: 2
#     Edge 12, Type (0, 1), BuildingBlock: FUNLAD_clean_linker_0, # of connection points: 2
#     Edge 13, Type (0, 1), BuildingBlock: FUNLAD_clean_linker_0, # of connection points: 2
#     Edge 14, Type (0, 1), BuildingBlock: FUNLAD_clean_linker_0, # of connection points: 2
#     Edge 15, Type (0, 1), BuildingBlock: FUNLAD_clean_linker_0, # of connection points: 2
# Relax obj value: 0.171
# Max RMSD: 0.271
# Mean RMSD: 0.194
data_MOF--net-nia--node1-PAMTOO_clean_sbu_0--node2-MIDCAF_clean_sbu_0--edge1-FUNLAD_clean_linker_0
_symmetry_space_group_name_H-M    P1
_symmetry_Int_Tables_number       1
_symmetry_cell_setting            triclinic
loop_
_symmetry_equiv_pos_as_xyz
'x, y, z'
_cell_length_a     33.029443
_cell_length_b     32.947114
_cell_length_c     36.92353
_cell_angle_alpha  91.355132
_cell_angle_beta   90.332958
_cell_angle_gamma 135.55879
loop_
_atom_site_label
_atom_site_type_symbol
_atom_site_fract_x
_atom_site_fract_y
_atom_site_fract_z
_atom_type_partial_charge
Dy0 Dy -0.01052 0.95839 0.06821 0.0
Dy1 Dy -0.0291 0.02135 1.01364 0.0
C2 C 0.08165 0.04393 1.01013 0.0
O3 O 0.04199 0.04808 0.09071 0.0
O4 O -0.00985 0.06432 0.06787 0.0
O5 O 0.04421 0.96589 0.10631 0.0
O6 O 0.956 0.88236 0.09555 0.0
O7 O 0.88727 0.95631 0.04198 0.0
O8 O 0.92091 0.94777 0.09277 0.0
O9 O 0.95901 0.95573 0.98054 0.0
O10 O 0.9251 0.89221 1.02516 0.0
O11 O 0.92464 0.01463 0.96851 0.0
O12 O 0.00292 0.09946 0.99084 0.0
C13 C 0.02711 0.07586 0.09181 0.0
O14 O 0.05261 -0.0067 1.02402 0.0
O15 O 0.06302 0.06807 1.01269 0.0
C16 C 0.02467 0.88197 0.11443 0.0
C17 C 0.0643 0.83126 0.12855 0.0
C18 C 0.10133 0.88639 0.11379 0.0
C19 C 0.08168 0.91153 0.1067 0.0
C20 C -0.01286 0.8261 0.12796 0.0
C21 C 0.00666 0.80082 0.13481 0.0
C22 C 0.0053 0.91061 0.11237 0.0
C23 C 0.88097 0.94033 0.07553 0.0
C24 C 0.92902 0.90311 0.99076 0.0
C25 C 0.93481 0.09243 0.96049 0.0
C26 C 0.88338 0.12986 0.94184 0.0
C27 C 0.85809 0.08699 0.96755 0.0
C28 C 0.88364 0.06831 0.97681 0.0
C29 C 0.96093 0.13624 0.93571 0.0
C30 C 0.93549 0.15486 0.92644 0.0
C31 C 0.96028 0.0707 0.96695 0.0
H32 H 0.14576 0.91046 0.10829 0.0
H33 H 0.11164 0.95469 0.0962 0.0
H34 H 0.94319 0.80275 0.13444 0.0
H35 H -0.02268 0.75847 0.14647 0.0
H36 H 0.81776 0.06676 0.97969 0.0
H37 H 0.86292 0.03434 0.99603 0.0
H38 H 0.00056 0.15537 0.92298 0.0
H39 H 0.95648 0.18866 0.90707 0.0
Dy40 Dy 0.00631 -0.01563 0.51388 0.0
Dy41 Dy 0.96574 0.01387 0.58286 0.0
C42 C 0.93121 0.89571 0.57713 0.0
O43 O 0.93945 0.97774 0.49092 0.0
O44 O 0.89115 0.95989 0.54262 0.0
O45 O -0.01348 0.92956 0.46831 0.0
O46 O 0.07492 0.01207 0.48028 0.0
O47 O -0.00565 0.07744 0.54155 0.0
O48 O 0.05551 0.07797 0.51182 0.0
O49 O 0.05655 0.05903 0.59491 0.0
O50 O 0.05637 -0.00107 0.56231 0.0
O51 O -0.01525 0.07449 0.6231 0.0
O52 O 0.90357 -0.01662 0.62373 0.0
C53 C 0.89379 0.95932 0.50707 0.0
O54 O 0.93852 0.90084 0.54196 0.0
O55 O 0.95093 0.93945 0.59837 0.0
C56 C 0.06215 0.93815 0.45155 0.0
C57 C 0.10435 0.89136 0.42992 0.0
C58 C 0.04459 0.85519 0.43269 0.0
C59 C 0.02366 0.87836 0.44338 0.0
C60 C 0.12183 0.97418 0.44865 0.0
C61 C 0.14268 0.95105 0.43811 0.0
C62 C 0.04079 0.96418 0.46025 0.0
C63 C 0.03648 0.10113 0.51917 0.0
C64 C 0.07727 0.03732 0.58881 0.0
C65 C 0.90487 0.05112 0.64798 0.0
C66 C 0.85046 0.08515 0.66863 0.0
C67 C 0.86429 0.08745 0.63222 0.0
C68 C 0.89128 0.07047 0.62194 0.0
C69 C 0.89047 0.04796 0.6841 0.0
C70 C 0.86348 0.06479 0.69438 0.0
C71 C 0.93508 0.03511 0.63846 0.0
H72 H 0.01404 0.80896 0.42677 0.0
H73 H -0.02264 0.84951 0.44487 0.0
H74 H 0.15254 0.02058 0.45399 0.0
H75 H 0.1889 0.98021 0.43563 0.0
H76 H 0.85419 0.1023 0.61169 0.0
H77 H 0.90195 0.07287 0.59386 0.0
H78 H 0.90082 0.03316 0.7045 0.0
H79 H 0.85413 0.06321 0.72268 0.0
Zn80 Zn 0.31547 0.61539 0.22273 0.0
Zn81 Zn 0.34527 0.66377 0.36458 0.0
Zn82 Zn 0.33309 0.63849 0.29385 0.0
C83 C 0.45467 0.72288 0.33866 0.0
C84 C 0.27201 0.54376 0.35592 0.0
O85 O 0.2938 0.6656 0.26996 0.0
O86 O 0.27165 0.63393 0.2125 0.0
C87 C 0.43531 0.6986 0.23711 0.0
O88 O 0.426 0.69804 0.30831 0.0
O89 O 0.42958 0.71506 0.36732 0.0
O90 O 0.29195 0.58249 0.38004 0.0
O91 O 0.28378 0.55677 0.32236 0.0
O92 O 0.39856 0.6737 0.21113 0.0
O93 O 0.41906 0.6891 0.27019 0.0
O94 O 0.27632 0.54437 0.28485 0.0
O95 O 0.27152 0.53273 0.22504 0.0
C96 C 0.25837 0.5119 0.25608 0.0
O97 O 0.29948 0.67643 0.30757 0.0
O98 O 0.31835 0.70092 0.36619 0.0
C99 C 0.27168 0.65916 0.23872 0.0
C100 C 0.29806 0.69851 0.33627 0.0
Zn101 Zn 0.6581 0.37352 0.86235 0.0
Zn102 Zn 0.61097 0.32407 0.72316 0.0
Zn103 Zn 0.63173 0.34856 0.79283 0.0
C104 C 0.67232 0.43989 0.73195 0.0
C105 C 0.50448 0.2528 0.75588 0.0
O106 O 0.67363 0.32175 0.81108 0.0
O107 O 0.6815 0.33372 0.8709 0.0
C108 C 0.72041 0.47791 0.8298 0.0
O109 O 0.67563 0.42974 0.7648 0.0
O110 O 0.64208 0.39909 0.70816 0.0
O111 O 0.52628 0.25745 0.72632 0.0
O112 O 0.53717 0.28544 0.78376 0.0
O113 O 0.71887 0.45895 0.85959 0.0
O114 O 0.68894 0.44291 0.80231 0.0
O115 O 0.5493 0.29841 0.82144 0.0
O116 O 0.58018 0.33415 0.87774 0.0
C117 C 0.53896 0.30072 0.85465 0.0
O118 O 0.66519 0.31276 0.77352 0.0
O119 O 0.65763 0.30845 0.7136 0.0
C120 C 0.68755 0.31714 0.84225 0.0
C121 C 0.67369 0.3023 0.74213 0.0
C122 C 0.13936 0.8416 0.15887 0.0
C123 C 0.08644 0.80686 0.13935 0.0
C124 C 0.1591 0.81809 0.1707 0.0
C125 C 0.12618 0.75925 0.1632 0.0
C126 C 0.074 0.72496 0.14295 0.0
C127 C 0.05403 0.74835 0.13138 0.0
C128 C 0.14581 0.73268 0.17481 0.0
C129 C 0.1801 0.7512 0.20443 0.0
C130 C 0.20085 0.72525 0.21513 0.0
C131 C 0.25236 0.75901 0.23615 0.0
C132 C 0.27504 0.73717 0.24473 0.0
C133 C 0.24602 0.68094 0.23283 0.0
H134 H 0.12982 0.6396 0.18965 0.0
C135 C 0.19367 0.64647 0.21291 0.0
C136 C 0.17086 0.66805 0.20448 0.0
H137 H 0.1704 0.60273 0.20373 0.0
H138 H 0.1651 0.88679 0.16555 0.0
H139 H 0.20042 0.84636 0.18523 0.0
H140 H 0.04823 0.6797 0.13641 0.0
H141 H 0.01337 0.72076 0.11607 0.0
H142 H 0.13073 0.69619 0.15818 0.0
H143 H 0.19519 0.78783 0.22093 0.0
H144 H 0.27595 0.80291 0.2451 0.0
H145 H 0.31582 0.76462 0.25989 0.0
C146 C 0.14285 0.09121 0.64409 0.0
C147 C 0.12314 0.05428 0.61346 0.0
C148 C 0.18532 0.10607 0.66777 0.0
C149 C 0.20883 0.0841 0.66128 0.0
C150 C 0.18904 0.04727 0.63066 0.0
C151 C 0.14659 0.03233 0.6071 0.0
C152 C 0.25702 0.10171 0.68377 0.0
C153 C 0.27278 0.12617 0.71754 0.0
C154 C 0.32703 0.15068 0.73568 0.0
C155 C 0.36066 0.20223 0.75709 0.0
C156 C 0.4178 0.23348 0.76722 0.0
C157 C 0.44153 0.2132 0.75609 0.0
H158 H 0.32311 0.08603 0.71385 0.0
C159 C 0.40593 0.15863 0.73831 0.0
C160 C 0.34886 0.12715 0.72865 0.0
H161 H 0.42333 0.14192 0.72993 0.0
H162 H 0.12565 0.10887 0.64979 0.0
H163 H 0.20036 0.13581 0.69043 0.0
H164 H 0.20675 0.03014 0.62479 0.0
H165 H 0.13239 0.00371 0.58383 0.0
H166 H 0.28228 0.09611 0.67079 0.0
H167 H 0.24913 0.13355 0.73073 0.0
H168 H 0.34441 0.22068 0.76346 0.0
H169 H 0.4447 0.27559 0.781 0.0
C170 C 0.03162 0.14468 0.12783 0.0
C171 C 0.05379 0.12163 0.12045 0.0
C172 C 0.05785 0.18851 0.15474 0.0
C173 C 0.10695 0.21023 0.1746 0.0
C174 C 0.12876 0.18694 0.16727 0.0
C175 C 0.10221 0.14278 0.14077 0.0
C176 C 0.14024 0.26131 0.20006 0.0
C177 C 0.11631 0.27484 0.21915 0.0
C178 C 0.15139 0.33245 0.23791 0.0
C179 C 0.12648 0.35324 0.2423 0.0
C180 C 0.16099 0.4115 0.25205 0.0
C181 C 0.22069 0.44948 0.25801 0.0
H182 H 0.23082 0.35469 0.24641 0.0
C183 C 0.24487 0.42787 0.25704 0.0
C184 C 0.21035 0.36951 0.24768 0.0
H185 H 0.29105 0.45684 0.2614 0.0
H186 H -0.00568 0.12922 0.11266 0.0
H187 H 0.0409 0.20669 0.15891 0.0
H188 H 0.16695 0.20345 0.18184 0.0
H189 H 0.12052 0.1261 0.13575 0.0
H190 H 0.18668 0.28999 0.20129 0.0
H191 H 0.06966 0.24539 0.21769 0.0
H192 H 0.08112 0.32559 0.23545 0.0
H193 H 0.14181 0.42778 0.25224 0.0
C194 C 0.84456 0.1568 0.66655 0.0
C195 C 0.82438 0.10569 0.68013 0.0
C196 C 0.8219 0.17764 0.67847 0.0
C197 C 0.77874 0.148 0.70453 0.0
C198 C 0.75757 0.09617 0.71741 0.0
C199 C 0.78033 0.07536 0.70552 0.0
C200 C 0.75323 0.1686 0.71756 0.0
C201 C 0.78198 0.22472 0.71762 0.0
C202 C 0.75497 0.24504 0.72651 0.0
C203 C 0.77572 0.29452 0.70974 0.0
C204 C 0.74963 0.3135 0.7154 0.0
C205 C 0.70326 0.28425 0.73872 0.0
H206 H 0.69299 0.17895 0.76469 0.0
C207 C 0.68333 0.2358 0.75649 0.0
C208 C 0.70902 0.21625 0.75048 0.0
H209 H 0.64736 0.21258 0.77449 0.0
H210 H 0.87858 0.18128 0.64707 0.0
H211 H 0.8379 0.21652 0.66676 0.0
H212 H 0.72367 0.07196 0.737 0.0
H213 H 0.76321 0.03533 0.71607 0.0
H214 H 0.70919 0.13618 0.72685 0.0
H215 H 0.82617 0.25709 0.70861 0.0
H216 H 0.8112 0.31763 0.69133 0.0
H217 H 0.76546 0.35091 0.70136 0.0
C218 C 0.82062 0.89755 0.13084 0.0
C219 C 0.82852 0.91523 0.09503 0.0
C220 C 0.7714 0.87418 0.14943 0.0
C221 C 0.72882 0.86809 0.13263 0.0
C222 C 0.73684 0.88571 0.0968 0.0
C223 C 0.78601 0.90905 0.07823 0.0
C224 C 0.67469 0.84223 0.15056 0.0
C225 C 0.66385 0.82993 0.18599 0.0
C226 C 0.60759 0.8014 0.20169 0.0
C227 C 0.58668 0.76467 0.23086 0.0
C228 C 0.53138 0.73292 0.24379 0.0
C229 C 0.49666 0.73827 0.22822 0.0
H230 H 0.5891 0.83845 0.166 0.0
C231 C 0.51864 0.77716 0.20037 0.0
C232 C 0.5737 0.80884 0.18745 0.0
H233 H 0.49257 0.78208 0.188 0.0
H234 H 0.8524 0.90149 0.14461 0.0
H235 H 0.76706 0.86044 0.17665 0.0
H236 H 0.70483 0.88142 0.083 0.0
H237 H 0.79061 0.92224 0.05071 0.0
H238 H 0.6415 0.83182 0.13312 0.0
H239 H 0.69524 0.83794 0.20387 0.0
H240 H 0.61199 0.75837 0.24249 0.0
H241 H 0.51442 0.70159 0.26427 0.0
C242 C 0.8942 0.83513 0.63157 0.0
C243 C 0.90054 0.83981 0.5938 0.0
C244 C 0.86386 0.78237 0.64767 0.0
C245 C 0.83932 0.73291 0.62638 0.0
C246 C 0.84569 0.73755 0.58865 0.0
C247 C 0.87619 0.79048 0.5725 0.0
C248 C 0.80421 0.67531 0.64229 0.0
C249 C 0.80844 0.66798 0.67743 0.0
C250 C 0.77167 0.60975 0.69271 0.0
C251 C 0.79319 0.60243 0.72192 0.0
C252 C 0.76039 0.5474 0.73557 0.0
C253 C 0.70498 0.49907 0.72079 0.0
H254 H 0.69647 0.56583 0.65717 0.0
C255 C 0.68262 0.50681 0.69253 0.0
C256 C 0.71541 0.56155 0.67875 0.0
H257 H 0.63985 0.47026 0.68075 0.0
H258 H 0.91205 0.87211 0.64887 0.0
H259 H 0.85854 0.78046 0.67665 0.0
H260 H 0.82679 0.70001 0.57155 0.0
H261 H 0.88009 0.7925 0.54334 0.0
H262 H 0.77488 0.63751 0.6239 0.0
H263 H 0.8416 0.70538 0.69527 0.0
H264 H 0.83624 0.63896 0.73336 0.0
H265 H 0.77937 0.5423 0.7565 0.0
C266 C 0.10107 0.82674 0.38909 0.0
C267 C 0.12712 0.86744 0.41834 0.0
C268 C 0.12431 0.80622 0.37746 0.0
C269 C 0.1741 0.82604 0.395 0.0
C270 C 0.19921 0.86584 0.42463 0.0
C271 C 0.17618 0.8864 0.4361 0.0
C272 C 0.2014 0.80646 0.38417 0.0
C273 C 0.18999 0.77719 0.35299 0.0
C274 C 0.22034 0.76022 0.34464 0.0
C275 C 0.19077 0.70745 0.3257 0.0
C276 C 0.21686 0.68799 0.32129 0.0
C277 C 0.27315 0.72166 0.33525 0.0
H278 H 0.30304 0.83733 0.3698 0.0
C279 C 0.3038 0.7758 0.35225 0.0
C280 C 0.278 0.79526 0.35653 0.0
H281 H 0.34746 0.8026 0.36297 0.0
H282 H 0.06331 0.81152 0.37478 0.0
H283 H 0.1028 0.7748 0.35498 0.0
H284 H 0.23725 0.88157 0.4389 0.0
H285 H 0.19674 0.91705 0.45907 0.0
H286 H 0.23337 0.81738 0.40331 0.0
H287 H 0.15677 0.7634 0.33382 0.0
H288 H 0.14665 0.68011 0.31577 0.0
H289 H 0.19238 0.64584 0.30828 0.0
C290 C 0.15468 0.04923 0.9817 0.0
C291 C 0.13588 0.07521 0.99075 0.0
C292 C 0.20526 0.07958 0.96217 0.0
C293 C 0.23778 0.13646 0.95143 0.0
C294 C 0.21898 0.16216 0.96085 0.0
C295 C 0.16877 0.13203 0.98006 0.0
C296 C 0.2933 0.17247 0.93245 0.0
C297 C 0.31089 0.15191 0.91376 0.0
C298 C 0.36877 0.19138 0.89719 0.0
C299 C 0.3777 0.17196 0.86701 0.0
C300 C 0.43259 0.20797 0.85209 0.0
C301 C 0.47942 0.26398 0.86715 0.0
H302 H 0.4119 0.26352 0.93629 0.0
C303 C 0.47037 0.28326 0.89726 0.0
C304 C 0.41601 0.24746 0.91221 0.0
H305 H 0.50583 0.32589 0.90985 0.0
H306 H 0.1303 0.00552 0.98956 0.0
H307 H 0.21911 0.05876 0.95619 0.0
H308 H 0.24332 0.20602 0.95331 0.0
H309 H 0.15591 0.1537 0.98657 0.0
H310 H 0.32046 0.21883 0.93318 0.0
H311 H 0.28214 0.10547 0.9097 0.0
H312 H 0.34236 0.12867 0.85522 0.0
H313 H 0.43884 0.19119 0.82978 0.0
C314 C 0.09951 0.17488 0.47196 0.0
C315 C 0.06208 0.15436 0.50086 0.0
C316 C 0.12224 0.22412 0.45393 0.0
C317 C 0.10808 0.25397 0.46451 0.0
C318 C 0.07146 0.23396 0.49372 0.0
C319 C 0.04833 0.18448 0.51152 0.0
C320 C 0.13275 0.30765 0.44711 0.0
C321 C 0.15019 0.32026 0.41257 0.0
C322 C 0.17685 0.37541 0.39611 0.0
C323 C 0.21273 0.39539 0.36636 0.0
C324 C 0.2422 0.44934 0.35214 0.0
C325 C 0.23585 0.48392 0.36724 0.0
H326 H 0.1391 0.39439 0.43153 0.0
C327 C 0.19802 0.4629 0.39579 0.0
C328 C 0.16831 0.40901 0.40983 0.0
H329 H 0.19191 0.48858 0.40761 0.0
H330 H 0.1111 0.15277 0.46309 0.0
H331 H 0.15172 0.23917 0.43229 0.0
H332 H 0.06034 0.25649 0.50268 0.0
H333 H 0.01981 0.17003 0.53373 0.0
H334 H 0.13627 0.33759 0.46386 0.0
H335 H 0.14678 0.29023 0.39597 0.0
H336 H 0.21972 0.37025 0.35497 0.0
H337 H 0.27218 0.4653 0.33069 0.0
C338 C 0.85159 0.155 0.89349 0.0
C339 C 0.85508 0.14771 0.93034 0.0
C340 C 0.82547 0.17234 0.88246 0.0
C341 C 0.8027 0.18331 0.90821 0.0
C342 C 0.80546 0.17512 0.94497 0.0
C343 C 0.83139 0.15755 0.95596 0.0
C344 C 0.77458 0.20199 0.89808 0.0
C345 C 0.7809 0.22471 0.86611 0.0
C346 C 0.75387 0.24512 0.85797 0.0
C347 C 0.78035 0.28994 0.8337 0.0
C348 C 0.75797 0.3127 0.82757 0.0
C349 C 0.70851 0.29042 0.84539 0.0
H350 H 0.6796 0.18517 0.89209 0.0
C351 C 0.68083 0.24439 0.86858 0.0
C352 C 0.70276 0.22135 0.87447 0.0
H353 H 0.64227 0.22641 0.88232 0.0
H354 H 0.86837 0.14645 0.87305 0.0
H355 H 0.8226 0.17611 0.85377 0.0
H356 H 0.7879 0.18281 0.96538 0.0
H357 H 0.83367 0.15254 0.98456 0.0
H358 H 0.74992 0.19954 0.91893 0.0
H359 H 0.80969 0.23253 0.84624 0.0
H360 H 0.81927 0.30843 0.82024 0.0
H361 H 0.77995 0.34847 0.80966 0.0
C362 C 0.84465 0.93249 0.44633 0.0
C363 C 0.8446 0.93848 0.4842 0.0
C364 C 0.79851 0.91291 0.42446 0.0
C365 C 0.75117 0.89876 0.44 0.0
C366 C 0.75156 0.9057 0.47773 0.0
C367 C 0.7976 0.92501 0.49967 0.0
C368 C 0.70103 0.87736 0.41783 0.0
C369 C 0.68417 0.84839 0.38558 0.0
C370 C 0.6294 0.82119 0.36686 0.0
C371 C 0.5943 0.76605 0.34978 0.0
C372 C 0.53802 0.7351 0.33771 0.0
C373 C 0.51696 0.75971 0.34161 0.0
H374 H 0.63621 0.8904 0.38048 0.0
C375 C 0.55352 0.81651 0.35609 0.0
C376 C 0.6095 0.84725 0.36839 0.0
H377 H 0.53767 0.83589 0.35969 0.0
H378 H 0.88038 0.9429 0.43344 0.0
H379 H 0.80059 0.90974 0.39542 0.0
H380 H 0.71577 0.89551 0.49035 0.0
H381 H 0.79638 0.92955 0.52868 0.0
H382 H 0.67421 0.88153 0.43004 0.0
H383 H 0.70694 0.83848 0.37481 0.0
H384 H 0.60884 0.74523 0.34818 0.0
H385 H 0.5097 0.69053 0.32783 0.0
C386 C 0.91804 0.86692 0.92733 0.0
C387 C 0.89923 0.85545 0.96317 0.0
C388 C 0.89021 0.8214 0.90147 0.0
C389 C 0.84247 0.76379 0.91095 0.0
C390 C 0.82269 0.75266 0.94644 0.0
C391 C 0.85122 0.79791 0.97243 0.0
C392 C 0.81314 0.71399 0.88502 0.0
C393 C 0.8422 0.71165 0.86124 0.0
C394 C 0.81487 0.65536 0.84446 0.0
C395 C 0.8432 0.6383 0.84828 0.0
C396 C 0.81331 0.58069 0.84098 0.0
C397 C 0.75542 0.53998 0.82848 0.0
H398 H 0.73583 0.62815 0.82583 0.0
C399 C 0.72884 0.55825 0.82109 0.0
C400 C 0.75825 0.61562 0.82937 0.0
H401 H 0.68406 0.52727 0.81158 0.0
H402 H 0.95484 0.91095 0.91942 0.0
H403 H 0.90583 0.83131 0.87414 0.0
H404 H 0.78589 0.7086 0.95434 0.0
H405 H 0.83537 0.78785 0.99973 0.0
H406 H 0.76791 0.67481 0.88944 0.0
H407 H 0.8888 0.74832 0.85963 0.0
H408 H 0.88685 0.66831 0.85979 0.0
H409 H 0.8344 0.56722 0.84691 0.0
loop_
_geom_bond_atom_site_label_1
_geom_bond_atom_site_label_2
_geom_bond_distance
_geom_bond_site_symmetry_2
_ccdc_geom_bond_type
Dy0 O3 2.307 1_565 S
Dy0 O5 2.395 . S
Dy0 O6 2.379 . S
Dy0 O8 2.339 1_455 S
Dy0 O10 2.290 1_454 S
Dy0 O14 2.275 1_564 S
Dy0 C22 2.738 . S
Dy1 O4 2.298 1_656 S
Dy1 O7 2.275 1_546 S
Dy1 O9 2.307 1_545 S
Dy1 O11 2.395 . S
Dy1 O12 2.379 . S
Dy1 O15 2.339 1_655 S
Dy1 C31 2.738 . S
C2 O14 1.254 . S
C2 O15 1.257 . S
O3 Dy0 2.307 1_545 S
O3 C13 1.266 . S
O4 Dy1 2.298 1_454 S
O4 C13 1.236 . S
O5 Dy0 2.395 . S
O5 C22 1.255 . S
O6 Dy0 2.379 . S
O6 C22 1.249 . S
O7 Dy1 2.275 1_564 S
O7 C23 1.254 . S
O8 Dy0 2.339 1_655 S
O8 C23 1.257 . S
O9 Dy1 2.307 1_565 S
O9 C24 1.266 . S
O10 Dy0 2.290 1_656 S
O10 C24 1.248 . S
O11 Dy1 2.395 . S
O11 C31 1.255 . S
O12 Dy1 2.379 . S
O12 C31 1.249 . S
C13 O3 1.266 . S
C13 O4 1.236 . S
O14 Dy0 2.275 1_546 S
O14 C2 1.254 . S
O15 Dy1 2.339 1_455 S
O15 C2 1.257 . S
C16 C19 1.344 . S
C16 C20 1.328 . S
C16 C22 1.516 . S
C17 C18 1.304 . S
C17 C21 1.323 . S
C18 C17 1.304 . S
C18 C19 1.371 . S
C18 H32 0.930 . S
C19 C16 1.344 . S
C19 C18 1.371 . S
C19 H33 0.931 . S
C20 C16 1.328 . S
C20 C21 1.433 . S
C20 H34 0.931 . S
C21 C17 1.323 . S
C21 C20 1.433 . S
C21 H35 0.933 . S
C22 Dy0 2.738 . S
C22 O5 1.255 . S
C22 O6 1.249 . S
C22 C16 1.516 . S
C23 O7 1.254 . S
C23 O8 1.257 . S
C24 O9 1.266 . S
C24 O10 1.248 . S
C25 C28 1.344 . S
C25 C29 1.328 . S
C25 C31 1.516 . S
C26 C27 1.304 . S
C26 C30 1.323 . S
C27 C26 1.304 . S
C27 C28 1.371 . S
C27 H36 0.930 . S
C28 C25 1.344 . S
C28 C27 1.371 . S
C28 H37 0.931 . S
C29 C25 1.328 . S
C29 C30 1.433 . S
C29 H38 0.931 . S
C30 C26 1.323 . S
C30 C29 1.433 . S
C30 H39 0.933 . S
C31 Dy1 2.738 . S
C31 O11 1.255 . S
C31 O12 1.249 . S
C31 C25 1.516 . S
H32 C18 0.930 . S
H33 C19 0.931 . S
H34 C20 0.931 . S
H35 C21 0.933 . S
H36 C27 0.930 . S
H37 C28 0.931 . S
H38 C29 0.931 . S
H39 C30 0.933 . S
Dy40 O43 2.307 1_455 S
Dy40 O45 2.395 . S
Dy40 O46 2.379 1_565 S
Dy40 O48 2.339 1_565 S
Dy40 O50 2.298 1_565 S
Dy40 O54 2.275 1_455 S
Dy40 C62 2.738 . S
Dy41 O44 2.298 1_445 S
Dy41 O47 2.275 . S
Dy41 O49 2.307 . S
Dy41 O51 2.395 1_455 S
Dy41 O52 2.379 1_455 S
Dy41 O55 2.339 1_445 S
Dy41 C71 2.738 1_455 S
C42 O54 1.254 . S
C42 O55 1.257 . S
O43 Dy40 2.307 1_655 S
O43 C53 1.266 . S
O44 Dy41 2.298 1_665 S
O44 C53 1.236 . S
O45 Dy40 2.395 . S
O45 C62 1.255 . S
O46 Dy40 2.379 1_545 S
O46 C62 1.249 1_545 S
O47 Dy41 2.275 . S
O47 C63 1.254 . S
O48 Dy40 2.339 1_545 S
O48 C63 1.257 . S
O49 Dy41 2.307 . S
O49 C64 1.266 . S
O50 Dy40 2.298 1_545 S
O50 C64 1.236 . S
O51 Dy41 2.395 1_655 S
O51 C71 1.255 . S
O52 Dy41 2.379 1_655 S
O52 C71 1.249 . S
C53 O43 1.266 . S
C53 O44 1.236 . S
O54 Dy40 2.275 1_655 S
O54 C42 1.254 . S
O55 Dy41 2.339 1_665 S
O55 C42 1.257 . S
C56 C59 1.344 . S
C56 C60 1.328 . S
C56 C62 1.516 . S
C57 C58 1.304 . S
C57 C61 1.323 . S
C58 C57 1.304 . S
C58 C59 1.371 . S
C58 H72 0.930 . S
C59 C56 1.344 . S
C59 C58 1.371 . S
C59 H73 0.931 . S
C60 C56 1.328 . S
C60 C61 1.433 . S
C60 H74 0.931 . S
C61 C57 1.323 . S
C61 C60 1.433 . S
C61 H75 0.933 . S
C62 Dy40 2.738 . S
C62 O45 1.255 . S
C62 O46 1.249 1_565 S
C62 C56 1.516 . S
C63 O47 1.254 . S
C63 O48 1.257 . S
C64 O49 1.266 . S
C64 O50 1.236 . S
C65 C68 1.344 . S
C65 C69 1.328 . S
C65 C71 1.516 . S
C66 C67 1.304 . S
C66 C70 1.323 . S
C67 C66 1.304 . S
C67 C68 1.371 . S
C67 H76 0.930 . S
C68 C65 1.344 . S
C68 C67 1.371 . S
C68 H77 0.931 . S
C69 C65 1.328 . S
C69 C70 1.433 . S
C69 H78 0.931 . S
C70 C66 1.323 . S
C70 C69 1.433 . S
C70 H79 0.933 . S
C71 Dy41 2.738 1_655 S
C71 O51 1.255 . S
C71 O52 1.249 . S
C71 C65 1.516 . S
H72 C58 0.930 . S
H73 C59 0.931 . S
H74 C60 0.931 . S
H75 C61 0.933 . S
H76 C67 0.930 . S
H77 C68 0.931 . S
H78 C69 0.931 . S
H79 C70 0.933 . S
Zn80 O86 1.920 . S
Zn80 O92 1.898 . S
Zn80 O95 1.905 . S
Zn81 O89 1.905 . S
Zn81 O90 1.898 . S
Zn81 O98 1.920 . S
Zn82 O85 2.080 . S
Zn82 O88 2.114 . S
Zn82 O91 2.120 . S
Zn82 O93 2.120 . S
Zn82 O94 2.114 . S
Zn82 O97 2.080 . S
C83 O88 1.166 . S
C83 O89 1.182 . S
C84 O90 1.167 . S
C84 O91 1.299 . S
O85 Zn82 2.080 . S
O85 C99 1.305 . S
O86 Zn80 1.920 . S
O86 C99 1.234 . S
C87 O92 1.167 . S
C87 O93 1.299 . S
O88 Zn82 2.114 . S
O88 C83 1.166 . S
O89 Zn81 1.905 . S
O89 C83 1.182 . S
O90 Zn81 1.898 . S
O90 C84 1.167 . S
O91 Zn82 2.120 . S
O91 C84 1.299 . S
O92 Zn80 1.898 . S
O92 C87 1.167 . S
O93 Zn82 2.120 . S
O93 C87 1.299 . S
O94 Zn82 2.114 . S
O94 C96 1.166 . S
O95 Zn80 1.905 . S
O95 C96 1.182 . S
C96 O94 1.166 . S
C96 O95 1.182 . S
O97 Zn82 2.080 . S
O97 C100 1.305 . S
O98 Zn81 1.920 . S
O98 C100 1.234 . S
C99 O85 1.305 . S
C99 O86 1.234 . S
C100 O97 1.305 . S
C100 O98 1.234 . S
Zn101 O107 1.920 . S
Zn101 O113 1.898 . S
Zn101 O116 1.905 . S
Zn102 O110 1.905 . S
Zn102 O111 1.898 . S
Zn102 O119 1.920 . S
Zn103 O106 2.080 . S
Zn103 O109 2.114 . S
Zn103 O112 2.120 . S
Zn103 O114 2.120 . S
Zn103 O115 2.114 . S
Zn103 O118 2.080 . S
C104 O109 1.166 . S
C104 O110 1.182 . S
C105 O111 1.167 . S
C105 O112 1.299 . S
O106 Zn103 2.080 . S
O106 C120 1.305 . S
O107 Zn101 1.920 . S
O107 C120 1.234 . S
C108 O113 1.167 . S
C108 O114 1.299 . S
O109 Zn103 2.114 . S
O109 C104 1.166 . S
O110 Zn102 1.905 . S
O110 C104 1.182 . S
O111 Zn102 1.898 . S
O111 C105 1.167 . S
O112 Zn103 2.120 . S
O112 C105 1.299 . S
O113 Zn101 1.898 . S
O113 C108 1.167 . S
O114 Zn103 2.120 . S
O114 C108 1.299 . S
O115 Zn103 2.114 . S
O115 C117 1.166 . S
O116 Zn101 1.905 . S
O116 C117 1.182 . S
C117 O115 1.166 . S
C117 O116 1.182 . S
O118 Zn103 2.080 . S
O118 C121 1.305 . S
O119 Zn102 1.920 . S
O119 C121 1.234 . S
C120 O106 1.305 . S
C120 O107 1.234 . S
C121 O118 1.305 . S
C121 O119 1.234 . S
C122 C123 1.386 . S
C122 C124 1.383 . S
C122 H138 0.951 . S
C123 C122 1.386 . S
C123 C127 1.383 . S
C124 C122 1.383 . S
C124 C125 1.402 . S
C124 H139 0.951 . S
C125 C124 1.402 . S
C125 C126 1.375 . S
C125 C128 1.481 . S
C126 C125 1.375 . S
C126 C127 1.367 . S
C126 H140 0.951 . S
C127 C123 1.383 . S
C127 C126 1.367 . S
C127 H141 0.950 . S
C128 C125 1.481 . S
C128 C129 1.297 . S
C128 H142 0.950 . S
C129 C128 1.297 . S
C129 C130 1.479 . S
C129 H143 0.950 . S
C130 C129 1.479 . S
C130 C131 1.375 . S
C130 C136 1.404 . S
C131 C130 1.375 . S
C131 C132 1.369 . S
C131 H144 0.950 . S
C132 C131 1.369 . S
C132 C133 1.392 . S
C132 H145 0.951 . S
C133 C132 1.392 . S
C133 C135 1.384 . S
H134 C136 0.949 . S
C135 C133 1.384 . S
C135 C136 1.385 . S
C135 H137 0.950 . S
C136 C130 1.404 . S
C136 H134 0.949 . S
C136 C135 1.385 . S
H137 C135 0.950 . S
H138 C122 0.951 . S
H139 C124 0.951 . S
H140 C126 0.951 . S
H141 C127 0.950 . S
H142 C128 0.950 . S
H143 C129 0.950 . S
H144 C131 0.950 . S
H145 C132 0.951 . S
C146 C147 1.386 . S
C146 C148 1.383 . S
C146 H162 0.951 . S
C147 C146 1.386 . S
C147 C151 1.383 . S
C148 C146 1.383 . S
C148 C149 1.402 . S
C148 H163 0.951 . S
C149 C148 1.402 . S
C149 C150 1.375 . S
C149 C152 1.481 . S
C150 C149 1.375 . S
C150 C151 1.367 . S
C150 H164 0.951 . S
C151 C147 1.383 . S
C151 C150 1.367 . S
C151 H165 0.950 . S
C152 C149 1.481 . S
C152 C153 1.297 . S
C152 H166 0.950 . S
C153 C152 1.297 . S
C153 C154 1.479 . S
C153 H167 0.950 . S
C154 C153 1.479 . S
C154 C155 1.375 . S
C154 C160 1.404 . S
C155 C154 1.375 . S
C155 C156 1.369 . S
C155 H168 0.950 . S
C156 C155 1.369 . S
C156 C157 1.392 . S
C156 H169 0.951 . S
C157 C156 1.392 . S
C157 C159 1.384 . S
H158 C160 0.949 . S
C159 C157 1.384 . S
C159 C160 1.385 . S
C159 H161 0.950 . S
C160 C154 1.404 . S
C160 H158 0.949 . S
C160 C159 1.385 . S
H161 C159 0.950 . S
H162 C146 0.951 . S
H163 C148 0.951 . S
H164 C150 0.951 . S
H165 C151 0.950 . S
H166 C152 0.950 . S
H167 C153 0.950 . S
H168 C155 0.950 . S
H169 C156 0.951 . S
C170 C171 1.386 . S
C170 C172 1.383 . S
C170 H186 0.951 . S
C171 C170 1.386 . S
C171 C175 1.383 . S
C172 C170 1.383 . S
C172 C173 1.402 . S
C172 H187 0.951 . S
C173 C172 1.402 . S
C173 C174 1.375 . S
C173 C176 1.481 . S
C174 C173 1.375 . S
C174 C175 1.367 . S
C174 H188 0.951 . S
C175 C171 1.383 . S
C175 C174 1.367 . S
C175 H189 0.950 . S
C176 C173 1.481 . S
C176 C177 1.297 . S
C176 H190 0.950 . S
C177 C176 1.297 . S
C177 C178 1.479 . S
C177 H191 0.950 . S
C178 C177 1.479 . S
C178 C179 1.375 . S
C178 C184 1.404 . S
C179 C178 1.375 . S
C179 C180 1.369 . S
C179 H192 0.950 . S
C180 C179 1.369 . S
C180 C181 1.392 . S
C180 H193 0.951 . S
C181 C180 1.392 . S
C181 C183 1.384 . S
H182 C184 0.949 . S
C183 C181 1.384 . S
C183 C184 1.385 . S
C183 H185 0.950 . S
C184 C178 1.404 . S
C184 H182 0.949 . S
C184 C183 1.385 . S
H185 C183 0.950 . S
H186 C170 0.951 . S
H187 C172 0.951 . S
H188 C174 0.951 . S
H189 C175 0.950 . S
H190 C176 0.950 . S
H191 C177 0.950 . S
H192 C179 0.950 . S
H193 C180 0.951 . S
C194 C195 1.386 . S
C194 C196 1.383 . S
C194 H210 0.951 . S
C195 C194 1.386 . S
C195 C199 1.383 . S
C196 C194 1.383 . S
C196 C197 1.402 . S
C196 H211 0.951 . S
C197 C196 1.402 . S
C197 C198 1.375 . S
C197 C200 1.481 . S
C198 C197 1.375 . S
C198 C199 1.367 . S
C198 H212 0.951 . S
C199 C195 1.383 . S
C199 C198 1.367 . S
C199 H213 0.950 . S
C200 C197 1.481 . S
C200 C201 1.297 . S
C200 H214 0.950 . S
C201 C200 1.297 . S
C201 C202 1.479 . S
C201 H215 0.950 . S
C202 C201 1.479 . S
C202 C203 1.375 . S
C202 C208 1.404 . S
C203 C202 1.375 . S
C203 C204 1.369 . S
C203 H216 0.950 . S
C204 C203 1.369 . S
C204 C205 1.392 . S
C204 H217 0.951 . S
C205 C204 1.392 . S
C205 C207 1.384 . S
H206 C208 0.949 . S
C207 C205 1.384 . S
C207 C208 1.385 . S
C207 H209 0.950 . S
C208 C202 1.404 . S
C208 H206 0.949 . S
C208 C207 1.385 . S
H209 C207 0.950 . S
H210 C194 0.951 . S
H211 C196 0.951 . S
H212 C198 0.951 . S
H213 C199 0.950 . S
H214 C200 0.950 . S
H215 C201 0.950 . S
H216 C203 0.950 . S
H217 C204 0.951 . S
C218 C219 1.386 . S
C218 C220 1.383 . S
C218 H234 0.951 . S
C219 C218 1.386 . S
C219 C223 1.383 . S
C220 C218 1.383 . S
C220 C221 1.402 . S
C220 H235 0.951 . S
C221 C220 1.402 . S
C221 C222 1.375 . S
C221 C224 1.481 . S
C222 C221 1.375 . S
C222 C223 1.367 . S
C222 H236 0.951 . S
C223 C219 1.383 . S
C223 C222 1.367 . S
C223 H237 0.950 . S
C224 C221 1.481 . S
C224 C225 1.297 . S
C224 H238 0.950 . S
C225 C224 1.297 . S
C225 C226 1.479 . S
C225 H239 0.950 . S
C226 C225 1.479 . S
C226 C227 1.375 . S
C226 C232 1.404 . S
C227 C226 1.375 . S
C227 C228 1.369 . S
C227 H240 0.950 . S
C228 C227 1.369 . S
C228 C229 1.392 . S
C228 H241 0.951 . S
C229 C228 1.392 . S
C229 C231 1.384 . S
H230 C232 0.949 . S
C231 C229 1.384 . S
C231 C232 1.385 . S
C231 H233 0.950 . S
C232 C226 1.404 . S
C232 H230 0.949 . S
C232 C231 1.385 . S
H233 C231 0.950 . S
H234 C218 0.951 . S
H235 C220 0.951 . S
H236 C222 0.951 . S
H237 C223 0.950 . S
H238 C224 0.950 . S
H239 C225 0.950 . S
H240 C227 0.950 . S
H241 C228 0.951 . S
C242 C243 1.386 . S
C242 C244 1.383 . S
C242 H258 0.951 . S
C243 C242 1.386 . S
C243 C247 1.383 . S
C244 C242 1.383 . S
C244 C245 1.402 . S
C244 H259 0.951 . S
C245 C244 1.402 . S
C245 C246 1.375 . S
C245 C248 1.481 . S
C246 C245 1.375 . S
C246 C247 1.367 . S
C246 H260 0.951 . S
C247 C243 1.383 . S
C247 C246 1.367 . S
C247 H261 0.950 . S
C248 C245 1.481 . S
C248 C249 1.297 . S
C248 H262 0.950 . S
C249 C248 1.297 . S
C249 C250 1.479 . S
C249 H263 0.950 . S
C250 C249 1.479 . S
C250 C251 1.375 . S
C250 C256 1.404 . S
C251 C250 1.375 . S
C251 C252 1.369 . S
C251 H264 0.950 . S
C252 C251 1.369 . S
C252 C253 1.392 . S
C252 H265 0.951 . S
C253 C252 1.392 . S
C253 C255 1.384 . S
H254 C256 0.949 . S
C255 C253 1.384 . S
C255 C256 1.385 . S
C255 H257 0.950 . S
C256 C250 1.404 . S
C256 H254 0.949 . S
C256 C255 1.385 . S
H257 C255 0.950 . S
H258 C242 0.951 . S
H259 C244 0.951 . S
H260 C246 0.951 . S
H261 C247 0.950 . S
H262 C248 0.950 . S
H263 C249 0.950 . S
H264 C251 0.950 . S
H265 C252 0.951 . S
C266 C267 1.386 . S
C266 C268 1.383 . S
C266 H282 0.951 . S
C267 C266 1.386 . S
C267 C271 1.383 . S
C268 C266 1.383 . S
C268 C269 1.402 . S
C268 H283 0.951 . S
C269 C268 1.402 . S
C269 C270 1.375 . S
C269 C272 1.481 . S
C270 C269 1.375 . S
C270 C271 1.367 . S
C270 H284 0.951 . S
C271 C267 1.383 . S
C271 C270 1.367 . S
C271 H285 0.950 . S
C272 C269 1.481 . S
C272 C273 1.297 . S
C272 H286 0.950 . S
C273 C272 1.297 . S
C273 C274 1.479 . S
C273 H287 0.950 . S
C274 C273 1.479 . S
C274 C275 1.375 . S
C274 C280 1.404 . S
C275 C274 1.375 . S
C275 C276 1.369 . S
C275 H288 0.950 . S
C276 C275 1.369 . S
C276 C277 1.392 . S
C276 H289 0.951 . S
C277 C276 1.392 . S
C277 C279 1.384 . S
H278 C280 0.949 . S
C279 C277 1.384 . S
C279 C280 1.385 . S
C279 H281 0.950 . S
C280 C274 1.404 . S
C280 H278 0.949 . S
C280 C279 1.385 . S
H281 C279 0.950 . S
H282 C266 0.951 . S
H283 C268 0.951 . S
H284 C270 0.951 . S
H285 C271 0.950 . S
H286 C272 0.950 . S
H287 C273 0.950 . S
H288 C275 0.950 . S
H289 C276 0.951 . S
C290 C291 1.386 . S
C290 C292 1.383 . S
C290 H306 0.951 . S
C291 C290 1.386 . S
C291 C295 1.383 . S
C292 C290 1.383 . S
C292 C293 1.402 . S
C292 H307 0.951 . S
C293 C292 1.402 . S
C293 C294 1.375 . S
C293 C296 1.481 . S
C294 C293 1.375 . S
C294 C295 1.367 . S
C294 H308 0.951 . S
C295 C291 1.383 . S
C295 C294 1.367 . S
C295 H309 0.950 . S
C296 C293 1.481 . S
C296 C297 1.297 . S
C296 H310 0.950 . S
C297 C296 1.297 . S
C297 C298 1.479 . S
C297 H311 0.950 . S
C298 C297 1.479 . S
C298 C299 1.375 . S
C298 C304 1.404 . S
C299 C298 1.375 . S
C299 C300 1.369 . S
C299 H312 0.950 . S
C300 C299 1.369 . S
C300 C301 1.392 . S
C300 H313 0.951 . S
C301 C300 1.392 . S
C301 C303 1.384 . S
H302 C304 0.949 . S
C303 C301 1.384 . S
C303 C304 1.385 . S
C303 H305 0.950 . S
C304 C298 1.404 . S
C304 H302 0.949 . S
C304 C303 1.385 . S
H305 C303 0.950 . S
H306 C290 0.951 . S
H307 C292 0.951 . S
H308 C294 0.951 . S
H309 C295 0.950 . S
H310 C296 0.950 . S
H311 C297 0.950 . S
H312 C299 0.950 . S
H313 C300 0.951 . S
C314 C315 1.386 . S
C314 C316 1.383 . S
C314 H330 0.951 . S
C315 C314 1.386 . S
C315 C319 1.383 . S
C316 C314 1.383 . S
C316 C317 1.402 . S
C316 H331 0.951 . S
C317 C316 1.402 . S
C317 C318 1.375 . S
C317 C320 1.481 . S
C318 C317 1.375 . S
C318 C319 1.367 . S
C318 H332 0.951 . S
C319 C315 1.383 . S
C319 C318 1.367 . S
C319 H333 0.950 . S
C320 C317 1.481 . S
C320 C321 1.297 . S
C320 H334 0.950 . S
C321 C320 1.297 . S
C321 C322 1.479 . S
C321 H335 0.950 . S
C322 C321 1.479 . S
C322 C323 1.375 . S
C322 C328 1.404 . S
C323 C322 1.375 . S
C323 C324 1.369 . S
C323 H336 0.950 . S
C324 C323 1.369 . S
C324 C325 1.392 . S
C324 H337 0.951 . S
C325 C324 1.392 . S
C325 C327 1.384 . S
H326 C328 0.949 . S
C327 C325 1.384 . S
C327 C328 1.385 . S
C327 H329 0.950 . S
C328 C322 1.404 . S
C328 H326 0.949 . S
C328 C327 1.385 . S
H329 C327 0.950 . S
H330 C314 0.951 . S
H331 C316 0.951 . S
H332 C318 0.951 . S
H333 C319 0.950 . S
H334 C320 0.950 . S
H335 C321 0.950 . S
H336 C323 0.950 . S
H337 C324 0.951 . S
C338 C339 1.386 . S
C338 C340 1.383 . S
C338 H354 0.951 . S
C339 C338 1.386 . S
C339 C343 1.383 . S
C340 C338 1.383 . S
C340 C341 1.402 . S
C340 H355 0.951 . S
C341 C340 1.402 . S
C341 C342 1.375 . S
C341 C344 1.481 . S
C342 C341 1.375 . S
C342 C343 1.367 . S
C342 H356 0.951 . S
C343 C339 1.383 . S
C343 C342 1.367 . S
C343 H357 0.950 . S
C344 C341 1.481 . S
C344 C345 1.297 . S
C344 H358 0.950 . S
C345 C344 1.297 . S
C345 C346 1.479 . S
C345 H359 0.950 . S
C346 C345 1.479 . S
C346 C347 1.375 . S
C346 C352 1.404 . S
C347 C346 1.375 . S
C347 C348 1.369 . S
C347 H360 0.950 . S
C348 C347 1.369 . S
C348 C349 1.392 . S
C348 H361 0.951 . S
C349 C348 1.392 . S
C349 C351 1.384 . S
H350 C352 0.949 . S
C351 C349 1.384 . S
C351 C352 1.385 . S
C351 H353 0.950 . S
C352 C346 1.404 . S
C352 H350 0.949 . S
C352 C351 1.385 . S
H353 C351 0.950 . S
H354 C338 0.951 . S
H355 C340 0.951 . S
H356 C342 0.951 . S
H357 C343 0.950 . S
H358 C344 0.950 . S
H359 C345 0.950 . S
H360 C347 0.950 . S
H361 C348 0.951 . S
C362 C363 1.386 . S
C362 C364 1.383 . S
C362 H378 0.951 . S
C363 C362 1.386 . S
C363 C367 1.383 . S
C364 C362 1.383 . S
C364 C365 1.402 . S
C364 H379 0.951 . S
C365 C364 1.402 . S
C365 C366 1.375 . S
C365 C368 1.481 . S
C366 C365 1.375 . S
C366 C367 1.367 . S
C366 H380 0.951 . S
C367 C363 1.383 . S
C367 C366 1.367 . S
C367 H381 0.950 1_565 S
C368 C365 1.481 . S
C368 C369 1.297 . S
C368 H382 0.950 . S
C369 C368 1.297 . S
C369 C370 1.479 . S
C369 H383 0.950 . S
C370 C369 1.479 . S
C370 C371 1.375 . S
C370 C376 1.404 . S
C371 C370 1.375 . S
C371 C372 1.369 . S
C371 H384 0.950 . S
C372 C371 1.369 . S
C372 C373 1.392 . S
C372 H385 0.951 . S
C373 C372 1.392 . S
C373 C375 1.384 . S
H374 C376 0.949 . S
C375 C373 1.384 . S
C375 C376 1.385 . S
C375 H377 0.950 . S
C376 C370 1.404 . S
C376 H374 0.949 . S
C376 C375 1.385 . S
H377 C375 0.950 . S
H378 C362 0.951 . S
H379 C364 0.951 . S
H380 C366 0.951 . S
H381 C367 0.950 1_545 S
H382 C368 0.950 . S
H383 C369 0.950 . S
H384 C371 0.950 . S
H385 C372 0.951 . S
C386 C387 1.386 . S
C386 C388 1.383 . S
C386 H402 0.951 1_655 S
C387 C386 1.386 . S
C387 C391 1.383 . S
C388 C386 1.383 . S
C388 C389 1.402 . S
C388 H403 0.951 . S
C389 C388 1.402 . S
C389 C390 1.375 . S
C389 C392 1.481 . S
C390 C389 1.375 . S
C390 C391 1.367 . S
C390 H404 0.951 . S
C391 C387 1.383 . S
C391 C390 1.367 . S
C391 H405 0.950 . S
C392 C389 1.481 . S
C392 C393 1.297 . S
C392 H406 0.950 . S
C393 C392 1.297 . S
C393 C394 1.479 . S
C393 H407 0.950 . S
C394 C393 1.479 . S
C394 C395 1.375 . S
C394 C400 1.404 . S
C395 C394 1.375 . S
C395 C396 1.369 . S
C395 H408 0.950 . S
C396 C395 1.369 . S
C396 C397 1.392 . S
C396 H409 0.951 . S
C397 C396 1.392 . S
C397 C399 1.384 . S
H398 C400 0.949 . S
C399 C397 1.384 . S
C399 C400 1.385 . S
C399 H401 0.950 . S
C400 C394 1.404 . S
C400 H398 0.949 . S
C400 C399 1.385 . S
H401 C399 0.950 . S
H402 C386 0.951 1_455 S
H403 C388 0.951 . S
H404 C390 0.951 . S
H405 C391 0.950 . S
H406 C392 0.950 . S
H407 C393 0.950 . S
H408 C395 0.950 . S
H409 C396 0.951 . S
C123 C17 1.322 . S
C133 C99 1.296 . S
C147 C64 1.318 . S
C157 C105 1.252 . S
C171 C13 1.380 . S
C181 C96 1.354 . S
C195 C66 1.373 . S
C205 C121 1.178 . S
C219 C23 1.801 . S
C229 C87 1.633 . S
C253 C104 1.739 . S
C243 C42 1.844 . S
C267 C57 1.315 . S
C277 C100 1.265 . S
C301 C117 1.773 . S
C291 C2 1.827 . S
C325 C84 1.662 . S
C315 C63 1.781 . S
C349 C120 1.305 . S
C339 C26 1.346 . S
C373 C83 1.184 . S
C363 C53 1.415 . S
C397 C108 1.103 . S
C387 C24 1.311 . S
