# Generated by pormake.
# Topology nia, (6,6)-cn, num edge types: 1
# Building blocks:
#     Node 0, Type 0, BuildingBlock: KUMBOL_clean_sbu_0, # of connection points: 6
#     Node 1, Type 0, BuildingBlock: KUMBOL_clean_sbu_0, # of connection points: 6
#     Node 2, Type 1, BuildingBlock: MIDCAF_clean_sbu_0, # of connection points: 6
#     Node 3, Type 1, BuildingBlock: MIDCAF_clean_sbu_0, # of connection points: 6
#     Edge 4, Type (0, 1), BuildingBlock: FUNLAD_clean_linker_0, # of connection points: 2
#     Edge 5, Type (0, 1), BuildingBlock: FUNLAD_clean_linker_0, # of connection points: 2
#     Edge 6, Type (0, 1), BuildingBlock: FUNLAD_clean_linker_0, # of connection points: 2
#     Edge 7, Type (0, 1), BuildingBlock: FUNLAD_clean_linker_0, # of connection points: 2
#     Edge 8, Type (0, 1), BuildingBlock: FUNLAD_clean_linker_0, # of connection points: 2
#     Edge 9, Type (0, 1), BuildingBlock: FUNLAD_clean_linker_0, # of connection points: 2
#     Edge 10, Type (0, 1), BuildingBlock: FUNLAD_clean_linker_0, # of connection points: 2
#     Edge 11, Type (0, 1), BuildingBlock: FUNLAD_clean_linker_0, # of connection points: 2
#     Edge 12, Type (0, 1), BuildingBlock: FUNLAD_clean_linker_0, # of connection points: 2
#     Edge 13, Type (0, 1), BuildingBlock: FUNLAD_clean_linker_0, # of connection points: 2
#     Edge 14, Type (0, 1), BuildingBlock: FUNLAD_clean_linker_0, # of connection points: 2
#     Edge 15, Type (0, 1), BuildingBlock: FUNLAD_clean_linker_0, # of connection points: 2
# Relax obj value: 0.167
# Max RMSD: 0.281
# Mean RMSD: 0.203
data_MOF--net-nia--node1-KUMBOL_clean_sbu_0--node2-MIDCAF_clean_sbu_0--edge1-FUNLAD_clean_linker_0
_symmetry_space_group_name_H-M    P1
_symmetry_Int_Tables_number       1
_symmetry_cell_setting            triclinic
loop_
_symmetry_equiv_pos_as_xyz
'x, y, z'
_cell_length_a     32.107266
_cell_length_b     31.88825
_cell_length_c     37.756756
_cell_angle_alpha  90.228757
_cell_angle_beta   89.859404
_cell_angle_gamma 138.16538
loop_
_atom_site_label
_atom_site_type_symbol
_atom_site_fract_x
_atom_site_fract_y
_atom_site_fract_z
_atom_type_partial_charge
Gd0 Gd 0.01827 0.05282 0.96752 0.0
Gd1 Gd 0.01697 0.98012 0.04372 0.0
C2 C 0.84452 0.79105 0.09409 0.0
C3 C 0.81243 0.82029 0.13645 0.0
C4 C 0.90303 0.89967 0.09883 0.0
C5 C 0.89376 0.8542 0.08297 0.0
C6 C 0.86364 0.88355 0.1266 0.0
C7 C 0.80278 0.77405 0.12014 0.0
C8 C 0.84043 0.74747 0.07988 0.0
C9 C 0.88653 0.76792 0.0566 0.0
N10 N 0.93577 0.87253 0.05855 0.0
C11 C 0.93494 0.83123 0.04683 0.0
H12 H 0.97083 0.84705 0.02895 0.0
C13 C 0.96849 0.00758 0.10682 0.0
N14 N 0.95291 0.96028 0.08861 0.0
C15 C 0.93136 0.99407 0.13483 0.0
C16 C 0.87812 0.93169 0.14443 0.0
H17 H 0.00938 0.05596 0.09994 0.0
H18 H 0.76426 0.72567 0.12876 0.0
H19 H 0.16651 0.18433 0.99032 0.0
H20 H 0.80329 0.69853 0.08772 0.0
H21 H 0.88499 0.73505 0.0463 0.0
H22 H 0.78111 0.80691 0.15733 0.0
H23 H 0.91775 0.95946 0.9014 0.0
H24 H 0.28257 0.2523 0.89972 0.0
H25 H 0.27016 0.26405 0.96244 0.0
H26 H 0.1383 0.10108 0.80968 0.0
H27 H 0.94363 0.0318 0.14882 0.0
H28 H 0.84923 0.9213 0.166 0.0
H29 H 0.2333 0.19007 0.84321 0.0
H30 H 0.92009 0.94244 0.83779 0.0
N31 N 0.12009 0.12674 0.9443 0.0
C32 C 0.2368 0.21694 0.91189 0.0
C33 C 0.22997 0.22371 0.94729 0.0
C34 C 0.18436 0.16484 0.89254 0.0
C35 C 0.12578 0.12017 0.90963 0.0
C36 C 0.17096 0.17808 0.96311 0.0
N37 N 0.01647 0.03109 0.90744 0.0
C38 C 0.07236 0.07037 0.89073 0.0
C39 C 0.9633 0.97818 0.85242 0.0
C40 C 0.02053 0.01561 0.83536 0.0
C41 C 0.96216 0.98774 0.88841 0.0
C42 C 0.076 0.06346 0.85428 0.0
H43 H 0.02136 0.00871 0.80736 0.0
O44 O 0.95777 0.05456 0.94379 0.0
O45 O 0.97675 0.00794 0.02043 0.0
O46 O 0.94518 0.90401 1.00326 0.0
O47 O 0.97462 0.95841 0.95012 0.0
O48 O 0.91523 0.97634 0.97934 0.0
O49 O 0.04989 0.14085 0.9622 0.0
O50 O 0.07533 0.02674 0.09056 0.0
O51 O 0.06993 0.04168 0.99638 0.0
O52 O 0.05996 0.11795 0.01471 0.0
O53 O 0.08258 0.08271 0.05572 0.0
O54 O 0.06374 0.97226 0.00454 0.0
O55 O 0.06644 0.96158 0.06193 0.0
C56 C 0.91992 0.97042 0.0124 0.0
C57 C 0.13453 0.10598 0.83757 0.0
C58 C 0.18859 0.15675 0.85663 0.0
C59 C 0.00061 0.11564 0.94457 0.0
C60 C 0.01164 0.14651 0.91108 0.0
C61 C 0.06402 0.17677 0.89006 0.0
C62 C 0.96927 0.1456 0.89985 0.0
C63 C 0.97876 0.1743 0.86771 0.0
C64 C 0.07302 0.20396 0.85792 0.0
C65 C 0.0307 0.20263 0.84669 0.0
C66 C 0.94338 0.90619 0.9682 0.0
C67 C 0.08518 0.01736 0.98434 0.0
C68 C 0.08631 0.99485 0.09063 0.0
C69 C 0.07517 0.96424 0.12422 0.0
C70 C 0.03449 0.95 0.15004 0.0
C71 C 0.10539 0.94861 0.13044 0.0
C72 C 0.09504 0.91854 0.16204 0.0
C73 C 0.02433 0.92063 0.18152 0.0
C74 C 0.05429 0.90491 0.18755 0.0
C75 C 0.08638 0.12449 0.04426 0.0
H76 H 0.0983 0.1799 0.8985 0.0
H77 H 0.92978 0.12374 0.91658 0.0
H78 H 0.11319 0.22651 0.84173 0.0
H79 H 0.03872 0.22386 0.82151 0.0
H80 H 0.01057 0.96153 0.14603 0.0
H81 H 0.13722 0.96019 0.11064 0.0
H82 H 0.99276 0.90963 0.20122 0.0
H83 H 0.04457 0.88098 0.21188 0.0
Gd84 Gd 0.00102 0.97008 0.46485 0.0
Gd85 Gd 0.01118 0.0469 0.54444 0.0
C86 C 0.14947 0.12687 0.63415 0.0
C87 C 0.08057 0.05698 0.68285 0.0
C88 C 0.03749 0.04182 0.62508 0.0
C89 C 0.09706 0.09227 0.61185 0.0
C90 C 0.02847 0.02442 0.66093 0.0
C91 C 0.14097 0.10807 0.66947 0.0
C92 C 0.20871 0.18022 0.62052 0.0
C93 C 0.21437 0.19902 0.58586 0.0
N94 N 0.10363 0.1094 0.57763 0.0
C95 C 0.16099 0.16337 0.56482 0.0
H96 H 0.16617 0.17851 0.53809 0.0
C97 C 0.92857 0.96675 0.61622 0.0
N98 N 0.98819 0.01155 0.60327 0.0
C99 C 0.91721 0.94756 0.65153 0.0
C100 C 0.96735 0.97597 0.67389 0.0
H101 H 0.88977 0.94467 0.59892 0.0
H102 H 0.18071 0.13365 0.68687 0.0
H103 H 0.84695 0.83581 0.47181 0.0
H104 H 0.25015 0.20791 0.63674 0.0
H105 H 0.25986 0.24088 0.57527 0.0
H106 H 0.07463 0.04396 0.71039 0.0
H107 H 0.12104 0.07414 0.40986 0.0
H108 H 0.76079 0.7987 0.37249 0.0
H109 H 0.75312 0.76838 0.43436 0.0
H110 H 0.93316 0.96635 0.29865 0.0
H111 H 0.86986 0.91094 0.66147 0.0
H112 H 0.95846 0.9612 0.70127 0.0
H113 H 0.82809 0.8738 0.32229 0.0
H114 H 0.13929 0.1069 0.34724 0.0
N115 N 0.90784 0.905 0.43196 0.0
C116 C 0.80237 0.82861 0.38881 0.0
C117 C 0.79787 0.81133 0.42371 0.0
C118 C 0.86071 0.88359 0.37517 0.0
C119 C 0.9134 0.92088 0.39756 0.0
C120 C 0.85137 0.84998 0.44494 0.0
N121 N 0.02222 0.00443 0.40583 0.0
C122 C 0.97242 0.97245 0.38415 0.0
C123 C 0.09212 0.06924 0.35732 0.0
C124 C 0.04131 0.03881 0.33506 0.0
C125 C 0.08168 0.05058 0.39267 0.0
C126 C 0.98052 0.98898 0.34818 0.0
H127 H 0.04949 0.05301 0.3076 0.0
O128 O 0.05571 0.95843 0.44498 0.0
O129 O 0.04717 0.0177 0.51622 0.0
O130 O 0.07528 0.11652 0.49991 0.0
O131 O 0.03329 0.0582 0.44735 0.0
O132 O 0.10432 0.03954 0.47619 0.0
O133 O 0.96147 0.87779 0.46422 0.0
O134 O 0.95645 0.05922 0.5625 0.0
O135 O 0.96552 -0.00058 0.49313 0.0
O136 O 0.93705 0.90054 0.50986 0.0
O137 O 0.97864 0.95927 0.5623 0.0
O138 O 0.90806 0.97944 0.53205 0.0
O139 O 0.05394 0.14051 0.54826 0.0
C140 C 0.10244 0.04892 0.50908 0.0
C141 C 0.92794 0.95406 0.32627 0.0
C142 C 0.86813 0.90136 0.33973 0.0
C143 C 0.00916 0.89732 0.44752 0.0
C144 C 0.99509 0.86158 0.41552 0.0
C145 C 0.94339 0.8325 0.39416 0.0
C146 C 0.03362 0.85649 0.40601 0.0
C147 C 0.0204 0.82244 0.37547 0.0
C148 C 0.93099 0.80016 0.36354 0.0
C149 C 0.96915 0.79518 0.35416 0.0
C150 C 0.06821 0.11174 0.46495 0.0
C151 C 0.91049 0.96944 0.49944 0.0
C152 C 0.0048 0.12036 0.56324 0.0
C153 C 0.01484 0.15101 0.59678 0.0
C154 C 0.06613 0.18043 0.61869 0.0
C155 C 0.97157 0.14917 0.60764 0.0
C156 C 0.97921 0.17633 0.64013 0.0
C157 C 0.07361 0.20674 0.65101 0.0
C158 C 0.03057 0.20478 0.66173 0.0
C159 C 0.94344 0.90562 0.54494 0.0
H160 H 0.91212 0.83418 0.40109 0.0
H161 H 0.07286 0.87778 0.42278 0.0
H162 H 0.89133 0.77849 0.34713 0.0
H163 H 0.95849 0.76989 0.33016 0.0
H164 H 0.10061 0.18333 0.61094 0.0
H165 H 0.93172 0.12612 0.5909 0.0
H166 H 0.11326 0.22924 0.66769 0.0
H167 H 0.03838 0.2269 0.68658 0.0
Zn168 Zn 0.35948 0.69265 0.18947 0.0
Zn169 Zn 0.39152 0.71507 0.32577 0.0
Zn170 Zn 0.38371 0.70375 0.25633 0.0
C171 C 0.51017 0.78206 0.29921 0.0
C172 C 0.30821 0.58718 0.30949 0.0
O173 O 0.34785 0.74074 0.24139 0.0
O174 O 0.32843 0.72653 0.1838 0.0
C175 C 0.48887 0.77038 0.19782 0.0
O176 O 0.48322 0.76565 0.26885 0.0
O177 O 0.48006 0.76492 0.32756 0.0
O178 O 0.32745 0.62344 0.33526 0.0
O179 O 0.32578 0.60887 0.27767 0.0
O180 O 0.44654 0.7461 0.17538 0.0
O181 O 0.47591 0.76127 0.23117 0.0
O182 O 0.32056 0.60382 0.24014 0.0
O183 O 0.29849 0.60136 0.18414 0.0
C184 C 0.29199 0.57351 0.21095 0.0
O185 O 0.34909 0.73919 0.27856 0.0
O186 O 0.36966 0.75745 0.33603 0.0
C187 C 0.32958 0.74627 0.21314 0.0
C188 C 0.34774 0.75787 0.30858 0.0
Zn189 Zn 0.62298 0.29668 0.82132 0.0
Zn190 Zn 0.63591 0.3202 0.68464 0.0
Zn191 Zn 0.6303 0.31532 0.75178 0.0
C192 C 0.68795 0.43446 0.70841 0.0
C193 C 0.51092 0.22522 0.69898 0.0
O194 O 0.67513 0.28827 0.76746 0.0
O195 O 0.66 0.26802 0.825 0.0
C196 C 0.69442 0.42464 0.80872 0.0
O197 O 0.68328 0.41255 0.7386 0.0
O198 O 0.6664 0.40124 0.6808 0.0
O199 O 0.54715 0.2442 0.67357 0.0
O200 O 0.5334 0.24849 0.73026 0.0
O201 O 0.67591 0.38628 0.83281 0.0
O202 O 0.68155 0.40703 0.776 0.0
O203 O 0.53062 0.24549 0.76765 0.0
O204 O 0.5312 0.23287 0.82527 0.0
C205 C 0.50167 0.21951 0.79735 0.0
O206 O 0.67772 0.29312 0.7304 0.0
O207 O 0.69449 0.31851 0.67369 0.0
C208 C 0.68184 0.27145 0.79596 0.0
C209 C 0.70075 0.29954 0.70009 0.0
C210 C 0.14825 0.90568 0.20132 0.0
C211 C 0.12509 0.89965 0.16781 0.0
C212 C 0.17475 0.88596 0.20676 0.0
C213 C 0.17885 0.86002 0.17865 0.0
C214 C 0.15586 0.85432 0.14523 0.0
C215 C 0.1294 0.87388 0.13984 0.0
C216 C 0.2035 0.83526 0.18295 0.0
C217 C 0.2377 0.8474 0.21068 0.0
C218 C 0.25985 0.81992 0.21296 0.0
C219 C 0.31657 0.85332 0.23005 0.0
C220 C 0.33944 0.82929 0.23075 0.0
C221 C 0.30538 0.7712 0.21473 0.0
H222 H 0.17996 0.73231 0.18598 0.0
C223 C 0.24803 0.7371 0.19857 0.0
C224 C 0.22507 0.76072 0.19806 0.0
H225 H 0.22072 0.69182 0.1864 0.0
H226 H 0.14592 0.92567 0.22339 0.0
H227 H 0.19061 0.89006 0.23311 0.0
H228 H 0.15778 0.83398 0.12315 0.0
H229 H 0.11101 0.86743 0.11386 0.0
H230 H 0.19424 0.80668 0.16127 0.0
H231 H 0.25264 0.88035 0.23116 0.0
H232 H 0.34379 0.89856 0.24219 0.0
H233 H 0.38392 0.85631 0.24332 0.0
C234 C 0.12908 0.03434 0.56675 0.0
C235 C 0.14827 0.06677 0.53463 0.0
C236 C 0.17291 0.04996 0.59 0.0
C237 C 0.2366 0.09731 0.58106 0.0
C238 C 0.25537 0.1284 0.5485 0.0
C239 C 0.21167 0.11332 0.52552 0.0
C240 C 0.28425 0.11257 0.60363 0.0
C241 C 0.28069 0.10686 0.63919 0.0
C242 C 0.33224 0.12596 0.65958 0.0
C243 C 0.35522 0.16264 0.6904 0.0
C244 C 0.41136 0.19107 0.70567 0.0
C245 C 0.4444 0.18219 0.69058 0.0
H246 H 0.34451 0.08267 0.62359 0.0
C247 C 0.41786 0.14038 0.66195 0.0
C248 C 0.3623 0.11243 0.64665 0.0
H249 H 0.44216 0.13236 0.64995 0.0
H250 H 0.08023 0.99645 0.5738 0.0
H251 H 0.15662 0.02374 0.61438 0.0
H252 H 0.30408 0.16446 0.54076 0.0
H253 H 0.22741 0.13802 0.50056 0.0
H254 H 0.326 0.13252 0.59031 0.0
H255 H 0.24285 0.09358 0.65353 0.0
H256 H 0.33245 0.17323 0.701 0.0
H257 H 0.43147 0.22413 0.72719 0.0
C258 C 0.10247 0.21012 0.06578 0.0
C259 C 0.11802 0.17905 0.06748 0.0
C260 C 0.12782 0.25765 0.09007 0.0
C261 C 0.16973 0.27543 0.11635 0.0
C262 C 0.18702 0.24601 0.1172 0.0
C263 C 0.16083 0.19773 0.09332 0.0
C264 C 0.19834 0.32666 0.14194 0.0
C265 C 0.1669 0.33617 0.1553 0.0
C266 C 0.1961 0.39219 0.1767 0.0
C267 C 0.16462 0.40715 0.17899 0.0
C268 C 0.19411 0.46447 0.1934 0.0
C269 C 0.2552 0.50743 0.20649 0.0
H270 H 0.28111 0.42319 0.19224 0.0
C271 C 0.28519 0.49087 0.20674 0.0
C272 C 0.25573 0.43343 0.19231 0.0
H273 H 0.33304 0.52415 0.2158 0.0
H274 H 0.06951 0.1967 0.04624 0.0
H275 H 0.11508 0.28084 0.08798 0.0
H276 H 0.21997 0.2596 0.13682 0.0
H277 H 0.17394 0.17483 0.09521 0.0
H278 H 0.24655 0.35714 0.14924 0.0
H279 H 0.11814 0.30357 0.14801 0.0
H280 H 0.11853 0.37624 0.16755 0.0
H281 H 0.17061 0.47691 0.19235 0.0
C282 C 0.91434 0.19111 0.62617 0.0
C283 C 0.93544 0.17747 0.65103 0.0
C284 C 0.87757 0.19749 0.63682 0.0
C285 C 0.86133 0.19082 0.67268 0.0
C286 C 0.87989 0.17429 0.69725 0.0
C287 C 0.91685 0.16802 0.68661 0.0
C288 C 0.82573 0.20149 0.68505 0.0
C289 C 0.83178 0.24368 0.66934 0.0
C290 C 0.79865 0.25773 0.6804 0.0
C291 C 0.82167 0.31342 0.66794 0.0
C292 C 0.79047 0.3274 0.67529 0.0
C293 C 0.73555 0.28615 0.69545 0.0
H294 H 0.72345 0.17225 0.71032 0.0
C295 C 0.71221 0.23044 0.70821 0.0
C296 C 0.74357 0.2163 0.70085 0.0
H297 H 0.66903 0.19724 0.72312 0.0
H298 H 0.92778 0.19875 0.5986 0.0
H299 H 0.86225 0.208 0.61686 0.0
H300 H 0.86725 0.16792 0.72493 0.0
H301 H 0.93132 0.15628 0.70633 0.0
H302 H 0.79757 0.17727 0.70879 0.0
H303 H 0.86487 0.27164 0.64771 0.0
H304 H 0.86367 0.34604 0.65198 0.0
H305 H 0.80902 0.37038 0.66486 0.0
C306 C 0.87293 0.98031 0.05885 0.0
C307 C 0.86937 0.94175 0.03738 0.0
C308 C 0.82355 0.95389 0.08132 0.0
C309 C 0.76925 0.88843 0.08208 0.0
C310 C 0.76495 0.85013 0.05955 0.0
C311 C 0.81469 0.87662 0.03729 0.0
C312 C 0.71425 0.85991 0.10331 0.0
C313 C 0.71826 0.88218 0.13509 0.0
C314 C 0.66199 0.85771 0.15244 0.0
C315 C 0.65196 0.84572 0.18903 0.0
C316 C 0.59663 0.81918 0.20462 0.0
C317 C 0.55143 0.80577 0.18391 0.0
H318 H 0.62554 0.85756 0.10418 0.0
C319 C 0.56386 0.82154 0.14772 0.0
C320 C 0.6181 0.84681 0.13221 0.0
H321 H 0.53077 0.81292 0.13091 0.0
H322 H 0.91394 0.03097 0.05813 0.0
H323 H 0.82732 0.98482 0.09737 0.0
H324 H 0.72297 0.79968 0.05909 0.0
H325 H 0.81054 0.84639 0.02006 0.0
H326 H 0.66845 0.81919 0.09204 0.0
H327 H 0.76304 0.91871 0.14842 0.0
H328 H 0.68572 0.85461 0.20524 0.0
H329 H 0.58834 0.80708 0.23236 0.0
C330 C 0.92436 0.85413 0.60222 0.0
C331 C 0.90963 0.84865 0.5662 0.0
C332 C 0.89174 0.80074 0.62284 0.0
C333 C 0.84404 0.74037 0.60774 0.0
C334 C 0.82983 0.73504 0.57165 0.0
C335 C 0.86228 0.78848 0.55107 0.0
C336 C 0.80703 0.68164 0.62838 0.0
C337 C 0.82116 0.67869 0.66131 0.0
C338 C 0.78358 0.61756 0.67917 0.0
C339 C 0.81299 0.6108 0.70186 0.0
C340 C 0.7804 0.55124 0.71433 0.0
C341 C 0.718 0.49808 0.70437 0.0
H342 H 0.69433 0.56869 0.65638 0.0
C343 C 0.68724 0.50568 0.68439 0.0
C344 C 0.7194 0.56487 0.67227 0.0
H345 H 0.63885 0.46519 0.67671 0.0
H346 H 0.9613 0.89979 0.61466 0.0
H347 H 0.90393 0.80752 0.65052 0.0
H348 H 0.79326 0.68921 0.55924 0.0
H349 H 0.84977 0.78249 0.52343 0.0
H350 H 0.76719 0.63804 0.61479 0.0
H351 H 0.86353 0.7208 0.67442 0.0
H352 H 0.86212 0.65091 0.70814 0.0
H353 H 0.80496 0.54621 0.72965 0.0
C354 C 0.12391 0.86323 0.36835 0.0
C355 C 0.05841 0.81351 0.36595 0.0
C356 C 0.1591 0.85444 0.35836 0.0
C357 C 0.12933 0.79548 0.34577 0.0
C358 C 0.06387 0.74587 0.34388 0.0
C359 C 0.0289 0.75467 0.35379 0.0
C360 C 0.16348 0.78217 0.33536 0.0
C361 C 0.22591 0.82589 0.33153 0.0
C362 C 0.25752 0.80915 0.32335 0.0
C363 C 0.31787 0.84747 0.33663 0.0
C364 C 0.34763 0.83126 0.33132 0.0
C365 C 0.31825 0.77732 0.31179 0.0
H366 H 0.18301 0.72612 0.29146 0.0
C367 C 0.25868 0.73979 0.2976 0.0
C368 C 0.22862 0.75567 0.30314 0.0
H369 H 0.23501 0.69771 0.28265 0.0
H370 H 0.14805 0.90921 0.37748 0.0
H371 H 0.20924 0.89394 0.36096 0.0
H372 H 0.0394 0.69978 0.33468 0.0
H373 H 0.97847 0.71499 0.35221 0.0
H374 H 0.1352 0.73306 0.33133 0.0
H375 H 0.25562 0.87509 0.33639 0.0
H376 H 0.34137 0.88911 0.35204 0.0
H377 H 0.39353 0.86072 0.34264 0.0
C378 C 0.11105 0.00777 0.92471 0.0
C379 C 0.13018 0.04195 0.95612 0.0
C380 C 0.15484 0.03055 0.89847 0.0
C381 C 0.21863 0.087 0.90389 0.0
C382 C 0.23758 0.11918 0.93618 0.0
C383 C 0.19382 0.09653 0.96219 0.0
C384 C 0.26682 0.11521 0.87645 0.0
C385 C 0.26307 0.08179 0.85185 0.0
C386 C 0.31795 0.11214 0.82965 0.0
C387 C 0.33535 0.08298 0.82599 0.0
C388 C 0.3939 0.1164 0.81217 0.0
C389 C 0.43484 0.17862 0.80077 0.0
H390 H 0.34414 0.19586 0.81753 0.0
C391 C 0.41513 0.20574 0.80133 0.0
C392 C 0.35701 0.17273 0.81564 0.0
H393 H 0.44658 0.25415 0.79328 0.0
H394 H 0.06224 0.96423 0.9202 0.0
H395 H 0.13846 0.00472 0.87383 0.0
H396 H 0.28646 0.16237 0.94122 0.0
H397 H 0.20964 0.12197 0.98698 0.0
H398 H 0.30994 0.16539 0.87872 0.0
H399 H 0.2232 0.03084 0.85148 0.0
H400 H 0.30589 0.03625 0.83647 0.0
H401 H 0.40882 0.09512 0.8125 0.0
C402 C 0.08365 0.16444 0.40901 0.0
C403 C 0.0983 0.16863 0.44488 0.0
C404 C 0.10883 0.21754 0.39082 0.0
C405 C 0.14912 0.27596 0.40823 0.0
C406 C 0.16415 0.28013 0.44391 0.0
C407 C 0.13934 0.22728 0.46199 0.0
C408 C 0.17344 0.33275 0.39112 0.0
C409 C 0.17892 0.34226 0.35586 0.0
C410 C 0.20548 0.40136 0.34098 0.0
C411 C 0.24451 0.4288 0.31113 0.0
C412 C 0.27597 0.48835 0.29956 0.0
C413 C 0.26776 0.52059 0.3172 0.0
H414 H 0.16306 0.41139 0.37958 0.0
C415 C 0.22569 0.49135 0.34563 0.0
C416 C 0.19457 0.43222 0.35728 0.0
H417 H 0.21824 0.51511 0.35956 0.0
H418 H 0.05125 0.11981 0.39515 0.0
H419 H 0.09484 0.21199 0.36362 0.0
H420 H 0.19483 0.32446 0.45803 0.0
H421 H 0.15164 0.23236 0.48959 0.0
H422 H 0.19015 0.36989 0.40875 0.0
H423 H 0.1685 0.30884 0.33777 0.0
H424 H 0.25339 0.40578 0.298 0.0
H425 H 0.30971 0.51086 0.27844 0.0
C426 C 0.95966 0.23062 0.84043 0.0
C427 C 0.93585 0.17633 0.85646 0.0
C428 C 0.91998 0.2336 0.83063 0.0
C429 C 0.8553 0.18223 0.83664 0.0
C430 C 0.83146 0.12799 0.85258 0.0
C431 C 0.87113 0.12486 0.8622 0.0
C432 C 0.81217 0.18538 0.82935 0.0
C433 C 0.82351 0.22398 0.80512 0.0
C434 C 0.78397 0.23245 0.80071 0.0
C435 C 0.80971 0.28699 0.7838 0.0
C436 C 0.77598 0.29916 0.78136 0.0
C437 C 0.7156 0.25661 0.79547 0.0
H438 H 0.69956 0.14524 0.82584 0.0
C439 C 0.68904 0.20139 0.81153 0.0
C440 C 0.72243 0.18892 0.81376 0.0
H441 H 0.64232 0.16785 0.82247 0.0
H442 H 0.00938 0.27174 0.83635 0.0
H443 H 0.94065 0.27711 0.81961 0.0
H444 H 0.78189 0.08789 0.85776 0.0
H445 H 0.85102 0.08203 0.87408 0.0
H446 H 0.77041 0.1555 0.8455 0.0
H447 H 0.86517 0.25311 0.78884 0.0
H448 H 0.85669 0.32111 0.7732 0.0
H449 H 0.79751 0.34236 0.76911 0.0
C450 C 0.88484 0.98285 0.44096 0.0
C451 C 0.8649 0.94962 0.4728 0.0
C452 C 0.84154 0.96205 0.41505 0.0
C453 C 0.77718 0.90797 0.4208 0.0
C454 C 0.75742 0.87716 0.45362 0.0
C455 C 0.80079 0.89821 0.47954 0.0
C456 C 0.72928 0.87987 0.39297 0.0
C457 C 0.73837 0.90958 0.3634 0.0
C458 C 0.68622 0.87889 0.33842 0.0
C459 C 0.67821 0.9134 0.32466 0.0
C460 C 0.62255 0.88247 0.30741 0.0
C461 C 0.57512 0.81698 0.30297 0.0
H462 H 0.647 0.78677 0.34008 0.0
C463 C 0.586 0.78359 0.31329 0.0
C464 C 0.64121 0.81428 0.33076 0.0
H465 H 0.54956 0.73287 0.31058 0.0
H466 H 0.93395 0.02421 0.43566 0.0
H467 H 0.85911 0.98718 0.39023 0.0
H468 H 0.70818 0.83573 0.45899 0.0
H469 H 0.78431 0.87279 0.50427 0.0
H470 H 0.68297 0.83245 0.39789 0.0
H471 H 0.78214 0.95874 0.35917 0.0
H472 H 0.7126 0.96337 0.32988 0.0
H473 H 0.61447 0.90884 0.3003 0.0
C474 C 0.91987 0.84857 0.9122 0.0
C475 C 0.9066 0.8471 0.94802 0.0
C476 C 0.88928 0.79305 0.89421 0.0
C477 C 0.84435 0.7347 0.91165 0.0
C478 C 0.82969 0.73324 0.94705 0.0
C479 C 0.86006 0.78861 0.96493 0.0
C480 C 0.81523 0.6751 0.89513 0.0
C481 C 0.81291 0.66541 0.85999 0.0
C482 C 0.78589 0.60551 0.84562 0.0
C483 C 0.75471 0.58201 0.81282 0.0
C484 C 0.72616 0.52391 0.80002 0.0
C485 C 0.72953 0.48902 0.81946 0.0
H486 H 0.81674 0.58918 0.889 0.0
C487 C 0.76306 0.514 0.85147 0.0
C488 C 0.79108 0.57152 0.86432 0.0
H489 H 0.76706 0.48857 0.86694 0.0
H490 H 0.95559 0.89277 0.89834 0.0
H491 H 0.9029 0.7966 0.86719 0.0
H492 H 0.79518 0.68906 0.96119 0.0
H493 H 0.84745 0.78553 0.99218 0.0
H494 H 0.79373 0.63673 0.91313 0.0
H495 H 0.82858 0.7006 0.84123 0.0
H496 H 0.7505 0.60753 0.7977 0.0
H497 H 0.6993 0.50516 0.77581 0.0
loop_
_geom_bond_atom_site_label_1
_geom_bond_atom_site_label_2
_geom_bond_distance
_geom_bond_site_symmetry_2
_ccdc_geom_bond_type
Gd0 N31 2.661 1_655 S
Gd0 N37 2.601 . S
Gd0 O44 2.545 1_545 S
Gd0 O45 2.606 1_546 S
Gd0 O47 2.429 1_545 S
Gd0 O48 2.545 1_545 S
Gd0 O49 2.412 . S
Gd0 O51 2.362 1_655 S
Gd0 O52 2.324 1_656 S
Gd0 C59 2.828 . S
Gd1 N10 2.661 1_455 S
Gd1 N14 2.601 . S
Gd1 O45 2.362 1_455 S
Gd1 O46 2.324 1_454 S
Gd1 O50 2.545 1_565 S
Gd1 O51 2.606 1_564 S
Gd1 O53 2.429 1_565 S
Gd1 O54 2.545 1_565 S
Gd1 O55 2.412 . S
Gd1 C68 2.828 . S
C2 C5 1.417 . S
C2 C7 1.431 . S
C2 C8 1.412 . S
C3 C6 1.437 . S
C3 C7 1.317 . S
C3 H22 0.929 . S
C4 C5 1.426 . S
C4 C6 1.413 . S
C4 N14 1.359 1_655 S
C5 C2 1.417 . S
C5 C4 1.426 . S
C5 N10 1.350 . S
C6 C3 1.437 . S
C6 C4 1.413 . S
C6 C16 1.388 1_665 S
C7 C2 1.431 . S
C7 C3 1.317 . S
C7 H18 0.930 . S
C8 C2 1.412 . S
C8 C9 1.355 . S
C8 H20 0.930 . S
C9 C8 1.355 . S
C9 C11 1.402 . S
C9 H21 0.930 . S
N10 Gd1 2.661 1_655 S
N10 C5 1.350 . S
N10 C11 1.307 . S
C11 C9 1.402 . S
C11 N10 1.307 . S
C11 H12 0.930 . S
H12 C11 0.930 . S
C13 N14 1.334 1_545 S
C13 C15 1.394 . S
C13 H17 0.930 . S
N14 Gd1 2.601 . S
N14 C4 1.359 1_455 S
N14 C13 1.334 1_565 S
C15 C13 1.394 . S
C15 C16 1.361 . S
C15 H27 0.930 . S
C16 C6 1.388 1_445 S
C16 C15 1.361 . S
C16 H28 0.930 . S
H17 C13 0.930 . S
H18 C7 0.930 . S
H19 C36 0.930 . S
H20 C8 0.930 . S
H21 C9 0.930 . S
H22 C3 0.929 . S
H23 C41 0.930 . S
H24 C32 0.930 . S
H25 C33 0.930 . S
H26 C57 0.929 . S
H27 C15 0.930 . S
H28 C16 0.930 . S
H29 C58 0.930 . S
H30 C39 0.930 . S
N31 Gd0 2.661 1_455 S
N31 C35 1.350 . S
N31 C36 1.307 . S
C32 H24 0.930 . S
C32 C33 1.355 . S
C32 C34 1.412 . S
C33 H25 0.930 . S
C33 C32 1.355 . S
C33 C36 1.402 . S
C34 C32 1.412 . S
C34 C35 1.417 . S
C34 C58 1.431 . S
C35 N31 1.350 . S
C35 C34 1.417 . S
C35 C38 1.426 . S
C36 H19 0.930 . S
C36 N31 1.307 . S
C36 C33 1.402 . S
N37 Gd0 2.601 . S
N37 C38 1.359 1_655 S
N37 C41 1.334 1_545 S
C38 C35 1.426 . S
C38 N37 1.359 1_455 S
C38 C42 1.413 . S
C39 H30 0.930 . S
C39 C40 1.359 1_565 S
C39 C41 1.394 . S
C40 C39 1.359 1_545 S
C40 C42 1.391 1_655 S
C40 H43 0.929 . S
C41 H23 0.930 . S
C41 N37 1.334 1_565 S
C41 C39 1.394 . S
C42 C38 1.413 . S
C42 C40 1.391 1_455 S
C42 C57 1.437 . S
H43 C40 0.929 . S
O44 Gd0 2.545 1_565 S
O44 C59 1.258 1_565 S
O45 Gd0 2.606 1_564 S
O45 Gd1 2.362 1_655 S
O45 C56 1.284 . S
O46 Gd1 2.324 1_656 S
O46 C66 1.254 . S
O47 Gd0 2.429 1_565 S
O47 C66 1.268 . S
O48 Gd0 2.545 1_565 S
O48 C56 1.250 1_556 S
O49 Gd0 2.412 . S
O49 C59 1.252 . S
O50 Gd1 2.545 1_545 S
O50 C68 1.258 1_545 S
O51 Gd0 2.362 1_455 S
O51 Gd1 2.606 1_546 S
O51 C67 1.284 . S
O52 Gd0 2.324 1_454 S
O52 C75 1.254 . S
O53 Gd1 2.429 1_545 S
O53 C75 1.268 . S
O54 Gd1 2.545 1_545 S
O54 C67 1.250 1_554 S
O55 Gd1 2.412 . S
O55 C68 1.252 . S
C56 O45 1.284 . S
C56 O48 1.250 1_554 S
C57 H26 0.929 . S
C57 C42 1.437 . S
C57 C58 1.317 . S
C58 H29 0.930 . S
C58 C34 1.431 . S
C58 C57 1.317 . S
C59 Gd0 2.828 . S
C59 O44 1.258 1_545 S
C59 O49 1.252 . S
C59 C60 1.497 . S
C60 C59 1.497 . S
C60 C61 1.395 . S
C60 C62 1.380 . S
C61 C60 1.395 . S
C61 C64 1.398 . S
C61 H76 0.930 . S
C62 C60 1.380 . S
C62 C63 1.391 . S
C62 H77 0.930 . S
C63 C62 1.391 . S
C63 C65 1.387 . S
C64 C61 1.398 . S
C64 C65 1.380 . S
C64 H78 0.930 . S
C65 C63 1.387 . S
C65 C64 1.380 . S
C65 H79 0.930 . S
C66 O46 1.254 . S
C66 O47 1.268 . S
C67 O51 1.284 . S
C67 O54 1.250 1_556 S
C68 Gd1 2.828 . S
C68 O50 1.258 1_565 S
C68 O55 1.252 . S
C68 C69 1.497 . S
C69 C68 1.497 . S
C69 C70 1.395 . S
C69 C71 1.380 . S
C70 C69 1.395 . S
C70 C73 1.398 . S
C70 H80 0.930 . S
C71 C69 1.380 . S
C71 C72 1.391 . S
C71 H81 0.930 . S
C72 C71 1.391 . S
C72 C74 1.387 . S
C73 C70 1.398 . S
C73 C74 1.380 . S
C73 H82 0.930 . S
C74 C72 1.387 . S
C74 C73 1.380 . S
C74 H83 0.930 . S
C75 O52 1.254 . S
C75 O53 1.268 . S
H76 C61 0.930 . S
H77 C62 0.930 . S
H78 C64 0.930 . S
H79 C65 0.930 . S
H80 C70 0.930 . S
H81 C71 0.930 . S
H82 C73 0.930 . S
H83 C74 0.930 . S
Gd84 N115 2.661 1_455 S
Gd84 N121 2.601 1_565 S
Gd84 O128 2.545 1_565 S
Gd84 O129 2.606 1_565 S
Gd84 O131 2.429 1_565 S
Gd84 O132 2.545 1_565 S
Gd84 O133 2.412 . S
Gd84 O135 2.362 1_455 S
Gd84 O136 2.324 1_455 S
Gd84 C143 2.828 . S
Gd85 N94 2.661 1_655 S
Gd85 N98 2.601 1_655 S
Gd85 O129 2.362 1_655 S
Gd85 O130 2.324 1_655 S
Gd85 O134 2.545 . S
Gd85 O135 2.606 1_545 S
Gd85 O137 2.429 1_545 S
Gd85 O138 2.545 1_545 S
Gd85 O139 2.412 . S
Gd85 C152 2.828 . S
C86 C89 1.417 . S
C86 C91 1.431 . S
C86 C92 1.412 . S
C87 C90 1.437 . S
C87 C91 1.317 . S
C87 H106 0.929 . S
C88 C89 1.426 . S
C88 C90 1.413 . S
C88 N98 1.359 . S
C89 C86 1.417 . S
C89 C88 1.426 . S
C89 N94 1.350 . S
C90 C87 1.437 . S
C90 C88 1.413 . S
C90 C100 1.391 . S
C91 C86 1.431 . S
C91 C87 1.317 . S
C91 H102 0.930 . S
C92 C86 1.412 . S
C92 C93 1.355 . S
C92 H104 0.930 . S
C93 C92 1.355 . S
C93 C95 1.402 . S
C93 H105 0.930 . S
N94 Gd85 2.661 1_455 S
N94 C89 1.350 . S
N94 C95 1.307 . S
C95 C93 1.402 . S
C95 N94 1.307 . S
C95 H96 0.930 . S
H96 C95 0.930 . S
C97 N98 1.334 1_665 S
C97 C99 1.394 . S
C97 H101 0.930 . S
N98 Gd85 2.601 1_455 S
N98 C88 1.359 . S
N98 C97 1.334 1_445 S
C99 C97 1.394 . S
C99 C100 1.359 1_665 S
C99 H111 0.930 . S
C100 C90 1.391 . S
C100 C99 1.359 1_445 S
C100 H112 0.929 . S
H101 C97 0.930 . S
H102 C91 0.930 . S
H103 C120 0.930 . S
H104 C92 0.930 . S
H105 C93 0.930 . S
H106 C87 0.929 . S
H107 C125 0.930 . S
H108 C116 0.930 . S
H109 C117 0.930 . S
H110 C141 0.929 . S
H111 C99 0.930 . S
H112 C100 0.929 . S
H113 C142 0.930 . S
H114 C123 0.930 . S
N115 Gd84 2.661 1_655 S
N115 C119 1.350 . S
N115 C120 1.307 . S
C116 H108 0.930 . S
C116 C117 1.355 . S
C116 C118 1.412 . S
C117 H109 0.930 . S
C117 C116 1.355 . S
C117 C120 1.402 . S
C118 C116 1.412 . S
C118 C119 1.417 . S
C118 C142 1.431 . S
C119 N115 1.350 . S
C119 C118 1.417 . S
C119 C122 1.426 . S
C120 H103 0.930 . S
C120 N115 1.307 . S
C120 C117 1.402 . S
N121 Gd84 2.601 1_545 S
N121 C122 1.359 1_445 S
N121 C125 1.334 . S
C122 C119 1.426 . S
C122 N121 1.359 1_665 S
C122 C126 1.413 . S
C123 H114 0.930 . S
C123 C124 1.359 . S
C123 C125 1.394 . S
C124 C123 1.359 . S
C124 C126 1.391 1_445 S
C124 H127 0.929 . S
C125 H107 0.930 . S
C125 N121 1.334 . S
C125 C123 1.394 . S
C126 C122 1.413 . S
C126 C124 1.391 1_665 S
C126 C141 1.437 . S
H127 C124 0.929 . S
O128 Gd84 2.545 1_545 S
O128 C143 1.258 1_545 S
O129 Gd84 2.606 1_545 S
O129 Gd85 2.362 1_455 S
O129 C140 1.284 . S
O130 Gd85 2.324 1_455 S
O130 C150 1.254 . S
O131 Gd84 2.429 1_545 S
O131 C150 1.268 . S
O132 Gd84 2.545 1_545 S
O132 C140 1.250 . S
O133 Gd84 2.412 . S
O133 C143 1.252 . S
O134 Gd85 2.545 . S
O134 C152 1.258 . S
O135 Gd84 2.362 1_655 S
O135 Gd85 2.606 1_565 S
O135 C151 1.284 . S
O136 Gd84 2.324 1_655 S
O136 C159 1.254 . S
O137 Gd85 2.429 1_565 S
O137 C159 1.268 . S
O138 Gd85 2.545 1_565 S
O138 C151 1.250 . S
O139 Gd85 2.412 . S
O139 C152 1.252 . S
C140 O129 1.284 . S
C140 O132 1.250 . S
C141 H110 0.929 . S
C141 C126 1.437 . S
C141 C142 1.317 . S
C142 H113 0.930 . S
C142 C118 1.431 . S
C142 C141 1.317 . S
C143 Gd84 2.828 . S
C143 O128 1.258 1_565 S
C143 O133 1.252 . S
C143 C144 1.497 . S
C144 C143 1.497 . S
C144 C145 1.395 . S
C144 C146 1.380 . S
C145 C144 1.395 . S
C145 C148 1.398 . S
C145 H160 0.930 1_565 S
C146 C144 1.380 . S
C146 C147 1.391 . S
C146 H161 0.930 . S
C147 C146 1.391 . S
C147 C149 1.387 . S
C148 C145 1.398 . S
C148 C149 1.380 . S
C148 H162 0.930 . S
C149 C147 1.387 . S
C149 C148 1.380 . S
C149 H163 0.930 . S
C150 O130 1.254 . S
C150 O131 1.268 . S
C151 O135 1.284 . S
C151 O138 1.250 . S
C152 Gd85 2.828 . S
C152 O134 1.258 . S
C152 O139 1.252 . S
C152 C153 1.497 . S
C153 C152 1.497 . S
C153 C154 1.395 . S
C153 C155 1.380 . S
C154 C153 1.395 . S
C154 C157 1.398 . S
C154 H164 0.930 . S
C155 C153 1.380 . S
C155 C156 1.391 . S
C155 H165 0.930 . S
C156 C155 1.391 . S
C156 C158 1.387 . S
C157 C154 1.398 . S
C157 C158 1.380 . S
C157 H166 0.930 . S
C158 C156 1.387 . S
C158 C157 1.380 . S
C158 H167 0.930 . S
C159 O136 1.254 . S
C159 O137 1.268 . S
H160 C145 0.930 1_545 S
H161 C146 0.930 . S
H162 C148 0.930 . S
H163 C149 0.930 . S
H164 C154 0.930 . S
H165 C155 0.930 . S
H166 C157 0.930 . S
H167 C158 0.930 . S
Zn168 O174 1.920 . S
Zn168 O180 1.898 . S
Zn168 O183 1.905 . S
Zn169 O177 1.905 . S
Zn169 O178 1.898 . S
Zn169 O186 1.920 . S
Zn170 O173 2.080 . S
Zn170 O176 2.114 . S
Zn170 O179 2.120 . S
Zn170 O181 2.120 . S
Zn170 O182 2.114 . S
Zn170 O185 2.080 . S
C171 O176 1.166 . S
C171 O177 1.182 . S
C172 O178 1.167 . S
C172 O179 1.299 . S
O173 Zn170 2.080 . S
O173 C187 1.305 . S
O174 Zn168 1.920 . S
O174 C187 1.234 . S
C175 O180 1.167 . S
C175 O181 1.299 . S
O176 Zn170 2.114 . S
O176 C171 1.166 . S
O177 Zn169 1.905 . S
O177 C171 1.182 . S
O178 Zn169 1.898 . S
O178 C172 1.167 . S
O179 Zn170 2.120 . S
O179 C172 1.299 . S
O180 Zn168 1.898 . S
O180 C175 1.167 . S
O181 Zn170 2.120 . S
O181 C175 1.299 . S
O182 Zn170 2.114 . S
O182 C184 1.166 . S
O183 Zn168 1.905 . S
O183 C184 1.182 . S
C184 O182 1.166 . S
C184 O183 1.182 . S
O185 Zn170 2.080 . S
O185 C188 1.305 . S
O186 Zn169 1.920 . S
O186 C188 1.234 . S
C187 O173 1.305 . S
C187 O174 1.234 . S
C188 O185 1.305 . S
C188 O186 1.234 . S
Zn189 O195 1.920 . S
Zn189 O201 1.898 . S
Zn189 O204 1.905 . S
Zn190 O198 1.905 . S
Zn190 O199 1.898 . S
Zn190 O207 1.920 . S
Zn191 O194 2.080 . S
Zn191 O197 2.114 . S
Zn191 O200 2.120 . S
Zn191 O202 2.120 . S
Zn191 O203 2.114 . S
Zn191 O206 2.080 . S
C192 O197 1.166 . S
C192 O198 1.182 . S
C193 O199 1.167 . S
C193 O200 1.299 . S
O194 Zn191 2.080 . S
O194 C208 1.305 . S
O195 Zn189 1.920 . S
O195 C208 1.234 . S
C196 O201 1.167 . S
C196 O202 1.299 . S
O197 Zn191 2.114 . S
O197 C192 1.166 . S
O198 Zn190 1.905 . S
O198 C192 1.182 . S
O199 Zn190 1.898 . S
O199 C193 1.167 . S
O200 Zn191 2.120 . S
O200 C193 1.299 . S
O201 Zn189 1.898 . S
O201 C196 1.167 . S
O202 Zn191 2.120 . S
O202 C196 1.299 . S
O203 Zn191 2.114 . S
O203 C205 1.166 . S
O204 Zn189 1.905 . S
O204 C205 1.182 . S
C205 O203 1.166 . S
C205 O204 1.182 . S
O206 Zn191 2.080 . S
O206 C209 1.305 . S
O207 Zn190 1.920 . S
O207 C209 1.234 . S
C208 O194 1.305 . S
C208 O195 1.234 . S
C209 O206 1.305 . S
C209 O207 1.234 . S
C210 C211 1.386 . S
C210 C212 1.383 . S
C210 H226 0.951 . S
C211 C210 1.386 . S
C211 C215 1.383 . S
C212 C210 1.383 . S
C212 C213 1.402 . S
C212 H227 0.951 . S
C213 C212 1.402 . S
C213 C214 1.375 . S
C213 C216 1.481 . S
C214 C213 1.375 . S
C214 C215 1.367 . S
C214 H228 0.951 . S
C215 C211 1.383 . S
C215 C214 1.367 . S
C215 H229 0.950 . S
C216 C213 1.481 . S
C216 C217 1.297 . S
C216 H230 0.950 . S
C217 C216 1.297 . S
C217 C218 1.479 . S
C217 H231 0.950 . S
C218 C217 1.479 . S
C218 C219 1.375 . S
C218 C224 1.404 . S
C219 C218 1.375 . S
C219 C220 1.369 . S
C219 H232 0.950 . S
C220 C219 1.369 . S
C220 C221 1.392 . S
C220 H233 0.951 . S
C221 C220 1.392 . S
C221 C223 1.384 . S
H222 C224 0.949 . S
C223 C221 1.384 . S
C223 C224 1.385 . S
C223 H225 0.950 . S
C224 C218 1.404 . S
C224 H222 0.949 . S
C224 C223 1.385 . S
H225 C223 0.950 . S
H226 C210 0.951 . S
H227 C212 0.951 . S
H228 C214 0.951 . S
H229 C215 0.950 . S
H230 C216 0.950 . S
H231 C217 0.950 . S
H232 C219 0.950 . S
H233 C220 0.951 . S
C234 C235 1.386 . S
C234 C236 1.383 . S
C234 H250 0.951 . S
C235 C234 1.386 . S
C235 C239 1.383 . S
C236 C234 1.383 . S
C236 C237 1.402 . S
C236 H251 0.951 . S
C237 C236 1.402 . S
C237 C238 1.375 . S
C237 C240 1.481 . S
C238 C237 1.375 . S
C238 C239 1.367 . S
C238 H252 0.951 . S
C239 C235 1.383 . S
C239 C238 1.367 . S
C239 H253 0.950 . S
C240 C237 1.481 . S
C240 C241 1.297 . S
C240 H254 0.950 . S
C241 C240 1.297 . S
C241 C242 1.479 . S
C241 H255 0.950 . S
C242 C241 1.479 . S
C242 C243 1.375 . S
C242 C248 1.404 . S
C243 C242 1.375 . S
C243 C244 1.369 . S
C243 H256 0.950 . S
C244 C243 1.369 . S
C244 C245 1.392 . S
C244 H257 0.951 . S
C245 C244 1.392 . S
C245 C247 1.384 . S
H246 C248 0.949 . S
C247 C245 1.384 . S
C247 C248 1.385 . S
C247 H249 0.950 . S
C248 C242 1.404 . S
C248 H246 0.949 . S
C248 C247 1.385 . S
H249 C247 0.950 . S
H250 C234 0.951 . S
H251 C236 0.951 . S
H252 C238 0.951 . S
H253 C239 0.950 . S
H254 C240 0.950 . S
H255 C241 0.950 . S
H256 C243 0.950 . S
H257 C244 0.951 . S
C258 C259 1.386 . S
C258 C260 1.383 . S
C258 H274 0.951 . S
C259 C258 1.386 . S
C259 C263 1.383 . S
C260 C258 1.383 . S
C260 C261 1.402 . S
C260 H275 0.951 . S
C261 C260 1.402 . S
C261 C262 1.375 . S
C261 C264 1.481 . S
C262 C261 1.375 . S
C262 C263 1.367 . S
C262 H276 0.951 . S
C263 C259 1.383 . S
C263 C262 1.367 . S
C263 H277 0.950 . S
C264 C261 1.481 . S
C264 C265 1.297 . S
C264 H278 0.950 . S
C265 C264 1.297 . S
C265 C266 1.479 . S
C265 H279 0.950 . S
C266 C265 1.479 . S
C266 C267 1.375 . S
C266 C272 1.404 . S
C267 C266 1.375 . S
C267 C268 1.369 . S
C267 H280 0.950 . S
C268 C267 1.369 . S
C268 C269 1.392 . S
C268 H281 0.951 . S
C269 C268 1.392 . S
C269 C271 1.384 . S
H270 C272 0.949 . S
C271 C269 1.384 . S
C271 C272 1.385 . S
C271 H273 0.950 . S
C272 C266 1.404 . S
C272 H270 0.949 . S
C272 C271 1.385 . S
H273 C271 0.950 . S
H274 C258 0.951 . S
H275 C260 0.951 . S
H276 C262 0.951 . S
H277 C263 0.950 . S
H278 C264 0.950 . S
H279 C265 0.950 . S
H280 C267 0.950 . S
H281 C268 0.951 . S
C282 C283 1.386 . S
C282 C284 1.383 . S
C282 H298 0.951 . S
C283 C282 1.386 . S
C283 C287 1.383 . S
C284 C282 1.383 . S
C284 C285 1.402 . S
C284 H299 0.951 . S
C285 C284 1.402 . S
C285 C286 1.375 . S
C285 C288 1.481 . S
C286 C285 1.375 . S
C286 C287 1.367 . S
C286 H300 0.951 . S
C287 C283 1.383 . S
C287 C286 1.367 . S
C287 H301 0.950 . S
C288 C285 1.481 . S
C288 C289 1.297 . S
C288 H302 0.950 . S
C289 C288 1.297 . S
C289 C290 1.479 . S
C289 H303 0.950 . S
C290 C289 1.479 . S
C290 C291 1.375 . S
C290 C296 1.404 . S
C291 C290 1.375 . S
C291 C292 1.369 . S
C291 H304 0.950 . S
C292 C291 1.369 . S
C292 C293 1.392 . S
C292 H305 0.951 . S
C293 C292 1.392 . S
C293 C295 1.384 . S
H294 C296 0.949 . S
C295 C293 1.384 . S
C295 C296 1.385 . S
C295 H297 0.950 . S
C296 C290 1.404 . S
C296 H294 0.949 . S
C296 C295 1.385 . S
H297 C295 0.950 . S
H298 C282 0.951 . S
H299 C284 0.951 . S
H300 C286 0.951 . S
H301 C287 0.950 . S
H302 C288 0.950 . S
H303 C289 0.950 . S
H304 C291 0.950 . S
H305 C292 0.951 . S
C306 C307 1.386 . S
C306 C308 1.383 . S
C306 H322 0.951 . S
C307 C306 1.386 . S
C307 C311 1.383 . S
C308 C306 1.383 . S
C308 C309 1.402 . S
C308 H323 0.951 . S
C309 C308 1.402 . S
C309 C310 1.375 . S
C309 C312 1.481 . S
C310 C309 1.375 . S
C310 C311 1.367 . S
C310 H324 0.951 . S
C311 C307 1.383 . S
C311 C310 1.367 . S
C311 H325 0.950 . S
C312 C309 1.481 . S
C312 C313 1.297 . S
C312 H326 0.950 . S
C313 C312 1.297 . S
C313 C314 1.479 . S
C313 H327 0.950 . S
C314 C313 1.479 . S
C314 C315 1.375 . S
C314 C320 1.404 . S
C315 C314 1.375 . S
C315 C316 1.369 . S
C315 H328 0.950 . S
C316 C315 1.369 . S
C316 C317 1.392 . S
C316 H329 0.951 . S
C317 C316 1.392 . S
C317 C319 1.384 . S
H318 C320 0.949 . S
C319 C317 1.384 . S
C319 C320 1.385 . S
C319 H321 0.950 . S
C320 C314 1.404 . S
C320 H318 0.949 . S
C320 C319 1.385 . S
H321 C319 0.950 . S
H322 C306 0.951 . S
H323 C308 0.951 . S
H324 C310 0.951 . S
H325 C311 0.950 . S
H326 C312 0.950 . S
H327 C313 0.950 . S
H328 C315 0.950 . S
H329 C316 0.951 . S
C330 C331 1.386 . S
C330 C332 1.383 . S
C330 H346 0.951 . S
C331 C330 1.386 . S
C331 C335 1.383 . S
C332 C330 1.383 . S
C332 C333 1.402 . S
C332 H347 0.951 . S
C333 C332 1.402 . S
C333 C334 1.375 . S
C333 C336 1.481 . S
C334 C333 1.375 . S
C334 C335 1.367 . S
C334 H348 0.951 . S
C335 C331 1.383 . S
C335 C334 1.367 . S
C335 H349 0.950 . S
C336 C333 1.481 . S
C336 C337 1.297 . S
C336 H350 0.950 . S
C337 C336 1.297 . S
C337 C338 1.479 . S
C337 H351 0.950 . S
C338 C337 1.479 . S
C338 C339 1.375 . S
C338 C344 1.404 . S
C339 C338 1.375 . S
C339 C340 1.369 . S
C339 H352 0.950 . S
C340 C339 1.369 . S
C340 C341 1.392 . S
C340 H353 0.951 . S
C341 C340 1.392 . S
C341 C343 1.384 . S
H342 C344 0.949 . S
C343 C341 1.384 . S
C343 C344 1.385 . S
C343 H345 0.950 . S
C344 C338 1.404 . S
C344 H342 0.949 . S
C344 C343 1.385 . S
H345 C343 0.950 . S
H346 C330 0.951 . S
H347 C332 0.951 . S
H348 C334 0.951 . S
H349 C335 0.950 . S
H350 C336 0.950 . S
H351 C337 0.950 . S
H352 C339 0.950 . S
H353 C340 0.951 . S
C354 C355 1.386 . S
C354 C356 1.383 . S
C354 H370 0.951 . S
C355 C354 1.386 . S
C355 C359 1.383 . S
C356 C354 1.383 . S
C356 C357 1.402 . S
C356 H371 0.951 . S
C357 C356 1.402 . S
C357 C358 1.375 . S
C357 C360 1.481 . S
C358 C357 1.375 . S
C358 C359 1.367 . S
C358 H372 0.951 . S
C359 C355 1.383 . S
C359 C358 1.367 . S
C359 H373 0.950 . S
C360 C357 1.481 . S
C360 C361 1.297 . S
C360 H374 0.950 . S
C361 C360 1.297 . S
C361 C362 1.479 . S
C361 H375 0.950 . S
C362 C361 1.479 . S
C362 C363 1.375 . S
C362 C368 1.404 . S
C363 C362 1.375 . S
C363 C364 1.369 . S
C363 H376 0.950 . S
C364 C363 1.369 . S
C364 C365 1.392 . S
C364 H377 0.951 . S
C365 C364 1.392 . S
C365 C367 1.384 . S
H366 C368 0.949 . S
C367 C365 1.384 . S
C367 C368 1.385 . S
C367 H369 0.950 . S
C368 C362 1.404 . S
C368 H366 0.949 . S
C368 C367 1.385 . S
H369 C367 0.950 . S
H370 C354 0.951 . S
H371 C356 0.951 . S
H372 C358 0.951 . S
H373 C359 0.950 . S
H374 C360 0.950 . S
H375 C361 0.950 . S
H376 C363 0.950 . S
H377 C364 0.951 . S
C378 C379 1.386 . S
C378 C380 1.383 . S
C378 H394 0.951 . S
C379 C378 1.386 . S
C379 C383 1.383 . S
C380 C378 1.383 . S
C380 C381 1.402 . S
C380 H395 0.951 . S
C381 C380 1.402 . S
C381 C382 1.375 . S
C381 C384 1.481 . S
C382 C381 1.375 . S
C382 C383 1.367 . S
C382 H396 0.951 . S
C383 C379 1.383 . S
C383 C382 1.367 . S
C383 H397 0.950 . S
C384 C381 1.481 . S
C384 C385 1.297 . S
C384 H398 0.950 . S
C385 C384 1.297 . S
C385 C386 1.479 . S
C385 H399 0.950 . S
C386 C385 1.479 . S
C386 C387 1.375 . S
C386 C392 1.404 . S
C387 C386 1.375 . S
C387 C388 1.369 . S
C387 H400 0.950 . S
C388 C387 1.369 . S
C388 C389 1.392 . S
C388 H401 0.951 . S
C389 C388 1.392 . S
C389 C391 1.384 . S
H390 C392 0.949 . S
C391 C389 1.384 . S
C391 C392 1.385 . S
C391 H393 0.950 . S
C392 C386 1.404 . S
C392 H390 0.949 . S
C392 C391 1.385 . S
H393 C391 0.950 . S
H394 C378 0.951 . S
H395 C380 0.951 . S
H396 C382 0.951 . S
H397 C383 0.950 . S
H398 C384 0.950 . S
H399 C385 0.950 . S
H400 C387 0.950 . S
H401 C388 0.951 . S
C402 C403 1.386 . S
C402 C404 1.383 . S
C402 H418 0.951 . S
C403 C402 1.386 . S
C403 C407 1.383 . S
C404 C402 1.383 . S
C404 C405 1.402 . S
C404 H419 0.951 . S
C405 C404 1.402 . S
C405 C406 1.375 . S
C405 C408 1.481 . S
C406 C405 1.375 . S
C406 C407 1.367 . S
C406 H420 0.951 . S
C407 C403 1.383 . S
C407 C406 1.367 . S
C407 H421 0.950 . S
C408 C405 1.481 . S
C408 C409 1.297 . S
C408 H422 0.950 . S
C409 C408 1.297 . S
C409 C410 1.479 . S
C409 H423 0.950 . S
C410 C409 1.479 . S
C410 C411 1.375 . S
C410 C416 1.404 . S
C411 C410 1.375 . S
C411 C412 1.369 . S
C411 H424 0.950 . S
C412 C411 1.369 . S
C412 C413 1.392 . S
C412 H425 0.951 . S
C413 C412 1.392 . S
C413 C415 1.384 . S
H414 C416 0.949 . S
C415 C413 1.384 . S
C415 C416 1.385 . S
C415 H417 0.950 . S
C416 C410 1.404 . S
C416 H414 0.949 . S
C416 C415 1.385 . S
H417 C415 0.950 . S
H418 C402 0.951 . S
H419 C404 0.951 . S
H420 C406 0.951 . S
H421 C407 0.950 . S
H422 C408 0.950 . S
H423 C409 0.950 . S
H424 C411 0.950 . S
H425 C412 0.951 . S
C426 C427 1.386 . S
C426 C428 1.383 . S
C426 H442 0.951 . S
C427 C426 1.386 . S
C427 C431 1.383 . S
C428 C426 1.383 . S
C428 C429 1.402 . S
C428 H443 0.951 . S
C429 C428 1.402 . S
C429 C430 1.375 . S
C429 C432 1.481 . S
C430 C429 1.375 . S
C430 C431 1.367 . S
C430 H444 0.951 . S
C431 C427 1.383 . S
C431 C430 1.367 . S
C431 H445 0.950 . S
C432 C429 1.481 . S
C432 C433 1.297 . S
C432 H446 0.950 . S
C433 C432 1.297 . S
C433 C434 1.479 . S
C433 H447 0.950 . S
C434 C433 1.479 . S
C434 C435 1.375 . S
C434 C440 1.404 . S
C435 C434 1.375 . S
C435 C436 1.369 . S
C435 H448 0.950 . S
C436 C435 1.369 . S
C436 C437 1.392 . S
C436 H449 0.951 . S
C437 C436 1.392 . S
C437 C439 1.384 . S
H438 C440 0.949 . S
C439 C437 1.384 . S
C439 C440 1.385 . S
C439 H441 0.950 . S
C440 C434 1.404 . S
C440 H438 0.949 . S
C440 C439 1.385 . S
H441 C439 0.950 . S
H442 C426 0.951 . S
H443 C428 0.951 . S
H444 C430 0.951 . S
H445 C431 0.950 . S
H446 C432 0.950 . S
H447 C433 0.950 . S
H448 C435 0.950 . S
H449 C436 0.951 . S
C450 C451 1.386 . S
C450 C452 1.383 . S
C450 H466 0.951 1_565 S
C451 C450 1.386 . S
C451 C455 1.383 . S
C452 C450 1.383 . S
C452 C453 1.402 . S
C452 H467 0.951 . S
C453 C452 1.402 . S
C453 C454 1.375 . S
C453 C456 1.481 . S
C454 C453 1.375 . S
C454 C455 1.367 . S
C454 H468 0.951 . S
C455 C451 1.383 . S
C455 C454 1.367 . S
C455 H469 0.950 . S
C456 C453 1.481 . S
C456 C457 1.297 . S
C456 H470 0.950 . S
C457 C456 1.297 . S
C457 C458 1.479 . S
C457 H471 0.950 . S
C458 C457 1.479 . S
C458 C459 1.375 . S
C458 C464 1.404 . S
C459 C458 1.375 . S
C459 C460 1.369 . S
C459 H472 0.950 . S
C460 C459 1.369 . S
C460 C461 1.392 . S
C460 H473 0.951 . S
C461 C460 1.392 . S
C461 C463 1.384 . S
H462 C464 0.949 . S
C463 C461 1.384 . S
C463 C464 1.385 . S
C463 H465 0.950 . S
C464 C458 1.404 . S
C464 H462 0.949 . S
C464 C463 1.385 . S
H465 C463 0.950 . S
H466 C450 0.951 1_545 S
H467 C452 0.951 . S
H468 C454 0.951 . S
H469 C455 0.950 . S
H470 C456 0.950 . S
H471 C457 0.950 . S
H472 C459 0.950 . S
H473 C460 0.951 . S
C474 C475 1.386 . S
C474 C476 1.383 . S
C474 H490 0.951 1_655 S
C475 C474 1.386 . S
C475 C479 1.383 . S
C476 C474 1.383 . S
C476 C477 1.402 . S
C476 H491 0.951 . S
C477 C476 1.402 . S
C477 C478 1.375 . S
C477 C480 1.481 . S
C478 C477 1.375 . S
C478 C479 1.367 . S
C478 H492 0.951 . S
C479 C475 1.383 . S
C479 C478 1.367 . S
C479 H493 0.950 . S
C480 C477 1.481 . S
C480 C481 1.297 . S
C480 H494 0.950 . S
C481 C480 1.297 . S
C481 C482 1.479 . S
C481 H495 0.950 . S
C482 C481 1.479 . S
C482 C483 1.375 . S
C482 C488 1.404 . S
C483 C482 1.375 . S
C483 C484 1.369 . S
C483 H496 0.950 . S
C484 C483 1.369 . S
C484 C485 1.392 . S
C484 H497 0.951 . S
C485 C484 1.392 . S
C485 C487 1.384 . S
H486 C488 0.949 . S
C487 C485 1.384 . S
C487 C488 1.385 . S
C487 H489 0.950 . S
C488 C482 1.404 . S
C488 H486 0.949 . S
C488 C487 1.385 . S
H489 C487 0.950 . S
H490 C474 0.951 1_455 S
H491 C476 0.951 . S
H492 C478 0.951 . S
H493 C479 0.950 . S
H494 C480 0.950 . S
H495 C481 0.950 . S
H496 C483 0.950 . S
H497 C484 0.951 . S
C211 C72 1.114 . S
C221 C187 1.315 . S
C235 C140 1.530 . S
C245 C193 1.474 . S
C259 C75 1.529 . S
C269 C184 1.504 . S
C283 C156 1.130 . S
C293 C209 1.163 . S
C307 C56 1.534 . S
C317 C175 1.494 . S
C341 C192 1.480 . S
C331 C159 1.541 . S
C355 C147 1.170 . S
C365 C188 1.172 . S
C389 C205 1.515 . S
C379 C67 1.591 . S
C413 C172 1.470 . S
C403 C150 1.558 . S
C437 C208 1.334 . S
C427 C63 1.094 . S
C461 C171 1.532 . S
C451 C151 1.586 . S
C485 C196 1.382 . S
C475 C66 1.534 . S
