# Generated by pormake.
# Topology anh, (6,3)-cn, num edge types: 1
# Building blocks:
#     Node 0, Type 0, BuildingBlock: MIFKUJ_clean_sbu_0, # of connection points: 6
#     Node 1, Type 0, BuildingBlock: MIFKUJ_clean_sbu_0, # of connection points: 6
#     Node 2, Type 0, BuildingBlock: MIFKUJ_clean_sbu_0, # of connection points: 6
#     Node 3, Type 1, BuildingBlock: WUSLED_clean_sbu_0, # of connection points: 3
#     Node 4, Type 1, BuildingBlock: WUSLED_clean_sbu_0, # of connection points: 3
#     Node 5, Type 1, BuildingBlock: WUSLED_clean_sbu_0, # of connection points: 3
#     Node 6, Type 1, BuildingBlock: WUSLED_clean_sbu_0, # of connection points: 3
#     Node 7, Type 1, BuildingBlock: WUSLED_clean_sbu_0, # of connection points: 3
#     Node 8, Type 1, BuildingBlock: WUSLED_clean_sbu_0, # of connection points: 3
#     Edge 9, Type (0, 1), BuildingBlock: XIVTED_clean_linker_0, # of connection points: 2
#     Edge 10, Type (0, 1), BuildingBlock: XIVTED_clean_linker_0, # of connection points: 2
#     Edge 11, Type (0, 1), BuildingBlock: XIVTED_clean_linker_0, # of connection points: 2
#     Edge 12, Type (0, 1), BuildingBlock: XIVTED_clean_linker_0, # of connection points: 2
#     Edge 13, Type (0, 1), BuildingBlock: XIVTED_clean_linker_0, # of connection points: 2
#     Edge 14, Type (0, 1), BuildingBlock: XIVTED_clean_linker_0, # of connection points: 2
#     Edge 15, Type (0, 1), BuildingBlock: XIVTED_clean_linker_0, # of connection points: 2
#     Edge 16, Type (0, 1), BuildingBlock: XIVTED_clean_linker_0, # of connection points: 2
#     Edge 17, Type (0, 1), BuildingBlock: XIVTED_clean_linker_0, # of connection points: 2
#     Edge 18, Type (0, 1), BuildingBlock: XIVTED_clean_linker_0, # of connection points: 2
#     Edge 19, Type (0, 1), BuildingBlock: XIVTED_clean_linker_0, # of connection points: 2
#     Edge 20, Type (0, 1), BuildingBlock: XIVTED_clean_linker_0, # of connection points: 2
#     Edge 21, Type (0, 1), BuildingBlock: XIVTED_clean_linker_0, # of connection points: 2
#     Edge 22, Type (0, 1), BuildingBlock: XIVTED_clean_linker_0, # of connection points: 2
#     Edge 23, Type (0, 1), BuildingBlock: XIVTED_clean_linker_0, # of connection points: 2
#     Edge 24, Type (0, 1), BuildingBlock: XIVTED_clean_linker_0, # of connection points: 2
#     Edge 25, Type (0, 1), BuildingBlock: XIVTED_clean_linker_0, # of connection points: 2
#     Edge 26, Type (0, 1), BuildingBlock: XIVTED_clean_linker_0, # of connection points: 2
# Relax obj value: 0.128
# Max RMSD: 0.180
# Mean RMSD: 0.138
data_MOF--net-anh--node1-MIFKUJ_clean_sbu_0--node2-WUSLED_clean_sbu_0--edge1-XIVTED_clean_linker_0
_symmetry_space_group_name_H-M    P1
_symmetry_Int_Tables_number       1
_symmetry_cell_setting            triclinic
loop_
_symmetry_equiv_pos_as_xyz
'x, y, z'
_cell_length_a     40.136467
_cell_length_b     40.024127
_cell_length_c     68.113618
_cell_angle_alpha  93.472697
_cell_angle_beta   90.948806
_cell_angle_gamma 119.88617
loop_
_atom_site_label
_atom_site_type_symbol
_atom_site_fract_x
_atom_site_fract_y
_atom_site_fract_z
_atom_type_partial_charge
Zn0 Zn 0.06265 0.54949 0.16775 0.0
Zn1 Zn 0.94144 0.48863 0.16498 0.0
C2 C 0.12284 0.53614 0.17915 0.0
O3 O 0.12881 0.56407 0.19241 0.0
C4 C 0.88002 0.49629 0.15124 0.0
O5 O 0.88126 0.47232 0.13761 0.0
O6 O 0.10366 0.60542 0.16828 0.0
O7 O 0.03131 0.53422 0.14194 0.0
O8 O 0.96738 0.50047 0.13937 0.0
C9 C 0.10613 0.633 0.15891 0.0
O10 O 0.07725 0.62748 0.14716 0.0
O11 O 0.09386 0.52273 0.16699 0.0
C12 C 0.88335 0.42353 0.18005 0.0
O13 O 0.88932 0.45183 0.19305 0.0
O14 O 0.9048 0.43132 0.16551 0.0
O15 O 0.97402 0.50661 0.19016 0.0
O16 O 0.03775 0.5403 0.19388 0.0
O17 O 0.9057 0.5105 0.16527 0.0
C18 C 0.99973 0.51758 0.13161 0.0
C19 C 0.00481 0.52347 0.20105 0.0
Zn20 Zn 0.57967 0.07411 0.50002 0.0
Zn21 Zn 0.5156 0.95049 0.49713 0.0
C22 C 0.65948 0.12656 0.50957 0.0
O23 O 0.64716 0.12297 0.52749 0.0
C24 C 0.44755 0.87778 0.49266 0.0
O25 O 0.47087 0.87072 0.48221 0.0
O26 O 0.56026 0.11149 0.50099 0.0
O27 O 0.5519 0.03176 0.47881 0.0
O28 O 0.51721 0.96971 0.47019 0.0
C29 C 0.56373 0.13389 0.48775 0.0
O30 O 0.57729 0.13039 0.47081 0.0
O31 O 0.6359 0.10621 0.49524 0.0
C32 C 0.55318 0.9114 0.51232 0.0
O33 O 0.54727 0.92448 0.52928 0.0
O34 O 0.54402 0.92078 0.49648 0.0
O35 O 0.53726 0.99097 0.52045 0.0
O36 O 0.572 0.05437 0.52685 0.0
O37 O 0.46001 0.9115 0.50098 0.0
C38 C 0.53407 0.0044 0.46554 0.0
C39 C 0.55332 0.02061 0.53274 0.0
Zn40 Zn 0.56548 0.51375 0.83259 0.0
Zn41 Zn 0.49409 0.55228 0.83154 0.0
C42 C 0.54521 0.43597 0.83617 0.0
O43 O 0.56067 0.45192 0.85383 0.0
C44 C 0.50943 0.62091 0.81538 0.0
O45 O 0.48523 0.59412 0.8021 0.0
O46 O 0.62138 0.53095 0.83772 0.0
O47 O 0.5625 0.54404 0.81062 0.0
O48 O 0.5008 0.52553 0.8069 0.0
C49 C 0.64123 0.53115 0.82333 0.0
O50 O 0.62528 0.52241 0.80538 0.0
O51 O 0.5419 0.4568 0.82373 0.0
C52 C 0.41054 0.51024 0.83686 0.0
O53 O 0.41594 0.48413 0.84486 0.0
O54 O 0.43891 0.5393 0.83029 0.0
O55 O 0.50359 0.53966 0.85855 0.0
O56 O 0.54513 0.51835 0.85863 0.0
O57 O 0.52159 0.61047 0.82985 0.0
C58 C 0.53232 0.5323 0.79961 0.0
C59 C 0.52285 0.52737 0.86754 0.0
C60 C 0.56876 0.10287 0.19225 0.0
C61 C 0.59367 0.12457 0.20853 0.0
C62 C 0.63838 0.17123 0.18712 0.0
C63 C 0.62812 0.15827 0.206 0.0
C64 C 0.61353 0.14915 0.17075 0.0
C65 C 0.57886 0.11516 0.17332 0.0
U66 U 0.50455 0.03903 0.22884 0.0
O67 O 0.44178 0.00703 0.23119 0.0
O68 O 0.47429 0.9761 0.23076 0.0
C69 C 0.4403 0.97341 0.23088 0.0
C70 C 0.5326 0.06759 0.19547 0.0
C71 C 0.40974 0.94128 0.2182 0.0
C72 C 0.36385 0.91536 0.18987 0.0
C73 C 0.3942 0.94698 0.20091 0.0
C74 C 0.36505 0.87241 0.21312 0.0
C75 C 0.34905 0.87774 0.1959 0.0
C76 C 0.395 0.90384 0.22413 0.0
C77 C 0.5397 0.07003 0.28271 0.0
C78 C 0.51817 0.02627 0.30884 0.0
C79 C 0.5543 0.09551 0.31694 0.0
C80 C 0.55645 0.10153 0.29688 0.0
C81 C 0.53555 0.05778 0.32319 0.0
C82 C 0.52006 0.03236 0.2888 0.0
C83 C 0.54391 0.07683 0.26169 0.0
O84 O 0.53715 0.04052 0.20296 0.0
O85 O 0.50697 0.07355 0.20437 0.0
O86 O 0.51822 0.08337 0.25328 0.0
O87 O 0.55107 0.05306 0.25086 0.0
H88 H 0.58641 0.11537 0.22326 0.0
H89 H 0.64687 0.17409 0.21888 0.0
H90 H 0.62053 0.1585 0.15604 0.0
H91 H 0.55991 0.09866 0.1606 0.0
H92 H 0.3521 0.92025 0.17664 0.0
H93 H 0.40524 0.97574 0.19605 0.0
H94 H 0.35381 0.84393 0.21838 0.0
H95 H 0.4064 0.89891 0.2375 0.0
H96 H 0.5039 0.99682 0.31302 0.0
H97 H 0.56735 0.12048 0.32753 0.0
H98 H 0.57151 0.13081 0.29244 0.0
H99 H 0.50678 0.00761 0.27805 0.0
C100 C 0.56884 0.60292 0.52348 0.0
C101 C 0.56245 0.62322 0.53906 0.0
C102 C 0.57585 0.67547 0.51838 0.0
C103 C 0.56575 0.65899 0.53653 0.0
C104 C 0.58189 0.65485 0.50268 0.0
C105 C 0.57849 0.61879 0.50524 0.0
U106 U 0.56132 0.53549 0.56039 0.0
O107 O 0.5899 0.50173 0.56488 0.0
O108 O 0.52671 0.47242 0.56148 0.0
C109 C 0.55725 0.46872 0.56382 0.0
C110 C 0.56655 0.56597 0.52687 0.0
C111 C 0.55678 0.43617 0.55253 0.0
C112 C 0.56653 0.40585 0.52286 0.0
C113 C 0.56514 0.43706 0.53256 0.0
C114 C 0.55039 0.37287 0.55294 0.0
C115 C 0.55986 0.37376 0.53312 0.0
C116 C 0.54898 0.40378 0.56252 0.0
C117 C 0.55829 0.56682 0.61374 0.0
C118 C 0.53691 0.52286 0.6398 0.0
C119 C 0.57502 0.59202 0.64796 0.0
C120 C 0.57652 0.59819 0.62794 0.0
C121 C 0.55503 0.5543 0.6541 0.0
C122 C 0.53875 0.52905 0.61977 0.0
C123 C 0.56058 0.57394 0.59276 0.0
O124 O 0.59657 0.56936 0.53682 0.0
O125 O 0.53359 0.53997 0.53335 0.0
O126 O 0.52949 0.55095 0.58152 0.0
O127 O 0.59248 0.57973 0.58487 0.0
H128 H 0.55501 0.6114 0.55327 0.0
H129 H 0.56008 0.67361 0.54881 0.0
H130 H 0.5899 0.66687 0.48855 0.0
H131 H 0.58371 0.60354 0.49309 0.0
H132 H 0.57384 0.40727 0.50758 0.0
H133 H 0.57116 0.462 0.52465 0.0
H134 H 0.54421 0.34822 0.56114 0.0
H135 H 0.54229 0.40259 0.5779 0.0
H136 H 0.52168 0.49349 0.64412 0.0
H137 H 0.58894 0.6168 0.65865 0.0
H138 H 0.59187 0.62751 0.62354 0.0
H139 H 0.52492 0.50437 0.609 0.0
C140 C 0.96836 0.55224 0.8532 0.0
C141 C 0.95221 0.56488 0.86792 0.0
C142 C 0.89894 0.55172 0.84518 0.0
C143 C 0.91802 0.56486 0.86392 0.0
C144 C 0.91556 0.53961 0.83035 0.0
C145 C 0.95003 0.53984 0.83436 0.0
U146 U 0.03081 0.54734 0.89264 0.0
O147 O 0.05749 0.51141 0.89556 0.0
O148 O 0.09361 0.57474 0.89773 0.0
C149 C 0.09263 0.54133 0.89672 0.0
C150 C 0.00269 0.54959 0.85813 0.0
C151 C 0.12107 0.53835 0.88433 0.0
C152 C 0.13935 0.50108 0.86201 0.0
C153 C 0.11101 0.50514 0.87174 0.0
C154 C 0.18797 0.56398 0.87656 0.0
C155 C 0.17819 0.53017 0.8646 0.0
C156 C 0.15972 0.56791 0.8864 0.0
C157 C 0.99841 0.54839 0.94498 0.0
C158 C 0.02898 0.5383 0.97329 0.0
C159 C 0.97473 0.54847 0.97746 0.0
C160 C 0.97264 0.55201 0.95729 0.0
C161 C 0.00264 0.54116 0.98568 0.0
C162 C 0.02683 0.54182 0.95306 0.0
C163 C 0.99426 0.55013 0.92371 0.0
O164 O 0.03073 0.58038 0.86801 0.0
O165 O 0.99531 0.51711 0.86547 0.0
O166 O 0.98496 0.51798 0.913 0.0
O167 O 0.02129 0.58117 0.91628 0.0
H168 H 0.96579 0.57428 0.88263 0.0
H169 H 0.90649 0.57504 0.87559 0.0
H170 H 0.90142 0.52892 0.81582 0.0
H171 H 0.96192 0.5296 0.8229 0.0
H172 H 0.13097 0.47487 0.85274 0.0
H173 H 0.08146 0.4818 0.8698 0.0
H174 H 0.21772 0.58668 0.87905 0.0
H175 H 0.1683 0.59361 0.89614 0.0
H176 H 0.05062 0.5324 0.97915 0.0
H177 H 0.95446 0.5515 0.98664 0.0
H178 H 0.95062 0.55719 0.95125 0.0
H179 H 0.0469 0.53886 0.94368 0.0
C180 C 0.96438 0.44217 0.47753 0.0
C181 C 0.94633 0.41293 0.4622 0.0
C182 C 0.90104 0.36991 0.48475 0.0
C183 C 0.91519 0.37712 0.46579 0.0
C184 C 0.91947 0.39927 0.50014 0.0
C185 C 0.95093 0.43514 0.49654 0.0
U186 U 0.01585 0.51249 0.43998 0.0
O187 O 0.04186 0.57581 0.44052 0.0
O188 O 0.07687 0.54851 0.43439 0.0
C189 C 0.07637 0.58098 0.43765 0.0
C190 C 0.99608 0.48028 0.47335 0.0
C191 C 0.10806 0.6112 0.45059 0.0
C192 C 0.1575 0.63078 0.47679 0.0
C193 C 0.124 0.60202 0.46646 0.0
C194 C 0.158 0.67845 0.4563 0.0
C195 C 0.1754 0.66913 0.47148 0.0
C196 C 0.12468 0.64969 0.44593 0.0
C197 C 0.97736 0.48175 0.3868 0.0
C198 C 0.01534 0.51434 0.35946 0.0
C199 C 0.94754 0.4672 0.35381 0.0
C200 C 0.94487 0.46132 0.37387 0.0
C201 C 0.98292 0.49346 0.34629 0.0
C202 C 0.01252 0.50866 0.37955 0.0
C203 C 0.97446 0.47427 0.40771 0.0
O204 O 0.02277 0.47946 0.46273 0.0
O205 O 0.98523 0.50421 0.46738 0.0
O206 O 0.9667 0.49681 0.4192 0.0
O207 O 0.00178 0.4691 0.41523 0.0
H208 H 0.9562 0.4179 0.44738 0.0
H209 H 0.90223 0.35507 0.45365 0.0
H210 H 0.90905 0.39492 0.51485 0.0
H211 H 0.96437 0.45754 0.5085 0.0
H212 H 0.17002 0.62283 0.48856 0.0
H213 H 0.11138 0.57246 0.4704 0.0
H214 H 0.17128 0.70758 0.45169 0.0
H215 H 0.11276 0.65726 0.43372 0.0
H216 H 0.04313 0.53444 0.35423 0.0
H217 H 0.9218 0.45119 0.34422 0.0
H218 H 0.91745 0.44063 0.37927 0.0
H219 H 0.03793 0.52483 0.38938 0.0
C220 C 0.53222 0.95269 0.80879 0.0
C221 C 0.5269 0.92804 0.79204 0.0
C222 C 0.52912 0.88121 0.81243 0.0
C223 C 0.52538 0.8928 0.79382 0.0
C224 C 0.53512 0.90629 0.82924 0.0
C225 C 0.53658 0.94179 0.82743 0.0
U226 U 0.53364 0.01976 0.77318 0.0
O227 O 0.56669 0.08298 0.77157 0.0
O228 O 0.50335 0.05239 0.77019 0.0
C229 C 0.53546 0.08579 0.77026 0.0
C230 C 0.53348 0.98962 0.80628 0.0
C231 C 0.53659 0.11972 0.78076 0.0
C232 C 0.51227 0.14922 0.80452 0.0
C233 C 0.51414 0.11682 0.79689 0.0
C234 C 0.55592 0.18765 0.78034 0.0
C235 C 0.53244 0.18476 0.79597 0.0
C236 C 0.55796 0.15553 0.77286 0.0
C237 C 0.5326 0.98445 0.71939 0.0
C238 C 0.53089 0.01849 0.6914 0.0
C239 C 0.53648 0.96105 0.6863 0.0
C240 C 0.53576 0.9576 0.70658 0.0
C241 C 0.53404 0.99152 0.67844 0.0
C242 C 0.53017 0.01497 0.71174 0.0
C243 C 0.53234 0.98028 0.74065 0.0
O244 O 0.56518 0.016 0.79895 0.0
O245 O 0.50216 0.98607 0.79768 0.0
O246 O 0.5011 0.97487 0.74919 0.0
O247 O 0.56419 0.00505 0.75085 0.0
H248 H 0.52387 0.93609 0.7775 0.0
H249 H 0.52155 0.87471 0.78053 0.0
H250 H 0.53796 0.89818 0.84379 0.0
H251 H 0.5409 0.96055 0.84052 0.0
H252 H 0.49394 0.14611 0.81658 0.0
H253 H 0.49726 0.08941 0.80319 0.0
H254 H 0.57241 0.21474 0.77368 0.0
H255 H 0.57537 0.1584 0.76038 0.0
H256 H 0.5286 0.04207 0.68582 0.0
H257 H 0.53958 0.94019 0.67679 0.0
H258 H 0.5379 0.934 0.7123 0.0
H259 H 0.52773 0.03599 0.72148 0.0
C260 C 0.57333 0.52184 0.14503 0.0
C261 C 0.59647 0.52796 0.12893 0.0
C262 C 0.64226 0.51968 0.14881 0.0
C263 C 0.63055 0.52697 0.13079 0.0
C264 C 0.61969 0.51477 0.16517 0.0
C265 C 0.58525 0.51564 0.16326 0.0
U266 U 0.50232 0.51695 0.10818 0.0
O267 O 0.43948 0.48077 0.1035 0.0
O268 O 0.46658 0.54415 0.10623 0.0
C269 C 0.4343 0.51075 0.10428 0.0
C270 C 0.53585 0.51945 0.14194 0.0
C271 C 0.40265 0.5076 0.11599 0.0
C272 C 0.37646 0.51482 0.14684 0.0
C273 C 0.40721 0.51693 0.13641 0.0
C274 C 0.33656 0.49352 0.11651 0.0
C275 C 0.34079 0.50318 0.13695 0.0
C276 C 0.36716 0.49568 0.10617 0.0
C277 C 0.53308 0.51848 0.05517 0.0
C278 C 0.49627 0.51932 0.02673 0.0
C279 C 0.55309 0.51362 0.02227 0.0
C280 C 0.55859 0.51496 0.04264 0.0
C281 C 0.52183 0.51568 0.01405 0.0
C282 C 0.50181 0.5206 0.04717 0.0
C283 C 0.5396 0.51963 0.0765 0.0
O284 O 0.53754 0.55019 0.13498 0.0
O285 O 0.50953 0.48694 0.1325 0.0
O286 O 0.51713 0.48741 0.08459 0.0
O287 O 0.5442 0.55065 0.08677 0.0
H288 H 0.58773 0.53272 0.11472 0.0
H289 H 0.64759 0.53152 0.11801 0.0
H290 H 0.62795 0.50894 0.17922 0.0
H291 H 0.56759 0.51065 0.17581 0.0
H292 H 0.38057 0.52224 0.16258 0.0
H293 H 0.43451 0.52612 0.14421 0.0
H294 H 0.30985 0.48525 0.10833 0.0
H295 H 0.36325 0.48855 0.09039 0.0
H296 H 0.47177 0.52067 0.02085 0.0
H297 H 0.57369 0.5115 0.01297 0.0
H298 H 0.58291 0.51337 0.04862 0.0
H299 H 0.48174 0.52317 0.05672 0.0
H300 H 0.11861 0.47675 0.15494 0.0
H301 H 0.3437 0.55575 0.16583 0.0
H302 H 0.19474 0.56987 0.19737 0.0
H303 H 0.26389 0.44971 0.1319 0.0
H304 H 0.28928 0.55878 0.17954 0.0
H305 H 0.17079 0.46376 0.148 0.0
C306 C 0.14616 0.49418 0.16296 0.0
C307 C 0.1524 0.52466 0.17661 0.0
C308 C 0.28368 0.5346 0.16926 0.0
C309 C 0.21244 0.51027 0.16859 0.0
C310 C 0.31478 0.53274 0.16151 0.0
C311 C 0.3084 0.50272 0.14745 0.0
C312 C 0.24593 0.5064 0.16282 0.0
C313 C 0.2702 0.4739 0.14231 0.0
C314 C 0.17597 0.48675 0.159 0.0
C315 C 0.18866 0.54618 0.18665 0.0
N316 N 0.24047 0.4767 0.1498 0.0
N317 N 0.21745 0.53889 0.18226 0.0
H318 H 0.71933 0.17158 0.53643 0.0
H319 H 0.8366 0.32652 0.46028 0.0
H320 H 0.68764 0.15451 0.47423 0.0
H321 H 0.88652 0.3274 0.51711 0.0
H322 H 0.78063 0.26464 0.46582 0.0
H323 H 0.78004 0.22937 0.53032 0.0
C324 C 0.72532 0.17971 0.52146 0.0
C325 C 0.69828 0.1583 0.50583 0.0
C326 C 0.80394 0.27821 0.47703 0.0
C327 C 0.7673 0.22462 0.49881 0.0
C328 C 0.83606 0.31356 0.47386 0.0
C329 C 0.86661 0.33224 0.48819 0.0
C330 C 0.80191 0.26141 0.49478 0.0
C331 C 0.86355 0.31435 0.50573 0.0
C332 C 0.75995 0.2127 0.518 0.0
C333 C 0.7076 0.17012 0.48673 0.0
N334 N 0.83171 0.27999 0.50857 0.0
N335 N 0.74113 0.20272 0.4838 0.0
H336 H 0.55399 0.68443 0.84156 0.0
H337 H 0.47888 0.81268 0.79196 0.0
H338 H 0.48126 0.64899 0.78821 0.0
H339 H 0.57216 0.86184 0.83644 0.0
H340 H 0.47665 0.75093 0.7926 0.0
H341 H 0.55962 0.74853 0.84163 0.0
C342 C 0.53954 0.69018 0.82978 0.0
C343 C 0.51704 0.66115 0.81488 0.0
C344 C 0.49774 0.77517 0.80221 0.0
C345 C 0.52285 0.73404 0.81508 0.0
C346 C 0.4991 0.81057 0.80182 0.0
C347 C 0.52614 0.8428 0.81396 0.0
C348 C 0.52344 0.77151 0.81492 0.0
C349 C 0.55078 0.8378 0.82685 0.0
C350 C 0.54267 0.72671 0.82988 0.0
C351 C 0.49888 0.67026 0.80003 0.0
N352 N 0.54894 0.80284 0.82696 0.0
N353 N 0.50197 0.70566 0.8006 0.0
H354 H 0.86233 0.53678 0.1793 0.0
H355 H 0.66265 0.48009 0.12241 0.0
H356 H 0.82175 0.47025 0.12309 0.0
H357 H 0.70083 0.54967 0.17779 0.0
H358 H 0.72113 0.47609 0.12308 0.0
H359 H 0.80431 0.54266 0.17945 0.0
C360 C 0.84142 0.52369 0.16694 0.0
C361 C 0.84691 0.50296 0.15116 0.0
C362 C 0.71691 0.49232 0.13512 0.0
C363 C 0.78048 0.50927 0.15134 0.0
C364 C 0.68351 0.49471 0.1347 0.0
C365 C 0.67705 0.51564 0.14996 0.0
C366 C 0.74434 0.51096 0.15091 0.0
C367 C 0.70468 0.53319 0.16575 0.0
C368 C 0.80826 0.52692 0.16708 0.0
C369 C 0.8188 0.48644 0.13559 0.0
N370 N 0.73728 0.53062 0.16578 0.0
N371 N 0.78687 0.48988 0.13611 0.0
H372 H 0.38577 0.88472 0.50419 0.0
H373 H 0.23697 0.65946 0.47893 0.0
H374 H 0.41754 0.80056 0.48405 0.0
H375 H 0.20228 0.74573 0.48311 0.0
H376 H 0.30296 0.70963 0.4883 0.0
H377 H 0.31823 0.83285 0.50337 0.0
C378 C 0.3786 0.85533 0.4998 0.0
C379 C 0.40719 0.84696 0.49396 0.0
C380 C 0.28085 0.71755 0.48739 0.0
C381 C 0.33042 0.78776 0.49314 0.0
C382 C 0.24306 0.68884 0.48222 0.0
C383 C 0.21409 0.69846 0.48008 0.0
C384 C 0.28984 0.75622 0.49046 0.0
C385 C 0.22387 0.73718 0.48429 0.0
C386 C 0.34012 0.82582 0.4993 0.0
C387 C 0.39638 0.8084 0.48844 0.0
N388 N 0.26102 0.76475 0.48913 0.0
N389 N 0.35888 0.7803 0.4881 0.0
H390 H 0.52256 0.39634 0.79958 0.0
H391 H 0.53327 0.21333 0.83391 0.0
H392 H 0.54745 0.38408 0.85975 0.0
H393 H 0.52208 0.23315 0.77323 0.0
H394 H 0.53061 0.27177 0.84416 0.0
H395 H 0.51422 0.33251 0.79017 0.0
C396 C 0.52589 0.3801 0.81085 0.0
C397 C 0.53603 0.39579 0.83046 0.0
C398 C 0.52857 0.26321 0.8286 0.0
C399 C 0.52674 0.32271 0.81977 0.0
C400 C 0.52991 0.22976 0.82276 0.0
C401 C 0.52839 0.2186 0.80268 0.0
C402 C 0.52539 0.28548 0.81426 0.0
C403 C 0.52414 0.24109 0.78886 0.0
C404 C 0.52125 0.34368 0.80546 0.0
C405 C 0.53991 0.37331 0.84442 0.0
N406 N 0.52294 0.27343 0.7949 0.0
N407 N 0.53549 0.33808 0.8388 0.0
H408 H 0.55067 0.86491 0.48039 0.0
H409 H 0.60838 0.7391 0.54485 0.0
H410 H 0.58089 0.88917 0.5428 0.0
H411 H 0.55227 0.69965 0.48674 0.0
H412 H 0.60886 0.79985 0.54236 0.0
H413 H 0.56193 0.81022 0.48058 0.0
C414 C 0.56022 0.85911 0.49408 0.0
C415 C 0.56461 0.88151 0.51165 0.0
C416 C 0.59663 0.778 0.53011 0.0
C417 C 0.57738 0.81892 0.51194 0.0
C418 C 0.59617 0.74321 0.53154 0.0
C419 C 0.57969 0.71392 0.5161 0.0
C420 C 0.58067 0.78381 0.51306 0.0
C421 C 0.56532 0.7214 0.49899 0.0
C422 C 0.56643 0.82776 0.49418 0.0
C423 C 0.57691 0.87255 0.52894 0.0
N424 N 0.56588 0.75552 0.49799 0.0
N425 N 0.58268 0.84185 0.52867 0.0
H426 H 0.67704 0.53429 0.85849 0.0
H427 H 0.87214 0.56837 0.8118 0.0
H428 H 0.69472 0.54219 0.7962 0.0
H429 H 0.83981 0.53039 0.87001 0.0
H430 H 0.81017 0.56528 0.80637 0.0
H431 H 0.74029 0.54051 0.86372 0.0
C432 C 0.69435 0.53766 0.84592 0.0
C433 C 0.68053 0.53762 0.82686 0.0
C434 C 0.81675 0.55767 0.82032 0.0
C435 C 0.75295 0.54465 0.83276 0.0
C436 C 0.85202 0.55922 0.8234 0.0
C437 C 0.86139 0.54981 0.84143 0.0
C438 C 0.79072 0.54681 0.83541 0.0
C439 C 0.83429 0.53867 0.85602 0.0
C440 C 0.73038 0.541 0.84891 0.0
C441 C 0.70419 0.54191 0.81114 0.0
N442 N 0.80031 0.53757 0.8527 0.0
N443 N 0.73927 0.54526 0.81443 0.0
H444 H 0.12005 0.7043 0.14852 0.0
H445 H 0.34158 0.80717 0.1862 0.0
H446 H 0.17569 0.64658 0.17323 0.0
H447 H 0.28171 0.87091 0.18077 0.0
H448 H 0.28354 0.74836 0.1735 0.0
H449 H 0.18144 0.76585 0.15324 0.0
C450 C 0.14512 0.70452 0.15482 0.0
C451 C 0.14264 0.67037 0.16073 0.0
C452 C 0.28312 0.77524 0.17491 0.0
C453 C 0.21258 0.74008 0.16582 0.0
C454 C 0.31624 0.80882 0.18216 0.0
C455 C 0.31619 0.84379 0.18494 0.0
C456 C 0.24952 0.77647 0.17039 0.0
C457 C 0.28287 0.84446 0.17895 0.0
C458 C 0.18003 0.73956 0.1575 0.0
C459 C 0.17603 0.67222 0.16871 0.0
N460 N 0.25058 0.8111 0.17218 0.0
N461 N 0.20948 0.7064 0.17101 0.0
H462 H 0.55876 0.16131 0.52441 0.0
H463 H 0.53323 0.336 0.49605 0.0
H464 H 0.55978 0.18436 0.46322 0.0
H465 H 0.59501 0.33781 0.54896 0.0
H466 H 0.53328 0.27704 0.48324 0.0
H467 H 0.55927 0.22111 0.53368 0.0
C468 C 0.55859 0.17869 0.51286 0.0
C469 C 0.55942 0.16787 0.49298 0.0
C470 C 0.54703 0.29073 0.49757 0.0
C471 C 0.56014 0.23668 0.50362 0.0
C472 C 0.54717 0.32433 0.50484 0.0
C473 C 0.56343 0.34131 0.52378 0.0
C474 C 0.56287 0.27414 0.50946 0.0
C475 C 0.58112 0.32504 0.53455 0.0
C476 C 0.55923 0.21304 0.51821 0.0
C477 C 0.55934 0.1918 0.47872 0.0
N478 N 0.57992 0.29217 0.52736 0.0
N479 N 0.55964 0.22524 0.48431 0.0
H480 H 0.34348 0.45459 0.85127 0.0
H481 H 0.24173 0.58155 0.8461 0.0
H482 H 0.39178 0.5621 0.82348 0.0
H483 H 0.18479 0.4654 0.86448 0.0
H484 H 0.29573 0.57351 0.83613 0.0
H485 H 0.28369 0.4562 0.85467 0.0
C486 C 0.34141 0.47832 0.84571 0.0
C487 C 0.37284 0.50843 0.83727 0.0
C488 C 0.27123 0.54959 0.84213 0.0
C489 C 0.30466 0.51061 0.84122 0.0
C490 C 0.24049 0.55424 0.84787 0.0
C491 C 0.20887 0.52419 0.85624 0.0
C492 C 0.27059 0.5148 0.845 0.0
C493 C 0.20851 0.48924 0.85799 0.0
C494 C 0.30725 0.47922 0.84764 0.0
C495 C 0.36844 0.53838 0.83025 0.0
N496 N 0.23911 0.48566 0.85265 0.0
N497 N 0.33517 0.5389 0.83256 0.0
H498 H 0.83495 0.39894 0.21005 0.0
H499 H 0.69145 0.18784 0.15867 0.0
H500 H 0.85438 0.35977 0.1532 0.0
H501 H 0.66789 0.23867 0.21046 0.0
H502 H 0.75261 0.24834 0.15672 0.0
H503 H 0.77602 0.3374 0.21129 0.0
C504 C 0.82694 0.37727 0.19783 0.0
C505 C 0.84958 0.38466 0.18144 0.0
C506 C 0.73397 0.24613 0.16848 0.0
C507 C 0.78156 0.3138 0.18271 0.0
C508 C 0.69898 0.21174 0.16954 0.0
C509 C 0.67464 0.20802 0.18487 0.0
C510 C 0.74459 0.27689 0.18287 0.0
C511 C 0.68602 0.23983 0.19863 0.0
C512 C 0.79311 0.34208 0.19853 0.0
C513 C 0.83774 0.35528 0.16612 0.0
N514 N 0.72011 0.27274 0.19733 0.0
N515 N 0.80438 0.32111 0.16708 0.0
H516 H 0.93849 0.48383 0.10457 0.0
H517 H 0.0657 0.569 0.01159 0.0
H518 H 0.0625 0.55382 0.10906 0.0
H519 H 0.94166 0.50096 0.00839 0.0
H520 H 0.06583 0.56122 0.04698 0.0
H521 H 0.93981 0.48755 0.06903 0.0
C522 C 0.96606 0.49992 0.09811 0.0
C523 C 0.00044 0.51865 0.10991 0.0
C524 C 0.03861 0.54796 0.03851 0.0
C525 C 0.00211 0.5231 0.06904 0.0
C526 C 0.03852 0.55223 0.0183 0.0
C527 C 0.00359 0.53588 0.00704 0.0
C528 C 0.00351 0.52709 0.0475 0.0
C529 C 0.96923 0.5147 0.01655 0.0
C530 C 0.96678 0.50204 0.07776 0.0
C531 C 0.03526 0.53897 0.10059 0.0
N532 N 0.97008 0.51101 0.03619 0.0
N533 N 0.03519 0.54075 0.08071 0.0
H534 H 0.485 0.95597 0.43522 0.0
H535 H 0.59257 0.09904 0.35222 0.0
H536 H 0.58097 0.07135 0.44842 0.0
H537 H 0.47726 0.00144 0.34297 0.0
H538 H 0.59139 0.08717 0.38699 0.0
H539 H 0.48454 0.96958 0.40073 0.0
C540 C 0.50594 0.9842 0.43087 0.0
C541 C 0.533 0.01264 0.44473 0.0
C542 C 0.5663 0.06848 0.37735 0.0
C543 C 0.53278 0.02827 0.40526 0.0
C544 C 0.56682 0.07535 0.35748 0.0
C545 C 0.53491 0.05128 0.34453 0.0
C546 C 0.53383 0.03705 0.38436 0.0
C547 C 0.50278 0.02045 0.35224 0.0
C548 C 0.50556 0.99198 0.4112 0.0
C549 C 0.5594 0.04873 0.43826 0.0
N550 N 0.50314 0.01414 0.37161 0.0
N551 N 0.55879 0.05544 0.41896 0.0
H552 H 0.47359 0.50337 0.77111 0.0
H553 H 0.61305 0.58783 0.68289 0.0
H554 H 0.59742 0.56027 0.77871 0.0
H555 H 0.4915 0.50658 0.67366 0.0
H556 H 0.60773 0.57969 0.71822 0.0
H557 H 0.47922 0.50562 0.73547 0.0
C558 C 0.50195 0.51624 0.7653 0.0
C559 C 0.53509 0.53186 0.77796 0.0
C560 C 0.58226 0.56345 0.70846 0.0
C561 C 0.54172 0.53468 0.73718 0.0
C562 C 0.58525 0.56825 0.68833 0.0
C563 C 0.55262 0.548 0.67537 0.0
C564 C 0.54629 0.53856 0.71574 0.0
C565 C 0.5174 0.52258 0.68314 0.0
C566 C 0.50513 0.5174 0.74494 0.0
C567 C 0.57108 0.54794 0.76956 0.0
N568 N 0.51509 0.51884 0.70285 0.0
N569 N 0.57343 0.54921 0.74972 0.0
H570 H 0.58912 0.07709 0.56284 0.0
H571 H 0.49883 0.93399 0.64855 0.0
H572 H 0.51082 0.95441 0.55173 0.0
H573 H 0.57228 0.05755 0.65903 0.0
H574 H 0.50333 0.94054 0.61312 0.0
H575 H 0.58364 0.07009 0.5981 0.0
C576 C 0.57082 0.04859 0.56779 0.0
C577 C 0.55058 0.01622 0.55422 0.0
C578 C 0.51839 0.96624 0.62316 0.0
C579 C 0.54415 0.00806 0.59478 0.0
C580 C 0.516 0.96251 0.64341 0.0
C581 C 0.53532 0.99527 0.65683 0.0
C582 C 0.54035 0.00299 0.61621 0.0
C583 C 0.55658 0.03154 0.64927 0.0
C584 C 0.5677 0.04465 0.58798 0.0
C585 C 0.52729 0.98011 0.5616 0.0
N586 N 0.55862 0.03439 0.62949 0.0
N587 N 0.52474 0.977 0.58138 0.0
H588 H 0.5463 0.48789 0.89002 0.0
H589 H 0.5005 0.55882 0.99267 0.0
H590 H 0.49114 0.55697 0.8939 0.0
H591 H 0.53102 0.46963 0.9859 0.0
H592 H 0.49684 0.55931 0.95676 0.0
H593 H 0.54187 0.48226 0.92537 0.0
C594 C 0.53324 0.50191 0.8983 0.0
C595 C 0.51926 0.52313 0.88896 0.0
C596 C 0.50408 0.53947 0.96316 0.0
C597 C 0.51417 0.51683 0.92962 0.0
C598 C 0.506 0.53904 0.98365 0.0
C599 C 0.51651 0.51444 0.99233 0.0
C600 C 0.5129 0.51526 0.95131 0.0
C601 C 0.52366 0.48969 0.97989 0.0
C602 C 0.53056 0.49853 0.91852 0.0
C603 C 0.50232 0.54036 0.90049 0.0
N604 N 0.52199 0.49094 0.96006 0.0
N605 N 0.5005 0.53708 0.92027 0.0
H606 H 0.05743 0.57229 0.23038 0.0
H607 H 0.94659 0.43795 0.31563 0.0
H608 H 0.94625 0.469 0.22071 0.0
H609 H 0.02695 0.56001 0.32772 0.0
H610 H 0.95173 0.44642 0.28047 0.0
H611 H 0.05242 0.56599 0.26602 0.0
C612 C 0.03196 0.5484 0.23575 0.0
C613 C 0.00207 0.52127 0.22259 0.0
C614 C 0.96811 0.47136 0.29084 0.0
C615 C 0.9965 0.51361 0.26311 0.0
C616 C 0.96505 0.46663 0.31095 0.0
C617 C 0.98611 0.49836 0.32478 0.0
C618 C 0.9928 0.50797 0.2844 0.0
C619 C 0.01047 0.53459 0.31768 0.0
C620 C 0.02909 0.5449 0.25604 0.0
C621 C 0.96973 0.49086 0.23032 0.0
N622 N 0.01324 0.53839 0.29797 0.0
N623 N 0.96794 0.48769 0.25004 0.0
loop_
_geom_bond_atom_site_label_1
_geom_bond_atom_site_label_2
_geom_bond_distance
_geom_bond_site_symmetry_2
_ccdc_geom_bond_type
Zn0 O6 1.969 . S
Zn0 O7 1.965 . S
Zn0 O11 2.024 . S
Zn0 O16 1.969 . S
Zn1 O8 1.969 . S
Zn1 O14 1.969 . S
Zn1 O15 1.965 . S
Zn1 O17 2.024 . S
C2 O3 1.229 . S
C2 O11 1.058 . S
O3 C2 1.229 . S
C4 O5 1.229 . S
C4 O17 1.058 . S
O5 C4 1.229 . S
O6 Zn0 1.969 . S
O6 C9 1.267 . S
O7 Zn0 1.965 . S
O7 C18 1.260 1_455 S
O8 Zn1 1.969 . S
O8 C18 1.258 . S
C9 O6 1.267 . S
C9 O10 1.228 . S
O10 C9 1.228 . S
O11 Zn0 2.024 . S
O11 C2 1.058 . S
C12 O13 1.228 . S
C12 O14 1.267 . S
O13 C12 1.228 . S
O14 Zn1 1.969 . S
O14 C12 1.267 . S
O15 Zn1 1.965 . S
O15 C19 1.260 1_655 S
O16 Zn0 1.969 . S
O16 C19 1.258 . S
O17 Zn1 2.024 . S
O17 C4 1.058 . S
C18 O7 1.260 1_655 S
C18 O8 1.258 . S
C19 O15 1.260 1_455 S
C19 O16 1.258 . S
Zn20 O26 1.969 . S
Zn20 O27 1.965 . S
Zn20 O31 2.024 . S
Zn20 O36 1.969 . S
Zn21 O28 1.969 . S
Zn21 O34 1.969 . S
Zn21 O35 1.965 . S
Zn21 O37 2.024 . S
C22 O23 1.229 . S
C22 O31 1.058 . S
O23 C22 1.229 . S
C24 O25 1.229 . S
C24 O37 1.058 . S
O25 C24 1.229 . S
O26 Zn20 1.969 . S
O26 C29 1.267 . S
O27 Zn20 1.965 . S
O27 C38 1.260 . S
O28 Zn21 1.969 . S
O28 C38 1.258 1_565 S
C29 O26 1.267 . S
C29 O30 1.228 . S
O30 C29 1.228 . S
O31 Zn20 2.024 . S
O31 C22 1.058 . S
C32 O33 1.228 . S
C32 O34 1.267 . S
O33 C32 1.228 . S
O34 Zn21 1.969 . S
O34 C32 1.267 . S
O35 Zn21 1.965 . S
O35 C39 1.260 1_565 S
O36 Zn20 1.969 . S
O36 C39 1.258 . S
O37 Zn21 2.024 . S
O37 C24 1.058 . S
C38 O27 1.260 . S
C38 O28 1.258 1_545 S
C39 O35 1.260 1_545 S
C39 O36 1.258 . S
Zn40 O46 1.969 . S
Zn40 O47 1.965 . S
Zn40 O51 2.024 . S
Zn40 O56 1.969 . S
Zn41 O48 1.969 . S
Zn41 O54 1.969 . S
Zn41 O55 1.965 . S
Zn41 O57 2.024 . S
C42 O43 1.229 . S
C42 O51 1.058 . S
O43 C42 1.229 . S
C44 O45 1.229 . S
C44 O57 1.058 . S
O45 C44 1.229 . S
O46 Zn40 1.969 . S
O46 C49 1.267 . S
O47 Zn40 1.965 . S
O47 C58 1.260 . S
O48 Zn41 1.969 . S
O48 C58 1.258 . S
C49 O46 1.267 . S
C49 O50 1.228 . S
O50 C49 1.228 . S
O51 Zn40 2.024 . S
O51 C42 1.058 . S
C52 O53 1.228 . S
C52 O54 1.267 . S
O53 C52 1.228 . S
O54 Zn41 1.969 . S
O54 C52 1.267 . S
O55 Zn41 1.965 . S
O55 C59 1.260 . S
O56 Zn40 1.969 . S
O56 C59 1.258 . S
O57 Zn41 2.024 . S
O57 C44 1.058 . S
C58 O47 1.260 . S
C58 O48 1.258 . S
C59 O55 1.260 . S
C59 O56 1.258 . S
C60 C61 1.264 . S
C60 C65 1.479 . S
C60 C70 1.465 . S
C61 C60 1.264 . S
C61 C63 1.339 . S
C61 H88 0.931 . S
C62 C63 1.395 . S
C62 C64 1.320 . S
C63 C61 1.339 . S
C63 C62 1.395 . S
C63 H89 0.929 . S
C64 C62 1.320 . S
C64 C65 1.405 . S
C64 H90 0.930 . S
C65 C60 1.479 . S
C65 C64 1.405 . S
C65 H91 0.931 . S
U66 O67 2.450 1_545 S
U66 O68 2.458 1_545 S
U66 C69 2.984 1_545 S
U66 C70 2.847 . S
U66 C83 2.882 . S
U66 O84 2.441 . S
U66 O85 2.420 . S
U66 O86 2.455 . S
U66 O87 2.449 . S
O67 U66 2.450 1_565 S
O67 C69 1.360 . S
O68 U66 2.458 1_565 S
O68 C69 1.286 . S
C69 U66 2.984 1_565 S
C69 O67 1.360 . S
C69 O68 1.286 . S
C69 C71 1.363 . S
C70 C60 1.465 . S
C70 U66 2.847 . S
C70 O84 1.249 . S
C70 O85 1.202 . S
C71 C69 1.363 . S
C71 C73 1.408 . S
C71 C76 1.342 . S
C72 C73 1.310 . S
C72 C75 1.461 . S
C72 H92 0.932 . S
C73 C71 1.408 . S
C73 C72 1.310 . S
C73 H93 0.930 . S
C74 C75 1.474 . S
C74 C76 1.285 . S
C74 H94 0.929 . S
C75 C72 1.461 . S
C75 C74 1.474 . S
C76 C71 1.342 . S
C76 C74 1.285 . S
C76 H95 0.930 . S
C77 C80 1.424 . S
C77 C82 1.245 . S
C77 C83 1.428 . S
C78 C81 1.260 . S
C78 C82 1.477 . S
C78 H96 0.932 1_545 S
C79 C80 1.384 . S
C79 C81 1.479 . S
C79 H97 0.929 . S
C80 C77 1.424 . S
C80 C79 1.384 . S
C80 H98 0.928 . S
C81 C78 1.260 . S
C81 C79 1.479 . S
C82 C77 1.245 . S
C82 C78 1.477 . S
C82 H99 0.932 1_545 S
C83 U66 2.882 . S
C83 C77 1.428 . S
C83 O86 1.301 . S
C83 O87 1.282 . S
O84 U66 2.441 . S
O84 C70 1.249 . S
O85 U66 2.420 . S
O85 C70 1.202 . S
O86 U66 2.455 . S
O86 C83 1.301 . S
O87 U66 2.449 . S
O87 C83 1.282 . S
H88 C61 0.931 . S
H89 C63 0.929 . S
H90 C64 0.930 . S
H91 C65 0.931 . S
H92 C72 0.932 . S
H93 C73 0.930 . S
H94 C74 0.929 . S
H95 C76 0.930 . S
H96 C78 0.932 1_565 S
H97 C79 0.929 . S
H98 C80 0.928 . S
H99 C82 0.932 1_565 S
C100 C101 1.264 . S
C100 C105 1.479 . S
C100 C110 1.465 . S
C101 C100 1.264 . S
C101 C103 1.339 . S
C101 H128 0.931 . S
C102 C103 1.395 . S
C102 C104 1.320 . S
C103 C101 1.339 . S
C103 C102 1.395 . S
C103 H129 0.929 . S
C104 C102 1.320 . S
C104 C105 1.405 . S
C104 H130 0.930 . S
C105 C100 1.479 . S
C105 C104 1.405 . S
C105 H131 0.931 . S
U106 O107 2.454 . S
U106 O108 2.458 . S
U106 C109 2.984 . S
U106 C110 2.847 . S
U106 C123 2.882 . S
U106 O124 2.441 . S
U106 O125 2.420 . S
U106 O126 2.455 . S
U106 O127 2.449 . S
O107 U106 2.454 . S
O107 C109 1.353 . S
O108 U106 2.458 . S
O108 C109 1.286 . S
C109 U106 2.984 . S
C109 O107 1.353 . S
C109 O108 1.286 . S
C109 C111 1.363 . S
C110 C100 1.465 . S
C110 U106 2.847 . S
C110 O124 1.249 . S
C110 O125 1.202 . S
C111 C109 1.363 . S
C111 C113 1.408 . S
C111 C116 1.342 . S
C112 C113 1.310 . S
C112 C115 1.461 . S
C112 H132 0.932 . S
C113 C111 1.408 . S
C113 C112 1.310 . S
C113 H133 0.930 . S
C114 C115 1.474 . S
C114 C116 1.285 . S
C114 H134 0.929 . S
C115 C112 1.461 . S
C115 C114 1.474 . S
C116 C111 1.342 . S
C116 C114 1.285 . S
C116 H135 0.930 . S
C117 C120 1.424 . S
C117 C122 1.245 . S
C117 C123 1.428 . S
C118 C121 1.260 . S
C118 C122 1.477 . S
C118 H136 0.932 . S
C119 C120 1.384 . S
C119 C121 1.479 . S
C119 H137 0.929 . S
C120 C117 1.424 . S
C120 C119 1.384 . S
C120 H138 0.928 . S
C121 C118 1.260 . S
C121 C119 1.479 . S
C122 C117 1.245 . S
C122 C118 1.477 . S
C122 H139 0.932 . S
C123 U106 2.882 . S
C123 C117 1.428 . S
C123 O126 1.301 . S
C123 O127 1.282 . S
O124 U106 2.441 . S
O124 C110 1.249 . S
O125 U106 2.420 . S
O125 C110 1.202 . S
O126 U106 2.455 . S
O126 C123 1.301 . S
O127 U106 2.449 . S
O127 C123 1.282 . S
H128 C101 0.931 . S
H129 C103 0.929 . S
H130 C104 0.930 . S
H131 C105 0.931 . S
H132 C112 0.932 . S
H133 C113 0.930 . S
H134 C114 0.929 . S
H135 C116 0.930 . S
H136 C118 0.932 . S
H137 C119 0.929 . S
H138 C120 0.928 . S
H139 C122 0.932 . S
C140 C141 1.264 . S
C140 C145 1.479 . S
C140 C150 1.465 . S
C141 C140 1.264 . S
C141 C143 1.339 . S
C141 H168 0.931 . S
C142 C143 1.395 . S
C142 C144 1.320 . S
C143 C141 1.339 . S
C143 C142 1.395 . S
C143 H169 0.929 . S
C144 C142 1.320 . S
C144 C145 1.405 . S
C144 H170 0.930 . S
C145 C140 1.479 . S
C145 C144 1.405 . S
C145 H171 0.931 . S
U146 O147 2.454 . S
U146 O148 2.458 . S
U146 C149 2.984 . S
U146 C150 2.847 1_455 S
U146 C163 2.882 . S
U146 O164 2.441 1_455 S
U146 O165 2.420 1_455 S
U146 O166 2.455 . S
U146 O167 2.449 1_455 S
O147 U146 2.454 . S
O147 C149 1.353 . S
O148 U146 2.458 . S
O148 C149 1.286 . S
C149 U146 2.984 . S
C149 O147 1.353 . S
C149 O148 1.286 . S
C149 C151 1.363 . S
C150 C140 1.465 . S
C150 U146 2.847 1_655 S
C150 O164 1.249 . S
C150 O165 1.202 . S
C151 C149 1.363 . S
C151 C153 1.408 . S
C151 C156 1.342 . S
C152 C153 1.310 . S
C152 C155 1.461 . S
C152 H172 0.932 . S
C153 C151 1.408 . S
C153 C152 1.310 . S
C153 H173 0.930 . S
C154 C155 1.474 . S
C154 C156 1.285 . S
C154 H174 0.929 . S
C155 C152 1.461 . S
C155 C154 1.474 . S
C156 C151 1.342 . S
C156 C154 1.285 . S
C156 H175 0.930 . S
C157 C160 1.424 1_455 S
C157 C162 1.245 . S
C157 C163 1.428 . S
C158 C161 1.260 . S
C158 C162 1.477 . S
C158 H176 0.932 . S
C159 C160 1.384 . S
C159 C161 1.479 1_655 S
C159 H177 0.929 . S
C160 C157 1.424 1_655 S
C160 C159 1.384 . S
C160 H178 0.928 . S
C161 C158 1.260 . S
C161 C159 1.479 1_455 S
C162 C157 1.245 . S
C162 C158 1.477 . S
C162 H179 0.932 . S
C163 U146 2.882 . S
C163 C157 1.428 . S
C163 O166 1.301 . S
C163 O167 1.282 1_455 S
O164 U146 2.441 1_655 S
O164 C150 1.249 . S
O165 U146 2.420 1_655 S
O165 C150 1.202 . S
O166 U146 2.455 . S
O166 C163 1.301 . S
O167 U146 2.449 1_655 S
O167 C163 1.282 1_655 S
H168 C141 0.931 . S
H169 C143 0.929 . S
H170 C144 0.930 . S
H171 C145 0.931 . S
H172 C152 0.932 . S
H173 C153 0.930 . S
H174 C154 0.929 . S
H175 C156 0.930 . S
H176 C158 0.932 . S
H177 C159 0.929 . S
H178 C160 0.928 . S
H179 C162 0.932 . S
C180 C181 1.264 . S
C180 C185 1.479 . S
C180 C190 1.465 . S
C181 C180 1.264 . S
C181 C183 1.339 . S
C181 H208 0.931 . S
C182 C183 1.395 . S
C182 C184 1.320 . S
C183 C181 1.339 . S
C183 C182 1.395 . S
C183 H209 0.929 . S
C184 C182 1.320 . S
C184 C185 1.405 . S
C184 H210 0.930 . S
C185 C180 1.479 . S
C185 C184 1.405 . S
C185 H211 0.931 . S
U186 O187 2.454 . S
U186 O188 2.458 . S
U186 C189 2.984 . S
U186 C190 2.847 1_455 S
U186 C203 2.882 . S
U186 O204 2.441 1_455 S
U186 O205 2.420 1_455 S
U186 O206 2.455 . S
U186 O207 2.449 1_455 S
O187 U186 2.454 . S
O187 C189 1.353 . S
O188 U186 2.458 . S
O188 C189 1.286 . S
C189 U186 2.984 . S
C189 O187 1.353 . S
C189 O188 1.286 . S
C189 C191 1.363 . S
C190 C180 1.465 . S
C190 U186 2.847 1_655 S
C190 O204 1.249 . S
C190 O205 1.202 . S
C191 C189 1.363 . S
C191 C193 1.408 . S
C191 C196 1.342 . S
C192 C193 1.310 . S
C192 C195 1.461 . S
C192 H212 0.932 . S
C193 C191 1.408 . S
C193 C192 1.310 . S
C193 H213 0.930 . S
C194 C195 1.474 . S
C194 C196 1.285 . S
C194 H214 0.929 . S
C195 C192 1.461 . S
C195 C194 1.474 . S
C196 C191 1.342 . S
C196 C194 1.285 . S
C196 H215 0.930 . S
C197 C200 1.424 1_455 S
C197 C202 1.245 . S
C197 C203 1.428 . S
C198 C201 1.260 . S
C198 C202 1.477 . S
C198 H216 0.932 . S
C199 C200 1.384 . S
C199 C201 1.479 1_655 S
C199 H217 0.929 . S
C200 C197 1.424 1_655 S
C200 C199 1.384 . S
C200 H218 0.928 . S
C201 C198 1.260 . S
C201 C199 1.479 1_455 S
C202 C197 1.245 . S
C202 C198 1.477 . S
C202 H219 0.932 . S
C203 U186 2.882 . S
C203 C197 1.428 . S
C203 O206 1.301 . S
C203 O207 1.282 1_455 S
O204 U186 2.441 1_655 S
O204 C190 1.249 . S
O205 U186 2.420 1_655 S
O205 C190 1.202 . S
O206 U186 2.455 . S
O206 C203 1.301 . S
O207 U186 2.449 1_655 S
O207 C203 1.282 1_655 S
H208 C181 0.931 . S
H209 C183 0.929 . S
H210 C184 0.930 . S
H211 C185 0.931 . S
H212 C192 0.932 . S
H213 C193 0.930 . S
H214 C194 0.929 . S
H215 C196 0.930 . S
H216 C198 0.932 . S
H217 C199 0.929 . S
H218 C200 0.928 . S
H219 C202 0.932 . S
C220 C221 1.264 . S
C220 C225 1.479 . S
C220 C230 1.465 . S
C221 C220 1.264 . S
C221 C223 1.339 . S
C221 H248 0.931 . S
C222 C223 1.395 . S
C222 C224 1.320 . S
C223 C221 1.339 . S
C223 C222 1.395 . S
C223 H249 0.929 . S
C224 C222 1.320 . S
C224 C225 1.405 . S
C224 H250 0.930 . S
C225 C220 1.479 . S
C225 C224 1.405 . S
C225 H251 0.931 . S
U226 O227 2.454 . S
U226 O228 2.458 . S
U226 C229 2.984 . S
U226 C230 2.847 1_545 S
U226 C243 2.882 . S
U226 O244 2.441 1_545 S
U226 O245 2.420 1_545 S
U226 O246 2.455 . S
U226 O247 2.449 1_545 S
O227 U226 2.454 . S
O227 C229 1.353 . S
O228 U226 2.458 . S
O228 C229 1.286 . S
C229 U226 2.984 . S
C229 O227 1.353 . S
C229 O228 1.286 . S
C229 C231 1.363 . S
C230 C220 1.465 . S
C230 U226 2.847 1_565 S
C230 O244 1.249 . S
C230 O245 1.202 . S
C231 C229 1.363 . S
C231 C233 1.408 . S
C231 C236 1.342 . S
C232 C233 1.310 . S
C232 C235 1.461 . S
C232 H252 0.932 . S
C233 C231 1.408 . S
C233 C232 1.310 . S
C233 H253 0.930 . S
C234 C235 1.474 . S
C234 C236 1.285 . S
C234 H254 0.929 . S
C235 C232 1.461 . S
C235 C234 1.474 . S
C236 C231 1.342 . S
C236 C234 1.285 . S
C236 H255 0.930 . S
C237 C240 1.424 1_545 S
C237 C242 1.245 . S
C237 C243 1.428 . S
C238 C241 1.260 . S
C238 C242 1.477 . S
C238 H256 0.932 . S
C239 C240 1.384 . S
C239 C241 1.479 1_565 S
C239 H257 0.929 . S
C240 C237 1.424 1_565 S
C240 C239 1.384 . S
C240 H258 0.928 . S
C241 C238 1.260 . S
C241 C239 1.479 1_545 S
C242 C237 1.245 . S
C242 C238 1.477 . S
C242 H259 0.932 . S
C243 U226 2.882 . S
C243 C237 1.428 . S
C243 O246 1.301 . S
C243 O247 1.282 1_545 S
O244 U226 2.441 1_565 S
O244 C230 1.249 . S
O245 U226 2.420 1_565 S
O245 C230 1.202 . S
O246 U226 2.455 . S
O246 C243 1.301 . S
O247 U226 2.449 1_565 S
O247 C243 1.282 1_565 S
H248 C221 0.931 . S
H249 C223 0.929 . S
H250 C224 0.930 . S
H251 C225 0.931 . S
H252 C232 0.932 . S
H253 C233 0.930 . S
H254 C234 0.929 . S
H255 C236 0.930 . S
H256 C238 0.932 . S
H257 C239 0.929 . S
H258 C240 0.928 . S
H259 C242 0.932 . S
C260 C261 1.264 . S
C260 C265 1.479 . S
C260 C270 1.465 . S
C261 C260 1.264 . S
C261 C263 1.339 . S
C261 H288 0.931 . S
C262 C263 1.395 . S
C262 C264 1.320 . S
C263 C261 1.339 . S
C263 C262 1.395 . S
C263 H289 0.929 . S
C264 C262 1.320 . S
C264 C265 1.405 . S
C264 H290 0.930 . S
C265 C260 1.479 . S
C265 C264 1.405 . S
C265 H291 0.931 . S
U266 O267 2.454 . S
U266 O268 2.458 . S
U266 C269 2.984 . S
U266 C270 2.847 . S
U266 C283 2.882 . S
U266 O284 2.441 . S
U266 O285 2.420 . S
U266 O286 2.455 . S
U266 O287 2.449 . S
O267 U266 2.454 . S
O267 C269 1.353 . S
O268 U266 2.458 . S
O268 C269 1.286 . S
C269 U266 2.984 . S
C269 O267 1.353 . S
C269 O268 1.286 . S
C269 C271 1.363 . S
C270 C260 1.465 . S
C270 U266 2.847 . S
C270 O284 1.249 . S
C270 O285 1.202 . S
C271 C269 1.363 . S
C271 C273 1.408 . S
C271 C276 1.342 . S
C272 C273 1.310 . S
C272 C275 1.461 . S
C272 H292 0.932 . S
C273 C271 1.408 . S
C273 C272 1.310 . S
C273 H293 0.930 . S
C274 C275 1.474 . S
C274 C276 1.285 . S
C274 H294 0.929 . S
C275 C272 1.461 . S
C275 C274 1.474 . S
C276 C271 1.342 . S
C276 C274 1.285 . S
C276 H295 0.930 . S
C277 C280 1.424 . S
C277 C282 1.245 . S
C277 C283 1.428 . S
C278 C281 1.260 . S
C278 C282 1.477 . S
C278 H296 0.932 . S
C279 C280 1.384 . S
C279 C281 1.479 . S
C279 H297 0.929 . S
C280 C277 1.424 . S
C280 C279 1.384 . S
C280 H298 0.928 . S
C281 C278 1.260 . S
C281 C279 1.479 . S
C282 C277 1.245 . S
C282 C278 1.477 . S
C282 H299 0.932 . S
C283 U266 2.882 . S
C283 C277 1.428 . S
C283 O286 1.301 . S
C283 O287 1.282 . S
O284 U266 2.441 . S
O284 C270 1.249 . S
O285 U266 2.420 . S
O285 C270 1.202 . S
O286 U266 2.455 . S
O286 C283 1.301 . S
O287 U266 2.449 . S
O287 C283 1.282 . S
H288 C261 0.931 . S
H289 C263 0.929 . S
H290 C264 0.930 . S
H291 C265 0.931 . S
H292 C272 0.932 . S
H293 C273 0.930 . S
H294 C274 0.929 . S
H295 C276 0.930 . S
H296 C278 0.932 . S
H297 C279 0.929 . S
H298 C280 0.928 . S
H299 C282 0.932 . S
H300 C306 0.930 . S
H301 C310 0.930 . S
H302 C315 0.929 . S
H303 C313 0.929 . S
H304 C308 0.929 . S
H305 C314 0.929 . S
C306 H300 0.930 . S
C306 C307 1.367 . S
C306 C314 1.378 . S
C307 C306 1.367 . S
C307 C315 1.433 . S
C308 H304 0.929 . S
C308 C310 1.378 . S
C308 C312 1.350 . S
C309 C312 1.463 . S
C309 C314 1.350 . S
C309 N317 1.427 . S
C310 H301 0.930 . S
C310 C308 1.378 . S
C310 C311 1.367 . S
C311 C310 1.367 . S
C311 C313 1.433 . S
C312 C308 1.350 . S
C312 C309 1.463 . S
C312 N316 1.427 . S
C313 H303 0.929 . S
C313 C311 1.433 . S
C313 N316 1.384 . S
C314 H305 0.929 . S
C314 C306 1.378 . S
C314 C309 1.350 . S
C315 H302 0.929 . S
C315 C307 1.433 . S
C315 N317 1.384 . S
N316 C312 1.427 . S
N316 C313 1.384 . S
N317 C309 1.427 . S
N317 C315 1.384 . S
H318 C324 0.930 . S
H319 C328 0.930 . S
H320 C333 0.929 . S
H321 C331 0.929 . S
H322 C326 0.929 . S
H323 C332 0.929 . S
C324 H318 0.930 . S
C324 C325 1.367 . S
C324 C332 1.378 . S
C325 C324 1.367 . S
C325 C333 1.433 . S
C326 H322 0.929 . S
C326 C328 1.378 . S
C326 C330 1.350 . S
C327 C330 1.463 . S
C327 C332 1.350 . S
C327 N335 1.427 . S
C328 H319 0.930 . S
C328 C326 1.378 . S
C328 C329 1.367 . S
C329 C328 1.367 . S
C329 C331 1.433 . S
C330 C326 1.350 . S
C330 C327 1.463 . S
C330 N334 1.427 . S
C331 H321 0.929 . S
C331 C329 1.433 . S
C331 N334 1.384 . S
C332 H323 0.929 . S
C332 C324 1.378 . S
C332 C327 1.350 . S
C333 H320 0.929 . S
C333 C325 1.433 . S
C333 N335 1.384 . S
N334 C330 1.427 . S
N334 C331 1.384 . S
N335 C327 1.427 . S
N335 C333 1.384 . S
H336 C342 0.930 . S
H337 C346 0.930 . S
H338 C351 0.929 . S
H339 C349 0.929 . S
H340 C344 0.929 . S
H341 C350 0.929 . S
C342 H336 0.930 . S
C342 C343 1.367 . S
C342 C350 1.378 . S
C343 C342 1.367 . S
C343 C351 1.433 . S
C344 H340 0.929 . S
C344 C346 1.378 . S
C344 C348 1.350 . S
C345 C348 1.463 . S
C345 C350 1.350 . S
C345 N353 1.427 . S
C346 H337 0.930 . S
C346 C344 1.378 . S
C346 C347 1.367 . S
C347 C346 1.367 . S
C347 C349 1.433 . S
C348 C344 1.350 . S
C348 C345 1.463 . S
C348 N352 1.427 . S
C349 H339 0.929 . S
C349 C347 1.433 . S
C349 N352 1.384 . S
C350 H341 0.929 . S
C350 C342 1.378 . S
C350 C345 1.350 . S
C351 H338 0.929 . S
C351 C343 1.433 . S
C351 N353 1.384 . S
N352 C348 1.427 . S
N352 C349 1.384 . S
N353 C345 1.427 . S
N353 C351 1.384 . S
H354 C360 0.930 . S
H355 C364 0.930 . S
H356 C369 0.929 . S
H357 C367 0.929 . S
H358 C362 0.929 . S
H359 C368 0.929 . S
C360 H354 0.930 . S
C360 C361 1.367 . S
C360 C368 1.378 . S
C361 C360 1.367 . S
C361 C369 1.433 . S
C362 H358 0.929 . S
C362 C364 1.378 . S
C362 C366 1.350 . S
C363 C366 1.463 . S
C363 C368 1.350 . S
C363 N371 1.427 . S
C364 H355 0.930 . S
C364 C362 1.378 . S
C364 C365 1.367 . S
C365 C364 1.367 . S
C365 C367 1.433 . S
C366 C362 1.350 . S
C366 C363 1.463 . S
C366 N370 1.427 . S
C367 H357 0.929 . S
C367 C365 1.433 . S
C367 N370 1.384 . S
C368 H359 0.929 . S
C368 C360 1.378 . S
C368 C363 1.350 . S
C369 H356 0.929 . S
C369 C361 1.433 . S
C369 N371 1.384 . S
N370 C366 1.427 . S
N370 C367 1.384 . S
N371 C363 1.427 . S
N371 C369 1.384 . S
H372 C378 0.930 . S
H373 C382 0.930 . S
H374 C387 0.929 . S
H375 C385 0.929 . S
H376 C380 0.929 . S
H377 C386 0.929 . S
C378 H372 0.930 . S
C378 C379 1.367 . S
C378 C386 1.378 . S
C379 C378 1.367 . S
C379 C387 1.433 . S
C380 H376 0.929 . S
C380 C382 1.378 . S
C380 C384 1.350 . S
C381 C384 1.463 . S
C381 C386 1.350 . S
C381 N389 1.427 . S
C382 H373 0.930 . S
C382 C380 1.378 . S
C382 C383 1.367 . S
C383 C382 1.367 . S
C383 C385 1.433 . S
C384 C380 1.350 . S
C384 C381 1.463 . S
C384 N388 1.427 . S
C385 H375 0.929 . S
C385 C383 1.433 . S
C385 N388 1.384 . S
C386 H377 0.929 . S
C386 C378 1.378 . S
C386 C381 1.350 . S
C387 H374 0.929 . S
C387 C379 1.433 . S
C387 N389 1.384 . S
N388 C384 1.427 . S
N388 C385 1.384 . S
N389 C381 1.427 . S
N389 C387 1.384 . S
H390 C396 0.930 . S
H391 C400 0.930 . S
H392 C405 0.929 . S
H393 C403 0.929 . S
H394 C398 0.929 . S
H395 C404 0.929 . S
C396 H390 0.930 . S
C396 C397 1.367 . S
C396 C404 1.378 . S
C397 C396 1.367 . S
C397 C405 1.433 . S
C398 H394 0.929 . S
C398 C400 1.378 . S
C398 C402 1.350 . S
C399 C402 1.463 . S
C399 C404 1.350 . S
C399 N407 1.427 . S
C400 H391 0.930 . S
C400 C398 1.378 . S
C400 C401 1.367 . S
C401 C400 1.367 . S
C401 C403 1.433 . S
C402 C398 1.350 . S
C402 C399 1.463 . S
C402 N406 1.427 . S
C403 H393 0.929 . S
C403 C401 1.433 . S
C403 N406 1.384 . S
C404 H395 0.929 . S
C404 C396 1.378 . S
C404 C399 1.350 . S
C405 H392 0.929 . S
C405 C397 1.433 . S
C405 N407 1.384 . S
N406 C402 1.427 . S
N406 C403 1.384 . S
N407 C399 1.427 . S
N407 C405 1.384 . S
H408 C414 0.930 . S
H409 C418 0.930 . S
H410 C423 0.929 . S
H411 C421 0.929 . S
H412 C416 0.929 . S
H413 C422 0.929 . S
C414 H408 0.930 . S
C414 C415 1.367 . S
C414 C422 1.378 . S
C415 C414 1.367 . S
C415 C423 1.433 . S
C416 H412 0.929 . S
C416 C418 1.378 . S
C416 C420 1.350 . S
C417 C420 1.463 . S
C417 C422 1.350 . S
C417 N425 1.427 . S
C418 H409 0.930 . S
C418 C416 1.378 . S
C418 C419 1.367 . S
C419 C418 1.367 . S
C419 C421 1.433 . S
C420 C416 1.350 . S
C420 C417 1.463 . S
C420 N424 1.427 . S
C421 H411 0.929 . S
C421 C419 1.433 . S
C421 N424 1.384 . S
C422 H413 0.929 . S
C422 C414 1.378 . S
C422 C417 1.350 . S
C423 H410 0.929 . S
C423 C415 1.433 . S
C423 N425 1.384 . S
N424 C420 1.427 . S
N424 C421 1.384 . S
N425 C417 1.427 . S
N425 C423 1.384 . S
H426 C432 0.930 . S
H427 C436 0.930 . S
H428 C441 0.929 . S
H429 C439 0.929 . S
H430 C434 0.929 . S
H431 C440 0.929 . S
C432 H426 0.930 . S
C432 C433 1.367 . S
C432 C440 1.378 . S
C433 C432 1.367 . S
C433 C441 1.433 . S
C434 H430 0.929 . S
C434 C436 1.378 . S
C434 C438 1.350 . S
C435 C438 1.463 . S
C435 C440 1.350 . S
C435 N443 1.427 . S
C436 H427 0.930 . S
C436 C434 1.378 . S
C436 C437 1.367 . S
C437 C436 1.367 . S
C437 C439 1.433 . S
C438 C434 1.350 . S
C438 C435 1.463 . S
C438 N442 1.427 . S
C439 H429 0.929 . S
C439 C437 1.433 . S
C439 N442 1.384 . S
C440 H431 0.929 . S
C440 C432 1.378 . S
C440 C435 1.350 . S
C441 H428 0.929 . S
C441 C433 1.433 . S
C441 N443 1.384 . S
N442 C438 1.427 . S
N442 C439 1.384 . S
N443 C435 1.427 . S
N443 C441 1.384 . S
H444 C450 0.930 . S
H445 C454 0.930 . S
H446 C459 0.929 . S
H447 C457 0.929 . S
H448 C452 0.929 . S
H449 C458 0.929 . S
C450 H444 0.930 . S
C450 C451 1.367 . S
C450 C458 1.378 . S
C451 C450 1.367 . S
C451 C459 1.433 . S
C452 H448 0.929 . S
C452 C454 1.378 . S
C452 C456 1.350 . S
C453 C456 1.463 . S
C453 C458 1.350 . S
C453 N461 1.427 . S
C454 H445 0.930 . S
C454 C452 1.378 . S
C454 C455 1.367 . S
C455 C454 1.367 . S
C455 C457 1.433 . S
C456 C452 1.350 . S
C456 C453 1.463 . S
C456 N460 1.427 . S
C457 H447 0.929 . S
C457 C455 1.433 . S
C457 N460 1.384 . S
C458 H449 0.929 . S
C458 C450 1.378 . S
C458 C453 1.350 . S
C459 H446 0.929 . S
C459 C451 1.433 . S
C459 N461 1.384 . S
N460 C456 1.427 . S
N460 C457 1.384 . S
N461 C453 1.427 . S
N461 C459 1.384 . S
H462 C468 0.930 . S
H463 C472 0.930 . S
H464 C477 0.929 . S
H465 C475 0.929 . S
H466 C470 0.929 . S
H467 C476 0.929 . S
C468 H462 0.930 . S
C468 C469 1.367 . S
C468 C476 1.378 . S
C469 C468 1.367 . S
C469 C477 1.433 . S
C470 H466 0.929 . S
C470 C472 1.378 . S
C470 C474 1.350 . S
C471 C474 1.463 . S
C471 C476 1.350 . S
C471 N479 1.427 . S
C472 H463 0.930 . S
C472 C470 1.378 . S
C472 C473 1.367 . S
C473 C472 1.367 . S
C473 C475 1.433 . S
C474 C470 1.350 . S
C474 C471 1.463 . S
C474 N478 1.427 . S
C475 H465 0.929 . S
C475 C473 1.433 . S
C475 N478 1.384 . S
C476 H467 0.929 . S
C476 C468 1.378 . S
C476 C471 1.350 . S
C477 H464 0.929 . S
C477 C469 1.433 . S
C477 N479 1.384 . S
N478 C474 1.427 . S
N478 C475 1.384 . S
N479 C471 1.427 . S
N479 C477 1.384 . S
H480 C486 0.930 . S
H481 C490 0.930 . S
H482 C495 0.929 . S
H483 C493 0.929 . S
H484 C488 0.929 . S
H485 C494 0.929 . S
C486 H480 0.930 . S
C486 C487 1.367 . S
C486 C494 1.378 . S
C487 C486 1.367 . S
C487 C495 1.433 . S
C488 H484 0.929 . S
C488 C490 1.378 . S
C488 C492 1.350 . S
C489 C492 1.463 . S
C489 C494 1.350 . S
C489 N497 1.427 . S
C490 H481 0.930 . S
C490 C488 1.378 . S
C490 C491 1.367 . S
C491 C490 1.367 . S
C491 C493 1.433 . S
C492 C488 1.350 . S
C492 C489 1.463 . S
C492 N496 1.427 . S
C493 H483 0.929 . S
C493 C491 1.433 . S
C493 N496 1.384 . S
C494 H485 0.929 . S
C494 C486 1.378 . S
C494 C489 1.350 . S
C495 H482 0.929 . S
C495 C487 1.433 . S
C495 N497 1.384 . S
N496 C492 1.427 . S
N496 C493 1.384 . S
N497 C489 1.427 . S
N497 C495 1.384 . S
H498 C504 0.930 . S
H499 C508 0.930 . S
H500 C513 0.929 . S
H501 C511 0.929 . S
H502 C506 0.929 . S
H503 C512 0.929 . S
C504 H498 0.930 . S
C504 C505 1.367 . S
C504 C512 1.378 . S
C505 C504 1.367 . S
C505 C513 1.433 . S
C506 H502 0.929 . S
C506 C508 1.378 . S
C506 C510 1.350 . S
C507 C510 1.463 . S
C507 C512 1.350 . S
C507 N515 1.427 . S
C508 H499 0.930 . S
C508 C506 1.378 . S
C508 C509 1.367 . S
C509 C508 1.367 . S
C509 C511 1.433 . S
C510 C506 1.350 . S
C510 C507 1.463 . S
C510 N514 1.427 . S
C511 H501 0.929 . S
C511 C509 1.433 . S
C511 N514 1.384 . S
C512 H503 0.929 . S
C512 C504 1.378 . S
C512 C507 1.350 . S
C513 H500 0.929 . S
C513 C505 1.433 . S
C513 N515 1.384 . S
N514 C510 1.427 . S
N514 C511 1.384 . S
N515 C507 1.427 . S
N515 C513 1.384 . S
H516 C522 0.930 . S
H517 C526 0.930 . S
H518 C531 0.929 . S
H519 C529 0.929 . S
H520 C524 0.929 . S
H521 C530 0.929 . S
C522 H516 0.930 . S
C522 C523 1.367 1_655 S
C522 C530 1.378 . S
C523 C522 1.367 1_455 S
C523 C531 1.433 . S
C524 H520 0.929 . S
C524 C526 1.378 . S
C524 C528 1.350 . S
C525 C528 1.463 . S
C525 C530 1.350 1_455 S
C525 N533 1.427 . S
C526 H517 0.930 . S
C526 C524 1.378 . S
C526 C527 1.367 . S
C527 C526 1.367 . S
C527 C529 1.433 1_455 S
C528 C524 1.350 . S
C528 C525 1.463 . S
C528 N532 1.427 1_455 S
C529 H519 0.929 . S
C529 C527 1.433 1_655 S
C529 N532 1.384 . S
C530 H521 0.929 . S
C530 C522 1.378 . S
C530 C525 1.350 1_655 S
C531 H518 0.929 . S
C531 C523 1.433 . S
C531 N533 1.384 . S
N532 C528 1.427 1_655 S
N532 C529 1.384 . S
N533 C525 1.427 . S
N533 C531 1.384 . S
H534 C540 0.930 . S
H535 C544 0.930 . S
H536 C549 0.929 . S
H537 C547 0.929 1_565 S
H538 C542 0.929 . S
H539 C548 0.929 . S
C540 H534 0.930 . S
C540 C541 1.367 1_565 S
C540 C548 1.378 . S
C541 C540 1.367 1_545 S
C541 C549 1.433 . S
C542 H538 0.929 . S
C542 C544 1.378 . S
C542 C546 1.350 . S
C543 C546 1.463 . S
C543 C548 1.350 1_545 S
C543 N551 1.427 . S
C544 H535 0.930 . S
C544 C542 1.378 . S
C544 C545 1.367 . S
C545 C544 1.367 . S
C545 C547 1.433 . S
C546 C542 1.350 . S
C546 C543 1.463 . S
C546 N550 1.427 . S
C547 H537 0.929 1_545 S
C547 C545 1.433 . S
C547 N550 1.384 . S
C548 H539 0.929 . S
C548 C540 1.378 . S
C548 C543 1.350 1_565 S
C549 H536 0.929 . S
C549 C541 1.433 . S
C549 N551 1.384 . S
N550 C546 1.427 . S
N550 C547 1.384 . S
N551 C543 1.427 . S
N551 C549 1.384 . S
H552 C558 0.930 . S
H553 C562 0.930 . S
H554 C567 0.929 . S
H555 C565 0.929 . S
H556 C560 0.929 . S
H557 C566 0.929 . S
C558 H552 0.930 . S
C558 C559 1.367 . S
C558 C566 1.378 . S
C559 C558 1.367 . S
C559 C567 1.433 . S
C560 H556 0.929 . S
C560 C562 1.378 . S
C560 C564 1.350 . S
C561 C564 1.463 . S
C561 C566 1.350 . S
C561 N569 1.427 . S
C562 H553 0.930 . S
C562 C560 1.378 . S
C562 C563 1.367 . S
C563 C562 1.367 . S
C563 C565 1.433 . S
C564 C560 1.350 . S
C564 C561 1.463 . S
C564 N568 1.427 . S
C565 H555 0.929 . S
C565 C563 1.433 . S
C565 N568 1.384 . S
C566 H557 0.929 . S
C566 C558 1.378 . S
C566 C561 1.350 . S
C567 H554 0.929 . S
C567 C559 1.433 . S
C567 N569 1.384 . S
N568 C564 1.427 . S
N568 C565 1.384 . S
N569 C561 1.427 . S
N569 C567 1.384 . S
H570 C576 0.930 . S
H571 C580 0.930 . S
H572 C585 0.929 . S
H573 C583 0.929 . S
H574 C578 0.929 . S
H575 C584 0.929 . S
C576 H570 0.930 . S
C576 C577 1.367 . S
C576 C584 1.378 . S
C577 C576 1.367 . S
C577 C585 1.433 1_545 S
C578 H574 0.929 . S
C578 C580 1.378 . S
C578 C582 1.350 1_565 S
C579 C582 1.463 . S
C579 C584 1.350 . S
C579 N587 1.427 1_545 S
C580 H571 0.930 . S
C580 C578 1.378 . S
C580 C581 1.367 1_565 S
C581 C580 1.367 1_545 S
C581 C583 1.433 . S
C582 C578 1.350 1_545 S
C582 C579 1.463 . S
C582 N586 1.427 . S
C583 H573 0.929 . S
C583 C581 1.433 . S
C583 N586 1.384 . S
C584 H575 0.929 . S
C584 C576 1.378 . S
C584 C579 1.350 . S
C585 H572 0.929 . S
C585 C577 1.433 1_565 S
C585 N587 1.384 . S
N586 C582 1.427 . S
N586 C583 1.384 . S
N587 C579 1.427 1_565 S
N587 C585 1.384 . S
H588 C594 0.930 . S
H589 C598 0.930 . S
H590 C603 0.929 . S
H591 C601 0.929 . S
H592 C596 0.929 . S
H593 C602 0.929 . S
C594 H588 0.930 . S
C594 C595 1.367 . S
C594 C602 1.378 . S
C595 C594 1.367 . S
C595 C603 1.433 . S
C596 H592 0.929 . S
C596 C598 1.378 . S
C596 C600 1.350 . S
C597 C600 1.463 . S
C597 C602 1.350 . S
C597 N605 1.427 . S
C598 H589 0.930 . S
C598 C596 1.378 . S
C598 C599 1.367 . S
C599 C598 1.367 . S
C599 C601 1.433 . S
C600 C596 1.350 . S
C600 C597 1.463 . S
C600 N604 1.427 . S
C601 H591 0.929 . S
C601 C599 1.433 . S
C601 N604 1.384 . S
C602 H593 0.929 . S
C602 C594 1.378 . S
C602 C597 1.350 . S
C603 H590 0.929 . S
C603 C595 1.433 . S
C603 N605 1.384 . S
N604 C600 1.427 . S
N604 C601 1.384 . S
N605 C597 1.427 . S
N605 C603 1.384 . S
H606 C612 0.930 . S
H607 C616 0.930 . S
H608 C621 0.929 . S
H609 C619 0.926 1_655 S
H610 C614 0.929 . S
H611 C620 0.929 . S
C612 H606 0.930 . S
C612 C613 1.382 . S
C612 C620 1.378 . S
C613 C612 1.382 . S
C613 C621 1.417 1_655 S
C614 H610 0.929 . S
C614 C616 1.378 . S
C614 C618 1.350 . S
C615 C618 1.464 . S
C615 C620 1.336 1_455 S
C615 N623 1.441 . S
C616 H607 0.930 . S
C616 C614 1.378 . S
C616 C617 1.367 . S
C617 C616 1.367 . S
C617 C619 1.436 . S
C618 C614 1.350 . S
C618 C615 1.464 . S
C618 N622 1.418 1_455 S
C619 H609 0.926 1_455 S
C619 C617 1.436 . S
C619 N622 1.383 1_455 S
C620 H611 0.929 . S
C620 C612 1.378 . S
C620 C615 1.336 1_655 S
C621 H608 0.929 . S
C621 C613 1.417 1_455 S
C621 N623 1.384 . S
N622 C618 1.418 1_655 S
N622 C619 1.383 1_655 S
N623 C615 1.441 . S
N623 C621 1.384 . S
C307 C2 1.409 . S
C311 C275 1.464 . S
C325 C22 1.358 . S
C329 C182 1.437 . S
C343 C44 1.436 . S
C347 C222 1.496 . S
C361 C4 1.617 . S
C365 C262 1.682 . S
C383 C195 1.717 . S
C379 C24 1.685 . S
C401 C235 1.648 . S
C397 C42 1.580 . S
C415 C32 1.378 . S
C419 C102 1.368 . S
C433 C49 1.311 . S
C437 C142 1.316 . S
C451 C9 1.331 . S
C455 C75 1.317 . S
C473 C115 1.315 . S
C469 C29 1.283 . S
C491 C155 1.364 . S
C487 C52 1.331 . S
C505 C12 1.292 . S
C509 C62 1.347 . S
C527 C161 1.429 1_554 S
C523 C18 1.432 1_455 S
C541 C38 1.429 . S
C545 C81 1.447 . S
C559 C58 1.427 . S
C563 C121 1.433 . S
C581 C241 1.498 . S
C577 C39 1.489 . S
C599 C281 1.487 1_556 S
C595 C59 1.464 . S
C613 C19 1.474 1_655 S
C617 C201 1.496 . S
