# Generated by pormake.
# Topology ocu, (6,8)-cn, num edge types: 1
# Building blocks:
#     Node 0, Type 0, BuildingBlock: BETDEL_clean_sbu_0, # of connection points: 6
#     Node 1, Type 0, BuildingBlock: BETDEL_clean_sbu_0, # of connection points: 6
#     Node 2, Type 0, BuildingBlock: BETDEL_clean_sbu_0, # of connection points: 6
#     Node 3, Type 0, BuildingBlock: BETDEL_clean_sbu_0, # of connection points: 6
#     Node 4, Type 0, BuildingBlock: BETDEL_clean_sbu_0, # of connection points: 6
#     Node 5, Type 0, BuildingBlock: BETDEL_clean_sbu_0, # of connection points: 6
#     Node 6, Type 0, BuildingBlock: BETDEL_clean_sbu_0, # of connection points: 6
#     Node 7, Type 0, BuildingBlock: BETDEL_clean_sbu_0, # of connection points: 6
#     Node 8, Type 1, BuildingBlock: GIZVER_clean_sbu_0, # of connection points: 8
#     Node 9, Type 1, BuildingBlock: GIZVER_clean_sbu_0, # of connection points: 8
#     Node 10, Type 1, BuildingBlock: GIZVER_clean_sbu_0, # of connection points: 8
#     Node 11, Type 1, BuildingBlock: GIZVER_clean_sbu_0, # of connection points: 8
#     Node 12, Type 1, BuildingBlock: GIZVER_clean_sbu_0, # of connection points: 8
#     Node 13, Type 1, BuildingBlock: GIZVER_clean_sbu_0, # of connection points: 8
#     Edge 14, Type (0, 1), BuildingBlock: CIFDUS_clean_linker_0, # of connection points: 2
#     Edge 15, Type (0, 1), BuildingBlock: CIFDUS_clean_linker_0, # of connection points: 2
#     Edge 16, Type (0, 1), BuildingBlock: CIFDUS_clean_linker_0, # of connection points: 2
#     Edge 17, Type (0, 1), BuildingBlock: CIFDUS_clean_linker_0, # of connection points: 2
#     Edge 18, Type (0, 1), BuildingBlock: CIFDUS_clean_linker_0, # of connection points: 2
#     Edge 19, Type (0, 1), BuildingBlock: CIFDUS_clean_linker_0, # of connection points: 2
#     Edge 20, Type (0, 1), BuildingBlock: CIFDUS_clean_linker_0, # of connection points: 2
#     Edge 21, Type (0, 1), BuildingBlock: CIFDUS_clean_linker_0, # of connection points: 2
#     Edge 22, Type (0, 1), BuildingBlock: CIFDUS_clean_linker_0, # of connection points: 2
#     Edge 23, Type (0, 1), BuildingBlock: CIFDUS_clean_linker_0, # of connection points: 2
#     Edge 24, Type (0, 1), BuildingBlock: CIFDUS_clean_linker_0, # of connection points: 2
#     Edge 25, Type (0, 1), BuildingBlock: CIFDUS_clean_linker_0, # of connection points: 2
#     Edge 26, Type (0, 1), BuildingBlock: CIFDUS_clean_linker_0, # of connection points: 2
#     Edge 27, Type (0, 1), BuildingBlock: CIFDUS_clean_linker_0, # of connection points: 2
#     Edge 28, Type (0, 1), BuildingBlock: CIFDUS_clean_linker_0, # of connection points: 2
#     Edge 29, Type (0, 1), BuildingBlock: CIFDUS_clean_linker_0, # of connection points: 2
#     Edge 30, Type (0, 1), BuildingBlock: CIFDUS_clean_linker_0, # of connection points: 2
#     Edge 31, Type (0, 1), BuildingBlock: CIFDUS_clean_linker_0, # of connection points: 2
#     Edge 32, Type (0, 1), BuildingBlock: CIFDUS_clean_linker_0, # of connection points: 2
#     Edge 33, Type (0, 1), BuildingBlock: CIFDUS_clean_linker_0, # of connection points: 2
#     Edge 34, Type (0, 1), BuildingBlock: CIFDUS_clean_linker_0, # of connection points: 2
#     Edge 35, Type (0, 1), BuildingBlock: CIFDUS_clean_linker_0, # of connection points: 2
#     Edge 36, Type (0, 1), BuildingBlock: CIFDUS_clean_linker_0, # of connection points: 2
#     Edge 37, Type (0, 1), BuildingBlock: CIFDUS_clean_linker_0, # of connection points: 2
#     Edge 38, Type (0, 1), BuildingBlock: CIFDUS_clean_linker_0, # of connection points: 2
#     Edge 39, Type (0, 1), BuildingBlock: CIFDUS_clean_linker_0, # of connection points: 2
#     Edge 40, Type (0, 1), BuildingBlock: CIFDUS_clean_linker_0, # of connection points: 2
#     Edge 41, Type (0, 1), BuildingBlock: CIFDUS_clean_linker_0, # of connection points: 2
#     Edge 42, Type (0, 1), BuildingBlock: CIFDUS_clean_linker_0, # of connection points: 2
#     Edge 43, Type (0, 1), BuildingBlock: CIFDUS_clean_linker_0, # of connection points: 2
#     Edge 44, Type (0, 1), BuildingBlock: CIFDUS_clean_linker_0, # of connection points: 2
#     Edge 45, Type (0, 1), BuildingBlock: CIFDUS_clean_linker_0, # of connection points: 2
#     Edge 46, Type (0, 1), BuildingBlock: CIFDUS_clean_linker_0, # of connection points: 2
#     Edge 47, Type (0, 1), BuildingBlock: CIFDUS_clean_linker_0, # of connection points: 2
#     Edge 48, Type (0, 1), BuildingBlock: CIFDUS_clean_linker_0, # of connection points: 2
#     Edge 49, Type (0, 1), BuildingBlock: CIFDUS_clean_linker_0, # of connection points: 2
#     Edge 50, Type (0, 1), BuildingBlock: CIFDUS_clean_linker_0, # of connection points: 2
#     Edge 51, Type (0, 1), BuildingBlock: CIFDUS_clean_linker_0, # of connection points: 2
#     Edge 52, Type (0, 1), BuildingBlock: CIFDUS_clean_linker_0, # of connection points: 2
#     Edge 53, Type (0, 1), BuildingBlock: CIFDUS_clean_linker_0, # of connection points: 2
#     Edge 54, Type (0, 1), BuildingBlock: CIFDUS_clean_linker_0, # of connection points: 2
#     Edge 55, Type (0, 1), BuildingBlock: CIFDUS_clean_linker_0, # of connection points: 2
#     Edge 56, Type (0, 1), BuildingBlock: CIFDUS_clean_linker_0, # of connection points: 2
#     Edge 57, Type (0, 1), BuildingBlock: CIFDUS_clean_linker_0, # of connection points: 2
#     Edge 58, Type (0, 1), BuildingBlock: CIFDUS_clean_linker_0, # of connection points: 2
#     Edge 59, Type (0, 1), BuildingBlock: CIFDUS_clean_linker_0, # of connection points: 2
#     Edge 60, Type (0, 1), BuildingBlock: CIFDUS_clean_linker_0, # of connection points: 2
#     Edge 61, Type (0, 1), BuildingBlock: CIFDUS_clean_linker_0, # of connection points: 2
# Relax obj value: 0.134
# Max RMSD: 0.270
# Mean RMSD: 0.183
data_MOF--net-ocu--node1-BETDEL_clean_sbu_0--node2-GIZVER_clean_sbu_0--edge1-CIFDUS_clean_linker_0
_symmetry_space_group_name_H-M    P1
_symmetry_Int_Tables_number       1
_symmetry_cell_setting            triclinic
loop_
_symmetry_equiv_pos_as_xyz
'x, y, z'
_cell_length_a     36.325958
_cell_length_b     38.278268
_cell_length_c     26.511528
_cell_angle_alpha  91.300825
_cell_angle_beta   91.866037
_cell_angle_gamma 107.636
loop_
_atom_site_label
_atom_site_type_symbol
_atom_site_fract_x
_atom_site_fract_y
_atom_site_fract_z
_atom_type_partial_charge
Dy0 Dy 0.31062 0.27224 0.297 0.0
C1 C 0.23314 0.31043 0.13271 0.0
C2 C 0.33918 0.2414 0.37472 0.0
Dy3 Dy 0.26397 0.27769 0.20644 0.0
O4 O 0.35956 0.26831 0.34868 0.0
O5 O 0.30331 0.23227 0.35897 0.0
O6 O 0.34494 0.33113 0.29542 0.0
O7 O 0.32586 0.30163 0.22637 0.0
C8 C 0.34303 0.33316 0.24647 0.0
C9 C 0.23115 0.21926 0.26267 0.0
O10 O 0.2979 0.24537 0.16738 0.0
O11 O 0.32474 0.2315 0.24159 0.0
O12 O 0.21528 0.2795 0.15276 0.0
O13 O 0.26829 0.32218 0.15139 0.0
O14 O 0.22764 0.21837 0.21353 0.0
O15 O 0.24949 0.25141 0.27811 0.0
O16 O 0.27542 0.30403 0.33584 0.0
O17 O 0.24737 0.31645 0.26168 0.0
C18 C 0.31878 0.22741 0.1916 0.0
C19 C 0.2532 0.32072 0.31155 0.0
Dy20 Dy 0.78659 0.24412 0.28049 0.0
C21 C 0.69427 0.33033 0.23408 0.0
C22 C 0.82815 0.19869 0.30474 0.0
Dy23 Dy 0.7396 0.29432 0.27598 0.0
O24 O 0.79745 0.18981 0.27521 0.0
O25 O 0.83626 0.23239 0.32126 0.0
O26 O 0.77177 0.22891 0.19768 0.0
O27 O 0.73124 0.24036 0.2437 0.0
C28 C 0.7374 0.23255 0.19921 0.0
C29 C 0.78568 0.30744 0.35942 0.0
O30 O 0.69744 0.24639 0.31024 0.0
O31 O 0.74439 0.22189 0.33968 0.0
O32 O 0.70407 0.33266 0.28193 0.0
O33 O 0.70999 0.30945 0.20934 0.0
O34 O 0.75083 0.31032 0.35759 0.0
O35 O 0.79386 0.29833 0.31595 0.0
O36 O 0.83063 0.28887 0.24542 0.0
O37 O 0.79179 0.32615 0.2327 0.0
C38 C 0.70834 0.22277 0.33807 0.0
C39 C 0.8253 0.31917 0.22847 0.0
Dy40 Dy 0.74943 0.7661 0.29436 0.0
C41 C 0.82388 0.7324 0.12343 0.0
C42 C 0.72558 0.80182 0.37107 0.0
Dy43 Dy 0.79482 0.7605 0.20235 0.0
O44 O 0.707 0.76893 0.35339 0.0
O45 O 0.75761 0.81432 0.3479 0.0
O46 O 0.7099 0.70906 0.27993 0.0
O47 O 0.73369 0.74147 0.21883 0.0
C48 C 0.71364 0.70993 0.23115 0.0
C49 C 0.8304 0.81506 0.269 0.0
O50 O 0.7568 0.7904 0.16559 0.0
O51 O 0.73236 0.80506 0.24001 0.0
O52 O 0.83608 0.76646 0.13949 0.0
O53 O 0.79554 0.71404 0.15014 0.0
O54 O 0.83499 0.81762 0.22058 0.0
O55 O 0.80977 0.78331 0.27807 0.0
O56 O 0.78421 0.73161 0.329 0.0
O57 O 0.81269 0.72126 0.25501 0.0
C58 C 0.73619 0.80811 0.19022 0.0
C59 C 0.80643 0.7156 0.30393 0.0
Dy60 Dy 0.31233 0.73848 0.23693 0.0
C61 C 0.23085 0.82716 0.32845 0.0
C62 C 0.34113 0.69478 0.17794 0.0
Dy63 Dy 0.26284 0.78563 0.27075 0.0
O64 O 0.34505 0.69755 0.22695 0.0
O65 O 0.32202 0.71611 0.16141 0.0
O66 O 0.35427 0.75867 0.3041 0.0
O67 O 0.32426 0.79221 0.27341 0.0
C68 C 0.34611 0.78934 0.30968 0.0
C69 C 0.23064 0.73596 0.19576 0.0
O70 O 0.29728 0.82413 0.2155 0.0
O71 O 0.32174 0.781 0.17738 0.0
O72 O 0.21214 0.80315 0.29397 0.0
O73 O 0.26701 0.82904 0.33077 0.0
O74 O 0.22479 0.76784 0.20003 0.0
O75 O 0.25095 0.73194 0.23319 0.0
O76 O 0.27084 0.69969 0.28529 0.0
O77 O 0.25383 0.7438 0.33149 0.0
C78 C 0.31638 0.81384 0.17917 0.0
C79 C 0.25377 0.70944 0.32427 0.0
Dy80 Dy 0.29373 0.74266 0.76535 0.0
C81 C 0.1895 0.82275 0.74469 0.0
C82 C 0.34784 0.71043 0.79024 0.0
Dy83 Dy 0.2417 0.78718 0.76568 0.0
O84 O 0.32408 0.70098 0.75126 0.0
O85 O 0.34147 0.7368 0.81645 0.0
O86 O 0.27556 0.72348 0.68593 0.0
O87 O 0.23451 0.73193 0.73468 0.0
C88 C 0.2397 0.72238 0.6901 0.0
C89 C 0.29703 0.80717 0.83968 0.0
O90 O 0.20551 0.7414 0.80834 0.0
O91 O 0.25232 0.7129 0.82312 0.0
O92 O 0.19648 0.79838 0.71491 0.0
O93 O 0.21145 0.82817 0.78536 0.0
O94 O 0.26173 0.80742 0.84502 0.0
O95 O 0.30094 0.79774 0.79484 0.0
O96 O 0.32901 0.78705 0.71909 0.0
O97 O 0.28197 0.81569 0.70645 0.0
C98 C 0.2177 0.71632 0.8307 0.0
C99 C 0.31615 0.81186 0.69713 0.0
Dy100 Dy 0.2635 0.27175 0.80366 0.0
C101 C 0.3298 0.22767 0.63167 0.0
C102 C 0.23826 0.30712 0.8799 0.0
Dy103 Dy 0.30169 0.25996 0.70821 0.0
O104 O 0.222 0.27323 0.86464 0.0
O105 O 0.26895 0.32108 0.85459 0.0
O106 O 0.22306 0.21382 0.795 0.0
O107 O 0.24244 0.24381 0.73095 0.0
C108 C 0.22324 0.21294 0.7459 0.0
C109 C 0.34105 0.31955 0.76403 0.0
O110 O 0.26144 0.28881 0.67291 0.0
O111 O 0.24877 0.31178 0.74981 0.0
O112 O 0.34247 0.26215 0.64551 0.0
O113 O 0.30061 0.21122 0.65843 0.0
O114 O 0.34045 0.31811 0.71497 0.0
O115 O 0.32287 0.28866 0.7802 0.0
O116 O 0.30335 0.24316 0.83966 0.0
O117 O 0.32039 0.22248 0.76371 0.0
C118 C 0.24688 0.31108 0.69952 0.0
C119 C 0.32089 0.22282 0.81417 0.0
Dy120 Dy 0.79906 0.24188 0.7283 0.0
C121 C 0.70515 0.31691 0.81858 0.0
C122 C 0.84217 0.20762 0.67725 0.0
Dy123 Dy 0.7441 0.28234 0.75924 0.0
O124 O 0.84894 0.21964 0.72379 0.0
O125 O 0.81103 0.21329 0.6587 0.0
O126 O 0.83302 0.25897 0.80178 0.0
O127 O 0.80633 0.29416 0.7675 0.0
C128 C 0.82556 0.29 0.80594 0.0
C129 C 0.71669 0.23304 0.6823 0.0
O130 O 0.77646 0.32378 0.70633 0.0
O131 O 0.81177 0.28785 0.67335 0.0
O132 O 0.74164 0.32943 0.80996 0.0
O133 O 0.68964 0.28632 0.79314 0.0
O134 O 0.70819 0.26366 0.68711 0.0
O135 O 0.73678 0.22963 0.72038 0.0
O136 O 0.76084 0.19953 0.77559 0.0
O137 O 0.74389 0.24354 0.82165 0.0
C138 C 0.80187 0.31854 0.67464 0.0
C139 C 0.74533 0.20957 0.81568 0.0
Dy140 Dy 0.81591 0.77143 0.79565 0.0
C141 C 0.73517 0.78922 0.61896 0.0
C142 C 0.84247 0.73791 0.87292 0.0
Dy143 Dy 0.76885 0.76555 0.69934 0.0
O144 O 0.86332 0.76655 0.85004 0.0
O145 O 0.80694 0.72999 0.85599 0.0
O146 O 0.85022 0.83004 0.78163 0.0
O147 O 0.82944 0.79245 0.72038 0.0
C148 C 0.84635 0.8259 0.73241 0.0
C149 C 0.7391 0.71124 0.76268 0.0
O150 O 0.80656 0.73356 0.66793 0.0
O151 O 0.83588 0.73152 0.74617 0.0
O152 O 0.71819 0.76134 0.64577 0.0
O153 O 0.77097 0.80271 0.63477 0.0
O154 O 0.73667 0.70667 0.71366 0.0
O155 O 0.75519 0.74483 0.77439 0.0
O156 O 0.77939 0.80506 0.82649 0.0
O157 O 0.75019 0.80699 0.74792 0.0
C158 C 0.83066 0.72207 0.69713 0.0
C159 C 0.75549 0.81676 0.79698 0.0
Co160 Co 0.0633 0.94557 0.49278 0.0
Co161 Co 0.06927 0.98664 0.57432 0.0
Co162 Co 0.03609 0.0211 0.49103 0.0
O163 O 0.07496 0.9971 0.50721 0.0
H164 H 0.101 1.01164 0.50038 0.0
O165 O 0.99597 0.04306 0.47409 0.0
Co166 Co 1.00139 0.09229 0.48938 0.0
Co167 Co 1.00058 0.05329 0.4067 0.0
H168 H 0.9704 0.02686 0.47973 0.0
O169 O 0.10655 0.97618 0.61136 0.0
O170 O 0.05674 0.93612 0.56602 0.0
O171 O 0.02899 0.99789 0.6107 0.0
O172 O 0.99596 0.98822 0.53802 0.0
O173 O 0.0579 0.05819 0.54697 0.0
O174 O 1.00098 0.13714 0.50452 0.0
O175 O 0.95066 0.08632 0.486 0.0
O176 O 0.05632 0.10444 0.49929 0.0
O177 O 0.07624 0.05392 0.44457 0.0
O178 O 0.04385 0.04816 0.37131 0.0
O179 O 1.00474 0.1022 0.41591 0.0
O180 O 0.95992 0.05767 0.36994 0.0
C181 C 0.09574 0.91196 0.48274 0.0
C182 C 0.9992 0.95227 0.44136 0.0
C183 C 0.99692 0.98628 0.58639 0.0
C184 C 0.08502 0.94285 0.60001 0.0
C185 C 0.96395 0.1205 0.50155 0.0
C186 C 0.07028 0.09221 0.53748 0.0
C187 C 0.07562 0.05758 0.39649 0.0
C188 C 0.97457 0.09187 0.38471 0.0
O189 O 0.05825 0.89935 0.4791 0.0
O190 O 0.11266 0.9459 0.49786 0.0
O191 O 1.01521 0.9859 0.43408 0.0
O192 O 1.0089 0.93787 0.48044 0.0
Co193 Co 0.58487 0.94959 0.96738 0.0
Co194 Co 0.56804 0.95735 0.05291 0.0
Co195 Co 0.5305 1.01458 0.99943 0.0
O196 O 0.5765 0.99246 0.00547 0.0
H197 H 0.60077 1.01136 0.0128 0.0
O198 O 0.48526 0.0377 0.99432 0.0
Co199 Co 0.48291 0.08412 0.02991 0.0
Co200 Co 0.48987 0.07006 0.94319 0.0
H201 H 0.46033 0.01912 0.99215 0.0
O202 O 0.60551 0.95993 0.10044 0.0
O203 O 0.58862 0.92117 0.03142 0.0
O204 O 0.51559 0.93921 0.07028 0.0
O205 O 0.50555 0.99354 0.06413 0.0
O206 O 0.56432 0.05902 0.03735 0.0
O207 O 0.4778 0.12322 0.06532 0.0
O208 O 0.4303 0.07164 0.0437 0.0
O209 O 0.53792 0.10449 0.0246 0.0
O210 O 0.55539 0.03501 0.93458 0.0
O211 O 0.54081 0.08657 0.91927 0.0
O212 O 0.47128 0.10815 0.96452 0.0
O213 O 0.449 0.06608 0.90009 0.0
C214 C 0.63121 0.93235 0.93894 0.0
C215 C 0.49893 0.93717 0.95388 0.0
C216 C 0.49446 0.95982 0.07613 0.0
C217 C 0.60785 0.93111 0.07527 0.0
C218 C 0.44161 0.1042 0.06664 0.0
C219 C 0.5666 0.09301 0.03657 0.0
C220 C 0.56311 0.06685 0.91594 0.0
C221 C 0.44889 0.09638 0.92337 0.0
O222 O 0.59517 0.91351 0.93082 0.0
O223 O 0.639 0.96322 0.96593 0.0
O224 O 0.49663 0.96962 0.96164 0.0
O225 O 0.53019 0.9287 0.96018 0.0
Co226 Co 0.05868 0.43825 0.00686 0.0
Co227 Co 0.07165 0.47898 0.09136 0.0
Co228 Co 1.02263 0.51013 0.00991 0.0
O229 O 0.06606 0.4892 0.02294 0.0
H230 H 0.09027 0.50485 0.01134 0.0
O231 O 0.97897 0.53018 0.99569 0.0
Co232 Co 0.98203 0.579 0.01395 0.0
Co233 Co 0.97247 0.54148 0.92755 0.0
H234 H 0.95493 0.51325 0.00573 0.0
O235 O 0.11766 0.47096 0.11725 0.0
O236 O 0.06657 0.43007 0.0784 0.0
O237 O 0.02828 0.47734 0.1322 0.0
O238 O 0.99103 0.48504 0.06746 0.0
O239 O 0.05177 0.55361 0.05547 0.0
O240 O 0.97888 0.62312 0.03168 0.0
O241 O 0.93123 0.5695 0.01998 0.0
O242 O 0.0357 0.59457 0.00994 0.0
O243 O 0.05363 0.53569 0.95281 0.0
O244 O 1.01629 0.54299 0.88763 0.0
O245 O 0.9791 0.59057 0.94274 0.0
O246 O 0.92779 0.55362 0.90034 0.0
C247 C 0.09334 0.40709 0.98614 0.0
C248 C 0.98543 0.43441 0.98043 0.0
C249 C 0.99537 0.47588 0.11279 0.0
C250 C 0.10024 0.43763 0.10104 0.0
C251 C 0.9423 0.60449 0.03148 0.0
C252 C 0.05805 0.58678 0.04236 0.0
C253 C 0.04912 0.54457 0.90745 0.0
C254 C 0.94717 0.58624 0.91722 0.0
O255 O 0.05642 0.39233 0.99121 0.0
O256 O 0.10872 0.44241 0.99462 0.0
O257 O 0.994 0.46702 0.96468 0.0
O258 O 1.00557 0.42711 0.01622 0.0
Co259 Co 0.57399 0.4559 0.00748 0.0
Co260 Co 0.56623 0.49886 0.08215 0.0
Co261 Co 0.53178 0.52 0.98667 0.0
O262 O 0.57468 0.5052 0.0145 0.0
H263 H 0.5996 0.52277 0.00956 0.0
O264 O 0.48903 0.53494 0.95929 0.0
Co265 Co 0.48789 0.58347 0.97048 0.0
Co266 Co 0.49613 0.54386 0.89245 0.0
H267 H 0.46433 0.51672 0.9633 0.0
O268 O 0.60627 0.50276 0.12568 0.0
O269 O 0.56899 0.45169 0.08196 0.0
O270 O 0.51727 0.49733 0.10954 0.0
O271 O 0.49114 0.48736 0.03228 0.0
O272 O 0.54476 0.56068 0.03779 0.0
O273 O 0.48077 0.62666 0.98136 0.0
O274 O 0.43625 0.57139 0.96538 0.0
O275 O 0.54319 0.60279 0.98331 0.0
O276 O 0.57244 0.55252 0.94064 0.0
O277 O 0.54408 0.54437 0.8642 0.0
O278 O 0.49256 0.59085 0.89645 0.0
O279 O 0.45544 0.54122 0.85021 0.0
C280 C 0.61458 0.43026 1.00143 0.0
C281 C 0.50633 0.44614 0.95188 0.0
C282 C 0.48811 0.48371 0.08007 0.0
C283 C 0.5955 0.4675 0.1168 0.0
C284 C 0.44503 0.60583 0.97967 0.0
C285 C 0.55691 0.59365 0.0242 0.0
C286 C 0.57429 0.55542 0.89253 0.0
C287 C 0.46535 0.57608 0.86204 0.0
O288 O 0.57807 0.41186 1.0007 0.0
O289 O 0.62575 0.46532 0.01338 0.0
O290 O 0.51847 0.47864 0.93612 0.0
O291 O 0.51933 0.43869 0.99432 0.0
Co292 Co 0.10152 0.46707 0.52268 0.0
Co293 Co 0.07537 0.46411 0.43253 0.0
Co294 Co 0.03114 0.51374 0.49497 0.0
O295 O 0.0518 0.46895 0.49173 0.0
H296 H 0.03137 0.44642 0.49693 0.0
O297 O 1.00968 0.55818 0.49798 0.0
Co298 Co 0.9602 0.5593 0.46337 0.0
Co299 Co 0.98183 0.56059 0.55545 0.0
H300 H 0.03004 0.58104 0.49473 0.0
O301 O 0.0755 0.41974 0.40494 0.0
O302 O 0.1231 0.45855 0.4543 0.0
O303 O 0.08466 0.50514 0.39026 0.0
O304 O 0.06757 0.54272 0.4441 0.0
O305 O 0.99094 0.49061 0.44154 0.0
O306 O 0.91727 0.56399 0.43029 0.0
O307 O 0.97246 0.60877 0.44931 0.0
O308 O 0.94055 0.50663 0.46949 0.0
O309 O 0.9949 0.48397 0.54553 0.0
O310 O 0.96402 0.51592 0.58986 0.0
O311 O 0.93731 0.56975 0.52926 0.0
O312 O 0.98189 0.60455 0.58587 0.0
C313 C 0.12473 0.42712 0.55349 0.0
C314 C 0.10796 0.54353 0.5413 0.0
C315 C 0.08441 0.5369 0.40453 0.0
C316 C 0.11119 0.43011 0.42231 0.0
C317 C 0.93725 0.59845 0.42881 0.0
C318 C 0.95482 0.4831 0.44915 0.0
C319 C 0.97065 0.48613 0.57847 0.0
C320 C 0.94837 0.59751 0.56235 0.0
O321 O 0.14455 0.46171 0.55392 0.0
O322 O 0.08959 0.41717 0.53286 0.0
O323 O 0.07182 0.53739 0.54824 0.0
O324 O 0.12096 0.51972 0.51929 0.0
Co325 Co 0.5881 0.9597 0.53948 0.0
Co326 Co 0.55937 0.95732 0.4474 0.0
Co327 Co 0.52461 1.00796 0.51158 0.0
O328 O 0.54081 0.96328 0.51059 0.0
H329 H 0.51947 0.94181 0.51704 0.0
O330 O 0.50824 0.05254 0.51181 0.0
Co331 Co 0.46276 0.05667 0.47814 0.0
Co332 Co 0.48785 0.06094 0.57235 0.0
H333 H 0.52995 0.0739 0.50634 0.0
O334 O 0.55563 0.91143 0.42346 0.0
O335 O 0.60497 0.95065 0.47005 0.0
O336 O 0.57164 0.9975 0.40246 0.0
O337 O 0.56307 0.03508 0.46268 0.0
O338 O 0.48723 0.98465 0.45555 0.0
O339 O 0.42318 0.06698 0.44733 0.0
O340 O 0.4811 0.10546 0.47457 0.0
O341 O 0.43782 1.00437 0.47517 0.0
O342 O 0.48523 0.98157 0.56085 0.0
O343 O 0.47741 0.02188 0.61823 0.0
O344 O 0.4405 0.06134 0.54468 0.0
O345 O 0.48255 0.10631 0.59209 0.0
C346 C 0.60729 0.9177 0.56303 0.0
C347 C 0.59957 0.03602 0.56154 0.0
C348 C 0.57553 0.0295 0.41993 0.0
C349 C 0.5902 0.91961 0.44433 0.0
C350 C 0.44692 0.10015 0.45345 0.0
C351 C 0.45112 0.98007 0.4558 0.0
C352 C 0.47193 0.98914 0.6024 0.0
C353 C 0.44862 0.09238 0.57009 0.0
O354 O 0.62992 0.95141 0.56601 0.0
O355 O 0.57134 0.91079 0.5472 0.0
O356 O 0.56349 0.03099 0.56665 0.0
O357 O 0.61167 1.01223 0.5381 0.0
H358 H 0.18704 0.14893 0.23667 0.0
H359 H 0.22374 0.22466 0.36447 0.0
H360 H 0.18323 0.17956 0.41933 0.0
H361 H 0.13237 0.12022 0.42981 0.0
H362 H 0.09446 0.04559 0.30107 0.0
H363 H 0.14051 0.08784 0.24863 0.0
C364 C 0.18642 0.15543 0.2766 0.0
C365 C 0.20834 0.19033 0.29615 0.0
C366 C 0.16274 0.12929 0.30812 0.0
C367 C 0.20723 0.1981 0.34817 0.0
C368 C 0.18396 0.17226 0.37971 0.0
C369 C 0.13507 0.11277 0.3907 0.0
C370 C 0.1101 0.07951 0.36961 0.0
C371 C 0.16102 0.1379 0.36005 0.0
C372 C 0.11343 0.07081 0.31842 0.0
C373 C 0.13959 0.09516 0.2882 0.0
H374 H 0.89781 0.21691 0.35382 0.0
H375 H 0.80958 0.12642 0.28023 0.0
H376 H 0.84843 0.08565 0.29698 0.0
H377 H 0.90652 0.07592 0.33265 0.0
H378 H 0.99582 0.16589 0.40582 0.0
H379 H 0.95738 0.20714 0.38857 0.0
C380 C 0.8872 0.18823 0.34166 0.0
C381 C 0.85114 0.17441 0.31603 0.0
C382 C 0.90978 0.16515 0.35096 0.0
C383 C 0.83743 0.13742 0.30005 0.0
C384 C 0.85957 0.11421 0.3095 0.0
C385 C 0.91786 0.10461 0.34455 0.0
C386 C 0.9538 0.11785 0.37069 0.0
C387 C 0.89574 0.12785 0.33478 0.0
C388 C 0.96806 0.15508 0.38577 0.0
C389 C 0.94611 0.1786 0.37607 0.0
H390 H 0.88583 0.88006 0.25627 0.0
H391 H 0.83434 0.80297 0.36928 0.0
H392 H 0.88211 0.83804 0.43283 0.0
H393 H 0.94049 0.88948 0.4558 0.0
H394 H 0.99042 0.96771 0.34328 0.0
H395 H 0.94169 0.93342 0.28041 0.0
C396 C 0.88491 0.8712 0.29491 0.0
C397 C 0.85682 0.8389 0.30792 0.0
C398 C 0.91251 0.89152 0.33141 0.0
C399 C 0.85579 0.82776 0.35822 0.0
C400 C 0.88321 0.8477 0.39462 0.0
C401 C 0.94068 0.89888 0.41748 0.0
C402 C 0.9692 0.93085 0.40416 0.0
C403 C 0.9121 0.87934 0.38151 0.0
C404 C 0.96877 0.9431 0.35454 0.0
C405 C 0.94091 0.92353 0.31847 0.0
H406 H 0.15837 0.80354 0.35907 0.0
H407 H 0.26423 0.89297 0.3773 0.0
H408 H 0.23283 0.92601 0.43355 0.0
H409 H 0.17335 0.93122 0.47067 0.0
H410 H 0.06856 0.83981 0.4543 0.0
H411 H 0.10192 0.80514 0.40547 0.0
C412 C 0.17445 0.83027 0.37547 0.0
C413 C 0.21294 0.84649 0.36342 0.0
C414 C 0.1566 0.84844 0.4084 0.0
C415 C 0.23419 0.88048 0.38577 0.0
C416 C 0.21635 0.89921 0.41794 0.0
C417 C 0.15808 0.90343 0.45738 0.0
C418 C 0.11839 0.88845 0.46507 0.0
C419 C 0.17731 0.8837 0.42874 0.0
C420 C 0.09903 0.85223 0.44819 0.0
C421 C 0.11797 0.8324 0.41998 0.0
H422 H 0.13636 0.80914 0.66776 0.0
H423 H 0.18691 0.88523 0.79195 0.0
H424 H 0.15441 0.92804 0.76036 0.0
H425 H 0.11966 0.94695 0.69148 0.0
H426 H 0.0673 0.87081 0.5681 0.0
H427 H 0.09228 0.8244 0.60563 0.0
C428 C 0.13962 0.83485 0.68821 0.0
C429 C 0.16443 0.84469 0.7312 0.0
C430 C 0.1211 0.85929 0.66972 0.0
C431 C 0.16813 0.87752 0.75833 0.0
C432 C 0.14973 0.90198 0.74025 0.0
C433 C 0.11345 0.92007 0.67303 0.0
C434 C 0.09337 0.91269 0.62608 0.0
C435 C 0.12747 0.89369 0.69497 0.0
C436 C 0.08396 0.87742 0.60346 0.0
C437 C 0.09808 0.85089 0.62496 0.0
H438 H 0.20492 0.21879 0.64724 0.0
H439 H 0.17914 0.14411 0.76973 0.0
H440 H 0.13086 0.09914 0.71524 0.0
H441 H 0.09407 0.08224 0.63353 0.0
H442 H 0.11799 0.1591 0.51325 0.0
H443 H 0.16882 0.20196 0.56608 0.0
C444 C 0.18893 0.19257 0.66198 0.0
C445 C 0.19559 0.18476 0.7125 0.0
C446 C 0.1607 0.16731 0.63082 0.0
C447 C 0.17448 0.15076 0.73102 0.0
C448 C 0.14686 0.12509 0.69987 0.0
C449 C 0.11059 0.10827 0.61879 0.0
C450 C 0.10212 0.1174 0.56943 0.0
C451 C 0.13942 0.13322 0.64982 0.0
C452 C 0.12366 0.15139 0.55111 0.0
C453 C 0.15282 0.17594 0.58129 0.0
H454 H 0.82821 0.17077 0.58658 0.0
H455 H 0.91684 0.2167 0.70283 0.0
H456 H 0.96383 0.19824 0.65393 0.0
H457 H 0.97889 0.16657 0.58107 0.0
H458 H 0.88992 0.11407 0.46837 0.0
H459 H 0.84374 0.13828 0.51221 0.0
C460 C 0.85783 0.17658 0.60096 0.0
C461 C 0.86923 0.19476 0.64808 0.0
C462 C 0.8845 0.16513 0.57314 0.0
C463 C 0.90749 0.20231 0.66678 0.0
C464 C 0.93439 0.19203 0.63876 0.0
C465 C 0.94958 0.16108 0.56557 0.0
C466 C 0.93761 0.13903 0.52168 0.0
C467 C 0.92313 0.17325 0.5922 0.0
C468 C 0.89947 0.1312 0.50229 0.0
C469 C 0.87318 0.14481 0.52743 0.0
H470 H 0.8887 0.89774 0.75243 0.0
H471 H 0.85399 0.81652 0.63077 0.0
H472 H 0.89337 0.86002 0.57275 0.0
H473 H 0.94242 0.92018 0.5578 0.0
H474 H 0.97787 1.00019 0.68095 0.0
H475 H 0.93349 0.95886 0.73614 0.0
C476 C 0.88947 0.88961 0.71313 0.0
C477 C 0.86839 0.85362 0.69636 0.0
C478 C 0.91248 0.91486 0.67981 0.0
C479 C 0.86982 0.84387 0.64505 0.0
C480 C 0.89247 0.86883 0.6117 0.0
C481 C 0.93959 0.92894 0.59628 0.0
C482 C 0.96338 0.96366 0.61483 0.0
C483 C 0.91447 0.90434 0.62869 0.0
C484 C 0.95985 0.97393 0.66536 0.0
C485 C 0.9346 0.95011 0.69721 0.0
H486 H 0.36802 0.18876 0.22501 0.0
H487 H 0.30952 0.20922 0.08986 0.0
H488 H 0.33838 0.17048 0.04026 0.0
H489 H 0.38295 0.13218 0.03365 0.0
H490 H 0.44387 0.11467 0.16801 0.0
H491 H 0.41118 0.14961 0.21874 0.0
C492 C 0.36131 0.18469 0.18475 0.0
C493 C 0.3363 0.20241 0.16177 0.0
C494 C 0.37844 0.16229 0.15587 0.0
C495 C 0.32849 0.1964 0.10923 0.0
C496 C 0.34507 0.17401 0.08054 0.0
C497 C 0.38853 0.13542 0.07412 0.0
C498 C 0.41547 0.11988 0.09691 0.0
C499 C 0.37034 0.15688 0.10322 0.0
C500 C 0.42281 0.12544 0.14942 0.0
C501 C 0.4043 0.14583 0.17851 0.0
H502 H 0.82947 0.3803 0.17325 0.0
H503 H 0.89978 0.32349 0.25055 0.0
H504 H 0.95805 0.37007 0.22818 0.0
H505 H 0.9898 0.42438 0.18234 0.0
H506 H 0.92167 0.47993 0.09883 0.0
H507 H 0.86221 0.43714 0.12876 0.0
C508 C 0.85756 0.37819 0.18505 0.0
C509 C 0.86004 0.348 0.21275 0.0
C510 C 0.89154 0.4051 0.17138 0.0
C511 C 0.89675 0.34587 0.22818 0.0
C512 C 0.9303 0.37274 0.21583 0.0
C513 C 0.96203 0.42776 0.17162 0.0
C514 C 0.96022 0.45546 0.13873 0.0
C515 C 0.9281 0.40218 0.18697 0.0
C516 C 0.92385 0.45891 0.1244 0.0
C517 C 0.88983 0.43425 0.14115 0.0
H518 H 0.69317 0.8508 0.22615 0.0
H519 H 0.72884 0.81308 0.08694 0.0
H520 H 0.69163 0.84554 0.03859 0.0
H521 H 0.64828 0.88561 0.03528 0.0
H522 H 0.61538 0.9241 0.176 0.0
H523 H 0.65128 0.89052 0.22312 0.0
C524 C 0.69297 0.84962 0.18524 0.0
C525 C 0.71419 0.82929 0.16073 0.0
C526 C 0.67148 0.86858 0.15735 0.0
C527 C 0.71318 0.82845 0.1074 0.0
C528 C 0.69164 0.84701 0.07946 0.0
C529 C 0.64876 0.88641 0.07619 0.0
C530 C 0.62881 0.90768 0.10163 0.0
C531 C 0.67048 0.86723 0.1039 0.0
C532 C 0.63038 0.9084 0.15491 0.0
C533 C 0.65103 0.88907 0.18223 0.0
H534 H 0.17486 0.7368 0.12564 0.0
H535 H 0.22841 0.66404 0.19856 0.0
H536 H 0.17999 0.61088 0.15829 0.0
H537 H 0.11984 0.58477 0.10493 0.0
H538 H 0.06901 0.65931 0.03019 0.0
H539 H 0.11872 0.7114 0.06797 0.0
C540 C 0.17619 0.70934 0.13226 0.0
C541 C 0.20474 0.70439 0.16573 0.0
C542 C 0.14843 0.67892 0.1087 0.0
C543 C 0.2063 0.6686 0.17354 0.0
C544 C 0.17859 0.63813 0.15049 0.0
C545 C 0.11975 0.61239 0.09689 0.0
C546 C 0.09026 0.61775 0.06508 0.0
C547 C 0.149 0.64287 0.11858 0.0
C548 C 0.09102 0.65395 0.05467 0.0
C549 C 0.11956 0.68404 0.07628 0.0
H550 H 0.37183 0.80901 0.83626 0.0
H551 H 0.29614 0.85816 0.91323 0.0
H552 H 0.35203 0.90302 0.95576 0.0
H553 H 0.42285 0.93107 0.96593 0.0
H554 H 0.49775 0.87823 0.89395 0.0
H555 H 0.44178 0.83216 0.85448 0.0
C556 C 0.36754 0.82912 0.86303 0.0
C557 C 0.32999 0.83043 0.87132 0.0
C558 C 0.39971 0.85452 0.88767 0.0
C559 C 0.32481 0.8566 0.90618 0.0
C560 C 0.35676 0.88242 0.93025 0.0
C561 C 0.42684 0.90932 0.94185 0.0
C562 C 0.46444 0.90829 0.93263 0.0
C563 C 0.39441 0.88215 0.92038 0.0
C564 C 0.46915 0.87968 0.9018 0.0
C565 C 0.43716 0.85331 0.87911 0.0
H566 H 0.1665 0.28501 0.91674 0.0
H567 H 0.26816 0.37882 0.91122 0.0
H568 H 0.2331 0.41821 0.94739 0.0
H569 H 0.17124 0.42704 0.97125 0.0
H570 H 0.06939 0.33278 0.9737 0.0
H571 H 0.10671 0.29279 0.94818 0.0
C572 C 0.18118 0.31394 0.9244 0.0
C573 C 0.2197 0.32905 0.91097 0.0
C574 C 0.16055 0.33657 0.94377 0.0
C575 C 0.2384 0.36658 0.92108 0.0
C576 C 0.21829 0.38916 0.94143 0.0
C577 C 0.15726 0.39776 0.96632 0.0
C578 C 0.11733 0.38317 0.97329 0.0
C579 C 0.17893 0.37468 0.95125 0.0
C580 C 0.09989 0.345 0.96769 0.0
C581 C 0.12126 0.32196 0.95327 0.0
H582 H 0.71128 0.1366 0.79424 0.0
H583 H 0.72523 0.22103 0.91054 0.0
H584 H 0.67084 0.18185 0.95415 0.0
H585 H 0.61286 0.1293 0.95022 0.0
H586 H 0.59842 0.04262 0.83809 0.0
H587 H 0.65932 0.07743 0.80058 0.0
C588 C 0.70323 0.14587 0.83001 0.0
C589 C 0.72166 0.1819 0.8487 0.0
C590 C 0.67127 0.12341 0.85446 0.0
C591 C 0.71104 0.1936 0.89508 0.0
C592 C 0.67979 0.17137 0.91984 0.0
C593 C 0.62366 0.11757 0.91849 0.0
C594 C 0.60144 0.08392 0.89642 0.0
C595 C 0.65862 0.13715 0.8984 0.0
C596 C 0.61527 0.06878 0.85523 0.0
C597 C 0.64995 0.08863 0.83397 0.0
H598 H 0.91746 0.73814 0.88238 0.0
H599 H 0.8011 0.67406 0.91334 0.0
H600 H 0.82273 0.62055 0.92847 0.0
H601 H 0.87367 0.59003 0.9238 0.0
H602 H 0.99055 0.65503 0.89768 0.0
H603 H 0.96975 0.7097 0.88861 0.0
C604 C 0.89705 0.71275 0.89375 0.0
C605 C 0.8577 0.71001 0.89621 0.0
C606 C 0.90955 0.68181 0.90148 0.0
C607 C 0.83158 0.67688 0.91101 0.0
C608 C 0.84382 0.64608 0.91903 0.0
C609 C 0.89437 0.61613 0.91559 0.0
C610 C 0.93332 0.61839 0.90988 0.0
C611 C 0.88245 0.64781 0.91236 0.0
C612 C 0.96025 0.65259 0.90129 0.0
C613 C 0.94844 0.6839 0.89648 0.0
H614 H 0.15606 0.29802 0.11861 0.0
H615 H 0.26639 0.37857 0.09797 0.0
H616 H 0.23466 0.42584 0.08602 0.0
H617 H 0.17648 0.44573 0.09282 0.0
H618 H 0.06613 0.36497 0.11212 0.0
H619 H 0.09697 0.3164 0.11434 0.0
C620 C 0.17301 0.3257 0.11012 0.0
C621 C 0.21346 0.335 0.10992 0.0
C622 C 0.15473 0.35293 0.10492 0.0
C623 C 0.23515 0.37087 0.09862 0.0
C624 C 0.2171 0.39801 0.09245 0.0
C625 C 0.15938 0.41752 0.09799 0.0
C626 C 0.11941 0.40891 0.10393 0.0
C627 C 0.17714 0.38967 0.09792 0.0
C628 C 0.09715 0.37218 0.10857 0.0
C629 C 0.11468 0.34442 0.10942 0.0
H630 H 0.20822 0.64303 0.83108 0.0
H631 H 0.16106 0.72677 0.88629 0.0
H632 H 0.10331 0.68 0.91179 0.0
H633 H 0.06433 0.61607 0.91254 0.0
H634 H 0.1106 0.53085 0.86217 0.0
H635 H 0.17052 0.57743 0.83891 0.0
C636 C 0.18573 0.65085 0.84998 0.0
C637 C 0.1887 0.68815 0.85695 0.0
C638 C 0.15209 0.62373 0.86347 0.0
C639 C 0.15923 0.69815 0.8807 0.0
C640 C 0.1261 0.6715 0.89475 0.0
C641 C 0.08742 0.60784 0.89572 0.0
C642 C 0.08301 0.57059 0.88699 0.0
C643 C 0.12178 0.6344 0.88484 0.0
C644 C 0.11331 0.55969 0.86736 0.0
C645 C 0.14755 0.58622 0.85482 0.0
H646 H 0.35102 0.16943 0.77813 0.0
H647 H 0.34405 0.22944 0.91515 0.0
H648 H 0.38368 0.19793 0.96092 0.0
H649 H 0.42166 0.15276 0.96237 0.0
H650 H 0.42414 0.09103 0.82492 0.0
H651 H 0.38622 0.12369 0.78011 0.0
C652 C 0.358 0.17568 0.81804 0.0
C653 C 0.34413 0.20209 0.84266 0.0
C654 C 0.38061 0.157 0.8446 0.0
C655 C 0.35379 0.2093 0.8947 0.0
C656 C 0.37677 0.19126 0.9211 0.0
C657 C 0.41375 0.14632 0.92276 0.0
C658 C 0.42601 0.11883 0.8978 0.0
C659 C 0.39056 0.16496 0.89656 0.0
C660 C 0.4153 0.1115 0.846 0.0
C661 C 0.39341 0.13033 0.8199 0.0
H662 H 0.87181 0.28691 0.88644 0.0
H663 H 0.83179 0.36252 0.79827 0.0
H664 H 0.87684 0.41442 0.84564 0.0
H665 H 0.93104 0.43831 0.90847 0.0
H666 H 0.9697 0.36163 0.99682 0.0
H667 H 0.92189 0.31048 0.95322 0.0
C668 C 0.8727 0.31476 0.87803 0.0
C669 C 0.84889 0.32093 0.83875 0.0
C670 C 0.89873 0.34439 0.90517 0.0
C671 C 0.84999 0.3571 0.82838 0.0
C672 C 0.87587 0.3868 0.85527 0.0
C673 C 0.92883 0.41042 0.91829 0.0
C674 C 0.9543 0.40396 0.95545 0.0
C675 C 0.90097 0.38079 0.89312 0.0
C676 C 0.95072 0.36758 0.96817 0.0
C677 C 0.92333 0.33815 0.94324 0.0
H678 H 0.76627 0.86233 0.8852 0.0
H679 H 0.68728 0.8207 0.75709 0.0
H680 H 0.64389 0.85271 0.78837 0.0
H681 H 0.62614 0.89125 0.85245 0.0
H682 H 0.70466 0.93736 0.97878 0.0
H683 H 0.7498 0.90561 0.94809 0.0
C684 C 0.73963 0.86033 0.86406 0.0
C685 C 0.73053 0.83857 0.81842 0.0
C686 C 0.71439 0.87991 0.88199 0.0
C687 C 0.69572 0.83698 0.79189 0.0
C688 C 0.67054 0.85537 0.8099 0.0
C689 C 0.65332 0.89478 0.87321 0.0
C690 C 0.6617 0.917 0.91806 0.0
C691 C 0.67934 0.87679 0.85488 0.0
C692 C 0.69733 0.921 0.94394 0.0
C693 C 0.72311 0.90248 0.92645 0.0
H694 H 0.80548 0.66071 0.09715 0.0
H695 H 0.89075 0.76524 0.07663 0.0
H696 H 0.93445 0.73427 0.04135 0.0
H697 H 0.95186 0.67749 0.02942 0.0
H698 H 0.86698 0.57309 0.05296 0.0
H699 H 0.81965 0.60404 0.07433 0.0
C700 C 0.8333 0.67671 0.08391 0.0
C701 C 0.84535 0.71503 0.09029 0.0
C702 C 0.85865 0.65875 0.06553 0.0
C703 C 0.88113 0.7356 0.07245 0.0
C704 C 0.90622 0.71792 0.05277 0.0
C705 C 0.923 0.66155 0.03927 0.0
C706 C 0.91323 0.6232 0.04123 0.0
C707 C 0.89597 0.6795 0.05154 0.0
C708 C 0.87538 0.60274 0.05221 0.0
C709 C 0.84827 0.62037 0.06423 0.0
H710 H 0.34629 0.88777 0.19637 0.0
H711 H 0.33833 0.80093 0.08579 0.0
H712 H 0.39084 0.84136 0.04033 0.0
H713 H 0.44635 0.8962 0.04208 0.0
H714 H 0.45574 0.98458 0.14992 0.0
H715 H 0.39538 0.94848 0.18736 0.0
C716 C 0.3552 0.87816 0.1614 0.0
C717 C 0.33899 0.84124 0.14486 0.0
C718 C 0.38625 0.90136 0.13609 0.0
C719 C 0.35078 0.82907 0.09957 0.0
C720 C 0.38095 0.85206 0.07377 0.0
C721 C 0.43453 0.90803 0.07279 0.0
C722 C 0.45534 0.94262 0.09371 0.0
C723 C 0.4001 0.88745 0.09327 0.0
C724 C 0.44005 0.95782 0.13351 0.0
C725 C 0.40571 0.93715 0.15486 0.0
H726 H 0.73325 0.17986 0.12599 0.0
H727 H 0.66775 0.24449 0.19309 0.0
H728 H 0.61057 0.2108 0.14233 0.0
H729 H 0.57672 0.15801 0.08688 0.0
H730 H 0.63932 0.0876 0.0285 0.0
H731 H 0.69962 0.12808 0.06734 0.0
C732 C 0.70667 0.18704 0.12853 0.0
C733 C 0.70507 0.21525 0.1625 0.0
C734 C 0.673 0.16593 0.1013 0.0
C735 C 0.67014 0.22363 0.16635 0.0
C736 C 0.63717 0.204 0.13773 0.0
C737 C 0.60368 0.1519 0.08195 0.0
C738 C 0.60354 0.11986 0.05498 0.0
C739 C 0.63793 0.17443 0.10617 0.0
C740 C 0.63865 0.112 0.0495 0.0
C741 C 0.67315 0.13515 0.07166 0.0
H742 H 0.69767 0.64002 0.7408 0.0
H743 H 0.72542 0.72151 0.86242 0.0
H744 H 0.68063 0.67885 0.9164 0.0
H745 H 0.62847 0.61988 0.92634 0.0
H746 H 0.59972 0.54012 0.80246 0.0
H747 H 0.64999 0.57999 0.75286 0.0
C748 C 0.69426 0.64835 0.7793 0.0
C749 C 0.71482 0.6841 0.79726 0.0
C750 C 0.66805 0.62376 0.80998 0.0
C751 C 0.71003 0.69424 0.84742 0.0
C752 C 0.68427 0.66981 0.87836 0.0
C753 C 0.634 0.61087 0.88905 0.0
C754 C 0.6104 0.57681 0.86835 0.0
C755 C 0.66248 0.63465 0.8598 0.0
C756 C 0.61747 0.56602 0.81944 0.0
C757 C 0.64611 0.58896 0.79084 0.0
H758 H 0.35091 0.6459 0.75351 0.0
H759 H 0.40918 0.73595 0.85659 0.0
H760 H 0.45495 0.70372 0.88318 0.0
H761 H 0.47352 0.64756 0.88301 0.0
H762 H 0.41119 0.55551 0.78484 0.0
H763 H 0.3718 0.59116 0.74991 0.0
C764 C 0.37388 0.65849 0.78148 0.0
C765 C 0.37681 0.69275 0.80363 0.0
C766 C 0.39894 0.63941 0.79764 0.0
C767 C 0.40646 0.7092 0.83966 0.0
C768 C 0.43254 0.69091 0.85468 0.0
C769 C 0.45149 0.63535 0.85379 0.0
C770 C 0.44469 0.59881 0.83726 0.0
C771 C 0.42827 0.65555 0.83497 0.0
C772 C 0.41653 0.5835 0.79875 0.0
C773 C 0.394 0.6038 0.77875 0.0
H774 H 0.36739 0.31464 0.85989 0.0
H775 H 0.37933 0.38866 0.73696 0.0
H776 H 0.43078 0.43489 0.78502 0.0
H777 H 0.4742 0.45307 0.86011 0.0
H778 H 0.46441 0.37806 0.98174 0.0
H779 H 0.41041 0.33331 0.93591 0.0
C780 C 0.38103 0.34104 0.84388 0.0
C781 C 0.36968 0.34833 0.79499 0.0
C782 C 0.4112 0.36711 0.87125 0.0
C783 C 0.38771 0.38248 0.7745 0.0
C784 C 0.41715 0.40884 0.8019 0.0
C785 C 0.46025 0.42697 0.87673 0.0
C786 C 0.47349 0.41894 0.92428 0.0
C787 C 0.42949 0.40125 0.84998 0.0
C788 C 0.45501 0.38493 0.94511 0.0
C789 C 0.42403 0.35934 0.91898 0.0
H790 H 0.73228 0.38264 0.86967 0.0
H791 H 0.63434 0.28475 0.85385 0.0
H792 H 0.60115 0.30882 0.91811 0.0
H793 H 0.5976 0.35909 0.97274 0.0
H794 H 0.6918 0.46023 0.98319 0.0
H795 H 0.72973 0.43283 0.92888 0.0
C796 C 0.70367 0.36671 0.88042 0.0
C797 C 0.68542 0.33228 0.85669 0.0
C798 C 0.68445 0.38103 0.91688 0.0
C799 C 0.6486 0.3116 0.87108 0.0
C800 C 0.62977 0.3252 0.90807 0.0
C801 C 0.62668 0.37512 0.96394 0.0
C802 C 0.64164 0.41184 0.98144 0.0
C803 C 0.64715 0.36007 0.9305 0.0
C804 C 0.67957 0.43191 0.97014 0.0
C805 C 0.70104 0.41641 0.93855 0.0
H806 H 0.68538 0.39418 0.26516 0.0
H807 H 0.6493 0.30827 0.14955 0.0
H808 H 0.61197 0.34228 0.10486 0.0
H809 H 0.5933 0.39768 0.09664 0.0
H810 H 0.63554 0.48698 0.20686 0.0
H811 H 0.66659 0.45011 0.25655 0.0
C812 C 0.66886 0.38291 0.23054 0.0
C813 C 0.66966 0.34919 0.21028 0.0
C814 C 0.64895 0.40316 0.20425 0.0
C815 C 0.64886 0.33452 0.16527 0.0
C816 C 0.62765 0.35384 0.13987 0.0
C817 C 0.60935 0.40914 0.1314 0.0
C818 C 0.61269 0.445 0.14775 0.0
C819 C 0.62814 0.38845 0.1586 0.0
C820 C 0.6331 0.45943 0.19326 0.0
C821 C 0.65073 0.43843 0.22171 0.0
H822 H 0.69176 0.72086 0.13471 0.0
H823 H 0.67435 0.63928 0.24855 0.0
H824 H 0.62534 0.59596 0.19364 0.0
H825 H 0.58554 0.58227 0.11571 0.0
H826 H 0.59995 0.66393 0.00222 0.0
H827 H 0.65194 0.70642 0.0548 0.0
C828 C 0.67749 0.69345 0.14719 0.0
C829 C 0.68664 0.68317 0.19562 0.0
C830 C 0.64857 0.66895 0.11581 0.0
C831 C 0.66773 0.64776 0.21151 0.0
C832 C 0.63965 0.62305 0.1802 0.0
C833 C 0.60003 0.60932 0.10217 0.0
C834 C 0.58866 0.61991 0.05504 0.0
C835 C 0.62949 0.63354 0.13265 0.0
C836 C 0.60788 0.65513 0.03842 0.0
C837 C 0.63769 0.67938 0.06843 0.0
H838 H 0.35016 0.69949 0.07736 0.0
H839 H 0.36651 0.638 0.20603 0.0
H840 H 0.39453 0.6006 0.15248 0.0
H841 H 0.4194 0.58917 0.07096 0.0
H842 H 0.4101 0.65494 0.94465 0.0
H843 H 0.37346 0.68668 0.99472 0.0
C844 C 0.35959 0.67767 0.09345 0.0
C845 C 0.35654 0.67143 0.14541 0.0
C846 C 0.37661 0.65707 0.06273 0.0
C847 C 0.36894 0.64333 0.16612 0.0
C848 C 0.38479 0.62193 0.13555 0.0
C849 C 0.40833 0.6098 0.05422 0.0
C850 C 0.41647 0.6195 0.00423 0.0
C851 C 0.38933 0.62898 0.08406 0.0
C852 C 0.4034 0.64692 0.9829 0.0
C853 C 0.38284 0.66514 0.01168 0.0
H854 H 0.35295 0.34389 0.14344 0.0
H855 H 0.38961 0.39601 0.29042 0.0
H856 H 0.43467 0.44797 0.25211 0.0
H857 H 0.46741 0.4774 0.1781 0.0
H858 H 0.43127 0.42789 0.02988 0.0
H859 H 0.38233 0.3771 0.067 0.0
C860 C 0.37058 0.36676 0.16695 0.0
C861 C 0.368 0.36552 0.22005 0.0
C862 C 0.39672 0.39733 0.1444 0.0
C863 C 0.39099 0.39573 0.24967 0.0
C864 C 0.41691 0.42569 0.22775 0.0
C865 C 0.44847 0.45584 0.15367 0.0
C866 C 0.45342 0.45665 0.10112 0.0
C867 C 0.42052 0.4266 0.17532 0.0
C868 C 0.42826 0.42832 0.07036 0.0
C869 C 0.40036 0.39898 0.09171 0.0
H870 H 0.81866 0.67554 0.61048 0.0
H871 H 0.90031 0.7206 0.73484 0.0
H872 H 0.94323 0.68797 0.70364 0.0
H873 H 0.95846 0.64623 0.64248 0.0
H874 H 0.8767 0.59616 0.52081 0.0
H875 H 0.83371 0.63089 0.54896 0.0
C876 C 0.84586 0.67826 0.63066 0.0
C877 C 0.85582 0.70087 0.67536 0.0
C878 C 0.87074 0.65841 0.61284 0.0
C879 C 0.89129 0.7035 0.70081 0.0
C880 C 0.91616 0.68481 0.68283 0.0
C881 C 0.93133 0.64281 0.62171 0.0
C882 C 0.92144 0.61868 0.57875 0.0
C883 C 0.90627 0.66211 0.63908 0.0
C884 C 0.88564 0.61472 0.55336 0.0
C885 C 0.86086 0.63457 0.56976 0.0
H886 H 0.33446 0.88396 0.71598 0.0
H887 H 0.36164 0.80283 0.6216 0.0
H888 H 0.4139 0.85083 0.58464 0.0
H889 H 0.45216 0.91572 0.58084 0.0
H890 H 0.42741 0.99582 0.68085 0.0
H891 H 0.3745 0.94811 0.71511 0.0
C892 C 0.35145 0.87705 0.68659 0.0
C893 C 0.3439 0.84043 0.67022 0.0
C894 C 0.38233 0.90437 0.66757 0.0
C895 C 0.36677 0.83119 0.63373 0.0
C896 C 0.39673 0.85849 0.61308 0.0
C897 C 0.43547 0.92272 0.61048 0.0
C898 C 0.44375 0.95937 0.62805 0.0
C899 C 0.405 0.89515 0.63014 0.0
C900 C 0.42185 0.96786 0.66664 0.0
C901 C 0.39132 0.94066 0.68602 0.0
H902 H 0.19146 0.29692 0.62028 0.0
H903 H 0.25979 0.38302 0.72258 0.0
H904 H 0.2292 0.42599 0.68645 0.0
H905 H 0.18229 0.43962 0.6269 0.0
H906 H 0.10919 0.3533 0.52898 0.0
H907 H 0.14177 0.31036 0.56199 0.0
C908 C 0.19987 0.32519 0.63424 0.0
C909 C 0.22852 0.33673 0.67388 0.0
C910 C 0.18089 0.34981 0.61425 0.0
C911 C 0.2382 0.37332 0.69211 0.0
C912 C 0.22058 0.39798 0.67145 0.0
C913 C 0.17332 0.41138 0.61273 0.0
C914 C 0.14308 0.39995 0.57528 0.0
C915 C 0.19172 0.3866 0.63275 0.0
C916 C 0.13198 0.36303 0.55797 0.0
C917 C 0.15086 0.33843 0.57675 0.0
H918 H 0.73123 0.16827 0.66609 0.0
H919 H 0.6487 0.22542 0.62941 0.0
H920 H 0.60537 0.16956 0.58817 0.0
H921 H 0.58909 0.10336 0.5674 0.0
H922 H 0.67308 0.04699 0.59952 0.0
H923 H 0.71773 0.10359 0.63752 0.0
C924 C 0.70398 0.16859 0.64843 0.0
C925 C 0.69308 0.20089 0.65113 0.0
C926 C 0.67932 0.1364 0.62443 0.0
C927 C 0.6578 0.20097 0.62786 0.0
C928 C 0.6329 0.16896 0.60451 0.0
C929 C 0.61723 0.10352 0.58258 0.0
C930 C 0.62757 0.07089 0.58134 0.0
C931 C 0.64302 0.13633 0.60344 0.0
C932 C 0.66441 0.0717 0.60021 0.0
C933 C 0.6899 0.10403 0.62202 0.0
H934 H 0.86279 0.33083 0.3465 0.0
H935 H 0.77553 0.34279 0.44619 0.0
H936 H 0.82166 0.39766 0.48609 0.0
H937 H 0.8837 0.44712 0.48355 0.0
H938 H 0.96952 0.43545 0.381 0.0
H939 H 0.9268 0.376 0.35078 0.0
C940 C 0.85406 0.34492 0.37773 0.0
C941 C 0.81563 0.33318 0.39275 0.0
C942 C 0.88015 0.37717 0.39898 0.0
C943 C 0.80491 0.35152 0.43363 0.0
C944 C 0.83114 0.38312 0.45608 0.0
C945 C 0.89302 0.43148 0.45471 0.0
C946 C 0.92935 0.44608 0.43375 0.0
C947 C 0.86827 0.39713 0.43742 0.0
C948 C 0.9415 0.42507 0.39738 0.0
C949 C 0.91714 0.39098 0.38011 0.0
H950 H 0.65146 0.78585 0.39891 0.0
H951 H 0.76071 0.87152 0.40733 0.0
H952 H 0.72877 0.91579 0.43592 0.0
H953 H 0.66834 0.93176 0.44656 0.0
H954 H 0.55915 0.84594 0.43394 0.0
H955 H 0.59233 0.80031 0.41913 0.0
C956 C 0.66839 0.81399 0.40827 0.0
C957 C 0.70822 0.82553 0.4005 0.0
C958 C 0.64966 0.83952 0.42291 0.0
C959 C 0.72987 0.86207 0.41274 0.0
C960 C 0.71159 0.88748 0.42863 0.0
C961 C 0.65197 0.90302 0.44107 0.0
C962 C 0.61139 0.89231 0.44039 0.0
C963 C 0.67126 0.87683 0.43179 0.0
C964 C 0.59043 0.85495 0.43364 0.0
C965 C 0.60937 0.82878 0.42543 0.0
H966 H 0.21513 0.6429 0.28459 0.0
H967 H 0.22525 0.7117 0.41864 0.0
H968 H 0.17081 0.66511 0.45421 0.0
H969 H 0.12048 0.60482 0.44616 0.0
H970 H 0.10987 0.53855 0.3092 0.0
H971 H 0.1637 0.5853 0.27461 0.0
C972 C 0.20585 0.64766 0.32188 0.0
C973 C 0.22462 0.68035 0.34943 0.0
C974 C 0.17381 0.62176 0.34077 0.0
C975 C 0.21154 0.68643 0.39713 0.0
C976 C 0.18023 0.66003 0.41714 0.0
C977 C 0.1294 0.601 0.40831 0.0
C978 C 0.11116 0.56829 0.38019 0.0
C979 C 0.16091 0.62773 0.38897 0.0
C980 C 0.12341 0.5635 0.33151 0.0
C981 C 0.15439 0.59002 0.31192 0.0
H982 H 0.41452 0.24534 0.38879 0.0
H983 H 0.29916 0.18288 0.4269 0.0
H984 H 0.32295 0.13339 0.45639 0.0
H985 H 0.37471 0.10463 0.45989 0.0
H986 H 0.49048 0.16712 0.42395 0.0
H987 H 0.46827 0.21977 0.40394 0.0
C988 C 0.39483 0.22129 0.40475 0.0
C989 C 0.35515 0.21734 0.40499 0.0
C990 C 0.40852 0.19256 0.42032 0.0
C991 C 0.32985 0.18626 0.426 0.0
C992 C 0.34332 0.15782 0.44233 0.0
C993 C 0.39497 0.12976 0.44746 0.0
C994 C 0.43381 0.13185 0.44176 0.0
C995 C 0.38223 0.16002 0.4374 0.0
C996 C 0.46023 0.16486 0.42758 0.0
C997 C 0.44762 0.19494 0.41647 0.0
H998 H 0.65764 0.77778 0.61047 0.0
H999 H 0.76719 0.85033 0.567 0.0
H1000 H 0.73652 0.89687 0.54553 0.0
H1001 H 0.68099 0.91984 0.55051 0.0
H1002 H 0.57034 0.84748 0.59013 0.0
H1003 H 0.59924 0.79795 0.60285 0.0
C1004 C 0.6745 0.80334 0.59481 0.0
C1005 C 0.71467 0.81095 0.59103 0.0
C1006 C 0.65682 0.83034 0.58363 0.0
C1007 C 0.73625 0.84404 0.57054 0.0
C1008 C 0.71884 0.87081 0.55887 0.0
C1009 C 0.66318 0.89325 0.56211 0.0
C1010 C 0.62391 0.88751 0.5709 0.0
C1011 C 0.67961 0.86484 0.56756 0.0
C1012 C 0.60085 0.85263 0.58411 0.0
C1013 C 0.61729 0.82431 0.59099 0.0
H1014 H 0.70437 0.15313 0.3203 0.0
H1015 H 0.64593 0.22144 0.39404 0.0
H1016 H 0.59737 0.16653 0.42349 0.0
H1017 H 0.57391 0.09946 0.43051 0.0
H1018 H 0.63124 0.03167 0.3525 0.0
H1019 H 0.67773 0.08638 0.32097 0.0
C1020 C 0.68108 0.1559 0.34315 0.0
C1021 C 0.67894 0.19089 0.35643 0.0
C1022 C 0.65308 0.12451 0.35834 0.0
C1023 C 0.64815 0.19453 0.38433 0.0
C1024 C 0.62051 0.16326 0.40086 0.0
C1025 C 0.59636 0.09666 0.40618 0.0
C1026 C 0.59946 0.06166 0.39419 0.0
C1027 C 0.62295 0.12816 0.38836 0.0
C1028 C 0.62825 0.05831 0.36209 0.0
C1029 C 0.655 0.08955 0.34446 0.0
H1030 H 0.88185 0.71397 0.29882 0.0
H1031 H 0.77584 0.66394 0.37302 0.0
H1032 H 0.80616 0.62343 0.417 0.0
H1033 H 0.86243 0.60054 0.43281 0.0
H1034 H 0.9711 0.65583 0.36813 0.0
H1035 H 0.94047 0.69541 0.32213 0.0
C1036 C 0.86537 0.69417 0.32461 0.0
C1037 C 0.82615 0.69178 0.33179 0.0
C1038 C 0.88364 0.67173 0.35158 0.0
C1039 C 0.80577 0.66641 0.36633 0.0
C1040 C 0.82319 0.64313 0.39154 0.0
C1041 C 0.87965 0.6216 0.40927 0.0
C1042 C 0.91931 0.62498 0.40423 0.0
C1043 C 0.86206 0.64533 0.38434 0.0
C1044 C 0.94079 0.65255 0.37323 0.0
C1045 C 0.92312 0.67516 0.34665 0.0
H1046 H 0.33687 0.857 0.31546 0.0
H1047 H 0.40513 0.79278 0.37834 0.0
H1048 H 0.44323 0.8461 0.43022 0.0
H1049 H 0.45826 0.91165 0.45537 0.0
H1050 H 0.38534 0.97359 0.39881 0.0
H1051 H 0.34656 0.91986 0.34823 0.0
C1052 C 0.35918 0.85421 0.34169 0.0
C1053 C 0.36773 0.82074 0.34353 0.0
C1054 C 0.37998 0.88456 0.37255 0.0
C1055 C 0.39785 0.81815 0.37635 0.0
C1056 C 0.41961 0.84863 0.40602 0.0
C1057 C 0.43362 0.91321 0.4323 0.0
C1058 C 0.42481 0.94657 0.43036 0.0
C1059 C 0.4111 0.88205 0.40412 0.0
C1060 C 0.39257 0.94819 0.40094 0.0
C1061 C 0.3706 0.91757 0.37181 0.0
H1062 H 0.19939 0.35212 0.2752 0.0
H1063 H 0.25877 0.33958 0.41381 0.0
H1064 H 0.22277 0.3738 0.4605 0.0
H1065 H 0.17198 0.4064 0.4626 0.0
H1066 H 0.11177 0.41517 0.32278 0.0
H1067 H 0.15037 0.38416 0.27684 0.0
C1068 C 0.20483 0.35694 0.3156 0.0
C1069 C 0.23222 0.34303 0.34047 0.0
C1070 C 0.18359 0.37634 0.34247 0.0
C1071 C 0.23815 0.34975 0.39314 0.0
C1072 C 0.21743 0.36945 0.42005 0.0
C1073 C 0.16765 0.40187 0.42206 0.0
C1074 C 0.1387 0.41347 0.39646 0.0
C1075 C 0.18977 0.38285 0.39528 0.0
C1076 C 0.13348 0.40666 0.34384 0.0
C1077 C 0.15565 0.38879 0.31728 0.0
H1078 H 0.31032 0.15496 0.60705 0.0
H1079 H 0.40116 0.25716 0.59479 0.0
H1080 H 0.44607 0.22389 0.57118 0.0
H1081 H 0.46186 0.16573 0.56717 0.0
H1082 H 0.37083 0.06344 0.57613 0.0
H1083 H 0.32362 0.09668 0.58815 0.0
C1084 C 0.33968 0.16992 0.59794 0.0
C1085 C 0.35268 0.20836 0.60363 0.0
C1086 C 0.36553 0.15059 0.58515 0.0
C1087 C 0.3906 0.22751 0.5911 0.0
C1088 C 0.41641 0.20851 0.57809 0.0
C1089 C 0.43163 0.15083 0.57157 0.0
C1090 C 0.41983 0.11237 0.57231 0.0
C1091 C 0.40464 0.17007 0.57742 0.0
C1092 C 0.3805 0.09314 0.57623 0.0
C1093 C 0.35356 0.11211 0.58302 0.0
H1094 H 0.87206 0.32687 0.63503 0.0
H1095 H 0.78701 0.38318 0.65795 0.0
H1096 H 0.83271 0.44036 0.63218 0.0
H1097 H 0.89778 0.47506 0.60865 0.0
H1098 H 0.98305 0.41925 0.58503 0.0
H1099 H 0.93631 0.36111 0.6067 0.0
C1100 C 0.86315 0.35144 0.63341 0.0
C1101 C 0.8261 0.3507 0.64856 0.0
C1102 C 0.88993 0.38447 0.61985 0.0
C1103 C 0.8153 0.38294 0.64654 0.0
C1104 C 0.84154 0.41574 0.63225 0.0
C1105 C 0.90642 0.45031 0.60902 0.0
C1106 C 0.94419 0.45165 0.59655 0.0
C1107 C 0.87922 0.41699 0.62024 0.0
C1108 C 0.95439 0.41905 0.59544 0.0
C1109 C 0.92759 0.38579 0.60737 0.0
H1110 H 0.24799 0.68187 0.60845 0.0
H1111 H 0.16182 0.70228 0.7031 0.0
H1112 H 0.11237 0.65005 0.66232 0.0
H1113 H 0.09532 0.59474 0.60628 0.0
H1114 H 0.18281 0.57303 0.51507 0.0
H1115 H 0.22992 0.62955 0.54796 0.0
C1116 C 0.21826 0.67529 0.6196 0.0
C1117 C 0.20866 0.69572 0.65907 0.0
C1118 C 0.19031 0.64458 0.59714 0.0
C1119 C 0.16998 0.68691 0.67291 0.0
C1120 C 0.14175 0.65689 0.64984 0.0
C1121 C 0.12461 0.60249 0.5933 0.0
C1122 C 0.13562 0.57924 0.5589 0.0
C1123 C 0.15185 0.63485 0.613 0.0
C1124 C 0.17367 0.58996 0.54223 0.0
C1125 C 0.20065 0.6224 0.56087 0.0
loop_
_geom_bond_atom_site_label_1
_geom_bond_atom_site_label_2
_geom_bond_distance
_geom_bond_site_symmetry_2
_ccdc_geom_bond_type
Dy0 O4 2.398 . S
Dy0 O5 2.491 . S
Dy0 O6 2.403 . S
Dy0 O7 2.664 . S
Dy0 O11 2.326 . S
Dy0 O15 2.310 . S
Dy0 O16 2.351 . S
C1 O12 1.185 . S
C1 O13 1.355 . S
C2 O4 1.185 . S
C2 O5 1.355 . S
Dy3 O7 2.310 . S
Dy3 O10 2.351 . S
Dy3 O12 2.398 . S
Dy3 O13 2.491 . S
Dy3 O14 2.403 . S
Dy3 O15 2.664 . S
Dy3 O17 2.326 . S
O4 Dy0 2.398 . S
O4 C2 1.185 . S
O5 Dy0 2.491 . S
O5 C2 1.355 . S
O6 Dy0 2.403 . S
O6 C8 1.254 . S
O7 Dy0 2.664 . S
O7 Dy3 2.310 . S
O7 C8 1.268 . S
C8 O6 1.254 . S
C8 O7 1.268 . S
C9 O14 1.254 . S
C9 O15 1.268 . S
O10 Dy3 2.351 . S
O10 C18 1.249 . S
O11 Dy0 2.326 . S
O11 C18 1.267 . S
O12 C1 1.185 . S
O12 Dy3 2.398 . S
O13 C1 1.355 . S
O13 Dy3 2.491 . S
O14 Dy3 2.403 . S
O14 C9 1.254 . S
O15 Dy0 2.310 . S
O15 Dy3 2.664 . S
O15 C9 1.268 . S
O16 Dy0 2.351 . S
O16 C19 1.249 . S
O17 Dy3 2.326 . S
O17 C19 1.267 . S
C18 O10 1.249 . S
C18 O11 1.267 . S
C19 O16 1.249 . S
C19 O17 1.267 . S
Dy20 O24 2.398 . S
Dy20 O25 2.491 . S
Dy20 O26 2.403 . S
Dy20 O27 2.664 . S
Dy20 O31 2.326 . S
Dy20 O35 2.310 . S
Dy20 O36 2.351 . S
C21 O32 1.185 . S
C21 O33 1.355 . S
C22 O24 1.185 . S
C22 O25 1.355 . S
Dy23 O27 2.310 . S
Dy23 O30 2.351 . S
Dy23 O32 2.398 . S
Dy23 O33 2.491 . S
Dy23 O34 2.403 . S
Dy23 O35 2.664 . S
Dy23 O37 2.326 . S
O24 Dy20 2.398 . S
O24 C22 1.185 . S
O25 Dy20 2.491 . S
O25 C22 1.355 . S
O26 Dy20 2.403 . S
O26 C28 1.254 . S
O27 Dy20 2.664 . S
O27 Dy23 2.310 . S
O27 C28 1.268 . S
C28 O26 1.254 . S
C28 O27 1.268 . S
C29 O34 1.254 . S
C29 O35 1.268 . S
O30 Dy23 2.351 . S
O30 C38 1.249 . S
O31 Dy20 2.326 . S
O31 C38 1.267 . S
O32 C21 1.185 . S
O32 Dy23 2.398 . S
O33 C21 1.355 . S
O33 Dy23 2.491 . S
O34 Dy23 2.403 . S
O34 C29 1.254 . S
O35 Dy20 2.310 . S
O35 Dy23 2.664 . S
O35 C29 1.268 . S
O36 Dy20 2.351 . S
O36 C39 1.249 . S
O37 Dy23 2.326 . S
O37 C39 1.267 . S
C38 O30 1.249 . S
C38 O31 1.267 . S
C39 O36 1.249 . S
C39 O37 1.267 . S
Dy40 O44 2.398 . S
Dy40 O45 2.491 . S
Dy40 O46 2.403 . S
Dy40 O47 2.664 . S
Dy40 O51 2.326 . S
Dy40 O55 2.310 . S
Dy40 O56 2.351 . S
C41 O52 1.185 . S
C41 O53 1.355 . S
C42 O44 1.185 . S
C42 O45 1.355 . S
Dy43 O47 2.310 . S
Dy43 O50 2.351 . S
Dy43 O52 2.398 . S
Dy43 O53 2.491 . S
Dy43 O54 2.403 . S
Dy43 O55 2.664 . S
Dy43 O57 2.326 . S
O44 Dy40 2.398 . S
O44 C42 1.185 . S
O45 Dy40 2.491 . S
O45 C42 1.355 . S
O46 Dy40 2.403 . S
O46 C48 1.254 . S
O47 Dy40 2.664 . S
O47 Dy43 2.310 . S
O47 C48 1.268 . S
C48 O46 1.254 . S
C48 O47 1.268 . S
C49 O54 1.254 . S
C49 O55 1.268 . S
O50 Dy43 2.351 . S
O50 C58 1.249 . S
O51 Dy40 2.326 . S
O51 C58 1.267 . S
O52 C41 1.185 . S
O52 Dy43 2.398 . S
O53 C41 1.355 . S
O53 Dy43 2.491 . S
O54 Dy43 2.403 . S
O54 C49 1.254 . S
O55 Dy40 2.310 . S
O55 Dy43 2.664 . S
O55 C49 1.268 . S
O56 Dy40 2.351 . S
O56 C59 1.249 . S
O57 Dy43 2.326 . S
O57 C59 1.267 . S
C58 O50 1.249 . S
C58 O51 1.267 . S
C59 O56 1.249 . S
C59 O57 1.267 . S
Dy60 O64 2.398 . S
Dy60 O65 2.491 . S
Dy60 O66 2.403 . S
Dy60 O67 2.664 . S
Dy60 O71 2.326 . S
Dy60 O75 2.310 . S
Dy60 O76 2.351 . S
C61 O72 1.185 . S
C61 O73 1.355 . S
C62 O64 1.185 . S
C62 O65 1.355 . S
Dy63 O67 2.310 . S
Dy63 O70 2.351 . S
Dy63 O72 2.398 . S
Dy63 O73 2.491 . S
Dy63 O74 2.403 . S
Dy63 O75 2.664 . S
Dy63 O77 2.326 . S
O64 Dy60 2.398 . S
O64 C62 1.185 . S
O65 Dy60 2.491 . S
O65 C62 1.355 . S
O66 Dy60 2.403 . S
O66 C68 1.254 . S
O67 Dy60 2.664 . S
O67 Dy63 2.310 . S
O67 C68 1.268 . S
C68 O66 1.254 . S
C68 O67 1.268 . S
C69 O74 1.254 . S
C69 O75 1.268 . S
O70 Dy63 2.351 . S
O70 C78 1.249 . S
O71 Dy60 2.326 . S
O71 C78 1.267 . S
O72 C61 1.185 . S
O72 Dy63 2.398 . S
O73 C61 1.355 . S
O73 Dy63 2.491 . S
O74 Dy63 2.403 . S
O74 C69 1.254 . S
O75 Dy60 2.310 . S
O75 Dy63 2.664 . S
O75 C69 1.268 . S
O76 Dy60 2.351 . S
O76 C79 1.249 . S
O77 Dy63 2.326 . S
O77 C79 1.267 . S
C78 O70 1.249 . S
C78 O71 1.267 . S
C79 O76 1.249 . S
C79 O77 1.267 . S
Dy80 O84 2.398 . S
Dy80 O85 2.491 . S
Dy80 O86 2.403 . S
Dy80 O87 2.664 . S
Dy80 O91 2.326 . S
Dy80 O95 2.310 . S
Dy80 O96 2.351 . S
C81 O92 1.185 . S
C81 O93 1.355 . S
C82 O84 1.185 . S
C82 O85 1.355 . S
Dy83 O87 2.310 . S
Dy83 O90 2.351 . S
Dy83 O92 2.398 . S
Dy83 O93 2.491 . S
Dy83 O94 2.403 . S
Dy83 O95 2.664 . S
Dy83 O97 2.326 . S
O84 Dy80 2.398 . S
O84 C82 1.185 . S
O85 Dy80 2.491 . S
O85 C82 1.355 . S
O86 Dy80 2.403 . S
O86 C88 1.254 . S
O87 Dy80 2.664 . S
O87 Dy83 2.310 . S
O87 C88 1.268 . S
C88 O86 1.254 . S
C88 O87 1.268 . S
C89 O94 1.254 . S
C89 O95 1.268 . S
O90 Dy83 2.351 . S
O90 C98 1.249 . S
O91 Dy80 2.326 . S
O91 C98 1.267 . S
O92 C81 1.185 . S
O92 Dy83 2.398 . S
O93 C81 1.355 . S
O93 Dy83 2.491 . S
O94 Dy83 2.403 . S
O94 C89 1.254 . S
O95 Dy80 2.310 . S
O95 Dy83 2.664 . S
O95 C89 1.268 . S
O96 Dy80 2.351 . S
O96 C99 1.249 . S
O97 Dy83 2.326 . S
O97 C99 1.267 . S
C98 O90 1.249 . S
C98 O91 1.267 . S
C99 O96 1.249 . S
C99 O97 1.267 . S
Dy100 O104 2.398 . S
Dy100 O105 2.491 . S
Dy100 O106 2.403 . S
Dy100 O107 2.664 . S
Dy100 O111 2.326 . S
Dy100 O115 2.310 . S
Dy100 O116 2.351 . S
C101 O112 1.185 . S
C101 O113 1.355 . S
C102 O104 1.185 . S
C102 O105 1.355 . S
Dy103 O107 2.310 . S
Dy103 O110 2.351 . S
Dy103 O112 2.398 . S
Dy103 O113 2.491 . S
Dy103 O114 2.403 . S
Dy103 O115 2.664 . S
Dy103 O117 2.326 . S
O104 Dy100 2.398 . S
O104 C102 1.185 . S
O105 Dy100 2.491 . S
O105 C102 1.355 . S
O106 Dy100 2.403 . S
O106 C108 1.254 . S
O107 Dy100 2.664 . S
O107 Dy103 2.310 . S
O107 C108 1.268 . S
C108 O106 1.254 . S
C108 O107 1.268 . S
C109 O114 1.254 . S
C109 O115 1.268 . S
O110 Dy103 2.351 . S
O110 C118 1.249 . S
O111 Dy100 2.326 . S
O111 C118 1.267 . S
O112 C101 1.185 . S
O112 Dy103 2.398 . S
O113 C101 1.355 . S
O113 Dy103 2.491 . S
O114 Dy103 2.403 . S
O114 C109 1.254 . S
O115 Dy100 2.310 . S
O115 Dy103 2.664 . S
O115 C109 1.268 . S
O116 Dy100 2.351 . S
O116 C119 1.249 . S
O117 Dy103 2.326 . S
O117 C119 1.267 . S
C118 O110 1.249 . S
C118 O111 1.267 . S
C119 O116 1.249 . S
C119 O117 1.267 . S
Dy120 O124 2.398 . S
Dy120 O125 2.491 . S
Dy120 O126 2.403 . S
Dy120 O127 2.664 . S
Dy120 O131 2.326 . S
Dy120 O135 2.310 . S
Dy120 O136 2.351 . S
C121 O132 1.185 . S
C121 O133 1.355 . S
C122 O124 1.185 . S
C122 O125 1.355 . S
Dy123 O127 2.310 . S
Dy123 O130 2.351 . S
Dy123 O132 2.398 . S
Dy123 O133 2.491 . S
Dy123 O134 2.403 . S
Dy123 O135 2.664 . S
Dy123 O137 2.326 . S
O124 Dy120 2.398 . S
O124 C122 1.185 . S
O125 Dy120 2.491 . S
O125 C122 1.355 . S
O126 Dy120 2.403 . S
O126 C128 1.254 . S
O127 Dy120 2.664 . S
O127 Dy123 2.310 . S
O127 C128 1.268 . S
C128 O126 1.254 . S
C128 O127 1.268 . S
C129 O134 1.254 . S
C129 O135 1.268 . S
O130 Dy123 2.351 . S
O130 C138 1.249 . S
O131 Dy120 2.326 . S
O131 C138 1.267 . S
O132 C121 1.185 . S
O132 Dy123 2.398 . S
O133 C121 1.355 . S
O133 Dy123 2.491 . S
O134 Dy123 2.403 . S
O134 C129 1.254 . S
O135 Dy120 2.310 . S
O135 Dy123 2.664 . S
O135 C129 1.268 . S
O136 Dy120 2.351 . S
O136 C139 1.249 . S
O137 Dy123 2.326 . S
O137 C139 1.267 . S
C138 O130 1.249 . S
C138 O131 1.267 . S
C139 O136 1.249 . S
C139 O137 1.267 . S
Dy140 O144 2.398 . S
Dy140 O145 2.491 . S
Dy140 O146 2.403 . S
Dy140 O147 2.664 . S
Dy140 O151 2.326 . S
Dy140 O155 2.310 . S
Dy140 O156 2.351 . S
C141 O152 1.185 . S
C141 O153 1.355 . S
C142 O144 1.185 . S
C142 O145 1.355 . S
Dy143 O147 2.310 . S
Dy143 O150 2.351 . S
Dy143 O152 2.398 . S
Dy143 O153 2.491 . S
Dy143 O154 2.403 . S
Dy143 O155 2.664 . S
Dy143 O157 2.326 . S
O144 Dy140 2.398 . S
O144 C142 1.185 . S
O145 Dy140 2.491 . S
O145 C142 1.355 . S
O146 Dy140 2.403 . S
O146 C148 1.254 . S
O147 Dy140 2.664 . S
O147 Dy143 2.310 . S
O147 C148 1.268 . S
C148 O146 1.254 . S
C148 O147 1.268 . S
C149 O154 1.254 . S
C149 O155 1.268 . S
O150 Dy143 2.351 . S
O150 C158 1.249 . S
O151 Dy140 2.326 . S
O151 C158 1.267 . S
O152 C141 1.185 . S
O152 Dy143 2.398 . S
O153 C141 1.355 . S
O153 Dy143 2.491 . S
O154 Dy143 2.403 . S
O154 C149 1.254 . S
O155 Dy140 2.310 . S
O155 Dy143 2.664 . S
O155 C149 1.268 . S
O156 Dy140 2.351 . S
O156 C159 1.249 . S
O157 Dy143 2.326 . S
O157 C159 1.267 . S
C158 O150 1.249 . S
C158 O151 1.267 . S
C159 O156 1.249 . S
C159 O157 1.267 . S
Co160 O163 2.042 . S
Co160 O170 2.264 . S
Co160 O189 2.286 . S
Co160 O190 2.069 . S
Co160 O192 2.015 1_455 S
Co161 O163 2.122 . S
Co161 O169 2.073 . S
Co161 O170 2.327 . S
Co161 O171 1.976 1_455 S
Co162 O163 2.086 1_545 S
Co162 O165 2.088 1_455 S
Co162 O172 2.108 1_445 S
Co162 O173 2.147 . S
Co162 O177 2.114 . S
Co162 O191 2.140 1_445 S
O163 Co160 2.042 . S
O163 Co161 2.122 . S
O163 Co162 2.086 1_565 S
O163 H164 0.980 . S
H164 O163 0.980 . S
O165 Co162 2.088 1_655 S
O165 Co166 2.042 . S
O165 Co167 2.122 . S
O165 H168 0.980 . S
Co166 O165 2.042 . S
Co166 O174 2.286 . S
Co166 O175 2.069 . S
Co166 O176 2.015 1_655 S
Co166 O179 2.264 . S
Co167 O165 2.122 . S
Co167 O178 1.976 1_655 S
Co167 O179 2.327 . S
Co167 O180 2.073 . S
H168 O165 0.980 . S
O169 Co161 2.073 . S
O169 C184 1.245 . S
O170 Co160 2.264 . S
O170 Co161 2.327 . S
O170 C184 1.257 . S
O171 Co161 1.976 1_655 S
O171 C183 1.251 . S
O172 Co162 2.108 1_665 S
O172 C183 1.274 . S
O173 Co162 2.147 . S
O173 C186 1.246 . S
O174 Co166 2.286 . S
O174 C185 1.259 . S
O175 Co166 2.069 . S
O175 C185 1.289 . S
O176 Co166 2.015 1_455 S
O176 C186 1.257 . S
O177 Co162 2.114 . S
O177 C187 1.274 . S
O178 Co167 1.976 1_455 S
O178 C187 1.251 . S
O179 Co166 2.264 . S
O179 Co167 2.327 . S
O179 C188 1.257 . S
O180 Co167 2.073 . S
O180 C188 1.245 . S
C181 O189 1.259 . S
C181 O190 1.289 . S
C182 O191 1.246 . S
C182 O192 1.257 . S
C183 O171 1.251 . S
C183 O172 1.274 . S
C184 O169 1.245 . S
C184 O170 1.257 . S
C185 O174 1.259 . S
C185 O175 1.289 . S
C186 O173 1.246 . S
C186 O176 1.257 . S
C187 O177 1.274 . S
C187 O178 1.251 . S
C188 O179 1.257 . S
C188 O180 1.245 . S
O189 Co160 2.286 . S
O189 C181 1.259 . S
O190 Co160 2.069 . S
O190 C181 1.289 . S
O191 Co162 2.140 1_665 S
O191 C182 1.246 . S
O192 Co160 2.015 1_655 S
O192 C182 1.257 . S
Co193 O196 2.042 1_556 S
Co193 O203 2.264 1_556 S
Co193 O222 2.286 . S
Co193 O223 2.069 . S
Co193 O225 2.015 . S
Co194 O196 2.122 . S
Co194 O202 2.073 . S
Co194 O203 2.327 . S
Co194 O204 1.976 . S
Co195 O196 2.083 1_545 S
Co195 O198 2.091 1_554 S
Co195 O205 2.110 1_545 S
Co195 O206 2.146 . S
Co195 O210 2.112 1_554 S
Co195 O224 2.141 1_544 S
O196 Co193 2.042 1_554 S
O196 Co194 2.122 . S
O196 Co195 2.083 1_565 S
O196 H197 0.980 . S
H197 O196 0.980 . S
O198 Co195 2.091 1_556 S
O198 Co199 2.042 1_556 S
O198 Co200 2.122 . S
O198 H201 0.980 . S
Co199 O198 2.042 1_554 S
Co199 O207 2.286 . S
Co199 O208 2.069 . S
Co199 O209 2.015 . S
Co199 O212 2.264 1_554 S
Co200 O198 2.122 . S
Co200 O211 1.976 . S
Co200 O212 2.327 . S
Co200 O213 2.073 . S
H201 O198 0.980 . S
O202 Co194 2.073 . S
O202 C217 1.245 . S
O203 Co193 2.264 1_554 S
O203 Co194 2.327 . S
O203 C217 1.257 . S
O204 Co194 1.976 . S
O204 C216 1.251 . S
O205 Co195 2.110 1_565 S
O205 C216 1.274 . S
O206 Co195 2.146 . S
O206 C219 1.246 . S
O207 Co199 2.286 . S
O207 C218 1.259 . S
O208 Co199 2.069 . S
O208 C218 1.289 . S
O209 Co199 2.015 . S
O209 C219 1.257 . S
O210 Co195 2.112 1_556 S
O210 C220 1.274 . S
O211 Co200 1.976 . S
O211 C220 1.251 . S
O212 Co199 2.264 1_556 S
O212 Co200 2.327 . S
O212 C221 1.257 . S
O213 Co200 2.073 . S
O213 C221 1.245 . S
C214 O222 1.259 . S
C214 O223 1.289 . S
C215 O224 1.246 . S
C215 O225 1.257 . S
C216 O204 1.251 . S
C216 O205 1.274 . S
C217 O202 1.245 . S
C217 O203 1.257 . S
C218 O207 1.259 . S
C218 O208 1.289 . S
C219 O206 1.246 . S
C219 O209 1.257 . S
C220 O210 1.274 . S
C220 O211 1.251 . S
C221 O212 1.257 . S
C221 O213 1.245 . S
O222 Co193 2.286 . S
O222 C214 1.259 . S
O223 Co193 2.069 . S
O223 C214 1.289 . S
O224 Co195 2.141 1_566 S
O224 C215 1.246 . S
O225 Co193 2.015 . S
O225 C215 1.257 . S
Co226 O229 2.042 1_556 S
Co226 O236 2.264 1_556 S
Co226 O255 2.286 . S
Co226 O256 2.069 . S
Co226 O258 2.015 1_455 S
Co227 O229 2.122 . S
Co227 O235 2.073 . S
Co227 O236 2.327 . S
Co227 O237 1.976 1_455 S
Co228 O229 2.090 . S
Co228 O231 2.084 1_454 S
Co228 O238 2.109 1_455 S
Co228 O239 2.145 . S
Co228 O243 2.113 1_554 S
Co228 O257 2.142 1_454 S
O229 Co226 2.042 1_554 S
O229 Co227 2.122 . S
O229 Co228 2.090 . S
O229 H230 0.980 . S
H230 O229 0.980 . S
O231 Co228 2.084 1_656 S
O231 Co232 2.042 1_556 S
O231 Co233 2.122 . S
O231 H234 0.980 . S
Co232 O231 2.042 1_554 S
Co232 O240 2.286 . S
Co232 O241 2.069 . S
Co232 O242 2.015 1_655 S
Co232 O245 2.264 1_554 S
Co233 O231 2.122 . S
Co233 O244 1.976 1_655 S
Co233 O245 2.327 . S
Co233 O246 2.073 . S
H234 O231 0.980 . S
O235 Co227 2.073 . S
O235 C250 1.245 . S
O236 Co226 2.264 1_554 S
O236 Co227 2.327 . S
O236 C250 1.257 . S
O237 Co227 1.976 1_655 S
O237 C249 1.251 . S
O238 Co228 2.109 1_655 S
O238 C249 1.274 . S
O239 Co228 2.145 . S
O239 C252 1.246 . S
O240 Co232 2.286 . S
O240 C251 1.259 . S
O241 Co232 2.069 . S
O241 C251 1.289 . S
O242 Co232 2.015 1_455 S
O242 C252 1.257 . S
O243 Co228 2.113 1_556 S
O243 C253 1.274 . S
O244 Co233 1.976 1_455 S
O244 C253 1.251 . S
O245 Co232 2.264 1_556 S
O245 Co233 2.327 . S
O245 C254 1.257 . S
O246 Co233 2.073 . S
O246 C254 1.245 . S
C247 O255 1.259 . S
C247 O256 1.289 . S
C248 O257 1.246 . S
C248 O258 1.257 . S
C249 O237 1.251 . S
C249 O238 1.274 . S
C250 O235 1.245 . S
C250 O236 1.257 . S
C251 O240 1.259 . S
C251 O241 1.289 . S
C252 O239 1.246 . S
C252 O242 1.257 . S
C253 O243 1.274 . S
C253 O244 1.251 . S
C254 O245 1.257 . S
C254 O246 1.245 . S
O255 Co226 2.286 . S
O255 C247 1.259 . S
O256 Co226 2.069 . S
O256 C247 1.289 . S
O257 Co228 2.142 1_656 S
O257 C248 1.246 . S
O258 Co226 2.015 1_655 S
O258 C248 1.257 . S
Co259 O262 2.042 1_556 S
Co259 O269 2.264 1_556 S
Co259 O288 2.286 . S
Co259 O289 2.069 . S
Co259 O291 2.015 . S
Co260 O262 2.122 . S
Co260 O268 2.073 . S
Co260 O269 2.327 . S
Co260 O270 1.976 . S
Co261 O262 2.087 . S
Co261 O264 2.087 1_554 S
Co261 O271 2.111 . S
Co261 O272 2.143 . S
Co261 O276 2.111 1_554 S
Co261 O290 2.143 1_554 S
O262 Co259 2.042 1_554 S
O262 Co260 2.122 . S
O262 Co261 2.087 . S
O262 H263 0.980 . S
H263 O262 0.980 . S
O264 Co261 2.087 1_556 S
O264 Co265 2.042 1_556 S
O264 Co266 2.122 . S
O264 H267 0.980 . S
Co265 O264 2.042 1_554 S
Co265 O273 2.286 . S
Co265 O274 2.069 . S
Co265 O275 2.015 . S
Co265 O278 2.264 1_554 S
Co266 O264 2.122 . S
Co266 O277 1.976 . S
Co266 O278 2.327 . S
Co266 O279 2.073 . S
H267 O264 0.980 . S
O268 Co260 2.073 . S
O268 C283 1.245 . S
O269 Co259 2.264 1_554 S
O269 Co260 2.327 . S
O269 C283 1.257 . S
O270 Co260 1.976 . S
O270 C282 1.251 . S
O271 Co261 2.111 . S
O271 C282 1.274 . S
O272 Co261 2.143 . S
O272 C285 1.246 . S
O273 Co265 2.286 . S
O273 C284 1.259 . S
O274 Co265 2.069 . S
O274 C284 1.289 . S
O275 Co265 2.015 . S
O275 C285 1.257 . S
O276 Co261 2.111 1_556 S
O276 C286 1.274 . S
O277 Co266 1.976 . S
O277 C286 1.251 . S
O278 Co265 2.264 1_556 S
O278 Co266 2.327 . S
O278 C287 1.257 . S
O279 Co266 2.073 . S
O279 C287 1.245 . S
C280 O288 1.259 . S
C280 O289 1.289 . S
C281 O290 1.246 . S
C281 O291 1.257 . S
C282 O270 1.251 . S
C282 O271 1.274 . S
C283 O268 1.245 . S
C283 O269 1.257 . S
C284 O273 1.259 . S
C284 O274 1.289 . S
C285 O272 1.246 . S
C285 O275 1.257 . S
C286 O276 1.274 . S
C286 O277 1.251 . S
C287 O278 1.257 . S
C287 O279 1.245 . S
O288 Co259 2.286 . S
O288 C280 1.259 . S
O289 Co259 2.069 . S
O289 C280 1.289 . S
O290 Co261 2.143 1_556 S
O290 C281 1.246 . S
O291 Co259 2.015 . S
O291 C281 1.257 . S
Co292 O295 2.042 . S
Co292 O302 2.264 . S
Co292 O321 2.286 . S
Co292 O322 2.069 . S
Co292 O324 2.015 . S
Co293 O295 2.122 . S
Co293 O301 2.073 . S
Co293 O302 2.327 . S
Co293 O303 1.976 . S
Co294 O295 2.090 . S
Co294 O297 2.084 1_455 S
Co294 O304 2.112 . S
Co294 O305 2.142 1_455 S
Co294 O309 2.110 1_455 S
Co294 O323 2.145 . S
O295 Co292 2.042 . S
O295 Co293 2.122 . S
O295 Co294 2.090 . S
O295 H296 0.980 . S
H296 O295 0.980 . S
O297 Co294 2.084 1_655 S
O297 Co298 2.042 . S
O297 Co299 2.122 . S
O297 H300 0.980 . S
Co298 O297 2.042 . S
Co298 O306 2.286 . S
Co298 O307 2.069 . S
Co298 O308 2.015 . S
Co298 O311 2.264 . S
Co299 O297 2.122 . S
Co299 O310 1.976 . S
Co299 O311 2.327 . S
Co299 O312 2.073 . S
H300 O297 0.980 . S
O301 Co293 2.073 . S
O301 C316 1.245 . S
O302 Co292 2.264 . S
O302 Co293 2.327 . S
O302 C316 1.257 . S
O303 Co293 1.976 . S
O303 C315 1.251 . S
O304 Co294 2.112 . S
O304 C315 1.274 . S
O305 Co294 2.142 1_655 S
O305 C318 1.246 . S
O306 Co298 2.286 . S
O306 C317 1.259 . S
O307 Co298 2.069 . S
O307 C317 1.289 . S
O308 Co298 2.015 . S
O308 C318 1.257 . S
O309 Co294 2.110 1_655 S
O309 C319 1.274 . S
O310 Co299 1.976 . S
O310 C319 1.251 . S
O311 Co298 2.264 . S
O311 Co299 2.327 . S
O311 C320 1.257 . S
O312 Co299 2.073 . S
O312 C320 1.245 . S
C313 O321 1.259 . S
C313 O322 1.289 . S
C314 O323 1.246 . S
C314 O324 1.257 . S
C315 O303 1.251 . S
C315 O304 1.274 . S
C316 O301 1.245 . S
C316 O302 1.257 . S
C317 O306 1.259 . S
C317 O307 1.289 . S
C318 O305 1.246 . S
C318 O308 1.257 . S
C319 O309 1.274 . S
C319 O310 1.251 . S
C320 O311 1.257 . S
C320 O312 1.245 . S
O321 Co292 2.286 . S
O321 C313 1.259 . S
O322 Co292 2.069 . S
O322 C313 1.289 . S
O323 Co294 2.145 . S
O323 C314 1.246 . S
O324 Co292 2.015 . S
O324 C314 1.257 . S
Co325 O328 2.042 . S
Co325 O335 2.264 . S
Co325 O354 2.286 . S
Co325 O355 2.069 . S
Co325 O357 2.015 1_565 S
Co326 O328 2.122 . S
Co326 O334 2.073 . S
Co326 O335 2.327 . S
Co326 O336 1.976 1_565 S
Co327 O328 2.083 1_545 S
Co327 O330 2.091 . S
Co327 O337 2.114 . S
Co327 O338 2.142 1_545 S
Co327 O342 2.109 1_545 S
Co327 O356 2.145 . S
O328 Co325 2.042 . S
O328 Co326 2.122 . S
O328 Co327 2.083 1_565 S
O328 H329 0.980 . S
H329 O328 0.980 . S
O330 Co327 2.091 . S
O330 Co331 2.042 . S
O330 Co332 2.122 . S
O330 H333 0.980 . S
Co331 O330 2.042 . S
Co331 O339 2.286 . S
Co331 O340 2.069 . S
Co331 O341 2.015 1_545 S
Co331 O344 2.264 . S
Co332 O330 2.122 . S
Co332 O343 1.976 1_545 S
Co332 O344 2.327 . S
Co332 O345 2.073 . S
H333 O330 0.980 . S
O334 Co326 2.073 . S
O334 C349 1.245 . S
O335 Co325 2.264 . S
O335 Co326 2.327 . S
O335 C349 1.257 . S
O336 Co326 1.976 1_545 S
O336 C348 1.251 . S
O337 Co327 2.114 . S
O337 C348 1.274 . S
O338 Co327 2.142 1_565 S
O338 C351 1.246 . S
O339 Co331 2.286 . S
O339 C350 1.259 . S
O340 Co331 2.069 . S
O340 C350 1.289 . S
O341 Co331 2.015 1_565 S
O341 C351 1.257 . S
O342 Co327 2.109 1_565 S
O342 C352 1.274 . S
O343 Co332 1.976 1_565 S
O343 C352 1.251 . S
O344 Co331 2.264 . S
O344 Co332 2.327 . S
O344 C353 1.257 . S
O345 Co332 2.073 . S
O345 C353 1.245 . S
C346 O354 1.259 . S
C346 O355 1.289 . S
C347 O356 1.246 . S
C347 O357 1.257 . S
C348 O336 1.251 . S
C348 O337 1.274 . S
C349 O334 1.245 . S
C349 O335 1.257 . S
C350 O339 1.259 . S
C350 O340 1.289 . S
C351 O338 1.246 . S
C351 O341 1.257 . S
C352 O342 1.274 . S
C352 O343 1.251 . S
C353 O344 1.257 . S
C353 O345 1.245 . S
O354 Co325 2.286 . S
O354 C346 1.259 . S
O355 Co325 2.069 . S
O355 C346 1.289 . S
O356 Co327 2.145 . S
O356 C347 1.246 . S
O357 Co325 2.015 1_545 S
O357 C347 1.257 . S
H358 C364 0.930 . S
H359 C367 0.930 . S
H360 C368 0.930 . S
H361 C369 0.930 . S
H362 C372 0.930 . S
H363 C373 0.930 . S
C364 H358 0.930 . S
C364 C365 1.355 . S
C364 C366 1.415 . S
C365 C364 1.355 . S
C365 C367 1.419 . S
C366 C364 1.415 . S
C366 C371 1.425 . S
C366 C373 1.409 . S
C367 H359 0.930 . S
C367 C365 1.419 . S
C367 C368 1.362 . S
C368 H360 0.930 . S
C368 C367 1.362 . S
C368 C371 1.409 . S
C369 H361 0.930 . S
C369 C370 1.355 . S
C369 C371 1.415 . S
C370 C369 1.355 . S
C370 C372 1.419 . S
C371 C366 1.425 . S
C371 C368 1.409 . S
C371 C369 1.415 . S
C372 H362 0.930 . S
C372 C370 1.419 . S
C372 C373 1.362 . S
C373 H363 0.930 . S
C373 C366 1.409 . S
C373 C372 1.362 . S
H374 C380 0.930 . S
H375 C383 0.930 . S
H376 C384 0.930 . S
H377 C385 0.930 . S
H378 C388 0.930 . S
H379 C389 0.930 . S
C380 H374 0.930 . S
C380 C381 1.355 . S
C380 C382 1.415 . S
C381 C380 1.355 . S
C381 C383 1.419 . S
C382 C380 1.415 . S
C382 C387 1.425 . S
C382 C389 1.409 . S
C383 H375 0.930 . S
C383 C381 1.419 . S
C383 C384 1.362 . S
C384 H376 0.930 . S
C384 C383 1.362 . S
C384 C387 1.409 . S
C385 H377 0.930 . S
C385 C386 1.355 . S
C385 C387 1.415 . S
C386 C385 1.355 . S
C386 C388 1.419 . S
C387 C382 1.425 . S
C387 C384 1.409 . S
C387 C385 1.415 . S
C388 H378 0.930 . S
C388 C386 1.419 . S
C388 C389 1.362 . S
C389 H379 0.930 . S
C389 C382 1.409 . S
C389 C388 1.362 . S
H390 C396 0.930 . S
H391 C399 0.930 . S
H392 C400 0.930 . S
H393 C401 0.930 . S
H394 C404 0.930 . S
H395 C405 0.930 . S
C396 H390 0.930 . S
C396 C397 1.355 . S
C396 C398 1.415 . S
C397 C396 1.355 . S
C397 C399 1.419 . S
C398 C396 1.415 . S
C398 C403 1.425 . S
C398 C405 1.409 . S
C399 H391 0.930 . S
C399 C397 1.419 . S
C399 C400 1.362 . S
C400 H392 0.930 . S
C400 C399 1.362 . S
C400 C403 1.409 . S
C401 H393 0.930 . S
C401 C402 1.355 . S
C401 C403 1.415 . S
C402 C401 1.355 . S
C402 C404 1.419 . S
C403 C398 1.425 . S
C403 C400 1.409 . S
C403 C401 1.415 . S
C404 H394 0.930 . S
C404 C402 1.419 . S
C404 C405 1.362 . S
C405 H395 0.930 . S
C405 C398 1.409 . S
C405 C404 1.362 . S
H406 C412 0.930 . S
H407 C415 0.930 . S
H408 C416 0.930 . S
H409 C417 0.930 . S
H410 C420 0.930 . S
H411 C421 0.930 . S
C412 H406 0.930 . S
C412 C413 1.355 . S
C412 C414 1.415 . S
C413 C412 1.355 . S
C413 C415 1.419 . S
C414 C412 1.415 . S
C414 C419 1.425 . S
C414 C421 1.409 . S
C415 H407 0.930 . S
C415 C413 1.419 . S
C415 C416 1.362 . S
C416 H408 0.930 . S
C416 C415 1.362 . S
C416 C419 1.409 . S
C417 H409 0.930 . S
C417 C418 1.355 . S
C417 C419 1.415 . S
C418 C417 1.355 . S
C418 C420 1.419 . S
C419 C414 1.425 . S
C419 C416 1.409 . S
C419 C417 1.415 . S
C420 H410 0.930 . S
C420 C418 1.419 . S
C420 C421 1.362 . S
C421 H411 0.930 . S
C421 C414 1.409 . S
C421 C420 1.362 . S
H422 C428 0.930 . S
H423 C431 0.930 . S
H424 C432 0.930 . S
H425 C433 0.930 . S
H426 C436 0.930 . S
H427 C437 0.930 . S
C428 H422 0.930 . S
C428 C429 1.355 . S
C428 C430 1.415 . S
C429 C428 1.355 . S
C429 C431 1.419 . S
C430 C428 1.415 . S
C430 C435 1.425 . S
C430 C437 1.409 . S
C431 H423 0.930 . S
C431 C429 1.419 . S
C431 C432 1.362 . S
C432 H424 0.930 . S
C432 C431 1.362 . S
C432 C435 1.409 . S
C433 H425 0.930 . S
C433 C434 1.355 . S
C433 C435 1.415 . S
C434 C433 1.355 . S
C434 C436 1.419 . S
C435 C430 1.425 . S
C435 C432 1.409 . S
C435 C433 1.415 . S
C436 H426 0.930 . S
C436 C434 1.419 . S
C436 C437 1.362 . S
C437 H427 0.930 . S
C437 C430 1.409 . S
C437 C436 1.362 . S
H438 C444 0.930 . S
H439 C447 0.930 . S
H440 C448 0.930 . S
H441 C449 0.930 . S
H442 C452 0.930 . S
H443 C453 0.930 . S
C444 H438 0.930 . S
C444 C445 1.355 . S
C444 C446 1.415 . S
C445 C444 1.355 . S
C445 C447 1.419 . S
C446 C444 1.415 . S
C446 C451 1.425 . S
C446 C453 1.409 . S
C447 H439 0.930 . S
C447 C445 1.419 . S
C447 C448 1.362 . S
C448 H440 0.930 . S
C448 C447 1.362 . S
C448 C451 1.409 . S
C449 H441 0.930 . S
C449 C450 1.355 . S
C449 C451 1.415 . S
C450 C449 1.355 . S
C450 C452 1.419 . S
C451 C446 1.425 . S
C451 C448 1.409 . S
C451 C449 1.415 . S
C452 H442 0.930 . S
C452 C450 1.419 . S
C452 C453 1.362 . S
C453 H443 0.930 . S
C453 C446 1.409 . S
C453 C452 1.362 . S
H454 C460 0.930 . S
H455 C463 0.930 . S
H456 C464 0.930 . S
H457 C465 0.930 . S
H458 C468 0.930 . S
H459 C469 0.930 . S
C460 H454 0.930 . S
C460 C461 1.355 . S
C460 C462 1.415 . S
C461 C460 1.355 . S
C461 C463 1.419 . S
C462 C460 1.415 . S
C462 C467 1.425 . S
C462 C469 1.409 . S
C463 H455 0.930 . S
C463 C461 1.419 . S
C463 C464 1.362 . S
C464 H456 0.930 . S
C464 C463 1.362 . S
C464 C467 1.409 . S
C465 H457 0.930 . S
C465 C466 1.355 . S
C465 C467 1.415 . S
C466 C465 1.355 . S
C466 C468 1.419 . S
C467 C462 1.425 . S
C467 C464 1.409 . S
C467 C465 1.415 . S
C468 H458 0.930 . S
C468 C466 1.419 . S
C468 C469 1.362 . S
C469 H459 0.930 . S
C469 C462 1.409 . S
C469 C468 1.362 . S
H470 C476 0.930 . S
H471 C479 0.930 . S
H472 C480 0.930 . S
H473 C481 0.930 . S
H474 C484 0.930 . S
H475 C485 0.930 . S
C476 H470 0.930 . S
C476 C477 1.355 . S
C476 C478 1.415 . S
C477 C476 1.355 . S
C477 C479 1.419 . S
C478 C476 1.415 . S
C478 C483 1.425 . S
C478 C485 1.409 . S
C479 H471 0.930 . S
C479 C477 1.419 . S
C479 C480 1.362 . S
C480 H472 0.930 . S
C480 C479 1.362 . S
C480 C483 1.409 . S
C481 H473 0.930 . S
C481 C482 1.355 . S
C481 C483 1.415 . S
C482 C481 1.355 . S
C482 C484 1.419 . S
C483 C478 1.425 . S
C483 C480 1.409 . S
C483 C481 1.415 . S
C484 H474 0.930 . S
C484 C482 1.419 . S
C484 C485 1.362 . S
C485 H475 0.930 . S
C485 C478 1.409 . S
C485 C484 1.362 . S
H486 C492 0.930 . S
H487 C495 0.930 . S
H488 C496 0.930 . S
H489 C497 0.930 . S
H490 C500 0.930 . S
H491 C501 0.930 . S
C492 H486 0.930 . S
C492 C493 1.355 . S
C492 C494 1.415 . S
C493 C492 1.355 . S
C493 C495 1.419 . S
C494 C492 1.415 . S
C494 C499 1.425 . S
C494 C501 1.409 . S
C495 H487 0.930 . S
C495 C493 1.419 . S
C495 C496 1.362 . S
C496 H488 0.930 . S
C496 C495 1.362 . S
C496 C499 1.409 . S
C497 H489 0.930 . S
C497 C498 1.355 . S
C497 C499 1.415 . S
C498 C497 1.355 . S
C498 C500 1.419 . S
C499 C494 1.425 . S
C499 C496 1.409 . S
C499 C497 1.415 . S
C500 H490 0.930 . S
C500 C498 1.419 . S
C500 C501 1.362 . S
C501 H491 0.930 . S
C501 C494 1.409 . S
C501 C500 1.362 . S
H502 C508 0.930 . S
H503 C511 0.930 . S
H504 C512 0.930 . S
H505 C513 0.930 . S
H506 C516 0.930 . S
H507 C517 0.930 . S
C508 H502 0.930 . S
C508 C509 1.355 . S
C508 C510 1.415 . S
C509 C508 1.355 . S
C509 C511 1.419 . S
C510 C508 1.415 . S
C510 C515 1.425 . S
C510 C517 1.409 . S
C511 H503 0.930 . S
C511 C509 1.419 . S
C511 C512 1.362 . S
C512 H504 0.930 . S
C512 C511 1.362 . S
C512 C515 1.409 . S
C513 H505 0.930 . S
C513 C514 1.355 . S
C513 C515 1.415 . S
C514 C513 1.355 . S
C514 C516 1.419 . S
C515 C510 1.425 . S
C515 C512 1.409 . S
C515 C513 1.415 . S
C516 H506 0.930 . S
C516 C514 1.419 . S
C516 C517 1.362 . S
C517 H507 0.930 . S
C517 C510 1.409 . S
C517 C516 1.362 . S
H518 C524 0.930 . S
H519 C527 0.930 . S
H520 C528 0.930 . S
H521 C529 0.930 . S
H522 C532 0.930 . S
H523 C533 0.930 . S
C524 H518 0.930 . S
C524 C525 1.355 . S
C524 C526 1.415 . S
C525 C524 1.355 . S
C525 C527 1.419 . S
C526 C524 1.415 . S
C526 C531 1.425 . S
C526 C533 1.409 . S
C527 H519 0.930 . S
C527 C525 1.419 . S
C527 C528 1.362 . S
C528 H520 0.930 . S
C528 C527 1.362 . S
C528 C531 1.409 . S
C529 H521 0.930 . S
C529 C530 1.355 . S
C529 C531 1.415 . S
C530 C529 1.355 . S
C530 C532 1.419 . S
C531 C526 1.425 . S
C531 C528 1.409 . S
C531 C529 1.415 . S
C532 H522 0.930 . S
C532 C530 1.419 . S
C532 C533 1.362 . S
C533 H523 0.930 . S
C533 C526 1.409 . S
C533 C532 1.362 . S
H534 C540 0.930 . S
H535 C543 0.930 . S
H536 C544 0.930 . S
H537 C545 0.930 . S
H538 C548 0.930 1_556 S
H539 C549 0.930 . S
C540 H534 0.930 . S
C540 C541 1.355 . S
C540 C542 1.415 . S
C541 C540 1.355 . S
C541 C543 1.419 . S
C542 C540 1.415 . S
C542 C547 1.425 . S
C542 C549 1.409 . S
C543 H535 0.930 . S
C543 C541 1.419 . S
C543 C544 1.362 . S
C544 H536 0.930 . S
C544 C543 1.362 . S
C544 C547 1.409 . S
C545 H537 0.930 . S
C545 C546 1.355 . S
C545 C547 1.415 . S
C546 C545 1.355 . S
C546 C548 1.419 . S
C547 C542 1.425 . S
C547 C544 1.409 . S
C547 C545 1.415 . S
C548 H538 0.930 1_554 S
C548 C546 1.419 . S
C548 C549 1.362 . S
C549 H539 0.930 . S
C549 C542 1.409 . S
C549 C548 1.362 . S
H550 C556 0.930 . S
H551 C559 0.930 . S
H552 C560 0.930 . S
H553 C561 0.930 . S
H554 C564 0.930 . S
H555 C565 0.930 . S
C556 H550 0.930 . S
C556 C557 1.355 . S
C556 C558 1.415 . S
C557 C556 1.355 . S
C557 C559 1.419 . S
C558 C556 1.415 . S
C558 C563 1.425 . S
C558 C565 1.409 . S
C559 H551 0.930 . S
C559 C557 1.419 . S
C559 C560 1.362 . S
C560 H552 0.930 . S
C560 C559 1.362 . S
C560 C563 1.409 . S
C561 H553 0.930 . S
C561 C562 1.355 . S
C561 C563 1.415 . S
C562 C561 1.355 . S
C562 C564 1.419 . S
C563 C558 1.425 . S
C563 C560 1.409 . S
C563 C561 1.415 . S
C564 H554 0.930 . S
C564 C562 1.419 . S
C564 C565 1.362 . S
C565 H555 0.930 . S
C565 C558 1.409 . S
C565 C564 1.362 . S
H566 C572 0.930 . S
H567 C575 0.930 . S
H568 C576 0.930 . S
H569 C577 0.930 . S
H570 C580 0.930 . S
H571 C581 0.930 . S
C572 H566 0.930 . S
C572 C573 1.355 . S
C572 C574 1.415 . S
C573 C572 1.355 . S
C573 C575 1.419 . S
C574 C572 1.415 . S
C574 C579 1.425 . S
C574 C581 1.409 . S
C575 H567 0.930 . S
C575 C573 1.419 . S
C575 C576 1.362 . S
C576 H568 0.930 . S
C576 C575 1.362 . S
C576 C579 1.409 . S
C577 H569 0.930 . S
C577 C578 1.355 . S
C577 C579 1.415 . S
C578 C577 1.355 . S
C578 C580 1.419 . S
C579 C574 1.425 . S
C579 C576 1.409 . S
C579 C577 1.415 . S
C580 H570 0.930 . S
C580 C578 1.419 . S
C580 C581 1.362 . S
C581 H571 0.930 . S
C581 C574 1.409 . S
C581 C580 1.362 . S
H582 C588 0.930 . S
H583 C591 0.930 . S
H584 C592 0.930 . S
H585 C593 0.930 . S
H586 C596 0.930 . S
H587 C597 0.930 . S
C588 H582 0.930 . S
C588 C589 1.355 . S
C588 C590 1.415 . S
C589 C588 1.355 . S
C589 C591 1.419 . S
C590 C588 1.415 . S
C590 C595 1.425 . S
C590 C597 1.409 . S
C591 H583 0.930 . S
C591 C589 1.419 . S
C591 C592 1.362 . S
C592 H584 0.930 . S
C592 C591 1.362 . S
C592 C595 1.409 . S
C593 H585 0.930 . S
C593 C594 1.355 . S
C593 C595 1.415 . S
C594 C593 1.355 . S
C594 C596 1.419 . S
C595 C590 1.425 . S
C595 C592 1.409 . S
C595 C593 1.415 . S
C596 H586 0.930 . S
C596 C594 1.419 . S
C596 C597 1.362 . S
C597 H587 0.930 . S
C597 C590 1.409 . S
C597 C596 1.362 . S
H598 C604 0.930 . S
H599 C607 0.930 . S
H600 C608 0.930 . S
H601 C609 0.930 . S
H602 C612 0.930 . S
H603 C613 0.930 . S
C604 H598 0.930 . S
C604 C605 1.355 . S
C604 C606 1.415 . S
C605 C604 1.355 . S
C605 C607 1.419 . S
C606 C604 1.415 . S
C606 C611 1.425 . S
C606 C613 1.409 . S
C607 H599 0.930 . S
C607 C605 1.419 . S
C607 C608 1.362 . S
C608 H600 0.930 . S
C608 C607 1.362 . S
C608 C611 1.409 . S
C609 H601 0.930 . S
C609 C610 1.355 . S
C609 C611 1.415 . S
C610 C609 1.355 . S
C610 C612 1.419 . S
C611 C606 1.425 . S
C611 C608 1.409 . S
C611 C609 1.415 . S
C612 H602 0.930 . S
C612 C610 1.419 . S
C612 C613 1.362 . S
C613 H603 0.930 . S
C613 C606 1.409 . S
C613 C612 1.362 . S
H614 C620 0.930 . S
H615 C623 0.930 . S
H616 C624 0.930 . S
H617 C625 0.930 . S
H618 C628 0.930 . S
H619 C629 0.930 . S
C620 H614 0.930 . S
C620 C621 1.355 . S
C620 C622 1.415 . S
C621 C620 1.355 . S
C621 C623 1.419 . S
C622 C620 1.415 . S
C622 C627 1.425 . S
C622 C629 1.409 . S
C623 H615 0.930 . S
C623 C621 1.419 . S
C623 C624 1.362 . S
C624 H616 0.930 . S
C624 C623 1.362 . S
C624 C627 1.409 . S
C625 H617 0.930 . S
C625 C626 1.355 . S
C625 C627 1.415 . S
C626 C625 1.355 . S
C626 C628 1.419 . S
C627 C622 1.425 . S
C627 C624 1.409 . S
C627 C625 1.415 . S
C628 H618 0.930 . S
C628 C626 1.419 . S
C628 C629 1.362 . S
C629 H619 0.930 . S
C629 C622 1.409 . S
C629 C628 1.362 . S
H630 C636 0.930 . S
H631 C639 0.930 . S
H632 C640 0.930 . S
H633 C641 0.930 . S
H634 C644 0.930 . S
H635 C645 0.930 . S
C636 H630 0.930 . S
C636 C637 1.355 . S
C636 C638 1.415 . S
C637 C636 1.355 . S
C637 C639 1.419 . S
C638 C636 1.415 . S
C638 C643 1.425 . S
C638 C645 1.409 . S
C639 H631 0.930 . S
C639 C637 1.419 . S
C639 C640 1.362 . S
C640 H632 0.930 . S
C640 C639 1.362 . S
C640 C643 1.409 . S
C641 H633 0.930 . S
C641 C642 1.355 . S
C641 C643 1.415 . S
C642 C641 1.355 . S
C642 C644 1.419 . S
C643 C638 1.425 . S
C643 C640 1.409 . S
C643 C641 1.415 . S
C644 H634 0.930 . S
C644 C642 1.419 . S
C644 C645 1.362 . S
C645 H635 0.930 . S
C645 C638 1.409 . S
C645 C644 1.362 . S
H646 C652 0.930 . S
H647 C655 0.930 . S
H648 C656 0.930 . S
H649 C657 0.930 . S
H650 C660 0.930 . S
H651 C661 0.930 . S
C652 H646 0.930 . S
C652 C653 1.355 . S
C652 C654 1.415 . S
C653 C652 1.355 . S
C653 C655 1.419 . S
C654 C652 1.415 . S
C654 C659 1.425 . S
C654 C661 1.409 . S
C655 H647 0.930 . S
C655 C653 1.419 . S
C655 C656 1.362 . S
C656 H648 0.930 . S
C656 C655 1.362 . S
C656 C659 1.409 . S
C657 H649 0.930 . S
C657 C658 1.355 . S
C657 C659 1.415 . S
C658 C657 1.355 . S
C658 C660 1.419 . S
C659 C654 1.425 . S
C659 C656 1.409 . S
C659 C657 1.415 . S
C660 H650 0.930 . S
C660 C658 1.419 . S
C660 C661 1.362 . S
C661 H651 0.930 . S
C661 C654 1.409 . S
C661 C660 1.362 . S
H662 C668 0.930 . S
H663 C671 0.930 . S
H664 C672 0.930 . S
H665 C673 0.930 . S
H666 C676 0.930 . S
H667 C677 0.930 . S
C668 H662 0.930 . S
C668 C669 1.355 . S
C668 C670 1.415 . S
C669 C668 1.355 . S
C669 C671 1.419 . S
C670 C668 1.415 . S
C670 C675 1.425 . S
C670 C677 1.409 . S
C671 H663 0.930 . S
C671 C669 1.419 . S
C671 C672 1.362 . S
C672 H664 0.930 . S
C672 C671 1.362 . S
C672 C675 1.409 . S
C673 H665 0.930 . S
C673 C674 1.355 . S
C673 C675 1.415 . S
C674 C673 1.355 . S
C674 C676 1.419 . S
C675 C670 1.425 . S
C675 C672 1.409 . S
C675 C673 1.415 . S
C676 H666 0.930 . S
C676 C674 1.419 . S
C676 C677 1.362 . S
C677 H667 0.930 . S
C677 C670 1.409 . S
C677 C676 1.362 . S
H678 C684 0.930 . S
H679 C687 0.930 . S
H680 C688 0.930 . S
H681 C689 0.930 . S
H682 C692 0.930 . S
H683 C693 0.930 . S
C684 H678 0.930 . S
C684 C685 1.355 . S
C684 C686 1.415 . S
C685 C684 1.355 . S
C685 C687 1.419 . S
C686 C684 1.415 . S
C686 C691 1.425 . S
C686 C693 1.409 . S
C687 H679 0.930 . S
C687 C685 1.419 . S
C687 C688 1.362 . S
C688 H680 0.930 . S
C688 C687 1.362 . S
C688 C691 1.409 . S
C689 H681 0.930 . S
C689 C690 1.355 . S
C689 C691 1.415 . S
C690 C689 1.355 . S
C690 C692 1.419 . S
C691 C686 1.425 . S
C691 C688 1.409 . S
C691 C689 1.415 . S
C692 H682 0.930 . S
C692 C690 1.419 . S
C692 C693 1.362 . S
C693 H683 0.930 . S
C693 C686 1.409 . S
C693 C692 1.362 . S
H694 C700 0.930 . S
H695 C703 0.930 . S
H696 C704 0.930 . S
H697 C705 0.930 . S
H698 C708 0.930 . S
H699 C709 0.930 . S
C700 H694 0.930 . S
C700 C701 1.355 . S
C700 C702 1.415 . S
C701 C700 1.355 . S
C701 C703 1.419 . S
C702 C700 1.415 . S
C702 C707 1.425 . S
C702 C709 1.409 . S
C703 H695 0.930 . S
C703 C701 1.419 . S
C703 C704 1.362 . S
C704 H696 0.930 . S
C704 C703 1.362 . S
C704 C707 1.409 . S
C705 H697 0.930 . S
C705 C706 1.355 . S
C705 C707 1.415 . S
C706 C705 1.355 . S
C706 C708 1.419 . S
C707 C702 1.425 . S
C707 C704 1.409 . S
C707 C705 1.415 . S
C708 H698 0.930 . S
C708 C706 1.419 . S
C708 C709 1.362 . S
C709 H699 0.930 . S
C709 C702 1.409 . S
C709 C708 1.362 . S
H710 C716 0.930 . S
H711 C719 0.930 . S
H712 C720 0.930 . S
H713 C721 0.930 . S
H714 C724 0.930 . S
H715 C725 0.930 . S
C716 H710 0.930 . S
C716 C717 1.355 . S
C716 C718 1.415 . S
C717 C716 1.355 . S
C717 C719 1.419 . S
C718 C716 1.415 . S
C718 C723 1.425 . S
C718 C725 1.409 . S
C719 H711 0.930 . S
C719 C717 1.419 . S
C719 C720 1.362 . S
C720 H712 0.930 . S
C720 C719 1.362 . S
C720 C723 1.409 . S
C721 H713 0.930 . S
C721 C722 1.355 . S
C721 C723 1.415 . S
C722 C721 1.355 . S
C722 C724 1.419 . S
C723 C718 1.425 . S
C723 C720 1.409 . S
C723 C721 1.415 . S
C724 H714 0.930 . S
C724 C722 1.419 . S
C724 C725 1.362 . S
C725 H715 0.930 . S
C725 C718 1.409 . S
C725 C724 1.362 . S
H726 C732 0.930 . S
H727 C735 0.930 . S
H728 C736 0.930 . S
H729 C737 0.930 . S
H730 C740 0.930 . S
H731 C741 0.930 . S
C732 H726 0.930 . S
C732 C733 1.355 . S
C732 C734 1.415 . S
C733 C732 1.355 . S
C733 C735 1.419 . S
C734 C732 1.415 . S
C734 C739 1.425 . S
C734 C741 1.409 . S
C735 H727 0.930 . S
C735 C733 1.419 . S
C735 C736 1.362 . S
C736 H728 0.930 . S
C736 C735 1.362 . S
C736 C739 1.409 . S
C737 H729 0.930 . S
C737 C738 1.355 . S
C737 C739 1.415 . S
C738 C737 1.355 . S
C738 C740 1.419 . S
C739 C734 1.425 . S
C739 C736 1.409 . S
C739 C737 1.415 . S
C740 H730 0.930 . S
C740 C738 1.419 . S
C740 C741 1.362 . S
C741 H731 0.930 . S
C741 C734 1.409 . S
C741 C740 1.362 . S
H742 C748 0.930 . S
H743 C751 0.930 . S
H744 C752 0.930 . S
H745 C753 0.930 . S
H746 C756 0.930 . S
H747 C757 0.930 . S
C748 H742 0.930 . S
C748 C749 1.355 . S
C748 C750 1.415 . S
C749 C748 1.355 . S
C749 C751 1.419 . S
C750 C748 1.415 . S
C750 C755 1.425 . S
C750 C757 1.409 . S
C751 H743 0.930 . S
C751 C749 1.419 . S
C751 C752 1.362 . S
C752 H744 0.930 . S
C752 C751 1.362 . S
C752 C755 1.409 . S
C753 H745 0.930 . S
C753 C754 1.355 . S
C753 C755 1.415 . S
C754 C753 1.355 . S
C754 C756 1.419 . S
C755 C750 1.425 . S
C755 C752 1.409 . S
C755 C753 1.415 . S
C756 H746 0.930 . S
C756 C754 1.419 . S
C756 C757 1.362 . S
C757 H747 0.930 . S
C757 C750 1.409 . S
C757 C756 1.362 . S
H758 C764 0.930 . S
H759 C767 0.930 . S
H760 C768 0.930 . S
H761 C769 0.930 . S
H762 C772 0.930 . S
H763 C773 0.930 . S
C764 H758 0.930 . S
C764 C765 1.355 . S
C764 C766 1.415 . S
C765 C764 1.355 . S
C765 C767 1.419 . S
C766 C764 1.415 . S
C766 C771 1.425 . S
C766 C773 1.409 . S
C767 H759 0.930 . S
C767 C765 1.419 . S
C767 C768 1.362 . S
C768 H760 0.930 . S
C768 C767 1.362 . S
C768 C771 1.409 . S
C769 H761 0.930 . S
C769 C770 1.355 . S
C769 C771 1.415 . S
C770 C769 1.355 . S
C770 C772 1.419 . S
C771 C766 1.425 . S
C771 C768 1.409 . S
C771 C769 1.415 . S
C772 H762 0.930 . S
C772 C770 1.419 . S
C772 C773 1.362 . S
C773 H763 0.930 . S
C773 C766 1.409 . S
C773 C772 1.362 . S
H774 C780 0.930 . S
H775 C783 0.930 . S
H776 C784 0.930 . S
H777 C785 0.930 . S
H778 C788 0.930 . S
H779 C789 0.930 . S
C780 H774 0.930 . S
C780 C781 1.355 . S
C780 C782 1.415 . S
C781 C780 1.355 . S
C781 C783 1.419 . S
C782 C780 1.415 . S
C782 C787 1.425 . S
C782 C789 1.409 . S
C783 H775 0.930 . S
C783 C781 1.419 . S
C783 C784 1.362 . S
C784 H776 0.930 . S
C784 C783 1.362 . S
C784 C787 1.409 . S
C785 H777 0.930 . S
C785 C786 1.355 . S
C785 C787 1.415 . S
C786 C785 1.355 . S
C786 C788 1.419 . S
C787 C782 1.425 . S
C787 C784 1.409 . S
C787 C785 1.415 . S
C788 H778 0.930 . S
C788 C786 1.419 . S
C788 C789 1.362 . S
C789 H779 0.930 . S
C789 C782 1.409 . S
C789 C788 1.362 . S
H790 C796 0.930 . S
H791 C799 0.930 . S
H792 C800 0.930 . S
H793 C801 0.930 . S
H794 C804 0.930 . S
H795 C805 0.930 . S
C796 H790 0.930 . S
C796 C797 1.355 . S
C796 C798 1.415 . S
C797 C796 1.355 . S
C797 C799 1.419 . S
C798 C796 1.415 . S
C798 C803 1.425 . S
C798 C805 1.409 . S
C799 H791 0.930 . S
C799 C797 1.419 . S
C799 C800 1.362 . S
C800 H792 0.930 . S
C800 C799 1.362 . S
C800 C803 1.409 . S
C801 H793 0.930 . S
C801 C802 1.355 . S
C801 C803 1.415 . S
C802 C801 1.355 . S
C802 C804 1.419 . S
C803 C798 1.425 . S
C803 C800 1.409 . S
C803 C801 1.415 . S
C804 H794 0.930 . S
C804 C802 1.419 . S
C804 C805 1.362 . S
C805 H795 0.930 . S
C805 C798 1.409 . S
C805 C804 1.362 . S
H806 C812 0.930 . S
H807 C815 0.930 . S
H808 C816 0.930 . S
H809 C817 0.930 . S
H810 C820 0.930 . S
H811 C821 0.930 . S
C812 H806 0.930 . S
C812 C813 1.355 . S
C812 C814 1.415 . S
C813 C812 1.355 . S
C813 C815 1.419 . S
C814 C812 1.415 . S
C814 C819 1.425 . S
C814 C821 1.409 . S
C815 H807 0.930 . S
C815 C813 1.419 . S
C815 C816 1.362 . S
C816 H808 0.930 . S
C816 C815 1.362 . S
C816 C819 1.409 . S
C817 H809 0.930 . S
C817 C818 1.355 . S
C817 C819 1.415 . S
C818 C817 1.355 . S
C818 C820 1.419 . S
C819 C814 1.425 . S
C819 C816 1.409 . S
C819 C817 1.415 . S
C820 H810 0.930 . S
C820 C818 1.419 . S
C820 C821 1.362 . S
C821 H811 0.930 . S
C821 C814 1.409 . S
C821 C820 1.362 . S
H822 C828 0.930 . S
H823 C831 0.930 . S
H824 C832 0.930 . S
H825 C833 0.930 . S
H826 C836 0.930 . S
H827 C837 0.930 . S
C828 H822 0.930 . S
C828 C829 1.355 . S
C828 C830 1.415 . S
C829 C828 1.355 . S
C829 C831 1.419 . S
C830 C828 1.415 . S
C830 C835 1.425 . S
C830 C837 1.409 . S
C831 H823 0.930 . S
C831 C829 1.419 . S
C831 C832 1.362 . S
C832 H824 0.930 . S
C832 C831 1.362 . S
C832 C835 1.409 . S
C833 H825 0.930 . S
C833 C834 1.355 . S
C833 C835 1.415 . S
C834 C833 1.355 . S
C834 C836 1.419 . S
C835 C830 1.425 . S
C835 C832 1.409 . S
C835 C833 1.415 . S
C836 H826 0.930 . S
C836 C834 1.419 . S
C836 C837 1.362 . S
C837 H827 0.930 . S
C837 C830 1.409 . S
C837 C836 1.362 . S
H838 C844 0.930 . S
H839 C847 0.930 . S
H840 C848 0.930 . S
H841 C849 0.930 . S
H842 C852 0.930 . S
H843 C853 0.930 . S
C844 H838 0.930 . S
C844 C845 1.355 . S
C844 C846 1.415 . S
C845 C844 1.355 . S
C845 C847 1.419 . S
C846 C844 1.415 . S
C846 C851 1.425 . S
C846 C853 1.409 . S
C847 H839 0.930 . S
C847 C845 1.419 . S
C847 C848 1.362 . S
C848 H840 0.930 . S
C848 C847 1.362 . S
C848 C851 1.409 . S
C849 H841 0.930 . S
C849 C850 1.355 . S
C849 C851 1.415 . S
C850 C849 1.355 . S
C850 C852 1.419 . S
C851 C846 1.425 . S
C851 C848 1.409 . S
C851 C849 1.415 . S
C852 H842 0.930 . S
C852 C850 1.419 . S
C852 C853 1.362 . S
C853 H843 0.930 . S
C853 C846 1.409 . S
C853 C852 1.362 . S
H854 C860 0.930 . S
H855 C863 0.930 . S
H856 C864 0.930 . S
H857 C865 0.930 . S
H858 C868 0.930 . S
H859 C869 0.930 . S
C860 H854 0.930 . S
C860 C861 1.355 . S
C860 C862 1.415 . S
C861 C860 1.355 . S
C861 C863 1.419 . S
C862 C860 1.415 . S
C862 C867 1.425 . S
C862 C869 1.409 . S
C863 H855 0.930 . S
C863 C861 1.419 . S
C863 C864 1.362 . S
C864 H856 0.930 . S
C864 C863 1.362 . S
C864 C867 1.409 . S
C865 H857 0.930 . S
C865 C866 1.355 . S
C865 C867 1.415 . S
C866 C865 1.355 . S
C866 C868 1.419 . S
C867 C862 1.425 . S
C867 C864 1.409 . S
C867 C865 1.415 . S
C868 H858 0.930 . S
C868 C866 1.419 . S
C868 C869 1.362 . S
C869 H859 0.930 . S
C869 C862 1.409 . S
C869 C868 1.362 . S
H870 C876 0.930 . S
H871 C879 0.930 . S
H872 C880 0.930 . S
H873 C881 0.930 . S
H874 C884 0.930 . S
H875 C885 0.930 . S
C876 H870 0.930 . S
C876 C877 1.355 . S
C876 C878 1.415 . S
C877 C876 1.355 . S
C877 C879 1.419 . S
C878 C876 1.415 . S
C878 C883 1.425 . S
C878 C885 1.409 . S
C879 H871 0.930 . S
C879 C877 1.419 . S
C879 C880 1.362 . S
C880 H872 0.930 . S
C880 C879 1.362 . S
C880 C883 1.409 . S
C881 H873 0.930 . S
C881 C882 1.355 . S
C881 C883 1.415 . S
C882 C881 1.355 . S
C882 C884 1.419 . S
C883 C878 1.425 . S
C883 C880 1.409 . S
C883 C881 1.415 . S
C884 H874 0.930 . S
C884 C882 1.419 . S
C884 C885 1.362 . S
C885 H875 0.930 . S
C885 C878 1.409 . S
C885 C884 1.362 . S
H886 C892 0.930 . S
H887 C895 0.930 . S
H888 C896 0.930 . S
H889 C897 0.930 . S
H890 C900 0.930 . S
H891 C901 0.930 . S
C892 H886 0.930 . S
C892 C893 1.355 . S
C892 C894 1.415 . S
C893 C892 1.355 . S
C893 C895 1.419 . S
C894 C892 1.415 . S
C894 C899 1.425 . S
C894 C901 1.409 . S
C895 H887 0.930 . S
C895 C893 1.419 . S
C895 C896 1.362 . S
C896 H888 0.930 . S
C896 C895 1.362 . S
C896 C899 1.409 . S
C897 H889 0.930 . S
C897 C898 1.355 . S
C897 C899 1.415 . S
C898 C897 1.355 . S
C898 C900 1.419 . S
C899 C894 1.425 . S
C899 C896 1.409 . S
C899 C897 1.415 . S
C900 H890 0.930 . S
C900 C898 1.419 . S
C900 C901 1.362 . S
C901 H891 0.930 . S
C901 C894 1.409 . S
C901 C900 1.362 . S
H902 C908 0.930 . S
H903 C911 0.930 . S
H904 C912 0.930 . S
H905 C913 0.930 . S
H906 C916 0.930 . S
H907 C917 0.930 . S
C908 H902 0.930 . S
C908 C909 1.355 . S
C908 C910 1.415 . S
C909 C908 1.355 . S
C909 C911 1.419 . S
C910 C908 1.415 . S
C910 C915 1.425 . S
C910 C917 1.409 . S
C911 H903 0.930 . S
C911 C909 1.419 . S
C911 C912 1.362 . S
C912 H904 0.930 . S
C912 C911 1.362 . S
C912 C915 1.409 . S
C913 H905 0.930 . S
C913 C914 1.355 . S
C913 C915 1.415 . S
C914 C913 1.355 . S
C914 C916 1.419 . S
C915 C910 1.425 . S
C915 C912 1.409 . S
C915 C913 1.415 . S
C916 H906 0.930 . S
C916 C914 1.419 . S
C916 C917 1.362 . S
C917 H907 0.930 . S
C917 C910 1.409 . S
C917 C916 1.362 . S
H918 C924 0.930 . S
H919 C927 0.930 . S
H920 C928 0.930 . S
H921 C929 0.930 . S
H922 C932 0.930 . S
H923 C933 0.930 . S
C924 H918 0.930 . S
C924 C925 1.355 . S
C924 C926 1.415 . S
C925 C924 1.355 . S
C925 C927 1.419 . S
C926 C924 1.415 . S
C926 C931 1.425 . S
C926 C933 1.409 . S
C927 H919 0.930 . S
C927 C925 1.419 . S
C927 C928 1.362 . S
C928 H920 0.930 . S
C928 C927 1.362 . S
C928 C931 1.409 . S
C929 H921 0.930 . S
C929 C930 1.355 . S
C929 C931 1.415 . S
C930 C929 1.355 . S
C930 C932 1.419 . S
C931 C926 1.425 . S
C931 C928 1.409 . S
C931 C929 1.415 . S
C932 H922 0.930 . S
C932 C930 1.419 . S
C932 C933 1.362 . S
C933 H923 0.930 . S
C933 C926 1.409 . S
C933 C932 1.362 . S
H934 C940 0.930 . S
H935 C943 0.930 . S
H936 C944 0.930 . S
H937 C945 0.930 . S
H938 C948 0.930 . S
H939 C949 0.930 . S
C940 H934 0.930 . S
C940 C941 1.355 . S
C940 C942 1.415 . S
C941 C940 1.355 . S
C941 C943 1.419 . S
C942 C940 1.415 . S
C942 C947 1.425 . S
C942 C949 1.409 . S
C943 H935 0.930 . S
C943 C941 1.419 . S
C943 C944 1.362 . S
C944 H936 0.930 . S
C944 C943 1.362 . S
C944 C947 1.409 . S
C945 H937 0.930 . S
C945 C946 1.355 . S
C945 C947 1.415 . S
C946 C945 1.355 . S
C946 C948 1.419 . S
C947 C942 1.425 . S
C947 C944 1.409 . S
C947 C945 1.415 . S
C948 H938 0.930 . S
C948 C946 1.419 . S
C948 C949 1.362 . S
C949 H939 0.930 . S
C949 C942 1.409 . S
C949 C948 1.362 . S
H950 C956 0.930 . S
H951 C959 0.930 . S
H952 C960 0.930 . S
H953 C961 0.930 . S
H954 C964 0.930 . S
H955 C965 0.930 . S
C956 H950 0.930 . S
C956 C957 1.355 . S
C956 C958 1.415 . S
C957 C956 1.355 . S
C957 C959 1.419 . S
C958 C956 1.415 . S
C958 C963 1.425 . S
C958 C965 1.409 . S
C959 H951 0.930 . S
C959 C957 1.419 . S
C959 C960 1.362 . S
C960 H952 0.930 . S
C960 C959 1.362 . S
C960 C963 1.409 . S
C961 H953 0.930 . S
C961 C962 1.355 . S
C961 C963 1.415 . S
C962 C961 1.355 . S
C962 C964 1.419 . S
C963 C958 1.425 . S
C963 C960 1.409 . S
C963 C961 1.415 . S
C964 H954 0.930 . S
C964 C962 1.419 . S
C964 C965 1.362 . S
C965 H955 0.930 . S
C965 C958 1.409 . S
C965 C964 1.362 . S
H966 C972 0.930 . S
H967 C975 0.930 . S
H968 C976 0.930 . S
H969 C977 0.930 . S
H970 C980 0.930 . S
H971 C981 0.930 . S
C972 H966 0.930 . S
C972 C973 1.355 . S
C972 C974 1.415 . S
C973 C972 1.355 . S
C973 C975 1.419 . S
C974 C972 1.415 . S
C974 C979 1.425 . S
C974 C981 1.409 . S
C975 H967 0.930 . S
C975 C973 1.419 . S
C975 C976 1.362 . S
C976 H968 0.930 . S
C976 C975 1.362 . S
C976 C979 1.409 . S
C977 H969 0.930 . S
C977 C978 1.355 . S
C977 C979 1.415 . S
C978 C977 1.355 . S
C978 C980 1.419 . S
C979 C974 1.425 . S
C979 C976 1.409 . S
C979 C977 1.415 . S
C980 H970 0.930 . S
C980 C978 1.419 . S
C980 C981 1.362 . S
C981 H971 0.930 . S
C981 C974 1.409 . S
C981 C980 1.362 . S
H982 C988 0.930 . S
H983 C991 0.930 . S
H984 C992 0.930 . S
H985 C993 0.930 . S
H986 C996 0.930 . S
H987 C997 0.930 . S
C988 H982 0.930 . S
C988 C989 1.355 . S
C988 C990 1.415 . S
C989 C988 1.355 . S
C989 C991 1.419 . S
C990 C988 1.415 . S
C990 C995 1.425 . S
C990 C997 1.409 . S
C991 H983 0.930 . S
C991 C989 1.419 . S
C991 C992 1.362 . S
C992 H984 0.930 . S
C992 C991 1.362 . S
C992 C995 1.409 . S
C993 H985 0.930 . S
C993 C994 1.355 . S
C993 C995 1.415 . S
C994 C993 1.355 . S
C994 C996 1.419 . S
C995 C990 1.425 . S
C995 C992 1.409 . S
C995 C993 1.415 . S
C996 H986 0.930 . S
C996 C994 1.419 . S
C996 C997 1.362 . S
C997 H987 0.930 . S
C997 C990 1.409 . S
C997 C996 1.362 . S
H998 C1004 0.930 . S
H999 C1007 0.930 . S
H1000 C1008 0.930 . S
H1001 C1009 0.930 . S
H1002 C1012 0.930 . S
H1003 C1013 0.930 . S
C1004 H998 0.930 . S
C1004 C1005 1.355 . S
C1004 C1006 1.415 . S
C1005 C1004 1.355 . S
C1005 C1007 1.419 . S
C1006 C1004 1.415 . S
C1006 C1011 1.425 . S
C1006 C1013 1.409 . S
C1007 H999 0.930 . S
C1007 C1005 1.419 . S
C1007 C1008 1.362 . S
C1008 H1000 0.930 . S
C1008 C1007 1.362 . S
C1008 C1011 1.409 . S
C1009 H1001 0.930 . S
C1009 C1010 1.355 . S
C1009 C1011 1.415 . S
C1010 C1009 1.355 . S
C1010 C1012 1.419 . S
C1011 C1006 1.425 . S
C1011 C1008 1.409 . S
C1011 C1009 1.415 . S
C1012 H1002 0.930 . S
C1012 C1010 1.419 . S
C1012 C1013 1.362 . S
C1013 H1003 0.930 . S
C1013 C1006 1.409 . S
C1013 C1012 1.362 . S
H1014 C1020 0.930 . S
H1015 C1023 0.930 . S
H1016 C1024 0.930 . S
H1017 C1025 0.930 . S
H1018 C1028 0.930 . S
H1019 C1029 0.930 . S
C1020 H1014 0.930 . S
C1020 C1021 1.355 . S
C1020 C1022 1.415 . S
C1021 C1020 1.355 . S
C1021 C1023 1.419 . S
C1022 C1020 1.415 . S
C1022 C1027 1.425 . S
C1022 C1029 1.409 . S
C1023 H1015 0.930 . S
C1023 C1021 1.419 . S
C1023 C1024 1.362 . S
C1024 H1016 0.930 . S
C1024 C1023 1.362 . S
C1024 C1027 1.409 . S
C1025 H1017 0.930 . S
C1025 C1026 1.355 . S
C1025 C1027 1.415 . S
C1026 C1025 1.355 . S
C1026 C1028 1.419 . S
C1027 C1022 1.425 . S
C1027 C1024 1.409 . S
C1027 C1025 1.415 . S
C1028 H1018 0.930 . S
C1028 C1026 1.419 . S
C1028 C1029 1.362 . S
C1029 H1019 0.930 . S
C1029 C1022 1.409 . S
C1029 C1028 1.362 . S
H1030 C1036 0.930 . S
H1031 C1039 0.930 . S
H1032 C1040 0.930 . S
H1033 C1041 0.930 . S
H1034 C1044 0.930 . S
H1035 C1045 0.930 . S
C1036 H1030 0.930 . S
C1036 C1037 1.355 . S
C1036 C1038 1.415 . S
C1037 C1036 1.355 . S
C1037 C1039 1.419 . S
C1038 C1036 1.415 . S
C1038 C1043 1.425 . S
C1038 C1045 1.409 . S
C1039 H1031 0.930 . S
C1039 C1037 1.419 . S
C1039 C1040 1.362 . S
C1040 H1032 0.930 . S
C1040 C1039 1.362 . S
C1040 C1043 1.409 . S
C1041 H1033 0.930 . S
C1041 C1042 1.355 . S
C1041 C1043 1.415 . S
C1042 C1041 1.355 . S
C1042 C1044 1.419 . S
C1043 C1038 1.425 . S
C1043 C1040 1.409 . S
C1043 C1041 1.415 . S
C1044 H1034 0.930 . S
C1044 C1042 1.419 . S
C1044 C1045 1.362 . S
C1045 H1035 0.930 . S
C1045 C1038 1.409 . S
C1045 C1044 1.362 . S
H1046 C1052 0.930 . S
H1047 C1055 0.930 . S
H1048 C1056 0.930 . S
H1049 C1057 0.930 . S
H1050 C1060 0.930 . S
H1051 C1061 0.930 . S
C1052 H1046 0.930 . S
C1052 C1053 1.355 . S
C1052 C1054 1.415 . S
C1053 C1052 1.355 . S
C1053 C1055 1.419 . S
C1054 C1052 1.415 . S
C1054 C1059 1.425 . S
C1054 C1061 1.409 . S
C1055 H1047 0.930 . S
C1055 C1053 1.419 . S
C1055 C1056 1.362 . S
C1056 H1048 0.930 . S
C1056 C1055 1.362 . S
C1056 C1059 1.409 . S
C1057 H1049 0.930 . S
C1057 C1058 1.355 . S
C1057 C1059 1.415 . S
C1058 C1057 1.355 . S
C1058 C1060 1.419 . S
C1059 C1054 1.425 . S
C1059 C1056 1.409 . S
C1059 C1057 1.415 . S
C1060 H1050 0.930 . S
C1060 C1058 1.419 . S
C1060 C1061 1.362 . S
C1061 H1051 0.930 . S
C1061 C1054 1.409 . S
C1061 C1060 1.362 . S
H1062 C1068 0.930 . S
H1063 C1071 0.930 . S
H1064 C1072 0.930 . S
H1065 C1073 0.930 . S
H1066 C1076 0.930 . S
H1067 C1077 0.930 . S
C1068 H1062 0.930 . S
C1068 C1069 1.355 . S
C1068 C1070 1.415 . S
C1069 C1068 1.355 . S
C1069 C1071 1.419 . S
C1070 C1068 1.415 . S
C1070 C1075 1.425 . S
C1070 C1077 1.409 . S
C1071 H1063 0.930 . S
C1071 C1069 1.419 . S
C1071 C1072 1.362 . S
C1072 H1064 0.930 . S
C1072 C1071 1.362 . S
C1072 C1075 1.409 . S
C1073 H1065 0.930 . S
C1073 C1074 1.355 . S
C1073 C1075 1.415 . S
C1074 C1073 1.355 . S
C1074 C1076 1.419 . S
C1075 C1070 1.425 . S
C1075 C1072 1.409 . S
C1075 C1073 1.415 . S
C1076 H1066 0.930 . S
C1076 C1074 1.419 . S
C1076 C1077 1.362 . S
C1077 H1067 0.930 . S
C1077 C1070 1.409 . S
C1077 C1076 1.362 . S
H1078 C1084 0.930 . S
H1079 C1087 0.930 . S
H1080 C1088 0.930 . S
H1081 C1089 0.930 . S
H1082 C1092 0.930 . S
H1083 C1093 0.930 . S
C1084 H1078 0.930 . S
C1084 C1085 1.355 . S
C1084 C1086 1.415 . S
C1085 C1084 1.355 . S
C1085 C1087 1.419 . S
C1086 C1084 1.415 . S
C1086 C1091 1.425 . S
C1086 C1093 1.409 . S
C1087 H1079 0.930 . S
C1087 C1085 1.419 . S
C1087 C1088 1.362 . S
C1088 H1080 0.930 . S
C1088 C1087 1.362 . S
C1088 C1091 1.409 . S
C1089 H1081 0.930 . S
C1089 C1090 1.355 . S
C1089 C1091 1.415 . S
C1090 C1089 1.355 . S
C1090 C1092 1.419 . S
C1091 C1086 1.425 . S
C1091 C1088 1.409 . S
C1091 C1089 1.415 . S
C1092 H1082 0.930 . S
C1092 C1090 1.419 . S
C1092 C1093 1.362 . S
C1093 H1083 0.930 . S
C1093 C1086 1.409 . S
C1093 C1092 1.362 . S
H1094 C1100 0.930 . S
H1095 C1103 0.930 . S
H1096 C1104 0.930 . S
H1097 C1105 0.930 . S
H1098 C1108 0.930 . S
H1099 C1109 0.930 . S
C1100 H1094 0.930 . S
C1100 C1101 1.355 . S
C1100 C1102 1.415 . S
C1101 C1100 1.355 . S
C1101 C1103 1.419 . S
C1102 C1100 1.415 . S
C1102 C1107 1.425 . S
C1102 C1109 1.409 . S
C1103 H1095 0.930 . S
C1103 C1101 1.419 . S
C1103 C1104 1.362 . S
C1104 H1096 0.930 . S
C1104 C1103 1.362 . S
C1104 C1107 1.409 . S
C1105 H1097 0.930 . S
C1105 C1106 1.355 . S
C1105 C1107 1.415 . S
C1106 C1105 1.355 . S
C1106 C1108 1.419 . S
C1107 C1102 1.425 . S
C1107 C1104 1.409 . S
C1107 C1105 1.415 . S
C1108 H1098 0.930 . S
C1108 C1106 1.419 . S
C1108 C1109 1.362 . S
C1109 H1099 0.930 . S
C1109 C1102 1.409 . S
C1109 C1108 1.362 . S
H1110 C1116 0.930 . S
H1111 C1119 0.930 . S
H1112 C1120 0.930 . S
H1113 C1121 0.930 . S
H1114 C1124 0.930 . S
H1115 C1125 0.930 . S
C1116 H1110 0.930 . S
C1116 C1117 1.355 . S
C1116 C1118 1.415 . S
C1117 C1116 1.355 . S
C1117 C1119 1.419 . S
C1118 C1116 1.415 . S
C1118 C1123 1.425 . S
C1118 C1125 1.409 . S
C1119 H1111 0.930 . S
C1119 C1117 1.419 . S
C1119 C1120 1.362 . S
C1120 H1112 0.930 . S
C1120 C1119 1.362 . S
C1120 C1123 1.409 . S
C1121 H1113 0.930 . S
C1121 C1122 1.355 . S
C1121 C1123 1.415 . S
C1122 C1121 1.355 . S
C1122 C1124 1.419 . S
C1123 C1118 1.425 . S
C1123 C1120 1.409 . S
C1123 C1121 1.415 . S
C1124 H1114 0.930 . S
C1124 C1122 1.419 . S
C1124 C1125 1.362 . S
C1125 H1115 0.930 . S
C1125 C1118 1.409 . S
C1125 C1124 1.362 . S
C370 C187 1.312 . S
C365 C9 1.502 . S
C386 C188 1.514 . S
C381 C22 1.539 . S
C402 C182 1.180 . S
C397 C49 1.121 . S
C413 C61 0.990 . S
C418 C181 0.971 . S
C429 C81 1.555 . S
C434 C184 1.465 . S
C450 C186 1.181 . S
C445 C108 1.119 . S
C461 C122 1.029 . S
C466 C185 1.045 . S
C477 C148 1.502 . S
C482 C183 1.321 . S
C498 C218 2.200 . S
C493 C18 2.165 . S
C509 C39 1.497 . S
C514 C249 1.550 . S
C530 C217 2.043 . S
C525 C58 2.084 . S
C546 C252 1.096 . S
C541 C69 1.058 . S
C557 C89 1.289 . S
C562 C215 1.270 . S
C578 C247 1.316 . S
C573 C102 1.326 . S
C589 C139 1.334 . S
C594 C220 1.334 . S
C605 C142 1.242 . S
C610 C254 1.183 . S
C621 C1 1.235 . S
C626 C250 1.157 . S
C637 C98 1.480 . S
C642 C253 1.556 . S
C658 C221 2.045 . S
C653 C119 2.105 . S
C674 C248 1.037 . S
C669 C128 1.130 . S
C685 C159 2.127 . S
C690 C214 2.213 . S
C701 C41 1.324 . S
C706 C251 1.308 . S
C722 C216 1.317 . S
C717 C78 1.343 . S
C733 C28 1.332 . S
C738 C219 1.328 . S
C749 C149 1.501 . S
C754 C286 1.327 . S
C765 C82 1.225 . S
C770 C287 1.149 . S
C786 C281 1.177 . S
C781 C109 1.193 . S
C802 C280 1.336 . S
C797 C121 1.329 . S
C813 C21 1.211 . S
C818 C283 1.166 . S
C834 C285 1.210 . S
C829 C48 1.168 . S
C845 C62 1.299 . S
C850 C284 1.349 . S
C861 C8 1.469 . S
C866 C282 1.394 . S
C877 C158 2.284 . S
C882 C320 2.251 . S
C898 C352 1.287 . S
C893 C99 1.293 . S
C909 C118 2.006 . S
C914 C313 2.018 . S
C925 C129 1.380 . S
C930 C347 1.372 . S
C946 C318 1.142 . S
C941 C29 1.087 . S
C957 C42 1.494 . S
C962 C349 1.461 . S
C978 C315 1.588 . S
C973 C79 1.519 . S
C994 C350 1.269 . S
C989 C2 1.251 . S
C1010 C346 1.255 . S
C1005 C141 1.233 . S
C1021 C38 1.244 . S
C1026 C348 1.347 . S
C1037 C59 1.989 . S
C1042 C317 2.001 . S
C1058 C351 1.355 . S
C1053 C68 1.375 . S
C1069 C19 2.310 . S
C1074 C316 2.244 . S
C1085 C101 1.522 . S
C1090 C353 1.467 . S
C1106 C319 1.579 . S
C1101 C138 1.534 . S
C1122 C314 1.086 . S
C1117 C88 1.143 . S
