# Generated by pormake.
# Topology wbl, (4,4)-cn, num edge types: 1
# Building blocks:
#     Node 0, Type 0, BuildingBlock: MUDLON_clean_sbu_0, # of connection points: 4
#     Node 1, Type 0, BuildingBlock: MUDLON_clean_sbu_0, # of connection points: 4
#     Node 2, Type 0, BuildingBlock: MUDLON_clean_sbu_0, # of connection points: 4
#     Node 3, Type 0, BuildingBlock: MUDLON_clean_sbu_0, # of connection points: 4
#     Node 4, Type 0, BuildingBlock: MUDLON_clean_sbu_0, # of connection points: 4
#     Node 5, Type 0, BuildingBlock: MUDLON_clean_sbu_0, # of connection points: 4
#     Node 6, Type 0, BuildingBlock: MUDLON_clean_sbu_0, # of connection points: 4
#     Node 7, Type 0, BuildingBlock: MUDLON_clean_sbu_0, # of connection points: 4
#     Node 8, Type 1, BuildingBlock: QUQFOY_clean_sbu_1, # of connection points: 4
#     Node 9, Type 1, BuildingBlock: QUQFOY_clean_sbu_1, # of connection points: 4
#     Node 10, Type 1, BuildingBlock: QUQFOY_clean_sbu_1, # of connection points: 4
#     Node 11, Type 1, BuildingBlock: QUQFOY_clean_sbu_1, # of connection points: 4
#     Node 12, Type 1, BuildingBlock: QUQFOY_clean_sbu_1, # of connection points: 4
#     Node 13, Type 1, BuildingBlock: QUQFOY_clean_sbu_1, # of connection points: 4
#     Node 14, Type 1, BuildingBlock: QUQFOY_clean_sbu_1, # of connection points: 4
#     Node 15, Type 1, BuildingBlock: QUQFOY_clean_sbu_1, # of connection points: 4
#     Edge 16, Type (0, 1), BuildingBlock: AJUNOK_clean_linker_0, # of connection points: 2
#     Edge 17, Type (0, 1), BuildingBlock: AJUNOK_clean_linker_0, # of connection points: 2
#     Edge 18, Type (0, 1), BuildingBlock: AJUNOK_clean_linker_0, # of connection points: 2
#     Edge 19, Type (0, 1), BuildingBlock: AJUNOK_clean_linker_0, # of connection points: 2
#     Edge 20, Type (0, 1), BuildingBlock: AJUNOK_clean_linker_0, # of connection points: 2
#     Edge 21, Type (0, 1), BuildingBlock: AJUNOK_clean_linker_0, # of connection points: 2
#     Edge 22, Type (0, 1), BuildingBlock: AJUNOK_clean_linker_0, # of connection points: 2
#     Edge 23, Type (0, 1), BuildingBlock: AJUNOK_clean_linker_0, # of connection points: 2
#     Edge 24, Type (0, 1), BuildingBlock: AJUNOK_clean_linker_0, # of connection points: 2
#     Edge 25, Type (0, 1), BuildingBlock: AJUNOK_clean_linker_0, # of connection points: 2
#     Edge 26, Type (0, 1), BuildingBlock: AJUNOK_clean_linker_0, # of connection points: 2
#     Edge 27, Type (0, 1), BuildingBlock: AJUNOK_clean_linker_0, # of connection points: 2
#     Edge 28, Type (0, 1), BuildingBlock: AJUNOK_clean_linker_0, # of connection points: 2
#     Edge 29, Type (0, 1), BuildingBlock: AJUNOK_clean_linker_0, # of connection points: 2
#     Edge 30, Type (0, 1), BuildingBlock: AJUNOK_clean_linker_0, # of connection points: 2
#     Edge 31, Type (0, 1), BuildingBlock: AJUNOK_clean_linker_0, # of connection points: 2
#     Edge 32, Type (0, 1), BuildingBlock: AJUNOK_clean_linker_0, # of connection points: 2
#     Edge 33, Type (0, 1), BuildingBlock: AJUNOK_clean_linker_0, # of connection points: 2
#     Edge 34, Type (0, 1), BuildingBlock: AJUNOK_clean_linker_0, # of connection points: 2
#     Edge 35, Type (0, 1), BuildingBlock: AJUNOK_clean_linker_0, # of connection points: 2
#     Edge 36, Type (0, 1), BuildingBlock: AJUNOK_clean_linker_0, # of connection points: 2
#     Edge 37, Type (0, 1), BuildingBlock: AJUNOK_clean_linker_0, # of connection points: 2
#     Edge 38, Type (0, 1), BuildingBlock: AJUNOK_clean_linker_0, # of connection points: 2
#     Edge 39, Type (0, 1), BuildingBlock: AJUNOK_clean_linker_0, # of connection points: 2
#     Edge 40, Type (0, 1), BuildingBlock: AJUNOK_clean_linker_0, # of connection points: 2
#     Edge 41, Type (0, 1), BuildingBlock: AJUNOK_clean_linker_0, # of connection points: 2
#     Edge 42, Type (0, 1), BuildingBlock: AJUNOK_clean_linker_0, # of connection points: 2
#     Edge 43, Type (0, 1), BuildingBlock: AJUNOK_clean_linker_0, # of connection points: 2
#     Edge 44, Type (0, 1), BuildingBlock: AJUNOK_clean_linker_0, # of connection points: 2
#     Edge 45, Type (0, 1), BuildingBlock: AJUNOK_clean_linker_0, # of connection points: 2
#     Edge 46, Type (0, 1), BuildingBlock: AJUNOK_clean_linker_0, # of connection points: 2
#     Edge 47, Type (0, 1), BuildingBlock: AJUNOK_clean_linker_0, # of connection points: 2
# Relax obj value: 0.236
# Max RMSD: 0.253
# Mean RMSD: 0.184
data_MOF--net-wbl--node1-MUDLON_clean_sbu_0--node2-QUQFOY_clean_sbu_1--edge1-AJUNOK_clean_linker_0
_symmetry_space_group_name_H-M    P1
_symmetry_Int_Tables_number       1
_symmetry_cell_setting            triclinic
loop_
_symmetry_equiv_pos_as_xyz
'x, y, z'
_cell_length_a     26.02611
_cell_length_b     25.998428
_cell_length_c     57.276143
_cell_angle_alpha  92.03931
_cell_angle_beta   92.501839
_cell_angle_gamma 90.276626
loop_
_atom_site_label
_atom_site_type_symbol
_atom_site_fract_x
_atom_site_fract_y
_atom_site_fract_z
_atom_type_partial_charge
Mg0 Mg 0.19698 0.2146 0.38393 0.0
C1 C 0.14778 0.14769 0.41817 0.0
O2 O 0.11761 0.18792 0.41978 0.0
C3 C 0.12446 0.26722 0.34863 0.0
O4 O 0.16719 0.28428 0.34018 0.0
C5 C 0.24176 0.15112 0.34733 0.0
O6 O 0.19422 0.13441 0.34847 0.0
O7 O 0.25588 0.18996 0.36024 0.0
O8 O 0.18058 0.14617 0.40238 0.0
O9 O 0.21684 0.26427 0.41436 0.0
C10 C 0.18194 0.29428 0.42152 0.0
O11 O 0.14553 0.30777 0.40639 0.0
O12 O 0.12688 0.23835 0.36608 0.0
Mg13 Mg 0.06122 0.68954 0.63068 0.0
C14 C 0.14371 0.71617 0.66395 0.0
O15 O 0.12626 0.76034 0.65659 0.0
C16 C 0.05416 0.60511 0.59111 0.0
O17 O 0.08854 0.63311 0.58115 0.0
C18 C 0.12843 0.75126 0.60183 0.0
O19 O 0.15633 0.71048 0.60623 0.0
O20 O 0.08326 0.75348 0.6095 0.0
O21 O 0.12641 0.67487 0.65395 0.0
O22 O 0.00858 0.70575 0.65845 0.0
C23 C 0.98164 0.66801 0.66459 0.0
O24 O 0.97399 0.62906 0.64958 0.0
O25 O 0.0374 0.62033 0.61068 0.0
Mg26 Mg 0.57981 0.5342 0.87568 0.0
C27 C 0.55274 0.59068 0.91742 0.0
O28 O 0.50946 0.5728 0.90751 0.0
C29 C 0.66058 0.54191 0.83801 0.0
O30 O 0.63101 0.57868 0.82999 0.0
C31 C 0.51594 0.61794 0.85532 0.0
O32 O 0.55491 0.64483 0.86474 0.0
O33 O 0.5173 0.56913 0.85592 0.0
O34 O 0.59422 0.58271 0.90696 0.0
O35 O 0.55513 0.46528 0.89206 0.0
C36 C 0.5908 0.43528 0.89868 0.0
O37 O 0.63114 0.43113 0.88575 0.0
O38 O 0.64812 0.51892 0.85618 0.0
Mg39 Mg 0.68156 0.09633 0.12751 0.0
C40 C 0.75287 0.07816 0.16753 0.0
O41 O 0.71581 0.04523 0.1711 0.0
C42 C 0.62834 0.01238 0.0986 0.0
O43 O 0.60125 0.05248 0.09227 0.0
C44 C 0.73157 0.15665 0.09177 0.0
O45 O 0.7665 0.12211 0.097 0.0
O46 O 0.68838 0.1543 0.10131 0.0
O47 O 0.75276 0.09973 0.14799 0.0
O48 O 0.629 0.11493 0.15524 0.0
C49 C 0.59412 0.08363 0.1606 0.0
O50 O 0.58262 0.04439 0.14622 0.0
O51 O 0.66643 0.01943 0.11298 0.0
Mg52 Mg 0.09569 0.66271 0.96581 0.0
C53 C 0.06066 0.7169 0.92377 0.0
O54 O 0.0296 0.67689 0.92326 0.0
C55 C 0.98282 0.64868 0.9797 0.0
O56 O 0.97243 0.6841 0.96445 0.0
C57 C 0.17357 0.71583 0.99921 0.0
O58 O 0.14465 0.7556 0.99424 0.0
O59 O 0.16203 0.67213 0.98975 0.0
O60 O 0.08721 0.72703 0.94261 0.0
O61 O 0.11079 0.60465 0.93908 0.0
C62 C 0.07703 0.57018 0.93403 0.0
O63 O 0.04065 0.56292 0.94875 0.0
O64 O 0.02938 0.6365 0.9841 0.0
Mg65 Mg 0.56294 0.58246 0.2014 0.0
C66 C 0.46974 0.53264 0.17441 0.0
O67 O 0.43071 0.50054 0.17151 0.0
C68 C 0.60937 0.50219 0.23459 0.0
O69 O 0.56422 0.47961 0.23137 0.0
C70 C 0.50944 0.67188 0.22506 0.0
O71 O 0.47588 0.63556 0.22886 0.0
O72 O 0.54898 0.66039 0.21377 0.0
O73 O 0.49292 0.53755 0.19443 0.0
O74 O 0.60346 0.58141 0.16943 0.0
C75 C 0.62561 0.53886 0.16525 0.0
O76 O 0.62053 0.50159 0.17987 0.0
O77 O 0.61663 0.5456 0.2257 0.0
Mg78 Mg 0.65265 0.09151 0.45684 0.0
C79 C 0.70346 0.13289 0.41941 0.0
O80 O 0.73486 0.10179 0.43056 0.0
C81 C 0.57097 0.07666 0.49283 0.0
O82 O 0.6115 0.07048 0.50691 0.0
C83 C 0.7281 0.15473 0.48532 0.0
O84 O 0.69587 0.18932 0.47728 0.0
O85 O 0.71795 0.10742 0.4809 0.0
O86 O 0.66053 0.14327 0.42823 0.0
O87 O 0.66017 0.02106 0.43593 0.0
C88 C 0.62051 0.99301 0.43186 0.0
O89 O 0.58404 0.99505 0.44696 0.0
O90 O 0.57731 0.08975 0.47196 0.0
Mg91 Mg 0.20738 0.17261 0.71602 0.0
C92 C 0.28726 0.15301 0.68213 0.0
O93 O 0.28898 0.11015 0.69362 0.0
C94 C 0.13211 0.23592 0.74074 0.0
O95 O 0.10646 0.19353 0.7347 0.0
C96 C 0.21088 0.09525 0.75572 0.0
O97 O 0.17568 0.12519 0.76462 0.0
O98 O 0.22941 0.10626 0.7363 0.0
O99 O 0.26491 0.19147 0.69138 0.0
O100 O 0.14642 0.15698 0.68966 0.0
C101 C 0.13411 0.19898 0.68019 0.0
O102 O 0.1556 0.24193 0.68863 0.0
O103 O 0.17974 0.23786 0.73663 0.0
O104 O 0.49926 0.71265 0.01383 0.0
Cd105 Cd 0.46879 0.74382 0.04353 0.0
Cd106 Cd 0.55096 0.69387 0.06266 0.0
O107 O 0.55998 0.66364 0.02898 0.0
O108 O 0.40534 0.7759 0.03014 0.0
O109 O 0.40349 0.71054 0.05364 0.0
C110 C 0.37896 0.74193 0.04028 0.0
C111 C 0.52628 0.64438 0.09339 0.0
C112 C 0.5345 0.67963 0.01125 0.0
C113 C 0.55172 0.80791 0.06926 0.0
O114 O 0.57868 0.76738 0.07082 0.0
O115 O 0.50604 0.80535 0.06045 0.0
O116 O 0.57322 0.64412 0.08694 0.0
O117 O 0.49296 0.67161 0.08196 0.0
O118 O 0.50208 0.9447 0.33087 0.0
Cd119 Cd 0.45781 0.95577 0.30094 0.0
Cd120 Cd 0.54604 0.97635 0.28451 0.0
O121 O 0.56879 0.98786 0.31954 0.0
O122 O 0.38669 0.967 0.31152 0.0
O123 O 0.43322 0.02819 0.29659 0.0
C124 C 0.39168 0.01462 0.30634 0.0
C125 C 0.55302 0.03389 0.25463 0.0
C126 C 0.54578 0.96535 0.33553 0.0
C127 C 0.49753 0.87715 0.26842 0.0
O128 O 0.53991 0.90116 0.2722 0.0
O129 O 0.45632 0.89621 0.27606 0.0
O130 O 0.59332 0.01255 0.26391 0.0
O131 O 0.50914 0.02565 0.26357 0.0
O132 O 0.23896 0.00812 0.50265 0.0
Cd133 Cd 0.28747 0.98623 0.5296 0.0
Cd134 Cd 0.22604 0.04409 0.55401 0.0
O135 O 0.20298 0.07201 0.52187 0.0
O136 O 0.35064 0.96564 0.51318 0.0
O137 O 0.34817 0.03238 0.53822 0.0
C138 C 0.37301 0.00565 0.52307 0.0
C139 C 0.25864 0.09548 0.58544 0.0
C140 C 0.21 0.04717 0.50276 0.0
C141 C 0.21978 0.93074 0.56068 0.0
O142 O 0.19669 0.97361 0.56272 0.0
O143 O 0.26146 0.928 0.54985 0.0
O144 O 0.21047 0.09623 0.5791 0.0
O145 O 0.28888 0.06738 0.57315 0.0
O146 O 0.26503 0.77338 0.76275 0.0
Cd147 Cd 0.2848 0.80965 0.79425 0.0
Cd148 Cd 0.22146 0.73926 0.80955 0.0
O149 O 0.19936 0.7291 0.77462 0.0
O150 O 0.31281 0.87661 0.78462 0.0
O151 O 0.24102 0.86993 0.80355 0.0
C152 C 0.27239 0.89827 0.79264 0.0
C153 C 0.16138 0.74921 0.83847 0.0
C154 C 0.22659 0.74398 0.75823 0.0
C155 C 0.33436 0.72837 0.82174 0.0
O156 O 0.29044 0.70662 0.81983 0.0
O157 O 0.33994 0.77398 0.81487 0.0
O158 O 0.16717 0.70577 0.82735 0.0
O159 O 0.18879 0.78797 0.83273 0.0
O160 O 0.01014 0.27027 0.58674 0.0
Cd161 Cd 0.98456 0.30727 0.55733 0.0
Cd162 Cd 0.03772 0.23058 0.53711 0.0
O163 O 0.06142 0.21305 0.57083 0.0
O164 O 0.95929 0.37438 0.5703 0.0
O165 O 0.02529 0.36827 0.54752 0.0
C166 C 0.99631 0.39667 0.56026 0.0
C167 C 0.09408 0.25987 0.50976 0.0
C168 C 0.04224 0.2339 0.58884 0.0
C169 C 0.92385 0.23064 0.52682 0.0
O170 O 0.96532 0.20523 0.52526 0.0
O171 O 0.92414 0.27431 0.53759 0.0
O172 O 0.09101 0.21157 0.51417 0.0
O173 O 0.06616 0.29158 0.52146 0.0
O174 O 0.98761 0.48889 0.83097 0.0
Cd175 Cd 0.94846 0.47551 0.79956 0.0
Cd176 Cd 0.02307 0.53386 0.78573 0.0
O177 O 0.03686 0.55255 0.8209 0.0
O178 O 0.88178 0.4471 0.80944 0.0
O179 O 0.88789 0.52096 0.79195 0.0
C180 C 0.85991 0.48839 0.80229 0.0
C181 C 0.99778 0.59118 0.75709 0.0
C182 C 0.02035 0.52395 0.83655 0.0
C183 C 0.02644 0.42223 0.77157 0.0
O184 O 0.05223 0.4639 0.77436 0.0
O185 O 0.98029 0.42045 0.77798 0.0
O186 O 0.04481 0.59019 0.76529 0.0
O187 O 0.96468 0.56121 0.76599 0.0
O188 O 0.76104 0.47377 0.07517 0.0
Cd189 Cd 0.78629 0.43676 0.04572 0.0
Cd190 Cd 0.71393 0.49068 0.02507 0.0
O191 O 0.68871 0.50083 0.05844 0.0
O192 O 0.81936 0.37242 0.05688 0.0
O193 O 0.74517 0.37341 0.03648 0.0
C194 C 0.77907 0.34795 0.04838 0.0
C195 C 0.66228 0.45709 0.99397 0.0
C196 C 0.71706 0.49417 0.07668 0.0
C197 C 0.82193 0.52037 0.01616 0.0
O198 O 0.77535 0.53486 0.01602 0.0
O199 O 0.83449 0.47781 0.02512 0.0
O200 O 0.6554 0.50306 0.00246 0.0
O201 O 0.69698 0.42922 0.00403 0.0
O202 O 0.8373 0.2485 0.2445 0.0
Cd203 Cd 0.84032 0.30802 0.26912 0.0
Cd204 Cd 0.81735 0.23261 0.29942 0.0
O205 O 0.80735 0.19149 0.26804 0.0
O206 O 0.82027 0.37238 0.25349 0.0
O207 O 0.77292 0.33574 0.27959 0.0
C208 C 0.77865 0.37193 0.26497 0.0
C209 C 0.7718 0.20092 0.33047 0.0
C210 C 0.82054 0.20351 0.24785 0.0
C211 C 0.92139 0.28868 0.30473 0.0
O212 O 0.89078 0.25378 0.31064 0.0
O213 O 0.90855 0.31831 0.28835 0.0
O214 O 0.80814 0.17578 0.32093 0.0
O215 O 0.75954 0.24464 0.3219 0.0
C216 C 0.26632 0.06884 0.3271 0.0
C217 C 0.2792 0.11997 0.33409 0.0
C218 C 0.30235 0.03582 0.31718 0.0
C219 C 0.35256 0.0527 0.31339 0.0
H220 H 0.22865 0.05325 0.33019 0.0
H221 H 0.29108 0.99627 0.313 0.0
S222 S 0.40466 0.18426 0.32646 0.0
N223 N 0.34497 0.18687 0.3351 0.0
N224 N 0.41256 0.12494 0.316 0.0
C225 C 0.36529 0.10449 0.31907 0.0
C226 C 0.3287 0.13805 0.32955 0.0
C227 C 0.12687 0.84378 0.59077 0.0
C228 C 0.15132 0.79565 0.59021 0.0
C229 C 0.14935 0.88701 0.58125 0.0
C230 C 0.19717 0.88399 0.57063 0.0
H231 H 0.0904 0.84847 0.59899 0.0
H232 H 0.12894 0.92318 0.58234 0.0
S233 S 0.2762 0.76621 0.56374 0.0
N234 N 0.22549 0.74711 0.57752 0.0
N235 N 0.2676 0.82813 0.55965 0.0
C236 C 0.22169 0.83583 0.56963 0.0
C237 C 0.19883 0.79181 0.57939 0.0
C238 C 0.47104 0.69795 0.84284 0.0
C239 C 0.46936 0.64461 0.8462 0.0
C240 C 0.42721 0.72473 0.83517 0.0
C241 C 0.37969 0.69937 0.83073 0.0
H242 H 0.50657 0.7194 0.84612 0.0
H243 H 0.43073 0.76568 0.83274 0.0
S244 S 0.35446 0.55976 0.83711 0.0
N245 N 0.41602 0.56732 0.84463 0.0
N246 N 0.33369 0.61745 0.83036 0.0
C247 C 0.3774 0.64596 0.83413 0.0
C248 C 0.42217 0.61864 0.84178 0.0
C249 C 0.56475 0.95291 0.07774 0.0
C250 C 0.61146 0.95964 0.0908 0.0
C251 C 0.54605 0.90384 0.07102 0.0
C252 C 0.57329 0.85912 0.07691 0.0
H253 H 0.54187 0.9858 0.07282 0.0
H254 H 0.50975 0.90119 0.06102 0.0
S255 S 0.69828 0.8553 0.11063 0.0
N256 N 0.68512 0.91719 0.1092 0.0
N257 N 0.64997 0.82481 0.09644 0.0
C258 C 0.62044 0.86513 0.08976 0.0
C259 C 0.63947 0.91534 0.09673 0.0
C260 C 0.24657 0.77154 0.0147 0.0
C261 C 0.22239 0.72298 0.01326 0.0
C262 C 0.29623 0.77793 0.02484 0.0
C263 C 0.32328 0.73624 0.03431 0.0
H264 H 0.2282 0.80441 0.00685 0.0
H265 H 0.31433 0.81548 0.02443 0.0
S266 S 0.27421 0.60265 0.03786 0.0
N267 N 0.22712 0.6335 0.02421 0.0
N268 N 0.32026 0.64575 0.04361 0.0
C269 C 0.29811 0.6883 0.03454 0.0
C270 C 0.24775 0.68159 0.02388 0.0
C271 C 0.5443 0.76033 0.23416 0.0
C272 C 0.50328 0.72502 0.23482 0.0
C273 C 0.54143 0.80964 0.24458 0.0
C274 C 0.49726 0.82606 0.25598 0.0
H275 H 0.57962 0.74954 0.22599 0.0
H276 H 0.57458 0.83483 0.24392 0.0
S277 S 0.37752 0.74978 0.2612 0.0
N278 N 0.41589 0.71087 0.24678 0.0
N279 N 0.41039 0.80376 0.26633 0.0
C280 C 0.45514 0.79185 0.25608 0.0
C281 C 0.4582 0.74133 0.24554 0.0
C282 C 0.50842 0.06151 0.52408 0.0
C283 C 0.51923 0.06122 0.50018 0.0
C284 C 0.46087 0.04381 0.53151 0.0
C285 C 0.4233 0.02344 0.51534 0.0
H286 H 0.53685 0.07566 0.53716 0.0
H287 H 0.45383 0.0452 0.55002 0.0
S288 S 0.43136 0.01528 0.45082 0.0
N289 N 0.48687 0.04088 0.46035 0.0
N290 N 0.39902 0.00546 0.47443 0.0
C291 C 0.43344 0.02304 0.49145 0.0
C292 C 0.481 0.04251 0.48383 0.0
C293 C 0.2734 0.02341 0.76073 0.0
C294 C 0.2282 0.04804 0.76761 0.0
C295 C 0.28887 0.97663 0.77007 0.0
C296 C 0.25954 0.95196 0.78653 0.0
H297 H 0.2967 0.03983 0.74763 0.0
H298 H 0.32313 0.95872 0.76352 0.0
S299 S 0.14016 1.0024 0.81193 0.0
N300 N 0.15606 0.04603 0.79322 0.0
N301 N 0.18483 0.95763 0.81056 0.0
C302 C 0.21544 0.97723 0.79439 0.0
C303 C 0.19986 0.02533 0.78499 0.0
C304 C 0.73362 0.48138 0.8325 0.0
C305 C 0.70882 0.52739 0.82655 0.0
C306 C 0.78106 0.46798 0.82352 0.0
C307 C 0.80617 0.50016 0.80832 0.0
H308 H 0.71676 0.45571 0.84458 0.0
H309 H 0.79895 0.43282 0.82928 0.0
S310 S 0.75588 0.62312 0.78574 0.0
N311 N 0.71144 0.60373 0.80323 0.0
N312 N 0.80102 0.57873 0.78649 0.0
C313 C 0.78091 0.54531 0.80141 0.0
C314 C 0.73219 0.55885 0.81048 0.0
C315 C 0.7054 0.23306 0.06859 0.0
C316 C 0.7446 0.2011 0.07744 0.0
C317 C 0.71701 0.27874 0.05754 0.0
C318 C 0.76828 0.29471 0.05526 0.0
H319 H 0.66539 0.22357 0.07084 0.0
H320 H 0.6855 0.30316 0.05198 0.0
S321 S 0.88516 0.22255 0.07315 0.0
N322 N 0.837 0.18661 0.08118 0.0
N323 N 0.85847 0.27297 0.06091 0.0
C324 C 0.80778 0.2619 0.0629 0.0
C325 C 0.79604 0.21497 0.07383 0.0
C326 C 0.02891 0.26634 0.34942 0.0
C327 C 0.07339 0.27935 0.33777 0.0
C328 C 0.97993 0.27214 0.33897 0.0
C329 C 0.97314 0.29148 0.31645 0.0
H330 H 0.03178 0.25022 0.36661 0.0
H331 H 0.94708 0.25999 0.34843 0.0
S332 S 0.07651 0.33453 0.27892 0.0
N333 N 0.10732 0.31516 0.30282 0.0
N334 N 0.0147 0.3262 0.28317 0.0
C335 C 0.01694 0.30712 0.30497 0.0
C336 C 0.06719 0.30098 0.31562 0.0
C337 C 0.99556 0.52871 0.59034 0.0
C338 C 0.03697 0.5544 0.58073 0.0
C339 C 0.98122 0.47876 0.58273 0.0
C340 C 0.00784 0.45205 0.56526 0.0
H341 H 0.97457 0.54679 0.60431 0.0
H342 H 0.95009 0.46038 0.59129 0.0
S343 S 0.11595 0.50359 0.5327 0.0
N344 N 0.10205 0.55066 0.55145 0.0
N345 N 0.07521 0.45648 0.53722 0.0
C346 C 0.04779 0.47804 0.55466 0.0
C347 C 0.06229 0.52924 0.56236 0.0
C348 C 0.78407 0.22319 0.50485 0.0
C349 C 0.77767 0.17154 0.49704 0.0
C350 C 0.83129 0.24164 0.51445 0.0
C351 C 0.87445 0.20941 0.51649 0.0
H352 H 0.75238 0.24991 0.50342 0.0
H353 H 0.83397 0.28183 0.52008 0.0
S354 S 0.87803 0.07053 0.49899 0.0
N355 N 0.81844 0.088 0.49231 0.0
N356 N 0.90736 0.12272 0.51026 0.0
C357 C 0.86857 0.15745 0.50894 0.0
C358 C 0.82018 0.13851 0.4993 0.0
C359 C 0.13067 0.32991 0.75222 0.0
C360 C 0.10448 0.28251 0.74909 0.0
C361 C 0.10487 0.37496 0.75889 0.0
C362 C 0.05178 0.37461 0.76277 0.0
H363 H 0.17145 0.33245 0.74938 0.0
H364 H 0.12708 0.41027 0.76126 0.0
S365 S 0.96502 0.26051 0.75666 0.0
N366 N 0.02207 0.23808 0.75024 0.0
N367 N 0.97374 0.32254 0.76266 0.0
C368 C 0.02501 0.32749 0.75956 0.0
C369 C 0.0513 0.28157 0.75279 0.0
C370 C 0.95275 0.57191 0.00067 0.0
C371 C 0.94097 0.61816 0.98956 0.0
C372 C 0.91413 0.5405 0.00896 0.0
C373 C 0.8619 0.55405 0.00666 0.0
H374 H 0.99224 0.55921 0.00272 0.0
H375 H 0.9255 0.50533 0.01728 0.0
S376 S 0.8104 0.6721 0.97948 0.0
N377 N 0.8732 0.67642 0.97705 0.0
N378 N 0.8006 0.61781 0.99273 0.0
C379 C 0.84955 0.60055 0.99579 0.0
C380 C 0.88899 0.63245 0.98723 0.0
C381 C 0.64503 0.42903 0.25759 0.0
C382 C 0.65362 0.4736 0.24501 0.0
C383 C 0.68596 0.39777 0.26509 0.0
C384 C 0.73706 0.40943 0.26 0.0
H385 H 0.60622 0.41738 0.26117 0.0
H386 H 0.67715 0.363 0.27404 0.0
S387 S 0.78101 0.52374 0.22914 0.0
N388 N 0.7179 0.52946 0.22914 0.0
N389 N 0.79436 0.47052 0.24298 0.0
C390 C 0.74644 0.45498 0.2483 0.0
C391 C 0.70489 0.48711 0.24089 0.0
C392 C 0.13307 0.12708 0.45965 0.0
C393 C 0.15454 0.11337 0.43818 0.0
C394 C 0.14959 0.10392 0.48037 0.0
C395 C 0.18752 0.06557 0.48034 0.0
H396 H 0.10572 0.15823 0.46081 0.0
H397 H 0.13392 0.11765 0.49664 0.0
S398 S 0.24801 0.00841 0.4279 0.0
N399 N 0.20993 0.05363 0.4176 0.0
N400 N 0.24066 0.00977 0.45638 0.0
C401 C 0.20556 0.04801 0.45863 0.0
C402 C 0.18903 0.07188 0.43758 0.0
C403 C 0.20352 0.75906 0.69335 0.0
C404 C 0.17322 0.71584 0.68649 0.0
C405 C 0.22273 0.76633 0.71639 0.0
C406 C 0.21149 0.73112 0.73356 0.0
H407 H 0.21061 0.78871 0.68104 0.0
H408 H 0.24422 0.80129 0.72101 0.0
S409 S 0.13872 0.60863 0.72403 0.0
N410 N 0.13683 0.63472 0.69813 0.0
N411 N 0.17234 0.64894 0.74173 0.0
C412 C 0.1838 0.68615 0.72669 0.0
C413 C 0.16492 0.67827 0.70303 0.0
C414 C 0.50543 0.63764 0.94814 0.0
C415 C 0.55186 0.61629 0.9409 0.0
C416 C 0.5009 0.65838 0.97077 0.0
C417 C 0.54239 0.65808 0.98736 0.0
H418 H 0.4719 0.63806 0.93625 0.0
H419 H 0.46398 0.67386 0.9754 0.0
S420 S 0.67322 0.6088 0.977 0.0
N421 N 0.641 0.59766 0.95183 0.0
N422 N 0.63224 0.63623 0.99475 0.0
C423 C 0.58941 0.63746 0.98036 0.0
C424 C 0.59426 0.61685 0.95703 0.0
C425 C 0.53418 0.05206 0.18996 0.0
C426 C 0.57658 0.08304 0.18497 0.0
C427 C 0.52384 0.0404 0.21303 0.0
C428 C 0.55613 0.05844 0.23189 0.0
H429 H 0.51041 0.03431 0.17588 0.0
H430 H 0.49279 0.01376 0.21591 0.0
S431 S 0.66582 0.14875 0.22899 0.0
N432 N 0.64614 0.13816 0.20142 0.0
N433 N 0.62765 0.11412 0.24463 0.0
C434 C 0.59607 0.09258 0.22743 0.0
C435 C 0.60595 0.10559 0.20399 0.0
C436 C 0.1219 0.76815 0.90087 0.0
C437 C 0.07745 0.73697 0.90125 0.0
C438 C 0.14669 0.77583 0.87994 0.0
C439 C 0.12822 0.75216 0.85876 0.0
H440 H 0.13976 0.7839 0.91702 0.0
H441 H 0.18266 0.7971 0.8807 0.0
S442 S 0.00723 0.67727 0.84911 0.0
N443 N 0.01102 0.69049 0.87755 0.0
N444 N 0.05888 0.70352 0.8386 0.0
C445 C 0.08145 0.72508 0.85847 0.0
C446 C 0.05563 0.71802 0.87962 0.0
C447 C 0.50266 0.5355 0.13413 0.0
C448 C 0.48619 0.56174 0.15434 0.0
C449 C 0.51597 0.56247 0.11439 0.0
C450 C 0.51175 0.61633 0.11407 0.0
H451 H 0.50564 0.49393 0.13366 0.0
H452 H 0.52924 0.54111 0.09925 0.0
S453 S 0.46884 0.70251 0.16221 0.0
N454 N 0.46569 0.64422 0.17267 0.0
N455 N 0.48956 0.6948 0.13545 0.0
C456 C 0.49475 0.64282 0.13403 0.0
C457 C 0.48226 0.61552 0.15424 0.0
C458 C 0.6337 0.99678 0.38892 0.0
C459 C 0.60718 0.97584 0.40733 0.0
C460 C 0.6147 0.99159 0.36567 0.0
C461 C 0.56844 0.96498 0.35984 0.0
H462 H 0.66782 0.02011 0.39255 0.0
H463 H 0.63544 0.01041 0.35236 0.0
S464 S 0.48882 0.89559 0.40116 0.0
N465 N 0.53567 0.92224 0.41784 0.0
N466 N 0.49989 0.91194 0.37425 0.0
C467 C 0.54361 0.94049 0.3779 0.0
C468 C 0.56299 0.94597 0.40158 0.0
C469 C 0.3182 0.10693 0.64652 0.0
C470 C 0.29226 0.14932 0.65636 0.0
C471 C 0.31087 0.09256 0.62278 0.0
C472 C 0.27667 0.11957 0.6081 0.0
H473 H 0.34157 0.08246 0.65757 0.0
H474 H 0.32877 0.05755 0.6164 0.0
S475 S 0.20894 0.24021 0.62357 0.0
N476 N 0.23864 0.22384 0.64826 0.0
N477 N 0.22349 0.19534 0.60386 0.0
C478 C 0.25453 0.16484 0.61704 0.0
C479 C 0.26285 0.18024 0.64111 0.0
C480 C 0.57389 0.46083 0.94011 0.0
C481 C 0.59866 0.42784 0.92415 0.0
C482 C 0.59246 0.46728 0.96333 0.0
C483 C 0.63558 0.43997 0.97167 0.0
H484 H 0.54266 0.48523 0.93426 0.0
H485 H 0.57475 0.49618 0.97441 0.0
S486 S 0.70605 0.33956 0.9385 0.0
N487 N 0.66277 0.3611 0.91936 0.0
N488 N 0.69688 0.37205 0.96325 0.0
C489 C 0.6566 0.40219 0.95673 0.0
C490 C 0.63823 0.39632 0.93291 0.0
C491 C 0.80525 0.15121 0.18537 0.0
C492 C 0.78186 0.10285 0.18782 0.0
C493 C 0.82027 0.1823 0.20494 0.0
C494 C 0.81288 0.16621 0.22775 0.0
H495 H 0.80887 0.16692 0.16826 0.0
H496 H 0.83526 0.22038 0.20203 0.0
S497 S 0.76386 0.03816 0.24363 0.0
N498 N 0.75963 0.0369 0.21478 0.0
N499 N 0.78847 0.09505 0.25163 0.0
C500 C 0.79458 0.11573 0.23045 0.0
C501 C 0.779 0.08411 0.21046 0.0
C502 C 0.18791 0.2557 0.46101 0.0
C503 C 0.17037 0.29566 0.44674 0.0
C504 C 0.16541 0.24656 0.48231 0.0
C505 C 0.12496 0.27723 0.49028 0.0
H506 H 0.21627 0.2286 0.4549 0.0
H507 H 0.17801 0.21354 0.49199 0.0
S508 S 0.07298 0.39351 0.46207 0.0
N509 N 0.11594 0.37108 0.44398 0.0
N510 N 0.07411 0.35424 0.48411 0.0
C511 C 0.11108 0.32067 0.4775 0.0
C512 C 0.13366 0.32973 0.4557 0.0
C513 C 0.94566 0.61652 0.69611 0.0
C514 C 0.97502 0.65914 0.68983 0.0
C515 C 0.94991 0.59744 0.7187 0.0
C516 C 0.98418 0.61987 0.73582 0.0
H517 H 0.92165 0.59554 0.68305 0.0
H518 H 0.92918 0.56248 0.72217 0.0
S519 S 0.06014 0.73946 0.73036 0.0
N520 N 0.03235 0.72888 0.70414 0.0
N521 N 0.04097 0.69209 0.74644 0.0
C522 C 0.0098 0.66544 0.7306 0.0
C523 C 0.00493 0.68544 0.70766 0.0
C524 C 0.70148 0.19697 0.38741 0.0
C525 C 0.71602 0.14874 0.39579 0.0
C526 C 0.7178 0.21319 0.36571 0.0
C527 C 0.74842 0.1813 0.35162 0.0
H528 H 0.6792 0.22304 0.39806 0.0
H529 H 0.70781 0.25154 0.36035 0.0
S530 S 0.78935 0.04795 0.36421 0.0
N531 N 0.7583 0.06738 0.38736 0.0
N532 N 0.78713 0.09671 0.34657 0.0
C533 C 0.76012 0.13166 0.35926 0.0
C534 C 0.74443 0.1157 0.38136 0.0
C535 C 0.07545 0.24623 0.65367 0.0
C536 C 0.10241 0.2008 0.65829 0.0
C537 C 0.05425 0.2552 0.6314 0.0
C538 C 0.05984 0.21944 0.61267 0.0
H539 H 0.07251 0.27619 0.66718 0.0
H540 H 0.03551 0.29175 0.62866 0.0
S541 S 0.12182 0.09153 0.61636 0.0
N542 N 0.12955 0.11733 0.64306 0.0
N543 N 0.09011 0.13438 0.60081 0.0
C544 C 0.08417 0.1724 0.61734 0.0
C545 C 0.10519 0.16294 0.64028 0.0
C546 C 0.09169 0.57809 0.89141 0.0
C547 C 0.06918 0.55142 0.90941 0.0
C548 C 0.07671 0.56814 0.86787 0.0
C549 C 0.03857 0.53117 0.8614 0.0
H550 H 0.11929 0.60881 0.8955 0.0
H551 H 0.09412 0.59071 0.85477 0.0
S552 S 0.9727 0.44603 0.90176 0.0
N553 N 0.01077 0.48297 0.91904 0.0
N554 N 0.98223 0.46421 0.87498 0.0
C555 C 0.01801 0.5021 0.87918 0.0
C556 C 0.03339 0.51222 0.90312 0.0
C557 C 0.6448 0.5619 0.12456 0.0
C558 C 0.65324 0.52969 0.14355 0.0
C559 C 0.66587 0.55039 0.10292 0.0
C560 C 0.69768 0.50743 0.09985 0.0
H561 H 0.62056 0.59541 0.12621 0.0
H562 H 0.65719 0.57522 0.0885 0.0
S563 S 0.73646 0.41407 0.14472 0.0
N564 N 0.69843 0.45484 0.15828 0.0
N565 N 0.73933 0.43429 0.11782 0.0
C566 C 0.70874 0.47648 0.11901 0.0
C567 C 0.68629 0.48742 0.14085 0.0
loop_
_geom_bond_atom_site_label_1
_geom_bond_atom_site_label_2
_geom_bond_distance
_geom_bond_site_symmetry_2
_ccdc_geom_bond_type
Mg0 O7 2.141 . S
Mg0 O8 2.048 . S
Mg0 O9 2.048 . S
Mg0 O12 2.141 . S
C1 O2 1.313 . S
C1 O8 1.195 . S
O2 C1 1.313 . S
C3 O4 1.245 . S
C3 O12 1.289 . S
O4 C3 1.245 . S
C5 O6 1.245 . S
C5 O7 1.289 . S
O6 C5 1.245 . S
O7 Mg0 2.141 . S
O7 C5 1.289 . S
O8 Mg0 2.048 . S
O8 C1 1.195 . S
O9 Mg0 2.048 . S
O9 C10 1.195 . S
C10 O9 1.195 . S
C10 O11 1.313 . S
O11 C10 1.313 . S
O12 Mg0 2.141 . S
O12 C3 1.289 . S
Mg13 O20 2.141 . S
Mg13 O21 2.048 . S
Mg13 O22 2.044 1_455 S
Mg13 O25 2.141 . S
C14 O15 1.313 . S
C14 O21 1.195 . S
O15 C14 1.313 . S
C16 O17 1.245 . S
C16 O25 1.289 . S
O17 C16 1.245 . S
C18 O19 1.245 . S
C18 O20 1.289 . S
O19 C18 1.245 . S
O20 Mg13 2.141 . S
O20 C18 1.289 . S
O21 Mg13 2.048 . S
O21 C14 1.195 . S
O22 Mg13 2.044 1_655 S
O22 C23 1.194 1_655 S
C23 O22 1.194 1_455 S
C23 O24 1.313 . S
O24 C23 1.313 . S
O25 Mg13 2.141 . S
O25 C16 1.289 . S
Mg26 O33 2.141 . S
Mg26 O34 2.048 . S
Mg26 O35 2.048 . S
Mg26 O38 2.141 . S
C27 O28 1.313 . S
C27 O34 1.195 . S
O28 C27 1.313 . S
C29 O30 1.245 . S
C29 O38 1.289 . S
O30 C29 1.245 . S
C31 O32 1.245 . S
C31 O33 1.289 . S
O32 C31 1.245 . S
O33 Mg26 2.141 . S
O33 C31 1.289 . S
O34 Mg26 2.048 . S
O34 C27 1.195 . S
O35 Mg26 2.048 . S
O35 C36 1.195 . S
C36 O35 1.195 . S
C36 O37 1.313 . S
O37 C36 1.313 . S
O38 Mg26 2.141 . S
O38 C29 1.289 . S
Mg39 O46 2.141 . S
Mg39 O47 2.048 . S
Mg39 O48 2.048 1_545 S
Mg39 O51 2.141 1_545 S
C40 O41 1.313 . S
C40 O47 1.195 . S
O41 C40 1.313 . S
C42 O43 1.245 . S
C42 O51 1.289 . S
O43 C42 1.245 . S
C44 O45 1.245 . S
C44 O46 1.289 . S
O45 C44 1.245 . S
O46 Mg39 2.141 . S
O46 C44 1.289 . S
O47 Mg39 2.048 . S
O47 C40 1.195 . S
O48 Mg39 2.048 1_565 S
O48 C49 1.195 . S
C49 O48 1.195 . S
C49 O50 1.313 . S
O50 C49 1.313 . S
O51 Mg39 2.141 1_565 S
O51 C42 1.289 . S
Mg52 O59 2.141 . S
Mg52 O60 2.048 . S
Mg52 O61 2.048 1_455 S
Mg52 O64 2.141 1_455 S
C53 O54 1.313 . S
C53 O60 1.195 . S
O54 C53 1.313 . S
C55 O56 1.245 . S
C55 O64 1.289 . S
O56 C55 1.245 . S
C57 O58 1.245 . S
C57 O59 1.289 . S
O58 C57 1.245 . S
O59 Mg52 2.141 . S
O59 C57 1.289 . S
O60 Mg52 2.048 . S
O60 C53 1.195 . S
O61 Mg52 2.048 1_655 S
O61 C62 1.195 . S
C62 O61 1.195 . S
C62 O63 1.313 . S
O63 C62 1.313 . S
O64 Mg52 2.141 1_655 S
O64 C55 1.289 . S
Mg65 O72 2.141 . S
Mg65 O73 2.048 . S
Mg65 O74 2.048 . S
Mg65 O77 2.141 . S
C66 O67 1.313 . S
C66 O73 1.195 . S
O67 C66 1.313 . S
C68 O69 1.245 . S
C68 O77 1.289 . S
O69 C68 1.245 . S
C70 O71 1.245 . S
C70 O72 1.289 . S
O71 C70 1.245 . S
O72 Mg65 2.141 . S
O72 C70 1.289 . S
O73 Mg65 2.048 . S
O73 C66 1.195 . S
O74 Mg65 2.048 . S
O74 C75 1.195 . S
C75 O74 1.195 . S
C75 O76 1.313 . S
O76 C75 1.313 . S
O77 Mg65 2.141 . S
O77 C68 1.289 . S
Mg78 O85 2.141 . S
Mg78 O86 2.048 . S
Mg78 O87 2.048 1_545 S
Mg78 O90 2.141 1_545 S
C79 O80 1.313 . S
C79 O86 1.195 . S
O80 C79 1.313 . S
C81 O82 1.245 . S
C81 O90 1.289 1_545 S
O82 C81 1.245 . S
C83 O84 1.245 . S
C83 O85 1.289 . S
O84 C83 1.245 . S
O85 Mg78 2.141 . S
O85 C83 1.289 . S
O86 Mg78 2.048 . S
O86 C79 1.195 . S
O87 Mg78 2.048 1_565 S
O87 C88 1.195 . S
C88 O87 1.195 . S
C88 O89 1.313 1_565 S
O89 C88 1.313 1_545 S
O90 Mg78 2.141 1_565 S
O90 C81 1.289 1_565 S
Mg91 O98 2.141 . S
Mg91 O99 2.048 . S
Mg91 O100 2.048 . S
Mg91 O103 2.141 . S
C92 O93 1.313 . S
C92 O99 1.195 . S
O93 C92 1.313 . S
C94 O95 1.245 . S
C94 O103 1.289 . S
O95 C94 1.245 . S
C96 O97 1.245 . S
C96 O98 1.289 . S
O97 C96 1.245 . S
O98 Mg91 2.141 . S
O98 C96 1.289 . S
O99 Mg91 2.048 . S
O99 C92 1.195 . S
O100 Mg91 2.048 . S
O100 C101 1.195 . S
C101 O100 1.195 . S
C101 O102 1.313 . S
O102 C101 1.313 . S
O103 Mg91 2.141 . S
O103 C94 1.289 . S
O104 Cd105 2.223 . S
O104 C112 1.315 . S
Cd105 O104 2.223 . S
Cd105 O108 2.297 . S
Cd105 O109 2.439 . S
Cd105 O115 2.240 . S
Cd106 O107 2.240 . S
Cd106 O114 2.223 . S
Cd106 O116 2.297 . S
Cd106 O117 2.439 . S
O107 Cd106 2.240 . S
O107 C112 1.279 . S
O108 Cd105 2.297 . S
O108 C110 1.247 . S
O109 Cd105 2.439 . S
O109 C110 1.208 . S
C110 O108 1.247 . S
C110 O109 1.208 . S
C111 O116 1.247 . S
C111 O117 1.208 . S
C112 O104 1.315 . S
C112 O107 1.279 . S
C113 O114 1.315 . S
C113 O115 1.279 . S
O114 Cd106 2.223 . S
O114 C113 1.315 . S
O115 Cd105 2.240 . S
O115 C113 1.279 . S
O116 Cd106 2.297 . S
O116 C111 1.247 . S
O117 Cd106 2.439 . S
O117 C111 1.208 . S
O118 Cd119 2.223 . S
O118 C126 1.315 . S
Cd119 O118 2.223 . S
Cd119 O122 2.297 . S
Cd119 O123 2.439 . S
Cd119 O129 2.240 . S
Cd120 O121 2.240 . S
Cd120 O128 2.223 . S
Cd120 O130 2.297 . S
Cd120 O131 2.439 . S
O121 Cd120 2.240 . S
O121 C126 1.279 . S
O122 Cd119 2.297 . S
O122 C124 1.247 . S
O123 Cd119 2.439 . S
O123 C124 1.208 . S
C124 O122 1.247 . S
C124 O123 1.208 . S
C125 O130 1.247 . S
C125 O131 1.208 . S
C126 O118 1.315 . S
C126 O121 1.279 . S
C127 O128 1.315 . S
C127 O129 1.279 . S
O128 Cd120 2.223 . S
O128 C127 1.315 . S
O129 Cd119 2.240 . S
O129 C127 1.279 . S
O130 Cd120 2.297 . S
O130 C125 1.247 . S
O131 Cd120 2.439 . S
O131 C125 1.208 . S
O132 Cd133 2.223 . S
O132 C140 1.315 . S
Cd133 O132 2.223 . S
Cd133 O136 2.297 . S
Cd133 O137 2.439 1_565 S
Cd133 O143 2.240 . S
Cd134 O135 2.240 . S
Cd134 O142 2.223 1_545 S
Cd134 O144 2.297 . S
Cd134 O145 2.439 . S
O135 Cd134 2.240 . S
O135 C140 1.279 1_545 S
O136 Cd133 2.297 . S
O136 C138 1.247 . S
O137 Cd133 2.439 1_545 S
O137 C138 1.208 1_545 S
C138 O136 1.247 . S
C138 O137 1.208 1_565 S
C139 O144 1.247 . S
C139 O145 1.208 . S
C140 O132 1.315 . S
C140 O135 1.279 1_565 S
C141 O142 1.315 . S
C141 O143 1.279 . S
O142 Cd134 2.223 1_565 S
O142 C141 1.315 . S
O143 Cd133 2.240 . S
O143 C141 1.279 . S
O144 Cd134 2.297 . S
O144 C139 1.247 . S
O145 Cd134 2.439 . S
O145 C139 1.208 . S
O146 Cd147 2.223 . S
O146 C154 1.315 . S
Cd147 O146 2.223 . S
Cd147 O150 2.297 1_565 S
Cd147 O151 2.439 . S
Cd147 O157 2.240 . S
Cd148 O149 2.240 . S
Cd148 O156 2.223 . S
Cd148 O158 2.297 . S
Cd148 O159 2.439 . S
O149 Cd148 2.240 . S
O149 C154 1.279 . S
O150 Cd147 2.297 1_545 S
O150 C152 1.247 . S
O151 Cd147 2.439 . S
O151 C152 1.208 1_565 S
C152 O150 1.247 . S
C152 O151 1.208 1_545 S
C153 O158 1.247 . S
C153 O159 1.208 . S
C154 O146 1.315 . S
C154 O149 1.279 . S
C155 O156 1.315 . S
C155 O157 1.279 . S
O156 Cd148 2.223 . S
O156 C155 1.315 . S
O157 Cd147 2.240 . S
O157 C155 1.279 . S
O158 Cd148 2.297 . S
O158 C153 1.247 . S
O159 Cd148 2.439 . S
O159 C153 1.208 . S
O160 Cd161 2.223 . S
O160 C168 1.315 . S
Cd161 O160 2.223 . S
Cd161 O164 2.297 . S
Cd161 O165 2.439 1_655 S
Cd161 O171 2.240 . S
Cd162 O163 2.240 . S
Cd162 O170 2.223 1_455 S
Cd162 O172 2.297 . S
Cd162 O173 2.439 . S
O163 Cd162 2.240 . S
O163 C168 1.279 1_455 S
O164 Cd161 2.297 . S
O164 C166 1.247 . S
O165 Cd161 2.439 1_455 S
O165 C166 1.208 1_455 S
C166 O164 1.247 . S
C166 O165 1.208 1_655 S
C167 O172 1.247 . S
C167 O173 1.208 . S
C168 O160 1.315 . S
C168 O163 1.279 1_655 S
C169 O170 1.315 . S
C169 O171 1.279 . S
O170 Cd162 2.223 1_655 S
O170 C169 1.315 . S
O171 Cd161 2.240 . S
O171 C169 1.279 . S
O172 Cd162 2.297 . S
O172 C167 1.247 . S
O173 Cd162 2.439 . S
O173 C167 1.208 . S
O174 Cd175 2.223 . S
O174 C182 1.315 . S
Cd175 O174 2.223 . S
Cd175 O178 2.297 . S
Cd175 O179 2.439 . S
Cd175 O185 2.240 . S
Cd176 O177 2.240 . S
Cd176 O184 2.223 . S
Cd176 O186 2.297 . S
Cd176 O187 2.439 . S
O177 Cd176 2.240 . S
O177 C182 1.279 . S
O178 Cd175 2.297 . S
O178 C180 1.247 . S
O179 Cd175 2.439 . S
O179 C180 1.208 . S
C180 O178 1.247 . S
C180 O179 1.208 . S
C181 O186 1.247 . S
C181 O187 1.208 . S
C182 O174 1.315 . S
C182 O177 1.279 . S
C183 O184 1.315 . S
C183 O185 1.279 . S
O184 Cd176 2.223 . S
O184 C183 1.315 . S
O185 Cd175 2.240 . S
O185 C183 1.279 . S
O186 Cd176 2.297 . S
O186 C181 1.247 . S
O187 Cd176 2.439 . S
O187 C181 1.208 . S
O188 Cd189 2.223 . S
O188 C196 1.315 . S
Cd189 O188 2.223 . S
Cd189 O192 2.297 . S
Cd189 O193 2.439 . S
Cd189 O199 2.240 . S
Cd190 O191 2.240 . S
Cd190 O198 2.223 . S
Cd190 O200 2.297 1_554 S
Cd190 O201 2.439 1_554 S
O191 Cd190 2.240 . S
O191 C196 1.279 . S
O192 Cd189 2.297 . S
O192 C194 1.247 . S
O193 Cd189 2.439 . S
O193 C194 1.208 . S
C194 O192 1.247 . S
C194 O193 1.208 . S
C195 O200 1.247 . S
C195 O201 1.208 . S
C196 O188 1.315 . S
C196 O191 1.279 . S
C197 O198 1.315 . S
C197 O199 1.279 . S
O198 Cd190 2.223 . S
O198 C197 1.315 . S
O199 Cd189 2.240 . S
O199 C197 1.279 . S
O200 Cd190 2.297 1_556 S
O200 C195 1.247 . S
O201 Cd190 2.439 1_556 S
O201 C195 1.208 . S
O202 Cd203 2.223 . S
O202 C210 1.315 . S
Cd203 O202 2.223 . S
Cd203 O206 2.297 . S
Cd203 O207 2.439 . S
Cd203 O213 2.240 . S
Cd204 O205 2.240 . S
Cd204 O212 2.223 . S
Cd204 O214 2.297 . S
Cd204 O215 2.439 . S
O205 Cd204 2.240 . S
O205 C210 1.279 . S
O206 Cd203 2.297 . S
O206 C208 1.247 . S
O207 Cd203 2.439 . S
O207 C208 1.208 . S
C208 O206 1.247 . S
C208 O207 1.208 . S
C209 O214 1.247 . S
C209 O215 1.208 . S
C210 O202 1.315 . S
C210 O205 1.279 . S
C211 O212 1.315 . S
C211 O213 1.279 . S
O212 Cd204 2.223 . S
O212 C211 1.315 . S
O213 Cd203 2.240 . S
O213 C211 1.279 . S
O214 Cd204 2.297 . S
O214 C209 1.247 . S
O215 Cd204 2.439 . S
O215 C209 1.208 . S
C216 C217 1.369 1_565 S
C216 C218 1.419 . S
C216 H220 0.930 . S
C217 C216 1.369 1_545 S
C217 C226 1.429 . S
C218 C216 1.419 . S
C218 C219 1.363 . S
C218 H221 0.929 . S
C219 C218 1.363 . S
C219 C225 1.445 . S
H220 C216 0.930 . S
H221 C218 0.929 . S
S222 N223 1.613 . S
S222 N224 1.610 . S
N223 S222 1.613 . S
N223 C226 1.350 . S
N224 S222 1.610 . S
N224 C225 1.343 1_545 S
C225 C219 1.445 . S
C225 N224 1.343 1_565 S
C225 C226 1.424 1_565 S
C226 C217 1.429 . S
C226 N223 1.350 . S
C226 C225 1.424 1_545 S
C227 C228 1.369 . S
C227 C229 1.419 . S
C227 H231 0.930 . S
C228 C227 1.369 . S
C228 C237 1.429 . S
C229 C227 1.419 . S
C229 C230 1.363 . S
C229 H232 0.929 . S
C230 C229 1.363 . S
C230 C236 1.428 . S
H231 C227 0.930 . S
H232 C229 0.929 . S
S233 N234 1.613 . S
S233 N235 1.610 . S
N234 S233 1.613 . S
N234 C237 1.350 . S
N235 S233 1.610 . S
N235 C236 1.351 . S
C236 C230 1.428 . S
C236 N235 1.351 . S
C236 C237 1.434 . S
C237 C228 1.429 . S
C237 N234 1.350 . S
C237 C236 1.434 . S
C238 C239 1.369 . S
C238 C240 1.419 . S
C238 H242 0.930 . S
C239 C238 1.369 . S
C239 C248 1.429 . S
C240 C238 1.419 . S
C240 C241 1.363 . S
C240 H243 0.929 . S
C241 C240 1.363 . S
C241 C247 1.428 . S
H242 C238 0.930 . S
H243 C240 0.929 . S
S244 N245 1.613 . S
S244 N246 1.610 . S
N245 S244 1.613 . S
N245 C248 1.350 . S
N246 S244 1.610 . S
N246 C247 1.351 . S
C247 C241 1.428 . S
C247 N246 1.351 . S
C247 C248 1.434 . S
C248 C239 1.429 . S
C248 N245 1.350 . S
C248 C247 1.434 . S
C249 C250 1.369 . S
C249 C251 1.419 . S
C249 H253 0.930 . S
C250 C249 1.369 . S
C250 C259 1.429 . S
C251 C249 1.419 . S
C251 C252 1.363 . S
C251 H254 0.929 . S
C252 C251 1.363 . S
C252 C258 1.428 . S
H253 C249 0.930 . S
H254 C251 0.929 . S
S255 N256 1.613 . S
S255 N257 1.610 . S
N256 S255 1.613 . S
N256 C259 1.350 . S
N257 S255 1.610 . S
N257 C258 1.351 . S
C258 C252 1.428 . S
C258 N257 1.351 . S
C258 C259 1.434 . S
C259 C250 1.429 . S
C259 N256 1.350 . S
C259 C258 1.434 . S
C260 C261 1.369 . S
C260 C262 1.419 . S
C260 H264 0.930 . S
C261 C260 1.369 . S
C261 C270 1.429 . S
C262 C260 1.419 . S
C262 C263 1.363 . S
C262 H265 0.929 . S
C263 C262 1.363 . S
C263 C269 1.428 . S
H264 C260 0.930 . S
H265 C262 0.929 . S
S266 N267 1.613 . S
S266 N268 1.610 . S
N267 S266 1.613 . S
N267 C270 1.350 . S
N268 S266 1.610 . S
N268 C269 1.351 . S
C269 C263 1.428 . S
C269 N268 1.351 . S
C269 C270 1.434 . S
C270 C261 1.429 . S
C270 N267 1.350 . S
C270 C269 1.434 . S
C271 C272 1.369 . S
C271 C273 1.419 . S
C271 H275 0.930 . S
C272 C271 1.369 . S
C272 C281 1.429 . S
C273 C271 1.419 . S
C273 C274 1.363 . S
C273 H276 0.929 . S
C274 C273 1.363 . S
C274 C280 1.428 . S
H275 C271 0.930 . S
H276 C273 0.929 . S
S277 N278 1.613 . S
S277 N279 1.610 . S
N278 S277 1.613 . S
N278 C281 1.350 . S
N279 S277 1.610 . S
N279 C280 1.351 . S
C280 C274 1.428 . S
C280 N279 1.351 . S
C280 C281 1.434 . S
C281 C272 1.429 . S
C281 N278 1.350 . S
C281 C280 1.434 . S
C282 C283 1.369 . S
C282 C284 1.419 . S
C282 H286 0.930 . S
C283 C282 1.369 . S
C283 C292 1.429 1_545 S
C284 C282 1.419 . S
C284 C285 1.363 . S
C284 H287 0.929 . S
C285 C284 1.363 . S
C285 C291 1.428 1_545 S
H286 C282 0.930 . S
H287 C284 0.929 . S
S288 N289 1.613 . S
S288 N290 1.610 . S
N289 S288 1.613 . S
N289 C292 1.350 . S
N290 S288 1.610 . S
N290 C291 1.351 . S
C291 C285 1.428 1_565 S
C291 N290 1.351 . S
C291 C292 1.434 . S
C292 C283 1.429 1_565 S
C292 N289 1.350 . S
C292 C291 1.434 . S
C293 C294 1.369 . S
C293 C295 1.419 . S
C293 H297 0.930 . S
C294 C293 1.369 . S
C294 C303 1.429 . S
C295 C293 1.419 . S
C295 C296 1.363 . S
C295 H298 0.929 . S
C296 C295 1.363 . S
C296 C302 1.428 . S
H297 C293 0.930 . S
H298 C295 0.929 . S
S299 N300 1.613 . S
S299 N301 1.610 . S
N300 S299 1.613 . S
N300 C303 1.350 . S
N301 S299 1.610 . S
N301 C302 1.351 . S
C302 C296 1.428 . S
C302 N301 1.351 . S
C302 C303 1.434 . S
C303 C294 1.429 . S
C303 N300 1.350 . S
C303 C302 1.434 . S
C304 C305 1.369 . S
C304 C306 1.419 . S
C304 H308 0.930 . S
C305 C304 1.369 . S
C305 C314 1.429 . S
C306 C304 1.419 . S
C306 C307 1.363 . S
C306 H309 0.929 . S
C307 C306 1.363 . S
C307 C313 1.428 . S
H308 C304 0.930 . S
H309 C306 0.929 . S
S310 N311 1.613 . S
S310 N312 1.610 . S
N311 S310 1.613 . S
N311 C314 1.350 . S
N312 S310 1.610 . S
N312 C313 1.351 . S
C313 C307 1.428 . S
C313 N312 1.351 . S
C313 C314 1.434 . S
C314 C305 1.429 . S
C314 N311 1.350 . S
C314 C313 1.434 . S
C315 C316 1.369 . S
C315 C317 1.419 . S
C315 H319 0.930 . S
C316 C315 1.369 . S
C316 C325 1.429 . S
C317 C315 1.419 . S
C317 C318 1.363 . S
C317 H320 0.929 . S
C318 C317 1.363 . S
C318 C324 1.428 . S
H319 C315 0.930 . S
H320 C317 0.929 . S
S321 N322 1.613 . S
S321 N323 1.610 . S
N322 S321 1.613 . S
N322 C325 1.350 . S
N323 S321 1.610 . S
N323 C324 1.351 . S
C324 C318 1.428 . S
C324 N323 1.351 . S
C324 C325 1.434 . S
C325 C316 1.429 . S
C325 N322 1.350 . S
C325 C324 1.434 . S
C326 C327 1.369 . S
C326 C328 1.419 . S
C326 H330 0.930 . S
C327 C326 1.369 . S
C327 C336 1.429 . S
C328 C326 1.419 . S
C328 C329 1.363 . S
C328 H331 0.929 . S
C329 C328 1.363 . S
C329 C335 1.428 . S
H330 C326 0.930 . S
H331 C328 0.929 . S
S332 N333 1.613 . S
S332 N334 1.610 . S
N333 S332 1.613 . S
N333 C336 1.350 . S
N334 S332 1.610 . S
N334 C335 1.351 . S
C335 C329 1.428 . S
C335 N334 1.351 . S
C335 C336 1.434 . S
C336 C327 1.429 . S
C336 N333 1.350 . S
C336 C335 1.434 . S
C337 C338 1.369 1_655 S
C337 C339 1.419 . S
C337 H341 0.930 . S
C338 C337 1.369 1_455 S
C338 C347 1.429 . S
C339 C337 1.419 . S
C339 C340 1.363 1_655 S
C339 H342 0.929 . S
C340 C339 1.363 1_455 S
C340 C346 1.428 . S
H341 C337 0.930 . S
H342 C339 0.929 . S
S343 N344 1.613 . S
S343 N345 1.610 . S
N344 S343 1.613 . S
N344 C347 1.350 . S
N345 S343 1.610 . S
N345 C346 1.351 . S
C346 C340 1.428 . S
C346 N345 1.351 . S
C346 C347 1.434 . S
C347 C338 1.429 . S
C347 N344 1.350 . S
C347 C346 1.434 . S
C348 C349 1.369 . S
C348 C350 1.419 . S
C348 H352 0.930 . S
C349 C348 1.369 . S
C349 C358 1.429 . S
C350 C348 1.419 . S
C350 C351 1.363 . S
C350 H353 0.929 . S
C351 C350 1.363 . S
C351 C357 1.428 . S
H352 C348 0.930 . S
H353 C350 0.929 . S
S354 N355 1.613 . S
S354 N356 1.610 . S
N355 S354 1.613 . S
N355 C358 1.350 . S
N356 S354 1.610 . S
N356 C357 1.351 . S
C357 C351 1.428 . S
C357 N356 1.351 . S
C357 C358 1.434 . S
C358 C349 1.429 . S
C358 N355 1.350 . S
C358 C357 1.434 . S
C359 C360 1.369 . S
C359 C361 1.419 1_455 S
C359 H363 0.930 . S
C360 C359 1.369 . S
C360 C369 1.429 . S
C361 C359 1.419 1_655 S
C361 C362 1.363 . S
C361 H364 0.929 . S
C362 C361 1.363 . S
C362 C368 1.428 . S
H363 C359 0.930 . S
H364 C361 0.929 . S
S365 N366 1.613 . S
S365 N367 1.610 1_455 S
N366 S365 1.613 . S
N366 C369 1.350 . S
N367 S365 1.610 1_655 S
N367 C368 1.351 . S
C368 C362 1.428 . S
C368 N367 1.351 . S
C368 C369 1.434 1_655 S
C369 C360 1.429 . S
C369 N366 1.350 . S
C369 C368 1.434 1_455 S
C370 C371 1.369 . S
C370 C372 1.419 1_556 S
C370 H374 0.930 . S
C371 C370 1.369 . S
C371 C380 1.435 . S
C372 C370 1.419 1_554 S
C372 C373 1.363 . S
C372 H375 0.929 . S
C373 C372 1.363 . S
C373 C379 1.428 . S
H374 C370 0.930 . S
H375 C372 0.929 . S
S376 N377 1.624 . S
S376 N378 1.610 . S
N377 S376 1.624 . S
N377 C380 1.350 1_554 S
N378 S376 1.610 . S
N378 C379 1.351 . S
C379 C373 1.428 . S
C379 N378 1.351 . S
C379 C380 1.426 1_554 S
C380 C371 1.435 . S
C380 N377 1.350 1_556 S
C380 C379 1.426 1_556 S
C381 C382 1.369 . S
C381 C383 1.419 . S
C381 H385 0.930 . S
C382 C381 1.369 . S
C382 C391 1.429 . S
C383 C381 1.419 . S
C383 C384 1.363 . S
C383 H386 0.929 . S
C384 C383 1.363 . S
C384 C390 1.428 . S
H385 C381 0.930 . S
H386 C383 0.929 . S
S387 N388 1.613 . S
S387 N389 1.610 . S
N388 S387 1.613 . S
N388 C391 1.350 . S
N389 S387 1.610 . S
N389 C390 1.351 . S
C390 C384 1.428 . S
C390 N389 1.351 . S
C390 C391 1.434 . S
C391 C382 1.429 . S
C391 N388 1.350 . S
C391 C390 1.434 . S
C392 C393 1.369 . S
C392 C394 1.419 . S
C392 H396 0.930 . S
C393 C392 1.369 . S
C393 C402 1.429 . S
C394 C392 1.419 . S
C394 C395 1.363 . S
C394 H397 0.929 1_545 S
C395 C394 1.363 . S
C395 C401 1.428 . S
H396 C392 0.930 . S
H397 C394 0.929 1_565 S
S398 N399 1.613 . S
S398 N400 1.610 . S
N399 S398 1.613 . S
N399 C402 1.350 . S
N400 S398 1.610 . S
N400 C401 1.351 . S
C401 C395 1.428 . S
C401 N400 1.351 . S
C401 C402 1.434 . S
C402 C393 1.429 . S
C402 N399 1.350 . S
C402 C401 1.434 . S
C403 C404 1.369 . S
C403 C405 1.419 . S
C403 H407 0.930 . S
C404 C403 1.369 . S
C404 C413 1.429 . S
C405 C403 1.419 . S
C405 C406 1.363 . S
C405 H408 0.929 . S
C406 C405 1.363 . S
C406 C412 1.428 . S
H407 C403 0.930 . S
H408 C405 0.929 . S
S409 N410 1.613 . S
S409 N411 1.610 . S
N410 S409 1.613 . S
N410 C413 1.350 . S
N411 S409 1.610 . S
N411 C412 1.351 . S
C412 C406 1.428 . S
C412 N411 1.351 . S
C412 C413 1.434 . S
C413 C404 1.429 . S
C413 N410 1.350 . S
C413 C412 1.434 . S
C414 C415 1.369 . S
C414 C416 1.419 . S
C414 H418 0.930 . S
C415 C414 1.369 . S
C415 C424 1.429 . S
C416 C414 1.419 . S
C416 C417 1.363 . S
C416 H419 0.929 . S
C417 C416 1.363 . S
C417 C423 1.428 . S
H418 C414 0.930 . S
H419 C416 0.929 . S
S420 N421 1.613 . S
S420 N422 1.610 1_556 S
N421 S420 1.613 . S
N421 C424 1.350 . S
N422 S420 1.610 1_554 S
N422 C423 1.351 1_554 S
C423 C417 1.428 . S
C423 N422 1.351 1_556 S
C423 C424 1.434 . S
C424 C415 1.429 . S
C424 N421 1.350 . S
C424 C423 1.434 . S
C425 C426 1.369 . S
C425 C427 1.419 . S
C425 H429 0.930 . S
C426 C425 1.369 . S
C426 C435 1.429 . S
C427 C425 1.419 . S
C427 C428 1.363 . S
C427 H430 0.929 . S
C428 C427 1.363 . S
C428 C434 1.428 . S
H429 C425 0.930 . S
H430 C427 0.929 . S
S431 N432 1.613 . S
S431 N433 1.621 . S
N432 S431 1.613 . S
N432 C435 1.350 1_545 S
N433 S431 1.621 . S
N433 C434 1.339 1_545 S
C434 C428 1.428 . S
C434 N433 1.339 1_565 S
C434 C435 1.434 . S
C435 C426 1.429 . S
C435 N432 1.350 1_565 S
C435 C434 1.434 . S
C436 C437 1.369 . S
C436 C438 1.419 . S
C436 H440 0.930 . S
C437 C436 1.369 . S
C437 C446 1.429 . S
C438 C436 1.419 . S
C438 C439 1.363 . S
C438 H441 0.929 . S
C439 C438 1.363 . S
C439 C445 1.428 . S
H440 C436 0.930 . S
H441 C438 0.929 . S
S442 N443 1.613 . S
S442 N444 1.610 . S
N443 S442 1.613 . S
N443 C446 1.350 . S
N444 S442 1.610 . S
N444 C445 1.351 . S
C445 C439 1.428 . S
C445 N444 1.351 . S
C445 C446 1.434 . S
C446 C437 1.429 . S
C446 N443 1.350 . S
C446 C445 1.434 . S
C447 C448 1.369 . S
C447 C449 1.419 . S
C447 H451 0.930 . S
C448 C447 1.369 . S
C448 C457 1.429 . S
C449 C447 1.419 . S
C449 C450 1.363 . S
C449 H452 0.929 . S
C450 C449 1.363 . S
C450 C456 1.428 . S
H451 C447 0.930 . S
H452 C449 0.929 . S
S453 N454 1.613 . S
S453 N455 1.610 . S
N454 S453 1.613 . S
N454 C457 1.350 . S
N455 S453 1.610 . S
N455 C456 1.351 . S
C456 C450 1.428 . S
C456 N455 1.351 . S
C456 C457 1.434 . S
C457 C448 1.429 . S
C457 N454 1.350 . S
C457 C456 1.434 . S
C458 C459 1.369 . S
C458 C460 1.419 . S
C458 H462 0.930 . S
C459 C458 1.369 . S
C459 C468 1.429 . S
C460 C458 1.419 . S
C460 C461 1.363 . S
C460 H463 0.929 . S
C461 C460 1.363 . S
C461 C467 1.428 . S
H462 C458 0.930 . S
H463 C460 0.929 . S
S464 N465 1.613 . S
S464 N466 1.610 . S
N465 S464 1.613 . S
N465 C468 1.350 . S
N466 S464 1.610 . S
N466 C467 1.351 . S
C467 C461 1.428 . S
C467 N466 1.351 . S
C467 C468 1.434 . S
C468 C459 1.429 . S
C468 N465 1.350 . S
C468 C467 1.434 . S
C469 C470 1.369 . S
C469 C471 1.419 . S
C469 H473 0.930 . S
C470 C469 1.369 . S
C470 C479 1.429 . S
C471 C469 1.419 . S
C471 C472 1.363 . S
C471 H474 0.929 . S
C472 C471 1.363 . S
C472 C478 1.428 . S
H473 C469 0.930 . S
H474 C471 0.929 . S
S475 N476 1.613 . S
S475 N477 1.610 . S
N476 S475 1.613 . S
N476 C479 1.350 . S
N477 S475 1.610 . S
N477 C478 1.351 . S
C478 C472 1.428 . S
C478 N477 1.351 . S
C478 C479 1.434 . S
C479 C470 1.429 . S
C479 N476 1.350 . S
C479 C478 1.434 . S
C480 C481 1.369 . S
C480 C482 1.419 . S
C480 H484 0.930 . S
C481 C480 1.369 . S
C481 C490 1.429 . S
C482 C480 1.419 . S
C482 C483 1.363 . S
C482 H485 0.929 . S
C483 C482 1.363 . S
C483 C489 1.428 . S
H484 C480 0.930 . S
H485 C482 0.929 . S
S486 N487 1.613 . S
S486 N488 1.610 . S
N487 S486 1.613 . S
N487 C490 1.350 . S
N488 S486 1.610 . S
N488 C489 1.351 . S
C489 C483 1.428 . S
C489 N488 1.351 . S
C489 C490 1.434 . S
C490 C481 1.429 . S
C490 N487 1.350 . S
C490 C489 1.434 . S
C491 C492 1.369 . S
C491 C493 1.419 . S
C491 H495 0.930 . S
C492 C491 1.369 . S
C492 C501 1.429 . S
C493 C491 1.419 . S
C493 C494 1.363 . S
C493 H496 0.929 . S
C494 C493 1.363 . S
C494 C500 1.428 . S
H495 C491 0.930 . S
H496 C493 0.929 . S
S497 N498 1.613 . S
S497 N499 1.610 . S
N498 S497 1.613 . S
N498 C501 1.350 . S
N499 S497 1.610 . S
N499 C500 1.351 . S
C500 C494 1.428 . S
C500 N499 1.351 . S
C500 C501 1.434 . S
C501 C492 1.429 . S
C501 N498 1.350 . S
C501 C500 1.434 . S
C502 C503 1.369 . S
C502 C504 1.419 . S
C502 H506 0.930 . S
C503 C502 1.369 . S
C503 C512 1.429 . S
C504 C502 1.419 . S
C504 C505 1.363 . S
C504 H507 0.929 . S
C505 C504 1.363 . S
C505 C511 1.428 . S
H506 C502 0.930 . S
H507 C504 0.929 . S
S508 N509 1.613 . S
S508 N510 1.610 . S
N509 S508 1.613 . S
N509 C512 1.350 . S
N510 S508 1.610 . S
N510 C511 1.351 . S
C511 C505 1.428 . S
C511 N510 1.351 . S
C511 C512 1.434 . S
C512 C503 1.429 . S
C512 N509 1.350 . S
C512 C511 1.434 . S
C513 C514 1.369 . S
C513 C515 1.419 . S
C513 H517 0.930 . S
C514 C513 1.369 . S
C514 C523 1.429 . S
C515 C513 1.419 . S
C515 C516 1.363 . S
C515 H518 0.929 . S
C516 C515 1.363 . S
C516 C522 1.428 . S
H517 C513 0.930 . S
H518 C515 0.929 . S
S519 N520 1.613 . S
S519 N521 1.610 . S
N520 S519 1.613 . S
N520 C523 1.350 . S
N521 S519 1.610 . S
N521 C522 1.351 . S
C522 C516 1.428 . S
C522 N521 1.351 . S
C522 C523 1.434 . S
C523 C514 1.429 . S
C523 N520 1.350 . S
C523 C522 1.434 . S
C524 C525 1.369 . S
C524 C526 1.419 . S
C524 H528 0.930 . S
C525 C524 1.369 . S
C525 C534 1.429 . S
C526 C524 1.419 . S
C526 C527 1.363 . S
C526 H529 0.929 . S
C527 C526 1.363 . S
C527 C533 1.428 . S
H528 C524 0.930 . S
H529 C526 0.929 . S
S530 N531 1.613 . S
S530 N532 1.610 . S
N531 S530 1.613 . S
N531 C534 1.350 . S
N532 S530 1.610 . S
N532 C533 1.351 . S
C533 C527 1.428 . S
C533 N532 1.351 . S
C533 C534 1.434 . S
C534 C525 1.429 . S
C534 N531 1.350 . S
C534 C533 1.434 . S
C535 C536 1.369 . S
C535 C537 1.419 . S
C535 H539 0.930 . S
C536 C535 1.369 . S
C536 C545 1.429 . S
C537 C535 1.419 . S
C537 C538 1.363 . S
C537 H540 0.929 . S
C538 C537 1.363 . S
C538 C544 1.428 . S
H539 C535 0.930 . S
H540 C537 0.929 . S
S541 N542 1.613 . S
S541 N543 1.610 1_455 S
N542 S541 1.613 . S
N542 C545 1.350 . S
N543 S541 1.610 1_655 S
N543 C544 1.351 1_655 S
C544 C538 1.428 . S
C544 N543 1.351 1_455 S
C544 C545 1.434 . S
C545 C536 1.429 . S
C545 N542 1.350 . S
C545 C544 1.434 . S
C546 C547 1.369 . S
C546 C548 1.419 . S
C546 H550 0.930 . S
C547 C546 1.369 . S
C547 C556 1.429 . S
C548 C546 1.419 . S
C548 C549 1.363 . S
C548 H551 0.929 . S
C549 C548 1.363 . S
C549 C555 1.428 . S
H550 C546 0.930 . S
H551 C548 0.929 . S
S552 N553 1.613 . S
S552 N554 1.610 . S
N553 S552 1.613 . S
N553 C556 1.350 . S
N554 S552 1.610 . S
N554 C555 1.351 . S
C555 C549 1.428 . S
C555 N554 1.351 . S
C555 C556 1.434 . S
C556 C547 1.429 . S
C556 N553 1.350 . S
C556 C555 1.434 . S
C557 C558 1.369 . S
C557 C559 1.419 . S
C557 H561 0.930 . S
C558 C557 1.369 . S
C558 C567 1.429 . S
C559 C557 1.419 . S
C559 C560 1.363 . S
C559 H562 0.929 . S
C560 C559 1.363 . S
C560 C566 1.428 . S
H561 C557 0.930 . S
H562 C559 0.929 . S
S563 N564 1.613 . S
S563 N565 1.610 . S
N564 S563 1.613 . S
N564 C567 1.350 . S
N565 S563 1.610 . S
N565 C566 1.351 . S
C566 C560 1.428 . S
C566 N565 1.351 . S
C566 C567 1.434 . S
C567 C558 1.429 . S
C567 N564 1.350 . S
C567 C566 1.434 . S
C219 C124 1.402 . S
C217 C5 1.385 . S
C230 C141 1.456 . S
C228 C18 1.487 . S
C241 C155 1.562 . S
C239 C31 1.591 . S
C250 C42 1.474 . S
C252 C113 1.392 . S
C261 C57 1.280 1_554 S
C263 C110 1.255 . S
C272 C70 1.226 . S
C274 C127 1.154 . S
C285 C138 1.498 1_545 S
C283 C81 1.471 . S
C296 C152 1.322 . S
C294 C96 1.365 . S
C305 C29 1.299 . S
C307 C180 1.318 . S
C318 C194 1.497 . S
C316 C44 1.552 . S
C327 C3 1.206 . S
C329 C211 1.153 1_455 S
C340 C166 1.255 1_455 S
C338 C16 1.221 . S
C349 C83 1.423 . S
C351 C169 1.395 . S
C360 C94 1.638 . S
C362 C183 1.566 . S
C373 C197 1.449 . S
C371 C55 1.529 . S
C382 C68 1.380 . S
C384 C208 1.399 . S
C395 C140 1.716 1_545 S
C393 C1 1.702 . S
C406 C154 1.856 . S
C404 C14 1.791 . S
C415 C27 1.753 . S
C417 C112 1.819 1_556 S
C426 C49 1.727 . S
C428 C125 1.602 . S
C437 C53 1.476 . S
C439 C153 1.316 . S
C450 C111 1.301 . S
C448 C66 1.448 . S
C461 C126 1.617 . S
C459 C88 1.660 . S
C472 C139 1.394 . S
C470 C92 1.548 . S
C483 C195 1.401 . S
C481 C36 1.551 . S
C494 C210 1.613 . S
C492 C40 1.658 . S
C503 C10 1.487 . S
C505 C167 1.309 . S
C516 C181 1.319 . S
C514 C23 1.485 1_655 S
C527 C209 1.598 . S
C525 C79 1.639 . S
C536 C101 1.851 . S
C538 C168 1.823 1_455 S
C549 C182 1.858 . S
C547 C62 1.888 . S
C560 C196 1.716 . S
C558 C75 1.758 . S
