# Generated by pormake.
# Topology cor, (4,6)-cn, num edge types: 1
# Building blocks:
#     Node 0, Type 0, BuildingBlock: CEKHIL_clean_sbu_0, # of connection points: 4
#     Node 1, Type 0, BuildingBlock: CEKHIL_clean_sbu_0, # of connection points: 4
#     Node 2, Type 0, BuildingBlock: CEKHIL_clean_sbu_0, # of connection points: 4
#     Node 3, Type 0, BuildingBlock: CEKHIL_clean_sbu_0, # of connection points: 4
#     Node 4, Type 0, BuildingBlock: CEKHIL_clean_sbu_0, # of connection points: 4
#     Node 5, Type 0, BuildingBlock: CEKHIL_clean_sbu_0, # of connection points: 4
#     Node 6, Type 0, BuildingBlock: CEKHIL_clean_sbu_0, # of connection points: 4
#     Node 7, Type 0, BuildingBlock: CEKHIL_clean_sbu_0, # of connection points: 4
#     Node 8, Type 0, BuildingBlock: CEKHIL_clean_sbu_0, # of connection points: 4
#     Node 9, Type 0, BuildingBlock: CEKHIL_clean_sbu_0, # of connection points: 4
#     Node 10, Type 0, BuildingBlock: CEKHIL_clean_sbu_0, # of connection points: 4
#     Node 11, Type 0, BuildingBlock: CEKHIL_clean_sbu_0, # of connection points: 4
#     Node 12, Type 0, BuildingBlock: CEKHIL_clean_sbu_0, # of connection points: 4
#     Node 13, Type 0, BuildingBlock: CEKHIL_clean_sbu_0, # of connection points: 4
#     Node 14, Type 0, BuildingBlock: CEKHIL_clean_sbu_0, # of connection points: 4
#     Node 15, Type 0, BuildingBlock: CEKHIL_clean_sbu_0, # of connection points: 4
#     Node 16, Type 0, BuildingBlock: CEKHIL_clean_sbu_0, # of connection points: 4
#     Node 17, Type 0, BuildingBlock: CEKHIL_clean_sbu_0, # of connection points: 4
#     Node 18, Type 1, BuildingBlock: MIDCAF_clean_sbu_0, # of connection points: 6
#     Node 19, Type 1, BuildingBlock: MIDCAF_clean_sbu_0, # of connection points: 6
#     Node 20, Type 1, BuildingBlock: MIDCAF_clean_sbu_0, # of connection points: 6
#     Node 21, Type 1, BuildingBlock: MIDCAF_clean_sbu_0, # of connection points: 6
#     Node 22, Type 1, BuildingBlock: MIDCAF_clean_sbu_0, # of connection points: 6
#     Node 23, Type 1, BuildingBlock: MIDCAF_clean_sbu_0, # of connection points: 6
#     Node 24, Type 1, BuildingBlock: MIDCAF_clean_sbu_0, # of connection points: 6
#     Node 25, Type 1, BuildingBlock: MIDCAF_clean_sbu_0, # of connection points: 6
#     Node 26, Type 1, BuildingBlock: MIDCAF_clean_sbu_0, # of connection points: 6
#     Node 27, Type 1, BuildingBlock: MIDCAF_clean_sbu_0, # of connection points: 6
#     Node 28, Type 1, BuildingBlock: MIDCAF_clean_sbu_0, # of connection points: 6
#     Node 29, Type 1, BuildingBlock: MIDCAF_clean_sbu_0, # of connection points: 6
#     Edge 30, Type (0, 1), BuildingBlock: CIFDUS_clean_linker_0, # of connection points: 2
#     Edge 31, Type (0, 1), BuildingBlock: CIFDUS_clean_linker_0, # of connection points: 2
#     Edge 32, Type (0, 1), BuildingBlock: CIFDUS_clean_linker_0, # of connection points: 2
#     Edge 33, Type (0, 1), BuildingBlock: CIFDUS_clean_linker_0, # of connection points: 2
#     Edge 34, Type (0, 1), BuildingBlock: CIFDUS_clean_linker_0, # of connection points: 2
#     Edge 35, Type (0, 1), BuildingBlock: CIFDUS_clean_linker_0, # of connection points: 2
#     Edge 36, Type (0, 1), BuildingBlock: CIFDUS_clean_linker_0, # of connection points: 2
#     Edge 37, Type (0, 1), BuildingBlock: CIFDUS_clean_linker_0, # of connection points: 2
#     Edge 38, Type (0, 1), BuildingBlock: CIFDUS_clean_linker_0, # of connection points: 2
#     Edge 39, Type (0, 1), BuildingBlock: CIFDUS_clean_linker_0, # of connection points: 2
#     Edge 40, Type (0, 1), BuildingBlock: CIFDUS_clean_linker_0, # of connection points: 2
#     Edge 41, Type (0, 1), BuildingBlock: CIFDUS_clean_linker_0, # of connection points: 2
#     Edge 42, Type (0, 1), BuildingBlock: CIFDUS_clean_linker_0, # of connection points: 2
#     Edge 43, Type (0, 1), BuildingBlock: CIFDUS_clean_linker_0, # of connection points: 2
#     Edge 44, Type (0, 1), BuildingBlock: CIFDUS_clean_linker_0, # of connection points: 2
#     Edge 45, Type (0, 1), BuildingBlock: CIFDUS_clean_linker_0, # of connection points: 2
#     Edge 46, Type (0, 1), BuildingBlock: CIFDUS_clean_linker_0, # of connection points: 2
#     Edge 47, Type (0, 1), BuildingBlock: CIFDUS_clean_linker_0, # of connection points: 2
#     Edge 48, Type (0, 1), BuildingBlock: CIFDUS_clean_linker_0, # of connection points: 2
#     Edge 49, Type (0, 1), BuildingBlock: CIFDUS_clean_linker_0, # of connection points: 2
#     Edge 50, Type (0, 1), BuildingBlock: CIFDUS_clean_linker_0, # of connection points: 2
#     Edge 51, Type (0, 1), BuildingBlock: CIFDUS_clean_linker_0, # of connection points: 2
#     Edge 52, Type (0, 1), BuildingBlock: CIFDUS_clean_linker_0, # of connection points: 2
#     Edge 53, Type (0, 1), BuildingBlock: CIFDUS_clean_linker_0, # of connection points: 2
#     Edge 54, Type (0, 1), BuildingBlock: CIFDUS_clean_linker_0, # of connection points: 2
#     Edge 55, Type (0, 1), BuildingBlock: CIFDUS_clean_linker_0, # of connection points: 2
#     Edge 56, Type (0, 1), BuildingBlock: CIFDUS_clean_linker_0, # of connection points: 2
#     Edge 57, Type (0, 1), BuildingBlock: CIFDUS_clean_linker_0, # of connection points: 2
#     Edge 58, Type (0, 1), BuildingBlock: CIFDUS_clean_linker_0, # of connection points: 2
#     Edge 59, Type (0, 1), BuildingBlock: CIFDUS_clean_linker_0, # of connection points: 2
#     Edge 60, Type (0, 1), BuildingBlock: CIFDUS_clean_linker_0, # of connection points: 2
#     Edge 61, Type (0, 1), BuildingBlock: CIFDUS_clean_linker_0, # of connection points: 2
#     Edge 62, Type (0, 1), BuildingBlock: CIFDUS_clean_linker_0, # of connection points: 2
#     Edge 63, Type (0, 1), BuildingBlock: CIFDUS_clean_linker_0, # of connection points: 2
#     Edge 64, Type (0, 1), BuildingBlock: CIFDUS_clean_linker_0, # of connection points: 2
#     Edge 65, Type (0, 1), BuildingBlock: CIFDUS_clean_linker_0, # of connection points: 2
#     Edge 66, Type (0, 1), BuildingBlock: CIFDUS_clean_linker_0, # of connection points: 2
#     Edge 67, Type (0, 1), BuildingBlock: CIFDUS_clean_linker_0, # of connection points: 2
#     Edge 68, Type (0, 1), BuildingBlock: CIFDUS_clean_linker_0, # of connection points: 2
#     Edge 69, Type (0, 1), BuildingBlock: CIFDUS_clean_linker_0, # of connection points: 2
#     Edge 70, Type (0, 1), BuildingBlock: CIFDUS_clean_linker_0, # of connection points: 2
#     Edge 71, Type (0, 1), BuildingBlock: CIFDUS_clean_linker_0, # of connection points: 2
#     Edge 72, Type (0, 1), BuildingBlock: CIFDUS_clean_linker_0, # of connection points: 2
#     Edge 73, Type (0, 1), BuildingBlock: CIFDUS_clean_linker_0, # of connection points: 2
#     Edge 74, Type (0, 1), BuildingBlock: CIFDUS_clean_linker_0, # of connection points: 2
#     Edge 75, Type (0, 1), BuildingBlock: CIFDUS_clean_linker_0, # of connection points: 2
#     Edge 76, Type (0, 1), BuildingBlock: CIFDUS_clean_linker_0, # of connection points: 2
#     Edge 77, Type (0, 1), BuildingBlock: CIFDUS_clean_linker_0, # of connection points: 2
#     Edge 78, Type (0, 1), BuildingBlock: CIFDUS_clean_linker_0, # of connection points: 2
#     Edge 79, Type (0, 1), BuildingBlock: CIFDUS_clean_linker_0, # of connection points: 2
#     Edge 80, Type (0, 1), BuildingBlock: CIFDUS_clean_linker_0, # of connection points: 2
#     Edge 81, Type (0, 1), BuildingBlock: CIFDUS_clean_linker_0, # of connection points: 2
#     Edge 82, Type (0, 1), BuildingBlock: CIFDUS_clean_linker_0, # of connection points: 2
#     Edge 83, Type (0, 1), BuildingBlock: CIFDUS_clean_linker_0, # of connection points: 2
#     Edge 84, Type (0, 1), BuildingBlock: CIFDUS_clean_linker_0, # of connection points: 2
#     Edge 85, Type (0, 1), BuildingBlock: CIFDUS_clean_linker_0, # of connection points: 2
#     Edge 86, Type (0, 1), BuildingBlock: CIFDUS_clean_linker_0, # of connection points: 2
#     Edge 87, Type (0, 1), BuildingBlock: CIFDUS_clean_linker_0, # of connection points: 2
#     Edge 88, Type (0, 1), BuildingBlock: CIFDUS_clean_linker_0, # of connection points: 2
#     Edge 89, Type (0, 1), BuildingBlock: CIFDUS_clean_linker_0, # of connection points: 2
#     Edge 90, Type (0, 1), BuildingBlock: CIFDUS_clean_linker_0, # of connection points: 2
#     Edge 91, Type (0, 1), BuildingBlock: CIFDUS_clean_linker_0, # of connection points: 2
#     Edge 92, Type (0, 1), BuildingBlock: CIFDUS_clean_linker_0, # of connection points: 2
#     Edge 93, Type (0, 1), BuildingBlock: CIFDUS_clean_linker_0, # of connection points: 2
#     Edge 94, Type (0, 1), BuildingBlock: CIFDUS_clean_linker_0, # of connection points: 2
#     Edge 95, Type (0, 1), BuildingBlock: CIFDUS_clean_linker_0, # of connection points: 2
#     Edge 96, Type (0, 1), BuildingBlock: CIFDUS_clean_linker_0, # of connection points: 2
#     Edge 97, Type (0, 1), BuildingBlock: CIFDUS_clean_linker_0, # of connection points: 2
#     Edge 98, Type (0, 1), BuildingBlock: CIFDUS_clean_linker_0, # of connection points: 2
#     Edge 99, Type (0, 1), BuildingBlock: CIFDUS_clean_linker_0, # of connection points: 2
#     Edge 100, Type (0, 1), BuildingBlock: CIFDUS_clean_linker_0, # of connection points: 2
#     Edge 101, Type (0, 1), BuildingBlock: CIFDUS_clean_linker_0, # of connection points: 2
# Relax obj value: 0.113
# Max RMSD: 0.161
# Mean RMSD: 0.107
data_MOF--net-cor--node1-CEKHIL_clean_sbu_0--node2-MIDCAF_clean_sbu_0--edge1-CIFDUS_clean_linker_0
_symmetry_space_group_name_H-M    P1
_symmetry_Int_Tables_number       1
_symmetry_cell_setting            triclinic
loop_
_symmetry_equiv_pos_as_xyz
'x, y, z'
_cell_length_a     33.713892
_cell_length_b     33.60835
_cell_length_c     88.278773
_cell_angle_alpha  90.758489
_cell_angle_beta   89.447336
_cell_angle_gamma 120.83284
loop_
_atom_site_label
_atom_site_type_symbol
_atom_site_fract_x
_atom_site_fract_y
_atom_site_fract_z
_atom_type_partial_charge
Co0 Co 0.72825 0.02477 0.26046 0.0
O1 O 0.70121 0.05065 0.24765 0.0
O2 O 0.75782 0.09096 0.26396 0.0
C3 C 0.66287 0.96207 0.26867 0.0
O4 O 0.76362 0.00915 0.27571 0.0
Co5 Co 0.71623 0.92955 0.25164 0.0
O6 O 0.74302 0.93453 0.2721 0.0
C7 C 0.7743 0.01067 0.23297 0.0
C8 C 0.73105 0.09073 0.25337 0.0
C9 C 0.76356 0.97228 0.27974 0.0
O10 O 0.77434 0.03632 0.2439 0.0
O11 O 0.74924 0.9664 0.23308 0.0
O12 O 0.67721 0.00222 0.27511 0.0
O13 O 0.68484 0.96284 0.25652 0.0
Co14 Co 0.02003 0.73167 0.25919 0.0
O15 O 0.04414 0.70362 0.27244 0.0
O16 O 0.08546 0.75975 0.25611 0.0
C17 C 0.95699 0.66636 0.25101 0.0
O18 O 0.00895 0.76848 0.24338 0.0
Co19 Co 0.92553 0.72452 0.26413 0.0
O20 O 0.93556 0.7522 0.2436 0.0
C21 C 1.00149 0.77437 0.28605 0.0
C22 C 0.08435 0.73263 0.26667 0.0
C23 C 0.97559 0.77126 0.23755 0.0
O24 O 0.03043 0.77748 0.27585 0.0
O25 O 0.95769 0.7508 0.28404 0.0
O26 O 0.99693 0.6796 0.24472 0.0
O27 O 0.95757 0.69041 0.26257 0.0
Co28 Co 0.30012 0.31687 0.2544 0.0
O29 O 0.35785 0.34266 0.24338 0.0
O30 O 0.32874 0.28027 0.25771 0.0
C31 C 0.30956 0.38361 0.26434 0.0
O32 O 0.24266 0.28125 0.26792 0.0
Co33 Co 0.2276 0.34376 0.2457 0.0
O34 O 0.19584 0.30985 0.26442 0.0
C35 C 0.24843 0.28804 0.22473 0.0
C36 C 0.36136 0.30867 0.24861 0.0
C37 C 0.20686 0.28402 0.27146 0.0
O38 O 0.26719 0.27848 0.23568 0.0
O39 O 0.23518 0.31743 0.22615 0.0
O40 O 0.32881 0.36329 0.27091 0.0
O41 O 0.29064 0.36595 0.25149 0.0
Co42 Co 0.30409 0.02085 0.75478 0.0
O43 O 0.33356 0.99593 0.76712 0.0
O44 O 0.27323 0.95456 0.75225 0.0
C45 C 0.36844 0.08216 0.74478 0.0
O46 O 0.26416 0.03234 0.74036 0.0
Co47 Co 0.31666 0.11772 0.76061 0.0
O48 O 0.2835 0.10705 0.74101 0.0
C49 C 0.26179 0.04194 0.78198 0.0
C50 C 0.30211 0.95537 0.76206 0.0
C51 C 0.26085 0.06633 0.73534 0.0
O52 O 0.26195 0.01298 0.77234 0.0
O53 O 0.28522 0.0859 0.78007 0.0
O54 O 0.35226 0.04087 0.739 0.0
O55 O 0.34834 0.08385 0.75709 0.0
Co56 Co 0.02778 0.31145 0.75689 0.0
O57 O 0.01129 0.3447 0.74336 0.0
O58 O 0.96298 0.292 0.75955 0.0
C59 C 0.09441 0.37214 0.7652 0.0
O60 O 0.03527 0.27219 0.77292 0.0
Co61 Co 0.11557 0.30796 0.74881 0.0
O62 O 0.10765 0.28574 0.77004 0.0
C63 C 0.03256 0.25524 0.73036 0.0
C64 C 0.96973 0.32093 0.74873 0.0
C65 C 0.0701 0.2696 0.7776 0.0
O66 O 0.00982 0.26191 0.74083 0.0
O67 O 0.07661 0.27456 0.73055 0.0
O68 O 0.05542 0.36353 0.77116 0.0
O69 O 0.09108 0.34779 0.75331 0.0
Co70 Co 0.72872 0.74059 0.75233 0.0
O71 O 0.67903 0.70849 0.76652 0.0
O72 O 0.69227 0.77023 0.75363 0.0
C73 C 0.72029 0.67766 0.73994 0.0
O74 O 0.77641 0.78137 0.7364 0.0
Co75 Co 0.81266 0.72745 0.75425 0.0
O76 O 0.82814 0.75819 0.73412 0.0
C77 C 0.79782 0.78 0.77813 0.0
C78 C 0.66773 0.73919 0.76376 0.0
C79 C 0.81056 0.78165 0.72953 0.0
O80 O 0.76857 0.78164 0.76936 0.0
O81 O 0.81672 0.75617 0.7749 0.0
O82 O 0.69446 0.69459 0.73654 0.0
O83 O 0.74615 0.69592 0.75175 0.0
Co84 Co 0.41385 0.35878 0.58879 0.0
O85 O 0.37793 0.37103 0.57485 0.0
O86 O 0.44171 0.42549 0.5858 0.0
C87 C 0.35267 0.30589 0.60275 0.0
O88 O 0.45881 0.35812 0.60416 0.0
Co89 Co 0.39971 0.26009 0.58951 0.0
O90 O 0.43714 0.28362 0.60828 0.0
C91 C 0.4535 0.32277 0.56466 0.0
C92 C 0.40752 0.41481 0.57663 0.0
C93 C 0.46213 0.32674 0.61138 0.0
O94 O 0.45218 0.35602 0.57155 0.0
O95 O 0.43117 0.28074 0.5692 0.0
O96 O 0.37074 0.35002 0.60525 0.0
O97 O 0.36922 0.29549 0.5911 0.0
Co98 Co 0.68226 0.06563 0.59198 0.0
O99 O 0.71088 0.04135 0.60515 0.0
O100 O 0.74883 0.10596 0.5921 0.0
C101 C 0.63299 0.99932 0.57965 0.0
O102 O 0.66613 0.10106 0.57674 0.0
Co103 Co 0.57804 0.03354 0.59415 0.0
O104 O 0.58895 0.06345 0.57408 0.0
C105 C 0.6412 0.09449 0.61791 0.0
C106 C 0.75037 0.07729 0.60149 0.0
C107 C 0.62944 0.09379 0.56973 0.0
O108 O 0.67583 0.10007 0.60989 0.0
O109 O 0.59909 0.06722 0.61407 0.0
O110 O 0.67623 0.02289 0.57561 0.0
O111 O 0.6226 0.01365 0.59186 0.0
Co112 Co 0.97377 0.63903 0.59188 0.0
O113 O 0.02747 0.66236 0.57877 0.0
O114 O 0.00426 0.60394 0.59457 0.0
C115 C 0.98666 0.70793 0.60092 0.0
O116 O 0.92192 0.60648 0.60765 0.0
Co117 Co 0.89701 0.66178 0.58593 0.0
O118 O 0.87121 0.63086 0.60562 0.0
C119 C 0.91035 0.60116 0.56483 0.0
C120 C 0.03376 0.63045 0.58435 0.0
C121 C 0.88631 0.60798 0.61238 0.0
O122 O 0.93447 0.5958 0.57495 0.0
O123 O 0.89641 0.62996 0.56643 0.0
O124 O 0.00808 0.68879 0.60676 0.0
O125 O 0.96257 0.68752 0.589 0.0
Co126 Co 0.97833 0.36152 0.09275 0.0
O127 O 0.00486 0.34594 0.10937 0.0
O128 O 0.94761 0.29477 0.09502 0.0
C129 C 0.04543 0.41475 0.08145 0.0
O130 O 0.9435 0.36409 0.07421 0.0
Co131 Co 0.99396 0.46031 0.0893 0.0
O132 O 0.97061 0.4387 0.06847 0.0
C133 C 0.92415 0.39595 0.11131 0.0
C134 C 0.97563 0.3027 0.10622 0.0
C135 C 0.94668 0.39565 0.06522 0.0
O136 O 0.93172 0.36357 0.10708 0.0
O137 O 0.94705 0.43725 0.10613 0.0
O138 O 0.02886 0.37068 0.07932 0.0
O139 O 0.02418 0.425 0.09164 0.0
Co140 Co 0.67804 0.63866 0.0905 0.0
O141 O 0.65458 0.66943 0.07826 0.0
O142 O 0.61236 0.61052 0.09354 0.0
C143 C 0.74117 0.70239 0.09983 0.0
O144 O 0.68895 0.59857 0.10501 0.0
Co145 Co 0.77272 0.64737 0.08403 0.0
O146 O 0.76269 0.61571 0.10387 0.0
C147 C 0.6951 0.59564 0.06289 0.0
C148 C 0.61411 0.63977 0.08368 0.0
C149 C 0.72266 0.59472 0.10993 0.0
O150 O 0.66715 0.59499 0.07304 0.0
O151 O 0.73908 0.61869 0.06448 0.0
O152 O 0.70093 0.68795 0.10605 0.0
O153 O 0.74081 0.68089 0.08758 0.0
Co154 Co 0.39493 0.06822 0.09116 0.0
O155 O 0.34243 0.04093 0.10496 0.0
O156 O 0.35809 0.09606 0.08839 0.0
C157 C 0.39105 0.00258 0.08271 0.0
O158 O 0.44197 0.10394 0.07474 0.0
Co159 Co 0.48271 0.06151 0.09446 0.0
O160 O 0.4984 0.08737 0.07358 0.0
C161 C 0.46265 0.11594 0.11645 0.0
C162 C 0.33131 0.06914 0.09901 0.0
C163 C 0.47711 0.10612 0.0681 0.0
O164 O 0.43312 0.11572 0.10725 0.0
O165 O 0.48237 0.09244 0.1141 0.0
O166 O 0.36393 0.01541 0.07699 0.0
O167 O 0.41568 0.02698 0.09406 0.0
Co168 Co 0.06865 0.7005 0.92576 0.0
O169 O 0.04566 0.73019 0.91303 0.0
O170 O 0.10516 0.76708 0.92862 0.0
C171 C 1.00125 0.64441 0.93541 0.0
O172 O 0.10039 0.68022 0.94085 0.0
Co173 Co 0.04369 0.60073 0.91717 0.0
O174 O 0.06996 0.60341 0.93752 0.0
C175 C 0.11023 0.67745 0.89843 0.0
C176 C 0.07863 0.76922 0.91843 0.0
C177 C 0.09481 0.64092 0.94497 0.0
O178 O 0.11146 0.70508 0.90887 0.0
O179 O 0.08186 0.63366 0.89875 0.0
O180 O 0.02099 0.68624 0.94095 0.0
O181 O 0.01909 0.63991 0.9229 0.0
Co182 Co 0.35287 0.39284 0.92382 0.0
O183 O 0.36788 0.35939 0.93807 0.0
O184 O 0.41804 0.41331 0.9226 0.0
C185 C 0.28686 0.33188 0.91466 0.0
O186 O 0.35015 0.43345 0.90732 0.0
Co187 Co 0.26353 0.39733 0.92749 0.0
O188 O 0.27908 0.42388 0.90672 0.0
C189 C 0.33964 0.4458 0.94927 0.0
C190 C 0.41041 0.38454 0.93351 0.0
C191 C 0.3193 0.43961 0.90105 0.0
O192 O 0.36671 0.44138 0.93995 0.0
O193 O 0.29606 0.42651 0.94713 0.0
O194 O 0.3266 0.34026 0.90938 0.0
O195 O 0.28897 0.35727 0.92603 0.0
Co196 Co 0.63201 0.98067 0.91739 0.0
O197 O 0.68606 0.01373 0.90488 0.0
O198 O 0.66939 0.95164 0.9181 0.0
C199 C 0.63485 0.04271 0.92855 0.0
O200 O 0.57938 0.93951 0.93221 0.0
Co201 Co 0.54897 0.99495 0.91159 0.0
O202 O 0.52688 0.96203 0.93112 0.0
C203 C 0.57757 0.95081 0.88861 0.0
C204 C 0.69674 0.98312 0.90847 0.0
C205 C 0.54307 0.93925 0.93733 0.0
O206 O 0.59809 0.94156 0.89902 0.0
O207 O 0.55989 0.97609 0.89109 0.0
O208 O 0.66028 0.02719 0.93384 0.0
O209 O 0.61387 0.02377 0.9161 0.0
Co210 Co 0.65353 0.68995 0.42652 0.0
O211 O 0.67953 0.66427 0.44024 0.0
O212 O 0.61456 0.6238 0.42736 0.0
C213 C 0.71835 0.73873 0.41331 0.0
O214 O 0.61581 0.70029 0.41095 0.0
Co215 Co 0.68027 0.79269 0.42546 0.0
O216 O 0.645 0.77559 0.40615 0.0
C217 C 0.62376 0.7341 0.451 0.0
C218 C 0.64398 0.62396 0.43674 0.0
C219 C 0.61724 0.73298 0.4031 0.0
O220 O 0.61842 0.69773 0.44402 0.0
O221 O 0.65016 0.77516 0.44599 0.0
O222 O 0.69576 0.69456 0.41026 0.0
O223 O 0.7042 0.75102 0.42516 0.0
Co224 Co 0.34639 0.98086 0.43139 0.0
O225 O 0.31885 0.00551 0.41827 0.0
O226 O 0.27964 0.94574 0.43348 0.0
C227 C 0.40347 0.04771 0.44139 0.0
O228 O 0.36424 0.94725 0.44671 0.0
Co229 Co 0.44554 0.00318 0.4236 0.0
O230 O 0.44042 0.97481 0.44372 0.0
C231 C 0.36924 0.9405 0.40386 0.0
C232 C 0.27907 0.97262 0.42309 0.0
C233 C 0.40256 0.95081 0.45095 0.0
O234 O 0.34154 0.9379 0.41442 0.0
O235 O 0.41294 0.96853 0.40454 0.0
O236 O 0.36162 0.0292 0.44669 0.0
O237 O 0.40749 0.02913 0.42899 0.0
Co238 Co 0.06794 0.38182 0.42577 0.0
O239 O 0.01569 0.35029 0.43905 0.0
O240 O 0.02827 0.40787 0.42404 0.0
C241 C 0.0676 0.31941 0.41618 0.0
O242 O 0.11825 0.42065 0.41021 0.0
Co243 Co 0.15422 0.37465 0.43294 0.0
O244 O 0.17351 0.40223 0.41244 0.0
C245 C 0.12914 0.42816 0.45307 0.0
C246 C 0.00305 0.37869 0.43456 0.0
C247 C 0.15526 0.42188 0.40544 0.0
O248 O 0.10252 0.42742 0.44261 0.0
O249 O 0.14969 0.40505 0.45213 0.0
O250 O 0.03992 0.33172 0.4106 0.0
O251 O 0.08899 0.34112 0.42834 0.0
Zn252 Zn 0.01015 0.01865 0.12458 0.0
Zn253 Zn 0.02108 0.03568 0.17854 0.0
Zn254 Zn 0.01267 0.02369 0.15324 0.0
C255 C 0.99831 0.9473 0.17578 0.0
C256 C 0.10369 0.09653 0.17095 0.0
O257 O 0.98381 0.06727 0.14506 0.0
O258 O 0.98962 0.06298 0.12019 0.0
C259 C 0.94983 0.92854 0.13561 0.0
O260 O 0.98036 0.95377 0.16391 0.0
O261 O 0.02727 0.98194 0.18341 0.0
O262 O 0.07602 0.0967 0.18057 0.0
O263 O 0.08806 0.06655 0.16 0.0
O264 O 0.96338 0.95172 0.12356 0.0
O265 O 0.96596 0.94862 0.1485 0.0
O266 O 0.08483 0.04909 0.14523 0.0
O267 O 0.07517 0.03728 0.12052 0.0
C268 C 0.10125 0.04933 0.13194 0.0
O269 O 0.97095 0.05513 0.16011 0.0
O270 O 0.96317 0.03201 0.18377 0.0
C271 C 0.97956 0.07921 0.13158 0.0
C272 C 0.95112 0.04819 0.17316 0.0
Zn273 Zn 0.0255 0.00637 0.32972 0.0
Zn274 Zn 0.02007 0.01553 0.3857 0.0
Zn275 Zn 0.02421 0.01326 0.35694 0.0
C276 C 0.05794 0.10664 0.37574 0.0
C277 C 0.9299 0.95794 0.37717 0.0
O278 O 0.0611 0.97592 0.35118 0.0
O279 O 0.07334 0.99023 0.32679 0.0
C280 C 0.06399 0.09839 0.33306 0.0
O281 O 0.0536 0.08726 0.3627 0.0
O282 O 0.04596 0.08263 0.38761 0.0
O283 O 0.95357 0.97479 0.38901 0.0
O284 O 0.94954 0.96907 0.36402 0.0
O285 O 0.04362 0.06836 0.32283 0.0
O286 O 0.06248 0.08537 0.34687 0.0
O287 O 0.95158 0.9763 0.34787 0.0
O288 O 0.96157 0.95893 0.32451 0.0
C289 C 0.93486 0.95755 0.33483 0.0
O290 O 0.06745 0.9864 0.36708 0.0
O291 O 0.05979 0.99181 0.39176 0.0
C292 C 0.07871 0.97265 0.33853 0.0
C293 C 0.07752 0.98189 0.38081 0.0
Zn294 Zn 0.0145 0.02315 0.89077 0.0
Zn295 Zn 0.00945 0.01151 0.83774 0.0
Zn296 Zn 0.01212 0.01735 0.86245 0.0
C297 C 0.00754 0.087 0.84135 0.0
C298 C 0.93634 0.93434 0.84503 0.0
O299 O 0.04877 0.98157 0.86974 0.0
O300 O 0.03954 0.98216 0.89454 0.0
C301 C 0.06956 0.11385 0.8795 0.0
O302 O 0.03251 0.08587 0.85213 0.0
O303 O 0.98098 0.04995 0.83428 0.0
O304 O 0.97066 0.94353 0.83681 0.0
O305 O 0.94035 0.96421 0.85516 0.0
O306 O 0.05822 0.09098 0.89163 0.0
O307 O 0.05264 0.09305 0.86677 0.0
O308 O 0.93825 0.98176 0.86996 0.0
O309 O 0.94782 0.99809 0.89449 0.0
C310 C 0.92136 0.98075 0.88323 0.0
O311 O 0.06252 0.99701 0.85478 0.0
O312 O 0.0762 0.0383 0.83417 0.0
C313 C 0.05307 0.96926 0.88312 0.0
C314 C 0.08819 0.01763 0.84319 0.0
Zn315 Zn 0.99725 0.00121 0.69307 0.0
Zn316 Zn 0.02454 0.03702 0.61865 0.0
Zn317 Zn 0.02221 0.02313 0.64687 0.0
C318 C 0.99216 0.94199 0.62181 0.0
C319 C 0.11626 0.0906 0.62885 0.0
O320 O 0.98968 0.05482 0.66197 0.0
O321 O 0.97029 0.04045 0.68697 0.0
C322 C 0.97789 0.94498 0.66523 0.0
O323 O 0.99492 0.95385 0.63589 0.0
O324 O 0.00288 0.97197 0.61163 0.0
O325 O 0.09199 0.08341 0.61719 0.0
O326 O 0.09713 0.06998 0.64135 0.0
O327 O 1.00217 0.98235 0.67233 0.0
O328 O 0.98372 0.94731 0.65096 0.0
O329 O 0.09216 0.05572 0.65664 0.0
O330 O 0.04611 0.02714 0.67573 0.0
C331 C 0.0874 0.04777 0.67084 0.0
O332 O 0.97636 0.05178 0.6444 0.0
O333 O 0.97925 0.05846 0.61952 0.0
C334 C 0.97271 0.06105 0.67454 0.0
C335 C 0.96291 0.06161 0.63214 0.0
Zn336 Zn 0.71461 0.36761 0.53748 0.0
Zn337 Zn 0.69214 0.35522 0.45708 0.0
Zn338 Zn 0.69972 0.35585 0.48498 0.0
C339 C 0.78642 0.39227 0.46279 0.0
C340 C 0.63909 0.26225 0.46736 0.0
O341 O 0.66269 0.38693 0.49559 0.0
O342 O 0.69286 0.37899 0.51615 0.0
C343 C 0.77528 0.40015 0.50701 0.0
O344 O 0.77181 0.38699 0.47658 0.0
O345 O 0.75838 0.38105 0.45195 0.0
O346 O 0.64943 0.28697 0.45566 0.0
O347 O 0.65579 0.28101 0.48033 0.0
O348 O 0.73756 0.37762 0.51443 0.0
O349 O 0.77238 0.39669 0.49255 0.0
O350 O 0.67034 0.28693 0.49622 0.0
O351 O 0.69299 0.33242 0.51601 0.0
C352 C 0.67715 0.29162 0.51057 0.0
O353 O 0.66879 0.39944 0.48024 0.0
O354 O 0.66726 0.39723 0.45525 0.0
C355 C 0.66483 0.38899 0.51006 0.0
C356 C 0.66092 0.41274 0.46757 0.0
Zn357 Zn 0.68168 0.35774 0.72551 0.0
Zn358 Zn 0.73596 0.35966 0.6788 0.0
Zn359 Zn 0.69993 0.35952 0.69954 0.0
C360 C 0.64691 0.3435 0.67104 0.0
C361 C 0.78212 0.44415 0.68341 0.0
O362 O 0.74815 0.34375 0.70989 0.0
O363 O 0.72191 0.33464 0.73321 0.0
C364 C 0.59864 0.29068 0.71108 0.0
O365 O 0.64131 0.32357 0.68395 0.0
O366 O 0.6878 0.36744 0.66595 0.0
O367 O 0.79687 0.41634 0.68325 0.0
O368 O 0.7404 0.42909 0.68805 0.0
O369 O 0.61435 0.3121 0.72349 0.0
O370 O 0.62562 0.30203 0.69939 0.0
O371 O 0.71173 0.42956 0.7022 0.0
O372 O 0.70402 0.42544 0.72708 0.0
C373 C 0.71323 0.44859 0.71505 0.0
O374 O 0.65743 0.2899 0.68837 0.0
O375 O 0.72315 0.29526 0.68229 0.0
C376 C 0.74945 0.33338 0.72367 0.0
C377 C 0.67972 0.27035 0.68356 0.0
Zn378 Zn 0.6797 0.35197 0.22456 0.0
Zn379 Zn 0.67228 0.35278 0.14434 0.0
Zn380 Zn 0.68091 0.35128 0.1968 0.0
C381 C 0.71106 0.42182 0.17287 0.0
C382 C 0.60754 0.31465 0.17373 0.0
O383 O 0.70931 0.30617 0.20184 0.0
O384 O 0.70059 0.30693 0.22664 0.0
C385 C 0.74225 0.44319 0.21583 0.0
O386 O 0.71626 0.42256 0.18724 0.0
O387 O 0.69121 0.382 0.16648 0.0
O388 O 0.64621 0.33807 0.16688 0.0
O389 O 0.60914 0.31441 0.1882 0.0
O390 O 0.7265 0.41847 0.22751 0.0
O391 O 0.72759 0.42499 0.20265 0.0
O392 O 0.60685 0.32309 0.20373 0.0
O393 O 0.61383 0.33112 0.22858 0.0
C394 C 0.58878 0.32028 0.21694 0.0
O395 O 0.7175 0.31948 0.18554 0.0
O396 O 0.68993 0.33483 0.16572 0.0
C397 C 0.7121 0.29239 0.21513 0.0
C398 C 0.71813 0.3238 0.1711 0.0
Zn399 Zn 0.68822 0.36386 0.0082 0.0
Zn400 Zn 0.69214 0.35389 0.95499 0.0
Zn401 Zn 0.69345 0.36099 0.98342 0.0
C402 C 0.65739 0.2648 0.96601 0.0
C403 C 0.78481 0.4122 0.96311 0.0
O404 O 0.66546 0.40665 0.98953 0.0
O405 O 0.7052 0.42864 0.01073 0.0
C406 C 0.62137 0.28193 1.00439 0.0
O407 O 0.66313 0.28631 0.9787 0.0
O408 O 0.66711 0.28657 0.9537 0.0
O409 O 0.75916 0.39505 0.95166 0.0
O410 O 0.76726 0.4027 0.97655 0.0
O411 O 0.62262 0.31568 0.01125 0.0
O412 O 0.65121 0.29028 0.99379 0.0
O413 O 0.76503 0.3915 0.99234 0.0
O414 O 0.73574 0.3474 0.01232 0.0
C415 C 0.77039 0.37234 1.0041 0.0
O416 O 0.65014 0.38921 0.97477 0.0
O417 O 0.65058 0.37716 0.95008 0.0
C418 C 0.68219 0.43487 1.00088 0.0
C419 C 0.63666 0.3906 0.96123 0.0
Zn420 Zn 0.37055 0.70705 0.84236 0.0
Zn421 Zn 0.34788 0.68894 0.78828 0.0
Zn422 Zn 0.35743 0.69488 0.81693 0.0
C423 C 0.4415 0.731 0.79248 0.0
C424 C 0.29915 0.59843 0.79959 0.0
O425 O 0.31236 0.72097 0.82558 0.0
O426 O 0.31295 0.70185 0.84932 0.0
C427 C 0.45068 0.76989 0.83269 0.0
O428 O 0.42758 0.72645 0.80636 0.0
O429 O 0.41274 0.71691 0.7818 0.0
O430 O 0.30827 0.62088 0.78743 0.0
O431 O 0.3154 0.61981 0.81227 0.0
O432 O 0.42496 0.76855 0.84334 0.0
O433 O 0.43341 0.74031 0.82169 0.0
O434 O 0.33067 0.62548 0.82774 0.0
O435 O 0.37956 0.65465 0.8467 0.0
C436 C 0.35038 0.61964 0.83926 0.0
O437 O 0.32471 0.73631 0.81056 0.0
O438 O 0.32055 0.728 0.78564 0.0
C439 C 0.29581 0.71434 0.83915 0.0
C440 C 0.31539 0.74639 0.79747 0.0
Zn441 Zn 0.35212 0.69524 0.05442 0.0
Zn442 Zn 0.3571 0.6885 1.00179 0.0
Zn443 Zn 0.3539 0.69321 0.02653 0.0
C444 C 0.27779 0.6849 1.00628 0.0
C445 C 0.4288 0.76897 1.00576 0.0
O446 O 0.39714 0.6646 0.03473 0.0
O447 O 0.39875 0.67868 0.05929 0.0
C448 C 0.26108 0.63467 0.04628 0.0
O449 O 0.28269 0.66518 0.01795 0.0
O450 O 0.31205 0.70848 0.99775 0.0
O451 O 0.42404 0.73336 0.99914 0.0
O452 O 0.39925 0.76388 0.01613 0.0
O453 O 0.28653 0.64803 0.05785 0.0
O454 O 0.27874 0.65005 0.03307 0.0
O455 O 0.38456 0.76812 0.03129 0.0
O456 O 0.37043 0.76117 0.05589 0.0
C457 C 0.38421 0.78612 0.04422 0.0
O458 O 0.37951 0.64561 0.02037 0.0
O459 O 0.33623 0.62238 0.99993 0.0
C460 C 0.41245 0.66502 0.04813 0.0
C461 C 0.36005 0.61613 0.00946 0.0
Zn462 Zn 0.35551 0.68216 0.55849 0.0
Zn463 Zn 0.34747 0.68446 0.50485 0.0
Zn464 Zn 0.35458 0.68514 0.52994 0.0
C465 C 0.35316 0.76274 0.5113 0.0
C466 C 0.27221 0.60751 0.51221 0.0
O467 O 0.39116 0.64704 0.53515 0.0
O468 O 0.37489 0.6355 0.55962 0.0
C469 C 0.41243 0.77547 0.54942 0.0
O470 O 0.37679 0.75692 0.52154 0.0
O471 O 0.32538 0.72851 0.5033 0.0
O472 O 0.30185 0.6187 0.50182 0.0
O473 O 0.28183 0.63369 0.52402 0.0
O474 O 0.40313 0.74917 0.56065 0.0
O475 O 0.39421 0.75871 0.53642 0.0
O476 O 0.28093 0.65172 0.53816 0.0
O477 O 0.29014 0.6629 0.56291 0.0
C478 C 0.26396 0.65014 0.5515 0.0
O479 O 0.40165 0.663 0.52001 0.0
O480 O 0.41281 0.70572 0.49995 0.0
C481 C 0.39153 0.62822 0.54776 0.0
C482 C 0.42522 0.68335 0.50802 0.0
Zn483 Zn 0.35328 0.69186 0.29715 0.0
Zn484 Zn 0.34211 0.68907 0.34968 0.0
Zn485 Zn 0.34948 0.69155 0.32479 0.0
C486 C 0.42533 0.70175 0.34587 0.0
C487 C 0.2731 0.60876 0.34308 0.0
O488 O 0.3054 0.71942 0.31715 0.0
O489 O 0.30632 0.70799 0.29249 0.0
C490 C 0.44301 0.75331 0.3063 0.0
O491 O 0.41955 0.72206 0.33455 0.0
O492 O 0.39039 0.673 0.35336 0.0
O493 O 0.27584 0.64127 0.35112 0.0
O494 O 0.30451 0.61823 0.33294 0.0
O495 O 0.41851 0.73974 0.29452 0.0
O496 O 0.4244 0.73717 0.31932 0.0
O497 O 0.32154 0.6173 0.31824 0.0
O498 O 0.33663 0.62733 0.29375 0.0
C499 C 0.3227 0.60094 0.30506 0.0
O500 O 0.32247 0.73748 0.33159 0.0
O501 O 0.35888 0.75331 0.3534 0.0
C502 C 0.29097 0.7198 0.30368 0.0
C503 C 0.33869 0.76325 0.34354 0.0
H504 H 0.24396 0.20533 0.21837 0.0
H505 H 0.22992 0.31343 0.19787 0.0
H506 H 0.19556 0.26539 0.1755 0.0
H507 H 0.15241 0.18699 0.1649 0.0
H508 H 0.16159 0.07704 0.18563 0.0
H509 H 0.21664 0.13156 0.20421 0.0
C510 C 0.23451 0.21879 0.20885 0.0
C511 C 0.23795 0.26229 0.21009 0.0
C512 C 0.21387 0.1905 0.19595 0.0
C513 C 0.22629 0.27948 0.19749 0.0
C514 C 0.20678 0.2521 0.1846 0.0
C515 C 0.16881 0.17567 0.17289 0.0
C516 C 0.1529 0.12824 0.174 0.0
C517 C 0.19801 0.20668 0.18408 0.0
C518 C 0.17375 0.11361 0.1845 0.0
C519 C 0.20433 0.14463 0.19538 0.0
H520 H 0.768 0.97821 0.20407 0.0
H521 H 0.8545 0.09421 0.2334 0.0
H522 H 0.91517 0.12554 0.21419 0.0
H523 H 0.94903 0.11055 0.19172 0.0
H524 H 0.8642 0.99382 0.16272 0.0
H525 H 0.79676 0.97339 0.17866 0.0
C526 C 0.79985 0.01073 0.20614 0.0
C527 C 0.80732 0.03308 0.22032 0.0
C528 C 0.8347 0.02866 0.19501 0.0
C529 C 0.84818 0.07588 0.22269 0.0
C530 C 0.88291 0.0939 0.21169 0.0
C531 C 0.91512 0.08231 0.18843 0.0
C532 C 0.91135 0.0536 0.17616 0.0
C533 C 0.87732 0.06949 0.19812 0.0
C534 C 0.86763 0.01671 0.17203 0.0
C535 C 0.82935 0.00437 0.18138 0.0
H536 H 0.91402 0.77911 0.21935 0.0
H537 H 0.05923 0.82701 0.22429 0.0
H538 H 0.07758 0.87934 0.2032 0.0
H539 H 0.05423 0.91915 0.18576 0.0
H540 H 0.91044 0.87456 0.18067 0.0
H541 H 0.88949 0.81227 0.19898 0.0
C542 C 0.94962 0.80069 0.21573 0.0
C543 C 0.98522 0.79963 0.22369 0.0
C544 C 0.96019 0.83109 0.20346 0.0
C545 C 0.03106 0.8273 0.2186 0.0
C546 C 0.04171 0.8573 0.20647 0.0
C547 C 0.01816 0.89472 0.18828 0.0
C548 C 0.98389 0.90125 0.18193 0.0
C549 C 0.00678 0.86041 0.19913 0.0
C550 C 0.93732 0.86972 0.18528 0.0
C551 C 0.9255 0.83468 0.19595 0.0
H552 H 0.22803 0.25595 0.2978 0.0
H553 H 0.11433 0.24712 0.2728 0.0
H554 H 0.06006 0.19623 0.29189 0.0
H555 H 0.04372 0.14657 0.31387 0.0
H556 H 0.15562 0.15423 0.33935 0.0
H557 H 0.21176 0.21456 0.3224 0.0
C558 C 0.19139 0.24296 0.29661 0.0
C559 C 0.17522 0.25462 0.28371 0.0
C560 C 0.16008 0.21408 0.30786 0.0
C561 C 0.12774 0.23842 0.28251 0.0
C562 C 0.0966 0.20939 0.29346 0.0
C563 C 0.08046 0.16294 0.31608 0.0
C564 C 0.09554 0.14618 0.32785 0.0
C565 C 0.11223 0.19623 0.306 0.0
C566 C 0.14317 0.16716 0.33053 0.0
C567 C 0.17524 0.20093 0.32062 0.0
H568 H 0.7717 0.90199 0.29146 0.0
H569 H 0.81474 0.04578 0.29905 0.0
H570 H 0.86405 0.05002 0.31986 0.0
H571 H 0.90348 0.01621 0.33331 0.0
H572 H 0.86601 0.87524 0.32381 0.0
H573 H 0.80478 0.8659 0.30681 0.0
C574 C 0.7914 0.93422 0.29774 0.0
C575 C 0.78993 0.97376 0.29343 0.0
C576 C 0.82039 0.93667 0.30953 0.0
C577 C 0.81548 0.01494 0.30191 0.0
C578 C 0.84367 0.01737 0.31387 0.0
C579 C 0.88038 0.98284 0.32804 0.0
C580 C 0.88841 0.94607 0.33004 0.0
C581 C 0.84741 0.97885 0.3175 0.0
C582 C 0.85963 0.90355 0.32271 0.0
C583 C 0.82522 0.89856 0.31278 0.0
H584 H 0.08739 0.84834 0.29217 0.0
H585 H 0.95452 0.75744 0.31267 0.0
H586 H 0.97713 0.80662 0.3352 0.0
H587 H 0.02615 0.88387 0.34594 0.0
H588 H 0.15348 0.97994 0.32372 0.0
H589 H 0.14359 0.91959 0.30576 0.0
C590 C 0.0638 0.83882 0.3017 0.0
C591 C 0.01879 0.80018 0.30053 0.0
C592 C 0.07647 0.86818 0.31449 0.0
C593 C 0.98887 0.78785 0.31308 0.0
C594 C 1.00188 0.81578 0.32604 0.0
C595 C 0.05303 0.89073 0.33771 0.0
C596 C 0.08988 0.93629 0.33589 0.0
C597 C 0.04454 0.8573 0.32651 0.0
C598 C 0.12464 0.94499 0.32525 0.0
C599 C 0.1183 0.91078 0.31472 0.0
H600 H 0.83046 0.76581 0.80449 0.0
H601 H 0.79427 0.8581 0.78351 0.0
H602 H 0.8229 0.90975 0.80551 0.0
H603 H 0.87043 0.93513 0.82856 0.0
H604 H 0.90889 0.84448 0.84912 0.0
H605 H 0.86519 0.7848 0.83 0.0
C606 C 0.82847 0.797 0.80481 0.0
C607 C 0.81138 0.80864 0.79219 0.0
C608 C 0.84469 0.82652 0.8176 0.0
C609 C 0.80788 0.84859 0.79296 0.0
C610 C 0.82411 0.87815 0.80557 0.0
C611 C 0.86685 0.90123 0.82934 0.0
C612 C 0.89235 0.89393 0.84029 0.0
C613 C 0.84393 0.86823 0.81775 0.0
C614 C 0.88869 0.85043 0.84096 0.0
C615 C 0.86469 0.81677 0.82978 0.0
H616 H 0.26896 0.08597 0.80884 0.0
H617 H 0.18406 0.95667 0.78502 0.0
H618 H 0.12548 0.93153 0.80492 0.0
H619 H 0.09248 0.95294 0.82634 0.0
H620 H 0.17609 0.0831 0.84954 0.0
H621 H 0.24171 0.10059 0.83307 0.0
C622 C 0.23798 0.05197 0.80813 0.0
C623 C 0.2304 0.02376 0.79527 0.0
C624 C 0.20432 0.03775 0.81961 0.0
C625 C 0.19056 0.97935 0.7947 0.0
C626 C 0.15697 0.96492 0.80608 0.0
C627 C 0.1259 0.98387 0.82828 0.0
C628 C 0.12988 0.01644 0.83922 0.0
C629 C 0.16267 0.99459 0.81827 0.0
C630 C 0.17274 0.05713 0.84139 0.0
C631 C 0.20992 0.06754 0.83176 0.0
H632 H 0.99388 0.21762 0.79553 0.0
H633 H 0.14023 0.26891 0.79255 0.0
H634 H 0.1355 0.22411 0.8146 0.0
H635 H 0.08811 0.16151 0.83244 0.0
H636 H 0.94136 0.10626 0.83438 0.0
H637 H 0.94813 0.16225 0.81559 0.0
C638 C 0.02484 0.21951 0.79982 0.0
C639 C 0.06707 0.24593 0.7921 0.0
C640 C 0.02191 0.19302 0.81249 0.0
C641 C 0.10692 0.24819 0.79799 0.0
C642 C 0.1044 0.22269 0.8107 0.0
C643 C 0.05804 0.1632 0.8292 0.0
C644 C 0.01442 0.13028 0.83486 0.0
C645 C 0.06187 0.19385 0.81777 0.0
C646 C 0.9754 0.1318 0.83028 0.0
C647 C 0.97917 0.16334 0.81937 0.0
H648 H 0.86071 0.77257 0.70668 0.0
H649 H 0.80995 0.86028 0.72274 0.0
H650 H 0.85362 0.91618 0.70291 0.0
H651 H 0.91221 0.94381 0.68276 0.0
H652 H 0.96247 0.85668 0.6661 0.0
H653 H 0.91229 0.79622 0.68421 0.0
C654 C 0.85887 0.80372 0.70574 0.0
C655 C 0.8326 0.81255 0.71635 0.0
C656 C 0.88389 0.83566 0.69421 0.0
C657 C 0.82994 0.85266 0.7148 0.0
C658 C 0.85503 0.88473 0.70348 0.0
C659 C 0.9114 0.91113 0.68292 0.0
C660 C 0.94093 0.90452 0.67324 0.0
C661 C 0.88289 0.87708 0.69337 0.0
C662 C 0.93965 0.86217 0.6734 0.0
C663 C 0.91135 0.82795 0.68385 0.0
H664 H 0.26644 0.1198 0.71127 0.0
H665 H 0.17568 0.9903 0.7335 0.0
H666 H 0.11406 0.97419 0.71576 0.0
H667 H 0.08515 0.99724 0.69436 0.0
H668 H 0.1765 0.12204 0.67004 0.0
H669 H 0.23885 0.13981 0.68807 0.0
C670 C 0.2332 0.08802 0.71213 0.0
C671 C 0.22549 0.05634 0.72372 0.0
C672 C 0.1981 0.07828 0.70156 0.0
C673 C 0.18251 0.01504 0.72463 0.0
C674 C 0.14718 0.0059 0.71454 0.0
C675 C 0.11875 0.0284 0.69302 0.0
C676 C 0.12618 0.05873 0.68109 0.0
C677 C 0.15448 0.03736 0.70305 0.0
C678 C 0.17004 0.09839 0.67923 0.0
C679 C 0.20557 0.10849 0.68953 0.0
H680 H 0.05993 0.25267 0.70135 0.0
H681 H 0.94555 0.18041 0.73232 0.0
H682 H 0.90717 0.11601 0.71437 0.0
H683 H 0.91495 0.074 0.69271 0.0
H684 H 0.02987 0.14525 0.66198 0.0
H685 H 0.05751 0.21704 0.6764 0.0
C686 C 0.02624 0.22316 0.70403 0.0
C687 C 0.00631 0.22063 0.71833 0.0
C688 C 0.00417 0.18619 0.6936 0.0
C689 C 0.96202 0.18286 0.72149 0.0
C690 C 0.93997 0.146 0.71122 0.0
C691 C 0.9447 0.10586 0.68873 0.0
C692 C 0.97118 0.10394 0.67663 0.0
C693 C 0.96178 0.14637 0.69757 0.0
C694 C 0.00907 0.14554 0.67137 0.0
C695 C 0.02559 0.18648 0.67985 0.0
H696 H 0.89905 0.51509 0.56088 0.0
H697 H 0.88939 0.6217 0.53747 0.0
H698 H 0.85624 0.57085 0.51547 0.0
H699 H 0.8188 0.49243 0.50451 0.0
H700 H 0.82 0.38324 0.52898 0.0
H701 H 0.86873 0.43854 0.54861 0.0
C702 C 0.89049 0.52742 0.55085 0.0
C703 C 0.89607 0.57188 0.55092 0.0
C704 C 0.87003 0.49739 0.53834 0.0
C705 C 0.88472 0.58734 0.53783 0.0
C706 C 0.86589 0.55833 0.5252 0.0
C707 C 0.83161 0.48136 0.5138 0.0
C708 C 0.81692 0.43427 0.5152 0.0
C709 C 0.85695 0.5128 0.52551 0.0
C710 C 0.83192 0.41965 0.52757 0.0
C711 C 0.85914 0.45114 0.5389 0.0
H712 H 0.54024 0.39649 0.56199 0.0
H713 H 0.43835 0.27335 0.53846 0.0
H714 H 0.49365 0.28803 0.51799 0.0
H715 H 0.57321 0.33156 0.5081 0.0
H716 H 0.67796 0.44759 0.53355 0.0
H717 H 0.61959 0.44087 0.55185 0.0
C718 C 0.53002 0.3734 0.55223 0.0
C719 C 0.48528 0.33409 0.55163 0.0
C720 C 0.56266 0.38093 0.54088 0.0
C721 C 0.47263 0.30381 0.53913 0.0
C722 C 0.50422 0.31221 0.52744 0.0
C723 C 0.58281 0.35607 0.51745 0.0
C724 C 0.62934 0.39072 0.51937 0.0
C725 C 0.54959 0.3501 0.52836 0.0
C726 C 0.64207 0.42127 0.53178 0.0
C727 C 0.6088 0.41714 0.54226 0.0
H728 H 0.70249 0.17822 0.56183 0.0
H729 H 0.56492 0.07459 0.54786 0.0
H730 H 0.56846 0.12405 0.52723 0.0
H731 H 0.60887 0.19993 0.51406 0.0
H732 H 0.74427 0.30437 0.52946 0.0
H733 H 0.74356 0.25176 0.54829 0.0
C734 C 0.67347 0.16621 0.55419 0.0
C735 C 0.63348 0.12281 0.55651 0.0
C736 C 0.67527 0.19526 0.5425 0.0
C737 C 0.59609 0.10805 0.54648 0.0
C738 C 0.59805 0.13632 0.53462 0.0
C739 C 0.63835 0.21064 0.52139 0.0
C740 C 0.67656 0.25591 0.52037 0.0
C741 C 0.63719 0.18042 0.53264 0.0
C742 C 0.71437 0.2697 0.53008 0.0
C743 C 0.71401 0.23965 0.54088 0.0
H744 H 0.92087 0.58657 0.63677 0.0
H745 H 0.79495 0.57123 0.61907 0.0
H746 H 0.75212 0.5255 0.64107 0.0
H747 H 0.74901 0.48311 0.66417 0.0
H748 H 0.87515 0.49889 0.68177 0.0
H749 H 0.91931 0.55224 0.66141 0.0
C750 C 0.88409 0.57331 0.63776 0.0
C751 C 0.86109 0.58168 0.62613 0.0
C752 C 0.85969 0.54755 0.65059 0.0
C753 C 0.81354 0.56506 0.62777 0.0
C754 C 0.78897 0.53895 0.64039 0.0
C755 C 0.78636 0.49966 0.66387 0.0
C756 C 0.80877 0.48716 0.67452 0.0
C757 C 0.8115 0.52931 0.65179 0.0
C758 C 0.85712 0.50817 0.67377 0.0
C759 C 0.88235 0.53822 0.662 0.0
H760 H 0.46085 0.2775 0.6357 0.0
H761 H 0.54696 0.4062 0.61245 0.0
H762 H 0.612 0.42275 0.62884 0.0
H763 H 0.64567 0.39805 0.64876 0.0
H764 H 0.55779 0.27171 0.67301 0.0
H765 H 0.49232 0.25663 0.6572 0.0
C766 C 0.49372 0.30945 0.63434 0.0
C767 C 0.49912 0.34044 0.6228 0.0
C768 C 0.53082 0.31879 0.64384 0.0
C769 C 0.54177 0.38191 0.62129 0.0
C770 C 0.57909 0.39117 0.63058 0.0
C771 C 0.61216 0.36721 0.65056 0.0
C772 C 0.60687 0.33546 0.66182 0.0
C773 C 0.57426 0.35942 0.64169 0.0
C774 C 0.563 0.29629 0.66428 0.0
C775 C 0.52548 0.28773 0.65527 0.0
H776 H 0.58635 0.1209 0.63242 0.0
H777 H 0.71686 0.12661 0.63582 0.0
H778 H 0.73479 0.17319 0.65893 0.0
H779 H 0.71775 0.21923 0.67632 0.0
H780 H 0.5927 0.22302 0.67114 0.0
H781 H 0.56703 0.16392 0.65114 0.0
C782 C 0.61849 0.13198 0.63833 0.0
C783 C 0.65052 0.1208 0.63231 0.0
C784 C 0.6292 0.15994 0.65141 0.0
C785 C 0.69201 0.13541 0.64007 0.0
C786 C 0.70215 0.16177 0.65334 0.0
C787 C 0.68432 0.20637 0.67107 0.0
C788 C 0.65717 0.22555 0.67525 0.0
C789 C 0.67155 0.17516 0.65888 0.0
C790 C 0.61393 0.20837 0.66836 0.0
C791 C 0.59969 0.1752 0.65669 0.0
H792 H 0.48327 0.20533 0.119 0.0
H793 H 0.47356 0.09236 0.1446 0.0
H794 H 0.50832 0.14345 0.16655 0.0
H795 H 0.55328 0.22255 0.17685 0.0
H796 H 0.57328 0.33729 0.14993 0.0
H797 H 0.52192 0.2838 0.13037 0.0
C798 C 0.48779 0.19185 0.12953 0.0
C799 C 0.47617 0.14536 0.13022 0.0
C800 C 0.50983 0.222 0.14188 0.0
C801 C 0.48265 0.12822 0.14382 0.0
C802 C 0.50252 0.1574 0.15636 0.0
C803 C 0.54471 0.23553 0.16697 0.0
C804 C 0.56614 0.28348 0.16487 0.0
C805 C 0.51784 0.2047 0.15534 0.0
C806 C 0.55635 0.30032 0.15182 0.0
C807 C 0.52751 0.26977 0.14057 0.0
H808 H 0.88811 0.33379 0.13511 0.0
H809 H 0.87014 0.43315 0.11016 0.0
H810 H 0.8043 0.41725 0.12588 0.0
H811 H 0.75303 0.37753 0.14673 0.0
H812 H 0.77086 0.28216 0.17382 0.0
H813 H 0.83562 0.29417 0.15735 0.0
C814 C 0.86963 0.35179 0.13316 0.0
C815 C 0.88429 0.38479 0.12145 0.0
C816 C 0.8318 0.3432 0.14259 0.0
C817 C 0.86012 0.40804 0.11914 0.0
C818 C 0.82222 0.39883 0.12809 0.0
C819 C 0.77032 0.35853 0.14897 0.0
C820 C 0.75627 0.32807 0.1613 0.0
C821 C 0.80789 0.3667 0.13983 0.0
C822 C 0.78059 0.30536 0.16429 0.0
C823 C 0.81766 0.31236 0.15488 0.0
H824 H 0.78341 0.59633 0.1308 0.0
H825 H 0.64054 0.51863 0.11695 0.0
H826 H 0.62452 0.46004 0.13582 0.0
H827 H 0.6516 0.42811 0.15506 0.0
H828 H 0.79244 0.50569 0.17045 0.0
H829 H 0.8089 0.56749 0.15232 0.0
C830 C 0.74877 0.56669 0.13201 0.0
C831 C 0.71331 0.56167 0.12235 0.0
C832 C 0.73948 0.53323 0.14314 0.0
C833 C 0.66844 0.52342 0.1242 0.0
C834 C 0.65923 0.48977 0.13497 0.0
C835 C 0.68576 0.45895 0.15457 0.0
C836 C 0.72087 0.4626 0.16395 0.0
C837 C 0.69454 0.49401 0.14432 0.0
C838 C 0.7649 0.50253 0.16337 0.0
C839 C 0.77428 0.53755 0.15293 0.0
H840 H 0.54782 0.11784 0.04918 0.0
H841 H 0.44306 0.15481 0.05473 0.0
H842 H 0.47332 0.20537 0.03304 0.0
H843 H 0.53546 0.24763 0.01491 0.0
H844 H 0.64231 0.21447 0.00925 0.0
H845 H 0.60441 0.15276 0.02807 0.0
C846 C 0.53136 0.13661 0.04555 0.0
C847 C 0.49382 0.13317 0.05389 0.0
C848 C 0.54909 0.16612 0.03294 0.0
C849 C 0.47244 0.15716 0.04879 0.0
C850 C 0.4896 0.1861 0.0363 0.0
C851 C 0.54956 0.22578 0.01744 0.0
C852 C 0.59158 0.23557 0.01084 0.0
C853 C 0.52865 0.19192 0.02861 0.0
C854 C 0.60967 0.20719 0.01412 0.0
C855 C 0.58841 0.17249 0.02508 0.0
H856 H 0.9488 0.4517 0.0426 0.0
H857 H 0.87976 0.30846 0.05634 0.0
H858 H 0.82396 0.28745 0.03598 0.0
H859 H 0.78763 0.31151 0.01725 0.0
H860 H 0.8534 0.45457 1.00405 0.0
H861 H 0.91855 0.47378 0.0209 0.0
C862 C 0.92197 0.41574 0.04103 0.0
C863 C 0.91796 0.38187 0.05128 0.0
C864 C 0.88945 0.40392 0.02938 0.0
C865 C 0.88346 0.33537 0.04882 0.0
C866 C 0.85144 0.3233 0.03716 0.0
C867 C 0.81696 0.34669 0.01773 0.0
C868 C 0.81565 0.38174 0.00959 0.0
C869 C 0.85309 0.35752 0.02779 0.0
C870 C 0.85381 0.42704 0.01016 0.0
C871 C 0.89066 0.43805 0.01996 0.0
H872 H 0.73401 0.61005 0.03493 0.0
H873 H 0.61298 0.51406 0.06033 0.0
H874 H 0.58914 0.4573 0.03968 0.0
H875 H 0.61272 0.42955 0.01737 0.0
H876 H 0.73555 0.52424 0.99275 0.0
H877 H 0.74757 0.5877 0.00962 0.0
C878 C 0.70192 0.57705 0.03579 0.0
C879 C 0.67599 0.56566 0.04929 0.0
C880 C 0.6886 0.54452 0.02391 0.0
C881 C 0.63389 0.52335 0.05013 0.0
C882 C 0.62026 0.49085 0.03833 0.0
C883 C 0.64044 0.46473 0.01518 0.0
C884 C 0.67319 0.47247 1.00388 0.0
C885 C 0.64853 0.50026 0.0255 0.0
C886 C 0.70958 0.51779 1.00126 0.0
C887 C 0.71705 0.5538 0.01114 0.0
H888 H 0.58535 0.87643 0.87974 0.0
H889 H 0.55608 0.97866 0.86281 0.0
H890 H 0.52847 0.93582 0.83913 0.0
H891 H 0.49346 0.86017 0.82665 0.0
H892 H 0.51564 0.75464 0.84429 0.0
H893 H 0.5676 0.80852 0.86357 0.0
C894 C 0.57401 0.88987 0.87072 0.0
C895 C 0.57092 0.92961 0.87331 0.0
C896 C 0.55708 0.86441 0.85713 0.0
C897 C 0.55718 0.94718 0.86136 0.0
C898 C 0.54164 0.92288 0.84773 0.0
C899 C 0.51217 0.85006 0.8341 0.0
C900 C 0.5 0.80348 0.83439 0.0
C901 C 0.53874 0.88008 0.84589 0.0
C902 C 0.52441 0.79048 0.84395 0.0
C903 C 0.55308 0.82095 0.85528 0.0
H904 H 0.10795 0.64134 0.87015 0.0
H905 H 0.19244 0.75877 0.89928 0.0
H906 H 0.25549 0.78761 0.88103 0.0
H907 H 0.29095 0.77239 0.85907 0.0
H908 H 0.20812 0.65567 0.82981 0.0
H909 H 0.13973 0.63459 0.84543 0.0
C910 C 0.13996 0.67353 0.8724 0.0
C911 C 0.14574 0.69718 0.88626 0.0
C912 C 0.1763 0.69032 0.86174 0.0
C913 C 0.18709 0.73945 0.88883 0.0
C914 C 0.22329 0.7561 0.87837 0.0
C915 C 0.25736 0.74377 0.85571 0.0
C916 C 0.25429 0.71583 0.84329 0.0
C917 C 0.21883 0.73103 0.86506 0.0
C918 C 0.21097 0.67822 0.83916 0.0
C919 C 0.17212 0.66561 0.84829 0.0
H920 H 0.26152 0.44659 0.88102 0.0
H921 H 0.40575 0.4983 0.88996 0.0
H922 H 0.42769 0.55336 0.86938 0.0
H923 H 0.40645 0.59387 0.8513 0.0
H924 H 0.2631 0.54439 0.84239 0.0
H925 H 0.24019 0.48045 0.86009 0.0
C926 C 0.29775 0.46955 0.87836 0.0
C927 C 0.33193 0.4688 0.88728 0.0
C928 C 0.31027 0.50136 0.86644 0.0
C929 C 0.37867 0.49825 0.88344 0.0
C930 C 0.39131 0.52985 0.87165 0.0
C931 C 0.37018 0.56818 0.85289 0.0
C932 C 0.33646 0.57374 0.84557 0.0
C933 C 0.35748 0.53262 0.86339 0.0
C934 C 0.28964 0.5404 0.8477 0.0
C935 C 0.27661 0.50434 0.85804 0.0
H936 H 0.5737 0.90403 0.95942 0.0
H937 H 0.45605 0.91421 0.94643 0.0
H938 H 0.41394 0.87131 0.96872 0.0
H939 H 0.40679 0.82379 0.99061 0.0
H940 H 0.52154 0.80895 1.00306 0.0
H941 H 0.56877 0.86187 0.98288 0.0
C942 C 0.53887 0.89682 0.96147 0.0
C943 C 0.51815 0.91203 0.95104 0.0
C944 C 0.51443 0.87195 0.97449 0.0
C945 C 0.4731 0.90287 0.9541 0.0
C946 C 0.44883 0.87841 0.96694 0.0
C947 C 0.44283 0.83397 0.98933 0.0
C948 C 0.46108 0.81354 0.99855 0.0
C949 C 0.46883 0.86226 0.97713 0.0
C950 C 0.50722 0.82537 0.99636 0.0
C951 C 0.5339 0.85486 0.98461 0.0
H952 H 0.14268 0.70866 0.96628 0.0
H953 H 0.10129 0.56745 0.95451 0.0
H954 H 0.14678 0.56503 0.97529 0.0
H955 H 0.20746 0.60664 0.99438 0.0
H956 H 0.25213 0.74865 1.00527 0.0
H957 H 0.19528 0.74668 0.98778 0.0
C958 C 0.14323 0.6772 0.96834 0.0
C959 C 0.11926 0.63871 0.95858 0.0
C960 C 0.16977 0.67598 0.98034 0.0
C961 C 0.11981 0.59796 0.96165 0.0
C962 C 0.14579 0.59639 0.9736 0.0
C963 C 0.20304 0.6363 0.99343 0.0
C964 C 0.2331 0.67743 1.00124 0.0
C965 C 0.17196 0.63559 0.98275 0.0
C966 C 0.22846 0.71633 0.99957 0.0
C967 C 0.19656 0.71544 0.98937 0.0
H968 H 0.30089 0.43601 0.97702 0.0
H969 H 0.42338 0.52579 0.95118 0.0
H970 H 0.44908 0.58511 0.97111 0.0
H971 H 0.42735 0.61682 0.99288 0.0
H972 H 0.3035 0.52782 0.01803 0.0
H973 H 0.28868 0.46201 1.00189 0.0
C974 C 0.33368 0.46821 0.97593 0.0
C975 C 0.35961 0.47717 0.96251 0.0
C976 C 0.34812 0.5021 0.98741 0.0
C977 C 0.40256 0.51842 0.96134 0.0
C978 C 0.41723 0.55236 0.97273 0.0
C979 C 0.39872 0.58234 0.99535 0.0
C980 C 0.36662 0.57688 1.00661 0.0
C981 C 0.38919 0.54538 0.98546 0.0
C982 C 0.329 0.53248 0.00956 0.0
C983 C 0.31998 0.49513 1.0001 0.0
H984 H 0.16045 0.42316 0.48087 0.0
H985 H 0.12016 0.5043 0.45472 0.0
H986 H 0.14995 0.5642 0.47439 0.0
H987 H 0.20245 0.60026 0.49595 0.0
H988 H 0.24626 0.52122 0.52132 0.0
H989 H 0.1983 0.4529 0.50554 0.0
C990 C 0.1575 0.4536 0.4796 0.0
C991 C 0.1395 0.45998 0.46614 0.0
C992 C 0.17495 0.4881 0.49093 0.0
C993 C 0.13464 0.49892 0.46484 0.0
C994 C 0.15163 0.53322 0.4761 0.0
C995 C 0.19919 0.56722 0.49854 0.0
C996 C 0.2275 0.56541 0.50972 0.0
C997 C 0.17378 0.52913 0.48884 0.0
C998 C 0.22405 0.52297 0.51289 0.0
C999 C 0.19751 0.48427 0.50362 0.0
H1000 H 0.55316 0.65438 0.46398 0.0
H1001 H 0.6335 0.80318 0.4699 0.0
H1002 H 0.5836 0.79872 0.49058 0.0
H1003 H 0.51068 0.75484 0.50426 0.0
H1004 H 0.42776 0.60695 0.49849 0.0
H1005 H 0.48554 0.60847 0.48092 0.0
C1006 C 0.56021 0.68572 0.46996 0.0
C1007 C 0.59662 0.72917 0.46504 0.0
C1008 C 0.53089 0.68309 0.48195 0.0
C1009 C 0.60536 0.7693 0.47311 0.0
C1010 C 0.57686 0.76687 0.48504 0.0
C1011 C 0.5063 0.72275 0.49963 0.0
C1012 C 0.46547 0.68085 0.50273 0.0
C1013 C 0.53869 0.72426 0.48919 0.0
C1014 C 0.45948 0.63949 0.49648 0.0
C1015 C 0.49215 0.64055 0.48623 0.0
H1016 H 0.33367 0.9021 0.47182 0.0
H1017 H 0.47422 0.94183 0.46071 0.0
H1018 H 0.47501 0.89471 0.4812 0.0
H1019 H 0.43235 0.83331 0.49992 0.0
H1020 H 0.29113 0.79062 0.51029 0.0
H1021 H 0.29459 0.84865 0.49304 0.0
C1022 C 0.36462 0.90084 0.47397 0.0
C1023 C 0.40341 0.92495 0.46444 0.0
C1024 C 0.36498 0.87336 0.48585 0.0
C1025 C 0.44346 0.92331 0.46763 0.0
C1026 C 0.44412 0.89638 0.47944 0.0
C1027 C 0.40318 0.83839 0.49893 0.0
C1028 C 0.36182 0.80838 0.50653 0.0
C1029 C 0.40471 0.87025 0.48837 0.0
C1030 C 0.32364 0.81408 0.50477 0.0
C1031 C 0.32535 0.84668 0.49468 0.0
H1032 H 0.12522 0.46107 0.38482 0.0
H1033 H 0.23906 0.44081 0.39437 0.0
H1034 H 0.2818 0.48856 0.3729 0.0
H1035 H 0.29199 0.54572 0.35382 0.0
H1036 H 0.18061 0.56974 0.34516 0.0
H1037 H 0.13134 0.50977 0.36327 0.0
C1038 C 0.15918 0.46674 0.38214 0.0
C1039 C 0.17906 0.44804 0.39149 0.0
C1040 C 0.18399 0.4946 0.36971 0.0
C1041 C 0.22289 0.45519 0.38759 0.0
C1042 C 0.2475 0.48246 0.37523 0.0
C1043 C 0.25619 0.53608 0.35537 0.0
C1044 C 0.23964 0.56151 0.34807 0.0
C1045 C 0.229 0.50344 0.36646 0.0
C1046 C 0.19368 0.54988 0.35049 0.0
C1047 C 0.16583 0.51624 0.36107 0.0
H1048 H 0.60943 0.78971 0.38265 0.0
H1049 H 0.54914 0.64603 0.39515 0.0
H1050 H 0.48879 0.62342 0.37648 0.0
H1051 H 0.44768 0.64465 0.35894 0.0
H1052 H 0.50475 0.78723 0.34636 0.0
H1053 H 0.57251 0.80989 0.36232 0.0
C1054 C 0.58334 0.75344 0.3812 0.0
C1055 C 0.5835 0.71983 0.39058 0.0
C1056 C 0.54822 0.74038 0.37036 0.0
C1057 C 0.54976 0.67287 0.38831 0.0
C1058 C 0.51512 0.65974 0.37759 0.0
C1059 C 0.47553 0.68057 0.35942 0.0
C1060 C 0.47125 0.71431 0.35164 0.0
C1061 C 0.51332 0.69326 0.36888 0.0
C1062 C 0.50755 0.76064 0.35219 0.0
C1063 C 0.54592 0.77362 0.36149 0.0
H1064 H 0.40794 0.94642 0.37597 0.0
H1065 H 0.28588 0.86005 0.40262 0.0
H1066 H 0.25768 0.80007 0.38305 0.0
H1067 H 0.2752 0.76653 0.36097 0.0
H1068 H 0.39798 0.85094 0.33476 0.0
H1069 H 0.41733 0.9179 0.35104 0.0
C1070 C 0.37489 0.91473 0.37739 0.0
C1071 C 0.34977 0.90728 0.39095 0.0
C1072 C 0.35869 0.88016 0.36604 0.0
C1073 C 0.3064 0.8665 0.39244 0.0
C1074 C 0.2901 0.8321 0.38122 0.0
C1075 C 0.30468 0.80034 0.35833 0.0
C1076 C 0.33494 0.8041 0.34666 0.0
C1077 C 0.31679 0.83781 0.36827 0.0
C1078 C 0.37372 0.84762 0.34351 0.0
C1079 C 0.38537 0.88559 0.35307 0.0
H1080 H 0.28706 0.04713 0.1266 0.0
H1081 H 0.28336 0.09603 0.08197 0.0
H1082 H 0.2146 0.09866 0.0888 0.0
H1083 H 0.1531 0.08305 0.10676 0.0
H1084 H 0.15614 0.03682 0.15181 0.0
H1085 H 0.22819 0.03844 0.14571 0.0
C1086 C 0.27105 0.05829 0.11842 0.0
C1087 C 0.28988 0.07074 0.10372 0.0
C1088 C 0.23175 0.06069 0.12254 0.0
C1089 C 0.26943 0.08605 0.09332 0.0
C1090 C 0.23013 0.08765 0.09721 0.0
C1091 C 0.16987 0.07397 0.11534 0.0
C1092 C 0.14914 0.05946 0.12966 0.0
C1093 C 0.21077 0.07464 0.11171 0.0
C1094 C 0.17153 0.04831 0.14071 0.0
C1095 C 0.21245 0.04875 0.13716 0.0
H1096 H 0.92271 0.2096 0.10088 0.0
H1097 H 0.0293 0.31004 0.13037 0.0
H1098 H 0.0349 0.2484 0.14269 0.0
H1099 H 0.0152 0.16647 0.14329 0.0
H1100 H 0.91217 0.06764 0.11261 0.0
H1101 H 0.8987 0.12741 0.10287 0.0
C1102 C 0.94681 0.21799 0.11011 0.0
C1103 C 0.97581 0.26455 0.11456 0.0
C1104 C 0.95035 0.18237 0.11702 0.0
C1105 C 0.00674 0.27461 0.1266 0.0
C1106 C 0.00997 0.23931 0.13369 0.0
C1107 C 0.98884 0.15791 0.13482 0.0
C1108 C 0.9643 0.11265 0.12879 0.0
C1109 C 0.98265 0.1931 0.12879 0.0
C1110 C 0.93111 0.10217 0.11752 0.0
C1111 C 0.9237 0.13644 0.11185 0.0
H1112 H 0.7562 0.74825 0.12724 0.0
H1113 H 0.82575 0.74011 0.087 0.0
H1114 H 0.89843 0.80468 0.09602 0.0
H1115 H 0.94066 0.86872 0.1137 0.0
H1116 H 0.87375 0.88013 0.15392 0.0
H1117 H 0.80223 0.80836 0.14688 0.0
C1118 C 0.78738 0.76048 0.12054 0.0
C1119 C 0.78525 0.73978 0.10633 0.0
C1120 C 0.82966 0.79802 0.12584 0.0
C1121 C 0.82611 0.75557 0.09788 0.0
C1122 C 0.86787 0.79252 0.10304 0.0
C1123 C 0.91074 0.85481 0.12113 0.0
C1124 C 0.91227 0.87964 0.13425 0.0
C1125 C 0.86981 0.81463 0.11679 0.0
C1126 C 0.87347 0.8613 0.14383 0.0
C1127 C 0.83241 0.82067 0.13967 0.0
H1128 H 0.04042 0.27935 0.38802 0.0
H1129 H 0.11742 0.28444 0.42756 0.0
H1130 H 0.13011 0.22515 0.41661 0.0
H1131 H 0.11065 0.16491 0.39762 0.0
H1132 H 0.03181 0.15607 0.3583 0.0
H1133 H 0.03014 0.22496 0.36696 0.0
C1134 C 0.06019 0.26761 0.39415 0.0
C1135 C 0.07707 0.28552 0.40873 0.0
C1136 C 0.06746 0.23323 0.38776 0.0
C1137 C 0.10346 0.27076 0.41643 0.0
C1138 C 0.11094 0.23695 0.41016 0.0
C1139 C 0.09439 0.17903 0.39071 0.0
C1140 C 0.07105 0.15549 0.37746 0.0
C1141 C 0.09204 0.21711 0.39606 0.0
C1142 C 0.05026 0.17396 0.36851 0.0
C1143 C 0.04863 0.21281 0.37361 0.0
H1144 H 0.74729 0.83029 0.41121 0.0
H1145 H 0.76985 0.72484 0.39206 0.0
H1146 H 0.83295 0.78316 0.37642 0.0
H1147 H 0.88776 0.86604 0.37062 0.0
H1148 H 0.86459 0.97036 0.39029 0.0
H1149 H 0.79462 0.9106 0.40279 0.0
C1150 C 0.76564 0.81988 0.40352 0.0
C1151 C 0.75436 0.77335 0.40302 0.0
C1152 C 0.80144 0.85348 0.39446 0.0
C1153 C 0.77814 0.7605 0.39278 0.0
C1154 C 0.81417 0.79385 0.38381 0.0
C1155 C 0.86613 0.87534 0.37709 0.0
C1156 C 0.88078 0.92246 0.37934 0.0
C1157 C 0.82681 0.84069 0.38478 0.0
C1158 C 0.8534 0.93428 0.38817 0.0
C1159 C 0.81384 0.90014 0.39552 0.0
H1160 H 0.26633 0.99548 0.39485 0.0
H1161 H 0.19378 0.9317 0.43627 0.0
H1162 H 0.12275 0.92312 0.42584 0.0
H1163 H 0.08343 0.94013 0.40591 0.0
H1164 H 0.15476 0.00217 0.36418 0.0
H1165 H 0.22374 0.00362 0.37354 0.0
C1166 C 0.23488 0.97959 0.40157 0.0
C1167 C 0.23549 0.96511 0.41645 0.0
C1168 C 0.19395 0.97402 0.39537 0.0
C1169 C 0.1943 0.94353 0.42487 0.0
C1170 C 0.15369 0.93857 0.4189 0.0
C1171 C 0.11376 0.95304 0.39871 0.0
C1172 C 0.11406 0.97133 0.3844 0.0
C1173 C 0.15336 0.95444 0.40428 0.0
C1174 C 0.15345 0.98758 0.37517 0.0
C1175 C 0.19311 0.98899 0.38063 0.0
H1176 H 0.73274 0.9275 0.91408 0.0
H1177 H 0.75019 0.03911 0.88574 0.0
H1178 H 0.81627 0.04198 0.87331 0.0
H1179 H 0.87391 0.018 0.87193 0.0
H1180 H 0.8612 0.9113 0.9015 0.0
H1181 H 0.78826 0.90022 0.9116 0.0
C1182 C 0.75092 0.95228 0.90515 0.0
C1183 C 0.73667 0.98337 0.90103 0.0
C1184 C 0.7896 0.9542 0.89806 0.0
C1185 C 0.76056 0.01509 0.88934 0.0
C1186 C 0.79835 0.01665 0.88211 0.0
C1187 C 0.85415 0.99118 0.88017 0.0
C1188 C 0.87209 0.96466 0.8857 0.0
C1189 C 0.81364 0.98688 0.88651 0.0
C1190 C 0.8473 0.93129 0.89683 0.0
C1191 C 0.80598 0.92546 0.90276 0.0
H1192 H 0.05876 0.78742 0.89064 0.0
H1193 H 0.11406 0.85071 0.93413 0.0
H1194 H 0.11702 0.92169 0.92612 0.0
H1195 H 0.09558 0.9619 0.90781 0.0
H1196 H 0.04248 0.89985 0.86401 0.0
H1197 H 0.04824 0.8326 0.87089 0.0
C1198 C 0.07184 0.81697 0.8983 0.0
C1199 C 0.08531 0.81369 0.91306 0.0
C1200 C 0.07403 0.85779 0.89352 0.0
C1201 C 0.10318 0.85241 0.92276 0.0
C1202 C 0.10482 0.89291 0.91819 0.0
C1203 C 0.08627 0.9341 0.89964 0.0
C1204 C 0.06811 0.9355 0.88549 0.0
C1205 C 0.08924 0.8955 0.90374 0.0
C1206 C 0.05667 0.89961 0.87495 0.0
C1207 C 0.05946 0.86093 0.87895 0.0
H1208 H 0.26822 0.28527 0.88725 0.0
H1209 H 0.20326 0.30025 0.92757 0.0
H1210 H 0.12817 0.23961 0.91863 0.0
H1211 H 0.0821 0.17611 0.90107 0.0
H1212 H 0.14434 0.15876 0.86065 0.0
H1213 H 0.21868 0.2273 0.86755 0.0
C1214 C 0.23754 0.27536 0.89399 0.0
C1215 C 0.24159 0.29672 0.90821 0.0
C1216 C 0.19381 0.24032 0.88869 0.0
C1217 C 0.20137 0.28414 0.91668 0.0
C1218 C 0.15824 0.24947 0.91156 0.0
C1219 C 0.1116 0.1883 0.89352 0.0
C1220 C 0.10788 0.16251 0.88042 0.0
C1221 C 0.15419 0.22663 0.89779 0.0
C1222 C 0.14626 0.17846 0.87071 0.0
C1223 C 0.18896 0.21716 0.87482 0.0
H1224 H 0.95289 0.75827 0.58891 0.0
H1225 H 0.02232 0.74945 0.62837 0.0
H1226 H 0.02513 0.81828 0.63927 0.0
H1227 H 0.01208 0.88398 0.63678 0.0
H1228 H 0.94752 0.89482 0.59635 0.0
H1229 H 0.93783 0.82188 0.58676 0.0
C1230 C 0.96845 0.77123 0.59993 0.0
C1231 C 0.98759 0.7489 0.60778 0.0
C1232 C 0.97061 0.81116 0.60598 0.0
C1233 C 0.00764 0.7662 0.62205 0.0
C1234 C 0.00914 0.80549 0.6283 0.0
C1235 C 0.9951 0.86981 0.62601 0.0
C1236 C 0.9803 0.89459 0.61731 0.0
C1237 C 0.99121 0.82861 0.62029 0.0
C1238 C 0.95912 0.87633 0.60325 0.0
C1239 C 0.95377 0.83474 0.59773 0.0
H1240 H 0.31403 0.21199 0.60165 0.0
H1241 H 0.30105 0.32002 0.62374 0.0
H1242 H 0.22956 0.26195 0.63598 0.0
H1243 H 0.16556 0.18048 0.63792 0.0
H1244 H 0.17761 0.07304 0.6152 0.0
H1245 H 0.25478 0.1303 0.60604 0.0
C1246 C 0.29588 0.2228 0.6093 0.0
C1247 C 0.31262 0.27034 0.61159 0.0
C1248 C 0.25455 0.18913 0.61627 0.0
C1249 C 0.28887 0.2837 0.62168 0.0
C1250 C 0.24787 0.25047 0.62869 0.0
C1251 C 0.18595 0.16964 0.63143 0.0
C1252 C 0.16651 0.12266 0.62743 0.0
C1253 C 0.22973 0.20308 0.62578 0.0
C1254 C 0.19243 0.10897 0.61863 0.0
C1255 C 0.23628 0.14178 0.61325 0.0
H1256 H 0.76623 0.03886 0.62641 0.0
H1257 H 0.83568 0.13282 0.58948 0.0
H1258 H 0.90896 0.14138 0.59714 0.0
H1259 H 0.95208 0.11652 0.61265 0.0
H1260 H 0.88502 0.02435 0.65005 0.0
H1261 H 0.81266 0.02188 0.64423 0.0
C1262 C 0.7975 0.06145 0.62012 0.0
C1263 C 0.79516 0.0846 0.60721 0.0
C1264 C 0.8401 0.06681 0.62475 0.0
C1265 C 0.83622 0.11434 0.59937 0.0
C1266 C 0.87827 0.1193 0.60375 0.0
C1267 C 0.92193 0.09679 0.61978 0.0
C1268 C 0.92397 0.07049 0.63173 0.0
C1269 C 0.88047 0.09504 0.61621 0.0
C1270 C 0.88462 0.04525 0.64088 0.0
C1271 C 0.84302 0.04333 0.6374 0.0
H1272 H 0.9667 0.43335 0.42831 0.0
H1273 H 0.95237 0.32647 0.45838 0.0
H1274 H 0.88926 0.32743 0.47163 0.0
H1275 H 0.83381 0.3541 0.47359 0.0
H1276 H 0.84342 0.45606 0.44238 0.0
H1277 H 0.91312 0.4627 0.43105 0.0
C1278 C 0.94975 0.41032 0.43776 0.0
C1279 C 0.96405 0.37956 0.44219 0.0
C1280 C 0.91291 0.41067 0.44532 0.0
C1281 C 0.94186 0.35018 0.45456 0.0
C1282 C 0.90584 0.35085 0.46225 0.0
C1283 C 0.85217 0.37884 0.46465 0.0
C1284 C 0.83421 0.40519 0.45899 0.0
C1285 C 0.8907 0.38056 0.45765 0.0
C1286 C 0.85724 0.43602 0.44706 0.0
C1287 C 0.89671 0.43936 0.44045 0.0
H1288 H 0.67965 0.60801 0.46237 0.0
H1289 H 0.59364 0.53984 0.42345 0.0
H1290 H 0.58604 0.46673 0.43075 0.0
H1291 H 0.60954 0.42359 0.44669 0.0
H1292 H 0.69303 0.48882 0.4862 0.0
H1293 H 0.69475 0.56098 0.48049 0.0
C1294 C 0.65905 0.57703 0.45558 0.0
C1295 C 0.63784 0.57962 0.44224 0.0
C1296 C 0.65404 0.53443 0.46001 0.0
C1297 C 0.61056 0.53899 0.43371 0.0
C1298 C 0.60613 0.49704 0.43787 0.0
C1299 C 0.62715 0.45327 0.45427 0.0
C1300 C 0.65129 0.45099 0.46679 0.0
C1301 C 0.62837 0.49453 0.45082 0.0
C1302 C 0.67382 0.48959 0.47655 0.0
C1303 C 0.67534 0.53106 0.47316 0.0
H1304 H 0.4944 0.07854 0.43627 0.0
H1305 H 0.40307 0.09906 0.46552 0.0
H1306 H 0.46947 0.16244 0.47861 0.0
H1307 H 0.55362 0.21794 0.47969 0.0
H1308 H 0.64406 0.19903 0.44962 0.0
H1309 H 0.57833 0.12818 0.43933 0.0
C1310 C 0.489 0.09666 0.44557 0.0
C1311 C 0.44385 0.08461 0.44974 0.0
C1312 C 0.52736 0.13299 0.45308 0.0
C1313 C 0.43749 0.108 0.46197 0.0
C1314 C 0.47546 0.14417 0.46951 0.0
C1315 C 0.55893 0.19709 0.47136 0.0
C1316 C 0.60353 0.21301 0.46558 0.0
C1317 C 0.5206 0.15761 0.46496 0.0
C1318 C 0.61004 0.18675 0.45441 0.0
C1319 C 0.57239 0.14671 0.44836 0.0
H1320 H 0.77785 0.64397 0.74234 0.0
H1321 H 0.6581 0.62359 0.71822 0.0
H1322 H 0.64946 0.55375 0.70609 0.0
H1323 H 0.6705 0.49309 0.70484 0.0
H1324 H 0.78855 0.51297 0.7298 0.0
H1325 H 0.8041 0.5887 0.73878 0.0
C1326 C 0.75017 0.62453 0.73431 0.0
C1327 C 0.71824 0.63849 0.73138 0.0
C1328 C 0.74527 0.58431 0.72745 0.0
C1329 C 0.68293 0.61331 0.72078 0.0
C1330 C 0.67794 0.57333 0.71383 0.0
C1331 C 0.70045 0.51488 0.71181 0.0
C1332 C 0.72865 0.49801 0.71658 0.0
C1333 C 0.7082 0.55779 0.71737 0.0
C1334 C 0.76676 0.52577 0.72591 0.0
C1335 C 0.77537 0.56879 0.73116 0.0
H1336 H 0.4259 0.09139 0.72081 0.0
H1337 H 0.39431 0.17034 0.75252 0.0
H1338 H 0.45776 0.24211 0.74265 0.0
H1339 H 0.52719 0.28257 0.72723 0.0
H1340 H 0.56452 0.20619 0.69666 0.0
H1341 H 0.49344 0.13393 0.70334 0.0
C1342 C 0.43269 0.12435 0.72542 0.0
C1343 C 0.40549 0.12521 0.73755 0.0
C1344 C 0.4702 0.16616 0.71979 0.0
C1345 C 0.41473 0.16832 0.74334 0.0
C1346 C 0.45107 0.2096 0.73766 0.0
C1347 C 0.51921 0.25024 0.72172 0.0
C1348 C 0.55098 0.24985 0.71136 0.0
C1349 C 0.47964 0.20892 0.72618 0.0
C1350 C 0.5402 0.20769 0.70437 0.0
C1351 C 0.49992 0.16621 0.70845 0.0
H1352 H 0.88032 0.28296 0.75852 0.0
H1353 H 0.97488 0.36898 0.72358 0.0
H1354 H 0.91432 0.37708 0.71193 0.0
H1355 H 0.835 0.36237 0.71206 0.0
H1356 H 0.74138 0.27994 0.74766 0.0
H1357 H 0.80046 0.26737 0.75845 0.0
C1358 C 0.88759 0.30342 0.74836 0.0
C1359 C 0.93215 0.32547 0.74202 0.0
C1360 C 0.85258 0.30845 0.74174 0.0
C1361 C 0.94099 0.35185 0.72881 0.0
C1362 C 0.9063 0.35643 0.72207 0.0
C1363 C 0.82742 0.34115 0.72204 0.0
C1364 C 0.78394 0.32207 0.72902 0.0
C1365 C 0.86202 0.33514 0.72846 0.0
C1366 C 0.77473 0.29513 0.7421 0.0
C1367 C 0.80852 0.288 0.7483 0.0
H1368 H 0.40797 0.33097 0.22177 0.0
H1369 H 0.40132 0.27114 0.26531 0.0
H1370 H 0.46863 0.26492 0.25867 0.0
H1371 H 0.53286 0.28221 0.2413 0.0
H1372 H 0.53778 0.33827 0.19721 0.0
H1373 H 0.46694 0.33907 0.20305 0.0
C1374 C 0.42124 0.31642 0.22976 0.0
C1375 C 0.40029 0.30232 0.24413 0.0
C1376 C 0.45934 0.31193 0.22571 0.0
C1377 C 0.41707 0.28254 0.25424 0.0
C1378 C 0.45553 0.27897 0.25045 0.0
C1379 C 0.51792 0.29375 0.23285 0.0
C1380 C 0.54078 0.31048 0.21887 0.0
C1381 C 0.47737 0.29424 0.23632 0.0
C1382 C 0.52079 0.32496 0.208 0.0
C1383 C 0.48055 0.32591 0.21141 0.0
H1384 H 0.705 0.10448 0.22571 0.0
H1385 H 0.76931 0.17473 0.26759 0.0
H1386 H 0.77517 0.24579 0.25831 0.0
H1387 H 0.75616 0.28572 0.2393 0.0
H1388 H 0.69274 0.21705 0.1972 0.0
H1389 H 0.69384 0.14795 0.20531 0.0
C1390 C 0.72032 0.1354 0.23279 0.0
C1391 C 0.73587 0.1341 0.24746 0.0
C1392 C 0.72424 0.17643 0.22726 0.0
C1393 C 0.75666 0.17469 0.25635 0.0
C1394 C 0.76013 0.21534 0.25103 0.0
C1395 C 0.74347 0.25596 0.23174 0.0
C1396 C 0.7241 0.25633 0.21771 0.0
C1397 C 0.74338 0.21635 0.23662 0.0
C1398 C 0.70814 0.21775 0.20799 0.0
C1399 C 0.70818 0.17805 0.21274 0.0
H1400 H 0.93826 0.62179 0.22331 0.0
H1401 H 0.87555 0.6255 0.2658 0.0
H1402 H 0.80169 0.56113 0.25756 0.0
H1403 H 0.75631 0.49959 0.23947 0.0
H1404 H 0.81626 0.49289 0.1969 0.0
H1405 H 0.88913 0.56337 0.2037 0.0
C1406 C 0.90833 0.60845 0.23069 0.0
C1407 C 0.91261 0.62797 0.24523 0.0
C1408 C 0.86532 0.57124 0.22582 0.0
C1409 C 0.87338 0.61094 0.2546 0.0
C1410 C 0.83098 0.57414 0.2499 0.0
C1411 C 0.78505 0.51413 0.23154 0.0
C1412 C 0.78115 0.49112 0.21778 0.0
C1413 C 0.82676 0.55358 0.23568 0.0
C1414 C 0.81839 0.51036 0.20753 0.0
C1415 C 0.86024 0.55024 0.21152 0.0
H1416 H 0.67091 0.08882 0.9556 0.0
H1417 H 0.58059 0.07433 0.91882 0.0
H1418 H 0.57152 0.13594 0.92938 0.0
H1419 H 0.59785 0.20127 0.94664 0.0
H1420 H 0.69005 0.22045 0.98309 0.0
H1421 H 0.68856 0.14908 0.97549 0.0
C1422 C 0.64892 0.09893 0.95004 0.0
C1423 C 0.62727 0.07754 0.93628 0.0
C1424 C 0.64397 0.13514 0.95615 0.0
C1425 C 0.59826 0.09049 0.9293 0.0
C1426 C 0.59284 0.12575 0.93535 0.0
C1427 C 0.61639 0.1889 0.9532 0.0
C1428 C 0.64421 0.21584 0.96527 0.0
C1429 C 0.61665 0.14924 0.94844 0.0
C1430 C 0.66808 0.19979 0.97379 0.0
C1431 C 0.66781 0.15946 0.96929 0.0
H1432 H 0.96551 0.55242 0.92963 0.0
H1433 H 0.95425 0.64728 0.96025 0.0
H1434 H 0.89121 0.58236 0.97374 0.0
H1435 H 0.83361 0.49873 0.97509 0.0
H1436 H 0.84306 0.40465 0.94373 0.0
H1437 H 0.91328 0.46862 0.93269 0.0
C1438 C 0.9494 0.55885 0.93929 0.0
C1439 C 0.96404 0.60462 0.94375 0.0
C1440 C 0.91316 0.52131 0.94703 0.0
C1441 C 0.94327 0.61236 0.95645 0.0
C1442 C 0.90731 0.57523 0.96423 0.0
C1443 C 0.85216 0.49219 0.96624 0.0
C1444 C 0.83362 0.44718 0.96029 0.0
C1445 C 0.89134 0.52954 0.95946 0.0
C1446 C 0.85715 0.4391 0.94855 0.0
C1447 C 0.8969 0.47572 0.94211 0.0
H1448 H 0.50333 0.44044 0.92906 0.0
H1449 H 0.40303 0.3246 0.95546 0.0
H1450 H 0.465 0.32122 0.96834 0.0
H1451 H 0.54789 0.34755 0.97084 0.0
H1452 H 0.64754 0.46043 0.94349 0.0
H1453 H 0.58618 0.46963 0.93264 0.0
C1454 C 0.49501 0.41445 0.93763 0.0
C1455 C 0.44847 0.38248 0.94113 0.0
C1456 C 0.53093 0.4127 0.94504 0.0
C1457 C 0.43846 0.34939 0.95241 0.0
C1458 C 0.47394 0.34755 0.95986 0.0
C1459 C 0.55614 0.37513 0.9629 0.0
C1460 C 0.60215 0.40403 0.95821 0.0
C1461 C 0.52033 0.37874 0.95618 0.0
C1462 C 0.61241 0.43853 0.94749 0.0
C1463 C 0.57726 0.44333 0.94113 0.0
H1464 H 0.62503 0.78765 0.75768 0.0
H1465 H 0.62522 0.69056 0.78914 0.0
H1466 H 0.55987 0.68627 0.80271 0.0
H1467 H 0.49733 0.70358 0.80409 0.0
H1468 H 0.49258 0.79469 0.77127 0.0
H1469 H 0.56543 0.80901 0.76011 0.0
C1470 C 0.61098 0.7659 0.76758 0.0
C1471 C 0.6296 0.73906 0.77225 0.0
C1472 C 0.57265 0.76281 0.77519 0.0
C1473 C 0.61111 0.71111 0.78514 0.0
C1474 C 0.57383 0.70875 0.79299 0.0
C1475 C 0.51316 0.72764 0.7948 0.0
C1476 C 0.49018 0.74845 0.78857 0.0
C1477 C 0.55366 0.73367 0.78794 0.0
C1478 C 0.51014 0.77867 0.7763 0.0
C1479 C 0.55147 0.78647 0.76983 0.0
H1480 H 0.33193 0.93998 0.78895 0.0
H1481 H 0.26084 0.87221 0.74758 0.0
H1482 H 0.2527 0.79959 0.75601 0.0
H1483 H 0.27038 0.7567 0.77415 0.0
H1484 H 0.34063 0.82242 0.81578 0.0
H1485 H 0.34295 0.89385 0.80853 0.0
C1486 C 0.31477 0.90928 0.7818 0.0
C1487 C 0.29773 0.91173 0.76752 0.0
C1488 C 0.30942 0.8671 0.78686 0.0
C1489 C 0.27462 0.87142 0.75853 0.0
C1490 C 0.26979 0.82979 0.76337 0.0
C1491 C 0.28535 0.78633 0.78181 0.0
C1492 C 0.30553 0.78428 0.79545 0.0
C1493 C 0.28749 0.82737 0.77741 0.0
C1494 C 0.32451 0.82289 0.80528 0.0
C1495 C 0.32645 0.86398 0.80102 0.0
H1496 H 0.11113 0.41526 0.79269 0.0
H1497 H 0.17876 0.40767 0.75192 0.0
H1498 H 0.25206 0.47272 0.76078 0.0
H1499 H 0.29361 0.53852 0.77817 0.0
H1500 H 0.22644 0.54827 0.81861 0.0
H1501 H 0.15669 0.47455 0.81218 0.0
C1502 C 0.14207 0.42757 0.78585 0.0
C1503 C 0.13941 0.40753 0.77151 0.0
C1504 C 0.18416 0.46507 0.79102 0.0
C1505 C 0.17984 0.42301 0.7629 0.0
C1506 C 0.22177 0.46015 0.76796 0.0
C1507 C 0.26415 0.52361 0.78582 0.0
C1508 C 0.26486 0.54856 0.7988 0.0
C1509 C 0.22392 0.48236 0.78174 0.0
C1510 C 0.22678 0.5292 0.80867 0.0
C1511 C 0.18666 0.48752 0.80484 0.0
H1512 H 0.36377 0.9594 0.05473 0.0
H1513 H 0.43536 0.96418 0.09566 0.0
H1514 H 0.44727 0.9033 0.08586 0.0
H1515 H 0.43107 0.84357 0.06704 0.0
H1516 H 0.35844 0.83494 0.02614 0.0
H1517 H 0.35474 0.90334 0.0342 0.0
C1518 C 0.38199 0.94706 0.06144 0.0
C1519 C 0.39796 0.96587 0.07603 0.0
C1520 C 0.38912 0.91178 0.05566 0.0
C1521 C 0.42228 0.95013 0.08448 0.0
C1522 C 0.42934 0.91536 0.07887 0.0
C1523 C 0.41561 0.85753 0.05968 0.0
C1524 C 0.39507 0.83442 0.04606 0.0
C1525 C 0.41225 0.89544 0.06463 0.0
C1526 C 0.37506 0.85262 0.0366 0.0
C1527 C 0.37223 0.89119 0.04135 0.0
H1528 H 0.07432 0.5068 0.07913 0.0
H1529 H 0.10156 0.40229 0.06201 0.0
H1530 H 0.16632 0.46053 0.04707 0.0
H1531 H 0.22047 0.54275 0.04097 0.0
H1532 H 0.19476 0.64735 0.05872 0.0
H1533 H 0.12358 0.58773 0.07085 0.0
C1534 C 0.09423 0.49671 0.07206 0.0
C1535 C 0.08341 0.45027 0.07189 0.0
C1536 C 0.13144 0.53046 0.0634 0.0
C1537 C 0.1093 0.4378 0.06248 0.0
C1538 C 0.14633 0.4711 0.05388 0.0
C1539 C 0.19812 0.55213 0.04696 0.0
C1540 C 0.21206 0.59919 0.04863 0.0
C1541 C 0.15826 0.51771 0.05444 0.0
C1542 C 0.18394 0.61122 0.05694 0.0
C1543 C 0.14368 0.57717 0.06409 0.0
H1544 H 0.59713 0.66342 0.05607 0.0
H1545 H 0.53548 0.61136 0.09984 0.0
H1546 H 0.46549 0.61007 0.09204 0.0
H1547 H 0.42392 0.62833 0.07347 0.0
H1548 H 0.48278 0.67716 0.02921 0.0
H1549 H 0.55128 0.67384 0.03631 0.0
C1550 C 0.56831 0.65185 0.06387 0.0
C1551 C 0.57169 0.63832 0.07862 0.0
C1552 C 0.52761 0.65012 0.05916 0.0
C1553 C 0.53379 0.62231 0.0885 0.0
C1554 C 0.49375 0.62147 0.08403 0.0
C1555 C 0.45142 0.63751 0.06527 0.0
C1556 C 0.44854 0.65333 0.05088 0.0
C1557 C 0.49053 0.63579 0.06948 0.0
C1558 C 0.48412 0.66464 0.04032 0.0
C1559 C 0.52348 0.66325 0.04446 0.0
H1560 H 0.0782 0.65179 0.55698 0.0
H1561 H 0.07768 0.59708 0.60095 0.0
H1562 H 0.1465 0.594 0.59409 0.0
H1563 H 0.21036 0.61279 0.57641 0.0
H1564 H 0.20948 0.66356 0.5319 0.0
H1565 H 0.13715 0.66117 0.53797 0.0
C1566 C 0.09306 0.63893 0.565 0.0
C1567 C 0.07328 0.62535 0.57956 0.0
C1568 C 0.1322 0.63631 0.56085 0.0
C1569 C 0.09233 0.60793 0.58973 0.0
C1570 C 0.13173 0.6062 0.58581 0.0
C1571 C 0.19386 0.62247 0.56792 0.0
C1572 C 0.21548 0.63864 0.55375 0.0
C1573 C 0.15239 0.62103 0.57151 0.0
C1574 C 0.19347 0.65072 0.54285 0.0
C1575 C 0.15235 0.64983 0.54639 0.0
H1576 H 0.47013 0.50766 0.57191 0.0
H1577 H 0.32874 0.40028 0.56368 0.0
H1578 H 0.3135 0.45588 0.55177 0.0
H1579 H 0.33779 0.53613 0.54566 0.0
H1580 H 0.47786 0.64484 0.55394 0.0
H1581 H 0.49664 0.58793 0.56336 0.0
C1582 C 0.43613 0.4965 0.56743 0.0
C1583 C 0.40056 0.44981 0.56886 0.0
C1584 C 0.42749 0.52889 0.56038 0.0
C1585 C 0.35681 0.43588 0.56281 0.0
C1586 C 0.34797 0.46769 0.55595 0.0
C1587 C 0.37284 0.547 0.54902 0.0
C1588 C 0.40672 0.59427 0.54879 0.0
C1589 C 0.38278 0.51433 0.55485 0.0
C1590 C 0.45161 0.60837 0.55365 0.0
C1591 C 0.46208 0.5759 0.55925 0.0
H1592 H 0.54063 0.96317 0.58146 0.0
H1593 H 0.64449 0.95038 0.5567 0.0
H1594 H 0.58395 0.8834 0.54276 0.0
H1595 H 0.50118 0.82309 0.53994 0.0
H1596 H 0.39879 0.83601 0.56546 0.0
H1597 H 0.45891 0.90941 0.57641 0.0
C1598 C 0.55016 0.94614 0.57291 0.0
C1599 C 0.59698 0.96127 0.57029 0.0
C1600 C 0.5153 0.908 0.56495 0.0
C1601 C 0.60865 0.9391 0.55902 0.0
C1602 C 0.57405 0.90087 0.55103 0.0
C1603 C 0.49216 0.8431 0.54744 0.0
C1604 C 0.44582 0.82494 0.55175 0.0
C1605 C 0.52721 0.88437 0.55415 0.0
C1606 C 0.43427 0.85005 0.56182 0.0
C1607 C 0.46866 0.8916 0.56823 0.0
H1608 H 0.33276 0.42137 0.29329 0.0
H1609 H 0.27371 0.42978 0.25107 0.0
H1610 H 0.26485 0.49199 0.26122 0.0
H1611 H 0.27997 0.54884 0.28084 0.0
H1612 H 0.34161 0.54605 0.32299 0.0
H1613 H 0.34184 0.4761 0.31442 0.0
C1614 C 0.3179 0.43685 0.28638 0.0
C1615 C 0.30448 0.42113 0.27135 0.0
C1616 C 0.31287 0.47335 0.29233 0.0
C1617 C 0.2847 0.44118 0.26261 0.0
C1618 C 0.27941 0.47681 0.26841 0.0
C1619 C 0.29252 0.5323 0.28831 0.0
C1620 C 0.31094 0.55255 0.30246 0.0
C1621 C 0.29406 0.49364 0.2831 0.0
C1622 C 0.32685 0.53076 0.31208 0.0
C1623 C 0.32763 0.49123 0.30706 0.0
H1624 H 0.62041 0.9474 0.29644 0.0
H1625 H 0.62376 0.87705 0.25559 0.0
H1626 H 0.56102 0.80398 0.26515 0.0
H1627 H 0.49994 0.76172 0.28366 0.0
H1628 H 0.49313 0.83019 0.32433 0.0
H1629 H 0.56344 0.90184 0.31663 0.0
C1630 C 0.60748 0.91599 0.2897 0.0
C1631 C 0.62621 0.91787 0.27519 0.0
C1632 C 0.57114 0.87367 0.29531 0.0
C1633 C 0.60967 0.87676 0.26669 0.0
C1634 C 0.57385 0.83484 0.27217 0.0
C1635 C 0.51462 0.79203 0.29103 0.0
C1636 C 0.49155 0.79085 0.30451 0.0
C1637 C 0.55372 0.83311 0.28628 0.0
C1638 C 0.51074 0.83015 0.314 0.0
C1639 C 0.55045 0.87129 0.30946 0.0
H1640 H 0.10159 0.71068 0.29458 0.0
H1641 H 0.1641 0.76405 0.25098 0.0
H1642 H 0.23574 0.77019 0.25939 0.0
H1643 H 0.27882 0.7558 0.27839 0.0
H1644 H 0.21874 0.7041 0.32232 0.0
H1645 H 0.14843 0.70335 0.31474 0.0
C1646 C 0.13094 0.72353 0.28695 0.0
C1647 C 0.12737 0.73612 0.27209 0.0
C1648 C 0.17254 0.72787 0.29199 0.0
C1649 C 0.1659 0.75378 0.26242 0.0
C1650 C 0.20692 0.75744 0.26723 0.0
C1651 C 0.25063 0.74512 0.28642 0.0
C1652 C 0.25373 0.72969 0.30084 0.0
C1653 C 0.21041 0.74411 0.2819 0.0
C1654 C 0.21724 0.71641 0.31118 0.0
C1655 C 0.17685 0.71541 0.30677 0.0
loop_
_geom_bond_atom_site_label_1
_geom_bond_atom_site_label_2
_geom_bond_distance
_geom_bond_site_symmetry_2
_ccdc_geom_bond_type
Co0 O1 2.216 . S
Co0 O2 2.091 . S
Co0 O4 2.004 . S
Co0 O10 2.021 . S
Co0 O12 2.137 . S
Co0 O13 2.244 1_545 S
O1 Co0 2.216 . S
O1 C8 1.247 . S
O2 Co0 2.091 . S
O2 C8 1.261 . S
C3 O12 1.247 1_565 S
C3 O13 1.272 . S
O4 Co0 2.004 . S
O4 C9 1.259 . S
Co5 O6 2.061 . S
Co5 O11 2.052 . S
Co5 O13 2.135 . S
O6 Co5 2.061 . S
O6 C9 1.235 1_565 S
C7 O10 1.238 . S
C7 O11 1.241 1_545 S
C8 O1 1.247 . S
C8 O2 1.261 . S
C9 O4 1.259 . S
C9 O6 1.235 1_545 S
O10 Co0 2.021 . S
O10 C7 1.238 . S
O11 Co5 2.052 . S
O11 C7 1.241 1_565 S
O12 Co0 2.137 . S
O12 C3 1.247 1_545 S
O13 Co0 2.244 1_565 S
O13 C3 1.272 . S
O13 Co5 2.135 . S
Co14 O15 2.216 . S
Co14 O16 2.091 . S
Co14 O18 2.004 . S
Co14 O24 2.021 . S
Co14 O26 2.137 1_455 S
Co14 O27 2.244 1_455 S
O15 Co14 2.216 . S
O15 C22 1.247 . S
O16 Co14 2.091 . S
O16 C22 1.261 . S
C17 O26 1.247 . S
C17 O27 1.272 . S
O18 Co14 2.004 . S
O18 C23 1.259 . S
Co19 O20 2.061 . S
Co19 O25 2.052 . S
Co19 O27 2.135 . S
O20 Co19 2.061 . S
O20 C23 1.235 1_655 S
C21 O24 1.238 . S
C21 O25 1.241 1_455 S
C22 O15 1.247 . S
C22 O16 1.261 . S
C23 O18 1.259 . S
C23 O20 1.235 1_455 S
O24 Co14 2.021 . S
O24 C21 1.238 . S
O25 Co19 2.052 . S
O25 C21 1.241 1_655 S
O26 Co14 2.137 1_655 S
O26 C17 1.247 . S
O27 Co14 2.244 1_655 S
O27 C17 1.272 . S
O27 Co19 2.135 . S
Co28 O29 2.216 . S
Co28 O30 2.091 . S
Co28 O32 2.004 . S
Co28 O38 2.021 . S
Co28 O40 2.137 . S
Co28 O41 2.244 . S
O29 Co28 2.216 . S
O29 C36 1.247 . S
O30 Co28 2.091 . S
O30 C36 1.261 . S
C31 O40 1.247 . S
C31 O41 1.272 . S
O32 Co28 2.004 . S
O32 C37 1.259 . S
Co33 O34 2.061 . S
Co33 O39 2.052 . S
Co33 O41 2.135 . S
O34 Co33 2.061 . S
O34 C37 1.235 . S
C35 O38 1.238 . S
C35 O39 1.241 . S
C36 O29 1.247 . S
C36 O30 1.261 . S
C37 O32 1.259 . S
C37 O34 1.235 . S
O38 Co28 2.021 . S
O38 C35 1.238 . S
O39 Co33 2.052 . S
O39 C35 1.241 . S
O40 Co28 2.137 . S
O40 C31 1.247 . S
O41 Co28 2.244 . S
O41 C31 1.272 . S
O41 Co33 2.135 . S
Co42 O43 2.216 1_545 S
Co42 O44 2.091 1_545 S
Co42 O46 2.002 . S
Co42 O52 2.021 . S
Co42 O54 2.137 . S
Co42 O55 2.244 . S
O43 Co42 2.216 1_565 S
O43 C50 1.247 . S
O44 Co42 2.091 1_565 S
O44 C50 1.261 . S
C45 O54 1.247 . S
C45 O55 1.272 . S
O46 Co42 2.002 . S
O46 C51 1.272 . S
Co47 O48 2.061 . S
Co47 O53 2.052 . S
Co47 O55 2.135 . S
O48 Co47 2.061 . S
O48 C51 1.235 . S
C49 O52 1.238 . S
C49 O53 1.241 . S
C50 O43 1.247 . S
C50 O44 1.261 . S
C51 O46 1.272 . S
C51 O48 1.235 . S
O52 Co42 2.021 . S
O52 C49 1.238 . S
O53 Co47 2.052 . S
O53 C49 1.241 . S
O54 Co42 2.137 . S
O54 C45 1.247 . S
O55 Co42 2.244 . S
O55 C45 1.272 . S
O55 Co47 2.135 . S
Co56 O57 2.216 1_455 S
Co56 O58 2.091 1_455 S
Co56 O60 2.004 1_455 S
Co56 O66 2.021 . S
Co56 O68 2.137 . S
Co56 O69 2.244 . S
O57 Co56 2.216 1_655 S
O57 C64 1.247 . S
O58 Co56 2.091 1_655 S
O58 C64 1.261 . S
C59 O68 1.247 . S
C59 O69 1.272 . S
O60 Co56 2.004 1_655 S
O60 C65 1.259 1_655 S
Co61 O62 2.061 . S
Co61 O67 2.052 . S
Co61 O69 2.135 . S
O62 Co61 2.061 . S
O62 C65 1.235 . S
C63 O66 1.238 . S
C63 O67 1.241 . S
C64 O57 1.247 . S
C64 O58 1.261 . S
C65 O60 1.259 1_455 S
C65 O62 1.235 . S
O66 Co56 2.021 . S
O66 C63 1.238 . S
O67 Co61 2.052 . S
O67 C63 1.241 . S
O68 Co56 2.137 . S
O68 C59 1.247 . S
O69 Co56 2.244 . S
O69 C59 1.272 . S
O69 Co61 2.135 . S
Co70 O71 2.216 . S
Co70 O72 2.091 . S
Co70 O74 2.004 . S
Co70 O80 2.021 . S
Co70 O82 2.137 . S
Co70 O83 2.244 . S
O71 Co70 2.216 . S
O71 C78 1.247 . S
O72 Co70 2.091 . S
O72 C78 1.261 . S
C73 O82 1.247 . S
C73 O83 1.272 . S
O74 Co70 2.004 . S
O74 C79 1.259 . S
Co75 O76 2.061 . S
Co75 O81 2.052 . S
Co75 O83 2.135 . S
O76 Co75 2.061 . S
O76 C79 1.235 . S
C77 O80 1.238 . S
C77 O81 1.241 . S
C78 O71 1.247 . S
C78 O72 1.261 . S
C79 O74 1.259 . S
C79 O76 1.235 . S
O80 Co70 2.021 . S
O80 C77 1.238 . S
O81 Co75 2.052 . S
O81 C77 1.241 . S
O82 Co70 2.137 . S
O82 C73 1.247 . S
O83 Co70 2.244 . S
O83 C73 1.272 . S
O83 Co75 2.135 . S
Co84 O85 2.216 . S
Co84 O86 2.091 . S
Co84 O88 2.004 . S
Co84 O94 2.021 . S
Co84 O96 2.137 . S
Co84 O97 2.244 . S
O85 Co84 2.216 . S
O85 C92 1.247 . S
O86 Co84 2.091 . S
O86 C92 1.261 . S
C87 O96 1.247 . S
C87 O97 1.272 . S
O88 Co84 2.004 . S
O88 C93 1.259 . S
Co89 O90 2.061 . S
Co89 O95 2.052 . S
Co89 O97 2.135 . S
O90 Co89 2.061 . S
O90 C93 1.235 . S
C91 O94 1.238 . S
C91 O95 1.241 . S
C92 O85 1.247 . S
C92 O86 1.261 . S
C93 O88 1.259 . S
C93 O90 1.235 . S
O94 Co84 2.021 . S
O94 C91 1.238 . S
O95 Co89 2.052 . S
O95 C91 1.241 . S
O96 Co84 2.137 . S
O96 C87 1.247 . S
O97 Co84 2.244 . S
O97 C87 1.272 . S
O97 Co89 2.135 . S
Co98 O99 2.216 . S
Co98 O100 2.091 . S
Co98 O102 2.004 . S
Co98 O108 2.021 . S
Co98 O110 2.137 . S
Co98 O111 2.244 . S
O99 Co98 2.216 . S
O99 C106 1.247 . S
O100 Co98 2.091 . S
O100 C106 1.261 . S
C101 O110 1.247 1_565 S
C101 O111 1.272 1_565 S
O102 Co98 2.004 . S
O102 C107 1.259 . S
Co103 O104 2.061 . S
Co103 O109 2.052 . S
Co103 O111 2.135 . S
O104 Co103 2.061 . S
O104 C107 1.235 . S
C105 O108 1.238 . S
C105 O109 1.241 . S
C106 O99 1.247 . S
C106 O100 1.261 . S
C107 O102 1.259 . S
C107 O104 1.235 . S
O108 Co98 2.021 . S
O108 C105 1.238 . S
O109 Co103 2.052 . S
O109 C105 1.241 . S
O110 Co98 2.137 . S
O110 C101 1.247 1_545 S
O111 Co98 2.244 . S
O111 C101 1.272 1_545 S
O111 Co103 2.135 . S
Co112 O113 2.216 1_655 S
Co112 O114 2.091 1_655 S
Co112 O116 2.004 . S
Co112 O122 2.021 . S
Co112 O124 2.137 1_655 S
Co112 O125 2.244 . S
O113 Co112 2.216 1_455 S
O113 C120 1.247 . S
O114 Co112 2.091 1_455 S
O114 C120 1.261 . S
C115 O124 1.247 1_655 S
C115 O125 1.272 . S
O116 Co112 2.004 . S
O116 C121 1.259 . S
Co117 O118 2.061 . S
Co117 O123 2.052 . S
Co117 O125 2.135 . S
O118 Co117 2.061 . S
O118 C121 1.235 . S
C119 O122 1.238 . S
C119 O123 1.241 . S
C120 O113 1.247 . S
C120 O114 1.261 . S
C121 O116 1.259 . S
C121 O118 1.235 . S
O122 Co112 2.021 . S
O122 C119 1.238 . S
O123 Co117 2.052 . S
O123 C119 1.241 . S
O124 Co112 2.137 1_455 S
O124 C115 1.247 1_455 S
O125 Co112 2.244 . S
O125 C115 1.272 . S
O125 Co117 2.135 . S
Co126 O127 2.216 1_655 S
Co126 O128 2.091 . S
Co126 O130 2.004 . S
Co126 O136 2.021 . S
Co126 O138 2.137 1_655 S
Co126 O139 2.244 1_655 S
O127 Co126 2.216 1_455 S
O127 C134 1.247 1_455 S
O128 Co126 2.091 . S
O128 C134 1.261 . S
C129 O138 1.247 . S
C129 O139 1.272 . S
O130 Co126 2.004 . S
O130 C135 1.259 . S
Co131 O132 2.061 . S
Co131 O137 2.052 . S
Co131 O139 2.135 1_655 S
O132 Co131 2.061 . S
O132 C135 1.235 . S
C133 O136 1.238 . S
C133 O137 1.241 . S
C134 O127 1.247 1_655 S
C134 O128 1.261 . S
C135 O130 1.259 . S
C135 O132 1.235 . S
O136 Co126 2.021 . S
O136 C133 1.238 . S
O137 Co131 2.052 . S
O137 C133 1.241 . S
O138 Co126 2.137 1_455 S
O138 C129 1.247 . S
O139 Co126 2.244 1_455 S
O139 C129 1.272 . S
O139 Co131 2.135 1_455 S
Co140 O141 2.216 . S
Co140 O142 2.091 . S
Co140 O144 2.004 . S
Co140 O150 2.021 . S
Co140 O152 2.137 . S
Co140 O153 2.244 . S
O141 Co140 2.216 . S
O141 C148 1.247 . S
O142 Co140 2.091 . S
O142 C148 1.261 . S
C143 O152 1.247 . S
C143 O153 1.272 . S
O144 Co140 2.004 . S
O144 C149 1.259 . S
Co145 O146 2.061 . S
Co145 O151 2.052 . S
Co145 O153 2.135 . S
O146 Co145 2.061 . S
O146 C149 1.235 . S
C147 O150 1.238 . S
C147 O151 1.241 . S
C148 O141 1.247 . S
C148 O142 1.261 . S
C149 O144 1.259 . S
C149 O146 1.235 . S
O150 Co140 2.021 . S
O150 C147 1.238 . S
O151 Co145 2.052 . S
O151 C147 1.241 . S
O152 Co140 2.137 . S
O152 C143 1.247 . S
O153 Co140 2.244 . S
O153 C143 1.272 . S
O153 Co145 2.135 . S
Co154 O155 2.216 . S
Co154 O156 2.091 . S
Co154 O158 2.004 . S
Co154 O164 2.021 . S
Co154 O166 2.137 . S
Co154 O167 2.244 . S
O155 Co154 2.216 . S
O155 C162 1.247 . S
O156 Co154 2.091 . S
O156 C162 1.261 . S
C157 O166 1.247 1_565 S
C157 O167 1.272 1_565 S
O158 Co154 2.004 . S
O158 C163 1.259 . S
Co159 O160 2.061 . S
Co159 O165 2.052 . S
Co159 O167 2.135 . S
O160 Co159 2.061 . S
O160 C163 1.235 . S
C161 O164 1.238 . S
C161 O165 1.241 . S
C162 O155 1.247 . S
C162 O156 1.261 . S
C163 O158 1.259 . S
C163 O160 1.235 . S
O164 Co154 2.021 . S
O164 C161 1.238 . S
O165 Co159 2.052 . S
O165 C161 1.241 . S
O166 Co154 2.137 . S
O166 C157 1.247 1_545 S
O167 Co154 2.244 . S
O167 C157 1.272 1_545 S
O167 Co159 2.135 . S
Co168 O169 2.216 . S
Co168 O170 2.091 . S
Co168 O172 2.004 . S
Co168 O178 2.021 . S
Co168 O180 2.137 . S
Co168 O181 2.244 . S
O169 Co168 2.216 . S
O169 C176 1.247 . S
O170 Co168 2.091 . S
O170 C176 1.261 . S
C171 O180 1.247 1_655 S
C171 O181 1.272 1_655 S
O172 Co168 2.004 . S
O172 C177 1.259 . S
Co173 O174 2.061 . S
Co173 O179 2.052 . S
Co173 O181 2.135 . S
O174 Co173 2.061 . S
O174 C177 1.235 . S
C175 O178 1.238 . S
C175 O179 1.241 . S
C176 O169 1.247 . S
C176 O170 1.261 . S
C177 O172 1.259 . S
C177 O174 1.235 . S
O178 Co168 2.021 . S
O178 C175 1.238 . S
O179 Co173 2.052 . S
O179 C175 1.241 . S
O180 Co168 2.137 . S
O180 C171 1.247 1_455 S
O181 Co168 2.244 . S
O181 C171 1.272 1_455 S
O181 Co173 2.135 . S
Co182 O183 2.216 . S
Co182 O184 2.091 . S
Co182 O186 2.004 . S
Co182 O192 2.021 . S
Co182 O194 2.137 . S
Co182 O195 2.244 . S
O183 Co182 2.216 . S
O183 C190 1.247 . S
O184 Co182 2.091 . S
O184 C190 1.261 . S
C185 O194 1.247 . S
C185 O195 1.272 . S
O186 Co182 2.004 . S
O186 C191 1.259 . S
Co187 O188 2.061 . S
Co187 O193 2.052 . S
Co187 O195 2.135 . S
O188 Co187 2.061 . S
O188 C191 1.235 . S
C189 O192 1.238 . S
C189 O193 1.241 . S
C190 O183 1.247 . S
C190 O184 1.261 . S
C191 O186 1.259 . S
C191 O188 1.235 . S
O192 Co182 2.021 . S
O192 C189 1.238 . S
O193 Co187 2.052 . S
O193 C189 1.241 . S
O194 Co182 2.137 . S
O194 C185 1.247 . S
O195 Co182 2.244 . S
O195 C185 1.272 . S
O195 Co187 2.135 . S
Co196 O197 2.216 1_565 S
Co196 O198 2.091 . S
Co196 O200 2.004 . S
Co196 O206 2.021 . S
Co196 O208 2.137 1_565 S
Co196 O209 2.244 1_565 S
O197 Co196 2.216 1_545 S
O197 C204 1.247 1_545 S
O198 Co196 2.091 . S
O198 C204 1.261 . S
C199 O208 1.247 . S
C199 O209 1.272 . S
O200 Co196 2.004 . S
O200 C205 1.259 . S
Co201 O202 2.061 . S
Co201 O207 2.052 . S
Co201 O209 2.135 1_565 S
O202 Co201 2.061 . S
O202 C205 1.235 . S
C203 O206 1.238 . S
C203 O207 1.241 . S
C204 O197 1.247 1_565 S
C204 O198 1.261 . S
C205 O200 1.259 . S
C205 O202 1.235 . S
O206 Co196 2.021 . S
O206 C203 1.238 . S
O207 Co201 2.052 . S
O207 C203 1.241 . S
O208 Co196 2.137 1_545 S
O208 C199 1.247 . S
O209 Co196 2.244 1_545 S
O209 C199 1.272 . S
O209 Co201 2.135 1_545 S
Co210 O211 2.216 . S
Co210 O212 2.091 . S
Co210 O214 2.004 . S
Co210 O220 2.021 . S
Co210 O222 2.137 . S
Co210 O223 2.244 . S
O211 Co210 2.216 . S
O211 C218 1.247 . S
O212 Co210 2.091 . S
O212 C218 1.261 . S
C213 O222 1.247 . S
C213 O223 1.272 . S
O214 Co210 2.004 . S
O214 C219 1.259 . S
Co215 O216 2.061 . S
Co215 O221 2.052 . S
Co215 O223 2.135 . S
O216 Co215 2.061 . S
O216 C219 1.235 . S
C217 O220 1.238 . S
C217 O221 1.241 . S
C218 O211 1.247 . S
C218 O212 1.261 . S
C219 O214 1.259 . S
C219 O216 1.235 . S
O220 Co210 2.021 . S
O220 C217 1.238 . S
O221 Co215 2.052 . S
O221 C217 1.241 . S
O222 Co210 2.137 . S
O222 C213 1.247 . S
O223 Co210 2.244 . S
O223 C213 1.272 . S
O223 Co215 2.135 . S
Co224 O225 2.216 1_565 S
Co224 O226 2.091 . S
Co224 O228 2.004 . S
Co224 O234 2.021 . S
Co224 O236 2.137 1_565 S
Co224 O237 2.244 1_565 S
O225 Co224 2.216 1_545 S
O225 C232 1.247 1_545 S
O226 Co224 2.091 . S
O226 C232 1.261 . S
C227 O236 1.247 . S
C227 O237 1.272 . S
O228 Co224 2.004 . S
O228 C233 1.259 . S
Co229 O230 2.061 . S
Co229 O235 2.052 . S
Co229 O237 2.135 1_565 S
O230 Co229 2.061 . S
O230 C233 1.235 . S
C231 O234 1.238 . S
C231 O235 1.241 . S
C232 O225 1.247 1_565 S
C232 O226 1.261 . S
C233 O228 1.259 . S
C233 O230 1.235 . S
O234 Co224 2.021 . S
O234 C231 1.238 . S
O235 Co229 2.052 . S
O235 C231 1.241 . S
O236 Co224 2.137 1_545 S
O236 C227 1.247 . S
O237 Co224 2.244 1_545 S
O237 C227 1.272 . S
O237 Co229 2.135 1_545 S
Co238 O239 2.216 . S
Co238 O240 2.091 1_455 S
Co238 O242 2.004 . S
Co238 O248 2.021 . S
Co238 O250 2.137 . S
Co238 O251 2.244 . S
O239 Co238 2.216 . S
O239 C246 1.247 1_455 S
O240 Co238 2.091 1_655 S
O240 C246 1.261 . S
C241 O250 1.247 . S
C241 O251 1.272 . S
O242 Co238 2.004 . S
O242 C247 1.259 . S
Co243 O244 2.061 . S
Co243 O249 2.052 . S
Co243 O251 2.135 . S
O244 Co243 2.061 . S
O244 C247 1.235 . S
C245 O248 1.238 . S
C245 O249 1.241 . S
C246 O239 1.247 1_655 S
C246 O240 1.261 . S
C247 O242 1.259 . S
C247 O244 1.235 . S
O248 Co238 2.021 . S
O248 C245 1.238 . S
O249 Co243 2.052 . S
O249 C245 1.241 . S
O250 Co238 2.137 . S
O250 C241 1.247 . S
O251 Co238 2.244 . S
O251 C241 1.272 . S
O251 Co243 2.135 . S
Zn252 O258 1.920 1_455 S
Zn252 O264 1.898 1_445 S
Zn252 O267 1.905 . S
Zn253 O261 1.905 1_445 S
Zn253 O262 1.898 . S
Zn253 O270 1.920 1_455 S
Zn254 O257 2.080 . S
Zn254 O260 2.114 1_545 S
Zn254 O263 2.120 . S
Zn254 O265 2.120 1_445 S
Zn254 O266 2.114 . S
Zn254 O269 2.080 1_455 S
C255 O260 1.166 . S
C255 O261 1.182 1_455 S
C256 O262 1.167 . S
C256 O263 1.299 . S
O257 Zn254 2.080 . S
O257 C271 1.305 1_455 S
O258 Zn252 1.920 1_655 S
O258 C271 1.234 . S
C259 O264 1.167 . S
C259 O265 1.299 . S
O260 Zn254 2.114 1_565 S
O260 C255 1.166 . S
O261 Zn253 1.905 1_665 S
O261 C255 1.182 1_655 S
O262 Zn253 1.898 . S
O262 C256 1.167 . S
O263 Zn254 2.120 . S
O263 C256 1.299 . S
O264 Zn252 1.898 1_665 S
O264 C259 1.167 . S
O265 Zn254 2.120 1_665 S
O265 C259 1.299 . S
O266 Zn254 2.114 . S
O266 C268 1.166 . S
O267 Zn252 1.905 . S
O267 C268 1.182 . S
C268 O266 1.166 . S
C268 O267 1.182 . S
O269 Zn254 2.080 1_655 S
O269 C272 1.305 . S
O270 Zn253 1.920 1_655 S
O270 C272 1.234 . S
C271 O257 1.305 1_655 S
C271 O258 1.234 . S
C272 O269 1.305 . S
C272 O270 1.234 . S
Zn273 O279 1.920 1_545 S
Zn273 O285 1.898 . S
Zn273 O288 1.905 1_455 S
Zn274 O282 1.905 . S
Zn274 O283 1.898 1_445 S
Zn274 O291 1.920 1_545 S
Zn275 O278 2.080 1_545 S
Zn275 O281 2.114 . S
Zn275 O284 2.120 1_445 S
Zn275 O286 2.120 . S
Zn275 O287 2.114 1_455 S
Zn275 O290 2.080 . S
C276 O281 1.166 . S
C276 O282 1.182 . S
C277 O283 1.167 . S
C277 O284 1.299 . S
O278 Zn275 2.080 1_565 S
O278 C292 1.305 . S
O279 Zn273 1.920 1_565 S
O279 C292 1.234 . S
C280 O285 1.167 . S
C280 O286 1.299 . S
O281 Zn275 2.114 . S
O281 C276 1.166 . S
O282 Zn274 1.905 . S
O282 C276 1.182 . S
O283 Zn274 1.898 1_665 S
O283 C277 1.167 . S
O284 Zn275 2.120 1_665 S
O284 C277 1.299 . S
O285 Zn273 1.898 . S
O285 C280 1.167 . S
O286 Zn275 2.120 . S
O286 C280 1.299 . S
O287 Zn275 2.114 1_655 S
O287 C289 1.166 . S
O288 Zn273 1.905 1_655 S
O288 C289 1.182 . S
C289 O287 1.166 . S
C289 O288 1.182 . S
O290 Zn275 2.080 . S
O290 C293 1.322 . S
O291 Zn274 1.920 1_565 S
O291 C293 1.238 1_565 S
C292 O278 1.305 . S
C292 O279 1.234 . S
C293 O290 1.322 . S
C293 O291 1.238 1_545 S
Zn294 O300 1.920 1_545 S
Zn294 O306 1.898 . S
Zn294 O309 1.909 1_445 S
Zn295 O303 1.905 . S
Zn295 O304 1.898 1_445 S
Zn295 O312 1.920 . S
Zn296 O299 2.080 1_545 S
Zn296 O302 2.114 . S
Zn296 O305 2.120 1_445 S
Zn296 O307 2.120 . S
Zn296 O308 2.114 1_455 S
Zn296 O311 2.080 . S
C297 O302 1.166 . S
C297 O303 1.182 . S
C298 O304 1.167 . S
C298 O305 1.299 . S
O299 Zn296 2.080 1_565 S
O299 C313 1.305 . S
O300 Zn294 1.920 1_565 S
O300 C313 1.234 . S
C301 O306 1.167 . S
C301 O307 1.299 . S
O302 Zn296 2.114 . S
O302 C297 1.166 . S
O303 Zn295 1.905 . S
O303 C297 1.182 . S
O304 Zn295 1.898 1_665 S
O304 C298 1.167 . S
O305 Zn296 2.120 1_665 S
O305 C298 1.299 . S
O306 Zn294 1.898 . S
O306 C301 1.167 . S
O307 Zn296 2.120 . S
O307 C301 1.299 . S
O308 Zn296 2.114 1_655 S
O308 C310 1.166 . S
O309 Zn294 1.909 1_665 S
O309 C310 1.175 1_565 S
C310 O308 1.166 . S
C310 O309 1.175 1_545 S
O311 Zn296 2.080 . S
O311 C314 1.305 . S
O312 Zn295 1.920 . S
O312 C314 1.234 . S
C313 O299 1.305 . S
C313 O300 1.234 . S
C314 O311 1.305 . S
C314 O312 1.234 . S
Zn315 O321 1.940 . S
Zn315 O327 1.898 1_445 S
Zn315 O330 1.905 . S
Zn316 O324 1.905 1_445 S
Zn316 O325 1.898 . S
Zn316 O333 1.920 1_455 S
Zn317 O320 2.080 . S
Zn317 O323 2.114 1_545 S
Zn317 O326 2.120 . S
Zn317 O328 2.120 1_445 S
Zn317 O329 2.114 . S
Zn317 O332 2.080 1_455 S
C318 O323 1.161 1_655 S
C318 O324 1.189 . S
C319 O325 1.167 . S
C319 O326 1.299 . S
O320 Zn317 2.080 . S
O320 C334 1.305 . S
O321 Zn315 1.940 . S
O321 C334 1.233 . S
C322 O327 1.167 . S
C322 O328 1.299 . S
O323 Zn317 2.114 1_565 S
O323 C318 1.161 1_455 S
O324 Zn316 1.905 1_665 S
O324 C318 1.189 . S
O325 Zn316 1.898 . S
O325 C319 1.167 . S
O326 Zn317 2.120 . S
O326 C319 1.299 . S
O327 Zn315 1.898 1_665 S
O327 C322 1.167 . S
O328 Zn317 2.120 1_665 S
O328 C322 1.299 . S
O329 Zn317 2.114 . S
O329 C331 1.166 . S
O330 Zn315 1.905 . S
O330 C331 1.182 . S
C331 O329 1.166 . S
C331 O330 1.182 . S
O332 Zn317 2.080 1_655 S
O332 C335 1.305 . S
O333 Zn316 1.920 1_655 S
O333 C335 1.234 . S
C334 O320 1.305 . S
C334 O321 1.233 . S
C335 O332 1.305 . S
C335 O333 1.234 . S
Zn336 O342 1.920 . S
Zn336 O348 1.898 . S
Zn336 O351 1.905 . S
Zn337 O345 1.905 . S
Zn337 O346 1.898 . S
Zn337 O354 1.920 . S
Zn338 O341 2.080 . S
Zn338 O344 2.114 . S
Zn338 O347 2.120 . S
Zn338 O349 2.120 . S
Zn338 O350 2.114 . S
Zn338 O353 2.080 . S
C339 O344 1.166 . S
C339 O345 1.182 . S
C340 O346 1.167 . S
C340 O347 1.299 . S
O341 Zn338 2.080 . S
O341 C355 1.305 . S
O342 Zn336 1.920 . S
O342 C355 1.234 . S
C343 O348 1.167 . S
C343 O349 1.299 . S
O344 Zn338 2.114 . S
O344 C339 1.166 . S
O345 Zn337 1.905 . S
O345 C339 1.182 . S
O346 Zn337 1.898 . S
O346 C340 1.167 . S
O347 Zn338 2.120 . S
O347 C340 1.299 . S
O348 Zn336 1.898 . S
O348 C343 1.167 . S
O349 Zn338 2.120 . S
O349 C343 1.299 . S
O350 Zn338 2.114 . S
O350 C352 1.166 . S
O351 Zn336 1.905 . S
O351 C352 1.182 . S
C352 O350 1.166 . S
C352 O351 1.182 . S
O353 Zn338 2.080 . S
O353 C356 1.305 . S
O354 Zn337 1.920 . S
O354 C356 1.234 . S
C355 O341 1.305 . S
C355 O342 1.234 . S
C356 O353 1.305 . S
C356 O354 1.234 . S
Zn357 O363 1.920 . S
Zn357 O369 1.898 . S
Zn357 O372 1.905 . S
Zn358 O366 1.905 . S
Zn358 O367 1.898 . S
Zn358 O375 1.920 . S
Zn359 O362 2.080 . S
Zn359 O365 2.114 . S
Zn359 O368 2.120 . S
Zn359 O370 2.120 . S
Zn359 O371 2.114 . S
Zn359 O374 2.080 . S
C360 O365 1.166 . S
C360 O366 1.182 . S
C361 O367 1.167 . S
C361 O368 1.299 . S
O362 Zn359 2.080 . S
O362 C376 1.305 . S
O363 Zn357 1.920 . S
O363 C376 1.234 . S
C364 O369 1.167 . S
C364 O370 1.299 . S
O365 Zn359 2.114 . S
O365 C360 1.166 . S
O366 Zn358 1.905 . S
O366 C360 1.182 . S
O367 Zn358 1.898 . S
O367 C361 1.167 . S
O368 Zn359 2.120 . S
O368 C361 1.299 . S
O369 Zn357 1.898 . S
O369 C364 1.167 . S
O370 Zn359 2.120 . S
O370 C364 1.299 . S
O371 Zn359 2.114 . S
O371 C373 1.166 . S
O372 Zn357 1.905 . S
O372 C373 1.182 . S
C373 O371 1.166 . S
C373 O372 1.182 . S
O374 Zn359 2.080 . S
O374 C377 1.305 . S
O375 Zn358 1.920 . S
O375 C377 1.234 . S
C376 O362 1.305 . S
C376 O363 1.234 . S
C377 O374 1.305 . S
C377 O375 1.234 . S
Zn378 O384 1.920 . S
Zn378 O390 1.898 . S
Zn378 O393 1.905 . S
Zn379 O387 1.905 . S
Zn379 O388 1.898 . S
Zn379 O396 1.920 . S
Zn380 O383 2.080 . S
Zn380 O386 2.114 . S
Zn380 O389 2.120 . S
Zn380 O391 2.120 . S
Zn380 O392 2.114 . S
Zn380 O395 2.080 . S
C381 O386 1.166 . S
C381 O387 1.182 . S
C382 O388 1.167 . S
C382 O389 1.299 . S
O383 Zn380 2.080 . S
O383 C397 1.305 . S
O384 Zn378 1.920 . S
O384 C397 1.234 . S
C385 O390 1.167 . S
C385 O391 1.299 . S
O386 Zn380 2.114 . S
O386 C381 1.166 . S
O387 Zn379 1.905 . S
O387 C381 1.182 . S
O388 Zn379 1.898 . S
O388 C382 1.167 . S
O389 Zn380 2.120 . S
O389 C382 1.299 . S
O390 Zn378 1.898 . S
O390 C385 1.167 . S
O391 Zn380 2.120 . S
O391 C385 1.299 . S
O392 Zn380 2.114 . S
O392 C394 1.166 . S
O393 Zn378 1.905 . S
O393 C394 1.182 . S
C394 O392 1.166 . S
C394 O393 1.182 . S
O395 Zn380 2.080 . S
O395 C398 1.305 . S
O396 Zn379 1.920 . S
O396 C398 1.234 . S
C397 O383 1.305 . S
C397 O384 1.234 . S
C398 O395 1.305 . S
C398 O396 1.234 . S
Zn399 O405 1.920 . S
Zn399 O411 1.898 . S
Zn399 O414 1.905 . S
Zn400 O408 1.905 . S
Zn400 O409 1.898 . S
Zn400 O417 1.920 . S
Zn401 O404 2.080 . S
Zn401 O407 2.114 . S
Zn401 O410 2.120 . S
Zn401 O412 2.120 . S
Zn401 O413 2.114 . S
Zn401 O416 2.080 . S
C402 O407 1.166 . S
C402 O408 1.182 . S
C403 O409 1.167 . S
C403 O410 1.299 . S
O404 Zn401 2.080 . S
O404 C418 1.305 1_556 S
O405 Zn399 1.920 . S
O405 C418 1.234 . S
C406 O411 1.167 . S
C406 O412 1.299 1_554 S
O407 Zn401 2.114 . S
O407 C402 1.166 . S
O408 Zn400 1.905 . S
O408 C402 1.182 . S
O409 Zn400 1.898 . S
O409 C403 1.167 . S
O410 Zn401 2.120 . S
O410 C403 1.299 . S
O411 Zn399 1.898 . S
O411 C406 1.167 . S
O412 Zn401 2.120 . S
O412 C406 1.299 1_556 S
O413 Zn401 2.114 . S
O413 C415 1.166 1_556 S
O414 Zn399 1.905 . S
O414 C415 1.182 . S
C415 O413 1.166 1_554 S
C415 O414 1.182 . S
O416 Zn401 2.080 . S
O416 C419 1.305 . S
O417 Zn400 1.920 . S
O417 C419 1.234 . S
C418 O404 1.305 1_554 S
C418 O405 1.234 . S
C419 O416 1.305 . S
C419 O417 1.234 . S
Zn420 O426 1.920 . S
Zn420 O432 1.898 . S
Zn420 O435 1.905 . S
Zn421 O429 1.905 . S
Zn421 O430 1.898 . S
Zn421 O438 1.920 . S
Zn422 O425 2.080 . S
Zn422 O428 2.114 . S
Zn422 O431 2.120 . S
Zn422 O433 2.120 . S
Zn422 O434 2.114 . S
Zn422 O437 2.080 . S
C423 O428 1.166 . S
C423 O429 1.182 . S
C424 O430 1.167 . S
C424 O431 1.299 . S
O425 Zn422 2.080 . S
O425 C439 1.305 . S
O426 Zn420 1.920 . S
O426 C439 1.234 . S
C427 O432 1.167 . S
C427 O433 1.299 . S
O428 Zn422 2.114 . S
O428 C423 1.166 . S
O429 Zn421 1.905 . S
O429 C423 1.182 . S
O430 Zn421 1.898 . S
O430 C424 1.167 . S
O431 Zn422 2.120 . S
O431 C424 1.299 . S
O432 Zn420 1.898 . S
O432 C427 1.167 . S
O433 Zn422 2.120 . S
O433 C427 1.299 . S
O434 Zn422 2.114 . S
O434 C436 1.166 . S
O435 Zn420 1.905 . S
O435 C436 1.182 . S
C436 O434 1.166 . S
C436 O435 1.182 . S
O437 Zn422 2.080 . S
O437 C440 1.305 . S
O438 Zn421 1.920 . S
O438 C440 1.234 . S
C439 O425 1.305 . S
C439 O426 1.234 . S
C440 O437 1.305 . S
C440 O438 1.234 . S
Zn441 O447 1.920 . S
Zn441 O453 1.898 . S
Zn441 O456 1.905 . S
Zn442 O450 1.905 . S
Zn442 O451 1.898 . S
Zn442 O459 1.920 . S
Zn443 O446 2.080 . S
Zn443 O449 2.114 . S
Zn443 O452 2.120 . S
Zn443 O454 2.120 . S
Zn443 O455 2.114 . S
Zn443 O458 2.080 . S
C444 O449 1.166 1_556 S
C444 O450 1.182 . S
C445 O451 1.167 . S
C445 O452 1.299 1_556 S
O446 Zn443 2.080 . S
O446 C460 1.305 . S
O447 Zn441 1.920 . S
O447 C460 1.234 . S
C448 O453 1.167 . S
C448 O454 1.299 . S
O449 Zn443 2.114 . S
O449 C444 1.166 1_554 S
O450 Zn442 1.905 . S
O450 C444 1.182 . S
O451 Zn442 1.898 . S
O451 C445 1.167 . S
O452 Zn443 2.120 . S
O452 C445 1.299 1_554 S
O453 Zn441 1.898 . S
O453 C448 1.167 . S
O454 Zn443 2.120 . S
O454 C448 1.299 . S
O455 Zn443 2.114 . S
O455 C457 1.166 . S
O456 Zn441 1.905 . S
O456 C457 1.182 . S
C457 O455 1.166 . S
C457 O456 1.182 . S
O458 Zn443 2.080 . S
O458 C461 1.305 1_554 S
O459 Zn442 1.920 . S
O459 C461 1.234 . S
C460 O446 1.305 . S
C460 O447 1.234 . S
C461 O458 1.305 1_556 S
C461 O459 1.234 . S
Zn462 O468 1.920 . S
Zn462 O474 1.898 . S
Zn462 O477 1.905 . S
Zn463 O471 1.905 . S
Zn463 O472 1.898 . S
Zn463 O480 1.920 . S
Zn464 O467 2.080 . S
Zn464 O470 2.114 . S
Zn464 O473 2.120 . S
Zn464 O475 2.120 . S
Zn464 O476 2.114 . S
Zn464 O479 2.080 . S
C465 O470 1.166 . S
C465 O471 1.182 . S
C466 O472 1.167 . S
C466 O473 1.299 . S
O467 Zn464 2.080 . S
O467 C481 1.305 . S
O468 Zn462 1.920 . S
O468 C481 1.234 . S
C469 O474 1.167 . S
C469 O475 1.299 . S
O470 Zn464 2.114 . S
O470 C465 1.166 . S
O471 Zn463 1.905 . S
O471 C465 1.182 . S
O472 Zn463 1.898 . S
O472 C466 1.167 . S
O473 Zn464 2.120 . S
O473 C466 1.299 . S
O474 Zn462 1.898 . S
O474 C469 1.167 . S
O475 Zn464 2.120 . S
O475 C469 1.299 . S
O476 Zn464 2.114 . S
O476 C478 1.166 . S
O477 Zn462 1.905 . S
O477 C478 1.182 . S
C478 O476 1.166 . S
C478 O477 1.182 . S
O479 Zn464 2.080 . S
O479 C482 1.305 . S
O480 Zn463 1.920 . S
O480 C482 1.234 . S
C481 O467 1.305 . S
C481 O468 1.234 . S
C482 O479 1.305 . S
C482 O480 1.234 . S
Zn483 O489 1.920 . S
Zn483 O495 1.898 . S
Zn483 O498 1.905 . S
Zn484 O492 1.905 . S
Zn484 O493 1.898 . S
Zn484 O501 1.920 . S
Zn485 O488 2.080 . S
Zn485 O491 2.114 . S
Zn485 O494 2.120 . S
Zn485 O496 2.120 . S
Zn485 O497 2.114 . S
Zn485 O500 2.080 . S
C486 O491 1.166 . S
C486 O492 1.182 . S
C487 O493 1.167 . S
C487 O494 1.299 . S
O488 Zn485 2.080 . S
O488 C502 1.305 . S
O489 Zn483 1.920 . S
O489 C502 1.234 . S
C490 O495 1.167 . S
C490 O496 1.299 . S
O491 Zn485 2.114 . S
O491 C486 1.166 . S
O492 Zn484 1.905 . S
O492 C486 1.182 . S
O493 Zn484 1.898 . S
O493 C487 1.167 . S
O494 Zn485 2.120 . S
O494 C487 1.299 . S
O495 Zn483 1.898 . S
O495 C490 1.167 . S
O496 Zn485 2.120 . S
O496 C490 1.299 . S
O497 Zn485 2.114 . S
O497 C499 1.166 . S
O498 Zn483 1.905 . S
O498 C499 1.182 . S
C499 O497 1.166 . S
C499 O498 1.182 . S
O500 Zn485 2.080 . S
O500 C503 1.305 . S
O501 Zn484 1.920 . S
O501 C503 1.234 . S
C502 O488 1.305 . S
C502 O489 1.234 . S
C503 O500 1.305 . S
C503 O501 1.234 . S
H504 C510 0.930 . S
H505 C513 0.930 . S
H506 C514 0.930 . S
H507 C515 0.930 . S
H508 C518 0.930 . S
H509 C519 0.930 . S
C510 H504 0.930 . S
C510 C511 1.355 . S
C510 C512 1.415 . S
C511 C510 1.355 . S
C511 C513 1.419 . S
C512 C510 1.415 . S
C512 C517 1.425 . S
C512 C519 1.409 . S
C513 H505 0.930 . S
C513 C511 1.419 . S
C513 C514 1.362 . S
C514 H506 0.930 . S
C514 C513 1.362 . S
C514 C517 1.409 . S
C515 H507 0.930 . S
C515 C516 1.355 . S
C515 C517 1.415 . S
C516 C515 1.355 . S
C516 C518 1.419 . S
C517 C512 1.425 . S
C517 C514 1.409 . S
C517 C515 1.415 . S
C518 H508 0.930 . S
C518 C516 1.419 . S
C518 C519 1.362 . S
C519 H509 0.930 . S
C519 C512 1.409 . S
C519 C518 1.362 . S
H520 C526 0.930 1_565 S
H521 C529 0.930 . S
H522 C530 0.930 . S
H523 C531 0.930 . S
H524 C534 0.930 1_565 S
H525 C535 0.930 . S
C526 H520 0.930 1_545 S
C526 C527 1.355 . S
C526 C528 1.415 . S
C527 C526 1.355 . S
C527 C529 1.419 . S
C528 C526 1.415 . S
C528 C533 1.425 . S
C528 C535 1.409 1_545 S
C529 H521 0.930 . S
C529 C527 1.419 . S
C529 C530 1.362 . S
C530 H522 0.930 . S
C530 C529 1.362 . S
C530 C533 1.409 . S
C531 H523 0.930 . S
C531 C532 1.355 . S
C531 C533 1.415 . S
C532 C531 1.355 . S
C532 C534 1.419 . S
C533 C528 1.425 . S
C533 C530 1.409 . S
C533 C531 1.415 . S
C534 H524 0.930 1_545 S
C534 C532 1.419 . S
C534 C535 1.362 1_545 S
C535 H525 0.930 . S
C535 C528 1.409 1_565 S
C535 C534 1.362 1_565 S
H536 C542 0.930 . S
H537 C545 0.930 . S
H538 C546 0.930 . S
H539 C547 0.930 . S
H540 C550 0.930 . S
H541 C551 0.930 . S
C542 H536 0.930 . S
C542 C543 1.355 1_655 S
C542 C544 1.415 . S
C543 C542 1.355 1_455 S
C543 C545 1.419 . S
C544 C542 1.415 . S
C544 C549 1.425 1_655 S
C544 C551 1.409 . S
C545 H537 0.930 . S
C545 C543 1.419 . S
C545 C546 1.362 . S
C546 H538 0.930 . S
C546 C545 1.362 . S
C546 C549 1.409 . S
C547 H539 0.930 . S
C547 C548 1.355 1_455 S
C547 C549 1.415 . S
C548 C547 1.355 1_655 S
C548 C550 1.419 . S
C549 C544 1.425 1_455 S
C549 C546 1.409 . S
C549 C547 1.415 . S
C550 H540 0.930 . S
C550 C548 1.419 . S
C550 C551 1.362 . S
C551 H541 0.930 . S
C551 C544 1.409 . S
C551 C550 1.362 . S
H552 C558 0.930 . S
H553 C561 0.930 . S
H554 C562 0.930 . S
H555 C563 0.930 . S
H556 C566 0.930 . S
H557 C567 0.930 . S
C558 H552 0.930 . S
C558 C559 1.355 . S
C558 C560 1.415 . S
C559 C558 1.355 . S
C559 C561 1.419 . S
C560 C558 1.415 . S
C560 C565 1.425 . S
C560 C567 1.409 . S
C561 H553 0.930 . S
C561 C559 1.419 . S
C561 C562 1.362 . S
C562 H554 0.930 . S
C562 C561 1.362 . S
C562 C565 1.409 . S
C563 H555 0.930 . S
C563 C564 1.355 . S
C563 C565 1.415 . S
C564 C563 1.355 . S
C564 C566 1.419 . S
C565 C560 1.425 . S
C565 C562 1.409 . S
C565 C563 1.415 . S
C566 H556 0.930 . S
C566 C564 1.419 . S
C566 C567 1.362 . S
C567 H557 0.930 . S
C567 C560 1.409 . S
C567 C566 1.362 . S
H568 C574 0.930 . S
H569 C577 0.930 . S
H570 C578 0.930 . S
H571 C579 0.930 . S
H572 C582 0.930 . S
H573 C583 0.930 . S
C574 H568 0.930 . S
C574 C575 1.355 . S
C574 C576 1.415 . S
C575 C574 1.355 . S
C575 C577 1.419 . S
C576 C574 1.415 . S
C576 C581 1.425 . S
C576 C583 1.409 . S
C577 H569 0.930 . S
C577 C575 1.419 . S
C577 C578 1.362 . S
C578 H570 0.930 . S
C578 C577 1.362 . S
C578 C581 1.409 . S
C579 H571 0.930 . S
C579 C580 1.355 . S
C579 C581 1.415 . S
C580 C579 1.355 . S
C580 C582 1.419 . S
C581 C576 1.425 . S
C581 C578 1.409 . S
C581 C579 1.415 . S
C582 H572 0.930 . S
C582 C580 1.419 . S
C582 C583 1.362 . S
C583 H573 0.930 . S
C583 C576 1.409 . S
C583 C582 1.362 . S
H584 C590 0.930 1_655 S
H585 C593 0.930 . S
H586 C594 0.930 . S
H587 C595 0.930 . S
H588 C598 0.930 . S
H589 C599 0.930 . S
C590 H584 0.930 1_455 S
C590 C591 1.355 . S
C590 C592 1.415 . S
C591 C590 1.355 . S
C591 C593 1.419 . S
C592 C590 1.415 . S
C592 C597 1.425 . S
C592 C599 1.409 1_455 S
C593 H585 0.930 . S
C593 C591 1.419 . S
C593 C594 1.362 . S
C594 H586 0.930 . S
C594 C593 1.362 . S
C594 C597 1.409 . S
C595 H587 0.930 . S
C595 C596 1.355 . S
C595 C597 1.415 . S
C596 C595 1.355 . S
C596 C598 1.419 . S
C597 C592 1.425 . S
C597 C594 1.409 . S
C597 C595 1.415 . S
C598 H588 0.930 . S
C598 C596 1.419 . S
C598 C599 1.362 1_455 S
C599 H589 0.930 . S
C599 C592 1.409 1_655 S
C599 C598 1.362 1_655 S
H600 C606 0.930 . S
H601 C609 0.930 . S
H602 C610 0.930 . S
H603 C611 0.930 . S
H604 C614 0.930 . S
H605 C615 0.930 . S
C606 H600 0.930 . S
C606 C607 1.355 . S
C606 C608 1.415 . S
C607 C606 1.355 . S
C607 C609 1.419 . S
C608 C606 1.415 . S
C608 C613 1.425 . S
C608 C615 1.409 . S
C609 H601 0.930 . S
C609 C607 1.419 . S
C609 C610 1.362 . S
C610 H602 0.930 . S
C610 C609 1.362 . S
C610 C613 1.409 . S
C611 H603 0.930 . S
C611 C612 1.355 . S
C611 C613 1.415 . S
C612 C611 1.355 . S
C612 C614 1.419 . S
C613 C608 1.425 . S
C613 C610 1.409 . S
C613 C611 1.415 . S
C614 H604 0.930 . S
C614 C612 1.419 . S
C614 C615 1.362 . S
C615 H605 0.930 . S
C615 C608 1.409 . S
C615 C614 1.362 . S
H616 C622 0.930 . S
H617 C625 0.930 . S
H618 C626 0.930 . S
H619 C627 0.930 . S
H620 C630 0.930 . S
H621 C631 0.930 . S
C622 H616 0.930 . S
C622 C623 1.355 . S
C622 C624 1.415 . S
C623 C622 1.355 . S
C623 C625 1.419 1_545 S
C624 C622 1.415 . S
C624 C629 1.425 1_545 S
C624 C631 1.409 . S
C625 H617 0.930 . S
C625 C623 1.419 1_565 S
C625 C626 1.362 . S
C626 H618 0.930 . S
C626 C625 1.362 . S
C626 C629 1.409 . S
C627 H619 0.930 . S
C627 C628 1.355 1_565 S
C627 C629 1.415 . S
C628 C627 1.355 1_545 S
C628 C630 1.419 . S
C629 C624 1.425 1_565 S
C629 C626 1.409 . S
C629 C627 1.415 . S
C630 H620 0.930 . S
C630 C628 1.419 . S
C630 C631 1.362 . S
C631 H621 0.930 . S
C631 C624 1.409 . S
C631 C630 1.362 . S
H632 C638 0.930 . S
H633 C641 0.930 . S
H634 C642 0.930 . S
H635 C643 0.930 . S
H636 C646 0.930 . S
H637 C647 0.930 . S
C638 H632 0.930 . S
C638 C639 1.355 1_655 S
C638 C640 1.415 1_655 S
C639 C638 1.355 1_455 S
C639 C641 1.419 . S
C640 C638 1.415 1_455 S
C640 C645 1.425 . S
C640 C647 1.409 1_455 S
C641 H633 0.930 . S
C641 C639 1.419 . S
C641 C642 1.362 . S
C642 H634 0.930 . S
C642 C641 1.362 . S
C642 C645 1.409 . S
C643 H635 0.930 . S
C643 C644 1.355 . S
C643 C645 1.415 . S
C644 C643 1.355 . S
C644 C646 1.419 1_455 S
C645 C640 1.425 . S
C645 C642 1.409 . S
C645 C643 1.415 . S
C646 H636 0.930 . S
C646 C644 1.419 1_655 S
C646 C647 1.362 . S
C647 H637 0.930 . S
C647 C640 1.409 1_655 S
C647 C646 1.362 . S
H648 C654 0.930 . S
H649 C657 0.930 . S
H650 C658 0.930 . S
H651 C659 0.930 . S
H652 C662 0.930 . S
H653 C663 0.930 . S
C654 H648 0.930 . S
C654 C655 1.355 . S
C654 C656 1.415 . S
C655 C654 1.355 . S
C655 C657 1.419 . S
C656 C654 1.415 . S
C656 C661 1.425 . S
C656 C663 1.409 . S
C657 H649 0.930 . S
C657 C655 1.419 . S
C657 C658 1.362 . S
C658 H650 0.930 . S
C658 C657 1.362 . S
C658 C661 1.409 . S
C659 H651 0.930 . S
C659 C660 1.355 . S
C659 C661 1.415 . S
C660 C659 1.355 . S
C660 C662 1.419 . S
C661 C656 1.425 . S
C661 C658 1.409 . S
C661 C659 1.415 . S
C662 H652 0.930 . S
C662 C660 1.419 . S
C662 C663 1.362 . S
C663 H653 0.930 . S
C663 C656 1.409 . S
C663 C662 1.362 . S
H664 C670 0.930 1_565 S
H665 C673 0.930 . S
H666 C674 0.930 . S
H667 C675 0.930 . S
H668 C678 0.930 . S
H669 C679 0.930 1_565 S
C670 H664 0.930 1_545 S
C670 C671 1.355 . S
C670 C672 1.415 . S
C671 C670 1.355 . S
C671 C673 1.419 . S
C672 C670 1.415 . S
C672 C677 1.425 . S
C672 C679 1.409 . S
C673 H665 0.930 . S
C673 C671 1.419 . S
C673 C674 1.362 . S
C674 H666 0.930 . S
C674 C673 1.362 . S
C674 C677 1.409 . S
C675 H667 0.930 . S
C675 C676 1.355 . S
C675 C677 1.415 . S
C676 C675 1.355 . S
C676 C678 1.419 . S
C677 C672 1.425 . S
C677 C674 1.409 . S
C677 C675 1.415 . S
C678 H668 0.930 . S
C678 C676 1.419 . S
C678 C679 1.362 . S
C679 H669 0.930 1_545 S
C679 C672 1.409 . S
C679 C678 1.362 . S
H680 C686 0.930 . S
H681 C689 0.930 . S
H682 C690 0.930 . S
H683 C691 0.930 . S
H684 C694 0.930 . S
H685 C695 0.930 . S
C686 H680 0.930 . S
C686 C687 1.355 . S
C686 C688 1.415 . S
C687 C686 1.355 . S
C687 C689 1.419 1_455 S
C688 C686 1.415 . S
C688 C693 1.425 1_455 S
C688 C695 1.409 . S
C689 H681 0.930 . S
C689 C687 1.419 1_655 S
C689 C690 1.362 . S
C690 H682 0.930 . S
C690 C689 1.362 . S
C690 C693 1.409 . S
C691 H683 0.930 . S
C691 C692 1.355 1_655 S
C691 C693 1.415 . S
C692 C691 1.355 1_455 S
C692 C694 1.419 . S
C693 C688 1.425 1_655 S
C693 C690 1.409 . S
C693 C691 1.415 . S
C694 H684 0.930 . S
C694 C692 1.419 . S
C694 C695 1.362 . S
C695 H685 0.930 . S
C695 C688 1.409 . S
C695 C694 1.362 . S
H696 C702 0.930 . S
H697 C705 0.930 . S
H698 C706 0.930 . S
H699 C707 0.930 . S
H700 C710 0.930 . S
H701 C711 0.930 . S
C702 H696 0.930 . S
C702 C703 1.355 . S
C702 C704 1.415 . S
C703 C702 1.355 . S
C703 C705 1.419 . S
C704 C702 1.415 . S
C704 C709 1.425 . S
C704 C711 1.409 . S
C705 H697 0.930 . S
C705 C703 1.419 . S
C705 C706 1.362 . S
C706 H698 0.930 . S
C706 C705 1.362 . S
C706 C709 1.409 . S
C707 H699 0.930 . S
C707 C708 1.355 . S
C707 C709 1.415 . S
C708 C707 1.355 . S
C708 C710 1.419 . S
C709 C704 1.425 . S
C709 C706 1.409 . S
C709 C707 1.415 . S
C710 H700 0.930 . S
C710 C708 1.419 . S
C710 C711 1.362 . S
C711 H701 0.930 . S
C711 C704 1.409 . S
C711 C710 1.362 . S
H712 C718 0.930 . S
H713 C721 0.930 . S
H714 C722 0.930 . S
H715 C723 0.930 . S
H716 C726 0.930 . S
H717 C727 0.930 . S
C718 H712 0.930 . S
C718 C719 1.355 . S
C718 C720 1.415 . S
C719 C718 1.355 . S
C719 C721 1.419 . S
C720 C718 1.415 . S
C720 C725 1.425 . S
C720 C727 1.409 . S
C721 H713 0.930 . S
C721 C719 1.419 . S
C721 C722 1.362 . S
C722 H714 0.930 . S
C722 C721 1.362 . S
C722 C725 1.409 . S
C723 H715 0.930 . S
C723 C724 1.355 . S
C723 C725 1.415 . S
C724 C723 1.355 . S
C724 C726 1.419 . S
C725 C720 1.425 . S
C725 C722 1.409 . S
C725 C723 1.415 . S
C726 H716 0.930 . S
C726 C724 1.419 . S
C726 C727 1.362 . S
C727 H717 0.930 . S
C727 C720 1.409 . S
C727 C726 1.362 . S
H728 C734 0.930 . S
H729 C737 0.930 . S
H730 C738 0.930 . S
H731 C739 0.930 . S
H732 C742 0.930 . S
H733 C743 0.930 . S
C734 H728 0.930 . S
C734 C735 1.355 . S
C734 C736 1.415 . S
C735 C734 1.355 . S
C735 C737 1.419 . S
C736 C734 1.415 . S
C736 C741 1.425 . S
C736 C743 1.409 . S
C737 H729 0.930 . S
C737 C735 1.419 . S
C737 C738 1.362 . S
C738 H730 0.930 . S
C738 C737 1.362 . S
C738 C741 1.409 . S
C739 H731 0.930 . S
C739 C740 1.355 . S
C739 C741 1.415 . S
C740 C739 1.355 . S
C740 C742 1.419 . S
C741 C736 1.425 . S
C741 C738 1.409 . S
C741 C739 1.415 . S
C742 H732 0.930 . S
C742 C740 1.419 . S
C742 C743 1.362 . S
C743 H733 0.930 . S
C743 C736 1.409 . S
C743 C742 1.362 . S
H744 C750 0.930 . S
H745 C753 0.930 . S
H746 C754 0.930 . S
H747 C755 0.930 . S
H748 C758 0.930 . S
H749 C759 0.930 . S
C750 H744 0.930 . S
C750 C751 1.355 . S
C750 C752 1.415 . S
C751 C750 1.355 . S
C751 C753 1.419 . S
C752 C750 1.415 . S
C752 C757 1.425 . S
C752 C759 1.409 . S
C753 H745 0.930 . S
C753 C751 1.419 . S
C753 C754 1.362 . S
C754 H746 0.930 . S
C754 C753 1.362 . S
C754 C757 1.409 . S
C755 H747 0.930 . S
C755 C756 1.355 . S
C755 C757 1.415 . S
C756 C755 1.355 . S
C756 C758 1.419 . S
C757 C752 1.425 . S
C757 C754 1.409 . S
C757 C755 1.415 . S
C758 H748 0.930 . S
C758 C756 1.419 . S
C758 C759 1.362 . S
C759 H749 0.930 . S
C759 C752 1.409 . S
C759 C758 1.362 . S
H760 C766 0.930 . S
H761 C769 0.930 . S
H762 C770 0.930 . S
H763 C771 0.930 . S
H764 C774 0.930 . S
H765 C775 0.930 . S
C766 H760 0.930 . S
C766 C767 1.355 . S
C766 C768 1.415 . S
C767 C766 1.355 . S
C767 C769 1.419 . S
C768 C766 1.415 . S
C768 C773 1.425 . S
C768 C775 1.409 . S
C769 H761 0.930 . S
C769 C767 1.419 . S
C769 C770 1.362 . S
C770 H762 0.930 . S
C770 C769 1.362 . S
C770 C773 1.409 . S
C771 H763 0.930 . S
C771 C772 1.355 . S
C771 C773 1.415 . S
C772 C771 1.355 . S
C772 C774 1.419 . S
C773 C768 1.425 . S
C773 C770 1.409 . S
C773 C771 1.415 . S
C774 H764 0.930 . S
C774 C772 1.419 . S
C774 C775 1.362 . S
C775 H765 0.930 . S
C775 C768 1.409 . S
C775 C774 1.362 . S
H776 C782 0.930 . S
H777 C785 0.930 . S
H778 C786 0.930 . S
H779 C787 0.930 . S
H780 C790 0.930 . S
H781 C791 0.930 . S
C782 H776 0.930 . S
C782 C783 1.355 . S
C782 C784 1.415 . S
C783 C782 1.355 . S
C783 C785 1.419 . S
C784 C782 1.415 . S
C784 C789 1.425 . S
C784 C791 1.409 . S
C785 H777 0.930 . S
C785 C783 1.419 . S
C785 C786 1.362 . S
C786 H778 0.930 . S
C786 C785 1.362 . S
C786 C789 1.409 . S
C787 H779 0.930 . S
C787 C788 1.355 . S
C787 C789 1.415 . S
C788 C787 1.355 . S
C788 C790 1.419 . S
C789 C784 1.425 . S
C789 C786 1.409 . S
C789 C787 1.415 . S
C790 H780 0.930 . S
C790 C788 1.419 . S
C790 C791 1.362 . S
C791 H781 0.930 . S
C791 C784 1.409 . S
C791 C790 1.362 . S
H792 C798 0.930 . S
H793 C801 0.930 . S
H794 C802 0.930 . S
H795 C803 0.930 . S
H796 C806 0.930 . S
H797 C807 0.930 . S
C798 H792 0.930 . S
C798 C799 1.355 . S
C798 C800 1.415 . S
C799 C798 1.355 . S
C799 C801 1.419 . S
C800 C798 1.415 . S
C800 C805 1.425 . S
C800 C807 1.409 . S
C801 H793 0.930 . S
C801 C799 1.419 . S
C801 C802 1.362 . S
C802 H794 0.930 . S
C802 C801 1.362 . S
C802 C805 1.409 . S
C803 H795 0.930 . S
C803 C804 1.355 . S
C803 C805 1.415 . S
C804 C803 1.355 . S
C804 C806 1.419 . S
C805 C800 1.425 . S
C805 C802 1.409 . S
C805 C803 1.415 . S
C806 H796 0.930 . S
C806 C804 1.419 . S
C806 C807 1.362 . S
C807 H797 0.930 . S
C807 C800 1.409 . S
C807 C806 1.362 . S
H808 C814 0.930 . S
H809 C817 0.930 . S
H810 C818 0.930 . S
H811 C819 0.930 . S
H812 C822 0.930 . S
H813 C823 0.930 . S
C814 H808 0.930 . S
C814 C815 1.355 . S
C814 C816 1.415 . S
C815 C814 1.355 . S
C815 C817 1.419 . S
C816 C814 1.415 . S
C816 C821 1.425 . S
C816 C823 1.409 . S
C817 H809 0.930 . S
C817 C815 1.419 . S
C817 C818 1.362 . S
C818 H810 0.930 . S
C818 C817 1.362 . S
C818 C821 1.409 . S
C819 H811 0.930 . S
C819 C820 1.355 . S
C819 C821 1.415 . S
C820 C819 1.355 . S
C820 C822 1.419 . S
C821 C816 1.425 . S
C821 C818 1.409 . S
C821 C819 1.415 . S
C822 H812 0.930 . S
C822 C820 1.419 . S
C822 C823 1.362 . S
C823 H813 0.930 . S
C823 C816 1.409 . S
C823 C822 1.362 . S
H824 C830 0.930 . S
H825 C833 0.930 . S
H826 C834 0.930 . S
H827 C835 0.930 . S
H828 C838 0.930 . S
H829 C839 0.930 . S
C830 H824 0.930 . S
C830 C831 1.355 . S
C830 C832 1.415 . S
C831 C830 1.355 . S
C831 C833 1.419 . S
C832 C830 1.415 . S
C832 C837 1.425 . S
C832 C839 1.409 . S
C833 H825 0.930 . S
C833 C831 1.419 . S
C833 C834 1.362 . S
C834 H826 0.930 . S
C834 C833 1.362 . S
C834 C837 1.409 . S
C835 H827 0.930 . S
C835 C836 1.355 . S
C835 C837 1.415 . S
C836 C835 1.355 . S
C836 C838 1.419 . S
C837 C832 1.425 . S
C837 C834 1.409 . S
C837 C835 1.415 . S
C838 H828 0.930 . S
C838 C836 1.419 . S
C838 C839 1.362 . S
C839 H829 0.930 . S
C839 C832 1.409 . S
C839 C838 1.362 . S
H840 C846 0.930 . S
H841 C849 0.930 . S
H842 C850 0.930 . S
H843 C851 0.930 . S
H844 C854 0.930 1_556 S
H845 C855 0.930 . S
C846 H840 0.930 . S
C846 C847 1.355 . S
C846 C848 1.415 . S
C847 C846 1.355 . S
C847 C849 1.419 . S
C848 C846 1.415 . S
C848 C853 1.425 . S
C848 C855 1.409 . S
C849 H841 0.930 . S
C849 C847 1.419 . S
C849 C850 1.362 . S
C850 H842 0.930 . S
C850 C849 1.362 . S
C850 C853 1.409 . S
C851 H843 0.930 . S
C851 C852 1.355 . S
C851 C853 1.415 . S
C852 C851 1.355 . S
C852 C854 1.419 . S
C853 C848 1.425 . S
C853 C850 1.409 . S
C853 C851 1.415 . S
C854 H844 0.930 1_554 S
C854 C852 1.419 . S
C854 C855 1.362 . S
C855 H845 0.930 . S
C855 C848 1.409 . S
C855 C854 1.362 . S
H856 C862 0.930 . S
H857 C865 0.930 . S
H858 C866 0.930 . S
H859 C867 0.930 . S
H860 C870 0.930 1_556 S
H861 C871 0.930 . S
C862 H856 0.930 . S
C862 C863 1.355 . S
C862 C864 1.415 . S
C863 C862 1.355 . S
C863 C865 1.419 . S
C864 C862 1.415 . S
C864 C869 1.425 . S
C864 C871 1.409 . S
C865 H857 0.930 . S
C865 C863 1.419 . S
C865 C866 1.362 . S
C866 H858 0.930 . S
C866 C865 1.362 . S
C866 C869 1.409 . S
C867 H859 0.930 . S
C867 C868 1.355 . S
C867 C869 1.415 . S
C868 C867 1.355 . S
C868 C870 1.419 . S
C869 C864 1.425 . S
C869 C866 1.409 . S
C869 C867 1.415 . S
C870 H860 0.930 1_554 S
C870 C868 1.419 . S
C870 C871 1.362 . S
C871 H861 0.930 . S
C871 C864 1.409 . S
C871 C870 1.362 . S
H872 C878 0.930 . S
H873 C881 0.930 . S
H874 C882 0.930 . S
H875 C883 0.930 . S
H876 C886 0.930 1_556 S
H877 C887 0.930 . S
C878 H872 0.930 . S
C878 C879 1.355 . S
C878 C880 1.415 . S
C879 C878 1.355 . S
C879 C881 1.419 . S
C880 C878 1.415 . S
C880 C885 1.425 . S
C880 C887 1.409 . S
C881 H873 0.930 . S
C881 C879 1.419 . S
C881 C882 1.362 . S
C882 H874 0.930 . S
C882 C881 1.362 . S
C882 C885 1.409 . S
C883 H875 0.930 . S
C883 C884 1.355 . S
C883 C885 1.415 . S
C884 C883 1.355 . S
C884 C886 1.419 . S
C885 C880 1.425 . S
C885 C882 1.409 . S
C885 C883 1.415 . S
C886 H876 0.930 1_554 S
C886 C884 1.419 . S
C886 C887 1.362 . S
C887 H877 0.930 . S
C887 C880 1.409 . S
C887 C886 1.362 . S
H888 C894 0.930 . S
H889 C897 0.930 . S
H890 C898 0.930 . S
H891 C899 0.930 . S
H892 C902 0.930 . S
H893 C903 0.930 . S
C894 H888 0.930 . S
C894 C895 1.355 . S
C894 C896 1.415 . S
C895 C894 1.355 . S
C895 C897 1.419 . S
C896 C894 1.415 . S
C896 C901 1.425 . S
C896 C903 1.409 . S
C897 H889 0.930 . S
C897 C895 1.419 . S
C897 C898 1.362 . S
C898 H890 0.930 . S
C898 C897 1.362 . S
C898 C901 1.409 . S
C899 H891 0.930 . S
C899 C900 1.355 . S
C899 C901 1.415 . S
C900 C899 1.355 . S
C900 C902 1.419 . S
C901 C896 1.425 . S
C901 C898 1.409 . S
C901 C899 1.415 . S
C902 H892 0.930 . S
C902 C900 1.419 . S
C902 C903 1.362 . S
C903 H893 0.930 . S
C903 C896 1.409 . S
C903 C902 1.362 . S
H904 C910 0.930 . S
H905 C913 0.930 . S
H906 C914 0.930 . S
H907 C915 0.930 . S
H908 C918 0.930 . S
H909 C919 0.930 . S
C910 H904 0.930 . S
C910 C911 1.355 . S
C910 C912 1.415 . S
C911 C910 1.355 . S
C911 C913 1.419 . S
C912 C910 1.415 . S
C912 C917 1.425 . S
C912 C919 1.409 . S
C913 H905 0.930 . S
C913 C911 1.419 . S
C913 C914 1.362 . S
C914 H906 0.930 . S
C914 C913 1.362 . S
C914 C917 1.409 . S
C915 H907 0.930 . S
C915 C916 1.355 . S
C915 C917 1.415 . S
C916 C915 1.355 . S
C916 C918 1.419 . S
C917 C912 1.425 . S
C917 C914 1.409 . S
C917 C915 1.415 . S
C918 H908 0.930 . S
C918 C916 1.419 . S
C918 C919 1.362 . S
C919 H909 0.930 . S
C919 C912 1.409 . S
C919 C918 1.362 . S
H920 C926 0.930 . S
H921 C929 0.930 . S
H922 C930 0.930 . S
H923 C931 0.930 . S
H924 C934 0.930 . S
H925 C935 0.930 . S
C926 H920 0.930 . S
C926 C927 1.355 . S
C926 C928 1.415 . S
C927 C926 1.355 . S
C927 C929 1.419 . S
C928 C926 1.415 . S
C928 C933 1.425 . S
C928 C935 1.409 . S
C929 H921 0.930 . S
C929 C927 1.419 . S
C929 C930 1.362 . S
C930 H922 0.930 . S
C930 C929 1.362 . S
C930 C933 1.409 . S
C931 H923 0.930 . S
C931 C932 1.355 . S
C931 C933 1.415 . S
C932 C931 1.355 . S
C932 C934 1.419 . S
C933 C928 1.425 . S
C933 C930 1.409 . S
C933 C931 1.415 . S
C934 H924 0.930 . S
C934 C932 1.419 . S
C934 C935 1.362 . S
C935 H925 0.930 . S
C935 C928 1.409 . S
C935 C934 1.362 . S
H936 C942 0.930 . S
H937 C945 0.930 . S
H938 C946 0.930 . S
H939 C947 0.927 . S
H940 C950 0.930 . S
H941 C951 0.930 . S
C942 H936 0.930 . S
C942 C943 1.355 . S
C942 C944 1.415 . S
C943 C942 1.355 . S
C943 C945 1.419 . S
C944 C942 1.415 . S
C944 C949 1.425 . S
C944 C951 1.409 . S
C945 H937 0.930 . S
C945 C943 1.419 . S
C945 C946 1.362 . S
C946 H938 0.930 . S
C946 C945 1.362 . S
C946 C949 1.409 . S
C947 H939 0.927 . S
C947 C948 1.355 . S
C947 C949 1.415 . S
C948 C947 1.355 . S
C948 C950 1.419 . S
C949 C944 1.425 . S
C949 C946 1.409 . S
C949 C947 1.415 . S
C950 H940 0.930 . S
C950 C948 1.419 . S
C950 C951 1.362 . S
C951 H941 0.930 . S
C951 C944 1.409 . S
C951 C950 1.362 . S
H952 C958 0.930 . S
H953 C961 0.930 . S
H954 C962 0.930 . S
H955 C963 0.930 . S
H956 C966 0.930 1_554 S
H957 C967 0.930 . S
C958 H952 0.930 . S
C958 C959 1.355 . S
C958 C960 1.415 . S
C959 C958 1.355 . S
C959 C961 1.419 . S
C960 C958 1.415 . S
C960 C965 1.425 . S
C960 C967 1.409 . S
C961 H953 0.930 . S
C961 C959 1.419 . S
C961 C962 1.362 . S
C962 H954 0.930 . S
C962 C961 1.362 . S
C962 C965 1.409 . S
C963 H955 0.930 . S
C963 C964 1.355 . S
C963 C965 1.415 . S
C964 C963 1.355 . S
C964 C966 1.419 . S
C965 C960 1.425 . S
C965 C962 1.409 . S
C965 C963 1.415 . S
C966 H956 0.930 1_556 S
C966 C964 1.419 . S
C966 C967 1.362 . S
C967 H957 0.930 . S
C967 C960 1.409 . S
C967 C966 1.362 . S
H968 C974 0.930 . S
H969 C977 0.930 . S
H970 C978 0.930 . S
H971 C979 0.930 . S
H972 C982 0.930 . S
H973 C983 0.930 . S
C974 H968 0.930 . S
C974 C975 1.355 . S
C974 C976 1.415 . S
C975 C974 1.355 . S
C975 C977 1.419 . S
C976 C974 1.415 . S
C976 C981 1.425 . S
C976 C983 1.409 . S
C977 H969 0.930 . S
C977 C975 1.419 . S
C977 C978 1.362 . S
C978 H970 0.930 . S
C978 C977 1.362 . S
C978 C981 1.409 . S
C979 H971 0.930 . S
C979 C980 1.355 . S
C979 C981 1.415 . S
C980 C979 1.355 . S
C980 C982 1.419 . S
C981 C976 1.425 . S
C981 C978 1.409 . S
C981 C979 1.415 . S
C982 H972 0.930 . S
C982 C980 1.419 . S
C982 C983 1.362 . S
C983 H973 0.930 . S
C983 C976 1.409 . S
C983 C982 1.362 . S
H984 C990 0.930 . S
H985 C993 0.930 . S
H986 C994 0.930 . S
H987 C995 0.930 . S
H988 C998 0.930 . S
H989 C999 0.930 . S
C990 H984 0.930 . S
C990 C991 1.355 . S
C990 C992 1.415 . S
C991 C990 1.355 . S
C991 C993 1.419 . S
C992 C990 1.415 . S
C992 C997 1.425 . S
C992 C999 1.409 . S
C993 H985 0.930 . S
C993 C991 1.419 . S
C993 C994 1.362 . S
C994 H986 0.930 . S
C994 C993 1.362 . S
C994 C997 1.409 . S
C995 H987 0.930 . S
C995 C996 1.355 . S
C995 C997 1.415 . S
C996 C995 1.355 . S
C996 C998 1.419 . S
C997 C992 1.425 . S
C997 C994 1.409 . S
C997 C995 1.415 . S
C998 H988 0.930 . S
C998 C996 1.419 . S
C998 C999 1.362 . S
C999 H989 0.930 . S
C999 C992 1.409 . S
C999 C998 1.362 . S
H1000 C1006 0.930 . S
H1001 C1009 0.930 . S
H1002 C1010 0.930 . S
H1003 C1011 0.930 . S
H1004 C1014 0.930 . S
H1005 C1015 0.930 . S
C1006 H1000 0.930 . S
C1006 C1007 1.355 . S
C1006 C1008 1.415 . S
C1007 C1006 1.355 . S
C1007 C1009 1.419 . S
C1008 C1006 1.415 . S
C1008 C1013 1.425 . S
C1008 C1015 1.409 . S
C1009 H1001 0.930 . S
C1009 C1007 1.419 . S
C1009 C1010 1.362 . S
C1010 H1002 0.930 . S
C1010 C1009 1.362 . S
C1010 C1013 1.409 . S
C1011 H1003 0.930 . S
C1011 C1012 1.355 . S
C1011 C1013 1.415 . S
C1012 C1011 1.355 . S
C1012 C1014 1.419 . S
C1013 C1008 1.425 . S
C1013 C1010 1.409 . S
C1013 C1011 1.415 . S
C1014 H1004 0.930 . S
C1014 C1012 1.419 . S
C1014 C1015 1.362 . S
C1015 H1005 0.930 . S
C1015 C1008 1.409 . S
C1015 C1014 1.362 . S
H1016 C1022 0.930 . S
H1017 C1025 0.930 . S
H1018 C1026 0.930 . S
H1019 C1027 0.930 . S
H1020 C1030 0.930 . S
H1021 C1031 0.930 . S
C1022 H1016 0.930 . S
C1022 C1023 1.355 . S
C1022 C1024 1.415 . S
C1023 C1022 1.355 . S
C1023 C1025 1.419 . S
C1024 C1022 1.415 . S
C1024 C1029 1.425 . S
C1024 C1031 1.409 . S
C1025 H1017 0.930 . S
C1025 C1023 1.419 . S
C1025 C1026 1.362 . S
C1026 H1018 0.930 . S
C1026 C1025 1.362 . S
C1026 C1029 1.409 . S
C1027 H1019 0.930 . S
C1027 C1028 1.355 . S
C1027 C1029 1.415 . S
C1028 C1027 1.355 . S
C1028 C1030 1.419 . S
C1029 C1024 1.425 . S
C1029 C1026 1.409 . S
C1029 C1027 1.415 . S
C1030 H1020 0.930 . S
C1030 C1028 1.419 . S
C1030 C1031 1.362 . S
C1031 H1021 0.930 . S
C1031 C1024 1.409 . S
C1031 C1030 1.362 . S
H1032 C1038 0.930 . S
H1033 C1041 0.930 . S
H1034 C1042 0.930 . S
H1035 C1043 0.930 . S
H1036 C1046 0.930 . S
H1037 C1047 0.930 . S
C1038 H1032 0.930 . S
C1038 C1039 1.355 . S
C1038 C1040 1.415 . S
C1039 C1038 1.355 . S
C1039 C1041 1.419 . S
C1040 C1038 1.415 . S
C1040 C1045 1.425 . S
C1040 C1047 1.409 . S
C1041 H1033 0.930 . S
C1041 C1039 1.419 . S
C1041 C1042 1.362 . S
C1042 H1034 0.930 . S
C1042 C1041 1.362 . S
C1042 C1045 1.409 . S
C1043 H1035 0.930 . S
C1043 C1044 1.355 . S
C1043 C1045 1.415 . S
C1044 C1043 1.355 . S
C1044 C1046 1.419 . S
C1045 C1040 1.425 . S
C1045 C1042 1.409 . S
C1045 C1043 1.415 . S
C1046 H1036 0.930 . S
C1046 C1044 1.419 . S
C1046 C1047 1.362 . S
C1047 H1037 0.930 . S
C1047 C1040 1.409 . S
C1047 C1046 1.362 . S
H1048 C1054 0.930 . S
H1049 C1057 0.930 . S
H1050 C1058 0.930 . S
H1051 C1059 0.930 . S
H1052 C1062 0.930 . S
H1053 C1063 0.930 . S
C1054 H1048 0.930 . S
C1054 C1055 1.355 . S
C1054 C1056 1.415 . S
C1055 C1054 1.355 . S
C1055 C1057 1.419 . S
C1056 C1054 1.415 . S
C1056 C1061 1.425 . S
C1056 C1063 1.409 . S
C1057 H1049 0.930 . S
C1057 C1055 1.419 . S
C1057 C1058 1.362 . S
C1058 H1050 0.930 . S
C1058 C1057 1.362 . S
C1058 C1061 1.409 . S
C1059 H1051 0.930 . S
C1059 C1060 1.355 . S
C1059 C1061 1.415 . S
C1060 C1059 1.355 . S
C1060 C1062 1.419 . S
C1061 C1056 1.425 . S
C1061 C1058 1.409 . S
C1061 C1059 1.415 . S
C1062 H1052 0.930 . S
C1062 C1060 1.419 . S
C1062 C1063 1.362 . S
C1063 H1053 0.930 . S
C1063 C1056 1.409 . S
C1063 C1062 1.362 . S
H1064 C1070 0.930 . S
H1065 C1073 0.930 . S
H1066 C1074 0.930 . S
H1067 C1075 0.930 . S
H1068 C1078 0.930 . S
H1069 C1079 0.930 . S
C1070 H1064 0.930 . S
C1070 C1071 1.355 . S
C1070 C1072 1.415 . S
C1071 C1070 1.355 . S
C1071 C1073 1.419 . S
C1072 C1070 1.415 . S
C1072 C1077 1.425 . S
C1072 C1079 1.409 . S
C1073 H1065 0.930 . S
C1073 C1071 1.419 . S
C1073 C1074 1.362 . S
C1074 H1066 0.930 . S
C1074 C1073 1.362 . S
C1074 C1077 1.409 . S
C1075 H1067 0.930 . S
C1075 C1076 1.355 . S
C1075 C1077 1.415 . S
C1076 C1075 1.355 . S
C1076 C1078 1.419 . S
C1077 C1072 1.425 . S
C1077 C1074 1.409 . S
C1077 C1075 1.415 . S
C1078 H1068 0.930 . S
C1078 C1076 1.419 . S
C1078 C1079 1.362 . S
C1079 H1069 0.930 . S
C1079 C1072 1.409 . S
C1079 C1078 1.362 . S
H1080 C1086 0.930 1_565 S
H1081 C1089 0.930 . S
H1082 C1090 0.930 . S
H1083 C1091 0.930 . S
H1084 C1094 0.930 1_565 S
H1085 C1095 0.930 . S
C1086 H1080 0.930 1_545 S
C1086 C1087 1.355 . S
C1086 C1088 1.415 . S
C1087 C1086 1.355 . S
C1087 C1089 1.419 . S
C1088 C1086 1.415 . S
C1088 C1093 1.425 . S
C1088 C1095 1.409 1_545 S
C1089 H1081 0.930 . S
C1089 C1087 1.419 . S
C1089 C1090 1.362 . S
C1090 H1082 0.930 . S
C1090 C1089 1.362 . S
C1090 C1093 1.409 . S
C1091 H1083 0.930 . S
C1091 C1092 1.355 . S
C1091 C1093 1.415 . S
C1092 C1091 1.355 . S
C1092 C1094 1.419 . S
C1093 C1088 1.425 . S
C1093 C1090 1.409 . S
C1093 C1091 1.415 . S
C1094 H1084 0.930 1_545 S
C1094 C1092 1.419 . S
C1094 C1095 1.362 1_545 S
C1095 H1085 0.930 . S
C1095 C1088 1.409 1_565 S
C1095 C1094 1.362 1_565 S
H1096 C1102 0.940 . S
H1097 C1105 0.930 . S
H1098 C1106 0.930 . S
H1099 C1107 0.930 . S
H1100 C1110 0.930 . S
H1101 C1111 0.930 . S
C1102 H1096 0.940 . S
C1102 C1103 1.334 1_455 S
C1102 C1104 1.426 1_455 S
C1103 C1102 1.334 1_655 S
C1103 C1105 1.419 . S
C1104 C1102 1.426 1_655 S
C1104 C1109 1.425 . S
C1104 C1111 1.409 1_655 S
C1105 H1097 0.930 . S
C1105 C1103 1.419 . S
C1105 C1106 1.362 . S
C1106 H1098 0.930 . S
C1106 C1105 1.362 . S
C1106 C1109 1.409 . S
C1107 H1099 0.930 . S
C1107 C1108 1.355 . S
C1107 C1109 1.415 . S
C1108 C1107 1.355 . S
C1108 C1110 1.419 1_655 S
C1109 C1104 1.425 . S
C1109 C1106 1.409 . S
C1109 C1107 1.415 . S
C1110 H1100 0.930 . S
C1110 C1108 1.419 1_455 S
C1110 C1111 1.362 . S
C1111 H1101 0.930 . S
C1111 C1104 1.409 1_455 S
C1111 C1110 1.362 . S
H1112 C1118 0.930 . S
H1113 C1121 0.930 . S
H1114 C1122 0.930 . S
H1115 C1123 0.930 . S
H1116 C1126 0.930 . S
H1117 C1127 0.930 . S
C1118 H1112 0.930 . S
C1118 C1119 1.355 . S
C1118 C1120 1.415 . S
C1119 C1118 1.355 . S
C1119 C1121 1.419 . S
C1120 C1118 1.415 . S
C1120 C1125 1.425 . S
C1120 C1127 1.409 . S
C1121 H1113 0.930 . S
C1121 C1119 1.419 . S
C1121 C1122 1.362 . S
C1122 H1114 0.930 . S
C1122 C1121 1.362 . S
C1122 C1125 1.409 . S
C1123 H1115 0.930 . S
C1123 C1124 1.355 . S
C1123 C1125 1.415 . S
C1124 C1123 1.355 . S
C1124 C1126 1.419 . S
C1125 C1120 1.425 . S
C1125 C1122 1.409 . S
C1125 C1123 1.415 . S
C1126 H1116 0.930 . S
C1126 C1124 1.419 . S
C1126 C1127 1.362 . S
C1127 H1117 0.930 . S
C1127 C1120 1.409 . S
C1127 C1126 1.362 . S
H1128 C1134 0.930 . S
H1129 C1137 0.930 . S
H1130 C1138 0.930 . S
H1131 C1139 0.930 . S
H1132 C1142 0.930 . S
H1133 C1143 0.930 . S
C1134 H1128 0.930 . S
C1134 C1135 1.355 . S
C1134 C1136 1.415 . S
C1135 C1134 1.355 . S
C1135 C1137 1.419 . S
C1136 C1134 1.415 . S
C1136 C1141 1.425 . S
C1136 C1143 1.409 . S
C1137 H1129 0.930 . S
C1137 C1135 1.419 . S
C1137 C1138 1.362 . S
C1138 H1130 0.930 . S
C1138 C1137 1.362 . S
C1138 C1141 1.409 . S
C1139 H1131 0.930 . S
C1139 C1140 1.355 . S
C1139 C1141 1.415 . S
C1140 C1139 1.355 . S
C1140 C1142 1.419 . S
C1141 C1136 1.425 . S
C1141 C1138 1.409 . S
C1141 C1139 1.415 . S
C1142 H1132 0.930 . S
C1142 C1140 1.419 . S
C1142 C1143 1.362 . S
C1143 H1133 0.930 . S
C1143 C1136 1.409 . S
C1143 C1142 1.362 . S
H1144 C1150 0.930 . S
H1145 C1153 0.930 . S
H1146 C1154 0.930 . S
H1147 C1155 0.930 . S
H1148 C1158 0.930 . S
H1149 C1159 0.930 . S
C1150 H1144 0.930 . S
C1150 C1151 1.355 . S
C1150 C1152 1.415 . S
C1151 C1150 1.355 . S
C1151 C1153 1.419 . S
C1152 C1150 1.415 . S
C1152 C1157 1.425 . S
C1152 C1159 1.409 . S
C1153 H1145 0.930 . S
C1153 C1151 1.419 . S
C1153 C1154 1.362 . S
C1154 H1146 0.930 . S
C1154 C1153 1.362 . S
C1154 C1157 1.409 . S
C1155 H1147 0.930 . S
C1155 C1156 1.355 . S
C1155 C1157 1.415 . S
C1156 C1155 1.355 . S
C1156 C1158 1.419 . S
C1157 C1152 1.425 . S
C1157 C1154 1.409 . S
C1157 C1155 1.415 . S
C1158 H1148 0.930 . S
C1158 C1156 1.419 . S
C1158 C1159 1.362 . S
C1159 H1149 0.930 . S
C1159 C1152 1.409 . S
C1159 C1158 1.362 . S
H1160 C1166 0.930 . S
H1161 C1169 0.927 . S
H1162 C1170 0.930 . S
H1163 C1171 0.930 . S
H1164 C1174 0.930 . S
H1165 C1175 0.930 . S
C1166 H1160 0.930 . S
C1166 C1167 1.355 . S
C1166 C1168 1.415 . S
C1167 C1166 1.355 . S
C1167 C1169 1.407 1_565 S
C1168 C1166 1.415 . S
C1168 C1173 1.425 . S
C1168 C1175 1.409 . S
C1169 H1161 0.927 . S
C1169 C1167 1.407 1_545 S
C1169 C1170 1.377 . S
C1170 H1162 0.930 . S
C1170 C1169 1.377 . S
C1170 C1173 1.409 1_545 S
C1171 H1163 0.930 . S
C1171 C1172 1.355 . S
C1171 C1173 1.415 . S
C1172 C1171 1.355 . S
C1172 C1174 1.419 . S
C1173 C1168 1.425 . S
C1173 C1170 1.409 1_565 S
C1173 C1171 1.415 . S
C1174 H1164 0.930 . S
C1174 C1172 1.419 . S
C1174 C1175 1.362 . S
C1175 H1165 0.930 . S
C1175 C1168 1.409 . S
C1175 C1174 1.362 . S
H1176 C1182 0.930 . S
H1177 C1185 0.930 . S
H1178 C1186 0.930 . S
H1179 C1187 0.930 . S
H1180 C1190 0.930 . S
H1181 C1191 0.930 . S
C1182 H1176 0.930 . S
C1182 C1183 1.355 1_545 S
C1182 C1184 1.415 . S
C1183 C1182 1.355 1_565 S
C1183 C1185 1.419 . S
C1184 C1182 1.415 . S
C1184 C1189 1.425 1_545 S
C1184 C1191 1.409 . S
C1185 H1177 0.930 . S
C1185 C1183 1.419 . S
C1185 C1186 1.362 . S
C1186 H1178 0.930 . S
C1186 C1185 1.362 . S
C1186 C1189 1.409 . S
C1187 H1179 0.930 . S
C1187 C1188 1.355 . S
C1187 C1189 1.415 . S
C1188 C1187 1.355 . S
C1188 C1190 1.419 1_565 S
C1189 C1184 1.425 1_565 S
C1189 C1186 1.409 . S
C1189 C1187 1.415 . S
C1190 H1180 0.930 . S
C1190 C1188 1.419 1_545 S
C1190 C1191 1.362 . S
C1191 H1181 0.930 . S
C1191 C1184 1.409 . S
C1191 C1190 1.362 . S
H1192 C1198 0.930 . S
H1193 C1201 0.930 . S
H1194 C1202 0.930 . S
H1195 C1203 0.930 . S
H1196 C1206 0.930 . S
H1197 C1207 0.930 . S
C1198 H1192 0.930 . S
C1198 C1199 1.355 . S
C1198 C1200 1.415 . S
C1199 C1198 1.355 . S
C1199 C1201 1.419 . S
C1200 C1198 1.415 . S
C1200 C1205 1.425 . S
C1200 C1207 1.409 . S
C1201 H1193 0.930 . S
C1201 C1199 1.419 . S
C1201 C1202 1.362 . S
C1202 H1194 0.930 . S
C1202 C1201 1.362 . S
C1202 C1205 1.409 . S
C1203 H1195 0.930 . S
C1203 C1204 1.355 . S
C1203 C1205 1.415 . S
C1204 C1203 1.355 . S
C1204 C1206 1.419 . S
C1205 C1200 1.425 . S
C1205 C1202 1.409 . S
C1205 C1203 1.415 . S
C1206 H1196 0.930 . S
C1206 C1204 1.419 . S
C1206 C1207 1.362 . S
C1207 H1197 0.930 . S
C1207 C1200 1.409 . S
C1207 C1206 1.362 . S
H1208 C1214 0.930 . S
H1209 C1217 0.930 . S
H1210 C1218 0.930 . S
H1211 C1219 0.930 . S
H1212 C1222 0.930 . S
H1213 C1223 0.930 . S
C1214 H1208 0.930 . S
C1214 C1215 1.355 . S
C1214 C1216 1.415 . S
C1215 C1214 1.355 . S
C1215 C1217 1.419 . S
C1216 C1214 1.415 . S
C1216 C1221 1.425 . S
C1216 C1223 1.409 . S
C1217 H1209 0.930 . S
C1217 C1215 1.419 . S
C1217 C1218 1.362 . S
C1218 H1210 0.930 . S
C1218 C1217 1.362 . S
C1218 C1221 1.409 . S
C1219 H1211 0.930 . S
C1219 C1220 1.355 . S
C1219 C1221 1.415 . S
C1220 C1219 1.355 . S
C1220 C1222 1.419 . S
C1221 C1216 1.425 . S
C1221 C1218 1.409 . S
C1221 C1219 1.415 . S
C1222 H1212 0.930 . S
C1222 C1220 1.419 . S
C1222 C1223 1.362 . S
C1223 H1213 0.930 . S
C1223 C1216 1.409 . S
C1223 C1222 1.362 . S
H1224 C1230 0.930 . S
H1225 C1233 0.930 . S
H1226 C1234 0.930 . S
H1227 C1235 0.930 . S
H1228 C1238 0.930 . S
H1229 C1239 0.930 . S
C1230 H1224 0.930 . S
C1230 C1231 1.355 . S
C1230 C1232 1.415 . S
C1231 C1230 1.355 . S
C1231 C1233 1.419 1_655 S
C1232 C1230 1.415 . S
C1232 C1237 1.425 1_655 S
C1232 C1239 1.409 . S
C1233 H1225 0.930 . S
C1233 C1231 1.419 1_455 S
C1233 C1234 1.362 . S
C1234 H1226 0.930 . S
C1234 C1233 1.362 . S
C1234 C1237 1.409 . S
C1235 H1227 0.930 . S
C1235 C1236 1.355 1_455 S
C1235 C1237 1.415 . S
C1236 C1235 1.355 1_655 S
C1236 C1238 1.419 . S
C1237 C1232 1.425 1_455 S
C1237 C1234 1.409 . S
C1237 C1235 1.415 . S
C1238 H1228 0.930 . S
C1238 C1236 1.419 . S
C1238 C1239 1.362 . S
C1239 H1229 0.930 . S
C1239 C1232 1.409 . S
C1239 C1238 1.362 . S
H1240 C1246 0.930 . S
H1241 C1249 0.930 . S
H1242 C1250 0.930 . S
H1243 C1251 0.930 . S
H1244 C1254 0.930 . S
H1245 C1255 0.930 . S
C1246 H1240 0.930 . S
C1246 C1247 1.355 . S
C1246 C1248 1.415 . S
C1247 C1246 1.355 . S
C1247 C1249 1.419 . S
C1248 C1246 1.415 . S
C1248 C1253 1.425 . S
C1248 C1255 1.409 . S
C1249 H1241 0.930 . S
C1249 C1247 1.419 . S
C1249 C1250 1.362 . S
C1250 H1242 0.930 . S
C1250 C1249 1.362 . S
C1250 C1253 1.409 . S
C1251 H1243 0.930 . S
C1251 C1252 1.355 . S
C1251 C1253 1.415 . S
C1252 C1251 1.355 . S
C1252 C1254 1.419 . S
C1253 C1248 1.425 . S
C1253 C1250 1.409 . S
C1253 C1251 1.415 . S
C1254 H1244 0.930 . S
C1254 C1252 1.419 . S
C1254 C1255 1.362 . S
C1255 H1245 0.930 . S
C1255 C1248 1.409 . S
C1255 C1254 1.362 . S
H1256 C1262 0.930 . S
H1257 C1265 0.930 . S
H1258 C1266 0.930 . S
H1259 C1267 0.930 . S
H1260 C1270 0.930 . S
H1261 C1271 0.930 . S
C1262 H1256 0.930 . S
C1262 C1263 1.355 . S
C1262 C1264 1.415 . S
C1263 C1262 1.355 . S
C1263 C1265 1.419 . S
C1264 C1262 1.415 . S
C1264 C1269 1.425 . S
C1264 C1271 1.409 . S
C1265 H1257 0.930 . S
C1265 C1263 1.419 . S
C1265 C1266 1.362 . S
C1266 H1258 0.930 . S
C1266 C1265 1.362 . S
C1266 C1269 1.409 . S
C1267 H1259 0.930 . S
C1267 C1268 1.355 . S
C1267 C1269 1.415 . S
C1268 C1267 1.355 . S
C1268 C1270 1.419 . S
C1269 C1264 1.425 . S
C1269 C1266 1.409 . S
C1269 C1267 1.415 . S
C1270 H1260 0.930 . S
C1270 C1268 1.419 . S
C1270 C1271 1.362 . S
C1271 H1261 0.930 . S
C1271 C1264 1.409 . S
C1271 C1270 1.362 . S
H1272 C1278 0.930 . S
H1273 C1281 0.930 . S
H1274 C1282 0.930 . S
H1275 C1283 0.930 . S
H1276 C1286 0.930 . S
H1277 C1287 0.930 . S
C1278 H1272 0.930 . S
C1278 C1279 1.355 . S
C1278 C1280 1.415 . S
C1279 C1278 1.355 . S
C1279 C1281 1.419 . S
C1280 C1278 1.415 . S
C1280 C1285 1.425 . S
C1280 C1287 1.409 . S
C1281 H1273 0.930 . S
C1281 C1279 1.419 . S
C1281 C1282 1.362 . S
C1282 H1274 0.930 . S
C1282 C1281 1.362 . S
C1282 C1285 1.409 . S
C1283 H1275 0.930 . S
C1283 C1284 1.355 . S
C1283 C1285 1.415 . S
C1284 C1283 1.355 . S
C1284 C1286 1.419 . S
C1285 C1280 1.425 . S
C1285 C1282 1.409 . S
C1285 C1283 1.415 . S
C1286 H1276 0.930 . S
C1286 C1284 1.419 . S
C1286 C1287 1.362 . S
C1287 H1277 0.930 . S
C1287 C1280 1.409 . S
C1287 C1286 1.362 . S
H1288 C1294 0.930 . S
H1289 C1297 0.930 . S
H1290 C1298 0.930 . S
H1291 C1299 0.930 . S
H1292 C1302 0.930 . S
H1293 C1303 0.930 . S
C1294 H1288 0.930 . S
C1294 C1295 1.355 . S
C1294 C1296 1.415 . S
C1295 C1294 1.355 . S
C1295 C1297 1.419 . S
C1296 C1294 1.415 . S
C1296 C1301 1.425 . S
C1296 C1303 1.409 . S
C1297 H1289 0.930 . S
C1297 C1295 1.419 . S
C1297 C1298 1.362 . S
C1298 H1290 0.930 . S
C1298 C1297 1.362 . S
C1298 C1301 1.409 . S
C1299 H1291 0.930 . S
C1299 C1300 1.355 . S
C1299 C1301 1.415 . S
C1300 C1299 1.355 . S
C1300 C1302 1.419 . S
C1301 C1296 1.425 . S
C1301 C1298 1.409 . S
C1301 C1299 1.415 . S
C1302 H1292 0.930 . S
C1302 C1300 1.419 . S
C1302 C1303 1.362 . S
C1303 H1293 0.930 . S
C1303 C1296 1.409 . S
C1303 C1302 1.362 . S
H1304 C1310 0.930 . S
H1305 C1313 0.930 . S
H1306 C1314 0.930 . S
H1307 C1315 0.930 . S
H1308 C1318 0.930 . S
H1309 C1319 0.930 . S
C1310 H1304 0.930 . S
C1310 C1311 1.355 . S
C1310 C1312 1.415 . S
C1311 C1310 1.355 . S
C1311 C1313 1.419 . S
C1312 C1310 1.415 . S
C1312 C1317 1.425 . S
C1312 C1319 1.409 . S
C1313 H1305 0.930 . S
C1313 C1311 1.419 . S
C1313 C1314 1.362 . S
C1314 H1306 0.930 . S
C1314 C1313 1.362 . S
C1314 C1317 1.409 . S
C1315 H1307 0.930 . S
C1315 C1316 1.355 . S
C1315 C1317 1.415 . S
C1316 C1315 1.355 . S
C1316 C1318 1.419 . S
C1317 C1312 1.425 . S
C1317 C1314 1.409 . S
C1317 C1315 1.415 . S
C1318 H1308 0.930 . S
C1318 C1316 1.419 . S
C1318 C1319 1.362 . S
C1319 H1309 0.930 . S
C1319 C1312 1.409 . S
C1319 C1318 1.362 . S
H1320 C1326 0.930 . S
H1321 C1329 0.930 . S
H1322 C1330 0.930 . S
H1323 C1331 0.930 . S
H1324 C1334 0.930 . S
H1325 C1335 0.930 . S
C1326 H1320 0.930 . S
C1326 C1327 1.355 . S
C1326 C1328 1.415 . S
C1327 C1326 1.355 . S
C1327 C1329 1.419 . S
C1328 C1326 1.415 . S
C1328 C1333 1.425 . S
C1328 C1335 1.409 . S
C1329 H1321 0.930 . S
C1329 C1327 1.419 . S
C1329 C1330 1.362 . S
C1330 H1322 0.930 . S
C1330 C1329 1.362 . S
C1330 C1333 1.409 . S
C1331 H1323 0.930 . S
C1331 C1332 1.355 . S
C1331 C1333 1.415 . S
C1332 C1331 1.355 . S
C1332 C1334 1.419 . S
C1333 C1328 1.425 . S
C1333 C1330 1.409 . S
C1333 C1331 1.415 . S
C1334 H1324 0.930 . S
C1334 C1332 1.419 . S
C1334 C1335 1.362 . S
C1335 H1325 0.930 . S
C1335 C1328 1.409 . S
C1335 C1334 1.362 . S
H1336 C1342 0.930 . S
H1337 C1345 0.930 . S
H1338 C1346 0.930 . S
H1339 C1347 0.930 . S
H1340 C1350 0.930 . S
H1341 C1351 0.930 . S
C1342 H1336 0.930 . S
C1342 C1343 1.355 . S
C1342 C1344 1.415 . S
C1343 C1342 1.355 . S
C1343 C1345 1.419 . S
C1344 C1342 1.415 . S
C1344 C1349 1.425 . S
C1344 C1351 1.409 . S
C1345 H1337 0.930 . S
C1345 C1343 1.419 . S
C1345 C1346 1.362 . S
C1346 H1338 0.930 . S
C1346 C1345 1.362 . S
C1346 C1349 1.409 . S
C1347 H1339 0.930 . S
C1347 C1348 1.355 . S
C1347 C1349 1.415 . S
C1348 C1347 1.355 . S
C1348 C1350 1.419 . S
C1349 C1344 1.425 . S
C1349 C1346 1.409 . S
C1349 C1347 1.415 . S
C1350 H1340 0.930 . S
C1350 C1348 1.419 . S
C1350 C1351 1.362 . S
C1351 H1341 0.930 . S
C1351 C1344 1.409 . S
C1351 C1350 1.362 . S
H1352 C1358 0.930 . S
H1353 C1361 0.930 . S
H1354 C1362 0.930 . S
H1355 C1363 0.930 . S
H1356 C1366 0.930 . S
H1357 C1367 0.930 . S
C1358 H1352 0.930 . S
C1358 C1359 1.355 . S
C1358 C1360 1.415 . S
C1359 C1358 1.355 . S
C1359 C1361 1.419 . S
C1360 C1358 1.415 . S
C1360 C1365 1.425 . S
C1360 C1367 1.409 . S
C1361 H1353 0.930 . S
C1361 C1359 1.419 . S
C1361 C1362 1.362 . S
C1362 H1354 0.930 . S
C1362 C1361 1.362 . S
C1362 C1365 1.409 . S
C1363 H1355 0.930 . S
C1363 C1364 1.355 . S
C1363 C1365 1.415 . S
C1364 C1363 1.355 . S
C1364 C1366 1.419 . S
C1365 C1360 1.425 . S
C1365 C1362 1.409 . S
C1365 C1363 1.415 . S
C1366 H1356 0.930 . S
C1366 C1364 1.419 . S
C1366 C1367 1.362 . S
C1367 H1357 0.930 . S
C1367 C1360 1.409 . S
C1367 C1366 1.362 . S
H1368 C1374 0.930 . S
H1369 C1377 0.930 . S
H1370 C1378 0.930 . S
H1371 C1379 0.930 . S
H1372 C1382 0.930 . S
H1373 C1383 0.930 . S
C1374 H1368 0.930 . S
C1374 C1375 1.355 . S
C1374 C1376 1.415 . S
C1375 C1374 1.355 . S
C1375 C1377 1.419 . S
C1376 C1374 1.415 . S
C1376 C1381 1.425 . S
C1376 C1383 1.409 . S
C1377 H1369 0.930 . S
C1377 C1375 1.419 . S
C1377 C1378 1.362 . S
C1378 H1370 0.930 . S
C1378 C1377 1.362 . S
C1378 C1381 1.409 . S
C1379 H1371 0.930 . S
C1379 C1380 1.355 . S
C1379 C1381 1.415 . S
C1380 C1379 1.355 . S
C1380 C1382 1.419 . S
C1381 C1376 1.425 . S
C1381 C1378 1.409 . S
C1381 C1379 1.415 . S
C1382 H1372 0.930 . S
C1382 C1380 1.419 . S
C1382 C1383 1.362 . S
C1383 H1373 0.930 . S
C1383 C1376 1.409 . S
C1383 C1382 1.362 . S
H1384 C1390 0.930 . S
H1385 C1393 0.930 . S
H1386 C1394 0.930 . S
H1387 C1395 0.930 . S
H1388 C1398 0.930 . S
H1389 C1399 0.930 . S
C1390 H1384 0.930 . S
C1390 C1391 1.355 . S
C1390 C1392 1.415 . S
C1391 C1390 1.355 . S
C1391 C1393 1.419 . S
C1392 C1390 1.415 . S
C1392 C1397 1.425 . S
C1392 C1399 1.409 . S
C1393 H1385 0.930 . S
C1393 C1391 1.419 . S
C1393 C1394 1.362 . S
C1394 H1386 0.930 . S
C1394 C1393 1.362 . S
C1394 C1397 1.409 . S
C1395 H1387 0.930 . S
C1395 C1396 1.355 . S
C1395 C1397 1.415 . S
C1396 C1395 1.355 . S
C1396 C1398 1.419 . S
C1397 C1392 1.425 . S
C1397 C1394 1.409 . S
C1397 C1395 1.415 . S
C1398 H1388 0.930 . S
C1398 C1396 1.419 . S
C1398 C1399 1.362 . S
C1399 H1389 0.930 . S
C1399 C1392 1.409 . S
C1399 C1398 1.362 . S
H1400 C1406 0.930 . S
H1401 C1409 0.930 . S
H1402 C1410 0.930 . S
H1403 C1411 0.930 . S
H1404 C1414 0.930 . S
H1405 C1415 0.930 . S
C1406 H1400 0.930 . S
C1406 C1407 1.355 . S
C1406 C1408 1.415 . S
C1407 C1406 1.355 . S
C1407 C1409 1.419 . S
C1408 C1406 1.415 . S
C1408 C1413 1.425 . S
C1408 C1415 1.409 . S
C1409 H1401 0.930 . S
C1409 C1407 1.419 . S
C1409 C1410 1.362 . S
C1410 H1402 0.930 . S
C1410 C1409 1.362 . S
C1410 C1413 1.409 . S
C1411 H1403 0.930 . S
C1411 C1412 1.355 . S
C1411 C1413 1.415 . S
C1412 C1411 1.355 . S
C1412 C1414 1.419 . S
C1413 C1408 1.425 . S
C1413 C1410 1.409 . S
C1413 C1411 1.415 . S
C1414 H1404 0.930 . S
C1414 C1412 1.419 . S
C1414 C1415 1.362 . S
C1415 H1405 0.930 . S
C1415 C1408 1.409 . S
C1415 C1414 1.362 . S
H1416 C1422 0.930 . S
H1417 C1425 0.930 . S
H1418 C1426 0.930 . S
H1419 C1427 0.930 . S
H1420 C1430 0.930 . S
H1421 C1431 0.930 . S
C1422 H1416 0.930 . S
C1422 C1423 1.355 . S
C1422 C1424 1.415 . S
C1423 C1422 1.355 . S
C1423 C1425 1.419 . S
C1424 C1422 1.415 . S
C1424 C1429 1.425 . S
C1424 C1431 1.409 . S
C1425 H1417 0.930 . S
C1425 C1423 1.419 . S
C1425 C1426 1.362 . S
C1426 H1418 0.930 . S
C1426 C1425 1.362 . S
C1426 C1429 1.409 . S
C1427 H1419 0.930 . S
C1427 C1428 1.355 . S
C1427 C1429 1.415 . S
C1428 C1427 1.355 . S
C1428 C1430 1.419 . S
C1429 C1424 1.425 . S
C1429 C1426 1.409 . S
C1429 C1427 1.415 . S
C1430 H1420 0.930 . S
C1430 C1428 1.419 . S
C1430 C1431 1.362 . S
C1431 H1421 0.930 . S
C1431 C1424 1.409 . S
C1431 C1430 1.362 . S
H1432 C1438 0.930 . S
H1433 C1441 0.930 . S
H1434 C1442 0.930 . S
H1435 C1443 0.930 . S
H1436 C1446 0.930 . S
H1437 C1447 0.930 . S
C1438 H1432 0.930 . S
C1438 C1439 1.355 . S
C1438 C1440 1.415 . S
C1439 C1438 1.355 . S
C1439 C1441 1.419 . S
C1440 C1438 1.415 . S
C1440 C1445 1.425 . S
C1440 C1447 1.409 . S
C1441 H1433 0.930 . S
C1441 C1439 1.419 . S
C1441 C1442 1.362 . S
C1442 H1434 0.930 . S
C1442 C1441 1.362 . S
C1442 C1445 1.409 . S
C1443 H1435 0.930 . S
C1443 C1444 1.355 . S
C1443 C1445 1.415 . S
C1444 C1443 1.355 . S
C1444 C1446 1.419 . S
C1445 C1440 1.425 . S
C1445 C1442 1.409 . S
C1445 C1443 1.415 . S
C1446 H1436 0.930 . S
C1446 C1444 1.419 . S
C1446 C1447 1.362 . S
C1447 H1437 0.930 . S
C1447 C1440 1.409 . S
C1447 C1446 1.362 . S
H1448 C1454 0.930 . S
H1449 C1457 0.930 . S
H1450 C1458 0.930 . S
H1451 C1459 0.930 . S
H1452 C1462 0.930 . S
H1453 C1463 0.930 . S
C1454 H1448 0.930 . S
C1454 C1455 1.355 . S
C1454 C1456 1.415 . S
C1455 C1454 1.355 . S
C1455 C1457 1.419 . S
C1456 C1454 1.415 . S
C1456 C1461 1.425 . S
C1456 C1463 1.409 . S
C1457 H1449 0.930 . S
C1457 C1455 1.419 . S
C1457 C1458 1.362 . S
C1458 H1450 0.930 . S
C1458 C1457 1.362 . S
C1458 C1461 1.409 . S
C1459 H1451 0.930 . S
C1459 C1460 1.355 . S
C1459 C1461 1.415 . S
C1460 C1459 1.355 . S
C1460 C1462 1.419 . S
C1461 C1456 1.425 . S
C1461 C1458 1.409 . S
C1461 C1459 1.415 . S
C1462 H1452 0.930 . S
C1462 C1460 1.419 . S
C1462 C1463 1.362 . S
C1463 H1453 0.930 . S
C1463 C1456 1.409 . S
C1463 C1462 1.362 . S
H1464 C1470 0.930 . S
H1465 C1473 0.930 . S
H1466 C1474 0.930 . S
H1467 C1475 0.930 . S
H1468 C1478 0.930 . S
H1469 C1479 0.930 . S
C1470 H1464 0.930 . S
C1470 C1471 1.355 . S
C1470 C1472 1.415 . S
C1471 C1470 1.355 . S
C1471 C1473 1.419 . S
C1472 C1470 1.415 . S
C1472 C1477 1.425 . S
C1472 C1479 1.409 . S
C1473 H1465 0.930 . S
C1473 C1471 1.419 . S
C1473 C1474 1.362 . S
C1474 H1466 0.930 . S
C1474 C1473 1.362 . S
C1474 C1477 1.409 . S
C1475 H1467 0.930 . S
C1475 C1476 1.355 . S
C1475 C1477 1.415 . S
C1476 C1475 1.355 . S
C1476 C1478 1.419 . S
C1477 C1472 1.425 . S
C1477 C1474 1.409 . S
C1477 C1475 1.415 . S
C1478 H1468 0.930 . S
C1478 C1476 1.419 . S
C1478 C1479 1.362 . S
C1479 H1469 0.930 . S
C1479 C1472 1.409 . S
C1479 C1478 1.362 . S
H1480 C1486 0.930 . S
H1481 C1489 0.930 . S
H1482 C1490 0.930 . S
H1483 C1491 0.930 . S
H1484 C1494 0.930 . S
H1485 C1495 0.930 . S
C1486 H1480 0.930 . S
C1486 C1487 1.355 . S
C1486 C1488 1.415 . S
C1487 C1486 1.355 . S
C1487 C1489 1.419 . S
C1488 C1486 1.415 . S
C1488 C1493 1.425 . S
C1488 C1495 1.409 . S
C1489 H1481 0.930 . S
C1489 C1487 1.419 . S
C1489 C1490 1.362 . S
C1490 H1482 0.930 . S
C1490 C1489 1.362 . S
C1490 C1493 1.409 . S
C1491 H1483 0.930 . S
C1491 C1492 1.355 . S
C1491 C1493 1.415 . S
C1492 C1491 1.355 . S
C1492 C1494 1.419 . S
C1493 C1488 1.425 . S
C1493 C1490 1.409 . S
C1493 C1491 1.415 . S
C1494 H1484 0.930 . S
C1494 C1492 1.419 . S
C1494 C1495 1.362 . S
C1495 H1485 0.930 . S
C1495 C1488 1.409 . S
C1495 C1494 1.362 . S
H1496 C1502 0.930 . S
H1497 C1505 0.930 . S
H1498 C1506 0.930 . S
H1499 C1507 0.930 . S
H1500 C1510 0.930 . S
H1501 C1511 0.930 . S
C1502 H1496 0.930 . S
C1502 C1503 1.355 . S
C1502 C1504 1.415 . S
C1503 C1502 1.355 . S
C1503 C1505 1.419 . S
C1504 C1502 1.415 . S
C1504 C1509 1.425 . S
C1504 C1511 1.409 . S
C1505 H1497 0.930 . S
C1505 C1503 1.419 . S
C1505 C1506 1.362 . S
C1506 H1498 0.930 . S
C1506 C1505 1.362 . S
C1506 C1509 1.409 . S
C1507 H1499 0.930 . S
C1507 C1508 1.355 . S
C1507 C1509 1.415 . S
C1508 C1507 1.355 . S
C1508 C1510 1.419 . S
C1509 C1504 1.425 . S
C1509 C1506 1.409 . S
C1509 C1507 1.415 . S
C1510 H1500 0.930 . S
C1510 C1508 1.419 . S
C1510 C1511 1.362 . S
C1511 H1501 0.930 . S
C1511 C1504 1.409 . S
C1511 C1510 1.362 . S
H1512 C1518 0.930 . S
H1513 C1521 0.930 . S
H1514 C1522 0.930 . S
H1515 C1523 0.930 . S
H1516 C1526 0.930 . S
H1517 C1527 0.930 . S
C1518 H1512 0.930 . S
C1518 C1519 1.355 . S
C1518 C1520 1.415 . S
C1519 C1518 1.355 . S
C1519 C1521 1.419 . S
C1520 C1518 1.415 . S
C1520 C1525 1.425 . S
C1520 C1527 1.409 . S
C1521 H1513 0.930 . S
C1521 C1519 1.419 . S
C1521 C1522 1.362 . S
C1522 H1514 0.930 . S
C1522 C1521 1.362 . S
C1522 C1525 1.409 . S
C1523 H1515 0.930 . S
C1523 C1524 1.355 . S
C1523 C1525 1.415 . S
C1524 C1523 1.355 . S
C1524 C1526 1.419 . S
C1525 C1520 1.425 . S
C1525 C1522 1.409 . S
C1525 C1523 1.415 . S
C1526 H1516 0.930 . S
C1526 C1524 1.419 . S
C1526 C1527 1.362 . S
C1527 H1517 0.930 . S
C1527 C1520 1.409 . S
C1527 C1526 1.362 . S
H1528 C1534 0.930 . S
H1529 C1537 0.930 . S
H1530 C1538 0.930 . S
H1531 C1539 0.930 . S
H1532 C1542 0.930 . S
H1533 C1543 0.930 . S
C1534 H1528 0.930 . S
C1534 C1535 1.355 . S
C1534 C1536 1.415 . S
C1535 C1534 1.355 . S
C1535 C1537 1.419 . S
C1536 C1534 1.415 . S
C1536 C1541 1.425 . S
C1536 C1543 1.409 . S
C1537 H1529 0.930 . S
C1537 C1535 1.419 . S
C1537 C1538 1.362 . S
C1538 H1530 0.930 . S
C1538 C1537 1.362 . S
C1538 C1541 1.409 . S
C1539 H1531 0.930 . S
C1539 C1540 1.355 . S
C1539 C1541 1.415 . S
C1540 C1539 1.355 . S
C1540 C1542 1.419 . S
C1541 C1536 1.425 . S
C1541 C1538 1.409 . S
C1541 C1539 1.415 . S
C1542 H1532 0.930 . S
C1542 C1540 1.419 . S
C1542 C1543 1.362 . S
C1543 H1533 0.930 . S
C1543 C1536 1.409 . S
C1543 C1542 1.362 . S
H1544 C1550 0.930 . S
H1545 C1553 0.930 . S
H1546 C1554 0.930 . S
H1547 C1555 0.930 . S
H1548 C1558 0.930 . S
H1549 C1559 0.930 . S
C1550 H1544 0.930 . S
C1550 C1551 1.355 . S
C1550 C1552 1.415 . S
C1551 C1550 1.355 . S
C1551 C1553 1.419 . S
C1552 C1550 1.415 . S
C1552 C1557 1.425 . S
C1552 C1559 1.409 . S
C1553 H1545 0.930 . S
C1553 C1551 1.419 . S
C1553 C1554 1.362 . S
C1554 H1546 0.930 . S
C1554 C1553 1.362 . S
C1554 C1557 1.409 . S
C1555 H1547 0.930 . S
C1555 C1556 1.355 . S
C1555 C1557 1.415 . S
C1556 C1555 1.355 . S
C1556 C1558 1.419 . S
C1557 C1552 1.425 . S
C1557 C1554 1.409 . S
C1557 C1555 1.415 . S
C1558 H1548 0.930 . S
C1558 C1556 1.419 . S
C1558 C1559 1.362 . S
C1559 H1549 0.930 . S
C1559 C1552 1.409 . S
C1559 C1558 1.362 . S
H1560 C1566 0.930 . S
H1561 C1569 0.930 . S
H1562 C1570 0.930 . S
H1563 C1571 0.930 . S
H1564 C1574 0.930 . S
H1565 C1575 0.930 . S
C1566 H1560 0.930 . S
C1566 C1567 1.355 . S
C1566 C1568 1.415 . S
C1567 C1566 1.355 . S
C1567 C1569 1.419 . S
C1568 C1566 1.415 . S
C1568 C1573 1.425 . S
C1568 C1575 1.409 . S
C1569 H1561 0.930 . S
C1569 C1567 1.419 . S
C1569 C1570 1.362 . S
C1570 H1562 0.930 . S
C1570 C1569 1.362 . S
C1570 C1573 1.409 . S
C1571 H1563 0.930 . S
C1571 C1572 1.355 . S
C1571 C1573 1.415 . S
C1572 C1571 1.355 . S
C1572 C1574 1.419 . S
C1573 C1568 1.425 . S
C1573 C1570 1.409 . S
C1573 C1571 1.415 . S
C1574 H1564 0.930 . S
C1574 C1572 1.419 . S
C1574 C1575 1.362 . S
C1575 H1565 0.930 . S
C1575 C1568 1.409 . S
C1575 C1574 1.362 . S
H1576 C1582 0.930 . S
H1577 C1585 0.930 . S
H1578 C1586 0.930 . S
H1579 C1587 0.930 . S
H1580 C1590 0.930 . S
H1581 C1591 0.930 . S
C1582 H1576 0.930 . S
C1582 C1583 1.355 . S
C1582 C1584 1.415 . S
C1583 C1582 1.355 . S
C1583 C1585 1.419 . S
C1584 C1582 1.415 . S
C1584 C1589 1.425 . S
C1584 C1591 1.409 . S
C1585 H1577 0.930 . S
C1585 C1583 1.419 . S
C1585 C1586 1.362 . S
C1586 H1578 0.930 . S
C1586 C1585 1.362 . S
C1586 C1589 1.409 . S
C1587 H1579 0.930 . S
C1587 C1588 1.355 . S
C1587 C1589 1.415 . S
C1588 C1587 1.355 . S
C1588 C1590 1.419 . S
C1589 C1584 1.425 . S
C1589 C1586 1.409 . S
C1589 C1587 1.415 . S
C1590 H1580 0.930 . S
C1590 C1588 1.419 . S
C1590 C1591 1.362 . S
C1591 H1581 0.930 . S
C1591 C1584 1.409 . S
C1591 C1590 1.362 . S
H1592 C1598 0.930 . S
H1593 C1601 0.930 . S
H1594 C1602 0.930 . S
H1595 C1603 0.930 . S
H1596 C1606 0.930 . S
H1597 C1607 0.930 . S
C1598 H1592 0.930 . S
C1598 C1599 1.355 . S
C1598 C1600 1.415 . S
C1599 C1598 1.355 . S
C1599 C1601 1.419 . S
C1600 C1598 1.415 . S
C1600 C1605 1.425 . S
C1600 C1607 1.409 . S
C1601 H1593 0.930 . S
C1601 C1599 1.419 . S
C1601 C1602 1.362 . S
C1602 H1594 0.930 . S
C1602 C1601 1.362 . S
C1602 C1605 1.409 . S
C1603 H1595 0.930 . S
C1603 C1604 1.355 . S
C1603 C1605 1.415 . S
C1604 C1603 1.355 . S
C1604 C1606 1.419 . S
C1605 C1600 1.425 . S
C1605 C1602 1.409 . S
C1605 C1603 1.415 . S
C1606 H1596 0.930 . S
C1606 C1604 1.419 . S
C1606 C1607 1.362 . S
C1607 H1597 0.930 . S
C1607 C1600 1.409 . S
C1607 C1606 1.362 . S
H1608 C1614 0.930 . S
H1609 C1617 0.930 . S
H1610 C1618 0.930 . S
H1611 C1619 0.930 . S
H1612 C1622 0.930 . S
H1613 C1623 0.930 . S
C1614 H1608 0.930 . S
C1614 C1615 1.355 . S
C1614 C1616 1.415 . S
C1615 C1614 1.355 . S
C1615 C1617 1.419 . S
C1616 C1614 1.415 . S
C1616 C1621 1.425 . S
C1616 C1623 1.409 . S
C1617 H1609 0.930 . S
C1617 C1615 1.419 . S
C1617 C1618 1.362 . S
C1618 H1610 0.930 . S
C1618 C1617 1.362 . S
C1618 C1621 1.409 . S
C1619 H1611 0.930 . S
C1619 C1620 1.355 . S
C1619 C1621 1.415 . S
C1620 C1619 1.355 . S
C1620 C1622 1.419 . S
C1621 C1616 1.425 . S
C1621 C1618 1.409 . S
C1621 C1619 1.415 . S
C1622 H1612 0.930 . S
C1622 C1620 1.419 . S
C1622 C1623 1.362 . S
C1623 H1613 0.930 . S
C1623 C1616 1.409 . S
C1623 C1622 1.362 . S
H1624 C1630 0.930 . S
H1625 C1633 0.930 . S
H1626 C1634 0.930 . S
H1627 C1635 0.930 . S
H1628 C1638 0.930 . S
H1629 C1639 0.930 . S
C1630 H1624 0.930 . S
C1630 C1631 1.355 . S
C1630 C1632 1.415 . S
C1631 C1630 1.355 . S
C1631 C1633 1.419 . S
C1632 C1630 1.415 . S
C1632 C1637 1.425 . S
C1632 C1639 1.409 . S
C1633 H1625 0.930 . S
C1633 C1631 1.419 . S
C1633 C1634 1.362 . S
C1634 H1626 0.930 . S
C1634 C1633 1.362 . S
C1634 C1637 1.409 . S
C1635 H1627 0.930 . S
C1635 C1636 1.355 . S
C1635 C1637 1.415 . S
C1636 C1635 1.355 . S
C1636 C1638 1.419 . S
C1637 C1632 1.425 . S
C1637 C1634 1.409 . S
C1637 C1635 1.415 . S
C1638 H1628 0.930 . S
C1638 C1636 1.419 . S
C1638 C1639 1.362 . S
C1639 H1629 0.930 . S
C1639 C1632 1.409 . S
C1639 C1638 1.362 . S
H1640 C1646 0.930 . S
H1641 C1649 0.930 . S
H1642 C1650 0.930 . S
H1643 C1651 0.930 . S
H1644 C1654 0.930 . S
H1645 C1655 0.930 . S
C1646 H1640 0.930 . S
C1646 C1647 1.355 . S
C1646 C1648 1.415 . S
C1647 C1646 1.355 . S
C1647 C1649 1.419 . S
C1648 C1646 1.415 . S
C1648 C1653 1.425 . S
C1648 C1655 1.409 . S
C1649 H1641 0.930 . S
C1649 C1647 1.419 . S
C1649 C1650 1.362 . S
C1650 H1642 0.930 . S
C1650 C1649 1.362 . S
C1650 C1653 1.409 . S
C1651 H1643 0.930 . S
C1651 C1652 1.355 . S
C1651 C1653 1.415 . S
C1652 C1651 1.355 . S
C1652 C1654 1.419 . S
C1653 C1648 1.425 . S
C1653 C1650 1.409 . S
C1653 C1651 1.415 . S
C1654 H1644 0.930 . S
C1654 C1652 1.419 . S
C1654 C1655 1.362 . S
C1655 H1645 0.930 . S
C1655 C1648 1.409 . S
C1655 C1654 1.362 . S
C511 C35 1.308 . S
C516 C256 1.182 . S
C527 C7 1.345 . S
C532 C272 1.084 . S
C548 C255 1.180 1_655 S
C543 C23 1.332 . S
C564 C280 1.153 . S
C559 C37 1.261 . S
C575 C9 1.313 . S
C580 C289 1.084 . S
C596 C292 1.075 . S
C591 C21 1.343 . S
C607 C77 1.347 . S
C612 C298 1.064 . S
C628 C314 1.073 . S
C623 C49 1.347 . S
C644 C297 1.118 . S
C639 C65 1.271 . S
C655 C79 1.314 . S
C660 C322 1.067 . S
C676 C331 1.194 . S
C671 C51 1.287 . S
C692 C334 1.152 . S
C687 C63 1.322 . S
C708 C343 1.073 . S
C703 C119 1.343 . S
C724 C355 1.075 . S
C719 C91 1.344 . S
C740 C352 1.078 . S
C735 C107 1.287 . S
C751 C121 1.268 . S
C756 C361 1.075 . S
C772 C360 1.086 . S
C767 C93 1.326 . S
C783 C105 1.343 . S
C788 C377 1.066 . S
C804 C382 1.093 . S
C799 C161 1.336 . S
C820 C398 1.220 . S
C815 C133 1.303 . S
C831 C149 1.334 . S
C836 C381 1.162 . S
C852 C406 1.187 . S
C847 C163 1.270 . S
C868 C415 1.222 . S
C863 C135 1.298 . S
C879 C147 1.299 . S
C884 C418 1.217 . S
C895 C203 1.306 . S
C900 C427 1.188 . S
C916 C439 1.212 . S
C911 C175 1.306 . S
C932 C436 1.175 . S
C927 C191 1.333 . S
C943 C205 1.290 . S
C948 C445 1.046 . S
C964 C444 1.197 . S
C959 C177 1.288 . S
C975 C189 1.321 . S
C980 C461 1.155 . S
C996 C466 1.097 . S
C991 C245 1.340 . S
C1012 C482 1.223 . S
C1007 C217 1.300 . S
C1023 C233 1.281 . S
C1028 C465 1.086 . S
C1044 C487 1.092 . S
C1039 C247 1.263 . S
C1060 C486 1.206 . S
C1055 C219 1.291 . S
C1076 C503 1.090 . S
C1071 C231 1.339 . S
C1092 C268 1.466 . S
C1087 C162 1.579 . S
C1103 C134 1.585 . S
C1108 C271 1.440 . S
C1124 C259 1.488 . S
C1119 C143 1.568 . S
C1135 C241 1.607 . S
C1140 C276 1.541 . S
C1151 C213 1.595 . S
C1156 C277 1.475 . S
C1172 C293 1.533 1_565 S
C1167 C232 1.604 . S
C1188 C310 1.452 1_565 S
C1183 C204 1.595 . S
C1204 C313 1.522 . S
C1199 C176 1.586 . S
C1215 C185 1.550 . S
C1220 C301 1.395 . S
C1236 C318 1.485 . S
C1231 C115 1.599 . S
C1247 C87 1.604 . S
C1252 C319 1.528 . S
C1263 C106 1.592 . S
C1268 C335 1.524 . S
C1279 C246 1.605 . S
C1284 C339 1.484 . S
C1295 C218 1.579 . S
C1300 C356 1.458 . S
C1316 C340 1.438 . S
C1311 C227 1.561 . S
C1332 C373 1.452 . S
C1327 C73 1.590 . S
C1348 C364 1.527 . S
C1343 C45 1.604 . S
C1359 C64 1.612 . S
C1364 C376 1.478 . S
C1380 C394 1.532 . S
C1375 C36 1.587 . S
C1396 C397 1.448 . S
C1391 C8 1.581 . S
C1407 C17 1.560 . S
C1412 C385 1.454 . S
C1428 C402 1.486 . S
C1423 C199 1.593 . S
C1444 C403 1.432 . S
C1439 C171 1.585 . S
C1460 C419 1.475 . S
C1455 C190 1.611 . S
C1476 C423 1.448 . S
C1471 C78 1.586 . S
C1492 C440 1.529 . S
C1487 C50 1.590 . S
C1503 C59 1.552 . S
C1508 C424 1.410 . S
C1519 C157 1.602 . S
C1524 C457 1.526 . S
C1535 C129 1.588 . S
C1540 C448 1.443 . S
C1556 C460 1.501 . S
C1551 C148 1.590 . S
C1567 C120 1.585 . S
C1572 C478 1.527 . S
C1583 C92 1.597 . S
C1588 C481 1.533 . S
C1604 C469 1.483 . S
C1599 C101 1.570 . S
C1620 C499 1.463 . S
C1615 C31 1.590 . S
C1636 C490 1.434 . S
C1631 C3 1.584 . S
C1647 C22 1.598 . S
C1652 C502 1.544 . S
