# Generated by pormake.
# Topology ocu, (6,8)-cn, num edge types: 1
# Building blocks:
#     Node 0, Type 0, BuildingBlock: PAMTOO_clean_sbu_0, # of connection points: 6
#     Node 1, Type 0, BuildingBlock: PAMTOO_clean_sbu_0, # of connection points: 6
#     Node 2, Type 0, BuildingBlock: PAMTOO_clean_sbu_0, # of connection points: 6
#     Node 3, Type 0, BuildingBlock: PAMTOO_clean_sbu_0, # of connection points: 6
#     Node 4, Type 0, BuildingBlock: PAMTOO_clean_sbu_0, # of connection points: 6
#     Node 5, Type 0, BuildingBlock: PAMTOO_clean_sbu_0, # of connection points: 6
#     Node 6, Type 0, BuildingBlock: PAMTOO_clean_sbu_0, # of connection points: 6
#     Node 7, Type 0, BuildingBlock: PAMTOO_clean_sbu_0, # of connection points: 6
#     Node 8, Type 1, BuildingBlock: TAGTUT_clean_sbu_1, # of connection points: 8
#     Node 9, Type 1, BuildingBlock: TAGTUT_clean_sbu_1, # of connection points: 8
#     Node 10, Type 1, BuildingBlock: TAGTUT_clean_sbu_1, # of connection points: 8
#     Node 11, Type 1, BuildingBlock: TAGTUT_clean_sbu_1, # of connection points: 8
#     Node 12, Type 1, BuildingBlock: TAGTUT_clean_sbu_1, # of connection points: 8
#     Node 13, Type 1, BuildingBlock: TAGTUT_clean_sbu_1, # of connection points: 8
#     Edge 14, Type (0, 1), BuildingBlock: UVAHIK_clean_linker_0, # of connection points: 2
#     Edge 15, Type (0, 1), BuildingBlock: UVAHIK_clean_linker_0, # of connection points: 2
#     Edge 16, Type (0, 1), BuildingBlock: UVAHIK_clean_linker_0, # of connection points: 2
#     Edge 17, Type (0, 1), BuildingBlock: UVAHIK_clean_linker_0, # of connection points: 2
#     Edge 18, Type (0, 1), BuildingBlock: UVAHIK_clean_linker_0, # of connection points: 2
#     Edge 19, Type (0, 1), BuildingBlock: UVAHIK_clean_linker_0, # of connection points: 2
#     Edge 20, Type (0, 1), BuildingBlock: UVAHIK_clean_linker_0, # of connection points: 2
#     Edge 21, Type (0, 1), BuildingBlock: UVAHIK_clean_linker_0, # of connection points: 2
#     Edge 22, Type (0, 1), BuildingBlock: UVAHIK_clean_linker_0, # of connection points: 2
#     Edge 23, Type (0, 1), BuildingBlock: UVAHIK_clean_linker_0, # of connection points: 2
#     Edge 24, Type (0, 1), BuildingBlock: UVAHIK_clean_linker_0, # of connection points: 2
#     Edge 25, Type (0, 1), BuildingBlock: UVAHIK_clean_linker_0, # of connection points: 2
#     Edge 26, Type (0, 1), BuildingBlock: UVAHIK_clean_linker_0, # of connection points: 2
#     Edge 27, Type (0, 1), BuildingBlock: UVAHIK_clean_linker_0, # of connection points: 2
#     Edge 28, Type (0, 1), BuildingBlock: UVAHIK_clean_linker_0, # of connection points: 2
#     Edge 29, Type (0, 1), BuildingBlock: UVAHIK_clean_linker_0, # of connection points: 2
#     Edge 30, Type (0, 1), BuildingBlock: UVAHIK_clean_linker_0, # of connection points: 2
#     Edge 31, Type (0, 1), BuildingBlock: UVAHIK_clean_linker_0, # of connection points: 2
#     Edge 32, Type (0, 1), BuildingBlock: UVAHIK_clean_linker_0, # of connection points: 2
#     Edge 33, Type (0, 1), BuildingBlock: UVAHIK_clean_linker_0, # of connection points: 2
#     Edge 34, Type (0, 1), BuildingBlock: UVAHIK_clean_linker_0, # of connection points: 2
#     Edge 35, Type (0, 1), BuildingBlock: UVAHIK_clean_linker_0, # of connection points: 2
#     Edge 36, Type (0, 1), BuildingBlock: UVAHIK_clean_linker_0, # of connection points: 2
#     Edge 37, Type (0, 1), BuildingBlock: UVAHIK_clean_linker_0, # of connection points: 2
#     Edge 38, Type (0, 1), BuildingBlock: UVAHIK_clean_linker_0, # of connection points: 2
#     Edge 39, Type (0, 1), BuildingBlock: UVAHIK_clean_linker_0, # of connection points: 2
#     Edge 40, Type (0, 1), BuildingBlock: UVAHIK_clean_linker_0, # of connection points: 2
#     Edge 41, Type (0, 1), BuildingBlock: UVAHIK_clean_linker_0, # of connection points: 2
#     Edge 42, Type (0, 1), BuildingBlock: UVAHIK_clean_linker_0, # of connection points: 2
#     Edge 43, Type (0, 1), BuildingBlock: UVAHIK_clean_linker_0, # of connection points: 2
#     Edge 44, Type (0, 1), BuildingBlock: UVAHIK_clean_linker_0, # of connection points: 2
#     Edge 45, Type (0, 1), BuildingBlock: UVAHIK_clean_linker_0, # of connection points: 2
#     Edge 46, Type (0, 1), BuildingBlock: UVAHIK_clean_linker_0, # of connection points: 2
#     Edge 47, Type (0, 1), BuildingBlock: UVAHIK_clean_linker_0, # of connection points: 2
#     Edge 48, Type (0, 1), BuildingBlock: UVAHIK_clean_linker_0, # of connection points: 2
#     Edge 49, Type (0, 1), BuildingBlock: UVAHIK_clean_linker_0, # of connection points: 2
#     Edge 50, Type (0, 1), BuildingBlock: UVAHIK_clean_linker_0, # of connection points: 2
#     Edge 51, Type (0, 1), BuildingBlock: UVAHIK_clean_linker_0, # of connection points: 2
#     Edge 52, Type (0, 1), BuildingBlock: UVAHIK_clean_linker_0, # of connection points: 2
#     Edge 53, Type (0, 1), BuildingBlock: UVAHIK_clean_linker_0, # of connection points: 2
#     Edge 54, Type (0, 1), BuildingBlock: UVAHIK_clean_linker_0, # of connection points: 2
#     Edge 55, Type (0, 1), BuildingBlock: UVAHIK_clean_linker_0, # of connection points: 2
#     Edge 56, Type (0, 1), BuildingBlock: UVAHIK_clean_linker_0, # of connection points: 2
#     Edge 57, Type (0, 1), BuildingBlock: UVAHIK_clean_linker_0, # of connection points: 2
#     Edge 58, Type (0, 1), BuildingBlock: UVAHIK_clean_linker_0, # of connection points: 2
#     Edge 59, Type (0, 1), BuildingBlock: UVAHIK_clean_linker_0, # of connection points: 2
#     Edge 60, Type (0, 1), BuildingBlock: UVAHIK_clean_linker_0, # of connection points: 2
#     Edge 61, Type (0, 1), BuildingBlock: UVAHIK_clean_linker_0, # of connection points: 2
# Relax obj value: 0.173
# Max RMSD: 0.290
# Mean RMSD: 0.154
data_MOF--net-ocu--node1-PAMTOO_clean_sbu_0--node2-TAGTUT_clean_sbu_1--edge1-UVAHIK_clean_linker_0
_symmetry_space_group_name_H-M    P1
_symmetry_Int_Tables_number       1
_symmetry_cell_setting            triclinic
loop_
_symmetry_equiv_pos_as_xyz
'x, y, z'
_cell_length_a     46.903044
_cell_length_b     49.152835
_cell_length_c     50.883919
_cell_angle_alpha  92.215258
_cell_angle_beta   93.976068
_cell_angle_gamma 103.77038
loop_
_atom_site_label
_atom_site_type_symbol
_atom_site_fract_x
_atom_site_fract_y
_atom_site_fract_z
_atom_type_partial_charge
Dy0 Dy 0.32981 0.29385 0.30201 0.0
Dy1 Dy 0.27116 0.28333 0.26056 0.0
C2 C 0.32385 0.2544 0.24825 0.0
O3 O 0.34559 0.31857 0.26773 0.0
O4 O 0.30228 0.31918 0.24359 0.0
O5 O 0.37085 0.31956 0.32042 0.0
O6 O 0.35434 0.27691 0.33176 0.0
O7 O 0.26115 0.30846 0.29544 0.0
O8 O 0.30708 0.32643 0.31651 0.0
O9 O 0.26425 0.2476 0.28728 0.0
O10 O 0.29208 0.27083 0.32327 0.0
O11 O 0.23423 0.2971 0.24305 0.0
O12 O 0.23769 0.25431 0.23525 0.0
C13 C 0.33114 0.32748 0.24813 0.0
O14 O 0.33254 0.25792 0.27367 0.0
O15 O 0.30334 0.26612 0.23829 0.0
C16 C 0.40542 0.29375 0.33339 0.0
C17 C 0.45698 0.27382 0.33552 0.0
C18 C 0.43945 0.27196 0.31159 0.0
C19 C 0.41375 0.28176 0.31056 0.0
C20 C 0.42385 0.29753 0.35669 0.0
C21 C 0.4494 0.28768 0.35779 0.0
C22 C 0.37615 0.2992 0.33418 0.0
C23 C 0.27875 0.3256 0.31349 0.0
C24 C 0.27046 0.25045 0.31287 0.0
C25 C 0.21074 0.27392 0.20328 0.0
C26 C 0.18666 0.28167 0.15273 0.0
C27 C 0.21719 0.28433 0.15758 0.0
C28 C 0.22918 0.2806 0.18276 0.0
C29 C 0.18028 0.26986 0.19825 0.0
C30 C 0.16831 0.27372 0.17324 0.0
C31 C 0.22259 0.27294 0.23049 0.0
H32 H 0.4448 0.26172 0.29401 0.0
H33 H 0.39965 0.27874 0.29237 0.0
H34 H 0.41761 0.30665 0.37449 0.0
H35 H 0.46193 0.28913 0.37669 0.0
H36 H 0.2319 0.29012 0.14215 0.0
H37 H 0.25281 0.28374 0.18641 0.0
H38 H 0.1658 0.26476 0.21399 0.0
H39 H 0.14483 0.27197 0.17045 0.0
Dy40 Dy 0.84425 0.29951 0.26667 0.0
Dy41 Dy 0.78854 0.28378 0.30185 0.0
C42 C 0.8417 0.33691 0.31885 0.0
O43 O 0.84895 0.26205 0.28978 0.0
O44 O 0.82534 0.27059 0.32552 0.0
O45 O 0.87311 0.32575 0.24135 0.0
O46 O 0.88346 0.28805 0.25554 0.0
O47 O 0.78213 0.2478 0.27177 0.0
O48 O 0.81056 0.26947 0.24014 0.0
O49 O 0.77086 0.30198 0.26597 0.0
O50 O 0.81415 0.32685 0.25158 0.0
O51 O 0.75439 0.29713 0.3213 0.0
O52 O 0.75861 0.25433 0.3236 0.0
C53 C 0.84449 0.25871 0.31484 0.0
O54 O 0.85856 0.32645 0.30387 0.0
O55 O 0.81318 0.32652 0.31742 0.0
C56 C 0.89957 0.30136 0.21398 0.0
C57 C 0.92401 0.29231 0.16619 0.0
C58 C 0.90473 0.31027 0.16777 0.0
C59 C 0.89266 0.31475 0.1914 0.0
C60 C 0.91764 0.28238 0.21212 0.0
C61 C 0.92964 0.27781 0.18845 0.0
C62 C 0.89037 0.30858 0.24 0.0
C63 C 0.79005 0.24872 0.24747 0.0
C64 C 0.78508 0.32148 0.25136 0.0
C65 C 0.71095 0.26181 0.32071 0.0
C66 C 0.65105 0.23655 0.30697 0.0
C67 C 0.66179 0.24333 0.33361 0.0
C68 C 0.69144 0.25583 0.34036 0.0
C69 C 0.70029 0.25685 0.29405 0.0
C70 C 0.67051 0.24436 0.28721 0.0
C71 C 0.7425 0.272 0.32822 0.0
H72 H 0.90032 0.32226 0.15121 0.0
H73 H 0.87891 0.32957 0.19219 0.0
H74 H 0.92339 0.27181 0.22927 0.0
H75 H 0.94421 0.26373 0.18787 0.0
H76 H 0.64783 0.2372 0.34951 0.0
H77 H 0.69937 0.25969 0.36101 0.0
H78 H 0.7152 0.26168 0.27861 0.0
H79 H 0.66302 0.23965 0.26656 0.0
Dy80 Dy 0.81477 0.78101 0.28964 0.0
Dy81 Dy 0.81336 0.81058 0.23276 0.0
C82 C 0.86774 0.82551 0.27431 0.0
O83 O 0.80519 0.82261 0.2979 0.0
O84 O 0.78437 0.82908 0.25724 0.0
O85 O 0.83138 0.78653 0.33054 0.0
O86 O 0.80764 0.74542 0.31401 0.0
O87 O 0.77099 0.77829 0.2336 0.0
O88 O 0.76698 0.77094 0.27789 0.0
O89 O 0.83883 0.77792 0.22779 0.0
O90 O 0.81615 0.7488 0.25813 0.0
O91 O 0.80542 0.8067 0.19027 0.0
O92 O 0.82029 0.84776 0.21046 0.0
C93 C 0.78928 0.83531 0.28271 0.0
O94 O 0.85973 0.79867 0.27764 0.0
O95 O 0.85077 0.83657 0.25879 0.0
C96 C 0.85059 0.7487 0.34121 0.0
C97 C 0.9029 0.73309 0.35611 0.0
C98 C 0.89691 0.73949 0.32998 0.0
C99 C 0.8709 0.7471 0.32258 0.0
C100 C 0.85607 0.74194 0.36718 0.0
C101 C 0.88202 0.73398 0.37457 0.0
C102 C 0.82509 0.75958 0.33351 0.0
C103 C 0.75573 0.76824 0.25335 0.0
C104 C 0.83107 0.75292 0.23718 0.0
C105 C 0.77898 0.84083 0.18018 0.0
C106 C 0.72426 0.85483 0.18085 0.0
C107 C 0.72544 0.82675 0.17681 0.0
C108 C 0.75254 0.8198 0.17647 0.0
C109 C 0.77763 0.86907 0.18177 0.0
C110 C 0.7505 0.876 0.18225 0.0
C111 C 0.80661 0.83345 0.18922 0.0
H112 H 0.9126 0.7393 0.31537 0.0
H113 H 0.86694 0.75242 0.30241 0.0
H114 H 0.84056 0.74317 0.38174 0.0
H115 H 0.88573 0.72859 0.39475 0.0
H116 H 0.70554 0.81003 0.17549 0.0
H117 H 0.75267 0.79778 0.17527 0.0
H118 H 0.79762 0.88567 0.18469 0.0
H119 H 0.75009 0.8979 0.18464 0.0
Dy120 Dy 0.27149 0.80341 0.27838 0.0
Dy121 Dy 0.32658 0.77815 0.30034 0.0
C122 C 0.31369 0.83198 0.32747 0.0
O123 O 0.30488 0.81414 0.24844 0.0
O124 O 0.34657 0.8118 0.2735 0.0
O125 O 0.24999 0.82271 0.24779 0.0
O126 O 0.2316 0.81608 0.28542 0.0
O127 O 0.30888 0.75332 0.26229 0.0
O128 O 0.2621 0.76079 0.2588 0.0
O129 O 0.28906 0.753 0.32031 0.0
O130 O 0.253 0.77668 0.3114 0.0
O131 O 0.34481 0.74393 0.31242 0.0
O132 O 0.37183 0.7865 0.31661 0.0
C133 C 0.33375 0.8199 0.25239 0.0
O134 O 0.30222 0.83682 0.30449 0.0
O135 O 0.31796 0.80716 0.33185 0.0
C136 C 0.23208 0.85889 0.26757 0.0
C137 C 0.23598 0.91214 0.29191 0.0
C138 C 0.20843 0.89294 0.28642 0.0
C139 C 0.20654 0.86651 0.27436 0.0
C140 C 0.25917 0.87895 0.2705 0.0
C141 C 0.26106 0.90545 0.28241 0.0
C142 C 0.23155 0.82905 0.2636 0.0
C143 C 0.28146 0.74703 0.25184 0.0
C144 C 0.26298 0.75733 0.32381 0.0
C145 C 0.39414 0.75 0.30513 0.0
C146 C 0.4264 0.7212 0.27479 0.0
C147 C 0.4181 0.74492 0.26528 0.0
C148 C 0.40195 0.75913 0.2803 0.0
C149 C 0.40441 0.72784 0.31562 0.0
C150 C 0.42049 0.71348 0.30052 0.0
C151 C 0.3712 0.75989 0.31785 0.0
H152 H 0.18865 0.89716 0.29366 0.0
H153 H 0.18553 0.8512 0.27251 0.0
H154 H 0.27926 0.87342 0.26557 0.0
H155 H 0.28251 0.9199 0.28595 0.0
H156 H 0.42192 0.75114 0.24539 0.0
H157 H 0.39384 0.77598 0.27174 0.0
H158 H 0.39834 0.72047 0.33473 0.0
H159 H 0.42681 0.69539 0.30834 0.0
Dy160 Dy 0.31839 0.76909 0.75203 0.0
Dy161 Dy 0.28803 0.78745 0.80364 0.0
C162 C 0.34203 0.827 0.78116 0.0
O163 O 0.33743 0.74706 0.78433 0.0
O164 O 0.32334 0.76693 0.82148 0.0
O165 O 0.33473 0.7387 0.72919 0.0
O166 O 0.33509 0.77951 0.71447 0.0
O167 O 0.26655 0.74213 0.79691 0.0
O168 O 0.27525 0.73814 0.75311 0.0
O169 O 0.25869 0.79632 0.76947 0.0
O170 O 0.28933 0.79671 0.73616 0.0
O171 O 0.25143 0.79212 0.82506 0.0
O172 O 0.29611 0.81325 0.84011 0.0
C173 C 0.33817 0.75041 0.81021 0.0
O174 O 0.35094 0.80487 0.7738 0.0
O175 O 0.31443 0.82435 0.78521 0.0
C176 C 0.37347 0.75926 0.70355 0.0
C177 C 0.42889 0.77167 0.68279 0.0
C178 C 0.42416 0.78636 0.70575 0.0
C179 C 0.39668 0.78015 0.71608 0.0
C180 C 0.37866 0.74312 0.68193 0.0
C181 C 0.40621 0.74916 0.6717 0.0
C182 C 0.34328 0.75616 0.71107 0.0
C183 C 0.26195 0.72823 0.77389 0.0
C184 C 0.26574 0.80263 0.7454 0.0
C185 C 0.25983 0.80323 0.87084 0.0
C186 C 0.23674 0.79416 0.92019 0.0
C187 C 0.2408 0.77152 0.90424 0.0
C188 C 0.25227 0.77603 0.87973 0.0
C189 C 0.25697 0.82595 0.88707 0.0
C190 C 0.24552 0.82149 0.91157 0.0
C191 C 0.26813 0.80826 0.84393 0.0
H192 H 0.44095 0.80398 0.71469 0.0
H193 H 0.39308 0.79271 0.73293 0.0
H194 H 0.361 0.72674 0.67219 0.0
H195 H 0.4093 0.73711 0.65431 0.0
H196 H 0.2339 0.75017 0.91014 0.0
H197 H 0.25426 0.75824 0.86735 0.0
H198 H 0.26274 0.8471 0.88042 0.0
H199 H 0.24299 0.83935 0.92353 0.0
Dy200 Dy 0.31873 0.29751 0.77826 0.0
Dy201 Dy 0.26151 0.26429 0.80745 0.0
C202 C 0.28177 0.23653 0.75645 0.0
O203 O 0.27934 0.3032 0.7541 0.0
O204 O 0.24881 0.30019 0.78735 0.0
O205 O 0.33995 0.31075 0.74305 0.0
O206 O 0.36246 0.3249 0.78153 0.0
O207 O 0.28792 0.29788 0.83549 0.0
O208 O 0.30709 0.32907 0.8057 0.0
O209 O 0.29546 0.24007 0.81685 0.0
O210 O 0.33676 0.27419 0.80988 0.0
O211 O 0.24258 0.2425 0.84057 0.0
O212 O 0.21416 0.25208 0.80885 0.0
C213 C 0.2556 0.30781 0.76366 0.0
O214 O 0.30805 0.2537 0.76032 0.0
O215 O 0.25952 0.23969 0.76961 0.0
C216 C 0.38994 0.31164 0.74821 0.0
C217 C 0.4259 0.27899 0.72797 0.0
C218 C 0.41997 0.27811 0.75463 0.0
C219 C 0.40202 0.29422 0.76465 0.0
C220 C 0.398 0.31444 0.72226 0.0
C221 C 0.41586 0.29819 0.71217 0.0
C222 C 0.36502 0.3224 0.75621 0.0
C223 C 0.29937 0.32359 0.82955 0.0
C224 C 0.32418 0.25026 0.81961 0.0
C225 C 0.20548 0.26488 0.85207 0.0
C226 C 0.19645 0.31415 0.87641 0.0
C227 C 0.21921 0.30253 0.88638 0.0
C228 C 0.22353 0.27797 0.87452 0.0
C229 C 0.18074 0.27489 0.84398 0.0
C230 C 0.17623 0.29939 0.85612 0.0
C231 C 0.21665 0.24653 0.83367 0.0
H232 H 0.42721 0.26335 0.76721 0.0
H233 H 0.396 0.29153 0.78471 0.0
H234 H 0.38882 0.32769 0.70927 0.0
H235 H 0.42044 0.29946 0.69162 0.0
H236 H 0.23473 0.3134 0.90234 0.0
H237 H 0.24264 0.27077 0.88156 0.0
H238 H 0.16643 0.26526 0.8268 0.0
H239 H 0.15838 0.30799 0.84827 0.0
Dy240 Dy 0.76746 0.30935 0.76757 0.0
Dy241 Dy 0.81349 0.28117 0.801 0.0
C242 C 0.80016 0.33731 0.82111 0.0
O243 O 0.80858 0.32032 0.74637 0.0
O244 O 0.84246 0.31379 0.77873 0.0
O245 O 0.75351 0.32813 0.73261 0.0
O246 O 0.7285 0.32547 0.76689 0.0
O247 O 0.80809 0.26142 0.75979 0.0
O248 O 0.76161 0.26675 0.74841 0.0
O249 O 0.76938 0.25367 0.80578 0.0
O250 O 0.74175 0.28565 0.79888 0.0
O251 O 0.82515 0.24486 0.8168 0.0
O252 O 0.85351 0.28613 0.82651 0.0
C253 C 0.83598 0.32356 0.75599 0.0
O254 O 0.79538 0.34179 0.79623 0.0
O255 O 0.79998 0.31191 0.82818 0.0
C256 C 0.73823 0.36813 0.74729 0.0
C257 C 0.74659 0.42152 0.7727 0.0
C258 C 0.7181 0.40597 0.76361 0.0
C259 C 0.71396 0.37937 0.75106 0.0
C260 C 0.76682 0.38513 0.7532 0.0
C261 C 0.77096 0.41169 0.76573 0.0
C262 C 0.73397 0.33754 0.74483 0.0
C263 C 0.78332 0.25474 0.7445 0.0
C264 C 0.74494 0.26173 0.80781 0.0
C265 C 0.87528 0.24925 0.8145 0.0
C266 C 0.90127 0.22377 0.77572 0.0
C267 C 0.90505 0.25297 0.77715 0.0
C268 C 0.89215 0.26568 0.79644 0.0
C269 C 0.8753 0.22074 0.81544 0.0
C270 C 0.88825 0.208 0.79605 0.0
C271 C 0.85134 0.25912 0.82584 0.0
H272 H 0.69881 0.41284 0.76879 0.0
H273 H 0.69177 0.3665 0.7469 0.0
H274 H 0.78595 0.37684 0.75064 0.0
H275 H 0.79315 0.42334 0.77221 0.0
H276 H 0.91545 0.26555 0.76183 0.0
H277 H 0.89268 0.28775 0.79526 0.0
H278 H 0.86238 0.20771 0.82918 0.0
H279 H 0.88521 0.18542 0.79532 0.0
Dy280 Dy 0.84608 0.80294 0.81611 0.0
Dy281 Dy 0.79004 0.78182 0.77285 0.0
C282 C 0.84919 0.76134 0.76561 0.0
O283 O 0.8588 0.82796 0.78114 0.0
O284 O 0.81593 0.81923 0.75397 0.0
O285 O 0.88081 0.79229 0.84008 0.0
O286 O 0.87919 0.83603 0.83799 0.0
O287 O 0.77283 0.80819 0.80285 0.0
O288 O 0.81453 0.82812 0.83001 0.0
O289 O 0.78693 0.74952 0.80292 0.0
O290 O 0.81159 0.7764 0.8386 0.0
O291 O 0.75034 0.78545 0.75091 0.0
O292 O 0.76385 0.74623 0.74884 0.0
C293 C 0.84365 0.8325 0.75975 0.0
O294 O 0.85513 0.76659 0.79132 0.0
O295 O 0.82774 0.77025 0.75348 0.0
C296 C 0.90327 0.82299 0.87657 0.0
C297 C 0.9338 0.82436 0.92639 0.0
C298 C 0.90689 0.80451 0.91981 0.0
C299 C 0.89172 0.80388 0.89513 0.0
C300 C 0.92845 0.84447 0.88394 0.0
C301 C 0.94354 0.84527 0.90872 0.0
C302 C 0.89259 0.81822 0.84855 0.0
C303 C 0.78627 0.82545 0.82294 0.0
C304 C 0.79167 0.75439 0.82852 0.0
C305 C 0.7409 0.75915 0.71058 0.0
C306 C 0.72669 0.76269 0.65652 0.0
C307 C 0.75277 0.77994 0.66922 0.0
C308 C 0.75987 0.77805 0.69599 0.0
C309 C 0.71629 0.74027 0.69776 0.0
C310 C 0.70933 0.74185 0.6708 0.0
C311 C 0.74573 0.76044 0.73932 0.0
H312 H 0.89873 0.78792 0.93275 0.0
H313 H 0.87217 0.78721 0.88992 0.0
H314 H 0.93758 0.85952 0.86988 0.0
H315 H 0.96383 0.86117 0.91336 0.0
H316 H 0.76662 0.79648 0.65916 0.0
H317 H 0.77925 0.7925 0.70562 0.0
H318 H 0.70175 0.72519 0.7088 0.0
H319 H 0.68947 0.72785 0.66154 0.0
C320 C 0.98551 0.09705 0.55224 0.0
C321 C 1.00974 0.09498 0.47567 0.0
C322 C 1.00554 0.98081 0.5017 0.0
Mg323 Mg 0.04572 0.09789 0.53077 0.0
O324 O 1.03231 0.05944 0.53445 0.0
Mg325 Mg 0.99288 0.04021 0.51709 0.0
Mg326 Mg 0.05697 0.03156 0.52925 0.0
O327 O 0.08282 1.00376 0.525 0.0
Mg328 Mg 0.06287 0.96376 0.5295 0.0
Mg329 Mg 0.1252 0.02712 0.54274 0.0
C330 C 0.10448 0.08288 0.55944 0.0
C331 C 0.10943 0.06394 0.49316 0.0
O332 O 0.97424 0.07345 0.53938 0.0
O333 O 1.01297 0.10922 0.553 0.0
O334 O 0.99579 0.0701 0.48087 0.0
O335 O 1.03191 0.10859 0.49094 0.0
O336 O 0.09019 0.1006 0.55062 0.0
O337 O 0.09433 0.05607 0.55627 0.0
C338 C 1.00551 1.00363 0.56769 0.0
O339 O 1.03275 1.00695 0.56327 0.0
O340 O 0.98806 1.01398 0.55297 0.0
O341 O 0.10096 0.99232 0.51235 0.0
O342 O 0.08728 0.94829 0.49972 0.0
O343 O 0.12148 0.99314 0.57585 0.0
C344 C 0.10681 0.97124 0.49983 0.0
O345 O 0.0831 0.95538 0.56826 0.0
O346 O 1.018 0.96313 0.51304 0.0
C347 C 0.10678 0.96877 0.58202 0.0
O348 O 1.01806 1.00706 0.50145 0.0
O349 O 0.08157 0.05674 0.49574 0.0
O350 O 0.12807 0.05629 0.50899 0.0
C351 C 0.47167 0.10413 0.0681 0.0
C352 C 0.49433 0.10589 0.98665 0.0
C353 C 0.48424 0.9963 0.98445 0.0
Mg354 Mg 0.52948 0.10387 0.04013 0.0
O355 O 0.515 0.06472 0.04007 0.0
Mg356 Mg 0.47366 0.0496 0.02374 0.0
Mg357 Mg 0.53638 0.03833 0.02255 0.0
O358 O 0.55791 1.01267 1.00382 0.0
Mg359 Mg 0.5427 0.97364 0.99925 0.0
Mg360 Mg 0.59786 0.02632 0.02307 0.0
C361 C 0.58947 0.08327 0.05567 0.0
C362 C 0.58509 0.07462 0.98509 0.0
O363 O 0.45866 0.08131 0.0543 0.0
O364 O 0.49906 0.11571 0.06643 0.0
O365 O 0.47751 0.08269 0.99231 0.0
O366 O 0.5175 0.11766 1.00146 0.0
O367 O 0.57518 0.10264 0.05342 0.0
O368 O 0.57785 0.05728 0.04858 0.0
C369 C 0.48943 1.00288 0.06308 0.0
O370 O 0.51498 1.00588 0.05396 0.0
O371 O 0.47141 0.01708 0.05464 0.0
O372 O 0.61582 0.9942 0.99416 0.0
O373 O 0.57679 0.96091 0.97706 0.0
O374 O 0.58577 0.99307 0.05385 0.0
C375 C 0.6047 0.9719 0.97892 0.0
O376 O 0.54558 0.96015 0.03854 0.0
O377 O 0.49893 0.97722 0.98319 0.0
C378 C 0.56529 0.97124 0.0569 0.0
O379 O 0.49469 0.02038 0.99662 0.0
O380 O 0.55854 0.07031 0.99226 0.0
O381 O 0.60321 0.0604 0.99363 0.0
C382 C 0.95542 0.56111 0.10485 0.0
C383 C 1.00591 0.61481 0.05288 0.0
C384 C 0.99384 0.52703 0.98344 0.0
Mg385 Mg 1.02005 0.57308 0.09286 0.0
O386 O 1.00901 0.5434 0.06675 0.0
Mg387 Mg 0.97168 0.54602 0.04261 0.0
Mg388 Mg 1.03768 0.53961 0.0389 0.0
O389 O 0.06662 0.54569 1.01153 0.0
Mg390 Mg 0.05786 0.51655 0.9851 0.0
Mg391 Mg 0.10278 0.54773 0.03591 0.0
C392 C 0.08147 0.55681 0.09494 0.0
C393 C 0.0784 0.60346 0.04071 0.0
O394 O 0.94856 0.55483 0.08008 0.0
O395 O 0.98207 0.56629 0.11489 0.0
O396 O 0.98844 0.59413 0.03946 0.0
O397 O 1.0205 0.6114 0.07407 0.0
O398 O 0.063 0.56749 0.10674 0.0
O399 O 0.07517 0.54473 0.0716 0.0
C400 C 0.98134 0.49548 0.05891 0.0
O401 O 1.00101 0.51843 0.0669 0.0
O402 O 0.95778 0.49868 0.047 0.0
O403 O 0.12838 0.5495 0.99806 0.0
O404 O 0.09616 0.52977 0.96385 0.0
O405 O 0.09805 0.49999 0.03381 0.0
C406 C 0.12239 0.54153 0.97348 0.0
O407 O 0.06194 0.47888 1.00362 0.0
O408 O 1.01342 0.51852 0.97116 0.0
C409 C 0.0816 0.47778 0.0219 0.0
O410 O 0.99919 0.5369 1.00755 0.0
O411 O 0.0523 0.5877 0.04138 0.0
O412 O 0.10124 0.59367 0.0382 0.0
C413 C 0.47595 0.58682 0.04442 0.0
C414 C 0.50875 0.59092 0.97134 0.0
C415 C 0.51721 0.47916 0.99612 0.0
Mg416 Mg 0.53986 0.59435 0.02786 0.0
O417 O 0.5288 0.55593 0.03245 0.0
Mg418 Mg 0.49297 0.53386 1.01092 0.0
Mg419 Mg 0.558 0.53229 0.02913 0.0
O420 O 0.58726 0.50883 0.0256 0.0
Mg421 Mg 0.57917 0.4697 0.02491 0.0
Mg422 Mg 0.62339 0.53133 0.04648 0.0
C423 C 0.5972 0.58526 0.06441 0.0
C424 C 0.61097 0.56886 0.99703 0.0
O425 O 0.46765 0.56262 0.03196 0.0
O426 O 0.50256 0.60162 0.04596 0.0
O427 O 0.49586 0.56552 0.97593 0.0
O428 O 0.52975 0.60515 0.98741 0.0
O429 O 0.5819 0.60073 0.0528 0.0
O430 O 0.59067 0.5583 0.06118 0.0
C431 C 0.50447 0.49721 0.06173 0.0
O432 O 0.53247 0.50352 0.06003 0.0
O433 O 0.48711 0.50596 0.04552 0.0
O434 O 0.64943 0.50503 0.02309 0.0
O435 O 0.61604 0.46827 1.00255 0.0
O436 O 0.62155 0.49855 0.08021 0.0
C437 C 0.64235 0.48382 1.00626 0.0
O438 O 0.59313 0.45723 0.06418 0.0
O439 O 0.53335 0.46315 1.00546 0.0
C440 C 0.61146 0.47198 0.08224 0.0
O441 O 0.52544 0.50608 0.99771 0.0
O442 O 0.58296 0.56141 0.99819 0.0
O443 O 0.62842 0.56048 0.01335 0.0
C444 C 1.01809 0.60798 0.60551 0.0
C445 C 0.04466 0.60637 0.52398 0.0
C446 C 1.02061 0.4952 0.52325 0.0
Mg447 Mg 0.07605 0.6034 0.5785 0.0
O448 O 0.05818 0.56413 0.57748 0.0
Mg449 Mg 1.01672 0.5521 0.56048 0.0
Mg450 Mg 0.07655 0.53596 0.5575 0.0
O451 O 0.09513 0.50923 0.53737 0.0
Mg452 Mg 0.07883 0.47038 0.5343 0.0
Mg453 Mg 0.13705 0.52191 0.55266 0.0
C454 C 0.12505 0.57462 0.59427 0.0
C455 C 0.12359 0.57266 0.51791 0.0
O456 O 1.00442 0.58577 0.59108 0.0
O457 O 0.04611 0.61789 0.60495 0.0
O458 O 1.0249 0.58476 0.52888 0.0
O459 O 0.06681 0.6167 0.54021 0.0
O460 O 0.11987 0.59394 0.57989 0.0
O461 O 0.11937 0.54927 0.58446 0.0
C462 C 1.02919 0.50269 0.59745 0.0
O463 O 0.05392 0.50384 0.58736 0.0
O464 O 1.01251 0.51894 0.59076 0.0
O465 O 0.14962 0.49201 0.51906 0.0
O466 O 0.10831 0.45891 0.5065 0.0
O467 O 0.13155 0.48589 0.5814 0.0
C468 C 0.13575 0.47009 0.50445 0.0
O469 O 0.08917 0.45396 0.5719 0.0
O470 O 1.03398 0.47504 0.52285 0.0
C471 C 0.11306 0.46341 0.58651 0.0
O472 O 1.03342 0.52031 0.53249 0.0
O473 O 0.09793 0.56881 0.52681 0.0
O474 O 0.14133 0.55777 0.52519 0.0
C475 C 0.53073 0.0777 0.58761 0.0
C476 C 0.54869 0.10092 0.50603 0.0
C477 C 0.52995 0.99608 0.48185 0.0
Mg478 Mg 0.58476 0.08884 0.55485 0.0
O479 O 0.57106 0.05011 0.54661 0.0
Mg480 Mg 0.52853 0.03779 0.53145 0.0
Mg481 Mg 0.58806 0.0391 0.51413 0.0
O482 O 0.60584 0.02038 0.48579 0.0
Mg483 Mg 0.59154 0.98169 0.47773 0.0
Mg484 Mg 0.65044 0.03258 0.49853 0.0
C485 C 0.64668 0.07607 0.55114 0.0
C486 C 0.62353 0.06212 0.46248 0.0
O487 O 0.51692 0.05847 0.57028 0.0
O488 O 0.55716 0.09173 0.58573 0.0
O489 O 0.52972 0.07805 0.50916 0.0
O490 O 0.57256 0.10878 0.52079 0.0
O491 O 0.63121 0.09086 0.56211 0.0
O492 O 0.63521 0.0565 0.53338 0.0
C493 C 0.5568 0.98636 0.54739 0.0
O494 O 0.57933 0.99752 0.53494 0.0
O495 O 0.53468 0.99745 0.54944 0.0
O496 O 0.65964 1.00777 0.46141 0.0
O497 O 0.61761 0.97715 0.44566 0.0
O498 O 0.64864 0.99293 0.52239 0.0
C499 C 0.64483 0.98908 0.44405 0.0
O500 O 0.60713 0.96079 0.50935 0.0
O501 O 0.54453 0.97889 0.47354 0.0
C502 C 0.6312 0.96871 0.52383 0.0
O503 O 0.54254 0.01942 0.49449 0.0
O504 O 0.60641 0.03984 0.47099 0.0
O505 O 0.64965 0.06987 0.4733 0.0
C506 C 0.2562 0.23651 0.35797 0.0
C507 C 0.25203 0.23134 0.33043 0.0
C508 C 0.23854 0.21908 0.37464 0.0
C509 C 0.16815 0.16465 0.37626 0.0
H510 H 0.20689 0.14692 0.44086 0.0
C511 C 0.10667 0.09987 0.45918 0.0
C512 C 0.12149 0.08141 0.47142 0.0
C513 C 0.12046 0.11822 0.44074 0.0
C514 C 0.19567 0.15148 0.42284 0.0
H515 H 0.22568 0.20372 0.29888 0.0
H516 H 0.19529 0.17288 0.32806 0.0
H517 H 0.23515 0.17826 0.4113 0.0
H518 H 0.16153 0.06644 0.47244 0.0
H519 H 0.18488 0.09752 0.44037 0.0
H520 H 0.12874 0.13698 0.38776 0.0
C521 C 0.21195 0.19075 0.33674 0.0
C522 C 0.21186 0.16981 0.40598 0.0
C523 C 0.22958 0.20831 0.32 0.0
C524 C 0.1496 0.08072 0.46385 0.0
C525 C 0.16315 0.09872 0.44549 0.0
C526 C 0.15186 0.14618 0.39322 0.0
C527 C 0.21629 0.19583 0.36432 0.0
C528 C 0.19844 0.17659 0.38238 0.0
C529 C 0.14922 0.11828 0.4342 0.0
C530 C 0.16555 0.1391 0.41658 0.0
H531 H 0.273 0.25423 0.36674 0.0
H532 H 0.24224 0.22402 0.39571 0.0
H533 H 0.15698 0.16964 0.35841 0.0
H534 H 0.08499 0.10088 0.46456 0.0
H535 H 0.10907 0.133 0.43236 0.0
C536 C 0.86083 0.24038 0.35851 0.0
C537 C 0.86124 0.24114 0.33083 0.0
C538 C 0.87717 0.22451 0.37325 0.0
C539 C 0.91506 0.16493 0.36687 0.0
H540 H 0.95373 0.19419 0.43537 0.0
C541 C 0.97043 0.09718 0.43873 0.0
C542 C 0.99613 0.11052 0.45481 0.0
C543 C 0.95485 0.11264 0.42268 0.0
C544 C 0.9433 0.18559 0.41621 0.0
H545 H 0.87961 0.22503 0.29733 0.0
H546 H 0.90749 0.19742 0.32269 0.0
H547 H 0.9252 0.22142 0.4102 0.0
H548 H 1.02541 0.1513 0.46557 0.0
H549 H 0.99862 0.1779 0.43783 0.0
H550 H 0.93315 0.12908 0.37291 0.0
C551 C 0.89447 0.20904 0.33318 0.0
C552 C 0.92649 0.20123 0.40177 0.0
C553 C 0.87845 0.22515 0.31851 0.0
C554 C 1.00599 0.13991 0.45351 0.0
C555 C 0.99025 0.15538 0.43772 0.0
C556 C 0.93156 0.14912 0.38147 0.0
C557 C 0.89434 0.20843 0.36091 0.0
C558 C 0.91208 0.19133 0.37671 0.0
C559 C 0.96405 0.14218 0.42226 0.0
C560 C 0.94619 0.15915 0.40643 0.0
H561 H 0.84802 0.2523 0.36893 0.0
H562 H 0.87601 0.2246 0.39443 0.0
H563 H 0.90426 0.15616 0.34788 0.0
H564 H 0.96168 0.07475 0.43916 0.0
H565 H 0.93484 0.10142 0.41135 0.0
C566 C 0.89165 0.87301 0.29515 0.0
C567 C 0.88756 0.84374 0.29503 0.0
C568 C 0.90346 0.88976 0.31793 0.0
C569 C 0.94103 0.88866 0.3845 0.0
H570 H 0.90102 0.94671 0.40242 0.0
C571 C 0.96362 0.94097 0.48587 0.0
C572 C 0.97834 0.96929 0.48456 0.0
C573 C 0.94585 0.9267 0.4642 0.0
C574 C 0.91218 0.93046 0.39761 0.0
H575 H 0.89523 0.80938 0.31786 0.0
H576 H 0.91506 0.83828 0.35752 0.0
H577 H 0.88823 0.92016 0.3598 0.0
H578 H 0.98186 1.00608 0.46155 0.0
H579 H 0.95069 0.98099 0.42366 0.0
H580 H 0.96453 0.89857 0.42243 0.0
C581 C 0.90938 0.8485 0.34013 0.0
C582 C 0.90522 0.91551 0.37315 0.0
C583 C 0.89791 0.83184 0.31731 0.0
C584 C 0.97117 0.98414 0.46298 0.0
C585 C 0.9533 0.9698 0.44126 0.0
C586 C 0.94758 0.90323 0.40899 0.0
C587 C 0.91128 0.87751 0.34101 0.0
C588 C 0.91961 0.89443 0.36634 0.0
C589 C 0.94238 0.94062 0.44107 0.0
C590 C 0.93318 0.92417 0.4158 0.0
H591 H 0.88416 0.88284 0.27818 0.0
H592 H 0.90547 0.91216 0.31774 0.0
H593 H 0.95296 0.87301 0.37974 0.0
H594 H 0.96814 0.92913 0.50253 0.0
H595 H 0.93703 0.90425 0.46462 0.0
C596 C 0.21638 0.94999 0.31346 0.0
C597 C 0.23898 0.93585 0.31175 0.0
C598 C 0.21447 0.96558 0.33653 0.0
C599 C 0.21302 0.99682 0.38864 0.0
H600 H 0.21983 0.94664 0.44448 0.0
C601 C 0.15305 0.99958 0.48319 0.0
C602 C 0.13413 0.97333 0.48646 0.0
C603 C 0.1758 1.00199 0.46643 0.0
C604 C 0.2182 0.96113 0.42925 0.0
H605 H 0.27955 0.93019 0.33166 0.0
H606 H 0.27671 0.95814 0.37128 0.0
H607 H 0.24297 0.94199 0.40389 0.0
H608 H 0.12565 0.92868 0.47651 0.0
H609 H 0.16546 0.93273 0.44765 0.0
H610 H 0.18615 1.01439 0.41347 0.0
C611 C 0.25996 0.95649 0.35514 0.0
C612 C 0.23174 0.95872 0.40603 0.0
C613 C 0.26173 0.9407 0.33219 0.0
C614 C 0.13977 0.94925 0.47431 0.0
C615 C 0.16271 0.95157 0.45787 0.0
C616 C 0.19949 0.99926 0.41196 0.0
C617 C 0.23529 0.9675 0.35823 0.0
C618 C 0.22809 0.97561 0.38494 0.0
C619 C 0.18034 0.97805 0.45308 0.0
C620 C 0.20076 0.98047 0.43191 0.0
H621 H 0.19888 0.9472 0.29782 0.0
H622 H 0.19517 0.97383 0.33813 0.0
H623 H 0.21016 1.0104 0.37291 0.0
H624 H 0.14951 0.01837 0.49259 0.0
H625 H 0.18922 0.02263 0.46325 0.0
C626 C 0.25576 0.82753 0.70384 0.0
C627 C 0.24769 0.81856 0.72888 0.0
C628 C 0.23993 0.84368 0.68903 0.0
C629 C 0.16784 0.86594 0.68344 0.0
H630 H 0.21016 0.92254 0.64007 0.0
C631 C 0.10691 0.92561 0.60846 0.0
C632 C 0.12041 0.95348 0.60298 0.0
C633 C 0.12157 0.9098 0.62486 0.0
C634 C 0.19781 0.90707 0.6522 0.0
H635 H 0.21586 0.81993 0.75752 0.0
H636 H 0.18853 0.84788 0.73198 0.0
H637 H 0.23678 0.89437 0.66583 0.0
H638 H 0.1603 0.98637 0.61177 0.0
H639 H 0.18541 0.95926 0.64046 0.0
H640 H 0.12892 0.87897 0.67009 0.0
C641 C 0.20701 0.84222 0.72351 0.0
C642 C 0.21319 0.89044 0.66685 0.0
C643 C 0.2229 0.82614 0.73835 0.0
C644 C 0.14885 0.96513 0.61534 0.0
C645 C 0.16355 0.94929 0.63168 0.0
C646 C 0.15243 0.88251 0.6687 0.0
C647 C 0.21528 0.85154 0.69858 0.0
C648 C 0.19858 0.86946 0.68279 0.0
C649 C 0.15046 0.9211 0.63646 0.0
C650 C 0.16705 0.90347 0.65273 0.0
H651 H 0.27461 0.8223 0.69564 0.0
H652 H 0.24701 0.8498 0.66987 0.0
H653 H 0.15542 0.85001 0.6951 0.0
H654 H 0.08522 0.91554 0.59933 0.0
H655 H 0.11052 0.88824 0.62762 0.0
C656 C 0.29502 0.21418 0.71531 0.0
C657 C 0.27631 0.21356 0.73583 0.0
C658 C 0.28713 0.19441 0.69388 0.0
C659 C 0.24979 0.16773 0.64377 0.0
H660 H 0.19958 0.094 0.65149 0.0
C661 C 0.14682 0.12293 0.57549 0.0
C662 C 0.13419 0.09392 0.57312 0.0
C663 C 0.17317 0.13364 0.59097 0.0
C664 C 0.21408 0.11416 0.64856 0.0
H665 H 0.23599 0.19058 0.75105 0.0
H666 H 0.22216 0.15667 0.71394 0.0
H667 H 0.23174 0.11811 0.68874 0.0
H668 H 0.14028 0.05338 0.58438 0.0
H669 H 0.1869 0.07188 0.60993 0.0
H670 H 0.23187 0.16392 0.60362 0.0
C671 C 0.24297 0.17209 0.71422 0.0
C672 C 0.23232 0.12815 0.67014 0.0
C673 C 0.25072 0.19182 0.73542 0.0
C674 C 0.14943 0.0758 0.58538 0.0
C675 C 0.17608 0.08647 0.60042 0.0
C676 C 0.23186 0.15353 0.622 0.0
C677 C 0.2606 0.1736 0.69282 0.0
C678 C 0.24892 0.15577 0.66843 0.0
C679 C 0.18777 0.11559 0.60421 0.0
C680 C 0.21245 0.12729 0.6246 0.0
H681 H 0.31498 0.23066 0.71517 0.0
H682 H 0.30125 0.19597 0.67777 0.0
H683 H 0.26245 0.18894 0.64171 0.0
H684 H 0.13579 0.13755 0.5663 0.0
H685 H 0.18108 0.1562 0.59368 0.0
C686 C 0.89065 0.21587 0.72731 0.0
C687 C 0.90491 0.20953 0.75065 0.0
C688 C 0.89219 0.20171 0.70348 0.0
C689 C 0.91183 0.13901 0.67449 0.0
H690 H 0.92667 0.18476 0.61416 0.0
C691 C 0.97677 0.13812 0.57759 0.0
C692 C 0.96684 0.1099 0.56842 0.0
C693 C 0.96184 0.14942 0.5962 0.0
C694 C 0.92232 0.17167 0.63077 0.0
H695 H 0.93135 0.18315 0.76772 0.0
H696 H 0.93534 0.15901 0.72559 0.0
H697 H 0.9164 0.20565 0.65541 0.0
H698 H 0.9324 0.07186 0.57016 0.0
H699 H 0.90614 0.0918 0.6029 0.0
H700 H 0.91974 0.10552 0.65022 0.0
C701 C 0.9224 0.17454 0.72585 0.0
C702 C 0.9162 0.18355 0.65437 0.0
C703 C 0.92047 0.1885 0.74987 0.0
C704 C 0.94059 0.09367 0.57695 0.0
C705 C 0.92567 0.105 0.59577 0.0
C706 C 0.91814 0.12716 0.65089 0.0
C707 C 0.90835 0.18111 0.7024 0.0
C708 C 0.91167 0.16755 0.67669 0.0
C709 C 0.93667 0.13275 0.60608 0.0
C710 C 0.92431 0.14363 0.62906 0.0
H711 H 0.87777 0.23148 0.72759 0.0
H712 H 0.88059 0.20682 0.68591 0.0
H713 H 0.90786 0.12602 0.6912 0.0
H714 H 0.99679 0.15123 0.57118 0.0
H715 H 0.97107 0.17078 0.60394 0.0
C716 C 0.88749 0.86925 0.74819 0.0
C717 C 0.85958 0.85155 0.7406 0.0
C718 C 0.90386 0.88545 0.72984 0.0
C719 C 0.89723 0.91323 0.66305 0.0
H720 H 0.98235 0.926 0.66939 0.0
C721 C 0.96791 0.99354 0.60057 0.0
C722 C 0.9928 0.9875 0.59002 0.0
C723 C 0.95316 0.97699 0.61944 0.0
C724 C 0.9586 0.92245 0.66713 0.0
H725 H 0.82705 0.8372 0.70752 0.0
H726 H 0.85571 0.86504 0.67542 0.0
H727 H 0.95325 0.89667 0.70029 0.0
H728 H 1.02231 0.95969 0.59182 0.0
H729 H 0.99609 0.93014 0.62468 0.0
H730 H 0.90238 0.93816 0.62945 0.0
C731 C 0.86481 0.86687 0.69573 0.0
C732 C 0.94185 0.9059 0.68514 0.0
C733 C 0.84829 0.85081 0.71418 0.0
C734 C 1.00327 0.96495 0.59963 0.0
C735 C 0.98819 0.94804 0.61847 0.0
C736 C 0.91392 0.92959 0.645 0.0
C737 C 0.89298 0.88429 0.70323 0.0
C738 C 0.91089 0.90125 0.68354 0.0
C739 C 0.96251 0.95351 0.62821 0.0
C740 C 0.9449 0.9348 0.64693 0.0
H741 H 0.89689 0.8705 0.76838 0.0
H742 H 0.92507 0.89901 0.73663 0.0
H743 H 0.87356 0.91044 0.66116 0.0
H744 H 0.95948 1.01104 0.59396 0.0
H745 H 0.93417 0.98257 0.627 0.0
C746 C 0.33323 0.23818 0.20245 0.0
C747 C 0.33788 0.23741 0.23007 0.0
C748 C 0.34686 0.22309 0.1852 0.0
C749 C 0.38208 0.16276 0.18015 0.0
H750 H 0.41626 0.19951 0.11971 0.0
C751 C 0.42769 0.10411 0.09518 0.0
C752 C 0.4549 0.11821 0.08642 0.0
C753 C 0.41283 0.1177 0.11282 0.0
C754 C 0.40689 0.18884 0.13648 0.0
H755 H 0.36071 0.21953 0.26088 0.0
H756 H 0.384 0.19281 0.2308 0.0
H757 H 0.39215 0.22465 0.15016 0.0
H758 H 0.48729 0.15815 0.0895 0.0
H759 H 0.46137 0.18165 0.11946 0.0
H760 H 0.3968 0.12686 0.16627 0.0
C761 C 0.36975 0.20522 0.2225 0.0
C762 C 0.39281 0.20327 0.15392 0.0
C763 C 0.35644 0.2207 0.23981 0.0
C764 C 0.46649 0.14639 0.09568 0.0
C765 C 0.45147 0.16004 0.11286 0.0
C766 C 0.39578 0.14814 0.16242 0.0
C767 C 0.36537 0.20633 0.19487 0.0
C768 C 0.38028 0.19057 0.17616 0.0
C769 C 0.42442 0.14598 0.12184 0.0
C770 C 0.40863 0.16102 0.14037 0.0
H771 H 0.31925 0.25078 0.19402 0.0
H772 H 0.34263 0.22438 0.16415 0.0
H773 H 0.37257 0.15212 0.19687 0.0
H774 H 0.418 0.08244 0.08864 0.0
H775 H 0.392 0.10615 0.1191 0.0
C776 C 0.92862 0.29524 0.11755 0.0
C777 C 0.9413 0.29236 0.14278 0.0
C778 C 0.94648 0.30521 0.09748 0.0
C779 C 1.01439 0.35776 0.10077 0.0
H780 H 0.98355 0.36494 0.02948 0.0
C781 C 0.96828 0.44386 0.04784 0.0
C782 C 0.98917 0.46815 0.0577 0.0
C783 C 0.97511 0.41776 0.04829 0.0
C784 C 0.9928 0.36316 0.04926 0.0
H785 H 0.98245 0.29254 0.16527 0.0
H786 H 1.01343 0.30898 0.13002 0.0
H787 H 0.97266 0.31918 0.04857 0.0
H788 H 1.0344 0.4846 0.07379 0.0
H789 H 0.04621 0.43895 0.07479 0.0
H790 H 1.03217 0.40186 0.10259 0.0
C791 C 0.98975 0.3046 0.12598 0.0
C792 C 0.98667 0.33691 0.06015 0.0
C793 C 0.97188 0.29497 0.1462 0.0
C794 C 1.01758 0.46609 0.06655 0.0
C795 C 1.02444 0.43997 0.06699 0.0
C796 C 1.02043 0.38391 0.08994 0.0
C797 C 0.97737 0.31234 0.1023 0.0
C798 C 0.99501 0.33455 0.0869 0.0
C799 C 1.003 0.41536 0.05859 0.0
C800 C 1.00735 0.3873 0.06499 0.0
H801 H 0.90503 0.2924 0.11403 0.0
H802 H 0.93592 0.31047 0.07943 0.0
H803 H 1.0217 0.35691 0.12131 0.0
H804 H 0.94631 0.44484 0.04065 0.0
H805 H 0.95777 0.39932 0.0421 0.0
C806 C 0.67093 0.84974 0.16729 0.0
C807 C 0.69586 0.86203 0.18433 0.0
C808 C 0.64511 0.8589 0.16868 0.0
C809 C 0.6287 0.92508 0.1814 0.0
H810 H 0.55156 0.88333 0.15204 0.0
C811 C 0.57179 0.97628 0.10588 0.0
C812 C 0.56421 0.95892 0.08271 0.0
C813 C 0.57424 0.96461 0.13024 0.0
C814 C 0.57286 0.8954 0.16046 0.0
H815 H 0.71245 0.8911 0.21815 0.0
H816 H 0.66736 0.9075 0.2203 0.0
H817 H 0.58417 0.85902 0.17582 0.0
H818 H 0.55017 0.916 0.06671 0.0
H819 H 0.55667 0.89553 0.10864 0.0
H820 H 0.61934 0.96071 0.16389 0.0
C821 C 0.6679 0.89105 0.20568 0.0
C822 C 0.59143 0.88148 0.17421 0.0
C823 C 0.69377 0.88193 0.20423 0.0
C824 C 0.5566 0.92976 0.08437 0.0
C825 C 0.55988 0.91807 0.1086 0.0
C826 C 0.61038 0.93888 0.16743 0.0
C827 C 0.64375 0.88051 0.18716 0.0
C828 C 0.62037 0.89585 0.18294 0.0
C829 C 0.57029 0.93542 0.13167 0.0
C830 C 0.58325 0.92372 0.15487 0.0
H831 H 0.67191 0.83427 0.15185 0.0
H832 H 0.6271 0.8506 0.15385 0.0
H833 H 0.65079 0.93687 0.18799 0.0
H834 H 0.57671 0.99891 0.10507 0.0
H835 H 0.5812 0.9786 0.14768 0.0
C836 C 0.24796 0.72433 0.21298 0.0
C837 C 0.27158 0.72389 0.23135 0.0
C838 C 0.23673 0.70185 0.19469 0.0
C839 C 0.22486 0.62677 0.18729 0.0
H840 H 0.19672 0.63887 0.11625 0.0
C841 C 0.11578 0.5654 0.1355 0.0
C842 C 0.11178 0.5628 0.10781 0.0
C843 C 0.14325 0.57822 0.14831 0.0
C844 C 0.20495 0.63479 0.13576 0.0
H845 H 0.3025 0.69984 0.24459 0.0
H846 H 0.28211 0.65979 0.21277 0.0
H847 H 0.23147 0.67679 0.14204 0.0
H848 H 0.13435 0.56953 0.07202 0.0
H849 H 0.18231 0.59181 0.09431 0.0
H850 H 0.19706 0.58518 0.18148 0.0
C851 C 0.27262 0.67784 0.2125 0.0
C852 C 0.22467 0.65666 0.15062 0.0
C853 C 0.2843 0.70072 0.2306 0.0
C854 C 0.13651 0.57099 0.09328 0.0
C855 C 0.16404 0.58406 0.1061 0.0
C856 C 0.20497 0.60487 0.17244 0.0
C857 C 0.24856 0.67815 0.19449 0.0
C858 C 0.23379 0.65326 0.17692 0.0
C859 C 0.16738 0.58896 0.1337 0.0
C860 C 0.19382 0.60905 0.14691 0.0
H861 H 0.23782 0.74197 0.21294 0.0
H862 H 0.21792 0.70257 0.18134 0.0
H863 H 0.2315 0.62356 0.20752 0.0
H864 H 0.09716 0.55917 0.14727 0.0
H865 H 0.14487 0.58177 0.16956 0.0
C866 C 0.35125 0.87783 0.79287 0.0
C867 C 0.36259 0.85403 0.78945 0.0
C868 C 0.36702 0.90092 0.80876 0.0
C869 C 0.40265 0.9475 0.84658 0.0
H870 H 0.43135 0.91544 0.90843 0.0
C871 C 0.45898 1.00778 0.94407 0.0
C872 C 0.45774 0.99177 0.9664 0.0
C873 C 0.44332 0.99597 0.92035 0.0
C874 C 0.42295 0.92467 0.89148 0.0
H875 H 0.4011 0.83739 0.79616 0.0
H876 H 0.42927 0.87827 0.82342 0.0
H877 H 0.41913 0.88743 0.86749 0.0
H878 H 0.43568 0.95347 0.98323 0.0
H879 H 0.40657 0.93365 0.94244 0.0
H880 H 0.40556 0.98454 0.87143 0.0
C881 C 0.40766 0.87862 0.81465 0.0
C882 C 0.41672 0.90881 0.86769 0.0
C883 C 0.3917 0.85532 0.79886 0.0
C884 C 0.43693 0.96607 0.96614 0.0
C885 C 0.42074 0.95459 0.94267 0.0
C886 C 0.40882 0.96345 0.87061 0.0
C887 C 0.39453 0.90068 0.82136 0.0
C888 C 0.40607 0.91979 0.845 0.0
C889 C 0.42595 0.96831 0.91908 0.0
C890 C 0.41842 0.95191 0.89344 0.0
H891 H 0.32903 0.87762 0.78527 0.0
H892 H 0.35622 0.91751 0.81326 0.0
H893 H 0.39463 0.95665 0.82941 0.0
H894 H 0.4751 0.02765 0.9439 0.0
H895 H 0.44755 1.00722 0.90259 0.0
C896 C 0.22114 0.36499 0.88253 0.0
C897 C 0.19616 0.34308 0.88495 0.0
C898 C 0.22109 0.39261 0.88999 0.0
C899 C 0.1915 0.43332 0.93559 0.0
H900 H 0.198 0.49155 0.88536 0.0
C901 C 0.17353 0.53618 0.97046 0.0
C902 C 0.14676 0.53842 0.95753 0.0
C903 C 0.19061 0.52025 0.95857 0.0
C904 C 0.19677 0.47562 0.89966 0.0
H905 H 0.15162 0.33253 0.89679 0.0
H906 H 0.15187 0.38099 0.91086 0.0
H907 H 0.20373 0.44482 0.87124 0.0
H908 H 0.12036 0.53113 0.92006 0.0
H909 H 0.15025 0.5036 0.89933 0.0
H910 H 0.18371 0.46338 0.96384 0.0
C911 C 0.17129 0.37669 0.90291 0.0
C912 C 0.19993 0.449 0.8916 0.0
C913 C 0.1711 0.34913 0.8949 0.0
C914 C 0.14051 0.52921 0.93076 0.0
C915 C 0.15771 0.51345 0.91882 0.0
C916 C 0.18895 0.45995 0.94376 0.0
C917 C 0.19626 0.39859 0.90045 0.0
C918 C 0.19642 0.4275 0.90937 0.0
C919 C 0.18137 0.50682 0.9335 0.0
C920 C 0.19078 0.48117 0.92574 0.0
H921 H 0.2406 0.36075 0.87458 0.0
H922 H 0.24055 0.40922 0.888 0.0
H923 H 0.18887 0.41702 0.9496 0.0
H924 H 0.17936 0.54345 0.99094 0.0
H925 H 0.20918 0.5159 0.97007 0.0
C926 C 0.70297 0.25426 0.83732 0.0
C927 C 0.72128 0.24329 0.8213 0.0
C928 C 0.68393 0.2366 0.85309 0.0
C929 C 0.6778 0.16821 0.88343 0.0
H930 H 0.60273 0.17802 0.90421 0.0
C931 C 0.62667 0.11018 0.96961 0.0
C932 C 0.59641 0.09726 0.96728 0.0
C933 C 0.63891 0.12951 0.95173 0.0
C934 C 0.62354 0.17487 0.89841 0.0
H935 H 0.73223 0.20508 0.80751 0.0
H936 H 0.69846 0.17437 0.83381 0.0
H937 H 0.62839 0.20792 0.87136 0.0
H938 H 0.55488 0.0958 0.94514 0.0
H939 H 0.5766 0.12934 0.91302 0.0
H940 H 0.673 0.13498 0.90969 0.0
C941 C 0.6995 0.19663 0.83529 0.0
C942 C 0.63841 0.1922 0.87978 0.0
C943 C 0.71877 0.21423 0.82001 0.0
C944 C 0.57832 0.10527 0.9473 0.0
C945 C 0.59077 0.12454 0.92899 0.0
C946 C 0.663 0.15096 0.90178 0.0
C947 C 0.68263 0.20762 0.85285 0.0
C948 C 0.66583 0.1891 0.87209 0.0
C949 C 0.62142 0.13627 0.9306 0.0
C950 C 0.63587 0.15422 0.90986 0.0
H951 H 0.70451 0.27661 0.83874 0.0
H952 H 0.67135 0.24588 0.86637 0.0
H953 H 0.69904 0.16538 0.87853 0.0
H954 H 0.64114 0.10505 0.98518 0.0
H955 H 0.66238 0.13881 0.95425 0.0
C956 C 0.94223 0.80828 0.97193 0.0
C957 C 0.95374 0.81984 0.94894 0.0
C958 C 0.9592 0.79601 0.98929 0.0
C959 C 1.01547 0.75758 0.98172 0.0
H960 H 1.00038 0.74018 0.05386 0.0
C961 C 1.02444 0.66696 0.06 0.0
C962 C 1.00986 0.64342 0.04345 0.0
C963 C 1.02727 0.69405 0.0514 0.0
C964 C 1.00541 0.74517 0.03388 0.0
H965 H 0.9935 0.83092 0.92817 0.0
H966 H 1.02322 0.81055 0.95893 0.0
H967 H 0.98912 0.78231 0.03626 0.0
H968 H 0.98799 0.62985 1.00455 0.0
H969 H 0.99282 0.67705 0.98964 0.0
H970 H 1.03053 0.71983 0.97901 0.0
C971 C 1.00079 0.81014 0.96308 0.0
C972 C 0.99874 0.76917 0.02375 0.0
C973 C 0.98375 0.82215 0.94558 0.0
C974 C 0.99907 0.64752 0.01787 0.0
C975 C 1.00216 0.67455 1.00921 0.0
C976 C 1.02209 0.73366 0.99183 0.0
C977 C 0.98811 0.79532 0.98413 0.0
C978 C 1.00238 0.77489 0.99717 0.0
C979 C 1.01589 0.69809 0.02602 0.0
C980 C 1.01577 0.72652 0.01757 0.0
H981 H 0.91942 0.8068 0.97545 0.0
H982 H 0.94868 0.78489 1.00535 0.0
H983 H 1.01844 0.76113 0.96111 0.0
H984 H 1.03324 0.6645 0.07976 0.0
H985 H 1.03809 0.71185 0.06466 0.0
C986 C 0.18949 0.31484 0.11644 0.0
C987 C 0.17425 0.29052 0.12771 0.0
C988 C 0.1758 0.32659 0.09616 0.0
C989 C 0.10262 0.33366 0.07498 0.0
H990 H 0.14634 0.38002 0.02422 0.0
C991 C 0.06642 0.42499 0.02056 0.0
C992 C 0.08706 0.45034 0.02844 0.0
C993 C 0.07255 0.39922 0.02638 0.0
C994 C 0.13363 0.36676 0.03793 0.0
H995 H 0.1335 0.25804 0.1248 0.0
H996 H 0.10938 0.27895 0.08949 0.0
H997 H 0.16633 0.34341 0.04413 0.0
H998 H 0.13034 0.46848 0.04824 0.0
H999 H 0.14118 0.42376 0.05759 0.0
H1000 H 0.07061 0.35816 0.06953 0.0
C1001 C 0.13185 0.28902 0.09665 0.0
C1002 C 0.1451 0.34595 0.04942 0.0
C1003 C 0.14566 0.27712 0.11689 0.0
C1004 C 0.11389 0.44941 0.042 0.0
C1005 C 0.12023 0.42382 0.04719 0.0
C1006 C 0.09099 0.35437 0.06324 0.0
C1007 C 0.14648 0.31437 0.08667 0.0
C1008 C 0.13054 0.33027 0.06917 0.0
C1009 C 0.09974 0.39856 0.03934 0.0
C1010 C 0.10722 0.37198 0.0457 0.0
H1011 H 0.21131 0.32601 0.12446 0.0
H1012 H 0.1876 0.34638 0.08926 0.0
H1013 H 0.09089 0.32202 0.0902 0.0
H1014 H 0.04549 0.42507 1.01017 0.0
H1015 H 0.05634 0.3799 0.02045 0.0
C1016 C 0.22687 0.76823 0.96125 0.0
C1017 C 0.22138 0.78887 0.94469 0.0
C1018 C 0.20929 0.76006 0.98191 0.0
C1019 C 0.1725 0.74695 0.02744 0.0
H1020 H 0.08993 0.73089 1.00253 0.0
C1021 C 0.09807 0.65096 0.06227 0.0
C1022 C 0.08242 0.63385 0.04085 0.0
C1023 C 0.10802 0.67983 0.05991 0.0
C1024 C 0.11287 0.73531 1.00994 0.0
H1025 H 0.19437 0.81858 0.93795 0.0
H1026 H 0.16402 0.80471 0.97449 0.0
H1027 H 0.12569 0.76442 0.98036 0.0
H1028 H 0.06261 0.63292 1.00113 0.0
H1029 H 0.08106 0.68276 0.99622 0.0
H1030 H 0.16047 0.71555 0.05485 0.0
C1031 C 0.18165 0.7945 0.97121 0.0
C1032 C 0.13342 0.75491 0.99743 0.0
C1033 C 0.19923 0.80261 0.95041 0.0
C1034 C 0.07474 0.64596 0.01784 0.0
C1035 C 0.08517 0.67468 0.01523 0.0
C1036 C 0.1521 0.72695 0.03955 0.0
C1037 C 0.18583 0.77246 0.98665 0.0
C1038 C 0.16372 0.75945 1.0049 0.0
C1039 C 0.10342 0.69175 0.03571 0.0
C1040 C 0.1223 0.7194 0.02969 0.0
H1041 H 0.24408 0.75759 0.95761 0.0
H1042 H 0.21304 0.74275 0.99306 0.0
H1043 H 0.19556 0.75078 0.03433 0.0
H1044 H 0.10394 0.64179 0.08028 0.0
H1045 H 0.12115 0.69239 0.0764 0.0
C1046 C 0.33118 0.21425 0.85182 0.0
C1047 C 0.34313 0.23462 0.83438 0.0
C1048 C 0.34927 0.20029 0.86639 0.0
C1049 C 0.42862 0.20468 0.88795 0.0
H1050 H 0.39657 0.12866 0.90717 0.0
C1051 C 0.48971 0.15029 0.96561 0.0
C1052 C 0.48394 0.12084 0.96442 0.0
C1053 C 0.4748 0.16412 0.94765 0.0
C1054 C 0.40625 0.14971 0.90169 0.0
H1055 H 0.38354 0.2557 0.81815 0.0
H1056 H 0.41479 0.23076 0.84257 0.0
H1057 H 0.36629 0.15179 0.87987 0.0
H1058 H 0.45967 0.08299 0.94216 0.0
H1059 H 0.43504 0.10696 0.91007 0.0
H1060 H 0.469 0.20213 0.90891 0.0
C1061 C 0.3916 0.22609 0.84581 0.0
C1062 C 0.38851 0.16329 0.88633 0.0
C1063 C 0.37358 0.24033 0.83157 0.0
C1064 C 0.46445 0.1057 0.94377 0.0
C1065 C 0.44998 0.11951 0.92554 0.0
C1066 C 0.44652 0.19094 0.90303 0.0
C1067 C 0.37982 0.20595 0.86364 0.0
C1068 C 0.39924 0.19112 0.87939 0.0
C1069 C 0.45406 0.14889 0.92772 0.0
C1070 C 0.43558 0.16327 0.91037 0.0
H1071 H 0.30787 0.20946 0.85468 0.0
H1072 H 0.33924 0.18543 0.8802 0.0
H1073 H 0.43779 0.22618 0.88343 0.0
H1074 H 0.50433 0.16258 0.98145 0.0
H1075 H 0.47854 0.18668 0.95032 0.0
C1076 C 0.82034 0.38843 0.83237 0.0
C1077 C 0.80862 0.36143 0.84068 0.0
C1078 C 0.83105 0.41099 0.85077 0.0
C1079 C 0.85922 0.42458 0.92126 0.0
H1080 H 0.87194 0.50173 0.90156 0.0
C1081 C 0.93876 0.51327 0.98414 0.0
C1082 C 0.9638 0.52133 0.96998 0.0
C1083 C 0.9116 0.49951 0.97103 0.0
C1084 C 0.86804 0.48032 0.90751 0.0
H1085 H 0.79684 0.33722 0.87464 0.0
H1086 H 0.8141 0.37683 0.90683 0.0
H1087 H 0.83742 0.46464 0.87417 0.0
H1088 H 0.97911 0.52514 0.93073 0.0
H1089 H 0.93152 0.50233 0.90786 0.0
H1090 H 0.88992 0.44048 0.95457 0.0
C1091 C 0.81632 0.3805 0.88615 0.0
C1092 C 0.84862 0.45895 0.89168 0.0
C1093 C 0.80624 0.35774 0.86771 0.0
C1094 C 0.9603 0.51881 0.94225 0.0
C1095 C 0.93303 0.50585 0.92912 0.0
C1096 C 0.87794 0.44601 0.93741 0.0
C1097 C 0.82974 0.40733 0.87801 0.0
C1098 C 0.84506 0.43058 0.89762 0.0
C1099 C 0.90888 0.49471 0.94349 0.0
C1100 C 0.88346 0.47388 0.93011 0.0
H1101 H 0.82246 0.39197 0.81163 0.0
H1102 H 0.84157 0.431 0.84347 0.0
H1103 H 0.85758 0.40319 0.92656 0.0
H1104 H 0.94052 0.51547 1.00536 0.0
H1105 H 0.89318 0.49118 0.9825 0.0
C1106 C 0.74012 0.84362 0.82912 0.0
C1107 C 0.76855 0.84175 0.83863 0.0
C1108 C 0.72332 0.85823 0.84384 0.0
C1109 C 0.72811 0.90825 0.90494 0.0
H1110 H 0.64329 0.88819 0.89186 0.0
C1111 C 0.65402 0.97095 0.95977 0.0
C1112 C 0.62435 0.95785 0.96313 0.0
C1113 C 0.67173 0.95754 0.94471 0.0
C1114 C 0.66689 0.89412 0.89635 0.0
H1115 H 0.80098 0.85421 0.87199 0.0
H1116 H 0.7718 0.87857 0.89783 0.0
H1117 H 0.67259 0.8636 0.86725 0.0
H1118 H 0.59086 0.91943 0.95312 0.0
H1119 H 0.6213 0.89604 0.92827 0.0
H1120 H 0.72219 0.93791 0.93497 0.0
C1121 C 0.76244 0.86948 0.87854 0.0
C1122 C 0.68411 0.88008 0.88155 0.0
C1123 C 0.7794 0.85516 0.86362 0.0
C1124 C 0.61336 0.93065 0.95102 0.0
C1125 C 0.63108 0.91714 0.93633 0.0
C1126 C 0.71083 0.9221 0.92 0.0
C1127 C 0.73387 0.87142 0.8691 0.0
C1128 C 0.71524 0.88674 0.88533 0.0
C1129 C 0.66073 0.93021 0.93254 0.0
C1130 C 0.67969 0.91543 0.91615 0.0
H1131 H 0.73074 0.83387 0.81001 0.0
H1132 H 0.70202 0.85933 0.83501 0.0
H1133 H 0.75178 0.91483 0.90871 0.0
H1134 H 0.66358 0.99185 0.96852 0.0
H1135 H 0.69404 0.96903 0.94238 0.0
C1136 C 0.85571 0.73196 0.20213 0.0
C1137 C 0.83864 0.7286 0.22391 0.0
C1138 C 0.86254 0.70875 0.18967 0.0
C1139 C 0.86865 0.63671 0.20113 0.0
H1140 H 0.87241 0.63278 0.12527 0.0
C1141 C 0.94063 0.57691 0.14801 0.0
C1142 C 0.93283 0.56736 0.12148 0.0
C1143 C 0.92245 0.59001 0.16183 0.0
C1144 C 0.87088 0.63314 0.14641 0.0
H1145 H 0.81507 0.69814 0.24952 0.0
H1146 H 0.82673 0.65779 0.2276 0.0
H1147 H 0.85402 0.6699 0.14595 0.0
H1148 H 0.89808 0.56094 0.08975 0.0
H1149 H 0.86611 0.58337 0.1141 0.0
H1150 H 0.88571 0.6 0.20157 0.0
C1151 C 0.83518 0.67837 0.22037 0.0
C1152 C 0.86081 0.65474 0.15831 0.0
C1153 C 0.82844 0.70154 0.23287 0.0
C1154 C 0.90498 0.56842 0.11004 0.0
C1155 C 0.88673 0.58147 0.12392 0.0
C1156 C 0.87865 0.61502 0.18921 0.0
C1157 C 0.85236 0.6817 0.19866 0.0
C1158 C 0.8603 0.6572 0.18585 0.0
C1159 C 0.89599 0.59367 0.14948 0.0
C1160 C 0.88059 0.61341 0.16178 0.0
H1161 H 0.86395 0.75251 0.19478 0.0
H1162 H 0.87625 0.71209 0.17325 0.0
H1163 H 0.86862 0.63804 0.22242 0.0
H1164 H 0.96177 0.57616 0.15758 0.0
H1165 H 0.93033 0.59917 0.18147 0.0
C1166 C 0.38292 0.84594 0.23709 0.0
C1167 C 0.35207 0.83634 0.23256 0.0
C1168 C 0.39967 0.86235 0.21882 0.0
C1169 C 0.39098 0.90782 0.16264 0.0
H1170 H 0.47113 0.90509 0.15107 0.0
C1171 C 0.46125 0.99148 0.10276 0.0
C1172 C 0.47972 0.98372 0.08469 0.0
C1173 C 0.4483 0.97303 0.12123 0.0
C1174 C 0.4487 0.90602 0.15387 0.0
H1175 H 0.31509 0.836 0.2044 0.0
H1176 H 0.34397 0.86373 0.17264 0.0
H1177 H 0.44327 0.87332 0.18134 0.0
H1178 H 0.49958 0.95028 0.07265 0.0
H1179 H 0.47681 0.91766 0.10509 0.0
H1180 H 0.39584 0.93982 0.13491 0.0
C1181 C 0.35537 0.85934 0.19061 0.0
C1182 C 0.43274 0.88794 0.17155 0.0
C1183 C 0.33868 0.84314 0.20889 0.0
C1184 C 0.48582 0.95712 0.08643 0.0
C1185 C 0.47258 0.93837 0.10501 0.0
C1186 C 0.4068 0.92572 0.14506 0.0
C1187 C 0.38614 0.86964 0.19535 0.0
C1188 C 0.40356 0.88857 0.17629 0.0
C1189 C 0.4529 0.94581 0.12225 0.0
C1190 C 0.43606 0.92544 0.1405 0.0
H1191 H 0.39414 0.84119 0.25503 0.0
H1192 H 0.42317 0.86992 0.22348 0.0
H1193 H 0.36887 0.9095 0.16579 0.0
H1194 H 0.4563 1.01191 0.10234 0.0
H1195 H 0.43424 0.98015 0.13458 0.0
C1196 C 0.77606 0.23094 0.2005 0.0
C1197 C 0.77482 0.2263 0.22751 0.0
C1198 C 0.76068 0.21048 0.18149 0.0
C1199 C 0.69836 0.14704 0.17368 0.0
H1200 H 0.72484 0.14323 0.10338 0.0
C1201 C 0.6267 0.07521 0.09004 0.0
C1202 C 0.61903 0.0914 0.06978 0.0
C1203 C 0.65072 0.08658 0.10833 0.0
C1204 C 0.71736 0.14388 0.12302 0.0
H1205 H 0.75722 0.19609 0.25574 0.0
H1206 H 0.73126 0.15987 0.2226 0.0
H1207 H 0.75725 0.17266 0.13842 0.0
H1208 H 0.63177 0.13087 0.05115 0.0
H1209 H 0.67436 0.15027 0.08243 0.0
H1210 H 0.65845 0.11818 0.15807 0.0
C1211 C 0.74339 0.17968 0.21602 0.0
C1212 C 0.73574 0.16097 0.14308 0.0
C1213 C 0.75842 0.2004 0.23508 0.0
C1214 C 0.6373 0.11799 0.06661 0.0
C1215 C 0.66166 0.12906 0.08448 0.0
C1216 C 0.68024 0.12957 0.15374 0.0
C1217 C 0.74399 0.18455 0.18892 0.0
C1218 C 0.72614 0.1635 0.16851 0.0
C1219 C 0.66781 0.11397 0.10617 0.0
C1220 C 0.68923 0.12841 0.12806 0.0
H1221 H 0.78829 0.25076 0.19398 0.0
H1222 H 0.76124 0.21544 0.16097 0.0
H1223 H 0.68986 0.1486 0.19278 0.0
H1224 H 0.61277 0.05475 0.09304 0.0
H1225 H 0.6551 0.07452 0.12486 0.0
C1226 C 0.75068 0.71245 0.83506 0.0
C1227 C 0.77282 0.73551 0.84597 0.0
C1228 C 0.73134 0.69583 0.85111 0.0
C1229 C 0.72394 0.67612 0.92005 0.0
H1230 H 0.64154 0.64679 0.89598 0.0
C1231 C 0.65295 0.58528 0.96974 0.0
C1232 C 0.62479 0.58702 0.97643 0.0
C1233 C 0.66868 0.60414 0.95317 0.0
C1234 C 0.66441 0.65504 0.90307 0.0
H1235 H 0.79189 0.75902 0.88251 0.0
H1236 H 0.75821 0.72999 0.91051 0.0
H1237 H 0.67393 0.67891 0.86895 0.0
H1238 H 0.5904 0.60914 0.96961 0.0
H1239 H 0.61826 0.64257 0.9402 0.0
H1240 H 0.71458 0.65239 0.95407 0.0
C1241 C 0.75595 0.72463 0.8895 0.0
C1242 C 0.68307 0.6732 0.88748 0.0
C1243 C 0.7753 0.74131 0.87343 0.0
C1244 C 0.61205 0.60731 0.96486 0.0
C1245 C 0.62801 0.62643 0.9481 0.0
C1246 C 0.70539 0.65798 0.93551 0.0
C1247 C 0.73359 0.70175 0.87853 0.0
C1248 C 0.71319 0.68369 0.89563 0.0
C1249 C 0.65688 0.62547 0.94272 0.0
C1250 C 0.67551 0.6468 0.92704 0.0
H1251 H 0.74801 0.70733 0.814 0.0
H1252 H 0.71477 0.67812 0.84201 0.0
H1253 H 0.74697 0.68358 0.92693 0.0
H1254 H 0.66325 0.56954 0.97779 0.0
H1255 H 0.69043 0.60221 0.94882 0.0
C1256 C 0.37068 0.71569 0.81464 0.0
C1257 C 0.35635 0.73449 0.82681 0.0
C1258 C 0.38733 0.70033 0.82952 0.0
C1259 C 0.42542 0.69729 0.89705 0.0
H1260 H 0.42662 0.6224 0.87121 0.0
C1261 C 0.5048 0.63544 0.94843 0.0
C1262 C 0.49473 0.60617 0.95048 0.0
C1263 C 0.4887 0.65075 0.9328 0.0
C1264 C 0.42658 0.6432 0.87899 0.0
H1265 H 0.34903 0.75142 0.865 0.0
H1266 H 0.37794 0.72478 0.8909 0.0
H1267 H 0.39698 0.64893 0.84667 0.0
H1268 H 0.45937 0.57045 0.9364 0.0
H1269 H 0.43177 0.59679 0.90914 0.0
H1270 H 0.4547 0.69136 0.9296 0.0
C1271 C 0.37646 0.72203 0.86961 0.0
C1272 C 0.40964 0.65874 0.86459 0.0
C1273 C 0.3596 0.73735 0.85465 0.0
C1274 C 0.46836 0.59277 0.93533 0.0
C1275 C 0.45232 0.60808 0.91958 0.0
C1276 C 0.44252 0.6818 0.91138 0.0
C1277 C 0.39062 0.70304 0.85736 0.0
C1278 C 0.40865 0.68618 0.87323 0.0
C1279 C 0.46179 0.63754 0.91836 0.0
C1280 C 0.44353 0.65437 0.9027 0.0
H1281 H 0.36905 0.71267 0.79335 0.0
H1282 H 0.39802 0.68653 0.81896 0.0
H1283 H 0.42575 0.71827 0.90457 0.0
H1284 H 0.52475 0.64688 0.95973 0.0
H1285 H 0.49739 0.67317 0.93224 0.0
C1286 C 0.29952 0.33922 0.87672 0.0
C1287 C 0.30691 0.34576 0.851 0.0
C1288 C 0.3118 0.35784 0.8981 0.0
C1289 C 0.35817 0.42782 0.91959 0.0
H1290 H 0.40558 0.38563 0.95833 0.0
C1291 C 0.47414 0.47878 0.96483 0.0
C1292 C 0.48685 0.46647 0.98552 0.0
C1293 C 0.44557 0.46664 0.95416 0.0
C1294 C 0.3921 0.39786 0.94852 0.0
H1295 H 0.32996 0.37828 0.82716 0.0
H1296 H 0.35176 0.41075 0.86469 0.0
H1297 H 0.36386 0.36098 0.92919 0.0
H1298 H 0.47927 0.43325 0.0128 0.0
H1299 H 0.42876 0.41258 0.99501 0.0
H1300 H 0.38672 0.46482 0.93868 0.0
C1301 C 0.33645 0.39121 0.86824 0.0
C1302 C 0.36811 0.38362 0.93169 0.0
C1303 C 0.3242 0.37251 0.84678 0.0
C1304 C 0.4701 0.44264 0.99633 0.0
C1305 C 0.44119 0.43087 0.98612 0.0
C1306 C 0.38186 0.44213 0.93695 0.0
C1307 C 0.33158 0.38333 0.89411 0.0
C1308 C 0.35173 0.39849 0.91627 0.0
C1309 C 0.4288 0.44229 0.96441 0.0
C1310 C 0.39998 0.42736 0.95067 0.0
H1311 H 0.28583 0.31896 0.8806 0.0
H1312 H 0.30754 0.35146 0.91789 0.0
H1313 H 0.34567 0.43967 0.90798 0.0
H1314 H 0.48665 0.49732 0.95629 0.0
H1315 H 0.43721 0.47582 0.93717 0.0
C1316 C 0.76756 0.44184 0.81749 0.0
C1317 C 0.75006 0.44352 0.79427 0.0
C1318 C 0.76381 0.45564 0.841 0.0
C1319 C 0.70097 0.47183 0.86948 0.0
H1320 H 0.75449 0.49257 0.93255 0.0
C1321 C 0.65745 0.45606 0.96994 0.0
C1322 C 0.66387 0.47997 0.98738 0.0
C1323 C 0.67344 0.45528 0.94797 0.0
C1324 C 0.73938 0.487 0.91503 0.0
H1325 H 0.7182 0.46422 0.77658 0.0
H1326 H 0.71196 0.48882 0.81762 0.0
H1327 H 0.77431 0.49077 0.88926 0.0
H1328 H 0.69398 0.52073 0.99676 0.0
H1329 H 0.722 0.51917 0.95822 0.0
H1330 H 0.66613 0.46739 0.89501 0.0
C1331 C 0.72794 0.47612 0.8178 0.0
C1332 C 0.75067 0.48597 0.89031 0.0
C1333 C 0.73155 0.46214 0.79429 0.0
C1334 C 0.68841 0.50199 0.98369 0.0
C1335 C 0.70446 0.50117 0.96161 0.0
C1336 C 0.6898 0.47268 0.89403 0.0
C1337 C 0.74254 0.47144 0.8417 0.0
C1338 C 0.73151 0.47783 0.86731 0.0
C1339 C 0.69619 0.47835 0.94297 0.0
C1340 C 0.70883 0.47953 0.91709 0.0
H1341 H 0.78191 0.42756 0.81824 0.0
H1342 H 0.77542 0.45151 0.85899 0.0
H1343 H 0.68551 0.46499 0.85234 0.0
H1344 H 0.63897 0.43858 0.97239 0.0
H1345 H 0.66709 0.43713 0.93416 0.0
C1346 C 0.73671 0.33328 0.2361 0.0
C1347 C 0.76737 0.33749 0.23441 0.0
C1348 C 0.71978 0.34796 0.22068 0.0
C1349 C 0.72569 0.41037 0.17745 0.0
H1350 H 0.64352 0.37526 0.15786 0.0
C1351 C 0.64863 0.4719 0.12163 0.0
C1352 C 0.62563 0.45708 0.10331 0.0
C1353 C 0.66507 0.45777 0.13831 0.0
C1354 C 0.66646 0.38556 0.16279 0.0
H1355 H 0.8038 0.36105 0.21441 0.0
H1356 H 0.77447 0.38613 0.18725 0.0
H1357 H 0.67356 0.3502 0.1834 0.0
H1358 H 0.6022 0.41501 0.0891 0.0
H1359 H 0.63053 0.39069 0.11759 0.0
H1360 H 0.71876 0.44537 0.156 0.0
C1361 C 0.76336 0.37174 0.20095 0.0
C1362 C 0.68387 0.37113 0.17803 0.0
C1363 C 0.78038 0.35709 0.21653 0.0
C1364 C 0.61931 0.42749 0.10299 0.0
C1365 C 0.6358 0.41337 0.11957 0.0
C1366 C 0.70828 0.42478 0.1621 0.0
C1367 C 0.73259 0.36751 0.20262 0.0
C1368 C 0.71393 0.38315 0.18583 0.0
C1369 C 0.65942 0.42812 0.13739 0.0
C1370 C 0.67819 0.41275 0.15437 0.0
H1371 H 0.72556 0.31864 0.24961 0.0
H1372 H 0.69651 0.34414 0.22338 0.0
H1373 H 0.74844 0.42092 0.18298 0.0
H1374 H 0.65458 0.49462 0.12264 0.0
H1375 H 0.68244 0.47031 0.15189 0.0
C1376 C 0.70987 0.75386 0.22409 0.0
C1377 C 0.72672 0.74932 0.24656 0.0
C1378 C 0.68772 0.73204 0.2121 0.0
C1379 C 0.68058 0.65873 0.20004 0.0
H1380 H 0.61411 0.66611 0.15362 0.0
C1381 C 0.6234 0.58398 0.10856 0.0
C1382 C 0.6185 0.59896 0.08634 0.0
C1383 C 0.63486 0.5984 0.13267 0.0
C1384 C 0.63252 0.66367 0.16663 0.0
H1385 H 0.73173 0.71979 0.27607 0.0
H1386 H 0.69303 0.68127 0.25479 0.0
H1387 H 0.63056 0.69871 0.19208 0.0
H1388 H 0.62549 0.64035 0.07089 0.0
H1389 H 0.64574 0.66533 0.11279 0.0
H1390 H 0.6833 0.62446 0.17367 0.0
C1391 C 0.69696 0.70167 0.24647 0.0
C1392 C 0.64175 0.68214 0.18867 0.0
C1393 C 0.71892 0.72372 0.25871 0.0
C1394 C 0.62853 0.62829 0.0878 0.0
C1395 C 0.63982 0.64259 0.11179 0.0
C1396 C 0.67119 0.64009 0.17801 0.0
C1397 C 0.68239 0.70525 0.22226 0.0
C1398 C 0.66682 0.68078 0.20478 0.0
C1399 C 0.64151 0.62781 0.13464 0.0
C1400 C 0.64808 0.64344 0.16047 0.0
H1401 H 0.71547 0.77354 0.21453 0.0
H1402 H 0.67698 0.73546 0.1934 0.0
H1403 H 0.70016 0.65732 0.21198 0.0
H1404 H 0.61595 0.56133 0.10799 0.0
H1405 H 0.63647 0.58665 0.15006 0.0
C1406 C 0.45575 0.71337 0.23734 0.0
C1407 C 0.43641 0.70227 0.25619 0.0
C1408 C 0.45921 0.69657 0.21569 0.0
C1409 C 0.41623 0.63539 0.1753 0.0
H1410 H 0.48711 0.64726 0.13809 0.0
C1411 C 0.45954 0.62539 0.06621 0.0
C1412 C 0.45609 0.59643 0.06162 0.0
C1413 C 0.45128 0.63576 0.08956 0.0
C1414 C 0.46714 0.64387 0.1483 0.0
H1415 H 0.40746 0.66432 0.26845 0.0
H1416 H 0.41432 0.63475 0.23106 0.0
H1417 H 0.48952 0.6679 0.1827 0.0
H1418 H 0.43773 0.55538 0.07571 0.0
H1419 H 0.42296 0.57371 0.11674 0.0
H1420 H 0.3941 0.61104 0.14058 0.0
C1421 C 0.42622 0.6566 0.23267 0.0
C1422 C 0.46853 0.65561 0.1738 0.0
C1423 C 0.42267 0.67346 0.25429 0.0
C1424 C 0.44044 0.57781 0.07882 0.0
C1425 C 0.43218 0.58825 0.10233 0.0
C1426 C 0.41495 0.6233 0.14979 0.0
C1427 C 0.44353 0.66829 0.2126 0.0
C1428 C 0.44295 0.65216 0.18732 0.0
C1429 C 0.43945 0.61727 0.10851 0.0
C1430 C 0.44026 0.6282 0.13592 0.0
H1431 H 0.46682 0.73546 0.23849 0.0
H1432 H 0.47265 0.7063 0.20054 0.0
H1433 H 0.39605 0.6326 0.1851 0.0
H1434 H 0.47141 0.64008 0.05309 0.0
H1435 H 0.45661 0.65825 0.09388 0.0
C1436 C 0.37793 0.36063 0.23729 0.0
C1437 C 0.34871 0.34608 0.2296 0.0
C1438 C 0.39545 0.37658 0.21948 0.0
C1439 C 0.39119 0.40921 0.15454 0.0
H1440 H 0.47541 0.41544 0.15998 0.0
C1441 C 0.46652 0.48793 0.0941 0.0
C1442 C 0.49085 0.48084 0.0835 0.0
C1443 C 0.45079 0.47144 0.11248 0.0
C1444 C 0.45191 0.41373 0.15794 0.0
H1445 H 0.31512 0.33684 0.19692 0.0
H1446 H 0.34575 0.36397 0.16564 0.0
H1447 H 0.44447 0.38626 0.18973 0.0
H1448 H 0.51833 0.45119 0.08449 0.0
H1449 H 0.49017 0.42153 0.11629 0.0
H1450 H 0.39829 0.43558 0.12209 0.0
C1451 C 0.35505 0.36374 0.18567 0.0
C1452 C 0.43411 0.39727 0.17534 0.0
C1453 C 0.33738 0.34807 0.20364 0.0
C1454 C 0.49974 0.45722 0.09243 0.0
C1455 C 0.48356 0.44028 0.11067 0.0
C1456 C 0.40888 0.42535 0.13701 0.0
C1457 C 0.38445 0.37819 0.19327 0.0
C1458 C 0.40346 0.39498 0.17412 0.0
C1459 C 0.45842 0.44688 0.12054 0.0
C1460 C 0.43961 0.42827 0.13864 0.0
H1461 H 0.38739 0.3597 0.25717 0.0
H1462 H 0.41761 0.38781 0.22643 0.0
H1463 H 0.36786 0.40837 0.15295 0.0
H1464 H 0.45937 0.50627 0.08793 0.0
H1465 H 0.43238 0.47797 0.1202 0.0
C1466 C 0.86652 0.74634 0.72208 0.0
C1467 C 0.86682 0.74522 0.74979 0.0
C1468 C 0.88302 0.73168 0.70711 0.0
C1469 C 0.91852 0.6709 0.70757 0.0
H1470 H 0.96185 0.70726 0.65122 0.0
C1471 C 0.97238 0.61011 0.62974 0.0
C1472 C 1.00088 0.62316 0.62283 0.0
C1473 C 0.95641 0.62452 0.64565 0.0
C1474 C 0.94998 0.69666 0.66688 0.0
H1475 H 0.88509 0.72699 0.78309 0.0
H1476 H 0.91307 0.70088 0.75703 0.0
H1477 H 0.93388 0.73276 0.67766 0.0
H1478 H 1.03434 0.66231 0.62761 0.0
H1479 H 1.00642 0.68739 0.6545 0.0
H1480 H 0.93423 0.6346 0.69644 0.0
C1481 C 0.90016 0.71339 0.74683 0.0
C1482 C 0.93364 0.71133 0.68204 0.0
C1483 C 0.88413 0.72856 0.76189 0.0
C1484 C 1.01261 0.65127 0.63238 0.0
C1485 C 0.99641 0.66583 0.64779 0.0
C1486 C 0.93436 0.656 0.69202 0.0
C1487 C 0.90009 0.71476 0.71912 0.0
C1488 C 0.91766 0.69884 0.70281 0.0
C1489 C 0.96798 0.65278 0.65484 0.0
C1490 C 0.95057 0.66861 0.67142 0.0
H1491 H 0.85367 0.75887 0.71181 0.0
H1492 H 0.88199 0.7333 0.68592 0.0
H1493 H 0.90649 0.66027 0.72314 0.0
H1494 H 0.96236 0.58858 0.62295 0.0
H1495 H 0.93462 0.61358 0.65034 0.0
C1496 C 0.48285 0.79496 0.68191 0.0
C1497 C 0.45533 0.78273 0.66834 0.0
C1498 C 0.50571 0.81087 0.66863 0.0
C1499 C 0.52608 0.83387 0.60151 0.0
H1500 H 0.55271 0.90715 0.63821 0.0
C1501 C 0.53186 0.93683 0.55299 0.0
C1502 C 0.55593 0.95965 0.55949 0.0
C1503 C 0.52994 0.91173 0.56537 0.0
C1504 C 0.54617 0.88667 0.62787 0.0
H1505 H 0.4311 0.77598 0.62977 0.0
H1506 H 0.47043 0.80341 0.6069 0.0
H1507 H 0.53105 0.86677 0.66256 0.0
H1508 H 0.59703 0.97459 0.58356 0.0
H1509 H 0.59293 0.93074 0.60643 0.0
H1510 H 0.53886 0.85459 0.56636 0.0
C1511 C 0.47479 0.80057 0.62766 0.0
C1512 C 0.53381 0.86343 0.64182 0.0
C1513 C 0.45205 0.78474 0.64087 0.0
C1514 C 0.5783 0.95707 0.57833 0.0
C1515 C 0.57598 0.93213 0.59132 0.0
C1516 C 0.5381 0.85719 0.58752 0.0
C1517 C 0.50146 0.81483 0.64154 0.0
C1518 C 0.52216 0.83704 0.62853 0.0
C1519 C 0.55171 0.90929 0.58494 0.0
C1520 C 0.54689 0.88398 0.60039 0.0
H1521 H 0.48627 0.79336 0.703 0.0
H1522 H 0.52618 0.82117 0.67982 0.0
H1523 H 0.51801 0.81371 0.59081 0.0
H1524 H 0.51441 0.93852 0.53848 0.0
H1525 H 0.51073 0.8946 0.56047 0.0
C1526 C 0.24119 0.32602 0.72063 0.0
C1527 C 0.23676 0.32232 0.74745 0.0
C1528 C 0.22391 0.33983 0.70513 0.0
C1529 C 0.17902 0.39152 0.70866 0.0
H1530 H 0.15152 0.36293 0.63693 0.0
C1531 C 0.1446 0.45945 0.62745 0.0
C1532 C 0.12099 0.44716 0.60882 0.0
C1533 C 0.15463 0.44347 0.64659 0.0
C1534 C 0.1587 0.37107 0.65701 0.0
H1535 H 0.2105 0.33038 0.77896 0.0
H1536 H 0.18045 0.3549 0.75184 0.0
H1537 H 0.1767 0.33594 0.66572 0.0
H1538 H 0.08863 0.40854 0.59656 0.0
H1539 H 0.10631 0.38058 0.62993 0.0
H1540 H 0.16148 0.42694 0.69973 0.0
C1541 C 0.19737 0.34699 0.74288 0.0
C1542 C 0.17341 0.35572 0.67343 0.0
C1543 C 0.21451 0.33283 0.75838 0.0
C1544 C 0.10688 0.4187 0.61054 0.0
C1545 C 0.11715 0.40261 0.62956 0.0
C1546 C 0.16454 0.40703 0.69213 0.0
C1547 C 0.20184 0.35058 0.71602 0.0
C1548 C 0.18412 0.36592 0.69935 0.0
C1549 C 0.1415 0.41469 0.64752 0.0
C1550 C 0.15451 0.39716 0.66597 0.0
H1551 H 0.25807 0.3182 0.71148 0.0
H1552 H 0.22822 0.34254 0.68463 0.0
H1553 H 0.1871 0.40005 0.72846 0.0
H1554 H 0.15592 0.48134 0.62684 0.0
H1555 H 0.17355 0.45344 0.65996 0.0
C1556 C 0.80115 0.21895 0.71722 0.0
C1557 C 0.77996 0.23436 0.72152 0.0
C1558 C 0.79763 0.20017 0.69503 0.0
C1559 C 0.75751 0.18449 0.62876 0.0
H1560 H 0.76064 0.10728 0.63752 0.0
C1561 C 0.68487 0.07422 0.58598 0.0
C1562 C 0.67793 0.08226 0.56065 0.0
C1563 C 0.70942 0.08991 0.60155 0.0
C1564 C 0.75988 0.12881 0.63462 0.0
H1565 H 0.73852 0.24201 0.70579 0.0
H1566 H 0.73244 0.20958 0.66766 0.0
H1567 H 0.779 0.14245 0.67391 0.0
H1568 H 0.69279 0.11075 0.53041 0.0
H1569 H 0.73674 0.13738 0.55695 0.0
H1570 H 0.73638 0.17099 0.59055 0.0
C1571 C 0.75196 0.21213 0.68111 0.0
C1572 C 0.77066 0.14901 0.65544 0.0
C1573 C 0.75532 0.23059 0.70321 0.0
C1574 C 0.69795 0.10393 0.54979 0.0
C1575 C 0.7228 0.11949 0.56525 0.0
C1576 C 0.74667 0.1644 0.60809 0.0
C1577 C 0.77306 0.19678 0.67662 0.0
C1578 C 0.76823 0.17678 0.65312 0.0
C1579 C 0.72754 0.11401 0.59201 0.0
C1580 C 0.7464 0.13599 0.61111 0.0
H1581 H 0.82038 0.22134 0.73098 0.0
H1582 H 0.81422 0.18857 0.69213 0.0
H1583 H 0.75591 0.20586 0.62618 0.0
H1584 H 0.6694 0.05787 0.59491 0.0
H1585 H 0.71206 0.08489 0.62196 0.0
C1586 C 0.83738 0.37129 0.35532 0.0
C1587 C 0.85512 0.36017 0.33873 0.0
C1588 C 0.85006 0.39188 0.37525 0.0
C1589 C 0.91985 0.44344 0.39897 0.0
H1590 H 0.89041 0.43122 0.46797 0.0
C1591 C 0.9725 0.46213 0.51027 0.0
C1592 C 0.99098 0.48906 0.5093 0.0
C1593 C 0.94935 0.45212 0.49097 0.0
C1594 C 0.89874 0.43512 0.4488 0.0
H1595 H 0.90018 0.3627 0.32973 0.0
H1596 H 0.92228 0.39831 0.36463 0.0
H1597 H 0.86434 0.40225 0.42971 0.0
H1598 H 0.99819 0.52765 0.48889 0.0
H1599 H 0.95747 0.51017 0.45496 0.0
H1600 H 0.95521 0.47519 0.41831 0.0
C1601 C 0.8985 0.39137 0.36203 0.0
C1602 C 0.88368 0.41862 0.42679 0.0
C1603 C 0.88582 0.37076 0.3421 0.0
C1604 C 0.98412 0.50687 0.49019 0.0
C1605 C 0.96106 0.49671 0.47058 0.0
C1606 C 0.93489 0.45996 0.42097 0.0
C1607 C 0.88081 0.40192 0.3791 0.0
C1608 C 0.89456 0.422 0.40173 0.0
C1609 C 0.94434 0.46875 0.47008 0.0
C1610 C 0.92503 0.4554 0.44629 0.0
H1611 H 0.81363 0.36378 0.35323 0.0
H1612 H 0.83576 0.39978 0.3878 0.0
H1613 H 0.92856 0.44692 0.37989 0.0
H1614 H 0.9774 0.44798 0.52479 0.0
H1615 H 0.93711 0.43048 0.4912 0.0
C1616 C 0.78103 0.8631 0.32226 0.0
C1617 C 0.77658 0.85704 0.29487 0.0
C1618 C 0.76878 0.88315 0.33411 0.0
C1619 C 0.75216 0.93491 0.35415 0.0
H1620 H 0.67032 0.93235 0.33394 0.0
C1621 C 0.68794 0.99577 0.41642 0.0
C1622 C 0.65988 0.98031 0.42181 0.0
C1623 C 0.70283 0.98629 0.39647 0.0
C1624 C 0.6932 0.93334 0.33981 0.0
H1625 H 0.75625 0.86774 0.25831 0.0
H1626 H 0.73498 0.90312 0.27915 0.0
H1627 H 0.69625 0.9049 0.30784 0.0
H1628 H 0.62505 0.94326 0.40991 0.0
H1629 H 0.65127 0.92633 0.37589 0.0
H1630 H 0.74862 0.96166 0.38715 0.0
C1631 C 0.74772 0.89204 0.29142 0.0
C1632 C 0.70818 0.91789 0.32464 0.0
C1633 C 0.75995 0.87183 0.27951 0.0
C1634 C 0.64663 0.95571 0.40627 0.0
C1635 C 0.6616 0.94612 0.38653 0.0
C1636 C 0.73713 0.95012 0.36944 0.0
C1637 C 0.75192 0.89782 0.3189 0.0
C1638 C 0.73754 0.91776 0.33218 0.0
C1639 C 0.69007 0.96103 0.38166 0.0
C1640 C 0.70719 0.9488 0.36294 0.0
H1641 H 0.79367 0.8521 0.33472 0.0
H1642 H 0.77193 0.88658 0.35538 0.0
H1643 H 0.77498 0.93574 0.36014 0.0
H1644 H 0.69859 1.01501 0.42783 0.0
H1645 H 0.72453 0.99853 0.39294 0.0
C1646 C 0.21484 0.73849 0.34474 0.0
C1647 C 0.24511 0.7401 0.34336 0.0
C1648 C 0.19873 0.72211 0.36344 0.0
C1649 C 0.20911 0.69246 0.42829 0.0
H1650 H 0.1348 0.63859 0.40948 0.0
C1651 C 0.16451 0.60507 0.49725 0.0
C1652 C 0.13405 0.59474 0.49892 0.0
C1653 C 0.17538 0.62444 0.47875 0.0
C1654 C 0.15527 0.65383 0.41527 0.0
H1655 H 0.28192 0.72557 0.36097 0.0
H1656 H 0.25423 0.69781 0.39338 0.0
H1657 H 0.15832 0.66935 0.37628 0.0
H1658 H 0.09115 0.59645 0.48162 0.0
H1659 H 0.11011 0.63106 0.44944 0.0
H1660 H 0.2063 0.67754 0.46713 0.0
C1661 C 0.24281 0.70907 0.38005 0.0
C1662 C 0.16881 0.67146 0.39614 0.0
C1663 C 0.2587 0.72496 0.36123 0.0
C1664 C 0.11469 0.6045 0.48136 0.0
C1665 C 0.12565 0.62406 0.46265 0.0
C1666 C 0.19551 0.67517 0.44738 0.0
C1667 C 0.21262 0.70741 0.38155 0.0
C1668 C 0.19631 0.69054 0.40225 0.0
C1669 C 0.15626 0.63441 0.4611 0.0
C1670 C 0.16876 0.65497 0.44111 0.0
H1671 H 0.20356 0.74976 0.33131 0.0
H1672 H 0.17553 0.72138 0.36406 0.0
H1673 H 0.22993 0.70729 0.43392 0.0
H1674 H 0.18023 0.59799 0.51023 0.0
H1675 H 0.19902 0.63107 0.47798 0.0
C1676 C 0.50437 0.26699 0.35719 0.0
C1677 C 0.47978 0.25747 0.33887 0.0
C1678 C 0.52008 0.24824 0.36703 0.0
C1679 C 0.49947 0.17476 0.38097 0.0
H1680 H 0.57787 0.19037 0.41652 0.0
C1681 C 0.52781 0.10342 0.46003 0.0
C1682 C 0.54445 0.11704 0.48285 0.0
C1683 C 0.52532 0.11808 0.43739 0.0
C1684 C 0.55584 0.18578 0.40681 0.0
H1685 H 0.45552 0.22177 0.31339 0.0
H1686 H 0.48375 0.18961 0.32966 0.0
H1687 H 0.5664 0.22136 0.38306 0.0
H1688 H 0.57195 0.15649 0.49981 0.0
H1689 H 0.5663 0.18256 0.4608 0.0
H1690 H 0.48816 0.14043 0.40561 0.0
C1691 C 0.49009 0.21128 0.33726 0.0
C1692 C 0.54935 0.20344 0.38755 0.0
C1693 C 0.4741 0.2299 0.32769 0.0
C1694 C 0.55878 0.14554 0.48254 0.0
C1695 C 0.55588 0.16035 0.46003 0.0
C1696 C 0.50583 0.15739 0.40036 0.0
C1697 C 0.5117 0.21974 0.35844 0.0
C1698 C 0.52085 0.19848 0.37486 0.0
C1699 C 0.53899 0.14683 0.4372 0.0
C1700 C 0.53382 0.16313 0.41409 0.0
H1701 H 0.50993 0.28835 0.36559 0.0
H1702 H 0.53683 0.25561 0.38314 0.0
H1703 H 0.47709 0.17056 0.37209 0.0
H1704 H 0.5172 0.08125 0.45944 0.0
H1705 H 0.51265 0.10683 0.42003 0.0
C1706 C 0.68523 0.77086 0.62682 0.0
C1707 C 0.71515 0.77047 0.63068 0.0
C1708 C 0.67602 0.7872 0.60776 0.0
C1709 C 0.7059 0.85501 0.58953 0.0
H1710 H 0.6359 0.84623 0.54181 0.0
C1711 C 0.67111 0.94976 0.54554 0.0
C1712 C 0.64098 0.94743 0.53933 0.0
C1713 C 0.68087 0.92682 0.55455 0.0
C1714 C 0.65529 0.84909 0.55542 0.0
H1715 H 0.7576 0.78275 0.61436 0.0
H1716 H 0.74163 0.81253 0.58193 0.0
H1717 H 0.65125 0.8047 0.5562 0.0
H1718 H 0.59729 0.91996 0.53941 0.0
H1719 H 0.61402 0.8809 0.55723 0.0
H1720 H 0.709 0.89902 0.59064 0.0
C1721 C 0.72553 0.80028 0.59383 0.0
C1722 C 0.66428 0.8253 0.56322 0.0
C1723 C 0.73465 0.78344 0.61252 0.0
C1724 C 0.62067 0.92245 0.54412 0.0
C1725 C 0.63034 0.89982 0.55383 0.0
C1726 C 0.6966 0.87873 0.58225 0.0
C1727 C 0.6966 0.80358 0.59253 0.0
C1728 C 0.68953 0.82814 0.58046 0.0
C1729 C 0.66062 0.9013 0.55812 0.0
C1730 C 0.67098 0.87608 0.56534 0.0
H1731 H 0.66947 0.76121 0.64031 0.0
H1732 H 0.65356 0.78948 0.60705 0.0
H1733 H 0.72507 0.85762 0.60343 0.0
H1734 H 0.68733 0.96862 0.54174 0.0
H1735 H 0.70436 0.92877 0.55744 0.0
C1736 C 0.59928 0.21629 0.31774 0.0
C1737 C 0.62182 0.21662 0.30087 0.0
C1738 C 0.57968 0.19096 0.32197 0.0
C1739 C 0.55745 0.1353 0.34385 0.0
H1740 H 0.62022 0.09629 0.34446 0.0
C1741 C 0.58392 0.06745 0.42929 0.0
C1742 C 0.61399 0.07405 0.43823 0.0
C1743 C 0.57445 0.07777 0.40592 0.0
C1744 C 0.60237 0.10682 0.34444 0.0
H1745 H 0.63544 0.1929 0.26915 0.0
H1746 H 0.59986 0.14955 0.27517 0.0
H1747 H 0.61427 0.1257 0.30892 0.0
H1748 H 0.65762 0.09706 0.43014 0.0
H1749 H 0.64118 0.11522 0.38933 0.0
H1750 H 0.54764 0.11771 0.38102 0.0
C1751 C 0.59899 0.16808 0.287 0.0
C1752 C 0.59845 0.12347 0.32365 0.0
C1753 C 0.61929 0.19322 0.28328 0.0
C1754 C 0.63438 0.0915 0.42363 0.0
C1755 C 0.62495 0.10163 0.40015 0.0
C1756 C 0.56159 0.11868 0.36485 0.0
C1757 C 0.58231 0.16588 0.30912 0.0
C1758 C 0.57744 0.13978 0.32408 0.0
C1759 C 0.59494 0.09464 0.39092 0.0
C1760 C 0.58542 0.10593 0.36612 0.0
H1761 H 0.59945 0.23454 0.33044 0.0
H1762 H 0.56591 0.19075 0.33811 0.0
H1763 H 0.54022 0.14651 0.34442 0.0
H1764 H 0.56762 0.05426 0.44038 0.0
H1765 H 0.55122 0.07224 0.39941 0.0
C1766 C 0.94551 0.73503 0.38897 0.0
C1767 C 0.93086 0.7256 0.36414 0.0
C1768 C 0.97021 0.72588 0.39772 0.0
C1769 C 0.99912 0.66399 0.38856 0.0
H1770 H 0.05113 0.70281 0.44782 0.0
C1771 C 1.01742 0.60927 0.48068 0.0
C1772 C 1.04209 0.6195 0.49863 0.0
C1773 C 1.01445 0.6223 0.45719 0.0
C1774 C 1.03754 0.69161 0.43089 0.0
H1775 H 0.93193 0.70078 0.32814 0.0
H1776 H 0.97577 0.68554 0.3431 0.0
H1777 H 1.02867 0.72948 0.41712 0.0
H1778 H 0.08389 0.65046 0.50531 0.0
H1779 H 0.079 0.67273 0.46395 0.0
H1780 H 1.00794 0.62612 0.40236 0.0
C1781 C 0.9677 0.69949 0.35608 0.0
C1782 C 1.02428 0.70695 0.41345 0.0
C1783 C 0.94269 0.70839 0.34745 0.0
C1784 C 0.06433 0.64233 0.49207 0.0
C1785 C 0.06157 0.6551 0.46834 0.0
C1786 C 1.01295 0.64872 0.40562 0.0
C1787 C 0.98114 0.70735 0.38169 0.0
C1788 C 1.00305 0.69305 0.39346 0.0
C1789 C 1.03626 0.64566 0.45088 0.0
C1790 C 1.03035 0.66213 0.42819 0.0
H1791 H 0.93741 0.7489 0.40202 0.0
H1792 H 0.97958 0.73214 0.41771 0.0
H1793 H 0.98323 0.6525 0.37318 0.0
H1794 H 0.99996 0.59165 0.48505 0.0
H1795 H 0.99427 0.61477 0.44463 0.0
C1796 C 0.32332 0.88276 0.34316 0.0
C1797 C 0.32362 0.85488 0.34822 0.0
C1798 C 0.33575 0.90458 0.36211 0.0
C1799 C 0.38653 0.94427 0.39537 0.0
H1800 H 0.38981 0.93215 0.47028 0.0
C1801 C 0.48264 0.96013 0.47875 0.0
C1802 C 0.49776 0.9881 0.47652 0.0
C1803 C 0.45342 0.95065 0.46864 0.0
C1804 C 0.38878 0.93614 0.44948 0.0
H1805 H 0.33544 0.8279 0.37772 0.0
H1806 H 0.35732 0.8656 0.41029 0.0
H1807 H 0.3508 0.90219 0.44057 0.0
H1808 H 0.49405 0.02861 0.4635 0.0
H1809 H 0.44277 1.01171 0.44485 0.0
H1810 H 0.42548 0.97721 0.40413 0.0
C1811 C 0.34732 0.87081 0.39193 0.0
C1812 C 0.36657 0.91892 0.43245 0.0
C1813 C 0.33504 0.84913 0.37307 0.0
C1814 C 0.48266 1.00696 0.46554 0.0
C1815 C 0.45348 0.9973 0.45482 0.0
C1816 C 0.40863 0.96164 0.41246 0.0
C1817 C 0.3485 0.89887 0.3865 0.0
C1818 C 0.36623 0.92176 0.40503 0.0
C1819 C 0.43891 0.96883 0.45559 0.0
C1820 C 0.41088 0.95671 0.43945 0.0
H1821 H 0.3144 0.88786 0.32428 0.0
H1822 H 0.33608 0.92595 0.35741 0.0
H1823 H 0.38702 0.94702 0.37438 0.0
H1824 H 0.4939 0.94526 0.4872 0.0
H1825 H 0.44294 0.92855 0.46928 0.0
C1826 C 0.23731 0.34726 0.32631 0.0
C1827 C 0.26567 0.34299 0.33213 0.0
C1828 C 0.22432 0.36224 0.34426 0.0
C1829 C 0.24076 0.40901 0.40759 0.0
H1830 H 0.15575 0.38997 0.40687 0.0
C1831 C 0.17918 0.47064 0.47658 0.0
C1832 C 0.15169 0.45663 0.48484 0.0
C1833 C 0.19347 0.45773 0.4579 0.0
C1834 C 0.17956 0.3955 0.40784 0.0
H1835 H 0.30241 0.35144 0.36194 0.0
H1836 H 0.27963 0.37649 0.39346 0.0
H1837 H 0.17938 0.36573 0.37603 0.0
H1838 H 0.11838 0.41738 0.48001 0.0
H1839 H 0.14336 0.39476 0.4488 0.0
H1840 H 0.24088 0.43781 0.4404 0.0
C1841 C 0.2675 0.36905 0.37467 0.0
C1842 C 0.1933 0.38177 0.38951 0.0
C1843 C 0.28067 0.35443 0.3565 0.0
C1844 C 0.13928 0.42916 0.47406 0.0
C1845 C 0.15369 0.41614 0.45577 0.0
C1846 C 0.227 0.4225 0.42621 0.0
C1847 C 0.23891 0.37316 0.36904 0.0
C1848 C 0.22423 0.3882 0.38888 0.0
C1849 C 0.181 0.43016 0.44703 0.0
C1850 C 0.19605 0.41602 0.4268 0.0
H1851 H 0.22501 0.33902 0.30775 0.0
H1852 H 0.20273 0.36529 0.33844 0.0
H1853 H 0.26452 0.41519 0.40788 0.0
H1854 H 0.18951 0.49181 0.48426 0.0
H1855 H 0.21414 0.4697 0.45172 0.0
C1856 C 0.42453 0.24207 0.69269 0.0
C1857 C 0.43852 0.2571 0.71597 0.0
C1858 C 0.43364 0.21893 0.68295 0.0
C1859 C 0.49595 0.18689 0.68321 0.0
H1860 H 0.43654 0.11949 0.65903 0.0
C1861 C 0.53103 0.09636 0.6336 0.0
C1862 C 0.51523 0.08645 0.60931 0.0
C1863 C 0.51938 0.11165 0.65187 0.0
C1864 C 0.45338 0.13815 0.66567 0.0
H1865 H 0.47349 0.26026 0.74693 0.0
H1866 H 0.48978 0.21979 0.72959 0.0
H1867 H 0.42181 0.15911 0.67979 0.0
H1868 H 0.47403 0.08251 0.58582 0.0
H1869 H 0.4539 0.11005 0.61734 0.0
H1870 H 0.52742 0.16678 0.66812 0.0
C1871 C 0.47166 0.22594 0.71903 0.0
C1872 C 0.44495 0.1608 0.67752 0.0
C1873 C 0.46237 0.24901 0.72893 0.0
C1874 C 0.48652 0.08985 0.60452 0.0
C1875 C 0.47504 0.10563 0.62262 0.0
C1876 C 0.50436 0.16438 0.6712 0.0
C1877 C 0.45701 0.21042 0.69621 0.0
C1878 C 0.46613 0.18555 0.68592 0.0
C1879 C 0.49199 0.11785 0.64591 0.0
C1880 C 0.48313 0.13992 0.66186 0.0
H1881 H 0.40577 0.24752 0.68252 0.0
H1882 H 0.4223 0.20759 0.66507 0.0
H1883 H 0.51268 0.20583 0.6893 0.0
H1884 H 0.55312 0.09366 0.63781 0.0
H1885 H 0.53261 0.12003 0.66998 0.0
C1886 C 0.85425 0.34597 0.71474 0.0
C1887 C 0.86023 0.33865 0.74066 0.0
C1888 C 0.8769 0.36059 0.70041 0.0
C1889 C 0.94995 0.40924 0.7093 0.0
H1890 H 0.95207 0.3923 0.63446 0.0
C1891 C 1.00304 0.49038 0.6378 0.0
C1892 C 1.0187 0.48235 0.61748 0.0
C1893 C 0.98893 0.47078 0.65472 0.0
C1894 C 0.95208 0.39706 0.65543 0.0
H1895 H 0.89505 0.3408 0.77163 0.0
H1896 H 0.93448 0.36667 0.7467 0.0
H1897 H 0.91653 0.36129 0.65971 0.0
H1898 H 1.03269 0.44758 0.59948 0.0
H1899 H 1.00727 0.4128 0.62897 0.0
H1900 H 0.98481 0.44551 0.70484 0.0
C1901 C 0.91219 0.36104 0.7375 0.0
C1902 C 0.9315 0.37948 0.66984 0.0
C1903 C 0.88956 0.34614 0.75176 0.0
C1904 C 1.02093 0.45436 0.61508 0.0
C1905 C 1.00621 0.43448 0.6318 0.0
C1906 C 0.97027 0.42698 0.69484 0.0
C1907 C 0.90612 0.36854 0.71167 0.0
C1908 C 0.92981 0.38564 0.69686 0.0
C1909 C 0.98966 0.44245 0.65155 0.0
C1910 C 0.97122 0.42141 0.66763 0.0
H1911 H 0.83198 0.34052 0.70548 0.0
H1912 H 0.87137 0.36631 0.68069 0.0
H1913 H 0.94918 0.41471 0.73002 0.0
H1914 H 1.00098 0.51182 0.64015 0.0
H1915 H 0.97621 0.47761 0.66951 0.0
C1916 C 0.2157 0.69465 0.7851 0.0
C1917 C 0.24075 0.70074 0.7707 0.0
C1918 C 0.19396 0.66974 0.77921 0.0
C1919 C 0.14552 0.63377 0.74035 0.0
H1920 H 0.16677 0.56935 0.70831 0.0
C1921 C 0.12141 0.60466 0.63405 0.0
C1922 C 0.12249 0.57836 0.62295 0.0
C1923 C 0.12283 0.60942 0.66129 0.0
C1924 C 0.15966 0.58649 0.71765 0.0
H1925 H 0.26418 0.68482 0.74076 0.0
H1926 H 0.22677 0.64172 0.73056 0.0
H1927 H 0.19807 0.59642 0.74474 0.0
H1928 H 0.12339 0.53567 0.63185 0.0
H1929 H 0.12596 0.54412 0.67962 0.0
H1930 H 0.10804 0.62486 0.71218 0.0
C1931 C 0.22357 0.65584 0.74636 0.0
C1932 C 0.17782 0.60216 0.73851 0.0
C1933 C 0.24486 0.68078 0.75187 0.0
C1934 C 0.12286 0.55632 0.63975 0.0
C1935 C 0.12425 0.56111 0.66714 0.0
C1936 C 0.12708 0.61784 0.71973 0.0
C1937 C 0.19742 0.6504 0.7593 0.0
C1938 C 0.17245 0.62749 0.74813 0.0
C1939 C 0.12548 0.58805 0.67825 0.0
C1940 C 0.13565 0.5958 0.70645 0.0
H1941 H 0.21217 0.70976 0.79983 0.0
H1942 H 0.17398 0.66612 0.78938 0.0
H1943 H 0.14047 0.65292 0.74769 0.0
H1944 H 0.12093 0.62209 0.62178 0.0
H1945 H 0.12418 0.63059 0.66896 0.0
loop_
_geom_bond_atom_site_label_1
_geom_bond_atom_site_label_2
_geom_bond_distance
_geom_bond_site_symmetry_2
_ccdc_geom_bond_type
Dy0 O3 2.307 . S
Dy0 O5 2.395 . S
Dy0 O6 2.379 . S
Dy0 O8 2.339 . S
Dy0 O10 2.298 . S
Dy0 O14 2.275 . S
Dy0 C22 2.738 . S
Dy1 O4 2.298 . S
Dy1 O7 2.275 . S
Dy1 O9 2.307 . S
Dy1 O11 2.395 . S
Dy1 O12 2.379 . S
Dy1 O15 2.339 . S
Dy1 C31 2.738 . S
C2 O14 1.254 . S
C2 O15 1.257 . S
O3 Dy0 2.307 . S
O3 C13 1.266 . S
O4 Dy1 2.298 . S
O4 C13 1.236 . S
O5 Dy0 2.395 . S
O5 C22 1.255 . S
O6 Dy0 2.379 . S
O6 C22 1.249 . S
O7 Dy1 2.275 . S
O7 C23 1.254 . S
O8 Dy0 2.339 . S
O8 C23 1.257 . S
O9 Dy1 2.307 . S
O9 C24 1.266 . S
O10 Dy0 2.298 . S
O10 C24 1.236 . S
O11 Dy1 2.395 . S
O11 C31 1.255 . S
O12 Dy1 2.379 . S
O12 C31 1.249 . S
C13 O3 1.266 . S
C13 O4 1.236 . S
O14 Dy0 2.275 . S
O14 C2 1.254 . S
O15 Dy1 2.339 . S
O15 C2 1.257 . S
C16 C19 1.344 . S
C16 C20 1.328 . S
C16 C22 1.516 . S
C17 C18 1.304 . S
C17 C21 1.323 . S
C18 C17 1.304 . S
C18 C19 1.371 . S
C18 H32 0.930 . S
C19 C16 1.344 . S
C19 C18 1.371 . S
C19 H33 0.931 . S
C20 C16 1.328 . S
C20 C21 1.433 . S
C20 H34 0.931 . S
C21 C17 1.323 . S
C21 C20 1.433 . S
C21 H35 0.933 . S
C22 Dy0 2.738 . S
C22 O5 1.255 . S
C22 O6 1.249 . S
C22 C16 1.516 . S
C23 O7 1.254 . S
C23 O8 1.257 . S
C24 O9 1.266 . S
C24 O10 1.236 . S
C25 C28 1.344 . S
C25 C29 1.328 . S
C25 C31 1.516 . S
C26 C27 1.304 . S
C26 C30 1.323 . S
C27 C26 1.304 . S
C27 C28 1.371 . S
C27 H36 0.930 . S
C28 C25 1.344 . S
C28 C27 1.371 . S
C28 H37 0.931 . S
C29 C25 1.328 . S
C29 C30 1.433 . S
C29 H38 0.931 . S
C30 C26 1.323 . S
C30 C29 1.433 . S
C30 H39 0.933 . S
C31 Dy1 2.738 . S
C31 O11 1.255 . S
C31 O12 1.249 . S
C31 C25 1.516 . S
H32 C18 0.930 . S
H33 C19 0.931 . S
H34 C20 0.931 . S
H35 C21 0.933 . S
H36 C27 0.930 . S
H37 C28 0.931 . S
H38 C29 0.931 . S
H39 C30 0.933 . S
Dy40 O43 2.307 . S
Dy40 O45 2.395 . S
Dy40 O46 2.379 . S
Dy40 O48 2.339 . S
Dy40 O50 2.298 . S
Dy40 O54 2.275 . S
Dy40 C62 2.738 . S
Dy41 O44 2.298 . S
Dy41 O47 2.275 . S
Dy41 O49 2.307 . S
Dy41 O51 2.395 . S
Dy41 O52 2.379 . S
Dy41 O55 2.339 . S
Dy41 C71 2.738 . S
C42 O54 1.254 . S
C42 O55 1.257 . S
O43 Dy40 2.307 . S
O43 C53 1.266 . S
O44 Dy41 2.298 . S
O44 C53 1.236 . S
O45 Dy40 2.395 . S
O45 C62 1.255 . S
O46 Dy40 2.379 . S
O46 C62 1.249 . S
O47 Dy41 2.275 . S
O47 C63 1.254 . S
O48 Dy40 2.339 . S
O48 C63 1.257 . S
O49 Dy41 2.307 . S
O49 C64 1.266 . S
O50 Dy40 2.298 . S
O50 C64 1.236 . S
O51 Dy41 2.395 . S
O51 C71 1.255 . S
O52 Dy41 2.379 . S
O52 C71 1.249 . S
C53 O43 1.266 . S
C53 O44 1.236 . S
O54 Dy40 2.275 . S
O54 C42 1.254 . S
O55 Dy41 2.339 . S
O55 C42 1.257 . S
C56 C59 1.344 . S
C56 C60 1.328 . S
C56 C62 1.516 . S
C57 C58 1.304 . S
C57 C61 1.323 . S
C58 C57 1.304 . S
C58 C59 1.371 . S
C58 H72 0.930 . S
C59 C56 1.344 . S
C59 C58 1.371 . S
C59 H73 0.931 . S
C60 C56 1.328 . S
C60 C61 1.433 . S
C60 H74 0.931 . S
C61 C57 1.323 . S
C61 C60 1.433 . S
C61 H75 0.933 . S
C62 Dy40 2.738 . S
C62 O45 1.255 . S
C62 O46 1.249 . S
C62 C56 1.516 . S
C63 O47 1.254 . S
C63 O48 1.257 . S
C64 O49 1.266 . S
C64 O50 1.236 . S
C65 C68 1.344 . S
C65 C69 1.328 . S
C65 C71 1.516 . S
C66 C67 1.304 . S
C66 C70 1.323 . S
C67 C66 1.304 . S
C67 C68 1.371 . S
C67 H76 0.930 . S
C68 C65 1.344 . S
C68 C67 1.371 . S
C68 H77 0.931 . S
C69 C65 1.328 . S
C69 C70 1.433 . S
C69 H78 0.931 . S
C70 C66 1.323 . S
C70 C69 1.433 . S
C70 H79 0.933 . S
C71 Dy41 2.738 . S
C71 O51 1.255 . S
C71 O52 1.249 . S
C71 C65 1.516 . S
H72 C58 0.930 . S
H73 C59 0.931 . S
H74 C60 0.931 . S
H75 C61 0.933 . S
H76 C67 0.930 . S
H77 C68 0.931 . S
H78 C69 0.931 . S
H79 C70 0.933 . S
Dy80 O83 2.307 . S
Dy80 O85 2.395 . S
Dy80 O86 2.379 . S
Dy80 O88 2.339 . S
Dy80 O90 2.298 . S
Dy80 O94 2.275 . S
Dy80 C102 2.738 . S
Dy81 O84 2.298 . S
Dy81 O87 2.275 . S
Dy81 O89 2.307 . S
Dy81 O91 2.395 . S
Dy81 O92 2.379 . S
Dy81 O95 2.339 . S
Dy81 C111 2.738 . S
C82 O94 1.254 . S
C82 O95 1.257 . S
O83 Dy80 2.307 . S
O83 C93 1.266 . S
O84 Dy81 2.298 . S
O84 C93 1.236 . S
O85 Dy80 2.395 . S
O85 C102 1.255 . S
O86 Dy80 2.379 . S
O86 C102 1.249 . S
O87 Dy81 2.275 . S
O87 C103 1.254 . S
O88 Dy80 2.339 . S
O88 C103 1.257 . S
O89 Dy81 2.307 . S
O89 C104 1.266 . S
O90 Dy80 2.298 . S
O90 C104 1.236 . S
O91 Dy81 2.395 . S
O91 C111 1.255 . S
O92 Dy81 2.379 . S
O92 C111 1.249 . S
C93 O83 1.266 . S
C93 O84 1.236 . S
O94 Dy80 2.275 . S
O94 C82 1.254 . S
O95 Dy81 2.339 . S
O95 C82 1.257 . S
C96 C99 1.344 . S
C96 C100 1.328 . S
C96 C102 1.516 . S
C97 C98 1.304 . S
C97 C101 1.323 . S
C98 C97 1.304 . S
C98 C99 1.371 . S
C98 H112 0.930 . S
C99 C96 1.344 . S
C99 C98 1.371 . S
C99 H113 0.931 . S
C100 C96 1.328 . S
C100 C101 1.433 . S
C100 H114 0.931 . S
C101 C97 1.323 . S
C101 C100 1.433 . S
C101 H115 0.933 . S
C102 Dy80 2.738 . S
C102 O85 1.255 . S
C102 O86 1.249 . S
C102 C96 1.516 . S
C103 O87 1.254 . S
C103 O88 1.257 . S
C104 O89 1.266 . S
C104 O90 1.236 . S
C105 C108 1.344 . S
C105 C109 1.328 . S
C105 C111 1.516 . S
C106 C107 1.304 . S
C106 C110 1.323 . S
C107 C106 1.304 . S
C107 C108 1.371 . S
C107 H116 0.930 . S
C108 C105 1.344 . S
C108 C107 1.371 . S
C108 H117 0.931 . S
C109 C105 1.328 . S
C109 C110 1.433 . S
C109 H118 0.931 . S
C110 C106 1.323 . S
C110 C109 1.433 . S
C110 H119 0.933 . S
C111 Dy81 2.738 . S
C111 O91 1.255 . S
C111 O92 1.249 . S
C111 C105 1.516 . S
H112 C98 0.930 . S
H113 C99 0.931 . S
H114 C100 0.931 . S
H115 C101 0.933 . S
H116 C107 0.930 . S
H117 C108 0.931 . S
H118 C109 0.931 . S
H119 C110 0.933 . S
Dy120 O123 2.307 . S
Dy120 O125 2.395 . S
Dy120 O126 2.379 . S
Dy120 O128 2.339 . S
Dy120 O130 2.298 . S
Dy120 O134 2.275 . S
Dy120 C142 2.738 . S
Dy121 O124 2.298 . S
Dy121 O127 2.275 . S
Dy121 O129 2.307 . S
Dy121 O131 2.395 . S
Dy121 O132 2.379 . S
Dy121 O135 2.339 . S
Dy121 C151 2.738 . S
C122 O134 1.254 . S
C122 O135 1.257 . S
O123 Dy120 2.307 . S
O123 C133 1.266 . S
O124 Dy121 2.298 . S
O124 C133 1.236 . S
O125 Dy120 2.395 . S
O125 C142 1.255 . S
O126 Dy120 2.379 . S
O126 C142 1.249 . S
O127 Dy121 2.275 . S
O127 C143 1.254 . S
O128 Dy120 2.339 . S
O128 C143 1.257 . S
O129 Dy121 2.307 . S
O129 C144 1.266 . S
O130 Dy120 2.298 . S
O130 C144 1.236 . S
O131 Dy121 2.395 . S
O131 C151 1.255 . S
O132 Dy121 2.379 . S
O132 C151 1.249 . S
C133 O123 1.266 . S
C133 O124 1.236 . S
O134 Dy120 2.275 . S
O134 C122 1.254 . S
O135 Dy121 2.339 . S
O135 C122 1.257 . S
C136 C139 1.344 . S
C136 C140 1.328 . S
C136 C142 1.516 . S
C137 C138 1.304 . S
C137 C141 1.323 . S
C138 C137 1.304 . S
C138 C139 1.371 . S
C138 H152 0.930 . S
C139 C136 1.344 . S
C139 C138 1.371 . S
C139 H153 0.931 . S
C140 C136 1.328 . S
C140 C141 1.433 . S
C140 H154 0.931 . S
C141 C137 1.323 . S
C141 C140 1.433 . S
C141 H155 0.933 . S
C142 Dy120 2.738 . S
C142 O125 1.255 . S
C142 O126 1.249 . S
C142 C136 1.516 . S
C143 O127 1.254 . S
C143 O128 1.257 . S
C144 O129 1.266 . S
C144 O130 1.236 . S
C145 C148 1.344 . S
C145 C149 1.328 . S
C145 C151 1.516 . S
C146 C147 1.304 . S
C146 C150 1.323 . S
C147 C146 1.304 . S
C147 C148 1.371 . S
C147 H156 0.930 . S
C148 C145 1.344 . S
C148 C147 1.371 . S
C148 H157 0.931 . S
C149 C145 1.328 . S
C149 C150 1.433 . S
C149 H158 0.931 . S
C150 C146 1.323 . S
C150 C149 1.433 . S
C150 H159 0.933 . S
C151 Dy121 2.738 . S
C151 O131 1.255 . S
C151 O132 1.249 . S
C151 C145 1.516 . S
H152 C138 0.930 . S
H153 C139 0.931 . S
H154 C140 0.931 . S
H155 C141 0.933 . S
H156 C147 0.930 . S
H157 C148 0.931 . S
H158 C149 0.931 . S
H159 C150 0.933 . S
Dy160 O163 2.307 . S
Dy160 O165 2.395 . S
Dy160 O166 2.379 . S
Dy160 O168 2.339 . S
Dy160 O170 2.298 . S
Dy160 O174 2.275 . S
Dy160 C182 2.738 . S
Dy161 O164 2.298 . S
Dy161 O167 2.275 . S
Dy161 O169 2.307 . S
Dy161 O171 2.395 . S
Dy161 O172 2.379 . S
Dy161 O175 2.339 . S
Dy161 C191 2.738 . S
C162 O174 1.254 . S
C162 O175 1.257 . S
O163 Dy160 2.307 . S
O163 C173 1.266 . S
O164 Dy161 2.298 . S
O164 C173 1.236 . S
O165 Dy160 2.395 . S
O165 C182 1.255 . S
O166 Dy160 2.379 . S
O166 C182 1.249 . S
O167 Dy161 2.275 . S
O167 C183 1.254 . S
O168 Dy160 2.339 . S
O168 C183 1.257 . S
O169 Dy161 2.307 . S
O169 C184 1.266 . S
O170 Dy160 2.298 . S
O170 C184 1.236 . S
O171 Dy161 2.395 . S
O171 C191 1.255 . S
O172 Dy161 2.379 . S
O172 C191 1.249 . S
C173 O163 1.266 . S
C173 O164 1.236 . S
O174 Dy160 2.275 . S
O174 C162 1.254 . S
O175 Dy161 2.339 . S
O175 C162 1.257 . S
C176 C179 1.344 . S
C176 C180 1.328 . S
C176 C182 1.516 . S
C177 C178 1.304 . S
C177 C181 1.323 . S
C178 C177 1.304 . S
C178 C179 1.371 . S
C178 H192 0.930 . S
C179 C176 1.344 . S
C179 C178 1.371 . S
C179 H193 0.931 . S
C180 C176 1.328 . S
C180 C181 1.433 . S
C180 H194 0.931 . S
C181 C177 1.323 . S
C181 C180 1.433 . S
C181 H195 0.933 . S
C182 Dy160 2.738 . S
C182 O165 1.255 . S
C182 O166 1.249 . S
C182 C176 1.516 . S
C183 O167 1.254 . S
C183 O168 1.257 . S
C184 O169 1.266 . S
C184 O170 1.236 . S
C185 C188 1.344 . S
C185 C189 1.328 . S
C185 C191 1.516 . S
C186 C187 1.304 . S
C186 C190 1.323 . S
C187 C186 1.304 . S
C187 C188 1.371 . S
C187 H196 0.930 . S
C188 C185 1.344 . S
C188 C187 1.371 . S
C188 H197 0.931 . S
C189 C185 1.328 . S
C189 C190 1.433 . S
C189 H198 0.931 . S
C190 C186 1.323 . S
C190 C189 1.433 . S
C190 H199 0.933 . S
C191 Dy161 2.738 . S
C191 O171 1.255 . S
C191 O172 1.249 . S
C191 C185 1.516 . S
H192 C178 0.930 . S
H193 C179 0.931 . S
H194 C180 0.931 . S
H195 C181 0.933 . S
H196 C187 0.930 . S
H197 C188 0.931 . S
H198 C189 0.931 . S
H199 C190 0.933 . S
Dy200 O203 2.307 . S
Dy200 O205 2.395 . S
Dy200 O206 2.379 . S
Dy200 O208 2.339 . S
Dy200 O210 2.298 . S
Dy200 O214 2.275 . S
Dy200 C222 2.738 . S
Dy201 O204 2.298 . S
Dy201 O207 2.275 . S
Dy201 O209 2.307 . S
Dy201 O211 2.395 . S
Dy201 O212 2.379 . S
Dy201 O215 2.339 . S
Dy201 C231 2.738 . S
C202 O214 1.254 . S
C202 O215 1.257 . S
O203 Dy200 2.307 . S
O203 C213 1.266 . S
O204 Dy201 2.298 . S
O204 C213 1.236 . S
O205 Dy200 2.395 . S
O205 C222 1.255 . S
O206 Dy200 2.379 . S
O206 C222 1.249 . S
O207 Dy201 2.275 . S
O207 C223 1.254 . S
O208 Dy200 2.339 . S
O208 C223 1.257 . S
O209 Dy201 2.307 . S
O209 C224 1.266 . S
O210 Dy200 2.298 . S
O210 C224 1.236 . S
O211 Dy201 2.395 . S
O211 C231 1.255 . S
O212 Dy201 2.379 . S
O212 C231 1.249 . S
C213 O203 1.266 . S
C213 O204 1.236 . S
O214 Dy200 2.275 . S
O214 C202 1.254 . S
O215 Dy201 2.339 . S
O215 C202 1.257 . S
C216 C219 1.344 . S
C216 C220 1.328 . S
C216 C222 1.516 . S
C217 C218 1.304 . S
C217 C221 1.323 . S
C218 C217 1.304 . S
C218 C219 1.371 . S
C218 H232 0.930 . S
C219 C216 1.344 . S
C219 C218 1.371 . S
C219 H233 0.931 . S
C220 C216 1.328 . S
C220 C221 1.433 . S
C220 H234 0.931 . S
C221 C217 1.323 . S
C221 C220 1.433 . S
C221 H235 0.933 . S
C222 Dy200 2.738 . S
C222 O205 1.255 . S
C222 O206 1.249 . S
C222 C216 1.516 . S
C223 O207 1.254 . S
C223 O208 1.257 . S
C224 O209 1.266 . S
C224 O210 1.236 . S
C225 C228 1.344 . S
C225 C229 1.328 . S
C225 C231 1.516 . S
C226 C227 1.304 . S
C226 C230 1.323 . S
C227 C226 1.304 . S
C227 C228 1.371 . S
C227 H236 0.930 . S
C228 C225 1.344 . S
C228 C227 1.371 . S
C228 H237 0.931 . S
C229 C225 1.328 . S
C229 C230 1.433 . S
C229 H238 0.931 . S
C230 C226 1.323 . S
C230 C229 1.433 . S
C230 H239 0.933 . S
C231 Dy201 2.738 . S
C231 O211 1.255 . S
C231 O212 1.249 . S
C231 C225 1.516 . S
H232 C218 0.930 . S
H233 C219 0.931 . S
H234 C220 0.931 . S
H235 C221 0.933 . S
H236 C227 0.930 . S
H237 C228 0.931 . S
H238 C229 0.931 . S
H239 C230 0.933 . S
Dy240 O243 2.307 . S
Dy240 O245 2.395 . S
Dy240 O246 2.379 . S
Dy240 O248 2.339 . S
Dy240 O250 2.298 . S
Dy240 O254 2.275 . S
Dy240 C262 2.738 . S
Dy241 O244 2.298 . S
Dy241 O247 2.275 . S
Dy241 O249 2.307 . S
Dy241 O251 2.395 . S
Dy241 O252 2.379 . S
Dy241 O255 2.339 . S
Dy241 C271 2.738 . S
C242 O254 1.254 . S
C242 O255 1.257 . S
O243 Dy240 2.307 . S
O243 C253 1.266 . S
O244 Dy241 2.298 . S
O244 C253 1.236 . S
O245 Dy240 2.395 . S
O245 C262 1.255 . S
O246 Dy240 2.379 . S
O246 C262 1.249 . S
O247 Dy241 2.275 . S
O247 C263 1.254 . S
O248 Dy240 2.339 . S
O248 C263 1.257 . S
O249 Dy241 2.307 . S
O249 C264 1.266 . S
O250 Dy240 2.298 . S
O250 C264 1.236 . S
O251 Dy241 2.395 . S
O251 C271 1.255 . S
O252 Dy241 2.379 . S
O252 C271 1.249 . S
C253 O243 1.266 . S
C253 O244 1.236 . S
O254 Dy240 2.275 . S
O254 C242 1.254 . S
O255 Dy241 2.339 . S
O255 C242 1.257 . S
C256 C259 1.344 . S
C256 C260 1.328 . S
C256 C262 1.516 . S
C257 C258 1.304 . S
C257 C261 1.323 . S
C258 C257 1.304 . S
C258 C259 1.371 . S
C258 H272 0.930 . S
C259 C256 1.344 . S
C259 C258 1.371 . S
C259 H273 0.931 . S
C260 C256 1.328 . S
C260 C261 1.433 . S
C260 H274 0.931 . S
C261 C257 1.323 . S
C261 C260 1.433 . S
C261 H275 0.933 . S
C262 Dy240 2.738 . S
C262 O245 1.255 . S
C262 O246 1.249 . S
C262 C256 1.516 . S
C263 O247 1.254 . S
C263 O248 1.257 . S
C264 O249 1.266 . S
C264 O250 1.236 . S
C265 C268 1.344 . S
C265 C269 1.328 . S
C265 C271 1.516 . S
C266 C267 1.304 . S
C266 C270 1.323 . S
C267 C266 1.304 . S
C267 C268 1.371 . S
C267 H276 0.930 . S
C268 C265 1.344 . S
C268 C267 1.371 . S
C268 H277 0.931 . S
C269 C265 1.328 . S
C269 C270 1.433 . S
C269 H278 0.931 . S
C270 C266 1.323 . S
C270 C269 1.433 . S
C270 H279 0.933 . S
C271 Dy241 2.738 . S
C271 O251 1.255 . S
C271 O252 1.249 . S
C271 C265 1.516 . S
H272 C258 0.930 . S
H273 C259 0.931 . S
H274 C260 0.931 . S
H275 C261 0.933 . S
H276 C267 0.930 . S
H277 C268 0.931 . S
H278 C269 0.931 . S
H279 C270 0.933 . S
Dy280 O283 2.307 . S
Dy280 O285 2.395 . S
Dy280 O286 2.379 . S
Dy280 O288 2.339 . S
Dy280 O290 2.298 . S
Dy280 O294 2.275 . S
Dy280 C302 2.738 . S
Dy281 O284 2.298 . S
Dy281 O287 2.275 . S
Dy281 O289 2.307 . S
Dy281 O291 2.395 . S
Dy281 O292 2.379 . S
Dy281 O295 2.339 . S
Dy281 C311 2.738 . S
C282 O294 1.254 . S
C282 O295 1.257 . S
O283 Dy280 2.307 . S
O283 C293 1.266 . S
O284 Dy281 2.298 . S
O284 C293 1.236 . S
O285 Dy280 2.395 . S
O285 C302 1.255 . S
O286 Dy280 2.379 . S
O286 C302 1.249 . S
O287 Dy281 2.275 . S
O287 C303 1.254 . S
O288 Dy280 2.339 . S
O288 C303 1.257 . S
O289 Dy281 2.307 . S
O289 C304 1.266 . S
O290 Dy280 2.298 . S
O290 C304 1.236 . S
O291 Dy281 2.395 . S
O291 C311 1.255 . S
O292 Dy281 2.379 . S
O292 C311 1.249 . S
C293 O283 1.266 . S
C293 O284 1.236 . S
O294 Dy280 2.275 . S
O294 C282 1.254 . S
O295 Dy281 2.339 . S
O295 C282 1.257 . S
C296 C299 1.344 . S
C296 C300 1.328 . S
C296 C302 1.516 . S
C297 C298 1.304 . S
C297 C301 1.323 . S
C298 C297 1.304 . S
C298 C299 1.371 . S
C298 H312 0.930 . S
C299 C296 1.344 . S
C299 C298 1.371 . S
C299 H313 0.931 . S
C300 C296 1.328 . S
C300 C301 1.433 . S
C300 H314 0.931 . S
C301 C297 1.323 . S
C301 C300 1.433 . S
C301 H315 0.933 . S
C302 Dy280 2.738 . S
C302 O285 1.255 . S
C302 O286 1.249 . S
C302 C296 1.516 . S
C303 O287 1.254 . S
C303 O288 1.257 . S
C304 O289 1.266 . S
C304 O290 1.236 . S
C305 C308 1.344 . S
C305 C309 1.328 . S
C305 C311 1.516 . S
C306 C307 1.304 . S
C306 C310 1.323 . S
C307 C306 1.304 . S
C307 C308 1.371 . S
C307 H316 0.930 . S
C308 C305 1.344 . S
C308 C307 1.371 . S
C308 H317 0.931 . S
C309 C305 1.328 . S
C309 C310 1.433 . S
C309 H318 0.931 . S
C310 C306 1.323 . S
C310 C309 1.433 . S
C310 H319 0.933 . S
C311 Dy281 2.738 . S
C311 O291 1.255 . S
C311 O292 1.249 . S
C311 C305 1.516 . S
H312 C298 0.930 . S
H313 C299 0.931 . S
H314 C300 0.931 . S
H315 C301 0.933 . S
H316 C307 0.930 . S
H317 C308 0.931 . S
H318 C309 0.931 . S
H319 C310 0.933 . S
C320 O332 1.241 . S
C320 O333 1.280 . S
C321 O334 1.277 . S
C321 O335 1.245 . S
C322 O346 1.247 . S
C322 O348 1.289 . S
Mg323 O324 1.926 1_455 S
Mg323 O333 1.984 1_455 S
Mg323 O335 1.988 1_455 S
Mg323 O336 2.061 . S
O324 Mg323 1.926 1_655 S
O324 Mg325 1.986 . S
O324 Mg326 1.917 1_655 S
Mg325 O324 1.986 . S
Mg325 O332 2.042 . S
Mg325 O334 2.041 . S
Mg325 O340 2.038 1_545 S
Mg325 O348 2.238 1_545 S
Mg326 O324 1.917 1_455 S
Mg326 O327 1.917 1_545 S
Mg326 O337 2.106 . S
Mg326 O339 2.079 1_545 S
Mg326 O348 2.106 1_445 S
Mg326 O349 2.079 . S
O327 Mg326 1.917 1_565 S
O327 Mg328 1.926 . S
O327 Mg329 1.986 1_565 S
Mg328 O327 1.926 . S
Mg328 O342 1.984 . S
Mg328 O345 1.988 . S
Mg328 O346 2.061 1_455 S
Mg329 O327 1.986 1_545 S
Mg329 O337 2.238 . S
Mg329 O341 2.042 1_545 S
Mg329 O343 2.041 1_545 S
Mg329 O350 2.038 . S
C330 O336 1.247 . S
C330 O337 1.289 . S
C331 O349 1.245 . S
C331 O350 1.274 . S
O332 C320 1.241 . S
O332 Mg325 2.042 . S
O333 C320 1.280 . S
O333 Mg323 1.984 1_655 S
O334 C321 1.277 . S
O334 Mg325 2.041 . S
O335 C321 1.245 . S
O335 Mg323 1.988 1_655 S
O336 Mg323 2.061 . S
O336 C330 1.247 . S
O337 Mg326 2.106 . S
O337 Mg329 2.238 . S
O337 C330 1.289 . S
C338 O339 1.245 1_655 S
C338 O340 1.274 . S
O339 Mg326 2.079 1_565 S
O339 C338 1.245 1_455 S
O340 Mg325 2.038 1_565 S
O340 C338 1.274 . S
O341 Mg329 2.042 1_565 S
O341 C344 1.241 . S
O342 Mg328 1.984 . S
O342 C344 1.280 . S
O343 Mg329 2.041 1_565 S
O343 C347 1.277 . S
C344 O341 1.241 . S
C344 O342 1.280 . S
O345 Mg328 1.988 . S
O345 C347 1.245 . S
O346 C322 1.247 . S
O346 Mg328 2.061 1_655 S
C347 O343 1.277 . S
C347 O345 1.245 . S
O348 C322 1.289 . S
O348 Mg325 2.238 1_565 S
O348 Mg326 2.106 1_665 S
O349 Mg326 2.079 . S
O349 C331 1.245 . S
O350 Mg329 2.038 . S
O350 C331 1.274 . S
C351 O363 1.241 . S
C351 O364 1.280 . S
C352 O365 1.277 . S
C352 O366 1.245 . S
C353 O377 1.247 . S
C353 O379 1.289 1_565 S
Mg354 O355 1.926 . S
Mg354 O364 1.984 . S
Mg354 O366 1.988 1_554 S
Mg354 O367 2.061 . S
O355 Mg354 1.926 . S
O355 Mg356 1.986 1_554 S
O355 Mg357 1.923 . S
Mg356 O355 1.986 1_556 S
Mg356 O363 2.042 1_556 S
Mg356 O365 2.041 . S
Mg356 O371 2.038 1_556 S
Mg356 O379 2.238 . S
Mg357 O355 1.923 . S
Mg357 O358 1.911 1_554 S
Mg357 O368 2.118 . S
Mg357 O370 2.098 . S
Mg357 O379 2.095 1_554 S
Mg357 O380 2.059 1_554 S
O358 Mg357 1.911 1_556 S
O358 Mg359 1.926 1_545 S
O358 Mg360 1.986 1_556 S
Mg359 O358 1.926 1_565 S
Mg359 O373 1.984 . S
Mg359 O376 1.988 1_556 S
Mg359 O377 2.061 . S
Mg360 O358 1.986 1_554 S
Mg360 O368 2.238 . S
Mg360 O372 2.042 1_554 S
Mg360 O374 2.041 . S
Mg360 O381 2.038 1_554 S
C361 O367 1.247 . S
C361 O368 1.289 . S
C362 O380 1.245 . S
C362 O381 1.274 . S
O363 C351 1.241 . S
O363 Mg356 2.042 1_554 S
O364 C351 1.280 . S
O364 Mg354 1.984 . S
O365 C352 1.277 . S
O365 Mg356 2.041 . S
O366 C352 1.245 . S
O366 Mg354 1.988 1_556 S
O367 Mg354 2.061 . S
O367 C361 1.247 . S
O368 Mg357 2.118 . S
O368 Mg360 2.238 . S
O368 C361 1.289 . S
C369 O370 1.245 . S
C369 O371 1.274 . S
O370 Mg357 2.098 . S
O370 C369 1.245 . S
O371 Mg356 2.038 1_554 S
O371 C369 1.274 . S
O372 Mg360 2.042 1_556 S
O372 C375 1.241 1_545 S
O373 Mg359 1.984 . S
O373 C375 1.280 . S
O374 Mg360 2.041 . S
O374 C378 1.277 1_545 S
C375 O372 1.241 1_565 S
C375 O373 1.280 . S
O376 Mg359 1.988 1_554 S
O376 C378 1.245 . S
O377 C353 1.247 . S
O377 Mg359 2.061 . S
C378 O374 1.277 1_565 S
C378 O376 1.245 . S
O379 C353 1.289 1_545 S
O379 Mg356 2.238 . S
O379 Mg357 2.095 1_556 S
O380 Mg357 2.059 1_556 S
O380 C362 1.245 . S
O381 Mg360 2.038 1_556 S
O381 C362 1.274 . S
C382 O394 1.241 . S
C382 O395 1.280 . S
C383 O396 1.277 . S
C383 O397 1.245 . S
C384 O408 1.247 1_556 S
C384 O410 1.289 1_556 S
Mg385 O386 1.926 . S
Mg385 O395 1.984 . S
Mg385 O397 1.988 . S
Mg385 O398 2.061 1_655 S
O386 Mg385 1.926 . S
O386 Mg387 1.986 . S
O386 Mg388 1.917 1_655 S
Mg387 O386 1.986 . S
Mg387 O394 2.042 . S
Mg387 O396 2.041 . S
Mg387 O402 2.038 . S
Mg387 O410 2.238 . S
Mg388 O386 1.917 1_455 S
Mg388 O389 1.917 . S
Mg388 O399 2.106 . S
Mg388 O401 2.079 1_455 S
Mg388 O410 2.106 1_455 S
Mg388 O411 2.079 . S
O389 Mg388 1.917 . S
O389 Mg390 1.926 . S
O389 Mg391 1.986 . S
Mg390 O389 1.926 . S
Mg390 O404 1.984 . S
Mg390 O407 1.988 . S
Mg390 O408 2.061 1_455 S
Mg391 O389 1.986 . S
Mg391 O399 2.238 . S
Mg391 O403 2.042 . S
Mg391 O405 2.041 . S
Mg391 O412 2.038 . S
C392 O398 1.247 . S
C392 O399 1.289 . S
C393 O411 1.245 . S
C393 O412 1.274 . S
O394 C382 1.241 . S
O394 Mg387 2.042 . S
O395 C382 1.280 . S
O395 Mg385 1.984 . S
O396 C383 1.277 . S
O396 Mg387 2.041 . S
O397 C383 1.245 . S
O397 Mg385 1.988 . S
O398 Mg385 2.061 1_455 S
O398 C392 1.247 . S
O399 Mg388 2.106 . S
O399 Mg391 2.238 . S
O399 C392 1.289 . S
C400 O401 1.245 . S
C400 O402 1.274 . S
O401 Mg388 2.079 1_655 S
O401 C400 1.245 . S
O402 Mg387 2.038 . S
O402 C400 1.274 . S
O403 Mg391 2.042 . S
O403 C406 1.242 1_554 S
O404 Mg390 1.984 . S
O404 C406 1.280 1_554 S
O405 Mg391 2.041 . S
O405 C409 1.277 . S
C406 O403 1.242 1_556 S
C406 O404 1.280 1_556 S
O407 Mg390 1.988 . S
O407 C409 1.245 . S
O408 C384 1.247 1_554 S
O408 Mg390 2.061 1_655 S
C409 O405 1.277 . S
C409 O407 1.245 . S
O410 C384 1.289 1_554 S
O410 Mg387 2.238 . S
O410 Mg388 2.106 1_655 S
O411 Mg388 2.079 . S
O411 C393 1.245 . S
O412 Mg391 2.038 . S
O412 C393 1.274 . S
C413 O425 1.241 . S
C413 O426 1.280 . S
C414 O427 1.277 . S
C414 O428 1.245 . S
C415 O439 1.247 . S
C415 O441 1.289 . S
Mg416 O417 1.926 . S
Mg416 O426 1.984 . S
Mg416 O428 1.988 1_554 S
Mg416 O429 2.061 . S
O417 Mg416 1.926 . S
O417 Mg418 1.986 . S
O417 Mg419 1.917 . S
Mg418 O417 1.986 . S
Mg418 O425 2.042 . S
Mg418 O427 2.041 1_554 S
Mg418 O433 2.038 . S
Mg418 O441 2.238 1_554 S
Mg419 O417 1.917 . S
Mg419 O420 1.917 . S
Mg419 O430 2.106 . S
Mg419 O432 2.079 . S
Mg419 O441 2.106 1_554 S
Mg419 O442 2.079 1_554 S
O420 Mg419 1.917 . S
O420 Mg421 1.926 . S
O420 Mg422 1.986 . S
Mg421 O420 1.926 . S
Mg421 O435 1.984 1_554 S
Mg421 O438 1.988 . S
Mg421 O439 2.061 1_554 S
Mg422 O420 1.986 . S
Mg422 O430 2.238 . S
Mg422 O434 2.042 1_554 S
Mg422 O436 2.041 . S
Mg422 O443 2.038 1_554 S
C423 O429 1.247 . S
C423 O430 1.289 . S
C424 O442 1.245 . S
C424 O443 1.274 . S
O425 C413 1.241 . S
O425 Mg418 2.042 . S
O426 C413 1.280 . S
O426 Mg416 1.984 . S
O427 C414 1.277 . S
O427 Mg418 2.041 1_556 S
O428 C414 1.245 . S
O428 Mg416 1.988 1_556 S
O429 Mg416 2.061 . S
O429 C423 1.247 . S
O430 Mg419 2.106 . S
O430 Mg422 2.238 . S
O430 C423 1.289 . S
C431 O432 1.245 . S
C431 O433 1.274 . S
O432 Mg419 2.079 . S
O432 C431 1.245 . S
O433 Mg418 2.038 . S
O433 C431 1.274 . S
O434 Mg422 2.042 1_556 S
O434 C437 1.241 . S
O435 Mg421 1.984 1_556 S
O435 C437 1.280 . S
O436 Mg422 2.041 . S
O436 C440 1.277 . S
C437 O434 1.241 . S
C437 O435 1.280 . S
O438 Mg421 1.988 . S
O438 C440 1.245 . S
O439 C415 1.247 . S
O439 Mg421 2.061 1_556 S
C440 O436 1.277 . S
C440 O438 1.245 . S
O441 C415 1.289 . S
O441 Mg418 2.238 1_556 S
O441 Mg419 2.106 1_556 S
O442 Mg419 2.079 1_556 S
O442 C424 1.245 . S
O443 Mg422 2.038 1_556 S
O443 C424 1.274 . S
C444 O456 1.241 . S
C444 O457 1.280 . S
C445 O458 1.277 . S
C445 O459 1.245 1_655 S
C446 O470 1.247 1_655 S
C446 O472 1.289 . S
Mg447 O448 1.926 . S
Mg447 O457 1.984 1_455 S
Mg447 O459 1.988 . S
Mg447 O460 2.061 . S
O448 Mg447 1.926 . S
O448 Mg449 1.986 1_455 S
O448 Mg450 1.917 . S
Mg449 O448 1.986 1_655 S
Mg449 O456 2.042 . S
Mg449 O458 2.041 . S
Mg449 O464 2.038 . S
Mg449 O472 2.238 . S
Mg450 O448 1.917 . S
Mg450 O451 1.917 . S
Mg450 O461 2.106 . S
Mg450 O463 2.079 . S
Mg450 O472 2.106 1_455 S
Mg450 O473 2.079 . S
O451 Mg450 1.917 . S
O451 Mg452 1.926 . S
O451 Mg453 1.986 . S
Mg452 O451 1.926 . S
Mg452 O466 1.984 . S
Mg452 O469 1.988 . S
Mg452 O470 2.061 . S
Mg453 O451 1.986 . S
Mg453 O461 2.238 . S
Mg453 O465 2.042 . S
Mg453 O467 2.041 . S
Mg453 O474 2.038 . S
C454 O460 1.247 . S
C454 O461 1.289 . S
C455 O473 1.245 . S
C455 O474 1.274 . S
O456 C444 1.241 . S
O456 Mg449 2.042 . S
O457 C444 1.280 . S
O457 Mg447 1.984 1_655 S
O458 C445 1.277 . S
O458 Mg449 2.041 . S
O459 C445 1.245 1_455 S
O459 Mg447 1.988 . S
O460 Mg447 2.061 . S
O460 C454 1.247 . S
O461 Mg450 2.106 . S
O461 Mg453 2.238 . S
O461 C454 1.289 . S
C462 O463 1.245 1_655 S
C462 O464 1.274 . S
O463 Mg450 2.079 . S
O463 C462 1.245 1_455 S
O464 Mg449 2.038 . S
O464 C462 1.274 . S
O465 Mg453 2.042 . S
O465 C468 1.241 . S
O466 Mg452 1.984 . S
O466 C468 1.280 . S
O467 Mg453 2.041 . S
O467 C471 1.277 . S
C468 O465 1.241 . S
C468 O466 1.280 . S
O469 Mg452 1.988 . S
O469 C471 1.245 . S
O470 C446 1.247 1_455 S
O470 Mg452 2.061 . S
C471 O467 1.277 . S
C471 O469 1.245 . S
O472 C446 1.289 . S
O472 Mg449 2.238 . S
O472 Mg450 2.106 1_655 S
O473 Mg450 2.079 . S
O473 C455 1.245 . S
O474 Mg453 2.038 . S
O474 C455 1.274 . S
C475 O487 1.241 . S
C475 O488 1.280 . S
C476 O489 1.277 . S
C476 O490 1.245 . S
C477 O501 1.247 . S
C477 O503 1.289 . S
Mg478 O479 1.926 . S
Mg478 O488 1.984 . S
Mg478 O490 1.988 . S
Mg478 O491 2.061 . S
O479 Mg478 1.926 . S
O479 Mg480 1.986 . S
O479 Mg481 1.917 . S
Mg480 O479 1.986 . S
Mg480 O487 2.042 . S
Mg480 O489 2.041 . S
Mg480 O495 2.038 1_545 S
Mg480 O503 2.238 1_545 S
Mg481 O479 1.917 . S
Mg481 O482 1.917 1_545 S
Mg481 O492 2.106 . S
Mg481 O494 2.079 1_545 S
Mg481 O503 2.106 1_545 S
Mg481 O504 2.079 . S
O482 Mg481 1.917 1_565 S
O482 Mg483 1.926 . S
O482 Mg484 1.978 1_565 S
Mg483 O482 1.926 . S
Mg483 O497 1.984 . S
Mg483 O500 1.988 . S
Mg483 O501 2.061 . S
Mg484 O482 1.978 1_545 S
Mg484 O492 2.259 . S
Mg484 O496 2.021 1_545 S
Mg484 O498 2.017 1_545 S
Mg484 O505 2.064 . S
C485 O491 1.247 . S
C485 O492 1.289 . S
C486 O504 1.245 . S
C486 O505 1.274 . S
O487 C475 1.241 . S
O487 Mg480 2.042 . S
O488 C475 1.280 . S
O488 Mg478 1.984 . S
O489 C476 1.277 . S
O489 Mg480 2.041 . S
O490 C476 1.245 . S
O490 Mg478 1.988 . S
O491 Mg478 2.061 . S
O491 C485 1.247 . S
O492 Mg481 2.106 . S
O492 Mg484 2.259 . S
O492 C485 1.289 . S
C493 O494 1.245 . S
C493 O495 1.274 . S
O494 Mg481 2.079 1_565 S
O494 C493 1.245 . S
O495 Mg480 2.038 1_565 S
O495 C493 1.274 . S
O496 Mg484 2.021 1_565 S
O496 C499 1.241 . S
O497 Mg483 1.984 . S
O497 C499 1.280 . S
O498 Mg484 2.017 1_565 S
O498 C502 1.277 . S
C499 O496 1.241 . S
C499 O497 1.280 . S
O500 Mg483 1.988 . S
O500 C502 1.245 . S
O501 C477 1.247 . S
O501 Mg483 2.061 . S
C502 O498 1.277 . S
C502 O500 1.245 . S
O503 C477 1.289 . S
O503 Mg480 2.238 1_565 S
O503 Mg481 2.106 1_565 S
O504 Mg481 2.079 . S
O504 C486 1.245 . S
O505 Mg484 2.064 . S
O505 C486 1.274 . S
C506 C507 1.349 . S
C506 C508 1.327 . S
C506 H531 0.950 . S
C507 C506 1.349 . S
C507 C523 1.349 . S
C508 C506 1.327 . S
C508 C527 1.429 . S
C508 H532 0.950 . S
C509 C526 1.574 . S
C509 C528 1.368 . S
C509 H533 0.949 . S
H510 C514 0.949 . S
C511 C512 1.349 . S
C511 C513 1.327 . S
C511 H534 0.950 . S
C512 C511 1.349 . S
C512 C524 1.349 . S
C513 C511 1.327 . S
C513 C529 1.429 . S
C513 H535 0.950 . S
C514 H510 0.949 . S
C514 C522 1.574 . S
C514 C530 1.368 . S
H515 C523 0.950 . S
H516 C521 0.950 . S
H517 C522 0.949 . S
H518 C524 0.950 . S
H519 C525 0.950 . S
H520 C526 0.949 . S
C521 H516 0.950 . S
C521 C523 1.327 . S
C521 C527 1.429 . S
C522 C514 1.574 . S
C522 H517 0.949 . S
C522 C528 1.368 . S
C523 C507 1.349 . S
C523 H515 0.950 . S
C523 C521 1.327 . S
C524 C512 1.349 . S
C524 H518 0.950 . S
C524 C525 1.327 . S
C525 H519 0.950 . S
C525 C524 1.327 . S
C525 C529 1.429 . S
C526 C509 1.574 . S
C526 H520 0.949 . S
C526 C530 1.368 . S
C527 C508 1.429 . S
C527 C521 1.429 . S
C527 C528 1.523 . S
C528 C509 1.368 . S
C528 C522 1.368 . S
C528 C527 1.523 . S
C529 C513 1.429 . S
C529 C525 1.429 . S
C529 C530 1.523 . S
C530 C514 1.368 . S
C530 C526 1.368 . S
C530 C529 1.523 . S
H531 C506 0.950 . S
H532 C508 0.950 . S
H533 C509 0.949 . S
H534 C511 0.950 . S
H535 C513 0.950 . S
C536 C537 1.349 . S
C536 C538 1.327 . S
C536 H561 0.950 . S
C537 C536 1.349 . S
C537 C553 1.349 . S
C538 C536 1.327 . S
C538 C557 1.429 . S
C538 H562 0.950 . S
C539 C556 1.574 . S
C539 C558 1.368 . S
C539 H563 0.949 . S
H540 C544 0.949 . S
C541 C542 1.349 . S
C541 C543 1.327 . S
C541 H564 0.950 . S
C542 C541 1.349 . S
C542 C554 1.349 . S
C543 C541 1.327 . S
C543 C559 1.429 . S
C543 H565 0.950 . S
C544 H540 0.949 . S
C544 C552 1.574 . S
C544 C560 1.368 . S
H545 C553 0.950 . S
H546 C551 0.950 . S
H547 C552 0.949 . S
H548 C554 0.950 . S
H549 C555 0.950 . S
H550 C556 0.949 . S
C551 H546 0.950 . S
C551 C553 1.327 . S
C551 C557 1.429 . S
C552 C544 1.574 . S
C552 H547 0.949 . S
C552 C558 1.368 . S
C553 C537 1.349 . S
C553 H545 0.950 . S
C553 C551 1.327 . S
C554 C542 1.349 . S
C554 H548 0.950 . S
C554 C555 1.327 . S
C555 H549 0.950 . S
C555 C554 1.327 . S
C555 C559 1.429 . S
C556 C539 1.574 . S
C556 H550 0.949 . S
C556 C560 1.368 . S
C557 C538 1.429 . S
C557 C551 1.429 . S
C557 C558 1.523 . S
C558 C539 1.368 . S
C558 C552 1.368 . S
C558 C557 1.523 . S
C559 C543 1.429 . S
C559 C555 1.429 . S
C559 C560 1.523 . S
C560 C544 1.368 . S
C560 C556 1.368 . S
C560 C559 1.523 . S
H561 C536 0.950 . S
H562 C538 0.950 . S
H563 C539 0.949 . S
H564 C541 0.950 . S
H565 C543 0.950 . S
C566 C567 1.349 . S
C566 C568 1.327 . S
C566 H591 0.950 . S
C567 C566 1.349 . S
C567 C583 1.349 . S
C568 C566 1.327 . S
C568 C587 1.429 . S
C568 H592 0.950 . S
C569 C586 1.574 . S
C569 C588 1.368 . S
C569 H593 0.949 . S
H570 C574 0.949 . S
C571 C572 1.349 . S
C571 C573 1.327 . S
C571 H594 0.950 . S
C572 C571 1.349 . S
C572 C584 1.349 . S
C573 C571 1.327 . S
C573 C589 1.429 . S
C573 H595 0.950 . S
C574 H570 0.949 . S
C574 C582 1.574 . S
C574 C590 1.368 . S
H575 C583 0.950 . S
H576 C581 0.950 . S
H577 C582 0.949 . S
H578 C584 0.950 . S
H579 C585 0.950 . S
H580 C586 0.949 . S
C581 H576 0.950 . S
C581 C583 1.327 . S
C581 C587 1.429 . S
C582 C574 1.574 . S
C582 H577 0.949 . S
C582 C588 1.368 . S
C583 C567 1.349 . S
C583 H575 0.950 . S
C583 C581 1.327 . S
C584 C572 1.349 . S
C584 H578 0.950 . S
C584 C585 1.327 . S
C585 H579 0.950 . S
C585 C584 1.327 . S
C585 C589 1.429 . S
C586 C569 1.574 . S
C586 H580 0.949 . S
C586 C590 1.368 . S
C587 C568 1.429 . S
C587 C581 1.429 . S
C587 C588 1.523 . S
C588 C569 1.368 . S
C588 C582 1.368 . S
C588 C587 1.523 . S
C589 C573 1.429 . S
C589 C585 1.429 . S
C589 C590 1.523 . S
C590 C574 1.368 . S
C590 C586 1.368 . S
C590 C589 1.523 . S
H591 C566 0.950 . S
H592 C568 0.950 . S
H593 C569 0.949 . S
H594 C571 0.950 . S
H595 C573 0.950 . S
C596 C597 1.349 . S
C596 C598 1.327 . S
C596 H621 0.950 . S
C597 C596 1.349 . S
C597 C613 1.349 . S
C598 C596 1.327 . S
C598 C617 1.429 . S
C598 H622 0.950 . S
C599 C616 1.574 . S
C599 C618 1.368 . S
C599 H623 0.949 . S
H600 C604 0.949 . S
C601 C602 1.349 . S
C601 C603 1.327 . S
C601 H624 0.950 . S
C602 C601 1.349 . S
C602 C614 1.349 . S
C603 C601 1.327 . S
C603 C619 1.429 . S
C603 H625 0.950 . S
C604 H600 0.949 . S
C604 C612 1.574 . S
C604 C620 1.368 . S
H605 C613 0.950 . S
H606 C611 0.950 . S
H607 C612 0.949 . S
H608 C614 0.950 . S
H609 C615 0.950 . S
H610 C616 0.949 . S
C611 H606 0.950 . S
C611 C613 1.327 . S
C611 C617 1.429 . S
C612 C604 1.574 . S
C612 H607 0.949 . S
C612 C618 1.368 . S
C613 C597 1.349 . S
C613 H605 0.950 . S
C613 C611 1.327 . S
C614 C602 1.349 . S
C614 H608 0.950 . S
C614 C615 1.327 . S
C615 H609 0.950 . S
C615 C614 1.327 . S
C615 C619 1.429 . S
C616 C599 1.574 . S
C616 H610 0.949 . S
C616 C620 1.368 . S
C617 C598 1.429 . S
C617 C611 1.429 . S
C617 C618 1.523 . S
C618 C599 1.368 . S
C618 C612 1.368 . S
C618 C617 1.523 . S
C619 C603 1.429 . S
C619 C615 1.429 . S
C619 C620 1.523 . S
C620 C604 1.368 . S
C620 C616 1.368 . S
C620 C619 1.523 . S
H621 C596 0.950 . S
H622 C598 0.950 . S
H623 C599 0.949 . S
H624 C601 0.950 . S
H625 C603 0.950 . S
C626 C627 1.349 . S
C626 C628 1.327 . S
C626 H651 0.950 . S
C627 C626 1.349 . S
C627 C643 1.349 . S
C628 C626 1.327 . S
C628 C647 1.429 . S
C628 H652 0.950 . S
C629 C646 1.574 . S
C629 C648 1.368 . S
C629 H653 0.949 . S
H630 C634 0.949 . S
C631 C632 1.349 . S
C631 C633 1.327 . S
C631 H654 0.950 . S
C632 C631 1.349 . S
C632 C644 1.349 . S
C633 C631 1.327 . S
C633 C649 1.429 . S
C633 H655 0.950 . S
C634 H630 0.949 . S
C634 C642 1.574 . S
C634 C650 1.368 . S
H635 C643 0.950 . S
H636 C641 0.950 . S
H637 C642 0.949 . S
H638 C644 0.950 . S
H639 C645 0.950 . S
H640 C646 0.949 . S
C641 H636 0.950 . S
C641 C643 1.327 . S
C641 C647 1.429 . S
C642 C634 1.574 . S
C642 H637 0.949 . S
C642 C648 1.368 . S
C643 C627 1.349 . S
C643 H635 0.950 . S
C643 C641 1.327 . S
C644 C632 1.349 . S
C644 H638 0.950 . S
C644 C645 1.327 . S
C645 H639 0.950 . S
C645 C644 1.327 . S
C645 C649 1.429 . S
C646 C629 1.574 . S
C646 H640 0.949 . S
C646 C650 1.368 . S
C647 C628 1.429 . S
C647 C641 1.429 . S
C647 C648 1.523 . S
C648 C629 1.368 . S
C648 C642 1.368 . S
C648 C647 1.523 . S
C649 C633 1.429 . S
C649 C645 1.429 . S
C649 C650 1.523 . S
C650 C634 1.368 . S
C650 C646 1.368 . S
C650 C649 1.523 . S
H651 C626 0.950 . S
H652 C628 0.950 . S
H653 C629 0.949 . S
H654 C631 0.950 . S
H655 C633 0.950 . S
C656 C657 1.349 . S
C656 C658 1.327 . S
C656 H681 0.950 . S
C657 C656 1.349 . S
C657 C673 1.349 . S
C658 C656 1.327 . S
C658 C677 1.429 . S
C658 H682 0.950 . S
C659 C676 1.574 . S
C659 C678 1.368 . S
C659 H683 0.949 . S
H660 C664 0.949 . S
C661 C662 1.349 . S
C661 C663 1.327 . S
C661 H684 0.950 . S
C662 C661 1.349 . S
C662 C674 1.349 . S
C663 C661 1.327 . S
C663 C679 1.429 . S
C663 H685 0.950 . S
C664 H660 0.949 . S
C664 C672 1.574 . S
C664 C680 1.368 . S
H665 C673 0.950 . S
H666 C671 0.950 . S
H667 C672 0.949 . S
H668 C674 0.950 . S
H669 C675 0.950 . S
H670 C676 0.949 . S
C671 H666 0.950 . S
C671 C673 1.327 . S
C671 C677 1.429 . S
C672 C664 1.574 . S
C672 H667 0.949 . S
C672 C678 1.368 . S
C673 C657 1.349 . S
C673 H665 0.950 . S
C673 C671 1.327 . S
C674 C662 1.349 . S
C674 H668 0.950 . S
C674 C675 1.327 . S
C675 H669 0.950 . S
C675 C674 1.327 . S
C675 C679 1.429 . S
C676 C659 1.574 . S
C676 H670 0.949 . S
C676 C680 1.368 . S
C677 C658 1.429 . S
C677 C671 1.429 . S
C677 C678 1.523 . S
C678 C659 1.368 . S
C678 C672 1.368 . S
C678 C677 1.523 . S
C679 C663 1.429 . S
C679 C675 1.429 . S
C679 C680 1.523 . S
C680 C664 1.368 . S
C680 C676 1.368 . S
C680 C679 1.523 . S
H681 C656 0.950 . S
H682 C658 0.950 . S
H683 C659 0.949 . S
H684 C661 0.950 . S
H685 C663 0.950 . S
C686 C687 1.349 . S
C686 C688 1.327 . S
C686 H711 0.950 . S
C687 C686 1.349 . S
C687 C703 1.349 . S
C688 C686 1.327 . S
C688 C707 1.429 . S
C688 H712 0.950 . S
C689 C706 1.574 . S
C689 C708 1.368 . S
C689 H713 0.949 . S
H690 C694 0.949 . S
C691 C692 1.349 . S
C691 C693 1.327 . S
C691 H714 0.950 . S
C692 C691 1.349 . S
C692 C704 1.349 . S
C693 C691 1.327 . S
C693 C709 1.429 . S
C693 H715 0.950 . S
C694 H690 0.949 . S
C694 C702 1.574 . S
C694 C710 1.368 . S
H695 C703 0.950 . S
H696 C701 0.950 . S
H697 C702 0.949 . S
H698 C704 0.950 . S
H699 C705 0.950 . S
H700 C706 0.949 . S
C701 H696 0.950 . S
C701 C703 1.327 . S
C701 C707 1.429 . S
C702 C694 1.574 . S
C702 H697 0.949 . S
C702 C708 1.368 . S
C703 C687 1.349 . S
C703 H695 0.950 . S
C703 C701 1.327 . S
C704 C692 1.349 . S
C704 H698 0.950 . S
C704 C705 1.327 . S
C705 H699 0.950 . S
C705 C704 1.327 . S
C705 C709 1.429 . S
C706 C689 1.574 . S
C706 H700 0.949 . S
C706 C710 1.368 . S
C707 C688 1.429 . S
C707 C701 1.429 . S
C707 C708 1.523 . S
C708 C689 1.368 . S
C708 C702 1.368 . S
C708 C707 1.523 . S
C709 C693 1.429 . S
C709 C705 1.429 . S
C709 C710 1.523 . S
C710 C694 1.368 . S
C710 C706 1.368 . S
C710 C709 1.523 . S
H711 C686 0.950 . S
H712 C688 0.950 . S
H713 C689 0.949 . S
H714 C691 0.950 . S
H715 C693 0.950 . S
C716 C717 1.349 . S
C716 C718 1.327 . S
C716 H741 0.950 . S
C717 C716 1.349 . S
C717 C733 1.349 . S
C718 C716 1.327 . S
C718 C737 1.429 . S
C718 H742 0.950 . S
C719 C736 1.574 . S
C719 C738 1.368 . S
C719 H743 0.949 . S
H720 C724 0.949 . S
C721 C722 1.349 . S
C721 C723 1.327 . S
C721 H744 0.950 . S
C722 C721 1.349 . S
C722 C734 1.349 . S
C723 C721 1.327 . S
C723 C739 1.429 . S
C723 H745 0.950 . S
C724 H720 0.949 . S
C724 C732 1.574 . S
C724 C740 1.368 . S
H725 C733 0.950 . S
H726 C731 0.950 . S
H727 C732 0.949 . S
H728 C734 0.950 . S
H729 C735 0.950 . S
H730 C736 0.949 . S
C731 H726 0.950 . S
C731 C733 1.327 . S
C731 C737 1.429 . S
C732 C724 1.574 . S
C732 H727 0.949 . S
C732 C738 1.368 . S
C733 C717 1.349 . S
C733 H725 0.950 . S
C733 C731 1.327 . S
C734 C722 1.349 . S
C734 H728 0.950 . S
C734 C735 1.327 . S
C735 H729 0.950 . S
C735 C734 1.327 . S
C735 C739 1.429 . S
C736 C719 1.574 . S
C736 H730 0.949 . S
C736 C740 1.368 . S
C737 C718 1.429 . S
C737 C731 1.429 . S
C737 C738 1.523 . S
C738 C719 1.368 . S
C738 C732 1.368 . S
C738 C737 1.523 . S
C739 C723 1.429 . S
C739 C735 1.429 . S
C739 C740 1.523 . S
C740 C724 1.368 . S
C740 C736 1.368 . S
C740 C739 1.523 . S
H741 C716 0.950 . S
H742 C718 0.950 . S
H743 C719 0.949 . S
H744 C721 0.950 . S
H745 C723 0.950 . S
C746 C747 1.349 . S
C746 C748 1.327 . S
C746 H771 0.950 . S
C747 C746 1.349 . S
C747 C763 1.349 . S
C748 C746 1.327 . S
C748 C767 1.429 . S
C748 H772 0.950 . S
C749 C766 1.574 . S
C749 C768 1.368 . S
C749 H773 0.949 . S
H750 C754 0.949 . S
C751 C752 1.349 . S
C751 C753 1.327 . S
C751 H774 0.950 . S
C752 C751 1.349 . S
C752 C764 1.349 . S
C753 C751 1.327 . S
C753 C769 1.429 . S
C753 H775 0.950 . S
C754 H750 0.949 . S
C754 C762 1.574 . S
C754 C770 1.368 . S
H755 C763 0.950 . S
H756 C761 0.950 . S
H757 C762 0.949 . S
H758 C764 0.950 . S
H759 C765 0.950 . S
H760 C766 0.949 . S
C761 H756 0.950 . S
C761 C763 1.327 . S
C761 C767 1.429 . S
C762 C754 1.574 . S
C762 H757 0.949 . S
C762 C768 1.368 . S
C763 C747 1.349 . S
C763 H755 0.950 . S
C763 C761 1.327 . S
C764 C752 1.349 . S
C764 H758 0.950 . S
C764 C765 1.327 . S
C765 H759 0.950 . S
C765 C764 1.327 . S
C765 C769 1.429 . S
C766 C749 1.574 . S
C766 H760 0.949 . S
C766 C770 1.368 . S
C767 C748 1.429 . S
C767 C761 1.429 . S
C767 C768 1.523 . S
C768 C749 1.368 . S
C768 C762 1.368 . S
C768 C767 1.523 . S
C769 C753 1.429 . S
C769 C765 1.429 . S
C769 C770 1.523 . S
C770 C754 1.368 . S
C770 C766 1.368 . S
C770 C769 1.523 . S
H771 C746 0.950 . S
H772 C748 0.950 . S
H773 C749 0.949 . S
H774 C751 0.950 . S
H775 C753 0.950 . S
C776 C777 1.349 . S
C776 C778 1.327 . S
C776 H801 0.950 . S
C777 C776 1.349 . S
C777 C793 1.349 . S
C778 C776 1.327 . S
C778 C797 1.429 . S
C778 H802 0.950 . S
C779 C796 1.574 . S
C779 C798 1.368 . S
C779 H803 0.949 . S
H780 C784 0.949 . S
C781 C782 1.349 . S
C781 C783 1.327 . S
C781 H804 0.950 1_655 S
C782 C781 1.349 . S
C782 C794 1.349 . S
C783 C781 1.327 . S
C783 C799 1.429 . S
C783 H805 0.950 . S
C784 H780 0.949 . S
C784 C792 1.574 . S
C784 C800 1.368 . S
H785 C793 0.950 . S
H786 C791 0.950 . S
H787 C792 0.949 . S
H788 C794 0.950 . S
H789 C795 0.950 . S
H790 C796 0.949 . S
C791 H786 0.950 . S
C791 C793 1.327 . S
C791 C797 1.429 . S
C792 C784 1.574 . S
C792 H787 0.949 . S
C792 C798 1.368 . S
C793 C777 1.349 . S
C793 H785 0.950 . S
C793 C791 1.327 . S
C794 C782 1.349 . S
C794 H788 0.950 . S
C794 C795 1.327 . S
C795 H789 0.950 . S
C795 C794 1.327 . S
C795 C799 1.429 . S
C796 C779 1.574 . S
C796 H790 0.949 . S
C796 C800 1.368 . S
C797 C778 1.429 . S
C797 C791 1.429 . S
C797 C798 1.523 . S
C798 C779 1.368 . S
C798 C792 1.368 . S
C798 C797 1.523 . S
C799 C783 1.429 . S
C799 C795 1.429 . S
C799 C800 1.523 . S
C800 C784 1.368 . S
C800 C796 1.368 . S
C800 C799 1.523 . S
H801 C776 0.950 . S
H802 C778 0.950 . S
H803 C779 0.949 . S
H804 C781 0.950 1_455 S
H805 C783 0.950 . S
C806 C807 1.349 . S
C806 C808 1.327 . S
C806 H831 0.950 . S
C807 C806 1.349 . S
C807 C823 1.349 . S
C808 C806 1.327 . S
C808 C827 1.429 . S
C808 H832 0.950 . S
C809 C826 1.574 . S
C809 C828 1.368 . S
C809 H833 0.949 . S
H810 C814 0.949 . S
C811 C812 1.349 . S
C811 C813 1.327 . S
C811 H834 0.950 1_565 S
C812 C811 1.349 . S
C812 C824 1.349 . S
C813 C811 1.327 . S
C813 C829 1.429 . S
C813 H835 0.950 . S
C814 H810 0.949 . S
C814 C822 1.574 . S
C814 C830 1.368 . S
H815 C823 0.950 . S
H816 C821 0.950 . S
H817 C822 0.949 . S
H818 C824 0.950 . S
H819 C825 0.950 . S
H820 C826 0.949 . S
C821 H816 0.950 . S
C821 C823 1.327 . S
C821 C827 1.429 . S
C822 C814 1.574 . S
C822 H817 0.949 . S
C822 C828 1.368 . S
C823 C807 1.349 . S
C823 H815 0.950 . S
C823 C821 1.327 . S
C824 C812 1.349 . S
C824 H818 0.950 . S
C824 C825 1.327 . S
C825 H819 0.950 . S
C825 C824 1.327 . S
C825 C829 1.429 . S
C826 C809 1.574 . S
C826 H820 0.949 . S
C826 C830 1.368 . S
C827 C808 1.429 . S
C827 C821 1.429 . S
C827 C828 1.523 . S
C828 C809 1.368 . S
C828 C822 1.368 . S
C828 C827 1.523 . S
C829 C813 1.429 . S
C829 C825 1.429 . S
C829 C830 1.523 . S
C830 C814 1.368 . S
C830 C826 1.368 . S
C830 C829 1.523 . S
H831 C806 0.950 . S
H832 C808 0.950 . S
H833 C809 0.949 . S
H834 C811 0.950 1_545 S
H835 C813 0.950 . S
C836 C837 1.349 . S
C836 C838 1.327 . S
C836 H861 0.950 . S
C837 C836 1.349 . S
C837 C853 1.349 . S
C838 C836 1.327 . S
C838 C857 1.429 . S
C838 H862 0.950 . S
C839 C856 1.574 . S
C839 C858 1.368 . S
C839 H863 0.949 . S
H840 C844 0.949 . S
C841 C842 1.349 . S
C841 C843 1.327 . S
C841 H864 0.950 . S
C842 C841 1.349 . S
C842 C854 1.349 . S
C843 C841 1.327 . S
C843 C859 1.429 . S
C843 H865 0.950 . S
C844 H840 0.949 . S
C844 C852 1.574 . S
C844 C860 1.368 . S
H845 C853 0.950 . S
H846 C851 0.950 . S
H847 C852 0.949 . S
H848 C854 0.950 . S
H849 C855 0.950 . S
H850 C856 0.949 . S
C851 H846 0.950 . S
C851 C853 1.327 . S
C851 C857 1.429 . S
C852 C844 1.574 . S
C852 H847 0.949 . S
C852 C858 1.368 . S
C853 C837 1.349 . S
C853 H845 0.950 . S
C853 C851 1.327 . S
C854 C842 1.349 . S
C854 H848 0.950 . S
C854 C855 1.327 . S
C855 H849 0.950 . S
C855 C854 1.327 . S
C855 C859 1.429 . S
C856 C839 1.574 . S
C856 H850 0.949 . S
C856 C860 1.368 . S
C857 C838 1.429 . S
C857 C851 1.429 . S
C857 C858 1.523 . S
C858 C839 1.368 . S
C858 C852 1.368 . S
C858 C857 1.523 . S
C859 C843 1.429 . S
C859 C855 1.429 . S
C859 C860 1.523 . S
C860 C844 1.368 . S
C860 C856 1.368 . S
C860 C859 1.523 . S
H861 C836 0.950 . S
H862 C838 0.950 . S
H863 C839 0.949 . S
H864 C841 0.950 . S
H865 C843 0.950 . S
C866 C867 1.349 . S
C866 C868 1.327 . S
C866 H891 0.950 . S
C867 C866 1.349 . S
C867 C883 1.349 . S
C868 C866 1.327 . S
C868 C887 1.429 . S
C868 H892 0.950 . S
C869 C886 1.574 . S
C869 C888 1.368 . S
C869 H893 0.949 . S
H870 C874 0.949 . S
C871 C872 1.349 . S
C871 C873 1.327 . S
C871 H894 0.950 . S
C872 C871 1.349 . S
C872 C884 1.349 . S
C873 C871 1.327 . S
C873 C889 1.429 . S
C873 H895 0.950 . S
C874 H870 0.949 . S
C874 C882 1.574 . S
C874 C890 1.368 . S
H875 C883 0.950 . S
H876 C881 0.950 . S
H877 C882 0.949 . S
H878 C884 0.950 . S
H879 C885 0.950 . S
H880 C886 0.949 . S
C881 H876 0.950 . S
C881 C883 1.327 . S
C881 C887 1.429 . S
C882 C874 1.574 . S
C882 H877 0.949 . S
C882 C888 1.368 . S
C883 C867 1.349 . S
C883 H875 0.950 . S
C883 C881 1.327 . S
C884 C872 1.349 . S
C884 H878 0.950 . S
C884 C885 1.327 . S
C885 H879 0.950 . S
C885 C884 1.327 . S
C885 C889 1.429 . S
C886 C869 1.574 . S
C886 H880 0.949 . S
C886 C890 1.368 . S
C887 C868 1.429 . S
C887 C881 1.429 . S
C887 C888 1.523 . S
C888 C869 1.368 . S
C888 C882 1.368 . S
C888 C887 1.523 . S
C889 C873 1.429 . S
C889 C885 1.429 . S
C889 C890 1.523 . S
C890 C874 1.368 . S
C890 C886 1.368 . S
C890 C889 1.523 . S
H891 C866 0.950 . S
H892 C868 0.950 . S
H893 C869 0.949 . S
H894 C871 0.950 . S
H895 C873 0.950 . S
C896 C897 1.349 . S
C896 C898 1.327 . S
C896 H921 0.950 . S
C897 C896 1.349 . S
C897 C913 1.349 . S
C898 C896 1.327 . S
C898 C917 1.429 . S
C898 H922 0.950 . S
C899 C916 1.574 . S
C899 C918 1.368 . S
C899 H923 0.949 . S
H900 C904 0.949 . S
C901 C902 1.349 . S
C901 C903 1.327 . S
C901 H924 0.950 1_556 S
C902 C901 1.349 . S
C902 C914 1.349 . S
C903 C901 1.327 . S
C903 C919 1.429 . S
C903 H925 0.950 . S
C904 H900 0.949 . S
C904 C912 1.574 . S
C904 C920 1.368 . S
H905 C913 0.950 . S
H906 C911 0.950 . S
H907 C912 0.949 . S
H908 C914 0.950 . S
H909 C915 0.950 . S
H910 C916 0.949 . S
C911 H906 0.950 . S
C911 C913 1.327 . S
C911 C917 1.429 . S
C912 C904 1.574 . S
C912 H907 0.949 . S
C912 C918 1.368 . S
C913 C897 1.349 . S
C913 H905 0.950 . S
C913 C911 1.327 . S
C914 C902 1.349 . S
C914 H908 0.950 . S
C914 C915 1.327 . S
C915 H909 0.950 . S
C915 C914 1.327 . S
C915 C919 1.429 . S
C916 C899 1.574 . S
C916 H910 0.949 . S
C916 C920 1.368 . S
C917 C898 1.429 . S
C917 C911 1.429 . S
C917 C918 1.523 . S
C918 C899 1.368 . S
C918 C912 1.368 . S
C918 C917 1.523 . S
C919 C903 1.429 . S
C919 C915 1.429 . S
C919 C920 1.523 . S
C920 C904 1.368 . S
C920 C916 1.368 . S
C920 C919 1.523 . S
H921 C896 0.950 . S
H922 C898 0.950 . S
H923 C899 0.949 . S
H924 C901 0.950 1_554 S
H925 C903 0.950 . S
C926 C927 1.349 . S
C926 C928 1.327 . S
C926 H951 0.950 . S
C927 C926 1.349 . S
C927 C943 1.349 . S
C928 C926 1.327 . S
C928 C947 1.429 . S
C928 H952 0.950 . S
C929 C946 1.574 . S
C929 C948 1.368 . S
C929 H953 0.949 . S
H930 C934 0.949 . S
C931 C932 1.349 . S
C931 C933 1.327 . S
C931 H954 0.950 . S
C932 C931 1.349 . S
C932 C944 1.349 . S
C933 C931 1.327 . S
C933 C949 1.429 . S
C933 H955 0.950 . S
C934 H930 0.949 . S
C934 C942 1.574 . S
C934 C950 1.368 . S
H935 C943 0.950 . S
H936 C941 0.950 . S
H937 C942 0.949 . S
H938 C944 0.950 . S
H939 C945 0.950 . S
H940 C946 0.949 . S
C941 H936 0.950 . S
C941 C943 1.327 . S
C941 C947 1.429 . S
C942 C934 1.574 . S
C942 H937 0.949 . S
C942 C948 1.368 . S
C943 C927 1.349 . S
C943 H935 0.950 . S
C943 C941 1.327 . S
C944 C932 1.349 . S
C944 H938 0.950 . S
C944 C945 1.327 . S
C945 H939 0.950 . S
C945 C944 1.327 . S
C945 C949 1.429 . S
C946 C929 1.574 . S
C946 H940 0.949 . S
C946 C950 1.368 . S
C947 C928 1.429 . S
C947 C941 1.429 . S
C947 C948 1.523 . S
C948 C929 1.368 . S
C948 C942 1.368 . S
C948 C947 1.523 . S
C949 C933 1.429 . S
C949 C945 1.429 . S
C949 C950 1.523 . S
C950 C934 1.368 . S
C950 C946 1.368 . S
C950 C949 1.523 . S
H951 C926 0.950 . S
H952 C928 0.950 . S
H953 C929 0.949 . S
H954 C931 0.950 . S
H955 C933 0.950 . S
C956 C957 1.349 . S
C956 C958 1.327 . S
C956 H981 0.950 . S
C957 C956 1.349 . S
C957 C973 1.349 . S
C958 C956 1.327 . S
C958 C977 1.429 . S
C958 H982 0.950 . S
C959 C976 1.574 . S
C959 C978 1.368 . S
C959 H983 0.949 . S
H960 C964 0.949 . S
C961 C962 1.349 . S
C961 C963 1.327 . S
C961 H984 0.950 . S
C962 C961 1.349 . S
C962 C974 1.349 1_556 S
C963 C961 1.327 . S
C963 C979 1.429 . S
C963 H985 0.950 . S
C964 H960 0.949 . S
C964 C972 1.574 . S
C964 C980 1.368 . S
H965 C973 0.950 . S
H966 C971 0.950 . S
H967 C972 0.949 . S
H968 C974 0.950 . S
H969 C975 0.950 1_554 S
H970 C976 0.949 . S
C971 H966 0.950 . S
C971 C973 1.327 . S
C971 C977 1.429 . S
C972 C964 1.574 . S
C972 H967 0.949 . S
C972 C978 1.368 . S
C973 C957 1.349 . S
C973 H965 0.950 . S
C973 C971 1.327 . S
C974 C962 1.349 1_554 S
C974 H968 0.950 . S
C974 C975 1.327 1_554 S
C975 H969 0.950 1_556 S
C975 C974 1.327 1_556 S
C975 C979 1.429 . S
C976 C959 1.574 . S
C976 H970 0.949 . S
C976 C980 1.368 . S
C977 C958 1.429 . S
C977 C971 1.429 . S
C977 C978 1.523 . S
C978 C959 1.368 . S
C978 C972 1.368 . S
C978 C977 1.523 . S
C979 C963 1.429 . S
C979 C975 1.429 . S
C979 C980 1.523 . S
C980 C964 1.368 . S
C980 C976 1.368 . S
C980 C979 1.523 . S
H981 C956 0.950 . S
H982 C958 0.950 . S
H983 C959 0.949 . S
H984 C961 0.950 . S
H985 C963 0.950 . S
C986 C987 1.349 . S
C986 C988 1.327 . S
C986 H1011 0.950 . S
C987 C986 1.349 . S
C987 C1003 1.349 . S
C988 C986 1.327 . S
C988 C1007 1.429 . S
C988 H1012 0.950 . S
C989 C1006 1.574 . S
C989 C1008 1.368 . S
C989 H1013 0.949 . S
H990 C994 0.949 . S
C991 C992 1.349 . S
C991 C993 1.327 . S
C991 H1014 0.950 . S
C992 C991 1.349 . S
C992 C1004 1.349 . S
C993 C991 1.327 . S
C993 C1009 1.429 . S
C993 H1015 0.950 . S
C994 H990 0.949 . S
C994 C1002 1.574 . S
C994 C1010 1.368 . S
H995 C1003 0.950 . S
H996 C1001 0.950 . S
H997 C1002 0.949 . S
H998 C1004 0.950 . S
H999 C1005 0.950 . S
H1000 C1006 0.949 . S
C1001 H996 0.950 . S
C1001 C1003 1.327 . S
C1001 C1007 1.429 . S
C1002 C994 1.574 . S
C1002 H997 0.949 . S
C1002 C1008 1.368 . S
C1003 C987 1.349 . S
C1003 H995 0.950 . S
C1003 C1001 1.327 . S
C1004 C992 1.349 . S
C1004 H998 0.950 . S
C1004 C1005 1.327 . S
C1005 H999 0.950 . S
C1005 C1004 1.327 . S
C1005 C1009 1.429 . S
C1006 C989 1.574 . S
C1006 H1000 0.949 . S
C1006 C1010 1.368 . S
C1007 C988 1.429 . S
C1007 C1001 1.429 . S
C1007 C1008 1.523 . S
C1008 C989 1.368 . S
C1008 C1002 1.368 . S
C1008 C1007 1.523 . S
C1009 C993 1.429 . S
C1009 C1005 1.429 . S
C1009 C1010 1.523 . S
C1010 C994 1.368 . S
C1010 C1006 1.368 . S
C1010 C1009 1.523 . S
H1011 C986 0.950 . S
H1012 C988 0.950 . S
H1013 C989 0.949 . S
H1014 C991 0.950 . S
H1015 C993 0.950 . S
C1016 C1017 1.349 . S
C1016 C1018 1.327 . S
C1016 H1041 0.950 . S
C1017 C1016 1.349 . S
C1017 C1033 1.349 . S
C1018 C1016 1.327 . S
C1018 C1037 1.429 . S
C1018 H1042 0.950 . S
C1019 C1036 1.574 . S
C1019 C1038 1.368 . S
C1019 H1043 0.949 . S
H1020 C1024 0.949 . S
C1021 C1022 1.349 1_556 S
C1021 C1023 1.327 . S
C1021 H1044 0.963 . S
C1022 C1021 1.349 1_554 S
C1022 C1034 1.349 1_554 S
C1023 C1021 1.327 . S
C1023 C1039 1.429 . S
C1023 H1045 0.950 . S
C1024 H1020 0.949 . S
C1024 C1032 1.574 . S
C1024 C1040 1.368 . S
H1025 C1033 0.950 . S
H1026 C1031 0.950 . S
H1027 C1032 0.949 . S
H1028 C1034 0.950 . S
H1029 C1035 0.950 . S
H1030 C1036 0.949 . S
C1031 H1026 0.950 . S
C1031 C1033 1.327 . S
C1031 C1037 1.429 . S
C1032 C1024 1.574 . S
C1032 H1027 0.949 . S
C1032 C1038 1.368 . S
C1033 C1017 1.349 . S
C1033 H1025 0.950 . S
C1033 C1031 1.327 . S
C1034 C1022 1.349 1_556 S
C1034 H1028 0.950 . S
C1034 C1035 1.327 . S
C1035 H1029 0.950 . S
C1035 C1034 1.327 . S
C1035 C1039 1.429 . S
C1036 C1019 1.574 . S
C1036 H1030 0.949 . S
C1036 C1040 1.368 . S
C1037 C1018 1.429 . S
C1037 C1031 1.429 . S
C1037 C1038 1.523 . S
C1038 C1019 1.368 . S
C1038 C1032 1.368 . S
C1038 C1037 1.523 . S
C1039 C1023 1.429 . S
C1039 C1035 1.429 . S
C1039 C1040 1.523 . S
C1040 C1024 1.368 . S
C1040 C1036 1.368 . S
C1040 C1039 1.523 . S
H1041 C1016 0.950 . S
H1042 C1018 0.950 . S
H1043 C1019 0.949 . S
H1044 C1021 0.963 . S
H1045 C1023 0.950 . S
C1046 C1047 1.349 . S
C1046 C1048 1.327 . S
C1046 H1071 0.950 . S
C1047 C1046 1.349 . S
C1047 C1063 1.349 . S
C1048 C1046 1.327 . S
C1048 C1067 1.429 . S
C1048 H1072 0.950 . S
C1049 C1066 1.574 . S
C1049 C1068 1.368 . S
C1049 H1073 0.949 . S
H1050 C1054 0.949 . S
C1051 C1052 1.349 . S
C1051 C1053 1.327 . S
C1051 H1074 0.950 . S
C1052 C1051 1.349 . S
C1052 C1064 1.349 . S
C1053 C1051 1.327 . S
C1053 C1069 1.429 . S
C1053 H1075 0.950 . S
C1054 H1050 0.949 . S
C1054 C1062 1.574 . S
C1054 C1070 1.368 . S
H1055 C1063 0.950 . S
H1056 C1061 0.950 . S
H1057 C1062 0.949 . S
H1058 C1064 0.950 . S
H1059 C1065 0.950 . S
H1060 C1066 0.949 . S
C1061 H1056 0.950 . S
C1061 C1063 1.327 . S
C1061 C1067 1.429 . S
C1062 C1054 1.574 . S
C1062 H1057 0.949 . S
C1062 C1068 1.368 . S
C1063 C1047 1.349 . S
C1063 H1055 0.950 . S
C1063 C1061 1.327 . S
C1064 C1052 1.349 . S
C1064 H1058 0.950 . S
C1064 C1065 1.327 . S
C1065 H1059 0.950 . S
C1065 C1064 1.327 . S
C1065 C1069 1.429 . S
C1066 C1049 1.574 . S
C1066 H1060 0.949 . S
C1066 C1070 1.368 . S
C1067 C1048 1.429 . S
C1067 C1061 1.429 . S
C1067 C1068 1.523 . S
C1068 C1049 1.368 . S
C1068 C1062 1.368 . S
C1068 C1067 1.523 . S
C1069 C1053 1.429 . S
C1069 C1065 1.429 . S
C1069 C1070 1.523 . S
C1070 C1054 1.368 . S
C1070 C1066 1.368 . S
C1070 C1069 1.523 . S
H1071 C1046 0.950 . S
H1072 C1048 0.950 . S
H1073 C1049 0.949 . S
H1074 C1051 0.950 . S
H1075 C1053 0.950 . S
C1076 C1077 1.349 . S
C1076 C1078 1.327 . S
C1076 H1101 0.950 . S
C1077 C1076 1.349 . S
C1077 C1093 1.349 . S
C1078 C1076 1.327 . S
C1078 C1097 1.429 . S
C1078 H1102 0.950 . S
C1079 C1096 1.574 . S
C1079 C1098 1.368 . S
C1079 H1103 0.949 . S
H1080 C1084 0.949 . S
C1081 C1082 1.349 . S
C1081 C1083 1.327 . S
C1081 H1104 0.950 . S
C1082 C1081 1.349 . S
C1082 C1094 1.349 . S
C1083 C1081 1.327 . S
C1083 C1099 1.429 . S
C1083 H1105 0.950 . S
C1084 H1080 0.949 . S
C1084 C1092 1.574 . S
C1084 C1100 1.368 . S
H1085 C1093 0.950 . S
H1086 C1091 0.950 . S
H1087 C1092 0.949 . S
H1088 C1094 0.950 . S
H1089 C1095 0.950 . S
H1090 C1096 0.949 . S
C1091 H1086 0.950 . S
C1091 C1093 1.327 . S
C1091 C1097 1.429 . S
C1092 C1084 1.574 . S
C1092 H1087 0.949 . S
C1092 C1098 1.368 . S
C1093 C1077 1.349 . S
C1093 H1085 0.950 . S
C1093 C1091 1.327 . S
C1094 C1082 1.349 . S
C1094 H1088 0.950 . S
C1094 C1095 1.327 . S
C1095 H1089 0.950 . S
C1095 C1094 1.327 . S
C1095 C1099 1.429 . S
C1096 C1079 1.574 . S
C1096 H1090 0.949 . S
C1096 C1100 1.368 . S
C1097 C1078 1.429 . S
C1097 C1091 1.429 . S
C1097 C1098 1.523 . S
C1098 C1079 1.368 . S
C1098 C1092 1.368 . S
C1098 C1097 1.523 . S
C1099 C1083 1.429 . S
C1099 C1095 1.429 . S
C1099 C1100 1.523 . S
C1100 C1084 1.368 . S
C1100 C1096 1.368 . S
C1100 C1099 1.523 . S
H1101 C1076 0.950 . S
H1102 C1078 0.950 . S
H1103 C1079 0.949 . S
H1104 C1081 0.950 . S
H1105 C1083 0.950 . S
C1106 C1107 1.349 . S
C1106 C1108 1.327 . S
C1106 H1131 0.950 . S
C1107 C1106 1.349 . S
C1107 C1123 1.349 . S
C1108 C1106 1.327 . S
C1108 C1127 1.429 . S
C1108 H1132 0.950 . S
C1109 C1126 1.574 . S
C1109 C1128 1.368 . S
C1109 H1133 0.949 . S
H1110 C1114 0.949 . S
C1111 C1112 1.349 . S
C1111 C1113 1.327 . S
C1111 H1134 0.950 . S
C1112 C1111 1.349 . S
C1112 C1124 1.349 . S
C1113 C1111 1.327 . S
C1113 C1129 1.429 . S
C1113 H1135 0.950 . S
C1114 H1110 0.949 . S
C1114 C1122 1.574 . S
C1114 C1130 1.368 . S
H1115 C1123 0.950 . S
H1116 C1121 0.950 . S
H1117 C1122 0.949 . S
H1118 C1124 0.950 . S
H1119 C1125 0.950 . S
H1120 C1126 0.949 . S
C1121 H1116 0.950 . S
C1121 C1123 1.327 . S
C1121 C1127 1.429 . S
C1122 C1114 1.574 . S
C1122 H1117 0.949 . S
C1122 C1128 1.368 . S
C1123 C1107 1.349 . S
C1123 H1115 0.950 . S
C1123 C1121 1.327 . S
C1124 C1112 1.349 . S
C1124 H1118 0.950 . S
C1124 C1125 1.327 . S
C1125 H1119 0.950 . S
C1125 C1124 1.327 . S
C1125 C1129 1.429 . S
C1126 C1109 1.574 . S
C1126 H1120 0.949 . S
C1126 C1130 1.368 . S
C1127 C1108 1.429 . S
C1127 C1121 1.429 . S
C1127 C1128 1.523 . S
C1128 C1109 1.368 . S
C1128 C1122 1.368 . S
C1128 C1127 1.523 . S
C1129 C1113 1.429 . S
C1129 C1125 1.429 . S
C1129 C1130 1.523 . S
C1130 C1114 1.368 . S
C1130 C1126 1.368 . S
C1130 C1129 1.523 . S
H1131 C1106 0.950 . S
H1132 C1108 0.950 . S
H1133 C1109 0.949 . S
H1134 C1111 0.950 . S
H1135 C1113 0.950 . S
C1136 C1137 1.349 . S
C1136 C1138 1.327 . S
C1136 H1161 0.950 . S
C1137 C1136 1.349 . S
C1137 C1153 1.349 . S
C1138 C1136 1.327 . S
C1138 C1157 1.429 . S
C1138 H1162 0.950 . S
C1139 C1156 1.574 . S
C1139 C1158 1.368 . S
C1139 H1163 0.949 . S
H1140 C1144 0.949 . S
C1141 C1142 1.349 . S
C1141 C1143 1.327 . S
C1141 H1164 0.950 . S
C1142 C1141 1.349 . S
C1142 C1154 1.349 . S
C1143 C1141 1.327 . S
C1143 C1159 1.429 . S
C1143 H1165 0.950 . S
C1144 H1140 0.949 . S
C1144 C1152 1.574 . S
C1144 C1160 1.368 . S
H1145 C1153 0.950 . S
H1146 C1151 0.950 . S
H1147 C1152 0.949 . S
H1148 C1154 0.950 . S
H1149 C1155 0.950 . S
H1150 C1156 0.949 . S
C1151 H1146 0.950 . S
C1151 C1153 1.327 . S
C1151 C1157 1.429 . S
C1152 C1144 1.574 . S
C1152 H1147 0.949 . S
C1152 C1158 1.368 . S
C1153 C1137 1.349 . S
C1153 H1145 0.950 . S
C1153 C1151 1.327 . S
C1154 C1142 1.349 . S
C1154 H1148 0.950 . S
C1154 C1155 1.327 . S
C1155 H1149 0.950 . S
C1155 C1154 1.327 . S
C1155 C1159 1.429 . S
C1156 C1139 1.574 . S
C1156 H1150 0.949 . S
C1156 C1160 1.368 . S
C1157 C1138 1.429 . S
C1157 C1151 1.429 . S
C1157 C1158 1.523 . S
C1158 C1139 1.368 . S
C1158 C1152 1.368 . S
C1158 C1157 1.523 . S
C1159 C1143 1.429 . S
C1159 C1155 1.429 . S
C1159 C1160 1.523 . S
C1160 C1144 1.368 . S
C1160 C1156 1.368 . S
C1160 C1159 1.523 . S
H1161 C1136 0.950 . S
H1162 C1138 0.950 . S
H1163 C1139 0.949 . S
H1164 C1141 0.950 . S
H1165 C1143 0.950 . S
C1166 C1167 1.349 . S
C1166 C1168 1.327 . S
C1166 H1191 0.950 . S
C1167 C1166 1.349 . S
C1167 C1183 1.349 . S
C1168 C1166 1.327 . S
C1168 C1187 1.429 . S
C1168 H1192 0.950 . S
C1169 C1186 1.574 . S
C1169 C1188 1.368 . S
C1169 H1193 0.949 . S
H1170 C1174 0.949 . S
C1171 C1172 1.349 . S
C1171 C1173 1.327 . S
C1171 H1194 0.950 . S
C1172 C1171 1.349 . S
C1172 C1184 1.349 . S
C1173 C1171 1.327 . S
C1173 C1189 1.429 . S
C1173 H1195 0.950 . S
C1174 H1170 0.949 . S
C1174 C1182 1.574 . S
C1174 C1190 1.368 . S
H1175 C1183 0.950 . S
H1176 C1181 0.950 . S
H1177 C1182 0.949 . S
H1178 C1184 0.950 . S
H1179 C1185 0.950 . S
H1180 C1186 0.949 . S
C1181 H1176 0.950 . S
C1181 C1183 1.327 . S
C1181 C1187 1.429 . S
C1182 C1174 1.574 . S
C1182 H1177 0.949 . S
C1182 C1188 1.368 . S
C1183 C1167 1.349 . S
C1183 H1175 0.950 . S
C1183 C1181 1.327 . S
C1184 C1172 1.349 . S
C1184 H1178 0.950 . S
C1184 C1185 1.327 . S
C1185 H1179 0.950 . S
C1185 C1184 1.327 . S
C1185 C1189 1.429 . S
C1186 C1169 1.574 . S
C1186 H1180 0.949 . S
C1186 C1190 1.368 . S
C1187 C1168 1.429 . S
C1187 C1181 1.429 . S
C1187 C1188 1.523 . S
C1188 C1169 1.368 . S
C1188 C1182 1.368 . S
C1188 C1187 1.523 . S
C1189 C1173 1.429 . S
C1189 C1185 1.429 . S
C1189 C1190 1.523 . S
C1190 C1174 1.368 . S
C1190 C1186 1.368 . S
C1190 C1189 1.523 . S
H1191 C1166 0.950 . S
H1192 C1168 0.950 . S
H1193 C1169 0.949 . S
H1194 C1171 0.950 . S
H1195 C1173 0.950 . S
C1196 C1197 1.349 . S
C1196 C1198 1.327 . S
C1196 H1221 0.950 . S
C1197 C1196 1.349 . S
C1197 C1213 1.349 . S
C1198 C1196 1.327 . S
C1198 C1217 1.429 . S
C1198 H1222 0.950 . S
C1199 C1216 1.574 . S
C1199 C1218 1.368 . S
C1199 H1223 0.949 . S
H1200 C1204 0.949 . S
C1201 C1202 1.349 . S
C1201 C1203 1.327 . S
C1201 H1224 0.950 . S
C1202 C1201 1.349 . S
C1202 C1214 1.349 . S
C1203 C1201 1.327 . S
C1203 C1219 1.429 . S
C1203 H1225 0.950 . S
C1204 H1200 0.949 . S
C1204 C1212 1.574 . S
C1204 C1220 1.368 . S
H1205 C1213 0.950 . S
H1206 C1211 0.950 . S
H1207 C1212 0.949 . S
H1208 C1214 0.950 . S
H1209 C1215 0.950 . S
H1210 C1216 0.949 . S
C1211 H1206 0.950 . S
C1211 C1213 1.327 . S
C1211 C1217 1.429 . S
C1212 C1204 1.574 . S
C1212 H1207 0.949 . S
C1212 C1218 1.368 . S
C1213 C1197 1.349 . S
C1213 H1205 0.950 . S
C1213 C1211 1.327 . S
C1214 C1202 1.349 . S
C1214 H1208 0.950 . S
C1214 C1215 1.327 . S
C1215 H1209 0.950 . S
C1215 C1214 1.327 . S
C1215 C1219 1.429 . S
C1216 C1199 1.574 . S
C1216 H1210 0.949 . S
C1216 C1220 1.368 . S
C1217 C1198 1.429 . S
C1217 C1211 1.429 . S
C1217 C1218 1.523 . S
C1218 C1199 1.368 . S
C1218 C1212 1.368 . S
C1218 C1217 1.523 . S
C1219 C1203 1.429 . S
C1219 C1215 1.429 . S
C1219 C1220 1.523 . S
C1220 C1204 1.368 . S
C1220 C1216 1.368 . S
C1220 C1219 1.523 . S
H1221 C1196 0.950 . S
H1222 C1198 0.950 . S
H1223 C1199 0.949 . S
H1224 C1201 0.950 . S
H1225 C1203 0.950 . S
C1226 C1227 1.349 . S
C1226 C1228 1.327 . S
C1226 H1251 0.950 . S
C1227 C1226 1.349 . S
C1227 C1243 1.349 . S
C1228 C1226 1.327 . S
C1228 C1247 1.429 . S
C1228 H1252 0.950 . S
C1229 C1246 1.574 . S
C1229 C1248 1.368 . S
C1229 H1253 0.949 . S
H1230 C1234 0.949 . S
C1231 C1232 1.349 . S
C1231 C1233 1.327 . S
C1231 H1254 0.950 . S
C1232 C1231 1.349 . S
C1232 C1244 1.349 . S
C1233 C1231 1.327 . S
C1233 C1249 1.429 . S
C1233 H1255 0.950 . S
C1234 H1230 0.949 . S
C1234 C1242 1.574 . S
C1234 C1250 1.368 . S
H1235 C1243 0.950 . S
H1236 C1241 0.950 . S
H1237 C1242 0.949 . S
H1238 C1244 0.950 . S
H1239 C1245 0.950 . S
H1240 C1246 0.949 . S
C1241 H1236 0.950 . S
C1241 C1243 1.327 . S
C1241 C1247 1.429 . S
C1242 C1234 1.574 . S
C1242 H1237 0.949 . S
C1242 C1248 1.368 . S
C1243 C1227 1.349 . S
C1243 H1235 0.950 . S
C1243 C1241 1.327 . S
C1244 C1232 1.349 . S
C1244 H1238 0.950 . S
C1244 C1245 1.327 . S
C1245 H1239 0.950 . S
C1245 C1244 1.327 . S
C1245 C1249 1.429 . S
C1246 C1229 1.574 . S
C1246 H1240 0.949 . S
C1246 C1250 1.368 . S
C1247 C1228 1.429 . S
C1247 C1241 1.429 . S
C1247 C1248 1.523 . S
C1248 C1229 1.368 . S
C1248 C1242 1.368 . S
C1248 C1247 1.523 . S
C1249 C1233 1.429 . S
C1249 C1245 1.429 . S
C1249 C1250 1.523 . S
C1250 C1234 1.368 . S
C1250 C1246 1.368 . S
C1250 C1249 1.523 . S
H1251 C1226 0.950 . S
H1252 C1228 0.950 . S
H1253 C1229 0.949 . S
H1254 C1231 0.950 . S
H1255 C1233 0.950 . S
C1256 C1257 1.349 . S
C1256 C1258 1.327 . S
C1256 H1281 0.950 . S
C1257 C1256 1.349 . S
C1257 C1273 1.349 . S
C1258 C1256 1.327 . S
C1258 C1277 1.429 . S
C1258 H1282 0.950 . S
C1259 C1276 1.574 . S
C1259 C1278 1.368 . S
C1259 H1283 0.949 . S
H1260 C1264 0.949 . S
C1261 C1262 1.349 . S
C1261 C1263 1.327 . S
C1261 H1284 0.950 . S
C1262 C1261 1.349 . S
C1262 C1274 1.349 . S
C1263 C1261 1.327 . S
C1263 C1279 1.429 . S
C1263 H1285 0.950 . S
C1264 H1260 0.949 . S
C1264 C1272 1.574 . S
C1264 C1280 1.368 . S
H1265 C1273 0.950 . S
H1266 C1271 0.950 . S
H1267 C1272 0.949 . S
H1268 C1274 0.950 . S
H1269 C1275 0.950 . S
H1270 C1276 0.949 . S
C1271 H1266 0.950 . S
C1271 C1273 1.327 . S
C1271 C1277 1.429 . S
C1272 C1264 1.574 . S
C1272 H1267 0.949 . S
C1272 C1278 1.368 . S
C1273 C1257 1.349 . S
C1273 H1265 0.950 . S
C1273 C1271 1.327 . S
C1274 C1262 1.349 . S
C1274 H1268 0.950 . S
C1274 C1275 1.327 . S
C1275 H1269 0.950 . S
C1275 C1274 1.327 . S
C1275 C1279 1.429 . S
C1276 C1259 1.574 . S
C1276 H1270 0.949 . S
C1276 C1280 1.368 . S
C1277 C1258 1.429 . S
C1277 C1271 1.429 . S
C1277 C1278 1.523 . S
C1278 C1259 1.368 . S
C1278 C1272 1.368 . S
C1278 C1277 1.523 . S
C1279 C1263 1.429 . S
C1279 C1275 1.429 . S
C1279 C1280 1.523 . S
C1280 C1264 1.368 . S
C1280 C1276 1.368 . S
C1280 C1279 1.523 . S
H1281 C1256 0.950 . S
H1282 C1258 0.950 . S
H1283 C1259 0.949 . S
H1284 C1261 0.950 . S
H1285 C1263 0.950 . S
C1286 C1287 1.349 . S
C1286 C1288 1.327 . S
C1286 H1311 0.950 . S
C1287 C1286 1.349 . S
C1287 C1303 1.349 . S
C1288 C1286 1.327 . S
C1288 C1307 1.429 . S
C1288 H1312 0.950 . S
C1289 C1306 1.574 . S
C1289 C1308 1.368 . S
C1289 H1313 0.949 . S
H1290 C1294 0.949 . S
C1291 C1292 1.349 . S
C1291 C1293 1.327 . S
C1291 H1314 0.950 . S
C1292 C1291 1.349 . S
C1292 C1304 1.349 . S
C1293 C1291 1.327 . S
C1293 C1309 1.429 . S
C1293 H1315 0.950 . S
C1294 H1290 0.949 . S
C1294 C1302 1.574 . S
C1294 C1310 1.368 . S
H1295 C1303 0.950 . S
H1296 C1301 0.950 . S
H1297 C1302 0.949 . S
H1298 C1304 0.950 . S
H1299 C1305 0.950 . S
H1300 C1306 0.949 . S
C1301 H1296 0.950 . S
C1301 C1303 1.327 . S
C1301 C1307 1.429 . S
C1302 C1294 1.574 . S
C1302 H1297 0.949 . S
C1302 C1308 1.368 . S
C1303 C1287 1.349 . S
C1303 H1295 0.950 . S
C1303 C1301 1.327 . S
C1304 C1292 1.349 . S
C1304 H1298 0.950 . S
C1304 C1305 1.327 . S
C1305 H1299 0.950 . S
C1305 C1304 1.327 . S
C1305 C1309 1.429 . S
C1306 C1289 1.574 . S
C1306 H1300 0.949 . S
C1306 C1310 1.368 . S
C1307 C1288 1.429 . S
C1307 C1301 1.429 . S
C1307 C1308 1.523 . S
C1308 C1289 1.368 . S
C1308 C1302 1.368 . S
C1308 C1307 1.523 . S
C1309 C1293 1.429 . S
C1309 C1305 1.429 . S
C1309 C1310 1.523 . S
C1310 C1294 1.368 . S
C1310 C1306 1.368 . S
C1310 C1309 1.523 . S
H1311 C1286 0.950 . S
H1312 C1288 0.950 . S
H1313 C1289 0.949 . S
H1314 C1291 0.950 . S
H1315 C1293 0.950 . S
C1316 C1317 1.349 . S
C1316 C1318 1.327 . S
C1316 H1341 0.950 . S
C1317 C1316 1.349 . S
C1317 C1333 1.349 . S
C1318 C1316 1.327 . S
C1318 C1337 1.429 . S
C1318 H1342 0.950 . S
C1319 C1336 1.574 . S
C1319 C1338 1.368 . S
C1319 H1343 0.949 . S
H1320 C1324 0.949 . S
C1321 C1322 1.349 . S
C1321 C1323 1.327 . S
C1321 H1344 0.932 1_556 S
C1322 C1321 1.349 . S
C1322 C1334 1.349 . S
C1323 C1321 1.327 . S
C1323 C1339 1.429 . S
C1323 H1345 0.950 . S
C1324 H1320 0.949 . S
C1324 C1332 1.574 . S
C1324 C1340 1.368 . S
H1325 C1333 0.950 . S
H1326 C1331 0.950 . S
H1327 C1332 0.949 . S
H1328 C1334 0.950 . S
H1329 C1335 0.950 . S
H1330 C1336 0.949 . S
C1331 H1326 0.950 . S
C1331 C1333 1.327 . S
C1331 C1337 1.429 . S
C1332 C1324 1.574 . S
C1332 H1327 0.949 . S
C1332 C1338 1.368 . S
C1333 C1317 1.349 . S
C1333 H1325 0.950 . S
C1333 C1331 1.327 . S
C1334 C1322 1.349 . S
C1334 H1328 0.950 . S
C1334 C1335 1.327 . S
C1335 H1329 0.950 . S
C1335 C1334 1.327 . S
C1335 C1339 1.429 . S
C1336 C1319 1.574 . S
C1336 H1330 0.949 . S
C1336 C1340 1.368 . S
C1337 C1318 1.429 . S
C1337 C1331 1.429 . S
C1337 C1338 1.523 . S
C1338 C1319 1.368 . S
C1338 C1332 1.368 . S
C1338 C1337 1.523 . S
C1339 C1323 1.429 . S
C1339 C1335 1.429 . S
C1339 C1340 1.523 . S
C1340 C1324 1.368 . S
C1340 C1336 1.368 . S
C1340 C1339 1.523 . S
H1341 C1316 0.950 . S
H1342 C1318 0.950 . S
H1343 C1319 0.949 . S
H1344 C1321 0.932 1_554 S
H1345 C1323 0.950 . S
C1346 C1347 1.349 . S
C1346 C1348 1.327 . S
C1346 H1371 0.950 . S
C1347 C1346 1.349 . S
C1347 C1363 1.349 . S
C1348 C1346 1.327 . S
C1348 C1367 1.429 . S
C1348 H1372 0.950 . S
C1349 C1366 1.574 . S
C1349 C1368 1.368 . S
C1349 H1373 0.949 . S
H1350 C1354 0.949 . S
C1351 C1352 1.349 . S
C1351 C1353 1.327 . S
C1351 H1374 0.950 . S
C1352 C1351 1.349 . S
C1352 C1364 1.349 . S
C1353 C1351 1.327 . S
C1353 C1369 1.429 . S
C1353 H1375 0.950 . S
C1354 H1350 0.949 . S
C1354 C1362 1.574 . S
C1354 C1370 1.368 . S
H1355 C1363 0.950 . S
H1356 C1361 0.950 . S
H1357 C1362 0.949 . S
H1358 C1364 0.950 . S
H1359 C1365 0.950 . S
H1360 C1366 0.949 . S
C1361 H1356 0.950 . S
C1361 C1363 1.327 . S
C1361 C1367 1.429 . S
C1362 C1354 1.574 . S
C1362 H1357 0.949 . S
C1362 C1368 1.368 . S
C1363 C1347 1.349 . S
C1363 H1355 0.950 . S
C1363 C1361 1.327 . S
C1364 C1352 1.349 . S
C1364 H1358 0.950 . S
C1364 C1365 1.327 . S
C1365 H1359 0.950 . S
C1365 C1364 1.327 . S
C1365 C1369 1.429 . S
C1366 C1349 1.574 . S
C1366 H1360 0.949 . S
C1366 C1370 1.368 . S
C1367 C1348 1.429 . S
C1367 C1361 1.429 . S
C1367 C1368 1.523 . S
C1368 C1349 1.368 . S
C1368 C1362 1.368 . S
C1368 C1367 1.523 . S
C1369 C1353 1.429 . S
C1369 C1365 1.429 . S
C1369 C1370 1.523 . S
C1370 C1354 1.368 . S
C1370 C1366 1.368 . S
C1370 C1369 1.523 . S
H1371 C1346 0.950 . S
H1372 C1348 0.950 . S
H1373 C1349 0.949 . S
H1374 C1351 0.950 . S
H1375 C1353 0.950 . S
C1376 C1377 1.349 . S
C1376 C1378 1.327 . S
C1376 H1401 0.950 . S
C1377 C1376 1.349 . S
C1377 C1393 1.349 . S
C1378 C1376 1.327 . S
C1378 C1397 1.429 . S
C1378 H1402 0.950 . S
C1379 C1396 1.574 . S
C1379 C1398 1.368 . S
C1379 H1403 0.949 . S
H1380 C1384 0.949 . S
C1381 C1382 1.349 . S
C1381 C1383 1.327 . S
C1381 H1404 0.950 . S
C1382 C1381 1.349 . S
C1382 C1394 1.349 . S
C1383 C1381 1.327 . S
C1383 C1399 1.429 . S
C1383 H1405 0.950 . S
C1384 H1380 0.949 . S
C1384 C1392 1.574 . S
C1384 C1400 1.368 . S
H1385 C1393 0.950 . S
H1386 C1391 0.950 . S
H1387 C1392 0.949 . S
H1388 C1394 0.950 . S
H1389 C1395 0.950 . S
H1390 C1396 0.949 . S
C1391 H1386 0.950 . S
C1391 C1393 1.327 . S
C1391 C1397 1.429 . S
C1392 C1384 1.574 . S
C1392 H1387 0.949 . S
C1392 C1398 1.368 . S
C1393 C1377 1.349 . S
C1393 H1385 0.950 . S
C1393 C1391 1.327 . S
C1394 C1382 1.349 . S
C1394 H1388 0.950 . S
C1394 C1395 1.327 . S
C1395 H1389 0.950 . S
C1395 C1394 1.327 . S
C1395 C1399 1.429 . S
C1396 C1379 1.574 . S
C1396 H1390 0.949 . S
C1396 C1400 1.368 . S
C1397 C1378 1.429 . S
C1397 C1391 1.429 . S
C1397 C1398 1.523 . S
C1398 C1379 1.368 . S
C1398 C1392 1.368 . S
C1398 C1397 1.523 . S
C1399 C1383 1.429 . S
C1399 C1395 1.429 . S
C1399 C1400 1.523 . S
C1400 C1384 1.368 . S
C1400 C1396 1.368 . S
C1400 C1399 1.523 . S
H1401 C1376 0.950 . S
H1402 C1378 0.950 . S
H1403 C1379 0.949 . S
H1404 C1381 0.950 . S
H1405 C1383 0.950 . S
C1406 C1407 1.349 . S
C1406 C1408 1.327 . S
C1406 H1431 0.950 . S
C1407 C1406 1.349 . S
C1407 C1423 1.349 . S
C1408 C1406 1.327 . S
C1408 C1427 1.429 . S
C1408 H1432 0.950 . S
C1409 C1426 1.574 . S
C1409 C1428 1.368 . S
C1409 H1433 0.949 . S
H1410 C1414 0.949 . S
C1411 C1412 1.349 . S
C1411 C1413 1.327 . S
C1411 H1434 0.950 . S
C1412 C1411 1.349 . S
C1412 C1424 1.349 . S
C1413 C1411 1.327 . S
C1413 C1429 1.429 . S
C1413 H1435 0.950 . S
C1414 H1410 0.949 . S
C1414 C1422 1.574 . S
C1414 C1430 1.368 . S
H1415 C1423 0.950 . S
H1416 C1421 0.950 . S
H1417 C1422 0.949 . S
H1418 C1424 0.950 . S
H1419 C1425 0.950 . S
H1420 C1426 0.949 . S
C1421 H1416 0.950 . S
C1421 C1423 1.327 . S
C1421 C1427 1.429 . S
C1422 C1414 1.574 . S
C1422 H1417 0.949 . S
C1422 C1428 1.368 . S
C1423 C1407 1.349 . S
C1423 H1415 0.950 . S
C1423 C1421 1.327 . S
C1424 C1412 1.349 . S
C1424 H1418 0.950 . S
C1424 C1425 1.327 . S
C1425 H1419 0.950 . S
C1425 C1424 1.327 . S
C1425 C1429 1.429 . S
C1426 C1409 1.574 . S
C1426 H1420 0.949 . S
C1426 C1430 1.368 . S
C1427 C1408 1.429 . S
C1427 C1421 1.429 . S
C1427 C1428 1.523 . S
C1428 C1409 1.368 . S
C1428 C1422 1.368 . S
C1428 C1427 1.523 . S
C1429 C1413 1.429 . S
C1429 C1425 1.429 . S
C1429 C1430 1.523 . S
C1430 C1414 1.368 . S
C1430 C1426 1.368 . S
C1430 C1429 1.523 . S
H1431 C1406 0.950 . S
H1432 C1408 0.950 . S
H1433 C1409 0.949 . S
H1434 C1411 0.950 . S
H1435 C1413 0.950 . S
C1436 C1437 1.349 . S
C1436 C1438 1.327 . S
C1436 H1461 0.950 . S
C1437 C1436 1.349 . S
C1437 C1453 1.349 . S
C1438 C1436 1.327 . S
C1438 C1457 1.429 . S
C1438 H1462 0.950 . S
C1439 C1456 1.574 . S
C1439 C1458 1.368 . S
C1439 H1463 0.949 . S
H1440 C1444 0.949 . S
C1441 C1442 1.349 . S
C1441 C1443 1.327 . S
C1441 H1464 0.950 . S
C1442 C1441 1.349 . S
C1442 C1454 1.349 . S
C1443 C1441 1.327 . S
C1443 C1459 1.429 . S
C1443 H1465 0.950 . S
C1444 H1440 0.949 . S
C1444 C1452 1.574 . S
C1444 C1460 1.368 . S
H1445 C1453 0.950 . S
H1446 C1451 0.950 . S
H1447 C1452 0.949 . S
H1448 C1454 0.950 . S
H1449 C1455 0.950 . S
H1450 C1456 0.949 . S
C1451 H1446 0.950 . S
C1451 C1453 1.327 . S
C1451 C1457 1.429 . S
C1452 C1444 1.574 . S
C1452 H1447 0.949 . S
C1452 C1458 1.368 . S
C1453 C1437 1.349 . S
C1453 H1445 0.950 . S
C1453 C1451 1.327 . S
C1454 C1442 1.349 . S
C1454 H1448 0.950 . S
C1454 C1455 1.327 . S
C1455 H1449 0.950 . S
C1455 C1454 1.327 . S
C1455 C1459 1.429 . S
C1456 C1439 1.574 . S
C1456 H1450 0.949 . S
C1456 C1460 1.368 . S
C1457 C1438 1.429 . S
C1457 C1451 1.429 . S
C1457 C1458 1.523 . S
C1458 C1439 1.368 . S
C1458 C1452 1.368 . S
C1458 C1457 1.523 . S
C1459 C1443 1.429 . S
C1459 C1455 1.429 . S
C1459 C1460 1.523 . S
C1460 C1444 1.368 . S
C1460 C1456 1.368 . S
C1460 C1459 1.523 . S
H1461 C1436 0.950 . S
H1462 C1438 0.950 . S
H1463 C1439 0.949 . S
H1464 C1441 0.950 . S
H1465 C1443 0.950 . S
C1466 C1467 1.349 . S
C1466 C1468 1.327 . S
C1466 H1491 0.950 . S
C1467 C1466 1.349 . S
C1467 C1483 1.349 . S
C1468 C1466 1.327 . S
C1468 C1487 1.429 . S
C1468 H1492 0.950 . S
C1469 C1486 1.574 . S
C1469 C1488 1.368 . S
C1469 H1493 0.949 . S
H1470 C1474 0.949 . S
C1471 C1472 1.349 . S
C1471 C1473 1.327 . S
C1471 H1494 0.950 . S
C1472 C1471 1.349 . S
C1472 C1484 1.349 . S
C1473 C1471 1.327 . S
C1473 C1489 1.429 . S
C1473 H1495 0.950 . S
C1474 H1470 0.949 . S
C1474 C1482 1.574 . S
C1474 C1490 1.368 . S
H1475 C1483 0.950 . S
H1476 C1481 0.950 . S
H1477 C1482 0.949 . S
H1478 C1484 0.950 . S
H1479 C1485 0.950 . S
H1480 C1486 0.949 . S
C1481 H1476 0.950 . S
C1481 C1483 1.327 . S
C1481 C1487 1.429 . S
C1482 C1474 1.574 . S
C1482 H1477 0.949 . S
C1482 C1488 1.368 . S
C1483 C1467 1.349 . S
C1483 H1475 0.950 . S
C1483 C1481 1.327 . S
C1484 C1472 1.349 . S
C1484 H1478 0.950 . S
C1484 C1485 1.327 . S
C1485 H1479 0.950 . S
C1485 C1484 1.327 . S
C1485 C1489 1.429 . S
C1486 C1469 1.574 . S
C1486 H1480 0.949 . S
C1486 C1490 1.368 . S
C1487 C1468 1.429 . S
C1487 C1481 1.429 . S
C1487 C1488 1.523 . S
C1488 C1469 1.368 . S
C1488 C1482 1.368 . S
C1488 C1487 1.523 . S
C1489 C1473 1.429 . S
C1489 C1485 1.429 . S
C1489 C1490 1.523 . S
C1490 C1474 1.368 . S
C1490 C1486 1.368 . S
C1490 C1489 1.523 . S
H1491 C1466 0.950 . S
H1492 C1468 0.950 . S
H1493 C1469 0.949 . S
H1494 C1471 0.950 . S
H1495 C1473 0.950 . S
C1496 C1497 1.349 . S
C1496 C1498 1.327 . S
C1496 H1521 0.950 . S
C1497 C1496 1.349 . S
C1497 C1513 1.349 . S
C1498 C1496 1.327 . S
C1498 C1517 1.429 . S
C1498 H1522 0.950 . S
C1499 C1516 1.574 . S
C1499 C1518 1.368 . S
C1499 H1523 0.949 . S
H1500 C1504 0.949 . S
C1501 C1502 1.349 . S
C1501 C1503 1.327 . S
C1501 H1524 0.950 . S
C1502 C1501 1.349 . S
C1502 C1514 1.349 . S
C1503 C1501 1.327 . S
C1503 C1519 1.429 . S
C1503 H1525 0.950 . S
C1504 H1500 0.949 . S
C1504 C1512 1.574 . S
C1504 C1520 1.368 . S
H1505 C1513 0.950 . S
H1506 C1511 0.950 . S
H1507 C1512 0.949 . S
H1508 C1514 0.950 . S
H1509 C1515 0.950 . S
H1510 C1516 0.949 . S
C1511 H1506 0.950 . S
C1511 C1513 1.327 . S
C1511 C1517 1.429 . S
C1512 C1504 1.574 . S
C1512 H1507 0.949 . S
C1512 C1518 1.368 . S
C1513 C1497 1.349 . S
C1513 H1505 0.950 . S
C1513 C1511 1.327 . S
C1514 C1502 1.349 . S
C1514 H1508 0.950 . S
C1514 C1515 1.327 . S
C1515 H1509 0.950 . S
C1515 C1514 1.327 . S
C1515 C1519 1.429 . S
C1516 C1499 1.574 . S
C1516 H1510 0.949 . S
C1516 C1520 1.368 . S
C1517 C1498 1.429 . S
C1517 C1511 1.429 . S
C1517 C1518 1.523 . S
C1518 C1499 1.368 . S
C1518 C1512 1.368 . S
C1518 C1517 1.523 . S
C1519 C1503 1.429 . S
C1519 C1515 1.429 . S
C1519 C1520 1.523 . S
C1520 C1504 1.368 . S
C1520 C1516 1.368 . S
C1520 C1519 1.523 . S
H1521 C1496 0.950 . S
H1522 C1498 0.950 . S
H1523 C1499 0.949 . S
H1524 C1501 0.950 . S
H1525 C1503 0.950 . S
C1526 C1527 1.349 . S
C1526 C1528 1.327 . S
C1526 H1551 0.950 . S
C1527 C1526 1.349 . S
C1527 C1543 1.349 . S
C1528 C1526 1.327 . S
C1528 C1547 1.429 . S
C1528 H1552 0.950 . S
C1529 C1546 1.574 . S
C1529 C1548 1.368 . S
C1529 H1553 0.949 . S
H1530 C1534 0.949 . S
C1531 C1532 1.349 . S
C1531 C1533 1.327 . S
C1531 H1554 0.950 . S
C1532 C1531 1.349 . S
C1532 C1544 1.349 . S
C1533 C1531 1.327 . S
C1533 C1549 1.429 . S
C1533 H1555 0.950 . S
C1534 H1530 0.949 . S
C1534 C1542 1.574 . S
C1534 C1550 1.368 . S
H1535 C1543 0.950 . S
H1536 C1541 0.950 . S
H1537 C1542 0.949 . S
H1538 C1544 0.950 . S
H1539 C1545 0.950 . S
H1540 C1546 0.949 . S
C1541 H1536 0.950 . S
C1541 C1543 1.327 . S
C1541 C1547 1.429 . S
C1542 C1534 1.574 . S
C1542 H1537 0.949 . S
C1542 C1548 1.368 . S
C1543 C1527 1.349 . S
C1543 H1535 0.950 . S
C1543 C1541 1.327 . S
C1544 C1532 1.349 . S
C1544 H1538 0.950 . S
C1544 C1545 1.327 . S
C1545 H1539 0.950 . S
C1545 C1544 1.327 . S
C1545 C1549 1.429 . S
C1546 C1529 1.574 . S
C1546 H1540 0.949 . S
C1546 C1550 1.368 . S
C1547 C1528 1.429 . S
C1547 C1541 1.429 . S
C1547 C1548 1.523 . S
C1548 C1529 1.368 . S
C1548 C1542 1.368 . S
C1548 C1547 1.523 . S
C1549 C1533 1.429 . S
C1549 C1545 1.429 . S
C1549 C1550 1.523 . S
C1550 C1534 1.368 . S
C1550 C1546 1.368 . S
C1550 C1549 1.523 . S
H1551 C1526 0.950 . S
H1552 C1528 0.950 . S
H1553 C1529 0.949 . S
H1554 C1531 0.950 . S
H1555 C1533 0.950 . S
C1556 C1557 1.349 . S
C1556 C1558 1.327 . S
C1556 H1581 0.950 . S
C1557 C1556 1.349 . S
C1557 C1573 1.349 . S
C1558 C1556 1.327 . S
C1558 C1577 1.429 . S
C1558 H1582 0.950 . S
C1559 C1576 1.574 . S
C1559 C1578 1.368 . S
C1559 H1583 0.949 . S
H1560 C1564 0.949 . S
C1561 C1562 1.349 . S
C1561 C1563 1.327 . S
C1561 H1584 0.950 . S
C1562 C1561 1.349 . S
C1562 C1574 1.349 . S
C1563 C1561 1.327 . S
C1563 C1579 1.429 . S
C1563 H1585 0.950 . S
C1564 H1560 0.949 . S
C1564 C1572 1.574 . S
C1564 C1580 1.368 . S
H1565 C1573 0.950 . S
H1566 C1571 0.950 . S
H1567 C1572 0.949 . S
H1568 C1574 0.950 . S
H1569 C1575 0.950 . S
H1570 C1576 0.949 . S
C1571 H1566 0.950 . S
C1571 C1573 1.327 . S
C1571 C1577 1.429 . S
C1572 C1564 1.574 . S
C1572 H1567 0.949 . S
C1572 C1578 1.368 . S
C1573 C1557 1.349 . S
C1573 H1565 0.950 . S
C1573 C1571 1.327 . S
C1574 C1562 1.349 . S
C1574 H1568 0.950 . S
C1574 C1575 1.327 . S
C1575 H1569 0.950 . S
C1575 C1574 1.327 . S
C1575 C1579 1.429 . S
C1576 C1559 1.574 . S
C1576 H1570 0.949 . S
C1576 C1580 1.368 . S
C1577 C1558 1.429 . S
C1577 C1571 1.429 . S
C1577 C1578 1.523 . S
C1578 C1559 1.368 . S
C1578 C1572 1.368 . S
C1578 C1577 1.523 . S
C1579 C1563 1.429 . S
C1579 C1575 1.429 . S
C1579 C1580 1.523 . S
C1580 C1564 1.368 . S
C1580 C1576 1.368 . S
C1580 C1579 1.523 . S
H1581 C1556 0.950 . S
H1582 C1558 0.950 . S
H1583 C1559 0.949 . S
H1584 C1561 0.950 . S
H1585 C1563 0.950 . S
C1586 C1587 1.349 . S
C1586 C1588 1.327 . S
C1586 H1611 0.950 . S
C1587 C1586 1.349 . S
C1587 C1603 1.349 . S
C1588 C1586 1.327 . S
C1588 C1607 1.429 . S
C1588 H1612 0.950 . S
C1589 C1606 1.574 . S
C1589 C1608 1.368 . S
C1589 H1613 0.949 . S
H1590 C1594 0.949 . S
C1591 C1592 1.349 . S
C1591 C1593 1.327 . S
C1591 H1614 0.950 1_655 S
C1592 C1591 1.349 . S
C1592 C1604 1.349 . S
C1593 C1591 1.327 . S
C1593 C1609 1.429 . S
C1593 H1615 0.950 . S
C1594 H1590 0.949 . S
C1594 C1602 1.574 . S
C1594 C1610 1.368 . S
H1595 C1603 0.950 . S
H1596 C1601 0.950 . S
H1597 C1602 0.949 . S
H1598 C1604 0.950 . S
H1599 C1605 0.950 . S
H1600 C1606 0.949 . S
C1601 H1596 0.950 . S
C1601 C1603 1.327 . S
C1601 C1607 1.429 . S
C1602 C1594 1.574 . S
C1602 H1597 0.949 . S
C1602 C1608 1.368 . S
C1603 C1587 1.349 . S
C1603 H1595 0.950 . S
C1603 C1601 1.327 . S
C1604 C1592 1.349 . S
C1604 H1598 0.950 . S
C1604 C1605 1.327 . S
C1605 H1599 0.950 . S
C1605 C1604 1.327 . S
C1605 C1609 1.429 . S
C1606 C1589 1.574 . S
C1606 H1600 0.949 . S
C1606 C1610 1.368 . S
C1607 C1588 1.429 . S
C1607 C1601 1.429 . S
C1607 C1608 1.523 . S
C1608 C1589 1.368 . S
C1608 C1602 1.368 . S
C1608 C1607 1.523 . S
C1609 C1593 1.429 . S
C1609 C1605 1.429 . S
C1609 C1610 1.523 . S
C1610 C1594 1.368 . S
C1610 C1606 1.368 . S
C1610 C1609 1.523 . S
H1611 C1586 0.950 . S
H1612 C1588 0.950 . S
H1613 C1589 0.949 . S
H1614 C1591 0.950 1_455 S
H1615 C1593 0.950 . S
C1616 C1617 1.349 . S
C1616 C1618 1.327 . S
C1616 H1641 0.950 . S
C1617 C1616 1.349 . S
C1617 C1633 1.349 . S
C1618 C1616 1.327 . S
C1618 C1637 1.429 . S
C1618 H1642 0.950 . S
C1619 C1636 1.574 . S
C1619 C1638 1.368 . S
C1619 H1643 0.949 . S
H1620 C1624 0.949 . S
C1621 C1622 1.349 . S
C1621 C1623 1.327 . S
C1621 H1644 0.950 . S
C1622 C1621 1.349 . S
C1622 C1634 1.349 . S
C1623 C1621 1.327 . S
C1623 C1639 1.429 . S
C1623 H1645 0.950 . S
C1624 H1620 0.949 . S
C1624 C1632 1.574 . S
C1624 C1640 1.368 . S
H1625 C1633 0.950 . S
H1626 C1631 0.950 . S
H1627 C1632 0.949 . S
H1628 C1634 0.950 . S
H1629 C1635 0.950 . S
H1630 C1636 0.949 . S
C1631 H1626 0.950 . S
C1631 C1633 1.327 . S
C1631 C1637 1.429 . S
C1632 C1624 1.574 . S
C1632 H1627 0.949 . S
C1632 C1638 1.368 . S
C1633 C1617 1.349 . S
C1633 H1625 0.950 . S
C1633 C1631 1.327 . S
C1634 C1622 1.349 . S
C1634 H1628 0.950 . S
C1634 C1635 1.327 . S
C1635 H1629 0.950 . S
C1635 C1634 1.327 . S
C1635 C1639 1.429 . S
C1636 C1619 1.574 . S
C1636 H1630 0.949 . S
C1636 C1640 1.368 . S
C1637 C1618 1.429 . S
C1637 C1631 1.429 . S
C1637 C1638 1.523 . S
C1638 C1619 1.368 . S
C1638 C1632 1.368 . S
C1638 C1637 1.523 . S
C1639 C1623 1.429 . S
C1639 C1635 1.429 . S
C1639 C1640 1.523 . S
C1640 C1624 1.368 . S
C1640 C1636 1.368 . S
C1640 C1639 1.523 . S
H1641 C1616 0.950 . S
H1642 C1618 0.950 . S
H1643 C1619 0.949 . S
H1644 C1621 0.950 . S
H1645 C1623 0.950 . S
C1646 C1647 1.349 . S
C1646 C1648 1.327 . S
C1646 H1671 0.950 . S
C1647 C1646 1.349 . S
C1647 C1663 1.349 . S
C1648 C1646 1.327 . S
C1648 C1667 1.429 . S
C1648 H1672 0.950 . S
C1649 C1666 1.574 . S
C1649 C1668 1.368 . S
C1649 H1673 0.949 . S
H1650 C1654 0.949 . S
C1651 C1652 1.349 . S
C1651 C1653 1.327 . S
C1651 H1674 0.950 . S
C1652 C1651 1.349 . S
C1652 C1664 1.349 . S
C1653 C1651 1.327 . S
C1653 C1669 1.429 . S
C1653 H1675 0.950 . S
C1654 H1650 0.949 . S
C1654 C1662 1.574 . S
C1654 C1670 1.368 . S
H1655 C1663 0.950 . S
H1656 C1661 0.950 . S
H1657 C1662 0.949 . S
H1658 C1664 0.950 . S
H1659 C1665 0.950 . S
H1660 C1666 0.949 . S
C1661 H1656 0.950 . S
C1661 C1663 1.327 . S
C1661 C1667 1.429 . S
C1662 C1654 1.574 . S
C1662 H1657 0.949 . S
C1662 C1668 1.368 . S
C1663 C1647 1.349 . S
C1663 H1655 0.950 . S
C1663 C1661 1.327 . S
C1664 C1652 1.349 . S
C1664 H1658 0.950 . S
C1664 C1665 1.327 . S
C1665 H1659 0.950 . S
C1665 C1664 1.327 . S
C1665 C1669 1.429 . S
C1666 C1649 1.574 . S
C1666 H1660 0.949 . S
C1666 C1670 1.368 . S
C1667 C1648 1.429 . S
C1667 C1661 1.429 . S
C1667 C1668 1.523 . S
C1668 C1649 1.368 . S
C1668 C1662 1.368 . S
C1668 C1667 1.523 . S
C1669 C1653 1.429 . S
C1669 C1665 1.429 . S
C1669 C1670 1.523 . S
C1670 C1654 1.368 . S
C1670 C1666 1.368 . S
C1670 C1669 1.523 . S
H1671 C1646 0.950 . S
H1672 C1648 0.950 . S
H1673 C1649 0.949 . S
H1674 C1651 0.950 . S
H1675 C1653 0.950 . S
C1676 C1677 1.349 . S
C1676 C1678 1.327 . S
C1676 H1701 0.950 . S
C1677 C1676 1.349 . S
C1677 C1693 1.349 . S
C1678 C1676 1.327 . S
C1678 C1697 1.429 . S
C1678 H1702 0.950 . S
C1679 C1696 1.574 . S
C1679 C1698 1.368 . S
C1679 H1703 0.949 . S
H1680 C1684 0.949 . S
C1681 C1682 1.349 . S
C1681 C1683 1.327 . S
C1681 H1704 0.950 . S
C1682 C1681 1.349 . S
C1682 C1694 1.349 . S
C1683 C1681 1.327 . S
C1683 C1699 1.429 . S
C1683 H1705 0.950 . S
C1684 H1680 0.949 . S
C1684 C1692 1.574 . S
C1684 C1700 1.368 . S
H1685 C1693 0.950 . S
H1686 C1691 0.950 . S
H1687 C1692 0.949 . S
H1688 C1694 0.950 . S
H1689 C1695 0.950 . S
H1690 C1696 0.949 . S
C1691 H1686 0.950 . S
C1691 C1693 1.327 . S
C1691 C1697 1.429 . S
C1692 C1684 1.574 . S
C1692 H1687 0.949 . S
C1692 C1698 1.368 . S
C1693 C1677 1.349 . S
C1693 H1685 0.950 . S
C1693 C1691 1.327 . S
C1694 C1682 1.349 . S
C1694 H1688 0.950 . S
C1694 C1695 1.327 . S
C1695 H1689 0.950 . S
C1695 C1694 1.327 . S
C1695 C1699 1.429 . S
C1696 C1679 1.574 . S
C1696 H1690 0.949 . S
C1696 C1700 1.368 . S
C1697 C1678 1.429 . S
C1697 C1691 1.429 . S
C1697 C1698 1.523 . S
C1698 C1679 1.368 . S
C1698 C1692 1.368 . S
C1698 C1697 1.523 . S
C1699 C1683 1.429 . S
C1699 C1695 1.429 . S
C1699 C1700 1.523 . S
C1700 C1684 1.368 . S
C1700 C1696 1.368 . S
C1700 C1699 1.523 . S
H1701 C1676 0.950 . S
H1702 C1678 0.950 . S
H1703 C1679 0.949 . S
H1704 C1681 0.950 . S
H1705 C1683 0.950 . S
C1706 C1707 1.349 . S
C1706 C1708 1.327 . S
C1706 H1731 0.950 . S
C1707 C1706 1.349 . S
C1707 C1723 1.349 . S
C1708 C1706 1.327 . S
C1708 C1727 1.429 . S
C1708 H1732 0.950 . S
C1709 C1726 1.574 . S
C1709 C1728 1.368 . S
C1709 H1733 0.949 . S
H1710 C1714 0.949 . S
C1711 C1712 1.349 . S
C1711 C1713 1.327 . S
C1711 H1734 0.950 . S
C1712 C1711 1.349 . S
C1712 C1724 1.349 . S
C1713 C1711 1.327 . S
C1713 C1729 1.429 . S
C1713 H1735 0.950 . S
C1714 H1710 0.949 . S
C1714 C1722 1.574 . S
C1714 C1730 1.368 . S
H1715 C1723 0.950 . S
H1716 C1721 0.950 . S
H1717 C1722 0.949 . S
H1718 C1724 0.950 . S
H1719 C1725 0.950 . S
H1720 C1726 0.949 . S
C1721 H1716 0.950 . S
C1721 C1723 1.327 . S
C1721 C1727 1.429 . S
C1722 C1714 1.574 . S
C1722 H1717 0.949 . S
C1722 C1728 1.368 . S
C1723 C1707 1.349 . S
C1723 H1715 0.950 . S
C1723 C1721 1.327 . S
C1724 C1712 1.349 . S
C1724 H1718 0.950 . S
C1724 C1725 1.327 . S
C1725 H1719 0.950 . S
C1725 C1724 1.327 . S
C1725 C1729 1.429 . S
C1726 C1709 1.574 . S
C1726 H1720 0.949 . S
C1726 C1730 1.368 . S
C1727 C1708 1.429 . S
C1727 C1721 1.429 . S
C1727 C1728 1.523 . S
C1728 C1709 1.368 . S
C1728 C1722 1.368 . S
C1728 C1727 1.523 . S
C1729 C1713 1.429 . S
C1729 C1725 1.429 . S
C1729 C1730 1.523 . S
C1730 C1714 1.368 . S
C1730 C1726 1.368 . S
C1730 C1729 1.523 . S
H1731 C1706 0.950 . S
H1732 C1708 0.950 . S
H1733 C1709 0.949 . S
H1734 C1711 0.950 . S
H1735 C1713 0.950 . S
C1736 C1737 1.349 . S
C1736 C1738 1.327 . S
C1736 H1761 0.950 . S
C1737 C1736 1.349 . S
C1737 C1753 1.349 . S
C1738 C1736 1.327 . S
C1738 C1757 1.429 . S
C1738 H1762 0.950 . S
C1739 C1756 1.574 . S
C1739 C1758 1.368 . S
C1739 H1763 0.949 . S
H1740 C1744 0.949 . S
C1741 C1742 1.349 . S
C1741 C1743 1.327 . S
C1741 H1764 0.950 . S
C1742 C1741 1.349 . S
C1742 C1754 1.349 . S
C1743 C1741 1.327 . S
C1743 C1759 1.429 . S
C1743 H1765 0.950 . S
C1744 H1740 0.949 . S
C1744 C1752 1.574 . S
C1744 C1760 1.368 . S
H1745 C1753 0.950 . S
H1746 C1751 0.950 . S
H1747 C1752 0.949 . S
H1748 C1754 0.950 1_565 S
H1749 C1755 0.950 . S
H1750 C1756 0.949 . S
C1751 H1746 0.950 . S
C1751 C1753 1.327 . S
C1751 C1757 1.429 . S
C1752 C1744 1.574 . S
C1752 H1747 0.949 . S
C1752 C1758 1.368 . S
C1753 C1737 1.349 . S
C1753 H1745 0.950 . S
C1753 C1751 1.327 . S
C1754 C1742 1.349 . S
C1754 H1748 0.950 1_545 S
C1754 C1755 1.327 . S
C1755 H1749 0.950 . S
C1755 C1754 1.327 . S
C1755 C1759 1.429 . S
C1756 C1739 1.574 . S
C1756 H1750 0.949 . S
C1756 C1760 1.368 . S
C1757 C1738 1.429 . S
C1757 C1751 1.429 . S
C1757 C1758 1.523 . S
C1758 C1739 1.368 . S
C1758 C1752 1.368 . S
C1758 C1757 1.523 . S
C1759 C1743 1.429 . S
C1759 C1755 1.429 . S
C1759 C1760 1.523 . S
C1760 C1744 1.368 . S
C1760 C1756 1.368 . S
C1760 C1759 1.523 . S
H1761 C1736 0.950 . S
H1762 C1738 0.950 . S
H1763 C1739 0.949 . S
H1764 C1741 0.950 . S
H1765 C1743 0.950 . S
C1766 C1767 1.349 . S
C1766 C1768 1.327 . S
C1766 H1791 0.950 . S
C1767 C1766 1.349 . S
C1767 C1783 1.349 . S
C1768 C1766 1.327 . S
C1768 C1787 1.429 . S
C1768 H1792 0.950 . S
C1769 C1786 1.574 . S
C1769 C1788 1.368 . S
C1769 H1793 0.949 . S
H1770 C1774 0.949 . S
C1771 C1772 1.349 . S
C1771 C1773 1.327 . S
C1771 H1794 0.950 . S
C1772 C1771 1.349 . S
C1772 C1784 1.349 . S
C1773 C1771 1.327 . S
C1773 C1789 1.429 . S
C1773 H1795 0.950 . S
C1774 H1770 0.949 . S
C1774 C1782 1.574 . S
C1774 C1790 1.368 . S
H1775 C1783 0.950 . S
H1776 C1781 0.950 . S
H1777 C1782 0.949 . S
H1778 C1784 0.950 . S
H1779 C1785 0.950 . S
H1780 C1786 0.949 . S
C1781 H1776 0.950 . S
C1781 C1783 1.327 . S
C1781 C1787 1.429 . S
C1782 C1774 1.574 . S
C1782 H1777 0.949 . S
C1782 C1788 1.368 . S
C1783 C1767 1.349 . S
C1783 H1775 0.950 . S
C1783 C1781 1.327 . S
C1784 C1772 1.349 . S
C1784 H1778 0.950 . S
C1784 C1785 1.327 . S
C1785 H1779 0.950 . S
C1785 C1784 1.327 . S
C1785 C1789 1.429 . S
C1786 C1769 1.574 . S
C1786 H1780 0.949 . S
C1786 C1790 1.368 . S
C1787 C1768 1.429 . S
C1787 C1781 1.429 . S
C1787 C1788 1.523 . S
C1788 C1769 1.368 . S
C1788 C1782 1.368 . S
C1788 C1787 1.523 . S
C1789 C1773 1.429 . S
C1789 C1785 1.429 . S
C1789 C1790 1.523 . S
C1790 C1774 1.368 . S
C1790 C1786 1.368 . S
C1790 C1789 1.523 . S
H1791 C1766 0.950 . S
H1792 C1768 0.950 . S
H1793 C1769 0.949 . S
H1794 C1771 0.950 . S
H1795 C1773 0.950 . S
C1796 C1797 1.349 . S
C1796 C1798 1.327 . S
C1796 H1821 0.950 . S
C1797 C1796 1.349 . S
C1797 C1813 1.349 . S
C1798 C1796 1.327 . S
C1798 C1817 1.429 . S
C1798 H1822 0.950 . S
C1799 C1816 1.574 . S
C1799 C1818 1.368 . S
C1799 H1823 0.949 . S
H1800 C1804 0.949 . S
C1801 C1802 1.349 . S
C1801 C1803 1.327 . S
C1801 H1824 0.950 . S
C1802 C1801 1.349 . S
C1802 C1814 1.349 . S
C1803 C1801 1.327 . S
C1803 C1819 1.429 . S
C1803 H1825 0.950 . S
C1804 H1800 0.949 . S
C1804 C1812 1.574 . S
C1804 C1820 1.368 . S
H1805 C1813 0.950 . S
H1806 C1811 0.950 . S
H1807 C1812 0.949 . S
H1808 C1814 0.950 . S
H1809 C1815 0.950 . S
H1810 C1816 0.949 . S
C1811 H1806 0.950 . S
C1811 C1813 1.327 . S
C1811 C1817 1.429 . S
C1812 C1804 1.574 . S
C1812 H1807 0.949 . S
C1812 C1818 1.368 . S
C1813 C1797 1.349 . S
C1813 H1805 0.950 . S
C1813 C1811 1.327 . S
C1814 C1802 1.349 . S
C1814 H1808 0.950 . S
C1814 C1815 1.327 . S
C1815 H1809 0.950 . S
C1815 C1814 1.327 . S
C1815 C1819 1.429 . S
C1816 C1799 1.574 . S
C1816 H1810 0.949 . S
C1816 C1820 1.368 . S
C1817 C1798 1.429 . S
C1817 C1811 1.429 . S
C1817 C1818 1.523 . S
C1818 C1799 1.368 . S
C1818 C1812 1.368 . S
C1818 C1817 1.523 . S
C1819 C1803 1.429 . S
C1819 C1815 1.429 . S
C1819 C1820 1.523 . S
C1820 C1804 1.368 . S
C1820 C1816 1.368 . S
C1820 C1819 1.523 . S
H1821 C1796 0.950 . S
H1822 C1798 0.950 . S
H1823 C1799 0.949 . S
H1824 C1801 0.950 . S
H1825 C1803 0.950 . S
C1826 C1827 1.349 . S
C1826 C1828 1.327 . S
C1826 H1851 0.950 . S
C1827 C1826 1.349 . S
C1827 C1843 1.349 . S
C1828 C1826 1.327 . S
C1828 C1847 1.429 . S
C1828 H1852 0.950 . S
C1829 C1846 1.574 . S
C1829 C1848 1.368 . S
C1829 H1853 0.949 . S
H1830 C1834 0.949 . S
C1831 C1832 1.349 . S
C1831 C1833 1.327 . S
C1831 H1854 0.950 . S
C1832 C1831 1.349 . S
C1832 C1844 1.349 . S
C1833 C1831 1.327 . S
C1833 C1849 1.429 . S
C1833 H1855 0.950 . S
C1834 H1830 0.949 . S
C1834 C1842 1.574 . S
C1834 C1850 1.368 . S
H1835 C1843 0.950 . S
H1836 C1841 0.950 . S
H1837 C1842 0.949 . S
H1838 C1844 0.950 . S
H1839 C1845 0.950 . S
H1840 C1846 0.949 . S
C1841 H1836 0.950 . S
C1841 C1843 1.327 . S
C1841 C1847 1.429 . S
C1842 C1834 1.574 . S
C1842 H1837 0.949 . S
C1842 C1848 1.368 . S
C1843 C1827 1.349 . S
C1843 H1835 0.950 . S
C1843 C1841 1.327 . S
C1844 C1832 1.349 . S
C1844 H1838 0.950 . S
C1844 C1845 1.327 . S
C1845 H1839 0.950 . S
C1845 C1844 1.327 . S
C1845 C1849 1.429 . S
C1846 C1829 1.574 . S
C1846 H1840 0.949 . S
C1846 C1850 1.368 . S
C1847 C1828 1.429 . S
C1847 C1841 1.429 . S
C1847 C1848 1.523 . S
C1848 C1829 1.368 . S
C1848 C1842 1.368 . S
C1848 C1847 1.523 . S
C1849 C1833 1.429 . S
C1849 C1845 1.429 . S
C1849 C1850 1.523 . S
C1850 C1834 1.368 . S
C1850 C1846 1.368 . S
C1850 C1849 1.523 . S
H1851 C1826 0.950 . S
H1852 C1828 0.950 . S
H1853 C1829 0.949 . S
H1854 C1831 0.950 . S
H1855 C1833 0.950 . S
C1856 C1857 1.349 . S
C1856 C1858 1.327 . S
C1856 H1881 0.950 . S
C1857 C1856 1.349 . S
C1857 C1873 1.349 . S
C1858 C1856 1.327 . S
C1858 C1877 1.429 . S
C1858 H1882 0.950 . S
C1859 C1876 1.574 . S
C1859 C1878 1.368 . S
C1859 H1883 0.949 . S
H1860 C1864 0.949 . S
C1861 C1862 1.349 . S
C1861 C1863 1.327 . S
C1861 H1884 0.950 . S
C1862 C1861 1.349 . S
C1862 C1874 1.349 . S
C1863 C1861 1.327 . S
C1863 C1879 1.429 . S
C1863 H1885 0.950 . S
C1864 H1860 0.949 . S
C1864 C1872 1.574 . S
C1864 C1880 1.368 . S
H1865 C1873 0.950 . S
H1866 C1871 0.950 . S
H1867 C1872 0.949 . S
H1868 C1874 0.950 . S
H1869 C1875 0.950 . S
H1870 C1876 0.949 . S
C1871 H1866 0.950 . S
C1871 C1873 1.327 . S
C1871 C1877 1.429 . S
C1872 C1864 1.574 . S
C1872 H1867 0.949 . S
C1872 C1878 1.368 . S
C1873 C1857 1.349 . S
C1873 H1865 0.950 . S
C1873 C1871 1.327 . S
C1874 C1862 1.349 . S
C1874 H1868 0.950 . S
C1874 C1875 1.327 . S
C1875 H1869 0.950 . S
C1875 C1874 1.327 . S
C1875 C1879 1.429 . S
C1876 C1859 1.574 . S
C1876 H1870 0.949 . S
C1876 C1880 1.368 . S
C1877 C1858 1.429 . S
C1877 C1871 1.429 . S
C1877 C1878 1.523 . S
C1878 C1859 1.368 . S
C1878 C1872 1.368 . S
C1878 C1877 1.523 . S
C1879 C1863 1.429 . S
C1879 C1875 1.429 . S
C1879 C1880 1.523 . S
C1880 C1864 1.368 . S
C1880 C1876 1.368 . S
C1880 C1879 1.523 . S
H1881 C1856 0.950 . S
H1882 C1858 0.950 . S
H1883 C1859 0.949 . S
H1884 C1861 0.950 . S
H1885 C1863 0.950 . S
C1886 C1887 1.349 . S
C1886 C1888 1.327 . S
C1886 H1911 0.950 . S
C1887 C1886 1.349 . S
C1887 C1903 1.349 . S
C1888 C1886 1.327 . S
C1888 C1907 1.429 . S
C1888 H1912 0.950 . S
C1889 C1906 1.574 . S
C1889 C1908 1.368 . S
C1889 H1913 0.949 . S
H1890 C1894 0.949 . S
C1891 C1892 1.349 . S
C1891 C1893 1.327 . S
C1891 H1914 0.950 1_655 S
C1892 C1891 1.349 . S
C1892 C1904 1.349 . S
C1893 C1891 1.327 . S
C1893 C1909 1.429 . S
C1893 H1915 0.950 . S
C1894 H1890 0.949 . S
C1894 C1902 1.574 . S
C1894 C1910 1.368 . S
H1895 C1903 0.950 . S
H1896 C1901 0.950 . S
H1897 C1902 0.949 . S
H1898 C1904 0.950 . S
H1899 C1905 0.950 . S
H1900 C1906 0.949 . S
C1901 H1896 0.950 . S
C1901 C1903 1.327 . S
C1901 C1907 1.429 . S
C1902 C1894 1.574 . S
C1902 H1897 0.949 . S
C1902 C1908 1.368 . S
C1903 C1887 1.349 . S
C1903 H1895 0.950 . S
C1903 C1901 1.327 . S
C1904 C1892 1.349 . S
C1904 H1898 0.950 . S
C1904 C1905 1.327 . S
C1905 H1899 0.950 . S
C1905 C1904 1.327 . S
C1905 C1909 1.429 . S
C1906 C1889 1.574 . S
C1906 H1900 0.949 . S
C1906 C1910 1.368 . S
C1907 C1888 1.429 . S
C1907 C1901 1.429 . S
C1907 C1908 1.523 . S
C1908 C1889 1.368 . S
C1908 C1902 1.368 . S
C1908 C1907 1.523 . S
C1909 C1893 1.429 . S
C1909 C1905 1.429 . S
C1909 C1910 1.523 . S
C1910 C1894 1.368 . S
C1910 C1906 1.368 . S
C1910 C1909 1.523 . S
H1911 C1886 0.950 . S
H1912 C1888 0.950 . S
H1913 C1889 0.949 . S
H1914 C1891 0.950 1_455 S
H1915 C1893 0.950 . S
C1916 C1917 1.349 . S
C1916 C1918 1.327 . S
C1916 H1941 0.950 . S
C1917 C1916 1.349 . S
C1917 C1933 1.349 . S
C1918 C1916 1.327 . S
C1918 C1937 1.429 . S
C1918 H1942 0.950 . S
C1919 C1936 1.574 . S
C1919 C1938 1.368 . S
C1919 H1943 0.949 . S
H1920 C1924 0.949 . S
C1921 C1922 1.349 . S
C1921 C1923 1.327 . S
C1921 H1944 0.950 . S
C1922 C1921 1.349 . S
C1922 C1934 1.349 . S
C1923 C1921 1.327 . S
C1923 C1939 1.429 . S
C1923 H1945 0.950 . S
C1924 H1920 0.949 . S
C1924 C1932 1.574 . S
C1924 C1940 1.368 . S
H1925 C1933 0.950 . S
H1926 C1931 0.950 . S
H1927 C1932 0.949 . S
H1928 C1934 0.950 . S
H1929 C1935 0.950 . S
H1930 C1936 0.949 . S
C1931 H1926 0.950 . S
C1931 C1933 1.327 . S
C1931 C1937 1.429 . S
C1932 C1924 1.574 . S
C1932 H1927 0.949 . S
C1932 C1938 1.368 . S
C1933 C1917 1.349 . S
C1933 H1925 0.950 . S
C1933 C1931 1.327 . S
C1934 C1922 1.349 . S
C1934 H1928 0.950 . S
C1934 C1935 1.327 . S
C1935 H1929 0.950 . S
C1935 C1934 1.327 . S
C1935 C1939 1.429 . S
C1936 C1919 1.574 . S
C1936 H1930 0.949 . S
C1936 C1940 1.368 . S
C1937 C1918 1.429 . S
C1937 C1931 1.429 . S
C1937 C1938 1.523 . S
C1938 C1919 1.368 . S
C1938 C1932 1.368 . S
C1938 C1937 1.523 . S
C1939 C1923 1.429 . S
C1939 C1935 1.429 . S
C1939 C1940 1.523 . S
C1940 C1924 1.368 . S
C1940 C1936 1.368 . S
C1940 C1939 1.523 . S
H1941 C1916 0.950 . S
H1942 C1918 0.950 . S
H1943 C1919 0.949 . S
H1944 C1921 0.950 . S
H1945 C1923 0.950 . S
C512 C331 2.626 . S
C507 C24 2.628 . S
C542 C321 3.275 . S
C537 C53 3.281 . S
C572 C322 0.753 . S
C567 C82 0.753 . S
C597 C137 0.263 . S
C602 C344 0.456 . S
C627 C184 3.084 . S
C632 C347 3.061 . S
C662 C330 0.776 . S
C657 C202 0.778 . S
C687 C266 0.357 . S
C692 C320 0.396 . S
C717 C293 2.640 . S
C722 C338 2.629 . S
C752 C351 2.878 . S
C747 C2 2.888 . S
C777 C57 0.643 . S
C782 C400 0.820 . S
C812 C378 0.926 . S
C807 C106 0.930 . S
C842 C392 0.468 . S
C837 C143 0.409 . S
C867 C162 0.471 . S
C872 C353 0.509 . S
C902 C406 0.875 . S
C897 C226 0.885 . S
C927 C264 2.422 . S
C932 C362 2.357 . S
C957 C297 0.345 . S
C962 C383 0.404 1_556 S
C987 C26 0.674 . S
C992 C409 0.687 . S
C1017 C186 0.169 . S
C1022 C393 0.465 . S
C1052 C352 2.502 . S
C1047 C224 2.514 . S
C1082 C384 1.170 . S
C1077 C242 1.219 . S
C1107 C303 3.277 . S
C1112 C375 3.221 . S
C1137 C104 2.186 . S
C1142 C382 2.167 . S
C1172 C369 2.808 1_565 S
C1167 C133 2.839 . S
C1197 C63 1.127 . S
C1202 C361 1.136 . S
C1227 C304 2.640 . S
C1232 C424 2.630 . S
C1257 C173 3.084 . S
C1262 C414 3.061 . S
C1292 C415 0.776 . S
C1287 C223 0.778 . S
C1322 C437 0.396 . S
C1317 C257 0.357 . S
C1347 C64 3.281 . S
C1352 C440 3.274 . S
C1382 C423 0.752 . S
C1377 C103 0.753 . S
C1407 C146 0.262 . S
C1412 C413 0.456 . S
C1437 C13 2.627 . S
C1442 C431 2.626 . S
C1467 C282 3.276 . S
C1472 C444 3.220 . S
C1502 C493 0.465 . S
C1497 C177 0.169 . S
C1527 C213 2.515 . S
C1532 C471 2.502 . S
C1557 C263 1.219 . S
C1562 C485 1.170 . S
C1592 C446 1.136 . S
C1587 C42 1.127 . S
C1617 C93 2.187 . S
C1622 C499 2.167 . S
C1652 C455 2.808 . S
C1647 C144 2.839 . S
C1682 C476 0.687 . S
C1677 C17 0.674 . S
C1712 C502 0.404 . S
C1707 C306 0.345 . S
C1737 C66 0.642 . S
C1742 C486 0.820 . S
C1767 C97 0.930 . S
C1772 C445 0.925 . S
C1802 C477 0.467 . S
C1797 C122 0.409 . S
C1827 C23 2.888 . S
C1832 C468 2.878 . S
C1857 C217 0.885 . S
C1862 C475 0.878 . S
C1892 C462 2.357 . S
C1887 C253 2.422 . S
C1922 C454 0.509 . S
C1917 C183 0.471 . S
