# Generated by pormake.
# Topology gar, (4,6)-cn, num edge types: 1
# Building blocks:
#     Node 0, Type 0, BuildingBlock: NAHDIM_clean_sbu_0, # of connection points: 4
#     Node 1, Type 0, BuildingBlock: NAHDIM_clean_sbu_0, # of connection points: 4
#     Node 2, Type 0, BuildingBlock: NAHDIM_clean_sbu_0, # of connection points: 4
#     Node 3, Type 0, BuildingBlock: NAHDIM_clean_sbu_0, # of connection points: 4
#     Node 4, Type 0, BuildingBlock: NAHDIM_clean_sbu_0, # of connection points: 4
#     Node 5, Type 0, BuildingBlock: NAHDIM_clean_sbu_0, # of connection points: 4
#     Node 6, Type 0, BuildingBlock: NAHDIM_clean_sbu_0, # of connection points: 4
#     Node 7, Type 0, BuildingBlock: NAHDIM_clean_sbu_0, # of connection points: 4
#     Node 8, Type 0, BuildingBlock: NAHDIM_clean_sbu_0, # of connection points: 4
#     Node 9, Type 0, BuildingBlock: NAHDIM_clean_sbu_0, # of connection points: 4
#     Node 10, Type 0, BuildingBlock: NAHDIM_clean_sbu_0, # of connection points: 4
#     Node 11, Type 0, BuildingBlock: NAHDIM_clean_sbu_0, # of connection points: 4
#     Node 12, Type 0, BuildingBlock: NAHDIM_clean_sbu_0, # of connection points: 4
#     Node 13, Type 0, BuildingBlock: NAHDIM_clean_sbu_0, # of connection points: 4
#     Node 14, Type 0, BuildingBlock: NAHDIM_clean_sbu_0, # of connection points: 4
#     Node 15, Type 0, BuildingBlock: NAHDIM_clean_sbu_0, # of connection points: 4
#     Node 16, Type 0, BuildingBlock: NAHDIM_clean_sbu_0, # of connection points: 4
#     Node 17, Type 0, BuildingBlock: NAHDIM_clean_sbu_0, # of connection points: 4
#     Node 18, Type 0, BuildingBlock: NAHDIM_clean_sbu_0, # of connection points: 4
#     Node 19, Type 0, BuildingBlock: NAHDIM_clean_sbu_0, # of connection points: 4
#     Node 20, Type 0, BuildingBlock: NAHDIM_clean_sbu_0, # of connection points: 4
#     Node 21, Type 0, BuildingBlock: NAHDIM_clean_sbu_0, # of connection points: 4
#     Node 22, Type 0, BuildingBlock: NAHDIM_clean_sbu_0, # of connection points: 4
#     Node 23, Type 0, BuildingBlock: NAHDIM_clean_sbu_0, # of connection points: 4
#     Node 24, Type 1, BuildingBlock: BETDAH_clean_sbu_0, # of connection points: 6
#     Node 25, Type 1, BuildingBlock: BETDAH_clean_sbu_0, # of connection points: 6
#     Node 26, Type 1, BuildingBlock: BETDAH_clean_sbu_0, # of connection points: 6
#     Node 27, Type 1, BuildingBlock: BETDAH_clean_sbu_0, # of connection points: 6
#     Node 28, Type 1, BuildingBlock: BETDAH_clean_sbu_0, # of connection points: 6
#     Node 29, Type 1, BuildingBlock: BETDAH_clean_sbu_0, # of connection points: 6
#     Node 30, Type 1, BuildingBlock: BETDAH_clean_sbu_0, # of connection points: 6
#     Node 31, Type 1, BuildingBlock: BETDAH_clean_sbu_0, # of connection points: 6
#     Node 32, Type 1, BuildingBlock: BETDAH_clean_sbu_0, # of connection points: 6
#     Node 33, Type 1, BuildingBlock: BETDAH_clean_sbu_0, # of connection points: 6
#     Node 34, Type 1, BuildingBlock: BETDAH_clean_sbu_0, # of connection points: 6
#     Node 35, Type 1, BuildingBlock: BETDAH_clean_sbu_0, # of connection points: 6
#     Node 36, Type 1, BuildingBlock: BETDAH_clean_sbu_0, # of connection points: 6
#     Node 37, Type 1, BuildingBlock: BETDAH_clean_sbu_0, # of connection points: 6
#     Node 38, Type 1, BuildingBlock: BETDAH_clean_sbu_0, # of connection points: 6
#     Node 39, Type 1, BuildingBlock: BETDAH_clean_sbu_0, # of connection points: 6
#     Edge 40, Type (0, 1), BuildingBlock: UVAHIK_clean_linker_0, # of connection points: 2
#     Edge 41, Type (0, 1), BuildingBlock: UVAHIK_clean_linker_0, # of connection points: 2
#     Edge 42, Type (0, 1), BuildingBlock: UVAHIK_clean_linker_0, # of connection points: 2
#     Edge 43, Type (0, 1), BuildingBlock: UVAHIK_clean_linker_0, # of connection points: 2
#     Edge 44, Type (0, 1), BuildingBlock: UVAHIK_clean_linker_0, # of connection points: 2
#     Edge 45, Type (0, 1), BuildingBlock: UVAHIK_clean_linker_0, # of connection points: 2
#     Edge 46, Type (0, 1), BuildingBlock: UVAHIK_clean_linker_0, # of connection points: 2
#     Edge 47, Type (0, 1), BuildingBlock: UVAHIK_clean_linker_0, # of connection points: 2
#     Edge 48, Type (0, 1), BuildingBlock: UVAHIK_clean_linker_0, # of connection points: 2
#     Edge 49, Type (0, 1), BuildingBlock: UVAHIK_clean_linker_0, # of connection points: 2
#     Edge 50, Type (0, 1), BuildingBlock: UVAHIK_clean_linker_0, # of connection points: 2
#     Edge 51, Type (0, 1), BuildingBlock: UVAHIK_clean_linker_0, # of connection points: 2
#     Edge 52, Type (0, 1), BuildingBlock: UVAHIK_clean_linker_0, # of connection points: 2
#     Edge 53, Type (0, 1), BuildingBlock: UVAHIK_clean_linker_0, # of connection points: 2
#     Edge 54, Type (0, 1), BuildingBlock: UVAHIK_clean_linker_0, # of connection points: 2
#     Edge 55, Type (0, 1), BuildingBlock: UVAHIK_clean_linker_0, # of connection points: 2
#     Edge 56, Type (0, 1), BuildingBlock: UVAHIK_clean_linker_0, # of connection points: 2
#     Edge 57, Type (0, 1), BuildingBlock: UVAHIK_clean_linker_0, # of connection points: 2
#     Edge 58, Type (0, 1), BuildingBlock: UVAHIK_clean_linker_0, # of connection points: 2
#     Edge 59, Type (0, 1), BuildingBlock: UVAHIK_clean_linker_0, # of connection points: 2
#     Edge 60, Type (0, 1), BuildingBlock: UVAHIK_clean_linker_0, # of connection points: 2
#     Edge 61, Type (0, 1), BuildingBlock: UVAHIK_clean_linker_0, # of connection points: 2
#     Edge 62, Type (0, 1), BuildingBlock: UVAHIK_clean_linker_0, # of connection points: 2
#     Edge 63, Type (0, 1), BuildingBlock: UVAHIK_clean_linker_0, # of connection points: 2
#     Edge 64, Type (0, 1), BuildingBlock: UVAHIK_clean_linker_0, # of connection points: 2
#     Edge 65, Type (0, 1), BuildingBlock: UVAHIK_clean_linker_0, # of connection points: 2
#     Edge 66, Type (0, 1), BuildingBlock: UVAHIK_clean_linker_0, # of connection points: 2
#     Edge 67, Type (0, 1), BuildingBlock: UVAHIK_clean_linker_0, # of connection points: 2
#     Edge 68, Type (0, 1), BuildingBlock: UVAHIK_clean_linker_0, # of connection points: 2
#     Edge 69, Type (0, 1), BuildingBlock: UVAHIK_clean_linker_0, # of connection points: 2
#     Edge 70, Type (0, 1), BuildingBlock: UVAHIK_clean_linker_0, # of connection points: 2
#     Edge 71, Type (0, 1), BuildingBlock: UVAHIK_clean_linker_0, # of connection points: 2
#     Edge 72, Type (0, 1), BuildingBlock: UVAHIK_clean_linker_0, # of connection points: 2
#     Edge 73, Type (0, 1), BuildingBlock: UVAHIK_clean_linker_0, # of connection points: 2
#     Edge 74, Type (0, 1), BuildingBlock: UVAHIK_clean_linker_0, # of connection points: 2
#     Edge 75, Type (0, 1), BuildingBlock: UVAHIK_clean_linker_0, # of connection points: 2
#     Edge 76, Type (0, 1), BuildingBlock: UVAHIK_clean_linker_0, # of connection points: 2
#     Edge 77, Type (0, 1), BuildingBlock: UVAHIK_clean_linker_0, # of connection points: 2
#     Edge 78, Type (0, 1), BuildingBlock: UVAHIK_clean_linker_0, # of connection points: 2
#     Edge 79, Type (0, 1), BuildingBlock: UVAHIK_clean_linker_0, # of connection points: 2
#     Edge 80, Type (0, 1), BuildingBlock: UVAHIK_clean_linker_0, # of connection points: 2
#     Edge 81, Type (0, 1), BuildingBlock: UVAHIK_clean_linker_0, # of connection points: 2
#     Edge 82, Type (0, 1), BuildingBlock: UVAHIK_clean_linker_0, # of connection points: 2
#     Edge 83, Type (0, 1), BuildingBlock: UVAHIK_clean_linker_0, # of connection points: 2
#     Edge 84, Type (0, 1), BuildingBlock: UVAHIK_clean_linker_0, # of connection points: 2
#     Edge 85, Type (0, 1), BuildingBlock: UVAHIK_clean_linker_0, # of connection points: 2
#     Edge 86, Type (0, 1), BuildingBlock: UVAHIK_clean_linker_0, # of connection points: 2
#     Edge 87, Type (0, 1), BuildingBlock: UVAHIK_clean_linker_0, # of connection points: 2
#     Edge 88, Type (0, 1), BuildingBlock: UVAHIK_clean_linker_0, # of connection points: 2
#     Edge 89, Type (0, 1), BuildingBlock: UVAHIK_clean_linker_0, # of connection points: 2
#     Edge 90, Type (0, 1), BuildingBlock: UVAHIK_clean_linker_0, # of connection points: 2
#     Edge 91, Type (0, 1), BuildingBlock: UVAHIK_clean_linker_0, # of connection points: 2
#     Edge 92, Type (0, 1), BuildingBlock: UVAHIK_clean_linker_0, # of connection points: 2
#     Edge 93, Type (0, 1), BuildingBlock: UVAHIK_clean_linker_0, # of connection points: 2
#     Edge 94, Type (0, 1), BuildingBlock: UVAHIK_clean_linker_0, # of connection points: 2
#     Edge 95, Type (0, 1), BuildingBlock: UVAHIK_clean_linker_0, # of connection points: 2
#     Edge 96, Type (0, 1), BuildingBlock: UVAHIK_clean_linker_0, # of connection points: 2
#     Edge 97, Type (0, 1), BuildingBlock: UVAHIK_clean_linker_0, # of connection points: 2
#     Edge 98, Type (0, 1), BuildingBlock: UVAHIK_clean_linker_0, # of connection points: 2
#     Edge 99, Type (0, 1), BuildingBlock: UVAHIK_clean_linker_0, # of connection points: 2
#     Edge 100, Type (0, 1), BuildingBlock: UVAHIK_clean_linker_0, # of connection points: 2
#     Edge 101, Type (0, 1), BuildingBlock: UVAHIK_clean_linker_0, # of connection points: 2
#     Edge 102, Type (0, 1), BuildingBlock: UVAHIK_clean_linker_0, # of connection points: 2
#     Edge 103, Type (0, 1), BuildingBlock: UVAHIK_clean_linker_0, # of connection points: 2
#     Edge 104, Type (0, 1), BuildingBlock: UVAHIK_clean_linker_0, # of connection points: 2
#     Edge 105, Type (0, 1), BuildingBlock: UVAHIK_clean_linker_0, # of connection points: 2
#     Edge 106, Type (0, 1), BuildingBlock: UVAHIK_clean_linker_0, # of connection points: 2
#     Edge 107, Type (0, 1), BuildingBlock: UVAHIK_clean_linker_0, # of connection points: 2
#     Edge 108, Type (0, 1), BuildingBlock: UVAHIK_clean_linker_0, # of connection points: 2
#     Edge 109, Type (0, 1), BuildingBlock: UVAHIK_clean_linker_0, # of connection points: 2
#     Edge 110, Type (0, 1), BuildingBlock: UVAHIK_clean_linker_0, # of connection points: 2
#     Edge 111, Type (0, 1), BuildingBlock: UVAHIK_clean_linker_0, # of connection points: 2
#     Edge 112, Type (0, 1), BuildingBlock: UVAHIK_clean_linker_0, # of connection points: 2
#     Edge 113, Type (0, 1), BuildingBlock: UVAHIK_clean_linker_0, # of connection points: 2
#     Edge 114, Type (0, 1), BuildingBlock: UVAHIK_clean_linker_0, # of connection points: 2
#     Edge 115, Type (0, 1), BuildingBlock: UVAHIK_clean_linker_0, # of connection points: 2
#     Edge 116, Type (0, 1), BuildingBlock: UVAHIK_clean_linker_0, # of connection points: 2
#     Edge 117, Type (0, 1), BuildingBlock: UVAHIK_clean_linker_0, # of connection points: 2
#     Edge 118, Type (0, 1), BuildingBlock: UVAHIK_clean_linker_0, # of connection points: 2
#     Edge 119, Type (0, 1), BuildingBlock: UVAHIK_clean_linker_0, # of connection points: 2
#     Edge 120, Type (0, 1), BuildingBlock: UVAHIK_clean_linker_0, # of connection points: 2
#     Edge 121, Type (0, 1), BuildingBlock: UVAHIK_clean_linker_0, # of connection points: 2
#     Edge 122, Type (0, 1), BuildingBlock: UVAHIK_clean_linker_0, # of connection points: 2
#     Edge 123, Type (0, 1), BuildingBlock: UVAHIK_clean_linker_0, # of connection points: 2
#     Edge 124, Type (0, 1), BuildingBlock: UVAHIK_clean_linker_0, # of connection points: 2
#     Edge 125, Type (0, 1), BuildingBlock: UVAHIK_clean_linker_0, # of connection points: 2
#     Edge 126, Type (0, 1), BuildingBlock: UVAHIK_clean_linker_0, # of connection points: 2
#     Edge 127, Type (0, 1), BuildingBlock: UVAHIK_clean_linker_0, # of connection points: 2
#     Edge 128, Type (0, 1), BuildingBlock: UVAHIK_clean_linker_0, # of connection points: 2
#     Edge 129, Type (0, 1), BuildingBlock: UVAHIK_clean_linker_0, # of connection points: 2
#     Edge 130, Type (0, 1), BuildingBlock: UVAHIK_clean_linker_0, # of connection points: 2
#     Edge 131, Type (0, 1), BuildingBlock: UVAHIK_clean_linker_0, # of connection points: 2
#     Edge 132, Type (0, 1), BuildingBlock: UVAHIK_clean_linker_0, # of connection points: 2
#     Edge 133, Type (0, 1), BuildingBlock: UVAHIK_clean_linker_0, # of connection points: 2
#     Edge 134, Type (0, 1), BuildingBlock: UVAHIK_clean_linker_0, # of connection points: 2
#     Edge 135, Type (0, 1), BuildingBlock: UVAHIK_clean_linker_0, # of connection points: 2
# Relax obj value: 0.177
# Max RMSD: 0.281
# Mean RMSD: 0.177
data_MOF--net-gar--node1-NAHDIM_clean_sbu_0--node2-BETDAH_clean_sbu_0--edge1-UVAHIK_clean_linker_0
_symmetry_space_group_name_H-M    P1
_symmetry_Int_Tables_number       1
_symmetry_cell_setting            triclinic
loop_
_symmetry_equiv_pos_as_xyz
'x, y, z'
_cell_length_a     79.21484
_cell_length_b     72.696495
_cell_length_c     71.568745
_cell_angle_alpha  98.874263
_cell_angle_beta   95.288454
_cell_angle_gamma 103.3961
loop_
_atom_site_label
_atom_site_type_symbol
_atom_site_fract_x
_atom_site_fract_y
_atom_site_fract_z
_atom_type_partial_charge
C0 C 0.11531 0.32057 0.35935 0.0
O1 O 0.1178 0.33555 0.37307 0.0
O2 O 0.08121 0.28645 0.38936 0.0
Zn3 Zn 0.08377 0.30758 0.37475 0.0
O4 O 0.08854 0.33269 0.39209 0.0
C5 C 0.05017 0.28844 0.35293 0.0
O6 O 0.05368 0.27266 0.35718 0.0
O7 O 0.10188 0.30673 0.35783 0.0
C8 C 0.08548 0.34651 0.38462 0.0
O9 O 0.08054 0.34371 0.36615 0.0
C10 C 0.07165 0.28686 0.4026 0.0
O11 O 0.06519 0.30183 0.40696 0.0
O12 O 0.0612 0.30447 0.35874 0.0
C13 C 0.95978 0.74052 0.66516 0.0
O14 O 0.96665 0.72596 0.6669 0.0
O15 O 0.98419 0.72735 0.62567 0.0
Zn16 Zn 0.98781 0.75165 0.64414 0.0
O17 O 0.99431 0.77393 0.63101 0.0
C18 C 0.01488 0.74011 0.66579 0.0
O19 O 0.00875 0.72347 0.65427 0.0
O20 O 0.9666 0.75287 0.65557 0.0
C21 C 0.00809 0.78727 0.63705 0.0
O22 O 0.01792 0.78689 0.65272 0.0
C23 C 0.99308 0.72772 0.61183 0.0
O24 O 0.00291 0.7442 0.60947 0.0
O25 O 0.00733 0.75354 0.66459 0.0
C26 C 0.61809 0.82084 0.86335 0.0
O27 O 0.62302 0.83247 0.87993 0.0
O28 O 0.58167 0.78905 0.89034 0.0
Zn29 Zn 0.58481 0.81116 0.87678 0.0
O30 O 0.59031 0.83586 0.89499 0.0
C31 C 0.55181 0.79276 0.85418 0.0
O32 O 0.55606 0.77699 0.85738 0.0
O33 O 0.60258 0.81039 0.85942 0.0
C34 C 0.5884 0.85053 0.88832 0.0
O35 O 0.58454 0.84901 0.8698 0.0
C36 C 0.57477 0.78998 0.90565 0.0
O37 O 0.57139 0.80618 0.91317 0.0
O38 O 0.56223 0.80898 0.86103 0.0
C39 C 0.45433 0.24528 0.15359 0.0
O40 O 0.45157 0.24656 0.1355 0.0
O41 O 0.48568 0.22342 0.12757 0.0
Zn42 Zn 0.4889 0.24792 0.14584 0.0
O43 O 0.49127 0.27085 0.13322 0.0
C44 C 0.52282 0.24437 0.15896 0.0
O45 O 0.52012 0.23192 0.14294 0.0
O46 O 0.46954 0.24564 0.16105 0.0
C47 C 0.50431 0.27467 0.12415 0.0
O48 O 0.51468 0.26296 0.1225 0.0
C49 C 0.48414 0.2218 0.10957 0.0
O50 O 0.48303 0.23665 0.10162 0.0
O51 O 0.51094 0.25261 0.16348 0.0
C52 C 0.03446 0.79973 0.13045 0.0
O53 O 0.03365 0.8012 0.11234 0.0
O54 O 0.0639 0.77967 0.10493 0.0
Zn55 Zn 0.06973 0.80458 0.12384 0.0
O56 O 0.06787 0.82725 0.11022 0.0
C57 C 0.10554 0.79988 0.13242 0.0
O58 O 0.10282 0.79315 0.114 0.0
O59 O 0.04938 0.80106 0.13972 0.0
C60 C 0.07817 0.83629 0.10015 0.0
O61 O 0.09308 0.83178 0.0979 0.0
C62 C 0.0667 0.77647 0.08767 0.0
O63 O 0.0745 0.79076 0.07981 0.0
O64 O 0.09368 0.80657 0.14003 0.0
C65 C 0.54544 0.76909 0.39588 0.0
O66 O 0.54672 0.76993 0.41445 0.0
O67 O 0.5084 0.73834 0.41395 0.0
Zn68 Zn 0.50974 0.76244 0.40173 0.0
O69 O 0.51569 0.7874 0.42069 0.0
C70 C 0.47196 0.75702 0.38993 0.0
O71 O 0.47052 0.75062 0.40605 0.0
O72 O 0.53025 0.76526 0.38637 0.0
C73 C 0.50719 0.79279 0.43382 0.0
O74 O 0.49313 0.78079 0.43721 0.0
C75 C 0.51194 0.73843 0.43172 0.0
O76 O 0.5161 0.75489 0.44369 0.0
O77 O 0.48712 0.76193 0.38483 0.0
C78 C 0.5354 0.29944 0.63026 0.0
O79 O 0.53461 0.30176 0.61238 0.0
O80 O 0.56711 0.28092 0.60428 0.0
Zn81 Zn 0.57113 0.3053 0.62396 0.0
O82 O 0.56991 0.32903 0.61176 0.0
C83 C 0.59919 0.29184 0.64181 0.0
O84 O 0.58744 0.27568 0.63479 0.0
O85 O 0.55035 0.30054 0.63936 0.0
C86 C 0.57365 0.3319 0.59532 0.0
O87 O 0.58022 0.31946 0.58492 0.0
C88 C 0.55933 0.27495 0.58732 0.0
O89 O 0.55181 0.28614 0.57856 0.0
O90 O 0.59526 0.30764 0.64 0.0
C91 C 0.04556 0.26927 0.89559 0.0
O92 O 0.04687 0.27028 0.91417 0.0
O93 O 0.00816 0.23828 0.91363 0.0
Zn94 Zn 0.00946 0.26227 0.90103 0.0
O95 O 0.01437 0.28756 0.91943 0.0
C96 C 0.97168 0.25622 0.88798 0.0
O97 O 0.96972 0.24973 0.904 0.0
O98 O 0.03035 0.26533 0.88608 0.0
C99 C 0.00701 0.29255 0.93375 0.0
O100 O 0.99484 0.27979 0.93938 0.0
C101 C 0.01289 0.23848 0.93122 0.0
O102 O 0.01843 0.25506 0.94293 0.0
O103 O 0.98706 0.26131 0.88347 0.0
C104 C 0.39873 0.06486 0.28491 0.0
O105 O 0.41593 0.0699 0.28799 0.0
O106 O 0.41729 0.03415 0.25318 0.0
Zn107 Zn 0.40662 0.03031 0.27665 0.0
O108 O 0.42448 0.03504 0.29903 0.0
C109 C 0.39794 0.99063 0.26103 0.0
O110 O 0.40947 0.99597 0.24962 0.0
O111 O 0.39095 0.04719 0.28067 0.0
C112 C 0.43285 0.02232 0.30053 0.0
O113 O 0.43007 0.00718 0.28698 0.0
C114 C 0.43369 0.03949 0.25328 0.0
O115 O 0.44386 0.04624 0.26962 0.0
O116 O 0.3939 0.0031 0.27309 0.0
C117 C 0.313 0.16612 0.49824 0.0
O118 O 0.31609 0.18449 0.49731 0.0
O119 O 0.28359 0.19055 0.51969 0.0
Zn120 Zn 0.27859 0.1716 0.49495 0.0
O121 O 0.28215 0.18603 0.47277 0.0
C122 C 0.2422 0.16042 0.50197 0.0
O123 O 0.24674 0.17784 0.51218 0.0
O124 O 0.29716 0.15648 0.49693 0.0
C125 C 0.26987 0.1903 0.46293 0.0
O126 O 0.2538 0.18509 0.46696 0.0
C127 C 0.28153 0.20754 0.52207 0.0
O128 O 0.27566 0.2142 0.50739 0.0
O129 O 0.2535 0.15434 0.49279 0.0
C130 C 0.16993 0.96837 0.77157 0.0
O131 O 0.15371 0.96261 0.77496 0.0
O132 O 0.14442 0.00725 0.7449 0.0
Zn133 Zn 0.16019 0.00918 0.77217 0.0
O134 O 0.14608 0.00873 0.79778 0.0
C135 C 0.17352 0.05088 0.76658 0.0
O136 O 0.15788 0.04655 0.75668 0.0
O137 O 0.17531 0.98627 0.76993 0.0
C138 C 0.13229 0.01459 0.80144 0.0
O139 O 0.12464 0.02171 0.7882 0.0
C140 C 0.12794 1.00274 0.73867 0.0
O141 O 0.11681 0.99652 0.75019 0.0
O142 O 0.17783 0.03781 0.77498 0.0
C143 C 0.25926 0.93918 0.99569 0.0
O144 O 0.25645 0.92682 0.97958 0.0
O145 O 0.29614 0.91577 0.01765 0.0
Zn146 Zn 0.29413 0.93374 1.00001 0.0
O147 O 0.29204 0.91842 0.97416 0.0
C148 C 0.32368 0.95854 0.02332 0.0
O149 O 0.31541 0.95184 0.03689 0.0
O150 O 0.27426 0.94431 0.00543 0.0
C151 C 0.3046 0.92078 0.96427 0.0
O152 O 0.31816 0.93562 0.96968 0.0
C153 C 0.30976 0.9094 0.01782 0.0
O154 O 0.32062 0.91361 0.00539 0.0
O155 O 0.31615 0.95421 0.00622 0.0
C156 C 0.2623 0.3987 0.02298 0.0
O157 O 0.25885 0.37984 0.01912 0.0
O158 O 0.29548 0.38149 0.05519 0.0
Zn159 Zn 0.29676 0.39339 0.03098 0.0
O160 O 0.29128 0.37401 0.00637 0.0
C161 C 0.33496 0.40647 0.03638 0.0
O162 O 0.33363 0.39041 0.04306 0.0
O163 O 0.278 0.40823 0.02908 0.0
C164 C 0.30017 0.36256 0.99991 0.0
O165 O 0.31437 0.36157 0.01028 0.0
C166 C 0.29564 0.36422 0.05642 0.0
O167 O 0.2966 0.35227 0.04105 0.0
O168 O 0.321 0.41112 0.03095 0.0
C169 C 0.81482 0.13211 0.01861 0.0
O170 O 0.81798 0.15093 0.0207 0.0
O171 O 0.78284 0.1519 0.04786 0.0
Zn172 Zn 0.78155 0.13695 0.02176 0.0
O173 O 0.7834 0.1539 0.00246 0.0
C174 C 0.7466 0.13005 0.01498 0.0
O175 O 0.75194 0.14863 0.02137 0.0
O176 O 0.79953 0.12244 0.01965 0.0
C177 C 0.78138 0.14534 0.98529 0.0
O178 O 0.78059 0.12685 0.98172 0.0
C179 C 0.78354 0.16973 0.05002 0.0
O180 O 0.78509 0.17846 0.03529 0.0
O181 O 0.75766 0.11993 0.01419 0.0
C182 C 0.172 0.50378 0.24092 0.0
O183 O 0.15486 0.49778 0.23913 0.0
O184 O 0.14851 0.53614 0.21957 0.0
Zn185 Zn 0.16182 0.53724 0.24429 0.0
O186 O 0.14681 0.52964 0.26375 0.0
C187 C 0.16181 0.5746 0.25795 0.0
O188 O 0.14504 0.56739 0.25209 0.0
O189 O 0.17893 0.52155 0.24219 0.0
C190 C 0.15582 0.53182 0.27988 0.0
O191 O 0.1729 0.53472 0.2808 0.0
C192 C 0.13196 0.53197 0.2177 0.0
O193 O 0.12371 0.52693 0.23192 0.0
O194 O 0.17263 0.56435 0.25501 0.0
C195 C 0.76183 0.8996 0.52559 0.0
O196 O 0.75817 0.88086 0.52454 0.0
O197 O 0.79627 0.88215 0.55517 0.0
Zn198 Zn 0.79717 0.89512 0.53148 0.0
O199 O 0.79417 0.87744 0.50592 0.0
C200 C 0.83472 0.90746 0.53501 0.0
O201 O 0.83283 0.88948 0.53709 0.0
O202 O 0.77778 0.90916 0.52925 0.0
C203 C 0.79854 0.86183 0.50091 0.0
O204 O 0.80572 0.85389 0.51378 0.0
C205 C 0.78939 0.86462 0.55583 0.0
O206 O 0.78161 0.85276 0.54005 0.0
O207 O 0.8211 0.91385 0.53307 0.0
C208 C 0.90405 0.09864 0.26242 0.0
O209 O 0.91973 0.10456 0.27232 0.0
O210 O 0.92849 0.05779 0.22677 0.0
Zn211 Zn 0.91475 0.05813 0.25287 0.0
O212 O 0.93194 0.06292 0.27991 0.0
C213 C 0.90044 0.01335 0.24678 0.0
O214 O 0.91501 0.01339 0.23939 0.0
O215 O 0.89935 0.08082 0.25371 0.0
C216 C 0.93963 0.05041 0.28526 0.0
O217 O 0.93813 0.0345 0.27303 0.0
C218 C 0.94012 0.04889 0.22138 0.0
O219 O 0.94583 0.03866 0.233 0.0
O220 O 0.89716 0.02977 0.25236 0.0
C221 C 0.31941 0.63716 0.52012 0.0
O222 O 0.32016 0.65422 0.51577 0.0
O223 O 0.27979 0.65158 0.54672 0.0
Zn224 Zn 0.28367 0.63624 0.52258 0.0
O225 O 0.28251 0.65068 0.50113 0.0
C226 C 0.25521 0.60555 0.52681 0.0
O227 O 0.26121 0.61078 0.54507 0.0
O228 O 0.30539 0.62778 0.52483 0.0
C229 C 0.26709 0.64965 0.49359 0.0
O230 O 0.25359 0.64068 0.50085 0.0
C231 C 0.279 0.66895 0.54771 0.0
O232 O 0.28181 0.67742 0.53296 0.0
O233 O 0.26414 0.61294 0.51486 0.0
C234 C 0.4027 0.59776 0.76256 0.0
O235 O 0.41785 0.60332 0.77356 0.0
O236 O 0.42663 0.55445 0.72685 0.0
Zn237 Zn 0.41342 0.55729 0.75302 0.0
O238 O 0.43001 0.56146 0.78029 0.0
C239 C 0.40041 0.51345 0.74902 0.0
O240 O 0.41626 0.51437 0.74452 0.0
O241 O 0.39835 0.5802 0.75319 0.0
C242 C 0.44227 0.55313 0.78423 0.0
O243 O 0.44672 0.54219 0.77011 0.0
C244 C 0.44228 0.5622 0.72365 0.0
O245 O 0.45294 0.57397 0.73793 0.0
O246 O 0.39577 0.52936 0.75256 0.0
C247 C 0.6715 1.00253 0.74083 0.0
O248 O 0.65436 0.99621 0.73834 0.0
O249 O 0.64819 0.0337 0.71863 0.0
Zn250 Zn 0.66112 0.0359 0.74378 0.0
O251 O 0.64562 0.02888 0.76298 0.0
C252 C 0.66181 0.07408 0.75664 0.0
O253 O 0.6449 0.0674 0.75146 0.0
O254 O 0.67826 0.02039 0.74259 0.0
C255 C 0.65414 0.0316 0.77945 0.0
O256 O 0.67126 0.03459 0.78111 0.0
C257 C 0.63196 0.03269 0.71743 0.0
O258 O 0.62392 0.03138 0.73259 0.0
O259 O 0.67213 0.06324 0.75374 0.0
C260 C 0.81192 0.66652 0.9994 0.0
O261 O 0.81536 0.68534 0.00151 0.0
O262 O 0.78069 0.68987 0.01747 0.0
Zn263 Zn 0.77723 0.67163 0.99229 0.0
O264 O 0.78061 0.68549 0.96957 0.0
C265 C 0.74113 0.65944 0.99943 0.0
O266 O 0.74569 0.67665 0.01011 0.0
O267 O 0.79606 0.65681 0.99484 0.0
C268 C 0.77428 0.69959 0.96685 0.0
O269 O 0.76479 0.70595 0.97927 0.0
C270 C 0.78839 0.70753 0.02314 0.0
O271 O 0.79624 0.7176 0.01125 0.0
O272 O 0.7523 0.65382 0.98965 0.0
C273 C 0.89877 0.56041 0.78305 0.0
O274 O 0.91588 0.56372 0.78634 0.0
O275 O 0.91502 0.52825 0.75253 0.0
Zn276 Zn 0.90458 0.52534 0.77623 0.0
O277 O 0.92293 0.53046 0.79836 0.0
C278 C 0.90021 0.48637 0.76506 0.0
O279 O 0.91572 0.49249 0.75995 0.0
O280 O 0.8896 0.54322 0.77935 0.0
C281 C 0.92298 0.51834 0.80932 0.0
O282 O 0.91023 0.50265 0.80671 0.0
C283 C 0.93139 0.53316 0.75227 0.0
O284 O 0.94191 0.53942 0.76844 0.0
O285 O 0.892 0.49824 0.77222 0.0
C286 C 0.76259 0.4335 0.50892 0.0
O287 O 0.76354 0.41761 0.51501 0.0
O288 O 0.79583 0.41464 0.51979 0.0
Zn289 Zn 0.79622 0.4321 0.50094 0.0
O290 O 0.79894 0.41843 0.4757 0.0
C291 C 0.82522 0.45657 0.52685 0.0
O292 O 0.81864 0.44606 0.53906 0.0
O293 O 0.77491 0.44207 0.50083 0.0
C294 C 0.81188 0.41089 0.47567 0.0
O295 O 0.82236 0.41296 0.4916 0.0
C296 C 0.79421 0.39669 0.51811 0.0
O297 O 0.79208 0.38584 0.50118 0.0
O298 O 0.81739 0.45367 0.50994 0.0
C299 C 0.66982 0.46824 0.27132 0.0
O300 O 0.65353 0.46247 0.27449 0.0
O301 O 0.64436 0.50694 0.24449 0.0
Zn302 Zn 0.6601 0.50908 0.27189 0.0
O303 O 0.64578 0.50837 0.29737 0.0
C304 C 0.67333 0.55086 0.26631 0.0
O305 O 0.6577 0.54645 0.25636 0.0
O306 O 0.67526 0.48616 0.26979 0.0
C307 C 0.63353 0.51659 0.30203 0.0
O308 O 0.62795 0.52657 0.29006 0.0
C309 C 0.62785 0.50355 0.23878 0.0
O310 O 0.61685 0.49906 0.25099 0.0
O311 O 0.67766 0.53782 0.27475 0.0
Ho312 Ho 0.01663 0.02028 1.00079 0.0
Ho313 Ho 0.05457 0.04252 0.02176 0.0
C314 C 0.03083 0.06637 0.00151 0.0
C315 C 0.98316 0.00794 0.99315 0.0
C316 C 0.96995 0.01771 0.98701 0.0
C317 C 0.9708 0.03663 0.99574 0.0
C318 C 0.95843 0.04597 0.98963 0.0
C319 C 0.9451 0.03669 0.97451 0.0
C320 C 0.94468 0.018 0.96533 0.0
C321 C 0.957 0.00856 0.9716 0.0
C322 C 0.04064 0.02073 0.97465 0.0
C323 C 0.04054 0.99636 0.02062 0.0
C324 C 0.088 0.05504 0.02957 0.0
C325 C 0.10124 0.04474 0.03391 0.0
C326 C 0.09896 0.02551 0.02515 0.0
C327 C 0.11093 0.01529 0.0303 0.0
C328 C 0.12533 0.02412 0.04433 0.0
C329 C 0.12736 0.04324 0.05336 0.0
C330 C 0.11536 0.05348 0.04818 0.0
C331 C 0.03045 0.04291 0.04767 0.0
O332 O 0.01723 0.05113 0.99857 0.0
O333 O 0.04662 0.06614 0.00922 0.0
O334 O 0.99375 0.00485 0.98077 0.0
O335 O 0.99128 0.01428 0.01053 0.0
O336 O 0.02397 0.01284 0.971 0.0
O337 O 0.04335 0.02769 0.99251 0.0
O338 O 0.05409 0.01161 0.02342 0.0
O339 O 0.02463 0.99658 0.01327 0.0
O340 O 0.07741 0.05613 0.04237 0.0
O341 O 0.07985 0.05057 0.01211 0.0
O342 O 0.04699 0.05139 0.05116 0.0
O343 O 0.02784 0.03528 0.02998 0.0
H344 H 0.9809 0.04416 0.00745 0.0
H345 H 0.95899 0.06022 0.99726 0.0
H346 H 0.93469 0.01057 0.95349 0.0
H347 H 0.9564 0.99411 0.96444 0.0
H348 H 0.08795 0.01839 0.0143 0.0
H349 H 0.1092 1.00068 0.02289 0.0
H350 H 0.1383 0.05029 0.06432 0.0
H351 H 0.11703 0.06816 0.05536 0.0
Ho352 Ho 0.2994 0.7716 0.23686 0.0
Ho353 Ho 0.28521 0.77793 0.27327 0.0
C354 C 0.29333 0.81267 0.25275 0.0
C355 C 0.31476 0.77354 0.20677 0.0
C356 C 0.31745 0.78658 0.19323 0.0
C357 C 0.30607 0.79838 0.19071 0.0
C358 C 0.30979 0.8122 0.17923 0.0
C359 C 0.32492 0.81432 0.17011 0.0
C360 C 0.33641 0.80262 0.17287 0.0
C361 C 0.33268 0.78882 0.18442 0.0
C362 C 0.32069 0.7702 0.26817 0.0
C363 C 0.28115 0.73504 0.25057 0.0
C364 C 0.28173 0.78077 0.30879 0.0
C365 C 0.26944 0.76891 0.31892 0.0
C366 C 0.26715 0.74889 0.31608 0.0
C367 C 0.25686 0.738 0.32715 0.0
C368 C 0.24849 0.74689 0.34111 0.0
C369 C 0.24948 0.76665 0.34263 0.0
C370 C 0.26001 0.77761 0.3317 0.0
C371 C 0.25728 0.7726 0.24615 0.0
O372 O 0.29329 0.80012 0.23739 0.0
O373 O 0.29404 0.80807 0.26975 0.0
O374 O 0.32247 0.78137 0.22399 0.0
O375 O 0.29879 0.76311 0.20641 0.0
O376 O 0.31679 0.75738 0.2528 0.0
O377 O 0.31227 0.78286 0.26677 0.0
O378 O 0.28312 0.74634 0.26732 0.0
O379 O 0.28399 0.74177 0.23484 0.0
O380 O 0.27492 0.79062 0.2977 0.0
O381 O 0.29315 0.7726 0.30108 0.0
O382 O 0.25675 0.77442 0.26428 0.0
O383 O 0.27268 0.77223 0.24271 0.0
H384 H 0.29446 0.79707 0.19781 0.0
H385 H 0.30088 0.82129 0.17756 0.0
H386 H 0.34809 0.80393 0.1659 0.0
H387 H 0.34176 0.78003 0.18665 0.0
H388 H 0.27392 0.7417 0.30592 0.0
H389 H 0.25655 0.72286 0.32568 0.0
H390 H 0.2429 0.77381 0.35301 0.0
H391 H 0.26126 0.79297 0.33371 0.0
Ho392 Ho 0.55954 0.03842 0.50763 0.0
Ho393 Ho 0.51915 0.03225 0.50639 0.0
C394 C 0.53327 0.99503 0.49901 0.0
C395 C 0.5917 0.03633 0.51346 0.0
C396 C 0.60195 0.02185 0.50892 0.0
C397 C 0.60291 0.00803 0.52047 0.0
C398 C 0.61383 0.99557 0.51704 0.0
C399 C 0.62412 0.99665 0.50203 0.0
C400 C 0.62267 0.01003 0.49009 0.0
C401 C 0.61179 0.02251 0.49353 0.0
C402 C 0.5416 0.03778 0.47403 0.0
C403 C 0.5452 0.07582 0.51459 0.0
C404 C 0.48692 0.03415 0.50083 0.0
C405 C 0.47656 0.0484 0.50597 0.0
C406 C 0.47436 0.06153 0.494 0.0
C407 C 0.46346 0.07387 0.49798 0.0
C408 C 0.45437 0.07337 0.51397 0.0
C409 C 0.45693 0.06058 0.52622 0.0
C410 C 0.46785 0.04822 0.52225 0.0
C411 C 0.53732 0.03303 0.53996 0.0
O412 O 0.54902 0.00619 0.50625 0.0
O413 O 0.51982 1.00219 0.49463 0.0
O414 O 0.58543 0.04302 0.49909 0.0
O415 O 0.58073 0.03348 0.52599 0.0
O416 O 0.5572 0.04876 0.47966 0.0
O417 O 0.5369 0.02715 0.48574 0.0
O418 O 0.52937 0.06439 0.50829 0.0
O419 O 0.55904 0.06894 0.51812 0.0
O420 O 0.49314 0.02676 0.51471 0.0
O421 O 0.498 0.0378 0.48854 0.0
O422 O 0.52176 0.02191 0.53437 0.0
O423 O 0.54182 0.04364 0.5282 0.0
H424 H 0.5956 0.00715 0.5325 0.0
H425 H 0.61474 0.98563 0.52669 0.0
H426 H 0.63018 0.01109 0.47822 0.0
H427 H 0.61139 0.03299 0.48437 0.0
H428 H 0.48071 0.06197 0.48126 0.0
H429 H 0.46162 0.0833 0.48805 0.0
H430 H 0.45031 0.05995 0.53878 0.0
H431 H 0.46918 0.03825 0.53175 0.0
Ho432 Ho 0.26928 0.28566 0.75901 0.0
Ho433 Ho 0.30621 0.27811 0.76239 0.0
C434 C 0.29301 0.29471 0.80039 0.0
C435 C 0.23616 0.27977 0.76186 0.0
C436 C 0.22444 0.28555 0.77552 0.0
C437 C 0.22167 0.27653 0.79142 0.0
C438 C 0.20918 0.28026 0.80307 0.0
C439 C 0.19904 0.29309 0.7992 0.0
C440 C 0.20218 0.30259 0.78365 0.0
C441 C 0.21469 0.29882 0.77193 0.0
C442 C 0.29344 0.32016 0.76024 0.0
C443 C 0.28443 0.2746 0.72045 0.0
C444 C 0.33793 0.27532 0.75897 0.0
C445 C 0.35063 0.27474 0.74501 0.0
C446 C 0.3553 0.28928 0.73418 0.0
C447 C 0.36866 0.28909 0.72256 0.0
C448 C 0.37767 0.27444 0.72161 0.0
C449 C 0.37246 0.25959 0.73195 0.0
C450 C 0.35916 0.25977 0.74349 0.0
C451 C 0.27974 0.2483 0.76784 0.0
O452 O 0.27732 0.29131 0.79061 0.0
O453 O 0.30697 0.29231 0.79254 0.0
O454 O 0.24432 0.29261 0.75259 0.0
O455 O 0.24598 0.26881 0.76724 0.0
O456 O 0.27659 0.3178 0.75904 0.0
O457 O 0.29641 0.30377 0.7609 0.0
O458 O 0.29948 0.2759 0.73087 0.0
O459 O 0.27021 0.27667 0.72793 0.0
O460 O 0.32445 0.26051 0.75671 0.0
O461 O 0.33394 0.29162 0.76457 0.0
O462 O 0.29523 0.25394 0.77764 0.0
O463 O 0.27908 0.25904 0.7554 0.0
H464 H 0.22875 0.26606 0.79458 0.0
H465 H 0.20699 0.27241 0.81468 0.0
H466 H 0.19477 0.31273 0.78035 0.0
H467 H 0.21642 0.30594 0.75976 0.0
H468 H 0.34895 0.30102 0.73502 0.0
H469 H 0.37235 0.30082 0.71488 0.0
H470 H 0.37884 0.24788 0.73131 0.0
H471 H 0.35579 0.24836 0.75164 0.0
Ho472 Ho 0.03465 0.0535 0.52294 0.0
Ho473 Ho 0.03878 0.01675 0.50478 0.0
C474 C 0.02279 0.03984 0.47628 0.0
C475 C 0.03377 0.08893 0.53132 0.0
C476 C 0.03178 0.10258 0.51868 0.0
C477 C 0.0421 0.10473 0.50385 0.0
C478 C 0.03932 0.11661 0.49103 0.0
C479 C 0.02602 0.1264 0.4926 0.0
C480 C 0.01555 0.12406 0.50732 0.0
C481 C 0.01845 0.11226 0.52029 0.0
C482 C 0.00806 0.02371 0.52624 0.0
C483 C 0.05113 0.03068 0.55128 0.0
C484 C 0.03854 0.98097 0.49571 0.0
C485 C 0.03933 0.96629 0.50732 0.0
C486 C 0.03388 0.9681 0.52548 0.0
C487 C 0.03502 0.95435 0.53674 0.0
C488 C 0.04145 0.93852 0.52991 0.0
C489 C 0.04704 0.93682 0.51179 0.0
C490 C 0.04606 0.95072 0.50059 0.0
C491 C 0.06552 0.04632 0.50134 0.0
O492 O 0.02751 0.05433 0.49109 0.0
O493 O 0.02461 0.02264 0.4784 0.0
O494 O 0.02004 0.07468 0.53032 0.0
O495 O 0.04836 0.0834 0.53165 0.0
O496 O 0.01537 0.03801 0.53994 0.0
O497 O 0.01518 0.02596 0.51139 0.0
O498 O 0.04575 0.01608 0.53665 0.0
O499 O 0.04972 0.04801 0.54905 0.0
O500 O 0.05274 0.99486 0.49791 0.0
O501 O 0.02432 0.98718 0.49558 0.0
O502 O 0.05838 0.03171 0.48791 0.0
O503 O 0.05831 0.04437 0.51621 0.0
H504 H 0.05229 0.09716 0.50204 0.0
H505 H 0.04786 0.1184 0.48011 0.0
H506 H 0.0051 0.13129 0.50876 0.0
H507 H 0.01014 0.11047 0.53143 0.0
H508 H 0.02857 0.98001 0.53088 0.0
H509 H 0.03039 0.95579 0.55055 0.0
H510 H 0.0521 0.92472 0.50632 0.0
H511 H 0.05046 0.94927 0.48666 0.0
Ho512 Ho 0.30217 0.79716 0.76352 0.0
Ho513 Ho 0.2687 0.76728 0.764 0.0
C514 C 0.30385 0.75158 0.76482 0.0
C515 C 0.33336 0.81918 0.77161 0.0
C516 C 0.35064 0.81545 0.77545 0.0
C517 C 0.35345 0.80299 0.78793 0.0
C518 C 0.36976 0.79905 0.79094 0.0
C519 C 0.38349 0.80731 0.78138 0.0
C520 C 0.3806 0.81967 0.76881 0.0
C521 C 0.36429 0.82374 0.76591 0.0
C522 C 0.28476 0.77955 0.72916 0.0
C523 C 0.26709 0.81299 0.76248 0.0
C524 C 0.2373 0.74591 0.75599 0.0
C525 C 0.22019 0.75046 0.75446 0.0
C526 C 0.21717 0.76478 0.74439 0.0
C527 C 0.20078 0.76875 0.74276 0.0
C528 C 0.18716 0.75858 0.75127 0.0
C529 C 0.19045 0.74482 0.762 0.0
C530 C 0.20684 0.74076 0.76352 0.0
C531 C 0.2861 0.78456 0.79836 0.0
O532 O 0.31236 0.77024 0.76802 0.0
O533 O 0.28645 0.74659 0.7611 0.0
O534 O 0.32553 0.81294 0.75411 0.0
O535 O 0.32282 0.81573 0.78439 0.0
O536 O 0.29311 0.79759 0.73284 0.0
O537 O 0.287 0.77185 0.74342 0.0
O538 O 0.25852 0.79446 0.76069 0.0
O539 O 0.2845 0.8179 0.76495 0.0
O540 O 0.24599 0.74994 0.77318 0.0
O541 O 0.24716 0.75083 0.74296 0.0
O542 O 0.27771 0.76653 0.79454 0.0
O543 O 0.28387 0.79246 0.78421 0.0
H544 H 0.34306 0.79625 0.79536 0.0
H545 H 0.37166 0.7897 0.80093 0.0
H546 H 0.39088 0.82605 0.76106 0.0
H547 H 0.36228 0.83321 0.75607 0.0
H548 H 0.22735 0.77268 0.73746 0.0
H549 H 0.1986 0.77924 0.73419 0.0
H550 H 0.18026 0.73694 0.76892 0.0
H551 H 0.20904 0.7299 0.77161 0.0
Ho552 Ho 0.543 0.02917 0.03915 0.0
Ho553 Ho 0.53895 0.02819 0.9972 0.0
C554 C 0.50473 0.01532 0.01383 0.0
C555 C 0.53871 0.03122 0.07434 0.0
C556 C 0.52707 0.01703 0.08312 0.0
C557 C 0.5111 0.02024 0.08794 0.0
C558 C 0.49961 0.00654 0.0954 0.0
C559 C 0.50386 0.98936 0.09832 0.0
C560 C 0.51959 0.98587 0.09296 0.0
C561 C 0.53109 0.99956 0.08543 0.0
C562 C 0.54459 0.99559 0.01829 0.0
C563 C 0.5769 0.0411 0.02154 0.0
C564 C 0.54373 0.0275 0.96213 0.0
C565 C 0.55567 0.04162 0.95356 0.0
C566 C 0.5713 0.03779 0.94828 0.0
C567 C 0.58294 0.05118 0.94064 0.0
C568 C 0.57911 0.06859 0.93791 0.0
C569 C 0.5637 0.07268 0.94354 0.0
C570 C 0.55211 0.05936 0.95142 0.0
C571 C 0.53715 0.06155 0.01842 0.0
O572 O 0.51407 0.02496 0.03014 0.0
O573 O 0.51232 0.01087 0.99875 0.0
O574 O 0.55199 0.02596 0.06757 0.0
O575 O 0.53084 0.03996 0.06289 0.0
O576 O 0.55377 1.00295 0.03472 0.0
O577 O 0.53437 0.00562 0.01432 0.0
O578 O 0.56741 0.03029 0.00597 0.0
O579 O 0.56941 0.04659 0.03637 0.0
O580 O 0.53068 0.03302 0.96915 0.0
O581 O 0.55125 0.01819 0.97322 0.0
O582 O 0.52732 0.05373 0.00251 0.0
O583 O 0.54774 0.05188 0.0221 0.0
H584 H 0.50756 0.03344 0.08612 0.0
H585 H 0.48779 0.00993 0.0998 0.0
H586 H 0.52323 0.97279 0.0951 0.0
H587 H 0.54317 0.99647 0.08156 0.0
H588 H 0.57444 0.02433 0.94985 0.0
H589 H 0.59455 0.04744 0.93598 0.0
H590 H 0.56043 0.08594 0.94139 0.0
H591 H 0.54028 0.06288 0.9556 0.0
Ho592 Ho 0.30197 0.30972 0.27658 0.0
Ho593 Ho 0.28555 0.26955 0.25935 0.0
C594 C 0.25985 0.29401 0.27066 0.0
C595 C 0.3105 0.34655 0.2876 0.0
C596 C 0.30008 0.36065 0.29047 0.0
C597 C 0.28375 0.35744 0.27946 0.0
C598 C 0.27341 0.37033 0.28283 0.0
C599 C 0.27938 0.3868 0.29706 0.0
C600 C 0.29572 0.39003 0.30812 0.0
C601 C 0.30597 0.37689 0.30494 0.0
C602 C 0.30035 0.2851 0.30149 0.0
C603 C 0.32783 0.28538 0.26507 0.0
C604 C 0.27684 0.2328 0.24821 0.0
C605 C 0.28699 0.21908 0.24203 0.0
C606 C 0.30379 0.22092 0.25143 0.0
C607 C 0.31356 0.20815 0.24518 0.0
C608 C 0.30668 0.19325 0.22944 0.0
C609 C 0.29006 0.19178 0.2197 0.0
C610 C 0.28029 0.20466 0.22596 0.0
C611 C 0.28636 0.29386 0.23425 0.0
O612 O 0.27328 0.30879 0.27101 0.0
O613 O 0.26186 0.27647 0.26937 0.0
O614 O 0.30882 0.33444 0.29938 0.0
O615 O 0.31006 0.33819 0.26996 0.0
O616 O 0.31391 0.29894 0.30118 0.0
O617 O 0.2883 0.28502 0.28867 0.0
O618 O 0.31432 0.27045 0.26381 0.0
O619 O 0.326 0.30302 0.26747 0.0
O620 O 0.27556 0.24488 0.23679 0.0
O621 O 0.28015 0.24103 0.2662 0.0
O622 O 0.2731 0.27989 0.23504 0.0
O623 O 0.29883 0.29432 0.24685 0.0
H624 H 0.27904 0.34506 0.26812 0.0
H625 H 0.261 0.36778 0.27386 0.0
H626 H 0.30058 0.40276 0.31907 0.0
H627 H 0.3185 0.37944 0.31366 0.0
H628 H 0.30924 0.23201 0.26383 0.0
H629 H 0.32617 0.20942 0.25325 0.0
H630 H 0.28449 0.18046 0.2075 0.0
H631 H 0.26744 0.20327 0.21837 0.0
Ho632 Ho 0.53484 0.55246 0.02181 0.0
Ho633 Ho 0.53806 0.5149 0.00447 0.0
C634 C 0.52235 0.53764 0.97532 0.0
C635 C 0.53513 0.58834 0.0296 0.0
C636 C 0.53251 0.60199 0.01721 0.0
C637 C 0.53966 0.60183 0.99997 0.0
C638 C 0.53687 0.61461 0.98809 0.0
C639 C 0.52672 0.62765 0.99312 0.0
C640 C 0.51915 0.62736 0.01014 0.0
C641 C 0.52207 0.61465 0.02211 0.0
C642 C 0.50765 0.52354 0.02561 0.0
C643 C 0.55042 0.52962 0.05081 0.0
C644 C 0.53741 0.47892 0.99721 0.0
C645 C 0.53791 0.46493 0.00989 0.0
C646 C 0.52756 0.464 0.0248 0.0
C647 C 0.52844 0.451 0.03704 0.0
C648 C 0.53988 0.43887 0.03481 0.0
C649 C 0.55059 0.44026 0.02018 0.0
C650 C 0.54953 0.45312 0.00777 0.0
C651 C 0.5654 0.5438 1.00079 0.0
O652 O 0.52756 0.55243 0.9898 0.0
O653 O 0.52377 0.52038 0.97787 0.0
O654 O 0.52134 0.57456 0.02989 0.0
O655 O 0.54934 0.58221 0.02846 0.0
O656 O 0.51508 0.53808 0.03903 0.0
O657 O 0.51489 0.52516 0.01075 0.0
O658 O 0.54443 0.51476 0.03653 0.0
O659 O 0.54976 0.54704 0.04809 0.0
O660 O 0.55175 0.49253 0.99878 0.0
O661 O 0.52331 0.48534 0.99602 0.0
O662 O 0.5581 0.52912 0.98746 0.0
O663 O 0.55804 0.5422 0.01559 0.0
H664 H 0.54754 0.59195 0.99571 0.0
H665 H 0.54312 0.61462 0.97526 0.0
H666 H 0.51105 0.63704 0.01426 0.0
H667 H 0.51619 0.6147 0.03519 0.0
H668 H 0.51871 0.47325 0.02698 0.0
H669 H 0.51984 0.45017 0.04795 0.0
H670 H 0.5598 0.43142 0.0183 0.0
H671 H 0.55786 0.45392 0.99658 0.0
Ho672 Ho 0.80238 0.29757 0.26398 0.0
Ho673 Ho 0.7693 0.26728 0.26544 0.0
C674 C 0.80484 0.25228 0.26578 0.0
C675 C 0.8333 0.32017 0.2715 0.0
C676 C 0.8506 0.31666 0.27569 0.0
C677 C 0.85313 0.3038 0.2878 0.0
C678 C 0.86936 0.29971 0.29085 0.0
C679 C 0.88329 0.30825 0.28171 0.0
C680 C 0.88071 0.32113 0.26959 0.0
C681 C 0.86446 0.32532 0.26663 0.0
C682 C 0.78439 0.27929 0.23012 0.0
C683 C 0.767 0.31277 0.26321 0.0
C684 C 0.73828 0.2449 0.25812 0.0
C685 C 0.721 0.24889 0.25629 0.0
C686 C 0.71848 0.26465 0.24828 0.0
C687 C 0.70213 0.26864 0.24682 0.0
C688 C 0.688 0.25693 0.2533 0.0
C689 C 0.69061 0.24131 0.26159 0.0
C690 C 0.70705 0.23734 0.26311 0.0
C691 C 0.78719 0.28538 0.29933 0.0
O692 O 0.81315 0.271 0.26857 0.0
O693 O 0.78743 0.24704 0.26253 0.0
O694 O 0.82551 0.31319 0.25408 0.0
O695 O 0.82278 0.31719 0.28442 0.0
O696 O 0.79259 0.29738 0.23333 0.0
O697 O 0.78715 0.27195 0.24449 0.0
O698 O 0.75866 0.29421 0.26197 0.0
O699 O 0.78439 0.3179 0.26522 0.0
O700 O 0.74701 0.24993 0.27529 0.0
O701 O 0.74791 0.24966 0.24486 0.0
O702 O 0.77915 0.26724 0.29596 0.0
O703 O 0.78446 0.29285 0.28501 0.0
H704 H 0.84255 0.29677 0.29482 0.0
H705 H 0.87103 0.28997 0.30051 0.0
H706 H 0.89117 0.32775 0.26219 0.0
H707 H 0.86264 0.33509 0.25706 0.0
H708 H 0.72905 0.27375 0.24288 0.0
H709 H 0.70044 0.28053 0.24 0.0
H710 H 0.67992 0.2321 0.26676 0.0
H711 H 0.70886 0.22523 0.26949 0.0
Ho712 Ho 0.04626 0.52945 0.53587 0.0
Ho713 Ho 0.03443 0.52868 0.49449 0.0
C714 C 0.0057 0.50947 0.51652 0.0
C715 C 0.04728 0.53015 0.57185 0.0
C716 C 0.03536 0.5174 0.58177 0.0
C717 C 0.01828 0.51939 0.58315 0.0
C718 C 0.00669 0.50661 0.59145 0.0
C719 C 0.01185 0.49147 0.59856 0.0
C720 C 0.02878 0.48915 0.59669 0.0
C721 C 0.04044 0.50205 0.58847 0.0
C722 C 0.05161 0.49999 0.5119 0.0
C723 C 0.07439 0.54905 0.5129 0.0
C724 C 0.03324 0.52974 0.45877 0.0
C725 C 0.04633 0.54137 0.44911 0.0
C726 C 0.06258 0.53706 0.44743 0.0
C727 C 0.07547 0.54906 0.43984 0.0
C728 C 0.07244 0.56564 0.43376 0.0
C729 C 0.0563 0.57011 0.43564 0.0
C730 C 0.04335 0.55806 0.44323 0.0
C731 C 0.029 0.55753 0.51941 0.0
O732 O 0.01677 0.51808 0.5321 0.0
O733 O 0.01051 0.50852 0.49935 0.0
O734 O 0.05719 0.52189 0.56154 0.0
O735 O 0.04056 0.54195 0.56321 0.0
O736 O 0.06231 0.50891 0.52705 0.0
O737 O 0.03817 0.50638 0.5106 0.0
O738 O 0.06378 0.53862 0.49778 0.0
O739 O 0.06945 0.55072 0.53005 0.0
O740 O 0.02522 0.53959 0.47014 0.0
O741 O 0.03789 0.51598 0.46619 0.0
O742 O 0.01776 0.54826 0.50482 0.0
O743 O 0.04263 0.55159 0.51978 0.0
H744 H 0.01382 0.5309 0.57794 0.0
H745 H 0.99392 0.50918 0.59305 0.0
H746 H 0.03313 0.47762 0.60199 0.0
H747 H 0.05345 0.5 0.58733 0.0
H748 H 0.06542 0.52444 0.45199 0.0
H749 H 0.08761 0.54494 0.43812 0.0
H750 H 0.05363 0.58277 0.43101 0.0
H751 H 0.03103 0.56187 0.44463 0.0
Ho752 Ho 0.76847 0.78593 0.2596 0.0
Ho753 Ho 0.80521 0.77894 0.26153 0.0
C754 C 0.79282 0.79402 0.30027 0.0
C755 C 0.73544 0.78051 0.26268 0.0
C756 C 0.72394 0.7868 0.2763 0.0
C757 C 0.72177 0.77878 0.29289 0.0
C758 C 0.70938 0.78282 0.30452 0.0
C759 C 0.69877 0.79498 0.29995 0.0
C760 C 0.70137 0.80356 0.28374 0.0
C761 C 0.71377 0.79946 0.27202 0.0
C762 C 0.79222 0.82095 0.26066 0.0
C763 C 0.78328 0.77694 0.22065 0.0
C764 C 0.83622 0.77434 0.25716 0.0
C765 C 0.84917 0.77464 0.24347 0.0
C766 C 0.8554 0.7907 0.23504 0.0
C767 C 0.86882 0.79088 0.22348 0.0
C768 C 0.87631 0.77505 0.22023 0.0
C769 C 0.86957 0.7588 0.22819 0.0
C770 C 0.85621 0.75863 0.23967 0.0
C771 C 0.77908 0.74856 0.26695 0.0
O772 O 0.77679 0.78867 0.29097 0.0
O773 O 0.80681 0.79418 0.29154 0.0
O774 O 0.74357 0.79296 0.25301 0.0
O775 O 0.74522 0.76965 0.26836 0.0
O776 O 0.7754 0.81829 0.26007 0.0
O777 O 0.79538 0.80463 0.26094 0.0
O778 O 0.79891 0.781 0.23076 0.0
O779 O 0.76877 0.7754 0.22864 0.0
O780 O 0.82195 0.76044 0.25287 0.0
O781 O 0.83337 0.79063 0.26506 0.0
O782 O 0.79449 0.7546 0.27683 0.0
O783 O 0.77818 0.75939 0.25468 0.0
H784 H 0.72923 0.76883 0.29662 0.0
H785 H 0.70761 0.77567 0.31666 0.0
H786 H 0.6936 0.81319 0.27991 0.0
H787 H 0.71506 0.8058 0.25932 0.0
H788 H 0.85019 0.80325 0.23768 0.0
H789 H 0.87375 0.80367 0.21765 0.0
H790 H 0.87478 0.74624 0.22573 0.0
H791 H 0.85159 0.74604 0.24595 0.0
Ho792 Ho 0.79984 0.27281 0.73715 0.0
Ho793 Ho 0.78552 0.28102 0.77462 0.0
C794 C 0.79184 0.31398 0.75107 0.0
C795 C 0.81423 0.27352 0.70633 0.0
C796 C 0.81886 0.28798 0.69435 0.0
C797 C 0.80812 0.30035 0.6913 0.0
C798 C 0.81392 0.31584 0.68223 0.0
C799 C 0.83054 0.31914 0.67609 0.0
C800 C 0.84123 0.30667 0.67912 0.0
C801 C 0.83543 0.29121 0.68823 0.0
C802 C 0.82144 0.27499 0.76929 0.0
C803 C 0.78299 0.23744 0.75403 0.0
C804 C 0.7832 0.28504 0.81048 0.0
C805 C 0.77357 0.27151 0.82148 0.0
C806 C 0.77927 0.2551 0.8243 0.0
C807 C 0.76967 0.24168 0.83362 0.0
C808 C 0.75418 0.24433 0.84043 0.0
C809 C 0.74844 0.26073 0.83776 0.0
C810 C 0.75806 0.27421 0.82827 0.0
C811 C 0.75777 0.27228 0.74669 0.0
O812 O 0.79371 0.30125 0.73667 0.0
O813 O 0.79167 0.31047 0.76854 0.0
O814 O 0.82296 0.27863 0.72342 0.0
O815 O 0.79757 0.26559 0.70631 0.0
O816 O 0.8185 0.26126 0.75473 0.0
O817 O 0.81211 0.28658 0.76666 0.0
O818 O 0.78471 0.24962 0.77026 0.0
O819 O 0.78551 0.24307 0.73766 0.0
O820 O 0.77361 0.29177 0.79867 0.0
O821 O 0.7964 0.2802 0.80307 0.0
O822 O 0.75676 0.27534 0.76479 0.0
O823 O 0.77349 0.27262 0.74426 0.0
H824 H 0.79536 0.2982 0.69614 0.0
H825 H 0.80525 0.32499 0.67971 0.0
H826 H 0.8541 0.30893 0.67453 0.0
H827 H 0.84403 0.28201 0.69089 0.0
H828 H 0.79115 0.25251 0.81929 0.0
H829 H 0.77468 0.22945 0.83599 0.0
H830 H 0.73661 0.26312 0.84306 0.0
H831 H 0.75334 0.28669 0.82619 0.0
Ho832 Ho 0.79871 0.81126 0.77364 0.0
Ho833 Ho 0.78475 0.7667 0.75937 0.0
C834 C 0.75688 0.79163 0.76643 0.0
C835 C 0.80602 0.84823 0.78102 0.0
C836 C 0.79624 0.86201 0.78796 0.0
C837 C 0.77815 0.85821 0.78244 0.0
C838 C 0.76901 0.87156 0.78894 0.0
C839 C 0.7778 0.88888 0.80117 0.0
C840 C 0.79577 0.89218 0.80742 0.0
C841 C 0.80493 0.87881 0.80081 0.0
C842 C 0.79782 0.78886 0.80064 0.0
C843 C 0.82583 0.78712 0.76404 0.0
C844 C 0.77664 0.7302 0.75756 0.0
C845 C 0.78392 0.7153 0.74784 0.0
C846 C 0.80024 0.72039 0.74128 0.0
C847 C 0.80876 0.70625 0.73522 0.0
C848 C 0.80096 0.68693 0.7356 0.0
C849 C 0.78389 0.68178 0.74039 0.0
C850 C 0.77544 0.69596 0.7466 0.0
C851 C 0.79062 0.78486 0.72895 0.0
O852 O 0.76958 0.80765 0.76938 0.0
O853 O 0.75969 0.77428 0.76399 0.0
O854 O 0.80992 0.83787 0.79334 0.0
O855 O 0.80045 0.83817 0.76384 0.0
O856 O 0.81005 0.8042 0.80082 0.0
O857 O 0.78633 0.78645 0.78644 0.0
O858 O 0.81388 0.77166 0.76584 0.0
O859 O 0.8221 0.80375 0.76312 0.0
O860 O 0.76822 0.73876 0.74642 0.0
O861 O 0.78741 0.74216 0.7716 0.0
O862 O 0.78511 0.76643 0.72753 0.0
O863 O 0.7929 0.79201 0.7464 0.0
H864 H 0.77116 0.84518 0.77272 0.0
H865 H 0.75524 0.86872 0.78356 0.0
H866 H 0.80282 0.90534 0.81695 0.0
H867 H 0.81885 0.88172 0.80548 0.0
H868 H 0.80685 0.73536 0.742 0.0
H869 H 0.82197 0.71058 0.73177 0.0
H870 H 0.77762 0.66691 0.74061 0.0
H871 H 0.76275 0.69189 0.75142 0.0
Ho872 Ho 0.51755 0.52055 0.50053 0.0
Ho873 Ho 0.55403 0.54353 0.52308 0.0
C874 C 0.53045 0.56682 0.50209 0.0
C875 C 0.4844 0.50623 0.4907 0.0
C876 C 0.47034 0.5154 0.48618 0.0
C877 C 0.47158 0.53443 0.49479 0.0
C878 C 0.45877 0.5436 0.48954 0.0
C879 C 0.44458 0.53393 0.47549 0.0
C880 C 0.44357 0.51498 0.46664 0.0
C881 C 0.45641 0.50579 0.47195 0.0
C882 C 0.54278 0.52105 0.47579 0.0
C883 C 0.5413 0.49711 0.52097 0.0
C884 C 0.58724 0.55689 0.53225 0.0
C885 C 0.60072 0.54628 0.53154 0.0
C886 C 0.59678 0.52785 0.52032 0.0
C887 C 0.60839 0.5163 0.52151 0.0
C888 C 0.62421 0.52306 0.53385 0.0
C889 C 0.62816 0.54155 0.54509 0.0
C890 C 0.6164 0.55309 0.54398 0.0
C891 C 0.52923 0.54431 0.54792 0.0
O892 O 0.5172 0.55121 0.49852 0.0
O893 O 0.5461 0.56704 0.51047 0.0
O894 O 0.49574 0.50698 0.47859 0.0
O895 O 0.4918 0.51029 0.50846 0.0
O896 O 0.52622 0.513 0.47142 0.0
O897 O 0.54478 0.5282 0.49357 0.0
O898 O 0.55438 0.5128 0.52441 0.0
O899 O 0.52553 0.49682 0.51286 0.0
O900 O 0.57659 0.55232 0.5446 0.0
O901 O 0.57906 0.55767 0.51573 0.0
O902 O 0.54566 0.55313 0.55155 0.0
O903 O 0.52669 0.53622 0.5303 0.0
H904 H 0.48242 0.54221 0.5056 0.0
H905 H 0.45975 0.55807 0.49688 0.0
H906 H 0.43283 0.50727 0.45569 0.0
H907 H 0.45552 0.49124 0.46488 0.0
H908 H 0.58451 0.52221 0.51096 0.0
H909 H 0.60492 0.50199 0.51291 0.0
H910 H 0.64037 0.54713 0.55457 0.0
H911 H 0.61938 0.56713 0.55303 0.0
Ho912 Ho 0.05981 0.53821 0.00747 0.0
Ho913 Ho 0.01944 0.53326 0.00616 0.0
C914 C 0.03266 0.49537 0.99777 0.0
C915 C 0.0918 0.53548 0.01313 0.0
C916 C 0.10222 0.52135 0.00811 0.0
C917 C 0.10029 0.50451 0.01598 0.0
C918 C 0.11161 0.49249 0.01259 0.0
C919 C 0.1251 0.49707 0.00132 0.0
C920 C 0.12642 0.5134 0.99273 0.0
C921 C 0.11517 0.52541 0.99614 0.0
C922 C 0.04234 0.53933 0.97412 0.0
C923 C 0.04654 0.57625 0.0162 0.0
C924 C 0.98755 0.53613 0.99996 0.0
C925 C 0.97688 0.54976 0.00612 0.0
C926 C 0.97733 0.56627 0.99799 0.0
C927 C 0.96574 0.57776 0.00231 0.0
C928 C 0.95336 0.57298 0.0148 0.0
C929 C 0.95349 0.55698 0.0236 0.0
C930 C 0.96503 0.54548 0.01925 0.0
C931 C 0.037 0.53242 0.03964 0.0
O932 O 0.04858 0.50603 0.00505 0.0
O933 O 0.0195 0.50311 0.99375 0.0
O934 O 0.0858 0.54283 0.99913 0.0
O935 O 0.08059 0.5319 0.02527 0.0
O936 O 0.05816 0.54956 0.98004 0.0
O937 O 0.03716 0.5283 0.98536 0.0
O938 O 0.03041 0.56547 0.01022 0.0
O939 O 0.06017 0.56882 0.01873 0.0
O940 O 0.99285 0.52693 0.01279 0.0
O941 O 0.99944 0.54141 0.98893 0.0
O942 O 0.02101 0.52247 0.03398 0.0
O943 O 0.04211 0.54317 0.02815 0.0
H944 H 0.09041 0.50091 0.02522 0.0
H945 H 0.11029 0.48011 0.01954 0.0
H946 H 0.13647 0.51717 0.9837 0.0
H947 H 0.11692 0.53824 0.98982 0.0
H948 H 0.98625 0.57002 0.98779 0.0
H949 H 0.96595 0.58986 0.99513 0.0
H950 H 0.94436 0.55305 0.03355 0.0
H951 H 0.96433 0.53288 0.02578 0.0
C952 C 0.01374 0.21985 0.958 0.0
C953 C 0.01323 0.22034 0.93837 0.0
C954 C 0.01495 0.20314 0.96498 0.0
C955 C 0.0304 0.15917 0.95386 0.0
H956 H 0.0016 0.14064 0.99136 0.0
C957 C 0.04312 0.09915 0.99394 0.0
C958 C 0.02847 0.08441 0.99535 0.0
C959 C 0.04105 0.11577 0.98733 0.0
C960 C 0.0097 0.14558 0.98085 0.0
H961 H 0.01361 0.20353 0.91071 0.0
H962 H 0.01605 0.17445 0.92294 0.0
H963 H 0.99808 0.16924 0.97887 0.0
H964 H 1.00008 0.07596 0.99123 0.0
H965 H 0.99648 0.1051 0.97995 0.0
H966 H 0.04211 0.13563 0.9559 0.0
C967 C 0.0154 0.18701 0.93292 0.0
C968 C 0.00777 0.16206 0.97379 0.0
C969 C 0.01387 0.20363 0.92589 0.0
C970 C 0.01167 0.08695 0.99031 0.0
C971 C 0.0096 0.10372 0.98392 0.0
C972 C 0.0325 0.14287 0.96111 0.0
C973 C 0.01601 0.18656 0.95256 0.0
C974 C 0.01804 0.16902 0.96013 0.0
C975 C 0.02427 0.11826 0.98215 0.0
C976 C 0.02213 0.13579 0.97464 0.0
H977 H 0.01325 0.23245 0.96803 0.0
H978 H 0.01549 0.20335 0.98019 0.0
H979 H 0.03865 0.16424 0.94351 0.0
H980 H 0.05628 0.09775 0.99764 0.0
H981 H 0.05263 0.12675 0.98636 0.0
C982 C 0.12415 0.80213 0.16403 0.0
C983 C 0.12183 0.79841 0.14395 0.0
C984 C 0.13912 0.79949 0.17448 0.0
C985 C 0.17642 0.77553 0.16904 0.0
H986 H 0.19558 0.80758 0.21828 0.0
C987 C 0.24278 0.77383 0.21304 0.0
C988 C 0.2422 0.774 0.23267 0.0
C989 C 0.2285 0.77664 0.20139 0.0
C990 C 0.19038 0.79841 0.20457 0.0
H991 H 0.13385 0.78932 0.11926 0.0
H992 H 0.15985 0.78532 0.13724 0.0
H993 H 0.1702 0.81306 0.20018 0.0
H994 H 0.22595 0.77703 0.25521 0.0
H995 H 0.2016 0.78205 0.23524 0.0
H996 H 0.19691 0.76111 0.17348 0.0
C997 C 0.15 0.78978 0.14509 0.0
C998 C 0.17566 0.80149 0.19417 0.0
C999 C 0.13504 0.79228 0.1347 0.0
C1000 C 0.22698 0.77681 0.24019 0.0
C1001 C 0.21296 0.77986 0.22873 0.0
C1002 C 0.19128 0.7726 0.17938 0.0
C1003 C 0.1523 0.79316 0.16519 0.0
C1004 C 0.16829 0.79002 0.17626 0.0
C1005 C 0.21349 0.78002 0.2092 0.0
C1006 C 0.19838 0.78386 0.1974 0.0
H1007 H 0.11424 0.80672 0.1717 0.0
H1008 H 0.14013 0.80204 0.1899 0.0
H1009 H 0.17112 0.76609 0.15551 0.0
H1010 H 0.25431 0.77182 0.20678 0.0
H1011 H 0.22938 0.77668 0.18639 0.0
C1012 C 0.50407 0.81917 0.45937 0.0
C1013 C 0.51205 0.81315 0.44356 0.0
C1014 C 0.50739 0.83872 0.46725 0.0
C1015 C 0.50718 0.88157 0.46173 0.0
H1016 H 0.5509 0.91296 0.49062 0.0
C1017 C 0.52145 0.96407 0.47644 0.0
C1018 C 0.53113 0.97416 0.49388 0.0
C1019 C 0.51967 0.94434 0.47118 0.0
C1020 C 0.53853 0.9044 0.48275 0.0
H1021 H 0.5302 0.8229 0.42405 0.0
H1022 H 0.53595 0.857 0.43797 0.0
H1023 H 0.54721 0.87833 0.48065 0.0
H1024 H 0.54635 0.97178 0.51968 0.0
H1025 H 0.54247 0.93701 0.51104 0.0
H1026 H 0.49831 0.90729 0.46364 0.0
C1027 C 0.52725 0.84652 0.44422 0.0
C1028 C 0.53652 0.88464 0.47697 0.0
C1029 C 0.52392 0.82702 0.4363 0.0
C1030 C 0.5389 0.96424 0.50609 0.0
C1031 C 0.53676 0.94437 0.50106 0.0
C1032 C 0.50918 0.90129 0.46741 0.0
C1033 C 0.5188 0.85249 0.45954 0.0
C1034 C 0.52084 0.87315 0.46641 0.0
C1035 C 0.52716 0.93416 0.48348 0.0
C1036 C 0.52492 0.91302 0.47791 0.0
H1037 H 0.49498 0.80885 0.46537 0.0
H1038 H 0.50079 0.84314 0.47912 0.0
H1039 H 0.49502 0.87289 0.45344 0.0
H1040 H 0.51558 0.97153 0.46665 0.0
H1041 H 0.51258 0.93715 0.45733 0.0
C1042 C 0.50318 0.29684 0.62935 0.0
C1043 C 0.51898 0.29561 0.63925 0.0
C1044 C 0.48759 0.29337 0.63746 0.0
C1045 C 0.46574 0.27001 0.67433 0.0
H1046 H 0.43598 0.30508 0.67021 0.0
C1047 C 0.40808 0.27032 0.71856 0.0
C1048 C 0.39303 0.27508 0.71077 0.0
C1049 C 0.4228 0.27156 0.70893 0.0
C1050 C 0.44392 0.2949 0.67125 0.0
H1051 H 0.53057 0.28938 0.66542 0.0
H1052 H 0.50324 0.28325 0.67962 0.0
H1053 H 0.46279 0.3096 0.65551 0.0
H1054 H 0.38159 0.28434 0.6863 0.0
H1055 H 0.40715 0.28628 0.66935 0.0
H1056 H 0.44681 0.25519 0.68993 0.0
C1057 C 0.50299 0.28691 0.66551 0.0
C1058 C 0.45939 0.29756 0.66286 0.0
C1059 C 0.51869 0.29055 0.65743 0.0
C1060 C 0.39302 0.28083 0.69288 0.0
C1061 C 0.40774 0.28197 0.68316 0.0
C1062 C 0.45017 0.26725 0.68262 0.0
C1063 C 0.48726 0.28843 0.65567 0.0
C1064 C 0.4706 0.28526 0.6644 0.0
C1065 C 0.42294 0.27753 0.69114 0.0
C1066 C 0.43909 0.27977 0.68137 0.0
H1067 H 0.50282 0.3006 0.61528 0.0
H1068 H 0.47572 0.29442 0.62934 0.0
H1069 H 0.47389 0.26006 0.67553 0.0
H1070 H 0.40872 0.26613 0.73243 0.0
H1071 H 0.43427 0.26835 0.71577 0.0
C1072 C 0.02621 0.81949 0.63442 0.0
C1073 C 0.01309 0.80286 0.6263 0.0
C1074 C 0.03054 0.83448 0.62433 0.0
C1075 C 0.01235 0.8535 0.58428 0.0
H1076 H 0.06026 0.88314 0.58656 0.0
C1077 C 0.03325 0.90401 0.53244 0.0
C1078 C 0.04106 0.92314 0.54112 0.0
C1079 C 0.03112 0.88955 0.54331 0.0
C1080 C 0.04685 0.87498 0.58595 0.0
H1081 H 0.99475 0.78838 0.60102 0.0
H1082 H 0.00265 0.81424 0.58321 0.0
H1083 H 0.05398 0.85683 0.60451 0.0
H1084 H 0.0534 0.94224 0.56764 0.0
H1085 H 0.04987 0.91664 0.58675 0.0
H1086 H 0.00535 0.87129 0.56525 0.0
C1087 C 0.00919 0.81604 0.59759 0.0
C1088 C 0.04322 0.86003 0.59623 0.0
C1089 C 0.00473 0.80119 0.60775 0.0
C1090 C 0.0473 0.92754 0.56071 0.0
C1091 C 0.04537 0.91299 0.57156 0.0
C1092 C 0.01602 0.8682 0.57382 0.0
C1093 C 0.02195 0.83296 0.60587 0.0
C1094 C 0.02594 0.84907 0.59537 0.0
C1095 C 0.03696 0.89401 0.56295 0.0
C1096 C 0.03328 0.87893 0.5745 0.0
H1097 H 0.03289 0.82109 0.6487 0.0
H1098 H 0.04032 0.8474 0.63115 0.0
H1099 H 0.99885 0.84566 0.58371 0.0
H1100 H 0.02817 0.90034 0.5174 0.0
H1101 H 0.02465 0.87492 0.53646 0.0
C1102 C 0.53132 0.80859 0.83818 0.0
C1103 C 0.53484 0.79184 0.84335 0.0
C1104 C 0.51503 0.80803 0.82865 0.0
C1105 C 0.46938 0.78163 0.82251 0.0
H1106 H 0.46499 0.8097 0.78115 0.0
C1107 C 0.40232 0.78484 0.78687 0.0
C1108 C 0.40088 0.80338 0.78492 0.0
C1109 C 0.41869 0.78146 0.79146 0.0
C1110 C 0.46604 0.80184 0.79271 0.0
H1111 H 0.52419 0.76135 0.8424 0.0
H1112 H 0.49557 0.76043 0.82574 0.0
H1113 H 0.49388 0.80729 0.79398 0.0
H1114 H 0.41542 0.83283 0.78598 0.0
H1115 H 0.44398 0.8269 0.79389 0.0
H1116 H 0.44163 0.77666 0.82166 0.0
C1117 C 0.50547 0.77395 0.82913 0.0
C1118 C 0.48253 0.80045 0.80002 0.0
C1119 C 0.52184 0.77446 0.83857 0.0
C1120 C 0.41613 0.81834 0.78712 0.0
C1121 C 0.43249 0.81494 0.79165 0.0
C1122 C 0.45289 0.78304 0.81523 0.0
C1123 C 0.50192 0.79076 0.82418 0.0
C1124 C 0.48436 0.79061 0.81519 0.0
C1125 C 0.43389 0.79654 0.79411 0.0
C1126 C 0.45111 0.79344 0.80048 0.0
H1127 H 0.54109 0.8222 0.84166 0.0
H1128 H 0.51255 0.82126 0.82523 0.0
H1129 H 0.47048 0.77417 0.83439 0.0
H1130 H 0.39079 0.77296 0.78493 0.0
H1131 H 0.41944 0.76708 0.79305 0.0
C1132 C 0.48315 0.18704 0.10399 0.0
C1133 C 0.48832 0.20506 0.09868 0.0
C1134 C 0.48976 0.17186 0.0961 0.0
C1135 C 0.51442 0.15673 0.05715 0.0
H1136 H 0.52183 0.11995 0.08903 0.0
C1137 C 0.54744 0.09575 0.03387 0.0
C1138 C 0.53494 0.07813 0.03123 0.0
C1139 C 0.54422 0.11212 0.0444 0.0
C1140 C 0.51998 0.1303 0.08013 0.0
H1141 H 0.50435 0.22159 0.08113 0.0
H1142 H 0.51652 0.19543 0.06792 0.0
H1143 H 0.51067 0.14717 0.10206 0.0
H1144 H 0.51001 0.06303 0.03802 0.0
H1145 H 0.50464 0.0916 0.05714 0.0
H1146 H 0.52415 0.13991 0.03541 0.0
C1147 C 0.50686 0.19262 0.07756 0.0
C1148 C 0.51335 0.1457 0.08742 0.0
C1149 C 0.49987 0.20764 0.08507 0.0
C1150 C 0.51973 0.07663 0.03998 0.0
C1151 C 0.51673 0.09284 0.05093 0.0
C1152 C 0.52143 0.1416 0.05005 0.0
C1153 C 0.50209 0.17461 0.08319 0.0
C1154 C 0.51011 0.15887 0.07586 0.0
C1155 C 0.52873 0.11075 0.05275 0.0
C1156 C 0.52391 0.12812 0.06137 0.0
H1157 H 0.4743 0.18483 0.11457 0.0
H1158 H 0.48539 0.15807 0.10038 0.0
H1159 H 0.51187 0.16634 0.04771 0.0
H1160 H 0.55924 0.09701 0.0271 0.0
H1161 H 0.55354 0.1259 0.04563 0.0
C1162 C 0.12593 0.30285 0.33219 0.0
C1163 C 0.12811 0.31953 0.34596 0.0
C1164 C 0.13864 0.30127 0.32029 0.0
C1165 C 0.18538 0.31998 0.32065 0.0
H1166 H 0.17637 0.29365 0.26788 0.0
C1167 C 0.24091 0.31629 0.2778 0.0
C1168 C 0.24257 0.29742 0.2729 0.0
C1169 C 0.2252 0.31959 0.28273 0.0
C1170 C 0.17893 0.30105 0.28259 0.0
H1171 H 0.14461 0.34809 0.35733 0.0
H1172 H 0.16671 0.34546 0.3363 0.0
H1173 H 0.15183 0.2994 0.28457 0.0
H1174 H 0.22875 0.26718 0.26763 0.0
H1175 H 0.20112 0.27311 0.27645 0.0
H1176 H 0.21238 0.32165 0.31873 0.0
C1177 C 0.15538 0.33345 0.33503 0.0
C1178 C 0.16501 0.30429 0.29212 0.0
C1179 C 0.14274 0.33497 0.34702 0.0
C1180 C 0.22787 0.28189 0.27158 0.0
C1181 C 0.21206 0.28523 0.27642 0.0
C1182 C 0.19921 0.31697 0.3111 0.0
C1183 C 0.15365 0.3164 0.32192 0.0
C1184 C 0.16817 0.31378 0.31125 0.0
C1185 C 0.21093 0.30408 0.28268 0.0
C1186 C 0.19606 0.30753 0.29206 0.0
H1187 H 0.11467 0.29076 0.33095 0.0
H1188 H 0.13706 0.28791 0.31043 0.0
H1189 H 0.18816 0.32678 0.33556 0.0
H1190 H 0.25195 0.32851 0.27885 0.0
H1191 H 0.22446 0.33424 0.28753 0.0
C1192 C 0.94725 0.0633 0.19088 0.0
C1193 C 0.94722 0.04884 0.20205 0.0
C1194 C 0.95499 0.06296 0.17357 0.0
C1195 C 0.97054 0.02965 0.13561 0.0
H1196 H 0.99605 0.07672 0.12187 0.0
C1197 C 0.002 0.03028 0.06267 0.0
C1198 C 0.01824 0.04359 0.06308 0.0
C1199 C 0.99236 0.03085 0.07864 0.0
C1200 C 0.98906 0.06329 0.12533 0.0
H1201 H 0.95548 0.02249 0.20275 0.0
H1202 H 0.96829 0.02174 0.17314 0.0
H1203 H 0.98173 0.078 0.15071 0.0
H1204 H 0.03659 0.06799 0.08127 0.0
H1205 H 0.02014 0.06911 0.1082 0.0
H1206 H 0.97797 0.01493 0.1103 0.0
C1207 C 0.96241 0.03347 0.17756 0.0
C1208 C 0.98058 0.06407 0.14203 0.0
C1209 C 0.95503 0.03399 0.19488 0.0
C1210 C 0.02415 0.05751 0.07998 0.0
C1211 C 0.01453 0.05823 0.09567 0.0
C1212 C 0.97883 0.02888 0.11878 0.0
C1213 C 0.96272 0.04795 0.16641 0.0
C1214 C 0.97122 0.04726 0.14777 0.0
C1215 C 0.99842 0.04489 0.0956 0.0
C1216 C 0.9885 0.04566 0.11325 0.0
H1217 H 0.9416 0.07511 0.19567 0.0
H1218 H 0.95472 0.07446 0.16567 0.0
H1219 H 0.96344 0.01624 0.13903 0.0
H1220 H 0.99694 0.01911 0.05025 0.0
H1221 H 0.98006 0.02024 0.07761 0.0
C1222 C 0.27469 0.67578 0.47494 0.0
C1223 C 0.26415 0.65797 0.47666 0.0
C1224 C 0.27098 0.68419 0.45933 0.0
C1225 C 0.23499 0.68156 0.42113 0.0
H1226 H 0.27226 0.71506 0.4018 0.0
C1227 C 0.23431 0.71656 0.35216 0.0
C1228 C 0.24207 0.73647 0.35627 0.0
C1229 C 0.23348 0.7058 0.36677 0.0
C1230 C 0.26176 0.70572 0.40714 0.0
H1231 H 0.24221 0.63433 0.46334 0.0
H1232 H 0.23634 0.6484 0.43543 0.0
H1233 H 0.27959 0.69757 0.42645 0.0
H1234 H 0.25321 0.76094 0.37914 0.0
H1235 H 0.25148 0.74216 0.40441 0.0
H1236 H 0.21729 0.68948 0.40107 0.0
C1237 C 0.24691 0.6564 0.44645 0.0
C1238 C 0.26591 0.69581 0.42131 0.0
C1239 C 0.25032 0.64827 0.46232 0.0
C1240 C 0.24705 0.74569 0.37541 0.0
C1241 C 0.24623 0.73496 0.38991 0.0
C1242 C 0.23087 0.69123 0.40662 0.0
C1243 C 0.25698 0.67463 0.44494 0.0
C1244 C 0.25257 0.68393 0.42878 0.0
C1245 C 0.24033 0.71491 0.38553 0.0
C1246 C 0.24424 0.70365 0.3999 0.0
H1247 H 0.28536 0.6835 0.486 0.0
H1248 H 0.27882 0.69841 0.45886 0.0
H1249 H 0.22436 0.67271 0.4267 0.0
H1250 H 0.23011 0.70912 0.33756 0.0
H1251 H 0.22885 0.69028 0.36322 0.0
C1252 C 0.60694 0.04062 0.69989 0.0
C1253 C 0.62289 0.03541 0.69979 0.0
C1254 C 0.59858 0.0438 0.68321 0.0
C1255 C 0.60462 0.05044 0.63386 0.0
H1256 H 0.55491 0.02579 0.62431 0.0
C1257 C 0.56103 0.05114 0.56539 0.0
C1258 C 0.54789 0.03435 0.558 0.0
C1259 C 0.57082 0.05292 0.58298 0.0
C1260 C 0.56881 0.03257 0.6267 0.0
H1261 H 0.64296 0.0299 0.68254 0.0
H1262 H 0.62793 0.03455 0.65315 0.0
H1263 H 0.57112 0.027 0.65501 0.0
H1264 H 0.53505 0.00588 0.56221 0.0
H1265 H 0.55272 0.00856 0.59276 0.0
H1266 H 0.60244 0.05491 0.60504 0.0
C1267 C 0.62209 0.03669 0.66617 0.0
C1268 C 0.57803 0.03361 0.64441 0.0
C1269 C 0.63056 0.03377 0.68291 0.0
C1270 C 0.54497 0.01906 0.56794 0.0
C1271 C 0.555 0.02066 0.58538 0.0
C1272 C 0.59542 0.04914 0.61599 0.0
C1273 C 0.60593 0.04149 0.66615 0.0
C1274 C 0.59604 0.04233 0.64806 0.0
C1275 C 0.56776 0.03776 0.5932 0.0
C1276 C 0.57749 0.03992 0.61221 0.0
H1277 H 0.60097 0.04239 0.71286 0.0
H1278 H 0.58627 0.04784 0.68361 0.0
H1279 H 0.61848 0.05746 0.63644 0.0
H1280 H 0.56344 0.06311 0.55782 0.0
H1281 H 0.58043 0.06632 0.58875 0.0
C1282 C 0.2864 0.36004 0.96649 0.0
C1283 C 0.29592 0.35265 0.9798 0.0
C1284 C 0.28444 0.35245 0.94705 0.0
C1285 C 0.28618 0.31124 0.91152 0.0
H1286 H 0.30362 0.34953 0.88105 0.0
C1287 C 0.30052 0.29136 0.83407 0.0
C1288 C 0.29463 0.30169 0.82095 0.0
C1289 C 0.30003 0.29697 0.85358 0.0
C1290 C 0.2985 0.33868 0.8893 0.0
H1291 H 0.30972 0.33068 0.98339 0.0
H1292 H 0.30585 0.31705 0.94929 0.0
H1293 H 0.30217 0.35958 0.91486 0.0
H1294 H 0.28391 0.32594 0.81749 0.0
H1295 H 0.2835 0.33614 0.85156 0.0
H1296 H 0.28239 0.29034 0.88587 0.0
C1297 C 0.30017 0.3289 0.95396 0.0
C1298 C 0.29767 0.34444 0.90863 0.0
C1299 C 0.30246 0.33674 0.97341 0.0
C1300 C 0.28862 0.31789 0.82749 0.0
C1301 C 0.28841 0.3237 0.84694 0.0
C1302 C 0.28689 0.30547 0.8921 0.0
C1303 C 0.29162 0.33709 0.94059 0.0
C1304 C 0.29157 0.33079 0.91993 0.0
C1305 C 0.29391 0.31318 0.8602 0.0
C1306 C 0.29315 0.31914 0.88081 0.0
H1307 H 0.2812 0.3723 0.97098 0.0
H1308 H 0.27767 0.35891 0.937 0.0
H1309 H 0.28133 0.30048 0.91996 0.0
H1310 H 0.30493 0.27862 0.82919 0.0
H1311 H 0.30444 0.28866 0.86347 0.0
C1312 C 0.94906 0.06659 0.32088 0.0
C1313 C 0.94953 0.05243 0.30513 0.0
C1314 C 0.95737 0.06668 0.33945 0.0
C1315 C 0.97449 0.0336 0.3684 0.0
H1316 H 0.99721 0.07996 0.40471 0.0
C1317 C 0.01315 0.02845 0.44048 0.0
C1318 C 0.01522 0.04272 0.45689 0.0
C1319 C 0.00569 0.03058 0.42246 0.0
C1320 C 0.99077 0.06673 0.39499 0.0
H1321 H 0.96005 0.02772 0.29718 0.0
H1322 H 0.97429 0.02802 0.3287 0.0
H1323 H 0.98334 0.08221 0.37344 0.0
H1324 H 0.01086 0.07077 0.46652 0.0
H1325 H 0.99741 0.07427 0.43551 0.0
H1326 H 0.98134 0.01801 0.38974 0.0
C1327 C 0.96722 0.03888 0.32707 0.0
C1328 C 0.98274 0.06807 0.3768 0.0
C1329 C 0.95903 0.03881 0.3087 0.0
C1330 C 0.0096 0.05937 0.4544 0.0
C1331 C 0.00189 0.06142 0.43635 0.0
C1332 C 0.98231 0.03225 0.38654 0.0
C1333 C 0.96638 0.05256 0.34301 0.0
C1334 C 0.97456 0.05151 0.36299 0.0
C1335 C 0.9996 0.04699 0.41988 0.0
C1336 C 0.99084 0.04874 0.40032 0.0
H1337 H 0.94193 0.07735 0.31898 0.0
H1338 H 0.95628 0.07753 0.35115 0.0
H1339 H 0.96808 0.02037 0.35865 0.0
H1340 H 0.01741 0.01547 0.4415 0.0
H1341 H 0.00489 0.01921 0.41048 0.0
C1342 C 0.26943 0.66967 0.58 0.0
C1343 C 0.27493 0.67946 0.56531 0.0
C1344 C 0.26633 0.67972 0.59701 0.0
C1345 C 0.26021 0.72655 0.62017 0.0
H1346 H 0.28179 0.71333 0.66541 0.0
C1347 C 0.2798 0.77691 0.69378 0.0
C1348 C 0.27817 0.76829 0.70997 0.0
C1349 C 0.27571 0.76553 0.67557 0.0
C1350 C 0.27539 0.71699 0.65296 0.0
H1351 H 0.28078 0.70728 0.55656 0.0
H1352 H 0.27582 0.72493 0.58651 0.0
H1353 H 0.28129 0.69409 0.63444 0.0
H1354 H 0.27011 0.74131 0.72 0.0
H1355 H 0.2626 0.72158 0.68833 0.0
H1356 H 0.25485 0.74992 0.63889 0.0
C1357 C 0.27366 0.70946 0.58477 0.0
C1358 C 0.27509 0.70595 0.6352 0.0
C1359 C 0.27665 0.69938 0.56768 0.0
C1360 C 0.27148 0.74833 0.70773 0.0
C1361 C 0.26731 0.73701 0.68962 0.0
C1362 C 0.26054 0.73768 0.63802 0.0
C1363 C 0.26878 0.69977 0.59973 0.0
C1364 C 0.26766 0.7107 0.61859 0.0
C1365 C 0.26991 0.74542 0.67339 0.0
C1366 C 0.26827 0.73307 0.65455 0.0
H1367 H 0.2677 0.65426 0.57845 0.0
H1368 H 0.26227 0.67183 0.60817 0.0
H1369 H 0.25424 0.73042 0.6076 0.0
H1370 H 0.28494 0.79229 0.69519 0.0
H1371 H 0.27796 0.77236 0.66329 0.0
C1372 C 0.65475 0.03843 0.81454 0.0
C1373 C 0.64584 0.03679 0.7963 0.0
C1374 C 0.64848 0.04646 0.83054 0.0
C1375 C 0.62129 0.07899 0.84594 0.0
H1376 H 0.62178 0.05508 0.89071 0.0
C1377 C 0.58154 0.08343 0.90905 0.0
C1378 C 0.58974 0.08043 0.92618 0.0
C1379 C 0.5911 0.08628 0.89387 0.0
C1380 C 0.62198 0.06221 0.87848 0.0
H1381 H 0.62317 0.04187 0.78036 0.0
H1382 H 0.61202 0.05567 0.80852 0.0
H1383 H 0.6311 0.04036 0.86206 0.0
H1384 H 0.61466 0.08204 0.94242 0.0
H1385 H 0.63139 0.08714 0.9159 0.0
H1386 H 0.61122 0.10037 0.86243 0.0
C1387 C 0.62396 0.05092 0.81036 0.0
C1388 C 0.62719 0.05369 0.86204 0.0
C1389 C 0.6302 0.04275 0.79432 0.0
C1390 C 0.60805 0.08393 0.92917 0.0
C1391 C 0.6176 0.08689 0.91404 0.0
C1392 C 0.61586 0.08748 0.86248 0.0
C1393 C 0.63319 0.05305 0.82858 0.0
C1394 C 0.62702 0.06202 0.84566 0.0
C1395 C 0.60886 0.08618 0.89586 0.0
C1396 C 0.61635 0.0792 0.87891 0.0
H1397 H 0.66689 0.03406 0.81642 0.0
H1398 H 0.65591 0.04805 0.84443 0.0
H1399 H 0.62113 0.08573 0.83346 0.0
H1400 H 0.56743 0.08094 0.90647 0.0
H1401 H 0.58412 0.08584 0.87999 0.0
C1402 C 0.29876 0.34006 0.07728 0.0
C1403 C 0.29493 0.35762 0.07506 0.0
C1404 C 0.29825 0.33386 0.09484 0.0
C1405 C 0.27922 0.33988 0.13988 0.0
H1406 H 0.31577 0.31767 0.15934 0.0
C1407 C 0.27305 0.30037 0.20385 0.0
C1408 C 0.28794 0.30318 0.21728 0.0
C1409 C 0.27428 0.30774 0.18699 0.0
C1410 C 0.30554 0.32399 0.15419 0.0
H1411 H 0.28738 0.38232 0.0896 0.0
H1412 H 0.28635 0.37141 0.1202 0.0
H1413 H 0.31712 0.32894 0.12891 0.0
H1414 H 0.31581 0.31613 0.22368 0.0
H1415 H 0.318 0.32924 0.1941 0.0
H1416 H 0.26764 0.33501 0.16512 0.0
C1417 C 0.28976 0.36245 0.10833 0.0
C1418 C 0.30621 0.33025 0.13664 0.0
C1419 C 0.29045 0.36876 0.09081 0.0
C1420 C 0.30411 0.3138 0.21361 0.0
C1421 C 0.30537 0.32115 0.19661 0.0
C1422 C 0.27849 0.33352 0.15734 0.0
C1423 C 0.29372 0.34495 0.11059 0.0
C1424 C 0.29306 0.33829 0.12927 0.0
C1425 C 0.29046 0.31812 0.18305 0.0
C1426 C 0.29163 0.32547 0.16473 0.0
H1427 H 0.30226 0.33112 0.06545 0.0
H1428 H 0.30119 0.32022 0.09602 0.0
H1429 H 0.26878 0.34581 0.13454 0.0
H1430 H 0.2604 0.29218 0.20623 0.0
H1431 H 0.26258 0.30488 0.17681 0.0
C1432 C 0.22913 0.94441 0.99263 0.0
C1433 C 0.24488 0.94558 0.00392 0.0
C1434 C 0.2157 0.95069 1.00091 0.0
C1435 C 0.20867 0.98209 0.04365 0.0
H1436 H 0.1599 0.95896 0.02376 0.0
C1437 C 0.15664 0.02361 0.04816 0.0
C1438 C 0.13908 0.01402 0.04793 0.0
C1439 C 0.16949 0.01347 0.0479 0.0
C1440 C 0.17342 0.96531 0.02986 0.0
H1441 H 0.25885 0.95352 0.03274 0.0
H1442 H 0.23536 0.96369 0.04716 0.0
H1443 H 0.18225 0.94381 0.01237 0.0
H1444 H 0.12129 0.98671 0.04898 0.0
H1445 H 0.14394 0.96888 0.04878 0.0
H1446 H 0.19986 0.0034 0.06135 0.0
C1447 C 0.23345 0.9586 0.03189 0.0
C1448 C 0.18625 0.95684 0.02303 0.0
C1449 C 0.24691 0.9527 0.0236 0.0
C1450 C 0.13475 0.99435 0.04888 0.0
C1451 C 0.14767 0.98418 0.04874 0.0
C1452 C 0.19584 0.99034 0.05073 0.0
C1453 C 0.21778 0.9579 0.02064 0.0
C1454 C 0.20403 0.96551 0.02939 0.0
C1455 C 0.16506 0.99354 0.04754 0.0
C1456 C 0.17815 0.98248 0.04336 0.0
H1457 H 0.2273 0.93898 0.97742 0.0
H1458 H 0.20389 0.95028 0.99179 0.0
H1459 H 0.22225 0.98926 0.04879 0.0
H1460 H 0.16032 0.03871 0.04717 0.0
H1461 H 0.18269 0.02109 0.04664 0.0
C1462 C 0.71305 0.65204 0.01351 0.0
C1463 C 0.72333 0.64694 0.9995 0.0
C1464 C 0.69622 0.64076 0.01384 0.0
C1465 C 0.66609 0.59225 0.99458 0.0
H1466 H 0.63074 0.61785 0.01107 0.0
C1467 C 0.59238 0.55312 0.98512 0.0
C1468 C 0.58309 0.55637 1.00062 0.0
C1469 C 0.60945 0.5641 0.98524 0.0
C1470 C 0.64048 0.61045 0.0066 0.0
H1471 H 0.72384 0.62578 0.97484 0.0
H1472 H 0.69419 0.60632 0.97498 0.0
H1473 H 0.66027 0.63678 0.01027 0.0
H1474 H 0.58438 0.57399 0.02828 0.0
H1475 H 0.61416 0.59348 0.02836 0.0
H1476 H 0.64603 0.56594 0.9905 0.0
C1477 C 0.6993 0.61889 0.98604 0.0
C1478 C 0.65752 0.62131 0.00618 0.0
C1479 C 0.71631 0.63012 0.98585 0.0
C1480 C 0.59117 0.57116 0.01611 0.0
C1481 C 0.60822 0.58234 0.01613 0.0
C1482 C 0.64899 0.58141 0.9948 0.0
C1483 C 0.68894 0.62409 1.00001 0.0
C1484 C 0.67064 0.6124 1.00021 0.0
C1485 C 0.61765 0.57881 1.00076 0.0
C1486 C 0.63595 0.59036 1.00082 0.0
H1487 H 0.71806 0.66476 0.02443 0.0
H1488 H 0.68899 0.64509 0.02514 0.0
H1489 H 0.67579 0.58473 0.99025 0.0
H1490 H 0.58654 0.54185 0.97295 0.0
H1491 H 0.6162 0.56115 0.97306 0.0
C1492 C 0.67342 0.4342 0.27226 0.0
C1493 C 0.68095 0.45324 0.26982 0.0
C1494 C 0.68275 0.41967 0.27112 0.0
C1495 C 0.72479 0.4067 0.25626 0.0
H1496 H 0.70981 0.36441 0.28281 0.0
C1497 C 0.76535 0.34763 0.26178 0.0
C1498 C 0.75682 0.32851 0.26301 0.0
C1499 C 0.75634 0.3625 0.26206 0.0
C1500 C 0.71422 0.37585 0.27501 0.0
H1501 H 0.7051 0.47106 0.26396 0.0
H1502 H 0.72146 0.44597 0.26216 0.0
H1503 H 0.6949 0.39017 0.28466 0.0
H1504 H 0.73138 0.31079 0.26548 0.0
H1505 H 0.71582 0.33636 0.2661 0.0
H1506 H 0.74436 0.39235 0.24691 0.0
C1507 C 0.708 0.44216 0.26487 0.0
C1508 C 0.70547 0.39097 0.27604 0.0
C1509 C 0.69855 0.45684 0.26602 0.0
C1510 C 0.73869 0.32509 0.26449 0.0
C1511 C 0.72969 0.34004 0.26499 0.0
C1512 C 0.73364 0.39159 0.25533 0.0
C1513 C 0.70039 0.42309 0.26752 0.0
C1514 C 0.71037 0.40688 0.26663 0.0
C1515 C 0.73825 0.35924 0.26381 0.0
C1516 C 0.72859 0.37565 0.26465 0.0
H1517 H 0.65998 0.43028 0.27508 0.0
H1518 H 0.67578 0.40551 0.27284 0.0
H1519 H 0.72921 0.41814 0.24847 0.0
H1520 H 0.77922 0.35126 0.26063 0.0
H1521 H 0.76382 0.37678 0.2613 0.0
C1522 C 0.84902 0.48241 0.51988 0.0
C1523 C 0.84315 0.46878 0.53127 0.0
C1524 C 0.86681 0.49091 0.52102 0.0
C1525 C 0.91062 0.49764 0.54694 0.0
H1526 H 0.92314 0.48547 0.49617 0.0
C1527 C 0.98133 0.49759 0.5346 0.0
C1528 C 0.98706 0.50387 0.51818 0.0
C1529 C 0.96372 0.49472 0.53708 0.0
C1530 C 0.91996 0.48937 0.5104 0.0
H1531 H 0.85095 0.45452 0.55391 0.0
H1532 H 0.88217 0.46927 0.55568 0.0
H1533 H 0.8926 0.48104 0.50047 0.0
H1534 H 0.97929 0.51257 0.49172 0.0
H1535 H 0.94883 0.50843 0.49637 0.0
H1536 H 0.93806 0.50615 0.55687 0.0
C1537 C 0.87299 0.47351 0.54607 0.0
C1538 C 0.90244 0.48682 0.51285 0.0
C1539 C 0.85515 0.46505 0.54501 0.0
C1540 C 0.97504 0.5072 0.50427 0.0
C1541 C 0.95758 0.50484 0.50697 0.0
C1542 C 0.92826 0.50053 0.54447 0.0
C1543 C 0.87896 0.48582 0.53348 0.0
C1544 C 0.89762 0.49073 0.53113 0.0
C1545 C 0.9517 0.49861 0.52342 0.0
C1546 C 0.93309 0.49618 0.52617 0.0
H1547 H 0.83997 0.48568 0.50934 0.0
H1548 H 0.87117 0.50059 0.51135 0.0
H1549 H 0.90713 0.50071 0.56117 0.0
H1550 H 0.99049 0.49508 0.54555 0.0
H1551 H 0.95956 0.48953 0.54973 0.0
C1552 C 0.37054 0.07328 0.27774 0.0
C1553 C 0.38889 0.07901 0.28148 0.0
C1554 C 0.3613 0.08512 0.2702 0.0
C1555 C 0.36744 0.12274 0.24132 0.0
H1556 H 0.3233 0.1294 0.25677 0.0
C1557 C 0.33418 0.18232 0.2269 0.0
C1558 C 0.31581 0.17787 0.22524 0.0
C1559 C 0.34299 0.16808 0.22887 0.0
C1560 C 0.33543 0.12731 0.25202 0.0
H1561 H 0.41189 0.10217 0.28182 0.0
H1562 H 0.39561 0.12308 0.26898 0.0
H1563 H 0.33917 0.11041 0.2732 0.0
H1564 H 0.29221 0.15473 0.22184 0.0
H1565 H 0.30763 0.12986 0.22483 0.0
H1566 H 0.36385 0.14022 0.22048 0.0
C1567 C 0.38848 0.10922 0.27142 0.0
C1568 C 0.34455 0.11658 0.26152 0.0
C1569 C 0.39774 0.09737 0.27899 0.0
C1570 C 0.30638 0.15861 0.22312 0.0
C1571 C 0.31518 0.14438 0.225 0.0
C1572 C 0.35833 0.13359 0.23184 0.0
C1573 C 0.37027 0.10289 0.26638 0.0
C1574 C 0.36069 0.11434 0.25636 0.0
C1575 C 0.33349 0.14927 0.22911 0.0
C1576 C 0.34229 0.13601 0.2372 0.0
H1577 H 0.36338 0.05921 0.27964 0.0
H1578 H 0.34724 0.07991 0.26645 0.0
H1579 H 0.37974 0.12088 0.23685 0.0
H1580 H 0.34173 0.19704 0.22821 0.0
H1581 H 0.35714 0.17217 0.23196 0.0
C1582 C 0.32539 0.13898 0.50655 0.0
C1583 C 0.32789 0.15724 0.50143 0.0
C1584 C 0.33968 0.13107 0.51005 0.0
C1585 C 0.38465 0.13404 0.49881 0.0
H1586 H 0.3891 0.10714 0.54104 0.0
C1587 C 0.44475 0.10397 0.51305 0.0
C1588 C 0.44142 0.08519 0.51698 0.0
C1589 C 0.43178 0.11418 0.51363 0.0
C1590 C 0.388 0.11448 0.5291 0.0
H1591 H 0.34743 0.18149 0.49602 0.0
H1592 H 0.37218 0.16767 0.50193 0.0
H1593 H 0.3644 0.12163 0.53666 0.0
H1594 H 0.42197 0.0628 0.52544 0.0
H1595 H 0.39939 0.0805 0.52639 0.0
H1596 H 0.40792 0.12662 0.49092 0.0
C1597 C 0.3592 0.15941 0.50319 0.0
C1598 C 0.37382 0.12278 0.52658 0.0
C1599 C 0.34499 0.16737 0.49987 0.0
C1600 C 0.42508 0.07727 0.52246 0.0
C1601 C 0.41208 0.08746 0.52301 0.0
C1602 C 0.39874 0.1257 0.50126 0.0
C1603 C 0.35675 0.14116 0.50831 0.0
C1604 C 0.37194 0.13258 0.51134 0.0
C1605 C 0.4151 0.10585 0.5181 0.0
C1606 C 0.40059 0.11571 0.51636 0.0
H1607 H 0.31242 0.13085 0.50799 0.0
H1608 H 0.33732 0.11691 0.51381 0.0
H1609 H 0.38349 0.14124 0.48676 0.0
H1610 H 0.45732 0.1107 0.50919 0.0
H1611 H 0.43475 0.1285 0.51024 0.0
C1612 C 0.67986 0.58287 0.25487 0.0
C1613 C 0.68514 0.57086 0.26683 0.0
C1614 C 0.68998 0.60162 0.25491 0.0
C1615 C 0.72642 0.64213 0.28368 0.0
H1616 H 0.72608 0.66242 0.23669 0.0
C1617 C 0.77194 0.71749 0.27995 0.0
C1618 C 0.7673 0.72873 0.26686 0.0
C1619 C 0.76194 0.69866 0.27992 0.0
C1620 C 0.72624 0.6573 0.25011 0.0
H1621 H 0.70587 0.57003 0.28835 0.0
H1622 H 0.72358 0.60277 0.28851 0.0
H1623 H 0.70978 0.62962 0.23675 0.0
H1624 H 0.74785 0.72838 0.24343 0.0
H1625 H 0.73015 0.69579 0.24352 0.0
H1626 H 0.74269 0.66981 0.29711 0.0
C1627 C 0.71135 0.59757 0.27904 0.0
C1628 C 0.71679 0.63818 0.25014 0.0
C1629 C 0.70119 0.57858 0.27889 0.0
C1630 C 0.75199 0.72035 0.25377 0.0
C1631 C 0.74186 0.70141 0.25376 0.0
C1632 C 0.73581 0.66128 0.28367 0.0
C1633 C 0.70597 0.60954 0.26698 0.0
C1634 C 0.71662 0.63008 0.26693 0.0
C1635 C 0.74663 0.69003 0.26684 0.0
C1636 C 0.73604 0.6694 0.26687 0.0
H1637 H 0.66768 0.57781 0.2453 0.0
H1638 H 0.68494 0.61006 0.24559 0.0
H1639 H 0.72658 0.63692 0.29705 0.0
H1640 H 0.78361 0.72317 0.29025 0.0
H1641 H 0.76658 0.69075 0.29005 0.0
C1642 C 0.88304 0.45948 0.77754 0.0
C1643 C 0.89255 0.46595 0.76329 0.0
C1644 C 0.87297 0.44075 0.77458 0.0
C1645 C 0.84485 0.41015 0.73641 0.0
H1646 H 0.8352 0.37688 0.77355 0.0
C1647 C 0.7958 0.33826 0.73006 0.0
C1648 C 0.79227 0.33343 0.7478 0.0
C1649 C 0.80388 0.35712 0.72908 0.0
C1650 C 0.83759 0.38634 0.76325 0.0
H1651 H 0.90066 0.45805 0.73571 0.0
H1652 H 0.88208 0.42504 0.73005 0.0
H1653 H 0.86336 0.40009 0.77743 0.0
H1654 H 0.78923 0.34474 0.77686 0.0
H1655 H 0.80313 0.37779 0.77502 0.0
H1656 H 0.81887 0.39648 0.72238 0.0
C1657 C 0.88271 0.43444 0.74354 0.0
C1658 C 0.85383 0.39918 0.76523 0.0
C1659 C 0.89319 0.45316 0.74674 0.0
C1660 C 0.79274 0.34805 0.76326 0.0
C1661 C 0.80051 0.36697 0.76216 0.0
C1662 C 0.82853 0.39721 0.73439 0.0
C1663 C 0.87202 0.42849 0.75716 0.0
C1664 C 0.85735 0.41153 0.75215 0.0
C1665 C 0.80814 0.37096 0.74583 0.0
C1666 C 0.82464 0.3857 0.74817 0.0
H1667 H 0.88267 0.46918 0.79053 0.0
H1668 H 0.8647 0.43645 0.78521 0.0
H1669 H 0.84732 0.41983 0.72632 0.0
H1670 H 0.79457 0.3273 0.7176 0.0
H1671 H 0.80919 0.36004 0.71611 0.0
C1672 C 0.05636 0.85485 0.09091 0.0
C1673 C 0.07316 0.85154 0.09065 0.0
C1674 C 0.05168 0.86915 0.08191 0.0
C1675 C 0.06612 0.9015 0.04697 0.0
H1676 H 0.03565 0.93052 0.07007 0.0
C1677 C 0.06012 0.97522 0.02908 0.0
C1678 C 0.04325 0.97835 0.02654 0.0
C1679 C 0.06274 0.95862 0.03537 0.0
C1680 C 0.04404 0.92243 0.06332 0.0
H1681 H 0.09817 0.86076 0.08053 0.0
H1682 H 0.09031 0.88594 0.06548 0.0
H1683 H 0.04216 0.90401 0.08406 0.0
H1684 H 0.01589 0.96631 0.0286 0.0
H1685 H 0.02055 0.93758 0.03996 0.0
H1686 H 0.06843 0.92051 0.02665 0.0
C1687 C 0.0805 0.87725 0.07222 0.0
C1688 C 0.04775 0.90711 0.07131 0.0
C1689 C 0.08511 0.86286 0.08106 0.0
C1690 C 0.02905 0.96437 0.03033 0.0
C1691 C 0.03173 0.94794 0.03696 0.0
C1692 C 0.0626 0.91698 0.03916 0.0
C1693 C 0.06371 0.8807 0.0725 0.0
C1694 C 0.059 0.89648 0.06339 0.0
C1695 C 0.04862 0.94488 0.03962 0.0
C1696 C 0.05163 0.92776 0.04733 0.0
H1697 H 0.04672 0.84632 0.09799 0.0
H1698 H 0.03853 0.87099 0.08223 0.0
H1699 H 0.07445 0.89346 0.04006 0.0
H1700 H 0.07135 0.98562 0.02624 0.0
H1701 H 0.07594 0.9568 0.03739 0.0
C1702 C 0.93916 0.24894 0.87824 0.0
C1703 C 0.95619 0.25872 0.87605 0.0
C1704 C 0.92448 0.25173 0.8676 0.0
C1705 C 0.90854 0.28603 0.84244 0.0
H1706 H 0.8732 0.24126 0.81548 0.0
C1707 C 0.85019 0.29177 0.78923 0.0
C1708 C 0.83486 0.27679 0.78571 0.0
C1709 C 0.86472 0.29078 0.80156 0.0
C1710 C 0.88263 0.25402 0.82322 0.0
H1711 H 0.97106 0.27937 0.86107 0.0
H1712 H 0.94535 0.28453 0.84276 0.0
H1713 H 0.89885 0.23712 0.83403 0.0
H1714 H 0.82226 0.24962 0.79297 0.0
H1715 H 0.84682 0.24851 0.8155 0.0
H1716 H 0.89216 0.303 0.83218 0.0
C1717 C 0.94342 0.27457 0.85263 0.0
C1718 C 0.8975 0.25157 0.83376 0.0
C1719 C 0.95815 0.27148 0.86301 0.0
C1720 C 0.83393 0.26141 0.79554 0.0
C1721 C 0.84821 0.26064 0.80821 0.0
C1722 C 0.89346 0.28851 0.83217 0.0
C1723 C 0.9264 0.26466 0.85475 0.0
C1724 C 0.91066 0.26751 0.84347 0.0
C1725 C 0.86415 0.2749 0.81087 0.0
C1726 C 0.8802 0.27252 0.82235 0.0
H1727 H 0.93714 0.23906 0.88818 0.0
H1728 H 0.91156 0.24396 0.86965 0.0
H1729 H 0.91839 0.29861 0.84991 0.0
H1730 H 0.85135 0.30358 0.78147 0.0
H1731 H 0.87665 0.30202 0.80296 0.0
C1732 C 0.56102 0.24147 0.58946 0.0
C1733 C 0.55811 0.25491 0.57814 0.0
C1734 C 0.55958 0.22242 0.58119 0.0
C1735 C 0.56276 0.19093 0.53784 0.0
H1736 H 0.53341 0.15112 0.55933 0.0
C1737 C 0.5634 0.10993 0.52363 0.0
C1738 C 0.54688 0.09677 0.51947 0.0
C1739 C 0.56477 0.12962 0.52919 0.0
C1740 C 0.5416 0.16207 0.55314 0.0
H1741 H 0.55174 0.25894 0.54918 0.0
H1742 H 0.54958 0.22544 0.53459 0.0
H1743 H 0.5357 0.1849 0.57203 0.0
H1744 H 0.51884 0.09401 0.5176 0.0
H1745 H 0.52132 0.12818 0.52757 0.0
H1746 H 0.56891 0.16797 0.51919 0.0
C1747 C 0.55284 0.22981 0.54992 0.0
C1748 C 0.54296 0.18137 0.56045 0.0
C1749 C 0.55399 0.2489 0.55826 0.0
C1750 C 0.53179 0.10372 0.52068 0.0
C1751 C 0.53317 0.1233 0.52647 0.0
C1752 C 0.56161 0.17156 0.5307 0.0
C1753 C 0.55545 0.21638 0.56137 0.0
C1754 C 0.55358 0.19598 0.55292 0.0
C1755 C 0.54966 0.13641 0.53095 0.0
C1756 C 0.55099 0.15697 0.53829 0.0
H1757 H 0.56417 0.24559 0.60482 0.0
H1758 H 0.56178 0.21238 0.59031 0.0
H1759 H 0.57111 0.20195 0.53189 0.0
H1760 H 0.57527 0.10503 0.52279 0.0
H1761 H 0.57765 0.13945 0.53268 0.0
C1762 C 0.5607 0.7751 0.36721 0.0
C1763 C 0.56155 0.77338 0.38655 0.0
C1764 C 0.57604 0.77967 0.35874 0.0
C1765 C 0.62253 0.77808 0.36449 0.0
H1766 H 0.62736 0.81309 0.32846 0.0
C1767 C 0.68625 0.7981 0.33113 0.0
C1768 C 0.68423 0.79736 0.31125 0.0
C1769 C 0.67197 0.79776 0.34133 0.0
C1770 C 0.62618 0.8032 0.33841 0.0
H1771 H 0.57927 0.77522 0.41216 0.0
H1772 H 0.60589 0.78313 0.39743 0.0
H1773 H 0.60092 0.80689 0.34399 0.0
H1774 H 0.66558 0.79651 0.28675 0.0
H1775 H 0.64079 0.79607 0.30451 0.0
H1776 H 0.64759 0.77411 0.35875 0.0
C1777 C 0.59339 0.78081 0.38873 0.0
C1778 C 0.611 0.79961 0.34729 0.0
C1779 C 0.57809 0.77633 0.3972 0.0
C1780 C 0.66773 0.7973 0.30204 0.0
C1781 C 0.65345 0.79701 0.31226 0.0
C1782 C 0.63767 0.78164 0.35562 0.0
C1783 C 0.59258 0.78252 0.36939 0.0
C1784 C 0.60893 0.78688 0.36033 0.0
C1785 C 0.65528 0.79675 0.33194 0.0
C1786 C 0.63964 0.79411 0.34233 0.0
H1787 H 0.54818 0.773 0.35861 0.0
H1788 H 0.57492 0.78067 0.34375 0.0
H1789 H 0.62129 0.76799 0.37425 0.0
H1790 H 0.69884 0.79858 0.33879 0.0
H1791 H 0.67395 0.798 0.35655 0.0
C1792 C 0.06884 0.25207 0.40252 0.0
C1793 C 0.06592 0.26961 0.41099 0.0
C1794 C 0.06211 0.2353 0.40931 0.0
C1795 C 0.0288 0.21456 0.43827 0.0
H1796 H 0.05698 0.17779 0.44139 0.0
C1797 C 0.02154 0.1581 0.487 0.0
C1798 C 0.02407 0.14001 0.47968 0.0
C1799 C 0.02299 0.1723 0.47578 0.0
C1800 C 0.04884 0.18776 0.44024 0.0
H1801 H 0.05415 0.28356 0.43349 0.0
H1802 H 0.04294 0.25433 0.44586 0.0
H1803 H 0.06816 0.20656 0.42846 0.0
H1804 H 0.02826 0.12191 0.4543 0.0
H1805 H 0.03137 0.14704 0.4349 0.0
H1806 H 0.00989 0.19603 0.45106 0.0
C1807 C 0.04996 0.25343 0.4336 0.0
C1808 C 0.05523 0.20425 0.43288 0.0
C1809 C 0.05653 0.2702 0.42666 0.0
C1810 C 0.02671 0.1359 0.46047 0.0
C1811 C 0.02838 0.15017 0.44934 0.0
C1812 C 0.0225 0.19815 0.44588 0.0
C1813 C 0.05253 0.23578 0.42485 0.0
C1814 C 0.04537 0.21793 0.43199 0.0
C1815 C 0.02714 0.16865 0.45716 0.0
C1816 C 0.03256 0.18474 0.44706 0.0
H1817 H 0.07591 0.25114 0.39029 0.0
H1818 H 0.06413 0.2219 0.4021 0.0
H1819 H 0.02075 0.22466 0.43742 0.0
H1820 H 0.01962 0.16177 0.50177 0.0
H1821 H 0.02212 0.18652 0.48213 0.0
C1822 C 0.5532 0.24094 0.16575 0.0
C1823 C 0.53994 0.24979 0.17092 0.0
C1824 C 0.56959 0.24644 0.17671 0.0
C1825 C 0.59121 0.26676 0.22476 0.0
H1826 H 0.63307 0.26996 0.19995 0.0
C1827 C 0.66789 0.27879 0.25187 0.0
C1828 C 0.67035 0.26004 0.24966 0.0
C1829 C 0.65181 0.28181 0.24524 0.0
C1830 C 0.6215 0.26948 0.20703 0.0
H1831 H 0.53338 0.2714 0.19155 0.0
H1832 H 0.56214 0.28093 0.21079 0.0
H1833 H 0.60509 0.26764 0.18103 0.0
H1834 H 0.65777 0.22979 0.23964 0.0
H1835 H 0.62961 0.23516 0.22837 0.0
H1836 H 0.60767 0.26757 0.2506 0.0
C1837 C 0.55976 0.26972 0.19827 0.0
C1838 C 0.60555 0.268 0.19626 0.0
C1839 C 0.54335 0.26425 0.18727 0.0
C1840 C 0.65619 0.24434 0.24181 0.0
C1841 C 0.64015 0.24738 0.23529 0.0
C1842 C 0.60721 0.26816 0.23553 0.0
C1843 C 0.57301 0.26089 0.19303 0.0
C1844 C 0.59018 0.26593 0.20492 0.0
C1845 C 0.63807 0.26611 0.23655 0.0
C1846 C 0.62225 0.26898 0.22656 0.0
H1847 H 0.55096 0.22974 0.15326 0.0
H1848 H 0.5795 0.23913 0.17259 0.0
H1849 H 0.57951 0.26508 0.23172 0.0
H1850 H 0.67859 0.29112 0.25806 0.0
H1851 H 0.65032 0.29635 0.24618 0.0
C1852 C 0.59109 0.86911 0.92119 0.0
C1853 C 0.58715 0.86772 0.90141 0.0
C1854 C 0.5871 0.88361 0.93379 0.0
C1855 C 0.57439 0.92971 0.93717 0.0
H1856 H 0.55293 0.91309 0.98036 0.0
C1857 C 0.54019 0.97594 0.98584 0.0
C1858 C 0.54728 0.97937 0.00513 0.0
C1859 C 0.54432 0.96182 0.97287 0.0
C1860 C 0.55893 0.91786 0.96836 0.0
H1861 H 0.57694 0.88106 0.87926 0.0
H1862 H 0.56971 0.90622 0.90127 0.0
H1863 H 0.56305 0.89028 0.95818 0.0
H1864 H 0.56322 0.97025 0.02637 0.0
H1865 H 0.57001 0.94502 0.00371 0.0
H1866 H 0.56989 0.95723 0.94729 0.0
C1867 C 0.57601 0.89621 0.90706 0.0
C1868 C 0.56486 0.90492 0.95577 0.0
C1869 C 0.58012 0.88177 0.89444 0.0
C1870 C 0.55774 0.96788 0.01151 0.0
C1871 C 0.56156 0.95349 0.99861 0.0
C1872 C 0.56827 0.94259 0.94966 0.0
C1873 C 0.579 0.89692 0.92684 0.0
C1874 C 0.5728 0.91077 0.94016 0.0
C1875 C 0.5552 0.95068 0.97916 0.0
C1876 C 0.56065 0.93676 0.9654 0.0
H1877 H 0.59668 0.85858 0.92698 0.0
H1878 H 0.58997 0.88411 0.94898 0.0
H1879 H 0.58059 0.93466 0.92537 0.0
H1880 H 0.53192 0.98453 0.98067 0.0
H1881 H 0.53918 0.95972 0.95792 0.0
C1882 C 0.93883 0.732 0.6884 0.0
C1883 C 0.94562 0.74409 0.67593 0.0
C1884 C 0.92658 0.73677 0.69986 0.0
C1885 C 0.89564 0.76755 0.70434 0.0
H1886 H 0.90065 0.76266 0.75769 0.0
C1887 C 0.8549 0.79961 0.75409 0.0
C1888 C 0.84341 0.78516 0.76096 0.0
C1889 C 0.86993 0.7961 0.74726 0.0
C1890 C 0.89926 0.76414 0.74283 0.0
H1891 H 0.94462 0.77028 0.66521 0.0
H1892 H 0.92376 0.77871 0.68536 0.0
H1893 H 0.92062 0.75175 0.73683 0.0
H1894 H 0.83962 0.75672 0.76832 0.0
H1895 H 0.86599 0.75065 0.75629 0.0
H1896 H 0.8745 0.78012 0.71033 0.0
C1897 C 0.92758 0.76544 0.68617 0.0
C1898 C 0.91047 0.75774 0.73088 0.0
C1899 C 0.93964 0.76064 0.67469 0.0
C1900 C 0.84812 0.76798 0.76279 0.0
C1901 C 0.86326 0.76456 0.75609 0.0
C1902 C 0.88467 0.77416 0.71629 0.0
C1903 C 0.92104 0.75367 0.69897 0.0
C1904 C 0.90875 0.75944 0.71154 0.0
C1905 C 0.87372 0.77822 0.74742 0.0
C1906 C 0.88643 0.77255 0.73559 0.0
H1907 H 0.9432 0.71913 0.68959 0.0
H1908 H 0.92152 0.72731 0.70946 0.0
H1909 H 0.89378 0.76868 0.68941 0.0
H1910 H 0.85172 0.8131 0.75273 0.0
H1911 H 0.878 0.80686 0.74073 0.0
C1912 C 0.10708 0.01591 0.82108 0.0
C1913 C 0.12436 0.01385 0.82025 0.0
C1914 C 0.09934 0.01631 0.83816 0.0
C1915 C 0.10885 0.02475 0.89231 0.0
H1916 H 0.05927 1.00139 0.8884 0.0
C1917 C 0.0708 0.02417 0.96132 0.0
C1918 C 0.05247 0.02193 0.95882 0.0
C1919 C 0.08042 0.02316 0.94532 0.0
C1920 C 0.07305 0.00849 0.8901 0.0
H1921 H 0.14684 0.0107 0.83791 0.0
H1922 H 0.13346 0.01164 0.86778 0.0
H1923 H 0.0738 0.99975 0.86014 0.0
H1924 H 0.03044 0.01753 0.93691 0.0
H1925 H 0.04666 0.01675 0.91006 0.0
H1926 H 0.10798 0.03377 0.92233 0.0
C1927 C 0.12582 0.0129 0.85492 0.0
C1928 C 0.08156 0.00738 0.87352 0.0
C1929 C 0.13354 0.01219 0.8376 0.0
C1930 C 0.04443 0.01919 0.93979 0.0
C1931 C 0.05393 0.01846 0.92402 0.0
C1932 C 0.10024 0.02609 0.90898 0.0
C1933 C 0.10845 0.01493 0.85562 0.0
C1934 C 0.09966 0.0156 0.87405 0.0
C1935 C 0.07216 0.02 0.92612 0.0
C1936 C 0.08199 0.01817 0.90835 0.0
H1937 H 0.09934 0.0173 0.80833 0.0
H1938 H 0.08614 0.01814 0.83766 0.0
H1939 H 0.12273 0.03142 0.8937 0.0
H1940 H 0.07766 0.02611 0.97556 0.0
H1941 H 0.09433 0.02442 0.94811 0.0
C1942 C 0.7948 0.39917 0.55297 0.0
C1943 C 0.79765 0.38925 0.53557 0.0
C1944 C 0.80118 0.395 0.57014 0.0
C1945 C 0.83535 0.37495 0.5907 0.0
H1946 H 0.80677 0.36986 0.63166 0.0
C1947 C 0.84223 0.33004 0.64751 0.0
C1948 C 0.83579 0.33439 0.66485 0.0
C1949 C 0.84284 0.34237 0.6344 0.0
C1950 C 0.81515 0.37182 0.62061 0.0
H1951 H 0.80855 0.36659 0.52227 0.0
H1952 H 0.81951 0.35894 0.55253 0.0
H1953 H 0.79513 0.378 0.60236 0.0
H1954 H 0.82746 0.3562 0.68336 0.0
H1955 H 0.8285 0.37783 0.6603 0.0
H1956 H 0.85513 0.36799 0.6088 0.0
C1957 C 0.81261 0.3702 0.55279 0.0
C1958 C 0.80839 0.37628 0.60375 0.0
C1959 C 0.80612 0.37433 0.53553 0.0
C1960 C 0.83203 0.35233 0.66984 0.0
C1961 C 0.83269 0.3647 0.65672 0.0
C1962 C 0.84214 0.37048 0.60763 0.0
C1963 C 0.81054 0.38084 0.57021 0.0
C1964 C 0.81824 0.37737 0.58847 0.0
C1965 C 0.83702 0.35921 0.63844 0.0
C1966 C 0.8319 0.36834 0.62253 0.0
H1967 H 0.78823 0.41073 0.55333 0.0
H1968 H 0.7994 0.4034 0.58335 0.0
H1969 H 0.84334 0.37618 0.57924 0.0
H1970 H 0.84523 0.31632 0.6433 0.0
H1971 H 0.84617 0.33769 0.6204 0.0
C1972 C 0.44975 0.00792 0.32254 0.0
C1973 C 0.44494 0.02415 0.31774 0.0
C1974 C 0.46047 0.00949 0.33952 0.0
C1975 C 0.47548 0.04089 0.38637 0.0
H1976 H 0.51151 0.01277 0.38817 0.0
C1977 C 0.53254 0.05286 0.44737 0.0
C1978 C 0.53109 0.03667 0.45603 0.0
C1979 C 0.52187 0.05167 0.43042 0.0
C1980 C 0.50147 0.02066 0.38771 0.0
H1981 H 0.44774 0.05477 0.32636 0.0
H1982 H 0.46701 0.05769 0.35569 0.0
H1983 H 0.49316 0.01 0.35801 0.0
H1984 H 0.51786 0.00664 0.45424 0.0
H1985 H 0.49967 0.00441 0.42407 0.0
H1986 H 0.48429 0.05191 0.41606 0.0
C1987 C 0.46212 0.04366 0.34669 0.0
C1988 C 0.49093 0.01899 0.37061 0.0
C1989 C 0.45122 0.04203 0.32987 0.0
C1990 C 0.5191 0.01927 0.44766 0.0
C1991 C 0.50879 0.01796 0.43053 0.0
C1992 C 0.48625 0.0428 0.40337 0.0
C1993 C 0.46668 0.02738 0.35175 0.0
C1994 C 0.47783 0.02908 0.36982 0.0
C1995 C 0.51012 0.03417 0.42195 0.0
C1996 C 0.49921 0.03266 0.40404 0.0
H1997 H 0.4449 0.99393 0.31345 0.0
H1998 H 0.46359 0.99666 0.34322 0.0
H1999 H 0.46524 0.04851 0.38623 0.0
H2000 H 0.54163 0.06642 0.45386 0.0
H2001 H 0.5229 0.06426 0.42381 0.0
C2002 C 0.79637 0.73588 0.05029 0.0
C2003 C 0.78839 0.71634 0.04325 0.0
C2004 C 0.79621 0.74384 0.06939 0.0
C2005 C 0.78942 0.72943 0.11638 0.0
H2006 H 0.78165 0.78024 0.13028 0.0
C2007 C 0.7701 0.75627 0.18928 0.0
C2008 C 0.78219 0.7727 0.19976 0.0
C2009 C 0.77076 0.75062 0.16984 0.0
C2010 C 0.78388 0.76606 0.12652 0.0
H2011 H 0.77388 0.68988 0.05078 0.0
H2012 H 0.77334 0.70371 0.08363 0.0
H2013 H 0.78364 0.76788 0.0969 0.0
H2014 H 0.80381 0.79666 0.19825 0.0
H2015 H 0.80441 0.78722 0.16391 0.0
H2016 H 0.7891 0.72742 0.1459 0.0
C2017 C 0.78004 0.71289 0.07465 0.0
C2018 C 0.78515 0.75902 0.10749 0.0
C2019 C 0.78023 0.70498 0.05568 0.0
C2020 C 0.79436 0.78393 0.19037 0.0
C2021 C 0.79469 0.77858 0.17081 0.0
C2022 C 0.78788 0.73633 0.13527 0.0
C2023 C 0.78808 0.73239 0.08182 0.0
C2024 C 0.78776 0.74052 0.10216 0.0
C2025 C 0.7832 0.76161 0.16053 0.0
C2026 C 0.78496 0.75462 0.14047 0.0
H2027 H 0.80276 0.74502 0.04108 0.0
H2028 H 0.80264 0.75888 0.07448 0.0
H2029 H 0.79189 0.71533 0.11292 0.0
H2030 H 0.76074 0.74729 0.1963 0.0
H2031 H 0.76178 0.73746 0.16214 0.0
C2032 C 0.10272 0.99937 0.71243 0.0
C2033 C 0.12089 0.00521 0.71887 0.0
C2034 C 0.09571 1.00192 0.69439 0.0
C2035 C 0.10551 0.02971 0.65447 0.0
H2036 H 0.06514 0.99142 0.62623 0.0
C2037 C 0.06709 0.04318 0.5853 0.0
C2038 C 0.05901 0.02756 0.57044 0.0
C2039 C 0.07483 0.04039 0.60296 0.0
C2040 C 0.07648 1.00231 0.63369 0.0
H2041 H 0.14578 0.01864 0.71063 0.0
H2042 H 0.13364 0.0231 0.67927 0.0
H2043 H 0.07832 0.9867 0.65669 0.0
H2044 H 0.0528 0.99648 0.56325 0.0
H2045 H 0.06613 0.99159 0.59367 0.0
H2046 H 0.1038 0.04523 0.63137 0.0
C2047 C 0.12471 0.01652 0.68831 0.0
C2048 C 0.08401 0.99967 0.65151 0.0
C2049 C 0.13177 0.01382 0.70639 0.0
C2050 C 0.05884 0.00899 0.57412 0.0
C2051 C 0.06648 0.00617 0.59183 0.0
C2052 C 0.0979 0.03242 0.63669 0.0
C2053 C 0.10649 0.01057 0.68186 0.0
C2054 C 0.09868 0.01332 0.66238 0.0
C2055 C 0.07476 0.02181 0.60669 0.0
C2056 C 0.08315 0.01881 0.62585 0.0
H2057 H 0.09371 0.99281 0.72142 0.0
H2058 H 0.08165 0.99737 0.69043 0.0
H2059 H 0.11665 0.04073 0.66218 0.0
H2060 H 0.06757 0.05775 0.58328 0.0
H2061 H 0.08068 0.05294 0.61382 0.0
C2062 C 0.81841 0.38075 0.46041 0.0
C2063 C 0.81366 0.39791 0.45864 0.0
C2064 C 0.81847 0.36746 0.44414 0.0
C2065 C 0.82364 0.36199 0.39459 0.0
H2066 H 0.78862 0.31336 0.38651 0.0
C2067 C 0.79893 0.31691 0.32061 0.0
C2068 C 0.79409 0.2968 0.31834 0.0
C2069 C 0.80404 0.32813 0.3387 0.0
C2070 C 0.79877 0.32664 0.38873 0.0
H2071 H 0.80585 0.41514 0.43891 0.0
H2072 H 0.8067 0.39216 0.41031 0.0
H2073 H 0.79303 0.33554 0.41691 0.0
H2074 H 0.79117 0.27251 0.33295 0.0
H2075 H 0.80047 0.29223 0.36484 0.0
H2076 H 0.82946 0.35332 0.36654 0.0
C2077 C 0.81009 0.38893 0.42425 0.0
C2078 C 0.8012 0.33932 0.40605 0.0
C2079 C 0.80956 0.40196 0.4405 0.0
C2080 C 0.79488 0.28802 0.33441 0.0
C2081 C 0.80009 0.29929 0.3526 0.0
C2082 C 0.82144 0.34922 0.37741 0.0
C2083 C 0.81427 0.3715 0.42601 0.0
C2084 C 0.81335 0.35722 0.40885 0.0
C2085 C 0.80453 0.31947 0.35491 0.0
C2086 C 0.80864 0.33165 0.37409 0.0
H2087 H 0.82141 0.3773 0.47433 0.0
H2088 H 0.82165 0.35401 0.44568 0.0
H2089 H 0.83315 0.37575 0.39664 0.0
H2090 H 0.79825 0.32405 0.30845 0.0
H2091 H 0.80699 0.34361 0.33998 0.0
C2092 C 0.42977 0.02387 0.21914 0.0
C2093 C 0.44098 0.03256 0.23618 0.0
C2094 C 0.43578 0.01363 0.20418 0.0
C2095 C 0.47617 0.00711 0.18572 0.0
H2096 H 0.44562 0.95976 0.15639 0.0
C2097 C 0.50236 0.97291 0.12624 0.0
C2098 C 0.49355 0.97731 0.11021 0.0
C2099 C 0.49382 0.97001 0.14209 0.0
C2100 C 0.45432 0.97277 0.16473 0.0
H2101 H 0.46746 0.03812 0.25057 0.0
H2102 H 0.47794 0.02023 0.22453 0.0
H2103 H 0.43557 0.97726 0.18357 0.0
H2104 H 0.46812 0.97757 0.09633 0.0
H2105 H 0.45334 0.9731 0.12429 0.0
H2106 H 0.49476 1.00296 0.16689 0.0
C2107 C 0.46452 0.02136 0.22267 0.0
C2108 C 0.44854 0.98293 0.18004 0.0
C2109 C 0.45854 0.0317 0.23758 0.0
C2110 C 0.47531 0.97485 0.10881 0.0
C2111 C 0.4668 0.97207 0.12474 0.0
C2112 C 0.482 0.99687 0.17072 0.0
C2113 C 0.4531 0.01188 0.20598 0.0
C2114 C 0.45935 1.00039 0.19046 0.0
C2115 C 0.47652 0.97167 0.14202 0.0
C2116 C 0.47108 0.97976 0.15994 0.0
H2117 H 0.41614 0.02432 0.21762 0.0
H2118 H 0.42679 0.0069 0.19131 0.0
H2119 H 0.48466 0.0207 0.19313 0.0
H2120 H 0.51636 0.97442 0.12769 0.0
H2121 H 0.50145 0.96938 0.15524 0.0
C2122 C 0.78655 0.70121 0.93568 0.0
C2123 C 0.77744 0.70868 0.94978 0.0
C2124 C 0.78919 0.70962 0.91947 0.0
C2125 C 0.78992 0.75475 0.90107 0.0
H2126 H 0.78351 0.72215 0.85134 0.0
C2127 C 0.80803 0.78539 0.83368 0.0
C2128 C 0.79597 0.77858 0.81697 0.0
C2129 C 0.80604 0.77656 0.84965 0.0
C2130 C 0.78527 0.73145 0.86511 0.0
H2131 H 0.76417 0.73107 0.95789 0.0
H2132 H 0.76874 0.74565 0.9297 0.0
H2133 H 0.77967 0.70757 0.87976 0.0
H2134 H 0.77247 0.75695 0.80379 0.0
H2135 H 0.7691 0.74123 0.83168 0.0
H2136 H 0.79537 0.77861 0.88644 0.0
C2137 C 0.77394 0.73335 0.93121 0.0
C2138 C 0.78325 0.7231 0.88143 0.0
C2139 C 0.77123 0.7249 0.94735 0.0
C2140 C 0.78201 0.76247 0.81644 0.0
C2141 C 0.78012 0.75346 0.8324 0.0
C2142 C 0.79207 0.76308 0.88478 0.0
C2143 C 0.78288 0.72578 0.91699 0.0
C2144 C 0.78546 0.73464 0.89963 0.0
C2145 C 0.79201 0.76054 0.84928 0.0
C2146 C 0.78972 0.75155 0.86658 0.0
H2147 H 0.79159 0.68879 0.9371 0.0
H2148 H 0.79633 0.70355 0.90895 0.0
H2149 H 0.7919 0.7641 0.91484 0.0
H2150 H 0.81894 0.79777 0.83454 0.0
H2151 H 0.81556 0.78224 0.86229 0.0
C2152 C 0.8447 0.13255 0.01 0.0
C2153 C 0.82803 0.12211 0.01247 0.0
C2154 C 0.85666 0.12297 0.00267 0.0
C2155 C 0.86652 0.07576 0.99645 0.0
H2156 H 0.89521 0.09547 0.95932 0.0
C2157 C 0.91328 0.03465 0.96709 0.0
C2158 C 0.93068 0.04573 0.96999 0.0
C2159 C 0.89952 0.04357 0.96736 0.0
C2160 C 0.88722 0.08982 0.96963 0.0
H2161 H 0.81081 0.09352 0.00938 0.0
H2162 H 0.83158 0.07689 0.99644 0.0
H2163 H 0.87376 0.11228 0.97108 0.0
H2164 H 0.94723 0.07464 0.97306 0.0
H2165 H 0.92316 0.09028 0.97426 0.0
H2166 H 0.88004 0.05356 0.99536 0.0
C2167 C 0.83551 0.09242 1.00036 0.0
C2168 C 0.87507 0.09946 0.97644 0.0
C2169 C 0.82361 0.10196 0.00776 0.0
C2170 C 0.93396 0.06577 0.97125 0.0
C2171 C 0.92017 0.07471 0.9717 0.0
C2172 C 0.87855 0.06612 0.98961 0.0
C2173 C 0.85211 0.10282 0.99768 0.0
C2174 C 0.86471 0.09256 0.99002 0.0
C2175 C 0.90293 0.0637 0.97073 0.0
C2176 C 0.88907 0.0731 0.97623 0.0
H2177 H 0.84844 0.14811 0.01351 0.0
H2178 H 0.86949 0.13131 1.00102 0.0
H2179 H 0.85895 0.07031 0.00718 0.0
H2180 H 0.91026 0.0192 0.96609 0.0
H2181 H 0.88628 0.03477 0.96622 0.0
C2182 C 0.35439 0.43517 0.0265 0.0
C2183 C 0.35254 0.41852 0.03467 0.0
C2184 C 0.37106 0.44623 0.02476 0.0
C2185 C 0.4178 0.45598 0.04505 0.0
H2186 H 0.42697 0.47846 1.00013 0.0
C2187 C 0.48247 0.51163 0.04298 0.0
C2188 C 0.49023 0.5106 0.02611 0.0
C2189 C 0.46571 0.50022 0.04349 0.0
C2190 C 0.42468 0.47216 0.01272 0.0
H2191 H 0.3669 0.40037 0.04718 0.0
H2192 H 0.39573 0.41947 0.04412 0.0
H2193 H 0.39768 0.45896 0.00184 0.0
H2194 H 0.48652 0.49663 0.99649 0.0
H2195 H 0.45723 0.47649 0.99738 0.0
H2196 H 0.44474 0.46888 0.05586 0.0
C2197 C 0.38437 0.42421 0.03927 0.0
C2198 C 0.40781 0.46116 0.0138 0.0
C2199 C 0.36776 0.41317 0.04095 0.0
C2200 C 0.48089 0.49774 0.00973 0.0
C2201 C 0.46404 0.48632 0.01021 0.0
C2202 C 0.43459 0.467 0.04401 0.0
C2203 C 0.38629 0.44094 0.03124 0.0
C2204 C 0.40415 0.45289 0.02998 0.0
C2205 C 0.45622 0.48741 0.02712 0.0
C2206 C 0.4383 0.4753 0.02786 0.0
H2207 H 0.34296 0.4397 0.02143 0.0
H2208 H 0.37201 0.4591 0.01865 0.0
H2209 H 0.41549 0.45006 0.05784 0.0
H2210 H 0.48928 0.52145 0.05583 0.0
H2211 H 0.46007 0.50171 0.05669 0.0
C2212 C 0.39819 0.63165 0.77201 0.0
C2213 C 0.39151 0.6126 0.76175 0.0
C2214 C 0.38867 0.64597 0.77205 0.0
C2215 C 0.34741 0.6576 0.74816 0.0
H2216 H 0.36035 0.70172 0.78926 0.0
C2217 C 0.30558 0.71615 0.75723 0.0
C2218 C 0.31394 0.73573 0.76462 0.0
C2219 C 0.31472 0.70138 0.75665 0.0
C2220 C 0.35651 0.68971 0.77745 0.0
H2221 H 0.36866 0.59447 0.74327 0.0
H2222 H 0.35192 0.61909 0.74354 0.0
H2223 H 0.37561 0.67634 0.78889 0.0
H2224 H 0.33917 0.75435 0.77735 0.0
H2225 H 0.35489 0.7289 0.77668 0.0
H2226 H 0.32793 0.671 0.73708 0.0
C2227 C 0.36489 0.62317 0.75153 0.0
C2228 C 0.36549 0.67481 0.77715 0.0
C2229 C 0.37457 0.60873 0.75141 0.0
C2230 C 0.33198 0.73967 0.77154 0.0
C2231 C 0.34109 0.72483 0.77122 0.0
C2232 C 0.33828 0.67244 0.74859 0.0
C2233 C 0.37164 0.6423 0.76195 0.0
C2234 C 0.36137 0.65828 0.76241 0.0
C2235 C 0.33275 0.70522 0.76368 0.0
C2236 C 0.34261 0.68901 0.7632 0.0
H2237 H 0.41111 0.63574 0.78017 0.0
H2238 H 0.39506 0.66016 0.77999 0.0
H2239 H 0.34355 0.64568 0.73628 0.0
H2240 H 0.29179 0.71213 0.75167 0.0
H2241 H 0.30742 0.68675 0.75089 0.0
C2242 C 0.22898 0.5978 0.50224 0.0
C2243 C 0.23638 0.5971 0.52071 0.0
C2244 C 0.211 0.5954 0.49805 0.0
C2245 C 0.17326 0.59902 0.52376 0.0
H2246 H 0.14557 0.57317 0.47542 0.0
C2247 C 0.09943 0.57796 0.51962 0.0
C2248 C 0.09187 0.55911 0.5101 0.0
C2249 C 0.11617 0.58735 0.51669 0.0
C2250 C 0.15312 0.58042 0.48904 0.0
H2251 H 0.23061 0.59073 0.54837 0.0
H2252 H 0.19911 0.58523 0.54068 0.0
H2253 H 0.17712 0.57747 0.47905 0.0
H2254 H 0.09514 0.53534 0.48969 0.0
H2255 H 0.12477 0.55085 0.4858 0.0
H2256 H 0.1494 0.60038 0.53445 0.0
C2257 C 0.20731 0.58891 0.52983 0.0
C2258 C 0.17124 0.58306 0.49104 0.0
C2259 C 0.22532 0.59171 0.53415 0.0
C2260 C 0.10089 0.5499 0.49725 0.0
C2261 C 0.11777 0.55899 0.49478 0.0
C2262 C 0.15517 0.59594 0.52193 0.0
C2263 C 0.20009 0.59176 0.51211 0.0
C2264 C 0.18135 0.59151 0.50876 0.0
C2265 C 0.1258 0.57771 0.50475 0.0
C2266 C 0.1448 0.58567 0.50486 0.0
H2267 H 0.23715 0.60163 0.4914 0.0
H2268 H 0.20585 0.59747 0.4842 0.0
H2269 H 0.18082 0.60646 0.53731 0.0
H2270 H 0.09237 0.58542 0.52921 0.0
H2271 H 0.12173 0.60193 0.52422 0.0
C2272 C 0.70083 0.99623 0.74639 0.0
C2273 C 0.68262 0.99008 0.7459 0.0
C2274 C 0.71172 0.98623 0.75445 0.0
C2275 C 0.71292 0.95544 0.78988 0.0
H2276 H 0.7524 0.94417 0.76634 0.0
C2277 C 0.75098 0.90027 0.80705 0.0
C2278 C 0.7688 0.90446 0.80468 0.0
C2279 C 0.74121 0.91355 0.80443 0.0
C2280 C 0.74164 0.9476 0.77328 0.0
H2281 H 0.66138 0.96829 0.75253 0.0
H2282 H 0.68051 0.95068 0.7665 0.0
H2283 H 0.73319 0.9601 0.75014 0.0
H2284 H 0.79083 0.92666 0.80012 0.0
H2285 H 0.77385 0.94991 0.79606 0.0
H2286 H 0.72123 0.94241 0.81282 0.0
C2287 C 0.6863 0.96335 0.76087 0.0
C2288 C 0.73061 0.95657 0.76394 0.0
C2289 C 0.67539 0.97326 0.75267 0.0
C2290 C 0.77714 0.92298 0.80206 0.0
C2291 C 0.7674 0.93625 0.79954 0.0
C2292 C 0.72398 0.94638 0.79923 0.0
C2293 C 0.70454 0.97003 0.76219 0.0
C2294 C 0.71613 0.96047 0.77211 0.0
C2295 C 0.74921 0.93115 0.79951 0.0
C2296 C 0.73839 0.94239 0.79096 0.0
H2297 H 0.7067 0.00916 0.74121 0.0
H2298 H 0.72577 0.99165 0.75533 0.0
H2299 H 0.70194 0.95859 0.79656 0.0
H2300 H 0.74432 0.8862 0.80945 0.0
H2301 H 0.72718 0.90934 0.80454 0.0
C2302 C 0.72993 0.89923 0.52052 0.0
C2303 C 0.74757 0.90917 0.52151 0.0
C2304 C 0.71643 0.90804 0.51628 0.0
C2305 C 0.70816 0.95635 0.51563 0.0
H2306 H 0.66355 0.92679 0.48725 0.0
C2307 C 0.65409 0.99333 0.49573 0.0
C2308 C 0.63728 0.98498 0.49984 0.0
C2309 C 0.66715 0.98328 0.49579 0.0
C2310 C 0.67592 0.93521 0.49525 0.0
H2311 H 0.76481 0.93606 0.51834 0.0
H2312 H 0.74138 0.95125 0.51046 0.0
H2313 H 0.68726 0.91105 0.49243 0.0
H2314 H 0.62081 0.95893 0.50603 0.0
H2315 H 0.64373 0.94147 0.50639 0.0
H2316 H 0.69687 0.98049 0.51841 0.0
C2317 C 0.73789 0.93681 0.51349 0.0
C2318 C 0.68952 0.92619 0.49831 0.0
C2319 C 0.75139 0.92807 0.51795 0.0
C2320 C 0.63367 0.96593 0.50311 0.0
C2321 C 0.64676 0.95584 0.50312 0.0
C2322 C 0.69465 0.96537 0.51244 0.0
C2323 C 0.7202 0.92698 0.5127 0.0
C2324 C 0.70582 0.93661 0.50869 0.0
C2325 C 0.66379 0.9646 0.49995 0.0
C2326 C 0.67832 0.95492 0.50234 0.0
H2327 H 0.7265 0.88465 0.5232 0.0
H2328 H 0.70305 0.90006 0.51614 0.0
H2329 H 0.72032 0.96484 0.52402 0.0
H2330 H 0.65743 0.00799 0.49326 0.0
H2331 H 0.68004 0.99034 0.49298 0.0
C2332 C 0.37258 0.49128 0.75735 0.0
C2333 C 0.38885 0.49384 0.75025 0.0
C2334 C 0.36263 0.47269 0.75887 0.0
C2335 C 0.35898 0.41904 0.74222 0.0
H2336 H 0.32967 0.4126 0.78229 0.0
C2337 C 0.32317 0.34188 0.75583 0.0
C2338 C 0.30606 0.33955 0.76076 0.0
C2339 C 0.33373 0.36041 0.755 0.0
C2340 C 0.33764 0.41398 0.77084 0.0
H2341 H 0.40704 0.47809 0.73917 0.0
H2342 H 0.3902 0.4465 0.74193 0.0
H2343 H 0.34608 0.4447 0.77966 0.0
H2344 H 0.28709 0.35539 0.76904 0.0
H2345 H 0.3052 0.38703 0.76794 0.0
H2346 H 0.35058 0.38826 0.73352 0.0
C2347 C 0.38475 0.45862 0.74612 0.0
C2348 C 0.34713 0.43265 0.76928 0.0
C2349 C 0.39463 0.47706 0.74466 0.0
C2350 C 0.30014 0.35639 0.76522 0.0
C2351 C 0.31068 0.37477 0.76468 0.0
C2352 C 0.34955 0.40036 0.74385 0.0
C2353 C 0.3685 0.45587 0.75327 0.0
C2354 C 0.35802 0.43569 0.7549 0.0
C2355 C 0.32767 0.3773 0.75938 0.0
C2356 C 0.33857 0.39737 0.75813 0.0
H2357 H 0.36756 0.50365 0.7619 0.0
H2358 H 0.3502 0.47156 0.76429 0.0
H2359 H 0.3668 0.42035 0.73066 0.0
H2360 H 0.32825 0.32938 0.75215 0.0
H2361 H 0.34671 0.36149 0.75097 0.0
C2362 C 0.18035 0.60037 0.28272 0.0
C2363 C 0.16846 0.59486 0.26596 0.0
C2364 C 0.19107 0.61893 0.28723 0.0
C2365 C 0.20479 0.66366 0.26722 0.0
H2366 H 0.24957 0.65028 0.27121 0.0
C2367 C 0.26028 0.70467 0.23536 0.0
C2368 C 0.27388 0.71467 0.24979 0.0
C2369 C 0.24836 0.68856 0.23864 0.0
C2370 C 0.23714 0.65415 0.27014 0.0
H2371 H 0.15643 0.60435 0.24208 0.0
H2372 H 0.17585 0.63644 0.24913 0.0
H2373 H 0.22423 0.62935 0.28024 0.0
H2374 H 0.28792 0.71431 0.27715 0.0
H2375 H 0.2672 0.68591 0.28274 0.0
H2376 H 0.21781 0.68805 0.25618 0.0
C2377 C 0.17673 0.62693 0.25923 0.0
C2378 C 0.22269 0.64245 0.27565 0.0
C2379 C 0.16567 0.60851 0.25504 0.0
C2380 C 0.27725 0.7068 0.26602 0.0
C2381 C 0.26545 0.69062 0.26921 0.0
C2382 C 0.21923 0.67524 0.2615 0.0
C2383 C 0.19045 0.6317 0.27448 0.0
C2384 C 0.20623 0.64676 0.27368 0.0
C2385 C 0.25029 0.68242 0.25619 0.0
C2386 C 0.2353 0.67017 0.26238 0.0
H2387 H 0.18234 0.5899 0.29142 0.0
H2388 H 0.20118 0.62251 0.29941 0.0
H2389 H 0.19234 0.66743 0.26576 0.0
H2390 H 0.25761 0.71055 0.2227 0.0
H2391 H 0.23683 0.68201 0.22829 0.0
C2392 C 0.51369 0.70386 0.42646 0.0
C2393 C 0.51245 0.72035 0.43887 0.0
C2394 C 0.51523 0.68726 0.43348 0.0
C2395 C 0.50665 0.66183 0.47382 0.0
H2396 H 0.54197 0.6363 0.45713 0.0
C2397 C 0.51107 0.58683 0.49017 0.0
C2398 C 0.5279 0.58475 0.49591 0.0
C2399 C 0.5089 0.60354 0.48375 0.0
C2400 C 0.53208 0.64329 0.46199 0.0
H2401 H 0.51147 0.7321 0.46839 0.0
H2402 H 0.51381 0.70304 0.48055 0.0
H2403 H 0.53854 0.66492 0.44474 0.0
H2404 H 0.55565 0.59881 0.49941 0.0
H2405 H 0.55183 0.62769 0.48807 0.0
H2406 H 0.50017 0.64015 0.49105 0.0
C2407 C 0.51368 0.70299 0.46539 0.0
C2408 C 0.53001 0.65959 0.45475 0.0
C2409 C 0.51241 0.71968 0.45842 0.0
C2410 C 0.54247 0.59986 0.49516 0.0
C2411 C 0.54031 0.61641 0.48853 0.0
C2412 C 0.50856 0.64536 0.48087 0.0
C2413 C 0.51529 0.68663 0.45305 0.0
C2414 C 0.5173 0.6691 0.4606 0.0
C2415 C 0.52352 0.61845 0.48264 0.0
C2416 C 0.52134 0.63591 0.47509 0.0
H2417 H 0.51384 0.7039 0.41134 0.0
H2418 H 0.51631 0.67486 0.42357 0.0
H2419 H 0.49668 0.66876 0.47856 0.0
H2420 H 0.49955 0.57553 0.49057 0.0
H2421 H 0.49579 0.6046 0.47922 0.0
C2422 C 0.6212 0.27313 0.64869 0.0
C2423 C 0.61674 0.29093 0.65088 0.0
C2424 C 0.63719 0.27138 0.6573 0.0
C2425 C 0.68204 0.29858 0.68111 0.0
H2426 H 0.68011 0.2515 0.70086 0.0
C2427 C 0.74469 0.27912 0.71547 0.0
C2428 C 0.74268 0.27142 0.73224 0.0
C2429 C 0.72998 0.2814 0.70415 0.0
C2430 C 0.68099 0.26479 0.69553 0.0
H2431 H 0.62615 0.32106 0.66365 0.0
H2432 H 0.65413 0.31794 0.67919 0.0
H2433 H 0.65367 0.25676 0.68516 0.0
H2434 H 0.72369 0.25976 0.74997 0.0
H2435 H 0.69841 0.26337 0.73044 0.0
H2436 H 0.70945 0.30675 0.69222 0.0
C2437 C 0.64517 0.30531 0.67052 0.0
C2438 C 0.66574 0.26775 0.68625 0.0
C2439 C 0.62907 0.30711 0.6617 0.0
C2440 C 0.7257 0.26551 0.73703 0.0
C2441 C 0.71112 0.26759 0.72575 0.0
C2442 C 0.6974 0.2956 0.69048 0.0
C2443 C 0.64937 0.2873 0.66867 0.0
C2444 C 0.66594 0.28466 0.67884 0.0
C2445 C 0.71296 0.27582 0.70926 0.0
C2446 C 0.69706 0.27869 0.69797 0.0
H2447 H 0.61228 0.26035 0.64023 0.0
H2448 H 0.63999 0.25737 0.65497 0.0
H2449 H 0.68284 0.31172 0.67551 0.0
H2450 H 0.75764 0.28417 0.71159 0.0
H2451 H 0.73195 0.28768 0.69151 0.0
C2452 C 0.00729 0.31893 0.96108 0.0
C2453 C 0.01087 0.31314 0.94251 0.0
C2454 C 0.01012 0.3385 0.96875 0.0
C2455 C 0.00409 0.38103 0.9636 0.0
H2456 H 0.05011 0.41354 0.98462 0.0
C2457 C 0.01751 0.4637 0.97736 0.0
C2458 C 0.02988 0.47433 0.99283 0.0
C2459 C 0.01525 0.44385 0.97226 0.0
C2460 C 0.03711 0.40468 0.97907 0.0
H2461 H 0.02025 0.3233 0.91745 0.0
H2462 H 0.025 0.35741 0.93087 0.0
H2463 H 0.0463 0.37896 0.97449 0.0
H2464 H 0.0493 0.4726 0.01542 0.0
H2465 H 0.04481 0.43782 0.00715 0.0
H2466 H 0.9947 0.40643 0.96808 0.0
C2467 C 0.02025 0.34678 0.93948 0.0
C2468 C 0.03501 0.38493 0.97318 0.0
C2469 C 0.01755 0.32729 0.93188 0.0
C2470 C 0.03977 0.46473 0.00331 0.0
C2471 C 0.03725 0.44481 0.99847 0.0
C2472 C 0.00615 0.40076 0.96951 0.0
C2473 C 0.01646 0.35248 0.9579 0.0
C2474 C 0.01851 0.37304 0.96533 0.0
C2475 C 0.02505 0.43409 0.98277 0.0
C2476 C 0.02272 0.41291 0.97718 0.0
H2477 H 0.00224 0.30835 0.96963 0.0
H2478 H 0.00719 0.34272 0.98303 0.0
H2479 H 0.99128 0.37203 0.95743 0.0
H2480 H 0.00987 0.4708 0.96889 0.0
H2481 H 0.00603 0.43625 0.95983 0.0
C2482 C 0.01737 0.78991 0.15697 0.0
C2483 C 0.01809 0.79636 0.13945 0.0
C2484 C 0.00162 0.78633 0.1649 0.0
C2485 C 0.95961 0.79995 0.16459 0.0
H2486 H 0.94353 0.7539 0.18559 0.0
C2487 C 0.89258 0.78383 0.19284 0.0
C2488 C 0.89166 0.77578 0.20947 0.0
C2489 C 0.90735 0.78503 0.18324 0.0
C2490 C 0.9479 0.76696 0.18 0.0
H2491 H 0.00274 0.8041 0.11657 0.0
H2492 H 0.97552 0.79821 0.13052 0.0
H2493 H 0.97089 0.75884 0.17165 0.0
H2494 H 0.90565 0.76269 0.22902 0.0
H2495 H 0.93136 0.76506 0.21261 0.0
H2496 H 0.93702 0.80842 0.1733 0.0
C2497 C 0.98709 0.79589 0.13814 0.0
C2498 C 0.96359 0.76976 0.17198 0.0
C2499 C 0.00271 0.7992 0.13011 0.0
C2500 C 0.90578 0.76874 0.21611 0.0
C2501 C 0.92057 0.77006 0.20662 0.0
C2502 C 0.94404 0.79727 0.17277 0.0
C2503 C 0.98632 0.78943 0.15563 0.0
C2504 C 0.96965 0.78631 0.16421 0.0
C2505 C 0.92167 0.77838 0.19013 0.0
C2506 C 0.93795 0.78077 0.18067 0.0
H2507 H 0.02894 0.78745 0.16446 0.0
H2508 H 0.00147 0.78145 0.17846 0.0
H2509 H 0.964 0.81296 0.15891 0.0
H2510 H 0.88184 0.78912 0.18716 0.0
H2511 H 0.9075 0.79117 0.17039 0.0
C2512 C 0.51774 0.2934 0.10071 0.0
C2513 C 0.50831 0.29244 0.1163 0.0
C2514 C 0.5224 0.31053 0.09382 0.0
C2515 C 0.51243 0.35809 0.09536 0.0
H2516 H 0.55623 0.36966 0.07418 0.0
C2517 C 0.53727 0.42786 0.06628 0.0
C2518 C 0.53988 0.42413 0.04701 0.0
C2519 C 0.53537 0.41325 0.07708 0.0
C2520 C 0.54403 0.36662 0.08017 0.0
H2521 H 0.49633 0.30843 0.13706 0.0
H2522 H 0.5051 0.33866 0.12557 0.0
H2523 H 0.54862 0.34116 0.08871 0.0
H2524 H 0.54309 0.40221 0.02423 0.0
H2525 H 0.54041 0.37704 0.04332 0.0
H2526 H 0.50806 0.38379 0.08691 0.0
C2527 C 0.50847 0.32609 0.11824 0.0
C2528 C 0.53955 0.35023 0.08831 0.0
C2529 C 0.50348 0.30881 0.12487 0.0
C2530 C 0.54139 0.40573 0.03909 0.0
C2531 C 0.53979 0.39126 0.04997 0.0
C2532 C 0.51707 0.37467 0.0875 0.0
C2533 C 0.51808 0.32718 0.10269 0.0
C2534 C 0.52349 0.3455 0.09557 0.0
C2535 C 0.5364 0.3948 0.0689 0.0
C2536 C 0.53271 0.3788 0.07948 0.0
H2537 H 0.52145 0.28087 0.09377 0.0
H2538 H 0.52933 0.31065 0.08147 0.0
H2539 H 0.49988 0.35482 0.1006 0.0
H2540 H 0.53641 0.44198 0.07295 0.0
H2541 H 0.5329 0.41628 0.09174 0.0
C2542 C 0.01984 0.27091 0.33768 0.0
C2543 C 0.03323 0.28797 0.34228 0.0
C2544 C 0.00353 0.27094 0.32844 0.0
C2545 C 0.9815 0.29872 0.29985 0.0
H2546 H 0.9402 0.27548 0.32117 0.0
C2547 C 0.91595 0.31873 0.28792 0.0
C2548 C 0.90051 0.30393 0.28514 0.0
C2549 C 0.93213 0.31489 0.29236 0.0
C2550 C 0.95158 0.28173 0.31484 0.0
H2551 H 0.0402 0.31834 0.3406 0.0
H2552 H 0.01181 0.31835 0.32467 0.0
H2553 H 0.96875 0.27194 0.33364 0.0
H2554 H 0.88993 0.27337 0.28396 0.0
H2555 H 0.91827 0.26673 0.29199 0.0
H2556 H 0.96438 0.30896 0.28141 0.0
C2557 C 0.01393 0.30493 0.32796 0.0
C2558 C 0.9679 0.2797 0.32197 0.0
C2559 C 0.03015 0.30493 0.33721 0.0
C2560 C 0.9016 0.28513 0.28638 0.0
C2561 C 0.91778 0.28131 0.29091 0.0
C2562 C 0.9652 0.30077 0.29274 0.0
C2563 C 1.00045 0.28798 0.32359 0.0
C2564 C 0.98302 0.28845 0.31475 0.0
C2565 C 0.93315 0.2962 0.29416 0.0
C2566 C 0.95015 0.29255 0.30039 0.0
H2567 H 0.02184 0.25764 0.34145 0.0
H2568 H 0.99334 0.25766 0.32513 0.0
H2569 H 0.99296 0.30539 0.29387 0.0
H2570 H 0.91549 0.3334 0.2873 0.0
H2571 H 0.94378 0.32669 0.29506 0.0
C2572 C 0.98566 0.6919 0.60465 0.0
C2573 C 0.99512 0.70962 0.60112 0.0
C2574 C 0.98957 0.6749 0.59672 0.0
C2575 C 0.01277 0.65457 0.55943 0.0
H2576 H 0.01321 0.61592 0.59124 0.0
C2577 C 0.04091 0.58848 0.54169 0.0
C2578 C 0.02651 0.5734 0.53303 0.0
C2579 C 0.03819 0.60479 0.55277 0.0
C2580 C 0.01325 0.62676 0.58241 0.0
H2581 H 0.0155 0.72343 0.58589 0.0
H2582 H 0.02254 0.69387 0.57241 0.0
H2583 H 0.00538 0.64568 0.60389 0.0
H2584 H 0.99837 0.56241 0.53012 0.0
H2585 H 0.99367 0.59091 0.55006 0.0
H2586 H 0.02092 0.63566 0.53813 0.0
C2587 C 0.01198 0.69302 0.58108 0.0
C2588 C 0.00858 0.6436 0.58945 0.0
C2589 C 0.00797 0.70998 0.58885 0.0
C2590 C 0.00956 0.57409 0.53657 0.0
C2591 C 0.0069 0.59017 0.54801 0.0
C2592 C 0.01769 0.63792 0.55256 0.0
C2593 C 0.00305 0.67536 0.58523 0.0
C2594 C 0.00813 0.65757 0.57793 0.0
C2595 C 0.02115 0.60576 0.55564 0.0
C2596 C 0.0178 0.62394 0.56396 0.0
H2597 H 0.97561 0.6912 0.61399 0.0
H2598 H 0.98219 0.66144 0.5998 0.0
H2599 H 0.01228 0.6649 0.55012 0.0
H2600 H 0.05408 0.5881 0.53904 0.0
H2601 H 0.04924 0.61691 0.55846 0.0
C2602 C 0.6242 0.80867 0.83092 0.0
C2603 C 0.63035 0.81949 0.84932 0.0
C2604 C 0.63577 0.80652 0.81774 0.0
C2605 C 0.68073 0.82624 0.80797 0.0
H2606 H 0.67514 0.77471 0.77972 0.0
C2607 C 0.73387 0.80974 0.76495 0.0
C2608 C 0.73902 0.79324 0.76835 0.0
C2609 C 0.71784 0.8125 0.76965 0.0
C2610 C 0.67685 0.78919 0.78747 0.0
H2611 H 0.65332 0.8369 0.86828 0.0
H2612 H 0.67368 0.83273 0.8454 0.0
H2613 H 0.65311 0.78132 0.79948 0.0
H2614 H 0.73119 0.7661 0.77815 0.0
H2615 H 0.70369 0.77125 0.78713 0.0
H2616 H 0.7051 0.8338 0.79724 0.0
C2617 C 0.65985 0.82622 0.84103 0.0
C2618 C 0.66414 0.79303 0.79862 0.0
C2619 C 0.64823 0.82849 0.85419 0.0
C2620 C 0.72749 0.77896 0.77535 0.0
C2621 C 0.71164 0.78187 0.78038 0.0
C2622 C 0.69354 0.82235 0.79703 0.0
C2623 C 0.65373 0.81505 0.82275 0.0
C2624 C 0.66618 0.8115 0.80933 0.0
C2625 C 0.70692 0.79897 0.77818 0.0
C2626 C 0.69195 0.80367 0.78702 0.0
H2627 H 0.61043 0.80171 0.82668 0.0
H2628 H 0.63065 0.79809 0.80368 0.0
H2629 H 0.68248 0.84069 0.81581 0.0
H2630 H 0.74243 0.82077 0.75921 0.0
H2631 H 0.71435 0.8256 0.76734 0.0
C2632 C 0.46621 0.56855 0.70206 0.0
C2633 C 0.44907 0.55868 0.70424 0.0
C2634 C 0.47316 0.56607 0.68457 0.0
C2635 C 0.46713 0.53425 0.63531 0.0
H2636 H 0.50051 0.57825 0.62488 0.0
C2637 C 0.49991 0.53338 0.5624 0.0
C2638 C 0.51721 0.54478 0.56356 0.0
C2639 C 0.49032 0.53421 0.57846 0.0
C2640 C 0.49146 0.56554 0.62742 0.0
H2641 H 0.42607 0.53788 0.68858 0.0
H2642 H 0.43811 0.53353 0.65806 0.0
H2643 H 0.48697 0.58099 0.65378 0.0
H2644 H 0.53754 0.56586 0.5833 0.0
H2645 H 0.52153 0.56708 0.61026 0.0
H2646 H 0.47178 0.51886 0.60866 0.0
C2647 C 0.4463 0.54333 0.67017 0.0
C2648 C 0.48352 0.56715 0.64435 0.0
C2649 C 0.43925 0.5459 0.68783 0.0
C2650 C 0.52429 0.55689 0.58133 0.0
C2651 C 0.51488 0.55773 0.59711 0.0
C2652 C 0.47517 0.5326 0.61826 0.0
C2653 C 0.46343 0.55352 0.66802 0.0
C2654 C 0.47129 0.55154 0.64899 0.0
C2655 C 0.49759 0.54656 0.59626 0.0
C2656 C 0.48778 0.54817 0.61397 0.0
H2657 H 0.47451 0.57845 0.71405 0.0
H2658 H 0.48646 0.57399 0.68422 0.0
H2659 H 0.45792 0.52169 0.63797 0.0
H2660 H 0.49383 0.52367 0.54923 0.0
H2661 H 0.47711 0.52526 0.57681 0.0
C2662 C 0.77094 0.17195 0.97385 0.0
C2663 C 0.77677 0.1551 0.9698 0.0
C2664 C 0.76474 0.18008 0.95906 0.0
C2665 C 0.76723 0.18176 0.9086 0.0
H2666 H 0.72509 0.20028 0.91053 0.0
C2667 C 0.7437 0.21109 0.84652 0.0
C2668 C 0.74548 0.2309 0.8521 0.0
C2669 C 0.74171 0.19912 0.85999 0.0
C2670 C 0.73677 0.195 0.90983 0.0
H2671 H 0.78106 0.13374 0.94728 0.0
H2672 H 0.77042 0.14806 0.92141 0.0
H2673 H 0.73516 0.18548 0.93665 0.0
H2674 H 0.74386 0.25326 0.8752 0.0
H2675 H 0.74027 0.23223 0.89879 0.0
H2676 H 0.76907 0.19143 0.88205 0.0
C2677 C 0.77061 0.15496 0.93599 0.0
C2678 C 0.74262 0.18673 0.92476 0.0
C2679 C 0.77668 0.14676 0.95077 0.0
C2680 C 0.7426 0.23803 0.87059 0.0
C2681 C 0.74054 0.22601 0.88409 0.0
C2682 C 0.76133 0.18982 0.89369 0.0
C2683 C 0.76443 0.17158 0.94 0.0
C2684 C 0.75795 0.18012 0.92426 0.0
C2685 C 0.74139 0.20683 0.87913 0.0
C2686 C 0.74608 0.19651 0.89416 0.0
H2687 H 0.7707 0.17858 0.98843 0.0
H2688 H 0.76026 0.19303 0.96252 0.0
H2689 H 0.77929 0.1772 0.90805 0.0
H2690 H 0.74554 0.20522 0.8322 0.0
H2691 H 0.74211 0.18426 0.85585 0.0
C2692 C 0.10434 0.52489 0.19555 0.0
C2693 C 0.12227 0.5337 0.19996 0.0
C2694 C 0.09539 0.52583 0.17823 0.0
C2695 C 0.09526 0.55235 0.13963 0.0
H2696 H 0.0714 0.50285 0.10857 0.0
C2697 C 0.06409 0.54496 0.06252 0.0
C2698 C 0.04742 0.53231 0.05744 0.0
C2699 C 0.07402 0.54523 0.07964 0.0
C2700 C 0.07784 0.51676 0.11718 0.0
H2701 H 0.14481 0.55134 0.19045 0.0
H2702 H 0.12899 0.55305 0.16013 0.0
H2703 H 0.08675 0.50419 0.14006 0.0
H2704 H 0.02792 0.51003 0.06589 0.0
H2705 H 0.04508 0.51086 0.09624 0.0
H2706 H 0.08604 0.565 0.11697 0.0
C2707 C 0.12199 0.54532 0.17001 0.0
C2708 C 0.08659 0.51751 0.1351 0.0
C2709 C 0.131 0.54417 0.18721 0.0
C2710 C 0.04078 0.51987 0.06959 0.0
C2711 C 0.05064 0.52025 0.08681 0.0
C2712 C 0.08632 0.55163 0.12176 0.0
C2713 C 0.10425 0.53582 0.1653 0.0
C2714 C 0.0952 0.53529 0.14644 0.0
C2715 C 0.0673 0.533 0.092 0.0
C2716 C 0.07743 0.53381 0.11048 0.0
H2717 H 0.09733 0.51688 0.20524 0.0
H2718 H 0.08161 0.51857 0.17479 0.0
H2719 H 0.10189 0.56619 0.14828 0.0
H2720 H 0.06943 0.55474 0.05333 0.0
H2721 H 0.08692 0.555 0.0832 0.0
C2722 C 0.79878 0.86629 0.46705 0.0
C2723 C 0.79713 0.85386 0.48039 0.0
C2724 C 0.7984 0.8591 0.44771 0.0
C2725 C 0.78029 0.82215 0.40932 0.0
H2726 H 0.82418 0.83063 0.3881 0.0
C2727 C 0.78267 0.78938 0.33143 0.0
C2728 C 0.79473 0.79955 0.32118 0.0
C2729 C 0.78345 0.79522 0.35107 0.0
C2730 C 0.81174 0.82837 0.39362 0.0
H2731 H 0.79324 0.82417 0.48392 0.0
H2732 H 0.79188 0.81148 0.44974 0.0
H2733 H 0.8239 0.84267 0.42182 0.0
H2734 H 0.81703 0.82376 0.3232 0.0
H2735 H 0.81789 0.83477 0.35735 0.0
H2736 H 0.76782 0.80883 0.38122 0.0
C2737 C 0.79383 0.8268 0.45448 0.0
C2738 C 0.81167 0.83511 0.41299 0.0
C2739 C 0.79464 0.83404 0.47394 0.0
C2740 C 0.80772 0.81557 0.33089 0.0
C2741 C 0.80821 0.82179 0.35051 0.0
C2742 C 0.78028 0.81575 0.38986 0.0
C2743 C 0.79594 0.83934 0.44132 0.0
C2744 C 0.79597 0.83195 0.42095 0.0
C2745 C 0.79599 0.81176 0.36089 0.0
C2746 C 0.79603 0.81866 0.3817 0.0
H2747 H 0.80083 0.88165 0.47163 0.0
H2748 H 0.80005 0.86897 0.43772 0.0
H2749 H 0.76802 0.81977 0.41523 0.0
H2750 H 0.77261 0.77684 0.32423 0.0
H2751 H 0.77414 0.7867 0.35849 0.0
C2752 C 0.46631 0.54757 0.80722 0.0
C2753 C 0.45109 0.55435 0.80445 0.0
C2754 C 0.47413 0.54689 0.82558 0.0
C2755 C 0.47421 0.56333 0.87901 0.0
H2756 H 0.49909 0.52381 0.8829 0.0
C2757 C 0.5129 0.55845 0.95232 0.0
C2758 C 0.51458 0.54033 0.95591 0.0
C2759 C 0.50539 0.5607 0.93427 0.0
C2760 C 0.49209 0.53488 0.88238 0.0
H2761 H 0.43251 0.56606 0.81976 0.0
H2762 H 0.44587 0.56463 0.85172 0.0
H2763 H 0.48548 0.52645 0.85205 0.0
H2764 H 0.5093 0.51036 0.9426 0.0
H2765 H 0.49617 0.5141 0.91176 0.0
H2766 H 0.48041 0.5713 0.90956 0.0
C2767 C 0.45202 0.56002 0.83956 0.0
C2768 C 0.48439 0.53665 0.86431 0.0
C2769 C 0.44422 0.56083 0.82106 0.0
C2770 C 0.50844 0.52461 0.94065 0.0
C2771 C 0.50092 0.52684 0.92267 0.0
C2772 C 0.48189 0.56152 0.89716 0.0
C2773 C 0.46707 0.55276 0.84228 0.0
C2774 C 0.47526 0.55094 0.86207 0.0
C2775 C 0.49918 0.54494 0.91895 0.0
C2776 C 0.49102 0.5472 0.89934 0.0
H2777 H 0.47227 0.54256 0.79504 0.0
H2778 H 0.48588 0.54174 0.82655 0.0
H2779 H 0.46758 0.5747 0.87834 0.0
H2780 H 0.51741 0.57102 0.96349 0.0
H2781 H 0.5047 0.57499 0.93234 0.0
C2782 C 0.7794 0.19913 0.07014 0.0
C2783 C 0.78044 0.17992 0.06827 0.0
C2784 C 0.77596 0.20864 0.08725 0.0
C2785 C 0.78051 0.20721 0.13814 0.0
H2786 H 0.75216 0.24429 0.14057 0.0
C2787 C 0.77211 0.24753 0.20944 0.0
C2788 C 0.77759 0.26759 0.2112 0.0
C2789 C 0.76832 0.23585 0.19153 0.0
C2790 C 0.76006 0.23393 0.14001 0.0
H2791 H 0.77817 0.1554 0.08261 0.0
H2792 H 0.7721 0.17201 0.11248 0.0
H2793 H 0.75346 0.22491 0.10976 0.0
H2794 H 0.78219 0.29134 0.19583 0.0
H2795 H 0.77566 0.27073 0.16421 0.0
H2796 H 0.78731 0.21633 0.16823 0.0
C2797 C 0.77419 0.17978 0.1008 0.0
C2798 C 0.76086 0.22292 0.12247 0.0
C2799 C 0.77767 0.17029 0.08371 0.0
C2800 C 0.77805 0.27589 0.19477 0.0
C2801 C 0.77423 0.26414 0.17675 0.0
C2802 C 0.77961 0.21807 0.15561 0.0
C2803 C 0.77347 0.1991 0.10279 0.0
C2804 C 0.77129 0.20965 0.12138 0.0
C2805 C 0.76997 0.24403 0.1751 0.0
C2806 C 0.76953 0.23164 0.15666 0.0
H2807 H 0.7813 0.20687 0.05842 0.0
H2808 H 0.77569 0.2236 0.08846 0.0
H2809 H 0.78894 0.1974 0.13771 0.0
H2810 H 0.7716 0.24075 0.2219 0.0
H2811 H 0.76488 0.22038 0.19056 0.0
C2812 C 0.13209 0.54177 0.29619 0.0
C2813 C 0.14816 0.53667 0.29731 0.0
C2814 C 0.1264 0.54986 0.31263 0.0
C2815 C 0.13192 0.55399 0.36441 0.0
H2816 H 0.112 0.59792 0.36349 0.0
C2817 C 0.10321 0.57911 0.42833 0.0
C2818 C 0.08515 0.57629 0.42295 0.0
C2819 C 0.11475 0.58226 0.41494 0.0
C2820 C 0.11776 0.58582 0.36398 0.0
H2821 H 0.17051 0.53521 0.31643 0.0
H2822 H 0.16043 0.54909 0.34519 0.0
H2823 H 0.12342 0.58458 0.33518 0.0
H2824 H 0.06541 0.57785 0.40054 0.0
H2825 H 0.08547 0.58323 0.37723 0.0
H2826 H 0.1257 0.55458 0.39275 0.0
C2827 C 0.1523 0.54694 0.33162 0.0
C2828 C 0.12409 0.57808 0.34779 0.0
C2829 C 0.15804 0.53895 0.31519 0.0
C2830 C 0.07924 0.5798 0.40504 0.0
C2831 C 0.09078 0.58293 0.39165 0.0
C2832 C 0.12566 0.56172 0.38054 0.0
C2833 C 0.13662 0.55282 0.33043 0.0
C2834 C 0.13091 0.56187 0.34779 0.0
C2835 C 0.10833 0.58257 0.39606 0.0
C2836 C 0.11821 0.57748 0.38039 0.0
H2837 H 0.12426 0.54032 0.28256 0.0
H2838 H 0.11408 0.55395 0.31141 0.0
H2839 H 0.13688 0.54133 0.3647 0.0
H2840 H 0.10814 0.57701 0.44227 0.0
H2841 H 0.12835 0.58244 0.41878 0.0
C2842 C 0.79282 0.87015 0.59178 0.0
C2843 C 0.79031 0.85748 0.57422 0.0
C2844 C 0.79349 0.86328 0.60905 0.0
C2845 C 0.80286 0.82286 0.63023 0.0
H2846 H 0.77697 0.83945 0.67028 0.0
C2847 C 0.79249 0.78408 0.69432 0.0
C2848 C 0.79267 0.79489 0.71242 0.0
C2849 C 0.79319 0.79269 0.67814 0.0
C2850 C 0.78451 0.83488 0.65939 0.0
H2851 H 0.78678 0.82768 0.56111 0.0
H2852 H 0.78831 0.81578 0.59117 0.0
H2853 H 0.77613 0.85249 0.64077 0.0
H2854 H 0.79369 0.82327 0.72773 0.0
H2855 H 0.79506 0.83853 0.69942 0.0
H2856 H 0.81132 0.80532 0.64873 0.0
C2857 C 0.78964 0.83102 0.59161 0.0
C2858 C 0.78398 0.84233 0.64243 0.0
C2859 C 0.78865 0.83782 0.57436 0.0
C2860 C 0.79373 0.81463 0.71402 0.0
C2861 C 0.79432 0.8233 0.69774 0.0
C2862 C 0.80347 0.81551 0.64719 0.0
C2863 C 0.79202 0.84364 0.6092 0.0
C2864 C 0.79302 0.83627 0.62755 0.0
C2865 C 0.794 0.8124 0.67954 0.0
C2866 C 0.79416 0.82124 0.66195 0.0
H2867 H 0.79407 0.88537 0.59218 0.0
H2868 H 0.79544 0.87342 0.62233 0.0
H2869 H 0.81022 0.81811 0.61923 0.0
H2870 H 0.79159 0.7688 0.69258 0.0
H2871 H 0.79263 0.78371 0.66443 0.0
C2872 C 0.74255 0.45402 0.50192 0.0
C2873 C 0.74857 0.44256 0.51376 0.0
C2874 C 0.72899 0.46235 0.50666 0.0
C2875 C 0.70819 0.48321 0.54127 0.0
H2876 H 0.66309 0.45653 0.512 0.0
C2877 C 0.64609 0.50979 0.55144 0.0
C2878 C 0.6369 0.51117 0.53417 0.0
C2879 C 0.6589 0.49947 0.55134 0.0
C2880 C 0.67559 0.46411 0.52028 0.0
H2881 H 0.74612 0.43162 0.5402 0.0
H2882 H 0.72254 0.4466 0.54861 0.0
H2883 H 0.68874 0.44412 0.50679 0.0
H2884 H 0.63363 0.50271 0.50336 0.0
H2885 H 0.65592 0.48489 0.50317 0.0
H2886 H 0.69533 0.50378 0.55412 0.0
C2887 C 0.72813 0.44878 0.53562 0.0
C2888 C 0.69015 0.45703 0.51728 0.0
C2889 C 0.7414 0.44013 0.5307 0.0
C2890 C 0.64033 0.50165 0.5169 0.0
C2891 C 0.65307 0.49139 0.5168 0.0
C2892 C 0.69363 0.49047 0.54413 0.0
C2893 C 0.72174 0.45963 0.52347 0.0
C2894 C 0.7065 0.46676 0.52751 0.0
C2895 C 0.66263 0.49042 0.53397 0.0
C2896 C 0.6773 0.48119 0.53332 0.0
H2897 H 0.74802 0.45613 0.48885 0.0
H2898 H 0.724 0.47068 0.49715 0.0
H2899 H 0.72082 0.49073 0.5493 0.0
H2900 H 0.64346 0.5168 0.56496 0.0
H2901 H 0.66601 0.49875 0.56477 0.0
C2902 C 0.21292 0.15472 0.5138 0.0
C2903 C 0.2242 0.14823 0.5017 0.0
C2904 C 0.19599 0.14355 0.51389 0.0
C2905 C 0.16073 0.10499 0.48452 0.0
H2906 H 0.14269 0.10006 0.53254 0.0
C2907 C 0.09337 0.05403 0.48696 0.0
C2908 C 0.0833 0.05871 0.5013 0.0
C2909 C 0.11049 0.06489 0.48719 0.0
C2910 C 0.14733 0.10149 0.51895 0.0
H2911 H 0.22636 0.12473 0.48015 0.0
H2912 H 0.19661 0.10522 0.48017 0.0
H2913 H 0.17254 0.11864 0.53253 0.0
H2914 H 0.08324 0.07873 0.527 0.0
H2915 H 0.11286 0.09834 0.52701 0.0
H2916 H 0.13551 0.08841 0.47084 0.0
C2917 C 0.20096 0.11906 0.48959 0.0
C2918 C 0.16455 0.11209 0.51897 0.0
C2919 C 0.21804 0.1302 0.48962 0.0
C2920 C 0.09068 0.07475 0.51577 0.0
C2921 C 0.10777 0.08587 0.51583 0.0
C2922 C 0.14344 0.09461 0.48448 0.0
C2923 C 0.18974 0.12559 0.50177 0.0
C2924 C 0.1715 0.11395 0.50175 0.0
C2925 C 0.11801 0.08105 0.50158 0.0
C2926 C 0.13644 0.09259 0.50169 0.0
H2927 H 0.21716 0.16852 0.52331 0.0
H2928 H 0.18767 0.14915 0.52327 0.0
H2929 H 0.16555 0.10638 0.47099 0.0
H2930 H 0.08817 0.04164 0.4757 0.0
H2931 H 0.11792 0.06029 0.4762 0.0
C2932 C 0.17365 0.93439 0.7725 0.0
C2933 C 0.18108 0.95341 0.76995 0.0
C2934 C 0.18302 0.9199 0.77128 0.0
C2935 C 0.22499 0.90704 0.75603 0.0
H2936 H 0.21029 0.86475 0.78266 0.0
C2937 C 0.26567 0.84802 0.76148 0.0
C2938 C 0.25706 0.82885 0.76241 0.0
C2939 C 0.25669 0.86292 0.76184 0.0
C2940 C 0.21462 0.8762 0.77485 0.0
H2941 H 0.20509 0.97125 0.76378 0.0
H2942 H 0.22152 0.94623 0.76185 0.0
H2943 H 0.19534 0.89047 0.78468 0.0
H2944 H 0.23151 0.81106 0.76444 0.0
H2945 H 0.21604 0.8367 0.76528 0.0
H2946 H 0.24456 0.89274 0.74656 0.0
C2947 C 0.20811 0.9424 0.76472 0.0
C2948 C 0.20584 0.89129 0.77596 0.0
C2949 C 0.19861 0.95704 0.76594 0.0
C2950 C 0.23889 0.82541 0.76369 0.0
C2951 C 0.22993 0.84039 0.76431 0.0
C2952 C 0.23388 0.89197 0.75504 0.0
C2953 C 0.2006 0.92335 0.76748 0.0
C2954 C 0.21063 0.90718 0.76651 0.0
C2955 C 0.23857 0.85963 0.76342 0.0
C2956 C 0.22892 0.87604 0.76437 0.0
H2957 H 0.16026 0.93045 0.77548 0.0
H2958 H 0.17612 0.90574 0.77309 0.0
H2959 H 0.22933 0.91848 0.74821 0.0
H2960 H 0.27957 0.85165 0.76048 0.0
H2961 H 0.26421 0.87725 0.76128 0.0
C2962 C 0.35097 0.97669 0.01398 0.0
C2963 C 0.34275 0.96533 0.02626 0.0
C2964 C 0.36881 0.97934 0.01329 0.0
C2965 C 0.40989 0.97675 0.03871 0.0
H2966 H 0.42386 0.97571 0.98803 0.0
C2967 C 0.4774 0.01611 0.0275 0.0
C2968 C 0.48598 0.00767 0.01357 0.0
C2969 C 0.46008 0.0077 0.0289 0.0
C2970 C 0.42018 0.97566 0.00223 0.0
H2971 H 0.3466 0.94841 0.04803 0.0
H2972 H 0.37803 0.95311 0.04682 0.0
H2973 H 0.39293 0.9667 0.99161 0.0
H2974 H 0.48329 0.98431 0.98976 0.0
H2975 H 0.45279 0.96939 0.99233 0.0
H2976 H 0.43716 0.98575 0.04933 0.0
C2977 C 0.37066 0.96004 0.03784 0.0
C2978 C 0.4025 0.97076 0.0043 0.0
C2979 C 0.35276 0.95753 0.03867 0.0
C2980 C 0.47685 0.99107 1.00059 0.0
C2981 C 0.45949 0.98252 0.00211 0.0
C2982 C 0.42758 0.9815 0.03664 0.0
C2983 C 0.37867 0.97046 0.02469 0.0
C2984 C 0.39723 0.97217 0.02257 0.0
C2985 C 0.4511 0.99061 0.01652 0.0
C2986 C 0.4328 0.98186 0.01843 0.0
H2987 H 0.34345 0.98281 0.0043 0.0
H2988 H 0.37482 0.98797 0.00346 0.0
H2989 H 0.40615 0.97775 0.05295 0.0
H2990 H 0.48413 0.02909 0.03748 0.0
H2991 H 0.45371 0.01461 0.0397 0.0
C2992 C 0.88337 0.58636 0.7878 0.0
C2993 C 0.89141 0.57486 0.77601 0.0
C2994 C 0.87624 0.6 0.78049 0.0
C2995 C 0.85779 0.61036 0.73611 0.0
H2996 H 0.86271 0.66043 0.76722 0.0
C2997 C 0.82324 0.67159 0.72126 0.0
C2998 C 0.81186 0.67306 0.73507 0.0
C2999 C 0.83529 0.66039 0.72286 0.0
C3000 C 0.86157 0.64664 0.75824 0.0
H3001 H 0.8985 0.56788 0.74776 0.0
H3002 H 0.88596 0.59179 0.73485 0.0
H3003 H 0.88013 0.63921 0.77742 0.0
H3004 H 0.8041 0.66416 0.76127 0.0
H3005 H 0.82506 0.64476 0.76398 0.0
H3006 H 0.83854 0.6176 0.71743 0.0
C3007 C 0.88515 0.5904 0.74962 0.0
C3008 C 0.87132 0.63448 0.76414 0.0
C3009 C 0.89232 0.57687 0.75696 0.0
C3010 C 0.81243 0.66293 0.7502 0.0
C3011 C 0.82452 0.65205 0.7519 0.0
C3012 C 0.84804 0.6226 0.73017 0.0
C3013 C 0.87709 0.60209 0.76134 0.0
C3014 C 0.86899 0.61598 0.75351 0.0
C3015 C 0.83618 0.65101 0.73847 0.0
C3016 C 0.84946 0.64046 0.74161 0.0
H3017 H 0.88254 0.58474 0.80251 0.0
H3018 H 0.86978 0.60865 0.78968 0.0
H3019 H 0.85574 0.59609 0.72773 0.0
H3020 H 0.82307 0.67943 0.70957 0.0
H3021 H 0.84426 0.65959 0.71238 0.0
C3022 C 0.82301 0.63708 0.00204 0.0
C3023 C 0.8264 0.65703 0.00272 0.0
C3024 C 0.83676 0.62834 0.00529 0.0
C3025 C 0.88415 0.63892 0.02499 0.0
H3026 H 0.88103 0.58922 0.99413 0.0
C3027 C 0.94295 0.60359 0.01816 0.0
C3028 C 0.93939 0.58355 0.01727 0.0
C3029 C 0.92937 0.61302 0.01852 0.0
C3030 C 0.88204 0.60299 0.00306 0.0
H3031 H 0.84701 0.68345 0.00749 0.0
H3032 H 0.87091 0.66821 0.01267 0.0
H3033 H 0.85703 0.6045 0.99038 0.0
H3034 H 0.91869 0.5579 0.01662 0.0
H3035 H 0.89523 0.57431 0.01753 0.0
H3036 H 0.90948 0.63745 0.0373 0.0
C3037 C 0.85762 0.65929 0.00999 0.0
C3038 C 0.86822 0.61177 1.00094 0.0
C3039 C 0.84388 0.66803 0.00684 0.0
C3040 C 0.92201 0.57334 0.01747 0.0
C3041 C 0.90848 0.58273 0.01775 0.0
C3042 C 0.89808 0.63016 0.02702 0.0
C3043 C 0.85429 0.63929 0.00919 0.0
C3044 C 0.86903 0.62986 0.01186 0.0
C3045 C 0.91191 0.6026 0.01785 0.0
C3046 C 0.89716 0.61205 0.01609 0.0
H3047 H 0.80972 0.62819 0.99908 0.0
H3048 H 0.83361 0.61296 0.00488 0.0
H3049 H 0.8852 0.65272 0.03386 0.0
H3050 H 0.95621 0.61196 0.01828 0.0
H3051 H 0.93247 0.62835 0.01858 0.0
C3052 C 0.18018 0.08287 0.75514 0.0
C3053 C 0.18538 0.07083 0.76712 0.0
C3054 C 0.19034 0.1016 0.75523 0.0
C3055 C 0.22661 0.14203 0.78424 0.0
H3056 H 0.22675 0.16235 0.73726 0.0
C3057 C 0.27231 0.21731 0.78087 0.0
C3058 C 0.26782 0.22856 0.76771 0.0
C3059 C 0.26225 0.19851 0.78077 0.0
C3060 C 0.22677 0.15722 0.75067 0.0
H3061 H 0.20601 0.06992 0.78872 0.0
H3062 H 0.22379 0.10265 0.78897 0.0
H3063 H 0.2104 0.12953 0.73719 0.0
H3064 H 0.24857 0.22828 0.74412 0.0
H3065 H 0.23075 0.19571 0.74411 0.0
H3066 H 0.24277 0.16972 0.7978 0.0
C3067 C 0.2116 0.09747 0.77945 0.0
C3068 C 0.21729 0.1381 0.75063 0.0
C3069 C 0.2014 0.0785 0.77925 0.0
C3070 C 0.25258 0.22024 0.75451 0.0
C3071 C 0.24239 0.20131 0.75444 0.0
C3072 C 0.23601 0.16118 0.7843 0.0
C3073 C 0.20629 0.10947 0.76738 0.0
C3074 C 0.21697 0.13 0.76741 0.0
C3075 C 0.24703 0.18992 0.76756 0.0
C3076 C 0.23641 0.1693 0.76751 0.0
H3077 H 0.16802 0.07784 0.74551 0.0
H3078 H 0.18537 0.11007 0.7459 0.0
H3079 H 0.22663 0.13681 0.7976 0.0
H3080 H 0.28392 0.22295 0.79126 0.0
H3081 H 0.2668 0.19057 0.79094 0.0
C3082 C 0.38975 0.95664 0.2443 0.0
C3083 C 0.39031 0.9703 0.26064 0.0
C3084 C 0.37991 0.93785 0.24296 0.0
C3085 C 0.35451 0.90379 0.26881 0.0
H3086 H 0.31744 0.89661 0.22683 0.0
C3087 C 0.29577 0.8465 0.26731 0.0
C3088 C 0.29472 0.83266 0.25097 0.0
C3089 C 0.30343 0.86568 0.26713 0.0
C3090 C 0.32769 0.89854 0.2386 0.0
H3091 H 0.3834 0.9748 0.28936 0.0
H3092 H 0.36617 0.94207 0.28696 0.0
H3093 H 0.34438 0.92177 0.22905 0.0
H3094 H 0.29665 0.82815 0.2206 0.0
H3095 H 0.31076 0.86137 0.22055 0.0
H3096 H 0.33803 0.88058 0.27837 0.0
C3097 C 0.37309 0.94581 0.27515 0.0
C3098 C 0.34316 0.91259 0.23968 0.0
C3099 C 0.38269 0.96458 0.2764 0.0
C3100 C 0.29808 0.83851 0.23361 0.0
C3101 C 0.30595 0.85763 0.2335 0.0
C3102 C 0.33911 0.88971 0.26769 0.0
C3103 C 0.37088 0.93269 0.25806 0.0
C3104 C 0.35651 0.91544 0.25494 0.0
C3105 C 0.31026 0.87083 0.25074 0.0
C3106 C 0.32548 0.88719 0.25275 0.0
H3107 H 0.39589 0.96074 0.23214 0.0
H3108 H 0.37842 0.92773 0.22974 0.0
H3109 H 0.3647 0.90588 0.28069 0.0
H3110 H 0.29248 0.84238 0.28069 0.0
H3111 H 0.30608 0.87593 0.2804 0.0
C3112 C 0.57136 0.3501 0.56831 0.0
C3113 C 0.56977 0.34859 0.58749 0.0
C3114 C 0.56743 0.36554 0.56076 0.0
C3115 C 0.56411 0.41555 0.57509 0.0
H3116 H 0.5396 0.40796 0.52394 0.0
C3117 C 0.56059 0.47951 0.53714 0.0
C3118 C 0.54438 0.4793 0.5271 0.0
C3119 C 0.56321 0.46321 0.54401 0.0
C3120 C 0.54638 0.41033 0.53829 0.0
H3121 H 0.56258 0.36222 0.61366 0.0
H3122 H 0.55589 0.38922 0.60055 0.0
H3123 H 0.54453 0.38024 0.53712 0.0
H3124 H 0.51837 0.46136 0.51603 0.0
H3125 H 0.523 0.43294 0.52794 0.0
H3126 H 0.56594 0.44559 0.57631 0.0
C3127 C 0.56029 0.37848 0.59137 0.0
C3128 C 0.54935 0.39444 0.54579 0.0
C3129 C 0.56408 0.36294 0.59888 0.0
C3130 C 0.53102 0.46213 0.5237 0.0
C3131 C 0.53369 0.44576 0.53048 0.0
C3132 C 0.56128 0.43143 0.56754 0.0
C3133 C 0.56193 0.38002 0.5722 0.0
C3134 C 0.55831 0.39684 0.56429 0.0
C3135 C 0.54976 0.44617 0.54096 0.0
C3136 C 0.55245 0.42907 0.549 0.0
H3137 H 0.5756 0.33929 0.55904 0.0
H3138 H 0.56901 0.36631 0.54601 0.0
H3139 H 0.57117 0.41801 0.5893 0.0
H3140 H 0.57125 0.49238 0.53998 0.0
H3141 H 0.57585 0.46397 0.55171 0.0
C3142 C 0.45762 0.76965 0.36327 0.0
C3143 C 0.45615 0.75944 0.37848 0.0
C3144 C 0.44266 0.77237 0.35302 0.0
C3145 C 0.3948 0.75133 0.34144 0.0
H3146 H 0.39417 0.79894 0.3236 0.0
C3147 C 0.34222 0.75458 0.28237 0.0
C3148 C 0.33502 0.77059 0.28333 0.0
C3149 C 0.35641 0.75449 0.2954 0.0
C3150 C 0.39406 0.78563 0.32866 0.0
H3151 H 0.43767 0.74417 0.3948 0.0
H3152 H 0.41174 0.74877 0.37696 0.0
H3153 H 0.42026 0.79648 0.34339 0.0
H3154 H 0.33708 0.79915 0.299 0.0
H3155 H 0.36214 0.79902 0.32216 0.0
H3156 H 0.36874 0.74041 0.32683 0.0
C3157 C 0.42442 0.75462 0.37284 0.0
C3158 C 0.4091 0.78413 0.33981 0.0
C3159 C 0.43935 0.75203 0.38314 0.0
C3160 C 0.34231 0.78657 0.29793 0.0
C3161 C 0.35672 0.78653 0.31108 0.0
C3162 C 0.37987 0.7528 0.3303 0.0
C3163 C 0.42582 0.7648 0.35759 0.0
C3164 C 0.40972 0.76687 0.34621 0.0
C3165 C 0.36394 0.77042 0.30994 0.0
C3166 C 0.37934 0.76985 0.32348 0.0
H3167 H 0.47035 0.77567 0.35935 0.0
H3168 H 0.44427 0.78011 0.34127 0.0
H3169 H 0.39477 0.73776 0.34592 0.0
H3170 H 0.33701 0.74203 0.27128 0.0
H3171 H 0.36173 0.74198 0.29378 0.0
C3172 C 0.05142 0.7418 0.08433 0.0
C3173 C 0.0627 0.75638 0.0774 0.0
C3174 C 0.04902 0.72255 0.07612 0.0
C3175 C 0.05714 0.68978 0.03428 0.0
H3176 H 0.05383 0.65453 0.07013 0.0
C3177 C 0.06381 0.61031 0.01899 0.0
C3178 C 0.04881 0.59707 0.02208 0.0
C3179 C 0.06563 0.63008 0.02458 0.0
C3180 C 0.05474 0.66425 0.06 0.0
H3181 H 0.0797 0.76226 0.05584 0.0
H3182 H 0.07596 0.72853 0.04181 0.0
H3183 H 0.05635 0.68847 0.08169 0.0
H3184 H 0.02417 0.59385 0.03369 0.0
H3185 H 0.02774 0.62831 0.04417 0.0
H3186 H 0.05608 0.66527 0.01272 0.0
C3187 C 0.06874 0.73198 0.05343 0.0
C3188 C 0.056 0.68367 0.06654 0.0
C3189 C 0.07095 0.75133 0.06151 0.0
C3190 C 0.0358 0.6038 0.03102 0.0
C3191 C 0.03784 0.62345 0.03705 0.0
C3192 C 0.05618 0.67034 0.02779 0.0
C3193 C 0.05807 0.71732 0.06095 0.0
C3194 C 0.05699 0.69667 0.05376 0.0
C3195 C 0.05271 0.63673 0.03381 0.0
C3196 C 0.05479 0.65744 0.0406 0.0
H3197 H 0.04464 0.74525 0.09636 0.0
H3198 H 0.04026 0.71173 0.08191 0.0
H3199 H 0.0577 0.6993 0.024 0.0
H3200 H 0.07397 0.6054 0.01206 0.0
H3201 H 0.07723 0.64015 0.02204 0.0
C3202 C 0.07818 0.27577 0.89669 0.0
C3203 C 0.06167 0.27337 0.88619 0.0
C3204 C 0.09347 0.27993 0.88814 0.0
C3205 C 0.11149 0.29886 0.8469 0.0
H3206 H 0.147 0.27169 0.85747 0.0
C3207 C 0.16821 0.29623 0.80152 0.0
C3208 C 0.18449 0.29536 0.81056 0.0
C3209 C 0.15391 0.296 0.81172 0.0
C3210 C 0.1374 0.27968 0.85458 0.0
H3211 H 0.04836 0.2737 0.85843 0.0
H3212 H 0.07509 0.28089 0.84345 0.0
H3213 H 0.12073 0.26616 0.87306 0.0
H3214 H 0.1987 0.29496 0.83784 0.0
H3215 H 0.17382 0.29456 0.85558 0.0
H3216 H 0.12816 0.31228 0.82829 0.0
C3217 C 0.07619 0.27966 0.85837 0.0
C3218 C 0.12227 0.27646 0.86351 0.0
C3219 C 0.06085 0.27537 0.86691 0.0
C3220 C 0.18628 0.2952 0.83029 0.0
C3221 C 0.17198 0.29496 0.84047 0.0
C3222 C 0.12668 0.30213 0.83799 0.0
C3223 C 0.0927 0.2819 0.86886 0.0
C3224 C 0.10904 0.28587 0.85969 0.0
C3225 C 0.15549 0.29489 0.83124 0.0
C3226 C 0.13978 0.29246 0.84159 0.0
H3227 H 0.07935 0.27443 0.91159 0.0
H3228 H 0.10595 0.28179 0.89672 0.0
H3229 H 0.10171 0.30659 0.84386 0.0
H3230 H 0.16624 0.29616 0.78634 0.0
H3231 H 0.14141 0.2958 0.80406 0.0
C3232 C 0.56659 0.75428 0.90189 0.0
C3233 C 0.56843 0.77236 0.9133 0.0
C3234 C 0.55921 0.73752 0.90841 0.0
C3235 C 0.53202 0.71994 0.94446 0.0
H3236 H 0.55245 0.67632 0.93525 0.0
C3237 C 0.52683 0.6615 0.99031 0.0
C3238 C 0.52532 0.64245 0.9814 0.0
C3239 C 0.52824 0.6761 0.9796 0.0
C3240 C 0.54637 0.68824 0.93759 0.0
H3241 H 0.56448 0.78714 0.94062 0.0
H3242 H 0.5522 0.75781 0.95237 0.0
H3243 H 0.5637 0.7047 0.9217 0.0
H3244 H 0.52266 0.62355 0.95409 0.0
H3245 H 0.52561 0.64929 0.93541 0.0
H3246 H 0.51526 0.70367 0.96113 0.0
C3247 C 0.55593 0.75659 0.93813 0.0
C3248 C 0.55283 0.70452 0.92987 0.0
C3249 C 0.56313 0.77338 0.93151 0.0
C3250 C 0.5242 0.63815 0.96141 0.0
C3251 C 0.52579 0.65282 0.95071 0.0
C3252 C 0.52567 0.70371 0.95231 0.0
C3253 C 0.55372 0.73849 0.92656 0.0
C3254 C 0.54596 0.72069 0.93354 0.0
C3255 C 0.5283 0.67197 0.95981 0.0
C3256 C 0.53302 0.68788 0.94923 0.0
H3257 H 0.57039 0.75306 0.88768 0.0
H3258 H 0.5575 0.72382 0.89906 0.0
H3259 H 0.52618 0.73201 0.94716 0.0
H3260 H 0.52798 0.66536 0.00569 0.0
H3261 H 0.53038 0.69079 0.98699 0.0
C3262 C 0.03927 0.76278 0.68872 0.0
C3263 C 0.03191 0.74431 0.67783 0.0
C3264 C 0.05632 0.76749 0.69822 0.0
C3265 C 0.09727 0.75257 0.69564 0.0
H3266 H 0.11035 0.77893 0.74828 0.0
C3267 C 0.15519 0.7443 0.74221 0.0
C3268 C 0.16919 0.76079 0.74714 0.0
C3269 C 0.13864 0.74576 0.73545 0.0
C3270 C 0.10684 0.77188 0.73348 0.0
H3271 H 0.03632 0.71607 0.66904 0.0
H3272 H 0.06593 0.7242 0.68584 0.0
H3273 H 0.08031 0.77426 0.73267 0.0
H3274 H 0.17658 0.79188 0.75001 0.0
H3275 H 0.14725 0.79433 0.73796 0.0
H3276 H 0.12349 0.74941 0.69673 0.0
C3277 C 0.05865 0.73514 0.68671 0.0
C3278 C 0.08976 0.76918 0.72458 0.0
C3279 C 0.04164 0.73043 0.67724 0.0
C3280 C 0.16604 0.77893 0.74614 0.0
C3281 C 0.14935 0.78038 0.73941 0.0
C3282 C 0.11421 0.75518 0.70454 0.0
C3283 C 0.06627 0.75382 0.69693 0.0
C3284 C 0.08471 0.75892 0.70578 0.0
C3285 C 0.13574 0.76371 0.73356 0.0
C3286 C 0.11892 0.76433 0.72363 0.0
H3287 H 0.03208 0.7738 0.68946 0.0
H3288 H 0.0619 0.78198 0.706 0.0
H3289 H 0.09385 0.74509 0.68098 0.0
H3290 H 0.15721 0.73011 0.74255 0.0
H3291 H 0.1282 0.73277 0.73097 0.0
C3292 C 0.07666 0.37736 0.38973 0.0
C3293 C 0.0852 0.36453 0.39688 0.0
C3294 C 0.07387 0.39285 0.40204 0.0
C3295 C 0.06998 0.4069 0.45265 0.0
H3296 H 0.06972 0.45628 0.43856 0.0
C3297 C 0.06779 0.47516 0.50411 0.0
C3298 C 0.05424 0.4836 0.49899 0.0
C3299 C 0.0709 0.46005 0.49161 0.0
C3300 C 0.06963 0.44245 0.4425 0.0
H3301 H 0.09884 0.35857 0.42209 0.0
H3302 H 0.09449 0.38601 0.44351 0.0
H3303 H 0.0787 0.43215 0.41666 0.0
H3304 H 0.03287 0.48264 0.47735 0.0
H3305 H 0.03895 0.45665 0.4549 0.0
H3306 H 0.06147 0.4176 0.47879 0.0
C3307 C 0.08938 0.38374 0.42854 0.0
C3308 C 0.07474 0.42868 0.43005 0.0
C3309 C 0.09198 0.36813 0.41627 0.0
C3310 C 0.04359 0.47653 0.48139 0.0
C3311 C 0.04699 0.46171 0.46866 0.0
C3312 C 0.06514 0.42077 0.46519 0.0
C3313 C 0.07978 0.39585 0.42165 0.0
C3314 C 0.07497 0.41077 0.43502 0.0
C3315 C 0.06072 0.4535 0.47371 0.0
C3316 C 0.06494 0.43857 0.46015 0.0
H3317 H 0.07131 0.37492 0.37482 0.0
H3318 H 0.06633 0.40187 0.39632 0.0
H3319 H 0.0696 0.39306 0.45668 0.0
H3320 H 0.07606 0.4803 0.51772 0.0
H3321 H 0.08156 0.45382 0.49566 0.0
C3322 C 0.44283 0.24068 0.18403 0.0
C3323 C 0.44064 0.2457 0.16594 0.0
C3324 C 0.43129 0.24361 0.197 0.0
C3325 C 0.38807 0.25224 0.20145 0.0
H3326 H 0.40919 0.27882 0.25257 0.0
C3327 C 0.35771 0.2965 0.25639 0.0
C3328 C 0.3449 0.28201 0.26162 0.0
C3329 C 0.37212 0.292 0.24878 0.0
C3330 C 0.40327 0.27129 0.23838 0.0
H3331 H 0.42429 0.25676 0.14678 0.0
H3332 H 0.40409 0.26208 0.16962 0.0
H3333 H 0.42785 0.26956 0.22912 0.0
H3334 H 0.33821 0.25229 0.2655 0.0
H3335 H 0.36321 0.24438 0.25166 0.0
H3336 H 0.36355 0.25427 0.21067 0.0
C3337 C 0.41469 0.25576 0.17367 0.0
C3338 C 0.4138 0.26593 0.22504 0.0
C3339 C 0.42621 0.25274 0.16063 0.0
C3340 C 0.34766 0.26357 0.26111 0.0
C3341 C 0.362 0.25908 0.25344 0.0
C3342 C 0.37758 0.25745 0.21479 0.0
C3343 C 0.41741 0.25164 0.1921 0.0
C3344 C 0.40626 0.25648 0.20644 0.0
C3345 C 0.37379 0.27307 0.24649 0.0
C3346 C 0.38515 0.26702 0.23322 0.0
H3347 H 0.45375 0.23497 0.18836 0.0
H3348 H 0.43341 0.23994 0.211 0.0
H3349 H 0.38198 0.2449 0.18724 0.0
H3350 H 0.35596 0.31089 0.25675 0.0
H3351 H 0.3811 0.30286 0.24324 0.0
C3352 C 0.63233 0.50926 0.33664 0.0
C3353 C 0.62531 0.51573 0.32068 0.0
C3354 C 0.62465 0.50997 0.354 0.0
C3355 C 0.59079 0.53183 0.37946 0.0
H3356 H 0.5969 0.49892 0.4159 0.0
C3357 C 0.54808 0.52574 0.44228 0.0
C3358 C 0.55503 0.52346 0.46047 0.0
C3359 C 0.5576 0.52536 0.42649 0.0
C3360 C 0.5951 0.50842 0.40605 0.0
H3361 H 0.60389 0.52742 0.31115 0.0
H3362 H 0.59056 0.52801 0.34017 0.0
H3363 H 0.61082 0.49653 0.3867 0.0
H3364 H 0.57802 0.51844 0.47551 0.0
H3365 H 0.59469 0.51759 0.44793 0.0
H3366 H 0.57487 0.54347 0.39855 0.0
C3367 C 0.60238 0.523 0.33997 0.0
C3368 C 0.60321 0.50706 0.38903 0.0
C3369 C 0.61008 0.52245 0.32286 0.0
C3370 C 0.57219 0.52074 0.46207 0.0
C3371 C 0.5817 0.51998 0.446 0.0
C3372 C 0.58258 0.53301 0.39626 0.0
C3373 C 0.60951 0.5171 0.35625 0.0
C3374 C 0.60118 0.51864 0.3751 0.0
C3375 C 0.5746 0.52225 0.42775 0.0
C3376 C 0.58438 0.5213 0.41001 0.0
H3377 H 0.644 0.50398 0.33589 0.0
H3378 H 0.63091 0.50525 0.36581 0.0
H3379 H 0.58902 0.54164 0.36997 0.0
H3380 H 0.53488 0.52754 0.4401 0.0
H3381 H 0.55125 0.52692 0.41298 0.0
C3382 C 0.33253 0.9007 0.03866 0.0
C3383 C 0.31498 0.90103 0.03412 0.0
C3384 C 0.3379 0.89511 0.05555 0.0
C3385 C 0.32408 0.88935 0.10257 0.0
H3386 H 0.35169 0.85163 0.10152 0.0
C3387 C 0.31424 0.82902 0.14386 0.0
C3388 C 0.32814 0.82808 0.15699 0.0
C3389 C 0.31694 0.84188 0.13137 0.0
C3390 C 0.34444 0.8626 0.10212 0.0
H3391 H 0.28916 0.89513 0.04314 0.0
H3392 H 0.2984 0.88479 0.07225 0.0
H3393 H 0.34772 0.86651 0.07355 0.0
H3394 H 0.35582 0.83958 0.16731 0.0
H3395 H 0.36061 0.86206 0.14474 0.0
H3396 H 0.31957 0.88412 0.13051 0.0
C3397 C 0.30813 0.88942 0.06313 0.0
C3398 C 0.3421 0.87105 0.08617 0.0
C3399 C 0.30279 0.8951 0.04636 0.0
C3400 C 0.34492 0.84005 0.15723 0.0
C3401 C 0.34766 0.85288 0.1445 0.0
C3402 C 0.32629 0.8808 0.11839 0.0
C3403 C 0.32578 0.88972 0.06806 0.0
C3404 C 0.33122 0.88381 0.08598 0.0
C3405 C 0.3336 0.8539 0.13168 0.0
C3406 C 0.33587 0.86683 0.1179 0.0
H3407 H 0.34223 0.90541 0.02955 0.0
H3408 H 0.35158 0.89544 0.05903 0.0
H3409 H 0.31598 0.89951 0.10293 0.0
H3410 H 0.3013 0.81962 0.14308 0.0
H3411 H 0.30604 0.84228 0.12123 0.0
C3412 C 0.94076 0.5063 0.83276 0.0
C3413 C 0.93759 0.52163 0.82446 0.0
C3414 C 0.95466 0.50951 0.8472 0.0
C3415 C 0.98061 0.54705 0.88494 0.0
H3416 H 0.00988 0.51132 0.88826 0.0
C3417 C 0.03558 0.55483 0.94686 0.0
C3418 C 0.03252 0.53876 0.9558 0.0
C3419 C 0.02584 0.55414 0.92942 0.0
C3420 C 0.00184 0.52143 0.88734 0.0
H3421 H 0.94645 0.55218 0.82426 0.0
H3422 H 0.9707 0.5578 0.84973 0.0
H3423 H 0.98936 0.50738 0.85935 0.0
H3424 H 0.01738 0.50942 0.95395 0.0
H3425 H 1.00069 0.50805 0.92316 0.0
H3426 H 0.99286 0.5608 0.91313 0.0
C3427 C 0.96244 0.54337 0.84507 0.0
C3428 C 0.99013 0.51916 0.87096 0.0
C3429 C 0.94863 0.54014 0.83053 0.0
C3430 C 0.01987 0.52196 0.9472 0.0
C3431 C 0.01046 0.52113 0.92964 0.0
C3432 C 0.99241 0.54939 0.90127 0.0
C3433 C 0.96546 0.52811 0.85357 0.0
C3434 C 0.97919 0.53172 0.86984 0.0
C3435 C 0.01337 0.53722 0.92071 0.0
C3436 C 0.00279 0.53635 0.90265 0.0
H3437 H 0.93252 0.49185 0.82812 0.0
H3438 H 0.95668 0.49755 0.85371 0.0
H3439 H 0.97209 0.55672 0.88447 0.0
H3440 H 0.04523 0.56795 0.95348 0.0
H3441 H 0.02809 0.5667 0.92268 0.0
C3442 C 0.27685 0.2347 0.5456 0.0
C3443 C 0.284 0.21876 0.54162 0.0
C3444 C 0.27774 0.24399 0.56444 0.0
C3445 C 0.30137 0.25122 0.61261 0.0
H3446 H 0.25725 0.25463 0.63051 0.0
C3447 C 0.29475 0.25908 0.69187 0.0
C3448 C 0.28377 0.27002 0.69958 0.0
C3449 C 0.29491 0.2551 0.67225 0.0
C3450 C 0.26975 0.25417 0.62573 0.0
H3451 H 0.29837 0.20062 0.55414 0.0
H3452 H 0.30012 0.21699 0.58687 0.0
H3453 H 0.25816 0.24464 0.59652 0.0
H3454 H 0.26422 0.28531 0.69289 0.0
H3455 H 0.26491 0.27893 0.65837 0.0
H3456 H 0.31308 0.26077 0.6416 0.0
C3457 C 0.29377 0.22224 0.57547 0.0
C3458 C 0.27024 0.24841 0.60626 0.0
C3459 C 0.29268 0.21281 0.55673 0.0
C3460 C 0.27275 0.27676 0.68725 0.0
C3461 C 0.27314 0.27307 0.66751 0.0
C3462 C 0.30094 0.25723 0.63198 0.0
C3463 C 0.28606 0.2377 0.57954 0.0
C3464 C 0.28597 0.24639 0.59962 0.0
C3465 C 0.28435 0.2623 0.6598 0.0
C3466 C 0.28503 0.2582 0.63889 0.0
H3467 H 0.27008 0.23961 0.53425 0.0
H3468 H 0.2718 0.25597 0.56723 0.0
H3469 H 0.31371 0.25003 0.6078 0.0
H3470 H 0.30317 0.25342 0.70104 0.0
H3471 H 0.30327 0.24622 0.66687 0.0
C3472 C 0.60244 0.4995 0.21256 0.0
C3473 C 0.62065 0.50547 0.21882 0.0
C3474 C 0.59523 0.50181 0.1945 0.0
C3475 C 0.60487 0.5291 0.15401 0.0
H3476 H 0.56337 0.4917 0.12692 0.0
C3477 C 0.56621 0.54242 0.08488 0.0
C3478 C 0.55816 0.52668 0.07011 0.0
C3479 C 0.57383 0.53978 0.10266 0.0
C3480 C 0.57503 0.50232 0.13408 0.0
H3481 H 0.64538 0.51875 0.21018 0.0
H3482 H 0.63292 0.52277 0.17878 0.0
H3483 H 0.57672 0.48704 0.15734 0.0
H3484 H 0.55195 0.49558 0.0632 0.0
H3485 H 0.56506 0.49098 0.09389 0.0
H3486 H 0.60325 0.54428 0.13062 0.0
C3487 C 0.6241 0.51631 0.18798 0.0
C3488 C 0.58267 0.49974 0.15188 0.0
C3489 C 0.63135 0.51384 0.20608 0.0
C3490 C 0.55793 0.50816 0.07401 0.0
C3491 C 0.56545 0.50551 0.09185 0.0
C3492 C 0.59714 0.53176 0.13627 0.0
C3493 C 0.60583 0.51035 0.18175 0.0
C3494 C 0.59779 0.51305 0.16232 0.0
C3495 C 0.57368 0.52127 0.10661 0.0
C3496 C 0.58203 0.51843 0.12583 0.0
H3497 H 0.59357 0.49306 0.22173 0.0
H3498 H 0.58116 0.4972 0.19074 0.0
H3499 H 0.61631 0.5399 0.16138 0.0
H3500 H 0.56674 0.55694 0.08269 0.0
H3501 H 0.57969 0.5524 0.11345 0.0
C3502 C 0.3153 0.90845 0.93429 0.0
C3503 C 0.30541 0.905 0.9492 0.0
C3504 C 0.31617 0.89317 0.92027 0.0
C3505 C 0.29188 0.84324 0.89963 0.0
H3506 H 0.3318 0.84482 0.87181 0.0
C3507 C 0.29092 0.78661 0.83365 0.0
C3508 C 0.29288 0.79549 0.81763 0.0
C3509 C 0.29557 0.79767 0.85198 0.0
C3510 C 0.32069 0.84411 0.87969 0.0
H3511 H 0.28964 0.88296 0.96204 0.0
H3512 H 0.29171 0.85633 0.93812 0.0
H3513 H 0.33399 0.86894 0.90038 0.0
H3514 H 0.30148 0.82263 0.80806 0.0
H3515 H 0.31022 0.84172 0.83996 0.0
H3516 H 0.27859 0.81854 0.87876 0.0
C3517 C 0.29816 0.87078 0.93664 0.0
C3518 C 0.32184 0.85799 0.89587 0.0
C3519 C 0.29696 0.88605 0.95034 0.0
C3520 C 0.30022 0.81536 0.82015 0.0
C3521 C 0.30521 0.82629 0.83839 0.0
C3522 C 0.29087 0.8292 0.88368 0.0
C3523 C 0.3075 0.87416 0.92124 0.0
C3524 C 0.30724 0.85807 0.90565 0.0
C3525 C 0.30257 0.81761 0.85441 0.0
C3526 C 0.30507 0.82989 0.87329 0.0
H3527 H 0.32206 0.92296 0.93326 0.0
H3528 H 0.32328 0.89635 0.90846 0.0
H3529 H 0.28028 0.84299 0.90658 0.0
H3530 H 0.28517 0.77132 0.83203 0.0
H3531 H 0.29331 0.79078 0.86423 0.0
C3532 C 0.95636 0.53064 0.73414 0.0
C3533 C 0.93826 0.52696 0.73463 0.0
C3534 C 0.96286 0.5222 0.71847 0.0
C3535 C 0.95135 0.48113 0.67865 0.0
H3536 H 0.99003 0.5117 0.65862 0.0
C3537 C 0.98232 0.47667 0.60692 0.0
C3538 C 1.00069 0.48062 0.61072 0.0
C3539 C 0.97218 0.47424 0.62172 0.0
C3540 C 0.97933 0.50299 0.66426 0.0
H3541 H 0.91269 0.51203 0.71886 0.0
H3542 H 0.92413 0.49756 0.69144 0.0
H3543 H 0.97761 0.52672 0.68492 0.0
H3544 H 0.02239 0.48127 0.63193 0.0
H3545 H 0.00465 0.47685 0.65746 0.0
H3546 H 0.95299 0.4575 0.65727 0.0
C3547 C 0.93325 0.50671 0.70328 0.0
C3548 C 0.97226 0.51155 0.67926 0.0
C3549 C 0.92675 0.51523 0.71889 0.0
C3550 C 0.00833 0.47844 0.6285 0.0
C3551 C 0.99817 0.47585 0.64319 0.0
C3552 C 0.95841 0.47255 0.66341 0.0
C3553 C 0.95136 0.50993 0.70306 0.0
C3554 C 0.95833 0.5007 0.68674 0.0
C3555 C 0.98036 0.47549 0.64023 0.0
C3556 C 0.97258 0.48346 0.65637 0.0
H3557 H 0.96552 0.53954 0.74608 0.0
H3558 H 0.97691 0.52485 0.71866 0.0
H3559 H 0.94064 0.47246 0.68428 0.0
H3560 H 0.97603 0.47767 0.59315 0.0
H3561 H 0.95841 0.47395 0.61922 0.0
C3562 C 0.25977 0.20269 0.43416 0.0
C3563 C 0.27359 0.20077 0.4469 0.0
C3564 C 0.26315 0.212 0.41869 0.0
C3565 C 0.29632 0.24678 0.4006 0.0
H3566 H 0.27054 0.22152 0.35106 0.0
C3567 C 0.31193 0.27622 0.33167 0.0
C3568 C 0.29785 0.27464 0.31758 0.0
C3569 C 0.30941 0.2671 0.34742 0.0
C3570 C 0.27769 0.22897 0.36479 0.0
H3571 H 0.30187 0.20765 0.45364 0.0
H3572 H 0.30776 0.2241 0.42668 0.0
H3573 H 0.26524 0.20651 0.37881 0.0
H3574 H 0.27009 0.26226 0.30886 0.0
H3575 H 0.26554 0.24679 0.33649 0.0
H3576 H 0.30849 0.26948 0.38673 0.0
C3577 C 0.29429 0.2183 0.42866 0.0
C3578 C 0.27468 0.2203 0.38071 0.0
C3579 C 0.29091 0.20878 0.44404 0.0
C3580 C 0.28122 0.26363 0.31945 0.0
C3581 C 0.27865 0.25467 0.33528 0.0
C3582 C 0.2992 0.2556 0.38469 0.0
C3583 C 0.28044 0.21981 0.41568 0.0
C3584 C 0.28391 0.2291 0.3988 0.0
C3585 C 0.29271 0.2563 0.34955 0.0
C3586 C 0.28988 0.24684 0.36654 0.0
H3587 H 0.24628 0.19678 0.43596 0.0
H3588 H 0.2522 0.21315 0.40909 0.0
H3589 H 0.30353 0.254 0.41439 0.0
H3590 H 0.32491 0.28457 0.33056 0.0
H3591 H 0.32063 0.26845 0.35786 0.0
C3592 C 0.34847 0.63647 0.50946 0.0
C3593 C 0.33303 0.62708 0.51568 0.0
C3594 C 0.36012 0.62603 0.5028 0.0
C3595 C 0.37126 0.5794 0.50284 0.0
H3596 H 0.39351 0.59126 0.45855 0.0
C3597 C 0.41275 0.5326 0.47103 0.0
C3598 C 0.43013 0.54307 0.47163 0.0
C3599 C 0.39937 0.54206 0.47187 0.0
C3600 C 0.38726 0.58779 0.47085 0.0
H3601 H 0.31786 0.59952 0.52033 0.0
H3602 H 0.33777 0.58142 0.5083 0.0
H3603 H 0.37379 0.61014 0.47104 0.0
H3604 H 0.44692 0.57117 0.47125 0.0
H3605 H 0.42349 0.58779 0.4731 0.0
H3606 H 0.38461 0.55707 0.50265 0.0
C3607 C 0.34117 0.59683 0.50886 0.0
C3608 C 0.37617 0.59867 0.47812 0.0
C3609 C 0.32971 0.60725 0.51573 0.0
C3610 C 0.43365 0.56284 0.47114 0.0
C3611 C 0.42025 0.57231 0.47198 0.0
C3612 C 0.38211 0.56842 0.49544 0.0
C3613 C 0.3564 0.60604 0.50213 0.0
C3614 C 0.36817 0.59465 0.49429 0.0
C3615 C 0.40319 0.5621 0.47332 0.0
C3616 C 0.39029 0.57259 0.47949 0.0
H3617 H 0.35136 0.65175 0.50932 0.0
H3618 H 0.37195 0.63357 0.49805 0.0
H3619 H 0.36559 0.57616 0.51552 0.0
H3620 H 0.40963 0.51736 0.47144 0.0
H3621 H 0.38622 0.53391 0.47267 0.0
C3622 C 0.86738 0.91285 0.53818 0.0
C3623 C 0.85244 0.9196 0.53403 0.0
C3624 C 0.8841 0.9238 0.5368 0.0
C3625 C 0.90777 0.96335 0.51471 0.0
H3626 H 0.94565 0.96592 0.55418 0.0
C3627 C 0.98088 0.9989 0.50973 0.0
C3628 C 0.99071 0.01056 0.52653 0.0
C3629 C 0.964 0.98749 0.51009 0.0
C3630 C 0.93524 0.96545 0.54306 0.0
H3631 H 0.84346 0.94323 0.52499 0.0
H3632 H 0.87274 0.96243 0.52261 0.0
H3633 H 0.91622 0.94739 0.55608 0.0
H3634 H 0.99066 0.01918 0.55687 0.0
H3635 H 0.96143 0.99934 0.55754 0.0
H3636 H 0.92685 0.98167 0.50185 0.0
C3637 C 0.87145 0.94856 0.52687 0.0
C3638 C 0.91835 0.95465 0.54406 0.0
C3639 C 0.85468 0.93763 0.52839 0.0
C3640 C 0.98345 0.01031 0.54369 0.0
C3641 C 0.96669 0.99886 0.54408 0.0
C3642 C 0.92473 0.9741 0.51365 0.0
C3643 C 0.8864 0.9418 0.53113 0.0
C3644 C 0.90436 0.95347 0.52994 0.0
C3645 C 0.95667 0.98735 0.52729 0.0
C3646 C 0.93868 0.97538 0.52789 0.0
H3647 H 0.86619 0.89901 0.54249 0.0
H3648 H 0.89524 0.918 0.53995 0.0
H3649 H 0.89735 0.96262 0.50349 0.0
H3650 H 0.98611 0.99881 0.49626 0.0
H3651 H 0.95675 0.97866 0.49692 0.0
C3652 C 0.89969 0.13261 0.2717 0.0
C3653 C 0.89275 0.1134 0.26196 0.0
C3654 C 0.89016 0.14693 0.2719 0.0
C3655 C 0.84826 0.15818 0.24914 0.0
H3656 H 0.86234 0.2031 0.28932 0.0
C3657 C 0.80668 0.2169 0.25853 0.0
C3658 C 0.81508 0.23655 0.26549 0.0
C3659 C 0.81586 0.20216 0.2579 0.0
C3660 C 0.85817 0.19086 0.27776 0.0
H3661 H 0.86938 0.09498 0.2446 0.0
H3662 H 0.85263 0.1196 0.24514 0.0
H3663 H 0.87759 0.17769 0.28887 0.0
H3664 H 0.84047 0.25534 0.27738 0.0
H3665 H 0.85629 0.22994 0.27661 0.0
H3666 H 0.8285 0.17138 0.23839 0.0
C3667 C 0.86582 0.1238 0.25259 0.0
C3668 C 0.86714 0.17594 0.27741 0.0
C3669 C 0.8755 0.10936 0.25233 0.0
C3670 C 0.83325 0.24061 0.27191 0.0
C3671 C 0.84241 0.2258 0.27154 0.0
C3672 C 0.83916 0.17304 0.24961 0.0
C3673 C 0.87285 0.14311 0.26246 0.0
C3674 C 0.86261 0.15912 0.26301 0.0
C3675 C 0.834 0.2061 0.26443 0.0
C3676 C 0.84389 0.1899 0.26389 0.0
H3677 H 0.91284 0.13685 0.27932 0.0
H3678 H 0.89675 0.16125 0.27939 0.0
H3679 H 0.84407 0.14602 0.23752 0.0
H3680 H 0.79281 0.21278 0.25336 0.0
H3681 H 0.8085 0.18748 0.2525 0.0
C3682 C 0.72223 0.10779 0.99203 0.0
C3683 C 0.72803 0.12151 0.00882 0.0
C3684 C 0.70432 0.10079 0.98579 0.0
C3685 C 0.66117 0.10919 0.9968 0.0
H3686 H 0.64568 0.05372 0.9835 0.0
C3687 C 0.5943 0.06966 0.01244 0.0
C3688 C 0.59377 0.05233 0.01883 0.0
C3689 C 0.60869 0.07834 0.00442 0.0
C3690 C 0.64983 0.06924 0.98737 0.0
H3691 H 0.72024 0.13859 0.03243 0.0
H3692 H 0.68922 0.12551 0.02255 0.0
H3693 H 0.67569 0.06957 0.98122 0.0
H3694 H 0.6073 0.03021 0.02214 0.0
H3695 H 0.63354 0.04641 0.0102 0.0
H3696 H 0.63625 0.10885 0.00548 0.0
C3697 C 0.69816 0.1208 0.01345 0.0
C3698 C 0.66696 0.07838 0.98563 0.0
C3699 C 0.71594 0.12807 0.01936 0.0
C3700 C 0.60787 0.04394 0.01775 0.0
C3701 C 0.62259 0.05295 0.01034 0.0
C3702 C 0.64431 0.10004 0.99927 0.0
C3703 C 0.6921 0.10718 0.99652 0.0
C3704 C 0.67312 0.09834 0.99171 0.0
C3705 C 0.62302 0.07006 0.00319 0.0
C3706 C 0.63887 0.07986 0.9958 0.0
H3707 H 0.73153 0.10284 0.98359 0.0
H3708 H 0.70007 0.09035 0.97268 0.0
H3709 H 0.66533 0.12472 1.0007 0.0
H3710 H 0.58308 0.07585 0.01255 0.0
H3711 H 0.60833 0.09124 0.99878 0.0
C3712 C 0.20116 0.49665 0.24535 0.0
C3713 C 0.18301 0.49106 0.24562 0.0
C3714 C 0.21195 0.48602 0.2525 0.0
C3715 C 0.21352 0.45331 0.28626 0.0
H3716 H 0.25132 0.44145 0.2598 0.0
C3717 C 0.25121 0.39618 0.29914 0.0
C3718 C 0.26934 0.40147 0.2986 0.0
C3719 C 0.2411 0.40907 0.29617 0.0
C3720 C 0.24097 0.44496 0.26746 0.0
H3721 H 0.16179 0.46978 0.25303 0.0
H3722 H 0.18069 0.4511 0.26539 0.0
H3723 H 0.23228 0.45907 0.24576 0.0
H3724 H 0.29136 0.42449 0.29587 0.0
H3725 H 0.27362 0.447 0.2905 0.0
H3726 H 0.22203 0.43863 0.30772 0.0
C3727 C 0.18655 0.46378 0.25982 0.0
C3728 C 0.23009 0.45496 0.25942 0.0
C3729 C 0.17574 0.47432 0.25252 0.0
C3730 C 0.27741 0.4202 0.29649 0.0
C3731 C 0.26729 0.43299 0.29329 0.0
C3732 C 0.22437 0.44317 0.29426 0.0
C3733 C 0.20475 0.46973 0.26014 0.0
C3734 C 0.21625 0.45917 0.26872 0.0
C3735 C 0.24903 0.42722 0.29239 0.0
C3736 C 0.23817 0.43897 0.28489 0.0
H3737 H 0.20706 0.50953 0.24011 0.0
H3738 H 0.22597 0.49093 0.25266 0.0
H3739 H 0.20306 0.45666 0.29382 0.0
H3740 H 0.24478 0.38176 0.3008 0.0
H3741 H 0.227 0.40435 0.29545 0.0
C3742 C 0.23082 0.39774 0.01305 0.0
C3743 C 0.24812 0.40853 0.01954 0.0
C3744 C 0.21741 0.40686 0.00959 0.0
C3745 C 0.20656 0.45396 0.02158 0.0
H3746 H 0.16868 0.43225 0.98003 0.0
C3747 C 0.15649 0.49577 0.00185 0.0
C3748 C 0.13872 0.48597 1.0 0.0
C3749 C 0.16956 0.4858 0.0025 0.0
C3750 C 0.17913 0.43839 0.99175 0.0
H3751 H 0.26488 0.43744 0.02715 0.0
H3752 H 0.24162 0.45336 0.02085 0.0
H3753 H 0.19228 0.41614 0.98453 0.0
H3754 H 0.12077 0.4578 0.99645 0.0
H3755 H 0.14375 0.44032 0.99761 0.0
H3756 H 0.19355 0.4763 0.02866 0.0
C3757 C 0.2383 0.43781 0.01878 0.0
C3758 C 0.19264 0.42916 0.99439 0.0
C3759 C 0.2517 0.42868 0.02232 0.0
C3760 C 0.13433 0.4658 0.99808 0.0
C3761 C 0.14747 0.45578 0.99859 0.0
C3762 C 0.19319 0.46324 0.01884 0.0
C3763 C 0.22094 0.42704 0.01248 0.0
C3764 C 0.20656 0.43684 0.00936 0.0
C3765 C 0.16524 0.46575 0.00125 0.0
C3766 C 0.17934 0.45561 0.00389 0.0
H3767 H 0.22757 0.38217 0.0107 0.0
H3768 H 0.20421 0.39806 0.00499 0.0
H3769 H 0.21677 0.4601 0.03353 0.0
H3770 H 0.16038 0.51129 0.00355 0.0
H3771 H 0.18312 0.49386 0.00432 0.0
C3772 C 0.89452 0.97705 0.24393 0.0
C3773 C 0.88887 0.99402 0.24897 0.0
C3774 C 0.88453 0.95881 0.24581 0.0
C3775 C 0.84567 0.93352 0.2681 0.0
H3776 H 0.85069 0.88851 0.23441 0.0
C3777 C 0.79845 0.85716 0.26407 0.0
C3778 C 0.80464 0.84038 0.2607 0.0
C3779 C 0.80903 0.87552 0.26339 0.0
C3780 C 0.84918 0.90079 0.24417 0.0
H3781 H 0.86766 0.00434 0.26021 0.0
H3782 H 0.84998 0.97256 0.26313 0.0
H3783 H 0.86725 0.92034 0.23141 0.0
H3784 H 0.82737 0.83033 0.25384 0.0
H3785 H 0.84587 0.86232 0.25243 0.0
H3786 H 0.8273 0.91383 0.28057 0.0
C3787 C 0.86247 0.97339 0.25789 0.0
C3788 C 0.85884 0.91936 0.24248 0.0
C3789 C 0.87262 0.99183 0.25609 0.0
C3790 C 0.82204 0.84277 0.25663 0.0
C3791 C 0.83264 0.86125 0.25568 0.0
C3792 C 0.83591 0.91495 0.26968 0.0
C3793 C 0.86816 0.95636 0.25271 0.0
C3794 C 0.85739 0.93627 0.25442 0.0
C3795 C 0.82635 0.87808 0.25904 0.0
C3796 C 0.8374 0.8981 0.25774 0.0
H3797 H 0.90696 0.97778 0.23857 0.0
H3798 H 0.88996 0.9466 0.24205 0.0
H3799 H 0.84415 0.94574 0.27792 0.0
H3800 H 0.78518 0.85613 0.26719 0.0
H3801 H 0.80335 0.88772 0.26583 0.0
C3802 C 0.66729 0.10774 0.75242 0.0
C3803 C 0.66912 0.09436 0.76404 0.0
C3804 C 0.67856 0.12604 0.75664 0.0
C3805 C 0.7239 0.14331 0.77709 0.0
H3806 H 0.71931 0.18818 0.75603 0.0
C3807 C 0.77785 0.21056 0.77162 0.0
C3808 C 0.77587 0.2172 0.75435 0.0
C3809 C 0.76613 0.19412 0.77445 0.0
C3810 C 0.72066 0.17561 0.76186 0.0
H3811 H 0.68171 0.08973 0.79042 0.0
H3812 H 0.70086 0.1222 0.79848 0.0
H3813 H 0.69322 0.16639 0.76306 0.0
H3814 H 0.76222 0.21068 0.72551 0.0
H3815 H 0.74156 0.18185 0.73055 0.0
H3816 H 0.75141 0.15272 0.77585 0.0
C3817 C 0.69137 0.11846 0.78574 0.0
C3818 C 0.70584 0.16331 0.76605 0.0
C3819 C 0.68045 0.1 0.78121 0.0
C3820 C 0.76383 0.20584 0.739 0.0
C3821 C 0.75198 0.18951 0.7419 0.0
C3822 C 0.73875 0.15579 0.77317 0.0
C3823 C 0.69152 0.13103 0.77266 0.0
C3824 C 0.70723 0.14665 0.77303 0.0
C3825 C 0.75241 0.18443 0.76003 0.0
C3826 C 0.73707 0.17155 0.76488 0.0
H3827 H 0.65851 0.10345 0.7391 0.0
H3828 H 0.67831 0.13534 0.74622 0.0
H3829 H 0.72545 0.13044 0.78216 0.0
H3830 H 0.78733 0.21905 0.78352 0.0
H3831 H 0.76669 0.19022 0.78847 0.0
loop_
_geom_bond_atom_site_label_1
_geom_bond_atom_site_label_2
_geom_bond_distance
_geom_bond_site_symmetry_2
_ccdc_geom_bond_type
C0 O1 1.160 . S
C0 O7 1.185 . S
O1 C0 1.160 . S
O2 Zn3 1.899 . S
O2 C10 1.284 . S
Zn3 O2 1.899 . S
Zn3 O4 2.032 . S
Zn3 O7 2.086 . S
Zn3 O12 1.977 . S
O4 Zn3 2.032 . S
O4 C8 1.278 . S
C5 O6 1.203 . S
C5 O12 1.267 . S
O6 C5 1.203 . S
O7 C0 1.185 . S
O7 Zn3 2.086 . S
C8 O4 1.278 . S
C8 O9 1.211 . S
O9 C8 1.211 . S
C10 O2 1.284 . S
C10 O11 1.273 . S
O11 C10 1.273 . S
O12 Zn3 1.977 . S
O12 C5 1.267 . S
C13 O14 1.160 . S
C13 O20 1.185 . S
O14 C13 1.160 . S
O15 Zn16 1.899 . S
O15 C23 1.284 . S
Zn16 O15 1.899 . S
Zn16 O17 2.032 . S
Zn16 O20 2.086 . S
Zn16 O25 1.977 1_655 S
O17 Zn16 2.032 . S
O17 C21 1.278 1_655 S
C18 O19 1.203 . S
C18 O25 1.267 . S
O19 C18 1.203 . S
O20 C13 1.185 . S
O20 Zn16 2.086 . S
C21 O17 1.278 1_455 S
C21 O22 1.211 . S
O22 C21 1.211 . S
C23 O15 1.284 . S
C23 O24 1.273 1_655 S
O24 C23 1.273 1_455 S
O25 Zn16 1.977 1_455 S
O25 C18 1.267 . S
C26 O27 1.160 . S
C26 O33 1.185 . S
O27 C26 1.160 . S
O28 Zn29 1.899 . S
O28 C36 1.284 . S
Zn29 O28 1.899 . S
Zn29 O30 2.032 . S
Zn29 O33 2.086 . S
Zn29 O38 1.977 . S
O30 Zn29 2.032 . S
O30 C34 1.278 . S
C31 O32 1.203 . S
C31 O38 1.267 . S
O32 C31 1.203 . S
O33 C26 1.185 . S
O33 Zn29 2.086 . S
C34 O30 1.278 . S
C34 O35 1.211 . S
O35 C34 1.211 . S
C36 O28 1.284 . S
C36 O37 1.273 . S
O37 C36 1.273 . S
O38 Zn29 1.977 . S
O38 C31 1.267 . S
C39 O40 1.160 . S
C39 O46 1.185 . S
O40 C39 1.160 . S
O41 Zn42 1.899 . S
O41 C49 1.284 . S
Zn42 O41 1.899 . S
Zn42 O43 2.032 . S
Zn42 O46 2.086 . S
Zn42 O51 1.977 . S
O43 Zn42 2.032 . S
O43 C47 1.278 . S
C44 O45 1.203 . S
C44 O51 1.267 . S
O45 C44 1.203 . S
O46 C39 1.185 . S
O46 Zn42 2.086 . S
C47 O43 1.278 . S
C47 O48 1.211 . S
O48 C47 1.211 . S
C49 O41 1.284 . S
C49 O50 1.273 . S
O50 C49 1.273 . S
O51 Zn42 1.977 . S
O51 C44 1.267 . S
C52 O53 1.160 . S
C52 O59 1.185 . S
O53 C52 1.160 . S
O54 Zn55 1.899 . S
O54 C62 1.284 . S
Zn55 O54 1.899 . S
Zn55 O56 2.032 . S
Zn55 O59 2.086 . S
Zn55 O64 1.977 . S
O56 Zn55 2.032 . S
O56 C60 1.278 . S
C57 O58 1.203 . S
C57 O64 1.267 . S
O58 C57 1.203 . S
O59 C52 1.185 . S
O59 Zn55 2.086 . S
C60 O56 1.278 . S
C60 O61 1.211 . S
O61 C60 1.211 . S
C62 O54 1.284 . S
C62 O63 1.273 . S
O63 C62 1.273 . S
O64 Zn55 1.977 . S
O64 C57 1.267 . S
C65 O66 1.160 . S
C65 O72 1.185 . S
O66 C65 1.160 . S
O67 Zn68 1.899 . S
O67 C75 1.284 . S
Zn68 O67 1.899 . S
Zn68 O69 2.032 . S
Zn68 O72 2.086 . S
Zn68 O77 1.977 . S
O69 Zn68 2.032 . S
O69 C73 1.278 . S
C70 O71 1.203 . S
C70 O77 1.267 . S
O71 C70 1.203 . S
O72 C65 1.185 . S
O72 Zn68 2.086 . S
C73 O69 1.278 . S
C73 O74 1.211 . S
O74 C73 1.211 . S
C75 O67 1.284 . S
C75 O76 1.273 . S
O76 C75 1.273 . S
O77 Zn68 1.977 . S
O77 C70 1.267 . S
C78 O79 1.160 . S
C78 O85 1.185 . S
O79 C78 1.160 . S
O80 Zn81 1.899 . S
O80 C88 1.284 . S
Zn81 O80 1.899 . S
Zn81 O82 2.032 . S
Zn81 O85 2.086 . S
Zn81 O90 1.977 . S
O82 Zn81 2.032 . S
O82 C86 1.278 . S
C83 O84 1.203 . S
C83 O90 1.267 . S
O84 C83 1.203 . S
O85 C78 1.185 . S
O85 Zn81 2.086 . S
C86 O82 1.278 . S
C86 O87 1.211 . S
O87 C86 1.211 . S
C88 O80 1.284 . S
C88 O89 1.273 . S
O89 C88 1.273 . S
O90 Zn81 1.977 . S
O90 C83 1.267 . S
C91 O92 1.160 . S
C91 O98 1.185 . S
O92 C91 1.160 . S
O93 Zn94 1.899 . S
O93 C101 1.284 . S
Zn94 O93 1.899 . S
Zn94 O95 2.032 . S
Zn94 O98 2.086 . S
Zn94 O103 1.977 1_455 S
O95 Zn94 2.032 . S
O95 C99 1.278 . S
C96 O97 1.203 . S
C96 O103 1.267 . S
O97 C96 1.203 . S
O98 C91 1.185 . S
O98 Zn94 2.086 . S
C99 O95 1.278 . S
C99 O100 1.193 1_455 S
O100 C99 1.193 1_655 S
C101 O93 1.284 . S
C101 O102 1.273 . S
O102 C101 1.273 . S
O103 Zn94 1.977 1_655 S
O103 C96 1.267 . S
C104 O105 1.160 . S
C104 O111 1.185 . S
O105 C104 1.160 . S
O106 Zn107 1.899 . S
O106 C114 1.284 . S
Zn107 O106 1.899 . S
Zn107 O108 2.032 . S
Zn107 O111 2.086 . S
Zn107 O116 1.977 1_545 S
O108 Zn107 2.032 . S
O108 C112 1.278 . S
C109 O110 1.203 . S
C109 O116 1.267 . S
O110 C109 1.203 . S
O111 C104 1.185 . S
O111 Zn107 2.086 . S
C112 O108 1.278 . S
C112 O113 1.211 1_545 S
O113 C112 1.211 1_565 S
C114 O106 1.284 . S
C114 O115 1.273 . S
O115 C114 1.273 . S
O116 Zn107 1.977 1_565 S
O116 C109 1.267 . S
C117 O118 1.160 . S
C117 O124 1.185 . S
O118 C117 1.160 . S
O119 Zn120 1.899 . S
O119 C127 1.284 . S
Zn120 O119 1.899 . S
Zn120 O121 2.032 . S
Zn120 O124 2.086 . S
Zn120 O129 1.977 . S
O121 Zn120 2.032 . S
O121 C125 1.278 . S
C122 O123 1.203 . S
C122 O129 1.267 . S
O123 C122 1.203 . S
O124 C117 1.185 . S
O124 Zn120 2.086 . S
C125 O121 1.278 . S
C125 O126 1.211 . S
O126 C125 1.211 . S
C127 O119 1.284 . S
C127 O128 1.273 . S
O128 C127 1.273 . S
O129 Zn120 1.977 . S
O129 C122 1.267 . S
C130 O131 1.160 . S
C130 O137 1.185 . S
O131 C130 1.160 . S
O132 Zn133 1.899 . S
O132 C140 1.284 . S
Zn133 O132 1.899 . S
Zn133 O134 2.032 . S
Zn133 O137 2.086 . S
Zn133 O142 1.977 1_565 S
O134 Zn133 2.032 . S
O134 C138 1.278 1_565 S
C135 O136 1.203 . S
C135 O142 1.267 . S
O136 C135 1.203 . S
O137 C130 1.185 . S
O137 Zn133 2.086 . S
C138 O134 1.278 1_545 S
C138 O139 1.211 . S
O139 C138 1.211 . S
C140 O132 1.284 . S
C140 O141 1.273 1_565 S
O141 C140 1.273 1_545 S
O142 Zn133 1.977 1_545 S
O142 C135 1.267 . S
C143 O144 1.160 . S
C143 O150 1.185 . S
O144 C143 1.160 . S
O145 Zn146 1.899 . S
O145 C153 1.284 . S
Zn146 O145 1.899 . S
Zn146 O147 2.032 1_554 S
Zn146 O150 2.086 . S
Zn146 O155 1.977 . S
O147 Zn146 2.032 1_556 S
O147 C151 1.278 . S
C148 O149 1.203 . S
C148 O155 1.267 . S
O149 C148 1.203 . S
O150 C143 1.185 . S
O150 Zn146 2.086 . S
C151 O147 1.278 . S
C151 O152 1.211 . S
O152 C151 1.211 . S
C153 O145 1.284 . S
C153 O154 1.273 . S
O154 C153 1.273 . S
O155 Zn146 1.977 . S
O155 C148 1.267 . S
C156 O157 1.160 . S
C156 O163 1.185 . S
O157 C156 1.160 . S
O158 Zn159 1.899 . S
O158 C166 1.284 . S
Zn159 O158 1.899 . S
Zn159 O160 2.032 1_554 S
Zn159 O163 2.086 . S
Zn159 O168 1.977 . S
O160 Zn159 2.032 1_556 S
O160 C164 1.278 . S
C161 O162 1.203 . S
C161 O168 1.267 . S
O162 C161 1.203 . S
O163 C156 1.185 . S
O163 Zn159 2.086 . S
C164 O160 1.278 . S
C164 O165 1.211 . S
O165 C164 1.211 . S
C166 O158 1.284 . S
C166 O167 1.273 . S
O167 C166 1.273 . S
O168 Zn159 1.977 . S
O168 C161 1.267 . S
C169 O170 1.160 . S
C169 O176 1.185 . S
O170 C169 1.160 . S
O171 Zn172 1.899 . S
O171 C179 1.284 . S
Zn172 O171 1.899 . S
Zn172 O173 2.032 1_554 S
Zn172 O176 2.086 . S
Zn172 O181 1.977 . S
O173 Zn172 2.032 1_556 S
O173 C177 1.278 . S
C174 O175 1.203 . S
C174 O181 1.267 . S
O175 C174 1.203 . S
O176 C169 1.185 . S
O176 Zn172 2.086 . S
C177 O173 1.278 . S
C177 O178 1.211 . S
O178 C177 1.211 . S
C179 O171 1.284 . S
C179 O180 1.273 . S
O180 C179 1.273 . S
O181 Zn172 1.977 . S
O181 C174 1.267 . S
C182 O183 1.160 . S
C182 O189 1.185 . S
O183 C182 1.160 . S
O184 Zn185 1.899 . S
O184 C192 1.284 . S
Zn185 O184 1.899 . S
Zn185 O186 2.032 . S
Zn185 O189 2.086 . S
Zn185 O194 1.977 . S
O186 Zn185 2.032 . S
O186 C190 1.278 . S
C187 O188 1.203 . S
C187 O194 1.267 . S
O188 C187 1.203 . S
O189 C182 1.185 . S
O189 Zn185 2.086 . S
C190 O186 1.278 . S
C190 O191 1.211 . S
O191 C190 1.211 . S
C192 O184 1.284 . S
C192 O193 1.273 . S
O193 C192 1.273 . S
O194 Zn185 1.977 . S
O194 C187 1.267 . S
C195 O196 1.160 . S
C195 O202 1.185 . S
O196 C195 1.160 . S
O197 Zn198 1.899 . S
O197 C205 1.284 . S
Zn198 O197 1.899 . S
Zn198 O199 2.032 . S
Zn198 O202 2.086 . S
Zn198 O207 1.977 . S
O199 Zn198 2.032 . S
O199 C203 1.278 . S
C200 O201 1.203 . S
C200 O207 1.267 . S
O201 C200 1.203 . S
O202 C195 1.185 . S
O202 Zn198 2.086 . S
C203 O199 1.278 . S
C203 O204 1.211 . S
O204 C203 1.211 . S
C205 O197 1.284 . S
C205 O206 1.273 . S
O206 C205 1.273 . S
O207 Zn198 1.977 . S
O207 C200 1.267 . S
C208 O209 1.160 . S
C208 O215 1.185 . S
O209 C208 1.160 . S
O210 Zn211 1.899 . S
O210 C218 1.284 . S
Zn211 O210 1.899 . S
Zn211 O212 2.032 . S
Zn211 O215 2.086 . S
Zn211 O220 1.977 . S
O212 Zn211 2.032 . S
O212 C216 1.278 . S
C213 O214 1.203 . S
C213 O220 1.267 . S
O214 C213 1.203 . S
O215 C208 1.185 . S
O215 Zn211 2.086 . S
C216 O212 1.278 . S
C216 O217 1.211 . S
O217 C216 1.211 . S
C218 O210 1.284 . S
C218 O219 1.273 . S
O219 C218 1.273 . S
O220 Zn211 1.977 . S
O220 C213 1.267 . S
C221 O222 1.160 . S
C221 O228 1.185 . S
O222 C221 1.160 . S
O223 Zn224 1.899 . S
O223 C231 1.284 . S
Zn224 O223 1.899 . S
Zn224 O225 2.032 . S
Zn224 O228 2.086 . S
Zn224 O233 1.977 . S
O225 Zn224 2.032 . S
O225 C229 1.278 . S
C226 O227 1.203 . S
C226 O233 1.267 . S
O227 C226 1.203 . S
O228 C221 1.185 . S
O228 Zn224 2.086 . S
C229 O225 1.278 . S
C229 O230 1.211 . S
O230 C229 1.211 . S
C231 O223 1.284 . S
C231 O232 1.273 . S
O232 C231 1.273 . S
O233 Zn224 1.977 . S
O233 C226 1.267 . S
C234 O235 1.160 . S
C234 O241 1.185 . S
O235 C234 1.160 . S
O236 Zn237 1.899 . S
O236 C244 1.284 . S
Zn237 O236 1.899 . S
Zn237 O238 2.032 . S
Zn237 O241 2.086 . S
Zn237 O246 1.977 . S
O238 Zn237 2.032 . S
O238 C242 1.278 . S
C239 O240 1.203 . S
C239 O246 1.267 . S
O240 C239 1.203 . S
O241 C234 1.185 . S
O241 Zn237 2.086 . S
C242 O238 1.278 . S
C242 O243 1.211 . S
O243 C242 1.211 . S
C244 O236 1.284 . S
C244 O245 1.273 . S
O245 C244 1.273 . S
O246 Zn237 1.977 . S
O246 C239 1.267 . S
C247 O248 1.160 . S
C247 O254 1.185 . S
O248 C247 1.160 . S
O249 Zn250 1.899 . S
O249 C257 1.284 . S
Zn250 O249 1.899 . S
Zn250 O251 2.032 . S
Zn250 O254 2.086 . S
Zn250 O259 1.977 . S
O251 Zn250 2.032 . S
O251 C255 1.278 . S
C252 O253 1.203 . S
C252 O259 1.267 . S
O253 C252 1.203 . S
O254 C247 1.185 . S
O254 Zn250 2.086 . S
C255 O251 1.278 . S
C255 O256 1.211 . S
O256 C255 1.211 . S
C257 O249 1.284 . S
C257 O258 1.273 . S
O258 C257 1.273 . S
O259 Zn250 1.977 . S
O259 C252 1.267 . S
C260 O261 1.160 . S
C260 O267 1.185 . S
O261 C260 1.160 . S
O262 Zn263 1.899 . S
O262 C270 1.284 . S
Zn263 O262 1.899 . S
Zn263 O264 2.032 1_554 S
Zn263 O267 2.086 . S
Zn263 O272 1.978 1_554 S
O264 Zn263 2.032 1_556 S
O264 C268 1.278 . S
C265 O266 1.203 . S
C265 O272 1.268 1_554 S
O266 C265 1.203 . S
O267 C260 1.185 . S
O267 Zn263 2.086 . S
C268 O264 1.278 . S
C268 O269 1.211 . S
O269 C268 1.211 . S
C270 O262 1.284 . S
C270 O271 1.273 . S
O271 C270 1.273 . S
O272 Zn263 1.978 1_556 S
O272 C265 1.268 1_556 S
C273 O274 1.160 . S
C273 O280 1.185 . S
O274 C273 1.160 . S
O275 Zn276 1.899 . S
O275 C283 1.284 . S
Zn276 O275 1.899 . S
Zn276 O277 2.032 . S
Zn276 O280 2.086 . S
Zn276 O285 1.977 . S
O277 Zn276 2.032 . S
O277 C281 1.278 . S
C278 O279 1.203 . S
C278 O285 1.267 . S
O279 C278 1.203 . S
O280 C273 1.185 . S
O280 Zn276 2.086 . S
C281 O277 1.278 . S
C281 O282 1.211 . S
O282 C281 1.211 . S
C283 O275 1.284 . S
C283 O284 1.273 . S
O284 C283 1.273 . S
O285 Zn276 1.977 . S
O285 C278 1.267 . S
C286 O287 1.160 . S
C286 O293 1.185 . S
O287 C286 1.160 . S
O288 Zn289 1.899 . S
O288 C296 1.284 . S
Zn289 O288 1.899 . S
Zn289 O290 2.032 . S
Zn289 O293 2.086 . S
Zn289 O298 1.977 . S
O290 Zn289 2.032 . S
O290 C294 1.278 . S
C291 O292 1.203 . S
C291 O298 1.267 . S
O292 C291 1.203 . S
O293 C286 1.185 . S
O293 Zn289 2.086 . S
C294 O290 1.278 . S
C294 O295 1.211 . S
O295 C294 1.211 . S
C296 O288 1.284 . S
C296 O297 1.273 . S
O297 C296 1.273 . S
O298 Zn289 1.977 . S
O298 C291 1.267 . S
C299 O300 1.160 . S
C299 O306 1.185 . S
O300 C299 1.160 . S
O301 Zn302 1.899 . S
O301 C309 1.284 . S
Zn302 O301 1.899 . S
Zn302 O303 2.032 . S
Zn302 O306 2.086 . S
Zn302 O311 1.977 . S
O303 Zn302 2.032 . S
O303 C307 1.278 . S
C304 O305 1.203 . S
C304 O311 1.267 . S
O305 C304 1.203 . S
O306 C299 1.185 . S
O306 Zn302 2.086 . S
C307 O303 1.278 . S
C307 O308 1.211 . S
O308 C307 1.211 . S
C309 O301 1.284 . S
C309 O310 1.273 . S
O310 C309 1.273 . S
O311 Zn302 1.977 . S
O311 C304 1.267 . S
Ho312 C315 2.811 1_455 S
Ho312 O332 2.322 . S
Ho312 O334 2.378 1_455 S
Ho312 O335 2.524 1_456 S
Ho312 O336 2.381 . S
Ho312 O337 2.669 . S
Ho312 O339 2.346 1_546 S
Ho312 O343 2.305 1_556 S
Ho313 C324 2.811 . S
Ho313 O333 2.346 . S
Ho313 O337 2.305 1_554 S
Ho313 O338 2.322 . S
Ho313 O340 2.378 . S
Ho313 O341 2.524 . S
Ho313 O342 2.381 . S
Ho313 O343 2.669 . S
C314 O332 1.259 1_554 S
C314 O333 1.268 . S
C315 Ho312 2.811 1_655 S
C315 C316 1.488 . S
C315 O334 1.215 . S
C315 O335 1.289 1_556 S
C316 C315 1.488 . S
C316 C317 1.348 . S
C316 C321 1.413 . S
C317 C316 1.348 . S
C317 C318 1.442 . S
C317 H344 0.930 1_556 S
C318 C317 1.442 . S
C318 C319 1.381 . S
C318 H345 0.931 1_556 S
C319 C318 1.381 . S
C319 C320 1.321 . S
C320 C319 1.321 . S
C320 C321 1.403 . S
C320 H346 0.934 . S
C321 C316 1.413 . S
C321 C320 1.403 . S
C321 H347 0.930 . S
C322 O336 1.275 . S
C322 O337 1.256 . S
C323 O338 1.259 1_565 S
C323 O339 1.268 . S
C324 Ho313 2.811 . S
C324 C325 1.488 . S
C324 O340 1.215 . S
C324 O341 1.289 . S
C325 C324 1.488 . S
C325 C326 1.348 . S
C325 C330 1.413 . S
C326 C325 1.348 . S
C326 C327 1.442 1_545 S
C326 H348 0.930 1_545 S
C327 C326 1.442 1_565 S
C327 C328 1.381 1_565 S
C327 H349 0.931 . S
C328 C327 1.381 1_545 S
C328 C329 1.322 . S
C329 C328 1.322 . S
C329 C330 1.403 . S
C329 H350 0.934 . S
C330 C325 1.413 . S
C330 C329 1.403 . S
C330 H351 0.930 . S
C331 O342 1.275 . S
C331 O343 1.256 . S
O332 Ho312 2.322 . S
O332 C314 1.259 1_556 S
O333 Ho313 2.346 . S
O333 C314 1.268 . S
O334 Ho312 2.378 1_655 S
O334 C315 1.215 . S
O335 Ho312 2.524 1_654 S
O335 C315 1.289 1_554 S
O336 Ho312 2.381 . S
O336 C322 1.275 . S
O337 Ho312 2.669 . S
O337 Ho313 2.305 1_556 S
O337 C322 1.256 . S
O338 Ho313 2.322 . S
O338 C323 1.259 1_545 S
O339 Ho312 2.346 1_564 S
O339 C323 1.268 . S
O340 Ho313 2.378 . S
O340 C324 1.215 . S
O341 Ho313 2.524 . S
O341 C324 1.289 . S
O342 Ho313 2.381 . S
O342 C331 1.275 . S
O343 Ho312 2.305 1_554 S
O343 Ho313 2.669 . S
O343 C331 1.256 . S
H344 C317 0.930 1_554 S
H345 C318 0.931 1_554 S
H346 C320 0.934 . S
H347 C321 0.930 . S
H348 C326 0.930 1_565 S
H349 C327 0.931 . S
H350 C329 0.934 . S
H351 C330 0.930 . S
Ho352 C355 2.811 . S
Ho352 O372 2.322 . S
Ho352 O374 2.378 . S
Ho352 O375 2.524 . S
Ho352 O376 2.381 . S
Ho352 O377 2.669 . S
Ho352 O379 2.346 . S
Ho352 O383 2.305 . S
Ho353 C364 2.811 . S
Ho353 O373 2.346 . S
Ho353 O377 2.305 . S
Ho353 O378 2.322 . S
Ho353 O380 2.378 . S
Ho353 O381 2.524 . S
Ho353 O382 2.381 . S
Ho353 O383 2.669 . S
C354 O372 1.259 . S
C354 O373 1.268 . S
C355 Ho352 2.811 . S
C355 C356 1.488 . S
C355 O374 1.215 . S
C355 O375 1.289 . S
C356 C355 1.488 . S
C356 C357 1.348 . S
C356 C361 1.413 . S
C357 C356 1.348 . S
C357 C358 1.442 . S
C357 H384 0.930 . S
C358 C357 1.442 . S
C358 C359 1.381 . S
C358 H385 0.931 . S
C359 C358 1.381 . S
C359 C360 1.321 . S
C360 C359 1.321 . S
C360 C361 1.403 . S
C360 H386 0.934 . S
C361 C356 1.413 . S
C361 C360 1.403 . S
C361 H387 0.930 . S
C362 O376 1.275 . S
C362 O377 1.256 . S
C363 O378 1.259 . S
C363 O379 1.268 . S
C364 Ho353 2.811 . S
C364 C365 1.488 . S
C364 O380 1.215 . S
C364 O381 1.289 . S
C365 C364 1.488 . S
C365 C366 1.348 . S
C365 C370 1.413 . S
C366 C365 1.348 . S
C366 C367 1.442 . S
C366 H388 0.930 . S
C367 C366 1.442 . S
C367 C368 1.381 . S
C367 H389 0.931 . S
C368 C367 1.381 . S
C368 C369 1.321 . S
C369 C368 1.321 . S
C369 C370 1.403 . S
C369 H390 0.934 . S
C370 C365 1.413 . S
C370 C369 1.403 . S
C370 H391 0.930 . S
C371 O382 1.275 . S
C371 O383 1.256 . S
O372 Ho352 2.322 . S
O372 C354 1.259 . S
O373 Ho353 2.346 . S
O373 C354 1.268 . S
O374 Ho352 2.378 . S
O374 C355 1.215 . S
O375 Ho352 2.524 . S
O375 C355 1.289 . S
O376 Ho352 2.381 . S
O376 C362 1.275 . S
O377 Ho352 2.669 . S
O377 Ho353 2.305 . S
O377 C362 1.256 . S
O378 Ho353 2.322 . S
O378 C363 1.259 . S
O379 Ho352 2.346 . S
O379 C363 1.268 . S
O380 Ho353 2.378 . S
O380 C364 1.215 . S
O381 Ho353 2.524 . S
O381 C364 1.289 . S
O382 Ho353 2.381 . S
O382 C371 1.275 . S
O383 Ho352 2.305 . S
O383 Ho353 2.669 . S
O383 C371 1.256 . S
H384 C357 0.930 . S
H385 C358 0.931 . S
H386 C360 0.934 . S
H387 C361 0.930 . S
H388 C366 0.930 . S
H389 C367 0.931 . S
H390 C369 0.934 . S
H391 C370 0.930 . S
Ho392 C395 2.811 . S
Ho392 O412 2.322 . S
Ho392 O414 2.378 . S
Ho392 O415 2.524 . S
Ho392 O416 2.381 . S
Ho392 O417 2.669 . S
Ho392 O419 2.346 . S
Ho392 O423 2.305 . S
Ho393 C404 2.811 . S
Ho393 O413 2.287 1_545 S
Ho393 O417 2.305 . S
Ho393 O418 2.322 . S
Ho393 O420 2.378 . S
Ho393 O421 2.524 . S
Ho393 O422 2.381 . S
Ho393 O423 2.669 . S
C394 O412 1.259 1_565 S
C394 O413 1.293 . S
C395 Ho392 2.811 . S
C395 C396 1.488 . S
C395 O414 1.215 . S
C395 O415 1.289 . S
C396 C395 1.488 . S
C396 C397 1.348 1_545 S
C396 C401 1.414 . S
C397 C396 1.348 1_565 S
C397 C398 1.442 . S
C397 H424 0.930 . S
C398 C397 1.442 . S
C398 C399 1.381 . S
C398 H425 0.931 . S
C399 C398 1.381 . S
C399 C400 1.321 . S
C400 C399 1.321 . S
C400 C401 1.390 1_565 S
C400 H426 0.934 . S
C401 C396 1.414 . S
C401 C400 1.390 1_545 S
C401 H427 0.942 . S
C402 O416 1.275 . S
C402 O417 1.256 . S
C403 O418 1.259 . S
C403 O419 1.268 . S
C404 Ho393 2.811 . S
C404 C405 1.488 . S
C404 O420 1.215 . S
C404 O421 1.289 . S
C405 C404 1.488 . S
C405 C406 1.348 . S
C405 C410 1.413 . S
C406 C405 1.348 . S
C406 C407 1.442 . S
C406 H428 0.930 . S
C407 C406 1.442 . S
C407 C408 1.381 . S
C407 H429 0.931 . S
C408 C407 1.381 . S
C408 C409 1.321 . S
C409 C408 1.321 . S
C409 C410 1.403 . S
C409 H430 0.934 . S
C410 C405 1.413 . S
C410 C409 1.403 . S
C410 H431 0.930 . S
C411 O422 1.275 . S
C411 O423 1.256 . S
O412 Ho392 2.322 . S
O412 C394 1.259 1_545 S
O413 Ho393 2.287 1_565 S
O413 C394 1.293 . S
O414 Ho392 2.378 . S
O414 C395 1.215 . S
O415 Ho392 2.524 . S
O415 C395 1.289 . S
O416 Ho392 2.381 . S
O416 C402 1.275 . S
O417 Ho392 2.669 . S
O417 Ho393 2.305 . S
O417 C402 1.256 . S
O418 Ho393 2.322 . S
O418 C403 1.259 . S
O419 Ho392 2.346 . S
O419 C403 1.268 . S
O420 Ho393 2.378 . S
O420 C404 1.215 . S
O421 Ho393 2.524 . S
O421 C404 1.289 . S
O422 Ho393 2.381 . S
O422 C411 1.275 . S
O423 Ho392 2.305 . S
O423 Ho393 2.669 . S
O423 C411 1.256 . S
H424 C397 0.930 . S
H425 C398 0.931 . S
H426 C400 0.934 . S
H427 C401 0.942 . S
H428 C406 0.930 . S
H429 C407 0.931 . S
H430 C409 0.934 . S
H431 C410 0.930 . S
Ho432 C435 2.811 . S
Ho432 O452 2.322 . S
Ho432 O454 2.378 . S
Ho432 O455 2.524 . S
Ho432 O456 2.381 . S
Ho432 O457 2.669 . S
Ho432 O459 2.346 . S
Ho432 O463 2.305 . S
Ho433 C444 2.811 . S
Ho433 O453 2.346 . S
Ho433 O457 2.305 . S
Ho433 O458 2.322 . S
Ho433 O460 2.378 . S
Ho433 O461 2.524 . S
Ho433 O462 2.381 . S
Ho433 O463 2.669 . S
C434 O452 1.259 . S
C434 O453 1.268 . S
C435 Ho432 2.811 . S
C435 C436 1.488 . S
C435 O454 1.215 . S
C435 O455 1.289 . S
C436 C435 1.488 . S
C436 C437 1.348 . S
C436 C441 1.413 . S
C437 C436 1.348 . S
C437 C438 1.442 . S
C437 H464 0.930 . S
C438 C437 1.442 . S
C438 C439 1.381 . S
C438 H465 0.931 . S
C439 C438 1.381 . S
C439 C440 1.321 . S
C440 C439 1.321 . S
C440 C441 1.403 . S
C440 H466 0.934 . S
C441 C436 1.413 . S
C441 C440 1.403 . S
C441 H467 0.930 . S
C442 O456 1.275 . S
C442 O457 1.256 . S
C443 O458 1.259 . S
C443 O459 1.268 . S
C444 Ho433 2.811 . S
C444 C445 1.488 . S
C444 O460 1.215 . S
C444 O461 1.289 . S
C445 C444 1.488 . S
C445 C446 1.348 . S
C445 C450 1.413 . S
C446 C445 1.348 . S
C446 C447 1.442 . S
C446 H468 0.930 . S
C447 C446 1.442 . S
C447 C448 1.381 . S
C447 H469 0.931 . S
C448 C447 1.381 . S
C448 C449 1.321 . S
C449 C448 1.321 . S
C449 C450 1.403 . S
C449 H470 0.934 . S
C450 C445 1.413 . S
C450 C449 1.403 . S
C450 H471 0.930 . S
C451 O462 1.275 . S
C451 O463 1.256 . S
O452 Ho432 2.322 . S
O452 C434 1.259 . S
O453 Ho433 2.346 . S
O453 C434 1.268 . S
O454 Ho432 2.378 . S
O454 C435 1.215 . S
O455 Ho432 2.524 . S
O455 C435 1.289 . S
O456 Ho432 2.381 . S
O456 C442 1.275 . S
O457 Ho432 2.669 . S
O457 Ho433 2.305 . S
O457 C442 1.256 . S
O458 Ho433 2.322 . S
O458 C443 1.259 . S
O459 Ho432 2.346 . S
O459 C443 1.268 . S
O460 Ho433 2.378 . S
O460 C444 1.215 . S
O461 Ho433 2.524 . S
O461 C444 1.289 . S
O462 Ho433 2.381 . S
O462 C451 1.275 . S
O463 Ho432 2.305 . S
O463 Ho433 2.669 . S
O463 C451 1.256 . S
H464 C437 0.930 . S
H465 C438 0.931 . S
H466 C440 0.934 . S
H467 C441 0.930 . S
H468 C446 0.930 . S
H469 C447 0.931 . S
H470 C449 0.934 . S
H471 C450 0.930 . S
Ho472 C475 2.811 . S
Ho472 O492 2.322 . S
Ho472 O494 2.378 . S
Ho472 O495 2.524 . S
Ho472 O496 2.381 . S
Ho472 O497 2.669 . S
Ho472 O499 2.346 . S
Ho472 O503 2.305 . S
Ho473 C484 2.811 1_545 S
Ho473 O493 2.346 . S
Ho473 O497 2.305 . S
Ho473 O498 2.322 . S
Ho473 O500 2.378 1_545 S
Ho473 O501 2.524 1_545 S
Ho473 O502 2.381 . S
Ho473 O503 2.669 . S
C474 O492 1.259 . S
C474 O493 1.268 . S
C475 Ho472 2.811 . S
C475 C476 1.488 . S
C475 O494 1.215 . S
C475 O495 1.289 . S
C476 C475 1.488 . S
C476 C477 1.348 . S
C476 C481 1.413 . S
C477 C476 1.348 . S
C477 C478 1.442 . S
C477 H504 0.930 . S
C478 C477 1.442 . S
C478 C479 1.381 . S
C478 H505 0.931 . S
C479 C478 1.381 . S
C479 C480 1.321 . S
C480 C479 1.321 . S
C480 C481 1.403 . S
C480 H506 0.940 . S
C481 C476 1.413 . S
C481 C480 1.403 . S
C481 H507 0.930 . S
C482 O496 1.275 . S
C482 O497 1.256 . S
C483 O498 1.259 . S
C483 O499 1.268 . S
C484 Ho473 2.811 1_565 S
C484 C485 1.488 . S
C484 O500 1.215 . S
C484 O501 1.289 . S
C485 C484 1.488 . S
C485 C486 1.348 . S
C485 C490 1.413 . S
C486 C485 1.348 . S
C486 C487 1.442 . S
C486 H508 0.930 . S
C487 C486 1.442 . S
C487 C488 1.381 . S
C487 H509 0.931 . S
C488 C487 1.381 . S
C488 C489 1.321 . S
C489 C488 1.321 . S
C489 C490 1.403 . S
C489 H510 0.934 . S
C490 C485 1.413 . S
C490 C489 1.403 . S
C490 H511 0.930 . S
C491 O502 1.275 . S
C491 O503 1.256 . S
O492 Ho472 2.322 . S
O492 C474 1.259 . S
O493 Ho473 2.346 . S
O493 C474 1.268 . S
O494 Ho472 2.378 . S
O494 C475 1.215 . S
O495 Ho472 2.524 . S
O495 C475 1.289 . S
O496 Ho472 2.381 . S
O496 C482 1.275 . S
O497 Ho472 2.669 . S
O497 Ho473 2.305 . S
O497 C482 1.256 . S
O498 Ho473 2.322 . S
O498 C483 1.259 . S
O499 Ho472 2.346 . S
O499 C483 1.268 . S
O500 Ho473 2.378 1_565 S
O500 C484 1.215 . S
O501 Ho473 2.524 1_565 S
O501 C484 1.289 . S
O502 Ho473 2.381 . S
O502 C491 1.275 . S
O503 Ho472 2.305 . S
O503 Ho473 2.669 . S
O503 C491 1.256 . S
H504 C477 0.930 . S
H505 C478 0.931 . S
H506 C480 0.940 . S
H507 C481 0.930 . S
H508 C486 0.930 . S
H509 C487 0.931 . S
H510 C489 0.934 . S
H511 C490 0.930 . S
Ho512 C515 2.811 . S
Ho512 O532 2.322 . S
Ho512 O534 2.378 . S
Ho512 O535 2.524 . S
Ho512 O536 2.381 . S
Ho512 O537 2.669 . S
Ho512 O539 2.346 . S
Ho512 O543 2.305 . S
Ho513 C524 2.811 . S
Ho513 O533 2.346 . S
Ho513 O537 2.305 . S
Ho513 O538 2.322 . S
Ho513 O540 2.378 . S
Ho513 O541 2.524 . S
Ho513 O542 2.381 . S
Ho513 O543 2.669 . S
C514 O532 1.259 . S
C514 O533 1.268 . S
C515 Ho512 2.811 . S
C515 C516 1.488 . S
C515 O534 1.215 . S
C515 O535 1.289 . S
C516 C515 1.488 . S
C516 C517 1.348 . S
C516 C521 1.413 . S
C517 C516 1.348 . S
C517 C518 1.442 . S
C517 H544 0.930 . S
C518 C517 1.442 . S
C518 C519 1.381 . S
C518 H545 0.931 . S
C519 C518 1.381 . S
C519 C520 1.321 . S
C520 C519 1.321 . S
C520 C521 1.403 . S
C520 H546 0.934 . S
C521 C516 1.413 . S
C521 C520 1.403 . S
C521 H547 0.930 . S
C522 O536 1.275 . S
C522 O537 1.256 . S
C523 O538 1.259 . S
C523 O539 1.268 . S
C524 Ho513 2.811 . S
C524 C525 1.488 . S
C524 O540 1.215 . S
C524 O541 1.289 . S
C525 C524 1.488 . S
C525 C526 1.348 . S
C525 C530 1.413 . S
C526 C525 1.348 . S
C526 C527 1.442 . S
C526 H548 0.930 . S
C527 C526 1.442 . S
C527 C528 1.381 . S
C527 H549 0.931 . S
C528 C527 1.381 . S
C528 C529 1.321 . S
C529 C528 1.321 . S
C529 C530 1.403 . S
C529 H550 0.934 . S
C530 C525 1.413 . S
C530 C529 1.403 . S
C530 H551 0.930 . S
C531 O542 1.275 . S
C531 O543 1.256 . S
O532 Ho512 2.322 . S
O532 C514 1.259 . S
O533 Ho513 2.346 . S
O533 C514 1.268 . S
O534 Ho512 2.378 . S
O534 C515 1.215 . S
O535 Ho512 2.524 . S
O535 C515 1.289 . S
O536 Ho512 2.381 . S
O536 C522 1.275 . S
O537 Ho512 2.669 . S
O537 Ho513 2.305 . S
O537 C522 1.256 . S
O538 Ho513 2.322 . S
O538 C523 1.259 . S
O539 Ho512 2.346 . S
O539 C523 1.268 . S
O540 Ho513 2.378 . S
O540 C524 1.215 . S
O541 Ho513 2.524 . S
O541 C524 1.289 . S
O542 Ho513 2.381 . S
O542 C531 1.275 . S
O543 Ho512 2.305 . S
O543 Ho513 2.669 . S
O543 C531 1.256 . S
H544 C517 0.930 . S
H545 C518 0.931 . S
H546 C520 0.934 . S
H547 C521 0.930 . S
H548 C526 0.930 . S
H549 C527 0.931 . S
H550 C529 0.934 . S
H551 C530 0.930 . S
Ho552 C555 2.811 . S
Ho552 O572 2.322 . S
Ho552 O574 2.414 . S
Ho552 O575 2.524 . S
Ho552 O576 2.381 1_545 S
Ho552 O577 2.730 . S
Ho552 O579 2.346 . S
Ho552 O583 2.305 . S
Ho553 C564 2.811 . S
Ho553 O573 2.346 . S
Ho553 O577 2.274 1_556 S
Ho553 O578 2.322 1_556 S
Ho553 O580 2.378 . S
Ho553 O581 2.524 . S
Ho553 O582 2.381 1_556 S
Ho553 O583 2.669 1_556 S
C554 O572 1.259 . S
C554 O573 1.268 1_554 S
C555 Ho552 2.811 . S
C555 C556 1.488 . S
C555 O574 1.255 . S
C555 O575 1.289 . S
C556 C555 1.488 . S
C556 C557 1.348 . S
C556 C561 1.413 1_545 S
C557 C556 1.348 . S
C557 C558 1.442 . S
C557 H584 0.930 . S
C558 C557 1.442 . S
C558 C559 1.381 1_545 S
C558 H585 0.931 . S
C559 C558 1.381 1_565 S
C559 C560 1.321 . S
C560 C559 1.321 . S
C560 C561 1.403 . S
C560 H586 0.934 . S
C561 C556 1.413 1_565 S
C561 C560 1.403 . S
C561 H587 0.930 . S
C562 O576 1.275 . S
C562 O577 1.278 1_565 S
C563 O578 1.259 . S
C563 O579 1.268 . S
C564 Ho553 2.811 . S
C564 C565 1.488 . S
C564 O580 1.215 . S
C564 O581 1.289 . S
C565 C564 1.488 . S
C565 C566 1.348 . S
C565 C570 1.413 . S
C566 C565 1.348 . S
C566 C567 1.442 . S
C566 H588 0.930 . S
C567 C566 1.442 . S
C567 C568 1.381 . S
C567 H589 0.931 . S
C568 C567 1.381 . S
C568 C569 1.321 . S
C569 C568 1.321 . S
C569 C570 1.403 . S
C569 H590 0.934 . S
C570 C565 1.413 . S
C570 C569 1.403 . S
C570 H591 0.930 . S
C571 O582 1.275 . S
C571 O583 1.256 . S
O572 Ho552 2.322 . S
O572 C554 1.259 . S
O573 Ho553 2.346 . S
O573 C554 1.268 1_556 S
O574 Ho552 2.414 . S
O574 C555 1.255 . S
O575 Ho552 2.524 . S
O575 C555 1.289 . S
O576 Ho552 2.381 1_565 S
O576 C562 1.275 . S
O577 Ho552 2.730 . S
O577 Ho553 2.274 1_554 S
O577 C562 1.278 1_545 S
O578 Ho553 2.322 1_554 S
O578 C563 1.259 . S
O579 Ho552 2.346 . S
O579 C563 1.268 . S
O580 Ho553 2.378 . S
O580 C564 1.215 . S
O581 Ho553 2.524 . S
O581 C564 1.289 . S
O582 Ho553 2.381 1_554 S
O582 C571 1.275 . S
O583 Ho552 2.305 . S
O583 Ho553 2.669 1_554 S
O583 C571 1.256 . S
H584 C557 0.930 . S
H585 C558 0.931 . S
H586 C560 0.934 . S
H587 C561 0.930 . S
H588 C566 0.930 . S
H589 C567 0.931 . S
H590 C569 0.934 . S
H591 C570 0.930 . S
Ho592 C595 2.811 . S
Ho592 O612 2.322 . S
Ho592 O614 2.378 . S
Ho592 O615 2.524 . S
Ho592 O616 2.381 . S
Ho592 O617 2.669 . S
Ho592 O619 2.346 . S
Ho592 O623 2.305 . S
Ho593 C604 2.811 . S
Ho593 O613 2.346 . S
Ho593 O617 2.305 . S
Ho593 O618 2.322 . S
Ho593 O620 2.378 . S
Ho593 O621 2.524 . S
Ho593 O622 2.381 . S
Ho593 O623 2.669 . S
C594 O612 1.259 . S
C594 O613 1.268 . S
C595 Ho592 2.811 . S
C595 C596 1.488 . S
C595 O614 1.215 . S
C595 O615 1.289 . S
C596 C595 1.488 . S
C596 C597 1.348 . S
C596 C601 1.413 . S
C597 C596 1.348 . S
C597 C598 1.442 . S
C597 H624 0.930 . S
C598 C597 1.442 . S
C598 C599 1.381 . S
C598 H625 0.931 . S
C599 C598 1.381 . S
C599 C600 1.321 . S
C600 C599 1.321 . S
C600 C601 1.403 . S
C600 H626 0.934 . S
C601 C596 1.413 . S
C601 C600 1.403 . S
C601 H627 0.930 . S
C602 O616 1.275 . S
C602 O617 1.256 . S
C603 O618 1.259 . S
C603 O619 1.268 . S
C604 Ho593 2.811 . S
C604 C605 1.488 . S
C604 O620 1.215 . S
C604 O621 1.289 . S
C605 C604 1.488 . S
C605 C606 1.348 . S
C605 C610 1.413 . S
C606 C605 1.348 . S
C606 C607 1.442 . S
C606 H628 0.930 . S
C607 C606 1.442 . S
C607 C608 1.381 . S
C607 H629 0.931 . S
C608 C607 1.381 . S
C608 C609 1.321 . S
C609 C608 1.321 . S
C609 C610 1.403 . S
C609 H630 0.934 . S
C610 C605 1.413 . S
C610 C609 1.403 . S
C610 H631 0.930 . S
C611 O622 1.275 . S
C611 O623 1.256 . S
O612 Ho592 2.322 . S
O612 C594 1.259 . S
O613 Ho593 2.346 . S
O613 C594 1.268 . S
O614 Ho592 2.378 . S
O614 C595 1.215 . S
O615 Ho592 2.524 . S
O615 C595 1.289 . S
O616 Ho592 2.381 . S
O616 C602 1.275 . S
O617 Ho592 2.669 . S
O617 Ho593 2.305 . S
O617 C602 1.256 . S
O618 Ho593 2.322 . S
O618 C603 1.259 . S
O619 Ho592 2.346 . S
O619 C603 1.268 . S
O620 Ho593 2.378 . S
O620 C604 1.215 . S
O621 Ho593 2.524 . S
O621 C604 1.289 . S
O622 Ho593 2.381 . S
O622 C611 1.275 . S
O623 Ho592 2.305 . S
O623 Ho593 2.669 . S
O623 C611 1.256 . S
H624 C597 0.930 . S
H625 C598 0.931 . S
H626 C600 0.934 . S
H627 C601 0.930 . S
H628 C606 0.930 . S
H629 C607 0.931 . S
H630 C609 0.934 . S
H631 C610 0.930 . S
Ho632 C635 2.811 . S
Ho632 O652 2.322 1_554 S
Ho632 O654 2.378 . S
Ho632 O655 2.524 . S
Ho632 O656 2.381 . S
Ho632 O657 2.669 . S
Ho632 O659 2.346 . S
Ho632 O663 2.305 . S
Ho633 C644 2.811 . S
Ho633 O653 2.346 1_554 S
Ho633 O657 2.305 . S
Ho633 O658 2.322 . S
Ho633 O660 2.378 . S
Ho633 O661 2.524 . S
Ho633 O662 2.381 . S
Ho633 O663 2.669 . S
C634 O652 1.259 . S
C634 O653 1.268 . S
C635 Ho632 2.811 . S
C635 C636 1.488 1_554 S
C635 O654 1.215 . S
C635 O655 1.289 . S
C636 C635 1.488 1_556 S
C636 C637 1.348 . S
C636 C641 1.413 . S
C637 C636 1.348 . S
C637 C638 1.442 . S
C637 H664 0.930 . S
C638 C637 1.442 . S
C638 C639 1.381 . S
C638 H665 0.931 . S
C639 C638 1.381 . S
C639 C640 1.321 . S
C640 C639 1.321 . S
C640 C641 1.403 . S
C640 H666 0.934 . S
C641 C636 1.413 . S
C641 C640 1.403 . S
C641 H667 0.894 1_556 S
C642 O656 1.275 . S
C642 O657 1.256 . S
C643 O658 1.259 . S
C643 O659 1.268 . S
C644 Ho633 2.811 . S
C644 C645 1.488 . S
C644 O660 1.215 . S
C644 O661 1.289 . S
C645 C644 1.488 . S
C645 C646 1.348 . S
C645 C650 1.413 . S
C646 C645 1.348 . S
C646 C647 1.442 . S
C646 H668 0.930 . S
C647 C646 1.442 . S
C647 C648 1.381 . S
C647 H669 0.931 . S
C648 C647 1.381 . S
C648 C649 1.321 . S
C649 C648 1.321 . S
C649 C650 1.403 . S
C649 H670 0.934 . S
C650 C645 1.413 . S
C650 C649 1.403 . S
C650 H671 0.930 . S
C651 O662 1.275 . S
C651 O663 1.256 . S
O652 Ho632 2.322 1_556 S
O652 C634 1.259 . S
O653 Ho633 2.346 1_556 S
O653 C634 1.268 . S
O654 Ho632 2.378 . S
O654 C635 1.215 . S
O655 Ho632 2.524 . S
O655 C635 1.289 . S
O656 Ho632 2.381 . S
O656 C642 1.275 . S
O657 Ho632 2.669 . S
O657 Ho633 2.305 . S
O657 C642 1.256 . S
O658 Ho633 2.322 . S
O658 C643 1.259 . S
O659 Ho632 2.346 . S
O659 C643 1.268 . S
O660 Ho633 2.378 . S
O660 C644 1.215 . S
O661 Ho633 2.524 . S
O661 C644 1.289 . S
O662 Ho633 2.381 . S
O662 C651 1.275 . S
O663 Ho632 2.305 . S
O663 Ho633 2.669 . S
O663 C651 1.256 . S
H664 C637 0.930 . S
H665 C638 0.931 . S
H666 C640 0.934 . S
H667 C641 0.894 1_554 S
H668 C646 0.930 . S
H669 C647 0.931 . S
H670 C649 0.934 . S
H671 C650 0.930 . S
Ho672 C675 2.811 . S
Ho672 O692 2.322 . S
Ho672 O694 2.378 . S
Ho672 O695 2.524 . S
Ho672 O696 2.381 . S
Ho672 O697 2.669 . S
Ho672 O699 2.346 . S
Ho672 O703 2.305 . S
Ho673 C684 2.811 . S
Ho673 O693 2.346 . S
Ho673 O697 2.305 . S
Ho673 O698 2.322 . S
Ho673 O700 2.378 . S
Ho673 O701 2.524 . S
Ho673 O702 2.381 . S
Ho673 O703 2.669 . S
C674 O692 1.259 . S
C674 O693 1.268 . S
C675 Ho672 2.811 . S
C675 C676 1.488 . S
C675 O694 1.215 . S
C675 O695 1.289 . S
C676 C675 1.488 . S
C676 C677 1.348 . S
C676 C681 1.413 . S
C677 C676 1.348 . S
C677 C678 1.442 . S
C677 H704 0.930 . S
C678 C677 1.442 . S
C678 C679 1.381 . S
C678 H705 0.931 . S
C679 C678 1.381 . S
C679 C680 1.321 . S
C680 C679 1.321 . S
C680 C681 1.403 . S
C680 H706 0.934 . S
C681 C676 1.413 . S
C681 C680 1.403 . S
C681 H707 0.930 . S
C682 O696 1.275 . S
C682 O697 1.256 . S
C683 O698 1.259 . S
C683 O699 1.268 . S
C684 Ho673 2.811 . S
C684 C685 1.488 . S
C684 O700 1.215 . S
C684 O701 1.289 . S
C685 C684 1.488 . S
C685 C686 1.348 . S
C685 C690 1.413 . S
C686 C685 1.348 . S
C686 C687 1.442 . S
C686 H708 0.930 . S
C687 C686 1.442 . S
C687 C688 1.381 . S
C687 H709 0.931 . S
C688 C687 1.381 . S
C688 C689 1.321 . S
C689 C688 1.321 . S
C689 C690 1.403 . S
C689 H710 0.934 . S
C690 C685 1.413 . S
C690 C689 1.403 . S
C690 H711 0.930 . S
C691 O702 1.275 . S
C691 O703 1.256 . S
O692 Ho672 2.322 . S
O692 C674 1.259 . S
O693 Ho673 2.346 . S
O693 C674 1.268 . S
O694 Ho672 2.378 . S
O694 C675 1.215 . S
O695 Ho672 2.524 . S
O695 C675 1.289 . S
O696 Ho672 2.381 . S
O696 C682 1.275 . S
O697 Ho672 2.669 . S
O697 Ho673 2.305 . S
O697 C682 1.256 . S
O698 Ho673 2.322 . S
O698 C683 1.259 . S
O699 Ho672 2.346 . S
O699 C683 1.268 . S
O700 Ho673 2.378 . S
O700 C684 1.215 . S
O701 Ho673 2.524 . S
O701 C684 1.289 . S
O702 Ho673 2.381 . S
O702 C691 1.275 . S
O703 Ho672 2.305 . S
O703 Ho673 2.669 . S
O703 C691 1.256 . S
H704 C677 0.930 . S
H705 C678 0.931 . S
H706 C680 0.934 . S
H707 C681 0.930 . S
H708 C686 0.930 . S
H709 C687 0.931 . S
H710 C689 0.934 . S
H711 C690 0.930 . S
Ho712 C715 2.811 . S
Ho712 O732 2.322 . S
Ho712 O734 2.378 . S
Ho712 O735 2.524 . S
Ho712 O736 2.381 . S
Ho712 O737 2.669 . S
Ho712 O739 2.346 . S
Ho712 O743 2.305 . S
Ho713 C724 2.811 . S
Ho713 O733 2.346 . S
Ho713 O737 2.305 . S
Ho713 O738 2.322 . S
Ho713 O740 2.378 . S
Ho713 O741 2.524 . S
Ho713 O742 2.381 . S
Ho713 O743 2.669 . S
C714 O732 1.259 . S
C714 O733 1.268 . S
C715 Ho712 2.811 . S
C715 C716 1.488 . S
C715 O734 1.215 . S
C715 O735 1.289 . S
C716 C715 1.488 . S
C716 C717 1.348 . S
C716 C721 1.413 . S
C717 C716 1.348 . S
C717 C718 1.442 1_455 S
C717 H744 0.949 . S
C718 C717 1.442 1_655 S
C718 C719 1.381 . S
C718 H745 0.931 . S
C719 C718 1.381 . S
C719 C720 1.321 1_655 S
C720 C719 1.321 1_455 S
C720 C721 1.403 . S
C720 H746 0.934 . S
C721 C716 1.413 . S
C721 C720 1.403 . S
C721 H747 0.930 . S
C722 O736 1.275 . S
C722 O737 1.256 . S
C723 O738 1.259 . S
C723 O739 1.268 . S
C724 Ho713 2.811 . S
C724 C725 1.488 . S
C724 O740 1.215 . S
C724 O741 1.289 . S
C725 C724 1.488 . S
C725 C726 1.348 . S
C725 C730 1.413 . S
C726 C725 1.348 . S
C726 C727 1.442 . S
C726 H748 0.930 . S
C727 C726 1.442 . S
C727 C728 1.381 . S
C727 H749 0.931 . S
C728 C727 1.381 . S
C728 C729 1.321 . S
C729 C728 1.321 . S
C729 C730 1.403 . S
C729 H750 0.934 . S
C730 C725 1.413 . S
C730 C729 1.403 . S
C730 H751 0.930 . S
C731 O742 1.275 . S
C731 O743 1.256 . S
O732 Ho712 2.322 . S
O732 C714 1.259 . S
O733 Ho713 2.346 . S
O733 C714 1.268 . S
O734 Ho712 2.378 . S
O734 C715 1.215 . S
O735 Ho712 2.524 . S
O735 C715 1.289 . S
O736 Ho712 2.381 . S
O736 C722 1.275 . S
O737 Ho712 2.669 . S
O737 Ho713 2.305 . S
O737 C722 1.256 . S
O738 Ho713 2.322 . S
O738 C723 1.259 . S
O739 Ho712 2.346 . S
O739 C723 1.268 . S
O740 Ho713 2.378 . S
O740 C724 1.215 . S
O741 Ho713 2.524 . S
O741 C724 1.289 . S
O742 Ho713 2.381 . S
O742 C731 1.275 . S
O743 Ho712 2.305 . S
O743 Ho713 2.669 . S
O743 C731 1.256 . S
H744 C717 0.949 . S
H745 C718 0.931 . S
H746 C720 0.934 . S
H747 C721 0.930 . S
H748 C726 0.930 . S
H749 C727 0.931 . S
H750 C729 0.934 . S
H751 C730 0.930 . S
Ho752 C755 2.811 . S
Ho752 O772 2.322 . S
Ho752 O774 2.378 . S
Ho752 O775 2.524 . S
Ho752 O776 2.381 . S
Ho752 O777 2.669 . S
Ho752 O779 2.346 . S
Ho752 O783 2.305 . S
Ho753 C764 2.811 . S
Ho753 O773 2.346 . S
Ho753 O777 2.305 . S
Ho753 O778 2.322 . S
Ho753 O780 2.378 . S
Ho753 O781 2.524 . S
Ho753 O782 2.381 . S
Ho753 O783 2.669 . S
C754 O772 1.259 . S
C754 O773 1.268 . S
C755 Ho752 2.811 . S
C755 C756 1.488 . S
C755 O774 1.215 . S
C755 O775 1.289 . S
C756 C755 1.488 . S
C756 C757 1.348 . S
C756 C761 1.413 . S
C757 C756 1.348 . S
C757 C758 1.442 . S
C757 H784 0.930 . S
C758 C757 1.442 . S
C758 C759 1.381 . S
C758 H785 0.931 . S
C759 C758 1.381 . S
C759 C760 1.321 . S
C760 C759 1.321 . S
C760 C761 1.403 . S
C760 H786 0.934 . S
C761 C756 1.413 . S
C761 C760 1.403 . S
C761 H787 0.930 . S
C762 O776 1.275 . S
C762 O777 1.256 . S
C763 O778 1.259 . S
C763 O779 1.268 . S
C764 Ho753 2.811 . S
C764 C765 1.488 . S
C764 O780 1.215 . S
C764 O781 1.289 . S
C765 C764 1.488 . S
C765 C766 1.348 . S
C765 C770 1.413 . S
C766 C765 1.348 . S
C766 C767 1.442 . S
C766 H788 0.930 . S
C767 C766 1.442 . S
C767 C768 1.381 . S
C767 H789 0.931 . S
C768 C767 1.381 . S
C768 C769 1.321 . S
C769 C768 1.321 . S
C769 C770 1.403 . S
C769 H790 0.934 . S
C770 C765 1.413 . S
C770 C769 1.403 . S
C770 H791 0.930 . S
C771 O782 1.275 . S
C771 O783 1.256 . S
O772 Ho752 2.322 . S
O772 C754 1.259 . S
O773 Ho753 2.346 . S
O773 C754 1.268 . S
O774 Ho752 2.378 . S
O774 C755 1.215 . S
O775 Ho752 2.524 . S
O775 C755 1.289 . S
O776 Ho752 2.381 . S
O776 C762 1.275 . S
O777 Ho752 2.669 . S
O777 Ho753 2.305 . S
O777 C762 1.256 . S
O778 Ho753 2.322 . S
O778 C763 1.259 . S
O779 Ho752 2.346 . S
O779 C763 1.268 . S
O780 Ho753 2.378 . S
O780 C764 1.215 . S
O781 Ho753 2.524 . S
O781 C764 1.289 . S
O782 Ho753 2.381 . S
O782 C771 1.275 . S
O783 Ho752 2.305 . S
O783 Ho753 2.669 . S
O783 C771 1.256 . S
H784 C757 0.930 . S
H785 C758 0.931 . S
H786 C760 0.934 . S
H787 C761 0.930 . S
H788 C766 0.930 . S
H789 C767 0.931 . S
H790 C769 0.934 . S
H791 C770 0.930 . S
Ho792 C795 2.811 . S
Ho792 O812 2.322 . S
Ho792 O814 2.378 . S
Ho792 O815 2.524 . S
Ho792 O816 2.381 . S
Ho792 O817 2.669 . S
Ho792 O819 2.346 . S
Ho792 O823 2.305 . S
Ho793 C804 2.811 . S
Ho793 O813 2.346 . S
Ho793 O817 2.305 . S
Ho793 O818 2.322 . S
Ho793 O820 2.378 . S
Ho793 O821 2.524 . S
Ho793 O822 2.381 . S
Ho793 O823 2.669 . S
C794 O812 1.259 . S
C794 O813 1.268 . S
C795 Ho792 2.811 . S
C795 C796 1.488 . S
C795 O814 1.215 . S
C795 O815 1.289 . S
C796 C795 1.488 . S
C796 C797 1.348 . S
C796 C801 1.413 . S
C797 C796 1.348 . S
C797 C798 1.442 . S
C797 H824 0.930 . S
C798 C797 1.442 . S
C798 C799 1.381 . S
C798 H825 0.931 . S
C799 C798 1.381 . S
C799 C800 1.321 . S
C800 C799 1.321 . S
C800 C801 1.403 . S
C800 H826 0.934 . S
C801 C796 1.413 . S
C801 C800 1.403 . S
C801 H827 0.930 . S
C802 O816 1.275 . S
C802 O817 1.256 . S
C803 O818 1.259 . S
C803 O819 1.268 . S
C804 Ho793 2.811 . S
C804 C805 1.488 . S
C804 O820 1.215 . S
C804 O821 1.289 . S
C805 C804 1.488 . S
C805 C806 1.348 . S
C805 C810 1.413 . S
C806 C805 1.348 . S
C806 C807 1.442 . S
C806 H828 0.930 . S
C807 C806 1.442 . S
C807 C808 1.381 . S
C807 H829 0.931 . S
C808 C807 1.381 . S
C808 C809 1.321 . S
C809 C808 1.321 . S
C809 C810 1.403 . S
C809 H830 0.934 . S
C810 C805 1.413 . S
C810 C809 1.403 . S
C810 H831 0.930 . S
C811 O822 1.275 . S
C811 O823 1.256 . S
O812 Ho792 2.322 . S
O812 C794 1.259 . S
O813 Ho793 2.346 . S
O813 C794 1.268 . S
O814 Ho792 2.378 . S
O814 C795 1.215 . S
O815 Ho792 2.524 . S
O815 C795 1.289 . S
O816 Ho792 2.381 . S
O816 C802 1.275 . S
O817 Ho792 2.669 . S
O817 Ho793 2.305 . S
O817 C802 1.256 . S
O818 Ho793 2.322 . S
O818 C803 1.259 . S
O819 Ho792 2.346 . S
O819 C803 1.268 . S
O820 Ho793 2.378 . S
O820 C804 1.215 . S
O821 Ho793 2.524 . S
O821 C804 1.289 . S
O822 Ho793 2.381 . S
O822 C811 1.275 . S
O823 Ho792 2.305 . S
O823 Ho793 2.669 . S
O823 C811 1.256 . S
H824 C797 0.930 . S
H825 C798 0.931 . S
H826 C800 0.934 . S
H827 C801 0.930 . S
H828 C806 0.930 . S
H829 C807 0.931 . S
H830 C809 0.934 . S
H831 C810 0.930 . S
Ho832 C835 2.811 . S
Ho832 O852 2.322 . S
Ho832 O854 2.378 . S
Ho832 O855 2.524 . S
Ho832 O856 2.381 . S
Ho832 O857 2.669 . S
Ho832 O859 2.346 . S
Ho832 O863 2.305 . S
Ho833 C844 2.811 . S
Ho833 O853 2.346 . S
Ho833 O857 2.305 . S
Ho833 O858 2.322 . S
Ho833 O860 2.378 . S
Ho833 O861 2.524 . S
Ho833 O862 2.381 . S
Ho833 O863 2.669 . S
C834 O852 1.259 . S
C834 O853 1.268 . S
C835 Ho832 2.811 . S
C835 C836 1.488 . S
C835 O854 1.215 . S
C835 O855 1.289 . S
C836 C835 1.488 . S
C836 C837 1.348 . S
C836 C841 1.413 . S
C837 C836 1.348 . S
C837 C838 1.442 . S
C837 H864 0.930 . S
C838 C837 1.442 . S
C838 C839 1.381 . S
C838 H865 0.931 . S
C839 C838 1.381 . S
C839 C840 1.321 . S
C840 C839 1.321 . S
C840 C841 1.403 . S
C840 H866 0.934 . S
C841 C836 1.413 . S
C841 C840 1.403 . S
C841 H867 0.930 . S
C842 O856 1.275 . S
C842 O857 1.256 . S
C843 O858 1.259 . S
C843 O859 1.268 . S
C844 Ho833 2.811 . S
C844 C845 1.488 . S
C844 O860 1.215 . S
C844 O861 1.289 . S
C845 C844 1.488 . S
C845 C846 1.348 . S
C845 C850 1.413 . S
C846 C845 1.348 . S
C846 C847 1.442 . S
C846 H868 0.930 . S
C847 C846 1.442 . S
C847 C848 1.381 . S
C847 H869 0.931 . S
C848 C847 1.381 . S
C848 C849 1.321 . S
C849 C848 1.321 . S
C849 C850 1.403 . S
C849 H870 0.934 . S
C850 C845 1.413 . S
C850 C849 1.403 . S
C850 H871 0.930 . S
C851 O862 1.275 . S
C851 O863 1.256 . S
O852 Ho832 2.322 . S
O852 C834 1.259 . S
O853 Ho833 2.346 . S
O853 C834 1.268 . S
O854 Ho832 2.378 . S
O854 C835 1.215 . S
O855 Ho832 2.524 . S
O855 C835 1.289 . S
O856 Ho832 2.381 . S
O856 C842 1.275 . S
O857 Ho832 2.669 . S
O857 Ho833 2.305 . S
O857 C842 1.256 . S
O858 Ho833 2.322 . S
O858 C843 1.259 . S
O859 Ho832 2.346 . S
O859 C843 1.268 . S
O860 Ho833 2.378 . S
O860 C844 1.215 . S
O861 Ho833 2.524 . S
O861 C844 1.289 . S
O862 Ho833 2.381 . S
O862 C851 1.275 . S
O863 Ho832 2.305 . S
O863 Ho833 2.669 . S
O863 C851 1.256 . S
H864 C837 0.930 . S
H865 C838 0.931 . S
H866 C840 0.934 . S
H867 C841 0.930 . S
H868 C846 0.930 . S
H869 C847 0.931 . S
H870 C849 0.934 . S
H871 C850 0.930 . S
Ho872 C875 2.811 . S
Ho872 O892 2.322 . S
Ho872 O894 2.378 . S
Ho872 O895 2.524 . S
Ho872 O896 2.381 . S
Ho872 O897 2.669 . S
Ho872 O899 2.346 . S
Ho872 O903 2.305 . S
Ho873 C884 2.811 . S
Ho873 O893 2.346 . S
Ho873 O897 2.305 . S
Ho873 O898 2.322 . S
Ho873 O900 2.378 . S
Ho873 O901 2.524 . S
Ho873 O902 2.381 . S
Ho873 O903 2.669 . S
C874 O892 1.259 . S
C874 O893 1.268 . S
C875 Ho872 2.811 . S
C875 C876 1.488 . S
C875 O894 1.215 . S
C875 O895 1.289 . S
C876 C875 1.488 . S
C876 C877 1.348 . S
C876 C881 1.413 . S
C877 C876 1.348 . S
C877 C878 1.442 . S
C877 H904 0.930 . S
C878 C877 1.442 . S
C878 C879 1.381 . S
C878 H905 0.931 . S
C879 C878 1.381 . S
C879 C880 1.321 . S
C880 C879 1.321 . S
C880 C881 1.403 . S
C880 H906 0.934 . S
C881 C876 1.413 . S
C881 C880 1.403 . S
C881 H907 0.930 . S
C882 O896 1.275 . S
C882 O897 1.256 . S
C883 O898 1.259 . S
C883 O899 1.268 . S
C884 Ho873 2.811 . S
C884 C885 1.488 . S
C884 O900 1.215 . S
C884 O901 1.289 . S
C885 C884 1.488 . S
C885 C886 1.348 . S
C885 C890 1.413 . S
C886 C885 1.348 . S
C886 C887 1.442 . S
C886 H908 0.930 . S
C887 C886 1.442 . S
C887 C888 1.381 . S
C887 H909 0.931 . S
C888 C887 1.381 . S
C888 C889 1.321 . S
C889 C888 1.321 . S
C889 C890 1.403 . S
C889 H910 0.934 . S
C890 C885 1.413 . S
C890 C889 1.403 . S
C890 H911 0.930 . S
C891 O902 1.275 . S
C891 O903 1.256 . S
O892 Ho872 2.322 . S
O892 C874 1.259 . S
O893 Ho873 2.346 . S
O893 C874 1.268 . S
O894 Ho872 2.378 . S
O894 C875 1.215 . S
O895 Ho872 2.524 . S
O895 C875 1.289 . S
O896 Ho872 2.381 . S
O896 C882 1.275 . S
O897 Ho872 2.669 . S
O897 Ho873 2.305 . S
O897 C882 1.256 . S
O898 Ho873 2.322 . S
O898 C883 1.259 . S
O899 Ho872 2.346 . S
O899 C883 1.268 . S
O900 Ho873 2.378 . S
O900 C884 1.215 . S
O901 Ho873 2.524 . S
O901 C884 1.289 . S
O902 Ho873 2.381 . S
O902 C891 1.275 . S
O903 Ho872 2.305 . S
O903 Ho873 2.669 . S
O903 C891 1.256 . S
H904 C877 0.930 . S
H905 C878 0.931 . S
H906 C880 0.934 . S
H907 C881 0.930 . S
H908 C886 0.930 . S
H909 C887 0.931 . S
H910 C889 0.934 . S
H911 C890 0.930 . S
Ho912 C915 2.811 . S
Ho912 O932 2.322 . S
Ho912 O934 2.378 . S
Ho912 O935 2.524 1_556 S
Ho912 O936 2.381 . S
Ho912 O937 2.669 . S
Ho912 O939 2.346 1_556 S
Ho912 O943 2.305 1_556 S
Ho913 C924 2.811 1_455 S
Ho913 O933 2.346 . S
Ho913 O937 2.305 1_554 S
Ho913 O938 2.322 . S
Ho913 O940 2.378 1_455 S
Ho913 O941 2.524 1_455 S
Ho913 O942 2.381 . S
Ho913 O943 2.669 . S
C914 O932 1.259 . S
C914 O933 1.268 1_556 S
C915 Ho912 2.811 . S
C915 C916 1.488 . S
C915 O934 1.215 . S
C915 O935 1.289 1_556 S
C916 C915 1.488 . S
C916 C917 1.348 1_556 S
C916 C921 1.413 . S
C917 C916 1.348 1_554 S
C917 C918 1.442 1_554 S
C917 H944 0.930 . S
C918 C917 1.442 1_556 S
C918 C919 1.381 . S
C918 H945 0.931 1_556 S
C919 C918 1.381 . S
C919 C920 1.321 . S
C920 C919 1.321 . S
C920 C921 1.403 . S
C920 H946 0.934 . S
C921 C916 1.413 . S
C921 C920 1.403 . S
C921 H947 0.930 . S
C922 O936 1.275 . S
C922 O937 1.256 . S
C923 O938 1.259 . S
C923 O939 1.268 . S
C924 Ho913 2.811 1_655 S
C924 C925 1.488 . S
C924 O940 1.215 . S
C924 O941 1.289 . S
C925 C924 1.488 . S
C925 C926 1.348 . S
C925 C930 1.413 . S
C926 C925 1.348 . S
C926 C927 1.442 . S
C926 H948 0.947 . S
C927 C926 1.442 . S
C927 C928 1.381 . S
C927 H949 0.931 . S
C928 C927 1.381 . S
C928 C929 1.321 . S
C929 C928 1.321 . S
C929 C930 1.403 . S
C929 H950 0.934 . S
C930 C925 1.413 . S
C930 C929 1.403 . S
C930 H951 0.930 . S
C931 O942 1.275 . S
C931 O943 1.256 . S
O932 Ho912 2.322 . S
O932 C914 1.259 . S
O933 Ho913 2.346 . S
O933 C914 1.268 1_554 S
O934 Ho912 2.378 . S
O934 C915 1.215 . S
O935 Ho912 2.524 1_554 S
O935 C915 1.289 1_554 S
O936 Ho912 2.381 . S
O936 C922 1.275 . S
O937 Ho912 2.669 . S
O937 Ho913 2.305 1_556 S
O937 C922 1.256 . S
O938 Ho913 2.322 . S
O938 C923 1.259 . S
O939 Ho912 2.346 1_554 S
O939 C923 1.268 . S
O940 Ho913 2.378 1_655 S
O940 C924 1.215 . S
O941 Ho913 2.524 1_655 S
O941 C924 1.289 . S
O942 Ho913 2.381 . S
O942 C931 1.275 . S
O943 Ho912 2.305 1_554 S
O943 Ho913 2.669 . S
O943 C931 1.256 . S
H944 C917 0.930 . S
H945 C918 0.931 1_554 S
H946 C920 0.934 . S
H947 C921 0.930 . S
H948 C926 0.947 . S
H949 C927 0.931 . S
H950 C929 0.934 . S
H951 C930 0.930 . S
C952 C953 1.349 . S
C952 C954 1.327 . S
C952 H977 0.950 1_455 S
C953 C952 1.349 . S
C953 C969 1.349 . S
C954 C952 1.327 . S
C954 C973 1.429 . S
C954 H978 0.950 1_455 S
C955 C972 1.574 . S
C955 C974 1.368 . S
C955 H979 0.949 . S
H956 C960 0.949 . S
C957 C958 1.349 . S
C957 C959 1.327 . S
C957 H980 0.950 . S
C958 C957 1.349 . S
C958 C970 1.349 1_556 S
C959 C957 1.327 . S
C959 C975 1.429 . S
C959 H981 0.950 . S
C960 H956 0.949 . S
C960 C968 1.574 . S
C960 C976 1.368 . S
H961 C969 0.950 . S
H962 C967 0.950 . S
H963 C968 0.939 1_655 S
H964 C970 0.950 . S
H965 C971 0.950 1_554 S
H966 C972 0.949 . S
C967 H962 0.950 . S
C967 C969 1.327 . S
C967 C973 1.429 . S
C968 C960 1.574 . S
C968 H963 0.939 1_455 S
C968 C974 1.368 . S
C969 C953 1.349 . S
C969 H961 0.950 . S
C969 C967 1.327 . S
C970 C958 1.349 1_554 S
C970 H964 0.950 . S
C970 C971 1.327 1_554 S
C971 H965 0.950 1_556 S
C971 C970 1.327 1_556 S
C971 C975 1.429 . S
C972 C955 1.574 . S
C972 H966 0.949 . S
C972 C976 1.368 . S
C973 C954 1.429 . S
C973 C967 1.429 . S
C973 C974 1.523 . S
C974 C955 1.368 . S
C974 C968 1.368 . S
C974 C973 1.523 . S
C975 C959 1.429 . S
C975 C971 1.429 . S
C975 C976 1.523 . S
C976 C960 1.368 . S
C976 C972 1.368 . S
C976 C975 1.523 . S
H977 C952 0.950 1_655 S
H978 C954 0.950 1_655 S
H979 C955 0.949 . S
H980 C957 0.950 . S
H981 C959 0.950 . S
C982 C983 1.349 . S
C982 C984 1.327 . S
C982 H1007 0.950 . S
C983 C982 1.349 . S
C983 C999 1.349 . S
C984 C982 1.327 . S
C984 C1003 1.429 . S
C984 H1008 0.950 . S
C985 C1002 1.574 . S
C985 C1004 1.368 . S
C985 H1009 0.949 . S
H986 C990 0.949 . S
C987 C988 1.349 . S
C987 C989 1.327 . S
C987 H1010 0.950 . S
C988 C987 1.349 . S
C988 C1000 1.349 . S
C989 C987 1.327 . S
C989 C1005 1.429 . S
C989 H1011 0.950 . S
C990 H986 0.949 . S
C990 C998 1.574 . S
C990 C1006 1.368 . S
H991 C999 0.950 . S
H992 C997 0.950 . S
H993 C998 0.949 . S
H994 C1000 0.950 . S
H995 C1001 0.950 . S
H996 C1002 0.949 . S
C997 H992 0.950 . S
C997 C999 1.327 . S
C997 C1003 1.429 . S
C998 C990 1.574 . S
C998 H993 0.949 . S
C998 C1004 1.368 . S
C999 C983 1.349 . S
C999 H991 0.950 . S
C999 C997 1.327 . S
C1000 C988 1.349 . S
C1000 H994 0.950 . S
C1000 C1001 1.327 . S
C1001 H995 0.950 . S
C1001 C1000 1.327 . S
C1001 C1005 1.429 . S
C1002 C985 1.574 . S
C1002 H996 0.949 . S
C1002 C1006 1.368 . S
C1003 C984 1.429 . S
C1003 C997 1.429 . S
C1003 C1004 1.523 . S
C1004 C985 1.368 . S
C1004 C998 1.368 . S
C1004 C1003 1.523 . S
C1005 C989 1.429 . S
C1005 C1001 1.429 . S
C1005 C1006 1.523 . S
C1006 C990 1.368 . S
C1006 C1002 1.368 . S
C1006 C1005 1.523 . S
H1007 C982 0.950 . S
H1008 C984 0.950 . S
H1009 C985 0.949 . S
H1010 C987 0.950 . S
H1011 C989 0.950 . S
C1012 C1013 1.349 . S
C1012 C1014 1.327 . S
C1012 H1037 0.950 . S
C1013 C1012 1.349 . S
C1013 C1029 1.349 . S
C1014 C1012 1.327 . S
C1014 C1033 1.429 . S
C1014 H1038 0.950 . S
C1015 C1032 1.574 . S
C1015 C1034 1.368 . S
C1015 H1039 0.949 . S
H1016 C1020 0.949 . S
C1017 C1018 1.349 . S
C1017 C1019 1.327 . S
C1017 H1040 0.950 . S
C1018 C1017 1.349 . S
C1018 C1030 1.349 . S
C1019 C1017 1.327 . S
C1019 C1035 1.429 . S
C1019 H1041 0.950 . S
C1020 H1016 0.949 . S
C1020 C1028 1.574 . S
C1020 C1036 1.368 . S
H1021 C1029 0.950 . S
H1022 C1027 0.950 . S
H1023 C1028 0.949 . S
H1024 C1030 0.950 . S
H1025 C1031 0.950 . S
H1026 C1032 0.949 . S
C1027 H1022 0.950 . S
C1027 C1029 1.327 . S
C1027 C1033 1.429 . S
C1028 C1020 1.574 . S
C1028 H1023 0.949 . S
C1028 C1034 1.368 . S
C1029 C1013 1.349 . S
C1029 H1021 0.950 . S
C1029 C1027 1.327 . S
C1030 C1018 1.349 . S
C1030 H1024 0.950 . S
C1030 C1031 1.327 . S
C1031 H1025 0.950 . S
C1031 C1030 1.327 . S
C1031 C1035 1.429 . S
C1032 C1015 1.574 . S
C1032 H1026 0.949 . S
C1032 C1036 1.368 . S
C1033 C1014 1.429 . S
C1033 C1027 1.429 . S
C1033 C1034 1.523 . S
C1034 C1015 1.368 . S
C1034 C1028 1.368 . S
C1034 C1033 1.523 . S
C1035 C1019 1.429 . S
C1035 C1031 1.429 . S
C1035 C1036 1.523 . S
C1036 C1020 1.368 . S
C1036 C1032 1.368 . S
C1036 C1035 1.523 . S
H1037 C1012 0.950 . S
H1038 C1014 0.950 . S
H1039 C1015 0.949 . S
H1040 C1017 0.950 . S
H1041 C1019 0.950 . S
C1042 C1043 1.349 . S
C1042 C1044 1.327 . S
C1042 H1067 0.950 . S
C1043 C1042 1.349 . S
C1043 C1059 1.349 . S
C1044 C1042 1.327 . S
C1044 C1063 1.429 . S
C1044 H1068 0.950 . S
C1045 C1062 1.574 . S
C1045 C1064 1.368 . S
C1045 H1069 0.949 . S
H1046 C1050 0.949 . S
C1047 C1048 1.349 . S
C1047 C1049 1.327 . S
C1047 H1070 0.950 . S
C1048 C1047 1.349 . S
C1048 C1060 1.349 . S
C1049 C1047 1.327 . S
C1049 C1065 1.429 . S
C1049 H1071 0.950 . S
C1050 H1046 0.949 . S
C1050 C1058 1.574 . S
C1050 C1066 1.368 . S
H1051 C1059 0.950 . S
H1052 C1057 0.950 . S
H1053 C1058 0.949 . S
H1054 C1060 0.950 . S
H1055 C1061 0.950 . S
H1056 C1062 0.949 . S
C1057 H1052 0.950 . S
C1057 C1059 1.327 . S
C1057 C1063 1.429 . S
C1058 C1050 1.574 . S
C1058 H1053 0.949 . S
C1058 C1064 1.368 . S
C1059 C1043 1.349 . S
C1059 H1051 0.950 . S
C1059 C1057 1.327 . S
C1060 C1048 1.349 . S
C1060 H1054 0.950 . S
C1060 C1061 1.327 . S
C1061 H1055 0.950 . S
C1061 C1060 1.327 . S
C1061 C1065 1.429 . S
C1062 C1045 1.574 . S
C1062 H1056 0.949 . S
C1062 C1066 1.368 . S
C1063 C1044 1.429 . S
C1063 C1057 1.429 . S
C1063 C1064 1.523 . S
C1064 C1045 1.368 . S
C1064 C1058 1.368 . S
C1064 C1063 1.523 . S
C1065 C1049 1.429 . S
C1065 C1061 1.429 . S
C1065 C1066 1.523 . S
C1066 C1050 1.368 . S
C1066 C1062 1.368 . S
C1066 C1065 1.523 . S
H1067 C1042 0.950 . S
H1068 C1044 0.950 . S
H1069 C1045 0.949 . S
H1070 C1047 0.950 . S
H1071 C1049 0.950 . S
C1072 C1073 1.349 . S
C1072 C1074 1.327 . S
C1072 H1097 0.950 . S
C1073 C1072 1.349 . S
C1073 C1089 1.349 1_455 S
C1074 C1072 1.327 . S
C1074 C1093 1.429 . S
C1074 H1098 0.950 . S
C1075 C1092 1.574 . S
C1075 C1094 1.368 . S
C1075 H1099 0.979 . S
H1076 C1080 0.949 . S
C1077 C1078 1.349 . S
C1077 C1079 1.327 . S
C1077 H1100 0.950 . S
C1078 C1077 1.349 . S
C1078 C1090 1.349 . S
C1079 C1077 1.327 . S
C1079 C1095 1.429 . S
C1079 H1101 0.950 . S
C1080 H1076 0.949 . S
C1080 C1088 1.574 . S
C1080 C1096 1.368 . S
H1081 C1089 0.950 . S
H1082 C1087 0.946 1_655 S
H1083 C1088 0.949 . S
H1084 C1090 0.950 . S
H1085 C1091 0.950 . S
H1086 C1092 0.949 . S
C1087 H1082 0.946 1_455 S
C1087 C1089 1.326 1_455 S
C1087 C1093 1.434 . S
C1088 C1080 1.574 . S
C1088 H1083 0.949 . S
C1088 C1094 1.368 . S
C1089 C1073 1.349 1_655 S
C1089 H1081 0.950 . S
C1089 C1087 1.326 1_655 S
C1090 C1078 1.349 . S
C1090 H1084 0.950 . S
C1090 C1091 1.327 . S
C1091 H1085 0.950 . S
C1091 C1090 1.327 . S
C1091 C1095 1.429 . S
C1092 C1075 1.574 . S
C1092 H1086 0.949 . S
C1092 C1096 1.368 . S
C1093 C1074 1.429 . S
C1093 C1087 1.434 . S
C1093 C1094 1.523 . S
C1094 C1075 1.368 . S
C1094 C1088 1.368 . S
C1094 C1093 1.523 . S
C1095 C1079 1.429 . S
C1095 C1091 1.429 . S
C1095 C1096 1.523 . S
C1096 C1080 1.368 . S
C1096 C1092 1.368 . S
C1096 C1095 1.523 . S
H1097 C1072 0.950 . S
H1098 C1074 0.950 . S
H1099 C1075 0.979 . S
H1100 C1077 0.950 . S
H1101 C1079 0.950 . S
C1102 C1103 1.349 . S
C1102 C1104 1.327 . S
C1102 H1127 0.950 . S
C1103 C1102 1.349 . S
C1103 C1119 1.349 . S
C1104 C1102 1.327 . S
C1104 C1123 1.429 . S
C1104 H1128 0.950 . S
C1105 C1122 1.574 . S
C1105 C1124 1.368 . S
C1105 H1129 0.949 . S
H1106 C1110 0.949 . S
C1107 C1108 1.349 . S
C1107 C1109 1.327 . S
C1107 H1130 0.950 . S
C1108 C1107 1.349 . S
C1108 C1120 1.349 . S
C1109 C1107 1.327 . S
C1109 C1125 1.429 . S
C1109 H1131 0.950 . S
C1110 H1106 0.949 . S
C1110 C1118 1.574 . S
C1110 C1126 1.368 . S
H1111 C1119 0.950 . S
H1112 C1117 0.950 . S
H1113 C1118 0.949 . S
H1114 C1120 0.950 . S
H1115 C1121 0.950 . S
H1116 C1122 0.949 . S
C1117 H1112 0.950 . S
C1117 C1119 1.327 . S
C1117 C1123 1.429 . S
C1118 C1110 1.574 . S
C1118 H1113 0.949 . S
C1118 C1124 1.368 . S
C1119 C1103 1.349 . S
C1119 H1111 0.950 . S
C1119 C1117 1.327 . S
C1120 C1108 1.349 . S
C1120 H1114 0.950 . S
C1120 C1121 1.327 . S
C1121 H1115 0.950 . S
C1121 C1120 1.327 . S
C1121 C1125 1.429 . S
C1122 C1105 1.574 . S
C1122 H1116 0.949 . S
C1122 C1126 1.368 . S
C1123 C1104 1.429 . S
C1123 C1117 1.429 . S
C1123 C1124 1.523 . S
C1124 C1105 1.368 . S
C1124 C1118 1.368 . S
C1124 C1123 1.523 . S
C1125 C1109 1.429 . S
C1125 C1121 1.429 . S
C1125 C1126 1.523 . S
C1126 C1110 1.368 . S
C1126 C1122 1.368 . S
C1126 C1125 1.523 . S
H1127 C1102 0.950 . S
H1128 C1104 0.950 . S
H1129 C1105 0.949 . S
H1130 C1107 0.950 . S
H1131 C1109 0.950 . S
C1132 C1133 1.349 . S
C1132 C1134 1.327 . S
C1132 H1157 0.950 . S
C1133 C1132 1.349 . S
C1133 C1149 1.349 . S
C1134 C1132 1.327 . S
C1134 C1153 1.429 . S
C1134 H1158 0.950 . S
C1135 C1152 1.574 . S
C1135 C1154 1.368 . S
C1135 H1159 0.949 . S
H1136 C1140 0.949 . S
C1137 C1138 1.349 . S
C1137 C1139 1.327 . S
C1137 H1160 0.950 . S
C1138 C1137 1.349 . S
C1138 C1150 1.349 . S
C1139 C1137 1.327 . S
C1139 C1155 1.429 . S
C1139 H1161 0.950 . S
C1140 H1136 0.949 . S
C1140 C1148 1.574 . S
C1140 C1156 1.368 . S
H1141 C1149 0.950 . S
H1142 C1147 0.950 . S
H1143 C1148 0.949 . S
H1144 C1150 0.950 . S
H1145 C1151 0.950 . S
H1146 C1152 0.949 . S
C1147 H1142 0.950 . S
C1147 C1149 1.327 . S
C1147 C1153 1.429 . S
C1148 C1140 1.574 . S
C1148 H1143 0.949 . S
C1148 C1154 1.368 . S
C1149 C1133 1.349 . S
C1149 H1141 0.950 . S
C1149 C1147 1.327 . S
C1150 C1138 1.349 . S
C1150 H1144 0.950 . S
C1150 C1151 1.327 . S
C1151 H1145 0.950 . S
C1151 C1150 1.327 . S
C1151 C1155 1.429 . S
C1152 C1135 1.574 . S
C1152 H1146 0.949 . S
C1152 C1156 1.368 . S
C1153 C1134 1.429 . S
C1153 C1147 1.429 . S
C1153 C1154 1.523 . S
C1154 C1135 1.368 . S
C1154 C1148 1.368 . S
C1154 C1153 1.523 . S
C1155 C1139 1.429 . S
C1155 C1151 1.429 . S
C1155 C1156 1.523 . S
C1156 C1140 1.368 . S
C1156 C1152 1.368 . S
C1156 C1155 1.523 . S
H1157 C1132 0.950 . S
H1158 C1134 0.950 . S
H1159 C1135 0.949 . S
H1160 C1137 0.950 . S
H1161 C1139 0.950 . S
C1162 C1163 1.349 . S
C1162 C1164 1.327 . S
C1162 H1187 0.950 . S
C1163 C1162 1.349 . S
C1163 C1179 1.349 . S
C1164 C1162 1.327 . S
C1164 C1183 1.429 . S
C1164 H1188 0.950 . S
C1165 C1182 1.574 . S
C1165 C1184 1.368 . S
C1165 H1189 0.949 . S
H1166 C1170 0.949 . S
C1167 C1168 1.349 . S
C1167 C1169 1.327 . S
C1167 H1190 0.950 . S
C1168 C1167 1.349 . S
C1168 C1180 1.349 . S
C1169 C1167 1.327 . S
C1169 C1185 1.429 . S
C1169 H1191 0.950 . S
C1170 H1166 0.949 . S
C1170 C1178 1.574 . S
C1170 C1186 1.368 . S
H1171 C1179 0.950 . S
H1172 C1177 0.950 . S
H1173 C1178 0.949 . S
H1174 C1180 0.950 . S
H1175 C1181 0.950 . S
H1176 C1182 0.949 . S
C1177 H1172 0.950 . S
C1177 C1179 1.327 . S
C1177 C1183 1.429 . S
C1178 C1170 1.574 . S
C1178 H1173 0.949 . S
C1178 C1184 1.368 . S
C1179 C1163 1.349 . S
C1179 H1171 0.950 . S
C1179 C1177 1.327 . S
C1180 C1168 1.349 . S
C1180 H1174 0.950 . S
C1180 C1181 1.327 . S
C1181 H1175 0.950 . S
C1181 C1180 1.327 . S
C1181 C1185 1.429 . S
C1182 C1165 1.574 . S
C1182 H1176 0.949 . S
C1182 C1186 1.368 . S
C1183 C1164 1.429 . S
C1183 C1177 1.429 . S
C1183 C1184 1.523 . S
C1184 C1165 1.368 . S
C1184 C1178 1.368 . S
C1184 C1183 1.523 . S
C1185 C1169 1.429 . S
C1185 C1181 1.429 . S
C1185 C1186 1.523 . S
C1186 C1170 1.368 . S
C1186 C1182 1.368 . S
C1186 C1185 1.523 . S
H1187 C1162 0.950 . S
H1188 C1164 0.950 . S
H1189 C1165 0.949 . S
H1190 C1167 0.950 . S
H1191 C1169 0.950 . S
C1192 C1193 1.349 . S
C1192 C1194 1.327 . S
C1192 H1217 0.950 . S
C1193 C1192 1.349 . S
C1193 C1209 1.349 . S
C1194 C1192 1.327 . S
C1194 C1213 1.429 . S
C1194 H1218 0.950 . S
C1195 C1212 1.574 . S
C1195 C1214 1.368 . S
C1195 H1219 0.949 . S
H1196 C1200 0.949 1_455 S
C1197 C1198 1.349 . S
C1197 C1199 1.327 . S
C1197 H1220 0.950 . S
C1198 C1197 1.349 . S
C1198 C1210 1.349 . S
C1199 C1197 1.327 . S
C1199 C1215 1.429 . S
C1199 H1221 0.950 1_455 S
C1200 H1196 0.949 1_655 S
C1200 C1208 1.574 . S
C1200 C1216 1.368 . S
H1201 C1209 0.950 . S
H1202 C1207 0.950 . S
H1203 C1208 0.949 . S
H1204 C1210 0.950 . S
H1205 C1211 0.950 . S
H1206 C1212 0.949 . S
C1207 H1202 0.950 . S
C1207 C1209 1.327 . S
C1207 C1213 1.429 . S
C1208 C1200 1.574 . S
C1208 H1203 0.949 . S
C1208 C1214 1.368 . S
C1209 C1193 1.349 . S
C1209 H1201 0.950 . S
C1209 C1207 1.327 . S
C1210 C1198 1.349 . S
C1210 H1204 0.950 . S
C1210 C1211 1.327 . S
C1211 H1205 0.950 . S
C1211 C1210 1.327 . S
C1211 C1215 1.429 . S
C1212 C1195 1.574 . S
C1212 H1206 0.949 . S
C1212 C1216 1.368 . S
C1213 C1194 1.429 . S
C1213 C1207 1.429 . S
C1213 C1214 1.523 . S
C1214 C1195 1.368 . S
C1214 C1208 1.368 . S
C1214 C1213 1.523 . S
C1215 C1199 1.429 . S
C1215 C1211 1.429 . S
C1215 C1216 1.523 1_455 S
C1216 C1200 1.368 . S
C1216 C1212 1.368 . S
C1216 C1215 1.523 1_655 S
H1217 C1192 0.950 . S
H1218 C1194 0.950 . S
H1219 C1195 0.949 . S
H1220 C1197 0.950 . S
H1221 C1199 0.950 1_655 S
C1222 C1223 1.349 . S
C1222 C1224 1.327 . S
C1222 H1247 0.950 . S
C1223 C1222 1.349 . S
C1223 C1239 1.349 . S
C1224 C1222 1.327 . S
C1224 C1243 1.429 . S
C1224 H1248 0.950 . S
C1225 C1242 1.574 . S
C1225 C1244 1.368 . S
C1225 H1249 0.949 . S
H1226 C1230 0.949 . S
C1227 C1228 1.349 . S
C1227 C1229 1.327 . S
C1227 H1250 0.950 . S
C1228 C1227 1.349 . S
C1228 C1240 1.349 . S
C1229 C1227 1.327 . S
C1229 C1245 1.429 . S
C1229 H1251 0.950 . S
C1230 H1226 0.949 . S
C1230 C1238 1.574 . S
C1230 C1246 1.368 . S
H1231 C1239 0.950 . S
H1232 C1237 0.950 . S
H1233 C1238 0.949 . S
H1234 C1240 0.950 . S
H1235 C1241 0.950 . S
H1236 C1242 0.949 . S
C1237 H1232 0.950 . S
C1237 C1239 1.327 . S
C1237 C1243 1.429 . S
C1238 C1230 1.574 . S
C1238 H1233 0.949 . S
C1238 C1244 1.368 . S
C1239 C1223 1.349 . S
C1239 H1231 0.950 . S
C1239 C1237 1.327 . S
C1240 C1228 1.349 . S
C1240 H1234 0.950 . S
C1240 C1241 1.327 . S
C1241 H1235 0.950 . S
C1241 C1240 1.327 . S
C1241 C1245 1.429 . S
C1242 C1225 1.574 . S
C1242 H1236 0.949 . S
C1242 C1246 1.368 . S
C1243 C1224 1.429 . S
C1243 C1237 1.429 . S
C1243 C1244 1.523 . S
C1244 C1225 1.368 . S
C1244 C1238 1.368 . S
C1244 C1243 1.523 . S
C1245 C1229 1.429 . S
C1245 C1241 1.429 . S
C1245 C1246 1.523 . S
C1246 C1230 1.368 . S
C1246 C1242 1.368 . S
C1246 C1245 1.523 . S
H1247 C1222 0.950 . S
H1248 C1224 0.950 . S
H1249 C1225 0.949 . S
H1250 C1227 0.950 . S
H1251 C1229 0.950 . S
C1252 C1253 1.349 . S
C1252 C1254 1.327 . S
C1252 H1277 0.950 . S
C1253 C1252 1.349 . S
C1253 C1269 1.349 . S
C1254 C1252 1.327 . S
C1254 C1273 1.429 . S
C1254 H1278 0.950 . S
C1255 C1272 1.574 . S
C1255 C1274 1.368 . S
C1255 H1279 0.949 . S
H1256 C1260 0.949 . S
C1257 C1258 1.349 . S
C1257 C1259 1.327 . S
C1257 H1280 0.950 . S
C1258 C1257 1.349 . S
C1258 C1270 1.349 . S
C1259 C1257 1.327 . S
C1259 C1275 1.429 . S
C1259 H1281 0.950 . S
C1260 H1256 0.949 . S
C1260 C1268 1.574 . S
C1260 C1276 1.368 . S
H1261 C1269 0.950 . S
H1262 C1267 0.950 . S
H1263 C1268 0.949 . S
H1264 C1270 0.950 . S
H1265 C1271 0.950 . S
H1266 C1272 0.949 . S
C1267 H1262 0.950 . S
C1267 C1269 1.327 . S
C1267 C1273 1.429 . S
C1268 C1260 1.574 . S
C1268 H1263 0.949 . S
C1268 C1274 1.368 . S
C1269 C1253 1.349 . S
C1269 H1261 0.950 . S
C1269 C1267 1.327 . S
C1270 C1258 1.349 . S
C1270 H1264 0.950 . S
C1270 C1271 1.327 . S
C1271 H1265 0.950 . S
C1271 C1270 1.327 . S
C1271 C1275 1.429 . S
C1272 C1255 1.574 . S
C1272 H1266 0.949 . S
C1272 C1276 1.368 . S
C1273 C1254 1.429 . S
C1273 C1267 1.429 . S
C1273 C1274 1.523 . S
C1274 C1255 1.368 . S
C1274 C1268 1.368 . S
C1274 C1273 1.523 . S
C1275 C1259 1.429 . S
C1275 C1271 1.429 . S
C1275 C1276 1.523 . S
C1276 C1260 1.368 . S
C1276 C1272 1.368 . S
C1276 C1275 1.523 . S
H1277 C1252 0.950 . S
H1278 C1254 0.950 . S
H1279 C1255 0.949 . S
H1280 C1257 0.950 . S
H1281 C1259 0.950 . S
C1282 C1283 1.349 . S
C1282 C1284 1.327 . S
C1282 H1307 0.950 . S
C1283 C1282 1.349 . S
C1283 C1299 1.349 . S
C1284 C1282 1.327 . S
C1284 C1303 1.429 . S
C1284 H1308 0.950 . S
C1285 C1302 1.574 . S
C1285 C1304 1.368 . S
C1285 H1309 0.949 . S
H1286 C1290 0.949 . S
C1287 C1288 1.349 . S
C1287 C1289 1.327 . S
C1287 H1310 0.950 . S
C1288 C1287 1.349 . S
C1288 C1300 1.349 . S
C1289 C1287 1.327 . S
C1289 C1305 1.429 . S
C1289 H1311 0.950 . S
C1290 H1286 0.949 . S
C1290 C1298 1.574 . S
C1290 C1306 1.368 . S
H1291 C1299 0.950 . S
H1292 C1297 0.950 . S
H1293 C1298 0.949 . S
H1294 C1300 0.950 . S
H1295 C1301 0.950 . S
H1296 C1302 0.949 . S
C1297 H1292 0.950 . S
C1297 C1299 1.327 . S
C1297 C1303 1.429 . S
C1298 C1290 1.574 . S
C1298 H1293 0.949 . S
C1298 C1304 1.368 . S
C1299 C1283 1.349 . S
C1299 H1291 0.950 . S
C1299 C1297 1.327 . S
C1300 C1288 1.349 . S
C1300 H1294 0.950 . S
C1300 C1301 1.327 . S
C1301 H1295 0.950 . S
C1301 C1300 1.327 . S
C1301 C1305 1.429 . S
C1302 C1285 1.574 . S
C1302 H1296 0.949 . S
C1302 C1306 1.368 . S
C1303 C1284 1.429 . S
C1303 C1297 1.429 . S
C1303 C1304 1.523 . S
C1304 C1285 1.368 . S
C1304 C1298 1.368 . S
C1304 C1303 1.523 . S
C1305 C1289 1.429 . S
C1305 C1301 1.429 . S
C1305 C1306 1.523 . S
C1306 C1290 1.368 . S
C1306 C1302 1.368 . S
C1306 C1305 1.523 . S
H1307 C1282 0.950 . S
H1308 C1284 0.950 . S
H1309 C1285 0.949 . S
H1310 C1287 0.950 . S
H1311 C1289 0.950 . S
C1312 C1313 1.349 . S
C1312 C1314 1.327 . S
C1312 H1337 0.950 . S
C1313 C1312 1.349 . S
C1313 C1329 1.349 . S
C1314 C1312 1.327 . S
C1314 C1333 1.429 . S
C1314 H1338 0.950 . S
C1315 C1332 1.574 . S
C1315 C1334 1.368 . S
C1315 H1339 0.949 . S
H1316 C1320 0.949 . S
C1317 C1318 1.349 . S
C1317 C1319 1.327 . S
C1317 H1340 0.950 . S
C1318 C1317 1.349 . S
C1318 C1330 1.349 . S
C1319 C1317 1.327 . S
C1319 C1335 1.429 . S
C1319 H1341 0.950 . S
C1320 H1316 0.949 . S
C1320 C1328 1.574 . S
C1320 C1336 1.368 . S
H1321 C1329 0.950 . S
H1322 C1327 0.950 . S
H1323 C1328 0.949 . S
H1324 C1330 0.950 . S
H1325 C1331 0.971 . S
H1326 C1332 0.949 1_455 S
C1327 H1322 0.950 . S
C1327 C1329 1.327 . S
C1327 C1333 1.429 . S
C1328 C1320 1.574 . S
C1328 H1323 0.949 . S
C1328 C1334 1.368 . S
C1329 C1313 1.349 . S
C1329 H1321 0.950 . S
C1329 C1327 1.327 . S
C1330 C1318 1.349 . S
C1330 H1324 0.950 . S
C1330 C1331 1.327 . S
C1331 H1325 0.971 . S
C1331 C1330 1.327 . S
C1331 C1335 1.429 . S
C1332 C1315 1.574 . S
C1332 H1326 0.949 1_655 S
C1332 C1336 1.368 . S
C1333 C1314 1.429 . S
C1333 C1327 1.429 . S
C1333 C1334 1.523 . S
C1334 C1315 1.368 . S
C1334 C1328 1.368 . S
C1334 C1333 1.523 . S
C1335 C1319 1.429 . S
C1335 C1331 1.429 . S
C1335 C1336 1.523 1_455 S
C1336 C1320 1.368 . S
C1336 C1332 1.368 . S
C1336 C1335 1.523 1_655 S
H1337 C1312 0.950 . S
H1338 C1314 0.950 . S
H1339 C1315 0.949 . S
H1340 C1317 0.950 . S
H1341 C1319 0.950 . S
C1342 C1343 1.349 . S
C1342 C1344 1.327 . S
C1342 H1367 0.950 . S
C1343 C1342 1.349 . S
C1343 C1359 1.349 . S
C1344 C1342 1.327 . S
C1344 C1363 1.429 . S
C1344 H1368 0.950 . S
C1345 C1362 1.574 . S
C1345 C1364 1.368 . S
C1345 H1369 0.949 . S
H1346 C1350 0.949 . S
C1347 C1348 1.349 . S
C1347 C1349 1.327 . S
C1347 H1370 0.950 . S
C1348 C1347 1.349 . S
C1348 C1360 1.349 . S
C1349 C1347 1.327 . S
C1349 C1365 1.429 . S
C1349 H1371 0.950 . S
C1350 H1346 0.949 . S
C1350 C1358 1.574 . S
C1350 C1366 1.368 . S
H1351 C1359 0.950 . S
H1352 C1357 0.950 . S
H1353 C1358 0.949 . S
H1354 C1360 0.950 . S
H1355 C1361 0.950 . S
H1356 C1362 0.949 . S
C1357 H1352 0.950 . S
C1357 C1359 1.327 . S
C1357 C1363 1.429 . S
C1358 C1350 1.574 . S
C1358 H1353 0.949 . S
C1358 C1364 1.368 . S
C1359 C1343 1.349 . S
C1359 H1351 0.950 . S
C1359 C1357 1.327 . S
C1360 C1348 1.349 . S
C1360 H1354 0.950 . S
C1360 C1361 1.327 . S
C1361 H1355 0.950 . S
C1361 C1360 1.327 . S
C1361 C1365 1.429 . S
C1362 C1345 1.574 . S
C1362 H1356 0.949 . S
C1362 C1366 1.368 . S
C1363 C1344 1.429 . S
C1363 C1357 1.429 . S
C1363 C1364 1.523 . S
C1364 C1345 1.368 . S
C1364 C1358 1.368 . S
C1364 C1363 1.523 . S
C1365 C1349 1.429 . S
C1365 C1361 1.429 . S
C1365 C1366 1.523 . S
C1366 C1350 1.368 . S
C1366 C1362 1.368 . S
C1366 C1365 1.523 . S
H1367 C1342 0.950 . S
H1368 C1344 0.950 . S
H1369 C1345 0.949 . S
H1370 C1347 0.950 . S
H1371 C1349 0.950 . S
C1372 C1373 1.349 . S
C1372 C1374 1.327 . S
C1372 H1397 0.950 . S
C1373 C1372 1.349 . S
C1373 C1389 1.349 . S
C1374 C1372 1.327 . S
C1374 C1393 1.429 . S
C1374 H1398 0.950 . S
C1375 C1392 1.574 . S
C1375 C1394 1.368 . S
C1375 H1399 0.949 . S
H1376 C1380 0.949 . S
C1377 C1378 1.349 . S
C1377 C1379 1.327 . S
C1377 H1400 0.950 . S
C1378 C1377 1.349 . S
C1378 C1390 1.349 . S
C1379 C1377 1.327 . S
C1379 C1395 1.429 . S
C1379 H1401 0.950 . S
C1380 H1376 0.949 . S
C1380 C1388 1.574 . S
C1380 C1396 1.368 . S
H1381 C1389 0.950 . S
H1382 C1387 0.950 . S
H1383 C1388 0.949 . S
H1384 C1390 0.950 . S
H1385 C1391 0.950 . S
H1386 C1392 0.949 . S
C1387 H1382 0.950 . S
C1387 C1389 1.327 . S
C1387 C1393 1.429 . S
C1388 C1380 1.574 . S
C1388 H1383 0.949 . S
C1388 C1394 1.368 . S
C1389 C1373 1.349 . S
C1389 H1381 0.950 . S
C1389 C1387 1.327 . S
C1390 C1378 1.349 . S
C1390 H1384 0.950 . S
C1390 C1391 1.327 . S
C1391 H1385 0.950 . S
C1391 C1390 1.327 . S
C1391 C1395 1.429 . S
C1392 C1375 1.574 . S
C1392 H1386 0.949 . S
C1392 C1396 1.368 . S
C1393 C1374 1.429 . S
C1393 C1387 1.429 . S
C1393 C1394 1.523 . S
C1394 C1375 1.368 . S
C1394 C1388 1.368 . S
C1394 C1393 1.523 . S
C1395 C1379 1.429 . S
C1395 C1391 1.429 . S
C1395 C1396 1.523 . S
C1396 C1380 1.368 . S
C1396 C1392 1.368 . S
C1396 C1395 1.523 . S
H1397 C1372 0.950 . S
H1398 C1374 0.950 . S
H1399 C1375 0.949 . S
H1400 C1377 0.950 . S
H1401 C1379 0.950 . S
C1402 C1403 1.349 . S
C1402 C1404 1.327 . S
C1402 H1427 0.950 . S
C1403 C1402 1.349 . S
C1403 C1419 1.349 . S
C1404 C1402 1.327 . S
C1404 C1423 1.429 . S
C1404 H1428 0.950 . S
C1405 C1422 1.574 . S
C1405 C1424 1.368 . S
C1405 H1429 0.949 . S
H1406 C1410 0.949 . S
C1407 C1408 1.349 . S
C1407 C1409 1.327 . S
C1407 H1430 0.950 . S
C1408 C1407 1.349 . S
C1408 C1420 1.349 . S
C1409 C1407 1.327 . S
C1409 C1425 1.429 . S
C1409 H1431 0.950 . S
C1410 H1406 0.949 . S
C1410 C1418 1.574 . S
C1410 C1426 1.368 . S
H1411 C1419 0.950 . S
H1412 C1417 0.950 . S
H1413 C1418 0.949 . S
H1414 C1420 0.950 . S
H1415 C1421 0.950 . S
H1416 C1422 0.949 . S
C1417 H1412 0.950 . S
C1417 C1419 1.327 . S
C1417 C1423 1.429 . S
C1418 C1410 1.574 . S
C1418 H1413 0.949 . S
C1418 C1424 1.368 . S
C1419 C1403 1.349 . S
C1419 H1411 0.950 . S
C1419 C1417 1.327 . S
C1420 C1408 1.349 . S
C1420 H1414 0.950 . S
C1420 C1421 1.327 . S
C1421 H1415 0.950 . S
C1421 C1420 1.327 . S
C1421 C1425 1.429 . S
C1422 C1405 1.574 . S
C1422 H1416 0.949 . S
C1422 C1426 1.368 . S
C1423 C1404 1.429 . S
C1423 C1417 1.429 . S
C1423 C1424 1.523 . S
C1424 C1405 1.368 . S
C1424 C1418 1.368 . S
C1424 C1423 1.523 . S
C1425 C1409 1.429 . S
C1425 C1421 1.429 . S
C1425 C1426 1.523 . S
C1426 C1410 1.368 . S
C1426 C1422 1.368 . S
C1426 C1425 1.523 . S
H1427 C1402 0.950 . S
H1428 C1404 0.950 . S
H1429 C1405 0.949 . S
H1430 C1407 0.950 . S
H1431 C1409 0.950 . S
C1432 C1433 1.349 . S
C1432 C1434 1.327 . S
C1432 H1457 0.950 1_554 S
C1433 C1432 1.349 . S
C1433 C1449 1.349 . S
C1434 C1432 1.327 . S
C1434 C1453 1.429 . S
C1434 H1458 0.950 . S
C1435 C1452 1.574 . S
C1435 C1454 1.368 . S
C1435 H1459 0.949 . S
H1436 C1440 0.949 . S
C1437 C1438 1.349 1_545 S
C1437 C1439 1.353 . S
C1437 H1460 0.950 . S
C1438 C1437 1.349 1_565 S
C1438 C1450 1.349 . S
C1439 C1437 1.353 . S
C1439 C1455 1.386 1_545 S
C1439 H1461 0.970 . S
C1440 H1436 0.949 . S
C1440 C1448 1.574 . S
C1440 C1456 1.368 . S
H1441 C1449 0.950 . S
H1442 C1447 0.950 . S
H1443 C1448 0.949 . S
H1444 C1450 0.950 . S
H1445 C1451 0.950 . S
H1446 C1452 0.949 1_545 S
C1447 H1442 0.950 . S
C1447 C1449 1.327 . S
C1447 C1453 1.429 . S
C1448 C1440 1.574 . S
C1448 H1443 0.949 . S
C1448 C1454 1.368 . S
C1449 C1433 1.349 . S
C1449 H1441 0.950 . S
C1449 C1447 1.327 . S
C1450 C1438 1.349 . S
C1450 H1444 0.950 . S
C1450 C1451 1.327 . S
C1451 H1445 0.950 . S
C1451 C1450 1.327 . S
C1451 C1455 1.429 . S
C1452 C1435 1.574 . S
C1452 H1446 0.949 1_565 S
C1452 C1456 1.368 . S
C1453 C1434 1.429 . S
C1453 C1447 1.429 . S
C1453 C1454 1.523 . S
C1454 C1435 1.368 . S
C1454 C1448 1.368 . S
C1454 C1453 1.523 . S
C1455 C1439 1.386 1_565 S
C1455 C1451 1.429 . S
C1455 C1456 1.523 . S
C1456 C1440 1.368 . S
C1456 C1452 1.368 . S
C1456 C1455 1.523 . S
H1457 C1432 0.950 1_556 S
H1458 C1434 0.950 . S
H1459 C1435 0.949 . S
H1460 C1437 0.950 . S
H1461 C1439 0.970 . S
C1462 C1463 1.349 . S
C1462 C1464 1.327 . S
C1462 H1487 0.950 . S
C1463 C1462 1.349 . S
C1463 C1479 1.349 1_554 S
C1464 C1462 1.327 . S
C1464 C1483 1.429 . S
C1464 H1488 0.950 . S
C1465 C1482 1.574 . S
C1465 C1484 1.368 1_556 S
C1465 H1489 0.949 . S
H1466 C1470 0.949 . S
C1467 C1468 1.349 1_556 S
C1467 C1469 1.327 . S
C1467 H1490 0.950 . S
C1468 C1467 1.349 1_554 S
C1468 C1480 1.349 . S
C1469 C1467 1.327 . S
C1469 C1485 1.429 1_556 S
C1469 H1491 0.950 . S
C1470 H1466 0.949 . S
C1470 C1478 1.574 . S
C1470 C1486 1.368 . S
H1471 C1479 0.950 . S
H1472 C1477 0.950 . S
H1473 C1478 0.949 . S
H1474 C1480 0.950 . S
H1475 C1481 0.950 . S
H1476 C1482 0.949 . S
C1477 H1472 0.950 . S
C1477 C1479 1.327 . S
C1477 C1483 1.429 1_556 S
C1478 C1470 1.574 . S
C1478 H1473 0.949 . S
C1478 C1484 1.368 . S
C1479 C1463 1.349 1_556 S
C1479 H1471 0.950 . S
C1479 C1477 1.327 . S
C1480 C1468 1.349 . S
C1480 H1474 0.950 . S
C1480 C1481 1.327 . S
C1481 H1475 0.950 . S
C1481 C1480 1.327 . S
C1481 C1485 1.429 . S
C1482 C1465 1.574 . S
C1482 H1476 0.949 . S
C1482 C1486 1.368 1_556 S
C1483 C1464 1.429 . S
C1483 C1477 1.429 1_554 S
C1483 C1484 1.523 . S
C1484 C1465 1.368 1_554 S
C1484 C1478 1.368 . S
C1484 C1483 1.523 . S
C1485 C1469 1.429 1_554 S
C1485 C1481 1.429 . S
C1485 C1486 1.523 . S
C1486 C1470 1.368 . S
C1486 C1482 1.368 1_554 S
C1486 C1485 1.523 . S
H1487 C1462 0.950 . S
H1488 C1464 0.950 . S
H1489 C1465 0.949 . S
H1490 C1467 0.950 . S
H1491 C1469 0.950 . S
C1492 C1493 1.349 . S
C1492 C1494 1.327 . S
C1492 H1517 0.950 . S
C1493 C1492 1.349 . S
C1493 C1509 1.349 . S
C1494 C1492 1.327 . S
C1494 C1513 1.429 . S
C1494 H1518 0.950 . S
C1495 C1512 1.574 . S
C1495 C1514 1.368 . S
C1495 H1519 0.949 . S
H1496 C1500 0.949 . S
C1497 C1498 1.349 . S
C1497 C1499 1.327 . S
C1497 H1520 0.950 . S
C1498 C1497 1.349 . S
C1498 C1510 1.349 . S
C1499 C1497 1.327 . S
C1499 C1515 1.429 . S
C1499 H1521 0.950 . S
C1500 H1496 0.949 . S
C1500 C1508 1.574 . S
C1500 C1516 1.368 . S
H1501 C1509 0.950 . S
H1502 C1507 0.950 . S
H1503 C1508 0.949 . S
H1504 C1510 0.950 . S
H1505 C1511 0.950 . S
H1506 C1512 0.949 . S
C1507 H1502 0.950 . S
C1507 C1509 1.327 . S
C1507 C1513 1.429 . S
C1508 C1500 1.574 . S
C1508 H1503 0.949 . S
C1508 C1514 1.368 . S
C1509 C1493 1.349 . S
C1509 H1501 0.950 . S
C1509 C1507 1.327 . S
C1510 C1498 1.349 . S
C1510 H1504 0.950 . S
C1510 C1511 1.327 . S
C1511 H1505 0.950 . S
C1511 C1510 1.327 . S
C1511 C1515 1.429 . S
C1512 C1495 1.574 . S
C1512 H1506 0.949 . S
C1512 C1516 1.368 . S
C1513 C1494 1.429 . S
C1513 C1507 1.429 . S
C1513 C1514 1.523 . S
C1514 C1495 1.368 . S
C1514 C1508 1.368 . S
C1514 C1513 1.523 . S
C1515 C1499 1.429 . S
C1515 C1511 1.429 . S
C1515 C1516 1.523 . S
C1516 C1500 1.368 . S
C1516 C1512 1.368 . S
C1516 C1515 1.523 . S
H1517 C1492 0.950 . S
H1518 C1494 0.950 . S
H1519 C1495 0.949 . S
H1520 C1497 0.950 . S
H1521 C1499 0.950 . S
C1522 C1523 1.349 . S
C1522 C1524 1.327 . S
C1522 H1547 0.950 . S
C1523 C1522 1.349 . S
C1523 C1539 1.349 . S
C1524 C1522 1.327 . S
C1524 C1543 1.429 . S
C1524 H1548 0.950 . S
C1525 C1542 1.574 . S
C1525 C1544 1.368 . S
C1525 H1549 0.949 . S
H1526 C1530 0.949 . S
C1527 C1528 1.349 . S
C1527 C1529 1.327 . S
C1527 H1550 0.950 1_655 S
C1528 C1527 1.349 . S
C1528 C1540 1.349 . S
C1529 C1527 1.327 . S
C1529 C1545 1.429 . S
C1529 H1551 0.950 . S
C1530 H1526 0.949 . S
C1530 C1538 1.574 . S
C1530 C1546 1.368 . S
H1531 C1539 0.950 . S
H1532 C1537 0.950 . S
H1533 C1538 0.949 . S
H1534 C1540 0.950 . S
H1535 C1541 0.950 . S
H1536 C1542 0.949 . S
C1537 H1532 0.950 . S
C1537 C1539 1.327 . S
C1537 C1543 1.429 . S
C1538 C1530 1.574 . S
C1538 H1533 0.949 . S
C1538 C1544 1.368 . S
C1539 C1523 1.349 . S
C1539 H1531 0.950 . S
C1539 C1537 1.327 . S
C1540 C1528 1.349 . S
C1540 H1534 0.950 . S
C1540 C1541 1.327 . S
C1541 H1535 0.950 . S
C1541 C1540 1.327 . S
C1541 C1545 1.429 . S
C1542 C1525 1.574 . S
C1542 H1536 0.949 . S
C1542 C1546 1.368 . S
C1543 C1524 1.429 . S
C1543 C1537 1.429 . S
C1543 C1544 1.523 . S
C1544 C1525 1.368 . S
C1544 C1538 1.368 . S
C1544 C1543 1.523 . S
C1545 C1529 1.429 . S
C1545 C1541 1.429 . S
C1545 C1546 1.523 . S
C1546 C1530 1.368 . S
C1546 C1542 1.368 . S
C1546 C1545 1.523 . S
H1547 C1522 0.950 . S
H1548 C1524 0.950 . S
H1549 C1525 0.949 . S
H1550 C1527 0.950 1_455 S
H1551 C1529 0.950 . S
C1552 C1553 1.349 . S
C1552 C1554 1.327 . S
C1552 H1577 0.950 . S
C1553 C1552 1.349 . S
C1553 C1569 1.349 . S
C1554 C1552 1.327 . S
C1554 C1573 1.429 . S
C1554 H1578 0.950 . S
C1555 C1572 1.574 . S
C1555 C1574 1.368 . S
C1555 H1579 0.949 . S
H1556 C1560 0.949 . S
C1557 C1558 1.349 . S
C1557 C1559 1.327 . S
C1557 H1580 0.950 . S
C1558 C1557 1.349 . S
C1558 C1570 1.349 . S
C1559 C1557 1.327 . S
C1559 C1575 1.429 . S
C1559 H1581 0.950 . S
C1560 H1556 0.949 . S
C1560 C1568 1.574 . S
C1560 C1576 1.368 . S
H1561 C1569 0.950 . S
H1562 C1567 0.950 . S
H1563 C1568 0.949 . S
H1564 C1570 0.950 . S
H1565 C1571 0.950 . S
H1566 C1572 0.949 . S
C1567 H1562 0.950 . S
C1567 C1569 1.327 . S
C1567 C1573 1.429 . S
C1568 C1560 1.574 . S
C1568 H1563 0.949 . S
C1568 C1574 1.368 . S
C1569 C1553 1.349 . S
C1569 H1561 0.950 . S
C1569 C1567 1.327 . S
C1570 C1558 1.349 . S
C1570 H1564 0.950 . S
C1570 C1571 1.327 . S
C1571 H1565 0.950 . S
C1571 C1570 1.327 . S
C1571 C1575 1.429 . S
C1572 C1555 1.574 . S
C1572 H1566 0.949 . S
C1572 C1576 1.368 . S
C1573 C1554 1.429 . S
C1573 C1567 1.429 . S
C1573 C1574 1.523 . S
C1574 C1555 1.368 . S
C1574 C1568 1.368 . S
C1574 C1573 1.523 . S
C1575 C1559 1.429 . S
C1575 C1571 1.429 . S
C1575 C1576 1.523 . S
C1576 C1560 1.368 . S
C1576 C1572 1.368 . S
C1576 C1575 1.523 . S
H1577 C1552 0.950 . S
H1578 C1554 0.950 . S
H1579 C1555 0.949 . S
H1580 C1557 0.950 . S
H1581 C1559 0.950 . S
C1582 C1583 1.349 . S
C1582 C1584 1.327 . S
C1582 H1607 0.950 . S
C1583 C1582 1.349 . S
C1583 C1599 1.349 . S
C1584 C1582 1.327 . S
C1584 C1603 1.429 . S
C1584 H1608 0.950 . S
C1585 C1602 1.574 . S
C1585 C1604 1.368 . S
C1585 H1609 0.949 . S
H1586 C1590 0.949 . S
C1587 C1588 1.349 . S
C1587 C1589 1.327 . S
C1587 H1610 0.950 . S
C1588 C1587 1.349 . S
C1588 C1600 1.349 . S
C1589 C1587 1.327 . S
C1589 C1605 1.429 . S
C1589 H1611 0.950 . S
C1590 H1586 0.949 . S
C1590 C1598 1.574 . S
C1590 C1606 1.368 . S
H1591 C1599 0.950 . S
H1592 C1597 0.950 . S
H1593 C1598 0.949 . S
H1594 C1600 0.950 . S
H1595 C1601 0.950 . S
H1596 C1602 0.949 . S
C1597 H1592 0.950 . S
C1597 C1599 1.327 . S
C1597 C1603 1.429 . S
C1598 C1590 1.574 . S
C1598 H1593 0.949 . S
C1598 C1604 1.368 . S
C1599 C1583 1.349 . S
C1599 H1591 0.950 . S
C1599 C1597 1.327 . S
C1600 C1588 1.349 . S
C1600 H1594 0.950 . S
C1600 C1601 1.327 . S
C1601 H1595 0.950 . S
C1601 C1600 1.327 . S
C1601 C1605 1.429 . S
C1602 C1585 1.574 . S
C1602 H1596 0.949 . S
C1602 C1606 1.368 . S
C1603 C1584 1.429 . S
C1603 C1597 1.429 . S
C1603 C1604 1.523 . S
C1604 C1585 1.368 . S
C1604 C1598 1.368 . S
C1604 C1603 1.523 . S
C1605 C1589 1.429 . S
C1605 C1601 1.429 . S
C1605 C1606 1.523 . S
C1606 C1590 1.368 . S
C1606 C1602 1.368 . S
C1606 C1605 1.523 . S
H1607 C1582 0.950 . S
H1608 C1584 0.950 . S
H1609 C1585 0.949 . S
H1610 C1587 0.950 . S
H1611 C1589 0.950 . S
C1612 C1613 1.349 . S
C1612 C1614 1.327 . S
C1612 H1637 0.950 . S
C1613 C1612 1.349 . S
C1613 C1629 1.349 . S
C1614 C1612 1.327 . S
C1614 C1633 1.429 . S
C1614 H1638 0.950 . S
C1615 C1632 1.574 . S
C1615 C1634 1.368 . S
C1615 H1639 0.949 . S
H1616 C1620 0.949 . S
C1617 C1618 1.349 . S
C1617 C1619 1.327 . S
C1617 H1640 0.950 . S
C1618 C1617 1.349 . S
C1618 C1630 1.349 . S
C1619 C1617 1.327 . S
C1619 C1635 1.429 . S
C1619 H1641 0.950 . S
C1620 H1616 0.949 . S
C1620 C1628 1.574 . S
C1620 C1636 1.368 . S
H1621 C1629 0.950 . S
H1622 C1627 0.950 . S
H1623 C1628 0.949 . S
H1624 C1630 0.950 . S
H1625 C1631 0.950 . S
H1626 C1632 0.949 . S
C1627 H1622 0.950 . S
C1627 C1629 1.327 . S
C1627 C1633 1.429 . S
C1628 C1620 1.574 . S
C1628 H1623 0.949 . S
C1628 C1634 1.368 . S
C1629 C1613 1.349 . S
C1629 H1621 0.950 . S
C1629 C1627 1.327 . S
C1630 C1618 1.349 . S
C1630 H1624 0.950 . S
C1630 C1631 1.327 . S
C1631 H1625 0.950 . S
C1631 C1630 1.327 . S
C1631 C1635 1.429 . S
C1632 C1615 1.574 . S
C1632 H1626 0.949 . S
C1632 C1636 1.368 . S
C1633 C1614 1.429 . S
C1633 C1627 1.429 . S
C1633 C1634 1.523 . S
C1634 C1615 1.368 . S
C1634 C1628 1.368 . S
C1634 C1633 1.523 . S
C1635 C1619 1.429 . S
C1635 C1631 1.429 . S
C1635 C1636 1.523 . S
C1636 C1620 1.368 . S
C1636 C1632 1.368 . S
C1636 C1635 1.523 . S
H1637 C1612 0.950 . S
H1638 C1614 0.950 . S
H1639 C1615 0.949 . S
H1640 C1617 0.950 . S
H1641 C1619 0.950 . S
C1642 C1643 1.349 . S
C1642 C1644 1.327 . S
C1642 H1667 0.950 . S
C1643 C1642 1.349 . S
C1643 C1659 1.349 . S
C1644 C1642 1.327 . S
C1644 C1663 1.429 . S
C1644 H1668 0.950 . S
C1645 C1662 1.574 . S
C1645 C1664 1.368 . S
C1645 H1669 0.949 . S
H1646 C1650 0.949 . S
C1647 C1648 1.349 . S
C1647 C1649 1.327 . S
C1647 H1670 0.950 . S
C1648 C1647 1.349 . S
C1648 C1660 1.349 . S
C1649 C1647 1.327 . S
C1649 C1665 1.429 . S
C1649 H1671 0.950 . S
C1650 H1646 0.949 . S
C1650 C1658 1.574 . S
C1650 C1666 1.368 . S
H1651 C1659 0.950 . S
H1652 C1657 0.950 . S
H1653 C1658 0.949 . S
H1654 C1660 0.950 . S
H1655 C1661 0.950 . S
H1656 C1662 0.949 . S
C1657 H1652 0.950 . S
C1657 C1659 1.327 . S
C1657 C1663 1.429 . S
C1658 C1650 1.574 . S
C1658 H1653 0.949 . S
C1658 C1664 1.368 . S
C1659 C1643 1.349 . S
C1659 H1651 0.950 . S
C1659 C1657 1.327 . S
C1660 C1648 1.349 . S
C1660 H1654 0.950 . S
C1660 C1661 1.327 . S
C1661 H1655 0.950 . S
C1661 C1660 1.327 . S
C1661 C1665 1.429 . S
C1662 C1645 1.574 . S
C1662 H1656 0.949 . S
C1662 C1666 1.368 . S
C1663 C1644 1.429 . S
C1663 C1657 1.429 . S
C1663 C1664 1.523 . S
C1664 C1645 1.368 . S
C1664 C1658 1.368 . S
C1664 C1663 1.523 . S
C1665 C1649 1.429 . S
C1665 C1661 1.429 . S
C1665 C1666 1.523 . S
C1666 C1650 1.368 . S
C1666 C1662 1.368 . S
C1666 C1665 1.523 . S
H1667 C1642 0.950 . S
H1668 C1644 0.950 . S
H1669 C1645 0.949 . S
H1670 C1647 0.950 . S
H1671 C1649 0.950 . S
C1672 C1673 1.349 . S
C1672 C1674 1.327 . S
C1672 H1697 0.950 . S
C1673 C1672 1.349 . S
C1673 C1689 1.349 . S
C1674 C1672 1.327 . S
C1674 C1693 1.429 . S
C1674 H1698 0.950 . S
C1675 C1692 1.574 . S
C1675 C1694 1.368 . S
C1675 H1699 0.949 . S
H1676 C1680 0.949 . S
C1677 C1678 1.349 . S
C1677 C1679 1.327 . S
C1677 H1700 0.950 . S
C1678 C1677 1.349 . S
C1678 C1690 1.349 . S
C1679 C1677 1.327 . S
C1679 C1695 1.429 . S
C1679 H1701 0.950 . S
C1680 H1676 0.949 . S
C1680 C1688 1.574 . S
C1680 C1696 1.368 . S
H1681 C1689 0.950 . S
H1682 C1687 0.950 . S
H1683 C1688 0.949 . S
H1684 C1690 0.950 . S
H1685 C1691 0.950 . S
H1686 C1692 0.949 . S
C1687 H1682 0.950 . S
C1687 C1689 1.327 . S
C1687 C1693 1.429 . S
C1688 C1680 1.574 . S
C1688 H1683 0.949 . S
C1688 C1694 1.368 . S
C1689 C1673 1.349 . S
C1689 H1681 0.950 . S
C1689 C1687 1.327 . S
C1690 C1678 1.349 . S
C1690 H1684 0.950 . S
C1690 C1691 1.327 . S
C1691 H1685 0.950 . S
C1691 C1690 1.327 . S
C1691 C1695 1.429 . S
C1692 C1675 1.574 . S
C1692 H1686 0.949 . S
C1692 C1696 1.368 . S
C1693 C1674 1.429 . S
C1693 C1687 1.429 . S
C1693 C1694 1.523 . S
C1694 C1675 1.368 . S
C1694 C1688 1.368 . S
C1694 C1693 1.523 . S
C1695 C1679 1.429 . S
C1695 C1691 1.429 . S
C1695 C1696 1.523 . S
C1696 C1680 1.368 . S
C1696 C1692 1.368 . S
C1696 C1695 1.523 . S
H1697 C1672 0.950 . S
H1698 C1674 0.950 . S
H1699 C1675 0.949 . S
H1700 C1677 0.950 . S
H1701 C1679 0.950 . S
C1702 C1703 1.349 . S
C1702 C1704 1.327 . S
C1702 H1727 0.950 . S
C1703 C1702 1.349 . S
C1703 C1719 1.349 . S
C1704 C1702 1.327 . S
C1704 C1723 1.429 . S
C1704 H1728 0.950 . S
C1705 C1722 1.574 . S
C1705 C1724 1.368 . S
C1705 H1729 0.949 . S
H1706 C1710 0.949 . S
C1707 C1708 1.349 . S
C1707 C1709 1.327 . S
C1707 H1730 0.950 . S
C1708 C1707 1.349 . S
C1708 C1720 1.349 . S
C1709 C1707 1.327 . S
C1709 C1725 1.429 . S
C1709 H1731 0.950 . S
C1710 H1706 0.949 . S
C1710 C1718 1.574 . S
C1710 C1726 1.368 . S
H1711 C1719 0.950 . S
H1712 C1717 0.950 . S
H1713 C1718 0.949 . S
H1714 C1720 0.950 . S
H1715 C1721 0.950 . S
H1716 C1722 0.949 . S
C1717 H1712 0.950 . S
C1717 C1719 1.327 . S
C1717 C1723 1.429 . S
C1718 C1710 1.574 . S
C1718 H1713 0.949 . S
C1718 C1724 1.368 . S
C1719 C1703 1.349 . S
C1719 H1711 0.950 . S
C1719 C1717 1.327 . S
C1720 C1708 1.349 . S
C1720 H1714 0.950 . S
C1720 C1721 1.327 . S
C1721 H1715 0.950 . S
C1721 C1720 1.327 . S
C1721 C1725 1.429 . S
C1722 C1705 1.574 . S
C1722 H1716 0.949 . S
C1722 C1726 1.368 . S
C1723 C1704 1.429 . S
C1723 C1717 1.429 . S
C1723 C1724 1.523 . S
C1724 C1705 1.368 . S
C1724 C1718 1.368 . S
C1724 C1723 1.523 . S
C1725 C1709 1.429 . S
C1725 C1721 1.429 . S
C1725 C1726 1.523 . S
C1726 C1710 1.368 . S
C1726 C1722 1.368 . S
C1726 C1725 1.523 . S
H1727 C1702 0.950 . S
H1728 C1704 0.950 . S
H1729 C1705 0.949 . S
H1730 C1707 0.950 . S
H1731 C1709 0.950 . S
C1732 C1733 1.349 . S
C1732 C1734 1.327 . S
C1732 H1757 0.950 . S
C1733 C1732 1.349 . S
C1733 C1749 1.349 . S
C1734 C1732 1.327 . S
C1734 C1753 1.429 . S
C1734 H1758 0.950 . S
C1735 C1752 1.574 . S
C1735 C1754 1.368 . S
C1735 H1759 0.949 . S
H1736 C1740 0.949 . S
C1737 C1738 1.349 . S
C1737 C1739 1.327 . S
C1737 H1760 0.950 . S
C1738 C1737 1.349 . S
C1738 C1750 1.349 . S
C1739 C1737 1.327 . S
C1739 C1755 1.429 . S
C1739 H1761 0.950 . S
C1740 H1736 0.949 . S
C1740 C1748 1.574 . S
C1740 C1756 1.368 . S
H1741 C1749 0.950 . S
H1742 C1747 0.950 . S
H1743 C1748 0.949 . S
H1744 C1750 0.950 . S
H1745 C1751 0.950 . S
H1746 C1752 0.949 . S
C1747 H1742 0.950 . S
C1747 C1749 1.327 . S
C1747 C1753 1.429 . S
C1748 C1740 1.574 . S
C1748 H1743 0.949 . S
C1748 C1754 1.368 . S
C1749 C1733 1.349 . S
C1749 H1741 0.950 . S
C1749 C1747 1.327 . S
C1750 C1738 1.349 . S
C1750 H1744 0.950 . S
C1750 C1751 1.327 . S
C1751 H1745 0.950 . S
C1751 C1750 1.327 . S
C1751 C1755 1.429 . S
C1752 C1735 1.574 . S
C1752 H1746 0.949 . S
C1752 C1756 1.368 . S
C1753 C1734 1.429 . S
C1753 C1747 1.429 . S
C1753 C1754 1.523 . S
C1754 C1735 1.368 . S
C1754 C1748 1.368 . S
C1754 C1753 1.523 . S
C1755 C1739 1.429 . S
C1755 C1751 1.429 . S
C1755 C1756 1.523 . S
C1756 C1740 1.368 . S
C1756 C1752 1.368 . S
C1756 C1755 1.523 . S
H1757 C1732 0.950 . S
H1758 C1734 0.950 . S
H1759 C1735 0.949 . S
H1760 C1737 0.950 . S
H1761 C1739 0.950 . S
C1762 C1763 1.349 . S
C1762 C1764 1.327 . S
C1762 H1787 0.950 . S
C1763 C1762 1.349 . S
C1763 C1779 1.349 . S
C1764 C1762 1.327 . S
C1764 C1783 1.429 . S
C1764 H1788 0.950 . S
C1765 C1782 1.574 . S
C1765 C1784 1.368 . S
C1765 H1789 0.949 . S
H1766 C1770 0.949 . S
C1767 C1768 1.349 . S
C1767 C1769 1.327 . S
C1767 H1790 0.950 . S
C1768 C1767 1.349 . S
C1768 C1780 1.349 . S
C1769 C1767 1.327 . S
C1769 C1785 1.429 . S
C1769 H1791 0.950 . S
C1770 H1766 0.949 . S
C1770 C1778 1.574 . S
C1770 C1786 1.368 . S
H1771 C1779 0.950 . S
H1772 C1777 0.950 . S
H1773 C1778 0.949 . S
H1774 C1780 0.950 . S
H1775 C1781 0.950 . S
H1776 C1782 0.949 . S
C1777 H1772 0.950 . S
C1777 C1779 1.327 . S
C1777 C1783 1.429 . S
C1778 C1770 1.574 . S
C1778 H1773 0.949 . S
C1778 C1784 1.368 . S
C1779 C1763 1.349 . S
C1779 H1771 0.950 . S
C1779 C1777 1.327 . S
C1780 C1768 1.349 . S
C1780 H1774 0.950 . S
C1780 C1781 1.327 . S
C1781 H1775 0.950 . S
C1781 C1780 1.327 . S
C1781 C1785 1.429 . S
C1782 C1765 1.574 . S
C1782 H1776 0.949 . S
C1782 C1786 1.368 . S
C1783 C1764 1.429 . S
C1783 C1777 1.429 . S
C1783 C1784 1.523 . S
C1784 C1765 1.368 . S
C1784 C1778 1.368 . S
C1784 C1783 1.523 . S
C1785 C1769 1.429 . S
C1785 C1781 1.429 . S
C1785 C1786 1.523 . S
C1786 C1770 1.368 . S
C1786 C1782 1.368 . S
C1786 C1785 1.523 . S
H1787 C1762 0.950 . S
H1788 C1764 0.950 . S
H1789 C1765 0.949 . S
H1790 C1767 0.950 . S
H1791 C1769 0.950 . S
C1792 C1793 1.349 . S
C1792 C1794 1.327 . S
C1792 H1817 0.950 . S
C1793 C1792 1.349 . S
C1793 C1809 1.349 . S
C1794 C1792 1.327 . S
C1794 C1813 1.429 . S
C1794 H1818 0.950 . S
C1795 C1812 1.574 . S
C1795 C1814 1.368 . S
C1795 H1819 0.949 . S
H1796 C1800 0.949 . S
C1797 C1798 1.349 . S
C1797 C1799 1.327 . S
C1797 H1820 0.950 . S
C1798 C1797 1.349 . S
C1798 C1810 1.349 . S
C1799 C1797 1.327 . S
C1799 C1815 1.429 . S
C1799 H1821 0.950 . S
C1800 H1796 0.949 . S
C1800 C1808 1.574 . S
C1800 C1816 1.368 . S
H1801 C1809 0.950 . S
H1802 C1807 0.950 . S
H1803 C1808 0.949 . S
H1804 C1810 0.950 . S
H1805 C1811 0.950 . S
H1806 C1812 0.949 . S
C1807 H1802 0.950 . S
C1807 C1809 1.327 . S
C1807 C1813 1.429 . S
C1808 C1800 1.574 . S
C1808 H1803 0.949 . S
C1808 C1814 1.368 . S
C1809 C1793 1.349 . S
C1809 H1801 0.950 . S
C1809 C1807 1.327 . S
C1810 C1798 1.349 . S
C1810 H1804 0.950 . S
C1810 C1811 1.327 . S
C1811 H1805 0.950 . S
C1811 C1810 1.327 . S
C1811 C1815 1.429 . S
C1812 C1795 1.574 . S
C1812 H1806 0.949 . S
C1812 C1816 1.368 . S
C1813 C1794 1.429 . S
C1813 C1807 1.429 . S
C1813 C1814 1.523 . S
C1814 C1795 1.368 . S
C1814 C1808 1.368 . S
C1814 C1813 1.523 . S
C1815 C1799 1.429 . S
C1815 C1811 1.429 . S
C1815 C1816 1.523 . S
C1816 C1800 1.368 . S
C1816 C1812 1.368 . S
C1816 C1815 1.523 . S
H1817 C1792 0.950 . S
H1818 C1794 0.950 . S
H1819 C1795 0.949 . S
H1820 C1797 0.950 . S
H1821 C1799 0.950 . S
C1822 C1823 1.349 . S
C1822 C1824 1.327 . S
C1822 H1847 0.950 . S
C1823 C1822 1.349 . S
C1823 C1839 1.349 . S
C1824 C1822 1.327 . S
C1824 C1843 1.429 . S
C1824 H1848 0.950 . S
C1825 C1842 1.574 . S
C1825 C1844 1.368 . S
C1825 H1849 0.949 . S
H1826 C1830 0.949 . S
C1827 C1828 1.349 . S
C1827 C1829 1.327 . S
C1827 H1850 0.950 . S
C1828 C1827 1.349 . S
C1828 C1840 1.349 . S
C1829 C1827 1.327 . S
C1829 C1845 1.429 . S
C1829 H1851 0.950 . S
C1830 H1826 0.949 . S
C1830 C1838 1.574 . S
C1830 C1846 1.368 . S
H1831 C1839 0.950 . S
H1832 C1837 0.950 . S
H1833 C1838 0.949 . S
H1834 C1840 0.950 . S
H1835 C1841 0.950 . S
H1836 C1842 0.949 . S
C1837 H1832 0.950 . S
C1837 C1839 1.327 . S
C1837 C1843 1.429 . S
C1838 C1830 1.574 . S
C1838 H1833 0.949 . S
C1838 C1844 1.368 . S
C1839 C1823 1.349 . S
C1839 H1831 0.950 . S
C1839 C1837 1.327 . S
C1840 C1828 1.349 . S
C1840 H1834 0.950 . S
C1840 C1841 1.327 . S
C1841 H1835 0.950 . S
C1841 C1840 1.327 . S
C1841 C1845 1.429 . S
C1842 C1825 1.574 . S
C1842 H1836 0.949 . S
C1842 C1846 1.368 . S
C1843 C1824 1.429 . S
C1843 C1837 1.429 . S
C1843 C1844 1.523 . S
C1844 C1825 1.368 . S
C1844 C1838 1.368 . S
C1844 C1843 1.523 . S
C1845 C1829 1.429 . S
C1845 C1841 1.429 . S
C1845 C1846 1.523 . S
C1846 C1830 1.368 . S
C1846 C1842 1.368 . S
C1846 C1845 1.523 . S
H1847 C1822 0.950 . S
H1848 C1824 0.950 . S
H1849 C1825 0.949 . S
H1850 C1827 0.950 . S
H1851 C1829 0.950 . S
C1852 C1853 1.349 . S
C1852 C1854 1.327 . S
C1852 H1877 0.950 . S
C1853 C1852 1.349 . S
C1853 C1869 1.349 . S
C1854 C1852 1.327 . S
C1854 C1873 1.429 . S
C1854 H1878 0.950 . S
C1855 C1872 1.574 . S
C1855 C1874 1.368 . S
C1855 H1879 0.949 . S
H1856 C1860 0.949 . S
C1857 C1858 1.349 . S
C1857 C1859 1.327 . S
C1857 H1880 0.950 . S
C1858 C1857 1.349 . S
C1858 C1870 1.345 1_556 S
C1859 C1857 1.327 . S
C1859 C1875 1.429 . S
C1859 H1881 0.950 . S
C1860 H1856 0.949 . S
C1860 C1868 1.574 . S
C1860 C1876 1.368 . S
H1861 C1869 0.950 . S
H1862 C1867 0.950 . S
H1863 C1868 0.949 . S
H1864 C1870 0.958 . S
H1865 C1871 0.950 . S
H1866 C1872 0.949 . S
C1867 H1862 0.950 . S
C1867 C1869 1.327 . S
C1867 C1873 1.429 . S
C1868 C1860 1.574 . S
C1868 H1863 0.949 . S
C1868 C1874 1.368 . S
C1869 C1853 1.349 . S
C1869 H1861 0.950 . S
C1869 C1867 1.327 . S
C1870 C1858 1.345 1_554 S
C1870 H1864 0.958 . S
C1870 C1871 1.323 1_554 S
C1871 H1865 0.950 . S
C1871 C1870 1.323 1_556 S
C1871 C1875 1.429 . S
C1872 C1855 1.574 . S
C1872 H1866 0.949 . S
C1872 C1876 1.368 . S
C1873 C1854 1.429 . S
C1873 C1867 1.429 . S
C1873 C1874 1.523 . S
C1874 C1855 1.368 . S
C1874 C1868 1.368 . S
C1874 C1873 1.523 . S
C1875 C1859 1.429 . S
C1875 C1871 1.429 . S
C1875 C1876 1.523 . S
C1876 C1860 1.368 . S
C1876 C1872 1.368 . S
C1876 C1875 1.523 . S
H1877 C1852 0.950 . S
H1878 C1854 0.950 . S
H1879 C1855 0.949 . S
H1880 C1857 0.950 . S
H1881 C1859 0.950 . S
C1882 C1883 1.349 . S
C1882 C1884 1.327 . S
C1882 H1907 0.950 . S
C1883 C1882 1.349 . S
C1883 C1899 1.349 . S
C1884 C1882 1.327 . S
C1884 C1903 1.429 . S
C1884 H1908 0.950 . S
C1885 C1902 1.574 . S
C1885 C1904 1.368 . S
C1885 H1909 0.949 . S
H1886 C1890 0.949 . S
C1887 C1888 1.349 . S
C1887 C1889 1.327 . S
C1887 H1910 0.950 . S
C1888 C1887 1.349 . S
C1888 C1900 1.349 . S
C1889 C1887 1.327 . S
C1889 C1905 1.429 . S
C1889 H1911 0.950 . S
C1890 H1886 0.949 . S
C1890 C1898 1.574 . S
C1890 C1906 1.368 . S
H1891 C1899 0.950 . S
H1892 C1897 0.950 . S
H1893 C1898 0.949 . S
H1894 C1900 0.950 . S
H1895 C1901 0.950 . S
H1896 C1902 0.949 . S
C1897 H1892 0.950 . S
C1897 C1899 1.327 . S
C1897 C1903 1.429 . S
C1898 C1890 1.574 . S
C1898 H1893 0.949 . S
C1898 C1904 1.368 . S
C1899 C1883 1.349 . S
C1899 H1891 0.950 . S
C1899 C1897 1.327 . S
C1900 C1888 1.349 . S
C1900 H1894 0.950 . S
C1900 C1901 1.327 . S
C1901 H1895 0.950 . S
C1901 C1900 1.327 . S
C1901 C1905 1.429 . S
C1902 C1885 1.574 . S
C1902 H1896 0.949 . S
C1902 C1906 1.368 . S
C1903 C1884 1.429 . S
C1903 C1897 1.429 . S
C1903 C1904 1.523 . S
C1904 C1885 1.368 . S
C1904 C1898 1.368 . S
C1904 C1903 1.523 . S
C1905 C1889 1.429 . S
C1905 C1901 1.429 . S
C1905 C1906 1.523 . S
C1906 C1890 1.368 . S
C1906 C1902 1.368 . S
C1906 C1905 1.523 . S
H1907 C1882 0.950 . S
H1908 C1884 0.950 . S
H1909 C1885 0.949 . S
H1910 C1887 0.950 . S
H1911 C1889 0.950 . S
C1912 C1913 1.349 1_565 S
C1912 C1914 1.327 1_565 S
C1912 H1937 0.950 . S
C1913 C1912 1.349 1_545 S
C1913 C1929 1.349 . S
C1914 C1912 1.327 1_545 S
C1914 C1933 1.429 . S
C1914 H1938 0.949 1_545 S
C1915 C1932 1.574 . S
C1915 C1934 1.368 . S
C1915 H1939 0.949 . S
H1916 C1920 0.949 . S
C1917 C1918 1.349 . S
C1917 C1919 1.327 . S
C1917 H1940 0.950 . S
C1918 C1917 1.349 . S
C1918 C1930 1.349 . S
C1919 C1917 1.327 . S
C1919 C1935 1.429 . S
C1919 H1941 0.950 . S
C1920 H1916 0.949 . S
C1920 C1928 1.574 . S
C1920 C1936 1.368 . S
H1921 C1929 0.950 . S
H1922 C1927 0.950 . S
H1923 C1928 0.948 . S
H1924 C1930 0.950 . S
H1925 C1931 0.950 . S
H1926 C1932 0.949 . S
C1927 H1922 0.950 . S
C1927 C1929 1.327 . S
C1927 C1933 1.429 . S
C1928 C1920 1.574 . S
C1928 H1923 0.948 . S
C1928 C1934 1.368 . S
C1929 C1913 1.349 . S
C1929 H1921 0.950 . S
C1929 C1927 1.327 . S
C1930 C1918 1.349 . S
C1930 H1924 0.950 . S
C1930 C1931 1.327 . S
C1931 H1925 0.950 . S
C1931 C1930 1.327 . S
C1931 C1935 1.429 . S
C1932 C1915 1.574 . S
C1932 H1926 0.949 . S
C1932 C1936 1.368 . S
C1933 C1914 1.429 . S
C1933 C1927 1.429 . S
C1933 C1934 1.523 . S
C1934 C1915 1.368 . S
C1934 C1928 1.368 . S
C1934 C1933 1.523 . S
C1935 C1919 1.429 . S
C1935 C1931 1.429 . S
C1935 C1936 1.523 . S
C1936 C1920 1.368 . S
C1936 C1932 1.368 . S
C1936 C1935 1.523 . S
H1937 C1912 0.950 . S
H1938 C1914 0.949 1_565 S
H1939 C1915 0.949 . S
H1940 C1917 0.950 . S
H1941 C1919 0.950 . S
C1942 C1943 1.349 . S
C1942 C1944 1.327 . S
C1942 H1967 0.950 . S
C1943 C1942 1.349 . S
C1943 C1959 1.349 . S
C1944 C1942 1.327 . S
C1944 C1963 1.429 . S
C1944 H1968 0.950 . S
C1945 C1962 1.574 . S
C1945 C1964 1.368 . S
C1945 H1969 0.949 . S
H1946 C1950 0.949 . S
C1947 C1948 1.349 . S
C1947 C1949 1.327 . S
C1947 H1970 0.950 . S
C1948 C1947 1.349 . S
C1948 C1960 1.349 . S
C1949 C1947 1.327 . S
C1949 C1965 1.429 . S
C1949 H1971 0.950 . S
C1950 H1946 0.949 . S
C1950 C1958 1.574 . S
C1950 C1966 1.368 . S
H1951 C1959 0.950 . S
H1952 C1957 0.950 . S
H1953 C1958 0.949 . S
H1954 C1960 0.950 . S
H1955 C1961 0.950 . S
H1956 C1962 0.949 . S
C1957 H1952 0.950 . S
C1957 C1959 1.327 . S
C1957 C1963 1.429 . S
C1958 C1950 1.574 . S
C1958 H1953 0.949 . S
C1958 C1964 1.368 . S
C1959 C1943 1.349 . S
C1959 H1951 0.950 . S
C1959 C1957 1.327 . S
C1960 C1948 1.349 . S
C1960 H1954 0.950 . S
C1960 C1961 1.327 . S
C1961 H1955 0.950 . S
C1961 C1960 1.327 . S
C1961 C1965 1.429 . S
C1962 C1945 1.574 . S
C1962 H1956 0.949 . S
C1962 C1966 1.368 . S
C1963 C1944 1.429 . S
C1963 C1957 1.429 . S
C1963 C1964 1.523 . S
C1964 C1945 1.368 . S
C1964 C1958 1.368 . S
C1964 C1963 1.523 . S
C1965 C1949 1.429 . S
C1965 C1961 1.429 . S
C1965 C1966 1.523 . S
C1966 C1950 1.368 . S
C1966 C1962 1.368 . S
C1966 C1965 1.523 . S
H1967 C1942 0.950 . S
H1968 C1944 0.950 . S
H1969 C1945 0.949 . S
H1970 C1947 0.950 . S
H1971 C1949 0.950 . S
C1972 C1973 1.349 . S
C1972 C1974 1.327 . S
C1972 H1997 0.950 1_545 S
C1973 C1972 1.349 . S
C1973 C1989 1.349 . S
C1974 C1972 1.327 . S
C1974 C1993 1.429 . S
C1974 H1998 0.950 1_545 S
C1975 C1992 1.574 . S
C1975 C1994 1.368 . S
C1975 H1999 0.949 . S
H1976 C1980 0.949 . S
C1977 C1978 1.349 . S
C1977 C1979 1.327 . S
C1977 H2000 0.950 . S
C1978 C1977 1.349 . S
C1978 C1990 1.349 . S
C1979 C1977 1.327 . S
C1979 C1995 1.429 . S
C1979 H2001 0.950 . S
C1980 H1976 0.949 . S
C1980 C1988 1.574 . S
C1980 C1996 1.368 . S
H1981 C1989 0.950 . S
H1982 C1987 0.950 . S
H1983 C1988 0.949 1_565 S
H1984 C1990 0.950 . S
H1985 C1991 0.950 . S
H1986 C1992 0.949 . S
C1987 H1982 0.950 . S
C1987 C1989 1.327 . S
C1987 C1993 1.429 . S
C1988 C1980 1.574 . S
C1988 H1983 0.949 1_545 S
C1988 C1994 1.368 . S
C1989 C1973 1.349 . S
C1989 H1981 0.950 . S
C1989 C1987 1.327 . S
C1990 C1978 1.349 . S
C1990 H1984 0.950 . S
C1990 C1991 1.327 . S
C1991 H1985 0.950 . S
C1991 C1990 1.327 . S
C1991 C1995 1.429 . S
C1992 C1975 1.574 . S
C1992 H1986 0.949 . S
C1992 C1996 1.368 . S
C1993 C1974 1.429 . S
C1993 C1987 1.429 . S
C1993 C1994 1.523 . S
C1994 C1975 1.368 . S
C1994 C1988 1.368 . S
C1994 C1993 1.523 . S
C1995 C1979 1.429 . S
C1995 C1991 1.429 . S
C1995 C1996 1.523 . S
C1996 C1980 1.368 . S
C1996 C1992 1.368 . S
C1996 C1995 1.523 . S
H1997 C1972 0.950 1_565 S
H1998 C1974 0.950 1_565 S
H1999 C1975 0.949 . S
H2000 C1977 0.950 . S
H2001 C1979 0.950 . S
C2002 C2003 1.349 . S
C2002 C2004 1.327 . S
C2002 H2027 0.950 . S
C2003 C2002 1.349 . S
C2003 C2019 1.349 . S
C2004 C2002 1.327 . S
C2004 C2023 1.429 . S
C2004 H2028 0.950 . S
C2005 C2022 1.574 . S
C2005 C2024 1.368 . S
C2005 H2029 0.949 . S
H2006 C2010 0.949 . S
C2007 C2008 1.349 . S
C2007 C2009 1.327 . S
C2007 H2030 0.950 . S
C2008 C2007 1.349 . S
C2008 C2020 1.349 . S
C2009 C2007 1.327 . S
C2009 C2025 1.429 . S
C2009 H2031 0.950 . S
C2010 H2006 0.949 . S
C2010 C2018 1.574 . S
C2010 C2026 1.368 . S
H2011 C2019 0.950 . S
H2012 C2017 0.950 . S
H2013 C2018 0.949 . S
H2014 C2020 0.950 . S
H2015 C2021 0.950 . S
H2016 C2022 0.949 . S
C2017 H2012 0.950 . S
C2017 C2019 1.327 . S
C2017 C2023 1.429 . S
C2018 C2010 1.574 . S
C2018 H2013 0.949 . S
C2018 C2024 1.368 . S
C2019 C2003 1.349 . S
C2019 H2011 0.950 . S
C2019 C2017 1.327 . S
C2020 C2008 1.349 . S
C2020 H2014 0.950 . S
C2020 C2021 1.327 . S
C2021 H2015 0.950 . S
C2021 C2020 1.327 . S
C2021 C2025 1.429 . S
C2022 C2005 1.574 . S
C2022 H2016 0.949 . S
C2022 C2026 1.368 . S
C2023 C2004 1.429 . S
C2023 C2017 1.429 . S
C2023 C2024 1.523 . S
C2024 C2005 1.368 . S
C2024 C2018 1.368 . S
C2024 C2023 1.523 . S
C2025 C2009 1.429 . S
C2025 C2021 1.429 . S
C2025 C2026 1.523 . S
C2026 C2010 1.368 . S
C2026 C2022 1.368 . S
C2026 C2025 1.523 . S
H2027 C2002 0.950 . S
H2028 C2004 0.950 . S
H2029 C2005 0.949 . S
H2030 C2007 0.950 . S
H2031 C2009 0.950 . S
C2032 C2033 1.349 . S
C2032 C2034 1.327 . S
C2032 H2057 0.950 . S
C2033 C2032 1.349 . S
C2033 C2049 1.349 1_565 S
C2034 C2032 1.327 . S
C2034 C2053 1.429 1_565 S
C2034 H2058 0.950 . S
C2035 C2052 1.574 . S
C2035 C2054 1.368 . S
C2035 H2059 0.949 . S
H2036 C2040 0.949 1_565 S
C2037 C2038 1.349 . S
C2037 C2039 1.327 . S
C2037 H2060 0.950 . S
C2038 C2037 1.349 . S
C2038 C2050 1.349 . S
C2039 C2037 1.327 . S
C2039 C2055 1.429 . S
C2039 H2061 0.950 . S
C2040 H2036 0.949 1_545 S
C2040 C2048 1.574 1_545 S
C2040 C2056 1.368 . S
H2041 C2049 0.950 . S
H2042 C2047 0.950 . S
H2043 C2048 0.949 . S
H2044 C2050 0.950 . S
H2045 C2051 0.938 1_565 S
H2046 C2052 0.949 . S
C2047 H2042 0.950 . S
C2047 C2049 1.327 . S
C2047 C2053 1.429 . S
C2048 C2040 1.574 1_565 S
C2048 H2043 0.949 . S
C2048 C2054 1.368 1_565 S
C2049 C2033 1.349 1_545 S
C2049 H2041 0.950 . S
C2049 C2047 1.327 . S
C2050 C2038 1.349 . S
C2050 H2044 0.950 . S
C2050 C2051 1.327 . S
C2051 H2045 0.938 1_545 S
C2051 C2050 1.327 . S
C2051 C2055 1.429 . S
C2052 C2035 1.574 . S
C2052 H2046 0.949 . S
C2052 C2056 1.368 . S
C2053 C2034 1.429 1_545 S
C2053 C2047 1.429 . S
C2053 C2054 1.523 . S
C2054 C2035 1.368 . S
C2054 C2048 1.368 1_545 S
C2054 C2053 1.523 . S
C2055 C2039 1.429 . S
C2055 C2051 1.429 . S
C2055 C2056 1.523 . S
C2056 C2040 1.368 . S
C2056 C2052 1.368 . S
C2056 C2055 1.523 . S
H2057 C2032 0.950 . S
H2058 C2034 0.950 . S
H2059 C2035 0.949 . S
H2060 C2037 0.950 . S
H2061 C2039 0.950 . S
C2062 C2063 1.349 . S
C2062 C2064 1.327 . S
C2062 H2087 0.950 . S
C2063 C2062 1.349 . S
C2063 C2079 1.349 . S
C2064 C2062 1.327 . S
C2064 C2083 1.429 . S
C2064 H2088 0.950 . S
C2065 C2082 1.574 . S
C2065 C2084 1.368 . S
C2065 H2089 0.949 . S
H2066 C2070 0.949 . S
C2067 C2068 1.349 . S
C2067 C2069 1.327 . S
C2067 H2090 0.950 . S
C2068 C2067 1.349 . S
C2068 C2080 1.349 . S
C2069 C2067 1.327 . S
C2069 C2085 1.429 . S
C2069 H2091 0.950 . S
C2070 H2066 0.949 . S
C2070 C2078 1.574 . S
C2070 C2086 1.368 . S
H2071 C2079 0.950 . S
H2072 C2077 0.950 . S
H2073 C2078 0.949 . S
H2074 C2080 0.950 . S
H2075 C2081 0.950 . S
H2076 C2082 0.949 . S
C2077 H2072 0.950 . S
C2077 C2079 1.327 . S
C2077 C2083 1.429 . S
C2078 C2070 1.574 . S
C2078 H2073 0.949 . S
C2078 C2084 1.368 . S
C2079 C2063 1.349 . S
C2079 H2071 0.950 . S
C2079 C2077 1.327 . S
C2080 C2068 1.349 . S
C2080 H2074 0.950 . S
C2080 C2081 1.327 . S
C2081 H2075 0.950 . S
C2081 C2080 1.327 . S
C2081 C2085 1.429 . S
C2082 C2065 1.574 . S
C2082 H2076 0.949 . S
C2082 C2086 1.368 . S
C2083 C2064 1.429 . S
C2083 C2077 1.429 . S
C2083 C2084 1.523 . S
C2084 C2065 1.368 . S
C2084 C2078 1.368 . S
C2084 C2083 1.523 . S
C2085 C2069 1.429 . S
C2085 C2081 1.429 . S
C2085 C2086 1.523 . S
C2086 C2070 1.368 . S
C2086 C2082 1.368 . S
C2086 C2085 1.523 . S
H2087 C2062 0.950 . S
H2088 C2064 0.950 . S
H2089 C2065 0.949 . S
H2090 C2067 0.950 . S
H2091 C2069 0.950 . S
C2092 C2093 1.349 1_565 S
C2092 C2094 1.327 . S
C2092 H2117 0.950 . S
C2093 C2092 1.349 1_545 S
C2093 C2109 1.349 . S
C2094 C2092 1.327 . S
C2094 C2113 1.393 1_565 S
C2094 H2118 0.950 . S
C2095 C2112 1.574 . S
C2095 C2114 1.368 1_545 S
C2095 H2119 0.949 . S
H2096 C2100 0.949 . S
C2097 C2098 1.349 1_545 S
C2097 C2099 1.327 . S
C2097 H2120 0.950 . S
C2098 C2097 1.349 1_565 S
C2098 C2110 1.349 . S
C2099 C2097 1.327 . S
C2099 C2115 1.429 1_545 S
C2099 H2121 0.950 . S
C2100 H2096 0.949 . S
C2100 C2108 1.574 . S
C2100 C2116 1.368 . S
H2101 C2109 0.950 . S
H2102 C2107 0.950 . S
H2103 C2108 0.949 . S
H2104 C2110 0.950 . S
H2105 C2111 0.950 . S
H2106 C2112 0.949 . S
C2107 H2102 0.950 . S
C2107 C2109 1.327 . S
C2107 C2113 1.472 . S
C2108 C2100 1.574 . S
C2108 H2103 0.949 . S
C2108 C2114 1.368 . S
C2109 C2093 1.349 . S
C2109 H2101 0.950 . S
C2109 C2107 1.327 . S
C2110 C2098 1.349 . S
C2110 H2104 0.950 . S
C2110 C2111 1.327 . S
C2111 H2105 0.950 . S
C2111 C2110 1.327 . S
C2111 C2115 1.429 . S
C2112 C2095 1.574 . S
C2112 H2106 0.949 . S
C2112 C2116 1.368 1_545 S
C2113 C2094 1.393 1_545 S
C2113 C2107 1.472 . S
C2113 C2114 1.519 1_545 S
C2114 C2095 1.368 1_565 S
C2114 C2108 1.368 . S
C2114 C2113 1.519 1_565 S
C2115 C2099 1.429 1_565 S
C2115 C2111 1.429 . S
C2115 C2116 1.523 . S
C2116 C2100 1.368 . S
C2116 C2112 1.368 1_565 S
C2116 C2115 1.523 . S
H2117 C2092 0.950 . S
H2118 C2094 0.950 . S
H2119 C2095 0.949 . S
H2120 C2097 0.950 . S
H2121 C2099 0.950 . S
C2122 C2123 1.349 . S
C2122 C2124 1.327 . S
C2122 H2147 0.950 . S
C2123 C2122 1.349 . S
C2123 C2139 1.349 . S
C2124 C2122 1.327 . S
C2124 C2143 1.429 . S
C2124 H2148 0.950 . S
C2125 C2142 1.574 . S
C2125 C2144 1.368 . S
C2125 H2149 0.949 . S
H2126 C2130 0.949 . S
C2127 C2128 1.349 . S
C2127 C2129 1.327 . S
C2127 H2150 0.950 . S
C2128 C2127 1.349 . S
C2128 C2140 1.349 . S
C2129 C2127 1.327 . S
C2129 C2145 1.429 . S
C2129 H2151 0.950 . S
C2130 H2126 0.949 . S
C2130 C2138 1.574 . S
C2130 C2146 1.368 . S
H2131 C2139 0.950 . S
H2132 C2137 0.950 . S
H2133 C2138 0.949 . S
H2134 C2140 0.950 . S
H2135 C2141 0.950 . S
H2136 C2142 0.949 . S
C2137 H2132 0.950 . S
C2137 C2139 1.327 . S
C2137 C2143 1.429 . S
C2138 C2130 1.574 . S
C2138 H2133 0.949 . S
C2138 C2144 1.368 . S
C2139 C2123 1.349 . S
C2139 H2131 0.950 . S
C2139 C2137 1.327 . S
C2140 C2128 1.349 . S
C2140 H2134 0.950 . S
C2140 C2141 1.327 . S
C2141 H2135 0.950 . S
C2141 C2140 1.327 . S
C2141 C2145 1.429 . S
C2142 C2125 1.574 . S
C2142 H2136 0.949 . S
C2142 C2146 1.368 . S
C2143 C2124 1.429 . S
C2143 C2137 1.429 . S
C2143 C2144 1.523 . S
C2144 C2125 1.368 . S
C2144 C2138 1.368 . S
C2144 C2143 1.523 . S
C2145 C2129 1.429 . S
C2145 C2141 1.429 . S
C2145 C2146 1.523 . S
C2146 C2130 1.368 . S
C2146 C2142 1.368 . S
C2146 C2145 1.523 . S
H2147 C2122 0.950 . S
H2148 C2124 0.950 . S
H2149 C2125 0.949 . S
H2150 C2127 0.950 . S
H2151 C2129 0.950 . S
C2152 C2153 1.349 1_556 S
C2152 C2154 1.327 . S
C2152 H2177 0.950 . S
C2153 C2152 1.349 1_554 S
C2153 C2169 1.349 . S
C2154 C2152 1.327 . S
C2154 C2173 1.429 . S
C2154 H2178 0.950 . S
C2155 C2172 1.574 . S
C2155 C2174 1.368 . S
C2155 H2179 0.949 1_556 S
H2156 C2160 0.949 . S
C2157 C2158 1.349 . S
C2157 C2159 1.327 . S
C2157 H2180 0.950 . S
C2158 C2157 1.349 . S
C2158 C2170 1.349 . S
C2159 C2157 1.327 . S
C2159 C2175 1.429 . S
C2159 H2181 0.950 . S
C2160 H2156 0.949 . S
C2160 C2168 1.574 . S
C2160 C2176 1.368 . S
H2161 C2169 0.950 . S
H2162 C2167 0.950 . S
H2163 C2168 0.949 . S
H2164 C2170 0.950 . S
H2165 C2171 0.950 . S
H2166 C2172 0.949 . S
C2167 H2162 0.950 . S
C2167 C2169 1.327 . S
C2167 C2173 1.429 1_554 S
C2168 C2160 1.574 . S
C2168 H2163 0.949 . S
C2168 C2174 1.368 . S
C2169 C2153 1.349 . S
C2169 H2161 0.950 . S
C2169 C2167 1.327 . S
C2170 C2158 1.349 . S
C2170 H2164 0.950 . S
C2170 C2171 1.327 . S
C2171 H2165 0.950 . S
C2171 C2170 1.327 . S
C2171 C2175 1.429 . S
C2172 C2155 1.574 . S
C2172 H2166 0.949 . S
C2172 C2176 1.368 . S
C2173 C2154 1.429 . S
C2173 C2167 1.429 1_556 S
C2173 C2174 1.523 . S
C2174 C2155 1.368 . S
C2174 C2168 1.368 . S
C2174 C2173 1.523 . S
C2175 C2159 1.429 . S
C2175 C2171 1.429 . S
C2175 C2176 1.523 . S
C2176 C2160 1.368 . S
C2176 C2172 1.368 . S
C2176 C2175 1.523 . S
H2177 C2152 0.950 . S
H2178 C2154 0.950 . S
H2179 C2155 0.949 1_554 S
H2180 C2157 0.950 . S
H2181 C2159 0.950 . S
C2182 C2183 1.349 . S
C2182 C2184 1.327 . S
C2182 H2207 0.950 1_554 S
C2183 C2182 1.349 . S
C2183 C2199 1.349 . S
C2184 C2182 1.327 . S
C2184 C2203 1.429 . S
C2184 H2208 0.950 1_554 S
C2185 C2202 1.574 . S
C2185 C2204 1.368 . S
C2185 H2209 0.949 . S
H2186 C2190 0.949 1_556 S
C2187 C2188 1.349 . S
C2187 C2189 1.327 . S
C2187 H2210 0.950 . S
C2188 C2187 1.349 . S
C2188 C2200 1.349 . S
C2189 C2187 1.327 . S
C2189 C2205 1.429 . S
C2189 H2211 0.950 . S
C2190 H2186 0.949 1_554 S
C2190 C2198 1.574 . S
C2190 C2206 1.368 . S
H2191 C2199 0.950 . S
H2192 C2197 0.950 . S
H2193 C2198 0.949 1_556 S
H2194 C2200 0.950 1_556 S
H2195 C2201 0.950 1_556 S
H2196 C2202 0.949 . S
C2197 H2192 0.950 . S
C2197 C2199 1.327 . S
C2197 C2203 1.429 . S
C2198 C2190 1.574 . S
C2198 H2193 0.949 1_554 S
C2198 C2204 1.368 . S
C2199 C2183 1.349 . S
C2199 H2191 0.950 . S
C2199 C2197 1.327 . S
C2200 C2188 1.349 . S
C2200 H2194 0.950 1_554 S
C2200 C2201 1.327 . S
C2201 H2195 0.950 1_554 S
C2201 C2200 1.327 . S
C2201 C2205 1.429 . S
C2202 C2185 1.574 . S
C2202 H2196 0.949 . S
C2202 C2206 1.368 . S
C2203 C2184 1.429 . S
C2203 C2197 1.429 . S
C2203 C2204 1.523 . S
C2204 C2185 1.368 . S
C2204 C2198 1.368 . S
C2204 C2203 1.523 . S
C2205 C2189 1.429 . S
C2205 C2201 1.429 . S
C2205 C2206 1.523 . S
C2206 C2190 1.368 . S
C2206 C2202 1.368 . S
C2206 C2205 1.523 . S
H2207 C2182 0.950 1_556 S
H2208 C2184 0.950 1_556 S
H2209 C2185 0.949 . S
H2210 C2187 0.950 . S
H2211 C2189 0.950 . S
C2212 C2213 1.349 . S
C2212 C2214 1.327 . S
C2212 H2237 0.950 . S
C2213 C2212 1.349 . S
C2213 C2229 1.349 . S
C2214 C2212 1.327 . S
C2214 C2233 1.429 . S
C2214 H2238 0.950 . S
C2215 C2232 1.574 . S
C2215 C2234 1.368 . S
C2215 H2239 0.949 . S
H2216 C2220 0.949 . S
C2217 C2218 1.349 . S
C2217 C2219 1.327 . S
C2217 H2240 0.950 . S
C2218 C2217 1.349 . S
C2218 C2230 1.349 . S
C2219 C2217 1.327 . S
C2219 C2235 1.429 . S
C2219 H2241 0.950 . S
C2220 H2216 0.949 . S
C2220 C2228 1.574 . S
C2220 C2236 1.368 . S
H2221 C2229 0.950 . S
H2222 C2227 0.950 . S
H2223 C2228 0.949 . S
H2224 C2230 0.950 . S
H2225 C2231 0.950 . S
H2226 C2232 0.949 . S
C2227 H2222 0.950 . S
C2227 C2229 1.327 . S
C2227 C2233 1.429 . S
C2228 C2220 1.574 . S
C2228 H2223 0.949 . S
C2228 C2234 1.368 . S
C2229 C2213 1.349 . S
C2229 H2221 0.950 . S
C2229 C2227 1.327 . S
C2230 C2218 1.349 . S
C2230 H2224 0.950 . S
C2230 C2231 1.327 . S
C2231 H2225 0.950 . S
C2231 C2230 1.327 . S
C2231 C2235 1.429 . S
C2232 C2215 1.574 . S
C2232 H2226 0.949 . S
C2232 C2236 1.368 . S
C2233 C2214 1.429 . S
C2233 C2227 1.429 . S
C2233 C2234 1.523 . S
C2234 C2215 1.368 . S
C2234 C2228 1.368 . S
C2234 C2233 1.523 . S
C2235 C2219 1.429 . S
C2235 C2231 1.429 . S
C2235 C2236 1.523 . S
C2236 C2220 1.368 . S
C2236 C2232 1.368 . S
C2236 C2235 1.523 . S
H2237 C2212 0.950 . S
H2238 C2214 0.950 . S
H2239 C2215 0.949 . S
H2240 C2217 0.950 . S
H2241 C2219 0.950 . S
C2242 C2243 1.349 . S
C2242 C2244 1.327 . S
C2242 H2267 0.950 . S
C2243 C2242 1.349 . S
C2243 C2259 1.349 . S
C2244 C2242 1.327 . S
C2244 C2263 1.429 . S
C2244 H2268 0.950 . S
C2245 C2262 1.574 . S
C2245 C2264 1.368 . S
C2245 H2269 0.949 . S
H2246 C2250 0.949 . S
C2247 C2248 1.349 . S
C2247 C2249 1.327 . S
C2247 H2270 0.950 . S
C2248 C2247 1.349 . S
C2248 C2260 1.349 . S
C2249 C2247 1.327 . S
C2249 C2265 1.429 . S
C2249 H2271 0.950 . S
C2250 H2246 0.949 . S
C2250 C2258 1.574 . S
C2250 C2266 1.368 . S
H2251 C2259 0.950 . S
H2252 C2257 0.950 . S
H2253 C2258 0.949 . S
H2254 C2260 0.950 . S
H2255 C2261 0.950 . S
H2256 C2262 0.949 . S
C2257 H2252 0.950 . S
C2257 C2259 1.327 . S
C2257 C2263 1.429 . S
C2258 C2250 1.574 . S
C2258 H2253 0.949 . S
C2258 C2264 1.368 . S
C2259 C2243 1.349 . S
C2259 H2251 0.950 . S
C2259 C2257 1.327 . S
C2260 C2248 1.349 . S
C2260 H2254 0.950 . S
C2260 C2261 1.327 . S
C2261 H2255 0.950 . S
C2261 C2260 1.327 . S
C2261 C2265 1.429 . S
C2262 C2245 1.574 . S
C2262 H2256 0.949 . S
C2262 C2266 1.368 . S
C2263 C2244 1.429 . S
C2263 C2257 1.429 . S
C2263 C2264 1.523 . S
C2264 C2245 1.368 . S
C2264 C2258 1.368 . S
C2264 C2263 1.523 . S
C2265 C2249 1.429 . S
C2265 C2261 1.429 . S
C2265 C2266 1.523 . S
C2266 C2250 1.368 . S
C2266 C2262 1.368 . S
C2266 C2265 1.523 . S
H2267 C2242 0.950 . S
H2268 C2244 0.950 . S
H2269 C2245 0.949 . S
H2270 C2247 0.950 . S
H2271 C2249 0.950 . S
C2272 C2273 1.349 . S
C2272 C2274 1.327 1_545 S
C2272 H2297 0.950 . S
C2273 C2272 1.349 . S
C2273 C2289 1.349 . S
C2274 C2272 1.327 1_565 S
C2274 C2293 1.429 . S
C2274 H2298 0.950 . S
C2275 C2292 1.574 . S
C2275 C2294 1.368 . S
C2275 H2299 0.949 . S
H2276 C2280 0.949 . S
C2277 C2278 1.349 . S
C2277 C2279 1.327 . S
C2277 H2300 0.950 . S
C2278 C2277 1.349 . S
C2278 C2290 1.349 . S
C2279 C2277 1.327 . S
C2279 C2295 1.429 . S
C2279 H2301 0.950 . S
C2280 H2276 0.949 . S
C2280 C2288 1.574 . S
C2280 C2296 1.368 . S
H2281 C2289 0.950 . S
H2282 C2287 0.950 . S
H2283 C2288 0.949 . S
H2284 C2290 0.950 . S
H2285 C2291 0.950 . S
H2286 C2292 0.949 . S
C2287 H2282 0.950 . S
C2287 C2289 1.327 1_565 S
C2287 C2293 1.429 . S
C2288 C2280 1.574 . S
C2288 H2283 0.949 . S
C2288 C2294 1.368 . S
C2289 C2273 1.349 . S
C2289 H2281 0.950 . S
C2289 C2287 1.327 1_545 S
C2290 C2278 1.349 . S
C2290 H2284 0.950 . S
C2290 C2291 1.327 . S
C2291 H2285 0.950 . S
C2291 C2290 1.327 . S
C2291 C2295 1.429 . S
C2292 C2275 1.574 . S
C2292 H2286 0.949 . S
C2292 C2296 1.368 . S
C2293 C2274 1.429 . S
C2293 C2287 1.429 . S
C2293 C2294 1.523 . S
C2294 C2275 1.368 . S
C2294 C2288 1.368 . S
C2294 C2293 1.523 . S
C2295 C2279 1.429 . S
C2295 C2291 1.429 . S
C2295 C2296 1.523 . S
C2296 C2280 1.368 . S
C2296 C2292 1.368 . S
C2296 C2295 1.523 . S
H2297 C2272 0.950 . S
H2298 C2274 0.950 . S
H2299 C2275 0.949 . S
H2300 C2277 0.950 . S
H2301 C2279 0.950 . S
C2302 C2303 1.349 . S
C2302 C2304 1.327 . S
C2302 H2327 0.950 . S
C2303 C2302 1.349 . S
C2303 C2319 1.349 . S
C2304 C2302 1.327 . S
C2304 C2323 1.429 . S
C2304 H2328 0.950 . S
C2305 C2322 1.574 . S
C2305 C2324 1.368 . S
C2305 H2329 0.949 . S
H2306 C2310 0.949 . S
C2307 C2308 1.349 . S
C2307 C2309 1.327 . S
C2307 H2330 0.950 . S
C2308 C2307 1.349 . S
C2308 C2320 1.349 . S
C2309 C2307 1.327 . S
C2309 C2325 1.429 . S
C2309 H2331 0.950 . S
C2310 H2306 0.949 . S
C2310 C2318 1.574 . S
C2310 C2326 1.368 . S
H2311 C2319 0.950 . S
H2312 C2317 0.950 . S
H2313 C2318 0.949 . S
H2314 C2320 0.950 . S
H2315 C2321 0.950 . S
H2316 C2322 0.949 . S
C2317 H2312 0.950 . S
C2317 C2319 1.327 . S
C2317 C2323 1.429 . S
C2318 C2310 1.574 . S
C2318 H2313 0.949 . S
C2318 C2324 1.368 . S
C2319 C2303 1.349 . S
C2319 H2311 0.950 . S
C2319 C2317 1.327 . S
C2320 C2308 1.349 . S
C2320 H2314 0.950 . S
C2320 C2321 1.327 . S
C2321 H2315 0.950 . S
C2321 C2320 1.327 . S
C2321 C2325 1.429 . S
C2322 C2305 1.574 . S
C2322 H2316 0.949 . S
C2322 C2326 1.368 . S
C2323 C2304 1.429 . S
C2323 C2317 1.429 . S
C2323 C2324 1.523 . S
C2324 C2305 1.368 . S
C2324 C2318 1.368 . S
C2324 C2323 1.523 . S
C2325 C2309 1.429 . S
C2325 C2321 1.429 . S
C2325 C2326 1.523 . S
C2326 C2310 1.368 . S
C2326 C2322 1.368 . S
C2326 C2325 1.523 . S
H2327 C2302 0.950 . S
H2328 C2304 0.950 . S
H2329 C2305 0.949 . S
H2330 C2307 0.950 . S
H2331 C2309 0.950 . S
C2332 C2333 1.349 . S
C2332 C2334 1.327 . S
C2332 H2357 0.950 . S
C2333 C2332 1.349 . S
C2333 C2349 1.349 . S
C2334 C2332 1.327 . S
C2334 C2353 1.429 . S
C2334 H2358 0.950 . S
C2335 C2352 1.574 . S
C2335 C2354 1.368 . S
C2335 H2359 0.949 . S
H2336 C2340 0.949 . S
C2337 C2338 1.349 . S
C2337 C2339 1.327 . S
C2337 H2360 0.950 . S
C2338 C2337 1.349 . S
C2338 C2350 1.349 . S
C2339 C2337 1.327 . S
C2339 C2355 1.429 . S
C2339 H2361 0.950 . S
C2340 H2336 0.949 . S
C2340 C2348 1.574 . S
C2340 C2356 1.368 . S
H2341 C2349 0.950 . S
H2342 C2347 0.950 . S
H2343 C2348 0.949 . S
H2344 C2350 0.950 . S
H2345 C2351 0.950 . S
H2346 C2352 0.949 . S
C2347 H2342 0.950 . S
C2347 C2349 1.327 . S
C2347 C2353 1.429 . S
C2348 C2340 1.574 . S
C2348 H2343 0.949 . S
C2348 C2354 1.368 . S
C2349 C2333 1.349 . S
C2349 H2341 0.950 . S
C2349 C2347 1.327 . S
C2350 C2338 1.349 . S
C2350 H2344 0.950 . S
C2350 C2351 1.327 . S
C2351 H2345 0.950 . S
C2351 C2350 1.327 . S
C2351 C2355 1.429 . S
C2352 C2335 1.574 . S
C2352 H2346 0.949 . S
C2352 C2356 1.368 . S
C2353 C2334 1.429 . S
C2353 C2347 1.429 . S
C2353 C2354 1.523 . S
C2354 C2335 1.368 . S
C2354 C2348 1.368 . S
C2354 C2353 1.523 . S
C2355 C2339 1.429 . S
C2355 C2351 1.429 . S
C2355 C2356 1.523 . S
C2356 C2340 1.368 . S
C2356 C2352 1.368 . S
C2356 C2355 1.523 . S
H2357 C2332 0.950 . S
H2358 C2334 0.950 . S
H2359 C2335 0.949 . S
H2360 C2337 0.950 . S
H2361 C2339 0.950 . S
C2362 C2363 1.349 . S
C2362 C2364 1.327 . S
C2362 H2387 0.950 . S
C2363 C2362 1.349 . S
C2363 C2379 1.349 . S
C2364 C2362 1.327 . S
C2364 C2383 1.429 . S
C2364 H2388 0.950 . S
C2365 C2382 1.574 . S
C2365 C2384 1.368 . S
C2365 H2389 0.949 . S
H2366 C2370 0.949 . S
C2367 C2368 1.349 . S
C2367 C2369 1.327 . S
C2367 H2390 0.950 . S
C2368 C2367 1.349 . S
C2368 C2380 1.349 . S
C2369 C2367 1.327 . S
C2369 C2385 1.429 . S
C2369 H2391 0.950 . S
C2370 H2366 0.949 . S
C2370 C2378 1.574 . S
C2370 C2386 1.368 . S
H2371 C2379 0.950 . S
H2372 C2377 0.950 . S
H2373 C2378 0.949 . S
H2374 C2380 0.950 . S
H2375 C2381 0.950 . S
H2376 C2382 0.949 . S
C2377 H2372 0.950 . S
C2377 C2379 1.327 . S
C2377 C2383 1.429 . S
C2378 C2370 1.574 . S
C2378 H2373 0.949 . S
C2378 C2384 1.368 . S
C2379 C2363 1.349 . S
C2379 H2371 0.950 . S
C2379 C2377 1.327 . S
C2380 C2368 1.349 . S
C2380 H2374 0.950 . S
C2380 C2381 1.327 . S
C2381 H2375 0.950 . S
C2381 C2380 1.327 . S
C2381 C2385 1.429 . S
C2382 C2365 1.574 . S
C2382 H2376 0.949 . S
C2382 C2386 1.368 . S
C2383 C2364 1.429 . S
C2383 C2377 1.429 . S
C2383 C2384 1.523 . S
C2384 C2365 1.368 . S
C2384 C2378 1.368 . S
C2384 C2383 1.523 . S
C2385 C2369 1.429 . S
C2385 C2381 1.429 . S
C2385 C2386 1.523 . S
C2386 C2370 1.368 . S
C2386 C2382 1.368 . S
C2386 C2385 1.523 . S
H2387 C2362 0.950 . S
H2388 C2364 0.950 . S
H2389 C2365 0.949 . S
H2390 C2367 0.950 . S
H2391 C2369 0.950 . S
C2392 C2393 1.349 . S
C2392 C2394 1.327 . S
C2392 H2417 0.950 . S
C2393 C2392 1.349 . S
C2393 C2409 1.349 . S
C2394 C2392 1.327 . S
C2394 C2413 1.429 . S
C2394 H2418 0.950 . S
C2395 C2412 1.574 . S
C2395 C2414 1.368 . S
C2395 H2419 0.949 . S
H2396 C2400 0.949 . S
C2397 C2398 1.349 . S
C2397 C2399 1.327 . S
C2397 H2420 0.950 . S
C2398 C2397 1.349 . S
C2398 C2410 1.349 . S
C2399 C2397 1.327 . S
C2399 C2415 1.429 . S
C2399 H2421 0.950 . S
C2400 H2396 0.949 . S
C2400 C2408 1.574 . S
C2400 C2416 1.368 . S
H2401 C2409 0.950 . S
H2402 C2407 0.950 . S
H2403 C2408 0.949 . S
H2404 C2410 0.950 . S
H2405 C2411 0.950 . S
H2406 C2412 0.949 . S
C2407 H2402 0.950 . S
C2407 C2409 1.327 . S
C2407 C2413 1.429 . S
C2408 C2400 1.574 . S
C2408 H2403 0.949 . S
C2408 C2414 1.368 . S
C2409 C2393 1.349 . S
C2409 H2401 0.950 . S
C2409 C2407 1.327 . S
C2410 C2398 1.349 . S
C2410 H2404 0.950 . S
C2410 C2411 1.327 . S
C2411 H2405 0.950 . S
C2411 C2410 1.327 . S
C2411 C2415 1.429 . S
C2412 C2395 1.574 . S
C2412 H2406 0.949 . S
C2412 C2416 1.368 . S
C2413 C2394 1.429 . S
C2413 C2407 1.429 . S
C2413 C2414 1.523 . S
C2414 C2395 1.368 . S
C2414 C2408 1.368 . S
C2414 C2413 1.523 . S
C2415 C2399 1.429 . S
C2415 C2411 1.429 . S
C2415 C2416 1.523 . S
C2416 C2400 1.368 . S
C2416 C2412 1.368 . S
C2416 C2415 1.523 . S
H2417 C2392 0.950 . S
H2418 C2394 0.950 . S
H2419 C2395 0.949 . S
H2420 C2397 0.950 . S
H2421 C2399 0.950 . S
C2422 C2423 1.349 . S
C2422 C2424 1.327 . S
C2422 H2447 0.950 . S
C2423 C2422 1.349 . S
C2423 C2439 1.349 . S
C2424 C2422 1.327 . S
C2424 C2443 1.429 . S
C2424 H2448 0.950 . S
C2425 C2442 1.574 . S
C2425 C2444 1.368 . S
C2425 H2449 0.949 . S
H2426 C2430 0.949 . S
C2427 C2428 1.349 . S
C2427 C2429 1.327 . S
C2427 H2450 0.950 . S
C2428 C2427 1.349 . S
C2428 C2440 1.349 . S
C2429 C2427 1.327 . S
C2429 C2445 1.429 . S
C2429 H2451 0.950 . S
C2430 H2426 0.949 . S
C2430 C2438 1.574 . S
C2430 C2446 1.368 . S
H2431 C2439 0.950 . S
H2432 C2437 0.950 . S
H2433 C2438 0.949 . S
H2434 C2440 0.950 . S
H2435 C2441 0.950 . S
H2436 C2442 0.949 . S
C2437 H2432 0.950 . S
C2437 C2439 1.327 . S
C2437 C2443 1.429 . S
C2438 C2430 1.574 . S
C2438 H2433 0.949 . S
C2438 C2444 1.368 . S
C2439 C2423 1.349 . S
C2439 H2431 0.950 . S
C2439 C2437 1.327 . S
C2440 C2428 1.349 . S
C2440 H2434 0.950 . S
C2440 C2441 1.327 . S
C2441 H2435 0.950 . S
C2441 C2440 1.327 . S
C2441 C2445 1.429 . S
C2442 C2425 1.574 . S
C2442 H2436 0.949 . S
C2442 C2446 1.368 . S
C2443 C2424 1.429 . S
C2443 C2437 1.429 . S
C2443 C2444 1.523 . S
C2444 C2425 1.368 . S
C2444 C2438 1.368 . S
C2444 C2443 1.523 . S
C2445 C2429 1.429 . S
C2445 C2441 1.429 . S
C2445 C2446 1.523 . S
C2446 C2430 1.368 . S
C2446 C2442 1.368 . S
C2446 C2445 1.523 . S
H2447 C2422 0.950 . S
H2448 C2424 0.950 . S
H2449 C2425 0.949 . S
H2450 C2427 0.950 . S
H2451 C2429 0.950 . S
C2452 C2453 1.349 . S
C2452 C2454 1.327 . S
C2452 H2477 0.950 . S
C2453 C2452 1.349 . S
C2453 C2469 1.349 . S
C2454 C2452 1.327 . S
C2454 C2473 1.429 . S
C2454 H2478 0.950 . S
C2455 C2472 1.574 . S
C2455 C2474 1.368 . S
C2455 H2479 0.949 . S
H2456 C2460 0.949 1_554 S
C2457 C2458 1.349 . S
C2457 C2459 1.327 . S
C2457 H2480 0.950 . S
C2458 C2457 1.349 . S
C2458 C2470 1.349 1_556 S
C2459 C2457 1.327 . S
C2459 C2475 1.429 . S
C2459 H2481 0.950 . S
C2460 H2456 0.949 1_556 S
C2460 C2468 1.574 . S
C2460 C2476 1.368 . S
H2461 C2469 0.950 . S
H2462 C2467 0.950 . S
H2463 C2468 0.949 . S
H2464 C2470 0.950 . S
H2465 C2471 0.950 . S
H2466 C2472 0.949 . S
C2467 H2462 0.950 . S
C2467 C2469 1.327 . S
C2467 C2473 1.429 . S
C2468 C2460 1.574 . S
C2468 H2463 0.949 . S
C2468 C2474 1.368 . S
C2469 C2453 1.349 . S
C2469 H2461 0.950 . S
C2469 C2467 1.327 . S
C2470 C2458 1.349 1_554 S
C2470 H2464 0.950 . S
C2470 C2471 1.327 . S
C2471 H2465 0.950 . S
C2471 C2470 1.327 . S
C2471 C2475 1.429 1_554 S
C2472 C2455 1.574 . S
C2472 H2466 0.949 . S
C2472 C2476 1.368 . S
C2473 C2454 1.429 . S
C2473 C2467 1.429 . S
C2473 C2474 1.523 . S
C2474 C2455 1.368 . S
C2474 C2468 1.368 . S
C2474 C2473 1.523 . S
C2475 C2459 1.429 . S
C2475 C2471 1.429 1_556 S
C2475 C2476 1.523 . S
C2476 C2460 1.368 . S
C2476 C2472 1.368 . S
C2476 C2475 1.523 . S
H2477 C2452 0.950 . S
H2478 C2454 0.950 . S
H2479 C2455 0.949 . S
H2480 C2457 0.950 . S
H2481 C2459 0.950 . S
C2482 C2483 1.349 . S
C2482 C2484 1.327 1_455 S
C2482 H2507 0.950 . S
C2483 C2482 1.349 . S
C2483 C2499 1.349 . S
C2484 C2482 1.327 1_655 S
C2484 C2503 1.429 . S
C2484 H2508 0.950 . S
C2485 C2502 1.574 . S
C2485 C2504 1.368 . S
C2485 H2509 0.949 . S
H2486 C2490 0.949 . S
C2487 C2488 1.349 . S
C2487 C2489 1.327 . S
C2487 H2510 0.950 . S
C2488 C2487 1.349 . S
C2488 C2500 1.349 . S
C2489 C2487 1.327 . S
C2489 C2505 1.429 . S
C2489 H2511 0.950 . S
C2490 H2486 0.949 . S
C2490 C2498 1.574 . S
C2490 C2506 1.368 . S
H2491 C2499 0.950 . S
H2492 C2497 0.950 . S
H2493 C2498 0.949 . S
H2494 C2500 0.950 . S
H2495 C2501 0.950 . S
H2496 C2502 0.949 . S
C2497 H2492 0.950 . S
C2497 C2499 1.327 1_655 S
C2497 C2503 1.429 . S
C2498 C2490 1.574 . S
C2498 H2493 0.949 . S
C2498 C2504 1.368 . S
C2499 C2483 1.349 . S
C2499 H2491 0.950 . S
C2499 C2497 1.327 1_455 S
C2500 C2488 1.349 . S
C2500 H2494 0.950 . S
C2500 C2501 1.327 . S
C2501 H2495 0.950 . S
C2501 C2500 1.327 . S
C2501 C2505 1.429 . S
C2502 C2485 1.574 . S
C2502 H2496 0.949 . S
C2502 C2506 1.368 . S
C2503 C2484 1.429 . S
C2503 C2497 1.429 . S
C2503 C2504 1.523 . S
C2504 C2485 1.368 . S
C2504 C2498 1.368 . S
C2504 C2503 1.523 . S
C2505 C2489 1.429 . S
C2505 C2501 1.429 . S
C2505 C2506 1.523 . S
C2506 C2490 1.368 . S
C2506 C2502 1.368 . S
C2506 C2505 1.523 . S
H2507 C2482 0.950 . S
H2508 C2484 0.950 . S
H2509 C2485 0.949 . S
H2510 C2487 0.950 . S
H2511 C2489 0.950 . S
C2512 C2513 1.349 . S
C2512 C2514 1.327 . S
C2512 H2537 0.950 . S
C2513 C2512 1.349 . S
C2513 C2529 1.349 . S
C2514 C2512 1.327 . S
C2514 C2533 1.429 . S
C2514 H2538 0.950 . S
C2515 C2532 1.574 . S
C2515 C2534 1.368 . S
C2515 H2539 0.949 . S
H2516 C2520 0.949 . S
C2517 C2518 1.349 . S
C2517 C2519 1.327 . S
C2517 H2540 0.950 . S
C2518 C2517 1.349 . S
C2518 C2530 1.349 . S
C2519 C2517 1.327 . S
C2519 C2535 1.429 . S
C2519 H2541 0.950 . S
C2520 H2516 0.949 . S
C2520 C2528 1.574 . S
C2520 C2536 1.368 . S
H2521 C2529 0.950 . S
H2522 C2527 0.950 . S
H2523 C2528 0.949 . S
H2524 C2530 0.950 . S
H2525 C2531 0.950 . S
H2526 C2532 0.949 . S
C2527 H2522 0.950 . S
C2527 C2529 1.327 . S
C2527 C2533 1.429 . S
C2528 C2520 1.574 . S
C2528 H2523 0.949 . S
C2528 C2534 1.368 . S
C2529 C2513 1.349 . S
C2529 H2521 0.950 . S
C2529 C2527 1.327 . S
C2530 C2518 1.349 . S
C2530 H2524 0.950 . S
C2530 C2531 1.327 . S
C2531 H2525 0.950 . S
C2531 C2530 1.327 . S
C2531 C2535 1.429 . S
C2532 C2515 1.574 . S
C2532 H2526 0.949 . S
C2532 C2536 1.368 . S
C2533 C2514 1.429 . S
C2533 C2527 1.429 . S
C2533 C2534 1.523 . S
C2534 C2515 1.368 . S
C2534 C2528 1.368 . S
C2534 C2533 1.523 . S
C2535 C2519 1.429 . S
C2535 C2531 1.429 . S
C2535 C2536 1.523 . S
C2536 C2520 1.368 . S
C2536 C2532 1.368 . S
C2536 C2535 1.523 . S
H2537 C2512 0.950 . S
H2538 C2514 0.950 . S
H2539 C2515 0.949 . S
H2540 C2517 0.950 . S
H2541 C2519 0.950 . S
C2542 C2543 1.349 . S
C2542 C2544 1.327 . S
C2542 H2567 0.950 . S
C2543 C2542 1.349 . S
C2543 C2559 1.349 . S
C2544 C2542 1.327 . S
C2544 C2563 1.429 . S
C2544 H2568 0.942 1_455 S
C2545 C2562 1.574 . S
C2545 C2564 1.368 . S
C2545 H2569 0.949 . S
H2546 C2550 0.949 . S
C2547 C2548 1.349 . S
C2547 C2549 1.327 . S
C2547 H2570 0.950 . S
C2548 C2547 1.349 . S
C2548 C2560 1.349 . S
C2549 C2547 1.327 . S
C2549 C2565 1.429 . S
C2549 H2571 0.950 . S
C2550 H2546 0.949 . S
C2550 C2558 1.574 . S
C2550 C2566 1.368 . S
H2551 C2559 0.950 . S
H2552 C2557 0.950 . S
H2553 C2558 0.949 . S
H2554 C2560 0.950 . S
H2555 C2561 0.950 . S
H2556 C2562 0.949 . S
C2557 H2552 0.950 . S
C2557 C2559 1.327 . S
C2557 C2563 1.429 . S
C2558 C2550 1.574 . S
C2558 H2553 0.949 . S
C2558 C2564 1.368 . S
C2559 C2543 1.349 . S
C2559 H2551 0.950 . S
C2559 C2557 1.327 . S
C2560 C2548 1.349 . S
C2560 H2554 0.950 . S
C2560 C2561 1.327 . S
C2561 H2555 0.950 . S
C2561 C2560 1.327 . S
C2561 C2565 1.429 . S
C2562 C2545 1.574 . S
C2562 H2556 0.949 . S
C2562 C2566 1.368 . S
C2563 C2544 1.429 . S
C2563 C2557 1.429 . S
C2563 C2564 1.523 1_455 S
C2564 C2545 1.368 . S
C2564 C2558 1.368 . S
C2564 C2563 1.523 1_655 S
C2565 C2549 1.429 . S
C2565 C2561 1.429 . S
C2565 C2566 1.523 . S
C2566 C2550 1.368 . S
C2566 C2562 1.368 . S
C2566 C2565 1.523 . S
H2567 C2542 0.950 . S
H2568 C2544 0.942 1_655 S
H2569 C2545 0.949 . S
H2570 C2547 0.950 . S
H2571 C2549 0.950 . S
C2572 C2573 1.349 . S
C2572 C2574 1.327 . S
C2572 H2597 0.950 . S
C2573 C2572 1.349 . S
C2573 C2589 1.349 1_655 S
C2574 C2572 1.327 . S
C2574 C2593 1.429 1_655 S
C2574 H2598 0.950 . S
C2575 C2592 1.574 . S
C2575 C2594 1.368 . S
C2575 H2599 0.949 . S
H2576 C2580 0.949 . S
C2577 C2578 1.349 . S
C2577 C2579 1.327 . S
C2577 H2600 0.950 . S
C2578 C2577 1.349 . S
C2578 C2590 1.349 . S
C2579 C2577 1.327 . S
C2579 C2595 1.429 . S
C2579 H2601 0.950 . S
C2580 H2576 0.949 . S
C2580 C2588 1.574 . S
C2580 C2596 1.368 . S
H2581 C2589 0.950 . S
H2582 C2587 0.950 . S
H2583 C2588 0.952 . S
H2584 C2590 0.950 . S
H2585 C2591 0.950 . S
H2586 C2592 0.949 . S
C2587 H2582 0.950 . S
C2587 C2589 1.327 . S
C2587 C2593 1.429 . S
C2588 C2580 1.574 . S
C2588 H2583 0.952 . S
C2588 C2594 1.368 . S
C2589 C2573 1.349 1_455 S
C2589 H2581 0.950 . S
C2589 C2587 1.327 . S
C2590 C2578 1.349 . S
C2590 H2584 0.950 . S
C2590 C2591 1.327 . S
C2591 H2585 0.950 . S
C2591 C2590 1.327 . S
C2591 C2595 1.429 . S
C2592 C2575 1.574 . S
C2592 H2586 0.949 . S
C2592 C2596 1.368 . S
C2593 C2574 1.429 1_455 S
C2593 C2587 1.429 . S
C2593 C2594 1.523 . S
C2594 C2575 1.368 . S
C2594 C2588 1.368 . S
C2594 C2593 1.523 . S
C2595 C2579 1.429 . S
C2595 C2591 1.429 . S
C2595 C2596 1.523 . S
C2596 C2580 1.368 . S
C2596 C2592 1.368 . S
C2596 C2595 1.523 . S
H2597 C2572 0.950 . S
H2598 C2574 0.950 . S
H2599 C2575 0.949 . S
H2600 C2577 0.950 . S
H2601 C2579 0.950 . S
C2602 C2603 1.349 . S
C2602 C2604 1.327 . S
C2602 H2627 0.950 . S
C2603 C2602 1.349 . S
C2603 C2619 1.349 . S
C2604 C2602 1.327 . S
C2604 C2623 1.429 . S
C2604 H2628 0.950 . S
C2605 C2622 1.574 . S
C2605 C2624 1.368 . S
C2605 H2629 0.949 . S
H2606 C2610 0.949 . S
C2607 C2608 1.349 . S
C2607 C2609 1.327 . S
C2607 H2630 0.950 . S
C2608 C2607 1.349 . S
C2608 C2620 1.349 . S
C2609 C2607 1.327 . S
C2609 C2625 1.429 . S
C2609 H2631 0.950 . S
C2610 H2606 0.949 . S
C2610 C2618 1.574 . S
C2610 C2626 1.368 . S
H2611 C2619 0.950 . S
H2612 C2617 0.950 . S
H2613 C2618 0.949 . S
H2614 C2620 0.950 . S
H2615 C2621 0.950 . S
H2616 C2622 0.949 . S
C2617 H2612 0.950 . S
C2617 C2619 1.327 . S
C2617 C2623 1.429 . S
C2618 C2610 1.574 . S
C2618 H2613 0.949 . S
C2618 C2624 1.368 . S
C2619 C2603 1.349 . S
C2619 H2611 0.950 . S
C2619 C2617 1.327 . S
C2620 C2608 1.349 . S
C2620 H2614 0.950 . S
C2620 C2621 1.327 . S
C2621 H2615 0.950 . S
C2621 C2620 1.327 . S
C2621 C2625 1.429 . S
C2622 C2605 1.574 . S
C2622 H2616 0.949 . S
C2622 C2626 1.368 . S
C2623 C2604 1.429 . S
C2623 C2617 1.429 . S
C2623 C2624 1.523 . S
C2624 C2605 1.368 . S
C2624 C2618 1.368 . S
C2624 C2623 1.523 . S
C2625 C2609 1.429 . S
C2625 C2621 1.429 . S
C2625 C2626 1.523 . S
C2626 C2610 1.368 . S
C2626 C2622 1.368 . S
C2626 C2625 1.523 . S
H2627 C2602 0.950 . S
H2628 C2604 0.950 . S
H2629 C2605 0.949 . S
H2630 C2607 0.950 . S
H2631 C2609 0.950 . S
C2632 C2633 1.349 . S
C2632 C2634 1.327 . S
C2632 H2657 0.950 . S
C2633 C2632 1.349 . S
C2633 C2649 1.349 . S
C2634 C2632 1.327 . S
C2634 C2653 1.429 . S
C2634 H2658 0.950 . S
C2635 C2652 1.574 . S
C2635 C2654 1.368 . S
C2635 H2659 0.949 . S
H2636 C2640 0.949 . S
C2637 C2638 1.349 . S
C2637 C2639 1.327 . S
C2637 H2660 0.950 . S
C2638 C2637 1.349 . S
C2638 C2650 1.349 . S
C2639 C2637 1.327 . S
C2639 C2655 1.429 . S
C2639 H2661 0.950 . S
C2640 H2636 0.949 . S
C2640 C2648 1.574 . S
C2640 C2656 1.368 . S
H2641 C2649 0.950 . S
H2642 C2647 0.950 . S
H2643 C2648 0.949 . S
H2644 C2650 0.950 . S
H2645 C2651 0.950 . S
H2646 C2652 0.949 . S
C2647 H2642 0.950 . S
C2647 C2649 1.327 . S
C2647 C2653 1.429 . S
C2648 C2640 1.574 . S
C2648 H2643 0.949 . S
C2648 C2654 1.368 . S
C2649 C2633 1.349 . S
C2649 H2641 0.950 . S
C2649 C2647 1.327 . S
C2650 C2638 1.349 . S
C2650 H2644 0.950 . S
C2650 C2651 1.327 . S
C2651 H2645 0.950 . S
C2651 C2650 1.327 . S
C2651 C2655 1.429 . S
C2652 C2635 1.574 . S
C2652 H2646 0.949 . S
C2652 C2656 1.368 . S
C2653 C2634 1.429 . S
C2653 C2647 1.429 . S
C2653 C2654 1.523 . S
C2654 C2635 1.368 . S
C2654 C2648 1.368 . S
C2654 C2653 1.523 . S
C2655 C2639 1.429 . S
C2655 C2651 1.429 . S
C2655 C2656 1.523 . S
C2656 C2640 1.368 . S
C2656 C2652 1.368 . S
C2656 C2655 1.523 . S
H2657 C2632 0.950 . S
H2658 C2634 0.950 . S
H2659 C2635 0.949 . S
H2660 C2637 0.950 . S
H2661 C2639 0.950 . S
C2662 C2663 1.349 . S
C2662 C2664 1.327 . S
C2662 H2687 0.950 . S
C2663 C2662 1.349 . S
C2663 C2679 1.349 . S
C2664 C2662 1.327 . S
C2664 C2683 1.429 . S
C2664 H2688 0.950 . S
C2665 C2682 1.574 . S
C2665 C2684 1.368 . S
C2665 H2689 0.949 . S
H2666 C2670 0.949 . S
C2667 C2668 1.349 . S
C2667 C2669 1.327 . S
C2667 H2690 0.950 . S
C2668 C2667 1.349 . S
C2668 C2680 1.349 . S
C2669 C2667 1.327 . S
C2669 C2685 1.429 . S
C2669 H2691 0.950 . S
C2670 H2666 0.949 . S
C2670 C2678 1.574 . S
C2670 C2686 1.368 . S
H2671 C2679 0.950 . S
H2672 C2677 0.950 . S
H2673 C2678 0.949 . S
H2674 C2680 0.950 . S
H2675 C2681 0.950 . S
H2676 C2682 0.949 . S
C2677 H2672 0.950 . S
C2677 C2679 1.327 . S
C2677 C2683 1.429 . S
C2678 C2670 1.574 . S
C2678 H2673 0.949 . S
C2678 C2684 1.368 . S
C2679 C2663 1.349 . S
C2679 H2671 0.950 . S
C2679 C2677 1.327 . S
C2680 C2668 1.349 . S
C2680 H2674 0.950 . S
C2680 C2681 1.327 . S
C2681 H2675 0.950 . S
C2681 C2680 1.327 . S
C2681 C2685 1.429 . S
C2682 C2665 1.574 . S
C2682 H2676 0.949 . S
C2682 C2686 1.368 . S
C2683 C2664 1.429 . S
C2683 C2677 1.429 . S
C2683 C2684 1.523 . S
C2684 C2665 1.368 . S
C2684 C2678 1.368 . S
C2684 C2683 1.523 . S
C2685 C2669 1.429 . S
C2685 C2681 1.429 . S
C2685 C2686 1.523 . S
C2686 C2670 1.368 . S
C2686 C2682 1.368 . S
C2686 C2685 1.523 . S
H2687 C2662 0.950 . S
H2688 C2664 0.950 . S
H2689 C2665 0.949 . S
H2690 C2667 0.950 . S
H2691 C2669 0.950 . S
C2692 C2693 1.349 . S
C2692 C2694 1.327 . S
C2692 H2717 0.950 . S
C2693 C2692 1.349 . S
C2693 C2709 1.349 . S
C2694 C2692 1.327 . S
C2694 C2713 1.429 . S
C2694 H2718 0.950 . S
C2695 C2712 1.574 . S
C2695 C2714 1.368 . S
C2695 H2719 0.949 . S
H2696 C2700 0.949 . S
C2697 C2698 1.349 . S
C2697 C2699 1.327 . S
C2697 H2720 0.950 . S
C2698 C2697 1.349 . S
C2698 C2710 1.349 . S
C2699 C2697 1.327 . S
C2699 C2715 1.429 . S
C2699 H2721 0.950 . S
C2700 H2696 0.949 . S
C2700 C2708 1.574 . S
C2700 C2716 1.368 . S
H2701 C2709 0.950 . S
H2702 C2707 0.950 . S
H2703 C2708 0.949 . S
H2704 C2710 0.950 . S
H2705 C2711 0.950 . S
H2706 C2712 0.949 . S
C2707 H2702 0.950 . S
C2707 C2709 1.327 . S
C2707 C2713 1.429 . S
C2708 C2700 1.574 . S
C2708 H2703 0.949 . S
C2708 C2714 1.368 . S
C2709 C2693 1.349 . S
C2709 H2701 0.950 . S
C2709 C2707 1.327 . S
C2710 C2698 1.349 . S
C2710 H2704 0.950 . S
C2710 C2711 1.327 . S
C2711 H2705 0.950 . S
C2711 C2710 1.327 . S
C2711 C2715 1.429 . S
C2712 C2695 1.574 . S
C2712 H2706 0.949 . S
C2712 C2716 1.368 . S
C2713 C2694 1.429 . S
C2713 C2707 1.429 . S
C2713 C2714 1.523 . S
C2714 C2695 1.368 . S
C2714 C2708 1.368 . S
C2714 C2713 1.523 . S
C2715 C2699 1.429 . S
C2715 C2711 1.429 . S
C2715 C2716 1.523 . S
C2716 C2700 1.368 . S
C2716 C2712 1.368 . S
C2716 C2715 1.523 . S
H2717 C2692 0.950 . S
H2718 C2694 0.950 . S
H2719 C2695 0.949 . S
H2720 C2697 0.950 . S
H2721 C2699 0.950 . S
C2722 C2723 1.349 . S
C2722 C2724 1.327 . S
C2722 H2747 0.950 . S
C2723 C2722 1.349 . S
C2723 C2739 1.349 . S
C2724 C2722 1.327 . S
C2724 C2743 1.429 . S
C2724 H2748 0.950 . S
C2725 C2742 1.574 . S
C2725 C2744 1.368 . S
C2725 H2749 0.949 . S
H2726 C2730 0.949 . S
C2727 C2728 1.349 . S
C2727 C2729 1.327 . S
C2727 H2750 0.950 . S
C2728 C2727 1.349 . S
C2728 C2740 1.349 . S
C2729 C2727 1.327 . S
C2729 C2745 1.429 . S
C2729 H2751 0.950 . S
C2730 H2726 0.949 . S
C2730 C2738 1.574 . S
C2730 C2746 1.368 . S
H2731 C2739 0.950 . S
H2732 C2737 0.950 . S
H2733 C2738 0.949 . S
H2734 C2740 0.950 . S
H2735 C2741 0.950 . S
H2736 C2742 0.949 . S
C2737 H2732 0.950 . S
C2737 C2739 1.327 . S
C2737 C2743 1.429 . S
C2738 C2730 1.574 . S
C2738 H2733 0.949 . S
C2738 C2744 1.368 . S
C2739 C2723 1.349 . S
C2739 H2731 0.950 . S
C2739 C2737 1.327 . S
C2740 C2728 1.349 . S
C2740 H2734 0.950 . S
C2740 C2741 1.327 . S
C2741 H2735 0.950 . S
C2741 C2740 1.327 . S
C2741 C2745 1.429 . S
C2742 C2725 1.574 . S
C2742 H2736 0.949 . S
C2742 C2746 1.368 . S
C2743 C2724 1.429 . S
C2743 C2737 1.429 . S
C2743 C2744 1.523 . S
C2744 C2725 1.368 . S
C2744 C2738 1.368 . S
C2744 C2743 1.523 . S
C2745 C2729 1.429 . S
C2745 C2741 1.429 . S
C2745 C2746 1.523 . S
C2746 C2730 1.368 . S
C2746 C2742 1.368 . S
C2746 C2745 1.523 . S
H2747 C2722 0.950 . S
H2748 C2724 0.950 . S
H2749 C2725 0.949 . S
H2750 C2727 0.950 . S
H2751 C2729 0.950 . S
C2752 C2753 1.349 . S
C2752 C2754 1.327 . S
C2752 H2777 0.950 . S
C2753 C2752 1.349 . S
C2753 C2769 1.349 . S
C2754 C2752 1.327 . S
C2754 C2773 1.429 . S
C2754 H2778 0.950 . S
C2755 C2772 1.574 . S
C2755 C2774 1.368 . S
C2755 H2779 0.949 . S
H2756 C2760 0.949 . S
C2757 C2758 1.349 . S
C2757 C2759 1.327 . S
C2757 H2780 0.950 . S
C2758 C2757 1.349 . S
C2758 C2770 1.349 . S
C2759 C2757 1.327 . S
C2759 C2775 1.429 . S
C2759 H2781 0.950 . S
C2760 H2756 0.949 . S
C2760 C2768 1.574 . S
C2760 C2776 1.368 . S
H2761 C2769 0.950 . S
H2762 C2767 0.950 . S
H2763 C2768 0.949 . S
H2764 C2770 0.950 . S
H2765 C2771 0.950 . S
H2766 C2772 0.949 . S
C2767 H2762 0.950 . S
C2767 C2769 1.327 . S
C2767 C2773 1.429 . S
C2768 C2760 1.574 . S
C2768 H2763 0.949 . S
C2768 C2774 1.368 . S
C2769 C2753 1.349 . S
C2769 H2761 0.950 . S
C2769 C2767 1.327 . S
C2770 C2758 1.349 . S
C2770 H2764 0.950 . S
C2770 C2771 1.327 . S
C2771 H2765 0.950 . S
C2771 C2770 1.327 . S
C2771 C2775 1.429 . S
C2772 C2755 1.574 . S
C2772 H2766 0.949 . S
C2772 C2776 1.368 . S
C2773 C2754 1.429 . S
C2773 C2767 1.429 . S
C2773 C2774 1.523 . S
C2774 C2755 1.368 . S
C2774 C2768 1.368 . S
C2774 C2773 1.523 . S
C2775 C2759 1.429 . S
C2775 C2771 1.429 . S
C2775 C2776 1.523 . S
C2776 C2760 1.368 . S
C2776 C2772 1.368 . S
C2776 C2775 1.523 . S
H2777 C2752 0.950 . S
H2778 C2754 0.950 . S
H2779 C2755 0.949 . S
H2780 C2757 0.950 . S
H2781 C2759 0.950 . S
C2782 C2783 1.349 . S
C2782 C2784 1.327 . S
C2782 H2807 0.950 . S
C2783 C2782 1.349 . S
C2783 C2799 1.349 . S
C2784 C2782 1.327 . S
C2784 C2803 1.429 . S
C2784 H2808 0.950 . S
C2785 C2802 1.574 . S
C2785 C2804 1.368 . S
C2785 H2809 0.949 . S
H2786 C2790 0.949 . S
C2787 C2788 1.349 . S
C2787 C2789 1.327 . S
C2787 H2810 0.950 . S
C2788 C2787 1.349 . S
C2788 C2800 1.349 . S
C2789 C2787 1.327 . S
C2789 C2805 1.429 . S
C2789 H2811 0.950 . S
C2790 H2786 0.949 . S
C2790 C2798 1.574 . S
C2790 C2806 1.368 . S
H2791 C2799 0.950 . S
H2792 C2797 0.950 . S
H2793 C2798 0.949 . S
H2794 C2800 0.950 . S
H2795 C2801 0.950 . S
H2796 C2802 0.949 . S
C2797 H2792 0.950 . S
C2797 C2799 1.327 . S
C2797 C2803 1.429 . S
C2798 C2790 1.574 . S
C2798 H2793 0.949 . S
C2798 C2804 1.368 . S
C2799 C2783 1.349 . S
C2799 H2791 0.950 . S
C2799 C2797 1.327 . S
C2800 C2788 1.349 . S
C2800 H2794 0.950 . S
C2800 C2801 1.327 . S
C2801 H2795 0.950 . S
C2801 C2800 1.327 . S
C2801 C2805 1.429 . S
C2802 C2785 1.574 . S
C2802 H2796 0.949 . S
C2802 C2806 1.368 . S
C2803 C2784 1.429 . S
C2803 C2797 1.429 . S
C2803 C2804 1.523 . S
C2804 C2785 1.368 . S
C2804 C2798 1.368 . S
C2804 C2803 1.523 . S
C2805 C2789 1.429 . S
C2805 C2801 1.429 . S
C2805 C2806 1.523 . S
C2806 C2790 1.368 . S
C2806 C2802 1.368 . S
C2806 C2805 1.523 . S
H2807 C2782 0.950 . S
H2808 C2784 0.950 . S
H2809 C2785 0.949 . S
H2810 C2787 0.950 . S
H2811 C2789 0.950 . S
C2812 C2813 1.349 . S
C2812 C2814 1.327 . S
C2812 H2837 0.950 . S
C2813 C2812 1.349 . S
C2813 C2829 1.349 . S
C2814 C2812 1.327 . S
C2814 C2833 1.429 . S
C2814 H2838 0.950 . S
C2815 C2832 1.574 . S
C2815 C2834 1.368 . S
C2815 H2839 0.949 . S
H2816 C2820 0.949 . S
C2817 C2818 1.349 . S
C2817 C2819 1.327 . S
C2817 H2840 0.950 . S
C2818 C2817 1.349 . S
C2818 C2830 1.349 . S
C2819 C2817 1.327 . S
C2819 C2835 1.429 . S
C2819 H2841 0.950 . S
C2820 H2816 0.949 . S
C2820 C2828 1.574 . S
C2820 C2836 1.368 . S
H2821 C2829 0.950 . S
H2822 C2827 0.950 . S
H2823 C2828 0.949 . S
H2824 C2830 0.950 . S
H2825 C2831 0.950 . S
H2826 C2832 0.949 . S
C2827 H2822 0.950 . S
C2827 C2829 1.327 . S
C2827 C2833 1.429 . S
C2828 C2820 1.574 . S
C2828 H2823 0.949 . S
C2828 C2834 1.368 . S
C2829 C2813 1.349 . S
C2829 H2821 0.950 . S
C2829 C2827 1.327 . S
C2830 C2818 1.349 . S
C2830 H2824 0.950 . S
C2830 C2831 1.327 . S
C2831 H2825 0.950 . S
C2831 C2830 1.327 . S
C2831 C2835 1.429 . S
C2832 C2815 1.574 . S
C2832 H2826 0.949 . S
C2832 C2836 1.368 . S
C2833 C2814 1.429 . S
C2833 C2827 1.429 . S
C2833 C2834 1.523 . S
C2834 C2815 1.368 . S
C2834 C2828 1.368 . S
C2834 C2833 1.523 . S
C2835 C2819 1.429 . S
C2835 C2831 1.429 . S
C2835 C2836 1.523 . S
C2836 C2820 1.368 . S
C2836 C2832 1.368 . S
C2836 C2835 1.523 . S
H2837 C2812 0.950 . S
H2838 C2814 0.950 . S
H2839 C2815 0.949 . S
H2840 C2817 0.950 . S
H2841 C2819 0.950 . S
C2842 C2843 1.349 . S
C2842 C2844 1.327 . S
C2842 H2867 0.950 . S
C2843 C2842 1.349 . S
C2843 C2859 1.349 . S
C2844 C2842 1.327 . S
C2844 C2863 1.429 . S
C2844 H2868 0.950 . S
C2845 C2862 1.574 . S
C2845 C2864 1.368 . S
C2845 H2869 0.949 . S
H2846 C2850 0.949 . S
C2847 C2848 1.349 . S
C2847 C2849 1.327 . S
C2847 H2870 0.950 . S
C2848 C2847 1.349 . S
C2848 C2860 1.349 . S
C2849 C2847 1.327 . S
C2849 C2865 1.429 . S
C2849 H2871 0.950 . S
C2850 H2846 0.949 . S
C2850 C2858 1.574 . S
C2850 C2866 1.368 . S
H2851 C2859 0.950 . S
H2852 C2857 0.950 . S
H2853 C2858 0.949 . S
H2854 C2860 0.950 . S
H2855 C2861 0.950 . S
H2856 C2862 0.949 . S
C2857 H2852 0.950 . S
C2857 C2859 1.327 . S
C2857 C2863 1.429 . S
C2858 C2850 1.574 . S
C2858 H2853 0.949 . S
C2858 C2864 1.368 . S
C2859 C2843 1.349 . S
C2859 H2851 0.950 . S
C2859 C2857 1.327 . S
C2860 C2848 1.349 . S
C2860 H2854 0.950 . S
C2860 C2861 1.327 . S
C2861 H2855 0.950 . S
C2861 C2860 1.327 . S
C2861 C2865 1.429 . S
C2862 C2845 1.574 . S
C2862 H2856 0.949 . S
C2862 C2866 1.368 . S
C2863 C2844 1.429 . S
C2863 C2857 1.429 . S
C2863 C2864 1.523 . S
C2864 C2845 1.368 . S
C2864 C2858 1.368 . S
C2864 C2863 1.523 . S
C2865 C2849 1.429 . S
C2865 C2861 1.429 . S
C2865 C2866 1.523 . S
C2866 C2850 1.368 . S
C2866 C2862 1.368 . S
C2866 C2865 1.523 . S
H2867 C2842 0.950 . S
H2868 C2844 0.950 . S
H2869 C2845 0.949 . S
H2870 C2847 0.950 . S
H2871 C2849 0.950 . S
C2872 C2873 1.349 . S
C2872 C2874 1.327 . S
C2872 H2897 0.950 . S
C2873 C2872 1.349 . S
C2873 C2889 1.349 . S
C2874 C2872 1.327 . S
C2874 C2893 1.429 . S
C2874 H2898 0.950 . S
C2875 C2892 1.574 . S
C2875 C2894 1.368 . S
C2875 H2899 0.949 . S
H2876 C2880 0.949 . S
C2877 C2878 1.349 . S
C2877 C2879 1.327 . S
C2877 H2900 0.950 . S
C2878 C2877 1.349 . S
C2878 C2890 1.349 . S
C2879 C2877 1.327 . S
C2879 C2895 1.429 . S
C2879 H2901 0.950 . S
C2880 H2876 0.949 . S
C2880 C2888 1.574 . S
C2880 C2896 1.368 . S
H2881 C2889 0.950 . S
H2882 C2887 0.950 . S
H2883 C2888 0.949 . S
H2884 C2890 0.950 . S
H2885 C2891 0.950 . S
H2886 C2892 0.949 . S
C2887 H2882 0.950 . S
C2887 C2889 1.327 . S
C2887 C2893 1.429 . S
C2888 C2880 1.574 . S
C2888 H2883 0.949 . S
C2888 C2894 1.368 . S
C2889 C2873 1.349 . S
C2889 H2881 0.950 . S
C2889 C2887 1.327 . S
C2890 C2878 1.349 . S
C2890 H2884 0.950 . S
C2890 C2891 1.327 . S
C2891 H2885 0.950 . S
C2891 C2890 1.327 . S
C2891 C2895 1.429 . S
C2892 C2875 1.574 . S
C2892 H2886 0.949 . S
C2892 C2896 1.368 . S
C2893 C2874 1.429 . S
C2893 C2887 1.429 . S
C2893 C2894 1.523 . S
C2894 C2875 1.368 . S
C2894 C2888 1.368 . S
C2894 C2893 1.523 . S
C2895 C2879 1.429 . S
C2895 C2891 1.429 . S
C2895 C2896 1.523 . S
C2896 C2880 1.368 . S
C2896 C2892 1.368 . S
C2896 C2895 1.523 . S
H2897 C2872 0.950 . S
H2898 C2874 0.950 . S
H2899 C2875 0.949 . S
H2900 C2877 0.950 . S
H2901 C2879 0.950 . S
C2902 C2903 1.349 . S
C2902 C2904 1.327 . S
C2902 H2927 0.950 . S
C2903 C2902 1.349 . S
C2903 C2919 1.349 . S
C2904 C2902 1.327 . S
C2904 C2923 1.429 . S
C2904 H2928 0.950 . S
C2905 C2922 1.574 . S
C2905 C2924 1.368 . S
C2905 H2929 0.949 . S
H2906 C2910 0.949 . S
C2907 C2908 1.349 . S
C2907 C2909 1.327 . S
C2907 H2930 0.950 . S
C2908 C2907 1.349 . S
C2908 C2920 1.349 . S
C2909 C2907 1.327 . S
C2909 C2925 1.429 . S
C2909 H2931 0.950 . S
C2910 H2906 0.949 . S
C2910 C2918 1.574 . S
C2910 C2926 1.368 . S
H2911 C2919 0.950 . S
H2912 C2917 0.950 . S
H2913 C2918 0.949 . S
H2914 C2920 0.950 . S
H2915 C2921 0.950 . S
H2916 C2922 0.949 . S
C2917 H2912 0.950 . S
C2917 C2919 1.327 . S
C2917 C2923 1.429 . S
C2918 C2910 1.574 . S
C2918 H2913 0.949 . S
C2918 C2924 1.368 . S
C2919 C2903 1.349 . S
C2919 H2911 0.950 . S
C2919 C2917 1.327 . S
C2920 C2908 1.349 . S
C2920 H2914 0.950 . S
C2920 C2921 1.327 . S
C2921 H2915 0.950 . S
C2921 C2920 1.327 . S
C2921 C2925 1.429 . S
C2922 C2905 1.574 . S
C2922 H2916 0.949 . S
C2922 C2926 1.368 . S
C2923 C2904 1.429 . S
C2923 C2917 1.429 . S
C2923 C2924 1.523 . S
C2924 C2905 1.368 . S
C2924 C2918 1.368 . S
C2924 C2923 1.523 . S
C2925 C2909 1.429 . S
C2925 C2921 1.429 . S
C2925 C2926 1.523 . S
C2926 C2910 1.368 . S
C2926 C2922 1.368 . S
C2926 C2925 1.523 . S
H2927 C2902 0.950 . S
H2928 C2904 0.950 . S
H2929 C2905 0.949 . S
H2930 C2907 0.950 . S
H2931 C2909 0.950 . S
C2932 C2933 1.349 . S
C2932 C2934 1.327 . S
C2932 H2957 0.950 . S
C2933 C2932 1.349 . S
C2933 C2949 1.349 . S
C2934 C2932 1.327 . S
C2934 C2953 1.429 . S
C2934 H2958 0.950 . S
C2935 C2952 1.574 . S
C2935 C2954 1.368 . S
C2935 H2959 0.949 . S
H2936 C2940 0.949 . S
C2937 C2938 1.349 . S
C2937 C2939 1.327 . S
C2937 H2960 0.950 . S
C2938 C2937 1.349 . S
C2938 C2950 1.349 . S
C2939 C2937 1.327 . S
C2939 C2955 1.429 . S
C2939 H2961 0.950 . S
C2940 H2936 0.949 . S
C2940 C2948 1.574 . S
C2940 C2956 1.368 . S
H2941 C2949 0.950 . S
H2942 C2947 0.950 . S
H2943 C2948 0.949 . S
H2944 C2950 0.950 . S
H2945 C2951 0.950 . S
H2946 C2952 0.949 . S
C2947 H2942 0.950 . S
C2947 C2949 1.327 . S
C2947 C2953 1.429 . S
C2948 C2940 1.574 . S
C2948 H2943 0.949 . S
C2948 C2954 1.368 . S
C2949 C2933 1.349 . S
C2949 H2941 0.950 . S
C2949 C2947 1.327 . S
C2950 C2938 1.349 . S
C2950 H2944 0.950 . S
C2950 C2951 1.327 . S
C2951 H2945 0.950 . S
C2951 C2950 1.327 . S
C2951 C2955 1.429 . S
C2952 C2935 1.574 . S
C2952 H2946 0.949 . S
C2952 C2956 1.368 . S
C2953 C2934 1.429 . S
C2953 C2947 1.429 . S
C2953 C2954 1.523 . S
C2954 C2935 1.368 . S
C2954 C2948 1.368 . S
C2954 C2953 1.523 . S
C2955 C2939 1.429 . S
C2955 C2951 1.429 . S
C2955 C2956 1.523 . S
C2956 C2940 1.368 . S
C2956 C2952 1.368 . S
C2956 C2955 1.523 . S
H2957 C2932 0.950 . S
H2958 C2934 0.950 . S
H2959 C2935 0.949 . S
H2960 C2937 0.950 . S
H2961 C2939 0.950 . S
C2962 C2963 1.349 . S
C2962 C2964 1.327 . S
C2962 H2987 0.950 1_554 S
C2963 C2962 1.349 . S
C2963 C2979 1.349 . S
C2964 C2962 1.327 . S
C2964 C2983 1.429 . S
C2964 H2988 0.950 1_554 S
C2965 C2982 1.574 . S
C2965 C2984 1.368 . S
C2965 H2989 0.949 . S
H2966 C2970 1.008 . S
C2967 C2968 1.349 . S
C2967 C2969 1.327 . S
C2967 H2990 0.950 . S
C2968 C2967 1.349 . S
C2968 C2980 1.349 1_554 S
C2969 C2967 1.327 . S
C2969 C2985 1.429 1_545 S
C2969 H2991 0.950 . S
C2970 H2966 1.008 . S
C2970 C2978 1.564 . S
C2970 C2986 1.316 1_556 S
H2971 C2979 0.950 . S
H2972 C2977 0.950 . S
H2973 C2978 0.957 . S
H2974 C2980 0.950 . S
H2975 C2981 0.950 . S
H2976 C2982 0.949 . S
C2977 H2972 0.950 . S
C2977 C2979 1.327 . S
C2977 C2983 1.429 . S
C2978 C2970 1.564 . S
C2978 H2973 0.957 . S
C2978 C2984 1.358 1_556 S
C2979 C2963 1.349 . S
C2979 H2971 0.950 . S
C2979 C2977 1.327 . S
C2980 C2968 1.349 1_556 S
C2980 H2974 0.950 . S
C2980 C2981 1.327 1_545 S
C2981 H2975 0.950 . S
C2981 C2980 1.327 1_565 S
C2981 C2985 1.429 1_556 S
C2982 C2965 1.574 . S
C2982 H2976 0.949 . S
C2982 C2986 1.368 . S
C2983 C2964 1.429 . S
C2983 C2977 1.429 . S
C2983 C2984 1.523 . S
C2984 C2965 1.368 . S
C2984 C2978 1.358 1_554 S
C2984 C2983 1.523 . S
C2985 C2969 1.429 1_565 S
C2985 C2981 1.429 1_554 S
C2985 C2986 1.523 . S
C2986 C2970 1.316 1_554 S
C2986 C2982 1.368 . S
C2986 C2985 1.523 . S
H2987 C2962 0.950 1_556 S
H2988 C2964 0.950 1_556 S
H2989 C2965 0.949 . S
H2990 C2967 0.950 . S
H2991 C2969 0.950 . S
C2992 C2993 1.349 . S
C2992 C2994 1.327 . S
C2992 H3017 0.950 . S
C2993 C2992 1.349 . S
C2993 C3009 1.349 . S
C2994 C2992 1.327 . S
C2994 C3013 1.429 . S
C2994 H3018 0.950 . S
C2995 C3012 1.574 . S
C2995 C3014 1.368 . S
C2995 H3019 0.949 . S
H2996 C3000 0.949 . S
C2997 C2998 1.349 . S
C2997 C2999 1.327 . S
C2997 H3020 0.950 . S
C2998 C2997 1.349 . S
C2998 C3010 1.349 . S
C2999 C2997 1.327 . S
C2999 C3015 1.429 . S
C2999 H3021 0.950 . S
C3000 H2996 0.949 . S
C3000 C3008 1.574 . S
C3000 C3016 1.368 . S
H3001 C3009 0.950 . S
H3002 C3007 0.950 . S
H3003 C3008 0.949 . S
H3004 C3010 0.950 . S
H3005 C3011 0.950 . S
H3006 C3012 0.949 . S
C3007 H3002 0.950 . S
C3007 C3009 1.327 . S
C3007 C3013 1.429 . S
C3008 C3000 1.574 . S
C3008 H3003 0.949 . S
C3008 C3014 1.368 . S
C3009 C2993 1.349 . S
C3009 H3001 0.950 . S
C3009 C3007 1.327 . S
C3010 C2998 1.349 . S
C3010 H3004 0.950 . S
C3010 C3011 1.327 . S
C3011 H3005 0.950 . S
C3011 C3010 1.327 . S
C3011 C3015 1.429 . S
C3012 C2995 1.574 . S
C3012 H3006 0.949 . S
C3012 C3016 1.368 . S
C3013 C2994 1.429 . S
C3013 C3007 1.429 . S
C3013 C3014 1.523 . S
C3014 C2995 1.368 . S
C3014 C3008 1.368 . S
C3014 C3013 1.523 . S
C3015 C2999 1.429 . S
C3015 C3011 1.429 . S
C3015 C3016 1.523 . S
C3016 C3000 1.368 . S
C3016 C3012 1.368 . S
C3016 C3015 1.523 . S
H3017 C2992 0.950 . S
H3018 C2994 0.950 . S
H3019 C2995 0.949 . S
H3020 C2997 0.950 . S
H3021 C2999 0.950 . S
C3022 C3023 1.349 1_556 S
C3022 C3024 1.327 1_556 S
C3022 H3047 0.950 . S
C3023 C3022 1.349 1_554 S
C3023 C3039 1.349 . S
C3024 C3022 1.327 1_554 S
C3024 C3043 1.429 . S
C3024 H3048 0.950 1_554 S
C3025 C3042 1.574 . S
C3025 C3044 1.368 . S
C3025 H3049 0.949 . S
H3026 C3030 0.949 . S
C3027 C3028 1.349 . S
C3027 C3029 1.327 . S
C3027 H3050 0.950 . S
C3028 C3027 1.349 . S
C3028 C3040 1.349 . S
C3029 C3027 1.327 . S
C3029 C3045 1.429 . S
C3029 H3051 0.950 . S
C3030 H3026 0.949 . S
C3030 C3038 1.574 . S
C3030 C3046 1.368 . S
H3031 C3039 0.950 . S
H3032 C3037 0.950 . S
H3033 C3038 0.949 . S
H3034 C3040 0.950 . S
H3035 C3041 0.950 . S
H3036 C3042 0.949 . S
C3037 H3032 0.950 . S
C3037 C3039 1.327 . S
C3037 C3043 1.429 . S
C3038 C3030 1.574 . S
C3038 H3033 0.949 . S
C3038 C3044 1.368 . S
C3039 C3023 1.349 . S
C3039 H3031 0.950 . S
C3039 C3037 1.327 . S
C3040 C3028 1.349 . S
C3040 H3034 0.950 . S
C3040 C3041 1.327 . S
C3041 H3035 0.950 . S
C3041 C3040 1.327 . S
C3041 C3045 1.429 . S
C3042 C3025 1.574 . S
C3042 H3036 0.949 . S
C3042 C3046 1.368 . S
C3043 C3024 1.429 . S
C3043 C3037 1.429 . S
C3043 C3044 1.523 . S
C3044 C3025 1.368 . S
C3044 C3038 1.368 . S
C3044 C3043 1.523 . S
C3045 C3029 1.429 . S
C3045 C3041 1.429 . S
C3045 C3046 1.523 . S
C3046 C3030 1.368 . S
C3046 C3042 1.368 . S
C3046 C3045 1.523 . S
H3047 C3022 0.950 . S
H3048 C3024 0.950 1_556 S
H3049 C3025 0.949 . S
H3050 C3027 0.950 . S
H3051 C3029 0.950 . S
C3052 C3053 1.349 . S
C3052 C3054 1.327 . S
C3052 H3077 0.950 . S
C3053 C3052 1.349 . S
C3053 C3069 1.349 . S
C3054 C3052 1.327 . S
C3054 C3073 1.429 . S
C3054 H3078 0.950 . S
C3055 C3072 1.574 . S
C3055 C3074 1.368 . S
C3055 H3079 0.949 . S
H3056 C3060 0.949 . S
C3057 C3058 1.349 . S
C3057 C3059 1.327 . S
C3057 H3080 0.950 . S
C3058 C3057 1.349 . S
C3058 C3070 1.349 . S
C3059 C3057 1.327 . S
C3059 C3075 1.429 . S
C3059 H3081 0.950 . S
C3060 H3056 0.949 . S
C3060 C3068 1.574 . S
C3060 C3076 1.368 . S
H3061 C3069 0.950 . S
H3062 C3067 0.950 . S
H3063 C3068 0.949 . S
H3064 C3070 0.950 . S
H3065 C3071 0.950 . S
H3066 C3072 0.949 . S
C3067 H3062 0.950 . S
C3067 C3069 1.327 . S
C3067 C3073 1.429 . S
C3068 C3060 1.574 . S
C3068 H3063 0.949 . S
C3068 C3074 1.368 . S
C3069 C3053 1.349 . S
C3069 H3061 0.950 . S
C3069 C3067 1.327 . S
C3070 C3058 1.349 . S
C3070 H3064 0.950 . S
C3070 C3071 1.327 . S
C3071 H3065 0.950 . S
C3071 C3070 1.327 . S
C3071 C3075 1.429 . S
C3072 C3055 1.574 . S
C3072 H3066 0.949 . S
C3072 C3076 1.368 . S
C3073 C3054 1.429 . S
C3073 C3067 1.429 . S
C3073 C3074 1.523 . S
C3074 C3055 1.368 . S
C3074 C3068 1.368 . S
C3074 C3073 1.523 . S
C3075 C3059 1.429 . S
C3075 C3071 1.429 . S
C3075 C3076 1.523 . S
C3076 C3060 1.368 . S
C3076 C3072 1.368 . S
C3076 C3075 1.523 . S
H3077 C3052 0.950 . S
H3078 C3054 0.950 . S
H3079 C3055 0.949 . S
H3080 C3057 0.950 . S
H3081 C3059 0.950 . S
C3082 C3083 1.349 . S
C3082 C3084 1.327 . S
C3082 H3107 0.950 . S
C3083 C3082 1.349 . S
C3083 C3099 1.349 . S
C3084 C3082 1.327 . S
C3084 C3103 1.429 . S
C3084 H3108 0.950 . S
C3085 C3102 1.574 . S
C3085 C3104 1.368 . S
C3085 H3109 0.949 . S
H3086 C3090 0.949 . S
C3087 C3088 1.349 . S
C3087 C3089 1.327 . S
C3087 H3110 0.950 . S
C3088 C3087 1.349 . S
C3088 C3100 1.349 . S
C3089 C3087 1.327 . S
C3089 C3105 1.429 . S
C3089 H3111 0.950 . S
C3090 H3086 0.949 . S
C3090 C3098 1.574 . S
C3090 C3106 1.368 . S
H3091 C3099 0.950 . S
H3092 C3097 0.950 . S
H3093 C3098 0.949 . S
H3094 C3100 0.950 . S
H3095 C3101 0.950 . S
H3096 C3102 0.949 . S
C3097 H3092 0.950 . S
C3097 C3099 1.327 . S
C3097 C3103 1.429 . S
C3098 C3090 1.574 . S
C3098 H3093 0.949 . S
C3098 C3104 1.368 . S
C3099 C3083 1.349 . S
C3099 H3091 0.950 . S
C3099 C3097 1.327 . S
C3100 C3088 1.349 . S
C3100 H3094 0.950 . S
C3100 C3101 1.327 . S
C3101 H3095 0.950 . S
C3101 C3100 1.327 . S
C3101 C3105 1.429 . S
C3102 C3085 1.574 . S
C3102 H3096 0.949 . S
C3102 C3106 1.368 . S
C3103 C3084 1.429 . S
C3103 C3097 1.429 . S
C3103 C3104 1.523 . S
C3104 C3085 1.368 . S
C3104 C3098 1.368 . S
C3104 C3103 1.523 . S
C3105 C3089 1.429 . S
C3105 C3101 1.429 . S
C3105 C3106 1.523 . S
C3106 C3090 1.368 . S
C3106 C3102 1.368 . S
C3106 C3105 1.523 . S
H3107 C3082 0.950 . S
H3108 C3084 0.950 . S
H3109 C3085 0.949 . S
H3110 C3087 0.950 . S
H3111 C3089 0.950 . S
C3112 C3113 1.349 . S
C3112 C3114 1.327 . S
C3112 H3137 0.950 . S
C3113 C3112 1.349 . S
C3113 C3129 1.349 . S
C3114 C3112 1.327 . S
C3114 C3133 1.429 . S
C3114 H3138 0.950 . S
C3115 C3132 1.574 . S
C3115 C3134 1.368 . S
C3115 H3139 0.949 . S
H3116 C3120 0.949 . S
C3117 C3118 1.349 . S
C3117 C3119 1.327 . S
C3117 H3140 0.950 . S
C3118 C3117 1.349 . S
C3118 C3130 1.349 . S
C3119 C3117 1.327 . S
C3119 C3135 1.429 . S
C3119 H3141 0.950 . S
C3120 H3116 0.949 . S
C3120 C3128 1.574 . S
C3120 C3136 1.368 . S
H3121 C3129 0.950 . S
H3122 C3127 0.950 . S
H3123 C3128 0.949 . S
H3124 C3130 0.950 . S
H3125 C3131 0.950 . S
H3126 C3132 0.949 . S
C3127 H3122 0.950 . S
C3127 C3129 1.327 . S
C3127 C3133 1.429 . S
C3128 C3120 1.574 . S
C3128 H3123 0.949 . S
C3128 C3134 1.368 . S
C3129 C3113 1.349 . S
C3129 H3121 0.950 . S
C3129 C3127 1.327 . S
C3130 C3118 1.349 . S
C3130 H3124 0.950 . S
C3130 C3131 1.327 . S
C3131 H3125 0.950 . S
C3131 C3130 1.327 . S
C3131 C3135 1.429 . S
C3132 C3115 1.574 . S
C3132 H3126 0.949 . S
C3132 C3136 1.368 . S
C3133 C3114 1.429 . S
C3133 C3127 1.429 . S
C3133 C3134 1.523 . S
C3134 C3115 1.368 . S
C3134 C3128 1.368 . S
C3134 C3133 1.523 . S
C3135 C3119 1.429 . S
C3135 C3131 1.429 . S
C3135 C3136 1.523 . S
C3136 C3120 1.368 . S
C3136 C3132 1.368 . S
C3136 C3135 1.523 . S
H3137 C3112 0.950 . S
H3138 C3114 0.950 . S
H3139 C3115 0.949 . S
H3140 C3117 0.950 . S
H3141 C3119 0.950 . S
C3142 C3143 1.349 . S
C3142 C3144 1.327 . S
C3142 H3167 0.950 . S
C3143 C3142 1.349 . S
C3143 C3159 1.349 . S
C3144 C3142 1.327 . S
C3144 C3163 1.429 . S
C3144 H3168 0.950 . S
C3145 C3162 1.574 . S
C3145 C3164 1.368 . S
C3145 H3169 0.949 . S
H3146 C3150 0.949 . S
C3147 C3148 1.349 . S
C3147 C3149 1.327 . S
C3147 H3170 0.950 . S
C3148 C3147 1.349 . S
C3148 C3160 1.349 . S
C3149 C3147 1.327 . S
C3149 C3165 1.429 . S
C3149 H3171 0.950 . S
C3150 H3146 0.949 . S
C3150 C3158 1.574 . S
C3150 C3166 1.368 . S
H3151 C3159 0.950 . S
H3152 C3157 0.950 . S
H3153 C3158 0.949 . S
H3154 C3160 0.950 . S
H3155 C3161 0.950 . S
H3156 C3162 0.949 . S
C3157 H3152 0.950 . S
C3157 C3159 1.327 . S
C3157 C3163 1.429 . S
C3158 C3150 1.574 . S
C3158 H3153 0.949 . S
C3158 C3164 1.368 . S
C3159 C3143 1.349 . S
C3159 H3151 0.950 . S
C3159 C3157 1.327 . S
C3160 C3148 1.349 . S
C3160 H3154 0.950 . S
C3160 C3161 1.327 . S
C3161 H3155 0.950 . S
C3161 C3160 1.327 . S
C3161 C3165 1.429 . S
C3162 C3145 1.574 . S
C3162 H3156 0.949 . S
C3162 C3166 1.368 . S
C3163 C3144 1.429 . S
C3163 C3157 1.429 . S
C3163 C3164 1.523 . S
C3164 C3145 1.368 . S
C3164 C3158 1.368 . S
C3164 C3163 1.523 . S
C3165 C3149 1.429 . S
C3165 C3161 1.429 . S
C3165 C3166 1.523 . S
C3166 C3150 1.368 . S
C3166 C3162 1.368 . S
C3166 C3165 1.523 . S
H3167 C3142 0.950 . S
H3168 C3144 0.950 . S
H3169 C3145 0.949 . S
H3170 C3147 0.950 . S
H3171 C3149 0.950 . S
C3172 C3173 1.349 . S
C3172 C3174 1.327 . S
C3172 H3197 0.950 . S
C3173 C3172 1.349 . S
C3173 C3189 1.349 . S
C3174 C3172 1.327 . S
C3174 C3193 1.429 . S
C3174 H3198 0.950 . S
C3175 C3192 1.574 . S
C3175 C3194 1.368 . S
C3175 H3199 0.949 . S
H3176 C3180 0.949 . S
C3177 C3178 1.349 . S
C3177 C3179 1.327 . S
C3177 H3200 0.950 1_554 S
C3178 C3177 1.349 . S
C3178 C3190 1.349 . S
C3179 C3177 1.327 . S
C3179 C3195 1.429 . S
C3179 H3201 0.950 . S
C3180 H3176 0.949 . S
C3180 C3188 1.574 . S
C3180 C3196 1.368 . S
H3181 C3189 0.950 . S
H3182 C3187 0.950 . S
H3183 C3188 0.949 . S
H3184 C3190 0.950 . S
H3185 C3191 0.950 . S
H3186 C3192 0.949 . S
C3187 H3182 0.950 . S
C3187 C3189 1.327 . S
C3187 C3193 1.429 . S
C3188 C3180 1.574 . S
C3188 H3183 0.949 . S
C3188 C3194 1.368 . S
C3189 C3173 1.349 . S
C3189 H3181 0.950 . S
C3189 C3187 1.327 . S
C3190 C3178 1.349 . S
C3190 H3184 0.950 . S
C3190 C3191 1.327 . S
C3191 H3185 0.950 . S
C3191 C3190 1.327 . S
C3191 C3195 1.429 . S
C3192 C3175 1.574 . S
C3192 H3186 0.949 . S
C3192 C3196 1.368 . S
C3193 C3174 1.429 . S
C3193 C3187 1.429 . S
C3193 C3194 1.523 . S
C3194 C3175 1.368 . S
C3194 C3188 1.368 . S
C3194 C3193 1.523 . S
C3195 C3179 1.429 . S
C3195 C3191 1.429 . S
C3195 C3196 1.523 . S
C3196 C3180 1.368 . S
C3196 C3192 1.368 . S
C3196 C3195 1.523 . S
H3197 C3172 0.950 . S
H3198 C3174 0.950 . S
H3199 C3175 0.949 . S
H3200 C3177 0.950 1_556 S
H3201 C3179 0.950 . S
C3202 C3203 1.349 . S
C3202 C3204 1.327 . S
C3202 H3227 0.950 . S
C3203 C3202 1.349 . S
C3203 C3219 1.349 . S
C3204 C3202 1.327 . S
C3204 C3223 1.429 . S
C3204 H3228 0.950 . S
C3205 C3222 1.574 . S
C3205 C3224 1.368 . S
C3205 H3229 0.949 . S
H3206 C3210 0.949 . S
C3207 C3208 1.349 . S
C3207 C3209 1.327 . S
C3207 H3230 0.950 . S
C3208 C3207 1.349 . S
C3208 C3220 1.349 . S
C3209 C3207 1.327 . S
C3209 C3225 1.429 . S
C3209 H3231 0.950 . S
C3210 H3206 0.949 . S
C3210 C3218 1.574 . S
C3210 C3226 1.368 . S
H3211 C3219 0.950 . S
H3212 C3217 0.950 . S
H3213 C3218 0.949 . S
H3214 C3220 0.950 . S
H3215 C3221 0.950 . S
H3216 C3222 0.949 . S
C3217 H3212 0.950 . S
C3217 C3219 1.327 . S
C3217 C3223 1.429 . S
C3218 C3210 1.574 . S
C3218 H3213 0.949 . S
C3218 C3224 1.368 . S
C3219 C3203 1.349 . S
C3219 H3211 0.950 . S
C3219 C3217 1.327 . S
C3220 C3208 1.349 . S
C3220 H3214 0.950 . S
C3220 C3221 1.327 . S
C3221 H3215 0.950 . S
C3221 C3220 1.327 . S
C3221 C3225 1.429 . S
C3222 C3205 1.574 . S
C3222 H3216 0.949 . S
C3222 C3226 1.368 . S
C3223 C3204 1.429 . S
C3223 C3217 1.429 . S
C3223 C3224 1.523 . S
C3224 C3205 1.368 . S
C3224 C3218 1.368 . S
C3224 C3223 1.523 . S
C3225 C3209 1.429 . S
C3225 C3221 1.429 . S
C3225 C3226 1.523 . S
C3226 C3210 1.368 . S
C3226 C3222 1.368 . S
C3226 C3225 1.523 . S
H3227 C3202 0.950 . S
H3228 C3204 0.950 . S
H3229 C3205 0.949 . S
H3230 C3207 0.950 . S
H3231 C3209 0.950 . S
C3232 C3233 1.349 . S
C3232 C3234 1.327 . S
C3232 H3257 0.950 . S
C3233 C3232 1.349 . S
C3233 C3249 1.349 . S
C3234 C3232 1.327 . S
C3234 C3253 1.429 . S
C3234 H3258 0.950 . S
C3235 C3252 1.574 . S
C3235 C3254 1.368 . S
C3235 H3259 0.949 . S
H3236 C3240 0.949 . S
C3237 C3238 1.349 . S
C3237 C3239 1.327 . S
C3237 H3260 0.950 . S
C3238 C3237 1.349 . S
C3238 C3250 1.349 . S
C3239 C3237 1.327 . S
C3239 C3255 1.429 . S
C3239 H3261 0.950 . S
C3240 H3236 0.949 . S
C3240 C3248 1.574 . S
C3240 C3256 1.368 . S
H3241 C3249 0.950 . S
H3242 C3247 0.950 . S
H3243 C3248 0.949 . S
H3244 C3250 0.950 . S
H3245 C3251 0.950 . S
H3246 C3252 0.949 . S
C3247 H3242 0.950 . S
C3247 C3249 1.327 . S
C3247 C3253 1.429 . S
C3248 C3240 1.574 . S
C3248 H3243 0.949 . S
C3248 C3254 1.368 . S
C3249 C3233 1.349 . S
C3249 H3241 0.950 . S
C3249 C3247 1.327 . S
C3250 C3238 1.349 . S
C3250 H3244 0.950 . S
C3250 C3251 1.327 . S
C3251 H3245 0.950 . S
C3251 C3250 1.327 . S
C3251 C3255 1.429 . S
C3252 C3235 1.574 . S
C3252 H3246 0.949 . S
C3252 C3256 1.368 . S
C3253 C3234 1.429 . S
C3253 C3247 1.429 . S
C3253 C3254 1.523 . S
C3254 C3235 1.368 . S
C3254 C3248 1.368 . S
C3254 C3253 1.523 . S
C3255 C3239 1.429 . S
C3255 C3251 1.429 . S
C3255 C3256 1.523 . S
C3256 C3240 1.368 . S
C3256 C3252 1.368 . S
C3256 C3255 1.523 . S
H3257 C3232 0.950 . S
H3258 C3234 0.950 . S
H3259 C3235 0.949 . S
H3260 C3237 0.950 . S
H3261 C3239 0.950 . S
C3262 C3263 1.349 . S
C3262 C3264 1.327 . S
C3262 H3287 0.950 . S
C3263 C3262 1.349 . S
C3263 C3279 1.349 . S
C3264 C3262 1.327 . S
C3264 C3283 1.429 . S
C3264 H3288 0.950 . S
C3265 C3282 1.574 . S
C3265 C3284 1.368 . S
C3265 H3289 0.949 . S
H3266 C3270 0.949 . S
C3267 C3268 1.349 . S
C3267 C3269 1.327 . S
C3267 H3290 0.950 . S
C3268 C3267 1.349 . S
C3268 C3280 1.349 . S
C3269 C3267 1.327 . S
C3269 C3285 1.429 . S
C3269 H3291 0.950 . S
C3270 H3266 0.949 . S
C3270 C3278 1.574 . S
C3270 C3286 1.368 . S
H3271 C3279 0.950 . S
H3272 C3277 0.950 . S
H3273 C3278 0.949 . S
H3274 C3280 0.950 . S
H3275 C3281 0.950 . S
H3276 C3282 0.949 . S
C3277 H3272 0.950 . S
C3277 C3279 1.327 . S
C3277 C3283 1.429 . S
C3278 C3270 1.574 . S
C3278 H3273 0.949 . S
C3278 C3284 1.368 . S
C3279 C3263 1.349 . S
C3279 H3271 0.950 . S
C3279 C3277 1.327 . S
C3280 C3268 1.349 . S
C3280 H3274 0.950 . S
C3280 C3281 1.327 . S
C3281 H3275 0.950 . S
C3281 C3280 1.327 . S
C3281 C3285 1.429 . S
C3282 C3265 1.574 . S
C3282 H3276 0.949 . S
C3282 C3286 1.368 . S
C3283 C3264 1.429 . S
C3283 C3277 1.429 . S
C3283 C3284 1.523 . S
C3284 C3265 1.368 . S
C3284 C3278 1.368 . S
C3284 C3283 1.523 . S
C3285 C3269 1.429 . S
C3285 C3281 1.429 . S
C3285 C3286 1.523 . S
C3286 C3270 1.368 . S
C3286 C3282 1.368 . S
C3286 C3285 1.523 . S
H3287 C3262 0.950 . S
H3288 C3264 0.950 . S
H3289 C3265 0.949 . S
H3290 C3267 0.950 . S
H3291 C3269 0.950 . S
C3292 C3293 1.349 . S
C3292 C3294 1.327 . S
C3292 H3317 0.950 . S
C3293 C3292 1.349 . S
C3293 C3309 1.349 . S
C3294 C3292 1.327 . S
C3294 C3313 1.429 . S
C3294 H3318 0.950 . S
C3295 C3312 1.574 . S
C3295 C3314 1.368 . S
C3295 H3319 0.949 . S
H3296 C3300 0.949 . S
C3297 C3298 1.349 . S
C3297 C3299 1.327 . S
C3297 H3320 0.950 . S
C3298 C3297 1.349 . S
C3298 C3310 1.349 . S
C3299 C3297 1.327 . S
C3299 C3315 1.429 . S
C3299 H3321 0.950 . S
C3300 H3296 0.949 . S
C3300 C3308 1.574 . S
C3300 C3316 1.368 . S
H3301 C3309 0.950 . S
H3302 C3307 0.950 . S
H3303 C3308 0.949 . S
H3304 C3310 0.950 . S
H3305 C3311 0.950 . S
H3306 C3312 0.949 . S
C3307 H3302 0.950 . S
C3307 C3309 1.327 . S
C3307 C3313 1.429 . S
C3308 C3300 1.574 . S
C3308 H3303 0.949 . S
C3308 C3314 1.368 . S
C3309 C3293 1.349 . S
C3309 H3301 0.950 . S
C3309 C3307 1.327 . S
C3310 C3298 1.349 . S
C3310 H3304 0.950 . S
C3310 C3311 1.327 . S
C3311 H3305 0.950 . S
C3311 C3310 1.327 . S
C3311 C3315 1.429 . S
C3312 C3295 1.574 . S
C3312 H3306 0.949 . S
C3312 C3316 1.368 . S
C3313 C3294 1.429 . S
C3313 C3307 1.429 . S
C3313 C3314 1.523 . S
C3314 C3295 1.368 . S
C3314 C3308 1.368 . S
C3314 C3313 1.523 . S
C3315 C3299 1.429 . S
C3315 C3311 1.429 . S
C3315 C3316 1.523 . S
C3316 C3300 1.368 . S
C3316 C3312 1.368 . S
C3316 C3315 1.523 . S
H3317 C3292 0.950 . S
H3318 C3294 0.950 . S
H3319 C3295 0.949 . S
H3320 C3297 0.950 . S
H3321 C3299 0.950 . S
C3322 C3323 1.349 . S
C3322 C3324 1.327 . S
C3322 H3347 0.950 . S
C3323 C3322 1.349 . S
C3323 C3339 1.349 . S
C3324 C3322 1.327 . S
C3324 C3343 1.429 . S
C3324 H3348 0.950 . S
C3325 C3342 1.574 . S
C3325 C3344 1.368 . S
C3325 H3349 0.949 . S
H3326 C3330 0.949 . S
C3327 C3328 1.349 . S
C3327 C3329 1.327 . S
C3327 H3350 0.950 . S
C3328 C3327 1.349 . S
C3328 C3340 1.349 . S
C3329 C3327 1.327 . S
C3329 C3345 1.429 . S
C3329 H3351 0.950 . S
C3330 H3326 0.949 . S
C3330 C3338 1.574 . S
C3330 C3346 1.368 . S
H3331 C3339 0.950 . S
H3332 C3337 0.950 . S
H3333 C3338 0.949 . S
H3334 C3340 0.950 . S
H3335 C3341 0.950 . S
H3336 C3342 0.949 . S
C3337 H3332 0.950 . S
C3337 C3339 1.327 . S
C3337 C3343 1.429 . S
C3338 C3330 1.574 . S
C3338 H3333 0.949 . S
C3338 C3344 1.368 . S
C3339 C3323 1.349 . S
C3339 H3331 0.950 . S
C3339 C3337 1.327 . S
C3340 C3328 1.349 . S
C3340 H3334 0.950 . S
C3340 C3341 1.327 . S
C3341 H3335 0.950 . S
C3341 C3340 1.327 . S
C3341 C3345 1.429 . S
C3342 C3325 1.574 . S
C3342 H3336 0.949 . S
C3342 C3346 1.368 . S
C3343 C3324 1.429 . S
C3343 C3337 1.429 . S
C3343 C3344 1.523 . S
C3344 C3325 1.368 . S
C3344 C3338 1.368 . S
C3344 C3343 1.523 . S
C3345 C3329 1.429 . S
C3345 C3341 1.429 . S
C3345 C3346 1.523 . S
C3346 C3330 1.368 . S
C3346 C3342 1.368 . S
C3346 C3345 1.523 . S
H3347 C3322 0.950 . S
H3348 C3324 0.950 . S
H3349 C3325 0.949 . S
H3350 C3327 0.950 . S
H3351 C3329 0.950 . S
C3352 C3353 1.349 . S
C3352 C3354 1.327 . S
C3352 H3377 0.950 . S
C3353 C3352 1.349 . S
C3353 C3369 1.349 . S
C3354 C3352 1.327 . S
C3354 C3373 1.429 . S
C3354 H3378 0.950 . S
C3355 C3372 1.574 . S
C3355 C3374 1.368 . S
C3355 H3379 0.949 . S
H3356 C3360 0.949 . S
C3357 C3358 1.349 . S
C3357 C3359 1.327 . S
C3357 H3380 0.950 . S
C3358 C3357 1.349 . S
C3358 C3370 1.349 . S
C3359 C3357 1.327 . S
C3359 C3375 1.429 . S
C3359 H3381 0.950 . S
C3360 H3356 0.949 . S
C3360 C3368 1.574 . S
C3360 C3376 1.368 . S
H3361 C3369 0.950 . S
H3362 C3367 0.950 . S
H3363 C3368 0.949 . S
H3364 C3370 0.950 . S
H3365 C3371 0.950 . S
H3366 C3372 0.949 . S
C3367 H3362 0.950 . S
C3367 C3369 1.327 . S
C3367 C3373 1.429 . S
C3368 C3360 1.574 . S
C3368 H3363 0.949 . S
C3368 C3374 1.368 . S
C3369 C3353 1.349 . S
C3369 H3361 0.950 . S
C3369 C3367 1.327 . S
C3370 C3358 1.349 . S
C3370 H3364 0.950 . S
C3370 C3371 1.327 . S
C3371 H3365 0.950 . S
C3371 C3370 1.327 . S
C3371 C3375 1.429 . S
C3372 C3355 1.574 . S
C3372 H3366 0.949 . S
C3372 C3376 1.368 . S
C3373 C3354 1.429 . S
C3373 C3367 1.429 . S
C3373 C3374 1.523 . S
C3374 C3355 1.368 . S
C3374 C3368 1.368 . S
C3374 C3373 1.523 . S
C3375 C3359 1.429 . S
C3375 C3371 1.429 . S
C3375 C3376 1.523 . S
C3376 C3360 1.368 . S
C3376 C3372 1.368 . S
C3376 C3375 1.523 . S
H3377 C3352 0.950 . S
H3378 C3354 0.950 . S
H3379 C3355 0.949 . S
H3380 C3357 0.950 . S
H3381 C3359 0.950 . S
C3382 C3383 1.349 . S
C3382 C3384 1.327 . S
C3382 H3407 0.950 . S
C3383 C3382 1.349 . S
C3383 C3399 1.349 . S
C3384 C3382 1.327 . S
C3384 C3403 1.429 . S
C3384 H3408 0.950 . S
C3385 C3402 1.574 . S
C3385 C3404 1.368 . S
C3385 H3409 0.949 . S
H3386 C3390 0.949 . S
C3387 C3388 1.349 . S
C3387 C3389 1.327 . S
C3387 H3410 0.950 . S
C3388 C3387 1.349 . S
C3388 C3400 1.349 . S
C3389 C3387 1.327 . S
C3389 C3405 1.429 . S
C3389 H3411 0.950 . S
C3390 H3386 0.949 . S
C3390 C3398 1.574 . S
C3390 C3406 1.368 . S
H3391 C3399 0.950 . S
H3392 C3397 0.950 . S
H3393 C3398 0.949 . S
H3394 C3400 0.950 . S
H3395 C3401 0.950 . S
H3396 C3402 0.949 . S
C3397 H3392 0.950 . S
C3397 C3399 1.327 . S
C3397 C3403 1.429 . S
C3398 C3390 1.574 . S
C3398 H3393 0.949 . S
C3398 C3404 1.368 . S
C3399 C3383 1.349 . S
C3399 H3391 0.950 . S
C3399 C3397 1.327 . S
C3400 C3388 1.349 . S
C3400 H3394 0.950 . S
C3400 C3401 1.327 . S
C3401 H3395 0.950 . S
C3401 C3400 1.327 . S
C3401 C3405 1.429 . S
C3402 C3385 1.574 . S
C3402 H3396 0.949 . S
C3402 C3406 1.368 . S
C3403 C3384 1.429 . S
C3403 C3397 1.429 . S
C3403 C3404 1.523 . S
C3404 C3385 1.368 . S
C3404 C3398 1.368 . S
C3404 C3403 1.523 . S
C3405 C3389 1.429 . S
C3405 C3401 1.429 . S
C3405 C3406 1.523 . S
C3406 C3390 1.368 . S
C3406 C3402 1.368 . S
C3406 C3405 1.523 . S
H3407 C3382 0.950 . S
H3408 C3384 0.950 . S
H3409 C3385 0.949 . S
H3410 C3387 0.950 . S
H3411 C3389 0.950 . S
C3412 C3413 1.349 . S
C3412 C3414 1.327 . S
C3412 H3437 0.950 . S
C3413 C3412 1.349 . S
C3413 C3429 1.349 . S
C3414 C3412 1.327 . S
C3414 C3433 1.429 . S
C3414 H3438 0.950 . S
C3415 C3432 1.574 . S
C3415 C3434 1.368 . S
C3415 H3439 0.949 . S
H3416 C3420 0.993 . S
C3417 C3418 1.349 . S
C3417 C3419 1.327 . S
C3417 H3440 0.950 . S
C3418 C3417 1.349 . S
C3418 C3430 1.349 . S
C3419 C3417 1.327 . S
C3419 C3435 1.415 . S
C3419 H3441 0.950 1_455 S
C3420 H3416 0.993 . S
C3420 C3428 1.574 . S
C3420 C3436 1.368 . S
H3421 C3429 0.950 . S
H3422 C3427 0.950 . S
H3423 C3428 0.949 . S
H3424 C3430 0.950 . S
H3425 C3431 0.950 . S
H3426 C3432 0.949 . S
C3427 H3422 0.950 . S
C3427 C3429 1.327 . S
C3427 C3433 1.429 . S
C3428 C3420 1.574 . S
C3428 H3423 0.949 . S
C3428 C3434 1.368 . S
C3429 C3413 1.349 . S
C3429 H3421 0.950 . S
C3429 C3427 1.327 . S
C3430 C3418 1.349 . S
C3430 H3424 0.950 . S
C3430 C3431 1.327 . S
C3431 H3425 0.950 . S
C3431 C3430 1.327 . S
C3431 C3435 1.474 . S
C3432 C3415 1.574 . S
C3432 H3426 0.949 . S
C3432 C3436 1.368 . S
C3433 C3414 1.429 . S
C3433 C3427 1.429 . S
C3433 C3434 1.523 . S
C3434 C3415 1.368 . S
C3434 C3428 1.368 . S
C3434 C3433 1.523 . S
C3435 C3419 1.415 . S
C3435 C3431 1.474 . S
C3435 C3436 1.497 1_455 S
C3436 C3420 1.368 . S
C3436 C3432 1.368 . S
C3436 C3435 1.497 1_655 S
H3437 C3412 0.950 . S
H3438 C3414 0.950 . S
H3439 C3415 0.949 . S
H3440 C3417 0.950 . S
H3441 C3419 0.950 1_655 S
C3442 C3443 1.349 . S
C3442 C3444 1.327 . S
C3442 H3467 0.950 . S
C3443 C3442 1.349 . S
C3443 C3459 1.349 . S
C3444 C3442 1.327 . S
C3444 C3463 1.429 . S
C3444 H3468 0.950 . S
C3445 C3462 1.574 . S
C3445 C3464 1.368 . S
C3445 H3469 0.949 . S
H3446 C3450 0.949 . S
C3447 C3448 1.349 . S
C3447 C3449 1.327 . S
C3447 H3470 0.950 . S
C3448 C3447 1.349 . S
C3448 C3460 1.349 . S
C3449 C3447 1.327 . S
C3449 C3465 1.429 . S
C3449 H3471 0.950 . S
C3450 H3446 0.949 . S
C3450 C3458 1.574 . S
C3450 C3466 1.368 . S
H3451 C3459 0.950 . S
H3452 C3457 0.950 . S
H3453 C3458 0.949 . S
H3454 C3460 0.950 . S
H3455 C3461 0.950 . S
H3456 C3462 0.949 . S
C3457 H3452 0.950 . S
C3457 C3459 1.327 . S
C3457 C3463 1.429 . S
C3458 C3450 1.574 . S
C3458 H3453 0.949 . S
C3458 C3464 1.368 . S
C3459 C3443 1.349 . S
C3459 H3451 0.950 . S
C3459 C3457 1.327 . S
C3460 C3448 1.349 . S
C3460 H3454 0.950 . S
C3460 C3461 1.327 . S
C3461 H3455 0.950 . S
C3461 C3460 1.327 . S
C3461 C3465 1.429 . S
C3462 C3445 1.574 . S
C3462 H3456 0.949 . S
C3462 C3466 1.368 . S
C3463 C3444 1.429 . S
C3463 C3457 1.429 . S
C3463 C3464 1.523 . S
C3464 C3445 1.368 . S
C3464 C3458 1.368 . S
C3464 C3463 1.523 . S
C3465 C3449 1.429 . S
C3465 C3461 1.429 . S
C3465 C3466 1.523 . S
C3466 C3450 1.368 . S
C3466 C3462 1.368 . S
C3466 C3465 1.523 . S
H3467 C3442 0.950 . S
H3468 C3444 0.950 . S
H3469 C3445 0.949 . S
H3470 C3447 0.950 . S
H3471 C3449 0.950 . S
C3472 C3473 1.349 . S
C3472 C3474 1.327 . S
C3472 H3497 0.950 . S
C3473 C3472 1.349 . S
C3473 C3489 1.349 . S
C3474 C3472 1.327 . S
C3474 C3493 1.429 . S
C3474 H3498 0.950 . S
C3475 C3492 1.574 . S
C3475 C3494 1.368 . S
C3475 H3499 0.949 . S
H3476 C3480 0.949 . S
C3477 C3478 1.349 . S
C3477 C3479 1.327 . S
C3477 H3500 0.950 . S
C3478 C3477 1.349 . S
C3478 C3490 1.349 . S
C3479 C3477 1.327 . S
C3479 C3495 1.429 . S
C3479 H3501 0.950 . S
C3480 H3476 0.949 . S
C3480 C3488 1.574 . S
C3480 C3496 1.368 . S
H3481 C3489 0.950 . S
H3482 C3487 0.950 . S
H3483 C3488 0.949 . S
H3484 C3490 0.950 . S
H3485 C3491 0.950 . S
H3486 C3492 0.949 . S
C3487 H3482 0.950 . S
C3487 C3489 1.327 . S
C3487 C3493 1.429 . S
C3488 C3480 1.574 . S
C3488 H3483 0.949 . S
C3488 C3494 1.368 . S
C3489 C3473 1.349 . S
C3489 H3481 0.950 . S
C3489 C3487 1.327 . S
C3490 C3478 1.349 . S
C3490 H3484 0.950 . S
C3490 C3491 1.327 . S
C3491 H3485 0.950 . S
C3491 C3490 1.327 . S
C3491 C3495 1.429 . S
C3492 C3475 1.574 . S
C3492 H3486 0.949 . S
C3492 C3496 1.368 . S
C3493 C3474 1.429 . S
C3493 C3487 1.429 . S
C3493 C3494 1.523 . S
C3494 C3475 1.368 . S
C3494 C3488 1.368 . S
C3494 C3493 1.523 . S
C3495 C3479 1.429 . S
C3495 C3491 1.429 . S
C3495 C3496 1.523 . S
C3496 C3480 1.368 . S
C3496 C3492 1.368 . S
C3496 C3495 1.523 . S
H3497 C3472 0.950 . S
H3498 C3474 0.950 . S
H3499 C3475 0.949 . S
H3500 C3477 0.950 . S
H3501 C3479 0.950 . S
C3502 C3503 1.349 . S
C3502 C3504 1.327 . S
C3502 H3527 0.950 . S
C3503 C3502 1.349 . S
C3503 C3519 1.349 . S
C3504 C3502 1.327 . S
C3504 C3523 1.429 . S
C3504 H3528 0.950 . S
C3505 C3522 1.574 . S
C3505 C3524 1.368 . S
C3505 H3529 0.949 . S
H3506 C3510 0.949 . S
C3507 C3508 1.349 . S
C3507 C3509 1.327 . S
C3507 H3530 0.950 . S
C3508 C3507 1.349 . S
C3508 C3520 1.349 . S
C3509 C3507 1.327 . S
C3509 C3525 1.429 . S
C3509 H3531 0.950 . S
C3510 H3506 0.949 . S
C3510 C3518 1.574 . S
C3510 C3526 1.368 . S
H3511 C3519 0.950 . S
H3512 C3517 0.950 . S
H3513 C3518 0.949 . S
H3514 C3520 0.950 . S
H3515 C3521 0.950 . S
H3516 C3522 0.949 . S
C3517 H3512 0.950 . S
C3517 C3519 1.327 . S
C3517 C3523 1.429 . S
C3518 C3510 1.574 . S
C3518 H3513 0.949 . S
C3518 C3524 1.368 . S
C3519 C3503 1.349 . S
C3519 H3511 0.950 . S
C3519 C3517 1.327 . S
C3520 C3508 1.349 . S
C3520 H3514 0.950 . S
C3520 C3521 1.327 . S
C3521 H3515 0.950 . S
C3521 C3520 1.327 . S
C3521 C3525 1.429 . S
C3522 C3505 1.574 . S
C3522 H3516 0.949 . S
C3522 C3526 1.368 . S
C3523 C3504 1.429 . S
C3523 C3517 1.429 . S
C3523 C3524 1.523 . S
C3524 C3505 1.368 . S
C3524 C3518 1.368 . S
C3524 C3523 1.523 . S
C3525 C3509 1.429 . S
C3525 C3521 1.429 . S
C3525 C3526 1.523 . S
C3526 C3510 1.368 . S
C3526 C3522 1.368 . S
C3526 C3525 1.523 . S
H3527 C3502 0.950 . S
H3528 C3504 0.950 . S
H3529 C3505 0.949 . S
H3530 C3507 0.950 . S
H3531 C3509 0.950 . S
C3532 C3533 1.349 . S
C3532 C3534 1.327 . S
C3532 H3557 0.950 . S
C3533 C3532 1.349 . S
C3533 C3549 1.349 . S
C3534 C3532 1.327 . S
C3534 C3553 1.429 . S
C3534 H3558 0.950 . S
C3535 C3552 1.574 . S
C3535 C3554 1.368 . S
C3535 H3559 0.949 . S
H3536 C3540 0.949 . S
C3537 C3538 1.349 . S
C3537 C3539 1.327 . S
C3537 H3560 0.950 . S
C3538 C3537 1.349 . S
C3538 C3550 1.349 . S
C3539 C3537 1.327 . S
C3539 C3555 1.429 . S
C3539 H3561 0.950 . S
C3540 H3536 0.949 . S
C3540 C3548 1.574 . S
C3540 C3556 1.368 . S
H3541 C3549 0.950 . S
H3542 C3547 0.950 . S
H3543 C3548 0.949 . S
H3544 C3550 0.950 1_455 S
H3545 C3551 0.950 . S
H3546 C3552 0.949 . S
C3547 H3542 0.950 . S
C3547 C3549 1.327 . S
C3547 C3553 1.429 . S
C3548 C3540 1.574 . S
C3548 H3543 0.949 . S
C3548 C3554 1.368 . S
C3549 C3533 1.349 . S
C3549 H3541 0.950 . S
C3549 C3547 1.327 . S
C3550 C3538 1.349 . S
C3550 H3544 0.950 1_655 S
C3550 C3551 1.327 . S
C3551 H3545 0.950 . S
C3551 C3550 1.327 . S
C3551 C3555 1.429 . S
C3552 C3535 1.574 . S
C3552 H3546 0.949 . S
C3552 C3556 1.368 . S
C3553 C3534 1.429 . S
C3553 C3547 1.429 . S
C3553 C3554 1.523 . S
C3554 C3535 1.368 . S
C3554 C3548 1.368 . S
C3554 C3553 1.523 . S
C3555 C3539 1.429 . S
C3555 C3551 1.429 . S
C3555 C3556 1.523 . S
C3556 C3540 1.368 . S
C3556 C3552 1.368 . S
C3556 C3555 1.523 . S
H3557 C3532 0.950 . S
H3558 C3534 0.950 . S
H3559 C3535 0.949 . S
H3560 C3537 0.950 . S
H3561 C3539 0.950 . S
C3562 C3563 1.349 . S
C3562 C3564 1.327 . S
C3562 H3587 0.950 . S
C3563 C3562 1.349 . S
C3563 C3579 1.349 . S
C3564 C3562 1.327 . S
C3564 C3583 1.429 . S
C3564 H3588 0.950 . S
C3565 C3582 1.574 . S
C3565 C3584 1.368 . S
C3565 H3589 0.949 . S
H3566 C3570 0.949 . S
C3567 C3568 1.349 . S
C3567 C3569 1.327 . S
C3567 H3590 0.950 . S
C3568 C3567 1.349 . S
C3568 C3580 1.349 . S
C3569 C3567 1.327 . S
C3569 C3585 1.429 . S
C3569 H3591 0.950 . S
C3570 H3566 0.949 . S
C3570 C3578 1.574 . S
C3570 C3586 1.368 . S
H3571 C3579 0.950 . S
H3572 C3577 0.950 . S
H3573 C3578 0.949 . S
H3574 C3580 0.950 . S
H3575 C3581 0.950 . S
H3576 C3582 0.949 . S
C3577 H3572 0.950 . S
C3577 C3579 1.327 . S
C3577 C3583 1.429 . S
C3578 C3570 1.574 . S
C3578 H3573 0.949 . S
C3578 C3584 1.368 . S
C3579 C3563 1.349 . S
C3579 H3571 0.950 . S
C3579 C3577 1.327 . S
C3580 C3568 1.349 . S
C3580 H3574 0.950 . S
C3580 C3581 1.327 . S
C3581 H3575 0.950 . S
C3581 C3580 1.327 . S
C3581 C3585 1.429 . S
C3582 C3565 1.574 . S
C3582 H3576 0.949 . S
C3582 C3586 1.368 . S
C3583 C3564 1.429 . S
C3583 C3577 1.429 . S
C3583 C3584 1.523 . S
C3584 C3565 1.368 . S
C3584 C3578 1.368 . S
C3584 C3583 1.523 . S
C3585 C3569 1.429 . S
C3585 C3581 1.429 . S
C3585 C3586 1.523 . S
C3586 C3570 1.368 . S
C3586 C3582 1.368 . S
C3586 C3585 1.523 . S
H3587 C3562 0.950 . S
H3588 C3564 0.950 . S
H3589 C3565 0.949 . S
H3590 C3567 0.950 . S
H3591 C3569 0.950 . S
C3592 C3593 1.349 . S
C3592 C3594 1.327 . S
C3592 H3617 0.950 . S
C3593 C3592 1.349 . S
C3593 C3609 1.349 . S
C3594 C3592 1.327 . S
C3594 C3613 1.429 . S
C3594 H3618 0.950 . S
C3595 C3612 1.574 . S
C3595 C3614 1.368 . S
C3595 H3619 0.949 . S
H3596 C3600 0.949 . S
C3597 C3598 1.349 . S
C3597 C3599 1.327 . S
C3597 H3620 0.950 . S
C3598 C3597 1.349 . S
C3598 C3610 1.349 . S
C3599 C3597 1.327 . S
C3599 C3615 1.429 . S
C3599 H3621 0.950 . S
C3600 H3596 0.949 . S
C3600 C3608 1.574 . S
C3600 C3616 1.368 . S
H3601 C3609 0.950 . S
H3602 C3607 0.950 . S
H3603 C3608 0.949 . S
H3604 C3610 0.950 . S
H3605 C3611 0.950 . S
H3606 C3612 0.949 . S
C3607 H3602 0.950 . S
C3607 C3609 1.327 . S
C3607 C3613 1.429 . S
C3608 C3600 1.574 . S
C3608 H3603 0.949 . S
C3608 C3614 1.368 . S
C3609 C3593 1.349 . S
C3609 H3601 0.950 . S
C3609 C3607 1.327 . S
C3610 C3598 1.349 . S
C3610 H3604 0.950 . S
C3610 C3611 1.327 . S
C3611 H3605 0.950 . S
C3611 C3610 1.327 . S
C3611 C3615 1.429 . S
C3612 C3595 1.574 . S
C3612 H3606 0.949 . S
C3612 C3616 1.368 . S
C3613 C3594 1.429 . S
C3613 C3607 1.429 . S
C3613 C3614 1.523 . S
C3614 C3595 1.368 . S
C3614 C3608 1.368 . S
C3614 C3613 1.523 . S
C3615 C3599 1.429 . S
C3615 C3611 1.429 . S
C3615 C3616 1.523 . S
C3616 C3600 1.368 . S
C3616 C3612 1.368 . S
C3616 C3615 1.523 . S
H3617 C3592 0.950 . S
H3618 C3594 0.950 . S
H3619 C3595 0.949 . S
H3620 C3597 0.950 . S
H3621 C3599 0.950 . S
C3622 C3623 1.349 . S
C3622 C3624 1.327 . S
C3622 H3647 0.950 . S
C3623 C3622 1.349 . S
C3623 C3639 1.349 . S
C3624 C3622 1.327 . S
C3624 C3643 1.429 . S
C3624 H3648 0.950 . S
C3625 C3642 1.574 . S
C3625 C3644 1.368 . S
C3625 H3649 0.949 . S
H3626 C3630 0.949 . S
C3627 C3628 1.349 . S
C3627 C3629 1.327 1_545 S
C3627 H3650 0.950 . S
C3628 C3627 1.349 . S
C3628 C3640 1.349 1_545 S
C3629 C3627 1.327 1_565 S
C3629 C3645 1.429 . S
C3629 H3651 0.950 . S
C3630 H3626 0.949 . S
C3630 C3638 1.574 . S
C3630 C3646 1.368 . S
H3631 C3639 0.950 . S
H3632 C3637 0.950 . S
H3633 C3638 0.949 . S
H3634 C3640 0.950 . S
H3635 C3641 0.950 . S
H3636 C3642 0.949 . S
C3637 H3632 0.950 . S
C3637 C3639 1.327 . S
C3637 C3643 1.429 . S
C3638 C3630 1.574 . S
C3638 H3633 0.949 . S
C3638 C3644 1.368 . S
C3639 C3623 1.349 . S
C3639 H3631 0.950 . S
C3639 C3637 1.327 . S
C3640 C3628 1.349 1_565 S
C3640 H3634 0.950 . S
C3640 C3641 1.327 . S
C3641 H3635 0.950 . S
C3641 C3640 1.327 . S
C3641 C3645 1.429 . S
C3642 C3625 1.574 . S
C3642 H3636 0.949 . S
C3642 C3646 1.368 . S
C3643 C3624 1.429 . S
C3643 C3637 1.429 . S
C3643 C3644 1.523 . S
C3644 C3625 1.368 . S
C3644 C3638 1.368 . S
C3644 C3643 1.523 . S
C3645 C3629 1.429 . S
C3645 C3641 1.429 . S
C3645 C3646 1.523 . S
C3646 C3630 1.368 . S
C3646 C3642 1.368 . S
C3646 C3645 1.523 . S
H3647 C3622 0.950 . S
H3648 C3624 0.950 . S
H3649 C3625 0.949 . S
H3650 C3627 0.950 . S
H3651 C3629 0.950 . S
C3652 C3653 1.349 . S
C3652 C3654 1.327 . S
C3652 H3677 0.950 . S
C3653 C3652 1.349 . S
C3653 C3669 1.349 . S
C3654 C3652 1.327 . S
C3654 C3673 1.429 . S
C3654 H3678 0.950 . S
C3655 C3672 1.574 . S
C3655 C3674 1.368 . S
C3655 H3679 0.949 . S
H3656 C3660 0.949 . S
C3657 C3658 1.349 . S
C3657 C3659 1.327 . S
C3657 H3680 0.950 . S
C3658 C3657 1.349 . S
C3658 C3670 1.349 . S
C3659 C3657 1.327 . S
C3659 C3675 1.429 . S
C3659 H3681 0.950 . S
C3660 H3656 0.949 . S
C3660 C3668 1.574 . S
C3660 C3676 1.368 . S
H3661 C3669 0.950 . S
H3662 C3667 0.950 . S
H3663 C3668 0.949 . S
H3664 C3670 0.950 . S
H3665 C3671 0.950 . S
H3666 C3672 0.949 . S
C3667 H3662 0.950 . S
C3667 C3669 1.327 . S
C3667 C3673 1.429 . S
C3668 C3660 1.574 . S
C3668 H3663 0.949 . S
C3668 C3674 1.368 . S
C3669 C3653 1.349 . S
C3669 H3661 0.950 . S
C3669 C3667 1.327 . S
C3670 C3658 1.349 . S
C3670 H3664 0.950 . S
C3670 C3671 1.327 . S
C3671 H3665 0.950 . S
C3671 C3670 1.327 . S
C3671 C3675 1.429 . S
C3672 C3655 1.574 . S
C3672 H3666 0.949 . S
C3672 C3676 1.368 . S
C3673 C3654 1.429 . S
C3673 C3667 1.429 . S
C3673 C3674 1.523 . S
C3674 C3655 1.368 . S
C3674 C3668 1.368 . S
C3674 C3673 1.523 . S
C3675 C3659 1.429 . S
C3675 C3671 1.429 . S
C3675 C3676 1.523 . S
C3676 C3660 1.368 . S
C3676 C3672 1.368 . S
C3676 C3675 1.523 . S
H3677 C3652 0.950 . S
H3678 C3654 0.950 . S
H3679 C3655 0.949 . S
H3680 C3657 0.950 . S
H3681 C3659 0.950 . S
C3682 C3683 1.349 1_556 S
C3682 C3684 1.327 . S
C3682 H3707 0.950 . S
C3683 C3682 1.349 1_554 S
C3683 C3699 1.349 . S
C3684 C3682 1.327 . S
C3684 C3703 1.429 1_556 S
C3684 H3708 0.950 . S
C3685 C3702 1.574 . S
C3685 C3704 1.368 . S
C3685 H3709 0.949 . S
H3686 C3690 0.949 . S
C3687 C3688 1.349 . S
C3687 C3689 1.327 . S
C3687 H3710 0.950 . S
C3688 C3687 1.349 . S
C3688 C3700 1.339 1_554 S
C3689 C3687 1.327 . S
C3689 C3705 1.429 . S
C3689 H3711 0.950 . S
C3690 H3686 0.949 . S
C3690 C3698 1.574 . S
C3690 C3706 1.368 1_556 S
H3691 C3699 0.950 . S
H3692 C3697 0.950 . S
H3693 C3698 0.949 . S
H3694 C3700 0.956 . S
H3695 C3701 0.950 . S
H3696 C3702 0.949 . S
C3697 H3692 0.950 . S
C3697 C3699 1.327 . S
C3697 C3703 1.429 . S
C3698 C3690 1.574 . S
C3698 H3693 0.949 . S
C3698 C3704 1.368 1_556 S
C3699 C3683 1.349 . S
C3699 H3691 0.950 . S
C3699 C3697 1.327 . S
C3700 C3688 1.339 1_556 S
C3700 H3694 0.956 . S
C3700 C3701 1.331 . S
C3701 H3695 0.950 . S
C3701 C3700 1.331 . S
C3701 C3705 1.429 1_556 S
C3702 C3685 1.574 . S
C3702 H3696 0.949 . S
C3702 C3706 1.368 . S
C3703 C3684 1.429 1_554 S
C3703 C3697 1.429 . S
C3703 C3704 1.523 . S
C3704 C3685 1.368 . S
C3704 C3698 1.368 1_554 S
C3704 C3703 1.523 . S
C3705 C3689 1.429 . S
C3705 C3701 1.429 1_554 S
C3705 C3706 1.523 . S
C3706 C3690 1.368 1_554 S
C3706 C3702 1.368 . S
C3706 C3705 1.523 . S
H3707 C3682 0.950 . S
H3708 C3684 0.950 . S
H3709 C3685 0.949 . S
H3710 C3687 0.950 . S
H3711 C3689 0.950 . S
C3712 C3713 1.349 . S
C3712 C3714 1.327 . S
C3712 H3737 0.950 . S
C3713 C3712 1.349 . S
C3713 C3729 1.349 . S
C3714 C3712 1.327 . S
C3714 C3733 1.429 . S
C3714 H3738 0.950 . S
C3715 C3732 1.574 . S
C3715 C3734 1.368 . S
C3715 H3739 0.949 . S
H3716 C3720 0.949 . S
C3717 C3718 1.349 . S
C3717 C3719 1.327 . S
C3717 H3740 0.950 . S
C3718 C3717 1.349 . S
C3718 C3730 1.349 . S
C3719 C3717 1.327 . S
C3719 C3735 1.429 . S
C3719 H3741 0.950 . S
C3720 H3716 0.949 . S
C3720 C3728 1.574 . S
C3720 C3736 1.368 . S
H3721 C3729 0.950 . S
H3722 C3727 0.950 . S
H3723 C3728 0.949 . S
H3724 C3730 0.950 . S
H3725 C3731 0.950 . S
H3726 C3732 0.949 . S
C3727 H3722 0.950 . S
C3727 C3729 1.327 . S
C3727 C3733 1.429 . S
C3728 C3720 1.574 . S
C3728 H3723 0.949 . S
C3728 C3734 1.368 . S
C3729 C3713 1.349 . S
C3729 H3721 0.950 . S
C3729 C3727 1.327 . S
C3730 C3718 1.349 . S
C3730 H3724 0.950 . S
C3730 C3731 1.327 . S
C3731 H3725 0.950 . S
C3731 C3730 1.327 . S
C3731 C3735 1.429 . S
C3732 C3715 1.574 . S
C3732 H3726 0.949 . S
C3732 C3736 1.368 . S
C3733 C3714 1.429 . S
C3733 C3727 1.429 . S
C3733 C3734 1.523 . S
C3734 C3715 1.368 . S
C3734 C3728 1.368 . S
C3734 C3733 1.523 . S
C3735 C3719 1.429 . S
C3735 C3731 1.429 . S
C3735 C3736 1.523 . S
C3736 C3720 1.368 . S
C3736 C3732 1.368 . S
C3736 C3735 1.523 . S
H3737 C3712 0.950 . S
H3738 C3714 0.950 . S
H3739 C3715 0.949 . S
H3740 C3717 0.950 . S
H3741 C3719 0.950 . S
C3742 C3743 1.327 1_556 S
C3742 C3744 1.336 . S
C3742 H3767 0.964 . S
C3743 C3742 1.327 1_554 S
C3743 C3759 1.349 . S
C3744 C3742 1.336 . S
C3744 C3763 1.429 1_556 S
C3744 H3768 0.950 . S
C3745 C3762 1.574 . S
C3745 C3764 1.375 . S
C3745 H3769 0.949 . S
H3746 C3750 0.949 . S
C3747 C3748 1.349 . S
C3747 C3749 1.327 . S
C3747 H3770 0.945 1_556 S
C3748 C3747 1.349 . S
C3748 C3760 1.349 . S
C3749 C3747 1.327 . S
C3749 C3765 1.429 . S
C3749 H3771 0.950 1_556 S
C3750 H3746 0.949 . S
C3750 C3758 1.574 . S
C3750 C3766 1.368 . S
H3751 C3759 0.950 . S
H3752 C3757 0.950 . S
H3753 C3758 0.949 . S
H3754 C3760 0.950 . S
H3755 C3761 0.950 . S
H3756 C3762 0.949 . S
C3757 H3752 0.950 . S
C3757 C3759 1.327 . S
C3757 C3763 1.429 . S
C3758 C3750 1.574 . S
C3758 H3753 0.949 . S
C3758 C3764 1.359 1_556 S
C3759 C3743 1.349 . S
C3759 H3751 0.950 . S
C3759 C3757 1.327 . S
C3760 C3748 1.349 . S
C3760 H3754 0.950 . S
C3760 C3761 1.327 . S
C3761 H3755 0.950 . S
C3761 C3760 1.327 . S
C3761 C3765 1.429 . S
C3762 C3745 1.574 . S
C3762 H3756 0.949 . S
C3762 C3766 1.368 1_554 S
C3763 C3744 1.429 1_554 S
C3763 C3757 1.429 . S
C3763 C3764 1.526 . S
C3764 C3745 1.375 . S
C3764 C3758 1.359 1_554 S
C3764 C3763 1.526 . S
C3765 C3749 1.429 . S
C3765 C3761 1.429 . S
C3765 C3766 1.523 . S
C3766 C3750 1.368 . S
C3766 C3762 1.368 1_556 S
C3766 C3765 1.523 . S
H3767 C3742 0.964 . S
H3768 C3744 0.950 . S
H3769 C3745 0.949 . S
H3770 C3747 0.945 1_554 S
H3771 C3749 0.950 1_554 S
C3772 C3773 1.349 . S
C3772 C3774 1.327 . S
C3772 H3797 0.950 . S
C3773 C3772 1.349 . S
C3773 C3789 1.349 . S
C3774 C3772 1.327 . S
C3774 C3793 1.429 . S
C3774 H3798 0.950 . S
C3775 C3792 1.574 . S
C3775 C3794 1.368 . S
C3775 H3799 0.949 . S
H3776 C3780 0.949 . S
C3777 C3778 1.349 . S
C3777 C3779 1.327 . S
C3777 H3800 0.950 . S
C3778 C3777 1.349 . S
C3778 C3790 1.349 . S
C3779 C3777 1.327 . S
C3779 C3795 1.429 . S
C3779 H3801 0.950 . S
C3780 H3776 0.949 . S
C3780 C3788 1.574 . S
C3780 C3796 1.368 . S
H3781 C3789 0.950 1_545 S
H3782 C3787 0.950 . S
H3783 C3788 0.949 . S
H3784 C3790 0.950 . S
H3785 C3791 0.950 . S
H3786 C3792 0.949 . S
C3787 H3782 0.950 . S
C3787 C3789 1.327 . S
C3787 C3793 1.429 . S
C3788 C3780 1.574 . S
C3788 H3783 0.949 . S
C3788 C3794 1.368 . S
C3789 C3773 1.349 . S
C3789 H3781 0.950 1_565 S
C3789 C3787 1.327 . S
C3790 C3778 1.349 . S
C3790 H3784 0.950 . S
C3790 C3791 1.327 . S
C3791 H3785 0.950 . S
C3791 C3790 1.327 . S
C3791 C3795 1.429 . S
C3792 C3775 1.574 . S
C3792 H3786 0.949 . S
C3792 C3796 1.368 . S
C3793 C3774 1.429 . S
C3793 C3787 1.429 . S
C3793 C3794 1.523 . S
C3794 C3775 1.368 . S
C3794 C3788 1.368 . S
C3794 C3793 1.523 . S
C3795 C3779 1.429 . S
C3795 C3791 1.429 . S
C3795 C3796 1.523 . S
C3796 C3780 1.368 . S
C3796 C3792 1.368 . S
C3796 C3795 1.523 . S
H3797 C3772 0.950 . S
H3798 C3774 0.950 . S
H3799 C3775 0.949 . S
H3800 C3777 0.950 . S
H3801 C3779 0.950 . S
C3802 C3803 1.349 . S
C3802 C3804 1.327 . S
C3802 H3827 0.950 . S
C3803 C3802 1.349 . S
C3803 C3819 1.349 . S
C3804 C3802 1.327 . S
C3804 C3823 1.429 . S
C3804 H3828 0.950 . S
C3805 C3822 1.574 . S
C3805 C3824 1.368 . S
C3805 H3829 0.949 . S
H3806 C3810 0.949 . S
C3807 C3808 1.349 . S
C3807 C3809 1.327 . S
C3807 H3830 0.950 . S
C3808 C3807 1.349 . S
C3808 C3820 1.349 . S
C3809 C3807 1.327 . S
C3809 C3825 1.429 . S
C3809 H3831 0.950 . S
C3810 H3806 0.949 . S
C3810 C3818 1.574 . S
C3810 C3826 1.368 . S
H3811 C3819 0.950 . S
H3812 C3817 0.950 . S
H3813 C3818 0.949 . S
H3814 C3820 0.950 . S
H3815 C3821 0.950 . S
H3816 C3822 0.949 . S
C3817 H3812 0.950 . S
C3817 C3819 1.327 . S
C3817 C3823 1.429 . S
C3818 C3810 1.574 . S
C3818 H3813 0.949 . S
C3818 C3824 1.368 . S
C3819 C3803 1.349 . S
C3819 H3811 0.950 . S
C3819 C3817 1.327 . S
C3820 C3808 1.349 . S
C3820 H3814 0.950 . S
C3820 C3821 1.327 . S
C3821 H3815 0.950 . S
C3821 C3820 1.327 . S
C3821 C3825 1.429 . S
C3822 C3805 1.574 . S
C3822 H3816 0.949 . S
C3822 C3826 1.368 . S
C3823 C3804 1.429 . S
C3823 C3817 1.429 . S
C3823 C3824 1.523 . S
C3824 C3805 1.368 . S
C3824 C3818 1.368 . S
C3824 C3823 1.523 . S
C3825 C3809 1.429 . S
C3825 C3821 1.429 . S
C3825 C3826 1.523 . S
C3826 C3810 1.368 . S
C3826 C3822 1.368 . S
C3826 C3825 1.523 . S
H3827 C3802 0.950 . S
H3828 C3804 0.950 . S
H3829 C3805 0.949 . S
H3830 C3807 0.950 . S
H3831 C3809 0.950 . S
C953 C101 2.241 . S
C958 C314 2.215 1_556 S
C983 C57 2.054 . S
C988 C371 2.090 . S
C1013 C73 1.066 . S
C1018 C394 1.095 . S
C1048 C448 1.386 . S
C1043 C78 1.355 . S
C1073 C21 1.188 . S
C1078 C488 1.220 . S
C1108 C519 0.276 . S
C1103 C31 0.393 . S
C1138 C571 1.226 . S
C1133 C49 1.214 . S
C1163 C0 1.594 . S
C1168 C594 1.625 . S
C1198 C331 2.430 . S
C1193 C218 2.443 . S
C1223 C229 0.391 . S
C1228 C368 0.331 . S
C1258 C411 1.368 . S
C1253 C257 1.379 . S
C1288 C434 1.173 . S
C1283 C164 1.126 . S
C1313 C216 1.622 . S
C1318 C474 1.709 . S
C1348 C522 1.479 . S
C1343 C231 1.504 . S
C1378 C568 0.262 . S
C1373 C255 0.366 . S
C1408 C611 1.954 . S
C1403 C166 1.978 . S
C1438 C328 1.402 1_565 S
C1433 C143 1.356 . S
C1463 C265 1.998 . S
C1468 C651 2.032 . S
C1498 C683 2.498 . S
C1493 C299 2.522 . S
C1528 C714 0.572 1_655 S
C1523 C291 0.601 . S
C1553 C104 1.136 . S
C1558 C608 1.170 . S
C1583 C117 1.431 . S
C1588 C408 1.471 . S
C1613 C304 2.236 . S
C1618 C771 2.267 . S
C1648 C794 0.392 . S
C1643 C278 0.352 . S
C1678 C323 2.172 . S
C1673 C60 2.187 . S
C1708 C802 1.981 . S
C1703 C96 1.977 . S
C1733 C88 0.972 . S
C1738 C403 0.958 . S
C1763 C65 1.298 . S
C1768 C759 1.306 . S
C1798 C479 1.167 . S
C1793 C10 1.184 . S
C1823 C44 0.378 . S
C1828 C688 0.233 . S
C1858 C562 1.086 1_556 S
C1853 C34 1.028 . S
C1888 C843 1.577 . S
C1883 C13 1.633 . S
C1918 C322 2.359 . S
C1913 C138 2.311 . S
C1948 C799 0.334 . S
C1943 C296 0.235 . S
C1973 C112 1.255 . S
C1978 C402 1.277 . S
C2003 C270 1.062 . S
C2008 C763 1.051 . S
C2033 C140 1.619 . S
C2038 C483 1.603 . S
C2068 C691 1.425 . S
C2063 C294 1.417 . S
C2093 C114 0.153 . S
C2098 C559 0.298 . S
C2123 C268 1.862 . S
C2128 C842 1.882 . S
C2153 C169 1.374 . S
C2158 C319 1.364 . S
C2183 C161 1.927 . S
C2188 C642 1.939 . S
C2213 C234 2.466 . S
C2218 C514 2.435 . S
C2243 C226 0.488 . S
C2248 C723 0.410 . S
C2278 C839 1.166 . S
C2273 C247 1.197 . S
C2303 C195 1.454 . S
C2308 C399 1.434 . S
C2338 C442 2.166 . S
C2333 C239 2.154 . S
C2368 C363 0.371 . S
C2363 C187 0.291 . S
C2393 C75 2.241 . S
C2398 C874 2.216 . S
C2428 C811 2.090 . S
C2423 C83 2.054 . S
C2453 C99 1.066 . S
C2458 C914 1.095 . S
C2483 C52 1.355 . S
C2488 C768 1.386 . S
C2513 C47 1.187 . S
C2518 C648 1.219 . S
C2548 C679 0.275 . S
C2543 C5 0.393 . S
C2578 C731 1.226 . S
C2573 C23 1.212 . S
C2608 C834 1.625 . S
C2603 C26 1.594 . S
C2638 C891 2.430 . S
C2633 C244 2.443 . S
C2663 C177 0.391 . S
C2668 C808 0.331 . S
C2698 C931 1.368 . S
C2693 C192 1.379 . S
C2728 C754 1.173 . S
C2723 C203 1.127 . S
C2758 C634 1.710 . S
C2753 C242 1.622 . S
C2783 C179 1.503 . S
C2788 C682 1.479 . S
C2818 C728 0.262 . S
C2813 C190 0.366 . S
C2843 C205 1.978 . S
C2848 C851 1.954 . S
C2878 C888 1.403 . S
C2873 C286 1.356 . S
C2903 C122 1.998 . S
C2908 C491 2.032 . S
C2938 C523 2.499 . S
C2933 C130 2.529 . S
C2968 C554 0.573 . S
C2963 C148 0.601 . S
C2998 C848 1.170 . S
C2993 C273 1.136 . S
C3023 C260 1.431 . S
C3028 C928 1.471 . S
C3058 C451 2.266 . S
C3053 C135 2.230 . S
C3088 C354 0.392 . S
C3083 C109 0.352 . S
C3113 C86 2.187 . S
C3118 C883 2.172 . S
C3148 C362 1.981 . S
C3143 C70 1.977 . S
C3173 C62 0.971 . S
C3178 C923 0.958 . S
C3203 C91 1.298 . S
C3208 C439 1.307 . S
C3233 C36 1.184 . S
C3238 C639 1.167 . S
C3268 C528 0.233 . S
C3263 C18 0.379 . S
C3293 C8 1.028 . S
C3298 C722 1.086 . S
C3323 C39 1.627 . S
C3328 C603 1.577 . S
C3358 C882 2.359 . S
C3353 C307 2.311 . S
C3383 C153 0.234 . S
C3388 C359 0.334 . S
C3418 C922 1.277 . S
C3413 C281 1.255 . S
C3443 C127 1.062 . S
C3448 C443 1.051 . S
C3473 C309 1.619 . S
C3478 C643 1.606 . S
C3508 C531 1.424 . S
C3503 C151 1.417 . S
C3533 C283 0.153 . S
C3538 C719 0.298 . S
C3568 C602 1.882 . S
C3563 C125 1.862 . S
C3598 C879 1.364 . S
C3593 C221 1.374 . S
C3628 C482 1.939 1_655 S
C3623 C200 1.927 . S
C3653 C208 2.466 . S
C3658 C674 2.435 . S
C3688 C563 0.410 . S
C3683 C174 0.488 . S
C3713 C182 1.197 . S
C3718 C599 1.166 . S
C3743 C156 1.454 . S
C3748 C919 1.434 . S
C3778 C762 2.167 . S
C3773 C213 2.154 1_565 S
C3808 C803 0.371 . S
C3803 C252 0.291 . S
