# Generated by pormake.
# Topology gar, (4,6)-cn, num edge types: 1
# Building blocks:
#     Node 0, Type 0, BuildingBlock: GALJAG_clean_sbu_0, # of connection points: 4
#     Node 1, Type 0, BuildingBlock: GALJAG_clean_sbu_0, # of connection points: 4
#     Node 2, Type 0, BuildingBlock: GALJAG_clean_sbu_0, # of connection points: 4
#     Node 3, Type 0, BuildingBlock: GALJAG_clean_sbu_0, # of connection points: 4
#     Node 4, Type 0, BuildingBlock: GALJAG_clean_sbu_0, # of connection points: 4
#     Node 5, Type 0, BuildingBlock: GALJAG_clean_sbu_0, # of connection points: 4
#     Node 6, Type 0, BuildingBlock: GALJAG_clean_sbu_0, # of connection points: 4
#     Node 7, Type 0, BuildingBlock: GALJAG_clean_sbu_0, # of connection points: 4
#     Node 8, Type 0, BuildingBlock: GALJAG_clean_sbu_0, # of connection points: 4
#     Node 9, Type 0, BuildingBlock: GALJAG_clean_sbu_0, # of connection points: 4
#     Node 10, Type 0, BuildingBlock: GALJAG_clean_sbu_0, # of connection points: 4
#     Node 11, Type 0, BuildingBlock: GALJAG_clean_sbu_0, # of connection points: 4
#     Node 12, Type 0, BuildingBlock: GALJAG_clean_sbu_0, # of connection points: 4
#     Node 13, Type 0, BuildingBlock: GALJAG_clean_sbu_0, # of connection points: 4
#     Node 14, Type 0, BuildingBlock: GALJAG_clean_sbu_0, # of connection points: 4
#     Node 15, Type 0, BuildingBlock: GALJAG_clean_sbu_0, # of connection points: 4
#     Node 16, Type 0, BuildingBlock: GALJAG_clean_sbu_0, # of connection points: 4
#     Node 17, Type 0, BuildingBlock: GALJAG_clean_sbu_0, # of connection points: 4
#     Node 18, Type 0, BuildingBlock: GALJAG_clean_sbu_0, # of connection points: 4
#     Node 19, Type 0, BuildingBlock: GALJAG_clean_sbu_0, # of connection points: 4
#     Node 20, Type 0, BuildingBlock: GALJAG_clean_sbu_0, # of connection points: 4
#     Node 21, Type 0, BuildingBlock: GALJAG_clean_sbu_0, # of connection points: 4
#     Node 22, Type 0, BuildingBlock: GALJAG_clean_sbu_0, # of connection points: 4
#     Node 23, Type 0, BuildingBlock: GALJAG_clean_sbu_0, # of connection points: 4
#     Node 24, Type 1, BuildingBlock: CUKXOW_clean_sbu_0, # of connection points: 6
#     Node 25, Type 1, BuildingBlock: CUKXOW_clean_sbu_0, # of connection points: 6
#     Node 26, Type 1, BuildingBlock: CUKXOW_clean_sbu_0, # of connection points: 6
#     Node 27, Type 1, BuildingBlock: CUKXOW_clean_sbu_0, # of connection points: 6
#     Node 28, Type 1, BuildingBlock: CUKXOW_clean_sbu_0, # of connection points: 6
#     Node 29, Type 1, BuildingBlock: CUKXOW_clean_sbu_0, # of connection points: 6
#     Node 30, Type 1, BuildingBlock: CUKXOW_clean_sbu_0, # of connection points: 6
#     Node 31, Type 1, BuildingBlock: CUKXOW_clean_sbu_0, # of connection points: 6
#     Node 32, Type 1, BuildingBlock: CUKXOW_clean_sbu_0, # of connection points: 6
#     Node 33, Type 1, BuildingBlock: CUKXOW_clean_sbu_0, # of connection points: 6
#     Node 34, Type 1, BuildingBlock: CUKXOW_clean_sbu_0, # of connection points: 6
#     Node 35, Type 1, BuildingBlock: CUKXOW_clean_sbu_0, # of connection points: 6
#     Node 36, Type 1, BuildingBlock: CUKXOW_clean_sbu_0, # of connection points: 6
#     Node 37, Type 1, BuildingBlock: CUKXOW_clean_sbu_0, # of connection points: 6
#     Node 38, Type 1, BuildingBlock: CUKXOW_clean_sbu_0, # of connection points: 6
#     Node 39, Type 1, BuildingBlock: CUKXOW_clean_sbu_0, # of connection points: 6
#     Edge 40, Type (0, 1), None
#     Edge 41, Type (0, 1), None
#     Edge 42, Type (0, 1), None
#     Edge 43, Type (0, 1), None
#     Edge 44, Type (0, 1), None
#     Edge 45, Type (0, 1), None
#     Edge 46, Type (0, 1), None
#     Edge 47, Type (0, 1), None
#     Edge 48, Type (0, 1), None
#     Edge 49, Type (0, 1), None
#     Edge 50, Type (0, 1), None
#     Edge 51, Type (0, 1), None
#     Edge 52, Type (0, 1), None
#     Edge 53, Type (0, 1), None
#     Edge 54, Type (0, 1), None
#     Edge 55, Type (0, 1), None
#     Edge 56, Type (0, 1), None
#     Edge 57, Type (0, 1), None
#     Edge 58, Type (0, 1), None
#     Edge 59, Type (0, 1), None
#     Edge 60, Type (0, 1), None
#     Edge 61, Type (0, 1), None
#     Edge 62, Type (0, 1), None
#     Edge 63, Type (0, 1), None
#     Edge 64, Type (0, 1), None
#     Edge 65, Type (0, 1), None
#     Edge 66, Type (0, 1), None
#     Edge 67, Type (0, 1), None
#     Edge 68, Type (0, 1), None
#     Edge 69, Type (0, 1), None
#     Edge 70, Type (0, 1), None
#     Edge 71, Type (0, 1), None
#     Edge 72, Type (0, 1), None
#     Edge 73, Type (0, 1), None
#     Edge 74, Type (0, 1), None
#     Edge 75, Type (0, 1), None
#     Edge 76, Type (0, 1), None
#     Edge 77, Type (0, 1), None
#     Edge 78, Type (0, 1), None
#     Edge 79, Type (0, 1), None
#     Edge 80, Type (0, 1), None
#     Edge 81, Type (0, 1), None
#     Edge 82, Type (0, 1), None
#     Edge 83, Type (0, 1), None
#     Edge 84, Type (0, 1), None
#     Edge 85, Type (0, 1), None
#     Edge 86, Type (0, 1), None
#     Edge 87, Type (0, 1), None
#     Edge 88, Type (0, 1), None
#     Edge 89, Type (0, 1), None
#     Edge 90, Type (0, 1), None
#     Edge 91, Type (0, 1), None
#     Edge 92, Type (0, 1), None
#     Edge 93, Type (0, 1), None
#     Edge 94, Type (0, 1), None
#     Edge 95, Type (0, 1), None
#     Edge 96, Type (0, 1), None
#     Edge 97, Type (0, 1), None
#     Edge 98, Type (0, 1), None
#     Edge 99, Type (0, 1), None
#     Edge 100, Type (0, 1), None
#     Edge 101, Type (0, 1), None
#     Edge 102, Type (0, 1), None
#     Edge 103, Type (0, 1), None
#     Edge 104, Type (0, 1), None
#     Edge 105, Type (0, 1), None
#     Edge 106, Type (0, 1), None
#     Edge 107, Type (0, 1), None
#     Edge 108, Type (0, 1), None
#     Edge 109, Type (0, 1), None
#     Edge 110, Type (0, 1), None
#     Edge 111, Type (0, 1), None
#     Edge 112, Type (0, 1), None
#     Edge 113, Type (0, 1), None
#     Edge 114, Type (0, 1), None
#     Edge 115, Type (0, 1), None
#     Edge 116, Type (0, 1), None
#     Edge 117, Type (0, 1), None
#     Edge 118, Type (0, 1), None
#     Edge 119, Type (0, 1), None
#     Edge 120, Type (0, 1), None
#     Edge 121, Type (0, 1), None
#     Edge 122, Type (0, 1), None
#     Edge 123, Type (0, 1), None
#     Edge 124, Type (0, 1), None
#     Edge 125, Type (0, 1), None
#     Edge 126, Type (0, 1), None
#     Edge 127, Type (0, 1), None
#     Edge 128, Type (0, 1), None
#     Edge 129, Type (0, 1), None
#     Edge 130, Type (0, 1), None
#     Edge 131, Type (0, 1), None
#     Edge 132, Type (0, 1), None
#     Edge 133, Type (0, 1), None
#     Edge 134, Type (0, 1), None
#     Edge 135, Type (0, 1), None
# Relax obj value: 0.173
# Max RMSD: 0.277
# Mean RMSD: 0.151
data_MOF--net-gar--node1-GALJAG_clean_sbu_0--node2-CUKXOW_clean_sbu_0--edge1-none
_symmetry_space_group_name_H-M    P1
_symmetry_Int_Tables_number       1
_symmetry_cell_setting            triclinic
loop_
_symmetry_equiv_pos_as_xyz
'x, y, z'
_cell_length_a     25.586936
_cell_length_b     24.156702
_cell_length_c     23.582626
_cell_angle_alpha  95.099973
_cell_angle_beta   92.854159
_cell_angle_gamma 94.255823
loop_
_atom_site_label
_atom_site_type_symbol
_atom_site_fract_x
_atom_site_fract_y
_atom_site_fract_z
_atom_type_partial_charge
In0 In 0.05223 0.27829 0.49993 0.0
O1 O 0.06959 0.23909 0.411 0.0
O2 O 0.13195 0.27934 0.46658 0.0
C3 C 0.97056 0.27923 0.42763 0.0
C4 C 0.05237 0.19682 0.5695 0.0
C5 C 0.05687 0.3813 0.55666 0.0
O6 O 1.00763 0.3171 0.43141 0.0
O7 O 0.97361 0.24216 0.46182 0.0
O8 O 0.01836 0.34578 0.55754 0.0
O9 O 0.09455 0.36407 0.52967 0.0
C10 C 0.11713 0.25598 0.41788 0.0
O11 O 0.09423 0.22463 0.56035 0.0
O12 O 1.01134 0.21128 0.54553 0.0
In13 In 1.0119 0.82247 0.62567 0.0
O14 O 0.9698 0.87619 0.56538 0.0
O15 O 0.05271 0.88946 0.58002 0.0
C16 C 1.00748 0.71947 0.56895 0.0
C17 C 0.0935 0.82166 0.69809 0.0
C18 C 0.94687 0.84458 0.70761 0.0
O19 O 0.96972 0.73667 0.59581 0.0
O20 O 0.04597 0.75504 0.56816 0.0
O21 O 0.99436 0.86167 0.71455 0.0
O22 O 0.93216 0.82112 0.65892 0.0
C23 C 1.01165 0.90399 0.55618 0.0
O24 O 0.05648 0.78374 0.69428 0.0
O25 O 0.09043 0.85873 0.6639 0.0
In26 In 0.55223 0.77829 0.99993 0.0
O27 O 0.56959 0.73909 0.91099 0.0
O28 O 0.63195 0.77934 0.96658 0.0
C29 C 0.47056 0.77923 0.92763 0.0
C30 C 0.55237 0.69682 0.0695 0.0
C31 C 0.55687 0.8813 0.05666 0.0
O32 O 0.50763 0.8171 0.93141 0.0
O33 O 0.47361 0.74216 0.96182 0.0
O34 O 0.51837 0.84578 0.05753 0.0
O35 O 0.59455 0.86407 0.02967 0.0
C36 C 0.61713 0.75598 0.91788 0.0
O37 O 0.59423 0.72463 0.06035 0.0
O38 O 0.51134 0.71128 0.04552 0.0
In39 In 0.5119 0.32247 0.12567 0.0
O40 O 0.46972 0.23667 0.09581 0.0
O41 O 0.54597 0.25503 0.06816 0.0
C42 C 0.51165 0.40399 0.05618 0.0
C43 C 0.44687 0.34458 0.20761 0.0
C44 C 0.5935 0.32166 0.19809 0.0
O45 O 0.4698 0.37619 0.06538 0.0
O46 O 0.55271 0.38946 0.08002 0.0
O47 O 0.55648 0.28374 0.19428 0.0
O48 O 0.59043 0.35873 0.1639 0.0
C49 C 0.50748 0.21947 0.06895 0.0
O50 O 0.49436 0.36167 0.21455 0.0
O51 O 0.43216 0.32112 0.15892 0.0
In52 In 0.0197 0.78051 0.22543 0.0
O53 O 0.05302 0.74107 0.14547 0.0
O54 O 1.00358 0.68778 0.19021 0.0
C55 C 1.01162 0.85743 0.15273 0.0
C56 C 0.92661 0.78118 0.28082 0.0
C57 C 0.1161 0.79981 0.28693 0.0
O58 O 0.99532 0.80744 0.13822 0.0
O59 O 0.02994 0.86841 0.20369 0.0
O60 O 0.09055 0.75281 0.27744 0.0
O61 O 0.09188 0.83876 0.26862 0.0
C62 C 0.0306 0.69333 0.14733 0.0
O63 O 0.9655 0.75688 0.29839 0.0
O64 O 0.93478 0.80556 0.23696 0.0
In65 In 0.54465 0.82026 0.40029 0.0
O66 O 0.59897 0.84423 0.32757 0.0
O67 O 0.62951 0.79501 0.3886 0.0
C68 C 0.44826 0.80081 0.33874 0.0
C69 C 0.55278 0.7435 0.47316 0.0
C70 C 0.5337 0.90747 0.47836 0.0
O71 O 0.47377 0.84783 0.34823 0.0
O72 O 0.47253 0.7619 0.35708 0.0
O73 O 0.51133 0.85971 0.48026 0.0
O74 O 0.5607 0.91303 0.43547 0.0
C75 C 0.63778 0.81973 0.34497 0.0
O76 O 0.56908 0.7935 0.48757 0.0
O77 O 0.53445 0.73242 0.42221 0.0
In78 In 0.5197 0.28051 0.72543 0.0
O79 O 0.55302 0.24107 0.64547 0.0
O80 O 0.50358 0.18778 0.69021 0.0
C81 C 0.51162 0.35743 0.65273 0.0
C82 C 0.42661 0.28118 0.78082 0.0
C83 C 0.6161 0.29981 0.78693 0.0
O84 O 0.49532 0.30744 0.63822 0.0
O85 O 0.52994 0.36841 0.70369 0.0
O86 O 0.59055 0.25281 0.77744 0.0
O87 O 0.59188 0.33877 0.76862 0.0
C88 C 0.53061 0.19333 0.64733 0.0
O89 O 0.4655 0.25688 0.79839 0.0
O90 O 0.43478 0.30556 0.73696 0.0
In91 In 0.04465 0.32026 0.90029 0.0
O92 O 0.06908 0.2935 0.98757 0.0
O93 O 0.03445 0.23242 0.92221 0.0
C94 C 0.0337 0.40747 0.97836 0.0
C95 C 0.13778 0.31973 0.84497 0.0
C96 C 0.94826 0.30081 0.83874 0.0
O97 O 1.01133 0.35971 0.98026 0.0
O98 O 0.0607 0.41303 0.93547 0.0
O99 O 0.97377 0.34783 0.84823 0.0
O100 O 0.97253 0.2619 0.85708 0.0
C101 C 0.05278 0.2435 0.97316 0.0
O102 O 0.09897 0.34423 0.82757 0.0
O103 O 0.12951 0.29501 0.8886 0.0
In104 In 0.42191 0.10742 0.29642 0.0
O105 O 0.49128 0.13803 0.24212 0.0
O106 O 0.45698 0.05597 0.22094 0.0
C107 C 0.47558 0.10655 0.40346 0.0
C108 C 0.35001 0.18129 0.2639 0.0
C109 C 0.35426 0.01816 0.30737 0.0
O110 O 0.49455 0.09122 0.35677 0.0
O111 O 0.43142 0.12576 0.39649 0.0
O112 O 0.36096 0.05834 0.3454 0.0
O113 O 0.38268 0.02205 0.26545 0.0
C114 C 0.49129 0.09313 0.20974 0.0
O115 O 0.34577 0.12972 0.25017 0.0
O116 O 0.39243 0.19779 0.29264 0.0
In117 In 0.27785 0.13724 0.51814 0.0
O118 O 0.23028 0.19856 0.56704 0.0
O119 O 0.31394 0.2052 0.58059 0.0
C120 C 0.31479 0.18501 0.42913 0.0
C121 C 0.33476 0.06319 0.56266 0.0
C122 C 0.18197 0.08676 0.51153 0.0
O123 O 0.33161 0.20121 0.47914 0.0
O124 O 0.28447 0.14089 0.42422 0.0
O125 O 0.22039 0.06831 0.53694 0.0
O126 O 0.19204 0.12992 0.4862 0.0
C127 C 0.27073 0.22331 0.59318 0.0
O128 O 0.32406 0.06153 0.50952 0.0
O129 O 0.31786 0.10301 0.59251 0.0
In130 In 0.20412 0.02524 0.84833 0.0
O131 O 0.13171 0.05478 0.80765 0.0
O132 O 0.15895 0.97822 0.77238 0.0
C133 C 0.14043 0.02017 0.93632 0.0
C134 C 0.27337 0.94656 0.83679 0.0
C135 C 0.25301 0.12672 0.83191 0.0
O136 O 0.14099 0.9794 0.89921 0.0
O137 O 0.17471 0.05944 0.93172 0.0
O138 O 0.25425 0.10661 0.87949 0.0
O139 O 0.23022 0.09452 0.79188 0.0
C140 C 0.12563 0.0139 0.77024 0.0
O141 O 0.26961 0.97544 0.88361 0.0
O142 O 0.24351 0.95806 0.79646 0.0
In143 In 0.23004 0.91536 0.08376 0.0
O144 O 0.2101 0.8335 0.12932 0.0
O145 O 0.26991 0.89043 0.16857 0.0
C146 C 0.23419 0.85292 0.97922 0.0
C147 C 0.1558 0.99465 0.10399 0.0
C148 C 0.3203 0.97807 0.07114 0.0
O149 O 0.1976 0.88424 0.98955 0.0
O150 O 0.26586 0.85131 1.02152 0.0
O151 O 0.287 0.96436 0.03018 0.0
O152 O 0.30759 0.96177 0.11829 0.0
C153 C 0.24532 0.84343 0.16937 0.0
O154 O 0.20476 1.00508 0.10656 0.0
O155 O 0.1425 0.94312 0.09246 0.0
In156 In 0.28616 0.46346 0.1076 0.0
O157 O 0.2324 0.39928 0.14631 0.0
O158 O 0.27926 0.45961 0.20147 0.0
C159 C 0.29341 0.37758 0.0324 0.0
C160 C 0.22926 0.53747 0.06303 0.0
C161 C 0.38203 0.51403 0.11456 0.0
O162 O 0.33382 0.4023 0.05863 0.0
O163 O 0.25017 0.39563 0.04497 0.0
O164 O 0.34361 0.5326 0.08927 0.0
O165 O 0.37196 0.4707 0.13963 0.0
C166 C 0.24903 0.41542 0.19639 0.0
O167 O 0.23986 0.53909 0.11618 0.0
O168 O 0.24627 0.49772 0.03318 0.0
In169 In 0.83438 0.18554 0.04206 0.0
O170 O 0.85982 0.09593 1.01898 0.0
O171 O 0.922 0.15793 0.0337 0.0
C172 C 0.74417 0.12274 0.05471 0.0
C173 C 0.83004 0.24803 0.14653 0.0
C174 C 0.81906 0.25739 0.9564 0.0
O175 O 0.77749 0.13643 0.09566 0.0
O176 O 0.75684 0.13908 1.00756 0.0
O177 O 0.85425 0.26741 0.99648 0.0
O178 O 0.79456 0.21034 0.9572 0.0
C179 C 0.90878 0.10641 1.02186 0.0
O180 O 0.86667 0.21674 0.13627 0.0
O181 O 0.79841 0.24959 0.10418 0.0
In182 In 0.14223 0.49318 0.32921 0.0
O183 O 0.2182 0.47058 0.37562 0.0
O184 O 0.17152 0.40273 0.33278 0.0
C185 C 0.21001 0.58237 0.31825 0.0
C186 C 0.0885 0.49418 0.22222 0.0
C187 C 0.07288 0.50759 0.4159 0.0
O188 O 0.20324 0.54219 0.28022 0.0
O189 O 0.1816 0.57851 0.36018 0.0
O190 O 0.07278 0.46269 0.38349 0.0
O191 O 0.10728 0.54467 0.40472 0.0
C192 C 0.21388 0.41904 0.3617 0.0
O193 O 0.06952 0.50941 0.26894 0.0
O194 O 0.13269 0.47502 0.22914 0.0
In195 In 0.78617 0.96346 0.60761 0.0
O196 O 0.7324 0.89928 0.64631 0.0
O197 O 0.77927 0.95962 0.70147 0.0
C198 C 0.79341 0.87758 0.5324 0.0
C199 C 0.72926 0.03748 0.56303 0.0
C200 C 0.88203 0.01403 0.61456 0.0
O201 O 0.83382 0.90231 0.55864 0.0
O202 O 0.75017 0.89563 0.54497 0.0
O203 O 0.84361 0.0326 0.58927 0.0
O204 O 0.87196 0.9707 0.63963 0.0
C205 C 0.74904 0.91542 0.69639 0.0
O206 O 0.73986 0.03909 0.61618 0.0
O207 O 0.74627 0.99772 0.53318 0.0
In208 In 0.86031 0.07584 0.27756 0.0
O209 O 0.92358 0.12167 0.22683 0.0
O210 O 0.88977 0.04172 0.19417 0.0
C211 C 0.93863 0.08718 0.35586 0.0
C212 C 0.79105 0.15451 0.289 0.0
C213 C 0.81143 0.97429 0.29377 0.0
O214 O 0.93269 0.04636 0.31837 0.0
O215 O 0.90526 0.12282 0.35368 0.0
O216 O 0.81025 0.99445 0.24622 0.0
O217 O 0.83415 1.00647 0.33386 0.0
C218 C 0.92411 0.08095 0.18966 0.0
O219 O 0.79486 0.12562 0.24221 0.0
O220 O 0.82088 0.14305 0.32938 0.0
In221 In 0.33438 0.68554 0.54206 0.0
O222 O 0.35982 0.59593 0.51898 0.0
O223 O 0.422 0.65793 0.5337 0.0
C224 C 0.24417 0.62274 0.55471 0.0
C225 C 0.33004 0.74803 0.64653 0.0
C226 C 0.31906 0.75739 0.4564 0.0
O227 O 0.27749 0.63643 0.59566 0.0
O228 O 0.25684 0.63908 0.50756 0.0
O229 O 0.35425 0.76741 0.49648 0.0
O230 O 0.29456 0.71034 0.4572 0.0
C231 C 0.40878 0.60641 0.52186 0.0
O232 O 0.36667 0.71674 0.63627 0.0
O233 O 0.29841 0.74959 0.60418 0.0
In234 In 0.36031 0.57584 0.77756 0.0
O235 O 0.29486 0.62562 0.74221 0.0
O236 O 0.32088 0.64305 0.82938 0.0
C237 C 0.31143 0.47429 0.79377 0.0
C238 C 0.42411 0.58094 0.68966 0.0
C239 C 0.43863 0.58718 0.85586 0.0
O240 O 0.31025 0.49445 0.74622 0.0
O241 O 0.33415 0.50646 0.83386 0.0
O242 O 0.43269 0.54636 0.81837 0.0
O243 O 0.40526 0.62281 0.85368 0.0
C244 C 0.29105 0.65451 0.789 0.0
O245 O 0.42358 0.62167 0.72683 0.0
O246 O 0.38977 0.54172 0.69417 0.0
In247 In 0.64223 0.99318 0.82921 0.0
O248 O 0.7182 0.97058 0.87562 0.0
O249 O 0.67152 0.90273 0.83278 0.0
C250 C 0.71001 0.08237 0.81825 0.0
C251 C 0.5885 0.99418 0.72222 0.0
C252 C 0.57288 1.00759 0.9159 0.0
O253 O 0.70324 0.04219 0.78022 0.0
O254 O 0.6816 0.07851 0.86018 0.0
O255 O 0.57278 0.96269 0.88349 0.0
O256 O 0.60728 0.04467 0.90472 0.0
C257 C 0.71388 0.91904 0.8617 0.0
O258 O 0.56952 1.0094 0.76894 0.0
O259 O 0.63269 0.97502 0.72914 0.0
In260 In 0.77785 0.63724 1.01814 0.0
O261 O 0.82406 0.56153 1.00952 0.0
O262 O 0.81786 0.60301 0.09251 0.0
C263 C 0.68197 0.58677 1.01153 0.0
C264 C 0.77073 0.72331 0.09318 0.0
C265 C 0.81479 0.68501 0.92913 0.0
O266 O 0.72039 0.56831 0.03694 0.0
O267 O 0.69204 0.62992 0.9862 0.0
O268 O 0.8316 0.70121 0.97914 0.0
O269 O 0.78447 0.64089 0.92422 0.0
C270 C 0.83476 0.56319 0.06266 0.0
O271 O 0.73028 0.69856 0.06704 0.0
O272 O 0.81394 0.7052 0.08059 0.0
In273 In 0.92191 0.60743 0.79642 0.0
O274 O 0.84577 0.62972 0.75017 0.0
O275 O 0.89243 0.69779 0.79264 0.0
C276 C 0.85426 0.51816 0.80737 0.0
C277 C 0.99129 0.59313 0.70974 0.0
C278 C 0.97557 0.60655 0.90346 0.0
O279 O 0.86096 0.55834 0.8454 0.0
O280 O 0.88268 0.52205 0.76545 0.0
O281 O 0.99455 0.59122 0.85677 0.0
O282 O 0.93142 0.62576 0.89649 0.0
C283 C 0.85001 0.68129 0.7639 0.0
O284 O 0.99128 0.63803 0.74212 0.0
O285 O 0.95698 0.55598 0.72094 0.0
In286 In 0.73004 0.41536 0.58376 0.0
O287 O 0.7101 0.3335 0.62932 0.0
O288 O 0.76991 0.39043 0.66857 0.0
C289 C 0.73419 0.35292 0.47922 0.0
C290 C 0.6558 0.49465 0.60399 0.0
C291 C 0.8203 0.47807 0.57114 0.0
O292 O 0.6976 0.38424 0.48955 0.0
O293 O 0.76586 0.35131 0.52152 0.0
O294 O 0.787 0.46436 0.53018 0.0
O295 O 0.80759 0.46177 0.61829 0.0
C296 C 0.74532 0.34343 0.66937 0.0
O297 O 0.70476 0.50508 0.60656 0.0
O298 O 0.6425 0.44312 0.59246 0.0
In299 In 0.70412 0.52524 0.34833 0.0
O300 O 0.76961 0.47544 0.38361 0.0
O301 O 0.74351 0.45806 0.29646 0.0
C302 C 0.75301 0.62672 0.33191 0.0
C303 C 0.62563 0.5139 0.27024 0.0
C304 C 0.64043 0.52017 0.43632 0.0
O305 O 0.75425 0.60661 0.37949 0.0
O306 O 0.73022 0.59452 0.29188 0.0
O307 O 0.64099 0.4794 0.39921 0.0
O308 O 0.67471 0.55944 0.43172 0.0
C309 C 0.77337 0.44656 0.33679 0.0
O310 O 0.63171 0.55478 0.30765 0.0
O311 O 0.65895 0.47822 0.27238 0.0
Tb312 Tb 0.05532 0.11411 0.07111 0.0
C313 C 0.09991 0.02687 0.97781 0.0
Tb314 Tb 1.0093 0.98696 0.05494 0.0
O315 O 0.1339 0.09349 0.10452 0.0
O316 O 0.0695 0.03742 0.10055 0.0
O317 O 0.0983 0.07884 1.00105 0.0
C318 C 1.01082 0.90088 0.1144 0.0
O319 O 0.0685 0.98349 0.99048 0.0
C320 C 0.94562 0.06022 1.01726 0.0
C321 C 0.96465 0.07423 0.14819 0.0
O322 O 0.99146 0.89746 0.06138 0.0
O323 O 0.02957 0.95088 0.13163 0.0
O324 O 0.93078 1.00756 1.02104 0.0
O325 O 0.99507 0.06361 1.0259 0.0
O326 O 0.96617 0.02227 0.12487 0.0
O327 O 0.99615 0.11759 0.13562 0.0
C328 C 0.05361 0.20011 1.01157 0.0
O329 O 0.073 0.20361 0.06459 0.0
O330 O 0.0349 0.15008 0.9944 0.0
C331 C 0.11902 0.0409 0.10859 0.0
Tb332 Tb 0.28927 0.86353 0.33025 0.0
C333 C 0.3911 0.79604 0.32024 0.0
Tb334 Tb 0.27508 0.737 0.29537 0.0
O335 O 0.32496 0.84963 0.41534 0.0
O336 O 0.27333 0.78959 0.37109 0.0
O337 O 0.37016 0.84438 0.3186 0.0
C338 C 0.243 0.63329 0.31228 0.0
O339 O 0.36184 0.74722 0.31425 0.0
C340 C 0.25857 0.80259 0.2118 0.0
C341 C 0.17325 0.80453 0.30541 0.0
O342 O 0.26483 0.64745 0.26612 0.0
O343 O 0.2432 0.6763 0.34892 0.0
O344 O 0.23935 0.75107 0.21027 0.0
O345 O 0.29099 0.81088 0.25462 0.0
O346 O 0.19419 0.75617 0.30703 0.0
O347 O 0.20253 0.85334 0.31139 0.0
C348 C 0.3213 0.96722 0.31332 0.0
O349 O 0.29941 0.95308 0.35945 0.0
O350 O 0.3212 0.9242 0.27671 0.0
C351 C 0.30578 0.79812 0.41388 0.0
Tb352 Tb 0.58382 0.0673 0.55019 0.0
C353 C 0.5655 1.00687 0.66507 0.0
Tb354 Tb 0.48021 0.03342 0.5755 0.0
O355 O 0.57002 0.15502 0.56329 0.0
O356 O 0.53446 0.09751 0.61355 0.0
O357 O 0.59743 0.0163 0.62344 0.0
C358 C 0.37777 0.03486 0.58439 0.0
O359 O 0.51508 0.01547 0.65828 0.0
C360 C 0.52595 0.9528 0.52184 0.0
C361 C 0.49855 0.0939 0.46064 0.0
O362 O 0.40048 1.00075 0.55026 0.0
O363 O 0.41333 0.0636 0.61793 0.0
O364 O 0.49434 0.94572 0.56246 0.0
O365 O 0.52948 1.00325 0.51209 0.0
O366 O 0.46662 0.08446 0.50227 0.0
O367 O 0.54897 0.08528 0.46742 0.0
C368 C 0.68624 0.06575 0.54126 0.0
O369 O 0.66356 0.09995 0.57533 0.0
O370 O 0.65066 0.03694 0.5078 0.0
C371 C 0.53835 0.14798 0.60386 0.0
Tb372 Tb 0.29806 0.30874 0.87209 0.0
C373 C 0.29612 0.415 0.79978 0.0
Tb374 Tb 0.26628 0.29225 0.75347 0.0
O375 O 0.37069 0.26769 0.86072 0.0
O376 O 0.34051 0.31427 0.79757 0.0
O377 O 0.2989 0.39628 0.85108 0.0
C378 C 0.26791 0.25928 0.64435 0.0
O379 O 0.28688 0.38078 0.75298 0.0
C380 C 0.18798 0.31796 0.81594 0.0
C381 C 0.26831 0.18599 0.82583 0.0
O382 O 0.22552 0.26405 0.67156 0.0
O383 O 0.30876 0.2734 0.67826 0.0
O384 O 0.19375 0.33352 0.76516 0.0
O385 O 0.22385 0.28661 0.82793 0.0
O386 O 0.26547 0.2047 0.77452 0.0
O387 O 0.27756 0.22022 0.87262 0.0
C388 C 0.29629 0.34169 0.98119 0.0
O389 O 0.33872 0.33694 0.95405 0.0
O390 O 0.25547 0.32758 0.94721 0.0
C391 C 0.37645 0.2831 0.80988 0.0
Tb392 Tb 1.00721 0.0581 0.5055 0.0
C393 C 0.93472 0.03278 0.60214 0.0
Tb394 Tb 0.05681 0.04286 0.6207 0.0
O395 O 0.97382 0.97116 0.4981 0.0
O396 O 0.04615 0.99492 0.54134 0.0
O397 O 0.93957 0.06035 0.5564 0.0
C398 C 0.09155 0.01595 0.72044 0.0
O399 O 0.97515 0.01433 0.62985 0.0
C400 C 0.05136 0.14613 0.598 0.0
C401 C 0.12928 0.06809 0.52402 0.0
O402 O 0.06579 0.05889 0.71243 0.0
O403 O 0.09712 0.98727 0.67232 0.0
O404 O 0.0902 0.12988 0.62788 0.0
O405 O 0.01791 0.10596 0.58487 0.0
O406 O 0.12443 0.04056 0.56978 0.0
O407 O 0.08887 0.08656 0.49631 0.0
C408 C 0.9726 0.0851 0.40574 0.0
O409 O 0.99839 0.04219 0.41375 0.0
O410 O 0.9669 0.11371 0.45388 0.0
C411 C 1.01264 0.95484 0.52795 0.0
Tb412 Tb 0.33604 0.79914 0.83916 0.0
C413 C 0.24603 0.82827 0.92116 0.0
Tb414 Tb 0.22806 0.80182 0.78653 0.0
O415 O 0.33811 0.88724 0.87084 0.0
O416 O 0.29596 0.85732 0.79526 0.0
O417 O 0.29188 0.80627 0.91645 0.0
C418 C 0.1384 0.82058 0.7368 0.0
O419 O 0.21524 0.83474 0.87532 0.0
C420 C 0.25838 0.70154 0.79498 0.0
C421 C 0.31814 0.77269 0.70455 0.0
O422 O 0.14454 0.78144 0.7701 0.0
O423 O 0.1817 0.8513 0.73415 0.0
O424 O 0.22618 0.71365 0.75485 0.0
O425 O 0.26811 0.74373 0.8304 0.0
O426 O 0.27226 0.79466 0.70924 0.0
O427 O 0.34892 0.76625 0.7504 0.0
C428 C 0.42568 0.78033 0.88892 0.0
O429 O 0.41957 0.81946 0.8556 0.0
O430 O 0.38235 0.74963 0.89156 0.0
C431 C 0.30591 0.89943 0.83076 0.0
Tb432 Tb 0.47422 0.0317 0.05002 0.0
C433 C 0.55126 0.94079 0.07036 0.0
Tb434 Tb 0.59023 0.0691 0.07577 0.0
O435 O 0.49274 0.98574 0.96871 0.0
O436 O 0.53898 0.05653 1.00164 0.0
O437 O 0.50264 0.95491 0.07495 0.0
C438 C 0.69162 0.09681 0.06211 0.0
O439 O 0.59168 0.97781 0.0659 0.0
C440 C 0.52862 0.08426 0.163 0.0
C441 C 0.51316 0.15999 0.05533 0.0
O442 O 0.67223 0.08548 0.11016 0.0
O443 O 0.65439 0.09137 1.02245 0.0
O444 O 0.5715 0.1151 0.15706 0.0
O445 O 0.52552 0.0443 0.12406 0.0
O446 O 0.56179 0.14589 0.05082 0.0
O447 O 0.47274 0.12297 0.05979 0.0
C448 C 0.37284 1.004 0.06374 0.0
O449 O 0.39221 0.01533 1.01568 0.0
O450 O 0.41008 1.00946 0.10339 0.0
C451 C 0.53563 0.01654 0.9627 0.0
Tb452 Tb 0.22444 0.26743 0.299 0.0
C453 C 0.30907 0.22508 0.38755 0.0
Tb454 Tb 0.33941 0.33279 0.32631 0.0
O455 O 0.25504 0.19343 0.25211 0.0
O456 O 0.30097 0.26519 0.27671 0.0
O457 O 0.26219 0.21913 0.36001 0.0
C458 C 0.41122 0.34421 0.25297 0.0
O459 O 0.34576 0.26688 0.3838 0.0
C460 C 0.2599 0.38487 0.3687 0.0
C461 C 0.25477 0.37526 0.23787 0.0
O462 O 0.42022 0.36024 0.30774 0.0
O463 O 0.36448 0.32112 0.24208 0.0
O464 O 0.30882 0.40662 0.37369 0.0
O465 O 0.26287 0.33523 0.34811 0.0
O466 O 0.30164 0.38126 0.26548 0.0
O467 O 0.21811 0.33339 0.24152 0.0
C468 C 0.15272 0.25622 0.37246 0.0
O469 O 0.14357 0.24036 0.31767 0.0
O470 O 0.19957 0.27904 0.38332 0.0
C471 C 0.30391 0.21531 0.25679 0.0
Tb472 Tb 0.50721 0.5581 1.00549 0.0
C473 C 0.43472 0.53278 0.10214 0.0
Tb474 Tb 0.5568 0.54286 0.1207 0.0
O475 O 0.47382 0.47116 0.9981 0.0
O476 O 0.54615 0.49492 0.04134 0.0
O477 O 0.43957 0.56034 0.0564 0.0
C478 C 0.59155 0.51595 0.22044 0.0
O479 O 0.47515 0.51433 0.12985 0.0
C480 C 0.55136 0.64613 0.098 0.0
C481 C 0.62928 0.56809 1.02402 0.0
O482 O 0.56579 0.55889 0.21243 0.0
O483 O 0.59712 0.48727 0.17232 0.0
O484 O 0.5902 0.62988 0.12788 0.0
O485 O 0.51791 0.60596 0.08487 0.0
O486 O 0.62443 0.54056 0.06978 0.0
O487 O 0.58887 0.58656 0.99631 0.0
C488 C 0.4726 0.5851 0.90574 0.0
O489 O 0.49839 0.54219 0.91375 0.0
O490 O 0.4669 0.61371 0.95388 0.0
C491 C 0.51264 0.45484 0.02795 0.0
Tb492 Tb 0.83605 0.29914 0.33916 0.0
C493 C 0.74603 0.32827 0.42116 0.0
Tb494 Tb 0.72806 0.30182 0.28653 0.0
O495 O 0.83811 0.38724 0.37084 0.0
O496 O 0.79596 0.35732 0.29526 0.0
O497 O 0.79188 0.30627 0.41645 0.0
C498 C 0.6384 0.32058 0.2368 0.0
O499 O 0.71524 0.33474 0.37532 0.0
C500 C 0.75838 0.20154 0.29498 0.0
C501 C 0.81814 0.27269 0.20455 0.0
O502 O 0.64454 0.28144 0.2701 0.0
O503 O 0.6817 0.3513 0.23415 0.0
O504 O 0.72618 0.21365 0.25485 0.0
O505 O 0.76811 0.24373 0.3304 0.0
O506 O 0.77226 0.29466 0.20924 0.0
O507 O 0.84892 0.26625 0.2504 0.0
C508 C 0.92568 0.28033 0.38892 0.0
O509 O 0.91957 0.31946 0.3556 0.0
O510 O 0.88235 0.24963 0.39156 0.0
C511 C 0.80591 0.39944 0.33076 0.0
Tb512 Tb 0.97422 0.5317 0.55002 0.0
C513 C 0.05125 0.4408 0.57036 0.0
Tb514 Tb 0.09023 0.5691 0.57577 0.0
O515 O 0.99274 0.48574 0.46871 0.0
O516 O 0.03898 0.55653 0.50164 0.0
O517 O 1.00264 0.45491 0.57495 0.0
C518 C 0.19162 0.59681 0.56211 0.0
O519 O 0.09168 0.47781 0.5659 0.0
C520 C 0.02862 0.58426 0.663 0.0
C521 C 1.01316 0.65999 0.55533 0.0
O522 O 0.17223 0.58548 0.61016 0.0
O523 O 0.15439 0.59137 0.52245 0.0
O524 O 0.0715 0.61511 0.65706 0.0
O525 O 0.02552 0.5443 0.62406 0.0
O526 O 0.06179 0.64589 0.55082 0.0
O527 O 0.97274 0.62297 0.55979 0.0
C528 C 0.87284 0.504 0.56374 0.0
O529 O 0.89221 0.51533 0.51568 0.0
O530 O 0.91008 0.50946 0.60339 0.0
C531 C 0.03563 0.51654 0.4627 0.0
Tb532 Tb 0.79806 0.80874 0.37209 0.0
C533 C 0.79612 0.915 0.29978 0.0
Tb534 Tb 0.76628 0.79225 0.25347 0.0
O535 O 0.87069 0.76769 0.36072 0.0
O536 O 0.84051 0.81427 0.29757 0.0
O537 O 0.7989 0.89628 0.35109 0.0
C538 C 0.76791 0.75929 0.14435 0.0
O539 O 0.78688 0.88078 0.25298 0.0
C540 C 0.68798 0.81796 0.31595 0.0
C541 C 0.76831 0.686 0.32583 0.0
O542 O 0.72552 0.76405 0.17156 0.0
O543 O 0.80876 0.7734 0.17826 0.0
O544 O 0.69375 0.83352 0.26516 0.0
O545 O 0.72385 0.78661 0.32793 0.0
O546 O 0.76547 0.7047 0.27452 0.0
O547 O 0.77756 0.72022 0.37262 0.0
C548 C 0.79629 0.84169 0.48119 0.0
O549 O 0.83872 0.83694 0.45405 0.0
O550 O 0.75547 0.82759 0.44721 0.0
C551 C 0.87645 0.7831 0.30988 0.0
Tb552 Tb 0.78927 0.36353 0.83025 0.0
C553 C 0.8911 0.29604 0.82024 0.0
Tb554 Tb 0.77508 0.237 0.79537 0.0
O555 O 0.82496 0.34964 0.91534 0.0
O556 O 0.77333 0.28959 0.87109 0.0
O557 O 0.87016 0.34438 0.8186 0.0
C558 C 0.743 0.1333 0.81228 0.0
O559 O 0.86184 0.24722 0.81425 0.0
C560 C 0.75857 0.30259 0.7118 0.0
C561 C 0.67325 0.30453 0.80541 0.0
O562 O 0.76483 0.14745 0.76612 0.0
O563 O 0.7432 0.1763 0.84892 0.0
O564 O 0.73935 0.25107 0.71027 0.0
O565 O 0.79099 0.31088 0.75462 0.0
O566 O 0.69419 0.25617 0.80703 0.0
O567 O 0.70253 0.35334 0.81139 0.0
C568 C 0.8213 0.46722 0.81332 0.0
O569 O 0.79941 0.45308 0.85945 0.0
O570 O 0.8212 0.4242 0.77671 0.0
C571 C 0.80578 0.29812 0.91388 0.0
Tb572 Tb 0.72444 0.76743 0.799 0.0
C573 C 0.80907 0.72508 0.88755 0.0
Tb574 Tb 0.83941 0.83279 0.82631 0.0
O575 O 0.75504 0.69343 0.75211 0.0
O576 O 0.80097 0.76519 0.77671 0.0
O577 O 0.76219 0.71913 0.86001 0.0
C578 C 0.91122 0.84421 0.75297 0.0
O579 O 0.84576 0.76688 0.8838 0.0
C580 C 0.7599 0.88487 0.8687 0.0
C581 C 0.75477 0.87526 0.73787 0.0
O582 O 0.92022 0.86024 0.80774 0.0
O583 O 0.86448 0.82112 0.74208 0.0
O584 O 0.80882 0.90662 0.87369 0.0
O585 O 0.76287 0.83523 0.84811 0.0
O586 O 0.80164 0.88126 0.76548 0.0
O587 O 0.71811 0.83339 0.74152 0.0
C588 C 0.65272 0.75622 0.87246 0.0
O589 O 0.64357 0.74036 0.81767 0.0
O590 O 0.69957 0.77904 0.88332 0.0
C591 C 0.80391 0.71531 0.75679 0.0
Tb592 Tb 0.55532 0.61411 0.57111 0.0
C593 C 0.59991 0.52687 0.47781 0.0
Tb594 Tb 0.5093 0.48696 0.55494 0.0
O595 O 0.6339 0.59349 0.60452 0.0
O596 O 0.56949 0.53742 0.60055 0.0
O597 O 0.5983 0.57884 0.50105 0.0
C598 C 0.51082 0.40088 0.6144 0.0
O599 O 0.5685 0.48349 0.49048 0.0
C600 C 0.44562 0.56022 0.51726 0.0
C601 C 0.46464 0.57423 0.64819 0.0
O602 O 0.49146 0.39746 0.56138 0.0
O603 O 0.52957 0.45088 0.63163 0.0
O604 O 0.43078 0.50756 0.52104 0.0
O605 O 0.49507 0.56361 0.5259 0.0
O606 O 0.46617 0.52227 0.62487 0.0
O607 O 0.49615 0.61759 0.63562 0.0
C608 C 0.55361 0.70011 0.51157 0.0
O609 O 0.573 0.70361 0.56459 0.0
O610 O 0.5349 0.65008 0.4944 0.0
C611 C 0.61902 0.5409 0.60859 0.0
Tb612 Tb 0.08381 0.5673 0.05019 0.0
C613 C 0.0655 0.50687 0.16507 0.0
Tb614 Tb 0.98021 0.53342 0.0755 0.0
O615 O 0.07002 0.65502 0.06329 0.0
O616 O 0.03446 0.59751 0.11355 0.0
O617 O 0.09743 0.5163 0.12344 0.0
C618 C 0.87777 0.53486 0.08439 0.0
O619 O 1.01508 0.51547 0.15828 0.0
C620 C 0.02595 0.4528 1.02184 0.0
C621 C 0.99855 0.5939 0.96064 0.0
O622 O 0.90048 0.50075 0.05026 0.0
O623 O 0.91332 0.5636 0.11793 0.0
O624 O 0.99434 0.44572 0.06246 0.0
O625 O 0.02948 0.50325 1.01209 0.0
O626 O 0.96662 0.58446 1.00227 0.0
O627 O 0.04897 0.58528 0.96742 0.0
C628 C 0.18624 0.56575 0.04126 0.0
O629 O 0.16356 0.59995 0.07533 0.0
O630 O 0.15065 0.53694 1.0078 0.0
C631 C 0.03835 0.64798 0.10386 0.0
loop_
_geom_bond_atom_site_label_1
_geom_bond_atom_site_label_2
_geom_bond_distance
_geom_bond_site_symmetry_2
_ccdc_geom_bond_type
In0 O1 2.294 . S
In0 O2 2.326 . S
In0 O6 2.266 1_455 S
In0 O7 2.326 1_455 S
In0 O8 2.266 . S
In0 O9 2.326 . S
In0 O11 2.294 . S
In0 O12 2.326 . S
O1 In0 2.294 . S
O1 C10 1.240 . S
O2 In0 2.326 . S
O2 C10 1.252 . S
C3 O6 1.252 . S
C3 O7 1.260 . S
C4 O11 1.240 . S
C4 O12 1.252 . S
C5 O8 1.252 . S
C5 O9 1.260 . S
O6 In0 2.266 1_655 S
O6 C3 1.252 . S
O7 In0 2.326 1_655 S
O7 C3 1.260 . S
O8 In0 2.266 . S
O8 C5 1.252 . S
O9 In0 2.326 . S
O9 C5 1.260 . S
C10 O1 1.240 . S
C10 O2 1.252 . S
O11 In0 2.294 . S
O11 C4 1.240 . S
O12 In0 2.326 . S
O12 C4 1.252 . S
In13 O14 2.294 . S
In13 O15 2.326 . S
In13 O19 2.266 1_455 S
In13 O20 2.326 1_455 S
In13 O21 2.266 1_455 S
In13 O22 2.326 1_455 S
In13 O24 2.294 . S
In13 O25 2.326 . S
O14 In13 2.294 . S
O14 C23 1.240 . S
O15 In13 2.326 . S
O15 C23 1.252 . S
C16 O19 1.252 . S
C16 O20 1.260 . S
C17 O24 1.240 . S
C17 O25 1.252 . S
C18 O21 1.252 . S
C18 O22 1.260 . S
O19 In13 2.266 1_655 S
O19 C16 1.252 . S
O20 In13 2.326 1_655 S
O20 C16 1.260 . S
O21 In13 2.266 1_655 S
O21 C18 1.252 . S
O22 In13 2.326 1_655 S
O22 C18 1.260 . S
C23 O14 1.240 . S
C23 O15 1.252 . S
O24 In13 2.294 . S
O24 C17 1.240 . S
O25 In13 2.326 . S
O25 C17 1.252 . S
In26 O27 2.294 . S
In26 O28 2.326 . S
In26 O32 2.266 . S
In26 O33 2.326 . S
In26 O34 2.266 . S
In26 O35 2.326 . S
In26 O37 2.294 . S
In26 O38 2.326 . S
O27 In26 2.294 . S
O27 C36 1.240 . S
O28 In26 2.326 . S
O28 C36 1.252 . S
C29 O32 1.252 . S
C29 O33 1.260 . S
C30 O37 1.240 . S
C30 O38 1.252 . S
C31 O34 1.252 . S
C31 O35 1.260 . S
O32 In26 2.266 . S
O32 C29 1.252 . S
O33 In26 2.326 . S
O33 C29 1.260 . S
O34 In26 2.266 . S
O34 C31 1.252 . S
O35 In26 2.326 . S
O35 C31 1.260 . S
C36 O27 1.240 . S
C36 O28 1.252 . S
O37 In26 2.294 . S
O37 C30 1.240 . S
O38 In26 2.326 . S
O38 C30 1.252 . S
In39 O40 2.294 . S
In39 O41 2.326 . S
In39 O45 2.266 . S
In39 O46 2.326 . S
In39 O47 2.266 . S
In39 O48 2.326 . S
In39 O50 2.294 . S
In39 O51 2.326 . S
O40 In39 2.294 . S
O40 C49 1.240 . S
O41 In39 2.326 . S
O41 C49 1.252 . S
C42 O45 1.252 . S
C42 O46 1.260 . S
C43 O50 1.240 . S
C43 O51 1.252 . S
C44 O47 1.252 . S
C44 O48 1.260 . S
O45 In39 2.266 . S
O45 C42 1.252 . S
O46 In39 2.326 . S
O46 C42 1.260 . S
O47 In39 2.266 . S
O47 C44 1.252 . S
O48 In39 2.326 . S
O48 C44 1.260 . S
C49 O40 1.240 . S
C49 O41 1.252 . S
O50 In39 2.294 . S
O50 C43 1.240 . S
O51 In39 2.326 . S
O51 C43 1.252 . S
In52 O53 2.294 1_455 S
In52 O54 2.326 1_455 S
In52 O58 2.266 . S
In52 O59 2.326 . S
In52 O60 2.266 . S
In52 O61 2.326 . S
In52 O63 2.294 1_455 S
In52 O64 2.326 1_455 S
O53 In52 2.294 1_655 S
O53 C62 1.240 . S
O54 In52 2.326 1_655 S
O54 C62 1.252 . S
C55 O58 1.252 . S
C55 O59 1.260 . S
C56 O63 1.240 . S
C56 O64 1.252 . S
C57 O60 1.252 . S
C57 O61 1.260 . S
O58 In52 2.266 . S
O58 C55 1.252 . S
O59 In52 2.326 . S
O59 C55 1.260 . S
O60 In52 2.266 . S
O60 C57 1.252 . S
O61 In52 2.326 . S
O61 C57 1.260 . S
C62 O53 1.240 . S
C62 O54 1.252 . S
O63 In52 2.294 1_655 S
O63 C56 1.240 . S
O64 In52 2.326 1_655 S
O64 C56 1.252 . S
In65 O66 2.294 . S
In65 O67 2.326 . S
In65 O71 2.266 . S
In65 O72 2.326 . S
In65 O73 2.266 . S
In65 O74 2.326 . S
In65 O76 2.294 . S
In65 O77 2.326 . S
O66 In65 2.294 . S
O66 C75 1.240 . S
O67 In65 2.326 . S
O67 C75 1.252 . S
C68 O71 1.252 . S
C68 O72 1.260 . S
C69 O76 1.240 . S
C69 O77 1.252 . S
C70 O73 1.252 . S
C70 O74 1.260 . S
O71 In65 2.266 . S
O71 C68 1.252 . S
O72 In65 2.326 . S
O72 C68 1.260 . S
O73 In65 2.266 . S
O73 C70 1.252 . S
O74 In65 2.326 . S
O74 C70 1.260 . S
C75 O66 1.240 . S
C75 O67 1.252 . S
O76 In65 2.294 . S
O76 C69 1.240 . S
O77 In65 2.326 . S
O77 C69 1.252 . S
In78 O79 2.294 . S
In78 O80 2.326 . S
In78 O84 2.266 . S
In78 O85 2.326 . S
In78 O86 2.266 . S
In78 O87 2.326 . S
In78 O89 2.294 . S
In78 O90 2.326 . S
O79 In78 2.294 . S
O79 C88 1.240 . S
O80 In78 2.326 . S
O80 C88 1.252 . S
C81 O84 1.252 . S
C81 O85 1.260 . S
C82 O89 1.240 . S
C82 O90 1.252 . S
C83 O86 1.252 . S
C83 O87 1.260 . S
O84 In78 2.266 . S
O84 C81 1.252 . S
O85 In78 2.326 . S
O85 C81 1.260 . S
O86 In78 2.266 . S
O86 C83 1.252 . S
O87 In78 2.326 . S
O87 C83 1.260 . S
C88 O79 1.240 . S
C88 O80 1.252 . S
O89 In78 2.294 . S
O89 C82 1.240 . S
O90 In78 2.326 . S
O90 C82 1.252 . S
In91 O92 2.294 . S
In91 O93 2.326 . S
In91 O97 2.266 . S
In91 O98 2.326 . S
In91 O99 2.266 1_455 S
In91 O100 2.326 1_455 S
In91 O102 2.294 . S
In91 O103 2.326 . S
O92 In91 2.294 . S
O92 C101 1.240 . S
O93 In91 2.326 . S
O93 C101 1.252 . S
C94 O97 1.252 . S
C94 O98 1.260 . S
C95 O102 1.240 . S
C95 O103 1.252 . S
C96 O99 1.252 . S
C96 O100 1.260 . S
O97 In91 2.266 . S
O97 C94 1.252 . S
O98 In91 2.326 . S
O98 C94 1.260 . S
O99 In91 2.266 1_655 S
O99 C96 1.252 . S
O100 In91 2.326 1_655 S
O100 C96 1.260 . S
C101 O92 1.240 . S
C101 O93 1.252 . S
O102 In91 2.294 . S
O102 C95 1.240 . S
O103 In91 2.326 . S
O103 C95 1.252 . S
In104 O105 2.294 . S
In104 O106 2.326 . S
In104 O110 2.266 . S
In104 O111 2.326 . S
In104 O112 2.266 . S
In104 O113 2.326 1_545 S
In104 O115 2.294 . S
In104 O116 2.326 . S
O105 In104 2.294 . S
O105 C114 1.240 . S
O106 In104 2.326 . S
O106 C114 1.252 . S
C107 O110 1.252 . S
C107 O111 1.260 . S
C108 O115 1.240 . S
C108 O116 1.252 . S
C109 O112 1.252 1_565 S
C109 O113 1.260 . S
O110 In104 2.266 . S
O110 C107 1.252 . S
O111 In104 2.326 . S
O111 C107 1.260 . S
O112 In104 2.266 . S
O112 C109 1.252 1_545 S
O113 In104 2.326 1_565 S
O113 C109 1.260 . S
C114 O105 1.240 . S
C114 O106 1.252 . S
O115 In104 2.294 . S
O115 C108 1.240 . S
O116 In104 2.326 . S
O116 C108 1.252 . S
In117 O118 2.294 . S
In117 O119 2.326 . S
In117 O123 2.266 . S
In117 O124 2.326 . S
In117 O125 2.266 . S
In117 O126 2.326 . S
In117 O128 2.294 . S
In117 O129 2.326 . S
O118 In117 2.294 . S
O118 C127 1.240 . S
O119 In117 2.326 . S
O119 C127 1.252 . S
C120 O123 1.252 . S
C120 O124 1.260 . S
C121 O128 1.240 . S
C121 O129 1.252 . S
C122 O125 1.252 . S
C122 O126 1.260 . S
O123 In117 2.266 . S
O123 C120 1.252 . S
O124 In117 2.326 . S
O124 C120 1.260 . S
O125 In117 2.266 . S
O125 C122 1.252 . S
O126 In117 2.326 . S
O126 C122 1.260 . S
C127 O118 1.240 . S
C127 O119 1.252 . S
O128 In117 2.294 . S
O128 C121 1.240 . S
O129 In117 2.326 . S
O129 C121 1.252 . S
In130 O131 2.294 1_545 S
In130 O132 2.325 1_545 S
In130 O136 2.266 . S
In130 O137 2.326 . S
In130 O138 2.266 . S
In130 O139 2.326 . S
In130 O141 2.294 1_545 S
In130 O142 2.326 1_545 S
O131 In130 2.294 1_565 S
O131 C140 1.240 . S
O132 In130 2.325 1_565 S
O132 C140 1.253 . S
C133 O136 1.252 . S
C133 O137 1.260 . S
C134 O141 1.240 . S
C134 O142 1.252 . S
C135 O138 1.252 . S
C135 O139 1.260 . S
O136 In130 2.266 . S
O136 C133 1.252 . S
O137 In130 2.326 . S
O137 C133 1.260 . S
O138 In130 2.266 . S
O138 C135 1.252 . S
O139 In130 2.326 . S
O139 C135 1.260 . S
C140 O131 1.240 . S
C140 O132 1.253 . S
O141 In130 2.294 1_565 S
O141 C134 1.240 . S
O142 In130 2.326 1_565 S
O142 C134 1.252 . S
In143 O144 2.294 . S
In143 O145 2.326 . S
In143 O149 2.266 1_554 S
In143 O150 2.326 1_554 S
In143 O151 2.266 . S
In143 O152 2.326 . S
In143 O154 2.294 . S
In143 O155 2.326 . S
O144 In143 2.294 . S
O144 C153 1.240 . S
O145 In143 2.326 . S
O145 C153 1.252 . S
C146 O149 1.252 . S
C146 O150 1.260 . S
C147 O154 1.240 . S
C147 O155 1.252 . S
C148 O151 1.252 . S
C148 O152 1.260 . S
O149 In143 2.266 1_556 S
O149 C146 1.252 . S
O150 In143 2.326 1_556 S
O150 C146 1.260 . S
O151 In143 2.266 . S
O151 C148 1.252 . S
O152 In143 2.326 . S
O152 C148 1.260 . S
C153 O144 1.240 . S
C153 O145 1.252 . S
O154 In143 2.294 . S
O154 C147 1.240 . S
O155 In143 2.326 . S
O155 C147 1.252 . S
In156 O157 2.294 . S
In156 O158 2.326 . S
In156 O162 2.266 . S
In156 O163 2.326 1_554 S
In156 O164 2.266 . S
In156 O165 2.326 . S
In156 O167 2.294 . S
In156 O168 2.326 . S
O157 In156 2.294 . S
O157 C166 1.240 . S
O158 In156 2.326 . S
O158 C166 1.252 . S
C159 O162 1.252 1_556 S
C159 O163 1.260 . S
C160 O167 1.240 . S
C160 O168 1.252 . S
C161 O164 1.252 . S
C161 O165 1.260 . S
O162 In156 2.266 . S
O162 C159 1.252 1_554 S
O163 In156 2.326 1_556 S
O163 C159 1.260 . S
O164 In156 2.266 . S
O164 C161 1.252 . S
O165 In156 2.326 . S
O165 C161 1.260 . S
C166 O157 1.240 . S
C166 O158 1.252 . S
O167 In156 2.294 . S
O167 C160 1.240 . S
O168 In156 2.326 . S
O168 C160 1.252 . S
In169 O170 2.294 . S
In169 O171 2.326 . S
In169 O175 2.266 . S
In169 O176 2.326 . S
In169 O177 2.266 1_554 S
In169 O178 2.326 1_554 S
In169 O180 2.294 . S
In169 O181 2.326 . S
O170 In169 2.294 . S
O170 C179 1.240 . S
O171 In169 2.326 . S
O171 C179 1.252 . S
C172 O175 1.252 . S
C172 O176 1.260 . S
C173 O180 1.240 . S
C173 O181 1.252 . S
C174 O177 1.252 . S
C174 O178 1.260 . S
O175 In169 2.266 . S
O175 C172 1.252 . S
O176 In169 2.326 . S
O176 C172 1.260 . S
O177 In169 2.266 1_556 S
O177 C174 1.252 . S
O178 In169 2.326 1_556 S
O178 C174 1.260 . S
C179 O170 1.240 . S
C179 O171 1.252 . S
O180 In169 2.294 . S
O180 C173 1.240 . S
O181 In169 2.326 . S
O181 C173 1.252 . S
In182 O183 2.294 . S
In182 O184 2.326 . S
In182 O188 2.266 . S
In182 O189 2.326 . S
In182 O190 2.266 . S
In182 O191 2.326 . S
In182 O193 2.294 . S
In182 O194 2.326 . S
O183 In182 2.294 . S
O183 C192 1.240 . S
O184 In182 2.326 . S
O184 C192 1.252 . S
C185 O188 1.252 . S
C185 O189 1.260 . S
C186 O193 1.240 . S
C186 O194 1.252 . S
C187 O190 1.252 . S
C187 O191 1.260 . S
O188 In182 2.266 . S
O188 C185 1.252 . S
O189 In182 2.326 . S
O189 C185 1.260 . S
O190 In182 2.266 . S
O190 C187 1.252 . S
O191 In182 2.326 . S
O191 C187 1.260 . S
C192 O183 1.240 . S
C192 O184 1.252 . S
O193 In182 2.294 . S
O193 C186 1.240 . S
O194 In182 2.326 . S
O194 C186 1.252 . S
In195 O196 2.294 . S
In195 O197 2.326 . S
In195 O201 2.266 . S
In195 O202 2.326 . S
In195 O203 2.266 . S
In195 O204 2.326 . S
In195 O206 2.294 . S
In195 O207 2.326 . S
O196 In195 2.294 . S
O196 C205 1.240 . S
O197 In195 2.326 . S
O197 C205 1.252 . S
C198 O201 1.252 . S
C198 O202 1.260 . S
C199 O206 1.240 . S
C199 O207 1.252 . S
C200 O203 1.252 . S
C200 O204 1.260 . S
O201 In195 2.266 . S
O201 C198 1.252 . S
O202 In195 2.326 . S
O202 C198 1.260 . S
O203 In195 2.266 . S
O203 C200 1.252 . S
O204 In195 2.326 . S
O204 C200 1.260 . S
C205 O196 1.240 . S
C205 O197 1.252 . S
O206 In195 2.294 . S
O206 C199 1.240 . S
O207 In195 2.326 . S
O207 C199 1.252 . S
In208 O209 2.294 . S
In208 O210 2.326 . S
In208 O214 2.266 . S
In208 O215 2.326 . S
In208 O216 2.266 . S
In208 O217 2.326 1_545 S
In208 O219 2.294 . S
In208 O220 2.326 . S
O209 In208 2.294 . S
O209 C218 1.240 . S
O210 In208 2.326 . S
O210 C218 1.252 . S
C211 O214 1.252 . S
C211 O215 1.260 . S
C212 O219 1.240 . S
C212 O220 1.252 . S
C213 O216 1.252 1_565 S
C213 O217 1.260 . S
O214 In208 2.266 . S
O214 C211 1.252 . S
O215 In208 2.326 . S
O215 C211 1.260 . S
O216 In208 2.266 . S
O216 C213 1.252 1_545 S
O217 In208 2.326 1_565 S
O217 C213 1.260 . S
C218 O209 1.240 . S
C218 O210 1.252 . S
O219 In208 2.294 . S
O219 C212 1.240 . S
O220 In208 2.326 . S
O220 C212 1.252 . S
In221 O222 2.294 . S
In221 O223 2.326 . S
In221 O227 2.266 . S
In221 O228 2.326 . S
In221 O229 2.266 . S
In221 O230 2.326 . S
In221 O232 2.294 . S
In221 O233 2.326 . S
O222 In221 2.294 . S
O222 C231 1.240 . S
O223 In221 2.326 . S
O223 C231 1.252 . S
C224 O227 1.252 . S
C224 O228 1.260 . S
C225 O232 1.240 . S
C225 O233 1.252 . S
C226 O229 1.252 . S
C226 O230 1.260 . S
O227 In221 2.266 . S
O227 C224 1.252 . S
O228 In221 2.326 . S
O228 C224 1.260 . S
O229 In221 2.266 . S
O229 C226 1.252 . S
O230 In221 2.326 . S
O230 C226 1.260 . S
C231 O222 1.240 . S
C231 O223 1.252 . S
O232 In221 2.294 . S
O232 C225 1.240 . S
O233 In221 2.326 . S
O233 C225 1.252 . S
In234 O235 2.294 . S
In234 O236 2.326 . S
In234 O240 2.266 . S
In234 O241 2.326 . S
In234 O242 2.266 . S
In234 O243 2.326 . S
In234 O245 2.294 . S
In234 O246 2.326 . S
O235 In234 2.294 . S
O235 C244 1.240 . S
O236 In234 2.326 . S
O236 C244 1.252 . S
C237 O240 1.252 . S
C237 O241 1.260 . S
C238 O245 1.240 . S
C238 O246 1.252 . S
C239 O242 1.252 . S
C239 O243 1.260 . S
O240 In234 2.266 . S
O240 C237 1.252 . S
O241 In234 2.326 . S
O241 C237 1.260 . S
O242 In234 2.266 . S
O242 C239 1.252 . S
O243 In234 2.326 . S
O243 C239 1.260 . S
C244 O235 1.240 . S
C244 O236 1.252 . S
O245 In234 2.294 . S
O245 C238 1.240 . S
O246 In234 2.326 . S
O246 C238 1.252 . S
In247 O248 2.293 . S
In247 O249 2.325 . S
In247 O253 2.267 1_565 S
In247 O254 2.327 1_565 S
In247 O255 2.266 1_565 S
In247 O256 2.326 1_565 S
In247 O258 2.294 . S
In247 O259 2.326 . S
O248 In247 2.293 . S
O248 C257 1.240 . S
O249 In247 2.325 . S
O249 C257 1.252 . S
C250 O253 1.252 . S
C250 O254 1.260 . S
C251 O258 1.240 . S
C251 O259 1.252 . S
C252 O255 1.252 . S
C252 O256 1.260 . S
O253 In247 2.267 1_545 S
O253 C250 1.252 . S
O254 In247 2.327 1_545 S
O254 C250 1.260 . S
O255 In247 2.266 1_545 S
O255 C252 1.252 . S
O256 In247 2.326 1_545 S
O256 C252 1.260 . S
C257 O248 1.240 . S
C257 O249 1.252 . S
O258 In247 2.294 . S
O258 C251 1.240 . S
O259 In247 2.326 . S
O259 C251 1.252 . S
In260 O261 2.294 . S
In260 O262 2.326 . S
In260 O266 2.266 1_554 S
In260 O267 2.326 1_554 S
In260 O268 2.264 1_554 S
In260 O269 2.322 1_554 S
In260 O271 2.296 . S
In260 O272 2.330 . S
O261 In260 2.294 . S
O261 C270 1.240 . S
O262 In260 2.326 . S
O262 C270 1.252 . S
C263 O266 1.252 . S
C263 O267 1.260 . S
C264 O271 1.240 . S
C264 O272 1.252 . S
C265 O268 1.252 . S
C265 O269 1.260 . S
O266 In260 2.266 1_556 S
O266 C263 1.252 . S
O267 In260 2.326 1_556 S
O267 C263 1.260 . S
O268 In260 2.264 1_556 S
O268 C265 1.252 . S
O269 In260 2.322 1_556 S
O269 C265 1.260 . S
C270 O261 1.240 . S
C270 O262 1.252 . S
O271 In260 2.296 . S
O271 C264 1.240 . S
O272 In260 2.330 . S
O272 C264 1.252 . S
In273 O274 2.294 . S
In273 O275 2.326 . S
In273 O279 2.266 . S
In273 O280 2.326 . S
In273 O281 2.266 . S
In273 O282 2.326 . S
In273 O284 2.294 . S
In273 O285 2.326 . S
O274 In273 2.294 . S
O274 C283 1.240 . S
O275 In273 2.326 . S
O275 C283 1.252 . S
C276 O279 1.252 . S
C276 O280 1.260 . S
C277 O284 1.240 . S
C277 O285 1.252 . S
C278 O281 1.252 . S
C278 O282 1.260 . S
O279 In273 2.266 . S
O279 C276 1.252 . S
O280 In273 2.326 . S
O280 C276 1.260 . S
O281 In273 2.266 . S
O281 C278 1.252 . S
O282 In273 2.326 . S
O282 C278 1.260 . S
C283 O274 1.240 . S
C283 O275 1.252 . S
O284 In273 2.294 . S
O284 C277 1.240 . S
O285 In273 2.326 . S
O285 C277 1.252 . S
In286 O287 2.294 . S
In286 O288 2.326 . S
In286 O292 2.266 . S
In286 O293 2.326 . S
In286 O294 2.266 . S
In286 O295 2.326 . S
In286 O297 2.294 . S
In286 O298 2.326 . S
O287 In286 2.294 . S
O287 C296 1.240 . S
O288 In286 2.326 . S
O288 C296 1.252 . S
C289 O292 1.252 . S
C289 O293 1.260 . S
C290 O297 1.240 . S
C290 O298 1.252 . S
C291 O294 1.252 . S
C291 O295 1.260 . S
O292 In286 2.266 . S
O292 C289 1.252 . S
O293 In286 2.326 . S
O293 C289 1.260 . S
O294 In286 2.266 . S
O294 C291 1.252 . S
O295 In286 2.326 . S
O295 C291 1.260 . S
C296 O287 1.240 . S
C296 O288 1.252 . S
O297 In286 2.294 . S
O297 C290 1.240 . S
O298 In286 2.326 . S
O298 C290 1.252 . S
In299 O300 2.294 . S
In299 O301 2.326 . S
In299 O305 2.266 . S
In299 O306 2.326 . S
In299 O307 2.266 . S
In299 O308 2.326 . S
In299 O310 2.294 . S
In299 O311 2.326 . S
O300 In299 2.294 . S
O300 C309 1.240 . S
O301 In299 2.326 . S
O301 C309 1.252 . S
C302 O305 1.252 . S
C302 O306 1.260 . S
C303 O310 1.240 . S
C303 O311 1.252 . S
C304 O307 1.252 . S
C304 O308 1.260 . S
O305 In299 2.266 . S
O305 C302 1.252 . S
O306 In299 2.326 . S
O306 C302 1.260 . S
O307 In299 2.266 . S
O307 C304 1.252 . S
O308 In299 2.326 . S
O308 C304 1.260 . S
C309 O300 1.240 . S
C309 O301 1.252 . S
O310 In299 2.294 . S
O310 C303 1.240 . S
O311 In299 2.326 . S
O311 C303 1.252 . S
Tb312 O315 2.453 . S
Tb312 O316 2.596 . S
Tb312 O317 2.374 1_554 S
Tb312 O325 2.343 1_455 S
Tb312 O327 2.353 . S
Tb312 O329 2.427 . S
Tb312 O330 2.513 1_554 S
C313 O317 1.251 . S
C313 O319 1.263 1_545 S
Tb314 O316 2.343 1_665 S
Tb314 O319 2.353 1_654 S
Tb314 O322 2.427 1_655 S
Tb314 O323 2.513 1_655 S
Tb314 O324 2.453 1_565 S
Tb314 O325 2.596 1_565 S
Tb314 O326 2.374 1_565 S
O315 Tb312 2.453 . S
O315 C331 1.245 . S
O316 Tb312 2.596 . S
O316 Tb314 2.343 1_445 S
O316 C331 1.259 . S
O317 Tb312 2.374 1_556 S
O317 C313 1.251 . S
C318 O322 1.275 . S
C318 O323 1.246 . S
O319 C313 1.263 1_565 S
O319 Tb314 2.353 1_456 S
C320 O324 1.245 . S
C320 O325 1.259 . S
C321 O326 1.250 1_455 S
C321 O327 1.263 . S
O322 Tb314 2.427 1_455 S
O322 C318 1.275 . S
O323 Tb314 2.513 1_455 S
O323 C318 1.246 . S
O324 Tb314 2.453 1_545 S
O324 C320 1.245 . S
O325 Tb312 2.343 1_655 S
O325 Tb314 2.596 1_545 S
O325 C320 1.259 . S
O326 Tb314 2.374 1_545 S
O326 C321 1.250 1_655 S
O327 Tb312 2.353 . S
O327 C321 1.263 . S
C328 O329 1.275 . S
C328 O330 1.246 1_554 S
O329 Tb312 2.427 . S
O329 C328 1.275 . S
O330 Tb312 2.513 1_556 S
O330 C328 1.246 1_556 S
C331 O315 1.245 . S
C331 O316 1.259 . S
Tb332 O335 2.453 . S
Tb332 O336 2.596 . S
Tb332 O337 2.374 . S
Tb332 O345 2.343 . S
Tb332 O347 2.353 . S
Tb332 O349 2.427 . S
Tb332 O350 2.513 . S
C333 O337 1.251 . S
C333 O339 1.263 . S
Tb334 O336 2.343 . S
Tb334 O339 2.353 . S
Tb334 O342 2.427 . S
Tb334 O343 2.513 . S
Tb334 O344 2.453 . S
Tb334 O345 2.596 . S
Tb334 O346 2.374 . S
O335 Tb332 2.453 . S
O335 C351 1.245 . S
O336 Tb332 2.596 . S
O336 Tb334 2.343 . S
O336 C351 1.259 . S
O337 Tb332 2.374 . S
O337 C333 1.251 . S
C338 O342 1.275 . S
C338 O343 1.246 . S
O339 C333 1.263 . S
O339 Tb334 2.353 . S
C340 O344 1.245 . S
C340 O345 1.259 . S
C341 O346 1.250 . S
C341 O347 1.263 . S
O342 Tb334 2.427 . S
O342 C338 1.275 . S
O343 Tb334 2.513 . S
O343 C338 1.246 . S
O344 Tb334 2.453 . S
O344 C340 1.245 . S
O345 Tb332 2.343 . S
O345 Tb334 2.596 . S
O345 C340 1.259 . S
O346 Tb334 2.374 . S
O346 C341 1.250 . S
O347 Tb332 2.353 . S
O347 C341 1.263 . S
C348 O349 1.275 . S
C348 O350 1.246 . S
O349 Tb332 2.427 . S
O349 C348 1.275 . S
O350 Tb332 2.513 . S
O350 C348 1.246 . S
C351 O335 1.245 . S
C351 O336 1.259 . S
Tb352 O355 2.453 . S
Tb352 O356 2.596 . S
Tb352 O357 2.374 . S
Tb352 O365 2.343 1_545 S
Tb352 O367 2.353 . S
Tb352 O369 2.427 . S
Tb352 O370 2.513 1_545 S
C353 O357 1.251 . S
C353 O359 1.263 1_545 S
Tb354 O356 2.343 . S
Tb354 O359 2.353 1_545 S
Tb354 O362 2.427 . S
Tb354 O363 2.513 . S
Tb354 O364 2.453 1_545 S
Tb354 O365 2.596 1_545 S
Tb354 O366 2.374 . S
O355 Tb352 2.453 . S
O355 C371 1.245 . S
O356 Tb352 2.596 . S
O356 Tb354 2.343 . S
O356 C371 1.259 . S
O357 Tb352 2.374 . S
O357 C353 1.251 . S
C358 O362 1.275 . S
C358 O363 1.246 . S
O359 C353 1.263 1_565 S
O359 Tb354 2.353 1_565 S
C360 O364 1.245 . S
C360 O365 1.259 . S
C361 O366 1.250 . S
C361 O367 1.263 . S
O362 Tb354 2.427 . S
O362 C358 1.275 . S
O363 Tb354 2.513 . S
O363 C358 1.246 . S
O364 Tb354 2.453 1_565 S
O364 C360 1.245 . S
O365 Tb352 2.343 1_565 S
O365 Tb354 2.596 1_565 S
O365 C360 1.259 . S
O366 Tb354 2.374 . S
O366 C361 1.250 . S
O367 Tb352 2.353 . S
O367 C361 1.263 . S
C368 O369 1.275 1_565 S
C368 O370 1.246 . S
O369 Tb352 2.427 . S
O369 C368 1.275 1_545 S
O370 Tb352 2.513 1_565 S
O370 C368 1.246 . S
C371 O355 1.245 . S
C371 O356 1.259 . S
Tb372 O375 2.453 . S
Tb372 O376 2.596 . S
Tb372 O377 2.374 . S
Tb372 O385 2.343 . S
Tb372 O387 2.353 . S
Tb372 O389 2.427 . S
Tb372 O390 2.513 . S
C373 O377 1.251 . S
C373 O379 1.263 . S
Tb374 O376 2.343 . S
Tb374 O379 2.353 . S
Tb374 O382 2.427 . S
Tb374 O383 2.513 . S
Tb374 O384 2.453 . S
Tb374 O385 2.596 . S
Tb374 O386 2.374 . S
O375 Tb372 2.453 . S
O375 C391 1.245 . S
O376 Tb372 2.596 . S
O376 Tb374 2.343 . S
O376 C391 1.259 . S
O377 Tb372 2.374 . S
O377 C373 1.251 . S
C378 O382 1.275 . S
C378 O383 1.246 . S
O379 C373 1.263 . S
O379 Tb374 2.353 . S
C380 O384 1.245 . S
C380 O385 1.259 . S
C381 O386 1.250 . S
C381 O387 1.263 . S
O382 Tb374 2.427 . S
O382 C378 1.275 . S
O383 Tb374 2.513 . S
O383 C378 1.246 . S
O384 Tb374 2.453 . S
O384 C380 1.245 . S
O385 Tb372 2.343 . S
O385 Tb374 2.596 . S
O385 C380 1.259 . S
O386 Tb374 2.374 . S
O386 C381 1.250 . S
O387 Tb372 2.353 . S
O387 C381 1.263 . S
C388 O389 1.275 . S
C388 O390 1.246 . S
O389 Tb372 2.427 . S
O389 C388 1.275 . S
O390 Tb372 2.513 . S
O390 C388 1.246 . S
C391 O375 1.245 . S
C391 O376 1.259 . S
Tb392 O395 2.453 . S
Tb392 O396 2.596 . S
Tb392 O397 2.374 1_455 S
Tb392 O405 2.343 1_565 S
Tb392 O407 2.353 1_565 S
Tb392 O409 2.427 1_565 S
Tb392 O410 2.513 1_465 S
C393 O397 1.251 . S
C393 O399 1.263 1_565 S
Tb394 O396 2.343 1_545 S
Tb394 O399 2.353 1_455 S
Tb394 O402 2.427 . S
Tb394 O403 2.513 . S
Tb394 O404 2.453 . S
Tb394 O405 2.596 . S
Tb394 O406 2.374 . S
O395 Tb392 2.453 . S
O395 C411 1.245 . S
O396 Tb392 2.596 . S
O396 Tb394 2.343 1_565 S
O396 C411 1.259 . S
O397 Tb392 2.374 1_655 S
O397 C393 1.251 . S
C398 O402 1.275 . S
C398 O403 1.246 . S
O399 C393 1.263 1_545 S
O399 Tb394 2.353 1_655 S
C400 O404 1.245 . S
C400 O405 1.259 . S
C401 O406 1.250 . S
C401 O407 1.263 . S
O402 Tb394 2.427 . S
O402 C398 1.275 . S
O403 Tb394 2.513 . S
O403 C398 1.246 . S
O404 Tb394 2.453 . S
O404 C400 1.245 . S
O405 Tb392 2.343 1_545 S
O405 Tb394 2.596 . S
O405 C400 1.259 . S
O406 Tb394 2.374 . S
O406 C401 1.250 . S
O407 Tb392 2.353 1_545 S
O407 C401 1.263 . S
C408 O409 1.275 1_655 S
C408 O410 1.246 . S
O409 Tb392 2.427 1_545 S
O409 C408 1.275 1_455 S
O410 Tb392 2.513 1_645 S
O410 C408 1.246 . S
C411 O395 1.245 . S
C411 O396 1.259 . S
Tb412 O415 2.453 . S
Tb412 O416 2.596 . S
Tb412 O417 2.374 . S
Tb412 O425 2.343 . S
Tb412 O427 2.353 . S
Tb412 O429 2.427 . S
Tb412 O430 2.513 . S
C413 O417 1.251 . S
C413 O419 1.263 . S
Tb414 O416 2.343 . S
Tb414 O419 2.353 . S
Tb414 O422 2.427 . S
Tb414 O423 2.513 . S
Tb414 O424 2.453 . S
Tb414 O425 2.596 . S
Tb414 O426 2.374 . S
O415 Tb412 2.453 . S
O415 C431 1.245 . S
O416 Tb412 2.596 . S
O416 Tb414 2.343 . S
O416 C431 1.259 . S
O417 Tb412 2.374 . S
O417 C413 1.251 . S
C418 O422 1.275 . S
C418 O423 1.246 . S
O419 C413 1.263 . S
O419 Tb414 2.353 . S
C420 O424 1.245 . S
C420 O425 1.259 . S
C421 O426 1.250 . S
C421 O427 1.263 . S
O422 Tb414 2.427 . S
O422 C418 1.275 . S
O423 Tb414 2.513 . S
O423 C418 1.246 . S
O424 Tb414 2.453 . S
O424 C420 1.245 . S
O425 Tb412 2.343 . S
O425 Tb414 2.596 . S
O425 C420 1.259 . S
O426 Tb414 2.374 . S
O426 C421 1.250 . S
O427 Tb412 2.353 . S
O427 C421 1.263 . S
C428 O429 1.275 . S
C428 O430 1.246 . S
O429 Tb412 2.427 . S
O429 C428 1.275 . S
O430 Tb412 2.513 . S
O430 C428 1.246 . S
C431 O415 1.245 . S
C431 O416 1.259 . S
Tb432 O435 2.453 . S
Tb432 O436 2.596 . S
Tb432 O437 2.374 1_545 S
Tb432 O445 2.343 1_556 S
Tb432 O447 2.353 1_556 S
Tb432 O449 2.427 1_556 S
Tb432 O450 2.513 1_546 S
C433 O437 1.253 . S
C433 O439 1.257 1_556 S
Tb434 O436 2.343 1_554 S
Tb434 O439 2.353 1_545 S
Tb434 O442 2.427 . S
Tb434 O443 2.513 . S
Tb434 O444 2.453 . S
Tb434 O445 2.596 . S
Tb434 O446 2.374 . S
O435 Tb432 2.453 . S
O435 C451 1.245 . S
O436 Tb432 2.596 . S
O436 Tb434 2.343 1_556 S
O436 C451 1.259 . S
O437 Tb432 2.374 1_565 S
O437 C433 1.253 . S
C438 O442 1.275 . S
C438 O443 1.246 . S
O439 C433 1.257 1_554 S
O439 Tb434 2.353 1_565 S
C440 O444 1.245 . S
C440 O445 1.259 . S
C441 O446 1.250 . S
C441 O447 1.263 . S
O442 Tb434 2.427 . S
O442 C438 1.275 . S
O443 Tb434 2.513 . S
O443 C438 1.246 . S
O444 Tb434 2.453 . S
O444 C440 1.245 . S
O445 Tb432 2.343 1_554 S
O445 Tb434 2.596 . S
O445 C440 1.259 . S
O446 Tb434 2.374 . S
O446 C441 1.250 . S
O447 Tb432 2.353 1_554 S
O447 C441 1.263 . S
C448 O449 1.275 1_565 S
C448 O450 1.246 . S
O449 Tb432 2.427 1_554 S
O449 C448 1.275 1_545 S
O450 Tb432 2.513 1_564 S
O450 C448 1.246 . S
C451 O435 1.245 . S
C451 O436 1.259 . S
Tb452 O455 2.453 . S
Tb452 O456 2.596 . S
Tb452 O457 2.374 . S
Tb452 O465 2.343 . S
Tb452 O467 2.353 . S
Tb452 O469 2.427 . S
Tb452 O470 2.513 . S
C453 O457 1.251 . S
C453 O459 1.263 . S
Tb454 O456 2.343 . S
Tb454 O459 2.353 . S
Tb454 O462 2.427 . S
Tb454 O463 2.513 . S
Tb454 O464 2.453 . S
Tb454 O465 2.596 . S
Tb454 O466 2.374 . S
O455 Tb452 2.453 . S
O455 C471 1.245 . S
O456 Tb452 2.596 . S
O456 Tb454 2.343 . S
O456 C471 1.259 . S
O457 Tb452 2.374 . S
O457 C453 1.251 . S
C458 O462 1.275 . S
C458 O463 1.246 . S
O459 C453 1.263 . S
O459 Tb454 2.353 . S
C460 O464 1.245 . S
C460 O465 1.259 . S
C461 O466 1.250 . S
C461 O467 1.263 . S
O462 Tb454 2.427 . S
O462 C458 1.275 . S
O463 Tb454 2.513 . S
O463 C458 1.246 . S
O464 Tb454 2.453 . S
O464 C460 1.245 . S
O465 Tb452 2.343 . S
O465 Tb454 2.596 . S
O465 C460 1.259 . S
O466 Tb454 2.374 . S
O466 C461 1.250 . S
O467 Tb452 2.353 . S
O467 C461 1.263 . S
C468 O469 1.275 . S
C468 O470 1.246 . S
O469 Tb452 2.427 . S
O469 C468 1.275 . S
O470 Tb452 2.513 . S
O470 C468 1.246 . S
C471 O455 1.245 . S
C471 O456 1.259 . S
Tb472 O475 2.446 1_556 S
Tb472 O476 2.596 1_556 S
Tb472 O477 2.376 . S
Tb472 O485 2.343 . S
Tb472 O487 2.353 . S
Tb472 O489 2.427 . S
Tb472 O490 2.513 . S
C473 O477 1.247 1_554 S
C473 O479 1.263 . S
Tb474 O476 2.343 . S
Tb474 O479 2.353 . S
Tb474 O482 2.427 . S
Tb474 O483 2.513 . S
Tb474 O484 2.453 . S
Tb474 O485 2.596 1_554 S
Tb474 O486 2.374 . S
O475 Tb472 2.446 1_554 S
O475 C491 1.257 . S
O476 Tb472 2.596 1_554 S
O476 Tb474 2.343 . S
O476 C491 1.259 . S
O477 Tb472 2.376 . S
O477 C473 1.247 1_556 S
C478 O482 1.275 . S
C478 O483 1.246 . S
O479 C473 1.263 . S
O479 Tb474 2.353 . S
C480 O484 1.245 . S
C480 O485 1.259 1_554 S
C481 O486 1.250 . S
C481 O487 1.263 1_554 S
O482 Tb474 2.427 . S
O482 C478 1.275 . S
O483 Tb474 2.513 . S
O483 C478 1.246 . S
O484 Tb474 2.453 . S
O484 C480 1.245 . S
O485 Tb472 2.343 . S
O485 Tb474 2.596 1_556 S
O485 C480 1.259 1_556 S
O486 Tb474 2.374 . S
O486 C481 1.250 . S
O487 Tb472 2.353 . S
O487 C481 1.263 1_556 S
C488 O489 1.275 . S
C488 O490 1.246 . S
O489 Tb472 2.427 . S
O489 C488 1.275 . S
O490 Tb472 2.513 . S
O490 C488 1.246 . S
C491 O475 1.257 . S
C491 O476 1.259 . S
Tb492 O495 2.453 . S
Tb492 O496 2.596 . S
Tb492 O497 2.374 . S
Tb492 O505 2.343 . S
Tb492 O507 2.353 . S
Tb492 O509 2.427 . S
Tb492 O510 2.513 . S
C493 O497 1.251 . S
C493 O499 1.263 . S
Tb494 O496 2.343 . S
Tb494 O499 2.353 . S
Tb494 O502 2.427 . S
Tb494 O503 2.513 . S
Tb494 O504 2.453 . S
Tb494 O505 2.596 . S
Tb494 O506 2.374 . S
O495 Tb492 2.453 . S
O495 C511 1.245 . S
O496 Tb492 2.596 . S
O496 Tb494 2.343 . S
O496 C511 1.259 . S
O497 Tb492 2.374 . S
O497 C493 1.251 . S
C498 O502 1.275 . S
C498 O503 1.246 . S
O499 C493 1.263 . S
O499 Tb494 2.353 . S
C500 O504 1.245 . S
C500 O505 1.259 . S
C501 O506 1.250 . S
C501 O507 1.263 . S
O502 Tb494 2.427 . S
O502 C498 1.275 . S
O503 Tb494 2.513 . S
O503 C498 1.246 . S
O504 Tb494 2.453 . S
O504 C500 1.245 . S
O505 Tb492 2.343 . S
O505 Tb494 2.596 . S
O505 C500 1.259 . S
O506 Tb494 2.374 . S
O506 C501 1.250 . S
O507 Tb492 2.353 . S
O507 C501 1.263 . S
C508 O509 1.275 . S
C508 O510 1.246 . S
O509 Tb492 2.427 . S
O509 C508 1.275 . S
O510 Tb492 2.513 . S
O510 C508 1.246 . S
C511 O495 1.245 . S
C511 O496 1.259 . S
Tb512 O515 2.453 . S
Tb512 O516 2.596 1_655 S
Tb512 O517 2.374 . S
Tb512 O525 2.343 . S
Tb512 O527 2.353 . S
Tb512 O529 2.427 . S
Tb512 O530 2.513 . S
C513 O517 1.251 1_455 S
C513 O519 1.263 . S
Tb514 O516 2.343 . S
Tb514 O519 2.353 . S
Tb514 O522 2.427 . S
Tb514 O523 2.513 . S
Tb514 O524 2.453 . S
Tb514 O525 2.596 1_455 S
Tb514 O526 2.374 . S
O515 Tb512 2.453 . S
O515 C531 1.245 1_655 S
O516 Tb512 2.596 1_455 S
O516 Tb514 2.343 . S
O516 C531 1.259 . S
O517 Tb512 2.374 . S
O517 C513 1.251 1_655 S
C518 O522 1.275 . S
C518 O523 1.246 . S
O519 C513 1.263 . S
O519 Tb514 2.353 . S
C520 O524 1.245 1_655 S
C520 O525 1.259 . S
C521 O526 1.250 1_655 S
C521 O527 1.263 . S
O522 Tb514 2.427 . S
O522 C518 1.275 . S
O523 Tb514 2.513 . S
O523 C518 1.246 . S
O524 Tb514 2.453 . S
O524 C520 1.245 1_455 S
O525 Tb512 2.343 . S
O525 Tb514 2.596 1_655 S
O525 C520 1.259 . S
O526 Tb514 2.374 . S
O526 C521 1.250 1_455 S
O527 Tb512 2.353 . S
O527 C521 1.263 . S
C528 O529 1.275 . S
C528 O530 1.246 . S
O529 Tb512 2.427 . S
O529 C528 1.275 . S
O530 Tb512 2.513 . S
O530 C528 1.246 . S
C531 O515 1.245 1_455 S
C531 O516 1.259 . S
Tb532 O535 2.453 . S
Tb532 O536 2.596 . S
Tb532 O537 2.374 . S
Tb532 O545 2.343 . S
Tb532 O547 2.353 . S
Tb532 O549 2.427 . S
Tb532 O550 2.513 . S
C533 O537 1.251 . S
C533 O539 1.263 . S
Tb534 O536 2.343 . S
Tb534 O539 2.353 . S
Tb534 O542 2.427 . S
Tb534 O543 2.513 . S
Tb534 O544 2.453 . S
Tb534 O545 2.596 . S
Tb534 O546 2.374 . S
O535 Tb532 2.453 . S
O535 C551 1.245 . S
O536 Tb532 2.596 . S
O536 Tb534 2.343 . S
O536 C551 1.259 . S
O537 Tb532 2.374 . S
O537 C533 1.251 . S
C538 O542 1.275 . S
C538 O543 1.246 . S
O539 C533 1.263 . S
O539 Tb534 2.353 . S
C540 O544 1.245 . S
C540 O545 1.259 . S
C541 O546 1.250 . S
C541 O547 1.263 . S
O542 Tb534 2.427 . S
O542 C538 1.275 . S
O543 Tb534 2.513 . S
O543 C538 1.246 . S
O544 Tb534 2.453 . S
O544 C540 1.245 . S
O545 Tb532 2.343 . S
O545 Tb534 2.596 . S
O545 C540 1.259 . S
O546 Tb534 2.374 . S
O546 C541 1.250 . S
O547 Tb532 2.353 . S
O547 C541 1.263 . S
C548 O549 1.275 . S
C548 O550 1.246 . S
O549 Tb532 2.427 . S
O549 C548 1.275 . S
O550 Tb532 2.513 . S
O550 C548 1.246 . S
C551 O535 1.245 . S
C551 O536 1.259 . S
Tb552 O555 2.453 . S
Tb552 O556 2.596 . S
Tb552 O557 2.374 . S
Tb552 O565 2.343 . S
Tb552 O567 2.353 . S
Tb552 O569 2.427 . S
Tb552 O570 2.513 . S
C553 O557 1.251 . S
C553 O559 1.263 . S
Tb554 O556 2.343 . S
Tb554 O559 2.353 . S
Tb554 O562 2.427 . S
Tb554 O563 2.513 . S
Tb554 O564 2.453 . S
Tb554 O565 2.596 . S
Tb554 O566 2.374 . S
O555 Tb552 2.453 . S
O555 C571 1.245 . S
O556 Tb552 2.596 . S
O556 Tb554 2.343 . S
O556 C571 1.259 . S
O557 Tb552 2.374 . S
O557 C553 1.251 . S
C558 O562 1.275 . S
C558 O563 1.246 . S
O559 C553 1.263 . S
O559 Tb554 2.353 . S
C560 O564 1.245 . S
C560 O565 1.259 . S
C561 O566 1.250 . S
C561 O567 1.263 . S
O562 Tb554 2.427 . S
O562 C558 1.275 . S
O563 Tb554 2.513 . S
O563 C558 1.246 . S
O564 Tb554 2.453 . S
O564 C560 1.245 . S
O565 Tb552 2.343 . S
O565 Tb554 2.596 . S
O565 C560 1.259 . S
O566 Tb554 2.374 . S
O566 C561 1.250 . S
O567 Tb552 2.353 . S
O567 C561 1.263 . S
C568 O569 1.275 . S
C568 O570 1.246 . S
O569 Tb552 2.427 . S
O569 C568 1.275 . S
O570 Tb552 2.513 . S
O570 C568 1.246 . S
C571 O555 1.245 . S
C571 O556 1.259 . S
Tb572 O575 2.453 . S
Tb572 O576 2.596 . S
Tb572 O577 2.374 . S
Tb572 O585 2.343 . S
Tb572 O587 2.353 . S
Tb572 O589 2.427 . S
Tb572 O590 2.513 . S
C573 O577 1.251 . S
C573 O579 1.263 . S
Tb574 O576 2.343 . S
Tb574 O579 2.353 . S
Tb574 O582 2.427 . S
Tb574 O583 2.513 . S
Tb574 O584 2.453 . S
Tb574 O585 2.596 . S
Tb574 O586 2.374 . S
O575 Tb572 2.453 . S
O575 C591 1.245 . S
O576 Tb572 2.596 . S
O576 Tb574 2.343 . S
O576 C591 1.259 . S
O577 Tb572 2.374 . S
O577 C573 1.251 . S
C578 O582 1.275 . S
C578 O583 1.246 . S
O579 C573 1.263 . S
O579 Tb574 2.353 . S
C580 O584 1.245 . S
C580 O585 1.259 . S
C581 O586 1.250 . S
C581 O587 1.263 . S
O582 Tb574 2.427 . S
O582 C578 1.275 . S
O583 Tb574 2.513 . S
O583 C578 1.246 . S
O584 Tb574 2.453 . S
O584 C580 1.245 . S
O585 Tb572 2.343 . S
O585 Tb574 2.596 . S
O585 C580 1.259 . S
O586 Tb574 2.374 . S
O586 C581 1.250 . S
O587 Tb572 2.353 . S
O587 C581 1.263 . S
C588 O589 1.275 . S
C588 O590 1.246 . S
O589 Tb572 2.427 . S
O589 C588 1.275 . S
O590 Tb572 2.513 . S
O590 C588 1.246 . S
C591 O575 1.245 . S
C591 O576 1.259 . S
Tb592 O595 2.453 . S
Tb592 O596 2.596 . S
Tb592 O597 2.374 . S
Tb592 O605 2.343 . S
Tb592 O607 2.353 . S
Tb592 O609 2.427 . S
Tb592 O610 2.513 . S
C593 O597 1.251 . S
C593 O599 1.263 . S
Tb594 O596 2.343 . S
Tb594 O599 2.353 . S
Tb594 O602 2.427 . S
Tb594 O603 2.513 . S
Tb594 O604 2.453 . S
Tb594 O605 2.596 . S
Tb594 O606 2.374 . S
O595 Tb592 2.453 . S
O595 C611 1.245 . S
O596 Tb592 2.596 . S
O596 Tb594 2.343 . S
O596 C611 1.259 . S
O597 Tb592 2.374 . S
O597 C593 1.251 . S
C598 O602 1.275 . S
C598 O603 1.246 . S
O599 C593 1.263 . S
O599 Tb594 2.353 . S
C600 O604 1.245 . S
C600 O605 1.259 . S
C601 O606 1.250 . S
C601 O607 1.263 . S
O602 Tb594 2.427 . S
O602 C598 1.275 . S
O603 Tb594 2.513 . S
O603 C598 1.246 . S
O604 Tb594 2.453 . S
O604 C600 1.245 . S
O605 Tb592 2.343 . S
O605 Tb594 2.596 . S
O605 C600 1.259 . S
O606 Tb594 2.374 . S
O606 C601 1.250 . S
O607 Tb592 2.353 . S
O607 C601 1.263 . S
C608 O609 1.275 . S
C608 O610 1.246 . S
O609 Tb592 2.427 . S
O609 C608 1.275 . S
O610 Tb592 2.513 . S
O610 C608 1.246 . S
C611 O595 1.245 . S
C611 O596 1.259 . S
Tb612 O615 2.453 . S
Tb612 O616 2.596 1_455 S
Tb612 O617 2.374 . S
Tb612 O625 2.343 . S
Tb612 O627 2.353 1_554 S
Tb612 O629 2.427 1_554 S
Tb612 O630 2.513 . S
C613 O617 1.251 . S
C613 O619 1.263 1_455 S
Tb614 O616 2.343 . S
Tb614 O619 2.353 . S
Tb614 O622 2.427 . S
Tb614 O623 2.513 . S
Tb614 O624 2.453 . S
Tb614 O625 2.596 1_655 S
Tb614 O626 2.374 1_554 S
O615 Tb612 2.453 . S
O615 C631 1.245 . S
O616 Tb612 2.596 1_655 S
O616 Tb614 2.343 . S
O616 C631 1.259 1_655 S
O617 Tb612 2.374 . S
O617 C613 1.251 . S
C618 O622 1.275 . S
C618 O623 1.246 . S
O619 C613 1.263 1_655 S
O619 Tb614 2.353 . S
C620 O624 1.240 1_556 S
C620 O625 1.256 1_656 S
C621 O626 1.250 . S
C621 O627 1.263 1_655 S
O622 Tb614 2.427 . S
O622 C618 1.275 . S
O623 Tb614 2.513 . S
O623 C618 1.246 . S
O624 Tb614 2.453 . S
O624 C620 1.240 1_554 S
O625 Tb612 2.343 . S
O625 Tb614 2.596 1_455 S
O625 C620 1.256 1_454 S
O626 Tb614 2.374 1_556 S
O626 C621 1.250 . S
O627 Tb612 2.353 1_556 S
O627 C621 1.263 1_455 S
C628 O629 1.275 1_554 S
C628 O630 1.246 . S
O629 Tb612 2.427 1_556 S
O629 C628 1.275 1_556 S
O630 Tb612 2.513 . S
O630 C628 1.246 . S
C631 O615 1.245 . S
C631 O616 1.259 1_455 S
C101 C328 2.175 1_556 S
C57 C341 1.739 . S
C70 C360 1.883 . S
C391 C82 2.139 . S
C23 C411 1.891 . S
C428 C29 1.547 . S
C441 C49 1.674 . S
C10 C468 2.489 . S
C321 C218 2.058 1_455 S
C226 C351 2.133 . S
C353 C251 2.086 1_545 S
C388 C159 0.945 . S
C211 C408 1.524 . S
C421 C225 2.238 . S
C451 C252 1.855 . S
C461 C166 1.829 . S
C331 C147 2.378 1_545 S
C263 C481 1.935 1_556 S
C511 C309 2.265 . S
C528 C291 1.450 . S
C108 C471 2.812 . S
C121 C358 1.997 . S
C302 C541 2.059 . S
C568 C276 1.951 . S
C318 C55 1.622 . S
C553 C96 1.715 . S
C88 C371 1.867 . S
C75 C540 2.280 . S
C400 C4 1.937 . S
C44 C498 1.234 . S
C433 C31 1.553 . S
C578 C18 1.594 . S
C313 C133 1.632 . S
C560 C296 2.240 . S
C107 C361 2.090 . S
C264 C538 0.988 . S
C140 C398 1.501 1_565 S
C493 C289 2.107 . S
C114 C440 1.986 . S
C265 C573 1.381 . S
C179 C320 2.165 . S
C161 C473 1.885 . S
C244 C420 2.311 . S
C224 C518 1.492 . S
C580 C257 2.442 . S
C199 C368 1.964 . S
C373 C237 2.096 . S
C338 C185 1.680 . S
C69 C608 2.176 . S
C561 C83 1.737 . S
C94 C620 1.896 1_455 S
C56 C551 2.139 . S
C42 C491 1.912 . S
C508 C3 1.549 . S
C521 C16 1.691 . S
C588 C36 2.493 . S
C601 C238 2.055 . S
C174 C571 2.132 . S
C613 C186 2.086 . S
C548 C198 0.943 . S
C488 C239 1.527 . S
C173 C501 2.241 . S
C531 C187 1.860 . S
C205 C581 1.835 . S
C611 C290 2.378 . S
C122 C401 1.934 . S
C431 C134 2.267 . S
C448 C148 1.447 . S
C591 C283 2.809 . S
C270 C618 1.994 . S
C381 C135 2.058 . S
C348 C109 1.951 . S
C81 C598 1.624 . S
C333 C68 1.714 . S
C62 C631 1.868 1_655 S
C95 C380 2.279 . S
C30 C480 1.937 1_556 S
C418 C17 1.225 . S
C5 C513 1.549 . S
C43 C458 1.577 . S
C593 C304 1.633 . S
C153 C340 2.237 . S
C621 C278 2.090 . S
C127 C378 0.987 . S
C303 C478 1.492 . S
C413 C146 2.106 . S
C277 C520 1.976 . S
C453 C120 1.378 . S
C600 C231 2.165 . S
C393 C200 1.884 . S
C212 C500 2.312 . S
C438 C172 1.493 . S
C192 C460 2.439 . S
C160 C628 1.964 . S
C533 C213 2.097 . S
C558 C250 1.680 . S
