# Generated by pormake.
# Topology wbl, (4,4)-cn, num edge types: 1
# Building blocks:
#     Node 0, Type 0, BuildingBlock: MUDLON_clean_sbu_0, # of connection points: 4
#     Node 1, Type 0, BuildingBlock: MUDLON_clean_sbu_0, # of connection points: 4
#     Node 2, Type 0, BuildingBlock: MUDLON_clean_sbu_0, # of connection points: 4
#     Node 3, Type 0, BuildingBlock: MUDLON_clean_sbu_0, # of connection points: 4
#     Node 4, Type 0, BuildingBlock: MUDLON_clean_sbu_0, # of connection points: 4
#     Node 5, Type 0, BuildingBlock: MUDLON_clean_sbu_0, # of connection points: 4
#     Node 6, Type 0, BuildingBlock: MUDLON_clean_sbu_0, # of connection points: 4
#     Node 7, Type 0, BuildingBlock: MUDLON_clean_sbu_0, # of connection points: 4
#     Node 8, Type 1, BuildingBlock: TATPOV_clean_sbu_0, # of connection points: 4
#     Node 9, Type 1, BuildingBlock: TATPOV_clean_sbu_0, # of connection points: 4
#     Node 10, Type 1, BuildingBlock: TATPOV_clean_sbu_0, # of connection points: 4
#     Node 11, Type 1, BuildingBlock: TATPOV_clean_sbu_0, # of connection points: 4
#     Node 12, Type 1, BuildingBlock: TATPOV_clean_sbu_0, # of connection points: 4
#     Node 13, Type 1, BuildingBlock: TATPOV_clean_sbu_0, # of connection points: 4
#     Node 14, Type 1, BuildingBlock: TATPOV_clean_sbu_0, # of connection points: 4
#     Node 15, Type 1, BuildingBlock: TATPOV_clean_sbu_0, # of connection points: 4
#     Edge 16, Type (0, 1), BuildingBlock: XUDNAN_clean_linker_2, # of connection points: 2
#     Edge 17, Type (0, 1), BuildingBlock: XUDNAN_clean_linker_2, # of connection points: 2
#     Edge 18, Type (0, 1), BuildingBlock: XUDNAN_clean_linker_2, # of connection points: 2
#     Edge 19, Type (0, 1), BuildingBlock: XUDNAN_clean_linker_2, # of connection points: 2
#     Edge 20, Type (0, 1), BuildingBlock: XUDNAN_clean_linker_2, # of connection points: 2
#     Edge 21, Type (0, 1), BuildingBlock: XUDNAN_clean_linker_2, # of connection points: 2
#     Edge 22, Type (0, 1), BuildingBlock: XUDNAN_clean_linker_2, # of connection points: 2
#     Edge 23, Type (0, 1), BuildingBlock: XUDNAN_clean_linker_2, # of connection points: 2
#     Edge 24, Type (0, 1), BuildingBlock: XUDNAN_clean_linker_2, # of connection points: 2
#     Edge 25, Type (0, 1), BuildingBlock: XUDNAN_clean_linker_2, # of connection points: 2
#     Edge 26, Type (0, 1), BuildingBlock: XUDNAN_clean_linker_2, # of connection points: 2
#     Edge 27, Type (0, 1), BuildingBlock: XUDNAN_clean_linker_2, # of connection points: 2
#     Edge 28, Type (0, 1), BuildingBlock: XUDNAN_clean_linker_2, # of connection points: 2
#     Edge 29, Type (0, 1), BuildingBlock: XUDNAN_clean_linker_2, # of connection points: 2
#     Edge 30, Type (0, 1), BuildingBlock: XUDNAN_clean_linker_2, # of connection points: 2
#     Edge 31, Type (0, 1), BuildingBlock: XUDNAN_clean_linker_2, # of connection points: 2
#     Edge 32, Type (0, 1), BuildingBlock: XUDNAN_clean_linker_2, # of connection points: 2
#     Edge 33, Type (0, 1), BuildingBlock: XUDNAN_clean_linker_2, # of connection points: 2
#     Edge 34, Type (0, 1), BuildingBlock: XUDNAN_clean_linker_2, # of connection points: 2
#     Edge 35, Type (0, 1), BuildingBlock: XUDNAN_clean_linker_2, # of connection points: 2
#     Edge 36, Type (0, 1), BuildingBlock: XUDNAN_clean_linker_2, # of connection points: 2
#     Edge 37, Type (0, 1), BuildingBlock: XUDNAN_clean_linker_2, # of connection points: 2
#     Edge 38, Type (0, 1), BuildingBlock: XUDNAN_clean_linker_2, # of connection points: 2
#     Edge 39, Type (0, 1), BuildingBlock: XUDNAN_clean_linker_2, # of connection points: 2
#     Edge 40, Type (0, 1), BuildingBlock: XUDNAN_clean_linker_2, # of connection points: 2
#     Edge 41, Type (0, 1), BuildingBlock: XUDNAN_clean_linker_2, # of connection points: 2
#     Edge 42, Type (0, 1), BuildingBlock: XUDNAN_clean_linker_2, # of connection points: 2
#     Edge 43, Type (0, 1), BuildingBlock: XUDNAN_clean_linker_2, # of connection points: 2
#     Edge 44, Type (0, 1), BuildingBlock: XUDNAN_clean_linker_2, # of connection points: 2
#     Edge 45, Type (0, 1), BuildingBlock: XUDNAN_clean_linker_2, # of connection points: 2
#     Edge 46, Type (0, 1), BuildingBlock: XUDNAN_clean_linker_2, # of connection points: 2
#     Edge 47, Type (0, 1), BuildingBlock: XUDNAN_clean_linker_2, # of connection points: 2
# Relax obj value: 0.243
# Max RMSD: 0.232
# Mean RMSD: 0.173
data_MOF--net-wbl--node1-MUDLON_clean_sbu_0--node2-TATPOV_clean_sbu_0--edge1-XUDNAN_clean_linker_2
_symmetry_space_group_name_H-M    P1
_symmetry_Int_Tables_number       1
_symmetry_cell_setting            triclinic
loop_
_symmetry_equiv_pos_as_xyz
'x, y, z'
_cell_length_a     34.681102
_cell_length_b     34.691873
_cell_length_c     73.868901
_cell_angle_alpha  91.237003
_cell_angle_beta   91.346677
_cell_angle_gamma 89.912486
loop_
_atom_site_label
_atom_site_type_symbol
_atom_site_fract_x
_atom_site_fract_y
_atom_site_fract_z
_atom_type_partial_charge
Mg0 Mg 0.14184 0.17458 0.35859 0.0
C1 C 0.13501 0.08793 0.36387 0.0
O2 O 0.14822 0.08573 0.34735 0.0
C3 C 0.10129 0.22832 0.33336 0.0
O4 O 0.13274 0.24822 0.33722 0.0
C5 C 0.19917 0.15873 0.32879 0.0
O6 O 0.17161 0.17294 0.31842 0.0
O7 O 0.19578 0.16011 0.34589 0.0
O8 O 0.12659 0.12069 0.37067 0.0
O9 O 0.14428 0.21283 0.38223 0.0
C10 C 0.11363 0.208 0.39102 0.0
O11 O 0.08681 0.18512 0.38398 0.0
O12 O 0.09749 0.19515 0.34007 0.0
Mg13 Mg 0.03833 0.64691 0.61315 0.0
C14 C 0.12103 0.61781 0.61996 0.0
O15 O 0.12896 0.63561 0.60499 0.0
C16 C 0.019 0.58373 0.58569 0.0
O17 O 0.0564 0.57798 0.58712 0.0
C18 C 0.07447 0.69277 0.58436 0.0
O19 O 0.07043 0.65906 0.5761 0.0
O20 O 0.06157 0.69726 0.60024 0.0
O21 O 0.0862 0.61531 0.62471 0.0
O22 O 0.00721 0.65793 0.63785 0.0
C23 C 0.97429 0.643 0.64013 0.0
O24 O 0.95516 0.62848 0.62602 0.0
O25 O 0.00393 0.6111 0.59477 0.0
Mg26 Mg 0.55721 0.44616 0.84925 0.0
C27 C 0.56045 0.50044 0.87911 0.0
O28 O 0.53388 0.47511 0.8829 0.0
C29 C 0.62272 0.44814 0.82257 0.0
O30 O 0.6243 0.48441 0.82802 0.0
C31 C 0.50541 0.49833 0.83093 0.0
O32 O 0.54021 0.5124 0.82905 0.0
O33 O 0.50204 0.46603 0.83857 0.0
O34 O 0.578 0.49672 0.86425 0.0
O35 O 0.55627 0.40474 0.87082 0.0
C36 C 0.59014 0.4006 0.87746 0.0
O37 O 0.61913 0.4141 0.86836 0.0
O38 O 0.59686 0.42643 0.82874 0.0
Mg39 Mg 0.64725 0.02704 0.11434 0.0
C40 C 0.70349 0.01205 0.14497 0.0
O41 O 0.67195 0.99975 0.15248 0.0
C42 C 0.63797 0.94305 0.10214 0.0
O43 O 0.65653 0.93661 0.11749 0.0
C44 C 0.6841 0.09607 0.09793 0.0
O45 O 0.71203 0.08457 0.10884 0.0
O46 O 0.65234 0.07767 0.09745 0.0
O47 O 0.70231 0.01997 0.12826 0.0
O48 O 0.60566 0.03555 0.13579 0.0
C49 C 0.58387 0.00791 0.1401 0.0
O50 O 0.58377 0.9761 0.13016 0.0
O51 O 0.63147 0.97757 0.09751 0.0
Mg52 Mg 0.04219 0.65977 0.92842 0.0
C53 C 0.03903 0.71899 0.89986 0.0
O54 O 0.06192 0.7364 0.91186 0.0
C55 C 0.97664 0.61634 0.94474 0.0
O56 O 0.9714 0.60516 0.92776 0.0
C57 C 0.11583 0.67307 0.95022 0.0
O58 O 0.11077 0.63639 0.95356 0.0
O59 O 0.091 0.6904 0.94045 0.0
O60 O 0.02016 0.68978 0.90478 0.0
O61 O 0.06215 0.60694 0.91597 0.0
C62 C 0.07729 0.60876 0.90052 0.0
O63 O 0.08565 0.64266 0.8941 0.0
O64 O 0.00216 0.64166 0.94867 0.0
Mg65 Mg 0.50619 0.54722 0.17132 0.0
C66 C 0.48599 0.51197 0.13599 0.0
O67 O 0.52228 0.50192 0.13838 0.0
C68 C 0.53383 0.49586 0.20259 0.0
O69 O 0.51167 0.518 0.21258 0.0
C70 C 0.44476 0.58444 0.19461 0.0
O71 O 0.42705 0.5515 0.1913 0.0
O72 O 0.47812 0.58968 0.18834 0.0
O73 O 0.46864 0.52773 0.14921 0.0
O74 O 0.5506 0.57466 0.15616 0.0
C75 C 0.58575 0.56558 0.15867 0.0
O76 O 0.59553 0.54568 0.173 0.0
O77 O 0.53458 0.50071 0.1856 0.0
Mg78 Mg 0.64219 0.02189 0.41106 0.0
C79 C 0.66519 0.07454 0.38319 0.0
O80 O 0.6974 0.05792 0.3886 0.0
C81 C 0.59243 0.01166 0.44413 0.0
O82 O 0.62472 0.02037 0.4529 0.0
C83 C 0.68583 0.07345 0.43563 0.0
O84 O 0.65225 0.09078 0.43394 0.0
O85 O 0.69071 0.04103 0.42768 0.0
O86 O 0.63404 0.06566 0.39083 0.0
O87 O 0.65164 0.96996 0.39528 0.0
C88 C 0.63956 0.9378 0.40074 0.0
O89 O 0.6294 0.93519 0.4177 0.0
O90 O 0.59134 0.01166 0.42691 0.0
Mg91 Mg 0.17599 0.10618 0.67695 0.0
C92 C 0.21389 0.06867 0.64669 0.0
O93 O 0.18685 0.04451 0.65131 0.0
C94 C 0.16098 0.18986 0.68574 0.0
O95 O 0.14653 0.18809 0.66916 0.0
C96 C 0.21113 0.04393 0.69976 0.0
O97 O 0.2424 0.05797 0.69268 0.0
O98 O 0.17862 0.05865 0.69558 0.0
O99 O 0.21946 0.09882 0.65648 0.0
O100 O 0.12099 0.10662 0.66214 0.0
C101 C 0.12168 0.11864 0.64601 0.0
O102 O 0.15484 0.12884 0.63936 0.0
O103 O 0.17818 0.16046 0.69207 0.0
Zn104 Zn 0.45952 0.76708 0.98093 0.0
Zn105 Zn 0.45073 0.70284 0.00133 0.0
O106 O 0.39603 0.71789 0.99344 0.0
O107 O 0.40124 0.77021 0.97737 0.0
O108 O 0.44079 0.6581 0.01752 0.0
O109 O 0.4861 0.79333 0.00255 0.0
O110 O 0.48018 0.74053 0.01825 0.0
C111 C 0.38047 0.74452 0.98419 0.0
C112 C 0.49714 0.6977 0.96684 0.0
O113 O 0.483 0.68191 0.98062 0.0
O114 O 0.49132 0.7332 0.96402 0.0
C115 C 0.46529 0.63228 0.02163 0.0
O116 O 0.49965 0.63315 0.01453 0.0
C117 C 0.49211 0.77504 0.01701 0.0
Zn118 Zn 0.37602 0.85779 0.29901 0.0
Zn119 Zn 0.42203 0.89146 0.27469 0.0
O120 O 0.38177 0.93308 0.28049 0.0
O121 O 0.34628 0.90815 0.3016 0.0
O122 O 0.45239 0.91529 0.25484 0.0
O123 O 0.36092 0.81583 0.28058 0.0
O124 O 0.40333 0.84108 0.26261 0.0
C125 C 0.35454 0.9362 0.29169 0.0
C126 C 0.45734 0.86351 0.31005 0.0
O127 O 0.46082 0.88188 0.29541 0.0
O128 O 0.42489 0.84993 0.31423 0.0
C129 C 0.46319 0.95031 0.25532 0.0
O130 O 0.45592 0.97191 0.26967 0.0
C131 C 0.37945 0.81448 0.26601 0.0
Zn132 Zn 0.2783 0.86848 0.47867 0.0
Zn133 Zn 0.26479 0.93568 0.49792 0.0
O134 O 0.32299 0.93574 0.49469 0.0
O135 O 0.33553 0.88296 0.47875 0.0
O136 O 0.25521 0.9794 0.51566 0.0
O137 O 0.25391 0.83688 0.49853 0.0
O138 O 0.24264 0.89223 0.51241 0.0
C139 C 0.3469 0.91384 0.48667 0.0
C140 C 0.22878 0.92523 0.46024 0.0
O141 O 0.23442 0.94636 0.47441 0.0
O142 O 0.24354 0.89178 0.45918 0.0
C143 C 0.28003 0.00377 0.52164 0.0
O144 O 0.31387 0.00543 0.51408 0.0
C145 C 0.23983 0.85572 0.5117 0.0
Zn146 Zn 0.31336 0.73116 0.75089 0.0
Zn147 Zn 0.24528 0.71434 0.76525 0.0
O148 O 0.24595 0.77328 0.76167 0.0
O149 O 0.30248 0.78828 0.75104 0.0
O150 O 0.1961 0.70747 0.77918 0.0
O151 O 0.34224 0.70524 0.77118 0.0
O152 O 0.28612 0.6878 0.78155 0.0
C153 C 0.26929 0.79848 0.75606 0.0
C154 C 0.26257 0.68187 0.72807 0.0
O155 O 0.23886 0.68523 0.74096 0.0
O156 O 0.29518 0.69836 0.72926 0.0
C157 C 0.19324 0.72943 0.79312 0.0
O158 O 0.22142 0.75366 0.79709 0.0
C159 C 0.32285 0.68662 0.78237 0.0
Zn160 Zn 0.86964 0.27421 0.5462 0.0
Zn161 Zn 0.93571 0.26841 0.52624 0.0
O162 O 0.92999 0.32614 0.53091 0.0
O163 O 0.87626 0.33255 0.54603 0.0
O164 O 0.98065 0.263 0.50965 0.0
O165 O 0.83969 0.24616 0.52595 0.0
O166 O 0.89388 0.24095 0.51118 0.0
C167 C 0.90533 0.34743 0.5388 0.0
C168 C 0.93327 0.2311 0.56303 0.0
O169 O 0.95099 0.23927 0.54871 0.0
O170 O 0.89887 0.24252 0.56523 0.0
C171 C 0.00742 0.28704 0.50688 0.0
O172 O 0.00879 0.31968 0.51621 0.0
C173 C 0.85805 0.23403 0.51234 0.0
Zn174 Zn 0.94922 0.36023 0.78977 0.0
Zn175 Zn 0.95106 0.42262 0.76954 0.0
O176 O 0.89382 0.40851 0.77263 0.0
O177 O 0.89191 0.35269 0.7861 0.0
O178 O 0.94526 0.46759 0.75276 0.0
O179 O 0.98817 0.33459 0.77405 0.0
O180 O 0.98764 0.38471 0.75617 0.0
C181 C 0.87456 0.38065 0.7788 0.0
C182 C 0.98156 0.42776 0.80831 0.0
O183 O 0.97664 0.44378 0.79304 0.0
O184 O 0.97046 0.39339 0.81042 0.0
C185 C 0.97149 0.49062 0.74807 0.0
O186 O 0.00676 0.48636 0.75461 0.0
C187 C 0.00041 0.35146 0.76031 0.0
Zn188 Zn 0.80079 0.40834 0.0535 0.0
Zn189 Zn 0.74923 0.41738 0.02644 0.0
O190 O 0.74577 0.36037 0.03353 0.0
O191 O 0.79117 0.35087 0.0542 0.0
O192 O 0.71405 0.41806 0.00439 0.0
O193 O 0.8426 0.43217 0.03879 0.0
O194 O 0.79974 0.43946 0.01671 0.0
C195 C 0.76351 0.33799 0.04436 0.0
C196 C 0.73668 0.46045 0.06174 0.0
O197 O 0.72564 0.45373 0.04539 0.0
O198 O 0.76663 0.44415 0.06814 0.0
C199 C 0.67999 0.40449 0.00394 0.0
O200 O 0.66526 0.39158 0.01887 0.0
C201 C 0.83387 0.44416 0.02315 0.0
Zn202 Zn 0.8228 0.29422 0.22865 0.0
Zn203 Zn 0.78753 0.2565 0.25568 0.0
O204 O 0.75082 0.30122 0.24992 0.0
O205 O 0.77625 0.33005 0.2268 0.0
O206 O 0.76197 0.22988 0.27619 0.0
O207 O 0.86825 0.30559 0.24589 0.0
O208 O 0.8409 0.27001 0.26631 0.0
C209 C 0.74926 0.32708 0.23796 0.0
C210 C 0.80587 0.2135 0.22048 0.0
O211 O 0.78998 0.21487 0.23585 0.0
O212 O 0.82243 0.24307 0.21453 0.0
C213 C 0.72554 0.22676 0.27714 0.0
O214 O 0.70342 0.24111 0.26427 0.0
C215 C 0.86945 0.28972 0.26119 0.0
H216 H 0.23193 0.09552 0.34404 0.0
H217 H 0.23021 0.16233 0.29508 0.0
H218 H 0.2726 0.11382 0.28046 0.0
H219 H 0.33052 0.05795 0.34143 0.0
H220 H 0.31681 0.01137 0.34948 0.0
H221 H 0.29088 0.05387 0.35663 0.0
H222 H 0.22692 0.02258 0.34507 0.0
H223 H 0.25258 0.9802 0.33765 0.0
H224 H 0.22243 0.00603 0.32182 0.0
H225 H 0.31355 0.05638 0.27102 0.0
H226 H 0.34705 0.9938 0.26703 0.0
H227 H 0.31626 0.96273 0.32141 0.0
C228 C 0.24134 0.10055 0.33041 0.0
C229 C 0.22849 0.13305 0.32077 0.0
C230 C 0.24024 0.13786 0.30275 0.0
C231 C 0.26422 0.11046 0.29436 0.0
C232 C 0.27558 0.07819 0.30412 0.0
C233 C 0.26436 0.0731 0.32173 0.0
C234 C 0.27747 0.03447 0.32877 0.0
C235 C 0.3056 0.03975 0.34504 0.0
C236 C 0.24278 0.00935 0.3336 0.0
C237 C 0.29773 0.01843 0.31233 0.0
C238 C 0.29687 0.04426 0.29833 0.0
C239 C 0.3143 0.03592 0.28188 0.0
C240 C 0.3332 0.00033 0.27973 0.0
C241 C 0.33387 0.97329 0.29383 0.0
C242 C 0.31576 0.98258 0.31028 0.0
H243 H 0.11328 0.68811 0.55253 0.0
H244 H 0.0884 0.76621 0.5975 0.0
H245 H 0.12996 0.81561 0.58429 0.0
H246 H 0.21265 0.7141 0.54862 0.0
H247 H 0.21202 0.71009 0.52425 0.0
H248 H 0.17987 0.68109 0.53705 0.0
H249 H 0.12121 0.70797 0.51894 0.0
H250 H 0.15319 0.73676 0.50596 0.0
H251 H 0.1142 0.75939 0.51793 0.0
H252 H 0.1741 0.85639 0.56613 0.0
H253 H 0.21587 0.88651 0.54391 0.0
H254 H 0.21286 0.78111 0.51109 0.0
C255 C 0.11631 0.71567 0.55958 0.0
C256 C 0.09746 0.72334 0.57604 0.0
C257 C 0.10246 0.75972 0.58485 0.0
C258 C 0.12609 0.7879 0.57749 0.0
C259 C 0.1446 0.77917 0.56135 0.0
C260 C 0.13989 0.74399 0.55248 0.0
C261 C 0.16298 0.74182 0.53533 0.0
C262 C 0.1937 0.70988 0.53639 0.0
C263 C 0.1363 0.73616 0.51855 0.0
C264 C 0.18128 0.78142 0.53586 0.0
C265 C 0.17037 0.80247 0.551 0.0
C266 C 0.18289 0.84014 0.55425 0.0
C267 C 0.20666 0.85697 0.54154 0.0
C268 C 0.21777 0.83614 0.52576 0.0
C269 C 0.20523 0.79767 0.52308 0.0
H270 H 0.5057 0.56711 0.81393 0.0
H271 H 0.42848 0.48336 0.8365 0.0
H272 H 0.37285 0.52565 0.82909 0.0
H273 H 0.45567 0.65242 0.82945 0.0
H274 H 0.46508 0.67855 0.80919 0.0
H275 H 0.4985 0.64221 0.81682 0.0
H276 H 0.49242 0.60655 0.78566 0.0
H277 H 0.45948 0.64304 0.77787 0.0
H278 H 0.44531 0.59306 0.77685 0.0
H279 H 0.32559 0.57745 0.81838 0.0
H280 H 0.29097 0.63051 0.80312 0.0
H281 H 0.40057 0.67939 0.78815 0.0
C282 C 0.47714 0.55751 0.81737 0.0
C283 C 0.47143 0.5219 0.8258 0.0
C284 C 0.43351 0.51049 0.82998 0.0
C285 C 0.40181 0.53444 0.82594 0.0
C286 C 0.40864 0.56966 0.8178 0.0
C287 C 0.44543 0.58094 0.81348 0.0
C288 C 0.44529 0.61929 0.80416 0.0
C289 C 0.46744 0.64992 0.81559 0.0
C290 C 0.46157 0.61522 0.785 0.0
C291 C 0.40255 0.62769 0.80358 0.0
C292 C 0.38179 0.59907 0.81169 0.0
C293 C 0.34162 0.6001 0.81209 0.0
C294 C 0.32221 0.63049 0.80347 0.0
C295 C 0.34303 0.65919 0.79444 0.0
C296 C 0.38374 0.65811 0.795 0.0
H297 H 0.60229 0.94693 0.06887 0.0
H298 H 0.63388 0.86672 0.11104 0.0
H299 H 0.59994 0.81447 0.09386 0.0
H300 H 0.50831 0.91114 0.05985 0.0
H301 H 0.50978 0.9181 0.03576 0.0
H302 H 0.53798 0.94861 0.05098 0.0
H303 H 0.60008 0.93003 0.03395 0.0
H304 H 0.57201 0.89975 0.01856 0.0
H305 H 0.61252 0.87986 0.03094 0.0
H306 H 0.55949 0.77184 0.07259 0.0
H307 H 0.5195 0.74143 0.0481 0.0
H308 H 0.51559 0.85018 0.02008 0.0
C309 C 0.60243 0.91832 0.07446 0.0
C310 C 0.62071 0.9109 0.09131 0.0
C311 C 0.62019 0.87304 0.09812 0.0
C312 C 0.60088 0.84322 0.08849 0.0
C313 C 0.58252 0.85177 0.07207 0.0
C314 C 0.5835 0.88833 0.06504 0.0
C315 C 0.56128 0.89026 0.04723 0.0
C316 C 0.52733 0.91871 0.04855 0.0
C317 C 0.58808 0.90057 0.03176 0.0
C318 C 0.54733 0.8491 0.04537 0.0
C319 C 0.55974 0.82731 0.05982 0.0
C320 C 0.5498 0.78858 0.06115 0.0
C321 C 0.52696 0.77162 0.04721 0.0
C322 C 0.51447 0.79339 0.03214 0.0
C323 C 0.52475 0.83268 0.03135 0.0
H324 H 0.17607 0.64371 0.97031 0.0
H325 H 0.13656 0.74767 0.94389 0.0
H326 H 0.19832 0.77945 0.95208 0.0
H327 H 0.23125 0.69236 0.00756 0.0
H328 H 0.26888 0.65647 0.00723 0.0
H329 H 0.2201 0.64327 0.00087 0.0
H330 H 0.24372 0.61616 0.97009 0.0
H331 H 0.29245 0.62934 0.97632 0.0
H332 H 0.27078 0.64687 0.95566 0.0
H333 H 0.26659 0.79767 0.96048 0.0
H334 H 0.33583 0.80125 0.96902 0.0
H335 H 0.33012 0.68583 0.99039 0.0
C336 C 0.1801 0.67338 0.96652 0.0
C337 C 0.15143 0.6932 0.95649 0.0
C338 C 0.15804 0.7319 0.95163 0.0
C339 C 0.19302 0.75025 0.95624 0.0
C340 C 0.22094 0.72964 0.96584 0.0
C341 C 0.21477 0.69215 0.97104 0.0
C342 C 0.25024 0.67564 0.98038 0.0
C343 C 0.24212 0.6664 0.00019 0.0
C344 C 0.26517 0.6399 0.96998 0.0
C345 C 0.27766 0.70933 0.97917 0.0
C346 C 0.26016 0.74031 0.97086 0.0
C347 C 0.28046 0.77381 0.96724 0.0
C348 C 0.31979 0.77554 0.9721 0.0
C349 C 0.33836 0.74394 0.98047 0.0
C350 C 0.3167 0.7107 0.98425 0.0
H351 H 0.46894 0.65905 0.19912 0.0
H352 H 0.37802 0.58056 0.21377 0.0
H353 H 0.34753 0.63295 0.23165 0.0
H354 H 0.47847 0.70743 0.24128 0.0
H355 H 0.48724 0.75399 0.23183 0.0
H356 H 0.50015 0.71088 0.21943 0.0
H357 H 0.45846 0.73315 0.19198 0.0
H358 H 0.4452 0.77627 0.20438 0.0
H359 H 0.40828 0.74464 0.19504 0.0
H360 H 0.32991 0.69299 0.24978 0.0
H361 H 0.32706 0.75516 0.26673 0.0
H362 H 0.42838 0.79415 0.239 0.0
C363 C 0.44248 0.65284 0.20599 0.0
C364 C 0.42589 0.61568 0.20508 0.0
C365 C 0.39122 0.60884 0.21426 0.0
C366 C 0.37364 0.63844 0.2244 0.0
C367 C 0.39087 0.67475 0.22503 0.0
C368 C 0.42445 0.68203 0.21599 0.0
C369 C 0.43805 0.72301 0.21931 0.0
C370 C 0.47835 0.72385 0.22851 0.0
C371 C 0.43744 0.74559 0.20162 0.0
C372 C 0.4074 0.73749 0.232 0.0
C373 C 0.38028 0.70937 0.23508 0.0
C374 C 0.35067 0.7154 0.24727 0.0
C375 C 0.34926 0.7508 0.25682 0.0
C376 C 0.37727 0.77968 0.25409 0.0
C377 C 0.4061 0.77303 0.24119 0.0
H378 H 0.53416 0.96409 0.43201 0.0
H379 H 0.57438 0.03112 0.47897 0.0
H380 H 0.51752 0.01021 0.49584 0.0
H381 H 0.43384 0.98156 0.43649 0.0
H382 H 0.4196 0.93343 0.42954 0.0
H383 H 0.46356 0.95358 0.4214 0.0
H384 H 0.50182 0.89518 0.43378 0.0
H385 H 0.45797 0.87495 0.44209 0.0
H386 H 0.49854 0.88342 0.45735 0.0
H387 H 0.45375 0.9858 0.50665 0.0
H388 H 0.38937 0.95727 0.51108 0.0
H389 H 0.39387 0.90193 0.45797 0.0
C390 C 0.53091 0.97447 0.44583 0.0
C391 C 0.55837 0.99952 0.45417 0.0
C392 C 0.55355 0.01198 0.47235 0.0
C393 C 0.52142 0.00022 0.48202 0.0
C394 C 0.49488 0.97541 0.47341 0.0
C395 C 0.4995 0.96237 0.45579 0.0
C396 C 0.46701 0.93568 0.44968 0.0
C397 C 0.44468 0.95205 0.43332 0.0
C398 C 0.48226 0.89489 0.44548 0.0
C399 C 0.44286 0.93641 0.46649 0.0
C400 C 0.45935 0.9596 0.48002 0.0
C401 C 0.4409 0.96702 0.49629 0.0
C402 C 0.40441 0.95073 0.4987 0.0
C403 C 0.38711 0.92687 0.48501 0.0
C404 C 0.40695 0.91917 0.46886 0.0
H405 H 0.27455 0.99944 0.70723 0.0
H406 H 0.15338 0.01252 0.71949 0.0
H407 H 0.15723 0.95487 0.73853 0.0
H408 H 0.27325 0.89938 0.70211 0.0
H409 H 0.32061 0.89193 0.71201 0.0
H410 H 0.3093 0.93664 0.70121 0.0
H411 H 0.32922 0.97431 0.73064 0.0
H412 H 0.34045 0.92958 0.74158 0.0
H413 H 0.30679 0.96289 0.75163 0.0
H414 H 0.17308 0.89276 0.75418 0.0
H415 H 0.19858 0.82971 0.76375 0.0
H416 H 0.30923 0.8574 0.74101 0.0
C417 C 0.24896 0.99063 0.71417 0.0
C418 C 0.21371 0.01063 0.71194 0.0
C419 C 0.18074 0.99771 0.72102 0.0
C420 C 0.18269 0.96511 0.73194 0.0
C421 C 0.21783 0.94581 0.73368 0.0
C422 C 0.25036 0.9581 0.72503 0.0
C423 C 0.28379 0.93064 0.7279 0.0
C424 C 0.29752 0.91364 0.70973 0.0
C425 C 0.31703 0.95055 0.73858 0.0
C426 C 0.26472 0.90037 0.7391 0.0
C427 C 0.22685 0.9099 0.74254 0.0
C428 C 0.20283 0.88522 0.75175 0.0
C429 C 0.2176 0.84945 0.75715 0.0
C430 C 0.25596 0.83856 0.75318 0.0
C431 C 0.27994 0.86493 0.74444 0.0
H432 H 0.68352 0.48585 0.80778 0.0
H433 H 0.6322 0.37249 0.81223 0.0
H434 H 0.68802 0.34344 0.79701 0.0
H435 H 0.73061 0.4668 0.76308 0.0
H436 H 0.77233 0.49494 0.76989 0.0
H437 H 0.72557 0.50749 0.77843 0.0
H438 H 0.75275 0.50338 0.81132 0.0
H439 H 0.79939 0.49076 0.80291 0.0
H440 H 0.77605 0.45961 0.8185 0.0
H441 H 0.75361 0.32571 0.78636 0.0
H442 H 0.8231 0.32115 0.77988 0.0
H443 H 0.83087 0.44591 0.78088 0.0
C444 C 0.6835 0.45504 0.80512 0.0
C445 C 0.65344 0.43148 0.8112 0.0
C446 C 0.65479 0.3912 0.80765 0.0
C447 C 0.68636 0.3744 0.79895 0.0
C448 C 0.71608 0.3983 0.79363 0.0
C449 C 0.71469 0.43783 0.79634 0.0
C450 C 0.75183 0.45668 0.79078 0.0
C451 C 0.74464 0.48303 0.77458 0.0
C452 C 0.77113 0.47889 0.80683 0.0
C453 C 0.77501 0.42142 0.78535 0.0
C454 C 0.75372 0.38804 0.78691 0.0
C455 C 0.77027 0.35166 0.78461 0.0
C456 C 0.80974 0.34932 0.78099 0.0
C457 C 0.83212 0.38316 0.77959 0.0
C458 C 0.81419 0.4196 0.78133 0.0
H459 H 0.74678 0.14364 0.09826 0.0
H460 H 0.63535 0.12501 0.07154 0.0
H461 H 0.64635 0.18183 0.05261 0.0
H462 H 0.74119 0.24473 0.10098 0.0
H463 H 0.79172 0.25224 0.09709 0.0
H464 H 0.77606 0.20856 0.10733 0.0
H465 H 0.80964 0.16828 0.08227 0.0
H466 H 0.82521 0.21193 0.07186 0.0
H467 H 0.79758 0.17672 0.05881 0.0
H468 H 0.66875 0.24275 0.03759 0.0
H469 H 0.69826 0.30447 0.02929 0.0
H470 H 0.79458 0.28263 0.06628 0.0
C471 C 0.72475 0.15119 0.08832 0.0
C472 C 0.69022 0.12977 0.08635 0.0
C473 C 0.66204 0.14096 0.07329 0.0
C474 C 0.66813 0.17307 0.06242 0.0
C475 C 0.70255 0.19356 0.06476 0.0
C476 C 0.7303 0.18306 0.07745 0.0
C477 C 0.76383 0.21095 0.07811 0.0
C478 C 0.76844 0.23027 0.09699 0.0
C479 C 0.80128 0.19075 0.07242 0.0
C480 C 0.7503 0.23939 0.06408 0.0
C481 C 0.71518 0.22862 0.05632 0.0
C482 C 0.69638 0.25128 0.04349 0.0
C483 C 0.71346 0.28627 0.03882 0.0
C484 C 0.74882 0.29845 0.0471 0.0
C485 C 0.76771 0.27412 0.0596 0.0
H486 H 0.02716 0.2021 0.32853 0.0
H487 H 0.10511 0.29221 0.31237 0.0
H488 H 0.05304 0.32024 0.29339 0.0
H489 H 0.97821 0.18893 0.28598 0.0
H490 H 0.93172 0.1811 0.29568 0.0
H491 H 0.97499 0.16885 0.30821 0.0
H492 H 0.95325 0.21248 0.33503 0.0
H493 H 0.91001 0.22508 0.3225 0.0
H494 H 0.94194 0.26241 0.33117 0.0
H495 H 0.99327 0.33642 0.27497 0.0
H496 H 0.93024 0.33966 0.2587 0.0
H497 H 0.89093 0.24067 0.28809 0.0
C498 C 0.03332 0.22772 0.321 0.0
C499 C 0.07023 0.24491 0.32188 0.0
C500 C 0.07702 0.27857 0.31191 0.0
C501 C 0.04763 0.29474 0.30112 0.0
C502 C 0.01152 0.27714 0.30061 0.0
C503 C 0.00423 0.24446 0.31034 0.0
C504 C 0.96309 0.23088 0.30733 0.0
C505 C 0.96196 0.19003 0.29878 0.0
C506 C 0.94076 0.23285 0.32506 0.0
C507 C 0.94852 0.26067 0.29414 0.0
C508 C 0.97685 0.28712 0.29043 0.0
C509 C 0.97071 0.31613 0.27792 0.0
C510 C 0.93485 0.31776 0.26875 0.0
C511 C 0.90554 0.2907 0.27226 0.0
C512 C 0.91245 0.26224 0.28535 0.0
H513 H 0.04181 0.52187 0.56492 0.0
H514 H 0.94011 0.58333 0.583 0.0
H515 H 0.89872 0.53321 0.56856 0.0
H516 H 0.99819 0.48351 0.52107 0.0
H517 H 0.02362 0.43841 0.52317 0.0
H518 H 0.04495 0.48231 0.53223 0.0
H519 H 0.05239 0.45123 0.56373 0.0
H520 H 0.0311 0.40743 0.55479 0.0
H521 H 0.01052 0.43149 0.57417 0.0
H522 H 0.8692 0.47173 0.55682 0.0
H523 H 0.85393 0.4043 0.54792 0.0
H524 H 0.9745 0.38398 0.5365 0.0
C525 C 0.01082 0.52534 0.56544 0.0
C526 C 0.99421 0.55651 0.57508 0.0
C527 C 0.95352 0.55976 0.57563 0.0
C528 C 0.92973 0.53149 0.56741 0.0
C529 C 0.94706 0.5005 0.55846 0.0
C530 C 0.98669 0.49751 0.55722 0.0
C531 C 0.99822 0.45965 0.54833 0.0
C532 C 0.01737 0.46639 0.53011 0.0
C533 C 0.02458 0.43608 0.56102 0.0
C534 C 0.95904 0.44102 0.5456 0.0
C535 C 0.92983 0.46523 0.55129 0.0
C536 C 0.89167 0.45283 0.55189 0.0
C537 C 0.88329 0.41448 0.54688 0.0
C538 C 0.91295 0.38907 0.54133 0.0
C539 C 0.95106 0.40297 0.54025 0.0
H540 H 0.68021 0.13014 0.46157 0.0
H541 H 0.7632 0.06026 0.43244 0.0
H542 H 0.81654 0.0957 0.44813 0.0
H543 H 0.7321 0.21912 0.46156 0.0
H544 H 0.71881 0.23337 0.48419 0.0
H545 H 0.6872 0.20284 0.47054 0.0
H546 H 0.68818 0.15173 0.49564 0.0
H547 H 0.71947 0.18225 0.50943 0.0
H548 H 0.73378 0.13347 0.50399 0.0
H549 H 0.86044 0.14053 0.46606 0.0
H550 H 0.89228 0.18649 0.4875 0.0
H551 H 0.78031 0.22477 0.50598 0.0
C552 C 0.70962 0.12227 0.45851 0.0
C553 C 0.71771 0.09264 0.44576 0.0
C554 C 0.75648 0.08282 0.44224 0.0
C555 C 0.7869 0.10291 0.45098 0.0
C556 C 0.77791 0.13233 0.46333 0.0
C557 C 0.74023 0.14159 0.46729 0.0
C558 C 0.73833 0.17349 0.48154 0.0
C559 C 0.71791 0.20932 0.474 0.0
C560 C 0.71879 0.15938 0.49866 0.0
C561 C 0.78087 0.18085 0.48495 0.0
C562 C 0.80319 0.15715 0.47415 0.0
C563 C 0.84329 0.15907 0.47467 0.0
C564 C 0.86107 0.18541 0.48683 0.0
C565 C 0.83874 0.2091 0.49845 0.0
C566 C 0.79812 0.20692 0.49733 0.0
H567 H 0.10705 0.2461 0.67951 0.0
H568 H 0.18876 0.20485 0.72011 0.0
H569 H 0.16141 0.24997 0.74262 0.0
H570 H 0.10179 0.34951 0.69738 0.0
H571 H 0.05086 0.35196 0.69207 0.0
H572 H 0.08196 0.32264 0.6782 0.0
H573 H 0.03853 0.26347 0.68344 0.0
H574 H 0.00767 0.29228 0.69751 0.0
H575 H 0.02952 0.24913 0.70627 0.0
H576 H 0.1182 0.28847 0.76174 0.0
H577 H 0.06411 0.32223 0.77622 0.0
H578 H 0.01033 0.34099 0.72357 0.0
C579 C 0.12019 0.24761 0.69295 0.0
C580 C 0.15018 0.22205 0.69805 0.0
C581 C 0.16592 0.22424 0.71589 0.0
C582 C 0.15062 0.24986 0.72875 0.0
C583 C 0.11986 0.27334 0.72352 0.0
C584 C 0.10514 0.27298 0.70598 0.0
C585 C 0.06928 0.29798 0.70442 0.0
C586 C 0.07641 0.33259 0.6923 0.0
C587 C 0.0342 0.27429 0.69751 0.0
C588 C 0.065 0.31077 0.72402 0.0
C589 C 0.09485 0.29653 0.73471 0.0
C590 C 0.09527 0.30066 0.75348 0.0
C591 C 0.06431 0.31957 0.76157 0.0
C592 C 0.03345 0.33436 0.75094 0.0
C593 C 0.03411 0.33063 0.7319 0.0
H594 H 0.91241 0.56987 0.94212 0.0
H595 H 0.99983 0.61356 0.98027 0.0
H596 H 0.9743 0.57206 0.00384 0.0
H597 H 0.83564 0.56517 0.97507 0.0
H598 H 0.81497 0.52191 0.96499 0.0
H599 H 0.84001 0.55535 0.95113 0.0
H600 H 0.88482 0.50013 0.94026 0.0
H601 H 0.86028 0.46666 0.95431 0.0
H602 H 0.91176 0.47276 0.95674 0.0
H603 H 0.9425 0.52298 0.02262 0.0
H604 H 0.90014 0.47646 0.03708 0.0
H605 H 0.83047 0.46685 0.98754 0.0
C606 C 0.92591 0.57097 0.95549 0.0
C607 C 0.95819 0.59491 0.95933 0.0
C608 C 0.97497 0.59565 0.97701 0.0
C609 C 0.96085 0.57196 0.99047 0.0
C610 C 0.9296 0.54808 0.98613 0.0
C611 C 0.91176 0.54794 0.96921 0.0
C612 C 0.87788 0.52028 0.96832 0.0
C613 C 0.83988 0.54198 0.96467 0.0
C614 C 0.88408 0.48805 0.95406 0.0
C615 C 0.87973 0.5047 0.98735 0.0
C616 C 0.91014 0.52077 0.99727 0.0
C617 C 0.91838 0.51043 0.01505 0.0
C618 C 0.89424 0.48373 0.0231 0.0
C619 C 0.86187 0.468 0.01348 0.0
C620 C 0.85492 0.47836 0.99527 0.0
H621 H 0.59836 0.46422 0.18775 0.0
H622 H 0.5319 0.46678 0.23682 0.0
H623 H 0.57995 0.42381 0.25139 0.0
H624 H 0.62991 0.36527 0.18979 0.0
H625 H 0.67718 0.37557 0.1815 0.0
H626 H 0.63666 0.40499 0.17485 0.0
H627 H 0.67295 0.46595 0.18668 0.0
H628 H 0.71353 0.4368 0.1935 0.0
H629 H 0.69074 0.46823 0.20981 0.0
H630 H 0.63531 0.37998 0.26038 0.0
H631 H 0.69431 0.34031 0.26343 0.0
H632 H 0.72581 0.36988 0.20892 0.0
C633 C 0.59359 0.45542 0.20149 0.0
C634 C 0.56117 0.46854 0.21112 0.0
C635 C 0.55645 0.45692 0.22919 0.0
C636 C 0.58357 0.43256 0.23756 0.0
C637 C 0.61543 0.42049 0.22773 0.0
C638 C 0.6206 0.43168 0.21011 0.0
C639 C 0.65787 0.41586 0.20267 0.0
C640 C 0.64991 0.38881 0.18623 0.0
C641 C 0.68539 0.44867 0.19789 0.0
C642 C 0.67289 0.39385 0.21884 0.0
C643 C 0.6479 0.39663 0.23312 0.0
C644 C 0.65519 0.37779 0.24933 0.0
C645 C 0.68876 0.35534 0.25093 0.0
C646 C 0.71485 0.35227 0.23648 0.0
C647 C 0.70676 0.37206 0.22031 0.0
H648 H 0.13373 0.08898 0.40079 0.0
H649 H 0.14675 0.01209 0.35419 0.0
H650 H 0.16374 0.95894 0.37467 0.0
H651 H 0.21443 0.05854 0.42343 0.0
H652 H 0.19552 0.06298 0.4459 0.0
H653 H 0.17643 0.09259 0.42815 0.0
H654 H 0.10756 0.06752 0.43375 0.0
H655 H 0.12631 0.038 0.45172 0.0
H656 H 0.09846 0.01635 0.43327 0.0
H657 H 0.18714 0.91692 0.39975 0.0
H658 H 0.21715 0.8896 0.42715 0.0
H659 H 0.19199 0.99523 0.45726 0.0
C660 C 0.13875 0.06063 0.39487 0.0
C661 C 0.13837 0.05451 0.37588 0.0
C662 C 0.14641 0.01729 0.3687 0.0
C663 C 0.15603 0.98693 0.38023 0.0
C664 C 0.1575 0.99435 0.39888 0.0
C665 C 0.14897 0.0303 0.40615 0.0
C666 C 0.15743 0.03226 0.42637 0.0
C667 C 0.18776 0.06342 0.43123 0.0
C668 C 0.12022 0.03891 0.4369 0.0
C669 C 0.17332 0.99216 0.42926 0.0
C670 C 0.17235 0.97052 0.41331 0.0
C671 C 0.18754 0.93339 0.41236 0.0
C672 C 0.20464 0.91818 0.42803 0.0
C673 C 0.20696 0.94025 0.44441 0.0
C674 C 0.19045 0.9775 0.44502 0.0
H675 H 0.11209 0.60222 0.65563 0.0
H676 H 0.19932 0.62076 0.61558 0.0
H677 H 0.24882 0.62649 0.64004 0.0
H678 H 0.14029 0.67297 0.68376 0.0
H679 H 0.12989 0.64936 0.70459 0.0
H680 H 0.10444 0.63554 0.68406 0.0
H681 H 0.12752 0.5637 0.68809 0.0
H682 H 0.15132 0.5791 0.70898 0.0
H683 H 0.17811 0.55432 0.69163 0.0
H684 H 0.2853 0.64403 0.66833 0.0
H685 H 0.30607 0.67163 0.69792 0.0
H686 H 0.19413 0.64518 0.71963 0.0
C687 C 0.14188 0.60573 0.6519 0.0
C688 C 0.15189 0.6109 0.63367 0.0
C689 C 0.19104 0.61644 0.62944 0.0
C690 C 0.21937 0.61964 0.64326 0.0
C691 C 0.20806 0.617 0.66119 0.0
C692 C 0.17026 0.60967 0.66554 0.0
C693 C 0.16419 0.61451 0.68571 0.0
C694 C 0.13288 0.64489 0.68976 0.0
C695 C 0.15471 0.57561 0.69411 0.0
C696 C 0.20374 0.62839 0.69187 0.0
C697 C 0.22896 0.62842 0.67764 0.0
C698 C 0.26609 0.64331 0.67965 0.0
C699 C 0.27752 0.65916 0.69653 0.0
C700 C 0.25168 0.66062 0.71113 0.0
C701 C 0.21467 0.64414 0.70881 0.0
H702 H 0.54523 0.50388 0.9148 0.0
H703 H 0.58746 0.57239 0.87107 0.0
H704 H 0.58484 0.63082 0.89092 0.0
H705 H 0.4771 0.56587 0.92887 0.0
H706 H 0.48268 0.55748 0.95279 0.0
H707 H 0.4957 0.52046 0.93671 0.0
H708 H 0.56472 0.51755 0.95084 0.0
H709 H 0.55177 0.55435 0.96722 0.0
H710 H 0.59294 0.56104 0.95317 0.0
H711 H 0.56592 0.68248 0.91351 0.0
H712 H 0.5357 0.72265 0.93725 0.0
H713 H 0.50653 0.61944 0.96615 0.0
C714 C 0.55504 0.53101 0.90957 0.0
C715 C 0.56652 0.53384 0.89146 0.0
C716 C 0.57895 0.56971 0.885 0.0
C717 C 0.5775 0.60296 0.89617 0.0
C718 C 0.5643 0.59945 0.91378 0.0
C719 C 0.55395 0.56418 0.92052 0.0
C720 C 0.53701 0.56833 0.93914 0.0
C721 C 0.49569 0.5521 0.93937 0.0
C722 C 0.56318 0.54919 0.95344 0.0
C723 C 0.53733 0.61169 0.94145 0.0
C724 C 0.55374 0.62917 0.92684 0.0
C725 C 0.55385 0.6691 0.9252 0.0
C726 C 0.5364 0.69166 0.93871 0.0
C727 C 0.51885 0.67418 0.9536 0.0
C728 C 0.52015 0.63372 0.95509 0.0
H729 H 0.54323 0.94964 0.15509 0.0
H730 H 0.57995 0.068 0.1649 0.0
H731 H 0.55178 0.06684 0.19534 0.0
H732 H 0.45279 0.95587 0.17918 0.0
H733 H 0.45772 0.90792 0.18787 0.0
H734 H 0.4783 0.91936 0.16648 0.0
H735 H 0.5451 0.89589 0.17828 0.0
H736 H 0.52482 0.88475 0.19975 0.0
H737 H 0.56554 0.91683 0.19888 0.0
H738 H 0.52206 0.05136 0.22537 0.0
H739 H 0.49212 0.02343 0.25215 0.0
H740 H 0.47652 0.91491 0.22251 0.0
C741 C 0.54485 0.9756 0.16348 0.0
C742 C 0.56361 0.00902 0.15754 0.0
C743 C 0.56549 0.04214 0.1691 0.0
C744 C 0.54965 0.04173 0.18643 0.0
C745 C 0.53206 0.00799 0.19198 0.0
C746 C 0.52944 0.97561 0.18079 0.0
C747 C 0.51047 0.94248 0.19017 0.0
C748 C 0.47257 0.93073 0.18034 0.0
C749 C 0.53814 0.90796 0.19187 0.0
C750 C 0.50306 0.96114 0.20845 0.0
C751 C 0.51555 0.99896 0.20924 0.0
C752 C 0.51204 0.02183 0.22487 0.0
C753 C 0.49507 0.00567 0.24002 0.0
C754 C 0.48199 0.96696 0.23947 0.0
C755 C 0.48624 0.94455 0.22343 0.0
H756 H 0.08649 0.7715 0.88478 0.0
H757 H 0.01026 0.67574 0.87089 0.0
H758 H 0.03623 0.67314 0.84005 0.0
H759 H 0.08718 0.81547 0.83844 0.0
H760 H 0.13752 0.82756 0.84127 0.0
H761 H 0.10691 0.82728 0.86066 0.0
H762 H 0.1539 0.77967 0.87635 0.0
H763 H 0.18422 0.77913 0.85696 0.0
H764 H 0.16523 0.73455 0.8651 0.0
H765 H 0.07909 0.67311 0.81274 0.0
H766 H 0.13171 0.67909 0.79087 0.0
H767 H 0.17983 0.77413 0.82314 0.0
C768 C 0.07408 0.75094 0.87508 0.0
C769 C 0.0462 0.72396 0.88031 0.0
C770 C 0.03131 0.69705 0.86721 0.0
C771 C 0.04604 0.6952 0.84965 0.0
C772 C 0.07524 0.72074 0.84531 0.0
C773 C 0.08856 0.7486 0.85758 0.0
C774 C 0.12285 0.76991 0.8504 0.0
C775 C 0.11301 0.81258 0.84752 0.0
C776 C 0.15864 0.76552 0.86295 0.0
C777 C 0.12785 0.7486 0.83253 0.0
C778 C 0.09988 0.72068 0.82965 0.0
C779 C 0.1006 0.69548 0.81467 0.0
C780 C 0.1307 0.69896 0.80236 0.0
C781 C 0.15985 0.72715 0.80524 0.0
C782 C 0.15787 0.75248 0.82042 0.0
H783 H 0.52486 0.50511 0.1044 0.0
H784 H 0.41188 0.53053 0.12567 0.0
H785 H 0.3903 0.55304 0.09564 0.0
H786 H 0.53502 0.58511 0.08238 0.0
H787 H 0.55885 0.56647 0.06259 0.0
H788 H 0.56256 0.541 0.08341 0.0
H789 H 0.53578 0.47906 0.06815 0.0
H790 H 0.53286 0.50344 0.04684 0.0
H791 H 0.49073 0.48043 0.0555 0.0
H792 H 0.38538 0.58517 0.06595 0.0
H793 H 0.3971 0.62375 0.03903 0.0
H794 H 0.51407 0.57939 0.03719 0.0
C795 C 0.49502 0.51367 0.10255 0.0
C796 C 0.46995 0.51581 0.11736 0.0
C797 C 0.43148 0.52834 0.11449 0.0
C798 C 0.41895 0.5411 0.09745 0.0
C799 C 0.44511 0.5408 0.08338 0.0
C800 C 0.48223 0.52682 0.08567 0.0
C801 C 0.50645 0.53494 0.06936 0.0
C802 C 0.54281 0.55832 0.07477 0.0
C803 C 0.51707 0.49722 0.05937 0.0
C804 C 0.47814 0.55836 0.0582 0.0
C805 C 0.44255 0.56029 0.06624 0.0
C806 C 0.41283 0.58313 0.05932 0.0
C807 C 0.41986 0.60513 0.04406 0.0
C808 C 0.45654 0.60462 0.03598 0.0
C809 C 0.48561 0.58006 0.04291 0.0
H810 H 0.63729 0.94459 0.36399 0.0
H811 H 0.6065 0.86773 0.40688 0.0
H812 H 0.56508 0.83074 0.38527 0.0
H813 H 0.54994 0.95701 0.34788 0.0
H814 H 0.56017 0.95884 0.3241 0.0
H815 H 0.59698 0.9714 0.34062 0.0
H816 H 0.64283 0.91998 0.32707 0.0
H817 H 0.60636 0.90766 0.31012 0.0
H818 H 0.62675 0.87077 0.32427 0.0
H819 H 0.51526 0.81347 0.36204 0.0
H820 H 0.46374 0.81477 0.33855 0.0
H821 H 0.52539 0.9036 0.31063 0.0
C822 C 0.6234 0.91882 0.36865 0.0
C823 C 0.62514 0.90905 0.38714 0.0
C824 C 0.60578 0.87566 0.39277 0.0
C825 C 0.58218 0.85442 0.38056 0.0
C826 C 0.57866 0.86668 0.36273 0.0
C827 C 0.59936 0.89771 0.35668 0.0
C828 C 0.58575 0.90916 0.33789 0.0
C829 C 0.57241 0.95158 0.33764 0.0
C830 C 0.6173 0.90141 0.32402 0.0
C831 C 0.55224 0.88172 0.33491 0.0
C832 C 0.54928 0.85676 0.34917 0.0
C833 C 0.51793 0.83204 0.35056 0.0
C834 C 0.48861 0.83324 0.33721 0.0
C835 C 0.49064 0.85922 0.32272 0.0
C836 C 0.52342 0.88295 0.32135 0.0
H837 H 0.1885 0.02287 0.61857 0.0
H838 H 0.27702 0.10653 0.63374 0.0
H839 H 0.30214 0.10218 0.60258 0.0
H840 H 0.24468 0.9632 0.58942 0.0
H841 H 0.20536 0.95449 0.57347 0.0
H842 H 0.1956 0.9642 0.59695 0.0
H843 H 0.15083 0.02077 0.58768 0.0
H844 H 0.1609 0.01159 0.56417 0.0
H845 H 0.16951 0.05877 0.57413 0.0
H846 H 0.31831 0.08645 0.56962 0.0
H847 H 0.32441 0.06049 0.53832 0.0
H848 H 0.22227 0.99062 0.54518 0.0
C849 C 0.21345 0.04003 0.61547 0.0
C850 C 0.23113 0.06472 0.62863 0.0
C851 C 0.26324 0.08722 0.62386 0.0
C852 C 0.27756 0.08504 0.60621 0.0
C853 C 0.25903 0.06068 0.59349 0.0
C854 C 0.2276 0.03869 0.59795 0.0
C855 C 0.21232 0.01513 0.58191 0.0
C856 C 0.21466 0.97169 0.58566 0.0
C857 C 0.17095 0.02731 0.57667 0.0
C858 C 0.24053 0.02661 0.56773 0.0
C859 C 0.26727 0.05294 0.57457 0.0
C860 C 0.29728 0.06612 0.56409 0.0
C861 C 0.30045 0.0513 0.54632 0.0
C862 C 0.27365 0.02377 0.53922 0.0
C863 C 0.24292 0.01207 0.55004 0.0
H864 H 0.65772 0.40472 0.89681 0.0
H865 H 0.53637 0.3778 0.90203 0.0
H866 H 0.54622 0.3733 0.93526 0.0
H867 H 0.69579 0.34489 0.93329 0.0
H868 H 0.73145 0.38043 0.94006 0.0
H869 H 0.71524 0.37652 0.91675 0.0
H870 H 0.69682 0.449 0.91758 0.0
H871 H 0.71231 0.45303 0.94096 0.0
H872 H 0.66389 0.46668 0.93437 0.0
H873 H 0.56945 0.37617 0.96842 0.0
H874 H 0.60375 0.3851 0.99802 0.0
H875 H 0.70838 0.41369 0.97015 0.0
C876 C 0.63328 0.3969 0.90481 0.0
C877 C 0.59632 0.39122 0.89677 0.0
C878 C 0.56505 0.38183 0.90787 0.0
C879 C 0.57036 0.37938 0.92676 0.0
C880 C 0.60703 0.38654 0.93427 0.0
C881 C 0.63793 0.39492 0.92357 0.0
C882 C 0.6738 0.40419 0.93483 0.0
C883 C 0.70596 0.37474 0.93101 0.0
C884 C 0.68748 0.44568 0.93175 0.0
C885 C 0.65836 0.39995 0.95362 0.0
C886 C 0.6199 0.38949 0.9531 0.0
C887 C 0.5996 0.38422 0.96894 0.0
C888 C 0.61928 0.38945 0.98568 0.0
C889 C 0.65869 0.40026 0.98641 0.0
C890 C 0.6782 0.40567 0.9701 0.0
H891 H 0.70227 0.02755 0.1813 0.0
H892 H 0.77381 0.03766 0.13426 0.0
H893 H 0.81607 0.08329 0.15129 0.0
H894 H 0.69793 0.12008 0.19124 0.0
H895 H 0.69947 0.1177 0.2156 0.0
H896 H 0.68182 0.07734 0.20229 0.0
H897 H 0.73221 0.0324 0.21739 0.0
H898 H 0.74961 0.07254 0.23117 0.0
H899 H 0.78259 0.04512 0.21745 0.0
H900 H 0.84003 0.13863 0.17009 0.0
H901 H 0.84716 0.19591 0.19024 0.0
H902 H 0.75986 0.15063 0.22514 0.0
C903 C 0.72796 0.03777 0.17488 0.0
C904 C 0.73482 0.02896 0.15648 0.0
C905 C 0.76813 0.04384 0.14839 0.0
C906 C 0.79233 0.0698 0.15797 0.0
C907 C 0.78309 0.08018 0.17568 0.0
C908 C 0.75213 0.06401 0.18422 0.0
C909 C 0.74481 0.08419 0.20221 0.0
C910 C 0.70359 0.10081 0.20285 0.0
C911 C 0.7528 0.05694 0.21799 0.0
C912 C 0.77472 0.11585 0.20187 0.0
C913 C 0.79705 0.11255 0.18665 0.0
C914 C 0.82353 0.1409 0.18232 0.0
C915 C 0.82712 0.17351 0.19377 0.0
C916 C 0.80419 0.17763 0.20931 0.0
C917 C 0.77828 0.14797 0.21354 0.0
H918 H 0.06829 0.17977 0.41676 0.0
H919 H 0.14701 0.27342 0.40661 0.0
H920 H 0.13297 0.30216 0.4369 0.0
H921 H 0.99742 0.23343 0.43786 0.0
H922 H 0.9861 0.1972 0.45403 0.0
H923 H 0.00531 0.18314 0.43249 0.0
H924 H 0.06121 0.1468 0.44872 0.0
H925 H 0.04207 0.16074 0.47037 0.0
H926 H 0.09127 0.17215 0.46526 0.0
H927 H 0.10415 0.32329 0.46736 0.0
H928 H 0.0654 0.33374 0.49481 0.0
H929 H 0.00834 0.224 0.4843 0.0
C930 C 0.0829 0.2062 0.42092 0.0
C931 C 0.10846 0.22464 0.40935 0.0
C932 C 0.12732 0.2589 0.41535 0.0
C933 C 0.11951 0.27533 0.4325 0.0
C934 C 0.09346 0.2566 0.44347 0.0
C935 C 0.07589 0.22248 0.43791 0.0
C936 C 0.048 0.20838 0.45167 0.0
C937 C 0.00679 0.20539 0.44352 0.0
C938 C 0.06146 0.16973 0.45946 0.0
C939 C 0.05139 0.24057 0.46566 0.0
C940 C 0.07789 0.26807 0.46087 0.0
C941 C 0.08379 0.30162 0.47134 0.0
C942 C 0.06164 0.30732 0.4869 0.0
C943 C 0.0339 0.27964 0.49175 0.0
C944 C 0.02948 0.24562 0.4811 0.0
H945 H 0.02239 0.63241 0.66936 0.0
H946 H 0.90241 0.62468 0.6518 0.0
H947 H 0.88701 0.5924 0.68026 0.0
H948 H 0.0274 0.54035 0.68525 0.0
H949 H 0.06069 0.55172 0.7037 0.0
H950 H 0.05943 0.58087 0.68385 0.0
H951 H 0.04755 0.64181 0.70463 0.0
H952 H 0.04869 0.61146 0.72414 0.0
H953 H 0.00747 0.64184 0.7197 0.0
H954 H 0.88661 0.55247 0.70811 0.0
H955 H 0.90088 0.508 0.73297 0.0
H956 H 0.02194 0.53927 0.7317 0.0
C957 C 0.99255 0.62549 0.67184 0.0
C958 C 0.9634 0.6317 0.65852 0.0
C959 C 0.92503 0.62068 0.66195 0.0
C960 C 0.91606 0.60235 0.67808 0.0
C961 C 0.94582 0.5951 0.69059 0.0
C962 C 0.9833 0.60652 0.68769 0.0
C963 C 0.01089 0.59061 0.7019 0.0
C964 C 0.0414 0.56434 0.69316 0.0
C965 C 0.02976 0.62338 0.71327 0.0
C966 C 0.9833 0.56762 0.71299 0.0
C967 C 0.94582 0.57104 0.70641 0.0
C968 C 0.91574 0.55011 0.71356 0.0
C969 C 0.9242 0.52476 0.72765 0.0
C970 C 0.96255 0.52017 0.73436 0.0
C971 C 0.99228 0.54245 0.72707 0.0
H972 H 0.72821 0.10144 0.36608 0.0
H973 H 0.60314 0.10731 0.36536 0.0
H974 H 0.60472 0.14852 0.33843 0.0
H975 H 0.74499 0.19956 0.35224 0.0
H976 H 0.7857 0.18617 0.33873 0.0
H977 H 0.77437 0.1587 0.35832 0.0
H978 H 0.77113 0.09635 0.33835 0.0
H979 H 0.78225 0.12363 0.3187 0.0
H980 H 0.73927 0.09448 0.31871 0.0
H981 H 0.62044 0.18661 0.31056 0.0
H982 H 0.64881 0.21994 0.28479 0.0
H983 H 0.76344 0.18884 0.3044 0.0
C984 C 0.70108 0.11158 0.36039 0.0
C985 C 0.66552 0.10115 0.36782 0.0
C986 C 0.63073 0.11506 0.35992 0.0
C987 C 0.63135 0.13841 0.34462 0.0
C988 C 0.66698 0.1477 0.3375 0.0
C989 C 0.70119 0.13488 0.34522 0.0
C990 C 0.73567 0.14816 0.33486 0.0
C991 C 0.76171 0.17473 0.34674 0.0
C992 C 0.7584 0.11359 0.3272 0.0
C993 C 0.71557 0.17019 0.31994 0.0
C994 C 0.67597 0.16968 0.32166 0.0
C995 C 0.65141 0.1874 0.30916 0.0
C996 C 0.66781 0.20618 0.29455 0.0
C997 C 0.70836 0.2071 0.29259 0.0
C998 C 0.73236 0.18887 0.30554 0.0
H999 H 0.11558 0.13541 0.61034 0.0
H1000 H 0.04723 0.1203 0.65812 0.0
H1001 H 0.98918 0.14236 0.64112 0.0
H1002 H 0.07462 0.22098 0.59729 0.0
H1003 H 0.07609 0.21095 0.57327 0.0
H1004 H 0.11061 0.18874 0.5883 0.0
H1005 H 0.09006 0.12101 0.57612 0.0
H1006 H 0.05571 0.14305 0.56085 0.0
H1007 H 0.03997 0.10726 0.57638 0.0
H1008 H 0.94062 0.17357 0.61978 0.0
H1009 H 0.90537 0.20872 0.59576 0.0
H1010 H 0.0068 0.20296 0.56243 0.0
C1011 C 0.08827 0.13593 0.61716 0.0
C1012 C 0.08583 0.12615 0.63553 0.0
C1013 C 0.04962 0.1274 0.64399 0.0
C1014 C 0.01656 0.13995 0.63445 0.0
C1015 C 0.02029 0.15062 0.61648 0.0
C1016 C 0.05522 0.14826 0.60788 0.0
C1017 C 0.05251 0.16387 0.58896 0.0
C1018 C 0.08008 0.19816 0.58685 0.0
C1019 C 0.05999 0.13188 0.57474 0.0
C1020 C 0.01087 0.17662 0.5884 0.0
C1021 C 0.99255 0.16845 0.60429 0.0
C1022 C 0.95452 0.17959 0.60719 0.0
C1023 C 0.93479 0.19966 0.59349 0.0
C1024 C 0.95329 0.20856 0.57719 0.0
C1025 C 0.99169 0.19645 0.57466 0.0
H1026 H 0.06756 0.60828 0.86385 0.0
H1027 H 0.07918 0.53313 0.90985 0.0
H1028 H 0.06215 0.47711 0.89006 0.0
H1029 H 0.98483 0.56648 0.84658 0.0
H1030 H 0.99557 0.57179 0.82301 0.0
H1031 H 0.0161 0.60465 0.83972 0.0
H1032 H 0.08475 0.58797 0.82888 0.0
H1033 H 0.06439 0.55516 0.81199 0.0
H1034 H 0.10025 0.53833 0.82803 0.0
H1035 H 0.03512 0.43169 0.86678 0.0
H1036 H 0.00223 0.39838 0.84111 0.0
H1037 H 0.00598 0.50336 0.81015 0.0
C1038 C 0.06811 0.57981 0.86959 0.0
C1039 C 0.07529 0.57477 0.88829 0.0
C1040 C 0.07421 0.53736 0.8955 0.0
C1041 C 0.06456 0.50546 0.88437 0.0
C1042 C 0.05597 0.51162 0.86613 0.0
C1043 C 0.05791 0.54779 0.85873 0.0
C1044 C 0.04289 0.54731 0.83929 0.0
C1045 C 0.00777 0.57414 0.83703 0.0
C1046 C 0.075 0.5578 0.82628 0.0
C1047 C 0.03137 0.50539 0.83706 0.0
C1048 C 0.03951 0.48532 0.85266 0.0
C1049 C 0.0292 0.44688 0.85438 0.0
C1050 C 0.01024 0.42832 0.83973 0.0
C1051 C 0.00155 0.44823 0.82357 0.0
C1052 C 0.0125 0.48726 0.82224 0.0
H1053 H 0.6562 0.53111 0.15582 0.0
H1054 H 0.57314 0.60061 0.12611 0.0
H1055 H 0.60853 0.58802 0.09802 0.0
H1056 H 0.74264 0.5544 0.12751 0.0
H1057 H 0.76039 0.50577 0.12945 0.0
H1058 H 0.73397 0.52777 0.1477 0.0
H1059 H 0.68628 0.47036 0.14634 0.0
H1060 H 0.71179 0.44858 0.12787 0.0
H1061 H 0.66098 0.45869 0.12533 0.0
H1062 H 0.64295 0.55506 0.07236 0.0
H1063 H 0.68093 0.51305 0.05191 0.0
H1064 H 0.7416 0.46611 0.09854 0.0
C1065 C 0.64622 0.54491 0.14356 0.0
C1066 C 0.61188 0.56678 0.14317 0.0
C1067 C 0.59943 0.58377 0.12675 0.0
C1068 C 0.6192 0.57658 0.11069 0.0
C1069 C 0.65136 0.55251 0.1113 0.0
C1070 C 0.66539 0.53774 0.12741 0.0
C1071 C 0.69814 0.50976 0.12424 0.0
C1072 C 0.73604 0.52538 0.13273 0.0
C1073 C 0.6887 0.46949 0.13136 0.0
C1074 C 0.69905 0.50961 0.10379 0.0
C1075 C 0.67208 0.5346 0.09653 0.0
C1076 C 0.66502 0.53628 0.07788 0.0
C1077 C 0.68645 0.5121 0.06639 0.0
C1078 C 0.71452 0.48667 0.07362 0.0
C1079 C 0.72093 0.48581 0.09256 0.0
loop_
_geom_bond_atom_site_label_1
_geom_bond_atom_site_label_2
_geom_bond_distance
_geom_bond_site_symmetry_2
_ccdc_geom_bond_type
Mg0 O7 2.141 . S
Mg0 O8 2.048 . S
Mg0 O9 2.048 . S
Mg0 O12 2.141 . S
C1 O2 1.313 . S
C1 O8 1.195 . S
O2 C1 1.313 . S
C3 O4 1.245 . S
C3 O12 1.289 . S
O4 C3 1.245 . S
C5 O6 1.245 . S
C5 O7 1.289 . S
O6 C5 1.245 . S
O7 Mg0 2.141 . S
O7 C5 1.289 . S
O8 Mg0 2.048 . S
O8 C1 1.195 . S
O9 Mg0 2.048 . S
O9 C10 1.195 . S
C10 O9 1.195 . S
C10 O11 1.313 . S
O11 C10 1.313 . S
O12 Mg0 2.141 . S
O12 C3 1.289 . S
Mg13 O20 2.141 . S
Mg13 O21 2.048 . S
Mg13 O22 2.048 1_455 S
Mg13 O25 2.141 1_455 S
C14 O15 1.313 . S
C14 O21 1.195 . S
O15 C14 1.313 . S
C16 O17 1.245 . S
C16 O25 1.289 1_455 S
O17 C16 1.245 . S
C18 O19 1.245 . S
C18 O20 1.289 . S
O19 C18 1.245 . S
O20 Mg13 2.141 . S
O20 C18 1.289 . S
O21 Mg13 2.048 . S
O21 C14 1.195 . S
O22 Mg13 2.048 1_655 S
O22 C23 1.195 . S
C23 O22 1.195 . S
C23 O24 1.313 1_655 S
O24 C23 1.313 1_455 S
O25 Mg13 2.141 1_655 S
O25 C16 1.289 1_655 S
Mg26 O33 2.141 . S
Mg26 O34 2.048 . S
Mg26 O35 2.048 . S
Mg26 O38 2.141 . S
C27 O28 1.313 . S
C27 O34 1.195 . S
O28 C27 1.313 . S
C29 O30 1.245 . S
C29 O38 1.289 . S
O30 C29 1.245 . S
C31 O32 1.245 . S
C31 O33 1.289 . S
O32 C31 1.245 . S
O33 Mg26 2.141 . S
O33 C31 1.289 . S
O34 Mg26 2.048 . S
O34 C27 1.195 . S
O35 Mg26 2.048 . S
O35 C36 1.195 . S
C36 O35 1.195 . S
C36 O37 1.313 . S
O37 C36 1.313 . S
O38 Mg26 2.141 . S
O38 C29 1.289 . S
Mg39 O46 2.141 . S
Mg39 O47 2.048 . S
Mg39 O48 2.048 1_545 S
Mg39 O51 2.141 1_545 S
C40 O41 1.313 . S
C40 O47 1.195 . S
O41 C40 1.313 . S
C42 O43 1.245 . S
C42 O51 1.289 . S
O43 C42 1.245 . S
C44 O45 1.245 . S
C44 O46 1.289 . S
O45 C44 1.245 . S
O46 Mg39 2.141 . S
O46 C44 1.289 . S
O47 Mg39 2.048 . S
O47 C40 1.195 . S
O48 Mg39 2.048 1_565 S
O48 C49 1.195 . S
C49 O48 1.195 . S
C49 O50 1.313 . S
O50 C49 1.313 . S
O51 Mg39 2.141 1_565 S
O51 C42 1.289 . S
Mg52 O59 2.141 . S
Mg52 O60 2.048 . S
Mg52 O61 2.048 1_455 S
Mg52 O64 2.141 1_455 S
C53 O54 1.313 . S
C53 O60 1.195 . S
O54 C53 1.313 . S
C55 O56 1.245 . S
C55 O64 1.289 . S
O56 C55 1.245 . S
C57 O58 1.245 . S
C57 O59 1.289 . S
O58 C57 1.245 . S
O59 Mg52 2.141 . S
O59 C57 1.289 . S
O60 Mg52 2.048 . S
O60 C53 1.195 . S
O61 Mg52 2.048 1_655 S
O61 C62 1.195 . S
C62 O61 1.195 . S
C62 O63 1.313 . S
O63 C62 1.313 . S
O64 Mg52 2.141 1_655 S
O64 C55 1.289 . S
Mg65 O72 2.141 . S
Mg65 O73 2.048 . S
Mg65 O74 2.048 . S
Mg65 O77 2.141 . S
C66 O67 1.313 . S
C66 O73 1.195 . S
O67 C66 1.313 . S
C68 O69 1.245 . S
C68 O77 1.289 . S
O69 C68 1.245 . S
C70 O71 1.245 . S
C70 O72 1.289 . S
O71 C70 1.245 . S
O72 Mg65 2.141 . S
O72 C70 1.289 . S
O73 Mg65 2.048 . S
O73 C66 1.195 . S
O74 Mg65 2.048 . S
O74 C75 1.195 . S
C75 O74 1.195 . S
C75 O76 1.313 . S
O76 C75 1.313 . S
O77 Mg65 2.141 . S
O77 C68 1.289 . S
Mg78 O85 2.141 1_565 S
Mg78 O86 2.048 1_565 S
Mg78 O87 2.048 . S
Mg78 O90 2.141 . S
C79 O80 1.313 . S
C79 O86 1.195 . S
O80 C79 1.313 . S
C81 O82 1.245 1_565 S
C81 O90 1.289 . S
O82 C81 1.245 1_545 S
C83 O84 1.245 . S
C83 O85 1.289 . S
O84 C83 1.245 . S
O85 Mg78 2.141 1_545 S
O85 C83 1.289 . S
O86 Mg78 2.048 1_545 S
O86 C79 1.195 . S
O87 Mg78 2.048 . S
O87 C88 1.195 . S
C88 O87 1.195 . S
C88 O89 1.293 1_565 S
O89 C88 1.293 1_545 S
O90 Mg78 2.141 . S
O90 C81 1.289 . S
Mg91 O98 2.141 . S
Mg91 O99 2.048 . S
Mg91 O100 2.048 . S
Mg91 O103 2.141 . S
C92 O93 1.313 . S
C92 O99 1.195 . S
O93 C92 1.313 . S
C94 O95 1.245 . S
C94 O103 1.289 . S
O95 C94 1.245 . S
C96 O97 1.245 . S
C96 O98 1.289 . S
O97 C96 1.245 . S
O98 Mg91 2.141 . S
O98 C96 1.289 . S
O99 Mg91 2.048 . S
O99 C92 1.195 . S
O100 Mg91 2.048 . S
O100 C101 1.195 . S
C101 O100 1.195 . S
C101 O102 1.313 . S
O102 C101 1.313 . S
O103 Mg91 2.141 . S
O103 C94 1.289 . S
Zn104 O107 2.031 . S
Zn104 O109 2.049 1_556 S
Zn104 O114 2.067 . S
Zn105 O106 1.962 . S
Zn105 O108 1.986 . S
Zn105 O110 1.996 . S
Zn105 O113 1.943 . S
O106 Zn105 1.962 . S
O106 C111 1.254 . S
O107 Zn104 2.031 . S
O107 C111 1.269 1_556 S
O108 Zn105 1.986 . S
O108 C115 1.262 . S
O109 Zn104 2.049 1_554 S
O109 C117 1.260 . S
O110 Zn105 1.996 . S
O110 C117 1.257 . S
C111 O106 1.254 . S
C111 O107 1.269 1_554 S
C112 O113 1.249 1_556 S
C112 O114 1.270 . S
O113 Zn105 1.943 . S
O113 C112 1.249 1_554 S
O114 Zn104 2.067 . S
O114 C112 1.270 . S
C115 O108 1.262 . S
C115 O116 1.232 . S
O116 C115 1.232 . S
C117 O109 1.260 . S
C117 O110 1.257 . S
Zn118 O121 2.031 . S
Zn118 O123 2.049 . S
Zn118 O128 2.067 . S
Zn119 O120 1.962 . S
Zn119 O122 1.986 . S
Zn119 O124 1.996 . S
Zn119 O127 1.943 . S
O120 Zn119 1.962 . S
O120 C125 1.254 . S
O121 Zn118 2.031 . S
O121 C125 1.269 . S
O122 Zn119 1.986 . S
O122 C129 1.262 . S
O123 Zn118 2.049 . S
O123 C131 1.260 . S
O124 Zn119 1.996 . S
O124 C131 1.257 . S
C125 O120 1.254 . S
C125 O121 1.269 . S
C126 O127 1.249 . S
C126 O128 1.270 . S
O127 Zn119 1.943 . S
O127 C126 1.249 . S
O128 Zn118 2.067 . S
O128 C126 1.270 . S
C129 O122 1.262 . S
C129 O130 1.232 . S
O130 C129 1.232 . S
C131 O123 1.260 . S
C131 O124 1.257 . S
Zn132 O135 2.031 . S
Zn132 O137 2.049 . S
Zn132 O142 2.067 . S
Zn133 O134 1.962 . S
Zn133 O136 1.986 . S
Zn133 O138 1.996 . S
Zn133 O141 1.943 . S
O134 Zn133 1.962 . S
O134 C139 1.254 . S
O135 Zn132 2.031 . S
O135 C139 1.269 . S
O136 Zn133 1.986 . S
O136 C143 1.262 . S
O137 Zn132 2.049 . S
O137 C145 1.260 . S
O138 Zn133 1.996 . S
O138 C145 1.257 . S
C139 O134 1.254 . S
C139 O135 1.269 . S
C140 O141 1.249 . S
C140 O142 1.270 . S
O141 Zn133 1.943 . S
O141 C140 1.249 . S
O142 Zn132 2.067 . S
O142 C140 1.270 . S
C143 O136 1.262 . S
C143 O144 1.240 . S
O144 C143 1.240 . S
C145 O137 1.260 . S
C145 O138 1.257 . S
Zn146 O149 2.031 . S
Zn146 O151 2.049 . S
Zn146 O156 2.067 . S
Zn147 O148 1.962 . S
Zn147 O150 1.986 . S
Zn147 O152 1.996 . S
Zn147 O155 1.943 . S
O148 Zn147 1.962 . S
O148 C153 1.254 . S
O149 Zn146 2.031 . S
O149 C153 1.269 . S
O150 Zn147 1.986 . S
O150 C157 1.262 . S
O151 Zn146 2.049 . S
O151 C159 1.260 . S
O152 Zn147 1.996 . S
O152 C159 1.257 . S
C153 O148 1.254 . S
C153 O149 1.269 . S
C154 O155 1.249 . S
C154 O156 1.270 . S
O155 Zn147 1.943 . S
O155 C154 1.249 . S
O156 Zn146 2.067 . S
O156 C154 1.270 . S
C157 O150 1.262 . S
C157 O158 1.232 . S
O158 C157 1.232 . S
C159 O151 1.260 . S
C159 O152 1.257 . S
Zn160 O163 2.031 . S
Zn160 O165 2.049 . S
Zn160 O170 2.067 . S
Zn161 O162 1.962 . S
Zn161 O164 1.986 . S
Zn161 O166 1.996 . S
Zn161 O169 1.943 . S
O162 Zn161 1.962 . S
O162 C167 1.254 . S
O163 Zn160 2.031 . S
O163 C167 1.269 . S
O164 Zn161 1.986 . S
O164 C171 1.262 1_655 S
O165 Zn160 2.049 . S
O165 C173 1.260 . S
O166 Zn161 1.996 . S
O166 C173 1.257 . S
C167 O162 1.254 . S
C167 O163 1.269 . S
C168 O169 1.249 . S
C168 O170 1.270 . S
O169 Zn161 1.943 . S
O169 C168 1.249 . S
O170 Zn160 2.067 . S
O170 C168 1.270 . S
C171 O164 1.262 1_455 S
C171 O172 1.232 . S
O172 C171 1.232 . S
C173 O165 1.260 . S
C173 O166 1.257 . S
Zn174 O177 2.031 . S
Zn174 O179 2.049 . S
Zn174 O184 2.067 . S
Zn175 O176 1.962 . S
Zn175 O178 1.986 . S
Zn175 O180 1.996 . S
Zn175 O183 1.943 . S
O176 Zn175 1.962 . S
O176 C181 1.254 . S
O177 Zn174 2.031 . S
O177 C181 1.269 . S
O178 Zn175 1.986 . S
O178 C185 1.262 . S
O179 Zn174 2.049 . S
O179 C187 1.260 . S
O180 Zn175 1.996 . S
O180 C187 1.257 . S
C181 O176 1.254 . S
C181 O177 1.269 . S
C182 O183 1.249 . S
C182 O184 1.270 . S
O183 Zn175 1.943 . S
O183 C182 1.249 . S
O184 Zn174 2.067 . S
O184 C182 1.270 . S
C185 O178 1.262 . S
C185 O186 1.232 . S
O186 C185 1.232 . S
C187 O179 1.260 . S
C187 O180 1.257 . S
Zn188 O191 2.031 . S
Zn188 O193 2.049 . S
Zn188 O198 2.067 . S
Zn189 O190 1.962 . S
Zn189 O192 1.986 . S
Zn189 O194 1.996 . S
Zn189 O197 1.943 1_556 S
O190 Zn189 1.962 . S
O190 C195 1.254 1_556 S
O191 Zn188 2.031 . S
O191 C195 1.269 . S
O192 Zn189 1.986 . S
O192 C199 1.262 . S
O193 Zn188 2.049 . S
O193 C201 1.260 . S
O194 Zn189 1.996 . S
O194 C201 1.257 1_556 S
C195 O190 1.254 1_554 S
C195 O191 1.269 . S
C196 O197 1.249 . S
C196 O198 1.270 . S
O197 Zn189 1.943 1_554 S
O197 C196 1.249 . S
O198 Zn188 2.067 . S
O198 C196 1.270 . S
C199 O192 1.262 . S
C199 O200 1.232 . S
O200 C199 1.232 . S
C201 O193 1.260 . S
C201 O194 1.257 1_554 S
Zn202 O205 2.031 . S
Zn202 O207 2.049 . S
Zn202 O212 2.067 . S
Zn203 O204 1.962 . S
Zn203 O206 1.986 . S
Zn203 O208 1.996 . S
Zn203 O211 1.943 . S
O204 Zn203 1.962 . S
O204 C209 1.254 . S
O205 Zn202 2.031 . S
O205 C209 1.269 . S
O206 Zn203 1.986 . S
O206 C213 1.262 . S
O207 Zn202 2.049 . S
O207 C215 1.260 . S
O208 Zn203 1.996 . S
O208 C215 1.257 . S
C209 O204 1.254 . S
C209 O205 1.269 . S
C210 O211 1.249 . S
C210 O212 1.270 . S
O211 Zn203 1.943 . S
O211 C210 1.249 . S
O212 Zn202 2.067 . S
O212 C210 1.270 . S
C213 O206 1.262 . S
C213 O214 1.232 . S
O214 C213 1.232 . S
C215 O207 1.260 . S
C215 O208 1.257 . S
H216 C228 0.930 . S
H217 C230 0.930 . S
H218 C231 0.930 . S
H219 C235 0.959 . S
H220 C235 0.959 . S
H221 C235 0.961 . S
H222 C236 0.960 . S
H223 C236 0.961 . S
H224 C236 0.959 . S
H225 C239 0.929 . S
H226 C240 0.931 . S
H227 C242 0.930 . S
C228 H216 0.930 . S
C228 C229 1.399 . S
C228 C233 1.399 . S
C229 C228 1.399 . S
C229 C230 1.376 . S
C230 H217 0.930 . S
C230 C229 1.376 . S
C230 C231 1.388 . S
C231 H218 0.930 . S
C231 C230 1.388 . S
C231 C232 1.378 1_545 S
C232 C231 1.378 1_565 S
C232 C233 1.393 1_565 S
C232 C238 1.479 . S
C233 C228 1.399 . S
C233 C232 1.393 1_545 S
C233 C234 1.516 1_545 S
C234 C233 1.516 1_565 S
C234 C235 1.502 . S
C234 C236 1.561 . S
C234 C237 1.526 . S
C235 H219 0.959 . S
C235 H220 0.959 . S
C235 H221 0.961 . S
C235 C234 1.502 . S
C236 H222 0.960 . S
C236 H223 0.961 . S
C236 H224 0.959 . S
C236 C234 1.561 . S
C237 C234 1.526 . S
C237 C238 1.396 . S
C237 C242 1.390 . S
C238 C232 1.479 . S
C238 C237 1.396 . S
C238 C239 1.399 . S
C239 H225 0.929 . S
C239 C238 1.399 . S
C239 C240 1.385 . S
C240 H226 0.931 . S
C240 C239 1.385 . S
C240 C241 1.389 . S
C241 C240 1.389 . S
C241 C242 1.387 . S
C242 H227 0.930 . S
C242 C237 1.390 . S
C242 C241 1.387 . S
H243 C255 0.930 . S
H244 C257 0.930 . S
H245 C258 0.930 . S
H246 C262 0.959 . S
H247 C262 0.959 . S
H248 C262 0.961 . S
H249 C263 0.960 . S
H250 C263 0.961 . S
H251 C263 0.959 . S
H252 C266 0.929 . S
H253 C267 0.931 . S
H254 C269 0.930 . S
C255 H243 0.930 . S
C255 C256 1.399 . S
C255 C260 1.399 . S
C256 C255 1.399 . S
C256 C257 1.376 . S
C257 H244 0.930 . S
C257 C256 1.376 . S
C257 C258 1.388 . S
C258 H245 0.930 . S
C258 C257 1.388 . S
C258 C259 1.390 . S
C259 C258 1.390 . S
C259 C260 1.394 . S
C259 C265 1.465 . S
C260 C255 1.399 . S
C260 C259 1.394 . S
C260 C261 1.516 . S
C261 C260 1.516 . S
C261 C262 1.502 . S
C261 C263 1.561 . S
C261 C264 1.526 . S
C262 H246 0.959 . S
C262 H247 0.959 . S
C262 H248 0.961 . S
C262 C261 1.502 . S
C263 H249 0.960 . S
C263 H250 0.961 . S
C263 H251 0.959 . S
C263 C261 1.561 . S
C264 C261 1.526 . S
C264 C265 1.396 . S
C264 C269 1.390 . S
C265 C259 1.465 . S
C265 C264 1.396 . S
C265 C266 1.399 . S
C266 H252 0.929 . S
C266 C265 1.399 . S
C266 C267 1.385 . S
C267 H253 0.931 . S
C267 C266 1.385 . S
C267 C268 1.389 . S
C268 C267 1.389 . S
C268 C269 1.387 . S
C269 H254 0.930 . S
C269 C264 1.390 . S
C269 C268 1.387 . S
H270 C282 0.930 . S
H271 C284 0.930 . S
H272 C285 0.930 . S
H273 C289 0.959 . S
H274 C289 0.959 . S
H275 C289 0.961 . S
H276 C290 0.960 . S
H277 C290 0.961 . S
H278 C290 0.959 . S
H279 C293 0.929 . S
H280 C294 0.931 . S
H281 C296 0.930 . S
C282 H270 0.930 . S
C282 C283 1.399 . S
C282 C287 1.399 . S
C283 C282 1.399 . S
C283 C284 1.376 . S
C284 H271 0.930 . S
C284 C283 1.376 . S
C284 C285 1.388 . S
C285 H272 0.930 . S
C285 C284 1.388 . S
C285 C286 1.390 . S
C286 C285 1.390 . S
C286 C287 1.394 . S
C286 C292 1.465 . S
C287 C282 1.399 . S
C287 C286 1.394 . S
C287 C288 1.516 . S
C288 C287 1.516 . S
C288 C289 1.502 . S
C288 C290 1.561 . S
C288 C291 1.526 . S
C289 H273 0.959 . S
C289 H274 0.959 . S
C289 H275 0.961 . S
C289 C288 1.502 . S
C290 H276 0.960 . S
C290 H277 0.961 . S
C290 H278 0.959 . S
C290 C288 1.561 . S
C291 C288 1.526 . S
C291 C292 1.396 . S
C291 C296 1.390 . S
C292 C286 1.465 . S
C292 C291 1.396 . S
C292 C293 1.399 . S
C293 H279 0.929 . S
C293 C292 1.399 . S
C293 C294 1.385 . S
C294 H280 0.931 . S
C294 C293 1.385 . S
C294 C295 1.389 . S
C295 C294 1.389 . S
C295 C296 1.387 . S
C296 H281 0.930 . S
C296 C291 1.390 . S
C296 C295 1.387 . S
H297 C309 0.930 . S
H298 C311 0.930 . S
H299 C312 0.930 . S
H300 C316 0.959 . S
H301 C316 0.959 . S
H302 C316 0.961 . S
H303 C317 0.960 . S
H304 C317 0.961 . S
H305 C317 0.959 . S
H306 C320 0.929 . S
H307 C321 0.931 . S
H308 C323 0.930 . S
C309 H297 0.930 . S
C309 C310 1.399 . S
C309 C314 1.399 . S
C310 C309 1.399 . S
C310 C311 1.376 . S
C311 H298 0.930 . S
C311 C310 1.376 . S
C311 C312 1.388 . S
C312 H299 0.930 . S
C312 C311 1.388 . S
C312 C313 1.390 . S
C313 C312 1.390 . S
C313 C314 1.394 . S
C313 C319 1.465 . S
C314 C309 1.399 . S
C314 C313 1.394 . S
C314 C315 1.516 . S
C315 C314 1.516 . S
C315 C316 1.502 . S
C315 C317 1.561 . S
C315 C318 1.526 . S
C316 H300 0.959 . S
C316 H301 0.959 . S
C316 H302 0.961 . S
C316 C315 1.502 . S
C317 H303 0.960 . S
C317 H304 0.961 . S
C317 H305 0.959 . S
C317 C315 1.561 . S
C318 C315 1.526 . S
C318 C319 1.396 . S
C318 C323 1.390 . S
C319 C313 1.465 . S
C319 C318 1.396 . S
C319 C320 1.399 . S
C320 H306 0.929 . S
C320 C319 1.399 . S
C320 C321 1.385 . S
C321 H307 0.931 . S
C321 C320 1.385 . S
C321 C322 1.389 . S
C322 C321 1.389 . S
C322 C323 1.387 . S
C323 H308 0.930 . S
C323 C318 1.390 . S
C323 C322 1.387 . S
H324 C336 0.930 . S
H325 C338 0.930 . S
H326 C339 0.930 . S
H327 C343 0.959 . S
H328 C343 0.959 . S
H329 C343 0.961 . S
H330 C344 0.960 . S
H331 C344 0.961 . S
H332 C344 0.959 . S
H333 C347 0.929 . S
H334 C348 0.931 . S
H335 C350 0.930 . S
C336 H324 0.930 . S
C336 C337 1.399 . S
C336 C341 1.399 . S
C337 C336 1.399 . S
C337 C338 1.376 . S
C338 H325 0.930 . S
C338 C337 1.376 . S
C338 C339 1.388 . S
C339 H326 0.930 . S
C339 C338 1.388 . S
C339 C340 1.390 . S
C340 C339 1.390 . S
C340 C341 1.394 . S
C340 C346 1.465 . S
C341 C336 1.399 . S
C341 C340 1.394 . S
C341 C342 1.516 1_556 S
C342 C341 1.516 1_554 S
C342 C343 1.502 . S
C342 C344 1.561 . S
C342 C345 1.526 . S
C343 H327 0.959 . S
C343 H328 0.959 . S
C343 H329 0.961 . S
C343 C342 1.502 . S
C344 H330 0.960 . S
C344 H331 0.961 . S
C344 H332 0.959 . S
C344 C342 1.561 . S
C345 C342 1.526 . S
C345 C346 1.396 1_554 S
C345 C350 1.390 . S
C346 C340 1.465 . S
C346 C345 1.396 1_556 S
C346 C347 1.399 . S
C347 H333 0.929 . S
C347 C346 1.399 . S
C347 C348 1.385 . S
C348 H334 0.931 . S
C348 C347 1.385 . S
C348 C349 1.389 1_556 S
C349 C348 1.389 1_554 S
C349 C350 1.387 . S
C350 H335 0.930 . S
C350 C345 1.390 . S
C350 C349 1.387 . S
H351 C363 0.930 . S
H352 C365 0.930 . S
H353 C366 0.930 . S
H354 C370 0.959 . S
H355 C370 0.959 . S
H356 C370 0.961 . S
H357 C371 0.960 . S
H358 C371 0.961 . S
H359 C371 0.959 . S
H360 C374 0.929 . S
H361 C375 0.931 . S
H362 C377 0.930 . S
C363 H351 0.930 . S
C363 C364 1.399 . S
C363 C368 1.399 . S
C364 C363 1.399 . S
C364 C365 1.376 . S
C365 H352 0.930 . S
C365 C364 1.376 . S
C365 C366 1.388 . S
C366 H353 0.930 . S
C366 C365 1.388 . S
C366 C367 1.390 . S
C367 C366 1.390 . S
C367 C368 1.394 . S
C367 C373 1.465 . S
C368 C363 1.399 . S
C368 C367 1.394 . S
C368 C369 1.516 . S
C369 C368 1.516 . S
C369 C370 1.502 . S
C369 C371 1.561 . S
C369 C372 1.526 . S
C370 H354 0.959 . S
C370 H355 0.959 . S
C370 H356 0.961 . S
C370 C369 1.502 . S
C371 H357 0.960 . S
C371 H358 0.961 . S
C371 H359 0.959 . S
C371 C369 1.561 . S
C372 C369 1.526 . S
C372 C373 1.396 . S
C372 C377 1.390 . S
C373 C367 1.465 . S
C373 C372 1.396 . S
C373 C374 1.399 . S
C374 H360 0.929 . S
C374 C373 1.399 . S
C374 C375 1.385 . S
C375 H361 0.931 . S
C375 C374 1.385 . S
C375 C376 1.389 . S
C376 C375 1.389 . S
C376 C377 1.387 . S
C377 H362 0.930 . S
C377 C372 1.390 . S
C377 C376 1.387 . S
H378 C390 0.930 . S
H379 C392 0.930 1_545 S
H380 C393 0.930 1_545 S
H381 C397 0.959 . S
H382 C397 0.959 . S
H383 C397 0.961 . S
H384 C398 0.960 . S
H385 C398 0.961 . S
H386 C398 0.959 . S
H387 C401 0.925 1_545 S
H388 C402 0.931 . S
H389 C404 0.930 . S
C390 H378 0.930 . S
C390 C391 1.399 . S
C390 C395 1.399 . S
C391 C390 1.399 . S
C391 C392 1.376 . S
C392 H379 0.930 1_565 S
C392 C391 1.376 . S
C392 C393 1.388 . S
C393 H380 0.930 1_565 S
C393 C392 1.388 . S
C393 C394 1.390 . S
C394 C393 1.390 . S
C394 C395 1.394 . S
C394 C400 1.465 . S
C395 C390 1.399 . S
C395 C394 1.394 . S
C395 C396 1.516 . S
C396 C395 1.516 . S
C396 C397 1.502 . S
C396 C398 1.561 . S
C396 C399 1.526 . S
C397 H381 0.959 . S
C397 H382 0.959 . S
C397 H383 0.961 . S
C397 C396 1.502 . S
C398 H384 0.960 . S
C398 H385 0.961 . S
C398 H386 0.959 . S
C398 C396 1.561 . S
C399 C396 1.526 . S
C399 C400 1.396 . S
C399 C404 1.390 . S
C400 C394 1.465 . S
C400 C399 1.396 . S
C400 C401 1.399 . S
C401 H387 0.925 1_565 S
C401 C400 1.399 . S
C401 C402 1.385 . S
C402 H388 0.931 . S
C402 C401 1.385 . S
C402 C403 1.389 . S
C403 C402 1.389 . S
C403 C404 1.387 . S
C404 H389 0.930 . S
C404 C399 1.390 . S
C404 C403 1.387 . S
H405 C417 0.930 . S
H406 C419 0.930 . S
H407 C420 0.930 . S
H408 C424 0.959 . S
H409 C424 0.959 . S
H410 C424 0.961 . S
H411 C425 0.960 . S
H412 C425 0.961 . S
H413 C425 0.959 . S
H414 C428 0.929 . S
H415 C429 0.931 . S
H416 C431 0.930 . S
C417 H405 0.930 . S
C417 C418 1.399 . S
C417 C422 1.399 . S
C418 C417 1.399 . S
C418 C419 1.376 . S
C419 H406 0.930 . S
C419 C418 1.376 . S
C419 C420 1.388 . S
C420 H407 0.930 . S
C420 C419 1.388 . S
C420 C421 1.390 . S
C421 C420 1.390 . S
C421 C422 1.394 . S
C421 C427 1.465 1_545 S
C422 C417 1.399 . S
C422 C421 1.394 . S
C422 C423 1.516 . S
C423 C422 1.516 . S
C423 C424 1.502 . S
C423 C425 1.561 . S
C423 C426 1.526 1_545 S
C424 H408 0.959 . S
C424 H409 0.959 . S
C424 H410 0.961 . S
C424 C423 1.502 . S
C425 H411 0.960 . S
C425 H412 0.961 . S
C425 H413 0.959 . S
C425 C423 1.561 . S
C426 C423 1.526 1_565 S
C426 C427 1.396 . S
C426 C431 1.390 . S
C427 C421 1.465 1_565 S
C427 C426 1.396 . S
C427 C428 1.399 . S
C428 H414 0.929 . S
C428 C427 1.399 . S
C428 C429 1.385 . S
C429 H415 0.931 . S
C429 C428 1.385 . S
C429 C430 1.389 . S
C430 C429 1.389 . S
C430 C431 1.387 . S
C431 H416 0.930 . S
C431 C426 1.390 . S
C431 C430 1.387 . S
H432 C444 0.930 . S
H433 C446 0.930 . S
H434 C447 0.930 . S
H435 C451 0.959 . S
H436 C451 0.959 . S
H437 C451 0.961 . S
H438 C452 0.960 . S
H439 C452 0.961 . S
H440 C452 0.959 . S
H441 C455 0.929 . S
H442 C456 0.931 . S
H443 C458 0.930 . S
C444 H432 0.930 . S
C444 C445 1.399 . S
C444 C449 1.399 . S
C445 C444 1.399 . S
C445 C446 1.376 . S
C446 H433 0.930 . S
C446 C445 1.376 . S
C446 C447 1.388 . S
C447 H434 0.930 . S
C447 C446 1.388 . S
C447 C448 1.390 . S
C448 C447 1.390 . S
C448 C449 1.394 . S
C448 C454 1.465 . S
C449 C444 1.399 . S
C449 C448 1.394 . S
C449 C450 1.516 . S
C450 C449 1.516 . S
C450 C451 1.502 . S
C450 C452 1.561 . S
C450 C453 1.526 . S
C451 H435 0.959 . S
C451 H436 0.959 . S
C451 H437 0.961 . S
C451 C450 1.502 . S
C452 H438 0.960 . S
C452 H439 0.961 . S
C452 H440 0.959 . S
C452 C450 1.561 . S
C453 C450 1.526 . S
C453 C454 1.396 . S
C453 C458 1.390 . S
C454 C448 1.465 . S
C454 C453 1.396 . S
C454 C455 1.399 . S
C455 H441 0.929 . S
C455 C454 1.399 . S
C455 C456 1.385 . S
C456 H442 0.931 . S
C456 C455 1.385 . S
C456 C457 1.389 . S
C457 C456 1.389 . S
C457 C458 1.387 . S
C458 H443 0.930 . S
C458 C453 1.390 . S
C458 C457 1.387 . S
H459 C471 0.930 . S
H460 C473 0.930 . S
H461 C474 0.930 . S
H462 C478 0.959 . S
H463 C478 0.959 . S
H464 C478 0.961 . S
H465 C479 0.960 . S
H466 C479 0.961 . S
H467 C479 0.959 . S
H468 C482 0.929 . S
H469 C483 0.931 . S
H470 C485 0.930 . S
C471 H459 0.930 . S
C471 C472 1.399 . S
C471 C476 1.399 . S
C472 C471 1.399 . S
C472 C473 1.376 . S
C473 H460 0.930 . S
C473 C472 1.376 . S
C473 C474 1.388 . S
C474 H461 0.930 . S
C474 C473 1.388 . S
C474 C475 1.390 . S
C475 C474 1.390 . S
C475 C476 1.394 . S
C475 C481 1.465 . S
C476 C471 1.399 . S
C476 C475 1.394 . S
C476 C477 1.516 . S
C477 C476 1.516 . S
C477 C478 1.502 . S
C477 C479 1.561 . S
C477 C480 1.526 . S
C478 H462 0.959 . S
C478 H463 0.959 . S
C478 H464 0.961 . S
C478 C477 1.502 . S
C479 H465 0.960 . S
C479 H466 0.961 . S
C479 H467 0.959 . S
C479 C477 1.561 . S
C480 C477 1.526 . S
C480 C481 1.396 . S
C480 C485 1.390 . S
C481 C475 1.465 . S
C481 C480 1.396 . S
C481 C482 1.399 . S
C482 H468 0.929 . S
C482 C481 1.399 . S
C482 C483 1.385 . S
C483 H469 0.931 . S
C483 C482 1.385 . S
C483 C484 1.389 . S
C484 C483 1.389 . S
C484 C485 1.387 . S
C485 H470 0.930 . S
C485 C480 1.390 . S
C485 C484 1.387 . S
H486 C498 0.930 . S
H487 C500 0.930 . S
H488 C501 0.930 . S
H489 C505 0.959 1_655 S
H490 C505 0.959 1_655 S
H491 C505 0.961 . S
H492 C506 0.960 . S
H493 C506 0.961 . S
H494 C506 0.959 . S
H495 C509 0.943 . S
H496 C510 0.931 . S
H497 C512 0.930 . S
C498 H486 0.930 . S
C498 C499 1.399 . S
C498 C503 1.399 . S
C499 C498 1.399 . S
C499 C500 1.376 . S
C500 H487 0.930 . S
C500 C499 1.376 . S
C500 C501 1.388 . S
C501 H488 0.930 . S
C501 C500 1.388 . S
C501 C502 1.390 . S
C502 C501 1.390 . S
C502 C503 1.394 . S
C502 C508 1.465 . S
C503 C498 1.399 . S
C503 C502 1.394 . S
C503 C504 1.516 . S
C504 C503 1.516 . S
C504 C505 1.502 . S
C504 C506 1.561 . S
C504 C507 1.526 . S
C505 H489 0.959 1_455 S
C505 H490 0.959 1_455 S
C505 H491 0.961 . S
C505 C504 1.502 . S
C506 H492 0.960 . S
C506 H493 0.961 . S
C506 H494 0.959 . S
C506 C504 1.561 . S
C507 C504 1.526 . S
C507 C508 1.396 . S
C507 C512 1.390 1_455 S
C508 C502 1.465 . S
C508 C507 1.396 . S
C508 C509 1.411 . S
C509 H495 0.943 . S
C509 C508 1.411 . S
C509 C510 1.360 1_455 S
C510 H496 0.931 . S
C510 C509 1.360 1_655 S
C510 C511 1.389 . S
C511 C510 1.389 . S
C511 C512 1.387 . S
C512 H497 0.930 . S
C512 C507 1.390 1_655 S
C512 C511 1.387 . S
H513 C525 0.930 . S
H514 C527 0.930 . S
H515 C528 0.930 . S
H516 C532 0.959 . S
H517 C532 0.959 . S
H518 C532 0.961 . S
H519 C533 0.960 . S
H520 C533 0.961 . S
H521 C533 0.959 1_655 S
H522 C536 0.929 . S
H523 C537 0.931 . S
H524 C539 0.930 1_455 S
C525 H513 0.930 . S
C525 C526 1.399 1_455 S
C525 C530 1.399 1_455 S
C526 C525 1.399 1_655 S
C526 C527 1.376 . S
C527 H514 0.930 . S
C527 C526 1.376 . S
C527 C528 1.388 . S
C528 H515 0.930 . S
C528 C527 1.388 . S
C528 C529 1.390 . S
C529 C528 1.390 . S
C529 C530 1.394 . S
C529 C535 1.465 . S
C530 C525 1.399 1_655 S
C530 C529 1.394 . S
C530 C531 1.516 1_655 S
C531 C530 1.516 1_455 S
C531 C532 1.502 . S
C531 C533 1.561 . S
C531 C534 1.526 1_455 S
C532 H516 0.959 . S
C532 H517 0.959 . S
C532 H518 0.961 . S
C532 C531 1.502 . S
C533 H519 0.960 . S
C533 H520 0.961 . S
C533 H521 0.959 1_455 S
C533 C531 1.561 . S
C534 C531 1.526 1_655 S
C534 C535 1.396 . S
C534 C539 1.390 . S
C535 C529 1.465 . S
C535 C534 1.396 . S
C535 C536 1.399 . S
C536 H522 0.929 . S
C536 C535 1.399 . S
C536 C537 1.385 . S
C537 H523 0.931 . S
C537 C536 1.385 . S
C537 C538 1.389 . S
C538 C537 1.389 . S
C538 C539 1.387 . S
C539 H524 0.930 1_655 S
C539 C534 1.390 . S
C539 C538 1.387 . S
H540 C552 0.930 . S
H541 C554 0.930 . S
H542 C555 0.930 . S
H543 C559 0.959 . S
H544 C559 0.959 . S
H545 C559 0.961 . S
H546 C560 0.960 . S
H547 C560 0.961 . S
H548 C560 0.959 . S
H549 C563 0.929 . S
H550 C564 0.931 . S
H551 C566 0.930 . S
C552 H540 0.930 . S
C552 C553 1.399 . S
C552 C557 1.399 . S
C553 C552 1.399 . S
C553 C554 1.376 . S
C554 H541 0.930 . S
C554 C553 1.376 . S
C554 C555 1.388 . S
C555 H542 0.930 . S
C555 C554 1.388 . S
C555 C556 1.390 . S
C556 C555 1.390 . S
C556 C557 1.394 . S
C556 C562 1.465 . S
C557 C552 1.399 . S
C557 C556 1.394 . S
C557 C558 1.516 . S
C558 C557 1.516 . S
C558 C559 1.502 . S
C558 C560 1.561 . S
C558 C561 1.526 . S
C559 H543 0.959 . S
C559 H544 0.959 . S
C559 H545 0.961 . S
C559 C558 1.502 . S
C560 H546 0.960 . S
C560 H547 0.961 . S
C560 H548 0.959 . S
C560 C558 1.561 . S
C561 C558 1.526 . S
C561 C562 1.396 . S
C561 C566 1.390 . S
C562 C556 1.465 . S
C562 C561 1.396 . S
C562 C563 1.399 . S
C563 H549 0.929 . S
C563 C562 1.399 . S
C563 C564 1.385 . S
C564 H550 0.931 . S
C564 C563 1.385 . S
C564 C565 1.389 . S
C565 C564 1.389 . S
C565 C566 1.387 . S
C566 H551 0.930 . S
C566 C561 1.390 . S
C566 C565 1.387 . S
H567 C579 0.930 . S
H568 C581 0.930 . S
H569 C582 0.930 . S
H570 C586 0.959 . S
H571 C586 0.959 . S
H572 C586 0.961 . S
H573 C587 0.958 1_455 S
H574 C587 0.961 . S
H575 C587 0.959 . S
H576 C590 0.929 . S
H577 C591 0.931 . S
H578 C593 0.930 . S
C579 H567 0.930 . S
C579 C580 1.399 . S
C579 C584 1.399 . S
C580 C579 1.399 . S
C580 C581 1.376 . S
C581 H568 0.930 . S
C581 C580 1.376 . S
C581 C582 1.388 . S
C582 H569 0.930 . S
C582 C581 1.388 . S
C582 C583 1.390 . S
C583 C582 1.390 . S
C583 C584 1.394 . S
C583 C589 1.465 1_455 S
C584 C579 1.399 . S
C584 C583 1.394 . S
C584 C585 1.516 . S
C585 C584 1.516 . S
C585 C586 1.502 . S
C585 C587 1.561 1_455 S
C585 C588 1.526 1_455 S
C586 H570 0.959 . S
C586 H571 0.959 . S
C586 H572 0.961 . S
C586 C585 1.502 . S
C587 H573 0.958 1_655 S
C587 H574 0.961 . S
C587 H575 0.959 . S
C587 C585 1.561 1_655 S
C588 C585 1.526 1_655 S
C588 C589 1.396 . S
C588 C593 1.390 . S
C589 C583 1.465 1_655 S
C589 C588 1.396 . S
C589 C590 1.399 . S
C590 H576 0.929 . S
C590 C589 1.399 . S
C590 C591 1.385 . S
C591 H577 0.931 . S
C591 C590 1.385 . S
C591 C592 1.389 . S
C592 C591 1.389 . S
C592 C593 1.387 . S
C593 H578 0.930 . S
C593 C588 1.390 . S
C593 C592 1.387 . S
H594 C606 0.930 . S
H595 C608 0.930 . S
H596 C609 0.930 . S
H597 C613 0.959 . S
H598 C613 0.959 . S
H599 C613 0.961 . S
H600 C614 0.960 . S
H601 C614 0.961 . S
H602 C614 0.959 . S
H603 C617 0.929 . S
H604 C618 0.931 1_554 S
H605 C620 0.930 . S
C606 H594 0.930 . S
C606 C607 1.399 . S
C606 C611 1.399 . S
C607 C606 1.399 . S
C607 C608 1.376 . S
C608 H595 0.930 . S
C608 C607 1.376 . S
C608 C609 1.388 . S
C609 H596 0.930 . S
C609 C608 1.388 . S
C609 C610 1.390 . S
C610 C609 1.390 . S
C610 C611 1.394 . S
C610 C616 1.465 . S
C611 C606 1.399 . S
C611 C610 1.394 . S
C611 C612 1.516 . S
C612 C611 1.516 . S
C612 C613 1.502 . S
C612 C614 1.561 . S
C612 C615 1.526 . S
C613 H597 0.959 . S
C613 H598 0.959 . S
C613 H599 0.961 . S
C613 C612 1.502 . S
C614 H600 0.960 . S
C614 H601 0.961 . S
C614 H602 0.959 . S
C614 C612 1.561 . S
C615 C612 1.526 . S
C615 C616 1.396 . S
C615 C620 1.390 . S
C616 C610 1.465 . S
C616 C615 1.396 . S
C616 C617 1.399 . S
C617 H603 0.929 . S
C617 C616 1.399 . S
C617 C618 1.385 . S
C618 H604 0.931 1_556 S
C618 C617 1.385 . S
C618 C619 1.389 . S
C619 C618 1.389 . S
C619 C620 1.387 . S
C620 H605 0.930 . S
C620 C615 1.390 . S
C620 C619 1.387 . S
H621 C633 0.930 . S
H622 C635 0.930 . S
H623 C636 0.930 . S
H624 C640 0.959 . S
H625 C640 0.959 . S
H626 C640 0.961 . S
H627 C641 0.960 . S
H628 C641 0.961 . S
H629 C641 0.959 . S
H630 C644 0.929 . S
H631 C645 0.931 . S
H632 C647 0.930 . S
C633 H621 0.930 . S
C633 C634 1.399 . S
C633 C638 1.399 . S
C634 C633 1.399 . S
C634 C635 1.376 . S
C635 H622 0.930 . S
C635 C634 1.376 . S
C635 C636 1.388 . S
C636 H623 0.930 . S
C636 C635 1.388 . S
C636 C637 1.390 . S
C637 C636 1.390 . S
C637 C638 1.394 . S
C637 C643 1.465 . S
C638 C633 1.399 . S
C638 C637 1.394 . S
C638 C639 1.516 . S
C639 C638 1.516 . S
C639 C640 1.502 . S
C639 C641 1.561 . S
C639 C642 1.526 . S
C640 H624 0.959 . S
C640 H625 0.959 . S
C640 H626 0.961 . S
C640 C639 1.502 . S
C641 H627 0.960 . S
C641 H628 0.961 . S
C641 H629 0.959 . S
C641 C639 1.561 . S
C642 C639 1.526 . S
C642 C643 1.396 . S
C642 C647 1.390 . S
C643 C637 1.465 . S
C643 C642 1.396 . S
C643 C644 1.399 . S
C644 H630 0.929 . S
C644 C643 1.399 . S
C644 C645 1.385 . S
C645 H631 0.931 . S
C645 C644 1.385 . S
C645 C646 1.389 . S
C646 C645 1.389 . S
C646 C647 1.387 . S
C647 H632 0.930 . S
C647 C642 1.390 . S
C647 C646 1.387 . S
H648 C660 0.930 . S
H649 C662 0.930 . S
H650 C663 0.930 . S
H651 C667 0.959 . S
H652 C667 0.959 . S
H653 C667 0.961 . S
H654 C668 0.960 . S
H655 C668 0.961 . S
H656 C668 0.959 . S
H657 C671 0.929 . S
H658 C672 0.931 . S
H659 C674 0.930 . S
C660 H648 0.930 . S
C660 C661 1.399 . S
C660 C665 1.399 . S
C661 C660 1.399 . S
C661 C662 1.376 . S
C662 H649 0.930 . S
C662 C661 1.376 . S
C662 C663 1.388 . S
C663 H650 0.930 . S
C663 C662 1.388 . S
C663 C664 1.390 . S
C664 C663 1.390 . S
C664 C665 1.394 . S
C664 C670 1.465 . S
C665 C660 1.399 . S
C665 C664 1.394 . S
C665 C666 1.516 . S
C666 C665 1.516 . S
C666 C667 1.502 . S
C666 C668 1.561 . S
C666 C669 1.526 . S
C667 H651 0.959 . S
C667 H652 0.959 . S
C667 H653 0.961 . S
C667 C666 1.502 . S
C668 H654 0.960 . S
C668 H655 0.961 . S
C668 H656 0.959 . S
C668 C666 1.561 . S
C669 C666 1.526 . S
C669 C670 1.396 . S
C669 C674 1.390 . S
C670 C664 1.465 . S
C670 C669 1.396 . S
C670 C671 1.399 1_545 S
C671 H657 0.929 . S
C671 C670 1.399 1_565 S
C671 C672 1.385 . S
C672 H658 0.931 . S
C672 C671 1.385 . S
C672 C673 1.389 . S
C673 C672 1.389 . S
C673 C674 1.387 1_565 S
C674 H659 0.930 . S
C674 C669 1.390 . S
C674 C673 1.387 1_545 S
H675 C687 0.930 . S
H676 C689 0.930 . S
H677 C690 0.930 . S
H678 C694 0.959 . S
H679 C694 0.959 . S
H680 C694 0.961 . S
H681 C695 0.960 . S
H682 C695 0.961 . S
H683 C695 0.959 . S
H684 C698 0.929 . S
H685 C699 0.931 . S
H686 C701 0.930 . S
C687 H675 0.930 . S
C687 C688 1.399 . S
C687 C692 1.399 . S
C688 C687 1.399 . S
C688 C689 1.376 . S
C689 H676 0.930 . S
C689 C688 1.376 . S
C689 C690 1.388 . S
C690 H677 0.930 . S
C690 C689 1.388 . S
C690 C691 1.390 . S
C691 C690 1.390 . S
C691 C692 1.394 . S
C691 C697 1.465 . S
C692 C687 1.399 . S
C692 C691 1.394 . S
C692 C693 1.516 . S
C693 C692 1.516 . S
C693 C694 1.502 . S
C693 C695 1.561 . S
C693 C696 1.526 . S
C694 H678 0.959 . S
C694 H679 0.959 . S
C694 H680 0.961 . S
C694 C693 1.502 . S
C695 H681 0.960 . S
C695 H682 0.961 . S
C695 H683 0.959 . S
C695 C693 1.561 . S
C696 C693 1.526 . S
C696 C697 1.396 . S
C696 C701 1.390 . S
C697 C691 1.465 . S
C697 C696 1.396 . S
C697 C698 1.399 . S
C698 H684 0.929 . S
C698 C697 1.399 . S
C698 C699 1.385 . S
C699 H685 0.931 . S
C699 C698 1.385 . S
C699 C700 1.389 . S
C700 C699 1.389 . S
C700 C701 1.387 . S
C701 H686 0.930 . S
C701 C696 1.390 . S
C701 C700 1.387 . S
H702 C714 0.930 . S
H703 C716 0.930 . S
H704 C717 0.930 . S
H705 C721 0.959 . S
H706 C721 0.959 . S
H707 C721 0.961 . S
H708 C722 0.960 . S
H709 C722 0.961 . S
H710 C722 0.959 . S
H711 C725 0.929 . S
H712 C726 0.931 . S
H713 C728 0.930 . S
C714 H702 0.930 . S
C714 C715 1.399 . S
C714 C719 1.399 . S
C715 C714 1.399 . S
C715 C716 1.376 . S
C716 H703 0.930 . S
C716 C715 1.376 . S
C716 C717 1.388 . S
C717 H704 0.930 . S
C717 C716 1.388 . S
C717 C718 1.390 . S
C718 C717 1.390 . S
C718 C719 1.394 . S
C718 C724 1.465 . S
C719 C714 1.399 . S
C719 C718 1.394 . S
C719 C720 1.516 . S
C720 C719 1.516 . S
C720 C721 1.502 . S
C720 C722 1.561 . S
C720 C723 1.526 . S
C721 H705 0.959 . S
C721 H706 0.959 . S
C721 H707 0.961 . S
C721 C720 1.502 . S
C722 H708 0.960 . S
C722 H709 0.961 . S
C722 H710 0.959 . S
C722 C720 1.561 . S
C723 C720 1.526 . S
C723 C724 1.396 . S
C723 C728 1.390 . S
C724 C718 1.465 . S
C724 C723 1.396 . S
C724 C725 1.399 . S
C725 H711 0.929 . S
C725 C724 1.399 . S
C725 C726 1.385 . S
C726 H712 0.931 . S
C726 C725 1.385 . S
C726 C727 1.389 . S
C727 C726 1.389 . S
C727 C728 1.387 . S
C728 H713 0.930 . S
C728 C723 1.390 . S
C728 C727 1.387 . S
H729 C741 0.930 . S
H730 C743 0.930 . S
H731 C744 0.930 . S
H732 C748 0.959 . S
H733 C748 0.959 . S
H734 C748 0.961 . S
H735 C749 0.960 . S
H736 C749 0.961 . S
H737 C749 0.959 . S
H738 C752 0.929 . S
H739 C753 0.931 . S
H740 C755 0.930 . S
C741 H729 0.930 . S
C741 C742 1.399 . S
C741 C746 1.399 . S
C742 C741 1.399 . S
C742 C743 1.376 . S
C743 H730 0.930 . S
C743 C742 1.376 . S
C743 C744 1.388 . S
C744 H731 0.930 . S
C744 C743 1.388 . S
C744 C745 1.390 . S
C745 C744 1.390 . S
C745 C746 1.394 . S
C745 C751 1.465 . S
C746 C741 1.399 . S
C746 C745 1.394 . S
C746 C747 1.516 . S
C747 C746 1.516 . S
C747 C748 1.502 . S
C747 C749 1.561 . S
C747 C750 1.526 . S
C748 H732 0.959 . S
C748 H733 0.959 . S
C748 H734 0.961 . S
C748 C747 1.502 . S
C749 H735 0.960 . S
C749 H736 0.961 . S
C749 H737 0.959 . S
C749 C747 1.561 . S
C750 C747 1.526 . S
C750 C751 1.396 . S
C750 C755 1.390 . S
C751 C745 1.465 . S
C751 C750 1.396 . S
C751 C752 1.399 . S
C752 H738 0.929 . S
C752 C751 1.399 . S
C752 C753 1.385 . S
C753 H739 0.931 . S
C753 C752 1.385 . S
C753 C754 1.389 . S
C754 C753 1.389 . S
C754 C755 1.387 . S
C755 H740 0.930 . S
C755 C750 1.390 . S
C755 C754 1.387 . S
H756 C768 0.930 . S
H757 C770 0.930 . S
H758 C771 0.930 . S
H759 C775 0.959 . S
H760 C775 0.959 . S
H761 C775 0.961 . S
H762 C776 0.960 . S
H763 C776 0.961 . S
H764 C776 0.959 . S
H765 C779 0.929 . S
H766 C780 0.931 . S
H767 C782 0.930 . S
C768 H756 0.930 . S
C768 C769 1.399 . S
C768 C773 1.399 . S
C769 C768 1.399 . S
C769 C770 1.376 . S
C770 H757 0.930 . S
C770 C769 1.376 . S
C770 C771 1.388 . S
C771 H758 0.930 . S
C771 C770 1.388 . S
C771 C772 1.390 . S
C772 C771 1.390 . S
C772 C773 1.394 . S
C772 C778 1.465 . S
C773 C768 1.399 . S
C773 C772 1.394 . S
C773 C774 1.516 . S
C774 C773 1.516 . S
C774 C775 1.502 . S
C774 C776 1.561 . S
C774 C777 1.526 . S
C775 H759 0.959 . S
C775 H760 0.959 . S
C775 H761 0.961 . S
C775 C774 1.502 . S
C776 H762 0.960 . S
C776 H763 0.961 . S
C776 H764 0.959 . S
C776 C774 1.561 . S
C777 C774 1.526 . S
C777 C778 1.396 . S
C777 C782 1.390 . S
C778 C772 1.465 . S
C778 C777 1.396 . S
C778 C779 1.399 . S
C779 H765 0.929 . S
C779 C778 1.399 . S
C779 C780 1.385 . S
C780 H766 0.931 . S
C780 C779 1.385 . S
C780 C781 1.389 . S
C781 C780 1.389 . S
C781 C782 1.387 . S
C782 H767 0.930 . S
C782 C777 1.390 . S
C782 C781 1.387 . S
H783 C795 0.930 . S
H784 C797 0.930 . S
H785 C798 0.930 . S
H786 C802 0.959 . S
H787 C802 0.959 . S
H788 C802 0.961 . S
H789 C803 0.960 . S
H790 C803 0.961 . S
H791 C803 0.959 . S
H792 C806 0.929 . S
H793 C807 0.931 . S
H794 C809 0.930 . S
C795 H783 0.930 . S
C795 C796 1.399 . S
C795 C800 1.399 . S
C796 C795 1.399 . S
C796 C797 1.376 . S
C797 H784 0.930 . S
C797 C796 1.376 . S
C797 C798 1.388 . S
C798 H785 0.930 . S
C798 C797 1.388 . S
C798 C799 1.390 . S
C799 C798 1.390 . S
C799 C800 1.394 . S
C799 C805 1.465 . S
C800 C795 1.399 . S
C800 C799 1.394 . S
C800 C801 1.516 . S
C801 C800 1.516 . S
C801 C802 1.502 . S
C801 C803 1.561 . S
C801 C804 1.526 . S
C802 H786 0.959 . S
C802 H787 0.959 . S
C802 H788 0.961 . S
C802 C801 1.502 . S
C803 H789 0.960 . S
C803 H790 0.961 . S
C803 H791 0.959 . S
C803 C801 1.561 . S
C804 C801 1.526 . S
C804 C805 1.396 . S
C804 C809 1.390 . S
C805 C799 1.465 . S
C805 C804 1.396 . S
C805 C806 1.399 . S
C806 H792 0.929 . S
C806 C805 1.399 . S
C806 C807 1.385 . S
C807 H793 0.931 . S
C807 C806 1.385 . S
C807 C808 1.389 . S
C808 C807 1.389 . S
C808 C809 1.387 . S
C809 H794 0.930 . S
C809 C804 1.390 . S
C809 C808 1.387 . S
H810 C822 0.930 . S
H811 C824 0.930 . S
H812 C825 0.930 . S
H813 C829 0.959 . S
H814 C829 0.959 . S
H815 C829 0.961 . S
H816 C830 0.960 . S
H817 C830 0.961 . S
H818 C830 0.959 . S
H819 C833 0.929 . S
H820 C834 0.931 . S
H821 C836 0.930 . S
C822 H810 0.930 . S
C822 C823 1.399 . S
C822 C827 1.399 . S
C823 C822 1.399 . S
C823 C824 1.376 . S
C824 H811 0.930 . S
C824 C823 1.376 . S
C824 C825 1.388 . S
C825 H812 0.930 . S
C825 C824 1.388 . S
C825 C826 1.390 . S
C826 C825 1.390 . S
C826 C827 1.394 . S
C826 C832 1.465 . S
C827 C822 1.399 . S
C827 C826 1.394 . S
C827 C828 1.516 . S
C828 C827 1.516 . S
C828 C829 1.502 . S
C828 C830 1.561 . S
C828 C831 1.526 . S
C829 H813 0.959 . S
C829 H814 0.959 . S
C829 H815 0.961 . S
C829 C828 1.502 . S
C830 H816 0.960 . S
C830 H817 0.961 . S
C830 H818 0.959 . S
C830 C828 1.561 . S
C831 C828 1.526 . S
C831 C832 1.396 . S
C831 C836 1.390 . S
C832 C826 1.465 . S
C832 C831 1.396 . S
C832 C833 1.399 . S
C833 H819 0.929 . S
C833 C832 1.399 . S
C833 C834 1.385 . S
C834 H820 0.931 . S
C834 C833 1.385 . S
C834 C835 1.389 . S
C835 C834 1.389 . S
C835 C836 1.387 . S
C836 H821 0.930 . S
C836 C831 1.390 . S
C836 C835 1.387 . S
H837 C849 0.930 . S
H838 C851 0.930 . S
H839 C852 0.930 . S
H840 C856 0.959 . S
H841 C856 0.959 1_565 S
H842 C856 0.961 . S
H843 C857 0.960 . S
H844 C857 0.961 . S
H845 C857 0.959 . S
H846 C860 0.929 . S
H847 C861 0.931 . S
H848 C863 0.930 . S
C849 H837 0.930 . S
C849 C850 1.399 . S
C849 C854 1.399 . S
C850 C849 1.399 . S
C850 C851 1.376 . S
C851 H838 0.930 . S
C851 C850 1.376 . S
C851 C852 1.388 . S
C852 H839 0.930 . S
C852 C851 1.388 . S
C852 C853 1.390 . S
C853 C852 1.390 . S
C853 C854 1.394 . S
C853 C859 1.465 . S
C854 C849 1.399 . S
C854 C853 1.394 . S
C854 C855 1.516 . S
C855 C854 1.516 . S
C855 C856 1.502 . S
C855 C857 1.561 1_545 S
C855 C858 1.526 . S
C856 H840 0.959 . S
C856 H841 0.959 1_545 S
C856 H842 0.961 . S
C856 C855 1.502 . S
C857 H843 0.960 . S
C857 H844 0.961 . S
C857 H845 0.959 . S
C857 C855 1.561 1_565 S
C858 C855 1.526 . S
C858 C859 1.396 . S
C858 C863 1.390 1_545 S
C859 C853 1.465 . S
C859 C858 1.396 . S
C859 C860 1.399 . S
C860 H846 0.929 . S
C860 C859 1.399 . S
C860 C861 1.385 . S
C861 H847 0.931 . S
C861 C860 1.385 . S
C861 C862 1.389 . S
C862 C861 1.389 . S
C862 C863 1.387 1_545 S
C863 H848 0.930 . S
C863 C858 1.390 1_565 S
C863 C862 1.387 1_565 S
H864 C876 0.930 . S
H865 C878 0.930 . S
H866 C879 0.930 . S
H867 C883 0.959 . S
H868 C883 0.959 . S
H869 C883 0.961 . S
H870 C884 0.960 . S
H871 C884 0.961 . S
H872 C884 0.959 . S
H873 C887 0.929 . S
H874 C888 0.931 . S
H875 C890 0.930 . S
C876 H864 0.930 . S
C876 C877 1.399 . S
C876 C881 1.399 . S
C877 C876 1.399 . S
C877 C878 1.376 . S
C878 H865 0.930 . S
C878 C877 1.376 . S
C878 C879 1.388 . S
C879 H866 0.930 . S
C879 C878 1.388 . S
C879 C880 1.390 . S
C880 C879 1.390 . S
C880 C881 1.394 . S
C880 C886 1.465 . S
C881 C876 1.399 . S
C881 C880 1.394 . S
C881 C882 1.516 . S
C882 C881 1.516 . S
C882 C883 1.502 . S
C882 C884 1.561 . S
C882 C885 1.526 . S
C883 H867 0.959 . S
C883 H868 0.959 . S
C883 H869 0.961 . S
C883 C882 1.502 . S
C884 H870 0.960 . S
C884 H871 0.961 . S
C884 H872 0.959 . S
C884 C882 1.561 . S
C885 C882 1.526 . S
C885 C886 1.396 . S
C885 C890 1.390 . S
C886 C880 1.465 . S
C886 C885 1.396 . S
C886 C887 1.399 . S
C887 H873 0.929 . S
C887 C886 1.399 . S
C887 C888 1.385 . S
C888 H874 0.931 . S
C888 C887 1.385 . S
C888 C889 1.389 . S
C889 C888 1.389 . S
C889 C890 1.387 . S
C890 H875 0.930 . S
C890 C885 1.390 . S
C890 C889 1.387 . S
H891 C903 0.930 . S
H892 C905 0.930 . S
H893 C906 0.930 . S
H894 C910 0.959 . S
H895 C910 0.959 . S
H896 C910 0.961 . S
H897 C911 0.960 . S
H898 C911 0.961 . S
H899 C911 0.959 . S
H900 C914 0.929 . S
H901 C915 0.931 . S
H902 C917 0.930 . S
C903 H891 0.930 . S
C903 C904 1.399 . S
C903 C908 1.399 . S
C904 C903 1.399 . S
C904 C905 1.376 . S
C905 H892 0.930 . S
C905 C904 1.376 . S
C905 C906 1.388 . S
C906 H893 0.930 . S
C906 C905 1.388 . S
C906 C907 1.390 . S
C907 C906 1.390 . S
C907 C908 1.394 . S
C907 C913 1.465 . S
C908 C903 1.399 . S
C908 C907 1.394 . S
C908 C909 1.516 . S
C909 C908 1.516 . S
C909 C910 1.502 . S
C909 C911 1.561 . S
C909 C912 1.526 . S
C910 H894 0.959 . S
C910 H895 0.959 . S
C910 H896 0.961 . S
C910 C909 1.502 . S
C911 H897 0.960 . S
C911 H898 0.961 . S
C911 H899 0.959 . S
C911 C909 1.561 . S
C912 C909 1.526 . S
C912 C913 1.396 . S
C912 C917 1.390 . S
C913 C907 1.465 . S
C913 C912 1.396 . S
C913 C914 1.399 . S
C914 H900 0.929 . S
C914 C913 1.399 . S
C914 C915 1.385 . S
C915 H901 0.931 . S
C915 C914 1.385 . S
C915 C916 1.389 . S
C916 C915 1.389 . S
C916 C917 1.387 . S
C917 H902 0.930 . S
C917 C912 1.390 . S
C917 C916 1.387 . S
H918 C930 0.930 . S
H919 C932 0.930 . S
H920 C933 0.930 . S
H921 C937 0.959 . S
H922 C937 0.959 . S
H923 C937 0.961 . S
H924 C938 0.960 . S
H925 C938 0.961 . S
H926 C938 0.959 . S
H927 C941 0.929 . S
H928 C942 0.931 . S
H929 C944 0.930 . S
C930 H918 0.930 . S
C930 C931 1.399 . S
C930 C935 1.399 . S
C931 C930 1.399 . S
C931 C932 1.376 . S
C932 H919 0.930 . S
C932 C931 1.376 . S
C932 C933 1.388 . S
C933 H920 0.930 . S
C933 C932 1.388 . S
C933 C934 1.390 . S
C934 C933 1.390 . S
C934 C935 1.394 . S
C934 C940 1.465 . S
C935 C930 1.399 . S
C935 C934 1.394 . S
C935 C936 1.516 . S
C936 C935 1.516 . S
C936 C937 1.502 . S
C936 C938 1.561 . S
C936 C939 1.526 . S
C937 H921 0.959 . S
C937 H922 0.959 . S
C937 H923 0.961 . S
C937 C936 1.502 . S
C938 H924 0.960 . S
C938 H925 0.961 . S
C938 H926 0.959 . S
C938 C936 1.561 . S
C939 C936 1.526 . S
C939 C940 1.396 . S
C939 C944 1.390 . S
C940 C934 1.465 . S
C940 C939 1.396 . S
C940 C941 1.399 . S
C941 H927 0.929 . S
C941 C940 1.399 . S
C941 C942 1.385 . S
C942 H928 0.931 . S
C942 C941 1.385 . S
C942 C943 1.389 . S
C943 C942 1.389 . S
C943 C944 1.387 . S
C944 H929 0.930 . S
C944 C939 1.390 . S
C944 C943 1.387 . S
H945 C957 0.930 . S
H946 C959 0.930 . S
H947 C960 0.930 . S
H948 C964 0.959 . S
H949 C964 0.959 . S
H950 C964 0.961 . S
H951 C965 0.960 . S
H952 C965 0.961 . S
H953 C965 0.959 . S
H954 C968 0.929 . S
H955 C969 0.931 . S
H956 C971 0.930 . S
C957 H945 0.930 . S
C957 C958 1.399 . S
C957 C962 1.399 . S
C958 C957 1.399 . S
C958 C959 1.376 . S
C959 H946 0.930 . S
C959 C958 1.376 . S
C959 C960 1.388 . S
C960 H947 0.930 . S
C960 C959 1.388 . S
C960 C961 1.390 . S
C961 C960 1.390 . S
C961 C962 1.394 . S
C961 C967 1.465 . S
C962 C957 1.399 . S
C962 C961 1.394 . S
C962 C963 1.516 . S
C963 C962 1.516 . S
C963 C964 1.502 . S
C963 C965 1.561 . S
C963 C966 1.526 . S
C964 H948 0.959 . S
C964 H949 0.959 . S
C964 H950 0.961 . S
C964 C963 1.502 . S
C965 H951 0.960 . S
C965 H952 0.961 . S
C965 H953 0.959 . S
C965 C963 1.561 . S
C966 C963 1.526 . S
C966 C967 1.396 . S
C966 C971 1.390 . S
C967 C961 1.465 . S
C967 C966 1.396 . S
C967 C968 1.399 . S
C968 H954 0.929 . S
C968 C967 1.399 . S
C968 C969 1.385 . S
C969 H955 0.931 . S
C969 C968 1.385 . S
C969 C970 1.389 . S
C970 C969 1.389 . S
C970 C971 1.387 . S
C971 H956 0.930 . S
C971 C966 1.390 . S
C971 C970 1.387 . S
H972 C984 0.930 . S
H973 C986 0.930 1_565 S
H974 C987 0.930 . S
H975 C991 0.959 . S
H976 C991 0.959 . S
H977 C991 0.961 . S
H978 C992 0.960 . S
H979 C992 0.961 . S
H980 C992 0.959 . S
H981 C995 0.929 . S
H982 C996 0.931 . S
H983 C998 0.930 . S
C984 H972 0.930 . S
C984 C985 1.399 . S
C984 C989 1.399 . S
C985 C984 1.399 . S
C985 C986 1.376 . S
C986 H973 0.930 1_545 S
C986 C985 1.376 . S
C986 C987 1.388 . S
C987 H974 0.930 . S
C987 C986 1.388 . S
C987 C988 1.390 . S
C988 C987 1.390 . S
C988 C989 1.394 . S
C988 C994 1.465 . S
C989 C984 1.399 . S
C989 C988 1.394 . S
C989 C990 1.516 . S
C990 C989 1.516 . S
C990 C991 1.502 . S
C990 C992 1.561 . S
C990 C993 1.526 . S
C991 H975 0.959 . S
C991 H976 0.959 . S
C991 H977 0.961 . S
C991 C990 1.502 . S
C992 H978 0.960 . S
C992 H979 0.961 . S
C992 H980 0.959 . S
C992 C990 1.561 . S
C993 C990 1.526 . S
C993 C994 1.396 . S
C993 C998 1.390 . S
C994 C988 1.465 . S
C994 C993 1.396 . S
C994 C995 1.399 . S
C995 H981 0.929 . S
C995 C994 1.399 . S
C995 C996 1.385 . S
C996 H982 0.931 . S
C996 C995 1.385 . S
C996 C997 1.389 . S
C997 C996 1.389 . S
C997 C998 1.387 . S
C998 H983 0.930 . S
C998 C993 1.390 . S
C998 C997 1.387 . S
H999 C1011 0.930 . S
H1000 C1013 0.930 . S
H1001 C1014 0.930 . S
H1002 C1018 0.959 . S
H1003 C1018 0.959 . S
H1004 C1018 0.961 . S
H1005 C1019 0.960 . S
H1006 C1019 0.961 . S
H1007 C1019 0.959 . S
H1008 C1022 0.929 . S
H1009 C1023 0.931 . S
H1010 C1025 0.930 . S
C1011 H999 0.930 . S
C1011 C1012 1.399 . S
C1011 C1016 1.399 . S
C1012 C1011 1.399 . S
C1012 C1013 1.376 . S
C1013 H1000 0.930 . S
C1013 C1012 1.376 . S
C1013 C1014 1.388 . S
C1014 H1001 0.930 . S
C1014 C1013 1.388 . S
C1014 C1015 1.390 . S
C1015 C1014 1.390 . S
C1015 C1016 1.394 . S
C1015 C1021 1.465 . S
C1016 C1011 1.399 . S
C1016 C1015 1.394 . S
C1016 C1017 1.516 . S
C1017 C1016 1.516 . S
C1017 C1018 1.502 . S
C1017 C1019 1.561 . S
C1017 C1020 1.526 . S
C1018 H1002 0.959 . S
C1018 H1003 0.959 . S
C1018 H1004 0.961 . S
C1018 C1017 1.502 . S
C1019 H1005 0.960 . S
C1019 H1006 0.961 . S
C1019 H1007 0.959 . S
C1019 C1017 1.561 . S
C1020 C1017 1.526 . S
C1020 C1021 1.396 . S
C1020 C1025 1.390 . S
C1021 C1015 1.465 . S
C1021 C1020 1.396 . S
C1021 C1022 1.399 . S
C1022 H1008 0.929 . S
C1022 C1021 1.399 . S
C1022 C1023 1.385 1_455 S
C1023 H1009 0.931 . S
C1023 C1022 1.385 1_655 S
C1023 C1024 1.389 1_655 S
C1024 C1023 1.389 1_455 S
C1024 C1025 1.387 . S
C1025 H1010 0.930 . S
C1025 C1020 1.390 . S
C1025 C1024 1.387 . S
H1026 C1038 0.930 . S
H1027 C1040 0.930 . S
H1028 C1041 0.930 . S
H1029 C1045 0.959 . S
H1030 C1045 0.959 . S
H1031 C1045 0.961 . S
H1032 C1046 0.960 1_455 S
H1033 C1046 0.961 . S
H1034 C1046 0.959 1_455 S
H1035 C1049 0.929 . S
H1036 C1050 0.931 . S
H1037 C1052 0.930 . S
C1038 H1026 0.930 . S
C1038 C1039 1.399 . S
C1038 C1043 1.399 . S
C1039 C1038 1.399 . S
C1039 C1040 1.376 . S
C1040 H1027 0.930 . S
C1040 C1039 1.376 . S
C1040 C1041 1.388 . S
C1041 H1028 0.930 . S
C1041 C1040 1.388 . S
C1041 C1042 1.390 . S
C1042 C1041 1.390 . S
C1042 C1043 1.394 . S
C1042 C1048 1.465 . S
C1043 C1038 1.399 . S
C1043 C1042 1.394 . S
C1043 C1044 1.516 . S
C1044 C1043 1.516 . S
C1044 C1045 1.502 . S
C1044 C1046 1.561 . S
C1044 C1047 1.526 . S
C1045 H1029 0.959 . S
C1045 H1030 0.959 . S
C1045 H1031 0.961 . S
C1045 C1044 1.502 . S
C1046 H1032 0.960 1_655 S
C1046 H1033 0.961 . S
C1046 H1034 0.959 1_655 S
C1046 C1044 1.561 . S
C1047 C1044 1.526 . S
C1047 C1048 1.396 . S
C1047 C1052 1.390 . S
C1048 C1042 1.465 . S
C1048 C1047 1.396 . S
C1048 C1049 1.399 . S
C1049 H1035 0.929 . S
C1049 C1048 1.399 . S
C1049 C1050 1.385 . S
C1050 H1036 0.931 . S
C1050 C1049 1.385 . S
C1050 C1051 1.389 . S
C1051 C1050 1.389 . S
C1051 C1052 1.387 . S
C1052 H1037 0.930 . S
C1052 C1047 1.390 . S
C1052 C1051 1.387 . S
H1053 C1065 0.930 . S
H1054 C1067 0.930 . S
H1055 C1068 0.930 . S
H1056 C1072 0.959 . S
H1057 C1072 0.959 . S
H1058 C1072 0.961 . S
H1059 C1073 0.960 . S
H1060 C1073 0.961 . S
H1061 C1073 0.959 . S
H1062 C1076 0.929 . S
H1063 C1077 0.931 . S
H1064 C1079 0.930 . S
C1065 H1053 0.930 . S
C1065 C1066 1.399 . S
C1065 C1070 1.399 . S
C1066 C1065 1.399 . S
C1066 C1067 1.376 . S
C1067 H1054 0.930 . S
C1067 C1066 1.376 . S
C1067 C1068 1.388 . S
C1068 H1055 0.930 . S
C1068 C1067 1.388 . S
C1068 C1069 1.390 . S
C1069 C1068 1.390 . S
C1069 C1070 1.394 . S
C1069 C1075 1.465 . S
C1070 C1065 1.399 . S
C1070 C1069 1.394 . S
C1070 C1071 1.516 . S
C1071 C1070 1.516 . S
C1071 C1072 1.502 . S
C1071 C1073 1.561 . S
C1071 C1074 1.526 . S
C1072 H1056 0.959 . S
C1072 H1057 0.959 . S
C1072 H1058 0.961 . S
C1072 C1071 1.502 . S
C1073 H1059 0.960 . S
C1073 H1060 0.961 . S
C1073 H1061 0.959 . S
C1073 C1071 1.561 . S
C1074 C1071 1.526 . S
C1074 C1075 1.396 . S
C1074 C1079 1.390 . S
C1075 C1069 1.465 . S
C1075 C1074 1.396 . S
C1075 C1076 1.399 . S
C1076 H1062 0.929 . S
C1076 C1075 1.399 . S
C1076 C1077 1.385 . S
C1077 H1063 0.931 . S
C1077 C1076 1.385 . S
C1077 C1078 1.389 . S
C1078 C1077 1.389 . S
C1078 C1079 1.387 . S
C1079 H1064 0.930 . S
C1079 C1074 1.390 . S
C1079 C1078 1.387 . S
C241 C125 1.484 . S
C229 C5 1.439 . S
C268 C145 1.529 . S
C256 C18 1.531 . S
C295 C159 1.557 . S
C283 C31 1.506 . S
C310 C42 1.524 . S
C322 C117 1.532 . S
C337 C57 1.292 . S
C349 C111 1.294 . S
C364 C70 1.310 . S
C376 C131 1.281 . S
C403 C139 1.233 . S
C391 C81 1.206 . S
C430 C153 1.246 . S
C418 C96 1.264 . S
C445 C29 1.212 . S
C457 C181 1.255 . S
C484 C195 1.212 . S
C472 C44 1.242 . S
C499 C3 1.284 . S
C511 C215 1.294 . S
C538 C167 1.326 . S
C526 C16 1.298 1_655 S
C553 C83 1.523 . S
C565 C173 1.495 . S
C580 C94 1.564 . S
C592 C187 1.507 . S
C619 C201 1.522 1_556 S
C607 C55 1.547 . S
C634 C68 1.467 . S
C646 C209 1.445 . S
C673 C140 1.701 . S
C661 C1 1.577 . S
C700 C154 1.687 . S
C688 C14 1.573 . S
C715 C27 1.515 . S
C727 C112 1.627 . S
C742 C49 1.481 . S
C754 C129 1.518 . S
C769 C53 1.190 . S
C781 C157 1.164 . S
C808 C115 1.148 . S
C796 C66 1.158 . S
C835 C126 1.265 . S
C823 C88 1.287 . S
C862 C143 1.220 1_545 S
C850 C92 1.202 . S
C889 C199 1.239 . S
C877 C36 1.233 . S
C916 C210 1.262 . S
C904 C40 1.290 . S
C931 C10 1.162 . S
C943 C171 1.158 . S
C970 C185 1.171 . S
C958 C23 1.180 . S
C997 C213 1.507 . S
C985 C79 1.473 . S
C1012 C101 1.628 . S
C1024 C168 1.624 1_455 S
C1051 C182 1.684 . S
C1039 C62 1.682 . S
C1078 C196 1.715 . S
C1066 C75 1.677 . S
