# Generated by pormake.
# Topology ctn, (3,4)-cn, num edge types: 1
# Building blocks:
#     Node 0, Type 0, BuildingBlock: WUSLED_clean_sbu_0, # of connection points: 3
#     Node 1, Type 0, BuildingBlock: WUSLED_clean_sbu_0, # of connection points: 3
#     Node 2, Type 0, BuildingBlock: WUSLED_clean_sbu_0, # of connection points: 3
#     Node 3, Type 0, BuildingBlock: WUSLED_clean_sbu_0, # of connection points: 3
#     Node 4, Type 0, BuildingBlock: WUSLED_clean_sbu_0, # of connection points: 3
#     Node 5, Type 0, BuildingBlock: WUSLED_clean_sbu_0, # of connection points: 3
#     Node 6, Type 0, BuildingBlock: WUSLED_clean_sbu_0, # of connection points: 3
#     Node 7, Type 0, BuildingBlock: WUSLED_clean_sbu_0, # of connection points: 3
#     Node 8, Type 0, BuildingBlock: WUSLED_clean_sbu_0, # of connection points: 3
#     Node 9, Type 0, BuildingBlock: WUSLED_clean_sbu_0, # of connection points: 3
#     Node 10, Type 0, BuildingBlock: WUSLED_clean_sbu_0, # of connection points: 3
#     Node 11, Type 0, BuildingBlock: WUSLED_clean_sbu_0, # of connection points: 3
#     Node 12, Type 0, BuildingBlock: WUSLED_clean_sbu_0, # of connection points: 3
#     Node 13, Type 0, BuildingBlock: WUSLED_clean_sbu_0, # of connection points: 3
#     Node 14, Type 0, BuildingBlock: WUSLED_clean_sbu_0, # of connection points: 3
#     Node 15, Type 0, BuildingBlock: WUSLED_clean_sbu_0, # of connection points: 3
#     Node 16, Type 1, BuildingBlock: NAHDIM_clean_sbu_0, # of connection points: 4
#     Node 17, Type 1, BuildingBlock: NAHDIM_clean_sbu_0, # of connection points: 4
#     Node 18, Type 1, BuildingBlock: NAHDIM_clean_sbu_0, # of connection points: 4
#     Node 19, Type 1, BuildingBlock: NAHDIM_clean_sbu_0, # of connection points: 4
#     Node 20, Type 1, BuildingBlock: NAHDIM_clean_sbu_0, # of connection points: 4
#     Node 21, Type 1, BuildingBlock: NAHDIM_clean_sbu_0, # of connection points: 4
#     Node 22, Type 1, BuildingBlock: NAHDIM_clean_sbu_0, # of connection points: 4
#     Node 23, Type 1, BuildingBlock: NAHDIM_clean_sbu_0, # of connection points: 4
#     Node 24, Type 1, BuildingBlock: NAHDIM_clean_sbu_0, # of connection points: 4
#     Node 25, Type 1, BuildingBlock: NAHDIM_clean_sbu_0, # of connection points: 4
#     Node 26, Type 1, BuildingBlock: NAHDIM_clean_sbu_0, # of connection points: 4
#     Node 27, Type 1, BuildingBlock: NAHDIM_clean_sbu_0, # of connection points: 4
#     Edge 28, Type (0, 1), BuildingBlock: OJICUG_clean_linker_0, # of connection points: 2
#     Edge 29, Type (0, 1), BuildingBlock: OJICUG_clean_linker_0, # of connection points: 2
#     Edge 30, Type (0, 1), BuildingBlock: OJICUG_clean_linker_0, # of connection points: 2
#     Edge 31, Type (0, 1), BuildingBlock: OJICUG_clean_linker_0, # of connection points: 2
#     Edge 32, Type (0, 1), BuildingBlock: OJICUG_clean_linker_0, # of connection points: 2
#     Edge 33, Type (0, 1), BuildingBlock: OJICUG_clean_linker_0, # of connection points: 2
#     Edge 34, Type (0, 1), BuildingBlock: OJICUG_clean_linker_0, # of connection points: 2
#     Edge 35, Type (0, 1), BuildingBlock: OJICUG_clean_linker_0, # of connection points: 2
#     Edge 36, Type (0, 1), BuildingBlock: OJICUG_clean_linker_0, # of connection points: 2
#     Edge 37, Type (0, 1), BuildingBlock: OJICUG_clean_linker_0, # of connection points: 2
#     Edge 38, Type (0, 1), BuildingBlock: OJICUG_clean_linker_0, # of connection points: 2
#     Edge 39, Type (0, 1), BuildingBlock: OJICUG_clean_linker_0, # of connection points: 2
#     Edge 40, Type (0, 1), BuildingBlock: OJICUG_clean_linker_0, # of connection points: 2
#     Edge 41, Type (0, 1), BuildingBlock: OJICUG_clean_linker_0, # of connection points: 2
#     Edge 42, Type (0, 1), BuildingBlock: OJICUG_clean_linker_0, # of connection points: 2
#     Edge 43, Type (0, 1), BuildingBlock: OJICUG_clean_linker_0, # of connection points: 2
#     Edge 44, Type (0, 1), BuildingBlock: OJICUG_clean_linker_0, # of connection points: 2
#     Edge 45, Type (0, 1), BuildingBlock: OJICUG_clean_linker_0, # of connection points: 2
#     Edge 46, Type (0, 1), BuildingBlock: OJICUG_clean_linker_0, # of connection points: 2
#     Edge 47, Type (0, 1), BuildingBlock: OJICUG_clean_linker_0, # of connection points: 2
#     Edge 48, Type (0, 1), BuildingBlock: OJICUG_clean_linker_0, # of connection points: 2
#     Edge 49, Type (0, 1), BuildingBlock: OJICUG_clean_linker_0, # of connection points: 2
#     Edge 50, Type (0, 1), BuildingBlock: OJICUG_clean_linker_0, # of connection points: 2
#     Edge 51, Type (0, 1), BuildingBlock: OJICUG_clean_linker_0, # of connection points: 2
#     Edge 52, Type (0, 1), BuildingBlock: OJICUG_clean_linker_0, # of connection points: 2
#     Edge 53, Type (0, 1), BuildingBlock: OJICUG_clean_linker_0, # of connection points: 2
#     Edge 54, Type (0, 1), BuildingBlock: OJICUG_clean_linker_0, # of connection points: 2
#     Edge 55, Type (0, 1), BuildingBlock: OJICUG_clean_linker_0, # of connection points: 2
#     Edge 56, Type (0, 1), BuildingBlock: OJICUG_clean_linker_0, # of connection points: 2
#     Edge 57, Type (0, 1), BuildingBlock: OJICUG_clean_linker_0, # of connection points: 2
#     Edge 58, Type (0, 1), BuildingBlock: OJICUG_clean_linker_0, # of connection points: 2
#     Edge 59, Type (0, 1), BuildingBlock: OJICUG_clean_linker_0, # of connection points: 2
#     Edge 60, Type (0, 1), BuildingBlock: OJICUG_clean_linker_0, # of connection points: 2
#     Edge 61, Type (0, 1), BuildingBlock: OJICUG_clean_linker_0, # of connection points: 2
#     Edge 62, Type (0, 1), BuildingBlock: OJICUG_clean_linker_0, # of connection points: 2
#     Edge 63, Type (0, 1), BuildingBlock: OJICUG_clean_linker_0, # of connection points: 2
#     Edge 64, Type (0, 1), BuildingBlock: OJICUG_clean_linker_0, # of connection points: 2
#     Edge 65, Type (0, 1), BuildingBlock: OJICUG_clean_linker_0, # of connection points: 2
#     Edge 66, Type (0, 1), BuildingBlock: OJICUG_clean_linker_0, # of connection points: 2
#     Edge 67, Type (0, 1), BuildingBlock: OJICUG_clean_linker_0, # of connection points: 2
#     Edge 68, Type (0, 1), BuildingBlock: OJICUG_clean_linker_0, # of connection points: 2
#     Edge 69, Type (0, 1), BuildingBlock: OJICUG_clean_linker_0, # of connection points: 2
#     Edge 70, Type (0, 1), BuildingBlock: OJICUG_clean_linker_0, # of connection points: 2
#     Edge 71, Type (0, 1), BuildingBlock: OJICUG_clean_linker_0, # of connection points: 2
#     Edge 72, Type (0, 1), BuildingBlock: OJICUG_clean_linker_0, # of connection points: 2
#     Edge 73, Type (0, 1), BuildingBlock: OJICUG_clean_linker_0, # of connection points: 2
#     Edge 74, Type (0, 1), BuildingBlock: OJICUG_clean_linker_0, # of connection points: 2
#     Edge 75, Type (0, 1), BuildingBlock: OJICUG_clean_linker_0, # of connection points: 2
# Relax obj value: 0.002
# Max RMSD: 0.033
# Mean RMSD: 0.019
data_MOF--net-ctn--node1-WUSLED_clean_sbu_0--node2-NAHDIM_clean_sbu_0--edge1-OJICUG_clean_linker_0
_symmetry_space_group_name_H-M    P1
_symmetry_Int_Tables_number       1
_symmetry_cell_setting            triclinic
loop_
_symmetry_equiv_pos_as_xyz
'x, y, z'
_cell_length_a     55.149809
_cell_length_b     55.824878
_cell_length_c     55.288907
_cell_angle_alpha  91.757804
_cell_angle_beta   89.97815
_cell_angle_gamma 92.016437
loop_
_atom_site_label
_atom_site_type_symbol
_atom_site_fract_x
_atom_site_fract_y
_atom_site_fract_z
_atom_type_partial_charge
C0 C 1.01005 0.07203 0.10711 0.0
C1 C 1.01681 0.0513 0.11874 0.0
C2 C 0.98458 0.0566 0.14848 0.0
C3 C 1.00416 0.04362 0.13924 0.0
C4 C 0.978 0.07742 0.13672 0.0
C5 C 0.99063 0.08504 0.11624 0.0
U6 U 0.06079 0.06705 0.06016 0.0
O7 O 0.0594 0.07128 0.02071 0.0
O8 O 0.08297 0.09537 0.04314 0.0
C9 C 0.07372 0.09061 0.02154 0.0
C10 C 0.02286 0.08025 0.08537 0.0
C11 C 0.06488 0.1113 1.00863 0.0
C12 C 0.04192 0.14768 1.00752 0.0
C13 C 0.04986 0.12798 0.02007 0.0
C14 C 0.06363 0.13403 0.97189 0.0
C15 C 0.04878 0.15103 0.98327 0.0
C16 C 0.07159 0.11442 0.98446 0.0
C17 C 0.10659 1.01697 0.06567 0.0
C18 C 0.14365 1.01373 0.04211 0.0
C19 C 0.13064 0.98147 0.06797 0.0
C20 C 0.11036 0.99434 0.07495 0.0
C21 C 0.14764 0.99102 0.05154 0.0
C22 C 0.12329 0.02659 0.0491 0.0
C23 C 0.08527 0.0302 0.07375 0.0
O24 O 0.04483 0.08955 0.08899 0.0
O25 O 0.02138 0.06552 0.06638 0.0
O26 O 0.06616 0.02812 0.05956 0.0
O27 O 0.08963 0.05225 0.08207 0.0
H28 H 0.03184 0.04106 0.11194 0.0
H29 H 1.00988 0.02767 0.14799 0.0
H30 H 0.96282 0.08766 0.1431 0.0
H31 H 0.98511 0.10105 0.10743 0.0
H32 H 0.03074 0.1605 0.01697 0.0
H33 H 0.0444 0.12584 0.03873 0.0
H34 H 0.06893 0.13574 0.95314 0.0
H35 H 0.08304 0.10164 0.97528 0.0
H36 H 0.15645 0.02173 0.0296 0.0
H37 H 0.13284 0.9639 0.07527 0.0
H38 H 0.09759 0.98658 0.08766 0.0
H39 H 0.12065 0.04406 0.04173 0.0
C40 C 0.29119 0.75754 0.16782 0.0
C41 C 0.29754 0.78169 0.17337 0.0
C42 C 0.29196 0.79179 0.13116 0.0
C43 C 0.2978 0.79868 0.15523 0.0
C44 C 0.28593 0.76753 0.1257 0.0
C45 C 0.2855 0.75062 0.14385 0.0
U46 U 0.31469 0.73008 0.22571 0.0
O47 O 0.29448 0.71508 0.25644 0.0
O48 O 0.31833 0.69227 0.23472 0.0
C49 C 0.30208 0.69331 0.2521 0.0
C50 C 0.29005 0.73933 0.18666 0.0
C51 C 0.28317 0.67403 0.25157 0.0
C52 C 0.25096 0.6506 0.23091 0.0
C53 C 0.26856 0.66935 0.23107 0.0
C54 C 0.26223 0.64129 0.27182 0.0
C55 C 0.2476 0.63632 0.25129 0.0
C56 C 0.27982 0.65995 0.27193 0.0
C57 C 0.37042 0.75983 0.25771 0.0
C58 C 0.3911 0.74337 0.292 0.0
C59 C 0.40243 0.78313 0.27861 0.0
C60 C 0.38499 0.7808 0.2603 0.0
C61 C 0.40567 0.76451 0.29476 0.0
C62 C 0.37354 0.74108 0.27365 0.0
C63 C 0.35219 0.75805 0.23826 0.0
O64 O 0.30792 0.72436 0.18662 0.0
O65 O 0.28395 0.74691 0.20851 0.0
O66 O 0.32983 0.76242 0.24479 0.0
O67 O 0.35365 0.73951 0.22315 0.0
H68 H 0.30219 0.78746 0.19173 0.0
H69 H 0.30277 0.81717 0.15998 0.0
H70 H 0.28107 0.76166 0.10743 0.0
H71 H 0.28054 0.7321 0.13919 0.0
H72 H 0.23985 0.64743 0.21491 0.0
H73 H 0.27083 0.68013 0.21521 0.0
H74 H 0.2604 0.63047 0.28769 0.0
H75 H 0.29097 0.66328 0.28789 0.0
H76 H 0.393 0.72878 0.30425 0.0
H77 H 0.41358 0.79949 0.27995 0.0
H78 H 0.3829 0.79541 0.24809 0.0
H79 H 0.36237 0.72476 0.27194 0.0
C80 C 0.97595 0.4384 1.00821 0.0
C81 C 0.99816 0.42889 1.01472 0.0
C82 C 0.99314 0.39741 0.98332 0.0
C83 C 1.00671 0.4086 1.00236 0.0
C84 C 0.97078 0.40696 0.97708 0.0
C85 C 0.9623 0.42726 0.98941 0.0
U86 U 0.9799 0.48657 0.05883 0.0
O87 O 0.97474 0.52547 0.05748 0.0
O88 O 0.95108 0.50324 0.0803 0.0
C89 C 0.95547 0.52455 0.07144 0.0
C90 C 0.96691 0.46002 0.02063 0.0
C91 C 0.93426 0.53717 0.06276 0.0
C92 C 0.89511 0.53746 0.04248 0.0
C93 C 0.91532 0.52504 0.04996 0.0
C94 C 0.91279 0.57429 0.0601 0.0
C95 C 0.89353 0.56225 0.04757 0.0
C96 C 0.93288 0.56186 0.06763 0.0
C97 C 0.03114 0.48428 0.10586 0.0
C98 C 0.0328 0.50585 0.14477 0.0
C99 C 0.06839 0.48625 0.12938 0.0
C100 C 0.05549 0.47856 0.10865 0.0
C101 C 0.05717 0.4998 0.14784 0.0
C102 C 0.0199 0.49817 0.12394 0.0
C103 C 1.01783 0.47511 0.0842 0.0
O104 O 0.95773 0.45684 0.04229 0.0
O105 O 0.98116 0.47933 0.01954 0.0
O106 O 0.01939 0.48857 0.06514 0.0
O107 O 0.99581 0.46618 0.08789 0.0
H108 H 1.0089 0.43722 0.02929 0.0
H109 H 0.02385 0.40157 1.00783 0.0
H110 H 0.96002 0.39904 0.96234 0.0
H111 H 0.94514 0.4344 0.98412 0.0
H112 H 0.88056 0.52753 0.03309 0.0
H113 H 0.91605 0.50596 0.04593 0.0
H114 H 0.91246 0.59341 0.06396 0.0
H115 H 0.94739 0.57157 0.07735 0.0
H116 H 0.02352 0.51607 0.15868 0.0
H117 H 0.08723 0.48164 0.13089 0.0
H118 H 0.06451 0.46798 0.09482 0.0
H119 H 1.0011 0.50283 0.12209 0.0
C120 C 0.72172 0.7705 0.18378 0.0
C121 C 0.74578 0.77323 0.17579 0.0
C122 C 0.7378 0.74387 0.14288 0.0
C123 C 0.75378 0.75998 0.15561 0.0
C124 C 0.71366 0.74131 0.15099 0.0
C125 C 0.70574 0.75449 0.17125 0.0
U126 U 0.72709 0.82466 0.22739 0.0
O127 O 0.69888 0.84768 0.24255 0.0
O128 O 0.72163 0.8276 0.26677 0.0
C129 C 0.7029 0.84136 0.26485 0.0
C130 C 0.71295 0.78449 0.20484 0.0
C131 C 0.6812 0.83438 0.27884 0.0
C132 C 0.65082 0.80469 0.29147 0.0
C133 C 0.67145 0.81081 0.27786 0.0
C134 C 0.64942 0.84569 0.30695 0.0
C135 C 0.63953 0.8221 0.30614 0.0
C136 C 0.67005 0.85174 0.29344 0.0
C137 C 0.77906 0.87117 0.21827 0.0
C138 C 0.79409 0.90115 0.24798 0.0
C139 C 0.80387 0.90536 0.20557 0.0
C140 C 0.79066 0.88408 0.19998 0.0
C141 C 0.80582 0.91413 0.22964 0.0
C142 C 0.78073 0.87991 0.24233 0.0
C143 C 0.76549 0.84868 0.21175 0.0
O144 O 0.72711 0.7853 0.224 0.0
O145 O 0.70423 0.80541 0.19995 0.0
O146 O 0.74358 0.85116 0.20306 0.0
O147 O 0.76663 0.8313 0.22721 0.0
H148 H 0.7584 0.78559 0.18518 0.0
H149 H 0.77255 0.76221 0.15013 0.0
H150 H 0.70074 0.72941 0.14146 0.0
H151 H 0.68704 0.75228 0.17705 0.0
H152 H 0.64352 0.78643 0.29024 0.0
H153 H 0.67976 0.79718 0.26656 0.0
H154 H 0.64139 0.85945 0.31828 0.0
H155 H 0.67735 0.87002 0.29445 0.0
H156 H 0.79501 0.90757 0.26665 0.0
H157 H 0.8129 0.91475 0.19106 0.0
H158 H 0.7896 0.87762 0.18131 0.0
H159 H 0.77174 0.87032 0.25673 0.0
C160 C 1.01121 0.9719 0.43405 0.0
C161 C 1.01427 0.99502 0.42496 0.0
C162 C 0.98611 0.98443 0.39199 0.0
C163 C 1.00174 1.00127 0.40415 0.0
C164 C 0.98319 0.9613 0.40125 0.0
C165 C 0.99561 0.95513 0.42206 0.0
U166 U 0.06267 0.9797 0.48069 0.0
O167 O 0.06185 0.97532 0.52007 0.0
O168 O 0.08439 0.95218 0.49728 0.0
C169 C 0.07569 0.95661 0.51902 0.0
C170 C 0.02414 0.96477 0.45585 0.0
C171 C 0.06673 0.93547 0.5321 0.0
C172 C 0.03448 0.90679 0.54253 0.0
C173 C 0.04262 0.9268 0.52975 0.0
C174 C 0.07452 0.90373 0.55989 0.0
C175 C 0.05032 0.89499 0.55782 0.0
C176 C 0.0826 0.92376 0.54718 0.0
C177 C 0.11026 0.03093 0.47546 0.0
C178 C 0.14538 0.03564 0.50197 0.0
C179 C 0.13778 0.06564 0.4724 0.0
C180 C 0.11699 0.05252 0.46465 0.0
C181 C 0.15227 0.05737 0.49115 0.0
C182 C 0.12454 0.02254 0.49419 0.0
C183 C 0.08832 1.01745 0.46697 0.0
O184 O 0.04582 0.95634 0.45212 0.0
O185 O 0.02323 0.97962 0.47472 0.0
O186 O 0.0693 0.01884 0.4812 0.0
O187 O 0.09173 0.9956 0.45841 0.0
H188 H 0.02638 1.00819 0.43391 0.0
H189 H 1.00458 0.01914 0.39736 0.0
H190 H 0.97106 0.948 0.39256 0.0
H191 H 0.993 0.93721 0.42884 0.0
H192 H 1.01567 0.90077 0.54068 0.0
H193 H 0.03009 0.93558 0.51813 0.0
H194 H 0.08735 0.8949 0.57112 0.0
H195 H 0.10132 0.93011 0.5491 0.0
H196 H 0.15623 0.02861 0.51626 0.0
H197 H 0.14227 0.08246 0.46393 0.0
H198 H 0.10611 0.05931 0.45023 0.0
H199 H 0.11959 1.00585 0.50273 0.0
C200 C 0.21916 0.78437 0.86082 0.0
C201 C 0.24072 0.77875 0.87249 0.0
C202 C 0.23549 0.81172 0.90181 0.0
C203 C 0.24885 0.79234 0.89279 0.0
C204 C 0.21374 0.81703 0.89013 0.0
C205 C 0.20569 0.80348 0.86982 0.0
U206 U 0.2227 0.73144 0.81537 0.0
O207 O 0.19332 0.70982 0.79766 0.0
O208 O 0.21883 0.73093 0.77571 0.0
C209 C 0.19858 0.7178 0.77609 0.0
C210 C 0.21065 0.77077 0.83907 0.0
C211 C 0.17813 0.72728 0.76269 0.0
C212 C 0.14384 0.75334 0.76048 0.0
C213 C 0.16333 0.7446 0.77336 0.0
C214 C 0.15393 0.72777 0.72601 0.0
C215 C 0.13885 0.74501 0.73663 0.0
C216 C 0.17336 0.719 0.73894 0.0
C217 C 0.27093 0.68399 0.82437 0.0
C218 C 0.29129 0.65826 0.79499 0.0
C219 C 0.28913 0.64732 0.837 0.0
C220 C 0.27633 0.66796 0.84249 0.0
C221 C 0.29695 0.64229 0.81322 0.0
C222 C 0.27833 0.67887 0.80048 0.0
C223 C 0.25843 0.70619 0.83114 0.0
O224 O 0.22581 0.77061 0.82072 0.0
O225 O 0.20035 0.74963 0.84285 0.0
O226 O 0.23594 0.70337 0.8387 0.0
O227 O 0.26164 0.72443 0.81683 0.0
H228 H 0.2513 0.76395 0.86582 0.0
H229 H 0.26551 0.78758 0.90152 0.0
H230 H 0.20318 0.83199 0.89639 0.0
H231 H 0.18902 0.80809 0.86099 0.0
H232 H 0.13248 0.76637 0.76936 0.0
H233 H 0.16678 0.75126 0.7917 0.0
H234 H 0.15091 0.72123 0.70758 0.0
H235 H 0.18471 0.70575 0.73037 0.0
H236 H 0.29681 0.65477 0.77645 0.0
H237 H 0.29342 0.63558 0.85152 0.0
H238 H 0.2709 0.6716 0.86105 0.0
H239 H 0.27429 0.69087 0.78611 0.0
C240 C 0.9722 0.61069 0.53457 0.0
C241 C 0.99119 0.62515 0.52545 0.0
C242 C 0.98734 0.65347 0.55964 0.0
C243 C 0.99869 0.64637 0.53787 0.0
C244 C 0.96826 0.63885 0.56859 0.0
C245 C 0.96078 0.61767 0.55615 0.0
U246 U 0.97873 0.56315 0.48396 0.0
O247 O 0.97432 0.52383 0.48523 0.0
O248 O 0.95075 0.54392 0.46184 0.0
C249 C 0.95508 0.52311 0.47118 0.0
C250 C 0.96423 0.58821 0.52194 0.0
C251 C 0.93371 0.50977 0.48052 0.0
C252 C 0.89687 0.50809 0.5047 0.0
C253 C 0.91721 0.52094 0.49614 0.0
C254 C 0.90951 0.47264 0.48242 0.0
C255 C 0.8927 0.48376 0.4979 0.0
C256 C 0.92978 0.48554 0.47382 0.0
C257 C 0.03107 0.57213 0.43814 0.0
C258 C 0.03845 0.54672 0.40254 0.0
C259 C 0.0649 0.58142 0.41152 0.0
C260 C 0.05129 0.58663 0.4322 0.0
C261 C 0.05854 0.56155 0.39627 0.0
C262 C 0.02476 0.55202 0.42331 0.0
C263 C 1.01669 0.57885 0.45956 0.0
O264 O 0.95537 0.59049 0.5001 0.0
O265 O 0.97916 0.57047 0.5233 0.0
O266 O 1.01827 0.56498 0.47824 0.0
O267 O 0.99445 0.58533 0.45532 0.0
H268 H 1.00019 0.62001 0.50876 0.0
H269 H 1.01324 0.6573 0.5303 0.0
H270 H 0.95936 0.64352 0.58546 0.0
H271 H 0.94615 0.60666 0.5635 0.0
H272 H 0.88421 0.51734 0.51633 0.0
H273 H 0.91998 0.53965 0.5016 0.0
H274 H 0.90715 0.45387 0.47711 0.0
H275 H 0.94243 0.47657 0.46191 0.0
H276 H 0.03299 0.53137 0.39111 0.0
H277 H 0.08048 0.59297 0.40749 0.0
H278 H 0.05648 0.60217 0.4435 0.0
H279 H 1.00915 0.54063 0.42764 0.0
C280 C 0.78429 0.79205 0.87937 0.0
C281 C 0.79654 0.77047 0.87712 0.0
C282 C 0.77896 0.7572 0.91518 0.0
C283 C 0.7939 0.75318 0.89489 0.0
C284 C 0.76719 0.77913 0.91749 0.0
C285 C 0.76982 0.79633 0.89975 0.0
U286 U 0.81331 0.81951 0.82292 0.0
O287 O 0.79552 0.83432 0.79129 0.0
O288 O 0.81948 0.85744 0.8143 0.0
C289 C 0.80385 0.85625 0.79632 0.0
C290 C 0.78581 0.81009 0.8605 0.0
C291 C 0.78559 0.87488 0.79672 0.0
C292 C 0.75374 0.89671 0.81721 0.0
C293 C 0.77087 0.87876 0.81708 0.0
C294 C 0.76568 0.90686 0.77651 0.0
C295 C 0.75094 0.911 0.7969 0.0
C296 C 0.78284 0.88899 0.77645 0.0
C297 C 0.86912 0.7905 0.79391 0.0
C298 C 0.8858 0.79921 0.75425 0.0
C299 C 0.90743 0.77403 0.78121 0.0
C300 C 0.88925 0.77675 0.79859 0.0
C301 C 0.90583 0.78499 0.7587 0.0
C302 C 0.86757 0.80194 0.77173 0.0
C303 C 0.84986 0.79214 0.81228 0.0
O304 O 0.80478 0.82499 0.86159 0.0
O305 O 0.78071 0.80216 0.83839 0.0
O306 O 0.82759 0.78748 0.80458 0.0
O307 O 0.85163 0.81068 0.82747 0.0
H308 H 0.80784 0.76688 0.86148 0.0
H309 H 0.80308 0.73645 0.89243 0.0
H310 H 0.75592 0.78304 0.93307 0.0
H311 H 0.76035 0.81295 0.90186 0.0
H312 H 0.74251 0.89922 0.83309 0.0
H313 H 0.77264 0.86791 0.83287 0.0
H314 H 0.76423 0.91771 0.7607 0.0
H315 H 0.79406 0.88625 0.76058 0.0
H316 H 0.8839 0.80776 0.73707 0.0
H317 H 0.92279 0.76335 0.78546 0.0
H318 H 0.89083 0.76792 0.81567 0.0
H319 H 0.85216 0.81269 0.76782 0.0
C320 C 0.28625 0.29183 0.37674 0.0
C321 C 0.29724 0.26965 0.37348 0.0
C322 C 0.2819 0.25702 0.41269 0.0
C323 C 0.29511 0.25238 0.39133 0.0
C324 C 0.27148 0.27954 0.416 0.0
C325 C 0.27362 0.29672 0.39819 0.0
U326 U 0.31197 0.31953 0.31864 0.0
O327 O 0.29213 0.3347 0.28847 0.0
O328 O 0.3176 0.35755 0.31011 0.0
C329 C 0.30093 0.35654 0.29307 0.0
C330 C 0.28697 0.30987 0.35784 0.0
C331 C 0.28295 0.37543 0.29428 0.0
C332 C 0.25427 0.39972 0.31668 0.0
C333 C 0.27117 0.38153 0.31601 0.0
C334 C 0.26054 0.4056 0.27387 0.0
C335 C 0.24875 0.41197 0.29559 0.0
C336 C 0.27747 0.38753 0.27326 0.0
C337 C 0.36503 0.29156 0.28421 0.0
C338 C 0.39514 0.31068 0.25817 0.0
C339 C 0.38584 0.26809 0.25332 0.0
C340 C 0.369 0.26957 0.27218 0.0
C341 C 0.39921 0.2886 0.24616 0.0
C342 C 0.37813 0.31218 0.27694 0.0
C343 C 0.3475 0.29235 0.30444 0.0
O344 O 0.30613 0.32456 0.35788 0.0
O345 O 0.28043 0.30214 0.33603 0.0
O346 O 0.32469 0.28761 0.29862 0.0
O347 O 0.35033 0.31026 0.32032 0.0
H348 H 0.30712 0.26557 0.357 0.0
H349 H 0.30323 0.23519 0.38813 0.0
H350 H 0.26159 0.28392 0.43238 0.0
H351 H 0.26513 0.31379 0.40108 0.0
H352 H 0.24534 0.404 0.33363 0.0
H353 H 0.27503 0.37225 0.33242 0.0
H354 H 0.25697 0.41485 0.25738 0.0
H355 H 0.28639 0.38306 0.25632 0.0
H356 H 0.40496 0.32684 0.25292 0.0
H357 H 0.38872 0.25076 0.24464 0.0
H358 H 0.35916 0.25343 0.27751 0.0
H359 H 0.37532 0.32944 0.28579 0.0
C360 C 0.47838 0.93699 0.50747 0.0
C361 C 0.49867 0.92541 0.51613 0.0
C362 C 0.49505 0.89549 0.48308 0.0
C363 C 0.50695 0.90485 0.50404 0.0
C364 C 0.47467 0.90721 0.47459 0.0
C365 C 0.46644 0.92775 0.48668 0.0
U366 U 0.48286 0.98529 0.55788 0.0
O367 O 0.47822 0.02426 0.55635 0.0
O368 O 0.45425 1.00241 0.57925 0.0
C369 C 0.45889 0.02362 0.57025 0.0
C370 C 0.46961 0.9588 0.51973 0.0
C371 C 0.43782 0.03634 0.56135 0.0
C372 C 0.3987 0.0367 0.54104 0.0
C373 C 0.41878 0.02421 0.54872 0.0
C374 C 0.41672 0.07361 0.55812 0.0
C375 C 0.39735 0.06157 0.54575 0.0
C376 C 0.43669 0.06111 0.56585 0.0
C377 C 0.53395 0.98224 0.60497 0.0
C378 C 0.53695 1.00656 0.64219 0.0
C379 C 0.57003 0.98143 0.63006 0.0
C380 C 0.55707 0.97374 0.60936 0.0
C381 C 0.56008 0.9978 0.64685 0.0
C382 C 0.52398 0.99884 0.6214 0.0
C383 C 0.52054 0.97326 0.58333 0.0
O384 O 0.46031 0.95585 0.54137 0.0
O385 O 0.48417 0.97787 0.5186 0.0
O386 O 0.52232 0.98672 0.56428 0.0
O387 O 0.49837 0.96475 0.58707 0.0
H388 H 0.50809 0.93231 0.53221 0.0
H389 H 0.52251 0.89615 0.51124 0.0
H390 H 0.46528 0.90075 0.45834 0.0
H391 H 0.4508 0.93652 0.47969 0.0
H392 H 0.38406 0.02677 0.53179 0.0
H393 H 0.41932 1.00507 0.54497 0.0
H394 H 0.41658 0.09279 0.56169 0.0
H395 H 0.45128 0.07082 0.57544 0.0
H396 H 0.52865 0.01902 0.65482 0.0
H397 H 0.58795 0.97465 0.63281 0.0
H398 H 0.56511 0.96102 0.59679 0.0
H399 H 0.50612 1.00563 0.61828 0.0
C400 C 0.22304 0.26901 0.68064 0.0
C401 C 0.24733 0.27177 0.67333 0.0
C402 C 0.24021 0.24262 0.64004 0.0
C403 C 0.25585 0.25864 0.65329 0.0
C404 C 0.21585 0.24006 0.64747 0.0
C405 C 0.20739 0.25311 0.66757 0.0
U406 U 0.22639 0.32319 0.72455 0.0
O407 O 0.19719 0.34549 0.73895 0.0
O408 O 0.21981 0.3259 0.76376 0.0
C409 C 0.20065 0.33902 0.76131 0.0
C410 C 0.21366 0.28284 0.70153 0.0
C411 C 0.17861 0.33158 0.77472 0.0
C412 C 0.15341 0.30149 0.79477 0.0
C413 C 0.17415 0.30773 0.78139 0.0
C414 C 0.14111 0.34269 0.7946 0.0
C415 C 0.13665 0.31892 0.80156 0.0
C416 C 0.16188 0.34894 0.78138 0.0
C417 C 0.27764 0.37088 0.71676 0.0
C418 C 0.29189 0.40091 0.74678 0.0
C419 C 0.30191 0.4056 0.70449 0.0
C420 C 0.28913 0.38413 0.69865 0.0
C421 C 0.30353 0.41422 0.72863 0.0
C422 C 0.27896 0.37947 0.74088 0.0
C423 C 0.26464 0.34813 0.70996 0.0
O424 O 0.22741 0.28388 0.72099 0.0
O425 O 0.20463 0.30358 0.69648 0.0
O426 O 0.24289 0.35015 0.70072 0.0
O427 O 0.26578 0.33077 0.72543 0.0
H428 H 0.2597 0.28405 0.68314 0.0
H429 H 0.27477 0.26088 0.64833 0.0
H430 H 0.20316 0.22825 0.63752 0.0
H431 H 0.18854 0.25089 0.67284 0.0
H432 H 0.15037 0.28297 0.7996 0.0
H433 H 0.1867 0.29394 0.77635 0.0
H434 H 0.12876 0.35661 0.79976 0.0
H435 H 0.16499 0.36744 0.7765 0.0
H436 H 0.29257 0.4072 0.7655 0.0
H437 H 0.31089 0.41524 0.69012 0.0
H438 H 0.28834 0.37779 0.67993 0.0
H439 H 0.27006 0.36961 0.75515 0.0
C440 C 0.78884 0.26011 0.6704 0.0
C441 C 0.80834 0.2769 0.66937 0.0
C442 C 0.78941 0.29592 0.63534 0.0
C443 C 0.80865 0.29462 0.65194 0.0
C444 C 0.76994 0.279 0.63655 0.0
C445 C 0.76969 0.26128 0.6539 0.0
U446 U 0.8134 0.23166 0.72709 0.0
O447 O 0.79362 0.21583 0.75767 0.0
O448 O 0.81755 0.19373 0.73529 0.0
C449 C 0.80143 0.19424 0.75281 0.0
C450 C 0.78807 0.24139 0.6886 0.0
C451 C 0.78272 0.17475 0.75207 0.0
C452 C 0.75134 0.15064 0.7309 0.0
C453 C 0.76869 0.16961 0.73126 0.0
C454 C 0.76166 0.14205 0.77225 0.0
C455 C 0.74765 0.13659 0.7514 0.0
C456 C 0.77901 0.16093 0.77255 0.0
C457 C 0.86883 0.26146 0.75951 0.0
C458 C 0.89072 0.24405 0.7925 0.0
C459 C 0.89935 0.28529 0.78201 0.0
C460 C 0.882 0.2831 0.7636 0.0
C461 C 0.9039 0.26584 0.79675 0.0
C462 C 0.87324 0.2419 0.77407 0.0
C463 C 0.85059 0.25987 0.74004 0.0
O464 O 0.80623 0.22676 0.68808 0.0
O465 O 0.78226 0.24863 0.71062 0.0
O466 O 0.82818 0.26384 0.74673 0.0
O467 O 0.85222 0.24169 0.72451 0.0
H468 H 0.82325 0.27632 0.68207 0.0
H469 H 0.8238 0.3075 0.65169 0.0
H470 H 0.755 0.27923 0.62386 0.0
H471 H 0.75451 0.24844 0.65442 0.0
H472 H 0.7407 0.1471 0.71465 0.0
H473 H 0.77123 0.1802 0.71529 0.0
H474 H 0.75955 0.13143 0.78823 0.0
H475 H 0.78971 0.16462 0.78876 0.0
H476 H 0.89364 0.2288 0.80365 0.0
H477 H 0.90941 0.3022 0.78452 0.0
H478 H 0.87888 0.29836 0.7525 0.0
H479 H 0.86313 0.22506 0.77122 0.0
C480 C 0.50842 0.57171 0.60792 0.0
C481 C 0.51489 0.55091 0.6196 0.0
C482 C 0.48253 0.55653 0.64914 0.0
C483 C 0.50204 0.54335 0.64002 0.0
C484 C 0.47627 0.57744 0.63735 0.0
C485 C 0.4891 0.58493 0.61694 0.0
U486 U 0.55945 0.56639 0.5613 0.0
O487 O 0.55826 0.57031 0.5218 0.0
O488 O 0.58172 0.59457 0.54418 0.0
C489 C 0.57261 0.58962 0.52255 0.0
C490 C 0.52139 0.57976 0.58621 0.0
C491 C 0.56391 0.6102 0.50938 0.0
C492 C 0.54079 0.64642 0.50767 0.0
C493 C 0.54855 0.6268 0.52045 0.0
C494 C 0.56334 0.63284 0.47256 0.0
C495 C 0.54816 0.64976 0.48357 0.0
C496 C 0.57114 0.6133 0.48536 0.0
C497 C 0.60528 0.51659 0.56703 0.0
C498 C 0.63922 0.51109 0.53957 0.0
C499 C 0.63204 0.48345 0.57195 0.0
C500 C 0.61191 0.4963 0.5794 0.0
C501 C 0.64599 0.49065 0.55194 0.0
C502 C 0.61903 0.52396 0.54706 0.0
C503 C 0.58393 0.52967 0.57523 0.0
O504 O 0.54335 0.58907 0.58991 0.0
O505 O 0.52001 0.56492 0.56731 0.0
O506 O 0.5648 0.5275 0.56106 0.0
O507 O 0.58827 0.55176 0.58342 0.0
H508 H 0.52984 0.54051 0.61288 0.0
H509 H 0.50752 0.52733 0.6488 0.0
H510 H 0.46116 0.58783 0.64363 0.0
H511 H 0.48381 0.60099 0.60809 0.0
H512 H 0.52933 0.65919 0.51683 0.0
H513 H 0.54271 0.62466 0.53899 0.0
H514 H 0.56905 0.63454 0.45393 0.0
H515 H 0.58286 0.60058 0.47648 0.0
H516 H 0.64967 0.51729 0.52426 0.0
H517 H 0.63643 0.46761 0.58166 0.0
H518 H 0.60143 0.49031 0.59479 0.0
H519 H 0.61416 0.53963 0.53732 0.0
C520 C 0.50754 0.47295 0.93426 0.0
C521 C 0.51029 0.49618 0.92536 0.0
C522 C 0.48274 0.48531 0.89195 0.0
C523 C 0.49791 0.50234 0.90443 0.0
C524 C 0.4802 0.46205 0.90096 0.0
C525 C 0.49246 0.45597 0.9219 0.0
U526 U 0.55819 0.48125 0.98167 0.0
O527 O 0.55645 0.47756 0.0212 0.0
O528 O 0.57953 0.45417 0.99927 0.0
C529 C 0.57045 0.45899 0.02079 0.0
C530 C 0.52008 0.46602 0.95635 0.0
C531 C 0.56144 0.43816 0.0343 0.0
C532 C 0.53754 0.40085 0.0368 0.0
C533 C 0.5454 0.42079 0.02372 0.0
C534 C 0.56137 0.41569 0.07124 0.0
C535 C 0.54555 0.39798 0.06071 0.0
C536 C 0.56924 0.43553 0.05814 0.0
C537 C 0.60599 0.53224 0.97664 0.0
C538 C 0.64069 0.53699 1.00369 0.0
C539 C 0.63366 0.56686 0.97384 0.0
C540 C 0.61296 0.55377 0.96583 0.0
C541 C 0.64784 0.55865 0.99285 0.0
C542 C 0.61994 0.52391 0.99565 0.0
C543 C 0.58418 0.51874 0.96785 0.0
O544 O 0.5418 0.4575 0.95313 0.0
O545 O 0.51888 0.48108 0.97503 0.0
O546 O 0.56487 0.52037 0.98166 0.0
O547 O 0.58768 0.49677 0.9597 0.0
H548 H 0.52198 0.50952 0.93459 0.0
H549 H 0.50046 0.52032 0.89784 0.0
H550 H 0.46844 0.4486 0.89201 0.0
H551 H 0.49009 0.43796 0.92852 0.0
H552 H 0.52556 0.38749 0.02802 0.0
H553 H 0.53914 0.42254 1.00531 0.0
H554 H 0.56757 0.41434 0.08971 0.0
H555 H 0.58151 0.44884 0.06665 0.0
H556 H 0.6513 0.52999 0.01818 0.0
H557 H 0.63836 0.58362 0.96534 0.0
H558 H 0.60234 0.56051 0.95119 0.0
H559 H 0.61481 0.50728 1.00421 0.0
C560 C 0.71823 0.28011 0.36117 0.0
C561 C 0.73566 0.27133 0.37677 0.0
C562 C 0.73437 0.30793 0.40196 0.0
C563 C 0.74365 0.2851 0.397 0.0
C564 C 0.71698 0.31663 0.38611 0.0
C565 C 0.709 0.30283 0.36593 0.0
U566 U 0.72243 0.22615 0.31743 0.0
O567 O 0.69342 0.20238 0.30178 0.0
O568 O 0.71721 0.22344 0.27799 0.0
C569 C 0.69773 0.20929 0.27964 0.0
C570 C 0.70945 0.26577 0.33998 0.0
C571 C 0.6763 0.21625 0.26596 0.0
C572 C 0.6492 0.24638 0.25193 0.0
C573 C 0.66968 0.24028 0.26508 0.0
C574 C 0.64158 0.20451 0.24069 0.0
C575 C 0.63487 0.22854 0.23962 0.0
C576 C 0.6621 0.19846 0.25371 0.0
C577 C 0.77293 0.18133 0.32665 0.0
C578 C 0.79183 0.15469 0.2971 0.0
C579 C 0.79391 0.1464 0.33977 0.0
C580 C 0.78067 0.16678 0.34517 0.0
C581 C 0.79981 0.14019 0.31568 0.0
C582 C 0.77842 0.17502 0.30251 0.0
C583 C 0.75983 0.20324 0.33314 0.0
O584 O 0.72406 0.26556 0.32119 0.0
O585 O 0.69999 0.24447 0.34464 0.0
O586 O 0.73774 0.19986 0.34159 0.0
O587 O 0.76174 0.22091 0.31798 0.0
H588 H 0.74299 0.25379 0.37336 0.0
H589 H 0.75683 0.27771 0.40894 0.0
H590 H 0.70973 0.33425 0.38912 0.0
H591 H 0.69561 0.30992 0.354 0.0
H592 H 0.64438 0.26501 0.25169 0.0
H593 H 0.6803 0.25429 0.27459 0.0
H594 H 0.63113 0.19037 0.23121 0.0
H595 H 0.66691 0.17983 0.25419 0.0
H596 H 0.79583 0.15024 0.27835 0.0
H597 H 0.8 0.13579 0.35452 0.0
H598 H 0.7767 0.17135 0.36391 0.0
H599 H 0.77252 0.18587 0.28785 0.0
C600 C 0.47811 0.1085 0.03707 0.0
C601 C 0.49691 0.12315 0.02785 0.0
C602 C 0.49371 0.15088 0.06261 0.0
C603 C 0.50464 0.14416 0.0405 0.0
C604 C 0.47491 0.13601 0.07173 0.0
C605 C 0.4672 0.11505 0.05906 0.0
U606 U 0.48292 0.06223 0.98498 0.0
O607 O 0.47798 0.02293 0.98505 0.0
O608 O 0.45406 0.04408 0.96306 0.0
C609 C 0.45844 0.02287 0.97143 0.0
C610 C 0.46966 0.08642 0.02402 0.0
C611 C 0.43717 1.00943 0.98076 0.0
C612 C 0.40462 1.00469 1.0101 0.0
C613 C 0.42488 1.01763 1.00147 0.0
C614 C 0.40879 0.97521 0.97742 0.0
C615 C 0.39628 0.98331 0.99815 0.0
C616 C 0.42903 0.98816 0.96883 0.0
C617 C 0.53404 0.07149 0.93804 0.0
C618 C 0.54232 0.04441 0.90394 0.0
C619 C 0.5652 0.08209 0.90886 0.0
C620 C 0.55216 0.08746 0.92987 0.0
C621 C 0.56037 0.06058 0.89551 0.0
C622 C 0.52918 0.04986 0.92503 0.0
C623 C 0.52044 0.07805 0.96003 0.0
O624 O 0.4603 0.08939 1.00251 0.0
O625 O 0.48443 0.06847 0.02447 0.0
O626 O 0.52228 0.0637 0.9783 0.0
O627 O 0.49823 0.08504 0.95661 0.0
H628 H 0.50552 0.11837 1.01084 0.0
H629 H 0.51897 0.1553 0.03282 0.0
H630 H 0.46634 0.14039 0.08885 0.0
H631 H 0.45273 0.10389 0.06648 0.0
H632 H 0.39529 1.01161 0.02592 0.0
H633 H 0.43091 0.03408 1.01089 0.0
H634 H 0.40312 0.95868 0.96797 0.0
H635 H 0.43836 0.98153 0.95286 0.0
H636 H 0.53804 0.02778 0.894 0.0
H637 H 0.57923 0.09476 0.90315 0.0
H638 H 0.55622 0.10418 0.93975 0.0
H639 H 0.51519 0.03733 0.93108 0.0
C640 C 0.22998 0.9345 0.0229 0.0
O641 O 0.23714 0.93358 1.00023 0.0
O642 O 0.25567 0.87842 0.99978 0.0
Zn643 Zn 0.26729 0.89954 0.02832 0.0
O644 O 0.29712 0.91915 0.01837 0.0
C645 C 0.28646 0.85944 0.05385 0.0
O646 O 0.29525 0.85395 0.03239 0.0
O647 O 0.24041 0.92171 0.03817 0.0
C648 C 0.31233 0.92891 0.03324 0.0
O649 O 0.30887 0.92638 0.05655 0.0
C650 C 0.27008 0.87168 0.98313 0.0
O651 O 0.29306 0.87866 0.98442 0.0
O652 O 0.27445 0.87839 0.05658 0.0
C653 C 0.1822 0.4903 0.2955 0.0
O654 O 0.18368 0.50747 0.31229 0.0
O655 O 0.12374 0.52415 0.30398 0.0
Zn656 Zn 0.14563 0.52028 0.27457 0.0
O657 O 0.16717 0.55025 0.2714 0.0
C658 C 0.11123 0.52827 0.23489 0.0
O659 O 0.10915 0.54971 0.24498 0.0
O660 O 0.16716 0.49194 0.27824 0.0
C661 C 0.17934 0.55471 0.25242 0.0
O662 O 0.17767 0.53958 0.23376 0.0
C663 C 0.11646 0.54488 0.31 0.0
O664 O 0.12325 0.56318 0.2969 0.0
O665 O 0.12537 0.51364 0.24433 0.0
C666 C 0.80967 0.61464 0.01821 0.0
O667 O 0.79845 0.60904 0.99775 0.0
O668 O 0.7803 0.67348 0.99617 0.0
Zn669 Zn 0.77238 0.65037 0.02294 0.0
O670 O 0.74491 0.62767 1.0116 0.0
C671 C 0.77035 0.6901 0.05796 0.0
O672 O 0.78698 0.69951 0.04374 0.0
O673 O 0.80186 0.63164 0.0316 0.0
C674 C 0.73167 0.61621 0.02649 0.0
O675 O 0.7363 0.6188 0.04975 0.0
C676 C 0.76314 0.68581 0.98838 0.0
O677 O 0.74142 0.68279 0.99785 0.0
O678 O 0.76148 0.66923 0.05275 0.0
C679 C 0.85948 0.05816 0.29631 0.0
O680 O 0.85457 0.03767 0.30666 0.0
O681 O 0.92046 0.02642 0.30498 0.0
Zn682 Zn 0.89963 0.03205 0.27558 0.0
O683 O 0.87892 1.00206 0.26802 0.0
C684 C 0.92859 0.02518 0.23144 0.0
O685 O 0.92263 1.00238 0.2338 0.0
O686 O 0.87785 0.05992 0.28248 0.0
C687 C 0.86341 1.00124 0.25098 0.0
O688 O 0.86096 0.02026 0.2379 0.0
C689 C 0.9317 1.00698 0.30621 0.0
O690 O 0.92971 0.99117 0.28816 0.0
O691 O 0.92102 0.04046 0.24698 0.0
C692 C 0.31374 0.11398 0.51575 0.0
O693 O 0.30231 0.10798 0.49549 0.0
O694 O 0.28421 0.17294 0.4933 0.0
Zn695 Zn 0.2765 0.14982 0.52013 0.0
O696 O 0.24913 0.12694 0.50891 0.0
C697 C 0.27438 0.18937 0.55547 0.0
O698 O 0.29126 0.19884 0.54158 0.0
O699 O 0.30609 0.13126 0.52885 0.0
C700 C 0.23621 0.11528 0.52391 0.0
O701 O 0.24113 0.1178 0.54711 0.0
C702 C 0.26713 0.18578 0.48622 0.0
O703 O 0.24573 0.18327 0.49647 0.0
O704 O 0.26546 0.16859 0.54993 0.0
C705 C 0.3552 0.55908 0.79444 0.0
O706 O 0.34888 0.53828 0.80348 0.0
O707 O 0.41684 0.52709 0.80501 0.0
Zn708 Zn 0.39619 0.53274 0.77548 0.0
O709 O 0.37544 0.50277 0.76786 0.0
C710 C 0.42543 0.52558 0.73154 0.0
O711 O 0.41921 0.50283 0.73383 0.0
O712 O 0.37462 0.56088 0.78211 0.0
C713 C 0.36009 0.50184 0.75067 0.0
O714 O 0.35774 0.52079 0.73746 0.0
C715 C 0.42838 0.50781 0.80611 0.0
O716 O 0.42677 0.49217 0.78789 0.0
O717 O 0.41789 0.54093 0.74702 0.0
C718 C 0.72609 0.43225 0.52092 0.0
O719 O 0.73 0.42787 0.49779 0.0
O720 O 0.7527 0.37823 0.49778 0.0
Zn721 Zn 0.76451 0.39833 0.52683 0.0
O722 O 0.79575 0.41611 0.51775 0.0
C723 C 0.78875 0.36634 0.56013 0.0
O724 O 0.80829 0.37087 0.54723 0.0
O725 O 0.73884 0.42197 0.53644 0.0
C726 C 0.80681 0.43143 0.53166 0.0
O727 O 0.79802 0.4359 0.55336 0.0
C728 C 0.76737 0.36552 0.48564 0.0
O729 O 0.79026 0.36567 0.49225 0.0
O730 O 0.76908 0.37619 0.55479 0.0
C731 C 0.68276 0.98798 0.79609 0.0
O732 O 0.68141 1.0032 0.81461 0.0
O733 O 0.62613 0.02251 0.8039 0.0
Zn734 Zn 0.6476 0.01894 0.77416 0.0
O735 O 0.66836 0.04938 0.77079 0.0
C736 C 0.61523 0.02733 0.73288 0.0
O737 O 0.61637 0.04988 0.74044 0.0
O738 O 0.6699 0.99111 0.77743 0.0
C739 C 0.68096 0.05376 0.75206 0.0
O740 O 0.68023 0.03822 0.73372 0.0
C741 C 0.61694 0.04272 0.80858 0.0
O742 O 0.62155 0.06041 0.79394 0.0
O743 O 0.62682 1.01193 0.74432 0.0
C744 C 1.01733 0.23312 0.93071 0.0
O745 O 0.99574 0.24173 0.93446 0.0
O746 O 0.9945 0.26418 0.87369 0.0
Zn747 Zn 0.02286 0.27218 0.89655 0.0
O748 O 1.01375 0.29939 0.91975 0.0
C749 C 0.05112 0.29535 0.85863 0.0
O750 O 0.03005 0.3039 0.85293 0.0
O751 O 0.03142 0.24308 0.9155 0.0
C752 C 0.02834 0.31635 0.9268 0.0
O753 O 0.051 0.31627 0.91946 0.0
C754 C 0.97859 0.27973 0.87027 0.0
O755 O 0.98062 0.3005 0.88203 0.0
O756 O 0.0524 0.2818 0.87663 0.0
C757 C 0.51748 0.7315 0.43004 0.0
O758 O 0.49577 0.74002 0.43328 0.0
O759 O 0.49536 0.76243 0.37277 0.0
Zn760 Zn 0.52353 0.7704 0.3958 0.0
O761 O 0.51431 0.79784 0.41858 0.0
C762 C 0.55422 0.79865 0.36357 0.0
O763 O 0.53573 0.81285 0.36395 0.0
O764 O 0.53185 0.74146 0.41507 0.0
C765 C 0.52942 0.81286 0.42844 0.0
O766 O 0.55272 0.81048 0.42448 0.0
C767 C 0.48063 0.7787 0.36799 0.0
O768 O 0.48379 0.80001 0.37847 0.0
O769 O 0.55313 0.77979 0.37593 0.0
C770 C 1.01789 0.8112 0.61051 0.0
O771 O 1.00205 0.79567 0.60072 0.0
O772 O 0.9894 0.78573 0.67392 0.0
Zn773 Zn 1.01633 0.77794 0.65027 0.0
O774 O 1.00469 0.75069 0.62761 0.0
C775 C 0.05752 0.78065 0.68328 0.0
O776 O 0.05158 0.80317 0.68586 0.0
O777 O 0.02631 0.80739 0.63142 0.0
C778 C 0.01979 0.73819 0.61582 0.0
O779 O 0.04308 0.74362 0.61804 0.0
C780 C 0.98104 0.76896 0.68695 0.0
O781 O 0.99016 0.74759 0.68439 0.0
O782 O 0.04513 0.76672 0.66904 0.0
C783 C 0.51482 0.31538 0.11603 0.0
O784 O 0.49266 0.3061 0.11394 0.0
O785 O 0.49367 0.2853 0.17452 0.0
Zn786 Zn 0.5208 0.27757 0.15093 0.0
O787 O 0.5106 0.24892 0.12938 0.0
C788 C 0.54985 0.252 0.18438 0.0
O789 O 0.52964 0.239 0.18617 0.0
O790 O 0.5295 0.30621 0.13057 0.0
C791 C 0.52585 0.23631 0.11792 0.0
O792 O 0.54906 0.24221 0.11974 0.0
C793 C 0.47201 0.27723 0.17123 0.0
O794 O 0.46685 0.26419 0.1516 0.0
O795 O 0.55049 0.26956 0.17024 0.0
C796 C 0.2282 0.83462 0.94093 0.0
C797 C 0.24439 0.82665 0.92298 0.0
H798 H 0.22356 0.85496 0.97399 0.0
C799 C 0.2691 0.83344 0.92517 0.0
H800 H 0.2091 0.82949 0.93995 0.0
C801 C 0.2774 0.848 0.9447 0.0
C802 C 0.2612 0.85608 0.96257 0.0
H803 H 0.28201 0.82788 0.91152 0.0
H804 H 0.29653 0.853 0.94569 0.0
C805 C 0.23651 0.84913 0.96051 0.0
C806 C 0.08024 0.57597 0.35926 0.0
C807 C 0.07265 0.55683 0.37373 0.0
H808 H 0.09978 0.58722 0.32799 0.0
C809 C 0.07907 0.53346 0.36669 0.0
H810 H 0.07528 0.59415 0.36389 0.0
C811 C 0.09317 0.52944 0.34593 0.0
C812 C 0.10103 0.5487 0.3317 0.0
H813 H 0.07365 0.51834 0.37751 0.0
H814 H 0.09807 0.51128 0.34116 0.0
C815 C 0.09421 0.57196 0.33855 0.0
C816 C 0.79437 0.72488 0.94161 0.0
C817 C 0.7751 0.73851 0.93364 0.0
H818 H 0.80583 0.69763 0.96519 0.0
C819 C 0.75191 0.73427 0.94355 0.0
H820 H 0.8125 0.7278 0.9345 0.0
C821 C 0.74812 0.71711 0.96116 0.0
C822 C 0.7674 0.70366 0.96933 0.0
H823 H 0.73655 0.7441 0.93756 0.0
H824 H 0.73 0.71445 0.96838 0.0
C825 C 0.79057 0.70766 0.95929 0.0
C826 C 0.97081 0.9743 0.34999 0.0
C827 C 0.97289 0.99076 0.3697 0.0
H828 H 0.95641 0.96653 0.3146 0.0
C829 C 0.96182 1.01298 0.3681 0.0
H830 H 0.97941 0.95717 0.35045 0.0
C831 C 0.94861 1.0184 0.34744 0.0
C832 C 0.94627 1.00176 0.32789 0.0
H833 H 0.96291 0.02598 0.38304 0.0
H834 H 0.94004 0.03554 0.34692 0.0
C835 C 0.9577 0.97973 0.32935 0.0
C836 C 0.241 0.20498 0.61367 0.0
C837 C 0.24915 0.22883 0.61847 0.0
H838 H 0.24249 0.17385 0.59014 0.0
C839 C 0.26579 0.23946 0.60237 0.0
H840 H 0.22848 0.19605 0.62583 0.0
C841 C 0.27402 0.22662 0.58204 0.0
C842 C 0.26576 0.20284 0.57719 0.0
H843 H 0.2722 0.25789 0.60523 0.0
H844 H 0.28673 0.23545 0.56999 0.0
C845 C 0.24915 0.19217 0.59326 0.0
C846 C 0.46083 0.56519 0.68834 0.0
C847 C 0.46855 0.54846 0.67067 0.0
H848 H 0.44135 0.57117 0.72133 0.0
C849 C 0.46238 0.52404 0.67352 0.0
H850 H 0.46555 0.5841 0.68692 0.0
C851 C 0.44856 0.5166 0.69335 0.0
C852 C 0.44061 0.53338 0.71084 0.0
H853 H 0.46778 0.5107 0.66014 0.0
H854 H 0.44393 0.49769 0.69481 0.0
C855 C 0.44705 0.55776 0.70816 0.0
C856 C 0.76816 0.32629 0.61107 0.0
C857 C 0.78957 0.3147 0.61673 0.0
H858 H 0.75111 0.35168 0.58902 0.0
C859 C 0.81095 0.32083 0.60411 0.0
H860 H 0.75145 0.32229 0.62068 0.0
C861 C 0.81078 0.33779 0.58595 0.0
C862 C 0.78925 0.34908 0.58005 0.0
H863 H 0.82771 0.31211 0.60785 0.0
H864 H 0.82748 0.34183 0.57636 0.0
C865 C 0.768 0.34327 0.59299 0.0
C866 C 0.57412 0.02941 0.67783 0.0
C867 C 0.57379 1.00543 0.66919 0.0
H868 H 0.58749 0.05517 0.70457 0.0
C869 C 0.58693 0.98873 0.68193 0.0
H870 H 0.5644 0.04279 0.66834 0.0
C871 C 0.60024 0.99582 0.7026 0.0
C872 C 0.60078 0.01983 0.71111 0.0
H873 H 0.58679 0.97004 0.67604 0.0
H874 H 0.61016 0.98244 0.71188 0.0
C875 C 0.58749 0.03653 0.69852 0.0
C876 C 0.92384 0.28971 0.83092 0.0
C877 C 0.92228 0.26855 0.81648 0.0
H878 H 0.94256 0.30972 0.85915 0.0
C879 C 0.93882 0.25048 0.82062 0.0
H880 H 0.91114 0.30381 0.82852 0.0
C881 C 0.95691 0.25383 0.83834 0.0
C882 C 0.95877 0.27529 0.85235 0.0
H883 H 0.9382 0.23402 0.80972 0.0
H884 H 0.96967 0.23979 0.84077 0.0
C885 C 0.94182 0.29303 0.8486 0.0
C886 C 0.52894 0.87063 0.46661 0.0
C887 C 0.50395 0.8738 0.46991 0.0
H888 H 0.55658 0.84903 0.45099 0.0
C889 C 0.48748 0.85633 0.46004 0.0
H890 H 0.54214 0.88384 0.47372 0.0
C891 C 0.49575 0.83642 0.4469 0.0
C892 C 0.52073 0.83345 0.44328 0.0
H893 H 0.46812 0.85798 0.46253 0.0
H894 H 0.48252 0.82344 0.43942 0.0
C895 C 0.53723 0.85071 0.45345 0.0
C896 C 0.11611 0.29712 0.83559 0.0
C897 C 0.11468 0.31248 0.81598 0.0
H898 H 0.09732 0.27982 0.86454 0.0
C899 C 0.09213 0.32201 0.81049 0.0
H900 H 0.13325 0.28969 0.84048 0.0
C901 C 0.07156 0.31642 0.8243 0.0
C902 C 0.07302 0.30121 0.84402 0.0
H903 H 0.09031 0.33365 0.79532 0.0
H904 H 0.05451 0.32406 0.81949 0.0
C905 C 0.09554 0.29159 0.84948 0.0
C906 C 0.55635 0.68274 0.45424 0.0
C907 C 0.54024 0.67081 0.46996 0.0
H908 H 0.56188 0.71108 0.42941 0.0
C909 C 0.51655 0.67914 0.47247 0.0
H910 H 0.57484 0.67712 0.45213 0.0
C911 C 0.50916 0.69881 0.45955 0.0
C912 C 0.52526 0.71063 0.44377 0.0
H913 H 0.50355 0.67024 0.48415 0.0
H914 H 0.49077 0.70466 0.46186 0.0
C915 C 0.54895 0.70235 0.44129 0.0
C916 C 0.93454 0.75826 0.73634 0.0
C917 C 0.92479 0.78105 0.73989 0.0
H918 H 0.95971 0.73662 0.717 0.0
C919 C 0.93346 0.79987 0.7255 0.0
H920 H 0.92802 0.74324 0.74676 0.0
C921 C 0.95166 0.79602 0.70823 0.0
C922 C 0.96152 0.77325 0.70492 0.0
H923 H 0.92651 0.81769 0.72788 0.0
H924 H 0.95808 0.81093 0.69759 0.0
C925 C 0.95265 0.75442 0.71912 0.0
C926 C 0.04981 0.87026 0.59524 0.0
C927 C 0.04174 0.87365 0.57147 0.0
H928 H 0.04866 0.84807 0.62617 0.0
C929 C 0.02559 0.85635 0.5608 0.0
H930 H 0.06195 0.88337 0.6042 0.0
C931 C 1.01779 0.83619 0.5735 0.0
C932 C 0.02599 0.83276 0.59719 0.0
H933 H 0.01924 0.85814 0.54243 0.0
H934 H 1.00546 0.82319 0.56463 0.0
C935 C 0.04206 0.85007 0.60792 0.0
C936 C 0.10369 0.73866 0.70778 0.0
C937 C 0.118 0.75418 0.72292 0.0
H938 H 0.07349 0.73476 0.68349 0.0
C939 C 0.11219 0.77851 0.72483 0.0
H940 H 0.10738 0.71976 0.70612 0.0
C941 C 0.09259 0.78708 0.71199 0.0
C942 C 0.07834 0.77156 0.69686 0.0
H943 H 0.12298 0.79105 0.73603 0.0
H944 H 0.0887 0.80593 0.71387 0.0
C945 C 0.08413 0.74725 0.6949 0.0
C946 C 0.97872 0.69067 0.58469 0.0
C947 C 0.99559 0.67577 0.57323 0.0
H948 H 0.97304 0.72204 0.60697 0.0
C949 C 0.02044 0.68205 0.57533 0.0
H950 H 0.95943 0.6866 0.58316 0.0
C951 C 0.02823 0.70248 0.58884 0.0
C952 C 1.01139 0.71713 0.60063 0.0
H953 H 0.03395 0.67086 0.567 0.0
H954 H 0.04753 0.70655 0.59033 0.0
C955 C 0.98652 0.71109 0.59824 0.0
C956 C 0.83593 0.93816 0.25553 0.0
C957 C 0.82018 0.93663 0.2355 0.0
H958 H 0.86204 0.9596 0.27604 0.0
C959 C 0.81858 0.95665 0.22082 0.0
H960 H 0.83777 0.92298 0.26705 0.0
C961 C 0.83248 0.97763 0.22594 0.0
C962 C 0.84842 0.97907 0.24581 0.0
H963 H 0.80641 0.95617 0.20543 0.0
H964 H 0.83078 0.99268 0.21423 0.0
C965 C 0.84994 0.95911 0.26058 0.0
C966 C 0.83368 0.12022 0.29325 0.0
C967 C 0.81463 0.11892 0.31012 0.0
H968 H 0.86286 0.10221 0.27577 0.0
C969 C 0.81022 0.09733 0.32209 0.0
H970 H 0.83772 0.13666 0.28392 0.0
C971 C 0.82463 0.07758 0.31745 0.0
C972 C 0.8439 0.07898 0.30083 0.0
H973 H 0.79551 0.09565 0.33498 0.0
H974 H 0.82074 0.06126 0.32704 0.0
C975 C 0.84819 0.10051 0.28871 0.0
C976 C 0.35755 0.95888 0.99094 0.0
C977 C 0.37465 0.96951 1.00721 0.0
H978 H 0.32458 0.93785 0.9863 0.0
C979 C 0.37096 0.96674 0.03217 0.0
H980 H 0.35961 0.96091 0.97162 0.0
C981 C 0.35076 0.95361 0.04062 0.0
C982 C 0.33372 0.94293 0.02432 0.0
H983 H 0.3839 0.97442 0.04521 0.0
H984 H 0.34857 0.95176 0.05994 0.0
C985 C 0.33736 0.94575 0.99938 0.0
C986 C 0.23106 0.4487 0.31528 0.0
C987 C 0.231 0.43149 0.29616 0.0
H988 H 0.21584 0.48075 0.33006 0.0
C989 C 0.21422 0.43342 0.27722 0.0
H990 H 0.24389 0.44787 0.33003 0.0
C991 C 0.19817 0.45227 0.2772 0.0
C992 C 0.19853 0.46973 0.29609 0.0
H993 H 0.21345 0.42029 0.26238 0.0
H994 H 0.18564 0.45326 0.26222 0.0
C995 C 0.21505 0.46763 0.31522 0.0
C996 C 0.18003 0.07394 0.52426 0.0
C997 C 0.1743 0.07155 0.49949 0.0
H998 H 0.20393 0.08955 0.55136 0.0
C999 C 0.18955 0.0832 0.48278 0.0
H1000 H 0.16856 0.06548 0.53766 0.0
C1001 C 0.20977 0.09715 0.49065 0.0
C1002 C 0.21528 0.09979 0.51544 0.0
H1003 H 0.18593 0.08146 0.46355 0.0
H1004 H 0.221 0.10598 0.47729 0.0
C1005 C 0.20026 0.08788 0.53213 0.0
C1006 C 0.72745 0.10034 0.73072 0.0
C1007 C 0.72962 0.11605 0.75105 0.0
H1008 H 0.7105 0.0684 0.71509 0.0
C1009 C 0.71497 0.11154 0.77135 0.0
H1010 H 0.73862 0.10313 0.71487 0.0
C1011 C 0.6989 0.09158 0.77152 0.0
C1012 C 0.69711 0.07559 0.7514 0.0
H1013 H 0.71591 0.12346 0.78718 0.0
H1014 H 0.68807 0.08857 0.78756 0.0
C1015 C 0.71141 0.08033 0.73091 0.0
C1016 C 0.36438 0.06949 0.51568 0.0
C1017 C 0.37582 0.07492 0.53802 0.0
H1018 H 0.33597 0.07751 0.49111 0.0
C1019 C 0.36657 0.09333 0.55295 0.0
H1020 H 0.37116 0.05566 0.50357 0.0
C1021 C 0.34652 0.10602 0.5457 0.0
C1022 C 0.33511 0.10059 0.52336 0.0
H1023 H 0.37462 0.09778 0.57045 0.0
H1024 H 0.33989 0.12002 0.55771 0.0
C1025 C 0.34427 0.08214 0.50846 0.0
C1026 C 0.6718 0.47223 0.51918 0.0
C1027 C 0.66724 0.47663 0.54392 0.0
H1028 H 0.69384 0.45483 0.49252 0.0
C1029 C 0.68278 0.46697 0.56099 0.0
H1030 H 0.66007 0.47915 0.50553 0.0
C1031 C 0.70206 0.45288 0.55354 0.0
C1032 C 0.70633 0.44811 0.52881 0.0
H1033 H 0.68008 0.47031 0.58018 0.0
H1034 H 0.71351 0.44557 0.56721 0.0
C1035 C 0.69111 0.45815 0.51172 0.0
C1036 C 0.76735 0.32336 0.43046 0.0
C1037 C 0.7428 0.32263 0.42351 0.0
H1038 H 0.79434 0.33742 0.45536 0.0
C1039 C 0.72638 0.33614 0.43728 0.0
H1040 H 0.78057 0.31346 0.42011 0.0
C1041 C 0.73431 0.35005 0.45742 0.0
C1042 C 0.75886 0.35077 0.46432 0.0
H1043 H 0.70728 0.33576 0.43267 0.0
H1044 H 0.72116 0.36019 0.46762 0.0
C1045 C 0.77528 0.33724 0.45061 0.0
C1046 C 0.57896 0.07379 0.85646 0.0
C1047 C 0.57403 0.05543 0.87278 0.0
H1048 H 0.59614 0.08419 0.82358 0.0
C1049 C 0.58275 0.03247 0.86744 0.0
H1050 H 0.57219 0.09158 0.85978 0.0
C1051 C 0.59653 0.02818 0.84652 0.0
C1052 C 0.60177 0.04672 0.83044 0.0
H1053 H 0.57941 1.01797 0.87971 0.0
H1054 H 0.60327 1.0104 0.84308 0.0
C1055 C 0.59262 0.0695 0.83559 0.0
C1056 C 0.29734 0.22375 0.43789 0.0
C1057 C 0.27832 0.23837 0.43122 0.0
H1058 H 0.30885 0.19577 0.46057 0.0
C1059 C 0.25564 0.23517 0.44252 0.0
H1060 H 0.31508 0.22585 0.42967 0.0
C1061 C 0.2521 0.21805 0.46021 0.0
C1062 C 0.27113 0.20361 0.46711 0.0
H1063 H 0.24045 0.24579 0.43755 0.0
H1064 H 0.23436 0.2162 0.4685 0.0
C1065 C 0.2938 0.20659 0.45569 0.0
C1066 C 0.45804 0.51365 0.86823 0.0
C1067 C 0.46953 0.49163 0.86965 0.0
H1068 H 0.43594 0.53603 0.84718 0.0
C1069 C 0.46787 0.47536 0.84975 0.0
H1070 H 0.45879 0.5265 0.88332 0.0
C1071 C 0.45477 0.48078 0.8291 0.0
C1072 C 0.44292 0.5026 0.82782 0.0
H1073 H 0.4768 0.4584 0.85008 0.0
H1074 H 0.4538 0.46773 0.81421 0.0
C1075 C 0.44484 0.51906 0.84757 0.0
C1076 C 0.73805 0.70606 0.11669 0.0
C1077 C 0.74621 0.72997 0.12115 0.0
H1078 H 0.73921 0.67475 0.09337 0.0
C1079 C 0.7624 0.74055 0.10459 0.0
H1080 H 0.72587 0.69719 0.1292 0.0
C1081 C 0.77025 0.72758 0.08417 0.0
C1082 C 0.76203 0.70373 0.07971 0.0
H1083 H 0.76878 0.75901 0.10717 0.0
H1084 H 0.78265 0.73636 0.0718 0.0
C1085 C 0.74582 0.69312 0.0962 0.0
C1086 C 0.96311 0.06509 0.18785 0.0
C1087 C 0.97086 0.04842 0.17014 0.0
H1088 H 0.94388 0.07091 0.22102 0.0
C1089 C 0.96499 0.02395 0.17307 0.0
H1090 H 0.96761 0.08403 0.18637 0.0
C1091 C 0.95145 1.01639 0.19304 0.0
C1092 C 0.94348 0.03311 0.21058 0.0
H1093 H 0.97042 1.01065 0.15966 0.0
H1094 H 0.94705 0.99744 0.19457 0.0
C1095 C 0.94961 0.05754 0.20781 0.0
C1096 C 0.28132 0.83217 0.11592 0.0
C1097 C 0.29178 0.80979 0.11182 0.0
H1098 H 0.27134 0.86538 0.1009 0.0
C1099 C 0.3014 0.80439 0.08882 0.0
H1100 H 0.27357 0.83681 0.13337 0.0
C1101 C 0.30016 0.82074 0.07023 0.0
C1102 C 0.28913 0.84287 0.07412 0.0
H1103 H 0.30989 0.78746 0.08516 0.0
H1104 H 0.30752 0.81583 0.05268 0.0
C1105 C 0.27994 0.8485 0.09726 0.0
C1106 C 0.06823 0.53003 0.18126 0.0
C1107 C 0.07081 0.50718 0.1703 0.0
H1108 H 0.07896 0.55467 0.2101 0.0
C1109 C 0.08667 0.49134 0.18095 0.0
H1110 H 0.05637 0.54278 0.17344 0.0
C1111 C 0.09971 0.49819 0.20185 0.0
C1112 C 0.09725 0.52108 0.21273 0.0
H1113 H 0.08883 0.47346 0.17327 0.0
H1114 H 0.11173 0.48548 0.2095 0.0
C1115 C 0.08131 0.53691 0.20221 0.0
C1116 C 0.43936 0.74866 0.32 0.0
C1117 C 0.42412 0.76742 0.31441 0.0
H1118 H 0.46925 0.73744 0.34123 0.0
C1119 C 0.42706 0.78943 0.32729 0.0
H1120 H 0.43766 0.73153 0.3103 0.0
C1121 C 0.44512 0.79283 0.34489 0.0
C1122 C 0.46076 0.77432 0.3501 0.0
H1123 H 0.41538 0.80412 0.32377 0.0
H1124 H 0.44693 0.81014 0.35422 0.0
C1125 C 0.45753 0.75208 0.33764 0.0
C1126 C 0.98655 0.3569 0.96256 0.0
C1127 C 1.00239 0.37613 0.96971 0.0
H1128 H 0.98226 0.32298 0.94362 0.0
C1129 C 0.02701 0.37512 0.96324 0.0
H1130 H 0.96755 0.35691 0.96752 0.0
C1131 C 0.03549 0.35559 0.94961 0.0
C1132 C 0.01956 0.33655 0.94215 0.0
H1133 H 0.03967 0.38972 0.9682 0.0
H1134 H 0.05449 0.35559 0.94466 0.0
C1135 C 0.99503 0.33736 0.94897 0.0
C1136 C 0.5981 0.83146 0.32211 0.0
C1137 C 0.61752 0.81581 0.32059 0.0
H1138 H 0.563 0.83833 0.33671 0.0
C1139 C 0.61587 0.79434 0.33325 0.0
H1140 H 0.59864 0.84799 0.31234 0.0
C1141 C 0.59538 0.78877 0.34724 0.0
C1142 C 0.57601 0.80448 0.3488 0.0
H1143 H 0.6306 0.78201 0.33267 0.0
H1144 H 0.59477 0.77215 0.35686 0.0
C1145 C 0.5776 0.82585 0.336 0.0
C1146 C 0.05645 0.18402 0.95382 0.0
C1147 C 0.04066 0.17216 0.96989 0.0
H1148 H 0.06157 0.21239 0.92895 0.0
C1149 C 1.01709 0.18064 0.97298 0.0
H1150 H 0.07486 0.17828 0.95126 0.0
C1151 C 1.00952 0.20039 0.9603 0.0
C1152 C 0.0253 0.21214 0.94418 0.0
H1153 H 1.00432 0.1718 0.98495 0.0
H1154 H 0.99122 0.20636 0.96307 0.0
C1155 C 0.04887 0.20371 0.94111 0.0
C1156 C 0.41237 0.27282 0.20534 0.0
C1157 C 0.41752 0.28676 0.22644 0.0
H1158 H 0.42533 0.25909 0.17137 0.0
C1159 C 0.4405 0.29833 0.22883 0.0
H1160 H 0.39474 0.26393 0.20279 0.0
C1161 C 0.45811 0.29555 0.2108 0.0
C1162 C 0.45307 0.28126 0.18988 0.0
H1163 H 0.44511 0.30904 0.24496 0.0
H1164 H 0.47577 0.30436 0.2134 0.0
C1165 C 0.42989 0.27016 0.18726 0.0
C1166 C 0.51367 0.36717 0.07299 0.0
C1167 C 0.53764 0.37659 0.07462 0.0
H1168 H 0.48764 0.34061 0.08476 0.0
C1169 C 0.55404 0.36548 0.08982 0.0
H1170 H 0.50047 0.3754 0.0617 0.0
C1171 C 0.54664 0.34566 0.10319 0.0
C1172 C 0.52265 0.33634 0.10167 0.0
H1173 H 0.57274 0.37196 0.09123 0.0
H1174 H 0.55979 0.33761 0.11469 0.0
C1175 C 0.50627 0.34728 0.08635 0.0
C1176 C 0.59149 0.22065 0.22691 0.0
C1177 C 0.613 0.23486 0.22572 0.0
H1178 H 0.55478 0.21493 0.21497 0.0
C1179 C 0.61349 0.25494 0.21094 0.0
H1180 H 0.59038 0.20524 0.23836 0.0
C1181 C 0.59304 0.26052 0.19751 0.0
C1182 C 0.57157 0.24623 0.19865 0.0
H1183 H 0.62984 0.26611 0.20942 0.0
H1184 H 0.5941 0.27601 0.18619 0.0
C1185 C 0.57102 0.22628 0.21358 0.0
C1186 C 0.48504 0.18782 0.08801 0.0
C1187 C 0.50193 0.17316 0.07625 0.0
H1188 H 0.47926 0.21919 0.11023 0.0
C1189 C 0.52673 0.17978 0.07794 0.0
H1190 H 0.46578 0.18349 0.0868 0.0
C1191 C 0.53447 0.20036 0.09127 0.0
C1192 C 0.51759 0.21485 0.10324 0.0
H1193 H 0.54027 0.16878 0.06937 0.0
H1194 H 0.55372 0.20476 0.09238 0.0
C1195 C 0.49277 0.20839 0.10134 0.0
C1196 C 0.3158 0.45695 0.72014 0.0
C1197 C 0.31752 0.4369 0.73475 0.0
H1198 H 0.3277 0.49311 0.71374 0.0
C1199 C 0.3331 0.43853 0.75491 0.0
H1200 H 0.30375 0.4564 0.70465 0.0
C1201 C 0.34686 0.4596 0.76014 0.0
C1202 C 0.34527 0.47959 0.7454 0.0
H1203 H 0.33503 0.42333 0.76638 0.0
H1204 H 0.35885 0.46016 0.77567 0.0
C1205 C 0.32946 0.47805 0.72543 0.0
C1206 C 0.33188 0.62226 0.79257 0.0
C1207 C 0.3114 0.62075 0.80768 0.0
H1208 H 0.36182 0.60414 0.77665 0.0
C1209 C 0.30523 0.59865 0.81802 0.0
H1210 H 0.3373 0.63907 0.78453 0.0
C1211 C 0.31931 0.57862 0.81355 0.0
C1212 C 0.33999 0.58022 0.79873 0.0
H1213 H 0.28941 0.59679 0.82952 0.0
H1214 H 0.31404 0.56192 0.82188 0.0
C1215 C 0.34604 0.60226 0.78819 0.0
C1216 C 0.86233 0.47369 0.53051 0.0
C1217 C 0.87085 0.47011 0.50672 0.0
H1218 H 0.83562 0.46432 0.55706 0.0
C1219 C 0.8582 0.45345 0.49134 0.0
H1220 H 0.87177 0.4861 0.54299 0.0
C1221 C 0.83759 0.44078 0.49948 0.0
C1222 C 0.82901 0.4445 0.52321 0.0
H1223 H 0.86398 0.45044 0.4728 0.0
H1224 H 0.82825 0.42823 0.48706 0.0
C1225 C 0.84166 0.46106 0.53864 0.0
C1226 C 0.72994 0.94536 0.81755 0.0
C1227 C 0.73291 0.93028 0.79699 0.0
H1228 H 0.71193 0.97538 0.8334 0.0
C1229 C 0.71882 0.93404 0.77634 0.0
H1230 H 0.74066 0.94313 0.83368 0.0
C1231 C 0.70237 0.95255 0.77615 0.0
C1232 C 0.69965 0.96784 0.79659 0.0
H1233 H 0.72041 0.92256 0.7603 0.0
H1234 H 0.69192 0.95497 0.75988 0.0
C1235 C 0.71354 0.96395 0.81734 0.0
C1236 C 0.6752 0.57524 0.02627 0.0
C1237 C 0.66981 0.57277 1.00144 0.0
H1238 H 0.69882 0.59082 0.05363 0.0
C1239 C 0.68536 0.58426 0.98488 0.0
H1240 H 0.6635 0.5669 0.03956 0.0
C1241 C 0.70555 0.59812 0.99297 0.0
C1242 C 0.71074 0.60083 0.01782 0.0
H1243 H 0.682 0.58245 0.96561 0.0
H1244 H 0.71703 0.60682 0.97971 0.0
C1245 C 0.69541 0.58909 0.03436 0.0
C1246 C 0.22621 0.6007 0.23063 0.0
C1247 C 0.22926 0.61604 0.25114 0.0
H1248 H 0.2082 0.56935 0.21494 0.0
C1249 C 0.21511 0.61146 0.27179 0.0
H1250 H 0.23697 0.60354 0.21452 0.0
C1251 C 0.19867 0.5918 0.27207 0.0
C1252 C 0.19598 0.57619 0.25173 0.0
H1253 H 0.21672 0.6231 0.28778 0.0
H1254 H 0.18824 0.58873 0.28836 0.0
C1255 C 0.2098 0.58099 0.23093 0.0
C1256 C 0.86244 0.59362 0.05525 0.0
C1257 C 0.87188 0.57553 0.04004 0.0
H1258 H 0.83558 0.62006 0.06037 0.0
C1259 C 0.86054 0.57039 0.01759 0.0
H1260 H 0.87042 0.59783 0.07283 0.0
C1261 C 0.84037 0.58304 1.01053 0.0
C1262 C 0.83105 0.60119 0.0257 0.0
H1263 H 0.86745 0.55681 1.00527 0.0
H1264 H 0.83217 0.57865 0.99308 0.0
C1265 C 0.84233 0.6063 0.04816 0.0
C1266 C 0.1775 0.97669 0.02021 0.0
C1267 C 0.16931 0.97723 0.04431 0.0
H1268 H 0.20294 0.96285 0.99455 0.0
C1269 C 0.18172 0.96406 0.06142 0.0
H1270 H 0.16825 0.98639 1.0065 0.0
C1271 C 0.20153 0.95043 0.05454 0.0
C1272 C 0.20948 0.94962 0.03038 0.0
H1273 H 0.17619 0.96436 0.08022 0.0
H1274 H 0.21052 0.94042 0.06818 0.0
C1275 C 0.19733 0.96306 1.01333 0.0
loop_
_geom_bond_atom_site_label_1
_geom_bond_atom_site_label_2
_geom_bond_distance
_geom_bond_site_symmetry_2
_ccdc_geom_bond_type
C0 C1 1.264 . S
C0 C5 1.479 . S
C0 C10 1.465 . S
C1 C0 1.264 . S
C1 C3 1.339 . S
C1 H28 0.958 . S
C2 C3 1.395 . S
C2 C4 1.320 . S
C3 C1 1.339 . S
C3 C2 1.395 . S
C3 H29 0.929 1_545 S
C4 C2 1.320 . S
C4 C5 1.405 . S
C4 H30 0.930 . S
C5 C0 1.479 . S
C5 C4 1.405 . S
C5 H31 0.931 . S
U6 O7 2.454 . S
U6 O8 2.458 . S
U6 C9 2.984 . S
U6 C10 2.847 1_455 S
U6 C23 2.882 . S
U6 O24 2.441 1_455 S
U6 O25 2.420 . S
U6 O26 2.455 . S
U6 O27 2.449 . S
O7 U6 2.454 . S
O7 C9 1.353 . S
O8 U6 2.458 . S
O8 C9 1.286 . S
C9 U6 2.984 . S
C9 O7 1.353 . S
C9 O8 1.286 . S
C9 C11 1.363 1_554 S
C10 C0 1.465 . S
C10 U6 2.847 1_655 S
C10 O24 1.249 . S
C10 O25 1.202 1_655 S
C11 C9 1.363 1_556 S
C11 C13 1.408 . S
C11 C16 1.342 . S
C12 C13 1.310 . S
C12 C15 1.461 . S
C12 H32 0.932 1_455 S
C13 C11 1.408 . S
C13 C12 1.310 . S
C13 H33 0.930 1_456 S
C14 C15 1.474 . S
C14 C16 1.285 . S
C14 H34 0.929 . S
C15 C12 1.461 . S
C15 C14 1.474 . S
C16 C11 1.342 . S
C16 C14 1.285 . S
C16 H35 0.930 . S
C17 C20 1.424 . S
C17 C22 1.245 . S
C17 C23 1.428 1_565 S
C18 C21 1.260 . S
C18 C22 1.477 . S
C18 H36 0.947 . S
C19 C20 1.384 . S
C19 C21 1.479 . S
C19 H37 0.929 . S
C20 C17 1.424 . S
C20 C19 1.384 . S
C20 H38 0.928 . S
C21 C18 1.260 . S
C21 C19 1.479 . S
C22 C17 1.245 . S
C22 C18 1.477 . S
C22 H39 0.932 1_565 S
C23 U6 2.882 . S
C23 C17 1.428 1_545 S
C23 O26 1.301 . S
C23 O27 1.282 . S
O24 U6 2.441 1_655 S
O24 C10 1.249 . S
O25 U6 2.420 . S
O25 C10 1.202 1_455 S
O26 U6 2.455 . S
O26 C23 1.301 . S
O27 U6 2.449 . S
O27 C23 1.282 . S
H28 C1 0.958 . S
H29 C3 0.929 1_565 S
H30 C4 0.930 . S
H31 C5 0.931 . S
H32 C12 0.932 1_655 S
H33 C13 0.930 1_654 S
H34 C14 0.929 . S
H35 C16 0.930 . S
H36 C18 0.947 . S
H37 C19 0.929 . S
H38 C20 0.928 . S
H39 C22 0.932 1_545 S
C40 C41 1.264 . S
C40 C45 1.479 . S
C40 C50 1.465 . S
C41 C40 1.264 . S
C41 C43 1.339 . S
C41 H68 0.931 . S
C42 C43 1.395 . S
C42 C44 1.320 . S
C43 C41 1.339 . S
C43 C42 1.395 . S
C43 H69 0.929 . S
C44 C42 1.320 . S
C44 C45 1.405 . S
C44 H70 0.930 . S
C45 C40 1.479 . S
C45 C44 1.405 . S
C45 H71 0.931 . S
U46 O47 2.454 . S
U46 O48 2.458 . S
U46 C49 2.984 . S
U46 C50 2.847 . S
U46 C63 2.882 . S
U46 O64 2.441 . S
U46 O65 2.420 . S
U46 O66 2.455 . S
U46 O67 2.449 . S
O47 U46 2.454 . S
O47 C49 1.353 . S
O48 U46 2.458 . S
O48 C49 1.286 . S
C49 U46 2.984 . S
C49 O47 1.353 . S
C49 O48 1.286 . S
C49 C51 1.363 . S
C50 C40 1.465 . S
C50 U46 2.847 . S
C50 O64 1.249 . S
C50 O65 1.202 . S
C51 C49 1.363 . S
C51 C53 1.408 . S
C51 C56 1.342 . S
C52 C53 1.310 . S
C52 C55 1.461 . S
C52 H72 0.932 . S
C53 C51 1.408 . S
C53 C52 1.310 . S
C53 H73 0.930 . S
C54 C55 1.474 . S
C54 C56 1.285 . S
C54 H74 0.929 . S
C55 C52 1.461 . S
C55 C54 1.474 . S
C56 C51 1.342 . S
C56 C54 1.285 . S
C56 H75 0.930 . S
C57 C60 1.424 . S
C57 C62 1.245 . S
C57 C63 1.428 . S
C58 C61 1.260 . S
C58 C62 1.477 . S
C58 H76 0.932 . S
C59 C60 1.384 . S
C59 C61 1.479 . S
C59 H77 0.929 . S
C60 C57 1.424 . S
C60 C59 1.384 . S
C60 H78 0.928 . S
C61 C58 1.260 . S
C61 C59 1.479 . S
C62 C57 1.245 . S
C62 C58 1.477 . S
C62 H79 0.932 . S
C63 U46 2.882 . S
C63 C57 1.428 . S
C63 O66 1.301 . S
C63 O67 1.282 . S
O64 U46 2.441 . S
O64 C50 1.249 . S
O65 U46 2.420 . S
O65 C50 1.202 . S
O66 U46 2.455 . S
O66 C63 1.301 . S
O67 U46 2.449 . S
O67 C63 1.282 . S
H68 C41 0.931 . S
H69 C43 0.929 . S
H70 C44 0.930 . S
H71 C45 0.931 . S
H72 C52 0.932 . S
H73 C53 0.930 . S
H74 C54 0.929 . S
H75 C56 0.930 . S
H76 C58 0.932 . S
H77 C59 0.929 . S
H78 C60 0.928 . S
H79 C62 0.932 . S
C80 C81 1.264 1_655 S
C80 C85 1.479 . S
C80 C90 1.465 . S
C81 C80 1.264 1_455 S
C81 C83 1.339 . S
C81 H108 0.941 . S
C82 C83 1.395 1_655 S
C82 C84 1.320 . S
C83 C81 1.339 . S
C83 C82 1.395 1_455 S
C83 H109 0.929 . S
C84 C82 1.320 . S
C84 C85 1.405 . S
C84 H110 0.930 . S
C85 C80 1.479 . S
C85 C84 1.405 . S
C85 H111 0.931 . S
U86 O87 2.454 . S
U86 O88 2.458 . S
U86 C89 2.984 . S
U86 C90 2.847 1_554 S
U86 C103 2.882 1_655 S
U86 O104 2.441 1_554 S
U86 O105 2.420 . S
U86 O106 2.455 . S
U86 O107 2.449 1_655 S
O87 U86 2.454 . S
O87 C89 1.353 . S
O88 U86 2.458 . S
O88 C89 1.286 . S
C89 U86 2.984 . S
C89 O87 1.353 . S
C89 O88 1.286 . S
C89 C91 1.363 . S
C90 C80 1.465 . S
C90 U86 2.847 1_556 S
C90 O104 1.249 . S
C90 O105 1.202 1_556 S
C91 C89 1.363 . S
C91 C93 1.408 . S
C91 C96 1.342 . S
C92 C93 1.310 . S
C92 C95 1.461 . S
C92 H112 0.932 1_554 S
C93 C91 1.408 . S
C93 C92 1.310 . S
C93 H113 0.930 1_554 S
C94 C95 1.474 . S
C94 C96 1.285 . S
C94 H114 0.929 . S
C95 C92 1.461 . S
C95 C94 1.474 . S
C96 C91 1.342 . S
C96 C94 1.285 . S
C96 H115 0.930 . S
C97 C100 1.424 . S
C97 C102 1.245 . S
C97 C103 1.428 . S
C98 C101 1.260 . S
C98 C102 1.477 . S
C98 H116 0.932 . S
C99 C100 1.384 . S
C99 C101 1.479 . S
C99 H117 0.929 . S
C100 C97 1.424 . S
C100 C99 1.384 . S
C100 H118 0.928 . S
C101 C98 1.260 . S
C101 C99 1.479 . S
C102 C97 1.245 . S
C102 C98 1.477 . S
C102 H119 0.932 . S
C103 U86 2.882 1_455 S
C103 C97 1.428 . S
C103 O106 1.301 1_455 S
C103 O107 1.282 . S
O104 U86 2.441 1_556 S
O104 C90 1.249 . S
O105 U86 2.420 . S
O105 C90 1.202 1_554 S
O106 U86 2.455 . S
O106 C103 1.301 1_655 S
O107 U86 2.449 1_455 S
O107 C103 1.282 . S
H108 C81 0.941 . S
H109 C83 0.929 . S
H110 C84 0.930 . S
H111 C85 0.931 . S
H112 C92 0.932 1_556 S
H113 C93 0.930 1_556 S
H114 C94 0.929 . S
H115 C96 0.930 . S
H116 C98 0.932 . S
H117 C99 0.929 . S
H118 C100 0.928 . S
H119 C102 0.932 . S
C120 C121 1.264 . S
C120 C125 1.479 . S
C120 C130 1.465 . S
C121 C120 1.264 . S
C121 C123 1.339 . S
C121 H148 0.931 . S
C122 C123 1.395 . S
C122 C124 1.320 . S
C123 C121 1.339 . S
C123 C122 1.395 . S
C123 H149 0.929 . S
C124 C122 1.320 . S
C124 C125 1.405 . S
C124 H150 0.930 . S
C125 C120 1.479 . S
C125 C124 1.405 . S
C125 H151 0.931 . S
U126 O127 2.454 . S
U126 O128 2.458 . S
U126 C129 2.984 . S
U126 C130 2.847 . S
U126 C143 2.882 . S
U126 O144 2.441 . S
U126 O145 2.420 . S
U126 O146 2.455 . S
U126 O147 2.449 . S
O127 U126 2.454 . S
O127 C129 1.353 . S
O128 U126 2.458 . S
O128 C129 1.286 . S
C129 U126 2.984 . S
C129 O127 1.353 . S
C129 O128 1.286 . S
C129 C131 1.363 . S
C130 C120 1.465 . S
C130 U126 2.847 . S
C130 O144 1.249 . S
C130 O145 1.202 . S
C131 C129 1.363 . S
C131 C133 1.408 . S
C131 C136 1.342 . S
C132 C133 1.310 . S
C132 C135 1.461 . S
C132 H152 0.932 . S
C133 C131 1.408 . S
C133 C132 1.310 . S
C133 H153 0.930 . S
C134 C135 1.474 . S
C134 C136 1.285 . S
C134 H154 0.929 . S
C135 C132 1.461 . S
C135 C134 1.474 . S
C136 C131 1.342 . S
C136 C134 1.285 . S
C136 H155 0.930 . S
C137 C140 1.424 . S
C137 C142 1.245 . S
C137 C143 1.428 . S
C138 C141 1.260 . S
C138 C142 1.477 . S
C138 H156 0.932 . S
C139 C140 1.384 . S
C139 C141 1.479 . S
C139 H157 0.929 . S
C140 C137 1.424 . S
C140 C139 1.384 . S
C140 H158 0.928 . S
C141 C138 1.260 . S
C141 C139 1.479 . S
C142 C137 1.245 . S
C142 C138 1.477 . S
C142 H159 0.932 . S
C143 U126 2.882 . S
C143 C137 1.428 . S
C143 O146 1.301 . S
C143 O147 1.282 . S
O144 U126 2.441 . S
O144 C130 1.249 . S
O145 U126 2.420 . S
O145 C130 1.202 . S
O146 U126 2.455 . S
O146 C143 1.301 . S
O147 U126 2.449 . S
O147 C143 1.282 . S
H148 C121 0.931 . S
H149 C123 0.929 . S
H150 C124 0.930 . S
H151 C125 0.931 . S
H152 C132 0.932 . S
H153 C133 0.930 . S
H154 C134 0.929 . S
H155 C136 0.930 . S
H156 C138 0.932 . S
H157 C139 0.929 . S
H158 C140 0.928 . S
H159 C142 0.932 . S
C160 C161 1.264 1_565 S
C160 C165 1.479 . S
C160 C170 1.469 . S
C161 C160 1.264 1_545 S
C161 C163 1.339 . S
C161 H188 0.931 1_655 S
C162 C163 1.395 1_565 S
C162 C164 1.320 . S
C163 C161 1.339 . S
C163 C162 1.395 1_545 S
C163 H189 0.929 . S
C164 C162 1.320 . S
C164 C165 1.405 . S
C164 H190 0.930 . S
C165 C160 1.479 . S
C165 C164 1.405 . S
C165 H191 0.931 . S
U166 O167 2.454 . S
U166 O168 2.458 . S
U166 C169 2.984 . S
U166 C170 2.841 1_455 S
U166 C183 2.882 1_565 S
U166 O184 2.441 1_455 S
U166 O185 2.401 1_565 S
U166 O186 2.455 . S
U166 O187 2.449 1_565 S
O167 U166 2.454 . S
O167 C169 1.353 . S
O168 U166 2.458 . S
O168 C169 1.286 . S
C169 U166 2.984 . S
C169 O167 1.353 . S
C169 O168 1.286 . S
C169 C171 1.363 . S
C170 C160 1.469 . S
C170 U166 2.841 1_655 S
C170 O184 1.250 . S
C170 O185 1.173 1_665 S
C171 C169 1.363 . S
C171 C173 1.408 . S
C171 C176 1.342 . S
C172 C173 1.310 . S
C172 C175 1.461 . S
C172 H192 0.932 1_455 S
C173 C171 1.408 . S
C173 C172 1.310 . S
C173 H193 0.930 1_455 S
C174 C175 1.474 . S
C174 C176 1.285 . S
C174 H194 0.929 . S
C175 C172 1.461 . S
C175 C174 1.474 . S
C176 C171 1.342 . S
C176 C174 1.285 . S
C176 H195 0.930 . S
C177 C180 1.424 . S
C177 C182 1.245 . S
C177 C183 1.428 . S
C178 C181 1.260 . S
C178 C182 1.477 . S
C178 H196 0.932 . S
C179 C180 1.384 . S
C179 C181 1.479 . S
C179 H197 0.929 . S
C180 C177 1.424 . S
C180 C179 1.384 . S
C180 H198 0.928 . S
C181 C178 1.260 . S
C181 C179 1.479 . S
C182 C177 1.245 . S
C182 C178 1.477 . S
C182 H199 0.932 . S
C183 U166 2.882 1_545 S
C183 C177 1.428 . S
C183 O186 1.301 1_545 S
C183 O187 1.282 . S
O184 U166 2.441 1_655 S
O184 C170 1.250 . S
O185 U166 2.401 1_545 S
O185 C170 1.173 1_445 S
O186 U166 2.455 . S
O186 C183 1.301 1_565 S
O187 U166 2.449 1_545 S
O187 C183 1.282 . S
H188 C161 0.931 1_455 S
H189 C163 0.929 . S
H190 C164 0.930 . S
H191 C165 0.931 . S
H192 C172 0.932 1_655 S
H193 C173 0.930 1_655 S
H194 C174 0.929 . S
H195 C176 0.930 . S
H196 C178 0.932 . S
H197 C179 0.929 . S
H198 C180 0.928 . S
H199 C182 0.932 . S
C200 C201 1.264 . S
C200 C205 1.479 . S
C200 C210 1.465 . S
C201 C200 1.264 . S
C201 C203 1.339 . S
C201 H228 0.931 . S
C202 C203 1.395 . S
C202 C204 1.320 . S
C203 C201 1.339 . S
C203 C202 1.395 . S
C203 H229 0.929 . S
C204 C202 1.320 . S
C204 C205 1.405 . S
C204 H230 0.930 . S
C205 C200 1.479 . S
C205 C204 1.405 . S
C205 H231 0.931 . S
U206 O207 2.454 . S
U206 O208 2.458 . S
U206 C209 2.984 . S
U206 C210 2.847 . S
U206 C223 2.882 . S
U206 O224 2.441 . S
U206 O225 2.420 . S
U206 O226 2.455 . S
U206 O227 2.449 . S
O207 U206 2.454 . S
O207 C209 1.353 . S
O208 U206 2.458 . S
O208 C209 1.286 . S
C209 U206 2.984 . S
C209 O207 1.353 . S
C209 O208 1.286 . S
C209 C211 1.363 . S
C210 C200 1.465 . S
C210 U206 2.847 . S
C210 O224 1.249 . S
C210 O225 1.202 . S
C211 C209 1.363 . S
C211 C213 1.408 . S
C211 C216 1.342 . S
C212 C213 1.310 . S
C212 C215 1.461 . S
C212 H232 0.932 . S
C213 C211 1.408 . S
C213 C212 1.310 . S
C213 H233 0.930 . S
C214 C215 1.474 . S
C214 C216 1.285 . S
C214 H234 0.929 . S
C215 C212 1.461 . S
C215 C214 1.474 . S
C216 C211 1.342 . S
C216 C214 1.285 . S
C216 H235 0.930 . S
C217 C220 1.424 . S
C217 C222 1.245 . S
C217 C223 1.428 . S
C218 C221 1.260 . S
C218 C222 1.477 . S
C218 H236 0.932 . S
C219 C220 1.384 . S
C219 C221 1.479 . S
C219 H237 0.929 . S
C220 C217 1.424 . S
C220 C219 1.384 . S
C220 H238 0.928 . S
C221 C218 1.260 . S
C221 C219 1.479 . S
C222 C217 1.245 . S
C222 C218 1.477 . S
C222 H239 0.932 . S
C223 U206 2.882 . S
C223 C217 1.428 . S
C223 O226 1.301 . S
C223 O227 1.282 . S
O224 U206 2.441 . S
O224 C210 1.249 . S
O225 U206 2.420 . S
O225 C210 1.202 . S
O226 U206 2.455 . S
O226 C223 1.301 . S
O227 U206 2.449 . S
O227 C223 1.282 . S
H228 C201 0.931 . S
H229 C203 0.929 . S
H230 C204 0.930 . S
H231 C205 0.931 . S
H232 C212 0.932 . S
H233 C213 0.930 . S
H234 C214 0.929 . S
H235 C216 0.930 . S
H236 C218 0.932 . S
H237 C219 0.929 . S
H238 C220 0.928 . S
H239 C222 0.932 . S
C240 C241 1.264 1_655 S
C240 C245 1.479 . S
C240 C250 1.465 . S
C241 C240 1.264 1_455 S
C241 C243 1.339 . S
C241 H268 0.931 . S
C242 C243 1.395 1_655 S
C242 C244 1.320 . S
C243 C241 1.339 . S
C243 C242 1.395 1_455 S
C243 H269 0.929 . S
C244 C242 1.320 . S
C244 C245 1.405 . S
C244 H270 0.930 . S
C245 C240 1.479 . S
C245 C244 1.405 . S
C245 H271 0.931 . S
U246 O247 2.454 . S
U246 O248 2.458 . S
U246 C249 2.984 . S
U246 C250 2.847 . S
U246 C263 2.882 1_655 S
U246 O264 2.441 . S
U246 O265 2.420 . S
U246 O266 2.455 . S
U246 O267 2.449 1_655 S
O247 U246 2.454 . S
O247 C249 1.353 . S
O248 U246 2.458 . S
O248 C249 1.286 . S
C249 U246 2.984 . S
C249 O247 1.353 . S
C249 O248 1.286 . S
C249 C251 1.363 . S
C250 C240 1.465 . S
C250 U246 2.847 . S
C250 O264 1.249 . S
C250 O265 1.202 . S
C251 C249 1.363 . S
C251 C253 1.408 . S
C251 C256 1.342 . S
C252 C253 1.310 . S
C252 C255 1.461 . S
C252 H272 0.932 . S
C253 C251 1.408 . S
C253 C252 1.310 . S
C253 H273 0.930 . S
C254 C255 1.474 . S
C254 C256 1.285 . S
C254 H274 0.929 . S
C255 C252 1.461 . S
C255 C254 1.474 . S
C256 C251 1.342 . S
C256 C254 1.285 . S
C256 H275 0.930 . S
C257 C260 1.424 . S
C257 C262 1.245 . S
C257 C263 1.428 . S
C258 C261 1.260 . S
C258 C262 1.477 . S
C258 H276 0.932 . S
C259 C260 1.384 . S
C259 C261 1.479 . S
C259 H277 0.929 . S
C260 C257 1.424 . S
C260 C259 1.384 . S
C260 H278 0.928 . S
C261 C258 1.260 . S
C261 C259 1.479 . S
C262 C257 1.245 . S
C262 C258 1.477 . S
C262 H279 0.926 1_455 S
C263 U246 2.882 1_455 S
C263 C257 1.428 . S
C263 O266 1.301 1_455 S
C263 O267 1.282 . S
O264 U246 2.441 . S
O264 C250 1.249 . S
O265 U246 2.420 . S
O265 C250 1.202 . S
O266 U246 2.455 . S
O266 C263 1.301 1_655 S
O267 U246 2.449 1_455 S
O267 C263 1.282 . S
H268 C241 0.931 . S
H269 C243 0.929 . S
H270 C244 0.930 . S
H271 C245 0.931 . S
H272 C252 0.932 . S
H273 C253 0.930 . S
H274 C254 0.929 . S
H275 C256 0.930 . S
H276 C258 0.932 . S
H277 C259 0.929 . S
H278 C260 0.928 . S
H279 C262 0.926 1_655 S
C280 C281 1.264 . S
C280 C285 1.479 . S
C280 C290 1.465 . S
C281 C280 1.264 . S
C281 C283 1.339 . S
C281 H308 0.931 . S
C282 C283 1.395 . S
C282 C284 1.320 . S
C283 C281 1.339 . S
C283 C282 1.395 . S
C283 H309 0.929 . S
C284 C282 1.320 . S
C284 C285 1.405 . S
C284 H310 0.930 . S
C285 C280 1.479 . S
C285 C284 1.405 . S
C285 H311 0.931 . S
U286 O287 2.454 . S
U286 O288 2.458 . S
U286 C289 2.984 . S
U286 C290 2.847 . S
U286 C303 2.882 . S
U286 O304 2.441 . S
U286 O305 2.420 . S
U286 O306 2.455 . S
U286 O307 2.449 . S
O287 U286 2.454 . S
O287 C289 1.353 . S
O288 U286 2.458 . S
O288 C289 1.286 . S
C289 U286 2.984 . S
C289 O287 1.353 . S
C289 O288 1.286 . S
C289 C291 1.363 . S
C290 C280 1.465 . S
C290 U286 2.847 . S
C290 O304 1.249 . S
C290 O305 1.202 . S
C291 C289 1.363 . S
C291 C293 1.408 . S
C291 C296 1.342 . S
C292 C293 1.310 . S
C292 C295 1.461 . S
C292 H312 0.932 . S
C293 C291 1.408 . S
C293 C292 1.310 . S
C293 H313 0.930 . S
C294 C295 1.474 . S
C294 C296 1.285 . S
C294 H314 0.929 . S
C295 C292 1.461 . S
C295 C294 1.474 . S
C296 C291 1.342 . S
C296 C294 1.285 . S
C296 H315 0.930 . S
C297 C300 1.424 . S
C297 C302 1.245 . S
C297 C303 1.428 . S
C298 C301 1.260 . S
C298 C302 1.477 . S
C298 H316 0.932 . S
C299 C300 1.384 . S
C299 C301 1.479 . S
C299 H317 0.929 . S
C300 C297 1.424 . S
C300 C299 1.384 . S
C300 H318 0.928 . S
C301 C298 1.260 . S
C301 C299 1.479 . S
C302 C297 1.245 . S
C302 C298 1.477 . S
C302 H319 0.932 . S
C303 U286 2.882 . S
C303 C297 1.428 . S
C303 O306 1.301 . S
C303 O307 1.282 . S
O304 U286 2.441 . S
O304 C290 1.249 . S
O305 U286 2.420 . S
O305 C290 1.202 . S
O306 U286 2.455 . S
O306 C303 1.301 . S
O307 U286 2.449 . S
O307 C303 1.282 . S
H308 C281 0.931 . S
H309 C283 0.929 . S
H310 C284 0.930 . S
H311 C285 0.931 . S
H312 C292 0.932 . S
H313 C293 0.930 . S
H314 C294 0.929 . S
H315 C296 0.930 . S
H316 C298 0.932 . S
H317 C299 0.929 . S
H318 C300 0.928 . S
H319 C302 0.932 . S
C320 C321 1.264 . S
C320 C325 1.479 . S
C320 C330 1.465 . S
C321 C320 1.264 . S
C321 C323 1.339 . S
C321 H348 0.931 . S
C322 C323 1.395 . S
C322 C324 1.320 . S
C323 C321 1.339 . S
C323 C322 1.395 . S
C323 H349 0.929 . S
C324 C322 1.320 . S
C324 C325 1.405 . S
C324 H350 0.930 . S
C325 C320 1.479 . S
C325 C324 1.405 . S
C325 H351 0.931 . S
U326 O327 2.454 . S
U326 O328 2.458 . S
U326 C329 2.984 . S
U326 C330 2.847 . S
U326 C343 2.882 . S
U326 O344 2.441 . S
U326 O345 2.420 . S
U326 O346 2.455 . S
U326 O347 2.449 . S
O327 U326 2.454 . S
O327 C329 1.353 . S
O328 U326 2.458 . S
O328 C329 1.286 . S
C329 U326 2.984 . S
C329 O327 1.353 . S
C329 O328 1.286 . S
C329 C331 1.363 . S
C330 C320 1.465 . S
C330 U326 2.847 . S
C330 O344 1.249 . S
C330 O345 1.202 . S
C331 C329 1.363 . S
C331 C333 1.408 . S
C331 C336 1.342 . S
C332 C333 1.310 . S
C332 C335 1.461 . S
C332 H352 0.932 . S
C333 C331 1.408 . S
C333 C332 1.310 . S
C333 H353 0.930 . S
C334 C335 1.474 . S
C334 C336 1.285 . S
C334 H354 0.929 . S
C335 C332 1.461 . S
C335 C334 1.474 . S
C336 C331 1.342 . S
C336 C334 1.285 . S
C336 H355 0.930 . S
C337 C340 1.424 . S
C337 C342 1.245 . S
C337 C343 1.428 . S
C338 C341 1.260 . S
C338 C342 1.477 . S
C338 H356 0.932 . S
C339 C340 1.384 . S
C339 C341 1.479 . S
C339 H357 0.929 . S
C340 C337 1.424 . S
C340 C339 1.384 . S
C340 H358 0.928 . S
C341 C338 1.260 . S
C341 C339 1.479 . S
C342 C337 1.245 . S
C342 C338 1.477 . S
C342 H359 0.932 . S
C343 U326 2.882 . S
C343 C337 1.428 . S
C343 O346 1.301 . S
C343 O347 1.282 . S
O344 U326 2.441 . S
O344 C330 1.249 . S
O345 U326 2.420 . S
O345 C330 1.202 . S
O346 U326 2.455 . S
O346 C343 1.301 . S
O347 U326 2.449 . S
O347 C343 1.282 . S
H348 C321 0.931 . S
H349 C323 0.929 . S
H350 C324 0.930 . S
H351 C325 0.931 . S
H352 C332 0.932 . S
H353 C333 0.930 . S
H354 C334 0.929 . S
H355 C336 0.930 . S
H356 C338 0.932 . S
H357 C339 0.929 . S
H358 C340 0.928 . S
H359 C342 0.932 . S
C360 C361 1.264 . S
C360 C365 1.479 . S
C360 C370 1.465 . S
C361 C360 1.264 . S
C361 C363 1.339 . S
C361 H388 0.931 . S
C362 C363 1.395 . S
C362 C364 1.320 . S
C363 C361 1.339 . S
C363 C362 1.395 . S
C363 H389 0.929 . S
C364 C362 1.320 . S
C364 C365 1.405 . S
C364 H390 0.930 . S
C365 C360 1.479 . S
C365 C364 1.405 . S
C365 H391 0.931 . S
U366 O367 2.454 . S
U366 O368 2.458 1_565 S
U366 C369 2.984 1_565 S
U366 C370 2.847 . S
U366 C383 2.882 . S
U366 O384 2.441 . S
U366 O385 2.420 . S
U366 O386 2.455 . S
U366 O387 2.449 . S
O367 U366 2.454 . S
O367 C369 1.353 1_565 S
O368 U366 2.458 1_545 S
O368 C369 1.286 . S
C369 U366 2.984 1_545 S
C369 O367 1.353 1_545 S
C369 O368 1.286 . S
C369 C371 1.363 . S
C370 C360 1.465 . S
C370 U366 2.847 . S
C370 O384 1.249 . S
C370 O385 1.202 . S
C371 C369 1.363 . S
C371 C373 1.408 . S
C371 C376 1.342 . S
C372 C373 1.310 . S
C372 C375 1.461 . S
C372 H392 0.932 . S
C373 C371 1.408 . S
C373 C372 1.310 . S
C373 H393 0.930 . S
C374 C375 1.474 . S
C374 C376 1.285 . S
C374 H394 0.929 . S
C375 C372 1.461 . S
C375 C374 1.474 . S
C376 C371 1.342 . S
C376 C374 1.285 . S
C376 H395 0.930 . S
C377 C380 1.424 . S
C377 C382 1.245 1_565 S
C377 C383 1.428 . S
C378 C381 1.260 1_545 S
C378 C382 1.477 . S
C378 H396 0.932 . S
C379 C380 1.384 . S
C379 C381 1.479 . S
C379 H397 0.929 . S
C380 C377 1.424 . S
C380 C379 1.384 . S
C380 H398 0.928 . S
C381 C378 1.260 1_565 S
C381 C379 1.479 . S
C382 C377 1.245 1_545 S
C382 C378 1.477 . S
C382 H399 0.932 . S
C383 U366 2.882 . S
C383 C377 1.428 . S
C383 O386 1.301 . S
C383 O387 1.282 . S
O384 U366 2.441 . S
O384 C370 1.249 . S
O385 U366 2.420 . S
O385 C370 1.202 . S
O386 U366 2.455 . S
O386 C383 1.301 . S
O387 U366 2.449 . S
O387 C383 1.282 . S
H388 C361 0.931 . S
H389 C363 0.929 . S
H390 C364 0.930 . S
H391 C365 0.931 . S
H392 C372 0.932 . S
H393 C373 0.930 . S
H394 C374 0.929 . S
H395 C376 0.930 . S
H396 C378 0.932 . S
H397 C379 0.929 . S
H398 C380 0.928 . S
H399 C382 0.932 . S
C400 C401 1.264 . S
C400 C405 1.479 . S
C400 C410 1.465 . S
C401 C400 1.264 . S
C401 C403 1.339 . S
C401 H428 0.931 . S
C402 C403 1.395 . S
C402 C404 1.320 . S
C403 C401 1.339 . S
C403 C402 1.395 . S
C403 H429 0.929 . S
C404 C402 1.320 . S
C404 C405 1.405 . S
C404 H430 0.930 . S
C405 C400 1.479 . S
C405 C404 1.405 . S
C405 H431 0.931 . S
U406 O407 2.454 . S
U406 O408 2.458 . S
U406 C409 2.984 . S
U406 C410 2.847 . S
U406 C423 2.882 . S
U406 O424 2.441 . S
U406 O425 2.420 . S
U406 O426 2.455 . S
U406 O427 2.449 . S
O407 U406 2.454 . S
O407 C409 1.353 . S
O408 U406 2.458 . S
O408 C409 1.286 . S
C409 U406 2.984 . S
C409 O407 1.353 . S
C409 O408 1.286 . S
C409 C411 1.363 . S
C410 C400 1.465 . S
C410 U406 2.847 . S
C410 O424 1.249 . S
C410 O425 1.202 . S
C411 C409 1.363 . S
C411 C413 1.408 . S
C411 C416 1.342 . S
C412 C413 1.310 . S
C412 C415 1.461 . S
C412 H432 0.932 . S
C413 C411 1.408 . S
C413 C412 1.310 . S
C413 H433 0.930 . S
C414 C415 1.474 . S
C414 C416 1.285 . S
C414 H434 0.929 . S
C415 C412 1.461 . S
C415 C414 1.474 . S
C416 C411 1.342 . S
C416 C414 1.285 . S
C416 H435 0.930 . S
C417 C420 1.424 . S
C417 C422 1.245 . S
C417 C423 1.428 . S
C418 C421 1.260 . S
C418 C422 1.477 . S
C418 H436 0.932 . S
C419 C420 1.384 . S
C419 C421 1.479 . S
C419 H437 0.929 . S
C420 C417 1.424 . S
C420 C419 1.384 . S
C420 H438 0.928 . S
C421 C418 1.260 . S
C421 C419 1.479 . S
C422 C417 1.245 . S
C422 C418 1.477 . S
C422 H439 0.932 . S
C423 U406 2.882 . S
C423 C417 1.428 . S
C423 O426 1.301 . S
C423 O427 1.282 . S
O424 U406 2.441 . S
O424 C410 1.249 . S
O425 U406 2.420 . S
O425 C410 1.202 . S
O426 U406 2.455 . S
O426 C423 1.301 . S
O427 U406 2.449 . S
O427 C423 1.282 . S
H428 C401 0.931 . S
H429 C403 0.929 . S
H430 C404 0.930 . S
H431 C405 0.931 . S
H432 C412 0.932 . S
H433 C413 0.930 . S
H434 C414 0.929 . S
H435 C416 0.930 . S
H436 C418 0.932 . S
H437 C419 0.929 . S
H438 C420 0.928 . S
H439 C422 0.932 . S
C440 C441 1.264 . S
C440 C445 1.479 . S
C440 C450 1.465 . S
C441 C440 1.264 . S
C441 C443 1.339 . S
C441 H468 0.931 . S
C442 C443 1.395 . S
C442 C444 1.320 . S
C443 C441 1.339 . S
C443 C442 1.395 . S
C443 H469 0.929 . S
C444 C442 1.320 . S
C444 C445 1.405 . S
C444 H470 0.930 . S
C445 C440 1.479 . S
C445 C444 1.405 . S
C445 H471 0.931 . S
U446 O447 2.454 . S
U446 O448 2.458 . S
U446 C449 2.984 . S
U446 C450 2.847 . S
U446 C463 2.882 . S
U446 O464 2.441 . S
U446 O465 2.420 . S
U446 O466 2.455 . S
U446 O467 2.449 . S
O447 U446 2.454 . S
O447 C449 1.353 . S
O448 U446 2.458 . S
O448 C449 1.286 . S
C449 U446 2.984 . S
C449 O447 1.353 . S
C449 O448 1.286 . S
C449 C451 1.363 . S
C450 C440 1.465 . S
C450 U446 2.847 . S
C450 O464 1.249 . S
C450 O465 1.202 . S
C451 C449 1.363 . S
C451 C453 1.408 . S
C451 C456 1.342 . S
C452 C453 1.310 . S
C452 C455 1.461 . S
C452 H472 0.932 . S
C453 C451 1.408 . S
C453 C452 1.310 . S
C453 H473 0.930 . S
C454 C455 1.474 . S
C454 C456 1.285 . S
C454 H474 0.929 . S
C455 C452 1.461 . S
C455 C454 1.474 . S
C456 C451 1.342 . S
C456 C454 1.285 . S
C456 H475 0.930 . S
C457 C460 1.424 . S
C457 C462 1.245 . S
C457 C463 1.428 . S
C458 C461 1.260 . S
C458 C462 1.477 . S
C458 H476 0.932 . S
C459 C460 1.384 . S
C459 C461 1.479 . S
C459 H477 0.929 . S
C460 C457 1.424 . S
C460 C459 1.384 . S
C460 H478 0.928 . S
C461 C458 1.260 . S
C461 C459 1.479 . S
C462 C457 1.245 . S
C462 C458 1.477 . S
C462 H479 0.932 . S
C463 U446 2.882 . S
C463 C457 1.428 . S
C463 O466 1.301 . S
C463 O467 1.282 . S
O464 U446 2.441 . S
O464 C450 1.249 . S
O465 U446 2.420 . S
O465 C450 1.202 . S
O466 U446 2.455 . S
O466 C463 1.301 . S
O467 U446 2.449 . S
O467 C463 1.282 . S
H468 C441 0.931 . S
H469 C443 0.929 . S
H470 C444 0.930 . S
H471 C445 0.931 . S
H472 C452 0.932 . S
H473 C453 0.930 . S
H474 C454 0.929 . S
H475 C456 0.930 . S
H476 C458 0.932 . S
H477 C459 0.929 . S
H478 C460 0.928 . S
H479 C462 0.932 . S
C480 C481 1.264 . S
C480 C485 1.479 . S
C480 C490 1.465 . S
C481 C480 1.264 . S
C481 C483 1.339 . S
C481 H508 0.931 . S
C482 C483 1.395 . S
C482 C484 1.320 . S
C483 C481 1.339 . S
C483 C482 1.395 . S
C483 H509 0.929 . S
C484 C482 1.320 . S
C484 C485 1.405 . S
C484 H510 0.930 . S
C485 C480 1.479 . S
C485 C484 1.405 . S
C485 H511 0.931 . S
U486 O487 2.454 . S
U486 O488 2.458 . S
U486 C489 2.984 . S
U486 C490 2.847 . S
U486 C503 2.882 . S
U486 O504 2.441 . S
U486 O505 2.420 . S
U486 O506 2.455 . S
U486 O507 2.449 . S
O487 U486 2.454 . S
O487 C489 1.353 . S
O488 U486 2.458 . S
O488 C489 1.286 . S
C489 U486 2.984 . S
C489 O487 1.353 . S
C489 O488 1.286 . S
C489 C491 1.363 . S
C490 C480 1.465 . S
C490 U486 2.847 . S
C490 O504 1.249 . S
C490 O505 1.202 . S
C491 C489 1.363 . S
C491 C493 1.408 . S
C491 C496 1.342 . S
C492 C493 1.310 . S
C492 C495 1.461 . S
C492 H512 0.932 . S
C493 C491 1.408 . S
C493 C492 1.310 . S
C493 H513 0.930 . S
C494 C495 1.474 . S
C494 C496 1.285 . S
C494 H514 0.929 . S
C495 C492 1.461 . S
C495 C494 1.474 . S
C496 C491 1.342 . S
C496 C494 1.285 . S
C496 H515 0.930 . S
C497 C500 1.424 . S
C497 C502 1.245 . S
C497 C503 1.428 . S
C498 C501 1.260 . S
C498 C502 1.477 . S
C498 H516 0.932 . S
C499 C500 1.384 . S
C499 C501 1.479 . S
C499 H517 0.929 . S
C500 C497 1.424 . S
C500 C499 1.384 . S
C500 H518 0.928 . S
C501 C498 1.260 . S
C501 C499 1.479 . S
C502 C497 1.245 . S
C502 C498 1.477 . S
C502 H519 0.932 . S
C503 U486 2.882 . S
C503 C497 1.428 . S
C503 O506 1.301 . S
C503 O507 1.282 . S
O504 U486 2.441 . S
O504 C490 1.249 . S
O505 U486 2.420 . S
O505 C490 1.202 . S
O506 U486 2.455 . S
O506 C503 1.301 . S
O507 U486 2.449 . S
O507 C503 1.282 . S
H508 C481 0.931 . S
H509 C483 0.929 . S
H510 C484 0.930 . S
H511 C485 0.931 . S
H512 C492 0.932 . S
H513 C493 0.930 . S
H514 C494 0.929 . S
H515 C496 0.930 . S
H516 C498 0.932 . S
H517 C499 0.929 . S
H518 C500 0.928 . S
H519 C502 0.932 . S
C520 C521 1.264 . S
C520 C525 1.479 . S
C520 C530 1.465 . S
C521 C520 1.264 . S
C521 C523 1.339 . S
C521 H548 0.931 . S
C522 C523 1.395 . S
C522 C524 1.320 . S
C523 C521 1.339 . S
C523 C522 1.395 . S
C523 H549 0.929 . S
C524 C522 1.320 . S
C524 C525 1.405 . S
C524 H550 0.930 . S
C525 C520 1.479 . S
C525 C524 1.405 . S
C525 H551 0.931 . S
U526 O527 2.454 . S
U526 O528 2.462 . S
U526 C529 2.984 . S
U526 C530 2.847 . S
U526 C543 2.882 . S
U526 O544 2.441 . S
U526 O545 2.420 . S
U526 O546 2.455 . S
U526 O547 2.449 . S
O527 U526 2.454 . S
O527 C529 1.353 . S
O528 U526 2.462 . S
O528 C529 1.286 . S
C529 U526 2.984 . S
C529 O527 1.353 . S
C529 O528 1.286 . S
C529 C531 1.363 1_556 S
C530 C520 1.465 . S
C530 U526 2.847 . S
C530 O544 1.249 . S
C530 O545 1.202 . S
C531 C529 1.363 1_554 S
C531 C533 1.408 . S
C531 C536 1.342 . S
C532 C533 1.310 . S
C532 C535 1.461 . S
C532 H552 0.932 . S
C533 C531 1.408 . S
C533 C532 1.310 . S
C533 H553 0.930 1_554 S
C534 C535 1.474 . S
C534 C536 1.285 . S
C534 H554 0.929 . S
C535 C532 1.461 . S
C535 C534 1.474 . S
C536 C531 1.342 . S
C536 C534 1.285 . S
C536 H555 0.930 . S
C537 C540 1.424 . S
C537 C542 1.245 . S
C537 C543 1.428 . S
C538 C541 1.260 . S
C538 C542 1.477 . S
C538 H556 0.932 1_556 S
C539 C540 1.384 . S
C539 C541 1.479 . S
C539 H557 0.929 . S
C540 C537 1.424 . S
C540 C539 1.384 . S
C540 H558 0.928 . S
C541 C538 1.260 . S
C541 C539 1.479 . S
C542 C537 1.245 . S
C542 C538 1.477 . S
C542 H559 0.932 1_556 S
C543 U526 2.882 . S
C543 C537 1.428 . S
C543 O546 1.301 . S
C543 O547 1.282 . S
O544 U526 2.441 . S
O544 C530 1.249 . S
O545 U526 2.420 . S
O545 C530 1.202 . S
O546 U526 2.455 . S
O546 C543 1.301 . S
O547 U526 2.449 . S
O547 C543 1.282 . S
H548 C521 0.931 . S
H549 C523 0.929 . S
H550 C524 0.930 . S
H551 C525 0.931 . S
H552 C532 0.932 . S
H553 C533 0.930 1_556 S
H554 C534 0.929 . S
H555 C536 0.930 . S
H556 C538 0.932 1_554 S
H557 C539 0.929 . S
H558 C540 0.928 . S
H559 C542 0.932 1_554 S
C560 C561 1.264 . S
C560 C565 1.479 . S
C560 C570 1.465 . S
C561 C560 1.264 . S
C561 C563 1.339 . S
C561 H588 0.931 . S
C562 C563 1.395 . S
C562 C564 1.320 . S
C563 C561 1.339 . S
C563 C562 1.395 . S
C563 H589 0.929 . S
C564 C562 1.320 . S
C564 C565 1.405 . S
C564 H590 0.930 . S
C565 C560 1.479 . S
C565 C564 1.405 . S
C565 H591 0.931 . S
U566 O567 2.454 . S
U566 O568 2.458 . S
U566 C569 2.984 . S
U566 C570 2.847 . S
U566 C583 2.882 . S
U566 O584 2.441 . S
U566 O585 2.420 . S
U566 O586 2.455 . S
U566 O587 2.449 . S
O567 U566 2.454 . S
O567 C569 1.353 . S
O568 U566 2.458 . S
O568 C569 1.286 . S
C569 U566 2.984 . S
C569 O567 1.353 . S
C569 O568 1.286 . S
C569 C571 1.363 . S
C570 C560 1.465 . S
C570 U566 2.847 . S
C570 O584 1.249 . S
C570 O585 1.202 . S
C571 C569 1.363 . S
C571 C573 1.408 . S
C571 C576 1.342 . S
C572 C573 1.310 . S
C572 C575 1.461 . S
C572 H592 0.932 . S
C573 C571 1.408 . S
C573 C572 1.310 . S
C573 H593 0.930 . S
C574 C575 1.474 . S
C574 C576 1.285 . S
C574 H594 0.929 . S
C575 C572 1.461 . S
C575 C574 1.474 . S
C576 C571 1.342 . S
C576 C574 1.285 . S
C576 H595 0.930 . S
C577 C580 1.424 . S
C577 C582 1.245 . S
C577 C583 1.428 . S
C578 C581 1.260 . S
C578 C582 1.477 . S
C578 H596 0.932 . S
C579 C580 1.384 . S
C579 C581 1.479 . S
C579 H597 0.929 . S
C580 C577 1.424 . S
C580 C579 1.384 . S
C580 H598 0.928 . S
C581 C578 1.260 . S
C581 C579 1.479 . S
C582 C577 1.245 . S
C582 C578 1.477 . S
C582 H599 0.932 . S
C583 U566 2.882 . S
C583 C577 1.428 . S
C583 O586 1.301 . S
C583 O587 1.282 . S
O584 U566 2.441 . S
O584 C570 1.249 . S
O585 U566 2.420 . S
O585 C570 1.202 . S
O586 U566 2.455 . S
O586 C583 1.301 . S
O587 U566 2.449 . S
O587 C583 1.282 . S
H588 C561 0.931 . S
H589 C563 0.929 . S
H590 C564 0.930 . S
H591 C565 0.931 . S
H592 C572 0.932 . S
H593 C573 0.930 . S
H594 C574 0.929 . S
H595 C576 0.930 . S
H596 C578 0.932 . S
H597 C579 0.929 . S
H598 C580 0.928 . S
H599 C582 0.932 . S
C600 C601 1.264 . S
C600 C605 1.479 . S
C600 C610 1.465 . S
C601 C600 1.264 . S
C601 C603 1.339 . S
C601 H628 0.931 . S
C602 C603 1.395 . S
C602 C604 1.320 . S
C603 C601 1.339 . S
C603 C602 1.395 . S
C603 H629 0.929 . S
C604 C602 1.320 . S
C604 C605 1.405 . S
C604 H630 0.930 . S
C605 C600 1.479 . S
C605 C604 1.405 . S
C605 H631 0.931 . S
U606 O607 2.454 . S
U606 O608 2.458 . S
U606 C609 2.984 . S
U606 C610 2.847 1_556 S
U606 C623 2.882 . S
U606 O624 2.441 1_556 S
U606 O625 2.420 . S
U606 O626 2.455 . S
U606 O627 2.449 . S
O607 U606 2.454 . S
O607 C609 1.353 . S
O608 U606 2.458 . S
O608 C609 1.286 . S
C609 U606 2.984 . S
C609 O607 1.353 . S
C609 O608 1.286 . S
C609 C611 1.363 1_545 S
C610 C600 1.465 . S
C610 U606 2.847 1_554 S
C610 O624 1.249 . S
C610 O625 1.202 1_554 S
C611 C609 1.363 1_565 S
C611 C613 1.408 1_556 S
C611 C616 1.342 . S
C612 C613 1.310 . S
C612 C615 1.461 1_554 S
C612 H632 0.932 . S
C613 C611 1.408 1_554 S
C613 C612 1.310 . S
C613 H633 0.930 1_565 S
C614 C615 1.474 . S
C614 C616 1.285 . S
C614 H634 0.929 . S
C615 C612 1.461 1_556 S
C615 C614 1.474 . S
C616 C611 1.342 . S
C616 C614 1.285 . S
C616 H635 0.930 . S
C617 C620 1.424 . S
C617 C622 1.245 . S
C617 C623 1.428 . S
C618 C621 1.260 . S
C618 C622 1.477 . S
C618 H636 0.932 1_545 S
C619 C620 1.384 . S
C619 C621 1.479 . S
C619 H637 0.929 . S
C620 C617 1.424 . S
C620 C619 1.384 . S
C620 H638 0.928 . S
C621 C618 1.260 . S
C621 C619 1.479 . S
C622 C617 1.245 . S
C622 C618 1.477 . S
C622 H639 0.932 1_545 S
C623 U606 2.882 . S
C623 C617 1.428 . S
C623 O626 1.301 . S
C623 O627 1.282 . S
O624 U606 2.441 1_554 S
O624 C610 1.249 . S
O625 U606 2.420 . S
O625 C610 1.202 1_556 S
O626 U606 2.455 . S
O626 C623 1.301 . S
O627 U606 2.449 . S
O627 C623 1.282 . S
H628 C601 0.931 . S
H629 C603 0.929 . S
H630 C604 0.930 . S
H631 C605 0.931 . S
H632 C612 0.932 . S
H633 C613 0.930 1_545 S
H634 C614 0.929 . S
H635 C616 0.930 . S
H636 C618 0.932 1_565 S
H637 C619 0.929 . S
H638 C620 0.928 . S
H639 C622 0.932 1_565 S
C640 O641 1.160 1_554 S
C640 O647 1.185 . S
O641 C640 1.160 1_556 S
O642 Zn643 1.899 1_556 S
O642 C650 1.284 . S
Zn643 O642 1.899 1_554 S
Zn643 O644 2.032 . S
Zn643 O647 2.086 . S
Zn643 O652 1.977 . S
O644 Zn643 2.032 . S
O644 C648 1.278 . S
C645 O646 1.203 . S
C645 O652 1.267 . S
O646 C645 1.203 . S
O647 C640 1.185 . S
O647 Zn643 2.086 . S
C648 O644 1.278 . S
C648 O649 1.211 . S
O649 C648 1.211 . S
C650 O642 1.284 . S
C650 O651 1.273 . S
O651 C650 1.273 . S
O652 Zn643 1.977 . S
O652 C645 1.267 . S
C653 O654 1.160 . S
C653 O660 1.185 . S
O654 C653 1.160 . S
O655 Zn656 1.899 . S
O655 C663 1.284 . S
Zn656 O655 1.899 . S
Zn656 O657 2.032 . S
Zn656 O660 2.086 . S
Zn656 O665 1.977 . S
O657 Zn656 2.032 . S
O657 C661 1.278 . S
C658 O659 1.203 . S
C658 O665 1.267 . S
O659 C658 1.203 . S
O660 C653 1.185 . S
O660 Zn656 2.086 . S
C661 O657 1.278 . S
C661 O662 1.211 . S
O662 C661 1.211 . S
C663 O655 1.284 . S
C663 O664 1.273 . S
O664 C663 1.273 . S
O665 Zn656 1.977 . S
O665 C658 1.267 . S
C666 O667 1.160 1_554 S
C666 O673 1.185 . S
O667 C666 1.160 1_556 S
O668 Zn669 1.899 1_556 S
O668 C676 1.284 . S
Zn669 O668 1.899 1_554 S
Zn669 O670 2.032 1_554 S
Zn669 O673 2.086 . S
Zn669 O678 1.977 . S
O670 Zn669 2.032 1_556 S
O670 C674 1.278 . S
C671 O672 1.203 . S
C671 O678 1.267 . S
O672 C671 1.203 . S
O673 C666 1.185 . S
O673 Zn669 2.086 . S
C674 O670 1.278 . S
C674 O675 1.211 1_556 S
O675 C674 1.211 1_554 S
C676 O668 1.284 . S
C676 O677 1.273 . S
O677 C676 1.273 . S
O678 Zn669 1.977 . S
O678 C671 1.267 . S
C679 O680 1.160 . S
C679 O686 1.185 . S
O680 C679 1.160 . S
O681 Zn682 1.899 . S
O681 C689 1.284 . S
Zn682 O681 1.899 . S
Zn682 O683 2.032 1_545 S
Zn682 O686 2.086 . S
Zn682 O691 1.977 . S
O683 Zn682 2.032 1_565 S
O683 C687 1.278 . S
C684 O685 1.203 . S
C684 O691 1.267 . S
O685 C684 1.203 . S
O686 C679 1.185 . S
O686 Zn682 2.086 . S
C687 O683 1.278 . S
C687 O688 1.211 . S
O688 C687 1.211 . S
C689 O681 1.284 . S
C689 O690 1.273 1_545 S
O690 C689 1.273 1_565 S
O691 Zn682 1.977 . S
O691 C684 1.267 . S
C692 O693 1.160 . S
C692 O699 1.185 . S
O693 C692 1.160 . S
O694 Zn695 1.899 . S
O694 C702 1.284 . S
Zn695 O694 1.899 . S
Zn695 O696 2.032 . S
Zn695 O699 2.086 . S
Zn695 O704 1.977 . S
O696 Zn695 2.032 . S
O696 C700 1.278 . S
C697 O698 1.203 . S
C697 O704 1.267 . S
O698 C697 1.203 . S
O699 C692 1.185 . S
O699 Zn695 2.086 . S
C700 O696 1.278 . S
C700 O701 1.211 . S
O701 C700 1.211 . S
C702 O694 1.284 . S
C702 O703 1.273 . S
O703 C702 1.273 . S
O704 Zn695 1.977 . S
O704 C697 1.267 . S
C705 O706 1.160 . S
C705 O712 1.185 . S
O706 C705 1.160 . S
O707 Zn708 1.899 . S
O707 C715 1.284 . S
Zn708 O707 1.899 . S
Zn708 O709 2.032 . S
Zn708 O712 2.086 . S
Zn708 O717 1.977 . S
O709 Zn708 2.032 . S
O709 C713 1.278 . S
C710 O711 1.203 . S
C710 O717 1.267 . S
O711 C710 1.203 . S
O712 C705 1.185 . S
O712 Zn708 2.086 . S
C713 O709 1.278 . S
C713 O714 1.211 . S
O714 C713 1.211 . S
C715 O707 1.284 . S
C715 O716 1.273 . S
O716 C715 1.273 . S
O717 Zn708 1.977 . S
O717 C710 1.267 . S
C718 O719 1.160 . S
C718 O725 1.185 . S
O719 C718 1.160 . S
O720 Zn721 1.899 . S
O720 C728 1.284 . S
Zn721 O720 1.899 . S
Zn721 O722 2.032 . S
Zn721 O725 2.086 . S
Zn721 O730 1.977 . S
O722 Zn721 2.032 . S
O722 C726 1.278 . S
C723 O724 1.203 . S
C723 O730 1.267 . S
O724 C723 1.203 . S
O725 C718 1.185 . S
O725 Zn721 2.086 . S
C726 O722 1.278 . S
C726 O727 1.211 . S
O727 C726 1.211 . S
C728 O720 1.284 . S
C728 O729 1.273 . S
O729 C728 1.273 . S
O730 Zn721 1.977 . S
O730 C723 1.267 . S
C731 O732 1.160 . S
C731 O738 1.185 . S
O732 C731 1.160 . S
O733 Zn734 1.899 . S
O733 C741 1.284 1_565 S
Zn734 O733 1.899 . S
Zn734 O735 2.032 1_565 S
Zn734 O738 2.086 . S
Zn734 O743 1.977 . S
O735 Zn734 2.032 1_545 S
O735 C739 1.278 . S
C736 O737 1.203 1_565 S
C736 O743 1.267 . S
O737 C736 1.203 1_545 S
O738 C731 1.185 . S
O738 Zn734 2.086 . S
C739 O735 1.278 . S
C739 O740 1.211 . S
O740 C739 1.211 . S
C741 O733 1.284 1_545 S
C741 O742 1.273 . S
O742 C741 1.273 . S
O743 Zn734 1.977 . S
O743 C736 1.267 . S
C744 O745 1.160 1_455 S
C744 O751 1.185 . S
O745 C744 1.160 1_655 S
O746 Zn747 1.899 1_655 S
O746 C754 1.284 . S
Zn747 O746 1.899 1_455 S
Zn747 O748 2.032 . S
Zn747 O751 2.086 . S
Zn747 O756 1.977 . S
O748 Zn747 2.032 . S
O748 C752 1.278 . S
C749 O750 1.203 . S
C749 O756 1.267 . S
O750 C749 1.203 . S
O751 C744 1.185 . S
O751 Zn747 2.086 . S
C752 O748 1.278 . S
C752 O753 1.211 . S
O753 C752 1.211 . S
C754 O746 1.284 . S
C754 O755 1.273 . S
O755 C754 1.273 . S
O756 Zn747 1.977 . S
O756 C749 1.267 . S
C757 O758 1.160 . S
C757 O764 1.185 . S
O758 C757 1.160 . S
O759 Zn760 1.899 . S
O759 C767 1.284 . S
Zn760 O759 1.899 . S
Zn760 O761 2.032 . S
Zn760 O764 2.086 . S
Zn760 O769 1.977 . S
O761 Zn760 2.032 . S
O761 C765 1.278 . S
C762 O763 1.203 . S
C762 O769 1.267 . S
O763 C762 1.203 . S
O764 C757 1.185 . S
O764 Zn760 2.086 . S
C765 O761 1.278 . S
C765 O766 1.211 . S
O766 C765 1.211 . S
C767 O759 1.284 . S
C767 O768 1.273 . S
O768 C767 1.273 . S
O769 Zn760 1.977 . S
O769 C762 1.267 . S
C770 O771 1.160 1_455 S
C770 O777 1.185 . S
O771 C770 1.160 1_655 S
O772 Zn773 1.899 1_655 S
O772 C780 1.284 . S
Zn773 O772 1.899 1_455 S
Zn773 O774 2.033 1_455 S
Zn773 O777 2.086 . S
Zn773 O782 1.977 . S
O774 Zn773 2.033 1_655 S
O774 C778 1.278 1_655 S
C775 O776 1.203 . S
C775 O782 1.267 . S
O776 C775 1.203 . S
O777 C770 1.185 . S
O777 Zn773 2.086 . S
C778 O774 1.278 1_455 S
C778 O779 1.211 . S
O779 C778 1.211 . S
C780 O772 1.284 . S
C780 O781 1.273 . S
O781 C780 1.273 . S
O782 Zn773 1.977 . S
O782 C775 1.267 . S
C783 O784 1.160 . S
C783 O790 1.185 . S
O784 C783 1.160 . S
O785 Zn786 1.899 . S
O785 C793 1.284 . S
Zn786 O785 1.899 . S
Zn786 O787 2.032 . S
Zn786 O790 2.086 . S
Zn786 O795 1.977 . S
O787 Zn786 2.032 . S
O787 C791 1.278 . S
C788 O789 1.203 . S
C788 O795 1.267 . S
O789 C788 1.203 . S
O790 C783 1.185 . S
O790 Zn786 2.086 . S
C791 O787 1.278 . S
C791 O792 1.211 . S
O792 C791 1.211 . S
C793 O785 1.284 . S
C793 O794 1.273 . S
O794 C793 1.273 . S
O795 Zn786 1.977 . S
O795 C788 1.267 . S
C796 C797 1.387 . S
C796 H800 0.950 . S
C796 C805 1.390 . S
C797 C796 1.387 . S
C797 C799 1.387 . S
H798 C805 0.950 . S
C799 C797 1.387 . S
C799 C801 1.390 . S
C799 H803 0.950 . S
H800 C796 0.950 . S
C801 C799 1.390 . S
C801 C802 1.387 . S
C801 H804 0.950 . S
C802 C801 1.387 . S
C802 C805 1.387 . S
H803 C799 0.950 . S
H804 C801 0.950 . S
C805 C796 1.390 . S
C805 H798 0.950 . S
C805 C802 1.387 . S
C806 C807 1.387 . S
C806 H810 0.950 . S
C806 C815 1.390 . S
C807 C806 1.387 . S
C807 C809 1.387 . S
H808 C815 0.950 . S
C809 C807 1.387 . S
C809 C811 1.390 . S
C809 H813 0.950 . S
H810 C806 0.950 . S
C811 C809 1.390 . S
C811 C812 1.387 . S
C811 H814 0.950 . S
C812 C811 1.387 . S
C812 C815 1.387 . S
H813 C809 0.950 . S
H814 C811 0.950 . S
C815 C806 1.390 . S
C815 H808 0.950 . S
C815 C812 1.387 . S
C816 C817 1.387 . S
C816 H820 0.950 . S
C816 C825 1.390 . S
C817 C816 1.387 . S
C817 C819 1.387 . S
H818 C825 0.950 . S
C819 C817 1.387 . S
C819 C821 1.390 . S
C819 H823 0.950 . S
H820 C816 0.950 . S
C821 C819 1.390 . S
C821 C822 1.387 . S
C821 H824 0.950 . S
C822 C821 1.387 . S
C822 C825 1.387 . S
H823 C819 0.950 . S
H824 C821 0.950 . S
C825 C816 1.390 . S
C825 H818 0.950 . S
C825 C822 1.387 . S
C826 C827 1.387 . S
C826 H830 0.950 . S
C826 C835 1.390 . S
C827 C826 1.387 . S
C827 C829 1.387 1_565 S
H828 C835 0.950 . S
C829 C827 1.387 1_545 S
C829 C831 1.390 . S
C829 H833 0.950 . S
H830 C826 0.950 . S
C831 C829 1.390 . S
C831 C832 1.387 . S
C831 H834 0.950 . S
C832 C831 1.387 . S
C832 C835 1.387 1_545 S
H833 C829 0.950 . S
H834 C831 0.950 . S
C835 C826 1.390 . S
C835 H828 0.950 . S
C835 C832 1.387 1_565 S
C836 C837 1.387 . S
C836 H840 0.950 . S
C836 C845 1.390 . S
C837 C836 1.387 . S
C837 C839 1.387 . S
H838 C845 0.950 . S
C839 C837 1.387 . S
C839 C841 1.390 . S
C839 H843 0.950 . S
H840 C836 0.950 . S
C841 C839 1.390 . S
C841 C842 1.387 . S
C841 H844 0.950 . S
C842 C841 1.387 . S
C842 C845 1.387 . S
H843 C839 0.950 . S
H844 C841 0.950 . S
C845 C836 1.390 . S
C845 H838 0.950 . S
C845 C842 1.387 . S
C846 C847 1.387 . S
C846 H850 0.950 . S
C846 C855 1.390 . S
C847 C846 1.387 . S
C847 C849 1.387 . S
H848 C855 0.950 . S
C849 C847 1.387 . S
C849 C851 1.390 . S
C849 H853 0.950 . S
H850 C846 0.950 . S
C851 C849 1.390 . S
C851 C852 1.387 . S
C851 H854 0.950 . S
C852 C851 1.387 . S
C852 C855 1.387 . S
H853 C849 0.950 . S
H854 C851 0.950 . S
C855 C846 1.390 . S
C855 H848 0.950 . S
C855 C852 1.387 . S
C856 C857 1.387 . S
C856 H860 0.950 . S
C856 C865 1.390 . S
C857 C856 1.387 . S
C857 C859 1.387 . S
H858 C865 0.950 . S
C859 C857 1.387 . S
C859 C861 1.390 . S
C859 H863 0.950 . S
H860 C856 0.950 . S
C861 C859 1.390 . S
C861 C862 1.387 . S
C861 H864 0.950 . S
C862 C861 1.387 . S
C862 C865 1.387 . S
H863 C859 0.950 . S
H864 C861 0.950 . S
C865 C856 1.390 . S
C865 H858 0.950 . S
C865 C862 1.387 . S
C866 C867 1.387 1_545 S
C866 H870 0.950 . S
C866 C875 1.390 . S
C867 C866 1.387 1_565 S
C867 C869 1.387 . S
H868 C875 0.950 . S
C869 C867 1.387 . S
C869 C871 1.390 . S
C869 H873 0.950 . S
H870 C866 0.950 . S
C871 C869 1.390 . S
C871 C872 1.387 . S
C871 H874 0.950 . S
C872 C871 1.387 . S
C872 C875 1.387 1_565 S
H873 C869 0.950 . S
H874 C871 0.950 . S
C875 C866 1.390 . S
C875 H868 0.950 . S
C875 C872 1.387 1_545 S
C876 C877 1.387 . S
C876 H880 0.950 . S
C876 C885 1.390 . S
C877 C876 1.387 . S
C877 C879 1.387 . S
H878 C885 0.950 . S
C879 C877 1.387 . S
C879 C881 1.390 . S
C879 H883 0.950 . S
H880 C876 0.950 . S
C881 C879 1.390 . S
C881 C882 1.387 . S
C881 H884 0.950 . S
C882 C881 1.387 . S
C882 C885 1.387 . S
H883 C879 0.950 . S
H884 C881 0.950 . S
C885 C876 1.390 . S
C885 H878 0.950 . S
C885 C882 1.387 . S
C886 C887 1.387 . S
C886 H890 0.950 . S
C886 C895 1.390 . S
C887 C886 1.387 . S
C887 C889 1.387 . S
H888 C895 0.950 . S
C889 C887 1.387 . S
C889 C891 1.390 . S
C889 H893 0.950 . S
H890 C886 0.950 . S
C891 C889 1.390 . S
C891 C892 1.387 . S
C891 H894 0.950 . S
C892 C891 1.387 . S
C892 C895 1.387 . S
H893 C889 0.950 . S
H894 C891 0.950 . S
C895 C886 1.390 . S
C895 H888 0.950 . S
C895 C892 1.387 . S
C896 C897 1.387 . S
C896 H900 0.950 . S
C896 C905 1.390 . S
C897 C896 1.387 . S
C897 C899 1.387 . S
H898 C905 0.950 . S
C899 C897 1.387 . S
C899 C901 1.390 . S
C899 H903 0.950 . S
H900 C896 0.950 . S
C901 C899 1.390 . S
C901 C902 1.387 . S
C901 H904 0.950 . S
C902 C901 1.387 . S
C902 C905 1.387 . S
H903 C899 0.950 . S
H904 C901 0.950 . S
C905 C896 1.390 . S
C905 H898 0.950 . S
C905 C902 1.387 . S
C906 C907 1.387 . S
C906 H910 0.950 . S
C906 C915 1.390 . S
C907 C906 1.387 . S
C907 C909 1.387 . S
H908 C915 0.950 . S
C909 C907 1.387 . S
C909 C911 1.390 . S
C909 H913 0.950 . S
H910 C906 0.950 . S
C911 C909 1.390 . S
C911 C912 1.387 . S
C911 H914 0.950 . S
C912 C911 1.387 . S
C912 C915 1.387 . S
H913 C909 0.950 . S
H914 C911 0.950 . S
C915 C906 1.390 . S
C915 H908 0.950 . S
C915 C912 1.387 . S
C916 C917 1.387 . S
C916 H920 0.950 . S
C916 C925 1.390 . S
C917 C916 1.387 . S
C917 C919 1.387 . S
H918 C925 0.950 . S
C919 C917 1.387 . S
C919 C921 1.390 . S
C919 H923 0.950 . S
H920 C916 0.950 . S
C921 C919 1.390 . S
C921 C922 1.387 . S
C921 H924 0.950 . S
C922 C921 1.387 . S
C922 C925 1.387 . S
H923 C919 0.950 . S
H924 C921 0.950 . S
C925 C916 1.390 . S
C925 H918 0.950 . S
C925 C922 1.387 . S
C926 C927 1.387 . S
C926 H930 0.950 . S
C926 C935 1.390 . S
C927 C926 1.387 . S
C927 C929 1.387 . S
H928 C935 0.950 . S
C929 C927 1.387 . S
C929 C931 1.390 . S
C929 H933 0.950 . S
H930 C926 0.950 . S
C931 C929 1.390 . S
C931 C932 1.387 . S
C931 H934 0.950 . S
C932 C931 1.387 . S
C932 C935 1.387 . S
H933 C929 0.950 . S
H934 C931 0.950 . S
C935 C926 1.390 . S
C935 H928 0.950 . S
C935 C932 1.387 . S
C936 C937 1.387 . S
C936 H940 0.950 . S
C936 C945 1.390 . S
C937 C936 1.387 . S
C937 C939 1.387 . S
H938 C945 0.950 . S
C939 C937 1.387 . S
C939 C941 1.390 . S
C939 H943 0.950 . S
H940 C936 0.950 . S
C941 C939 1.390 . S
C941 C942 1.387 . S
C941 H944 0.950 . S
C942 C941 1.387 . S
C942 C945 1.387 . S
H943 C939 0.950 . S
H944 C941 0.950 . S
C945 C936 1.390 . S
C945 H938 0.950 . S
C945 C942 1.387 . S
C946 C947 1.387 . S
C946 H950 0.950 . S
C946 C955 1.390 . S
C947 C946 1.387 . S
C947 C949 1.387 1_655 S
H948 C955 0.950 . S
C949 C947 1.387 1_455 S
C949 C951 1.390 . S
C949 H953 0.950 . S
H950 C946 0.950 . S
C951 C949 1.390 . S
C951 C952 1.387 1_455 S
C951 H954 0.950 . S
C952 C951 1.387 1_655 S
C952 C955 1.387 . S
H953 C949 0.950 . S
H954 C951 0.950 . S
C955 C946 1.390 . S
C955 H948 0.950 . S
C955 C952 1.387 . S
C956 C957 1.387 . S
C956 H960 0.950 . S
C956 C965 1.390 . S
C957 C956 1.387 . S
C957 C959 1.387 . S
H958 C965 0.950 . S
C959 C957 1.387 . S
C959 C961 1.390 . S
C959 H963 0.950 . S
H960 C956 0.950 . S
C961 C959 1.390 . S
C961 C962 1.387 . S
C961 H964 0.950 . S
C962 C961 1.387 . S
C962 C965 1.387 . S
H963 C959 0.950 . S
H964 C961 0.950 . S
C965 C956 1.390 . S
C965 H958 0.950 . S
C965 C962 1.387 . S
C966 C967 1.387 . S
C966 H970 0.950 . S
C966 C975 1.390 . S
C967 C966 1.387 . S
C967 C969 1.387 . S
H968 C975 0.950 . S
C969 C967 1.387 . S
C969 C971 1.390 . S
C969 H973 0.950 . S
H970 C966 0.950 . S
C971 C969 1.390 . S
C971 C972 1.387 . S
C971 H974 0.950 . S
C972 C971 1.387 . S
C972 C975 1.387 . S
H973 C969 0.950 . S
H974 C971 0.950 . S
C975 C966 1.390 . S
C975 H968 0.950 . S
C975 C972 1.387 . S
C976 C977 1.387 . S
C976 H980 0.950 . S
C976 C985 1.390 . S
C977 C976 1.387 . S
C977 C979 1.387 1_556 S
H978 C985 0.950 . S
C979 C977 1.387 1_554 S
C979 C981 1.390 . S
C979 H983 0.950 . S
H980 C976 0.950 . S
C981 C979 1.390 . S
C981 C982 1.387 . S
C981 H984 0.950 . S
C982 C981 1.387 . S
C982 C985 1.387 1_554 S
H983 C979 0.950 . S
H984 C981 0.950 . S
C985 C976 1.390 . S
C985 H978 0.950 . S
C985 C982 1.387 1_556 S
C986 C987 1.387 . S
C986 H990 0.950 . S
C986 C995 1.390 . S
C987 C986 1.387 . S
C987 C989 1.387 . S
H988 C995 0.950 . S
C989 C987 1.387 . S
C989 C991 1.390 . S
C989 H993 0.950 . S
H990 C986 0.950 . S
C991 C989 1.390 . S
C991 C992 1.387 . S
C991 H994 0.950 . S
C992 C991 1.387 . S
C992 C995 1.387 . S
H993 C989 0.950 . S
H994 C991 0.950 . S
C995 C986 1.390 . S
C995 H988 0.950 . S
C995 C992 1.387 . S
C996 C997 1.387 . S
C996 H1000 0.950 . S
C996 C1005 1.390 . S
C997 C996 1.387 . S
C997 C999 1.387 . S
H998 C1005 0.950 . S
C999 C997 1.387 . S
C999 C1001 1.390 . S
C999 H1003 0.950 . S
H1000 C996 0.950 . S
C1001 C999 1.390 . S
C1001 C1002 1.387 . S
C1001 H1004 0.950 . S
C1002 C1001 1.387 . S
C1002 C1005 1.387 . S
H1003 C999 0.950 . S
H1004 C1001 0.950 . S
C1005 C996 1.390 . S
C1005 H998 0.950 . S
C1005 C1002 1.387 . S
C1006 C1007 1.387 . S
C1006 H1010 0.950 . S
C1006 C1015 1.390 . S
C1007 C1006 1.387 . S
C1007 C1009 1.387 . S
H1008 C1015 0.950 . S
C1009 C1007 1.387 . S
C1009 C1011 1.390 . S
C1009 H1013 0.950 . S
H1010 C1006 0.950 . S
C1011 C1009 1.390 . S
C1011 C1012 1.387 . S
C1011 H1014 0.950 . S
C1012 C1011 1.387 . S
C1012 C1015 1.387 . S
H1013 C1009 0.950 . S
H1014 C1011 0.950 . S
C1015 C1006 1.390 . S
C1015 H1008 0.950 . S
C1015 C1012 1.387 . S
C1016 C1017 1.387 . S
C1016 H1020 0.950 . S
C1016 C1025 1.390 . S
C1017 C1016 1.387 . S
C1017 C1019 1.387 . S
H1018 C1025 0.950 . S
C1019 C1017 1.387 . S
C1019 C1021 1.390 . S
C1019 H1023 0.950 . S
H1020 C1016 0.950 . S
C1021 C1019 1.390 . S
C1021 C1022 1.387 . S
C1021 H1024 0.950 . S
C1022 C1021 1.387 . S
C1022 C1025 1.387 . S
H1023 C1019 0.950 . S
H1024 C1021 0.950 . S
C1025 C1016 1.390 . S
C1025 H1018 0.950 . S
C1025 C1022 1.387 . S
C1026 C1027 1.387 . S
C1026 H1030 0.950 . S
C1026 C1035 1.390 . S
C1027 C1026 1.387 . S
C1027 C1029 1.387 . S
H1028 C1035 0.950 . S
C1029 C1027 1.387 . S
C1029 C1031 1.390 . S
C1029 H1033 0.950 . S
H1030 C1026 0.950 . S
C1031 C1029 1.390 . S
C1031 C1032 1.387 . S
C1031 H1034 0.950 . S
C1032 C1031 1.387 . S
C1032 C1035 1.387 . S
H1033 C1029 0.950 . S
H1034 C1031 0.950 . S
C1035 C1026 1.390 . S
C1035 H1028 0.950 . S
C1035 C1032 1.387 . S
C1036 C1037 1.387 . S
C1036 H1040 0.950 . S
C1036 C1045 1.390 . S
C1037 C1036 1.387 . S
C1037 C1039 1.387 . S
H1038 C1045 0.950 . S
C1039 C1037 1.387 . S
C1039 C1041 1.390 . S
C1039 H1043 0.950 . S
H1040 C1036 0.950 . S
C1041 C1039 1.390 . S
C1041 C1042 1.387 . S
C1041 H1044 0.950 . S
C1042 C1041 1.387 . S
C1042 C1045 1.387 . S
H1043 C1039 0.950 . S
H1044 C1041 0.950 . S
C1045 C1036 1.390 . S
C1045 H1038 0.950 . S
C1045 C1042 1.387 . S
C1046 C1047 1.387 . S
C1046 H1050 0.950 . S
C1046 C1055 1.390 . S
C1047 C1046 1.387 . S
C1047 C1049 1.387 1_545 S
H1048 C1055 0.950 . S
C1049 C1047 1.387 1_565 S
C1049 C1051 1.390 . S
C1049 H1053 0.950 . S
H1050 C1046 0.950 . S
C1051 C1049 1.390 . S
C1051 C1052 1.387 1_565 S
C1051 H1054 0.950 . S
C1052 C1051 1.387 1_545 S
C1052 C1055 1.387 . S
H1053 C1049 0.950 . S
H1054 C1051 0.950 . S
C1055 C1046 1.390 . S
C1055 H1048 0.950 . S
C1055 C1052 1.387 . S
C1056 C1057 1.387 . S
C1056 H1060 0.950 . S
C1056 C1065 1.390 . S
C1057 C1056 1.387 . S
C1057 C1059 1.387 . S
H1058 C1065 0.950 . S
C1059 C1057 1.387 . S
C1059 C1061 1.390 . S
C1059 H1063 0.950 . S
H1060 C1056 0.950 . S
C1061 C1059 1.390 . S
C1061 C1062 1.387 . S
C1061 H1064 0.950 . S
C1062 C1061 1.387 . S
C1062 C1065 1.387 . S
H1063 C1059 0.950 . S
H1064 C1061 0.950 . S
C1065 C1056 1.390 . S
C1065 H1058 0.950 . S
C1065 C1062 1.387 . S
C1066 C1067 1.387 . S
C1066 H1070 0.950 . S
C1066 C1075 1.390 . S
C1067 C1066 1.387 . S
C1067 C1069 1.387 . S
H1068 C1075 0.950 . S
C1069 C1067 1.387 . S
C1069 C1071 1.390 . S
C1069 H1073 0.950 . S
H1070 C1066 0.950 . S
C1071 C1069 1.390 . S
C1071 C1072 1.387 . S
C1071 H1074 0.950 . S
C1072 C1071 1.387 . S
C1072 C1075 1.387 . S
H1073 C1069 0.950 . S
H1074 C1071 0.950 . S
C1075 C1066 1.390 . S
C1075 H1068 0.950 . S
C1075 C1072 1.387 . S
C1076 C1077 1.387 . S
C1076 H1080 0.950 . S
C1076 C1085 1.390 . S
C1077 C1076 1.387 . S
C1077 C1079 1.387 . S
H1078 C1085 0.950 . S
C1079 C1077 1.387 . S
C1079 C1081 1.390 . S
C1079 H1083 0.950 . S
H1080 C1076 0.950 . S
C1081 C1079 1.390 . S
C1081 C1082 1.387 . S
C1081 H1084 0.950 . S
C1082 C1081 1.387 . S
C1082 C1085 1.387 . S
H1083 C1079 0.950 . S
H1084 C1081 0.950 . S
C1085 C1076 1.390 . S
C1085 H1078 0.950 . S
C1085 C1082 1.387 . S
C1086 C1087 1.387 . S
C1086 H1090 0.950 . S
C1086 C1095 1.390 . S
C1087 C1086 1.387 . S
C1087 C1089 1.387 . S
H1088 C1095 0.950 . S
C1089 C1087 1.387 . S
C1089 C1091 1.393 . S
C1089 H1093 0.950 1_545 S
H1090 C1086 0.950 . S
C1091 C1089 1.393 . S
C1091 C1092 1.410 . S
C1091 H1094 0.925 1_545 S
C1092 C1091 1.410 . S
C1092 C1095 1.387 . S
H1093 C1089 0.950 1_565 S
H1094 C1091 0.925 1_565 S
C1095 C1086 1.390 . S
C1095 H1088 0.950 . S
C1095 C1092 1.387 . S
C1096 C1097 1.387 . S
C1096 H1100 0.950 . S
C1096 C1105 1.390 . S
C1097 C1096 1.387 . S
C1097 C1099 1.387 . S
H1098 C1105 0.950 . S
C1099 C1097 1.387 . S
C1099 C1101 1.390 . S
C1099 H1103 0.950 . S
H1100 C1096 0.950 . S
C1101 C1099 1.390 . S
C1101 C1102 1.387 . S
C1101 H1104 0.950 . S
C1102 C1101 1.387 . S
C1102 C1105 1.387 . S
H1103 C1099 0.950 . S
H1104 C1101 0.950 . S
C1105 C1096 1.390 . S
C1105 H1098 0.950 . S
C1105 C1102 1.387 . S
C1106 C1107 1.387 . S
C1106 H1110 0.950 . S
C1106 C1115 1.390 . S
C1107 C1106 1.387 . S
C1107 C1109 1.387 . S
H1108 C1115 0.950 . S
C1109 C1107 1.387 . S
C1109 C1111 1.390 . S
C1109 H1113 0.950 . S
H1110 C1106 0.950 . S
C1111 C1109 1.390 . S
C1111 C1112 1.387 . S
C1111 H1114 0.950 . S
C1112 C1111 1.387 . S
C1112 C1115 1.387 . S
H1113 C1109 0.950 . S
H1114 C1111 0.950 . S
C1115 C1106 1.390 . S
C1115 H1108 0.950 . S
C1115 C1112 1.387 . S
C1116 C1117 1.387 . S
C1116 H1120 0.950 . S
C1116 C1125 1.390 . S
C1117 C1116 1.387 . S
C1117 C1119 1.387 . S
H1118 C1125 0.950 . S
C1119 C1117 1.387 . S
C1119 C1121 1.390 . S
C1119 H1123 0.950 . S
H1120 C1116 0.950 . S
C1121 C1119 1.390 . S
C1121 C1122 1.387 . S
C1121 H1124 0.950 . S
C1122 C1121 1.387 . S
C1122 C1125 1.387 . S
H1123 C1119 0.950 . S
H1124 C1121 0.950 . S
C1125 C1116 1.390 . S
C1125 H1118 0.950 . S
C1125 C1122 1.387 . S
C1126 C1127 1.387 . S
C1126 H1130 0.950 . S
C1126 C1135 1.390 . S
C1127 C1126 1.387 . S
C1127 C1129 1.387 1_655 S
H1128 C1135 0.950 . S
C1129 C1127 1.387 1_455 S
C1129 C1131 1.390 . S
C1129 H1133 0.950 . S
H1130 C1126 0.950 . S
C1131 C1129 1.390 . S
C1131 C1132 1.387 1_455 S
C1131 H1134 0.950 . S
C1132 C1131 1.387 1_655 S
C1132 C1135 1.387 . S
H1133 C1129 0.950 . S
H1134 C1131 0.950 . S
C1135 C1126 1.390 . S
C1135 H1128 0.950 . S
C1135 C1132 1.387 . S
C1136 C1137 1.387 . S
C1136 H1140 0.950 . S
C1136 C1145 1.390 . S
C1137 C1136 1.387 . S
C1137 C1139 1.387 . S
H1138 C1145 0.950 . S
C1139 C1137 1.387 . S
C1139 C1141 1.390 . S
C1139 H1143 0.950 . S
H1140 C1136 0.950 . S
C1141 C1139 1.390 . S
C1141 C1142 1.387 . S
C1141 H1144 0.950 . S
C1142 C1141 1.387 . S
C1142 C1145 1.387 . S
H1143 C1139 0.950 . S
H1144 C1141 0.950 . S
C1145 C1136 1.390 . S
C1145 H1138 0.950 . S
C1145 C1142 1.387 . S
C1146 C1147 1.387 . S
C1146 H1150 0.950 . S
C1146 C1155 1.390 . S
C1147 C1146 1.387 . S
C1147 C1149 1.355 1_455 S
H1148 C1155 0.950 . S
C1149 C1147 1.355 1_655 S
C1149 C1151 1.397 . S
C1149 H1153 0.976 . S
H1150 C1146 0.950 . S
C1151 C1149 1.397 . S
C1151 C1152 1.387 1_655 S
C1151 H1154 0.950 . S
C1152 C1151 1.387 1_455 S
C1152 C1155 1.387 . S
H1153 C1149 0.976 . S
H1154 C1151 0.950 . S
C1155 C1146 1.390 . S
C1155 H1148 0.950 . S
C1155 C1152 1.387 . S
C1156 C1157 1.387 . S
C1156 H1160 0.950 . S
C1156 C1165 1.390 . S
C1157 C1156 1.387 . S
C1157 C1159 1.387 . S
H1158 C1165 0.950 . S
C1159 C1157 1.387 . S
C1159 C1161 1.390 . S
C1159 H1163 0.950 . S
H1160 C1156 0.950 . S
C1161 C1159 1.390 . S
C1161 C1162 1.387 . S
C1161 H1164 0.950 . S
C1162 C1161 1.387 . S
C1162 C1165 1.387 . S
H1163 C1159 0.950 . S
H1164 C1161 0.950 . S
C1165 C1156 1.390 . S
C1165 H1158 0.950 . S
C1165 C1162 1.387 . S
C1166 C1167 1.387 . S
C1166 H1170 0.950 . S
C1166 C1175 1.390 . S
C1167 C1166 1.387 . S
C1167 C1169 1.387 . S
H1168 C1175 0.950 . S
C1169 C1167 1.387 . S
C1169 C1171 1.390 . S
C1169 H1173 0.950 . S
H1170 C1166 0.950 . S
C1171 C1169 1.390 . S
C1171 C1172 1.387 . S
C1171 H1174 0.950 . S
C1172 C1171 1.387 . S
C1172 C1175 1.387 . S
H1173 C1169 0.950 . S
H1174 C1171 0.950 . S
C1175 C1166 1.390 . S
C1175 H1168 0.950 . S
C1175 C1172 1.387 . S
C1176 C1177 1.387 . S
C1176 H1180 0.950 . S
C1176 C1185 1.390 . S
C1177 C1176 1.387 . S
C1177 C1179 1.387 . S
H1178 C1185 0.950 . S
C1179 C1177 1.387 . S
C1179 C1181 1.390 . S
C1179 H1183 0.950 . S
H1180 C1176 0.950 . S
C1181 C1179 1.390 . S
C1181 C1182 1.387 . S
C1181 H1184 0.950 . S
C1182 C1181 1.387 . S
C1182 C1185 1.387 . S
H1183 C1179 0.950 . S
H1184 C1181 0.950 . S
C1185 C1176 1.390 . S
C1185 H1178 0.950 . S
C1185 C1182 1.387 . S
C1186 C1187 1.387 . S
C1186 H1190 0.950 . S
C1186 C1195 1.390 . S
C1187 C1186 1.387 . S
C1187 C1189 1.387 . S
H1188 C1195 0.950 . S
C1189 C1187 1.387 . S
C1189 C1191 1.390 . S
C1189 H1193 0.950 . S
H1190 C1186 0.950 . S
C1191 C1189 1.390 . S
C1191 C1192 1.387 . S
C1191 H1194 0.950 . S
C1192 C1191 1.387 . S
C1192 C1195 1.387 . S
H1193 C1189 0.950 . S
H1194 C1191 0.950 . S
C1195 C1186 1.390 . S
C1195 H1188 0.950 . S
C1195 C1192 1.387 . S
C1196 C1197 1.387 . S
C1196 H1200 0.950 . S
C1196 C1205 1.390 . S
C1197 C1196 1.387 . S
C1197 C1199 1.387 . S
H1198 C1205 0.950 . S
C1199 C1197 1.387 . S
C1199 C1201 1.390 . S
C1199 H1203 0.950 . S
H1200 C1196 0.950 . S
C1201 C1199 1.390 . S
C1201 C1202 1.387 . S
C1201 H1204 0.950 . S
C1202 C1201 1.387 . S
C1202 C1205 1.387 . S
H1203 C1199 0.950 . S
H1204 C1201 0.950 . S
C1205 C1196 1.390 . S
C1205 H1198 0.950 . S
C1205 C1202 1.387 . S
C1206 C1207 1.387 . S
C1206 H1210 0.950 . S
C1206 C1215 1.390 . S
C1207 C1206 1.387 . S
C1207 C1209 1.387 . S
H1208 C1215 0.950 . S
C1209 C1207 1.387 . S
C1209 C1211 1.390 . S
C1209 H1213 0.950 . S
H1210 C1206 0.950 . S
C1211 C1209 1.390 . S
C1211 C1212 1.387 . S
C1211 H1214 0.950 . S
C1212 C1211 1.387 . S
C1212 C1215 1.387 . S
H1213 C1209 0.950 . S
H1214 C1211 0.950 . S
C1215 C1206 1.390 . S
C1215 H1208 0.950 . S
C1215 C1212 1.387 . S
C1216 C1217 1.387 . S
C1216 H1220 0.950 . S
C1216 C1225 1.390 . S
C1217 C1216 1.387 . S
C1217 C1219 1.387 . S
H1218 C1225 0.950 . S
C1219 C1217 1.387 . S
C1219 C1221 1.390 . S
C1219 H1223 0.950 . S
H1220 C1216 0.950 . S
C1221 C1219 1.390 . S
C1221 C1222 1.387 . S
C1221 H1224 0.950 . S
C1222 C1221 1.387 . S
C1222 C1225 1.387 . S
H1223 C1219 0.950 . S
H1224 C1221 0.950 . S
C1225 C1216 1.390 . S
C1225 H1218 0.950 . S
C1225 C1222 1.387 . S
C1226 C1227 1.387 . S
C1226 H1230 0.950 . S
C1226 C1235 1.390 . S
C1227 C1226 1.387 . S
C1227 C1229 1.387 . S
H1228 C1235 0.950 . S
C1229 C1227 1.387 . S
C1229 C1231 1.390 . S
C1229 H1233 0.950 . S
H1230 C1226 0.950 . S
C1231 C1229 1.390 . S
C1231 C1232 1.387 . S
C1231 H1234 0.950 . S
C1232 C1231 1.387 . S
C1232 C1235 1.387 . S
H1233 C1229 0.950 . S
H1234 C1231 0.950 . S
C1235 C1226 1.390 . S
C1235 H1228 0.950 . S
C1235 C1232 1.387 . S
C1236 C1237 1.387 1_554 S
C1236 H1240 0.950 . S
C1236 C1245 1.390 . S
C1237 C1236 1.387 1_556 S
C1237 C1239 1.387 . S
H1238 C1245 0.950 . S
C1239 C1237 1.387 . S
C1239 C1241 1.390 . S
C1239 H1243 0.950 . S
H1240 C1236 0.950 . S
C1241 C1239 1.390 . S
C1241 C1242 1.387 . S
C1241 H1244 0.950 . S
C1242 C1241 1.387 . S
C1242 C1245 1.387 1_556 S
H1243 C1239 0.950 . S
H1244 C1241 0.950 . S
C1245 C1236 1.390 . S
C1245 H1238 0.950 . S
C1245 C1242 1.387 1_554 S
C1246 C1247 1.387 . S
C1246 H1250 0.950 . S
C1246 C1255 1.390 . S
C1247 C1246 1.387 . S
C1247 C1249 1.387 . S
H1248 C1255 0.950 . S
C1249 C1247 1.387 . S
C1249 C1251 1.390 . S
C1249 H1253 0.950 . S
H1250 C1246 0.950 . S
C1251 C1249 1.390 . S
C1251 C1252 1.387 . S
C1251 H1254 0.950 . S
C1252 C1251 1.387 . S
C1252 C1255 1.387 . S
H1253 C1249 0.950 . S
H1254 C1251 0.950 . S
C1255 C1246 1.390 . S
C1255 H1248 0.950 . S
C1255 C1252 1.387 . S
C1256 C1257 1.387 . S
C1256 H1260 0.950 . S
C1256 C1265 1.390 . S
C1257 C1256 1.387 . S
C1257 C1259 1.387 1_554 S
H1258 C1265 0.950 . S
C1259 C1257 1.387 1_556 S
C1259 C1261 1.390 . S
C1259 H1263 0.950 . S
H1260 C1256 0.950 . S
C1261 C1259 1.390 . S
C1261 C1262 1.387 1_556 S
C1261 H1264 0.950 . S
C1262 C1261 1.387 1_554 S
C1262 C1265 1.387 . S
H1263 C1259 0.950 . S
H1264 C1261 0.950 . S
C1265 C1256 1.390 . S
C1265 H1258 0.950 . S
C1265 C1262 1.387 . S
C1266 C1267 1.387 . S
C1266 H1270 0.950 1_554 S
C1266 C1275 1.390 . S
C1267 C1266 1.387 . S
C1267 C1269 1.387 . S
H1268 C1275 0.950 1_556 S
C1269 C1267 1.387 . S
C1269 C1271 1.390 . S
C1269 H1273 0.950 . S
H1270 C1266 0.950 1_556 S
C1271 C1269 1.390 . S
C1271 C1272 1.387 . S
C1271 H1274 0.950 . S
C1272 C1271 1.387 . S
C1272 C1275 1.387 . S
H1273 C1269 0.950 . S
H1274 C1271 0.950 . S
C1275 C1266 1.390 . S
C1275 H1268 0.950 1_554 S
C1275 C1272 1.387 . S
C802 C650 1.421 . S
C797 C202 1.420 . S
C812 C663 1.604 . S
C807 C261 1.614 . S
C817 C282 1.454 . S
C822 C676 1.458 . S
C832 C689 1.522 . S
C827 C162 1.521 . S
C842 C697 1.453 . S
C837 C402 1.482 . S
C852 C710 1.423 . S
C847 C482 1.435 . S
C857 C442 1.515 . S
C862 C723 1.503 . S
C872 C736 1.513 . S
C867 C381 1.525 . S
C877 C461 1.475 . S
C882 C754 1.470 . S
C892 C765 1.478 . S
C887 C362 1.506 . S
C897 C415 1.431 . S
C902 C749 1.400 . S
C912 C757 1.475 . S
C907 C495 1.505 . S
C917 C301 1.529 . S
C922 C780 1.525 . S
C927 C175 1.531 . S
C932 C770 1.494 . S
C937 C215 1.478 . S
C942 C775 1.440 . S
C947 C242 1.537 . S
C952 C778 1.508 1_655 S
C957 C141 1.499 . S
C962 C687 1.467 . S
C967 C581 1.465 . S
C972 C679 1.448 . S
C982 C648 1.500 . S
C977 C615 1.528 . S
C992 C653 1.489 . S
C987 C335 1.505 . S
C997 C181 1.581 . S
C1002 C700 1.554 . S
C1012 C739 1.493 . S
C1007 C455 1.517 . S
C1022 C692 1.441 . S
C1017 C375 1.469 . S
C1032 C718 1.491 . S
C1027 C501 1.523 . S
C1042 C728 1.421 . S
C1037 C562 1.420 . S
C1047 C621 1.614 . S
C1052 C741 1.603 . S
C1057 C322 1.454 . S
C1062 C702 1.458 . S
C1072 C715 1.522 . S
C1067 C522 1.520 . S
C1077 C122 1.482 . S
C1082 C671 1.451 . S
C1092 C684 1.423 . S
C1087 C2 1.435 . S
C1102 C645 1.502 . S
C1097 C42 1.514 . S
C1112 C658 1.513 . S
C1107 C101 1.525 . S
C1117 C61 1.474 . S
C1122 C767 1.472 . S
C1127 C82 1.507 . S
C1132 C752 1.477 1_655 S
C1137 C135 1.430 . S
C1142 C762 1.397 . S
C1147 C15 1.505 . S
C1152 C744 1.475 . S
C1162 C793 1.525 . S
C1157 C341 1.529 . S
C1172 C783 1.495 . S
C1167 C535 1.531 . S
C1182 C788 1.440 . S
C1177 C575 1.478 . S
C1187 C602 1.537 . S
C1192 C791 1.508 . S
C1197 C421 1.500 . S
C1202 C713 1.468 . S
C1212 C705 1.448 . S
C1207 C221 1.465 . S
C1222 C726 1.502 . S
C1217 C255 1.528 . S
C1232 C731 1.489 . S
C1227 C295 1.507 . S
C1237 C541 1.581 . S
C1242 C674 1.554 . S
C1252 C661 1.492 . S
C1247 C55 1.519 . S
C1257 C95 1.468 . S
C1262 C666 1.439 . S
C1272 C640 1.491 . S
C1267 C21 1.523 . S
