# Generated by pormake.
# Topology fgl, (4,4)-cn, num edge types: 1
# Building blocks:
#     Node 0, Type 0, BuildingBlock: ESEHIV_clean_sbu_0, # of connection points: 4
#     Node 1, Type 0, BuildingBlock: ESEHIV_clean_sbu_0, # of connection points: 4
#     Node 2, Type 0, BuildingBlock: ESEHIV_clean_sbu_0, # of connection points: 4
#     Node 3, Type 0, BuildingBlock: ESEHIV_clean_sbu_0, # of connection points: 4
#     Node 4, Type 0, BuildingBlock: ESEHIV_clean_sbu_0, # of connection points: 4
#     Node 5, Type 0, BuildingBlock: ESEHIV_clean_sbu_0, # of connection points: 4
#     Node 6, Type 0, BuildingBlock: ESEHIV_clean_sbu_0, # of connection points: 4
#     Node 7, Type 0, BuildingBlock: ESEHIV_clean_sbu_0, # of connection points: 4
#     Node 8, Type 0, BuildingBlock: ESEHIV_clean_sbu_0, # of connection points: 4
#     Node 9, Type 0, BuildingBlock: ESEHIV_clean_sbu_0, # of connection points: 4
#     Node 10, Type 0, BuildingBlock: ESEHIV_clean_sbu_0, # of connection points: 4
#     Node 11, Type 0, BuildingBlock: ESEHIV_clean_sbu_0, # of connection points: 4
#     Node 12, Type 0, BuildingBlock: ESEHIV_clean_sbu_0, # of connection points: 4
#     Node 13, Type 0, BuildingBlock: ESEHIV_clean_sbu_0, # of connection points: 4
#     Node 14, Type 0, BuildingBlock: ESEHIV_clean_sbu_0, # of connection points: 4
#     Node 15, Type 0, BuildingBlock: ESEHIV_clean_sbu_0, # of connection points: 4
#     Node 16, Type 0, BuildingBlock: ESEHIV_clean_sbu_0, # of connection points: 4
#     Node 17, Type 0, BuildingBlock: ESEHIV_clean_sbu_0, # of connection points: 4
#     Node 18, Type 1, BuildingBlock: KUFVIS_clean_sbu_0, # of connection points: 4
#     Node 19, Type 1, BuildingBlock: KUFVIS_clean_sbu_0, # of connection points: 4
#     Node 20, Type 1, BuildingBlock: KUFVIS_clean_sbu_0, # of connection points: 4
#     Node 21, Type 1, BuildingBlock: KUFVIS_clean_sbu_0, # of connection points: 4
#     Node 22, Type 1, BuildingBlock: KUFVIS_clean_sbu_0, # of connection points: 4
#     Node 23, Type 1, BuildingBlock: KUFVIS_clean_sbu_0, # of connection points: 4
#     Node 24, Type 1, BuildingBlock: KUFVIS_clean_sbu_0, # of connection points: 4
#     Node 25, Type 1, BuildingBlock: KUFVIS_clean_sbu_0, # of connection points: 4
#     Node 26, Type 1, BuildingBlock: KUFVIS_clean_sbu_0, # of connection points: 4
#     Node 27, Type 1, BuildingBlock: KUFVIS_clean_sbu_0, # of connection points: 4
#     Node 28, Type 1, BuildingBlock: KUFVIS_clean_sbu_0, # of connection points: 4
#     Node 29, Type 1, BuildingBlock: KUFVIS_clean_sbu_0, # of connection points: 4
#     Node 30, Type 1, BuildingBlock: KUFVIS_clean_sbu_0, # of connection points: 4
#     Node 31, Type 1, BuildingBlock: KUFVIS_clean_sbu_0, # of connection points: 4
#     Node 32, Type 1, BuildingBlock: KUFVIS_clean_sbu_0, # of connection points: 4
#     Node 33, Type 1, BuildingBlock: KUFVIS_clean_sbu_0, # of connection points: 4
#     Node 34, Type 1, BuildingBlock: KUFVIS_clean_sbu_0, # of connection points: 4
#     Node 35, Type 1, BuildingBlock: KUFVIS_clean_sbu_0, # of connection points: 4
#     Edge 36, Type (0, 1), BuildingBlock: KIFKEQ_clean_linker_1, # of connection points: 2
#     Edge 37, Type (0, 1), BuildingBlock: KIFKEQ_clean_linker_1, # of connection points: 2
#     Edge 38, Type (0, 1), BuildingBlock: KIFKEQ_clean_linker_1, # of connection points: 2
#     Edge 39, Type (0, 1), BuildingBlock: KIFKEQ_clean_linker_1, # of connection points: 2
#     Edge 40, Type (0, 1), BuildingBlock: KIFKEQ_clean_linker_1, # of connection points: 2
#     Edge 41, Type (0, 1), BuildingBlock: KIFKEQ_clean_linker_1, # of connection points: 2
#     Edge 42, Type (0, 1), BuildingBlock: KIFKEQ_clean_linker_1, # of connection points: 2
#     Edge 43, Type (0, 1), BuildingBlock: KIFKEQ_clean_linker_1, # of connection points: 2
#     Edge 44, Type (0, 1), BuildingBlock: KIFKEQ_clean_linker_1, # of connection points: 2
#     Edge 45, Type (0, 1), BuildingBlock: KIFKEQ_clean_linker_1, # of connection points: 2
#     Edge 46, Type (0, 1), BuildingBlock: KIFKEQ_clean_linker_1, # of connection points: 2
#     Edge 47, Type (0, 1), BuildingBlock: KIFKEQ_clean_linker_1, # of connection points: 2
#     Edge 48, Type (0, 1), BuildingBlock: KIFKEQ_clean_linker_1, # of connection points: 2
#     Edge 49, Type (0, 1), BuildingBlock: KIFKEQ_clean_linker_1, # of connection points: 2
#     Edge 50, Type (0, 1), BuildingBlock: KIFKEQ_clean_linker_1, # of connection points: 2
#     Edge 51, Type (0, 1), BuildingBlock: KIFKEQ_clean_linker_1, # of connection points: 2
#     Edge 52, Type (0, 1), BuildingBlock: KIFKEQ_clean_linker_1, # of connection points: 2
#     Edge 53, Type (0, 1), BuildingBlock: KIFKEQ_clean_linker_1, # of connection points: 2
#     Edge 54, Type (0, 1), BuildingBlock: KIFKEQ_clean_linker_1, # of connection points: 2
#     Edge 55, Type (0, 1), BuildingBlock: KIFKEQ_clean_linker_1, # of connection points: 2
#     Edge 56, Type (0, 1), BuildingBlock: KIFKEQ_clean_linker_1, # of connection points: 2
#     Edge 57, Type (0, 1), BuildingBlock: KIFKEQ_clean_linker_1, # of connection points: 2
#     Edge 58, Type (0, 1), BuildingBlock: KIFKEQ_clean_linker_1, # of connection points: 2
#     Edge 59, Type (0, 1), BuildingBlock: KIFKEQ_clean_linker_1, # of connection points: 2
#     Edge 60, Type (0, 1), BuildingBlock: KIFKEQ_clean_linker_1, # of connection points: 2
#     Edge 61, Type (0, 1), BuildingBlock: KIFKEQ_clean_linker_1, # of connection points: 2
#     Edge 62, Type (0, 1), BuildingBlock: KIFKEQ_clean_linker_1, # of connection points: 2
#     Edge 63, Type (0, 1), BuildingBlock: KIFKEQ_clean_linker_1, # of connection points: 2
#     Edge 64, Type (0, 1), BuildingBlock: KIFKEQ_clean_linker_1, # of connection points: 2
#     Edge 65, Type (0, 1), BuildingBlock: KIFKEQ_clean_linker_1, # of connection points: 2
#     Edge 66, Type (0, 1), BuildingBlock: KIFKEQ_clean_linker_1, # of connection points: 2
#     Edge 67, Type (0, 1), BuildingBlock: KIFKEQ_clean_linker_1, # of connection points: 2
#     Edge 68, Type (0, 1), BuildingBlock: KIFKEQ_clean_linker_1, # of connection points: 2
#     Edge 69, Type (0, 1), BuildingBlock: KIFKEQ_clean_linker_1, # of connection points: 2
#     Edge 70, Type (0, 1), BuildingBlock: KIFKEQ_clean_linker_1, # of connection points: 2
#     Edge 71, Type (0, 1), BuildingBlock: KIFKEQ_clean_linker_1, # of connection points: 2
#     Edge 72, Type (0, 1), BuildingBlock: KIFKEQ_clean_linker_1, # of connection points: 2
#     Edge 73, Type (0, 1), BuildingBlock: KIFKEQ_clean_linker_1, # of connection points: 2
#     Edge 74, Type (0, 1), BuildingBlock: KIFKEQ_clean_linker_1, # of connection points: 2
#     Edge 75, Type (0, 1), BuildingBlock: KIFKEQ_clean_linker_1, # of connection points: 2
#     Edge 76, Type (0, 1), BuildingBlock: KIFKEQ_clean_linker_1, # of connection points: 2
#     Edge 77, Type (0, 1), BuildingBlock: KIFKEQ_clean_linker_1, # of connection points: 2
#     Edge 78, Type (0, 1), BuildingBlock: KIFKEQ_clean_linker_1, # of connection points: 2
#     Edge 79, Type (0, 1), BuildingBlock: KIFKEQ_clean_linker_1, # of connection points: 2
#     Edge 80, Type (0, 1), BuildingBlock: KIFKEQ_clean_linker_1, # of connection points: 2
#     Edge 81, Type (0, 1), BuildingBlock: KIFKEQ_clean_linker_1, # of connection points: 2
#     Edge 82, Type (0, 1), BuildingBlock: KIFKEQ_clean_linker_1, # of connection points: 2
#     Edge 83, Type (0, 1), BuildingBlock: KIFKEQ_clean_linker_1, # of connection points: 2
#     Edge 84, Type (0, 1), BuildingBlock: KIFKEQ_clean_linker_1, # of connection points: 2
#     Edge 85, Type (0, 1), BuildingBlock: KIFKEQ_clean_linker_1, # of connection points: 2
#     Edge 86, Type (0, 1), BuildingBlock: KIFKEQ_clean_linker_1, # of connection points: 2
#     Edge 87, Type (0, 1), BuildingBlock: KIFKEQ_clean_linker_1, # of connection points: 2
#     Edge 88, Type (0, 1), BuildingBlock: KIFKEQ_clean_linker_1, # of connection points: 2
#     Edge 89, Type (0, 1), BuildingBlock: KIFKEQ_clean_linker_1, # of connection points: 2
#     Edge 90, Type (0, 1), BuildingBlock: KIFKEQ_clean_linker_1, # of connection points: 2
#     Edge 91, Type (0, 1), BuildingBlock: KIFKEQ_clean_linker_1, # of connection points: 2
#     Edge 92, Type (0, 1), BuildingBlock: KIFKEQ_clean_linker_1, # of connection points: 2
#     Edge 93, Type (0, 1), BuildingBlock: KIFKEQ_clean_linker_1, # of connection points: 2
#     Edge 94, Type (0, 1), BuildingBlock: KIFKEQ_clean_linker_1, # of connection points: 2
#     Edge 95, Type (0, 1), BuildingBlock: KIFKEQ_clean_linker_1, # of connection points: 2
#     Edge 96, Type (0, 1), BuildingBlock: KIFKEQ_clean_linker_1, # of connection points: 2
#     Edge 97, Type (0, 1), BuildingBlock: KIFKEQ_clean_linker_1, # of connection points: 2
#     Edge 98, Type (0, 1), BuildingBlock: KIFKEQ_clean_linker_1, # of connection points: 2
#     Edge 99, Type (0, 1), BuildingBlock: KIFKEQ_clean_linker_1, # of connection points: 2
#     Edge 100, Type (0, 1), BuildingBlock: KIFKEQ_clean_linker_1, # of connection points: 2
#     Edge 101, Type (0, 1), BuildingBlock: KIFKEQ_clean_linker_1, # of connection points: 2
#     Edge 102, Type (0, 1), BuildingBlock: KIFKEQ_clean_linker_1, # of connection points: 2
#     Edge 103, Type (0, 1), BuildingBlock: KIFKEQ_clean_linker_1, # of connection points: 2
#     Edge 104, Type (0, 1), BuildingBlock: KIFKEQ_clean_linker_1, # of connection points: 2
#     Edge 105, Type (0, 1), BuildingBlock: KIFKEQ_clean_linker_1, # of connection points: 2
#     Edge 106, Type (0, 1), BuildingBlock: KIFKEQ_clean_linker_1, # of connection points: 2
#     Edge 107, Type (0, 1), BuildingBlock: KIFKEQ_clean_linker_1, # of connection points: 2
# Relax obj value: 0.017
# Max RMSD: 0.136
# Mean RMSD: 0.072
data_MOF--net-fgl--node1-ESEHIV_clean_sbu_0--node2-KUFVIS_clean_sbu_0--edge1-KIFKEQ_clean_linker_1
_symmetry_space_group_name_H-M    P1
_symmetry_Int_Tables_number       1
_symmetry_cell_setting            triclinic
loop_
_symmetry_equiv_pos_as_xyz
'x, y, z'
_cell_length_a     75.134628
_cell_length_b     77.186984
_cell_length_c     51.279514
_cell_angle_alpha  89.706328
_cell_angle_beta   89.70887
_cell_angle_gamma 119.79588
loop_
_atom_site_label
_atom_site_type_symbol
_atom_site_fract_x
_atom_site_fract_y
_atom_site_fract_z
_atom_type_partial_charge
Cu0 Cu 0.02397 0.53925 1.0169 0.0
N1 N 1.01129 0.53747 0.04953 0.0
N2 N 1.00471 0.54771 0.08763 0.0
C3 C 1.01426 0.55326 0.06407 0.0
C4 C 0.9952 0.52752 0.08762 0.0
C5 C 0.99931 0.52129 0.06424 0.0
O6 O 0.02679 0.56295 1.00047 0.0
C7 C 0.0576 0.54157 0.04447 0.0
O8 O 0.05234 0.54952 0.06346 0.0
H9 H 0.02398 0.56858 0.0578 0.0
H10 H 0.9943 0.50607 0.05863 0.0
N11 N 1.00935 0.51741 0.99446 0.0
N12 N 1.00376 0.49638 0.96119 0.0
C13 C 0.01755 0.51321 0.97353 0.0
C14 C 0.98965 0.50275 0.99546 0.0
C15 C 0.98617 0.48982 0.97506 0.0
C16 C 1.00972 0.56234 0.99738 0.0
O17 O 0.99277 0.54578 1.00348 0.0
H18 H 0.03349 0.52221 0.96783 0.0
H19 H 0.9786 0.50153 1.01001 0.0
O20 O 0.04965 0.5398 0.02215 0.0
H21 H 0.98598 0.5178 0.10341 0.0
H22 H 0.97167 0.4767 0.97071 0.0
Cu23 Cu 0.52342 0.54935 0.03175 0.0
N24 N 0.52446 0.55813 0.99542 0.0
N25 N 0.53683 0.57259 0.95643 0.0
C26 C 0.541 0.56667 0.97941 0.0
C27 C 0.51682 0.5674 0.95816 0.0
C28 C 0.50926 0.55851 0.98219 0.0
O29 O 0.54425 0.57856 0.0418 0.0
C30 C 0.50044 0.50411 0.02921 0.0
O31 O 0.51484 0.50499 0.04447 0.0
H32 H 0.55594 0.5691 0.98485 0.0
H33 H 0.4939 0.5531 0.9897 0.0
N34 N 0.52301 0.54097 0.06818 0.0
N35 N 0.51319 0.52853 0.10863 0.0
C36 C 0.50725 0.5325 0.08544 0.0
C37 C 0.53936 0.54251 0.0808 0.0
C38 C 0.53341 0.53494 0.10563 0.0
C39 C 0.5637 0.58603 0.04031 0.0
O40 O 0.57101 0.57458 0.03257 0.0
H41 H 0.49177 0.52899 0.0809 0.0
H42 H 0.55456 0.54861 0.07247 0.0
O43 O 0.50138 0.52037 0.02147 0.0
H44 H 0.50822 0.56992 0.94323 0.0
H45 H 0.54339 0.53445 0.12039 0.0
Cu46 Cu 0.51672 0.03364 0.04634 0.0
N47 N 0.50244 0.0136 0.02216 0.0
N48 N 0.4883 1.00206 0.98326 0.0
C49 C 0.50316 0.01748 0.99649 0.0
C50 C 0.47812 0.98763 1.00143 0.0
C51 C 0.48688 0.99482 0.02545 0.0
O52 O 0.50022 0.04584 0.05469 0.0
C53 C 0.55447 0.04226 0.02977 0.0
O54 O 0.54609 0.02338 0.03672 0.0
H55 H 0.51308 0.03216 0.98824 0.0
H56 H 0.48132 0.98742 0.04409 0.0
N57 N 0.52082 0.02444 0.07818 0.0
N58 N 0.53617 0.02704 0.11638 0.0
C59 C 0.53774 0.03506 0.09247 0.0
C60 C 0.50787 1.00907 0.09353 0.0
C61 C 0.51738 1.01054 0.11709 0.0
C62 C 0.48864 0.04835 0.03894 0.0
O63 O 0.49067 0.04679 1.01376 0.0
H64 H 0.55077 0.04875 0.08546 0.0
H65 H 0.49233 0.99814 0.08848 0.0
O66 O 0.54385 0.05093 0.03163 0.0
H67 H 0.46455 0.97338 0.99798 0.0
H68 H 0.51059 1.00071 0.13375 0.0
Cu69 Cu 0.5406 0.06849 0.52947 0.0
N70 N 0.56257 0.08794 0.51036 0.0
N71 N 0.5869 0.10043 0.47951 0.0
C72 C 0.57353 0.08401 0.49302 0.0
C73 C 0.58426 0.11537 0.48877 0.0
C74 C 0.56922 0.10759 0.50792 0.0
O75 O 0.54581 0.04566 0.5288 0.0
C76 C 0.49688 0.05581 0.51777 0.0
O77 O 0.49091 0.03921 0.53106 0.0
H78 H 0.57088 0.06912 0.48933 0.0
H79 H 0.56301 0.11549 0.51857 0.0
N80 N 0.54231 0.07705 0.56368 0.0
N81 N 0.53187 0.07987 0.60341 0.0
C82 C 0.52624 0.07379 0.57872 0.0
C83 C 0.55879 0.08565 0.57927 0.0
C84 C 0.55235 0.08731 0.60394 0.0
C85 C 0.54727 0.03702 0.5494 0.0
O86 O 0.53963 0.03923 0.57141 0.0
H87 H 0.51056 0.06618 0.572 0.0
H88 H 0.57423 0.08972 0.57332 0.0
O89 O 0.51603 0.0678 0.51416 0.0
H90 H 0.59227 0.13067 0.4818 0.0
H91 H 0.5619 0.09318 0.62099 0.0
Cu92 Cu 0.03287 0.55837 0.53391 0.0
N93 N 0.04889 0.55095 0.55452 0.0
N94 N 0.05521 0.53292 0.5841 0.0
C95 C 0.04119 0.53728 0.57414 0.0
C96 C 0.07252 0.54457 0.57013 0.0
C97 C 0.06858 0.55555 0.55197 0.0
O98 O 1.00749 0.53279 0.53181 0.0
C99 C 0.04896 0.59659 0.55273 0.0
O100 O 0.06553 0.59601 0.54586 0.0
H101 H 0.02526 0.53003 0.58016 0.0
H102 H 0.07916 0.56575 0.53748 0.0
N103 N 0.04273 0.56715 0.4996 0.0
N104 N 0.04379 0.57966 0.45949 0.0
C105 C 0.03798 0.57882 0.48472 0.0
C106 C 0.05209 0.56057 0.48325 0.0
C107 C 0.05274 0.56821 0.45857 0.0
C108 C 1.00059 0.52377 0.51029 0.0
O109 O 1.00356 0.53433 0.48893 0.0
H110 H 0.02914 0.58542 0.49192 0.0
H111 H 0.05704 0.55005 0.48857 0.0
O112 O 0.03161 0.58069 0.55033 0.0
H113 H 0.08705 0.54505 0.57253 0.0
H114 H 0.05876 0.56506 0.44113 0.0
Cu115 Cu 0.52974 0.59119 0.53019 0.0
N116 N 0.54797 0.61739 0.52034 0.0
N117 N 0.57846 0.64453 0.51369 0.0
C118 C 0.56807 0.6245 0.51629 0.0
C119 C 0.56422 0.65026 0.51549 0.0
C120 C 0.54536 0.63342 0.51974 0.0
O121 O 0.53962 0.58667 0.56329 0.0
C122 C 0.51652 0.5544 0.50237 0.0
O123 O 0.51202 0.54572 0.52546 0.0
H124 H 0.57498 0.61514 0.51559 0.0
H125 H 0.53095 0.63303 0.52311 0.0
N126 N 0.50433 0.58849 0.53775 0.0
N127 N 0.47114 0.5708 0.54831 0.0
C128 C 0.48663 0.57146 0.53423 0.0
C129 C 0.49991 0.59937 0.5542 0.0
C130 C 0.47936 0.58849 0.56071 0.0
C131 C 0.55667 0.58739 0.56738 0.0
O132 O 0.56772 0.58742 0.54745 0.0
H133 H 0.48571 0.55875 0.52428 0.0
H134 H 0.51117 0.61321 0.56296 0.0
O135 O 0.52581 0.57341 0.50097 0.0
H136 H 0.56729 0.66553 0.51483 0.0
H137 H 0.47161 0.59252 0.57528 0.0
Cu138 Cu 0.70889 0.89103 0.35178 0.0
N139 N 0.7178 0.91577 0.33581 0.0
N140 N 0.71975 0.9449 0.32657 0.0
C141 C 0.7119 0.92895 0.34271 0.0
C142 C 0.73101 0.94168 0.30873 0.0
C143 C 0.72986 0.9237 0.31457 0.0
O144 O 0.69394 0.89146 0.38402 0.0
C145 C 0.70761 0.86855 0.30783 0.0
O146 O 0.7274 0.88022 0.31097 0.0
H147 H 0.70131 0.9265 0.35855 0.0
H148 H 0.737 0.91678 0.30374 0.0
N149 N 0.73171 0.8894 0.36271 0.0
N150 N 0.75004 0.87499 0.37345 0.0
C151 C 0.73113 0.8728 0.37193 0.0
C152 C 0.75171 0.90267 0.35862 0.0
C153 C 0.76308 0.8937 0.36501 0.0
C154 C 0.70543 0.90388 0.40142 0.0
O155 O 0.72525 0.91409 0.39672 0.0
H156 H 0.71705 0.85888 0.3754 0.0
H157 H 0.75749 0.91733 0.34999 0.0
O158 O 0.69538 0.8702 0.324 0.0
H159 H 0.7392 0.95147 0.29246 0.0
H160 H 0.77948 0.90005 0.36254 0.0
Cu161 Cu 0.19081 0.88746 0.36634 0.0
N162 N 0.16422 0.87198 0.3529 0.0
N163 N 0.13684 0.84445 0.33754 0.0
C164 C 0.1557 0.85226 0.34816 0.0
C165 C 0.13339 0.86002 0.33559 0.0
C166 C 0.15027 0.87693 0.34501 0.0
O167 O 0.19139 0.87018 0.39424 0.0
C168 C 0.20689 0.9043 0.31911 0.0
O169 O 0.192 0.90832 0.32272 0.0
H170 H 0.16332 0.84384 0.35256 0.0
H171 H 0.15233 0.89181 0.34547 0.0
N172 N 0.19675 0.91243 0.38002 0.0
N173 N 0.21608 0.94406 0.39333 0.0
C174 C 0.2159 0.92739 0.38511 0.0
C175 C 0.18437 0.91998 0.38518 0.0
C176 C 0.19627 0.93954 0.39324 0.0
C177 C 0.19615 0.87574 0.41779 0.0
O178 O 0.20584 0.89489 0.42297 0.0
H179 H 0.22952 0.92613 0.38243 0.0
H180 H 0.16789 0.91195 0.38311 0.0
O181 O 0.20974 0.89412 0.33666 0.0
H182 H 0.11987 0.85944 0.32738 0.0
H183 H 0.19078 0.94957 0.39885 0.0
Cu184 Cu 0.20718 0.41309 0.37956 0.0
N185 N 0.20674 0.42781 0.35099 0.0
N186 N 0.19578 0.43209 0.3125 0.0
C187 C 0.19344 0.41905 0.33154 0.0
C188 C 0.21132 0.44988 0.32023 0.0
C189 C 0.21804 0.4472 0.34415 0.0
O190 O 0.17824 0.39716 0.39023 0.0
C191 C 0.24033 0.41213 0.35993 0.0
O192 O 0.24562 0.43105 0.35793 0.0
H193 H 0.18246 0.40323 0.33127 0.0
H194 H 0.23045 0.45852 0.35542 0.0
N195 N 0.22198 0.42854 0.40765 0.0
N196 N 0.2404 0.4348 0.44393 0.0
C197 C 0.22833 0.42091 0.42659 0.0
C198 C 0.23008 0.44803 0.41312 0.0
C199 C 0.24146 0.45195 0.43561 0.0
C200 C 0.17093 0.40811 0.39797 0.0
O201 O 0.18346 0.42747 0.39923 0.0
H202 H 0.22421 0.40535 0.42725 0.0
H203 H 0.22818 0.4587 0.40147 0.0
O204 O 0.22252 0.39977 0.36896 0.0
H205 H 0.21726 0.46382 0.30954 0.0
H206 H 0.25025 0.4664 0.44462 0.0
Cu207 Cu 0.19472 0.37849 0.87949 0.0
N208 N 0.209 0.39225 0.84989 0.0
N209 N 0.22521 0.39666 0.81204 0.0
C210 C 0.22069 0.38734 0.83533 0.0
C211 C 0.21621 0.40804 0.81191 0.0
C212 C 0.20628 0.40539 0.83553 0.0
O213 O 0.20555 0.36044 0.88745 0.0
C214 C 0.15876 0.36416 0.84833 0.0
O215 O 0.17033 0.36242 0.83042 0.0
H216 H 0.22429 0.37586 0.84072 0.0
H217 H 0.19648 0.41135 0.84104 0.0
N218 N 0.20137 0.39685 0.90612 0.0
N219 N 0.19765 0.4105 0.94236 0.0
C220 C 0.19074 0.39365 0.92844 0.0
C221 C 0.21548 0.41642 0.90583 0.0
C222 C 0.2131 0.42496 0.9282 0.0
C223 C 0.21006 0.357 0.91015 0.0
O224 O 0.20344 0.36222 0.93074 0.0
H225 H 0.17741 0.37952 0.93362 0.0
H226 H 0.22608 0.42409 0.88992 0.0
O227 O 0.16536 0.36796 0.87171 0.0
H228 H 0.21602 0.41681 0.79549 0.0
H229 H 0.22155 0.4406 0.93328 0.0
Cu230 Cu 0.7007 0.89289 0.85527 0.0
N231 N 0.71315 0.87906 0.84152 0.0
N232 N 0.71495 0.85223 0.82885 0.0
C233 C 0.70442 0.85903 0.84277 0.0
C234 C 0.73105 0.86872 0.81843 0.0
C235 C 0.72993 0.88527 0.82632 0.0
O236 O 0.68532 0.87605 0.88622 0.0
C237 C 0.69898 0.91129 0.80901 0.0
O238 O 0.71876 0.91997 0.81342 0.0
H239 H 0.69002 0.84954 0.85275 0.0
H240 H 0.74025 0.90062 0.82072 0.0
N241 N 0.71946 0.91855 0.86745 0.0
N242 N 0.7311 0.95018 0.88001 0.0
C243 C 0.71453 0.93267 0.87332 0.0
C244 C 0.73989 0.92735 0.87046 0.0
C245 C 0.7471 0.94682 0.87826 0.0
C246 C 0.69622 0.87746 0.90621 0.0
O247 O 0.71581 0.89082 0.90557 0.0
H248 H 0.6991 0.93022 0.87182 0.0
H249 H 0.74892 0.9202 0.86696 0.0
O250 O 0.68674 0.89779 0.82525 0.0
H251 H 0.74266 0.8688 0.80576 0.0
H252 H 0.76293 0.9576 0.88229 0.0
Cu253 Cu 0.19133 0.8941 0.86217 0.0
N254 N 0.1766 0.89489 0.83302 0.0
N255 N 0.1595 0.88464 0.79535 0.0
C256 C 0.16988 0.88104 0.81407 0.0
C257 C 0.15977 0.90152 0.80289 0.0
C258 C 0.17033 0.90782 0.82607 0.0
O259 O 0.17746 0.8662 0.87249 0.0
C260 C 0.22744 0.92367 0.84389 0.0
O261 O 0.21558 0.93169 0.84385 0.0
H262 H 0.17231 0.86835 0.81436 0.0
H263 H 0.17335 0.92097 0.83687 0.0
N264 N 0.19153 0.90903 0.89114 0.0
N265 N 0.20194 0.9247 0.92944 0.0
C266 C 0.204 0.91289 0.91175 0.0
C267 C 0.18105 0.91864 0.89599 0.0
C268 C 0.18751 0.92839 0.91954 0.0
C269 C 0.15851 0.85975 0.87702 0.0
O270 O 0.15157 0.87236 0.87614 0.0
H271 H 0.21481 0.90752 0.91335 0.0
H272 H 0.16961 0.91866 0.88334 0.0
O273 O 0.21979 0.90557 0.85136 0.0
H274 H 0.15309 0.90902 0.79227 0.0
H275 H 0.18194 0.9374 0.92872 0.0
Cu276 Cu 0.37896 0.22831 0.71564 0.0
N277 N 0.39152 0.25341 0.69941 0.0
N278 N 0.39337 0.28082 0.68171 0.0
C279 C 0.38124 0.263 0.69338 0.0
C280 C 0.41213 0.2825 0.68038 0.0
C281 C 0.41093 0.26551 0.69126 0.0
O282 O 0.36289 0.23062 0.74521 0.0
C283 C 0.37984 0.20879 0.67121 0.0
O284 O 0.39924 0.22118 0.67621 0.0
H285 H 0.36516 0.25705 0.698 0.0
H286 H 0.42328 0.26222 0.69296 0.0
N287 N 0.39735 0.22173 0.7311 0.0
N288 N 0.40781 0.20143 0.74763 0.0
C289 C 0.3922 0.20279 0.73684 0.0
C290 C 0.41698 0.23295 0.73855 0.0
C291 C 0.42353 0.22042 0.74867 0.0
C292 C 0.3737 0.24574 0.75977 0.0
O293 O 0.39321 0.25714 0.75385 0.0
H294 H 0.3773 0.19019 0.73251 0.0
H295 H 0.4259 0.24902 0.73677 0.0
O296 O 0.36633 0.20885 0.68664 0.0
H297 H 0.42571 0.29496 0.67191 0.0
H298 H 0.43859 0.22495 0.75635 0.0
Cu299 Cu 0.84853 0.20886 0.66687 0.0
N300 N 0.84774 0.22185 0.63638 0.0
N301 N 0.85967 0.24297 0.60236 0.0
C302 C 0.86428 0.23725 0.62506 0.0
C303 C 0.83937 0.23061 0.59918 0.0
C304 C 0.83202 0.21762 0.62028 0.0
O305 O 0.87693 0.22542 0.68017 0.0
C306 C 0.81797 0.16918 0.658 0.0
O307 O 0.80679 0.17777 0.66088 0.0
H308 H 0.8796 0.24367 0.63289 0.0
H309 H 0.81642 0.20574 0.62337 0.0
N310 N 0.83103 0.20934 0.69245 0.0
N311 N 0.81292 0.20166 0.72951 0.0
C312 C 0.82643 0.19906 0.71506 0.0
C313 C 0.82005 0.21878 0.69244 0.0
C314 C 0.80891 0.21414 0.71542 0.0
C315 C 0.88089 0.24199 0.69076 0.0
O316 O 0.86611 0.24629 0.69292 0.0
H317 H 0.83289 0.18981 0.7207 0.0
H318 H 0.82002 0.22819 0.67676 0.0
O319 O 0.83758 0.17998 0.65932 0.0
H320 H 0.83049 0.23087 0.58279 0.0
H321 H 0.7983 0.21915 0.72101 0.0
Cu322 Cu 0.8617 0.70286 0.67189 0.0
N323 N 0.85208 0.6885 0.64122 0.0
N324 N 0.83917 0.68201 0.60108 0.0
C325 C 0.84172 0.69244 0.6231 0.0
C326 C 0.84794 0.67072 0.60574 0.0
C327 C 0.85604 0.67486 0.63056 0.0
O328 O 0.84048 0.70805 0.68565 0.0
C329 C 0.89707 0.73201 0.64328 0.0
O330 O 0.8859 0.72547 0.62218 0.0
H331 H 0.83697 0.70346 0.62571 0.0
H332 H 0.86506 0.66913 0.63962 0.0
N333 N 0.86759 0.68895 0.69685 0.0
N334 N 0.8839 0.68562 0.73103 0.0
C335 C 0.881 0.69835 0.71602 0.0
C336 C 0.86164 0.66947 0.69969 0.0
C337 C 0.87164 0.66735 0.72098 0.0
C338 C 0.82527 0.69337 0.69698 0.0
O339 O 0.82505 0.67629 0.69888 0.0
H340 H 0.88852 0.71433 0.71878 0.0
H341 H 0.85103 0.65773 0.68706 0.0
O342 O 0.88852 0.72628 0.66559 0.0
H343 H 0.84945 0.66108 0.59172 0.0
H344 H 0.87039 0.65355 0.72807 0.0
Cu345 Cu 0.84311 0.69921 0.15797 0.0
N346 N 0.84507 0.68927 0.12572 0.0
N347 N 0.86004 0.6872 0.08898 0.0
C348 C 0.86247 0.69705 0.11154 0.0
C349 C 0.84019 0.67252 0.08911 0.0
C350 C 0.83098 0.67385 0.11184 0.0
O351 O 0.86916 0.70666 0.17603 0.0
C352 C 0.81615 0.71247 0.14422 0.0
O353 O 0.80544 0.69334 0.13899 0.0
H354 H 0.87674 0.70955 0.11803 0.0
H355 H 0.81519 0.66429 0.11779 0.0
N356 N 0.82245 0.67997 0.17914 0.0
N357 N 0.80078 0.6693 0.21292 0.0
C358 C 0.81439 0.68519 0.19891 0.0
C359 C 0.8135 0.65991 0.18051 0.0
C360 C 0.80017 0.65326 0.20168 0.0
C361 C 0.87187 0.69187 0.18123 0.0
O362 O 0.85784 0.67395 0.17404 0.0
H363 H 0.81889 0.70052 0.20336 0.0
H364 H 0.81672 0.65084 0.16745 0.0
O365 O 0.83454 0.71949 0.15247 0.0
H366 H 0.83275 0.66174 0.0738 0.0
H367 H 0.79079 0.63796 0.20827 0.0
Cu368 Cu 0.37959 0.22869 0.21643 0.0
N369 N 0.38971 0.21264 0.20341 0.0
N370 N 0.38831 0.18419 0.19129 0.0
C371 C 0.37863 0.19256 0.2037 0.0
C372 C 0.4063 0.19965 0.18288 0.0
C373 C 0.40719 0.21722 0.19053 0.0
O374 O 0.36412 0.21382 0.24836 0.0
C375 C 0.37878 0.24481 0.16845 0.0
O376 O 0.39811 0.24986 0.17138 0.0
H377 H 0.36336 0.18426 0.21206 0.0
H378 H 0.4195 0.23221 0.18648 0.0
N379 N 0.40006 0.2541 0.22682 0.0
N380 N 0.41348 0.28591 0.239 0.0
C381 C 0.39654 0.26936 0.23094 0.0
C382 C 0.42004 0.2613 0.23216 0.0
C383 C 0.42832 0.28093 0.23997 0.0
C384 C 0.37523 0.21479 0.26788 0.0
O385 O 0.39517 0.22635 0.26587 0.0
H386 H 0.38167 0.26817 0.22858 0.0
H387 H 0.42792 0.25281 0.2309 0.0
O388 O 0.36612 0.23433 0.18669 0.0
H389 H 0.41792 0.19834 0.17189 0.0
H390 H 0.44401 0.29077 0.2458 0.0
Cu391 Cu 0.86272 0.24052 0.1809 0.0
N392 N 0.8503 0.24426 0.15149 0.0
N393 N 0.8329 0.23592 0.11407 0.0
C394 C 0.84358 0.23151 0.13134 0.0
C395 C 0.83311 0.2523 0.12366 0.0
C396 C 0.84392 0.25745 0.14674 0.0
O397 O 0.84763 0.21208 0.1888 0.0
C398 C 0.90077 0.27105 0.1715 0.0
O399 O 0.88974 0.27991 0.17352 0.0
H400 H 0.84545 0.2185 0.13028 0.0
H401 H 0.84631 0.26948 0.15955 0.0
N402 N 0.86147 0.25372 0.21079 0.0
N403 N 0.8721 0.26968 0.2488 0.0
C404 C 0.8755 0.25959 0.22982 0.0
C405 C 0.84843 0.26005 0.21799 0.0
C406 C 0.85495 0.26991 0.24148 0.0
C407 C 0.82828 0.20504 0.18912 0.0
O408 O 0.82101 0.21719 0.18531 0.0
H409 H 0.88809 0.25655 0.22952 0.0
H410 H 0.83534 0.25794 0.20682 0.0
O411 O 0.89178 0.25207 0.17308 0.0
H412 H 0.82564 0.25979 0.11493 0.0
H413 H 0.84791 0.27713 0.25191 0.0
Mn414 Mn 1.0142 0.67101 0.267 0.0
Mn415 Mn 0.9672 0.63062 0.27427 0.0
C416 C 0.98587 0.67132 0.24906 0.0
C417 C 0.03986 0.70194 0.28324 0.0
C418 C 0.99848 0.63255 0.23458 0.0
O419 O 0.01839 0.65541 0.29663 0.0
O420 O 0.98619 0.62963 0.30086 0.0
C421 C 0.95668 0.64023 0.32587 0.0
N422 N 0.95222 0.63591 0.3002 0.0
C423 C 0.92123 0.63762 0.30456 0.0
C424 C 0.9254 0.64194 0.3311 0.0
C425 C 0.94323 0.6433 0.34178 0.0
C426 C 0.93514 0.63463 0.2897 0.0
H427 H 0.9704 0.64136 0.33413 0.0
C428 C 1.00506 0.6392 0.30779 0.0
O429 O 0.04422 0.69192 0.26658 0.0
O430 O 0.02092 0.69372 0.29086 0.0
N431 N 0.94722 0.62948 0.25029 0.0
C432 C 0.94609 0.62642 0.22406 0.0
C433 C 0.92952 0.62538 0.2102 0.0
C434 C 0.9142 0.62731 0.22347 0.0
C435 C 0.91558 0.63023 0.25051 0.0
C436 C 0.93242 0.63109 0.2633 0.0
H437 H 0.95782 0.62493 0.21375 0.0
O438 O 1.00427 0.68334 0.24051 0.0
O439 O 0.98459 0.65945 0.26811 0.0
O440 O 1.01269 0.6504 0.23964 0.0
O441 O 0.98128 0.62398 0.24676 0.0
C442 C 0.90112 0.63272 0.26519 0.0
C443 C 0.90398 0.63649 0.29218 0.0
H444 H 0.91512 0.6444 0.3434 0.0
H445 H 0.94662 0.64673 0.36221 0.0
H446 H 0.92858 0.62316 0.18932 0.0
H447 H 0.90154 0.62668 0.21267 0.0
H448 H 0.88789 0.63204 0.25586 0.0
H449 H 0.89293 0.63869 0.30317 0.0
Mn450 Mn 0.41175 0.43752 0.31519 0.0
Mn451 Mn 0.39932 0.47379 0.30991 0.0
C452 C 0.38034 0.43218 0.3313 0.0
C453 C 0.41323 0.41017 0.29823 0.0
C454 C 0.43039 0.47512 0.34891 0.0
O455 O 0.43133 0.45599 0.28674 0.0
O456 O 0.41987 0.47785 0.28236 0.0
C457 C 0.37868 0.46354 0.2587 0.0
N458 N 0.37816 0.46664 0.28475 0.0
C459 C 0.34382 0.46126 0.282 0.0
C460 C 0.34402 0.45811 0.25512 0.0
C461 C 0.3615 0.45917 0.24345 0.0
C462 C 0.36135 0.46546 0.29622 0.0
H463 H 0.39211 0.46442 0.24963 0.0
C464 C 0.43137 0.47077 0.27526 0.0
O465 O 0.42594 0.42154 0.31585 0.0
O466 O 0.39967 0.41473 0.29029 0.0
N467 N 0.37926 0.47134 0.33507 0.0
C468 C 0.38116 0.47378 0.3614 0.0
C469 C 0.36474 0.47251 0.37615 0.0
C470 C 0.34664 0.46895 0.36366 0.0
C471 C 0.34512 0.46664 0.33652 0.0
C472 C 0.36196 0.46802 0.32285 0.0
H473 H 0.39506 0.47664 0.3711 0.0
O474 O 0.38825 0.4217 0.34011 0.0
O475 O 0.39115 0.44546 0.31363 0.0
O476 O 0.42796 0.45797 0.34353 0.0
O477 O 0.42095 0.48266 0.33687 0.0
C478 C 0.32749 0.46289 0.32252 0.0
C479 C 0.32685 0.46022 0.29527 0.0
H480 H 0.3308 0.45475 0.24329 0.0
H481 H 0.36174 0.45668 0.22273 0.0
H482 H 0.36604 0.4743 0.39709 0.0
H483 H 0.33399 0.46791 0.37511 0.0
H484 H 0.31424 0.46179 0.33256 0.0
H485 H 0.31312 0.45711 0.28477 0.0
Mn486 Mn 0.67538 0.07201 0.28451 0.0
Mn487 Mn 0.68564 0.11895 0.27136 0.0
C488 C 0.70228 0.09224 0.257 0.0
C489 C 0.67902 0.04838 0.3084 0.0
C490 C 0.64988 0.08221 0.24799 0.0
O491 O 0.66041 0.07746 0.31379 0.0
O492 O 0.67011 0.10963 0.30481 0.0
C493 C 0.71399 0.14001 0.31474 0.0
N494 N 0.71014 0.1377 0.28869 0.0
C495 C 0.74371 0.16517 0.27845 0.0
C496 C 0.74799 0.16792 0.30518 0.0
C497 C 0.73308 0.15524 0.32338 0.0
C498 C 0.72441 0.14974 0.271 0.0
H499 H 0.70258 0.13029 0.32879 0.0
C500 C 0.66087 0.09385 0.31908 0.0
O501 O 0.6629 0.04356 0.29444 0.0
O502 O 0.69257 0.06724 0.3098 0.0
N503 N 0.7009 0.12981 0.23971 0.0
C504 C 0.69476 0.12448 0.21464 0.0
C505 C 0.70804 0.13546 0.19402 0.0
C506 C 0.72741 0.15186 0.19937 0.0
C507 C 0.73341 0.15705 0.22531 0.0
C508 C 0.71947 0.14565 0.24505 0.0
H509 H 0.67984 0.11196 0.21041 0.0
O510 O 0.69384 0.07297 0.25562 0.0
O511 O 0.69458 0.09903 0.27421 0.0
O512 O 0.65413 0.06976 0.25842 0.0
O513 O 0.6603 0.10098 0.25197 0.0
C514 C 0.75276 0.17294 0.23236 0.0
C515 C 0.75794 0.17693 0.25891 0.0
H516 H 0.76271 0.17961 0.31193 0.0
H517 H 0.7363 0.15722 0.34404 0.0
H518 H 0.70334 0.13132 0.17404 0.0
H519 H 0.73758 0.16031 0.1834 0.0
H520 H 0.76387 0.18201 0.21752 0.0
H521 H 0.77298 0.18898 0.26408 0.0
Mn522 Mn 0.02878 0.40837 0.77234 0.0
Mn523 Mn 0.0551 0.39913 0.72587 0.0
C524 C 0.04972 0.39498 0.78401 0.0
C525 C 0.02488 0.42871 0.80377 0.0
C526 C 1.00966 0.37148 0.7361 0.0
O527 O 0.02878 0.42566 0.74138 0.0
O528 O 0.04602 0.41777 0.71224 0.0
C529 C 0.09105 0.4399 0.72192 0.0
N530 N 0.08314 0.41992 0.72578 0.0
C531 C 0.11689 0.4238 0.72839 0.0
C532 C 0.12541 0.4444 0.72427 0.0
C533 C 0.11242 0.45249 0.72115 0.0
C534 C 0.09549 0.41201 0.72905 0.0
H535 H 0.08116 0.4462 0.71939 0.0
C536 C 0.03683 0.42737 0.71873 0.0
O537 O 1.0093 0.41366 0.79311 0.0
O538 O 0.04284 0.4325 0.79547 0.0
N539 N 0.06535 0.38181 0.73579 0.0
C540 C 0.05473 0.36189 0.74139 0.0
C541 C 0.06549 0.35163 0.746 0.0
C542 C 0.087 0.36186 0.74438 0.0
C543 C 0.09759 0.38232 0.73837 0.0
C544 C 0.08606 0.39178 0.73411 0.0
H545 H 0.03819 0.35392 0.74247 0.0
O546 O 0.03458 0.39255 0.79882 0.0
O547 O 0.05223 0.40515 0.76256 0.0
O548 O 1.00801 0.38226 0.75378 0.0
O549 O 0.02661 0.37645 0.72445 0.0
C550 C 0.11915 0.39379 0.73686 0.0
C551 C 0.1288 0.41453 0.73207 0.0
H552 H 0.14188 0.45415 0.72364 0.0
H553 H 0.11887 0.46838 0.71807 0.0
H554 H 0.05721 0.33585 0.7507 0.0
H555 H 0.09524 0.3539 0.74799 0.0
H556 H 0.1285 0.38686 0.73966 0.0
H557 H 0.14539 0.42323 0.73143 0.0
Mn558 Mn 0.6568 0.67138 0.76363 0.0
Mn559 Mn 0.68977 0.67891 0.81259 0.0
C560 C 0.69101 0.68186 0.75437 0.0
C561 C 0.63268 0.6503 0.73298 0.0
C562 C 0.676 0.70864 0.79825 0.0
O563 O 0.63755 0.65698 0.79469 0.0
O564 O 0.66106 0.66153 0.82494 0.0
C565 C 0.68204 0.6375 0.81768 0.0
N566 N 0.69534 0.6573 0.81361 0.0
C567 C 0.72395 0.65157 0.81014 0.0
C568 C 0.71058 0.63113 0.81445 0.0
C569 C 0.68953 0.62406 0.81816 0.0
C570 C 0.71559 0.66424 0.8098 0.0
H571 H 0.66585 0.63201 0.82052 0.0
C572 C 0.64243 0.65425 0.81762 0.0
O573 O 0.63328 0.66656 0.74075 0.0
O574 O 0.64554 0.64591 0.74377 0.0
N575 N 0.71817 0.69529 0.80362 0.0
C576 C 0.72894 0.71537 0.79911 0.0
C577 C 0.75021 0.72477 0.79473 0.0
C578 C 0.76021 0.7135 0.79536 0.0
C579 C 0.74886 0.69293 0.80049 0.0
C580 C 0.72772 0.68439 0.8048 0.0
H581 H 0.72137 0.72415 0.79875 0.0
O582 O 0.67976 0.6845 0.73749 0.0
O583 O 0.68183 0.67288 0.77595 0.0
O584 O 0.66468 0.69886 0.7791 0.0
O585 O 0.68544 0.70218 0.81246 0.0
C586 C 0.75767 0.68053 0.80128 0.0
C587 C 0.74521 0.65985 0.80594 0.0
H588 H 0.71629 0.62072 0.81483 0.0
H589 H 0.6791 0.6083 0.8214 0.0
H590 H 0.75887 0.74067 0.79086 0.0
H591 H 0.77659 0.72078 0.7918 0.0
H592 H 0.77398 0.68672 0.79801 0.0
H593 H 0.75212 0.65043 0.80613 0.0
Mn594 Mn 0.41111 0.03971 0.7994 0.0
Mn595 Mn 0.37871 0.02728 0.74864 0.0
C596 C 0.37622 0.02031 0.80638 0.0
C597 C 0.43183 0.03263 0.82599 0.0
C598 C 0.39923 0.06833 0.77346 0.0
O599 O 0.43001 0.04586 0.76808 0.0
O600 O 0.40683 0.03531 0.73578 0.0
C601 C 0.3794 0.99094 0.73206 0.0
N602 N 0.36867 0.99993 0.74003 0.0
C603 C 0.33663 0.96914 0.73692 0.0
C604 C 0.34733 0.95957 0.72852 0.0
C605 C 0.3688 0.97051 0.72615 0.0
C606 C 0.34801 0.98953 0.74249 0.0
H607 H 0.39591 0.9993 0.73027 0.0
C608 C 0.42523 0.04259 0.74407 0.0
O609 O 0.43478 0.05066 0.82385 0.0
O610 O 0.41738 0.019 0.81204 0.0
N611 N 0.35093 0.01911 0.75799 0.0
C612 C 0.343 0.03039 0.76729 0.0
C613 C 0.32173 0.02163 0.77108 0.0
C614 C 0.30881 1.00142 0.76508 0.0
C615 C 0.3173 0.99015 0.75534 0.0
C616 C 0.3386 0.99974 0.75173 0.0
H617 H 0.35285 0.04594 0.77189 0.0
O618 O 0.38826 0.03014 0.82542 0.0
O619 O 0.38497 0.02202 0.78383 0.0
O620 O 0.40881 0.06466 0.79122 0.0
O621 O 0.38788 0.05548 0.75659 0.0
C622 C 0.3055 0.9697 0.74944 0.0
C623 C 0.31516 0.95919 0.74032 0.0
H624 H 0.33922 0.9438 0.72402 0.0
H625 H 0.37717 0.96321 0.7198 0.0
H626 H 0.31529 0.03041 0.77865 0.0
H627 H 0.29242 0.99469 0.76812 0.0
H628 H 0.289 0.96186 0.75219 0.0
H629 H 0.30596 0.94342 0.73617 0.0
Mn630 Mn 0.68492 0.99647 0.59748 0.0
Mn631 Mn 0.637 0.9564 0.60011 0.0
C632 C 0.65706 0.99833 0.57962 0.0
C633 C 0.71224 0.02657 0.61436 0.0
C634 C 0.66973 0.95951 0.56182 0.0
O635 O 0.68695 0.97901 0.62697 0.0
O636 O 0.65408 0.95403 0.62819 0.0
C637 C 0.62373 0.96393 0.65128 0.0
N638 N 0.62078 0.96089 0.62513 0.0
C639 C 0.59004 0.96324 0.62725 0.0
C640 C 0.59266 0.96623 0.65422 0.0
C641 C 0.60961 0.96663 0.66626 0.0
C642 C 0.60457 0.96056 0.61333 0.0
H643 H 0.63678 0.96436 0.66063 0.0
C644 C 0.67241 0.96287 0.63718 0.0
O645 O 0.71532 0.01575 0.59768 0.0
O646 O 0.69337 0.01957 0.62203 0.0
N647 N 0.61872 0.95698 0.57465 0.0
C648 C 0.61902 0.95507 0.54826 0.0
C649 C 0.6034 0.95495 0.53321 0.0
C650 C 0.58759 0.9567 0.54541 0.0
C651 C 0.58752 0.9585 0.5726 0.0
C652 C 0.60341 0.95837 0.58662 0.0
H653 H 0.63112 0.95375 0.53873 0.0
O654 O 0.6757 1.01031 0.57168 0.0
O655 O 0.65529 0.9855 0.59743 0.0
O656 O 0.68355 0.97688 0.569 0.0
O657 O 0.65207 0.95025 0.57287 0.0
C658 C 0.57251 0.96077 0.58627 0.0
C659 C 0.57379 0.96318 0.61357 0.0
H660 H 0.58186 0.96842 0.66583 0.0
H661 H 0.61181 0.96905 0.68705 0.0
H662 H 0.60358 0.9536 0.51223 0.0
H663 H 0.57568 0.95679 0.53371 0.0
H664 H 0.56009 0.961 0.57594 0.0
H665 H 0.56234 0.96523 0.62381 0.0
Mn666 Mn 0.07364 0.76585 0.60193 0.0
Mn667 Mn 0.06642 0.80478 0.58749 0.0
C668 C 0.0433 0.76495 0.61388 0.0
C669 C 0.07093 0.73497 0.59106 0.0
C670 C 0.09204 0.80508 0.6332 0.0
O671 O 0.09604 0.78129 0.57424 0.0
O672 O 0.08936 0.80623 0.56638 0.0
C673 C 0.05183 0.79272 0.53354 0.0
N674 N 0.04883 0.79773 0.55794 0.0
C675 C 0.01617 0.79397 0.54596 0.0
C676 C 0.01897 0.78889 0.52065 0.0
C677 C 0.03685 0.78821 0.51444 0.0
C678 C 0.0316 0.79824 0.56419 0.0
H679 H 0.06553 0.79214 0.52871 0.0
C680 C 0.09972 0.79739 0.5624 0.0
O681 O 0.08383 0.7466 0.6084 0.0
O682 O 0.06027 0.74164 0.57933 0.0
N683 N 0.04479 0.80571 0.60616 0.0
C684 C 0.0445 0.81097 0.63143 0.0
C685 C 0.02768 0.8124 0.64077 0.0
C686 C 1.01148 0.8087 0.62396 0.0
C687 C 1.01238 0.80383 0.59787 0.0
C688 C 0.02961 0.80276 0.58962 0.0
H689 H 0.05696 0.81395 0.64441 0.0
O690 O 0.04898 0.75357 0.62552 0.0
O691 O 0.05531 0.77631 0.59525 0.0
O692 O 0.08981 0.78771 0.62936 0.0
O693 O 0.08407 0.81281 0.61853 0.0
C694 C 0.9968 0.79986 0.57976 0.0
C695 C 0.99863 0.79481 0.55387 0.0
H696 H 1.00745 0.7854 0.50586 0.0
H697 H 0.03908 0.78423 0.49498 0.0
H698 H 0.02717 0.81629 0.6609 0.0
H699 H 0.99845 0.80964 0.63129 0.0
H700 H 0.98326 0.80049 0.5856 0.0
H701 H 0.98645 0.79159 0.54019 0.0
Mn702 Mn 0.33985 0.4047 0.62494 0.0
Mn703 Mn 0.33815 0.44628 0.64206 0.0
C704 C 0.3654 0.43564 0.61105 0.0
C705 C 0.34874 0.38045 0.63517 0.0
C706 C 0.31392 0.41995 0.59738 0.0
O707 O 0.31775 0.39417 0.65328 0.0
O708 O 0.31883 0.42302 0.66299 0.0
C709 C 0.35615 0.4497 0.69425 0.0
N710 N 0.35629 0.45801 0.67071 0.0
C711 C 0.38461 0.48969 0.68326 0.0
C712 C 0.38475 0.48152 0.7077 0.0
C713 C 0.37053 0.4614 0.71316 0.0
C714 C 0.3702 0.47719 0.66503 0.0
H715 H 0.34511 0.43429 0.69855 0.0
C716 C 0.31153 0.40429 0.66596 0.0
O717 O 0.33456 0.37705 0.61826 0.0
O718 O 0.35744 0.39775 0.64629 0.0
N719 N 0.35549 0.47071 0.62384 0.0
C720 C 0.35234 0.47662 0.60004 0.0
C721 C 0.36469 0.49655 0.59192 0.0
C722 C 0.37975 0.51034 0.60865 0.0
C723 C 0.38225 0.5041 0.63341 0.0
C724 C 0.36945 0.48405 0.64043 0.0
H725 H 0.34041 0.46622 0.58737 0.0
O726 O 0.36286 0.41957 0.59985 0.0
O727 O 0.35372 0.43326 0.63116 0.0
O728 O 0.32 0.40715 0.59946 0.0
O729 O 0.3197 0.43502 0.61227 0.0
C730 C 0.3967 0.51704 0.65158 0.0
C731 C 0.39806 0.50978 0.67636 0.0
H732 H 0.39567 0.49056 0.72244 0.0
H733 H 0.37055 0.45497 0.73196 0.0
H734 H 0.3625 0.50131 0.57291 0.0
H735 H 0.38919 0.52572 0.60236 0.0
H736 H 0.40683 0.53262 0.6467 0.0
H737 H 0.4093 0.51986 0.6901 0.0
Mn738 Mn 0.69013 0.77042 0.1063 0.0
Mn739 Mn 0.7131 0.76221 0.05439 0.0
C740 C 0.71421 0.75973 0.1127 0.0
C741 C 0.68912 0.79141 0.13971 0.0
C742 C 0.66977 0.73221 0.0723 0.0
O743 O 0.6846 0.78529 0.07616 0.0
O744 O 0.7005 0.77855 0.04374 0.0
C745 C 0.74625 0.80403 0.04658 0.0
N746 N 0.74024 0.78442 0.0506 0.0
C747 C 0.77521 0.79137 0.04949 0.0
C748 C 0.78176 0.81162 0.04517 0.0
C749 C 0.76721 0.81798 0.04379 0.0
C750 C 0.75412 0.77817 0.05221 0.0
H751 H 0.73512 0.80899 0.04554 0.0
C752 C 0.69025 0.7866 0.05217 0.0
O753 O 0.67275 0.77539 0.13228 0.0
O754 O 0.70573 0.79581 0.12677 0.0
N755 N 0.72615 0.74674 0.06096 0.0
C756 C 0.71732 0.72671 0.06548 0.0
C757 C 0.72979 0.71797 0.06756 0.0
C758 C 0.75114 0.72982 0.06454 0.0
C759 C 0.75983 0.75029 0.05925 0.0
C760 C 0.74663 0.75816 0.0573 0.0
H761 H 0.7009 0.71749 0.06765 0.0
O762 O 0.7008 0.75712 0.13053 0.0
O763 O 0.71334 0.76869 0.09152 0.0
O764 O 0.66888 0.74262 0.09121 0.0
O765 O 0.68552 0.73841 0.05742 0.0
C766 C 0.78109 0.76324 0.05613 0.0
C767 C 0.78878 0.78378 0.05141 0.0
H768 H 0.79792 0.82243 0.043 0.0
H769 H 0.77215 0.8336 0.04057 0.0
H770 H 0.72295 0.70214 0.07152 0.0
H771 H 0.76072 0.72305 0.06637 0.0
H772 H 0.79167 0.75759 0.05756 0.0
H773 H 0.80517 0.79363 0.04934 0.0
Mn774 Mn 0.31564 1.0032 0.11898 0.0
Mn775 Mn 0.35144 1.00919 0.16349 0.0
C776 C 0.34947 0.01544 0.10592 0.0
C777 C 0.29001 0.98401 0.08872 0.0
C778 C 0.33669 0.03894 0.15613 0.0
O779 O 0.29813 0.98656 0.15018 0.0
O780 O 0.32345 0.99136 0.1775 0.0
C781 C 0.34357 0.9676 0.16358 0.0
N782 N 0.35684 0.98755 0.16096 0.0
C783 C 0.38559 0.98216 0.15638 0.0
C784 C 0.37225 0.96155 0.15916 0.0
C785 C 0.35113 0.95424 0.16262 0.0
C786 C 0.37713 0.99472 0.15722 0.0
H787 H 0.32735 0.96194 0.16646 0.0
C788 C 0.30443 0.98353 0.17194 0.0
O789 O 0.29082 0.99942 0.09992 0.0
O790 O 0.30357 0.97923 0.09588 0.0
N791 N 0.37951 0.02587 0.15341 0.0
C792 C 0.39018 0.04607 0.14998 0.0
C793 C 0.41147 0.05573 0.14581 0.0
C794 C 0.42165 0.04461 0.14581 0.0
C795 C 0.4104 0.02388 0.14972 0.0
C796 C 0.38919 0.01506 0.15361 0.0
H797 H 0.38249 0.05474 0.15043 0.0
O798 O 0.33696 0.01843 0.09179 0.0
O799 O 0.34177 1.00484 0.12713 0.0
O800 O 0.32383 0.0295 0.13812 0.0
O801 O 0.3474 0.03243 0.16728 0.0
C802 C 0.41935 1.01158 0.1497 0.0
C803 C 0.40693 0.99072 0.15275 0.0
H804 H 0.37805 0.95121 0.15857 0.0
H805 H 0.34073 0.93835 0.16471 0.0
H806 H 0.42006 0.07174 0.14282 0.0
H807 H 0.43809 0.05215 0.14268 0.0
H808 H 0.43574 0.01797 0.14707 0.0
H809 H 0.41395 0.98141 0.15226 0.0
Mn810 Mn 0.08006 0.39941 0.12836 0.0
Mn811 Mn 0.04915 0.3765 0.07727 0.0
C812 C 0.04603 0.37646 0.13566 0.0
C813 C 0.10438 0.40343 0.15895 0.0
C814 C 0.06376 0.41942 0.09165 0.0
O815 O 0.10006 0.40424 0.09882 0.0
O816 O 0.0782 0.38673 0.06661 0.0
C817 C 0.05594 0.34202 0.07264 0.0
N818 N 0.04291 0.34933 0.07596 0.0
C819 C 1.01362 0.31621 0.07738 0.0
C820 C 0.02671 0.30831 0.07384 0.0
C821 C 0.04797 0.32128 0.07154 0.0
C822 C 0.02246 0.33699 0.07838 0.0
H823 H 0.07229 0.35195 0.07085 0.0
C824 C 0.09631 0.39753 0.07564 0.0
O825 O 0.10256 0.41829 0.15049 0.0
O826 O 0.09189 0.38585 0.14962 0.0
N827 N 0.02059 0.36588 0.08469 0.0
C828 C 1.01017 0.37588 0.08884 0.0
C829 C 0.98875 0.36508 0.09199 0.0
C830 C 0.97827 0.34415 0.0905 0.0
C831 C 0.9893 0.33421 0.08579 0.0
C832 C 1.01061 0.34577 0.08275 0.0
H833 H 0.01813 0.39197 0.08986 0.0
O834 O 0.05645 0.38977 0.15313 0.0
O835 O 0.05587 0.37687 0.1145 0.0
O836 O 0.07303 0.41916 0.11212 0.0
O837 O 0.05434 0.40432 0.07684 0.0
C838 C 0.98001 0.31328 0.08425 0.0
C839 C 0.99217 0.30428 0.08021 0.0
H840 H 0.02062 0.29233 0.07299 0.0
H841 H 0.05817 0.31529 0.0689 0.0
H842 H 0.98034 0.37287 0.09557 0.0
H843 H 0.96177 0.33586 0.09311 0.0
H844 H 0.96356 0.30396 0.08647 0.0
H845 H 0.98488 0.28816 0.07945 0.0
Mn846 Mn 0.35898 0.33427 0.96388 0.0
Mn847 Mn 0.31191 0.29292 0.96846 0.0
C848 C 0.33 0.33445 0.94723 0.0
C849 C 0.38583 0.36521 0.97963 0.0
C850 C 0.34389 0.29727 0.92819 0.0
O851 O 0.36284 0.31764 0.99293 0.0
O852 O 0.33057 0.29162 0.99493 0.0
C853 C 0.30023 0.30034 0.02075 0.0
N854 N 0.2962 0.29683 0.99484 0.0
C855 C 0.26464 0.29747 0.99953 0.0
C856 C 0.26839 0.30096 0.02628 0.0
C857 C 0.2863 0.30246 0.03691 0.0
C858 C 0.2791 0.29552 0.98438 0.0
H859 H 0.31398 0.30155 0.02902 0.0
C860 C 0.34906 0.30111 1.00323 0.0
O861 O 0.38903 0.35476 0.96247 0.0
O862 O 0.36717 0.35737 0.98853 0.0
N863 N 0.29201 0.29213 0.94456 0.0
C864 C 0.29091 0.28927 0.91827 0.0
C865 C 0.27398 0.2876 0.90461 0.0
C866 C 0.25827 0.28871 0.91812 0.0
C867 C 0.2596 0.29139 0.9452 0.0
C868 C 0.27676 0.29279 0.9578 0.0
H869 H 0.30289 0.28838 0.90774 0.0
O870 O 0.34826 0.34708 0.93873 0.0
O871 O 0.32919 0.3221 0.96515 0.0
O872 O 0.3576 0.31478 0.93514 0.0
O873 O 0.32657 0.28757 0.93996 0.0
C874 C 0.24467 0.29294 0.96014 0.0
C875 C 0.24724 0.29608 0.98726 0.0
H876 H 0.2577 0.30263 0.0388 0.0
H877 H 0.28935 0.30524 0.05751 0.0
H878 H 0.27307 0.28553 0.88371 0.0
H879 H 0.24533 0.2876 0.90749 0.0
H880 H 0.23128 0.29199 0.95091 0.0
H881 H 0.2358 0.29753 0.99847 0.0
Mn882 Mn 0.72885 0.10505 0.94131 0.0
Mn883 Mn 0.71052 0.13706 0.93545 0.0
C884 C 0.69862 0.09831 0.96238 0.0
C885 C 0.73137 0.07761 0.92626 0.0
C886 C 0.74631 0.14485 0.97021 0.0
O887 O 0.74465 0.12223 0.90968 0.0
O888 O 0.7293 0.14085 0.90604 0.0
C889 C 0.68589 0.12075 0.88771 0.0
N890 N 0.68721 0.12618 0.91316 0.0
C891 C 0.65205 0.11861 0.91383 0.0
C892 C 0.65032 0.11304 0.88758 0.0
C893 C 0.66729 0.11402 0.87451 0.0
C894 C 0.67093 0.1251 0.926 0.0
H895 H 0.69893 0.12158 0.87758 0.0
C896 C 0.74182 0.13531 0.89793 0.0
O897 O 0.74526 0.09106 0.9411 0.0
O898 O 0.7163 0.08037 0.91965 0.0
N899 N 0.69193 0.13506 0.96247 0.0
C900 C 0.6958 0.13988 0.98814 0.0
C901 C 0.68018 0.13901 1.00423 0.0
C902 C 0.6609 0.13355 0.99367 0.0
C903 C 0.65738 0.12894 0.96712 0.0
C904 C 0.67348 0.12996 0.95207 0.0
H905 H 0.71065 0.14429 0.9963 0.0
O906 O 0.70897 0.08994 0.97023 0.0
O907 O 0.70606 0.11015 0.94229 0.0
O908 O 0.74598 0.12839 0.96602 0.0
O909 O 0.73414 0.14961 0.95916 0.0
C910 C 0.63847 0.12316 0.95503 0.0
C911 C 0.63574 0.11783 0.92848 0.0
H912 H 0.63602 0.10787 0.87731 0.0
H913 H 0.66606 0.10968 0.85427 0.0
H914 H 0.68303 0.14261 0.0247 0.0
H915 H 0.64888 0.13285 1.00615 0.0
H916 H 0.62582 0.12249 0.9661 0.0
H917 H 0.62099 0.11302 0.91955 0.0
Mn918 Mn 0.99808 0.70875 0.92388 0.0
Mn919 Mn 1.00509 0.75544 0.92337 0.0
C920 C 0.02856 0.7348 0.9086 0.0
C921 C 0.99875 0.68197 0.94326 0.0
C922 C 0.97903 0.72413 0.88396 0.0
O923 O 0.97577 0.7065 0.94858 0.0
O924 O 0.98255 0.7384 0.9483 0.0
C925 C 0.02064 0.7669 0.97709 0.0
N926 N 0.02318 0.77041 0.95091 0.0
C927 C 0.05578 0.80015 0.95697 0.0
C928 C 0.05346 0.79692 0.98402 0.0
C929 C 0.03584 0.78019 0.9941 0.0
C930 C 0.04012 0.7864 0.94099 0.0
H931 H 1.00713 0.75404 0.9849 0.0
C932 C 0.97221 0.72021 0.95621 0.0
O933 O 0.98647 0.67963 0.92427 0.0
O934 O 1.01039 0.70001 0.95172 0.0
N935 N 0.02643 0.77361 0.90034 0.0
C936 C 0.0267 0.77411 0.87376 0.0
C937 C 0.04337 0.78983 0.86056 0.0
C938 C 0.05948 0.80494 0.87479 0.0
C939 C 0.05884 0.80414 0.90212 0.0
C940 C 0.04173 0.78821 0.91421 0.0
H941 H 1.0143 0.7626 0.86272 0.0
O942 O 0.02271 0.71664 0.90152 0.0
O943 O 0.01639 0.73721 0.92451 0.0
O944 O 0.98247 0.71073 0.89299 0.0
O945 O 0.98654 0.74149 0.89388 0.0
C946 C 0.07463 0.81835 0.91782 0.0
C947 C 0.07314 0.81632 0.94523 0.0
H948 H 0.06517 0.8071 0.99721 0.0
H949 H 0.03398 0.77755 1.01495 0.0
H950 H 0.04379 0.79033 0.83946 0.0
H951 H 0.07228 0.81707 0.86454 0.0
H952 H 0.08812 0.83075 0.90901 0.0
H953 H 0.0855 0.82719 0.95709 0.0
Mn954 Mn 0.36768 0.11054 0.47115 0.0
Mn955 Mn 0.38791 0.09948 0.41871 0.0
C956 C 0.38986 0.09745 0.47709 0.0
C957 C 0.36776 0.13211 0.50429 0.0
C958 C 0.34391 0.07316 0.43686 0.0
O959 O 0.36337 0.1262 0.44095 0.0
O960 O 0.3781 0.11816 0.40831 0.0
C961 C 0.42417 0.13946 0.41008 0.0
N962 N 0.41603 0.11949 0.41429 0.0
C963 C 0.44934 0.12228 0.41171 0.0
C964 C 0.45809 0.14286 0.40719 0.0
C965 C 0.44545 0.15149 0.40645 0.0
C966 C 0.42804 0.11105 0.41513 0.0
H967 H 0.4145 0.14613 0.40951 0.0
C968 C 0.36885 0.12717 0.41694 0.0
O969 O 0.35104 0.11665 0.49657 0.0
O970 O 0.3844 0.13568 0.4919 0.0
N971 N 0.39806 0.08155 0.42536 0.0
C972 C 0.38733 0.06171 0.4314 0.0
C973 C 0.39778 0.05092 0.43367 0.0
C974 C 0.41908 0.06057 0.42938 0.0
C975 C 0.42973 0.08093 0.4228 0.0
C976 C 0.41849 0.09089 0.42071 0.0
H977 H 0.37095 0.05421 0.43464 0.0
O978 O 0.37701 0.09591 0.4952 0.0
O979 O 0.38946 0.10667 0.4559 0.0
O980 O 0.34488 0.08376 0.45646 0.0
O981 O 0.35907 0.07777 0.42149 0.0
C982 C 0.45114 0.09186 0.41889 0.0
C983 C 0.46094 0.11253 0.41342 0.0
H984 H 0.4745 0.15221 0.40448 0.0
H985 H 0.4521 0.16738 0.40309 0.0
H986 H 0.38945 0.03521 0.43877 0.0
H987 H 0.42711 0.05225 0.43142 0.0
H988 H 0.46026 0.08459 0.4205 0.0
H989 H 0.47745 0.12083 0.41085 0.0
Mn990 Mn 0.98839 0.36189 0.43099 0.0
Mn991 Mn 0.01808 0.36865 0.48341 0.0
C992 C 0.02312 0.37264 0.42507 0.0
C993 C 0.96508 0.34178 0.39923 0.0
C994 C 1.00213 0.39665 0.46859 0.0
O995 O 0.96771 0.34656 0.46035 0.0
O996 O 0.98928 0.34849 0.49209 0.0
C997 C 0.01504 0.32898 0.48695 0.0
N998 N 0.02672 0.34919 0.48465 0.0
C999 C 0.05788 0.34756 0.48509 0.0
C1000 C 0.04619 0.32672 0.48759 0.0
C1001 C 0.02468 0.31739 0.48844 0.0
C1002 C 0.04741 0.35831 0.48369 0.0
H1003 H 0.99851 0.32177 0.48763 0.0
C1004 C 0.9712 0.34179 0.48293 0.0
O1005 O 0.966 0.35809 0.40722 0.0
O1006 O 0.97773 0.33694 0.40982 0.0
N1007 N 0.04641 0.3877 0.47751 0.0
C1008 C 0.05536 0.40779 0.47358 0.0
C1009 C 0.07682 0.41932 0.47172 0.0
C1010 C 0.08884 0.41012 0.47411 0.0
C1011 C 0.07929 0.38944 0.47821 0.0
C1012 C 0.05785 0.37873 0.48009 0.0
H1013 H 0.04622 0.41496 0.4719 0.0
O1014 O 1.01287 0.37567 0.40703 0.0
O1015 O 1.01272 0.36339 0.4459 0.0
O1016 O 0.99459 0.38852 0.44684 0.0
O1017 O 1.01037 0.38987 0.48433 0.0
C1018 C 0.09017 0.37898 0.48011 0.0
C1019 C 0.07947 0.35804 0.48346 0.0
H1020 H 0.05356 0.31773 0.48867 0.0
H1021 H 0.01556 0.30132 0.49026 0.0
H1022 H 0.08408 0.43528 0.46849 0.0
H1023 H 0.10538 0.41908 0.47265 0.0
H1024 H 0.10675 0.38685 0.47859 0.0
H1025 H 0.08798 0.35013 0.48448 0.0
Mn1026 Mn 0.75053 0.715 0.4274 0.0
Mn1027 Mn 0.70863 0.70371 0.39154 0.0
C1028 C 0.72066 0.70957 0.44759 0.0
C1029 C 0.77097 0.70527 0.44991 0.0
C1030 C 0.74486 0.7456 0.39606 0.0
O1031 O 0.75713 0.70702 0.39238 0.0
O1032 O 0.72734 0.69745 0.37165 0.0
C1033 C 0.69063 0.6598 0.39043 0.0
N1034 N 0.68884 0.67609 0.39609 0.0
C1035 C 0.65392 0.65541 0.4106 0.0
C1036 C 0.65535 0.63841 0.4048 0.0
C1037 C 0.67381 0.64062 0.39476 0.0
C1038 C 0.67123 0.67413 0.40602 0.0
H1039 H 0.70479 0.66144 0.38269 0.0
C1040 C 0.7453 0.6995 0.37285 0.0
O1041 O 0.7784 0.72327 0.44066 0.0
O1042 O 0.75181 0.69275 0.44529 0.0
N1043 N 0.68893 0.70881 0.4084 0.0
C1044 C 0.69025 0.72671 0.41354 0.0
C1045 C 0.67304 0.72715 0.42351 0.0
C1046 C 0.65461 0.7092 0.42785 0.0
C1047 C 0.65361 0.69096 0.42238 0.0
C1048 C 0.6712 0.69147 0.41222 0.0
H1049 H 0.70427 0.74058 0.40994 0.0
O1050 O 0.73805 0.71933 0.45952 0.0
O1051 O 0.72126 0.70299 0.42455 0.0
O1052 O 0.75507 0.7414 0.41214 0.0
O1053 O 0.72786 0.73255 0.38624 0.0
C1054 C 0.63587 0.67229 0.42667 0.0
C1055 C 0.63608 0.65453 0.42098 0.0
H1056 H 0.64241 0.62359 0.40809 0.0
H1057 H 0.67506 0.62756 0.39033 0.0
H1058 H 0.67393 0.74128 0.4277 0.0
H1059 H 0.64134 0.70963 0.43533 0.0
H1060 H 0.62206 0.67142 0.4346 0.0
H1061 H 0.62244 0.64026 0.4247 0.0
H1062 H 0.06779 0.52058 1.01059 0.0
H1063 H 0.06566 0.53201 0.09269 0.0
H1064 H 0.07191 0.49203 0.02147 0.0
H1065 H 0.06934 0.50327 0.10348 0.0
H1066 H 0.08643 0.4555 0.11511 0.0
H1067 H 0.08994 0.48739 0.1026 0.0
H1068 H 0.04772 0.45907 0.03928 0.0
H1069 H 0.04454 0.42703 0.05139 0.0
C1070 C 0.06869 0.51731 0.03096 0.0
C1071 C 0.06605 0.52838 0.05079 0.0
C1072 C 0.0708 0.5008 0.03716 0.0
C1073 C 0.0704 0.49509 0.0633 0.0
C1074 C 0.06967 0.50725 0.08312 0.0
C1075 C 0.0676 0.52378 0.07693 0.0
C1076 C 0.07782 0.45597 0.09851 0.0
C1077 C 0.06508 0.43861 0.08432 0.0
C1078 C 0.07988 0.47432 0.09137 0.0
C1079 C 0.06919 0.4758 0.06992 0.0
C1080 C 0.05647 0.45849 0.05564 0.0
C1081 C 0.05446 0.44008 0.06274 0.0
H1082 H 0.60554 0.60604 0.0368 0.0
H1083 H 0.55501 0.61506 0.05766 0.0
H1084 H 0.62955 0.64096 0.04521 0.0
H1085 H 0.57931 0.65045 0.06589 0.0
H1086 H 0.63403 0.70948 0.10142 0.0
H1087 H 0.60765 0.67448 0.09462 0.0
H1088 H 0.63984 0.67292 0.02554 0.0
H1089 H 0.66595 0.70731 0.0323 0.0
C1090 C 0.59947 0.61546 0.04318 0.0
C1091 C 0.5782 0.60756 0.04637 0.0
C1092 C 0.61333 0.63565 0.04788 0.0
C1093 C 0.60649 0.64878 0.05599 0.0
C1094 C 0.58522 0.64086 0.05978 0.0
C1095 C 0.57126 0.62054 0.05493 0.0
C1096 C 0.63538 0.70171 0.08467 0.0
C1097 C 0.65237 0.71142 0.06759 0.0
C1098 C 0.6202 0.6816 0.08073 0.0
C1099 C 0.62166 0.67062 0.0597 0.0
C1100 C 0.63831 0.68059 0.04229 0.0
C1101 C 0.65333 0.70053 0.04614 0.0
H1102 H 0.46122 0.0558 1.01279 0.0
H1103 H 0.47328 0.03902 0.08843 0.0
H1104 H 0.42751 0.04923 0.02866 0.0
H1105 H 0.43967 0.03197 0.10356 0.0
H1106 H 0.36811 0.99308 0.10281 0.0
H1107 H 0.40281 1.00357 0.0867 0.0
H1108 H 0.41134 0.06174 0.06751 0.0
H1109 H 0.37678 0.05136 0.08452 0.0
C1110 C 0.45687 0.05107 0.03286 0.0
C1111 C 0.46996 0.04791 0.0493 0.0
C1112 C 0.43759 0.04728 0.04188 0.0
C1113 C 0.43096 0.03989 0.06728 0.0
C1114 C 0.44435 0.03752 0.08392 0.0
C1115 C 0.4637 0.0417 0.0752 0.0
C1116 C 0.37758 1.0082 0.09561 0.0
C1117 C 0.37026 0.02173 0.09599 0.0
C1118 C 0.3973 0.01415 0.08619 0.0
C1119 C 0.40979 0.03355 0.07621 0.0
C1120 C 0.40204 0.04676 0.07526 0.0
C1121 C 0.38238 0.04086 0.08505 0.0
H1122 H 0.50292 0.09365 0.51139 0.0
H1123 H 0.4559 0.03184 0.50698 0.0
H1124 H 0.4777 0.10385 0.50282 0.0
H1125 H 0.43071 0.04183 0.49629 0.0
H1126 H 0.38412 0.06277 0.49933 0.0
H1127 H 0.40968 0.05309 0.50922 0.0
H1128 H 0.45705 0.10946 0.4774 0.0
H1129 H 0.43142 0.11937 0.46955 0.0
C1130 C 0.4872 0.08219 0.508 0.0
C1131 C 0.48153 0.06189 0.5099 0.0
C1132 C 0.47255 0.08805 0.50288 0.0
C1133 C 0.4517 0.07383 0.49883 0.0
C1134 C 0.44627 0.05346 0.49997 0.0
C1135 C 0.46084 0.04762 0.5058 0.0
C1136 C 0.40004 0.07303 0.49447 0.0
C1137 C 0.4056 0.09148 0.48255 0.0
C1138 C 0.41483 0.06741 0.49989 0.0
C1139 C 0.43581 0.08014 0.4937 0.0
C1140 C 0.44133 0.09903 0.48275 0.0
C1141 C 0.42651 0.10468 0.47767 0.0
H1142 H 0.97926 0.49719 0.47183 0.0
H1143 H 1.01301 0.50333 0.54225 0.0
H1144 H 0.97759 0.4654 0.46326 0.0
H1145 H 1.0127 0.47243 0.53296 0.0
H1146 H 1.00096 0.40996 0.51769 0.0
H1147 H 0.9971 0.43843 0.52969 0.0
H1148 H 0.99765 0.45299 0.44798 0.0
H1149 H 1.00017 0.42384 0.43625 0.0
C1150 C 0.98615 0.49163 0.48563 0.0
C1151 C 0.99623 0.50283 0.50772 0.0
C1152 C 0.98551 0.47351 0.48054 0.0
C1153 C 0.9954 0.4663 0.49704 0.0
C1154 C 1.00468 0.47715 0.5198 0.0
C1155 C 1.0049 0.49503 0.52518 0.0
C1156 C 1.00025 0.41928 0.50234 0.0
C1157 C 1.00085 0.4146 0.47602 0.0
C1158 C 0.9981 0.43573 0.5092 0.0
C1159 C 0.99694 0.44822 0.4899 0.0
C1160 C 0.99788 0.44358 0.46355 0.0
C1161 C 0.99957 0.42692 0.45673 0.0
H1162 H 0.59929 0.68095 0.49027 0.0
H1163 H 0.60738 0.63633 0.53124 0.0
H1164 H 0.63603 0.69948 0.4805 0.0
H1165 H 0.64375 0.65442 0.52071 0.0
H1166 H 0.7062 0.731 0.47337 0.0
H1167 H 0.67276 0.71752 0.49572 0.0
H1168 H 0.65954 0.65767 0.47744 0.0
H1169 H 0.69259 0.67115 0.45541 0.0
C1170 C 0.60892 0.67526 0.49747 0.0
C1171 C 0.60032 0.65685 0.51074 0.0
C1172 C 0.62994 0.68585 0.49187 0.0
C1173 C 0.64259 0.67805 0.49917 0.0
C1174 C 0.63424 0.66049 0.51422 0.0
C1175 C 0.61337 0.65005 0.52003 0.0
C1176 C 0.69607 0.71499 0.47446 0.0
C1177 C 0.70142 0.70202 0.46218 0.0
C1178 C 0.67705 0.70731 0.48715 0.0
C1179 C 0.66358 0.68657 0.48831 0.0
C1180 C 0.66967 0.6737 0.47719 0.0
C1181 C 0.68843 0.68137 0.4643 0.0
H1182 H 0.04149 0.59982 0.98551 0.0
H1183 H 0.97542 0.56532 0.99261 0.0
H1184 H 0.039 0.62939 0.97405 0.0
H1185 H 0.97304 0.59471 0.98189 0.0
H1186 H 0.97497 0.64322 0.92983 0.0
H1187 H 0.97844 0.61491 0.94324 0.0
H1188 H 0.02901 0.65316 0.99295 0.0
H1189 H 0.02581 0.6819 0.97896 0.0
C1190 C 0.02648 0.59855 0.98462 0.0
C1191 C 1.00865 0.58022 0.98971 0.0
C1192 C 0.02508 0.61549 0.97832 0.0
C1193 C 1.00582 0.61431 0.97702 0.0
C1194 C 0.98807 0.59601 0.98235 0.0
C1195 C 0.98946 0.57916 0.98854 0.0
C1196 C 0.98677 0.64565 0.94376 0.0
C1197 C 1.00011 0.66478 0.95339 0.0
C1198 C 0.9887 0.62938 0.95152 0.0
C1199 C 1.00397 0.63182 0.96918 0.0
C1200 C 0.01723 0.65091 0.9791 0.0
C1201 C 0.01528 0.66729 0.9713 0.0
H1202 H 0.48463 0.46923 0.05707 0.0
H1203 H 0.47645 0.49347 0.98506 0.0
H1204 H 0.45653 0.43616 0.04551 0.0
H1205 H 0.4487 0.46006 0.97307 0.0
H1206 H 0.42065 0.39074 0.9523 0.0
H1207 H 0.44733 0.42455 0.96391 0.0
H1208 H 0.41572 0.4197 0.03631 0.0
H1209 H 0.38856 0.38609 0.02429 0.0
C1210 C 0.47687 0.46752 0.03871 0.0
C1211 C 0.48288 0.4841 0.022 0.0
C1212 C 0.46069 0.44854 0.03216 0.0
C1213 C 0.45036 0.44541 1.00835 0.0
C1214 C 0.45638 0.46194 0.99153 0.0
C1215 C 0.47223 0.4811 0.99843 0.0
C1216 C 0.41934 0.39685 0.97071 0.0
C1217 C 0.40242 0.38559 0.98738 0.0
C1218 C 0.4346 0.41631 0.97727 0.0
C1219 C 0.43367 0.4249 1.00101 0.0
C1220 C 0.41692 0.41354 0.01789 0.0
C1221 C 0.40135 0.39427 1.01099 0.0
H1222 H 0.5731 0.07195 0.99294 0.0
H1223 H 0.58456 0.03612 0.04784 0.0
H1224 H 0.60849 0.08659 0.97669 0.0
H1225 H 0.61987 0.05108 0.03225 0.0
H1226 H 0.68723 0.09558 1.0133 0.0
H1227 H 0.65261 0.08397 0.03073 0.0
H1228 H 0.62889 0.07337 0.95235 0.0
H1229 H 0.66346 0.08481 0.93514 0.0
C1230 C 0.58332 0.06755 1.00183 0.0
C1231 C 0.57618 0.05293 0.02156 0.0
C1232 C 0.60351 0.07586 0.99252 0.0
C1233 C 0.617 0.07011 1.00335 0.0
C1234 C 0.60994 0.05598 0.02372 0.0
C1235 C 0.5897 0.04735 0.03253 0.0
C1236 C 0.67456 0.09083 0.99992 0.0
C1237 C 0.67796 0.09167 0.97293 0.0
C1238 C 0.65481 0.0842 1.00981 0.0
C1239 C 0.6381 0.07803 0.99285 0.0
C1240 C 0.64152 0.07845 0.96584 0.0
C1241 C 0.66125 0.08499 0.956 0.0
H1242 H 0.54792 1.01148 0.58602 0.0
H1243 H 0.57852 0.04303 0.51539 0.0
H1244 H 0.57334 1.00107 0.59176 0.0
H1245 H 0.6046 0.03332 0.52158 0.0
H1246 H 0.64354 1.0028 0.53164 0.0
H1247 H 0.61587 1.00999 0.52226 0.0
H1248 H 0.60666 1.01306 0.60504 0.0
H1249 H 0.63356 1.00504 0.61397 0.0
C1250 C 0.56001 0.01607 0.57152 0.0
C1251 C 0.56103 0.0281 0.55021 0.0
C1252 C 0.57486 1.01028 0.57498 0.0
C1253 C 0.59154 0.01657 0.55748 0.0
C1254 C 0.59207 0.02795 0.53551 0.0
C1255 C 0.57701 0.03356 0.53188 0.0
C1256 C 0.63541 1.00487 0.54773 0.0
C1257 C 0.64026 1.00269 0.57354 0.0
C1258 C 0.61959 1.00916 0.54241 0.0
C1259 C 0.60853 1.01191 0.56281 0.0
C1260 C 0.61413 1.01047 0.58864 0.0
C1261 C 0.6297 1.00593 0.59387 0.0
H1262 H 0.01878 0.60693 0.55882 0.0
H1263 H 0.08413 0.6306 0.56475 0.0
H1264 H 0.02356 0.64001 0.56904 0.0
H1265 H 0.08891 0.66335 0.57436 0.0
H1266 H 0.09003 0.7164 0.61383 0.0
H1267 H 0.08354 0.68252 0.60676 0.0
H1268 H 0.03765 0.67327 0.54966 0.0
H1269 H 0.0439 0.70706 0.55712 0.0
C1270 C 0.03411 0.61909 0.5625 0.0
C1271 C 0.05103 0.61602 0.56096 0.0
C1272 C 0.0369 0.63812 0.56813 0.0
C1273 C 0.05666 0.65448 0.57253 0.0
C1274 C 0.07344 0.65118 0.57148 0.0
C1275 C 0.07068 0.63231 0.56578 0.0
C1276 C 0.0786 0.70718 0.5997 0.0
C1277 C 0.0676 0.71456 0.58595 0.0
C1278 C 0.07488 0.6877 0.59558 0.0
C1279 C 0.06003 0.67502 0.5776 0.0
C1280 C 0.04898 0.68243 0.56391 0.0
C1281 C 0.05273 0.70192 0.56801 0.0
H1282 H 0.44957 0.53899 0.51744 0.0
H1283 H 0.45186 0.5609 0.59536 0.0
H1284 H 0.42455 0.5055 0.53188 0.0
H1285 H 0.4262 0.52777 0.60957 0.0
H1286 H 0.39839 0.46424 0.63634 0.0
H1287 H 0.42357 0.49716 0.61951 0.0
H1288 H 0.39158 0.48324 0.54587 0.0
H1289 H 0.36738 0.44997 0.56248 0.0
C1290 C 0.4443 0.53671 0.53752 0.0
C1291 C 0.45284 0.55256 0.55528 0.0
C1292 C 0.42989 0.51751 0.54582 0.0
C1293 C 0.42349 0.51377 0.57205 0.0
C1294 C 0.43103 0.52994 0.58937 0.0
C1295 C 0.44551 0.5491 0.58109 0.0
C1296 C 0.39697 0.46835 0.61654 0.0
C1297 C 0.38078 0.45511 0.60085 0.0
C1298 C 0.41125 0.48718 0.60689 0.0
C1299 C 0.40936 0.49312 0.5815 0.0
C1300 C 0.39363 0.47926 0.56544 0.0
C1301 C 0.37966 0.46027 0.57495 0.0
H1302 H 0.77319 0.86524 0.34337 0.0
H1303 H 0.73616 0.84885 0.41335 0.0
H1304 H 0.77655 0.83526 0.34798 0.0
H1305 H 0.74 0.81924 0.41849 0.0
H1306 H 0.76641 0.77709 0.42828 0.0
H1307 H 0.77191 0.81095 0.42325 0.0
H1308 H 0.74394 0.79592 0.34738 0.0
H1309 H 0.73787 0.76185 0.35258 0.0
C1310 C 0.76629 0.85548 0.3601 0.0
C1311 C 0.75449 0.85922 0.37811 0.0
C1312 C 0.76812 0.83838 0.36265 0.0
C1313 C 0.75861 0.82513 0.38363 0.0
C1314 C 0.74763 0.8294 0.40231 0.0
C1315 C 0.74539 0.8462 0.39938 0.0
C1316 C 0.76189 0.78114 0.41025 0.0
C1317 C 0.75166 0.76683 0.39083 0.0
C1318 C 0.76497 0.80045 0.40747 0.0
C1319 C 0.75834 0.8059 0.38496 0.0
C1320 C 0.74931 0.79203 0.36482 0.0
C1321 C 0.7458 0.77258 0.36784 0.0
H1322 H 0.24855 0.94907 0.42164 0.0
H1323 H 0.22369 0.98135 0.38134 0.0
H1324 H 0.27887 0.98081 0.43355 0.0
H1325 H 0.25434 1.01309 0.39249 0.0
H1326 H 0.32898 0.05678 0.38935 0.0
H1327 H 0.29723 0.02583 0.37972 0.0
H1328 H 0.28303 0.01594 0.46186 0.0
H1329 H 0.31453 0.04738 0.47161 0.0
C1330 C 0.24963 0.96296 0.41528 0.0
C1331 C 0.23378 0.96275 0.40057 0.0
C1332 C 0.26688 0.98108 0.42221 0.0
C1333 C 0.26889 0.99936 0.41397 0.0
C1334 C 0.25312 0.99919 0.39913 0.0
C1335 C 0.23561 0.98108 0.39282 0.0
C1336 C 0.31905 0.04809 0.40539 0.0
C1337 C 0.32429 0.05458 0.43127 0.0
C1338 C 0.30086 0.03042 0.39983 0.0
C1339 C 0.28773 0.01852 0.42004 0.0
C1340 C 0.29293 0.02487 0.44594 0.0
C1341 C 0.31088 0.04287 0.45148 0.0
H1342 H 0.13729 0.37162 0.38504 0.0
H1343 H 0.15425 0.42743 0.4231 0.0
H1344 H 0.10089 0.36188 0.38996 0.0
H1345 H 0.1185 0.41785 0.428 0.0
H1346 H 0.05594 0.40736 0.40835 0.0
H1347 H 0.09103 0.41423 0.40081 0.0
H1348 H 0.07251 0.35313 0.42108 0.0
H1349 H 0.03728 0.34633 0.42809 0.0
C1350 C 0.13329 0.38165 0.39476 0.0
C1351 C 0.14874 0.40037 0.40345 0.0
C1352 C 0.11244 0.37612 0.39754 0.0
C1353 C 0.1067 0.38925 0.40895 0.0
C1354 C 0.12223 0.40754 0.41852 0.0
C1355 C 0.14285 0.41299 0.41584 0.0
C1356 C 0.05943 0.39544 0.41112 0.0
C1357 C 0.04419 0.37658 0.41981 0.0
C1358 C 0.07953 0.39934 0.40693 0.0
C1359 C 0.08479 0.38434 0.4109 0.0
C1360 C 0.06911 0.36506 0.41792 0.0
C1361 C 0.04901 0.36123 0.42227 0.0
H1362 H 0.14901 0.36941 0.7989 0.0
H1363 H 0.12797 0.36402 0.87865 0.0
H1364 H 0.12235 0.37646 0.7849 0.0
H1365 H 0.10064 0.37058 0.86408 0.0
H1366 H 0.04228 0.36103 0.8103 0.0
H1367 H 0.06746 0.35247 0.82767 0.0
H1368 H 0.11665 0.40852 0.79862 0.0
H1369 H 0.09153 0.41746 0.78253 0.0
C1370 C 0.1385 0.36937 0.81347 0.0
C1371 C 0.14073 0.36606 0.84 0.0
C1372 C 0.12327 0.37357 0.80534 0.0
C1373 C 0.10947 0.3742 0.82331 0.0
C1374 C 0.11107 0.37017 0.84975 0.0
C1375 C 0.1267 0.36639 0.85807 0.0
C1376 C 0.05849 0.3715 0.80765 0.0
C1377 C 0.06494 0.38953 0.79394 0.0
C1378 C 0.07287 0.36664 0.8177 0.0
C1379 C 0.09403 0.37971 0.81425 0.0
C1380 C 0.10045 0.39801 0.80128 0.0
C1381 C 0.08609 0.40302 0.79174 0.0
H1382 H 0.72187 0.83617 0.78565 0.0
H1383 H 0.6947 0.82135 0.86266 0.0
H1384 H 0.71117 0.80102 0.7784 0.0
H1385 H 0.68386 0.78623 0.85537 0.0
H1386 H 0.69144 0.73068 0.84247 0.0
H1387 H 0.70042 0.76524 0.84981 0.0
H1388 H 0.67846 0.76798 0.77314 0.0
H1389 H 0.66938 0.73326 0.7657 0.0
C1390 C 0.71373 0.82544 0.80108 0.0
C1391 C 0.70917 0.83158 0.82475 0.0
C1392 C 0.70739 0.80527 0.79682 0.0
C1393 C 0.69659 0.7908 0.81627 0.0
C1394 C 0.69222 0.79699 0.84003 0.0
C1395 C 0.69833 0.8171 0.84415 0.0
C1396 C 0.68832 0.73854 0.82722 0.0
C1397 C 0.67964 0.7291 0.80348 0.0
C1398 C 0.69343 0.75837 0.83149 0.0
C1399 C 0.69025 0.76941 0.81203 0.0
C1400 C 0.6813 0.75993 0.78842 0.0
C1401 C 0.67592 0.73997 0.78427 0.0
H1402 H 0.25876 0.91494 0.84826 0.0
H1403 H 0.24575 0.96115 0.82372 0.0
H1404 H 0.2954 0.93772 0.83982 0.0
H1405 H 0.28185 0.98352 0.81528 0.0
H1406 H 0.34819 0.02628 0.83189 0.0
H1407 H 0.31244 1.00165 0.84152 0.0
H1408 H 0.3208 0.95598 0.80447 0.0
H1409 H 0.35676 0.98075 0.7954 0.0
C1410 C 0.26367 0.92983 0.84085 0.0
C1411 C 0.24938 0.93629 0.83691 0.0
C1412 C 0.2846 0.94285 0.836 0.0
C1413 C 0.29153 0.96252 0.82725 0.0
C1414 C 0.2771 0.96863 0.82253 0.0
C1415 C 0.25633 0.95571 0.82728 0.0
C1416 C 0.34228 1.01097 0.82581 0.0
C1417 C 0.35475 1.00546 0.81194 0.0
C1418 C 0.32187 0.99689 0.83123 0.0
C1419 C 0.31368 0.97694 0.82329 0.0
C1420 C 0.32662 0.97122 0.81076 0.0
C1421 C 0.34705 0.9854 0.80523 0.0
H1422 H 0.71319 0.96219 0.28479 0.0
H1423 H 0.7152 0.96309 0.36888 0.0
H1424 H 0.70234 0.98728 0.28516 0.0
H1425 H 0.70465 0.98858 0.36922 0.0
H1426 H 0.71181 0.05318 0.33724 0.0
H1427 H 0.72196 0.0279 0.34504 0.0
H1428 H 0.66643 0.9835 0.30852 0.0
H1429 H 0.65597 1.00835 0.30122 0.0
C1430 C 0.71163 0.96801 0.30329 0.0
C1431 C 0.715 0.96076 0.32679 0.0
C1432 C 0.70529 0.9822 0.30352 0.0
C1433 C 0.7026 0.98964 0.32723 0.0
C1434 C 0.70663 0.98296 0.35075 0.0
C1435 C 0.71257 0.96843 0.35054 0.0
C1436 C 0.70151 0.0379 0.33157 0.0
C1437 C 0.6832 0.03279 0.31838 0.0
C1438 C 0.70734 0.02351 0.336 0.0
C1439 C 0.69505 1.00397 0.32701 0.0
C1440 C 0.67618 0.99858 0.31539 0.0
C1441 C 0.67021 1.01281 0.31133 0.0
H1442 H 0.09552 0.82577 0.33047 0.0
H1443 H 0.14741 0.81615 0.32644 0.0
H1444 H 0.07302 0.7915 0.31717 0.0
H1445 H 0.12471 0.78157 0.3142 0.0
H1446 H 0.07984 0.72595 0.26662 0.0
H1447 H 0.10363 0.76037 0.27948 0.0
H1448 H 0.0582 0.75817 0.33345 0.0
H1449 H 0.03446 0.72418 0.32022 0.0
C1450 C 0.10221 0.81642 0.32676 0.0
C1451 C 0.12341 0.82394 0.32967 0.0
C1452 C 0.0892 0.79658 0.3194 0.0
C1453 C 0.09694 0.78357 0.31474 0.0
C1454 C 0.11816 0.79111 0.31741 0.0
C1455 C 0.13119 0.81098 0.32478 0.0
C1456 C 0.07502 0.7328 0.28135 0.0
C1457 C 0.05518 0.72228 0.29227 0.0
C1458 C 0.08868 0.75255 0.2888 0.0
C1459 C 0.08284 0.76225 0.30737 0.0
C1460 C 0.06316 0.75146 0.3187 0.0
C1461 C 0.04955 0.73182 0.31123 0.0
H1462 H 0.25564 0.39324 0.39031 0.0
H1463 H 0.26161 0.42069 0.31504 0.0
H1464 H 0.28833 0.39398 0.38305 0.0
H1465 H 0.29384 0.42162 0.30759 0.0
H1466 H 0.35127 0.42054 0.29432 0.0
H1467 H 0.31492 0.40914 0.29981 0.0
H1468 H 0.32336 0.41701 0.38321 0.0
H1469 H 0.35959 0.42703 0.37742 0.0
C1470 C 0.26359 0.39873 0.37182 0.0
C1471 C 0.25603 0.40669 0.35308 0.0
C1472 C 0.28255 0.39957 0.36781 0.0
C1473 C 0.29427 0.40835 0.34494 0.0
C1474 C 0.28563 0.4148 0.32549 0.0
C1475 C 0.26695 0.41417 0.32964 0.0
C1476 C 0.34525 0.41971 0.31382 0.0
C1477 C 0.35828 0.42523 0.33539 0.0
C1478 C 0.32436 0.41323 0.31705 0.0
C1479 C 0.31594 0.41241 0.34197 0.0
C1480 C 0.32899 0.41717 0.3637 0.0
C1481 C 0.34987 0.42319 0.36045 0.0
H1482 H 0.21575 0.33845 0.95228 0.0
H1483 H 0.24063 0.36222 0.87605 0.0
H1484 H 0.24385 0.33207 0.96018 0.0
H1485 H 0.26956 0.35716 0.88436 0.0
H1486 H 0.31468 0.33496 0.89908 0.0
H1487 H 0.28479 0.33829 0.88894 0.0
H1488 H 0.27722 0.34596 0.97106 0.0
H1489 H 0.3061 0.34111 0.98085 0.0
C1490 C 0.22723 0.34225 0.93712 0.0
C1491 C 0.22581 0.35076 0.91349 0.0
C1492 C 0.24364 0.33885 0.94176 0.0
C1493 C 0.25954 0.34434 0.92318 0.0
C1494 C 0.25772 0.35239 0.89919 0.0
C1495 C 0.24103 0.35536 0.89435 0.0
C1496 C 0.30643 0.33722 0.91486 0.0
C1497 C 0.31225 0.33711 0.94078 0.0
C1498 C 0.28933 0.33934 0.9091 0.0
C1499 C 0.27803 0.34218 0.92911 0.0
C1500 C 0.28476 0.3431 0.955 0.0
C1501 C 0.30151 0.34048 0.96072 0.0
H1502 H 0.76391 0.98797 0.87782 0.0
H1503 H 0.69938 0.95472 0.89748 0.0
H1504 H 0.76446 0.01897 0.88835 0.0
H1505 H 0.69994 0.9857 0.90776 0.0
H1506 H 0.70305 0.04599 0.89803 0.0
H1507 H 0.7034 0.01553 0.88652 0.0
H1508 H 0.76153 0.03745 0.92522 0.0
H1509 H 0.76129 0.06806 0.93646 0.0
C1510 C 0.74986 0.98717 0.88456 0.0
C1511 C 0.73158 0.96866 0.88665 0.0
C1512 C 0.75018 1.00502 0.89059 0.0
C1513 C 0.73222 1.00491 0.8988 0.0
C1514 C 0.71399 0.98643 0.90104 0.0
C1515 C 0.71368 0.96859 0.89511 0.0
C1516 C 0.71598 0.04438 0.90397 0.0
C1517 C 0.73213 0.0595 0.9182 0.0
C1518 C 0.71611 0.02683 0.89753 0.0
C1519 C 0.73244 0.02393 0.90505 0.0
C1520 C 0.74879 0.03922 0.91889 0.0
C1521 C 0.74861 0.05676 0.92544 0.0
H1522 H 0.15604 0.83187 0.91237 0.0
H1523 H 0.1268 0.84006 0.84502 0.0
H1524 H 0.12643 0.79823 0.91897 0.0
H1525 H 0.09758 0.80682 0.85118 0.0
H1526 H 0.04798 0.74453 0.86163 0.0
H1527 H 0.08286 0.77143 0.85199 0.0
H1528 H 0.09156 0.78657 0.93378 0.0
H1529 H 0.05696 0.75927 0.94321 0.0
C1530 C 0.14353 0.82619 0.8986 0.0
C1531 C 0.14351 0.83837 0.87826 0.0
C1532 C 0.12654 0.80709 0.90246 0.0
C1533 C 0.10949 0.79991 0.88579 0.0
C1534 C 0.11037 0.81174 0.86437 0.0
C1535 C 0.12709 0.83082 0.86083 0.0
C1536 C 0.0575 0.75361 0.87744 0.0
C1537 C 0.04964 0.75063 0.90291 0.0
C1538 C 0.07743 0.76896 0.872 0.0
C1539 C 0.08993 0.78138 0.89205 0.0
C1540 C 0.08245 0.77729 0.91786 0.0
C1541 C 0.06251 0.76195 0.92324 0.0
H1542 H 0.44021 0.1949 0.75039 0.0
H1543 H 0.3747 0.16655 0.7626 0.0
H1544 H 0.4388 0.16303 0.75932 0.0
H1545 H 0.37331 0.13489 0.77108 0.0
H1546 H 0.37546 0.07923 0.74565 0.0
H1547 H 0.37843 0.11191 0.7422 0.0
H1548 H 0.43012 0.13603 0.79421 0.0
H1549 H 0.42722 0.10301 0.79777 0.0
C1550 C 0.42558 0.18199 0.75531 0.0
C1551 C 0.40752 0.18325 0.75529 0.0
C1552 C 0.42477 0.16374 0.76042 0.0
C1553 C 0.40589 0.1464 0.76553 0.0
C1554 C 0.38803 0.1479 0.76666 0.0
C1555 C 0.38883 0.16606 0.76169 0.0
C1556 C 0.38747 0.0914 0.75647 0.0
C1557 C 0.40108 0.0884 0.77205 0.0
C1558 C 0.38908 0.11016 0.75458 0.0
C1559 C 0.40443 0.12653 0.76805 0.0
C1560 C 0.41818 0.12369 0.78353 0.0
C1561 C 0.41643 0.10476 0.78567 0.0
H1562 H 0.89069 0.26126 0.73674 0.0
H1563 H 0.91747 0.25876 0.6634 0.0
H1564 H 0.92214 0.29145 0.74814 0.0
H1565 H 0.94891 0.28977 0.67403 0.0
H1566 H 1.00839 0.34082 0.70744 0.0
H1567 H 0.97895 0.30834 0.69793 0.0
H1568 H 0.93951 0.32518 0.73889 0.0
H1569 H 0.9691 0.35726 0.74935 0.0
C1570 C 0.90354 0.26704 0.72321 0.0
C1571 C 0.90168 0.25742 0.69936 0.0
C1572 C 0.92154 0.28465 0.72952 0.0
C1573 C 0.9382 0.29362 0.71187 0.0
C1574 C 0.93663 0.28344 0.68836 0.0
C1575 C 0.91862 0.26552 0.68223 0.0
C1576 C 0.99343 0.33763 0.71445 0.0
C1577 C 0.99129 0.35183 0.72931 0.0
C1578 C 0.97642 0.3189 0.70885 0.0
C1579 C 0.95658 0.31374 0.7177 0.0
C1580 C 0.95445 0.32814 0.7322 0.0
C1581 C 0.9715 0.34677 0.73805 0.0
H1582 H 0.80984 0.71711 0.67978 0.0
H1583 H 0.80023 0.672 0.73692 0.0
H1584 H 0.77753 0.71506 0.69326 0.0
H1585 H 0.76877 0.67051 0.75122 0.0
H1586 H 0.72419 0.71605 0.73629 0.0
H1587 H 0.75778 0.72072 0.7236 0.0
H1588 H 0.73546 0.658 0.7389 0.0
H1589 H 0.70267 0.65399 0.75302 0.0
C1590 C 0.80104 0.7071 0.69561 0.0
C1591 C 0.80745 0.6946 0.70714 0.0
C1592 C 0.7825 0.70591 0.70342 0.0
C1593 C 0.77017 0.69238 0.72318 0.0
C1594 C 0.77734 0.6807 0.73548 0.0
C1595 C 0.79557 0.68167 0.72743 0.0
C1596 C 0.72672 0.70341 0.7371 0.0
C1597 C 0.71125 0.68486 0.74651 0.0
C1598 C 0.74588 0.70598 0.72961 0.0
C1599 C 0.74967 0.68984 0.73055 0.0
C1600 C 0.73358 0.67103 0.73873 0.0
C1601 C 0.71468 0.66862 0.74673 0.0
H1602 H 0.78338 0.70514 0.17366 0.0
H1603 H 0.82286 0.74452 0.11311 0.0
H1604 H 0.76019 0.71834 0.16829 0.0
H1605 H 0.79913 0.75737 0.10664 0.0
H1606 H 0.75602 0.78393 0.10967 0.0
H1607 H 0.78257 0.77535 0.12012 0.0
H1608 H 0.7352 0.71525 0.1396 0.0
H1609 H 0.70908 0.72424 0.13007 0.0
C1610 C 0.78728 0.71698 0.15949 0.0
C1611 C 0.80511 0.724 0.14414 0.0
C1612 C 0.77376 0.72434 0.15601 0.0
C1613 C 0.77731 0.73868 0.13653 0.0
C1614 C 0.79575 0.74641 0.1219 0.0
C1615 C 0.80949 0.73914 0.12567 0.0
C1616 C 0.75141 0.76888 0.11607 0.0
C1617 C 0.73047 0.75455 0.11825 0.0
C1618 C 0.76662 0.76392 0.12212 0.0
C1619 C 0.76128 0.74452 0.13074 0.0
C1620 C 0.74019 0.73043 0.13349 0.0
C1621 C 0.72508 0.73548 0.12775 0.0
H1622 H 0.36446 0.15374 0.22407 0.0
H1623 H 0.3939 0.16704 0.14842 0.0
H1624 H 0.35 0.11798 0.21619 0.0
H1625 H 0.37935 0.13126 0.14044 0.0
H1626 H 0.33122 0.06522 0.12581 0.0
H1627 H 0.34314 0.10044 0.13461 0.0
H1628 H 0.36459 0.0943 0.21012 0.0
H1629 H 0.35296 0.05921 0.20129 0.0
C1630 C 0.36778 0.14899 0.20573 0.0
C1631 C 0.38034 0.16317 0.18687 0.0
C1632 C 0.35958 0.12855 0.20127 0.0
C1633 C 0.36345 0.12183 0.17765 0.0
C1634 C 0.37594 0.136 0.15872 0.0
C1635 C 0.38444 0.15647 0.16338 0.0
C1636 C 0.33815 0.07128 0.14447 0.0
C1637 C 0.3411 0.05938 0.16287 0.0
C1638 C 0.34516 0.09149 0.14938 0.0
C1639 C 0.35491 0.10013 0.17297 0.0
C1640 C 0.35707 0.08803 0.19181 0.0
C1641 C 0.35041 0.06794 0.18672 0.0
H1642 H 0.92382 0.30398 0.1994 0.0
H1643 H 0.92804 0.26652 0.14043 0.0
H1644 H 0.95991 0.32817 0.19344 0.0
H1645 H 0.96429 0.29125 0.13339 0.0
H1646 H 0.03286 0.33672 0.13509 0.0
H1647 H 0.99874 0.30934 0.147 0.0
H1648 H 0.97916 0.35241 0.16267 0.0
H1649 H 1.01346 0.37946 0.15207 0.0
C1650 C 0.93262 0.30095 0.18515 0.0
C1651 C 0.92321 0.2836 0.1701 0.0
C1652 C 0.95327 0.31491 0.18152 0.0
C1653 C 0.96496 0.31211 0.16224 0.0
C1654 C 0.95579 0.29405 0.14826 0.0
C1655 C 0.93505 0.27983 0.15227 0.0
C1656 C 0.02111 0.34015 0.14109 0.0
C1657 C 0.02541 0.36002 0.14207 0.0
C1658 C 1.00159 0.32452 0.14789 0.0
C1659 C 0.98607 0.32855 0.15585 0.0
C1660 C 0.99073 0.34862 0.15721 0.0
C1661 C 1.0103 0.36417 0.15086 0.0
H1662 H 0.41774 0.32094 0.6756 0.0
H1663 H 0.35521 0.27303 0.66818 0.0
H1664 H 0.40717 0.34494 0.66281 0.0
H1665 H 0.34452 0.29702 0.65655 0.0
H1666 H 0.33514 0.34372 0.61319 0.0
H1667 H 0.34652 0.31973 0.62274 0.0
H1668 H 0.38795 0.35951 0.6808 0.0
H1669 H 0.37695 0.38359 0.67084 0.0
C1670 C 0.40177 0.31549 0.67115 0.0
C1671 C 0.38734 0.29502 0.67314 0.0
C1672 C 0.39565 0.32928 0.6641 0.0
C1673 C 0.37495 0.32295 0.65882 0.0
C1674 C 0.36061 0.30245 0.66027 0.0
C1675 C 0.36672 0.28868 0.6673 0.0
C1676 C 0.34667 0.34732 0.62799 0.0
C1677 C 0.35513 0.36556 0.64125 0.0
C1678 C 0.35315 0.33354 0.63354 0.0
C1679 C 0.36822 0.33769 0.6525 0.0
C1680 C 0.3766 0.35594 0.66577 0.0
C1681 C 0.37015 0.3697 0.6602 0.0
H1682 H 0.82118 0.14664 0.61848 0.0
H1683 H 0.78842 0.14205 0.68967 0.0
H1684 H 0.79657 0.11159 0.60894 0.0
H1685 H 0.7645 0.10704 0.68112 0.0
H1686 H 0.70945 0.0548 0.64359 0.0
H1687 H 0.73656 0.08803 0.65511 0.0
H1688 H 0.78113 0.07688 0.61655 0.0
H1689 H 0.75366 0.04379 0.60417 0.0
C1690 C 0.80917 0.13792 0.63255 0.0
C1691 C 0.80686 0.14707 0.65493 0.0
C1692 C 0.79491 0.11778 0.62708 0.0
C1693 C 0.77806 0.10627 0.64395 0.0
C1694 C 0.77671 0.11531 0.66712 0.0
C1695 C 0.7907 0.13539 0.67232 0.0
C1696 C 0.72504 0.05935 0.63771 0.0
C1697 C 0.72925 0.04648 0.62297 0.0
C1698 C 0.74076 0.07849 0.64449 0.0
C1699 C 0.76137 0.08544 0.63701 0.0
C1700 C 0.76558 0.07239 0.6225 0.0
C1701 C 0.74977 0.05326 0.61554 0.0
H1702 H 0.92354 0.7321 0.67965 0.0
H1703 H 0.92162 0.75203 0.60143 0.0
H1704 H 0.95899 0.74084 0.673 0.0
H1705 H 0.95761 0.76199 0.59514 0.0
H1706 H 1.01269 0.75426 0.57906 0.0
H1707 H 0.97807 0.74824 0.58715 0.0
H1708 H 0.99313 0.76337 0.66832 0.0
H1709 H 0.02727 0.76798 0.66013 0.0
C1710 C 0.9309 0.73898 0.66127 0.0
C1711 C 0.91969 0.74129 0.64101 0.0
C1712 C 0.95139 0.74406 0.65742 0.0
C1713 C 0.96137 0.75195 0.63335 0.0
C1714 C 0.95043 0.75544 0.61369 0.0
C1715 C 0.92981 0.74998 0.61738 0.0
C1716 C 1.00849 0.75633 0.59856 0.0
C1717 C 0.02269 0.76211 0.61885 0.0
C1718 C 0.98867 0.75303 0.60326 0.0
C1719 C 0.98264 0.75558 0.62839 0.0
C1720 C 0.99694 0.76101 0.64877 0.0
C1721 C 0.0166 0.76385 0.64412 0.0
H1722 H 0.87136 0.67129 0.22412 0.0
H1723 H 0.9128 0.71503 0.1686 0.0
H1724 H 0.89944 0.66771 0.24187 0.0
H1725 H 0.94113 0.71121 0.18609 0.0
H1726 H 0.97581 0.67548 0.19947 0.0
H1727 H 0.94975 0.68365 0.18518 0.0
H1728 H 0.93266 0.68447 0.26548 0.0
H1729 H 0.95905 0.67666 0.2796 0.0
C1730 C 0.88667 0.68057 0.2162 0.0
C1731 C 0.88995 0.6937 0.19527 0.0
C1732 C 0.90277 0.67843 0.2263 0.0
C1733 C 0.92256 0.68898 0.2153 0.0
C1734 C 0.92604 0.7027 0.19489 0.0
C1735 C 0.90992 0.70514 0.18511 0.0
C1736 C 0.96633 0.67725 0.21401 0.0
C1737 C 0.96882 0.67454 0.24059 0.0
C1738 C 0.95155 0.68215 0.20587 0.0
C1739 C 0.93901 0.68471 0.22414 0.0
C1740 C 0.94183 0.68238 0.25082 0.0
C1741 C 0.95676 0.67765 0.25894 0.0
H1742 H 0.43493 0.31004 0.27872 0.0
H1743 H 0.39502 0.30392 0.21512 0.0
H1744 H 0.43521 0.34037 0.29249 0.0
H1745 H 0.39601 0.33477 0.22777 0.0
H1746 H 0.38313 0.37795 0.27291 0.0
H1747 H 0.38381 0.34834 0.25821 0.0
H1748 H 0.44639 0.37377 0.28466 0.0
H1749 H 0.44512 0.40278 0.30068 0.0
C1750 C 0.42653 0.31545 0.26742 0.0
C1751 C 0.41487 0.3046 0.24596 0.0
C1752 C 0.42671 0.33291 0.2752 0.0
C1753 C 0.41554 0.34017 0.26138 0.0
C1754 C 0.40438 0.32951 0.23939 0.0
C1755 C 0.4039 0.31187 0.23196 0.0
C1756 C 0.39703 0.37718 0.27552 0.0
C1757 C 0.41403 0.39264 0.28805 0.0
C1758 C 0.39751 0.36024 0.2669 0.0
C1759 C 0.41518 0.35848 0.27015 0.0
C1760 C 0.43233 0.37425 0.28225 0.0
C1761 C 0.43169 0.39101 0.29129 0.0
H1762 H 0.83008 0.18016 0.226 0.0
H1763 H 0.79301 0.18263 0.16374 0.0
H1764 H 0.80119 0.14807 0.24058 0.0
H1765 H 0.76445 0.15085 0.17785 0.0
H1766 H 0.71378 0.09316 0.20628 0.0
H1767 H 0.74743 0.11577 0.18667 0.0
H1768 H 0.76996 0.14165 0.26236 0.0
H1769 H 0.73664 0.11878 0.28165 0.0
C1770 C 0.816 0.17348 0.21495 0.0
C1771 C 0.81358 0.18383 0.19399 0.0
C1772 C 0.79941 0.15525 0.22338 0.0
C1773 C 0.78034 0.14708 0.21071 0.0
C1774 C 0.7788 0.15663 0.18814 0.0
C1775 C 0.79516 0.17491 0.18007 0.0
C1776 C 0.72609 0.10361 0.21857 0.0
C1777 C 0.72257 0.10498 0.24514 0.0
C1778 C 0.74532 0.1165 0.20746 0.0
C1779 C 0.76138 0.13069 0.22288 0.0
C1780 C 0.7581 0.13085 0.24988 0.0
C1781 C 0.7389 0.11804 0.26088 0.0
H1782 H 0.0339 0.51409 0.92406 0.0
H1783 H 0.98135 0.45762 0.94587 0.0
H1784 H 0.03923 0.49869 0.88561 0.0
H1785 H 0.98672 0.44226 0.90762 0.0
H1786 H 0.98894 0.42386 0.82428 0.0
H1787 H 0.98411 0.4407 0.86141 0.0
H1788 H 0.04977 0.4757 0.87065 0.0
H1789 H 0.05457 0.45908 0.833 0.0
C1790 C 0.02354 0.49836 0.92087 0.0
C1791 C 1.00711 0.48722 0.9383 0.0
C1792 C 0.02663 0.48948 0.8987 0.0
C1793 C 1.01338 0.46916 0.8932 0.0
C1794 C 0.99704 0.45801 0.91073 0.0
C1795 C 0.99395 0.46688 0.93284 0.0
C1796 C 1.00239 0.43525 0.83408 0.0
C1797 C 0.02216 0.44005 0.82554 0.0
C1798 C 0.99961 0.44484 0.85562 0.0
C1799 C 0.01651 0.45954 0.86943 0.0
C1800 C 0.03633 0.46464 0.86052 0.0
C1801 C 0.03911 0.45503 0.8389 0.0
H1802 H 0.57201 0.57246 0.94427 0.0
H1803 H 0.53409 0.59706 0.92012 0.0
H1804 H 0.59657 0.59132 0.90977 0.0
H1805 H 0.55872 0.61602 0.88565 0.0
H1806 H 0.60022 0.63491 0.81201 0.0
H1807 H 0.574 0.61424 0.84441 0.0
H1808 H 0.62148 0.62521 0.89985 0.0
H1809 H 0.64743 0.6453 0.86773 0.0
C1810 C 0.56892 0.58196 0.93173 0.0
C1811 C 0.55104 0.58325 0.93524 0.0
C1812 C 0.58305 0.59282 0.91187 0.0
C1813 C 0.57978 0.60538 0.89492 0.0
C1814 C 0.56169 0.60636 0.89807 0.0
C1815 C 0.54752 0.59546 0.91794 0.0
C1816 C 0.60505 0.63289 0.8311 0.0
C1817 C 0.62604 0.64184 0.83708 0.0
C1818 C 0.59 0.62109 0.84975 0.0
C1819 C 0.59556 0.61789 0.87479 0.0
C1820 C 0.61653 0.62695 0.88069 0.0
C1821 C 0.63149 0.63868 0.86219 0.0
H1822 H 0.51216 0.02584 0.94369 0.0
H1823 H 0.44988 0.98117 0.96325 0.0
H1824 H 0.50043 0.03245 0.90251 0.0
H1825 H 0.43832 0.98751 0.92191 0.0
H1826 H 0.42519 0.99545 0.83818 0.0
H1827 H 0.44059 0.9861 0.87334 0.0
H1828 H 0.47892 0.04828 0.89262 0.0
H1829 H 0.46353 0.05769 0.85739 0.0
C1830 C 0.49601 0.01727 0.93913 0.0
C1831 C 0.48194 1.0032 0.95707 0.0
C1832 C 0.48932 0.02106 0.91552 0.0
C1833 C 0.46844 1.01067 0.90913 0.0
C1834 C 0.45455 0.99568 0.92622 0.0
C1835 C 0.46121 0.992 0.94995 0.0
C1836 C 0.43711 1.00717 0.84966 0.0
C1837 C 0.44305 0.02732 0.84512 0.0
C1838 C 0.44585 1.00178 0.86987 0.0
C1839 C 0.46086 0.01643 0.88582 0.0
C1840 C 0.4675 0.03665 0.8805 0.0
C1841 C 0.45863 0.04204 0.86041 0.0
H1842 H 0.49657 0.08088 0.6015 0.0
H1843 H 0.53616 0.07198 0.65385 0.0
H1844 H 0.47155 0.07251 0.63652 0.0
H1845 H 0.51093 0.06324 0.68901 0.0
H1846 H 0.46688 0.06487 0.75102 0.0
H1847 H 0.49376 0.07542 0.71779 0.0
H1848 H 0.44782 0.04269 0.65975 0.0
H1849 H 0.42104 0.03256 0.69261 0.0
C1850 C 0.49989 0.07712 0.62055 0.0
C1851 C 0.51821 0.0769 0.62489 0.0
C1852 C 0.48554 0.07224 0.6406 0.0
C1853 C 0.48908 0.06688 0.66547 0.0
C1854 C 0.50778 0.06741 0.67012 0.0
C1855 C 0.52224 0.07243 0.65002 0.0
C1856 C 0.46254 0.05985 0.73119 0.0
C1857 C 0.44177 0.04799 0.72447 0.0
C1858 C 0.47796 0.06587 0.71216 0.0
C1859 C 0.47293 0.06011 0.68605 0.0
C1860 C 0.45221 0.04782 0.67954 0.0
C1861 C 0.43684 0.04189 0.69846 0.0
H1862 H 0.07876 0.51572 0.59355 0.0
H1863 H 0.02432 0.51587 0.62059 0.0
H1864 H 0.07338 0.49075 0.62629 0.0
H1865 H 0.01851 0.49018 0.6529 0.0
H1866 H 0.02626 0.45694 0.72498 0.0
H1867 H 0.03024 0.48252 0.69318 0.0
H1868 H 0.0519 0.45641 0.63581 0.0
H1869 H 0.04833 0.43138 0.66733 0.0
C1870 C 0.06563 0.51054 0.60644 0.0
C1871 C 0.05202 0.51805 0.60406 0.0
C1872 C 0.06237 0.4959 0.62519 0.0
C1873 C 0.04534 0.4881 0.64233 0.0
C1874 C 0.03185 0.49578 0.64027 0.0
C1875 C 0.0351 0.51046 0.62142 0.0
C1876 C 0.03168 0.45655 0.70551 0.0
C1877 C 0.03704 0.44199 0.699 0.0
C1878 C 0.03397 0.47126 0.68717 0.0
C1879 C 0.04171 0.47188 0.66181 0.0
C1880 C 0.04641 0.45691 0.6552 0.0
C1881 C 0.04416 0.44232 0.67339 0.0
H1882 H 0.59432 0.59369 0.58299 0.0
H1883 H 0.53968 0.59259 0.61203 0.0
H1884 H 0.61103 0.60668 0.62468 0.0
H1885 H 0.55635 0.60539 0.65376 0.0
H1886 H 0.60367 0.65535 0.70729 0.0
H1887 H 0.58393 0.63744 0.66916 0.0
H1888 H 0.61146 0.59989 0.67134 0.0
H1889 H 0.63137 0.61795 0.70935 0.0
C1890 C 0.58571 0.59583 0.5984 0.0
C1891 C 0.56566 0.59216 0.59399 0.0
C1892 C 0.5953 0.60327 0.62238 0.0
C1893 C 0.58513 0.6073 0.64256 0.0
C1894 C 0.56477 0.60279 0.63854 0.0
C1895 C 0.55515 0.59528 0.61462 0.0
C1896 C 0.60535 0.64313 0.69983 0.0
C1897 C 0.61916 0.63815 0.71138 0.0
C1898 C 0.59394 0.63278 0.678 0.0
C1899 C 0.59612 0.61722 0.66705 0.0
C1900 C 0.60956 0.61193 0.67903 0.0
C1901 C 0.62088 0.62221 0.70096 0.0
H1902 H 0.99675 0.53813 0.13925 0.0
H1903 H 1.01435 0.58685 0.0846 0.0
H1904 H 0.99699 0.55916 0.17444 0.0
H1905 H 0.01466 0.608 0.1201 0.0
H1906 H 0.02891 0.64527 0.19633 0.0
H1907 H 0.03174 0.62545 0.16085 0.0
H1908 H 0.97676 0.57354 0.18896 0.0
H1909 H 0.97408 0.59293 0.2241 0.0
C1910 C 1.00053 0.55326 0.13456 0.0
C1911 C 1.00532 0.56055 0.10875 0.0
C1912 C 1.00072 0.56542 0.15491 0.0
C1913 C 1.00571 0.58534 0.15025 0.0
C1914 C 1.01094 0.59283 0.12457 0.0
C1915 C 1.01071 0.58062 0.10412 0.0
C1916 C 0.01754 0.62959 0.19503 0.0
C1917 C 1.00131 0.62081 0.21331 0.0
C1918 C 0.01907 0.61824 0.17454 0.0
C1919 C 1.00453 0.59778 0.17197 0.0
C1920 C 0.98847 0.58909 0.1904 0.0
C1921 C 0.98687 0.60037 0.21061 0.0
H1922 H 0.5213 0.50974 0.14793 0.0
H1923 H 0.47702 0.52633 0.12255 0.0
H1924 H 0.5022 0.49635 0.18821 0.0
H1925 H 0.45722 0.5119 0.1625 0.0
H1926 H 0.43889 0.50461 0.24851 0.0
H1927 H 0.45823 0.51798 0.20819 0.0
H1928 H 0.47183 0.46978 0.20667 0.0
H1929 H 0.45294 0.4567 0.2475 0.0
C1930 C 0.50748 0.51056 0.15084 0.0
C1931 C 0.50093 0.51942 0.1319 0.0
C1932 C 0.4963 0.50256 0.17394 0.0
C1933 C 0.47812 0.50303 0.17883 0.0
C1934 C 0.47131 0.51153 0.15968 0.0
C1935 C 0.48256 0.51961 0.13654 0.0
C1936 C 0.44611 0.4969 0.23973 0.0
C1937 C 0.44436 0.47956 0.25145 0.0
C1938 C 0.45707 0.50449 0.21637 0.0
C1939 C 0.46654 0.49494 0.20391 0.0
C1940 C 0.46498 0.47772 0.21578 0.0
C1941 C 0.4541 0.47017 0.23925 0.0
H1942 H 0.56743 0.06532 0.12098 0.0
H1943 H 0.53912 1.00747 0.159 0.0
H1944 H 0.59396 0.07843 0.15357 0.0
H1945 H 0.56511 0.02105 0.19276 0.0
H1946 H 0.62869 0.04466 0.22799 0.0
H1947 H 0.60036 0.03158 0.19774 0.0
H1948 H 0.60187 0.0883 0.19754 0.0
H1949 H 0.6309 0.1017 0.22725 0.0
C1950 C 0.56675 0.05532 0.13627 0.0
C1951 C 0.55117 0.03514 0.13694 0.0
C1952 C 0.58188 0.06301 0.15534 0.0
C1953 C 0.58179 0.05084 0.17584 0.0
C1954 C 0.56589 0.03081 0.17701 0.0
C1955 C 0.5508 0.02305 0.15777 0.0
C1956 C 0.62298 0.05438 0.22162 0.0
C1957 C 0.63216 0.07429 0.23005 0.0
C1958 C 0.60656 0.04679 0.20436 0.0
C1959 C 0.59871 0.05881 0.19519 0.0
C1960 C 0.60769 0.07867 0.20389 0.0
C1961 C 0.62429 0.08635 0.22103 0.0
H1962 H 0.60455 0.07763 0.47301 0.0
H1963 H 0.59717 0.12417 0.43658 0.0
H1964 H 0.62319 0.07637 0.43469 0.0
H1965 H 0.61544 0.1227 0.39797 0.0
H1966 H 0.66457 0.12738 0.34193 0.0
H1967 H 0.64809 0.12972 0.38154 0.0
H1968 H 0.61695 0.06552 0.39037 0.0
H1969 H 0.63398 0.06319 0.35104 0.0
C1970 C 0.60691 0.08758 0.45675 0.0
C1971 C 0.59935 0.10096 0.45776 0.0
C1972 C 0.6175 0.08679 0.43474 0.0
C1973 C 0.62068 0.0993 0.4131 0.0
C1974 C 0.61351 0.11302 0.41438 0.0
C1975 C 0.60304 0.11389 0.43651 0.0
C1976 C 0.65419 0.11372 0.35225 0.0
C1977 C 0.65057 0.09506 0.3432 0.0
C1978 C 0.64466 0.11508 0.37497 0.0
C1979 C 0.63114 0.09783 0.38917 0.0
C1980 C 0.62752 0.07916 0.38015 0.0
C1981 C 0.63719 0.0778 0.35749 0.0
H1982 H 0.04207 0.61404 0.45938 0.0
H1983 H 0.03477 0.56597 0.4099 0.0
H1984 H 0.03353 0.62903 0.42259 0.0
H1985 H 0.02604 0.58076 0.37334 0.0
H1986 H 0.98627 0.60061 0.32597 0.0
H1987 H 0.99631 0.58681 0.3623 0.0
H1988 H 0.04821 0.64499 0.37698 0.0
H1989 H 0.03839 0.65884 0.34017 0.0
C1990 C 0.03864 0.60667 0.44068 0.0
C1991 C 0.03918 0.58881 0.43765 0.0
C1992 C 0.03387 0.61532 0.41955 0.0
C1993 C 0.02905 0.6061 0.39496 0.0
C1994 C 0.02955 0.58822 0.39199 0.0
C1995 C 0.03472 0.57981 0.41293 0.0
C1996 C 0.99986 0.61052 0.33685 0.0
C1997 C 1.01151 0.63088 0.32997 0.0
C1998 C 1.00567 0.60255 0.35766 0.0
C1999 C 0.02308 0.61476 0.37262 0.0
C2000 C 0.03466 0.63517 0.36597 0.0
C2001 C 0.02908 0.64308 0.34476 0.0
H2002 H 0.49231 0.51372 0.49852 0.0
H2003 H 0.51859 0.56784 0.45216 0.0
H2004 H 0.47277 0.49465 0.4609 0.0
H2005 H 0.49924 0.54873 0.4145 0.0
H2006 H 0.44116 0.51289 0.36531 0.0
H2007 H 0.46354 0.53158 0.40111 0.0
H2008 H 0.47443 0.48271 0.41743 0.0
H2009 H 0.45181 0.46383 0.38173 0.0
C2010 C 0.49423 0.52153 0.48021 0.0
C2011 C 0.50702 0.54238 0.47852 0.0
C2012 C 0.48301 0.51056 0.45856 0.0
C2013 C 0.48421 0.52014 0.43464 0.0
C2014 C 0.49762 0.54088 0.4327 0.0
C2015 C 0.50889 0.55183 0.45429 0.0
C2016 C 0.44835 0.50609 0.3764 0.0
C2017 C 0.44458 0.48677 0.37047 0.0
C2018 C 0.46134 0.51691 0.3969 0.0
C2019 C 0.47091 0.50873 0.41221 0.0
C2020 C 0.46721 0.48944 0.40625 0.0
C2021 C 0.45428 0.47864 0.38564 0.0
H2022 H 0.67169 0.85222 0.27797 0.0
H2023 H 0.72919 0.85296 0.28589 0.0
H2024 H 0.66545 0.83356 0.23684 0.0
H2025 H 0.72305 0.83461 0.24573 0.0
H2026 H 0.72176 0.8249 0.15962 0.0
H2027 H 0.72371 0.84216 0.2 0.0
H2028 H 0.65941 0.80168 0.21478 0.0
H2029 H 0.6574 0.78438 0.17383 0.0
C2030 C 0.68278 0.84812 0.2713 0.0
C2031 C 0.70105 0.85435 0.28529 0.0
C2032 C 0.67928 0.83749 0.24763 0.0
C2033 C 0.694 0.83293 0.23739 0.0
C2034 C 0.71162 0.8383 0.25229 0.0
C2035 C 0.71506 0.84877 0.27563 0.0
C2036 C 0.70793 0.81971 0.17125 0.0
C2037 C 0.68945 0.80309 0.1633 0.0
C2038 C 0.70907 0.82957 0.19466 0.0
C2039 C 0.6918 0.82322 0.21115 0.0
C2040 C 0.67305 0.80709 0.20273 0.0
C2041 C 0.67192 0.79712 0.1792 0.0
H2042 H 0.24307 0.90478 0.30675 0.0
H2043 H 0.20118 0.92349 0.27831 0.0
H2044 H 0.26591 0.92167 0.26948 0.0
H2045 H 0.22398 0.94067 0.242 0.0
H2046 H 0.26232 0.96009 0.16834 0.0
H2047 H 0.23835 0.93819 0.2019 0.0
H2048 H 0.28875 0.95503 0.25492 0.0
H2049 H 0.31257 0.97628 0.22145 0.0
C2050 C 0.23866 0.91234 0.29252 0.0
C2051 C 0.22034 0.91285 0.29569 0.0
C2052 C 0.2518 0.92216 0.27123 0.0
C2053 C 0.24689 0.93268 0.25265 0.0
C2054 C 0.22824 0.93256 0.25554 0.0
C2055 C 0.21519 0.9228 0.27665 0.0
C2056 C 0.26827 0.95908 0.18713 0.0
C2057 C 0.28942 0.97012 0.19208 0.0
C2058 C 0.25452 0.94653 0.20645 0.0
C2059 C 0.26155 0.94477 0.23127 0.0
C2060 C 0.28272 0.95564 0.23601 0.0
C2061 C 0.29642 0.96807 0.21675 0.0
H2062 H 0.15655 0.40278 0.30617 0.0
H2063 H 0.208 0.45103 0.26569 0.0
H2064 H 0.13631 0.39475 0.26672 0.0
H2065 H 0.18764 0.44298 0.22597 0.0
H2066 H 0.10917 0.3755 0.18663 0.0
H2067 H 0.1332 0.38184 0.22226 0.0
H2068 H 0.158 0.44535 0.2118 0.0
H2069 H 0.13448 0.4391 0.17624 0.0
C2070 C 0.16365 0.41151 0.28872 0.0
C2071 C 0.18391 0.42755 0.28904 0.0
C2072 C 0.15205 0.40684 0.26607 0.0
C2073 C 0.16042 0.41814 0.2432 0.0
C2074 C 0.18073 0.4341 0.2434 0.0
C2075 C 0.19236 0.43878 0.26613 0.0
C2076 C 0.11996 0.39078 0.19179 0.0
C2077 C 0.11982 0.40678 0.17885 0.0
C2078 C 0.13363 0.39442 0.21221 0.0
C2079 C 0.14742 0.4141 0.21988 0.0
C2080 C 0.14775 0.43004 0.2062 0.0
C2081 C 0.13411 0.42642 0.18594 0.0
H2082 H 0.1879 0.43917 0.95114 0.0
H2083 H 0.1848 0.38629 0.98431 0.0
H2084 H 0.16555 0.43914 0.98625 0.0
H2085 H 0.16287 0.38648 0.01976 0.0
H2086 H 0.13443 0.40424 0.08861 0.0
H2087 H 0.16276 0.41084 0.05869 0.0
H2088 H 0.12595 0.40917 0.9934 0.0
H2089 H 0.09752 0.4021 0.02301 0.0
C2090 C 0.18294 0.42796 0.96643 0.0
C2091 C 0.1879 0.41269 0.96518 0.0
C2092 C 0.17015 0.42788 0.98634 0.0
C2093 C 0.16258 0.4128 1.00554 0.0
C2094 C 0.16869 0.39833 1.00524 0.0
C2095 C 0.18109 0.39816 0.98503 0.0
C2096 C 0.1325 0.40545 0.06788 0.0
C2097 C 0.11378 0.40252 0.05804 0.0
C2098 C 0.14865 0.40921 0.05087 0.0
C2099 C 0.14646 0.41064 0.02391 0.0
C2100 C 0.12801 0.40836 1.01418 0.0
C2101 C 0.11173 0.40413 0.03107 0.0
H2102 H 0.66856 0.83676 0.90785 0.0
H2103 H 0.7079 0.88638 0.95656 0.0
H2104 H 0.66295 0.81367 0.94426 0.0
H2105 H 0.70245 0.86361 0.99266 0.0
H2106 H 0.68332 0.81852 0.05939 0.0
H2107 H 0.68012 0.83947 0.02553 0.0
H2108 H 0.68387 0.80205 0.96603 0.0
H2109 H 0.68695 0.78134 0.9995 0.0
C2110 C 0.67548 0.8428 0.92652 0.0
C2111 C 0.68857 0.86349 0.92923 0.0
C2112 C 0.67252 0.82955 0.94738 0.0
C2113 C 0.68236 0.83664 0.97162 0.0
C2114 C 0.69441 0.85744 0.97461 0.0
C2115 C 0.69758 0.87057 0.95376 0.0
C2116 C 0.68309 0.81458 0.03911 0.0
C2117 C 0.68552 0.79821 0.03238 0.0
C2118 C 0.6814 0.82669 0.01959 0.0
C2119 C 0.68177 0.82261 0.99278 0.0
C2120 C 0.68327 0.80569 0.98626 0.0
C2121 C 0.68521 0.79383 1.00563 0.0
H2122 H 0.21289 0.96009 0.95257 0.0
H2123 H 0.21685 0.90648 0.96061 0.0
H2124 H 0.23318 0.97341 0.99185 0.0
H2125 H 0.23655 0.91936 1.00044 0.0
H2126 H 0.29042 0.95725 0.05427 0.0
H2127 H 0.26862 0.94254 1.01651 0.0
H2128 H 0.23418 0.97173 0.03723 0.0
H2129 H 0.25667 0.98713 0.07429 0.0
C2130 C 0.21785 0.95101 0.96297 0.0
C2131 C 0.2133 0.93225 0.95335 0.0
C2132 C 0.22946 0.95861 0.98565 0.0
C2133 C 0.23665 0.94755 0.99959 0.0
C2134 C 0.23174 0.92859 0.99012 0.0
C2135 C 0.22035 0.92111 0.96726 0.0
C2136 C 0.27808 0.96039 0.05088 0.0
C2137 C 0.27535 0.97342 0.0673 0.0
C2138 C 0.26545 0.95186 0.02921 0.0
C2139 C 0.24955 0.95593 0.02349 0.0
C2140 C 0.24648 0.96852 0.04049 0.0
C2141 C 0.25927 0.97724 0.06197 0.0
H2142 H 0.66671 0.89875 0.41358 0.0
H2143 H 0.72702 0.92004 0.44541 0.0
H2144 H 0.65723 0.91126 0.45234 0.0
H2145 H 0.71766 0.93205 0.48368 0.0
H2146 H 0.70554 0.97346 0.53337 0.0
H2147 H 0.71231 0.95871 0.4955 0.0
H2148 H 0.65052 0.90889 0.49957 0.0
H2149 H 0.64358 0.92391 0.5374 0.0
C2150 C 0.67781 0.90573 0.42896 0.0
C2151 C 0.6977 0.90845 0.4261 0.0
C2152 C 0.67242 0.91298 0.45124 0.0
C2153 C 0.68679 0.92314 0.47119 0.0
C2154 C 0.70628 0.92493 0.46863 0.0
C2155 C 0.71162 0.91781 0.44658 0.0
C2156 C 0.69335 0.95932 0.52639 0.0
C2157 C 0.67403 0.94993 0.53889 0.0
C2158 C 0.69727 0.95073 0.50455 0.0
C2159 C 0.68205 0.93238 0.49428 0.0
C2160 C 0.66264 0.92304 0.50661 0.0
C2161 C 0.65872 0.93163 0.52857 0.0
H2162 H 0.20441 0.88231 0.4697 0.0
H2163 H 0.16555 0.83632 0.41577 0.0
H2164 H 0.18374 0.86151 0.50605 0.0
H2165 H 0.1447 0.8155 0.45237 0.0
H2166 H 0.11558 0.77993 0.52951 0.0
H2167 H 0.14187 0.79671 0.49517 0.0
H2168 H 0.14844 0.85338 0.51783 0.0
H2169 H 0.12253 0.83687 0.55151 0.0
C2170 C 0.19173 0.86758 0.46558 0.0
C2171 C 0.18653 0.86116 0.43971 0.0
C2172 C 0.1798 0.85567 0.48647 0.0
C2173 C 0.16232 0.83698 0.48212 0.0
C2174 C 0.15807 0.8298 0.45643 0.0
C2175 C 0.17004 0.84177 0.43542 0.0
C2176 C 0.12291 0.79599 0.5273 0.0
C2177 C 0.11691 0.80704 0.54321 0.0
C2178 C 0.13784 0.80558 0.50757 0.0
C2179 C 0.14736 0.82642 0.50382 0.0
C2180 C 0.14171 0.83738 0.52034 0.0
C2181 C 0.12668 0.82785 0.53958 0.0
H2182 H 0.25608 0.45861 0.48625 0.0
H2183 H 0.24793 0.40411 0.45185 0.0
H2184 H 0.27289 0.45334 0.52331 0.0
H2185 H 0.26333 0.39817 0.48963 0.0
H2186 H 0.31322 0.40631 0.54814 0.0
H2187 H 0.29504 0.40941 0.51066 0.0
H2188 H 0.2658 0.43299 0.56078 0.0
H2189 H 0.28464 0.43068 0.59778 0.0
C2190 C 0.25775 0.44548 0.48655 0.0
C2191 C 0.25043 0.43177 0.466 0.0
C2192 C 0.26715 0.44228 0.50804 0.0
C2193 C 0.26928 0.42519 0.50964 0.0
C2194 C 0.26209 0.41155 0.48902 0.0
C2195 C 0.25292 0.41486 0.46743 0.0
C2196 C 0.30261 0.4118 0.55111 0.0
C2197 C 0.3004 0.41836 0.57574 0.0
C2198 C 0.2922 0.41362 0.52967 0.0
C2199 C 0.27917 0.42176 0.53261 0.0
C2200 C 0.27614 0.42722 0.55763 0.0
C2201 C 0.28676 0.42569 0.5789 0.0
H2202 H 0.26033 0.39559 0.8127 0.0
H2203 H 0.21048 0.38728 0.76348 0.0
H2204 H 0.27738 0.39019 0.77549 0.0
H2205 H 0.22653 0.38045 0.72645 0.0
H2206 H 0.27846 0.40852 0.66524 0.0
H2207 H 0.25415 0.40115 0.70025 0.0
H2208 H 0.28028 0.37043 0.74231 0.0
H2209 H 0.30553 0.3788 0.70693 0.0
C2210 C 0.25296 0.39227 0.79386 0.0
C2211 C 0.23454 0.39242 0.7905 0.0
C2212 C 0.26248 0.38885 0.77263 0.0
C2213 C 0.25345 0.38507 0.7478 0.0
C2214 C 0.23422 0.38386 0.74508 0.0
C2215 C 0.22503 0.38782 0.76614 0.0
C2216 C 0.27862 0.3997 0.68167 0.0
C2217 C 0.29391 0.39441 0.68371 0.0
C2218 C 0.26455 0.3953 0.70176 0.0
C2219 C 0.26535 0.3854 0.72439 0.0
C2220 C 0.27952 0.37844 0.72535 0.0
C2221 C 0.29378 0.38296 0.70505 0.0
H2222 H 0.66601 0.88984 0.77568 0.0
H2223 H 0.71752 0.94856 0.7884 0.0
H2224 H 0.65966 0.90134 0.7338 0.0
H2225 H 0.71089 0.96028 0.74769 0.0
H2226 H 0.70906 0.97345 0.66218 0.0
H2227 H 0.71419 0.96027 0.70305 0.0
H2228 H 0.64886 0.92024 0.70989 0.0
H2229 H 0.64391 0.93277 0.66864 0.0
C2230 C 0.67568 0.90529 0.76986 0.0
C2231 C 0.6923 0.9182 0.7855 0.0
C2232 C 0.67212 0.91198 0.74571 0.0
C2233 C 0.68497 0.93182 0.73665 0.0
C2234 C 0.70098 0.94478 0.7531 0.0
C2235 C 0.70465 0.93807 0.77684 0.0
C2236 C 0.69579 0.96173 0.67226 0.0
C2237 C 0.67608 0.95429 0.66175 0.0
C2238 C 0.69868 0.95421 0.69604 0.0
C2239 C 0.68193 0.93915 0.71042 0.0
C2240 C 0.66227 0.93156 0.69962 0.0
C2241 C 0.65942 0.93892 0.67577 0.0
H2242 H 0.12784 0.88271 0.76765 0.0
H2243 H 0.16969 0.85965 0.77041 0.0
H2244 H 0.11226 0.86327 0.72871 0.0
H2245 H 0.15415 0.84024 0.7313 0.0
H2246 H 0.107 0.79322 0.67465 0.0
H2247 H 0.12338 0.81206 0.71406 0.0
H2248 H 0.11971 0.86243 0.68354 0.0
H2249 H 0.1031 0.84366 0.64473 0.0
C2250 C 0.13387 0.87365 0.75986 0.0
C2251 C 0.15013 0.8729 0.77227 0.0
C2252 C 0.12492 0.86246 0.73744 0.0
C2253 C 0.13199 0.85021 0.72663 0.0
C2254 C 0.14811 0.84928 0.73917 0.0
C2255 C 0.15706 0.86047 0.76166 0.0
C2256 C 0.10982 0.80836 0.67628 0.0
C2257 C 0.10357 0.8168 0.65643 0.0
C2258 C 0.11927 0.81921 0.69889 0.0
C2259 C 0.12271 0.83875 0.70221 0.0
C2260 C 0.11693 0.8473 0.68204 0.0
C2261 C 0.1075 0.83651 0.65957 0.0
H2262 H 0.34484 0.19074 0.63992 0.0
H2263 H 0.40465 0.19675 0.64951 0.0
H2264 H 0.34083 0.17273 0.59882 0.0
H2265 H 0.40061 0.17874 0.60955 0.0
H2266 H 0.40036 0.16569 0.5246 0.0
H2267 H 0.40143 0.18349 0.56419 0.0
H2268 H 0.33682 0.14297 0.57717 0.0
H2269 H 0.3357 0.12548 0.53699 0.0
C2270 C 0.35696 0.18798 0.63355 0.0
C2271 C 0.37515 0.19544 0.64804 0.0
C2272 C 0.35473 0.17768 0.60991 0.0
C2273 C 0.37061 0.17458 0.60025 0.0
C2274 C 0.38828 0.18132 0.61556 0.0
C2275 C 0.39052 0.19157 0.63882 0.0
C2276 C 0.38632 0.16065 0.53571 0.0
C2277 C 0.36799 0.14404 0.52748 0.0
C2278 C 0.38693 0.17078 0.55869 0.0
C2279 C 0.36926 0.16459 0.57445 0.0
C2280 C 0.35075 0.14834 0.56572 0.0
C2281 C 0.35013 0.13823 0.54261 0.0
H2282 H 0.85764 0.24403 0.54951 0.0
H2283 H 0.89417 0.27679 0.61538 0.0
H2284 H 0.8837 0.26854 0.51983 0.0
H2285 H 0.91996 0.30137 0.58598 0.0
H2286 H 0.97307 0.32503 0.52903 0.0
H2287 H 0.94517 0.30197 0.5569 0.0
H2288 H 0.90142 0.30301 0.50351 0.0
H2289 H 0.92964 0.32604 0.4749 0.0
C2290 C 0.87106 0.25663 0.55765 0.0
C2291 C 0.87397 0.25832 0.58479 0.0
C2292 C 0.886 0.2707 0.54065 0.0
C2293 C 0.9041 0.28679 0.55047 0.0
C2294 C 0.90649 0.2889 0.57767 0.0
C2295 C 0.89168 0.27482 0.59457 0.0
C2296 C 0.95755 0.32049 0.5231 0.0
C2297 C 0.9537 0.32759 0.49968 0.0
C2298 C 0.94148 0.30728 0.53928 0.0
C2299 C 0.921 0.30079 0.53269 0.0
C2300 C 0.91702 0.30765 0.50913 0.0
C2301 C 0.9332 0.32091 0.49279 0.0
H2302 H 0.81976 0.65421 0.56373 0.0
H2303 H 0.84067 0.71569 0.5832 0.0
H2304 H 0.8053 0.65856 0.52308 0.0
H2305 H 0.82586 0.71986 0.54343 0.0
H2306 H 0.81132 0.7282 0.46256 0.0
H2307 H 0.82984 0.72143 0.4963 0.0
H2308 H 0.77648 0.66371 0.51085 0.0
H2309 H 0.75809 0.67029 0.47671 0.0
C2310 C 0.82134 0.66863 0.55927 0.0
C2311 C 0.83112 0.68452 0.5768 0.0
C2312 C 0.81299 0.6711 0.53612 0.0
C2313 C 0.81448 0.68957 0.53 0.0
C2314 C 0.82467 0.70552 0.54733 0.0
C2315 C 0.83288 0.70303 0.5704 0.0
C2316 C 0.80366 0.71392 0.47262 0.0
C2317 C 0.78316 0.69989 0.46722 0.0
C2318 C 0.81424 0.71008 0.49204 0.0
C2319 C 0.80451 0.69217 0.50653 0.0
C2320 C 0.78444 0.67761 0.49997 0.0
C2321 C 0.77387 0.68143 0.48048 0.0
H2322 H 0.7952 0.64958 0.2587 0.0
H2323 H 0.78282 0.69154 0.21834 0.0
H2324 H 0.78066 0.65484 0.29909 0.0
H2325 H 0.76831 0.69674 0.25816 0.0
H2326 H 0.72618 0.6868 0.32613 0.0
H2327 H 0.73775 0.67647 0.2881 0.0
H2328 H 0.79171 0.68597 0.32946 0.0
H2329 H 0.78015 0.6964 0.36803 0.0
C2330 C 0.78899 0.65959 0.25843 0.0
C2331 C 0.79001 0.67015 0.23559 0.0
C2332 C 0.78092 0.66275 0.28145 0.0
C2333 C 0.77342 0.67621 0.28166 0.0
C2334 C 0.77383 0.68617 0.2585 0.0
C2335 C 0.78215 0.68326 0.23577 0.0
C2336 C 0.74048 0.68664 0.32735 0.0
C2337 C 0.75236 0.69267 0.35013 0.0
C2338 C 0.74707 0.68069 0.30549 0.0
C2339 C 0.76561 0.68048 0.30587 0.0
C2340 C 0.77725 0.68587 0.3288 0.0
C2341 C 0.77073 0.69201 0.35074 0.0
H2342 H 0.34543 0.17498 0.27236 0.0
H2343 H 0.38831 0.22541 0.31738 0.0
H2344 H 0.3396 0.15293 0.31008 0.0
H2345 H 0.38266 0.20366 0.3548 0.0
H2346 H 0.36401 0.1604 0.4237 0.0
H2347 H 0.36062 0.18099 0.38943 0.0
H2348 H 0.36066 0.14103 0.33089 0.0
H2349 H 0.36395 0.12072 0.36468 0.0
C2350 C 0.35305 0.18146 0.29054 0.0
C2351 C 0.36723 0.202 0.29184 0.0
C2352 C 0.34996 0.16881 0.31213 0.0
C2353 C 0.3608 0.1764 0.33564 0.0
C2354 C 0.37387 0.19716 0.33732 0.0
C2355 C 0.37713 0.20969 0.31574 0.0
C2356 C 0.36297 0.15587 0.40355 0.0
C2357 C 0.36445 0.13892 0.39711 0.0
C2358 C 0.36113 0.16774 0.38382 0.0
C2359 C 0.36035 0.16277 0.35717 0.0
C2360 C 0.36093 0.14533 0.35102 0.0
C2361 C 0.36303 0.13372 0.37055 0.0
H2362 H 0.91246 0.28119 0.25451 0.0
H2363 H 0.86084 0.27956 0.29441 0.0
H2364 H 0.93389 0.29695 0.29211 0.0
H2365 H 0.8825 0.29564 0.33203 0.0
H2366 H 0.96229 0.30941 0.37344 0.0
H2367 H 0.93895 0.29072 0.33803 0.0
H2368 H 0.91168 0.32841 0.34293 0.0
H2369 H 0.93475 0.34687 0.37826 0.0
C2370 C 0.90554 0.28391 0.27138 0.0
C2371 C 0.88478 0.27895 0.27132 0.0
C2372 C 0.9179 0.29299 0.29301 0.0
C2373 C 0.90993 0.29752 0.31514 0.0
C2374 C 0.88919 0.29254 0.31518 0.0
C2375 C 0.87677 0.28335 0.29356 0.0
C2376 C 0.95121 0.31359 0.36705 0.0
C2377 C 0.95044 0.32967 0.37862 0.0
C2378 C 0.93791 0.30296 0.34669 0.0
C2379 C 0.92345 0.30808 0.33761 0.0
C2380 C 0.92244 0.3239 0.3496 0.0
C2381 C 0.93579 0.33458 0.36978 0.0
H2382 H 0.34447 0.22197 0.79722 0.0
H2383 H 0.3853 0.28324 0.77492 0.0
H2384 H 0.33688 0.2333 0.83846 0.0
H2385 H 0.37738 0.29455 0.81501 0.0
H2386 H 0.37945 0.3109 0.89923 0.0
H2387 H 0.38485 0.29732 0.85919 0.0
H2388 H 0.32183 0.24963 0.8618 0.0
H2389 H 0.31667 0.26287 0.90249 0.0
C2390 C 0.35143 0.23783 0.8008 0.0
C2391 C 0.36557 0.25166 0.78273 0.0
C2392 C 0.34717 0.2444 0.82454 0.0
C2393 C 0.35685 0.26496 0.8307 0.0
C2394 C 0.3701 0.27863 0.81177 0.0
C2395 C 0.37447 0.27211 0.78843 0.0
C2396 C 0.36674 0.29744 0.89145 0.0
C2397 C 0.3476 0.28815 0.90434 0.0
C2398 C 0.36976 0.28967 0.86815 0.0
C2399 C 0.3537 0.27241 0.85662 0.0
C2400 C 0.33467 0.26282 0.86988 0.0
C2401 C 0.33169 0.27053 0.89332 0.0
H2402 H 0.80035 0.21692 0.76807 0.0
H2403 H 0.8056 0.16552 0.74722 0.0
H2404 H 0.78458 0.20104 0.80955 0.0
H2405 H 0.78951 0.14942 0.78857 0.0
H2406 H 0.7747 0.13379 0.87607 0.0
H2407 H 0.79334 0.15033 0.83587 0.0
H2408 H 0.75244 0.17385 0.82383 0.0
H2409 H 0.73434 0.15795 0.86374 0.0
C2410 C 0.79802 0.20218 0.77231 0.0
C2411 C 0.80411 0.19245 0.75432 0.0
C2412 C 0.78898 0.19305 0.79607 0.0
C2413 C 0.78561 0.17386 0.80233 0.0
C2414 C 0.79209 0.16429 0.78454 0.0
C2415 C 0.80127 0.1735 0.76081 0.0
C2416 C 0.76975 0.14252 0.86481 0.0
C2417 C 0.75313 0.14466 0.87334 0.0
C2418 C 0.78037 0.15194 0.84175 0.0
C2419 C 0.77453 0.16363 0.82678 0.0
C2420 C 0.75771 0.16542 0.83516 0.0
C2421 C 0.74723 0.15614 0.85809 0.0
H2422 H 0.91923 0.72048 0.73769 0.0
H2423 H 0.8801 0.66283 0.77334 0.0
H2424 H 0.94213 0.73008 0.77481 0.0
H2425 H 0.90308 0.67245 0.81066 0.0
H2426 H 0.96046 0.68872 0.85801 0.0
H2427 H 0.93761 0.67952 0.82107 0.0
H2428 H 0.94317 0.73798 0.82113 0.0
H2429 H 0.96652 0.74747 0.85805 0.0
C2430 C 0.91539 0.70991 0.75359 0.0
C2431 C 0.89774 0.69092 0.75266 0.0
C2432 C 0.92853 0.71544 0.77488 0.0
C2433 C 0.92437 0.70209 0.79574 0.0
C2434 C 0.90683 0.68301 0.79474 0.0
C2435 C 0.89367 0.67747 0.77338 0.0
C2436 C 0.95689 0.69971 0.85022 0.0
C2437 C 0.96536 0.71889 0.8611 0.0
C2438 C 0.94364 0.69433 0.82911 0.0
C2439 C 0.93847 0.70795 0.81827 0.0
C2440 C 0.94701 0.72719 0.82894 0.0
C2441 C 0.96032 0.73261 0.85016 0.0
H2442 H 0.8606 0.66206 0.05232 0.0
H2443 H 0.89487 0.72257 0.08042 0.0
H2444 H 0.88706 0.66974 0.01932 0.0
H2445 H 0.92164 0.72987 0.04857 0.0
H2446 H 0.95626 0.74349 0.9722 0.0
H2447 H 0.92846 0.73503 1.00307 0.0
H2448 H 0.92197 0.67667 1.01467 0.0
H2449 H 0.94947 0.68491 0.98309 0.0
C2450 C 0.87371 0.67698 0.05151 0.0
C2451 C 0.87553 0.69164 0.06919 0.0
C2452 C 0.88903 0.68132 0.03277 0.0
C2453 C 0.90654 0.70043 0.03126 0.0
C2454 C 0.90828 0.71507 0.04888 0.0
C2455 C 0.89299 0.71077 0.06748 0.0
C2456 C 0.94894 0.72883 0.98128 0.0
C2457 C 0.95521 0.71492 0.97515 0.0
C2458 C 0.93301 0.724 0.99913 0.0
C2459 C 0.923 0.70519 1.01152 0.0
C2460 C 0.92915 0.6912 1.00527 0.0
C2461 C 0.94503 0.69599 0.98727 0.0
H2462 H 0.40352 0.26427 0.127 0.0
H2463 H 0.34155 0.24226 0.15475 0.0
H2464 H 0.39641 0.27754 0.08818 0.0
H2465 H 0.3344 0.25609 0.11541 0.0
H2466 H 0.32354 0.26614 0.02932 0.0
H2467 H 0.32983 0.25268 0.06889 0.0
H2468 H 0.39106 0.30341 0.07213 0.0
H2469 H 0.38488 0.31679 0.03202 0.0
C2470 C 0.38828 0.26228 0.12496 0.0
C2471 C 0.37313 0.25211 0.14435 0.0
C2472 C 0.38426 0.27014 0.10254 0.0
C2473 C 0.36489 0.26822 0.09844 0.0
C2474 C 0.34952 0.25782 0.11765 0.0
C2475 C 0.35359 0.24989 0.14032 0.0
C2476 C 0.33846 0.27448 0.03826 0.0
C2477 C 0.35375 0.29262 0.02703 0.0
C2478 C 0.34197 0.26676 0.06131 0.0
C2479 C 0.36094 0.27683 0.07407 0.0
C2480 C 0.3763 0.29497 0.06284 0.0
C2481 C 0.37277 0.30273 0.03973 0.0
H2482 H 0.84253 0.21275 0.08436 0.0
H2483 H 0.79793 0.23206 0.0935 0.0
H2484 H 0.82283 0.19132 0.04843 0.0
H2485 H 0.77804 0.21046 0.05791 0.0
H2486 H 0.75569 0.18339 0.97879 0.0
H2487 H 0.77771 0.20609 1.01202 0.0
H2488 H 0.79146 0.16112 0.03976 0.0
H2489 H 0.76979 0.13848 1.00586 0.0
C2490 C 0.82847 0.21238 0.07875 0.0
C2491 C 0.82182 0.22414 0.09184 0.0
C2492 C 0.81712 0.20002 0.05818 0.0
C2493 C 0.79876 0.19905 0.05022 0.0
C2494 C 0.79226 0.21103 0.06314 0.0
C2495 C 0.80368 0.22346 0.08361 0.0
C2496 C 0.76348 0.17831 0.99183 0.0
C2497 C 0.76086 0.15901 0.98962 0.0
C2498 C 0.77604 0.19135 1.01108 0.0
C2499 C 0.78626 0.18545 0.02882 0.0
C2500 C 0.78401 0.16629 0.02629 0.0
C2501 C 0.77151 0.15325 1.00688 0.0
loop_
_geom_bond_atom_site_label_1
_geom_bond_atom_site_label_2
_geom_bond_distance
_geom_bond_site_symmetry_2
_ccdc_geom_bond_type
Cu0 N1 1.999 . S
Cu0 O6 1.974 1_554 S
Cu0 N11 1.985 1_554 S
Cu0 O20 1.959 . S
N1 Cu0 1.999 . S
N1 C3 1.263 . S
N1 C5 1.389 . S
N2 C3 1.358 . S
N2 C4 1.400 . S
C3 N1 1.263 . S
C3 N2 1.358 . S
C3 H9 0.930 . S
C4 N2 1.400 . S
C4 C5 1.351 . S
C4 H21 0.930 . S
C5 N1 1.389 . S
C5 C4 1.351 . S
C5 H10 0.930 . S
O6 Cu0 1.974 1_556 S
O6 C16 1.282 . S
C7 O8 1.261 . S
C7 O20 1.251 . S
O8 C7 1.261 . S
H9 C3 0.930 . S
H10 C5 0.930 . S
N11 Cu0 1.985 1_556 S
N11 C13 1.335 . S
N11 C14 1.390 . S
N12 C13 1.345 . S
N12 C15 1.336 . S
C13 N11 1.335 . S
C13 N12 1.345 . S
C13 H18 0.930 . S
C14 N11 1.390 . S
C14 C15 1.346 . S
C14 H19 0.930 . S
C15 N12 1.336 . S
C15 C14 1.346 . S
C15 H22 0.929 . S
C16 O6 1.282 . S
C16 O17 1.216 . S
O17 C16 1.216 . S
H18 C13 0.930 . S
H19 C14 0.930 . S
O20 Cu0 1.959 . S
O20 C7 1.251 . S
H21 C4 0.930 . S
H22 C15 0.929 . S
Cu23 N24 1.999 1_554 S
Cu23 O29 1.974 . S
Cu23 N34 1.985 . S
Cu23 O43 1.959 1_554 S
N24 Cu23 1.999 1_556 S
N24 C26 1.263 . S
N24 C28 1.389 . S
N25 C26 1.358 . S
N25 C27 1.400 . S
C26 N24 1.263 . S
C26 N25 1.358 . S
C26 H32 0.930 . S
C27 N25 1.400 . S
C27 C28 1.351 . S
C27 H44 0.930 . S
C28 N24 1.389 . S
C28 C27 1.351 . S
C28 H33 0.930 . S
O29 Cu23 1.974 . S
O29 C39 1.282 . S
C30 O31 1.261 1_556 S
C30 O43 1.251 . S
O31 C30 1.261 1_554 S
H32 C26 0.930 . S
H33 C28 0.930 . S
N34 Cu23 1.985 . S
N34 C36 1.335 . S
N34 C37 1.390 . S
N35 C36 1.345 . S
N35 C38 1.336 . S
C36 N34 1.335 . S
C36 N35 1.345 . S
C36 H41 0.930 . S
C37 N34 1.390 . S
C37 C38 1.346 . S
C37 H42 0.930 . S
C38 N35 1.336 . S
C38 C37 1.346 . S
C38 H45 0.929 . S
C39 O29 1.282 . S
C39 O40 1.216 . S
O40 C39 1.216 . S
H41 C36 0.930 . S
H42 C37 0.930 . S
O43 Cu23 1.959 1_556 S
O43 C30 1.251 . S
H44 C27 0.930 . S
H45 C38 0.929 . S
Cu46 N47 1.999 1_554 S
Cu46 O52 1.974 . S
Cu46 N57 1.985 1_565 S
Cu46 O66 1.971 1_565 S
N47 Cu46 1.999 1_556 S
N47 C49 1.263 . S
N47 C51 1.389 . S
N48 C49 1.358 . S
N48 C50 1.400 . S
C49 N47 1.263 . S
C49 N48 1.358 . S
C49 H55 0.930 1_565 S
C50 N48 1.400 . S
C50 C51 1.351 . S
C50 H67 0.930 . S
C51 N47 1.389 . S
C51 C50 1.351 . S
C51 H56 0.930 . S
O52 Cu46 1.974 . S
O52 C62 1.282 1_565 S
C53 O54 1.261 . S
C53 O66 1.278 . S
O54 C53 1.261 . S
H55 C49 0.930 1_545 S
H56 C51 0.930 . S
N57 Cu46 1.985 1_545 S
N57 C59 1.321 1_545 S
N57 C60 1.402 . S
N58 C59 1.345 1_545 S
N58 C61 1.336 . S
C59 N57 1.321 1_565 S
C59 N58 1.345 1_565 S
C59 H64 0.930 . S
C60 N57 1.402 . S
C60 C61 1.346 . S
C60 H65 0.930 . S
C61 N58 1.336 . S
C61 C60 1.346 . S
C61 H68 0.929 . S
C62 O52 1.282 1_545 S
C62 O63 1.216 . S
O63 C62 1.216 . S
H64 C59 0.930 . S
H65 C60 0.930 . S
O66 Cu46 1.971 1_545 S
O66 C53 1.278 . S
H67 C50 0.930 . S
H68 C61 0.929 . S
Cu69 N70 1.999 . S
Cu69 O75 1.974 . S
Cu69 N80 1.985 . S
Cu69 O89 1.959 . S
N70 Cu69 1.999 . S
N70 C72 1.263 . S
N70 C74 1.389 . S
N71 C72 1.358 . S
N71 C73 1.400 . S
C72 N70 1.263 . S
C72 N71 1.358 . S
C72 H78 0.930 . S
C73 N71 1.400 . S
C73 C74 1.351 . S
C73 H90 0.930 . S
C74 N70 1.389 . S
C74 C73 1.351 . S
C74 H79 0.930 . S
O75 Cu69 1.974 . S
O75 C85 1.282 . S
C76 O77 1.261 . S
C76 O89 1.251 . S
O77 C76 1.261 . S
H78 C72 0.930 . S
H79 C74 0.930 . S
N80 Cu69 1.985 . S
N80 C82 1.335 . S
N80 C83 1.390 . S
N81 C82 1.345 . S
N81 C84 1.336 . S
C82 N80 1.335 . S
C82 N81 1.345 . S
C82 H87 0.930 . S
C83 N80 1.390 . S
C83 C84 1.346 . S
C83 H88 0.930 . S
C84 N81 1.336 . S
C84 C83 1.346 . S
C84 H91 0.929 . S
C85 O75 1.282 . S
C85 O86 1.216 1_545 S
O86 C85 1.216 1_565 S
H87 C82 0.930 . S
H88 C83 0.930 . S
O89 Cu69 1.959 . S
O89 C76 1.251 . S
H90 C73 0.930 . S
H91 C84 0.929 . S
Cu92 N93 1.999 . S
Cu92 O98 1.974 . S
Cu92 N103 1.985 . S
Cu92 O112 1.959 . S
N93 Cu92 1.999 . S
N93 C95 1.263 . S
N93 C97 1.389 . S
N94 C95 1.358 . S
N94 C96 1.400 . S
C95 N93 1.263 . S
C95 N94 1.358 . S
C95 H101 0.930 . S
C96 N94 1.400 . S
C96 C97 1.351 . S
C96 H113 0.930 . S
C97 N93 1.389 . S
C97 C96 1.351 . S
C97 H102 0.930 . S
O98 Cu92 1.974 . S
O98 C108 1.282 . S
C99 O100 1.261 . S
C99 O112 1.251 . S
O100 C99 1.261 . S
H101 C95 0.930 . S
H102 C97 0.930 . S
N103 Cu92 1.985 . S
N103 C105 1.335 . S
N103 C106 1.390 . S
N104 C105 1.345 . S
N104 C107 1.336 . S
C105 N103 1.335 . S
C105 N104 1.345 . S
C105 H110 0.930 . S
C106 N103 1.390 . S
C106 C107 1.346 . S
C106 H111 0.930 . S
C107 N104 1.336 . S
C107 C106 1.346 . S
C107 H114 0.929 . S
C108 O98 1.282 . S
C108 O109 1.216 . S
O109 C108 1.216 . S
H110 C105 0.930 . S
H111 C106 0.930 . S
O112 Cu92 1.959 . S
O112 C99 1.251 . S
H113 C96 0.930 . S
H114 C107 0.929 . S
Cu115 N116 1.999 . S
Cu115 O121 1.974 . S
Cu115 N126 1.985 . S
Cu115 O135 1.959 . S
N116 Cu115 1.999 . S
N116 C118 1.263 . S
N116 C120 1.389 . S
N117 C118 1.358 . S
N117 C119 1.400 . S
C118 N116 1.263 . S
C118 N117 1.358 . S
C118 H124 0.930 . S
C119 N117 1.400 . S
C119 C120 1.351 . S
C119 H136 0.930 . S
C120 N116 1.389 . S
C120 C119 1.351 . S
C120 H125 0.930 . S
O121 Cu115 1.974 . S
O121 C131 1.282 . S
C122 O123 1.261 . S
C122 O135 1.251 . S
O123 C122 1.261 . S
H124 C118 0.930 . S
H125 C120 0.930 . S
N126 Cu115 1.985 . S
N126 C128 1.335 . S
N126 C129 1.390 . S
N127 C128 1.345 . S
N127 C130 1.336 . S
C128 N126 1.335 . S
C128 N127 1.345 . S
C128 H133 0.930 . S
C129 N126 1.390 . S
C129 C130 1.346 . S
C129 H134 0.930 . S
C130 N127 1.336 . S
C130 C129 1.346 . S
C130 H137 0.929 . S
C131 O121 1.282 . S
C131 O132 1.216 . S
O132 C131 1.216 . S
H133 C128 0.930 . S
H134 C129 0.930 . S
O135 Cu115 1.959 . S
O135 C122 1.251 . S
H136 C119 0.930 . S
H137 C130 0.929 . S
Cu138 N139 1.999 . S
Cu138 O144 1.974 . S
Cu138 N149 1.985 . S
Cu138 O158 1.959 . S
N139 Cu138 1.999 . S
N139 C141 1.263 . S
N139 C143 1.389 . S
N140 C141 1.358 . S
N140 C142 1.400 . S
C141 N139 1.263 . S
C141 N140 1.358 . S
C141 H147 0.930 . S
C142 N140 1.400 . S
C142 C143 1.351 . S
C142 H159 0.930 . S
C143 N139 1.389 . S
C143 C142 1.351 . S
C143 H148 0.930 . S
O144 Cu138 1.974 . S
O144 C154 1.282 . S
C145 O146 1.261 . S
C145 O158 1.251 . S
O146 C145 1.261 . S
H147 C141 0.930 . S
H148 C143 0.930 . S
N149 Cu138 1.985 . S
N149 C151 1.335 . S
N149 C152 1.390 . S
N150 C151 1.345 . S
N150 C153 1.336 . S
C151 N149 1.335 . S
C151 N150 1.345 . S
C151 H156 0.930 . S
C152 N149 1.390 . S
C152 C153 1.346 . S
C152 H157 0.930 . S
C153 N150 1.336 . S
C153 C152 1.346 . S
C153 H160 0.929 . S
C154 O144 1.282 . S
C154 O155 1.216 . S
O155 C154 1.216 . S
H156 C151 0.930 . S
H157 C152 0.930 . S
O158 Cu138 1.959 . S
O158 C145 1.251 . S
H159 C142 0.930 . S
H160 C153 0.929 . S
Cu161 N162 1.999 . S
Cu161 O167 1.974 . S
Cu161 N172 1.985 . S
Cu161 O181 1.959 . S
N162 Cu161 1.999 . S
N162 C164 1.263 . S
N162 C166 1.389 . S
N163 C164 1.358 . S
N163 C165 1.400 . S
C164 N162 1.263 . S
C164 N163 1.358 . S
C164 H170 0.930 . S
C165 N163 1.400 . S
C165 C166 1.351 . S
C165 H182 0.930 . S
C166 N162 1.389 . S
C166 C165 1.351 . S
C166 H171 0.930 . S
O167 Cu161 1.974 . S
O167 C177 1.282 . S
C168 O169 1.261 . S
C168 O181 1.251 . S
O169 C168 1.261 . S
H170 C164 0.930 . S
H171 C166 0.930 . S
N172 Cu161 1.985 . S
N172 C174 1.335 . S
N172 C175 1.390 . S
N173 C174 1.345 . S
N173 C176 1.336 . S
C174 N172 1.335 . S
C174 N173 1.345 . S
C174 H179 0.930 . S
C175 N172 1.390 . S
C175 C176 1.346 . S
C175 H180 0.930 . S
C176 N173 1.336 . S
C176 C175 1.346 . S
C176 H183 0.929 . S
C177 O167 1.282 . S
C177 O178 1.216 . S
O178 C177 1.216 . S
H179 C174 0.930 . S
H180 C175 0.930 . S
O181 Cu161 1.959 . S
O181 C168 1.251 . S
H182 C165 0.930 . S
H183 C176 0.929 . S
Cu184 N185 1.999 . S
Cu184 O190 1.974 . S
Cu184 N195 1.985 . S
Cu184 O204 1.959 . S
N185 Cu184 1.999 . S
N185 C187 1.263 . S
N185 C189 1.389 . S
N186 C187 1.358 . S
N186 C188 1.400 . S
C187 N185 1.263 . S
C187 N186 1.358 . S
C187 H193 0.930 . S
C188 N186 1.400 . S
C188 C189 1.351 . S
C188 H205 0.930 . S
C189 N185 1.389 . S
C189 C188 1.351 . S
C189 H194 0.930 . S
O190 Cu184 1.974 . S
O190 C200 1.282 . S
C191 O192 1.261 . S
C191 O204 1.251 . S
O192 C191 1.261 . S
H193 C187 0.930 . S
H194 C189 0.930 . S
N195 Cu184 1.985 . S
N195 C197 1.335 . S
N195 C198 1.390 . S
N196 C197 1.345 . S
N196 C199 1.336 . S
C197 N195 1.335 . S
C197 N196 1.345 . S
C197 H202 0.930 . S
C198 N195 1.390 . S
C198 C199 1.346 . S
C198 H203 0.930 . S
C199 N196 1.336 . S
C199 C198 1.346 . S
C199 H206 0.929 . S
C200 O190 1.282 . S
C200 O201 1.216 . S
O201 C200 1.216 . S
H202 C197 0.930 . S
H203 C198 0.930 . S
O204 Cu184 1.959 . S
O204 C191 1.251 . S
H205 C188 0.930 . S
H206 C199 0.929 . S
Cu207 N208 1.999 . S
Cu207 O213 1.974 . S
Cu207 N218 1.985 . S
Cu207 O227 1.959 . S
N208 Cu207 1.999 . S
N208 C210 1.263 . S
N208 C212 1.389 . S
N209 C210 1.358 . S
N209 C211 1.400 . S
C210 N208 1.263 . S
C210 N209 1.358 . S
C210 H216 0.930 . S
C211 N209 1.400 . S
C211 C212 1.351 . S
C211 H228 0.930 . S
C212 N208 1.389 . S
C212 C211 1.351 . S
C212 H217 0.930 . S
O213 Cu207 1.974 . S
O213 C223 1.282 . S
C214 O215 1.261 . S
C214 O227 1.251 . S
O215 C214 1.261 . S
H216 C210 0.930 . S
H217 C212 0.930 . S
N218 Cu207 1.985 . S
N218 C220 1.335 . S
N218 C221 1.390 . S
N219 C220 1.345 . S
N219 C222 1.336 . S
C220 N218 1.335 . S
C220 N219 1.345 . S
C220 H225 0.930 . S
C221 N218 1.390 . S
C221 C222 1.346 . S
C221 H226 0.930 . S
C222 N219 1.336 . S
C222 C221 1.346 . S
C222 H229 0.929 . S
C223 O213 1.282 . S
C223 O224 1.216 . S
O224 C223 1.216 . S
H225 C220 0.930 . S
H226 C221 0.930 . S
O227 Cu207 1.959 . S
O227 C214 1.251 . S
H228 C211 0.930 . S
H229 C222 0.929 . S
Cu230 N231 1.999 . S
Cu230 O236 1.974 . S
Cu230 N241 1.985 . S
Cu230 O250 1.959 . S
N231 Cu230 1.999 . S
N231 C233 1.263 . S
N231 C235 1.389 . S
N232 C233 1.358 . S
N232 C234 1.400 . S
C233 N231 1.263 . S
C233 N232 1.358 . S
C233 H239 0.930 . S
C234 N232 1.400 . S
C234 C235 1.351 . S
C234 H251 0.930 . S
C235 N231 1.389 . S
C235 C234 1.351 . S
C235 H240 0.930 . S
O236 Cu230 1.974 . S
O236 C246 1.282 . S
C237 O238 1.261 . S
C237 O250 1.251 . S
O238 C237 1.261 . S
H239 C233 0.930 . S
H240 C235 0.930 . S
N241 Cu230 1.985 . S
N241 C243 1.335 . S
N241 C244 1.390 . S
N242 C243 1.345 . S
N242 C245 1.336 . S
C243 N241 1.335 . S
C243 N242 1.345 . S
C243 H248 0.930 . S
C244 N241 1.390 . S
C244 C245 1.346 . S
C244 H249 0.930 . S
C245 N242 1.336 . S
C245 C244 1.346 . S
C245 H252 0.929 . S
C246 O236 1.282 . S
C246 O247 1.216 . S
O247 C246 1.216 . S
H248 C243 0.930 . S
H249 C244 0.930 . S
O250 Cu230 1.959 . S
O250 C237 1.251 . S
H251 C234 0.930 . S
H252 C245 0.929 . S
Cu253 N254 1.999 . S
Cu253 O259 1.974 . S
Cu253 N264 1.985 . S
Cu253 O273 1.959 . S
N254 Cu253 1.999 . S
N254 C256 1.263 . S
N254 C258 1.389 . S
N255 C256 1.358 . S
N255 C257 1.400 . S
C256 N254 1.263 . S
C256 N255 1.358 . S
C256 H262 0.930 . S
C257 N255 1.400 . S
C257 C258 1.351 . S
C257 H274 0.930 . S
C258 N254 1.389 . S
C258 C257 1.351 . S
C258 H263 0.930 . S
O259 Cu253 1.974 . S
O259 C269 1.282 . S
C260 O261 1.261 . S
C260 O273 1.251 . S
O261 C260 1.261 . S
H262 C256 0.930 . S
H263 C258 0.930 . S
N264 Cu253 1.985 . S
N264 C266 1.335 . S
N264 C267 1.390 . S
N265 C266 1.345 . S
N265 C268 1.336 . S
C266 N264 1.335 . S
C266 N265 1.345 . S
C266 H271 0.930 . S
C267 N264 1.390 . S
C267 C268 1.346 . S
C267 H272 0.930 . S
C268 N265 1.336 . S
C268 C267 1.346 . S
C268 H275 0.929 . S
C269 O259 1.282 . S
C269 O270 1.216 . S
O270 C269 1.216 . S
H271 C266 0.930 . S
H272 C267 0.930 . S
O273 Cu253 1.959 . S
O273 C260 1.251 . S
H274 C257 0.930 . S
H275 C268 0.929 . S
Cu276 N277 1.999 . S
Cu276 O282 1.974 . S
Cu276 N287 1.985 . S
Cu276 O296 1.959 . S
N277 Cu276 1.999 . S
N277 C279 1.263 . S
N277 C281 1.389 . S
N278 C279 1.358 . S
N278 C280 1.400 . S
C279 N277 1.263 . S
C279 N278 1.358 . S
C279 H285 0.930 . S
C280 N278 1.400 . S
C280 C281 1.351 . S
C280 H297 0.930 . S
C281 N277 1.389 . S
C281 C280 1.351 . S
C281 H286 0.930 . S
O282 Cu276 1.974 . S
O282 C292 1.282 . S
C283 O284 1.261 . S
C283 O296 1.251 . S
O284 C283 1.261 . S
H285 C279 0.930 . S
H286 C281 0.930 . S
N287 Cu276 1.985 . S
N287 C289 1.335 . S
N287 C290 1.390 . S
N288 C289 1.345 . S
N288 C291 1.336 . S
C289 N287 1.335 . S
C289 N288 1.345 . S
C289 H294 0.930 . S
C290 N287 1.390 . S
C290 C291 1.346 . S
C290 H295 0.930 . S
C291 N288 1.336 . S
C291 C290 1.346 . S
C291 H298 0.929 . S
C292 O282 1.282 . S
C292 O293 1.216 . S
O293 C292 1.216 . S
H294 C289 0.930 . S
H295 C290 0.930 . S
O296 Cu276 1.959 . S
O296 C283 1.251 . S
H297 C280 0.930 . S
H298 C291 0.929 . S
Cu299 N300 1.999 . S
Cu299 O305 1.974 . S
Cu299 N310 1.985 . S
Cu299 O319 1.959 . S
N300 Cu299 1.999 . S
N300 C302 1.263 . S
N300 C304 1.389 . S
N301 C302 1.358 . S
N301 C303 1.400 . S
C302 N300 1.263 . S
C302 N301 1.358 . S
C302 H308 0.930 . S
C303 N301 1.400 . S
C303 C304 1.351 . S
C303 H320 0.930 . S
C304 N300 1.389 . S
C304 C303 1.351 . S
C304 H309 0.930 . S
O305 Cu299 1.974 . S
O305 C315 1.282 . S
C306 O307 1.261 . S
C306 O319 1.251 . S
O307 C306 1.261 . S
H308 C302 0.930 . S
H309 C304 0.930 . S
N310 Cu299 1.985 . S
N310 C312 1.335 . S
N310 C313 1.390 . S
N311 C312 1.345 . S
N311 C314 1.336 . S
C312 N310 1.335 . S
C312 N311 1.345 . S
C312 H317 0.930 . S
C313 N310 1.390 . S
C313 C314 1.346 . S
C313 H318 0.930 . S
C314 N311 1.336 . S
C314 C313 1.346 . S
C314 H321 0.929 . S
C315 O305 1.282 . S
C315 O316 1.216 . S
O316 C315 1.216 . S
H317 C312 0.930 . S
H318 C313 0.930 . S
O319 Cu299 1.959 . S
O319 C306 1.251 . S
H320 C303 0.930 . S
H321 C314 0.929 . S
Cu322 N323 1.999 . S
Cu322 O328 1.974 . S
Cu322 N333 1.985 . S
Cu322 O342 1.959 . S
N323 Cu322 1.999 . S
N323 C325 1.263 . S
N323 C327 1.389 . S
N324 C325 1.358 . S
N324 C326 1.400 . S
C325 N323 1.263 . S
C325 N324 1.358 . S
C325 H331 0.930 . S
C326 N324 1.400 . S
C326 C327 1.351 . S
C326 H343 0.930 . S
C327 N323 1.389 . S
C327 C326 1.351 . S
C327 H332 0.930 . S
O328 Cu322 1.974 . S
O328 C338 1.282 . S
C329 O330 1.261 . S
C329 O342 1.251 . S
O330 C329 1.261 . S
H331 C325 0.930 . S
H332 C327 0.930 . S
N333 Cu322 1.985 . S
N333 C335 1.335 . S
N333 C336 1.390 . S
N334 C335 1.345 . S
N334 C337 1.336 . S
C335 N333 1.335 . S
C335 N334 1.345 . S
C335 H340 0.930 . S
C336 N333 1.390 . S
C336 C337 1.346 . S
C336 H341 0.930 . S
C337 N334 1.336 . S
C337 C336 1.346 . S
C337 H344 0.929 . S
C338 O328 1.282 . S
C338 O339 1.216 . S
O339 C338 1.216 . S
H340 C335 0.930 . S
H341 C336 0.930 . S
O342 Cu322 1.959 . S
O342 C329 1.251 . S
H343 C326 0.930 . S
H344 C337 0.929 . S
Cu345 N346 1.999 . S
Cu345 O351 1.974 . S
Cu345 N356 1.985 . S
Cu345 O365 1.959 . S
N346 Cu345 1.999 . S
N346 C348 1.263 . S
N346 C350 1.389 . S
N347 C348 1.358 . S
N347 C349 1.400 . S
C348 N346 1.263 . S
C348 N347 1.358 . S
C348 H354 0.930 . S
C349 N347 1.400 . S
C349 C350 1.351 . S
C349 H366 0.930 . S
C350 N346 1.389 . S
C350 C349 1.351 . S
C350 H355 0.930 . S
O351 Cu345 1.974 . S
O351 C361 1.282 . S
C352 O353 1.261 . S
C352 O365 1.251 . S
O353 C352 1.261 . S
H354 C348 0.930 . S
H355 C350 0.930 . S
N356 Cu345 1.985 . S
N356 C358 1.335 . S
N356 C359 1.390 . S
N357 C358 1.345 . S
N357 C360 1.336 . S
C358 N356 1.335 . S
C358 N357 1.345 . S
C358 H363 0.930 . S
C359 N356 1.390 . S
C359 C360 1.346 . S
C359 H364 0.930 . S
C360 N357 1.336 . S
C360 C359 1.346 . S
C360 H367 0.929 . S
C361 O351 1.282 . S
C361 O362 1.216 . S
O362 C361 1.216 . S
H363 C358 0.930 . S
H364 C359 0.930 . S
O365 Cu345 1.959 . S
O365 C352 1.251 . S
H366 C349 0.930 . S
H367 C360 0.929 . S
Cu368 N369 1.999 . S
Cu368 O374 1.974 . S
Cu368 N379 1.985 . S
Cu368 O388 1.959 . S
N369 Cu368 1.999 . S
N369 C371 1.263 . S
N369 C373 1.389 . S
N370 C371 1.358 . S
N370 C372 1.400 . S
C371 N369 1.263 . S
C371 N370 1.358 . S
C371 H377 0.930 . S
C372 N370 1.400 . S
C372 C373 1.351 . S
C372 H389 0.930 . S
C373 N369 1.389 . S
C373 C372 1.351 . S
C373 H378 0.930 . S
O374 Cu368 1.974 . S
O374 C384 1.282 . S
C375 O376 1.261 . S
C375 O388 1.251 . S
O376 C375 1.261 . S
H377 C371 0.930 . S
H378 C373 0.930 . S
N379 Cu368 1.985 . S
N379 C381 1.335 . S
N379 C382 1.390 . S
N380 C381 1.345 . S
N380 C383 1.336 . S
C381 N379 1.335 . S
C381 N380 1.345 . S
C381 H386 0.930 . S
C382 N379 1.390 . S
C382 C383 1.346 . S
C382 H387 0.930 . S
C383 N380 1.336 . S
C383 C382 1.346 . S
C383 H390 0.929 . S
C384 O374 1.282 . S
C384 O385 1.216 . S
O385 C384 1.216 . S
H386 C381 0.930 . S
H387 C382 0.930 . S
O388 Cu368 1.959 . S
O388 C375 1.251 . S
H389 C372 0.930 . S
H390 C383 0.929 . S
Cu391 N392 1.999 . S
Cu391 O397 1.974 . S
Cu391 N402 1.985 . S
Cu391 O411 1.959 . S
N392 Cu391 1.999 . S
N392 C394 1.263 . S
N392 C396 1.389 . S
N393 C394 1.358 . S
N393 C395 1.400 . S
C394 N392 1.263 . S
C394 N393 1.358 . S
C394 H400 0.930 . S
C395 N393 1.400 . S
C395 C396 1.351 . S
C395 H412 0.930 . S
C396 N392 1.389 . S
C396 C395 1.351 . S
C396 H401 0.930 . S
O397 Cu391 1.974 . S
O397 C407 1.282 . S
C398 O399 1.261 . S
C398 O411 1.251 . S
O399 C398 1.261 . S
H400 C394 0.930 . S
H401 C396 0.930 . S
N402 Cu391 1.985 . S
N402 C404 1.335 . S
N402 C405 1.390 . S
N403 C404 1.345 . S
N403 C406 1.336 . S
C404 N402 1.335 . S
C404 N403 1.345 . S
C404 H409 0.930 . S
C405 N402 1.390 . S
C405 C406 1.346 . S
C405 H410 0.930 . S
C406 N403 1.336 . S
C406 C405 1.346 . S
C406 H413 0.929 . S
C407 O397 1.282 . S
C407 O408 1.216 . S
O408 C407 1.216 . S
H409 C404 0.930 . S
H410 C405 0.930 . S
O411 Cu391 1.959 . S
O411 C398 1.251 . S
H412 C395 0.930 . S
H413 C406 0.929 . S
Mn414 O419 2.095 . S
Mn414 O429 2.162 . S
Mn414 O430 2.297 . S
Mn414 O438 2.436 . S
Mn414 O439 2.209 1_455 S
Mn414 O440 2.094 . S
Mn415 O420 2.121 . S
Mn415 N422 2.257 . S
Mn415 N431 2.282 . S
Mn415 O439 2.215 . S
Mn415 O441 2.117 1_655 S
C416 O438 1.205 1_655 S
C416 O439 1.283 . S
C417 O429 1.281 . S
C417 O430 1.236 . S
C418 O440 1.240 . S
C418 O441 1.264 . S
O419 Mn414 2.095 . S
O419 C428 1.250 . S
O420 Mn415 2.121 . S
O420 C428 1.258 1_655 S
C421 N422 1.326 . S
C421 C425 1.460 . S
C421 H427 0.929 . S
N422 Mn415 2.257 . S
N422 C421 1.326 . S
N422 C426 1.362 . S
C423 C424 1.258 . S
C423 C426 1.431 . S
C423 C443 1.449 . S
C424 C423 1.258 . S
C424 C425 1.477 . S
C424 H444 0.931 . S
C425 C421 1.460 . S
C425 C424 1.477 . S
C425 H445 0.930 . S
C426 N422 1.362 . S
C426 C423 1.431 . S
C426 C436 1.476 . S
H427 C421 0.929 . S
C428 O419 1.250 . S
C428 O420 1.258 1_455 S
O429 Mn414 2.162 . S
O429 C417 1.281 . S
O430 Mn414 2.297 . S
O430 C417 1.236 . S
N431 Mn415 2.282 . S
N431 C432 1.328 . S
N431 C436 1.318 . S
C432 N431 1.328 . S
C432 C433 1.457 . S
C432 H437 0.929 . S
C433 C432 1.457 . S
C433 C434 1.291 . S
C433 H446 0.931 . S
C434 C433 1.291 . S
C434 C435 1.373 . S
C434 H447 0.929 . S
C435 C434 1.373 . S
C435 C436 1.396 . S
C435 C442 1.403 . S
C436 C426 1.476 . S
C436 N431 1.318 . S
C436 C435 1.396 . S
H437 C432 0.929 . S
O438 Mn414 2.436 . S
O438 C416 1.205 1_455 S
O439 Mn414 2.209 1_655 S
O439 Mn415 2.215 . S
O439 C416 1.283 . S
O440 Mn414 2.094 . S
O440 C418 1.240 . S
O441 Mn415 2.117 1_455 S
O441 C418 1.264 . S
C442 C435 1.403 . S
C442 C443 1.399 . S
C442 H448 0.929 . S
C443 C423 1.449 . S
C443 C442 1.399 . S
C443 H449 0.930 . S
H444 C424 0.931 . S
H445 C425 0.930 . S
H446 C433 0.931 . S
H447 C434 0.929 . S
H448 C442 0.929 . S
H449 C443 0.930 . S
Mn450 O455 2.095 . S
Mn450 O465 2.162 . S
Mn450 O466 2.297 . S
Mn450 O474 2.385 . S
Mn450 O475 2.209 . S
Mn450 O476 2.094 . S
Mn451 O456 2.121 . S
Mn451 N458 2.257 . S
Mn451 N467 2.282 . S
Mn451 O475 2.215 . S
Mn451 O477 2.117 . S
C452 O474 1.234 . S
C452 O475 1.283 . S
C453 O465 1.281 . S
C453 O466 1.236 . S
C454 O476 1.240 . S
C454 O477 1.264 . S
O455 Mn450 2.095 . S
O455 C464 1.250 . S
O456 Mn451 2.121 . S
O456 C464 1.258 . S
C457 N458 1.326 . S
C457 C461 1.460 . S
C457 H463 0.929 . S
N458 Mn451 2.257 . S
N458 C457 1.326 . S
N458 C462 1.362 . S
C459 C460 1.258 . S
C459 C462 1.431 . S
C459 C479 1.449 . S
C460 C459 1.258 . S
C460 C461 1.477 . S
C460 H480 0.931 . S
C461 C457 1.460 . S
C461 C460 1.477 . S
C461 H481 0.930 . S
C462 N458 1.362 . S
C462 C459 1.431 . S
C462 C472 1.476 . S
H463 C457 0.929 . S
C464 O455 1.250 . S
C464 O456 1.258 . S
O465 Mn450 2.162 . S
O465 C453 1.281 . S
O466 Mn450 2.297 . S
O466 C453 1.236 . S
N467 Mn451 2.282 . S
N467 C468 1.328 . S
N467 C472 1.318 . S
C468 N467 1.328 . S
C468 C469 1.457 . S
C468 H473 0.929 . S
C469 C468 1.457 . S
C469 C470 1.291 . S
C469 H482 0.931 . S
C470 C469 1.291 . S
C470 C471 1.373 . S
C470 H483 0.929 . S
C471 C470 1.373 . S
C471 C472 1.396 . S
C471 C478 1.403 . S
C472 C462 1.476 . S
C472 N467 1.318 . S
C472 C471 1.396 . S
H473 C468 0.929 . S
O474 Mn450 2.385 . S
O474 C452 1.234 . S
O475 Mn450 2.209 . S
O475 Mn451 2.215 . S
O475 C452 1.283 . S
O476 Mn450 2.094 . S
O476 C454 1.240 . S
O477 Mn451 2.117 . S
O477 C454 1.264 . S
C478 C471 1.403 . S
C478 C479 1.399 . S
C478 H484 0.929 . S
C479 C459 1.449 . S
C479 C478 1.399 . S
C479 H485 0.930 . S
H480 C460 0.931 . S
H481 C461 0.930 . S
H482 C469 0.931 . S
H483 C470 0.929 . S
H484 C478 0.929 . S
H485 C479 0.930 . S
Mn486 O491 2.095 . S
Mn486 O501 2.162 . S
Mn486 O502 2.297 . S
Mn486 O510 2.385 . S
Mn486 O511 2.209 . S
Mn486 O512 2.094 . S
Mn487 O492 2.121 . S
Mn487 N494 2.257 . S
Mn487 N503 2.282 . S
Mn487 O511 2.215 . S
Mn487 O513 2.117 . S
C488 O510 1.234 . S
C488 O511 1.283 . S
C489 O501 1.281 . S
C489 O502 1.236 . S
C490 O512 1.240 . S
C490 O513 1.264 . S
O491 Mn486 2.095 . S
O491 C500 1.250 . S
O492 Mn487 2.121 . S
O492 C500 1.258 . S
C493 N494 1.326 . S
C493 C497 1.460 . S
C493 H499 0.929 . S
N494 Mn487 2.257 . S
N494 C493 1.326 . S
N494 C498 1.362 . S
C495 C496 1.258 . S
C495 C498 1.431 . S
C495 C515 1.449 . S
C496 C495 1.258 . S
C496 C497 1.477 . S
C496 H516 0.931 . S
C497 C493 1.460 . S
C497 C496 1.477 . S
C497 H517 0.930 . S
C498 N494 1.362 . S
C498 C495 1.431 . S
C498 C508 1.476 . S
H499 C493 0.929 . S
C500 O491 1.250 . S
C500 O492 1.258 . S
O501 Mn486 2.162 . S
O501 C489 1.281 . S
O502 Mn486 2.297 . S
O502 C489 1.236 . S
N503 Mn487 2.282 . S
N503 C504 1.328 . S
N503 C508 1.318 . S
C504 N503 1.328 . S
C504 C505 1.457 . S
C504 H509 0.929 . S
C505 C504 1.457 . S
C505 C506 1.291 . S
C505 H518 0.931 . S
C506 C505 1.291 . S
C506 C507 1.373 . S
C506 H519 0.929 . S
C507 C506 1.373 . S
C507 C508 1.396 . S
C507 C514 1.403 . S
C508 C498 1.476 . S
C508 N503 1.318 . S
C508 C507 1.396 . S
H509 C504 0.929 . S
O510 Mn486 2.385 . S
O510 C488 1.234 . S
O511 Mn486 2.209 . S
O511 Mn487 2.215 . S
O511 C488 1.283 . S
O512 Mn486 2.094 . S
O512 C490 1.240 . S
O513 Mn487 2.117 . S
O513 C490 1.264 . S
C514 C507 1.403 . S
C514 C515 1.399 . S
C514 H520 0.929 . S
C515 C495 1.449 . S
C515 C514 1.399 . S
C515 H521 0.930 . S
H516 C496 0.931 . S
H517 C497 0.930 . S
H518 C505 0.931 . S
H519 C506 0.929 . S
H520 C514 0.929 . S
H521 C515 0.930 . S
Mn522 O527 2.095 . S
Mn522 O537 2.162 . S
Mn522 O538 2.297 . S
Mn522 O546 2.385 . S
Mn522 O547 2.209 . S
Mn522 O548 2.094 1_455 S
Mn523 O528 2.121 . S
Mn523 N530 2.257 . S
Mn523 N539 2.282 . S
Mn523 O547 2.215 . S
Mn523 O549 2.117 . S
C524 O546 1.234 . S
C524 O547 1.283 . S
C525 O537 1.281 . S
C525 O538 1.236 . S
C526 O548 1.240 . S
C526 O549 1.264 1_655 S
O527 Mn522 2.095 . S
O527 C536 1.250 . S
O528 Mn523 2.121 . S
O528 C536 1.258 . S
C529 N530 1.326 . S
C529 C533 1.460 . S
C529 H535 0.929 . S
N530 Mn523 2.257 . S
N530 C529 1.326 . S
N530 C534 1.362 . S
C531 C532 1.258 . S
C531 C534 1.431 . S
C531 C551 1.449 . S
C532 C531 1.258 . S
C532 C533 1.477 . S
C532 H552 0.931 . S
C533 C529 1.460 . S
C533 C532 1.477 . S
C533 H553 0.930 . S
C534 N530 1.362 . S
C534 C531 1.431 . S
C534 C544 1.476 . S
H535 C529 0.929 . S
C536 O527 1.250 . S
C536 O528 1.258 . S
O537 Mn522 2.162 . S
O537 C525 1.281 . S
O538 Mn522 2.297 . S
O538 C525 1.236 . S
N539 Mn523 2.282 . S
N539 C540 1.328 . S
N539 C544 1.318 . S
C540 N539 1.328 . S
C540 C541 1.457 . S
C540 H545 0.929 . S
C541 C540 1.457 . S
C541 C542 1.291 . S
C541 H554 0.931 . S
C542 C541 1.291 . S
C542 C543 1.373 . S
C542 H555 0.929 . S
C543 C542 1.373 . S
C543 C544 1.396 . S
C543 C550 1.403 . S
C544 C534 1.476 . S
C544 N539 1.318 . S
C544 C543 1.396 . S
H545 C540 0.929 . S
O546 Mn522 2.385 . S
O546 C524 1.234 . S
O547 Mn522 2.209 . S
O547 Mn523 2.215 . S
O547 C524 1.283 . S
O548 Mn522 2.094 1_655 S
O548 C526 1.240 . S
O549 Mn523 2.117 . S
O549 C526 1.264 1_455 S
C550 C543 1.403 . S
C550 C551 1.399 . S
C550 H556 0.929 . S
C551 C531 1.449 . S
C551 C550 1.399 . S
C551 H557 0.930 . S
H552 C532 0.931 . S
H553 C533 0.930 . S
H554 C541 0.931 . S
H555 C542 0.929 . S
H556 C550 0.929 . S
H557 C551 0.930 . S
Mn558 O563 2.095 . S
Mn558 O573 2.162 . S
Mn558 O574 2.297 . S
Mn558 O582 2.385 . S
Mn558 O583 2.209 . S
Mn558 O584 2.094 . S
Mn559 O564 2.121 . S
Mn559 N566 2.257 . S
Mn559 N575 2.282 . S
Mn559 O583 2.215 . S
Mn559 O585 2.117 . S
C560 O582 1.234 . S
C560 O583 1.283 . S
C561 O573 1.281 . S
C561 O574 1.236 . S
C562 O584 1.240 . S
C562 O585 1.264 . S
O563 Mn558 2.095 . S
O563 C572 1.250 . S
O564 Mn559 2.121 . S
O564 C572 1.258 . S
C565 N566 1.326 . S
C565 C569 1.460 . S
C565 H571 0.929 . S
N566 Mn559 2.257 . S
N566 C565 1.326 . S
N566 C570 1.362 . S
C567 C568 1.258 . S
C567 C570 1.431 . S
C567 C587 1.449 . S
C568 C567 1.258 . S
C568 C569 1.477 . S
C568 H588 0.931 . S
C569 C565 1.460 . S
C569 C568 1.477 . S
C569 H589 0.930 . S
C570 N566 1.362 . S
C570 C567 1.431 . S
C570 C580 1.476 . S
H571 C565 0.929 . S
C572 O563 1.250 . S
C572 O564 1.258 . S
O573 Mn558 2.162 . S
O573 C561 1.281 . S
O574 Mn558 2.297 . S
O574 C561 1.236 . S
N575 Mn559 2.282 . S
N575 C576 1.328 . S
N575 C580 1.318 . S
C576 N575 1.328 . S
C576 C577 1.457 . S
C576 H581 0.929 . S
C577 C576 1.457 . S
C577 C578 1.291 . S
C577 H590 0.931 . S
C578 C577 1.291 . S
C578 C579 1.373 . S
C578 H591 0.929 . S
C579 C578 1.373 . S
C579 C580 1.396 . S
C579 C586 1.403 . S
C580 C570 1.476 . S
C580 N575 1.318 . S
C580 C579 1.396 . S
H581 C576 0.929 . S
O582 Mn558 2.385 . S
O582 C560 1.234 . S
O583 Mn558 2.209 . S
O583 Mn559 2.215 . S
O583 C560 1.283 . S
O584 Mn558 2.094 . S
O584 C562 1.240 . S
O585 Mn559 2.117 . S
O585 C562 1.264 . S
C586 C579 1.403 . S
C586 C587 1.399 . S
C586 H592 0.929 . S
C587 C567 1.449 . S
C587 C586 1.399 . S
C587 H593 0.930 . S
H588 C568 0.931 . S
H589 C569 0.930 . S
H590 C577 0.931 . S
H591 C578 0.929 . S
H592 C586 0.929 . S
H593 C587 0.930 . S
Mn594 O599 2.095 . S
Mn594 O609 2.162 . S
Mn594 O610 2.297 . S
Mn594 O618 2.385 . S
Mn594 O619 2.209 . S
Mn594 O620 2.094 . S
Mn595 O600 2.121 . S
Mn595 N602 2.257 1_545 S
Mn595 N611 2.282 . S
Mn595 O619 2.215 . S
Mn595 O621 2.117 . S
C596 O618 1.234 . S
C596 O619 1.283 . S
C597 O609 1.281 . S
C597 O610 1.236 . S
C598 O620 1.240 . S
C598 O621 1.264 . S
O599 Mn594 2.095 . S
O599 C608 1.250 . S
O600 Mn595 2.121 . S
O600 C608 1.258 . S
C601 N602 1.326 . S
C601 C605 1.460 . S
C601 H607 0.929 . S
N602 Mn595 2.257 1_565 S
N602 C601 1.326 . S
N602 C606 1.362 . S
C603 C604 1.258 . S
C603 C606 1.431 . S
C603 C623 1.449 . S
C604 C603 1.258 . S
C604 C605 1.477 . S
C604 H624 0.931 . S
C605 C601 1.460 . S
C605 C604 1.477 . S
C605 H625 0.930 . S
C606 N602 1.362 . S
C606 C603 1.431 . S
C606 C616 1.476 . S
H607 C601 0.929 . S
C608 O599 1.250 . S
C608 O600 1.258 . S
O609 Mn594 2.162 . S
O609 C597 1.281 . S
O610 Mn594 2.297 . S
O610 C597 1.236 . S
N611 Mn595 2.282 . S
N611 C612 1.328 . S
N611 C616 1.318 1_545 S
C612 N611 1.328 . S
C612 C613 1.457 . S
C612 H617 0.929 . S
C613 C612 1.457 . S
C613 C614 1.258 1_545 S
C613 H626 0.931 . S
C614 C613 1.258 1_565 S
C614 C615 1.420 . S
C614 H627 0.918 . S
C615 C614 1.420 . S
C615 C616 1.396 . S
C615 C622 1.403 . S
C616 C606 1.476 . S
C616 N611 1.318 1_565 S
C616 C615 1.396 . S
H617 C612 0.929 . S
O618 Mn594 2.385 . S
O618 C596 1.234 . S
O619 Mn594 2.209 . S
O619 Mn595 2.215 . S
O619 C596 1.283 . S
O620 Mn594 2.094 . S
O620 C598 1.240 . S
O621 Mn595 2.117 . S
O621 C598 1.264 . S
C622 C615 1.403 . S
C622 C623 1.399 . S
C622 H628 0.929 . S
C623 C603 1.449 . S
C623 C622 1.399 . S
C623 H629 0.930 . S
H624 C604 0.931 . S
H625 C605 0.930 . S
H626 C613 0.931 . S
H627 C614 0.918 . S
H628 C622 0.929 . S
H629 C623 0.930 . S
Mn630 O635 2.095 1_545 S
Mn630 O645 2.162 . S
Mn630 O646 2.297 . S
Mn630 O654 2.385 . S
Mn630 O655 2.209 1_545 S
Mn630 O656 2.094 1_545 S
Mn631 O636 2.121 . S
Mn631 N638 2.257 . S
Mn631 N647 2.282 . S
Mn631 O655 2.215 . S
Mn631 O657 2.117 . S
C632 O654 1.246 . S
C632 O655 1.258 1_545 S
C633 O645 1.281 . S
C633 O646 1.236 . S
C634 O656 1.240 . S
C634 O657 1.264 . S
O635 Mn630 2.095 1_565 S
O635 C644 1.250 . S
O636 Mn631 2.121 . S
O636 C644 1.258 . S
C637 N638 1.326 . S
C637 C641 1.460 . S
C637 H643 0.929 . S
N638 Mn631 2.257 . S
N638 C637 1.326 . S
N638 C642 1.362 . S
C639 C640 1.258 . S
C639 C642 1.431 . S
C639 C659 1.449 . S
C640 C639 1.258 . S
C640 C641 1.477 . S
C640 H660 0.931 . S
C641 C637 1.460 . S
C641 C640 1.477 . S
C641 H661 0.930 . S
C642 N638 1.362 . S
C642 C639 1.431 . S
C642 C652 1.476 . S
H643 C637 0.929 . S
C644 O635 1.250 . S
C644 O636 1.258 . S
O645 Mn630 2.162 . S
O645 C633 1.281 . S
O646 Mn630 2.297 . S
O646 C633 1.236 . S
N647 Mn631 2.282 . S
N647 C648 1.328 . S
N647 C652 1.318 . S
C648 N647 1.328 . S
C648 C649 1.457 . S
C648 H653 0.929 . S
C649 C648 1.457 . S
C649 C650 1.291 . S
C649 H662 0.931 . S
C650 C649 1.291 . S
C650 C651 1.373 . S
C650 H663 0.929 . S
C651 C650 1.373 . S
C651 C652 1.396 . S
C651 C658 1.403 . S
C652 C642 1.476 . S
C652 N647 1.318 . S
C652 C651 1.396 . S
H653 C648 0.929 . S
O654 Mn630 2.385 . S
O654 C632 1.246 . S
O655 Mn630 2.209 1_565 S
O655 Mn631 2.215 . S
O655 C632 1.258 1_565 S
O656 Mn630 2.094 1_565 S
O656 C634 1.240 . S
O657 Mn631 2.117 . S
O657 C634 1.264 . S
C658 C651 1.403 . S
C658 C659 1.399 . S
C658 H664 0.929 . S
C659 C639 1.449 . S
C659 C658 1.399 . S
C659 H665 0.930 . S
H660 C640 0.931 . S
H661 C641 0.930 . S
H662 C649 0.931 . S
H663 C650 0.929 . S
H664 C658 0.929 . S
H665 C659 0.930 . S
Mn666 O671 2.095 . S
Mn666 O681 2.162 . S
Mn666 O682 2.297 . S
Mn666 O690 2.385 . S
Mn666 O691 2.209 . S
Mn666 O692 2.094 . S
Mn667 O672 2.121 . S
Mn667 N674 2.257 . S
Mn667 N683 2.282 . S
Mn667 O691 2.215 . S
Mn667 O693 2.117 . S
C668 O690 1.234 . S
C668 O691 1.283 . S
C669 O681 1.281 . S
C669 O682 1.236 . S
C670 O692 1.240 . S
C670 O693 1.264 . S
O671 Mn666 2.095 . S
O671 C680 1.250 . S
O672 Mn667 2.121 . S
O672 C680 1.258 . S
C673 N674 1.326 . S
C673 C677 1.460 . S
C673 H679 0.929 . S
N674 Mn667 2.257 . S
N674 C673 1.326 . S
N674 C678 1.362 . S
C675 C676 1.258 . S
C675 C678 1.431 1_655 S
C675 C695 1.449 . S
C676 C675 1.258 . S
C676 C677 1.477 1_655 S
C676 H696 0.931 . S
C677 C673 1.460 . S
C677 C676 1.477 1_455 S
C677 H697 0.930 . S
C678 N674 1.362 . S
C678 C675 1.431 1_455 S
C678 C688 1.476 . S
H679 C673 0.929 . S
C680 O671 1.250 . S
C680 O672 1.258 . S
O681 Mn666 2.162 . S
O681 C669 1.281 . S
O682 Mn666 2.297 . S
O682 C669 1.236 . S
N683 Mn667 2.282 . S
N683 C684 1.328 . S
N683 C688 1.318 . S
C684 N683 1.328 . S
C684 C685 1.457 . S
C684 H689 0.929 . S
C685 C684 1.457 . S
C685 C686 1.291 1_455 S
C685 H698 0.931 . S
C686 C685 1.291 1_655 S
C686 C687 1.373 . S
C686 H699 0.929 . S
C687 C686 1.373 . S
C687 C688 1.396 1_655 S
C687 C694 1.403 . S
C688 C678 1.476 . S
C688 N683 1.318 . S
C688 C687 1.396 1_455 S
H689 C684 0.929 . S
O690 Mn666 2.385 . S
O690 C668 1.234 . S
O691 Mn666 2.209 . S
O691 Mn667 2.215 . S
O691 C668 1.283 . S
O692 Mn666 2.094 . S
O692 C670 1.240 . S
O693 Mn667 2.117 . S
O693 C670 1.264 . S
C694 C687 1.403 . S
C694 C695 1.399 . S
C694 H700 0.929 . S
C695 C675 1.449 . S
C695 C694 1.399 . S
C695 H701 0.930 . S
H696 C676 0.931 . S
H697 C677 0.930 . S
H698 C685 0.931 . S
H699 C686 0.929 . S
H700 C694 0.929 . S
H701 C695 0.930 . S
Mn702 O707 2.095 . S
Mn702 O717 2.162 . S
Mn702 O718 2.297 . S
Mn702 O726 2.385 . S
Mn702 O727 2.209 . S
Mn702 O728 2.094 . S
Mn703 O708 2.121 . S
Mn703 N710 2.257 . S
Mn703 N719 2.282 . S
Mn703 O727 2.215 . S
Mn703 O729 2.117 . S
C704 O726 1.234 . S
C704 O727 1.283 . S
C705 O717 1.281 . S
C705 O718 1.236 . S
C706 O728 1.240 . S
C706 O729 1.264 . S
O707 Mn702 2.095 . S
O707 C716 1.250 . S
O708 Mn703 2.121 . S
O708 C716 1.258 . S
C709 N710 1.326 . S
C709 C713 1.460 . S
C709 H715 0.929 . S
N710 Mn703 2.257 . S
N710 C709 1.326 . S
N710 C714 1.362 . S
C711 C712 1.258 . S
C711 C714 1.431 . S
C711 C731 1.449 . S
C712 C711 1.258 . S
C712 C713 1.477 . S
C712 H732 0.931 . S
C713 C709 1.460 . S
C713 C712 1.477 . S
C713 H733 0.930 . S
C714 N710 1.362 . S
C714 C711 1.431 . S
C714 C724 1.476 . S
H715 C709 0.929 . S
C716 O707 1.250 . S
C716 O708 1.258 . S
O717 Mn702 2.162 . S
O717 C705 1.281 . S
O718 Mn702 2.297 . S
O718 C705 1.236 . S
N719 Mn703 2.282 . S
N719 C720 1.328 . S
N719 C724 1.318 . S
C720 N719 1.328 . S
C720 C721 1.457 . S
C720 H725 0.929 . S
C721 C720 1.457 . S
C721 C722 1.291 . S
C721 H734 0.931 . S
C722 C721 1.291 . S
C722 C723 1.373 . S
C722 H735 0.929 . S
C723 C722 1.373 . S
C723 C724 1.396 . S
C723 C730 1.403 . S
C724 C714 1.476 . S
C724 N719 1.318 . S
C724 C723 1.396 . S
H725 C720 0.929 . S
O726 Mn702 2.385 . S
O726 C704 1.234 . S
O727 Mn702 2.209 . S
O727 Mn703 2.215 . S
O727 C704 1.283 . S
O728 Mn702 2.094 . S
O728 C706 1.240 . S
O729 Mn703 2.117 . S
O729 C706 1.264 . S
C730 C723 1.403 . S
C730 C731 1.399 . S
C730 H736 0.929 . S
C731 C711 1.449 . S
C731 C730 1.399 . S
C731 H737 0.930 . S
H732 C712 0.931 . S
H733 C713 0.930 . S
H734 C721 0.931 . S
H735 C722 0.929 . S
H736 C730 0.929 . S
H737 C731 0.930 . S
Mn738 O743 2.095 . S
Mn738 O753 2.162 . S
Mn738 O754 2.297 . S
Mn738 O762 2.385 . S
Mn738 O763 2.209 . S
Mn738 O764 2.094 . S
Mn739 O744 2.121 . S
Mn739 N746 2.257 . S
Mn739 N755 2.282 . S
Mn739 O763 2.215 . S
Mn739 O765 2.117 . S
C740 O762 1.234 . S
C740 O763 1.283 . S
C741 O753 1.281 . S
C741 O754 1.236 . S
C742 O764 1.240 . S
C742 O765 1.264 . S
O743 Mn738 2.095 . S
O743 C752 1.250 . S
O744 Mn739 2.121 . S
O744 C752 1.258 . S
C745 N746 1.326 . S
C745 C749 1.460 . S
C745 H751 0.929 . S
N746 Mn739 2.257 . S
N746 C745 1.326 . S
N746 C750 1.362 . S
C747 C748 1.258 . S
C747 C750 1.431 . S
C747 C767 1.449 . S
C748 C747 1.258 . S
C748 C749 1.477 . S
C748 H768 0.931 . S
C749 C745 1.460 . S
C749 C748 1.477 . S
C749 H769 0.930 1_554 S
C750 N746 1.362 . S
C750 C747 1.431 . S
C750 C760 1.476 . S
H751 C745 0.929 . S
C752 O743 1.250 . S
C752 O744 1.258 . S
O753 Mn738 2.162 . S
O753 C741 1.281 . S
O754 Mn738 2.297 . S
O754 C741 1.236 . S
N755 Mn739 2.282 . S
N755 C756 1.328 . S
N755 C760 1.318 . S
C756 N755 1.328 . S
C756 C757 1.457 . S
C756 H761 0.929 . S
C757 C756 1.457 . S
C757 C758 1.291 . S
C757 H770 0.931 . S
C758 C757 1.291 . S
C758 C759 1.373 . S
C758 H771 0.929 . S
C759 C758 1.373 . S
C759 C760 1.396 . S
C759 C766 1.403 . S
C760 C750 1.476 . S
C760 N755 1.318 . S
C760 C759 1.396 . S
H761 C756 0.929 . S
O762 Mn738 2.385 . S
O762 C740 1.234 . S
O763 Mn738 2.209 . S
O763 Mn739 2.215 . S
O763 C740 1.283 . S
O764 Mn738 2.094 . S
O764 C742 1.240 . S
O765 Mn739 2.117 . S
O765 C742 1.264 . S
C766 C759 1.403 . S
C766 C767 1.399 . S
C766 H772 0.929 . S
C767 C747 1.449 . S
C767 C766 1.399 . S
C767 H773 0.930 . S
H768 C748 0.931 . S
H769 C749 0.930 1_556 S
H770 C757 0.931 . S
H771 C758 0.929 . S
H772 C766 0.929 . S
H773 C767 0.930 . S
Mn774 O779 2.095 . S
Mn774 O789 2.162 . S
Mn774 O790 2.297 . S
Mn774 O798 2.385 1_565 S
Mn774 O799 2.209 . S
Mn774 O800 2.094 1_565 S
Mn775 O780 2.121 1_545 S
Mn775 N782 2.257 1_545 S
Mn775 N791 2.282 . S
Mn775 O799 2.215 1_545 S
Mn775 O801 2.117 . S
C776 O798 1.234 1_565 S
C776 O799 1.283 . S
C777 O789 1.281 . S
C777 O790 1.236 . S
C778 O800 1.240 . S
C778 O801 1.264 . S
O779 Mn774 2.095 . S
O779 C788 1.250 . S
O780 Mn775 2.121 1_565 S
O780 C788 1.258 . S
C781 N782 1.326 . S
C781 C785 1.460 . S
C781 H787 0.929 . S
N782 Mn775 2.257 1_565 S
N782 C781 1.326 . S
N782 C786 1.362 . S
C783 C784 1.258 . S
C783 C786 1.431 . S
C783 C803 1.449 . S
C784 C783 1.258 . S
C784 C785 1.477 . S
C784 H804 0.931 . S
C785 C781 1.460 . S
C785 C784 1.477 . S
C785 H805 0.930 . S
C786 N782 1.362 . S
C786 C783 1.431 . S
C786 C796 1.476 1_565 S
H787 C781 0.929 . S
C788 O779 1.250 . S
C788 O780 1.258 . S
O789 Mn774 2.162 . S
O789 C777 1.281 . S
O790 Mn774 2.297 . S
O790 C777 1.236 . S
N791 Mn775 2.282 . S
N791 C792 1.328 . S
N791 C796 1.318 . S
C792 N791 1.328 . S
C792 C793 1.457 . S
C792 H797 0.929 . S
C793 C792 1.457 . S
C793 C794 1.291 . S
C793 H806 0.931 . S
C794 C793 1.291 . S
C794 C795 1.373 . S
C794 H807 0.929 . S
C795 C794 1.373 . S
C795 C796 1.396 . S
C795 C802 1.403 . S
C796 C786 1.476 1_545 S
C796 N791 1.318 . S
C796 C795 1.396 . S
H797 C792 0.929 . S
O798 Mn774 2.385 1_545 S
O798 C776 1.234 1_545 S
O799 Mn774 2.209 . S
O799 Mn775 2.215 1_565 S
O799 C776 1.283 . S
O800 Mn774 2.094 1_545 S
O800 C778 1.240 . S
O801 Mn775 2.117 . S
O801 C778 1.264 . S
C802 C795 1.403 . S
C802 C803 1.399 1_545 S
C802 H808 0.929 . S
C803 C783 1.449 . S
C803 C802 1.399 1_565 S
C803 H809 0.930 . S
H804 C784 0.931 . S
H805 C785 0.930 . S
H806 C793 0.931 . S
H807 C794 0.929 . S
H808 C802 0.929 . S
H809 C803 0.930 . S
Mn810 O815 2.095 . S
Mn810 O825 2.162 . S
Mn810 O826 2.297 . S
Mn810 O834 2.385 . S
Mn810 O835 2.209 . S
Mn810 O836 2.094 . S
Mn811 O816 2.121 . S
Mn811 N818 2.257 . S
Mn811 N827 2.282 1_455 S
Mn811 O835 2.215 . S
Mn811 O837 2.117 . S
C812 O834 1.234 . S
C812 O835 1.283 . S
C813 O825 1.281 . S
C813 O826 1.236 . S
C814 O836 1.240 . S
C814 O837 1.264 . S
O815 Mn810 2.095 . S
O815 C824 1.250 . S
O816 Mn811 2.121 . S
O816 C824 1.258 . S
C817 N818 1.326 . S
C817 C821 1.460 1_455 S
C817 H823 0.929 . S
N818 Mn811 2.257 . S
N818 C817 1.326 . S
N818 C822 1.362 1_455 S
C819 C820 1.258 . S
C819 C822 1.431 . S
C819 C839 1.449 . S
C820 C819 1.258 . S
C820 C821 1.477 . S
C820 H840 0.931 . S
C821 C817 1.460 1_655 S
C821 C820 1.477 . S
C821 H841 0.930 . S
C822 N818 1.362 1_655 S
C822 C819 1.431 . S
C822 C832 1.476 . S
H823 C817 0.929 . S
C824 O815 1.250 . S
C824 O816 1.258 . S
O825 Mn810 2.162 . S
O825 C813 1.281 . S
O826 Mn810 2.297 . S
O826 C813 1.236 . S
N827 Mn811 2.282 1_655 S
N827 C828 1.328 . S
N827 C832 1.318 . S
C828 N827 1.328 . S
C828 C829 1.457 . S
C828 H833 0.941 . S
C829 C828 1.457 . S
C829 C830 1.291 . S
C829 H842 0.931 . S
C830 C829 1.291 . S
C830 C831 1.373 . S
C830 H843 0.929 . S
C831 C830 1.373 . S
C831 C832 1.396 . S
C831 C838 1.403 . S
C832 C822 1.476 . S
C832 N827 1.318 . S
C832 C831 1.396 . S
H833 C828 0.941 . S
O834 Mn810 2.385 . S
O834 C812 1.234 . S
O835 Mn810 2.209 . S
O835 Mn811 2.215 . S
O835 C812 1.283 . S
O836 Mn810 2.094 . S
O836 C814 1.240 . S
O837 Mn811 2.117 . S
O837 C814 1.264 . S
C838 C831 1.403 . S
C838 C839 1.399 . S
C838 H844 0.929 . S
C839 C819 1.449 . S
C839 C838 1.399 . S
C839 H845 0.930 . S
H840 C820 0.931 . S
H841 C821 0.930 . S
H842 C829 0.931 . S
H843 C830 0.929 . S
H844 C838 0.929 . S
H845 C839 0.930 . S
Mn846 O851 2.095 . S
Mn846 O861 2.162 . S
Mn846 O862 2.297 . S
Mn846 O870 2.385 . S
Mn846 O871 2.209 . S
Mn846 O872 2.094 . S
Mn847 O852 2.121 . S
Mn847 N854 2.257 . S
Mn847 N863 2.282 . S
Mn847 O871 2.215 . S
Mn847 O873 2.117 . S
C848 O870 1.234 . S
C848 O871 1.283 . S
C849 O861 1.281 . S
C849 O862 1.236 . S
C850 O872 1.240 . S
C850 O873 1.264 . S
O851 Mn846 2.095 . S
O851 C860 1.250 . S
O852 Mn847 2.121 . S
O852 C860 1.258 . S
C853 N854 1.326 . S
C853 C857 1.460 . S
C853 H859 0.929 . S
N854 Mn847 2.257 . S
N854 C853 1.326 . S
N854 C858 1.362 . S
C855 C856 1.258 . S
C855 C858 1.431 . S
C855 C875 1.449 . S
C856 C855 1.258 . S
C856 C857 1.477 . S
C856 H876 0.931 . S
C857 C853 1.460 . S
C857 C856 1.477 . S
C857 H877 0.930 1_556 S
C858 N854 1.362 . S
C858 C855 1.431 . S
C858 C868 1.476 . S
H859 C853 0.929 . S
C860 O851 1.250 . S
C860 O852 1.258 . S
O861 Mn846 2.162 . S
O861 C849 1.281 . S
O862 Mn846 2.297 . S
O862 C849 1.236 . S
N863 Mn847 2.282 . S
N863 C864 1.328 . S
N863 C868 1.318 . S
C864 N863 1.328 . S
C864 C865 1.457 . S
C864 H869 0.929 . S
C865 C864 1.457 . S
C865 C866 1.291 . S
C865 H878 0.931 . S
C866 C865 1.291 . S
C866 C867 1.373 . S
C866 H879 0.929 . S
C867 C866 1.373 . S
C867 C868 1.396 . S
C867 C874 1.403 . S
C868 C858 1.476 . S
C868 N863 1.318 . S
C868 C867 1.396 . S
H869 C864 0.929 . S
O870 Mn846 2.385 . S
O870 C848 1.234 . S
O871 Mn846 2.209 . S
O871 Mn847 2.215 . S
O871 C848 1.283 . S
O872 Mn846 2.094 . S
O872 C850 1.240 . S
O873 Mn847 2.117 . S
O873 C850 1.264 . S
C874 C867 1.403 . S
C874 C875 1.399 . S
C874 H880 0.929 . S
C875 C855 1.449 . S
C875 C874 1.399 . S
C875 H881 0.930 . S
H876 C856 0.931 . S
H877 C857 0.930 1_554 S
H878 C865 0.931 . S
H879 C866 0.929 . S
H880 C874 0.929 . S
H881 C875 0.930 . S
Mn882 O887 2.095 . S
Mn882 O897 2.162 . S
Mn882 O898 2.297 . S
Mn882 O906 2.385 . S
Mn882 O907 2.209 . S
Mn882 O908 2.094 . S
Mn883 O888 2.121 . S
Mn883 N890 2.257 . S
Mn883 N899 2.282 . S
Mn883 O907 2.215 . S
Mn883 O909 2.117 . S
C884 O906 1.234 . S
C884 O907 1.283 . S
C885 O897 1.281 . S
C885 O898 1.236 . S
C886 O908 1.240 . S
C886 O909 1.264 . S
O887 Mn882 2.095 . S
O887 C896 1.250 . S
O888 Mn883 2.121 . S
O888 C896 1.258 . S
C889 N890 1.326 . S
C889 C893 1.460 . S
C889 H895 0.929 . S
N890 Mn883 2.257 . S
N890 C889 1.326 . S
N890 C894 1.362 . S
C891 C892 1.258 . S
C891 C894 1.431 . S
C891 C911 1.449 . S
C892 C891 1.258 . S
C892 C893 1.477 . S
C892 H912 0.931 . S
C893 C889 1.460 . S
C893 C892 1.477 . S
C893 H913 0.930 . S
C894 N890 1.362 . S
C894 C891 1.431 . S
C894 C904 1.476 . S
H895 C889 0.929 . S
C896 O887 1.250 . S
C896 O888 1.258 . S
O897 Mn882 2.162 . S
O897 C885 1.281 . S
O898 Mn882 2.297 . S
O898 C885 1.236 . S
N899 Mn883 2.282 . S
N899 C900 1.328 . S
N899 C904 1.318 . S
C900 N899 1.328 . S
C900 C901 1.457 1_556 S
C900 H905 0.929 . S
C901 C900 1.457 1_554 S
C901 C902 1.291 1_554 S
C901 H914 0.931 . S
C902 C901 1.291 1_556 S
C902 C903 1.373 . S
C902 H915 0.929 1_556 S
C903 C902 1.373 . S
C903 C904 1.396 . S
C903 C910 1.403 . S
C904 C894 1.476 . S
C904 N899 1.318 . S
C904 C903 1.396 . S
H905 C900 0.929 . S
O906 Mn882 2.385 . S
O906 C884 1.234 . S
O907 Mn882 2.209 . S
O907 Mn883 2.215 . S
O907 C884 1.283 . S
O908 Mn882 2.094 . S
O908 C886 1.240 . S
O909 Mn883 2.117 . S
O909 C886 1.264 . S
C910 C903 1.403 . S
C910 C911 1.399 . S
C910 H916 0.929 . S
C911 C891 1.449 . S
C911 C910 1.399 . S
C911 H917 0.930 . S
H912 C892 0.931 . S
H913 C893 0.930 . S
H914 C901 0.931 . S
H915 C902 0.929 1_554 S
H916 C910 0.929 . S
H917 C911 0.930 . S
Mn918 O923 2.095 . S
Mn918 O933 2.162 . S
Mn918 O934 2.297 . S
Mn918 O942 2.385 1_655 S
Mn918 O943 2.209 . S
Mn918 O944 2.094 . S
Mn919 O924 2.121 . S
Mn919 N926 2.257 . S
Mn919 N935 2.282 . S
Mn919 O943 2.215 . S
Mn919 O945 2.117 . S
C920 O942 1.234 . S
C920 O943 1.283 1_455 S
C921 O933 1.281 . S
C921 O934 1.236 . S
C922 O944 1.240 . S
C922 O945 1.264 . S
O923 Mn918 2.095 . S
O923 C932 1.250 . S
O924 Mn919 2.121 . S
O924 C932 1.258 . S
C925 N926 1.326 . S
C925 C929 1.458 1_655 S
C925 H931 0.929 . S
N926 Mn919 2.257 . S
N926 C925 1.326 . S
N926 C930 1.362 1_655 S
C927 C928 1.258 . S
C927 C930 1.431 . S
C927 C947 1.449 . S
C928 C927 1.258 . S
C928 C929 1.484 . S
C928 H948 0.931 . S
C929 C925 1.458 1_455 S
C929 C928 1.484 . S
C929 H949 0.927 1_455 S
C930 N926 1.362 1_455 S
C930 C927 1.431 . S
C930 C940 1.476 . S
H931 C925 0.929 . S
C932 O923 1.250 . S
C932 O924 1.258 . S
O933 Mn918 2.162 . S
O933 C921 1.281 . S
O934 Mn918 2.297 . S
O934 C921 1.236 . S
N935 Mn919 2.282 . S
N935 C936 1.328 . S
N935 C940 1.318 1_655 S
C936 N935 1.328 . S
C936 C937 1.457 1_655 S
C936 H941 0.929 . S
C937 C936 1.457 1_455 S
C937 C938 1.291 . S
C937 H950 0.931 . S
C938 C937 1.291 . S
C938 C939 1.373 . S
C938 H951 0.929 . S
C939 C938 1.373 . S
C939 C940 1.396 . S
C939 C946 1.403 . S
C940 C930 1.476 . S
C940 N935 1.318 1_455 S
C940 C939 1.396 . S
H941 C936 0.929 . S
O942 Mn918 2.385 1_455 S
O942 C920 1.234 . S
O943 Mn918 2.209 . S
O943 Mn919 2.215 . S
O943 C920 1.283 1_655 S
O944 Mn918 2.094 . S
O944 C922 1.240 . S
O945 Mn919 2.117 . S
O945 C922 1.264 . S
C946 C939 1.403 . S
C946 C947 1.399 . S
C946 H952 0.929 . S
C947 C927 1.449 . S
C947 C946 1.399 . S
C947 H953 0.930 . S
H948 C928 0.931 . S
H949 C929 0.927 1_655 S
H950 C937 0.931 . S
H951 C938 0.929 . S
H952 C946 0.929 . S
H953 C947 0.930 . S
Mn954 O959 2.095 . S
Mn954 O969 2.162 . S
Mn954 O970 2.297 . S
Mn954 O978 2.385 . S
Mn954 O979 2.209 . S
Mn954 O980 2.094 . S
Mn955 O960 2.121 . S
Mn955 N962 2.257 . S
Mn955 N971 2.282 . S
Mn955 O979 2.215 . S
Mn955 O981 2.117 . S
C956 O978 1.234 . S
C956 O979 1.283 . S
C957 O969 1.281 . S
C957 O970 1.236 . S
C958 O980 1.240 . S
C958 O981 1.264 . S
O959 Mn954 2.095 . S
O959 C968 1.250 . S
O960 Mn955 2.121 . S
O960 C968 1.258 . S
C961 N962 1.326 . S
C961 C965 1.460 . S
C961 H967 0.929 . S
N962 Mn955 2.257 . S
N962 C961 1.326 . S
N962 C966 1.362 . S
C963 C964 1.258 . S
C963 C966 1.431 . S
C963 C983 1.449 . S
C964 C963 1.258 . S
C964 C965 1.477 . S
C964 H984 0.931 . S
C965 C961 1.460 . S
C965 C964 1.477 . S
C965 H985 0.930 . S
C966 N962 1.362 . S
C966 C963 1.431 . S
C966 C976 1.476 . S
H967 C961 0.929 . S
C968 O959 1.250 . S
C968 O960 1.258 . S
O969 Mn954 2.162 . S
O969 C957 1.281 . S
O970 Mn954 2.297 . S
O970 C957 1.236 . S
N971 Mn955 2.282 . S
N971 C972 1.328 . S
N971 C976 1.318 . S
C972 N971 1.328 . S
C972 C973 1.457 . S
C972 H977 0.929 . S
C973 C972 1.457 . S
C973 C974 1.291 . S
C973 H986 0.931 . S
C974 C973 1.291 . S
C974 C975 1.373 . S
C974 H987 0.929 . S
C975 C974 1.373 . S
C975 C976 1.396 . S
C975 C982 1.403 . S
C976 C966 1.476 . S
C976 N971 1.318 . S
C976 C975 1.396 . S
H977 C972 0.929 . S
O978 Mn954 2.385 . S
O978 C956 1.234 . S
O979 Mn954 2.209 . S
O979 Mn955 2.215 . S
O979 C956 1.283 . S
O980 Mn954 2.094 . S
O980 C958 1.240 . S
O981 Mn955 2.117 . S
O981 C958 1.264 . S
C982 C975 1.403 . S
C982 C983 1.399 . S
C982 H988 0.929 . S
C983 C963 1.449 . S
C983 C982 1.399 . S
C983 H989 0.930 . S
H984 C964 0.931 . S
H985 C965 0.930 . S
H986 C973 0.931 . S
H987 C974 0.929 . S
H988 C982 0.929 . S
H989 C983 0.930 . S
Mn990 O995 2.095 . S
Mn990 O1005 2.162 . S
Mn990 O1006 2.297 . S
Mn990 O1014 2.385 . S
Mn990 O1015 2.209 . S
Mn990 O1016 2.094 . S
Mn991 O996 2.121 . S
Mn991 N998 2.257 1_655 S
Mn991 N1007 2.282 1_655 S
Mn991 O1015 2.215 . S
Mn991 O1017 2.117 . S
C992 O1014 1.234 1_455 S
C992 O1015 1.283 1_455 S
C993 O1005 1.281 . S
C993 O1006 1.236 . S
C994 O1016 1.240 . S
C994 O1017 1.264 . S
O995 Mn990 2.095 . S
O995 C1004 1.250 . S
O996 Mn991 2.121 . S
O996 C1004 1.258 . S
C997 N998 1.326 . S
C997 C1001 1.460 . S
C997 H1003 0.929 1_455 S
N998 Mn991 2.257 1_455 S
N998 C997 1.326 . S
N998 C1002 1.362 . S
C999 C1000 1.258 . S
C999 C1002 1.431 . S
C999 C1019 1.449 . S
C1000 C999 1.258 . S
C1000 C1001 1.477 . S
C1000 H1020 0.931 . S
C1001 C997 1.460 . S
C1001 C1000 1.477 . S
C1001 H1021 0.930 . S
C1002 N998 1.362 . S
C1002 C999 1.431 . S
C1002 C1012 1.476 . S
H1003 C997 0.929 1_655 S
C1004 O995 1.250 . S
C1004 O996 1.258 . S
O1005 Mn990 2.162 . S
O1005 C993 1.281 . S
O1006 Mn990 2.297 . S
O1006 C993 1.236 . S
N1007 Mn991 2.282 1_455 S
N1007 C1008 1.328 . S
N1007 C1012 1.318 . S
C1008 N1007 1.328 . S
C1008 C1009 1.457 . S
C1008 H1013 0.929 . S
C1009 C1008 1.457 . S
C1009 C1010 1.291 . S
C1009 H1022 0.931 . S
C1010 C1009 1.291 . S
C1010 C1011 1.373 . S
C1010 H1023 0.929 . S
C1011 C1010 1.373 . S
C1011 C1012 1.396 . S
C1011 C1018 1.403 . S
C1012 C1002 1.476 . S
C1012 N1007 1.318 . S
C1012 C1011 1.396 . S
H1013 C1008 0.929 . S
O1014 Mn990 2.385 . S
O1014 C992 1.234 1_655 S
O1015 Mn990 2.209 . S
O1015 Mn991 2.215 . S
O1015 C992 1.283 1_655 S
O1016 Mn990 2.094 . S
O1016 C994 1.240 . S
O1017 Mn991 2.117 . S
O1017 C994 1.264 . S
C1018 C1011 1.403 . S
C1018 C1019 1.399 . S
C1018 H1024 0.929 . S
C1019 C999 1.449 . S
C1019 C1018 1.399 . S
C1019 H1025 0.930 . S
H1020 C1000 0.931 . S
H1021 C1001 0.930 . S
H1022 C1009 0.931 . S
H1023 C1010 0.929 . S
H1024 C1018 0.929 . S
H1025 C1019 0.930 . S
Mn1026 O1031 2.095 . S
Mn1026 O1041 2.162 . S
Mn1026 O1042 2.297 . S
Mn1026 O1050 2.385 . S
Mn1026 O1051 2.209 . S
Mn1026 O1052 2.094 . S
Mn1027 O1032 2.121 . S
Mn1027 N1034 2.257 . S
Mn1027 N1043 2.282 . S
Mn1027 O1051 2.215 . S
Mn1027 O1053 2.117 . S
C1028 O1050 1.234 . S
C1028 O1051 1.283 . S
C1029 O1041 1.281 . S
C1029 O1042 1.236 . S
C1030 O1052 1.240 . S
C1030 O1053 1.264 . S
O1031 Mn1026 2.095 . S
O1031 C1040 1.250 . S
O1032 Mn1027 2.121 . S
O1032 C1040 1.258 . S
C1033 N1034 1.326 . S
C1033 C1037 1.460 . S
C1033 H1039 0.929 . S
N1034 Mn1027 2.257 . S
N1034 C1033 1.326 . S
N1034 C1038 1.362 . S
C1035 C1036 1.258 . S
C1035 C1038 1.431 . S
C1035 C1055 1.449 . S
C1036 C1035 1.258 . S
C1036 C1037 1.477 . S
C1036 H1056 0.931 . S
C1037 C1033 1.460 . S
C1037 C1036 1.477 . S
C1037 H1057 0.930 . S
C1038 N1034 1.362 . S
C1038 C1035 1.431 . S
C1038 C1048 1.476 . S
H1039 C1033 0.929 . S
C1040 O1031 1.250 . S
C1040 O1032 1.258 . S
O1041 Mn1026 2.162 . S
O1041 C1029 1.281 . S
O1042 Mn1026 2.297 . S
O1042 C1029 1.236 . S
N1043 Mn1027 2.282 . S
N1043 C1044 1.328 . S
N1043 C1048 1.318 . S
C1044 N1043 1.328 . S
C1044 C1045 1.457 . S
C1044 H1049 0.929 . S
C1045 C1044 1.457 . S
C1045 C1046 1.291 . S
C1045 H1058 0.931 . S
C1046 C1045 1.291 . S
C1046 C1047 1.373 . S
C1046 H1059 0.929 . S
C1047 C1046 1.373 . S
C1047 C1048 1.396 . S
C1047 C1054 1.403 . S
C1048 C1038 1.476 . S
C1048 N1043 1.318 . S
C1048 C1047 1.396 . S
H1049 C1044 0.929 . S
O1050 Mn1026 2.385 . S
O1050 C1028 1.234 . S
O1051 Mn1026 2.209 . S
O1051 Mn1027 2.215 . S
O1051 C1028 1.283 . S
O1052 Mn1026 2.094 . S
O1052 C1030 1.240 . S
O1053 Mn1027 2.117 . S
O1053 C1030 1.264 . S
C1054 C1047 1.403 . S
C1054 C1055 1.399 . S
C1054 H1060 0.929 . S
C1055 C1035 1.449 . S
C1055 C1054 1.399 . S
C1055 H1061 0.930 . S
H1056 C1036 0.931 . S
H1057 C1037 0.930 . S
H1058 C1045 0.931 . S
H1059 C1046 0.929 . S
H1060 C1054 0.929 . S
H1061 C1055 0.930 . S
H1062 C1070 0.950 1_556 S
H1063 C1075 0.950 . S
H1064 C1072 0.950 . S
H1065 C1074 0.950 . S
H1066 C1076 0.950 . S
H1067 C1078 0.950 . S
H1068 C1080 0.950 . S
H1069 C1081 0.950 . S
C1070 H1062 0.950 1_554 S
C1070 C1071 1.386 . S
C1070 C1072 1.391 . S
C1071 C1070 1.386 . S
C1071 C1075 1.393 . S
C1072 H1064 0.950 . S
C1072 C1070 1.391 . S
C1072 C1073 1.400 . S
C1073 C1072 1.400 . S
C1073 C1074 1.398 . S
C1073 C1079 1.491 . S
C1074 H1065 0.950 . S
C1074 C1073 1.398 . S
C1074 C1075 1.391 . S
C1075 H1063 0.950 . S
C1075 C1071 1.393 . S
C1075 C1074 1.391 . S
C1076 H1066 0.950 . S
C1076 C1077 1.386 . S
C1076 C1078 1.391 . S
C1077 C1076 1.386 . S
C1077 C1081 1.393 . S
C1078 H1067 0.950 . S
C1078 C1076 1.391 . S
C1078 C1079 1.400 . S
C1079 C1073 1.491 . S
C1079 C1078 1.400 . S
C1079 C1080 1.398 . S
C1080 H1068 0.950 . S
C1080 C1079 1.398 . S
C1080 C1081 1.391 . S
C1081 H1069 0.950 . S
C1081 C1077 1.393 . S
C1081 C1080 1.391 . S
H1082 C1090 0.950 . S
H1083 C1095 0.950 . S
H1084 C1092 0.950 . S
H1085 C1094 0.950 . S
H1086 C1096 0.950 . S
H1087 C1098 0.950 . S
H1088 C1100 0.950 . S
H1089 C1101 0.950 . S
C1090 H1082 0.950 . S
C1090 C1091 1.386 . S
C1090 C1092 1.391 . S
C1091 C1090 1.386 . S
C1091 C1095 1.393 . S
C1092 H1084 0.950 . S
C1092 C1090 1.391 . S
C1092 C1093 1.400 . S
C1093 C1092 1.400 . S
C1093 C1094 1.398 . S
C1093 C1099 1.491 . S
C1094 H1085 0.950 . S
C1094 C1093 1.398 . S
C1094 C1095 1.391 . S
C1095 H1083 0.950 . S
C1095 C1091 1.393 . S
C1095 C1094 1.391 . S
C1096 H1086 0.950 . S
C1096 C1097 1.386 . S
C1096 C1098 1.391 . S
C1097 C1096 1.386 . S
C1097 C1101 1.393 . S
C1098 H1087 0.950 . S
C1098 C1096 1.391 . S
C1098 C1099 1.400 . S
C1099 C1093 1.491 . S
C1099 C1098 1.400 . S
C1099 C1100 1.398 . S
C1100 H1088 0.950 . S
C1100 C1099 1.398 . S
C1100 C1101 1.391 . S
C1101 H1089 0.950 . S
C1101 C1097 1.393 . S
C1101 C1100 1.391 . S
H1102 C1110 0.954 . S
H1103 C1115 0.950 . S
H1104 C1112 0.958 . S
H1105 C1114 0.950 . S
H1106 C1116 0.950 . S
H1107 C1118 0.950 . S
H1108 C1120 0.951 . S
H1109 C1121 0.925 1_545 S
C1110 H1102 0.954 . S
C1110 C1111 1.357 1_545 S
C1110 C1112 1.412 . S
C1111 C1110 1.357 1_565 S
C1111 C1115 1.393 . S
C1112 H1104 0.958 . S
C1112 C1110 1.412 . S
C1112 C1113 1.400 1_545 S
C1113 C1112 1.400 1_565 S
C1113 C1114 1.398 . S
C1113 C1119 1.491 . S
C1114 H1105 0.950 . S
C1114 C1113 1.398 . S
C1114 C1115 1.391 . S
C1115 H1103 0.950 . S
C1115 C1111 1.393 . S
C1115 C1114 1.391 . S
C1116 H1106 0.950 . S
C1116 C1117 1.386 . S
C1116 C1118 1.391 . S
C1117 C1116 1.386 . S
C1117 C1121 1.397 . S
C1118 H1107 0.950 . S
C1118 C1116 1.391 . S
C1118 C1119 1.400 . S
C1119 C1113 1.491 . S
C1119 C1118 1.400 . S
C1119 C1120 1.395 1_565 S
C1120 H1108 0.951 . S
C1120 C1119 1.395 1_545 S
C1120 C1121 1.417 1_545 S
C1121 H1109 0.925 1_565 S
C1121 C1117 1.397 . S
C1121 C1120 1.417 1_565 S
H1122 C1130 0.950 . S
H1123 C1135 0.950 . S
H1124 C1132 0.950 . S
H1125 C1134 0.950 . S
H1126 C1136 0.950 . S
H1127 C1138 0.950 . S
H1128 C1140 0.950 . S
H1129 C1141 0.950 . S
C1130 H1122 0.950 . S
C1130 C1131 1.386 . S
C1130 C1132 1.391 . S
C1131 C1130 1.386 . S
C1131 C1135 1.393 . S
C1132 H1124 0.950 . S
C1132 C1130 1.391 . S
C1132 C1133 1.400 . S
C1133 C1132 1.400 . S
C1133 C1134 1.398 . S
C1133 C1139 1.491 . S
C1134 H1125 0.950 . S
C1134 C1133 1.398 . S
C1134 C1135 1.391 . S
C1135 H1123 0.950 . S
C1135 C1131 1.393 . S
C1135 C1134 1.391 . S
C1136 H1126 0.950 . S
C1136 C1137 1.386 . S
C1136 C1138 1.391 . S
C1137 C1136 1.386 . S
C1137 C1141 1.393 . S
C1138 H1127 0.950 . S
C1138 C1136 1.391 . S
C1138 C1139 1.400 . S
C1139 C1133 1.491 . S
C1139 C1138 1.400 . S
C1139 C1140 1.398 . S
C1140 H1128 0.950 . S
C1140 C1139 1.398 . S
C1140 C1141 1.391 . S
C1141 H1129 0.950 . S
C1141 C1137 1.393 . S
C1141 C1140 1.391 . S
H1142 C1150 0.950 . S
H1143 C1155 0.950 . S
H1144 C1152 0.950 . S
H1145 C1154 0.950 . S
H1146 C1156 0.953 . S
H1147 C1158 0.950 . S
H1148 C1160 0.935 1_655 S
H1149 C1161 0.950 . S
C1150 H1142 0.950 . S
C1150 C1151 1.386 . S
C1150 C1152 1.391 . S
C1151 C1150 1.386 . S
C1151 C1155 1.393 . S
C1152 H1144 0.950 . S
C1152 C1150 1.391 . S
C1152 C1153 1.400 . S
C1153 C1152 1.400 . S
C1153 C1154 1.398 . S
C1153 C1159 1.491 . S
C1154 H1145 0.950 . S
C1154 C1153 1.398 . S
C1154 C1155 1.391 . S
C1155 H1143 0.950 . S
C1155 C1151 1.393 . S
C1155 C1154 1.391 . S
C1156 H1146 0.953 . S
C1156 C1157 1.373 1_455 S
C1156 C1158 1.389 . S
C1157 C1156 1.373 1_655 S
C1157 C1161 1.393 . S
C1158 H1147 0.950 . S
C1158 C1156 1.389 . S
C1158 C1159 1.400 . S
C1159 C1153 1.491 . S
C1159 C1158 1.400 . S
C1159 C1160 1.404 . S
C1160 H1148 0.935 1_455 S
C1160 C1159 1.404 . S
C1160 C1161 1.392 1_455 S
C1161 H1149 0.950 . S
C1161 C1157 1.393 . S
C1161 C1160 1.392 1_655 S
H1162 C1170 0.950 . S
H1163 C1175 0.950 . S
H1164 C1172 0.950 . S
H1165 C1174 0.950 . S
H1166 C1176 0.950 . S
H1167 C1178 0.950 . S
H1168 C1180 0.950 . S
H1169 C1181 0.950 . S
C1170 H1162 0.950 . S
C1170 C1171 1.386 . S
C1170 C1172 1.391 . S
C1171 C1170 1.386 . S
C1171 C1175 1.393 . S
C1172 H1164 0.950 . S
C1172 C1170 1.391 . S
C1172 C1173 1.400 . S
C1173 C1172 1.400 . S
C1173 C1174 1.398 . S
C1173 C1179 1.491 . S
C1174 H1165 0.950 . S
C1174 C1173 1.398 . S
C1174 C1175 1.391 . S
C1175 H1163 0.950 . S
C1175 C1171 1.393 . S
C1175 C1174 1.391 . S
C1176 H1166 0.950 . S
C1176 C1177 1.386 . S
C1176 C1178 1.391 . S
C1177 C1176 1.386 . S
C1177 C1181 1.393 . S
C1178 H1167 0.950 . S
C1178 C1176 1.391 . S
C1178 C1179 1.400 . S
C1179 C1173 1.491 . S
C1179 C1178 1.400 . S
C1179 C1180 1.398 . S
C1180 H1168 0.950 . S
C1180 C1179 1.398 . S
C1180 C1181 1.391 . S
C1181 H1169 0.950 . S
C1181 C1177 1.393 . S
C1181 C1180 1.391 . S
H1182 C1190 0.950 . S
H1183 C1195 0.950 . S
H1184 C1192 0.950 . S
H1185 C1194 0.950 1_655 S
H1186 C1196 0.950 . S
H1187 C1198 0.950 . S
H1188 C1200 0.950 . S
H1189 C1201 0.950 . S
C1190 H1182 0.950 . S
C1190 C1191 1.386 . S
C1190 C1192 1.391 . S
C1191 C1190 1.386 . S
C1191 C1195 1.393 . S
C1192 H1184 0.950 . S
C1192 C1190 1.391 . S
C1192 C1193 1.400 . S
C1193 C1192 1.400 . S
C1193 C1194 1.398 . S
C1193 C1199 1.491 . S
C1194 H1185 0.950 1_455 S
C1194 C1193 1.398 . S
C1194 C1195 1.391 . S
C1195 H1183 0.950 . S
C1195 C1191 1.393 . S
C1195 C1194 1.391 . S
C1196 H1186 0.950 . S
C1196 C1197 1.375 1_655 S
C1196 C1198 1.391 . S
C1197 C1196 1.375 1_455 S
C1197 C1201 1.452 . S
C1198 H1187 0.950 . S
C1198 C1196 1.391 . S
C1198 C1199 1.400 1_655 S
C1199 C1193 1.491 . S
C1199 C1198 1.400 1_455 S
C1199 C1200 1.398 . S
C1200 H1188 0.950 . S
C1200 C1199 1.398 . S
C1200 C1201 1.391 . S
C1201 H1189 0.950 . S
C1201 C1197 1.452 . S
C1201 C1200 1.391 . S
H1202 C1210 0.950 . S
H1203 C1215 0.950 . S
H1204 C1212 0.950 . S
H1205 C1214 0.950 . S
H1206 C1216 0.950 . S
H1207 C1218 0.950 . S
H1208 C1220 0.950 1_554 S
H1209 C1221 0.950 . S
C1210 H1202 0.950 . S
C1210 C1211 1.386 1_554 S
C1210 C1212 1.391 . S
C1211 C1210 1.386 1_556 S
C1211 C1215 1.393 . S
C1212 H1204 0.950 . S
C1212 C1210 1.391 . S
C1212 C1213 1.400 1_554 S
C1213 C1212 1.400 1_556 S
C1213 C1214 1.398 . S
C1213 C1219 1.491 . S
C1214 H1205 0.950 . S
C1214 C1213 1.398 . S
C1214 C1215 1.391 . S
C1215 H1203 0.950 . S
C1215 C1211 1.393 . S
C1215 C1214 1.391 . S
C1216 H1206 0.950 . S
C1216 C1217 1.386 . S
C1216 C1218 1.391 . S
C1217 C1216 1.386 . S
C1217 C1221 1.393 . S
C1218 H1207 0.950 . S
C1218 C1216 1.391 . S
C1218 C1219 1.400 . S
C1219 C1213 1.491 . S
C1219 C1218 1.400 . S
C1219 C1220 1.398 . S
C1220 H1208 0.950 1_556 S
C1220 C1219 1.398 . S
C1220 C1221 1.391 . S
C1221 H1209 0.950 . S
C1221 C1217 1.393 . S
C1221 C1220 1.391 . S
H1222 C1230 0.950 . S
H1223 C1235 0.950 . S
H1224 C1232 0.950 . S
H1225 C1234 0.970 . S
H1226 C1236 0.950 . S
H1227 C1238 0.950 . S
H1228 C1240 0.950 . S
H1229 C1241 0.950 . S
C1230 H1222 0.950 . S
C1230 C1231 1.386 . S
C1230 C1232 1.391 . S
C1231 C1230 1.386 . S
C1231 C1235 1.393 1_556 S
C1232 H1224 0.950 . S
C1232 C1230 1.391 . S
C1232 C1233 1.400 . S
C1233 C1232 1.400 . S
C1233 C1234 1.370 1_556 S
C1233 C1239 1.491 . S
C1234 H1225 0.970 . S
C1234 C1233 1.370 1_554 S
C1234 C1235 1.401 . S
C1235 H1223 0.950 . S
C1235 C1231 1.393 1_554 S
C1235 C1234 1.401 . S
C1236 H1226 0.950 . S
C1236 C1237 1.386 . S
C1236 C1238 1.391 . S
C1237 C1236 1.386 . S
C1237 C1241 1.393 . S
C1238 H1227 0.950 . S
C1238 C1236 1.391 . S
C1238 C1239 1.400 . S
C1239 C1233 1.491 . S
C1239 C1238 1.400 . S
C1239 C1240 1.398 . S
C1240 H1228 0.950 . S
C1240 C1239 1.398 . S
C1240 C1241 1.391 . S
C1241 H1229 0.950 . S
C1241 C1237 1.393 . S
C1241 C1240 1.391 . S
H1242 C1250 0.950 . S
H1243 C1255 0.950 . S
H1244 C1252 0.950 . S
H1245 C1254 0.950 . S
H1246 C1256 0.950 . S
H1247 C1258 0.950 . S
H1248 C1260 0.950 . S
H1249 C1261 0.950 . S
C1250 H1242 0.950 . S
C1250 C1251 1.386 1_565 S
C1250 C1252 1.391 . S
C1251 C1250 1.386 1_545 S
C1251 C1255 1.393 . S
C1252 H1244 0.950 . S
C1252 C1250 1.391 . S
C1252 C1253 1.400 1_565 S
C1253 C1252 1.400 1_545 S
C1253 C1254 1.398 . S
C1253 C1259 1.491 . S
C1254 H1245 0.950 . S
C1254 C1253 1.398 . S
C1254 C1255 1.391 . S
C1255 H1243 0.950 . S
C1255 C1251 1.393 . S
C1255 C1254 1.391 . S
C1256 H1246 0.950 . S
C1256 C1257 1.403 . S
C1256 C1258 1.391 . S
C1257 C1256 1.403 . S
C1257 C1261 1.387 1_545 S
C1258 H1247 0.950 . S
C1258 C1256 1.391 . S
C1258 C1259 1.400 . S
C1259 C1253 1.491 . S
C1259 C1258 1.400 . S
C1259 C1260 1.398 1_545 S
C1260 H1248 0.950 . S
C1260 C1259 1.398 1_565 S
C1260 C1261 1.391 . S
C1261 H1249 0.950 . S
C1261 C1257 1.387 1_565 S
C1261 C1260 1.391 . S
H1262 C1270 0.950 . S
H1263 C1275 0.950 . S
H1264 C1272 0.950 . S
H1265 C1274 0.950 . S
H1266 C1276 0.950 . S
H1267 C1278 0.950 . S
H1268 C1280 0.950 . S
H1269 C1281 0.950 . S
C1270 H1262 0.950 . S
C1270 C1271 1.386 . S
C1270 C1272 1.391 . S
C1271 C1270 1.386 . S
C1271 C1275 1.393 . S
C1272 H1264 0.950 . S
C1272 C1270 1.391 . S
C1272 C1273 1.400 . S
C1273 C1272 1.400 . S
C1273 C1274 1.398 . S
C1273 C1279 1.491 . S
C1274 H1265 0.950 . S
C1274 C1273 1.398 . S
C1274 C1275 1.391 . S
C1275 H1263 0.950 . S
C1275 C1271 1.393 . S
C1275 C1274 1.391 . S
C1276 H1266 0.950 . S
C1276 C1277 1.386 . S
C1276 C1278 1.391 . S
C1277 C1276 1.386 . S
C1277 C1281 1.393 . S
C1278 H1267 0.950 . S
C1278 C1276 1.391 . S
C1278 C1279 1.400 . S
C1279 C1273 1.491 . S
C1279 C1278 1.400 . S
C1279 C1280 1.398 . S
C1280 H1268 0.950 . S
C1280 C1279 1.398 . S
C1280 C1281 1.391 . S
C1281 H1269 0.950 . S
C1281 C1277 1.393 . S
C1281 C1280 1.391 . S
H1282 C1290 0.950 . S
H1283 C1295 0.950 . S
H1284 C1292 0.950 . S
H1285 C1294 0.950 . S
H1286 C1296 0.950 . S
H1287 C1298 0.950 . S
H1288 C1300 0.950 . S
H1289 C1301 0.950 . S
C1290 H1282 0.950 . S
C1290 C1291 1.386 . S
C1290 C1292 1.391 . S
C1291 C1290 1.386 . S
C1291 C1295 1.393 . S
C1292 H1284 0.950 . S
C1292 C1290 1.391 . S
C1292 C1293 1.400 . S
C1293 C1292 1.400 . S
C1293 C1294 1.398 . S
C1293 C1299 1.491 . S
C1294 H1285 0.950 . S
C1294 C1293 1.398 . S
C1294 C1295 1.391 . S
C1295 H1283 0.950 . S
C1295 C1291 1.393 . S
C1295 C1294 1.391 . S
C1296 H1286 0.950 . S
C1296 C1297 1.386 . S
C1296 C1298 1.391 . S
C1297 C1296 1.386 . S
C1297 C1301 1.393 . S
C1298 H1287 0.950 . S
C1298 C1296 1.391 . S
C1298 C1299 1.400 . S
C1299 C1293 1.491 . S
C1299 C1298 1.400 . S
C1299 C1300 1.398 . S
C1300 H1288 0.950 . S
C1300 C1299 1.398 . S
C1300 C1301 1.391 . S
C1301 H1289 0.950 . S
C1301 C1297 1.393 . S
C1301 C1300 1.391 . S
H1302 C1310 0.950 . S
H1303 C1315 0.950 . S
H1304 C1312 0.950 . S
H1305 C1314 0.950 . S
H1306 C1316 0.950 . S
H1307 C1318 0.950 . S
H1308 C1320 0.950 . S
H1309 C1321 0.950 . S
C1310 H1302 0.950 . S
C1310 C1311 1.386 . S
C1310 C1312 1.391 . S
C1311 C1310 1.386 . S
C1311 C1315 1.393 . S
C1312 H1304 0.950 . S
C1312 C1310 1.391 . S
C1312 C1313 1.400 . S
C1313 C1312 1.400 . S
C1313 C1314 1.398 . S
C1313 C1319 1.491 . S
C1314 H1305 0.950 . S
C1314 C1313 1.398 . S
C1314 C1315 1.391 . S
C1315 H1303 0.950 . S
C1315 C1311 1.393 . S
C1315 C1314 1.391 . S
C1316 H1306 0.950 . S
C1316 C1317 1.386 . S
C1316 C1318 1.391 . S
C1317 C1316 1.386 . S
C1317 C1321 1.393 . S
C1318 H1307 0.950 . S
C1318 C1316 1.391 . S
C1318 C1319 1.400 . S
C1319 C1313 1.491 . S
C1319 C1318 1.400 . S
C1319 C1320 1.398 . S
C1320 H1308 0.950 . S
C1320 C1319 1.398 . S
C1320 C1321 1.391 . S
C1321 H1309 0.950 . S
C1321 C1317 1.393 . S
C1321 C1320 1.391 . S
H1322 C1330 0.950 . S
H1323 C1335 0.950 . S
H1324 C1332 0.950 . S
H1325 C1334 0.950 1_545 S
H1326 C1336 0.950 . S
H1327 C1338 0.950 . S
H1328 C1340 0.950 . S
H1329 C1341 0.950 . S
C1330 H1322 0.950 . S
C1330 C1331 1.386 . S
C1330 C1332 1.391 . S
C1331 C1330 1.386 . S
C1331 C1335 1.393 . S
C1332 H1324 0.950 . S
C1332 C1330 1.391 . S
C1332 C1333 1.455 . S
C1333 C1332 1.455 . S
C1333 C1334 1.382 . S
C1333 C1339 1.457 1_565 S
C1334 H1325 0.950 1_565 S
C1334 C1333 1.382 . S
C1334 C1335 1.391 . S
C1335 H1323 0.950 . S
C1335 C1331 1.393 . S
C1335 C1334 1.391 . S
C1336 H1326 0.950 . S
C1336 C1337 1.386 . S
C1336 C1338 1.391 . S
C1337 C1336 1.386 . S
C1337 C1341 1.393 . S
C1338 H1327 0.950 . S
C1338 C1336 1.391 . S
C1338 C1339 1.400 . S
C1339 C1333 1.457 1_545 S
C1339 C1338 1.400 . S
C1339 C1340 1.398 . S
C1340 H1328 0.950 . S
C1340 C1339 1.398 . S
C1340 C1341 1.391 . S
C1341 H1329 0.950 . S
C1341 C1337 1.393 . S
C1341 C1340 1.391 . S
H1342 C1350 0.950 . S
H1343 C1355 0.950 . S
H1344 C1352 0.950 . S
H1345 C1354 0.950 . S
H1346 C1356 0.950 . S
H1347 C1358 0.950 . S
H1348 C1360 0.950 . S
H1349 C1361 0.950 . S
C1350 H1342 0.950 . S
C1350 C1351 1.386 . S
C1350 C1352 1.391 . S
C1351 C1350 1.386 . S
C1351 C1355 1.393 . S
C1352 H1344 0.950 . S
C1352 C1350 1.391 . S
C1352 C1353 1.400 . S
C1353 C1352 1.400 . S
C1353 C1354 1.398 . S
C1353 C1359 1.491 . S
C1354 H1345 0.950 . S
C1354 C1353 1.398 . S
C1354 C1355 1.391 . S
C1355 H1343 0.950 . S
C1355 C1351 1.393 . S
C1355 C1354 1.391 . S
C1356 H1346 0.950 . S
C1356 C1357 1.386 . S
C1356 C1358 1.391 . S
C1357 C1356 1.386 . S
C1357 C1361 1.393 . S
C1358 H1347 0.950 . S
C1358 C1356 1.391 . S
C1358 C1359 1.400 . S
C1359 C1353 1.491 . S
C1359 C1358 1.400 . S
C1359 C1360 1.398 . S
C1360 H1348 0.950 . S
C1360 C1359 1.398 . S
C1360 C1361 1.391 . S
C1361 H1349 0.950 . S
C1361 C1357 1.393 . S
C1361 C1360 1.391 . S
H1362 C1370 0.950 . S
H1363 C1375 0.950 . S
H1364 C1372 0.950 . S
H1365 C1374 0.950 . S
H1366 C1376 0.950 . S
H1367 C1378 0.950 . S
H1368 C1380 0.950 . S
H1369 C1381 0.950 . S
C1370 H1362 0.950 . S
C1370 C1371 1.386 . S
C1370 C1372 1.391 . S
C1371 C1370 1.386 . S
C1371 C1375 1.393 . S
C1372 H1364 0.950 . S
C1372 C1370 1.391 . S
C1372 C1373 1.400 . S
C1373 C1372 1.400 . S
C1373 C1374 1.398 . S
C1373 C1379 1.491 . S
C1374 H1365 0.950 . S
C1374 C1373 1.398 . S
C1374 C1375 1.391 . S
C1375 H1363 0.950 . S
C1375 C1371 1.393 . S
C1375 C1374 1.391 . S
C1376 H1366 0.950 . S
C1376 C1377 1.386 . S
C1376 C1378 1.391 . S
C1377 C1376 1.386 . S
C1377 C1381 1.393 . S
C1378 H1367 0.950 . S
C1378 C1376 1.391 . S
C1378 C1379 1.400 . S
C1379 C1373 1.491 . S
C1379 C1378 1.400 . S
C1379 C1380 1.398 . S
C1380 H1368 0.950 . S
C1380 C1379 1.398 . S
C1380 C1381 1.391 . S
C1381 H1369 0.950 . S
C1381 C1377 1.393 . S
C1381 C1380 1.391 . S
H1382 C1390 0.950 . S
H1383 C1395 0.950 . S
H1384 C1392 0.950 . S
H1385 C1394 0.950 . S
H1386 C1396 0.950 . S
H1387 C1398 0.950 . S
H1388 C1400 0.950 . S
H1389 C1401 0.950 . S
C1390 H1382 0.950 . S
C1390 C1391 1.386 . S
C1390 C1392 1.391 . S
C1391 C1390 1.386 . S
C1391 C1395 1.393 . S
C1392 H1384 0.950 . S
C1392 C1390 1.391 . S
C1392 C1393 1.400 . S
C1393 C1392 1.400 . S
C1393 C1394 1.398 . S
C1393 C1399 1.491 . S
C1394 H1385 0.950 . S
C1394 C1393 1.398 . S
C1394 C1395 1.391 . S
C1395 H1383 0.950 . S
C1395 C1391 1.393 . S
C1395 C1394 1.391 . S
C1396 H1386 0.950 . S
C1396 C1397 1.386 . S
C1396 C1398 1.391 . S
C1397 C1396 1.386 . S
C1397 C1401 1.393 . S
C1398 H1387 0.950 . S
C1398 C1396 1.391 . S
C1398 C1399 1.400 . S
C1399 C1393 1.491 . S
C1399 C1398 1.400 . S
C1399 C1400 1.398 . S
C1400 H1388 0.950 . S
C1400 C1399 1.398 . S
C1400 C1401 1.391 . S
C1401 H1389 0.950 . S
C1401 C1397 1.393 . S
C1401 C1400 1.391 . S
H1402 C1410 0.950 . S
H1403 C1415 0.950 . S
H1404 C1412 0.950 . S
H1405 C1414 0.950 . S
H1406 C1416 0.950 1_545 S
H1407 C1418 0.950 . S
H1408 C1420 0.950 . S
H1409 C1421 0.950 . S
C1410 H1402 0.950 . S
C1410 C1411 1.386 . S
C1410 C1412 1.391 . S
C1411 C1410 1.386 . S
C1411 C1415 1.393 . S
C1412 H1404 0.950 . S
C1412 C1410 1.391 . S
C1412 C1413 1.400 . S
C1413 C1412 1.400 . S
C1413 C1414 1.398 . S
C1413 C1419 1.491 . S
C1414 H1405 0.950 . S
C1414 C1413 1.398 . S
C1414 C1415 1.391 . S
C1415 H1403 0.950 . S
C1415 C1411 1.393 . S
C1415 C1414 1.391 . S
C1416 H1406 0.950 1_565 S
C1416 C1417 1.386 . S
C1416 C1418 1.391 . S
C1417 C1416 1.386 . S
C1417 C1421 1.393 . S
C1418 H1407 0.950 . S
C1418 C1416 1.391 . S
C1418 C1419 1.400 . S
C1419 C1413 1.491 . S
C1419 C1418 1.400 . S
C1419 C1420 1.398 . S
C1420 H1408 0.950 . S
C1420 C1419 1.398 . S
C1420 C1421 1.391 . S
C1421 H1409 0.950 . S
C1421 C1417 1.393 . S
C1421 C1420 1.391 . S
H1422 C1430 0.950 . S
H1423 C1435 0.950 . S
H1424 C1432 0.950 . S
H1425 C1434 0.950 . S
H1426 C1436 0.950 . S
H1427 C1438 0.950 1_565 S
H1428 C1440 0.979 . S
H1429 C1441 0.950 . S
C1430 H1422 0.950 . S
C1430 C1431 1.386 . S
C1430 C1432 1.391 . S
C1431 C1430 1.386 . S
C1431 C1435 1.393 . S
C1432 H1424 0.950 . S
C1432 C1430 1.391 . S
C1432 C1433 1.400 . S
C1433 C1432 1.400 . S
C1433 C1434 1.398 . S
C1433 C1439 1.491 . S
C1434 H1425 0.950 . S
C1434 C1433 1.398 . S
C1434 C1435 1.391 . S
C1435 H1423 0.950 . S
C1435 C1431 1.393 . S
C1435 C1434 1.391 . S
C1436 H1426 0.950 . S
C1436 C1437 1.386 . S
C1436 C1438 1.391 . S
C1437 C1436 1.386 . S
C1437 C1441 1.393 . S
C1438 H1427 0.950 1_545 S
C1438 C1436 1.391 . S
C1438 C1439 1.400 1_545 S
C1439 C1433 1.491 . S
C1439 C1438 1.400 1_565 S
C1439 C1440 1.416 . S
C1440 H1428 0.979 . S
C1440 C1439 1.416 . S
C1440 C1441 1.346 1_565 S
C1441 H1429 0.950 . S
C1441 C1437 1.393 . S
C1441 C1440 1.346 1_545 S
H1442 C1450 0.950 . S
H1443 C1455 0.950 . S
H1444 C1452 0.950 . S
H1445 C1454 0.950 . S
H1446 C1456 0.950 . S
H1447 C1458 0.950 . S
H1448 C1460 0.950 . S
H1449 C1461 0.950 . S
C1450 H1442 0.950 . S
C1450 C1451 1.386 . S
C1450 C1452 1.391 . S
C1451 C1450 1.386 . S
C1451 C1455 1.393 . S
C1452 H1444 0.950 . S
C1452 C1450 1.391 . S
C1452 C1453 1.400 . S
C1453 C1452 1.400 . S
C1453 C1454 1.398 . S
C1453 C1459 1.491 . S
C1454 H1445 0.950 . S
C1454 C1453 1.398 . S
C1454 C1455 1.391 . S
C1455 H1443 0.950 . S
C1455 C1451 1.393 . S
C1455 C1454 1.391 . S
C1456 H1446 0.950 . S
C1456 C1457 1.386 . S
C1456 C1458 1.391 . S
C1457 C1456 1.386 . S
C1457 C1461 1.393 . S
C1458 H1447 0.950 . S
C1458 C1456 1.391 . S
C1458 C1459 1.400 . S
C1459 C1453 1.491 . S
C1459 C1458 1.400 . S
C1459 C1460 1.398 . S
C1460 H1448 0.950 . S
C1460 C1459 1.398 . S
C1460 C1461 1.391 . S
C1461 H1449 0.950 . S
C1461 C1457 1.393 . S
C1461 C1460 1.391 . S
H1462 C1470 0.950 . S
H1463 C1475 0.950 . S
H1464 C1472 0.950 . S
H1465 C1474 0.950 . S
H1466 C1476 0.950 . S
H1467 C1478 0.950 . S
H1468 C1480 0.950 . S
H1469 C1481 0.950 . S
C1470 H1462 0.950 . S
C1470 C1471 1.386 . S
C1470 C1472 1.391 . S
C1471 C1470 1.386 . S
C1471 C1475 1.393 . S
C1472 H1464 0.950 . S
C1472 C1470 1.391 . S
C1472 C1473 1.400 . S
C1473 C1472 1.400 . S
C1473 C1474 1.398 . S
C1473 C1479 1.491 . S
C1474 H1465 0.950 . S
C1474 C1473 1.398 . S
C1474 C1475 1.391 . S
C1475 H1463 0.950 . S
C1475 C1471 1.393 . S
C1475 C1474 1.391 . S
C1476 H1466 0.950 . S
C1476 C1477 1.386 . S
C1476 C1478 1.391 . S
C1477 C1476 1.386 . S
C1477 C1481 1.393 . S
C1478 H1467 0.950 . S
C1478 C1476 1.391 . S
C1478 C1479 1.400 . S
C1479 C1473 1.491 . S
C1479 C1478 1.400 . S
C1479 C1480 1.398 . S
C1480 H1468 0.950 . S
C1480 C1479 1.398 . S
C1480 C1481 1.391 . S
C1481 H1469 0.950 . S
C1481 C1477 1.393 . S
C1481 C1480 1.391 . S
H1482 C1490 0.950 . S
H1483 C1495 0.950 . S
H1484 C1492 0.950 . S
H1485 C1494 0.950 . S
H1486 C1496 0.950 . S
H1487 C1498 0.950 . S
H1488 C1500 0.950 . S
H1489 C1501 0.950 . S
C1490 H1482 0.950 . S
C1490 C1491 1.386 . S
C1490 C1492 1.391 . S
C1491 C1490 1.386 . S
C1491 C1495 1.393 . S
C1492 H1484 0.950 . S
C1492 C1490 1.391 . S
C1492 C1493 1.400 . S
C1493 C1492 1.400 . S
C1493 C1494 1.398 . S
C1493 C1499 1.491 . S
C1494 H1485 0.950 . S
C1494 C1493 1.398 . S
C1494 C1495 1.391 . S
C1495 H1483 0.950 . S
C1495 C1491 1.393 . S
C1495 C1494 1.391 . S
C1496 H1486 0.950 . S
C1496 C1497 1.386 . S
C1496 C1498 1.391 . S
C1497 C1496 1.386 . S
C1497 C1501 1.393 . S
C1498 H1487 0.950 . S
C1498 C1496 1.391 . S
C1498 C1499 1.400 . S
C1499 C1493 1.491 . S
C1499 C1498 1.400 . S
C1499 C1500 1.398 . S
C1500 H1488 0.950 . S
C1500 C1499 1.398 . S
C1500 C1501 1.391 . S
C1501 H1489 0.950 . S
C1501 C1497 1.393 . S
C1501 C1500 1.391 . S
H1502 C1510 0.950 . S
H1503 C1515 0.950 . S
H1504 C1512 0.950 1_545 S
H1505 C1514 0.950 . S
H1506 C1516 0.950 . S
H1507 C1518 0.950 1_565 S
H1508 C1520 0.950 . S
H1509 C1521 0.950 . S
C1510 H1502 0.950 . S
C1510 C1511 1.386 . S
C1510 C1512 1.391 . S
C1511 C1510 1.386 . S
C1511 C1515 1.393 . S
C1512 H1504 0.950 1_565 S
C1512 C1510 1.391 . S
C1512 C1513 1.400 . S
C1513 C1512 1.400 . S
C1513 C1514 1.398 . S
C1513 C1519 1.491 1_565 S
C1514 H1505 0.950 . S
C1514 C1513 1.398 . S
C1514 C1515 1.391 . S
C1515 H1503 0.950 . S
C1515 C1511 1.393 . S
C1515 C1514 1.391 . S
C1516 H1506 0.950 . S
C1516 C1517 1.386 . S
C1516 C1518 1.391 . S
C1517 C1516 1.386 . S
C1517 C1521 1.393 . S
C1518 H1507 0.950 1_545 S
C1518 C1516 1.391 . S
C1518 C1519 1.400 . S
C1519 C1513 1.491 1_545 S
C1519 C1518 1.400 . S
C1519 C1520 1.398 . S
C1520 H1508 0.950 . S
C1520 C1519 1.398 . S
C1520 C1521 1.391 . S
C1521 H1509 0.950 . S
C1521 C1517 1.393 . S
C1521 C1520 1.391 . S
H1522 C1530 0.950 . S
H1523 C1535 0.950 . S
H1524 C1532 0.950 . S
H1525 C1534 0.950 . S
H1526 C1536 0.950 . S
H1527 C1538 0.950 . S
H1528 C1540 0.950 . S
H1529 C1541 0.950 . S
C1530 H1522 0.950 . S
C1530 C1531 1.386 . S
C1530 C1532 1.391 . S
C1531 C1530 1.386 . S
C1531 C1535 1.393 . S
C1532 H1524 0.950 . S
C1532 C1530 1.391 . S
C1532 C1533 1.400 . S
C1533 C1532 1.400 . S
C1533 C1534 1.398 . S
C1533 C1539 1.491 . S
C1534 H1525 0.950 . S
C1534 C1533 1.398 . S
C1534 C1535 1.391 . S
C1535 H1523 0.950 . S
C1535 C1531 1.393 . S
C1535 C1534 1.391 . S
C1536 H1526 0.950 . S
C1536 C1537 1.386 . S
C1536 C1538 1.391 . S
C1537 C1536 1.386 . S
C1537 C1541 1.393 . S
C1538 H1527 0.950 . S
C1538 C1536 1.391 . S
C1538 C1539 1.400 . S
C1539 C1533 1.491 . S
C1539 C1538 1.400 . S
C1539 C1540 1.398 . S
C1540 H1528 0.950 . S
C1540 C1539 1.398 . S
C1540 C1541 1.391 . S
C1541 H1529 0.950 . S
C1541 C1537 1.393 . S
C1541 C1540 1.391 . S
H1542 C1550 0.950 . S
H1543 C1555 0.950 . S
H1544 C1552 0.950 . S
H1545 C1554 0.950 . S
H1546 C1556 0.950 . S
H1547 C1558 0.950 . S
H1548 C1560 0.950 . S
H1549 C1561 0.950 . S
C1550 H1542 0.950 . S
C1550 C1551 1.386 . S
C1550 C1552 1.391 . S
C1551 C1550 1.386 . S
C1551 C1555 1.393 . S
C1552 H1544 0.950 . S
C1552 C1550 1.391 . S
C1552 C1553 1.400 . S
C1553 C1552 1.400 . S
C1553 C1554 1.398 . S
C1553 C1559 1.491 . S
C1554 H1545 0.950 . S
C1554 C1553 1.398 . S
C1554 C1555 1.391 . S
C1555 H1543 0.950 . S
C1555 C1551 1.393 . S
C1555 C1554 1.391 . S
C1556 H1546 0.950 . S
C1556 C1557 1.386 . S
C1556 C1558 1.391 . S
C1557 C1556 1.386 . S
C1557 C1561 1.393 . S
C1558 H1547 0.950 . S
C1558 C1556 1.391 . S
C1558 C1559 1.400 . S
C1559 C1553 1.491 . S
C1559 C1558 1.400 . S
C1559 C1560 1.398 . S
C1560 H1548 0.950 . S
C1560 C1559 1.398 . S
C1560 C1561 1.391 . S
C1561 H1549 0.950 . S
C1561 C1557 1.393 . S
C1561 C1560 1.391 . S
H1562 C1570 0.950 . S
H1563 C1575 0.950 . S
H1564 C1572 0.950 . S
H1565 C1574 0.950 . S
H1566 C1576 0.950 . S
H1567 C1578 0.950 . S
H1568 C1580 0.950 . S
H1569 C1581 0.950 . S
C1570 H1562 0.950 . S
C1570 C1571 1.386 . S
C1570 C1572 1.391 . S
C1571 C1570 1.386 . S
C1571 C1575 1.393 . S
C1572 H1564 0.950 . S
C1572 C1570 1.391 . S
C1572 C1573 1.400 . S
C1573 C1572 1.400 . S
C1573 C1574 1.398 . S
C1573 C1579 1.491 . S
C1574 H1565 0.950 . S
C1574 C1573 1.398 . S
C1574 C1575 1.391 . S
C1575 H1563 0.950 . S
C1575 C1571 1.393 . S
C1575 C1574 1.391 . S
C1576 H1566 0.950 . S
C1576 C1577 1.386 . S
C1576 C1578 1.391 . S
C1577 C1576 1.386 . S
C1577 C1581 1.393 . S
C1578 H1567 0.950 . S
C1578 C1576 1.391 . S
C1578 C1579 1.400 . S
C1579 C1573 1.491 . S
C1579 C1578 1.400 . S
C1579 C1580 1.398 . S
C1580 H1568 0.950 . S
C1580 C1579 1.398 . S
C1580 C1581 1.391 . S
C1581 H1569 0.950 . S
C1581 C1577 1.393 . S
C1581 C1580 1.391 . S
H1582 C1590 0.950 . S
H1583 C1595 0.950 . S
H1584 C1592 0.950 . S
H1585 C1594 0.950 . S
H1586 C1596 0.950 . S
H1587 C1598 0.950 . S
H1588 C1600 0.950 . S
H1589 C1601 0.950 . S
C1590 H1582 0.950 . S
C1590 C1591 1.386 . S
C1590 C1592 1.391 . S
C1591 C1590 1.386 . S
C1591 C1595 1.393 . S
C1592 H1584 0.950 . S
C1592 C1590 1.391 . S
C1592 C1593 1.400 . S
C1593 C1592 1.400 . S
C1593 C1594 1.398 . S
C1593 C1599 1.491 . S
C1594 H1585 0.950 . S
C1594 C1593 1.398 . S
C1594 C1595 1.391 . S
C1595 H1583 0.950 . S
C1595 C1591 1.393 . S
C1595 C1594 1.391 . S
C1596 H1586 0.950 . S
C1596 C1597 1.386 . S
C1596 C1598 1.391 . S
C1597 C1596 1.386 . S
C1597 C1601 1.393 . S
C1598 H1587 0.950 . S
C1598 C1596 1.391 . S
C1598 C1599 1.400 . S
C1599 C1593 1.491 . S
C1599 C1598 1.400 . S
C1599 C1600 1.398 . S
C1600 H1588 0.950 . S
C1600 C1599 1.398 . S
C1600 C1601 1.391 . S
C1601 H1589 0.950 . S
C1601 C1597 1.393 . S
C1601 C1600 1.391 . S
H1602 C1610 0.950 . S
H1603 C1615 0.950 . S
H1604 C1612 0.950 . S
H1605 C1614 0.950 . S
H1606 C1616 0.950 . S
H1607 C1618 0.950 . S
H1608 C1620 0.950 . S
H1609 C1621 0.950 . S
C1610 H1602 0.950 . S
C1610 C1611 1.386 . S
C1610 C1612 1.391 . S
C1611 C1610 1.386 . S
C1611 C1615 1.393 . S
C1612 H1604 0.950 . S
C1612 C1610 1.391 . S
C1612 C1613 1.400 . S
C1613 C1612 1.400 . S
C1613 C1614 1.398 . S
C1613 C1619 1.491 . S
C1614 H1605 0.950 . S
C1614 C1613 1.398 . S
C1614 C1615 1.391 . S
C1615 H1603 0.950 . S
C1615 C1611 1.393 . S
C1615 C1614 1.391 . S
C1616 H1606 0.950 . S
C1616 C1617 1.386 . S
C1616 C1618 1.391 . S
C1617 C1616 1.386 . S
C1617 C1621 1.393 . S
C1618 H1607 0.950 . S
C1618 C1616 1.391 . S
C1618 C1619 1.400 . S
C1619 C1613 1.491 . S
C1619 C1618 1.400 . S
C1619 C1620 1.398 . S
C1620 H1608 0.950 . S
C1620 C1619 1.398 . S
C1620 C1621 1.391 . S
C1621 H1609 0.950 . S
C1621 C1617 1.393 . S
C1621 C1620 1.391 . S
H1622 C1630 0.950 . S
H1623 C1635 0.950 . S
H1624 C1632 0.950 . S
H1625 C1634 0.950 . S
H1626 C1636 0.950 . S
H1627 C1638 0.950 . S
H1628 C1640 0.950 . S
H1629 C1641 0.950 . S
C1630 H1622 0.950 . S
C1630 C1631 1.386 . S
C1630 C1632 1.391 . S
C1631 C1630 1.386 . S
C1631 C1635 1.393 . S
C1632 H1624 0.950 . S
C1632 C1630 1.391 . S
C1632 C1633 1.400 . S
C1633 C1632 1.400 . S
C1633 C1634 1.398 . S
C1633 C1639 1.491 . S
C1634 H1625 0.950 . S
C1634 C1633 1.398 . S
C1634 C1635 1.391 . S
C1635 H1623 0.950 . S
C1635 C1631 1.393 . S
C1635 C1634 1.391 . S
C1636 H1626 0.950 . S
C1636 C1637 1.386 . S
C1636 C1638 1.391 . S
C1637 C1636 1.386 . S
C1637 C1641 1.393 . S
C1638 H1627 0.950 . S
C1638 C1636 1.391 . S
C1638 C1639 1.400 . S
C1639 C1633 1.491 . S
C1639 C1638 1.400 . S
C1639 C1640 1.398 . S
C1640 H1628 0.950 . S
C1640 C1639 1.398 . S
C1640 C1641 1.391 . S
C1641 H1629 0.950 . S
C1641 C1637 1.393 . S
C1641 C1640 1.391 . S
H1642 C1650 0.950 . S
H1643 C1655 0.950 . S
H1644 C1652 0.950 . S
H1645 C1654 0.950 . S
H1646 C1656 0.950 . S
H1647 C1658 0.950 . S
H1648 C1660 0.950 . S
H1649 C1661 0.950 . S
C1650 H1642 0.950 . S
C1650 C1651 1.386 . S
C1650 C1652 1.391 . S
C1651 C1650 1.386 . S
C1651 C1655 1.393 . S
C1652 H1644 0.950 . S
C1652 C1650 1.391 . S
C1652 C1653 1.400 . S
C1653 C1652 1.400 . S
C1653 C1654 1.398 . S
C1653 C1659 1.491 . S
C1654 H1645 0.950 . S
C1654 C1653 1.398 . S
C1654 C1655 1.391 . S
C1655 H1643 0.950 . S
C1655 C1651 1.393 . S
C1655 C1654 1.391 . S
C1656 H1646 0.950 . S
C1656 C1657 1.386 . S
C1656 C1658 1.391 . S
C1657 C1656 1.386 . S
C1657 C1661 1.393 . S
C1658 H1647 0.950 . S
C1658 C1656 1.391 . S
C1658 C1659 1.400 . S
C1659 C1653 1.491 . S
C1659 C1658 1.400 . S
C1659 C1660 1.398 . S
C1660 H1648 0.950 . S
C1660 C1659 1.398 . S
C1660 C1661 1.391 . S
C1661 H1649 0.950 . S
C1661 C1657 1.393 . S
C1661 C1660 1.391 . S
H1662 C1670 0.950 . S
H1663 C1675 0.950 . S
H1664 C1672 0.950 . S
H1665 C1674 0.950 . S
H1666 C1676 0.950 . S
H1667 C1678 0.950 . S
H1668 C1680 0.950 . S
H1669 C1681 0.950 . S
C1670 H1662 0.950 . S
C1670 C1671 1.386 . S
C1670 C1672 1.391 . S
C1671 C1670 1.386 . S
C1671 C1675 1.393 . S
C1672 H1664 0.950 . S
C1672 C1670 1.391 . S
C1672 C1673 1.400 . S
C1673 C1672 1.400 . S
C1673 C1674 1.398 . S
C1673 C1679 1.491 . S
C1674 H1665 0.950 . S
C1674 C1673 1.398 . S
C1674 C1675 1.391 . S
C1675 H1663 0.950 . S
C1675 C1671 1.393 . S
C1675 C1674 1.391 . S
C1676 H1666 0.950 . S
C1676 C1677 1.386 . S
C1676 C1678 1.391 . S
C1677 C1676 1.386 . S
C1677 C1681 1.393 . S
C1678 H1667 0.950 . S
C1678 C1676 1.391 . S
C1678 C1679 1.400 . S
C1679 C1673 1.491 . S
C1679 C1678 1.400 . S
C1679 C1680 1.398 . S
C1680 H1668 0.950 . S
C1680 C1679 1.398 . S
C1680 C1681 1.391 . S
C1681 H1669 0.950 . S
C1681 C1677 1.393 . S
C1681 C1680 1.391 . S
H1682 C1690 0.950 . S
H1683 C1695 0.950 . S
H1684 C1692 0.950 . S
H1685 C1694 0.950 . S
H1686 C1696 0.950 . S
H1687 C1698 0.950 . S
H1688 C1700 0.950 . S
H1689 C1701 0.950 . S
C1690 H1682 0.950 . S
C1690 C1691 1.386 . S
C1690 C1692 1.391 . S
C1691 C1690 1.386 . S
C1691 C1695 1.393 . S
C1692 H1684 0.950 . S
C1692 C1690 1.391 . S
C1692 C1693 1.400 . S
C1693 C1692 1.400 . S
C1693 C1694 1.398 . S
C1693 C1699 1.491 . S
C1694 H1685 0.950 . S
C1694 C1693 1.398 . S
C1694 C1695 1.391 . S
C1695 H1683 0.950 . S
C1695 C1691 1.393 . S
C1695 C1694 1.391 . S
C1696 H1686 0.950 . S
C1696 C1697 1.386 . S
C1696 C1698 1.391 . S
C1697 C1696 1.386 . S
C1697 C1701 1.393 . S
C1698 H1687 0.950 . S
C1698 C1696 1.391 . S
C1698 C1699 1.400 . S
C1699 C1693 1.491 . S
C1699 C1698 1.400 . S
C1699 C1700 1.398 . S
C1700 H1688 0.950 . S
C1700 C1699 1.398 . S
C1700 C1701 1.391 . S
C1701 H1689 0.950 . S
C1701 C1697 1.393 . S
C1701 C1700 1.391 . S
H1702 C1710 0.950 . S
H1703 C1715 0.950 . S
H1704 C1712 0.950 . S
H1705 C1714 0.950 . S
H1706 C1716 0.950 . S
H1707 C1718 0.950 . S
H1708 C1720 0.950 . S
H1709 C1721 0.898 1_455 S
C1710 H1702 0.950 . S
C1710 C1711 1.386 . S
C1710 C1712 1.391 . S
C1711 C1710 1.386 . S
C1711 C1715 1.393 . S
C1712 H1704 0.950 . S
C1712 C1710 1.391 . S
C1712 C1713 1.400 . S
C1713 C1712 1.400 . S
C1713 C1714 1.398 . S
C1713 C1719 1.491 . S
C1714 H1705 0.950 . S
C1714 C1713 1.398 . S
C1714 C1715 1.391 . S
C1715 H1703 0.950 . S
C1715 C1711 1.393 . S
C1715 C1714 1.391 . S
C1716 H1706 0.950 . S
C1716 C1717 1.386 1_655 S
C1716 C1718 1.391 . S
C1717 C1716 1.386 1_455 S
C1717 C1721 1.393 1_455 S
C1718 H1707 0.950 . S
C1718 C1716 1.391 . S
C1718 C1719 1.400 . S
C1719 C1713 1.491 . S
C1719 C1718 1.400 . S
C1719 C1720 1.398 . S
C1720 H1708 0.950 . S
C1720 C1719 1.398 . S
C1720 C1721 1.391 . S
C1721 H1709 0.898 1_655 S
C1721 C1717 1.393 1_655 S
C1721 C1720 1.391 . S
H1722 C1730 0.950 . S
H1723 C1735 0.950 . S
H1724 C1732 0.950 . S
H1725 C1734 0.950 . S
H1726 C1736 0.950 . S
H1727 C1738 0.950 . S
H1728 C1740 0.950 . S
H1729 C1741 0.950 . S
C1730 H1722 0.950 . S
C1730 C1731 1.386 . S
C1730 C1732 1.391 . S
C1731 C1730 1.386 . S
C1731 C1735 1.393 . S
C1732 H1724 0.950 . S
C1732 C1730 1.391 . S
C1732 C1733 1.400 . S
C1733 C1732 1.400 . S
C1733 C1734 1.398 . S
C1733 C1739 1.491 . S
C1734 H1725 0.950 . S
C1734 C1733 1.398 . S
C1734 C1735 1.391 . S
C1735 H1723 0.950 . S
C1735 C1731 1.393 . S
C1735 C1734 1.391 . S
C1736 H1726 0.950 . S
C1736 C1737 1.386 . S
C1736 C1738 1.391 . S
C1737 C1736 1.386 . S
C1737 C1741 1.393 . S
C1738 H1727 0.950 . S
C1738 C1736 1.391 . S
C1738 C1739 1.400 . S
C1739 C1733 1.491 . S
C1739 C1738 1.400 . S
C1739 C1740 1.398 . S
C1740 H1728 0.950 . S
C1740 C1739 1.398 . S
C1740 C1741 1.391 . S
C1741 H1729 0.950 . S
C1741 C1737 1.393 . S
C1741 C1740 1.391 . S
H1742 C1750 0.950 . S
H1743 C1755 0.950 . S
H1744 C1752 0.950 . S
H1745 C1754 0.950 . S
H1746 C1756 0.950 . S
H1747 C1758 0.950 . S
H1748 C1760 0.950 . S
H1749 C1761 0.950 . S
C1750 H1742 0.950 . S
C1750 C1751 1.386 . S
C1750 C1752 1.391 . S
C1751 C1750 1.386 . S
C1751 C1755 1.393 . S
C1752 H1744 0.950 . S
C1752 C1750 1.391 . S
C1752 C1753 1.400 . S
C1753 C1752 1.400 . S
C1753 C1754 1.398 . S
C1753 C1759 1.491 . S
C1754 H1745 0.950 . S
C1754 C1753 1.398 . S
C1754 C1755 1.391 . S
C1755 H1743 0.950 . S
C1755 C1751 1.393 . S
C1755 C1754 1.391 . S
C1756 H1746 0.950 . S
C1756 C1757 1.386 . S
C1756 C1758 1.391 . S
C1757 C1756 1.386 . S
C1757 C1761 1.393 . S
C1758 H1747 0.950 . S
C1758 C1756 1.391 . S
C1758 C1759 1.400 . S
C1759 C1753 1.491 . S
C1759 C1758 1.400 . S
C1759 C1760 1.398 . S
C1760 H1748 0.950 . S
C1760 C1759 1.398 . S
C1760 C1761 1.391 . S
C1761 H1749 0.950 . S
C1761 C1757 1.393 . S
C1761 C1760 1.391 . S
H1762 C1770 0.950 . S
H1763 C1775 0.950 . S
H1764 C1772 0.950 . S
H1765 C1774 0.950 . S
H1766 C1776 0.950 . S
H1767 C1778 0.950 . S
H1768 C1780 0.950 . S
H1769 C1781 0.950 . S
C1770 H1762 0.950 . S
C1770 C1771 1.386 . S
C1770 C1772 1.391 . S
C1771 C1770 1.386 . S
C1771 C1775 1.393 . S
C1772 H1764 0.950 . S
C1772 C1770 1.391 . S
C1772 C1773 1.400 . S
C1773 C1772 1.400 . S
C1773 C1774 1.398 . S
C1773 C1779 1.491 . S
C1774 H1765 0.950 . S
C1774 C1773 1.398 . S
C1774 C1775 1.391 . S
C1775 H1763 0.950 . S
C1775 C1771 1.393 . S
C1775 C1774 1.391 . S
C1776 H1766 0.950 . S
C1776 C1777 1.386 . S
C1776 C1778 1.391 . S
C1777 C1776 1.386 . S
C1777 C1781 1.393 . S
C1778 H1767 0.950 . S
C1778 C1776 1.391 . S
C1778 C1779 1.400 . S
C1779 C1773 1.491 . S
C1779 C1778 1.400 . S
C1779 C1780 1.398 . S
C1780 H1768 0.950 . S
C1780 C1779 1.398 . S
C1780 C1781 1.391 . S
C1781 H1769 0.950 . S
C1781 C1777 1.393 . S
C1781 C1780 1.391 . S
H1782 C1790 0.950 . S
H1783 C1795 0.950 . S
H1784 C1792 0.950 . S
H1785 C1794 0.950 . S
H1786 C1796 0.950 . S
H1787 C1798 0.950 . S
H1788 C1800 0.950 . S
H1789 C1801 0.950 . S
C1790 H1782 0.950 . S
C1790 C1791 1.386 . S
C1790 C1792 1.391 . S
C1791 C1790 1.386 . S
C1791 C1795 1.393 . S
C1792 H1784 0.950 . S
C1792 C1790 1.391 . S
C1792 C1793 1.400 . S
C1793 C1792 1.400 . S
C1793 C1794 1.398 . S
C1793 C1799 1.491 . S
C1794 H1785 0.950 . S
C1794 C1793 1.398 . S
C1794 C1795 1.391 . S
C1795 H1783 0.950 . S
C1795 C1791 1.393 . S
C1795 C1794 1.391 . S
C1796 H1786 0.950 . S
C1796 C1797 1.386 . S
C1796 C1798 1.391 . S
C1797 C1796 1.386 . S
C1797 C1801 1.393 . S
C1798 H1787 0.950 . S
C1798 C1796 1.391 . S
C1798 C1799 1.400 . S
C1799 C1793 1.491 . S
C1799 C1798 1.400 . S
C1799 C1800 1.398 . S
C1800 H1788 0.950 . S
C1800 C1799 1.398 . S
C1800 C1801 1.391 . S
C1801 H1789 0.950 . S
C1801 C1797 1.393 . S
C1801 C1800 1.391 . S
H1802 C1810 0.950 . S
H1803 C1815 0.950 . S
H1804 C1812 0.950 . S
H1805 C1814 0.950 . S
H1806 C1816 0.950 . S
H1807 C1818 0.950 . S
H1808 C1820 0.950 . S
H1809 C1821 0.950 . S
C1810 H1802 0.950 . S
C1810 C1811 1.386 . S
C1810 C1812 1.391 . S
C1811 C1810 1.386 . S
C1811 C1815 1.393 . S
C1812 H1804 0.950 . S
C1812 C1810 1.391 . S
C1812 C1813 1.400 . S
C1813 C1812 1.400 . S
C1813 C1814 1.398 . S
C1813 C1819 1.491 . S
C1814 H1805 0.950 . S
C1814 C1813 1.398 . S
C1814 C1815 1.391 . S
C1815 H1803 0.950 . S
C1815 C1811 1.393 . S
C1815 C1814 1.391 . S
C1816 H1806 0.950 . S
C1816 C1817 1.386 . S
C1816 C1818 1.391 . S
C1817 C1816 1.386 . S
C1817 C1821 1.393 . S
C1818 H1807 0.950 . S
C1818 C1816 1.391 . S
C1818 C1819 1.400 . S
C1819 C1813 1.491 . S
C1819 C1818 1.400 . S
C1819 C1820 1.398 . S
C1820 H1808 0.950 . S
C1820 C1819 1.398 . S
C1820 C1821 1.391 . S
C1821 H1809 0.950 . S
C1821 C1817 1.393 . S
C1821 C1820 1.391 . S
H1822 C1830 0.950 . S
H1823 C1835 0.950 . S
H1824 C1832 0.950 . S
H1825 C1834 0.950 . S
H1826 C1836 0.950 1_565 S
H1827 C1838 0.950 . S
H1828 C1840 0.950 . S
H1829 C1841 0.950 . S
C1830 H1822 0.950 . S
C1830 C1831 1.386 1_545 S
C1830 C1832 1.391 . S
C1831 C1830 1.386 1_565 S
C1831 C1835 1.393 . S
C1832 H1824 0.950 . S
C1832 C1830 1.391 . S
C1832 C1833 1.400 . S
C1833 C1832 1.400 . S
C1833 C1834 1.398 1_545 S
C1833 C1839 1.491 . S
C1834 H1825 0.950 . S
C1834 C1833 1.398 1_565 S
C1834 C1835 1.391 . S
C1835 H1823 0.950 . S
C1835 C1831 1.393 . S
C1835 C1834 1.391 . S
C1836 H1826 0.950 1_545 S
C1836 C1837 1.386 . S
C1836 C1838 1.391 1_545 S
C1837 C1836 1.386 . S
C1837 C1841 1.393 . S
C1838 H1827 0.950 . S
C1838 C1836 1.391 1_565 S
C1838 C1839 1.400 1_565 S
C1839 C1833 1.491 . S
C1839 C1838 1.400 1_545 S
C1839 C1840 1.398 . S
C1840 H1828 0.950 . S
C1840 C1839 1.398 . S
C1840 C1841 1.391 . S
C1841 H1829 0.950 . S
C1841 C1837 1.393 . S
C1841 C1840 1.391 . S
H1842 C1850 0.950 . S
H1843 C1855 0.950 . S
H1844 C1852 0.950 . S
H1845 C1854 0.950 . S
H1846 C1856 0.950 . S
H1847 C1858 0.950 . S
H1848 C1860 0.950 . S
H1849 C1861 0.950 . S
C1850 H1842 0.950 . S
C1850 C1851 1.386 . S
C1850 C1852 1.391 . S
C1851 C1850 1.386 . S
C1851 C1855 1.393 . S
C1852 H1844 0.950 . S
C1852 C1850 1.391 . S
C1852 C1853 1.400 . S
C1853 C1852 1.400 . S
C1853 C1854 1.398 . S
C1853 C1859 1.491 . S
C1854 H1845 0.950 . S
C1854 C1853 1.398 . S
C1854 C1855 1.391 . S
C1855 H1843 0.950 . S
C1855 C1851 1.393 . S
C1855 C1854 1.391 . S
C1856 H1846 0.950 . S
C1856 C1857 1.386 . S
C1856 C1858 1.391 . S
C1857 C1856 1.386 . S
C1857 C1861 1.393 . S
C1858 H1847 0.950 . S
C1858 C1856 1.391 . S
C1858 C1859 1.400 . S
C1859 C1853 1.491 . S
C1859 C1858 1.400 . S
C1859 C1860 1.398 . S
C1860 H1848 0.950 . S
C1860 C1859 1.398 . S
C1860 C1861 1.391 . S
C1861 H1849 0.950 . S
C1861 C1857 1.393 . S
C1861 C1860 1.391 . S
H1862 C1870 0.950 . S
H1863 C1875 0.950 . S
H1864 C1872 0.950 . S
H1865 C1874 0.950 . S
H1866 C1876 0.950 . S
H1867 C1878 0.950 . S
H1868 C1880 0.950 . S
H1869 C1881 0.950 . S
C1870 H1862 0.950 . S
C1870 C1871 1.386 . S
C1870 C1872 1.391 . S
C1871 C1870 1.386 . S
C1871 C1875 1.393 . S
C1872 H1864 0.950 . S
C1872 C1870 1.391 . S
C1872 C1873 1.400 . S
C1873 C1872 1.400 . S
C1873 C1874 1.398 . S
C1873 C1879 1.491 . S
C1874 H1865 0.950 . S
C1874 C1873 1.398 . S
C1874 C1875 1.391 . S
C1875 H1863 0.950 . S
C1875 C1871 1.393 . S
C1875 C1874 1.391 . S
C1876 H1866 0.950 . S
C1876 C1877 1.386 . S
C1876 C1878 1.391 . S
C1877 C1876 1.386 . S
C1877 C1881 1.393 . S
C1878 H1867 0.950 . S
C1878 C1876 1.391 . S
C1878 C1879 1.400 . S
C1879 C1873 1.491 . S
C1879 C1878 1.400 . S
C1879 C1880 1.398 . S
C1880 H1868 0.950 . S
C1880 C1879 1.398 . S
C1880 C1881 1.391 . S
C1881 H1869 0.950 . S
C1881 C1877 1.393 . S
C1881 C1880 1.391 . S
H1882 C1890 0.950 . S
H1883 C1895 0.950 . S
H1884 C1892 0.950 . S
H1885 C1894 0.950 . S
H1886 C1896 0.950 . S
H1887 C1898 0.950 . S
H1888 C1900 0.950 . S
H1889 C1901 0.950 . S
C1890 H1882 0.950 . S
C1890 C1891 1.386 . S
C1890 C1892 1.391 . S
C1891 C1890 1.386 . S
C1891 C1895 1.393 . S
C1892 H1884 0.950 . S
C1892 C1890 1.391 . S
C1892 C1893 1.400 . S
C1893 C1892 1.400 . S
C1893 C1894 1.398 . S
C1893 C1899 1.491 . S
C1894 H1885 0.950 . S
C1894 C1893 1.398 . S
C1894 C1895 1.391 . S
C1895 H1883 0.950 . S
C1895 C1891 1.393 . S
C1895 C1894 1.391 . S
C1896 H1886 0.950 . S
C1896 C1897 1.386 . S
C1896 C1898 1.391 . S
C1897 C1896 1.386 . S
C1897 C1901 1.393 . S
C1898 H1887 0.950 . S
C1898 C1896 1.391 . S
C1898 C1899 1.400 . S
C1899 C1893 1.491 . S
C1899 C1898 1.400 . S
C1899 C1900 1.398 . S
C1900 H1888 0.950 . S
C1900 C1899 1.398 . S
C1900 C1901 1.391 . S
C1901 H1889 0.950 . S
C1901 C1897 1.393 . S
C1901 C1900 1.391 . S
H1902 C1910 0.950 . S
H1903 C1915 0.950 . S
H1904 C1912 0.950 . S
H1905 C1914 0.950 . S
H1906 C1916 0.950 . S
H1907 C1918 0.950 . S
H1908 C1920 0.950 . S
H1909 C1921 0.950 . S
C1910 H1902 0.950 . S
C1910 C1911 1.386 . S
C1910 C1912 1.391 . S
C1911 C1910 1.386 . S
C1911 C1915 1.393 . S
C1912 H1904 0.950 . S
C1912 C1910 1.391 . S
C1912 C1913 1.400 . S
C1913 C1912 1.400 . S
C1913 C1914 1.398 . S
C1913 C1919 1.491 . S
C1914 H1905 0.950 . S
C1914 C1913 1.398 . S
C1914 C1915 1.391 . S
C1915 H1903 0.950 . S
C1915 C1911 1.393 . S
C1915 C1914 1.391 . S
C1916 H1906 0.950 . S
C1916 C1917 1.386 . S
C1916 C1918 1.391 . S
C1917 C1916 1.386 . S
C1917 C1921 1.393 . S
C1918 H1907 0.950 . S
C1918 C1916 1.391 . S
C1918 C1919 1.400 . S
C1919 C1913 1.491 . S
C1919 C1918 1.400 . S
C1919 C1920 1.398 . S
C1920 H1908 0.950 . S
C1920 C1919 1.398 . S
C1920 C1921 1.391 . S
C1921 H1909 0.950 . S
C1921 C1917 1.393 . S
C1921 C1920 1.391 . S
H1922 C1930 0.950 . S
H1923 C1935 0.950 . S
H1924 C1932 0.950 . S
H1925 C1934 0.950 . S
H1926 C1936 0.950 . S
H1927 C1938 0.950 . S
H1928 C1940 0.950 . S
H1929 C1941 0.950 . S
C1930 H1922 0.950 . S
C1930 C1931 1.386 . S
C1930 C1932 1.391 . S
C1931 C1930 1.386 . S
C1931 C1935 1.393 . S
C1932 H1924 0.950 . S
C1932 C1930 1.391 . S
C1932 C1933 1.400 . S
C1933 C1932 1.400 . S
C1933 C1934 1.398 . S
C1933 C1939 1.491 . S
C1934 H1925 0.950 . S
C1934 C1933 1.398 . S
C1934 C1935 1.391 . S
C1935 H1923 0.950 . S
C1935 C1931 1.393 . S
C1935 C1934 1.391 . S
C1936 H1926 0.950 . S
C1936 C1937 1.386 . S
C1936 C1938 1.391 . S
C1937 C1936 1.386 . S
C1937 C1941 1.393 . S
C1938 H1927 0.950 . S
C1938 C1936 1.391 . S
C1938 C1939 1.400 . S
C1939 C1933 1.491 . S
C1939 C1938 1.400 . S
C1939 C1940 1.398 . S
C1940 H1928 0.950 . S
C1940 C1939 1.398 . S
C1940 C1941 1.391 . S
C1941 H1929 0.950 . S
C1941 C1937 1.393 . S
C1941 C1940 1.391 . S
H1942 C1950 0.950 . S
H1943 C1955 0.950 1_565 S
H1944 C1952 0.950 . S
H1945 C1954 0.950 . S
H1946 C1956 0.950 . S
H1947 C1958 0.950 . S
H1948 C1960 0.950 . S
H1949 C1961 0.950 . S
C1950 H1942 0.950 . S
C1950 C1951 1.386 . S
C1950 C1952 1.391 . S
C1951 C1950 1.386 . S
C1951 C1955 1.393 . S
C1952 H1944 0.950 . S
C1952 C1950 1.391 . S
C1952 C1953 1.400 . S
C1953 C1952 1.400 . S
C1953 C1954 1.398 . S
C1953 C1959 1.491 . S
C1954 H1945 0.950 . S
C1954 C1953 1.398 . S
C1954 C1955 1.391 . S
C1955 H1943 0.950 1_545 S
C1955 C1951 1.393 . S
C1955 C1954 1.391 . S
C1956 H1946 0.950 . S
C1956 C1957 1.386 . S
C1956 C1958 1.391 . S
C1957 C1956 1.386 . S
C1957 C1961 1.393 . S
C1958 H1947 0.950 . S
C1958 C1956 1.391 . S
C1958 C1959 1.400 . S
C1959 C1953 1.491 . S
C1959 C1958 1.400 . S
C1959 C1960 1.398 . S
C1960 H1948 0.950 . S
C1960 C1959 1.398 . S
C1960 C1961 1.391 . S
C1961 H1949 0.950 . S
C1961 C1957 1.393 . S
C1961 C1960 1.391 . S
H1962 C1970 0.950 . S
H1963 C1975 0.950 . S
H1964 C1972 0.950 . S
H1965 C1974 0.950 . S
H1966 C1976 0.950 . S
H1967 C1978 0.950 . S
H1968 C1980 0.950 . S
H1969 C1981 0.950 . S
C1970 H1962 0.950 . S
C1970 C1971 1.386 . S
C1970 C1972 1.391 . S
C1971 C1970 1.386 . S
C1971 C1975 1.393 . S
C1972 H1964 0.950 . S
C1972 C1970 1.391 . S
C1972 C1973 1.400 . S
C1973 C1972 1.400 . S
C1973 C1974 1.398 . S
C1973 C1979 1.491 . S
C1974 H1965 0.950 . S
C1974 C1973 1.398 . S
C1974 C1975 1.391 . S
C1975 H1963 0.950 . S
C1975 C1971 1.393 . S
C1975 C1974 1.391 . S
C1976 H1966 0.950 . S
C1976 C1977 1.386 . S
C1976 C1978 1.391 . S
C1977 C1976 1.386 . S
C1977 C1981 1.393 . S
C1978 H1967 0.950 . S
C1978 C1976 1.391 . S
C1978 C1979 1.400 . S
C1979 C1973 1.491 . S
C1979 C1978 1.400 . S
C1979 C1980 1.398 . S
C1980 H1968 0.950 . S
C1980 C1979 1.398 . S
C1980 C1981 1.391 . S
C1981 H1969 0.950 . S
C1981 C1977 1.393 . S
C1981 C1980 1.391 . S
H1982 C1990 0.950 . S
H1983 C1995 0.950 . S
H1984 C1992 0.950 . S
H1985 C1994 0.950 . S
H1986 C1996 0.950 . S
H1987 C1998 0.950 . S
H1988 C2000 0.950 . S
H1989 C2001 0.950 . S
C1990 H1982 0.950 . S
C1990 C1991 1.386 . S
C1990 C1992 1.391 . S
C1991 C1990 1.386 . S
C1991 C1995 1.393 . S
C1992 H1984 0.950 . S
C1992 C1990 1.391 . S
C1992 C1993 1.400 . S
C1993 C1992 1.400 . S
C1993 C1994 1.398 . S
C1993 C1999 1.491 . S
C1994 H1985 0.950 . S
C1994 C1993 1.398 . S
C1994 C1995 1.391 . S
C1995 H1983 0.950 . S
C1995 C1991 1.393 . S
C1995 C1994 1.391 . S
C1996 H1986 0.950 . S
C1996 C1997 1.386 . S
C1996 C1998 1.391 . S
C1997 C1996 1.386 . S
C1997 C2001 1.393 . S
C1998 H1987 0.950 . S
C1998 C1996 1.391 . S
C1998 C1999 1.400 . S
C1999 C1993 1.491 . S
C1999 C1998 1.400 . S
C1999 C2000 1.398 . S
C2000 H1988 0.950 . S
C2000 C1999 1.398 . S
C2000 C2001 1.391 . S
C2001 H1989 0.950 . S
C2001 C1997 1.393 . S
C2001 C2000 1.391 . S
H2002 C2010 0.950 . S
H2003 C2015 0.950 . S
H2004 C2012 0.950 . S
H2005 C2014 0.950 . S
H2006 C2016 0.950 . S
H2007 C2018 0.950 . S
H2008 C2020 0.950 . S
H2009 C2021 0.950 . S
C2010 H2002 0.950 . S
C2010 C2011 1.386 . S
C2010 C2012 1.391 . S
C2011 C2010 1.386 . S
C2011 C2015 1.393 . S
C2012 H2004 0.950 . S
C2012 C2010 1.391 . S
C2012 C2013 1.400 . S
C2013 C2012 1.400 . S
C2013 C2014 1.398 . S
C2013 C2019 1.491 . S
C2014 H2005 0.950 . S
C2014 C2013 1.398 . S
C2014 C2015 1.391 . S
C2015 H2003 0.950 . S
C2015 C2011 1.393 . S
C2015 C2014 1.391 . S
C2016 H2006 0.950 . S
C2016 C2017 1.386 . S
C2016 C2018 1.391 . S
C2017 C2016 1.386 . S
C2017 C2021 1.393 . S
C2018 H2007 0.950 . S
C2018 C2016 1.391 . S
C2018 C2019 1.400 . S
C2019 C2013 1.491 . S
C2019 C2018 1.400 . S
C2019 C2020 1.398 . S
C2020 H2008 0.950 . S
C2020 C2019 1.398 . S
C2020 C2021 1.391 . S
C2021 H2009 0.950 . S
C2021 C2017 1.393 . S
C2021 C2020 1.391 . S
H2022 C2030 0.950 . S
H2023 C2035 0.950 . S
H2024 C2032 0.950 . S
H2025 C2034 0.950 . S
H2026 C2036 0.950 . S
H2027 C2038 0.950 . S
H2028 C2040 0.950 . S
H2029 C2041 0.950 . S
C2030 H2022 0.950 . S
C2030 C2031 1.386 . S
C2030 C2032 1.391 . S
C2031 C2030 1.386 . S
C2031 C2035 1.393 . S
C2032 H2024 0.950 . S
C2032 C2030 1.391 . S
C2032 C2033 1.400 . S
C2033 C2032 1.400 . S
C2033 C2034 1.398 . S
C2033 C2039 1.491 . S
C2034 H2025 0.950 . S
C2034 C2033 1.398 . S
C2034 C2035 1.391 . S
C2035 H2023 0.950 . S
C2035 C2031 1.393 . S
C2035 C2034 1.391 . S
C2036 H2026 0.950 . S
C2036 C2037 1.386 . S
C2036 C2038 1.391 . S
C2037 C2036 1.386 . S
C2037 C2041 1.393 . S
C2038 H2027 0.950 . S
C2038 C2036 1.391 . S
C2038 C2039 1.400 . S
C2039 C2033 1.491 . S
C2039 C2038 1.400 . S
C2039 C2040 1.398 . S
C2040 H2028 0.950 . S
C2040 C2039 1.398 . S
C2040 C2041 1.391 . S
C2041 H2029 0.950 . S
C2041 C2037 1.393 . S
C2041 C2040 1.391 . S
H2042 C2050 0.950 . S
H2043 C2055 0.950 . S
H2044 C2052 0.950 . S
H2045 C2054 0.950 . S
H2046 C2056 0.950 . S
H2047 C2058 0.950 . S
H2048 C2060 0.950 . S
H2049 C2061 0.950 . S
C2050 H2042 0.950 . S
C2050 C2051 1.386 . S
C2050 C2052 1.391 . S
C2051 C2050 1.386 . S
C2051 C2055 1.393 . S
C2052 H2044 0.950 . S
C2052 C2050 1.391 . S
C2052 C2053 1.400 . S
C2053 C2052 1.400 . S
C2053 C2054 1.398 . S
C2053 C2059 1.491 . S
C2054 H2045 0.950 . S
C2054 C2053 1.398 . S
C2054 C2055 1.391 . S
C2055 H2043 0.950 . S
C2055 C2051 1.393 . S
C2055 C2054 1.391 . S
C2056 H2046 0.950 . S
C2056 C2057 1.386 . S
C2056 C2058 1.391 . S
C2057 C2056 1.386 . S
C2057 C2061 1.393 . S
C2058 H2047 0.950 . S
C2058 C2056 1.391 . S
C2058 C2059 1.400 . S
C2059 C2053 1.491 . S
C2059 C2058 1.400 . S
C2059 C2060 1.398 . S
C2060 H2048 0.950 . S
C2060 C2059 1.398 . S
C2060 C2061 1.391 . S
C2061 H2049 0.950 . S
C2061 C2057 1.393 . S
C2061 C2060 1.391 . S
H2062 C2070 0.950 . S
H2063 C2075 0.950 . S
H2064 C2072 0.950 . S
H2065 C2074 0.950 . S
H2066 C2076 0.950 . S
H2067 C2078 0.950 . S
H2068 C2080 0.950 . S
H2069 C2081 0.950 . S
C2070 H2062 0.950 . S
C2070 C2071 1.386 . S
C2070 C2072 1.391 . S
C2071 C2070 1.386 . S
C2071 C2075 1.393 . S
C2072 H2064 0.950 . S
C2072 C2070 1.391 . S
C2072 C2073 1.400 . S
C2073 C2072 1.400 . S
C2073 C2074 1.398 . S
C2073 C2079 1.491 . S
C2074 H2065 0.950 . S
C2074 C2073 1.398 . S
C2074 C2075 1.391 . S
C2075 H2063 0.950 . S
C2075 C2071 1.393 . S
C2075 C2074 1.391 . S
C2076 H2066 0.950 . S
C2076 C2077 1.386 . S
C2076 C2078 1.391 . S
C2077 C2076 1.386 . S
C2077 C2081 1.393 . S
C2078 H2067 0.950 . S
C2078 C2076 1.391 . S
C2078 C2079 1.400 . S
C2079 C2073 1.491 . S
C2079 C2078 1.400 . S
C2079 C2080 1.398 . S
C2080 H2068 0.950 . S
C2080 C2079 1.398 . S
C2080 C2081 1.391 . S
C2081 H2069 0.950 . S
C2081 C2077 1.393 . S
C2081 C2080 1.391 . S
H2082 C2090 0.950 . S
H2083 C2095 0.950 . S
H2084 C2092 0.950 . S
H2085 C2094 0.950 . S
H2086 C2096 0.950 . S
H2087 C2098 0.950 . S
H2088 C2100 0.950 1_556 S
H2089 C2101 0.950 . S
C2090 H2082 0.950 . S
C2090 C2091 1.386 . S
C2090 C2092 1.391 . S
C2091 C2090 1.386 . S
C2091 C2095 1.393 . S
C2092 H2084 0.950 . S
C2092 C2090 1.391 . S
C2092 C2093 1.400 . S
C2093 C2092 1.400 . S
C2093 C2094 1.398 . S
C2093 C2099 1.491 . S
C2094 H2085 0.950 . S
C2094 C2093 1.398 . S
C2094 C2095 1.391 . S
C2095 H2083 0.950 . S
C2095 C2091 1.393 . S
C2095 C2094 1.391 . S
C2096 H2086 0.950 . S
C2096 C2097 1.386 . S
C2096 C2098 1.391 . S
C2097 C2096 1.386 . S
C2097 C2101 1.393 . S
C2098 H2087 0.950 . S
C2098 C2096 1.391 . S
C2098 C2099 1.400 1_554 S
C2099 C2093 1.491 . S
C2099 C2098 1.400 1_556 S
C2099 C2100 1.398 1_556 S
C2100 H2088 0.950 1_554 S
C2100 C2099 1.398 1_554 S
C2100 C2101 1.391 . S
C2101 H2089 0.950 . S
C2101 C2097 1.393 . S
C2101 C2100 1.391 . S
H2102 C2110 0.950 . S
H2103 C2115 0.950 . S
H2104 C2112 0.950 . S
H2105 C2114 0.950 . S
H2106 C2116 0.950 . S
H2107 C2118 0.949 . S
H2108 C2120 0.950 . S
H2109 C2121 0.950 . S
C2110 H2102 0.950 . S
C2110 C2111 1.386 . S
C2110 C2112 1.391 . S
C2111 C2110 1.386 . S
C2111 C2115 1.393 . S
C2112 H2104 0.950 . S
C2112 C2110 1.391 . S
C2112 C2113 1.400 . S
C2113 C2112 1.400 . S
C2113 C2114 1.398 . S
C2113 C2119 1.491 . S
C2114 H2105 0.950 . S
C2114 C2113 1.398 . S
C2114 C2115 1.391 . S
C2115 H2103 0.950 . S
C2115 C2111 1.393 . S
C2115 C2114 1.391 . S
C2116 H2106 0.950 . S
C2116 C2117 1.386 . S
C2116 C2118 1.363 1_554 S
C2117 C2116 1.386 . S
C2117 C2121 1.393 1_554 S
C2118 H2107 0.949 . S
C2118 C2116 1.363 1_556 S
C2118 C2119 1.429 . S
C2119 C2113 1.491 . S
C2119 C2118 1.429 . S
C2119 C2120 1.398 . S
C2120 H2108 0.950 . S
C2120 C2119 1.398 . S
C2120 C2121 1.391 . S
C2121 H2109 0.950 . S
C2121 C2117 1.393 1_556 S
C2121 C2120 1.391 . S
H2122 C2130 0.950 . S
H2123 C2135 0.950 . S
H2124 C2132 0.950 . S
H2125 C2134 0.950 . S
H2126 C2136 0.950 . S
H2127 C2138 0.916 1_556 S
H2128 C2140 0.950 . S
H2129 C2141 0.950 . S
C2130 H2122 0.950 . S
C2130 C2131 1.386 . S
C2130 C2132 1.391 . S
C2131 C2130 1.386 . S
C2131 C2135 1.393 . S
C2132 H2124 0.950 . S
C2132 C2130 1.391 . S
C2132 C2133 1.400 . S
C2133 C2132 1.400 . S
C2133 C2134 1.398 . S
C2133 C2139 1.513 . S
C2134 H2125 0.950 . S
C2134 C2133 1.398 . S
C2134 C2135 1.391 . S
C2135 H2123 0.950 . S
C2135 C2131 1.393 . S
C2135 C2134 1.391 . S
C2136 H2126 0.950 . S
C2136 C2137 1.386 . S
C2136 C2138 1.429 . S
C2137 C2136 1.386 . S
C2137 C2141 1.393 . S
C2138 H2127 0.916 1_554 S
C2138 C2136 1.429 . S
C2138 C2139 1.397 1_554 S
C2139 C2133 1.513 . S
C2139 C2138 1.397 1_556 S
C2139 C2140 1.378 1_556 S
C2140 H2128 0.950 . S
C2140 C2139 1.378 1_554 S
C2140 C2141 1.391 . S
C2141 H2129 0.950 . S
C2141 C2137 1.393 . S
C2141 C2140 1.391 . S
H2142 C2150 0.950 . S
H2143 C2155 0.950 . S
H2144 C2152 0.950 . S
H2145 C2154 0.950 . S
H2146 C2156 0.950 . S
H2147 C2158 0.950 . S
H2148 C2160 0.950 . S
H2149 C2161 0.950 . S
C2150 H2142 0.950 . S
C2150 C2151 1.386 . S
C2150 C2152 1.391 . S
C2151 C2150 1.386 . S
C2151 C2155 1.393 . S
C2152 H2144 0.950 . S
C2152 C2150 1.391 . S
C2152 C2153 1.400 . S
C2153 C2152 1.400 . S
C2153 C2154 1.398 . S
C2153 C2159 1.491 . S
C2154 H2145 0.950 . S
C2154 C2153 1.398 . S
C2154 C2155 1.391 . S
C2155 H2143 0.950 . S
C2155 C2151 1.393 . S
C2155 C2154 1.391 . S
C2156 H2146 0.950 . S
C2156 C2157 1.386 . S
C2156 C2158 1.391 . S
C2157 C2156 1.386 . S
C2157 C2161 1.393 . S
C2158 H2147 0.950 . S
C2158 C2156 1.391 . S
C2158 C2159 1.400 . S
C2159 C2153 1.491 . S
C2159 C2158 1.400 . S
C2159 C2160 1.398 . S
C2160 H2148 0.950 . S
C2160 C2159 1.398 . S
C2160 C2161 1.391 . S
C2161 H2149 0.950 . S
C2161 C2157 1.393 . S
C2161 C2160 1.391 . S
H2162 C2170 0.950 . S
H2163 C2175 0.950 . S
H2164 C2172 0.950 . S
H2165 C2174 0.950 . S
H2166 C2176 0.950 . S
H2167 C2178 0.950 . S
H2168 C2180 0.950 . S
H2169 C2181 0.950 . S
C2170 H2162 0.950 . S
C2170 C2171 1.386 . S
C2170 C2172 1.391 . S
C2171 C2170 1.386 . S
C2171 C2175 1.393 . S
C2172 H2164 0.950 . S
C2172 C2170 1.391 . S
C2172 C2173 1.400 . S
C2173 C2172 1.400 . S
C2173 C2174 1.398 . S
C2173 C2179 1.491 . S
C2174 H2165 0.950 . S
C2174 C2173 1.398 . S
C2174 C2175 1.391 . S
C2175 H2163 0.950 . S
C2175 C2171 1.393 . S
C2175 C2174 1.391 . S
C2176 H2166 0.950 . S
C2176 C2177 1.386 . S
C2176 C2178 1.391 . S
C2177 C2176 1.386 . S
C2177 C2181 1.393 . S
C2178 H2167 0.950 . S
C2178 C2176 1.391 . S
C2178 C2179 1.400 . S
C2179 C2173 1.491 . S
C2179 C2178 1.400 . S
C2179 C2180 1.398 . S
C2180 H2168 0.950 . S
C2180 C2179 1.398 . S
C2180 C2181 1.391 . S
C2181 H2169 0.950 . S
C2181 C2177 1.393 . S
C2181 C2180 1.391 . S
H2182 C2190 0.950 . S
H2183 C2195 0.950 . S
H2184 C2192 0.950 . S
H2185 C2194 0.950 . S
H2186 C2196 0.950 . S
H2187 C2198 0.950 . S
H2188 C2200 0.950 . S
H2189 C2201 0.950 . S
C2190 H2182 0.950 . S
C2190 C2191 1.386 . S
C2190 C2192 1.391 . S
C2191 C2190 1.386 . S
C2191 C2195 1.393 . S
C2192 H2184 0.950 . S
C2192 C2190 1.391 . S
C2192 C2193 1.400 . S
C2193 C2192 1.400 . S
C2193 C2194 1.398 . S
C2193 C2199 1.491 . S
C2194 H2185 0.950 . S
C2194 C2193 1.398 . S
C2194 C2195 1.391 . S
C2195 H2183 0.950 . S
C2195 C2191 1.393 . S
C2195 C2194 1.391 . S
C2196 H2186 0.950 . S
C2196 C2197 1.386 . S
C2196 C2198 1.391 . S
C2197 C2196 1.386 . S
C2197 C2201 1.393 . S
C2198 H2187 0.950 . S
C2198 C2196 1.391 . S
C2198 C2199 1.400 . S
C2199 C2193 1.491 . S
C2199 C2198 1.400 . S
C2199 C2200 1.398 . S
C2200 H2188 0.950 . S
C2200 C2199 1.398 . S
C2200 C2201 1.391 . S
C2201 H2189 0.950 . S
C2201 C2197 1.393 . S
C2201 C2200 1.391 . S
H2202 C2210 0.950 . S
H2203 C2215 0.950 . S
H2204 C2212 0.950 . S
H2205 C2214 0.950 . S
H2206 C2216 0.950 . S
H2207 C2218 0.950 . S
H2208 C2220 0.950 . S
H2209 C2221 0.950 . S
C2210 H2202 0.950 . S
C2210 C2211 1.386 . S
C2210 C2212 1.391 . S
C2211 C2210 1.386 . S
C2211 C2215 1.393 . S
C2212 H2204 0.950 . S
C2212 C2210 1.391 . S
C2212 C2213 1.400 . S
C2213 C2212 1.400 . S
C2213 C2214 1.398 . S
C2213 C2219 1.491 . S
C2214 H2205 0.950 . S
C2214 C2213 1.398 . S
C2214 C2215 1.391 . S
C2215 H2203 0.950 . S
C2215 C2211 1.393 . S
C2215 C2214 1.391 . S
C2216 H2206 0.950 . S
C2216 C2217 1.386 . S
C2216 C2218 1.391 . S
C2217 C2216 1.386 . S
C2217 C2221 1.393 . S
C2218 H2207 0.950 . S
C2218 C2216 1.391 . S
C2218 C2219 1.400 . S
C2219 C2213 1.491 . S
C2219 C2218 1.400 . S
C2219 C2220 1.398 . S
C2220 H2208 0.950 . S
C2220 C2219 1.398 . S
C2220 C2221 1.391 . S
C2221 H2209 0.950 . S
C2221 C2217 1.393 . S
C2221 C2220 1.391 . S
H2222 C2230 0.950 . S
H2223 C2235 0.950 . S
H2224 C2232 0.950 . S
H2225 C2234 0.950 . S
H2226 C2236 0.950 . S
H2227 C2238 0.950 . S
H2228 C2240 0.950 . S
H2229 C2241 0.950 . S
C2230 H2222 0.950 . S
C2230 C2231 1.386 . S
C2230 C2232 1.391 . S
C2231 C2230 1.386 . S
C2231 C2235 1.393 . S
C2232 H2224 0.950 . S
C2232 C2230 1.391 . S
C2232 C2233 1.400 . S
C2233 C2232 1.400 . S
C2233 C2234 1.398 . S
C2233 C2239 1.491 . S
C2234 H2225 0.950 . S
C2234 C2233 1.398 . S
C2234 C2235 1.391 . S
C2235 H2223 0.950 . S
C2235 C2231 1.393 . S
C2235 C2234 1.391 . S
C2236 H2226 0.950 . S
C2236 C2237 1.386 . S
C2236 C2238 1.391 . S
C2237 C2236 1.386 . S
C2237 C2241 1.393 . S
C2238 H2227 0.950 . S
C2238 C2236 1.391 . S
C2238 C2239 1.400 . S
C2239 C2233 1.491 . S
C2239 C2238 1.400 . S
C2239 C2240 1.398 . S
C2240 H2228 0.950 . S
C2240 C2239 1.398 . S
C2240 C2241 1.391 . S
C2241 H2229 0.950 . S
C2241 C2237 1.393 . S
C2241 C2240 1.391 . S
H2242 C2250 0.950 . S
H2243 C2255 0.950 . S
H2244 C2252 0.950 . S
H2245 C2254 0.950 . S
H2246 C2256 0.950 . S
H2247 C2258 0.950 . S
H2248 C2260 0.950 . S
H2249 C2261 0.950 . S
C2250 H2242 0.950 . S
C2250 C2251 1.386 . S
C2250 C2252 1.391 . S
C2251 C2250 1.386 . S
C2251 C2255 1.393 . S
C2252 H2244 0.950 . S
C2252 C2250 1.391 . S
C2252 C2253 1.400 . S
C2253 C2252 1.400 . S
C2253 C2254 1.398 . S
C2253 C2259 1.491 . S
C2254 H2245 0.950 . S
C2254 C2253 1.398 . S
C2254 C2255 1.391 . S
C2255 H2243 0.950 . S
C2255 C2251 1.393 . S
C2255 C2254 1.391 . S
C2256 H2246 0.950 . S
C2256 C2257 1.386 . S
C2256 C2258 1.391 . S
C2257 C2256 1.386 . S
C2257 C2261 1.393 . S
C2258 H2247 0.950 . S
C2258 C2256 1.391 . S
C2258 C2259 1.400 . S
C2259 C2253 1.491 . S
C2259 C2258 1.400 . S
C2259 C2260 1.398 . S
C2260 H2248 0.950 . S
C2260 C2259 1.398 . S
C2260 C2261 1.391 . S
C2261 H2249 0.950 . S
C2261 C2257 1.393 . S
C2261 C2260 1.391 . S
H2262 C2270 0.950 . S
H2263 C2275 0.950 . S
H2264 C2272 0.950 . S
H2265 C2274 0.950 . S
H2266 C2276 0.950 . S
H2267 C2278 0.950 . S
H2268 C2280 0.950 . S
H2269 C2281 0.950 . S
C2270 H2262 0.950 . S
C2270 C2271 1.386 . S
C2270 C2272 1.391 . S
C2271 C2270 1.386 . S
C2271 C2275 1.393 . S
C2272 H2264 0.950 . S
C2272 C2270 1.391 . S
C2272 C2273 1.400 . S
C2273 C2272 1.400 . S
C2273 C2274 1.398 . S
C2273 C2279 1.491 . S
C2274 H2265 0.950 . S
C2274 C2273 1.398 . S
C2274 C2275 1.391 . S
C2275 H2263 0.950 . S
C2275 C2271 1.393 . S
C2275 C2274 1.391 . S
C2276 H2266 0.950 . S
C2276 C2277 1.386 . S
C2276 C2278 1.391 . S
C2277 C2276 1.386 . S
C2277 C2281 1.393 . S
C2278 H2267 0.950 . S
C2278 C2276 1.391 . S
C2278 C2279 1.400 . S
C2279 C2273 1.491 . S
C2279 C2278 1.400 . S
C2279 C2280 1.398 . S
C2280 H2268 0.950 . S
C2280 C2279 1.398 . S
C2280 C2281 1.391 . S
C2281 H2269 0.950 . S
C2281 C2277 1.393 . S
C2281 C2280 1.391 . S
H2282 C2290 0.950 . S
H2283 C2295 0.950 . S
H2284 C2292 0.950 . S
H2285 C2294 0.950 . S
H2286 C2296 0.950 . S
H2287 C2298 0.950 . S
H2288 C2300 0.950 . S
H2289 C2301 0.950 . S
C2290 H2282 0.950 . S
C2290 C2291 1.386 . S
C2290 C2292 1.391 . S
C2291 C2290 1.386 . S
C2291 C2295 1.393 . S
C2292 H2284 0.950 . S
C2292 C2290 1.391 . S
C2292 C2293 1.400 . S
C2293 C2292 1.400 . S
C2293 C2294 1.398 . S
C2293 C2299 1.491 . S
C2294 H2285 0.950 . S
C2294 C2293 1.398 . S
C2294 C2295 1.391 . S
C2295 H2283 0.950 . S
C2295 C2291 1.393 . S
C2295 C2294 1.391 . S
C2296 H2286 0.950 . S
C2296 C2297 1.386 . S
C2296 C2298 1.391 . S
C2297 C2296 1.386 . S
C2297 C2301 1.393 . S
C2298 H2287 0.950 . S
C2298 C2296 1.391 . S
C2298 C2299 1.400 . S
C2299 C2293 1.491 . S
C2299 C2298 1.400 . S
C2299 C2300 1.398 . S
C2300 H2288 0.950 . S
C2300 C2299 1.398 . S
C2300 C2301 1.391 . S
C2301 H2289 0.950 . S
C2301 C2297 1.393 . S
C2301 C2300 1.391 . S
H2302 C2310 0.950 . S
H2303 C2315 0.950 . S
H2304 C2312 0.950 . S
H2305 C2314 0.950 . S
H2306 C2316 0.950 . S
H2307 C2318 0.950 . S
H2308 C2320 0.950 . S
H2309 C2321 0.950 . S
C2310 H2302 0.950 . S
C2310 C2311 1.386 . S
C2310 C2312 1.391 . S
C2311 C2310 1.386 . S
C2311 C2315 1.393 . S
C2312 H2304 0.950 . S
C2312 C2310 1.391 . S
C2312 C2313 1.400 . S
C2313 C2312 1.400 . S
C2313 C2314 1.398 . S
C2313 C2319 1.491 . S
C2314 H2305 0.950 . S
C2314 C2313 1.398 . S
C2314 C2315 1.391 . S
C2315 H2303 0.950 . S
C2315 C2311 1.393 . S
C2315 C2314 1.391 . S
C2316 H2306 0.950 . S
C2316 C2317 1.386 . S
C2316 C2318 1.391 . S
C2317 C2316 1.386 . S
C2317 C2321 1.393 . S
C2318 H2307 0.950 . S
C2318 C2316 1.391 . S
C2318 C2319 1.400 . S
C2319 C2313 1.491 . S
C2319 C2318 1.400 . S
C2319 C2320 1.398 . S
C2320 H2308 0.950 . S
C2320 C2319 1.398 . S
C2320 C2321 1.391 . S
C2321 H2309 0.950 . S
C2321 C2317 1.393 . S
C2321 C2320 1.391 . S
H2322 C2330 0.950 . S
H2323 C2335 0.950 . S
H2324 C2332 0.950 . S
H2325 C2334 0.950 . S
H2326 C2336 0.950 . S
H2327 C2338 0.950 . S
H2328 C2340 0.950 . S
H2329 C2341 0.950 . S
C2330 H2322 0.950 . S
C2330 C2331 1.386 . S
C2330 C2332 1.391 . S
C2331 C2330 1.386 . S
C2331 C2335 1.393 . S
C2332 H2324 0.950 . S
C2332 C2330 1.391 . S
C2332 C2333 1.400 . S
C2333 C2332 1.400 . S
C2333 C2334 1.398 . S
C2333 C2339 1.491 . S
C2334 H2325 0.950 . S
C2334 C2333 1.398 . S
C2334 C2335 1.391 . S
C2335 H2323 0.950 . S
C2335 C2331 1.393 . S
C2335 C2334 1.391 . S
C2336 H2326 0.950 . S
C2336 C2337 1.386 . S
C2336 C2338 1.391 . S
C2337 C2336 1.386 . S
C2337 C2341 1.393 . S
C2338 H2327 0.950 . S
C2338 C2336 1.391 . S
C2338 C2339 1.400 . S
C2339 C2333 1.491 . S
C2339 C2338 1.400 . S
C2339 C2340 1.398 . S
C2340 H2328 0.950 . S
C2340 C2339 1.398 . S
C2340 C2341 1.391 . S
C2341 H2329 0.950 . S
C2341 C2337 1.393 . S
C2341 C2340 1.391 . S
H2342 C2350 0.950 . S
H2343 C2355 0.950 . S
H2344 C2352 0.950 . S
H2345 C2354 0.950 . S
H2346 C2356 0.950 . S
H2347 C2358 0.950 . S
H2348 C2360 0.950 . S
H2349 C2361 0.950 . S
C2350 H2342 0.950 . S
C2350 C2351 1.386 . S
C2350 C2352 1.391 . S
C2351 C2350 1.386 . S
C2351 C2355 1.393 . S
C2352 H2344 0.950 . S
C2352 C2350 1.391 . S
C2352 C2353 1.400 . S
C2353 C2352 1.400 . S
C2353 C2354 1.398 . S
C2353 C2359 1.491 . S
C2354 H2345 0.950 . S
C2354 C2353 1.398 . S
C2354 C2355 1.391 . S
C2355 H2343 0.950 . S
C2355 C2351 1.393 . S
C2355 C2354 1.391 . S
C2356 H2346 0.950 . S
C2356 C2357 1.386 . S
C2356 C2358 1.391 . S
C2357 C2356 1.386 . S
C2357 C2361 1.393 . S
C2358 H2347 0.950 . S
C2358 C2356 1.391 . S
C2358 C2359 1.400 . S
C2359 C2353 1.491 . S
C2359 C2358 1.400 . S
C2359 C2360 1.398 . S
C2360 H2348 0.950 . S
C2360 C2359 1.398 . S
C2360 C2361 1.391 . S
C2361 H2349 0.950 . S
C2361 C2357 1.393 . S
C2361 C2360 1.391 . S
H2362 C2370 0.950 . S
H2363 C2375 0.950 . S
H2364 C2372 0.950 . S
H2365 C2374 0.950 . S
H2366 C2376 0.950 . S
H2367 C2378 0.950 . S
H2368 C2380 0.950 . S
H2369 C2381 0.950 . S
C2370 H2362 0.950 . S
C2370 C2371 1.386 . S
C2370 C2372 1.391 . S
C2371 C2370 1.386 . S
C2371 C2375 1.393 . S
C2372 H2364 0.950 . S
C2372 C2370 1.391 . S
C2372 C2373 1.400 . S
C2373 C2372 1.400 . S
C2373 C2374 1.398 . S
C2373 C2379 1.491 . S
C2374 H2365 0.950 . S
C2374 C2373 1.398 . S
C2374 C2375 1.391 . S
C2375 H2363 0.950 . S
C2375 C2371 1.393 . S
C2375 C2374 1.391 . S
C2376 H2366 0.950 . S
C2376 C2377 1.386 . S
C2376 C2378 1.391 . S
C2377 C2376 1.386 . S
C2377 C2381 1.393 . S
C2378 H2367 0.950 . S
C2378 C2376 1.391 . S
C2378 C2379 1.400 . S
C2379 C2373 1.491 . S
C2379 C2378 1.400 . S
C2379 C2380 1.398 . S
C2380 H2368 0.950 . S
C2380 C2379 1.398 . S
C2380 C2381 1.391 . S
C2381 H2369 0.950 . S
C2381 C2377 1.393 . S
C2381 C2380 1.391 . S
H2382 C2390 0.950 . S
H2383 C2395 0.950 . S
H2384 C2392 0.950 . S
H2385 C2394 0.950 . S
H2386 C2396 0.950 . S
H2387 C2398 0.950 . S
H2388 C2400 0.950 . S
H2389 C2401 0.950 . S
C2390 H2382 0.950 . S
C2390 C2391 1.386 . S
C2390 C2392 1.391 . S
C2391 C2390 1.386 . S
C2391 C2395 1.393 . S
C2392 H2384 0.950 . S
C2392 C2390 1.391 . S
C2392 C2393 1.400 . S
C2393 C2392 1.400 . S
C2393 C2394 1.398 . S
C2393 C2399 1.491 . S
C2394 H2385 0.950 . S
C2394 C2393 1.398 . S
C2394 C2395 1.391 . S
C2395 H2383 0.950 . S
C2395 C2391 1.393 . S
C2395 C2394 1.391 . S
C2396 H2386 0.950 . S
C2396 C2397 1.386 . S
C2396 C2398 1.391 . S
C2397 C2396 1.386 . S
C2397 C2401 1.393 . S
C2398 H2387 0.950 . S
C2398 C2396 1.391 . S
C2398 C2399 1.400 . S
C2399 C2393 1.491 . S
C2399 C2398 1.400 . S
C2399 C2400 1.398 . S
C2400 H2388 0.950 . S
C2400 C2399 1.398 . S
C2400 C2401 1.391 . S
C2401 H2389 0.950 . S
C2401 C2397 1.393 . S
C2401 C2400 1.391 . S
H2402 C2410 0.950 . S
H2403 C2415 0.950 . S
H2404 C2412 0.950 . S
H2405 C2414 0.950 . S
H2406 C2416 0.950 . S
H2407 C2418 0.950 . S
H2408 C2420 0.950 . S
H2409 C2421 0.950 . S
C2410 H2402 0.950 . S
C2410 C2411 1.386 . S
C2410 C2412 1.391 . S
C2411 C2410 1.386 . S
C2411 C2415 1.393 . S
C2412 H2404 0.950 . S
C2412 C2410 1.391 . S
C2412 C2413 1.400 . S
C2413 C2412 1.400 . S
C2413 C2414 1.398 . S
C2413 C2419 1.491 . S
C2414 H2405 0.950 . S
C2414 C2413 1.398 . S
C2414 C2415 1.391 . S
C2415 H2403 0.950 . S
C2415 C2411 1.393 . S
C2415 C2414 1.391 . S
C2416 H2406 0.950 . S
C2416 C2417 1.386 . S
C2416 C2418 1.391 . S
C2417 C2416 1.386 . S
C2417 C2421 1.393 . S
C2418 H2407 0.950 . S
C2418 C2416 1.391 . S
C2418 C2419 1.400 . S
C2419 C2413 1.491 . S
C2419 C2418 1.400 . S
C2419 C2420 1.398 . S
C2420 H2408 0.950 . S
C2420 C2419 1.398 . S
C2420 C2421 1.391 . S
C2421 H2409 0.950 . S
C2421 C2417 1.393 . S
C2421 C2420 1.391 . S
H2422 C2430 0.950 . S
H2423 C2435 0.950 . S
H2424 C2432 0.950 . S
H2425 C2434 0.950 . S
H2426 C2436 0.950 . S
H2427 C2438 0.950 . S
H2428 C2440 0.950 . S
H2429 C2441 0.950 . S
C2430 H2422 0.950 . S
C2430 C2431 1.386 . S
C2430 C2432 1.391 . S
C2431 C2430 1.386 . S
C2431 C2435 1.393 . S
C2432 H2424 0.950 . S
C2432 C2430 1.391 . S
C2432 C2433 1.400 . S
C2433 C2432 1.400 . S
C2433 C2434 1.398 . S
C2433 C2439 1.491 . S
C2434 H2425 0.950 . S
C2434 C2433 1.398 . S
C2434 C2435 1.391 . S
C2435 H2423 0.950 . S
C2435 C2431 1.393 . S
C2435 C2434 1.391 . S
C2436 H2426 0.950 . S
C2436 C2437 1.386 . S
C2436 C2438 1.391 . S
C2437 C2436 1.386 . S
C2437 C2441 1.393 . S
C2438 H2427 0.950 . S
C2438 C2436 1.391 . S
C2438 C2439 1.400 . S
C2439 C2433 1.491 . S
C2439 C2438 1.400 . S
C2439 C2440 1.398 . S
C2440 H2428 0.950 . S
C2440 C2439 1.398 . S
C2440 C2441 1.391 . S
C2441 H2429 0.950 . S
C2441 C2437 1.393 . S
C2441 C2440 1.391 . S
H2442 C2450 0.950 . S
H2443 C2455 0.950 . S
H2444 C2452 0.950 . S
H2445 C2454 0.950 . S
H2446 C2456 0.950 . S
H2447 C2458 0.950 . S
H2448 C2460 0.950 . S
H2449 C2461 0.950 . S
C2450 H2442 0.950 . S
C2450 C2451 1.386 . S
C2450 C2452 1.391 . S
C2451 C2450 1.386 . S
C2451 C2455 1.393 . S
C2452 H2444 0.950 . S
C2452 C2450 1.391 . S
C2452 C2453 1.400 . S
C2453 C2452 1.400 . S
C2453 C2454 1.398 . S
C2453 C2459 1.491 . S
C2454 H2445 0.950 . S
C2454 C2453 1.398 . S
C2454 C2455 1.391 . S
C2455 H2443 0.950 . S
C2455 C2451 1.393 . S
C2455 C2454 1.391 . S
C2456 H2446 0.950 . S
C2456 C2457 1.386 . S
C2456 C2458 1.391 1_556 S
C2457 C2456 1.386 . S
C2457 C2461 1.393 . S
C2458 H2447 0.950 . S
C2458 C2456 1.391 1_554 S
C2458 C2459 1.400 . S
C2459 C2453 1.491 . S
C2459 C2458 1.400 . S
C2459 C2460 1.398 . S
C2460 H2448 0.950 . S
C2460 C2459 1.398 . S
C2460 C2461 1.391 1_554 S
C2461 H2449 0.950 . S
C2461 C2457 1.393 . S
C2461 C2460 1.391 1_556 S
H2462 C2470 0.950 . S
H2463 C2475 0.950 . S
H2464 C2472 0.950 . S
H2465 C2474 0.950 . S
H2466 C2476 0.950 . S
H2467 C2478 0.950 . S
H2468 C2480 0.950 . S
H2469 C2481 0.950 . S
C2470 H2462 0.950 . S
C2470 C2471 1.386 . S
C2470 C2472 1.391 . S
C2471 C2470 1.386 . S
C2471 C2475 1.393 . S
C2472 H2464 0.950 . S
C2472 C2470 1.391 . S
C2472 C2473 1.400 . S
C2473 C2472 1.400 . S
C2473 C2474 1.398 . S
C2473 C2479 1.491 . S
C2474 H2465 0.950 . S
C2474 C2473 1.398 . S
C2474 C2475 1.391 . S
C2475 H2463 0.950 . S
C2475 C2471 1.393 . S
C2475 C2474 1.391 . S
C2476 H2466 0.950 . S
C2476 C2477 1.386 . S
C2476 C2478 1.391 . S
C2477 C2476 1.386 . S
C2477 C2481 1.393 . S
C2478 H2467 0.950 . S
C2478 C2476 1.391 . S
C2478 C2479 1.400 . S
C2479 C2473 1.491 . S
C2479 C2478 1.400 . S
C2479 C2480 1.398 . S
C2480 H2468 0.950 . S
C2480 C2479 1.398 . S
C2480 C2481 1.391 . S
C2481 H2469 0.950 . S
C2481 C2477 1.393 . S
C2481 C2480 1.391 . S
H2482 C2490 0.950 . S
H2483 C2495 0.950 . S
H2484 C2492 0.950 . S
H2485 C2494 0.950 . S
H2486 C2496 0.950 . S
H2487 C2498 0.950 . S
H2488 C2500 0.950 . S
H2489 C2501 0.950 . S
C2490 H2482 0.950 . S
C2490 C2491 1.386 . S
C2490 C2492 1.391 . S
C2491 C2490 1.386 . S
C2491 C2495 1.393 . S
C2492 H2484 0.950 . S
C2492 C2490 1.391 . S
C2492 C2493 1.400 . S
C2493 C2492 1.400 . S
C2493 C2494 1.398 . S
C2493 C2499 1.491 . S
C2494 H2485 0.950 . S
C2494 C2493 1.398 . S
C2494 C2495 1.391 . S
C2495 H2483 0.950 . S
C2495 C2491 1.393 . S
C2495 C2494 1.391 . S
C2496 H2486 0.950 . S
C2496 C2497 1.386 . S
C2496 C2498 1.391 1_556 S
C2497 C2496 1.386 . S
C2497 C2501 1.393 1_556 S
C2498 H2487 0.950 . S
C2498 C2496 1.391 1_554 S
C2498 C2499 1.400 . S
C2499 C2493 1.491 . S
C2499 C2498 1.400 . S
C2499 C2500 1.398 . S
C2500 H2488 0.950 . S
C2500 C2499 1.398 . S
C2500 C2501 1.391 . S
C2501 H2489 0.950 . S
C2501 C2497 1.393 1_554 S
C2501 C2500 1.391 . S
C1071 C7 1.387 . S
C1077 C814 1.383 . S
C1097 C742 1.768 . S
C1091 C39 1.766 . S
C1117 C776 1.550 . S
C1111 C62 1.552 1_565 S
C1131 C76 1.869 . S
C1137 C956 1.849 . S
C1151 C108 1.417 . S
C1157 C994 1.412 . S
C1171 N117 1.327 . S
C1177 C1028 1.326 . S
C1197 C921 1.338 1_455 S
C1191 C16 1.360 . S
C1211 C30 1.829 . S
C1217 C849 1.829 . S
C1237 C884 1.538 . S
C1231 C53 1.544 1_556 S
C1251 C85 1.860 . S
C1257 C632 1.853 . S
C1277 C669 1.644 . S
C1271 C99 1.640 . S
C1291 N127 1.252 . S
C1297 C704 1.298 . S
C1311 N150 1.119 . S
C1317 C1030 1.140 . S
C1337 C958 1.550 . S
C1331 N173 1.536 . S
C1357 C992 1.402 . S
C1351 C200 1.396 . S
C1371 C214 1.693 . S
C1377 C524 1.683 . S
C1391 N232 1.476 . S
C1397 C562 1.479 . S
C1411 C260 1.467 . S
C1417 C596 1.457 1_565 S
C1437 C489 1.237 . S
C1431 N140 1.176 . S
C1451 N163 1.269 . S
C1457 C417 1.322 . S
C1477 C452 1.625 . S
C1471 C191 1.633 . S
C1497 C848 1.939 . S
C1491 C223 1.955 . S
C1517 C885 1.434 . S
C1511 N242 1.394 . S
C1537 C920 1.489 . S
C1531 C269 1.496 . S
C1551 N288 1.270 . S
C1557 C598 1.294 . S
C1571 C315 1.504 . S
C1577 C526 1.540 . S
C1591 C338 1.615 . S
C1597 C560 1.617 . S
C1611 C352 1.866 . S
C1617 C740 1.854 . S
C1637 C778 1.517 . S
C1631 N370 1.523 . S
C1657 C812 1.531 1_655 S
C1651 C398 1.528 . S
C1677 C705 1.194 . S
C1671 N278 1.139 . S
C1691 C306 1.735 . S
C1697 C633 1.748 . S
C1711 C329 1.636 . S
C1717 C668 1.625 . S
C1737 C416 1.590 . S
C1731 C361 1.602 . S
C1751 N380 1.431 . S
C1757 C453 1.473 . S
C1777 C488 1.448 . S
C1771 C407 1.459 . S
C1797 C525 1.437 . S
C1791 N12 1.392 . S
C1811 N25 1.522 . S
C1817 C572 1.479 . S
C1837 C597 1.272 . S
C1831 N48 1.246 . S
C1857 C608 1.270 . S
C1851 N81 1.299 . S
C1877 C536 1.509 . S
C1871 N94 1.507 . S
C1897 C561 1.553 . S
C1891 C131 1.541 . S
C1917 C418 1.450 . S
C1911 N2 1.440 . S
C1931 N35 1.457 . S
C1937 C464 1.467 . S
C1951 N58 1.274 . S
C1957 C490 1.316 . S
C1977 C500 1.258 . S
C1971 N71 1.264 . S
C1997 C428 1.409 . S
C1991 N104 1.402 . S
C2017 C454 1.567 . S
C2011 C122 1.568 . S
C2031 C145 2.020 . S
C2037 C741 2.033 . S
C2051 C168 1.688 . S
C2057 C788 1.642 . S
C2071 N186 1.344 . S
C2077 C813 1.362 . S
C2097 C824 1.291 . S
C2091 N219 1.310 . S
C2117 C752 1.742 . S
C2111 C246 1.809 . S
C2137 C777 1.466 . S
C2131 N265 1.439 . S
C2157 C634 1.942 . S
C2151 C154 1.941 . S
C2171 C177 1.807 . S
C2177 C680 1.743 . S
C2191 N196 1.226 . S
C2197 C706 1.259 . S
C2211 N209 1.139 . S
C2217 C716 1.167 . S
C2231 C237 1.877 . S
C2237 C644 1.851 . S
C2257 C670 1.418 . S
C2251 N255 1.375 . S
C2271 C283 1.776 . S
C2277 C957 1.782 . S
C2291 N301 1.408 . S
C2297 C1004 1.384 . S
C2311 N324 1.258 . S
C2317 C1029 1.263 . S
C2337 C1040 1.134 . S
C2331 N357 1.152 . S
C2357 C968 1.713 . S
C2351 C384 1.792 . S
C2371 N403 1.294 . S
C2377 C993 1.319 . S
C2391 C292 1.895 . S
C2397 C850 1.891 . S
C2417 C896 1.311 . S
C2411 N311 1.321 . S
C2431 N334 1.352 . S
C2437 C922 1.404 . S
C2451 N347 1.300 . S
C2457 C932 1.305 . S
C2477 C860 1.890 1_554 S
C2471 C375 1.923 . S
C2491 N393 1.337 . S
C2497 C886 1.365 . S
