# Generated by pormake.
# Topology pth, (4,4)-cn, num edge types: 1
# Building blocks:
#     Node 0, Type 0, BuildingBlock: GALJAG_clean_sbu_0, # of connection points: 4
#     Node 1, Type 0, BuildingBlock: GALJAG_clean_sbu_0, # of connection points: 4
#     Node 2, Type 0, BuildingBlock: GALJAG_clean_sbu_0, # of connection points: 4
#     Node 3, Type 1, BuildingBlock: NAWXER_clean_sbu_0, # of connection points: 4
#     Node 4, Type 1, BuildingBlock: NAWXER_clean_sbu_0, # of connection points: 4
#     Node 5, Type 1, BuildingBlock: NAWXER_clean_sbu_0, # of connection points: 4
#     Edge 6, Type (0, 1), BuildingBlock: KIFKEQ_clean_linker_1, # of connection points: 2
#     Edge 7, Type (0, 1), BuildingBlock: KIFKEQ_clean_linker_1, # of connection points: 2
#     Edge 8, Type (0, 1), BuildingBlock: KIFKEQ_clean_linker_1, # of connection points: 2
#     Edge 9, Type (0, 1), BuildingBlock: KIFKEQ_clean_linker_1, # of connection points: 2
#     Edge 10, Type (0, 1), BuildingBlock: KIFKEQ_clean_linker_1, # of connection points: 2
#     Edge 11, Type (0, 1), BuildingBlock: KIFKEQ_clean_linker_1, # of connection points: 2
#     Edge 12, Type (0, 1), BuildingBlock: KIFKEQ_clean_linker_1, # of connection points: 2
#     Edge 13, Type (0, 1), BuildingBlock: KIFKEQ_clean_linker_1, # of connection points: 2
#     Edge 14, Type (0, 1), BuildingBlock: KIFKEQ_clean_linker_1, # of connection points: 2
#     Edge 15, Type (0, 1), BuildingBlock: KIFKEQ_clean_linker_1, # of connection points: 2
#     Edge 16, Type (0, 1), BuildingBlock: KIFKEQ_clean_linker_1, # of connection points: 2
#     Edge 17, Type (0, 1), BuildingBlock: KIFKEQ_clean_linker_1, # of connection points: 2
# Relax obj value: 0.017
# Max RMSD: 0.060
# Mean RMSD: 0.053
data_MOF--net-pth--node1-GALJAG_clean_sbu_0--node2-NAWXER_clean_sbu_0--edge1-KIFKEQ_clean_linker_1
_symmetry_space_group_name_H-M    P1
_symmetry_Int_Tables_number       1
_symmetry_cell_setting            triclinic
loop_
_symmetry_equiv_pos_as_xyz
'x, y, z'
_cell_length_a     23.686945
_cell_length_b     23.693082
_cell_length_c     56.610392
_cell_angle_alpha  90.061674
_cell_angle_beta   90.190591
_cell_angle_gamma 120.1632
loop_
_atom_site_label
_atom_site_type_symbol
_atom_site_fract_x
_atom_site_fract_y
_atom_site_fract_z
_atom_type_partial_charge
In0 In 0.02039 0.0119 0.0767 0.0
O1 O 0.9544 0.05073 0.08983 0.0
O2 O 0.04421 0.08071 0.10769 0.0
C3 C 0.93638 0.91279 0.04851 0.0
C4 C 0.10349 0.11082 0.04857 0.0
C5 C 0.0482 0.93957 0.10618 0.0
O6 O 0.91763 0.93739 0.06429 0.0
O7 O 0.99753 0.93934 0.04653 0.0
O8 O 0.08692 0.97365 0.08997 0.0
O9 O 0.99676 0.9428 0.10743 0.0
C10 C 0.99304 0.08442 0.10625 0.0
O11 O 0.12282 0.08649 0.06428 0.0
O12 O 0.04228 0.08404 0.04662 0.0
In13 In 1.00521 1.00573 0.40821 0.0
O14 O 0.07322 0.10636 0.39192 0.0
O15 O 0.97281 0.05782 0.38256 0.0
C16 C 0.10745 0.03434 0.43702 0.0
C17 C 0.90347 0.98551 0.4357 0.0
C18 C 0.98199 0.90033 0.3818 0.0
O19 O 0.11398 0.04287 0.41494 0.0
O20 O 0.04984 0.01169 0.44434 0.0
O21 O 0.99966 0.90705 0.40311 0.0
O22 O 0.97636 0.94675 0.37374 0.0
C23 C 0.02852 0.10762 0.38016 0.0
O24 O 0.90269 0.94059 0.42346 0.0
O25 O 0.95516 0.04006 0.43398 0.0
In26 In 0.01239 0.01204 0.73989 0.0
O27 O 0.93737 0.90967 0.75218 0.0
O28 O 0.9401 0.99009 0.76993 0.0
C29 C 0.08512 0.98348 0.71101 0.0
C30 C 0.94062 0.0395 0.70988 0.0
C31 C 0.11144 0.09597 0.76814 0.0
O32 O 0.05038 0.94498 0.72717 0.0
O33 O 0.08231 0.03511 0.70949 0.0
O34 O 0.08707 0.11481 0.75227 0.0
O35 O 0.08461 0.03483 0.7702 0.0
C36 C 0.91315 0.9289 0.76791 0.0
O37 O 0.97366 0.07797 0.72643 0.0
O38 O 0.94458 0.98848 0.70856 0.0
C39 C 0.96733 0.56005 0.27234 0.0
C40 C 0.97072 0.41433 0.21166 0.0
O41 O 0.02488 0.57268 0.26668 0.0
Zn42 Zn 0.07109 0.53873 0.24278 0.0
O43 O 0.91788 0.5138 0.26199 0.0
Zn44 Zn 0.96572 0.48597 0.24181 0.0
O45 O 1.00906 0.45162 0.26677 0.0
O46 O 0.11656 0.51013 0.26415 0.0
O47 O 0.92008 0.41109 0.22072 0.0
O48 O 0.02743 0.45912 0.21848 0.0
O49 O 0.11886 0.61402 0.2221 0.0
O50 O 0.01184 0.56564 0.21795 0.0
C51 C 0.06572 0.4638 0.27364 0.0
C52 C 0.06914 0.61059 0.21199 0.0
C53 C 0.60773 0.05609 0.60413 0.0
C54 C 0.45309 0.05211 0.5454 0.0
O55 O 0.5625 0.99876 0.59814 0.0
Zn56 Zn 0.48073 0.95233 0.57492 0.0
O57 O 0.61006 0.10577 0.59453 0.0
Zn58 Zn 0.53311 0.05793 0.57435 0.0
O59 O 0.45571 0.01327 0.59939 0.0
O60 O 0.40841 0.9059 0.5968 0.0
O61 O 0.50243 0.103 0.55374 0.0
O62 O 0.44168 0.99558 0.55196 0.0
O63 O 0.50743 0.90575 0.5533 0.0
O64 O 0.56526 0.01288 0.54957 0.0
C65 C 0.41202 0.95636 0.60631 0.0
C66 C 0.55276 0.95589 0.54313 0.0
C67 C 0.4195 0.4622 0.93919 0.0
C68 C 0.56549 0.61027 0.87775 0.0
O69 O 0.41502 0.50914 0.93021 0.0
Zn70 Zn 0.48926 0.53941 0.90848 0.0
O71 O 0.4644 0.45126 0.93214 0.0
Zn72 Zn 0.54278 0.48603 0.90809 0.0
O73 O 0.61838 0.51624 0.92938 0.0
O74 O 0.56922 0.57419 0.93208 0.0
O75 O 0.57672 0.5652 0.88438 0.0
O76 O 0.51875 0.61435 0.8871 0.0
O77 O 0.45384 0.4603 0.88453 0.0
O78 O 0.51194 0.41115 0.88645 0.0
C79 C 0.61456 0.56324 0.93869 0.0
C80 C 0.46465 0.41525 0.87751 0.0
H81 H 0.06883 0.1559 0.14303 0.0
H82 H 0.8919 0.11005 0.1053 0.0
H83 H 0.05664 0.23315 0.16758 0.0
H84 H 0.88003 0.1888 0.13 0.0
H85 H 0.86335 0.2965 0.19891 0.0
H86 H 0.86246 0.21277 0.17297 0.0
H87 H 0.06747 0.34045 0.15883 0.0
H88 H 0.06873 0.42284 0.18454 0.0
C89 C 0.02711 0.16216 0.14002 0.0
C90 C 0.98167 0.12737 0.12207 0.0
C91 C 0.02029 0.20669 0.15404 0.0
C92 C 0.96793 0.21778 0.15046 0.0
C93 C 0.92085 0.18119 0.13313 0.0
C94 C 0.92778 0.13639 0.11898 0.0
C95 C 0.9079 0.30675 0.19001 0.0
C96 C 0.9663 0.36591 0.19407 0.0
C97 C 0.90736 0.25894 0.17517 0.0
C98 C 0.96521 0.26967 0.16426 0.0
C99 C 0.0225 0.3301 0.16744 0.0
C100 C 0.02307 0.37748 0.18215 0.0
H101 H 0.89893 0.07465 0.46455 0.0
H102 H 0.78434 0.87431 0.44122 0.0
H103 H 0.80904 0.06087 0.48912 0.0
H104 H 0.69304 0.86072 0.46567 0.0
H105 H 0.62183 0.04581 0.50979 0.0
H106 H 0.70192 0.04759 0.48277 0.0
H107 H 0.65954 0.85804 0.50771 0.0
H108 H 0.57736 0.85563 0.5347 0.0
C109 C 0.85433 0.02765 0.4646 0.0
C110 C 0.84854 0.97572 0.45083 0.0
C111 C 0.80258 0.01981 0.47859 0.0
C112 C 0.74349 0.95992 0.47911 0.0
C113 C 0.73798 0.90739 0.46569 0.0
C114 C 0.79008 0.91526 0.45163 0.0
C115 C 0.62895 1.00408 0.50939 0.0
C116 C 0.59392 0.95093 0.52461 0.0
C117 C 0.67519 1.00529 0.49397 0.0
C118 C 0.68821 0.95367 0.49348 0.0
C119 C 0.65062 0.89862 0.50772 0.0
C120 C 0.60364 0.89719 0.52315 0.0
H121 H 0.86137 0.95756 0.80612 0.0
H122 H 0.83707 0.79745 0.76231 0.0
H123 H 0.77091 0.88102 0.831 0.0
H124 H 0.74563 0.72146 0.78654 0.0
H125 H 0.65744 0.60132 0.85245 0.0
H126 H 0.73594 0.67885 0.82522 0.0
H127 H 0.6529 0.80345 0.83401 0.0
H128 H 0.57391 0.72526 0.86233 0.0
C129 C 0.8363 0.90608 0.80169 0.0
C130 C 0.8569 0.88331 0.78249 0.0
C131 C 0.78408 0.86233 0.81581 0.0
C132 C 0.75126 0.795 0.81091 0.0
C133 C 0.7706 0.77282 0.79114 0.0
C134 C 0.82299 0.81636 0.7772 0.0
C135 C 0.65523 0.64496 0.84861 0.0
C136 C 0.60925 0.65704 0.85971 0.0
C137 C 0.70021 0.68936 0.83273 0.0
C138 C 0.70062 0.74728 0.82723 0.0
C139 C 0.65411 0.75938 0.838 0.0
C140 C 0.60861 0.71449 0.85406 0.0
H141 H 0.97064 0.86512 0.14182 0.0
H142 H 0.15155 0.91712 0.10635 0.0
H143 H 0.98328 0.7881 0.1663 0.0
H144 H 0.16401 0.83874 0.13108 0.0
H145 H 0.17631 0.73045 0.20133 0.0
H146 H 0.17811 0.8141 0.17511 0.0
H147 H 0.97674 0.68213 0.15629 0.0
H148 H 0.97458 0.59975 0.18218 0.0
C149 C 0.01336 0.86032 0.13931 0.0
C150 C 0.05977 0.89672 0.12199 0.0
C151 C 0.02045 0.81595 0.15329 0.0
C152 C 0.07414 0.80673 0.15035 0.0
C153 C 0.12216 0.84493 0.13369 0.0
C154 C 0.11489 0.88949 0.11953 0.0
C155 C 0.13286 0.71922 0.19131 0.0
C156 C 0.07502 0.65889 0.19414 0.0
C157 C 0.13392 0.76698 0.17632 0.0
C158 C 0.07715 0.75496 0.16405 0.0
C159 C 0.02076 0.69335 0.16595 0.0
C160 C 0.01968 0.64605 0.18077 0.0
H161 H 0.23791 0.09112 0.42665 0.0
H162 H 0.09977 1.00547 0.48371 0.0
H163 H 0.32579 0.10325 0.4531 0.0
H164 H 0.187 0.01725 0.50982 0.0
H165 H 0.33226 0.95418 0.53355 0.0
H166 H 0.25278 0.95789 0.50751 0.0
H167 H 0.38671 0.16164 0.49362 0.0
H168 H 0.46754 0.15842 0.52021 0.0
C169 C 0.22647 0.07551 0.44485 0.0
C170 C 0.16189 0.04676 0.45307 0.0
C171 C 0.27674 0.08283 0.45997 0.0
C172 C 0.26294 0.06078 0.48341 0.0
C173 C 0.1988 0.03412 0.49176 0.0
C174 C 0.14891 0.02745 0.4768 0.0
C175 C 0.34526 0.99998 0.52499 0.0
C176 C 0.40635 0.05612 0.52902 0.0
C177 C 0.2994 1.00206 0.51016 0.0
C178 C 0.31343 0.06012 0.49873 0.0
C179 C 0.37485 0.11626 0.50227 0.0
C180 C 0.42083 0.11445 0.5175 0.0
H181 H 0.16471 0.06784 0.80612 0.0
H182 H 0.18671 0.22755 0.76282 0.0
H183 H 0.25622 0.1446 0.83086 0.0
H184 H 0.27918 0.30381 0.78693 0.0
H185 H 0.3715 0.42443 0.85286 0.0
H186 H 0.29134 0.34687 0.82575 0.0
H187 H 0.37439 0.22192 0.83337 0.0
H188 H 0.45508 0.30013 0.86154 0.0
C189 C 0.18945 0.11929 0.80179 0.0
C190 C 0.16797 0.14186 0.78275 0.0
C191 C 0.24229 0.16317 0.81582 0.0
C192 C 0.27485 0.23046 0.811 0.0
C193 C 0.25448 0.25248 0.79144 0.0
C194 C 0.20149 0.20878 0.77758 0.0
C195 C 0.37335 0.3807 0.84878 0.0
C196 C 0.41983 0.36851 0.85951 0.0
C197 C 0.3274 0.33629 0.83298 0.0
C198 C 0.3265 0.27824 0.8272 0.0
C199 C 0.37353 0.26607 0.83758 0.0
C200 C 0.41999 0.31097 0.85357 0.0
H201 H 0.86985 0.96348 0.67305 0.0
H202 H 0.91485 0.14062 0.71031 0.0
H203 H 0.79245 0.97499 0.64825 0.0
H204 H 0.83604 0.15187 0.68528 0.0
H205 H 0.72639 0.16458 0.61557 0.0
H206 H 0.81147 0.16758 0.64149 0.0
H207 H 0.68459 0.96388 0.65787 0.0
H208 H 0.60086 0.96055 0.63228 0.0
C209 C 0.86346 1.00516 0.67588 0.0
C210 C 0.89794 0.05077 0.69381 0.0
C211 C 0.81889 0.01161 0.6617 0.0
C212 C 0.8075 0.0638 0.66507 0.0
C213 C 0.84392 0.11119 0.68232 0.0
C214 C 0.88873 0.1046 0.69666 0.0
C215 C 0.71663 0.1208 0.62495 0.0
C216 C 0.65727 0.0621 0.62156 0.0
C217 C 0.7652 0.12255 0.63978 0.0
C218 C 0.75501 0.06561 0.6513 0.0
C219 C 0.69446 0.00813 0.64877 0.0
C220 C 0.64635 1.00637 0.63412 0.0
H221 H 0.80484 0.8378 0.05389 0.0
H222 H 0.96403 0.85979 0.01039 0.0
H223 H 0.7281 0.74613 0.0296 0.0
H224 H 0.88676 0.76908 0.98546 0.0
H225 H 0.72953 0.57147 0.95428 0.0
H226 H 0.80849 0.6511 0.98254 0.0
H227 H 0.68518 0.73577 0.99082 0.0
H228 H 0.6069 0.65667 0.96363 0.0
C229 C 0.82339 0.82317 0.03905 0.0
C230 C 0.8903 0.85649 0.03387 0.0
C231 C 0.77942 0.77065 0.02509 0.0
C232 C 0.80114 0.75058 1.00539 0.0
C233 C 0.86842 0.78283 1.00059 0.0
C234 C 0.9126 0.83519 0.01473 0.0
C235 C 0.71922 0.60669 0.96241 0.0
C236 C 0.66189 0.60758 0.95665 0.0
C237 C 0.76455 0.65254 0.97845 0.0
C238 C 0.75302 0.69967 0.98906 0.0
C239 C 0.69525 0.69957 0.98343 0.0
C240 C 0.65041 0.65423 0.96757 0.0
H241 H 0.93475 0.87122 0.33665 0.0
H242 H 1.00297 0.80117 0.39422 0.0
H243 H 0.92228 0.78102 0.31187 0.0
H244 H 0.99032 0.711 0.36947 0.0
H245 H 0.05569 0.63289 0.30606 0.0
H246 H 0.05102 0.70864 0.33385 0.0
H247 H 0.85957 0.65712 0.30763 0.0
H248 H 0.86416 0.58044 0.27955 0.0
C249 C 0.94649 0.83621 0.34407 0.0
C250 C 0.97041 0.84354 0.3673 0.0
C251 C 0.93884 0.78431 0.32995 0.0
C252 C 0.95548 0.7391 0.33872 0.0
C253 C 0.97764 0.74546 0.36218 0.0
C254 C 0.98479 0.797 0.37635 0.0
C255 C 0.01223 0.63712 0.30633 0.0
C256 C 0.96039 0.60094 0.29054 0.0
C257 C 1.00941 0.68025 0.32239 0.0
C258 C 0.95495 0.68882 0.32292 0.0
C259 C 0.9023 0.65166 0.30749 0.0
C260 C 0.90475 0.60759 0.29155 0.0
H261 H 0.16107 0.06041 0.6755 0.0
H262 H 0.10664 0.87961 0.71157 0.0
H263 H 0.23817 0.04661 0.65157 0.0
H264 H 0.18512 0.86601 0.68744 0.0
H265 H 0.29257 0.85015 0.61788 0.0
H266 H 0.20989 0.85026 0.64401 0.0
H267 H 0.34334 0.05224 0.66148 0.0
H268 H 0.42479 0.0525 0.63561 0.0
C269 C 0.16541 0.0175 0.67827 0.0
C270 C 0.12822 0.97141 0.69558 0.0
C271 C 0.20985 0.00976 0.66462 0.0
C272 C 0.21838 0.95574 0.66789 0.0
C273 C 0.1795 0.90812 0.68457 0.0
C274 C 0.13486 0.91602 0.6984 0.0
C275 C 0.30438 0.89413 0.62762 0.0
C276 C 0.3648 0.95158 0.62439 0.0
C277 C 0.25715 0.89417 0.64255 0.0
C278 C 0.2698 0.95167 0.65437 0.0
C279 C 0.3316 0.00766 0.65215 0.0
C280 C 0.37839 0.00767 0.63736 0.0
H281 H 0.07426 0.16326 0.01067 0.0
H282 H 0.23515 0.18665 0.05394 0.0
H283 H 0.15029 0.25447 0.98597 0.0
H284 H 0.31069 0.27887 0.02989 0.0
H285 H 0.42988 0.37022 0.964 0.0
H286 H 0.35314 0.29061 0.99114 0.0
H287 H 0.22714 0.37247 0.98339 0.0
H288 H 0.3045 0.45255 0.95516 0.0
C289 C 0.12582 0.18826 0.01501 0.0
C290 C 0.14893 0.16723 0.03402 0.0
C291 C 0.16928 0.24093 1.00101 0.0
C292 C 0.23669 0.27379 1.00582 0.0
C293 C 0.25926 0.25391 0.02537 0.0
C294 C 0.21598 0.20107 0.0392 0.0
C295 C 0.3861 0.37193 0.96805 0.0
C296 C 0.37334 0.41787 0.95726 0.0
C297 C 0.34215 0.3263 0.98389 0.0
C298 C 0.28404 0.3252 0.98963 0.0
C299 C 0.27134 0.37175 0.9792 0.0
C300 C 0.31577 0.41788 0.96319 0.0
H301 H 0.14187 0.22467 0.37407 0.0
H302 H 0.94002 0.11538 0.35188 0.0
H303 H 0.15728 0.31719 0.3499 0.0
H304 H 0.95557 0.20631 0.32752 0.0
H305 H 0.97534 0.39536 0.30688 0.0
H306 H 0.97187 0.31394 0.33371 0.0
H307 H 0.15987 0.35253 0.30842 0.0
H308 H 0.1641 0.43622 0.28174 0.0
C309 C 0.10099 0.22032 0.36394 0.0
C310 C 0.0396 0.16302 0.365 0.0
C311 C 0.10988 0.27312 0.35004 0.0
C312 C 0.05746 0.26948 0.33702 0.0
C313 C 0.99662 0.21145 0.33776 0.0
C314 C 0.98776 0.15904 0.35162 0.0
C315 C 0.01636 0.38708 0.30718 0.0
C316 C 0.06962 0.42153 0.29198 0.0
C317 C 0.01418 0.34007 0.32248 0.0
C318 C 0.06484 0.32556 0.32281 0.0
C319 C 0.12002 0.36254 0.30856 0.0
C320 C 0.12248 0.41038 0.29329 0.0
loop_
_geom_bond_atom_site_label_1
_geom_bond_atom_site_label_2
_geom_bond_distance
_geom_bond_site_symmetry_2
_ccdc_geom_bond_type
In0 O1 2.294 1_455 S
In0 O2 2.326 . S
In0 O6 2.266 1_445 S
In0 O7 2.326 1_445 S
In0 O8 2.266 1_545 S
In0 O9 2.326 1_445 S
In0 O11 2.294 . S
In0 O12 2.326 . S
O1 In0 2.294 1_655 S
O1 C10 1.240 1_655 S
O2 In0 2.326 . S
O2 C10 1.252 . S
C3 O6 1.252 . S
C3 O7 1.260 . S
C4 O11 1.240 . S
C4 O12 1.252 . S
C5 O8 1.252 1_655 S
C5 O9 1.260 . S
O6 In0 2.266 1_665 S
O6 C3 1.252 . S
O7 In0 2.326 1_665 S
O7 C3 1.260 . S
O8 In0 2.266 1_565 S
O8 C5 1.252 1_455 S
O9 In0 2.326 1_665 S
O9 C5 1.260 . S
C10 O1 1.240 1_455 S
C10 O2 1.252 . S
O11 In0 2.294 . S
O11 C4 1.240 . S
O12 In0 2.326 . S
O12 C4 1.252 . S
In13 O14 2.294 . S
In13 O15 2.326 1_455 S
In13 O19 2.266 . S
In13 O20 2.326 1_545 S
In13 O21 2.266 1_445 S
In13 O22 2.326 1_545 S
In13 O24 2.294 1_445 S
In13 O25 2.326 1_455 S
O14 In13 2.294 . S
O14 C23 1.240 1_455 S
O15 In13 2.326 1_655 S
O15 C23 1.252 . S
C16 O19 1.252 1_565 S
C16 O20 1.260 . S
C17 O24 1.240 1_545 S
C17 O25 1.252 . S
C18 O21 1.252 1_455 S
C18 O22 1.260 . S
O19 In13 2.266 . S
O19 C16 1.252 1_545 S
O20 In13 2.326 1_565 S
O20 C16 1.260 . S
O21 In13 2.266 1_665 S
O21 C18 1.252 1_655 S
O22 In13 2.326 1_565 S
O22 C18 1.260 . S
C23 O14 1.240 1_655 S
C23 O15 1.252 . S
O24 In13 2.294 1_665 S
O24 C17 1.240 1_565 S
O25 In13 2.326 1_655 S
O25 C17 1.252 . S
In26 O27 2.294 1_445 S
In26 O28 2.326 1_445 S
In26 O32 2.266 1_545 S
In26 O33 2.326 . S
In26 O34 2.266 . S
In26 O35 2.326 . S
In26 O37 2.294 1_455 S
In26 O38 2.326 1_445 S
O27 In26 2.294 1_665 S
O27 C36 1.240 . S
O28 In26 2.326 1_665 S
O28 C36 1.252 . S
C29 O32 1.252 1_545 S
C29 O33 1.260 . S
C30 O37 1.240 1_565 S
C30 O38 1.252 . S
C31 O34 1.252 . S
C31 O35 1.260 . S
O32 In26 2.266 1_565 S
O32 C29 1.252 1_565 S
O33 In26 2.326 . S
O33 C29 1.260 . S
O34 In26 2.266 . S
O34 C31 1.252 . S
O35 In26 2.326 . S
O35 C31 1.260 . S
C36 O27 1.240 . S
C36 O28 1.252 . S
O37 In26 2.294 1_655 S
O37 C30 1.240 1_545 S
O38 In26 2.326 1_665 S
O38 C30 1.252 . S
C39 O41 1.247 . S
C39 O43 1.258 1_455 S
C40 O47 1.247 1_455 S
C40 O48 1.258 . S
O41 C39 1.247 . S
O41 Zn42 2.028 . S
Zn42 O41 2.028 . S
Zn42 O46 2.035 . S
Zn42 O48 2.035 . S
Zn42 O49 2.028 . S
O43 C39 1.258 1_655 S
O43 Zn44 2.035 . S
Zn44 O43 2.035 . S
Zn44 O45 2.028 . S
Zn44 O47 2.028 . S
Zn44 O50 2.035 . S
O45 Zn44 2.028 . S
O45 C51 1.247 1_655 S
O46 Zn42 2.035 . S
O46 C51 1.258 . S
O47 C40 1.247 1_655 S
O47 Zn44 2.028 . S
O48 C40 1.258 . S
O48 Zn42 2.035 . S
O49 Zn42 2.028 . S
O49 C52 1.247 . S
O50 Zn44 2.035 . S
O50 C52 1.258 1_655 S
C51 O45 1.247 1_455 S
C51 O46 1.258 . S
C52 O49 1.247 . S
C52 O50 1.258 1_455 S
C53 O55 1.247 1_545 S
C53 O57 1.258 . S
C54 O61 1.247 . S
C54 O62 1.258 1_545 S
O55 C53 1.247 1_565 S
O55 Zn56 2.028 . S
Zn56 O55 2.028 . S
Zn56 O60 2.035 . S
Zn56 O62 2.035 . S
Zn56 O63 2.028 . S
O57 C53 1.258 . S
O57 Zn58 2.035 . S
Zn58 O57 2.035 . S
Zn58 O59 2.028 . S
Zn58 O61 2.028 . S
Zn58 O64 2.035 . S
O59 Zn58 2.028 . S
O59 C65 1.247 . S
O60 Zn56 2.035 . S
O60 C65 1.258 1_565 S
O61 C54 1.247 . S
O61 Zn58 2.028 . S
O62 C54 1.258 1_565 S
O62 Zn56 2.035 . S
O63 Zn56 2.028 . S
O63 C66 1.247 1_565 S
O64 Zn58 2.035 . S
O64 C66 1.258 . S
C65 O59 1.247 . S
C65 O60 1.258 1_545 S
C66 O63 1.247 1_545 S
C66 O64 1.258 . S
C67 O69 1.247 . S
C67 O71 1.258 . S
C68 O75 1.247 . S
C68 O76 1.258 . S
O69 C67 1.247 . S
O69 Zn70 2.028 . S
Zn70 O69 2.028 . S
Zn70 O74 2.035 . S
Zn70 O76 2.035 . S
Zn70 O77 2.028 . S
O71 C67 1.258 . S
O71 Zn72 2.035 . S
Zn72 O71 2.035 . S
Zn72 O73 2.028 . S
Zn72 O75 2.028 . S
Zn72 O78 2.035 . S
O73 Zn72 2.028 . S
O73 C79 1.247 . S
O74 Zn70 2.035 . S
O74 C79 1.258 . S
O75 C68 1.247 . S
O75 Zn72 2.028 . S
O76 C68 1.258 . S
O76 Zn70 2.035 . S
O77 Zn70 2.028 . S
O77 C80 1.247 . S
O78 Zn72 2.035 . S
O78 C80 1.258 . S
C79 O73 1.247 . S
C79 O74 1.258 . S
C80 O77 1.247 . S
C80 O78 1.258 . S
H81 C89 0.950 . S
H82 C94 0.950 . S
H83 C91 0.950 . S
H84 C93 0.950 . S
H85 C95 0.950 . S
H86 C97 0.950 . S
H87 C99 0.950 . S
H88 C100 0.950 . S
C89 H81 0.950 . S
C89 C90 1.386 . S
C89 C91 1.391 . S
C90 C89 1.386 . S
C90 C94 1.393 1_455 S
C91 H83 0.950 . S
C91 C89 1.391 . S
C91 C92 1.400 . S
C92 C91 1.400 . S
C92 C93 1.398 1_455 S
C92 C98 1.491 . S
C93 H84 0.950 . S
C93 C92 1.398 1_655 S
C93 C94 1.391 . S
C94 H82 0.950 . S
C94 C90 1.393 1_655 S
C94 C93 1.391 . S
C95 H85 0.950 . S
C95 C96 1.386 1_655 S
C95 C97 1.391 . S
C96 C95 1.386 1_455 S
C96 C100 1.393 . S
C97 H86 0.950 . S
C97 C95 1.391 . S
C97 C98 1.400 1_655 S
C98 C92 1.491 . S
C98 C97 1.400 1_455 S
C98 C99 1.398 . S
C99 H87 0.950 . S
C99 C98 1.398 . S
C99 C100 1.391 . S
C100 H88 0.950 . S
C100 C96 1.393 . S
C100 C99 1.391 . S
H101 C109 0.950 . S
H102 C114 0.950 . S
H103 C111 0.950 . S
H104 C113 0.950 . S
H105 C115 0.950 . S
H106 C117 0.950 . S
H107 C119 0.941 1_565 S
H108 C120 0.950 1_565 S
C109 H101 0.950 . S
C109 C110 1.386 . S
C109 C111 1.391 . S
C110 C109 1.386 . S
C110 C114 1.393 . S
C111 H103 0.950 . S
C111 C109 1.391 . S
C111 C112 1.400 . S
C112 C111 1.400 . S
C112 C113 1.398 . S
C112 C118 1.491 . S
C113 H104 0.950 . S
C113 C112 1.398 . S
C113 C114 1.391 . S
C114 H102 0.950 . S
C114 C110 1.393 . S
C114 C113 1.391 . S
C115 H105 0.950 . S
C115 C116 1.386 . S
C115 C117 1.391 . S
C116 C115 1.386 . S
C116 C120 1.394 . S
C117 H106 0.950 . S
C117 C115 1.391 . S
C117 C118 1.400 . S
C118 C112 1.491 . S
C118 C117 1.400 . S
C118 C119 1.401 . S
C119 H107 0.941 1_545 S
C119 C118 1.401 . S
C119 C120 1.397 . S
C120 H108 0.950 1_545 S
C120 C116 1.394 . S
C120 C119 1.397 . S
H121 C129 0.950 . S
H122 C134 0.950 . S
H123 C131 0.950 . S
H124 C133 0.950 . S
H125 C135 0.950 . S
H126 C137 0.950 . S
H127 C139 0.950 . S
H128 C140 0.950 . S
C129 H121 0.950 . S
C129 C130 1.386 . S
C129 C131 1.391 . S
C130 C129 1.386 . S
C130 C134 1.393 . S
C131 H123 0.950 . S
C131 C129 1.391 . S
C131 C132 1.400 . S
C132 C131 1.400 . S
C132 C133 1.398 . S
C132 C138 1.491 . S
C133 H124 0.950 . S
C133 C132 1.398 . S
C133 C134 1.391 . S
C134 H122 0.950 . S
C134 C130 1.393 . S
C134 C133 1.391 . S
C135 H125 0.950 . S
C135 C136 1.386 . S
C135 C137 1.391 . S
C136 C135 1.386 . S
C136 C140 1.393 . S
C137 H126 0.950 . S
C137 C135 1.391 . S
C137 C138 1.400 . S
C138 C132 1.491 . S
C138 C137 1.400 . S
C138 C139 1.398 . S
C139 H127 0.950 . S
C139 C138 1.398 . S
C139 C140 1.391 . S
C140 H128 0.950 . S
C140 C136 1.393 . S
C140 C139 1.391 . S
H141 C149 0.950 . S
H142 C154 0.950 . S
H143 C151 0.950 . S
H144 C153 0.950 . S
H145 C155 0.950 . S
H146 C157 0.950 . S
H147 C159 0.950 . S
H148 C160 0.950 . S
C149 H141 0.950 . S
C149 C150 1.386 . S
C149 C151 1.391 . S
C150 C149 1.386 . S
C150 C154 1.393 1_655 S
C151 H143 0.950 . S
C151 C149 1.391 . S
C151 C152 1.396 1_655 S
C152 C151 1.396 1_455 S
C152 C153 1.401 . S
C152 C158 1.493 . S
C153 H144 0.950 . S
C153 C152 1.401 . S
C153 C154 1.391 . S
C154 H142 0.950 . S
C154 C150 1.393 1_455 S
C154 C153 1.391 . S
C155 H145 0.950 . S
C155 C156 1.386 . S
C155 C157 1.391 . S
C156 C155 1.386 . S
C156 C160 1.393 1_455 S
C157 H146 0.950 . S
C157 C155 1.391 . S
C157 C158 1.400 . S
C158 C152 1.493 . S
C158 C157 1.400 . S
C158 C159 1.398 1_455 S
C159 H147 0.950 . S
C159 C158 1.398 1_655 S
C159 C160 1.391 . S
C160 H148 0.950 . S
C160 C156 1.393 1_655 S
C160 C159 1.391 . S
H161 C169 0.950 . S
H162 C174 0.950 . S
H163 C171 0.950 . S
H164 C173 0.950 . S
H165 C175 0.950 . S
H166 C177 0.950 . S
H167 C179 0.950 . S
H168 C180 0.950 . S
C169 H161 0.950 . S
C169 C170 1.385 1_545 S
C169 C171 1.391 . S
C170 C169 1.385 1_565 S
C170 C174 1.394 . S
C171 H163 0.950 . S
C171 C169 1.391 . S
C171 C172 1.400 . S
C172 C171 1.400 . S
C172 C173 1.398 1_545 S
C172 C178 1.491 . S
C173 H164 0.950 . S
C173 C172 1.398 1_565 S
C173 C174 1.391 . S
C174 H162 0.950 . S
C174 C170 1.394 . S
C174 C173 1.391 . S
C175 H165 0.950 . S
C175 C176 1.386 1_565 S
C175 C177 1.391 . S
C176 C175 1.386 1_545 S
C176 C180 1.393 . S
C177 H166 0.950 . S
C177 C175 1.391 . S
C177 C178 1.400 1_565 S
C178 C172 1.491 . S
C178 C177 1.400 1_545 S
C178 C179 1.398 . S
C179 H167 0.950 . S
C179 C178 1.398 . S
C179 C180 1.391 . S
C180 H168 0.950 . S
C180 C176 1.393 . S
C180 C179 1.391 . S
H181 C189 0.950 . S
H182 C194 0.950 . S
H183 C191 0.950 . S
H184 C193 0.950 . S
H185 C195 0.950 . S
H186 C197 0.950 . S
H187 C199 0.950 . S
H188 C200 0.950 . S
C189 H181 0.950 . S
C189 C190 1.386 . S
C189 C191 1.391 . S
C190 C189 1.386 . S
C190 C194 1.393 . S
C191 H183 0.950 . S
C191 C189 1.391 . S
C191 C192 1.400 . S
C192 C191 1.400 . S
C192 C193 1.398 . S
C192 C198 1.491 . S
C193 H184 0.950 . S
C193 C192 1.398 . S
C193 C194 1.391 . S
C194 H182 0.950 . S
C194 C190 1.393 . S
C194 C193 1.391 . S
C195 H185 0.950 . S
C195 C196 1.386 . S
C195 C197 1.391 . S
C196 C195 1.386 . S
C196 C200 1.393 . S
C197 H186 0.950 . S
C197 C195 1.391 . S
C197 C198 1.400 . S
C198 C192 1.491 . S
C198 C197 1.400 . S
C198 C199 1.398 . S
C199 H187 0.950 . S
C199 C198 1.398 . S
C199 C200 1.391 . S
C200 H188 0.950 . S
C200 C196 1.393 . S
C200 C199 1.391 . S
H201 C209 0.950 . S
H202 C214 0.950 . S
H203 C211 0.950 . S
H204 C213 0.950 . S
H205 C215 0.950 . S
H206 C217 0.950 . S
H207 C219 0.950 . S
H208 C220 0.950 . S
C209 H201 0.950 . S
C209 C210 1.386 . S
C209 C211 1.391 . S
C210 C209 1.386 . S
C210 C214 1.393 1_565 S
C211 H203 0.950 . S
C211 C209 1.391 . S
C211 C212 1.400 . S
C212 C211 1.400 . S
C212 C213 1.398 1_565 S
C212 C218 1.491 . S
C213 H204 0.950 . S
C213 C212 1.398 1_545 S
C213 C214 1.391 . S
C214 H202 0.950 . S
C214 C210 1.393 1_545 S
C214 C213 1.391 . S
C215 H205 0.950 . S
C215 C216 1.386 . S
C215 C217 1.391 . S
C216 C215 1.386 . S
C216 C220 1.393 1_545 S
C217 H206 0.950 . S
C217 C215 1.391 . S
C217 C218 1.398 1_545 S
C218 C212 1.491 . S
C218 C217 1.398 1_565 S
C218 C219 1.399 . S
C219 H207 0.950 . S
C219 C218 1.399 . S
C219 C220 1.391 . S
C220 H208 0.950 . S
C220 C216 1.393 1_565 S
C220 C219 1.391 . S
H221 C229 0.950 . S
H222 C234 0.950 . S
H223 C231 0.950 . S
H224 C233 0.950 . S
H225 C235 0.950 . S
H226 C237 0.950 . S
H227 C239 0.950 . S
H228 C240 0.950 . S
C229 H221 0.950 . S
C229 C230 1.386 . S
C229 C231 1.391 1_554 S
C230 C229 1.386 . S
C230 C234 1.393 . S
C231 H223 0.950 . S
C231 C229 1.391 1_556 S
C231 C232 1.400 . S
C232 C231 1.400 . S
C232 C233 1.398 1_556 S
C232 C238 1.491 . S
C233 H224 0.950 . S
C233 C232 1.398 1_554 S
C233 C234 1.391 . S
C234 H222 0.950 . S
C234 C230 1.393 . S
C234 C233 1.391 . S
C235 H225 0.950 . S
C235 C236 1.386 . S
C235 C237 1.391 . S
C236 C235 1.386 . S
C236 C240 1.393 . S
C237 H226 0.950 . S
C237 C235 1.391 . S
C237 C238 1.400 . S
C238 C232 1.491 . S
C238 C237 1.400 . S
C238 C239 1.398 . S
C239 H227 0.950 . S
C239 C238 1.398 . S
C239 C240 1.391 . S
C240 H228 0.950 . S
C240 C236 1.393 . S
C240 C239 1.391 . S
H241 C249 0.950 . S
H242 C254 0.950 . S
H243 C251 0.950 . S
H244 C253 0.950 . S
H245 C255 0.950 . S
H246 C257 0.950 . S
H247 C259 0.950 . S
H248 C260 0.950 . S
C249 H241 0.950 . S
C249 C250 1.386 1_655 S
C249 C251 1.391 . S
C250 C249 1.386 1_455 S
C250 C254 1.393 . S
C251 H243 0.950 . S
C251 C249 1.391 . S
C251 C252 1.400 1_655 S
C252 C251 1.400 1_455 S
C252 C253 1.398 . S
C252 C258 1.491 . S
C253 H244 0.950 . S
C253 C252 1.398 . S
C253 C254 1.391 . S
C254 H242 0.950 . S
C254 C250 1.393 . S
C254 C253 1.391 . S
C255 H245 0.950 . S
C255 C256 1.386 . S
C255 C257 1.391 . S
C256 C255 1.386 . S
C256 C260 1.393 1_455 S
C257 H246 0.950 . S
C257 C255 1.391 . S
C257 C258 1.400 . S
C258 C252 1.491 . S
C258 C257 1.400 . S
C258 C259 1.398 1_455 S
C259 H247 0.950 . S
C259 C258 1.398 1_655 S
C259 C260 1.391 . S
C260 H248 0.950 . S
C260 C256 1.393 1_655 S
C260 C259 1.391 . S
H261 C269 0.950 . S
H262 C274 0.950 . S
H263 C271 0.950 . S
H264 C273 0.950 . S
H265 C275 0.950 . S
H266 C277 0.950 . S
H267 C279 0.950 . S
H268 C280 0.950 . S
C269 H261 0.950 . S
C269 C270 1.386 . S
C269 C271 1.391 . S
C270 C269 1.386 . S
C270 C274 1.393 1_545 S
C271 H263 0.950 . S
C271 C269 1.391 . S
C271 C272 1.400 . S
C272 C271 1.400 . S
C272 C273 1.398 1_545 S
C272 C278 1.491 . S
C273 H264 0.950 . S
C273 C272 1.398 1_565 S
C273 C274 1.391 . S
C274 H262 0.950 . S
C274 C270 1.393 1_565 S
C274 C273 1.391 . S
C275 H265 0.950 . S
C275 C276 1.386 1_565 S
C275 C277 1.391 . S
C276 C275 1.386 1_545 S
C276 C280 1.393 . S
C277 H266 0.950 . S
C277 C275 1.391 . S
C277 C278 1.400 1_565 S
C278 C272 1.491 . S
C278 C277 1.400 1_545 S
C278 C279 1.398 . S
C279 H267 0.950 . S
C279 C278 1.398 . S
C279 C280 1.391 . S
C280 H268 0.950 . S
C280 C276 1.393 . S
C280 C279 1.391 . S
H281 C289 0.958 . S
H282 C294 0.950 . S
H283 C291 0.950 . S
H284 C293 0.950 . S
H285 C295 0.950 . S
H286 C297 0.950 . S
H287 C299 0.950 . S
H288 C300 0.950 . S
C289 H281 0.958 . S
C289 C290 1.386 . S
C289 C291 1.391 1_554 S
C290 C289 1.386 . S
C290 C294 1.393 . S
C291 H283 0.950 . S
C291 C289 1.391 1_556 S
C291 C292 1.400 . S
C292 C291 1.400 . S
C292 C293 1.398 1_556 S
C292 C298 1.491 . S
C293 H284 0.950 . S
C293 C292 1.398 1_554 S
C293 C294 1.391 . S
C294 H282 0.950 . S
C294 C290 1.393 . S
C294 C293 1.391 . S
C295 H285 0.950 . S
C295 C296 1.386 . S
C295 C297 1.391 . S
C296 C295 1.386 . S
C296 C300 1.393 . S
C297 H286 0.950 . S
C297 C295 1.391 . S
C297 C298 1.400 . S
C298 C292 1.491 . S
C298 C297 1.400 . S
C298 C299 1.398 . S
C299 H287 0.950 . S
C299 C298 1.398 . S
C299 C300 1.391 . S
C300 H288 0.950 . S
C300 C296 1.393 . S
C300 C299 1.391 . S
H301 C309 0.950 . S
H302 C314 0.950 . S
H303 C311 0.950 . S
H304 C313 0.950 . S
H305 C315 0.950 . S
H306 C317 0.950 . S
H307 C319 0.950 . S
H308 C320 0.950 . S
C309 H301 0.950 . S
C309 C310 1.386 1_455 S
C309 C311 1.391 . S
C310 C309 1.386 1_655 S
C310 C314 1.393 . S
C311 H303 0.950 . S
C311 C309 1.391 . S
C311 C312 1.400 1_455 S
C312 C311 1.400 1_655 S
C312 C313 1.398 . S
C312 C318 1.491 1_655 S
C313 H304 0.950 . S
C313 C312 1.398 . S
C313 C314 1.391 . S
C314 H302 0.950 . S
C314 C310 1.393 . S
C314 C313 1.391 . S
C315 H305 0.950 . S
C315 C316 1.386 1_655 S
C315 C317 1.391 . S
C316 C315 1.386 1_455 S
C316 C320 1.393 . S
C317 H306 0.950 . S
C317 C315 1.391 . S
C317 C318 1.400 1_655 S
C318 C312 1.491 1_455 S
C318 C317 1.400 1_455 S
C318 C319 1.398 . S
C319 H307 0.950 . S
C319 C318 1.398 . S
C319 C320 1.391 . S
C320 H308 0.950 . S
C320 C316 1.393 . S
C320 C319 1.391 . S
C96 C40 1.497 . S
C90 C10 1.496 . S
C110 C17 1.497 . S
C116 C66 1.496 . S
C130 C36 1.497 . S
C136 C68 1.497 . S
C150 C5 1.499 . S
C156 C52 1.499 . S
C176 C54 1.497 . S
C170 C16 1.496 . S
C190 C31 1.499 . S
C196 C80 1.499 . S
C216 C53 1.497 . S
C210 C30 1.496 . S
C230 C3 1.497 . S
C236 C79 1.497 . S
C256 C39 1.498 . S
C250 C18 1.498 . S
C276 C65 1.499 . S
C270 C29 1.498 . S
C296 C67 1.497 . S
C290 C4 1.497 . S
C310 C23 1.496 . S
C316 C51 1.495 . S
