# Generated by pormake.
# Topology gar, (4,6)-cn, num edge types: 1
# Building blocks:
#     Node 0, Type 0, BuildingBlock: QUQFOY_clean_sbu_3, # of connection points: 4
#     Node 1, Type 0, BuildingBlock: QUQFOY_clean_sbu_3, # of connection points: 4
#     Node 2, Type 0, BuildingBlock: QUQFOY_clean_sbu_3, # of connection points: 4
#     Node 3, Type 0, BuildingBlock: QUQFOY_clean_sbu_3, # of connection points: 4
#     Node 4, Type 0, BuildingBlock: QUQFOY_clean_sbu_3, # of connection points: 4
#     Node 5, Type 0, BuildingBlock: QUQFOY_clean_sbu_3, # of connection points: 4
#     Node 6, Type 0, BuildingBlock: QUQFOY_clean_sbu_3, # of connection points: 4
#     Node 7, Type 0, BuildingBlock: QUQFOY_clean_sbu_3, # of connection points: 4
#     Node 8, Type 0, BuildingBlock: QUQFOY_clean_sbu_3, # of connection points: 4
#     Node 9, Type 0, BuildingBlock: QUQFOY_clean_sbu_3, # of connection points: 4
#     Node 10, Type 0, BuildingBlock: QUQFOY_clean_sbu_3, # of connection points: 4
#     Node 11, Type 0, BuildingBlock: QUQFOY_clean_sbu_3, # of connection points: 4
#     Node 12, Type 0, BuildingBlock: QUQFOY_clean_sbu_3, # of connection points: 4
#     Node 13, Type 0, BuildingBlock: QUQFOY_clean_sbu_3, # of connection points: 4
#     Node 14, Type 0, BuildingBlock: QUQFOY_clean_sbu_3, # of connection points: 4
#     Node 15, Type 0, BuildingBlock: QUQFOY_clean_sbu_3, # of connection points: 4
#     Node 16, Type 0, BuildingBlock: QUQFOY_clean_sbu_3, # of connection points: 4
#     Node 17, Type 0, BuildingBlock: QUQFOY_clean_sbu_3, # of connection points: 4
#     Node 18, Type 0, BuildingBlock: QUQFOY_clean_sbu_3, # of connection points: 4
#     Node 19, Type 0, BuildingBlock: QUQFOY_clean_sbu_3, # of connection points: 4
#     Node 20, Type 0, BuildingBlock: QUQFOY_clean_sbu_3, # of connection points: 4
#     Node 21, Type 0, BuildingBlock: QUQFOY_clean_sbu_3, # of connection points: 4
#     Node 22, Type 0, BuildingBlock: QUQFOY_clean_sbu_3, # of connection points: 4
#     Node 23, Type 0, BuildingBlock: QUQFOY_clean_sbu_3, # of connection points: 4
#     Node 24, Type 1, BuildingBlock: PAMTOO_clean_sbu_0, # of connection points: 6
#     Node 25, Type 1, BuildingBlock: PAMTOO_clean_sbu_0, # of connection points: 6
#     Node 26, Type 1, BuildingBlock: PAMTOO_clean_sbu_0, # of connection points: 6
#     Node 27, Type 1, BuildingBlock: PAMTOO_clean_sbu_0, # of connection points: 6
#     Node 28, Type 1, BuildingBlock: PAMTOO_clean_sbu_0, # of connection points: 6
#     Node 29, Type 1, BuildingBlock: PAMTOO_clean_sbu_0, # of connection points: 6
#     Node 30, Type 1, BuildingBlock: PAMTOO_clean_sbu_0, # of connection points: 6
#     Node 31, Type 1, BuildingBlock: PAMTOO_clean_sbu_0, # of connection points: 6
#     Node 32, Type 1, BuildingBlock: PAMTOO_clean_sbu_0, # of connection points: 6
#     Node 33, Type 1, BuildingBlock: PAMTOO_clean_sbu_0, # of connection points: 6
#     Node 34, Type 1, BuildingBlock: PAMTOO_clean_sbu_0, # of connection points: 6
#     Node 35, Type 1, BuildingBlock: PAMTOO_clean_sbu_0, # of connection points: 6
#     Node 36, Type 1, BuildingBlock: PAMTOO_clean_sbu_0, # of connection points: 6
#     Node 37, Type 1, BuildingBlock: PAMTOO_clean_sbu_0, # of connection points: 6
#     Node 38, Type 1, BuildingBlock: PAMTOO_clean_sbu_0, # of connection points: 6
#     Node 39, Type 1, BuildingBlock: PAMTOO_clean_sbu_0, # of connection points: 6
#     Edge 40, Type (0, 1), BuildingBlock: MIFKUJ_clean_linker_0, # of connection points: 2
#     Edge 41, Type (0, 1), BuildingBlock: MIFKUJ_clean_linker_0, # of connection points: 2
#     Edge 42, Type (0, 1), BuildingBlock: MIFKUJ_clean_linker_0, # of connection points: 2
#     Edge 43, Type (0, 1), BuildingBlock: MIFKUJ_clean_linker_0, # of connection points: 2
#     Edge 44, Type (0, 1), BuildingBlock: MIFKUJ_clean_linker_0, # of connection points: 2
#     Edge 45, Type (0, 1), BuildingBlock: MIFKUJ_clean_linker_0, # of connection points: 2
#     Edge 46, Type (0, 1), BuildingBlock: MIFKUJ_clean_linker_0, # of connection points: 2
#     Edge 47, Type (0, 1), BuildingBlock: MIFKUJ_clean_linker_0, # of connection points: 2
#     Edge 48, Type (0, 1), BuildingBlock: MIFKUJ_clean_linker_0, # of connection points: 2
#     Edge 49, Type (0, 1), BuildingBlock: MIFKUJ_clean_linker_0, # of connection points: 2
#     Edge 50, Type (0, 1), BuildingBlock: MIFKUJ_clean_linker_0, # of connection points: 2
#     Edge 51, Type (0, 1), BuildingBlock: MIFKUJ_clean_linker_0, # of connection points: 2
#     Edge 52, Type (0, 1), BuildingBlock: MIFKUJ_clean_linker_0, # of connection points: 2
#     Edge 53, Type (0, 1), BuildingBlock: MIFKUJ_clean_linker_0, # of connection points: 2
#     Edge 54, Type (0, 1), BuildingBlock: MIFKUJ_clean_linker_0, # of connection points: 2
#     Edge 55, Type (0, 1), BuildingBlock: MIFKUJ_clean_linker_0, # of connection points: 2
#     Edge 56, Type (0, 1), BuildingBlock: MIFKUJ_clean_linker_0, # of connection points: 2
#     Edge 57, Type (0, 1), BuildingBlock: MIFKUJ_clean_linker_0, # of connection points: 2
#     Edge 58, Type (0, 1), BuildingBlock: MIFKUJ_clean_linker_0, # of connection points: 2
#     Edge 59, Type (0, 1), BuildingBlock: MIFKUJ_clean_linker_0, # of connection points: 2
#     Edge 60, Type (0, 1), BuildingBlock: MIFKUJ_clean_linker_0, # of connection points: 2
#     Edge 61, Type (0, 1), BuildingBlock: MIFKUJ_clean_linker_0, # of connection points: 2
#     Edge 62, Type (0, 1), BuildingBlock: MIFKUJ_clean_linker_0, # of connection points: 2
#     Edge 63, Type (0, 1), BuildingBlock: MIFKUJ_clean_linker_0, # of connection points: 2
#     Edge 64, Type (0, 1), BuildingBlock: MIFKUJ_clean_linker_0, # of connection points: 2
#     Edge 65, Type (0, 1), BuildingBlock: MIFKUJ_clean_linker_0, # of connection points: 2
#     Edge 66, Type (0, 1), BuildingBlock: MIFKUJ_clean_linker_0, # of connection points: 2
#     Edge 67, Type (0, 1), BuildingBlock: MIFKUJ_clean_linker_0, # of connection points: 2
#     Edge 68, Type (0, 1), BuildingBlock: MIFKUJ_clean_linker_0, # of connection points: 2
#     Edge 69, Type (0, 1), BuildingBlock: MIFKUJ_clean_linker_0, # of connection points: 2
#     Edge 70, Type (0, 1), BuildingBlock: MIFKUJ_clean_linker_0, # of connection points: 2
#     Edge 71, Type (0, 1), BuildingBlock: MIFKUJ_clean_linker_0, # of connection points: 2
#     Edge 72, Type (0, 1), BuildingBlock: MIFKUJ_clean_linker_0, # of connection points: 2
#     Edge 73, Type (0, 1), BuildingBlock: MIFKUJ_clean_linker_0, # of connection points: 2
#     Edge 74, Type (0, 1), BuildingBlock: MIFKUJ_clean_linker_0, # of connection points: 2
#     Edge 75, Type (0, 1), BuildingBlock: MIFKUJ_clean_linker_0, # of connection points: 2
#     Edge 76, Type (0, 1), BuildingBlock: MIFKUJ_clean_linker_0, # of connection points: 2
#     Edge 77, Type (0, 1), BuildingBlock: MIFKUJ_clean_linker_0, # of connection points: 2
#     Edge 78, Type (0, 1), BuildingBlock: MIFKUJ_clean_linker_0, # of connection points: 2
#     Edge 79, Type (0, 1), BuildingBlock: MIFKUJ_clean_linker_0, # of connection points: 2
#     Edge 80, Type (0, 1), BuildingBlock: MIFKUJ_clean_linker_0, # of connection points: 2
#     Edge 81, Type (0, 1), BuildingBlock: MIFKUJ_clean_linker_0, # of connection points: 2
#     Edge 82, Type (0, 1), BuildingBlock: MIFKUJ_clean_linker_0, # of connection points: 2
#     Edge 83, Type (0, 1), BuildingBlock: MIFKUJ_clean_linker_0, # of connection points: 2
#     Edge 84, Type (0, 1), BuildingBlock: MIFKUJ_clean_linker_0, # of connection points: 2
#     Edge 85, Type (0, 1), BuildingBlock: MIFKUJ_clean_linker_0, # of connection points: 2
#     Edge 86, Type (0, 1), BuildingBlock: MIFKUJ_clean_linker_0, # of connection points: 2
#     Edge 87, Type (0, 1), BuildingBlock: MIFKUJ_clean_linker_0, # of connection points: 2
#     Edge 88, Type (0, 1), BuildingBlock: MIFKUJ_clean_linker_0, # of connection points: 2
#     Edge 89, Type (0, 1), BuildingBlock: MIFKUJ_clean_linker_0, # of connection points: 2
#     Edge 90, Type (0, 1), BuildingBlock: MIFKUJ_clean_linker_0, # of connection points: 2
#     Edge 91, Type (0, 1), BuildingBlock: MIFKUJ_clean_linker_0, # of connection points: 2
#     Edge 92, Type (0, 1), BuildingBlock: MIFKUJ_clean_linker_0, # of connection points: 2
#     Edge 93, Type (0, 1), BuildingBlock: MIFKUJ_clean_linker_0, # of connection points: 2
#     Edge 94, Type (0, 1), BuildingBlock: MIFKUJ_clean_linker_0, # of connection points: 2
#     Edge 95, Type (0, 1), BuildingBlock: MIFKUJ_clean_linker_0, # of connection points: 2
#     Edge 96, Type (0, 1), BuildingBlock: MIFKUJ_clean_linker_0, # of connection points: 2
#     Edge 97, Type (0, 1), BuildingBlock: MIFKUJ_clean_linker_0, # of connection points: 2
#     Edge 98, Type (0, 1), BuildingBlock: MIFKUJ_clean_linker_0, # of connection points: 2
#     Edge 99, Type (0, 1), BuildingBlock: MIFKUJ_clean_linker_0, # of connection points: 2
#     Edge 100, Type (0, 1), BuildingBlock: MIFKUJ_clean_linker_0, # of connection points: 2
#     Edge 101, Type (0, 1), BuildingBlock: MIFKUJ_clean_linker_0, # of connection points: 2
#     Edge 102, Type (0, 1), BuildingBlock: MIFKUJ_clean_linker_0, # of connection points: 2
#     Edge 103, Type (0, 1), BuildingBlock: MIFKUJ_clean_linker_0, # of connection points: 2
#     Edge 104, Type (0, 1), BuildingBlock: MIFKUJ_clean_linker_0, # of connection points: 2
#     Edge 105, Type (0, 1), BuildingBlock: MIFKUJ_clean_linker_0, # of connection points: 2
#     Edge 106, Type (0, 1), BuildingBlock: MIFKUJ_clean_linker_0, # of connection points: 2
#     Edge 107, Type (0, 1), BuildingBlock: MIFKUJ_clean_linker_0, # of connection points: 2
#     Edge 108, Type (0, 1), BuildingBlock: MIFKUJ_clean_linker_0, # of connection points: 2
#     Edge 109, Type (0, 1), BuildingBlock: MIFKUJ_clean_linker_0, # of connection points: 2
#     Edge 110, Type (0, 1), BuildingBlock: MIFKUJ_clean_linker_0, # of connection points: 2
#     Edge 111, Type (0, 1), BuildingBlock: MIFKUJ_clean_linker_0, # of connection points: 2
#     Edge 112, Type (0, 1), BuildingBlock: MIFKUJ_clean_linker_0, # of connection points: 2
#     Edge 113, Type (0, 1), BuildingBlock: MIFKUJ_clean_linker_0, # of connection points: 2
#     Edge 114, Type (0, 1), BuildingBlock: MIFKUJ_clean_linker_0, # of connection points: 2
#     Edge 115, Type (0, 1), BuildingBlock: MIFKUJ_clean_linker_0, # of connection points: 2
#     Edge 116, Type (0, 1), BuildingBlock: MIFKUJ_clean_linker_0, # of connection points: 2
#     Edge 117, Type (0, 1), BuildingBlock: MIFKUJ_clean_linker_0, # of connection points: 2
#     Edge 118, Type (0, 1), BuildingBlock: MIFKUJ_clean_linker_0, # of connection points: 2
#     Edge 119, Type (0, 1), BuildingBlock: MIFKUJ_clean_linker_0, # of connection points: 2
#     Edge 120, Type (0, 1), BuildingBlock: MIFKUJ_clean_linker_0, # of connection points: 2
#     Edge 121, Type (0, 1), BuildingBlock: MIFKUJ_clean_linker_0, # of connection points: 2
#     Edge 122, Type (0, 1), BuildingBlock: MIFKUJ_clean_linker_0, # of connection points: 2
#     Edge 123, Type (0, 1), BuildingBlock: MIFKUJ_clean_linker_0, # of connection points: 2
#     Edge 124, Type (0, 1), BuildingBlock: MIFKUJ_clean_linker_0, # of connection points: 2
#     Edge 125, Type (0, 1), BuildingBlock: MIFKUJ_clean_linker_0, # of connection points: 2
#     Edge 126, Type (0, 1), BuildingBlock: MIFKUJ_clean_linker_0, # of connection points: 2
#     Edge 127, Type (0, 1), BuildingBlock: MIFKUJ_clean_linker_0, # of connection points: 2
#     Edge 128, Type (0, 1), BuildingBlock: MIFKUJ_clean_linker_0, # of connection points: 2
#     Edge 129, Type (0, 1), BuildingBlock: MIFKUJ_clean_linker_0, # of connection points: 2
#     Edge 130, Type (0, 1), BuildingBlock: MIFKUJ_clean_linker_0, # of connection points: 2
#     Edge 131, Type (0, 1), BuildingBlock: MIFKUJ_clean_linker_0, # of connection points: 2
#     Edge 132, Type (0, 1), BuildingBlock: MIFKUJ_clean_linker_0, # of connection points: 2
#     Edge 133, Type (0, 1), BuildingBlock: MIFKUJ_clean_linker_0, # of connection points: 2
#     Edge 134, Type (0, 1), BuildingBlock: MIFKUJ_clean_linker_0, # of connection points: 2
#     Edge 135, Type (0, 1), BuildingBlock: MIFKUJ_clean_linker_0, # of connection points: 2
# Relax obj value: 0.124
# Max RMSD: 0.263
# Mean RMSD: 0.149
data_MOF--net-gar--node1-QUQFOY_clean_sbu_3--node2-PAMTOO_clean_sbu_0--edge1-MIFKUJ_clean_linker_0
_symmetry_space_group_name_H-M    P1
_symmetry_Int_Tables_number       1
_symmetry_cell_setting            triclinic
loop_
_symmetry_equiv_pos_as_xyz
'x, y, z'
_cell_length_a     75.893529
_cell_length_b     77.370954
_cell_length_c     74.600554
_cell_angle_alpha  96.686733
_cell_angle_beta   95.044073
_cell_angle_gamma 104.42775
loop_
_atom_site_label
_atom_site_type_symbol
_atom_site_fract_x
_atom_site_fract_y
_atom_site_fract_z
_atom_type_partial_charge
C0 C 0.00651 0.30132 0.33257 0.0
O1 O 0.01789 0.312 0.32477 0.0
Cd2 Cd 0.05003 0.32232 0.33545 0.0
O3 O 0.01217 0.29482 0.34627 0.0
Cd4 Cd 0.04285 0.29749 0.36434 0.0
C5 C 0.04793 0.34242 0.37808 0.0
O6 O 0.06225 0.29686 0.33943 0.0
O7 O 0.07701 0.30602 0.36624 0.0
O8 O 0.03727 0.26519 0.36727 0.0
C9 C 0.07748 0.301 0.3495 0.0
O10 O 0.0526 0.34471 0.36236 0.0
C11 C 0.03638 0.26708 0.38426 0.0
O12 O 0.04292 0.32655 0.38224 0.0
O13 O 0.03837 0.28303 0.39212 0.0
C14 C 0.98019 0.74971 0.70012 0.0
O15 O 0.98873 0.74045 0.70873 0.0
Cd16 Cd 0.01736 0.73512 0.70151 0.0
O17 O 0.98687 0.75686 0.68677 0.0
Cd18 Cd 0.01524 0.75766 0.67066 0.0
C19 C 0.00809 0.71223 0.6583 0.0
O20 O 0.0393 0.76226 0.69696 0.0
O21 O 0.04648 0.7543 0.67046 0.0
O22 O 0.02359 0.78964 0.6664 0.0
C23 C 0.05161 0.75954 0.68728 0.0
O24 O 0.01179 0.71177 0.67519 0.0
C25 C 0.01756 0.7871 0.64964 0.0
O26 O 0.00737 0.72702 0.65265 0.0
O27 O 0.01023 0.77088 0.6425 0.0
C28 C 0.50497 0.80187 0.83227 0.0
O29 O 0.51621 0.81203 0.82387 0.0
Cd30 Cd 0.54847 0.82269 0.83387 0.0
O31 O 0.51084 0.79585 0.84623 0.0
Cd32 Cd 0.54178 0.79811 0.86381 0.0
C33 C 0.54757 0.84356 0.87671 0.0
O34 O 0.56032 0.79707 0.83804 0.0
O35 O 0.57567 0.80414 0.8647 0.0
O36 O 0.53411 0.7657 0.86685 0.0
C37 C 0.57568 0.80009 0.84771 0.0
O38 O 0.55108 0.84532 0.86054 0.0
C39 C 0.53486 0.76785 0.88406 0.0
O40 O 0.54329 0.82791 0.88153 0.0
O41 O 0.53861 0.78401 0.89196 0.0
C42 C 0.4816 0.25133 0.19992 0.0
O43 O 0.49141 0.24467 0.21036 0.0
Cd44 Cd 0.51958 0.23831 0.20252 0.0
O45 O 0.48715 0.25602 0.18509 0.0
Cd46 Cd 0.51635 0.25775 0.17004 0.0
C47 C 0.51009 0.21246 0.16035 0.0
O48 O 0.54104 0.26491 0.19649 0.0
O49 O 0.54809 0.25549 0.17045 0.0
O50 O 0.51876 0.28924 0.16576 0.0
C51 C 0.55337 0.26186 0.18703 0.0
O52 O 0.51469 0.21356 0.17736 0.0
C53 C 0.51753 0.28672 0.14853 0.0
O54 O 0.50802 0.22636 0.1536 0.0
O55 O 0.51545 0.2706 0.14108 0.0
C56 C 0.02636 0.78541 0.13857 0.0
O57 O 0.03761 0.77849 0.14687 0.0
Cd58 Cd 0.06701 0.77679 0.13948 0.0
O59 O 0.03047 0.79303 0.12459 0.0
Cd60 Cd 0.05821 0.79988 0.10693 0.0
C61 C 0.05458 0.75406 0.09553 0.0
O62 O 0.08111 0.80595 0.13347 0.0
O63 O 0.09208 0.80126 0.10843 0.0
O64 O 0.05784 0.83197 0.10767 0.0
C65 C 0.09507 0.80535 0.12561 0.0
O66 O 0.06152 0.75493 0.1119 0.0
C67 C 0.05507 0.83217 0.09068 0.0
O68 O 0.05042 0.76776 0.08986 0.0
O69 O 0.05354 0.81723 0.08067 0.0
C70 C 0.46279 0.76736 0.40063 0.0
O71 O 0.47485 0.77703 0.39263 0.0
Cd72 Cd 0.50709 0.78701 0.40055 0.0
O73 O 0.46748 0.76073 0.41473 0.0
Cd74 Cd 0.49856 0.76106 0.43233 0.0
C75 C 0.50776 0.80766 0.44449 0.0
O76 O 0.51563 0.7608 0.40612 0.0
O77 O 0.53272 0.76769 0.43171 0.0
O78 O 0.49098 0.7278 0.43101 0.0
C79 C 0.53159 0.76431 0.41453 0.0
O80 O 0.51142 0.80836 0.42821 0.0
C81 C 0.4939 0.7272 0.44791 0.0
O82 O 0.50165 0.7924 0.44998 0.0
O83 O 0.49791 0.74234 0.45817 0.0
C84 C 0.52637 0.28654 0.64012 0.0
O85 O 0.53739 0.27933 0.64842 0.0
Cd86 Cd 0.56662 0.27651 0.64127 0.0
O87 O 0.53055 0.29403 0.62607 0.0
Cd88 Cd 0.55821 0.30079 0.60815 0.0
C89 C 0.55474 0.2548 0.59669 0.0
O90 O 0.58044 0.30538 0.63481 0.0
O91 O 0.59267 0.3045 0.61008 0.0
O92 O 0.55726 0.33276 0.6087 0.0
C93 C 0.59486 0.30617 0.62733 0.0
O94 O 0.561 0.25529 0.61321 0.0
C95 C 0.55434 0.33274 0.59168 0.0
O96 O 0.5511 0.26872 0.591 0.0
O97 O 0.55304 0.31778 0.58181 0.0
C98 C 0.96345 0.26825 0.9013 0.0
O99 O 0.97581 0.27873 0.89432 0.0
Cd100 Cd 0.0081 0.28784 0.90177 0.0
O101 O 0.96782 0.26031 0.91457 0.0
Cd102 Cd -0.00114 0.26041 0.93263 0.0
C103 C 0.00802 0.30714 0.94594 0.0
O104 O 0.01537 0.26065 0.90582 0.0
O105 O 0.03275 0.26473 0.93096 0.0
O106 O 0.98741 0.22719 0.9335 0.0
C107 C 0.03129 0.26269 0.91376 0.0
O108 O 0.01224 0.30838 0.92991 0.0
C109 C 0.99438 0.22728 0.94966 0.0
O110 O 0.00163 0.29162 0.9508 0.0
O111 O 0.00222 0.24279 0.9585 0.0
C112 C 0.42966 0.03109 0.3145 0.0
O113 O 0.43781 0.02534 0.30184 0.0
Cd114 Cd 0.42555 0.01675 0.27051 0.0
O115 O 0.41419 0.03437 0.31101 0.0
Cd116 Cd 0.39277 0.03369 0.28394 0.0
C117 C 0.38463 0.98854 0.27774 0.0
O118 O 0.41321 0.03996 0.2613 0.0
O119 O 0.38503 0.02721 0.25093 0.0
O120 O 0.38871 0.06349 0.29234 0.0
C121 C 0.40127 0.03367 0.2476 0.0
O122 O 0.39988 0.99053 0.27124 0.0
C123 C 0.37151 0.05803 0.2926 0.0
O124 O 0.37937 0.00208 0.28433 0.0
O125 O 0.36438 0.04111 0.28955 0.0
C126 C 0.2985 0.15718 0.52235 0.0
O127 O 0.28555 0.1482 0.52989 0.0
Cd128 Cd 0.2558 0.15241 0.53067 0.0
O129 O 0.29611 0.16963 0.51329 0.0
Cd130 Cd 0.27062 0.18342 0.50393 0.0
C131 C 0.26896 0.19794 0.54852 0.0
O132 O 0.24726 0.15561 0.50037 0.0
O133 O 0.23683 0.17882 0.4986 0.0
O134 O 0.27811 0.18106 0.47282 0.0
C135 C 0.23351 0.16184 0.49788 0.0
O136 O 0.26248 0.18135 0.5498 0.0
C137 C 0.2802 0.19756 0.47118 0.0
O138 O 0.27349 0.20305 0.53351 0.0
O139 O 0.27851 0.20791 0.48512 0.0
C140 C 0.0936 0.03009 0.80804 0.0
O141 O 0.08465 0.03846 0.79863 0.0
Cd142 Cd 0.08974 0.0457 0.76867 0.0
O143 O 0.10649 0.02435 0.80166 0.0
Cd144 Cd 0.12129 0.02427 0.7729 0.0
C145 C 0.13487 0.07027 0.77669 0.0
O146 O 0.09373 0.01956 0.75096 0.0
O147 O 0.11964 0.02483 0.74009 0.0
O148 O 0.12411 0.99346 0.7741 0.0
C149 C 0.10235 0.02154 0.73719 0.0
O150 O 0.11808 0.06963 0.77236 0.0
C151 C 0.14143 0.99755 0.77445 0.0
O152 O 0.13976 0.05596 0.7789 0.0
O153 O 0.14936 0.01406 0.77439 0.0
C154 C 0.29637 0.94171 -0.00253 0.0
O155 O 0.28636 0.94799 0.9868 0.0
Cd156 Cd 0.25391 0.93553 0.97941 0.0
O157 O 0.28956 0.92788 0.00476 0.0
Cd158 Cd 0.26011 0.90624 0.00482 0.0
C159 C 0.25245 0.89366 0.95925 0.0
O160 O 0.24395 0.92873 0.00801 0.0
O161 O 0.22687 0.90139 0.00486 0.0
O162 O 0.2649 0.90008 0.03574 0.0
C163 C 0.2282 0.91819 0.0077 0.0
O164 O 0.24949 0.90875 0.95685 0.0
C165 C 0.2669 0.88446 0.03094 0.0
O166 O 0.25703 0.89047 0.97502 0.0
O167 O 0.26574 0.87907 0.01407 0.0
C168 C 0.30686 0.40445 0.01976 0.0
O169 O 0.29679 0.41003 0.00847 0.0
Cd170 Cd 0.26452 0.40026 0.0008 0.0
O171 O 0.29994 0.39177 0.02868 0.0
Cd172 Cd 0.26851 0.37201 0.0305 0.0
C173 C 0.26299 0.35622 0.98493 0.0
O174 O 0.25519 0.39679 0.02967 0.0
O175 O 0.23513 0.37169 0.02916 0.0
O176 O 0.27845 0.37296 0.0628 0.0
C177 C 0.23856 0.38859 0.0293 0.0
O178 O 0.26006 0.37126 0.98216 0.0
C179 C 0.27173 0.35626 0.06322 0.0
O180 O 0.26753 0.35326 0.00094 0.0
O181 O 0.26394 0.34671 0.04826 0.0
C182 C 0.81558 0.12901 0.03838 0.0
O183 O 0.80397 0.1193 0.04681 0.0
Cd184 Cd 0.77288 0.12058 0.04744 0.0
O185 O 0.81133 0.14086 0.02968 0.0
Cd186 Cd 0.78509 0.15308 0.02407 0.0
C187 C 0.77956 0.16354 0.0682 0.0
O188 O 0.76227 0.12436 0.01722 0.0
O189 O 0.75222 0.1482 0.01872 0.0
O190 O 0.79029 0.15905 0.99354 0.0
C191 C 0.74876 0.13116 0.01554 0.0
O192 O 0.77422 0.1468 0.06929 0.0
C193 C 0.7945 0.17607 -0.00223 0.0
O194 O 0.78479 0.16912 0.05369 0.0
O195 O 0.79484 0.18227 0.01434 0.0
C196 C 0.12924 0.53599 0.26402 0.0
O197 O 0.11912 0.53854 0.25062 0.0
Cd198 Cd 0.12388 0.53377 0.2194 0.0
O199 O 0.14297 0.52968 0.2616 0.0
Cd200 Cd 0.15881 0.51952 0.2364 0.0
C201 C 0.16792 0.56163 0.22539 0.0
O202 O 0.13231 0.50619 0.21504 0.0
O203 O 0.15783 0.50966 0.20371 0.0
O204 O 0.16241 0.49408 0.2509 0.0
C205 C 0.14047 0.5045 0.20112 0.0
O206 O 0.15103 0.55832 0.21924 0.0
C207 C 0.17976 0.49823 0.25166 0.0
O208 O 0.17427 0.55014 0.23293 0.0
O209 O 0.18735 0.51243 0.24532 0.0
C210 C 0.80646 0.91048 0.53114 0.0
O211 O 0.79733 0.91979 0.52341 0.0
Cd212 Cd 0.7671 0.90684 0.50882 0.0
O213 O 0.79894 0.89442 0.53367 0.0
Cd214 Cd 0.76701 0.87418 0.53069 0.0
C215 C 0.77115 0.8661 0.48637 0.0
O216 O 0.74976 0.89649 0.53215 0.0
O217 O 0.73413 0.8698 0.51994 0.0
O218 O 0.76967 0.87473 0.56326 0.0
C219 C 0.73431 0.8859 0.52587 0.0
O220 O 0.76963 0.88213 0.4863 0.0
C221 C 0.76666 0.85786 0.56321 0.0
O222 O 0.77094 0.85913 0.50105 0.0
O223 O 0.76409 0.84812 0.54775 0.0
C224 C 0.96045 0.02217 0.29119 0.0
O225 O 0.96641 0.01295 0.27906 0.0
Cd226 Cd 0.95484 0.00673 0.24719 0.0
O227 O 0.9475 0.0293 0.28689 0.0
Cd228 Cd 0.92791 0.03036 0.25856 0.0
C229 C 0.91097 0.98467 0.25141 0.0
O230 O 0.95161 0.03443 0.23779 0.0
O231 O 0.92375 0.0298 0.22549 0.0
O232 O 0.92687 0.06102 0.27069 0.0
C233 C 0.94064 0.03338 0.22362 0.0
O234 O 0.92577 0.98379 0.245 0.0
C235 C 0.90955 0.05772 0.26736 0.0
O236 O 0.9088 -0.00028 0.25834 0.0
O237 O 0.90095 0.04171 0.26053 0.0
C238 C 0.30859 0.61928 0.53812 0.0
O239 O 0.29465 0.60964 0.54384 0.0
Cd240 Cd 0.26459 0.61456 0.54208 0.0
O241 O 0.30762 0.633 0.53057 0.0
Cd242 Cd 0.28524 0.64942 0.52272 0.0
C243 C 0.27516 0.65666 0.5661 0.0
O244 O 0.2609 0.62285 0.51239 0.0
O245 O 0.25328 0.64771 0.51159 0.0
O246 O 0.29943 0.65986 0.49645 0.0
C247 C 0.24847 0.63063 0.50889 0.0
O248 O 0.26659 0.64015 0.56533 0.0
C249 C 0.3018 0.67643 0.50261 0.0
O250 O 0.28337 0.66233 0.55297 0.0
O251 O 0.29697 0.68004 0.51816 0.0
C252 C 0.46277 0.52487 0.79219 0.0
O253 O 0.46903 0.51576 0.78023 0.0
Cd254 Cd 0.45713 0.50834 0.74869 0.0
O255 O 0.4494 0.53139 0.78774 0.0
Cd256 Cd 0.42924 0.53137 0.7592 0.0
C257 C 0.41312 0.48554 0.753 0.0
O258 O 0.45244 0.53506 0.73812 0.0
O259 O 0.42432 0.5278 0.7258 0.0
O260 O 0.42839 0.56304 0.76475 0.0
C261 C 0.44121 0.53243 0.72382 0.0
O262 O 0.42863 0.48504 0.74803 0.0
C263 C 0.41159 0.55965 0.76713 0.0
O264 O 0.40987 0.50056 0.75841 0.0
O265 O 0.40305 0.54317 0.76623 0.0
C266 C 0.62046 0.02879 0.77059 0.0
O267 O 0.60935 0.03074 0.75769 0.0
Cd268 Cd 0.61603 0.03135 0.72686 0.0
O269 O 0.63544 0.02518 0.7674 0.0
Cd270 Cd 0.65227 0.01897 0.74174 0.0
C271 C 0.65842 0.06234 0.73593 0.0
O272 O 0.62782 0.00645 0.71751 0.0
O273 O 0.65475 0.01573 0.70932 0.0
O274 O 0.65714 0.99145 0.75066 0.0
C275 C 0.63772 0.00886 0.7047 0.0
O276 O 0.64151 0.05837 0.72963 0.0
C277 C 0.67438 0.99756 0.75453 0.0
O278 O 0.66571 0.05068 0.74194 0.0
O279 O 0.68143 0.01376 0.7523 0.0
C280 C 0.79702 0.65835 0.02016 0.0
O281 O 0.78389 0.64972 0.02774 0.0
Cd282 Cd 0.75493 0.65534 0.02993 0.0
O283 O 0.79542 0.67154 0.01186 0.0
Cd284 Cd 0.77043 0.68647 0.00352 0.0
C285 C 0.76885 0.70073 0.0482 0.0
O286 O 0.74701 0.65878 -0.0004 0.0
O287 O 0.73644 0.68181 -0.00237 0.0
O288 O 0.77936 0.68535 0.9729 0.0
C289 C 0.73319 0.66485 -0.00305 0.0
O290 O 0.76208 0.6842 0.0495 0.0
C291 C 0.78075 0.70182 0.97157 0.0
O292 O 0.77357 0.70576 0.03323 0.0
O293 O 0.77789 0.71151 0.98542 0.0
C294 C 0.92485 0.52336 0.81782 0.0
O295 O 0.93282 0.51594 0.80603 0.0
Cd296 Cd 0.92813 0.51295 0.77361 0.0
O297 O 0.9122 0.5307 0.81309 0.0
Cd298 Cd 0.89612 0.53443 0.78408 0.0
C299 C 0.8834 0.489 0.76993 0.0
O300 O 0.92262 0.54081 0.76879 0.0
O301 O 0.89768 0.53832 0.75172 0.0
O302 O 0.89003 0.56277 0.79611 0.0
C303 C 0.91487 0.54054 0.75305 0.0
O304 O 0.89946 0.48942 0.76589 0.0
C305 C 0.87285 0.55698 0.7913 0.0
O306 O 0.87962 0.503 0.77752 0.0
O307 O 0.86681 0.5407 0.78383 0.0
C308 C 0.79398 0.43729 0.49847 0.0
O309 O 0.78395 0.44517 0.48975 0.0
Cd310 Cd 0.75164 0.4327 0.48249 0.0
O311 O 0.78707 0.42258 0.50433 0.0
Cd312 Cd 0.75631 0.40276 0.50517 0.0
C313 C 0.7503 0.39151 0.45999 0.0
O314 O 0.74236 0.42697 0.51173 0.0
O315 O 0.72352 0.4005 0.50539 0.0
O316 O 0.76904 0.39739 0.53431 0.0
C317 C 0.7263 0.41707 0.51136 0.0
O318 O 0.74691 0.40663 0.45855 0.0
C319 C 0.76105 0.38065 0.53174 0.0
O320 O 0.75494 0.38759 0.47542 0.0
O321 O 0.75092 0.3743 0.5168 0.0
C322 C 0.59609 0.53036 0.30985 0.0
O323 O 0.58637 0.53801 0.30044 0.0
Cd324 Cd 0.59224 0.54651 0.27121 0.0
O325 O 0.60942 0.52551 0.30342 0.0
Cd326 Cd 0.62304 0.52579 0.27401 0.0
C327 C 0.63733 0.57117 0.28073 0.0
O328 O 0.59595 0.52149 0.25137 0.0
O329 O 0.62244 0.53143 0.24254 0.0
O330 O 0.62465 0.49445 0.27278 0.0
C331 C 0.60521 0.52604 0.2385 0.0
O332 O 0.6206 0.57064 0.27622 0.0
C333 C 0.64191 0.49798 0.27271 0.0
O334 O 0.64216 0.55673 0.28227 0.0
O335 O 0.65042 0.51447 0.27352 0.0
Dy336 Dy 0.04301 0.04057 0.02901 0.0
Dy337 Dy 0.0041 0.01638 0.00711 0.0
C338 C 0.04002 0.02277 0.98719 0.0
O339 O 0.02682 0.06063 0.02438 0.0
O340 O 0.00725 0.04439 -0.00033 0.0
O341 O 0.06769 0.06218 0.03051 0.0
O342 O 0.06206 0.04809 0.05358 0.0
O343 O 0.99704 0.02943 0.03297 0.0
O344 O 0.02449 0.03241 0.04976 0.0
O345 O 0.01549 0.99718 0.022 0.0
O346 O 0.04601 0.01219 0.02754 0.0
O347 O 0.98026 0.99404 0.00573 0.0
O348 O 0.98368 0.00981 0.98354 0.0
C349 C 0.01536 0.05991 0.00987 0.0
O350 O 0.04797 0.03641 -0.00012 0.0
O351 O 0.02457 0.01131 0.98899 0.0
C352 C 0.09149 0.05279 0.04552 0.0
C353 C 0.11512 0.03035 0.04591 0.0
C354 C 0.10678 0.03297 0.02933 0.0
C355 C 0.09507 0.04417 0.02911 0.0
C356 C 0.10127 0.05153 0.06198 0.0
C357 C 0.11313 0.04032 0.06217 0.0
C358 C 0.07448 0.05846 0.04582 0.0
C359 C 0.00696 0.03139 0.04874 0.0
C360 C 0.03262 0.99747 0.02701 0.0
C361 C 0.9543 0.001 0.99218 0.0
C362 C 0.9237 0.01495 0.994 0.0
C363 C 0.93439 0.01395 0.01 0.0
C364 C 0.94958 0.00709 0.0091 0.0
C365 C 0.94287 0.00065 0.97625 0.0
C366 C 0.92761 0.0076 0.97715 0.0
C367 C 0.97243 0.99788 0.991 0.0
H368 H 0.10834 0.02539 0.01667 0.0
H369 H 0.0876 0.04471 0.01622 0.0
H370 H 0.09848 0.05788 0.07477 0.0
H371 H 0.11956 0.03835 0.07505 0.0
H372 H 0.93197 0.01978 0.02318 0.0
H373 H 0.95827 0.00769 0.02161 0.0
H374 H 0.94638 0.99605 0.96308 0.0
H375 H 0.91948 0.00811 0.96464 0.0
Dy376 Dy 0.28456 0.78457 0.2608 0.0
Dy377 Dy 0.25259 0.7792 0.2941 0.0
C378 C 0.27626 0.81314 0.29331 0.0
O379 O 0.30069 0.78027 0.28544 0.0
O380 O 0.2803 0.77771 0.30749 0.0
O381 O 0.29866 0.80819 0.25028 0.0
O382 O 0.30539 0.78251 0.24343 0.0
O383 O 0.24961 0.75339 0.27494 0.0
O384 O 0.27319 0.75532 0.25628 0.0
O385 O 0.23837 0.78468 0.26811 0.0
O386 O 0.25731 0.78219 0.24525 0.0
O387 O 0.23846 0.75941 0.30957 0.0
O388 O 0.23155 0.78494 0.30979 0.0
C389 C 0.2966 0.778 0.30204 0.0
O390 O 0.27529 0.79889 0.28225 0.0
O391 O 0.26425 0.80914 0.30423 0.0
C392 C 0.30488 0.80064 0.22032 0.0
C393 C 0.29896 0.80134 0.18271 0.0
C394 C 0.28863 0.8089 0.19461 0.0
C395 C 0.29145 0.80844 0.21319 0.0
C396 C 0.31544 0.79334 0.20855 0.0
C397 C 0.31248 0.79364 0.18986 0.0
C398 C 0.30707 0.79896 0.23975 0.0
C399 C 0.25874 0.74629 0.26293 0.0
C400 C 0.24168 0.78393 0.25085 0.0
C401 C 0.2352 0.77388 0.33748 0.0
C402 C 0.25066 0.77271 0.37263 0.0
C403 C 0.23294 0.76193 0.36603 0.0
C404 C 0.22528 0.76242 0.34841 0.0
C405 C 0.25213 0.78586 0.34478 0.0
C406 C 0.25984 0.78524 0.36223 0.0
C407 C 0.23045 0.77062 0.31775 0.0
H408 H 0.27845 0.8154 0.18963 0.0
H409 H 0.28298 0.81409 0.22191 0.0
H410 H 0.32577 0.78715 0.21378 0.0
H411 H 0.32062 0.78768 0.18101 0.0
H412 H 0.22575 0.75204 0.37383 0.0
H413 H 0.21235 0.75292 0.34287 0.0
H414 H 0.26013 0.79461 0.33644 0.0
H415 H 0.27353 0.79361 0.36709 0.0
Dy416 Dy 0.49886 0.02577 0.52228 0.0
Dy417 Dy 0.54954 0.03456 0.51771 0.0
C418 C 0.52423 0.03004 0.48665 0.0
O419 O 0.5053 -0.00134 0.51581 0.0
O420 O 0.53658 0.00448 0.51071 0.0
O421 O 0.47811 0.02936 0.50259 0.0
O422 O 0.47036 0.01628 0.52612 0.0
O423 O 0.52882 0.0314 0.53617 0.0
O424 O 0.5069 0.02599 0.55222 0.0
O425 O 0.5431 0.06161 0.52428 0.0
O426 O 0.51174 0.05592 0.52914 0.0
O427 O 0.56993 0.03045 0.53747 0.0
O428 O 0.57813 0.04447 0.5146 0.0
C429 C 0.52011 0.99343 0.51143 0.0
O430 O 0.51882 0.02916 0.50263 0.0
O431 O 0.54196 0.03341 0.48773 0.0
C432 C 0.45316 0.03572 0.51562 0.0
C433 C 0.43392 0.06224 0.52072 0.0
C434 C 0.43405 0.0534 0.50323 0.0
C435 C 0.44357 0.04023 0.5007 0.0
C436 C 0.45274 0.04429 0.53321 0.0
C437 C 0.44305 0.05738 0.53575 0.0
C438 C 0.46496 0.02351 0.5123 0.0
C439 C 0.52454 0.02959 0.55236 0.0
C440 C 0.52828 0.06691 0.52851 0.0
C441 C 0.59468 0.02446 0.52394 0.0
C442 C 0.61465 -0.00141 0.51839 0.0
C443 C 0.59783 0.99652 0.50775 0.0
C444 C 0.58793 0.00936 0.51052 0.0
C445 C 0.6116 0.02683 0.5343 0.0
C446 C 0.62157 0.01402 0.53151 0.0
C447 C 0.58331 0.03677 0.52815 0.0
H448 H 0.42681 0.05676 0.49153 0.0
H449 H 0.44384 0.03387 0.48702 0.0
H450 H 0.46026 0.04125 0.54493 0.0
H451 H 0.44315 0.06407 0.54936 0.0
H452 H 0.59201 0.98468 0.49775 0.0
H453 H 0.57472 0.00723 0.50257 0.0
H454 H 0.6169 0.03836 0.54479 0.0
H455 H 0.6346 0.01611 0.53975 0.0
Dy456 Dy 0.29346 0.27274 0.77021 0.0
Dy457 Dy 0.25425 0.2852 0.76701 0.0
C458 C 0.29285 0.31267 0.76452 0.0
O459 O 0.29087 0.28467 0.7985 0.0
O460 O 0.2596 0.27997 0.7953 0.0
O461 O 0.32264 0.27924 0.77858 0.0
O462 O 0.30854 0.253 0.76368 0.0
O463 O 0.2469 0.25515 0.76344 0.0
O464 O 0.27259 0.25002 0.77827 0.0
O465 O 0.262 0.2841 0.73871 0.0
O466 O 0.28024 0.26462 0.74153 0.0
O467 O 0.22561 0.28088 0.75696 0.0
O468 O 0.23939 0.30415 0.77675 0.0
C469 C 0.27542 0.28399 0.80549 0.0
O470 O 0.29941 0.29896 0.75953 0.0
O471 O 0.2771 0.31048 0.77114 0.0
C472 C 0.33873 0.26579 0.75772 0.0
C473 C 0.36674 0.26902 0.73461 0.0
C474 C 0.35168 0.2762 0.73092 0.0
C475 C 0.33781 0.2746 0.74236 0.0
C476 C 0.35355 0.25846 0.76136 0.0
C477 C 0.36739 0.26002 0.74995 0.0
C478 C 0.32437 0.26416 0.77002 0.0
C479 C 0.25519 0.24464 0.77157 0.0
C480 C 0.27092 0.273 0.73149 0.0
C481 C 0.20857 0.29056 0.77966 0.0
C482 C 0.18061 0.28471 0.80286 0.0
C483 C 0.18954 0.27121 0.79799 0.0
C484 C 0.20342 0.27414 0.78658 0.0
C485 C 0.19979 0.30404 0.7845 0.0
C486 C 0.18602 0.30119 0.79598 0.0
C487 C 0.22372 0.29431 0.76829 0.0
H488 H 0.35076 0.28335 0.71937 0.0
H489 H 0.32644 0.28033 0.7393 0.0
H490 H 0.35444 0.25151 0.77308 0.0
H491 H 0.37854 0.25403 0.75308 0.0
H492 H 0.1857 0.25829 0.80283 0.0
H493 H 0.21017 0.26359 0.78324 0.0
H494 H 0.20374 0.31692 0.77956 0.0
H495 H 0.17982 0.31207 0.79968 0.0
Dy496 Dy 0.03043 0.00905 0.51564 0.0
Dy497 Dy 0.01658 0.04668 0.52089 0.0
C498 C 0.99011 0.00898 0.52526 0.0
O499 O 0.02692 0.01622 0.48758 0.0
O500 O 0.00601 0.03266 0.49266 0.0
O501 O 0.0267 0.98122 0.5041 0.0
O502 O 0.05055 0.99495 0.52332 0.0
O503 O 0.04155 0.05264 0.5069 0.0
O504 O 0.05535 0.0322 0.51774 0.0
O505 O 0.03217 0.04563 0.5476 0.0
O506 O 0.02752 0.01499 0.54496 0.0
O507 O 0.02286 0.07533 0.52997 0.0
O508 O 0.9958 0.06097 0.51664 0.0
C509 C 0.0144 0.02392 0.48152 0.0
O510 O 4e-05 0.00098 0.5153 0.0
O511 O 0.99568 0.0262 0.53187 0.0
C512 C 0.03813 0.96409 0.52455 0.0
C513 C 0.03408 0.93533 0.54534 0.0
C514 C 0.01994 0.94394 0.54274 0.0
C515 C 0.02199 0.95827 0.53253 0.0
C516 C 0.05219 0.95548 0.52702 0.0
C517 C 0.05021 0.94127 0.53732 0.0
C518 C 0.04092 0.97957 0.51429 0.0
C519 C 0.05624 0.04717 0.51077 0.0
C520 C 0.0322 0.03094 0.55488 0.0
C521 C 0.00801 0.0906 0.51055 0.0
C522 C 0.01079 0.11793 0.48803 0.0
C523 C 0.01443 0.1014 0.48184 0.0
C524 C 0.01309 0.08788 0.493 0.0
C525 C 0.00426 0.10694 0.51676 0.0
C526 C 0.00563 0.12048 0.50563 0.0
C527 C 0.00711 0.0767 0.52263 0.0
H528 H 0.00744 0.93984 0.54891 0.0
H529 H 0.01104 0.96489 0.53102 0.0
H530 H 0.06478 0.95984 0.52105 0.0
H531 H 0.06128 0.93482 0.53889 0.0
H532 H 0.01821 0.09884 0.46832 0.0
H533 H 0.01607 0.07534 0.48797 0.0
H534 H 0.00045 0.10932 0.53031 0.0
H535 H 0.003 0.13309 0.511 0.0
Dy536 Dy 0.27961 0.79909 0.76228 0.0
Dy537 Dy 0.27208 0.75693 0.77086 0.0
C538 C 0.26527 0.78732 0.79938 0.0
O539 O 0.30749 0.79411 0.76681 0.0
O540 O 0.30011 0.77173 0.78468 0.0
O541 O 0.29144 0.82778 0.76992 0.0
O542 O 0.27517 0.81748 0.74379 0.0
O543 O 0.28819 0.75963 0.74758 0.0
O544 O 0.27685 0.78116 0.736 0.0
O545 O 0.24628 0.75893 0.75479 0.0
O546 O 0.24943 0.78921 0.76259 0.0
O547 O 0.2638 0.7285 0.76044 0.0
O548 O 0.27256 0.73741 0.7892 0.0
C549 C 0.31237 0.78408 0.77845 0.0
O550 O 0.27584 0.79964 0.79155 0.0
O551 O 0.25962 0.77032 0.79227 0.0
C552 C 0.27209 0.84472 0.75874 0.0
C553 C 0.24985 0.86886 0.76321 0.0
C554 C 0.24646 0.85309 0.77148 0.0
C555 C 0.25746 0.84111 0.76922 0.0
C556 C 0.27559 0.86041 0.75056 0.0
C557 C 0.26459 0.87237 0.75274 0.0
C558 C 0.2831 0.83174 0.75552 0.0
C559 C 0.28379 0.76728 0.73377 0.0
C560 C 0.23928 0.77293 0.75616 0.0
C561 C 0.28067 0.71195 0.77592 0.0
C562 C 0.30447 0.68918 0.7762 0.0
C563 C 0.31069 0.70708 0.77279 0.0
C564 C 0.29891 0.71837 0.77268 0.0
C565 C 0.27428 0.69414 0.77914 0.0
C566 C 0.28606 0.68283 0.77925 0.0
C567 C 0.26832 0.72383 0.77609 0.0
H568 H 0.23539 0.85003 0.77978 0.0
H569 H 0.25447 0.82895 0.77554 0.0
H570 H 0.28669 0.86329 0.74225 0.0
H571 H 0.26741 0.88419 0.74591 0.0
H572 H 0.32472 0.71247 0.77045 0.0
H573 H 0.30406 0.73214 0.77017 0.0
H574 H 0.26019 0.68898 0.78157 0.0
H575 H 0.28064 0.66904 0.78154 0.0
Dy576 Dy 0.52626 0.03757 0.0054 0.0
Dy577 Dy 0.53052 0.01406 0.03864 0.0
C578 C 0.53217 -0.00168 -0.00246 0.0
O579 O 0.4985 0.0193 0.00492 0.0
O580 O 0.50062 0.01153 0.03382 0.0
O581 O 0.51773 0.03982 0.97762 0.0
O582 O 0.53172 0.06375 -0.00345 0.0
O583 O 0.53135 0.04226 0.05132 0.0
O584 O 0.51446 0.05006 0.0282 0.0
O585 O 0.55826 0.0226 0.03004 0.0
O586 O 0.55424 0.04842 0.02041 0.0
O587 O 0.53867 0.01293 0.06694 0.0
O588 O 0.52854 0.98837 0.04794 0.0
C589 C 0.49105 0.01222 0.0185 0.0
O590 O 0.53725 0.01488 0.99376 0.0
O591 O 0.52519 0.99503 0.01265 0.0
C592 C 0.53876 0.06249 0.96668 0.0
C593 C 0.56238 0.07089 0.94018 0.0
C594 C 0.56574 0.05956 0.95279 0.0
C595 C 0.55403 0.05543 0.96596 0.0
C596 C 0.53572 0.07435 0.95469 0.0
C597 C 0.54749 0.07858 0.94154 0.0
C598 C 0.5258 0.05704 0.97962 0.0
C599 C 0.52151 0.05268 0.04529 0.0
C600 C 0.56495 0.03863 0.02573 0.0
C601 C 0.51867 0.98867 0.07683 0.0
C602 C 0.49197 0.9819 0.10068 0.0
C603 C 0.48675 0.98138 0.08208 0.0
C604 C 0.49999 0.98476 0.07027 0.0
C605 C 0.5239 0.9881 0.09519 0.0
C606 C 0.51058 0.98464 0.10708 0.0
C607 C 0.53247 0.99544 0.06499 0.0
H608 H 0.57689 0.05319 0.95195 0.0
H609 H 0.55657 0.0463 0.97525 0.0
H610 H 0.52406 0.08002 0.95525 0.0
H611 H 0.54469 0.08751 0.93215 0.0
H612 H 0.47247 0.97924 0.07685 0.0
H613 H 0.49569 0.98515 0.05615 0.0
H614 H 0.53826 0.99121 0.10048 0.0
H615 H 0.51492 0.9853 0.12143 0.0
Dy616 Dy 0.26535 0.25691 0.25671 0.0
Dy617 Dy 0.28781 0.29679 0.27784 0.0
C618 C 0.2828 0.26211 0.29809 0.0
O619 O 0.24465 0.2666 0.27187 0.0
O620 O 0.25824 0.29707 0.27672 0.0
O621 O 0.24704 0.23064 0.25668 0.0
O622 O 0.2586 0.23763 0.23216 0.0
O623 O 0.28379 0.29923 0.24829 0.0
O624 O 0.25819 0.27595 0.23893 0.0
O625 O 0.30954 0.28238 0.27308 0.0
O626 O 0.29372 0.26268 0.24827 0.0
O627 O 0.30733 0.32246 0.27794 0.0
O628 O 0.29415 0.31667 0.30189 0.0
C629 C 0.24403 0.28329 0.27681 0.0
O630 O 0.27988 0.25181 0.28227 0.0
O631 O 0.28305 0.27919 0.29933 0.0
C632 C 0.25773 0.20912 0.23979 0.0
C633 C 0.27243 0.17953 0.24234 0.0
C634 C 0.28335 0.19717 0.24816 0.0
C635 C 0.27607 0.2118 0.24686 0.0
C636 C 0.24679 0.19165 0.23356 0.0
C637 C 0.25413 0.17688 0.23479 0.0
C638 C 0.25009 0.22467 0.24048 0.0
C639 C 0.26973 0.29083 0.23621 0.0
C640 C 0.30926 0.27121 0.25831 0.0
C641 C 0.29657 0.34497 0.29348 0.0
C642 C 0.28002 0.37358 0.29512 0.0
C643 C 0.27243 0.35789 0.28263 0.0
C644 C 0.28066 0.34373 0.2818 0.0
C645 C 0.30445 0.3607 0.30578 0.0
C646 C 0.29626 0.37505 0.30651 0.0
C647 C 0.30364 0.32909 0.29362 0.0
H648 H 0.29734 0.19971 0.25446 0.0
H649 H 0.28462 0.22524 0.25196 0.0
H650 H 0.23256 0.18943 0.22816 0.0
H651 H 0.24544 0.16342 0.23013 0.0
H652 H 0.26011 0.35658 0.27348 0.0
H653 H 0.2744 0.33163 0.27223 0.0
H654 H 0.31665 0.36172 0.31498 0.0
H655 H 0.30233 0.38707 0.31623 0.0
Dy656 Dy 0.53196 0.50982 0.01612 0.0
Dy657 Dy 0.51684 0.54695 0.02135 0.0
C658 C 0.49107 0.50858 0.02529 0.0
O659 O 0.52838 0.51708 0.98811 0.0
O660 O 0.50684 0.53277 0.99312 0.0
O661 O 0.52902 0.48217 0.00429 0.0
O662 O 0.55226 0.49611 0.02411 0.0
O663 O 0.54229 0.55353 0.00808 0.0
O664 O 0.5565 0.53347 0.01912 0.0
O665 O 0.53145 0.54558 0.04852 0.0
O666 O 0.52792 0.51503 0.04516 0.0
O667 O 0.52224 0.57542 0.03087 0.0
O668 O 0.49593 0.56095 0.01592 0.0
C669 C 0.51559 0.52445 0.98203 0.0
O670 O 0.50167 0.50093 0.0159 0.0
O671 O 0.49559 0.52595 0.03136 0.0
C672 C 0.54001 0.46516 0.02494 0.0
C673 C 0.53547 0.43586 0.04506 0.0
C674 C 0.52842 0.45063 0.05034 0.0
C675 C 0.53063 0.46512 0.04035 0.0
C676 C 0.54694 0.45046 0.01953 0.0
C677 C 0.54468 0.43593 0.02946 0.0
C678 C 0.5431 0.48068 0.01478 0.0
C679 C 0.55717 0.54848 0.0123 0.0
C680 C 0.53169 0.53073 0.05544 0.0
C681 C 0.50824 0.59095 0.01066 0.0
C682 C 0.51077 0.61867 0.98847 0.0
C683 C 0.52453 0.6094 0.98988 0.0
C684 C 0.52322 0.59566 0.00077 0.0
C685 C 0.49439 0.59996 0.00915 0.0
C686 C 0.4956 0.61363 -0.00184 0.0
C687 C 0.50687 0.57671 0.0225 0.0
H688 H 0.52105 0.45093 0.06211 0.0
H689 H 0.52512 0.47634 0.04471 0.0
H690 H 0.55428 0.45029 0.00772 0.0
H691 H 0.55046 0.42491 0.02511 0.0
H692 H 0.53652 0.61296 0.98286 0.0
H693 H 0.53403 0.58882 0.00158 0.0
H694 H 0.48261 0.59643 0.0165 0.0
H695 H 0.48454 0.62014 -0.00282 0.0
Dy696 Dy 0.78127 0.30036 0.26686 0.0
Dy697 Dy 0.77326 0.25715 0.26908 0.0
C698 C 0.77156 0.28408 0.30238 0.0
O699 O 0.80934 0.29568 0.2693 0.0
O700 O 0.80205 0.26971 0.28244 0.0
O701 O 0.78549 0.32736 0.28079 0.0
O702 O 0.78458 0.32287 0.25156 0.0
O703 O 0.78932 0.26307 0.24609 0.0
O704 O 0.7774 0.28583 0.23858 0.0
O705 O 0.74776 0.26069 0.25392 0.0
O706 O 0.75088 0.29003 0.26609 0.0
O707 O 0.76571 0.22951 0.25598 0.0
O708 O 0.77201 0.23566 0.28534 0.0
C709 C 0.81423 0.28362 0.27833 0.0
O710 O 0.78398 0.29576 0.29574 0.0
O711 O 0.76171 0.26943 0.29212 0.0
C712 C 0.7712 0.34513 0.26419 0.0
C713 C 0.74613 0.3665 0.26267 0.0
C714 C 0.74063 0.34884 0.26687 0.0
C715 C 0.75303 0.33822 0.26751 0.0
C716 C 0.77667 0.36259 0.25971 0.0
C717 C 0.76422 0.37318 0.25888 0.0
C718 C 0.78455 0.33434 0.26579 0.0
C719 C 0.78513 0.27286 0.23405 0.0
C720 C 0.74078 0.27451 0.25735 0.0
C721 C 0.78135 0.21147 0.271 0.0
C722 C 0.80585 0.18956 0.27274 0.0
C723 C 0.80991 0.20498 0.264 0.0
C724 C 0.7978 0.21592 0.26324 0.0
C725 C 0.7772 0.19605 0.2796 0.0
C726 C 0.78935 0.18519 0.28049 0.0
C727 C 0.76895 0.2233 0.27114 0.0
H728 H 0.72674 0.34326 0.26965 0.0
H729 H 0.74852 0.32472 0.27093 0.0
H730 H 0.79063 0.36811 0.25708 0.0
H731 H 0.76889 0.38679 0.25576 0.0
H732 H 0.82257 0.20874 0.25804 0.0
H733 H 0.80136 0.22794 0.25676 0.0
H734 H 0.76462 0.19251 0.28576 0.0
H735 H 0.78576 0.17327 0.28711 0.0
Dy736 Dy 0.01963 0.53678 0.49926 0.0
Dy737 Dy 0.02907 0.51695 0.53363 0.0
C738 C 0.02923 0.49879 0.49371 0.0
O739 O 0.99357 0.52933 0.51125 0.0
O740 O -0.00034 0.50491 0.52243 0.0
O741 O 0.0047 0.53607 0.47303 0.0
O742 O 0.02493 0.56039 0.48578 0.0
O743 O 0.01792 0.53948 0.54537 0.0
O744 O 0.02511 0.55785 0.52371 0.0
O745 O 0.05526 0.53683 0.53098 0.0
O746 O 0.04926 0.53816 0.50067 0.0
O747 O 0.04112 0.51701 0.56093 0.0
O748 O 0.02611 0.49184 0.54444 0.0
C749 C 0.98803 0.51389 0.51723 0.0
O750 O 0.01769 0.5079 0.4885 0.0
O751 O 0.03863 0.50311 0.50992 0.0
C752 C 0.02545 0.55136 0.45516 0.0
C753 C 0.04797 0.55211 0.42718 0.0
C754 C 0.04891 0.54089 0.44054 0.0
C755 C 0.03769 0.54047 0.45432 0.0
C756 C 0.02447 0.5627 0.442 0.0
C757 C 0.03565 0.56303 0.42802 0.0
C758 C 0.01509 0.55167 0.47074 0.0
C759 C 0.02071 0.55545 0.54004 0.0
C760 C 0.06073 0.54126 0.51555 0.0
C761 C 0.02116 0.49591 0.57481 0.0
C762 C 0.99709 0.48822 0.6011 0.0
C763 C 0.99637 0.50203 0.59058 0.0
C764 C 0.00817 0.50572 0.57749 0.0
C765 C 0.02186 0.48193 0.58497 0.0
C766 C 0.00988 0.47809 0.59808 0.0
C767 C 0.03319 0.49993 0.56073 0.0
H768 H 0.05847 0.53258 0.44049 0.0
H769 H 0.03877 0.53178 0.46453 0.0
H770 H 0.01522 0.57133 0.44263 0.0
H771 H 0.03452 0.57167 0.41779 0.0
H772 H 0.98705 0.51041 0.59277 0.0
H773 H 0.00726 0.51641 0.56957 0.0
H774 H 0.03164 0.47404 0.5828 0.0
H775 H 0.01068 0.46729 0.60587 0.0
Dy776 Dy 0.79464 0.77287 0.2703 0.0
Dy777 Dy 0.75532 0.78468 0.2689 0.0
C778 C 0.79293 0.81198 0.26427 0.0
O779 O 0.79309 0.78607 0.29839 0.0
O780 O 0.76183 0.77917 0.29696 0.0
O781 O 0.82401 0.78031 0.27749 0.0
O782 O 0.81014 0.75346 0.26383 0.0
O783 O 0.74814 0.75473 0.26631 0.0
O784 O 0.77483 0.75007 0.27955 0.0
O785 O 0.76152 0.78269 0.23999 0.0
O786 O 0.77996 0.76336 0.24234 0.0
O787 O 0.72648 0.78049 0.25976 0.0
O788 O 0.7409 0.80375 0.27925 0.0
C789 C 0.77809 0.78413 0.3064 0.0
O790 O 0.7988 0.7982 0.258 0.0
O791 O 0.77837 0.80977 0.27287 0.0
C792 C 0.83979 0.7664 0.25656 0.0
C793 C 0.867 0.7687 0.23259 0.0
C794 C 0.85477 0.77973 0.23199 0.0
C795 C 0.84128 0.77856 0.24383 0.0
C796 C 0.85173 0.75522 0.25704 0.0
C797 C 0.86515 0.75632 0.24519 0.0
C798 C 0.82588 0.76511 0.26934 0.0
C799 C 0.75715 0.7445 0.27396 0.0
C800 C 0.76998 0.77128 0.23249 0.0
C801 C 0.7101 0.79072 0.28258 0.0
C802 C 0.68216 0.78563 0.30574 0.0
C803 C 0.69599 0.77644 0.30708 0.0
C804 C 0.70983 0.77897 0.29562 0.0
C805 C 0.69638 0.79987 0.28116 0.0
C806 C 0.68256 0.79736 0.2926 0.0
C807 C 0.72502 0.79417 0.271 0.0
H808 H 0.85584 0.78953 0.22263 0.0
H809 H 0.83211 0.78725 0.24315 0.0
H810 H 0.85069 0.74562 0.26663 0.0
H811 H 0.87401 0.74734 0.24584 0.0
H812 H 0.69604 0.76716 0.31687 0.0
H813 H 0.72037 0.77184 0.29698 0.0
H814 H 0.69647 0.80913 0.27132 0.0
H815 H 0.67236 0.80489 0.29134 0.0
Dy816 Dy 0.78723 0.28092 0.75829 0.0
Dy817 Dy 0.75521 0.28001 0.79029 0.0
C818 C 0.77879 0.31494 0.78685 0.0
O819 O 0.80211 0.2763 0.7834 0.0
O820 O 0.78169 0.27715 0.80499 0.0
O821 O 0.80931 0.30139 0.75094 0.0
O822 O 0.80296 0.27378 0.73729 0.0
O823 O 0.74759 0.25533 0.76918 0.0
O824 O 0.774 0.25222 0.75713 0.0
O825 O 0.74279 0.2871 0.76443 0.0
O826 O 0.76179 0.28334 0.74207 0.0
O827 O 0.73915 0.26159 0.80586 0.0
O828 O 0.73443 0.28796 0.80484 0.0
C829 C 0.79774 0.27579 0.80006 0.0
O830 O 0.78193 0.30214 0.77615 0.0
O831 O 0.76693 0.30981 0.79777 0.0
C832 C 0.81057 0.29669 0.71955 0.0
C833 C 0.80396 0.30218 0.68345 0.0
C834 C 0.79183 0.30511 0.6959 0.0
C835 C 0.79515 0.30244 0.71385 0.0
C836 C 0.82321 0.2946 0.7074 0.0
C837 C 0.81998 0.29747 0.68939 0.0
C838 C 0.81194 0.29054 0.73725 0.0
C839 C 0.75706 0.24575 0.76026 0.0
C840 C 0.74665 0.28671 0.74741 0.0
C841 C 0.73231 0.27615 0.83234 0.0
C842 C 0.73801 0.27382 0.86949 0.0
C843 C 0.75211 0.28382 0.86091 0.0
C844 C 0.74927 0.28496 0.84244 0.0
C845 C 0.71767 0.26773 0.84113 0.0
C846 C 0.72046 0.26669 0.85968 0.0
C847 C 0.73093 0.27339 0.81252 0.0
H848 H 0.7796 0.30915 0.69166 0.0
H849 H 0.78531 0.30419 0.72311 0.0
H850 H 0.83512 0.29008 0.71164 0.0
H851 H 0.82955 0.2953 0.67996 0.0
H852 H 0.76584 0.28932 0.86794 0.0
H853 H 0.76072 0.29149 0.83577 0.0
H854 H 0.70447 0.26094 0.83345 0.0
H855 H 0.70927 0.25914 0.86602 0.0
Dy856 Dy 0.76421 0.75599 0.7565 0.0
Dy857 Dy 0.78599 0.79653 0.77609 0.0
C858 C 0.78373 0.76341 0.79776 0.0
O859 O 0.74265 0.77091 0.76067 0.0
O860 O 0.75827 0.79003 0.78573 0.0
O861 O 0.74108 0.73282 0.75493 0.0
O862 O 0.76079 0.73321 0.7356 0.0
O863 O 0.77086 0.7998 0.75001 0.0
O864 O 0.76969 0.77237 0.73413 0.0
O865 O 0.80688 0.78656 0.76165 0.0
O866 O 0.79393 0.756 0.75819 0.0
O867 O 0.80437 0.82254 0.77519 0.0
O868 O 0.79184 0.81706 0.79963 0.0
C869 C 0.74275 0.78158 0.77574 0.0
O870 O 0.76977 0.75398 0.78602 0.0
O871 O 0.79425 0.77873 0.7947 0.0
C872 C 0.75065 0.70645 0.7476 0.0
C873 C 0.76469 0.67808 0.75722 0.0
C874 C 0.76116 0.69053 0.77074 0.0
C875 C 0.75427 0.70464 0.76598 0.0
C876 C 0.75304 0.69338 0.73405 0.0
C877 C 0.75999 0.67922 0.73882 0.0
C878 C 0.74743 0.72332 0.7427 0.0
C879 C 0.76932 0.78923 0.73452 0.0
C880 C 0.80796 0.76989 0.75771 0.0
C881 C 0.79402 0.84544 0.79099 0.0
C882 C 0.77669 0.87356 0.79252 0.0
C883 C 0.77479 0.86168 0.77631 0.0
C884 C 0.78326 0.84768 0.77558 0.0
C885 C 0.79648 0.85761 0.80703 0.0
C886 C 0.78789 0.87164 0.8078 0.0
C887 C 0.80087 0.82935 0.7909 0.0
H888 H 0.7644 0.68977 0.78502 0.0
H889 H 0.75265 0.7146 0.77673 0.0
H890 H 0.75052 0.69468 0.71981 0.0
H891 H 0.76269 0.66982 0.72815 0.0
H892 H 0.76653 0.86306 0.76423 0.0
H893 H 0.78099 0.83833 0.76309 0.0
H894 H 0.80455 0.8559 0.8191 0.0
H895 H 0.78947 0.88056 0.82048 0.0
Dy896 Dy 0.54396 0.54176 0.52919 0.0
Dy897 Dy 0.50503 0.51784 0.50727 0.0
C898 C 0.54134 0.52585 0.48806 0.0
O899 O 0.53312 0.56087 0.51366 0.0
O900 O 0.50252 0.54644 0.50952 0.0
O901 O 0.56964 0.56171 0.52964 0.0
O902 O 0.56249 0.55045 0.55407 0.0
O903 O 0.49988 0.52155 0.53631 0.0
O904 O 0.52327 0.54673 0.54713 0.0
O905 O 0.52017 0.49716 0.51293 0.0
O906 O 0.54081 0.51385 0.5368 0.0
O907 O 0.47853 0.49875 0.50558 0.0
O908 O 0.48791 0.50917 0.4815 0.0
C909 C 0.51596 0.56093 0.50933 0.0
O910 O 0.55101 0.52764 0.50393 0.0
O911 O 0.52411 0.52607 0.48703 0.0
C912 C 0.59246 0.55339 0.54757 0.0
C913 C 0.61579 0.53084 0.55043 0.0
C914 C 0.60998 0.53463 0.53334 0.0
C915 C 0.59843 0.54588 0.53189 0.0
C916 C 0.59996 0.55116 0.56479 0.0
C917 C 0.61162 0.53987 0.56622 0.0
C918 C 0.5756 0.5594 0.54591 0.0
C919 C 0.5079 0.53516 0.54897 0.0
C920 C 0.53213 0.49817 0.52717 0.0
C921 C 0.45827 0.5088 0.48659 0.0
C922 C 0.43283 0.52856 0.47979 0.0
C923 C 0.44545 0.53363 0.49554 0.0
C924 C 0.45798 0.52379 0.49896 0.0
C925 C 0.44542 0.50338 0.47097 0.0
C926 C 0.43248 0.51313 0.46769 0.0
C927 C 0.47386 0.50112 0.48898 0.0
H928 H 0.61328 0.5278 0.52105 0.0
H929 H 0.59293 0.54733 0.51841 0.0
H930 H 0.59547 0.55679 0.57702 0.0
H931 H 0.61608 0.53702 0.5795 0.0
H932 H 0.44563 0.54527 0.50523 0.0
H933 H 0.46786 0.52827 0.51105 0.0
H934 H 0.4457 0.49199 0.46117 0.0
H935 H 0.42257 0.50895 0.45562 0.0
Dy936 Dy 0.9954 0.52366 0.02571 0.0
Dy937 Dy 0.04588 0.53287 0.01979 0.0
C938 C 0.01984 0.53011 0.99013 0.0
O939 O 0.00255 0.49665 0.02103 0.0
O940 O 0.03286 0.50284 0.01294 0.0
O941 O 0.97243 0.5192 0.00497 0.0
O942 O 0.96814 0.51953 0.03348 0.0
O943 O 0.02606 0.53016 0.03942 0.0
O944 O 0.00414 0.52465 0.05552 0.0
O945 O 0.03938 0.55983 0.02665 0.0
O946 O 0.00765 0.55407 0.03008 0.0
O947 O 0.06673 0.52912 0.03913 0.0
O948 O 0.07436 0.54266 0.01585 0.0
C949 C 0.01704 0.4916 0.01538 0.0
O950 O 0.0155 0.52884 0.00643 0.0
O951 O 0.03735 0.53231 0.98997 0.0
C952 C 0.94992 0.53287 0.01552 0.0
C953 C 0.92959 0.55882 0.01607 0.0
C954 C 0.94727 0.56266 0.01063 0.0
C955 C 0.95742 0.54989 0.01058 0.0
C956 C 0.93224 0.52886 0.02069 0.0
C957 C 0.9222 0.54173 0.02108 0.0
C958 C 0.96096 0.51986 0.01698 0.0
C959 C 0.02178 0.52883 0.05572 0.0
C960 C 0.02431 0.5651 0.02997 0.0
C961 C 0.09251 0.52391 0.02654 0.0
C962 C 0.11438 0.49968 0.02111 0.0
C963 C 0.10905 0.50372 0.03832 0.0
C964 C 0.09836 0.51582 0.04104 0.0
C965 C 0.09814 0.52017 0.00937 0.0
C966 C 0.1091 0.50822 0.00671 0.0
C967 C 0.07992 0.53543 0.02961 0.0
H968 H 0.95336 0.57556 0.00647 0.0
H969 H 0.97124 0.55349 0.00702 0.0
H970 H 0.92639 0.51592 0.02491 0.0
H971 H 0.90884 0.53838 0.02578 0.0
H972 H 0.1132 0.49753 0.04972 0.0
H973 H 0.09439 0.51864 0.05445 0.0
H974 H 0.09387 0.52623 -0.00207 0.0
H975 H 0.11306 0.50529 0.99332 0.0
H976 H 0.01392 0.22309 0.98101 0.0
H977 H 0.01649 0.19498 0.99183 0.0
H978 H 0.97832 0.16431 0.94621 0.0
H979 H 0.97579 0.19239 0.93524 0.0
H980 H 0.97154 0.14986 0.97813 0.0
H981 H 0.02358 0.16887 0.94589 0.0
H982 H 0.05134 0.19012 0.93891 0.0
H983 H 0.07711 0.19319 0.99321 0.0
H984 H 0.04937 0.17214 0.00059 0.0
H985 H 0.99049 0.06421 0.98252 0.0
H986 H 0.98595 0.09233 0.97335 0.0
H987 H 0.02809 0.1229 0.01586 0.0
H988 H 0.03276 0.09487 0.02503 0.0
H989 H 0.03267 0.13762 0.98588 0.0
H990 H 0.98213 0.11951 0.01892 0.0
H991 H 0.95461 0.09932 0.02765 0.0
H992 H 0.92629 0.09553 0.97435 0.0
H993 H 0.95375 0.11554 0.96519 0.0
C994 C 0.0059 0.21039 0.97335 0.0
C995 C 0.99462 0.21014 0.95721 0.0
C996 C 0.00748 0.19426 0.97951 0.0
C997 C 0.99775 0.17736 0.9698 0.0
C998 C 0.98601 0.17707 0.95401 0.0
C999 C 0.98458 0.19321 0.94772 0.0
C1000 C 0.0002 0.16006 0.9758 0.0
C1001 C 0.98488 0.1471 0.97957 0.0
C1002 C 0.01764 0.15649 0.97826 0.0
C1003 C 0.03433 0.16909 0.97384 0.0
C1004 C 0.03511 0.1742 0.95638 0.0
C1005 C 0.05085 0.18618 0.95235 0.0
C1006 C 0.06596 0.19304 0.96562 0.0
C1007 C 0.06538 0.18789 0.98295 0.0
C1008 C 0.04966 0.17593 0.98706 0.0
C1009 C -0.00124 0.07689 0.99001 0.0
C1010 C 0.01198 0.07711 0.00461 0.0
C1011 C 0.99608 0.09306 0.98477 0.0
C1012 C 0.00655 0.10995 0.99394 0.0
C1013 C 0.01979 0.11017 0.00849 0.0
C1014 C 0.02239 0.09403 0.0138 0.0
C1015 C 0.00399 0.12733 0.9882 0.0
C1016 C 0.0193 0.14032 0.98445 0.0
C1017 C 0.98657 0.13101 0.98598 0.0
C1018 C 0.97007 0.11886 0.99131 0.0
C1019 C 0.9701 0.11424 0.009 0.0
C1020 C 0.95451 0.10286 0.01404 0.0
C1021 C 0.93875 0.09612 0.00154 0.0
C1022 C 0.93853 0.10075 0.98399 0.0
C1023 C 0.9541 0.11212 0.97887 0.0
H1024 H 0.92673 0.08736 0.0055 0.0
H1025 H 0.07814 0.20232 0.96247 0.0
H1026 H 0.12223 0.78988 0.11494 0.0
H1027 H 0.14868 0.78635 0.13441 0.0
H1028 H 0.13354 0.81658 0.18004 0.0
H1029 H 0.10696 0.81977 0.16092 0.0
H1030 H 0.17902 0.81867 0.16386 0.0
H1031 H 0.12396 0.78984 0.19749 0.0
H1032 H 0.09275 0.76939 0.19364 0.0
H1033 H 0.11055 0.72977 0.15981 0.0
H1034 H 0.14178 0.75017 0.16328 0.0
H1035 H 0.20769 0.78899 0.25586 0.0
H1036 H 0.18421 0.79243 0.23294 0.0
H1037 H 0.21847 0.78519 0.19105 0.0
H1038 H 0.24218 0.78215 0.21385 0.0
H1039 H 0.16405 0.77082 0.20328 0.0
H1040 H 0.21218 0.80942 0.15838 0.0
H1041 H 0.24419 0.82789 0.16115 0.0
H1042 H 0.24141 0.84732 0.21688 0.0
H1043 H 0.20939 0.82904 0.21439 0.0
C1044 C 0.12472 0.79602 0.12905 0.0
C1045 C 0.11245 0.80507 0.13639 0.0
C1046 C 0.13982 0.79397 0.14015 0.0
C1047 C 0.14302 0.80113 0.1587 0.0
C1048 C 0.13127 0.81086 0.1658 0.0
C1049 C 0.11609 0.81268 0.15484 0.0
C1050 C 0.15772 0.79746 0.17109 0.0
C1051 C 0.17581 0.80814 0.17238 0.0
C1052 C 0.15361 0.78381 0.18227 0.0
C1053 C 0.13506 0.77149 0.18056 0.0
C1054 C 0.12115 0.77679 0.1892 0.0
C1055 C 0.10348 0.76523 0.18707 0.0
C1056 C 0.09966 0.7483 0.17647 0.0
C1057 C 0.11352 0.74289 0.16799 0.0
C1058 C 0.13118 0.75445 0.17001 0.0
C1059 C 0.21029 0.78812 0.24179 0.0
C1060 C 0.22699 0.78541 0.23684 0.0
C1061 C 0.19676 0.79002 0.22865 0.0
C1062 C 0.19958 0.78931 0.21023 0.0
C1063 C 0.21603 0.78614 0.20517 0.0
C1064 C 0.2296 0.78432 0.2183 0.0
C1065 C 0.18546 0.79228 0.19646 0.0
C1066 C 0.1674 0.78139 0.19481 0.0
C1067 C 0.18971 0.80577 0.18497 0.0
C1068 C 0.20845 0.81781 0.18621 0.0
C1069 C 0.21835 0.8178 0.17115 0.0
C1070 C 0.23651 0.82817 0.1727 0.0
C1071 C 0.24484 0.83872 0.1892 0.0
C1072 C 0.23496 0.8391 0.20412 0.0
C1073 C 0.21682 0.82874 0.20265 0.0
H1074 H 0.25895 0.84658 0.19047 0.0
H1075 H 0.08598 0.73936 0.17484 0.0
H1076 H 0.5332 0.83906 0.4437 0.0
H1077 H 0.53472 0.8691 0.45898 0.0
H1078 H 0.48857 0.84685 0.48663 0.0
H1079 H 0.48709 0.81639 0.47131 0.0
H1080 H 0.48458 0.87657 0.47007 0.0
H1081 H 0.5301 0.86324 0.51048 0.0
H1082 H 0.55764 0.8533 0.51935 0.0
H1083 H 0.59074 0.89592 0.49532 0.0
H1084 H 0.56333 0.90594 0.48602 0.0
H1085 H 0.49212 0.96478 0.51708 0.0
H1086 H 0.48955 0.93254 0.50963 0.0
H1087 H 0.54099 0.94483 0.48722 0.0
H1088 H 0.54399 0.97694 0.49525 0.0
H1089 H 0.54071 0.91861 0.50465 0.0
H1090 H 0.49587 0.92961 0.4607 0.0
H1091 H 0.46881 0.93969 0.45035 0.0
H1092 H 0.43515 0.90182 0.47919 0.0
H1093 H 0.46208 0.89167 0.48989 0.0
C1094 C 0.52355 0.84044 0.4533 0.0
C1095 C 0.51008 0.82523 0.45633 0.0
C1096 C 0.52446 0.8577 0.46207 0.0
C1097 C 0.51182 0.86037 0.47407 0.0
C1098 C 0.49853 0.84518 0.47748 0.0
C1099 C 0.49779 0.82774 0.46885 0.0
C1100 C 0.5121 0.87916 0.48208 0.0
C1101 C 0.49673 0.88566 0.47797 0.0
C1102 C 0.5281 0.89128 0.49194 0.0
C1103 C 0.54461 0.88524 0.49741 0.0
C1104 C 0.54321 0.87039 0.50693 0.0
C1105 C 0.55881 0.86476 0.51206 0.0
C1106 C 0.57592 0.87395 0.50787 0.0
C1107 C 0.57747 0.8888 0.49854 0.0
C1108 C 0.56191 0.89447 0.49335 0.0
C1109 C 0.50288 0.96065 0.51053 0.0
C1110 C 0.51822 0.97363 0.50672 0.0
C1111 C 0.50135 0.94211 0.50617 0.0
C1112 C 0.51491 0.936 0.49752 0.0
C1113 C 0.53028 0.94898 0.49386 0.0
C1114 C 0.53195 0.96747 0.49844 0.0
C1115 C 0.51331 0.91623 0.49231 0.0
C1116 C 0.52846 0.90952 0.49692 0.0
C1117 C 0.49719 0.90398 0.48269 0.0
C1118 C 0.48102 0.91005 0.47627 0.0
C1119 C 0.48272 0.92353 0.46494 0.0
C1120 C 0.46741 0.92924 0.45899 0.0
C1121 C 0.45028 0.92144 0.46416 0.0
C1122 C 0.44843 0.90788 0.47523 0.0
C1123 C 0.46371 0.90214 0.48124 0.0
H1124 H 0.43844 0.92588 0.45954 0.0
H1125 H 0.58798 0.86958 0.51187 0.0
H1126 H 0.52012 0.28651 0.67526 0.0
H1127 H 0.49125 0.28355 0.68789 0.0
H1128 H 0.46342 0.28217 0.63455 0.0
H1129 H 0.49283 0.28596 0.62184 0.0
H1130 H 0.4489 0.30013 0.65897 0.0
H1131 H 0.46104 0.24286 0.65387 0.0
H1132 H 0.47909 0.22067 0.65683 0.0
H1133 H 0.4853 0.23361 0.71499 0.0
H1134 H 0.46752 0.25608 0.71237 0.0
H1135 H 0.36423 0.26685 0.69724 0.0
H1136 H 0.38917 0.26967 0.67811 0.0
H1137 H 0.42833 0.27838 0.72592 0.0
H1138 H 0.40364 0.27587 0.74509 0.0
H1139 H 0.43385 0.25349 0.69961 0.0
H1140 H 0.4227 0.3131 0.70269 0.0
H1141 H 0.4032 0.33376 0.69799 0.0
H1142 H 0.39274 0.31352 0.64092 0.0
H1143 H 0.412 0.29258 0.64534 0.0
C1144 C 0.5079 0.28568 0.66617 0.0
C1145 C 0.50875 0.28625 0.64749 0.0
C1146 C 0.49132 0.28387 0.67341 0.0
C1147 C 0.47495 0.28205 0.66214 0.0
C1148 C 0.4758 0.28336 0.64354 0.0
C1149 C 0.4926 0.28553 0.63627 0.0
C1150 C 0.45716 0.27846 0.67002 0.0
C1151 C 0.44546 0.28972 0.66759 0.0
C1152 C 0.45246 0.26482 0.68124 0.0
C1153 C 0.46304 0.25122 0.68291 0.0
C1154 C 0.46635 0.24105 0.66729 0.0
C1155 C 0.47652 0.22842 0.6689 0.0
C1156 C 0.48335 0.22575 0.68609 0.0
C1157 C 0.48 0.23569 0.70169 0.0
C1158 C 0.46985 0.24836 0.70015 0.0
C1159 C 0.37817 0.26958 0.70371 0.0
C1160 C 0.38185 0.27105 0.72277 0.0
C1161 C 0.39242 0.27115 0.69273 0.0
C1162 C 0.41068 0.2743 0.70055 0.0
C1163 C 0.41437 0.27585 0.71953 0.0
C1164 C 0.40018 0.27432 0.73049 0.0
C1165 C 0.42605 0.27563 0.68917 0.0
C1166 C 0.43722 0.2638 0.69085 0.0
C1167 C 0.42998 0.28846 0.67701 0.0
C1168 C 0.41862 0.30118 0.67437 0.0
C1169 C 0.41614 0.31299 0.68917 0.0
C1170 C 0.40515 0.32475 0.68655 0.0
C1171 C 0.3967 0.32492 0.66918 0.0
C1172 C 0.39927 0.31336 0.65437 0.0
C1173 C 0.41023 0.30155 0.65692 0.0
H1174 H 0.38819 0.33403 0.66718 0.0
H1175 H 0.49123 0.21597 0.68731 0.0
H1176 H 0.0439 0.819 0.65527 0.0
H1177 H 0.04697 0.84398 0.63756 0.0
H1178 H 0.99722 0.81502 0.60298 0.0
H1179 H 0.99499 0.78944 0.6199 0.0
H1180 H 0.01854 0.83011 0.58277 0.0
H1181 H 0.00169 0.85326 0.63956 0.0
H1182 H 0.00423 0.86104 0.67287 0.0
H1183 H 0.05789 0.89621 0.67317 0.0
H1184 H 0.05576 0.88848 0.63988 0.0
H1185 H 0.00413 0.90676 0.54492 0.0
H1186 H 0.00118 0.88182 0.56286 0.0
H1187 H 0.05658 0.90481 0.58863 0.0
H1188 H 0.05956 0.92988 0.5709 0.0
H1189 H 0.03225 0.8933 0.61317 0.0
H1190 H 0.04788 0.86977 0.55566 0.0
H1191 H 0.04395 0.86236 0.52225 0.0
H1192 H 0.99013 0.82817 0.52356 0.0
H1193 H 0.99365 0.83556 0.55698 0.0
C1194 C 0.03363 0.818 0.64388 0.0
C1195 C 0.01915 0.80232 0.63901 0.0
C1196 C 0.03528 0.83238 0.63383 0.0
C1197 C 0.02206 0.83175 0.61913 0.0
C1198 C 0.00762 0.81599 0.61424 0.0
C1199 C 0.00629 0.80136 0.62395 0.0
C1200 C 0.02345 0.84729 0.60863 0.0
C1201 C 0.02122 0.84386 0.58951 0.0
C1202 C 0.02736 0.86543 0.61723 0.0
C1203 C 0.02862 0.87017 0.63725 0.0
C1204 C 0.01407 0.86258 0.64675 0.0
C1205 C 0.01544 0.86699 0.66562 0.0
C1206 C 0.03123 0.87908 0.67514 0.0
C1207 C 0.04568 0.88683 0.66579 0.0
C1208 C 0.04439 0.88246 0.64691 0.0
C1209 C 0.01564 0.90658 0.5545 0.0
C1210 C 0.03211 0.92028 0.55642 0.0
C1211 C 0.01398 0.89225 0.56466 0.0
C1212 C 0.02872 0.89136 0.57698 0.0
C1213 C 0.04505 0.90519 0.57917 0.0
C1214 C 0.04677 0.91943 0.56893 0.0
C1215 C 0.02717 0.87597 0.58751 0.0
C1216 C 0.02944 0.87948 0.60657 0.0
C1217 C 0.02302 0.85791 0.57888 0.0
C1218 C 0.02096 0.85335 0.5588 0.0
C1219 C 0.03515 0.86077 0.54881 0.0
C1220 C 0.03301 0.85656 0.52987 0.0
C1221 C 0.01679 0.84484 0.52078 0.0
C1222 C 0.00269 0.83726 0.53061 0.0
C1223 C 0.00475 0.84144 0.54955 0.0
H1224 H 0.01515 0.84159 0.50612 0.0
H1225 H 0.03226 0.88247 0.68975 0.0
H1226 H 0.48845 0.80871 0.80076 0.0
H1227 H 0.45587 0.8048 0.79177 0.0
H1228 H 0.44328 0.783 0.84115 0.0
H1229 H 0.47601 0.78651 0.85011 0.0
H1230 H 0.4188 0.76448 0.81291 0.0
H1231 H 0.44417 0.82746 0.83625 0.0
H1232 H 0.4659 0.85738 0.83803 0.0
H1233 H 0.44858 0.85923 0.78207 0.0
H1234 H 0.42691 0.82922 0.7799 0.0
H1235 H 0.3275 0.77212 0.80766 0.0
H1236 H 0.35976 0.7745 0.81676 0.0
H1237 H 0.37439 0.8019 0.7709 0.0
H1238 H 0.34209 0.8003 0.76222 0.0
H1239 H 0.39797 0.81757 0.79792 0.0
H1240 H 0.37744 0.75407 0.77239 0.0
H1241 H 0.35732 0.72311 0.76829 0.0
H1242 H 0.36532 0.72222 0.82586 0.0
H1243 H 0.38605 0.75295 0.83017 0.0
C1244 C 0.47879 0.80297 0.80971 0.0
C1245 C 0.48494 0.79804 0.82626 0.0
C1246 C 0.46011 0.80084 0.80457 0.0
C1247 C 0.44705 0.79397 0.81594 0.0
C1248 C 0.45306 0.78844 0.83218 0.0
C1249 C 0.4718 0.79045 0.83729 0.0
C1250 C 0.42724 0.79284 0.81096 0.0
C1251 C 0.41425 0.77617 0.80989 0.0
C1252 C 0.42119 0.80791 0.8065 0.0
C1253 C 0.43402 0.82605 0.80789 0.0
C1254 C 0.44507 0.83422 0.82431 0.0
C1255 C 0.45737 0.85119 0.82538 0.0
C1256 C 0.45864 0.86019 0.81016 0.0
C1257 C 0.44758 0.85225 0.79385 0.0
C1258 C 0.43528 0.83527 0.79269 0.0
C1259 C 0.33757 0.77868 0.79949 0.0
C1260 C 0.33215 0.78601 0.78418 0.0
C1261 C 0.35608 0.77986 0.80462 0.0
C1262 C 0.36967 0.78799 0.79431 0.0
C1263 C 0.36428 0.79549 0.7791 0.0
C1264 C 0.34576 0.79459 0.77414 0.0
C1265 C 0.38948 0.78916 0.7997 0.0
C1266 C 0.40249 0.80587 0.80093 0.0
C1267 C 0.3956 0.7741 0.80408 0.0
C1268 C 0.3831 0.75578 0.8016 0.0
C1269 C 0.37484 0.74725 0.78416 0.0
C1270 C 0.36341 0.72973 0.7818 0.0
C1271 C 0.3599 0.72076 0.79684 0.0
C1272 C 0.368 0.72921 0.81424 0.0
C1273 C 0.37974 0.74659 0.81663 0.0
H1274 H 0.35102 0.70721 0.79501 0.0
H1275 H 0.46818 0.87332 0.81102 0.0
H1276 H 0.51758 0.18186 0.17019 0.0
H1277 H 0.518 0.15451 0.1506 0.0
H1278 H 0.49998 0.17616 0.10372 0.0
H1279 H 0.49958 0.20384 0.12331 0.0
H1280 H 0.48222 0.13907 0.1036 0.0
H1281 H 0.54347 0.17786 0.11126 0.0
H1282 H 0.57162 0.1976 0.12917 0.0
H1283 H 0.57922 0.15359 0.15638 0.0
H1284 H 0.55094 0.13363 0.1388 0.0
H1285 H 0.5052 0.07878 0.03625 0.0
H1286 H 0.50198 0.10502 0.05578 0.0
H1287 H 0.52846 0.08838 0.10184 0.0
H1288 H 0.5322 0.06218 0.08215 0.0
H1289 H 0.54156 0.12309 0.10251 0.0
H1290 H 0.48095 0.08408 0.09535 0.0
H1291 H 0.45221 0.06411 0.07875 0.0
H1292 H 0.44272 0.10773 0.05193 0.0
H1293 H 0.47156 0.12791 0.06819 0.0
C1294 C 0.51352 0.18084 0.15574 0.0
C1295 C 0.50861 0.19519 0.14837 0.0
C1296 C 0.51384 0.16515 0.14453 0.0
C1297 C 0.50922 0.16333 0.12565 0.0
C1298 C 0.50363 0.17728 0.11825 0.0
C1299 C 0.50344 0.19311 0.12948 0.0
C1300 C 0.51092 0.14711 0.11371 0.0
C1301 C 0.49523 0.13569 0.10314 0.0
C1302 C 0.5278 0.14242 0.11349 0.0
C1303 C 0.54499 0.15429 0.12383 0.0
C1304 C 0.55108 0.17242 0.12115 0.0
C1305 C 0.56707 0.18364 0.13122 0.0
C1306 C 0.57718 0.17687 0.14394 0.0
C1307 C 0.57136 0.15882 0.14654 0.0
C1308 C 0.55536 0.14754 0.13651 0.0
C1309 C 0.51027 0.08057 0.05055 0.0
C1310 C 0.51892 0.06825 0.05759 0.0
C1311 C 0.50833 0.09561 0.06177 0.0
C1312 C 0.51472 0.09865 0.08042 0.0
C1313 C 0.52337 0.08637 0.08752 0.0
C1314 C 0.52544 0.07134 0.07625 0.0
C1315 C 0.51281 0.11488 0.09232 0.0
C1316 C 0.5285 0.12638 0.10291 0.0
C1317 C 0.49589 0.11954 0.09265 0.0
C1318 C 0.47852 0.10746 0.08286 0.0
C1319 C 0.47281 0.08938 0.08581 0.0
C1320 C 0.45649 0.07803 0.07648 0.0
C1321 C 0.44567 0.08464 0.06426 0.0
C1322 C 0.45113 0.10262 0.06138 0.0
C1323 C 0.46746 0.11403 0.07066 0.0
H1324 H 0.43303 0.07583 0.05705 0.0
H1325 H 0.58954 0.18559 0.15176 0.0
H1326 H 0.08166 0.2826 0.31725 0.0
H1327 H 0.11028 0.28092 0.30511 0.0
H1328 H 0.14136 0.31681 0.35207 0.0
H1329 H 0.11275 0.31814 0.3646 0.0
H1330 H 0.15194 0.32417 0.314 0.0
H1331 H 0.14209 0.27865 0.35416 0.0
H1332 H 0.12352 0.25225 0.36566 0.0
H1333 H 0.11668 0.22089 0.31289 0.0
H1334 H 0.13497 0.24722 0.301 0.0
H1335 H 0.24012 0.31264 0.29898 0.0
H1336 H 0.21246 0.31681 0.31136 0.0
H1337 H 0.18133 0.26578 0.28097 0.0
H1338 H 0.20919 0.26112 0.26946 0.0
H1339 H 0.17059 0.26696 0.31147 0.0
H1340 H 0.17927 0.31034 0.27029 0.0
H1341 H 0.19582 0.33611 0.25643 0.0
H1342 H 0.20271 0.37079 0.30728 0.0
H1343 H 0.1864 0.34516 0.32151 0.0
C1344 C 0.09458 0.29019 0.32499 0.0
C1345 C 0.0949 0.30048 0.34193 0.0
C1346 C 0.11093 0.28921 0.31802 0.0
C1347 C 0.12797 0.29878 0.32765 0.0
C1348 C 0.12837 0.30938 0.34437 0.0
C1349 C 0.11201 0.31006 0.35155 0.0
C1350 C 0.14532 0.29713 0.3205 0.0
C1351 C 0.15621 0.31177 0.31365 0.0
C1352 C 0.15058 0.28079 0.3195 0.0
C1353 C 0.13973 0.26494 0.32666 0.0
C1354 C 0.13648 0.26617 0.34497 0.0
C1355 C 0.12603 0.25121 0.35157 0.0
C1356 C 0.11888 0.23492 0.34 0.0
C1357 C 0.1222 0.23353 0.32182 0.0
C1358 C 0.13261 0.24846 0.31516 0.0
C1359 C 0.22735 0.30237 0.29483 0.0
C1360 C 0.22691 0.28655 0.2832 0.0
C1361 C 0.21143 0.30481 0.30186 0.0
C1362 C 0.19452 0.29176 0.29699 0.0
C1363 C 0.19408 0.27609 0.2851 0.0
C1364 C 0.21006 0.27345 0.27842 0.0
C1365 C 0.17744 0.29402 0.30471 0.0
C1366 C 0.1665 0.27945 0.31173 0.0
C1367 C 0.17198 0.31035 0.30549 0.0
C1368 C 0.18177 0.3258 0.297 0.0
C1369 C 0.18443 0.32344 0.27855 0.0
C1370 C 0.19375 0.33801 0.27062 0.0
C1371 C 0.20034 0.35506 0.28098 0.0
C1372 C 0.19761 0.35757 0.29928 0.0
C1373 C 0.18831 0.34303 0.30728 0.0
H1374 H 0.20751 0.36631 0.27478 0.0
H1375 H 0.1108 0.22335 0.34513 0.0
H1376 H 0.92325 0.04215 0.19381 0.0
H1377 H 0.93345 0.04389 0.16372 0.0
H1378 H 0.98211 0.02854 0.18234 0.0
H1379 H 0.97241 0.02783 0.21271 0.0
H1380 H 0.99125 0.05294 0.1624 0.0
H1381 H 0.94168 -0.00158 0.15477 0.0
H1382 H 0.91003 0.98074 0.15608 0.0
H1383 H 0.88944 0.01255 0.12005 0.0
H1384 H 0.92097 0.03055 0.1187 0.0
H1385 H 0.01971 0.02296 0.08077 0.0
H1386 H 0.00704 0.02456 0.10953 0.0
H1387 H 0.96277 0.04293 0.08478 0.0
H1388 H 0.9751 0.04058 0.05544 0.0
H1389 H 0.95031 0.01978 0.10701 0.0
H1390 H 0.00091 0.07253 0.11286 0.0
H1391 H 0.03288 0.08917 0.11133 0.0
H1392 H 0.05191 0.05968 0.15083 0.0
H1393 H 0.02008 0.04269 0.15243 0.0
C1394 C 0.93615 0.03922 0.19146 0.0
C1395 C 0.94701 0.0348 0.20556 0.0
C1396 C 0.94192 0.04008 0.17421 0.0
C1397 C 0.95838 0.03595 0.17054 0.0
C1398 C 0.96934 0.03176 0.18475 0.0
C1399 C 0.96379 0.03133 0.20211 0.0
C1400 C 0.96433 0.03603 0.15201 0.0
C1401 C 0.98232 0.04551 0.15034 0.0
C1402 C 0.95257 0.02685 0.13609 0.0
C1403 C 0.93365 0.01593 0.13678 0.0
C1404 C 0.93039 0.0017 0.14721 0.0
C1405 C 0.91247 0.99162 0.14796 0.0
C1406 C 0.89773 0.99556 0.1382 0.0
C1407 C 0.90087 0.00954 0.12763 0.0
C1408 C 0.91876 0.01967 0.12685 0.0
C1409 C 0.00727 0.02737 0.08139 0.0
C1410 C -0.00147 0.0319 0.06588 0.0
C1411 C 9e-05 0.02837 0.09792 0.0
C1412 C 0.98425 0.0344 0.09952 0.0
C1413 C 0.97513 0.03843 0.08393 0.0
C1414 C 0.98217 0.03711 0.06719 0.0
C1415 C 0.97733 0.03632 0.11753 0.0
C1416 C 0.95917 0.0273 0.11908 0.0
C1417 C 0.98897 0.04582 0.13338 0.0
C1418 C 0.00811 0.05627 0.13268 0.0
C1419 C 0.01192 0.06954 0.12116 0.0
C1420 C 0.03002 0.07903 0.12029 0.0
C1421 C 0.04442 0.07547 0.13096 0.0
C1422 C 0.04075 0.06243 0.14257 0.0
C1423 C 0.02268 0.05289 0.14349 0.0
H1424 H 0.05842 0.08282 0.13024 0.0
H1425 H 0.88387 0.98774 0.1388 0.0
H1426 H 0.30577 0.7123 0.5121 0.0
H1427 H 0.30514 0.73412 0.49116 0.0
H1428 H 0.30918 0.69507 0.44661 0.0
H1429 H 0.30946 0.67287 0.46741 0.0
H1430 H 0.32673 0.74357 0.45282 0.0
H1431 H 0.27247 0.68684 0.43785 0.0
H1432 H 0.25127 0.66273 0.45032 0.0
H1433 H 0.23881 0.70239 0.48887 0.0
H1434 H 0.26012 0.72667 0.4767 0.0
H1435 H 0.28243 0.76311 0.37325 0.0
H1436 H 0.29739 0.75166 0.39772 0.0
H1437 H 0.25703 0.76145 0.43224 0.0
H1438 H 0.24133 0.77194 0.40715 0.0
H1439 H 0.2598 0.72992 0.43352 0.0
H1440 H 0.30471 0.78645 0.43844 0.0
H1441 H 0.32646 0.811 0.42726 0.0
H1442 H 0.35827 0.7746 0.4104 0.0
H1443 H 0.33659 0.74978 0.42138 0.0
C1444 C 0.3072 0.70851 0.49797 0.0
C1445 C 0.30719 0.69075 0.49127 0.0
C1446 C 0.30701 0.72107 0.48608 0.0
C1447 C 0.30703 0.71606 0.46746 0.0
C1448 C 0.30927 0.69908 0.46104 0.0
C1449 C 0.30931 0.68642 0.47291 0.0
C1450 C 0.30007 0.72653 0.45469 0.0
C1451 C 0.31216 0.74063 0.44836 0.0
C1452 C 0.28105 0.72292 0.44956 0.0
C1453 C 0.26785 0.70846 0.45645 0.0
C1454 C 0.26518 0.69036 0.44898 0.0
C1455 C 0.25319 0.67669 0.45601 0.0
C1456 C 0.24372 0.68102 0.4704 0.0
C1457 C 0.24617 0.69905 0.47774 0.0
C1458 C 0.25819 0.71276 0.47079 0.0
C1459 C 0.277 0.76317 0.38621 0.0
C1460 C 0.26085 0.76848 0.38848 0.0
C1461 C 0.28563 0.75674 0.40024 0.0
C1462 C 0.27856 0.756 0.41697 0.0
C1463 C 0.26276 0.76197 0.41946 0.0
C1464 C 0.25384 0.76799 0.40522 0.0
C1465 C 0.28643 0.74715 0.43104 0.0
C1466 C 0.27442 0.73321 0.43783 0.0
C1467 C 0.30557 0.75113 0.4366 0.0
C1468 C 0.3189 0.76619 0.43052 0.0
C1469 C 0.31628 0.78365 0.43226 0.0
C1470 C 0.32861 0.79762 0.42599 0.0
C1471 C 0.34369 0.79434 0.41806 0.0
C1472 C 0.34655 0.77711 0.41651 0.0
C1473 C 0.33427 0.7631 0.42278 0.0
H1474 H 0.35319 0.80517 0.41316 0.0
H1475 H 0.23447 0.67042 0.47585 0.0
H1476 H 0.65246 0.02964 0.67991 0.0
H1477 H 0.6365 0.03435 0.65166 0.0
H1478 H 0.5883 0.99409 0.65972 0.0
H1479 H 0.60397 0.98966 0.68831 0.0
H1480 H 0.59978 0.99416 0.62155 0.0
H1481 H 0.58771 0.03207 0.67403 0.0
H1482 H 0.59804 0.05498 0.70129 0.0
H1483 H 0.62586 0.09309 0.66891 0.0
H1484 H 0.61602 0.07023 0.6415 0.0
H1485 H 0.52006 0.00727 0.57789 0.0
H1486 H 0.54333 0.00547 0.60209 0.0
H1487 H 0.58155 0.05084 0.58628 0.0
H1488 H 0.55827 0.05255 0.56192 0.0
H1489 H 0.57994 0.05088 0.62576 0.0
H1490 H 0.5902 0.01603 0.5731 0.0
H1491 H 0.58192 0.99395 0.54512 0.0
H1492 H 0.56048 0.95177 0.57609 0.0
H1493 H 0.56834 0.97364 0.60428 0.0
C1494 C 0.6386 0.02149 0.67545 0.0
C1495 C 0.62938 0.00929 0.68626 0.0
C1496 C 0.62953 0.02425 0.65938 0.0
C1497 C 0.61129 0.01458 0.65377 0.0
C1498 C 0.60243 0.00159 0.66391 0.0
C1499 C 0.61135 -0.0009 0.68019 0.0
C1500 C 0.60081 0.0191 0.63827 0.0
C1501 C 0.59539 0.00651 0.62243 0.0
C1502 C 0.59574 0.03555 0.63933 0.0
C1503 C 0.60135 0.04937 0.65576 0.0
C1504 C 0.59619 0.04527 0.67275 0.0
C1505 C 0.60194 0.05825 0.68823 0.0
C1506 C 0.61266 0.07546 0.68685 0.0
C1507 C 0.6176 0.07973 0.66997 0.0
C1508 C 0.61195 0.06677 0.65446 0.0
C1509 C 0.53336 0.01696 0.57977 0.0
C1510 C 0.53764 0.02983 0.56802 0.0
C1511 C 0.54661 0.01589 0.59347 0.0
C1512 C 0.56414 0.0279 0.59573 0.0
C1513 C 0.5681 0.04143 0.58462 0.0
C1514 C 0.55491 0.04232 0.57073 0.0
C1515 C 0.57841 0.02565 0.60926 0.0
C1516 C 0.58458 0.03867 0.62472 0.0
C1517 C 0.58448 0.00976 0.60772 0.0
C1518 C 0.57971 0.99651 0.59081 0.0
C1519 C 0.58356 0.00208 0.57395 0.0
C1520 C 0.57898 0.98961 0.55804 0.0
C1521 C 0.57065 0.9715 0.55881 0.0
C1522 C 0.56692 0.96581 0.57551 0.0
C1523 C 0.57144 0.97824 0.59147 0.0
H1524 H 0.56712 0.96186 0.54648 0.0
H1525 H 0.6171 0.08549 0.69884 0.0
H1526 H 0.28242 0.33073 0.98136 0.0
H1527 H 0.285 0.31228 0.95305 0.0
H1528 H 0.24521 0.33345 0.92412 0.0
H1529 H 0.24273 0.35193 0.95211 0.0
H1530 H 0.24051 0.29662 0.91338 0.0
H1531 H 0.28925 0.35271 0.9245 0.0
H1532 H 0.31627 0.37428 0.94251 0.0
H1533 H 0.34544 0.33327 0.94073 0.0
H1534 H 0.31846 0.31138 0.9229 0.0
H1535 H 0.25069 0.29753 0.82235 0.0
H1536 H 0.24933 0.3041 0.85471 0.0
H1537 H 0.29789 0.28585 0.86623 0.0
H1538 H 0.29984 0.28003 0.83339 0.0
H1539 H 0.29996 0.31446 0.88863 0.0
H1540 H 0.25268 0.26013 0.8713 0.0
H1541 H 0.22546 0.2391 0.85307 0.0
H1542 H 0.1931 0.27594 0.8666 0.0
H1543 H 0.22018 0.29738 0.88459 0.0
C1544 C 0.27395 0.33112 0.96902 0.0
C1545 C 0.26246 0.34284 0.9689 0.0
C1546 C 0.2755 0.32066 0.95287 0.0
C1547 C 0.26541 0.32164 0.93647 0.0
C1548 C 0.25312 0.3325 0.93661 0.0
C1549 C 0.25177 0.3431 0.95261 0.0
C1550 C 0.26847 0.31262 0.9188 0.0
C1551 C 0.2535 0.30042 0.90793 0.0
C1552 C 0.28557 0.31721 0.91196 0.0
C1553 C 0.30178 0.33037 0.9226 0.0
C1554 C 0.30137 0.34826 0.92809 0.0
C1555 C 0.31668 0.36055 0.93824 0.0
C1556 C 0.33254 0.35513 0.94282 0.0
C1557 C 0.33313 0.33743 0.93721 0.0
C1558 C 0.31784 0.32508 0.92709 0.0
C1559 C 0.26108 0.29482 0.83173 0.0
C1560 C 0.27529 0.28809 0.82533 0.0
C1561 C 0.26018 0.29844 0.8503 0.0
C1562 C 0.27312 0.29491 0.86301 0.0
C1563 C 0.28759 0.28848 0.85669 0.0
C1564 C 0.28873 0.28518 0.83797 0.0
C1565 C 0.27178 0.29882 0.8828 0.0
C1566 C 0.28707 0.31011 0.89412 0.0
C1567 C 0.25492 0.29333 0.89007 0.0
C1568 C 0.23852 0.2804 0.8793 0.0
C1569 C 0.23979 0.26381 0.87031 0.0
C1570 C 0.22438 0.25181 0.86 0.0
C1571 C 0.20757 0.25619 0.85867 0.0
C1572 C 0.20613 0.27257 0.86765 0.0
C1573 C 0.2215 0.28464 0.87792 0.0
H1574 H 0.19566 0.24687 0.8507 0.0
H1575 H 0.34439 0.36467 0.95067 0.0
H1576 H 0.98737 0.00793 0.30524 0.0
H1577 H 0.99831 0.00884 0.3372 0.0
H1578 H 0.96143 0.04057 0.3531 0.0
H1579 H 0.95051 0.03991 0.32112 0.0
H1580 H 0.99496 0.0531 0.37309 0.0
H1581 H 0.95074 0.99564 0.3551 0.0
H1582 H 0.93742 0.96617 0.33608 0.0
H1583 H 0.98683 0.95033 0.34916 0.0
H1584 H 0.00053 0.97982 0.36807 0.0
H1585 H 0.99074 0.04004 0.4646 0.0
H1586 H 0.98382 0.04025 0.43216 0.0
H1587 H 0.02101 0.00749 0.42076 0.0
H1588 H 0.02792 0.00701 0.4534 0.0
H1589 H 0.9894 0.99556 0.39812 0.0
H1590 H 0.03314 0.05207 0.41746 0.0
H1591 H 0.04708 0.08172 0.43594 0.0
H1592 H -0.00052 0.09951 0.42024 0.0
H1593 H 0.98511 0.06986 0.40186 0.0
C1594 C 0.98164 0.01522 0.3155 0.0
C1595 C 0.96796 0.02376 0.31057 0.0
C1596 C 0.98787 0.01565 0.33379 0.0
C1597 C 0.98051 0.02456 0.34757 0.0
C1598 C 0.96727 0.03357 0.3427 0.0
C1599 C 0.96102 0.03315 0.3244 0.0
C1600 C 0.98631 0.02415 0.36704 0.0
C1601 C 0.99356 0.04053 0.37862 0.0
C1602 C 0.98498 0.00774 0.37415 0.0
C1603 C 0.97672 0.98999 0.36285 0.0
C1604 C 0.95881 0.98592 0.3538 0.0
C1605 C 0.95118 0.96921 0.34306 0.0
C1606 C 0.96129 0.9564 0.34137 0.0
C1607 C 0.97902 0.96027 0.35046 0.0
C1608 C 0.98673 0.97698 0.3612 0.0
C1609 C 0.99745 0.0328 0.45526 0.0
C1610 C 0.00991 0.02348 0.46167 0.0
C1611 C 0.99355 0.03305 0.43667 0.0
C1612 C 0.00208 0.0241 0.42401 0.0
C1613 C 0.01432 0.01455 0.43029 0.0
C1614 C 0.01826 0.0143 0.44896 0.0
C1615 C 0.99789 0.02453 0.40425 0.0
C1616 C 0.99093 0.00815 0.3926 0.0
C1617 C -0.00046 0.04095 0.39707 0.0
C1618 C 0.008 0.05869 0.40837 0.0
C1619 C 0.02556 0.06224 0.41808 0.0
C1620 C 0.03356 0.07906 0.42851 0.0
C1621 C 0.02418 0.09248 0.42922 0.0
C1622 C 0.00674 0.0891 0.41963 0.0
C1623 C -0.00134 0.07229 0.4092 0.0
H1624 H 0.03047 0.10553 0.43717 0.0
H1625 H 0.95536 0.94346 0.33306 0.0
H1626 H 0.26277 0.64975 0.59857 0.0
H1627 H 0.26366 0.67175 0.62517 0.0
H1628 H 0.2885 0.715 0.59632 0.0
H1629 H 0.28809 0.69317 0.5699 0.0
H1630 H 0.30582 0.71966 0.62923 0.0
H1631 H 0.24387 0.7077 0.60351 0.0
H1632 H 0.21314 0.68923 0.59014 0.0
H1633 H 0.20531 0.66702 0.63987 0.0
H1634 H 0.23612 0.68516 0.65348 0.0
H1635 H 0.28455 0.78211 0.7022 0.0
H1636 H 0.28294 0.7662 0.67131 0.0
H1637 H 0.28151 0.71678 0.69324 0.0
H1638 H 0.28367 0.73248 0.72394 0.0
H1639 H 0.25127 0.71965 0.66138 0.0
H1640 H 0.31673 0.72821 0.68335 0.0
H1641 H 0.34716 0.74786 0.69618 0.0
H1642 H 0.34698 0.77857 0.65181 0.0
H1643 H 0.31638 0.75923 0.63889 0.0
C1644 C 0.26838 0.66394 0.59789 0.0
C1645 C 0.27538 0.66972 0.58218 0.0
C1646 C 0.26878 0.67649 0.61303 0.0
C1647 C 0.27594 0.69499 0.61257 0.0
C1648 C 0.28291 0.70078 0.59691 0.0
C1649 C 0.28265 0.68827 0.58184 0.0
C1650 C 0.27671 0.70824 0.62869 0.0
C1651 C 0.2938 0.71987 0.63604 0.0
C1652 C 0.26103 0.70855 0.63752 0.0
C1653 C 0.24239 0.69771 0.62948 0.0
C1654 C 0.23566 0.69878 0.61157 0.0
C1655 C 0.21821 0.68838 0.60395 0.0
C1656 C 0.2073 0.67692 0.61414 0.0
C1657 C 0.21379 0.67589 0.63199 0.0
C1658 C 0.23124 0.68625 0.63967 0.0
C1659 C 0.28411 0.76791 0.70038 0.0
C1660 C 0.28433 0.75852 0.71539 0.0
C1661 C 0.28314 0.75889 0.68283 0.0
C1662 C 0.28203 0.74041 0.68023 0.0
C1663 C 0.28234 0.73107 0.69515 0.0
C1664 C 0.28371 0.7401 0.71264 0.0
C1665 C 0.28035 0.7305 0.66194 0.0
C1666 C 0.26311 0.71957 0.65425 0.0
C1667 C 0.2958 0.73098 0.65265 0.0
C1668 C 0.3142 0.74247 0.66032 0.0
C1669 C 0.3231 0.73928 0.67645 0.0
C1670 C 0.34039 0.75033 0.68371 0.0
C1671 C 0.34897 0.7645 0.67485 0.0
C1672 C 0.3403 0.76762 0.65868 0.0
C1673 C 0.32299 0.75662 0.65139 0.0
H1674 H 0.36237 0.77304 0.68048 0.0
H1675 H 0.1938 0.66887 0.60821 0.0
H1676 H 0.58938 0.03516 0.78261 0.0
H1677 H 0.58516 0.04559 0.81367 0.0
H1678 H 0.63937 0.04222 0.83271 0.0
H1679 H 0.64363 0.03142 0.80166 0.0
H1680 H 0.61541 0.03112 0.85641 0.0
H1681 H 0.63338 0.08243 0.82697 0.0
H1682 H 0.63324 0.10107 0.80235 0.0
H1683 H 0.57788 0.10226 0.80887 0.0
H1684 H 0.57757 0.08336 0.83333 0.0
H1685 H 0.59947 0.07563 0.94002 0.0
H1686 H 0.61571 0.07318 0.91324 0.0
H1687 H 0.56563 0.06789 0.8784 0.0
H1688 H 0.54936 0.07013 0.90486 0.0
H1689 H 0.59579 0.08783 0.86528 0.0
H1690 H 0.57753 0.03038 0.89028 0.0
H1691 H 0.57874 0.01256 0.91552 0.0
H1692 H 0.63742 0.02519 0.91835 0.0
H1693 H 0.63652 0.04318 0.89319 0.0
C1694 C 0.60033 0.03641 0.7934 0.0
C1695 C 0.61691 0.03266 0.78962 0.0
C1696 C 0.59794 0.04247 0.81114 0.0
C1697 C 0.61214 0.0451 0.82538 0.0
C1698 C 0.62832 0.04043 0.82186 0.0
C1699 C 0.6307 0.03425 0.8041 0.0
C1700 C 0.61012 0.0533 0.84377 0.0
C1701 C 0.6115 0.04371 0.85843 0.0
C1702 C 0.60527 0.06984 0.84648 0.0
C1703 C 0.60543 0.0814 0.83193 0.0
C1704 C 0.62113 0.08658 0.82308 0.0
C1705 C 0.62114 0.09719 0.80916 0.0
C1706 C 0.60555 0.10283 0.80403 0.0
C1707 C 0.58994 0.09788 0.81285 0.0
C1708 C 0.58985 0.08724 0.82677 0.0
C1709 C 0.59202 0.07421 0.92664 0.0
C1710 C 0.57309 0.07289 0.92454 0.0
C1711 C 0.60132 0.07288 0.9114 0.0
C1712 C 0.59178 0.07011 0.89388 0.0
C1713 C 0.57323 0.07007 0.89182 0.0
C1714 C 0.56396 0.07141 0.90699 0.0
C1715 C 0.60022 0.06522 0.87758 0.0
C1716 C 0.60014 0.07548 0.86331 0.0
C1717 C 0.60651 0.04945 0.87532 0.0
C1718 C 0.60696 0.03816 0.88997 0.0
C1719 C 0.59067 0.02934 0.8963 0.0
C1720 C 0.5913 0.01923 0.91059 0.0
C1721 C 0.60814 0.01775 0.91854 0.0
C1722 C 0.62438 0.02633 0.91217 0.0
C1723 C 0.62382 0.03646 0.89789 0.0
H1724 H 0.60861 0.00995 0.92962 0.0
H1725 H 0.60558 0.11105 0.79325 0.0
H1726 H 0.28773 0.37362 0.09694 0.0
H1727 H 0.28701 0.36141 0.12569 0.0
H1728 H 0.25612 0.30932 0.09751 0.0
H1729 H 0.25661 0.32153 0.06864 0.0
H1730 H 0.24135 0.31859 0.12756 0.0
H1731 H 0.30119 0.31684 0.11341 0.0
H1732 H 0.33216 0.32881 0.10505 0.0
H1733 H 0.34554 0.36764 0.15352 0.0
H1734 H 0.31455 0.35608 0.16204 0.0
H1735 H 0.25031 0.27236 0.20404 0.0
H1736 H 0.25013 0.28258 0.17425 0.0
H1737 H 0.28468 0.33472 0.19859 0.0
H1738 H 0.28543 0.32436 0.22827 0.0
H1739 H 0.29747 0.32393 0.16954 0.0
H1740 H 0.23718 0.32643 0.18316 0.0
H1741 H 0.20622 0.31437 0.19154 0.0
H1742 H 0.19368 0.27416 0.14418 0.0
H1743 H 0.22465 0.28584 0.13565 0.0
C1744 C 0.2809 0.35953 0.09681 0.0
C1745 C 0.27226 0.34854 0.08048 0.0
C1746 C 0.28055 0.35254 0.11327 0.0
C1747 C 0.27164 0.3344 0.11376 0.0
C1748 C 0.26309 0.32336 0.09746 0.0
C1749 C 0.26345 0.33033 0.08097 0.0
C1750 C 0.27085 0.32715 0.13137 0.0
C1751 C 0.25363 0.31951 0.13664 0.0
C1752 C 0.28684 0.32869 0.14339 0.0
C1753 C 0.30548 0.3357 0.13827 0.0
C1754 C 0.31068 0.32804 0.12221 0.0
C1755 C 0.32825 0.33473 0.11745 0.0
C1756 C 0.3408 0.34901 0.12872 0.0
C1757 C 0.3358 0.3566 0.14479 0.0
C1758 C 0.31824 0.34997 0.1496 0.0
C1759 C 0.25766 0.28608 0.20309 0.0
C1760 C 0.26788 0.29756 0.21853 0.0
C1761 C 0.25752 0.29194 0.18603 0.0
C1762 C 0.26727 0.3095 0.18413 0.0
C1763 C 0.2771 0.32109 0.19965 0.0
C1764 C 0.27746 0.31517 0.21664 0.0
C1765 C 0.26794 0.31562 0.16593 0.0
C1766 C 0.28516 0.323 0.1605 0.0
C1767 C 0.25194 0.31387 0.15379 0.0
C1768 C 0.23329 0.3069 0.15887 0.0
C1769 C 0.22786 0.31494 0.1746 0.0
C1770 C 0.2103 0.30818 0.17937 0.0
C1771 C 0.19801 0.29348 0.16842 0.0
C1772 C 0.20322 0.28553 0.15266 0.0
C1773 C 0.22077 0.29222 0.14784 0.0
H1774 H 0.18442 0.28827 0.17214 0.0
H1775 H 0.3544 0.35416 0.12502 0.0
H1776 H 0.22792 0.95325 0.01138 0.0
H1777 H 0.20308 0.96605 0.01959 0.0
H1778 H 0.16804 0.91275 0.01941 0.0
H1779 H 0.19312 0.89958 0.01124 0.0
H1780 H 0.15484 0.94391 0.00036 0.0
H1781 H 0.17907 0.92797 0.05714 0.0
H1782 H 0.20522 0.92625 0.07834 0.0
H1783 H 0.22686 0.98369 0.08377 0.0
H1784 H 0.20096 0.98572 0.06242 0.0
H1785 H 0.09813 0.99503 0.03737 0.0
H1786 H 0.11256 0.97005 0.03354 0.0
H1787 H 0.1657 0.00754 0.05031 0.0
H1788 H 0.15113 0.03244 0.05463 0.0
H1789 H 0.16453 0.97722 0.06298 0.0
H1790 H 0.14749 0.99544 0.00659 0.0
H1791 H 0.12769 0.00137 0.98135 0.0
H1792 H 0.09912 0.9452 0.97029 0.0
H1793 H 0.11821 0.93903 -0.00394 0.0
C1794 C 0.21492 0.94418 0.01293 0.0
C1795 C 0.21247 0.92543 0.01089 0.0
C1796 C 0.20078 0.95152 0.01758 0.0
C1797 C 0.18398 0.94027 0.02024 0.0
C1798 C 0.18105 0.92152 0.01742 0.0
C1799 C 0.19533 0.91408 0.01281 0.0
C1800 C 0.17009 0.94867 0.02691 0.0
C1801 C 0.15635 0.95069 0.01421 0.0
C1802 C 0.17294 0.95807 0.04474 0.0
C1803 C 0.18809 0.95697 0.05819 0.0
C1804 C 0.18943 0.94022 0.06284 0.0
C1805 C 0.20421 0.9392 0.07487 0.0
C1806 C 0.21769 0.95485 0.08239 0.0
C1807 C 0.21639 0.97158 0.07796 0.0
C1808 C 0.20164 0.97268 0.06593 0.0
C1809 C 0.11287 0.99776 0.04054 0.0
C1810 C 0.12371 0.01546 0.04611 0.0
C1811 C 0.12105 0.98358 0.03833 0.0
C1812 C 0.14016 0.98705 0.04136 0.0
C1813 C 0.15089 0.00464 0.04792 0.0
C1814 C 0.14267 0.01881 0.05034 0.0
C1815 C 0.14921 0.97274 0.03636 0.0
C1816 C 0.16222 0.96978 0.04935 0.0
C1817 C 0.14613 0.96303 0.01853 0.0
C1818 C 0.13403 0.96684 0.00356 0.0
C1819 C 0.13672 0.9844 -0.00094 0.0
C1820 C 0.12564 0.9878 0.98463 0.0
C1821 C 0.11208 0.97369 0.9743 0.0
C1822 C 0.10957 0.95614 0.97839 0.0
C1823 C 0.12042 0.9527 0.993 0.0
H1824 H 0.10361 0.97636 0.96306 0.0
H1825 H 0.22915 0.95402 0.09167 0.0
H1826 H 0.70035 0.6735 0.99164 0.0
H1827 H 0.66968 0.65384 0.99242 0.0
H1828 H 0.69348 0.61024 0.00267 0.0
H1829 H 0.7239 0.62951 0.00138 0.0
H1830 H 0.66414 0.59777 0.97937 0.0
H1831 H 0.67947 0.63606 0.03706 0.0
H1832 H 0.68885 0.66496 0.05766 0.0
H1833 H 0.64133 0.67959 0.03551 0.0
H1834 H 0.6318 0.65086 0.0146 0.0
H1835 H 0.59116 0.54217 0.01737 0.0
H1836 H 0.62058 0.56216 0.0131 0.0
H1837 H 0.59295 0.60115 -0.00352 0.0
H1838 H 0.5636 0.58137 0.00066 0.0
H1839 H 0.62334 0.61634 0.02193 0.0
H1840 H 0.60767 0.57617 0.96517 0.0
H1841 H 0.59871 0.54643 0.94601 0.0
H1842 H 0.64768 0.53445 0.96835 0.0
H1843 H 0.65681 0.56402 0.98784 0.0
C1844 C 0.69898 0.65969 0.99394 0.0
C1845 C 0.71452 0.65307 -0.00348 0.0
C1846 C 0.68149 0.6485 0.99447 0.0
C1847 C 0.67931 0.63063 -0.00215 0.0
C1848 C 0.69481 0.62395 3e-05 0.0
C1849 C 0.71221 0.63503 -0.00067 0.0
C1850 C 0.661 0.61885 -0.00055 0.0
C1851 C 0.6553 0.60179 0.98881 0.0
C1852 C 0.64934 0.62416 0.01157 0.0
C1853 C 0.65504 0.64141 0.02413 0.0
C1854 C 0.6711 0.6455 0.03648 0.0
C1855 C 0.67644 0.66184 0.04823 0.0
C1856 C 0.66573 0.67413 0.04785 0.0
C1857 C 0.64964 0.67008 0.03576 0.0
C1858 C 0.64426 0.65377 0.02397 0.0
C1859 C 0.59133 0.55497 0.01275 0.0
C1860 C 0.57501 0.56016 0.00936 0.0
C1861 C 0.60814 0.56634 0.01028 0.0
C1862 C 0.60888 0.58307 0.0044 0.0
C1863 C 0.59265 0.5883 0.00104 0.0
C1864 C 0.57587 0.57692 0.0034 0.0
C1865 C 0.62661 0.59529 0.00195 0.0
C1866 C 0.63217 0.61241 0.01244 0.0
C1867 C 0.63825 0.58995 0.98989 0.0
C1868 C 0.63284 0.57223 0.97807 0.0
C1869 C 0.61646 0.56713 0.96609 0.0
C1870 C 0.61136 0.55032 0.95516 0.0
C1871 C 0.6226 0.53854 0.95599 0.0
C1872 C 0.63898 0.54358 0.96773 0.0
C1873 C 0.64414 0.56037 0.97871 0.0
H1874 H 0.61862 0.52553 0.94752 0.0
H1875 H 0.66987 0.68677 0.05696 0.0
H1876 H 0.62706 0.46161 0.27001 0.0
H1877 H 0.64316 0.43783 0.26806 0.0
H1878 H 0.69461 0.47787 0.27033 0.0
H1879 H 0.67866 0.50173 0.27247 0.0
H1880 H 0.66421 0.42768 0.2432 0.0
H1881 H 0.72768 0.46451 0.29422 0.0
H1882 H 0.73616 0.48791 0.32121 0.0
H1883 H 0.68075 0.47384 0.33396 0.0
H1884 H 0.67199 0.45021 0.30718 0.0
H1885 H 0.73997 0.38821 0.23768 0.0
H1886 H 0.71983 0.40854 0.2389 0.0
H1887 H 0.70313 0.39132 0.28916 0.0
H1888 H 0.72326 0.37103 0.28807 0.0
H1889 H 0.71433 0.42848 0.29099 0.0
H1890 H 0.67228 0.37801 0.25246 0.0
H1891 H 0.6619 0.3541 0.22597 0.0
H1892 H 0.6729 0.39374 0.18984 0.0
H1893 H 0.68312 0.41792 0.21609 0.0
C1894 C 0.6418 0.46536 0.27013 0.0
C1895 C 0.6516 0.48356 0.27151 0.0
C1896 C 0.65097 0.45175 0.26893 0.0
C1897 C 0.67009 0.4561 0.26921 0.0
C1898 C 0.67987 0.47424 0.27034 0.0
C1899 C 0.67073 0.48785 0.27153 0.0
C1900 C 0.67985 0.44169 0.26853 0.0
C1901 C 0.67516 0.42784 0.25365 0.0
C1902 C 0.69399 0.44179 0.28227 0.0
C1903 C 0.69916 0.45571 0.29861 0.0
C1904 C 0.71733 0.46636 0.30284 0.0
C1905 C 0.72218 0.47967 0.31808 0.0
C1906 C 0.70899 0.4824 0.32926 0.0
C1907 C 0.69094 0.47176 0.32525 0.0
C1908 C 0.68602 0.45842 0.31004 0.0
C1909 C 0.73197 0.38875 0.24897 0.0
C1910 C 0.73326 0.37812 0.26283 0.0
C1911 C 0.72037 0.40023 0.24956 0.0
C1912 C 0.70996 0.40137 0.26409 0.0
C1913 C 0.71103 0.3906 0.27782 0.0
C1914 C 0.72247 0.37897 0.27713 0.0
C1915 C 0.69884 0.4146 0.26555 0.0
C1916 C 0.70334 0.42828 0.28056 0.0
C1917 C 0.68446 0.41426 0.25201 0.0
C1918 C 0.67863 0.39974 0.23622 0.0
C1919 C 0.67263 0.38161 0.23886 0.0
C1920 C 0.66674 0.36802 0.22391 0.0
C1921 C 0.66691 0.37238 0.20626 0.0
C1922 C 0.67283 0.39037 0.20352 0.0
C1923 C 0.67859 0.40403 0.21843 0.0
H1924 H 0.66238 0.36182 0.19471 0.0
H1925 H 0.71277 0.49272 0.34104 0.0
H1926 H 0.81175 0.47286 0.50602 0.0
H1927 H 0.84484 0.48622 0.51192 0.0
H1928 H 0.8539 0.43305 0.50377 0.0
H1929 H 0.82076 0.41967 0.49918 0.0
H1930 H 0.87705 0.45184 0.52973 0.0
H1931 H 0.85779 0.46302 0.46981 0.0
H1932 H 0.83929 0.47431 0.44731 0.0
H1933 H 0.85962 0.52804 0.47621 0.0
H1934 H 0.87807 0.51703 0.49899 0.0
H1935 H 0.96987 0.47834 0.51229 0.0
H1936 H 0.93683 0.46535 0.51056 0.0
H1937 H 0.92895 0.51882 0.52126 0.0
H1938 H 0.96189 0.53184 0.52193 0.0
H1939 H 0.90522 0.50025 0.49492 0.0
H1940 H 0.92739 0.48774 0.55347 0.0
H1941 H 0.94662 0.47504 0.57375 0.0
H1942 H 0.92102 0.4218 0.54576 0.0
H1943 H 0.90208 0.43421 0.52479 0.0
C1944 C 0.82087 0.46408 0.50554 0.0
C1945 C 0.81384 0.4453 0.50198 0.0
C1946 C 0.83975 0.4717 0.50882 0.0
C1947 C 0.8519 0.46067 0.50783 0.0
C1948 C 0.84482 0.44185 0.50456 0.0
C1949 C 0.82592 0.43421 0.50186 0.0
C1950 C 0.87198 0.46869 0.50987 0.0
C1951 C 0.88324 0.46229 0.52197 0.0
C1952 C 0.88006 0.48254 0.49999 0.0
C1953 C 0.86918 0.48918 0.48616 0.0
C1954 C 0.85824 0.47723 0.47139 0.0
C1955 C 0.84777 0.48358 0.4586 0.0
C1956 C 0.84825 0.50188 0.46036 0.0
C1957 C 0.85925 0.51387 0.47488 0.0
C1958 C 0.86973 0.50759 0.48772 0.0
C1959 C 0.96105 0.48727 0.51438 0.0
C1960 C 0.96832 0.50605 0.51724 0.0
C1961 C 0.9422 0.47985 0.51349 0.0
C1962 C 0.93042 0.4911 0.5161 0.0
C1963 C 0.93777 0.50988 0.51922 0.0
C1964 C 0.95655 0.51731 0.51963 0.0
C1965 C 0.91034 0.4834 0.51477 0.0
C1966 C 0.89906 0.48985 0.50276 0.0
C1967 C 0.90232 0.46941 0.52453 0.0
C1968 C 0.9134 0.46194 0.53747 0.0
C1969 C 0.92592 0.47333 0.55156 0.0
C1970 C 0.93679 0.46618 0.56319 0.0
C1971 C 0.93502 0.44763 0.56112 0.0
C1972 C 0.92239 0.43617 0.54736 0.0
C1973 C 0.91161 0.44326 0.53557 0.0
H1974 H 0.94345 0.44215 0.57017 0.0
H1975 H 0.84012 0.50676 0.45045 0.0
H1976 H 0.38216 0.09428 0.29237 0.0
H1977 H 0.36225 0.11404 0.28787 0.0
H1978 H 0.31497 0.07054 0.29151 0.0
H1979 H 0.33485 0.05046 0.29543 0.0
H1980 H 0.31034 0.08359 0.26172 0.0
H1981 H 0.32847 0.1097 0.32346 0.0
H1982 H 0.34903 0.12349 0.35168 0.0
H1983 H 0.37448 0.16832 0.32563 0.0
H1984 H 0.3543 0.15468 0.29715 0.0
H1985 H 0.25522 0.14836 0.25449 0.0
H1986 H 0.26951 0.12566 0.26498 0.0
H1987 H 0.3211 0.15392 0.24941 0.0
H1988 H 0.30683 0.17616 0.23807 0.0
H1989 H 0.3197 0.14749 0.28825 0.0
H1990 H 0.30415 0.11845 0.22562 0.0
H1991 H 0.28293 0.10484 0.19776 0.0
H1992 H 0.25172 0.0656 0.22695 0.0
H1993 H 0.27263 0.07917 0.25508 0.0
C1994 C 0.36757 0.08903 0.29269 0.0
C1995 C 0.36002 0.07078 0.29403 0.0
C1996 C 0.35619 0.10039 0.29022 0.0
C1997 C 0.33711 0.09377 0.28939 0.0
C1998 C 0.32966 0.07588 0.29205 0.0
C1999 C 0.34103 0.06445 0.29433 0.0
C2000 C 0.32498 0.10475 0.28329 0.0
C2001 C 0.3121 0.09743 0.26784 0.0
C2002 C 0.32751 0.12292 0.29103 0.0
C2003 C 0.33992 0.13107 0.30809 0.0
C2004 C 0.33857 0.12241 0.32367 0.0
C2005 C 0.35014 0.13022 0.33974 0.0
C2006 C 0.36308 0.14675 0.34044 0.0
C2007 C 0.36447 0.15551 0.32507 0.0
C2008 C 0.35295 0.14775 0.30896 0.0
C2009 C 0.26944 0.14942 0.25274 0.0
C2010 C 0.27997 0.16416 0.24566 0.0
C2011 C 0.27759 0.13655 0.25889 0.0
C2012 C 0.29633 0.1384 0.25814 0.0
C2013 C 0.30664 0.1525 0.25023 0.0
C2014 C 0.29847 0.16518 0.24383 0.0
C2015 C 0.30558 0.12635 0.26666 0.0
C2016 C 0.31783 0.13352 0.28248 0.0
C2017 C 0.30242 0.10806 0.25937 0.0
C2018 C 0.28979 0.09998 0.2425 0.0
C2019 C 0.29263 0.10706 0.22615 0.0
C2020 C 0.2807 0.09932 0.2103 0.0
C2021 C 0.26594 0.08441 0.2106 0.0
C2022 C 0.26313 0.07718 0.22675 0.0
C2023 C 0.27502 0.08488 0.24265 0.0
H2024 H 0.25673 0.07842 0.1983 0.0
H2025 H 0.37201 0.15279 0.35289 0.0
H2026 H 0.32907 0.17063 0.50579 0.0
H2027 H 0.35762 0.1611 0.50735 0.0
H2028 H 0.33649 0.12382 0.54388 0.0
H2029 H 0.30833 0.13336 0.54269 0.0
H2030 H 0.37218 0.1403 0.55423 0.0
H2031 H 0.33318 0.11053 0.4976 0.0
H2032 H 0.31629 0.11044 0.46775 0.0
H2033 H 0.36583 0.13993 0.44984 0.0
H2034 H 0.38295 0.14036 0.47968 0.0
H2035 H 0.40897 0.06557 0.54409 0.0
H2036 H 0.39134 0.08805 0.54619 0.0
H2037 H 0.42025 0.11412 0.50517 0.0
H2038 H 0.43741 0.09121 0.50262 0.0
H2039 H 0.38604 0.10992 0.49692 0.0
H2040 H 0.42637 0.13427 0.55127 0.0
H2041 H 0.4436 0.13432 0.58089 0.0
H2042 H 0.39314 0.11602 0.60328 0.0
H2043 H 0.37559 0.11565 0.57375 0.0
C2044 C 0.33062 0.16054 0.51429 0.0
C2045 C 0.31633 0.15262 0.52395 0.0
C2046 C 0.34691 0.15511 0.51515 0.0
C2047 C 0.34908 0.14164 0.52561 0.0
C2048 C 0.33513 0.13426 0.53577 0.0
C2049 C 0.31895 0.13966 0.53495 0.0
C2050 C 0.36517 0.1341 0.52519 0.0
C2051 C 0.37529 0.13366 0.54173 0.0
C2052 C 0.36958 0.12599 0.5088 0.0
C2053 C 0.35927 0.12568 0.49091 0.0
C2054 C 0.34043 0.1171 0.48733 0.0
C2055 C 0.33082 0.11697 0.47042 0.0
C2056 C 0.33997 0.12523 0.45693 0.0
C2057 C 0.35875 0.13359 0.46032 0.0
C2058 C 0.36841 0.13377 0.47721 0.0
C2059 C 0.4117 0.07627 0.53574 0.0
C2060 C 0.42441 0.07667 0.52314 0.0
C2061 C 0.40174 0.08918 0.53702 0.0
C2062 C 0.40465 0.10296 0.52602 0.0
C2063 C 0.41778 0.10364 0.5138 0.0
C2064 C 0.42753 0.09056 0.51232 0.0
C2065 C 0.39278 0.11555 0.52608 0.0
C2066 C 0.3834 0.11694 0.50944 0.0
C2067 C 0.38917 0.12461 0.54239 0.0
C2068 C 0.39966 0.12486 0.56024 0.0
C2069 C 0.41894 0.13015 0.56248 0.0
C2070 C 0.42877 0.13025 0.57926 0.0
C2071 C 0.41947 0.12515 0.59395 0.0
C2072 C 0.40032 0.11997 0.5919 0.0
C2073 C 0.39043 0.11986 0.57514 0.0
H2074 H 0.4271 0.12523 0.60693 0.0
H2075 H 0.33251 0.12511 0.44385 0.0
H2076 H 0.67481 0.57769 0.28688 0.0
H2077 H 0.69764 0.60649 0.2875 0.0
H2078 H 0.6543 0.63295 0.28027 0.0
H2079 H 0.63149 0.6044 0.2795 0.0
H2080 H 0.67867 0.64027 0.25604 0.0
H2081 H 0.68063 0.63908 0.3209 0.0
H2082 H 0.68486 0.62601 0.34907 0.0
H2083 H 0.73993 0.62627 0.33964 0.0
H2084 H 0.73593 0.63913 0.31127 0.0
H2085 H 0.7202 0.73205 0.27251 0.0
H2086 H 0.70256 0.70181 0.27529 0.0
H2087 H 0.75252 0.68521 0.28372 0.0
H2088 H 0.77047 0.71583 0.28135 0.0
H2089 H 0.728 0.67105 0.30602 0.0
H2090 H 0.72706 0.67413 0.24248 0.0
H2091 H 0.72315 0.68719 0.21425 0.0
H2092 H 0.66658 0.68273 0.22061 0.0
H2093 H 0.6702 0.66988 0.24902 0.0
C2094 C 0.67015 0.58969 0.28565 0.0
C2095 C 0.65131 0.58871 0.28303 0.0
C2096 C 0.68322 0.60613 0.28605 0.0
C2097 C 0.67764 0.62183 0.28392 0.0
C2098 C 0.65888 0.62096 0.28185 0.0
C2099 C 0.64586 0.60461 0.28145 0.0
C2100 C 0.69113 0.63904 0.28277 0.0
C2101 C 0.68935 0.64707 0.26704 0.0
C2102 C 0.70551 0.64754 0.29681 0.0
C2103 C 0.70791 0.63985 0.31386 0.0
C2104 C 0.69358 0.6362 0.32475 0.0
C2105 C 0.69595 0.62887 0.34077 0.0
C2106 C 0.71263 0.62526 0.34611 0.0
C2107 C 0.727 0.62904 0.33547 0.0
C2108 C 0.7247 0.63636 0.31943 0.0
C2109 C 0.7275 0.72201 0.27495 0.0
C2110 C 0.74674 0.72626 0.27645 0.0
C2111 C 0.71738 0.70471 0.27652 0.0
C2112 C 0.72621 0.69117 0.2793 0.0
C2113 C 0.74545 0.69546 0.28144 0.0
C2114 C 0.75566 0.71292 0.28004 0.0
C2115 C 0.71513 0.67251 0.27952 0.0
C2116 C 0.71742 0.66416 0.29496 0.0
C2117 C 0.70124 0.6636 0.26515 0.0
C2118 C 0.69894 0.67115 0.24795 0.0
C2119 C 0.71381 0.67603 0.23792 0.0
C2120 C 0.71164 0.68339 0.22188 0.0
C2121 C 0.69464 0.68582 0.21566 0.0
C2122 C 0.67974 0.68085 0.22544 0.0
C2123 C 0.68184 0.6735 0.24151 0.0
H2124 H 0.69299 0.69152 0.20324 0.0
H2125 H 0.71444 0.61958 0.35852 0.0
H2126 H 0.85201 0.48102 0.78579 0.0
H2127 H 0.83113 0.45129 0.78515 0.0
H2128 H 0.86173 0.42815 0.7474 0.0
H2129 H 0.8831 0.45787 0.74822 0.0
H2130 H 0.81573 0.41664 0.74475 0.0
H2131 H 0.87549 0.41966 0.77926 0.0
H2132 H 0.90207 0.43592 0.80161 0.0
H2133 H 0.86616 0.44153 0.84204 0.0
H2134 H 0.83933 0.42553 0.81978 0.0
H2135 H 0.79125 0.32554 0.75639 0.0
H2136 H 0.8067 0.35562 0.75149 0.0
H2137 H 0.79859 0.37662 0.80552 0.0
H2138 H 0.78378 0.34585 0.81091 0.0
H2139 H 0.8324 0.38981 0.79905 0.0
H2140 H 0.77307 0.38166 0.76676 0.0
H2141 H 0.74586 0.36608 0.74497 0.0
H2142 H 0.77872 0.37081 0.7009 0.0
H2143 H 0.80624 0.38603 0.72246 0.0
C2144 C 0.85411 0.46971 0.77703 0.0
C2145 C 0.86931 0.47169 0.76722 0.0
C2146 C 0.84214 0.4528 0.77665 0.0
C2147 C 0.84503 0.43775 0.76623 0.0
C2148 C 0.85937 0.43978 0.75541 0.0
C2149 C 0.87158 0.45668 0.75601 0.0
C2150 C 0.8347 0.41974 0.76882 0.0
C2151 C 0.81938 0.41055 0.75643 0.0
C2152 C 0.83937 0.41231 0.78439 0.0
C2153 C 0.85544 0.42166 0.79782 0.0
C2154 C 0.87327 0.42453 0.79286 0.0
C2155 C 0.88837 0.43365 0.80552 0.0
C2156 C 0.8858 0.43982 0.82321 0.0
C2157 C 0.86812 0.43679 0.82831 0.0
C2158 C 0.85297 0.4277 0.81569 0.0
C2159 C 0.79293 0.33651 0.76736 0.0
C2160 C 0.78667 0.33349 0.78419 0.0
C2161 C 0.80149 0.35373 0.76439 0.0
C2162 C 0.80349 0.36831 0.77803 0.0
C2163 C 0.797 0.36542 0.79481 0.0
C2164 C 0.78852 0.348 0.79787 0.0
C2165 C 0.81322 0.38643 0.77497 0.0
C2166 C 0.82855 0.39574 0.7873 0.0
C2167 C 0.8084 0.39391 0.75937 0.0
C2168 C 0.79178 0.3849 0.74629 0.0
C2169 C 0.77455 0.37926 0.75244 0.0
C2170 C 0.75905 0.37047 0.74012 0.0
C2171 C 0.76056 0.3674 0.72156 0.0
C2172 C 0.77757 0.37314 0.71528 0.0
C2173 C 0.79313 0.38186 0.72755 0.0
H2174 H 0.74855 0.3606 0.71204 0.0
H2175 H 0.8975 0.44692 0.83296 0.0
H2176 H 0.06786 0.86691 0.10769 0.0
H2177 H 0.06562 0.8947 0.0964 0.0
H2178 H 0.03632 0.86394 0.04588 0.0
H2179 H 0.03958 0.83603 0.05686 0.0
H2180 H 0.05595 0.89242 0.03748 0.0
H2181 H 0.0153 0.88416 0.0827 0.0
H2182 H 0.00535 0.8789 0.11264 0.0
H2183 H 0.04466 0.92772 0.13778 0.0
H2184 H 0.05501 0.93316 0.108 0.0
H2185 H 0.01197 0.96261 0.01729 0.0
H2186 H 0.0172 0.93518 0.02761 0.0
H2187 H 0.06674 0.96664 0.06066 0.0
H2188 H 0.06193 0.9942 0.04988 0.0
H2189 H 0.03682 0.93846 0.07761 0.0
H2190 H 0.07502 0.94641 0.02919 0.0
H2191 H 0.07945 0.95183 -0.00209 0.0
H2192 H 0.03981 0.90175 0.97713 0.0
H2193 H 0.03433 0.89652 0.00842 0.0
C2194 C 0.06095 0.866 0.09414 0.0
C2195 C 0.05378 0.84911 0.08328 0.0
C2196 C 0.05952 0.88201 0.0877 0.0
C2197 C 0.0503 0.88169 0.07037 0.0
C2198 C 0.04343 0.8648 0.05932 0.0
C2199 C 0.04525 0.84875 0.06564 0.0
C2200 C 0.04786 0.89889 0.06393 0.0
C2201 C 0.05159 0.90231 0.0463 0.0
C2202 C 0.04222 0.91217 0.07521 0.0
C2203 C 0.03605 0.90897 0.09314 0.0
C2204 C 0.0219 0.89371 0.09463 0.0
C2205 C 0.01618 0.8907 0.11157 0.0
C2206 C 0.0244 0.90294 0.12711 0.0
C2207 C 0.03833 0.91824 0.12573 0.0
C2208 C 0.04412 0.9213 0.10883 0.0
C2209 C 0.02407 0.96375 0.02667 0.0
C2210 C 0.03653 0.98071 0.0327 0.0
C2211 C 0.02702 0.948 0.03259 0.0
C2212 C 0.04231 0.94877 0.04501 0.0
C2213 C 0.05479 0.96566 0.05114 0.0
C2214 C 0.05208 0.98142 0.04486 0.0
C2215 C 0.04515 0.93188 0.05146 0.0
C2216 C 0.04133 0.92852 0.06898 0.0
C2217 C 0.05023 0.91851 0.03994 0.0
C2218 C 0.05409 0.92119 0.02117 0.0
C2219 C 0.06708 0.93663 0.01797 0.0
C2220 C 0.06981 0.93966 0.00021 0.0
C2221 C 0.06001 0.92709 0.9855 0.0
C2222 C 0.0474 0.91148 0.98854 0.0
C2223 C 0.04441 0.90851 0.0063 0.0
H2224 H 0.06217 0.92947 0.97174 0.0
H2225 H 0.01995 0.90059 0.14021 0.0
H2226 H 0.95154 0.28448 0.87397 0.0
H2227 H 0.92053 0.28314 0.86191 0.0
H2228 H 0.89931 0.24634 0.89874 0.0
H2229 H 0.93095 0.2476 0.91124 0.0
H2230 H 0.88014 0.23699 0.86188 0.0
H2231 H 0.89668 0.28703 0.90876 0.0
H2232 H 0.91633 0.31483 0.927 0.0
H2233 H 0.91651 0.34243 0.88027 0.0
H2234 H 0.89718 0.31466 0.86162 0.0
H2235 H 0.79405 0.25857 0.83053 0.0
H2236 H 0.81892 0.25452 0.85197 0.0
H2237 H 0.85896 0.28537 0.82244 0.0
H2238 H 0.83448 0.289 0.8009 0.0
H2239 H 0.86444 0.29556 0.86209 0.0
H2240 H 0.85295 0.2438 0.81478 0.0
H2241 H 0.83358 0.21598 0.79625 0.0
H2242 H 0.8233 0.19187 0.84461 0.0
H2243 H 0.84242 0.21969 0.86345 0.0
C2244 C 0.94043 0.27599 0.87965 0.0
C2245 C 0.94395 0.26622 0.89378 0.0
C2246 C 0.92258 0.27529 0.87266 0.0
C2247 C 0.9075 0.26484 0.87951 0.0
C2248 C 0.91074 0.25457 0.89327 0.0
C2249 C 0.92882 0.25534 0.90043 0.0
C2250 C 0.88866 0.26535 0.87224 0.0
C2251 C 0.87648 0.24971 0.86237 0.0
C2252 C 0.88385 0.28195 0.87263 0.0
C2253 C 0.89552 0.29872 0.88377 0.0
C2254 C 0.90103 0.29898 0.90233 0.0
C2255 C 0.91211 0.31475 0.91275 0.0
C2256 C 0.91766 0.3304 0.9048 0.0
C2257 C 0.91218 0.3303 0.88641 0.0
C2258 C 0.90115 0.31455 0.87591 0.0
C2259 C 0.80817 0.26454 0.82871 0.0
C2260 C 0.81228 0.27405 0.81397 0.0
C2261 C 0.82235 0.26215 0.8409 0.0
C2262 C 0.84082 0.26962 0.83879 0.0
C2263 C 0.84485 0.27949 0.82436 0.0
C2264 C 0.8308 0.2815 0.81202 0.0
C2265 C 0.85623 0.26735 0.85136 0.0
C2266 C 0.86783 0.28274 0.86211 0.0
C2267 C 0.8604 0.25055 0.85182 0.0
C2268 C 0.84889 0.23389 0.84053 0.0
C2269 C 0.84639 0.23264 0.82147 0.0
C2270 C 0.8355 0.21686 0.81091 0.0
C2271 C 0.82716 0.20218 0.81925 0.0
C2272 C 0.82973 0.20326 0.83817 0.0
C2273 C 0.84059 0.21903 0.8488 0.0
H2274 H 0.81875 0.18996 0.81105 0.0
H2275 H 0.92618 0.34263 0.91288 0.0
H2276 H 0.52323 0.23473 0.57524 0.0
H2277 H 0.51723 0.20324 0.5605 0.0
H2278 H 0.57338 0.20398 0.57668 0.0
H2279 H 0.57919 0.23505 0.59181 0.0
H2280 H 0.55901 0.18616 0.53986 0.0
H2281 H 0.54382 0.18712 0.60184 0.0
H2282 H 0.52721 0.19515 0.62716 0.0
H2283 H 0.47586 0.16746 0.59533 0.0
H2284 H 0.49218 0.15954 0.56969 0.0
H2285 H 0.56004 0.09451 0.53565 0.0
H2286 H 0.56322 0.12669 0.54408 0.0
H2287 H 0.5044 0.11668 0.54022 0.0
H2288 H 0.50114 0.08444 0.53231 0.0
H2289 H 0.51786 0.13968 0.56847 0.0
H2290 H 0.53089 0.13671 0.50741 0.0
H2291 H 0.54564 0.1287 0.48064 0.0
H2292 H 0.59807 0.15999 0.50781 0.0
H2293 H 0.58366 0.16798 0.53487 0.0
C2294 C 0.53437 0.22829 0.57521 0.0
C2295 C 0.55174 0.23741 0.58451 0.0
C2296 C 0.53091 0.21026 0.56692 0.0
C2297 C 0.54485 0.20117 0.56752 0.0
C2298 C 0.56242 0.21065 0.57596 0.0
C2299 C 0.56574 0.22844 0.58457 0.0
C2300 C 0.54104 0.1815 0.56054 0.0
C2301 C 0.55009 0.17598 0.54616 0.0
C2302 C 0.529 0.16816 0.56837 0.0
C2303 C 0.51921 0.17297 0.58376 0.0
C2304 C 0.52898 0.18293 0.60017 0.0
C2305 C 0.51962 0.18742 0.61459 0.0
C2306 C 0.50049 0.18189 0.61284 0.0
C2307 C 0.49068 0.1718 0.59666 0.0
C2308 C 0.49998 0.16731 0.58217 0.0
C2309 C 0.54775 0.09911 0.5365 0.0
C2310 C 0.53033 0.08672 0.53323 0.0
C2311 C 0.54958 0.11763 0.54125 0.0
C2312 C 0.53405 0.12437 0.54258 0.0
C2313 C 0.51665 0.112 0.53933 0.0
C2314 C 0.51481 0.09346 0.53475 0.0
C2315 C 0.53597 0.14417 0.54779 0.0
C2316 C 0.52662 0.14977 0.56192 0.0
C2317 C 0.54745 0.15757 0.53946 0.0
C2318 C 0.55621 0.15281 0.52324 0.0
C2319 C 0.54559 0.14177 0.50774 0.0
C2320 C 0.55388 0.13725 0.4925 0.0
C2321 C 0.57279 0.1438 0.49254 0.0
C2322 C 0.58343 0.15491 0.50781 0.0
C2323 C 0.5752 0.15945 0.52309 0.0
H2324 H 0.57919 0.14029 0.48072 0.0
H2325 H 0.49327 0.18537 0.62403 0.0
H2326 H 0.53287 0.76622 0.37841 0.0
H2327 H 0.55941 0.7697 0.36169 0.0
H2328 H 0.59399 0.77051 0.41106 0.0
H2329 H 0.56738 0.76769 0.42808 0.0
H2330 H 0.61154 0.79444 0.39233 0.0
H2331 H 0.57936 0.73233 0.37744 0.0
H2332 H 0.55276 0.70618 0.36731 0.0
H2333 H 0.54643 0.72395 0.31527 0.0
H2334 H 0.57285 0.75035 0.32517 0.0
H2335 H 0.68504 0.78214 0.34214 0.0
H2336 H 0.66069 0.77795 0.36192 0.0
H2337 H 0.62159 0.77966 0.31701 0.0
H2338 H 0.64565 0.78314 0.29703 0.0
H2339 H 0.60774 0.75301 0.33529 0.0
H2340 H 0.63982 0.81615 0.35155 0.0
H2341 H 0.66713 0.84147 0.36207 0.0
H2342 H 0.67459 0.82046 0.41217 0.0
H2343 H 0.64742 0.79488 0.40186 0.0
C2344 C 0.54611 0.76712 0.38576 0.0
C2345 C 0.54797 0.76653 0.40458 0.0
C2346 C 0.56131 0.76903 0.37613 0.0
C2347 C 0.57873 0.76997 0.38497 0.0
C2348 C 0.58071 0.76972 0.40386 0.0
C2349 C 0.56548 0.76805 0.41359 0.0
C2350 C 0.59474 0.77122 0.37438 0.0
C2351 C 0.61079 0.78518 0.38002 0.0
C2352 C 0.59384 0.75931 0.35816 0.0
C2353 C 0.578 0.74339 0.35211 0.0
C2354 C 0.57222 0.73072 0.36388 0.0
C2355 C 0.55719 0.71585 0.35817 0.0
C2356 C 0.54789 0.71342 0.34067 0.0
C2357 C 0.55364 0.72585 0.32882 0.0
C2358 C 0.56865 0.74076 0.33447 0.0
C2359 C 0.67123 0.78145 0.33641 0.0
C2360 C 0.66738 0.78305 0.31794 0.0
C2361 C 0.65734 0.77926 0.34781 0.0
C2362 C 0.63929 0.77872 0.34106 0.0
C2363 C 0.63539 0.78011 0.3226 0.0
C2364 C 0.64923 0.78227 0.3112 0.0
C2365 C 0.62434 0.77643 0.35301 0.0
C2366 C 0.6085 0.76221 0.34765 0.0
C2367 C 0.62555 0.78799 0.36954 0.0
C2368 C 0.6417 0.80351 0.37586 0.0
C2369 C 0.64735 0.81687 0.36477 0.0
C2370 C 0.66279 0.83128 0.3707 0.0
C2371 C 0.67263 0.83254 0.38775 0.0
C2372 C 0.66698 0.81945 0.39895 0.0
C2373 C 0.65154 0.805 0.39308 0.0
H2374 H 0.6846 0.84369 0.39231 0.0
H2375 H 0.53625 0.7019 0.33628 0.0
H2376 H 0.0506 0.23811 0.37955 0.0
H2377 H 0.04637 0.21272 0.39683 0.0
H2378 H 0.00979 0.23482 0.42817 0.0
H2379 H 0.0155 0.26105 0.41198 0.0
H2380 H 0.02742 0.22244 0.44977 0.0
H2381 H 0.99633 0.19551 0.39054 0.0
H2382 H 0.99272 0.18778 0.35716 0.0
H2383 H 0.03566 0.1608 0.36136 0.0
H2384 H 0.03967 0.16855 0.39475 0.0
H2385 H 0.98886 0.14099 0.48426 0.0
H2386 H 0.99268 0.16574 0.46613 0.0
H2387 H 0.04031 0.1526 0.44681 0.0
H2388 H 0.03694 0.12816 0.46535 0.0
H2389 H 0.0165 0.15963 0.41917 0.0
H2390 H 0.04584 0.18718 0.47975 0.0
H2391 H 0.04648 0.19391 0.51298 0.0
H2392 H 0.00218 0.21871 0.50536 0.0
H2393 H 0.00112 0.21191 0.47208 0.0
C2394 C 0.04167 0.23749 0.39015 0.0
C2395 C 0.03332 0.25147 0.3944 0.0
C2396 C 0.03907 0.22285 0.39993 0.0
C2397 C 0.02731 0.22139 0.41359 0.0
C2398 C 0.01893 0.23545 0.41776 0.0
C2399 C 0.02212 0.25044 0.40845 0.0
C2400 C 0.02411 0.20557 0.42387 0.0
C2401 C 0.02471 0.20873 0.44291 0.0
C2402 C 0.02086 0.18751 0.41522 0.0
C2403 C 0.0184 0.18275 0.39514 0.0
C2404 C 0.00507 0.18802 0.38434 0.0
C2405 C 0.00294 0.18362 0.36541 0.0
C2406 C 0.01398 0.17384 0.35714 0.0
C2407 C 0.02713 0.16839 0.36778 0.0
C2408 C 0.02932 0.17276 0.3867 0.0
C2409 C 0.00025 0.14342 0.47628 0.0
C2410 C 0.01262 0.13255 0.47635 0.0
C2411 C 0.00235 0.15754 0.46584 0.0
C2412 C 0.01686 0.16112 0.4552 0.0
C2413 C 0.02898 0.15006 0.45486 0.0
C2414 C 0.02696 0.13601 0.46541 0.0
C2415 C 0.01968 0.17667 0.44479 0.0
C2416 C 0.01907 0.17341 0.42582 0.0
C2417 C 0.02245 0.19457 0.45342 0.0
C2418 C 0.02331 0.19892 0.47343 0.0
C2419 C 0.03617 0.19398 0.48517 0.0
C2420 C 0.03661 0.19781 0.50401 0.0
C2421 C 0.02435 0.2067 0.51128 0.0
C2422 C 0.01166 0.21182 0.49972 0.0
C2423 C 0.01115 0.208 0.48086 0.0
H2424 H 0.02471 0.20965 0.52587 0.0
H2425 H 0.01231 0.17046 0.34249 0.0
H2426 H 0.57984 0.24928 0.1715 0.0
H2427 H 0.61116 0.25182 0.18473 0.0
H2428 H 0.60204 0.28179 0.23391 0.0
H2429 H 0.57042 0.2791 0.22079 0.0
H2430 H 0.63666 0.29672 0.22035 0.0
H2431 H 0.60155 0.24027 0.2354 0.0
H2432 H 0.57944 0.21035 0.22803 0.0
H2433 H 0.6138 0.19321 0.19074 0.0
H2434 H 0.63603 0.22311 0.19774 0.0
H2435 H 0.71873 0.29428 0.27144 0.0
H2436 H 0.68677 0.29211 0.26101 0.0
H2437 H 0.68674 0.24947 0.21817 0.0
H2438 H 0.71846 0.2509 0.22933 0.0
H2439 H 0.65594 0.24131 0.22951 0.0
H2440 H 0.68926 0.29626 0.21088 0.0
H2441 H 0.71137 0.32623 0.21485 0.0
H2442 H 0.6815 0.34601 0.25527 0.0
H2443 H 0.6591 0.31618 0.25142 0.0
C2444 C 0.58446 0.25647 0.18512 0.0
C2445 C 0.57257 0.26396 0.1951 0.0
C2446 C 0.60239 0.25787 0.19268 0.0
C2447 C 0.60895 0.26692 0.21035 0.0
C2448 C 0.59727 0.27475 0.22025 0.0
C2449 C 0.5792 0.27315 0.21276 0.0
C2450 C 0.62789 0.26784 0.21847 0.0
C2451 C 0.64083 0.28465 0.22264 0.0
C2452 C 0.63351 0.25206 0.22092 0.0
C2453 C 0.62038 0.23395 0.21701 0.0
C2454 C 0.60434 0.23014 0.22556 0.0
C2455 C 0.5918 0.21318 0.22147 0.0
C2456 C 0.5952 0.19989 0.2089 0.0
C2457 C 0.61119 0.20351 0.20047 0.0
C2458 C 0.62378 0.22045 0.20452 0.0
C2459 C 0.71189 0.28439 0.25983 0.0
C2460 C 0.72118 0.2728 0.25118 0.0
C2461 C 0.6936 0.28326 0.25374 0.0
C2462 C 0.68427 0.27093 0.23844 0.0
C2463 C 0.6935 0.25915 0.22996 0.0
C2464 C 0.71169 0.25998 0.23634 0.0
C2465 C 0.66496 0.27025 0.23134 0.0
C2466 C 0.65188 0.25346 0.22733 0.0
C2467 C 0.65931 0.28603 0.22867 0.0
C2468 C 0.67258 0.30401 0.23091 0.0
C2469 C 0.68743 0.30701 0.22062 0.0
C2470 C 0.69997 0.32396 0.22282 0.0
C2471 C 0.69778 0.33801 0.23524 0.0
C2472 C 0.68311 0.33512 0.24559 0.0
C2473 C 0.67043 0.31823 0.24333 0.0
H2474 H 0.70741 0.35114 0.2368 0.0
H2475 H 0.58546 0.18678 0.20572 0.0
H2476 H 0.55412 0.87854 0.87006 0.0
H2477 H 0.5522 0.90498 0.89025 0.0
H2478 H 0.53895 0.87227 0.9327 0.0
H2479 H 0.54049 0.84557 0.91237 0.0
H2480 H 0.51674 0.89374 0.93022 0.0
H2481 H 0.58207 0.90243 0.93316 0.0
H2482 H 0.61156 0.9054 0.92071 0.0
H2483 H 0.60418 0.9511 0.8963 0.0
H2484 H 0.57452 0.94824 0.90839 0.0
H2485 H 0.52734 0.96332 0.00328 0.0
H2486 H 0.53071 0.93789 0.98263 0.0
H2487 H 0.54507 0.97258 0.94198 0.0
H2488 H 0.54218 -0.00162 0.9629 0.0
H2489 H 0.56651 0.95055 0.94279 0.0
H2490 H 0.5018 0.94248 0.93933 0.0
H2491 H 0.4721 0.94005 0.9512 0.0
H2492 H 0.47773 0.89374 0.97547 0.0
H2493 H 0.5076 0.89604 0.96395 0.0
C2494 C 0.55094 0.87692 0.88373 0.0
C2495 C 0.54752 0.85984 0.88955 0.0
C2496 C 0.54991 0.89214 0.89532 0.0
C2497 C 0.54564 0.89075 0.91313 0.0
C2498 C 0.54231 0.87375 0.91904 0.0
C2499 C 0.54327 0.85847 0.90741 0.0
C2500 C 0.54408 0.9069 0.92537 0.0
C2501 C 0.52775 0.90606 0.93317 0.0
C2502 C 0.55814 0.92326 0.92878 0.0
C2503 C 0.57599 0.925 0.92153 0.0
C2504 C 0.58667 0.91302 0.92501 0.0
C2505 C 0.60342 0.9147 0.91804 0.0
C2506 C 0.60972 0.9284 0.90768 0.0
C2507 C 0.59928 0.94048 0.9043 0.0
C2508 C 0.5825 0.93884 0.91122 0.0
C2509 C 0.53118 0.96561 0.98994 0.0
C2510 C 0.53434 0.98293 0.98474 0.0
C2511 C 0.53303 0.95097 0.97807 0.0
C2512 C 0.5378 0.95315 0.96055 0.0
C2513 C 0.54128 0.97049 0.95538 0.0
C2514 C 0.53957 0.98523 0.96735 0.0
C2515 C 0.53925 0.93732 0.94777 0.0
C2516 C 0.55551 0.93823 0.93983 0.0
C2517 C 0.52506 0.92106 0.94409 0.0
C2518 C 0.50702 0.91953 0.9509 0.0
C2519 C 0.49676 0.93184 0.9473 0.0
C2520 C 0.47989 0.93049 0.95395 0.0
C2521 C 0.47305 0.91678 0.96412 0.0
C2522 C 0.48305 0.90437 0.96761 0.0
C2523 C 0.49995 0.90568 0.961 0.0
H2524 H 0.45999 0.91575 0.96927 0.0
H2525 H 0.62269 0.92968 0.9023 0.0
H2526 H 0.96039 0.73248 0.72479 0.0
H2527 H 0.9311 0.73537 0.7339 0.0
H2528 H 0.93013 0.77492 0.69784 0.0
H2529 H 0.95936 0.77169 0.6882 0.0
H2530 H 0.92051 0.76122 0.7508 0.0
H2531 H 0.88639 0.77445 0.68361 0.0
H2532 H 0.8871 0.76776 0.65055 0.0
H2533 H 0.90354 0.7196 0.65809 0.0
H2534 H 0.90276 0.72592 0.69116 0.0
H2535 H 0.84185 0.79385 0.76362 0.0
H2536 H 0.87055 0.7896 0.75376 0.0
H2537 H 0.84278 0.73527 0.72923 0.0
H2538 H 0.81392 0.73933 0.73928 0.0
H2539 H 0.86591 0.7551 0.7064 0.0
H2540 H 0.86882 0.74007 0.76688 0.0
H2541 H 0.86735 0.74486 0.79992 0.0
H2542 H 0.91205 0.79255 0.80581 0.0
H2543 H 0.9136 0.78819 0.77274 0.0
C2544 C 0.95399 0.7418 0.71871 0.0
C2545 C 0.96231 0.75181 0.70567 0.0
C2546 C 0.93718 0.74347 0.72401 0.0
C2547 C 0.92816 0.75524 0.7165 0.0
C2548 C 0.93654 0.76547 0.70363 0.0
C2549 C 0.95334 0.76368 0.69818 0.0
C2550 C 0.91013 0.75675 0.72233 0.0
C2551 C 0.90863 0.75991 0.74103 0.0
C2552 C 0.89441 0.75484 0.70972 0.0
C2553 C 0.89467 0.75075 0.68985 0.0
C2554 C 0.89009 0.7624 0.67819 0.0
C2555 C 0.89052 0.75868 0.65946 0.0
C2556 C 0.89541 0.74329 0.65223 0.0
C2557 C 0.89982 0.73155 0.66371 0.0
C2558 C 0.8994 0.7352 0.68245 0.0
C2559 C 0.8418 0.78095 0.75619 0.0
C2560 C 0.82553 0.76691 0.75229 0.0
C2561 C 0.85827 0.77855 0.75057 0.0
C2562 C 0.85886 0.76212 0.74074 0.0
C2563 C 0.84265 0.74808 0.73675 0.0
C2564 C 0.82619 0.75038 0.74262 0.0
C2565 C 0.87646 0.75969 0.73477 0.0
C2566 C 0.87786 0.75643 0.7161 0.0
C2567 C 0.89203 0.76127 0.74739 0.0
C2568 C 0.89121 0.7639 0.7673 0.0
C2569 C 0.87824 0.75167 0.77519 0.0
C2570 C 0.87741 0.75428 0.79393 0.0
C2571 C 0.88957 0.76902 0.80495 0.0
C2572 C 0.90262 0.78115 0.79725 0.0
C2573 C 0.90349 0.7786 0.77851 0.0
H2574 H 0.88891 0.77102 0.81945 0.0
H2575 H 0.89576 0.74045 0.63773 0.0
H2576 H 0.0676 0.04133 0.82593 0.0
H2577 H 0.06112 0.03825 0.85701 0.0
H2578 H 0.10311 0.01011 0.86391 0.0
H2579 H 0.10963 0.01297 0.83262 0.0
H2580 H 0.07247 0.99434 0.87877 0.0
H2581 H 0.11199 0.0535 0.88186 0.0
H2582 H 0.12248 0.08382 0.87313 0.0
H2583 H 0.07289 0.09613 0.88731 0.0
H2584 H 0.06197 0.06577 0.89585 0.0
H2585 H 0.07421 0.04003 0.97986 0.0
H2586 H 0.08626 0.03897 0.95052 0.0
H2587 H 0.03565 0.00116 0.92574 0.0
H2588 H 0.02377 0.00173 0.95507 0.0
H2589 H 0.07504 0.04958 0.92111 0.0
H2590 H 0.04204 0.97547 0.88827 0.0
H2591 H 0.03296 0.94533 0.89771 0.0
H2592 H 0.07306 0.96298 0.94485 0.0
H2593 H 0.08268 0.99316 0.93552 0.0
C2594 C 0.07545 0.03441 0.83398 0.0
C2595 C 0.08924 0.0275 0.82675 0.0
C2596 C 0.07175 0.03272 0.8518 0.0
C2597 C 0.08179 0.02417 0.86289 0.0
C2598 C 0.09522 0.01681 0.85561 0.0
C2599 C 0.09897 0.01851 0.83774 0.0
C2600 C 0.07841 0.02329 0.88215 0.0
C2601 C 0.07309 0.0064 0.88807 0.0
C2602 C 0.07957 0.03904 0.89442 0.0
C2603 C 0.08611 0.05732 0.88936 0.0
C2604 C 0.10327 0.06263 0.88299 0.0
C2605 C 0.1093 0.07983 0.87809 0.0
C2606 C 0.09834 0.09188 0.87963 0.0
C2607 C 0.08135 0.08677 0.88611 0.0
C2608 C 0.07524 0.06958 0.89099 0.0
C2609 C 0.06575 0.03129 0.96822 0.0
C2610 C 0.04802 0.02097 0.96983 0.0
C2611 C 0.07264 0.03072 0.95142 0.0
C2612 C 0.06194 0.01989 0.93587 0.0
C2613 C 0.04436 0.00934 0.93755 0.0
C2614 C 0.03754 0.00975 0.95437 0.0
C2615 C 0.06864 0.02057 0.91771 0.0
C2616 C 0.07456 0.03747 0.91194 0.0
C2617 C 0.06827 0.00483 0.90572 0.0
C2618 C 0.06298 0.98662 0.91125 0.0
C2619 C 0.04903 0.97289 0.90058 0.0
C2620 C 0.04378 0.95581 0.90592 0.0
C2621 C 0.05242 0.95227 0.92189 0.0
C2622 C 0.06639 0.96578 0.93251 0.0
C2623 C 0.07174 0.98288 0.9272 0.0
H2624 H 0.0483 0.93904 0.92603 0.0
H2625 H 0.10304 0.1052 0.87584 0.0
H2626 H 0.78914 0.38708 0.55887 0.0
H2627 H 0.7938 0.36729 0.58114 0.0
H2628 H 0.74325 0.32852 0.55794 0.0
H2629 H 0.73869 0.34804 0.53523 0.0
H2630 H 0.75134 0.34144 0.59996 0.0
H2631 H 0.77262 0.31363 0.54822 0.0
H2632 H 0.78986 0.31361 0.52171 0.0
H2633 H 0.84028 0.33767 0.55655 0.0
H2634 H 0.8233 0.3381 0.58326 0.0
H2635 H 0.77222 0.28584 0.66171 0.0
H2636 H 0.76285 0.29242 0.63157 0.0
H2637 H 0.81612 0.32922 0.63228 0.0
H2638 H 0.82567 0.32232 0.66227 0.0
H2639 H 0.8024 0.31194 0.59825 0.0
H2640 H 0.78164 0.34301 0.64903 0.0
H2641 H 0.76538 0.34423 0.67614 0.0
H2642 H 0.71448 0.31633 0.64372 0.0
H2643 H 0.73057 0.31426 0.6165 0.0
C2644 C 0.77902 0.37435 0.55853 0.0
C2645 C 0.76359 0.36901 0.54538 0.0
C2646 C 0.78172 0.3631 0.57117 0.0
C2647 C 0.76888 0.34654 0.57098 0.0
C2648 C 0.75326 0.34129 0.55813 0.0
C2649 C 0.75074 0.35239 0.54522 0.0
C2650 C 0.77199 0.3349 0.58443 0.0
C2651 C 0.76215 0.33455 0.59945 0.0
C2652 C 0.78636 0.32636 0.58371 0.0
C2653 C 0.79667 0.32603 0.56772 0.0
C2654 C 0.78737 0.31908 0.55022 0.0
C2655 C 0.79709 0.31896 0.53516 0.0
C2656 C 0.81615 0.32567 0.53744 0.0
C2657 C 0.82552 0.33248 0.5548 0.0
C2658 C 0.81585 0.33265 0.56991 0.0
C2659 C 0.78201 0.29505 0.65521 0.0
C2660 C 0.79952 0.30387 0.66428 0.0
C2661 C 0.77668 0.29873 0.63805 0.0
C2662 C 0.78869 0.31155 0.62996 0.0
C2663 C 0.80667 0.3193 0.63838 0.0
C2664 C 0.81209 0.31543 0.65548 0.0
C2665 C 0.78193 0.31864 0.614 0.0
C2666 C 0.7912 0.31832 0.59858 0.0
C2667 C 0.76711 0.32672 0.61445 0.0
C2668 C 0.75736 0.32825 0.63076 0.0
C2669 C 0.76701 0.33696 0.6477 0.0
C2670 C 0.75783 0.33776 0.6631 0.0
C2671 C 0.73892 0.33025 0.66168 0.0
C2672 C 0.72915 0.32197 0.64483 0.0
C2673 C 0.7383 0.32094 0.62942 0.0
H2674 H 0.73183 0.3309 0.67361 0.0
H2675 H 0.82366 0.32556 0.52577 0.0
H2676 H 0.46468 0.03194 0.32709 0.0
H2677 H 0.4765 0.02968 0.35791 0.0
H2678 H 0.42384 0.02933 0.37573 0.0
H2679 H 0.41202 0.03216 0.3449 0.0
H2680 H 0.44938 0.04801 0.40103 0.0
H2681 H 0.43639 0.99023 0.36855 0.0
H2682 H 0.43499 0.96586 0.34363 0.0
H2683 H 0.4936 0.97614 0.35172 0.0
H2684 H 0.4954 0.0008 0.3765 0.0
H2685 H 0.48848 0.01079 0.47882 0.0
H2686 H 0.46769 0.00971 0.45126 0.0
H2687 H 0.51279 0.04114 0.42779 0.0
H2688 H 0.5332 0.04342 0.45579 0.0
H2689 H 0.48425 0.00224 0.40781 0.0
H2690 H 0.49267 0.06451 0.44067 0.0
H2691 H 0.48882 0.08455 0.46741 0.0
H2692 H 0.43092 0.05958 0.45995 0.0
H2693 H 0.43457 0.03889 0.43366 0.0
C2694 C 0.45566 0.03159 0.33759 0.0
C2695 C 0.43739 0.03209 0.33355 0.0
C2696 C 0.46238 0.03015 0.35518 0.0
C2697 C 0.45089 0.02884 0.36899 0.0
C2698 C 0.43288 0.03018 0.36522 0.0
C2699 C 0.42618 0.03184 0.34762 0.0
C2700 C 0.45786 0.02589 0.38723 0.0
C2701 C 0.45677 0.03782 0.40252 0.0
C2702 C 0.46693 0.01219 0.38935 0.0
C2703 C 0.46603 0.99747 0.37433 0.0
C2704 C 0.449 0.98741 0.36492 0.0
C2705 C 0.44813 0.97352 0.35083 0.0
C2706 C 0.4642 0.96948 0.34608 0.0
C2707 C 0.48117 0.9793 0.35541 0.0
C2708 C 0.48212 0.99323 0.3695 0.0
C2709 C 0.4937 0.01804 0.46804 0.0
C2710 C 0.51212 0.02793 0.46967 0.0
C2711 C 0.48196 0.01712 0.45225 0.0
C2712 C 0.48875 0.02566 0.43779 0.0
C2713 C 0.50736 0.0347 0.43901 0.0
C2714 C 0.51897 0.03594 0.45492 0.0
C2715 C 0.47668 0.02503 0.4211 0.0
C2716 C 0.47666 0.01225 0.4062 0.0
C2717 C 0.46595 0.03742 0.41954 0.0
C2718 C 0.46396 0.04991 0.43541 0.0
C2719 C 0.47919 0.06303 0.44496 0.0
C2720 C 0.47703 0.07454 0.46004 0.0
C2721 C 0.45966 0.07323 0.46551 0.0
C2722 C 0.4444 0.06047 0.45586 0.0
C2723 C 0.44652 0.04882 0.4409 0.0
H2724 H 0.458 0.08218 0.47714 0.0
H2725 H 0.4635 0.9587 0.33518 0.0
H2726 H 0.7906 0.70213 0.07908 0.0
H2727 H 0.78996 0.71878 0.10882 0.0
H2728 H 0.75089 0.74416 0.08489 0.0
H2729 H 0.75215 0.7279 0.05478 0.0
H2730 H 0.77453 0.76699 0.11398 0.0
H2731 H 0.73494 0.70723 0.10287 0.0
H2732 H 0.72696 0.67437 0.09316 0.0
H2733 H 0.76694 0.66905 0.13516 0.0
H2734 H 0.77536 0.70192 0.14493 0.0
H2735 H 0.74901 0.78213 0.20593 0.0
H2736 H 0.74715 0.77403 0.17278 0.0
H2737 H 0.78661 0.74319 0.18083 0.0
H2738 H 0.78846 0.75095 0.21347 0.0
H2739 H 0.7568 0.72413 0.15791 0.0
H2740 H 0.79822 0.78452 0.16685 0.0
H2741 H 0.80612 0.81741 0.17632 0.0
H2742 H 0.76165 0.82148 0.13868 0.0
H2743 H 0.75334 0.78855 0.12917 0.0
C2744 C 0.78237 0.71173 0.0801 0.0
C2745 C 0.77147 0.71384 0.06476 0.0
C2746 C 0.7819 0.72115 0.09708 0.0
C2747 C 0.77004 0.73239 0.09915 0.0
C2748 C 0.76009 0.73551 0.0836 0.0
C2749 C 0.76083 0.72628 0.06645 0.0
C2750 C 0.7667 0.73904 0.11772 0.0
C2751 C 0.77036 0.75764 0.12353 0.0
C2752 C 0.76114 0.72685 0.13017 0.0
C2753 C 0.75583 0.70703 0.12457 0.0
C2754 C 0.74208 0.69906 0.10998 0.0
C2755 C 0.73748 0.68043 0.10446 0.0
C2756 C 0.74645 0.66964 0.11352 0.0
C2757 C 0.76 0.67743 0.12815 0.0
C2758 C 0.76467 0.69605 0.1337 0.0
C2759 C 0.7573 0.77366 0.20059 0.0
C2760 C 0.76874 0.76707 0.21241 0.0
C2761 C 0.75627 0.7691 0.18166 0.0
C2762 C 0.76674 0.75797 0.17434 0.0
C2763 C 0.77832 0.75168 0.18615 0.0
C2764 C 0.77932 0.75616 0.20489 0.0
C2765 C 0.76547 0.7521 0.15448 0.0
C2766 C 0.76073 0.73353 0.14834 0.0
C2767 C 0.76993 0.76433 0.14183 0.0
C2768 C 0.77503 0.78408 0.14746 0.0
C2769 C 0.79004 0.79242 0.16071 0.0
C2770 C 0.79461 0.81106 0.16606 0.0
C2771 C 0.78436 0.82152 0.15815 0.0
C2772 C 0.76955 0.81336 0.14482 0.0
C2773 C 0.76492 0.79471 0.13944 0.0
H2774 H 0.78791 0.83596 0.16231 0.0
H2775 H 0.74288 0.65522 0.10922 0.0
H2776 H 0.11529 0.0175 0.70451 0.0
H2777 H 0.10132 0.02103 0.67488 0.0
H2778 H 0.05519 0.03219 0.69946 0.0
H2779 H 0.06879 0.02781 0.72907 0.0
H2780 H 0.04308 0.01296 0.66841 0.0
H2781 H 0.09108 0.06604 0.68816 0.0
H2782 H 0.12244 0.08386 0.70012 0.0
H2783 H 0.14273 0.06294 0.65258 0.0
H2784 H 0.11154 0.04457 0.64055 0.0
H2785 H 0.04377 0.06118 0.58082 0.0
H2786 H 0.05345 0.06232 0.61333 0.0
H2787 H 0.04303 0.00439 0.60592 0.0
H2788 H 0.03319 0.00307 0.57382 0.0
H2789 H 0.08114 0.0522 0.63047 0.0
H2790 H 0.0272 0.98731 0.64055 0.0
H2791 H 0.99484 0.97182 0.62951 0.0
H2792 H 0.98454 0.02225 0.61982 0.0
H2793 H 0.01679 0.03803 0.63089 0.0
C2794 C 0.1021 0.02057 0.70357 0.0
C2795 C 0.09317 0.02246 0.71911 0.0
C2796 C 0.09418 0.02273 0.68664 0.0
C2797 C 0.0774 0.02735 0.68494 0.0
C2798 C 0.06819 0.02873 0.70039 0.0
C2799 C 0.07596 0.02622 0.71731 0.0
C2800 C 0.06959 0.03081 0.66707 0.0
C2801 C 0.05142 0.02162 0.66021 0.0
C2802 C 0.0802 0.04256 0.65647 0.0
C2803 C 0.09895 0.05384 0.6635 0.0
C2804 C 0.10223 0.06515 0.6803 0.0
C2805 C 0.11999 0.07535 0.68709 0.0
C2806 C 0.13457 0.07456 0.6771 0.0
C2807 C 0.13142 0.06355 0.6603 0.0
C2808 C 0.1137 0.05323 0.65349 0.0
C2809 C 0.04342 0.04869 0.58617 0.0
C2810 C 0.03762 0.03204 0.57468 0.0
C2811 C 0.049 0.04937 0.60473 0.0
C2812 C 0.04875 0.03342 0.61213 0.0
C2813 C 0.04301 0.01685 0.60064 0.0
C2814 C 0.03745 0.01615 0.5822 0.0
C2815 C 0.05496 0.03383 0.63168 0.0
C2816 C 0.0728 0.04374 0.63884 0.0
C2817 C 0.0439 0.0232 0.64278 0.0
C2818 C 0.02441 0.01382 0.63649 0.0
C2819 C 0.01799 0.99509 0.63618 0.0
C2820 C -0.00031 0.98626 0.62986 0.0
C2821 C 0.98765 0.99604 0.62395 0.0
C2822 C 0.99388 0.01468 0.62436 0.0
C2823 C 0.01218 0.02357 0.63061 0.0
H2824 H 0.97349 0.98918 0.61906 0.0
H2825 H 0.14831 0.08249 0.68236 0.0
H2826 H 0.73561 0.39155 0.42503 0.0
H2827 H 0.73472 0.36938 0.39841 0.0
H2828 H 0.7627 0.34017 0.4319 0.0
H2829 H 0.76314 0.36171 0.45841 0.0
H2830 H 0.76182 0.36171 0.38286 0.0
H2831 H 0.75149 0.29635 0.41654 0.0
H2832 H 0.73542 0.28313 0.44104 0.0
H2833 H 0.69659 0.31458 0.43457 0.0
H2834 H 0.71226 0.32781 0.40986 0.0
H2835 H 0.79601 0.30259 0.33086 0.0
H2836 H 0.78895 0.31633 0.35957 0.0
H2837 H 0.73142 0.29053 0.34398 0.0
H2838 H 0.73852 0.2762 0.31538 0.0
H2839 H 0.74193 0.29535 0.3819 0.0
H2840 H 0.74616 0.33002 0.33215 0.0
H2841 H 0.76123 0.34231 0.30672 0.0
H2842 H 0.80851 0.37188 0.34373 0.0
H2843 H 0.79377 0.3596 0.36941 0.0
C2844 C 0.74141 0.3803 0.42669 0.0
C2845 C 0.74936 0.37832 0.4438 0.0
C2846 C 0.74087 0.36766 0.41152 0.0
C2847 C 0.74834 0.35297 0.41328 0.0
C2848 C 0.75639 0.3511 0.43032 0.0
C2849 C 0.75674 0.36354 0.44545 0.0
C2850 C 0.74893 0.3402 0.39717 0.0
C2851 C 0.75727 0.34722 0.38261 0.0
C2852 C 0.74287 0.32128 0.39678 0.0
C2853 C 0.73312 0.31314 0.4114 0.0
C2854 C 0.73945 0.30036 0.42026 0.0
C2855 C 0.73042 0.29288 0.4342 0.0
C2856 C 0.71501 0.29804 0.43938 0.0
C2857 C 0.70856 0.31064 0.43058 0.0
C2858 C 0.71752 0.31814 0.41661 0.0
C2859 C 0.78193 0.29943 0.33383 0.0
C2860 C 0.76773 0.28868 0.32093 0.0
C2861 C 0.77793 0.30722 0.35019 0.0
C2862 C 0.75965 0.30473 0.35357 0.0
C2863 C 0.7456 0.2926 0.34149 0.0
C2864 C 0.74965 0.2845 0.3252 0.0
C2865 C 0.75518 0.31697 0.36804 0.0
C2866 C 0.74618 0.30985 0.38218 0.0
C2867 C 0.76028 0.33582 0.36794 0.0
C2868 C 0.76888 0.34387 0.35268 0.0
C2869 C 0.75977 0.33914 0.33486 0.0
C2870 C 0.76826 0.34608 0.32039 0.0
C2871 C 0.78583 0.35785 0.32358 0.0
C2872 C 0.7949 0.36277 0.34128 0.0
C2873 C 0.78647 0.35586 0.3558 0.0
H2874 H 0.79239 0.36316 0.31234 0.0
H2875 H 0.70806 0.29225 0.4502 0.0
H2876 H 0.43261 0.04911 0.23419 0.0
H2877 H 0.44438 0.03733 0.20721 0.0
H2878 H 0.3953 0.99333 0.19522 0.0
H2879 H 0.38313 0.00557 0.22164 0.0
H2880 H 0.45351 0.00768 0.20164 0.0
H2881 H 0.3888 0.97607 0.15019 0.0
H2882 H 0.35842 0.98089 0.14158 0.0
H2883 H 0.37915 0.03732 0.16182 0.0
H2884 H 0.40969 0.03288 0.1703 0.0
H2885 H 0.48507 0.96211 0.12868 0.0
H2886 H 0.46496 0.96607 0.15204 0.0
H2887 H 0.44955 0.00778 0.12551 0.0
H2888 H 0.46882 0.00328 0.10196 0.0
H2889 H 0.42158 0.99042 0.13874 0.0
H2890 H 0.48616 0.01632 0.1615 0.0
H2891 H 0.51802 0.01487 0.16916 0.0
H2892 H 0.49999 0.97641 0.20522 0.0
H2893 H 0.468 0.97749 0.19758 0.0
C2894 C 0.42417 0.03718 0.22551 0.0
C2895 C 0.40697 0.0283 0.22992 0.0
C2896 C 0.43094 0.03038 0.21021 0.0
C2897 C 0.42074 0.01442 0.1992 0.0
C2898 C 0.40329 0.00581 0.20331 0.0
C2899 C 0.39635 0.01283 0.21841 0.0
C2900 C 0.4289 0.00636 0.18411 0.0
C2901 C 0.44649 0.00391 0.18789 0.0
C2902 C 0.41971 0.00122 0.16621 0.0
C2903 C 0.40144 0.00409 0.16109 0.0
C2904 C 0.38687 0.98951 0.15276 0.0
C2905 C 0.36963 0.99218 0.14791 0.0
C2906 C 0.36684 0.00939 0.15123 0.0
C2907 C 0.3813 0.02398 0.15933 0.0
C2908 C 0.39857 0.0214 0.16419 0.0
C2909 C 0.47707 0.97184 0.12776 0.0
C2910 C 0.47845 0.98241 0.11362 0.0
C2911 C 0.46566 0.97414 0.14107 0.0
C2912 C 0.456 0.98745 0.14069 0.0
C2913 C 0.45678 0.99738 0.12607 0.0
C2914 C 0.46783 0.99483 0.11263 0.0
C2915 C 0.44643 0.99243 0.15616 0.0
C2916 C 0.42849 0.99405 0.15254 0.0
C2917 C 0.4555 0.99735 0.17412 0.0
C2918 C 0.47472 0.99683 0.17882 0.0
C2919 C 0.48901 0.0075 0.17099 0.0
C2920 C 0.50707 0.00674 0.17533 0.0
C2921 C 0.51102 0.99551 0.18763 0.0
C2922 C 0.49691 0.98506 0.19566 0.0
C2923 C 0.47882 0.98574 0.19134 0.0
H2924 H 0.52501 0.99494 0.19097 0.0
H2925 H 0.35348 0.01143 0.14747 0.0
H2926 H 0.78698 0.73684 0.96508 0.0
H2927 H 0.79063 0.74801 0.93589 0.0
H2928 H 0.78577 0.69399 0.90973 0.0
H2929 H 0.78271 0.68287 0.93891 0.0
H2930 H 0.81033 0.7164 0.89537 0.0
H2931 H 0.74912 0.71316 0.90812 0.0
H2932 H 0.72471 0.71883 0.92588 0.0
H2933 H 0.74524 0.77581 0.92588 0.0
H2934 H 0.76994 0.77048 0.90832 0.0
H2935 H 0.77473 0.72891 0.80559 0.0
H2936 H 0.77749 0.71916 0.83561 0.0
H2937 H 0.80152 0.7743 0.86007 0.0
H2938 H 0.79927 0.78413 0.83007 0.0
H2939 H 0.7681 0.75189 0.87495 0.0
H2940 H 0.82953 0.7535 0.86108 0.0
H2941 H 0.8515 0.74603 0.84098 0.0
H2942 H 0.82737 0.68959 0.84066 0.0
H2943 H 0.80507 0.6967 0.86065 0.0
C2944 C 0.78688 0.72739 0.95314 0.0
C2945 C 0.78442 0.70896 0.95429 0.0
C2946 C 0.78889 0.73376 0.93644 0.0
C2947 C 0.78815 0.72179 0.92051 0.0
C2948 C 0.78636 0.70349 0.92178 0.0
C2949 C 0.78455 0.69715 0.93849 0.0
C2950 C 0.78843 0.72814 0.90243 0.0
C2951 C 0.80099 0.72405 0.89091 0.0
C2952 C 0.7763 0.73817 0.8965 0.0
C2953 C 0.7615 0.74143 0.90709 0.0
C2954 C 0.74852 0.72691 0.91204 0.0
C2955 C 0.73462 0.73006 0.92205 0.0
C2956 C 0.73346 0.74768 0.92705 0.0
C2957 C 0.74618 0.76217 0.92202 0.0
C2958 C 0.76013 0.7591 0.91204 0.0
C2959 C 0.78078 0.73892 0.81734 0.0
C2960 C 0.78678 0.75727 0.81552 0.0
C2961 C 0.78236 0.73333 0.83444 0.0
C2962 C 0.78965 0.74605 0.84998 0.0
C2963 C 0.79586 0.76433 0.84818 0.0
C2964 C 0.79465 0.76989 0.83105 0.0
C2965 C 0.79007 0.74032 0.8682 0.0
C2966 C 0.77752 0.7444 0.87961 0.0
C2967 C 0.80194 0.73003 0.87385 0.0
C2968 C 0.81556 0.72564 0.86225 0.0
C2969 C 0.82884 0.73949 0.85665 0.0
C2970 C 0.84136 0.73532 0.84531 0.0
C2971 C 0.84079 0.71733 0.83954 0.0
C2972 C 0.82776 0.70349 0.84518 0.0
C2973 C 0.8152 0.70758 0.85654 0.0
H2974 H 0.85047 0.71412 0.83073 0.0
H2975 H 0.72268 0.75009 0.93478 0.0
H2976 H 0.83143 0.10829 0.05829 0.0
H2977 H 0.8564 0.09546 0.0503 0.0
H2978 H 0.86456 0.12725 0.00642 0.0
H2979 H 0.8396 0.14024 0.01434 0.0
H2980 H 0.85475 0.09123 0.99485 0.0
H2981 H 0.90001 0.13191 0.03704 0.0
H2982 H 0.91443 0.15085 0.06603 0.0
H2983 H 0.91006 0.10358 0.09208 0.0
H2984 H 0.89533 0.08432 0.06332 0.0
H2985 H 0.9194 0.03972 0.97204 0.0
H2986 H 0.90382 0.06342 0.9782 0.0
H2987 H 0.8845 0.0406 0.02518 0.0
H2988 H 0.89944 0.01638 0.01874 0.0
H2989 H 0.90535 0.07736 0.03235 0.0
H2990 H 0.85469 0.03799 0.99085 0.0
H2991 H 0.8403 0.01944 0.96162 0.0
H2992 H 0.85583 0.06565 0.93405 0.0
H2993 H 0.87054 0.08444 0.96313 0.0
C2994 C 0.8389 0.11297 0.0473 0.0
C2995 C 0.8333 0.12491 0.03666 0.0
C2996 C 0.85328 0.10576 0.04285 0.0
C2997 C 0.86218 0.11038 0.02772 0.0
C2998 C 0.85779 0.12357 0.01815 0.0
C2999 C 0.84351 0.13093 0.02269 0.0
C3000 C 0.87308 0.09878 0.01994 0.0
C3001 C 0.86621 0.08857 0.00281 0.0
C3002 C 0.88774 0.09517 0.03052 0.0
C3003 C 0.89644 0.10665 0.04799 0.0
C3004 C 0.90195 0.12553 0.04898 0.0
C3005 C 0.91023 0.13634 0.06537 0.0
C3006 C 0.91314 0.12843 0.08089 0.0
C3007 C 0.9078 0.10969 0.08004 0.0
C3008 C 0.89951 0.09881 0.06368 0.0
C3009 C 0.91123 0.0393 0.98325 0.0
C3010 C 0.91072 0.02628 0.99501 0.0
C3011 C 0.90253 0.05297 0.98685 0.0
C3012 C 0.89339 0.05382 0.0023 0.0
C3013 C 0.89179 0.0402 0.01334 0.0
C3014 C 0.90025 0.0264 0.00962 0.0
C3015 C 0.88649 0.06951 0.00769 0.0
C3016 C 0.89418 0.0804 0.02429 0.0
C3017 C 0.87268 0.07384 -0.00341 0.0
C3018 C 0.86391 0.06256 0.97911 0.0
C3019 C 0.8552 0.04415 0.97853 0.0
C3020 C 0.84695 0.03361 0.962 0.0
C3021 C 0.8472 0.04135 0.94598 0.0
C3022 C 0.85567 0.05967 0.94647 0.0
C3023 C 0.86396 0.07027 0.96297 0.0
H3024 H 0.8408 0.03316 0.93319 0.0
H3025 H 0.91956 0.13682 0.09357 0.0
H3026 H 0.33323 0.40019 0.04556 0.0
H3027 H 0.3661 0.41571 0.04988 0.0
H3028 H 0.35813 0.44382 0.00443 0.0
H3029 H 0.32571 0.42847 -7e-05 0.0
H3030 H 0.38756 0.43085 0.00268 0.0
H3031 H 0.36149 0.46411 0.04795 0.0
H3032 H 0.34502 0.46723 0.07471 0.0
H3033 H 0.38512 0.44971 0.10703 0.0
H3034 H 0.40171 0.44627 0.08037 0.0
H3035 H 0.46092 0.51879 0.03566 0.0
H3036 H 0.43096 0.49892 0.03867 0.0
H3037 H 0.45193 0.45243 0.02681 0.0
H3038 H 0.48165 0.47206 0.02344 0.0
H3039 H 0.41722 0.47219 0.05912 0.0
H3040 H 0.41992 0.42095 -0.00205 0.0
H3041 H 0.43575 0.41942 0.97051 0.0
H3042 H 0.44071 0.47568 0.96862 0.0
H3043 H 0.4247 0.47746 0.99589 0.0
C3044 C 0.33854 0.40961 0.03646 0.0
C3045 C 0.32682 0.41311 0.02244 0.0
C3046 C 0.35728 0.4185 0.03899 0.0
C3047 C 0.36451 0.43096 0.02751 0.0
C3048 C 0.35286 0.43423 0.0134 0.0
C3049 C 0.33426 0.42546 0.01091 0.0
C3050 C 0.38413 0.44092 0.02996 0.0
C3051 C 0.39409 0.43972 0.01511 0.0
C3052 C 0.39262 0.45259 0.04612 0.0
C3053 C 0.3827 0.45473 0.06213 0.0
C3054 C 0.36671 0.46079 0.06073 0.0
C3055 C 0.35737 0.46264 0.07588 0.0
C3056 C 0.36398 0.45861 0.09254 0.0
C3057 C 0.37999 0.45278 0.0941 0.0
C3058 C 0.38937 0.45089 0.07898 0.0
C3059 C 0.45918 0.50435 0.03389 0.0
C3060 C 0.4735 0.49698 0.02893 0.0
C3061 C 0.44211 0.49302 0.03571 0.0
C3062 C 0.43919 0.47421 0.0327 0.0
C3063 C 0.45382 0.4669 0.0289 0.0
C3064 C 0.47077 0.47816 0.0269 0.0
C3065 C 0.42047 0.46224 0.03174 0.0
C3066 C 0.41076 0.46304 0.04685 0.0
C3067 C 0.41204 0.45036 0.0157 0.0
C3068 C 0.4213 0.44937 -0.00095 0.0
C3069 C 0.42432 0.43296 0.99162 0.0
C3070 C 0.43334 0.43206 0.97611 0.0
C3071 C 0.43929 0.44746 0.96786 0.0
C3072 C 0.43615 0.46377 0.97506 0.0
C3073 C 0.42712 0.46474 0.99054 0.0
H3074 H 0.44629 0.44673 0.95588 0.0
H3075 H 0.35673 0.46006 0.10426 0.0
H3076 H 0.38302 0.56025 0.78669 0.0
H3077 H 0.36657 0.58366 0.79013 0.0
H3078 H 0.40163 0.61438 0.756 0.0
H3079 H 0.41897 0.59162 0.75379 0.0
H3080 H 0.39526 0.63672 0.77977 0.0
H3081 H 0.35517 0.5859 0.74087 0.0
H3082 H 0.33768 0.55415 0.73172 0.0
H3083 H 0.30718 0.55739 0.77727 0.0
H3084 H 0.32465 0.58909 0.78681 0.0
H3085 H 0.33152 0.68711 0.75442 0.0
H3086 H 0.35147 0.66673 0.75465 0.0
H3087 H 0.3257 0.6434 0.79861 0.0
H3088 H 0.30608 0.66407 0.79891 0.0
H3089 H 0.3273 0.61795 0.7696 0.0
H3090 H 0.36963 0.66916 0.80847 0.0
H3091 H 0.38703 0.70109 0.81596 0.0
H3092 H 0.41178 0.69733 0.76655 0.0
H3093 H 0.39483 0.66522 0.759 0.0
C3094 C 0.38727 0.5721 0.78007 0.0
C3095 C 0.40217 0.57412 0.7699 0.0
C3096 C 0.37777 0.58541 0.78188 0.0
C3097 C 0.38243 0.60061 0.77286 0.0
C3098 C 0.39765 0.6028 0.76305 0.0
C3099 C 0.40753 0.58977 0.76175 0.0
C3100 C 0.37134 0.61406 0.77342 0.0
C3101 C 0.38041 0.63253 0.77729 0.0
C3102 C 0.35191 0.6088 0.7704 0.0
C3103 C 0.34133 0.58979 0.76464 0.0
C3104 C 0.34481 0.57979 0.74898 0.0
C3105 C 0.33489 0.56182 0.74373 0.0
C3106 C 0.32137 0.55375 0.75394 0.0
C3107 C 0.31768 0.56365 0.76939 0.0
C3108 C 0.32757 0.58162 0.77472 0.0
C3109 C 0.33027 0.67787 0.76436 0.0
C3110 C 0.31705 0.67718 0.77657 0.0
C3111 C 0.34169 0.66621 0.76445 0.0
C3112 C 0.34009 0.6536 0.77669 0.0
C3113 C 0.3271 0.653 0.78901 0.0
C3114 C 0.31579 0.66474 0.78905 0.0
C3115 C 0.35125 0.64037 0.77603 0.0
C3116 C 0.34216 0.622 0.77206 0.0
C3117 C 0.3706 0.6457 0.77857 0.0
C3118 C 0.38089 0.66489 0.78312 0.0
C3119 C 0.37875 0.67518 0.79919 0.0
C3120 C 0.38856 0.69328 0.80346 0.0
C3121 C 0.40036 0.7013 0.79165 0.0
C3122 C 0.40259 0.69113 0.77566 0.0
C3123 C 0.393 0.67295 0.77144 0.0
H3124 H 0.40781 0.71537 0.79492 0.0
H3125 H 0.31371 0.53983 0.74985 0.0
H3126 H 0.21866 0.64412 0.50413 0.0
H3127 H 0.18652 0.62791 0.50388 0.0
H3128 H 0.20229 0.57847 0.5077 0.0
H3129 H 0.23437 0.59448 0.50771 0.0
H3130 H 0.17109 0.57279 0.48492 0.0
H3131 H 0.19569 0.60279 0.54536 0.0
H3132 H 0.21129 0.62889 0.56845 0.0
H3133 H 0.16919 0.65514 0.55536 0.0
H3134 H 0.15349 0.62931 0.53199 0.0
H3135 H 0.08964 0.54686 0.54217 0.0
H3136 H 0.12194 0.56103 0.54017 0.0
H3137 H 0.1079 0.56948 0.48513 0.0
H3138 H 0.07583 0.55507 0.48681 0.0
H3139 H 0.13894 0.5943 0.53463 0.0
H3140 H 0.14162 0.56523 0.46013 0.0
H3141 H 0.12632 0.53805 0.43818 0.0
H3142 H 0.1151 0.50731 0.48214 0.0
H3143 H 0.13052 0.53421 0.50431 0.0
C3144 C 0.21524 0.62975 0.50464 0.0
C3145 C 0.22901 0.62059 0.50615 0.0
C3146 C 0.19692 0.62054 0.50456 0.0
C3147 C 0.19215 0.6021 0.5061 0.0
C3148 C 0.20575 0.59273 0.50657 0.0
C3149 C 0.22405 0.60191 0.50661 0.0
C3150 C 0.17316 0.59274 0.50824 0.0
C3151 C 0.16402 0.57749 0.49575 0.0
C3152 C 0.16417 0.59872 0.52264 0.0
C3153 C 0.1735 0.61419 0.53681 0.0
C3154 C 0.18983 0.61418 0.54732 0.0
C3155 C 0.19868 0.62892 0.56047 0.0
C3156 C 0.19126 0.64368 0.56334 0.0
C3157 C 0.17494 0.64371 0.5531 0.0
C3158 C 0.16605 0.62902 0.53991 0.0
C3159 C 0.09347 0.55168 0.52963 0.0
C3160 C 0.08023 0.54973 0.51461 0.0
C3161 C 0.11188 0.5598 0.52853 0.0
C3162 C 0.11728 0.56607 0.51243 0.0
C3163 C 0.10405 0.56441 0.49756 0.0
C3164 C 0.08571 0.5562 0.49858 0.0
C3165 C 0.13675 0.5745 0.51114 0.0
C3166 C 0.14599 0.58959 0.52379 0.0
C3167 C 0.14594 0.56818 0.4971 0.0
C3168 C 0.13709 0.55178 0.48386 0.0
C3169 C 0.13598 0.55264 0.46509 0.0
C3170 C 0.12726 0.53729 0.45262 0.0
C3171 C 0.1197 0.52098 0.45877 0.0
C3172 C 0.12091 0.51996 0.4774 0.0
C3173 C 0.12962 0.53526 0.48992 0.0
H3174 H 0.11293 0.50913 0.4491 0.0
H3175 H 0.19814 0.65507 0.57351 0.0
H3176 H 0.66508 0.96107 0.75196 0.0
H3177 H 0.68368 0.94217 0.76319 0.0
H3178 H 0.72738 0.98964 0.78443 0.0
H3179 H 0.70906 0.00862 0.77245 0.0
H3180 H 0.74069 0.96522 0.76801 0.0
H3181 H 0.6991 0.96483 0.8127 0.0
H3182 H 0.66886 0.96143 0.82364 0.0
H3183 H 0.6522 0.90601 0.79893 0.0
H3184 H 0.68225 0.90913 0.78762 0.0
H3185 H 0.78904 0.90889 0.8081 0.0
H3186 H 0.77245 0.93228 0.80729 0.0
H3187 H 0.72498 0.89292 0.77801 0.0
H3188 H 0.7413 0.86958 0.77896 0.0
H3189 H 0.71576 0.91636 0.80372 0.0
H3190 H 0.75447 0.91819 0.7551 0.0
H3191 H 0.78407 0.92094 0.74291 0.0
H3192 H 0.8055 0.97331 0.77453 0.0
H3193 H 0.77607 0.97074 0.78709 0.0
C3194 C 0.67863 0.96747 0.75907 0.0
C3195 C 0.68564 0.98627 0.76141 0.0
C3196 C 0.68919 0.95668 0.76561 0.0
C3197 C 0.70674 0.96454 0.77503 0.0
C3198 C 0.71381 0.98334 0.7773 0.0
C3199 C 0.70336 0.99413 0.77046 0.0
C3200 C 0.71794 0.95301 0.78178 0.0
C3201 C 0.73541 0.95483 0.7762 0.0
C3202 C 0.71091 0.93926 0.7922 0.0
C3203 C 0.69291 0.93725 0.79925 0.0
C3204 C 0.68896 0.95194 0.80953 0.0
C3205 C 0.67185 0.95006 0.8158 0.0
C3206 C 0.65861 0.93352 0.81196 0.0
C3207 C 0.66247 0.91881 0.80189 0.0
C3208 C 0.67955 0.92062 0.79558 0.0
C3209 C 0.77496 0.90521 0.80179 0.0
C3210 C 0.76648 0.88749 0.79344 0.0
C3211 C 0.76556 0.91855 0.8013 0.0
C3212 C 0.74759 0.91428 0.79246 0.0
C3213 C 0.73884 0.89644 0.7849 0.0
C3214 C 0.74823 0.88317 0.78532 0.0
C3215 C 0.73826 0.92847 0.78969 0.0
C3216 C 0.72116 0.92709 0.79595 0.0
C3217 C 0.74557 0.94258 0.77985 0.0
C3218 C 0.76318 0.94419 0.77219 0.0
C3219 C 0.76555 0.93023 0.75955 0.0
C3220 C 0.78228 0.93176 0.75256 0.0
C3221 C 0.79668 0.94726 0.75799 0.0
C3222 C 0.79435 0.96129 0.77037 0.0
C3223 C 0.77765 0.95981 0.77742 0.0
H3224 H 0.80962 0.94843 0.75256 0.0
H3225 H 0.64537 0.9321 0.81681 0.0
H3226 H 0.72813 0.91505 0.54533 0.0
H3227 H 0.70289 0.92883 0.53954 0.0
H3228 H 0.67929 0.88738 0.49395 0.0
H3229 H 0.70435 0.87306 0.50005 0.0
H3230 H 0.69131 0.93411 0.49468 0.0
H3231 H 0.65108 0.88029 0.51121 0.0
H3232 H 0.64316 0.85621 0.53034 0.0
H3233 H 0.64906 0.89593 0.57729 0.0
H3234 H 0.65726 0.92025 0.55844 0.0
H3235 H 0.61965 0.97919 0.48691 0.0
H3236 H 0.63563 0.95532 0.48399 0.0
H3237 H 0.64822 0.96227 0.54235 0.0
H3238 H 0.63167 0.9855 0.54541 0.0
H3239 H 0.63752 0.92756 0.52907 0.0
H3240 H 0.67965 0.98086 0.51459 0.0
H3241 H 0.68966 0.00619 0.49738 0.0
H3242 H 0.68229 0.96899 0.44818 0.0
H3243 H 0.67199 0.94344 0.46509 0.0
C3244 C 0.71743 0.90871 0.53423 0.0
C3245 C 0.71813 0.893 0.52315 0.0
C3246 C 0.70306 0.91658 0.53096 0.0
C3247 C 0.68931 0.90903 0.5164 0.0
C3248 C 0.68977 0.89323 0.50536 0.0
C3249 C 0.70401 0.88509 0.50888 0.0
C3250 C 0.6752 0.91857 0.51248 0.0
C3251 C 0.67919 0.93238 0.5017 0.0
C3252 C 0.65981 0.91655 0.52209 0.0
C3253 C 0.655 0.90204 0.53348 0.0
C3254 C 0.6509 0.88387 0.52565 0.0
C3255 C 0.6463 0.87019 0.53643 0.0
C3256 C 0.64567 0.87453 0.55503 0.0
C3257 C 0.64959 0.89258 0.56289 0.0
C3258 C 0.6542 0.90632 0.55216 0.0
C3259 C 0.62569 0.9755 0.49912 0.0
C3260 C 0.62455 0.98434 0.5164 0.0
C3261 C 0.6349 0.96195 0.49741 0.0
C3262 C 0.64323 0.95714 0.51294 0.0
C3263 C 0.64189 0.96578 0.53018 0.0
C3264 C 0.63264 0.97923 0.5319 0.0
C3265 C 0.65373 0.94339 0.51146 0.0
C3266 C 0.6492 0.92895 0.52143 0.0
C3267 C 0.66874 0.94495 0.50119 0.0
C3268 C 0.67479 0.96029 0.49103 0.0
C3269 C 0.67999 0.97811 0.50007 0.0
C3270 C 0.68575 0.99249 0.49038 0.0
C3271 C 0.68654 0.98921 0.47168 0.0
C3272 C 0.68162 0.97152 0.46265 0.0
C3273 C 0.67582 0.95708 0.47227 0.0
H3274 H 0.69102 0.00037 0.46421 0.0
H3275 H 0.6421 0.86392 0.56335 0.0
H3276 H 0.41704 0.45135 0.7463 0.0
H3277 H 0.39439 0.42308 0.74712 0.0
H3278 H 0.35451 0.45222 0.76024 0.0
H3279 H 0.37736 0.48079 0.75989 0.0
H3280 H 0.35374 0.42656 0.7811 0.0
H3281 H 0.35244 0.42879 0.71718 0.0
H3282 H 0.36543 0.43228 0.68825 0.0
H3283 H 0.38735 0.38672 0.69303 0.0
H3284 H 0.37471 0.3831 0.72212 0.0
H3285 H 0.28261 0.34435 0.76951 0.0
H3286 H 0.30073 0.37453 0.76629 0.0
H3287 H 0.34556 0.35265 0.75228 0.0
H3288 H 0.32748 0.32251 0.75501 0.0
H3289 H 0.3409 0.37586 0.73046 0.0
H3290 H 0.3449 0.37539 0.79543 0.0
H3291 H 0.33245 0.37185 0.82463 0.0
H3292 H 0.30582 0.41396 0.8179 0.0
H3293 H 0.31794 0.4176 0.78854 0.0
C3294 C 0.40344 0.45182 0.74926 0.0
C3295 C 0.39901 0.46838 0.75295 0.0
C3296 C 0.39045 0.43559 0.74964 0.0
C3297 C 0.37264 0.43549 0.75343 0.0
C3298 C 0.36815 0.45198 0.75719 0.0
C3299 C 0.38121 0.46828 0.75695 0.0
C3300 C 0.35896 0.41813 0.75396 0.0
C3301 C 0.35066 0.41558 0.76988 0.0
C3302 C 0.35519 0.40368 0.73947 0.0
C3303 C 0.36273 0.40576 0.72191 0.0
C3304 C 0.36013 0.41959 0.71213 0.0
C3305 C 0.36742 0.42158 0.69569 0.0
C3306 C 0.37724 0.40975 0.68882 0.0
C3307 C 0.37975 0.39588 0.69837 0.0
C3308 C 0.3725 0.39383 0.71482 0.0
C3309 C 0.29633 0.34597 0.76573 0.0
C3310 C 0.3036 0.33101 0.76256 0.0
C3311 C 0.30669 0.36324 0.76396 0.0
C3312 C 0.32459 0.3659 0.75923 0.0
C3313 C 0.33178 0.35095 0.75591 0.0
C3314 C 0.32141 0.3337 0.75753 0.0
C3315 C 0.33598 0.38418 0.75772 0.0
C3316 C 0.34383 0.3869 0.74159 0.0
C3317 C 0.33937 0.39876 0.77203 0.0
C3318 C 0.33215 0.39663 0.78971 0.0
C3319 C 0.33628 0.3838 0.80012 0.0
C3320 C 0.3293 0.38179 0.8167 0.0
C3321 C 0.3183 0.39263 0.82309 0.0
C3322 C 0.31431 0.40555 0.81292 0.0
C3323 C 0.32124 0.4076 0.79632 0.0
H3324 H 0.31291 0.39106 0.83593 0.0
H3325 H 0.38287 0.41132 0.6761 0.0
H3326 H 0.20501 0.57116 0.22448 0.0
H3327 H 0.22482 0.60173 0.22578 0.0
H3328 H 0.1775 0.6231 0.22837 0.0
H3329 H 0.15774 0.59273 0.2258 0.0
H3330 H 0.19786 0.64086 0.2088 0.0
H3331 H 0.20961 0.62102 0.26742 0.0
H3332 H 0.21969 0.60152 0.28785 0.0
H3333 H 0.27269 0.61326 0.26903 0.0
H3334 H 0.26284 0.63269 0.24836 0.0
H3335 H 0.22496 0.72431 0.26472 0.0
H3336 H 0.214 0.69203 0.25394 0.0
H3337 H 0.26644 0.69189 0.23598 0.0
H3338 H 0.2776 0.72432 0.24659 0.0
H3339 H 0.24971 0.66329 0.25817 0.0
H3340 H 0.23715 0.68896 0.2042 0.0
H3341 H 0.22559 0.71054 0.18776 0.0
H3342 H 0.1716 0.68899 0.20188 0.0
H3343 H 0.18291 0.66746 0.21864 0.0
C3344 C 0.19892 0.58244 0.22511 0.0
C3345 C 0.17991 0.57967 0.22509 0.0
C3346 C 0.21022 0.59987 0.22597 0.0
C3347 C 0.20271 0.61476 0.22751 0.0
C3348 C 0.18366 0.61186 0.22711 0.0
C3349 C 0.17235 0.59449 0.2257 0.0
C3350 C 0.21442 0.6335 0.23016 0.0
C3351 C 0.20919 0.64569 0.21961 0.0
C3352 C 0.22959 0.63984 0.2439 0.0
C3353 C 0.23541 0.62805 0.25618 0.0
C3354 C 0.22336 0.61931 0.26755 0.0
C3355 C 0.22904 0.6083 0.27918 0.0
C3356 C 0.2468 0.60609 0.27968 0.0
C3357 C 0.25893 0.61494 0.26859 0.0
C3358 C 0.25331 0.62594 0.25691 0.0
C3359 C 0.23419 0.71745 0.2585 0.0
C3360 C 0.2521 0.72685 0.25642 0.0
C3361 C 0.2279 0.69906 0.25234 0.0
C3362 C 0.23944 0.68978 0.24412 0.0
C3363 C 0.25741 0.69896 0.24226 0.0
C3364 C 0.26367 0.71745 0.24823 0.0
C3365 C 0.23242 0.67044 0.23744 0.0
C3366 C 0.23864 0.65824 0.24711 0.0
C3367 C 0.21785 0.66412 0.22325 0.0
C3368 C 0.2109 0.67665 0.21271 0.0
C3369 C 0.22283 0.68888 0.20385 0.0
C3370 C 0.21632 0.7011 0.19448 0.0
C3371 C 0.19788 0.70115 0.19379 0.0
C3372 C 0.18588 0.68893 0.20241 0.0
C3373 C 0.19233 0.67669 0.21182 0.0
H3374 H 0.19287 0.71065 0.18655 0.0
H3375 H 0.25117 0.59757 0.28871 0.0
H3376 H 0.49754 0.69613 0.42898 0.0
H3377 H 0.49956 0.66826 0.44016 0.0
H3378 H 0.49159 0.69029 0.49378 0.0
H3379 H 0.49084 0.71881 0.48276 0.0
H3380 H 0.51424 0.67307 0.49899 0.0
H3381 H 0.45692 0.65487 0.46122 0.0
H3382 H 0.43533 0.65117 0.43346 0.0
H3383 H 0.46586 0.61996 0.40413 0.0
H3384 H 0.48775 0.62364 0.43166 0.0
H3385 H 0.48235 0.56745 0.49971 0.0
H3386 H 0.47637 0.59514 0.49062 0.0
H3387 H 0.53451 0.62003 0.49666 0.0
H3388 H 0.54053 0.59274 0.50608 0.0
H3389 H 0.48325 0.61315 0.46371 0.0
H3390 H 0.54466 0.66469 0.5093 0.0
H3391 H 0.5622 0.66787 0.5395 0.0
H3392 H 0.51653 0.63176 0.55731 0.0
H3393 H 0.49863 0.62856 0.52733 0.0
C3394 C 0.49607 0.69504 0.44315 0.0
C3395 C 0.49386 0.70977 0.4549 0.0
C3396 C 0.49708 0.6789 0.44956 0.0
C3397 C 0.49527 0.67665 0.46784 0.0
C3398 C 0.493 0.6914 0.47961 0.0
C3399 C 0.49246 0.70776 0.47328 0.0
C3400 C 0.49641 0.65926 0.47473 0.0
C3401 C 0.50738 0.66003 0.49119 0.0
C3402 C 0.4872 0.64194 0.46504 0.0
C3403 C 0.47405 0.63966 0.44847 0.0
C3404 C 0.45909 0.64731 0.44882 0.0
C3405 C 0.44679 0.6452 0.43313 0.0
C3406 C 0.44925 0.63537 0.41703 0.0
C3407 C 0.46399 0.62758 0.4166 0.0
C3408 C 0.47633 0.62966 0.43225 0.0
C3409 C 0.49388 0.57885 0.49922 0.0
C3410 C 0.51195 0.57777 0.50383 0.0
C3411 C 0.49043 0.59473 0.49393 0.0
C3412 C 0.50494 0.60998 0.49316 0.0
C3413 C 0.52297 0.60876 0.4975 0.0
C3414 C 0.52641 0.59299 0.50284 0.0
C3415 C 0.50141 0.62708 0.48763 0.0
C3416 C 0.49002 0.62623 0.47146 0.0
C3417 C 0.50973 0.6443 0.49788 0.0
C3418 C 0.52038 0.64626 0.516 0.0
C3419 C 0.53834 0.65748 0.51968 0.0
C3420 C 0.54835 0.65928 0.53676 0.0
C3421 C 0.54051 0.64998 0.55029 0.0
C3422 C 0.52262 0.6389 0.5468 0.0
C3423 C 0.51255 0.63708 0.52976 0.0
H3424 H 0.54829 0.65138 0.5635 0.0
H3425 H 0.43972 0.63376 0.4049 0.0
H3426 H 0.60011 0.30275 0.6632 0.0
H3427 H 0.62784 0.30102 0.68109 0.0
H3428 H 0.65705 0.30671 0.63416 0.0
H3429 H 0.62887 0.3079 0.61586 0.0
H3430 H 0.66672 0.28212 0.6523 0.0
H3431 H 0.66338 0.34236 0.66957 0.0
H3432 H 0.64877 0.36634 0.6796 0.0
H3433 H 0.63941 0.34456 0.72935 0.0
H3434 H 0.65374 0.3203 0.7195 0.0
H3435 H 0.75022 0.29284 0.71192 0.0
H3436 H 0.72718 0.29831 0.68965 0.0
H3437 H 0.68866 0.2933 0.72916 0.0
H3438 H 0.71157 0.2883 0.75148 0.0
H3439 H 0.68699 0.3207 0.71214 0.0
H3440 H 0.68802 0.25899 0.69346 0.0
H3441 H 0.70319 0.2354 0.68369 0.0
H3442 H 0.71736 0.26033 0.63657 0.0
H3443 H 0.70247 0.28421 0.64621 0.0
C3444 C 0.61241 0.30373 0.65661 0.0
C3445 C 0.61223 0.30564 0.63807 0.0
C3446 C 0.62836 0.3028 0.66694 0.0
C3447 C 0.64478 0.30411 0.65917 0.0
C3448 C 0.64464 0.30578 0.64056 0.0
C3449 C 0.62854 0.30654 0.63011 0.0
C3450 C 0.66186 0.30362 0.67064 0.0
C3451 C 0.67134 0.2908 0.66523 0.0
C3452 C 0.66795 0.31477 0.68765 0.0
C3453 C 0.65953 0.32946 0.69374 0.0
C3454 C 0.65812 0.34263 0.6826 0.0
C3455 C 0.64989 0.35627 0.68826 0.0
C3456 C 0.64314 0.35695 0.70509 0.0
C3457 C 0.64465 0.34401 0.71632 0.0
C3458 C 0.65284 0.33033 0.71072 0.0
C3459 C 0.73685 0.2929 0.71588 0.0
C3460 C 0.73283 0.29006 0.73358 0.0
C3461 C 0.72363 0.29598 0.70308 0.0
C3462 C 0.70601 0.29604 0.70758 0.0
C3463 C 0.7021 0.29337 0.72527 0.0
C3464 C 0.71528 0.29045 0.73807 0.0
C3465 C 0.69146 0.29881 0.69411 0.0
C3466 C 0.6825 0.31214 0.69913 0.0
C3467 C 0.68592 0.28816 0.67677 0.0
C3468 C 0.69439 0.27354 0.67071 0.0
C3469 C 0.69447 0.25949 0.68107 0.0
C3470 C 0.70298 0.24605 0.67554 0.0
C3471 C 0.71126 0.24637 0.65953 0.0
C3472 C 0.71098 0.26011 0.64899 0.0
C3473 C 0.70251 0.27361 0.65449 0.0
H3474 H 0.71786 0.23595 0.65529 0.0
H3475 H 0.63677 0.36752 0.70944 0.0
H3476 H 0.98739 0.31455 0.97346 0.0
H3477 H 0.98807 0.34451 0.98947 0.0
H3478 H 0.03298 0.36884 0.96124 0.0
H3479 H 0.0324 0.33931 0.94546 0.0
H3480 H 0.03851 0.38395 -0.00372 0.0
H3481 H 0.98743 0.36748 0.94755 0.0
H3482 H 0.95774 0.34837 0.93205 0.0
H3483 H 0.93229 0.35775 0.98015 0.0
H3484 H 0.96192 0.37665 -0.00396 0.0
H3485 H 0.041 0.47548 -0.00115 0.0
H3486 H 0.039 0.44359 0.99157 0.0
H3487 H 0.98852 0.43032 0.01554 0.0
H3488 H 0.99013 0.46248 0.02238 0.0
H3489 H 0.98415 0.40799 0.98707 0.0
H3490 H 0.03182 0.42405 0.03613 0.0
H3491 H 0.06076 0.43927 0.05573 0.0
H3492 H 0.09148 0.42912 0.01191 0.0
H3493 H 0.06279 0.41359 0.99207 0.0
C3494 C 0.99763 0.32626 0.97098 0.0
C3495 C 0.00983 0.32445 0.95813 0.0
C3496 C 0.99789 0.34343 0.97999 0.0
C3497 C 0.01043 0.35911 0.97642 0.0
C3498 C 0.02312 0.35711 0.96426 0.0
C3499 C 0.02276 0.34011 0.9552 0.0
C3500 C 0.01033 0.37775 0.98471 0.0
C3501 C 0.02665 0.38925 0.99414 0.0
C3502 C 0.99469 0.38458 0.98268 0.0
C3503 C 0.97691 0.37331 0.97303 0.0
C3504 C 0.97553 0.36535 0.95486 0.0
C3505 C 0.95871 0.35457 0.946 0.0
C3506 C 0.94314 0.35183 0.95512 0.0
C3507 C 0.94436 0.35987 0.97311 0.0
C3508 C 0.96116 0.3706 0.98205 0.0
C3509 C 0.02945 0.46588 0.00271 0.0
C3510 C 0.01571 0.47179 0.01126 0.0
C3511 C 0.02842 0.44747 -0.00135 0.0
C3512 C 0.0138 0.43425 0.00326 0.0
C3513 C 2e-05 0.44008 0.01181 0.0
C3514 C 0.00096 0.45857 0.01575 0.0
C3515 C 0.01257 0.41447 -0.00167 0.0
C3516 C 0.99602 0.40275 0.98945 0.0
C3517 C 0.02791 0.40729 0.00123 0.0
C3518 C 0.04513 0.41779 0.01258 0.0
C3519 C 0.04473 0.42528 0.03059 0.0
C3520 C 0.06108 0.43388 0.04176 0.0
C3521 C 0.07789 0.43519 0.03506 0.0
C3522 C 0.07843 0.42805 0.01709 0.0
C3523 C 0.06214 0.41929 0.00589 0.0
H3524 H 0.0905 0.44159 0.04387 0.0
H3525 H 0.93012 0.34353 0.94827 0.0
H3526 H 0.01723 0.77698 0.17148 0.0
H3527 H 0.98796 0.7738 0.18321 0.0
H3528 H 0.96507 0.78796 0.13373 0.0
H3529 H 0.99487 0.79163 0.12189 0.0
H3530 H 0.95318 0.80357 0.16275 0.0
H3531 H 0.95443 0.74407 0.14145 0.0
H3532 H 0.96717 0.71774 0.13693 0.0
H3533 H 0.97121 0.71551 0.19435 0.0
H3534 H 0.95877 0.74201 0.19926 0.0
H3535 H 0.86553 0.77447 0.19673 0.0
H3536 H 0.89006 0.77698 0.17713 0.0
H3537 H 0.92643 0.76875 0.22116 0.0
H3538 H 0.90224 0.76658 0.24089 0.0
H3539 H 0.92767 0.74795 0.18912 0.0
H3540 H 0.92922 0.8106 0.20935 0.0
H3541 H 0.91542 0.83633 0.21239 0.0
H3542 H 0.90407 0.83099 0.15429 0.0
H3543 H 0.91759 0.80507 0.15094 0.0
C3544 C 0.00604 0.77944 0.16298 0.0
C3545 C 0.00842 0.78439 0.14561 0.0
C3546 C 0.98921 0.77753 0.16973 0.0
C3547 C 0.97411 0.78019 0.15922 0.0
C3548 C 0.97647 0.78567 0.14205 0.0
C3549 C 0.9935 0.78776 0.13529 0.0
C3550 C 0.95605 0.77718 0.1665 0.0
C3551 C 0.9474 0.79125 0.16817 0.0
C3552 C 0.94839 0.76113 0.1736 0.0
C3553 C 0.95575 0.74509 0.17073 0.0
C3554 C 0.95814 0.73803 0.15313 0.0
C3555 C 0.9653 0.72307 0.15049 0.0
C3556 C 0.97002 0.71497 0.16534 0.0
C3557 C 0.96755 0.7218 0.18286 0.0
C3558 C 0.96042 0.73678 0.18557 0.0
C3559 C 0.8788 0.77338 0.20232 0.0
C3560 C 0.88182 0.77027 0.22045 0.0
C3561 C 0.8928 0.77475 0.19105 0.0
C3562 C 0.91013 0.7731 0.19767 0.0
C3563 C 0.91315 0.76995 0.21569 0.0
C3564 C 0.89923 0.76863 0.22695 0.0
C3565 C 0.92527 0.77459 0.18601 0.0
C3566 C 0.93331 0.76016 0.18346 0.0
C3567 C 0.93214 0.79016 0.17786 0.0
C3568 C 0.92422 0.80582 0.17991 0.0
C3569 C 0.92366 0.81485 0.19724 0.0
C3570 C 0.91591 0.82947 0.19901 0.0
C3571 C 0.90882 0.83526 0.18354 0.0
C3572 C 0.90953 0.82647 0.16626 0.0
C3573 C 0.91724 0.81183 0.16441 0.0
H3574 H 0.90283 0.84658 0.18495 0.0
H3575 H 0.97556 0.70339 0.16328 0.0
H3576 H 0.51406 0.28539 0.11143 0.0
H3577 H 0.51681 0.31067 0.09401 0.0
H3578 H 0.52707 0.34778 0.14394 0.0
H3579 H 0.52393 0.32257 0.1614 0.0
H3580 H 0.50469 0.35715 0.12048 0.0
H3581 H 0.562 0.34228 0.11841 0.0
H3582 H 0.58252 0.32255 0.11282 0.0
H3583 H 0.56091 0.31073 0.0563 0.0
H3584 H 0.54007 0.33021 0.06161 0.0
H3585 H 0.53906 0.43724 0.08218 0.0
H3586 H 0.53581 0.41208 0.09973 0.0
H3587 H 0.52398 0.37459 0.04998 0.0
H3588 H 0.52726 0.39969 0.03234 0.0
H3589 H 0.54729 0.36561 0.07356 0.0
H3590 H 0.48991 0.3813 0.07641 0.0
H3591 H 0.47039 0.40189 0.08276 0.0
H3592 H 0.49343 0.41315 0.13887 0.0
H3593 H 0.51327 0.3928 0.1328 0.0
C3594 C 0.51687 0.29893 0.1187 0.0
C3595 C 0.51883 0.30194 0.13782 0.0
C3596 C 0.51854 0.3134 0.10872 0.0
C3597 C 0.52242 0.33122 0.11764 0.0
C3598 C 0.5241 0.3342 0.13672 0.0
C3599 C 0.52235 0.31975 0.1467 0.0
C3600 C 0.5247 0.34674 0.10712 0.0
C3601 C 0.51418 0.3591 0.11038 0.0
C3602 C 0.53685 0.34923 0.0937 0.0
C3603 C 0.54935 0.33753 0.09045 0.0
C3604 C 0.56153 0.33535 0.10482 0.0
C3605 C 0.57323 0.32424 0.1017 0.0
C3606 C 0.57298 0.31535 0.08423 0.0
C3607 C 0.56107 0.3176 0.06983 0.0
C3608 C 0.54932 0.32868 0.07289 0.0
C3609 C 0.53558 0.42363 0.07495 0.0
C3610 C 0.53335 0.42051 0.05581 0.0
C3611 C 0.53374 0.40923 0.08503 0.0
C3612 C 0.52941 0.39137 0.07621 0.0
C3613 C 0.52733 0.38823 0.05712 0.0
C3614 C 0.52925 0.40262 0.04704 0.0
C3615 C 0.52721 0.37595 0.08685 0.0
C3616 C 0.53777 0.36362 0.08362 0.0
C3617 C 0.51522 0.37359 0.10041 0.0
C3618 C 0.50318 0.38567 0.10411 0.0
C3619 C 0.49089 0.38826 0.09008 0.0
C3620 C 0.47976 0.39987 0.09363 0.0
C3621 C 0.4807 0.40886 0.1112 0.0
C3622 C 0.49273 0.4062 0.12527 0.0
C3623 C 0.50391 0.39462 0.12178 0.0
H3624 H 0.47208 0.41785 0.11392 0.0
H3625 H 0.58206 0.30675 0.08184 0.0
H3626 H 0.99033 0.31137 0.30267 0.0
H3627 H 0.95776 0.30752 0.29363 0.0
H3628 H 0.94459 0.2793 0.33925 0.0
H3629 H 0.97731 0.28287 0.3483 0.0
H3630 H 0.92096 0.26332 0.30892 0.0
H3631 H 0.94445 0.32365 0.34069 0.0
H3632 H 0.9656 0.35414 0.34697 0.0
H3633 H 0.94973 0.36392 0.29318 0.0
H3634 H 0.92867 0.3334 0.28649 0.0
H3635 H 0.82895 0.26854 0.30529 0.0
H3636 H 0.86121 0.27108 0.31464 0.0
H3637 H 0.87652 0.30485 0.2734 0.0
H3638 H 0.84417 0.30301 0.26456 0.0
H3639 H 0.89921 0.31785 0.30207 0.0
H3640 H 0.87654 0.25781 0.26957 0.0
H3641 H 0.85598 0.22708 0.26232 0.0
H3642 H 0.87046 0.21649 0.31613 0.0
H3643 H 0.89101 0.24722 0.32376 0.0
C3644 C 0.98055 0.30422 0.31077 0.0
C3645 C 0.98653 0.29753 0.32632 0.0
C3646 C 0.96188 0.30211 0.3056 0.0
C3647 C 0.94867 0.2934 0.31593 0.0
C3648 C 0.95451 0.28614 0.33109 0.0
C3649 C 0.97324 0.2882 0.33626 0.0
C3650 C 0.92886 0.29225 0.31104 0.0
C3651 C 0.91616 0.27526 0.30766 0.0
C3652 C 0.92258 0.30777 0.30896 0.0
C3653 C 0.93509 0.3262 0.31304 0.0
C3654 C 0.94555 0.33227 0.33016 0.0
C3655 C 0.95752 0.34956 0.3338 0.0
C3656 C 0.95904 0.36094 0.32047 0.0
C3657 C 0.94856 0.35508 0.30349 0.0
C3658 C 0.93659 0.3378 0.29977 0.0
C3659 C 0.83918 0.27652 0.29819 0.0
C3660 C 0.83395 0.28551 0.28411 0.0
C3661 C 0.85768 0.27787 0.30348 0.0
C3662 C 0.87144 0.28783 0.29449 0.0
C3663 C 0.86625 0.29702 0.28056 0.0
C3664 C 0.84772 0.29596 0.27549 0.0
C3665 C 0.89121 0.28886 0.29976 0.0
C3666 C 0.90394 0.30586 0.30329 0.0
C3667 C 0.89752 0.27333 0.30184 0.0
C3668 C 0.8852 0.25485 0.29727 0.0
C3669 C 0.87525 0.24896 0.27989 0.0
C3670 C 0.8636 0.23154 0.27571 0.0
C3671 C 0.86187 0.21986 0.28878 0.0
C3672 C 0.8718 0.22556 0.30604 0.0
C3673 C 0.88348 0.24296 0.31029 0.0
H3674 H 0.85291 0.20638 0.28551 0.0
H3675 H 0.96832 0.37432 0.32332 0.0
H3676 H -0.00061 0.67743 0.66519 0.0
H3677 H -0.0006 0.65032 0.6449 0.0
H3678 H 0.01315 0.68219 0.60189 0.0
H3679 H 0.01244 0.70936 0.622 0.0
H3680 H 0.99041 0.65135 0.58795 0.0
H3681 H 0.04612 0.66832 0.62921 0.0
H3682 H 0.06469 0.67635 0.65928 0.0
H3683 H 0.03852 0.62476 0.67361 0.0
H3684 H 0.01962 0.61652 0.6437 0.0
H3685 H 0.02673 0.59048 0.53388 0.0
H3686 H 0.02292 0.61622 0.55382 0.0
H3687 H 0.00575 0.58196 0.59414 0.0
H3688 H 0.00982 0.55603 0.5743 0.0
H3689 H 0.02942 0.61335 0.60962 0.0
H3690 H 0.97456 0.59625 0.56711 0.0
H3691 H 0.95683 0.58871 0.53663 0.0
H3692 H 0.9826 0.64122 0.52415 0.0
H3693 H 0.00068 0.64899 0.55447 0.0
C3694 C 0.00222 0.67867 0.65134 0.0
C3695 C 0.00604 0.6956 0.64526 0.0
C3696 C 0.00235 0.66314 0.63977 0.0
C3697 C 0.00677 0.6642 0.62196 0.0
C3698 C 0.00981 0.68099 0.61559 0.0
C3699 C 0.00938 0.69652 0.6271 0.0
C3700 C 0.00874 0.64796 0.61021 0.0
C3701 C -0.00089 0.64318 0.59264 0.0
C3702 C 0.01983 0.63701 0.61636 0.0
C3703 C 0.03135 0.64186 0.63427 0.0
C3704 C 0.04426 0.65873 0.63881 0.0
C3705 C 0.05485 0.66332 0.65582 0.0
C3706 C 0.05276 0.65109 0.66836 0.0
C3707 C 0.04011 0.63423 0.66389 0.0
C3708 C 0.02947 0.62958 0.64691 0.0
C3709 C 0.02212 0.58833 0.54697 0.0
C3710 C 0.01852 0.5711 0.55241 0.0
C3711 C 0.01987 0.60311 0.55835 0.0
C3712 C 0.01377 0.60103 0.5754 0.0
C3713 C 0.0104 0.58391 0.58102 0.0
C3714 C 0.01271 0.56908 0.56964 0.0
C3715 C 0.01112 0.61679 0.58737 0.0
C3716 C 0.02066 0.62149 0.60498 0.0
C3717 C 8e-05 0.62774 0.58119 0.0
C3718 C 0.98907 0.62315 0.56302 0.0
C3719 C 0.97653 0.60615 0.55783 0.0
C3720 C 0.96641 0.60184 0.54058 0.0
C3721 C 0.96861 0.61446 0.52845 0.0
C3722 C 0.98091 0.63145 0.53356 0.0
C3723 C 0.99108 0.63582 0.55078 0.0
H3724 H 0.96077 0.6111 0.5151 0.0
H3725 H 0.06096 0.65467 0.68152 0.0
H3726 H 0.57991 0.79326 0.81161 0.0
H3727 H 0.60771 0.79079 0.79834 0.0
H3728 H 0.63777 0.80138 0.852 0.0
H3729 H 0.61009 0.80422 0.86532 0.0
H3730 H 0.65782 0.81966 0.8294 0.0
H3731 H 0.6222 0.75786 0.82674 0.0
H3732 H 0.59458 0.73248 0.81804 0.0
H3733 H 0.59783 0.73773 0.76166 0.0
H3734 H 0.62535 0.76329 0.77005 0.0
H3735 H 0.73695 0.79271 0.81026 0.0
H3736 H 0.70848 0.79588 0.82125 0.0
H3737 H 0.68032 0.7791 0.76679 0.0
H3738 H 0.70878 0.77496 0.75587 0.0
H3739 H 0.65867 0.76477 0.78824 0.0
H3740 H 0.69378 0.82525 0.78939 0.0
H3741 H 0.7209 0.85125 0.79665 0.0
H3742 H 0.71804 0.84996 0.85371 0.0
H3743 H 0.69099 0.82375 0.84679 0.0
C3744 C 0.59244 0.79508 0.82061 0.0
C3745 C 0.59269 0.79887 0.83957 0.0
C3746 C 0.60835 0.79358 0.81298 0.0
C3747 C 0.6249 0.79562 0.82413 0.0
C3748 C 0.62524 0.79969 0.84305 0.0
C3749 C 0.60935 0.80127 0.85068 0.0
C3750 C 0.64186 0.79355 0.81616 0.0
C3751 C 0.65804 0.80755 0.82058 0.0
C3752 C 0.64213 0.77806 0.80408 0.0
C3753 C 0.62573 0.76257 0.79903 0.0
C3754 C 0.61696 0.75366 0.81249 0.0
C3755 C 0.60133 0.73924 0.80762 0.0
C3756 C 0.59443 0.73353 0.78931 0.0
C3757 C 0.60318 0.74219 0.77584 0.0
C3758 C 0.6188 0.75663 0.78064 0.0
C3759 C 0.72473 0.78975 0.80056 0.0
C3760 C 0.72523 0.78372 0.78212 0.0
C3761 C 0.70839 0.79169 0.80687 0.0
C3762 C 0.69215 0.78821 0.79485 0.0
C3763 C 0.69258 0.78199 0.77642 0.0
C3764 C 0.7089 0.77967 0.77014 0.0
C3765 C 0.67478 0.79081 0.80164 0.0
C3766 C 0.65849 0.77692 0.797 0.0
C3767 C 0.67434 0.80654 0.8133 0.0
C3768 C 0.69044 0.82245 0.81756 0.0
C3769 C 0.69899 0.83045 0.80349 0.0
C3770 C 0.71435 0.84523 0.80754 0.0
C3771 C 0.72123 0.85225 0.82563 0.0
C3772 C 0.71271 0.84451 0.83971 0.0
C3773 C 0.69734 0.8297 0.83572 0.0
H3774 H 0.73315 0.86369 0.82872 0.0
H3775 H 0.58232 0.72237 0.78557 0.0
H3776 H 0.47639 0.53867 0.71543 0.0
H3777 H 0.48675 0.54002 0.68539 0.0
H3778 H 0.4308 0.53009 0.66105 0.0
H3779 H 0.4203 0.52837 0.69105 0.0
H3780 H 0.44868 0.51001 0.64186 0.0
H3781 H 0.46081 0.57266 0.66723 0.0
H3782 H 0.47396 0.59921 0.69054 0.0
H3783 H 0.52812 0.59355 0.68475 0.0
H3784 H 0.51527 0.56681 0.66157 0.0
H3785 H 0.47179 0.52735 0.55444 0.0
H3786 H 0.45927 0.52854 0.58359 0.0
H3787 H 0.51426 0.5462 0.61183 0.0
H3788 H 0.52664 0.5463 0.58272 0.0
H3789 H 0.49548 0.56295 0.62893 0.0
H3790 H 0.48433 0.49991 0.60508 0.0
H3791 H 0.47189 0.47273 0.58235 0.0
H3792 H 0.41728 0.47782 0.58619 0.0
H3793 H 0.42938 0.50526 0.60865 0.0
C3794 C 0.46628 0.53681 0.7037 0.0
C3795 C 0.44752 0.53347 0.70564 0.0
C3796 C 0.47223 0.53766 0.68653 0.0
C3797 C 0.45957 0.53539 0.67096 0.0
C3798 C 0.44082 0.53192 0.67286 0.0
C3799 C 0.43484 0.53099 0.69002 0.0
C3800 C 0.46587 0.53642 0.65269 0.0
C3801 C 0.45874 0.52168 0.63893 0.0
C3802 C 0.47932 0.55145 0.649 0.0
C3803 C 0.48706 0.56766 0.66276 0.0
C3804 C 0.47552 0.57702 0.67101 0.0
C3805 C 0.48292 0.59211 0.68419 0.0
C3806 C 0.50186 0.59805 0.68915 0.0
C3807 C 0.51345 0.58893 0.6809 0.0
C3808 C 0.50612 0.57383 0.66773 0.0
C3809 C 0.48113 0.53164 0.56691 0.0
C3810 C 0.50015 0.53672 0.56637 0.0
C3811 C 0.474 0.53216 0.5836 0.0
C3812 C 0.48579 0.53701 0.60007 0.0
C3813 C 0.50481 0.54239 0.59942 0.0
C3814 C 0.5119 0.54244 0.58276 0.0
C3815 C 0.47851 0.53639 0.61801 0.0
C3816 C 0.48541 0.55124 0.63176 0.0
C3817 C 0.46504 0.52133 0.62177 0.0
C3818 C 0.45777 0.50473 0.60842 0.0
C3819 C 0.46968 0.49529 0.601 0.0
C3820 C 0.4627 0.47983 0.58818 0.0
C3821 C 0.44384 0.47355 0.58284 0.0
C3822 C 0.43189 0.48271 0.59033 0.0
C3823 C 0.4388 0.49821 0.60309 0.0
H3824 H 0.43847 0.46158 0.57292 0.0
H3825 H 0.50756 0.60973 0.69936 0.0
H3826 H 0.78041 0.16736 0.96231 0.0
H3827 H 0.77677 0.18825 0.9413 0.0
H3828 H 0.80939 0.23279 0.98048 0.0
H3829 H 0.81203 0.21183 0.0021 0.0
H3830 H 0.77997 0.24 0.97063 0.0
H3831 H 0.8227 0.21989 0.93656 0.0
H3832 H 0.83756 0.19847 0.921 0.0
H3833 H 0.7884 0.17517 0.88409 0.0
H3834 H 0.77315 0.19624 0.89957 0.0
H3835 H 0.76118 0.29315 0.89957 0.0
H3836 H 0.77558 0.28023 0.92357 0.0
H3837 H 0.74043 0.22752 0.90225 0.0
H3838 H 0.72643 0.24003 0.87814 0.0
H3839 H 0.77814 0.23012 0.90357 0.0
H3840 H 0.73483 0.24765 0.94195 0.0
H3841 H 0.72074 0.26976 0.9575 0.0
H3842 H 0.77327 0.29911 0.98598 0.0
H3843 H 0.78771 0.27728 0.97041 0.0
C3844 C 0.78726 0.18154 0.96625 0.0
C3845 C 0.79637 0.18806 0.98383 0.0
C3846 C 0.7853 0.19351 0.95415 0.0
C3847 C 0.79296 0.21213 0.95921 0.0
C3848 C 0.80333 0.21849 0.9763 0.0
C3849 C 0.80488 0.20654 0.9886 0.0
C3850 C 0.78774 0.22488 0.9478 0.0
C3851 C 0.78008 0.23813 0.956 0.0
C3852 C 0.78764 0.22239 0.92869 0.0
C3853 C 0.79677 0.20965 0.91929 0.0
C3854 C 0.81502 0.21013 0.9252 0.0
C3855 C 0.82352 0.19805 0.91637 0.0
C3856 C 0.81393 0.18546 0.90157 0.0
C3857 C 0.79582 0.18494 0.89554 0.0
C3858 C 0.78726 0.19697 0.90432 0.0
C3859 C 0.75624 0.27888 0.9003 0.0
C3860 C 0.7428 0.2676 0.88685 0.0
C3861 C 0.76445 0.27156 0.91399 0.0
C3862 C 0.75918 0.25294 0.9144 0.0
C3863 C 0.74472 0.24193 0.90199 0.0
C3864 C 0.73656 0.24919 0.88835 0.0
C3865 C 0.7698 0.24443 0.92642 0.0
C3866 C 0.77854 0.23215 0.91826 0.0
C3867 C 0.77107 0.24793 0.94552 0.0
C3868 C 0.76237 0.261 0.95484 0.0
C3869 C 0.74339 0.25892 0.95139 0.0
C3870 C 0.73534 0.27138 0.96024 0.0
C3871 C 0.74611 0.28587 0.97267 0.0
C3872 C 0.76495 0.2879 0.97632 0.0
C3873 C 0.77307 0.2755 0.9675 0.0
H3874 H 0.73985 0.2955 0.97951 0.0
H3875 H 0.82054 0.17613 0.89476 0.0
H3876 H 0.15424 0.51643 0.17085 0.0
H3877 H 0.13641 0.52016 0.14327 0.0
H3878 H 0.08649 0.49335 0.16301 0.0
H3879 H 0.10415 0.48977 0.1907 0.0
H3880 H 0.08754 0.48486 0.12424 0.0
H3881 H 0.09964 0.5362 0.17299 0.0
H3882 H 0.12042 0.56069 0.19488 0.0
H3883 H 0.14673 0.58327 0.15111 0.0
H3884 H 0.12621 0.55876 0.12896 0.0
H3885 H 0.01527 0.51094 0.08453 0.0
H3886 H 0.03809 0.50816 0.10852 0.0
H3887 H 0.0803 0.54512 0.08636 0.0
H3888 H 0.05707 0.54902 0.0632 0.0
H3889 H 0.08702 0.54879 0.12286 0.0
H3890 H 0.07346 0.50063 0.07362 0.0
H3891 H 0.05214 0.47738 0.0509 0.0
H3892 H 0.0301 0.44921 0.09361 0.0
H3893 H 0.05111 0.47246 0.1166 0.0
C3894 C 0.13952 0.51085 0.16906 0.0
C3895 C 0.13051 0.50294 0.18294 0.0
C3896 C 0.12938 0.51306 0.15336 0.0
C3897 C 0.1102 0.50718 0.1513 0.0
C3898 C 0.10131 0.49795 0.16443 0.0
C3899 C 0.1114 0.49595 0.18022 0.0
C3900 C 0.09916 0.5124 0.13668 0.0
C3901 C 0.08741 0.49881 0.12388 0.0
C3902 C 0.09943 0.53067 0.13605 0.0
C3903 C 0.11155 0.54554 0.14935 0.0
C3904 C 0.10995 0.54631 0.16805 0.0
C3905 C 0.12167 0.5602 0.1805 0.0
C3906 C 0.13496 0.57348 0.17441 0.0
C3907 C 0.13647 0.57295 0.15582 0.0
C3908 C 0.1248 0.55907 0.14331 0.0
C3909 C 0.02935 0.51874 0.08505 0.0
C3910 C 0.03478 0.52943 0.07159 0.0
C3911 C 0.04236 0.51709 0.09864 0.0
C3912 C 0.06095 0.52588 0.0987 0.0
C3913 C 0.06608 0.53792 0.08627 0.0
C3914 C 0.05294 0.53985 0.07288 0.0
C3915 C 0.07503 0.5212 0.11071 0.0
C3916 C 0.08738 0.53487 0.12296 0.0
C3917 C 0.07557 0.50303 0.11063 0.0
C3918 C 0.06381 0.48834 0.09683 0.0
C3919 C 0.06409 0.48947 0.07816 0.0
C3920 C 0.05201 0.47633 0.06524 0.0
C3921 C 0.03968 0.4619 0.07083 0.0
C3922 C 0.03961 0.46044 0.08932 0.0
C3923 C 0.05163 0.47357 0.1023 0.0
H3924 H 0.03026 0.4518 0.06082 0.0
H3925 H 0.14404 0.58421 0.18408 0.0
H3926 H 0.78244 0.87948 0.45599 0.0
H3927 H 0.78473 0.86283 0.42691 0.0
H3928 H 0.7665 0.81262 0.44804 0.0
H3929 H 0.76479 0.82937 0.47761 0.0
H3930 H 0.7922 0.81012 0.42706 0.0
H3931 H 0.73656 0.82795 0.41973 0.0
H3932 H 0.71616 0.84829 0.42092 0.0
H3933 H 0.74754 0.88013 0.38546 0.0
H3934 H 0.76819 0.86004 0.38415 0.0
H3935 H 0.75044 0.77531 0.32732 0.0
H3936 H 0.75065 0.78593 0.35944 0.0
H3937 H 0.80784 0.81389 0.36296 0.0
H3938 H 0.80787 0.80313 0.33069 0.0
H3939 H 0.76106 0.82493 0.37179 0.0
H3940 H 0.82235 0.80748 0.39255 0.0
H3941 H 0.83782 0.78287 0.39029 0.0
H3942 H 0.78815 0.74521 0.39867 0.0
H3943 H 0.7724 0.76961 0.40073 0.0
C3944 C 0.77895 0.86489 0.45451 0.0
C3945 C 0.77323 0.85573 0.46906 0.0
C3946 C 0.78021 0.85537 0.43782 0.0
C3947 C 0.77539 0.83645 0.43511 0.0
C3948 C 0.77021 0.82722 0.44977 0.0
C3949 C 0.76919 0.83679 0.46664 0.0
C3950 C 0.77542 0.82648 0.41683 0.0
C3951 C 0.78537 0.81342 0.41504 0.0
C3952 C 0.76622 0.83036 0.40103 0.0
C3953 C 0.754 0.8426 0.40198 0.0
C3954 C 0.73919 0.83938 0.41231 0.0
C3955 C 0.72756 0.85083 0.41297 0.0
C3956 C 0.73059 0.86552 0.40332 0.0
C3957 C 0.74523 0.86876 0.39295 0.0
C3958 C 0.75687 0.85733 0.39221 0.0
C3959 C 0.7632 0.78344 0.33495 0.0
C3960 C 0.77914 0.78849 0.3264 0.0
C3961 C 0.76328 0.78944 0.35334 0.0
C3962 C 0.77928 0.80054 0.36358 0.0
C3963 C 0.79544 0.80502 0.35535 0.0
C3964 C 0.79541 0.79893 0.3369 0.0
C3965 C 0.77834 0.80922 0.3821 0.0
C3966 C 0.76803 0.82188 0.38389 0.0
C3967 C 0.7868 0.80471 0.39784 0.0
C3968 C 0.79626 0.79023 0.39667 0.0
C3969 C 0.81477 0.79392 0.39383 0.0
C3970 C 0.82356 0.78003 0.39257 0.0
C3971 C 0.81397 0.76248 0.39431 0.0
C3972 C 0.79556 0.75879 0.39729 0.0
C3973 C 0.78669 0.77262 0.39847 0.0
H3974 H 0.82081 0.75175 0.39336 0.0
H3975 H 0.72156 0.87437 0.40384 0.0
H3976 H 0.48807 0.509 0.80657 0.0
H3977 H 0.49852 0.50967 0.83856 0.0
H3978 H 0.4651 0.54524 0.85395 0.0
H3979 H 0.45442 0.54463 0.82183 0.0
H3980 H 0.50051 0.55502 0.87396 0.0
H3981 H 0.44948 0.50271 0.85689 0.0
H3982 H 0.43194 0.47427 0.83805 0.0
H3983 H 0.47608 0.45022 0.84991 0.0
H3984 H 0.49401 0.47863 0.8686 0.0
H3985 H 0.49405 0.54276 0.9654 0.0
H3986 H 0.4872 0.54321 0.93301 0.0
H3987 H 0.52008 0.50617 0.92107 0.0
H3988 H 0.52709 0.50559 0.95374 0.0
H3989 H 0.48651 0.49709 0.89904 0.0
H3990 H 0.53709 0.54854 0.91716 0.0
H3991 H 0.55491 0.57677 0.93613 0.0
H3992 H 0.5124 0.60234 0.92243 0.0
H3993 H 0.49416 0.57414 0.90359 0.0
C3994 C 0.48303 0.51713 0.81669 0.0
C3995 C 0.4703 0.52669 0.81158 0.0
C3996 C 0.489 0.51744 0.835 0.0
C3997 C 0.48244 0.52735 0.84863 0.0
C3998 C 0.4703 0.53748 0.84362 0.0
C3999 C 0.46419 0.53708 0.82526 0.0
C4000 C 0.48773 0.5265 0.86808 0.0
C4001 C 0.49728 0.5424 0.8795 0.0
C4002 C 0.48393 0.50995 0.87518 0.0
C4003 C 0.47316 0.49285 0.86398 0.0
C4004 C 0.45551 0.49141 0.85534 0.0
C4005 C 0.44549 0.47529 0.84472 0.0
C4006 C 0.45291 0.46046 0.84274 0.0
C4007 C 0.47036 0.46172 0.85143 0.0
C4008 C 0.48046 0.47782 0.86205 0.0
C4009 C 0.49982 0.53462 0.95596 0.0
C4010 C 0.51114 0.52412 0.96221 0.0
C4011 C 0.49594 0.53499 0.93741 0.0
C4012 C 0.50327 0.52488 0.92464 0.0
C4013 C 0.51433 0.51411 0.93074 0.0
C4014 C 0.51834 0.51383 0.94939 0.0
C4015 C 0.49921 0.52561 0.90496 0.0
C4016 C 0.48986 0.5097 0.89349 0.0
C4017 C 0.50325 0.54214 0.89782 0.0
C4018 C 0.51419 0.55917 0.90907 0.0
C4019 C 0.53146 0.56013 0.91831 0.0
C4020 C 0.54165 0.57613 0.92902 0.0
C4021 C 0.53479 0.59133 0.9305 0.0
C4022 C 0.5177 0.59055 0.92127 0.0
C4023 C 0.50743 0.57456 0.91056 0.0
H4024 H 0.54275 0.60371 0.93875 0.0
H4025 H 0.44513 0.44799 0.83452 0.0
H4026 H 0.78872 0.16177 0.10373 0.0
H4027 H 0.78854 0.18391 0.12979 0.0
H4028 H 0.76828 0.21648 0.09385 0.0
H4029 H 0.76982 0.19491 0.06765 0.0
H4030 H 0.79141 0.23757 0.11775 0.0
H4031 H 0.74005 0.18934 0.12171 0.0
H4032 H 0.72226 0.15807 0.12222 0.0
H4033 H 0.75656 0.15534 0.1702 0.0
H4034 H 0.77472 0.18649 0.16983 0.0
H4035 H 0.76841 0.28162 0.20359 0.0
H4036 H 0.76703 0.26716 0.1722 0.0
H4037 H 0.80459 0.23735 0.19032 0.0
H4038 H 0.80615 0.25165 0.22147 0.0
H4039 H 0.76703 0.21705 0.17338 0.0
H4040 H 0.81961 0.26639 0.16583 0.0
H4041 H 0.83443 0.2984 0.16471 0.0
H4042 H 0.79256 0.29963 0.12258 0.0
H4043 H 0.77736 0.26768 0.12364 0.0
C4044 C 0.78425 0.17367 0.10147 0.0
C4045 C 0.77924 0.17672 0.08383 0.0
C4046 C 0.78397 0.18623 0.11633 0.0
C4047 C 0.77789 0.20163 0.11383 0.0
C4048 C 0.77294 0.20468 0.09613 0.0
C4049 C 0.7738 0.19239 0.08121 0.0
C4050 C 0.77728 0.21471 0.12973 0.0
C4051 C 0.78575 0.23308 0.12978 0.0
C4052 C 0.7697 0.20899 0.1454 0.0
C4053 C 0.7588 0.19023 0.14567 0.0
C4054 C 0.74387 0.18203 0.1323 0.0
C4055 C 0.73371 0.16433 0.13258 0.0
C4056 C 0.73829 0.15472 0.14622 0.0
C4057 C 0.75302 0.1628 0.15964 0.0
C4058 C 0.76324 0.18048 0.15942 0.0
C4059 C 0.77677 0.27238 0.20076 0.0
C4060 C 0.78712 0.26747 0.21495 0.0
C4061 C 0.77596 0.26417 0.18288 0.0
C4062 C 0.78559 0.25115 0.17915 0.0
C4063 C 0.79702 0.24735 0.19307 0.0
C4064 C 0.79784 0.25548 0.21084 0.0
C4065 C 0.7819 0.23948 0.16153 0.0
C4066 C 0.7724 0.22143 0.16118 0.0
C4067 C 0.78805 0.24559 0.14554 0.0
C4068 C 0.79724 0.26475 0.14498 0.0
C4069 C 0.81346 0.27355 0.15647 0.0
C4070 C 0.82196 0.29166 0.15581 0.0
C4071 C 0.81441 0.30106 0.14363 0.0
C4072 C 0.79838 0.29235 0.13204 0.0
C4073 C 0.78983 0.27425 0.13266 0.0
H4074 H 0.82101 0.31509 0.14313 0.0
H4075 H 0.73041 0.14101 0.14641 0.0
H4076 H 0.14088 0.52431 0.29508 0.0
H4077 H 0.13153 0.52997 0.3254 0.0
H4078 H 0.09919 0.56379 0.30534 0.0
H4079 H 0.10812 0.558 0.275 0.0
H4080 H 0.13055 0.56689 0.34972 0.0
H4081 H 0.06491 0.54507 0.30938 0.0
H4082 H 0.04762 0.52436 0.28226 0.0
H4083 H 0.07082 0.48237 0.29818 0.0
H4084 H 0.08839 0.50296 0.32524 0.0
H4085 H 0.06663 0.58088 0.41206 0.0
H4086 H 0.08481 0.58004 0.38655 0.0
H4087 H 0.07421 0.52229 0.38374 0.0
H4088 H 0.05549 0.52291 0.40855 0.0
H4089 H 0.0667 0.53122 0.35159 0.0
H4090 H 0.1165 0.55008 0.39973 0.0
H4091 H 0.13514 0.56922 0.42698 0.0
H4092 H 0.14557 0.61475 0.39792 0.0
H4093 H 0.1268 0.59594 0.37053 0.0
C4094 C 0.13198 0.53315 0.2972 0.0
C4095 C 0.12499 0.54049 0.28263 0.0
C4096 C 0.1268 0.53647 0.31452 0.0
C4097 C 0.11476 0.54732 0.31748 0.0
C4098 C 0.10853 0.5554 0.30322 0.0
C4099 C 0.11351 0.55194 0.2859 0.0
C4100 C 0.10656 0.54814 0.33459 0.0
C4101 C 0.11658 0.55921 0.35026 0.0
C4102 C 0.08856 0.53784 0.33521 0.0
C4103 C 0.07786 0.52546 0.31921 0.0
C4104 C 0.06625 0.5314 0.30705 0.0
C4105 C 0.05647 0.51972 0.29169 0.0
C4106 C 0.05812 0.50205 0.2885 0.0
C4107 C 0.06957 0.49605 0.30066 0.0
C4108 C 0.07947 0.50772 0.31597 0.0
C4109 C 0.06815 0.56802 0.40594 0.0
C4110 C 0.05958 0.55196 0.41226 0.0
C4111 C 0.07873 0.56759 0.39156 0.0
C4112 C 0.08096 0.55111 0.3834 0.0
C4113 C 0.0727 0.53514 0.38992 0.0
C4114 C 0.06209 0.53554 0.40417 0.0
C4115 C 0.09051 0.55017 0.36705 0.0
C4116 C 0.08069 0.539 0.35133 0.0
C4117 C 0.10878 0.56029 0.36664 0.0
C4118 C 0.12009 0.57163 0.3831 0.0
C4119 C 0.12263 0.56421 0.39918 0.0
C4120 C 0.13325 0.57499 0.41465 0.0
C4121 C 0.14149 0.59319 0.41421 0.0
C4122 C 0.13916 0.60065 0.39826 0.0
C4123 C 0.12855 0.58993 0.38274 0.0
H4124 H 0.14971 0.60151 0.4262 0.0
H4125 H 0.05051 0.49302 0.27662 0.0
H4126 H 0.76221 0.87424 0.59608 0.0
H4127 H 0.76138 0.86228 0.62487 0.0
H4128 H 0.76923 0.8125 0.59856 0.0
H4129 H 0.76926 0.82422 0.56937 0.0
H4130 H 0.74516 0.8054 0.62139 0.0
H4131 H 0.80494 0.84625 0.6258 0.0
H4132 H 0.8272 0.87524 0.62454 0.0
H4133 H 0.80352 0.90121 0.66662 0.0
H4134 H 0.78096 0.87242 0.66796 0.0
H4135 H 0.77221 0.77282 0.70098 0.0
H4136 H 0.77073 0.78448 0.67216 0.0
H4137 H 0.76115 0.83315 0.69914 0.0
H4138 H 0.7632 0.82173 0.72837 0.0
H4139 H 0.78558 0.8409 0.67613 0.0
H4140 H 0.72618 0.79919 0.67204 0.0
H4141 H 0.70463 0.7698 0.67331 0.0
H4142 H 0.72845 0.74495 0.63059 0.0
H4143 H 0.75031 0.77415 0.62922 0.0
C4144 C 0.76377 0.86074 0.5964 0.0
C4145 C 0.76597 0.85022 0.58049 0.0
C4146 C 0.76339 0.85394 0.61292 0.0
C4147 C 0.76569 0.83664 0.61403 0.0
C4148 C 0.76754 0.82594 0.59808 0.0
C4149 C 0.7676 0.83264 0.58142 0.0
C4150 C 0.76608 0.82978 0.63185 0.0
C4151 C 0.75418 0.81306 0.63329 0.0
C4152 C 0.77752 0.83994 0.64755 0.0
C4153 C 0.79117 0.85722 0.64686 0.0
C4154 C 0.80442 0.85817 0.6347 0.0
C4155 C 0.81709 0.87456 0.63398 0.0
C4156 C 0.81675 0.89006 0.64546 0.0
C4157 C 0.80376 0.8892 0.65772 0.0
C4158 C 0.79104 0.87285 0.65848 0.0
C4159 C 0.76965 0.78597 0.70085 0.0
C4160 C 0.76769 0.79631 0.71701 0.0
C4161 C 0.76872 0.79258 0.68428 0.0
C4162 C 0.76546 0.80954 0.68337 0.0
C4163 C 0.76357 0.81997 0.69948 0.0
C4164 C 0.7647 0.81342 0.71617 0.0
C4165 C 0.76466 0.81654 0.66567 0.0
C4166 C 0.77651 0.83328 0.66424 0.0
C4167 C 0.75326 0.80634 0.64997 0.0
C4168 C 0.73996 0.78883 0.65063 0.0
C4169 C 0.72689 0.78744 0.66299 0.0
C4170 C 0.71461 0.77081 0.66372 0.0
C4171 C 0.71519 0.75551 0.65207 0.0
C4172 C 0.72802 0.75681 0.63961 0.0
C4173 C 0.74034 0.7734 0.63884 0.0
H4174 H 0.70568 0.74265 0.65266 0.0
H4175 H 0.82657 0.90274 0.64488 0.0
H4176 H 0.6893 0.40157 0.50596 0.0
H4177 H 0.66525 0.41529 0.516 0.0
H4178 H 0.70659 0.46325 0.54083 0.0
H4179 H 0.7305 0.44985 0.53083 0.0
H4180 H 0.67892 0.45143 0.56279 0.0
H4181 H 0.68676 0.46288 0.50057 0.0
H4182 H 0.68655 0.45388 0.46771 0.0
H4183 H 0.63005 0.42426 0.46365 0.0
H4184 H 0.63003 0.43289 0.49658 0.0
H4185 H 0.65 0.53099 0.56498 0.0
H4186 H 0.66375 0.5054 0.56232 0.0
H4187 H 0.61223 0.47063 0.53541 0.0
H4188 H 0.59874 0.49628 0.53765 0.0
H4189 H 0.63881 0.46881 0.51585 0.0
H4190 H 0.62958 0.46411 0.5773 0.0
H4191 H 0.63015 0.47469 0.60987 0.0
H4192 H 0.68892 0.49235 0.61568 0.0
H4193 H 0.68871 0.48212 0.58308 0.0
C4194 C 0.69319 0.415 0.51365 0.0
C4195 C 0.71169 0.42474 0.51754 0.0
C4196 C 0.6795 0.42275 0.51937 0.0
C4197 C 0.68428 0.44018 0.52917 0.0
C4198 C 0.70273 0.44971 0.5334 0.0
C4199 C 0.71633 0.4421 0.52754 0.0
C4200 C 0.67023 0.44927 0.53417 0.0
C4201 C 0.67002 0.4552 0.55262 0.0
C4202 C 0.65838 0.45364 0.52079 0.0
C4203 C 0.65848 0.44827 0.50107 0.0
C4204 C 0.67436 0.45427 0.49271 0.0
C4205 C 0.67427 0.44928 0.47407 0.0
C4206 C 0.65832 0.43844 0.46362 0.0
C4207 C 0.64242 0.4326 0.47178 0.0
C4208 C 0.64245 0.43753 0.49043 0.0
C4209 C 0.64165 0.51777 0.55885 0.0
C4210 C 0.62353 0.51542 0.55132 0.0
C4211 C 0.64938 0.50318 0.55743 0.0
C4212 C 0.63891 0.48613 0.54876 0.0
C4213 C 0.62049 0.48368 0.54213 0.0
C4214 C 0.61285 0.49826 0.54337 0.0
C4215 C 0.64785 0.47156 0.54455 0.0
C4216 C 0.64714 0.46459 0.52619 0.0
C4217 C 0.65887 0.46629 0.55803 0.0
C4218 C 0.65911 0.47239 0.5777 0.0
C4219 C 0.64262 0.47035 0.58549 0.0
C4220 C 0.64289 0.47628 0.60397 0.0
C4221 C 0.65956 0.4842 0.61483 0.0
C4222 C 0.67602 0.4862 0.60725 0.0
C4223 C 0.67583 0.4803 0.58877 0.0
H4224 H 0.65973 0.48879 0.62914 0.0
H4225 H 0.65826 0.43461 0.44918 0.0
H4226 H 0.22371 0.12686 0.50362 0.0
H4227 H 0.19296 0.10774 0.50373 0.0
H4228 H 0.16999 0.15101 0.49032 0.0
H4229 H 0.20097 0.17053 0.49076 0.0
H4230 H 0.15359 0.13567 0.51627 0.0
H4231 H 0.16815 0.11389 0.45837 0.0
H4232 H 0.18685 0.10248 0.43679 0.0
H4233 H 0.18413 0.05622 0.46418 0.0
H4234 H 0.16562 0.06748 0.48608 0.0
H4235 H 0.06295 0.07935 0.49763 0.0
H4236 H 0.09254 0.09878 0.49353 0.0
H4237 H 0.11967 0.06032 0.51243 0.0
H4238 H 0.09003 0.04062 0.51651 0.0
H4239 H 0.13297 0.07378 0.48198 0.0
H4240 H 0.11954 0.09684 0.5407 0.0
H4241 H 0.10052 0.10839 0.56183 0.0
H4242 H 0.10068 0.15254 0.53184 0.0
H4243 H 0.11951 0.14111 0.51038 0.0
C4244 C 0.21213 0.13231 0.50057 0.0
C4245 C 0.21474 0.15019 0.49711 0.0
C4246 C 0.19454 0.12131 0.50055 0.0
C4247 C 0.17915 0.12783 0.49672 0.0
C4248 C 0.18168 0.14569 0.49323 0.0
C4249 C 0.19936 0.1568 0.49344 0.0
C4250 C 0.16049 0.11611 0.49703 0.0
C4251 C 0.14897 0.12227 0.5085 0.0
C4252 C 0.15458 0.09848 0.48718 0.0
C4253 C 0.1656 0.0916 0.47395 0.0
C4254 C 0.17164 0.10135 0.45986 0.0
C4255 C 0.18219 0.09489 0.44757 0.0
C4256 C 0.18671 0.07865 0.44914 0.0
C4257 C 0.18063 0.0688 0.46298 0.0
C4258 C 0.17009 0.0752 0.47533 0.0
C4259 C 0.07517 0.07493 0.50086 0.0
C4260 C 0.07414 0.05846 0.5075 0.0
C4261 C 0.09208 0.0861 0.49854 0.0
C4262 C 0.10826 0.08106 0.50288 0.0
C4263 C 0.10729 0.06444 0.50905 0.0
C4264 C 0.09036 0.05324 0.51142 0.0
C4265 C 0.12625 0.09332 0.50129 0.0
C4266 C 0.13761 0.08725 0.4896 0.0
C4267 C 0.13196 0.11106 0.51085 0.0
C4268 C 0.12078 0.11802 0.52384 0.0
C4269 C 0.11541 0.10894 0.53854 0.0
C4270 C 0.10468 0.11547 0.55058 0.0
C4271 C 0.09936 0.13116 0.54815 0.0
C4272 C 0.1048 0.14038 0.53369 0.0
C4273 C 0.11551 0.13388 0.52159 0.0
H4274 H 0.09105 0.1362 0.55749 0.0
H4275 H 0.19488 0.07368 0.4396 0.0
H4276 H 0.17849 0.00274 0.77589 0.0
H4277 H 0.19561 0.97985 0.77439 0.0
H4278 H 0.1452 0.93811 0.77097 0.0
H4279 H 0.12796 0.96102 0.77278 0.0
H4280 H 0.1716 0.93132 0.79318 0.0
H4281 H 0.16588 0.94613 0.73311 0.0
H4282 H 0.16775 0.96604 0.70946 0.0
H4283 H 0.226 0.98538 0.724 0.0
H4284 H 0.22444 0.96576 0.74793 0.0
H4285 H 0.21254 0.86064 0.76363 0.0
H4286 H 0.19304 0.88142 0.76582 0.0
H4287 H 0.24069 0.92649 0.76983 0.0
H4288 H 0.26024 0.90581 0.76753 0.0
H4289 H 0.21383 0.93011 0.74619 0.0
H4290 H 0.21854 0.91509 0.80729 0.0
H4291 H 0.21571 0.89428 0.83017 0.0
H4292 H 0.15805 0.87406 0.81242 0.0
H4293 H 0.16059 0.89459 0.78928 0.0
C4294 C 0.17103 0.9887 0.7749 0.0
C4295 C 0.15185 0.98369 0.77435 0.0
C4296 C 0.18083 0.97562 0.77396 0.0
C4297 C 0.17166 0.95723 0.77227 0.0
C4298 C 0.15255 0.95221 0.7722 0.0
C4299 C 0.14273 0.96531 0.77319 0.0
C4300 C 0.18206 0.94333 0.77034 0.0
C4301 C 0.18064 0.93089 0.78275 0.0
C4302 C 0.19399 0.94284 0.75684 0.0
C4303 C 0.19501 0.9546 0.74242 0.0
C4304 C 0.17907 0.95473 0.73136 0.0
C4305 C 0.18008 0.96595 0.71788 0.0
C4306 C 0.19698 0.977 0.71526 0.0
C4307 C 0.21292 0.97683 0.72606 0.0
C4308 C 0.21198 0.96565 0.73958 0.0
C4309 C 0.2189 0.87497 0.7651 0.0
C4310 C 0.23797 0.88151 0.76525 0.0
C4311 C 0.20772 0.88685 0.76638 0.0
C4312 C 0.2154 0.90555 0.76812 0.0
C4313 C 0.23443 0.91212 0.76841 0.0
C4314 C 0.24559 0.90026 0.76704 0.0
C4315 C 0.20368 0.91833 0.76927 0.0
C4316 C 0.20478 0.93052 0.75663 0.0
C4317 C 0.19134 0.91845 0.78244 0.0
C4318 C 0.18979 0.90623 0.79645 0.0
C4319 C 0.20529 0.90611 0.80819 0.0
C4320 C 0.20373 0.89439 0.82122 0.0
C4321 C 0.18672 0.88282 0.82271 0.0
C4322 C 0.17122 0.883 0.81123 0.0
C4323 C 0.1727 0.89469 0.79817 0.0
H4324 H 0.18555 0.87374 0.8328 0.0
H4325 H 0.19773 0.98568 0.70482 0.0
H4326 H 0.32212 0.92902 0.01567 0.0
H4327 H 0.3552 0.94181 0.02014 0.0
H4328 H 0.34879 0.98601 0.99209 0.0
H4329 H 0.31559 0.97309 0.98717 0.0
H4330 H 0.37461 0.97098 0.97967 0.0
H4331 H 0.35928 0.99149 0.03876 0.0
H4332 H 0.34567 0.98761 0.06734 0.0
H4333 H 0.37926 0.95251 0.08032 0.0
H4334 H 0.39289 0.95599 0.0517 0.0
H4335 H 0.46568 0.02446 -0.00052 0.0
H4336 H 0.43238 0.01292 -0.00337 0.0
H4337 H 0.43833 0.97197 0.0297 0.0
H4338 H 0.4716 0.98402 0.0332 0.0
H4339 H 0.41254 0.98532 0.03978 0.0
H4340 H 0.42726 0.96284 0.98212 0.0
H4341 H 0.44098 0.96432 0.95339 0.0
H4342 H 0.40877 -0.00043 0.93725 0.0
H4343 H 0.39502 -0.00151 0.966 0.0
C4344 C 0.3277 0.94155 0.01057 0.0
C4345 C 0.31625 0.95005 0.00104 0.0
C4346 C 0.3466 0.94887 0.01322 0.0
C4347 C 0.35435 0.96494 0.00663 0.0
C4348 C 0.34299 0.9736 -0.00269 0.0
C4349 C 0.32406 0.96621 0.99453 0.0
C4350 C 0.37441 0.97223 0.00864 0.0
C4351 C 0.38292 0.97441 0.99282 0.0
C4352 C 0.38519 0.97594 0.02578 0.0
C4353 C 0.37699 0.9739 0.04301 0.0
C4354 C 0.36366 0.98284 0.04764 0.0
C4355 C 0.35596 0.98073 0.06386 0.0
C4356 C 0.36157 0.96979 0.07562 0.0
C4357 C 0.37491 0.96097 0.07119 0.0
C4358 C 0.38264 0.96302 0.05499 0.0
C4359 C 0.45983 0.01297 0.00609 0.0
C4360 C 0.4711 0.0051 0.01658 0.0
C4361 C 0.44085 0.00634 0.00439 0.0
C4362 C 0.4329 0.9914 0.0127 0.0
C4363 C 0.44419 0.98353 0.02319 0.0
C4364 C 0.46316 0.99041 0.0252 0.0
C4365 C 0.41279 0.98419 0.01078 0.0
C4366 C 0.40427 0.98196 0.02661 0.0
C4367 C 0.40201 0.98006 0.99362 0.0
C4368 C 0.41024 0.98072 0.9763 0.0
C4369 C 0.4232 0.97102 0.9725 0.0
C4370 C 0.43097 0.97176 0.9562 0.0
C4371 C 0.42578 0.98207 0.94352 0.0
C4372 C 0.41279 0.99162 0.9471 0.0
C4373 C 0.40499 0.99093 0.96338 0.0
H4374 H 0.43181 0.98263 0.93091 0.0
H4375 H 0.3556 0.96818 0.08817 0.0
H4376 H 0.83667 0.54856 0.77853 0.0
H4377 H 0.81753 0.56937 0.77574 0.0
H4378 H 0.86178 0.61321 0.80376 0.0
H4379 H 0.88129 0.59246 0.80647 0.0
H4380 H 0.82366 0.61207 0.8128 0.0
H4381 H 0.85985 0.61117 0.76279 0.0
H4382 H 0.8724 0.5962 0.73782 0.0
H4383 H 0.81791 0.57106 0.7114 0.0
H4384 H 0.80502 0.58566 0.7364 0.0
H4385 H 0.79495 0.68473 0.78186 0.0
H4386 H 0.81233 0.66363 0.79001 0.0
H4387 H 0.77495 0.62108 0.75214 0.0
H4388 H 0.75749 0.64228 0.74379 0.0
H4389 H 0.80969 0.62143 0.7489 0.0
H4390 H 0.7733 0.62385 0.79773 0.0
H4391 H 0.76049 0.63844 0.82273 0.0
H4392 H 0.81441 0.65986 0.85182 0.0
H4393 H 0.82765 0.6459 0.82672 0.0
C4394 C 0.84228 0.56255 0.78442 0.0
C4395 C 0.86055 0.56896 0.79253 0.0
C4396 C 0.83131 0.57438 0.78281 0.0
C4397 C 0.8384 0.59274 0.78939 0.0
C4398 C 0.85618 0.59902 0.79862 0.0
C4399 C 0.86727 0.58719 0.8001 0.0
C4400 C 0.82778 0.60548 0.78494 0.0
C4401 C 0.82076 0.61438 0.79891 0.0
C4402 C 0.82377 0.60799 0.76672 0.0
C4403 C 0.83147 0.59934 0.75157 0.0
C4404 C 0.85054 0.60232 0.75174 0.0
C4405 C 0.85772 0.59392 0.73757 0.0
C4406 C 0.84596 0.58264 0.72306 0.0
C4407 C 0.827 0.57978 0.72267 0.0
C4408 C 0.81975 0.58812 0.73683 0.0
C4409 C 0.79027 0.67081 0.77546 0.0
C4410 C 0.77475 0.66503 0.76236 0.0
C4411 C 0.80023 0.6588 0.78011 0.0
C4412 C 0.79473 0.64077 0.77189 0.0
C4413 C 0.77933 0.63496 0.75868 0.0
C4414 C 0.7694 0.64703 0.75393 0.0
C4415 C 0.80539 0.62811 0.77677 0.0
C4416 C 0.8125 0.6192 0.76284 0.0
C4417 C 0.80941 0.62559 0.79504 0.0
C4418 C 0.80149 0.63398 0.81022 0.0
C4419 C 0.78246 0.63185 0.80935 0.0
C4420 C 0.77513 0.64002 0.82354 0.0
C4421 C 0.78665 0.65017 0.8388 0.0
C4422 C 0.80552 0.65209 0.83994 0.0
C4423 C 0.81296 0.64408 0.82571 0.0
H4424 H 0.78094 0.65648 0.84978 0.0
H4425 H 0.85154 0.57615 0.7121 0.0
H4426 H 0.79969 0.62473 0.02352 0.0
H4427 H 0.82689 0.61368 0.02476 0.0
H4428 H 0.85997 0.66641 0.01899 0.0
H4429 H 0.83223 0.67753 0.01696 0.0
H4430 H 0.87129 0.64143 -0.00039 0.0
H4431 H 0.86124 0.65111 0.06076 0.0
H4432 H 0.84405 0.65088 0.08731 0.0
H4433 H 0.82904 0.59299 0.07915 0.0
H4434 H 0.8459 0.59284 0.05238 0.0
H4435 H 0.94264 0.59562 0.02566 0.0
H4436 H 0.92484 0.61803 0.02774 0.0
H4437 H 0.87493 0.57584 0.01172 0.0
H4438 H 0.89247 0.55347 0.00847 0.0
H4439 H 0.87923 0.60313 0.04709 0.0
H4440 H 0.8861 0.59661 0.9814 0.0
H4441 H 0.90566 0.59886 0.9566 0.0
H4442 H 0.93051 0.65468 0.9771 0.0
H4443 H 0.91127 0.65265 0.00219 0.0
C4444 C 0.81273 0.63406 0.02258 0.0
C4445 C 0.81387 0.65208 0.02041 0.0
C4446 C 0.82832 0.62773 0.02339 0.0
C4447 C 0.84558 0.63935 0.02257 0.0
C4448 C 0.84681 0.65728 0.01989 0.0
C4449 C 0.831 0.6636 0.01873 0.0
C4450 C 0.86199 0.63224 0.02423 0.0
C4451 C 0.8733 0.63343 0.01025 0.0
C4452 C 0.86489 0.62203 0.03828 0.0
C4453 C 0.85484 0.62197 0.05451 0.0
C4454 C 0.85421 0.63832 0.06457 0.0
C4455 C 0.84451 0.63826 0.07966 0.0
C4456 C 0.83545 0.62193 0.08491 0.0
C4457 C 0.83608 0.60563 0.07508 0.0
C4458 C 0.84575 0.60561 0.05997 0.0
C4459 C 0.92791 0.5911 0.02219 0.0
C4460 C 0.91901 0.57265 0.01695 0.0
C4461 C 0.9178 0.60393 0.02356 0.0
C4462 C 0.89866 0.59848 0.01997 0.0
C4463 C 0.88974 0.5802 0.01467 0.0
C4464 C 0.8998 0.56743 0.01296 0.0
C4465 C 0.88762 0.6116 0.02202 0.0
C4466 C 0.87745 0.61156 0.03678 0.0
C4467 C 0.88616 0.62321 0.00903 0.0
C4468 C 0.89742 0.62443 0.99377 0.0
C4469 C 0.89585 0.60931 0.9807 0.0
C4470 C 0.90685 0.61055 0.96658 0.0
C4471 C 0.91937 0.62688 0.96531 0.0
C4472 C 0.92084 0.64203 0.97812 0.0
C4473 C 0.90989 0.64084 0.99228 0.0
H4474 H 0.92788 0.62782 0.95437 0.0
H4475 H 0.82794 0.62191 0.09659 0.0
H4476 H 0.12884 0.1031 0.77321 0.0
H4477 H 0.15146 0.13162 0.77336 0.0
H4478 H 0.19509 0.10613 0.78354 0.0
H4479 H 0.17242 0.07731 0.78354 0.0
H4480 H 0.20161 0.14018 0.80407 0.0
H4481 H 0.18447 0.11345 0.7417 0.0
H4482 H 0.16342 0.09919 0.7139 0.0
H4483 H 0.14233 0.14582 0.71457 0.0
H4484 H 0.16302 0.16024 0.74258 0.0
H4485 H 0.26767 0.21625 0.78137 0.0
H4486 H 0.24934 0.18572 0.78321 0.0
H4487 H 0.19994 0.20124 0.7678 0.0
H4488 H 0.21807 0.23145 0.76552 0.0
H4489 H 0.19903 0.17031 0.74907 0.0
H4490 H 0.21373 0.19609 0.81239 0.0
H4491 H 0.23445 0.21091 0.84026 0.0
H4492 H 0.25953 0.16685 0.83808 0.0
H4493 H 0.23912 0.15187 0.81003 0.0
C4494 C 0.14322 0.10348 0.7756 0.0
C4495 C 0.14879 0.08782 0.77821 0.0
C4496 C 0.15615 0.11983 0.77563 0.0
C4497 C 0.17495 0.12092 0.77817 0.0
C4498 C 0.18063 0.10553 0.78148 0.0
C4499 C 0.16766 0.08908 0.78143 0.0
C4500 C 0.18848 0.13808 0.77681 0.0
C4501 C 0.20128 0.14666 0.79195 0.0
C4502 C 0.18783 0.14662 0.76109 0.0
C4503 C 0.17523 0.13788 0.74432 0.0
C4504 C 0.17523 0.1206 0.73602 0.0
C4505 C 0.16337 0.1125 0.7202 0.0
C4506 C 0.15156 0.1216 0.71246 0.0
C4507 C 0.15151 0.13879 0.72057 0.0
C4508 C 0.16329 0.14694 0.73642 0.0
C4509 C 0.2529 0.21314 0.77843 0.0
C4510 C 0.24434 0.22626 0.77322 0.0
C4511 C 0.24243 0.19572 0.77956 0.0
C4512 C 0.22324 0.19121 0.77575 0.0
C4513 C 0.21472 0.20436 0.77071 0.0
C4514 C 0.22514 0.22166 0.76943 0.0
C4515 C 0.21185 0.17273 0.77651 0.0
C4516 C 0.19949 0.16382 0.76118 0.0
C4517 C 0.21284 0.164 0.79209 0.0
C4518 C 0.22504 0.17296 0.809 0.0
C4519 C 0.22376 0.18963 0.81777 0.0
C4520 C 0.23543 0.19805 0.83362 0.0
C4521 C 0.24833 0.18986 0.84091 0.0
C4522 C 0.24955 0.1732 0.8324 0.0
C4523 C 0.23793 0.16473 0.81653 0.0
H4524 H 0.25734 0.1964 0.85318 0.0
H4525 H 0.14248 0.11538 0.70015 0.0
H4526 H 0.38991 0.95649 0.2628 0.0
H4527 H 0.37161 0.92617 0.26506 0.0
H4528 H 0.33507 0.94882 0.29577 0.0
H4529 H 0.35327 0.97916 0.2937 0.0
H4530 H 0.34665 0.92357 0.31214 0.0
H4531 H 0.32168 0.92982 0.25296 0.0
H4532 H 0.32116 0.93525 0.22104 0.0
H4533 H 0.34395 0.89052 0.20781 0.0
H4534 H 0.34498 0.88505 0.23976 0.0
H4535 H 0.27124 0.84558 0.30585 0.0
H4536 H 0.29137 0.87534 0.30399 0.0
H4537 H 0.33002 0.85004 0.27996 0.0
H4538 H 0.31032 0.82029 0.28272 0.0
H4539 H 0.31821 0.87594 0.25995 0.0
H4540 H 0.34273 0.86992 0.31974 0.0
H4541 H 0.34126 0.86404 0.35143 0.0
H4542 H 0.31731 0.90823 0.36298 0.0
H4543 H 0.3184 0.91425 0.33128 0.0
C4544 C 0.37792 0.95503 0.26994 0.0
C4545 C 0.37309 0.97022 0.27816 0.0
C4546 C 0.36745 0.93771 0.27113 0.0
C4547 C 0.35201 0.93534 0.28052 0.0
C4548 C 0.34698 0.95044 0.28848 0.0
C4549 C 0.35738 0.96775 0.28724 0.0
C4550 C 0.34162 0.91713 0.28292 0.0
C4551 C 0.34025 0.91322 0.30072 0.0
C4552 C 0.33371 0.90357 0.26798 0.0
C4553 C 0.33367 0.90719 0.24885 0.0
C4554 C 0.32685 0.92131 0.24332 0.0
C4555 C 0.32641 0.92436 0.2252 0.0
C4556 C 0.33259 0.91328 0.21242 0.0
C4557 C 0.33924 0.89913 0.21774 0.0
C4558 C 0.33977 0.89606 0.23586 0.0
C4559 C 0.28414 0.84644 0.30039 0.0
C4560 C 0.28903 0.83081 0.29372 0.0
C4561 C 0.29557 0.86336 0.29931 0.0
C4562 C 0.31198 0.86474 0.29163 0.0
C4563 C 0.31722 0.84912 0.28565 0.0
C4564 C 0.3059 0.83223 0.28696 0.0
C4565 C 0.32324 0.88251 0.28911 0.0
C4566 C 0.32476 0.88631 0.27131 0.0
C4567 C 0.33117 0.89601 0.30401 0.0
C4568 C 0.33047 0.89241 0.32308 0.0
C4569 C 0.33698 0.87828 0.32898 0.0
C4570 C 0.33626 0.87494 0.34696 0.0
C4571 C 0.32915 0.88571 0.35919 0.0
C4572 C 0.32279 0.89988 0.35348 0.0
C4573 C 0.32348 0.90327 0.33552 0.0
H4574 H 0.32861 0.88311 0.3731 0.0
H4575 H 0.33216 0.91562 0.19838 0.0
H4576 H 0.53857 0.3358 0.55775 0.0
H4577 H 0.53491 0.36322 0.54614 0.0
H4578 H 0.56349 0.39513 0.59644 0.0
H4579 H 0.56611 0.3677 0.60838 0.0
H4580 H 0.53854 0.40884 0.58821 0.0
H4581 H 0.58201 0.39176 0.55157 0.0
H4582 H 0.59406 0.37182 0.53048 0.0
H4583 H 0.54863 0.36722 0.49001 0.0
H4584 H 0.53619 0.38699 0.51094 0.0
H4585 H 0.5548 0.49437 0.55661 0.0
H4586 H 0.55918 0.46652 0.56658 0.0
H4587 H 0.52154 0.4353 0.52083 0.0
H4588 H 0.51716 0.4631 0.5107 0.0
H4589 H 0.55084 0.42145 0.5262 0.0
H4590 H 0.5085 0.43989 0.56398 0.0
H4591 H 0.49832 0.46111 0.58533 0.0
H4592 H 0.54452 0.46444 0.62438 0.0
H4593 H 0.55515 0.4434 0.60313 0.0
C4594 C 0.54412 0.34867 0.5663 0.0
C4595 C 0.55267 0.34945 0.58402 0.0
C4596 C 0.54216 0.36448 0.55958 0.0
C4597 C 0.5492 0.38161 0.57016 0.0
C4598 C 0.55783 0.38229 0.58784 0.0
C4599 C 0.55941 0.3665 0.59469 0.0
C4600 C 0.54722 0.39875 0.56322 0.0
C4601 C 0.54157 0.41159 0.57472 0.0
C4602 C 0.55067 0.40258 0.54547 0.0
C4603 C 0.55808 0.39068 0.53289 0.0
C4604 C 0.57452 0.38639 0.53822 0.0
C4605 C 0.58144 0.37514 0.52628 0.0
C4606 C 0.57209 0.36821 0.50894 0.0
C4607 C 0.55583 0.37257 0.50346 0.0
C4608 C 0.54886 0.3838 0.51534 0.0
C4609 C 0.54746 0.48161 0.54859 0.0
C4610 C 0.53551 0.48114 0.53285 0.0
C4611 C 0.54994 0.46561 0.55438 0.0
C4612 C 0.54051 0.44862 0.54466 0.0
C4613 C 0.52897 0.44813 0.52867 0.0
C4614 C 0.52644 0.46412 0.5229 0.0
C4615 C 0.54241 0.43142 0.55128 0.0
C4616 C 0.54795 0.41861 0.5397 0.0
C4617 C 0.53916 0.42773 0.56906 0.0
C4618 C 0.53271 0.44022 0.5819 0.0
C4619 C 0.51655 0.44524 0.57707 0.0
C4620 C 0.51069 0.45722 0.58916 0.0
C4621 C 0.52077 0.46416 0.60618 0.0
C4622 C 0.53673 0.45907 0.61118 0.0
C4623 C 0.54268 0.44711 0.59912 0.0
H4624 H 0.5162 0.47345 0.61551 0.0
H4625 H 0.57746 0.35951 0.49972 0.0
H4626 H 0.43159 0.76078 0.41841 0.0
H4627 H 0.40051 0.76143 0.4061 0.0
H4628 H 0.41916 0.76877 0.35387 0.0
H4629 H 0.44977 0.7683 0.36593 0.0
H4630 H 0.40238 0.79395 0.36489 0.0
H4631 H 0.3916 0.72932 0.36303 0.0
H4632 H 0.38927 0.7012 0.37625 0.0
H4633 H 0.34779 0.7128 0.40774 0.0
H4634 H 0.35004 0.74107 0.39478 0.0
H4635 H 0.33117 0.77679 0.2956 0.0
H4636 H 0.35613 0.77407 0.31676 0.0
H4637 H 0.32179 0.77163 0.35995 0.0
H4638 H 0.29626 0.77425 0.33859 0.0
H4639 H 0.34383 0.7466 0.36004 0.0
H4640 H 0.35252 0.80957 0.35979 0.0
H4641 H 0.35393 0.8371 0.34574 0.0
H4642 H 0.39893 0.82839 0.31809 0.0
H4643 H 0.39757 0.80059 0.33169 0.0
C4644 C 0.42891 0.76217 0.40423 0.0
C4645 C 0.44324 0.76465 0.39322 0.0
C4646 C 0.41116 0.7626 0.39721 0.0
C4647 C 0.40748 0.76534 0.37906 0.0
C4648 C 0.42162 0.76688 0.36795 0.0
C4649 C 0.43918 0.76655 0.3749 0.0
C4650 C 0.38948 0.76776 0.37148 0.0
C4651 C 0.38962 0.78353 0.36383 0.0
C4652 C 0.37258 0.75455 0.37065 0.0
C4653 C 0.37131 0.73754 0.37833 0.0
C4654 C 0.38218 0.72601 0.37298 0.0
C4655 C 0.38081 0.70999 0.38035 0.0
C4656 C 0.36849 0.70527 0.39293 0.0
C4657 C 0.35742 0.71651 0.39808 0.0
C4658 C 0.35875 0.73254 0.39075 0.0
C4659 C 0.32873 0.77567 0.30956 0.0
C4660 C 0.31159 0.7759 0.31531 0.0
C4661 C 0.34313 0.77412 0.32169 0.0
C4662 C 0.34098 0.77287 0.34002 0.0
C4663 C 0.32381 0.77262 0.34587 0.0
C4664 C 0.30925 0.7742 0.33364 0.0
C4665 C 0.35707 0.77239 0.35281 0.0
C4666 C 0.35656 0.75712 0.36145 0.0
C4667 C 0.37371 0.78604 0.35461 0.0
C4668 C 0.37488 0.80296 0.34671 0.0
C4669 C 0.36266 0.81348 0.35064 0.0
C4670 C 0.36345 0.82913 0.34276 0.0
C4671 C 0.3765 0.8345 0.33102 0.0
C4672 C 0.38883 0.82423 0.32718 0.0
C4673 C 0.38807 0.80853 0.335 0.0
H4674 H 0.37707 0.84661 0.32492 0.0
H4675 H 0.36745 0.69286 0.39861 0.0
H4676 H 0.02292 0.73469 0.07381 0.0
H4677 H 0.01599 0.70301 0.05936 0.0
H4678 H 0.07133 0.7018 0.07658 0.0
H4679 H 0.07806 0.73305 0.09144 0.0
H4680 H 0.05647 0.68408 0.03915 0.0
H4681 H 0.04199 0.68591 0.10151 0.0
H4682 H 0.02602 0.69518 0.12686 0.0
H4683 H 0.974 0.66957 0.09528 0.0
H4684 H 0.98969 0.66039 0.06962 0.0
H4685 H 0.05608 0.59258 0.03698 0.0
H4686 H 0.05945 0.62481 0.04476 0.0
H4687 H 0.00068 0.61532 0.04029 0.0
H4688 H 0.99717 0.58291 0.03292 0.0
H4689 H 0.01453 0.63896 0.06858 0.0
H4690 H 0.02703 0.63449 0.00742 0.0
H4691 H 0.04128 0.62554 0.98063 0.0
H4692 H 0.09426 0.6562 0.00703 0.0
H4693 H 0.08035 0.66514 0.03411 0.0
C4694 C 0.03369 0.72777 0.07409 0.0
C4695 C 0.05109 0.73641 0.08363 0.0
C4696 C 0.0297 0.70964 0.06596 0.0
C4697 C 0.04313 0.69996 0.06691 0.0
C4698 C 0.06075 0.70894 0.07558 0.0
C4699 C 0.06459 0.72683 0.08406 0.0
C4700 C 0.0387 0.68021 0.06006 0.0
C4701 C 0.04738 0.67419 0.04562 0.0
C4702 C 0.02642 0.66727 0.06812 0.0
C4703 C 0.017 0.67267 0.08357 0.0
C4704 C 0.02715 0.68241 0.09991 0.0
C4705 C 0.01815 0.68762 0.11435 0.0
C4706 C -0.00099 0.68303 0.11266 0.0
C4707 C 0.98883 0.67316 0.09655 0.0
C4708 C 0.99776 0.66794 0.08206 0.0
C4709 C 0.04381 0.59727 0.03753 0.0
C4710 C 0.02634 0.58496 0.03424 0.0
C4711 C 0.04577 0.61584 0.04193 0.0
C4712 C 0.03033 0.62274 0.04289 0.0
C4713 C 0.01286 0.61048 0.03965 0.0
C4714 C 0.01088 0.59187 0.03538 0.0
C4715 C 0.03252 0.64265 0.04771 0.0
C4716 C 0.02346 0.64874 0.06185 0.0
C4717 C 0.0442 0.65567 0.03912 0.0
C4718 C 0.05266 0.65036 0.02287 0.0
C4719 C 0.04174 0.63922 0.00758 0.0
C4720 C 0.04975 0.63416 0.99233 0.0
C4721 C 0.06867 0.64026 0.99214 0.0
C4722 C 0.07961 0.65147 0.0072 0.0
C4723 C 0.07166 0.65655 0.0225 0.0
H4724 H 0.07485 0.63634 0.98032 0.0
H4725 H 0.99206 0.68707 0.12386 0.0
H4726 H 0.03581 0.27756 0.88264 0.0
H4727 H 0.062 0.28121 0.86537 0.0
H4728 H 0.08909 0.2557 0.90379 0.0
H4729 H 0.06332 0.25336 0.92192 0.0
H4730 H 0.11373 0.27981 0.89422 0.0
H4731 H 0.06532 0.23355 0.85867 0.0
H4732 H 0.03423 0.21958 0.84273 0.0
H4733 H 0.04115 0.26058 0.80787 0.0
H4734 H 0.0722 0.27493 0.82373 0.0
H4735 H 0.17795 0.266 0.83225 0.0
H4736 H 0.15349 0.26114 0.85184 0.0
H4737 H 0.12536 0.29221 0.82103 0.0
H4738 H 0.14924 0.29639 0.80093 0.0
H4739 H 0.10189 0.26289 0.82724 0.0
H4740 H 0.15119 0.30901 0.86456 0.0
H4741 H 0.1827 0.32086 0.88021 0.0
H4742 H 0.17446 0.27683 0.91135 0.0
H4743 H 0.14297 0.2646 0.89574 0.0
C4744 C 0.04737 0.27277 0.88743 0.0
C4745 C 0.04744 0.26501 0.90354 0.0
C4746 C 0.06234 0.27471 0.87744 0.0
C4747 C 0.07743 0.26818 0.88281 0.0
C4748 C 0.07765 0.26075 0.89917 0.0
C4749 C 0.06289 0.25935 0.90952 0.0
C4750 C 0.09284 0.26913 0.87134 0.0
C4751 C 0.11107 0.27583 0.87961 0.0
C4752 C 0.08964 0.26408 0.85217 0.0
C4753 C 0.07103 0.25538 0.84249 0.0
C4754 C 0.06017 0.23964 0.84766 0.0
C4755 C 0.04256 0.23165 0.83864 0.0
C4756 C 0.03571 0.23921 0.82432 0.0
C4757 C 0.04647 0.25475 0.81896 0.0
C4758 C 0.06408 0.2628 0.82795 0.0
C4759 C 0.16649 0.27168 0.82952 0.0
C4760 C 0.16573 0.2817 0.81499 0.0
C4761 C 0.15258 0.26906 0.8409 0.0
C4762 C 0.13763 0.27653 0.83814 0.0
C4763 C 0.13676 0.28638 0.82356 0.0
C4764 C 0.15058 0.28891 0.81214 0.0
C4765 C 0.12263 0.2739 0.85008 0.0
C4766 C 0.10448 0.26679 0.84187 0.0
C4767 C 0.12596 0.27826 0.86927 0.0
C4768 C 0.14477 0.28583 0.87889 0.0
C4769 C 0.15613 0.30182 0.8747 0.0
C4770 C 0.17398 0.30861 0.88357 0.0
C4771 C 0.18057 0.2996 0.89677 0.0
C4772 C 0.16932 0.2838 0.90114 0.0
C4773 C 0.15147 0.27695 0.8923 0.0
H4774 H 0.1944 0.30487 0.90361 0.0
H4775 H 0.02207 0.23302 0.81736 0.0
H4776 H 0.5408 0.73485 0.87433 0.0
H4777 H 0.53677 0.70954 0.89168 0.0
H4778 H 0.51698 0.74 0.93401 0.0
H4779 H 0.52233 0.76581 0.91721 0.0
H4780 H 0.53679 0.72375 0.94958 0.0
H4781 H 0.4884 0.7025 0.89967 0.0
H4782 H 0.4751 0.69517 0.86745 0.0
H4783 H 0.50784 0.65781 0.85801 0.0
H4784 H 0.52148 0.66507 0.89012 0.0
H4785 H 0.50014 0.6501 0.99529 0.0
H4786 H 0.5031 0.67462 0.97706 0.0
H4787 H 0.52883 0.64645 0.93822 0.0
H4788 H 0.52496 0.62138 0.95588 0.0
H4789 H 0.50585 0.66115 0.9209 0.0
H4790 H 0.55381 0.68275 0.97142 0.0
H4791 H 0.56613 0.68989 0.00391 0.0
H4792 H 0.53253 0.7266 0.01237 0.0
H4793 H 0.51986 0.71951 0.97997 0.0
C4794 C 0.53555 0.73611 0.88733 0.0
C4795 C 0.5318 0.75229 0.89437 0.0
C4796 C 0.53308 0.72154 0.89721 0.0
C4797 C 0.5261 0.72252 0.91407 0.0
C4798 C 0.52235 0.73875 0.92107 0.0
C4799 C 0.52534 0.75351 0.91143 0.0
C4800 C 0.52316 0.70692 0.92465 0.0
C4801 C 0.52974 0.71014 0.94328 0.0
C4802 C 0.51438 0.68893 0.91654 0.0
C4803 C 0.50606 0.68445 0.89726 0.0
C4804 C 0.49282 0.69279 0.89069 0.0
C4805 C 0.48522 0.68864 0.87246 0.0
C4806 C 0.49065 0.67607 0.86068 0.0
C4807 C 0.50366 0.66757 0.86714 0.0
C4808 C 0.51131 0.67167 0.88536 0.0
C4809 C 0.50619 0.64893 0.98275 0.0
C4810 C 0.51238 0.63367 0.97717 0.0
C4811 C 0.5081 0.66314 0.97242 0.0
C4812 C 0.51653 0.66263 0.95639 0.0
C4813 C 0.5224 0.64729 0.95059 0.0
C4814 C 0.52035 0.633 0.96083 0.0
C4815 C 0.51933 0.6781 0.94574 0.0
C4816 C 0.5128 0.67482 0.92712 0.0
C4817 C 0.52798 0.69605 0.95388 0.0
C4818 C 0.53579 0.70049 0.97331 0.0
C4819 C 0.54899 0.69227 0.98023 0.0
C4820 C 0.55604 0.69632 -0.00137 0.0
C4821 C 0.55009 0.70866 0.01021 0.0
C4822 C 0.53712 0.71703 0.00339 0.0
C4823 C 0.53002 0.71302 0.98501 0.0
H4824 H 0.55555 0.71176 0.02444 0.0
H4825 H 0.48476 0.67288 0.84657 0.0
H4826 H 0.07727 0.7457 0.67168 0.0
H4827 H 0.10858 0.7477 0.68464 0.0
H4828 H 0.10069 0.77881 0.73365 0.0
H4829 H 0.06907 0.77656 0.72088 0.0
H4830 H 0.13494 0.793 0.71762 0.0
H4831 H 0.09986 0.73833 0.73662 0.0
H4832 H 0.07759 0.70844 0.73099 0.0
H4833 H 0.11118 0.68884 0.69439 0.0
H4834 H 0.13354 0.7187 0.69963 0.0
H4835 H 0.2174 0.79331 0.76913 0.0
H4836 H 0.18528 0.79055 0.75881 0.0
H4837 H 0.18461 0.74522 0.71884 0.0
H4838 H 0.21654 0.74731 0.72999 0.0
H4839 H 0.15397 0.73838 0.73055 0.0
H4840 H 0.1883 0.79065 0.70923 0.0
H4841 H 0.21051 0.82027 0.71093 0.0
H4842 H 0.17909 0.84431 0.7467 0.0
H4843 H 0.15686 0.81474 0.74549 0.0
C4844 C 0.08216 0.75298 0.68523 0.0
C4845 C 0.07065 0.76097 0.69526 0.0
C4846 C 0.10006 0.75408 0.69262 0.0
C4847 C 0.10696 0.76338 0.71011 0.0
C4848 C 0.09563 0.77158 0.72011 0.0
C4849 C 0.07756 0.77023 0.71283 0.0
C4850 C 0.126 0.76441 0.7179 0.0
C4851 C 0.13909 0.78114 0.72076 0.0
C4852 C 0.13153 0.74882 0.72127 0.0
C4853 C 0.11829 0.73078 0.71841 0.0
C4854 C 0.10243 0.72767 0.72729 0.0
C4855 C 0.0898 0.71074 0.72418 0.0
C4856 C 0.09294 0.69676 0.7123 0.0
C4857 C 0.10876 0.69968 0.70358 0.0
C4858 C 0.12143 0.7166 0.70663 0.0
C4859 C 0.21037 0.78269 0.7582 0.0
C4860 C 0.21953 0.77058 0.75029 0.0
C4861 C 0.19199 0.7812 0.75218 0.0
C4862 C 0.18248 0.76797 0.73765 0.0
C4863 C 0.19154 0.7556 0.73002 0.0
C4864 C 0.20983 0.7568 0.73637 0.0
C4865 C 0.16317 0.76709 0.73041 0.0
C4866 C 0.14996 0.75035 0.72756 0.0
C4867 C 0.15764 0.78265 0.72657 0.0
C4868 C 0.17101 0.80044 0.7274 0.0
C4869 C 0.1862 0.80222 0.71758 0.0
C4870 C 0.19879 0.819 0.71845 0.0
C4871 C 0.19623 0.83415 0.72895 0.0
C4872 C 0.18107 0.83255 0.7386 0.0
C4873 C 0.16848 0.81579 0.73783 0.0
H4874 H 0.20597 0.84713 0.72954 0.0
H4875 H 0.08313 0.68366 0.70989 0.0
H4876 H 0.03081 0.34277 0.40899 0.0
H4877 H 0.02728 0.36903 0.42858 0.0
H4878 H 0.06027 0.40426 0.39646 0.0
H4879 H 0.06328 0.3781 0.37648 0.0
H4880 H 0.04811 0.39579 0.45035 0.0
H4881 H 0.04684 0.44202 0.39434 0.0
H4882 H 0.03726 0.43908 0.36141 0.0
H4883 H -0.00104 0.38823 0.36322 0.0
H4884 H 0.00814 0.39097 0.39619 0.0
H4885 H 0.05827 0.48388 0.49451 0.0
H4886 H 0.06156 0.4576 0.47489 0.0
H4887 H 0.00804 0.45149 0.446 0.0
H4888 H 0.00514 0.47839 0.46503 0.0
H4889 H 0.02818 0.44417 0.42275 0.0
H4890 H 0.01708 0.42437 0.47982 0.0
H4891 H 0.02179 0.42507 0.51306 0.0
H4892 H 0.07612 0.41887 0.50965 0.0
H4893 H 0.07182 0.41838 0.4764 0.0
C4894 C 0.0374 0.35611 0.40615 0.0
C4895 C 0.04721 0.35829 0.39105 0.0
C4896 C 0.03538 0.37115 0.41739 0.0
C4897 C 0.04321 0.38871 0.41387 0.0
C4898 C 0.05367 0.3909 0.39925 0.0
C4899 C 0.05549 0.37589 0.38787 0.0
C4900 C 0.04024 0.4047 0.42528 0.0
C4901 C 0.04376 0.40636 0.4443 0.0
C4902 C 0.03405 0.41833 0.41751 0.0
C4903 C 0.02832 0.41664 0.3977 0.0
C4904 C 0.03633 0.43025 0.38772 0.0
C4905 C 0.03098 0.42861 0.36905 0.0
C4906 C 0.01755 0.41346 0.36022 0.0
C4907 C 0.0094 0.39993 0.37006 0.0
C4908 C 0.0147 0.40151 0.38873 0.0
C4909 C 0.04722 0.47695 0.48394 0.0
C4910 C 0.03138 0.48314 0.48141 0.0
C4911 C 0.04906 0.46183 0.47277 0.0
C4912 C 0.03487 0.45218 0.45915 0.0
C4913 C 0.01919 0.45859 0.45639 0.0
C4914 C 0.01751 0.47397 0.46732 0.0
C4915 C 0.03636 0.43544 0.44785 0.0
C4916 C 0.03255 0.43362 0.42884 0.0
C4917 C 0.04158 0.42133 0.45566 0.0
C4918 C 0.04418 0.42148 0.47564 0.0
C4919 C 0.03007 0.42326 0.48617 0.0
C4920 C 0.03267 0.42361 0.50501 0.0
C4921 C 0.04926 0.42205 0.51346 0.0
C4922 C 0.06328 0.42009 0.50308 0.0
C4923 C 0.06077 0.41976 0.48424 0.0
H4924 H 0.05124 0.42233 0.52805 0.0
H4925 H 0.01343 0.41221 0.34576 0.0
H4926 H 0.47294 0.25799 0.23428 0.0
H4927 H 0.444 0.26172 0.2437 0.0
H4928 H 0.42063 0.25298 0.18747 0.0
H4929 H 0.45018 0.25055 0.178 0.0
H4930 H 0.40748 0.27615 0.20306 0.0
H4931 H 0.4118 0.21956 0.21941 0.0
H4932 H 0.42557 0.19798 0.23356 0.0
H4933 H 0.42754 0.22764 0.28639 0.0
H4934 H 0.414 0.24954 0.27254 0.0
H4935 H 0.31491 0.25573 0.22507 0.0
H4936 H 0.34384 0.25244 0.21488 0.0
H4937 H 0.37239 0.2774 0.26766 0.0
H4938 H 0.34351 0.281 0.27793 0.0
H4939 H 0.3818 0.24523 0.25327 0.0
H4940 H 0.37601 0.30151 0.23448 0.0
H4941 H 0.35976 0.32036 0.21866 0.0
H4942 H 0.35772 0.28718 0.1678 0.0
H4943 H 0.37371 0.26795 0.18337 0.0
C4944 C 0.46164 0.25689 0.2239 0.0
C4945 C 0.46386 0.25383 0.20538 0.0
C4946 C 0.44495 0.25886 0.22932 0.0
C4947 C 0.42969 0.25709 0.2164 0.0
C4948 C 0.43201 0.25433 0.19782 0.0
C4949 C 0.44893 0.25289 0.19238 0.0
C4950 C 0.41151 0.25832 0.22229 0.0
C4951 C 0.40183 0.26911 0.21385 0.0
C4952 C 0.4039 0.24938 0.23654 0.0
C4953 C 0.41206 0.23627 0.24492 0.0
C4954 C 0.41529 0.22154 0.23404 0.0
C4955 C 0.42304 0.20925 0.242 0.0
C4956 C 0.42747 0.21146 0.26086 0.0
C4957 C 0.42412 0.22596 0.27179 0.0
C4958 C 0.4164 0.2383 0.26389 0.0
C4959 C 0.32731 0.2605 0.23457 0.0
C4960 C 0.32683 0.26869 0.25234 0.0
C4961 C 0.34388 0.25866 0.22867 0.0
C4962 C 0.36035 0.26478 0.24044 0.0
C4963 C 0.35988 0.27261 0.25831 0.0
C4964 C 0.34334 0.2747 0.26415 0.0
C4965 C 0.37807 0.26306 0.23411 0.0
C4966 C 0.38757 0.25217 0.24246 0.0
C4967 C 0.38525 0.27151 0.2195 0.0
C4968 C 0.37589 0.28321 0.21011 0.0
C4969 C 0.37197 0.29816 0.21994 0.0
C4970 C 0.36283 0.30892 0.21102 0.0
C4971 C 0.35767 0.30494 0.19225 0.0
C4972 C 0.3617 0.29023 0.18234 0.0
C4973 C 0.37082 0.2794 0.19121 0.0
H4974 H 0.35058 0.31328 0.18536 0.0
H4975 H 0.43347 0.20192 0.267 0.0
H4976 H 0.61746 0.52084 0.33676 0.0
H4977 H 0.61193 0.51931 0.36849 0.0
H4978 H 0.56055 0.53266 0.35719 0.0
H4979 H 0.56615 0.53461 0.32576 0.0
H4980 H 0.57867 0.55256 0.38696 0.0
H4981 H 0.56344 0.48933 0.36313 0.0
H4982 H 0.56914 0.4615 0.34801 0.0
H4983 H 0.61407 0.46625 0.38913 0.0
H4984 H 0.60877 0.49427 0.40436 0.0
H4985 H 0.5249 0.52414 0.45381 0.0
H4986 H 0.53856 0.52415 0.42559 0.0
H4987 H 0.59052 0.52493 0.45457 0.0
H4988 H 0.57689 0.52507 0.48335 0.0
H4989 H 0.57785 0.49954 0.41877 0.0
H4990 H 0.58937 0.56178 0.44433 0.0
H4991 H 0.58069 0.58805 0.45929 0.0
H4992 H 0.53997 0.58375 0.41405 0.0
H4993 H 0.54819 0.55725 0.39896 0.0
C4994 C 0.60491 0.52329 0.34101 0.0
C4995 C 0.59228 0.52792 0.32871 0.0
C4996 C 0.60175 0.52238 0.35916 0.0
C4997 C 0.5858 0.52586 0.36527 0.0
C4998 C 0.57302 0.53006 0.35288 0.0
C4999 C 0.57622 0.53111 0.33485 0.0
C5000 C 0.58246 0.52573 0.38464 0.0
C5001 C 0.57847 0.54092 0.39384 0.0
C5002 C 0.58266 0.51078 0.3939 0.0
C5003 C 0.58586 0.49399 0.38474 0.0
C5004 C 0.57464 0.48452 0.36885 0.0
C5005 C 0.57777 0.4687 0.36028 0.0
C5006 C 0.592 0.46214 0.36757 0.0
C5007 C 0.60308 0.47137 0.38348 0.0
C5008 C 0.60002 0.48721 0.39208 0.0
C5009 C 0.53922 0.52421 0.45433 0.0
C5010 C 0.54983 0.52474 0.47094 0.0
C5011 C 0.547 0.52419 0.43811 0.0
C5012 C 0.56555 0.52465 0.43802 0.0
C5013 C 0.57615 0.52456 0.45441 0.0
C5014 C 0.56837 0.52471 0.47081 0.0
C5015 C 0.57366 0.52615 0.42073 0.0
C5016 C 0.5785 0.51128 0.41194 0.0
C5017 C 0.57404 0.5413 0.41171 0.0
C5018 C 0.56935 0.55749 0.42056 0.0
C5019 C 0.5785 0.56638 0.43762 0.0
C5020 C 0.57366 0.58131 0.44612 0.0
C5021 C 0.55977 0.58755 0.43763 0.0
C5022 C 0.55073 0.5789 0.42061 0.0
C5023 C 0.55549 0.56394 0.41206 0.0
H5024 H 0.55603 0.59911 0.44425 0.0
H5025 H 0.5944 0.44988 0.36093 0.0
H5026 H 0.29003 0.86285 0.02984 0.0
H5027 H 0.29672 0.84464 0.05296 0.0
H5028 H 0.2569 0.8611 0.08433 0.0
H5029 H 0.25145 0.88044 0.06197 0.0
H5030 H 0.28433 0.86335 0.10568 0.0
H5031 H 0.25062 0.81675 0.05748 0.0
H5032 H 0.24379 0.79995 0.0264 0.0
H5033 H 0.2962 0.78811 0.03149 0.0
H5034 H 0.30344 0.80503 0.06253 0.0
H5035 H 0.26642 0.79651 0.1615 0.0
H5036 H 0.26231 0.80562 0.13151 0.0
H5037 H 0.32054 0.81704 0.12911 0.0
H5038 H 0.325 0.80885 0.15953 0.0
H5039 H 0.28638 0.79952 0.09271 0.0
H5040 H 0.31916 0.85034 0.14178 0.0
H5041 H 0.32219 0.86538 0.17337 0.0
H5042 H 0.26601 0.86735 0.16591 0.0
H5043 H 0.26251 0.85177 0.1345 0.0
C5044 C 0.28276 0.86249 0.04172 0.0
C5045 C 0.27034 0.873 0.04434 0.0
C5046 C 0.28643 0.85197 0.05481 0.0
C5047 C 0.27712 0.85126 0.07027 0.0
C5048 C 0.26435 0.8615 0.07257 0.0
C5049 C 0.2612 0.87251 0.05984 0.0
C5050 C 0.28129 0.84073 0.08465 0.0
C5051 C 0.28464 0.84937 0.1027 0.0
C5052 C 0.28202 0.82254 0.08089 0.0
C5053 C 0.27763 0.81229 0.06226 0.0
C5054 C 0.26074 0.81066 0.05192 0.0
C5055 C 0.25678 0.8011 0.03432 0.0
C5056 C 0.26957 0.79301 0.02696 0.0
C5057 C 0.28632 0.79441 0.0372 0.0
C5058 C 0.29034 0.80396 0.0548 0.0
C5059 C 0.27835 0.80068 0.15449 0.0
C5060 C 0.29609 0.80245 0.16306 0.0
C5061 C 0.27592 0.80559 0.13727 0.0
C5062 C 0.29116 0.81199 0.12831 0.0
C5063 C 0.30867 0.81195 0.1359 0.0
C5064 C 0.31117 0.8073 0.15328 0.0
C5065 C 0.28911 0.82223 0.11329 0.0
C5066 C 0.28619 0.81356 0.09535 0.0
C5067 C 0.28835 0.84029 0.11705 0.0
C5068 C 0.29052 0.84971 0.1359 0.0
C5069 C 0.3074 0.85376 0.14698 0.0
C5070 C 0.3092 0.86238 0.16485 0.0
C5071 C 0.29427 0.86722 0.17169 0.0
C5072 C 0.27753 0.86349 0.16065 0.0
C5073 C 0.27562 0.85474 0.14284 0.0
H5074 H 0.2957 0.87394 0.18551 0.0
H5075 H 0.26649 0.78561 0.01333 0.0
H5076 H 0.95045 0.50806 0.83221 0.0
H5077 H 0.95996 0.50782 0.86408 0.0
H5078 H 0.92113 0.53743 0.87959 0.0
H5079 H 0.91157 0.53798 0.84743 0.0
H5080 H 0.95423 0.55174 0.89881 0.0
H5081 H 0.91326 0.49405 0.88591 0.0
H5082 H 0.89806 0.46402 0.86878 0.0
H5083 H 0.94852 0.44853 0.87519 0.0
H5084 H 0.96414 0.47857 0.89208 0.0
H5085 H 0.99036 0.54352 0.98823 0.0
H5086 H 0.9676 0.54041 0.96179 0.0
H5087 H -0.00147 0.51191 0.9291 0.0
H5088 H 0.02065 0.51423 0.9559 0.0
H5089 H 0.96149 0.49612 0.92221 0.0
H5090 H 0.00259 0.55721 0.9293 0.0
H5091 H 0.0169 0.58728 0.94688 0.0
H5092 H 0.96368 0.59576 0.95226 0.0
H5093 H 0.94908 0.56564 0.93488 0.0
C5094 C 0.94381 0.51448 0.84233 0.0
C5095 C 0.93027 0.52309 0.83726 0.0
C5096 C 0.94917 0.51418 0.86057 0.0
C5097 C 0.94102 0.52234 0.87416 0.0
C5098 C 0.92747 0.53095 0.86925 0.0
C5099 C 0.92206 0.53126 0.8509 0.0
C5100 C 0.94775 0.52273 0.89344 0.0
C5101 C 0.95539 0.53954 0.90412 0.0
C5102 C 0.94923 0.50681 0.90033 0.0
C5103 C 0.9399 0.48863 0.89024 0.0
C5104 C 0.92116 0.48429 0.88357 0.0
C5105 C 0.91246 0.46725 0.87391 0.0
C5106 C 0.92232 0.45438 0.87091 0.0
C5107 C 0.9409 0.45852 0.87755 0.0
C5108 C 0.94968 0.47554 0.8872 0.0
C5109 C 0.99183 0.53611 0.9755 0.0
C5110 C 0.00673 0.52861 0.97408 0.0
C5111 C 0.97907 0.53458 0.96038 0.0
C5112 C 0.98138 0.52588 0.94351 0.0
C5113 C 0.99643 0.51851 0.94207 0.0
C5114 C 0.0091 0.51996 0.95726 0.0
C5115 C 0.96871 0.52514 0.92707 0.0
C5116 C 0.9599 0.50825 0.91702 0.0
C5117 C 0.96595 0.54095 0.92085 0.0
C5118 C 0.97476 0.55916 0.93095 0.0
C5119 C 0.99396 0.56547 0.93431 0.0
C5120 C 0.00212 0.58252 0.94422 0.0
C5121 C 0.99121 0.5934 0.95072 0.0
C5122 C 0.97212 0.5873 0.94724 0.0
C5123 C 0.9639 0.57026 0.93735 0.0
H5124 H 0.99755 0.60658 0.95841 0.0
H5125 H 0.91556 0.44119 0.86344 0.0
H5126 H 0.25762 0.229 0.55407 0.0
H5127 H 0.25705 0.24638 0.58378 0.0
H5128 H 0.28615 0.21306 0.61013 0.0
H5129 H 0.286 0.19543 0.58082 0.0
H5130 H 0.25682 0.2134 0.62519 0.0
H5131 H 0.3054 0.25896 0.6066 0.0
H5132 H 0.31902 0.28056 0.58658 0.0
H5133 H 0.27715 0.3083 0.59392 0.0
H5134 H 0.26314 0.28671 0.61381 0.0
H5135 H 0.29082 0.25387 0.7129 0.0
H5136 H 0.28921 0.24589 0.68023 0.0
H5137 H 0.24894 0.27566 0.67155 0.0
H5138 H 0.25039 0.28385 0.70464 0.0
H5139 H 0.27826 0.27922 0.64629 0.0
H5140 H 0.23203 0.23451 0.66794 0.0
H5141 H 0.22044 0.21334 0.68912 0.0
H5142 H 0.25987 0.18393 0.67631 0.0
H5143 H 0.27189 0.2051 0.65527 0.0
C5144 C 0.26425 0.22577 0.56622 0.0
C5145 C 0.2718 0.21091 0.56527 0.0
C5146 C 0.26392 0.23566 0.58317 0.0
C5147 C 0.27144 0.23095 0.59926 0.0
C5148 C 0.28005 0.21683 0.598 0.0
C5149 C 0.28006 0.20682 0.58124 0.0
C5150 C 0.26914 0.23936 0.61759 0.0
C5151 C 0.26161 0.22781 0.62974 0.0
C5152 C 0.27471 0.2582 0.62346 0.0
C5153 C 0.2831 0.27111 0.6115 0.0
C5154 C 0.299 0.26957 0.60381 0.0
C5155 C 0.30682 0.28183 0.59252 0.0
C5156 C 0.29892 0.29576 0.58893 0.0
C5157 C 0.28322 0.29748 0.59668 0.0
C5158 C 0.27535 0.28525 0.60797 0.0
C5159 C 0.28161 0.25884 0.70416 0.0
C5160 C 0.27049 0.26929 0.71147 0.0
C5161 C 0.28081 0.25432 0.68543 0.0
C5162 C 0.26886 0.26006 0.6735 0.0
C5163 C 0.25826 0.27113 0.68058 0.0
C5164 C 0.25904 0.27569 0.69947 0.0
C5165 C 0.2667 0.25312 0.65384 0.0
C5166 C 0.27323 0.26488 0.64151 0.0
C5167 C 0.26037 0.23441 0.64773 0.0
C5168 C 0.2529 0.22144 0.66009 0.0
C5169 C 0.23829 0.22358 0.66971 0.0
C5170 C 0.23164 0.21159 0.68169 0.0
C5171 C 0.23942 0.19731 0.68407 0.0
C5172 C 0.25385 0.19499 0.67445 0.0
C5173 C 0.26056 0.20697 0.66247 0.0
H5174 H 0.23427 0.18804 0.69336 0.0
H5175 H 0.30499 0.30524 0.5802 0.0
H5176 H 0.56868 0.51479 0.22522 0.0
H5177 H 0.55461 0.5166 0.19483 0.0
H5178 H 0.60779 0.54239 0.18069 0.0
H5179 H 0.62192 0.54025 0.2107 0.0
H5180 H 0.55263 0.54393 0.17581 0.0
H5181 H 0.61078 0.52826 0.13718 0.0
H5182 H 0.63463 0.51184 0.14033 0.0
H5183 H 0.60179 0.47658 0.17214 0.0
H5184 H 0.57766 0.49264 0.16897 0.0
H5185 H 0.54376 0.56039 0.08209 0.0
H5186 H 0.55432 0.56053 0.11423 0.0
H5187 H 0.54148 0.50244 0.10542 0.0
H5188 H 0.53105 0.50213 0.07366 0.0
H5189 H 0.57555 0.51678 0.12204 0.0
H5190 H 0.51529 0.52338 0.12884 0.0
H5191 H 0.48966 0.53752 0.12565 0.0
H5192 H 0.52317 0.58658 0.15708 0.0
H5193 H 0.5491 0.5728 0.16024 0.0
C5194 C 0.57735 0.52081 0.2156 0.0
C5195 C 0.59644 0.52718 0.22029 0.0
C5196 C 0.56929 0.52194 0.19829 0.0
C5197 C 0.58017 0.52945 0.18541 0.0
C5198 C 0.59914 0.53627 0.19028 0.0
C5199 C 0.60721 0.53503 0.20747 0.0
C5200 C 0.57187 0.52958 0.16663 0.0
C5201 C 0.55765 0.53802 0.16405 0.0
C5202 C 0.57824 0.5217 0.15125 0.0
C5203 C 0.59252 0.51176 0.15299 0.0
C5204 C 0.60863 0.51695 0.14478 0.0
C5205 C 0.6222 0.50772 0.14658 0.0
C5206 C 0.61976 0.49321 0.15648 0.0
C5207 C 0.6037 0.48786 0.16453 0.0
C5208 C 0.59008 0.49703 0.16276 0.0
C5209 C 0.54301 0.54766 0.08707 0.0
C5210 C 0.53668 0.53128 0.07522 0.0
C5211 C 0.54901 0.54775 0.10544 0.0
C5212 C 0.54873 0.53148 0.1122 0.0
C5213 C 0.54194 0.51516 0.10049 0.0
C5214 C 0.53595 0.51504 0.08228 0.0
C5215 C 0.55638 0.53123 0.13116 0.0
C5216 C 0.57057 0.52279 0.13378 0.0
C5217 C 0.54973 0.53882 0.14649 0.0
C5218 C 0.53419 0.54713 0.1446 0.0
C5219 C 0.51724 0.53724 0.13493 0.0
C5220 C 0.50265 0.54517 0.13315 0.0
C5221 C 0.5048 0.56295 0.14111 0.0
C5222 C 0.52153 0.57282 0.1509 0.0
C5223 C 0.53618 0.56495 0.15269 0.0
H5224 H 0.49348 0.56907 0.13973 0.0
H5225 H 0.63029 0.4861 0.15788 0.0
H5226 H 0.26069 0.8615 0.96007 0.0
H5227 H 0.25906 0.8383 0.93456 0.0
H5228 H 0.23923 0.87035 0.8979 0.0
H5229 H 0.24071 0.89381 0.92347 0.0
H5230 H 0.22021 0.83387 0.89129 0.0
H5231 H 0.28248 0.87096 0.90103 0.0
H5232 H 0.31262 0.88614 0.91841 0.0
H5233 H 0.31999 0.83502 0.92957 0.0
H5234 H 0.28974 0.81954 0.91245 0.0
H5235 H 0.25441 0.81749 0.80796 0.0
H5236 H 0.24668 0.82873 0.83746 0.0
H5237 H 0.25546 0.78176 0.85903 0.0
H5238 H 0.26258 0.77006 0.82916 0.0
H5239 H 0.27788 0.81952 0.87627 0.0
H5240 H 0.21722 0.78245 0.86092 0.0
H5241 H 0.18797 0.76837 0.84152 0.0
H5242 H 0.17833 0.82047 0.83905 0.0
H5243 H 0.20768 0.83491 0.85821 0.0
C5244 C 0.25588 0.86365 0.94661 0.0
C5245 C 0.2509 0.87955 0.94374 0.0
C5246 C 0.25498 0.85035 0.93209 0.0
C5247 C 0.24912 0.85274 0.91446 0.0
C5248 C 0.24374 0.86835 0.91151 0.0
C5249 C 0.24469 0.88174 0.92607 0.0
C5250 C 0.2493 0.83922 0.89899 0.0
C5251 C 0.23279 0.83072 0.88793 0.0
C5252 C 0.26569 0.83481 0.89511 0.0
C5253 C 0.28373 0.84412 0.9057 0.0
C5254 C 0.29042 0.86297 0.90738 0.0
C5255 C 0.30755 0.87163 0.91714 0.0
C5256 C 0.31819 0.86156 0.92515 0.0
C5257 C 0.31172 0.84281 0.9234 0.0
C5258 C 0.29458 0.83409 0.91368 0.0
C5259 C 0.25439 0.80946 0.81894 0.0
C5260 C 0.2592 0.79307 0.81655 0.0
C5261 C 0.24984 0.81577 0.83564 0.0
C5262 C 0.25043 0.80594 0.8502 0.0
C5263 C 0.25478 0.78933 0.84776 0.0
C5264 C 0.25886 0.78274 0.83084 0.0
C5265 C 0.24889 0.81451 0.86834 0.0
C5266 C 0.26519 0.82222 0.87992 0.0
C5267 C 0.23238 0.81834 0.87255 0.0
C5268 C 0.21474 0.80978 0.86092 0.0
C5269 C 0.20896 0.79093 0.8561 0.0
C5270 C 0.19234 0.78288 0.84518 0.0
C5271 C 0.18131 0.79352 0.83903 0.0
C5272 C 0.18689 0.81224 0.84382 0.0
C5273 C 0.20351 0.82037 0.85474 0.0
H5274 H 0.16844 0.78725 0.83059 0.0
H5275 H 0.33146 0.86828 0.93267 0.0
H5276 H 0.9482 0.53356 0.75275 0.0
H5277 H 0.96059 0.52107 0.72686 0.0
H5278 H 0.91463 0.52558 0.69096 0.0
H5279 H 0.90149 0.53718 0.71717 0.0
H5280 H 0.92036 0.49408 0.68268 0.0
H5281 H 0.95914 0.55436 0.69332 0.0
H5282 H 0.98008 0.58174 0.71119 0.0
H5283 H 0.01882 0.5517 0.72431 0.0
H5284 H 0.99802 0.52408 0.7067 0.0
H5285 H 0.96163 0.49024 0.60113 0.0
H5286 H 0.94568 0.49393 0.6275 0.0
H5287 H 0.99018 0.4843 0.66161 0.0
H5288 H 0.00659 0.4812 0.63523 0.0
H5289 H 0.98497 0.51654 0.67144 0.0
H5290 H 0.94592 0.45641 0.65715 0.0
H5291 H 0.92479 0.43038 0.63743 0.0
H5292 H 0.88616 0.46166 0.62884 0.0
H5293 H 0.90716 0.48797 0.64829 0.0
C5294 C 0.9408 0.53213 0.73934 0.0
C5295 C 0.92381 0.53627 0.73699 0.0
C5296 C 0.94796 0.52503 0.72451 0.0
C5297 C 0.93862 0.52252 0.70694 0.0
C5298 C 0.92201 0.52735 0.70443 0.0
C5299 C 0.91462 0.53412 0.71936 0.0
C5300 C 0.94593 0.51423 0.69136 0.0
C5301 C 0.93443 0.49911 0.68005 0.0
C5302 C 0.9644 0.52053 0.68824 0.0
C5303 C 0.97694 0.53713 0.69883 0.0
C5304 C 0.97207 0.55357 0.70013 0.0
C5305 C 0.98392 0.56914 0.71019 0.0
C5306 C 0.00075 0.56845 0.71892 0.0
C5307 C 0.00578 0.55221 0.71756 0.0
C5308 C 0.99397 0.5366 0.70753 0.0
C5309 C 0.96783 0.48837 0.61411 0.0
C5310 C 0.98551 0.48569 0.61607 0.0
C5311 C 0.95858 0.49033 0.6292 0.0
C5312 C 0.96677 0.48942 0.64652 0.0
C5313 C 0.98365 0.48504 0.64831 0.0
C5314 C 0.99297 0.48317 0.63319 0.0
C5315 C 0.95946 0.49634 0.66276 0.0
C5316 C 0.97096 0.51133 0.67417 0.0
C5317 C 0.94094 0.4901 0.6657 0.0
C5318 C 0.92819 0.47422 0.65411 0.0
C5319 C 0.93298 0.45779 0.65096 0.0
C5320 C 0.92101 0.44297 0.63984 0.0
C5321 C 0.90415 0.44437 0.63186 0.0
C5322 C 0.89922 0.46059 0.63502 0.0
C5323 C 0.91114 0.47545 0.64612 0.0
H5324 H 0.89491 0.43289 0.62325 0.0
H5325 H 0.0099 0.58052 0.7267 0.0
H5326 H 0.29171 0.23242 0.4644 0.0
H5327 H 0.29473 0.2428 0.43477 0.0
H5328 H 0.27758 0.18762 0.40832 0.0
H5329 H 0.27543 0.17721 0.4379 0.0
H5330 H 0.30257 0.20503 0.39126 0.0
H5331 H 0.24763 0.2163 0.41151 0.0
H5332 H 0.22909 0.22857 0.4327 0.0
H5333 H 0.26113 0.28236 0.43056 0.0
H5334 H 0.28001 0.27039 0.40954 0.0
H5335 H 0.27527 0.22644 0.30311 0.0
H5336 H 0.27683 0.21455 0.33213 0.0
H5337 H 0.29773 0.26874 0.36055 0.0
H5338 H 0.29584 0.28066 0.33188 0.0
H5339 H 0.27049 0.25093 0.37608 0.0
H5340 H 0.32488 0.23845 0.35431 0.0
H5341 H 0.34207 0.22508 0.33246 0.0
H5342 H 0.3091 0.1721 0.33634 0.0
H5343 H 0.29154 0.18519 0.35803 0.0
C5344 C 0.28876 0.22252 0.45227 0.0
C5345 C 0.28323 0.20401 0.45348 0.0
C5346 C 0.29038 0.22845 0.43531 0.0
C5347 C 0.28599 0.21601 0.4192 0.0
C5348 C 0.28101 0.19751 0.42048 0.0
C5349 C 0.27974 0.19157 0.43743 0.0
C5350 C 0.28599 0.22221 0.40101 0.0
C5351 C 0.29539 0.21494 0.38789 0.0
C5352 C 0.27674 0.23522 0.39654 0.0
C5353 C 0.26533 0.24244 0.40908 0.0
C5354 C 0.25079 0.23074 0.41565 0.0
C5355 C 0.24021 0.23764 0.42762 0.0
C5356 C 0.24396 0.25623 0.433 0.0
C5357 C 0.25826 0.26796 0.42639 0.0
C5358 C 0.26889 0.26113 0.41444 0.0
C5359 C 0.28039 0.23578 0.31554 0.0
C5360 C 0.28531 0.2545 0.31518 0.0
C5361 C 0.28133 0.22897 0.33212 0.0
C5362 C 0.28744 0.24075 0.34856 0.0
C5363 C 0.29287 0.25938 0.34809 0.0
C5364 C 0.2918 0.26617 0.33163 0.0
C5365 C 0.2873 0.23399 0.36643 0.0
C5366 C 0.27773 0.24107 0.37947 0.0
C5367 C 0.29619 0.22066 0.37068 0.0
C5368 C 0.30679 0.21282 0.35767 0.0
C5369 C 0.3212 0.22396 0.3504 0.0
C5370 C 0.33103 0.21643 0.33805 0.0
C5371 C 0.32665 0.19776 0.33298 0.0
C5372 C 0.31246 0.18657 0.34026 0.0
C5373 C 0.30258 0.19403 0.35259 0.0
H5374 H 0.33428 0.19194 0.32343 0.0
H5375 H 0.23576 0.26154 0.44227 0.0
H5376 H 0.34285 0.63924 0.53453 0.0
H5377 H 0.36844 0.6274 0.52608 0.0
H5378 H 0.33743 0.57372 0.53147 0.0
H5379 H 0.31217 0.5855 0.54056 0.0
H5380 H 0.37312 0.5776 0.53993 0.0
H5381 H 0.33404 0.59185 0.49082 0.0
H5382 H 0.32049 0.61309 0.47575 0.0
H5383 H 0.37432 0.64603 0.47196 0.0
H5384 H 0.38817 0.62508 0.48722 0.0
H5385 H 0.39611 0.51701 0.47897 0.0
H5386 H 0.37648 0.53654 0.48768 0.0
H5387 H 0.42049 0.5835 0.48517 0.0
H5388 H 0.44014 0.56399 0.47645 0.0
H5389 H 0.38295 0.58709 0.47642 0.0
H5390 H 0.42211 0.57142 0.52265 0.0
H5391 H 0.43585 0.55039 0.53782 0.0
H5392 H 0.38246 0.52058 0.54718 0.0
H5393 H 0.36839 0.54134 0.53188 0.0
C5394 C 0.34174 0.62499 0.53444 0.0
C5395 C 0.3254 0.61318 0.53776 0.0
C5396 C 0.35633 0.61827 0.52958 0.0
C5397 C 0.35451 0.59965 0.52758 0.0
C5398 C 0.33899 0.58814 0.53277 0.0
C5399 C 0.32455 0.59488 0.53794 0.0
C5400 C 0.36732 0.59173 0.51783 0.0
C5401 C 0.37527 0.57968 0.52607 0.0
C5402 C 0.37043 0.59477 0.49986 0.0
C5403 C 0.36211 0.60704 0.49028 0.0
C5404 C 0.34296 0.60366 0.4868 0.0
C5405 C 0.33524 0.61564 0.47825 0.0
C5406 C 0.34654 0.63092 0.47294 0.0
C5407 C 0.36559 0.63421 0.4761 0.0
C5408 C 0.37338 0.62229 0.48469 0.0
C5409 C 0.40119 0.53144 0.47928 0.0
C5410 C 0.41953 0.53913 0.47723 0.0
C5411 C 0.39008 0.54256 0.48438 0.0
C5412 C 0.39731 0.56134 0.4874 0.0
C5413 C 0.4148 0.569 0.48293 0.0
C5414 C 0.42595 0.55789 0.47792 0.0
C5415 C 0.38807 0.57257 0.49834 0.0
C5416 C 0.38098 0.58524 0.49037 0.0
C5417 C 0.38578 0.57018 0.51658 0.0
C5418 C 0.3942 0.55782 0.52598 0.0
C5419 C 0.4133 0.5603 0.52783 0.0
C5420 C 0.42115 0.54845 0.53647 0.0
C5421 C 0.41003 0.53412 0.5434 0.0
C5422 C 0.39105 0.53167 0.54178 0.0
C5423 C 0.38314 0.54349 0.53315 0.0
H5424 H 0.41614 0.52495 0.55008 0.0
H5425 H 0.34053 0.6402 0.46635 0.0
H5426 H 0.8341 0.89618 0.52161 0.0
H5427 H 0.8667 0.91194 0.52482 0.0
H5428 H 0.85572 0.95804 0.55587 0.0
H5429 H 0.82299 0.94272 0.55138 0.0
H5430 H 0.87419 0.96916 0.5316 0.0
H5431 H 0.88175 0.92837 0.57378 0.0
H5432 H 0.87849 0.89874 0.58417 0.0
H5433 H 0.90789 0.88267 0.54135 0.0
H5434 H 0.91112 0.9121 0.53055 0.0
H5435 H 0.96698 0.01929 0.54802 0.0
H5436 H 0.93703 0.00144 0.55353 0.0
H5437 H 0.94269 0.95649 0.51655 0.0
H5438 H 0.97277 0.97403 0.51127 0.0
H5439 H 0.92778 0.94522 0.54603 0.0
H5440 H 0.91776 0.98472 0.50274 0.0
H5441 H 0.92108 0.01423 0.49206 0.0
H5442 H 0.89605 0.03245 0.53751 0.0
H5443 H 0.89281 0.00311 0.54858 0.0
C5444 C 0.83881 0.90951 0.52946 0.0
C5445 C 0.82621 0.91831 0.53628 0.0
C5446 C 0.85745 0.91851 0.53139 0.0
C5447 C 0.86381 0.9362 0.54074 0.0
C5448 C 0.85121 0.94447 0.54852 0.0
C5449 C 0.83255 0.93571 0.54606 0.0
C5450 C 0.88304 0.94686 0.54068 0.0
C5451 C 0.88587 0.964 0.5352 0.0
C5452 C 0.89839 0.94003 0.54473 0.0
C5453 C 0.89656 0.92239 0.55129 0.0
C5454 C 0.88742 0.91847 0.56651 0.0
C5455 C 0.88559 0.90172 0.57248 0.0
C5456 C 0.89295 0.88882 0.5634 0.0
C5457 C 0.90219 0.89267 0.54836 0.0
C5458 C 0.90404 0.90939 0.54233 0.0
C5459 C 0.96189 0.0056 0.5411 0.0
C5460 C 0.97218 -0.00183 0.52904 0.0
C5461 C 0.94477 0.99541 0.54427 0.0
C5462 C 0.93755 0.97772 0.53527 0.0
C5463 C 0.94801 0.97011 0.52364 0.0
C5464 C 0.96517 0.98022 0.52056 0.0
C5465 C 0.91871 0.96742 0.5372 0.0
C5466 C 0.916 0.95036 0.54281 0.0
C5467 C 0.90342 0.97429 0.53332 0.0
C5468 C 0.90521 0.99182 0.52657 0.0
C5469 C 0.91308 0.99507 0.51051 0.0
C5470 C 0.91493 0.01175 0.50438 0.0
C5471 C 0.90882 0.02522 0.51413 0.0
C5472 C 0.9008 0.02201 0.52999 0.0
C5473 C 0.89894 0.00537 0.53619 0.0
H5474 H 0.91027 0.03813 0.50936 0.0
H5475 H 0.89151 0.87586 0.56804 0.0
H5476 H 0.87412 0.05568 0.2553 0.0
H5477 H 0.85846 0.0796 0.25807 0.0
H5478 H 0.90694 0.11576 0.28929 0.0
H5479 H 0.92299 0.09196 0.2859 0.0
H5480 H 0.84855 0.09751 0.28447 0.0
H5481 H 0.90926 0.1589 0.28219 0.0
H5482 H 0.93917 0.16605 0.27027 0.0
H5483 H 0.91983 0.12053 0.22821 0.0
H5484 H 0.88975 0.11326 0.23974 0.0
H5485 H 0.81686 0.17527 0.3022 0.0
H5486 H 0.83664 0.15476 0.30345 0.0
H5487 H 0.84364 0.15721 0.24694 0.0
H5488 H 0.82403 0.17791 0.24568 0.0
H5489 H 0.87507 0.15703 0.26563 0.0
H5490 H 0.81235 0.12218 0.25969 0.0
H5491 H 0.78095 0.11389 0.26814 0.0
H5492 H 0.80174 0.10385 0.32025 0.0
H5493 H 0.8333 0.11233 0.31219 0.0
C5494 C 0.88146 0.0687 0.26282 0.0
C5495 C 0.89983 0.07197 0.27031 0.0
C5496 C 0.87246 0.08237 0.26443 0.0
C5497 C 0.88156 0.09957 0.27371 0.0
C5498 C 0.89974 0.10272 0.28175 0.0
C5499 C 0.90887 0.08908 0.2799 0.0
C5500 C 0.87191 0.11412 0.27462 0.0
C5501 C 0.85443 0.11055 0.28043 0.0
C5502 C 0.87942 0.13109 0.26916 0.0
C5503 C 0.89735 0.13544 0.26196 0.0
C5504 C 0.91139 0.15046 0.27036 0.0
C5505 C 0.92837 0.15452 0.26369 0.0
C5506 C 0.93142 0.14371 0.24854 0.0
C5507 C 0.91747 0.12886 0.23999 0.0
C5508 C 0.90046 0.12475 0.2466 0.0
C5509 C 0.82262 0.17142 0.29005 0.0
C5510 C 0.8187 0.17798 0.27377 0.0
C5511 C 0.83396 0.15976 0.2908 0.0
C5512 C 0.84138 0.15423 0.27521 0.0
C5513 C 0.83806 0.16131 0.25913 0.0
C5514 C 0.82683 0.1731 0.25842 0.0
C5515 C 0.85174 0.14032 0.27537 0.0
C5516 C 0.86932 0.14404 0.26982 0.0
C5517 C 0.84414 0.12328 0.28058 0.0
C5518 C 0.82518 0.11805 0.28541 0.0
C5519 C 0.81022 0.11832 0.273 0.0
C5520 C 0.7924 0.11357 0.27771 0.0
C5521 C 0.78935 0.10839 0.29474 0.0
C5522 C 0.80412 0.1079 0.30707 0.0
C5523 C 0.82198 0.11266 0.30244 0.0
H5524 H 0.77555 0.10472 0.29836 0.0
H5525 H 0.94458 0.14687 0.2434 0.0
H5526 H 0.73683 0.0946 0.00608 0.0
H5527 H 0.70563 0.07567 0.00597 0.0
H5528 H 0.68703 0.12321 0.02025 0.0
H5529 H 0.71794 0.1422 0.0201 0.0
H5530 H 0.68043 0.09651 0.04443 0.0
H5531 H 0.6735 0.10327 0.98131 0.0
H5532 H 0.67976 0.10135 0.94939 0.0
H5533 H 0.66955 0.04384 0.94569 0.0
H5534 H 0.66362 0.04545 0.97776 0.0
H5535 H 0.58407 0.07374 0.03056 0.0
H5536 H 0.61675 0.08577 0.02888 0.0
H5537 H 0.62313 0.03171 0.01941 0.0
H5538 H 0.59034 0.01949 0.02146 0.0
H5539 H 0.63725 0.05727 0.99337 0.0
H5540 H 0.64127 0.05105 0.05649 0.0
H5541 H 0.63262 0.05398 0.08757 0.0
H5542 H 0.64671 0.11161 0.09043 0.0
H5543 H 0.65517 0.10902 0.05924 0.0
C5544 C 0.726 0.101 0.00889 0.0
C5545 C 0.72979 0.11984 0.01326 0.0
C5546 C 0.70825 0.0902 0.00876 0.0
C5547 C 0.6942 0.09813 0.01317 0.0
C5548 C 0.6978 0.11693 0.01684 0.0
C5549 C 0.71543 0.12773 0.01673 0.0
C5550 C 0.67613 0.08692 0.01567 0.0
C5551 C 0.67095 0.08795 0.03327 0.0
C5552 C 0.66411 0.07544 0.00112 0.0
C5553 C 0.66848 0.07453 0.98208 0.0
C5554 C 0.67295 0.09025 0.97382 0.0
C5555 C 0.67634 0.0892 0.95566 0.0
C5556 C 0.67515 0.07249 0.94554 0.0
C5557 C 0.67056 0.05679 0.95357 0.0
C5558 C 0.6672 0.05776 0.97175 0.0
C5559 C 0.59247 0.06442 0.02831 0.0
C5560 C 0.58479 0.04572 0.02616 0.0
C5561 C 0.61107 0.07129 0.02739 0.0
C5562 C 0.62218 0.05956 0.02407 0.0
C5563 C 0.61464 0.04088 0.02204 0.0
C5564 C 0.59603 0.03397 0.02331 0.0
C5565 C 0.64152 0.06714 0.02203 0.0
C5566 C 0.64694 0.06548 0.00457 0.0
C5567 C 0.65374 0.07817 0.03665 0.0
C5568 C 0.64873 0.07982 0.05546 0.0
C5569 C 0.64237 0.06434 0.06368 0.0
C5570 C 0.63753 0.06594 0.08133 0.0
C5571 C 0.63908 0.08296 0.09096 0.0
C5572 C 0.64551 0.09843 0.08296 0.0
C5573 C 0.65035 0.0969 0.0653 0.0
H5574 H 0.63533 0.08417 0.10463 0.0
H5575 H 0.6777 0.07171 0.93146 0.0
H5576 H 0.21697 0.50482 0.25678 0.0
H5577 H 0.23483 0.48514 0.26784 0.0
H5578 H 0.18492 0.4461 0.27411 0.0
H5579 H 0.16695 0.46589 0.26343 0.0
H5580 H 0.21024 0.44901 0.30201 0.0
H5581 H 0.20668 0.44006 0.23759 0.0
H5582 H 0.20906 0.44829 0.20679 0.0
H5583 H 0.26701 0.47124 0.22059 0.0
H5584 H 0.26492 0.46337 0.2516 0.0
H5585 H 0.24382 0.37082 0.29669 0.0
H5586 H 0.22793 0.39432 0.29343 0.0
H5587 H 0.27959 0.43288 0.29193 0.0
H5588 H 0.29561 0.40929 0.29491 0.0
H5589 H 0.25413 0.43104 0.26287 0.0
H5590 H 0.25553 0.43634 0.32839 0.0
H5591 H 0.25046 0.42401 0.35711 0.0
H5592 H 0.19308 0.40299 0.33831 0.0
H5593 H 0.19784 0.41507 0.30943 0.0
C5594 C 0.20981 0.4921 0.26062 0.0
C5595 C 0.19058 0.48681 0.25913 0.0
C5596 C 0.22001 0.48087 0.26689 0.0
C5597 C 0.21115 0.4641 0.27153 0.0
C5598 C 0.19199 0.45901 0.27057 0.0
C5599 C 0.18176 0.47028 0.2644 0.0
C5600 C 0.22187 0.45162 0.2768 0.0
C5601 C 0.21977 0.44499 0.29342 0.0
C5602 C 0.23429 0.44643 0.26557 0.0
C5603 C 0.2356 0.45134 0.24699 0.0
C5604 C 0.2199 0.44703 0.23412 0.0
C5605 C 0.2212 0.45159 0.21661 0.0
C5606 C 0.23817 0.46034 0.21175 0.0
C5607 C 0.25387 0.4645 0.22439 0.0
C5608 C 0.25264 0.45999 0.24193 0.0
C5609 C 0.25179 0.38438 0.2959 0.0
C5610 C 0.27089 0.3883 0.2959 0.0
C5611 C 0.24273 0.39777 0.29418 0.0
C5612 C 0.25263 0.41528 0.29253 0.0
C5613 C 0.27178 0.41942 0.29327 0.0
C5614 C 0.28089 0.40601 0.29506 0.0
C5615 C 0.24276 0.42871 0.28821 0.0
C5616 C 0.24487 0.43535 0.27162 0.0
C5617 C 0.22999 0.43347 0.29922 0.0
C5618 C 0.22706 0.42656 0.31674 0.0
C5619 C 0.24184 0.42904 0.33037 0.0
C5620 C 0.23902 0.42211 0.34668 0.0
C5621 C 0.22146 0.41272 0.34953 0.0
C5622 C 0.20667 0.41029 0.3361 0.0
C5623 C 0.20941 0.41722 0.31978 0.0
H5624 H 0.21931 0.40733 0.36215 0.0
H5625 H 0.23915 0.46385 0.19818 0.0
H5626 H 0.24226 0.4205 0.01656 0.0
H5627 H 0.21929 0.43712 0.01238 0.0
H5628 H 0.17933 0.39514 0.03123 0.0
H5629 H 0.20232 0.3779 0.03473 0.0
H5630 H 0.16356 0.40784 0.00418 0.0
H5631 H 0.20178 0.43419 0.05977 0.0
H5632 H 0.23072 0.44733 0.07999 0.0
H5633 H 0.2445 0.49069 0.04839 0.0
H5634 H 0.21575 0.47767 0.02781 0.0
H5635 H 0.10765 0.46648 0.03138 0.0
H5636 H 0.12701 0.44543 0.02956 0.0
H5637 H 0.1652 0.48226 0.0031 0.0
H5638 H 0.14575 0.5033 0.00488 0.0
H5639 H 0.18086 0.47147 0.03404 0.0
H5640 H 0.14059 0.44429 0.97899 0.0
H5641 H 0.11032 0.43119 0.96103 0.0
H5642 H 0.09879 0.38926 0.99462 0.0
H5643 H 0.12892 0.40226 0.01294 0.0
C5644 C 0.22858 0.41472 0.01976 0.0
C5645 C 0.22413 0.39801 0.02622 0.0
C5646 C 0.21545 0.42427 0.0174 0.0
C5647 C 0.19772 0.41759 0.02192 0.0
C5648 C 0.19298 0.40059 0.02777 0.0
C5649 C 0.20611 0.39081 0.02983 0.0
C5650 C 0.18452 0.42883 0.02115 0.0
C5651 C 0.16724 0.42168 0.01089 0.0
C5652 C 0.18938 0.44695 0.02979 0.0
C5653 C 0.20668 0.45486 0.04216 0.0
C5654 C 0.21105 0.44646 0.05705 0.0
C5655 C 0.22741 0.45389 0.06859 0.0
C5656 C 0.23946 0.46981 0.06545 0.0
C5657 C 0.23516 0.47835 0.05079 0.0
C5658 C 0.21882 0.47096 0.0392 0.0
C5659 C 0.12008 0.46991 0.02501 0.0
C5660 C 0.1253 0.48645 0.01837 0.0
C5661 C 0.13104 0.45789 0.02387 0.0
C5662 C 0.14747 0.46231 0.01614 0.0
C5663 C 0.15251 0.47864 0.00905 0.0
C5664 C 0.1414 0.49057 0.01002 0.0
C5665 C 0.16011 0.4506 0.01685 0.0
C5666 C 0.17724 0.45766 0.02725 0.0
C5667 C 0.15494 0.43237 0.00864 0.0
C5668 C 0.13696 0.42433 -0.00258 0.0
C5669 C 0.13156 0.43234 0.98262 0.0
C5670 C 0.11444 0.42492 0.97236 0.0
C5671 C 0.10263 0.40942 0.97669 0.0
C5672 C 0.10796 0.40126 0.99126 0.0
C5673 C 0.12507 0.40864 0.00158 0.0
H5674 H 0.08936 0.40372 0.96877 0.0
H5675 H 0.25212 0.47555 0.07441 0.0
H5676 H 0.90573 0.95239 0.22982 0.0
H5677 H 0.88299 0.92409 0.23128 0.0
H5678 H 0.86123 0.95045 0.27498 0.0
H5679 H 0.88373 0.97894 0.27341 0.0
H5680 H 0.86986 0.91764 0.28183 0.0
H5681 H 0.8361 0.94016 0.23727 0.0
H5682 H 0.83064 0.95302 0.20924 0.0
H5683 H 0.83888 0.9065 0.17721 0.0
H5684 H 0.84469 0.89347 0.2051 0.0
H5685 H 0.79213 0.84392 0.28359 0.0
H5686 H 0.81048 0.87416 0.28075 0.0
H5687 H 0.83516 0.85166 0.23693 0.0
H5688 H 0.8171 0.82136 0.23986 0.0
H5689 H 0.82356 0.88336 0.23055 0.0
H5690 H 0.85924 0.86184 0.27492 0.0
H5691 H 0.86494 0.84882 0.3028 0.0
H5692 H 0.85338 0.89349 0.33501 0.0
H5693 H 0.8473 0.90665 0.30725 0.0
C5694 C 0.896 0.95221 0.23964 0.0
C5695 C 0.89651 0.96788 0.25151 0.0
C5696 C 0.883 0.93606 0.2404 0.0
C5697 C 0.87045 0.93525 0.2532 0.0
C5698 C 0.87081 0.95087 0.26499 0.0
C5699 C 0.88361 0.96712 0.26402 0.0
C5700 C 0.85753 0.91785 0.25475 0.0
C5701 C 0.8595 0.91029 0.27076 0.0
C5702 C 0.84438 0.90813 0.24011 0.0
C5703 C 0.84104 0.91594 0.2233 0.0
C5704 C 0.83695 0.93276 0.22427 0.0
C5705 C 0.83375 0.94006 0.2084 0.0
C5706 C 0.83447 0.93061 0.19146 0.0
C5707 C 0.83836 0.91381 0.19035 0.0
C5708 C 0.8416 0.90646 0.20618 0.0
C5709 C 0.80137 0.84543 0.27327 0.0
C5710 C 0.80324 0.83029 0.26199 0.0
C5711 C 0.81185 0.86268 0.2717 0.0
C5712 C 0.82418 0.86506 0.25868 0.0
C5713 C 0.82569 0.85004 0.24705 0.0
C5714 C 0.81544 0.83277 0.2488 0.0
C5715 C 0.83594 0.88317 0.25759 0.0
C5716 C 0.83381 0.89081 0.24167 0.0
C5717 C 0.84899 0.89296 0.27229 0.0
C5718 C 0.85257 0.88509 0.289 0.0
C5719 C 0.85771 0.86879 0.28793 0.0
C5720 C 0.86105 0.8614 0.30371 0.0
C5721 C 0.85946 0.87028 0.32066 0.0
C5722 C 0.85456 0.8866 0.32186 0.0
C5723 C 0.85117 0.89403 0.30611 0.0
H5724 H 0.86207 0.86455 0.33287 0.0
H5725 H 0.83197 0.93628 0.17918 0.0
H5726 H 0.69532 0.07305 0.73519 0.0
H5727 H 0.71407 0.10366 0.73493 0.0
H5728 H 0.66595 0.12371 0.73761 0.0
H5729 H 0.64705 0.09303 0.73687 0.0
H5730 H 0.68512 0.13946 0.71495 0.0
H5731 H 0.69931 0.12703 0.77577 0.0
H5732 H 0.70994 0.11072 0.79924 0.0
H5733 H 0.76238 0.1191 0.77931 0.0
H5734 H 0.75196 0.13529 0.75559 0.0
H5735 H 0.72069 0.22901 0.75794 0.0
H5736 H 0.70595 0.1971 0.74848 0.0
H5737 H 0.75779 0.18787 0.73672 0.0
H5738 H 0.77279 0.21986 0.74628 0.0
H5739 H 0.74011 0.166 0.76004 0.0
H5740 H 0.72576 0.18371 0.70237 0.0
H5741 H 0.71423 0.20207 0.68158 0.0
H5742 H 0.66067 0.18565 0.69852 0.0
H5743 H 0.67193 0.16742 0.71962 0.0
C5744 C 0.68879 0.08402 0.73574 0.0
C5745 C 0.66978 0.08076 0.73612 0.0
C5746 C 0.69951 0.10149 0.73565 0.0
C5747 C 0.69145 0.11599 0.73653 0.0
C5748 C 0.67245 0.1127 0.73688 0.0
C5749 C 0.66167 0.09521 0.73653 0.0
C5750 C 0.70271 0.13465 0.73709 0.0
C5751 C 0.69708 0.14529 0.7249 0.0
C5752 C 0.71863 0.1421 0.74971 0.0
C5753 C 0.72477 0.13212 0.76376 0.0
C5754 C 0.71304 0.12523 0.77628 0.0
C5755 C 0.71904 0.11605 0.78966 0.0
C5756 C 0.7368 0.11381 0.79072 0.0
C5757 C 0.74861 0.12079 0.77844 0.0
C5758 C 0.74267 0.12997 0.76503 0.0
C5759 C 0.72895 0.22026 0.75318 0.0
C5760 C 0.74792 0.22687 0.75303 0.0
C5761 C 0.72047 0.20208 0.74762 0.0
C5762 C 0.73082 0.19029 0.74179 0.0
C5763 C 0.74965 0.19689 0.74111 0.0
C5764 C 0.75815 0.21512 0.74657 0.0
C5765 C 0.72218 0.17082 0.73828 0.0
C5766 C 0.72834 0.16003 0.74989 0.0
C5767 C 0.70655 0.16337 0.72542 0.0
C5768 C 0.69972 0.17425 0.71263 0.0
C5769 C 0.71155 0.18411 0.70175 0.0
C5770 C 0.70506 0.19448 0.6899 0.0
C5771 C 0.68673 0.19502 0.68873 0.0
C5772 C 0.67486 0.1852 0.69942 0.0
C5773 C 0.68128 0.17482 0.71131 0.0
H5774 H 0.68172 0.20302 0.67952 0.0
H5775 H 0.74143 0.10671 0.80109 0.0
loop_
_geom_bond_atom_site_label_1
_geom_bond_atom_site_label_2
_geom_bond_distance
_geom_bond_site_symmetry_2
_ccdc_geom_bond_type
C0 O1 1.306 1_655 S
C0 O3 1.160 1_655 S
O1 C0 1.306 1_455 S
O1 Cd2 2.228 . S
Cd2 O1 2.228 . S
Cd2 O6 2.273 . S
Cd2 O10 2.277 . S
O3 C0 1.160 1_455 S
O3 Cd4 2.203 . S
Cd4 O3 2.203 . S
Cd4 O6 2.411 . S
Cd4 O7 2.333 . S
Cd4 O8 2.352 . S
Cd4 O12 2.277 . S
Cd4 O13 2.356 . S
C5 O10 1.209 . S
C5 O12 1.226 . S
O6 Cd2 2.273 . S
O6 Cd4 2.411 . S
O6 C9 1.320 . S
O7 Cd4 2.333 . S
O7 C9 1.214 . S
O8 Cd4 2.352 . S
O8 C11 1.258 . S
C9 O6 1.320 . S
C9 O7 1.214 . S
O10 Cd2 2.277 . S
O10 C5 1.209 . S
C11 O8 1.258 . S
C11 O13 1.282 . S
O12 Cd4 2.277 . S
O12 C5 1.226 . S
O13 Cd4 2.356 . S
O13 C11 1.282 . S
C14 O15 1.329 . S
C14 O17 1.160 . S
O15 C14 1.329 . S
O15 Cd16 2.195 1_655 S
Cd16 O15 2.195 1_455 S
Cd16 O20 2.273 . S
Cd16 O24 2.277 . S
O17 C14 1.160 . S
O17 Cd18 2.203 1_655 S
Cd18 O17 2.203 1_455 S
Cd18 O20 2.411 . S
Cd18 O21 2.333 . S
Cd18 O22 2.352 . S
Cd18 O26 2.277 . S
Cd18 O27 2.356 . S
C19 O24 1.209 . S
C19 O26 1.226 . S
O20 Cd16 2.273 . S
O20 Cd18 2.411 . S
O20 C23 1.320 . S
O21 Cd18 2.333 . S
O21 C23 1.214 . S
O22 Cd18 2.352 . S
O22 C25 1.258 . S
C23 O20 1.320 . S
C23 O21 1.214 . S
O24 Cd16 2.277 . S
O24 C19 1.209 . S
C25 O22 1.258 . S
C25 O27 1.282 . S
O26 Cd18 2.277 . S
O26 C19 1.226 . S
O27 Cd18 2.356 . S
O27 C25 1.282 . S
C28 O29 1.306 . S
C28 O31 1.160 . S
O29 C28 1.306 . S
O29 Cd30 2.228 . S
Cd30 O29 2.228 . S
Cd30 O34 2.273 . S
Cd30 O38 2.277 . S
O31 C28 1.160 . S
O31 Cd32 2.203 . S
Cd32 O31 2.203 . S
Cd32 O34 2.411 . S
Cd32 O35 2.333 . S
Cd32 O36 2.352 . S
Cd32 O40 2.277 . S
Cd32 O41 2.356 . S
C33 O38 1.209 . S
C33 O40 1.226 . S
O34 Cd30 2.273 . S
O34 Cd32 2.411 . S
O34 C37 1.320 . S
O35 Cd32 2.333 . S
O35 C37 1.214 . S
O36 Cd32 2.352 . S
O36 C39 1.258 . S
C37 O34 1.320 . S
C37 O35 1.214 . S
O38 Cd30 2.277 . S
O38 C33 1.209 . S
C39 O36 1.258 . S
C39 O41 1.282 . S
O40 Cd32 2.277 . S
O40 C33 1.226 . S
O41 Cd32 2.356 . S
O41 C39 1.282 . S
C42 O43 1.306 . S
C42 O45 1.160 . S
O43 C42 1.306 . S
O43 Cd44 2.228 . S
Cd44 O43 2.228 . S
Cd44 O48 2.273 . S
Cd44 O52 2.277 . S
O45 C42 1.160 . S
O45 Cd46 2.203 . S
Cd46 O45 2.203 . S
Cd46 O48 2.411 . S
Cd46 O49 2.333 . S
Cd46 O50 2.352 . S
Cd46 O54 2.277 . S
Cd46 O55 2.356 . S
C47 O52 1.209 . S
C47 O54 1.226 . S
O48 Cd44 2.273 . S
O48 Cd46 2.411 . S
O48 C51 1.320 . S
O49 Cd46 2.333 . S
O49 C51 1.214 . S
O50 Cd46 2.352 . S
O50 C53 1.258 . S
C51 O48 1.320 . S
C51 O49 1.214 . S
O52 Cd44 2.277 . S
O52 C47 1.209 . S
C53 O50 1.258 . S
C53 O55 1.282 . S
O54 Cd46 2.277 . S
O54 C47 1.226 . S
O55 Cd46 2.356 . S
O55 C53 1.282 . S
C56 O57 1.306 . S
C56 O59 1.160 . S
O57 C56 1.306 . S
O57 Cd58 2.228 . S
Cd58 O57 2.228 . S
Cd58 O62 2.273 . S
Cd58 O66 2.277 . S
O59 C56 1.160 . S
O59 Cd60 2.203 . S
Cd60 O59 2.203 . S
Cd60 O62 2.411 . S
Cd60 O63 2.333 . S
Cd60 O64 2.352 . S
Cd60 O68 2.277 . S
Cd60 O69 2.356 . S
C61 O66 1.209 . S
C61 O68 1.226 . S
O62 Cd58 2.273 . S
O62 Cd60 2.411 . S
O62 C65 1.320 . S
O63 Cd60 2.333 . S
O63 C65 1.214 . S
O64 Cd60 2.352 . S
O64 C67 1.258 . S
C65 O62 1.320 . S
C65 O63 1.214 . S
O66 Cd58 2.277 . S
O66 C61 1.209 . S
C67 O64 1.258 . S
C67 O69 1.282 . S
O68 Cd60 2.277 . S
O68 C61 1.226 . S
O69 Cd60 2.356 . S
O69 C67 1.282 . S
C70 O71 1.306 . S
C70 O73 1.160 . S
O71 C70 1.306 . S
O71 Cd72 2.228 . S
Cd72 O71 2.228 . S
Cd72 O76 2.273 . S
Cd72 O80 2.277 . S
O73 C70 1.160 . S
O73 Cd74 2.203 . S
Cd74 O73 2.203 . S
Cd74 O76 2.411 . S
Cd74 O77 2.333 . S
Cd74 O78 2.352 . S
Cd74 O82 2.277 . S
Cd74 O83 2.356 . S
C75 O80 1.209 . S
C75 O82 1.226 . S
O76 Cd72 2.273 . S
O76 Cd74 2.411 . S
O76 C79 1.320 . S
O77 Cd74 2.333 . S
O77 C79 1.214 . S
O78 Cd74 2.352 . S
O78 C81 1.258 . S
C79 O76 1.320 . S
C79 O77 1.214 . S
O80 Cd72 2.277 . S
O80 C75 1.209 . S
C81 O78 1.258 . S
C81 O83 1.282 . S
O82 Cd74 2.277 . S
O82 C75 1.226 . S
O83 Cd74 2.356 . S
O83 C81 1.282 . S
C84 O85 1.306 . S
C84 O87 1.160 . S
O85 C84 1.306 . S
O85 Cd86 2.228 . S
Cd86 O85 2.228 . S
Cd86 O90 2.273 . S
Cd86 O94 2.277 . S
O87 C84 1.160 . S
O87 Cd88 2.203 . S
Cd88 O87 2.203 . S
Cd88 O90 2.411 . S
Cd88 O91 2.333 . S
Cd88 O92 2.352 . S
Cd88 O96 2.277 . S
Cd88 O97 2.356 . S
C89 O94 1.209 . S
C89 O96 1.226 . S
O90 Cd86 2.273 . S
O90 Cd88 2.411 . S
O90 C93 1.320 . S
O91 Cd88 2.333 . S
O91 C93 1.214 . S
O92 Cd88 2.352 . S
O92 C95 1.258 . S
C93 O90 1.320 . S
C93 O91 1.214 . S
O94 Cd86 2.277 . S
O94 C89 1.209 . S
C95 O92 1.258 . S
C95 O97 1.282 . S
O96 Cd88 2.277 . S
O96 C89 1.226 . S
O97 Cd88 2.356 . S
O97 C95 1.282 . S
C98 O99 1.306 . S
C98 O101 1.160 . S
O99 C98 1.306 . S
O99 Cd100 2.228 1_655 S
Cd100 O99 2.228 1_455 S
Cd100 O104 2.273 . S
Cd100 O108 2.277 . S
O101 C98 1.160 . S
O101 Cd102 2.203 1_655 S
Cd102 O101 2.203 1_455 S
Cd102 O104 2.411 . S
Cd102 O105 2.333 . S
Cd102 O106 2.352 1_455 S
Cd102 O110 2.277 . S
Cd102 O111 2.356 . S
C103 O108 1.209 . S
C103 O110 1.226 . S
O104 Cd100 2.273 . S
O104 Cd102 2.411 . S
O104 C107 1.320 . S
O105 Cd102 2.333 . S
O105 C107 1.214 . S
O106 Cd102 2.352 1_655 S
O106 C109 1.258 . S
C107 O104 1.320 . S
C107 O105 1.214 . S
O108 Cd100 2.277 . S
O108 C103 1.209 . S
C109 O106 1.258 . S
C109 O111 1.282 1_655 S
O110 Cd102 2.277 . S
O110 C103 1.226 . S
O111 Cd102 2.356 . S
O111 C109 1.282 1_455 S
C112 O113 1.306 1_545 S
C112 O115 1.160 . S
O113 C112 1.306 1_565 S
O113 Cd114 2.228 . S
Cd114 O113 2.228 . S
Cd114 O118 2.273 1_565 S
Cd114 O122 2.277 . S
O115 C112 1.160 . S
O115 Cd116 2.203 . S
Cd116 O115 2.203 . S
Cd116 O118 2.411 . S
Cd116 O119 2.333 . S
Cd116 O120 2.352 . S
Cd116 O124 2.277 1_545 S
Cd116 O125 2.356 . S
C117 O122 1.209 . S
C117 O124 1.226 . S
O118 Cd114 2.273 1_545 S
O118 Cd116 2.411 . S
O118 C121 1.320 . S
O119 Cd116 2.333 . S
O119 C121 1.214 . S
O120 Cd116 2.352 . S
O120 C123 1.258 . S
C121 O118 1.320 . S
C121 O119 1.214 . S
O122 Cd114 2.277 . S
O122 C117 1.209 . S
C123 O120 1.258 . S
C123 O125 1.282 . S
O124 Cd116 2.277 1_565 S
O124 C117 1.226 . S
O125 Cd116 2.356 . S
O125 C123 1.282 . S
C126 O127 1.306 . S
C126 O129 1.160 . S
O127 C126 1.306 . S
O127 Cd128 2.228 . S
Cd128 O127 2.228 . S
Cd128 O132 2.273 . S
Cd128 O136 2.277 . S
O129 C126 1.160 . S
O129 Cd130 2.203 . S
Cd130 O129 2.203 . S
Cd130 O132 2.411 . S
Cd130 O133 2.333 . S
Cd130 O134 2.352 . S
Cd130 O138 2.277 . S
Cd130 O139 2.356 . S
C131 O136 1.209 . S
C131 O138 1.226 . S
O132 Cd128 2.273 . S
O132 Cd130 2.411 . S
O132 C135 1.320 . S
O133 Cd130 2.333 . S
O133 C135 1.214 . S
O134 Cd130 2.352 . S
O134 C137 1.258 . S
C135 O132 1.320 . S
C135 O133 1.214 . S
O136 Cd128 2.277 . S
O136 C131 1.209 . S
C137 O134 1.258 . S
C137 O139 1.282 . S
O138 Cd130 2.277 . S
O138 C131 1.226 . S
O139 Cd130 2.356 . S
O139 C137 1.282 . S
C140 O141 1.306 . S
C140 O143 1.160 . S
O141 C140 1.306 . S
O141 Cd142 2.228 . S
Cd142 O141 2.228 . S
Cd142 O146 2.273 . S
Cd142 O150 2.277 . S
O143 C140 1.160 . S
O143 Cd144 2.203 . S
Cd144 O143 2.203 . S
Cd144 O146 2.411 . S
Cd144 O147 2.333 . S
Cd144 O148 2.345 1_545 S
Cd144 O152 2.277 . S
Cd144 O153 2.356 . S
C145 O150 1.209 . S
C145 O152 1.226 . S
O146 Cd142 2.273 . S
O146 Cd144 2.411 . S
O146 C149 1.320 . S
O147 Cd144 2.333 . S
O147 C149 1.214 . S
O148 Cd144 2.345 1_565 S
O148 C151 1.269 1_565 S
C149 O146 1.320 . S
C149 O147 1.214 . S
O150 Cd142 2.277 . S
O150 C145 1.209 . S
C151 O148 1.269 1_545 S
C151 O153 1.312 . S
O152 Cd144 2.277 . S
O152 C145 1.226 . S
O153 Cd144 2.356 . S
O153 C151 1.312 . S
C154 O155 1.292 1_554 S
C154 O157 1.172 . S
O155 C154 1.292 1_556 S
O155 Cd156 2.228 . S
Cd156 O155 2.228 . S
Cd156 O160 2.267 . S
Cd156 O164 2.277 . S
O157 C154 1.172 . S
O157 Cd158 2.203 . S
Cd158 O157 2.203 . S
Cd158 O160 2.412 1_554 S
Cd158 O161 2.331 . S
Cd158 O162 2.352 . S
Cd158 O166 2.277 1_554 S
Cd158 O167 2.356 . S
C159 O164 1.209 . S
C159 O166 1.226 . S
O160 Cd156 2.267 . S
O160 Cd158 2.412 1_556 S
O160 C163 1.322 . S
O161 Cd158 2.331 . S
O161 C163 1.204 1_554 S
O162 Cd158 2.352 . S
O162 C165 1.258 . S
C163 O160 1.322 . S
C163 O161 1.204 1_556 S
O164 Cd156 2.277 . S
O164 C159 1.209 . S
C165 O162 1.258 . S
C165 O167 1.282 . S
O166 Cd158 2.277 1_556 S
O166 C159 1.226 . S
O167 Cd158 2.356 . S
O167 C165 1.282 . S
C168 O169 1.306 . S
C168 O171 1.160 . S
O169 C168 1.306 . S
O169 Cd170 2.228 . S
Cd170 O169 2.228 . S
Cd170 O174 2.273 . S
Cd170 O178 2.277 1_554 S
O171 C168 1.160 . S
O171 Cd172 2.203 . S
Cd172 O171 2.203 . S
Cd172 O174 2.411 . S
Cd172 O175 2.333 . S
Cd172 O176 2.352 . S
Cd172 O180 2.277 . S
Cd172 O181 2.356 . S
C173 O178 1.209 . S
C173 O180 1.226 1_556 S
O174 Cd170 2.273 . S
O174 Cd172 2.411 . S
O174 C177 1.320 . S
O175 Cd172 2.333 . S
O175 C177 1.214 . S
O176 Cd172 2.352 . S
O176 C179 1.258 . S
C177 O174 1.320 . S
C177 O175 1.214 . S
O178 Cd170 2.277 1_556 S
O178 C173 1.209 . S
C179 O176 1.258 . S
C179 O181 1.282 . S
O180 Cd172 2.277 . S
O180 C173 1.226 1_554 S
O181 Cd172 2.356 . S
O181 C179 1.282 . S
C182 O183 1.306 . S
C182 O185 1.160 . S
O183 C182 1.306 . S
O183 Cd184 2.228 . S
Cd184 O183 2.228 . S
Cd184 O188 2.273 . S
Cd184 O192 2.277 . S
O185 C182 1.160 . S
O185 Cd186 2.203 . S
Cd186 O185 2.203 . S
Cd186 O188 2.411 . S
Cd186 O189 2.333 . S
Cd186 O190 2.352 . S
Cd186 O194 2.277 . S
Cd186 O195 2.356 . S
C187 O192 1.209 . S
C187 O194 1.226 . S
O188 Cd184 2.273 . S
O188 Cd186 2.411 . S
O188 C191 1.320 . S
O189 Cd186 2.333 . S
O189 C191 1.214 . S
O190 Cd186 2.352 . S
O190 C193 1.258 . S
C191 O188 1.320 . S
C191 O189 1.214 . S
O192 Cd184 2.277 . S
O192 C187 1.209 . S
C193 O190 1.258 . S
C193 O195 1.282 . S
O194 Cd186 2.277 . S
O194 C187 1.226 . S
O195 Cd186 2.356 . S
O195 C193 1.282 . S
C196 O197 1.306 . S
C196 O199 1.160 . S
O197 C196 1.306 . S
O197 Cd198 2.228 . S
Cd198 O197 2.228 . S
Cd198 O202 2.273 . S
Cd198 O206 2.277 . S
O199 C196 1.160 . S
O199 Cd200 2.203 . S
Cd200 O199 2.203 . S
Cd200 O202 2.411 . S
Cd200 O203 2.333 . S
Cd200 O204 2.352 . S
Cd200 O208 2.277 . S
Cd200 O209 2.356 . S
C201 O206 1.209 . S
C201 O208 1.226 . S
O202 Cd198 2.273 . S
O202 Cd200 2.411 . S
O202 C205 1.320 . S
O203 Cd200 2.333 . S
O203 C205 1.214 . S
O204 Cd200 2.352 . S
O204 C207 1.258 . S
C205 O202 1.320 . S
C205 O203 1.214 . S
O206 Cd198 2.277 . S
O206 C201 1.209 . S
C207 O204 1.258 . S
C207 O209 1.282 . S
O208 Cd200 2.277 . S
O208 C201 1.226 . S
O209 Cd200 2.356 . S
O209 C207 1.282 . S
C210 O211 1.306 . S
C210 O213 1.160 . S
O211 C210 1.306 . S
O211 Cd212 2.228 . S
Cd212 O211 2.228 . S
Cd212 O216 2.273 . S
Cd212 O220 2.277 . S
O213 C210 1.160 . S
O213 Cd214 2.203 . S
Cd214 O213 2.203 . S
Cd214 O216 2.411 . S
Cd214 O217 2.333 . S
Cd214 O218 2.352 . S
Cd214 O222 2.277 . S
Cd214 O223 2.356 . S
C215 O220 1.209 . S
C215 O222 1.226 . S
O216 Cd212 2.273 . S
O216 Cd214 2.411 . S
O216 C219 1.320 . S
O217 Cd214 2.333 . S
O217 C219 1.214 . S
O218 Cd214 2.352 . S
O218 C221 1.258 . S
C219 O216 1.320 . S
C219 O217 1.214 . S
O220 Cd212 2.277 . S
O220 C215 1.209 . S
C221 O218 1.258 . S
C221 O223 1.282 . S
O222 Cd214 2.277 . S
O222 C215 1.226 . S
O223 Cd214 2.356 . S
O223 C221 1.282 . S
C224 O225 1.306 . S
C224 O227 1.160 . S
O225 C224 1.306 . S
O225 Cd226 2.228 . S
Cd226 O225 2.228 . S
Cd226 O230 2.273 . S
Cd226 O234 2.277 1_545 S
O227 C224 1.160 . S
O227 Cd228 2.203 . S
Cd228 O227 2.203 . S
Cd228 O230 2.411 . S
Cd228 O231 2.333 . S
Cd228 O232 2.352 . S
Cd228 O236 2.277 . S
Cd228 O237 2.356 . S
C229 O234 1.209 . S
C229 O236 1.226 1_565 S
O230 Cd226 2.273 . S
O230 Cd228 2.411 . S
O230 C233 1.320 . S
O231 Cd228 2.333 . S
O231 C233 1.214 . S
O232 Cd228 2.352 . S
O232 C235 1.258 . S
C233 O230 1.320 . S
C233 O231 1.214 . S
O234 Cd226 2.277 1_565 S
O234 C229 1.209 . S
C235 O232 1.258 . S
C235 O237 1.282 . S
O236 Cd228 2.277 . S
O236 C229 1.226 1_545 S
O237 Cd228 2.356 . S
O237 C235 1.282 . S
C238 O239 1.306 . S
C238 O241 1.160 . S
O239 C238 1.306 . S
O239 Cd240 2.228 . S
Cd240 O239 2.228 . S
Cd240 O244 2.273 . S
Cd240 O248 2.277 . S
O241 C238 1.160 . S
O241 Cd242 2.203 . S
Cd242 O241 2.203 . S
Cd242 O244 2.411 . S
Cd242 O245 2.333 . S
Cd242 O246 2.352 . S
Cd242 O250 2.277 . S
Cd242 O251 2.356 . S
C243 O248 1.209 . S
C243 O250 1.226 . S
O244 Cd240 2.273 . S
O244 Cd242 2.411 . S
O244 C247 1.320 . S
O245 Cd242 2.333 . S
O245 C247 1.214 . S
O246 Cd242 2.352 . S
O246 C249 1.258 . S
C247 O244 1.320 . S
C247 O245 1.214 . S
O248 Cd240 2.277 . S
O248 C243 1.209 . S
C249 O246 1.258 . S
C249 O251 1.282 . S
O250 Cd242 2.277 . S
O250 C243 1.226 . S
O251 Cd242 2.356 . S
O251 C249 1.282 . S
C252 O253 1.306 . S
C252 O255 1.160 . S
O253 C252 1.306 . S
O253 Cd254 2.228 . S
Cd254 O253 2.228 . S
Cd254 O258 2.273 . S
Cd254 O262 2.277 . S
O255 C252 1.160 . S
O255 Cd256 2.203 . S
Cd256 O255 2.203 . S
Cd256 O258 2.411 . S
Cd256 O259 2.333 . S
Cd256 O260 2.352 . S
Cd256 O264 2.277 . S
Cd256 O265 2.356 . S
C257 O262 1.209 . S
C257 O264 1.226 . S
O258 Cd254 2.273 . S
O258 Cd256 2.411 . S
O258 C261 1.320 . S
O259 Cd256 2.333 . S
O259 C261 1.214 . S
O260 Cd256 2.352 . S
O260 C263 1.258 . S
C261 O258 1.320 . S
C261 O259 1.214 . S
O262 Cd254 2.277 . S
O262 C257 1.209 . S
C263 O260 1.258 . S
C263 O265 1.282 . S
O264 Cd256 2.277 . S
O264 C257 1.226 . S
O265 Cd256 2.356 . S
O265 C263 1.282 . S
C266 O267 1.306 . S
C266 O269 1.160 . S
O267 C266 1.306 . S
O267 Cd268 2.228 . S
Cd268 O267 2.228 . S
Cd268 O272 2.273 . S
Cd268 O276 2.277 . S
O269 C266 1.160 . S
O269 Cd270 2.203 . S
Cd270 O269 2.203 . S
Cd270 O272 2.411 . S
Cd270 O273 2.333 . S
Cd270 O274 2.352 . S
Cd270 O278 2.277 . S
Cd270 O279 2.356 . S
C271 O276 1.209 . S
C271 O278 1.226 . S
O272 Cd268 2.273 . S
O272 Cd270 2.411 . S
O272 C275 1.320 . S
O273 Cd270 2.333 . S
O273 C275 1.214 . S
O274 Cd270 2.352 . S
O274 C277 1.258 . S
C275 O272 1.320 . S
C275 O273 1.214 . S
O276 Cd268 2.277 . S
O276 C271 1.209 . S
C277 O274 1.258 . S
C277 O279 1.282 . S
O278 Cd270 2.277 . S
O278 C271 1.226 . S
O279 Cd270 2.356 . S
O279 C277 1.282 . S
C280 O281 1.306 . S
C280 O283 1.160 . S
O281 C280 1.306 . S
O281 Cd282 2.228 . S
Cd282 O281 2.228 . S
Cd282 O286 2.273 . S
Cd282 O290 2.277 . S
O283 C280 1.160 . S
O283 Cd284 2.203 . S
Cd284 O283 2.203 . S
Cd284 O286 2.411 . S
Cd284 O287 2.333 . S
Cd284 O288 2.352 1_554 S
Cd284 O292 2.277 . S
Cd284 O293 2.356 1_554 S
C285 O290 1.209 . S
C285 O292 1.226 . S
O286 Cd282 2.273 . S
O286 Cd284 2.411 . S
O286 C289 1.320 . S
O287 Cd284 2.333 . S
O287 C289 1.214 . S
O288 Cd284 2.352 1_556 S
O288 C291 1.258 . S
C289 O286 1.320 . S
C289 O287 1.214 . S
O290 Cd282 2.277 . S
O290 C285 1.209 . S
C291 O288 1.258 . S
C291 O293 1.282 . S
O292 Cd284 2.277 . S
O292 C285 1.226 . S
O293 Cd284 2.356 1_556 S
O293 C291 1.282 . S
C294 O295 1.306 . S
C294 O297 1.160 . S
O295 C294 1.306 . S
O295 Cd296 2.228 . S
Cd296 O295 2.228 . S
Cd296 O300 2.273 . S
Cd296 O304 2.277 . S
O297 C294 1.160 . S
O297 Cd298 2.203 . S
Cd298 O297 2.203 . S
Cd298 O300 2.411 . S
Cd298 O301 2.333 . S
Cd298 O302 2.352 . S
Cd298 O306 2.277 . S
Cd298 O307 2.356 . S
C299 O304 1.209 . S
C299 O306 1.226 . S
O300 Cd296 2.273 . S
O300 Cd298 2.411 . S
O300 C303 1.320 . S
O301 Cd298 2.333 . S
O301 C303 1.214 . S
O302 Cd298 2.352 . S
O302 C305 1.258 . S
C303 O300 1.320 . S
C303 O301 1.214 . S
O304 Cd296 2.277 . S
O304 C299 1.209 . S
C305 O302 1.258 . S
C305 O307 1.282 . S
O306 Cd298 2.277 . S
O306 C299 1.226 . S
O307 Cd298 2.356 . S
O307 C305 1.282 . S
C308 O309 1.306 . S
C308 O311 1.160 . S
O309 C308 1.306 . S
O309 Cd310 2.228 . S
Cd310 O309 2.228 . S
Cd310 O314 2.273 . S
Cd310 O318 2.277 . S
O311 C308 1.160 . S
O311 Cd312 2.203 . S
Cd312 O311 2.203 . S
Cd312 O314 2.411 . S
Cd312 O315 2.333 . S
Cd312 O316 2.352 . S
Cd312 O320 2.277 . S
Cd312 O321 2.356 . S
C313 O318 1.209 . S
C313 O320 1.226 . S
O314 Cd310 2.273 . S
O314 Cd312 2.411 . S
O314 C317 1.320 . S
O315 Cd312 2.333 . S
O315 C317 1.214 . S
O316 Cd312 2.352 . S
O316 C319 1.258 . S
C317 O314 1.320 . S
C317 O315 1.214 . S
O318 Cd310 2.277 . S
O318 C313 1.209 . S
C319 O316 1.258 . S
C319 O321 1.282 . S
O320 Cd312 2.277 . S
O320 C313 1.226 . S
O321 Cd312 2.356 . S
O321 C319 1.282 . S
C322 O323 1.306 . S
C322 O325 1.160 . S
O323 C322 1.306 . S
O323 Cd324 2.228 . S
Cd324 O323 2.228 . S
Cd324 O328 2.273 . S
Cd324 O332 2.277 . S
O325 C322 1.160 . S
O325 Cd326 2.203 . S
Cd326 O325 2.203 . S
Cd326 O328 2.411 . S
Cd326 O329 2.333 . S
Cd326 O330 2.352 . S
Cd326 O334 2.277 . S
Cd326 O335 2.356 . S
C327 O332 1.209 . S
C327 O334 1.226 . S
O328 Cd324 2.273 . S
O328 Cd326 2.411 . S
O328 C331 1.320 . S
O329 Cd326 2.333 . S
O329 C331 1.214 . S
O330 Cd326 2.352 . S
O330 C333 1.258 . S
C331 O328 1.320 . S
C331 O329 1.214 . S
O332 Cd324 2.277 . S
O332 C327 1.209 . S
C333 O330 1.258 . S
C333 O335 1.282 . S
O334 Cd326 2.277 . S
O334 C327 1.226 . S
O335 Cd326 2.356 . S
O335 C333 1.282 . S
Dy336 O339 2.307 . S
Dy336 O341 2.395 . S
Dy336 O342 2.379 . S
Dy336 O344 2.339 . S
Dy336 O346 2.298 . S
Dy336 O350 2.275 . S
Dy336 C358 2.738 . S
Dy337 O340 2.304 . S
Dy337 O343 2.288 . S
Dy337 O345 2.296 1_545 S
Dy337 O347 2.369 1_455 S
Dy337 O348 2.355 1_454 S
Dy337 O351 2.353 1_554 S
Dy337 C367 2.710 1_455 S
C338 O350 1.254 1_556 S
C338 O351 1.257 . S
O339 Dy336 2.307 . S
O339 C349 1.266 . S
O340 Dy337 2.304 . S
O340 C349 1.236 . S
O341 Dy336 2.395 . S
O341 C358 1.255 . S
O342 Dy336 2.379 . S
O342 C358 1.249 . S
O343 Dy337 2.288 . S
O343 C359 1.254 . S
O344 Dy336 2.339 . S
O344 C359 1.257 . S
O345 Dy337 2.296 1_565 S
O345 C360 1.281 . S
O346 Dy336 2.298 . S
O346 C360 1.236 1_545 S
O347 Dy337 2.369 1_655 S
O347 C367 1.255 . S
O348 Dy337 2.355 1_656 S
O348 C367 1.249 1_556 S
C349 O339 1.266 . S
C349 O340 1.236 . S
O350 Dy336 2.275 . S
O350 C338 1.254 1_554 S
O351 Dy337 2.353 1_556 S
O351 C338 1.257 . S
C352 C355 1.344 . S
C352 C356 1.328 . S
C352 C358 1.516 . S
C353 C354 1.305 1_545 S
C353 C357 1.323 . S
C354 C353 1.305 1_565 S
C354 C355 1.361 1_565 S
C354 H368 0.939 . S
C355 C352 1.344 . S
C355 C354 1.361 1_545 S
C355 H369 0.931 . S
C356 C352 1.328 . S
C356 C357 1.433 . S
C356 H370 0.931 . S
C357 C353 1.323 . S
C357 C356 1.433 . S
C357 H371 0.933 . S
C358 Dy336 2.738 . S
C358 O341 1.255 . S
C358 O342 1.249 . S
C358 C352 1.516 . S
C359 O343 1.254 . S
C359 O344 1.257 . S
C360 O345 1.281 . S
C360 O346 1.236 1_565 S
C361 C364 1.344 . S
C361 C365 1.328 1_554 S
C361 C367 1.516 . S
C362 C363 1.304 . S
C362 C366 1.323 1_554 S
C363 C362 1.304 . S
C363 C364 1.371 . S
C363 H372 0.930 . S
C364 C361 1.344 . S
C364 C363 1.371 . S
C364 H373 0.931 . S
C365 C361 1.328 1_556 S
C365 C366 1.433 . S
C365 H374 0.931 . S
C366 C362 1.323 1_556 S
C366 C365 1.433 . S
C366 H375 0.933 . S
C367 Dy337 2.710 1_655 S
C367 O347 1.255 . S
C367 O348 1.249 1_554 S
C367 C361 1.516 . S
H368 C354 0.939 . S
H369 C355 0.931 . S
H370 C356 0.931 . S
H371 C357 0.933 . S
H372 C363 0.930 . S
H373 C364 0.931 . S
H374 C365 0.931 . S
H375 C366 0.933 . S
Dy376 O379 2.307 . S
Dy376 O381 2.395 . S
Dy376 O382 2.379 . S
Dy376 O384 2.339 . S
Dy376 O386 2.298 . S
Dy376 O390 2.275 . S
Dy376 C398 2.738 . S
Dy377 O380 2.298 . S
Dy377 O383 2.275 . S
Dy377 O385 2.307 . S
Dy377 O387 2.395 . S
Dy377 O388 2.379 . S
Dy377 O391 2.339 . S
Dy377 C407 2.738 . S
C378 O390 1.254 . S
C378 O391 1.257 . S
O379 Dy376 2.307 . S
O379 C389 1.266 . S
O380 Dy377 2.298 . S
O380 C389 1.236 . S
O381 Dy376 2.395 . S
O381 C398 1.255 . S
O382 Dy376 2.379 . S
O382 C398 1.249 . S
O383 Dy377 2.275 . S
O383 C399 1.254 . S
O384 Dy376 2.339 . S
O384 C399 1.257 . S
O385 Dy377 2.307 . S
O385 C400 1.266 . S
O386 Dy376 2.298 . S
O386 C400 1.236 . S
O387 Dy377 2.395 . S
O387 C407 1.255 . S
O388 Dy377 2.379 . S
O388 C407 1.249 . S
C389 O379 1.266 . S
C389 O380 1.236 . S
O390 Dy376 2.275 . S
O390 C378 1.254 . S
O391 Dy377 2.339 . S
O391 C378 1.257 . S
C392 C395 1.344 . S
C392 C396 1.328 . S
C392 C398 1.516 . S
C393 C394 1.304 . S
C393 C397 1.323 . S
C394 C393 1.304 . S
C394 C395 1.371 . S
C394 H408 0.930 . S
C395 C392 1.344 . S
C395 C394 1.371 . S
C395 H409 0.931 . S
C396 C392 1.328 . S
C396 C397 1.433 . S
C396 H410 0.931 . S
C397 C393 1.323 . S
C397 C396 1.433 . S
C397 H411 0.933 . S
C398 Dy376 2.738 . S
C398 O381 1.255 . S
C398 O382 1.249 . S
C398 C392 1.516 . S
C399 O383 1.254 . S
C399 O384 1.257 . S
C400 O385 1.266 . S
C400 O386 1.236 . S
C401 C404 1.344 . S
C401 C405 1.328 . S
C401 C407 1.516 . S
C402 C403 1.304 . S
C402 C406 1.323 . S
C403 C402 1.304 . S
C403 C404 1.371 . S
C403 H412 0.930 . S
C404 C401 1.344 . S
C404 C403 1.371 . S
C404 H413 0.931 . S
C405 C401 1.328 . S
C405 C406 1.433 . S
C405 H414 0.931 . S
C406 C402 1.323 . S
C406 C405 1.433 . S
C406 H415 0.933 . S
C407 Dy377 2.738 . S
C407 O387 1.255 . S
C407 O388 1.249 . S
C407 C401 1.516 . S
H408 C394 0.930 . S
H409 C395 0.931 . S
H410 C396 0.931 . S
H411 C397 0.933 . S
H412 C403 0.930 . S
H413 C404 0.931 . S
H414 C405 0.931 . S
H415 C406 0.933 . S
Dy416 O419 2.279 1_545 S
Dy416 O421 2.395 . S
Dy416 O422 2.379 . S
Dy416 O424 2.339 . S
Dy416 O426 2.298 . S
Dy416 O430 2.275 . S
Dy416 C438 2.738 . S
Dy417 O420 2.298 . S
Dy417 O423 2.275 . S
Dy417 O425 2.307 . S
Dy417 O427 2.395 . S
Dy417 O428 2.379 . S
Dy417 O431 2.339 . S
Dy417 C447 2.738 . S
C418 O430 1.254 . S
C418 O431 1.257 . S
O419 Dy416 2.279 1_565 S
O419 C429 1.281 . S
O420 Dy417 2.298 . S
O420 C429 1.236 1_545 S
O421 Dy416 2.395 . S
O421 C438 1.255 . S
O422 Dy416 2.379 . S
O422 C438 1.249 . S
O423 Dy417 2.275 . S
O423 C439 1.254 . S
O424 Dy416 2.339 . S
O424 C439 1.257 . S
O425 Dy417 2.307 . S
O425 C440 1.266 . S
O426 Dy416 2.298 . S
O426 C440 1.236 . S
O427 Dy417 2.395 . S
O427 C447 1.255 . S
O428 Dy417 2.379 . S
O428 C447 1.249 . S
C429 O419 1.281 . S
C429 O420 1.236 1_565 S
O430 Dy416 2.275 . S
O430 C418 1.254 . S
O431 Dy417 2.339 . S
O431 C418 1.257 . S
C432 C435 1.344 . S
C432 C436 1.328 . S
C432 C438 1.516 . S
C433 C434 1.304 . S
C433 C437 1.323 . S
C434 C433 1.304 . S
C434 C435 1.371 . S
C434 H448 0.930 . S
C435 C432 1.344 . S
C435 C434 1.371 . S
C435 H449 0.931 . S
C436 C432 1.328 . S
C436 C437 1.433 . S
C436 H450 0.931 . S
C437 C433 1.323 . S
C437 C436 1.433 . S
C437 H451 0.933 . S
C438 Dy416 2.738 . S
C438 O421 1.255 . S
C438 O422 1.249 . S
C438 C432 1.516 . S
C439 O423 1.254 . S
C439 O424 1.257 . S
C440 O425 1.266 . S
C440 O426 1.236 . S
C441 C444 1.344 1_545 S
C441 C445 1.328 1_545 S
C441 C447 1.516 . S
C442 C443 1.304 . S
C442 C446 1.323 . S
C443 C442 1.304 . S
C443 C444 1.371 . S
C443 H452 0.930 . S
C444 C441 1.344 1_565 S
C444 C443 1.371 . S
C444 H453 0.931 . S
C445 C441 1.328 1_565 S
C445 C446 1.429 . S
C445 H454 0.934 1_565 S
C446 C442 1.323 . S
C446 C445 1.429 . S
C446 H455 0.933 . S
C447 Dy417 2.738 . S
C447 O427 1.255 . S
C447 O428 1.249 . S
C447 C441 1.516 . S
H448 C434 0.930 . S
H449 C435 0.931 . S
H450 C436 0.931 . S
H451 C437 0.933 . S
H452 C443 0.930 . S
H453 C444 0.931 . S
H454 C445 0.934 1_545 S
H455 C446 0.933 . S
Dy456 O459 2.307 . S
Dy456 O461 2.395 . S
Dy456 O462 2.379 . S
Dy456 O464 2.339 . S
Dy456 O466 2.298 . S
Dy456 O470 2.275 . S
Dy456 C478 2.738 . S
Dy457 O460 2.298 . S
Dy457 O463 2.275 . S
Dy457 O465 2.307 . S
Dy457 O467 2.395 . S
Dy457 O468 2.379 . S
Dy457 O471 2.339 . S
Dy457 C487 2.738 . S
C458 O470 1.254 . S
C458 O471 1.257 . S
O459 Dy456 2.307 . S
O459 C469 1.266 . S
O460 Dy457 2.298 . S
O460 C469 1.236 . S
O461 Dy456 2.395 . S
O461 C478 1.255 . S
O462 Dy456 2.379 . S
O462 C478 1.249 . S
O463 Dy457 2.275 . S
O463 C479 1.254 . S
O464 Dy456 2.339 . S
O464 C479 1.257 . S
O465 Dy457 2.307 . S
O465 C480 1.266 . S
O466 Dy456 2.298 . S
O466 C480 1.236 . S
O467 Dy457 2.395 . S
O467 C487 1.255 . S
O468 Dy457 2.379 . S
O468 C487 1.249 . S
C469 O459 1.266 . S
C469 O460 1.236 . S
O470 Dy456 2.275 . S
O470 C458 1.254 . S
O471 Dy457 2.339 . S
O471 C458 1.257 . S
C472 C475 1.344 . S
C472 C476 1.328 . S
C472 C478 1.516 . S
C473 C474 1.304 . S
C473 C477 1.323 . S
C474 C473 1.304 . S
C474 C475 1.371 . S
C474 H488 0.930 . S
C475 C472 1.344 . S
C475 C474 1.371 . S
C475 H489 0.931 . S
C476 C472 1.328 . S
C476 C477 1.433 . S
C476 H490 0.931 . S
C477 C473 1.323 . S
C477 C476 1.433 . S
C477 H491 0.933 . S
C478 Dy456 2.738 . S
C478 O461 1.255 . S
C478 O462 1.249 . S
C478 C472 1.516 . S
C479 O463 1.254 . S
C479 O464 1.257 . S
C480 O465 1.266 . S
C480 O466 1.236 . S
C481 C484 1.344 . S
C481 C485 1.328 . S
C481 C487 1.516 . S
C482 C483 1.304 . S
C482 C486 1.323 . S
C483 C482 1.304 . S
C483 C484 1.371 . S
C483 H492 0.930 . S
C484 C481 1.344 . S
C484 C483 1.371 . S
C484 H493 0.931 . S
C485 C481 1.328 . S
C485 C486 1.433 . S
C485 H494 0.931 . S
C486 C482 1.323 . S
C486 C485 1.433 . S
C486 H495 0.933 . S
C487 Dy457 2.738 . S
C487 O467 1.255 . S
C487 O468 1.249 . S
C487 C481 1.516 . S
H488 C474 0.930 . S
H489 C475 0.931 . S
H490 C476 0.931 . S
H491 C477 0.933 . S
H492 C483 0.930 . S
H493 C484 0.931 . S
H494 C485 0.931 . S
H495 C486 0.933 . S
Dy496 O499 2.307 . S
Dy496 O501 2.395 1_545 S
Dy496 O502 2.379 1_545 S
Dy496 O504 2.339 . S
Dy496 O506 2.298 . S
Dy496 O510 2.275 . S
Dy496 C518 2.738 1_545 S
Dy497 O500 2.298 . S
Dy497 O503 2.275 . S
Dy497 O505 2.307 . S
Dy497 O507 2.395 . S
Dy497 O508 2.379 . S
Dy497 O511 2.339 1_455 S
Dy497 C527 2.738 . S
C498 O510 1.254 1_655 S
C498 O511 1.257 . S
O499 Dy496 2.307 . S
O499 C509 1.266 . S
O500 Dy497 2.298 . S
O500 C509 1.236 . S
O501 Dy496 2.395 1_565 S
O501 C518 1.255 . S
O502 Dy496 2.379 1_565 S
O502 C518 1.249 . S
O503 Dy497 2.275 . S
O503 C519 1.254 . S
O504 Dy496 2.339 . S
O504 C519 1.257 . S
O505 Dy497 2.307 . S
O505 C520 1.266 . S
O506 Dy496 2.298 . S
O506 C520 1.236 . S
O507 Dy497 2.395 . S
O507 C527 1.255 . S
O508 Dy497 2.379 . S
O508 C527 1.249 . S
C509 O499 1.266 . S
C509 O500 1.236 . S
O510 Dy496 2.275 . S
O510 C498 1.254 1_455 S
O511 Dy497 2.339 1_655 S
O511 C498 1.257 . S
C512 C515 1.344 . S
C512 C516 1.328 . S
C512 C518 1.516 . S
C513 C514 1.304 . S
C513 C517 1.323 . S
C514 C513 1.304 . S
C514 C515 1.371 . S
C514 H528 0.930 . S
C515 C512 1.344 . S
C515 C514 1.371 . S
C515 H529 0.931 . S
C516 C512 1.328 . S
C516 C517 1.433 . S
C516 H530 0.931 . S
C517 C513 1.323 . S
C517 C516 1.433 . S
C517 H531 0.933 . S
C518 Dy496 2.738 1_565 S
C518 O501 1.255 . S
C518 O502 1.249 . S
C518 C512 1.516 . S
C519 O503 1.254 . S
C519 O504 1.257 . S
C520 O505 1.266 . S
C520 O506 1.236 . S
C521 C524 1.344 . S
C521 C525 1.328 1_455 S
C521 C527 1.516 . S
C522 C523 1.304 . S
C522 C526 1.323 1_455 S
C523 C522 1.304 . S
C523 C524 1.371 . S
C523 H532 0.930 . S
C524 C521 1.344 . S
C524 C523 1.371 . S
C524 H533 0.931 . S
C525 C521 1.328 1_655 S
C525 C526 1.433 . S
C525 H534 0.931 . S
C526 C522 1.323 1_655 S
C526 C525 1.433 . S
C526 H535 0.933 . S
C527 Dy497 2.738 . S
C527 O507 1.255 . S
C527 O508 1.249 . S
C527 C521 1.516 . S
H528 C514 0.930 . S
H529 C515 0.931 . S
H530 C516 0.931 . S
H531 C517 0.933 . S
H532 C523 0.930 . S
H533 C524 0.931 . S
H534 C525 0.931 . S
H535 C526 0.933 . S
Dy536 O539 2.307 . S
Dy536 O541 2.395 . S
Dy536 O542 2.379 . S
Dy536 O544 2.339 . S
Dy536 O546 2.298 . S
Dy536 O550 2.275 . S
Dy536 C558 2.738 . S
Dy537 O540 2.298 . S
Dy537 O543 2.275 . S
Dy537 O545 2.307 . S
Dy537 O547 2.395 . S
Dy537 O548 2.379 . S
Dy537 O551 2.339 . S
Dy537 C567 2.738 . S
C538 O550 1.254 . S
C538 O551 1.257 . S
O539 Dy536 2.307 . S
O539 C549 1.266 . S
O540 Dy537 2.298 . S
O540 C549 1.236 . S
O541 Dy536 2.395 . S
O541 C558 1.255 . S
O542 Dy536 2.379 . S
O542 C558 1.249 . S
O543 Dy537 2.275 . S
O543 C559 1.254 . S
O544 Dy536 2.339 . S
O544 C559 1.257 . S
O545 Dy537 2.307 . S
O545 C560 1.266 . S
O546 Dy536 2.298 . S
O546 C560 1.236 . S
O547 Dy537 2.395 . S
O547 C567 1.255 . S
O548 Dy537 2.379 . S
O548 C567 1.249 . S
C549 O539 1.266 . S
C549 O540 1.236 . S
O550 Dy536 2.275 . S
O550 C538 1.254 . S
O551 Dy537 2.339 . S
O551 C538 1.257 . S
C552 C555 1.344 . S
C552 C556 1.328 . S
C552 C558 1.516 . S
C553 C554 1.304 . S
C553 C557 1.323 . S
C554 C553 1.304 . S
C554 C555 1.371 . S
C554 H568 0.930 . S
C555 C552 1.344 . S
C555 C554 1.371 . S
C555 H569 0.931 . S
C556 C552 1.328 . S
C556 C557 1.433 . S
C556 H570 0.931 . S
C557 C553 1.323 . S
C557 C556 1.433 . S
C557 H571 0.933 . S
C558 Dy536 2.738 . S
C558 O541 1.255 . S
C558 O542 1.249 . S
C558 C552 1.516 . S
C559 O543 1.254 . S
C559 O544 1.257 . S
C560 O545 1.266 . S
C560 O546 1.236 . S
C561 C564 1.344 . S
C561 C565 1.328 . S
C561 C567 1.516 . S
C562 C563 1.304 . S
C562 C566 1.323 . S
C563 C562 1.304 . S
C563 C564 1.371 . S
C563 H572 0.930 . S
C564 C561 1.344 . S
C564 C563 1.371 . S
C564 H573 0.931 . S
C565 C561 1.328 . S
C565 C566 1.433 . S
C565 H574 0.931 . S
C566 C562 1.323 . S
C566 C565 1.433 . S
C566 H575 0.933 . S
C567 Dy537 2.738 . S
C567 O547 1.255 . S
C567 O548 1.249 . S
C567 C561 1.516 . S
H568 C554 0.930 . S
H569 C555 0.931 . S
H570 C556 0.931 . S
H571 C557 0.933 . S
H572 C563 0.930 . S
H573 C564 0.931 . S
H574 C565 0.931 . S
H575 C566 0.933 . S
Dy576 O579 2.307 1_556 S
Dy576 O581 2.395 . S
Dy576 O582 2.379 . S
Dy576 O584 2.339 1_556 S
Dy576 O586 2.298 1_556 S
Dy576 O590 2.275 1_556 S
Dy576 C598 2.738 . S
Dy577 O580 2.298 . S
Dy577 O583 2.275 . S
Dy577 O585 2.307 . S
Dy577 O587 2.395 . S
Dy577 O588 2.424 . S
Dy577 O591 2.339 1_545 S
Dy577 C607 2.738 . S
C578 O590 1.253 1_565 S
C578 O591 1.257 . S
O579 Dy576 2.307 1_554 S
O579 C589 1.266 . S
O580 Dy577 2.298 . S
O580 C589 1.236 . S
O581 Dy576 2.395 . S
O581 C598 1.255 . S
O582 Dy576 2.379 . S
O582 C598 1.249 . S
O583 Dy577 2.275 . S
O583 C599 1.254 . S
O584 Dy576 2.339 1_554 S
O584 C599 1.257 . S
O585 Dy577 2.307 . S
O585 C600 1.266 . S
O586 Dy576 2.298 1_554 S
O586 C600 1.236 . S
O587 Dy577 2.395 . S
O587 C607 1.255 . S
O588 Dy577 2.424 . S
O588 C607 1.300 . S
C589 O579 1.266 . S
C589 O580 1.236 . S
O590 Dy576 2.275 1_554 S
O590 C578 1.253 1_545 S
O591 Dy577 2.339 1_565 S
O591 C578 1.257 . S
C592 C595 1.344 . S
C592 C596 1.328 . S
C592 C598 1.516 . S
C593 C594 1.304 . S
C593 C597 1.323 . S
C594 C593 1.304 . S
C594 C595 1.371 . S
C594 H608 0.930 . S
C595 C592 1.344 . S
C595 C594 1.371 . S
C595 H609 0.931 . S
C596 C592 1.328 . S
C596 C597 1.433 . S
C596 H610 0.931 . S
C597 C593 1.323 . S
C597 C596 1.433 . S
C597 H611 0.933 . S
C598 Dy576 2.738 . S
C598 O581 1.255 . S
C598 O582 1.249 . S
C598 C592 1.516 . S
C599 O583 1.254 . S
C599 O584 1.257 . S
C600 O585 1.266 . S
C600 O586 1.236 . S
C601 C604 1.344 . S
C601 C605 1.328 1_545 S
C601 C607 1.516 . S
C602 C603 1.304 1_565 S
C602 C606 1.323 . S
C603 C602 1.304 1_545 S
C603 C604 1.371 . S
C603 H612 0.930 . S
C604 C601 1.344 . S
C604 C603 1.371 . S
C604 H613 0.931 . S
C605 C601 1.328 1_565 S
C605 C606 1.433 . S
C605 H614 0.931 . S
C606 C602 1.323 . S
C606 C605 1.433 . S
C606 H615 0.933 . S
C607 Dy577 2.738 . S
C607 O587 1.255 . S
C607 O588 1.300 . S
C607 C601 1.516 . S
H608 C594 0.930 . S
H609 C595 0.931 . S
H610 C596 0.931 . S
H611 C597 0.933 . S
H612 C603 0.930 . S
H613 C604 0.931 . S
H614 C605 0.931 . S
H615 C606 0.933 . S
Dy616 O619 2.307 . S
Dy616 O621 2.395 . S
Dy616 O622 2.379 . S
Dy616 O624 2.339 . S
Dy616 O626 2.298 . S
Dy616 O630 2.275 . S
Dy616 C638 2.738 . S
Dy617 O620 2.298 . S
Dy617 O623 2.275 . S
Dy617 O625 2.307 . S
Dy617 O627 2.395 . S
Dy617 O628 2.379 . S
Dy617 O631 2.339 . S
Dy617 C647 2.738 . S
C618 O630 1.254 . S
C618 O631 1.257 . S
O619 Dy616 2.307 . S
O619 C629 1.266 . S
O620 Dy617 2.298 . S
O620 C629 1.236 . S
O621 Dy616 2.395 . S
O621 C638 1.255 . S
O622 Dy616 2.379 . S
O622 C638 1.249 . S
O623 Dy617 2.275 . S
O623 C639 1.254 . S
O624 Dy616 2.339 . S
O624 C639 1.257 . S
O625 Dy617 2.307 . S
O625 C640 1.266 . S
O626 Dy616 2.298 . S
O626 C640 1.236 . S
O627 Dy617 2.395 . S
O627 C647 1.255 . S
O628 Dy617 2.379 . S
O628 C647 1.249 . S
C629 O619 1.266 . S
C629 O620 1.236 . S
O630 Dy616 2.275 . S
O630 C618 1.254 . S
O631 Dy617 2.339 . S
O631 C618 1.257 . S
C632 C635 1.344 . S
C632 C636 1.328 . S
C632 C638 1.516 . S
C633 C634 1.304 . S
C633 C637 1.323 . S
C634 C633 1.304 . S
C634 C635 1.371 . S
C634 H648 0.930 . S
C635 C632 1.344 . S
C635 C634 1.371 . S
C635 H649 0.931 . S
C636 C632 1.328 . S
C636 C637 1.433 . S
C636 H650 0.931 . S
C637 C633 1.323 . S
C637 C636 1.433 . S
C637 H651 0.933 . S
C638 Dy616 2.738 . S
C638 O621 1.255 . S
C638 O622 1.249 . S
C638 C632 1.516 . S
C639 O623 1.254 . S
C639 O624 1.257 . S
C640 O625 1.266 . S
C640 O626 1.236 . S
C641 C644 1.344 . S
C641 C645 1.328 . S
C641 C647 1.516 . S
C642 C643 1.304 . S
C642 C646 1.323 . S
C643 C642 1.304 . S
C643 C644 1.371 . S
C643 H652 0.930 . S
C644 C641 1.344 . S
C644 C643 1.371 . S
C644 H653 0.931 . S
C645 C641 1.328 . S
C645 C646 1.433 . S
C645 H654 0.931 . S
C646 C642 1.323 . S
C646 C645 1.433 . S
C646 H655 0.933 . S
C647 Dy617 2.738 . S
C647 O627 1.255 . S
C647 O628 1.249 . S
C647 C641 1.516 . S
H648 C634 0.930 . S
H649 C635 0.931 . S
H650 C636 0.931 . S
H651 C637 0.933 . S
H652 C643 0.930 . S
H653 C644 0.931 . S
H654 C645 0.931 . S
H655 C646 0.933 . S
Dy656 O659 2.307 1_554 S
Dy656 O661 2.395 . S
Dy656 O662 2.379 . S
Dy656 O664 2.339 . S
Dy656 O666 2.298 . S
Dy656 O670 2.275 . S
Dy656 C678 2.738 . S
Dy657 O660 2.298 1_554 S
Dy657 O663 2.275 . S
Dy657 O665 2.307 . S
Dy657 O667 2.395 . S
Dy657 O668 2.379 . S
Dy657 O671 2.339 . S
Dy657 C687 2.738 . S
C658 O670 1.254 . S
C658 O671 1.257 . S
O659 Dy656 2.307 1_556 S
O659 C669 1.266 . S
O660 Dy657 2.298 1_556 S
O660 C669 1.236 . S
O661 Dy656 2.395 . S
O661 C678 1.255 . S
O662 Dy656 2.379 . S
O662 C678 1.249 . S
O663 Dy657 2.275 . S
O663 C679 1.254 . S
O664 Dy656 2.339 . S
O664 C679 1.257 . S
O665 Dy657 2.307 . S
O665 C680 1.266 . S
O666 Dy656 2.298 . S
O666 C680 1.236 . S
O667 Dy657 2.395 . S
O667 C687 1.255 . S
O668 Dy657 2.379 . S
O668 C687 1.249 . S
C669 O659 1.266 . S
C669 O660 1.236 . S
O670 Dy656 2.275 . S
O670 C658 1.254 . S
O671 Dy657 2.339 . S
O671 C658 1.257 . S
C672 C675 1.344 . S
C672 C676 1.328 . S
C672 C678 1.516 . S
C673 C674 1.304 . S
C673 C677 1.323 . S
C674 C673 1.304 . S
C674 C675 1.371 . S
C674 H688 0.930 . S
C675 C672 1.344 . S
C675 C674 1.371 . S
C675 H689 0.931 . S
C676 C672 1.328 . S
C676 C677 1.433 . S
C676 H690 0.931 . S
C677 C673 1.323 . S
C677 C676 1.433 . S
C677 H691 0.933 . S
C678 Dy656 2.738 . S
C678 O661 1.255 . S
C678 O662 1.249 . S
C678 C672 1.516 . S
C679 O663 1.254 . S
C679 O664 1.257 . S
C680 O665 1.266 . S
C680 O666 1.236 . S
C681 C684 1.344 . S
C681 C685 1.328 . S
C681 C687 1.516 1_556 S
C682 C683 1.304 . S
C682 C686 1.323 . S
C683 C682 1.304 . S
C683 C684 1.371 . S
C683 H692 0.930 . S
C684 C681 1.344 . S
C684 C683 1.371 . S
C684 H693 0.931 . S
C685 C681 1.328 . S
C685 C686 1.433 . S
C685 H694 0.931 1_556 S
C686 C682 1.323 . S
C686 C685 1.433 . S
C686 H695 0.933 . S
C687 Dy657 2.738 . S
C687 O667 1.255 . S
C687 O668 1.249 . S
C687 C681 1.516 1_554 S
H688 C674 0.930 . S
H689 C675 0.931 . S
H690 C676 0.931 . S
H691 C677 0.933 . S
H692 C683 0.930 . S
H693 C684 0.931 . S
H694 C685 0.931 1_554 S
H695 C686 0.933 . S
Dy696 O699 2.307 . S
Dy696 O701 2.395 . S
Dy696 O702 2.379 . S
Dy696 O704 2.339 . S
Dy696 O706 2.298 . S
Dy696 O710 2.275 . S
Dy696 C718 2.738 . S
Dy697 O700 2.298 . S
Dy697 O703 2.275 . S
Dy697 O705 2.307 . S
Dy697 O707 2.395 . S
Dy697 O708 2.379 . S
Dy697 O711 2.339 . S
Dy697 C727 2.738 . S
C698 O710 1.254 . S
C698 O711 1.257 . S
O699 Dy696 2.307 . S
O699 C709 1.266 . S
O700 Dy697 2.298 . S
O700 C709 1.236 . S
O701 Dy696 2.395 . S
O701 C718 1.255 . S
O702 Dy696 2.379 . S
O702 C718 1.249 . S
O703 Dy697 2.275 . S
O703 C719 1.254 . S
O704 Dy696 2.339 . S
O704 C719 1.257 . S
O705 Dy697 2.307 . S
O705 C720 1.266 . S
O706 Dy696 2.298 . S
O706 C720 1.236 . S
O707 Dy697 2.395 . S
O707 C727 1.255 . S
O708 Dy697 2.379 . S
O708 C727 1.249 . S
C709 O699 1.266 . S
C709 O700 1.236 . S
O710 Dy696 2.275 . S
O710 C698 1.254 . S
O711 Dy697 2.339 . S
O711 C698 1.257 . S
C712 C715 1.344 . S
C712 C716 1.328 . S
C712 C718 1.516 . S
C713 C714 1.304 . S
C713 C717 1.323 . S
C714 C713 1.304 . S
C714 C715 1.371 . S
C714 H728 0.930 . S
C715 C712 1.344 . S
C715 C714 1.371 . S
C715 H729 0.931 . S
C716 C712 1.328 . S
C716 C717 1.433 . S
C716 H730 0.931 . S
C717 C713 1.323 . S
C717 C716 1.433 . S
C717 H731 0.933 . S
C718 Dy696 2.738 . S
C718 O701 1.255 . S
C718 O702 1.249 . S
C718 C712 1.516 . S
C719 O703 1.254 . S
C719 O704 1.257 . S
C720 O705 1.266 . S
C720 O706 1.236 . S
C721 C724 1.344 . S
C721 C725 1.328 . S
C721 C727 1.516 . S
C722 C723 1.304 . S
C722 C726 1.323 . S
C723 C722 1.304 . S
C723 C724 1.371 . S
C723 H732 0.930 . S
C724 C721 1.344 . S
C724 C723 1.371 . S
C724 H733 0.931 . S
C725 C721 1.328 . S
C725 C726 1.433 . S
C725 H734 0.931 . S
C726 C722 1.323 . S
C726 C725 1.433 . S
C726 H735 0.933 . S
C727 Dy697 2.738 . S
C727 O707 1.255 . S
C727 O708 1.249 . S
C727 C721 1.516 . S
H728 C714 0.930 . S
H729 C715 0.931 . S
H730 C716 0.931 . S
H731 C717 0.933 . S
H732 C723 0.930 . S
H733 C724 0.931 . S
H734 C725 0.931 . S
H735 C726 0.933 . S
Dy736 O739 2.307 1_455 S
Dy736 O741 2.395 . S
Dy736 O742 2.379 . S
Dy736 O744 2.339 . S
Dy736 O746 2.298 . S
Dy736 O750 2.275 . S
Dy736 C758 2.738 . S
Dy737 O740 2.298 1_455 S
Dy737 O743 2.275 . S
Dy737 O745 2.307 . S
Dy737 O747 2.395 . S
Dy737 O748 2.379 . S
Dy737 O751 2.339 . S
Dy737 C767 2.738 . S
C738 O750 1.254 . S
C738 O751 1.257 . S
O739 Dy736 2.307 1_655 S
O739 C749 1.266 . S
O740 Dy737 2.298 1_655 S
O740 C749 1.236 . S
O741 Dy736 2.395 . S
O741 C758 1.255 . S
O742 Dy736 2.379 . S
O742 C758 1.249 . S
O743 Dy737 2.275 . S
O743 C759 1.254 . S
O744 Dy736 2.339 . S
O744 C759 1.257 . S
O745 Dy737 2.307 . S
O745 C760 1.266 . S
O746 Dy736 2.298 . S
O746 C760 1.236 . S
O747 Dy737 2.395 . S
O747 C767 1.255 . S
O748 Dy737 2.379 . S
O748 C767 1.249 . S
C749 O739 1.266 . S
C749 O740 1.236 . S
O750 Dy736 2.275 . S
O750 C738 1.254 . S
O751 Dy737 2.339 . S
O751 C738 1.257 . S
C752 C755 1.344 . S
C752 C756 1.328 . S
C752 C758 1.516 . S
C753 C754 1.304 . S
C753 C757 1.323 . S
C754 C753 1.304 . S
C754 C755 1.371 . S
C754 H768 0.930 . S
C755 C752 1.344 . S
C755 C754 1.371 . S
C755 H769 0.931 . S
C756 C752 1.328 . S
C756 C757 1.433 . S
C756 H770 0.931 . S
C757 C753 1.323 . S
C757 C756 1.433 . S
C757 H771 0.933 . S
C758 Dy736 2.738 . S
C758 O741 1.255 . S
C758 O742 1.249 . S
C758 C752 1.516 . S
C759 O743 1.254 . S
C759 O744 1.257 . S
C760 O745 1.266 . S
C760 O746 1.236 . S
C761 C764 1.344 . S
C761 C765 1.328 . S
C761 C767 1.516 1_655 S
C762 C763 1.304 . S
C762 C766 1.323 . S
C763 C762 1.304 . S
C763 C764 1.371 . S
C763 H772 0.930 . S
C764 C761 1.344 . S
C764 C763 1.371 . S
C764 H773 0.931 . S
C765 C761 1.328 . S
C765 C766 1.433 . S
C765 H774 0.931 1_655 S
C766 C762 1.323 . S
C766 C765 1.433 . S
C766 H775 0.933 . S
C767 Dy737 2.738 . S
C767 O747 1.255 . S
C767 O748 1.249 . S
C767 C761 1.516 1_455 S
H768 C754 0.930 . S
H769 C755 0.931 . S
H770 C756 0.931 . S
H771 C757 0.933 . S
H772 C763 0.930 . S
H773 C764 0.931 . S
H774 C765 0.931 1_455 S
H775 C766 0.933 . S
Dy776 O779 2.307 . S
Dy776 O781 2.395 . S
Dy776 O782 2.379 . S
Dy776 O784 2.339 . S
Dy776 O786 2.298 . S
Dy776 O790 2.275 . S
Dy776 C798 2.738 . S
Dy777 O780 2.298 . S
Dy777 O783 2.275 . S
Dy777 O785 2.307 . S
Dy777 O787 2.395 . S
Dy777 O788 2.379 . S
Dy777 O791 2.339 . S
Dy777 C807 2.738 . S
C778 O790 1.254 . S
C778 O791 1.257 . S
O779 Dy776 2.307 . S
O779 C789 1.266 . S
O780 Dy777 2.298 . S
O780 C789 1.236 . S
O781 Dy776 2.395 . S
O781 C798 1.255 . S
O782 Dy776 2.379 . S
O782 C798 1.249 . S
O783 Dy777 2.275 . S
O783 C799 1.254 . S
O784 Dy776 2.339 . S
O784 C799 1.257 . S
O785 Dy777 2.307 . S
O785 C800 1.266 . S
O786 Dy776 2.298 . S
O786 C800 1.236 . S
O787 Dy777 2.395 . S
O787 C807 1.255 . S
O788 Dy777 2.379 . S
O788 C807 1.249 . S
C789 O779 1.266 . S
C789 O780 1.236 . S
O790 Dy776 2.275 . S
O790 C778 1.254 . S
O791 Dy777 2.339 . S
O791 C778 1.257 . S
C792 C795 1.344 . S
C792 C796 1.328 . S
C792 C798 1.516 . S
C793 C794 1.304 . S
C793 C797 1.323 . S
C794 C793 1.304 . S
C794 C795 1.371 . S
C794 H808 0.930 . S
C795 C792 1.344 . S
C795 C794 1.371 . S
C795 H809 0.931 . S
C796 C792 1.328 . S
C796 C797 1.433 . S
C796 H810 0.931 . S
C797 C793 1.323 . S
C797 C796 1.433 . S
C797 H811 0.933 . S
C798 Dy776 2.738 . S
C798 O781 1.255 . S
C798 O782 1.249 . S
C798 C792 1.516 . S
C799 O783 1.254 . S
C799 O784 1.257 . S
C800 O785 1.266 . S
C800 O786 1.236 . S
C801 C804 1.344 . S
C801 C805 1.328 . S
C801 C807 1.516 . S
C802 C803 1.304 . S
C802 C806 1.323 . S
C803 C802 1.304 . S
C803 C804 1.371 . S
C803 H812 0.930 . S
C804 C801 1.344 . S
C804 C803 1.371 . S
C804 H813 0.931 . S
C805 C801 1.328 . S
C805 C806 1.433 . S
C805 H814 0.931 . S
C806 C802 1.323 . S
C806 C805 1.433 . S
C806 H815 0.933 . S
C807 Dy777 2.738 . S
C807 O787 1.255 . S
C807 O788 1.249 . S
C807 C801 1.516 . S
H808 C794 0.930 . S
H809 C795 0.931 . S
H810 C796 0.931 . S
H811 C797 0.933 . S
H812 C803 0.930 . S
H813 C804 0.931 . S
H814 C805 0.931 . S
H815 C806 0.933 . S
Dy816 O819 2.307 . S
Dy816 O821 2.395 . S
Dy816 O822 2.379 . S
Dy816 O824 2.339 . S
Dy816 O826 2.298 . S
Dy816 O830 2.275 . S
Dy816 C838 2.738 . S
Dy817 O820 2.298 . S
Dy817 O823 2.275 . S
Dy817 O825 2.307 . S
Dy817 O827 2.395 . S
Dy817 O828 2.379 . S
Dy817 O831 2.339 . S
Dy817 C847 2.738 . S
C818 O830 1.254 . S
C818 O831 1.257 . S
O819 Dy816 2.307 . S
O819 C829 1.266 . S
O820 Dy817 2.298 . S
O820 C829 1.236 . S
O821 Dy816 2.395 . S
O821 C838 1.255 . S
O822 Dy816 2.379 . S
O822 C838 1.249 . S
O823 Dy817 2.275 . S
O823 C839 1.254 . S
O824 Dy816 2.339 . S
O824 C839 1.257 . S
O825 Dy817 2.307 . S
O825 C840 1.266 . S
O826 Dy816 2.298 . S
O826 C840 1.236 . S
O827 Dy817 2.395 . S
O827 C847 1.255 . S
O828 Dy817 2.379 . S
O828 C847 1.249 . S
C829 O819 1.266 . S
C829 O820 1.236 . S
O830 Dy816 2.275 . S
O830 C818 1.254 . S
O831 Dy817 2.339 . S
O831 C818 1.257 . S
C832 C835 1.344 . S
C832 C836 1.328 . S
C832 C838 1.516 . S
C833 C834 1.304 . S
C833 C837 1.323 . S
C834 C833 1.304 . S
C834 C835 1.371 . S
C834 H848 0.930 . S
C835 C832 1.344 . S
C835 C834 1.371 . S
C835 H849 0.931 . S
C836 C832 1.328 . S
C836 C837 1.433 . S
C836 H850 0.931 . S
C837 C833 1.323 . S
C837 C836 1.433 . S
C837 H851 0.933 . S
C838 Dy816 2.738 . S
C838 O821 1.255 . S
C838 O822 1.249 . S
C838 C832 1.516 . S
C839 O823 1.254 . S
C839 O824 1.257 . S
C840 O825 1.266 . S
C840 O826 1.236 . S
C841 C844 1.344 . S
C841 C845 1.328 . S
C841 C847 1.516 . S
C842 C843 1.304 . S
C842 C846 1.323 . S
C843 C842 1.304 . S
C843 C844 1.371 . S
C843 H852 0.930 . S
C844 C841 1.344 . S
C844 C843 1.371 . S
C844 H853 0.931 . S
C845 C841 1.328 . S
C845 C846 1.433 . S
C845 H854 0.931 . S
C846 C842 1.323 . S
C846 C845 1.433 . S
C846 H855 0.933 . S
C847 Dy817 2.738 . S
C847 O827 1.255 . S
C847 O828 1.249 . S
C847 C841 1.516 . S
H848 C834 0.930 . S
H849 C835 0.931 . S
H850 C836 0.931 . S
H851 C837 0.933 . S
H852 C843 0.930 . S
H853 C844 0.931 . S
H854 C845 0.931 . S
H855 C846 0.933 . S
Dy856 O859 2.307 . S
Dy856 O861 2.395 . S
Dy856 O862 2.379 . S
Dy856 O864 2.339 . S
Dy856 O866 2.298 . S
Dy856 O870 2.275 . S
Dy856 C878 2.738 . S
Dy857 O860 2.298 . S
Dy857 O863 2.275 . S
Dy857 O865 2.307 . S
Dy857 O867 2.395 . S
Dy857 O868 2.379 . S
Dy857 O871 2.339 . S
Dy857 C887 2.738 . S
C858 O870 1.254 . S
C858 O871 1.257 . S
O859 Dy856 2.307 . S
O859 C869 1.266 . S
O860 Dy857 2.298 . S
O860 C869 1.236 . S
O861 Dy856 2.395 . S
O861 C878 1.255 . S
O862 Dy856 2.379 . S
O862 C878 1.249 . S
O863 Dy857 2.275 . S
O863 C879 1.254 . S
O864 Dy856 2.339 . S
O864 C879 1.257 . S
O865 Dy857 2.307 . S
O865 C880 1.266 . S
O866 Dy856 2.298 . S
O866 C880 1.236 . S
O867 Dy857 2.395 . S
O867 C887 1.255 . S
O868 Dy857 2.379 . S
O868 C887 1.249 . S
C869 O859 1.266 . S
C869 O860 1.236 . S
O870 Dy856 2.275 . S
O870 C858 1.254 . S
O871 Dy857 2.339 . S
O871 C858 1.257 . S
C872 C875 1.344 . S
C872 C876 1.328 . S
C872 C878 1.516 . S
C873 C874 1.304 . S
C873 C877 1.323 . S
C874 C873 1.304 . S
C874 C875 1.371 . S
C874 H888 0.930 . S
C875 C872 1.344 . S
C875 C874 1.371 . S
C875 H889 0.931 . S
C876 C872 1.328 . S
C876 C877 1.433 . S
C876 H890 0.931 . S
C877 C873 1.323 . S
C877 C876 1.433 . S
C877 H891 0.933 . S
C878 Dy856 2.738 . S
C878 O861 1.255 . S
C878 O862 1.249 . S
C878 C872 1.516 . S
C879 O863 1.254 . S
C879 O864 1.257 . S
C880 O865 1.266 . S
C880 O866 1.236 . S
C881 C884 1.344 . S
C881 C885 1.328 . S
C881 C887 1.516 . S
C882 C883 1.304 . S
C882 C886 1.323 . S
C883 C882 1.304 . S
C883 C884 1.371 . S
C883 H892 0.930 . S
C884 C881 1.344 . S
C884 C883 1.371 . S
C884 H893 0.931 . S
C885 C881 1.328 . S
C885 C886 1.433 . S
C885 H894 0.931 . S
C886 C882 1.323 . S
C886 C885 1.433 . S
C886 H895 0.933 . S
C887 Dy857 2.738 . S
C887 O867 1.255 . S
C887 O868 1.249 . S
C887 C881 1.516 . S
H888 C874 0.930 . S
H889 C875 0.931 . S
H890 C876 0.931 . S
H891 C877 0.933 . S
H892 C883 0.930 . S
H893 C884 0.931 . S
H894 C885 0.931 . S
H895 C886 0.933 . S
Dy896 O899 2.307 . S
Dy896 O901 2.395 . S
Dy896 O902 2.379 . S
Dy896 O904 2.339 . S
Dy896 O906 2.298 . S
Dy896 O910 2.275 . S
Dy896 C918 2.738 . S
Dy897 O900 2.298 . S
Dy897 O903 2.275 . S
Dy897 O905 2.307 . S
Dy897 O907 2.395 . S
Dy897 O908 2.379 . S
Dy897 O911 2.339 . S
Dy897 C927 2.738 . S
C898 O910 1.254 . S
C898 O911 1.257 . S
O899 Dy896 2.307 . S
O899 C909 1.266 . S
O900 Dy897 2.298 . S
O900 C909 1.236 . S
O901 Dy896 2.395 . S
O901 C918 1.255 . S
O902 Dy896 2.379 . S
O902 C918 1.249 . S
O903 Dy897 2.275 . S
O903 C919 1.254 . S
O904 Dy896 2.339 . S
O904 C919 1.257 . S
O905 Dy897 2.307 . S
O905 C920 1.266 . S
O906 Dy896 2.298 . S
O906 C920 1.236 . S
O907 Dy897 2.395 . S
O907 C927 1.255 . S
O908 Dy897 2.379 . S
O908 C927 1.249 . S
C909 O899 1.266 . S
C909 O900 1.236 . S
O910 Dy896 2.275 . S
O910 C898 1.254 . S
O911 Dy897 2.339 . S
O911 C898 1.257 . S
C912 C915 1.344 . S
C912 C916 1.328 . S
C912 C918 1.516 . S
C913 C914 1.304 . S
C913 C917 1.323 . S
C914 C913 1.304 . S
C914 C915 1.371 . S
C914 H928 0.930 . S
C915 C912 1.344 . S
C915 C914 1.371 . S
C915 H929 0.931 . S
C916 C912 1.328 . S
C916 C917 1.433 . S
C916 H930 0.931 . S
C917 C913 1.323 . S
C917 C916 1.433 . S
C917 H931 0.933 . S
C918 Dy896 2.738 . S
C918 O901 1.255 . S
C918 O902 1.249 . S
C918 C912 1.516 . S
C919 O903 1.254 . S
C919 O904 1.257 . S
C920 O905 1.266 . S
C920 O906 1.236 . S
C921 C924 1.344 . S
C921 C925 1.328 . S
C921 C927 1.516 . S
C922 C923 1.304 . S
C922 C926 1.323 . S
C923 C922 1.304 . S
C923 C924 1.371 . S
C923 H932 0.930 . S
C924 C921 1.344 . S
C924 C923 1.371 . S
C924 H933 0.931 . S
C925 C921 1.328 . S
C925 C926 1.433 . S
C925 H934 0.931 . S
C926 C922 1.323 . S
C926 C925 1.433 . S
C926 H935 0.933 . S
C927 Dy897 2.738 . S
C927 O907 1.255 . S
C927 O908 1.249 . S
C927 C921 1.516 . S
H928 C914 0.930 . S
H929 C915 0.931 . S
H930 C916 0.931 . S
H931 C917 0.933 . S
H932 C923 0.930 . S
H933 C924 0.931 . S
H934 C925 0.931 . S
H935 C926 0.933 . S
Dy936 O939 2.307 . S
Dy936 O941 2.395 1_455 S
Dy936 O942 2.379 1_455 S
Dy936 O944 2.339 . S
Dy936 O946 2.298 . S
Dy936 O950 2.275 . S
Dy936 C958 2.738 1_455 S
Dy937 O940 2.298 . S
Dy937 O943 2.275 . S
Dy937 O945 2.307 . S
Dy937 O947 2.395 . S
Dy937 O948 2.379 1_554 S
Dy937 O951 2.339 1_554 S
Dy937 C967 2.738 . S
C938 O950 1.254 1_556 S
C938 O951 1.257 . S
O939 Dy936 2.307 . S
O939 C949 1.266 . S
O940 Dy937 2.298 . S
O940 C949 1.236 . S
O941 Dy936 2.395 1_655 S
O941 C958 1.255 . S
O942 Dy936 2.379 1_655 S
O942 C958 1.249 . S
O943 Dy937 2.275 . S
O943 C959 1.254 . S
O944 Dy936 2.339 . S
O944 C959 1.257 . S
O945 Dy937 2.307 . S
O945 C960 1.266 . S
O946 Dy936 2.298 . S
O946 C960 1.236 . S
O947 Dy937 2.395 . S
O947 C967 1.255 . S
O948 Dy937 2.379 1_556 S
O948 C967 1.249 1_556 S
C949 O939 1.266 . S
C949 O940 1.236 . S
O950 Dy936 2.275 . S
O950 C938 1.254 1_554 S
O951 Dy937 2.339 1_556 S
O951 C938 1.257 . S
C952 C955 1.344 . S
C952 C956 1.328 . S
C952 C958 1.516 . S
C953 C954 1.304 . S
C953 C957 1.323 . S
C954 C953 1.304 . S
C954 C955 1.371 . S
C954 H968 0.930 . S
C955 C952 1.344 . S
C955 C954 1.371 . S
C955 H969 0.931 . S
C956 C952 1.328 . S
C956 C957 1.433 . S
C956 H970 0.931 . S
C957 C953 1.323 . S
C957 C956 1.433 . S
C957 H971 0.933 . S
C958 Dy936 2.738 1_655 S
C958 O941 1.255 . S
C958 O942 1.249 . S
C958 C952 1.516 . S
C959 O943 1.254 . S
C959 O944 1.257 . S
C960 O945 1.266 . S
C960 O946 1.236 . S
C961 C964 1.344 . S
C961 C965 1.328 1_554 S
C961 C967 1.516 . S
C962 C963 1.304 . S
C962 C966 1.323 1_554 S
C963 C962 1.304 . S
C963 C964 1.371 . S
C963 H972 0.930 . S
C964 C961 1.344 . S
C964 C963 1.371 . S
C964 H973 0.931 . S
C965 C961 1.328 1_556 S
C965 C966 1.433 . S
C965 H974 0.931 . S
C966 C962 1.323 1_556 S
C966 C965 1.433 . S
C966 H975 0.933 . S
C967 Dy937 2.738 . S
C967 O947 1.255 . S
C967 O948 1.249 1_554 S
C967 C961 1.516 . S
H968 C954 0.930 . S
H969 C955 0.931 . S
H970 C956 0.931 . S
H971 C957 0.933 . S
H972 C963 0.930 . S
H973 C964 0.931 . S
H974 C965 0.931 . S
H975 C966 0.933 . S
H976 C994 0.951 . S
H977 C996 0.994 . S
H978 C998 0.950 . S
H979 C999 0.950 . S
H980 C1001 0.950 . S
H981 C1004 0.950 . S
H982 C1005 0.950 . S
H983 C1007 0.950 . S
H984 C1008 0.950 1_554 S
H985 C1009 0.937 1_556 S
H986 C1011 0.981 1_655 S
H987 C1013 0.950 . S
H988 C1014 0.950 . S
H989 C1016 0.950 . S
H990 C1019 0.950 . S
H991 C1020 0.950 . S
H992 C1022 0.950 . S
H993 C1023 0.950 . S
C994 H976 0.951 . S
C994 C995 1.336 1_455 S
C994 C996 1.388 . S
C995 C994 1.336 1_655 S
C995 C999 1.398 . S
C996 H977 0.994 . S
C996 C994 1.388 . S
C996 C997 1.366 . S
C997 C996 1.366 . S
C997 C998 1.414 1_455 S
C997 C1000 1.499 . S
C998 H978 0.950 . S
C998 C997 1.414 1_655 S
C998 C999 1.374 . S
C999 H979 0.950 . S
C999 C995 1.398 . S
C999 C998 1.374 . S
C1000 C997 1.499 . S
C1000 C1001 1.373 1_455 S
C1000 C1002 1.389 . S
C1001 H980 0.950 . S
C1001 C1000 1.373 1_655 S
C1001 C1017 1.377 . S
C1002 C1000 1.389 . S
C1002 C1003 1.524 . S
C1002 C1016 1.377 . S
C1003 C1002 1.524 . S
C1003 C1004 1.397 . S
C1003 C1008 1.363 . S
C1004 H981 0.950 . S
C1004 C1003 1.397 . S
C1004 C1005 1.334 . S
C1005 H982 0.950 . S
C1005 C1004 1.334 . S
C1005 C1006 1.287 . S
C1006 C1005 1.287 . S
C1006 C1007 1.524 . S
C1006 H1025 0.913 . S
C1007 H983 0.950 . S
C1007 C1006 1.524 . S
C1007 C1008 1.415 . S
C1008 H984 0.950 1_556 S
C1008 C1003 1.363 . S
C1008 C1007 1.415 . S
C1009 H985 0.937 1_554 S
C1009 C1010 1.366 . S
C1009 C1011 1.371 1_554 S
C1010 C1009 1.366 . S
C1010 C1014 1.385 . S
C1011 H986 0.981 1_455 S
C1011 C1009 1.371 1_556 S
C1011 C1012 1.354 1_556 S
C1012 C1011 1.354 1_554 S
C1012 C1013 1.414 . S
C1012 C1015 1.499 . S
C1013 H987 0.950 . S
C1013 C1012 1.414 . S
C1013 C1014 1.374 . S
C1014 H988 0.950 . S
C1014 C1010 1.385 . S
C1014 C1013 1.374 . S
C1015 C1012 1.499 . S
C1015 C1016 1.373 1_554 S
C1015 C1017 1.389 1_454 S
C1016 H989 0.950 . S
C1016 C1002 1.377 . S
C1016 C1015 1.373 1_556 S
C1017 C1001 1.377 . S
C1017 C1015 1.389 1_656 S
C1017 C1018 1.524 1_556 S
C1018 C1017 1.524 1_554 S
C1018 C1019 1.397 . S
C1018 C1023 1.363 1_554 S
C1019 H990 0.950 . S
C1019 C1018 1.397 . S
C1019 C1020 1.334 . S
C1020 H991 0.950 . S
C1020 C1019 1.334 . S
C1020 C1021 1.287 . S
C1021 C1020 1.287 . S
C1021 C1022 1.524 1_554 S
C1021 H1024 0.999 . S
C1022 H992 0.950 . S
C1022 C1021 1.524 1_556 S
C1022 C1023 1.415 . S
C1023 H993 0.950 . S
C1023 C1018 1.363 1_556 S
C1023 C1022 1.415 . S
H1024 C1021 0.999 . S
H1025 C1006 0.913 . S
H1026 C1044 0.951 . S
H1027 C1046 0.951 . S
H1028 C1048 0.950 . S
H1029 C1049 0.950 . S
H1030 C1051 0.950 . S
H1031 C1054 0.950 . S
H1032 C1055 0.950 . S
H1033 C1057 0.950 . S
H1034 C1058 0.950 . S
H1035 C1059 0.951 . S
H1036 C1061 0.951 . S
H1037 C1063 0.950 . S
H1038 C1064 0.950 . S
H1039 C1066 0.950 . S
H1040 C1069 0.950 . S
H1041 C1070 0.950 . S
H1042 C1072 0.950 . S
H1043 C1073 0.950 . S
C1044 H1026 0.951 . S
C1044 C1045 1.366 . S
C1044 C1046 1.388 . S
C1045 C1044 1.366 . S
C1045 C1049 1.385 . S
C1046 H1027 0.951 . S
C1046 C1044 1.388 . S
C1046 C1047 1.366 . S
C1047 C1046 1.366 . S
C1047 C1048 1.414 . S
C1047 C1050 1.499 . S
C1048 H1028 0.950 . S
C1048 C1047 1.414 . S
C1048 C1049 1.374 . S
C1049 H1029 0.950 . S
C1049 C1045 1.385 . S
C1049 C1048 1.374 . S
C1050 C1047 1.499 . S
C1050 C1051 1.373 . S
C1050 C1052 1.389 . S
C1051 H1030 0.950 . S
C1051 C1050 1.373 . S
C1051 C1067 1.377 . S
C1052 C1050 1.389 . S
C1052 C1053 1.524 . S
C1052 C1066 1.377 . S
C1053 C1052 1.524 . S
C1053 C1054 1.397 . S
C1053 C1058 1.363 . S
C1054 H1031 0.950 . S
C1054 C1053 1.397 . S
C1054 C1055 1.334 . S
C1055 H1032 0.950 . S
C1055 C1054 1.334 . S
C1055 C1056 1.287 . S
C1056 C1055 1.287 . S
C1056 C1057 1.524 . S
C1056 H1075 0.913 . S
C1057 H1033 0.950 . S
C1057 C1056 1.524 . S
C1057 C1058 1.415 . S
C1058 H1034 0.950 . S
C1058 C1053 1.363 . S
C1058 C1057 1.415 . S
C1059 H1035 0.951 . S
C1059 C1060 1.366 . S
C1059 C1061 1.388 . S
C1060 C1059 1.366 . S
C1060 C1064 1.385 . S
C1061 H1036 0.951 . S
C1061 C1059 1.388 . S
C1061 C1062 1.366 . S
C1062 C1061 1.366 . S
C1062 C1063 1.414 . S
C1062 C1065 1.499 . S
C1063 H1037 0.950 . S
C1063 C1062 1.414 . S
C1063 C1064 1.374 . S
C1064 H1038 0.950 . S
C1064 C1060 1.385 . S
C1064 C1063 1.374 . S
C1065 C1062 1.499 . S
C1065 C1066 1.373 . S
C1065 C1067 1.389 . S
C1066 H1039 0.950 . S
C1066 C1052 1.377 . S
C1066 C1065 1.373 . S
C1067 C1051 1.377 . S
C1067 C1065 1.389 . S
C1067 C1068 1.524 . S
C1068 C1067 1.524 . S
C1068 C1069 1.397 . S
C1068 C1073 1.363 . S
C1069 H1040 0.950 . S
C1069 C1068 1.397 . S
C1069 C1070 1.334 . S
C1070 H1041 0.950 . S
C1070 C1069 1.334 . S
C1070 C1071 1.287 . S
C1071 C1070 1.287 . S
C1071 C1072 1.524 . S
C1071 H1074 0.999 . S
C1072 H1042 0.950 . S
C1072 C1071 1.524 . S
C1072 C1073 1.415 . S
C1073 H1043 0.950 . S
C1073 C1068 1.363 . S
C1073 C1072 1.415 . S
H1074 C1071 0.999 . S
H1075 C1056 0.913 . S
H1076 C1094 0.951 . S
H1077 C1096 0.951 . S
H1078 C1098 0.950 . S
H1079 C1099 0.950 . S
H1080 C1101 0.950 . S
H1081 C1104 0.950 . S
H1082 C1105 0.950 . S
H1083 C1107 0.950 . S
H1084 C1108 0.950 . S
H1085 C1109 0.951 . S
H1086 C1111 0.951 . S
H1087 C1113 0.950 . S
H1088 C1114 0.950 . S
H1089 C1116 0.950 . S
H1090 C1119 0.950 . S
H1091 C1120 0.950 . S
H1092 C1122 0.950 . S
H1093 C1123 0.950 . S
C1094 H1076 0.951 . S
C1094 C1095 1.366 . S
C1094 C1096 1.388 . S
C1095 C1094 1.366 . S
C1095 C1099 1.385 . S
C1096 H1077 0.951 . S
C1096 C1094 1.388 . S
C1096 C1097 1.366 . S
C1097 C1096 1.366 . S
C1097 C1098 1.414 . S
C1097 C1100 1.499 . S
C1098 H1078 0.950 . S
C1098 C1097 1.414 . S
C1098 C1099 1.374 . S
C1099 H1079 0.950 . S
C1099 C1095 1.385 . S
C1099 C1098 1.374 . S
C1100 C1097 1.499 . S
C1100 C1101 1.373 . S
C1100 C1102 1.389 . S
C1101 H1080 0.950 . S
C1101 C1100 1.373 . S
C1101 C1117 1.377 . S
C1102 C1100 1.389 . S
C1102 C1103 1.524 . S
C1102 C1116 1.377 . S
C1103 C1102 1.524 . S
C1103 C1104 1.397 . S
C1103 C1108 1.363 . S
C1104 H1081 0.950 . S
C1104 C1103 1.397 . S
C1104 C1105 1.334 . S
C1105 H1082 0.950 . S
C1105 C1104 1.334 . S
C1105 C1106 1.287 . S
C1106 C1105 1.287 . S
C1106 C1107 1.524 . S
C1106 H1125 0.913 . S
C1107 H1083 0.950 . S
C1107 C1106 1.524 . S
C1107 C1108 1.415 . S
C1108 H1084 0.950 . S
C1108 C1103 1.363 . S
C1108 C1107 1.415 . S
C1109 H1085 0.951 . S
C1109 C1110 1.366 . S
C1109 C1111 1.388 . S
C1110 C1109 1.366 . S
C1110 C1114 1.385 . S
C1111 H1086 0.951 . S
C1111 C1109 1.388 . S
C1111 C1112 1.366 . S
C1112 C1111 1.366 . S
C1112 C1113 1.414 . S
C1112 C1115 1.499 . S
C1113 H1087 0.950 . S
C1113 C1112 1.414 . S
C1113 C1114 1.374 . S
C1114 H1088 0.950 . S
C1114 C1110 1.385 . S
C1114 C1113 1.374 . S
C1115 C1112 1.499 . S
C1115 C1116 1.373 . S
C1115 C1117 1.389 . S
C1116 H1089 0.950 . S
C1116 C1102 1.377 . S
C1116 C1115 1.373 . S
C1117 C1101 1.377 . S
C1117 C1115 1.389 . S
C1117 C1118 1.524 . S
C1118 C1117 1.524 . S
C1118 C1119 1.397 . S
C1118 C1123 1.363 . S
C1119 H1090 0.950 . S
C1119 C1118 1.397 . S
C1119 C1120 1.334 . S
C1120 H1091 0.950 . S
C1120 C1119 1.334 . S
C1120 C1121 1.287 . S
C1121 C1120 1.287 . S
C1121 C1122 1.524 . S
C1121 H1124 0.999 . S
C1122 H1092 0.950 . S
C1122 C1121 1.524 . S
C1122 C1123 1.415 . S
C1123 H1093 0.950 . S
C1123 C1118 1.363 . S
C1123 C1122 1.415 . S
H1124 C1121 0.999 . S
H1125 C1106 0.913 . S
H1126 C1144 0.951 . S
H1127 C1146 0.951 . S
H1128 C1148 0.950 . S
H1129 C1149 0.950 . S
H1130 C1151 0.950 . S
H1131 C1154 0.950 . S
H1132 C1155 0.950 . S
H1133 C1157 0.950 . S
H1134 C1158 0.950 . S
H1135 C1159 0.951 . S
H1136 C1161 0.951 . S
H1137 C1163 0.950 . S
H1138 C1164 0.950 . S
H1139 C1166 0.950 . S
H1140 C1169 0.950 . S
H1141 C1170 0.950 . S
H1142 C1172 0.950 . S
H1143 C1173 0.950 . S
C1144 H1126 0.951 . S
C1144 C1145 1.366 . S
C1144 C1146 1.388 . S
C1145 C1144 1.366 . S
C1145 C1149 1.385 . S
C1146 H1127 0.951 . S
C1146 C1144 1.388 . S
C1146 C1147 1.366 . S
C1147 C1146 1.366 . S
C1147 C1148 1.414 . S
C1147 C1150 1.499 . S
C1148 H1128 0.950 . S
C1148 C1147 1.414 . S
C1148 C1149 1.374 . S
C1149 H1129 0.950 . S
C1149 C1145 1.385 . S
C1149 C1148 1.374 . S
C1150 C1147 1.499 . S
C1150 C1151 1.373 . S
C1150 C1152 1.389 . S
C1151 H1130 0.950 . S
C1151 C1150 1.373 . S
C1151 C1167 1.377 . S
C1152 C1150 1.389 . S
C1152 C1153 1.524 . S
C1152 C1166 1.377 . S
C1153 C1152 1.524 . S
C1153 C1154 1.397 . S
C1153 C1158 1.363 . S
C1154 H1131 0.950 . S
C1154 C1153 1.397 . S
C1154 C1155 1.334 . S
C1155 H1132 0.950 . S
C1155 C1154 1.334 . S
C1155 C1156 1.287 . S
C1156 C1155 1.287 . S
C1156 C1157 1.524 . S
C1156 H1175 0.913 . S
C1157 H1133 0.950 . S
C1157 C1156 1.524 . S
C1157 C1158 1.415 . S
C1158 H1134 0.950 . S
C1158 C1153 1.363 . S
C1158 C1157 1.415 . S
C1159 H1135 0.951 . S
C1159 C1160 1.366 . S
C1159 C1161 1.388 . S
C1160 C1159 1.366 . S
C1160 C1164 1.385 . S
C1161 H1136 0.951 . S
C1161 C1159 1.388 . S
C1161 C1162 1.366 . S
C1162 C1161 1.366 . S
C1162 C1163 1.414 . S
C1162 C1165 1.499 . S
C1163 H1137 0.950 . S
C1163 C1162 1.414 . S
C1163 C1164 1.374 . S
C1164 H1138 0.950 . S
C1164 C1160 1.385 . S
C1164 C1163 1.374 . S
C1165 C1162 1.499 . S
C1165 C1166 1.373 . S
C1165 C1167 1.389 . S
C1166 H1139 0.950 . S
C1166 C1152 1.377 . S
C1166 C1165 1.373 . S
C1167 C1151 1.377 . S
C1167 C1165 1.389 . S
C1167 C1168 1.524 . S
C1168 C1167 1.524 . S
C1168 C1169 1.397 . S
C1168 C1173 1.363 . S
C1169 H1140 0.950 . S
C1169 C1168 1.397 . S
C1169 C1170 1.334 . S
C1170 H1141 0.950 . S
C1170 C1169 1.334 . S
C1170 C1171 1.287 . S
C1171 C1170 1.287 . S
C1171 C1172 1.524 . S
C1171 H1174 0.999 . S
C1172 H1142 0.950 . S
C1172 C1171 1.524 . S
C1172 C1173 1.415 . S
C1173 H1143 0.950 . S
C1173 C1168 1.363 . S
C1173 C1172 1.415 . S
H1174 C1171 0.999 . S
H1175 C1156 0.913 . S
H1176 C1194 0.951 . S
H1177 C1196 0.951 . S
H1178 C1198 0.950 . S
H1179 C1199 0.959 . S
H1180 C1201 0.950 . S
H1181 C1204 0.950 . S
H1182 C1205 0.950 . S
H1183 C1207 0.950 . S
H1184 C1208 0.950 . S
H1185 C1209 0.951 . S
H1186 C1211 0.951 . S
H1187 C1213 0.950 . S
H1188 C1214 0.950 . S
H1189 C1216 0.950 . S
H1190 C1219 0.950 . S
H1191 C1220 0.950 . S
H1192 C1222 0.900 1_655 S
H1193 C1223 0.950 1_655 S
C1194 H1176 0.951 . S
C1194 C1195 1.366 . S
C1194 C1196 1.388 . S
C1195 C1194 1.366 . S
C1195 C1199 1.385 . S
C1196 H1177 0.951 . S
C1196 C1194 1.388 . S
C1196 C1197 1.366 . S
C1197 C1196 1.366 . S
C1197 C1198 1.414 . S
C1197 C1200 1.499 . S
C1198 H1178 0.950 . S
C1198 C1197 1.414 . S
C1198 C1199 1.374 . S
C1199 H1179 0.959 . S
C1199 C1195 1.385 . S
C1199 C1198 1.374 . S
C1200 C1197 1.499 . S
C1200 C1201 1.373 . S
C1200 C1202 1.389 . S
C1201 H1180 0.950 . S
C1201 C1200 1.373 . S
C1201 C1217 1.377 . S
C1202 C1200 1.389 . S
C1202 C1203 1.524 . S
C1202 C1216 1.377 . S
C1203 C1202 1.524 . S
C1203 C1204 1.397 . S
C1203 C1208 1.363 . S
C1204 H1181 0.950 . S
C1204 C1203 1.397 . S
C1204 C1205 1.334 . S
C1205 H1182 0.950 . S
C1205 C1204 1.334 . S
C1205 C1206 1.287 . S
C1206 C1205 1.287 . S
C1206 C1207 1.524 . S
C1206 H1225 0.913 . S
C1207 H1183 0.950 . S
C1207 C1206 1.524 . S
C1207 C1208 1.415 . S
C1208 H1184 0.950 . S
C1208 C1203 1.363 . S
C1208 C1207 1.415 . S
C1209 H1185 0.951 . S
C1209 C1210 1.366 . S
C1209 C1211 1.388 . S
C1210 C1209 1.366 . S
C1210 C1214 1.385 . S
C1211 H1186 0.951 . S
C1211 C1209 1.388 . S
C1211 C1212 1.366 . S
C1212 C1211 1.366 . S
C1212 C1213 1.414 . S
C1212 C1215 1.499 . S
C1213 H1187 0.950 . S
C1213 C1212 1.414 . S
C1213 C1214 1.374 . S
C1214 H1188 0.950 . S
C1214 C1210 1.385 . S
C1214 C1213 1.374 . S
C1215 C1212 1.499 . S
C1215 C1216 1.373 . S
C1215 C1217 1.389 . S
C1216 H1189 0.950 . S
C1216 C1202 1.377 . S
C1216 C1215 1.373 . S
C1217 C1201 1.377 . S
C1217 C1215 1.389 . S
C1217 C1218 1.524 . S
C1218 C1217 1.524 . S
C1218 C1219 1.397 . S
C1218 C1223 1.363 . S
C1219 H1190 0.950 . S
C1219 C1218 1.397 . S
C1219 C1220 1.334 . S
C1220 H1191 0.950 . S
C1220 C1219 1.334 . S
C1220 C1221 1.287 . S
C1221 C1220 1.287 . S
C1221 C1222 1.573 . S
C1221 H1224 0.999 . S
C1222 H1192 0.900 1_455 S
C1222 C1221 1.573 . S
C1222 C1223 1.425 . S
C1223 H1193 0.950 1_455 S
C1223 C1218 1.363 . S
C1223 C1222 1.425 . S
H1224 C1221 0.999 . S
H1225 C1206 0.913 . S
H1226 C1244 0.951 . S
H1227 C1246 0.951 . S
H1228 C1248 0.950 . S
H1229 C1249 0.950 . S
H1230 C1251 0.950 . S
H1231 C1254 0.950 . S
H1232 C1255 0.950 . S
H1233 C1257 0.950 . S
H1234 C1258 0.950 . S
H1235 C1259 0.951 . S
H1236 C1261 0.951 . S
H1237 C1263 0.950 . S
H1238 C1264 0.950 . S
H1239 C1266 0.950 . S
H1240 C1269 0.950 . S
H1241 C1270 0.950 . S
H1242 C1272 0.950 . S
H1243 C1273 0.950 . S
C1244 H1226 0.951 . S
C1244 C1245 1.366 . S
C1244 C1246 1.388 . S
C1245 C1244 1.366 . S
C1245 C1249 1.385 . S
C1246 H1227 0.951 . S
C1246 C1244 1.388 . S
C1246 C1247 1.366 . S
C1247 C1246 1.366 . S
C1247 C1248 1.414 . S
C1247 C1250 1.499 . S
C1248 H1228 0.950 . S
C1248 C1247 1.414 . S
C1248 C1249 1.374 . S
C1249 H1229 0.950 . S
C1249 C1245 1.385 . S
C1249 C1248 1.374 . S
C1250 C1247 1.499 . S
C1250 C1251 1.373 . S
C1250 C1252 1.389 . S
C1251 H1230 0.950 . S
C1251 C1250 1.373 . S
C1251 C1267 1.377 . S
C1252 C1250 1.389 . S
C1252 C1253 1.524 . S
C1252 C1266 1.377 . S
C1253 C1252 1.524 . S
C1253 C1254 1.397 . S
C1253 C1258 1.363 . S
C1254 H1231 0.950 . S
C1254 C1253 1.397 . S
C1254 C1255 1.334 . S
C1255 H1232 0.950 . S
C1255 C1254 1.334 . S
C1255 C1256 1.287 . S
C1256 C1255 1.287 . S
C1256 C1257 1.524 . S
C1256 H1275 0.913 . S
C1257 H1233 0.950 . S
C1257 C1256 1.524 . S
C1257 C1258 1.415 . S
C1258 H1234 0.950 . S
C1258 C1253 1.363 . S
C1258 C1257 1.415 . S
C1259 H1235 0.951 . S
C1259 C1260 1.366 . S
C1259 C1261 1.388 . S
C1260 C1259 1.366 . S
C1260 C1264 1.385 . S
C1261 H1236 0.951 . S
C1261 C1259 1.388 . S
C1261 C1262 1.366 . S
C1262 C1261 1.366 . S
C1262 C1263 1.414 . S
C1262 C1265 1.499 . S
C1263 H1237 0.950 . S
C1263 C1262 1.414 . S
C1263 C1264 1.374 . S
C1264 H1238 0.950 . S
C1264 C1260 1.385 . S
C1264 C1263 1.374 . S
C1265 C1262 1.499 . S
C1265 C1266 1.373 . S
C1265 C1267 1.389 . S
C1266 H1239 0.950 . S
C1266 C1252 1.377 . S
C1266 C1265 1.373 . S
C1267 C1251 1.377 . S
C1267 C1265 1.389 . S
C1267 C1268 1.524 . S
C1268 C1267 1.524 . S
C1268 C1269 1.397 . S
C1268 C1273 1.363 . S
C1269 H1240 0.950 . S
C1269 C1268 1.397 . S
C1269 C1270 1.334 . S
C1270 H1241 0.950 . S
C1270 C1269 1.334 . S
C1270 C1271 1.287 . S
C1271 C1270 1.287 . S
C1271 C1272 1.524 . S
C1271 H1274 0.999 . S
C1272 H1242 0.950 . S
C1272 C1271 1.524 . S
C1272 C1273 1.415 . S
C1273 H1243 0.950 . S
C1273 C1268 1.363 . S
C1273 C1272 1.415 . S
H1274 C1271 0.999 . S
H1275 C1256 0.913 . S
H1276 C1294 0.951 . S
H1277 C1296 0.951 . S
H1278 C1298 0.950 . S
H1279 C1299 0.950 . S
H1280 C1301 0.950 . S
H1281 C1304 0.950 . S
H1282 C1305 0.950 . S
H1283 C1307 0.950 . S
H1284 C1308 0.950 . S
H1285 C1309 0.951 . S
H1286 C1311 0.951 . S
H1287 C1313 0.950 . S
H1288 C1314 0.950 . S
H1289 C1316 0.950 . S
H1290 C1319 0.950 . S
H1291 C1320 0.950 . S
H1292 C1322 0.950 . S
H1293 C1323 0.950 . S
C1294 H1276 0.951 . S
C1294 C1295 1.366 . S
C1294 C1296 1.388 . S
C1295 C1294 1.366 . S
C1295 C1299 1.385 . S
C1296 H1277 0.951 . S
C1296 C1294 1.388 . S
C1296 C1297 1.366 . S
C1297 C1296 1.366 . S
C1297 C1298 1.414 . S
C1297 C1300 1.499 . S
C1298 H1278 0.950 . S
C1298 C1297 1.414 . S
C1298 C1299 1.374 . S
C1299 H1279 0.950 . S
C1299 C1295 1.385 . S
C1299 C1298 1.374 . S
C1300 C1297 1.499 . S
C1300 C1301 1.373 . S
C1300 C1302 1.389 . S
C1301 H1280 0.950 . S
C1301 C1300 1.373 . S
C1301 C1317 1.377 . S
C1302 C1300 1.389 . S
C1302 C1303 1.524 . S
C1302 C1316 1.377 . S
C1303 C1302 1.524 . S
C1303 C1304 1.397 . S
C1303 C1308 1.363 . S
C1304 H1281 0.950 . S
C1304 C1303 1.397 . S
C1304 C1305 1.334 . S
C1305 H1282 0.950 . S
C1305 C1304 1.334 . S
C1305 C1306 1.287 . S
C1306 C1305 1.287 . S
C1306 C1307 1.524 . S
C1306 H1325 0.913 . S
C1307 H1283 0.950 . S
C1307 C1306 1.524 . S
C1307 C1308 1.415 . S
C1308 H1284 0.950 . S
C1308 C1303 1.363 . S
C1308 C1307 1.415 . S
C1309 H1285 0.951 . S
C1309 C1310 1.366 . S
C1309 C1311 1.388 . S
C1310 C1309 1.366 . S
C1310 C1314 1.385 . S
C1311 H1286 0.951 . S
C1311 C1309 1.388 . S
C1311 C1312 1.366 . S
C1312 C1311 1.366 . S
C1312 C1313 1.414 . S
C1312 C1315 1.499 . S
C1313 H1287 0.950 . S
C1313 C1312 1.414 . S
C1313 C1314 1.374 . S
C1314 H1288 0.950 . S
C1314 C1310 1.385 . S
C1314 C1313 1.374 . S
C1315 C1312 1.499 . S
C1315 C1316 1.373 . S
C1315 C1317 1.389 . S
C1316 H1289 0.950 . S
C1316 C1302 1.377 . S
C1316 C1315 1.373 . S
C1317 C1301 1.377 . S
C1317 C1315 1.389 . S
C1317 C1318 1.524 . S
C1318 C1317 1.524 . S
C1318 C1319 1.397 . S
C1318 C1323 1.363 . S
C1319 H1290 0.950 . S
C1319 C1318 1.397 . S
C1319 C1320 1.334 . S
C1320 H1291 0.950 . S
C1320 C1319 1.334 . S
C1320 C1321 1.287 . S
C1321 C1320 1.287 . S
C1321 C1322 1.524 . S
C1321 H1324 0.999 . S
C1322 H1292 0.950 . S
C1322 C1321 1.524 . S
C1322 C1323 1.415 . S
C1323 H1293 0.950 . S
C1323 C1318 1.363 . S
C1323 C1322 1.415 . S
H1324 C1321 0.999 . S
H1325 C1306 0.913 . S
H1326 C1344 0.951 . S
H1327 C1346 0.951 . S
H1328 C1348 0.950 . S
H1329 C1349 0.950 . S
H1330 C1351 0.950 . S
H1331 C1354 0.950 . S
H1332 C1355 0.950 . S
H1333 C1357 0.950 . S
H1334 C1358 0.950 . S
H1335 C1359 0.951 . S
H1336 C1361 0.951 . S
H1337 C1363 0.950 . S
H1338 C1364 0.950 . S
H1339 C1366 0.950 . S
H1340 C1369 0.950 . S
H1341 C1370 0.950 . S
H1342 C1372 0.950 . S
H1343 C1373 0.950 . S
C1344 H1326 0.951 . S
C1344 C1345 1.366 . S
C1344 C1346 1.388 . S
C1345 C1344 1.366 . S
C1345 C1349 1.385 . S
C1346 H1327 0.951 . S
C1346 C1344 1.388 . S
C1346 C1347 1.366 . S
C1347 C1346 1.366 . S
C1347 C1348 1.414 . S
C1347 C1350 1.499 . S
C1348 H1328 0.950 . S
C1348 C1347 1.414 . S
C1348 C1349 1.374 . S
C1349 H1329 0.950 . S
C1349 C1345 1.385 . S
C1349 C1348 1.374 . S
C1350 C1347 1.499 . S
C1350 C1351 1.373 . S
C1350 C1352 1.389 . S
C1351 H1330 0.950 . S
C1351 C1350 1.373 . S
C1351 C1367 1.377 . S
C1352 C1350 1.389 . S
C1352 C1353 1.524 . S
C1352 C1366 1.377 . S
C1353 C1352 1.524 . S
C1353 C1354 1.397 . S
C1353 C1358 1.363 . S
C1354 H1331 0.950 . S
C1354 C1353 1.397 . S
C1354 C1355 1.334 . S
C1355 H1332 0.950 . S
C1355 C1354 1.334 . S
C1355 C1356 1.287 . S
C1356 C1355 1.287 . S
C1356 C1357 1.524 . S
C1356 H1375 0.913 . S
C1357 H1333 0.950 . S
C1357 C1356 1.524 . S
C1357 C1358 1.415 . S
C1358 H1334 0.950 . S
C1358 C1353 1.363 . S
C1358 C1357 1.415 . S
C1359 H1335 0.951 . S
C1359 C1360 1.366 . S
C1359 C1361 1.388 . S
C1360 C1359 1.366 . S
C1360 C1364 1.385 . S
C1361 H1336 0.951 . S
C1361 C1359 1.388 . S
C1361 C1362 1.366 . S
C1362 C1361 1.366 . S
C1362 C1363 1.414 . S
C1362 C1365 1.499 . S
C1363 H1337 0.950 . S
C1363 C1362 1.414 . S
C1363 C1364 1.374 . S
C1364 H1338 0.950 . S
C1364 C1360 1.385 . S
C1364 C1363 1.374 . S
C1365 C1362 1.499 . S
C1365 C1366 1.373 . S
C1365 C1367 1.389 . S
C1366 H1339 0.950 . S
C1366 C1352 1.377 . S
C1366 C1365 1.373 . S
C1367 C1351 1.377 . S
C1367 C1365 1.389 . S
C1367 C1368 1.524 . S
C1368 C1367 1.524 . S
C1368 C1369 1.397 . S
C1368 C1373 1.363 . S
C1369 H1340 0.950 . S
C1369 C1368 1.397 . S
C1369 C1370 1.334 . S
C1370 H1341 0.950 . S
C1370 C1369 1.334 . S
C1370 C1371 1.287 . S
C1371 C1370 1.287 . S
C1371 C1372 1.524 . S
C1371 H1374 0.999 . S
C1372 H1342 0.950 . S
C1372 C1371 1.524 . S
C1372 C1373 1.415 . S
C1373 H1343 0.950 . S
C1373 C1368 1.363 . S
C1373 C1372 1.415 . S
H1374 C1371 0.999 . S
H1375 C1356 0.913 . S
H1376 C1394 0.951 . S
H1377 C1396 0.951 . S
H1378 C1398 0.950 . S
H1379 C1399 0.950 . S
H1380 C1401 0.950 1_455 S
H1381 C1404 0.950 . S
H1382 C1405 0.950 1_565 S
H1383 C1407 0.950 . S
H1384 C1408 0.950 . S
H1385 C1409 0.951 . S
H1386 C1411 0.951 . S
H1387 C1413 0.950 . S
H1388 C1414 0.950 . S
H1389 C1416 0.950 . S
H1390 C1419 0.950 . S
H1391 C1420 0.950 . S
H1392 C1422 0.950 . S
H1393 C1423 0.950 . S
C1394 H1376 0.951 . S
C1394 C1395 1.366 . S
C1394 C1396 1.388 . S
C1395 C1394 1.366 . S
C1395 C1399 1.385 . S
C1396 H1377 0.951 . S
C1396 C1394 1.388 . S
C1396 C1397 1.366 . S
C1397 C1396 1.366 . S
C1397 C1398 1.414 . S
C1397 C1400 1.499 . S
C1398 H1378 0.950 . S
C1398 C1397 1.414 . S
C1398 C1399 1.374 . S
C1399 H1379 0.950 . S
C1399 C1395 1.385 . S
C1399 C1398 1.374 . S
C1400 C1397 1.499 . S
C1400 C1401 1.373 . S
C1400 C1402 1.389 . S
C1401 H1380 0.950 1_655 S
C1401 C1400 1.373 . S
C1401 C1417 1.377 1_655 S
C1402 C1400 1.389 . S
C1402 C1403 1.524 . S
C1402 C1416 1.377 . S
C1403 C1402 1.524 . S
C1403 C1404 1.397 . S
C1403 C1408 1.363 . S
C1404 H1381 0.950 . S
C1404 C1403 1.397 . S
C1404 C1405 1.334 . S
C1405 H1382 0.950 1_545 S
C1405 C1404 1.334 . S
C1405 C1406 1.287 . S
C1406 C1405 1.287 . S
C1406 C1407 1.524 . S
C1406 H1425 0.913 . S
C1407 H1383 0.950 . S
C1407 C1406 1.524 . S
C1407 C1408 1.415 . S
C1408 H1384 0.950 . S
C1408 C1403 1.363 . S
C1408 C1407 1.415 . S
C1409 H1385 0.951 . S
C1409 C1410 1.366 . S
C1409 C1411 1.388 . S
C1410 C1409 1.366 . S
C1410 C1414 1.385 . S
C1411 H1386 0.951 . S
C1411 C1409 1.388 . S
C1411 C1412 1.393 . S
C1412 C1411 1.393 . S
C1412 C1413 1.403 1_455 S
C1412 C1415 1.482 1_455 S
C1413 H1387 0.950 . S
C1413 C1412 1.403 1_655 S
C1413 C1414 1.374 1_655 S
C1414 H1388 0.950 . S
C1414 C1410 1.385 . S
C1414 C1413 1.374 1_455 S
C1415 C1412 1.482 1_655 S
C1415 C1416 1.373 . S
C1415 C1417 1.389 1_655 S
C1416 H1389 0.950 . S
C1416 C1402 1.377 . S
C1416 C1415 1.373 . S
C1417 C1401 1.377 1_455 S
C1417 C1415 1.389 1_455 S
C1417 C1418 1.524 . S
C1418 C1417 1.524 . S
C1418 C1419 1.397 . S
C1418 C1423 1.363 . S
C1419 H1390 0.950 . S
C1419 C1418 1.397 . S
C1419 C1420 1.334 . S
C1420 H1391 0.950 . S
C1420 C1419 1.334 . S
C1420 C1421 1.287 . S
C1421 C1420 1.287 . S
C1421 C1422 1.524 . S
C1421 H1424 0.999 . S
C1422 H1392 0.950 . S
C1422 C1421 1.524 . S
C1422 C1423 1.415 . S
C1423 H1393 0.950 . S
C1423 C1418 1.363 . S
C1423 C1422 1.415 . S
H1424 C1421 0.999 . S
H1425 C1406 0.913 . S
H1426 C1444 0.951 . S
H1427 C1446 0.951 . S
H1428 C1448 0.950 . S
H1429 C1449 0.950 . S
H1430 C1451 0.950 . S
H1431 C1454 0.950 . S
H1432 C1455 0.950 . S
H1433 C1457 0.950 . S
H1434 C1458 0.950 . S
H1435 C1459 0.951 . S
H1436 C1461 0.951 . S
H1437 C1463 0.950 . S
H1438 C1464 0.950 . S
H1439 C1466 0.950 . S
H1440 C1469 0.950 . S
H1441 C1470 0.950 . S
H1442 C1472 0.950 . S
H1443 C1473 0.950 . S
C1444 H1426 0.951 . S
C1444 C1445 1.366 . S
C1444 C1446 1.388 . S
C1445 C1444 1.366 . S
C1445 C1449 1.385 . S
C1446 H1427 0.951 . S
C1446 C1444 1.388 . S
C1446 C1447 1.366 . S
C1447 C1446 1.366 . S
C1447 C1448 1.414 . S
C1447 C1450 1.499 . S
C1448 H1428 0.950 . S
C1448 C1447 1.414 . S
C1448 C1449 1.374 . S
C1449 H1429 0.950 . S
C1449 C1445 1.385 . S
C1449 C1448 1.374 . S
C1450 C1447 1.499 . S
C1450 C1451 1.373 . S
C1450 C1452 1.389 . S
C1451 H1430 0.950 . S
C1451 C1450 1.373 . S
C1451 C1467 1.377 . S
C1452 C1450 1.389 . S
C1452 C1453 1.524 . S
C1452 C1466 1.377 . S
C1453 C1452 1.524 . S
C1453 C1454 1.397 . S
C1453 C1458 1.363 . S
C1454 H1431 0.950 . S
C1454 C1453 1.397 . S
C1454 C1455 1.334 . S
C1455 H1432 0.950 . S
C1455 C1454 1.334 . S
C1455 C1456 1.287 . S
C1456 C1455 1.287 . S
C1456 C1457 1.524 . S
C1456 H1475 0.913 . S
C1457 H1433 0.950 . S
C1457 C1456 1.524 . S
C1457 C1458 1.415 . S
C1458 H1434 0.950 . S
C1458 C1453 1.363 . S
C1458 C1457 1.415 . S
C1459 H1435 0.951 . S
C1459 C1460 1.366 . S
C1459 C1461 1.388 . S
C1460 C1459 1.366 . S
C1460 C1464 1.385 . S
C1461 H1436 0.951 . S
C1461 C1459 1.388 . S
C1461 C1462 1.366 . S
C1462 C1461 1.366 . S
C1462 C1463 1.414 . S
C1462 C1465 1.499 . S
C1463 H1437 0.950 . S
C1463 C1462 1.414 . S
C1463 C1464 1.374 . S
C1464 H1438 0.950 . S
C1464 C1460 1.385 . S
C1464 C1463 1.374 . S
C1465 C1462 1.499 . S
C1465 C1466 1.373 . S
C1465 C1467 1.389 . S
C1466 H1439 0.950 . S
C1466 C1452 1.377 . S
C1466 C1465 1.373 . S
C1467 C1451 1.377 . S
C1467 C1465 1.389 . S
C1467 C1468 1.524 . S
C1468 C1467 1.524 . S
C1468 C1469 1.397 . S
C1468 C1473 1.363 . S
C1469 H1440 0.950 . S
C1469 C1468 1.397 . S
C1469 C1470 1.334 . S
C1470 H1441 0.950 . S
C1470 C1469 1.334 . S
C1470 C1471 1.287 . S
C1471 C1470 1.287 . S
C1471 C1472 1.524 . S
C1471 H1474 0.999 . S
C1472 H1442 0.950 . S
C1472 C1471 1.524 . S
C1472 C1473 1.415 . S
C1473 H1443 0.950 . S
C1473 C1468 1.363 . S
C1473 C1472 1.415 . S
H1474 C1471 0.999 . S
H1475 C1456 0.913 . S
H1476 C1494 0.951 . S
H1477 C1496 0.951 . S
H1478 C1498 0.950 . S
H1479 C1499 0.950 . S
H1480 C1501 0.950 . S
H1481 C1504 0.950 . S
H1482 C1505 0.950 . S
H1483 C1507 0.950 . S
H1484 C1508 0.950 . S
H1485 C1509 0.951 . S
H1486 C1511 0.951 . S
H1487 C1513 0.950 . S
H1488 C1514 0.950 . S
H1489 C1516 0.950 . S
H1490 C1519 0.950 . S
H1491 C1520 0.950 . S
H1492 C1522 0.950 . S
H1493 C1523 0.950 . S
C1494 H1476 0.951 . S
C1494 C1495 1.366 . S
C1494 C1496 1.388 . S
C1495 C1494 1.366 . S
C1495 C1499 1.385 . S
C1496 H1477 0.951 . S
C1496 C1494 1.388 . S
C1496 C1497 1.366 . S
C1497 C1496 1.366 . S
C1497 C1498 1.414 . S
C1497 C1500 1.499 . S
C1498 H1478 0.950 . S
C1498 C1497 1.414 . S
C1498 C1499 1.374 . S
C1499 H1479 0.950 . S
C1499 C1495 1.385 . S
C1499 C1498 1.374 . S
C1500 C1497 1.499 . S
C1500 C1501 1.373 . S
C1500 C1502 1.389 . S
C1501 H1480 0.950 . S
C1501 C1500 1.373 . S
C1501 C1517 1.377 . S
C1502 C1500 1.389 . S
C1502 C1503 1.524 . S
C1502 C1516 1.377 . S
C1503 C1502 1.524 . S
C1503 C1504 1.397 . S
C1503 C1508 1.363 . S
C1504 H1481 0.950 . S
C1504 C1503 1.397 . S
C1504 C1505 1.334 . S
C1505 H1482 0.950 . S
C1505 C1504 1.334 . S
C1505 C1506 1.287 . S
C1506 C1505 1.287 . S
C1506 C1507 1.524 . S
C1506 H1525 0.913 . S
C1507 H1483 0.950 . S
C1507 C1506 1.524 . S
C1507 C1508 1.415 . S
C1508 H1484 0.950 . S
C1508 C1503 1.363 . S
C1508 C1507 1.415 . S
C1509 H1485 0.951 . S
C1509 C1510 1.366 . S
C1509 C1511 1.388 . S
C1510 C1509 1.366 . S
C1510 C1514 1.385 . S
C1511 H1486 0.951 . S
C1511 C1509 1.388 . S
C1511 C1512 1.366 . S
C1512 C1511 1.366 . S
C1512 C1513 1.414 . S
C1512 C1515 1.499 . S
C1513 H1487 0.950 . S
C1513 C1512 1.414 . S
C1513 C1514 1.374 . S
C1514 H1488 0.950 . S
C1514 C1510 1.385 . S
C1514 C1513 1.374 . S
C1515 C1512 1.499 . S
C1515 C1516 1.373 . S
C1515 C1517 1.389 . S
C1516 H1489 0.950 . S
C1516 C1502 1.377 . S
C1516 C1515 1.373 . S
C1517 C1501 1.377 . S
C1517 C1515 1.389 . S
C1517 C1518 1.524 . S
C1518 C1517 1.524 . S
C1518 C1519 1.397 . S
C1518 C1523 1.363 1_545 S
C1519 H1490 0.950 . S
C1519 C1518 1.397 . S
C1519 C1520 1.334 . S
C1520 H1491 0.950 . S
C1520 C1519 1.334 . S
C1520 C1521 1.287 1_545 S
C1521 C1520 1.287 1_565 S
C1521 C1522 1.524 . S
C1521 H1524 0.999 . S
C1522 H1492 0.950 . S
C1522 C1521 1.524 . S
C1522 C1523 1.415 . S
C1523 H1493 0.950 . S
C1523 C1518 1.363 1_565 S
C1523 C1522 1.415 . S
H1524 C1521 0.999 . S
H1525 C1506 0.913 . S
H1526 C1544 0.951 . S
H1527 C1546 0.951 . S
H1528 C1548 0.950 . S
H1529 C1549 0.950 . S
H1530 C1551 0.950 . S
H1531 C1554 0.950 . S
H1532 C1555 0.950 . S
H1533 C1557 0.950 . S
H1534 C1558 0.950 . S
H1535 C1559 0.951 . S
H1536 C1561 0.951 . S
H1537 C1563 0.950 . S
H1538 C1564 0.950 . S
H1539 C1566 0.950 . S
H1540 C1569 0.950 . S
H1541 C1570 0.950 . S
H1542 C1572 0.950 . S
H1543 C1573 0.950 . S
C1544 H1526 0.951 . S
C1544 C1545 1.366 . S
C1544 C1546 1.388 . S
C1545 C1544 1.366 . S
C1545 C1549 1.385 . S
C1546 H1527 0.951 . S
C1546 C1544 1.388 . S
C1546 C1547 1.366 . S
C1547 C1546 1.366 . S
C1547 C1548 1.414 . S
C1547 C1550 1.499 . S
C1548 H1528 0.950 . S
C1548 C1547 1.414 . S
C1548 C1549 1.374 . S
C1549 H1529 0.950 . S
C1549 C1545 1.385 . S
C1549 C1548 1.374 . S
C1550 C1547 1.499 . S
C1550 C1551 1.373 . S
C1550 C1552 1.389 . S
C1551 H1530 0.950 . S
C1551 C1550 1.373 . S
C1551 C1567 1.377 . S
C1552 C1550 1.389 . S
C1552 C1553 1.524 . S
C1552 C1566 1.377 . S
C1553 C1552 1.524 . S
C1553 C1554 1.397 . S
C1553 C1558 1.363 . S
C1554 H1531 0.950 . S
C1554 C1553 1.397 . S
C1554 C1555 1.334 . S
C1555 H1532 0.950 . S
C1555 C1554 1.334 . S
C1555 C1556 1.287 . S
C1556 C1555 1.287 . S
C1556 C1557 1.524 . S
C1556 H1575 0.913 . S
C1557 H1533 0.950 . S
C1557 C1556 1.524 . S
C1557 C1558 1.415 . S
C1558 H1534 0.950 . S
C1558 C1553 1.363 . S
C1558 C1557 1.415 . S
C1559 H1535 0.951 . S
C1559 C1560 1.366 . S
C1559 C1561 1.388 . S
C1560 C1559 1.366 . S
C1560 C1564 1.385 . S
C1561 H1536 0.951 . S
C1561 C1559 1.388 . S
C1561 C1562 1.366 . S
C1562 C1561 1.366 . S
C1562 C1563 1.414 . S
C1562 C1565 1.499 . S
C1563 H1537 0.950 . S
C1563 C1562 1.414 . S
C1563 C1564 1.374 . S
C1564 H1538 0.950 . S
C1564 C1560 1.385 . S
C1564 C1563 1.374 . S
C1565 C1562 1.499 . S
C1565 C1566 1.373 . S
C1565 C1567 1.389 . S
C1566 H1539 0.950 . S
C1566 C1552 1.377 . S
C1566 C1565 1.373 . S
C1567 C1551 1.377 . S
C1567 C1565 1.389 . S
C1567 C1568 1.524 . S
C1568 C1567 1.524 . S
C1568 C1569 1.397 . S
C1568 C1573 1.363 . S
C1569 H1540 0.950 . S
C1569 C1568 1.397 . S
C1569 C1570 1.334 . S
C1570 H1541 0.950 . S
C1570 C1569 1.334 . S
C1570 C1571 1.287 . S
C1571 C1570 1.287 . S
C1571 C1572 1.524 . S
C1571 H1574 0.999 . S
C1572 H1542 0.950 . S
C1572 C1571 1.524 . S
C1572 C1573 1.415 . S
C1573 H1543 0.950 . S
C1573 C1568 1.363 . S
C1573 C1572 1.415 . S
H1574 C1571 0.999 . S
H1575 C1556 0.913 . S
H1576 C1594 0.951 . S
H1577 C1596 0.951 . S
H1578 C1598 0.950 . S
H1579 C1599 0.950 . S
H1580 C1601 0.950 . S
H1581 C1604 0.950 . S
H1582 C1605 0.950 . S
H1583 C1607 0.950 . S
H1584 C1608 0.950 . S
H1585 C1609 0.951 1_655 S
H1586 C1611 0.951 . S
H1587 C1613 0.950 . S
H1588 C1614 0.950 . S
H1589 C1616 0.950 . S
H1590 C1619 0.950 . S
H1591 C1620 0.950 . S
H1592 C1622 0.950 . S
H1593 C1623 0.950 . S
C1594 H1576 0.951 . S
C1594 C1595 1.366 . S
C1594 C1596 1.388 . S
C1595 C1594 1.366 . S
C1595 C1599 1.385 . S
C1596 H1577 0.951 . S
C1596 C1594 1.388 . S
C1596 C1597 1.366 . S
C1597 C1596 1.366 . S
C1597 C1598 1.414 . S
C1597 C1600 1.499 . S
C1598 H1578 0.950 . S
C1598 C1597 1.414 . S
C1598 C1599 1.374 . S
C1599 H1579 0.950 . S
C1599 C1595 1.385 . S
C1599 C1598 1.374 . S
C1600 C1597 1.499 . S
C1600 C1601 1.373 . S
C1600 C1602 1.389 . S
C1601 H1580 0.950 . S
C1601 C1600 1.373 . S
C1601 C1617 1.377 . S
C1602 C1600 1.389 . S
C1602 C1603 1.524 1_545 S
C1602 C1616 1.377 . S
C1603 C1602 1.524 1_565 S
C1603 C1604 1.397 . S
C1603 C1608 1.363 . S
C1604 H1581 0.950 . S
C1604 C1603 1.397 . S
C1604 C1605 1.334 . S
C1605 H1582 0.950 . S
C1605 C1604 1.334 . S
C1605 C1606 1.287 . S
C1606 C1605 1.287 . S
C1606 C1607 1.524 . S
C1606 H1625 0.913 . S
C1607 H1583 0.950 . S
C1607 C1606 1.524 . S
C1607 C1608 1.415 . S
C1608 H1584 0.950 . S
C1608 C1603 1.363 . S
C1608 C1607 1.415 . S
C1609 H1585 0.951 1_455 S
C1609 C1610 1.366 . S
C1609 C1611 1.388 1_455 S
C1610 C1609 1.366 . S
C1610 C1614 1.385 . S
C1611 H1586 0.951 . S
C1611 C1609 1.388 1_655 S
C1611 C1612 1.366 1_655 S
C1612 C1611 1.366 1_455 S
C1612 C1613 1.414 . S
C1612 C1615 1.499 1_455 S
C1613 H1587 0.950 . S
C1613 C1612 1.414 . S
C1613 C1614 1.374 . S
C1614 H1588 0.950 . S
C1614 C1610 1.385 . S
C1614 C1613 1.374 . S
C1615 C1612 1.499 1_655 S
C1615 C1616 1.373 . S
C1615 C1617 1.389 . S
C1616 H1589 0.950 . S
C1616 C1602 1.377 . S
C1616 C1615 1.373 . S
C1617 C1601 1.377 . S
C1617 C1615 1.389 . S
C1617 C1618 1.521 1_655 S
C1618 C1617 1.521 1_455 S
C1618 C1619 1.446 . S
C1618 C1623 1.322 1_455 S
C1619 H1590 0.950 . S
C1619 C1618 1.446 . S
C1619 C1620 1.334 . S
C1620 H1591 0.950 . S
C1620 C1619 1.334 . S
C1620 C1621 1.287 . S
C1621 C1620 1.287 . S
C1621 C1622 1.524 1_455 S
C1621 H1624 0.999 . S
C1622 H1592 0.950 . S
C1622 C1621 1.524 1_655 S
C1622 C1623 1.415 . S
C1623 H1593 0.950 . S
C1623 C1618 1.322 1_655 S
C1623 C1622 1.415 . S
H1624 C1621 0.999 . S
H1625 C1606 0.913 . S
H1626 C1644 0.951 . S
H1627 C1646 0.951 . S
H1628 C1648 0.950 . S
H1629 C1649 0.950 . S
H1630 C1651 0.950 . S
H1631 C1654 0.950 . S
H1632 C1655 0.950 . S
H1633 C1657 0.950 . S
H1634 C1658 0.950 . S
H1635 C1659 0.951 . S
H1636 C1661 0.951 . S
H1637 C1663 0.950 . S
H1638 C1664 0.950 . S
H1639 C1666 0.950 . S
H1640 C1669 0.950 . S
H1641 C1670 0.950 . S
H1642 C1672 0.950 . S
H1643 C1673 0.950 . S
C1644 H1626 0.951 . S
C1644 C1645 1.366 . S
C1644 C1646 1.388 . S
C1645 C1644 1.366 . S
C1645 C1649 1.385 . S
C1646 H1627 0.951 . S
C1646 C1644 1.388 . S
C1646 C1647 1.366 . S
C1647 C1646 1.366 . S
C1647 C1648 1.414 . S
C1647 C1650 1.499 . S
C1648 H1628 0.950 . S
C1648 C1647 1.414 . S
C1648 C1649 1.374 . S
C1649 H1629 0.950 . S
C1649 C1645 1.385 . S
C1649 C1648 1.374 . S
C1650 C1647 1.499 . S
C1650 C1651 1.373 . S
C1650 C1652 1.389 . S
C1651 H1630 0.950 . S
C1651 C1650 1.373 . S
C1651 C1667 1.377 . S
C1652 C1650 1.389 . S
C1652 C1653 1.524 . S
C1652 C1666 1.377 . S
C1653 C1652 1.524 . S
C1653 C1654 1.397 . S
C1653 C1658 1.363 . S
C1654 H1631 0.950 . S
C1654 C1653 1.397 . S
C1654 C1655 1.334 . S
C1655 H1632 0.950 . S
C1655 C1654 1.334 . S
C1655 C1656 1.287 . S
C1656 C1655 1.287 . S
C1656 C1657 1.524 . S
C1656 H1675 0.913 . S
C1657 H1633 0.950 . S
C1657 C1656 1.524 . S
C1657 C1658 1.415 . S
C1658 H1634 0.950 . S
C1658 C1653 1.363 . S
C1658 C1657 1.415 . S
C1659 H1635 0.951 . S
C1659 C1660 1.366 . S
C1659 C1661 1.388 . S
C1660 C1659 1.366 . S
C1660 C1664 1.385 . S
C1661 H1636 0.951 . S
C1661 C1659 1.388 . S
C1661 C1662 1.366 . S
C1662 C1661 1.366 . S
C1662 C1663 1.414 . S
C1662 C1665 1.499 . S
C1663 H1637 0.950 . S
C1663 C1662 1.414 . S
C1663 C1664 1.374 . S
C1664 H1638 0.950 . S
C1664 C1660 1.385 . S
C1664 C1663 1.374 . S
C1665 C1662 1.499 . S
C1665 C1666 1.373 . S
C1665 C1667 1.389 . S
C1666 H1639 0.950 . S
C1666 C1652 1.377 . S
C1666 C1665 1.373 . S
C1667 C1651 1.377 . S
C1667 C1665 1.389 . S
C1667 C1668 1.524 . S
C1668 C1667 1.524 . S
C1668 C1669 1.397 . S
C1668 C1673 1.363 . S
C1669 H1640 0.950 . S
C1669 C1668 1.397 . S
C1669 C1670 1.334 . S
C1670 H1641 0.950 . S
C1670 C1669 1.334 . S
C1670 C1671 1.287 . S
C1671 C1670 1.287 . S
C1671 C1672 1.524 . S
C1671 H1674 0.999 . S
C1672 H1642 0.950 . S
C1672 C1671 1.524 . S
C1672 C1673 1.415 . S
C1673 H1643 0.950 . S
C1673 C1668 1.363 . S
C1673 C1672 1.415 . S
H1674 C1671 0.999 . S
H1675 C1656 0.913 . S
H1676 C1694 0.951 . S
H1677 C1696 0.951 . S
H1678 C1698 0.950 . S
H1679 C1699 0.950 . S
H1680 C1701 0.950 . S
H1681 C1704 0.950 . S
H1682 C1705 0.950 . S
H1683 C1707 0.950 . S
H1684 C1708 0.950 . S
H1685 C1709 0.951 . S
H1686 C1711 0.951 . S
H1687 C1713 0.950 . S
H1688 C1714 0.950 . S
H1689 C1716 0.950 . S
H1690 C1719 0.950 . S
H1691 C1720 0.950 . S
H1692 C1722 0.950 . S
H1693 C1723 0.950 . S
C1694 H1676 0.951 . S
C1694 C1695 1.366 . S
C1694 C1696 1.388 . S
C1695 C1694 1.366 . S
C1695 C1699 1.385 . S
C1696 H1677 0.951 . S
C1696 C1694 1.388 . S
C1696 C1697 1.366 . S
C1697 C1696 1.366 . S
C1697 C1698 1.414 . S
C1697 C1700 1.499 . S
C1698 H1678 0.950 . S
C1698 C1697 1.414 . S
C1698 C1699 1.374 . S
C1699 H1679 0.950 . S
C1699 C1695 1.385 . S
C1699 C1698 1.374 . S
C1700 C1697 1.499 . S
C1700 C1701 1.373 . S
C1700 C1702 1.389 . S
C1701 H1680 0.950 . S
C1701 C1700 1.373 . S
C1701 C1717 1.377 . S
C1702 C1700 1.389 . S
C1702 C1703 1.524 . S
C1702 C1716 1.377 . S
C1703 C1702 1.524 . S
C1703 C1704 1.397 . S
C1703 C1708 1.363 . S
C1704 H1681 0.950 . S
C1704 C1703 1.397 . S
C1704 C1705 1.334 . S
C1705 H1682 0.950 . S
C1705 C1704 1.334 . S
C1705 C1706 1.287 . S
C1706 C1705 1.287 . S
C1706 C1707 1.524 . S
C1706 H1725 0.913 . S
C1707 H1683 0.950 . S
C1707 C1706 1.524 . S
C1707 C1708 1.415 . S
C1708 H1684 0.950 . S
C1708 C1703 1.363 . S
C1708 C1707 1.415 . S
C1709 H1685 0.951 . S
C1709 C1710 1.366 . S
C1709 C1711 1.388 . S
C1710 C1709 1.366 . S
C1710 C1714 1.385 . S
C1711 H1686 0.951 . S
C1711 C1709 1.388 . S
C1711 C1712 1.366 . S
C1712 C1711 1.366 . S
C1712 C1713 1.414 . S
C1712 C1715 1.499 . S
C1713 H1687 0.950 . S
C1713 C1712 1.414 . S
C1713 C1714 1.374 . S
C1714 H1688 0.950 . S
C1714 C1710 1.385 . S
C1714 C1713 1.374 . S
C1715 C1712 1.499 . S
C1715 C1716 1.373 . S
C1715 C1717 1.389 . S
C1716 H1689 0.950 . S
C1716 C1702 1.377 . S
C1716 C1715 1.373 . S
C1717 C1701 1.377 . S
C1717 C1715 1.389 . S
C1717 C1718 1.524 . S
C1718 C1717 1.524 . S
C1718 C1719 1.397 . S
C1718 C1723 1.363 . S
C1719 H1690 0.950 . S
C1719 C1718 1.397 . S
C1719 C1720 1.334 . S
C1720 H1691 0.950 . S
C1720 C1719 1.334 . S
C1720 C1721 1.287 . S
C1721 C1720 1.287 . S
C1721 C1722 1.524 . S
C1721 H1724 0.999 . S
C1722 H1692 0.950 . S
C1722 C1721 1.524 . S
C1722 C1723 1.415 . S
C1723 H1693 0.950 . S
C1723 C1718 1.363 . S
C1723 C1722 1.415 . S
H1724 C1721 0.999 . S
H1725 C1706 0.913 . S
H1726 C1744 0.951 . S
H1727 C1746 0.951 . S
H1728 C1748 0.950 . S
H1729 C1749 0.950 . S
H1730 C1751 0.950 . S
H1731 C1754 0.950 . S
H1732 C1755 0.950 . S
H1733 C1757 0.950 . S
H1734 C1758 0.950 . S
H1735 C1759 0.951 . S
H1736 C1761 0.951 . S
H1737 C1763 0.950 . S
H1738 C1764 0.950 . S
H1739 C1766 0.950 . S
H1740 C1769 0.950 . S
H1741 C1770 0.950 . S
H1742 C1772 0.950 . S
H1743 C1773 0.950 . S
C1744 H1726 0.951 . S
C1744 C1745 1.366 . S
C1744 C1746 1.388 . S
C1745 C1744 1.366 . S
C1745 C1749 1.385 . S
C1746 H1727 0.951 . S
C1746 C1744 1.388 . S
C1746 C1747 1.366 . S
C1747 C1746 1.366 . S
C1747 C1748 1.414 . S
C1747 C1750 1.499 . S
C1748 H1728 0.950 . S
C1748 C1747 1.414 . S
C1748 C1749 1.374 . S
C1749 H1729 0.950 . S
C1749 C1745 1.385 . S
C1749 C1748 1.374 . S
C1750 C1747 1.499 . S
C1750 C1751 1.373 . S
C1750 C1752 1.389 . S
C1751 H1730 0.950 . S
C1751 C1750 1.373 . S
C1751 C1767 1.377 . S
C1752 C1750 1.389 . S
C1752 C1753 1.524 . S
C1752 C1766 1.377 . S
C1753 C1752 1.524 . S
C1753 C1754 1.397 . S
C1753 C1758 1.363 . S
C1754 H1731 0.950 . S
C1754 C1753 1.397 . S
C1754 C1755 1.334 . S
C1755 H1732 0.950 . S
C1755 C1754 1.334 . S
C1755 C1756 1.287 . S
C1756 C1755 1.287 . S
C1756 C1757 1.524 . S
C1756 H1775 0.913 . S
C1757 H1733 0.950 . S
C1757 C1756 1.524 . S
C1757 C1758 1.415 . S
C1758 H1734 0.950 . S
C1758 C1753 1.363 . S
C1758 C1757 1.415 . S
C1759 H1735 0.951 . S
C1759 C1760 1.366 . S
C1759 C1761 1.388 . S
C1760 C1759 1.366 . S
C1760 C1764 1.385 . S
C1761 H1736 0.951 . S
C1761 C1759 1.388 . S
C1761 C1762 1.366 . S
C1762 C1761 1.366 . S
C1762 C1763 1.414 . S
C1762 C1765 1.499 . S
C1763 H1737 0.950 . S
C1763 C1762 1.414 . S
C1763 C1764 1.374 . S
C1764 H1738 0.950 . S
C1764 C1760 1.385 . S
C1764 C1763 1.374 . S
C1765 C1762 1.499 . S
C1765 C1766 1.373 . S
C1765 C1767 1.389 . S
C1766 H1739 0.950 . S
C1766 C1752 1.377 . S
C1766 C1765 1.373 . S
C1767 C1751 1.377 . S
C1767 C1765 1.389 . S
C1767 C1768 1.524 . S
C1768 C1767 1.524 . S
C1768 C1769 1.397 . S
C1768 C1773 1.363 . S
C1769 H1740 0.950 . S
C1769 C1768 1.397 . S
C1769 C1770 1.334 . S
C1770 H1741 0.950 . S
C1770 C1769 1.334 . S
C1770 C1771 1.287 . S
C1771 C1770 1.287 . S
C1771 C1772 1.524 . S
C1771 H1774 0.999 . S
C1772 H1742 0.950 . S
C1772 C1771 1.524 . S
C1772 C1773 1.415 . S
C1773 H1743 0.950 . S
C1773 C1768 1.363 . S
C1773 C1772 1.415 . S
H1774 C1771 0.999 . S
H1775 C1756 0.913 . S
H1776 C1794 0.952 . S
H1777 C1796 0.951 . S
H1778 C1798 0.950 . S
H1779 C1799 0.950 . S
H1780 C1801 0.950 1_556 S
H1781 C1804 0.950 . S
H1782 C1805 0.950 . S
H1783 C1807 0.950 1_545 S
H1784 C1808 0.950 . S
H1785 C1809 0.951 . S
H1786 C1811 0.951 . S
H1787 C1813 0.938 1_545 S
H1788 C1814 0.950 . S
H1789 C1816 0.950 . S
H1790 C1819 0.950 . S
H1791 C1820 0.950 . S
H1792 C1822 0.950 . S
H1793 C1823 0.920 1_554 S
C1794 H1776 0.952 . S
C1794 C1795 1.366 1_554 S
C1794 C1796 1.388 . S
C1795 C1794 1.366 1_556 S
C1795 C1799 1.382 1_556 S
C1796 H1777 0.951 . S
C1796 C1794 1.388 . S
C1796 C1797 1.366 . S
C1797 C1796 1.366 . S
C1797 C1798 1.414 . S
C1797 C1800 1.499 . S
C1798 H1778 0.950 . S
C1798 C1797 1.414 . S
C1798 C1799 1.374 . S
C1799 H1779 0.950 . S
C1799 C1795 1.382 1_554 S
C1799 C1798 1.374 . S
C1800 C1797 1.499 . S
C1800 C1801 1.373 . S
C1800 C1802 1.389 . S
C1801 H1780 0.950 1_554 S
C1801 C1800 1.373 . S
C1801 C1817 1.377 . S
C1802 C1800 1.389 . S
C1802 C1803 1.524 . S
C1802 C1816 1.377 . S
C1803 C1802 1.524 . S
C1803 C1804 1.397 . S
C1803 C1808 1.363 . S
C1804 H1781 0.950 . S
C1804 C1803 1.397 . S
C1804 C1805 1.334 . S
C1805 H1782 0.950 . S
C1805 C1804 1.334 . S
C1805 C1806 1.287 . S
C1806 C1805 1.287 . S
C1806 C1807 1.524 . S
C1806 H1825 0.913 . S
C1807 H1783 0.950 1_565 S
C1807 C1806 1.524 . S
C1807 C1808 1.415 . S
C1808 H1784 0.950 . S
C1808 C1803 1.363 . S
C1808 C1807 1.415 . S
C1809 H1785 0.951 . S
C1809 C1810 1.402 . S
C1809 C1811 1.388 . S
C1810 C1809 1.402 . S
C1810 C1814 1.374 1_565 S
C1811 H1786 0.951 . S
C1811 C1809 1.388 . S
C1811 C1812 1.366 . S
C1812 C1811 1.366 . S
C1812 C1813 1.459 . S
C1812 C1815 1.499 . S
C1813 H1787 0.938 1_565 S
C1813 C1812 1.459 . S
C1813 C1814 1.343 1_565 S
C1814 H1788 0.950 . S
C1814 C1810 1.374 1_545 S
C1814 C1813 1.343 1_545 S
C1815 C1812 1.499 . S
C1815 C1816 1.373 . S
C1815 C1817 1.389 . S
C1816 H1789 0.950 . S
C1816 C1802 1.377 . S
C1816 C1815 1.373 . S
C1817 C1801 1.377 . S
C1817 C1815 1.389 . S
C1817 C1818 1.524 1_554 S
C1818 C1817 1.524 1_556 S
C1818 C1819 1.397 . S
C1818 C1823 1.363 . S
C1819 H1790 0.950 . S
C1819 C1818 1.397 . S
C1819 C1820 1.334 . S
C1820 H1791 0.950 . S
C1820 C1819 1.334 . S
C1820 C1821 1.287 . S
C1821 C1820 1.287 . S
C1821 C1822 1.524 . S
C1821 H1824 0.999 . S
C1822 H1792 0.950 . S
C1822 C1821 1.524 . S
C1822 C1823 1.415 . S
C1823 H1793 0.920 1_556 S
C1823 C1818 1.363 . S
C1823 C1822 1.415 . S
H1824 C1821 0.999 . S
H1825 C1806 0.913 . S
H1826 C1844 0.951 . S
H1827 C1846 0.951 . S
H1828 C1848 0.950 . S
H1829 C1849 0.950 . S
H1830 C1851 0.966 . S
H1831 C1854 0.950 . S
H1832 C1855 0.950 . S
H1833 C1857 0.950 . S
H1834 C1858 0.950 . S
H1835 C1859 0.951 . S
H1836 C1861 0.951 . S
H1837 C1863 0.950 . S
H1838 C1864 0.950 . S
H1839 C1866 0.950 . S
H1840 C1869 0.950 . S
H1841 C1870 0.950 . S
H1842 C1872 0.950 . S
H1843 C1873 0.950 1_554 S
C1844 H1826 0.951 . S
C1844 C1845 1.366 . S
C1844 C1846 1.388 . S
C1845 C1844 1.366 . S
C1845 C1849 1.385 . S
C1846 H1827 0.951 . S
C1846 C1844 1.388 . S
C1846 C1847 1.366 . S
C1847 C1846 1.366 . S
C1847 C1848 1.414 . S
C1847 C1850 1.499 . S
C1848 H1828 0.950 . S
C1848 C1847 1.414 . S
C1848 C1849 1.374 . S
C1849 H1829 0.950 . S
C1849 C1845 1.385 . S
C1849 C1848 1.374 . S
C1850 C1847 1.499 . S
C1850 C1851 1.373 . S
C1850 C1852 1.389 . S
C1851 H1830 0.966 . S
C1851 C1850 1.373 . S
C1851 C1867 1.377 . S
C1852 C1850 1.389 . S
C1852 C1853 1.524 . S
C1852 C1866 1.377 . S
C1853 C1852 1.524 . S
C1853 C1854 1.397 . S
C1853 C1858 1.363 . S
C1854 H1831 0.950 . S
C1854 C1853 1.397 . S
C1854 C1855 1.334 . S
C1855 H1832 0.950 . S
C1855 C1854 1.334 . S
C1855 C1856 1.287 . S
C1856 C1855 1.287 . S
C1856 C1857 1.524 . S
C1856 H1875 0.913 . S
C1857 H1833 0.950 . S
C1857 C1856 1.524 . S
C1857 C1858 1.415 . S
C1858 H1834 0.950 . S
C1858 C1853 1.363 . S
C1858 C1857 1.415 . S
C1859 H1835 0.951 . S
C1859 C1860 1.366 . S
C1859 C1861 1.388 . S
C1860 C1859 1.366 . S
C1860 C1864 1.385 . S
C1861 H1836 0.951 . S
C1861 C1859 1.388 . S
C1861 C1862 1.366 . S
C1862 C1861 1.366 . S
C1862 C1863 1.414 . S
C1862 C1865 1.499 . S
C1863 H1837 0.950 . S
C1863 C1862 1.414 . S
C1863 C1864 1.374 . S
C1864 H1838 0.950 . S
C1864 C1860 1.385 . S
C1864 C1863 1.374 . S
C1865 C1862 1.499 . S
C1865 C1866 1.373 . S
C1865 C1867 1.389 . S
C1866 H1839 0.950 . S
C1866 C1852 1.377 . S
C1866 C1865 1.373 . S
C1867 C1851 1.377 . S
C1867 C1865 1.389 . S
C1867 C1868 1.524 1_554 S
C1868 C1867 1.524 1_556 S
C1868 C1869 1.397 . S
C1868 C1873 1.363 . S
C1869 H1840 0.950 . S
C1869 C1868 1.397 . S
C1869 C1870 1.334 . S
C1870 H1841 0.950 . S
C1870 C1869 1.334 . S
C1870 C1871 1.287 . S
C1871 C1870 1.287 . S
C1871 C1872 1.524 . S
C1871 H1874 0.999 . S
C1872 H1842 0.950 . S
C1872 C1871 1.524 . S
C1872 C1873 1.415 . S
C1873 H1843 0.950 1_556 S
C1873 C1868 1.363 . S
C1873 C1872 1.415 . S
H1874 C1871 0.999 . S
H1875 C1856 0.913 . S
H1876 C1894 0.951 . S
H1877 C1896 0.951 . S
H1878 C1898 0.950 . S
H1879 C1899 0.950 . S
H1880 C1901 0.950 . S
H1881 C1904 0.950 . S
H1882 C1905 0.950 . S
H1883 C1907 0.950 . S
H1884 C1908 0.950 . S
H1885 C1909 0.951 . S
H1886 C1911 0.951 . S
H1887 C1913 0.950 . S
H1888 C1914 0.950 . S
H1889 C1916 0.950 . S
H1890 C1919 0.950 . S
H1891 C1920 0.950 . S
H1892 C1922 0.950 . S
H1893 C1923 0.950 . S
C1894 H1876 0.951 . S
C1894 C1895 1.366 . S
C1894 C1896 1.388 . S
C1895 C1894 1.366 . S
C1895 C1899 1.385 . S
C1896 H1877 0.951 . S
C1896 C1894 1.388 . S
C1896 C1897 1.366 . S
C1897 C1896 1.366 . S
C1897 C1898 1.414 . S
C1897 C1900 1.499 . S
C1898 H1878 0.950 . S
C1898 C1897 1.414 . S
C1898 C1899 1.374 . S
C1899 H1879 0.950 . S
C1899 C1895 1.385 . S
C1899 C1898 1.374 . S
C1900 C1897 1.499 . S
C1900 C1901 1.373 . S
C1900 C1902 1.389 . S
C1901 H1880 0.950 . S
C1901 C1900 1.373 . S
C1901 C1917 1.377 . S
C1902 C1900 1.389 . S
C1902 C1903 1.524 . S
C1902 C1916 1.377 . S
C1903 C1902 1.524 . S
C1903 C1904 1.397 . S
C1903 C1908 1.363 . S
C1904 H1881 0.950 . S
C1904 C1903 1.397 . S
C1904 C1905 1.334 . S
C1905 H1882 0.950 . S
C1905 C1904 1.334 . S
C1905 C1906 1.287 . S
C1906 C1905 1.287 . S
C1906 C1907 1.524 . S
C1906 H1925 0.913 . S
C1907 H1883 0.950 . S
C1907 C1906 1.524 . S
C1907 C1908 1.415 . S
C1908 H1884 0.950 . S
C1908 C1903 1.363 . S
C1908 C1907 1.415 . S
C1909 H1885 0.951 . S
C1909 C1910 1.366 . S
C1909 C1911 1.388 . S
C1910 C1909 1.366 . S
C1910 C1914 1.385 . S
C1911 H1886 0.951 . S
C1911 C1909 1.388 . S
C1911 C1912 1.366 . S
C1912 C1911 1.366 . S
C1912 C1913 1.414 . S
C1912 C1915 1.499 . S
C1913 H1887 0.950 . S
C1913 C1912 1.414 . S
C1913 C1914 1.374 . S
C1914 H1888 0.950 . S
C1914 C1910 1.385 . S
C1914 C1913 1.374 . S
C1915 C1912 1.499 . S
C1915 C1916 1.373 . S
C1915 C1917 1.389 . S
C1916 H1889 0.950 . S
C1916 C1902 1.377 . S
C1916 C1915 1.373 . S
C1917 C1901 1.377 . S
C1917 C1915 1.389 . S
C1917 C1918 1.524 . S
C1918 C1917 1.524 . S
C1918 C1919 1.397 . S
C1918 C1923 1.363 . S
C1919 H1890 0.950 . S
C1919 C1918 1.397 . S
C1919 C1920 1.334 . S
C1920 H1891 0.950 . S
C1920 C1919 1.334 . S
C1920 C1921 1.287 . S
C1921 C1920 1.287 . S
C1921 C1922 1.524 . S
C1921 H1924 0.999 . S
C1922 H1892 0.950 . S
C1922 C1921 1.524 . S
C1922 C1923 1.415 . S
C1923 H1893 0.950 . S
C1923 C1918 1.363 . S
C1923 C1922 1.415 . S
H1924 C1921 0.999 . S
H1925 C1906 0.913 . S
H1926 C1944 0.951 . S
H1927 C1946 0.951 . S
H1928 C1948 0.950 . S
H1929 C1949 0.950 . S
H1930 C1951 0.950 . S
H1931 C1954 0.950 . S
H1932 C1955 0.950 . S
H1933 C1957 0.950 . S
H1934 C1958 0.950 . S
H1935 C1959 0.951 . S
H1936 C1961 0.951 . S
H1937 C1963 0.950 . S
H1938 C1964 0.950 . S
H1939 C1966 0.950 . S
H1940 C1969 0.950 . S
H1941 C1970 0.950 . S
H1942 C1972 0.950 . S
H1943 C1973 0.950 . S
C1944 H1926 0.951 . S
C1944 C1945 1.366 . S
C1944 C1946 1.388 . S
C1945 C1944 1.366 . S
C1945 C1949 1.385 . S
C1946 H1927 0.951 . S
C1946 C1944 1.388 . S
C1946 C1947 1.366 . S
C1947 C1946 1.366 . S
C1947 C1948 1.414 . S
C1947 C1950 1.499 . S
C1948 H1928 0.950 . S
C1948 C1947 1.414 . S
C1948 C1949 1.374 . S
C1949 H1929 0.950 . S
C1949 C1945 1.385 . S
C1949 C1948 1.374 . S
C1950 C1947 1.499 . S
C1950 C1951 1.373 . S
C1950 C1952 1.389 . S
C1951 H1930 0.950 . S
C1951 C1950 1.373 . S
C1951 C1967 1.377 . S
C1952 C1950 1.389 . S
C1952 C1953 1.524 . S
C1952 C1966 1.377 . S
C1953 C1952 1.524 . S
C1953 C1954 1.397 . S
C1953 C1958 1.363 . S
C1954 H1931 0.950 . S
C1954 C1953 1.397 . S
C1954 C1955 1.334 . S
C1955 H1932 0.950 . S
C1955 C1954 1.334 . S
C1955 C1956 1.287 . S
C1956 C1955 1.287 . S
C1956 C1957 1.524 . S
C1956 H1975 0.913 . S
C1957 H1933 0.950 . S
C1957 C1956 1.524 . S
C1957 C1958 1.415 . S
C1958 H1934 0.950 . S
C1958 C1953 1.363 . S
C1958 C1957 1.415 . S
C1959 H1935 0.951 . S
C1959 C1960 1.366 . S
C1959 C1961 1.388 . S
C1960 C1959 1.366 . S
C1960 C1964 1.385 . S
C1961 H1936 0.951 . S
C1961 C1959 1.388 . S
C1961 C1962 1.366 . S
C1962 C1961 1.366 . S
C1962 C1963 1.414 . S
C1962 C1965 1.499 . S
C1963 H1937 0.950 . S
C1963 C1962 1.414 . S
C1963 C1964 1.374 . S
C1964 H1938 0.950 . S
C1964 C1960 1.385 . S
C1964 C1963 1.374 . S
C1965 C1962 1.499 . S
C1965 C1966 1.373 . S
C1965 C1967 1.389 . S
C1966 H1939 0.950 . S
C1966 C1952 1.377 . S
C1966 C1965 1.373 . S
C1967 C1951 1.377 . S
C1967 C1965 1.389 . S
C1967 C1968 1.524 . S
C1968 C1967 1.524 . S
C1968 C1969 1.397 . S
C1968 C1973 1.363 . S
C1969 H1940 0.950 . S
C1969 C1968 1.397 . S
C1969 C1970 1.334 . S
C1970 H1941 0.950 . S
C1970 C1969 1.334 . S
C1970 C1971 1.287 . S
C1971 C1970 1.287 . S
C1971 C1972 1.524 . S
C1971 H1974 0.999 . S
C1972 H1942 0.950 . S
C1972 C1971 1.524 . S
C1972 C1973 1.415 . S
C1973 H1943 0.950 . S
C1973 C1968 1.363 . S
C1973 C1972 1.415 . S
H1974 C1971 0.999 . S
H1975 C1956 0.913 . S
H1976 C1994 0.951 . S
H1977 C1996 0.951 . S
H1978 C1998 0.950 . S
H1979 C1999 0.950 . S
H1980 C2001 0.950 . S
H1981 C2004 0.950 . S
H1982 C2005 0.950 . S
H1983 C2007 0.950 . S
H1984 C2008 0.950 . S
H1985 C2009 0.951 . S
H1986 C2011 0.951 . S
H1987 C2013 0.950 . S
H1988 C2014 0.950 . S
H1989 C2016 0.950 . S
H1990 C2019 0.950 . S
H1991 C2020 0.950 . S
H1992 C2022 0.950 . S
H1993 C2023 0.950 . S
C1994 H1976 0.951 . S
C1994 C1995 1.366 . S
C1994 C1996 1.388 . S
C1995 C1994 1.366 . S
C1995 C1999 1.385 . S
C1996 H1977 0.951 . S
C1996 C1994 1.388 . S
C1996 C1997 1.366 . S
C1997 C1996 1.366 . S
C1997 C1998 1.414 . S
C1997 C2000 1.499 . S
C1998 H1978 0.950 . S
C1998 C1997 1.414 . S
C1998 C1999 1.374 . S
C1999 H1979 0.950 . S
C1999 C1995 1.385 . S
C1999 C1998 1.374 . S
C2000 C1997 1.499 . S
C2000 C2001 1.373 . S
C2000 C2002 1.389 . S
C2001 H1980 0.950 . S
C2001 C2000 1.373 . S
C2001 C2017 1.377 . S
C2002 C2000 1.389 . S
C2002 C2003 1.524 . S
C2002 C2016 1.377 . S
C2003 C2002 1.524 . S
C2003 C2004 1.397 . S
C2003 C2008 1.363 . S
C2004 H1981 0.950 . S
C2004 C2003 1.397 . S
C2004 C2005 1.334 . S
C2005 H1982 0.950 . S
C2005 C2004 1.334 . S
C2005 C2006 1.287 . S
C2006 C2005 1.287 . S
C2006 C2007 1.524 . S
C2006 H2025 0.913 . S
C2007 H1983 0.950 . S
C2007 C2006 1.524 . S
C2007 C2008 1.415 . S
C2008 H1984 0.950 . S
C2008 C2003 1.363 . S
C2008 C2007 1.415 . S
C2009 H1985 0.951 . S
C2009 C2010 1.366 . S
C2009 C2011 1.388 . S
C2010 C2009 1.366 . S
C2010 C2014 1.385 . S
C2011 H1986 0.951 . S
C2011 C2009 1.388 . S
C2011 C2012 1.366 . S
C2012 C2011 1.366 . S
C2012 C2013 1.414 . S
C2012 C2015 1.499 . S
C2013 H1987 0.950 . S
C2013 C2012 1.414 . S
C2013 C2014 1.374 . S
C2014 H1988 0.950 . S
C2014 C2010 1.385 . S
C2014 C2013 1.374 . S
C2015 C2012 1.499 . S
C2015 C2016 1.373 . S
C2015 C2017 1.389 . S
C2016 H1989 0.950 . S
C2016 C2002 1.377 . S
C2016 C2015 1.373 . S
C2017 C2001 1.377 . S
C2017 C2015 1.389 . S
C2017 C2018 1.524 . S
C2018 C2017 1.524 . S
C2018 C2019 1.397 . S
C2018 C2023 1.363 . S
C2019 H1990 0.950 . S
C2019 C2018 1.397 . S
C2019 C2020 1.334 . S
C2020 H1991 0.950 . S
C2020 C2019 1.334 . S
C2020 C2021 1.287 . S
C2021 C2020 1.287 . S
C2021 C2022 1.524 . S
C2021 H2024 0.999 . S
C2022 H1992 0.950 . S
C2022 C2021 1.524 . S
C2022 C2023 1.415 . S
C2023 H1993 0.950 . S
C2023 C2018 1.363 . S
C2023 C2022 1.415 . S
H2024 C2021 0.999 . S
H2025 C2006 0.913 . S
H2026 C2044 0.951 . S
H2027 C2046 0.951 . S
H2028 C2048 0.950 . S
H2029 C2049 0.950 . S
H2030 C2051 0.950 . S
H2031 C2054 0.950 . S
H2032 C2055 0.950 . S
H2033 C2057 0.950 . S
H2034 C2058 0.950 . S
H2035 C2059 0.951 . S
H2036 C2061 0.951 . S
H2037 C2063 0.950 . S
H2038 C2064 0.950 . S
H2039 C2066 0.950 . S
H2040 C2069 0.950 . S
H2041 C2070 0.950 . S
H2042 C2072 0.950 . S
H2043 C2073 0.950 . S
C2044 H2026 0.951 . S
C2044 C2045 1.366 . S
C2044 C2046 1.388 . S
C2045 C2044 1.366 . S
C2045 C2049 1.385 . S
C2046 H2027 0.951 . S
C2046 C2044 1.388 . S
C2046 C2047 1.366 . S
C2047 C2046 1.366 . S
C2047 C2048 1.414 . S
C2047 C2050 1.499 . S
C2048 H2028 0.950 . S
C2048 C2047 1.414 . S
C2048 C2049 1.374 . S
C2049 H2029 0.950 . S
C2049 C2045 1.385 . S
C2049 C2048 1.374 . S
C2050 C2047 1.499 . S
C2050 C2051 1.373 . S
C2050 C2052 1.389 . S
C2051 H2030 0.950 . S
C2051 C2050 1.373 . S
C2051 C2067 1.377 . S
C2052 C2050 1.389 . S
C2052 C2053 1.524 . S
C2052 C2066 1.377 . S
C2053 C2052 1.524 . S
C2053 C2054 1.397 . S
C2053 C2058 1.363 . S
C2054 H2031 0.950 . S
C2054 C2053 1.397 . S
C2054 C2055 1.334 . S
C2055 H2032 0.950 . S
C2055 C2054 1.334 . S
C2055 C2056 1.287 . S
C2056 C2055 1.287 . S
C2056 C2057 1.524 . S
C2056 H2075 0.913 . S
C2057 H2033 0.950 . S
C2057 C2056 1.524 . S
C2057 C2058 1.415 . S
C2058 H2034 0.950 . S
C2058 C2053 1.363 . S
C2058 C2057 1.415 . S
C2059 H2035 0.951 . S
C2059 C2060 1.366 . S
C2059 C2061 1.388 . S
C2060 C2059 1.366 . S
C2060 C2064 1.385 . S
C2061 H2036 0.951 . S
C2061 C2059 1.388 . S
C2061 C2062 1.366 . S
C2062 C2061 1.366 . S
C2062 C2063 1.414 . S
C2062 C2065 1.499 . S
C2063 H2037 0.950 . S
C2063 C2062 1.414 . S
C2063 C2064 1.374 . S
C2064 H2038 0.950 . S
C2064 C2060 1.385 . S
C2064 C2063 1.374 . S
C2065 C2062 1.499 . S
C2065 C2066 1.373 . S
C2065 C2067 1.389 . S
C2066 H2039 0.950 . S
C2066 C2052 1.377 . S
C2066 C2065 1.373 . S
C2067 C2051 1.377 . S
C2067 C2065 1.389 . S
C2067 C2068 1.524 . S
C2068 C2067 1.524 . S
C2068 C2069 1.397 . S
C2068 C2073 1.363 . S
C2069 H2040 0.950 . S
C2069 C2068 1.397 . S
C2069 C2070 1.334 . S
C2070 H2041 0.950 . S
C2070 C2069 1.334 . S
C2070 C2071 1.287 . S
C2071 C2070 1.287 . S
C2071 C2072 1.524 . S
C2071 H2074 0.999 . S
C2072 H2042 0.950 . S
C2072 C2071 1.524 . S
C2072 C2073 1.415 . S
C2073 H2043 0.950 . S
C2073 C2068 1.363 . S
C2073 C2072 1.415 . S
H2074 C2071 0.999 . S
H2075 C2056 0.913 . S
H2076 C2094 0.951 . S
H2077 C2096 0.951 . S
H2078 C2098 0.950 . S
H2079 C2099 0.950 . S
H2080 C2101 0.950 . S
H2081 C2104 0.950 . S
H2082 C2105 0.950 . S
H2083 C2107 0.950 . S
H2084 C2108 0.950 . S
H2085 C2109 0.951 . S
H2086 C2111 0.951 . S
H2087 C2113 0.950 . S
H2088 C2114 0.950 . S
H2089 C2116 0.950 . S
H2090 C2119 0.950 . S
H2091 C2120 0.950 . S
H2092 C2122 0.950 . S
H2093 C2123 0.950 . S
C2094 H2076 0.951 . S
C2094 C2095 1.366 . S
C2094 C2096 1.388 . S
C2095 C2094 1.366 . S
C2095 C2099 1.385 . S
C2096 H2077 0.951 . S
C2096 C2094 1.388 . S
C2096 C2097 1.366 . S
C2097 C2096 1.366 . S
C2097 C2098 1.414 . S
C2097 C2100 1.499 . S
C2098 H2078 0.950 . S
C2098 C2097 1.414 . S
C2098 C2099 1.374 . S
C2099 H2079 0.950 . S
C2099 C2095 1.385 . S
C2099 C2098 1.374 . S
C2100 C2097 1.499 . S
C2100 C2101 1.373 . S
C2100 C2102 1.389 . S
C2101 H2080 0.950 . S
C2101 C2100 1.373 . S
C2101 C2117 1.377 . S
C2102 C2100 1.389 . S
C2102 C2103 1.524 . S
C2102 C2116 1.377 . S
C2103 C2102 1.524 . S
C2103 C2104 1.397 . S
C2103 C2108 1.363 . S
C2104 H2081 0.950 . S
C2104 C2103 1.397 . S
C2104 C2105 1.334 . S
C2105 H2082 0.950 . S
C2105 C2104 1.334 . S
C2105 C2106 1.287 . S
C2106 C2105 1.287 . S
C2106 C2107 1.524 . S
C2106 H2125 0.913 . S
C2107 H2083 0.950 . S
C2107 C2106 1.524 . S
C2107 C2108 1.415 . S
C2108 H2084 0.950 . S
C2108 C2103 1.363 . S
C2108 C2107 1.415 . S
C2109 H2085 0.951 . S
C2109 C2110 1.366 . S
C2109 C2111 1.388 . S
C2110 C2109 1.366 . S
C2110 C2114 1.385 . S
C2111 H2086 0.951 . S
C2111 C2109 1.388 . S
C2111 C2112 1.366 . S
C2112 C2111 1.366 . S
C2112 C2113 1.414 . S
C2112 C2115 1.499 . S
C2113 H2087 0.950 . S
C2113 C2112 1.414 . S
C2113 C2114 1.374 . S
C2114 H2088 0.950 . S
C2114 C2110 1.385 . S
C2114 C2113 1.374 . S
C2115 C2112 1.499 . S
C2115 C2116 1.373 . S
C2115 C2117 1.389 . S
C2116 H2089 0.950 . S
C2116 C2102 1.377 . S
C2116 C2115 1.373 . S
C2117 C2101 1.377 . S
C2117 C2115 1.389 . S
C2117 C2118 1.524 . S
C2118 C2117 1.524 . S
C2118 C2119 1.397 . S
C2118 C2123 1.363 . S
C2119 H2090 0.950 . S
C2119 C2118 1.397 . S
C2119 C2120 1.334 . S
C2120 H2091 0.950 . S
C2120 C2119 1.334 . S
C2120 C2121 1.287 . S
C2121 C2120 1.287 . S
C2121 C2122 1.524 . S
C2121 H2124 0.999 . S
C2122 H2092 0.950 . S
C2122 C2121 1.524 . S
C2122 C2123 1.415 . S
C2123 H2093 0.950 . S
C2123 C2118 1.363 . S
C2123 C2122 1.415 . S
H2124 C2121 0.999 . S
H2125 C2106 0.913 . S
H2126 C2144 0.951 . S
H2127 C2146 0.951 . S
H2128 C2148 0.950 . S
H2129 C2149 0.950 . S
H2130 C2151 0.950 . S
H2131 C2154 0.950 . S
H2132 C2155 0.950 . S
H2133 C2157 0.950 . S
H2134 C2158 0.950 . S
H2135 C2159 0.951 . S
H2136 C2161 0.951 . S
H2137 C2163 0.950 . S
H2138 C2164 0.950 . S
H2139 C2166 0.950 . S
H2140 C2169 0.950 . S
H2141 C2170 0.950 . S
H2142 C2172 0.950 . S
H2143 C2173 0.950 . S
C2144 H2126 0.951 . S
C2144 C2145 1.366 . S
C2144 C2146 1.388 . S
C2145 C2144 1.366 . S
C2145 C2149 1.385 . S
C2146 H2127 0.951 . S
C2146 C2144 1.388 . S
C2146 C2147 1.366 . S
C2147 C2146 1.366 . S
C2147 C2148 1.414 . S
C2147 C2150 1.499 . S
C2148 H2128 0.950 . S
C2148 C2147 1.414 . S
C2148 C2149 1.374 . S
C2149 H2129 0.950 . S
C2149 C2145 1.385 . S
C2149 C2148 1.374 . S
C2150 C2147 1.499 . S
C2150 C2151 1.373 . S
C2150 C2152 1.389 . S
C2151 H2130 0.950 . S
C2151 C2150 1.373 . S
C2151 C2167 1.377 . S
C2152 C2150 1.389 . S
C2152 C2153 1.524 . S
C2152 C2166 1.377 . S
C2153 C2152 1.524 . S
C2153 C2154 1.397 . S
C2153 C2158 1.363 . S
C2154 H2131 0.950 . S
C2154 C2153 1.397 . S
C2154 C2155 1.334 . S
C2155 H2132 0.950 . S
C2155 C2154 1.334 . S
C2155 C2156 1.287 . S
C2156 C2155 1.287 . S
C2156 C2157 1.524 . S
C2156 H2175 0.913 . S
C2157 H2133 0.950 . S
C2157 C2156 1.524 . S
C2157 C2158 1.415 . S
C2158 H2134 0.950 . S
C2158 C2153 1.363 . S
C2158 C2157 1.415 . S
C2159 H2135 0.951 . S
C2159 C2160 1.366 . S
C2159 C2161 1.388 . S
C2160 C2159 1.366 . S
C2160 C2164 1.385 . S
C2161 H2136 0.951 . S
C2161 C2159 1.388 . S
C2161 C2162 1.366 . S
C2162 C2161 1.366 . S
C2162 C2163 1.414 . S
C2162 C2165 1.499 . S
C2163 H2137 0.950 . S
C2163 C2162 1.414 . S
C2163 C2164 1.374 . S
C2164 H2138 0.950 . S
C2164 C2160 1.385 . S
C2164 C2163 1.374 . S
C2165 C2162 1.499 . S
C2165 C2166 1.373 . S
C2165 C2167 1.389 . S
C2166 H2139 0.950 . S
C2166 C2152 1.377 . S
C2166 C2165 1.373 . S
C2167 C2151 1.377 . S
C2167 C2165 1.389 . S
C2167 C2168 1.524 . S
C2168 C2167 1.524 . S
C2168 C2169 1.397 . S
C2168 C2173 1.363 . S
C2169 H2140 0.950 . S
C2169 C2168 1.397 . S
C2169 C2170 1.334 . S
C2170 H2141 0.950 . S
C2170 C2169 1.334 . S
C2170 C2171 1.287 . S
C2171 C2170 1.287 . S
C2171 C2172 1.524 . S
C2171 H2174 0.999 . S
C2172 H2142 0.950 . S
C2172 C2171 1.524 . S
C2172 C2173 1.415 . S
C2173 H2143 0.950 . S
C2173 C2168 1.363 . S
C2173 C2172 1.415 . S
H2174 C2171 0.999 . S
H2175 C2156 0.913 . S
H2176 C2194 0.951 . S
H2177 C2196 0.951 . S
H2178 C2198 0.950 . S
H2179 C2199 0.950 . S
H2180 C2201 0.950 . S
H2181 C2204 0.950 . S
H2182 C2205 0.950 . S
H2183 C2207 0.950 . S
H2184 C2208 0.950 . S
H2185 C2209 0.951 . S
H2186 C2211 0.951 . S
H2187 C2213 0.950 . S
H2188 C2214 0.950 . S
H2189 C2216 0.950 . S
H2190 C2219 0.950 . S
H2191 C2220 0.947 1_556 S
H2192 C2222 0.950 . S
H2193 C2223 0.950 . S
C2194 H2176 0.951 . S
C2194 C2195 1.366 . S
C2194 C2196 1.388 . S
C2195 C2194 1.366 . S
C2195 C2199 1.385 . S
C2196 H2177 0.951 . S
C2196 C2194 1.388 . S
C2196 C2197 1.366 . S
C2197 C2196 1.366 . S
C2197 C2198 1.414 . S
C2197 C2200 1.499 . S
C2198 H2178 0.950 . S
C2198 C2197 1.414 . S
C2198 C2199 1.374 . S
C2199 H2179 0.950 . S
C2199 C2195 1.385 . S
C2199 C2198 1.374 . S
C2200 C2197 1.499 . S
C2200 C2201 1.373 . S
C2200 C2202 1.389 . S
C2201 H2180 0.950 . S
C2201 C2200 1.373 . S
C2201 C2217 1.377 . S
C2202 C2200 1.389 . S
C2202 C2203 1.524 . S
C2202 C2216 1.377 . S
C2203 C2202 1.524 . S
C2203 C2204 1.397 . S
C2203 C2208 1.363 . S
C2204 H2181 0.950 . S
C2204 C2203 1.397 . S
C2204 C2205 1.334 . S
C2205 H2182 0.950 . S
C2205 C2204 1.334 . S
C2205 C2206 1.287 . S
C2206 C2205 1.287 . S
C2206 C2207 1.524 . S
C2206 H2225 0.913 . S
C2207 H2183 0.950 . S
C2207 C2206 1.524 . S
C2207 C2208 1.415 . S
C2208 H2184 0.950 . S
C2208 C2203 1.363 . S
C2208 C2207 1.415 . S
C2209 H2185 0.951 . S
C2209 C2210 1.366 . S
C2209 C2211 1.388 . S
C2210 C2209 1.366 . S
C2210 C2214 1.385 . S
C2211 H2186 0.951 . S
C2211 C2209 1.388 . S
C2211 C2212 1.366 . S
C2212 C2211 1.366 . S
C2212 C2213 1.414 . S
C2212 C2215 1.499 . S
C2213 H2187 0.950 . S
C2213 C2212 1.414 . S
C2213 C2214 1.374 . S
C2214 H2188 0.950 . S
C2214 C2210 1.385 . S
C2214 C2213 1.374 . S
C2215 C2212 1.499 . S
C2215 C2216 1.373 . S
C2215 C2217 1.389 . S
C2216 H2189 0.950 . S
C2216 C2202 1.377 . S
C2216 C2215 1.373 . S
C2217 C2201 1.377 . S
C2217 C2215 1.389 . S
C2217 C2218 1.524 . S
C2218 C2217 1.524 . S
C2218 C2219 1.397 . S
C2218 C2223 1.363 . S
C2219 H2190 0.950 . S
C2219 C2218 1.397 . S
C2219 C2220 1.346 . S
C2220 H2191 0.947 1_554 S
C2220 C2219 1.346 . S
C2220 C2221 1.278 1_554 S
C2221 C2220 1.278 1_556 S
C2221 C2222 1.524 . S
C2221 H2224 0.999 . S
C2222 H2192 0.950 . S
C2222 C2221 1.524 . S
C2222 C2223 1.415 1_556 S
C2223 H2193 0.950 . S
C2223 C2218 1.363 . S
C2223 C2222 1.415 1_554 S
H2224 C2221 0.999 . S
H2225 C2206 0.913 . S
H2226 C2244 0.951 . S
H2227 C2246 0.951 . S
H2228 C2248 0.950 . S
H2229 C2249 0.950 . S
H2230 C2251 0.950 . S
H2231 C2254 0.950 . S
H2232 C2255 0.950 . S
H2233 C2257 0.950 . S
H2234 C2258 0.950 . S
H2235 C2259 0.951 . S
H2236 C2261 0.951 . S
H2237 C2263 0.950 . S
H2238 C2264 0.950 . S
H2239 C2266 0.950 . S
H2240 C2269 0.950 . S
H2241 C2270 0.950 . S
H2242 C2272 0.950 . S
H2243 C2273 0.950 . S
C2244 H2226 0.951 . S
C2244 C2245 1.366 . S
C2244 C2246 1.388 . S
C2245 C2244 1.366 . S
C2245 C2249 1.385 . S
C2246 H2227 0.951 . S
C2246 C2244 1.388 . S
C2246 C2247 1.366 . S
C2247 C2246 1.366 . S
C2247 C2248 1.414 . S
C2247 C2250 1.499 . S
C2248 H2228 0.950 . S
C2248 C2247 1.414 . S
C2248 C2249 1.374 . S
C2249 H2229 0.950 . S
C2249 C2245 1.385 . S
C2249 C2248 1.374 . S
C2250 C2247 1.499 . S
C2250 C2251 1.373 . S
C2250 C2252 1.389 . S
C2251 H2230 0.950 . S
C2251 C2250 1.373 . S
C2251 C2267 1.377 . S
C2252 C2250 1.389 . S
C2252 C2253 1.524 . S
C2252 C2266 1.377 . S
C2253 C2252 1.524 . S
C2253 C2254 1.397 . S
C2253 C2258 1.363 . S
C2254 H2231 0.950 . S
C2254 C2253 1.397 . S
C2254 C2255 1.334 . S
C2255 H2232 0.950 . S
C2255 C2254 1.334 . S
C2255 C2256 1.287 . S
C2256 C2255 1.287 . S
C2256 C2257 1.524 . S
C2256 H2275 0.913 . S
C2257 H2233 0.950 . S
C2257 C2256 1.524 . S
C2257 C2258 1.415 . S
C2258 H2234 0.950 . S
C2258 C2253 1.363 . S
C2258 C2257 1.415 . S
C2259 H2235 0.951 . S
C2259 C2260 1.366 . S
C2259 C2261 1.388 . S
C2260 C2259 1.366 . S
C2260 C2264 1.385 . S
C2261 H2236 0.951 . S
C2261 C2259 1.388 . S
C2261 C2262 1.366 . S
C2262 C2261 1.366 . S
C2262 C2263 1.414 . S
C2262 C2265 1.499 . S
C2263 H2237 0.950 . S
C2263 C2262 1.414 . S
C2263 C2264 1.374 . S
C2264 H2238 0.950 . S
C2264 C2260 1.385 . S
C2264 C2263 1.374 . S
C2265 C2262 1.499 . S
C2265 C2266 1.373 . S
C2265 C2267 1.389 . S
C2266 H2239 0.950 . S
C2266 C2252 1.377 . S
C2266 C2265 1.373 . S
C2267 C2251 1.377 . S
C2267 C2265 1.389 . S
C2267 C2268 1.524 . S
C2268 C2267 1.524 . S
C2268 C2269 1.397 . S
C2268 C2273 1.363 . S
C2269 H2240 0.950 . S
C2269 C2268 1.397 . S
C2269 C2270 1.334 . S
C2270 H2241 0.950 . S
C2270 C2269 1.334 . S
C2270 C2271 1.287 . S
C2271 C2270 1.287 . S
C2271 C2272 1.524 . S
C2271 H2274 0.999 . S
C2272 H2242 0.950 . S
C2272 C2271 1.524 . S
C2272 C2273 1.415 . S
C2273 H2243 0.950 . S
C2273 C2268 1.363 . S
C2273 C2272 1.415 . S
H2274 C2271 0.999 . S
H2275 C2256 0.913 . S
H2276 C2294 0.951 . S
H2277 C2296 0.951 . S
H2278 C2298 0.950 . S
H2279 C2299 0.950 . S
H2280 C2301 0.950 . S
H2281 C2304 0.950 . S
H2282 C2305 0.950 . S
H2283 C2307 0.950 . S
H2284 C2308 0.950 . S
H2285 C2309 0.951 . S
H2286 C2311 0.951 . S
H2287 C2313 0.950 . S
H2288 C2314 0.950 . S
H2289 C2316 0.950 . S
H2290 C2319 0.950 . S
H2291 C2320 0.950 . S
H2292 C2322 0.950 . S
H2293 C2323 0.950 . S
C2294 H2276 0.951 . S
C2294 C2295 1.366 . S
C2294 C2296 1.388 . S
C2295 C2294 1.366 . S
C2295 C2299 1.385 . S
C2296 H2277 0.951 . S
C2296 C2294 1.388 . S
C2296 C2297 1.366 . S
C2297 C2296 1.366 . S
C2297 C2298 1.414 . S
C2297 C2300 1.499 . S
C2298 H2278 0.950 . S
C2298 C2297 1.414 . S
C2298 C2299 1.374 . S
C2299 H2279 0.950 . S
C2299 C2295 1.385 . S
C2299 C2298 1.374 . S
C2300 C2297 1.499 . S
C2300 C2301 1.373 . S
C2300 C2302 1.389 . S
C2301 H2280 0.950 . S
C2301 C2300 1.373 . S
C2301 C2317 1.377 . S
C2302 C2300 1.389 . S
C2302 C2303 1.524 . S
C2302 C2316 1.377 . S
C2303 C2302 1.524 . S
C2303 C2304 1.397 . S
C2303 C2308 1.363 . S
C2304 H2281 0.950 . S
C2304 C2303 1.397 . S
C2304 C2305 1.334 . S
C2305 H2282 0.950 . S
C2305 C2304 1.334 . S
C2305 C2306 1.287 . S
C2306 C2305 1.287 . S
C2306 C2307 1.524 . S
C2306 H2325 0.913 . S
C2307 H2283 0.950 . S
C2307 C2306 1.524 . S
C2307 C2308 1.415 . S
C2308 H2284 0.950 . S
C2308 C2303 1.363 . S
C2308 C2307 1.415 . S
C2309 H2285 0.951 . S
C2309 C2310 1.366 . S
C2309 C2311 1.388 . S
C2310 C2309 1.366 . S
C2310 C2314 1.385 . S
C2311 H2286 0.951 . S
C2311 C2309 1.388 . S
C2311 C2312 1.366 . S
C2312 C2311 1.366 . S
C2312 C2313 1.414 . S
C2312 C2315 1.499 . S
C2313 H2287 0.950 . S
C2313 C2312 1.414 . S
C2313 C2314 1.374 . S
C2314 H2288 0.950 . S
C2314 C2310 1.385 . S
C2314 C2313 1.374 . S
C2315 C2312 1.499 . S
C2315 C2316 1.373 . S
C2315 C2317 1.389 . S
C2316 H2289 0.950 . S
C2316 C2302 1.377 . S
C2316 C2315 1.373 . S
C2317 C2301 1.377 . S
C2317 C2315 1.389 . S
C2317 C2318 1.524 . S
C2318 C2317 1.524 . S
C2318 C2319 1.397 . S
C2318 C2323 1.363 . S
C2319 H2290 0.950 . S
C2319 C2318 1.397 . S
C2319 C2320 1.334 . S
C2320 H2291 0.950 . S
C2320 C2319 1.334 . S
C2320 C2321 1.287 . S
C2321 C2320 1.287 . S
C2321 C2322 1.524 . S
C2321 H2324 0.999 . S
C2322 H2292 0.950 . S
C2322 C2321 1.524 . S
C2322 C2323 1.415 . S
C2323 H2293 0.950 . S
C2323 C2318 1.363 . S
C2323 C2322 1.415 . S
H2324 C2321 0.999 . S
H2325 C2306 0.913 . S
H2326 C2344 0.951 . S
H2327 C2346 0.951 . S
H2328 C2348 0.950 . S
H2329 C2349 0.950 . S
H2330 C2351 0.950 . S
H2331 C2354 0.950 . S
H2332 C2355 0.950 . S
H2333 C2357 0.950 . S
H2334 C2358 0.950 . S
H2335 C2359 0.951 . S
H2336 C2361 0.951 . S
H2337 C2363 0.950 . S
H2338 C2364 0.950 . S
H2339 C2366 0.950 . S
H2340 C2369 0.950 . S
H2341 C2370 0.950 . S
H2342 C2372 0.950 . S
H2343 C2373 0.950 . S
C2344 H2326 0.951 . S
C2344 C2345 1.366 . S
C2344 C2346 1.388 . S
C2345 C2344 1.366 . S
C2345 C2349 1.385 . S
C2346 H2327 0.951 . S
C2346 C2344 1.388 . S
C2346 C2347 1.366 . S
C2347 C2346 1.366 . S
C2347 C2348 1.414 . S
C2347 C2350 1.499 . S
C2348 H2328 0.950 . S
C2348 C2347 1.414 . S
C2348 C2349 1.374 . S
C2349 H2329 0.950 . S
C2349 C2345 1.385 . S
C2349 C2348 1.374 . S
C2350 C2347 1.499 . S
C2350 C2351 1.373 . S
C2350 C2352 1.389 . S
C2351 H2330 0.950 . S
C2351 C2350 1.373 . S
C2351 C2367 1.377 . S
C2352 C2350 1.389 . S
C2352 C2353 1.524 . S
C2352 C2366 1.377 . S
C2353 C2352 1.524 . S
C2353 C2354 1.397 . S
C2353 C2358 1.363 . S
C2354 H2331 0.950 . S
C2354 C2353 1.397 . S
C2354 C2355 1.334 . S
C2355 H2332 0.950 . S
C2355 C2354 1.334 . S
C2355 C2356 1.287 . S
C2356 C2355 1.287 . S
C2356 C2357 1.524 . S
C2356 H2375 0.913 . S
C2357 H2333 0.950 . S
C2357 C2356 1.524 . S
C2357 C2358 1.415 . S
C2358 H2334 0.950 . S
C2358 C2353 1.363 . S
C2358 C2357 1.415 . S
C2359 H2335 0.951 . S
C2359 C2360 1.366 . S
C2359 C2361 1.388 . S
C2360 C2359 1.366 . S
C2360 C2364 1.385 . S
C2361 H2336 0.951 . S
C2361 C2359 1.388 . S
C2361 C2362 1.366 . S
C2362 C2361 1.366 . S
C2362 C2363 1.414 . S
C2362 C2365 1.499 . S
C2363 H2337 0.950 . S
C2363 C2362 1.414 . S
C2363 C2364 1.374 . S
C2364 H2338 0.950 . S
C2364 C2360 1.385 . S
C2364 C2363 1.374 . S
C2365 C2362 1.499 . S
C2365 C2366 1.373 . S
C2365 C2367 1.389 . S
C2366 H2339 0.950 . S
C2366 C2352 1.377 . S
C2366 C2365 1.373 . S
C2367 C2351 1.377 . S
C2367 C2365 1.389 . S
C2367 C2368 1.524 . S
C2368 C2367 1.524 . S
C2368 C2369 1.397 . S
C2368 C2373 1.363 . S
C2369 H2340 0.950 . S
C2369 C2368 1.397 . S
C2369 C2370 1.334 . S
C2370 H2341 0.950 . S
C2370 C2369 1.334 . S
C2370 C2371 1.287 . S
C2371 C2370 1.287 . S
C2371 C2372 1.524 . S
C2371 H2374 0.999 . S
C2372 H2342 0.950 . S
C2372 C2371 1.524 . S
C2372 C2373 1.415 . S
C2373 H2343 0.950 . S
C2373 C2368 1.363 . S
C2373 C2372 1.415 . S
H2374 C2371 0.999 . S
H2375 C2356 0.913 . S
H2376 C2394 0.951 . S
H2377 C2396 0.951 . S
H2378 C2398 0.950 1_655 S
H2379 C2399 0.950 . S
H2380 C2401 0.950 . S
H2381 C2404 0.950 . S
H2382 C2405 0.950 . S
H2383 C2407 0.950 . S
H2384 C2408 0.950 . S
H2385 C2409 0.951 . S
H2386 C2411 0.951 . S
H2387 C2413 0.950 . S
H2388 C2414 0.950 . S
H2389 C2416 0.950 . S
H2390 C2419 0.950 . S
H2391 C2420 0.950 . S
H2392 C2422 0.950 . S
H2393 C2423 0.950 . S
C2394 H2376 0.951 . S
C2394 C2395 1.366 . S
C2394 C2396 1.388 . S
C2395 C2394 1.366 . S
C2395 C2399 1.385 . S
C2396 H2377 0.951 . S
C2396 C2394 1.388 . S
C2396 C2397 1.366 . S
C2397 C2396 1.366 . S
C2397 C2398 1.414 . S
C2397 C2400 1.499 . S
C2398 H2378 0.950 1_455 S
C2398 C2397 1.414 . S
C2398 C2399 1.374 . S
C2399 H2379 0.950 . S
C2399 C2395 1.385 . S
C2399 C2398 1.374 . S
C2400 C2397 1.499 . S
C2400 C2401 1.373 . S
C2400 C2402 1.389 . S
C2401 H2380 0.950 . S
C2401 C2400 1.373 . S
C2401 C2417 1.377 . S
C2402 C2400 1.389 . S
C2402 C2403 1.524 . S
C2402 C2416 1.377 . S
C2403 C2402 1.524 . S
C2403 C2404 1.397 . S
C2403 C2408 1.363 . S
C2404 H2381 0.950 . S
C2404 C2403 1.397 . S
C2404 C2405 1.334 . S
C2405 H2382 0.950 . S
C2405 C2404 1.334 . S
C2405 C2406 1.287 . S
C2406 C2405 1.287 . S
C2406 C2407 1.524 . S
C2406 H2425 0.913 . S
C2407 H2383 0.950 . S
C2407 C2406 1.524 . S
C2407 C2408 1.415 . S
C2408 H2384 0.950 . S
C2408 C2403 1.363 . S
C2408 C2407 1.415 . S
C2409 H2385 0.951 . S
C2409 C2410 1.366 1_655 S
C2409 C2411 1.388 . S
C2410 C2409 1.366 1_455 S
C2410 C2414 1.385 . S
C2411 H2386 0.951 . S
C2411 C2409 1.388 . S
C2411 C2412 1.366 1_655 S
C2412 C2411 1.366 1_455 S
C2412 C2413 1.414 . S
C2412 C2415 1.499 . S
C2413 H2387 0.950 . S
C2413 C2412 1.414 . S
C2413 C2414 1.374 . S
C2414 H2388 0.950 . S
C2414 C2410 1.385 . S
C2414 C2413 1.374 . S
C2415 C2412 1.499 . S
C2415 C2416 1.373 . S
C2415 C2417 1.389 . S
C2416 H2389 0.950 . S
C2416 C2402 1.377 . S
C2416 C2415 1.373 . S
C2417 C2401 1.377 . S
C2417 C2415 1.389 . S
C2417 C2418 1.524 . S
C2418 C2417 1.524 . S
C2418 C2419 1.397 . S
C2418 C2423 1.363 1_455 S
C2419 H2390 0.950 . S
C2419 C2418 1.397 . S
C2419 C2420 1.334 . S
C2420 H2391 0.950 . S
C2420 C2419 1.334 . S
C2420 C2421 1.287 . S
C2421 C2420 1.287 . S
C2421 C2422 1.524 1_455 S
C2421 H2424 0.999 . S
C2422 H2392 0.950 . S
C2422 C2421 1.524 1_655 S
C2422 C2423 1.415 . S
C2423 H2393 0.950 . S
C2423 C2418 1.363 1_655 S
C2423 C2422 1.415 . S
H2424 C2421 0.999 . S
H2425 C2406 0.913 . S
H2426 C2444 0.951 . S
H2427 C2446 0.951 . S
H2428 C2448 0.950 . S
H2429 C2449 0.950 . S
H2430 C2451 0.950 . S
H2431 C2454 0.950 . S
H2432 C2455 0.950 . S
H2433 C2457 0.950 . S
H2434 C2458 0.950 . S
H2435 C2459 0.951 . S
H2436 C2461 0.951 . S
H2437 C2463 0.950 . S
H2438 C2464 0.950 . S
H2439 C2466 0.950 . S
H2440 C2469 0.950 . S
H2441 C2470 0.950 . S
H2442 C2472 0.950 . S
H2443 C2473 0.950 . S
C2444 H2426 0.951 . S
C2444 C2445 1.366 . S
C2444 C2446 1.388 . S
C2445 C2444 1.366 . S
C2445 C2449 1.385 . S
C2446 H2427 0.951 . S
C2446 C2444 1.388 . S
C2446 C2447 1.366 . S
C2447 C2446 1.366 . S
C2447 C2448 1.414 . S
C2447 C2450 1.499 . S
C2448 H2428 0.950 . S
C2448 C2447 1.414 . S
C2448 C2449 1.374 . S
C2449 H2429 0.950 . S
C2449 C2445 1.385 . S
C2449 C2448 1.374 . S
C2450 C2447 1.499 . S
C2450 C2451 1.373 . S
C2450 C2452 1.389 . S
C2451 H2430 0.950 . S
C2451 C2450 1.373 . S
C2451 C2467 1.377 . S
C2452 C2450 1.389 . S
C2452 C2453 1.524 . S
C2452 C2466 1.377 . S
C2453 C2452 1.524 . S
C2453 C2454 1.397 . S
C2453 C2458 1.363 . S
C2454 H2431 0.950 . S
C2454 C2453 1.397 . S
C2454 C2455 1.334 . S
C2455 H2432 0.950 . S
C2455 C2454 1.334 . S
C2455 C2456 1.287 . S
C2456 C2455 1.287 . S
C2456 C2457 1.524 . S
C2456 H2475 0.913 . S
C2457 H2433 0.950 . S
C2457 C2456 1.524 . S
C2457 C2458 1.415 . S
C2458 H2434 0.950 . S
C2458 C2453 1.363 . S
C2458 C2457 1.415 . S
C2459 H2435 0.951 . S
C2459 C2460 1.366 . S
C2459 C2461 1.388 . S
C2460 C2459 1.366 . S
C2460 C2464 1.385 . S
C2461 H2436 0.951 . S
C2461 C2459 1.388 . S
C2461 C2462 1.366 . S
C2462 C2461 1.366 . S
C2462 C2463 1.414 . S
C2462 C2465 1.499 . S
C2463 H2437 0.950 . S
C2463 C2462 1.414 . S
C2463 C2464 1.374 . S
C2464 H2438 0.950 . S
C2464 C2460 1.385 . S
C2464 C2463 1.374 . S
C2465 C2462 1.499 . S
C2465 C2466 1.373 . S
C2465 C2467 1.389 . S
C2466 H2439 0.950 . S
C2466 C2452 1.377 . S
C2466 C2465 1.373 . S
C2467 C2451 1.377 . S
C2467 C2465 1.389 . S
C2467 C2468 1.524 . S
C2468 C2467 1.524 . S
C2468 C2469 1.397 . S
C2468 C2473 1.363 . S
C2469 H2440 0.950 . S
C2469 C2468 1.397 . S
C2469 C2470 1.334 . S
C2470 H2441 0.950 . S
C2470 C2469 1.334 . S
C2470 C2471 1.287 . S
C2471 C2470 1.287 . S
C2471 C2472 1.524 . S
C2471 H2474 0.999 . S
C2472 H2442 0.950 . S
C2472 C2471 1.524 . S
C2472 C2473 1.415 . S
C2473 H2443 0.950 . S
C2473 C2468 1.363 . S
C2473 C2472 1.415 . S
H2474 C2471 0.999 . S
H2475 C2456 0.913 . S
H2476 C2494 0.951 . S
H2477 C2496 0.951 . S
H2478 C2498 0.950 . S
H2479 C2499 0.950 . S
H2480 C2501 0.950 . S
H2481 C2504 0.950 . S
H2482 C2505 0.950 . S
H2483 C2507 0.950 . S
H2484 C2508 0.950 . S
H2485 C2509 0.922 1_554 S
H2486 C2511 0.951 . S
H2487 C2513 0.950 . S
H2488 C2514 0.950 . S
H2489 C2516 0.950 . S
H2490 C2519 0.950 . S
H2491 C2520 0.950 . S
H2492 C2522 0.950 . S
H2493 C2523 0.950 . S
C2494 H2476 0.951 . S
C2494 C2495 1.366 . S
C2494 C2496 1.388 . S
C2495 C2494 1.366 . S
C2495 C2499 1.385 . S
C2496 H2477 0.951 . S
C2496 C2494 1.388 . S
C2496 C2497 1.366 . S
C2497 C2496 1.366 . S
C2497 C2498 1.414 . S
C2497 C2500 1.499 . S
C2498 H2478 0.950 . S
C2498 C2497 1.414 . S
C2498 C2499 1.374 . S
C2499 H2479 0.950 . S
C2499 C2495 1.385 . S
C2499 C2498 1.374 . S
C2500 C2497 1.499 . S
C2500 C2501 1.373 . S
C2500 C2502 1.389 . S
C2501 H2480 0.950 . S
C2501 C2500 1.373 . S
C2501 C2517 1.377 . S
C2502 C2500 1.389 . S
C2502 C2503 1.524 . S
C2502 C2516 1.377 . S
C2503 C2502 1.524 . S
C2503 C2504 1.397 . S
C2503 C2508 1.363 . S
C2504 H2481 0.950 . S
C2504 C2503 1.397 . S
C2504 C2505 1.334 . S
C2505 H2482 0.950 . S
C2505 C2504 1.334 . S
C2505 C2506 1.287 . S
C2506 C2505 1.287 . S
C2506 C2507 1.524 . S
C2506 H2525 0.913 . S
C2507 H2483 0.950 . S
C2507 C2506 1.524 . S
C2507 C2508 1.415 . S
C2508 H2484 0.950 . S
C2508 C2503 1.363 . S
C2508 C2507 1.415 . S
C2509 H2485 0.922 1_556 S
C2509 C2510 1.378 . S
C2509 C2511 1.404 . S
C2510 C2509 1.378 . S
C2510 C2514 1.385 . S
C2511 H2486 0.951 . S
C2511 C2509 1.404 . S
C2511 C2512 1.366 . S
C2512 C2511 1.366 . S
C2512 C2513 1.414 . S
C2512 C2515 1.499 . S
C2513 H2487 0.950 . S
C2513 C2512 1.414 . S
C2513 C2514 1.374 . S
C2514 H2488 0.950 . S
C2514 C2510 1.385 . S
C2514 C2513 1.374 . S
C2515 C2512 1.499 . S
C2515 C2516 1.373 . S
C2515 C2517 1.389 . S
C2516 H2489 0.950 . S
C2516 C2502 1.377 . S
C2516 C2515 1.373 . S
C2517 C2501 1.377 . S
C2517 C2515 1.389 . S
C2517 C2518 1.524 . S
C2518 C2517 1.524 . S
C2518 C2519 1.397 . S
C2518 C2523 1.363 . S
C2519 H2490 0.950 . S
C2519 C2518 1.397 . S
C2519 C2520 1.334 . S
C2520 H2491 0.950 . S
C2520 C2519 1.334 . S
C2520 C2521 1.287 . S
C2521 C2520 1.287 . S
C2521 C2522 1.524 . S
C2521 H2524 0.999 . S
C2522 H2492 0.950 . S
C2522 C2521 1.524 . S
C2522 C2523 1.415 . S
C2523 H2493 0.950 . S
C2523 C2518 1.363 . S
C2523 C2522 1.415 . S
H2524 C2521 0.999 . S
H2525 C2506 0.913 . S
H2526 C2544 0.951 . S
H2527 C2546 0.951 . S
H2528 C2548 0.950 . S
H2529 C2549 0.950 . S
H2530 C2551 0.950 . S
H2531 C2554 0.950 . S
H2532 C2555 0.950 . S
H2533 C2557 0.950 . S
H2534 C2558 0.950 . S
H2535 C2559 0.951 . S
H2536 C2561 0.951 . S
H2537 C2563 0.950 . S
H2538 C2564 0.950 . S
H2539 C2566 0.950 . S
H2540 C2569 0.950 . S
H2541 C2570 0.950 . S
H2542 C2572 0.950 . S
H2543 C2573 0.950 . S
C2544 H2526 0.951 . S
C2544 C2545 1.366 . S
C2544 C2546 1.388 . S
C2545 C2544 1.366 . S
C2545 C2549 1.385 . S
C2546 H2527 0.951 . S
C2546 C2544 1.388 . S
C2546 C2547 1.366 . S
C2547 C2546 1.366 . S
C2547 C2548 1.414 . S
C2547 C2550 1.499 . S
C2548 H2528 0.950 . S
C2548 C2547 1.414 . S
C2548 C2549 1.374 . S
C2549 H2529 0.950 . S
C2549 C2545 1.385 . S
C2549 C2548 1.374 . S
C2550 C2547 1.499 . S
C2550 C2551 1.373 . S
C2550 C2552 1.389 . S
C2551 H2530 0.950 . S
C2551 C2550 1.373 . S
C2551 C2567 1.377 . S
C2552 C2550 1.389 . S
C2552 C2553 1.524 . S
C2552 C2566 1.377 . S
C2553 C2552 1.524 . S
C2553 C2554 1.397 . S
C2553 C2558 1.363 . S
C2554 H2531 0.950 . S
C2554 C2553 1.397 . S
C2554 C2555 1.334 . S
C2555 H2532 0.950 . S
C2555 C2554 1.334 . S
C2555 C2556 1.287 . S
C2556 C2555 1.287 . S
C2556 C2557 1.524 . S
C2556 H2575 0.913 . S
C2557 H2533 0.950 . S
C2557 C2556 1.524 . S
C2557 C2558 1.415 . S
C2558 H2534 0.950 . S
C2558 C2553 1.363 . S
C2558 C2557 1.415 . S
C2559 H2535 0.951 . S
C2559 C2560 1.366 . S
C2559 C2561 1.388 . S
C2560 C2559 1.366 . S
C2560 C2564 1.385 . S
C2561 H2536 0.951 . S
C2561 C2559 1.388 . S
C2561 C2562 1.366 . S
C2562 C2561 1.366 . S
C2562 C2563 1.414 . S
C2562 C2565 1.499 . S
C2563 H2537 0.950 . S
C2563 C2562 1.414 . S
C2563 C2564 1.374 . S
C2564 H2538 0.950 . S
C2564 C2560 1.385 . S
C2564 C2563 1.374 . S
C2565 C2562 1.499 . S
C2565 C2566 1.373 . S
C2565 C2567 1.389 . S
C2566 H2539 0.950 . S
C2566 C2552 1.377 . S
C2566 C2565 1.373 . S
C2567 C2551 1.377 . S
C2567 C2565 1.389 . S
C2567 C2568 1.524 . S
C2568 C2567 1.524 . S
C2568 C2569 1.397 . S
C2568 C2573 1.363 . S
C2569 H2540 0.950 . S
C2569 C2568 1.397 . S
C2569 C2570 1.334 . S
C2570 H2541 0.950 . S
C2570 C2569 1.334 . S
C2570 C2571 1.287 . S
C2571 C2570 1.287 . S
C2571 C2572 1.524 . S
C2571 H2574 0.999 . S
C2572 H2542 0.950 . S
C2572 C2571 1.524 . S
C2572 C2573 1.415 . S
C2573 H2543 0.950 . S
C2573 C2568 1.363 . S
C2573 C2572 1.415 . S
H2574 C2571 0.999 . S
H2575 C2556 0.913 . S
H2576 C2594 0.951 . S
H2577 C2596 0.951 . S
H2578 C2598 0.950 . S
H2579 C2599 0.950 . S
H2580 C2601 0.950 . S
H2581 C2604 0.950 . S
H2582 C2605 0.950 . S
H2583 C2607 0.950 . S
H2584 C2608 0.950 . S
H2585 C2609 0.951 . S
H2586 C2611 0.951 . S
H2587 C2613 0.950 . S
H2588 C2614 0.950 . S
H2589 C2616 0.950 . S
H2590 C2619 0.950 . S
H2591 C2620 0.950 . S
H2592 C2622 0.950 . S
H2593 C2623 0.950 . S
C2594 H2576 0.951 . S
C2594 C2595 1.366 . S
C2594 C2596 1.388 . S
C2595 C2594 1.366 . S
C2595 C2599 1.385 . S
C2596 H2577 0.951 . S
C2596 C2594 1.388 . S
C2596 C2597 1.366 . S
C2597 C2596 1.366 . S
C2597 C2598 1.414 . S
C2597 C2600 1.499 . S
C2598 H2578 0.950 . S
C2598 C2597 1.414 . S
C2598 C2599 1.374 . S
C2599 H2579 0.950 . S
C2599 C2595 1.385 . S
C2599 C2598 1.374 . S
C2600 C2597 1.499 . S
C2600 C2601 1.373 . S
C2600 C2602 1.389 . S
C2601 H2580 0.950 . S
C2601 C2600 1.373 . S
C2601 C2617 1.377 . S
C2602 C2600 1.389 . S
C2602 C2603 1.524 . S
C2602 C2616 1.377 . S
C2603 C2602 1.524 . S
C2603 C2604 1.397 . S
C2603 C2608 1.363 . S
C2604 H2581 0.950 . S
C2604 C2603 1.397 . S
C2604 C2605 1.334 . S
C2605 H2582 0.950 . S
C2605 C2604 1.334 . S
C2605 C2606 1.287 . S
C2606 C2605 1.287 . S
C2606 C2607 1.524 . S
C2606 H2625 0.913 . S
C2607 H2583 0.950 . S
C2607 C2606 1.524 . S
C2607 C2608 1.415 . S
C2608 H2584 0.950 . S
C2608 C2603 1.363 . S
C2608 C2607 1.415 . S
C2609 H2585 0.951 . S
C2609 C2610 1.366 . S
C2609 C2611 1.388 . S
C2610 C2609 1.366 . S
C2610 C2614 1.385 . S
C2611 H2586 0.951 . S
C2611 C2609 1.388 . S
C2611 C2612 1.366 . S
C2612 C2611 1.366 . S
C2612 C2613 1.414 . S
C2612 C2615 1.499 . S
C2613 H2587 0.950 . S
C2613 C2612 1.414 . S
C2613 C2614 1.374 . S
C2614 H2588 0.950 . S
C2614 C2610 1.385 . S
C2614 C2613 1.374 . S
C2615 C2612 1.499 . S
C2615 C2616 1.373 . S
C2615 C2617 1.389 . S
C2616 H2589 0.950 . S
C2616 C2602 1.377 . S
C2616 C2615 1.373 . S
C2617 C2601 1.377 . S
C2617 C2615 1.389 . S
C2617 C2618 1.524 1_545 S
C2618 C2617 1.524 1_565 S
C2618 C2619 1.397 . S
C2618 C2623 1.363 . S
C2619 H2590 0.950 . S
C2619 C2618 1.397 . S
C2619 C2620 1.334 . S
C2620 H2591 0.950 . S
C2620 C2619 1.334 . S
C2620 C2621 1.287 . S
C2621 C2620 1.287 . S
C2621 C2622 1.524 . S
C2621 H2624 0.999 . S
C2622 H2592 0.950 . S
C2622 C2621 1.524 . S
C2622 C2623 1.415 . S
C2623 H2593 0.950 . S
C2623 C2618 1.363 . S
C2623 C2622 1.415 . S
H2624 C2621 0.999 . S
H2625 C2606 0.913 . S
H2626 C2644 0.951 . S
H2627 C2646 0.951 . S
H2628 C2648 0.950 . S
H2629 C2649 0.950 . S
H2630 C2651 0.950 . S
H2631 C2654 0.950 . S
H2632 C2655 0.950 . S
H2633 C2657 0.950 . S
H2634 C2658 0.950 . S
H2635 C2659 0.951 . S
H2636 C2661 0.951 . S
H2637 C2663 0.950 . S
H2638 C2664 0.950 . S
H2639 C2666 0.950 . S
H2640 C2669 0.950 . S
H2641 C2670 0.950 . S
H2642 C2672 0.950 . S
H2643 C2673 0.950 . S
C2644 H2626 0.951 . S
C2644 C2645 1.366 . S
C2644 C2646 1.388 . S
C2645 C2644 1.366 . S
C2645 C2649 1.385 . S
C2646 H2627 0.951 . S
C2646 C2644 1.388 . S
C2646 C2647 1.366 . S
C2647 C2646 1.366 . S
C2647 C2648 1.414 . S
C2647 C2650 1.499 . S
C2648 H2628 0.950 . S
C2648 C2647 1.414 . S
C2648 C2649 1.374 . S
C2649 H2629 0.950 . S
C2649 C2645 1.385 . S
C2649 C2648 1.374 . S
C2650 C2647 1.499 . S
C2650 C2651 1.373 . S
C2650 C2652 1.389 . S
C2651 H2630 0.950 . S
C2651 C2650 1.373 . S
C2651 C2667 1.377 . S
C2652 C2650 1.389 . S
C2652 C2653 1.524 . S
C2652 C2666 1.377 . S
C2653 C2652 1.524 . S
C2653 C2654 1.397 . S
C2653 C2658 1.363 . S
C2654 H2631 0.950 . S
C2654 C2653 1.397 . S
C2654 C2655 1.334 . S
C2655 H2632 0.950 . S
C2655 C2654 1.334 . S
C2655 C2656 1.287 . S
C2656 C2655 1.287 . S
C2656 C2657 1.524 . S
C2656 H2675 0.913 . S
C2657 H2633 0.950 . S
C2657 C2656 1.524 . S
C2657 C2658 1.415 . S
C2658 H2634 0.950 . S
C2658 C2653 1.363 . S
C2658 C2657 1.415 . S
C2659 H2635 0.951 . S
C2659 C2660 1.366 . S
C2659 C2661 1.388 . S
C2660 C2659 1.366 . S
C2660 C2664 1.385 . S
C2661 H2636 0.951 . S
C2661 C2659 1.388 . S
C2661 C2662 1.366 . S
C2662 C2661 1.366 . S
C2662 C2663 1.414 . S
C2662 C2665 1.499 . S
C2663 H2637 0.950 . S
C2663 C2662 1.414 . S
C2663 C2664 1.374 . S
C2664 H2638 0.950 . S
C2664 C2660 1.385 . S
C2664 C2663 1.374 . S
C2665 C2662 1.499 . S
C2665 C2666 1.373 . S
C2665 C2667 1.389 . S
C2666 H2639 0.950 . S
C2666 C2652 1.377 . S
C2666 C2665 1.373 . S
C2667 C2651 1.377 . S
C2667 C2665 1.389 . S
C2667 C2668 1.524 . S
C2668 C2667 1.524 . S
C2668 C2669 1.397 . S
C2668 C2673 1.363 . S
C2669 H2640 0.950 . S
C2669 C2668 1.397 . S
C2669 C2670 1.334 . S
C2670 H2641 0.950 . S
C2670 C2669 1.334 . S
C2670 C2671 1.287 . S
C2671 C2670 1.287 . S
C2671 C2672 1.524 . S
C2671 H2674 0.999 . S
C2672 H2642 0.950 . S
C2672 C2671 1.524 . S
C2672 C2673 1.415 . S
C2673 H2643 0.950 . S
C2673 C2668 1.363 . S
C2673 C2672 1.415 . S
H2674 C2671 0.999 . S
H2675 C2656 0.913 . S
H2676 C2694 0.951 . S
H2677 C2696 0.951 . S
H2678 C2698 0.950 . S
H2679 C2699 0.951 . S
H2680 C2701 0.950 . S
H2681 C2704 0.950 . S
H2682 C2705 0.950 . S
H2683 C2707 0.950 . S
H2684 C2708 0.950 1_545 S
H2685 C2709 0.951 . S
H2686 C2711 0.951 . S
H2687 C2713 0.950 . S
H2688 C2714 0.950 . S
H2689 C2716 0.950 . S
H2690 C2719 0.950 . S
H2691 C2720 0.950 . S
H2692 C2722 0.950 . S
H2693 C2723 0.950 . S
C2694 H2676 0.951 . S
C2694 C2695 1.366 . S
C2694 C2696 1.388 . S
C2695 C2694 1.366 . S
C2695 C2699 1.385 . S
C2696 H2677 0.951 . S
C2696 C2694 1.388 . S
C2696 C2697 1.366 . S
C2697 C2696 1.366 . S
C2697 C2698 1.414 . S
C2697 C2700 1.499 . S
C2698 H2678 0.950 . S
C2698 C2697 1.414 . S
C2698 C2699 1.374 . S
C2699 H2679 0.951 . S
C2699 C2695 1.385 . S
C2699 C2698 1.374 . S
C2700 C2697 1.499 . S
C2700 C2701 1.373 . S
C2700 C2702 1.389 . S
C2701 H2680 0.950 . S
C2701 C2700 1.373 . S
C2701 C2717 1.377 . S
C2702 C2700 1.389 . S
C2702 C2703 1.524 1_545 S
C2702 C2716 1.377 . S
C2703 C2702 1.524 1_565 S
C2703 C2704 1.397 . S
C2703 C2708 1.363 . S
C2704 H2681 0.950 . S
C2704 C2703 1.397 . S
C2704 C2705 1.334 . S
C2705 H2682 0.950 . S
C2705 C2704 1.334 . S
C2705 C2706 1.287 . S
C2706 C2705 1.287 . S
C2706 C2707 1.524 . S
C2706 H2725 0.913 . S
C2707 H2683 0.950 . S
C2707 C2706 1.524 . S
C2707 C2708 1.415 . S
C2708 H2684 0.950 1_565 S
C2708 C2703 1.363 . S
C2708 C2707 1.415 . S
C2709 H2685 0.951 . S
C2709 C2710 1.366 . S
C2709 C2711 1.388 . S
C2710 C2709 1.366 . S
C2710 C2714 1.385 . S
C2711 H2686 0.951 . S
C2711 C2709 1.388 . S
C2711 C2712 1.366 . S
C2712 C2711 1.366 . S
C2712 C2713 1.414 . S
C2712 C2715 1.499 . S
C2713 H2687 0.950 . S
C2713 C2712 1.414 . S
C2713 C2714 1.374 . S
C2714 H2688 0.950 . S
C2714 C2710 1.385 . S
C2714 C2713 1.374 . S
C2715 C2712 1.499 . S
C2715 C2716 1.373 . S
C2715 C2717 1.389 . S
C2716 H2689 0.950 . S
C2716 C2702 1.377 . S
C2716 C2715 1.373 . S
C2717 C2701 1.377 . S
C2717 C2715 1.389 . S
C2717 C2718 1.524 . S
C2718 C2717 1.524 . S
C2718 C2719 1.397 . S
C2718 C2723 1.363 . S
C2719 H2690 0.950 . S
C2719 C2718 1.397 . S
C2719 C2720 1.334 . S
C2720 H2691 0.950 . S
C2720 C2719 1.334 . S
C2720 C2721 1.287 . S
C2721 C2720 1.287 . S
C2721 C2722 1.524 . S
C2721 H2724 0.999 . S
C2722 H2692 0.950 . S
C2722 C2721 1.524 . S
C2722 C2723 1.415 . S
C2723 H2693 0.950 . S
C2723 C2718 1.363 . S
C2723 C2722 1.415 . S
H2724 C2721 0.999 . S
H2725 C2706 0.913 . S
H2726 C2744 0.951 . S
H2727 C2746 0.951 . S
H2728 C2748 0.950 . S
H2729 C2749 0.950 . S
H2730 C2751 0.950 . S
H2731 C2754 0.950 . S
H2732 C2755 0.950 . S
H2733 C2757 0.950 . S
H2734 C2758 0.950 . S
H2735 C2759 0.951 . S
H2736 C2761 0.951 . S
H2737 C2763 0.950 . S
H2738 C2764 0.950 . S
H2739 C2766 0.950 . S
H2740 C2769 0.950 . S
H2741 C2770 0.950 . S
H2742 C2772 0.950 . S
H2743 C2773 0.950 . S
C2744 H2726 0.951 . S
C2744 C2745 1.366 . S
C2744 C2746 1.388 . S
C2745 C2744 1.366 . S
C2745 C2749 1.385 . S
C2746 H2727 0.951 . S
C2746 C2744 1.388 . S
C2746 C2747 1.366 . S
C2747 C2746 1.366 . S
C2747 C2748 1.414 . S
C2747 C2750 1.499 . S
C2748 H2728 0.950 . S
C2748 C2747 1.414 . S
C2748 C2749 1.374 . S
C2749 H2729 0.950 . S
C2749 C2745 1.385 . S
C2749 C2748 1.374 . S
C2750 C2747 1.499 . S
C2750 C2751 1.373 . S
C2750 C2752 1.389 . S
C2751 H2730 0.950 . S
C2751 C2750 1.373 . S
C2751 C2767 1.377 . S
C2752 C2750 1.389 . S
C2752 C2753 1.524 . S
C2752 C2766 1.377 . S
C2753 C2752 1.524 . S
C2753 C2754 1.397 . S
C2753 C2758 1.363 . S
C2754 H2731 0.950 . S
C2754 C2753 1.397 . S
C2754 C2755 1.334 . S
C2755 H2732 0.950 . S
C2755 C2754 1.334 . S
C2755 C2756 1.287 . S
C2756 C2755 1.287 . S
C2756 C2757 1.524 . S
C2756 H2775 0.913 . S
C2757 H2733 0.950 . S
C2757 C2756 1.524 . S
C2757 C2758 1.415 . S
C2758 H2734 0.950 . S
C2758 C2753 1.363 . S
C2758 C2757 1.415 . S
C2759 H2735 0.951 . S
C2759 C2760 1.366 . S
C2759 C2761 1.388 . S
C2760 C2759 1.366 . S
C2760 C2764 1.385 . S
C2761 H2736 0.951 . S
C2761 C2759 1.388 . S
C2761 C2762 1.366 . S
C2762 C2761 1.366 . S
C2762 C2763 1.414 . S
C2762 C2765 1.499 . S
C2763 H2737 0.950 . S
C2763 C2762 1.414 . S
C2763 C2764 1.374 . S
C2764 H2738 0.950 . S
C2764 C2760 1.385 . S
C2764 C2763 1.374 . S
C2765 C2762 1.499 . S
C2765 C2766 1.373 . S
C2765 C2767 1.389 . S
C2766 H2739 0.950 . S
C2766 C2752 1.377 . S
C2766 C2765 1.373 . S
C2767 C2751 1.377 . S
C2767 C2765 1.389 . S
C2767 C2768 1.524 . S
C2768 C2767 1.524 . S
C2768 C2769 1.397 . S
C2768 C2773 1.363 . S
C2769 H2740 0.950 . S
C2769 C2768 1.397 . S
C2769 C2770 1.334 . S
C2770 H2741 0.950 . S
C2770 C2769 1.334 . S
C2770 C2771 1.287 . S
C2771 C2770 1.287 . S
C2771 C2772 1.524 . S
C2771 H2774 0.999 . S
C2772 H2742 0.950 . S
C2772 C2771 1.524 . S
C2772 C2773 1.415 . S
C2773 H2743 0.950 . S
C2773 C2768 1.363 . S
C2773 C2772 1.415 . S
H2774 C2771 0.999 . S
H2775 C2756 0.913 . S
H2776 C2794 0.951 . S
H2777 C2796 0.951 . S
H2778 C2798 0.950 . S
H2779 C2799 0.950 . S
H2780 C2801 0.950 . S
H2781 C2804 0.950 . S
H2782 C2805 0.950 . S
H2783 C2807 0.950 . S
H2784 C2808 0.950 . S
H2785 C2809 0.951 . S
H2786 C2811 0.951 . S
H2787 C2813 0.950 . S
H2788 C2814 0.950 . S
H2789 C2816 0.950 . S
H2790 C2819 0.950 1_565 S
H2791 C2820 0.950 1_655 S
H2792 C2822 0.950 . S
H2793 C2823 0.950 . S
C2794 H2776 0.951 . S
C2794 C2795 1.366 . S
C2794 C2796 1.388 . S
C2795 C2794 1.366 . S
C2795 C2799 1.385 . S
C2796 H2777 0.951 . S
C2796 C2794 1.388 . S
C2796 C2797 1.366 . S
C2797 C2796 1.366 . S
C2797 C2798 1.414 . S
C2797 C2800 1.499 . S
C2798 H2778 0.950 . S
C2798 C2797 1.414 . S
C2798 C2799 1.374 . S
C2799 H2779 0.950 . S
C2799 C2795 1.385 . S
C2799 C2798 1.374 . S
C2800 C2797 1.499 . S
C2800 C2801 1.373 . S
C2800 C2802 1.389 . S
C2801 H2780 0.950 . S
C2801 C2800 1.373 . S
C2801 C2817 1.377 . S
C2802 C2800 1.389 . S
C2802 C2803 1.524 . S
C2802 C2816 1.377 . S
C2803 C2802 1.524 . S
C2803 C2804 1.397 . S
C2803 C2808 1.363 . S
C2804 H2781 0.950 . S
C2804 C2803 1.397 . S
C2804 C2805 1.334 . S
C2805 H2782 0.950 . S
C2805 C2804 1.334 . S
C2805 C2806 1.287 . S
C2806 C2805 1.287 . S
C2806 C2807 1.524 . S
C2806 H2825 0.913 . S
C2807 H2783 0.950 . S
C2807 C2806 1.524 . S
C2807 C2808 1.415 . S
C2808 H2784 0.950 . S
C2808 C2803 1.363 . S
C2808 C2807 1.415 . S
C2809 H2785 0.951 . S
C2809 C2810 1.366 . S
C2809 C2811 1.388 . S
C2810 C2809 1.366 . S
C2810 C2814 1.385 . S
C2811 H2786 0.951 . S
C2811 C2809 1.388 . S
C2811 C2812 1.366 . S
C2812 C2811 1.366 . S
C2812 C2813 1.414 . S
C2812 C2815 1.499 . S
C2813 H2787 0.950 . S
C2813 C2812 1.414 . S
C2813 C2814 1.374 . S
C2814 H2788 0.950 . S
C2814 C2810 1.385 . S
C2814 C2813 1.374 . S
C2815 C2812 1.499 . S
C2815 C2816 1.373 . S
C2815 C2817 1.389 . S
C2816 H2789 0.950 . S
C2816 C2802 1.377 . S
C2816 C2815 1.373 . S
C2817 C2801 1.377 . S
C2817 C2815 1.389 . S
C2817 C2818 1.524 . S
C2818 C2817 1.524 . S
C2818 C2819 1.397 . S
C2818 C2823 1.363 . S
C2819 H2790 0.950 1_545 S
C2819 C2818 1.397 . S
C2819 C2820 1.334 1_545 S
C2820 H2791 0.950 1_455 S
C2820 C2819 1.334 1_565 S
C2820 C2821 1.259 1_465 S
C2821 C2820 1.259 1_645 S
C2821 C2822 1.565 . S
C2821 H2824 0.996 1_545 S
C2822 H2792 0.950 . S
C2822 C2821 1.565 . S
C2822 C2823 1.415 1_655 S
C2823 H2793 0.950 . S
C2823 C2818 1.363 . S
C2823 C2822 1.415 1_455 S
H2824 C2821 0.996 1_565 S
H2825 C2806 0.913 . S
H2826 C2844 0.951 . S
H2827 C2846 0.951 . S
H2828 C2848 0.950 . S
H2829 C2849 0.950 . S
H2830 C2851 0.950 . S
H2831 C2854 0.950 . S
H2832 C2855 0.950 . S
H2833 C2857 0.950 . S
H2834 C2858 0.950 . S
H2835 C2859 0.951 . S
H2836 C2861 0.951 . S
H2837 C2863 0.950 . S
H2838 C2864 0.950 . S
H2839 C2866 0.950 . S
H2840 C2869 0.950 . S
H2841 C2870 0.950 . S
H2842 C2872 0.950 . S
H2843 C2873 0.950 . S
C2844 H2826 0.951 . S
C2844 C2845 1.366 . S
C2844 C2846 1.388 . S
C2845 C2844 1.366 . S
C2845 C2849 1.385 . S
C2846 H2827 0.951 . S
C2846 C2844 1.388 . S
C2846 C2847 1.366 . S
C2847 C2846 1.366 . S
C2847 C2848 1.414 . S
C2847 C2850 1.499 . S
C2848 H2828 0.950 . S
C2848 C2847 1.414 . S
C2848 C2849 1.374 . S
C2849 H2829 0.950 . S
C2849 C2845 1.385 . S
C2849 C2848 1.374 . S
C2850 C2847 1.499 . S
C2850 C2851 1.373 . S
C2850 C2852 1.389 . S
C2851 H2830 0.950 . S
C2851 C2850 1.373 . S
C2851 C2867 1.377 . S
C2852 C2850 1.389 . S
C2852 C2853 1.524 . S
C2852 C2866 1.377 . S
C2853 C2852 1.524 . S
C2853 C2854 1.397 . S
C2853 C2858 1.363 . S
C2854 H2831 0.950 . S
C2854 C2853 1.397 . S
C2854 C2855 1.334 . S
C2855 H2832 0.950 . S
C2855 C2854 1.334 . S
C2855 C2856 1.287 . S
C2856 C2855 1.287 . S
C2856 C2857 1.524 . S
C2856 H2875 0.913 . S
C2857 H2833 0.950 . S
C2857 C2856 1.524 . S
C2857 C2858 1.415 . S
C2858 H2834 0.950 . S
C2858 C2853 1.363 . S
C2858 C2857 1.415 . S
C2859 H2835 0.951 . S
C2859 C2860 1.366 . S
C2859 C2861 1.388 . S
C2860 C2859 1.366 . S
C2860 C2864 1.385 . S
C2861 H2836 0.951 . S
C2861 C2859 1.388 . S
C2861 C2862 1.366 . S
C2862 C2861 1.366 . S
C2862 C2863 1.414 . S
C2862 C2865 1.499 . S
C2863 H2837 0.950 . S
C2863 C2862 1.414 . S
C2863 C2864 1.374 . S
C2864 H2838 0.950 . S
C2864 C2860 1.385 . S
C2864 C2863 1.374 . S
C2865 C2862 1.499 . S
C2865 C2866 1.373 . S
C2865 C2867 1.389 . S
C2866 H2839 0.950 . S
C2866 C2852 1.377 . S
C2866 C2865 1.373 . S
C2867 C2851 1.377 . S
C2867 C2865 1.389 . S
C2867 C2868 1.524 . S
C2868 C2867 1.524 . S
C2868 C2869 1.397 . S
C2868 C2873 1.363 . S
C2869 H2840 0.950 . S
C2869 C2868 1.397 . S
C2869 C2870 1.334 . S
C2870 H2841 0.950 . S
C2870 C2869 1.334 . S
C2870 C2871 1.287 . S
C2871 C2870 1.287 . S
C2871 C2872 1.524 . S
C2871 H2874 0.999 . S
C2872 H2842 0.950 . S
C2872 C2871 1.524 . S
C2872 C2873 1.415 . S
C2873 H2843 0.950 . S
C2873 C2868 1.363 . S
C2873 C2872 1.415 . S
H2874 C2871 0.999 . S
H2875 C2856 0.913 . S
H2876 C2894 0.951 . S
H2877 C2896 0.951 . S
H2878 C2898 0.950 . S
H2879 C2899 0.950 . S
H2880 C2901 0.950 . S
H2881 C2904 0.950 . S
H2882 C2905 0.950 . S
H2883 C2907 0.950 . S
H2884 C2908 0.950 . S
H2885 C2909 0.951 . S
H2886 C2911 0.951 . S
H2887 C2913 0.950 . S
H2888 C2914 0.950 . S
H2889 C2916 0.978 . S
H2890 C2919 0.950 . S
H2891 C2920 0.950 . S
H2892 C2922 0.950 . S
H2893 C2923 0.950 . S
C2894 H2876 0.951 . S
C2894 C2895 1.366 . S
C2894 C2896 1.388 . S
C2895 C2894 1.366 . S
C2895 C2899 1.385 1_545 S
C2896 H2877 0.951 . S
C2896 C2894 1.388 . S
C2896 C2897 1.356 1_545 S
C2897 C2896 1.356 1_565 S
C2897 C2898 1.422 . S
C2897 C2900 1.500 . S
C2898 H2878 0.950 . S
C2898 C2897 1.422 . S
C2898 C2899 1.374 . S
C2899 H2879 0.950 . S
C2899 C2895 1.385 1_565 S
C2899 C2898 1.374 . S
C2900 C2897 1.500 . S
C2900 C2901 1.373 . S
C2900 C2902 1.370 1_565 S
C2901 H2880 0.950 . S
C2901 C2900 1.373 . S
C2901 C2917 1.377 . S
C2902 C2900 1.370 1_545 S
C2902 C2903 1.545 . S
C2902 C2916 1.377 . S
C2903 C2902 1.545 . S
C2903 C2904 1.397 1_545 S
C2903 C2908 1.363 . S
C2904 H2881 0.950 . S
C2904 C2903 1.397 1_565 S
C2904 C2905 1.334 . S
C2905 H2882 0.950 . S
C2905 C2904 1.334 . S
C2905 C2906 1.238 1_565 S
C2906 C2905 1.238 1_545 S
C2906 C2907 1.563 . S
C2906 H2925 0.931 . S
C2907 H2883 0.950 . S
C2907 C2906 1.563 . S
C2907 C2908 1.415 . S
C2908 H2884 0.950 . S
C2908 C2903 1.363 . S
C2908 C2907 1.415 . S
C2909 H2885 0.951 . S
C2909 C2910 1.366 . S
C2909 C2911 1.388 . S
C2910 C2909 1.366 . S
C2910 C2914 1.385 1_565 S
C2911 H2886 0.951 . S
C2911 C2909 1.388 . S
C2911 C2912 1.366 . S
C2912 C2911 1.366 . S
C2912 C2913 1.414 1_565 S
C2912 C2915 1.499 . S
C2913 H2887 0.950 . S
C2913 C2912 1.414 1_545 S
C2913 C2914 1.374 . S
C2914 H2888 0.950 . S
C2914 C2910 1.385 1_545 S
C2914 C2913 1.374 . S
C2915 C2912 1.499 . S
C2915 C2916 1.347 1_565 S
C2915 C2917 1.389 . S
C2916 H2889 0.978 . S
C2916 C2902 1.377 . S
C2916 C2915 1.347 1_545 S
C2917 C2901 1.377 . S
C2917 C2915 1.389 . S
C2917 C2918 1.524 . S
C2918 C2917 1.524 . S
C2918 C2919 1.397 1_565 S
C2918 C2923 1.363 . S
C2919 H2890 0.950 . S
C2919 C2918 1.397 1_545 S
C2919 C2920 1.334 . S
C2920 H2891 0.950 . S
C2920 C2919 1.334 . S
C2920 C2921 1.287 1_545 S
C2921 C2920 1.287 1_565 S
C2921 C2922 1.524 . S
C2921 H2924 0.999 . S
C2922 H2892 0.950 . S
C2922 C2921 1.524 . S
C2922 C2923 1.415 . S
C2923 H2893 0.950 . S
C2923 C2918 1.363 . S
C2923 C2922 1.415 . S
H2924 C2921 0.999 . S
H2925 C2906 0.931 . S
H2926 C2944 0.951 . S
H2927 C2946 0.951 . S
H2928 C2948 0.950 . S
H2929 C2949 0.950 . S
H2930 C2951 0.950 . S
H2931 C2954 0.950 . S
H2932 C2955 0.950 . S
H2933 C2957 0.950 . S
H2934 C2958 0.950 . S
H2935 C2959 0.951 . S
H2936 C2961 0.951 . S
H2937 C2963 0.950 . S
H2938 C2964 0.950 . S
H2939 C2966 0.950 . S
H2940 C2969 0.950 . S
H2941 C2970 0.950 . S
H2942 C2972 0.950 . S
H2943 C2973 0.950 . S
C2944 H2926 0.951 . S
C2944 C2945 1.366 . S
C2944 C2946 1.388 . S
C2945 C2944 1.366 . S
C2945 C2949 1.385 . S
C2946 H2927 0.951 . S
C2946 C2944 1.388 . S
C2946 C2947 1.366 . S
C2947 C2946 1.366 . S
C2947 C2948 1.414 . S
C2947 C2950 1.499 . S
C2948 H2928 0.950 . S
C2948 C2947 1.414 . S
C2948 C2949 1.374 . S
C2949 H2929 0.950 . S
C2949 C2945 1.385 . S
C2949 C2948 1.374 . S
C2950 C2947 1.499 . S
C2950 C2951 1.373 . S
C2950 C2952 1.389 . S
C2951 H2930 0.950 . S
C2951 C2950 1.373 . S
C2951 C2967 1.377 . S
C2952 C2950 1.389 . S
C2952 C2953 1.524 . S
C2952 C2966 1.377 . S
C2953 C2952 1.524 . S
C2953 C2954 1.397 . S
C2953 C2958 1.363 . S
C2954 H2931 0.950 . S
C2954 C2953 1.397 . S
C2954 C2955 1.334 . S
C2955 H2932 0.950 . S
C2955 C2954 1.334 . S
C2955 C2956 1.287 . S
C2956 C2955 1.287 . S
C2956 C2957 1.524 . S
C2956 H2975 0.913 . S
C2957 H2933 0.950 . S
C2957 C2956 1.524 . S
C2957 C2958 1.415 . S
C2958 H2934 0.950 . S
C2958 C2953 1.363 . S
C2958 C2957 1.415 . S
C2959 H2935 0.951 . S
C2959 C2960 1.366 . S
C2959 C2961 1.388 . S
C2960 C2959 1.366 . S
C2960 C2964 1.385 . S
C2961 H2936 0.951 . S
C2961 C2959 1.388 . S
C2961 C2962 1.366 . S
C2962 C2961 1.366 . S
C2962 C2963 1.414 . S
C2962 C2965 1.499 . S
C2963 H2937 0.950 . S
C2963 C2962 1.414 . S
C2963 C2964 1.374 . S
C2964 H2938 0.950 . S
C2964 C2960 1.385 . S
C2964 C2963 1.374 . S
C2965 C2962 1.499 . S
C2965 C2966 1.373 . S
C2965 C2967 1.389 . S
C2966 H2939 0.950 . S
C2966 C2952 1.377 . S
C2966 C2965 1.373 . S
C2967 C2951 1.377 . S
C2967 C2965 1.389 . S
C2967 C2968 1.524 . S
C2968 C2967 1.524 . S
C2968 C2969 1.397 . S
C2968 C2973 1.363 . S
C2969 H2940 0.950 . S
C2969 C2968 1.397 . S
C2969 C2970 1.334 . S
C2970 H2941 0.950 . S
C2970 C2969 1.334 . S
C2970 C2971 1.287 . S
C2971 C2970 1.287 . S
C2971 C2972 1.524 . S
C2971 H2974 0.999 . S
C2972 H2942 0.950 . S
C2972 C2971 1.524 . S
C2972 C2973 1.415 . S
C2973 H2943 0.950 . S
C2973 C2968 1.363 . S
C2973 C2972 1.415 . S
H2974 C2971 0.999 . S
H2975 C2956 0.913 . S
H2976 C2994 0.951 . S
H2977 C2996 0.951 . S
H2978 C2998 0.950 . S
H2979 C2999 0.950 . S
H2980 C3001 0.950 . S
H2981 C3004 0.950 . S
H2982 C3005 0.950 . S
H2983 C3007 0.950 . S
H2984 C3008 0.950 . S
H2985 C3009 0.951 . S
H2986 C3011 0.951 . S
H2987 C3013 0.950 . S
H2988 C3014 0.950 . S
H2989 C3016 0.950 . S
H2990 C3019 0.981 . S
H2991 C3020 0.950 . S
H2992 C3022 0.950 . S
H2993 C3023 0.950 . S
C2994 H2976 0.951 . S
C2994 C2995 1.366 . S
C2994 C2996 1.388 . S
C2995 C2994 1.366 . S
C2995 C2999 1.385 . S
C2996 H2977 0.951 . S
C2996 C2994 1.388 . S
C2996 C2997 1.366 . S
C2997 C2996 1.366 . S
C2997 C2998 1.414 . S
C2997 C3000 1.499 . S
C2998 H2978 0.950 . S
C2998 C2997 1.414 . S
C2998 C2999 1.374 . S
C2999 H2979 0.950 . S
C2999 C2995 1.385 . S
C2999 C2998 1.374 . S
C3000 C2997 1.499 . S
C3000 C3001 1.373 . S
C3000 C3002 1.389 . S
C3001 H2980 0.950 . S
C3001 C3000 1.373 . S
C3001 C3017 1.377 . S
C3002 C3000 1.389 . S
C3002 C3003 1.524 . S
C3002 C3016 1.377 . S
C3003 C3002 1.524 . S
C3003 C3004 1.397 . S
C3003 C3008 1.363 . S
C3004 H2981 0.950 . S
C3004 C3003 1.397 . S
C3004 C3005 1.334 . S
C3005 H2982 0.950 . S
C3005 C3004 1.334 . S
C3005 C3006 1.287 . S
C3006 C3005 1.287 . S
C3006 C3007 1.524 . S
C3006 H3025 0.913 . S
C3007 H2983 0.950 . S
C3007 C3006 1.524 . S
C3007 C3008 1.415 . S
C3008 H2984 0.950 . S
C3008 C3003 1.363 . S
C3008 C3007 1.415 . S
C3009 H2985 0.951 . S
C3009 C3010 1.366 1_556 S
C3009 C3011 1.388 . S
C3010 C3009 1.366 1_554 S
C3010 C3014 1.385 . S
C3011 H2986 0.951 . S
C3011 C3009 1.388 . S
C3011 C3012 1.366 1_556 S
C3012 C3011 1.366 1_554 S
C3012 C3013 1.414 . S
C3012 C3015 1.499 . S
C3013 H2987 0.950 . S
C3013 C3012 1.414 . S
C3013 C3014 1.374 . S
C3014 H2988 0.950 . S
C3014 C3010 1.385 . S
C3014 C3013 1.374 . S
C3015 C3012 1.499 . S
C3015 C3016 1.373 . S
C3015 C3017 1.389 . S
C3016 H2989 0.950 . S
C3016 C3002 1.377 . S
C3016 C3015 1.373 . S
C3017 C3001 1.377 . S
C3017 C3015 1.389 . S
C3017 C3018 1.524 1_554 S
C3018 C3017 1.524 1_556 S
C3018 C3019 1.385 1_556 S
C3018 C3023 1.363 . S
C3019 H2990 0.981 . S
C3019 C3018 1.385 1_554 S
C3019 C3020 1.316 1_554 S
C3020 H2991 0.950 . S
C3020 C3019 1.316 1_556 S
C3020 C3021 1.287 . S
C3021 C3020 1.287 . S
C3021 C3022 1.524 . S
C3021 H3024 0.999 . S
C3022 H2992 0.950 . S
C3022 C3021 1.524 . S
C3022 C3023 1.415 . S
C3023 H2993 0.950 . S
C3023 C3018 1.363 . S
C3023 C3022 1.415 . S
H3024 C3021 0.999 . S
H3025 C3006 0.913 . S
H3026 C3044 0.951 . S
H3027 C3046 0.951 . S
H3028 C3048 0.950 . S
H3029 C3049 0.950 . S
H3030 C3051 0.950 . S
H3031 C3054 0.950 . S
H3032 C3055 0.950 . S
H3033 C3057 0.950 . S
H3034 C3058 0.950 . S
H3035 C3059 0.951 . S
H3036 C3061 0.951 . S
H3037 C3063 0.950 . S
H3038 C3064 0.950 . S
H3039 C3066 0.950 . S
H3040 C3069 0.950 1_554 S
H3041 C3070 0.950 . S
H3042 C3072 0.950 . S
H3043 C3073 0.950 . S
C3044 H3026 0.951 . S
C3044 C3045 1.366 . S
C3044 C3046 1.388 . S
C3045 C3044 1.366 . S
C3045 C3049 1.385 . S
C3046 H3027 0.951 . S
C3046 C3044 1.388 . S
C3046 C3047 1.366 . S
C3047 C3046 1.366 . S
C3047 C3048 1.414 . S
C3047 C3050 1.499 . S
C3048 H3028 0.950 . S
C3048 C3047 1.414 . S
C3048 C3049 1.374 . S
C3049 H3029 0.950 . S
C3049 C3045 1.385 . S
C3049 C3048 1.374 . S
C3050 C3047 1.499 . S
C3050 C3051 1.373 . S
C3050 C3052 1.389 . S
C3051 H3030 0.950 . S
C3051 C3050 1.373 . S
C3051 C3067 1.377 . S
C3052 C3050 1.389 . S
C3052 C3053 1.524 . S
C3052 C3066 1.377 . S
C3053 C3052 1.524 . S
C3053 C3054 1.397 . S
C3053 C3058 1.363 . S
C3054 H3031 0.950 . S
C3054 C3053 1.397 . S
C3054 C3055 1.334 . S
C3055 H3032 0.950 . S
C3055 C3054 1.334 . S
C3055 C3056 1.287 . S
C3056 C3055 1.287 . S
C3056 C3057 1.524 . S
C3056 H3075 0.913 . S
C3057 H3033 0.950 . S
C3057 C3056 1.524 . S
C3057 C3058 1.415 . S
C3058 H3034 0.950 . S
C3058 C3053 1.363 . S
C3058 C3057 1.415 . S
C3059 H3035 0.951 . S
C3059 C3060 1.366 . S
C3059 C3061 1.388 . S
C3060 C3059 1.366 . S
C3060 C3064 1.385 . S
C3061 H3036 0.951 . S
C3061 C3059 1.388 . S
C3061 C3062 1.366 . S
C3062 C3061 1.366 . S
C3062 C3063 1.414 . S
C3062 C3065 1.499 . S
C3063 H3037 0.950 . S
C3063 C3062 1.414 . S
C3063 C3064 1.374 . S
C3064 H3038 0.950 . S
C3064 C3060 1.385 . S
C3064 C3063 1.374 . S
C3065 C3062 1.499 . S
C3065 C3066 1.373 . S
C3065 C3067 1.389 . S
C3066 H3039 0.950 . S
C3066 C3052 1.377 . S
C3066 C3065 1.373 . S
C3067 C3051 1.377 . S
C3067 C3065 1.389 . S
C3067 C3068 1.524 1_554 S
C3068 C3067 1.524 1_556 S
C3068 C3069 1.397 . S
C3068 C3073 1.363 . S
C3069 H3040 0.950 1_556 S
C3069 C3068 1.397 . S
C3069 C3070 1.334 . S
C3070 H3041 0.950 . S
C3070 C3069 1.334 . S
C3070 C3071 1.287 . S
C3071 C3070 1.287 . S
C3071 C3072 1.524 . S
C3071 H3074 0.999 . S
C3072 H3042 0.950 . S
C3072 C3071 1.524 . S
C3072 C3073 1.415 . S
C3073 H3043 0.950 . S
C3073 C3068 1.363 . S
C3073 C3072 1.415 . S
H3074 C3071 0.999 . S
H3075 C3056 0.913 . S
H3076 C3094 0.951 . S
H3077 C3096 0.951 . S
H3078 C3098 0.950 . S
H3079 C3099 0.950 . S
H3080 C3101 0.950 . S
H3081 C3104 0.950 . S
H3082 C3105 0.950 . S
H3083 C3107 0.950 . S
H3084 C3108 0.950 . S
H3085 C3109 0.951 . S
H3086 C3111 0.951 . S
H3087 C3113 0.950 . S
H3088 C3114 0.950 . S
H3089 C3116 0.950 . S
H3090 C3119 0.950 . S
H3091 C3120 0.950 . S
H3092 C3122 0.950 . S
H3093 C3123 0.950 . S
C3094 H3076 0.951 . S
C3094 C3095 1.366 . S
C3094 C3096 1.388 . S
C3095 C3094 1.366 . S
C3095 C3099 1.385 . S
C3096 H3077 0.951 . S
C3096 C3094 1.388 . S
C3096 C3097 1.366 . S
C3097 C3096 1.366 . S
C3097 C3098 1.414 . S
C3097 C3100 1.499 . S
C3098 H3078 0.950 . S
C3098 C3097 1.414 . S
C3098 C3099 1.374 . S
C3099 H3079 0.950 . S
C3099 C3095 1.385 . S
C3099 C3098 1.374 . S
C3100 C3097 1.499 . S
C3100 C3101 1.373 . S
C3100 C3102 1.389 . S
C3101 H3080 0.950 . S
C3101 C3100 1.373 . S
C3101 C3117 1.377 . S
C3102 C3100 1.389 . S
C3102 C3103 1.524 . S
C3102 C3116 1.377 . S
C3103 C3102 1.524 . S
C3103 C3104 1.397 . S
C3103 C3108 1.363 . S
C3104 H3081 0.950 . S
C3104 C3103 1.397 . S
C3104 C3105 1.334 . S
C3105 H3082 0.950 . S
C3105 C3104 1.334 . S
C3105 C3106 1.287 . S
C3106 C3105 1.287 . S
C3106 C3107 1.524 . S
C3106 H3125 0.913 . S
C3107 H3083 0.950 . S
C3107 C3106 1.524 . S
C3107 C3108 1.415 . S
C3108 H3084 0.950 . S
C3108 C3103 1.363 . S
C3108 C3107 1.415 . S
C3109 H3085 0.951 . S
C3109 C3110 1.366 . S
C3109 C3111 1.388 . S
C3110 C3109 1.366 . S
C3110 C3114 1.385 . S
C3111 H3086 0.951 . S
C3111 C3109 1.388 . S
C3111 C3112 1.366 . S
C3112 C3111 1.366 . S
C3112 C3113 1.414 . S
C3112 C3115 1.499 . S
C3113 H3087 0.950 . S
C3113 C3112 1.414 . S
C3113 C3114 1.374 . S
C3114 H3088 0.950 . S
C3114 C3110 1.385 . S
C3114 C3113 1.374 . S
C3115 C3112 1.499 . S
C3115 C3116 1.373 . S
C3115 C3117 1.389 . S
C3116 H3089 0.950 . S
C3116 C3102 1.377 . S
C3116 C3115 1.373 . S
C3117 C3101 1.377 . S
C3117 C3115 1.389 . S
C3117 C3118 1.524 . S
C3118 C3117 1.524 . S
C3118 C3119 1.397 . S
C3118 C3123 1.363 . S
C3119 H3090 0.950 . S
C3119 C3118 1.397 . S
C3119 C3120 1.334 . S
C3120 H3091 0.950 . S
C3120 C3119 1.334 . S
C3120 C3121 1.287 . S
C3121 C3120 1.287 . S
C3121 C3122 1.524 . S
C3121 H3124 0.999 . S
C3122 H3092 0.950 . S
C3122 C3121 1.524 . S
C3122 C3123 1.415 . S
C3123 H3093 0.950 . S
C3123 C3118 1.363 . S
C3123 C3122 1.415 . S
H3124 C3121 0.999 . S
H3125 C3106 0.913 . S
H3126 C3144 0.951 . S
H3127 C3146 0.951 . S
H3128 C3148 0.950 . S
H3129 C3149 0.950 . S
H3130 C3151 0.950 . S
H3131 C3154 0.950 . S
H3132 C3155 0.950 . S
H3133 C3157 0.950 . S
H3134 C3158 0.950 . S
H3135 C3159 0.951 . S
H3136 C3161 0.951 . S
H3137 C3163 0.950 . S
H3138 C3164 0.950 . S
H3139 C3166 0.950 . S
H3140 C3169 0.950 . S
H3141 C3170 0.950 . S
H3142 C3172 0.950 . S
H3143 C3173 0.950 . S
C3144 H3126 0.951 . S
C3144 C3145 1.366 . S
C3144 C3146 1.388 . S
C3145 C3144 1.366 . S
C3145 C3149 1.385 . S
C3146 H3127 0.951 . S
C3146 C3144 1.388 . S
C3146 C3147 1.366 . S
C3147 C3146 1.366 . S
C3147 C3148 1.414 . S
C3147 C3150 1.499 . S
C3148 H3128 0.950 . S
C3148 C3147 1.414 . S
C3148 C3149 1.374 . S
C3149 H3129 0.950 . S
C3149 C3145 1.385 . S
C3149 C3148 1.374 . S
C3150 C3147 1.499 . S
C3150 C3151 1.373 . S
C3150 C3152 1.389 . S
C3151 H3130 0.950 . S
C3151 C3150 1.373 . S
C3151 C3167 1.377 . S
C3152 C3150 1.389 . S
C3152 C3153 1.524 . S
C3152 C3166 1.377 . S
C3153 C3152 1.524 . S
C3153 C3154 1.397 . S
C3153 C3158 1.363 . S
C3154 H3131 0.950 . S
C3154 C3153 1.397 . S
C3154 C3155 1.334 . S
C3155 H3132 0.950 . S
C3155 C3154 1.334 . S
C3155 C3156 1.287 . S
C3156 C3155 1.287 . S
C3156 C3157 1.524 . S
C3156 H3175 0.913 . S
C3157 H3133 0.950 . S
C3157 C3156 1.524 . S
C3157 C3158 1.415 . S
C3158 H3134 0.950 . S
C3158 C3153 1.363 . S
C3158 C3157 1.415 . S
C3159 H3135 0.951 . S
C3159 C3160 1.366 . S
C3159 C3161 1.388 . S
C3160 C3159 1.366 . S
C3160 C3164 1.385 . S
C3161 H3136 0.951 . S
C3161 C3159 1.388 . S
C3161 C3162 1.366 . S
C3162 C3161 1.366 . S
C3162 C3163 1.414 . S
C3162 C3165 1.499 . S
C3163 H3137 0.950 . S
C3163 C3162 1.414 . S
C3163 C3164 1.374 . S
C3164 H3138 0.950 . S
C3164 C3160 1.385 . S
C3164 C3163 1.374 . S
C3165 C3162 1.499 . S
C3165 C3166 1.373 . S
C3165 C3167 1.389 . S
C3166 H3139 0.950 . S
C3166 C3152 1.377 . S
C3166 C3165 1.373 . S
C3167 C3151 1.377 . S
C3167 C3165 1.389 . S
C3167 C3168 1.524 . S
C3168 C3167 1.524 . S
C3168 C3169 1.397 . S
C3168 C3173 1.363 . S
C3169 H3140 0.950 . S
C3169 C3168 1.397 . S
C3169 C3170 1.334 . S
C3170 H3141 0.950 . S
C3170 C3169 1.334 . S
C3170 C3171 1.287 . S
C3171 C3170 1.287 . S
C3171 C3172 1.524 . S
C3171 H3174 0.999 . S
C3172 H3142 0.950 . S
C3172 C3171 1.524 . S
C3172 C3173 1.415 . S
C3173 H3143 0.950 . S
C3173 C3168 1.363 . S
C3173 C3172 1.415 . S
H3174 C3171 0.999 . S
H3175 C3156 0.913 . S
H3176 C3194 0.951 . S
H3177 C3196 0.951 . S
H3178 C3198 0.948 . S
H3179 C3199 0.950 . S
H3180 C3201 0.950 . S
H3181 C3204 0.950 . S
H3182 C3205 0.950 . S
H3183 C3207 0.950 . S
H3184 C3208 0.950 . S
H3185 C3209 0.951 . S
H3186 C3211 0.951 . S
H3187 C3213 0.950 . S
H3188 C3214 0.950 . S
H3189 C3216 0.950 . S
H3190 C3219 0.950 . S
H3191 C3220 0.950 . S
H3192 C3222 0.950 . S
H3193 C3223 0.950 . S
C3194 H3176 0.951 . S
C3194 C3195 1.366 1_565 S
C3194 C3196 1.388 . S
C3195 C3194 1.366 1_545 S
C3195 C3199 1.385 . S
C3196 H3177 0.951 . S
C3196 C3194 1.388 . S
C3196 C3197 1.366 . S
C3197 C3196 1.366 . S
C3197 C3198 1.374 1_565 S
C3197 C3200 1.499 . S
C3198 H3178 0.948 . S
C3198 C3197 1.374 1_545 S
C3198 C3199 1.417 . S
C3199 H3179 0.950 . S
C3199 C3195 1.385 . S
C3199 C3198 1.417 . S
C3200 C3197 1.499 . S
C3200 C3201 1.373 . S
C3200 C3202 1.389 . S
C3201 H3180 0.950 . S
C3201 C3200 1.373 . S
C3201 C3217 1.377 . S
C3202 C3200 1.389 . S
C3202 C3203 1.524 . S
C3202 C3216 1.377 . S
C3203 C3202 1.524 . S
C3203 C3204 1.397 . S
C3203 C3208 1.363 . S
C3204 H3181 0.950 . S
C3204 C3203 1.397 . S
C3204 C3205 1.334 . S
C3205 H3182 0.950 . S
C3205 C3204 1.334 . S
C3205 C3206 1.287 . S
C3206 C3205 1.287 . S
C3206 C3207 1.524 . S
C3206 H3225 0.913 . S
C3207 H3183 0.950 . S
C3207 C3206 1.524 . S
C3207 C3208 1.415 . S
C3208 H3184 0.950 . S
C3208 C3203 1.363 . S
C3208 C3207 1.415 . S
C3209 H3185 0.951 . S
C3209 C3210 1.366 . S
C3209 C3211 1.388 . S
C3210 C3209 1.366 . S
C3210 C3214 1.385 . S
C3211 H3186 0.951 . S
C3211 C3209 1.388 . S
C3211 C3212 1.366 . S
C3212 C3211 1.366 . S
C3212 C3213 1.414 . S
C3212 C3215 1.499 . S
C3213 H3187 0.950 . S
C3213 C3212 1.414 . S
C3213 C3214 1.374 . S
C3214 H3188 0.950 . S
C3214 C3210 1.385 . S
C3214 C3213 1.374 . S
C3215 C3212 1.499 . S
C3215 C3216 1.373 . S
C3215 C3217 1.389 . S
C3216 H3189 0.950 . S
C3216 C3202 1.377 . S
C3216 C3215 1.373 . S
C3217 C3201 1.377 . S
C3217 C3215 1.389 . S
C3217 C3218 1.524 . S
C3218 C3217 1.524 . S
C3218 C3219 1.397 . S
C3218 C3223 1.363 . S
C3219 H3190 0.950 . S
C3219 C3218 1.397 . S
C3219 C3220 1.334 . S
C3220 H3191 0.950 . S
C3220 C3219 1.334 . S
C3220 C3221 1.287 . S
C3221 C3220 1.287 . S
C3221 C3222 1.524 . S
C3221 H3224 0.999 . S
C3222 H3192 0.950 . S
C3222 C3221 1.524 . S
C3222 C3223 1.415 . S
C3223 H3193 0.950 . S
C3223 C3218 1.363 . S
C3223 C3222 1.415 . S
H3224 C3221 0.999 . S
H3225 C3206 0.913 . S
H3226 C3244 0.951 . S
H3227 C3246 0.951 . S
H3228 C3248 0.950 . S
H3229 C3249 0.950 . S
H3230 C3251 0.950 . S
H3231 C3254 0.950 . S
H3232 C3255 0.950 . S
H3233 C3257 0.950 . S
H3234 C3258 0.950 . S
H3235 C3259 0.951 . S
H3236 C3261 0.951 . S
H3237 C3263 0.950 . S
H3238 C3264 0.950 . S
H3239 C3266 0.950 . S
H3240 C3269 0.950 . S
H3241 C3270 0.950 1_545 S
H3242 C3272 0.950 . S
H3243 C3273 0.950 . S
C3244 H3226 0.951 . S
C3244 C3245 1.366 . S
C3244 C3246 1.388 . S
C3245 C3244 1.366 . S
C3245 C3249 1.385 . S
C3246 H3227 0.951 . S
C3246 C3244 1.388 . S
C3246 C3247 1.366 . S
C3247 C3246 1.366 . S
C3247 C3248 1.414 . S
C3247 C3250 1.499 . S
C3248 H3228 0.950 . S
C3248 C3247 1.414 . S
C3248 C3249 1.374 . S
C3249 H3229 0.950 . S
C3249 C3245 1.385 . S
C3249 C3248 1.374 . S
C3250 C3247 1.499 . S
C3250 C3251 1.373 . S
C3250 C3252 1.389 . S
C3251 H3230 0.950 . S
C3251 C3250 1.373 . S
C3251 C3267 1.377 . S
C3252 C3250 1.389 . S
C3252 C3253 1.524 . S
C3252 C3266 1.377 . S
C3253 C3252 1.524 . S
C3253 C3254 1.397 . S
C3253 C3258 1.363 . S
C3254 H3231 0.950 . S
C3254 C3253 1.397 . S
C3254 C3255 1.334 . S
C3255 H3232 0.950 . S
C3255 C3254 1.334 . S
C3255 C3256 1.287 . S
C3256 C3255 1.287 . S
C3256 C3257 1.524 . S
C3256 H3275 0.913 . S
C3257 H3233 0.950 . S
C3257 C3256 1.524 . S
C3257 C3258 1.415 . S
C3258 H3234 0.950 . S
C3258 C3253 1.363 . S
C3258 C3257 1.415 . S
C3259 H3235 0.951 . S
C3259 C3260 1.366 . S
C3259 C3261 1.388 . S
C3260 C3259 1.366 . S
C3260 C3264 1.385 . S
C3261 H3236 0.951 . S
C3261 C3259 1.388 . S
C3261 C3262 1.366 . S
C3262 C3261 1.366 . S
C3262 C3263 1.414 . S
C3262 C3265 1.499 . S
C3263 H3237 0.950 . S
C3263 C3262 1.414 . S
C3263 C3264 1.374 . S
C3264 H3238 0.950 . S
C3264 C3260 1.385 . S
C3264 C3263 1.374 . S
C3265 C3262 1.499 . S
C3265 C3266 1.373 . S
C3265 C3267 1.389 . S
C3266 H3239 0.950 . S
C3266 C3252 1.377 . S
C3266 C3265 1.373 . S
C3267 C3251 1.377 . S
C3267 C3265 1.389 . S
C3267 C3268 1.524 . S
C3268 C3267 1.524 . S
C3268 C3269 1.397 . S
C3268 C3273 1.363 . S
C3269 H3240 0.950 . S
C3269 C3268 1.397 . S
C3269 C3270 1.334 . S
C3270 H3241 0.950 1_565 S
C3270 C3269 1.334 . S
C3270 C3271 1.287 . S
C3271 C3270 1.287 . S
C3271 C3272 1.524 . S
C3271 H3274 0.999 1_565 S
C3272 H3242 0.950 . S
C3272 C3271 1.524 . S
C3272 C3273 1.415 . S
C3273 H3243 0.950 . S
C3273 C3268 1.363 . S
C3273 C3272 1.415 . S
H3274 C3271 0.999 1_545 S
H3275 C3256 0.913 . S
H3276 C3294 0.951 . S
H3277 C3296 0.951 . S
H3278 C3298 0.950 . S
H3279 C3299 0.950 . S
H3280 C3301 0.950 . S
H3281 C3304 0.950 . S
H3282 C3305 0.950 . S
H3283 C3307 0.950 . S
H3284 C3308 0.950 . S
H3285 C3309 0.951 . S
H3286 C3311 0.951 . S
H3287 C3313 0.950 . S
H3288 C3314 0.950 . S
H3289 C3316 0.950 . S
H3290 C3319 0.950 . S
H3291 C3320 0.950 . S
H3292 C3322 0.950 . S
H3293 C3323 0.950 . S
C3294 H3276 0.951 . S
C3294 C3295 1.366 . S
C3294 C3296 1.388 . S
C3295 C3294 1.366 . S
C3295 C3299 1.385 . S
C3296 H3277 0.951 . S
C3296 C3294 1.388 . S
C3296 C3297 1.366 . S
C3297 C3296 1.366 . S
C3297 C3298 1.414 . S
C3297 C3300 1.499 . S
C3298 H3278 0.950 . S
C3298 C3297 1.414 . S
C3298 C3299 1.374 . S
C3299 H3279 0.950 . S
C3299 C3295 1.385 . S
C3299 C3298 1.374 . S
C3300 C3297 1.499 . S
C3300 C3301 1.373 . S
C3300 C3302 1.389 . S
C3301 H3280 0.950 . S
C3301 C3300 1.373 . S
C3301 C3317 1.377 . S
C3302 C3300 1.389 . S
C3302 C3303 1.524 . S
C3302 C3316 1.377 . S
C3303 C3302 1.524 . S
C3303 C3304 1.397 . S
C3303 C3308 1.363 . S
C3304 H3281 0.950 . S
C3304 C3303 1.397 . S
C3304 C3305 1.334 . S
C3305 H3282 0.950 . S
C3305 C3304 1.334 . S
C3305 C3306 1.287 . S
C3306 C3305 1.287 . S
C3306 C3307 1.524 . S
C3306 H3325 0.913 . S
C3307 H3283 0.950 . S
C3307 C3306 1.524 . S
C3307 C3308 1.415 . S
C3308 H3284 0.950 . S
C3308 C3303 1.363 . S
C3308 C3307 1.415 . S
C3309 H3285 0.951 . S
C3309 C3310 1.366 . S
C3309 C3311 1.388 . S
C3310 C3309 1.366 . S
C3310 C3314 1.385 . S
C3311 H3286 0.951 . S
C3311 C3309 1.388 . S
C3311 C3312 1.366 . S
C3312 C3311 1.366 . S
C3312 C3313 1.414 . S
C3312 C3315 1.499 . S
C3313 H3287 0.950 . S
C3313 C3312 1.414 . S
C3313 C3314 1.374 . S
C3314 H3288 0.950 . S
C3314 C3310 1.385 . S
C3314 C3313 1.374 . S
C3315 C3312 1.499 . S
C3315 C3316 1.373 . S
C3315 C3317 1.389 . S
C3316 H3289 0.950 . S
C3316 C3302 1.377 . S
C3316 C3315 1.373 . S
C3317 C3301 1.377 . S
C3317 C3315 1.389 . S
C3317 C3318 1.524 . S
C3318 C3317 1.524 . S
C3318 C3319 1.397 . S
C3318 C3323 1.363 . S
C3319 H3290 0.950 . S
C3319 C3318 1.397 . S
C3319 C3320 1.334 . S
C3320 H3291 0.950 . S
C3320 C3319 1.334 . S
C3320 C3321 1.287 . S
C3321 C3320 1.287 . S
C3321 C3322 1.524 . S
C3321 H3324 0.999 . S
C3322 H3292 0.950 . S
C3322 C3321 1.524 . S
C3322 C3323 1.415 . S
C3323 H3293 0.950 . S
C3323 C3318 1.363 . S
C3323 C3322 1.415 . S
H3324 C3321 0.999 . S
H3325 C3306 0.913 . S
H3326 C3344 0.951 . S
H3327 C3346 0.951 . S
H3328 C3348 0.950 . S
H3329 C3349 0.950 . S
H3330 C3351 0.950 . S
H3331 C3354 0.950 . S
H3332 C3355 0.950 . S
H3333 C3357 0.950 . S
H3334 C3358 0.950 . S
H3335 C3359 0.951 . S
H3336 C3361 0.951 . S
H3337 C3363 0.950 . S
H3338 C3364 0.950 . S
H3339 C3366 0.950 . S
H3340 C3369 0.950 . S
H3341 C3370 0.950 . S
H3342 C3372 0.950 . S
H3343 C3373 0.950 . S
C3344 H3326 0.951 . S
C3344 C3345 1.366 . S
C3344 C3346 1.388 . S
C3345 C3344 1.366 . S
C3345 C3349 1.385 . S
C3346 H3327 0.951 . S
C3346 C3344 1.388 . S
C3346 C3347 1.366 . S
C3347 C3346 1.366 . S
C3347 C3348 1.414 . S
C3347 C3350 1.499 . S
C3348 H3328 0.950 . S
C3348 C3347 1.414 . S
C3348 C3349 1.374 . S
C3349 H3329 0.950 . S
C3349 C3345 1.385 . S
C3349 C3348 1.374 . S
C3350 C3347 1.499 . S
C3350 C3351 1.373 . S
C3350 C3352 1.389 . S
C3351 H3330 0.950 . S
C3351 C3350 1.373 . S
C3351 C3367 1.377 . S
C3352 C3350 1.389 . S
C3352 C3353 1.524 . S
C3352 C3366 1.377 . S
C3353 C3352 1.524 . S
C3353 C3354 1.397 . S
C3353 C3358 1.363 . S
C3354 H3331 0.950 . S
C3354 C3353 1.397 . S
C3354 C3355 1.334 . S
C3355 H3332 0.950 . S
C3355 C3354 1.334 . S
C3355 C3356 1.287 . S
C3356 C3355 1.287 . S
C3356 C3357 1.524 . S
C3356 H3375 0.913 . S
C3357 H3333 0.950 . S
C3357 C3356 1.524 . S
C3357 C3358 1.415 . S
C3358 H3334 0.950 . S
C3358 C3353 1.363 . S
C3358 C3357 1.415 . S
C3359 H3335 0.951 . S
C3359 C3360 1.366 . S
C3359 C3361 1.388 . S
C3360 C3359 1.366 . S
C3360 C3364 1.385 . S
C3361 H3336 0.951 . S
C3361 C3359 1.388 . S
C3361 C3362 1.366 . S
C3362 C3361 1.366 . S
C3362 C3363 1.414 . S
C3362 C3365 1.499 . S
C3363 H3337 0.950 . S
C3363 C3362 1.414 . S
C3363 C3364 1.374 . S
C3364 H3338 0.950 . S
C3364 C3360 1.385 . S
C3364 C3363 1.374 . S
C3365 C3362 1.499 . S
C3365 C3366 1.373 . S
C3365 C3367 1.389 . S
C3366 H3339 0.950 . S
C3366 C3352 1.377 . S
C3366 C3365 1.373 . S
C3367 C3351 1.377 . S
C3367 C3365 1.389 . S
C3367 C3368 1.524 . S
C3368 C3367 1.524 . S
C3368 C3369 1.397 . S
C3368 C3373 1.363 . S
C3369 H3340 0.950 . S
C3369 C3368 1.397 . S
C3369 C3370 1.334 . S
C3370 H3341 0.950 . S
C3370 C3369 1.334 . S
C3370 C3371 1.287 . S
C3371 C3370 1.287 . S
C3371 C3372 1.524 . S
C3371 H3374 0.999 . S
C3372 H3342 0.950 . S
C3372 C3371 1.524 . S
C3372 C3373 1.415 . S
C3373 H3343 0.950 . S
C3373 C3368 1.363 . S
C3373 C3372 1.415 . S
H3374 C3371 0.999 . S
H3375 C3356 0.913 . S
H3376 C3394 0.951 . S
H3377 C3396 0.951 . S
H3378 C3398 0.950 . S
H3379 C3399 0.950 . S
H3380 C3401 0.950 . S
H3381 C3404 0.950 . S
H3382 C3405 0.950 . S
H3383 C3407 0.950 . S
H3384 C3408 0.950 . S
H3385 C3409 0.951 . S
H3386 C3411 0.951 . S
H3387 C3413 0.950 . S
H3388 C3414 0.950 . S
H3389 C3416 0.950 . S
H3390 C3419 0.950 . S
H3391 C3420 0.950 . S
H3392 C3422 0.950 . S
H3393 C3423 0.950 . S
C3394 H3376 0.951 . S
C3394 C3395 1.366 . S
C3394 C3396 1.388 . S
C3395 C3394 1.366 . S
C3395 C3399 1.385 . S
C3396 H3377 0.951 . S
C3396 C3394 1.388 . S
C3396 C3397 1.366 . S
C3397 C3396 1.366 . S
C3397 C3398 1.414 . S
C3397 C3400 1.499 . S
C3398 H3378 0.950 . S
C3398 C3397 1.414 . S
C3398 C3399 1.374 . S
C3399 H3379 0.950 . S
C3399 C3395 1.385 . S
C3399 C3398 1.374 . S
C3400 C3397 1.499 . S
C3400 C3401 1.373 . S
C3400 C3402 1.389 . S
C3401 H3380 0.950 . S
C3401 C3400 1.373 . S
C3401 C3417 1.377 . S
C3402 C3400 1.389 . S
C3402 C3403 1.524 . S
C3402 C3416 1.377 . S
C3403 C3402 1.524 . S
C3403 C3404 1.397 . S
C3403 C3408 1.363 . S
C3404 H3381 0.950 . S
C3404 C3403 1.397 . S
C3404 C3405 1.334 . S
C3405 H3382 0.950 . S
C3405 C3404 1.334 . S
C3405 C3406 1.287 . S
C3406 C3405 1.287 . S
C3406 C3407 1.524 . S
C3406 H3425 0.913 . S
C3407 H3383 0.950 . S
C3407 C3406 1.524 . S
C3407 C3408 1.415 . S
C3408 H3384 0.950 . S
C3408 C3403 1.363 . S
C3408 C3407 1.415 . S
C3409 H3385 0.951 . S
C3409 C3410 1.366 . S
C3409 C3411 1.388 . S
C3410 C3409 1.366 . S
C3410 C3414 1.385 . S
C3411 H3386 0.951 . S
C3411 C3409 1.388 . S
C3411 C3412 1.366 . S
C3412 C3411 1.366 . S
C3412 C3413 1.414 . S
C3412 C3415 1.499 . S
C3413 H3387 0.950 . S
C3413 C3412 1.414 . S
C3413 C3414 1.374 . S
C3414 H3388 0.950 . S
C3414 C3410 1.385 . S
C3414 C3413 1.374 . S
C3415 C3412 1.499 . S
C3415 C3416 1.373 . S
C3415 C3417 1.389 . S
C3416 H3389 0.950 . S
C3416 C3402 1.377 . S
C3416 C3415 1.373 . S
C3417 C3401 1.377 . S
C3417 C3415 1.389 . S
C3417 C3418 1.524 . S
C3418 C3417 1.524 . S
C3418 C3419 1.397 . S
C3418 C3423 1.363 . S
C3419 H3390 0.950 . S
C3419 C3418 1.397 . S
C3419 C3420 1.334 . S
C3420 H3391 0.950 . S
C3420 C3419 1.334 . S
C3420 C3421 1.287 . S
C3421 C3420 1.287 . S
C3421 C3422 1.524 . S
C3421 H3424 0.999 . S
C3422 H3392 0.950 . S
C3422 C3421 1.524 . S
C3422 C3423 1.415 . S
C3423 H3393 0.950 . S
C3423 C3418 1.363 . S
C3423 C3422 1.415 . S
H3424 C3421 0.999 . S
H3425 C3406 0.913 . S
H3426 C3444 0.951 . S
H3427 C3446 0.951 . S
H3428 C3448 0.950 . S
H3429 C3449 0.950 . S
H3430 C3451 0.950 . S
H3431 C3454 0.950 . S
H3432 C3455 0.950 . S
H3433 C3457 0.950 . S
H3434 C3458 0.950 . S
H3435 C3459 0.951 . S
H3436 C3461 0.951 . S
H3437 C3463 0.950 . S
H3438 C3464 0.950 . S
H3439 C3466 0.950 . S
H3440 C3469 0.950 . S
H3441 C3470 0.950 . S
H3442 C3472 0.950 . S
H3443 C3473 0.950 . S
C3444 H3426 0.951 . S
C3444 C3445 1.366 . S
C3444 C3446 1.388 . S
C3445 C3444 1.366 . S
C3445 C3449 1.385 . S
C3446 H3427 0.951 . S
C3446 C3444 1.388 . S
C3446 C3447 1.366 . S
C3447 C3446 1.366 . S
C3447 C3448 1.414 . S
C3447 C3450 1.499 . S
C3448 H3428 0.950 . S
C3448 C3447 1.414 . S
C3448 C3449 1.374 . S
C3449 H3429 0.950 . S
C3449 C3445 1.385 . S
C3449 C3448 1.374 . S
C3450 C3447 1.499 . S
C3450 C3451 1.373 . S
C3450 C3452 1.389 . S
C3451 H3430 0.950 . S
C3451 C3450 1.373 . S
C3451 C3467 1.377 . S
C3452 C3450 1.389 . S
C3452 C3453 1.524 . S
C3452 C3466 1.377 . S
C3453 C3452 1.524 . S
C3453 C3454 1.397 . S
C3453 C3458 1.363 . S
C3454 H3431 0.950 . S
C3454 C3453 1.397 . S
C3454 C3455 1.334 . S
C3455 H3432 0.950 . S
C3455 C3454 1.334 . S
C3455 C3456 1.287 . S
C3456 C3455 1.287 . S
C3456 C3457 1.524 . S
C3456 H3475 0.913 . S
C3457 H3433 0.950 . S
C3457 C3456 1.524 . S
C3457 C3458 1.415 . S
C3458 H3434 0.950 . S
C3458 C3453 1.363 . S
C3458 C3457 1.415 . S
C3459 H3435 0.951 . S
C3459 C3460 1.366 . S
C3459 C3461 1.388 . S
C3460 C3459 1.366 . S
C3460 C3464 1.385 . S
C3461 H3436 0.951 . S
C3461 C3459 1.388 . S
C3461 C3462 1.366 . S
C3462 C3461 1.366 . S
C3462 C3463 1.414 . S
C3462 C3465 1.499 . S
C3463 H3437 0.950 . S
C3463 C3462 1.414 . S
C3463 C3464 1.374 . S
C3464 H3438 0.950 . S
C3464 C3460 1.385 . S
C3464 C3463 1.374 . S
C3465 C3462 1.499 . S
C3465 C3466 1.373 . S
C3465 C3467 1.389 . S
C3466 H3439 0.950 . S
C3466 C3452 1.377 . S
C3466 C3465 1.373 . S
C3467 C3451 1.377 . S
C3467 C3465 1.389 . S
C3467 C3468 1.524 . S
C3468 C3467 1.524 . S
C3468 C3469 1.397 . S
C3468 C3473 1.363 . S
C3469 H3440 0.950 . S
C3469 C3468 1.397 . S
C3469 C3470 1.334 . S
C3470 H3441 0.950 . S
C3470 C3469 1.334 . S
C3470 C3471 1.287 . S
C3471 C3470 1.287 . S
C3471 C3472 1.524 . S
C3471 H3474 0.999 . S
C3472 H3442 0.950 . S
C3472 C3471 1.524 . S
C3472 C3473 1.415 . S
C3473 H3443 0.950 . S
C3473 C3468 1.363 . S
C3473 C3472 1.415 . S
H3474 C3471 0.999 . S
H3475 C3456 0.913 . S
H3476 C3494 0.949 1_655 S
H3477 C3496 0.926 1_654 S
H3478 C3498 0.950 . S
H3479 C3499 0.950 . S
H3480 C3501 0.950 . S
H3481 C3504 0.950 . S
H3482 C3505 0.950 . S
H3483 C3507 0.950 1_554 S
H3484 C3508 0.960 . S
H3485 C3509 0.951 1_556 S
H3486 C3511 0.951 . S
H3487 C3513 0.950 . S
H3488 C3514 0.950 . S
H3489 C3516 0.936 1_554 S
H3490 C3519 0.950 . S
H3491 C3520 0.950 . S
H3492 C3522 0.950 . S
H3493 C3523 0.950 . S
C3494 H3476 0.949 1_455 S
C3494 C3495 1.368 . S
C3494 C3496 1.387 . S
C3495 C3494 1.368 . S
C3495 C3499 1.385 . S
C3496 H3477 0.926 1_456 S
C3496 C3494 1.387 . S
C3496 C3497 1.366 . S
C3497 C3496 1.366 . S
C3497 C3498 1.414 . S
C3497 C3500 1.499 . S
C3498 H3478 0.950 . S
C3498 C3497 1.414 . S
C3498 C3499 1.374 . S
C3499 H3479 0.950 . S
C3499 C3495 1.385 . S
C3499 C3498 1.374 . S
C3500 C3497 1.499 . S
C3500 C3501 1.373 . S
C3500 C3502 1.389 1_455 S
C3501 H3480 0.950 . S
C3501 C3500 1.373 . S
C3501 C3517 1.377 . S
C3502 C3500 1.389 1_655 S
C3502 C3503 1.524 . S
C3502 C3516 1.377 . S
C3503 C3502 1.524 . S
C3503 C3504 1.397 . S
C3503 C3508 1.354 1_556 S
C3504 H3481 0.950 . S
C3504 C3503 1.397 . S
C3504 C3505 1.334 . S
C3505 H3482 0.950 . S
C3505 C3504 1.334 . S
C3505 C3506 1.287 . S
C3506 C3505 1.287 . S
C3506 C3507 1.524 . S
C3506 H3525 0.913 . S
C3507 H3483 0.950 1_556 S
C3507 C3506 1.524 . S
C3507 C3508 1.414 1_556 S
C3508 H3484 0.960 . S
C3508 C3503 1.354 1_554 S
C3508 C3507 1.414 1_554 S
C3509 H3485 0.951 1_554 S
C3509 C3510 1.366 . S
C3509 C3511 1.388 1_554 S
C3510 C3509 1.366 . S
C3510 C3514 1.385 . S
C3511 H3486 0.951 . S
C3511 C3509 1.388 1_556 S
C3511 C3512 1.366 1_556 S
C3512 C3511 1.366 1_554 S
C3512 C3513 1.414 . S
C3512 C3515 1.503 . S
C3513 H3487 0.950 . S
C3513 C3512 1.414 . S
C3513 C3514 1.374 . S
C3514 H3488 0.950 . S
C3514 C3510 1.385 . S
C3514 C3513 1.374 . S
C3515 C3512 1.503 . S
C3515 C3516 1.374 1_454 S
C3515 C3517 1.383 1_554 S
C3516 H3489 0.936 1_556 S
C3516 C3502 1.377 . S
C3516 C3515 1.374 1_656 S
C3517 C3501 1.377 . S
C3517 C3515 1.383 1_556 S
C3517 C3518 1.525 . S
C3518 C3517 1.525 . S
C3518 C3519 1.393 1_556 S
C3518 C3523 1.366 . S
C3519 H3490 0.950 . S
C3519 C3518 1.393 1_554 S
C3519 C3520 1.334 . S
C3520 H3491 0.950 . S
C3520 C3519 1.334 . S
C3520 C3521 1.287 . S
C3521 C3520 1.287 . S
C3521 C3522 1.524 1_554 S
C3521 H3524 0.999 . S
C3522 H3492 0.950 . S
C3522 C3521 1.524 1_556 S
C3522 C3523 1.415 . S
C3523 H3493 0.950 . S
C3523 C3518 1.366 . S
C3523 C3522 1.415 . S
H3524 C3521 0.999 . S
H3525 C3506 0.913 . S
H3526 C3544 0.951 . S
H3527 C3546 0.951 . S
H3528 C3548 0.950 . S
H3529 C3549 0.950 . S
H3530 C3551 0.950 . S
H3531 C3554 0.950 . S
H3532 C3555 0.950 . S
H3533 C3557 0.950 . S
H3534 C3558 0.950 . S
H3535 C3559 0.951 . S
H3536 C3561 0.951 . S
H3537 C3563 0.950 . S
H3538 C3564 0.950 . S
H3539 C3566 0.950 . S
H3540 C3569 0.950 . S
H3541 C3570 0.950 . S
H3542 C3572 0.950 . S
H3543 C3573 0.950 . S
C3544 H3526 0.951 . S
C3544 C3545 1.366 . S
C3544 C3546 1.388 1_455 S
C3545 C3544 1.366 . S
C3545 C3549 1.385 1_455 S
C3546 H3527 0.951 . S
C3546 C3544 1.388 1_655 S
C3546 C3547 1.366 . S
C3547 C3546 1.366 . S
C3547 C3548 1.414 . S
C3547 C3550 1.499 . S
C3548 H3528 0.950 . S
C3548 C3547 1.414 . S
C3548 C3549 1.374 . S
C3549 H3529 0.950 . S
C3549 C3545 1.385 1_655 S
C3549 C3548 1.374 . S
C3550 C3547 1.499 . S
C3550 C3551 1.373 . S
C3550 C3552 1.389 . S
C3551 H3530 0.950 . S
C3551 C3550 1.373 . S
C3551 C3567 1.377 . S
C3552 C3550 1.389 . S
C3552 C3553 1.524 . S
C3552 C3566 1.377 . S
C3553 C3552 1.524 . S
C3553 C3554 1.397 . S
C3553 C3558 1.363 . S
C3554 H3531 0.950 . S
C3554 C3553 1.397 . S
C3554 C3555 1.334 . S
C3555 H3532 0.950 . S
C3555 C3554 1.334 . S
C3555 C3556 1.287 . S
C3556 C3555 1.287 . S
C3556 C3557 1.524 . S
C3556 H3575 0.913 . S
C3557 H3533 0.950 . S
C3557 C3556 1.524 . S
C3557 C3558 1.415 . S
C3558 H3534 0.950 . S
C3558 C3553 1.363 . S
C3558 C3557 1.415 . S
C3559 H3535 0.951 . S
C3559 C3560 1.366 . S
C3559 C3561 1.388 . S
C3560 C3559 1.366 . S
C3560 C3564 1.385 . S
C3561 H3536 0.951 . S
C3561 C3559 1.388 . S
C3561 C3562 1.366 . S
C3562 C3561 1.366 . S
C3562 C3563 1.414 . S
C3562 C3565 1.499 . S
C3563 H3537 0.950 . S
C3563 C3562 1.414 . S
C3563 C3564 1.374 . S
C3564 H3538 0.950 . S
C3564 C3560 1.385 . S
C3564 C3563 1.374 . S
C3565 C3562 1.499 . S
C3565 C3566 1.373 . S
C3565 C3567 1.389 . S
C3566 H3539 0.950 . S
C3566 C3552 1.377 . S
C3566 C3565 1.373 . S
C3567 C3551 1.377 . S
C3567 C3565 1.389 . S
C3567 C3568 1.524 . S
C3568 C3567 1.524 . S
C3568 C3569 1.397 . S
C3568 C3573 1.363 . S
C3569 H3540 0.950 . S
C3569 C3568 1.397 . S
C3569 C3570 1.334 . S
C3570 H3541 0.950 . S
C3570 C3569 1.334 . S
C3570 C3571 1.287 . S
C3571 C3570 1.287 . S
C3571 C3572 1.524 . S
C3571 H3574 0.999 . S
C3572 H3542 0.950 . S
C3572 C3571 1.524 . S
C3572 C3573 1.415 . S
C3573 H3543 0.950 . S
C3573 C3568 1.363 . S
C3573 C3572 1.415 . S
H3574 C3571 0.999 . S
H3575 C3556 0.913 . S
H3576 C3594 0.951 . S
H3577 C3596 0.951 . S
H3578 C3598 0.950 . S
H3579 C3599 0.950 . S
H3580 C3601 0.950 . S
H3581 C3604 0.950 . S
H3582 C3605 0.950 . S
H3583 C3607 0.950 . S
H3584 C3608 0.950 . S
H3585 C3609 0.951 . S
H3586 C3611 0.951 . S
H3587 C3613 0.950 . S
H3588 C3614 0.950 . S
H3589 C3616 0.950 . S
H3590 C3619 0.950 . S
H3591 C3620 0.950 . S
H3592 C3622 0.950 . S
H3593 C3623 0.950 . S
C3594 H3576 0.951 . S
C3594 C3595 1.366 . S
C3594 C3596 1.388 . S
C3595 C3594 1.366 . S
C3595 C3599 1.385 . S
C3596 H3577 0.951 . S
C3596 C3594 1.388 . S
C3596 C3597 1.366 . S
C3597 C3596 1.366 . S
C3597 C3598 1.414 . S
C3597 C3600 1.499 . S
C3598 H3578 0.950 . S
C3598 C3597 1.414 . S
C3598 C3599 1.374 . S
C3599 H3579 0.950 . S
C3599 C3595 1.385 . S
C3599 C3598 1.374 . S
C3600 C3597 1.499 . S
C3600 C3601 1.373 . S
C3600 C3602 1.389 . S
C3601 H3580 0.950 . S
C3601 C3600 1.373 . S
C3601 C3617 1.377 . S
C3602 C3600 1.389 . S
C3602 C3603 1.524 . S
C3602 C3616 1.377 . S
C3603 C3602 1.524 . S
C3603 C3604 1.397 . S
C3603 C3608 1.363 . S
C3604 H3581 0.950 . S
C3604 C3603 1.397 . S
C3604 C3605 1.334 . S
C3605 H3582 0.950 . S
C3605 C3604 1.334 . S
C3605 C3606 1.287 . S
C3606 C3605 1.287 . S
C3606 C3607 1.524 . S
C3606 H3625 0.913 . S
C3607 H3583 0.950 . S
C3607 C3606 1.524 . S
C3607 C3608 1.415 . S
C3608 H3584 0.950 . S
C3608 C3603 1.363 . S
C3608 C3607 1.415 . S
C3609 H3585 0.951 . S
C3609 C3610 1.366 . S
C3609 C3611 1.388 . S
C3610 C3609 1.366 . S
C3610 C3614 1.385 . S
C3611 H3586 0.951 . S
C3611 C3609 1.388 . S
C3611 C3612 1.366 . S
C3612 C3611 1.366 . S
C3612 C3613 1.414 . S
C3612 C3615 1.499 . S
C3613 H3587 0.950 . S
C3613 C3612 1.414 . S
C3613 C3614 1.374 . S
C3614 H3588 0.950 . S
C3614 C3610 1.385 . S
C3614 C3613 1.374 . S
C3615 C3612 1.499 . S
C3615 C3616 1.373 . S
C3615 C3617 1.389 . S
C3616 H3589 0.950 . S
C3616 C3602 1.377 . S
C3616 C3615 1.373 . S
C3617 C3601 1.377 . S
C3617 C3615 1.389 . S
C3617 C3618 1.524 . S
C3618 C3617 1.524 . S
C3618 C3619 1.397 . S
C3618 C3623 1.363 . S
C3619 H3590 0.950 . S
C3619 C3618 1.397 . S
C3619 C3620 1.334 . S
C3620 H3591 0.950 . S
C3620 C3619 1.334 . S
C3620 C3621 1.287 . S
C3621 C3620 1.287 . S
C3621 C3622 1.524 . S
C3621 H3624 0.999 . S
C3622 H3592 0.950 . S
C3622 C3621 1.524 . S
C3622 C3623 1.415 . S
C3623 H3593 0.950 . S
C3623 C3618 1.363 . S
C3623 C3622 1.415 . S
H3624 C3621 0.999 . S
H3625 C3606 0.913 . S
H3626 C3644 0.951 . S
H3627 C3646 0.951 . S
H3628 C3648 0.950 . S
H3629 C3649 0.950 . S
H3630 C3651 0.950 . S
H3631 C3654 0.950 . S
H3632 C3655 0.950 . S
H3633 C3657 0.950 . S
H3634 C3658 0.950 . S
H3635 C3659 0.951 . S
H3636 C3661 0.951 . S
H3637 C3663 0.950 . S
H3638 C3664 0.950 . S
H3639 C3666 0.950 . S
H3640 C3669 0.950 . S
H3641 C3670 0.950 . S
H3642 C3672 0.950 . S
H3643 C3673 0.950 . S
C3644 H3626 0.951 . S
C3644 C3645 1.366 . S
C3644 C3646 1.388 . S
C3645 C3644 1.366 . S
C3645 C3649 1.385 . S
C3646 H3627 0.951 . S
C3646 C3644 1.388 . S
C3646 C3647 1.366 . S
C3647 C3646 1.366 . S
C3647 C3648 1.414 . S
C3647 C3650 1.499 . S
C3648 H3628 0.950 . S
C3648 C3647 1.414 . S
C3648 C3649 1.374 . S
C3649 H3629 0.950 . S
C3649 C3645 1.385 . S
C3649 C3648 1.374 . S
C3650 C3647 1.499 . S
C3650 C3651 1.373 . S
C3650 C3652 1.389 . S
C3651 H3630 0.950 . S
C3651 C3650 1.373 . S
C3651 C3667 1.377 . S
C3652 C3650 1.389 . S
C3652 C3653 1.524 . S
C3652 C3666 1.377 . S
C3653 C3652 1.524 . S
C3653 C3654 1.397 . S
C3653 C3658 1.363 . S
C3654 H3631 0.950 . S
C3654 C3653 1.397 . S
C3654 C3655 1.334 . S
C3655 H3632 0.950 . S
C3655 C3654 1.334 . S
C3655 C3656 1.287 . S
C3656 C3655 1.287 . S
C3656 C3657 1.524 . S
C3656 H3675 0.913 . S
C3657 H3633 0.950 . S
C3657 C3656 1.524 . S
C3657 C3658 1.415 . S
C3658 H3634 0.950 . S
C3658 C3653 1.363 . S
C3658 C3657 1.415 . S
C3659 H3635 0.951 . S
C3659 C3660 1.366 . S
C3659 C3661 1.388 . S
C3660 C3659 1.366 . S
C3660 C3664 1.385 . S
C3661 H3636 0.951 . S
C3661 C3659 1.388 . S
C3661 C3662 1.366 . S
C3662 C3661 1.366 . S
C3662 C3663 1.414 . S
C3662 C3665 1.499 . S
C3663 H3637 0.950 . S
C3663 C3662 1.414 . S
C3663 C3664 1.374 . S
C3664 H3638 0.950 . S
C3664 C3660 1.385 . S
C3664 C3663 1.374 . S
C3665 C3662 1.499 . S
C3665 C3666 1.373 . S
C3665 C3667 1.389 . S
C3666 H3639 0.950 . S
C3666 C3652 1.377 . S
C3666 C3665 1.373 . S
C3667 C3651 1.377 . S
C3667 C3665 1.389 . S
C3667 C3668 1.524 . S
C3668 C3667 1.524 . S
C3668 C3669 1.397 . S
C3668 C3673 1.363 . S
C3669 H3640 0.950 . S
C3669 C3668 1.397 . S
C3669 C3670 1.334 . S
C3670 H3641 0.950 . S
C3670 C3669 1.334 . S
C3670 C3671 1.287 . S
C3671 C3670 1.287 . S
C3671 C3672 1.524 . S
C3671 H3674 0.999 . S
C3672 H3642 0.950 . S
C3672 C3671 1.524 . S
C3672 C3673 1.415 . S
C3673 H3643 0.950 . S
C3673 C3668 1.363 . S
C3673 C3672 1.415 . S
H3674 C3671 0.999 . S
H3675 C3656 0.913 . S
H3676 C3694 0.952 . S
H3677 C3696 0.951 . S
H3678 C3698 0.950 . S
H3679 C3699 0.950 . S
H3680 C3701 0.950 . S
H3681 C3704 0.950 . S
H3682 C3705 0.950 . S
H3683 C3707 0.950 . S
H3684 C3708 0.950 . S
H3685 C3709 0.951 . S
H3686 C3711 0.951 . S
H3687 C3713 0.950 . S
H3688 C3714 0.950 . S
H3689 C3716 0.950 . S
H3690 C3719 0.950 . S
H3691 C3720 0.950 . S
H3692 C3722 0.941 1_455 S
H3693 C3723 0.950 . S
C3694 H3676 0.952 . S
C3694 C3695 1.366 . S
C3694 C3696 1.388 . S
C3695 C3694 1.366 . S
C3695 C3699 1.385 . S
C3696 H3677 0.951 . S
C3696 C3694 1.388 . S
C3696 C3697 1.366 . S
C3697 C3696 1.366 . S
C3697 C3698 1.414 . S
C3697 C3700 1.499 . S
C3698 H3678 0.950 . S
C3698 C3697 1.414 . S
C3698 C3699 1.374 . S
C3699 H3679 0.950 . S
C3699 C3695 1.385 . S
C3699 C3698 1.374 . S
C3700 C3697 1.499 . S
C3700 C3701 1.373 . S
C3700 C3702 1.389 . S
C3701 H3680 0.950 . S
C3701 C3700 1.373 . S
C3701 C3717 1.377 . S
C3702 C3700 1.389 . S
C3702 C3703 1.524 . S
C3702 C3716 1.377 . S
C3703 C3702 1.524 . S
C3703 C3704 1.397 . S
C3703 C3708 1.363 . S
C3704 H3681 0.950 . S
C3704 C3703 1.397 . S
C3704 C3705 1.334 . S
C3705 H3682 0.950 . S
C3705 C3704 1.334 . S
C3705 C3706 1.287 . S
C3706 C3705 1.287 . S
C3706 C3707 1.524 . S
C3706 H3725 0.913 . S
C3707 H3683 0.950 . S
C3707 C3706 1.524 . S
C3707 C3708 1.415 . S
C3708 H3684 0.950 . S
C3708 C3703 1.363 . S
C3708 C3707 1.415 . S
C3709 H3685 0.951 . S
C3709 C3710 1.366 . S
C3709 C3711 1.388 . S
C3710 C3709 1.366 . S
C3710 C3714 1.385 . S
C3711 H3686 0.951 . S
C3711 C3709 1.388 . S
C3711 C3712 1.366 . S
C3712 C3711 1.366 . S
C3712 C3713 1.414 . S
C3712 C3715 1.499 . S
C3713 H3687 0.950 . S
C3713 C3712 1.414 . S
C3713 C3714 1.374 . S
C3714 H3688 0.950 . S
C3714 C3710 1.385 . S
C3714 C3713 1.374 . S
C3715 C3712 1.499 . S
C3715 C3716 1.373 . S
C3715 C3717 1.389 . S
C3716 H3689 0.950 . S
C3716 C3702 1.377 . S
C3716 C3715 1.373 . S
C3717 C3701 1.377 . S
C3717 C3715 1.389 . S
C3717 C3718 1.524 . S
C3718 C3717 1.524 . S
C3718 C3719 1.397 1_455 S
C3718 C3723 1.363 . S
C3719 H3690 0.950 . S
C3719 C3718 1.397 1_655 S
C3719 C3720 1.334 . S
C3720 H3691 0.950 . S
C3720 C3719 1.334 . S
C3720 C3721 1.287 . S
C3721 C3720 1.287 . S
C3721 C3722 1.557 . S
C3721 H3724 0.999 . S
C3722 H3692 0.941 1_655 S
C3722 C3721 1.557 . S
C3722 C3723 1.395 1_655 S
C3723 H3693 0.950 . S
C3723 C3718 1.363 . S
C3723 C3722 1.395 1_455 S
H3724 C3721 0.999 . S
H3725 C3706 0.913 . S
H3726 C3744 0.951 . S
H3727 C3746 0.951 . S
H3728 C3748 0.950 . S
H3729 C3749 0.950 . S
H3730 C3751 0.950 . S
H3731 C3754 0.950 . S
H3732 C3755 0.950 . S
H3733 C3757 0.950 . S
H3734 C3758 0.950 . S
H3735 C3759 0.951 . S
H3736 C3761 0.951 . S
H3737 C3763 0.950 . S
H3738 C3764 0.950 . S
H3739 C3766 0.950 . S
H3740 C3769 0.950 . S
H3741 C3770 0.950 . S
H3742 C3772 0.950 . S
H3743 C3773 0.950 . S
C3744 H3726 0.951 . S
C3744 C3745 1.366 . S
C3744 C3746 1.388 . S
C3745 C3744 1.366 . S
C3745 C3749 1.385 . S
C3746 H3727 0.951 . S
C3746 C3744 1.388 . S
C3746 C3747 1.366 . S
C3747 C3746 1.366 . S
C3747 C3748 1.414 . S
C3747 C3750 1.499 . S
C3748 H3728 0.950 . S
C3748 C3747 1.414 . S
C3748 C3749 1.374 . S
C3749 H3729 0.950 . S
C3749 C3745 1.385 . S
C3749 C3748 1.374 . S
C3750 C3747 1.499 . S
C3750 C3751 1.373 . S
C3750 C3752 1.389 . S
C3751 H3730 0.950 . S
C3751 C3750 1.373 . S
C3751 C3767 1.377 . S
C3752 C3750 1.389 . S
C3752 C3753 1.524 . S
C3752 C3766 1.377 . S
C3753 C3752 1.524 . S
C3753 C3754 1.397 . S
C3753 C3758 1.363 . S
C3754 H3731 0.950 . S
C3754 C3753 1.397 . S
C3754 C3755 1.334 . S
C3755 H3732 0.950 . S
C3755 C3754 1.334 . S
C3755 C3756 1.287 . S
C3756 C3755 1.287 . S
C3756 C3757 1.524 . S
C3756 H3775 0.913 . S
C3757 H3733 0.950 . S
C3757 C3756 1.524 . S
C3757 C3758 1.415 . S
C3758 H3734 0.950 . S
C3758 C3753 1.363 . S
C3758 C3757 1.415 . S
C3759 H3735 0.951 . S
C3759 C3760 1.366 . S
C3759 C3761 1.388 . S
C3760 C3759 1.366 . S
C3760 C3764 1.385 . S
C3761 H3736 0.951 . S
C3761 C3759 1.388 . S
C3761 C3762 1.366 . S
C3762 C3761 1.366 . S
C3762 C3763 1.414 . S
C3762 C3765 1.499 . S
C3763 H3737 0.950 . S
C3763 C3762 1.414 . S
C3763 C3764 1.374 . S
C3764 H3738 0.950 . S
C3764 C3760 1.385 . S
C3764 C3763 1.374 . S
C3765 C3762 1.499 . S
C3765 C3766 1.373 . S
C3765 C3767 1.389 . S
C3766 H3739 0.950 . S
C3766 C3752 1.377 . S
C3766 C3765 1.373 . S
C3767 C3751 1.377 . S
C3767 C3765 1.389 . S
C3767 C3768 1.524 . S
C3768 C3767 1.524 . S
C3768 C3769 1.397 . S
C3768 C3773 1.363 . S
C3769 H3740 0.950 . S
C3769 C3768 1.397 . S
C3769 C3770 1.334 . S
C3770 H3741 0.950 . S
C3770 C3769 1.334 . S
C3770 C3771 1.287 . S
C3771 C3770 1.287 . S
C3771 C3772 1.524 . S
C3771 H3774 0.999 . S
C3772 H3742 0.950 . S
C3772 C3771 1.524 . S
C3772 C3773 1.415 . S
C3773 H3743 0.950 . S
C3773 C3768 1.363 . S
C3773 C3772 1.415 . S
H3774 C3771 0.999 . S
H3775 C3756 0.913 . S
H3776 C3794 0.951 . S
H3777 C3796 0.951 . S
H3778 C3798 0.950 . S
H3779 C3799 0.950 . S
H3780 C3801 0.950 . S
H3781 C3804 0.950 . S
H3782 C3805 0.950 . S
H3783 C3807 0.950 . S
H3784 C3808 0.950 . S
H3785 C3809 0.951 . S
H3786 C3811 0.951 . S
H3787 C3813 0.950 . S
H3788 C3814 0.950 . S
H3789 C3816 0.950 . S
H3790 C3819 0.950 . S
H3791 C3820 0.950 . S
H3792 C3822 0.950 . S
H3793 C3823 0.950 . S
C3794 H3776 0.951 . S
C3794 C3795 1.366 . S
C3794 C3796 1.388 . S
C3795 C3794 1.366 . S
C3795 C3799 1.385 . S
C3796 H3777 0.951 . S
C3796 C3794 1.388 . S
C3796 C3797 1.366 . S
C3797 C3796 1.366 . S
C3797 C3798 1.414 . S
C3797 C3800 1.499 . S
C3798 H3778 0.950 . S
C3798 C3797 1.414 . S
C3798 C3799 1.374 . S
C3799 H3779 0.950 . S
C3799 C3795 1.385 . S
C3799 C3798 1.374 . S
C3800 C3797 1.499 . S
C3800 C3801 1.373 . S
C3800 C3802 1.389 . S
C3801 H3780 0.950 . S
C3801 C3800 1.373 . S
C3801 C3817 1.377 . S
C3802 C3800 1.389 . S
C3802 C3803 1.524 . S
C3802 C3816 1.377 . S
C3803 C3802 1.524 . S
C3803 C3804 1.397 . S
C3803 C3808 1.363 . S
C3804 H3781 0.950 . S
C3804 C3803 1.397 . S
C3804 C3805 1.334 . S
C3805 H3782 0.950 . S
C3805 C3804 1.334 . S
C3805 C3806 1.287 . S
C3806 C3805 1.287 . S
C3806 C3807 1.524 . S
C3806 H3825 0.913 . S
C3807 H3783 0.950 . S
C3807 C3806 1.524 . S
C3807 C3808 1.415 . S
C3808 H3784 0.950 . S
C3808 C3803 1.363 . S
C3808 C3807 1.415 . S
C3809 H3785 0.951 . S
C3809 C3810 1.366 . S
C3809 C3811 1.388 . S
C3810 C3809 1.366 . S
C3810 C3814 1.385 . S
C3811 H3786 0.951 . S
C3811 C3809 1.388 . S
C3811 C3812 1.366 . S
C3812 C3811 1.366 . S
C3812 C3813 1.414 . S
C3812 C3815 1.499 . S
C3813 H3787 0.950 . S
C3813 C3812 1.414 . S
C3813 C3814 1.374 . S
C3814 H3788 0.950 . S
C3814 C3810 1.385 . S
C3814 C3813 1.374 . S
C3815 C3812 1.499 . S
C3815 C3816 1.373 . S
C3815 C3817 1.389 . S
C3816 H3789 0.950 . S
C3816 C3802 1.377 . S
C3816 C3815 1.373 . S
C3817 C3801 1.377 . S
C3817 C3815 1.389 . S
C3817 C3818 1.524 . S
C3818 C3817 1.524 . S
C3818 C3819 1.397 . S
C3818 C3823 1.363 . S
C3819 H3790 0.950 . S
C3819 C3818 1.397 . S
C3819 C3820 1.334 . S
C3820 H3791 0.950 . S
C3820 C3819 1.334 . S
C3820 C3821 1.287 . S
C3821 C3820 1.287 . S
C3821 C3822 1.524 . S
C3821 H3824 0.999 . S
C3822 H3792 0.950 . S
C3822 C3821 1.524 . S
C3822 C3823 1.415 . S
C3823 H3793 0.950 . S
C3823 C3818 1.363 . S
C3823 C3822 1.415 . S
H3824 C3821 0.999 . S
H3825 C3806 0.913 . S
H3826 C3844 0.951 . S
H3827 C3846 0.951 . S
H3828 C3848 0.950 . S
H3829 C3849 0.950 . S
H3830 C3851 0.950 . S
H3831 C3854 0.950 . S
H3832 C3855 0.950 . S
H3833 C3857 0.950 . S
H3834 C3858 0.950 . S
H3835 C3859 0.951 . S
H3836 C3861 0.951 . S
H3837 C3863 0.950 . S
H3838 C3864 0.950 . S
H3839 C3866 0.950 . S
H3840 C3869 0.950 . S
H3841 C3870 0.950 . S
H3842 C3872 0.950 . S
H3843 C3873 0.950 . S
C3844 H3826 0.951 . S
C3844 C3845 1.366 1_556 S
C3844 C3846 1.388 . S
C3845 C3844 1.366 1_554 S
C3845 C3849 1.385 . S
C3846 H3827 0.951 . S
C3846 C3844 1.388 . S
C3846 C3847 1.366 . S
C3847 C3846 1.366 . S
C3847 C3848 1.414 . S
C3847 C3850 1.499 . S
C3848 H3828 0.950 . S
C3848 C3847 1.414 . S
C3848 C3849 1.374 1_556 S
C3849 H3829 0.950 . S
C3849 C3845 1.385 . S
C3849 C3848 1.374 1_554 S
C3850 C3847 1.499 . S
C3850 C3851 1.373 . S
C3850 C3852 1.389 . S
C3851 H3830 0.950 . S
C3851 C3850 1.373 . S
C3851 C3867 1.377 . S
C3852 C3850 1.389 . S
C3852 C3853 1.524 . S
C3852 C3866 1.377 . S
C3853 C3852 1.524 . S
C3853 C3854 1.397 . S
C3853 C3858 1.363 . S
C3854 H3831 0.950 . S
C3854 C3853 1.397 . S
C3854 C3855 1.334 . S
C3855 H3832 0.950 . S
C3855 C3854 1.334 . S
C3855 C3856 1.287 . S
C3856 C3855 1.287 . S
C3856 C3857 1.524 . S
C3856 H3875 0.913 . S
C3857 H3833 0.950 . S
C3857 C3856 1.524 . S
C3857 C3858 1.415 . S
C3858 H3834 0.950 . S
C3858 C3853 1.363 . S
C3858 C3857 1.415 . S
C3859 H3835 0.951 . S
C3859 C3860 1.366 . S
C3859 C3861 1.388 . S
C3860 C3859 1.366 . S
C3860 C3864 1.385 . S
C3861 H3836 0.951 . S
C3861 C3859 1.388 . S
C3861 C3862 1.366 . S
C3862 C3861 1.366 . S
C3862 C3863 1.414 . S
C3862 C3865 1.499 . S
C3863 H3837 0.950 . S
C3863 C3862 1.414 . S
C3863 C3864 1.374 . S
C3864 H3838 0.950 . S
C3864 C3860 1.385 . S
C3864 C3863 1.374 . S
C3865 C3862 1.499 . S
C3865 C3866 1.373 . S
C3865 C3867 1.389 . S
C3866 H3839 0.950 . S
C3866 C3852 1.377 . S
C3866 C3865 1.373 . S
C3867 C3851 1.377 . S
C3867 C3865 1.389 . S
C3867 C3868 1.524 . S
C3868 C3867 1.524 . S
C3868 C3869 1.397 . S
C3868 C3873 1.363 . S
C3869 H3840 0.950 . S
C3869 C3868 1.397 . S
C3869 C3870 1.334 . S
C3870 H3841 0.950 . S
C3870 C3869 1.334 . S
C3870 C3871 1.287 . S
C3871 C3870 1.287 . S
C3871 C3872 1.524 . S
C3871 H3874 0.999 . S
C3872 H3842 0.950 . S
C3872 C3871 1.524 . S
C3872 C3873 1.415 . S
C3873 H3843 0.950 . S
C3873 C3868 1.363 . S
C3873 C3872 1.415 . S
H3874 C3871 0.999 . S
H3875 C3856 0.913 . S
H3876 C3894 0.951 . S
H3877 C3896 0.951 . S
H3878 C3898 0.950 . S
H3879 C3899 0.950 . S
H3880 C3901 0.950 . S
H3881 C3904 0.950 . S
H3882 C3905 0.950 . S
H3883 C3907 0.950 . S
H3884 C3908 0.950 . S
H3885 C3909 0.951 . S
H3886 C3911 0.951 . S
H3887 C3913 0.950 . S
H3888 C3914 0.950 . S
H3889 C3916 0.950 . S
H3890 C3919 0.950 . S
H3891 C3920 0.950 . S
H3892 C3922 0.950 . S
H3893 C3923 0.950 . S
C3894 H3876 0.951 . S
C3894 C3895 1.366 . S
C3894 C3896 1.388 . S
C3895 C3894 1.366 . S
C3895 C3899 1.385 . S
C3896 H3877 0.951 . S
C3896 C3894 1.388 . S
C3896 C3897 1.366 . S
C3897 C3896 1.366 . S
C3897 C3898 1.414 . S
C3897 C3900 1.499 . S
C3898 H3878 0.950 . S
C3898 C3897 1.414 . S
C3898 C3899 1.374 . S
C3899 H3879 0.950 . S
C3899 C3895 1.385 . S
C3899 C3898 1.374 . S
C3900 C3897 1.499 . S
C3900 C3901 1.373 . S
C3900 C3902 1.389 . S
C3901 H3880 0.950 . S
C3901 C3900 1.373 . S
C3901 C3917 1.377 . S
C3902 C3900 1.389 . S
C3902 C3903 1.524 . S
C3902 C3916 1.377 . S
C3903 C3902 1.524 . S
C3903 C3904 1.397 . S
C3903 C3908 1.363 . S
C3904 H3881 0.950 . S
C3904 C3903 1.397 . S
C3904 C3905 1.334 . S
C3905 H3882 0.950 . S
C3905 C3904 1.334 . S
C3905 C3906 1.287 . S
C3906 C3905 1.287 . S
C3906 C3907 1.524 . S
C3906 H3925 0.913 . S
C3907 H3883 0.950 . S
C3907 C3906 1.524 . S
C3907 C3908 1.415 . S
C3908 H3884 0.950 . S
C3908 C3903 1.363 . S
C3908 C3907 1.415 . S
C3909 H3885 0.951 . S
C3909 C3910 1.366 . S
C3909 C3911 1.388 . S
C3910 C3909 1.366 . S
C3910 C3914 1.385 . S
C3911 H3886 0.951 . S
C3911 C3909 1.388 . S
C3911 C3912 1.366 . S
C3912 C3911 1.366 . S
C3912 C3913 1.414 . S
C3912 C3915 1.499 . S
C3913 H3887 0.950 . S
C3913 C3912 1.414 . S
C3913 C3914 1.374 . S
C3914 H3888 0.950 . S
C3914 C3910 1.385 . S
C3914 C3913 1.374 . S
C3915 C3912 1.499 . S
C3915 C3916 1.373 . S
C3915 C3917 1.389 . S
C3916 H3889 0.950 . S
C3916 C3902 1.377 . S
C3916 C3915 1.373 . S
C3917 C3901 1.377 . S
C3917 C3915 1.389 . S
C3917 C3918 1.524 . S
C3918 C3917 1.524 . S
C3918 C3919 1.397 . S
C3918 C3923 1.363 . S
C3919 H3890 0.950 . S
C3919 C3918 1.397 . S
C3919 C3920 1.334 . S
C3920 H3891 0.950 . S
C3920 C3919 1.334 . S
C3920 C3921 1.287 . S
C3921 C3920 1.287 . S
C3921 C3922 1.524 . S
C3921 H3924 0.999 . S
C3922 H3892 0.950 . S
C3922 C3921 1.524 . S
C3922 C3923 1.415 . S
C3923 H3893 0.950 . S
C3923 C3918 1.363 . S
C3923 C3922 1.415 . S
H3924 C3921 0.999 . S
H3925 C3906 0.913 . S
H3926 C3944 0.951 . S
H3927 C3946 0.951 . S
H3928 C3948 0.950 . S
H3929 C3949 0.950 . S
H3930 C3951 0.950 . S
H3931 C3954 0.950 . S
H3932 C3955 0.950 . S
H3933 C3957 0.950 . S
H3934 C3958 0.950 . S
H3935 C3959 0.951 . S
H3936 C3961 0.951 . S
H3937 C3963 0.950 . S
H3938 C3964 0.950 . S
H3939 C3966 0.950 . S
H3940 C3969 0.950 . S
H3941 C3970 0.950 . S
H3942 C3972 0.950 . S
H3943 C3973 0.950 . S
C3944 H3926 0.951 . S
C3944 C3945 1.366 . S
C3944 C3946 1.388 . S
C3945 C3944 1.366 . S
C3945 C3949 1.385 . S
C3946 H3927 0.951 . S
C3946 C3944 1.388 . S
C3946 C3947 1.366 . S
C3947 C3946 1.366 . S
C3947 C3948 1.414 . S
C3947 C3950 1.499 . S
C3948 H3928 0.950 . S
C3948 C3947 1.414 . S
C3948 C3949 1.374 . S
C3949 H3929 0.950 . S
C3949 C3945 1.385 . S
C3949 C3948 1.374 . S
C3950 C3947 1.499 . S
C3950 C3951 1.373 . S
C3950 C3952 1.389 . S
C3951 H3930 0.950 . S
C3951 C3950 1.373 . S
C3951 C3967 1.377 . S
C3952 C3950 1.389 . S
C3952 C3953 1.524 . S
C3952 C3966 1.377 . S
C3953 C3952 1.524 . S
C3953 C3954 1.397 . S
C3953 C3958 1.363 . S
C3954 H3931 0.950 . S
C3954 C3953 1.397 . S
C3954 C3955 1.334 . S
C3955 H3932 0.950 . S
C3955 C3954 1.334 . S
C3955 C3956 1.287 . S
C3956 C3955 1.287 . S
C3956 C3957 1.524 . S
C3956 H3975 0.913 . S
C3957 H3933 0.950 . S
C3957 C3956 1.524 . S
C3957 C3958 1.415 . S
C3958 H3934 0.950 . S
C3958 C3953 1.363 . S
C3958 C3957 1.415 . S
C3959 H3935 0.951 . S
C3959 C3960 1.366 . S
C3959 C3961 1.388 . S
C3960 C3959 1.366 . S
C3960 C3964 1.385 . S
C3961 H3936 0.951 . S
C3961 C3959 1.388 . S
C3961 C3962 1.366 . S
C3962 C3961 1.366 . S
C3962 C3963 1.414 . S
C3962 C3965 1.499 . S
C3963 H3937 0.950 . S
C3963 C3962 1.414 . S
C3963 C3964 1.374 . S
C3964 H3938 0.950 . S
C3964 C3960 1.385 . S
C3964 C3963 1.374 . S
C3965 C3962 1.499 . S
C3965 C3966 1.373 . S
C3965 C3967 1.389 . S
C3966 H3939 0.950 . S
C3966 C3952 1.377 . S
C3966 C3965 1.373 . S
C3967 C3951 1.377 . S
C3967 C3965 1.389 . S
C3967 C3968 1.524 . S
C3968 C3967 1.524 . S
C3968 C3969 1.397 . S
C3968 C3973 1.363 . S
C3969 H3940 0.950 . S
C3969 C3968 1.397 . S
C3969 C3970 1.334 . S
C3970 H3941 0.950 . S
C3970 C3969 1.334 . S
C3970 C3971 1.287 . S
C3971 C3970 1.287 . S
C3971 C3972 1.524 . S
C3971 H3974 0.999 . S
C3972 H3942 0.950 . S
C3972 C3971 1.524 . S
C3972 C3973 1.415 . S
C3973 H3943 0.950 . S
C3973 C3968 1.363 . S
C3973 C3972 1.415 . S
H3974 C3971 0.999 . S
H3975 C3956 0.913 . S
H3976 C3994 0.951 . S
H3977 C3996 0.951 . S
H3978 C3998 0.950 . S
H3979 C3999 0.950 . S
H3980 C4001 0.950 . S
H3981 C4004 0.950 . S
H3982 C4005 0.950 . S
H3983 C4007 0.950 . S
H3984 C4008 0.950 . S
H3985 C4009 0.951 . S
H3986 C4011 0.951 . S
H3987 C4013 0.950 . S
H3988 C4014 0.950 . S
H3989 C4016 0.950 . S
H3990 C4019 0.950 . S
H3991 C4020 0.950 . S
H3992 C4022 0.950 . S
H3993 C4023 0.950 . S
C3994 H3976 0.951 . S
C3994 C3995 1.366 . S
C3994 C3996 1.388 . S
C3995 C3994 1.366 . S
C3995 C3999 1.385 . S
C3996 H3977 0.951 . S
C3996 C3994 1.388 . S
C3996 C3997 1.366 . S
C3997 C3996 1.366 . S
C3997 C3998 1.414 . S
C3997 C4000 1.499 . S
C3998 H3978 0.950 . S
C3998 C3997 1.414 . S
C3998 C3999 1.374 . S
C3999 H3979 0.950 . S
C3999 C3995 1.385 . S
C3999 C3998 1.374 . S
C4000 C3997 1.499 . S
C4000 C4001 1.373 . S
C4000 C4002 1.389 . S
C4001 H3980 0.950 . S
C4001 C4000 1.373 . S
C4001 C4017 1.377 . S
C4002 C4000 1.389 . S
C4002 C4003 1.524 . S
C4002 C4016 1.377 . S
C4003 C4002 1.524 . S
C4003 C4004 1.397 . S
C4003 C4008 1.363 . S
C4004 H3981 0.950 . S
C4004 C4003 1.397 . S
C4004 C4005 1.334 . S
C4005 H3982 0.950 . S
C4005 C4004 1.334 . S
C4005 C4006 1.287 . S
C4006 C4005 1.287 . S
C4006 C4007 1.524 . S
C4006 H4025 0.913 . S
C4007 H3983 0.950 . S
C4007 C4006 1.524 . S
C4007 C4008 1.415 . S
C4008 H3984 0.950 . S
C4008 C4003 1.363 . S
C4008 C4007 1.415 . S
C4009 H3985 0.951 . S
C4009 C4010 1.366 . S
C4009 C4011 1.388 . S
C4010 C4009 1.366 . S
C4010 C4014 1.385 . S
C4011 H3986 0.951 . S
C4011 C4009 1.388 . S
C4011 C4012 1.366 . S
C4012 C4011 1.366 . S
C4012 C4013 1.414 . S
C4012 C4015 1.499 . S
C4013 H3987 0.950 . S
C4013 C4012 1.414 . S
C4013 C4014 1.374 . S
C4014 H3988 0.950 . S
C4014 C4010 1.385 . S
C4014 C4013 1.374 . S
C4015 C4012 1.499 . S
C4015 C4016 1.373 . S
C4015 C4017 1.389 . S
C4016 H3989 0.950 . S
C4016 C4002 1.377 . S
C4016 C4015 1.373 . S
C4017 C4001 1.377 . S
C4017 C4015 1.389 . S
C4017 C4018 1.524 . S
C4018 C4017 1.524 . S
C4018 C4019 1.397 . S
C4018 C4023 1.363 . S
C4019 H3990 0.950 . S
C4019 C4018 1.397 . S
C4019 C4020 1.334 . S
C4020 H3991 0.950 . S
C4020 C4019 1.334 . S
C4020 C4021 1.287 . S
C4021 C4020 1.287 . S
C4021 C4022 1.524 . S
C4021 H4024 0.999 . S
C4022 H3992 0.950 . S
C4022 C4021 1.524 . S
C4022 C4023 1.415 . S
C4023 H3993 0.950 . S
C4023 C4018 1.363 . S
C4023 C4022 1.415 . S
H4024 C4021 0.999 . S
H4025 C4006 0.913 . S
H4026 C4044 0.951 . S
H4027 C4046 0.951 . S
H4028 C4048 0.950 . S
H4029 C4049 0.950 . S
H4030 C4051 0.950 . S
H4031 C4054 0.950 . S
H4032 C4055 0.950 . S
H4033 C4057 0.950 . S
H4034 C4058 0.950 . S
H4035 C4059 0.951 . S
H4036 C4061 0.951 . S
H4037 C4063 0.950 . S
H4038 C4064 0.950 . S
H4039 C4066 0.950 . S
H4040 C4069 0.950 . S
H4041 C4070 0.950 . S
H4042 C4072 0.950 . S
H4043 C4073 0.950 . S
C4044 H4026 0.951 . S
C4044 C4045 1.366 . S
C4044 C4046 1.388 . S
C4045 C4044 1.366 . S
C4045 C4049 1.385 . S
C4046 H4027 0.951 . S
C4046 C4044 1.388 . S
C4046 C4047 1.366 . S
C4047 C4046 1.366 . S
C4047 C4048 1.414 . S
C4047 C4050 1.499 . S
C4048 H4028 0.950 . S
C4048 C4047 1.414 . S
C4048 C4049 1.374 . S
C4049 H4029 0.950 . S
C4049 C4045 1.385 . S
C4049 C4048 1.374 . S
C4050 C4047 1.499 . S
C4050 C4051 1.373 . S
C4050 C4052 1.389 . S
C4051 H4030 0.950 . S
C4051 C4050 1.373 . S
C4051 C4067 1.377 . S
C4052 C4050 1.389 . S
C4052 C4053 1.524 . S
C4052 C4066 1.377 . S
C4053 C4052 1.524 . S
C4053 C4054 1.397 . S
C4053 C4058 1.363 . S
C4054 H4031 0.950 . S
C4054 C4053 1.397 . S
C4054 C4055 1.334 . S
C4055 H4032 0.950 . S
C4055 C4054 1.334 . S
C4055 C4056 1.287 . S
C4056 C4055 1.287 . S
C4056 C4057 1.524 . S
C4056 H4075 0.913 . S
C4057 H4033 0.950 . S
C4057 C4056 1.524 . S
C4057 C4058 1.415 . S
C4058 H4034 0.950 . S
C4058 C4053 1.363 . S
C4058 C4057 1.415 . S
C4059 H4035 0.951 . S
C4059 C4060 1.366 . S
C4059 C4061 1.388 . S
C4060 C4059 1.366 . S
C4060 C4064 1.385 . S
C4061 H4036 0.951 . S
C4061 C4059 1.388 . S
C4061 C4062 1.366 . S
C4062 C4061 1.366 . S
C4062 C4063 1.414 . S
C4062 C4065 1.499 . S
C4063 H4037 0.950 . S
C4063 C4062 1.414 . S
C4063 C4064 1.374 . S
C4064 H4038 0.950 . S
C4064 C4060 1.385 . S
C4064 C4063 1.374 . S
C4065 C4062 1.499 . S
C4065 C4066 1.373 . S
C4065 C4067 1.389 . S
C4066 H4039 0.950 . S
C4066 C4052 1.377 . S
C4066 C4065 1.373 . S
C4067 C4051 1.377 . S
C4067 C4065 1.389 . S
C4067 C4068 1.524 . S
C4068 C4067 1.524 . S
C4068 C4069 1.397 . S
C4068 C4073 1.363 . S
C4069 H4040 0.950 . S
C4069 C4068 1.397 . S
C4069 C4070 1.334 . S
C4070 H4041 0.950 . S
C4070 C4069 1.334 . S
C4070 C4071 1.287 . S
C4071 C4070 1.287 . S
C4071 C4072 1.524 . S
C4071 H4074 0.999 . S
C4072 H4042 0.950 . S
C4072 C4071 1.524 . S
C4072 C4073 1.415 . S
C4073 H4043 0.950 . S
C4073 C4068 1.363 . S
C4073 C4072 1.415 . S
H4074 C4071 0.999 . S
H4075 C4056 0.913 . S
H4076 C4094 0.951 . S
H4077 C4096 0.951 . S
H4078 C4098 0.950 . S
H4079 C4099 0.950 . S
H4080 C4101 0.950 . S
H4081 C4104 0.950 . S
H4082 C4105 0.950 . S
H4083 C4107 0.950 . S
H4084 C4108 0.950 . S
H4085 C4109 0.951 . S
H4086 C4111 0.951 . S
H4087 C4113 0.950 . S
H4088 C4114 0.950 . S
H4089 C4116 0.950 . S
H4090 C4119 0.950 . S
H4091 C4120 0.950 . S
H4092 C4122 0.950 . S
H4093 C4123 0.950 . S
C4094 H4076 0.951 . S
C4094 C4095 1.366 . S
C4094 C4096 1.388 . S
C4095 C4094 1.366 . S
C4095 C4099 1.385 . S
C4096 H4077 0.951 . S
C4096 C4094 1.388 . S
C4096 C4097 1.366 . S
C4097 C4096 1.366 . S
C4097 C4098 1.414 . S
C4097 C4100 1.499 . S
C4098 H4078 0.950 . S
C4098 C4097 1.414 . S
C4098 C4099 1.374 . S
C4099 H4079 0.950 . S
C4099 C4095 1.385 . S
C4099 C4098 1.374 . S
C4100 C4097 1.499 . S
C4100 C4101 1.373 . S
C4100 C4102 1.389 . S
C4101 H4080 0.950 . S
C4101 C4100 1.373 . S
C4101 C4117 1.377 . S
C4102 C4100 1.389 . S
C4102 C4103 1.524 . S
C4102 C4116 1.377 . S
C4103 C4102 1.524 . S
C4103 C4104 1.397 . S
C4103 C4108 1.363 . S
C4104 H4081 0.950 . S
C4104 C4103 1.397 . S
C4104 C4105 1.334 . S
C4105 H4082 0.950 . S
C4105 C4104 1.334 . S
C4105 C4106 1.287 . S
C4106 C4105 1.287 . S
C4106 C4107 1.524 . S
C4106 H4125 0.913 . S
C4107 H4083 0.950 . S
C4107 C4106 1.524 . S
C4107 C4108 1.415 . S
C4108 H4084 0.950 . S
C4108 C4103 1.363 . S
C4108 C4107 1.415 . S
C4109 H4085 0.951 . S
C4109 C4110 1.366 . S
C4109 C4111 1.388 . S
C4110 C4109 1.366 . S
C4110 C4114 1.385 . S
C4111 H4086 0.951 . S
C4111 C4109 1.388 . S
C4111 C4112 1.366 . S
C4112 C4111 1.366 . S
C4112 C4113 1.414 . S
C4112 C4115 1.499 . S
C4113 H4087 0.950 . S
C4113 C4112 1.414 . S
C4113 C4114 1.374 . S
C4114 H4088 0.950 . S
C4114 C4110 1.385 . S
C4114 C4113 1.374 . S
C4115 C4112 1.499 . S
C4115 C4116 1.373 . S
C4115 C4117 1.389 . S
C4116 H4089 0.950 . S
C4116 C4102 1.377 . S
C4116 C4115 1.373 . S
C4117 C4101 1.377 . S
C4117 C4115 1.389 . S
C4117 C4118 1.524 . S
C4118 C4117 1.524 . S
C4118 C4119 1.397 . S
C4118 C4123 1.363 . S
C4119 H4090 0.950 . S
C4119 C4118 1.397 . S
C4119 C4120 1.334 . S
C4120 H4091 0.950 . S
C4120 C4119 1.334 . S
C4120 C4121 1.287 . S
C4121 C4120 1.287 . S
C4121 C4122 1.524 . S
C4121 H4124 0.999 . S
C4122 H4092 0.950 . S
C4122 C4121 1.524 . S
C4122 C4123 1.415 . S
C4123 H4093 0.950 . S
C4123 C4118 1.363 . S
C4123 C4122 1.415 . S
H4124 C4121 0.999 . S
H4125 C4106 0.913 . S
H4126 C4144 0.951 . S
H4127 C4146 0.951 . S
H4128 C4148 0.950 . S
H4129 C4149 0.950 . S
H4130 C4151 0.950 . S
H4131 C4154 0.950 . S
H4132 C4155 0.950 . S
H4133 C4157 0.950 . S
H4134 C4158 0.950 . S
H4135 C4159 0.951 . S
H4136 C4161 0.951 . S
H4137 C4163 0.950 . S
H4138 C4164 0.950 . S
H4139 C4166 0.950 . S
H4140 C4169 0.950 . S
H4141 C4170 0.950 . S
H4142 C4172 0.950 . S
H4143 C4173 0.950 . S
C4144 H4126 0.951 . S
C4144 C4145 1.366 . S
C4144 C4146 1.388 . S
C4145 C4144 1.366 . S
C4145 C4149 1.385 . S
C4146 H4127 0.951 . S
C4146 C4144 1.388 . S
C4146 C4147 1.366 . S
C4147 C4146 1.366 . S
C4147 C4148 1.414 . S
C4147 C4150 1.499 . S
C4148 H4128 0.950 . S
C4148 C4147 1.414 . S
C4148 C4149 1.374 . S
C4149 H4129 0.950 . S
C4149 C4145 1.385 . S
C4149 C4148 1.374 . S
C4150 C4147 1.499 . S
C4150 C4151 1.373 . S
C4150 C4152 1.389 . S
C4151 H4130 0.950 . S
C4151 C4150 1.373 . S
C4151 C4167 1.377 . S
C4152 C4150 1.389 . S
C4152 C4153 1.524 . S
C4152 C4166 1.377 . S
C4153 C4152 1.524 . S
C4153 C4154 1.397 . S
C4153 C4158 1.363 . S
C4154 H4131 0.950 . S
C4154 C4153 1.397 . S
C4154 C4155 1.334 . S
C4155 H4132 0.950 . S
C4155 C4154 1.334 . S
C4155 C4156 1.287 . S
C4156 C4155 1.287 . S
C4156 C4157 1.524 . S
C4156 H4175 0.913 . S
C4157 H4133 0.950 . S
C4157 C4156 1.524 . S
C4157 C4158 1.415 . S
C4158 H4134 0.950 . S
C4158 C4153 1.363 . S
C4158 C4157 1.415 . S
C4159 H4135 0.951 . S
C4159 C4160 1.366 . S
C4159 C4161 1.388 . S
C4160 C4159 1.366 . S
C4160 C4164 1.385 . S
C4161 H4136 0.951 . S
C4161 C4159 1.388 . S
C4161 C4162 1.366 . S
C4162 C4161 1.366 . S
C4162 C4163 1.414 . S
C4162 C4165 1.499 . S
C4163 H4137 0.950 . S
C4163 C4162 1.414 . S
C4163 C4164 1.374 . S
C4164 H4138 0.950 . S
C4164 C4160 1.385 . S
C4164 C4163 1.374 . S
C4165 C4162 1.499 . S
C4165 C4166 1.373 . S
C4165 C4167 1.389 . S
C4166 H4139 0.950 . S
C4166 C4152 1.377 . S
C4166 C4165 1.373 . S
C4167 C4151 1.377 . S
C4167 C4165 1.389 . S
C4167 C4168 1.524 . S
C4168 C4167 1.524 . S
C4168 C4169 1.397 . S
C4168 C4173 1.363 . S
C4169 H4140 0.950 . S
C4169 C4168 1.397 . S
C4169 C4170 1.334 . S
C4170 H4141 0.950 . S
C4170 C4169 1.334 . S
C4170 C4171 1.287 . S
C4171 C4170 1.287 . S
C4171 C4172 1.524 . S
C4171 H4174 0.999 . S
C4172 H4142 0.950 . S
C4172 C4171 1.524 . S
C4172 C4173 1.415 . S
C4173 H4143 0.950 . S
C4173 C4168 1.363 . S
C4173 C4172 1.415 . S
H4174 C4171 0.999 . S
H4175 C4156 0.913 . S
H4176 C4194 0.951 . S
H4177 C4196 0.951 . S
H4178 C4198 0.950 . S
H4179 C4199 0.950 . S
H4180 C4201 0.950 . S
H4181 C4204 0.950 . S
H4182 C4205 0.950 . S
H4183 C4207 0.950 . S
H4184 C4208 0.950 . S
H4185 C4209 0.951 . S
H4186 C4211 0.951 . S
H4187 C4213 0.950 . S
H4188 C4214 0.950 . S
H4189 C4216 0.950 . S
H4190 C4219 0.950 . S
H4191 C4220 0.950 . S
H4192 C4222 0.950 . S
H4193 C4223 0.950 . S
C4194 H4176 0.951 . S
C4194 C4195 1.366 . S
C4194 C4196 1.388 . S
C4195 C4194 1.366 . S
C4195 C4199 1.385 . S
C4196 H4177 0.951 . S
C4196 C4194 1.388 . S
C4196 C4197 1.366 . S
C4197 C4196 1.366 . S
C4197 C4198 1.414 . S
C4197 C4200 1.499 . S
C4198 H4178 0.950 . S
C4198 C4197 1.414 . S
C4198 C4199 1.374 . S
C4199 H4179 0.950 . S
C4199 C4195 1.385 . S
C4199 C4198 1.374 . S
C4200 C4197 1.499 . S
C4200 C4201 1.373 . S
C4200 C4202 1.389 . S
C4201 H4180 0.950 . S
C4201 C4200 1.373 . S
C4201 C4217 1.377 . S
C4202 C4200 1.389 . S
C4202 C4203 1.524 . S
C4202 C4216 1.377 . S
C4203 C4202 1.524 . S
C4203 C4204 1.397 . S
C4203 C4208 1.363 . S
C4204 H4181 0.950 . S
C4204 C4203 1.397 . S
C4204 C4205 1.334 . S
C4205 H4182 0.950 . S
C4205 C4204 1.334 . S
C4205 C4206 1.287 . S
C4206 C4205 1.287 . S
C4206 C4207 1.524 . S
C4206 H4225 0.913 . S
C4207 H4183 0.950 . S
C4207 C4206 1.524 . S
C4207 C4208 1.415 . S
C4208 H4184 0.950 . S
C4208 C4203 1.363 . S
C4208 C4207 1.415 . S
C4209 H4185 0.951 . S
C4209 C4210 1.366 . S
C4209 C4211 1.388 . S
C4210 C4209 1.366 . S
C4210 C4214 1.385 . S
C4211 H4186 0.951 . S
C4211 C4209 1.388 . S
C4211 C4212 1.366 . S
C4212 C4211 1.366 . S
C4212 C4213 1.414 . S
C4212 C4215 1.499 . S
C4213 H4187 0.950 . S
C4213 C4212 1.414 . S
C4213 C4214 1.374 . S
C4214 H4188 0.950 . S
C4214 C4210 1.385 . S
C4214 C4213 1.374 . S
C4215 C4212 1.499 . S
C4215 C4216 1.373 . S
C4215 C4217 1.389 . S
C4216 H4189 0.950 . S
C4216 C4202 1.377 . S
C4216 C4215 1.373 . S
C4217 C4201 1.377 . S
C4217 C4215 1.389 . S
C4217 C4218 1.524 . S
C4218 C4217 1.524 . S
C4218 C4219 1.397 . S
C4218 C4223 1.363 . S
C4219 H4190 0.950 . S
C4219 C4218 1.397 . S
C4219 C4220 1.334 . S
C4220 H4191 0.950 . S
C4220 C4219 1.334 . S
C4220 C4221 1.287 . S
C4221 C4220 1.287 . S
C4221 C4222 1.524 . S
C4221 H4224 0.999 . S
C4222 H4192 0.950 . S
C4222 C4221 1.524 . S
C4222 C4223 1.415 . S
C4223 H4193 0.950 . S
C4223 C4218 1.363 . S
C4223 C4222 1.415 . S
H4224 C4221 0.999 . S
H4225 C4206 0.913 . S
H4226 C4244 0.951 . S
H4227 C4246 0.951 . S
H4228 C4248 0.950 . S
H4229 C4249 0.950 . S
H4230 C4251 0.950 . S
H4231 C4254 0.950 . S
H4232 C4255 0.950 . S
H4233 C4257 0.950 . S
H4234 C4258 0.950 . S
H4235 C4259 0.951 . S
H4236 C4261 0.951 . S
H4237 C4263 0.950 . S
H4238 C4264 0.950 . S
H4239 C4266 0.950 . S
H4240 C4269 0.950 . S
H4241 C4270 0.950 . S
H4242 C4272 0.950 . S
H4243 C4273 0.950 . S
C4244 H4226 0.951 . S
C4244 C4245 1.366 . S
C4244 C4246 1.388 . S
C4245 C4244 1.366 . S
C4245 C4249 1.385 . S
C4246 H4227 0.951 . S
C4246 C4244 1.388 . S
C4246 C4247 1.366 . S
C4247 C4246 1.366 . S
C4247 C4248 1.414 . S
C4247 C4250 1.499 . S
C4248 H4228 0.950 . S
C4248 C4247 1.414 . S
C4248 C4249 1.374 . S
C4249 H4229 0.950 . S
C4249 C4245 1.385 . S
C4249 C4248 1.374 . S
C4250 C4247 1.499 . S
C4250 C4251 1.373 . S
C4250 C4252 1.389 . S
C4251 H4230 0.950 . S
C4251 C4250 1.373 . S
C4251 C4267 1.377 . S
C4252 C4250 1.389 . S
C4252 C4253 1.524 . S
C4252 C4266 1.377 . S
C4253 C4252 1.524 . S
C4253 C4254 1.397 . S
C4253 C4258 1.363 . S
C4254 H4231 0.950 . S
C4254 C4253 1.397 . S
C4254 C4255 1.334 . S
C4255 H4232 0.950 . S
C4255 C4254 1.334 . S
C4255 C4256 1.287 . S
C4256 C4255 1.287 . S
C4256 C4257 1.524 . S
C4256 H4275 0.913 . S
C4257 H4233 0.950 . S
C4257 C4256 1.524 . S
C4257 C4258 1.415 . S
C4258 H4234 0.950 . S
C4258 C4253 1.363 . S
C4258 C4257 1.415 . S
C4259 H4235 0.951 . S
C4259 C4260 1.366 . S
C4259 C4261 1.388 . S
C4260 C4259 1.366 . S
C4260 C4264 1.385 . S
C4261 H4236 0.951 . S
C4261 C4259 1.388 . S
C4261 C4262 1.366 . S
C4262 C4261 1.366 . S
C4262 C4263 1.414 . S
C4262 C4265 1.499 . S
C4263 H4237 0.950 . S
C4263 C4262 1.414 . S
C4263 C4264 1.374 . S
C4264 H4238 0.950 . S
C4264 C4260 1.385 . S
C4264 C4263 1.374 . S
C4265 C4262 1.499 . S
C4265 C4266 1.373 . S
C4265 C4267 1.389 . S
C4266 H4239 0.950 . S
C4266 C4252 1.377 . S
C4266 C4265 1.373 . S
C4267 C4251 1.377 . S
C4267 C4265 1.389 . S
C4267 C4268 1.524 . S
C4268 C4267 1.524 . S
C4268 C4269 1.397 . S
C4268 C4273 1.363 . S
C4269 H4240 0.950 . S
C4269 C4268 1.397 . S
C4269 C4270 1.334 . S
C4270 H4241 0.950 . S
C4270 C4269 1.334 . S
C4270 C4271 1.287 . S
C4271 C4270 1.287 . S
C4271 C4272 1.524 . S
C4271 H4274 0.999 . S
C4272 H4242 0.950 . S
C4272 C4271 1.524 . S
C4272 C4273 1.415 . S
C4273 H4243 0.950 . S
C4273 C4268 1.363 . S
C4273 C4272 1.415 . S
H4274 C4271 0.999 . S
H4275 C4256 0.913 . S
H4276 C4294 0.951 1_545 S
H4277 C4296 0.951 . S
H4278 C4298 0.950 . S
H4279 C4299 0.950 . S
H4280 C4301 0.950 . S
H4281 C4304 0.950 . S
H4282 C4305 0.950 . S
H4283 C4307 0.950 . S
H4284 C4308 0.950 . S
H4285 C4309 0.951 . S
H4286 C4311 0.951 . S
H4287 C4313 0.950 . S
H4288 C4314 0.950 . S
H4289 C4316 0.950 . S
H4290 C4319 0.950 . S
H4291 C4320 0.950 . S
H4292 C4322 0.950 . S
H4293 C4323 0.950 . S
C4294 H4276 0.951 1_565 S
C4294 C4295 1.366 . S
C4294 C4296 1.388 . S
C4295 C4294 1.366 . S
C4295 C4299 1.385 . S
C4296 H4277 0.951 . S
C4296 C4294 1.388 . S
C4296 C4297 1.366 . S
C4297 C4296 1.366 . S
C4297 C4298 1.414 . S
C4297 C4300 1.499 . S
C4298 H4278 0.950 . S
C4298 C4297 1.414 . S
C4298 C4299 1.374 . S
C4299 H4279 0.950 . S
C4299 C4295 1.385 . S
C4299 C4298 1.374 . S
C4300 C4297 1.499 . S
C4300 C4301 1.373 . S
C4300 C4302 1.389 . S
C4301 H4280 0.950 . S
C4301 C4300 1.373 . S
C4301 C4317 1.377 . S
C4302 C4300 1.389 . S
C4302 C4303 1.524 . S
C4302 C4316 1.377 . S
C4303 C4302 1.524 . S
C4303 C4304 1.397 . S
C4303 C4308 1.363 . S
C4304 H4281 0.950 . S
C4304 C4303 1.397 . S
C4304 C4305 1.334 . S
C4305 H4282 0.950 . S
C4305 C4304 1.334 . S
C4305 C4306 1.287 . S
C4306 C4305 1.287 . S
C4306 C4307 1.524 . S
C4306 H4325 0.913 . S
C4307 H4283 0.950 . S
C4307 C4306 1.524 . S
C4307 C4308 1.415 . S
C4308 H4284 0.950 . S
C4308 C4303 1.363 . S
C4308 C4307 1.415 . S
C4309 H4285 0.951 . S
C4309 C4310 1.366 . S
C4309 C4311 1.388 . S
C4310 C4309 1.366 . S
C4310 C4314 1.385 . S
C4311 H4286 0.951 . S
C4311 C4309 1.388 . S
C4311 C4312 1.366 . S
C4312 C4311 1.366 . S
C4312 C4313 1.414 . S
C4312 C4315 1.499 . S
C4313 H4287 0.950 . S
C4313 C4312 1.414 . S
C4313 C4314 1.374 . S
C4314 H4288 0.950 . S
C4314 C4310 1.385 . S
C4314 C4313 1.374 . S
C4315 C4312 1.499 . S
C4315 C4316 1.373 . S
C4315 C4317 1.389 . S
C4316 H4289 0.950 . S
C4316 C4302 1.377 . S
C4316 C4315 1.373 . S
C4317 C4301 1.377 . S
C4317 C4315 1.389 . S
C4317 C4318 1.524 . S
C4318 C4317 1.524 . S
C4318 C4319 1.397 . S
C4318 C4323 1.363 . S
C4319 H4290 0.950 . S
C4319 C4318 1.397 . S
C4319 C4320 1.334 . S
C4320 H4291 0.950 . S
C4320 C4319 1.334 . S
C4320 C4321 1.287 . S
C4321 C4320 1.287 . S
C4321 C4322 1.524 . S
C4321 H4324 0.999 . S
C4322 H4292 0.950 . S
C4322 C4321 1.524 . S
C4322 C4323 1.415 . S
C4323 H4293 0.950 . S
C4323 C4318 1.363 . S
C4323 C4322 1.415 . S
H4324 C4321 0.999 . S
H4325 C4306 0.913 . S
H4326 C4344 0.951 . S
H4327 C4346 0.951 . S
H4328 C4348 0.936 1_556 S
H4329 C4349 0.958 . S
H4330 C4351 0.950 . S
H4331 C4354 0.950 . S
H4332 C4355 0.950 . S
H4333 C4357 0.950 . S
H4334 C4358 0.950 . S
H4335 C4359 0.951 . S
H4336 C4361 0.951 . S
H4337 C4363 0.950 . S
H4338 C4364 0.950 . S
H4339 C4366 0.950 . S
H4340 C4369 0.950 . S
H4341 C4370 0.950 . S
H4342 C4372 0.950 . S
H4343 C4373 0.950 1_545 S
C4344 H4326 0.951 . S
C4344 C4345 1.366 . S
C4344 C4346 1.388 . S
C4345 C4344 1.366 . S
C4345 C4349 1.376 1_554 S
C4346 H4327 0.951 . S
C4346 C4344 1.388 . S
C4346 C4347 1.366 . S
C4347 C4346 1.366 . S
C4347 C4348 1.414 . S
C4347 C4350 1.499 . S
C4348 H4328 0.936 1_554 S
C4348 C4347 1.414 . S
C4348 C4349 1.375 1_554 S
C4349 H4329 0.958 . S
C4349 C4345 1.376 1_556 S
C4349 C4348 1.375 1_556 S
C4350 C4347 1.499 . S
C4350 C4351 1.373 1_554 S
C4350 C4352 1.389 . S
C4351 H4330 0.950 . S
C4351 C4350 1.373 1_556 S
C4351 C4367 1.377 . S
C4352 C4350 1.389 . S
C4352 C4353 1.524 . S
C4352 C4366 1.377 . S
C4353 C4352 1.524 . S
C4353 C4354 1.397 . S
C4353 C4358 1.363 . S
C4354 H4331 0.950 . S
C4354 C4353 1.397 . S
C4354 C4355 1.334 . S
C4355 H4332 0.950 . S
C4355 C4354 1.334 . S
C4355 C4356 1.287 . S
C4356 C4355 1.287 . S
C4356 C4357 1.524 . S
C4356 H4375 0.913 . S
C4357 H4333 0.950 . S
C4357 C4356 1.524 . S
C4357 C4358 1.415 . S
C4358 H4334 0.950 . S
C4358 C4353 1.363 . S
C4358 C4357 1.415 . S
C4359 H4335 0.951 . S
C4359 C4360 1.366 . S
C4359 C4361 1.388 . S
C4360 C4359 1.366 . S
C4360 C4364 1.385 1_545 S
C4361 H4336 0.951 . S
C4361 C4359 1.388 . S
C4361 C4362 1.366 1_545 S
C4362 C4361 1.366 1_565 S
C4362 C4363 1.414 . S
C4362 C4365 1.499 . S
C4363 H4337 0.950 . S
C4363 C4362 1.414 . S
C4363 C4364 1.374 . S
C4364 H4338 0.950 . S
C4364 C4360 1.385 1_565 S
C4364 C4363 1.374 . S
C4365 C4362 1.499 . S
C4365 C4366 1.373 . S
C4365 C4367 1.389 1_554 S
C4366 H4339 0.950 . S
C4366 C4352 1.377 . S
C4366 C4365 1.373 . S
C4367 C4351 1.377 . S
C4367 C4365 1.389 1_556 S
C4367 C4368 1.524 . S
C4368 C4367 1.524 . S
C4368 C4369 1.397 . S
C4368 C4373 1.363 . S
C4369 H4340 0.950 . S
C4369 C4368 1.397 . S
C4369 C4370 1.334 . S
C4370 H4341 0.950 . S
C4370 C4369 1.334 . S
C4370 C4371 1.302 . S
C4371 C4370 1.302 . S
C4371 C4372 1.515 1_565 S
C4371 H4374 0.991 1_565 S
C4372 H4342 0.950 . S
C4372 C4371 1.515 1_545 S
C4372 C4373 1.415 1_545 S
C4373 H4343 0.950 1_565 S
C4373 C4368 1.363 . S
C4373 C4372 1.415 1_565 S
H4374 C4371 0.991 1_545 S
H4375 C4356 0.913 . S
H4376 C4394 0.951 . S
H4377 C4396 0.951 . S
H4378 C4398 0.950 . S
H4379 C4399 0.950 . S
H4380 C4401 0.950 . S
H4381 C4404 0.950 . S
H4382 C4405 0.950 . S
H4383 C4407 0.950 . S
H4384 C4408 0.950 . S
H4385 C4409 0.951 . S
H4386 C4411 0.951 . S
H4387 C4413 0.950 . S
H4388 C4414 0.950 . S
H4389 C4416 0.950 . S
H4390 C4419 0.950 . S
H4391 C4420 0.950 . S
H4392 C4422 0.950 . S
H4393 C4423 0.950 . S
C4394 H4376 0.951 . S
C4394 C4395 1.366 . S
C4394 C4396 1.388 . S
C4395 C4394 1.366 . S
C4395 C4399 1.385 . S
C4396 H4377 0.951 . S
C4396 C4394 1.388 . S
C4396 C4397 1.366 . S
C4397 C4396 1.366 . S
C4397 C4398 1.414 . S
C4397 C4400 1.499 . S
C4398 H4378 0.950 . S
C4398 C4397 1.414 . S
C4398 C4399 1.374 . S
C4399 H4379 0.950 . S
C4399 C4395 1.385 . S
C4399 C4398 1.374 . S
C4400 C4397 1.499 . S
C4400 C4401 1.373 . S
C4400 C4402 1.389 . S
C4401 H4380 0.950 . S
C4401 C4400 1.373 . S
C4401 C4417 1.377 . S
C4402 C4400 1.389 . S
C4402 C4403 1.524 . S
C4402 C4416 1.377 . S
C4403 C4402 1.524 . S
C4403 C4404 1.397 . S
C4403 C4408 1.363 . S
C4404 H4381 0.950 . S
C4404 C4403 1.397 . S
C4404 C4405 1.334 . S
C4405 H4382 0.950 . S
C4405 C4404 1.334 . S
C4405 C4406 1.287 . S
C4406 C4405 1.287 . S
C4406 C4407 1.524 . S
C4406 H4425 0.913 . S
C4407 H4383 0.950 . S
C4407 C4406 1.524 . S
C4407 C4408 1.415 . S
C4408 H4384 0.950 . S
C4408 C4403 1.363 . S
C4408 C4407 1.415 . S
C4409 H4385 0.951 . S
C4409 C4410 1.366 . S
C4409 C4411 1.388 . S
C4410 C4409 1.366 . S
C4410 C4414 1.385 . S
C4411 H4386 0.951 . S
C4411 C4409 1.388 . S
C4411 C4412 1.366 . S
C4412 C4411 1.366 . S
C4412 C4413 1.414 . S
C4412 C4415 1.499 . S
C4413 H4387 0.950 . S
C4413 C4412 1.414 . S
C4413 C4414 1.374 . S
C4414 H4388 0.950 . S
C4414 C4410 1.385 . S
C4414 C4413 1.374 . S
C4415 C4412 1.499 . S
C4415 C4416 1.373 . S
C4415 C4417 1.389 . S
C4416 H4389 0.950 . S
C4416 C4402 1.377 . S
C4416 C4415 1.373 . S
C4417 C4401 1.377 . S
C4417 C4415 1.389 . S
C4417 C4418 1.524 . S
C4418 C4417 1.524 . S
C4418 C4419 1.397 . S
C4418 C4423 1.363 . S
C4419 H4390 0.950 . S
C4419 C4418 1.397 . S
C4419 C4420 1.334 . S
C4420 H4391 0.950 . S
C4420 C4419 1.334 . S
C4420 C4421 1.287 . S
C4421 C4420 1.287 . S
C4421 C4422 1.524 . S
C4421 H4424 0.999 . S
C4422 H4392 0.950 . S
C4422 C4421 1.524 . S
C4422 C4423 1.415 . S
C4423 H4393 0.950 . S
C4423 C4418 1.363 . S
C4423 C4422 1.415 . S
H4424 C4421 0.999 . S
H4425 C4406 0.913 . S
H4426 C4444 0.951 . S
H4427 C4446 0.951 . S
H4428 C4448 0.950 . S
H4429 C4449 0.950 . S
H4430 C4451 0.950 . S
H4431 C4454 0.950 . S
H4432 C4455 0.950 . S
H4433 C4457 0.950 . S
H4434 C4458 0.950 . S
H4435 C4459 0.951 . S
H4436 C4461 0.951 . S
H4437 C4463 0.950 . S
H4438 C4464 0.950 . S
H4439 C4466 0.950 . S
H4440 C4469 0.937 1_554 S
H4441 C4470 0.950 . S
H4442 C4472 0.950 . S
H4443 C4473 0.950 . S
C4444 H4426 0.951 . S
C4444 C4445 1.366 . S
C4444 C4446 1.388 . S
C4445 C4444 1.366 . S
C4445 C4449 1.385 . S
C4446 H4427 0.951 . S
C4446 C4444 1.388 . S
C4446 C4447 1.366 . S
C4447 C4446 1.366 . S
C4447 C4448 1.414 . S
C4447 C4450 1.499 . S
C4448 H4428 0.950 . S
C4448 C4447 1.414 . S
C4448 C4449 1.374 . S
C4449 H4429 0.950 . S
C4449 C4445 1.385 . S
C4449 C4448 1.374 . S
C4450 C4447 1.499 . S
C4450 C4451 1.373 . S
C4450 C4452 1.389 . S
C4451 H4430 0.950 . S
C4451 C4450 1.373 . S
C4451 C4467 1.377 . S
C4452 C4450 1.389 . S
C4452 C4453 1.524 . S
C4452 C4466 1.377 . S
C4453 C4452 1.524 . S
C4453 C4454 1.397 . S
C4453 C4458 1.363 . S
C4454 H4431 0.950 . S
C4454 C4453 1.397 . S
C4454 C4455 1.334 . S
C4455 H4432 0.950 . S
C4455 C4454 1.334 . S
C4455 C4456 1.287 . S
C4456 C4455 1.287 . S
C4456 C4457 1.524 . S
C4456 H4475 0.913 . S
C4457 H4433 0.950 . S
C4457 C4456 1.524 . S
C4457 C4458 1.415 . S
C4458 H4434 0.950 . S
C4458 C4453 1.363 . S
C4458 C4457 1.415 . S
C4459 H4435 0.951 . S
C4459 C4460 1.366 . S
C4459 C4461 1.388 . S
C4460 C4459 1.366 . S
C4460 C4464 1.385 . S
C4461 H4436 0.951 . S
C4461 C4459 1.388 . S
C4461 C4462 1.366 . S
C4462 C4461 1.366 . S
C4462 C4463 1.414 . S
C4462 C4465 1.499 . S
C4463 H4437 0.950 . S
C4463 C4462 1.414 . S
C4463 C4464 1.374 . S
C4464 H4438 0.950 . S
C4464 C4460 1.385 . S
C4464 C4463 1.374 . S
C4465 C4462 1.499 . S
C4465 C4466 1.373 . S
C4465 C4467 1.389 . S
C4466 H4439 0.950 . S
C4466 C4452 1.377 . S
C4466 C4465 1.373 . S
C4467 C4451 1.377 . S
C4467 C4465 1.389 . S
C4467 C4468 1.524 . S
C4468 C4467 1.524 . S
C4468 C4469 1.398 1_554 S
C4468 C4473 1.363 . S
C4469 H4440 0.937 1_556 S
C4469 C4468 1.398 1_556 S
C4469 C4470 1.332 . S
C4470 H4441 0.950 . S
C4470 C4469 1.332 . S
C4470 C4471 1.287 . S
C4471 C4470 1.287 . S
C4471 C4472 1.524 . S
C4471 H4474 0.999 . S
C4472 H4442 0.950 . S
C4472 C4471 1.524 . S
C4472 C4473 1.415 1_556 S
C4473 H4443 0.950 . S
C4473 C4468 1.363 . S
C4473 C4472 1.415 1_554 S
H4474 C4471 0.999 . S
H4475 C4456 0.913 . S
H4476 C4494 0.951 . S
H4477 C4496 0.951 . S
H4478 C4498 0.950 . S
H4479 C4499 0.950 . S
H4480 C4501 0.950 . S
H4481 C4504 0.950 . S
H4482 C4505 0.950 . S
H4483 C4507 0.950 . S
H4484 C4508 0.950 . S
H4485 C4509 0.951 . S
H4486 C4511 0.951 . S
H4487 C4513 0.950 . S
H4488 C4514 0.950 . S
H4489 C4516 0.950 . S
H4490 C4519 0.950 . S
H4491 C4520 0.950 . S
H4492 C4522 0.950 . S
H4493 C4523 0.950 . S
C4494 H4476 0.951 . S
C4494 C4495 1.366 . S
C4494 C4496 1.388 . S
C4495 C4494 1.366 . S
C4495 C4499 1.385 . S
C4496 H4477 0.951 . S
C4496 C4494 1.388 . S
C4496 C4497 1.366 . S
C4497 C4496 1.366 . S
C4497 C4498 1.414 . S
C4497 C4500 1.499 . S
C4498 H4478 0.950 . S
C4498 C4497 1.414 . S
C4498 C4499 1.374 . S
C4499 H4479 0.950 . S
C4499 C4495 1.385 . S
C4499 C4498 1.374 . S
C4500 C4497 1.499 . S
C4500 C4501 1.373 . S
C4500 C4502 1.389 . S
C4501 H4480 0.950 . S
C4501 C4500 1.373 . S
C4501 C4517 1.377 . S
C4502 C4500 1.389 . S
C4502 C4503 1.524 . S
C4502 C4516 1.377 . S
C4503 C4502 1.524 . S
C4503 C4504 1.397 . S
C4503 C4508 1.363 . S
C4504 H4481 0.950 . S
C4504 C4503 1.397 . S
C4504 C4505 1.334 . S
C4505 H4482 0.950 . S
C4505 C4504 1.334 . S
C4505 C4506 1.287 . S
C4506 C4505 1.287 . S
C4506 C4507 1.524 . S
C4506 H4525 0.913 . S
C4507 H4483 0.950 . S
C4507 C4506 1.524 . S
C4507 C4508 1.415 . S
C4508 H4484 0.950 . S
C4508 C4503 1.363 . S
C4508 C4507 1.415 . S
C4509 H4485 0.951 . S
C4509 C4510 1.366 . S
C4509 C4511 1.388 . S
C4510 C4509 1.366 . S
C4510 C4514 1.385 . S
C4511 H4486 0.951 . S
C4511 C4509 1.388 . S
C4511 C4512 1.366 . S
C4512 C4511 1.366 . S
C4512 C4513 1.414 . S
C4512 C4515 1.499 . S
C4513 H4487 0.950 . S
C4513 C4512 1.414 . S
C4513 C4514 1.374 . S
C4514 H4488 0.950 . S
C4514 C4510 1.385 . S
C4514 C4513 1.374 . S
C4515 C4512 1.499 . S
C4515 C4516 1.373 . S
C4515 C4517 1.389 . S
C4516 H4489 0.950 . S
C4516 C4502 1.377 . S
C4516 C4515 1.373 . S
C4517 C4501 1.377 . S
C4517 C4515 1.389 . S
C4517 C4518 1.524 . S
C4518 C4517 1.524 . S
C4518 C4519 1.397 . S
C4518 C4523 1.363 . S
C4519 H4490 0.950 . S
C4519 C4518 1.397 . S
C4519 C4520 1.334 . S
C4520 H4491 0.950 . S
C4520 C4519 1.334 . S
C4520 C4521 1.287 . S
C4521 C4520 1.287 . S
C4521 C4522 1.524 . S
C4521 H4524 0.999 . S
C4522 H4492 0.950 . S
C4522 C4521 1.524 . S
C4522 C4523 1.415 . S
C4523 H4493 0.950 . S
C4523 C4518 1.363 . S
C4523 C4522 1.415 . S
H4524 C4521 0.999 . S
H4525 C4506 0.913 . S
H4526 C4544 0.951 . S
H4527 C4546 0.951 . S
H4528 C4548 0.950 . S
H4529 C4549 0.950 . S
H4530 C4551 0.950 . S
H4531 C4554 0.950 . S
H4532 C4555 0.950 . S
H4533 C4557 0.950 . S
H4534 C4558 0.950 . S
H4535 C4559 0.951 . S
H4536 C4561 0.951 . S
H4537 C4563 0.950 . S
H4538 C4564 0.950 . S
H4539 C4566 0.950 . S
H4540 C4569 0.950 . S
H4541 C4570 0.950 . S
H4542 C4572 0.950 . S
H4543 C4573 0.950 . S
C4544 H4526 0.951 . S
C4544 C4545 1.366 . S
C4544 C4546 1.388 . S
C4545 C4544 1.366 . S
C4545 C4549 1.385 . S
C4546 H4527 0.951 . S
C4546 C4544 1.388 . S
C4546 C4547 1.366 . S
C4547 C4546 1.366 . S
C4547 C4548 1.414 . S
C4547 C4550 1.499 . S
C4548 H4528 0.950 . S
C4548 C4547 1.414 . S
C4548 C4549 1.374 . S
C4549 H4529 0.950 . S
C4549 C4545 1.385 . S
C4549 C4548 1.374 . S
C4550 C4547 1.499 . S
C4550 C4551 1.373 . S
C4550 C4552 1.389 . S
C4551 H4530 0.950 . S
C4551 C4550 1.373 . S
C4551 C4567 1.377 . S
C4552 C4550 1.389 . S
C4552 C4553 1.524 . S
C4552 C4566 1.377 . S
C4553 C4552 1.524 . S
C4553 C4554 1.397 . S
C4553 C4558 1.363 . S
C4554 H4531 0.950 . S
C4554 C4553 1.397 . S
C4554 C4555 1.334 . S
C4555 H4532 0.950 . S
C4555 C4554 1.334 . S
C4555 C4556 1.287 . S
C4556 C4555 1.287 . S
C4556 C4557 1.524 . S
C4556 H4575 0.913 . S
C4557 H4533 0.950 . S
C4557 C4556 1.524 . S
C4557 C4558 1.415 . S
C4558 H4534 0.950 . S
C4558 C4553 1.363 . S
C4558 C4557 1.415 . S
C4559 H4535 0.951 . S
C4559 C4560 1.366 . S
C4559 C4561 1.388 . S
C4560 C4559 1.366 . S
C4560 C4564 1.385 . S
C4561 H4536 0.951 . S
C4561 C4559 1.388 . S
C4561 C4562 1.366 . S
C4562 C4561 1.366 . S
C4562 C4563 1.414 . S
C4562 C4565 1.499 . S
C4563 H4537 0.950 . S
C4563 C4562 1.414 . S
C4563 C4564 1.374 . S
C4564 H4538 0.950 . S
C4564 C4560 1.385 . S
C4564 C4563 1.374 . S
C4565 C4562 1.499 . S
C4565 C4566 1.373 . S
C4565 C4567 1.389 . S
C4566 H4539 0.950 . S
C4566 C4552 1.377 . S
C4566 C4565 1.373 . S
C4567 C4551 1.377 . S
C4567 C4565 1.389 . S
C4567 C4568 1.524 . S
C4568 C4567 1.524 . S
C4568 C4569 1.397 . S
C4568 C4573 1.363 . S
C4569 H4540 0.950 . S
C4569 C4568 1.397 . S
C4569 C4570 1.334 . S
C4570 H4541 0.950 . S
C4570 C4569 1.334 . S
C4570 C4571 1.287 . S
C4571 C4570 1.287 . S
C4571 C4572 1.524 . S
C4571 H4574 0.999 . S
C4572 H4542 0.950 . S
C4572 C4571 1.524 . S
C4572 C4573 1.415 . S
C4573 H4543 0.950 . S
C4573 C4568 1.363 . S
C4573 C4572 1.415 . S
H4574 C4571 0.999 . S
H4575 C4556 0.913 . S
H4576 C4594 0.951 . S
H4577 C4596 0.951 . S
H4578 C4598 0.950 . S
H4579 C4599 0.950 . S
H4580 C4601 0.950 . S
H4581 C4604 0.950 . S
H4582 C4605 0.950 . S
H4583 C4607 0.950 . S
H4584 C4608 0.950 . S
H4585 C4609 0.951 . S
H4586 C4611 0.951 . S
H4587 C4613 0.950 . S
H4588 C4614 0.950 . S
H4589 C4616 0.950 . S
H4590 C4619 0.950 . S
H4591 C4620 0.950 . S
H4592 C4622 0.950 . S
H4593 C4623 0.950 . S
C4594 H4576 0.951 . S
C4594 C4595 1.366 . S
C4594 C4596 1.388 . S
C4595 C4594 1.366 . S
C4595 C4599 1.385 . S
C4596 H4577 0.951 . S
C4596 C4594 1.388 . S
C4596 C4597 1.366 . S
C4597 C4596 1.366 . S
C4597 C4598 1.414 . S
C4597 C4600 1.499 . S
C4598 H4578 0.950 . S
C4598 C4597 1.414 . S
C4598 C4599 1.374 . S
C4599 H4579 0.950 . S
C4599 C4595 1.385 . S
C4599 C4598 1.374 . S
C4600 C4597 1.499 . S
C4600 C4601 1.373 . S
C4600 C4602 1.389 . S
C4601 H4580 0.950 . S
C4601 C4600 1.373 . S
C4601 C4617 1.377 . S
C4602 C4600 1.389 . S
C4602 C4603 1.524 . S
C4602 C4616 1.377 . S
C4603 C4602 1.524 . S
C4603 C4604 1.397 . S
C4603 C4608 1.363 . S
C4604 H4581 0.950 . S
C4604 C4603 1.397 . S
C4604 C4605 1.334 . S
C4605 H4582 0.950 . S
C4605 C4604 1.334 . S
C4605 C4606 1.287 . S
C4606 C4605 1.287 . S
C4606 C4607 1.524 . S
C4606 H4625 0.913 . S
C4607 H4583 0.950 . S
C4607 C4606 1.524 . S
C4607 C4608 1.415 . S
C4608 H4584 0.950 . S
C4608 C4603 1.363 . S
C4608 C4607 1.415 . S
C4609 H4585 0.951 . S
C4609 C4610 1.366 . S
C4609 C4611 1.388 . S
C4610 C4609 1.366 . S
C4610 C4614 1.385 . S
C4611 H4586 0.951 . S
C4611 C4609 1.388 . S
C4611 C4612 1.366 . S
C4612 C4611 1.366 . S
C4612 C4613 1.414 . S
C4612 C4615 1.499 . S
C4613 H4587 0.950 . S
C4613 C4612 1.414 . S
C4613 C4614 1.374 . S
C4614 H4588 0.950 . S
C4614 C4610 1.385 . S
C4614 C4613 1.374 . S
C4615 C4612 1.499 . S
C4615 C4616 1.373 . S
C4615 C4617 1.389 . S
C4616 H4589 0.950 . S
C4616 C4602 1.377 . S
C4616 C4615 1.373 . S
C4617 C4601 1.377 . S
C4617 C4615 1.389 . S
C4617 C4618 1.524 . S
C4618 C4617 1.524 . S
C4618 C4619 1.397 . S
C4618 C4623 1.363 . S
C4619 H4590 0.950 . S
C4619 C4618 1.397 . S
C4619 C4620 1.334 . S
C4620 H4591 0.950 . S
C4620 C4619 1.334 . S
C4620 C4621 1.287 . S
C4621 C4620 1.287 . S
C4621 C4622 1.524 . S
C4621 H4624 0.999 . S
C4622 H4592 0.950 . S
C4622 C4621 1.524 . S
C4622 C4623 1.415 . S
C4623 H4593 0.950 . S
C4623 C4618 1.363 . S
C4623 C4622 1.415 . S
H4624 C4621 0.999 . S
H4625 C4606 0.913 . S
H4626 C4644 0.951 . S
H4627 C4646 0.951 . S
H4628 C4648 0.950 . S
H4629 C4649 0.950 . S
H4630 C4651 0.950 . S
H4631 C4654 0.950 . S
H4632 C4655 0.950 . S
H4633 C4657 0.950 . S
H4634 C4658 0.950 . S
H4635 C4659 0.951 . S
H4636 C4661 0.951 . S
H4637 C4663 0.950 . S
H4638 C4664 0.950 . S
H4639 C4666 0.950 . S
H4640 C4669 0.950 . S
H4641 C4670 0.950 . S
H4642 C4672 0.950 . S
H4643 C4673 0.950 . S
C4644 H4626 0.951 . S
C4644 C4645 1.366 . S
C4644 C4646 1.388 . S
C4645 C4644 1.366 . S
C4645 C4649 1.385 . S
C4646 H4627 0.951 . S
C4646 C4644 1.388 . S
C4646 C4647 1.366 . S
C4647 C4646 1.366 . S
C4647 C4648 1.414 . S
C4647 C4650 1.499 . S
C4648 H4628 0.950 . S
C4648 C4647 1.414 . S
C4648 C4649 1.374 . S
C4649 H4629 0.950 . S
C4649 C4645 1.385 . S
C4649 C4648 1.374 . S
C4650 C4647 1.499 . S
C4650 C4651 1.373 . S
C4650 C4652 1.389 . S
C4651 H4630 0.950 . S
C4651 C4650 1.373 . S
C4651 C4667 1.377 . S
C4652 C4650 1.389 . S
C4652 C4653 1.524 . S
C4652 C4666 1.377 . S
C4653 C4652 1.524 . S
C4653 C4654 1.397 . S
C4653 C4658 1.363 . S
C4654 H4631 0.950 . S
C4654 C4653 1.397 . S
C4654 C4655 1.334 . S
C4655 H4632 0.950 . S
C4655 C4654 1.334 . S
C4655 C4656 1.287 . S
C4656 C4655 1.287 . S
C4656 C4657 1.524 . S
C4656 H4675 0.913 . S
C4657 H4633 0.950 . S
C4657 C4656 1.524 . S
C4657 C4658 1.415 . S
C4658 H4634 0.950 . S
C4658 C4653 1.363 . S
C4658 C4657 1.415 . S
C4659 H4635 0.951 . S
C4659 C4660 1.366 . S
C4659 C4661 1.388 . S
C4660 C4659 1.366 . S
C4660 C4664 1.385 . S
C4661 H4636 0.951 . S
C4661 C4659 1.388 . S
C4661 C4662 1.366 . S
C4662 C4661 1.366 . S
C4662 C4663 1.414 . S
C4662 C4665 1.499 . S
C4663 H4637 0.950 . S
C4663 C4662 1.414 . S
C4663 C4664 1.374 . S
C4664 H4638 0.950 . S
C4664 C4660 1.385 . S
C4664 C4663 1.374 . S
C4665 C4662 1.499 . S
C4665 C4666 1.373 . S
C4665 C4667 1.389 . S
C4666 H4639 0.950 . S
C4666 C4652 1.377 . S
C4666 C4665 1.373 . S
C4667 C4651 1.377 . S
C4667 C4665 1.389 . S
C4667 C4668 1.524 . S
C4668 C4667 1.524 . S
C4668 C4669 1.397 . S
C4668 C4673 1.363 . S
C4669 H4640 0.950 . S
C4669 C4668 1.397 . S
C4669 C4670 1.334 . S
C4670 H4641 0.950 . S
C4670 C4669 1.334 . S
C4670 C4671 1.287 . S
C4671 C4670 1.287 . S
C4671 C4672 1.524 . S
C4671 H4674 0.999 . S
C4672 H4642 0.950 . S
C4672 C4671 1.524 . S
C4672 C4673 1.415 . S
C4673 H4643 0.950 . S
C4673 C4668 1.363 . S
C4673 C4672 1.415 . S
H4674 C4671 0.999 . S
H4675 C4656 0.913 . S
H4676 C4694 0.951 . S
H4677 C4696 0.951 . S
H4678 C4698 0.950 . S
H4679 C4699 0.950 . S
H4680 C4701 0.950 . S
H4681 C4704 0.950 . S
H4682 C4705 0.950 . S
H4683 C4707 0.950 . S
H4684 C4708 0.950 1_655 S
H4685 C4709 0.951 . S
H4686 C4711 0.951 . S
H4687 C4713 0.950 . S
H4688 C4714 0.950 . S
H4689 C4716 0.950 . S
H4690 C4719 0.950 . S
H4691 C4720 0.950 . S
H4692 C4722 0.932 1_556 S
H4693 C4723 0.950 . S
C4694 H4676 0.951 . S
C4694 C4695 1.366 . S
C4694 C4696 1.388 . S
C4695 C4694 1.366 . S
C4695 C4699 1.385 . S
C4696 H4677 0.951 . S
C4696 C4694 1.388 . S
C4696 C4697 1.366 . S
C4697 C4696 1.366 . S
C4697 C4698 1.414 . S
C4697 C4700 1.499 . S
C4698 H4678 0.950 . S
C4698 C4697 1.414 . S
C4698 C4699 1.374 . S
C4699 H4679 0.950 . S
C4699 C4695 1.385 . S
C4699 C4698 1.374 . S
C4700 C4697 1.499 . S
C4700 C4701 1.373 . S
C4700 C4702 1.389 . S
C4701 H4680 0.950 . S
C4701 C4700 1.373 . S
C4701 C4717 1.377 . S
C4702 C4700 1.389 . S
C4702 C4703 1.524 . S
C4702 C4716 1.377 . S
C4703 C4702 1.524 . S
C4703 C4704 1.397 . S
C4703 C4708 1.363 . S
C4704 H4681 0.950 . S
C4704 C4703 1.397 . S
C4704 C4705 1.334 . S
C4705 H4682 0.950 . S
C4705 C4704 1.334 . S
C4705 C4706 1.287 . S
C4706 C4705 1.287 . S
C4706 C4707 1.524 1_455 S
C4706 H4725 0.913 . S
C4707 H4683 0.950 . S
C4707 C4706 1.524 1_655 S
C4707 C4708 1.415 1_655 S
C4708 H4684 0.950 1_455 S
C4708 C4703 1.363 . S
C4708 C4707 1.415 1_455 S
C4709 H4685 0.951 . S
C4709 C4710 1.366 . S
C4709 C4711 1.388 . S
C4710 C4709 1.366 . S
C4710 C4714 1.385 . S
C4711 H4686 0.951 . S
C4711 C4709 1.388 . S
C4711 C4712 1.366 . S
C4712 C4711 1.366 . S
C4712 C4713 1.414 . S
C4712 C4715 1.499 . S
C4713 H4687 0.950 . S
C4713 C4712 1.414 . S
C4713 C4714 1.374 . S
C4714 H4688 0.950 . S
C4714 C4710 1.385 . S
C4714 C4713 1.374 . S
C4715 C4712 1.499 . S
C4715 C4716 1.373 . S
C4715 C4717 1.389 . S
C4716 H4689 0.950 . S
C4716 C4702 1.377 . S
C4716 C4715 1.373 . S
C4717 C4701 1.377 . S
C4717 C4715 1.389 . S
C4717 C4718 1.524 . S
C4718 C4717 1.524 . S
C4718 C4719 1.397 . S
C4718 C4723 1.363 . S
C4719 H4690 0.950 . S
C4719 C4718 1.397 . S
C4719 C4720 1.334 1_554 S
C4720 H4691 0.950 . S
C4720 C4719 1.334 1_556 S
C4720 C4721 1.287 . S
C4721 C4720 1.287 . S
C4721 C4722 1.524 1_556 S
C4721 H4724 0.999 . S
C4722 H4692 0.932 1_554 S
C4722 C4721 1.524 1_554 S
C4722 C4723 1.415 . S
C4723 H4693 0.950 . S
C4723 C4718 1.363 . S
C4723 C4722 1.415 . S
H4724 C4721 0.999 . S
H4725 C4706 0.913 . S
H4726 C4744 0.951 . S
H4727 C4746 0.951 . S
H4728 C4748 0.950 . S
H4729 C4749 0.950 . S
H4730 C4751 0.950 . S
H4731 C4754 0.950 . S
H4732 C4755 0.950 . S
H4733 C4757 0.950 . S
H4734 C4758 0.950 . S
H4735 C4759 0.951 . S
H4736 C4761 0.951 . S
H4737 C4763 0.950 . S
H4738 C4764 0.950 . S
H4739 C4766 0.950 . S
H4740 C4769 0.950 . S
H4741 C4770 0.950 . S
H4742 C4772 0.950 . S
H4743 C4773 0.950 . S
C4744 H4726 0.951 . S
C4744 C4745 1.366 . S
C4744 C4746 1.388 . S
C4745 C4744 1.366 . S
C4745 C4749 1.385 . S
C4746 H4727 0.951 . S
C4746 C4744 1.388 . S
C4746 C4747 1.366 . S
C4747 C4746 1.366 . S
C4747 C4748 1.414 . S
C4747 C4750 1.499 . S
C4748 H4728 0.950 . S
C4748 C4747 1.414 . S
C4748 C4749 1.374 . S
C4749 H4729 0.950 . S
C4749 C4745 1.385 . S
C4749 C4748 1.374 . S
C4750 C4747 1.499 . S
C4750 C4751 1.373 . S
C4750 C4752 1.389 . S
C4751 H4730 0.950 . S
C4751 C4750 1.373 . S
C4751 C4767 1.377 . S
C4752 C4750 1.389 . S
C4752 C4753 1.524 . S
C4752 C4766 1.377 . S
C4753 C4752 1.524 . S
C4753 C4754 1.397 . S
C4753 C4758 1.363 . S
C4754 H4731 0.950 . S
C4754 C4753 1.397 . S
C4754 C4755 1.334 . S
C4755 H4732 0.950 . S
C4755 C4754 1.334 . S
C4755 C4756 1.287 . S
C4756 C4755 1.287 . S
C4756 C4757 1.524 . S
C4756 H4775 0.913 . S
C4757 H4733 0.950 . S
C4757 C4756 1.524 . S
C4757 C4758 1.415 . S
C4758 H4734 0.950 . S
C4758 C4753 1.363 . S
C4758 C4757 1.415 . S
C4759 H4735 0.951 . S
C4759 C4760 1.366 . S
C4759 C4761 1.388 . S
C4760 C4759 1.366 . S
C4760 C4764 1.385 . S
C4761 H4736 0.951 . S
C4761 C4759 1.388 . S
C4761 C4762 1.366 . S
C4762 C4761 1.366 . S
C4762 C4763 1.414 . S
C4762 C4765 1.499 . S
C4763 H4737 0.950 . S
C4763 C4762 1.414 . S
C4763 C4764 1.374 . S
C4764 H4738 0.950 . S
C4764 C4760 1.385 . S
C4764 C4763 1.374 . S
C4765 C4762 1.499 . S
C4765 C4766 1.373 . S
C4765 C4767 1.389 . S
C4766 H4739 0.950 . S
C4766 C4752 1.377 . S
C4766 C4765 1.373 . S
C4767 C4751 1.377 . S
C4767 C4765 1.389 . S
C4767 C4768 1.524 . S
C4768 C4767 1.524 . S
C4768 C4769 1.397 . S
C4768 C4773 1.363 . S
C4769 H4740 0.950 . S
C4769 C4768 1.397 . S
C4769 C4770 1.334 . S
C4770 H4741 0.950 . S
C4770 C4769 1.334 . S
C4770 C4771 1.287 . S
C4771 C4770 1.287 . S
C4771 C4772 1.524 . S
C4771 H4774 0.999 . S
C4772 H4742 0.950 . S
C4772 C4771 1.524 . S
C4772 C4773 1.415 . S
C4773 H4743 0.950 . S
C4773 C4768 1.363 . S
C4773 C4772 1.415 . S
H4774 C4771 0.999 . S
H4775 C4756 0.913 . S
H4776 C4794 0.951 . S
H4777 C4796 0.951 . S
H4778 C4798 0.950 . S
H4779 C4799 0.950 . S
H4780 C4801 0.950 . S
H4781 C4804 0.950 . S
H4782 C4805 0.950 . S
H4783 C4807 0.950 . S
H4784 C4808 0.950 . S
H4785 C4809 0.951 . S
H4786 C4811 0.951 . S
H4787 C4813 0.950 . S
H4788 C4814 0.950 . S
H4789 C4816 0.950 . S
H4790 C4819 0.950 . S
H4791 C4820 0.950 1_554 S
H4792 C4822 0.952 1_554 S
H4793 C4823 0.950 . S
C4794 H4776 0.951 . S
C4794 C4795 1.366 . S
C4794 C4796 1.388 . S
C4795 C4794 1.366 . S
C4795 C4799 1.385 . S
C4796 H4777 0.951 . S
C4796 C4794 1.388 . S
C4796 C4797 1.366 . S
C4797 C4796 1.366 . S
C4797 C4798 1.414 . S
C4797 C4800 1.499 . S
C4798 H4778 0.950 . S
C4798 C4797 1.414 . S
C4798 C4799 1.374 . S
C4799 H4779 0.950 . S
C4799 C4795 1.385 . S
C4799 C4798 1.374 . S
C4800 C4797 1.499 . S
C4800 C4801 1.373 . S
C4800 C4802 1.389 . S
C4801 H4780 0.950 . S
C4801 C4800 1.373 . S
C4801 C4817 1.377 . S
C4802 C4800 1.389 . S
C4802 C4803 1.524 . S
C4802 C4816 1.377 . S
C4803 C4802 1.524 . S
C4803 C4804 1.397 . S
C4803 C4808 1.363 . S
C4804 H4781 0.950 . S
C4804 C4803 1.397 . S
C4804 C4805 1.334 . S
C4805 H4782 0.950 . S
C4805 C4804 1.334 . S
C4805 C4806 1.287 . S
C4806 C4805 1.287 . S
C4806 C4807 1.524 . S
C4806 H4825 0.913 . S
C4807 H4783 0.950 . S
C4807 C4806 1.524 . S
C4807 C4808 1.415 . S
C4808 H4784 0.950 . S
C4808 C4803 1.363 . S
C4808 C4807 1.415 . S
C4809 H4785 0.951 . S
C4809 C4810 1.366 . S
C4809 C4811 1.388 . S
C4810 C4809 1.366 . S
C4810 C4814 1.385 . S
C4811 H4786 0.951 . S
C4811 C4809 1.388 . S
C4811 C4812 1.366 . S
C4812 C4811 1.366 . S
C4812 C4813 1.414 . S
C4812 C4815 1.499 . S
C4813 H4787 0.950 . S
C4813 C4812 1.414 . S
C4813 C4814 1.374 . S
C4814 H4788 0.950 . S
C4814 C4810 1.385 . S
C4814 C4813 1.374 . S
C4815 C4812 1.499 . S
C4815 C4816 1.373 . S
C4815 C4817 1.389 . S
C4816 H4789 0.950 . S
C4816 C4802 1.377 . S
C4816 C4815 1.373 . S
C4817 C4801 1.377 . S
C4817 C4815 1.389 . S
C4817 C4818 1.524 . S
C4818 C4817 1.524 . S
C4818 C4819 1.397 . S
C4818 C4823 1.363 . S
C4819 H4790 0.950 . S
C4819 C4818 1.397 . S
C4819 C4820 1.334 . S
C4820 H4791 0.950 1_556 S
C4820 C4819 1.334 . S
C4820 C4821 1.287 1_556 S
C4821 C4820 1.287 1_554 S
C4821 C4822 1.524 1_554 S
C4821 H4824 0.999 . S
C4822 H4792 0.952 1_556 S
C4822 C4821 1.524 1_556 S
C4822 C4823 1.415 . S
C4823 H4793 0.950 . S
C4823 C4818 1.363 . S
C4823 C4822 1.415 . S
H4824 C4821 0.999 . S
H4825 C4806 0.913 . S
H4826 C4844 0.951 . S
H4827 C4846 0.951 . S
H4828 C4848 0.950 . S
H4829 C4849 0.950 . S
H4830 C4851 0.950 . S
H4831 C4854 0.950 . S
H4832 C4855 0.950 . S
H4833 C4857 0.950 . S
H4834 C4858 0.950 . S
H4835 C4859 0.951 . S
H4836 C4861 0.951 . S
H4837 C4863 0.950 . S
H4838 C4864 0.950 . S
H4839 C4866 0.950 . S
H4840 C4869 0.950 . S
H4841 C4870 0.950 . S
H4842 C4872 0.950 . S
H4843 C4873 0.950 . S
C4844 H4826 0.951 . S
C4844 C4845 1.366 . S
C4844 C4846 1.388 . S
C4845 C4844 1.366 . S
C4845 C4849 1.385 . S
C4846 H4827 0.951 . S
C4846 C4844 1.388 . S
C4846 C4847 1.366 . S
C4847 C4846 1.366 . S
C4847 C4848 1.414 . S
C4847 C4850 1.499 . S
C4848 H4828 0.950 . S
C4848 C4847 1.414 . S
C4848 C4849 1.374 . S
C4849 H4829 0.950 . S
C4849 C4845 1.385 . S
C4849 C4848 1.374 . S
C4850 C4847 1.499 . S
C4850 C4851 1.373 . S
C4850 C4852 1.389 . S
C4851 H4830 0.950 . S
C4851 C4850 1.373 . S
C4851 C4867 1.377 . S
C4852 C4850 1.389 . S
C4852 C4853 1.524 . S
C4852 C4866 1.377 . S
C4853 C4852 1.524 . S
C4853 C4854 1.397 . S
C4853 C4858 1.363 . S
C4854 H4831 0.950 . S
C4854 C4853 1.397 . S
C4854 C4855 1.334 . S
C4855 H4832 0.950 . S
C4855 C4854 1.334 . S
C4855 C4856 1.287 . S
C4856 C4855 1.287 . S
C4856 C4857 1.524 . S
C4856 H4875 0.913 . S
C4857 H4833 0.950 . S
C4857 C4856 1.524 . S
C4857 C4858 1.415 . S
C4858 H4834 0.950 . S
C4858 C4853 1.363 . S
C4858 C4857 1.415 . S
C4859 H4835 0.951 . S
C4859 C4860 1.366 . S
C4859 C4861 1.388 . S
C4860 C4859 1.366 . S
C4860 C4864 1.385 . S
C4861 H4836 0.951 . S
C4861 C4859 1.388 . S
C4861 C4862 1.366 . S
C4862 C4861 1.366 . S
C4862 C4863 1.414 . S
C4862 C4865 1.499 . S
C4863 H4837 0.950 . S
C4863 C4862 1.414 . S
C4863 C4864 1.374 . S
C4864 H4838 0.950 . S
C4864 C4860 1.385 . S
C4864 C4863 1.374 . S
C4865 C4862 1.499 . S
C4865 C4866 1.373 . S
C4865 C4867 1.389 . S
C4866 H4839 0.950 . S
C4866 C4852 1.377 . S
C4866 C4865 1.373 . S
C4867 C4851 1.377 . S
C4867 C4865 1.389 . S
C4867 C4868 1.524 . S
C4868 C4867 1.524 . S
C4868 C4869 1.397 . S
C4868 C4873 1.363 . S
C4869 H4840 0.950 . S
C4869 C4868 1.397 . S
C4869 C4870 1.334 . S
C4870 H4841 0.950 . S
C4870 C4869 1.334 . S
C4870 C4871 1.287 . S
C4871 C4870 1.287 . S
C4871 C4872 1.524 . S
C4871 H4874 0.999 . S
C4872 H4842 0.950 . S
C4872 C4871 1.524 . S
C4872 C4873 1.415 . S
C4873 H4843 0.950 . S
C4873 C4868 1.363 . S
C4873 C4872 1.415 . S
H4874 C4871 0.999 . S
H4875 C4856 0.913 . S
H4876 C4894 0.951 . S
H4877 C4896 0.951 . S
H4878 C4898 0.950 . S
H4879 C4899 0.950 . S
H4880 C4901 0.950 . S
H4881 C4904 0.950 . S
H4882 C4905 0.950 . S
H4883 C4907 0.950 . S
H4884 C4908 0.950 1_655 S
H4885 C4909 0.951 . S
H4886 C4911 0.951 . S
H4887 C4913 0.950 . S
H4888 C4914 0.950 . S
H4889 C4916 0.950 . S
H4890 C4919 0.950 . S
H4891 C4920 0.950 . S
H4892 C4922 0.950 . S
H4893 C4923 0.950 . S
C4894 H4876 0.951 . S
C4894 C4895 1.366 . S
C4894 C4896 1.388 . S
C4895 C4894 1.366 . S
C4895 C4899 1.385 . S
C4896 H4877 0.951 . S
C4896 C4894 1.388 . S
C4896 C4897 1.366 . S
C4897 C4896 1.366 . S
C4897 C4898 1.414 . S
C4897 C4900 1.499 . S
C4898 H4878 0.950 . S
C4898 C4897 1.414 . S
C4898 C4899 1.374 . S
C4899 H4879 0.950 . S
C4899 C4895 1.385 . S
C4899 C4898 1.374 . S
C4900 C4897 1.499 . S
C4900 C4901 1.373 . S
C4900 C4902 1.389 . S
C4901 H4880 0.950 . S
C4901 C4900 1.373 . S
C4901 C4917 1.377 . S
C4902 C4900 1.389 . S
C4902 C4903 1.524 . S
C4902 C4916 1.377 . S
C4903 C4902 1.524 . S
C4903 C4904 1.397 . S
C4903 C4908 1.363 . S
C4904 H4881 0.950 . S
C4904 C4903 1.397 . S
C4904 C4905 1.334 . S
C4905 H4882 0.950 . S
C4905 C4904 1.334 . S
C4905 C4906 1.287 . S
C4906 C4905 1.287 . S
C4906 C4907 1.524 1_455 S
C4906 H4925 0.913 . S
C4907 H4883 0.950 . S
C4907 C4906 1.524 1_655 S
C4907 C4908 1.415 1_655 S
C4908 H4884 0.950 1_455 S
C4908 C4903 1.363 . S
C4908 C4907 1.415 1_455 S
C4909 H4885 0.951 . S
C4909 C4910 1.366 . S
C4909 C4911 1.388 . S
C4910 C4909 1.366 . S
C4910 C4914 1.385 . S
C4911 H4886 0.951 . S
C4911 C4909 1.388 . S
C4911 C4912 1.366 . S
C4912 C4911 1.366 . S
C4912 C4913 1.414 . S
C4912 C4915 1.499 . S
C4913 H4887 0.950 . S
C4913 C4912 1.414 . S
C4913 C4914 1.374 . S
C4914 H4888 0.950 . S
C4914 C4910 1.385 . S
C4914 C4913 1.374 . S
C4915 C4912 1.499 . S
C4915 C4916 1.373 . S
C4915 C4917 1.389 . S
C4916 H4889 0.950 . S
C4916 C4902 1.377 . S
C4916 C4915 1.373 . S
C4917 C4901 1.377 . S
C4917 C4915 1.389 . S
C4917 C4918 1.524 . S
C4918 C4917 1.524 . S
C4918 C4919 1.397 . S
C4918 C4923 1.363 . S
C4919 H4890 0.950 . S
C4919 C4918 1.397 . S
C4919 C4920 1.334 . S
C4920 H4891 0.950 . S
C4920 C4919 1.334 . S
C4920 C4921 1.287 . S
C4921 C4920 1.287 . S
C4921 C4922 1.524 . S
C4921 H4924 0.999 . S
C4922 H4892 0.950 . S
C4922 C4921 1.524 . S
C4922 C4923 1.415 . S
C4923 H4893 0.950 . S
C4923 C4918 1.363 . S
C4923 C4922 1.415 . S
H4924 C4921 0.999 . S
H4925 C4906 0.913 . S
H4926 C4944 0.951 . S
H4927 C4946 0.951 . S
H4928 C4948 0.950 . S
H4929 C4949 0.950 . S
H4930 C4951 0.950 . S
H4931 C4954 0.950 . S
H4932 C4955 0.950 . S
H4933 C4957 0.950 . S
H4934 C4958 0.950 . S
H4935 C4959 0.951 . S
H4936 C4961 0.951 . S
H4937 C4963 0.950 . S
H4938 C4964 0.950 . S
H4939 C4966 0.950 . S
H4940 C4969 0.950 . S
H4941 C4970 0.950 . S
H4942 C4972 0.950 . S
H4943 C4973 0.950 . S
C4944 H4926 0.951 . S
C4944 C4945 1.366 . S
C4944 C4946 1.388 . S
C4945 C4944 1.366 . S
C4945 C4949 1.385 . S
C4946 H4927 0.951 . S
C4946 C4944 1.388 . S
C4946 C4947 1.366 . S
C4947 C4946 1.366 . S
C4947 C4948 1.414 . S
C4947 C4950 1.499 . S
C4948 H4928 0.950 . S
C4948 C4947 1.414 . S
C4948 C4949 1.374 . S
C4949 H4929 0.950 . S
C4949 C4945 1.385 . S
C4949 C4948 1.374 . S
C4950 C4947 1.499 . S
C4950 C4951 1.373 . S
C4950 C4952 1.389 . S
C4951 H4930 0.950 . S
C4951 C4950 1.373 . S
C4951 C4967 1.377 . S
C4952 C4950 1.389 . S
C4952 C4953 1.524 . S
C4952 C4966 1.377 . S
C4953 C4952 1.524 . S
C4953 C4954 1.397 . S
C4953 C4958 1.363 . S
C4954 H4931 0.950 . S
C4954 C4953 1.397 . S
C4954 C4955 1.334 . S
C4955 H4932 0.950 . S
C4955 C4954 1.334 . S
C4955 C4956 1.287 . S
C4956 C4955 1.287 . S
C4956 C4957 1.524 . S
C4956 H4975 0.913 . S
C4957 H4933 0.950 . S
C4957 C4956 1.524 . S
C4957 C4958 1.415 . S
C4958 H4934 0.950 . S
C4958 C4953 1.363 . S
C4958 C4957 1.415 . S
C4959 H4935 0.951 . S
C4959 C4960 1.366 . S
C4959 C4961 1.388 . S
C4960 C4959 1.366 . S
C4960 C4964 1.385 . S
C4961 H4936 0.951 . S
C4961 C4959 1.388 . S
C4961 C4962 1.366 . S
C4962 C4961 1.366 . S
C4962 C4963 1.414 . S
C4962 C4965 1.499 . S
C4963 H4937 0.950 . S
C4963 C4962 1.414 . S
C4963 C4964 1.374 . S
C4964 H4938 0.950 . S
C4964 C4960 1.385 . S
C4964 C4963 1.374 . S
C4965 C4962 1.499 . S
C4965 C4966 1.373 . S
C4965 C4967 1.389 . S
C4966 H4939 0.950 . S
C4966 C4952 1.377 . S
C4966 C4965 1.373 . S
C4967 C4951 1.377 . S
C4967 C4965 1.389 . S
C4967 C4968 1.524 . S
C4968 C4967 1.524 . S
C4968 C4969 1.397 . S
C4968 C4973 1.363 . S
C4969 H4940 0.950 . S
C4969 C4968 1.397 . S
C4969 C4970 1.334 . S
C4970 H4941 0.950 . S
C4970 C4969 1.334 . S
C4970 C4971 1.287 . S
C4971 C4970 1.287 . S
C4971 C4972 1.524 . S
C4971 H4974 0.999 . S
C4972 H4942 0.950 . S
C4972 C4971 1.524 . S
C4972 C4973 1.415 . S
C4973 H4943 0.950 . S
C4973 C4968 1.363 . S
C4973 C4972 1.415 . S
H4974 C4971 0.999 . S
H4975 C4956 0.913 . S
H4976 C4994 0.951 . S
H4977 C4996 0.951 . S
H4978 C4998 0.950 . S
H4979 C4999 0.950 . S
H4980 C5001 0.950 . S
H4981 C5004 0.950 . S
H4982 C5005 0.950 . S
H4983 C5007 0.950 . S
H4984 C5008 0.950 . S
H4985 C5009 0.951 . S
H4986 C5011 0.951 . S
H4987 C5013 0.950 . S
H4988 C5014 0.950 . S
H4989 C5016 0.950 . S
H4990 C5019 0.950 . S
H4991 C5020 0.950 . S
H4992 C5022 0.950 . S
H4993 C5023 0.950 . S
C4994 H4976 0.951 . S
C4994 C4995 1.366 . S
C4994 C4996 1.388 . S
C4995 C4994 1.366 . S
C4995 C4999 1.385 . S
C4996 H4977 0.951 . S
C4996 C4994 1.388 . S
C4996 C4997 1.366 . S
C4997 C4996 1.366 . S
C4997 C4998 1.414 . S
C4997 C5000 1.499 . S
C4998 H4978 0.950 . S
C4998 C4997 1.414 . S
C4998 C4999 1.374 . S
C4999 H4979 0.950 . S
C4999 C4995 1.385 . S
C4999 C4998 1.374 . S
C5000 C4997 1.499 . S
C5000 C5001 1.373 . S
C5000 C5002 1.389 . S
C5001 H4980 0.950 . S
C5001 C5000 1.373 . S
C5001 C5017 1.377 . S
C5002 C5000 1.389 . S
C5002 C5003 1.524 . S
C5002 C5016 1.377 . S
C5003 C5002 1.524 . S
C5003 C5004 1.397 . S
C5003 C5008 1.363 . S
C5004 H4981 0.950 . S
C5004 C5003 1.397 . S
C5004 C5005 1.334 . S
C5005 H4982 0.950 . S
C5005 C5004 1.334 . S
C5005 C5006 1.287 . S
C5006 C5005 1.287 . S
C5006 C5007 1.524 . S
C5006 H5025 0.913 . S
C5007 H4983 0.950 . S
C5007 C5006 1.524 . S
C5007 C5008 1.415 . S
C5008 H4984 0.950 . S
C5008 C5003 1.363 . S
C5008 C5007 1.415 . S
C5009 H4985 0.951 . S
C5009 C5010 1.366 . S
C5009 C5011 1.388 . S
C5010 C5009 1.366 . S
C5010 C5014 1.385 . S
C5011 H4986 0.951 . S
C5011 C5009 1.388 . S
C5011 C5012 1.366 . S
C5012 C5011 1.366 . S
C5012 C5013 1.414 . S
C5012 C5015 1.499 . S
C5013 H4987 0.950 . S
C5013 C5012 1.414 . S
C5013 C5014 1.374 . S
C5014 H4988 0.950 . S
C5014 C5010 1.385 . S
C5014 C5013 1.374 . S
C5015 C5012 1.499 . S
C5015 C5016 1.373 . S
C5015 C5017 1.389 . S
C5016 H4989 0.950 . S
C5016 C5002 1.377 . S
C5016 C5015 1.373 . S
C5017 C5001 1.377 . S
C5017 C5015 1.389 . S
C5017 C5018 1.524 . S
C5018 C5017 1.524 . S
C5018 C5019 1.397 . S
C5018 C5023 1.363 . S
C5019 H4990 0.950 . S
C5019 C5018 1.397 . S
C5019 C5020 1.334 . S
C5020 H4991 0.950 . S
C5020 C5019 1.334 . S
C5020 C5021 1.287 . S
C5021 C5020 1.287 . S
C5021 C5022 1.524 . S
C5021 H5024 0.999 . S
C5022 H4992 0.950 . S
C5022 C5021 1.524 . S
C5022 C5023 1.415 . S
C5023 H4993 0.950 . S
C5023 C5018 1.363 . S
C5023 C5022 1.415 . S
H5024 C5021 0.999 . S
H5025 C5006 0.913 . S
H5026 C5044 0.951 . S
H5027 C5046 0.951 . S
H5028 C5048 0.950 . S
H5029 C5049 0.950 . S
H5030 C5051 0.950 . S
H5031 C5054 0.950 . S
H5032 C5055 0.950 . S
H5033 C5057 0.950 . S
H5034 C5058 0.950 . S
H5035 C5059 0.951 . S
H5036 C5061 0.951 . S
H5037 C5063 0.950 . S
H5038 C5064 0.950 . S
H5039 C5066 0.950 . S
H5040 C5069 0.950 . S
H5041 C5070 0.950 . S
H5042 C5072 0.950 . S
H5043 C5073 0.950 . S
C5044 H5026 0.951 . S
C5044 C5045 1.366 . S
C5044 C5046 1.388 . S
C5045 C5044 1.366 . S
C5045 C5049 1.385 . S
C5046 H5027 0.951 . S
C5046 C5044 1.388 . S
C5046 C5047 1.366 . S
C5047 C5046 1.366 . S
C5047 C5048 1.414 . S
C5047 C5050 1.499 . S
C5048 H5028 0.950 . S
C5048 C5047 1.414 . S
C5048 C5049 1.374 . S
C5049 H5029 0.950 . S
C5049 C5045 1.385 . S
C5049 C5048 1.374 . S
C5050 C5047 1.499 . S
C5050 C5051 1.373 . S
C5050 C5052 1.389 . S
C5051 H5030 0.950 . S
C5051 C5050 1.373 . S
C5051 C5067 1.377 . S
C5052 C5050 1.389 . S
C5052 C5053 1.524 . S
C5052 C5066 1.377 . S
C5053 C5052 1.524 . S
C5053 C5054 1.397 . S
C5053 C5058 1.363 . S
C5054 H5031 0.950 . S
C5054 C5053 1.397 . S
C5054 C5055 1.334 . S
C5055 H5032 0.950 . S
C5055 C5054 1.334 . S
C5055 C5056 1.287 . S
C5056 C5055 1.287 . S
C5056 C5057 1.524 . S
C5056 H5075 0.913 . S
C5057 H5033 0.950 . S
C5057 C5056 1.524 . S
C5057 C5058 1.415 . S
C5058 H5034 0.950 . S
C5058 C5053 1.363 . S
C5058 C5057 1.415 . S
C5059 H5035 0.951 . S
C5059 C5060 1.366 . S
C5059 C5061 1.388 . S
C5060 C5059 1.366 . S
C5060 C5064 1.385 . S
C5061 H5036 0.951 . S
C5061 C5059 1.388 . S
C5061 C5062 1.366 . S
C5062 C5061 1.366 . S
C5062 C5063 1.414 . S
C5062 C5065 1.499 . S
C5063 H5037 0.950 . S
C5063 C5062 1.414 . S
C5063 C5064 1.374 . S
C5064 H5038 0.950 . S
C5064 C5060 1.385 . S
C5064 C5063 1.374 . S
C5065 C5062 1.499 . S
C5065 C5066 1.373 . S
C5065 C5067 1.389 . S
C5066 H5039 0.950 . S
C5066 C5052 1.377 . S
C5066 C5065 1.373 . S
C5067 C5051 1.377 . S
C5067 C5065 1.389 . S
C5067 C5068 1.524 . S
C5068 C5067 1.524 . S
C5068 C5069 1.397 . S
C5068 C5073 1.363 . S
C5069 H5040 0.950 . S
C5069 C5068 1.397 . S
C5069 C5070 1.334 . S
C5070 H5041 0.950 . S
C5070 C5069 1.334 . S
C5070 C5071 1.287 . S
C5071 C5070 1.287 . S
C5071 C5072 1.524 . S
C5071 H5074 0.999 . S
C5072 H5042 0.950 . S
C5072 C5071 1.524 . S
C5072 C5073 1.415 . S
C5073 H5043 0.950 . S
C5073 C5068 1.363 . S
C5073 C5072 1.415 . S
H5074 C5071 0.999 . S
H5075 C5056 0.913 . S
H5076 C5094 0.951 . S
H5077 C5096 0.951 . S
H5078 C5098 0.950 . S
H5079 C5099 0.950 . S
H5080 C5101 0.950 . S
H5081 C5104 0.950 . S
H5082 C5105 0.950 . S
H5083 C5107 0.950 . S
H5084 C5108 0.950 . S
H5085 C5109 0.951 . S
H5086 C5111 0.951 . S
H5087 C5113 0.950 1_455 S
H5088 C5114 0.950 . S
H5089 C5116 0.950 . S
H5090 C5119 0.950 . S
H5091 C5120 0.950 1_455 S
H5092 C5122 0.950 . S
H5093 C5123 0.950 . S
C5094 H5076 0.951 . S
C5094 C5095 1.366 . S
C5094 C5096 1.388 . S
C5095 C5094 1.366 . S
C5095 C5099 1.385 . S
C5096 H5077 0.951 . S
C5096 C5094 1.388 . S
C5096 C5097 1.366 . S
C5097 C5096 1.366 . S
C5097 C5098 1.414 . S
C5097 C5100 1.499 . S
C5098 H5078 0.950 . S
C5098 C5097 1.414 . S
C5098 C5099 1.374 . S
C5099 H5079 0.950 . S
C5099 C5095 1.385 . S
C5099 C5098 1.374 . S
C5100 C5097 1.499 . S
C5100 C5101 1.373 . S
C5100 C5102 1.389 . S
C5101 H5080 0.950 . S
C5101 C5100 1.373 . S
C5101 C5117 1.377 . S
C5102 C5100 1.389 . S
C5102 C5103 1.524 . S
C5102 C5116 1.377 . S
C5103 C5102 1.524 . S
C5103 C5104 1.397 . S
C5103 C5108 1.363 . S
C5104 H5081 0.950 . S
C5104 C5103 1.397 . S
C5104 C5105 1.334 . S
C5105 H5082 0.950 . S
C5105 C5104 1.334 . S
C5105 C5106 1.287 . S
C5106 C5105 1.287 . S
C5106 C5107 1.524 . S
C5106 H5125 0.913 . S
C5107 H5083 0.950 . S
C5107 C5106 1.524 . S
C5107 C5108 1.415 . S
C5108 H5084 0.950 . S
C5108 C5103 1.363 . S
C5108 C5107 1.415 . S
C5109 H5085 0.951 . S
C5109 C5110 1.366 1_655 S
C5109 C5111 1.388 . S
C5110 C5109 1.366 1_455 S
C5110 C5114 1.385 . S
C5111 H5086 0.951 . S
C5111 C5109 1.388 . S
C5111 C5112 1.366 . S
C5112 C5111 1.366 . S
C5112 C5113 1.414 . S
C5112 C5115 1.499 . S
C5113 H5087 0.950 1_655 S
C5113 C5112 1.414 . S
C5113 C5114 1.374 1_655 S
C5114 H5088 0.950 . S
C5114 C5110 1.385 . S
C5114 C5113 1.374 1_455 S
C5115 C5112 1.499 . S
C5115 C5116 1.373 . S
C5115 C5117 1.389 . S
C5116 H5089 0.950 . S
C5116 C5102 1.377 . S
C5116 C5115 1.373 . S
C5117 C5101 1.377 . S
C5117 C5115 1.389 . S
C5117 C5118 1.524 . S
C5118 C5117 1.524 . S
C5118 C5119 1.397 . S
C5118 C5123 1.363 . S
C5119 H5090 0.950 . S
C5119 C5118 1.397 . S
C5119 C5120 1.334 . S
C5120 H5091 0.950 1_655 S
C5120 C5119 1.334 . S
C5120 C5121 1.287 . S
C5121 C5120 1.287 . S
C5121 C5122 1.524 . S
C5121 H5124 0.999 . S
C5122 H5092 0.950 . S
C5122 C5121 1.524 . S
C5122 C5123 1.415 . S
C5123 H5093 0.950 . S
C5123 C5118 1.363 . S
C5123 C5122 1.415 . S
H5124 C5121 0.999 . S
H5125 C5106 0.913 . S
H5126 C5144 0.951 . S
H5127 C5146 0.951 . S
H5128 C5148 0.950 . S
H5129 C5149 0.950 . S
H5130 C5151 0.950 . S
H5131 C5154 0.950 . S
H5132 C5155 0.950 . S
H5133 C5157 0.950 . S
H5134 C5158 0.950 . S
H5135 C5159 0.951 . S
H5136 C5161 0.951 . S
H5137 C5163 0.950 . S
H5138 C5164 0.950 . S
H5139 C5166 0.950 . S
H5140 C5169 0.950 . S
H5141 C5170 0.950 . S
H5142 C5172 0.950 . S
H5143 C5173 0.950 . S
C5144 H5126 0.951 . S
C5144 C5145 1.366 . S
C5144 C5146 1.388 . S
C5145 C5144 1.366 . S
C5145 C5149 1.385 . S
C5146 H5127 0.951 . S
C5146 C5144 1.388 . S
C5146 C5147 1.366 . S
C5147 C5146 1.366 . S
C5147 C5148 1.414 . S
C5147 C5150 1.499 . S
C5148 H5128 0.950 . S
C5148 C5147 1.414 . S
C5148 C5149 1.374 . S
C5149 H5129 0.950 . S
C5149 C5145 1.385 . S
C5149 C5148 1.374 . S
C5150 C5147 1.499 . S
C5150 C5151 1.373 . S
C5150 C5152 1.389 . S
C5151 H5130 0.950 . S
C5151 C5150 1.373 . S
C5151 C5167 1.377 . S
C5152 C5150 1.389 . S
C5152 C5153 1.524 . S
C5152 C5166 1.377 . S
C5153 C5152 1.524 . S
C5153 C5154 1.397 . S
C5153 C5158 1.363 . S
C5154 H5131 0.950 . S
C5154 C5153 1.397 . S
C5154 C5155 1.334 . S
C5155 H5132 0.950 . S
C5155 C5154 1.334 . S
C5155 C5156 1.287 . S
C5156 C5155 1.287 . S
C5156 C5157 1.524 . S
C5156 H5175 0.913 . S
C5157 H5133 0.950 . S
C5157 C5156 1.524 . S
C5157 C5158 1.415 . S
C5158 H5134 0.950 . S
C5158 C5153 1.363 . S
C5158 C5157 1.415 . S
C5159 H5135 0.951 . S
C5159 C5160 1.366 . S
C5159 C5161 1.388 . S
C5160 C5159 1.366 . S
C5160 C5164 1.385 . S
C5161 H5136 0.951 . S
C5161 C5159 1.388 . S
C5161 C5162 1.366 . S
C5162 C5161 1.366 . S
C5162 C5163 1.414 . S
C5162 C5165 1.499 . S
C5163 H5137 0.950 . S
C5163 C5162 1.414 . S
C5163 C5164 1.374 . S
C5164 H5138 0.950 . S
C5164 C5160 1.385 . S
C5164 C5163 1.374 . S
C5165 C5162 1.499 . S
C5165 C5166 1.373 . S
C5165 C5167 1.389 . S
C5166 H5139 0.950 . S
C5166 C5152 1.377 . S
C5166 C5165 1.373 . S
C5167 C5151 1.377 . S
C5167 C5165 1.389 . S
C5167 C5168 1.524 . S
C5168 C5167 1.524 . S
C5168 C5169 1.397 . S
C5168 C5173 1.363 . S
C5169 H5140 0.950 . S
C5169 C5168 1.397 . S
C5169 C5170 1.334 . S
C5170 H5141 0.950 . S
C5170 C5169 1.334 . S
C5170 C5171 1.287 . S
C5171 C5170 1.287 . S
C5171 C5172 1.524 . S
C5171 H5174 0.999 . S
C5172 H5142 0.950 . S
C5172 C5171 1.524 . S
C5172 C5173 1.415 . S
C5173 H5143 0.950 . S
C5173 C5168 1.363 . S
C5173 C5172 1.415 . S
H5174 C5171 0.999 . S
H5175 C5156 0.913 . S
H5176 C5194 0.951 . S
H5177 C5196 0.951 . S
H5178 C5198 0.950 . S
H5179 C5199 0.950 . S
H5180 C5201 0.950 . S
H5181 C5204 0.950 . S
H5182 C5205 0.950 . S
H5183 C5207 0.950 . S
H5184 C5208 0.950 . S
H5185 C5209 0.951 . S
H5186 C5211 0.951 . S
H5187 C5213 0.950 . S
H5188 C5214 0.950 . S
H5189 C5216 0.950 . S
H5190 C5219 0.950 . S
H5191 C5220 0.950 . S
H5192 C5222 0.950 . S
H5193 C5223 0.950 . S
C5194 H5176 0.951 . S
C5194 C5195 1.366 . S
C5194 C5196 1.388 . S
C5195 C5194 1.366 . S
C5195 C5199 1.385 . S
C5196 H5177 0.951 . S
C5196 C5194 1.388 . S
C5196 C5197 1.366 . S
C5197 C5196 1.366 . S
C5197 C5198 1.414 . S
C5197 C5200 1.499 . S
C5198 H5178 0.950 . S
C5198 C5197 1.414 . S
C5198 C5199 1.374 . S
C5199 H5179 0.950 . S
C5199 C5195 1.385 . S
C5199 C5198 1.374 . S
C5200 C5197 1.499 . S
C5200 C5201 1.373 . S
C5200 C5202 1.389 . S
C5201 H5180 0.950 . S
C5201 C5200 1.373 . S
C5201 C5217 1.377 . S
C5202 C5200 1.389 . S
C5202 C5203 1.524 . S
C5202 C5216 1.377 . S
C5203 C5202 1.524 . S
C5203 C5204 1.397 . S
C5203 C5208 1.363 . S
C5204 H5181 0.950 . S
C5204 C5203 1.397 . S
C5204 C5205 1.334 . S
C5205 H5182 0.950 . S
C5205 C5204 1.334 . S
C5205 C5206 1.287 . S
C5206 C5205 1.287 . S
C5206 C5207 1.524 . S
C5206 H5225 0.913 . S
C5207 H5183 0.950 . S
C5207 C5206 1.524 . S
C5207 C5208 1.415 . S
C5208 H5184 0.950 . S
C5208 C5203 1.363 . S
C5208 C5207 1.415 . S
C5209 H5185 0.951 . S
C5209 C5210 1.366 . S
C5209 C5211 1.388 . S
C5210 C5209 1.366 . S
C5210 C5214 1.385 . S
C5211 H5186 0.951 . S
C5211 C5209 1.388 . S
C5211 C5212 1.366 . S
C5212 C5211 1.366 . S
C5212 C5213 1.414 . S
C5212 C5215 1.499 . S
C5213 H5187 0.950 . S
C5213 C5212 1.414 . S
C5213 C5214 1.374 . S
C5214 H5188 0.950 . S
C5214 C5210 1.385 . S
C5214 C5213 1.374 . S
C5215 C5212 1.499 . S
C5215 C5216 1.373 . S
C5215 C5217 1.389 . S
C5216 H5189 0.950 . S
C5216 C5202 1.377 . S
C5216 C5215 1.373 . S
C5217 C5201 1.377 . S
C5217 C5215 1.389 . S
C5217 C5218 1.524 . S
C5218 C5217 1.524 . S
C5218 C5219 1.397 . S
C5218 C5223 1.363 . S
C5219 H5190 0.950 . S
C5219 C5218 1.397 . S
C5219 C5220 1.334 . S
C5220 H5191 0.950 . S
C5220 C5219 1.334 . S
C5220 C5221 1.287 . S
C5221 C5220 1.287 . S
C5221 C5222 1.524 . S
C5221 H5224 0.999 . S
C5222 H5192 0.950 . S
C5222 C5221 1.524 . S
C5222 C5223 1.415 . S
C5223 H5193 0.950 . S
C5223 C5218 1.363 . S
C5223 C5222 1.415 . S
H5224 C5221 0.999 . S
H5225 C5206 0.913 . S
H5226 C5244 0.951 . S
H5227 C5246 0.951 . S
H5228 C5248 0.950 . S
H5229 C5249 0.950 . S
H5230 C5251 0.950 . S
H5231 C5254 0.950 . S
H5232 C5255 0.950 . S
H5233 C5257 0.950 . S
H5234 C5258 0.950 . S
H5235 C5259 0.951 . S
H5236 C5261 0.951 . S
H5237 C5263 0.950 . S
H5238 C5264 0.950 . S
H5239 C5266 0.950 . S
H5240 C5269 0.950 . S
H5241 C5270 0.950 . S
H5242 C5272 0.950 . S
H5243 C5273 0.950 . S
C5244 H5226 0.951 . S
C5244 C5245 1.366 . S
C5244 C5246 1.388 . S
C5245 C5244 1.366 . S
C5245 C5249 1.385 . S
C5246 H5227 0.951 . S
C5246 C5244 1.388 . S
C5246 C5247 1.366 . S
C5247 C5246 1.366 . S
C5247 C5248 1.414 . S
C5247 C5250 1.499 . S
C5248 H5228 0.950 . S
C5248 C5247 1.414 . S
C5248 C5249 1.374 . S
C5249 H5229 0.950 . S
C5249 C5245 1.385 . S
C5249 C5248 1.374 . S
C5250 C5247 1.499 . S
C5250 C5251 1.373 . S
C5250 C5252 1.389 . S
C5251 H5230 0.950 . S
C5251 C5250 1.373 . S
C5251 C5267 1.377 . S
C5252 C5250 1.389 . S
C5252 C5253 1.524 . S
C5252 C5266 1.377 . S
C5253 C5252 1.524 . S
C5253 C5254 1.397 . S
C5253 C5258 1.363 . S
C5254 H5231 0.950 . S
C5254 C5253 1.397 . S
C5254 C5255 1.334 . S
C5255 H5232 0.950 . S
C5255 C5254 1.334 . S
C5255 C5256 1.287 . S
C5256 C5255 1.287 . S
C5256 C5257 1.524 . S
C5256 H5275 0.913 . S
C5257 H5233 0.950 . S
C5257 C5256 1.524 . S
C5257 C5258 1.415 . S
C5258 H5234 0.950 . S
C5258 C5253 1.363 . S
C5258 C5257 1.415 . S
C5259 H5235 0.951 . S
C5259 C5260 1.366 . S
C5259 C5261 1.388 . S
C5260 C5259 1.366 . S
C5260 C5264 1.385 . S
C5261 H5236 0.951 . S
C5261 C5259 1.388 . S
C5261 C5262 1.366 . S
C5262 C5261 1.366 . S
C5262 C5263 1.414 . S
C5262 C5265 1.499 . S
C5263 H5237 0.950 . S
C5263 C5262 1.414 . S
C5263 C5264 1.374 . S
C5264 H5238 0.950 . S
C5264 C5260 1.385 . S
C5264 C5263 1.374 . S
C5265 C5262 1.499 . S
C5265 C5266 1.373 . S
C5265 C5267 1.389 . S
C5266 H5239 0.950 . S
C5266 C5252 1.377 . S
C5266 C5265 1.373 . S
C5267 C5251 1.377 . S
C5267 C5265 1.389 . S
C5267 C5268 1.524 . S
C5268 C5267 1.524 . S
C5268 C5269 1.397 . S
C5268 C5273 1.363 . S
C5269 H5240 0.950 . S
C5269 C5268 1.397 . S
C5269 C5270 1.334 . S
C5270 H5241 0.950 . S
C5270 C5269 1.334 . S
C5270 C5271 1.287 . S
C5271 C5270 1.287 . S
C5271 C5272 1.524 . S
C5271 H5274 0.999 . S
C5272 H5242 0.950 . S
C5272 C5271 1.524 . S
C5272 C5273 1.415 . S
C5273 H5243 0.950 . S
C5273 C5268 1.363 . S
C5273 C5272 1.415 . S
H5274 C5271 0.999 . S
H5275 C5256 0.913 . S
H5276 C5294 0.951 . S
H5277 C5296 0.951 . S
H5278 C5298 0.950 . S
H5279 C5299 0.950 . S
H5280 C5301 0.950 . S
H5281 C5304 0.950 . S
H5282 C5305 0.950 . S
H5283 C5307 0.948 1_455 S
H5284 C5308 0.950 . S
H5285 C5309 0.951 . S
H5286 C5311 0.951 . S
H5287 C5313 0.950 . S
H5288 C5314 0.950 . S
H5289 C5316 0.950 . S
H5290 C5319 0.950 . S
H5291 C5320 0.950 . S
H5292 C5322 0.950 . S
H5293 C5323 0.950 . S
C5294 H5276 0.951 . S
C5294 C5295 1.366 . S
C5294 C5296 1.388 . S
C5295 C5294 1.366 . S
C5295 C5299 1.385 . S
C5296 H5277 0.951 . S
C5296 C5294 1.388 . S
C5296 C5297 1.366 . S
C5297 C5296 1.366 . S
C5297 C5298 1.414 . S
C5297 C5300 1.499 . S
C5298 H5278 0.950 . S
C5298 C5297 1.414 . S
C5298 C5299 1.374 . S
C5299 H5279 0.950 . S
C5299 C5295 1.385 . S
C5299 C5298 1.374 . S
C5300 C5297 1.499 . S
C5300 C5301 1.373 . S
C5300 C5302 1.389 . S
C5301 H5280 0.950 . S
C5301 C5300 1.373 . S
C5301 C5317 1.377 . S
C5302 C5300 1.389 . S
C5302 C5303 1.524 . S
C5302 C5316 1.377 . S
C5303 C5302 1.524 . S
C5303 C5304 1.397 . S
C5303 C5308 1.363 . S
C5304 H5281 0.950 . S
C5304 C5303 1.397 . S
C5304 C5305 1.334 . S
C5305 H5282 0.950 . S
C5305 C5304 1.334 . S
C5305 C5306 1.287 . S
C5306 C5305 1.287 . S
C5306 C5307 1.524 . S
C5306 H5325 0.913 . S
C5307 H5283 0.948 1_655 S
C5307 C5306 1.524 . S
C5307 C5308 1.415 . S
C5308 H5284 0.950 . S
C5308 C5303 1.363 . S
C5308 C5307 1.415 . S
C5309 H5285 0.951 . S
C5309 C5310 1.366 . S
C5309 C5311 1.388 . S
C5310 C5309 1.366 . S
C5310 C5314 1.385 . S
C5311 H5286 0.951 . S
C5311 C5309 1.388 . S
C5311 C5312 1.366 . S
C5312 C5311 1.366 . S
C5312 C5313 1.414 . S
C5312 C5315 1.499 . S
C5313 H5287 0.950 . S
C5313 C5312 1.414 . S
C5313 C5314 1.374 . S
C5314 H5288 0.950 . S
C5314 C5310 1.385 . S
C5314 C5313 1.374 . S
C5315 C5312 1.499 . S
C5315 C5316 1.373 . S
C5315 C5317 1.389 . S
C5316 H5289 0.950 . S
C5316 C5302 1.377 . S
C5316 C5315 1.373 . S
C5317 C5301 1.377 . S
C5317 C5315 1.389 . S
C5317 C5318 1.524 . S
C5318 C5317 1.524 . S
C5318 C5319 1.397 . S
C5318 C5323 1.363 . S
C5319 H5290 0.950 . S
C5319 C5318 1.397 . S
C5319 C5320 1.334 . S
C5320 H5291 0.950 . S
C5320 C5319 1.334 . S
C5320 C5321 1.287 . S
C5321 C5320 1.287 . S
C5321 C5322 1.524 . S
C5321 H5324 0.999 . S
C5322 H5292 0.950 . S
C5322 C5321 1.524 . S
C5322 C5323 1.415 . S
C5323 H5293 0.950 . S
C5323 C5318 1.363 . S
C5323 C5322 1.415 . S
H5324 C5321 0.999 . S
H5325 C5306 0.913 . S
H5326 C5344 0.951 . S
H5327 C5346 0.951 . S
H5328 C5348 0.950 . S
H5329 C5349 0.950 . S
H5330 C5351 0.950 . S
H5331 C5354 0.950 . S
H5332 C5355 0.950 . S
H5333 C5357 0.950 . S
H5334 C5358 0.950 . S
H5335 C5359 0.951 . S
H5336 C5361 0.951 . S
H5337 C5363 0.950 . S
H5338 C5364 0.950 . S
H5339 C5366 0.950 . S
H5340 C5369 0.950 . S
H5341 C5370 0.950 . S
H5342 C5372 0.950 . S
H5343 C5373 0.950 . S
C5344 H5326 0.951 . S
C5344 C5345 1.366 . S
C5344 C5346 1.388 . S
C5345 C5344 1.366 . S
C5345 C5349 1.385 . S
C5346 H5327 0.951 . S
C5346 C5344 1.388 . S
C5346 C5347 1.366 . S
C5347 C5346 1.366 . S
C5347 C5348 1.414 . S
C5347 C5350 1.499 . S
C5348 H5328 0.950 . S
C5348 C5347 1.414 . S
C5348 C5349 1.374 . S
C5349 H5329 0.950 . S
C5349 C5345 1.385 . S
C5349 C5348 1.374 . S
C5350 C5347 1.499 . S
C5350 C5351 1.373 . S
C5350 C5352 1.389 . S
C5351 H5330 0.950 . S
C5351 C5350 1.373 . S
C5351 C5367 1.377 . S
C5352 C5350 1.389 . S
C5352 C5353 1.524 . S
C5352 C5366 1.377 . S
C5353 C5352 1.524 . S
C5353 C5354 1.397 . S
C5353 C5358 1.363 . S
C5354 H5331 0.950 . S
C5354 C5353 1.397 . S
C5354 C5355 1.334 . S
C5355 H5332 0.950 . S
C5355 C5354 1.334 . S
C5355 C5356 1.287 . S
C5356 C5355 1.287 . S
C5356 C5357 1.524 . S
C5356 H5375 0.913 . S
C5357 H5333 0.950 . S
C5357 C5356 1.524 . S
C5357 C5358 1.415 . S
C5358 H5334 0.950 . S
C5358 C5353 1.363 . S
C5358 C5357 1.415 . S
C5359 H5335 0.951 . S
C5359 C5360 1.366 . S
C5359 C5361 1.388 . S
C5360 C5359 1.366 . S
C5360 C5364 1.385 . S
C5361 H5336 0.951 . S
C5361 C5359 1.388 . S
C5361 C5362 1.366 . S
C5362 C5361 1.366 . S
C5362 C5363 1.414 . S
C5362 C5365 1.499 . S
C5363 H5337 0.950 . S
C5363 C5362 1.414 . S
C5363 C5364 1.374 . S
C5364 H5338 0.950 . S
C5364 C5360 1.385 . S
C5364 C5363 1.374 . S
C5365 C5362 1.499 . S
C5365 C5366 1.373 . S
C5365 C5367 1.389 . S
C5366 H5339 0.950 . S
C5366 C5352 1.377 . S
C5366 C5365 1.373 . S
C5367 C5351 1.377 . S
C5367 C5365 1.389 . S
C5367 C5368 1.524 . S
C5368 C5367 1.524 . S
C5368 C5369 1.397 . S
C5368 C5373 1.363 . S
C5369 H5340 0.950 . S
C5369 C5368 1.397 . S
C5369 C5370 1.334 . S
C5370 H5341 0.950 . S
C5370 C5369 1.334 . S
C5370 C5371 1.287 . S
C5371 C5370 1.287 . S
C5371 C5372 1.524 . S
C5371 H5374 0.999 . S
C5372 H5342 0.950 . S
C5372 C5371 1.524 . S
C5372 C5373 1.415 . S
C5373 H5343 0.950 . S
C5373 C5368 1.363 . S
C5373 C5372 1.415 . S
H5374 C5371 0.999 . S
H5375 C5356 0.913 . S
H5376 C5394 0.951 . S
H5377 C5396 0.951 . S
H5378 C5398 0.950 . S
H5379 C5399 0.950 . S
H5380 C5401 0.950 . S
H5381 C5404 0.950 . S
H5382 C5405 0.950 . S
H5383 C5407 0.950 . S
H5384 C5408 0.950 . S
H5385 C5409 0.951 . S
H5386 C5411 0.951 . S
H5387 C5413 0.950 . S
H5388 C5414 0.950 . S
H5389 C5416 0.950 . S
H5390 C5419 0.950 . S
H5391 C5420 0.950 . S
H5392 C5422 0.950 . S
H5393 C5423 0.950 . S
C5394 H5376 0.951 . S
C5394 C5395 1.366 . S
C5394 C5396 1.388 . S
C5395 C5394 1.366 . S
C5395 C5399 1.385 . S
C5396 H5377 0.951 . S
C5396 C5394 1.388 . S
C5396 C5397 1.366 . S
C5397 C5396 1.366 . S
C5397 C5398 1.414 . S
C5397 C5400 1.499 . S
C5398 H5378 0.950 . S
C5398 C5397 1.414 . S
C5398 C5399 1.374 . S
C5399 H5379 0.950 . S
C5399 C5395 1.385 . S
C5399 C5398 1.374 . S
C5400 C5397 1.499 . S
C5400 C5401 1.373 . S
C5400 C5402 1.389 . S
C5401 H5380 0.950 . S
C5401 C5400 1.373 . S
C5401 C5417 1.377 . S
C5402 C5400 1.389 . S
C5402 C5403 1.524 . S
C5402 C5416 1.377 . S
C5403 C5402 1.524 . S
C5403 C5404 1.397 . S
C5403 C5408 1.363 . S
C5404 H5381 0.950 . S
C5404 C5403 1.397 . S
C5404 C5405 1.334 . S
C5405 H5382 0.950 . S
C5405 C5404 1.334 . S
C5405 C5406 1.287 . S
C5406 C5405 1.287 . S
C5406 C5407 1.524 . S
C5406 H5425 0.913 . S
C5407 H5383 0.950 . S
C5407 C5406 1.524 . S
C5407 C5408 1.415 . S
C5408 H5384 0.950 . S
C5408 C5403 1.363 . S
C5408 C5407 1.415 . S
C5409 H5385 0.951 . S
C5409 C5410 1.366 . S
C5409 C5411 1.388 . S
C5410 C5409 1.366 . S
C5410 C5414 1.385 . S
C5411 H5386 0.951 . S
C5411 C5409 1.388 . S
C5411 C5412 1.366 . S
C5412 C5411 1.366 . S
C5412 C5413 1.414 . S
C5412 C5415 1.499 . S
C5413 H5387 0.950 . S
C5413 C5412 1.414 . S
C5413 C5414 1.374 . S
C5414 H5388 0.950 . S
C5414 C5410 1.385 . S
C5414 C5413 1.374 . S
C5415 C5412 1.499 . S
C5415 C5416 1.373 . S
C5415 C5417 1.389 . S
C5416 H5389 0.950 . S
C5416 C5402 1.377 . S
C5416 C5415 1.373 . S
C5417 C5401 1.377 . S
C5417 C5415 1.389 . S
C5417 C5418 1.524 . S
C5418 C5417 1.524 . S
C5418 C5419 1.397 . S
C5418 C5423 1.363 . S
C5419 H5390 0.950 . S
C5419 C5418 1.397 . S
C5419 C5420 1.334 . S
C5420 H5391 0.950 . S
C5420 C5419 1.334 . S
C5420 C5421 1.287 . S
C5421 C5420 1.287 . S
C5421 C5422 1.524 . S
C5421 H5424 0.999 . S
C5422 H5392 0.950 . S
C5422 C5421 1.524 . S
C5422 C5423 1.415 . S
C5423 H5393 0.950 . S
C5423 C5418 1.363 . S
C5423 C5422 1.415 . S
H5424 C5421 0.999 . S
H5425 C5406 0.913 . S
H5426 C5444 0.951 . S
H5427 C5446 0.951 . S
H5428 C5448 0.950 . S
H5429 C5449 0.950 . S
H5430 C5451 0.950 . S
H5431 C5454 0.950 . S
H5432 C5455 0.950 . S
H5433 C5457 0.950 . S
H5434 C5458 0.950 . S
H5435 C5459 0.951 . S
H5436 C5461 0.951 . S
H5437 C5463 0.950 . S
H5438 C5464 0.950 . S
H5439 C5466 0.950 . S
H5440 C5469 0.950 . S
H5441 C5470 0.950 . S
H5442 C5472 0.950 . S
H5443 C5473 0.950 . S
C5444 H5426 0.951 . S
C5444 C5445 1.366 . S
C5444 C5446 1.388 . S
C5445 C5444 1.366 . S
C5445 C5449 1.385 . S
C5446 H5427 0.951 . S
C5446 C5444 1.388 . S
C5446 C5447 1.366 . S
C5447 C5446 1.366 . S
C5447 C5448 1.414 . S
C5447 C5450 1.499 . S
C5448 H5428 0.950 . S
C5448 C5447 1.414 . S
C5448 C5449 1.374 . S
C5449 H5429 0.950 . S
C5449 C5445 1.385 . S
C5449 C5448 1.374 . S
C5450 C5447 1.499 . S
C5450 C5451 1.373 . S
C5450 C5452 1.389 . S
C5451 H5430 0.950 . S
C5451 C5450 1.373 . S
C5451 C5467 1.377 . S
C5452 C5450 1.389 . S
C5452 C5453 1.524 . S
C5452 C5466 1.377 . S
C5453 C5452 1.524 . S
C5453 C5454 1.397 . S
C5453 C5458 1.363 . S
C5454 H5431 0.950 . S
C5454 C5453 1.397 . S
C5454 C5455 1.334 . S
C5455 H5432 0.950 . S
C5455 C5454 1.334 . S
C5455 C5456 1.287 . S
C5456 C5455 1.287 . S
C5456 C5457 1.524 . S
C5456 H5475 0.913 . S
C5457 H5433 0.950 . S
C5457 C5456 1.524 . S
C5457 C5458 1.415 . S
C5458 H5434 0.950 . S
C5458 C5453 1.363 . S
C5458 C5457 1.415 . S
C5459 H5435 0.951 . S
C5459 C5460 1.366 . S
C5459 C5461 1.388 1_545 S
C5460 C5459 1.366 . S
C5460 C5464 1.385 1_545 S
C5461 H5436 0.951 . S
C5461 C5459 1.388 1_565 S
C5461 C5462 1.366 . S
C5462 C5461 1.366 . S
C5462 C5463 1.414 . S
C5462 C5465 1.499 . S
C5463 H5437 0.950 . S
C5463 C5462 1.414 . S
C5463 C5464 1.374 . S
C5464 H5438 0.950 . S
C5464 C5460 1.385 1_565 S
C5464 C5463 1.374 . S
C5465 C5462 1.499 . S
C5465 C5466 1.373 . S
C5465 C5467 1.389 . S
C5466 H5439 0.950 . S
C5466 C5452 1.377 . S
C5466 C5465 1.373 . S
C5467 C5451 1.377 . S
C5467 C5465 1.389 . S
C5467 C5468 1.524 . S
C5468 C5467 1.524 . S
C5468 C5469 1.397 . S
C5468 C5473 1.363 . S
C5469 H5440 0.950 . S
C5469 C5468 1.397 . S
C5469 C5470 1.334 1_565 S
C5470 H5441 0.950 . S
C5470 C5469 1.334 1_545 S
C5470 C5471 1.287 . S
C5471 C5470 1.287 . S
C5471 C5472 1.524 . S
C5471 H5474 0.999 . S
C5472 H5442 0.950 . S
C5472 C5471 1.524 . S
C5472 C5473 1.415 1_545 S
C5473 H5443 0.950 . S
C5473 C5468 1.363 . S
C5473 C5472 1.415 1_565 S
H5474 C5471 0.999 . S
H5475 C5456 0.913 . S
H5476 C5494 0.951 . S
H5477 C5496 0.951 . S
H5478 C5498 0.950 . S
H5479 C5499 0.950 . S
H5480 C5501 0.950 . S
H5481 C5504 0.950 . S
H5482 C5505 0.950 . S
H5483 C5507 0.950 . S
H5484 C5508 0.950 . S
H5485 C5509 0.951 . S
H5486 C5511 0.951 . S
H5487 C5513 0.950 . S
H5488 C5514 0.950 . S
H5489 C5516 0.950 . S
H5490 C5519 0.950 . S
H5491 C5520 0.950 . S
H5492 C5522 0.950 . S
H5493 C5523 0.950 . S
C5494 H5476 0.951 . S
C5494 C5495 1.366 . S
C5494 C5496 1.388 . S
C5495 C5494 1.366 . S
C5495 C5499 1.385 . S
C5496 H5477 0.951 . S
C5496 C5494 1.388 . S
C5496 C5497 1.366 . S
C5497 C5496 1.366 . S
C5497 C5498 1.414 . S
C5497 C5500 1.499 . S
C5498 H5478 0.950 . S
C5498 C5497 1.414 . S
C5498 C5499 1.374 . S
C5499 H5479 0.950 . S
C5499 C5495 1.385 . S
C5499 C5498 1.374 . S
C5500 C5497 1.499 . S
C5500 C5501 1.373 . S
C5500 C5502 1.389 . S
C5501 H5480 0.950 . S
C5501 C5500 1.373 . S
C5501 C5517 1.377 . S
C5502 C5500 1.389 . S
C5502 C5503 1.524 . S
C5502 C5516 1.377 . S
C5503 C5502 1.524 . S
C5503 C5504 1.397 . S
C5503 C5508 1.363 . S
C5504 H5481 0.950 . S
C5504 C5503 1.397 . S
C5504 C5505 1.334 . S
C5505 H5482 0.950 . S
C5505 C5504 1.334 . S
C5505 C5506 1.287 . S
C5506 C5505 1.287 . S
C5506 C5507 1.524 . S
C5506 H5525 0.913 . S
C5507 H5483 0.950 . S
C5507 C5506 1.524 . S
C5507 C5508 1.415 . S
C5508 H5484 0.950 . S
C5508 C5503 1.363 . S
C5508 C5507 1.415 . S
C5509 H5485 0.951 . S
C5509 C5510 1.366 . S
C5509 C5511 1.388 . S
C5510 C5509 1.366 . S
C5510 C5514 1.385 . S
C5511 H5486 0.951 . S
C5511 C5509 1.388 . S
C5511 C5512 1.366 . S
C5512 C5511 1.366 . S
C5512 C5513 1.414 . S
C5512 C5515 1.499 . S
C5513 H5487 0.950 . S
C5513 C5512 1.414 . S
C5513 C5514 1.374 . S
C5514 H5488 0.950 . S
C5514 C5510 1.385 . S
C5514 C5513 1.374 . S
C5515 C5512 1.499 . S
C5515 C5516 1.373 . S
C5515 C5517 1.389 . S
C5516 H5489 0.950 . S
C5516 C5502 1.377 . S
C5516 C5515 1.373 . S
C5517 C5501 1.377 . S
C5517 C5515 1.389 . S
C5517 C5518 1.524 . S
C5518 C5517 1.524 . S
C5518 C5519 1.397 . S
C5518 C5523 1.363 . S
C5519 H5490 0.950 . S
C5519 C5518 1.397 . S
C5519 C5520 1.334 . S
C5520 H5491 0.950 . S
C5520 C5519 1.334 . S
C5520 C5521 1.287 . S
C5521 C5520 1.287 . S
C5521 C5522 1.524 . S
C5521 H5524 0.999 . S
C5522 H5492 0.950 . S
C5522 C5521 1.524 . S
C5522 C5523 1.415 . S
C5523 H5493 0.950 . S
C5523 C5518 1.363 . S
C5523 C5522 1.415 . S
H5524 C5521 0.999 . S
H5525 C5506 0.913 . S
H5526 C5544 0.951 . S
H5527 C5546 0.951 . S
H5528 C5548 0.950 . S
H5529 C5549 0.950 . S
H5530 C5551 0.950 . S
H5531 C5554 0.950 1_554 S
H5532 C5555 0.950 . S
H5533 C5557 0.950 . S
H5534 C5558 0.950 . S
H5535 C5559 0.951 . S
H5536 C5561 0.951 . S
H5537 C5563 0.950 . S
H5538 C5564 0.950 . S
H5539 C5566 0.950 . S
H5540 C5569 0.950 . S
H5541 C5570 0.950 . S
H5542 C5572 0.950 . S
H5543 C5573 0.950 . S
C5544 H5526 0.951 . S
C5544 C5545 1.366 . S
C5544 C5546 1.388 . S
C5545 C5544 1.366 . S
C5545 C5549 1.385 . S
C5546 H5527 0.951 . S
C5546 C5544 1.388 . S
C5546 C5547 1.366 . S
C5547 C5546 1.366 . S
C5547 C5548 1.414 . S
C5547 C5550 1.499 . S
C5548 H5528 0.950 . S
C5548 C5547 1.414 . S
C5548 C5549 1.374 . S
C5549 H5529 0.950 . S
C5549 C5545 1.385 . S
C5549 C5548 1.374 . S
C5550 C5547 1.499 . S
C5550 C5551 1.373 . S
C5550 C5552 1.389 . S
C5551 H5530 0.950 . S
C5551 C5550 1.373 . S
C5551 C5567 1.377 . S
C5552 C5550 1.389 . S
C5552 C5553 1.524 1_554 S
C5552 C5566 1.377 . S
C5553 C5552 1.524 1_556 S
C5553 C5554 1.397 . S
C5553 C5558 1.363 . S
C5554 H5531 0.950 1_556 S
C5554 C5553 1.397 . S
C5554 C5555 1.334 . S
C5555 H5532 0.950 . S
C5555 C5554 1.334 . S
C5555 C5556 1.287 . S
C5556 C5555 1.287 . S
C5556 C5557 1.524 . S
C5556 H5575 0.913 . S
C5557 H5533 0.950 . S
C5557 C5556 1.524 . S
C5557 C5558 1.415 . S
C5558 H5534 0.950 . S
C5558 C5553 1.363 . S
C5558 C5557 1.415 . S
C5559 H5535 0.951 . S
C5559 C5560 1.366 . S
C5559 C5561 1.388 . S
C5560 C5559 1.366 . S
C5560 C5564 1.385 . S
C5561 H5536 0.951 . S
C5561 C5559 1.388 . S
C5561 C5562 1.366 . S
C5562 C5561 1.366 . S
C5562 C5563 1.414 . S
C5562 C5565 1.499 . S
C5563 H5537 0.950 . S
C5563 C5562 1.414 . S
C5563 C5564 1.374 . S
C5564 H5538 0.950 . S
C5564 C5560 1.385 . S
C5564 C5563 1.374 . S
C5565 C5562 1.499 . S
C5565 C5566 1.373 . S
C5565 C5567 1.389 . S
C5566 H5539 0.950 . S
C5566 C5552 1.377 . S
C5566 C5565 1.373 . S
C5567 C5551 1.377 . S
C5567 C5565 1.389 . S
C5567 C5568 1.524 . S
C5568 C5567 1.524 . S
C5568 C5569 1.397 . S
C5568 C5573 1.363 . S
C5569 H5540 0.950 . S
C5569 C5568 1.397 . S
C5569 C5570 1.334 . S
C5570 H5541 0.950 . S
C5570 C5569 1.334 . S
C5570 C5571 1.287 . S
C5571 C5570 1.287 . S
C5571 C5572 1.524 . S
C5571 H5574 0.999 . S
C5572 H5542 0.950 . S
C5572 C5571 1.524 . S
C5572 C5573 1.415 . S
C5573 H5543 0.950 . S
C5573 C5568 1.363 . S
C5573 C5572 1.415 . S
H5574 C5571 0.999 . S
H5575 C5556 0.913 . S
H5576 C5594 0.951 . S
H5577 C5596 0.951 . S
H5578 C5598 0.950 . S
H5579 C5599 0.950 . S
H5580 C5601 0.950 . S
H5581 C5604 0.950 . S
H5582 C5605 0.950 . S
H5583 C5607 0.950 . S
H5584 C5608 0.950 . S
H5585 C5609 0.951 . S
H5586 C5611 0.951 . S
H5587 C5613 0.950 . S
H5588 C5614 0.950 . S
H5589 C5616 0.950 . S
H5590 C5619 0.950 . S
H5591 C5620 0.950 . S
H5592 C5622 0.950 . S
H5593 C5623 0.950 . S
C5594 H5576 0.951 . S
C5594 C5595 1.366 . S
C5594 C5596 1.388 . S
C5595 C5594 1.366 . S
C5595 C5599 1.385 . S
C5596 H5577 0.951 . S
C5596 C5594 1.388 . S
C5596 C5597 1.366 . S
C5597 C5596 1.366 . S
C5597 C5598 1.414 . S
C5597 C5600 1.499 . S
C5598 H5578 0.950 . S
C5598 C5597 1.414 . S
C5598 C5599 1.374 . S
C5599 H5579 0.950 . S
C5599 C5595 1.385 . S
C5599 C5598 1.374 . S
C5600 C5597 1.499 . S
C5600 C5601 1.373 . S
C5600 C5602 1.389 . S
C5601 H5580 0.950 . S
C5601 C5600 1.373 . S
C5601 C5617 1.377 . S
C5602 C5600 1.389 . S
C5602 C5603 1.524 . S
C5602 C5616 1.377 . S
C5603 C5602 1.524 . S
C5603 C5604 1.397 . S
C5603 C5608 1.363 . S
C5604 H5581 0.950 . S
C5604 C5603 1.397 . S
C5604 C5605 1.334 . S
C5605 H5582 0.950 . S
C5605 C5604 1.334 . S
C5605 C5606 1.287 . S
C5606 C5605 1.287 . S
C5606 C5607 1.524 . S
C5606 H5625 0.913 . S
C5607 H5583 0.950 . S
C5607 C5606 1.524 . S
C5607 C5608 1.415 . S
C5608 H5584 0.950 . S
C5608 C5603 1.363 . S
C5608 C5607 1.415 . S
C5609 H5585 0.951 . S
C5609 C5610 1.366 . S
C5609 C5611 1.388 . S
C5610 C5609 1.366 . S
C5610 C5614 1.385 . S
C5611 H5586 0.951 . S
C5611 C5609 1.388 . S
C5611 C5612 1.366 . S
C5612 C5611 1.366 . S
C5612 C5613 1.414 . S
C5612 C5615 1.499 . S
C5613 H5587 0.950 . S
C5613 C5612 1.414 . S
C5613 C5614 1.374 . S
C5614 H5588 0.950 . S
C5614 C5610 1.385 . S
C5614 C5613 1.374 . S
C5615 C5612 1.499 . S
C5615 C5616 1.373 . S
C5615 C5617 1.389 . S
C5616 H5589 0.950 . S
C5616 C5602 1.377 . S
C5616 C5615 1.373 . S
C5617 C5601 1.377 . S
C5617 C5615 1.389 . S
C5617 C5618 1.524 . S
C5618 C5617 1.524 . S
C5618 C5619 1.397 . S
C5618 C5623 1.363 . S
C5619 H5590 0.950 . S
C5619 C5618 1.397 . S
C5619 C5620 1.334 . S
C5620 H5591 0.950 . S
C5620 C5619 1.334 . S
C5620 C5621 1.287 . S
C5621 C5620 1.287 . S
C5621 C5622 1.524 . S
C5621 H5624 0.999 . S
C5622 H5592 0.950 . S
C5622 C5621 1.524 . S
C5622 C5623 1.415 . S
C5623 H5593 0.950 . S
C5623 C5618 1.363 . S
C5623 C5622 1.415 . S
H5624 C5621 0.999 . S
H5625 C5606 0.913 . S
H5626 C5644 0.951 . S
H5627 C5646 0.951 . S
H5628 C5648 0.950 . S
H5629 C5649 0.950 . S
H5630 C5651 0.963 . S
H5631 C5654 0.950 . S
H5632 C5655 0.950 . S
H5633 C5657 0.950 . S
H5634 C5658 0.950 . S
H5635 C5659 0.951 . S
H5636 C5661 0.951 . S
H5637 C5663 0.942 1_556 S
H5638 C5664 0.950 . S
H5639 C5666 0.950 . S
H5640 C5669 0.950 . S
H5641 C5670 0.950 . S
H5642 C5672 0.950 . S
H5643 C5673 0.912 1_554 S
C5644 H5626 0.951 . S
C5644 C5645 1.366 . S
C5644 C5646 1.388 . S
C5645 C5644 1.366 . S
C5645 C5649 1.385 . S
C5646 H5627 0.951 . S
C5646 C5644 1.388 . S
C5646 C5647 1.366 . S
C5647 C5646 1.366 . S
C5647 C5648 1.414 . S
C5647 C5650 1.499 . S
C5648 H5628 0.950 . S
C5648 C5647 1.414 . S
C5648 C5649 1.374 . S
C5649 H5629 0.950 . S
C5649 C5645 1.385 . S
C5649 C5648 1.374 . S
C5650 C5647 1.499 . S
C5650 C5651 1.373 . S
C5650 C5652 1.389 . S
C5651 H5630 0.963 . S
C5651 C5650 1.373 . S
C5651 C5667 1.377 . S
C5652 C5650 1.389 . S
C5652 C5653 1.524 . S
C5652 C5666 1.377 . S
C5653 C5652 1.524 . S
C5653 C5654 1.397 . S
C5653 C5658 1.363 . S
C5654 H5631 0.950 . S
C5654 C5653 1.397 . S
C5654 C5655 1.334 . S
C5655 H5632 0.950 . S
C5655 C5654 1.334 . S
C5655 C5656 1.287 . S
C5656 C5655 1.287 . S
C5656 C5657 1.524 . S
C5656 H5675 0.913 . S
C5657 H5633 0.950 . S
C5657 C5656 1.524 . S
C5657 C5658 1.415 . S
C5658 H5634 0.950 . S
C5658 C5653 1.363 . S
C5658 C5657 1.415 . S
C5659 H5635 0.951 . S
C5659 C5660 1.389 . S
C5659 C5661 1.388 . S
C5660 C5659 1.389 . S
C5660 C5664 1.370 1_554 S
C5661 H5636 0.951 . S
C5661 C5659 1.388 . S
C5661 C5662 1.366 . S
C5662 C5661 1.366 . S
C5662 C5663 1.429 . S
C5662 C5665 1.499 . S
C5663 H5637 0.942 1_554 S
C5663 C5662 1.429 . S
C5663 C5664 1.369 1_554 S
C5664 H5638 0.950 . S
C5664 C5660 1.370 1_556 S
C5664 C5663 1.369 1_556 S
C5665 C5662 1.499 . S
C5665 C5666 1.373 . S
C5665 C5667 1.389 . S
C5666 H5639 0.950 . S
C5666 C5652 1.377 . S
C5666 C5665 1.373 . S
C5667 C5651 1.377 . S
C5667 C5665 1.389 . S
C5667 C5668 1.524 1_554 S
C5668 C5667 1.524 1_556 S
C5668 C5669 1.397 . S
C5668 C5673 1.363 . S
C5669 H5640 0.950 . S
C5669 C5668 1.397 . S
C5669 C5670 1.334 . S
C5670 H5641 0.950 . S
C5670 C5669 1.334 . S
C5670 C5671 1.287 . S
C5671 C5670 1.287 . S
C5671 C5672 1.524 . S
C5671 H5674 0.999 . S
C5672 H5642 0.950 . S
C5672 C5671 1.524 . S
C5672 C5673 1.415 . S
C5673 H5643 0.912 1_556 S
C5673 C5668 1.363 . S
C5673 C5672 1.415 . S
H5674 C5671 0.999 . S
H5675 C5656 0.913 . S
H5676 C5694 0.951 . S
H5677 C5696 0.951 . S
H5678 C5698 0.950 . S
H5679 C5699 0.950 . S
H5680 C5701 0.950 . S
H5681 C5704 0.950 . S
H5682 C5705 0.950 . S
H5683 C5707 0.950 . S
H5684 C5708 0.950 . S
H5685 C5709 0.951 . S
H5686 C5711 0.951 . S
H5687 C5713 0.950 . S
H5688 C5714 0.950 . S
H5689 C5716 0.950 . S
H5690 C5719 0.950 . S
H5691 C5720 0.950 . S
H5692 C5722 0.950 . S
H5693 C5723 0.950 . S
C5694 H5676 0.951 . S
C5694 C5695 1.366 . S
C5694 C5696 1.388 . S
C5695 C5694 1.366 . S
C5695 C5699 1.385 . S
C5696 H5677 0.951 . S
C5696 C5694 1.388 . S
C5696 C5697 1.366 . S
C5697 C5696 1.366 . S
C5697 C5698 1.414 . S
C5697 C5700 1.499 . S
C5698 H5678 0.950 . S
C5698 C5697 1.414 . S
C5698 C5699 1.374 . S
C5699 H5679 0.950 . S
C5699 C5695 1.385 . S
C5699 C5698 1.374 . S
C5700 C5697 1.499 . S
C5700 C5701 1.373 . S
C5700 C5702 1.389 . S
C5701 H5680 0.950 . S
C5701 C5700 1.373 . S
C5701 C5717 1.377 . S
C5702 C5700 1.389 . S
C5702 C5703 1.524 . S
C5702 C5716 1.377 . S
C5703 C5702 1.524 . S
C5703 C5704 1.397 . S
C5703 C5708 1.363 . S
C5704 H5681 0.950 . S
C5704 C5703 1.397 . S
C5704 C5705 1.334 . S
C5705 H5682 0.950 . S
C5705 C5704 1.334 . S
C5705 C5706 1.287 . S
C5706 C5705 1.287 . S
C5706 C5707 1.524 . S
C5706 H5725 0.913 . S
C5707 H5683 0.950 . S
C5707 C5706 1.524 . S
C5707 C5708 1.415 . S
C5708 H5684 0.950 . S
C5708 C5703 1.363 . S
C5708 C5707 1.415 . S
C5709 H5685 0.951 . S
C5709 C5710 1.366 . S
C5709 C5711 1.388 . S
C5710 C5709 1.366 . S
C5710 C5714 1.385 . S
C5711 H5686 0.951 . S
C5711 C5709 1.388 . S
C5711 C5712 1.366 . S
C5712 C5711 1.366 . S
C5712 C5713 1.414 . S
C5712 C5715 1.499 . S
C5713 H5687 0.950 . S
C5713 C5712 1.414 . S
C5713 C5714 1.374 . S
C5714 H5688 0.950 . S
C5714 C5710 1.385 . S
C5714 C5713 1.374 . S
C5715 C5712 1.499 . S
C5715 C5716 1.373 . S
C5715 C5717 1.389 . S
C5716 H5689 0.950 . S
C5716 C5702 1.377 . S
C5716 C5715 1.373 . S
C5717 C5701 1.377 . S
C5717 C5715 1.389 . S
C5717 C5718 1.524 . S
C5718 C5717 1.524 . S
C5718 C5719 1.397 . S
C5718 C5723 1.363 . S
C5719 H5690 0.950 . S
C5719 C5718 1.397 . S
C5719 C5720 1.334 . S
C5720 H5691 0.950 . S
C5720 C5719 1.334 . S
C5720 C5721 1.287 . S
C5721 C5720 1.287 . S
C5721 C5722 1.524 . S
C5721 H5724 0.999 . S
C5722 H5692 0.950 . S
C5722 C5721 1.524 . S
C5722 C5723 1.415 . S
C5723 H5693 0.950 . S
C5723 C5718 1.363 . S
C5723 C5722 1.415 . S
H5724 C5721 0.999 . S
H5725 C5706 0.913 . S
H5726 C5744 0.951 . S
H5727 C5746 0.951 . S
H5728 C5748 0.950 . S
H5729 C5749 0.950 . S
H5730 C5751 0.950 . S
H5731 C5754 0.950 . S
H5732 C5755 0.950 . S
H5733 C5757 0.950 . S
H5734 C5758 0.950 . S
H5735 C5759 0.951 . S
H5736 C5761 0.951 . S
H5737 C5763 0.950 . S
H5738 C5764 0.950 . S
H5739 C5766 0.950 . S
H5740 C5769 0.950 . S
H5741 C5770 0.950 . S
H5742 C5772 0.950 . S
H5743 C5773 0.950 . S
C5744 H5726 0.951 . S
C5744 C5745 1.366 . S
C5744 C5746 1.388 . S
C5745 C5744 1.366 . S
C5745 C5749 1.385 . S
C5746 H5727 0.951 . S
C5746 C5744 1.388 . S
C5746 C5747 1.366 . S
C5747 C5746 1.366 . S
C5747 C5748 1.414 . S
C5747 C5750 1.499 . S
C5748 H5728 0.950 . S
C5748 C5747 1.414 . S
C5748 C5749 1.374 . S
C5749 H5729 0.950 . S
C5749 C5745 1.385 . S
C5749 C5748 1.374 . S
C5750 C5747 1.499 . S
C5750 C5751 1.373 . S
C5750 C5752 1.389 . S
C5751 H5730 0.950 . S
C5751 C5750 1.373 . S
C5751 C5767 1.377 . S
C5752 C5750 1.389 . S
C5752 C5753 1.524 . S
C5752 C5766 1.377 . S
C5753 C5752 1.524 . S
C5753 C5754 1.397 . S
C5753 C5758 1.363 . S
C5754 H5731 0.950 . S
C5754 C5753 1.397 . S
C5754 C5755 1.334 . S
C5755 H5732 0.950 . S
C5755 C5754 1.334 . S
C5755 C5756 1.287 . S
C5756 C5755 1.287 . S
C5756 C5757 1.524 . S
C5756 H5775 0.913 . S
C5757 H5733 0.950 . S
C5757 C5756 1.524 . S
C5757 C5758 1.415 . S
C5758 H5734 0.950 . S
C5758 C5753 1.363 . S
C5758 C5757 1.415 . S
C5759 H5735 0.951 . S
C5759 C5760 1.366 . S
C5759 C5761 1.388 . S
C5760 C5759 1.366 . S
C5760 C5764 1.385 . S
C5761 H5736 0.951 . S
C5761 C5759 1.388 . S
C5761 C5762 1.366 . S
C5762 C5761 1.366 . S
C5762 C5763 1.414 . S
C5762 C5765 1.499 . S
C5763 H5737 0.950 . S
C5763 C5762 1.414 . S
C5763 C5764 1.374 . S
C5764 H5738 0.950 . S
C5764 C5760 1.385 . S
C5764 C5763 1.374 . S
C5765 C5762 1.499 . S
C5765 C5766 1.373 . S
C5765 C5767 1.389 . S
C5766 H5739 0.950 . S
C5766 C5752 1.377 . S
C5766 C5765 1.373 . S
C5767 C5751 1.377 . S
C5767 C5765 1.389 . S
C5767 C5768 1.524 . S
C5768 C5767 1.524 . S
C5768 C5769 1.397 . S
C5768 C5773 1.363 . S
C5769 H5740 0.950 . S
C5769 C5768 1.397 . S
C5769 C5770 1.334 . S
C5770 H5741 0.950 . S
C5770 C5769 1.334 . S
C5770 C5771 1.287 . S
C5771 C5770 1.287 . S
C5771 C5772 1.524 . S
C5771 H5774 0.999 . S
C5772 H5742 0.950 . S
C5772 C5771 1.524 . S
C5772 C5773 1.415 . S
C5773 H5743 0.950 . S
C5773 C5768 1.363 . S
C5773 C5772 1.415 . S
H5774 C5771 0.999 . S
H5775 C5756 0.913 . S
C995 C109 1.976 . S
C1010 C349 1.939 . S
C1045 C65 2.039 . S
C1060 C400 2.019 . S
C1095 C75 1.450 . S
C1110 C429 1.436 . S
C1160 C473 1.498 . S
C1145 C84 1.515 . S
C1195 C25 1.369 . S
C1210 C513 1.345 . S
C1260 C549 1.411 . S
C1245 C28 1.426 . S
C1310 C599 1.757 . S
C1295 C47 1.749 . S
C1345 C9 2.145 . S
C1360 C629 2.133 . S
C1410 C359 1.873 . S
C1395 C233 1.892 . S
C1445 C249 0.402 . S
C1460 C402 0.460 . S
C1510 C439 1.193 . S
C1495 C275 1.203 . S
C1560 C469 1.306 . S
C1545 C173 1.320 . S
C1595 C224 1.424 . S
C1610 C509 1.416 . S
C1660 C559 0.857 . S
C1645 C243 0.860 . S
C1710 C593 0.688 . S
C1695 C266 0.681 . S
C1760 C639 1.709 . S
C1745 C179 1.731 . S
C1810 C353 0.995 1_565 S
C1795 C163 1.037 . S
C1845 C289 1.670 . S
C1860 C679 1.657 . S
C1910 C713 1.335 . S
C1895 C333 1.355 . S
C1960 C749 0.835 . S
C1945 C308 0.840 . S
C1995 C123 1.298 . S
C2010 C633 1.267 . S
C2045 C126 1.502 . S
C2060 C433 1.485 . S
C2095 C327 1.615 . S
C2110 C799 1.610 . S
C2160 C818 0.259 . S
C2145 C299 0.180 . S
C2210 C360 1.967 . S
C2195 C67 1.998 . S
C2260 C829 2.066 . S
C2245 C98 2.044 . S
C2295 C89 1.493 . S
C2310 C440 1.481 . S
C2345 C79 1.585 . S
C2360 C802 1.543 . S
C2410 C522 1.367 . S
C2395 C11 1.391 . S
C2445 C51 1.472 . S
C2460 C720 1.463 . S
C2510 C578 1.816 1_556 S
C2495 C33 1.809 . S
C2560 C880 2.139 . S
C2545 C14 2.179 . S
C2610 C338 1.867 . S
C2595 C140 1.898 . S
C2660 C833 0.461 . S
C2645 C319 0.404 . S
C2695 C112 1.219 . S
C2710 C418 1.219 . S
C2745 C285 1.353 . S
C2760 C800 1.341 . S
C2795 C149 1.478 . S
C2810 C520 1.470 . S
C2860 C698 0.919 . S
C2845 C313 0.924 . S
C2895 C121 0.738 . S
C2910 C602 0.739 . S
C2945 C291 1.780 . S
C2960 C858 1.756 . S
C2995 C182 1.017 . S
C3010 C362 0.992 . S
C3045 C168 1.677 . S
C3060 C658 1.687 . S
C3095 C263 1.383 . S
C3110 C562 1.360 . S
C3145 C247 0.900 . S
C3160 C760 0.892 . S
C3210 C882 1.264 . S
C3195 C277 1.301 . S
C3245 C219 1.551 . S
C3260 C442 1.502 . S
C3310 C458 1.662 . S
C3295 C257 1.669 . S
C3360 C399 0.269 . S
C3345 C201 0.198 . S
C3395 C81 1.965 . S
C3410 C909 1.942 . S
C3460 C840 2.020 . S
C3445 C93 2.039 . S
C3495 C103 1.451 . S
C3510 C949 1.438 . S
C3545 C56 1.514 . S
C3560 C793 1.498 . S
C3595 C53 1.370 . S
C3610 C673 1.346 . S
C3660 C709 1.412 . S
C3645 C0 1.426 . S
C3710 C759 1.758 . S
C3695 C19 1.748 . S
C3760 C869 2.133 . S
C3745 C37 2.145 . S
C3810 C919 1.873 . S
C3795 C261 1.892 . S
C3845 C193 0.401 . S
C3860 C842 0.459 . S
C3910 C959 1.193 . S
C3895 C205 1.204 . S
C3960 C789 1.306 . S
C3945 C215 1.320 . S
C4010 C669 1.416 . S
C3995 C252 1.424 . S
C4045 C187 0.860 . S
C4060 C719 0.858 . S
C4110 C753 0.687 . S
C4095 C196 0.681 . S
C4145 C221 1.731 . S
C4160 C879 1.710 . S
C4210 C913 1.013 . S
C4195 C317 1.036 . S
C4245 C135 1.670 . S
C4260 C519 1.657 . S
C4310 C553 1.336 . S
C4295 C151 1.316 1_565 S
C4360 C589 0.835 . S
C4345 C154 0.841 . S
C4410 C873 1.268 . S
C4395 C305 1.299 . S
C4445 C280 1.503 . S
C4460 C953 1.486 . S
C4510 C479 1.609 . S
C4495 C145 1.615 . S
C4560 C378 0.263 . S
C4545 C117 0.180 . S
C4595 C95 1.998 . S
C4610 C920 1.967 . S
C4660 C389 2.066 . S
C4645 C70 2.037 . S
C4695 C61 1.493 . S
C4710 C960 1.481 . S
C4745 C107 1.584 . S
C4760 C482 1.536 . S
C4795 C39 1.391 . S
C4810 C682 1.367 . S
C4860 C560 1.463 . S
C4845 C23 1.472 . S
C4895 C5 1.809 . S
C4910 C738 1.816 . S
C4945 C42 2.179 . S
C4960 C640 2.140 . S
C5010 C898 1.868 . S
C4995 C322 1.898 . S
C5045 C165 0.404 . S
C5060 C393 0.454 . S
C5110 C938 1.219 . S
C5095 C294 1.219 . S
C5145 C131 1.353 . S
C5160 C480 1.341 . S
C5195 C331 1.478 . S
C5210 C680 1.470 . S
C5260 C538 0.919 . S
C5245 C159 0.930 . S
C5295 C303 0.737 . S
C5310 C762 0.738 . S
C5360 C618 1.756 . S
C5345 C137 1.780 . S
C5410 C922 0.993 . S
C5395 C238 1.018 . S
C5460 C498 1.687 . S
C5445 C210 1.676 . S
C5495 C235 1.382 . S
C5510 C722 1.360 . S
C5560 C600 0.892 . S
C5545 C191 0.901 . S
C5595 C207 1.301 . S
C5610 C642 1.263 . S
C5645 C177 1.552 . S
C5660 C962 1.507 . S
C5710 C778 1.662 . S
C5695 C229 1.670 . S
C5760 C839 0.270 . S
C5745 C271 0.198 . S
