# Generated by pormake.
# Topology pyr, (3,6)-cn, num edge types: 1
# Building blocks:
#     Node 0, Type 0, BuildingBlock: WUSLED_clean_sbu_0, # of connection points: 3
#     Node 1, Type 0, BuildingBlock: WUSLED_clean_sbu_0, # of connection points: 3
#     Node 2, Type 0, BuildingBlock: WUSLED_clean_sbu_0, # of connection points: 3
#     Node 3, Type 0, BuildingBlock: WUSLED_clean_sbu_0, # of connection points: 3
#     Node 4, Type 0, BuildingBlock: WUSLED_clean_sbu_0, # of connection points: 3
#     Node 5, Type 0, BuildingBlock: WUSLED_clean_sbu_0, # of connection points: 3
#     Node 6, Type 0, BuildingBlock: WUSLED_clean_sbu_0, # of connection points: 3
#     Node 7, Type 0, BuildingBlock: WUSLED_clean_sbu_0, # of connection points: 3
#     Node 8, Type 1, BuildingBlock: PAMTUU_clean_sbu_0, # of connection points: 6
#     Node 9, Type 1, BuildingBlock: PAMTUU_clean_sbu_0, # of connection points: 6
#     Node 10, Type 1, BuildingBlock: PAMTUU_clean_sbu_0, # of connection points: 6
#     Node 11, Type 1, BuildingBlock: PAMTUU_clean_sbu_0, # of connection points: 6
#     Edge 12, Type (0, 1), BuildingBlock: UVAHIK_clean_linker_0, # of connection points: 2
#     Edge 13, Type (0, 1), BuildingBlock: UVAHIK_clean_linker_0, # of connection points: 2
#     Edge 14, Type (0, 1), BuildingBlock: UVAHIK_clean_linker_0, # of connection points: 2
#     Edge 15, Type (0, 1), BuildingBlock: UVAHIK_clean_linker_0, # of connection points: 2
#     Edge 16, Type (0, 1), BuildingBlock: UVAHIK_clean_linker_0, # of connection points: 2
#     Edge 17, Type (0, 1), BuildingBlock: UVAHIK_clean_linker_0, # of connection points: 2
#     Edge 18, Type (0, 1), BuildingBlock: UVAHIK_clean_linker_0, # of connection points: 2
#     Edge 19, Type (0, 1), BuildingBlock: UVAHIK_clean_linker_0, # of connection points: 2
#     Edge 20, Type (0, 1), BuildingBlock: UVAHIK_clean_linker_0, # of connection points: 2
#     Edge 21, Type (0, 1), BuildingBlock: UVAHIK_clean_linker_0, # of connection points: 2
#     Edge 22, Type (0, 1), BuildingBlock: UVAHIK_clean_linker_0, # of connection points: 2
#     Edge 23, Type (0, 1), BuildingBlock: UVAHIK_clean_linker_0, # of connection points: 2
#     Edge 24, Type (0, 1), BuildingBlock: UVAHIK_clean_linker_0, # of connection points: 2
#     Edge 25, Type (0, 1), BuildingBlock: UVAHIK_clean_linker_0, # of connection points: 2
#     Edge 26, Type (0, 1), BuildingBlock: UVAHIK_clean_linker_0, # of connection points: 2
#     Edge 27, Type (0, 1), BuildingBlock: UVAHIK_clean_linker_0, # of connection points: 2
#     Edge 28, Type (0, 1), BuildingBlock: UVAHIK_clean_linker_0, # of connection points: 2
#     Edge 29, Type (0, 1), BuildingBlock: UVAHIK_clean_linker_0, # of connection points: 2
#     Edge 30, Type (0, 1), BuildingBlock: UVAHIK_clean_linker_0, # of connection points: 2
#     Edge 31, Type (0, 1), BuildingBlock: UVAHIK_clean_linker_0, # of connection points: 2
#     Edge 32, Type (0, 1), BuildingBlock: UVAHIK_clean_linker_0, # of connection points: 2
#     Edge 33, Type (0, 1), BuildingBlock: UVAHIK_clean_linker_0, # of connection points: 2
#     Edge 34, Type (0, 1), BuildingBlock: UVAHIK_clean_linker_0, # of connection points: 2
#     Edge 35, Type (0, 1), BuildingBlock: UVAHIK_clean_linker_0, # of connection points: 2
# Relax obj value: 0.057
# Max RMSD: 0.110
# Mean RMSD: 0.044
data_MOF--net-pyr--node1-WUSLED_clean_sbu_0--node2-PAMTUU_clean_sbu_0--edge1-UVAHIK_clean_linker_0
_symmetry_space_group_name_H-M    P1
_symmetry_Int_Tables_number       1
_symmetry_cell_setting            triclinic
loop_
_symmetry_equiv_pos_as_xyz
'x, y, z'
_cell_length_a     61.131259
_cell_length_b     61.617822
_cell_length_c     60.213723
_cell_angle_alpha  89.677852
_cell_angle_beta   89.510387
_cell_angle_gamma 98.37826
loop_
_atom_site_label
_atom_site_type_symbol
_atom_site_fract_x
_atom_site_fract_y
_atom_site_fract_z
_atom_type_partial_charge
C0 C 0.26106 0.27202 0.1449 0.0
C1 C 0.24286 0.27365 0.15893 0.0
C2 C 0.23754 0.30706 0.13985 0.0
C3 C 0.23105 0.29125 0.15637 0.0
C4 C 0.25612 0.30566 0.12651 0.0
C5 C 0.26784 0.28821 0.12906 0.0
U6 U 0.27356 0.22235 0.17547 0.0
O7 O 0.28711 0.19299 0.16487 0.0
O8 O 0.30513 0.21595 0.18881 0.0
C9 C 0.3053 0.19861 0.17633 0.0
C10 C 0.27413 0.25433 0.14719 0.0
C11 C 0.32607 0.19774 0.16479 0.0
C12 C 0.34824 0.19913 0.13124 0.0
C13 C 0.32949 0.20401 0.1424 0.0
C14 C 0.36114 0.18457 0.16555 0.0
C15 C 0.36334 0.18819 0.14262 0.0
C16 C 0.34241 0.18912 0.17652 0.0
C17 C 0.23768 0.20562 0.22621 0.0
C18 C 0.24626 0.18118 0.25533 0.0
C19 C 0.21548 0.20187 0.25931 0.0
C20 C 0.22005 0.2111 0.23861 0.0
C21 C 0.22867 0.1871 0.268 0.0
C22 C 0.25088 0.19058 0.23437 0.0
C23 C 0.24298 0.21788 0.20596 0.0
O24 O 0.28634 0.25576 0.16507 0.0
O25 O 0.26378 0.23448 0.14325 0.0
O26 O 0.24095 0.2067 0.18736 0.0
O27 O 0.26094 0.23232 0.20713 0.0
H28 H 0.23768 0.26125 0.1715 0.0
H29 H 0.21644 0.29204 0.16649 0.0
H30 H 0.26107 0.3177 0.11356 0.0
H31 H 0.28205 0.28718 0.11846 0.0
H32 H 0.34979 0.2018 0.11345 0.0
H33 H 0.31708 0.21119 0.13331 0.0
H34 H 0.37268 0.17596 0.17441 0.0
H35 H 0.34001 0.18456 0.19387 0.0
H36 H 0.25637 0.16952 0.26167 0.0
H37 H 0.20127 0.20604 0.26832 0.0
H38 H 0.20992 0.2228 0.23236 0.0
H39 H 0.26477 0.18647 0.22479 0.0
C40 C 0.14741 0.80266 0.69544 0.0
C41 C 0.1439 0.82125 0.70767 0.0
C42 C 0.12078 0.83247 0.67776 0.0
C43 C 0.13046 0.83595 0.69895 0.0
C44 C 0.12402 0.81338 0.66624 0.0
C45 C 0.13691 0.7987 0.67507 0.0
U46 U 0.19446 0.77782 0.72773 0.0
O47 O 0.19975 0.74301 0.72802 0.0
O48 O 0.2239 0.76828 0.71115 0.0
C49 C 0.21865 0.74765 0.71717 0.0
C50 C 0.16361 0.78804 0.70124 0.0
C51 C 0.22939 0.73043 0.70644 0.0
C52 C 0.2346 0.70543 0.67622 0.0
C53 C 0.22212 0.72017 0.6865 0.0
C54 C 0.26114 0.71086 0.70598 0.0
C55 C 0.25451 0.70082 0.68573 0.0
C56 C 0.24875 0.72537 0.71614 0.0
C57 C 0.21769 0.80628 0.78274 0.0
C58 C 0.2495 0.80234 0.80537 0.0
C59 C 0.23052 0.83402 0.80971 0.0
C60 C 0.21553 0.82582 0.79361 0.0
C61 C 0.24795 0.82265 0.81551 0.0
C62 C 0.2345 0.79423 0.78886 0.0
C63 C 0.20326 0.80092 0.76373 0.0
O64 O 0.18458 0.79624 0.6992 0.0
O65 O 0.15932 0.77404 0.71783 0.0
O66 O 0.18988 0.78217 0.76378 0.0
O67 O 0.2119 0.80678 0.7442 0.0
H68 H 0.15192 0.8247 0.72349 0.0
H69 H 0.12808 0.85021 0.7086 0.0
H70 H 0.11755 0.81012 0.64975 0.0
H71 H 0.13959 0.78459 0.6653 0.0
H72 H 0.22881 0.69786 0.66076 0.0
H73 H 0.20718 0.72388 0.6787 0.0
H74 H 0.27648 0.70823 0.71368 0.0
H75 H 0.25473 0.73324 0.73142 0.0
H76 H 0.26262 0.79308 0.80975 0.0
H77 H 0.22902 0.84986 0.81676 0.0
H78 H 0.20273 0.83535 0.78887 0.0
H79 H 0.2364 0.77908 0.78053 0.0
C80 C 0.62837 0.41117 0.81164 0.0
C81 C 0.63994 0.43124 0.80376 0.0
C82 C 0.6146 0.43141 0.77185 0.0
C83 C 0.63319 0.4412 0.78412 0.0
C84 C 0.60282 0.41176 0.78074 0.0
C85 C 0.60972 0.40182 0.79993 0.0
U86 U 0.65366 0.38396 0.86669 0.0
O87 O 0.63076 0.36468 0.89095 0.0
O88 O 0.65184 0.34771 0.8689 0.0
C89 C 0.63655 0.34593 0.88454 0.0
C90 C 0.63496 0.39885 0.83145 0.0
C91 C 0.62806 0.32444 0.89567 0.0
C92 C 0.60069 0.29113 0.89787 0.0
C93 C 0.60843 0.31182 0.88835 0.0
C94 C 0.63171 0.29529 0.92279 0.0
C95 C 0.61221 0.28251 0.91518 0.0
C96 C 0.63959 0.31594 0.91308 0.0
C97 C 0.71018 0.41625 0.8937 0.0
C98 C 0.73947 0.41322 0.92022 0.0
C99 C 0.74194 0.4451 0.89617 0.0
C100 C 0.72169 0.43655 0.88668 0.0
C101 C 0.75125 0.43338 0.91281 0.0
C102 C 0.71906 0.40472 0.91078 0.0
C103 C 0.68981 0.40728 0.88177 0.0
O104 O 0.65047 0.38622 0.8301 0.0
O105 O 0.62987 0.40389 0.85186 0.0
O106 O 0.67005 0.40931 0.88956 0.0
O107 O 0.69011 0.39168 0.86705 0.0
H108 H 0.65436 0.43903 0.81252 0.0
H109 H 0.64294 0.45628 0.77838 0.0
H110 H 0.58789 0.40376 0.77313 0.0
H111 H 0.6003 0.38652 0.80566 0.0
H112 H 0.58567 0.28176 0.89159 0.0
H113 H 0.59917 0.31785 0.87497 0.0
H114 H 0.64104 0.28912 0.93603 0.0
H115 H 0.6548 0.3252 0.91908 0.0
H116 H 0.7462 0.40394 0.93317 0.0
H117 H 0.75066 0.46054 0.88998 0.0
H118 H 0.71521 0.44564 0.87341 0.0
H119 H 0.71049 0.38904 0.91649 0.0
C120 C 0.8097 0.63814 0.38649 0.0
C121 C 0.80273 0.64983 0.4046 0.0
C122 C 0.76899 0.62304 0.40865 0.0
C123 C 0.78244 0.64237 0.41551 0.0
C124 C 0.77633 0.61129 0.39086 0.0
C125 C 0.79631 0.61882 0.37989 0.0
U126 U 0.86692 0.66877 0.35826 0.0
O127 O 0.89084 0.6495 0.34262 0.0
O128 O 0.87115 0.66871 0.32159 0.0
C129 C 0.8867 0.6561 0.32249 0.0
C130 C 0.83007 0.64547 0.37312 0.0
C131 C 0.89417 0.64512 0.30229 0.0
C132 C 0.89197 0.61499 0.27559 0.0
C133 C 0.8843 0.62433 0.29508 0.0
C134 C 0.91963 0.64685 0.27053 0.0
C135 C 0.90976 0.62616 0.26281 0.0
C136 C 0.91191 0.65613 0.2898 0.0
C137 C 0.89388 0.7263 0.38777 0.0
C138 C 0.92339 0.75745 0.39017 0.0
C139 C 0.89067 0.75628 0.41332 0.0
C140 C 0.88203 0.73594 0.40417 0.0
C141 C 0.91137 0.76728 0.40631 0.0
C142 C 0.91467 0.73717 0.38093 0.0
C143 C 0.88416 0.70553 0.3771 0.0
O144 O 0.83041 0.66155 0.35865 0.0
O145 O 0.84969 0.64278 0.3805 0.0
O146 O 0.88978 0.68646 0.38275 0.0
O147 O 0.86902 0.70484 0.36168 0.0
H148 H 0.81271 0.66477 0.41008 0.0
H149 H 0.77721 0.65169 0.42928 0.0
H150 H 0.76632 0.59648 0.38506 0.0
H151 H 0.80123 0.60959 0.3659 0.0
H152 H 0.88362 0.59917 0.27037 0.0
H153 H 0.87057 0.61541 0.30436 0.0
H154 H 0.93363 0.65597 0.26186 0.0
H155 H 0.91996 0.67209 0.29501 0.0
H156 H 0.93931 0.76568 0.38439 0.0
H157 H 0.88115 0.7635 0.42579 0.0
H158 H 0.86596 0.72786 0.40971 0.0
H159 H 0.92403 0.73013 0.36818 0.0
C160 C 0.74744 0.7582 0.87856 0.0
C161 C 0.76241 0.75309 0.86221 0.0
C162 C 0.77885 0.73106 0.88924 0.0
C163 C 0.77799 0.73942 0.86752 0.0
C164 C 0.76373 0.73632 0.90532 0.0
C165 C 0.74813 0.74967 0.89996 0.0
U166 U 0.73149 0.80482 0.84491 0.0
O167 O 0.69947 0.81477 0.83685 0.0
O168 O 0.72424 0.83688 0.85564 0.0
C169 C 0.70412 0.83334 0.84762 0.0
C170 C 0.73258 0.77425 0.87463 0.0
C171 C 0.68702 0.83874 0.86249 0.0
C172 C 0.66556 0.83362 0.89654 0.0
C173 C 0.6811 0.82674 0.88208 0.0
C174 C 0.6617 0.86385 0.87142 0.0
C175 C 0.65597 0.85221 0.8911 0.0
C176 C 0.67723 0.85715 0.85719 0.0
C177 C 0.76831 0.82212 0.79468 0.0
C178 C 0.76626 0.85306 0.77029 0.0
C179 C 0.79714 0.83231 0.76782 0.0
C180 C 0.78821 0.81878 0.78488 0.0
C181 C 0.78612 0.84926 0.76022 0.0
C182 C 0.75723 0.83935 0.78762 0.0
C183 C 0.76068 0.80787 0.81309 0.0
O184 O 0.74185 0.79462 0.8775 0.0
O185 O 0.72016 0.7713 0.85686 0.0
O186 O 0.74091 0.79638 0.81121 0.0
O187 O 0.76486 0.81656 0.83272 0.0
H188 H 0.76229 0.75995 0.84561 0.0
H189 H 0.78938 0.73552 0.85476 0.0
H190 H 0.76432 0.73063 0.92232 0.0
H191 H 0.73697 0.75391 0.91277 0.0
H192 H 0.66152 0.82497 0.91209 0.0
H193 H 0.68885 0.81257 0.88636 0.0
H194 H 0.65479 0.87865 0.86753 0.0
H195 H 0.68198 0.86663 0.84226 0.0
H196 H 0.75787 0.86641 0.76474 0.0
H197 H 0.81288 0.82966 0.76072 0.0
H198 H 0.79701 0.8058 0.79062 0.0
H199 H 0.74193 0.84221 0.79553 0.0
C200 C 0.79085 0.24538 0.25122 0.0
C201 C 0.79994 0.22667 0.24478 0.0
C202 C 0.77038 0.21829 0.21809 0.0
C203 C 0.78964 0.21308 0.22811 0.0
C204 C 0.76214 0.23749 0.22389 0.0
C205 C 0.77234 0.25093 0.24029 0.0
U206 U 0.82187 0.26538 0.30644 0.0
O207 O 0.82737 0.30005 0.31708 0.0
O208 O 0.80417 0.27572 0.33553 0.0
C209 C 0.81298 0.29639 0.33354 0.0
C210 C 0.79777 0.25837 0.27082 0.0
C211 C 0.79844 0.31314 0.33859 0.0
C212 C 0.76504 0.33038 0.33423 0.0
C213 C 0.77948 0.31604 0.32641 0.0
C214 C 0.78884 0.33951 0.36566 0.0
C215 C 0.76919 0.34182 0.35444 0.0
C216 C 0.80309 0.3254 0.3579 0.0
C217 C 0.86847 0.23125 0.32875 0.0
C218 C 0.88921 0.22864 0.36278 0.0
C219 C 0.89027 0.20165 0.3339 0.0
C220 C 0.8766 0.21263 0.32086 0.0
C221 C 0.89654 0.20917 0.35525 0.0
C222 C 0.87512 0.23951 0.34969 0.0
C223 C 0.85168 0.23981 0.31505 0.0
O224 O 0.79198 0.24932 0.29017 0.0
O225 O 0.8171 0.27092 0.27063 0.0
O226 O 0.85656 0.25882 0.30477 0.0
O227 O 0.83089 0.2353 0.32139 0.0
H228 H 0.81416 0.22208 0.25324 0.0
H229 H 0.7959 0.19804 0.2239 0.0
H230 H 0.74704 0.24144 0.2166 0.0
H231 H 0.76501 0.26516 0.2453 0.0
H232 H 0.75016 0.33167 0.325 0.0
H233 H 0.77546 0.30679 0.31138 0.0
H234 H 0.79315 0.34837 0.38084 0.0
H235 H 0.81761 0.32353 0.36751 0.0
H236 H 0.89399 0.23528 0.37891 0.0
H237 H 0.89496 0.18662 0.32747 0.0
H238 H 0.87158 0.20592 0.30479 0.0
H239 H 0.86906 0.25393 0.3561 0.0
C240 C 0.30418 0.63008 0.15374 0.0
C241 C 0.29591 0.64306 0.13747 0.0
C242 C 0.26511 0.61368 0.13058 0.0
C243 C 0.27648 0.6349 0.12598 0.0
C244 C 0.27379 0.60089 0.14679 0.0
C245 C 0.29294 0.60905 0.15822 0.0
U246 U 0.36074 0.66088 0.1807 0.0
O247 O 0.36564 0.65916 0.21712 0.0
O248 O 0.3852 0.64121 0.19451 0.0
C249 C 0.38112 0.64655 0.21508 0.0
C250 C 0.32416 0.63732 0.16692 0.0
C251 C 0.3888 0.6345 0.23453 0.0
C252 C 0.38596 0.60425 0.26169 0.0
C253 C 0.37785 0.61429 0.24277 0.0
C254 C 0.41601 0.63422 0.26401 0.0
C255 C 0.40507 0.61429 0.27286 0.0
C256 C 0.40801 0.64408 0.2453 0.0
C257 C 0.3865 0.719 0.14986 0.0
C258 C 0.41439 0.75165 0.14823 0.0
C259 C 0.38571 0.74674 0.12073 0.0
C260 C 0.37678 0.72671 0.13093 0.0
C261 C 0.40482 0.75993 0.1291 0.0
C262 C 0.40539 0.73166 0.15835 0.0
C263 C 0.37684 0.69791 0.1607 0.0
O264 O 0.34378 0.63497 0.15904 0.0
O265 O 0.32426 0.65329 0.18131 0.0
O266 O 0.36293 0.69707 0.17756 0.0
O267 O 0.38243 0.67894 0.15483 0.0
H268 H 0.30429 0.65941 0.13377 0.0
H269 H 0.2702 0.64536 0.11381 0.0
H270 H 0.26598 0.58436 0.15057 0.0
H271 H 0.29906 0.59876 0.17069 0.0
H272 H 0.37695 0.58895 0.26787 0.0
H273 H 0.363 0.6064 0.2348 0.0
H274 H 0.43098 0.64237 0.27154 0.0
H275 H 0.41691 0.65951 0.23926 0.0
H276 H 0.42889 0.76027 0.15596 0.0
H277 H 0.37722 0.75151 0.10629 0.0
H278 H 0.36214 0.71723 0.124 0.0
H279 H 0.41327 0.72612 0.17295 0.0
C280 C 0.1251 0.31663 0.65042 0.0
C281 C 0.1365 0.30958 0.63211 0.0
C282 C 0.10951 0.27582 0.62982 0.0
C283 C 0.12886 0.28932 0.62197 0.0
C284 C 0.09794 0.28379 0.64768 0.0
C285 C 0.10579 0.30361 0.65791 0.0
U286 U 0.15461 0.37372 0.6777 0.0
O287 O 0.13355 0.3962 0.69302 0.0
O288 O 0.15336 0.37721 0.71436 0.0
C289 C 0.13917 0.39126 0.71325 0.0
C290 C 0.13265 0.33691 0.66294 0.0
C291 C 0.13049 0.40128 0.73343 0.0
C292 C 0.10212 0.40157 0.76238 0.0
C293 C 0.11 0.39247 0.74297 0.0
C294 C 0.13497 0.42859 0.76306 0.0
C295 C 0.11452 0.41973 0.7727 0.0
C296 C 0.14287 0.41946 0.74367 0.0
C297 C 0.21256 0.40197 0.6479 0.0
C298 C 0.24546 0.42966 0.64809 0.0
C299 C 0.24117 0.40214 0.61936 0.0
C300 C 0.2208 0.39292 0.62877 0.0
C301 C 0.2539 0.42054 0.62899 0.0
C302 C 0.22498 0.42051 0.65739 0.0
C303 C 0.19157 0.39147 0.65836 0.0
O304 O 0.14865 0.33747 0.67743 0.0
O305 O 0.12925 0.35622 0.6555 0.0
O306 O 0.17222 0.39656 0.65265 0.0
O307 O 0.19112 0.3771 0.67462 0.0
H308 H 0.15146 0.31944 0.62595 0.0
H309 H 0.13856 0.28417 0.60842 0.0
H310 H 0.08255 0.27496 0.65394 0.0
H311 H 0.09662 0.30881 0.67192 0.0
H312 H 0.08636 0.39433 0.76943 0.0
H313 H 0.10014 0.3784 0.73551 0.0
H314 H 0.14492 0.44255 0.77061 0.0
H315 H 0.15872 0.42658 0.73672 0.0
H316 H 0.25467 0.44394 0.65582 0.0
H317 H 0.24722 0.39455 0.60481 0.0
H318 H 0.21159 0.37851 0.62124 0.0
H319 H 0.21895 0.42778 0.67215 0.0
Tb320 Tb 0.03002 0.02389 0.5003 0.0
Tb321 Tb 0.98939 0.01858 0.53313 0.0
C322 C 0.99363 0.98363 0.4971 0.0
C323 C 0.0625 0.04537 0.45292 0.0
C324 C 0.07394 0.07465 0.41815 0.0
C325 C 0.06619 0.05259 0.41371 0.0
C326 C 0.06094 0.03796 0.43105 0.0
C327 C 0.06715 0.06797 0.45729 0.0
C328 C 0.07309 0.08264 0.43984 0.0
C329 C 0.05874 0.02906 0.47062 0.0
O330 O 1.00423 0.03872 0.48346 0.0
O331 O 0.98116 0.04458 0.51216 0.0
O332 O 0.01193 0.04594 0.54684 0.0
O333 O 0.03388 0.05547 0.51651 0.0
O334 O 0.95732 1.00371 0.54161 0.0
O335 O 0.97643 0.02675 0.56346 0.0
O336 O 0.00964 0.99444 0.54424 0.0
O337 O 0.04316 1.00849 0.52887 0.0
O338 O 0.01495 0.98978 0.49808 0.0
O339 O 0.98014 0.9963 0.50535 0.0
C340 C 0.98831 0.04848 0.49185 0.0
O341 O 0.06262 0.03589 0.49089 0.0
O342 O 0.04028 0.01566 0.46884 0.0
C343 C 0.02666 0.05993 0.53622 0.0
C344 C 0.95606 0.99639 0.58008 0.0
C345 C 0.94514 0.96882 0.61631 0.0
C346 C 0.95308 0.99105 0.61963 0.0
C347 C 0.95801 1.00484 0.60158 0.0
C348 C 0.95122 0.97364 0.57683 0.0
C349 C 0.94554 0.95986 0.59497 0.0
C350 C 0.95929 1.01177 0.56156 0.0
C351 C 0.03111 0.99506 0.54262 0.0
H352 H 0.06646 0.04629 0.39695 0.0
H353 H 0.05664 0.02066 0.42741 0.0
H354 H 0.06748 0.07414 0.47411 0.0
H355 H 0.07895 0.09968 0.4435 0.0
H356 H 0.95347 0.99812 0.63609 0.0
H357 H 0.96242 0.02228 0.60441 0.0
H358 H 0.95052 0.96668 0.56033 0.0
H359 H 0.93962 0.94268 0.59207 0.0
Tb360 Tb 0.52405 0.02594 0.04059 0.0
Tb361 Tb 0.49438 1.01339 0.99519 0.0
C362 C 0.54301 1.00635 0.9988 0.0
C363 C 0.56294 0.05835 0.07982 0.0
C364 C 0.59696 0.08997 0.09536 0.0
C365 C 0.60177 0.06969 0.08794 0.0
C366 C 0.58487 0.05394 0.08033 0.0
C367 C 0.55839 0.07911 0.08643 0.0
C368 C 0.57529 0.09476 0.0943 0.0
C369 C 0.54474 0.04073 0.07449 0.0
O370 O 0.52987 0.0553 0.01907 0.0
O371 O 0.51187 0.04592 0.98598 0.0
O372 O 0.47951 0.03631 1.01397 0.0
O373 O 0.48915 0.02204 0.04629 0.0
O374 O 0.49012 0.99499 0.9661 0.0
O375 O 0.46563 1.0149 0.97685 0.0
O376 O 0.48702 0.98495 0.01792 0.0
O377 O 0.50978 0.99207 0.04837 0.0
O378 O 0.54371 1.0079 0.02034 0.0
O379 O 0.52817 1.01351 0.98653 0.0
C380 C 0.52448 0.06003 0.99859 0.0
O381 O 0.52614 0.04674 0.06812 0.0
O382 O 0.54983 0.02428 0.06294 0.0
C383 C 0.47746 0.03424 0.03529 0.0
C384 C 0.45265 0.98228 0.95751 0.0
C385 C 0.4192 0.95021 0.94141 0.0
C386 C 0.41465 0.97132 0.94646 0.0
C387 C 0.4312 0.98716 0.95446 0.0
C388 C 0.4571 0.96091 0.95327 0.0
C389 C 0.44048 0.945 0.94527 0.0
C390 C 0.47047 1.00021 0.96282 0.0
C391 C 0.49489 0.97897 0.03706 0.0
H392 H 0.61841 0.06568 0.08902 0.0
H393 H 0.58888 0.03805 0.07558 0.0
H394 H 0.54166 0.08297 0.08634 0.0
H395 H 0.57138 0.11037 0.10014 0.0
H396 H 0.39854 0.97597 0.94331 0.0
H397 H 0.42739 1.00353 0.95741 0.0
H398 H 0.47351 0.95663 0.95548 0.0
H399 H 0.44438 0.92876 0.94174 0.0
Tb400 Tb 0.51893 0.4992 0.50908 0.0
Tb401 Tb 0.50564 0.54531 0.53299 0.0
C402 C 0.49462 0.53391 0.48131 0.0
C403 C 0.55524 0.46168 0.48029 0.0
C404 C 0.59227 0.44559 0.45968 0.0
C405 C 0.572 0.4454 0.44851 0.0
C406 C 0.55392 0.45333 0.4586 0.0
C407 C 0.57558 0.46249 0.49138 0.0
C408 C 0.59378 0.45466 0.48122 0.0
C409 C 0.53467 0.46698 0.49164 0.0
O410 O 0.54804 0.52358 0.50705 0.0
O411 O 0.53777 0.55694 0.51714 0.0
O412 O 0.5281 0.53187 0.55631 0.0
O413 O 0.52302 0.49585 0.54515 0.0
O414 O 0.49071 0.57395 0.5302 0.0
O415 O 0.50155 0.56381 0.56185 0.0
O416 O 0.4792 0.51903 0.54138 0.0
O417 O 0.48437 0.48928 0.51942 0.0
O418 O 0.50381 0.51579 0.48187 0.0
O419 O 0.49343 0.54627 0.49895 0.0
C420 C 0.5522 0.54496 0.50902 0.0
O421 O 0.53566 0.4718 0.51263 0.0
O422 O 0.52241 0.47918 0.48114 0.0
C423 C 0.52989 0.511 0.55994 0.0
C424 C 0.47002 0.58306 0.56212 0.0
C425 C 0.43293 0.59937 0.58196 0.0
C426 C 0.45261 0.59867 0.59384 0.0
C427 C 0.47076 0.59063 0.58409 0.0
C428 C 0.45022 0.58318 0.55029 0.0
C429 C 0.43196 0.59116 0.56008 0.0
C430 C 0.49072 0.57741 0.55148 0.0
C431 C 0.4726 0.49938 0.5335 0.0
H432 H 0.56967 0.43837 0.43213 0.0
H433 H 0.53852 0.45223 0.44963 0.0
H434 H 0.57737 0.46878 0.50813 0.0
H435 H 0.60903 0.45569 0.4904 0.0
H436 H 0.4544 0.60503 0.61054 0.0
H437 H 0.48577 0.59099 0.5936 0.0
H438 H 0.44892 0.5775 0.5333 0.0
H439 H 0.41708 0.59093 0.55041 0.0
Tb440 Tb 1.00858 0.54494 1.00517 0.0
Tb441 Tb 0.01298 0.49967 0.0286 0.0
C442 C 0.02931 0.50833 0.9793 0.0
C443 C 0.98106 0.58716 0.97851 0.0
C444 C 0.94419 0.60481 0.96308 0.0
C445 C 0.96111 0.60091 0.94833 0.0
C446 C 0.97946 0.59241 0.95604 0.0
C447 C 0.96344 0.58941 0.99309 0.0
C448 C 0.94518 0.59836 0.98544 0.0
C449 C 1.0013 0.57943 0.9861 0.0
O450 O 0.97521 0.5273 1.00715 0.0
O451 O 0.98299 0.49221 1.00937 0.0
O452 O 0.99156 0.5153 0.05138 0.0
O453 O 1.00323 0.55063 0.04058 0.0
O454 O 0.01876 0.46706 0.02623 0.0
O455 O 0.01421 0.48177 0.05809 0.0
O456 O 0.04004 0.52285 0.04043 0.0
O457 O 0.0437 0.54848 1.0126 0.0
O458 O 0.01574 0.52299 0.97823 0.0
O459 O 0.03422 0.50077 0.9988 0.0
C460 C 0.96927 0.50612 1.00504 0.0
O461 O 1.00393 0.57789 1.00743 0.0
O462 O 1.00664 0.56257 0.97562 0.0
C463 C 0.9933 0.53654 0.05522 0.0
C464 C 0.04099 0.45839 0.056 0.0
C465 C 0.07803 0.44187 0.07222 0.0
C466 C 0.06013 0.44374 0.08639 0.0
C467 C 0.04168 0.45189 0.07827 0.0
C468 C 0.05962 0.45799 0.0422 0.0
C469 C 0.07799 0.44958 0.05027 0.0
C470 C 0.02063 0.46536 0.04768 0.0
C471 C 0.05161 0.53933 0.0299 0.0
H472 H 0.96049 0.60496 0.93085 0.0
H473 H 0.99265 0.59028 0.94448 0.0
H474 H 0.96403 0.58493 1.01047 0.0
H475 H 0.93241 0.60111 0.99723 0.0
H476 H 0.05991 0.43781 0.10337 0.0
H477 H 0.02762 0.4525 0.08921 0.0
H478 H 0.05976 0.46349 0.02508 0.0
H479 H 0.09187 0.44844 0.03923 0.0
C480 C 0.21913 0.15352 0.2904 0.0
C481 C 0.22185 0.17632 0.28909 0.0
C482 C 0.20508 0.14272 0.30634 0.0
C483 C 0.15972 0.1555 0.34612 0.0
H484 H 0.14593 0.09262 0.34243 0.0
C485 C 0.08701 0.1089 0.39659 0.0
C486 C 0.08838 0.087 0.40173 0.0
C487 C 0.10224 0.12029 0.38175 0.0
C488 C 0.14983 0.11013 0.3447 0.0
H489 H 0.21606 0.20607 0.30567 0.0
H490 H 0.19251 0.18775 0.33392 0.0
H491 H 0.17804 0.10979 0.32534 0.0
H492 H 0.1073 0.06015 0.39718 0.0
H493 H 0.1344 0.07983 0.37375 0.0
H494 H 0.13243 0.15491 0.36817 0.0
C495 C 0.19923 0.17755 0.32192 0.0
C496 C 0.1685 0.12048 0.33397 0.0
C497 C 0.21331 0.18829 0.30594 0.0
C498 C 0.10534 0.07682 0.39266 0.0
C499 C 0.12088 0.08825 0.37877 0.0
C500 C 0.14185 0.14489 0.35831 0.0
C501 C 0.1933 0.15458 0.32123 0.0
C502 C 0.174 0.14344 0.33436 0.0
C503 C 0.11951 0.11007 0.37272 0.0
C504 C 0.1369 0.12196 0.35809 0.0
H505 H 0.22596 0.14391 0.27778 0.0
H506 H 0.20275 0.12513 0.30534 0.0
H507 H 0.16193 0.17316 0.34641 0.0
H508 H 0.07417 0.11706 0.40389 0.0
H509 H 0.10028 0.13696 0.37755 0.0
C510 C 0.28766 0.83213 0.82585 0.0
C511 C 0.26535 0.83317 0.83053 0.0
C512 C 0.30423 0.84421 0.83825 0.0
C513 C 0.31282 0.889 0.8811 0.0
H514 H 0.37069 0.8706 0.8829 0.0
C515 C 0.37986 0.933 0.93747 0.0
C516 C 0.40206 0.93434 0.93081 0.0
C517 C 0.36336 0.91976 0.92604 0.0
C518 C 0.35481 0.87634 0.88237 0.0
H519 H 0.24284 0.84697 0.85261 0.0
H520 H 0.27136 0.86691 0.87499 0.0
H521 H 0.34208 0.84969 0.862 0.0
H522 H 0.42449 0.92258 0.90716 0.0
H523 H 0.39588 0.9002 0.88669 0.0
H524 H 0.32567 0.91559 0.90172 0.0
C525 C 0.27648 0.85775 0.86111 0.0
C526 C 0.33813 0.86422 0.87015 0.0
C527 C 0.25993 0.84602 0.84838 0.0
C528 C 0.40753 0.92168 0.91287 0.0
C529 C 0.39098 0.90874 0.90114 0.0
C530 C 0.32949 0.90105 0.89342 0.0
C531 C 0.29897 0.85728 0.8561 0.0
C532 C 0.31682 0.8703 0.86928 0.0
C533 C 0.36858 0.90783 0.90736 0.0
C534 C 0.35075 0.89489 0.89428 0.0
H535 H 0.29245 0.82281 0.81189 0.0
H536 H 0.32112 0.8437 0.83312 0.0
H537 H 0.29704 0.89491 0.88052 0.0
H538 H 0.37519 0.94226 0.95153 0.0
H539 H 0.34652 0.91897 0.93202 0.0
C540 C 0.61345 0.46304 0.74341 0.0
C541 C 0.60745 0.44085 0.7499 0.0
C542 C 0.60618 0.47123 0.72308 0.0
C543 C 0.56911 0.45253 0.67248 0.0
H544 H 0.58799 0.51214 0.65313 0.0
C545 C 0.53676 0.48167 0.58784 0.0
C546 C 0.53957 0.50393 0.58151 0.0
C547 C 0.54569 0.47463 0.60769 0.0
C548 C 0.58212 0.49541 0.65799 0.0
H549 H 0.58977 0.41 0.73792 0.0
H550 H 0.57705 0.42356 0.7047 0.0
H551 H 0.60154 0.49955 0.68741 0.0
H552 H 0.55465 0.53622 0.59171 0.0
H553 H 0.5698 0.52443 0.62614 0.0
H554 H 0.54935 0.44831 0.64376 0.0
C555 C 0.58691 0.43547 0.71484 0.0
C556 C 0.59021 0.48793 0.67824 0.0
C557 C 0.59428 0.42736 0.73482 0.0
C558 C 0.55186 0.51893 0.59591 0.0
C559 C 0.56082 0.51191 0.61591 0.0
C560 C 0.56099 0.45999 0.65248 0.0
C561 C 0.59245 0.45768 0.7082 0.0
C562 C 0.58396 0.46617 0.68616 0.0
C563 C 0.55791 0.4895 0.62252 0.0
C564 C 0.56717 0.48164 0.64446 0.0
H565 H 0.62351 0.47438 0.75411 0.0
H566 H 0.61136 0.48838 0.71947 0.0
H567 H 0.56297 0.4358 0.67692 0.0
H568 H 0.5275 0.46942 0.57739 0.0
H569 H 0.54295 0.45721 0.61084 0.0
C570 C 0.92736 0.63033 0.22408 0.0
C571 C 0.91801 0.61664 0.24158 0.0
C572 C 0.93539 0.62173 0.20451 0.0
C573 C 0.94319 0.56671 0.17661 0.0
H574 H 0.96454 0.6063 0.12886 0.0
C575 C 0.97621 0.53122 0.09417 0.0
C576 C 0.9842 0.54513 0.07639 0.0
C577 C 0.96819 0.53961 0.11399 0.0
C578 C 0.95875 0.59447 0.14161 0.0
H579 H 0.91018 0.58252 0.25143 0.0
H580 H 0.92299 0.56757 0.21781 0.0
H581 H 0.95114 0.62053 0.16168 0.0
H582 H 0.98962 0.57917 0.06594 0.0
H583 H 0.97593 0.59364 0.09926 0.0
H584 H 0.95042 0.5406 0.15629 0.0
C585 C 0.92471 0.58519 0.21876 0.0
C586 C 0.95086 0.60302 0.16131 0.0
C587 C 0.91689 0.59386 0.23847 0.0
C588 C 0.98373 0.56773 0.07914 0.0
C589 C 0.97565 0.57614 0.09882 0.0
C590 C 0.95094 0.55814 0.15682 0.0
C591 C 0.93427 0.59884 0.2011 0.0
C592 C 0.94284 0.58945 0.17954 0.0
C593 C 0.96767 0.5624 0.11701 0.0
C594 C 0.95905 0.57172 0.13862 0.0
H595 H 0.92832 0.64796 0.22524 0.0
H596 H 0.94245 0.63357 0.19225 0.0
H597 H 0.93761 0.55498 0.18953 0.0
H598 H 0.97628 0.51371 0.0929 0.0
H599 H 0.96253 0.52776 0.12677 0.0
C600 C 0.37047 0.15178 0.13261 0.0
C601 C 0.3764 0.17442 0.13036 0.0
C602 C 0.38223 0.13776 0.12156 0.0
C603 C 0.42989 0.13692 0.08183 0.0
H604 H 0.42159 0.07793 0.10515 0.0
C605 C 0.47387 0.07267 0.03988 0.0
C606 C 0.46895 0.05102 0.04722 0.0
C607 C 0.46583 0.08904 0.05154 0.0
C608 C 0.42514 0.09423 0.09833 0.0
H609 H 0.39834 0.20065 0.11445 0.0
H610 H 0.42095 0.1763 0.09682 0.0
H611 H 0.4033 0.10351 0.12204 0.0
H612 H 0.45501 0.02903 0.07329 0.0
H613 H 0.44182 0.05679 0.09432 0.0
H614 H 0.45426 0.12857 0.06027 0.0
C615 C 0.40664 0.16896 0.10624 0.0
C616 C 0.41342 0.10921 0.10781 0.0
C617 C 0.39398 0.18309 0.11656 0.0
C618 C 0.45781 0.04577 0.06707 0.0
C619 C 0.44997 0.06206 0.07893 0.0
C620 C 0.44287 0.12227 0.07327 0.0
C621 C 0.40113 0.14601 0.10894 0.0
C622 C 0.41497 0.13062 0.09931 0.0
C623 C 0.45261 0.08387 0.07072 0.0
C624 C 0.44048 0.10042 0.08111 0.0
H625 H 0.35637 0.14489 0.14274 0.0
H626 H 0.37601 0.12049 0.12302 0.0
H627 H 0.4316 0.15303 0.0743 0.0
H628 H 0.48382 0.07694 0.02507 0.0
H629 H 0.4698 0.10531 0.04469 0.0
C630 C 0.09236 0.84261 0.65083 0.0
C631 C 0.1088 0.84906 0.66664 0.0
C632 C 0.08336 0.85808 0.63809 0.0
C633 C 0.08921 0.92028 0.62784 0.0
H634 H 0.04494 0.90072 0.58435 0.0
C635 C 0.05877 0.98476 0.56957 0.0
C636 C 0.04121 0.97857 0.55519 0.0
C637 C 0.06667 0.96911 0.58312 0.0
C638 C 0.05717 0.90711 0.5963 0.0
H639 H 0.12753 0.87744 0.68214 0.0
H640 H 0.11101 0.90403 0.66197 0.0
H641 H 0.05706 0.87487 0.60812 0.0
H642 H 0.01851 0.95128 0.54287 0.0
H643 H 0.03194 0.92411 0.56545 0.0
H644 H 0.0885 0.9526 0.61688 0.0
C645 C 0.10545 0.88714 0.65797 0.0
C646 C 0.0646 0.89161 0.61034 0.0
C647 C 0.11487 0.87159 0.67027 0.0
C648 C 0.0321 0.95643 0.55398 0.0
C649 C 0.04007 0.94071 0.56726 0.0
C650 C 0.08145 0.9358 0.61414 0.0
C651 C 0.08989 0.88085 0.64103 0.0
C652 C 0.08104 0.89771 0.6264 0.0
C653 C 0.05736 0.94662 0.58256 0.0
C654 C 0.06541 0.9297 0.59774 0.0
H655 H 0.08652 0.82544 0.64791 0.0
H656 H 0.07152 0.85158 0.62582 0.0
H657 H 0.10188 0.92663 0.63936 0.0
H658 H 0.06596 1.00184 0.57086 0.0
H659 H 0.08008 0.97525 0.5939 0.0
C660 C 0.7791 0.4632 0.92908 0.0
C661 C 0.77366 0.44158 0.92156 0.0
C662 C 0.80029 0.4707 0.93724 0.0
C663 C 0.85724 0.45242 0.94453 0.0
H664 H 0.86571 0.50413 0.98103 0.0
C665 C 0.94143 0.47702 0.98816 0.0
C666 C 0.94676 0.49812 0.99693 0.0
C667 C 0.92053 0.47024 0.9791 0.0
C668 C 0.86428 0.48979 0.97067 0.0
H669 H 0.78634 0.41112 0.91603 0.0
H670 H 0.82233 0.42326 0.93094 0.0
H671 H 0.83082 0.49317 0.96477 0.0
H672 H 0.93419 0.52855 1.00351 0.0
H673 H 0.89884 0.51765 0.98718 0.0
H674 H 0.89067 0.44905 0.95032 0.0
C675 C 0.81099 0.43511 0.93038 0.0
C676 C 0.84359 0.48333 0.96104 0.0
C677 C 0.78993 0.42778 0.92207 0.0
C678 C 0.93066 0.51216 0.99678 0.0
C679 C 0.90995 0.50559 0.98745 0.0
C680 C 0.87791 0.45887 0.95416 0.0
C681 C 0.81675 0.45674 0.9383 0.0
C682 C 0.83943 0.46432 0.94791 0.0
C683 C 0.90432 0.4845 0.9782 0.0
C684 C 0.88197 0.47763 0.96764 0.0
H685 H 0.76689 0.47429 0.9288 0.0
H686 H 0.80348 0.48759 0.94241 0.0
H687 H 0.85578 0.43816 0.93404 0.0
H688 H 0.95352 0.46579 0.98798 0.0
H689 H 0.91743 0.45366 0.97301 0.0
C690 C 0.74246 0.5943 0.42894 0.0
C691 C 0.74704 0.61529 0.41935 0.0
C692 C 0.72152 0.58664 0.43816 0.0
C693 C 0.66318 0.60277 0.44497 0.0
H694 H 0.65662 0.55216 0.48364 0.0
C695 C 0.5786 0.57554 0.49067 0.0
C696 C 0.57463 0.555 0.50122 0.0
C697 C 0.59933 0.58297 0.48071 0.0
C698 C 0.65744 0.56618 0.47274 0.0
H699 H 0.73305 0.64454 0.41143 0.0
H700 H 0.69723 0.63207 0.42782 0.0
H701 H 0.69119 0.5639 0.46659 0.0
H702 H 0.58953 0.52633 0.5099 0.0
H703 H 0.62433 0.53828 0.49254 0.0
H704 H 0.62937 0.60504 0.45121 0.0
C705 C 0.70921 0.62085 0.42829 0.0
C706 C 0.67804 0.57313 0.46259 0.0
C707 C 0.73013 0.62839 0.41904 0.0
C708 C 0.59195 0.54233 0.50195 0.0
C709 C 0.61241 0.54951 0.49187 0.0
C710 C 0.64255 0.59583 0.45515 0.0
C711 C 0.70426 0.59976 0.43817 0.0
C712 C 0.68162 0.59176 0.44856 0.0
C713 C 0.61676 0.56998 0.48079 0.0
C714 C 0.63908 0.57741 0.46948 0.0
H715 H 0.75514 0.58371 0.42927 0.0
H716 H 0.71916 0.57019 0.44486 0.0
H717 H 0.66416 0.61675 0.43396 0.0
H718 H 0.56551 0.58559 0.48951 0.0
H719 H 0.60128 0.59897 0.47297 0.0
C720 C 0.21938 0.33987 0.14764 0.0
C721 C 0.22298 0.3227 0.13364 0.0
C722 C 0.20476 0.35411 0.14125 0.0
C723 C 0.15925 0.35632 0.10062 0.0
H724 H 0.16307 0.41585 0.1218 0.0
C725 C 0.09982 0.41153 0.06723 0.0
C726 C 0.09545 0.42958 0.07957 0.0
C727 C 0.11573 0.39917 0.07424 0.0
C728 C 0.16134 0.39915 0.11595 0.0
H729 H 0.21554 0.30705 0.10202 0.0
H730 H 0.19142 0.33242 0.0901 0.0
H731 H 0.19069 0.39398 0.13271 0.0
H732 H 0.10353 0.44883 0.10905 0.0
H733 H 0.13042 0.42657 0.1223 0.0
H734 H 0.12981 0.36093 0.08441 0.0
C735 C 0.19858 0.33462 0.10644 0.0
C736 C 0.17742 0.38651 0.12225 0.0
C737 C 0.21269 0.32023 0.11303 0.0
C738 C 0.10687 0.43496 0.09927 0.0
C739 C 0.12251 0.42227 0.10663 0.0
C740 C 0.14319 0.36882 0.09446 0.0
C741 C 0.19381 0.35135 0.12071 0.0
C742 C 0.17675 0.36501 0.11441 0.0
C743 C 0.12725 0.40416 0.09418 0.0
C744 C 0.14407 0.39058 0.10172 0.0
H745 H 0.22758 0.34203 0.16352 0.0
H746 H 0.20158 0.36669 0.15279 0.0
H747 H 0.15736 0.33952 0.09497 0.0
H748 H 0.09084 0.40693 0.05213 0.0
H749 H 0.11905 0.38596 0.06359 0.0
C750 C 0.60786 0.24112 0.91306 0.0
C751 C 0.60422 0.26 0.9246 0.0
C752 C 0.59983 0.21994 0.92128 0.0
C753 C 0.56475 0.18983 0.96936 0.0
H754 H 0.57977 0.13934 0.93831 0.0
C755 C 0.53144 0.10123 1.00278 0.0
C756 C 0.53301 0.08261 0.98982 0.0
C757 C 0.54017 0.12248 0.99526 0.0
C758 C 0.57482 0.15289 0.94737 0.0
H759 H 0.5891 0.27131 0.95402 0.0
H760 H 0.57532 0.23516 0.96859 0.0
H761 H 0.59398 0.17492 0.92519 0.0
H762 H 0.54551 0.0719 0.95877 0.0
H763 H 0.56052 0.10822 0.94544 0.0
H764 H 0.54538 0.16764 0.99143 0.0
C765 C 0.58422 0.23591 0.95301 0.0
C766 C 0.58336 0.17412 0.93962 0.0
C767 C 0.59233 0.2571 0.94472 0.0
C768 C 0.5437 0.08588 0.9691 0.0
C769 C 0.55267 0.10712 0.96159 0.0
C770 C 0.55612 0.16857 0.97705 0.0
C771 C 0.58764 0.21656 0.94152 0.0
C772 C 0.57855 0.19336 0.95027 0.0
C773 C 0.55116 0.12616 0.97443 0.0
C774 C 0.56078 0.14937 0.96625 0.0
H775 H 0.61692 0.24272 0.89746 0.0
H776 H 0.60322 0.20643 0.91117 0.0
H777 H 0.56001 0.20335 0.97862 0.0
H778 H 0.52338 0.09937 0.01891 0.0
H779 H 0.53843 0.13581 1.00636 0.0
C780 C 0.91017 0.80761 0.40963 0.0
C781 C 0.92006 0.78926 0.4153 0.0
C782 C 0.91816 0.82839 0.41809 0.0
C783 C 0.96137 0.85718 0.45863 0.0
H784 H 0.93845 0.90795 0.4359 0.0
C785 C 0.99621 0.9438 0.49179 0.0
C786 C 0.98513 0.96179 0.4877 0.0
C787 C 0.98862 0.92313 0.48287 0.0
C788 C 0.94508 0.89423 0.44304 0.0
H789 H 0.94615 0.77812 0.43419 0.0
H790 H 0.9605 0.81369 0.44866 0.0
H791 H 0.92518 0.87308 0.42141 0.0
H792 H 0.9576 0.97237 0.47065 0.0
H793 H 0.94396 0.93687 0.4554 0.0
H794 H 0.98109 0.87839 0.48046 0.0
C795 C 0.94632 0.81285 0.43804 0.0
C796 C 0.93724 0.87347 0.43439 0.0
C797 C 0.93822 0.79208 0.42954 0.0
C798 C 0.96634 0.95871 0.47431 0.0
C799 C 0.95871 0.93804 0.46526 0.0
C800 C 0.96913 0.87792 0.46735 0.0
C801 C 0.93649 0.83168 0.4326 0.0
C802 C 0.94512 0.85428 0.44193 0.0
C803 C 0.96958 0.9196 0.46937 0.0
C804 C 0.96122 0.89708 0.45982 0.0
H805 H 0.89615 0.80587 0.39856 0.0
H806 H 0.9094 0.84156 0.41318 0.0
H807 H 0.96815 0.84355 0.46573 0.0
H808 H 0.01085 0.94568 0.50202 0.0
H809 H 0.99825 0.91024 0.48652 0.0
C810 C 0.28169 0.67362 0.68667 0.0
C811 C 0.26932 0.68687 0.67431 0.0
C812 C 0.29779 0.66289 0.67653 0.0
C813 C 0.32575 0.65638 0.61966 0.0
H814 H 0.36371 0.62749 0.65698 0.0
C815 C 0.40005 0.62034 0.57941 0.0
C816 C 0.41382 0.60891 0.59225 0.0
C817 C 0.3824 0.62937 0.58907 0.0
C818 C 0.35364 0.63532 0.64575 0.0
H819 H 0.26363 0.69815 0.64109 0.0
H820 H 0.29093 0.67978 0.62336 0.0
H821 H 0.33418 0.64217 0.6732 0.0
H822 H 0.41916 0.59809 0.62579 0.0
H823 H 0.38949 0.61348 0.64251 0.0
H824 H 0.34545 0.64973 0.59223 0.0
C825 C 0.28896 0.67743 0.64103 0.0
C826 C 0.33589 0.64404 0.65545 0.0
C827 C 0.27276 0.68809 0.65125 0.0
C828 C 0.40929 0.60697 0.61517 0.0
C829 C 0.39169 0.61597 0.62488 0.0
C830 C 0.34358 0.64772 0.60995 0.0
C831 C 0.30244 0.66499 0.65346 0.0
C832 C 0.32137 0.6549 0.64275 0.0
C833 C 0.37756 0.62739 0.61213 0.0
C834 C 0.35815 0.63691 0.62268 0.0
H835 H 0.27915 0.6717 0.70443 0.0
H836 H 0.30651 0.65321 0.68735 0.0
H837 H 0.31561 0.6642 0.60848 0.0
H838 H 0.40307 0.62271 0.56177 0.0
H839 H 0.37286 0.63794 0.57795 0.0
C840 C 0.80269 0.88562 0.74624 0.0
C841 C 0.79663 0.86325 0.74251 0.0
C842 C 0.81863 0.89758 0.73272 0.0
C843 C 0.8617 0.88755 0.69029 0.0
H844 H 0.87281 0.95056 0.6934 0.0
C845 C 0.93203 0.93453 0.63765 0.0
C846 C 0.93167 0.95684 0.63377 0.0
C847 C 0.91707 0.92316 0.65268 0.0
C848 C 0.86982 0.93305 0.69118 0.0
H849 H 0.79988 0.83608 0.72072 0.0
H850 H 0.82568 0.85713 0.69573 0.0
H851 H 0.8409 0.93206 0.71053 0.0
H852 H 0.91501 0.98469 0.64154 0.0
H853 H 0.88877 0.96552 0.66573 0.0
H854 H 0.88846 0.88867 0.66789 0.0
C855 C 0.81999 0.86547 0.70992 0.0
C856 C 0.85151 0.92211 0.70215 0.0
C857 C 0.80465 0.85343 0.72385 0.0
C858 C 0.91627 0.96762 0.64488 0.0
C859 C 0.90101 0.95629 0.65918 0.0
C860 C 0.87897 0.8986 0.67771 0.0
C861 C 0.82818 0.88742 0.71483 0.0
C862 C 0.84718 0.89916 0.70209 0.0
C863 C 0.90094 0.9338 0.66342 0.0
C864 C 0.88334 0.92164 0.67783 0.0
H865 H 0.79669 0.89335 0.76074 0.0
H866 H 0.82424 0.91429 0.73755 0.0
H867 H 0.85998 0.86986 0.69049 0.0
H868 H 0.94376 0.9259 0.62904 0.0
H869 H 0.91841 0.90611 0.65548 0.0
C870 C 0.75767 0.20273 0.18161 0.0
C871 C 0.75625 0.20232 0.20475 0.0
C872 C 0.74113 0.19055 0.1691 0.0
C873 C 0.68401 0.1569 0.17701 0.0
H874 H 0.69013 0.15163 0.11364 0.0
C875 C 0.61198 0.10887 0.12909 0.0
C876 C 0.61412 0.10498 0.10647 0.0
C877 C 0.62899 0.12142 0.14044 0.0
C878 C 0.68764 0.15244 0.13131 0.0
H879 H 0.73734 0.18887 0.23332 0.0
H880 H 0.71 0.16624 0.21242 0.0
H881 H 0.7202 0.16919 0.13393 0.0
H882 H 0.63508 0.1112 0.07747 0.0
H883 H 0.66464 0.13317 0.09645 0.0
H884 H 0.65236 0.13909 0.17505 0.0
C885 C 0.7226 0.1765 0.20303 0.0
C886 C 0.70542 0.16318 0.14328 0.0
C887 C 0.73878 0.18907 0.21536 0.0
C888 C 0.63325 0.11412 0.09507 0.0
C889 C 0.65034 0.12684 0.10632 0.0
C890 C 0.66662 0.14555 0.16523 0.0
C891 C 0.72288 0.17752 0.17956 0.0
C892 C 0.70403 0.16566 0.16646 0.0
C893 C 0.64886 0.1305 0.12945 0.0
C894 C 0.66783 0.14304 0.14203 0.0
H895 H 0.77099 0.21327 0.17324 0.0
H896 H 0.74259 0.19235 0.15131 0.0
H897 H 0.681 0.15882 0.19449 0.0
H898 H 0.59728 0.10168 0.13818 0.0
H899 H 0.62595 0.12343 0.15786 0.0
C900 C 0.42242 0.61896 0.31098 0.0
C901 C 0.41348 0.60489 0.29398 0.0
C902 C 0.43105 0.61092 0.33041 0.0
C903 C 0.44327 0.55749 0.35887 0.0
H904 H 0.45921 0.59836 0.40631 0.0
C905 C 0.48074 0.52705 0.44159 0.0
C906 C 0.48524 0.54123 0.45976 0.0
C907 C 0.47196 0.53419 0.4216 0.0
C908 C 0.4549 0.58616 0.39374 0.0
H909 H 0.40678 0.5707 0.28474 0.0
H910 H 0.42088 0.55647 0.31856 0.0
H911 H 0.44403 0.61069 0.3737 0.0
H912 H 0.48384 0.57444 0.47056 0.0
H913 H 0.46886 0.58676 0.43699 0.0
H914 H 0.45318 0.53267 0.37965 0.0
C915 C 0.4218 0.57404 0.31708 0.0
C916 C 0.44615 0.59364 0.37404 0.0
C917 C 0.41329 0.58222 0.29741 0.0
C918 C 0.48062 0.56281 0.45714 0.0
C919 C 0.47193 0.57 0.43725 0.0
C920 C 0.45169 0.54988 0.37883 0.0
C921 C 0.43096 0.58819 0.33426 0.0
C922 C 0.44019 0.57965 0.35584 0.0
C923 C 0.46731 0.55597 0.41873 0.0
C924 C 0.4579 0.56401 0.39694 0.0
H925 H 0.4227 0.63651 0.3094 0.0
H926 H 0.43798 0.62311 0.34213 0.0
H927 H 0.43939 0.54562 0.34586 0.0
H928 H 0.48391 0.51025 0.44281 0.0
H929 H 0.46908 0.52228 0.40851 0.0
C930 C 0.11237 0.42207 0.81452 0.0
C931 C 0.1063 0.42916 0.79359 0.0
C932 C 0.10455 0.43072 0.8342 0.0
C933 C 0.06717 0.47246 0.85512 0.0
H934 H 0.08526 0.45196 0.91172 0.0
C935 C 0.034 0.50811 0.9372 0.0
C936 C 0.03879 0.49996 0.95822 0.0
C937 C 0.04245 0.50005 0.91748 0.0
C938 C 0.07956 0.45817 0.89638 0.0
H939 H 0.08723 0.45103 0.77692 0.0
H940 H 0.07371 0.46622 0.81032 0.0
H941 H 0.09847 0.43757 0.87881 0.0
H942 H 0.05664 0.47662 0.97447 0.0
H943 H 0.0709 0.46245 0.94108 0.0
H944 H 0.04805 0.49288 0.87274 0.0
C945 C 0.0844 0.45395 0.81246 0.0
C946 C 0.08753 0.44961 0.87671 0.0
C947 C 0.09223 0.4452 0.79282 0.0
C948 C 0.05246 0.48347 0.95873 0.0
C949 C 0.06083 0.47526 0.93904 0.0
C950 C 0.05912 0.48094 0.87481 0.0
C951 C 0.09026 0.44699 0.83387 0.0
C952 C 0.0816 0.45643 0.85536 0.0
C953 C 0.05607 0.48323 0.91769 0.0
C954 C 0.065 0.47408 0.89615 0.0
H955 H 0.1232 0.40968 0.81568 0.0
H956 H 0.10999 0.42426 0.84951 0.0
H957 H 0.06162 0.4788 0.83978 0.0
H958 H 0.02359 0.52085 0.93588 0.0
H959 H 0.03801 0.50739 0.90219 0.0
C960 C 0.62002 0.86058 0.90437 0.0
C961 C 0.64278 0.86207 0.90711 0.0
C962 C 0.60832 0.87473 0.91584 0.0
C963 C 0.61836 0.92333 0.95506 0.0
H964 H 0.5589 0.92857 0.93676 0.0
C965 C 0.57726 0.99357 0.98716 0.0
C966 C 0.55438 0.99037 0.98872 0.0
C967 C 0.58762 0.9781 0.97633 0.0
C968 C 0.57537 0.92713 0.94247 0.0
H969 H 0.67165 0.87875 0.92341 0.0
H970 H 0.65255 0.90401 0.94215 0.0
H971 H 0.57661 0.90041 0.92136 0.0
H972 H 0.52379 0.96895 0.98211 0.0
H973 H 0.54177 0.94064 0.96547 0.0
H974 H 0.61659 0.94974 0.97668 0.0
C975 C 0.64247 0.89184 0.93251 0.0
C976 C 0.58586 0.91069 0.93346 0.0
C977 C 0.65383 0.87716 0.92172 0.0
C978 C 0.54168 0.9715 0.9805 0.0
C979 C 0.55201 0.95552 0.97068 0.0
C980 C 0.60781 0.93951 0.96415 0.0
C981 C 0.61948 0.89133 0.92945 0.0
C982 C 0.60768 0.90846 0.93953 0.0
C983 C 0.57514 0.95872 0.96824 0.0
C984 C 0.58625 0.94169 0.95798 0.0
H985 H 0.61146 0.84909 0.89267 0.0
H986 H 0.59073 0.87262 0.91325 0.0
H987 H 0.63467 0.92258 0.96126 0.0
H988 H 0.58696 1.00827 0.99363 0.0
H989 H 0.60535 0.98161 0.97416 0.0
C990 C 0.90535 0.19458 0.3929 0.0
C991 C 0.90912 0.19567 0.36989 0.0
C992 C 0.91518 0.18012 0.40627 0.0
C993 C 0.95257 0.13505 0.40256 0.0
H994 H 0.93451 0.12832 0.46398 0.0
C995 C 0.98551 0.06847 0.45597 0.0
C996 C 0.97872 0.06474 0.47808 0.0
C997 C 0.97766 0.0846 0.44318 0.0
C998 C 0.93993 0.12935 0.4469 0.0
H999 H 0.92771 0.18304 0.34324 0.0
H1000 H 0.94345 0.15746 0.36548 0.0
H1001 H 0.92074 0.15468 0.44216 0.0
H1002 H 0.958 0.07512 0.50417 0.0
H1003 H 0.94393 0.10249 0.48241 0.0
H1004 H 0.97093 0.10908 0.40696 0.0
C1005 C 0.93314 0.16752 0.37403 0.0
C1006 C 0.93192 0.14531 0.43392 0.0
C1007 C 0.92371 0.18235 0.3608 0.0
C1008 C 0.96357 0.07744 0.48708 0.0
C1009 C 0.95555 0.09357 0.47427 0.0
C1010 C 0.96023 0.1188 0.41541 0.0
C1011 C 0.92884 0.16567 0.39714 0.0
C1012 C 0.93799 0.14867 0.41135 0.0
C1013 C 0.96249 0.09774 0.45193 0.0
C1014 C 0.95415 0.11543 0.43799 0.0
H1015 H 0.89415 0.20436 0.40071 0.0
H1016 H 0.91141 0.18048 0.42375 0.0
H1017 H 0.95845 0.13645 0.38564 0.0
H1018 H 0.99723 0.05905 0.44846 0.0
H1019 H 0.98407 0.08646 0.42648 0.0
C1020 C 0.22739 0.59091 0.13013 0.0
C1021 C 0.24421 0.6048 0.11892 0.0
C1022 C 0.20779 0.58257 0.1195 0.0
C1023 C 0.17739 0.5861 0.06415 0.0
H1024 H 0.13277 0.54955 0.09831 0.0
C1025 C 0.08966 0.56155 0.02671 0.0
C1026 C 0.07377 0.54739 0.03871 0.0
C1027 C 0.11086 0.56779 0.03545 0.0
C1028 C 0.14453 0.55961 0.08786 0.0
H1029 H 0.25361 0.62013 0.08717 0.0
H1030 H 0.22005 0.60623 0.0687 0.0
H1031 H 0.16712 0.55962 0.11375 0.0
H1032 H 0.06751 0.52901 0.06949 0.0
H1033 H 0.10295 0.53872 0.08411 0.0
H1034 H 0.1547 0.58501 0.03775 0.0
C1035 C 0.22121 0.60156 0.08585 0.0
C1036 C 0.16516 0.56589 0.09729 0.0
C1037 C 0.24088 0.60987 0.09658 0.0
C1038 C 0.07936 0.53986 0.05959 0.0
C1039 C 0.10032 0.54581 0.06818 0.0
C1040 C 0.15674 0.57947 0.05451 0.0
C1041 C 0.20396 0.58784 0.09709 0.0
C1042 C 0.1821 0.57974 0.08598 0.0
C1043 C 0.11679 0.55993 0.05645 0.0
C1044 C 0.13955 0.56637 0.06627 0.0
H1045 H 0.22902 0.58677 0.14747 0.0
H1046 H 0.19583 0.57235 0.12963 0.0
H1047 H 0.1893 0.59644 0.05404 0.0
H1048 H 0.08583 0.56761 1.01049 0.0
H1049 H 0.12223 0.5788 0.0254 0.0
C1050 C 0.27898 0.43302 0.59636 0.0
C1051 C 0.27602 0.42986 0.61936 0.0
C1052 C 0.29986 0.44098 0.58722 0.0
C1053 C 0.36103 0.45466 0.60326 0.0
H1054 H 0.36587 0.47408 0.54214 0.0
C1055 C 0.44808 0.48539 0.56521 0.0
C1056 C 0.45097 0.48844 0.54224 0.0
C1057 C 0.42705 0.47888 0.57455 0.0
C1058 C 0.36537 0.46846 0.55916 0.0
H1059 H 0.2929 0.4329 0.65084 0.0
H1060 H 0.32865 0.44751 0.63556 0.0
H1061 H 0.3303 0.46275 0.55799 0.0
H1062 H 0.43395 0.48772 0.51098 0.0
H1063 H 0.39756 0.47538 0.52655 0.0
H1064 H 0.39596 0.46043 0.60459 0.0
C1065 C 0.31536 0.4434 0.62396 0.0
C1066 C 0.3443 0.46173 0.56853 0.0
C1067 C 0.2945 0.43524 0.63302 0.0
C1068 C 0.4323 0.48476 0.5287 0.0
C1069 C 0.41114 0.47809 0.53798 0.0
C1070 C 0.38206 0.46142 0.59392 0.0
C1071 C 0.31871 0.44631 0.60075 0.0
C1072 C 0.34152 0.45441 0.5908 0.0
C1073 C 0.40787 0.47513 0.56125 0.0
C1074 C 0.38492 0.46832 0.57151 0.0
H1075 H 0.26507 0.42924 0.58532 0.0
H1076 H 0.3009 0.44236 0.56937 0.0
H1077 H 0.36054 0.44901 0.62027 0.0
H1078 H 0.46217 0.4887 0.57613 0.0
H1079 H 0.42622 0.47759 0.5924 0.0
C1080 C 0.79023 0.69984 0.91052 0.0
C1081 C 0.79576 0.71744 0.89564 0.0
C1082 C 0.80633 0.68788 0.91798 0.0
C1083 C 0.86247 0.67612 0.90447 0.0
H1084 H 0.85947 0.65415 0.96503 0.0
C1085 C 0.93205 0.63452 0.94015 0.0
C1086 C 0.9267 0.61721 0.95541 0.0
C1087 C 0.91609 0.64688 0.93324 0.0
C1088 C 0.86039 0.65985 0.94797 0.0
H1089 H 0.82249 0.73631 0.87681 0.0
H1090 H 0.85073 0.7155 0.88995 0.0
H1091 H 0.83192 0.67575 0.95222 0.0
H1092 H 0.90026 0.59925 0.97536 0.0
H1093 H 0.87217 0.62061 0.96295 0.0
H1094 H 0.89071 0.66009 0.90007 0.0
C1095 C 0.83385 0.7107 0.89559 0.0
C1096 C 0.84458 0.6723 0.94062 0.0
C1097 C 0.81767 0.72261 0.88802 0.0
C1098 C 0.90496 0.61258 0.9637 0.0
C1099 C 0.88888 0.62491 0.95665 0.0
C1100 C 0.87821 0.66363 0.91179 0.0
C1101 C 0.82835 0.69326 0.91073 0.0
C1102 C 0.84542 0.68051 0.91876 0.0
C1103 C 0.89429 0.6422 0.9413 0.0
C1104 C 0.87738 0.65535 0.93362 0.0
H1105 H 0.77339 0.6952 0.91636 0.0
H1106 H 0.80138 0.67423 0.9292 0.0
H1107 H 0.86338 0.68179 0.8874 0.0
H1108 H 0.94878 0.63903 0.93394 0.0
H1109 H 0.9211 0.66043 0.92192 0.0
C1110 C 0.43353 0.79493 0.12684 0.0
C1111 C 0.41451 0.78196 0.11833 0.0
C1112 C 0.44225 0.81533 0.11754 0.0
C1113 C 0.43242 0.85635 0.07105 0.0
H1114 H 0.48339 0.88931 0.09862 0.0
C1115 C 0.46744 0.94392 0.03667 0.0
C1116 C 0.48577 0.95671 0.04642 0.0
C1117 C 0.45898 0.92293 0.04491 0.0
C1118 C 0.46909 0.88091 0.09033 0.0
H1119 H 0.39056 0.78201 0.09163 0.0
H1120 H 0.40531 0.81645 0.07588 0.0
H1121 H 0.46941 0.85442 0.11255 0.0
H1122 H 0.50929 0.95704 0.07307 0.0
H1123 H 0.49514 0.92125 0.08741 0.0
H1124 H 0.43223 0.88304 0.04877 0.0
C1125 C 0.41378 0.81119 0.09012 0.0
C1126 C 0.46071 0.85995 0.09864 0.0
C1127 C 0.405 0.79068 0.09949 0.0
C1128 C 0.49519 0.9478 0.06495 0.0
C1129 C 0.48681 0.92674 0.07321 0.0
C1130 C 0.44081 0.87739 0.06272 0.0
C1131 C 0.43262 0.82431 0.09899 0.0
C1132 C 0.442 0.84698 0.08941 0.0
C1133 C 0.46846 0.91352 0.06338 0.0
C1134 C 0.45937 0.89045 0.07219 0.0
H1135 H 0.44223 0.78983 0.14095 0.0
H1136 H 0.4567 0.82376 0.12551 0.0
H1137 H 0.41819 0.84778 0.06274 0.0
H1138 H 0.45947 0.95012 0.02246 0.0
H1139 H 0.44496 0.91438 0.03631 0.0
C1140 C 0.10743 0.24781 0.59844 0.0
C1141 C 0.10144 0.25354 0.62002 0.0
C1142 C 0.09965 0.22709 0.58959 0.0
C1143 C 0.06094 0.17344 0.6039 0.0
H1144 H 0.08217 0.15787 0.54662 0.0
C1145 C 0.02693 0.0881 0.56666 0.0
C1146 C 0.03524 0.0815 0.54638 0.0
C1147 C 0.03482 0.10871 0.57567 0.0
C1148 C 0.07583 0.16123 0.56277 0.0
H1149 H 0.0829 0.24033 0.64935 0.0
H1150 H 0.06923 0.2059 0.63439 0.0
H1151 H 0.09609 0.19202 0.56162 0.0
H1152 H 0.05861 0.09158 0.51977 0.0
H1153 H 0.07264 0.12625 0.53502 0.0
H1154 H 0.04143 0.14225 0.60551 0.0
C1155 C 0.07958 0.21699 0.62351 0.0
C1156 C 0.08396 0.18178 0.57159 0.0
C1157 C 0.08751 0.23752 0.63237 0.0
C1158 C 0.05173 0.096 0.53546 0.0
C1159 C 0.05979 0.11643 0.54448 0.0
C1160 C 0.05314 0.1527 0.59528 0.0
C1161 C 0.08537 0.21108 0.60185 0.0
C1162 C 0.0767 0.1886 0.59237 0.0
C1163 C 0.05154 0.12353 0.56481 0.0
C1164 C 0.06024 0.14597 0.57438 0.0
H1165 H 0.11783 0.25938 0.58795 0.0
H1166 H 0.1049 0.22425 0.57287 0.0
H1167 H 0.05408 0.1771 0.61973 0.0
H1168 H 0.01411 0.07741 0.57556 0.0
H1169 H 0.02734 0.11261 0.59112 0.0
C1170 C 0.74963 0.35474 0.38805 0.0
C1171 C 0.75271 0.35486 0.36483 0.0
C1172 C 0.73369 0.3658 0.3981 0.0
C1173 C 0.68395 0.39428 0.38413 0.0
H1174 H 0.68577 0.40525 0.44723 0.0
C1175 C 0.61442 0.43629 0.4258 0.0
C1176 C 0.61139 0.4361 0.44902 0.0
C1177 C 0.63193 0.42733 0.41577 0.0
C1178 C 0.68439 0.40216 0.42964 0.0
H1179 H 0.74166 0.36803 0.33419 0.0
H1180 H 0.71466 0.38797 0.35145 0.0
H1181 H 0.71516 0.38979 0.4299 0.0
H1182 H 0.62498 0.42542 0.47968 0.0
H1183 H 0.65471 0.4096 0.46266 0.0
H1184 H 0.65329 0.40656 0.38373 0.0
C1185 C 0.72383 0.37853 0.36217 0.0
C1186 C 0.70173 0.39301 0.41943 0.0
C1187 C 0.73961 0.36709 0.35206 0.0
C1188 C 0.62669 0.42644 0.46179 0.0
C1189 C 0.64411 0.41723 0.45176 0.0
C1190 C 0.66664 0.40343 0.39432 0.0
C1191 C 0.72013 0.37781 0.38546 0.0
C1192 C 0.70191 0.38867 0.3964 0.0
C1193 C 0.64729 0.41744 0.42842 0.0
C1194 C 0.66626 0.40759 0.4174 0.0
H1195 H 0.759 0.3453 0.39864 0.0
H1196 H 0.73169 0.36406 0.41588 0.0
H1197 H 0.6826 0.39105 0.36655 0.0
H1198 H 0.60353 0.44388 0.41512 0.0
H1199 H 0.63335 0.42877 0.39795 0.0
loop_
_geom_bond_atom_site_label_1
_geom_bond_atom_site_label_2
_geom_bond_distance
_geom_bond_site_symmetry_2
_ccdc_geom_bond_type
C0 C1 1.264 . S
C0 C5 1.479 . S
C0 C10 1.465 . S
C1 C0 1.264 . S
C1 C3 1.339 . S
C1 H28 0.931 . S
C2 C3 1.395 . S
C2 C4 1.320 . S
C3 C1 1.339 . S
C3 C2 1.395 . S
C3 H29 0.929 . S
C4 C2 1.320 . S
C4 C5 1.405 . S
C4 H30 0.930 . S
C5 C0 1.479 . S
C5 C4 1.405 . S
C5 H31 0.931 . S
U6 O7 2.454 . S
U6 O8 2.458 . S
U6 C9 2.984 . S
U6 C10 2.847 . S
U6 C23 2.882 . S
U6 O24 2.441 . S
U6 O25 2.420 . S
U6 O26 2.455 . S
U6 O27 2.449 . S
O7 U6 2.454 . S
O7 C9 1.353 . S
O8 U6 2.458 . S
O8 C9 1.286 . S
C9 U6 2.984 . S
C9 O7 1.353 . S
C9 O8 1.286 . S
C9 C11 1.363 . S
C10 C0 1.465 . S
C10 U6 2.847 . S
C10 O24 1.249 . S
C10 O25 1.202 . S
C11 C9 1.363 . S
C11 C13 1.408 . S
C11 C16 1.342 . S
C12 C13 1.310 . S
C12 C15 1.461 . S
C12 H32 0.932 . S
C13 C11 1.408 . S
C13 C12 1.310 . S
C13 H33 0.930 . S
C14 C15 1.474 . S
C14 C16 1.285 . S
C14 H34 0.929 . S
C15 C12 1.461 . S
C15 C14 1.474 . S
C16 C11 1.342 . S
C16 C14 1.285 . S
C16 H35 0.930 . S
C17 C20 1.424 . S
C17 C22 1.245 . S
C17 C23 1.428 . S
C18 C21 1.260 . S
C18 C22 1.477 . S
C18 H36 0.932 . S
C19 C20 1.384 . S
C19 C21 1.479 . S
C19 H37 0.929 . S
C20 C17 1.424 . S
C20 C19 1.384 . S
C20 H38 0.928 . S
C21 C18 1.260 . S
C21 C19 1.479 . S
C22 C17 1.245 . S
C22 C18 1.477 . S
C22 H39 0.932 . S
C23 U6 2.882 . S
C23 C17 1.428 . S
C23 O26 1.301 . S
C23 O27 1.282 . S
O24 U6 2.441 . S
O24 C10 1.249 . S
O25 U6 2.420 . S
O25 C10 1.202 . S
O26 U6 2.455 . S
O26 C23 1.301 . S
O27 U6 2.449 . S
O27 C23 1.282 . S
H28 C1 0.931 . S
H29 C3 0.929 . S
H30 C4 0.930 . S
H31 C5 0.931 . S
H32 C12 0.932 . S
H33 C13 0.930 . S
H34 C14 0.929 . S
H35 C16 0.930 . S
H36 C18 0.932 . S
H37 C19 0.929 . S
H38 C20 0.928 . S
H39 C22 0.932 . S
C40 C41 1.264 . S
C40 C45 1.479 . S
C40 C50 1.465 . S
C41 C40 1.264 . S
C41 C43 1.339 . S
C41 H68 0.931 . S
C42 C43 1.395 . S
C42 C44 1.320 . S
C43 C41 1.339 . S
C43 C42 1.395 . S
C43 H69 0.929 . S
C44 C42 1.320 . S
C44 C45 1.405 . S
C44 H70 0.930 . S
C45 C40 1.479 . S
C45 C44 1.405 . S
C45 H71 0.931 . S
U46 O47 2.454 . S
U46 O48 2.458 . S
U46 C49 2.984 . S
U46 C50 2.847 . S
U46 C63 2.882 . S
U46 O64 2.441 . S
U46 O65 2.420 . S
U46 O66 2.455 . S
U46 O67 2.449 . S
O47 U46 2.454 . S
O47 C49 1.353 . S
O48 U46 2.458 . S
O48 C49 1.286 . S
C49 U46 2.984 . S
C49 O47 1.353 . S
C49 O48 1.286 . S
C49 C51 1.363 . S
C50 C40 1.465 . S
C50 U46 2.847 . S
C50 O64 1.249 . S
C50 O65 1.202 . S
C51 C49 1.363 . S
C51 C53 1.408 . S
C51 C56 1.342 . S
C52 C53 1.310 . S
C52 C55 1.461 . S
C52 H72 0.932 . S
C53 C51 1.408 . S
C53 C52 1.310 . S
C53 H73 0.930 . S
C54 C55 1.474 . S
C54 C56 1.285 . S
C54 H74 0.929 . S
C55 C52 1.461 . S
C55 C54 1.474 . S
C56 C51 1.342 . S
C56 C54 1.285 . S
C56 H75 0.930 . S
C57 C60 1.424 . S
C57 C62 1.245 . S
C57 C63 1.428 . S
C58 C61 1.260 . S
C58 C62 1.477 . S
C58 H76 0.932 . S
C59 C60 1.384 . S
C59 C61 1.479 . S
C59 H77 0.929 . S
C60 C57 1.424 . S
C60 C59 1.384 . S
C60 H78 0.928 . S
C61 C58 1.260 . S
C61 C59 1.479 . S
C62 C57 1.245 . S
C62 C58 1.477 . S
C62 H79 0.932 . S
C63 U46 2.882 . S
C63 C57 1.428 . S
C63 O66 1.301 . S
C63 O67 1.282 . S
O64 U46 2.441 . S
O64 C50 1.249 . S
O65 U46 2.420 . S
O65 C50 1.202 . S
O66 U46 2.455 . S
O66 C63 1.301 . S
O67 U46 2.449 . S
O67 C63 1.282 . S
H68 C41 0.931 . S
H69 C43 0.929 . S
H70 C44 0.930 . S
H71 C45 0.931 . S
H72 C52 0.932 . S
H73 C53 0.930 . S
H74 C54 0.929 . S
H75 C56 0.930 . S
H76 C58 0.932 . S
H77 C59 0.929 . S
H78 C60 0.928 . S
H79 C62 0.932 . S
C80 C81 1.264 . S
C80 C85 1.479 . S
C80 C90 1.465 . S
C81 C80 1.264 . S
C81 C83 1.339 . S
C81 H108 0.931 . S
C82 C83 1.395 . S
C82 C84 1.320 . S
C83 C81 1.339 . S
C83 C82 1.395 . S
C83 H109 0.929 . S
C84 C82 1.320 . S
C84 C85 1.405 . S
C84 H110 0.930 . S
C85 C80 1.479 . S
C85 C84 1.405 . S
C85 H111 0.931 . S
U86 O87 2.454 . S
U86 O88 2.458 . S
U86 C89 2.984 . S
U86 C90 2.847 . S
U86 C103 2.882 . S
U86 O104 2.441 . S
U86 O105 2.420 . S
U86 O106 2.455 . S
U86 O107 2.449 . S
O87 U86 2.454 . S
O87 C89 1.353 . S
O88 U86 2.458 . S
O88 C89 1.286 . S
C89 U86 2.984 . S
C89 O87 1.353 . S
C89 O88 1.286 . S
C89 C91 1.363 . S
C90 C80 1.465 . S
C90 U86 2.847 . S
C90 O104 1.249 . S
C90 O105 1.202 . S
C91 C89 1.363 . S
C91 C93 1.408 . S
C91 C96 1.342 . S
C92 C93 1.310 . S
C92 C95 1.461 . S
C92 H112 0.932 . S
C93 C91 1.408 . S
C93 C92 1.310 . S
C93 H113 0.930 . S
C94 C95 1.474 . S
C94 C96 1.285 . S
C94 H114 0.929 . S
C95 C92 1.461 . S
C95 C94 1.474 . S
C96 C91 1.342 . S
C96 C94 1.285 . S
C96 H115 0.930 . S
C97 C100 1.424 . S
C97 C102 1.245 . S
C97 C103 1.428 . S
C98 C101 1.260 . S
C98 C102 1.477 . S
C98 H116 0.932 . S
C99 C100 1.384 . S
C99 C101 1.479 . S
C99 H117 0.929 . S
C100 C97 1.424 . S
C100 C99 1.384 . S
C100 H118 0.928 . S
C101 C98 1.260 . S
C101 C99 1.479 . S
C102 C97 1.245 . S
C102 C98 1.477 . S
C102 H119 0.932 . S
C103 U86 2.882 . S
C103 C97 1.428 . S
C103 O106 1.301 . S
C103 O107 1.282 . S
O104 U86 2.441 . S
O104 C90 1.249 . S
O105 U86 2.420 . S
O105 C90 1.202 . S
O106 U86 2.455 . S
O106 C103 1.301 . S
O107 U86 2.449 . S
O107 C103 1.282 . S
H108 C81 0.931 . S
H109 C83 0.929 . S
H110 C84 0.930 . S
H111 C85 0.931 . S
H112 C92 0.932 . S
H113 C93 0.930 . S
H114 C94 0.929 . S
H115 C96 0.930 . S
H116 C98 0.932 . S
H117 C99 0.929 . S
H118 C100 0.928 . S
H119 C102 0.932 . S
C120 C121 1.264 . S
C120 C125 1.479 . S
C120 C130 1.465 . S
C121 C120 1.264 . S
C121 C123 1.339 . S
C121 H148 0.931 . S
C122 C123 1.395 . S
C122 C124 1.320 . S
C123 C121 1.339 . S
C123 C122 1.395 . S
C123 H149 0.929 . S
C124 C122 1.320 . S
C124 C125 1.405 . S
C124 H150 0.930 . S
C125 C120 1.479 . S
C125 C124 1.405 . S
C125 H151 0.931 . S
U126 O127 2.454 . S
U126 O128 2.458 . S
U126 C129 2.984 . S
U126 C130 2.847 . S
U126 C143 2.882 . S
U126 O144 2.441 . S
U126 O145 2.420 . S
U126 O146 2.455 . S
U126 O147 2.449 . S
O127 U126 2.454 . S
O127 C129 1.353 . S
O128 U126 2.458 . S
O128 C129 1.286 . S
C129 U126 2.984 . S
C129 O127 1.353 . S
C129 O128 1.286 . S
C129 C131 1.363 . S
C130 C120 1.465 . S
C130 U126 2.847 . S
C130 O144 1.249 . S
C130 O145 1.202 . S
C131 C129 1.363 . S
C131 C133 1.408 . S
C131 C136 1.342 . S
C132 C133 1.310 . S
C132 C135 1.461 . S
C132 H152 0.932 . S
C133 C131 1.408 . S
C133 C132 1.310 . S
C133 H153 0.930 . S
C134 C135 1.474 . S
C134 C136 1.285 . S
C134 H154 0.929 . S
C135 C132 1.461 . S
C135 C134 1.474 . S
C136 C131 1.342 . S
C136 C134 1.285 . S
C136 H155 0.930 . S
C137 C140 1.424 . S
C137 C142 1.245 . S
C137 C143 1.428 . S
C138 C141 1.260 . S
C138 C142 1.477 . S
C138 H156 0.932 . S
C139 C140 1.384 . S
C139 C141 1.479 . S
C139 H157 0.929 . S
C140 C137 1.424 . S
C140 C139 1.384 . S
C140 H158 0.928 . S
C141 C138 1.260 . S
C141 C139 1.479 . S
C142 C137 1.245 . S
C142 C138 1.477 . S
C142 H159 0.932 . S
C143 U126 2.882 . S
C143 C137 1.428 . S
C143 O146 1.301 . S
C143 O147 1.282 . S
O144 U126 2.441 . S
O144 C130 1.249 . S
O145 U126 2.420 . S
O145 C130 1.202 . S
O146 U126 2.455 . S
O146 C143 1.301 . S
O147 U126 2.449 . S
O147 C143 1.282 . S
H148 C121 0.931 . S
H149 C123 0.929 . S
H150 C124 0.930 . S
H151 C125 0.931 . S
H152 C132 0.932 . S
H153 C133 0.930 . S
H154 C134 0.929 . S
H155 C136 0.930 . S
H156 C138 0.932 . S
H157 C139 0.929 . S
H158 C140 0.928 . S
H159 C142 0.932 . S
C160 C161 1.264 . S
C160 C165 1.479 . S
C160 C170 1.465 . S
C161 C160 1.264 . S
C161 C163 1.339 . S
C161 H188 0.931 . S
C162 C163 1.395 . S
C162 C164 1.320 . S
C163 C161 1.339 . S
C163 C162 1.395 . S
C163 H189 0.929 . S
C164 C162 1.320 . S
C164 C165 1.405 . S
C164 H190 0.930 . S
C165 C160 1.479 . S
C165 C164 1.405 . S
C165 H191 0.931 . S
U166 O167 2.454 . S
U166 O168 2.458 . S
U166 C169 2.984 . S
U166 C170 2.847 . S
U166 C183 2.882 . S
U166 O184 2.441 . S
U166 O185 2.420 . S
U166 O186 2.455 . S
U166 O187 2.449 . S
O167 U166 2.454 . S
O167 C169 1.353 . S
O168 U166 2.458 . S
O168 C169 1.286 . S
C169 U166 2.984 . S
C169 O167 1.353 . S
C169 O168 1.286 . S
C169 C171 1.363 . S
C170 C160 1.465 . S
C170 U166 2.847 . S
C170 O184 1.249 . S
C170 O185 1.202 . S
C171 C169 1.363 . S
C171 C173 1.408 . S
C171 C176 1.342 . S
C172 C173 1.310 . S
C172 C175 1.461 . S
C172 H192 0.932 . S
C173 C171 1.408 . S
C173 C172 1.310 . S
C173 H193 0.930 . S
C174 C175 1.474 . S
C174 C176 1.285 . S
C174 H194 0.929 . S
C175 C172 1.461 . S
C175 C174 1.474 . S
C176 C171 1.342 . S
C176 C174 1.285 . S
C176 H195 0.930 . S
C177 C180 1.424 . S
C177 C182 1.245 . S
C177 C183 1.428 . S
C178 C181 1.260 . S
C178 C182 1.477 . S
C178 H196 0.932 . S
C179 C180 1.384 . S
C179 C181 1.479 . S
C179 H197 0.929 . S
C180 C177 1.424 . S
C180 C179 1.384 . S
C180 H198 0.928 . S
C181 C178 1.260 . S
C181 C179 1.479 . S
C182 C177 1.245 . S
C182 C178 1.477 . S
C182 H199 0.932 . S
C183 U166 2.882 . S
C183 C177 1.428 . S
C183 O186 1.301 . S
C183 O187 1.282 . S
O184 U166 2.441 . S
O184 C170 1.249 . S
O185 U166 2.420 . S
O185 C170 1.202 . S
O186 U166 2.455 . S
O186 C183 1.301 . S
O187 U166 2.449 . S
O187 C183 1.282 . S
H188 C161 0.931 . S
H189 C163 0.929 . S
H190 C164 0.930 . S
H191 C165 0.931 . S
H192 C172 0.932 . S
H193 C173 0.930 . S
H194 C174 0.929 . S
H195 C176 0.930 . S
H196 C178 0.932 . S
H197 C179 0.929 . S
H198 C180 0.928 . S
H199 C182 0.932 . S
C200 C201 1.264 . S
C200 C205 1.479 . S
C200 C210 1.465 . S
C201 C200 1.264 . S
C201 C203 1.339 . S
C201 H228 0.931 . S
C202 C203 1.395 . S
C202 C204 1.320 . S
C203 C201 1.339 . S
C203 C202 1.395 . S
C203 H229 0.929 . S
C204 C202 1.320 . S
C204 C205 1.405 . S
C204 H230 0.930 . S
C205 C200 1.479 . S
C205 C204 1.405 . S
C205 H231 0.931 . S
U206 O207 2.454 . S
U206 O208 2.458 . S
U206 C209 2.984 . S
U206 C210 2.847 . S
U206 C223 2.882 . S
U206 O224 2.441 . S
U206 O225 2.420 . S
U206 O226 2.455 . S
U206 O227 2.449 . S
O207 U206 2.454 . S
O207 C209 1.353 . S
O208 U206 2.458 . S
O208 C209 1.286 . S
C209 U206 2.984 . S
C209 O207 1.353 . S
C209 O208 1.286 . S
C209 C211 1.363 . S
C210 C200 1.465 . S
C210 U206 2.847 . S
C210 O224 1.249 . S
C210 O225 1.202 . S
C211 C209 1.363 . S
C211 C213 1.408 . S
C211 C216 1.342 . S
C212 C213 1.310 . S
C212 C215 1.461 . S
C212 H232 0.932 . S
C213 C211 1.408 . S
C213 C212 1.310 . S
C213 H233 0.930 . S
C214 C215 1.474 . S
C214 C216 1.285 . S
C214 H234 0.929 . S
C215 C212 1.461 . S
C215 C214 1.474 . S
C216 C211 1.342 . S
C216 C214 1.285 . S
C216 H235 0.930 . S
C217 C220 1.424 . S
C217 C222 1.245 . S
C217 C223 1.428 . S
C218 C221 1.260 . S
C218 C222 1.477 . S
C218 H236 0.932 . S
C219 C220 1.384 . S
C219 C221 1.479 . S
C219 H237 0.929 . S
C220 C217 1.424 . S
C220 C219 1.384 . S
C220 H238 0.928 . S
C221 C218 1.260 . S
C221 C219 1.479 . S
C222 C217 1.245 . S
C222 C218 1.477 . S
C222 H239 0.932 . S
C223 U206 2.882 . S
C223 C217 1.428 . S
C223 O226 1.301 . S
C223 O227 1.282 . S
O224 U206 2.441 . S
O224 C210 1.249 . S
O225 U206 2.420 . S
O225 C210 1.202 . S
O226 U206 2.455 . S
O226 C223 1.301 . S
O227 U206 2.449 . S
O227 C223 1.282 . S
H228 C201 0.931 . S
H229 C203 0.929 . S
H230 C204 0.930 . S
H231 C205 0.931 . S
H232 C212 0.932 . S
H233 C213 0.930 . S
H234 C214 0.929 . S
H235 C216 0.930 . S
H236 C218 0.932 . S
H237 C219 0.929 . S
H238 C220 0.928 . S
H239 C222 0.932 . S
C240 C241 1.264 . S
C240 C245 1.479 . S
C240 C250 1.465 . S
C241 C240 1.264 . S
C241 C243 1.339 . S
C241 H268 0.931 . S
C242 C243 1.395 . S
C242 C244 1.320 . S
C243 C241 1.339 . S
C243 C242 1.395 . S
C243 H269 0.929 . S
C244 C242 1.320 . S
C244 C245 1.405 . S
C244 H270 0.930 . S
C245 C240 1.479 . S
C245 C244 1.405 . S
C245 H271 0.931 . S
U246 O247 2.454 . S
U246 O248 2.458 . S
U246 C249 2.984 . S
U246 C250 2.847 . S
U246 C263 2.882 . S
U246 O264 2.441 . S
U246 O265 2.420 . S
U246 O266 2.455 . S
U246 O267 2.449 . S
O247 U246 2.454 . S
O247 C249 1.353 . S
O248 U246 2.458 . S
O248 C249 1.286 . S
C249 U246 2.984 . S
C249 O247 1.353 . S
C249 O248 1.286 . S
C249 C251 1.363 . S
C250 C240 1.465 . S
C250 U246 2.847 . S
C250 O264 1.249 . S
C250 O265 1.202 . S
C251 C249 1.363 . S
C251 C253 1.408 . S
C251 C256 1.342 . S
C252 C253 1.310 . S
C252 C255 1.461 . S
C252 H272 0.932 . S
C253 C251 1.408 . S
C253 C252 1.310 . S
C253 H273 0.930 . S
C254 C255 1.474 . S
C254 C256 1.285 . S
C254 H274 0.929 . S
C255 C252 1.461 . S
C255 C254 1.474 . S
C256 C251 1.342 . S
C256 C254 1.285 . S
C256 H275 0.930 . S
C257 C260 1.424 . S
C257 C262 1.245 . S
C257 C263 1.428 . S
C258 C261 1.260 . S
C258 C262 1.477 . S
C258 H276 0.932 . S
C259 C260 1.384 . S
C259 C261 1.479 . S
C259 H277 0.929 . S
C260 C257 1.424 . S
C260 C259 1.384 . S
C260 H278 0.928 . S
C261 C258 1.260 . S
C261 C259 1.479 . S
C262 C257 1.245 . S
C262 C258 1.477 . S
C262 H279 0.932 . S
C263 U246 2.882 . S
C263 C257 1.428 . S
C263 O266 1.301 . S
C263 O267 1.282 . S
O264 U246 2.441 . S
O264 C250 1.249 . S
O265 U246 2.420 . S
O265 C250 1.202 . S
O266 U246 2.455 . S
O266 C263 1.301 . S
O267 U246 2.449 . S
O267 C263 1.282 . S
H268 C241 0.931 . S
H269 C243 0.929 . S
H270 C244 0.930 . S
H271 C245 0.931 . S
H272 C252 0.932 . S
H273 C253 0.930 . S
H274 C254 0.929 . S
H275 C256 0.930 . S
H276 C258 0.932 . S
H277 C259 0.929 . S
H278 C260 0.928 . S
H279 C262 0.932 . S
C280 C281 1.264 . S
C280 C285 1.479 . S
C280 C290 1.465 . S
C281 C280 1.264 . S
C281 C283 1.339 . S
C281 H308 0.931 . S
C282 C283 1.395 . S
C282 C284 1.320 . S
C283 C281 1.339 . S
C283 C282 1.395 . S
C283 H309 0.929 . S
C284 C282 1.320 . S
C284 C285 1.405 . S
C284 H310 0.930 . S
C285 C280 1.479 . S
C285 C284 1.405 . S
C285 H311 0.931 . S
U286 O287 2.454 . S
U286 O288 2.458 . S
U286 C289 2.984 . S
U286 C290 2.847 . S
U286 C303 2.882 . S
U286 O304 2.441 . S
U286 O305 2.420 . S
U286 O306 2.455 . S
U286 O307 2.449 . S
O287 U286 2.454 . S
O287 C289 1.353 . S
O288 U286 2.458 . S
O288 C289 1.286 . S
C289 U286 2.984 . S
C289 O287 1.353 . S
C289 O288 1.286 . S
C289 C291 1.363 . S
C290 C280 1.465 . S
C290 U286 2.847 . S
C290 O304 1.249 . S
C290 O305 1.202 . S
C291 C289 1.363 . S
C291 C293 1.408 . S
C291 C296 1.342 . S
C292 C293 1.310 . S
C292 C295 1.461 . S
C292 H312 0.932 . S
C293 C291 1.408 . S
C293 C292 1.310 . S
C293 H313 0.930 . S
C294 C295 1.474 . S
C294 C296 1.285 . S
C294 H314 0.929 . S
C295 C292 1.461 . S
C295 C294 1.474 . S
C296 C291 1.342 . S
C296 C294 1.285 . S
C296 H315 0.930 . S
C297 C300 1.424 . S
C297 C302 1.245 . S
C297 C303 1.428 . S
C298 C301 1.260 . S
C298 C302 1.477 . S
C298 H316 0.932 . S
C299 C300 1.384 . S
C299 C301 1.479 . S
C299 H317 0.929 . S
C300 C297 1.424 . S
C300 C299 1.384 . S
C300 H318 0.928 . S
C301 C298 1.260 . S
C301 C299 1.479 . S
C302 C297 1.245 . S
C302 C298 1.477 . S
C302 H319 0.932 . S
C303 U286 2.882 . S
C303 C297 1.428 . S
C303 O306 1.301 . S
C303 O307 1.282 . S
O304 U286 2.441 . S
O304 C290 1.249 . S
O305 U286 2.420 . S
O305 C290 1.202 . S
O306 U286 2.455 . S
O306 C303 1.301 . S
O307 U286 2.449 . S
O307 C303 1.282 . S
H308 C281 0.931 . S
H309 C283 0.929 . S
H310 C284 0.930 . S
H311 C285 0.931 . S
H312 C292 0.932 . S
H313 C293 0.930 . S
H314 C294 0.929 . S
H315 C296 0.930 . S
H316 C298 0.932 . S
H317 C299 0.929 . S
H318 C300 0.928 . S
H319 C302 0.932 . S
Tb320 C329 2.764 . S
Tb320 O330 2.325 1_455 S
Tb320 O333 2.303 . S
Tb320 O337 2.322 1_545 S
Tb320 O338 2.349 1_545 S
Tb320 O341 2.415 . S
Tb320 O342 2.399 . S
Tb321 O331 2.322 . S
Tb321 O332 2.349 . S
Tb321 O334 2.415 1_545 S
Tb321 O335 2.401 . S
Tb321 O336 2.325 1_645 S
Tb321 O339 2.303 1_545 S
Tb321 C350 2.764 1_545 S
C322 O338 1.261 1_655 S
C322 O339 1.257 . S
C323 C326 1.358 . S
C323 C327 1.332 . S
C323 C329 1.504 . S
C324 C325 1.373 . S
C324 C328 1.308 . S
C325 C324 1.373 . S
C325 C326 1.429 . S
C325 H352 0.932 . S
C326 C323 1.358 . S
C326 C325 1.429 . S
C326 H353 0.930 . S
C327 C323 1.332 . S
C327 C328 1.394 . S
C327 H354 0.932 . S
C328 C324 1.308 . S
C328 C327 1.394 . S
C328 H355 0.929 . S
C329 Tb320 2.764 . S
C329 C323 1.504 . S
C329 O341 1.239 . S
C329 O342 1.263 . S
O330 Tb320 2.325 1_655 S
O330 C340 1.236 . S
O331 Tb321 2.322 . S
O331 C340 1.257 . S
O332 Tb321 2.349 . S
O332 C343 1.261 1_655 S
O333 Tb320 2.303 . S
O333 C343 1.257 . S
O334 Tb321 2.415 1_565 S
O334 C350 1.239 . S
O335 Tb321 2.401 . S
O335 C350 1.246 1_545 S
O336 Tb321 2.325 1_465 S
O336 C351 1.236 . S
O337 Tb320 2.322 1_565 S
O337 C351 1.257 . S
O338 Tb320 2.349 1_565 S
O338 C322 1.261 1_455 S
O339 Tb321 2.303 1_565 S
O339 C322 1.257 . S
C340 O330 1.236 . S
C340 O331 1.257 . S
O341 Tb320 2.415 . S
O341 C329 1.239 . S
O342 Tb320 2.399 . S
O342 C329 1.263 . S
C343 O332 1.261 1_455 S
C343 O333 1.257 . S
C344 C347 1.358 . S
C344 C348 1.332 . S
C344 C350 1.504 . S
C345 C346 1.373 . S
C345 C349 1.308 . S
C346 C345 1.373 . S
C346 C347 1.429 . S
C346 H356 0.932 . S
C347 C344 1.358 . S
C347 C346 1.429 . S
C347 H357 0.930 . S
C348 C344 1.332 . S
C348 C349 1.394 . S
C348 H358 0.932 . S
C349 C345 1.308 . S
C349 C348 1.394 . S
C349 H359 0.929 . S
C350 Tb321 2.764 1_565 S
C350 O334 1.239 . S
C350 O335 1.246 1_565 S
C350 C344 1.504 . S
C351 O336 1.236 . S
C351 O337 1.257 . S
H352 C325 0.932 . S
H353 C326 0.930 . S
H354 C327 0.932 . S
H355 C328 0.929 . S
H356 C346 0.932 . S
H357 C347 0.930 . S
H358 C348 0.932 . S
H359 C349 0.929 . S
Tb360 C369 2.764 . S
Tb360 O370 2.325 . S
Tb360 O373 2.303 . S
Tb360 O377 2.322 1_545 S
Tb360 O378 2.349 1_545 S
Tb360 O381 2.415 . S
Tb360 O382 2.399 . S
Tb361 O371 2.322 . S
Tb361 O372 2.349 1_556 S
Tb361 O374 2.415 1_545 S
Tb361 O375 2.399 1_545 S
Tb361 O376 2.325 1_546 S
Tb361 O379 2.303 1_545 S
Tb361 C390 2.764 1_545 S
C362 O378 1.261 1_556 S
C362 O379 1.257 . S
C363 C366 1.358 . S
C363 C367 1.332 . S
C363 C369 1.504 . S
C364 C365 1.373 . S
C364 C368 1.308 . S
C365 C364 1.373 . S
C365 C366 1.429 . S
C365 H392 0.932 . S
C366 C363 1.358 . S
C366 C365 1.429 . S
C366 H393 0.930 . S
C367 C363 1.332 . S
C367 C368 1.394 . S
C367 H394 0.932 . S
C368 C364 1.308 . S
C368 C367 1.394 . S
C368 H395 0.929 . S
C369 Tb360 2.764 . S
C369 C363 1.504 . S
C369 O381 1.239 . S
C369 O382 1.263 . S
O370 Tb360 2.325 . S
O370 C380 1.236 1_554 S
O371 Tb361 2.322 . S
O371 C380 1.257 . S
O372 Tb361 2.349 1_554 S
O372 C383 1.261 . S
O373 Tb360 2.303 . S
O373 C383 1.257 . S
O374 Tb361 2.415 1_565 S
O374 C390 1.239 . S
O375 Tb361 2.399 1_565 S
O375 C390 1.263 . S
O376 Tb361 2.325 1_564 S
O376 C391 1.236 . S
O377 Tb360 2.322 1_565 S
O377 C391 1.257 . S
O378 Tb360 2.349 1_565 S
O378 C362 1.261 1_554 S
O379 Tb361 2.303 1_565 S
O379 C362 1.257 . S
C380 O370 1.236 1_556 S
C380 O371 1.257 . S
O381 Tb360 2.415 . S
O381 C369 1.239 . S
O382 Tb360 2.399 . S
O382 C369 1.263 . S
C383 O372 1.261 . S
C383 O373 1.257 . S
C384 C387 1.358 . S
C384 C388 1.332 . S
C384 C390 1.504 . S
C385 C386 1.373 . S
C385 C389 1.308 . S
C386 C385 1.373 . S
C386 C387 1.429 . S
C386 H396 0.932 . S
C387 C384 1.358 . S
C387 C386 1.429 . S
C387 H397 0.930 . S
C388 C384 1.332 . S
C388 C389 1.394 . S
C388 H398 0.932 . S
C389 C385 1.308 . S
C389 C388 1.394 . S
C389 H399 0.929 . S
C390 Tb361 2.764 1_565 S
C390 O374 1.239 . S
C390 O375 1.263 . S
C390 C384 1.504 . S
C391 O376 1.236 . S
C391 O377 1.257 . S
H392 C365 0.932 . S
H393 C366 0.930 . S
H394 C367 0.932 . S
H395 C368 0.929 . S
H396 C386 0.932 . S
H397 C387 0.930 . S
H398 C388 0.932 . S
H399 C389 0.929 . S
Tb400 C409 2.764 . S
Tb400 O410 2.325 . S
Tb400 O413 2.303 . S
Tb400 O417 2.322 . S
Tb400 O418 2.349 . S
Tb400 O421 2.415 . S
Tb400 O422 2.399 . S
Tb401 O411 2.322 . S
Tb401 O412 2.349 . S
Tb401 O414 2.415 . S
Tb401 O415 2.399 . S
Tb401 O416 2.325 . S
Tb401 O419 2.303 . S
Tb401 C430 2.764 . S
C402 O418 1.261 . S
C402 O419 1.257 . S
C403 C406 1.358 . S
C403 C407 1.332 . S
C403 C409 1.504 . S
C404 C405 1.373 . S
C404 C408 1.308 . S
C405 C404 1.373 . S
C405 C406 1.429 . S
C405 H432 0.932 . S
C406 C403 1.358 . S
C406 C405 1.429 . S
C406 H433 0.930 . S
C407 C403 1.332 . S
C407 C408 1.394 . S
C407 H434 0.932 . S
C408 C404 1.308 . S
C408 C407 1.394 . S
C408 H435 0.929 . S
C409 Tb400 2.764 . S
C409 C403 1.504 . S
C409 O421 1.239 . S
C409 O422 1.263 . S
O410 Tb400 2.325 . S
O410 C420 1.236 . S
O411 Tb401 2.322 . S
O411 C420 1.257 . S
O412 Tb401 2.349 . S
O412 C423 1.261 . S
O413 Tb400 2.303 . S
O413 C423 1.257 . S
O414 Tb401 2.415 . S
O414 C430 1.239 . S
O415 Tb401 2.399 . S
O415 C430 1.263 . S
O416 Tb401 2.325 . S
O416 C431 1.236 . S
O417 Tb400 2.322 . S
O417 C431 1.257 . S
O418 Tb400 2.349 . S
O418 C402 1.261 . S
O419 Tb401 2.303 . S
O419 C402 1.257 . S
C420 O410 1.236 . S
C420 O411 1.257 . S
O421 Tb400 2.415 . S
O421 C409 1.239 . S
O422 Tb400 2.399 . S
O422 C409 1.263 . S
C423 O412 1.261 . S
C423 O413 1.257 . S
C424 C427 1.358 . S
C424 C428 1.332 . S
C424 C430 1.504 . S
C425 C426 1.373 . S
C425 C429 1.308 . S
C426 C425 1.373 . S
C426 C427 1.429 . S
C426 H436 0.932 . S
C427 C424 1.358 . S
C427 C426 1.429 . S
C427 H437 0.930 . S
C428 C424 1.332 . S
C428 C429 1.394 . S
C428 H438 0.932 . S
C429 C425 1.308 . S
C429 C428 1.394 . S
C429 H439 0.929 . S
C430 Tb401 2.764 . S
C430 O414 1.239 . S
C430 O415 1.263 . S
C430 C424 1.504 . S
C431 O416 1.236 . S
C431 O417 1.257 . S
H432 C405 0.932 . S
H433 C406 0.930 . S
H434 C407 0.932 . S
H435 C408 0.929 . S
H436 C426 0.932 . S
H437 C427 0.930 . S
H438 C428 0.932 . S
H439 C429 0.929 . S
Tb440 C449 2.764 1_455 S
Tb440 O450 2.325 1_455 S
Tb440 O453 2.303 1_456 S
Tb440 O457 2.305 1_556 S
Tb440 O458 2.349 . S
Tb440 O461 2.415 1_455 S
Tb440 O462 2.399 1_455 S
Tb441 O451 2.322 1_455 S
Tb441 O452 2.349 1_455 S
Tb441 O454 2.415 . S
Tb441 O455 2.399 . S
Tb441 O456 2.325 . S
Tb441 O459 2.303 1_554 S
Tb441 C470 2.764 . S
C442 O458 1.261 . S
C442 O459 1.257 . S
C443 C446 1.358 . S
C443 C447 1.332 . S
C443 C449 1.504 . S
C444 C445 1.373 . S
C444 C448 1.308 . S
C445 C444 1.373 . S
C445 C446 1.429 . S
C445 H472 0.932 . S
C446 C443 1.358 . S
C446 C445 1.429 . S
C446 H473 0.930 . S
C447 C443 1.332 . S
C447 C448 1.394 . S
C447 H474 0.932 . S
C448 C444 1.308 . S
C448 C447 1.394 . S
C448 H475 0.929 . S
C449 Tb440 2.764 1_655 S
C449 C443 1.504 . S
C449 O461 1.239 . S
C449 O462 1.263 . S
O450 Tb440 2.325 1_655 S
O450 C460 1.236 . S
O451 Tb441 2.322 1_655 S
O451 C460 1.257 1_554 S
O452 Tb441 2.349 1_655 S
O452 C463 1.261 . S
O453 Tb440 2.303 1_654 S
O453 C463 1.257 . S
O454 Tb441 2.415 . S
O454 C470 1.239 . S
O455 Tb441 2.399 . S
O455 C470 1.263 . S
O456 Tb441 2.325 . S
O456 C471 1.236 . S
O457 Tb440 2.305 1_554 S
O457 C471 1.286 . S
O458 Tb440 2.349 . S
O458 C442 1.261 . S
O459 Tb441 2.303 1_556 S
O459 C442 1.257 . S
C460 O450 1.236 . S
C460 O451 1.257 1_556 S
O461 Tb440 2.415 1_655 S
O461 C449 1.239 . S
O462 Tb440 2.399 1_655 S
O462 C449 1.263 . S
C463 O452 1.261 . S
C463 O453 1.257 . S
C464 C467 1.358 . S
C464 C468 1.332 . S
C464 C470 1.504 . S
C465 C466 1.373 . S
C465 C469 1.308 . S
C466 C465 1.373 . S
C466 C467 1.429 . S
C466 H476 0.932 . S
C467 C464 1.358 . S
C467 C466 1.429 . S
C467 H477 0.930 . S
C468 C464 1.332 . S
C468 C469 1.394 . S
C468 H478 0.932 . S
C469 C465 1.308 . S
C469 C468 1.394 . S
C469 H479 0.929 . S
C470 Tb441 2.764 . S
C470 O454 1.239 . S
C470 O455 1.263 . S
C470 C464 1.504 . S
C471 O456 1.236 . S
C471 O457 1.286 . S
H472 C445 0.932 . S
H473 C446 0.930 . S
H474 C447 0.932 . S
H475 C448 0.929 . S
H476 C466 0.932 . S
H477 C467 0.930 . S
H478 C468 0.932 . S
H479 C469 0.929 . S
C480 C481 1.349 . S
C480 C482 1.327 . S
C480 H505 0.950 . S
C481 C480 1.349 . S
C481 C497 1.349 . S
C482 C480 1.327 . S
C482 C501 1.429 . S
C482 H506 0.950 . S
C483 C500 1.574 . S
C483 C502 1.368 . S
C483 H507 0.949 . S
H484 C488 0.949 . S
C485 C486 1.349 . S
C485 C487 1.327 . S
C485 H508 0.950 . S
C486 C485 1.349 . S
C486 C498 1.349 . S
C487 C485 1.327 . S
C487 C503 1.429 . S
C487 H509 0.950 . S
C488 H484 0.949 . S
C488 C496 1.574 . S
C488 C504 1.368 . S
H489 C497 0.950 . S
H490 C495 0.950 . S
H491 C496 0.949 . S
H492 C498 0.950 . S
H493 C499 0.950 . S
H494 C500 0.949 . S
C495 H490 0.950 . S
C495 C497 1.327 . S
C495 C501 1.429 . S
C496 C488 1.574 . S
C496 H491 0.949 . S
C496 C502 1.368 . S
C497 C481 1.349 . S
C497 H489 0.950 . S
C497 C495 1.327 . S
C498 C486 1.349 . S
C498 H492 0.950 . S
C498 C499 1.327 . S
C499 H493 0.950 . S
C499 C498 1.327 . S
C499 C503 1.429 . S
C500 C483 1.574 . S
C500 H494 0.949 . S
C500 C504 1.368 . S
C501 C482 1.429 . S
C501 C495 1.429 . S
C501 C502 1.523 . S
C502 C483 1.368 . S
C502 C496 1.368 . S
C502 C501 1.523 . S
C503 C487 1.429 . S
C503 C499 1.429 . S
C503 C504 1.523 . S
C504 C488 1.368 . S
C504 C500 1.368 . S
C504 C503 1.523 . S
H505 C480 0.950 . S
H506 C482 0.950 . S
H507 C483 0.949 . S
H508 C485 0.950 . S
H509 C487 0.950 . S
C510 C511 1.349 . S
C510 C512 1.327 . S
C510 H535 0.950 . S
C511 C510 1.349 . S
C511 C527 1.349 . S
C512 C510 1.327 . S
C512 C531 1.429 . S
C512 H536 0.950 . S
C513 C530 1.574 . S
C513 C532 1.368 . S
C513 H537 0.949 . S
H514 C518 0.949 . S
C515 C516 1.349 . S
C515 C517 1.327 . S
C515 H538 0.950 . S
C516 C515 1.349 . S
C516 C528 1.349 . S
C517 C515 1.327 . S
C517 C533 1.429 . S
C517 H539 0.950 . S
C518 H514 0.949 . S
C518 C526 1.574 . S
C518 C534 1.368 . S
H519 C527 0.950 . S
H520 C525 0.950 . S
H521 C526 0.949 . S
H522 C528 0.950 . S
H523 C529 0.950 . S
H524 C530 0.949 . S
C525 H520 0.950 . S
C525 C527 1.327 . S
C525 C531 1.429 . S
C526 C518 1.574 . S
C526 H521 0.949 . S
C526 C532 1.368 . S
C527 C511 1.349 . S
C527 H519 0.950 . S
C527 C525 1.327 . S
C528 C516 1.349 . S
C528 H522 0.950 . S
C528 C529 1.327 . S
C529 H523 0.950 . S
C529 C528 1.327 . S
C529 C533 1.429 . S
C530 C513 1.574 . S
C530 H524 0.949 . S
C530 C534 1.368 . S
C531 C512 1.429 . S
C531 C525 1.429 . S
C531 C532 1.523 . S
C532 C513 1.368 . S
C532 C526 1.368 . S
C532 C531 1.523 . S
C533 C517 1.429 . S
C533 C529 1.429 . S
C533 C534 1.523 . S
C534 C518 1.368 . S
C534 C530 1.368 . S
C534 C533 1.523 . S
H535 C510 0.950 . S
H536 C512 0.950 . S
H537 C513 0.949 . S
H538 C515 0.950 . S
H539 C517 0.950 . S
C540 C541 1.349 . S
C540 C542 1.327 . S
C540 H565 0.950 . S
C541 C540 1.349 . S
C541 C557 1.349 . S
C542 C540 1.327 . S
C542 C561 1.429 . S
C542 H566 0.950 . S
C543 C560 1.574 . S
C543 C562 1.368 . S
C543 H567 0.949 . S
H544 C548 0.949 . S
C545 C546 1.349 . S
C545 C547 1.327 . S
C545 H568 0.950 . S
C546 C545 1.349 . S
C546 C558 1.349 . S
C547 C545 1.327 . S
C547 C563 1.429 . S
C547 H569 0.950 . S
C548 H544 0.949 . S
C548 C556 1.574 . S
C548 C564 1.368 . S
H549 C557 0.950 . S
H550 C555 0.950 . S
H551 C556 0.949 . S
H552 C558 0.950 . S
H553 C559 0.950 . S
H554 C560 0.949 . S
C555 H550 0.950 . S
C555 C557 1.327 . S
C555 C561 1.429 . S
C556 C548 1.574 . S
C556 H551 0.949 . S
C556 C562 1.368 . S
C557 C541 1.349 . S
C557 H549 0.950 . S
C557 C555 1.327 . S
C558 C546 1.349 . S
C558 H552 0.950 . S
C558 C559 1.327 . S
C559 H553 0.950 . S
C559 C558 1.327 . S
C559 C563 1.429 . S
C560 C543 1.574 . S
C560 H554 0.949 . S
C560 C564 1.368 . S
C561 C542 1.429 . S
C561 C555 1.429 . S
C561 C562 1.523 . S
C562 C543 1.368 . S
C562 C556 1.368 . S
C562 C561 1.523 . S
C563 C547 1.429 . S
C563 C559 1.429 . S
C563 C564 1.523 . S
C564 C548 1.368 . S
C564 C560 1.368 . S
C564 C563 1.523 . S
H565 C540 0.950 . S
H566 C542 0.950 . S
H567 C543 0.949 . S
H568 C545 0.950 . S
H569 C547 0.950 . S
C570 C571 1.349 . S
C570 C572 1.327 . S
C570 H595 0.950 . S
C571 C570 1.349 . S
C571 C587 1.349 . S
C572 C570 1.327 . S
C572 C591 1.429 . S
C572 H596 0.950 . S
C573 C590 1.574 . S
C573 C592 1.368 . S
C573 H597 0.949 . S
H574 C578 0.949 . S
C575 C576 1.349 . S
C575 C577 1.327 . S
C575 H598 0.950 . S
C576 C575 1.349 . S
C576 C588 1.349 . S
C577 C575 1.327 . S
C577 C593 1.429 . S
C577 H599 0.950 . S
C578 H574 0.949 . S
C578 C586 1.574 . S
C578 C594 1.368 . S
H579 C587 0.950 . S
H580 C585 0.950 . S
H581 C586 0.949 . S
H582 C588 0.950 . S
H583 C589 0.950 . S
H584 C590 0.949 . S
C585 H580 0.950 . S
C585 C587 1.327 . S
C585 C591 1.429 . S
C586 C578 1.574 . S
C586 H581 0.949 . S
C586 C592 1.368 . S
C587 C571 1.349 . S
C587 H579 0.950 . S
C587 C585 1.327 . S
C588 C576 1.349 . S
C588 H582 0.950 . S
C588 C589 1.327 . S
C589 H583 0.950 . S
C589 C588 1.327 . S
C589 C593 1.429 . S
C590 C573 1.574 . S
C590 H584 0.949 . S
C590 C594 1.368 . S
C591 C572 1.429 . S
C591 C585 1.429 . S
C591 C592 1.523 . S
C592 C573 1.368 . S
C592 C586 1.368 . S
C592 C591 1.523 . S
C593 C577 1.429 . S
C593 C589 1.429 . S
C593 C594 1.523 . S
C594 C578 1.368 . S
C594 C590 1.368 . S
C594 C593 1.523 . S
H595 C570 0.950 . S
H596 C572 0.950 . S
H597 C573 0.949 . S
H598 C575 0.950 . S
H599 C577 0.950 . S
C600 C601 1.349 . S
C600 C602 1.327 . S
C600 H625 0.950 . S
C601 C600 1.349 . S
C601 C617 1.349 . S
C602 C600 1.327 . S
C602 C621 1.429 . S
C602 H626 0.950 . S
C603 C620 1.574 . S
C603 C622 1.368 . S
C603 H627 0.949 . S
H604 C608 0.949 . S
C605 C606 1.349 . S
C605 C607 1.327 . S
C605 H628 0.950 . S
C606 C605 1.349 . S
C606 C618 1.349 . S
C607 C605 1.327 . S
C607 C623 1.429 . S
C607 H629 0.950 . S
C608 H604 0.949 . S
C608 C616 1.574 . S
C608 C624 1.368 . S
H609 C617 0.950 . S
H610 C615 0.950 . S
H611 C616 0.949 . S
H612 C618 0.950 . S
H613 C619 0.950 . S
H614 C620 0.949 . S
C615 H610 0.950 . S
C615 C617 1.327 . S
C615 C621 1.429 . S
C616 C608 1.574 . S
C616 H611 0.949 . S
C616 C622 1.368 . S
C617 C601 1.349 . S
C617 H609 0.950 . S
C617 C615 1.327 . S
C618 C606 1.349 . S
C618 H612 0.950 . S
C618 C619 1.327 . S
C619 H613 0.950 . S
C619 C618 1.327 . S
C619 C623 1.429 . S
C620 C603 1.574 . S
C620 H614 0.949 . S
C620 C624 1.368 . S
C621 C602 1.429 . S
C621 C615 1.429 . S
C621 C622 1.523 . S
C622 C603 1.368 . S
C622 C616 1.368 . S
C622 C621 1.523 . S
C623 C607 1.429 . S
C623 C619 1.429 . S
C623 C624 1.523 . S
C624 C608 1.368 . S
C624 C620 1.368 . S
C624 C623 1.523 . S
H625 C600 0.950 . S
H626 C602 0.950 . S
H627 C603 0.949 . S
H628 C605 0.950 . S
H629 C607 0.950 . S
C630 C631 1.349 . S
C630 C632 1.327 . S
C630 H655 0.950 . S
C631 C630 1.349 . S
C631 C647 1.349 . S
C632 C630 1.327 . S
C632 C651 1.429 . S
C632 H656 0.950 . S
C633 C650 1.574 . S
C633 C652 1.368 . S
C633 H657 0.949 . S
H634 C638 0.949 . S
C635 C636 1.349 . S
C635 C637 1.327 . S
C635 H658 0.950 . S
C636 C635 1.349 . S
C636 C648 1.349 . S
C637 C635 1.327 . S
C637 C653 1.429 . S
C637 H659 0.950 . S
C638 H634 0.949 . S
C638 C646 1.574 . S
C638 C654 1.368 . S
H639 C647 0.950 . S
H640 C645 0.950 . S
H641 C646 0.949 . S
H642 C648 0.950 . S
H643 C649 0.950 . S
H644 C650 0.949 . S
C645 H640 0.950 . S
C645 C647 1.327 . S
C645 C651 1.429 . S
C646 C638 1.574 . S
C646 H641 0.949 . S
C646 C652 1.368 . S
C647 C631 1.349 . S
C647 H639 0.950 . S
C647 C645 1.327 . S
C648 C636 1.349 . S
C648 H642 0.950 . S
C648 C649 1.327 . S
C649 H643 0.950 . S
C649 C648 1.327 . S
C649 C653 1.429 . S
C650 C633 1.574 . S
C650 H644 0.949 . S
C650 C654 1.368 . S
C651 C632 1.429 . S
C651 C645 1.429 . S
C651 C652 1.523 . S
C652 C633 1.368 . S
C652 C646 1.368 . S
C652 C651 1.523 . S
C653 C637 1.429 . S
C653 C649 1.429 . S
C653 C654 1.523 . S
C654 C638 1.368 . S
C654 C650 1.368 . S
C654 C653 1.523 . S
H655 C630 0.950 . S
H656 C632 0.950 . S
H657 C633 0.949 . S
H658 C635 0.950 . S
H659 C637 0.950 . S
C660 C661 1.349 . S
C660 C662 1.327 . S
C660 H685 0.950 . S
C661 C660 1.349 . S
C661 C677 1.349 . S
C662 C660 1.327 . S
C662 C681 1.429 . S
C662 H686 0.950 . S
C663 C680 1.574 . S
C663 C682 1.368 . S
C663 H687 0.949 . S
H664 C668 0.949 . S
C665 C666 1.349 . S
C665 C667 1.327 . S
C665 H688 0.950 . S
C666 C665 1.349 . S
C666 C678 1.349 . S
C667 C665 1.327 . S
C667 C683 1.429 . S
C667 H689 0.950 . S
C668 H664 0.949 . S
C668 C676 1.574 . S
C668 C684 1.368 . S
H669 C677 0.950 . S
H670 C675 0.950 . S
H671 C676 0.949 . S
H672 C678 0.950 . S
H673 C679 0.950 . S
H674 C680 0.949 . S
C675 H670 0.950 . S
C675 C677 1.327 . S
C675 C681 1.429 . S
C676 C668 1.574 . S
C676 H671 0.949 . S
C676 C682 1.368 . S
C677 C661 1.349 . S
C677 H669 0.950 . S
C677 C675 1.327 . S
C678 C666 1.349 . S
C678 H672 0.950 . S
C678 C679 1.327 . S
C679 H673 0.950 . S
C679 C678 1.327 . S
C679 C683 1.429 . S
C680 C663 1.574 . S
C680 H674 0.949 . S
C680 C684 1.368 . S
C681 C662 1.429 . S
C681 C675 1.429 . S
C681 C682 1.523 . S
C682 C663 1.368 . S
C682 C676 1.368 . S
C682 C681 1.523 . S
C683 C667 1.429 . S
C683 C679 1.429 . S
C683 C684 1.523 . S
C684 C668 1.368 . S
C684 C680 1.368 . S
C684 C683 1.523 . S
H685 C660 0.950 . S
H686 C662 0.950 . S
H687 C663 0.949 . S
H688 C665 0.950 . S
H689 C667 0.950 . S
C690 C691 1.349 . S
C690 C692 1.327 . S
C690 H715 0.950 . S
C691 C690 1.349 . S
C691 C707 1.349 . S
C692 C690 1.327 . S
C692 C711 1.429 . S
C692 H716 0.950 . S
C693 C710 1.574 . S
C693 C712 1.368 . S
C693 H717 0.949 . S
H694 C698 0.949 . S
C695 C696 1.349 . S
C695 C697 1.327 . S
C695 H718 0.950 . S
C696 C695 1.349 . S
C696 C708 1.349 . S
C697 C695 1.327 . S
C697 C713 1.429 . S
C697 H719 0.950 . S
C698 H694 0.949 . S
C698 C706 1.574 . S
C698 C714 1.368 . S
H699 C707 0.950 . S
H700 C705 0.950 . S
H701 C706 0.949 . S
H702 C708 0.950 . S
H703 C709 0.950 . S
H704 C710 0.949 . S
C705 H700 0.950 . S
C705 C707 1.327 . S
C705 C711 1.429 . S
C706 C698 1.574 . S
C706 H701 0.949 . S
C706 C712 1.368 . S
C707 C691 1.349 . S
C707 H699 0.950 . S
C707 C705 1.327 . S
C708 C696 1.349 . S
C708 H702 0.950 . S
C708 C709 1.327 . S
C709 H703 0.950 . S
C709 C708 1.327 . S
C709 C713 1.429 . S
C710 C693 1.574 . S
C710 H704 0.949 . S
C710 C714 1.368 . S
C711 C692 1.429 . S
C711 C705 1.429 . S
C711 C712 1.523 . S
C712 C693 1.368 . S
C712 C706 1.368 . S
C712 C711 1.523 . S
C713 C697 1.429 . S
C713 C709 1.429 . S
C713 C714 1.523 . S
C714 C698 1.368 . S
C714 C710 1.368 . S
C714 C713 1.523 . S
H715 C690 0.950 . S
H716 C692 0.950 . S
H717 C693 0.949 . S
H718 C695 0.950 . S
H719 C697 0.950 . S
C720 C721 1.349 . S
C720 C722 1.327 . S
C720 H745 0.950 . S
C721 C720 1.349 . S
C721 C737 1.349 . S
C722 C720 1.327 . S
C722 C741 1.429 . S
C722 H746 0.950 . S
C723 C740 1.574 . S
C723 C742 1.368 . S
C723 H747 0.949 . S
H724 C728 0.949 . S
C725 C726 1.349 . S
C725 C727 1.327 . S
C725 H748 0.950 . S
C726 C725 1.349 . S
C726 C738 1.349 . S
C727 C725 1.327 . S
C727 C743 1.429 . S
C727 H749 0.950 . S
C728 H724 0.949 . S
C728 C736 1.574 . S
C728 C744 1.368 . S
H729 C737 0.950 . S
H730 C735 0.950 . S
H731 C736 0.949 . S
H732 C738 0.950 . S
H733 C739 0.950 . S
H734 C740 0.949 . S
C735 H730 0.950 . S
C735 C737 1.327 . S
C735 C741 1.429 . S
C736 C728 1.574 . S
C736 H731 0.949 . S
C736 C742 1.368 . S
C737 C721 1.349 . S
C737 H729 0.950 . S
C737 C735 1.327 . S
C738 C726 1.349 . S
C738 H732 0.950 . S
C738 C739 1.327 . S
C739 H733 0.950 . S
C739 C738 1.327 . S
C739 C743 1.429 . S
C740 C723 1.574 . S
C740 H734 0.949 . S
C740 C744 1.368 . S
C741 C722 1.429 . S
C741 C735 1.429 . S
C741 C742 1.523 . S
C742 C723 1.368 . S
C742 C736 1.368 . S
C742 C741 1.523 . S
C743 C727 1.429 . S
C743 C739 1.429 . S
C743 C744 1.523 . S
C744 C728 1.368 . S
C744 C740 1.368 . S
C744 C743 1.523 . S
H745 C720 0.950 . S
H746 C722 0.950 . S
H747 C723 0.949 . S
H748 C725 0.950 . S
H749 C727 0.950 . S
C750 C751 1.349 . S
C750 C752 1.327 . S
C750 H775 0.950 . S
C751 C750 1.349 . S
C751 C767 1.349 . S
C752 C750 1.327 . S
C752 C771 1.429 . S
C752 H776 0.950 . S
C753 C770 1.574 . S
C753 C772 1.368 . S
C753 H777 0.949 . S
H754 C758 0.949 . S
C755 C756 1.349 . S
C755 C757 1.327 . S
C755 H778 0.978 . S
C756 C755 1.349 . S
C756 C768 1.349 . S
C757 C755 1.327 . S
C757 C773 1.429 . S
C757 H779 0.950 . S
C758 H754 0.949 . S
C758 C766 1.574 . S
C758 C774 1.368 . S
H759 C767 0.950 . S
H760 C765 0.950 . S
H761 C766 0.949 . S
H762 C768 0.950 . S
H763 C769 0.950 . S
H764 C770 0.949 . S
C765 H760 0.950 . S
C765 C767 1.327 . S
C765 C771 1.429 . S
C766 C758 1.574 . S
C766 H761 0.949 . S
C766 C772 1.368 . S
C767 C751 1.349 . S
C767 H759 0.950 . S
C767 C765 1.327 . S
C768 C756 1.349 . S
C768 H762 0.950 . S
C768 C769 1.327 . S
C769 H763 0.950 . S
C769 C768 1.327 . S
C769 C773 1.429 . S
C770 C753 1.574 . S
C770 H764 0.949 . S
C770 C774 1.368 . S
C771 C752 1.429 . S
C771 C765 1.429 . S
C771 C772 1.523 . S
C772 C753 1.368 . S
C772 C766 1.368 . S
C772 C771 1.523 . S
C773 C757 1.429 . S
C773 C769 1.429 . S
C773 C774 1.523 . S
C774 C758 1.368 . S
C774 C770 1.368 . S
C774 C773 1.523 . S
H775 C750 0.950 . S
H776 C752 0.950 . S
H777 C753 0.949 . S
H778 C755 0.978 . S
H779 C757 0.950 . S
C780 C781 1.349 . S
C780 C782 1.327 . S
C780 H805 0.950 . S
C781 C780 1.349 . S
C781 C797 1.349 . S
C782 C780 1.327 . S
C782 C801 1.429 . S
C782 H806 0.950 . S
C783 C800 1.574 . S
C783 C802 1.368 . S
C783 H807 0.949 . S
H784 C788 0.949 . S
C785 C786 1.349 . S
C785 C787 1.327 . S
C785 H808 0.950 . S
C786 C785 1.349 . S
C786 C798 1.349 . S
C787 C785 1.327 . S
C787 C803 1.429 . S
C787 H809 0.950 . S
C788 H784 0.949 . S
C788 C796 1.574 . S
C788 C804 1.368 . S
H789 C797 0.950 . S
H790 C795 0.950 . S
H791 C796 0.949 . S
H792 C798 0.950 . S
H793 C799 0.950 . S
H794 C800 0.949 . S
C795 H790 0.950 . S
C795 C797 1.327 . S
C795 C801 1.429 . S
C796 C788 1.574 . S
C796 H791 0.949 . S
C796 C802 1.368 . S
C797 C781 1.349 . S
C797 H789 0.950 . S
C797 C795 1.327 . S
C798 C786 1.349 . S
C798 H792 0.950 . S
C798 C799 1.327 . S
C799 H793 0.950 . S
C799 C798 1.327 . S
C799 C803 1.429 . S
C800 C783 1.574 . S
C800 H794 0.949 . S
C800 C804 1.368 . S
C801 C782 1.429 . S
C801 C795 1.429 . S
C801 C802 1.523 . S
C802 C783 1.368 . S
C802 C796 1.368 . S
C802 C801 1.523 . S
C803 C787 1.429 . S
C803 C799 1.429 . S
C803 C804 1.523 . S
C804 C788 1.368 . S
C804 C800 1.368 . S
C804 C803 1.523 . S
H805 C780 0.950 . S
H806 C782 0.950 . S
H807 C783 0.949 . S
H808 C785 0.950 . S
H809 C787 0.950 . S
C810 C811 1.349 . S
C810 C812 1.327 . S
C810 H835 0.950 . S
C811 C810 1.349 . S
C811 C827 1.349 . S
C812 C810 1.327 . S
C812 C831 1.429 . S
C812 H836 0.950 . S
C813 C830 1.574 . S
C813 C832 1.368 . S
C813 H837 0.949 . S
H814 C818 0.949 . S
C815 C816 1.349 . S
C815 C817 1.327 . S
C815 H838 0.950 . S
C816 C815 1.349 . S
C816 C828 1.349 . S
C817 C815 1.327 . S
C817 C833 1.429 . S
C817 H839 0.950 . S
C818 H814 0.949 . S
C818 C826 1.574 . S
C818 C834 1.368 . S
H819 C827 0.950 . S
H820 C825 0.950 . S
H821 C826 0.949 . S
H822 C828 0.950 . S
H823 C829 0.950 . S
H824 C830 0.949 . S
C825 H820 0.950 . S
C825 C827 1.327 . S
C825 C831 1.429 . S
C826 C818 1.574 . S
C826 H821 0.949 . S
C826 C832 1.368 . S
C827 C811 1.349 . S
C827 H819 0.950 . S
C827 C825 1.327 . S
C828 C816 1.349 . S
C828 H822 0.950 . S
C828 C829 1.327 . S
C829 H823 0.950 . S
C829 C828 1.327 . S
C829 C833 1.429 . S
C830 C813 1.574 . S
C830 H824 0.949 . S
C830 C834 1.368 . S
C831 C812 1.429 . S
C831 C825 1.429 . S
C831 C832 1.523 . S
C832 C813 1.368 . S
C832 C826 1.368 . S
C832 C831 1.523 . S
C833 C817 1.429 . S
C833 C829 1.429 . S
C833 C834 1.523 . S
C834 C818 1.368 . S
C834 C830 1.368 . S
C834 C833 1.523 . S
H835 C810 0.950 . S
H836 C812 0.950 . S
H837 C813 0.949 . S
H838 C815 0.950 . S
H839 C817 0.950 . S
C840 C841 1.349 . S
C840 C842 1.327 . S
C840 H865 0.950 . S
C841 C840 1.349 . S
C841 C857 1.349 . S
C842 C840 1.327 . S
C842 C861 1.429 . S
C842 H866 0.950 . S
C843 C860 1.574 . S
C843 C862 1.368 . S
C843 H867 0.949 . S
H844 C848 0.949 . S
C845 C846 1.349 . S
C845 C847 1.327 . S
C845 H868 0.950 . S
C846 C845 1.349 . S
C846 C858 1.349 . S
C847 C845 1.327 . S
C847 C863 1.429 . S
C847 H869 0.950 . S
C848 H844 0.949 . S
C848 C856 1.574 . S
C848 C864 1.368 . S
H849 C857 0.950 . S
H850 C855 0.950 . S
H851 C856 0.949 . S
H852 C858 0.950 . S
H853 C859 0.950 . S
H854 C860 0.949 . S
C855 H850 0.950 . S
C855 C857 1.327 . S
C855 C861 1.429 . S
C856 C848 1.574 . S
C856 H851 0.949 . S
C856 C862 1.368 . S
C857 C841 1.349 . S
C857 H849 0.950 . S
C857 C855 1.327 . S
C858 C846 1.349 . S
C858 H852 0.950 . S
C858 C859 1.327 . S
C859 H853 0.950 . S
C859 C858 1.327 . S
C859 C863 1.429 . S
C860 C843 1.574 . S
C860 H854 0.949 . S
C860 C864 1.368 . S
C861 C842 1.429 . S
C861 C855 1.429 . S
C861 C862 1.523 . S
C862 C843 1.368 . S
C862 C856 1.368 . S
C862 C861 1.523 . S
C863 C847 1.429 . S
C863 C859 1.429 . S
C863 C864 1.523 . S
C864 C848 1.368 . S
C864 C860 1.368 . S
C864 C863 1.523 . S
H865 C840 0.950 . S
H866 C842 0.950 . S
H867 C843 0.949 . S
H868 C845 0.950 . S
H869 C847 0.950 . S
C870 C871 1.349 . S
C870 C872 1.327 . S
C870 H895 0.950 . S
C871 C870 1.349 . S
C871 C887 1.349 . S
C872 C870 1.327 . S
C872 C891 1.429 . S
C872 H896 0.950 . S
C873 C890 1.574 . S
C873 C892 1.368 . S
C873 H897 0.949 . S
H874 C878 0.949 . S
C875 C876 1.349 . S
C875 C877 1.327 . S
C875 H898 0.950 . S
C876 C875 1.349 . S
C876 C888 1.349 . S
C877 C875 1.327 . S
C877 C893 1.429 . S
C877 H899 0.950 . S
C878 H874 0.949 . S
C878 C886 1.574 . S
C878 C894 1.368 . S
H879 C887 0.950 . S
H880 C885 0.950 . S
H881 C886 0.949 . S
H882 C888 0.950 . S
H883 C889 0.950 . S
H884 C890 0.949 . S
C885 H880 0.950 . S
C885 C887 1.327 . S
C885 C891 1.429 . S
C886 C878 1.574 . S
C886 H881 0.949 . S
C886 C892 1.368 . S
C887 C871 1.349 . S
C887 H879 0.950 . S
C887 C885 1.327 . S
C888 C876 1.349 . S
C888 H882 0.950 . S
C888 C889 1.327 . S
C889 H883 0.950 . S
C889 C888 1.327 . S
C889 C893 1.429 . S
C890 C873 1.574 . S
C890 H884 0.949 . S
C890 C894 1.368 . S
C891 C872 1.429 . S
C891 C885 1.429 . S
C891 C892 1.523 . S
C892 C873 1.368 . S
C892 C886 1.368 . S
C892 C891 1.523 . S
C893 C877 1.429 . S
C893 C889 1.429 . S
C893 C894 1.523 . S
C894 C878 1.368 . S
C894 C890 1.368 . S
C894 C893 1.523 . S
H895 C870 0.950 . S
H896 C872 0.950 . S
H897 C873 0.949 . S
H898 C875 0.950 . S
H899 C877 0.950 . S
C900 C901 1.349 . S
C900 C902 1.327 . S
C900 H925 0.950 . S
C901 C900 1.349 . S
C901 C917 1.349 . S
C902 C900 1.327 . S
C902 C921 1.429 . S
C902 H926 0.950 . S
C903 C920 1.574 . S
C903 C922 1.368 . S
C903 H927 0.949 . S
H904 C908 0.949 . S
C905 C906 1.349 . S
C905 C907 1.327 . S
C905 H928 0.950 . S
C906 C905 1.349 . S
C906 C918 1.349 . S
C907 C905 1.327 . S
C907 C923 1.429 . S
C907 H929 0.950 . S
C908 H904 0.949 . S
C908 C916 1.574 . S
C908 C924 1.368 . S
H909 C917 0.950 . S
H910 C915 0.950 . S
H911 C916 0.949 . S
H912 C918 0.950 . S
H913 C919 0.950 . S
H914 C920 0.949 . S
C915 H910 0.950 . S
C915 C917 1.327 . S
C915 C921 1.429 . S
C916 C908 1.574 . S
C916 H911 0.949 . S
C916 C922 1.368 . S
C917 C901 1.349 . S
C917 H909 0.950 . S
C917 C915 1.327 . S
C918 C906 1.349 . S
C918 H912 0.950 . S
C918 C919 1.327 . S
C919 H913 0.950 . S
C919 C918 1.327 . S
C919 C923 1.429 . S
C920 C903 1.574 . S
C920 H914 0.949 . S
C920 C924 1.368 . S
C921 C902 1.429 . S
C921 C915 1.429 . S
C921 C922 1.523 . S
C922 C903 1.368 . S
C922 C916 1.368 . S
C922 C921 1.523 . S
C923 C907 1.429 . S
C923 C919 1.429 . S
C923 C924 1.523 . S
C924 C908 1.368 . S
C924 C920 1.368 . S
C924 C923 1.523 . S
H925 C900 0.950 . S
H926 C902 0.950 . S
H927 C903 0.949 . S
H928 C905 0.950 . S
H929 C907 0.950 . S
C930 C931 1.349 . S
C930 C932 1.327 . S
C930 H955 0.950 . S
C931 C930 1.349 . S
C931 C947 1.349 . S
C932 C930 1.327 . S
C932 C951 1.429 . S
C932 H956 0.950 . S
C933 C950 1.574 . S
C933 C952 1.368 . S
C933 H957 0.949 . S
H934 C938 0.949 . S
C935 C936 1.349 . S
C935 C937 1.327 . S
C935 H958 0.950 . S
C936 C935 1.349 . S
C936 C948 1.349 . S
C937 C935 1.327 . S
C937 C953 1.429 . S
C937 H959 0.950 . S
C938 H934 0.949 . S
C938 C946 1.574 . S
C938 C954 1.368 . S
H939 C947 0.950 . S
H940 C945 0.950 . S
H941 C946 0.949 . S
H942 C948 0.950 . S
H943 C949 0.950 . S
H944 C950 0.949 . S
C945 H940 0.950 . S
C945 C947 1.327 . S
C945 C951 1.429 . S
C946 C938 1.574 . S
C946 H941 0.949 . S
C946 C952 1.368 . S
C947 C931 1.349 . S
C947 H939 0.950 . S
C947 C945 1.327 . S
C948 C936 1.349 . S
C948 H942 0.950 . S
C948 C949 1.327 . S
C949 H943 0.950 . S
C949 C948 1.327 . S
C949 C953 1.429 . S
C950 C933 1.574 . S
C950 H944 0.949 . S
C950 C954 1.368 . S
C951 C932 1.429 . S
C951 C945 1.429 . S
C951 C952 1.523 . S
C952 C933 1.368 . S
C952 C946 1.368 . S
C952 C951 1.523 . S
C953 C937 1.429 . S
C953 C949 1.429 . S
C953 C954 1.523 . S
C954 C938 1.368 . S
C954 C950 1.368 . S
C954 C953 1.523 . S
H955 C930 0.950 . S
H956 C932 0.950 . S
H957 C933 0.949 . S
H958 C935 0.950 . S
H959 C937 0.950 . S
C960 C961 1.349 . S
C960 C962 1.327 . S
C960 H985 0.950 . S
C961 C960 1.349 . S
C961 C977 1.349 . S
C962 C960 1.327 . S
C962 C981 1.429 . S
C962 H986 0.950 . S
C963 C980 1.574 . S
C963 C982 1.368 . S
C963 H987 0.949 . S
H964 C968 0.949 . S
C965 C966 1.349 . S
C965 C967 1.327 . S
C965 H988 0.950 . S
C966 C965 1.349 . S
C966 C978 1.349 . S
C967 C965 1.327 . S
C967 C983 1.429 . S
C967 H989 0.950 . S
C968 H964 0.949 . S
C968 C976 1.574 . S
C968 C984 1.368 . S
H969 C977 0.950 . S
H970 C975 0.950 . S
H971 C976 0.949 . S
H972 C978 0.950 . S
H973 C979 0.950 . S
H974 C980 0.949 . S
C975 H970 0.950 . S
C975 C977 1.327 . S
C975 C981 1.429 . S
C976 C968 1.574 . S
C976 H971 0.949 . S
C976 C982 1.368 . S
C977 C961 1.349 . S
C977 H969 0.950 . S
C977 C975 1.327 . S
C978 C966 1.349 . S
C978 H972 0.950 . S
C978 C979 1.327 . S
C979 H973 0.950 . S
C979 C978 1.327 . S
C979 C983 1.429 . S
C980 C963 1.574 . S
C980 H974 0.949 . S
C980 C984 1.368 . S
C981 C962 1.429 . S
C981 C975 1.429 . S
C981 C982 1.523 . S
C982 C963 1.368 . S
C982 C976 1.368 . S
C982 C981 1.523 . S
C983 C967 1.429 . S
C983 C979 1.429 . S
C983 C984 1.523 . S
C984 C968 1.368 . S
C984 C980 1.368 . S
C984 C983 1.523 . S
H985 C960 0.950 . S
H986 C962 0.950 . S
H987 C963 0.949 . S
H988 C965 0.950 . S
H989 C967 0.950 . S
C990 C991 1.349 . S
C990 C992 1.327 . S
C990 H1015 0.950 . S
C991 C990 1.349 . S
C991 C1007 1.349 . S
C992 C990 1.327 . S
C992 C1011 1.429 . S
C992 H1016 0.950 . S
C993 C1010 1.574 . S
C993 C1012 1.368 . S
C993 H1017 0.949 . S
H994 C998 0.949 . S
C995 C996 1.349 . S
C995 C997 1.327 . S
C995 H1018 0.950 . S
C996 C995 1.349 . S
C996 C1008 1.349 . S
C997 C995 1.327 . S
C997 C1013 1.429 . S
C997 H1019 0.950 . S
C998 H994 0.949 . S
C998 C1006 1.574 . S
C998 C1014 1.368 . S
H999 C1007 0.950 . S
H1000 C1005 0.950 . S
H1001 C1006 0.949 . S
H1002 C1008 0.950 . S
H1003 C1009 0.950 . S
H1004 C1010 0.949 . S
C1005 H1000 0.950 . S
C1005 C1007 1.327 . S
C1005 C1011 1.429 . S
C1006 C998 1.574 . S
C1006 H1001 0.949 . S
C1006 C1012 1.368 . S
C1007 C991 1.349 . S
C1007 H999 0.950 . S
C1007 C1005 1.327 . S
C1008 C996 1.349 . S
C1008 H1002 0.950 . S
C1008 C1009 1.327 . S
C1009 H1003 0.950 . S
C1009 C1008 1.327 . S
C1009 C1013 1.429 . S
C1010 C993 1.574 . S
C1010 H1004 0.949 . S
C1010 C1014 1.368 . S
C1011 C992 1.429 . S
C1011 C1005 1.429 . S
C1011 C1012 1.523 . S
C1012 C993 1.368 . S
C1012 C1006 1.368 . S
C1012 C1011 1.523 . S
C1013 C997 1.429 . S
C1013 C1009 1.429 . S
C1013 C1014 1.523 . S
C1014 C998 1.368 . S
C1014 C1010 1.368 . S
C1014 C1013 1.523 . S
H1015 C990 0.950 . S
H1016 C992 0.950 . S
H1017 C993 0.949 . S
H1018 C995 0.950 . S
H1019 C997 0.950 . S
C1020 C1021 1.349 . S
C1020 C1022 1.327 . S
C1020 H1045 0.950 . S
C1021 C1020 1.349 . S
C1021 C1037 1.349 . S
C1022 C1020 1.327 . S
C1022 C1041 1.429 . S
C1022 H1046 0.950 . S
C1023 C1040 1.574 . S
C1023 C1042 1.368 . S
C1023 H1047 0.949 . S
H1024 C1028 0.949 . S
C1025 C1026 1.349 . S
C1025 C1027 1.327 . S
C1025 H1048 0.950 1_554 S
C1026 C1025 1.349 . S
C1026 C1038 1.349 . S
C1027 C1025 1.327 . S
C1027 C1043 1.429 . S
C1027 H1049 0.950 . S
C1028 H1024 0.949 . S
C1028 C1036 1.574 . S
C1028 C1044 1.368 . S
H1029 C1037 0.950 . S
H1030 C1035 0.950 . S
H1031 C1036 0.949 . S
H1032 C1038 0.950 . S
H1033 C1039 0.950 . S
H1034 C1040 0.949 . S
C1035 H1030 0.950 . S
C1035 C1037 1.327 . S
C1035 C1041 1.429 . S
C1036 C1028 1.574 . S
C1036 H1031 0.949 . S
C1036 C1042 1.368 . S
C1037 C1021 1.349 . S
C1037 H1029 0.950 . S
C1037 C1035 1.327 . S
C1038 C1026 1.349 . S
C1038 H1032 0.950 . S
C1038 C1039 1.327 . S
C1039 H1033 0.950 . S
C1039 C1038 1.327 . S
C1039 C1043 1.429 . S
C1040 C1023 1.574 . S
C1040 H1034 0.949 . S
C1040 C1044 1.368 . S
C1041 C1022 1.429 . S
C1041 C1035 1.429 . S
C1041 C1042 1.523 . S
C1042 C1023 1.368 . S
C1042 C1036 1.368 . S
C1042 C1041 1.523 . S
C1043 C1027 1.429 . S
C1043 C1039 1.429 . S
C1043 C1044 1.523 . S
C1044 C1028 1.368 . S
C1044 C1040 1.368 . S
C1044 C1043 1.523 . S
H1045 C1020 0.950 . S
H1046 C1022 0.950 . S
H1047 C1023 0.949 . S
H1048 C1025 0.950 1_556 S
H1049 C1027 0.950 . S
C1050 C1051 1.349 . S
C1050 C1052 1.327 . S
C1050 H1075 0.950 . S
C1051 C1050 1.349 . S
C1051 C1067 1.349 . S
C1052 C1050 1.327 . S
C1052 C1071 1.429 . S
C1052 H1076 0.950 . S
C1053 C1070 1.574 . S
C1053 C1072 1.368 . S
C1053 H1077 0.949 . S
H1054 C1058 0.949 . S
C1055 C1056 1.349 . S
C1055 C1057 1.327 . S
C1055 H1078 0.950 . S
C1056 C1055 1.349 . S
C1056 C1068 1.349 . S
C1057 C1055 1.327 . S
C1057 C1073 1.429 . S
C1057 H1079 0.950 . S
C1058 H1054 0.949 . S
C1058 C1066 1.574 . S
C1058 C1074 1.368 . S
H1059 C1067 0.950 . S
H1060 C1065 0.950 . S
H1061 C1066 0.949 . S
H1062 C1068 0.950 . S
H1063 C1069 0.950 . S
H1064 C1070 0.949 . S
C1065 H1060 0.950 . S
C1065 C1067 1.327 . S
C1065 C1071 1.429 . S
C1066 C1058 1.574 . S
C1066 H1061 0.949 . S
C1066 C1072 1.368 . S
C1067 C1051 1.349 . S
C1067 H1059 0.950 . S
C1067 C1065 1.327 . S
C1068 C1056 1.349 . S
C1068 H1062 0.950 . S
C1068 C1069 1.327 . S
C1069 H1063 0.950 . S
C1069 C1068 1.327 . S
C1069 C1073 1.429 . S
C1070 C1053 1.574 . S
C1070 H1064 0.949 . S
C1070 C1074 1.368 . S
C1071 C1052 1.429 . S
C1071 C1065 1.429 . S
C1071 C1072 1.523 . S
C1072 C1053 1.368 . S
C1072 C1066 1.368 . S
C1072 C1071 1.523 . S
C1073 C1057 1.429 . S
C1073 C1069 1.429 . S
C1073 C1074 1.523 . S
C1074 C1058 1.368 . S
C1074 C1070 1.368 . S
C1074 C1073 1.523 . S
H1075 C1050 0.950 . S
H1076 C1052 0.950 . S
H1077 C1053 0.949 . S
H1078 C1055 0.950 . S
H1079 C1057 0.950 . S
C1080 C1081 1.349 . S
C1080 C1082 1.327 . S
C1080 H1105 0.950 . S
C1081 C1080 1.349 . S
C1081 C1097 1.349 . S
C1082 C1080 1.327 . S
C1082 C1101 1.429 . S
C1082 H1106 0.950 . S
C1083 C1100 1.574 . S
C1083 C1102 1.368 . S
C1083 H1107 0.949 . S
H1084 C1088 0.949 . S
C1085 C1086 1.349 . S
C1085 C1087 1.327 . S
C1085 H1108 0.950 . S
C1086 C1085 1.349 . S
C1086 C1098 1.349 . S
C1087 C1085 1.327 . S
C1087 C1103 1.429 . S
C1087 H1109 0.950 . S
C1088 H1084 0.949 . S
C1088 C1096 1.574 . S
C1088 C1104 1.368 . S
H1089 C1097 0.950 . S
H1090 C1095 0.950 . S
H1091 C1096 0.949 . S
H1092 C1098 0.950 . S
H1093 C1099 0.950 . S
H1094 C1100 0.949 . S
C1095 H1090 0.950 . S
C1095 C1097 1.327 . S
C1095 C1101 1.429 . S
C1096 C1088 1.574 . S
C1096 H1091 0.949 . S
C1096 C1102 1.368 . S
C1097 C1081 1.349 . S
C1097 H1089 0.950 . S
C1097 C1095 1.327 . S
C1098 C1086 1.349 . S
C1098 H1092 0.950 . S
C1098 C1099 1.327 . S
C1099 H1093 0.950 . S
C1099 C1098 1.327 . S
C1099 C1103 1.429 . S
C1100 C1083 1.574 . S
C1100 H1094 0.949 . S
C1100 C1104 1.368 . S
C1101 C1082 1.429 . S
C1101 C1095 1.429 . S
C1101 C1102 1.523 . S
C1102 C1083 1.368 . S
C1102 C1096 1.368 . S
C1102 C1101 1.523 . S
C1103 C1087 1.429 . S
C1103 C1099 1.429 . S
C1103 C1104 1.523 . S
C1104 C1088 1.368 . S
C1104 C1100 1.368 . S
C1104 C1103 1.523 . S
H1105 C1080 0.950 . S
H1106 C1082 0.950 . S
H1107 C1083 0.949 . S
H1108 C1085 0.950 . S
H1109 C1087 0.950 . S
C1110 C1111 1.349 . S
C1110 C1112 1.327 . S
C1110 H1135 0.950 . S
C1111 C1110 1.349 . S
C1111 C1127 1.349 . S
C1112 C1110 1.327 . S
C1112 C1131 1.429 . S
C1112 H1136 0.950 . S
C1113 C1130 1.574 . S
C1113 C1132 1.368 . S
C1113 H1137 0.949 . S
H1114 C1118 0.949 . S
C1115 C1116 1.349 . S
C1115 C1117 1.327 . S
C1115 H1138 0.950 . S
C1116 C1115 1.349 . S
C1116 C1128 1.349 . S
C1117 C1115 1.327 . S
C1117 C1133 1.429 . S
C1117 H1139 0.950 . S
C1118 H1114 0.949 . S
C1118 C1126 1.574 . S
C1118 C1134 1.368 . S
H1119 C1127 0.950 . S
H1120 C1125 0.950 . S
H1121 C1126 0.949 . S
H1122 C1128 0.950 . S
H1123 C1129 0.950 . S
H1124 C1130 0.949 . S
C1125 H1120 0.950 . S
C1125 C1127 1.327 . S
C1125 C1131 1.429 . S
C1126 C1118 1.574 . S
C1126 H1121 0.949 . S
C1126 C1132 1.368 . S
C1127 C1111 1.349 . S
C1127 H1119 0.950 . S
C1127 C1125 1.327 . S
C1128 C1116 1.349 . S
C1128 H1122 0.950 . S
C1128 C1129 1.327 . S
C1129 H1123 0.950 . S
C1129 C1128 1.327 . S
C1129 C1133 1.429 . S
C1130 C1113 1.574 . S
C1130 H1124 0.949 . S
C1130 C1134 1.368 . S
C1131 C1112 1.429 . S
C1131 C1125 1.429 . S
C1131 C1132 1.523 . S
C1132 C1113 1.368 . S
C1132 C1126 1.368 . S
C1132 C1131 1.523 . S
C1133 C1117 1.429 . S
C1133 C1129 1.429 . S
C1133 C1134 1.523 . S
C1134 C1118 1.368 . S
C1134 C1130 1.368 . S
C1134 C1133 1.523 . S
H1135 C1110 0.950 . S
H1136 C1112 0.950 . S
H1137 C1113 0.949 . S
H1138 C1115 0.950 . S
H1139 C1117 0.950 . S
C1140 C1141 1.349 . S
C1140 C1142 1.327 . S
C1140 H1165 0.950 . S
C1141 C1140 1.349 . S
C1141 C1157 1.349 . S
C1142 C1140 1.327 . S
C1142 C1161 1.429 . S
C1142 H1166 0.950 . S
C1143 C1160 1.574 . S
C1143 C1162 1.368 . S
C1143 H1167 0.949 . S
H1144 C1148 0.949 . S
C1145 C1146 1.349 . S
C1145 C1147 1.327 . S
C1145 H1168 0.950 . S
C1146 C1145 1.349 . S
C1146 C1158 1.349 . S
C1147 C1145 1.327 . S
C1147 C1163 1.429 . S
C1147 H1169 0.950 . S
C1148 H1144 0.949 . S
C1148 C1156 1.574 . S
C1148 C1164 1.368 . S
H1149 C1157 0.950 . S
H1150 C1155 0.950 . S
H1151 C1156 0.949 . S
H1152 C1158 0.950 . S
H1153 C1159 0.950 . S
H1154 C1160 0.949 . S
C1155 H1150 0.950 . S
C1155 C1157 1.327 . S
C1155 C1161 1.429 . S
C1156 C1148 1.574 . S
C1156 H1151 0.949 . S
C1156 C1162 1.368 . S
C1157 C1141 1.349 . S
C1157 H1149 0.950 . S
C1157 C1155 1.327 . S
C1158 C1146 1.349 . S
C1158 H1152 0.950 . S
C1158 C1159 1.327 . S
C1159 H1153 0.950 . S
C1159 C1158 1.327 . S
C1159 C1163 1.429 . S
C1160 C1143 1.574 . S
C1160 H1154 0.949 . S
C1160 C1164 1.368 . S
C1161 C1142 1.429 . S
C1161 C1155 1.429 . S
C1161 C1162 1.523 . S
C1162 C1143 1.368 . S
C1162 C1156 1.368 . S
C1162 C1161 1.523 . S
C1163 C1147 1.429 . S
C1163 C1159 1.429 . S
C1163 C1164 1.523 . S
C1164 C1148 1.368 . S
C1164 C1160 1.368 . S
C1164 C1163 1.523 . S
H1165 C1140 0.950 . S
H1166 C1142 0.950 . S
H1167 C1143 0.949 . S
H1168 C1145 0.950 . S
H1169 C1147 0.950 . S
C1170 C1171 1.349 . S
C1170 C1172 1.327 . S
C1170 H1195 0.950 . S
C1171 C1170 1.349 . S
C1171 C1187 1.349 . S
C1172 C1170 1.327 . S
C1172 C1191 1.429 . S
C1172 H1196 0.950 . S
C1173 C1190 1.574 . S
C1173 C1192 1.368 . S
C1173 H1197 0.949 . S
H1174 C1178 0.949 . S
C1175 C1176 1.349 . S
C1175 C1177 1.327 . S
C1175 H1198 0.950 . S
C1176 C1175 1.349 . S
C1176 C1188 1.349 . S
C1177 C1175 1.327 . S
C1177 C1193 1.429 . S
C1177 H1199 0.950 . S
C1178 H1174 0.949 . S
C1178 C1186 1.574 . S
C1178 C1194 1.368 . S
H1179 C1187 0.950 . S
H1180 C1185 0.950 . S
H1181 C1186 0.949 . S
H1182 C1188 0.950 . S
H1183 C1189 0.950 . S
H1184 C1190 0.949 . S
C1185 H1180 0.950 . S
C1185 C1187 1.327 . S
C1185 C1191 1.429 . S
C1186 C1178 1.574 . S
C1186 H1181 0.949 . S
C1186 C1192 1.368 . S
C1187 C1171 1.349 . S
C1187 H1179 0.950 . S
C1187 C1185 1.327 . S
C1188 C1176 1.349 . S
C1188 H1182 0.950 . S
C1188 C1189 1.327 . S
C1189 H1183 0.950 . S
C1189 C1188 1.327 . S
C1189 C1193 1.429 . S
C1190 C1173 1.574 . S
C1190 H1184 0.949 . S
C1190 C1194 1.368 . S
C1191 C1172 1.429 . S
C1191 C1185 1.429 . S
C1191 C1192 1.523 . S
C1192 C1173 1.368 . S
C1192 C1186 1.368 . S
C1192 C1191 1.523 . S
C1193 C1177 1.429 . S
C1193 C1189 1.429 . S
C1193 C1194 1.523 . S
C1194 C1178 1.368 . S
C1194 C1190 1.368 . S
C1194 C1193 1.523 . S
H1195 C1170 0.950 . S
H1196 C1172 0.950 . S
H1197 C1173 0.949 . S
H1198 C1175 0.950 . S
H1199 C1177 0.950 . S
C481 C21 0.875 . S
C486 C324 0.893 . S
C511 C61 1.320 . S
C516 C385 1.329 . S
C546 C423 2.436 . S
C541 C82 2.496 . S
C571 C135 2.284 . S
C576 C463 2.234 . S
C606 C383 1.289 . S
C601 C15 1.282 . S
C636 C351 2.261 . S
C631 C42 2.237 . S
C666 C460 1.675 . S
C661 C101 1.682 . S
C696 C420 1.744 . S
C691 C122 1.752 . S
C721 C2 0.999 . S
C726 C465 1.019 . S
C756 C380 2.341 . S
C751 C95 2.340 . S
C781 C141 2.157 . S
C786 C322 2.126 . S
C811 C55 1.567 . S
C816 C425 1.606 . S
C846 C345 0.903 . S
C841 C181 0.905 . S
C871 C202 1.289 . S
C876 C364 1.312 . S
C901 C255 2.505 . S
C906 C402 2.440 . S
C931 C295 2.253 . S
C936 C442 2.203 . S
C961 C175 1.262 . S
C966 C362 1.265 . S
C996 C340 2.260 . S
C991 C221 2.235 . S
C1026 C471 1.599 . S
C1021 C242 1.588 . S
C1056 C431 1.821 . S
C1051 C301 1.824 . S
C1081 C162 0.996 . S
C1086 C444 0.992 . S
C1116 C391 2.390 . S
C1111 C261 2.353 . S
C1146 C343 2.108 . S
C1141 C282 2.138 . S
C1171 C215 1.587 . S
C1176 C404 1.629 . S
