# Generated by pormake.
# Topology gar, (4,6)-cn, num edge types: 1
# Building blocks:
#     Node 0, Type 0, BuildingBlock: AZAVOO_clean_sbu_0, # of connection points: 4
#     Node 1, Type 0, BuildingBlock: AZAVOO_clean_sbu_0, # of connection points: 4
#     Node 2, Type 0, BuildingBlock: AZAVOO_clean_sbu_0, # of connection points: 4
#     Node 3, Type 0, BuildingBlock: AZAVOO_clean_sbu_0, # of connection points: 4
#     Node 4, Type 0, BuildingBlock: AZAVOO_clean_sbu_0, # of connection points: 4
#     Node 5, Type 0, BuildingBlock: AZAVOO_clean_sbu_0, # of connection points: 4
#     Node 6, Type 0, BuildingBlock: AZAVOO_clean_sbu_0, # of connection points: 4
#     Node 7, Type 0, BuildingBlock: AZAVOO_clean_sbu_0, # of connection points: 4
#     Node 8, Type 0, BuildingBlock: AZAVOO_clean_sbu_0, # of connection points: 4
#     Node 9, Type 0, BuildingBlock: AZAVOO_clean_sbu_0, # of connection points: 4
#     Node 10, Type 0, BuildingBlock: AZAVOO_clean_sbu_0, # of connection points: 4
#     Node 11, Type 0, BuildingBlock: AZAVOO_clean_sbu_0, # of connection points: 4
#     Node 12, Type 0, BuildingBlock: AZAVOO_clean_sbu_0, # of connection points: 4
#     Node 13, Type 0, BuildingBlock: AZAVOO_clean_sbu_0, # of connection points: 4
#     Node 14, Type 0, BuildingBlock: AZAVOO_clean_sbu_0, # of connection points: 4
#     Node 15, Type 0, BuildingBlock: AZAVOO_clean_sbu_0, # of connection points: 4
#     Node 16, Type 0, BuildingBlock: AZAVOO_clean_sbu_0, # of connection points: 4
#     Node 17, Type 0, BuildingBlock: AZAVOO_clean_sbu_0, # of connection points: 4
#     Node 18, Type 0, BuildingBlock: AZAVOO_clean_sbu_0, # of connection points: 4
#     Node 19, Type 0, BuildingBlock: AZAVOO_clean_sbu_0, # of connection points: 4
#     Node 20, Type 0, BuildingBlock: AZAVOO_clean_sbu_0, # of connection points: 4
#     Node 21, Type 0, BuildingBlock: AZAVOO_clean_sbu_0, # of connection points: 4
#     Node 22, Type 0, BuildingBlock: AZAVOO_clean_sbu_0, # of connection points: 4
#     Node 23, Type 0, BuildingBlock: AZAVOO_clean_sbu_0, # of connection points: 4
#     Node 24, Type 1, BuildingBlock: CUKXOW_clean_sbu_0, # of connection points: 6
#     Node 25, Type 1, BuildingBlock: CUKXOW_clean_sbu_0, # of connection points: 6
#     Node 26, Type 1, BuildingBlock: CUKXOW_clean_sbu_0, # of connection points: 6
#     Node 27, Type 1, BuildingBlock: CUKXOW_clean_sbu_0, # of connection points: 6
#     Node 28, Type 1, BuildingBlock: CUKXOW_clean_sbu_0, # of connection points: 6
#     Node 29, Type 1, BuildingBlock: CUKXOW_clean_sbu_0, # of connection points: 6
#     Node 30, Type 1, BuildingBlock: CUKXOW_clean_sbu_0, # of connection points: 6
#     Node 31, Type 1, BuildingBlock: CUKXOW_clean_sbu_0, # of connection points: 6
#     Node 32, Type 1, BuildingBlock: CUKXOW_clean_sbu_0, # of connection points: 6
#     Node 33, Type 1, BuildingBlock: CUKXOW_clean_sbu_0, # of connection points: 6
#     Node 34, Type 1, BuildingBlock: CUKXOW_clean_sbu_0, # of connection points: 6
#     Node 35, Type 1, BuildingBlock: CUKXOW_clean_sbu_0, # of connection points: 6
#     Node 36, Type 1, BuildingBlock: CUKXOW_clean_sbu_0, # of connection points: 6
#     Node 37, Type 1, BuildingBlock: CUKXOW_clean_sbu_0, # of connection points: 6
#     Node 38, Type 1, BuildingBlock: CUKXOW_clean_sbu_0, # of connection points: 6
#     Node 39, Type 1, BuildingBlock: CUKXOW_clean_sbu_0, # of connection points: 6
#     Edge 40, Type (0, 1), BuildingBlock: OJICUG_clean_linker_0, # of connection points: 2
#     Edge 41, Type (0, 1), BuildingBlock: OJICUG_clean_linker_0, # of connection points: 2
#     Edge 42, Type (0, 1), BuildingBlock: OJICUG_clean_linker_0, # of connection points: 2
#     Edge 43, Type (0, 1), BuildingBlock: OJICUG_clean_linker_0, # of connection points: 2
#     Edge 44, Type (0, 1), BuildingBlock: OJICUG_clean_linker_0, # of connection points: 2
#     Edge 45, Type (0, 1), BuildingBlock: OJICUG_clean_linker_0, # of connection points: 2
#     Edge 46, Type (0, 1), BuildingBlock: OJICUG_clean_linker_0, # of connection points: 2
#     Edge 47, Type (0, 1), BuildingBlock: OJICUG_clean_linker_0, # of connection points: 2
#     Edge 48, Type (0, 1), BuildingBlock: OJICUG_clean_linker_0, # of connection points: 2
#     Edge 49, Type (0, 1), BuildingBlock: OJICUG_clean_linker_0, # of connection points: 2
#     Edge 50, Type (0, 1), BuildingBlock: OJICUG_clean_linker_0, # of connection points: 2
#     Edge 51, Type (0, 1), BuildingBlock: OJICUG_clean_linker_0, # of connection points: 2
#     Edge 52, Type (0, 1), BuildingBlock: OJICUG_clean_linker_0, # of connection points: 2
#     Edge 53, Type (0, 1), BuildingBlock: OJICUG_clean_linker_0, # of connection points: 2
#     Edge 54, Type (0, 1), BuildingBlock: OJICUG_clean_linker_0, # of connection points: 2
#     Edge 55, Type (0, 1), BuildingBlock: OJICUG_clean_linker_0, # of connection points: 2
#     Edge 56, Type (0, 1), BuildingBlock: OJICUG_clean_linker_0, # of connection points: 2
#     Edge 57, Type (0, 1), BuildingBlock: OJICUG_clean_linker_0, # of connection points: 2
#     Edge 58, Type (0, 1), BuildingBlock: OJICUG_clean_linker_0, # of connection points: 2
#     Edge 59, Type (0, 1), BuildingBlock: OJICUG_clean_linker_0, # of connection points: 2
#     Edge 60, Type (0, 1), BuildingBlock: OJICUG_clean_linker_0, # of connection points: 2
#     Edge 61, Type (0, 1), BuildingBlock: OJICUG_clean_linker_0, # of connection points: 2
#     Edge 62, Type (0, 1), BuildingBlock: OJICUG_clean_linker_0, # of connection points: 2
#     Edge 63, Type (0, 1), BuildingBlock: OJICUG_clean_linker_0, # of connection points: 2
#     Edge 64, Type (0, 1), BuildingBlock: OJICUG_clean_linker_0, # of connection points: 2
#     Edge 65, Type (0, 1), BuildingBlock: OJICUG_clean_linker_0, # of connection points: 2
#     Edge 66, Type (0, 1), BuildingBlock: OJICUG_clean_linker_0, # of connection points: 2
#     Edge 67, Type (0, 1), BuildingBlock: OJICUG_clean_linker_0, # of connection points: 2
#     Edge 68, Type (0, 1), BuildingBlock: OJICUG_clean_linker_0, # of connection points: 2
#     Edge 69, Type (0, 1), BuildingBlock: OJICUG_clean_linker_0, # of connection points: 2
#     Edge 70, Type (0, 1), BuildingBlock: OJICUG_clean_linker_0, # of connection points: 2
#     Edge 71, Type (0, 1), BuildingBlock: OJICUG_clean_linker_0, # of connection points: 2
#     Edge 72, Type (0, 1), BuildingBlock: OJICUG_clean_linker_0, # of connection points: 2
#     Edge 73, Type (0, 1), BuildingBlock: OJICUG_clean_linker_0, # of connection points: 2
#     Edge 74, Type (0, 1), BuildingBlock: OJICUG_clean_linker_0, # of connection points: 2
#     Edge 75, Type (0, 1), BuildingBlock: OJICUG_clean_linker_0, # of connection points: 2
#     Edge 76, Type (0, 1), BuildingBlock: OJICUG_clean_linker_0, # of connection points: 2
#     Edge 77, Type (0, 1), BuildingBlock: OJICUG_clean_linker_0, # of connection points: 2
#     Edge 78, Type (0, 1), BuildingBlock: OJICUG_clean_linker_0, # of connection points: 2
#     Edge 79, Type (0, 1), BuildingBlock: OJICUG_clean_linker_0, # of connection points: 2
#     Edge 80, Type (0, 1), BuildingBlock: OJICUG_clean_linker_0, # of connection points: 2
#     Edge 81, Type (0, 1), BuildingBlock: OJICUG_clean_linker_0, # of connection points: 2
#     Edge 82, Type (0, 1), BuildingBlock: OJICUG_clean_linker_0, # of connection points: 2
#     Edge 83, Type (0, 1), BuildingBlock: OJICUG_clean_linker_0, # of connection points: 2
#     Edge 84, Type (0, 1), BuildingBlock: OJICUG_clean_linker_0, # of connection points: 2
#     Edge 85, Type (0, 1), BuildingBlock: OJICUG_clean_linker_0, # of connection points: 2
#     Edge 86, Type (0, 1), BuildingBlock: OJICUG_clean_linker_0, # of connection points: 2
#     Edge 87, Type (0, 1), BuildingBlock: OJICUG_clean_linker_0, # of connection points: 2
#     Edge 88, Type (0, 1), BuildingBlock: OJICUG_clean_linker_0, # of connection points: 2
#     Edge 89, Type (0, 1), BuildingBlock: OJICUG_clean_linker_0, # of connection points: 2
#     Edge 90, Type (0, 1), BuildingBlock: OJICUG_clean_linker_0, # of connection points: 2
#     Edge 91, Type (0, 1), BuildingBlock: OJICUG_clean_linker_0, # of connection points: 2
#     Edge 92, Type (0, 1), BuildingBlock: OJICUG_clean_linker_0, # of connection points: 2
#     Edge 93, Type (0, 1), BuildingBlock: OJICUG_clean_linker_0, # of connection points: 2
#     Edge 94, Type (0, 1), BuildingBlock: OJICUG_clean_linker_0, # of connection points: 2
#     Edge 95, Type (0, 1), BuildingBlock: OJICUG_clean_linker_0, # of connection points: 2
#     Edge 96, Type (0, 1), BuildingBlock: OJICUG_clean_linker_0, # of connection points: 2
#     Edge 97, Type (0, 1), BuildingBlock: OJICUG_clean_linker_0, # of connection points: 2
#     Edge 98, Type (0, 1), BuildingBlock: OJICUG_clean_linker_0, # of connection points: 2
#     Edge 99, Type (0, 1), BuildingBlock: OJICUG_clean_linker_0, # of connection points: 2
#     Edge 100, Type (0, 1), BuildingBlock: OJICUG_clean_linker_0, # of connection points: 2
#     Edge 101, Type (0, 1), BuildingBlock: OJICUG_clean_linker_0, # of connection points: 2
#     Edge 102, Type (0, 1), BuildingBlock: OJICUG_clean_linker_0, # of connection points: 2
#     Edge 103, Type (0, 1), BuildingBlock: OJICUG_clean_linker_0, # of connection points: 2
#     Edge 104, Type (0, 1), BuildingBlock: OJICUG_clean_linker_0, # of connection points: 2
#     Edge 105, Type (0, 1), BuildingBlock: OJICUG_clean_linker_0, # of connection points: 2
#     Edge 106, Type (0, 1), BuildingBlock: OJICUG_clean_linker_0, # of connection points: 2
#     Edge 107, Type (0, 1), BuildingBlock: OJICUG_clean_linker_0, # of connection points: 2
#     Edge 108, Type (0, 1), BuildingBlock: OJICUG_clean_linker_0, # of connection points: 2
#     Edge 109, Type (0, 1), BuildingBlock: OJICUG_clean_linker_0, # of connection points: 2
#     Edge 110, Type (0, 1), BuildingBlock: OJICUG_clean_linker_0, # of connection points: 2
#     Edge 111, Type (0, 1), BuildingBlock: OJICUG_clean_linker_0, # of connection points: 2
#     Edge 112, Type (0, 1), BuildingBlock: OJICUG_clean_linker_0, # of connection points: 2
#     Edge 113, Type (0, 1), BuildingBlock: OJICUG_clean_linker_0, # of connection points: 2
#     Edge 114, Type (0, 1), BuildingBlock: OJICUG_clean_linker_0, # of connection points: 2
#     Edge 115, Type (0, 1), BuildingBlock: OJICUG_clean_linker_0, # of connection points: 2
#     Edge 116, Type (0, 1), BuildingBlock: OJICUG_clean_linker_0, # of connection points: 2
#     Edge 117, Type (0, 1), BuildingBlock: OJICUG_clean_linker_0, # of connection points: 2
#     Edge 118, Type (0, 1), BuildingBlock: OJICUG_clean_linker_0, # of connection points: 2
#     Edge 119, Type (0, 1), BuildingBlock: OJICUG_clean_linker_0, # of connection points: 2
#     Edge 120, Type (0, 1), BuildingBlock: OJICUG_clean_linker_0, # of connection points: 2
#     Edge 121, Type (0, 1), BuildingBlock: OJICUG_clean_linker_0, # of connection points: 2
#     Edge 122, Type (0, 1), BuildingBlock: OJICUG_clean_linker_0, # of connection points: 2
#     Edge 123, Type (0, 1), BuildingBlock: OJICUG_clean_linker_0, # of connection points: 2
#     Edge 124, Type (0, 1), BuildingBlock: OJICUG_clean_linker_0, # of connection points: 2
#     Edge 125, Type (0, 1), BuildingBlock: OJICUG_clean_linker_0, # of connection points: 2
#     Edge 126, Type (0, 1), BuildingBlock: OJICUG_clean_linker_0, # of connection points: 2
#     Edge 127, Type (0, 1), BuildingBlock: OJICUG_clean_linker_0, # of connection points: 2
#     Edge 128, Type (0, 1), BuildingBlock: OJICUG_clean_linker_0, # of connection points: 2
#     Edge 129, Type (0, 1), BuildingBlock: OJICUG_clean_linker_0, # of connection points: 2
#     Edge 130, Type (0, 1), BuildingBlock: OJICUG_clean_linker_0, # of connection points: 2
#     Edge 131, Type (0, 1), BuildingBlock: OJICUG_clean_linker_0, # of connection points: 2
#     Edge 132, Type (0, 1), BuildingBlock: OJICUG_clean_linker_0, # of connection points: 2
#     Edge 133, Type (0, 1), BuildingBlock: OJICUG_clean_linker_0, # of connection points: 2
#     Edge 134, Type (0, 1), BuildingBlock: OJICUG_clean_linker_0, # of connection points: 2
#     Edge 135, Type (0, 1), BuildingBlock: OJICUG_clean_linker_0, # of connection points: 2
# Relax obj value: 0.143
# Max RMSD: 0.243
# Mean RMSD: 0.170
data_MOF--net-gar--node1-AZAVOO_clean_sbu_0--node2-CUKXOW_clean_sbu_0--edge1-OJICUG_clean_linker_0
_symmetry_space_group_name_H-M    P1
_symmetry_Int_Tables_number       1
_symmetry_cell_setting            triclinic
loop_
_symmetry_equiv_pos_as_xyz
'x, y, z'
_cell_length_a     41.840854
_cell_length_b     38.262656
_cell_length_c     39.237227
_cell_angle_alpha  97.440064
_cell_angle_beta   94.502949
_cell_angle_gamma 99.807495
loop_
_atom_site_label
_atom_site_type_symbol
_atom_site_fract_x
_atom_site_fract_y
_atom_site_fract_z
_atom_type_partial_charge
Mg0 Mg 0.0128 0.24744 0.43911 0.0
O1 O 0.01485 0.30383 0.46788 0.0
O2 O 0.96738 0.30089 0.49065 0.0
Mg3 Mg 0.93413 0.24653 0.47154 0.0
C4 C 0.99541 0.31811 0.48637 0.0
C5 C 0.06945 0.23335 0.40963 0.0
O6 O 0.04536 0.20601 0.40018 0.0
O7 O 0.01844 0.22501 0.48889 0.0
O8 O 0.96675 0.21537 0.50142 0.0
O9 O 0.99471 0.26364 0.3909 0.0
O10 O 0.96288 0.23969 0.42755 0.0
C11 C 0.99636 0.21117 0.50624 0.0
C12 C 0.9657 0.2533 0.3993 0.0
O13 O 0.066 0.2575 0.43376 0.0
Mg14 Mg 0.00264 0.83157 0.62426 0.0
O15 O 0.99419 0.77377 0.59712 0.0
O16 O 0.94331 0.7604 0.57119 0.0
Mg17 Mg 0.91935 0.80949 0.58285 0.0
C18 C 0.97104 0.75198 0.57838 0.0
C19 C 0.06558 0.84496 0.66579 0.0
O20 O 0.04451 0.85644 0.68558 0.0
O21 O 0.00714 0.85091 0.5731 0.0
O22 O 0.95499 0.84025 0.55064 0.0
O23 O 0.98413 0.81434 0.67162 0.0
O24 O 0.95382 0.82968 0.62915 0.0
C25 C 0.98518 0.85264 0.54927 0.0
C26 C 0.95607 0.81951 0.65913 0.0
O27 O 0.05626 0.83246 0.63434 0.0
Mg28 Mg 0.52219 0.75328 0.93319 0.0
O29 O 0.52246 0.80874 0.96453 0.0
O30 O 0.47372 0.80422 0.98477 0.0
Mg31 Mg 0.44201 0.74967 0.96396 0.0
C32 C 0.50195 0.82207 0.98228 0.0
C33 C 0.58433 0.7907 0.91268 0.0
O34 O 0.56472 0.81381 0.90987 0.0
O35 O 0.52705 0.72805 0.98192 0.0
O36 O 0.47541 0.72033 0.99468 0.0
O37 O 0.50365 0.77118 0.88542 0.0
O38 O 0.47218 0.74512 0.92106 0.0
C39 C 0.50475 0.71528 0.99965 0.0
C40 C 0.47473 0.76015 0.89362 0.0
O41 O 0.57608 0.76488 0.92936 0.0
Mg42 Mg 0.50143 0.33504 0.12639 0.0
O43 O 0.49342 0.27746 0.09902 0.0
O44 O 0.44283 0.26323 0.07231 0.0
Mg45 Mg 0.4187 0.31223 0.08323 0.0
C46 C 0.47062 0.25528 0.0802 0.0
C47 C 0.56724 0.34918 0.16547 0.0
O48 O 0.5489 0.36335 0.18705 0.0
O49 O 0.50618 0.35495 0.07559 0.0
O50 O 0.45452 0.34371 0.05166 0.0
O51 O 0.48278 0.31662 0.1733 0.0
O52 O 0.45262 0.33138 0.13023 0.0
C53 C 0.48474 0.3566 0.05122 0.0
C54 C 0.45442 0.31962 0.1595 0.0
O55 O 0.55474 0.33533 0.13524 0.0
Mg56 Mg 0.98922 0.77182 0.18475 0.0
O57 O 0.98863 0.71782 0.15085 0.0
O58 O 0.9445 0.70685 0.1125 0.0
Mg59 Mg 0.91196 0.74767 0.12867 0.0
C60 C 0.97138 0.69928 0.12427 0.0
C61 C 0.06309 0.80106 0.21845 0.0
O62 O 0.05245 0.83142 0.22461 0.0
O63 O 0.99833 0.80173 0.13773 0.0
O64 O 0.94855 0.78948 0.1084 0.0
O65 O 0.962 0.74671 0.22568 0.0
O66 O 0.93809 0.76476 0.181 0.0
C67 C 0.97822 0.80575 0.1127 0.0
C68 C 0.93536 0.7516 0.20938 0.0
O69 O 0.04381 0.77363 0.20197 0.0
Mg70 Mg 0.51416 0.7734 0.35073 0.0
O71 O 0.51222 0.82761 0.38467 0.0
O72 O 0.4643 0.81874 0.40714 0.0
Mg73 Mg 0.43684 0.76157 0.3909 0.0
C74 C 0.49126 0.83855 0.40356 0.0
C75 C 0.58961 0.77205 0.34743 0.0
O76 O 0.58148 0.74427 0.36347 0.0
O77 O 0.5266 0.7501 0.40043 0.0
O78 O 0.47786 0.74256 0.42105 0.0
O79 O 0.48408 0.78757 0.30517 0.0
O80 O 0.46333 0.75853 0.34543 0.0
C81 C 0.50796 0.73996 0.42306 0.0
C82 C 0.45856 0.77218 0.31775 0.0
O83 O 0.56823 0.791 0.3408 0.0
Mg84 Mg 0.48822 0.27443 0.69318 0.0
O85 O 0.4904 0.21907 0.66233 0.0
O86 O 0.44591 0.20431 0.62479 0.0
Mg87 Mg 0.41171 0.2446 0.63722 0.0
C88 C 0.47343 0.19834 0.63676 0.0
C89 C 0.56371 0.30793 0.72118 0.0
O90 O 0.55468 0.3391 0.72046 0.0
O91 O 0.49635 0.30188 0.64461 0.0
O92 O 0.44672 0.2872 0.6151 0.0
O93 O 0.46204 0.25203 0.73604 0.0
O94 O 0.43658 0.26526 0.68968 0.0
C95 C 0.47604 0.30462 0.61924 0.0
C96 C 0.43478 0.25459 0.71938 0.0
O97 O 0.54298 0.27927 0.71093 0.0
Mg98 Mg 0.01312 0.27454 0.85029 0.0
O99 O 0.00634 0.32567 0.88716 0.0
O100 O 0.95792 0.30892 0.90669 0.0
Mg101 Mg 0.93309 0.25245 0.88416 0.0
C102 C 0.9838 0.33194 0.90627 0.0
C103 C 0.07733 0.29961 0.81661 0.0
O104 O 0.05455 0.29891 0.79138 0.0
O105 O 0.02425 0.24885 0.89874 0.0
O106 O 0.97421 0.23561 0.91561 0.0
O107 O 0.98362 0.29003 0.8045 0.0
O108 O 0.96278 0.25693 0.84169 0.0
C109 C 0.00485 0.23599 0.91955 0.0
C110 C 0.9581 0.27223 0.81514 0.0
O111 O 0.06857 0.2939 0.84612 0.0
Mg112 Mg 0.4246 0.10276 0.28171 0.0
O113 O 0.38942 0.04833 0.28235 0.0
O114 O 0.37061 0.05371 0.33436 0.0
Mg115 Mg 0.3913 0.10794 0.36597 0.0
C116 C 0.37163 0.03578 0.30478 0.0
C117 C 0.43605 0.06188 0.20778 0.0
O118 O 0.4312 0.0331 0.22304 0.0
O119 O 0.3797 0.13034 0.2725 0.0
O120 O 0.3636 0.1321 0.3256 0.0
O121 O 0.46625 0.08172 0.30757 0.0
O122 O 0.43261 0.11013 0.33563 0.0
C123 C 0.36026 0.13873 0.2946 0.0
C124 C 0.45647 0.09305 0.33676 0.0
O125 O 0.43197 0.09169 0.22382 0.0
Mg126 Mg 0.28243 0.13307 0.47087 0.0
O127 O 0.28215 0.16408 0.52407 0.0
O128 O 0.33329 0.19084 0.54321 0.0
Mg129 Mg 0.36649 0.17212 0.50342 0.0
C130 C 0.30284 0.18446 0.54681 0.0
C131 C 0.21061 0.10636 0.44225 0.0
O132 O 0.22369 0.08658 0.41931 0.0
O133 O 0.29293 0.1851 0.45002 0.0
O134 O 0.34622 0.206 0.4649 0.0
O135 O 0.28552 0.0844 0.49407 0.0
O136 O 0.3282 0.12445 0.48525 0.0
C137 C 0.31872 0.20803 0.44941 0.0
C138 C 0.3166 0.09649 0.49878 0.0
O139 O 0.22879 0.13076 0.46351 0.0
Mg140 Mg 0.13939 0.98261 0.7932 0.0
O141 O 0.1682 0.04008 0.79636 0.0
O142 O 0.19503 0.05477 0.84897 0.0
Mg143 Mg 0.1819 0.0075 0.87931 0.0
C144 C 0.18778 0.06228 0.81885 0.0
C145 C 0.11043 0.95585 0.71763 0.0
O146 O 0.09282 0.93208 0.73315 0.0
O147 O 0.18572 0.95992 0.78935 0.0
O148 O 0.20928 0.97229 0.84367 0.0
O149 O 0.09648 1.00305 0.81293 0.0
O150 O 0.13538 0.98766 0.84616 0.0
C151 C 0.20843 0.95783 0.81224 0.0
C152 C 0.1084 0.99958 0.84353 0.0
O153 O 0.13207 0.97997 0.73548 0.0
Mg154 Mg 0.21994 0.90638 0.04455 0.0
O155 O 0.21906 0.87087 0.98899 0.0
O156 O 0.26607 0.85039 0.9937 0.0
Mg157 Mg 0.29732 0.87203 0.04491 0.0
C158 C 0.23968 0.85267 0.97607 0.0
C159 C 0.16762 0.94814 0.05721 0.0
O160 O 0.1953 0.96371 0.07534 0.0
O161 O 0.21242 0.85928 0.07809 0.0
O162 O 0.26202 0.84436 0.07901 0.0
O163 O 0.24567 0.95462 0.02405 0.0
O164 O 0.27023 0.91584 0.04796 0.0
C165 C 0.23357 0.84145 0.08912 0.0
C166 C 0.27226 0.94375 0.03286 0.0
O167 O 0.1667 0.91738 0.03949 0.0
Mg168 Mg 0.27438 0.44153 0.08575 0.0
O169 O 0.27457 0.40234 0.03654 0.0
O170 O 0.3162 0.37322 0.04293 0.0
Mg171 Mg 0.34101 0.3919 0.09732 0.0
C172 C 0.29153 0.37948 0.02508 0.0
C173 C 0.22386 0.48207 0.05688 0.0
O174 O 0.25007 0.50719 0.06315 0.0
O175 O 0.25109 0.39489 0.11137 0.0
O176 O 0.293 0.3659 0.11586 0.0
O177 O 0.30806 0.48205 0.06494 0.0
O178 O 0.32468 0.44349 0.09657 0.0
C179 C 0.26335 0.36843 0.11953 0.0
C180 C 0.33164 0.46795 0.07717 0.0
O181 O 0.2252 0.45118 0.06488 0.0
Mg182 Mg 0.80814 0.15211 0.99315 0.0
O183 O 0.8103 0.18965 0.04504 0.0
O184 O 0.85768 0.22704 0.05375 0.0
Mg185 Mg 0.88381 0.21273 1.00459 0.0
C186 C 0.83004 0.2153 0.06364 0.0
C187 C 0.73036 0.12714 0.97882 0.0
O188 O 0.73459 0.1308 0.94655 0.0
O189 O 0.79685 0.19534 0.95956 0.0
O190 O 0.84615 0.22959 0.96475 0.0
O191 O 0.83251 0.11412 0.01957 0.0
O192 O 0.8606 0.154 0.9925 0.0
C193 C 0.81645 0.2216 0.95116 0.0
C194 C 0.86022 0.12711 0.00956 0.0
O195 O 0.75481 0.13439 1.00148 0.0
Mg196 Mg 0.09819 0.47038 0.29056 0.0
O197 O 0.13385 0.52371 0.29509 0.0
O198 O 0.15922 0.53599 0.34873 0.0
Mg199 Mg 0.13991 0.49021 0.37839 0.0
C200 C 0.15449 0.54373 0.31825 0.0
C201 C 0.05912 0.46419 0.22058 0.0
O202 O 0.03703 0.45716 0.24197 0.0
O203 O 0.14159 0.4412 0.28694 0.0
O204 O 0.16303 0.45117 0.34224 0.0
O205 O 0.05895 0.49795 0.31011 0.0
O206 O 0.09419 0.47811 0.34401 0.0
C207 C 0.16238 0.4366 0.31089 0.0
C208 C 0.06996 0.49465 0.34103 0.0
O209 O 0.08912 0.4695 0.23214 0.0
Mg210 Mg 0.78329 0.95103 0.57967 0.0
O211 O 0.78916 0.91364 0.53093 0.0
O212 O 0.8343 0.89062 0.53988 0.0
Mg213 Mg 0.85515 0.90953 0.59548 0.0
C214 C 0.8093 0.89393 0.52062 0.0
C215 C 0.73041 0.98827 0.54942 0.0
O216 O 0.75552 0.01462 0.55746 0.0
O217 O 0.76244 0.90125 0.60296 0.0
O218 O 0.80781 0.87828 0.61004 0.0
O219 O 0.81619 0.99508 0.56183 0.0
O220 O 0.83354 0.95761 0.59418 0.0
C221 C 0.77722 0.87663 0.61161 0.0
C222 C 0.84025 0.98278 0.57561 0.0
O223 O 0.73327 0.95718 0.55605 0.0
Mg224 Mg 0.86109 0.06258 0.24049 0.0
O225 O 0.83414 0.0049 0.24602 0.0
O226 O 0.82078 0.01112 0.30019 0.0
Mg227 Mg 0.83989 0.06722 0.32945 0.0
C228 C 0.82071 0.99189 0.27104 0.0
C229 C 0.8852 0.07558 0.17542 0.0
O230 O 0.89269 0.10549 0.19732 0.0
O231 O 0.81383 0.08542 0.23742 0.0
O232 O 0.80796 0.09283 0.29393 0.0
O233 O 0.9087 0.05023 0.25929 0.0
O234 O 0.8759 0.07438 0.2928 0.0
C235 C 0.79988 0.09778 0.26308 0.0
C236 C 0.9027 0.06276 0.28984 0.0
O237 O 0.86446 0.05012 0.18314 0.0
Mg238 Mg 0.30875 0.64956 0.49659 0.0
O239 O 0.31037 0.68795 0.54788 0.0
O240 O 0.35644 0.72744 0.55467 0.0
Mg241 Mg 0.38244 0.71265 0.50561 0.0
C242 C 0.32943 0.7149 0.56542 0.0
C243 C 0.23206 0.62229 0.48082 0.0
O244 O 0.23787 0.62533 0.4488 0.0
O245 O 0.29571 0.69136 0.46247 0.0
O246 O 0.34353 0.72819 0.466 0.0
O247 O 0.33441 0.61334 0.5238 0.0
O248 O 0.36136 0.6529 0.49544 0.0
C249 C 0.31365 0.7184 0.45332 0.0
C250 C 0.36179 0.62661 0.51327 0.0
O251 O 0.25551 0.63063 0.50467 0.0
Mg252 Mg 0.36705 0.56846 0.7474 0.0
O253 O 0.33874 0.51124 0.75102 0.0
O254 O 0.31872 0.51797 0.80208 0.0
Mg255 Mg 0.33567 0.57423 0.83175 0.0
C256 C 0.32196 0.49852 0.77402 0.0
C257 C 0.39571 0.58009 0.68371 0.0
O258 O 0.40365 0.61012 0.7054 0.0
O259 O 0.32078 0.59072 0.73812 0.0
O260 O 0.30746 0.6 0.79231 0.0
O261 O 0.4124 0.55628 0.77111 0.0
O262 O 0.37678 0.58065 0.80054 0.0
C263 C 0.30345 0.60334 0.76037 0.0
C264 C 0.40384 0.56896 0.80051 0.0
O265 O 0.37433 0.55519 0.69127 0.0
Mg266 Mg 0.59558 0.97838 0.79824 0.0
O267 O 0.63122 0.03179 0.8009 0.0
O268 O 0.65703 0.04578 0.85427 0.0
Mg269 Mg 0.63851 1.00152 0.88554 0.0
C270 C 0.65213 0.05244 0.82343 0.0
C271 C 0.55623 0.9706 0.72794 0.0
O272 O 0.53375 0.96561 0.74929 0.0
O273 O 0.63883 0.9495 0.79552 0.0
O274 O 0.66278 0.96376 0.84983 0.0
O275 O 0.55643 0.00602 0.81739 0.0
O276 O 0.59268 0.98742 0.85131 0.0
C277 C 0.66126 0.94761 0.81895 0.0
C278 C 0.56811 1.0034 0.84828 0.0
O279 O 0.58609 0.9753 0.73982 0.0
Mg280 Mg 0.77783 0.64869 0.96554 0.0
O281 O 0.77976 0.67308 0.02207 0.0
O282 O 0.83113 0.69859 0.04183 0.0
Mg283 Mg 0.8621 0.69193 0.99687 0.0
C284 C 0.80103 0.69007 0.0462 0.0
C285 C 0.71296 0.61994 0.98485 0.0
O286 O 0.73501 0.61261 0.00717 0.0
O287 O 0.782 0.70458 0.95195 0.0
O288 O 0.83455 0.72847 0.9678 0.0
O289 O 0.7879 0.59743 0.97993 0.0
O290 O 0.82646 0.64331 0.97493 0.0
C291 C 0.8062 0.73035 0.95426 0.0
C292 C 0.81833 0.61216 0.98438 0.0
O293 O 0.72231 0.63866 0.96175 0.0
Mg294 Mg 0.92303 0.60225 0.77492 0.0
O295 O 0.88471 0.55028 0.77332 0.0
O296 O 0.86196 0.55813 0.82293 0.0
Mg297 Mg 0.88491 0.61077 0.85625 0.0
C298 C 0.8641 0.53956 0.79399 0.0
C299 C 0.93324 0.56134 0.69976 0.0
O300 O 0.92418 0.53164 0.7127 0.0
O301 O 0.88129 0.63294 0.76322 0.0
O302 O 0.86326 0.64006 0.81553 0.0
O303 O 0.96145 0.57827 0.80248 0.0
O304 O 0.92816 0.60851 0.82908 0.0
C305 C 0.86253 0.64535 0.78406 0.0
C306 C 0.95088 0.58986 0.83115 0.0
O307 O 0.93245 0.59139 0.71763 0.0
Mg308 Mg 0.72055 0.40266 0.54066 0.0
O309 O 0.71691 0.36536 0.48587 0.0
O310 O 0.7644 0.34566 0.48849 0.0
Mg311 Mg 0.79884 0.37052 0.53704 0.0
C312 C 0.73693 0.34677 0.47232 0.0
C313 C 0.66917 0.44504 0.55534 0.0
O314 O 0.6977 0.46093 0.57144 0.0
O315 O 0.71562 0.3563 0.57593 0.0
O316 O 0.76683 0.34658 0.57577 0.0
O317 O 0.74396 0.45046 0.51712 0.0
O318 O 0.77085 0.41328 0.54032 0.0
C319 C 0.73923 0.34221 0.58789 0.0
C320 C 0.77132 0.44053 0.5245 0.0
O321 O 0.6672 0.41358 0.53862 0.0
Mg322 Mg 0.64252 0.47653 0.29841 0.0
O323 O 0.67238 0.53368 0.30252 0.0
O324 O 0.69952 0.54706 0.35504 0.0
Mg325 Mg 0.68599 0.49872 0.38388 0.0
C326 C 0.69223 0.55532 0.32525 0.0
C327 C 0.60625 0.45777 0.22689 0.0
O328 O 0.58577 0.4412 0.24585 0.0
O329 O 0.68799 0.45267 0.29263 0.0
O330 O 0.71242 0.46372 0.34654 0.0
O331 O 0.60063 0.4979 0.31833 0.0
O332 O 0.63865 0.48079 0.35149 0.0
C333 C 0.71096 0.44983 0.31483 0.0
C334 C 0.61218 0.49382 0.34885 0.0
O335 O 0.63366 0.47497 0.24118 0.0
Tb336 Tb 0.02461 0.07289 0.0228 0.0
C337 C 0.03346 0.01748 0.96008 0.0
Tb338 Tb 0.99807 0.99191 0.02276 0.0
O339 O 0.07555 0.06746 0.03659 0.0
O340 O 0.03734 0.03062 0.04756 0.0
O341 O 0.02634 0.04963 0.96935 0.0
C342 C 0.999 0.92715 0.04054 0.0
O343 O 0.02699 0.99098 0.97868 0.0
C344 C 0.95426 0.02969 1.00276 0.0
C345 C 0.98039 0.04886 0.08087 0.0
O346 O 0.98172 0.93329 0.01346 0.0
O347 O 0.01524 0.95722 0.057 0.0
O348 O 0.94725 0.99889 0.01396 0.0
O349 O 0.98431 0.03457 0.99821 0.0
O350 O 0.98231 0.01482 0.07084 0.0
O351 O 0.99524 0.07595 0.06638 0.0
C352 C 0.03308 0.14125 0.01222 0.0
O353 O 0.00941 0.12513 0.02724 0.0
O354 O 0.05237 0.11906 1.00428 0.0
C355 C 0.06759 0.03595 0.04551 0.0
Tb356 Tb 0.27042 0.82273 0.28459 0.0
C357 C 0.32401 0.77291 0.27306 0.0
Tb358 Tb 0.24808 0.73933 0.26656 0.0
O359 O 0.26354 0.81944 0.33964 0.0
O360 O 0.2733 0.77653 0.30875 0.0
O361 O 0.31702 0.80582 0.27608 0.0
C362 C 0.22432 0.67554 0.28327 0.0
O363 O 0.30132 0.74325 0.27084 0.0
C364 C 0.24355 0.77042 0.21007 0.0
C365 C 0.19538 0.79069 0.26826 0.0
O366 O 0.239 0.68051 0.25569 0.0
O367 O 0.22329 0.70627 0.30109 0.0
O368 O 0.23773 0.73578 0.20984 0.0
O369 O 0.25262 0.78431 0.24105 0.0
O370 O 0.20202 0.7587 0.27287 0.0
O371 O 0.21864 0.81917 0.26854 0.0
C372 C 0.29708 0.89147 0.28444 0.0
O373 O 0.27722 0.87958 0.3059 0.0
O374 O 0.30161 0.86463 0.26269 0.0
C375 C 0.26534 0.78571 0.33836 0.0
Tb376 Tb 0.54516 0.0291 0.52369 0.0
C377 C 0.52171 0.99911 0.59005 0.0
Tb378 Tb 0.47358 0.02073 0.53296 0.0
O379 O 0.555 0.07408 0.56733 0.0
O380 O 0.51198 0.06388 0.53517 0.0
O381 O 0.54524 1.00326 0.56954 0.0
C382 C 0.4159 0.03178 0.55188 0.0
O383 O 0.49212 0.0056 0.5817 0.0
C384 C 0.4882 0.96947 0.49012 0.0
C385 C 0.49812 0.05075 0.46673 0.0
O386 O 0.42079 0.0045 0.53097 0.0
O387 O 0.44385 0.05181 0.56311 0.0
O388 O 0.46021 0.97975 0.48854 0.0
O389 O 0.50547 0.98496 0.51776 0.0
O390 O 0.47647 0.05142 0.48978 0.0
O391 O 0.52609 0.03947 0.47292 0.0
C392 C 0.60418 0.01785 0.50925 0.0
O393 O 0.59653 0.04908 0.5181 0.0
O394 O 0.57822 0.99348 0.50706 0.0
C395 C 0.52665 0.08305 0.56198 0.0
Tb396 Tb 0.26666 0.28515 0.81902 0.0
C397 C 0.27671 0.34623 0.77182 0.0
Tb398 Tb 0.25109 0.26513 0.73901 0.0
O399 O 0.31937 0.2811 0.82139 0.0
O400 O 0.2906 0.27108 0.77601 0.0
O401 O 0.2714 0.33768 0.8028 0.0
C402 C 0.25993 0.24482 0.67351 0.0
O403 O 0.27419 0.32185 0.74389 0.0
C404 C 0.20452 0.28974 0.7711 0.0
C405 C 0.2393 0.2046 0.78845 0.0
O406 O 0.27773 0.27117 0.69425 0.0
O407 O 0.23613 0.22999 0.68935 0.0
O408 O 0.20842 0.291 0.73862 0.0
O409 O 0.22403 0.27111 0.78262 0.0
O410 O 0.24443 0.21183 0.75663 0.0
O411 O 0.24259 0.22994 0.81568 0.0
C412 C 0.26403 0.30739 0.88547 0.0
O413 O 0.27671 0.28023 0.87337 0.0
O414 O 0.25227 0.32164 0.86009 0.0
C415 C 0.31918 0.27133 0.78843 0.0
Tb416 Tb 0.00849 0.03273 0.466 0.0
C417 C 0.9666 0.01161 0.52556 0.0
Tb418 Tb 0.04354 0.01775 0.53592 0.0
O419 O 0.98869 0.97573 0.452 0.0
O420 O 0.03234 0.99283 0.48368 0.0
O421 O 0.96867 0.02856 0.4981 0.0
C422 C 0.07003 0.98572 0.5841 0.0
O423 O 0.99174 1.00059 0.54113 0.0
C424 C 0.03058 0.08307 0.54031 0.0
C425 C 0.08494 0.04911 0.47942 0.0
O426 O 0.0408 0.9753 0.5684 0.0
O427 O 0.08427 0.01406 0.57256 0.0
O428 O 0.04519 0.07178 0.56605 0.0
O429 O 0.02541 0.05806 0.51573 0.0
O430 O 0.08421 0.03014 0.50556 0.0
O431 O 0.05873 0.05662 0.46276 0.0
C432 C 0.98561 0.05615 0.41042 0.0
O433 O 0.0048 0.03286 0.41063 0.0
O434 O 0.97973 0.06688 0.44176 0.0
C435 C 0.01139 0.96573 0.47083 0.0
Tb436 Tb 0.30799 0.79373 0.78103 0.0
C437 C 0.25446 0.80861 0.83105 0.0
Tb438 Tb 0.23871 0.7945 0.7486 0.0
O439 O 0.31517 0.85076 0.80142 0.0
O440 O 0.28401 0.82988 0.757 0.0
O441 O 0.28196 0.79612 0.82728 0.0
C442 C 0.18583 0.81617 0.72433 0.0
O443 O 0.23562 0.81419 0.80393 0.0
C444 C 0.25049 0.73047 0.7537 0.0
C445 C 0.29187 0.77455 0.69881 0.0
O446 O 0.18739 0.79807 0.75001 0.0
O447 O 0.21382 0.82175 0.71213 0.0
O448 O 0.2265 0.73593 0.73319 0.0
O449 O 0.26241 0.75931 0.77308 0.0
O450 O 0.26259 0.78356 0.70116 0.0
O451 O 0.31278 0.77554 0.72644 0.0
C452 C 0.36192 0.7769 0.80909 0.0
O453 O 0.36108 0.80198 0.78983 0.0
O454 O 0.33255 0.7609 0.8118 0.0
C455 C 0.29349 0.85759 0.77894 0.0
Tb456 Tb 0.4673 0.02852 0.02085 0.0
C457 C 0.51349 0.97331 0.02561 0.0
Tb458 Tb 0.54149 0.05658 0.03393 0.0
O459 O 0.4696 0.01166 0.96553 0.0
O460 O 0.50453 0.05213 0.99344 0.0
O461 O 0.48551 0.9818 0.03447 0.0
C462 C 0.6021 0.07804 0.01869 0.0
O463 O 0.53825 0.99817 0.02031 0.0
C464 C 0.51017 0.05579 0.08931 0.0
C465 C 0.49351 0.11231 0.03733 0.0
O466 O 0.59472 0.06357 0.04604 0.0
O467 O 0.57556 0.08051 1.00061 0.0
O468 O 0.5375 0.07756 0.08793 0.0
O469 O 0.50412 0.03336 0.06209 0.0
O470 O 0.52398 0.10717 0.03521 0.0
O471 O 0.46797 0.08573 0.03379 0.0
C472 C 0.4037 0.00617 0.02076 0.0
O473 O 0.42032 0.03482 0.03977 0.0
O474 O 0.42287 0.99031 1.00246 0.0
C475 C 0.49766 0.03173 0.96519 0.0
Tb476 Tb 0.22139 0.26762 0.28813 0.0
C477 C 0.28544 0.27954 0.33956 0.0
Tb478 Tb 0.28631 0.29084 0.26185 0.0
O479 O 0.23337 0.21612 0.29718 0.0
O480 O 0.2536 0.24178 0.25834 0.0
O481 O 0.25349 0.27884 0.33609 0.0
C482 C 0.34123 0.29921 0.23233 0.0
O483 O 0.30355 0.28211 0.31338 0.0
C484 C 0.25408 0.34279 0.27996 0.0
C485 C 0.22526 0.27513 0.21128 0.0
O486 O 0.31515 0.31071 0.22274 0.0
O487 O 0.33695 0.28339 0.2594 0.0
O488 O 0.27371 0.34374 0.25615 0.0
O489 O 0.25581 0.31556 0.29403 0.0
O490 O 0.25318 0.26423 0.21732 0.0
O491 O 0.20812 0.28233 0.23741 0.0
C492 C 0.16523 0.26238 0.31554 0.0
O493 O 0.17267 0.23835 0.29249 0.0
O494 O 0.18873 0.28985 0.32168 0.0
C495 C 0.25466 0.21582 0.27493 0.0
Tb496 Tb 0.50474 0.5405 0.97986 0.0
C497 C 0.45898 0.50648 0.03132 0.0
Tb498 Tb 0.53622 0.52185 0.04591 0.0
O499 O 0.48784 0.48381 0.95995 0.0
O500 O 0.53045 0.50028 0.99305 0.0
O501 O 0.46127 0.5257 1.00543 0.0
C502 C 0.56087 0.49108 0.09632 0.0
O503 O 0.48494 0.49928 0.04896 0.0
C504 C 0.52688 0.58823 0.04928 0.0
C505 C 0.58011 0.55599 0.99551 0.0
O506 O 0.53245 0.47978 0.07911 0.0
O507 O 0.57504 0.51972 0.08546 0.0
O508 O 0.55006 0.57915 0.06808 0.0
O509 O 0.50924 0.56061 0.03299 0.0
O510 O 0.57584 0.52922 0.01392 0.0
O511 O 0.55502 0.56925 0.9833 0.0
C512 C 0.483 0.5666 0.92512 0.0
O513 O 0.50391 0.54526 0.92539 0.0
O514 O 0.47483 0.57416 0.9561 0.0
C515 C 0.5109 0.47321 0.97763 0.0
Tb516 Tb 0.80216 0.28121 0.27981 0.0
C517 C 0.74796 0.29736 0.32828 0.0
Tb518 Tb 0.73685 0.28776 0.24509 0.0
O519 O 0.81197 0.33782 0.30137 0.0
O520 O 0.78325 0.32056 0.25471 0.0
O521 O 0.77567 0.28513 0.3255 0.0
C522 C 0.68537 0.31158 0.21945 0.0
O523 O 0.72954 0.30234 0.30052 0.0
C524 C 0.74348 0.22209 0.25121 0.0
C525 C 0.7915 0.26921 0.19826 0.0
O526 O 0.70084 0.32296 0.24977 0.0
O527 O 0.6983 0.28636 0.20402 0.0
O528 O 0.72335 0.22959 0.22768 0.0
O529 O 0.75486 0.25001 0.27189 0.0
O530 O 0.76643 0.28637 0.20098 0.0
O531 O 0.80718 0.26082 0.22594 0.0
C532 C 0.85515 0.26258 0.3078 0.0
O533 O 0.85492 0.28859 0.28968 0.0
O534 O 0.82557 0.24633 0.30926 0.0
C535 C 0.79298 0.34726 0.27788 0.0
Tb536 Tb 0.9655 0.52652 0.51101 0.0
C537 C 0.01009 0.47056 0.52068 0.0
Tb538 Tb 0.03958 0.55315 0.5265 0.0
O539 O 0.96972 0.50761 0.45652 0.0
O540 O 0.00429 0.54851 0.4843 0.0
O541 O 0.98207 0.48018 0.52775 0.0
C542 C 0.10123 0.5728 0.51359 0.0
O543 O 0.03559 0.49442 0.51522 0.0
C544 C 0.00663 0.55447 0.58071 0.0
C545 C 0.99273 0.61006 0.52802 0.0
O546 O 0.0924 0.56005 0.54134 0.0
O547 O 0.07552 0.57444 0.49368 0.0
O548 O 0.03452 0.5754 0.57979 0.0
O549 O 1.00081 0.53154 0.55381 0.0
O550 O 0.02313 0.60431 0.5268 0.0
O551 O 0.96681 0.58387 0.5234 0.0
C552 C 0.90138 0.50487 0.50871 0.0
O553 O 0.91775 0.53385 0.52742 0.0
O554 O 0.92108 0.4884 0.49181 0.0
C555 C 0.99818 0.52699 0.45664 0.0
Tb556 Tb 0.77593 0.77831 0.32037 0.0
C557 C 0.77817 0.83944 0.27186 0.0
Tb558 Tb 0.75485 0.7576 0.24458 0.0
O559 O 0.81964 0.7544 0.31436 0.0
O560 O 0.79974 0.77764 0.27466 0.0
O561 O 0.777 0.83084 0.3035 0.0
C562 C 0.76204 0.72792 0.18127 0.0
O563 O 0.77431 0.81456 0.24416 0.0
C564 C 0.70875 0.77597 0.28108 0.0
C565 C 0.74639 0.6973 0.29551 0.0
O566 O 0.77974 0.72594 0.20923 0.0
O567 O 0.73918 0.74598 0.18883 0.0
O568 O 0.7095 0.77886 0.24837 0.0
O569 O 0.73088 0.75936 0.28996 0.0
O570 O 0.74628 0.70459 0.26309 0.0
O571 O 0.75422 0.72297 0.32255 0.0
C572 C 0.78348 0.80945 0.38583 0.0
O573 O 0.80442 0.79313 0.37077 0.0
O574 O 0.75797 0.80766 0.36426 0.0
C575 C 0.82129 0.75994 0.28257 0.0
Tb576 Tb 0.77263 0.32617 0.77957 0.0
C577 C 0.82333 0.27512 0.77298 0.0
Tb578 Tb 0.74673 0.24641 0.771 0.0
O579 O 0.79841 0.32503 0.83 0.0
O580 O 0.75558 0.28866 0.8133 0.0
O581 O 0.81721 0.30717 0.76854 0.0
C582 C 0.72676 0.18051 0.78594 0.0
O583 O 0.79982 0.24787 0.77642 0.0
C584 C 0.74217 0.27539 0.71356 0.0
C585 C 0.69616 0.29787 0.77016 0.0
O586 O 0.7317 0.18809 0.75519 0.0
O587 O 0.7339 0.2097 0.80779 0.0
O588 O 0.72249 0.24701 0.71909 0.0
O589 O 0.76484 0.28349 0.73806 0.0
O590 O 0.70173 0.26656 0.77783 0.0
O591 O 0.72027 0.32436 0.76695 0.0
C592 C 0.7913 0.39551 0.77489 0.0
O593 O 0.77481 0.38291 0.79873 0.0
O594 O 0.79672 0.36902 0.75334 0.0
C595 C 0.7794 0.29691 0.83678 0.0
Tb596 Tb 0.72881 0.78146 0.78199 0.0
C597 C 0.7826 0.80881 0.84796 0.0
Tb598 Tb 0.79831 0.81769 0.7736 0.0
O599 O 0.73887 0.7287 0.75964 0.0
O600 O 0.77541 0.76878 0.78654 0.0
O601 O 0.75136 0.80073 0.83521 0.0
C602 C 0.85529 0.82912 0.74823 0.0
O603 O 0.80659 0.81427 0.82799 0.0
C604 C 0.75811 0.86087 0.78859 0.0
C605 C 0.74561 0.78893 0.7085 0.0
O606 O 0.83194 0.84676 0.74308 0.0
O607 O 0.84716 0.80621 0.76904 0.0
O608 O 0.78935 0.86968 0.79772 0.0
O609 O 0.75192 0.83098 0.76967 0.0
O610 O 0.77628 0.79167 0.72188 0.0
O611 O 0.72115 0.78763 0.72807 0.0
C612 C 0.67211 0.77607 0.80869 0.0
O613 O 0.68853 0.75026 0.80366 0.0
O614 O 0.6867 0.80378 0.7967 0.0
C615 C 0.77017 0.7383 0.7688 0.0
Tb616 Tb 0.52665 0.57111 0.52342 0.0
C617 C 0.53419 0.51324 0.46248 0.0
Tb618 Tb 0.49945 0.49049 0.5265 0.0
O619 O 0.5777 0.56536 0.53604 0.0
O620 O 0.53977 0.52934 0.54881 0.0
O621 O 0.52699 0.54555 0.47057 0.0
C622 C 0.49811 0.42562 0.54542 0.0
O623 O 0.52774 0.48757 0.48202 0.0
C624 C 0.45566 0.52889 0.50732 0.0
C625 C 0.48593 0.54983 0.58483 0.0
O626 O 0.48088 0.43214 0.51849 0.0
O627 O 0.51575 0.45537 0.56099 0.0
O628 O 0.44883 0.49878 0.51973 0.0
O629 O 0.48534 0.53274 0.50131 0.0
O630 O 0.48737 0.51555 0.5755 0.0
O631 O 0.49968 0.57613 0.56868 0.0
C632 C 0.53428 0.63886 0.51062 0.0
O633 O 0.51127 0.62331 0.52686 0.0
O634 O 0.55339 0.61648 0.50257 0.0
C635 C 0.56988 0.5342 0.54582 0.0
Tb636 Tb 0.04151 0.52869 0.01668 0.0
C637 C 0.01978 0.49786 0.08575 0.0
Tb638 Tb 0.97204 0.5206 0.03169 0.0
O639 O 0.04533 0.58759 0.02677 0.0
O640 O 0.01568 0.5538 0.05351 0.0
O641 O 0.042 0.50249 0.06348 0.0
C642 C 0.91591 0.54254 0.04091 0.0
O643 O 0.99047 0.5063 0.08033 0.0
C644 C 0.98732 0.46195 1.00085 0.0
C645 C 0.99411 0.54886 0.96171 0.0
O646 O 0.91872 0.51103 0.02593 0.0
O647 O 0.94466 0.56055 0.05224 0.0
O648 O 0.96509 0.4626 0.0223 0.0
O649 O 0.9977 0.49349 0.99518 0.0
O650 O 0.97319 0.54806 0.98555 0.0
O651 O 0.02209 0.53744 0.96623 0.0
C652 C 0.10079 0.51417 0.00949 0.0
O653 O 0.09398 0.54607 0.01593 0.0
O654 O 0.07405 0.49071 1.00599 0.0
C655 C 0.02413 0.58577 0.04926 0.0
C656 C 0.04595 0.20513 0.94759 0.0
C657 C 0.01705 0.21906 0.94846 0.0
H658 H 0.07418 0.1695 0.96817 0.0
C659 C 0.99745 0.21299 0.97545 0.0
H660 H 0.06166 0.20965 0.92732 0.0
C661 C 0.00464 0.19026 0.9988 0.0
C662 C 0.03155 0.17324 0.99558 0.0
H663 H 0.97536 0.22404 0.9773 0.0
H664 H 0.98773 0.18389 0.0176 0.0
C665 C 0.05314 0.18227 0.97104 0.0
C666 C 0.12007 0.82954 0.24432 0.0
C667 C 0.09678 0.79846 0.23194 0.0
H668 H 0.16929 0.85158 0.26551 0.0
C669 C 0.10584 0.76487 0.2332 0.0
H670 H 0.11394 0.85586 0.24383 0.0
C671 C 0.13742 0.7624 0.24624 0.0
C672 C 0.16096 0.79348 0.25795 0.0
H673 H 0.08851 0.74036 0.22413 0.0
H674 H 0.14358 0.73604 0.24628 0.0
C675 C 0.15182 0.82709 0.25689 0.0
C676 C 0.47519 0.89782 0.41274 0.0
C677 C 0.49696 0.87567 0.4215 0.0
H678 H 0.45622 0.94527 0.42731 0.0
C679 C 0.51921 0.88672 0.45133 0.0
H680 H 0.45763 0.88966 0.39008 0.0
C681 C 0.51813 0.9186 0.47326 0.0
C682 C 0.49473 0.9395 0.46543 0.0
H683 H 0.53582 0.86958 0.45886 0.0
H684 H 0.53412 0.92567 0.49714 0.0
C685 C 0.47426 0.92949 0.43428 0.0
C686 C 0.40595 0.26092 0.77299 0.0
C687 C 0.40418 0.25318 0.73676 0.0
H688 H 0.38082 0.27344 0.81731 0.0
C689 C 0.3735 0.24878 0.71766 0.0
H690 H 0.42914 0.26476 0.7886 0.0
C691 C 0.34556 0.25299 0.73438 0.0
C692 C 0.34776 0.26316 0.77034 0.0
H693 H 0.37115 0.24259 0.68975 0.0
H694 H 0.32241 0.24863 0.7191 0.0
C695 C 0.37821 0.26619 0.78948 0.0
C696 C 0.02611 0.89416 0.52358 0.0
C697 C 0.99419 0.87471 0.52222 0.0
H698 H 0.05674 0.93858 0.50752 0.0
C699 C 0.96983 0.88108 0.4983 0.0
H700 H 0.04559 0.88952 0.54135 0.0
C701 C 0.97628 0.90924 0.47923 0.0
C702 C 0.00714 0.93131 0.48387 0.0
H703 H 0.94514 0.86614 0.49613 0.0
H704 H 0.95645 0.91532 0.46292 0.0
C705 C 0.03253 0.92231 0.50439 0.0
C706 C 0.44913 0.78661 0.84608 0.0
C707 C 0.44585 0.76452 0.87202 0.0
H708 H 0.42479 0.80775 0.80551 0.0
C709 C 0.41498 0.74549 0.87613 0.0
H710 H 0.47273 0.80146 0.8423 0.0
C711 C 0.38776 0.74866 0.85473 0.0
C712 C 0.391 0.7712 0.82923 0.0
H713 H 0.41186 0.72796 0.89566 0.0
H714 H 0.36411 0.73397 0.85858 0.0
C715 C 0.42183 0.79008 0.82494 0.0
C716 C 0.50841 0.21173 0.06983 0.0
C717 C 0.47658 0.21909 0.06747 0.0
H718 H 0.53877 0.17242 0.06173 0.0
C719 C 0.45054 0.1914 0.05342 0.0
H720 H 0.52906 0.23252 0.08031 0.0
C721 C 0.4561 0.15686 0.04289 0.0
C722 C 0.48787 0.14938 0.04582 0.0
H723 H 0.42573 0.19618 0.05122 0.0
H724 H 0.43542 0.13595 0.03282 0.0
C725 C 0.51401 0.1773 0.05896 0.0
C726 C 0.11571 0.27386 0.39057 0.0
C727 C 0.09536 0.24011 0.38684 0.0
H728 H 0.1532 0.30772 0.36996 0.0
C729 C 0.0974 0.21418 0.35862 0.0
H730 H 0.11441 0.29453 0.4118 0.0
C731 C 0.11927 0.22193 0.33446 0.0
C732 C 0.13942 0.25568 0.33819 0.0
H733 H 0.08185 0.188 0.35496 0.0
H734 H 0.12074 0.20134 0.31322 0.0
C735 C 0.13751 0.28161 0.36635 0.0
C736 C 0.91005 0.03363 0.13571 0.0
C737 C 0.90723 0.06881 0.14859 0.0
H738 H 0.93591 0.99975 0.10533 0.0
C739 C 0.92895 0.09753 0.13932 0.0
H740 H 0.89398 0.01091 0.14266 0.0
C741 C 0.95327 0.09119 0.11803 0.0
C742 C 0.95665 0.05597 0.10587 0.0
H743 H 0.92749 0.12498 0.14898 0.0
H744 H 0.9694 0.11392 0.11118 0.0
C745 C 0.93457 0.02729 0.11478 0.0
C746 C 0.26845 0.72512 0.40848 0.0
C747 C 0.3002 0.73734 0.42549 0.0
H748 H 0.23247 0.73093 0.3682 0.0
C749 C 0.3196 0.76668 0.41415 0.0
H750 H 0.25266 0.70262 0.41615 0.0
C751 C 0.30791 0.78276 0.3865 0.0
C752 C 0.27651 0.77004 0.36924 0.0
H753 H 0.34415 0.77694 0.42625 0.0
H754 H 0.32377 0.80477 0.37811 0.0
C755 C 0.25683 0.74122 0.38075 0.0
C756 C 0.57044 0.9788 0.66829 0.0
C757 C 0.54682 0.9744 0.69162 0.0
H758 H 0.58102 0.98961 0.61796 0.0
C759 C 0.5143 0.97574 0.6805 0.0
H760 H 0.59567 0.97778 0.67599 0.0
C761 C 0.50583 0.98276 0.64719 0.0
C762 C 0.52967 0.98833 0.62421 0.0
H763 H 0.49546 0.9724 0.69784 0.0
H764 H 0.48075 0.98459 0.63976 0.0
C765 C 0.56195 0.98556 0.63495 0.0
C766 C 0.29525 0.32867 0.97963 0.0
C767 C 0.28235 0.35952 0.98994 0.0
H768 H 0.29886 0.2875 0.93847 0.0
C769 C 0.26112 0.37133 0.96619 0.0
H770 H 0.31136 0.31864 0.99744 0.0
C771 C 0.25409 0.3535 0.93236 0.0
C772 C 0.26786 0.32339 0.92193 0.0
H773 H 0.2507 0.39493 0.97341 0.0
H774 H 0.23857 0.36379 0.91417 0.0
C775 C 0.28791 0.31066 0.94597 0.0
C776 C 0.95247 0.0463 0.31756 0.0
C777 C 0.92545 0.06333 0.32034 0.0
H778 H 0.99332 0.03129 0.34437 0.0
C779 C 0.92054 0.08141 0.35247 0.0
H780 H 0.95704 0.03258 0.29299 0.0
C781 C 0.94147 0.08099 0.38174 0.0
C782 C 0.96747 0.06242 0.37918 0.0
H783 H 0.90028 0.09544 0.35517 0.0
H784 H 0.93654 0.09397 0.40649 0.0
C785 C 0.97333 0.0458 0.34685 0.0
C786 C 0.34352 0.75023 0.62574 0.0
C787 C 0.31986 0.73164 0.59909 0.0
H788 H 0.35345 0.77773 0.6779 0.0
C789 C 0.28679 0.72854 0.60525 0.0
H790 H 0.36919 0.75312 0.62214 0.0
C791 C 0.2777 0.74351 0.63699 0.0
C792 C 0.3014 0.76124 0.66396 0.0
H793 H 0.26781 0.71454 0.58542 0.0
H794 H 0.25205 0.74025 0.64074 0.0
C795 C 0.33446 0.76434 0.65782 0.0
C796 C 0.56615 0.0146 0.91227 0.0
C797 C 0.55229 0.01586 0.87876 0.0
H798 H 0.55952 0.01831 0.96591 0.0
C799 C 0.52142 0.02552 0.87448 0.0
H800 H 0.58967 0.00686 0.9165 0.0
C801 C 0.50413 0.03201 0.90298 0.0
C802 C 0.51774 0.02983 0.93624 0.0
H803 H 0.50993 0.02644 0.84897 0.0
H804 H 0.4798 0.03789 0.89896 0.0
C805 C 0.54899 0.02152 0.94075 0.0
C806 C 0.22147 0.34862 0.15878 0.0
C807 C 0.24368 0.34026 0.13529 0.0
H808 H 0.1963 0.33267 0.20139 0.0
C809 C 0.25057 0.30544 0.13052 0.0
H810 H 0.21538 0.37516 0.16252 0.0
C811 C 0.23924 0.28106 0.15219 0.0
C812 C 0.22154 0.29147 0.17954 0.0
H813 H 0.2669 0.29799 0.11186 0.0
H814 H 0.24773 0.25572 0.1502 0.0
C815 C 0.21033 0.32418 0.18083 0.0
C816 C 0.14552 0.0045 0.07205 0.0
C817 C 0.14014 0.96856 0.05587 0.0
H818 H 0.12699 0.05339 0.08126 0.0
C819 C 0.1094 0.95405 0.0377 0.0
H820 H 0.16881 0.01692 0.08621 0.0
C821 C 0.08504 0.97524 0.0354 0.0
C822 C 0.09094 0.01136 0.05107 0.0
H823 H 0.10441 0.92666 0.02468 0.0
H824 H 0.06229 0.96372 0.01998 0.0
C825 C 0.12148 0.02559 0.06933 0.0
C826 C 0.65288 0.61578 0.96833 0.0
C827 C 0.67861 0.6037 0.98572 0.0
H828 H 0.60093 0.61015 0.95789 0.0
C829 C 0.67157 0.57519 1.00471 0.0
H830 H 0.65774 0.6377 0.95345 0.0
C831 C 0.63961 0.55933 0.00685 0.0
C832 C 0.61369 0.57175 0.99034 0.0
H833 H 0.69082 0.56491 0.01809 0.0
H834 H 0.63538 0.53765 0.02212 0.0
C835 C 0.6205 0.60001 0.97083 0.0
C836 C 0.73369 0.41089 0.26955 0.0
C837 C 0.73511 0.42739 0.30406 0.0
H838 H 0.75156 0.37302 0.23394 0.0
C839 C 0.75836 0.42008 0.3287 0.0
H840 H 0.71623 0.41604 0.24979 0.0
C841 C 0.77835 0.39541 0.31954 0.0
C842 C 0.77553 0.37736 0.28558 0.0
H843 H 0.76031 0.43234 0.35543 0.0
H844 H 0.79498 0.38927 0.33956 0.0
C845 C 0.75387 0.38624 0.26039 0.0
C846 C 0.8228 0.43871 0.49832 0.0
C847 C 0.80217 0.45892 0.51504 0.0
H848 H 0.8704 0.43794 0.48264 0.0
C849 C 0.8133 0.49546 0.52713 0.0
H850 H 0.81455 0.41047 0.48884 0.0
C851 C 0.84559 0.51108 0.5244 0.0
C852 C 0.86662 0.49037 0.50888 0.0
H853 H 0.79769 0.51128 0.54049 0.0
H854 H 0.85434 0.53891 0.53522 0.0
C855 C 0.85468 0.45443 0.49487 0.0
C856 C 0.30534 0.15135 0.30491 0.0
C857 C 0.33207 0.15575 0.28527 0.0
H858 H 0.26033 0.16646 0.31667 0.0
C859 C 0.33194 0.17814 0.25949 0.0
H860 H 0.30428 0.13394 0.32464 0.0
C861 C 0.30622 0.19711 0.25488 0.0
C862 C 0.28041 0.19372 0.2759 0.0
H863 H 0.35218 0.18204 0.24395 0.0
H864 H 0.3069 0.21496 0.23557 0.0
C865 C 0.27996 0.16998 0.30027 0.0
C866 C 0.33375 0.04162 0.51533 0.0
C867 C 0.33793 0.07913 0.51959 0.0
H868 H 0.35588 0.99643 0.52328 0.0
C869 C 0.36399 0.09982 0.54191 0.0
H870 H 0.31339 0.02524 0.49857 0.0
C871 C 0.38752 0.08335 0.55706 0.0
C872 C 0.38573 0.04619 0.54897 0.0
H873 H 0.36695 0.12876 0.54645 0.0
H874 H 0.40865 0.10009 0.57222 0.0
C875 C 0.35778 0.02517 0.52973 0.0
C876 C 0.72515 0.61737 0.34306 0.0
C877 C 0.70708 0.59114 0.31701 0.0
H878 H 0.75169 0.67096 0.35671 0.0
C879 C 0.70323 0.5997 0.28323 0.0
H880 H 0.72874 0.61186 0.36933 0.0
C881 C 0.71674 0.63376 0.27587 0.0
C882 C 0.73413 0.66018 0.30217 0.0
H883 H 0.68962 0.58016 0.26244 0.0
H884 H 0.71291 0.63959 0.24973 0.0
C885 C 0.73835 0.65139 0.33578 0.0
C886 C 0.84791 0.4784 0.75829 0.0
C887 C 0.84274 0.50381 0.78559 0.0
H888 H 0.83527 0.42386 0.73327 0.0
C889 C 0.81796 0.49401 0.8067 0.0
H890 H 0.86667 0.48509 0.74148 0.0
C891 C 0.80012 0.45919 0.80198 0.0
C892 C 0.80652 0.43336 0.776 0.0
H893 H 0.81293 0.51295 0.8277 0.0
H894 H 0.78211 0.45219 0.81952 0.0
C895 C 0.82992 0.4434 0.75355 0.0
C896 C 0.01473 0.86077 0.10013 0.0
C897 C 0.9878 0.83301 0.08991 0.0
H898 H 0.03937 0.91242 0.09212 0.0
C899 C 0.96735 0.83419 0.05987 0.0
H900 H 0.03099 0.86071 0.123 0.0
C901 C 0.9722 0.86381 0.04212 0.0
C902 C 0.99747 0.89282 0.05419 0.0
H903 H 0.94655 0.81303 0.05101 0.0
H904 H 0.95506 0.86489 0.02028 0.0
C905 C 0.01942 0.89046 0.0825 0.0
C906 C 0.91602 0.29755 0.78111 0.0
C907 C 0.92427 0.27095 0.79982 0.0
H908 H 0.87746 0.31969 0.75768 0.0
C909 C 0.89929 0.24354 0.80598 0.0
H910 H 0.9347 0.31894 0.77589 0.0
C911 C 0.86665 0.24362 0.79527 0.0
C912 C 0.85808 0.27135 0.77838 0.0
H913 H 0.90489 0.22234 0.81996 0.0
H914 H 0.84808 0.22288 0.80179 0.0
C915 C 0.8832 0.29791 0.77071 0.0
C916 C 0.5153 0.15737 0.63266 0.0
C917 C 0.48706 0.16816 0.6186 0.0
H918 H 0.55 0.12195 0.626 0.0
C919 C 0.47275 0.15101 0.58572 0.0
H920 H 0.52721 0.17013 0.65777 0.0
C921 C 0.48607 0.12399 0.5675 0.0
C922 C 0.51386 0.11276 0.58169 0.0
H923 H 0.45141 0.15885 0.57363 0.0
H924 H 0.47448 0.11188 0.54206 0.0
C925 C 0.52849 0.12989 0.61443 0.0
C926 C 0.62644 0.79576 0.30444 0.0
C927 C 0.62176 0.77767 0.3332 0.0
H928 H 0.65755 0.80912 0.26516 0.0
C929 C 0.64717 0.76174 0.34624 0.0
H930 H 0.60733 0.80818 0.29364 0.0
C931 C 0.67599 0.76265 0.3302 0.0
C932 C 0.67992 0.77899 0.30034 0.0
H933 H 0.64448 0.74772 0.36842 0.0
H934 H 0.69468 0.74932 0.34046 0.0
C935 C 0.65513 0.79616 0.28802 0.0
C936 C 0.97955 0.15165 0.52426 0.0
C937 C 0.00369 0.18231 0.52529 0.0
H938 H 0.96962 0.09555 0.52765 0.0
C939 C 0.03609 0.18126 0.53711 0.0
H940 H 0.95442 0.15153 0.51505 0.0
C941 C 0.04459 0.14919 0.54485 0.0
C942 C 0.02091 0.11789 0.54003 0.0
H943 H 0.05514 0.2045 0.53803 0.0
H944 H 0.06996 0.14823 0.55189 0.0
C945 C 0.98823 0.11949 0.53101 0.0
C946 C 0.61633 0.32183 0.15693 0.0
C947 C 0.59984 0.34387 0.17788 0.0
H948 H 0.65642 0.29405 0.15408 0.0
C949 C 0.61332 0.35778 0.21186 0.0
H950 H 0.60661 0.31082 0.13059 0.0
C951 C 0.642 0.34832 0.2252 0.0
C952 C 0.65723 0.32456 0.20479 0.0
H953 H 0.60114 0.37487 0.22854 0.0
H954 H 0.65157 0.35853 0.25175 0.0
C955 C 0.64473 0.31208 0.17038 0.0
C956 C 0.48938 0.87334 0.02191 0.0
C957 C 0.50949 0.86032 0.99811 0.0
H958 H 0.47544 0.91906 0.04979 0.0
C959 C 0.53436 0.88483 0.98726 0.0
H960 H 0.47031 0.85526 0.03127 0.0
C961 C 0.53734 0.9218 0.99802 0.0
C962 C 0.51552 0.93476 0.0198 0.0
H963 H 0.55032 0.87566 0.96897 0.0
H964 H 0.55539 0.94022 0.98765 0.0
C965 C 0.49236 0.91003 0.0326 0.0
C966 C 0.9302 0.80469 0.71172 0.0
C967 C 0.92911 0.81943 0.68078 0.0
H968 H 0.90744 0.79658 0.75782 0.0
C969 C 0.90402 0.83805 0.67271 0.0
H970 H 0.94946 0.79043 0.71858 0.0
C971 C 0.88076 0.84249 0.69556 0.0
C972 C 0.88191 0.82784 0.72647 0.0
H973 H 0.90284 0.85007 0.64922 0.0
H974 H 0.86155 0.85683 0.68869 0.0
C975 C 0.90653 0.8086 0.73431 0.0
C976 C 0.09405 0.98661 0.90176 0.0
C977 C 0.09005 0.00556 0.87381 0.0
H978 H 0.07847 0.97467 0.95037 0.0
C979 C 0.06666 0.02794 0.87403 0.0
H980 H 0.11164 0.96887 0.90214 0.0
C981 C 0.04796 0.03165 0.90193 0.0
C982 C 0.05158 0.01214 0.92954 0.0
H983 H 0.06296 0.04271 0.85273 0.0
H984 H 0.0305 0.04954 0.90178 0.0
C985 C 0.07473 0.98952 0.92913 0.0
C986 C 0.76685 0.3306 0.64307 0.0
C987 C 0.73799 0.32537 0.62034 0.0
H988 H 0.7906 0.31965 0.68991 0.0
C989 C 0.70981 0.30428 0.6293 0.0
H990 H 0.78901 0.34709 0.6375 0.0
C991 C 0.71102 0.28788 0.65957 0.0
C992 C 0.74016 0.29304 0.68187 0.0
H993 H 0.68719 0.29979 0.6126 0.0
H994 H 0.68915 0.27124 0.66559 0.0
C995 C 0.76784 0.31502 0.6734 0.0
C996 C 0.45953 0.09889 0.4011 0.0
C997 C 0.46978 0.08411 0.37005 0.0
H998 H 0.4604 0.09989 0.45573 0.0
C999 C 0.49179 0.06018 0.37137 0.0
H1000 H 0.44344 0.11823 0.40132 0.0
C1001 C 0.50223 0.05024 0.40303 0.0
C1002 C 0.49051 0.06378 0.43372 0.0
H1003 H 0.50034 0.04852 0.34793 0.0
H1004 H 0.51844 0.031 0.40331 0.0
C1005 C 0.46946 0.08857 0.43244 0.0
C1006 C 0.81238 0.70214 0.11018 0.0
C1007 C 0.7905 0.69934 0.08061 0.0
H1008 H 0.81995 0.71233 0.16523 0.0
C1009 C 0.75849 0.70498 0.08427 0.0
H1010 H 0.83707 0.6976 0.10811 0.0
C1011 C 0.74883 0.71415 0.11709 0.0
C1012 C 0.77079 0.71677 0.14656 0.0
H1013 H 0.74116 0.70295 0.06177 0.0
H1014 H 0.72431 0.71913 0.11942 0.0
C1015 C 0.80248 0.71032 0.14286 0.0
C1016 C 0.12371 0.98049 0.66369 0.0
C1017 C 0.10238 0.95797 0.68083 0.0
H1018 H 0.13013 0.00657 0.61905 0.0
C1019 C 0.07203 0.94062 0.66357 0.0
H1020 H 0.1474 0.99393 0.67622 0.0
C1021 C 0.06229 0.94759 0.63064 0.0
C1022 C 0.08268 0.97228 0.6148 0.0
H1023 H 0.05496 0.92352 0.67629 0.0
H1024 H 0.03808 0.9354 0.61858 0.0
C1025 C 0.1139 0.98762 0.63094 0.0
C1026 C 0.74721 0.30021 0.42545 0.0
C1027 C 0.73165 0.3293 0.4352 0.0
H1028 H 0.76407 0.2674 0.38483 0.0
C1029 C 0.71744 0.34504 0.40858 0.0
H1030 H 0.75846 0.2873 0.44499 0.0
C1031 C 0.72076 0.33344 0.37342 0.0
C1032 C 0.73848 0.30598 0.36418 0.0
H1033 H 0.70577 0.36787 0.41497 0.0
H1034 H 0.71124 0.34745 0.35375 0.0
C1035 C 0.75061 0.28886 0.39074 0.0
C1036 C 0.44932 0.02885 0.1524 0.0
C1037 C 0.45207 0.061 0.17525 0.0
H1038 H 0.46503 1.00219 0.10672 0.0
C1039 C 0.47287 0.09173 0.16843 0.0
H1040 H 0.43354 0.00473 0.15696 0.0
C1041 C 0.49157 0.08997 0.14039 0.0
C1042 C 0.48928 0.0577 0.11801 0.0
H1043 H 0.47576 0.11686 0.18561 0.0
H1044 H 0.508 0.11385 0.13633 0.0
C1045 C 0.46738 0.02737 0.12373 0.0
C1046 C 0.82835 0.77887 0.92114 0.0
C1047 C 0.80207 0.76093 0.9361 0.0
H1048 H 0.84285 0.80942 0.88125 0.0
C1049 C 0.77071 0.76804 0.9283 0.0
H1050 H 0.85289 0.77429 0.92706 0.0
C1051 C 0.765 0.78864 0.90244 0.0
C1052 C 0.79048 0.80175 0.88349 0.0
H1053 H 0.75013 0.75527 0.94014 0.0
H1054 H 0.74005 0.79092 0.89494 0.0
C1055 C 0.82258 0.79913 0.89489 0.0
C1056 C 0.91503 0.11256 0.99247 0.0
C1057 C 0.88747 0.10593 0.01095 0.0
H1058 H 0.9579 0.09395 0.97515 0.0
C1059 C 0.88383 0.07548 0.02798 0.0
H1060 H 0.91874 0.13559 0.97889 0.0
C1061 C 0.90573 0.05157 0.0253 0.0
C1062 C 0.93257 0.05727 1.00595 0.0
H1063 H 0.86324 0.06927 0.04265 0.0
H1064 H 0.90131 0.02817 0.03832 0.0
C1065 C 0.93743 0.08857 0.99015 0.0
C1066 C 0.36891 0.49878 0.03958 0.0
C1067 C 0.3644 0.47705 0.06568 0.0
H1068 H 0.40195 0.52469 0.00811 0.0
C1069 C 0.39115 0.46412 0.07995 0.0
H1070 H 0.34877 0.50902 0.02786 0.0
C1071 C 0.42195 0.47319 0.06853 0.0
C1072 C 0.4264 0.49522 0.04257 0.0
H1073 H 0.3884 0.44734 0.10011 0.0
H1074 H 0.44223 0.46312 0.08016 0.0
C1075 C 0.39947 0.50764 0.02809 0.0
C1076 C 0.30894 0.66602 0.7521 0.0
C1077 C 0.28812 0.63333 0.75255 0.0
H1078 H 0.31343 0.72226 0.75345 0.0
C1079 C 0.2544 0.63219 0.75203 0.0
H1080 H 0.33513 0.66752 0.75332 0.0
C1081 C 0.2418 0.66381 0.75105 0.0
C1082 C 0.26302 0.6968 0.75243 0.0
H1083 H 0.2381 0.60724 0.75319 0.0
H1084 H 0.21574 0.66278 0.75081 0.0
C1085 C 0.29655 0.69749 0.75263 0.0
C1086 C 0.19311 0.60096 0.52255 0.0
C1087 C 0.19864 0.60896 0.4892 0.0
H1088 H 0.15788 0.58278 0.55638 0.0
C1089 C 0.17191 0.60408 0.46398 0.0
H1090 H 0.21321 0.60427 0.54255 0.0
C1091 C 0.14035 0.59205 0.47205 0.0
C1092 C 0.13486 0.58431 0.50538 0.0
H1093 H 0.17528 0.60988 0.43806 0.0
H1094 H 0.12019 0.58885 0.45213 0.0
C1095 C 0.16151 0.58855 0.5305 0.0
C1096 C 0.71615 0.93181 0.83166 0.0
C1097 C 0.68646 0.92608 0.81043 0.0
H1098 H 0.76238 0.91579 0.84102 0.0
C1099 C 0.68101 0.8993 0.78147 0.0
H1100 H 0.72118 0.95243 0.85406 0.0
C1101 C 0.70448 0.87821 0.77432 0.0
C1102 C 0.73393 0.88379 0.79576 0.0
H1103 H 0.65839 0.8942 0.76468 0.0
H1104 H 0.69956 0.85747 0.75203 0.0
C1105 C 0.7398 0.91103 0.8242 0.0
C1106 C 0.67255 0.96729 0.52342 0.0
C1107 C 0.69899 0.99545 0.53456 0.0
H1108 H 0.62177 0.95243 0.50557 0.0
C1109 C 0.69482 0.03089 0.53261 0.0
H1110 H 0.67509 0.93969 0.52418 0.0
C1111 C 0.66429 0.03819 0.52194 0.0
C1112 C 0.63749 0.01015 0.51276 0.0
H1113 H 0.7148 0.0532 0.54069 0.0
H1114 H 0.66134 0.06583 0.52248 0.0
C1115 C 0.6421 0.97458 0.51248 0.0
C1116 C 0.28852 0.44683 0.79543 0.0
C1117 C 0.30761 0.45959 0.77012 0.0
H1118 H 0.26392 0.40169 0.81557 0.0
C1119 C 0.3144 0.43452 0.74329 0.0
H1120 H 0.28236 0.4651 0.81632 0.0
C1121 C 0.30344 0.39752 0.74278 0.0
C1122 C 0.28579 0.38501 0.76926 0.0
H1123 H 0.32898 0.44335 0.72334 0.0
H1124 H 0.30981 0.37874 0.72247 0.0
C1125 C 0.27794 0.41023 0.79508 0.0
C1126 C 0.18549 0.60638 0.33514 0.0
C1127 C 0.17367 0.57691 0.30939 0.0
H1128 H 0.21056 0.66086 0.34678 0.0
C1129 C 0.18022 0.57954 0.27507 0.0
H1130 H 0.18085 0.60515 0.36179 0.0
C1131 C 0.19797 0.61116 0.26666 0.0
C1132 C 0.20872 0.64091 0.29227 0.0
H1133 H 0.17165 0.55712 0.25474 0.0
H1134 H 0.20235 0.61272 0.24 0.0
C1135 C 0.20248 0.63822 0.32657 0.0
C1136 C 0.50064 0.71438 0.47791 0.0
C1137 C 0.51987 0.72104 0.45074 0.0
H1138 H 0.49049 0.68329 0.51865 0.0
C1139 C 0.5477 0.70528 0.44798 0.0
H1140 H 0.47931 0.72656 0.48118 0.0
C1141 C 0.55418 0.68056 0.46977 0.0
C1142 C 0.53298 0.67138 0.4946 0.0
H1143 H 0.5631 0.71 0.42749 0.0
H1144 H 0.57442 0.6668 0.46552 0.0
C1145 C 0.5071 0.68974 0.49959 0.0
C1146 C 0.60517 0.27321 0.74236 0.0
C1147 C 0.59744 0.30596 0.73496 0.0
H1148 H 0.64185 0.24514 0.75987 0.0
C1149 C 0.62218 0.33665 0.74114 0.0
H1150 H 0.58674 0.24907 0.73817 0.0
C1151 C 0.65406 0.33439 0.75355 0.0
C1152 C 0.66185 0.30148 0.76051 0.0
H1153 H 0.61709 0.36234 0.73583 0.0
H1154 H 0.67268 0.35835 0.7572 0.0
C1155 C 0.63685 0.27104 0.75512 0.0
C1156 C 0.00693 0.39797 0.92574 0.0
C1157 C 0.98785 0.36552 0.93112 0.0
H1158 H 0.0217 0.45456 0.9437 0.0
C1159 C 0.97115 0.36501 0.96086 0.0
H1160 H 0.02021 0.39915 0.90319 0.0
C1161 C 0.97231 0.39615 0.98392 0.0
C1162 C 0.98994 0.42892 0.97787 0.0
H1163 H 0.95674 0.34041 0.96629 0.0
H1164 H 0.95859 0.39462 1.00615 0.0
C1165 C 0.0078 0.42958 0.9489 0.0
C1166 C 0.90132 0.7351 0.25714 0.0
C1167 C 0.90411 0.74841 0.22551 0.0
H1168 H 0.87284 0.728 0.29978 0.0
C1169 C 0.87824 0.76325 0.21173 0.0
H1170 H 0.92082 0.72368 0.26861 0.0
C1171 C 0.85111 0.76638 0.22993 0.0
C1172 C 0.84884 0.75415 0.26206 0.0
H1173 H 0.87957 0.77403 0.18758 0.0
H1174 H 0.83234 0.77933 0.21922 0.0
C1175 C 0.87391 0.73778 0.27512 0.0
C1176 C 0.52583 0.40034 0.02832 0.0
C1177 C 0.4943 0.37951 0.02495 0.0
H1178 H 0.55588 0.44685 0.01537 0.0
C1179 C 0.47059 0.38547 1.00004 0.0
H1180 H 0.54483 0.39614 0.04693 0.0
C1181 C 0.47707 0.41447 0.98198 0.0
C1182 C 0.50726 0.43783 0.98872 0.0
H1183 H 0.44624 0.36952 0.99639 0.0
H1184 H 0.45758 0.42021 0.96493 0.0
C1185 C 0.53222 0.42942 0.01034 0.0
C1186 C 0.90636 0.23604 0.37965 0.0
C1187 C 0.93715 0.25573 0.37622 0.0
H1188 H 0.85604 0.22199 0.35962 0.0
C1189 C 0.94102 0.27608 0.34901 0.0
H1190 H 0.90288 0.21977 0.40016 0.0
C1191 C 0.91439 0.27724 0.32591 0.0
C1192 C 0.88361 0.25781 0.32949 0.0
H1193 H 0.96458 0.29133 0.34567 0.0
H1194 H 0.91781 0.29376 0.30557 0.0
C1195 C 0.87974 0.23691 0.35625 0.0
C1196 C 0.95064 0.68929 0.54823 0.0
C1197 C 0.97675 0.71608 0.56404 0.0
H1198 H 0.9352 0.63492 0.5242 0.0
C1199 C 0.00844 0.70827 0.56589 0.0
H1200 H 0.92594 0.69442 0.54625 0.0
C1201 C 0.0138 0.67425 0.55285 0.0
C1202 C 0.98757 0.64716 0.53795 0.0
H1203 H 0.02916 0.72836 0.57762 0.0
H1204 H 0.03843 0.66894 0.55542 0.0
C1205 C 0.95597 0.65517 0.53549 0.0
C1206 C 0.61549 0.81449 0.86653 0.0
C1207 C 0.60877 0.78793 0.88787 0.0
H1208 H 0.64013 0.83091 0.82396 0.0
C1209 C 0.6222 0.75664 0.882 0.0
H1210 H 0.60533 0.83876 0.87022 0.0
C1211 C 0.64161 0.75186 0.85503 0.0
C1212 C 0.64806 0.77837 0.8337 0.0
H1213 H 0.61721 0.73548 0.89776 0.0
H1214 H 0.65204 0.72777 0.8513 0.0
C1215 C 0.63497 0.80975 0.83972 0.0
C1216 C 0.43902 0.60079 0.64661 0.0
C1217 C 0.41699 0.57268 0.6564 0.0
H1218 H 0.47846 0.61576 0.61664 0.0
C1219 C 0.4183 0.53721 0.64299 0.0
H1220 H 0.43867 0.62844 0.6567 0.0
C1221 C 0.4416 0.52994 0.62087 0.0
C1222 C 0.46386 0.55798 0.6112 0.0
H1223 H 0.40192 0.51494 0.65031 0.0
H1224 H 0.44172 0.50221 0.61095 0.0
C1225 C 0.46208 0.59354 0.62402 0.0
C1226 C 0.82838 0.26727 0.91045 0.0
C1227 C 0.80561 0.24169 0.92292 0.0
H1228 H 0.83803 0.30376 0.87391 0.0
C1229 C 0.77328 0.23452 0.90674 0.0
H1230 H 0.85351 0.27364 0.92176 0.0
C1231 C 0.76426 0.25227 0.87897 0.0
C1232 C 0.78739 0.27728 0.86627 0.0
H1233 H 0.75491 0.2151 0.91546 0.0
H1234 H 0.73913 0.24671 0.8678 0.0
C1235 C 0.81945 0.28463 0.88273 0.0
C1236 C 0.01591 0.46987 0.17478 0.0
C1237 C 0.04888 0.46957 0.18488 0.0
H1238 H 0.98084 0.47901 0.13574 0.0
C1239 C 0.07187 0.47648 0.16125 0.0
H1240 H 0.9975 0.46462 0.19232 0.0
C1241 C 0.06223 0.4845 0.12862 0.0
C1242 C 0.02941 0.48613 0.11903 0.0
H1243 H 0.09743 0.47637 0.16817 0.0
H1244 H 0.08072 0.49042 0.11132 0.0
C1245 C 0.00631 0.4782 0.14231 0.0
C1246 C 0.7733 0.87157 0.46533 0.0
C1247 C 0.80271 0.87274 0.4858 0.0
H1248 H 0.74398 0.85005 0.41756 0.0
C1249 C 0.82536 0.85232 0.47321 0.0
H1250 H 0.75527 0.88682 0.47434 0.0
C1251 C 0.81878 0.83126 0.44087 0.0
C1252 C 0.78945 0.83016 0.42056 0.0
H1253 H 0.84823 0.85255 0.4883 0.0
H1254 H 0.83676 0.81601 0.43169 0.0
C1255 C 0.76671 0.85038 0.43297 0.0
C1256 C 0.41635 0.5856 0.86443 0.0
C1257 C 0.42487 0.57053 0.83258 0.0
H1258 H 0.42883 0.59691 0.91925 0.0
C1259 C 0.45442 0.55797 0.83132 0.0
H1260 H 0.39399 0.59612 0.86603 0.0
C1261 C 0.47444 0.55898 0.86152 0.0
C1262 C 0.4652 0.57246 0.89347 0.0
H1263 H 0.46189 0.54676 0.80707 0.0
H1264 H 0.49655 0.54792 0.85996 0.0
C1265 C 0.43644 0.58653 0.89477 0.0
C1266 C 0.78774 0.23285 0.10212 0.0
C1267 C 0.82059 0.23114 0.09767 0.0
H1268 H 0.75302 0.24714 0.13669 0.0
C1269 C 0.84395 0.24354 0.12644 0.0
H1270 H 0.76904 0.2236 0.08062 0.0
C1271 C 0.83459 0.25609 0.1589 0.0
C1272 C 0.80175 0.25785 0.1633 0.0
H1273 H 0.86941 0.24248 0.12414 0.0
H1274 H 0.85314 0.26445 0.18065 0.0
C1275 C 0.77854 0.24654 0.13427 0.0
C1276 C 0.02374 0.51868 0.36652 0.0
C1277 C 0.05394 0.50757 0.37138 0.0
H1278 H 0.98241 0.53337 0.39004 0.0
C1279 C 0.06693 0.50599 0.40518 0.0
H1280 H 0.01288 0.51996 0.34083 0.0
C1281 C 0.04957 0.51419 0.43335 0.0
C1282 C 0.01894 0.52403 0.4282 0.0
H1283 H 0.08993 0.49722 0.40985 0.0
H1284 H 0.05937 0.51091 0.45881 0.0
C1285 C 0.00625 0.52639 0.39462 0.0
C1286 C 0.73325 0.85058 0.64579 0.0
C1287 C 0.75983 0.84649 0.62686 0.0
H1288 H 0.70645 0.83331 0.68674 0.0
C1289 C 0.77347 0.81541 0.62753 0.0
H1290 H 0.72198 0.87401 0.64537 0.0
C1291 C 0.76437 0.79198 0.65087 0.0
C1292 C 0.74164 0.79941 0.67393 0.0
H1293 H 0.79339 0.81101 0.61243 0.0
H1294 H 0.77805 0.77073 0.65383 0.0
C1295 C 0.72408 0.82696 0.66921 0.0
C1296 C 0.64856 0.50254 0.56886 0.0
C1297 C 0.64196 0.46591 0.55474 0.0
H1298 H 0.63117 0.5522 0.57691 0.0
C1299 C 0.61023 0.4511 0.53924 0.0
H1300 H 0.67263 0.51522 0.58093 0.0
C1301 C 0.58606 0.47264 0.53753 0.0
C1302 C 0.59318 0.50943 0.55103 0.0
H1303 H 0.60425 0.42317 0.52785 0.0
H1304 H 0.56244 0.46075 0.52416 0.0
C1305 C 0.62473 0.52394 0.56666 0.0
C1306 C 0.17208 0.0948 0.48577 0.0
C1307 C 0.17762 0.09358 0.4508 0.0
H1308 H 0.13837 0.08054 0.52205 0.0
C1309 C 0.15235 0.07766 0.42503 0.0
H1310 H 0.19137 0.10649 0.50617 0.0
C1311 C 0.12173 0.06348 0.43426 0.0
C1312 C 0.11668 0.06393 0.46927 0.0
H1313 H 0.15629 0.07625 0.39797 0.0
H1314 H 0.10226 0.05148 0.41416 0.0
C1315 C 0.14198 0.07963 0.49492 0.0
C1316 C 0.2562 0.9293 0.82799 0.0
C1317 C 0.23304 0.93562 0.80263 0.0
H1318 H 0.29356 0.89977 0.84021 0.0
C1319 C 0.23224 0.91847 0.76848 0.0
H1320 H 0.2576 0.94204 0.85451 0.0
C1321 C 0.25308 0.89434 0.76032 0.0
C1322 C 0.27486 0.88669 0.7861 0.0
H1323 H 0.21496 0.92292 0.74818 0.0
H1324 H 0.2518 0.88123 0.73399 0.0
C1325 C 0.27691 0.90514 0.81978 0.0
C1326 C 0.31553 0.99783 0.03818 0.0
C1327 C 0.30398 0.96157 0.02522 0.0
H1328 H 0.35714 0.04058 0.04763 0.0
C1329 C 0.32457 0.94105 0.00888 0.0
H1330 H 0.29989 0.01384 0.05123 0.0
C1331 C 0.35677 0.95625 1.0064 0.0
C1332 C 0.36899 0.99193 0.021 0.0
H1333 H 0.31594 0.91303 0.99872 0.0
H1334 H 0.37241 0.93961 0.99422 0.0
C1335 C 0.34813 0.01291 0.03643 0.0
C1336 C 0.81206 0.65761 0.75211 0.0
C1337 C 0.84137 0.66992 0.77367 0.0
H1338 H 0.76589 0.6698 0.73351 0.0
C1339 C 0.84772 0.70503 0.79111 0.0
H1340 H 0.80642 0.63023 0.73906 0.0
C1341 C 0.82485 0.7272 0.78824 0.0
C1342 C 0.79489 0.71484 0.7679 0.0
H1343 H 0.86985 0.71481 0.8084 0.0
H1344 H 0.83014 0.75353 0.80351 0.0
C1345 C 0.78884 0.68002 0.74925 0.0
C1346 C 0.86996 0.6147 0.02188 0.0
C1347 C 0.84196 0.59454 1.00212 0.0
H1348 H 0.91489 0.61372 0.05131 0.0
C1349 C 0.83619 0.55699 0.99982 0.0
H1350 H 0.87452 0.64363 0.02508 0.0
C1351 C 0.85928 0.53975 0.0149 0.0
C1352 C 0.88813 0.55991 0.033 0.0
H1353 H 0.81449 0.54086 0.98509 0.0
H1354 H 0.85529 0.51072 0.01096 0.0
C1355 C 0.89276 0.59752 0.03748 0.0
C1356 C 0.19868 0.10602 0.77601 0.0
C1357 C 0.20226 0.09798 0.81005 0.0
H1358 H 0.20799 0.14579 0.74214 0.0
C1359 C 0.21965 0.12471 0.83601 0.0
H1360 H 0.18561 0.08601 0.75528 0.0
C1361 C 0.23224 0.15874 0.82849 0.0
C1362 C 0.22814 0.16714 0.79471 0.0
H1363 H 0.22309 0.11964 0.86245 0.0
H1364 H 0.24501 0.17869 0.84944 0.0
C1365 C 0.21168 0.14019 0.76837 0.0
C1366 C 0.327 0.98921 0.31877 0.0
C1367 C 0.35122 0.99934 0.29713 0.0
H1368 H 0.2909 0.94756 0.33141 0.0
C1369 C 0.35605 0.97401 0.26956 0.0
H1370 H 0.32224 0.00801 0.34005 0.0
C1371 C 0.33785 0.939 0.26468 0.0
C1372 C 0.31442 0.9289 0.28711 0.0
H1373 H 0.37443 0.98092 0.25239 0.0
H1374 H 0.3426 0.91966 0.24386 0.0
C1375 C 0.30885 0.95452 0.31379 0.0
C1376 C 0.51286 0.35886 0.60522 0.0
C1377 C 0.48504 0.33193 0.59616 0.0
H1378 H 0.53873 0.40951 0.596 0.0
C1379 C 0.46372 0.33395 0.56705 0.0
H1380 H 0.52985 0.35825 0.62734 0.0
C1381 C 0.46894 0.36337 0.54894 0.0
C1382 C 0.49543 0.39143 0.55973 0.0
H1383 H 0.44214 0.31358 0.55911 0.0
H1384 H 0.4513 0.36503 0.52775 0.0
C1385 C 0.51789 0.38834 0.5873 0.0
C1386 C 0.40009 0.74273 0.30732 0.0
C1387 C 0.42483 0.77089 0.30232 0.0
H1388 H 0.3491 0.72065 0.30097 0.0
C1389 C 0.41652 0.79789 0.28415 0.0
H1390 H 0.40581 0.72136 0.32101 0.0
C1391 C 0.38376 0.79777 0.27304 0.0
C1392 C 0.35889 0.77011 0.27907 0.0
H1393 H 0.43509 0.81989 0.27993 0.0
H1394 H 0.37778 0.81983 0.26059 0.0
C1395 C 0.36759 0.74211 0.2955 0.0
C1396 C 0.98783 0.6694 0.06946 0.0
C1397 C 0.98444 0.66997 0.10492 0.0
H1398 H 0.00439 0.64287 0.02414 0.0
C1399 C 0.99507 0.64334 0.12195 0.0
H1400 H 0.98003 0.68988 0.05586 0.0
C1401 C 0.00809 0.61608 0.10367 0.0
C1402 C 0.01205 0.61586 0.0684 0.0
H1403 H 0.9928 0.6433 0.14927 0.0
H1404 H 0.01533 0.59525 0.11717 0.0
C1405 C 0.00206 0.64288 0.05145 0.0
C1406 C 0.12119 0.31462 0.77816 0.0
C1407 C 0.11195 0.30204 0.80872 0.0
H1408 H 0.15754 0.32116 0.74295 0.0
C1409 C 0.135 0.28846 0.82897 0.0
H1410 H 0.10426 0.32548 0.762 0.0
C1411 C 0.16581 0.28566 0.81774 0.0
C1412 C 0.17418 0.29663 0.7862 0.0
H1413 H 0.1287 0.27841 0.85259 0.0
H1414 H 0.18254 0.27373 0.83306 0.0
C1415 C 0.15184 0.31211 0.76718 0.0
C1416 C 0.48502 0.66262 0.02832 0.0
C1417 C 0.5113 0.6879 0.02124 0.0
H1418 H 0.46972 0.61065 0.04233 0.0
C1419 C 0.54335 0.68259 0.02939 0.0
H1420 H 0.46003 0.66576 0.0224 0.0
C1421 C 0.54882 0.65113 0.04166 0.0
C1422 C 0.52228 0.62452 0.04516 0.0
H1423 H 0.56408 0.70163 0.02428 0.0
H1424 H 0.57355 0.64639 0.04567 0.0
C1425 C 0.49048 0.63096 0.03962 0.0
C1426 C 0.12359 0.83946 0.66101 0.0
C1427 C 0.09767 0.84157 0.68132 0.0
H1428 H 0.17262 0.83044 0.65933 0.0
C1429 C 0.10182 0.83785 0.71645 0.0
H1430 H 0.1209 0.84248 0.63392 0.0
C1431 C 0.13087 0.83012 0.73063 0.0
C1432 C 0.15639 0.82699 0.7101 0.0
H1433 H 0.08213 0.83934 0.73264 0.0
H1434 H 0.13323 0.82611 0.75749 0.0
C1435 C 0.15302 0.83268 0.6755 0.0
C1436 C 0.98407 0.37194 0.5233 0.0
C1437 C 0.00381 0.35681 0.50037 0.0
H1438 H 0.97114 0.41972 0.54825 0.0
C1439 C 0.02923 0.37964 0.48833 0.0
H1440 H 0.96461 0.35522 0.53353 0.0
C1441 C 0.03303 0.41697 0.49689 0.0
C1442 C 0.01147 0.43195 0.51759 0.0
H1443 H 0.04498 0.36884 0.47072 0.0
H1444 H 0.05143 0.434 0.48555 0.0
C1445 C 0.98785 0.40901 0.53178 0.0
C1446 C 0.42625 0.29664 0.20819 0.0
C1447 C 0.42509 0.31136 0.17719 0.0
H1448 H 0.40004 0.28103 0.25034 0.0
C1449 C 0.396 0.32068 0.16421 0.0
H1450 H 0.44846 0.28926 0.21871 0.0
C1451 C 0.3688 0.31636 0.18231 0.0
C1452 C 0.37011 0.30246 0.21362 0.0
H1453 H 0.39438 0.3323 0.14053 0.0
H1454 H 0.3468 0.3243 0.17189 0.0
C1455 C 0.39875 0.29206 0.2263 0.0
C1456 C 0.57046 0.52302 0.37805 0.0
C1457 C 0.59348 0.50025 0.37874 0.0
H1458 H 0.53361 0.54505 0.40409 0.0
C1459 C 0.5962 0.4811 0.40673 0.0
H1460 H 0.56772 0.53795 0.35668 0.0
C1461 C 0.57592 0.48424 0.43325 0.0
C1462 C 0.55304 0.50719 0.43266 0.0
H1463 H 0.61345 0.46303 0.40775 0.0
H1464 H 0.57869 0.46931 0.45462 0.0
C1465 C 0.55076 0.52685 0.40499 0.0
C1466 C 0.23048 0.84135 0.15259 0.0
C1467 C 0.22866 0.82189 0.11923 0.0
H1468 H 0.23767 0.84094 0.20753 0.0
C1469 C 0.23111 0.78549 0.11629 0.0
H1470 H 0.22991 0.86978 0.15572 0.0
C1471 C 0.23533 0.76897 0.14585 0.0
C1472 C 0.23847 0.78869 0.17921 0.0
H1473 H 0.23095 0.77011 0.09105 0.0
H1474 H 0.23728 0.74089 0.14254 0.0
C1475 C 0.23558 0.82502 0.18228 0.0
C1476 C 0.95 0.59196 0.89525 0.0
C1477 C 0.96296 0.5803 0.8647 0.0
H1478 H 0.94952 0.5911 0.94963 0.0
C1479 C 0.98751 0.55945 0.86663 0.0
H1480 H 0.93166 0.60871 0.89504 0.0
C1481 C 0.99836 0.54997 0.8983 0.0
C1482 C 0.98456 0.56076 0.92857 0.0
H1483 H 0.99822 0.55023 0.84365 0.0
H1484 H 0.01695 0.53346 0.89889 0.0
C1485 C 0.96041 0.58203 0.9267 0.0
C1486 C 0.31099 0.22966 0.60015 0.0
C1487 C 0.29101 0.20088 0.57845 0.0
H1488 H 0.31635 0.26645 0.64691 0.0
C1489 C 0.25974 0.18768 0.58746 0.0
H1490 H 0.33509 0.24057 0.59387 0.0
C1491 C 0.24907 0.20239 0.61808 0.0
C1492 C 0.26931 0.23083 0.63983 0.0
H1493 H 0.24377 0.16546 0.57125 0.0
H1494 H 0.22527 0.19125 0.62495 0.0
C1495 C 0.30015 0.24462 0.63042 0.0
C1496 C 0.6174 0.48064 0.17164 0.0
C1497 C 0.59588 0.46091 0.19087 0.0
H1498 H 0.62288 0.50565 0.12627 0.0
C1499 C 0.56361 0.44732 0.17652 0.0
H1500 H 0.64249 0.49123 0.18186 0.0
C1501 C 0.55259 0.45504 0.14432 0.0
C1502 C 0.57356 0.47705 0.12652 0.0
H1503 H 0.5464 0.43229 0.19085 0.0
H1504 H 0.52725 0.44565 0.13439 0.0
C1505 C 0.60624 0.48887 0.13982 0.0
C1506 C 0.25416 0.8098 0.92826 0.0
C1507 C 0.23654 0.83703 0.93841 0.0
H1508 H 0.27337 0.77979 0.88743 0.0
C1509 C 0.22166 0.85255 0.91204 0.0
H1510 H 0.26594 0.79699 0.94751 0.0
C1511 C 0.22598 0.84242 0.87685 0.0
C1512 C 0.24547 0.81674 0.86728 0.0
H1513 H 0.20832 0.87394 0.91869 0.0
H1514 H 0.21547 0.856 0.8574 0.0
C1515 C 0.25864 0.80001 0.89355 0.0
C1516 C 0.97142 0.59043 0.66117 0.0
C1517 C 0.94935 0.56031 0.66726 0.0
H1518 H 0.00711 0.61186 0.62936 0.0
C1519 C 0.94501 0.52864 0.64342 0.0
H1520 H 0.9755 0.61521 0.67902 0.0
C1521 C 0.9628 0.52697 0.61455 0.0
C1522 C 0.98589 0.55664 0.6095 0.0
H1523 H 0.92818 0.505 0.64732 0.0
H1524 H 0.95927 0.50214 0.59681 0.0
C1525 C 0.98972 0.58847 0.63284 0.0
C1526 C 0.28876 0.25218 0.4276 0.0
C1527 C 0.31635 0.23596 0.42757 0.0
H1528 H 0.25804 0.28043 0.40018 0.0
C1529 C 0.3377 0.24128 0.40212 0.0
H1530 H 0.27215 0.24859 0.44725 0.0
C1531 C 0.32938 0.25905 0.37464 0.0
C1532 C 0.29977 0.27181 0.37268 0.0
H1533 H 0.35906 0.22878 0.40164 0.0
H1534 H 0.34461 0.25986 0.35356 0.0
C1535 C 0.28071 0.27032 0.40058 0.0
C1536 C 0.38694 0.57692 0.5339 0.0
C1537 C 0.3894 0.60587 0.51484 0.0
H1538 H 0.40517 0.53064 0.54613 0.0
C1539 C 0.4159 0.61102 0.49463 0.0
H1540 H 0.36723 0.57189 0.54997 0.0
C1541 C 0.43825 0.58693 0.49257 0.0
C1542 C 0.43442 0.55697 0.5104 0.0
H1543 H 0.41869 0.63284 0.47943 0.0
H1544 H 0.45778 0.59105 0.47616 0.0
C1545 C 0.40877 0.55292 0.53153 0.0
C1546 C 0.89983 0.98003 0.58037 0.0
C1547 C 0.87329 0.99256 0.56508 0.0
H1548 H 0.95015 0.97588 0.57975 0.0
C1549 C 0.87807 0.0126 0.53777 0.0
H1550 H 0.89705 0.96502 0.60184 0.0
C1551 C 0.90842 0.01892 0.52519 0.0
C1552 C 0.93476 0.00543 0.53969 0.0
H1553 H 0.85814 0.0227 0.52544 0.0
H1554 H 0.91104 0.03411 0.5038 0.0
C1555 C 0.93028 0.98632 0.56774 0.0
C1556 C 0.77276 0.1466 0.28863 0.0
C1557 C 0.77893 0.12484 0.25892 0.0
H1558 H 0.75747 0.1949 0.30922 0.0
C1559 C 0.76946 0.13329 0.22621 0.0
H1560 H 0.77961 0.1411 0.31433 0.0
C1561 C 0.75588 0.16402 0.22348 0.0
C1562 C 0.75243 0.18698 0.25338 0.0
H1563 H 0.77392 0.1172 0.20286 0.0
H1564 H 0.75 0.17099 0.19812 0.0
C1565 C 0.7602 0.17762 0.28586 0.0
C1566 C 0.6938 0.10516 0.02236 0.0
C1567 C 0.69754 0.11411 0.98898 0.0
H1568 H 0.66062 0.0863 0.0579 0.0
C1569 C 0.66965 0.11036 0.9655 0.0
H1570 H 0.71482 0.10756 0.04105 0.0
C1571 C 0.63872 0.0985 0.97534 0.0
C1572 C 0.63505 0.08975 0.0087 0.0
H1573 H 0.67163 0.11689 0.9396 0.0
H1574 H 0.61763 0.0961 0.95672 0.0
C1575 C 0.66284 0.09288 0.03206 0.0
C1576 C 0.19855 0.41026 0.27029 0.0
C1577 C 0.18624 0.4131 0.30267 0.0
H1578 H 0.23093 0.38676 0.23823 0.0
C1579 C 0.19722 0.39345 0.32767 0.0
H1580 H 0.19076 0.42538 0.25068 0.0
C1581 C 0.21944 0.37083 0.32025 0.0
C1582 C 0.23166 0.36789 0.28793 0.0
H1583 H 0.18818 0.3951 0.35286 0.0
H1584 H 0.22722 0.35574 0.3399 0.0
C1585 C 0.22154 0.38829 0.26321 0.0
C1586 C 0.16637 0.46215 0.03016 0.0
C1587 C 0.19322 0.48988 0.04106 0.0
H1588 H 0.11601 0.44819 0.01054 0.0
C1589 C 0.19035 0.52529 0.03732 0.0
H1590 H 0.168 0.43454 0.03227 0.0
C1591 C 0.16059 0.53307 0.02482 0.0
C1592 C 0.13339 0.50552 0.01564 0.0
H1593 H 0.21073 0.5472 0.04521 0.0
H1594 H 0.15854 0.56076 0.02377 0.0
C1595 C 0.13672 0.46991 0.01741 0.0
C1596 C 0.81068 0.92773 0.23992 0.0
C1597 C 0.80653 0.9529 0.26805 0.0
H1598 H 0.80478 0.87188 0.21874 0.0
C1599 C 0.7905 0.94016 0.29548 0.0
H1600 H 0.82288 0.93649 0.21835 0.0
C1601 C 0.7805 0.90354 0.2958 0.0
C1602 C 0.78586 0.87824 0.26859 0.0
H1603 H 0.7864 0.95848 0.31747 0.0
H1604 H 0.76903 0.89504 0.31791 0.0
C1605 C 0.80031 0.89071 0.24014 0.0
C1606 C 0.67359 0.08882 0.77833 0.0
C1607 C 0.67216 0.08458 0.81334 0.0
H1608 H 0.69279 0.12231 0.74203 0.0
C1609 C 0.69064 0.11113 0.8388 0.0
H1610 H 0.65992 0.06868 0.75805 0.0
C1611 C 0.70931 0.14164 0.82958 0.0
C1612 C 0.71026 0.14613 0.79471 0.0
H1613 H 0.69025 0.10873 0.86599 0.0
H1614 H 0.72258 0.16208 0.84987 0.0
C1615 C 0.69265 0.11927 0.76909 0.0
loop_
_geom_bond_atom_site_label_1
_geom_bond_atom_site_label_2
_geom_bond_distance
_geom_bond_site_symmetry_2
_ccdc_geom_bond_type
Mg0 O1 2.028 . S
Mg0 O7 1.986 . S
Mg0 O9 2.114 1_455 S
Mg0 O10 2.251 1_455 S
Mg0 O13 2.010 . S
O1 Mg0 2.028 . S
O1 C4 1.250 . S
O2 Mg3 2.028 . S
O2 C4 1.248 1_655 S
Mg3 O2 2.028 . S
Mg3 O8 2.032 . S
Mg3 O10 2.079 . S
C4 O1 1.250 . S
C4 O2 1.248 1_455 S
C5 O6 1.264 . S
C5 O13 1.249 . S
O6 C5 1.264 . S
O7 Mg0 1.986 . S
O7 C11 1.246 . S
O8 Mg3 2.032 . S
O8 C11 1.259 1_655 S
O9 Mg0 2.114 1_655 S
O9 C12 1.252 . S
O10 Mg0 2.251 1_655 S
O10 Mg3 2.079 . S
O10 C12 1.273 . S
C11 O7 1.246 . S
C11 O8 1.259 1_455 S
C12 O9 1.252 . S
C12 O10 1.273 . S
O13 Mg0 2.010 . S
O13 C5 1.249 . S
Mg14 O15 2.028 . S
Mg14 O21 1.986 . S
Mg14 O23 2.114 1_455 S
Mg14 O24 2.251 1_455 S
Mg14 O27 2.010 . S
O15 Mg14 2.028 . S
O15 C18 1.250 1_455 S
O16 Mg17 2.028 . S
O16 C18 1.248 . S
Mg17 O16 2.028 . S
Mg17 O22 2.032 . S
Mg17 O24 2.079 . S
C18 O15 1.250 1_655 S
C18 O16 1.248 . S
C19 O20 1.264 . S
C19 O27 1.249 . S
O20 C19 1.264 . S
O21 Mg14 1.986 . S
O21 C25 1.246 1_455 S
O22 Mg17 2.032 . S
O22 C25 1.259 . S
O23 Mg14 2.114 1_655 S
O23 C26 1.252 . S
O24 Mg14 2.251 1_655 S
O24 Mg17 2.079 . S
O24 C26 1.273 . S
C25 O21 1.246 1_655 S
C25 O22 1.259 . S
C26 O23 1.252 . S
C26 O24 1.273 . S
O27 Mg14 2.010 . S
O27 C19 1.249 . S
Mg28 O29 2.028 . S
Mg28 O35 1.986 . S
Mg28 O37 2.114 . S
Mg28 O38 2.251 . S
Mg28 O41 2.010 . S
O29 Mg28 2.028 . S
O29 C32 1.250 . S
O30 Mg31 2.028 . S
O30 C32 1.248 . S
Mg31 O30 2.028 . S
Mg31 O36 2.032 . S
Mg31 O38 2.079 . S
C32 O29 1.250 . S
C32 O30 1.248 . S
C33 O34 1.264 . S
C33 O41 1.249 . S
O34 C33 1.264 . S
O35 Mg28 1.986 . S
O35 C39 1.246 . S
O36 Mg31 2.032 . S
O36 C39 1.259 . S
O37 Mg28 2.114 . S
O37 C40 1.252 . S
O38 Mg28 2.251 . S
O38 Mg31 2.079 . S
O38 C40 1.273 . S
C39 O35 1.246 . S
C39 O36 1.259 . S
C40 O37 1.252 . S
C40 O38 1.273 . S
O41 Mg28 2.010 . S
O41 C33 1.249 . S
Mg42 O43 2.028 . S
Mg42 O49 1.986 . S
Mg42 O51 2.114 . S
Mg42 O52 2.251 . S
Mg42 O55 2.010 . S
O43 Mg42 2.028 . S
O43 C46 1.250 . S
O44 Mg45 2.028 . S
O44 C46 1.248 . S
Mg45 O44 2.028 . S
Mg45 O50 2.032 . S
Mg45 O52 2.079 . S
C46 O43 1.250 . S
C46 O44 1.248 . S
C47 O48 1.264 . S
C47 O55 1.249 . S
O48 C47 1.264 . S
O49 Mg42 1.986 . S
O49 C53 1.246 . S
O50 Mg45 2.032 . S
O50 C53 1.259 . S
O51 Mg42 2.114 . S
O51 C54 1.252 . S
O52 Mg42 2.251 . S
O52 Mg45 2.079 . S
O52 C54 1.273 . S
C53 O49 1.246 . S
C53 O50 1.259 . S
C54 O51 1.252 . S
C54 O52 1.273 . S
O55 Mg42 2.010 . S
O55 C47 1.249 . S
Mg56 O57 2.028 . S
Mg56 O63 1.986 . S
Mg56 O65 2.114 1_455 S
Mg56 O66 2.251 1_455 S
Mg56 O69 2.010 . S
O57 Mg56 2.028 . S
O57 C60 1.250 1_455 S
O58 Mg59 2.028 . S
O58 C60 1.248 . S
Mg59 O58 2.028 . S
Mg59 O64 2.032 . S
Mg59 O66 2.079 . S
C60 O57 1.250 1_655 S
C60 O58 1.248 . S
C61 O62 1.264 . S
C61 O69 1.249 . S
O62 C61 1.264 . S
O63 Mg56 1.986 . S
O63 C67 1.246 . S
O64 Mg59 2.032 . S
O64 C67 1.259 1_655 S
O65 Mg56 2.114 1_655 S
O65 C68 1.252 . S
O66 Mg56 2.251 1_655 S
O66 Mg59 2.079 . S
O66 C68 1.273 . S
C67 O63 1.246 . S
C67 O64 1.259 1_455 S
C68 O65 1.252 . S
C68 O66 1.273 . S
O69 Mg56 2.010 . S
O69 C61 1.249 . S
Mg70 O71 2.028 . S
Mg70 O77 1.986 . S
Mg70 O79 2.114 . S
Mg70 O80 2.251 . S
Mg70 O83 2.010 . S
O71 Mg70 2.028 . S
O71 C74 1.250 . S
O72 Mg73 2.028 . S
O72 C74 1.248 . S
Mg73 O72 2.028 . S
Mg73 O78 2.032 . S
Mg73 O80 2.079 . S
C74 O71 1.250 . S
C74 O72 1.248 . S
C75 O76 1.264 . S
C75 O83 1.249 . S
O76 C75 1.264 . S
O77 Mg70 1.986 . S
O77 C81 1.246 . S
O78 Mg73 2.032 . S
O78 C81 1.259 . S
O79 Mg70 2.114 . S
O79 C82 1.252 . S
O80 Mg70 2.251 . S
O80 Mg73 2.079 . S
O80 C82 1.273 . S
C81 O77 1.246 . S
C81 O78 1.259 . S
C82 O79 1.252 . S
C82 O80 1.273 . S
O83 Mg70 2.010 . S
O83 C75 1.249 . S
Mg84 O85 2.028 . S
Mg84 O91 1.986 . S
Mg84 O93 2.114 . S
Mg84 O94 2.251 . S
Mg84 O97 2.010 . S
O85 Mg84 2.028 . S
O85 C88 1.250 . S
O86 Mg87 2.028 . S
O86 C88 1.248 . S
Mg87 O86 2.028 . S
Mg87 O92 2.032 . S
Mg87 O94 2.079 . S
C88 O85 1.250 . S
C88 O86 1.248 . S
C89 O90 1.264 . S
C89 O97 1.249 . S
O90 C89 1.264 . S
O91 Mg84 1.986 . S
O91 C95 1.246 . S
O92 Mg87 2.032 . S
O92 C95 1.259 . S
O93 Mg84 2.114 . S
O93 C96 1.252 . S
O94 Mg84 2.251 . S
O94 Mg87 2.079 . S
O94 C96 1.273 . S
C95 O91 1.246 . S
C95 O92 1.259 . S
C96 O93 1.252 . S
C96 O94 1.273 . S
O97 Mg84 2.010 . S
O97 C89 1.249 . S
Mg98 O99 2.028 . S
Mg98 O105 1.986 . S
Mg98 O107 2.114 1_455 S
Mg98 O108 2.251 1_455 S
Mg98 O111 2.010 . S
O99 Mg98 2.028 . S
O99 C102 1.250 . S
O100 Mg101 2.028 . S
O100 C102 1.248 1_655 S
Mg101 O100 2.028 . S
Mg101 O106 2.032 . S
Mg101 O108 2.079 . S
C102 O99 1.250 . S
C102 O100 1.248 1_455 S
C103 O104 1.264 . S
C103 O111 1.249 . S
O104 C103 1.264 . S
O105 Mg98 1.986 . S
O105 C109 1.246 . S
O106 Mg101 2.032 . S
O106 C109 1.259 1_655 S
O107 Mg98 2.114 1_655 S
O107 C110 1.252 . S
O108 Mg98 2.251 1_655 S
O108 Mg101 2.079 . S
O108 C110 1.273 . S
C109 O105 1.246 . S
C109 O106 1.259 1_455 S
C110 O107 1.252 . S
C110 O108 1.273 . S
O111 Mg98 2.010 . S
O111 C103 1.249 . S
Mg112 O113 2.028 . S
Mg112 O119 1.986 . S
Mg112 O121 2.114 . S
Mg112 O122 2.251 . S
Mg112 O125 2.010 . S
O113 Mg112 2.028 . S
O113 C116 1.262 . S
O114 Mg115 2.028 . S
O114 C116 1.255 . S
Mg115 O114 2.028 . S
Mg115 O120 2.032 . S
Mg115 O122 2.079 . S
C116 O113 1.262 . S
C116 O114 1.255 . S
C117 O118 1.264 . S
C117 O125 1.249 . S
O118 C117 1.264 . S
O119 Mg112 1.986 . S
O119 C123 1.246 . S
O120 Mg115 2.032 . S
O120 C123 1.259 . S
O121 Mg112 2.114 . S
O121 C124 1.252 . S
O122 Mg112 2.251 . S
O122 Mg115 2.079 . S
O122 C124 1.273 . S
C123 O119 1.246 . S
C123 O120 1.259 . S
C124 O121 1.252 . S
C124 O122 1.273 . S
O125 Mg112 2.010 . S
O125 C117 1.249 . S
Mg126 O127 2.028 . S
Mg126 O133 1.986 . S
Mg126 O135 2.114 . S
Mg126 O136 2.251 . S
Mg126 O139 2.010 . S
O127 Mg126 2.028 . S
O127 C130 1.250 . S
O128 Mg129 2.028 . S
O128 C130 1.248 . S
Mg129 O128 2.028 . S
Mg129 O134 2.032 . S
Mg129 O136 2.079 . S
C130 O127 1.250 . S
C130 O128 1.248 . S
C131 O132 1.264 . S
C131 O139 1.249 . S
O132 C131 1.264 . S
O133 Mg126 1.986 . S
O133 C137 1.246 . S
O134 Mg129 2.032 . S
O134 C137 1.259 . S
O135 Mg126 2.114 . S
O135 C138 1.252 . S
O136 Mg126 2.251 . S
O136 Mg129 2.079 . S
O136 C138 1.273 . S
C137 O133 1.246 . S
C137 O134 1.259 . S
C138 O135 1.252 . S
C138 O136 1.273 . S
O139 Mg126 2.010 . S
O139 C131 1.249 . S
Mg140 O141 2.028 1_565 S
Mg140 O147 1.986 . S
Mg140 O149 2.114 1_565 S
Mg140 O150 2.251 . S
Mg140 O153 2.010 . S
O141 Mg140 2.028 1_545 S
O141 C144 1.250 . S
O142 Mg143 2.028 . S
O142 C144 1.248 . S
Mg143 O142 2.028 . S
Mg143 O148 2.032 1_545 S
Mg143 O150 2.079 1_545 S
C144 O141 1.250 . S
C144 O142 1.248 . S
C145 O146 1.264 . S
C145 O153 1.249 . S
O146 C145 1.264 . S
O147 Mg140 1.986 . S
O147 C151 1.246 . S
O148 Mg143 2.032 1_565 S
O148 C151 1.259 . S
O149 Mg140 2.114 1_545 S
O149 C152 1.252 . S
O150 Mg140 2.251 . S
O150 Mg143 2.079 1_565 S
O150 C152 1.273 1_565 S
C151 O147 1.246 . S
C151 O148 1.259 . S
C152 O149 1.252 . S
C152 O150 1.273 1_545 S
O153 Mg140 2.010 . S
O153 C145 1.249 . S
Mg154 O155 2.028 . S
Mg154 O161 1.986 . S
Mg154 O163 2.114 . S
Mg154 O164 2.251 . S
Mg154 O167 2.010 . S
O155 Mg154 2.028 . S
O155 C158 1.250 1_554 S
O156 Mg157 2.028 1_556 S
O156 C158 1.248 . S
Mg157 O156 2.028 1_554 S
Mg157 O162 2.032 . S
Mg157 O164 2.079 . S
C158 O155 1.250 1_556 S
C158 O156 1.248 . S
C159 O160 1.264 . S
C159 O167 1.249 . S
O160 C159 1.264 . S
O161 Mg154 1.986 . S
O161 C165 1.246 . S
O162 Mg157 2.032 . S
O162 C165 1.259 . S
O163 Mg154 2.114 . S
O163 C166 1.252 . S
O164 Mg154 2.251 . S
O164 Mg157 2.079 . S
O164 C166 1.273 . S
C165 O161 1.246 . S
C165 O162 1.259 . S
C166 O163 1.252 . S
C166 O164 1.273 . S
O167 Mg154 2.010 . S
O167 C159 1.249 . S
Mg168 O169 2.028 . S
Mg168 O175 1.986 . S
Mg168 O177 2.114 . S
Mg168 O178 2.251 . S
Mg168 O181 2.010 . S
O169 Mg168 2.028 . S
O169 C172 1.250 1_554 S
O170 Mg171 2.028 1_556 S
O170 C172 1.248 . S
Mg171 O170 2.028 1_554 S
Mg171 O176 2.032 . S
Mg171 O178 2.079 . S
C172 O169 1.250 1_556 S
C172 O170 1.248 . S
C173 O174 1.264 . S
C173 O181 1.249 . S
O174 C173 1.264 . S
O175 Mg168 1.986 . S
O175 C179 1.246 . S
O176 Mg171 2.032 . S
O176 C179 1.259 . S
O177 Mg168 2.114 . S
O177 C180 1.252 . S
O178 Mg168 2.251 . S
O178 Mg171 2.079 . S
O178 C180 1.273 . S
C179 O175 1.246 . S
C179 O176 1.259 . S
C180 O177 1.252 . S
C180 O178 1.273 . S
O181 Mg168 2.010 . S
O181 C173 1.249 . S
Mg182 O183 2.028 1_556 S
Mg182 O189 1.986 . S
Mg182 O191 2.114 1_556 S
Mg182 O192 2.251 . S
Mg182 O195 2.010 . S
O183 Mg182 2.028 1_554 S
O183 C186 1.250 . S
O184 Mg185 2.028 . S
O184 C186 1.248 . S
Mg185 O184 2.028 . S
Mg185 O190 2.032 1_554 S
Mg185 O192 2.079 1_554 S
C186 O183 1.250 . S
C186 O184 1.248 . S
C187 O188 1.264 . S
C187 O195 1.249 . S
O188 C187 1.264 . S
O189 Mg182 1.986 . S
O189 C193 1.246 . S
O190 Mg185 2.032 1_556 S
O190 C193 1.259 . S
O191 Mg182 2.114 1_554 S
O191 C194 1.252 . S
O192 Mg182 2.251 . S
O192 Mg185 2.079 1_556 S
O192 C194 1.273 1_556 S
C193 O189 1.246 . S
C193 O190 1.259 . S
C194 O191 1.252 . S
C194 O192 1.273 1_554 S
O195 Mg182 2.010 . S
O195 C187 1.249 . S
Mg196 O197 2.028 . S
Mg196 O203 1.986 . S
Mg196 O205 2.114 . S
Mg196 O206 2.251 . S
Mg196 O209 2.010 . S
O197 Mg196 2.028 . S
O197 C200 1.250 . S
O198 Mg199 2.028 . S
O198 C200 1.248 . S
Mg199 O198 2.028 . S
Mg199 O204 2.032 . S
Mg199 O206 2.079 . S
C200 O197 1.250 . S
C200 O198 1.248 . S
C201 O202 1.264 . S
C201 O209 1.249 . S
O202 C201 1.264 . S
O203 Mg196 1.986 . S
O203 C207 1.246 . S
O204 Mg199 2.032 . S
O204 C207 1.259 . S
O205 Mg196 2.114 . S
O205 C208 1.252 . S
O206 Mg196 2.251 . S
O206 Mg199 2.079 . S
O206 C208 1.273 . S
C207 O203 1.246 . S
C207 O204 1.259 . S
C208 O205 1.252 . S
C208 O206 1.273 . S
O209 Mg196 2.010 . S
O209 C201 1.249 . S
Mg210 O211 2.028 . S
Mg210 O217 1.986 . S
Mg210 O219 2.114 . S
Mg210 O220 2.251 . S
Mg210 O223 2.010 . S
O211 Mg210 2.028 . S
O211 C214 1.250 . S
O212 Mg213 2.028 . S
O212 C214 1.248 . S
Mg213 O212 2.028 . S
Mg213 O218 2.032 . S
Mg213 O220 2.079 . S
C214 O211 1.250 . S
C214 O212 1.248 . S
C215 O216 1.264 . S
C215 O223 1.249 . S
O216 C215 1.264 . S
O217 Mg210 1.986 . S
O217 C221 1.246 . S
O218 Mg213 2.032 . S
O218 C221 1.259 . S
O219 Mg210 2.114 . S
O219 C222 1.252 . S
O220 Mg210 2.251 . S
O220 Mg213 2.079 . S
O220 C222 1.273 . S
C221 O217 1.246 . S
C221 O218 1.259 . S
C222 O219 1.252 . S
C222 O220 1.273 . S
O223 Mg210 2.010 . S
O223 C215 1.249 . S
Mg224 O225 2.028 . S
Mg224 O231 1.986 . S
Mg224 O233 2.114 . S
Mg224 O234 2.251 . S
Mg224 O237 2.010 . S
O225 Mg224 2.028 . S
O225 C228 1.250 . S
O226 Mg227 2.028 . S
O226 C228 1.248 . S
Mg227 O226 2.028 . S
Mg227 O232 2.032 . S
Mg227 O234 2.079 . S
C228 O225 1.250 . S
C228 O226 1.248 . S
C229 O230 1.264 . S
C229 O237 1.249 . S
O230 C229 1.264 . S
O231 Mg224 1.986 . S
O231 C235 1.246 . S
O232 Mg227 2.032 . S
O232 C235 1.259 . S
O233 Mg224 2.114 . S
O233 C236 1.252 . S
O234 Mg224 2.251 . S
O234 Mg227 2.079 . S
O234 C236 1.273 . S
C235 O231 1.246 . S
C235 O232 1.259 . S
C236 O233 1.252 . S
C236 O234 1.273 . S
O237 Mg224 2.010 . S
O237 C229 1.249 . S
Mg238 O239 2.028 . S
Mg238 O245 1.986 . S
Mg238 O247 2.114 . S
Mg238 O248 2.251 . S
Mg238 O251 2.010 . S
O239 Mg238 2.028 . S
O239 C242 1.250 . S
O240 Mg241 2.028 . S
O240 C242 1.248 . S
Mg241 O240 2.028 . S
Mg241 O246 2.032 . S
Mg241 O248 2.079 . S
C242 O239 1.250 . S
C242 O240 1.248 . S
C243 O244 1.264 . S
C243 O251 1.249 . S
O244 C243 1.264 . S
O245 Mg238 1.986 . S
O245 C249 1.246 . S
O246 Mg241 2.032 . S
O246 C249 1.259 . S
O247 Mg238 2.114 . S
O247 C250 1.252 . S
O248 Mg238 2.251 . S
O248 Mg241 2.079 . S
O248 C250 1.273 . S
C249 O245 1.246 . S
C249 O246 1.259 . S
C250 O247 1.252 . S
C250 O248 1.273 . S
O251 Mg238 2.010 . S
O251 C243 1.249 . S
Mg252 O253 2.028 . S
Mg252 O259 1.986 . S
Mg252 O261 2.114 . S
Mg252 O262 2.251 . S
Mg252 O265 2.010 . S
O253 Mg252 2.028 . S
O253 C256 1.250 . S
O254 Mg255 2.028 . S
O254 C256 1.248 . S
Mg255 O254 2.028 . S
Mg255 O260 2.032 . S
Mg255 O262 2.079 . S
C256 O253 1.250 . S
C256 O254 1.248 . S
C257 O258 1.264 . S
C257 O265 1.249 . S
O258 C257 1.264 . S
O259 Mg252 1.986 . S
O259 C263 1.246 . S
O260 Mg255 2.032 . S
O260 C263 1.259 . S
O261 Mg252 2.114 . S
O261 C264 1.252 . S
O262 Mg252 2.251 . S
O262 Mg255 2.079 . S
O262 C264 1.273 . S
C263 O259 1.246 . S
C263 O260 1.259 . S
C264 O261 1.252 . S
C264 O262 1.273 . S
O265 Mg252 2.010 . S
O265 C257 1.249 . S
Mg266 O267 2.028 1_565 S
Mg266 O273 1.986 . S
Mg266 O275 2.114 1_565 S
Mg266 O276 2.251 1_565 S
Mg266 O279 2.010 . S
O267 Mg266 2.028 1_545 S
O267 C270 1.250 . S
O268 Mg269 2.028 . S
O268 C270 1.248 . S
Mg269 O268 2.028 . S
Mg269 O274 2.032 1_545 S
Mg269 O276 2.079 . S
C270 O267 1.250 . S
C270 O268 1.248 . S
C271 O272 1.264 . S
C271 O279 1.249 . S
O272 C271 1.264 . S
O273 Mg266 1.986 . S
O273 C277 1.246 . S
O274 Mg269 2.032 1_565 S
O274 C277 1.259 . S
O275 Mg266 2.114 1_545 S
O275 C278 1.252 . S
O276 Mg266 2.251 1_545 S
O276 Mg269 2.079 . S
O276 C278 1.273 . S
C277 O273 1.246 . S
C277 O274 1.259 . S
C278 O275 1.252 . S
C278 O276 1.273 . S
O279 Mg266 2.010 . S
O279 C271 1.249 . S
Mg280 O281 2.028 1_556 S
Mg280 O287 1.986 . S
Mg280 O289 2.114 1_556 S
Mg280 O290 2.251 . S
Mg280 O293 2.010 . S
O281 Mg280 2.028 1_554 S
O281 C284 1.250 . S
O282 Mg283 2.028 . S
O282 C284 1.248 . S
Mg283 O282 2.028 . S
Mg283 O288 2.032 1_554 S
Mg283 O290 2.079 1_554 S
C284 O281 1.250 . S
C284 O282 1.248 . S
C285 O286 1.264 . S
C285 O293 1.249 . S
O286 C285 1.264 . S
O287 Mg280 1.986 . S
O287 C291 1.246 . S
O288 Mg283 2.032 1_556 S
O288 C291 1.259 . S
O289 Mg280 2.114 1_554 S
O289 C292 1.252 . S
O290 Mg280 2.251 . S
O290 Mg283 2.079 1_556 S
O290 C292 1.273 1_556 S
C291 O287 1.246 . S
C291 O288 1.259 . S
C292 O289 1.252 . S
C292 O290 1.273 1_554 S
O293 Mg280 2.010 . S
O293 C285 1.249 . S
Mg294 O295 2.028 . S
Mg294 O301 1.986 . S
Mg294 O303 2.114 . S
Mg294 O304 2.251 . S
Mg294 O307 2.010 . S
O295 Mg294 2.028 . S
O295 C298 1.250 . S
O296 Mg297 2.028 . S
O296 C298 1.248 . S
Mg297 O296 2.028 . S
Mg297 O302 2.032 . S
Mg297 O304 2.079 . S
C298 O295 1.250 . S
C298 O296 1.248 . S
C299 O300 1.264 . S
C299 O307 1.249 . S
O300 C299 1.264 . S
O301 Mg294 1.986 . S
O301 C305 1.246 . S
O302 Mg297 2.032 . S
O302 C305 1.259 . S
O303 Mg294 2.114 . S
O303 C306 1.252 . S
O304 Mg294 2.251 . S
O304 Mg297 2.079 . S
O304 C306 1.273 . S
C305 O301 1.246 . S
C305 O302 1.259 . S
C306 O303 1.252 . S
C306 O304 1.273 . S
O307 Mg294 2.010 . S
O307 C299 1.249 . S
Mg308 O309 2.028 . S
Mg308 O315 1.986 . S
Mg308 O317 2.114 . S
Mg308 O318 2.251 . S
Mg308 O321 2.010 . S
O309 Mg308 2.028 . S
O309 C312 1.250 . S
O310 Mg311 2.028 . S
O310 C312 1.248 . S
Mg311 O310 2.028 . S
Mg311 O316 2.032 . S
Mg311 O318 2.079 . S
C312 O309 1.250 . S
C312 O310 1.248 . S
C313 O314 1.264 . S
C313 O321 1.249 . S
O314 C313 1.264 . S
O315 Mg308 1.986 . S
O315 C319 1.246 . S
O316 Mg311 2.032 . S
O316 C319 1.259 . S
O317 Mg308 2.114 . S
O317 C320 1.252 . S
O318 Mg308 2.251 . S
O318 Mg311 2.079 . S
O318 C320 1.273 . S
C319 O315 1.246 . S
C319 O316 1.259 . S
C320 O317 1.252 . S
C320 O318 1.273 . S
O321 Mg308 2.010 . S
O321 C313 1.249 . S
Mg322 O323 2.028 . S
Mg322 O329 1.986 . S
Mg322 O331 2.114 . S
Mg322 O332 2.251 . S
Mg322 O335 2.010 . S
O323 Mg322 2.028 . S
O323 C326 1.250 . S
O324 Mg325 2.028 . S
O324 C326 1.248 . S
Mg325 O324 2.028 . S
Mg325 O330 2.032 . S
Mg325 O332 2.079 . S
C326 O323 1.250 . S
C326 O324 1.248 . S
C327 O328 1.264 . S
C327 O335 1.249 . S
O328 C327 1.264 . S
O329 Mg322 1.986 . S
O329 C333 1.246 . S
O330 Mg325 2.032 . S
O330 C333 1.259 . S
O331 Mg322 2.114 . S
O331 C334 1.252 . S
O332 Mg322 2.251 . S
O332 Mg325 2.079 . S
O332 C334 1.273 . S
C333 O329 1.246 . S
C333 O330 1.259 . S
C334 O331 1.252 . S
C334 O332 1.273 . S
O335 Mg322 2.010 . S
O335 C327 1.249 . S
Tb336 O339 2.453 . S
Tb336 O340 2.596 . S
Tb336 O341 2.374 1_554 S
Tb336 O349 2.343 1_455 S
Tb336 O351 2.353 . S
Tb336 O353 2.427 . S
Tb336 O354 2.513 1_554 S
C337 O341 1.251 . S
C337 O343 1.263 1_445 S
Tb338 O340 2.343 1_665 S
Tb338 O343 2.353 1_554 S
Tb338 O346 2.429 . S
Tb338 O347 2.513 . S
Tb338 O348 2.453 1_564 S
Tb338 O349 2.596 1_565 S
Tb338 O350 2.374 1_565 S
O339 Tb336 2.453 . S
O339 C355 1.245 . S
O340 Tb336 2.596 . S
O340 Tb338 2.343 1_445 S
O340 C355 1.259 . S
O341 Tb336 2.374 1_556 S
O341 C337 1.251 . S
C342 O346 1.300 1_455 S
C342 O347 1.232 1_455 S
O343 C337 1.263 1_665 S
O343 Tb338 2.353 1_556 S
C344 O348 1.245 . S
C344 O349 1.259 1_556 S
C345 O350 1.250 . S
C345 O351 1.263 1_655 S
O346 Tb338 2.429 . S
O346 C342 1.300 1_655 S
O347 Tb338 2.513 . S
O347 C342 1.232 1_655 S
O348 Tb338 2.453 1_546 S
O348 C344 1.245 . S
O349 Tb336 2.343 1_655 S
O349 Tb338 2.596 1_545 S
O349 C344 1.259 1_554 S
O350 Tb338 2.374 1_545 S
O350 C345 1.250 . S
O351 Tb336 2.353 . S
O351 C345 1.263 1_455 S
C352 O353 1.275 1_556 S
C352 O354 1.246 . S
O353 Tb336 2.427 . S
O353 C352 1.275 1_554 S
O354 Tb336 2.513 1_556 S
O354 C352 1.246 . S
C355 O339 1.245 . S
C355 O340 1.259 . S
Tb356 O359 2.453 . S
Tb356 O360 2.596 . S
Tb356 O361 2.374 . S
Tb356 O369 2.343 . S
Tb356 O371 2.353 . S
Tb356 O373 2.427 . S
Tb356 O374 2.513 . S
C357 O361 1.251 . S
C357 O363 1.263 . S
Tb358 O360 2.343 . S
Tb358 O363 2.353 . S
Tb358 O366 2.427 . S
Tb358 O367 2.513 . S
Tb358 O368 2.453 . S
Tb358 O369 2.596 . S
Tb358 O370 2.374 . S
O359 Tb356 2.453 . S
O359 C375 1.245 . S
O360 Tb356 2.596 . S
O360 Tb358 2.343 . S
O360 C375 1.259 . S
O361 Tb356 2.374 . S
O361 C357 1.251 . S
C362 O366 1.275 . S
C362 O367 1.246 . S
O363 C357 1.263 . S
O363 Tb358 2.353 . S
C364 O368 1.245 . S
C364 O369 1.259 . S
C365 O370 1.250 . S
C365 O371 1.263 . S
O366 Tb358 2.427 . S
O366 C362 1.275 . S
O367 Tb358 2.513 . S
O367 C362 1.246 . S
O368 Tb358 2.453 . S
O368 C364 1.245 . S
O369 Tb356 2.343 . S
O369 Tb358 2.596 . S
O369 C364 1.259 . S
O370 Tb358 2.374 . S
O370 C365 1.250 . S
O371 Tb356 2.353 . S
O371 C365 1.263 . S
C372 O373 1.275 . S
C372 O374 1.246 . S
O373 Tb356 2.427 . S
O373 C372 1.275 . S
O374 Tb356 2.513 . S
O374 C372 1.246 . S
C375 O359 1.245 . S
C375 O360 1.259 . S
Tb376 O379 2.453 . S
Tb376 O380 2.596 . S
Tb376 O381 2.374 . S
Tb376 O389 2.343 1_545 S
Tb376 O391 2.353 . S
Tb376 O393 2.427 . S
Tb376 O394 2.513 1_545 S
C377 O381 1.251 . S
C377 O383 1.263 . S
Tb378 O380 2.343 . S
Tb378 O383 2.353 . S
Tb378 O386 2.427 . S
Tb378 O387 2.513 . S
Tb378 O388 2.453 1_545 S
Tb378 O389 2.596 1_545 S
Tb378 O390 2.374 . S
O379 Tb376 2.453 . S
O379 C395 1.245 . S
O380 Tb376 2.596 . S
O380 Tb378 2.343 . S
O380 C395 1.259 . S
O381 Tb376 2.374 . S
O381 C377 1.251 . S
C382 O386 1.275 . S
C382 O387 1.246 . S
O383 C377 1.263 . S
O383 Tb378 2.353 . S
C384 O388 1.245 . S
C384 O389 1.259 . S
C385 O390 1.250 . S
C385 O391 1.263 . S
O386 Tb378 2.427 . S
O386 C382 1.275 . S
O387 Tb378 2.513 . S
O387 C382 1.246 . S
O388 Tb378 2.453 1_565 S
O388 C384 1.245 . S
O389 Tb376 2.343 1_565 S
O389 Tb378 2.596 1_565 S
O389 C384 1.259 . S
O390 Tb378 2.374 . S
O390 C385 1.250 . S
O391 Tb376 2.353 . S
O391 C385 1.263 . S
C392 O393 1.275 1_565 S
C392 O394 1.246 . S
O393 Tb376 2.427 . S
O393 C392 1.275 1_545 S
O394 Tb376 2.513 1_565 S
O394 C392 1.246 . S
C395 O379 1.245 . S
C395 O380 1.259 . S
Tb396 O399 2.453 . S
Tb396 O400 2.596 . S
Tb396 O401 2.374 . S
Tb396 O409 2.343 . S
Tb396 O411 2.353 . S
Tb396 O413 2.427 . S
Tb396 O414 2.513 . S
C397 O401 1.251 . S
C397 O403 1.263 . S
Tb398 O400 2.343 . S
Tb398 O403 2.353 . S
Tb398 O406 2.427 . S
Tb398 O407 2.513 . S
Tb398 O408 2.453 . S
Tb398 O409 2.596 . S
Tb398 O410 2.374 . S
O399 Tb396 2.453 . S
O399 C415 1.245 . S
O400 Tb396 2.596 . S
O400 Tb398 2.343 . S
O400 C415 1.259 . S
O401 Tb396 2.374 . S
O401 C397 1.251 . S
C402 O406 1.275 . S
C402 O407 1.246 . S
O403 C397 1.263 . S
O403 Tb398 2.353 . S
C404 O408 1.245 . S
C404 O409 1.259 . S
C405 O410 1.250 . S
C405 O411 1.263 . S
O406 Tb398 2.427 . S
O406 C402 1.275 . S
O407 Tb398 2.513 . S
O407 C402 1.246 . S
O408 Tb398 2.453 . S
O408 C404 1.245 . S
O409 Tb396 2.343 . S
O409 Tb398 2.596 . S
O409 C404 1.259 . S
O410 Tb398 2.374 . S
O410 C405 1.250 . S
O411 Tb396 2.353 . S
O411 C405 1.263 . S
C412 O413 1.275 . S
C412 O414 1.246 . S
O413 Tb396 2.427 . S
O413 C412 1.275 . S
O414 Tb396 2.513 . S
O414 C412 1.246 . S
C415 O399 1.245 . S
C415 O400 1.259 . S
Tb416 O419 2.451 1_645 S
Tb416 O420 2.595 1_645 S
Tb416 O421 2.374 1_545 S
Tb416 O429 2.345 . S
Tb416 O431 2.354 1_655 S
Tb416 O433 2.428 1_655 S
Tb416 O434 2.514 . S
C417 O421 1.251 1_545 S
C417 O423 1.263 . S
Tb418 O420 2.338 1_545 S
Tb418 O423 2.353 1_455 S
Tb418 O426 2.427 . S
Tb418 O427 2.513 . S
Tb418 O428 2.453 1_455 S
Tb418 O429 2.596 1_455 S
Tb418 O430 2.374 . S
O419 Tb416 2.451 1_465 S
O419 C435 1.245 . S
O420 Tb416 2.595 1_465 S
O420 Tb418 2.338 1_565 S
O420 C435 1.265 . S
O421 Tb416 2.374 1_565 S
O421 C417 1.251 1_565 S
C422 O426 1.275 . S
C422 O427 1.246 . S
O423 C417 1.263 . S
O423 Tb418 2.353 1_655 S
C424 O428 1.251 . S
C424 O429 1.254 . S
C425 O430 1.250 . S
C425 O431 1.263 . S
O426 Tb418 2.427 . S
O426 C422 1.275 . S
O427 Tb418 2.513 . S
O427 C422 1.246 . S
O428 Tb418 2.453 1_655 S
O428 C424 1.251 . S
O429 Tb416 2.345 . S
O429 Tb418 2.596 1_655 S
O429 C424 1.254 . S
O430 Tb418 2.374 . S
O430 C425 1.250 . S
O431 Tb416 2.354 1_455 S
O431 C425 1.263 . S
C432 O433 1.275 1_655 S
C432 O434 1.246 . S
O433 Tb416 2.428 1_455 S
O433 C432 1.275 1_455 S
O434 Tb416 2.514 . S
O434 C432 1.246 . S
C435 O419 1.245 . S
C435 O420 1.265 . S
Tb436 O439 2.453 . S
Tb436 O440 2.596 . S
Tb436 O441 2.374 . S
Tb436 O449 2.343 . S
Tb436 O451 2.353 . S
Tb436 O453 2.427 . S
Tb436 O454 2.513 . S
C437 O441 1.251 . S
C437 O443 1.263 . S
Tb438 O440 2.343 . S
Tb438 O443 2.353 . S
Tb438 O446 2.427 . S
Tb438 O447 2.513 . S
Tb438 O448 2.453 . S
Tb438 O449 2.596 . S
Tb438 O450 2.374 . S
O439 Tb436 2.453 . S
O439 C455 1.245 . S
O440 Tb436 2.596 . S
O440 Tb438 2.343 . S
O440 C455 1.259 . S
O441 Tb436 2.374 . S
O441 C437 1.251 . S
C442 O446 1.275 . S
C442 O447 1.246 . S
O443 C437 1.263 . S
O443 Tb438 2.353 . S
C444 O448 1.245 . S
C444 O449 1.259 . S
C445 O450 1.250 . S
C445 O451 1.263 . S
O446 Tb438 2.427 . S
O446 C442 1.275 . S
O447 Tb438 2.513 . S
O447 C442 1.246 . S
O448 Tb438 2.453 . S
O448 C444 1.245 . S
O449 Tb436 2.343 . S
O449 Tb438 2.596 . S
O449 C444 1.259 . S
O450 Tb438 2.374 . S
O450 C445 1.250 . S
O451 Tb436 2.353 . S
O451 C445 1.263 . S
C452 O453 1.275 . S
C452 O454 1.246 . S
O453 Tb436 2.427 . S
O453 C452 1.275 . S
O454 Tb436 2.513 . S
O454 C452 1.246 . S
C455 O439 1.245 . S
C455 O440 1.259 . S
Tb456 O459 2.453 . S
Tb456 O460 2.596 . S
Tb456 O461 2.374 1_545 S
Tb456 O469 2.343 1_556 S
Tb456 O471 2.353 1_556 S
Tb456 O473 2.427 1_556 S
Tb456 O474 2.513 1_546 S
C457 O461 1.251 . S
C457 O463 1.263 1_556 S
Tb458 O460 2.343 1_554 S
Tb458 O463 2.353 1_545 S
Tb458 O466 2.427 . S
Tb458 O467 2.513 . S
Tb458 O468 2.453 . S
Tb458 O469 2.596 . S
Tb458 O470 2.374 . S
O459 Tb456 2.453 . S
O459 C475 1.245 . S
O460 Tb456 2.596 . S
O460 Tb458 2.343 1_556 S
O460 C475 1.259 . S
O461 Tb456 2.374 1_565 S
O461 C457 1.251 . S
C462 O466 1.275 . S
C462 O467 1.246 . S
O463 C457 1.263 1_554 S
O463 Tb458 2.353 1_565 S
C464 O468 1.245 . S
C464 O469 1.259 . S
C465 O470 1.250 . S
C465 O471 1.263 . S
O466 Tb458 2.427 . S
O466 C462 1.275 . S
O467 Tb458 2.513 . S
O467 C462 1.246 . S
O468 Tb458 2.453 . S
O468 C464 1.245 . S
O469 Tb456 2.343 1_554 S
O469 Tb458 2.596 . S
O469 C464 1.259 . S
O470 Tb458 2.374 . S
O470 C465 1.250 . S
O471 Tb456 2.353 1_554 S
O471 C465 1.263 . S
C472 O473 1.275 1_565 S
C472 O474 1.246 . S
O473 Tb456 2.427 1_554 S
O473 C472 1.275 1_545 S
O474 Tb456 2.513 1_564 S
O474 C472 1.246 . S
C475 O459 1.245 . S
C475 O460 1.259 . S
Tb476 O479 2.453 . S
Tb476 O480 2.596 . S
Tb476 O481 2.374 . S
Tb476 O489 2.343 . S
Tb476 O491 2.353 . S
Tb476 O493 2.427 . S
Tb476 O494 2.513 . S
C477 O481 1.251 . S
C477 O483 1.263 . S
Tb478 O480 2.343 . S
Tb478 O483 2.353 . S
Tb478 O486 2.427 . S
Tb478 O487 2.513 . S
Tb478 O488 2.453 . S
Tb478 O489 2.596 . S
Tb478 O490 2.374 . S
O479 Tb476 2.453 . S
O479 C495 1.245 . S
O480 Tb476 2.596 . S
O480 Tb478 2.343 . S
O480 C495 1.259 . S
O481 Tb476 2.374 . S
O481 C477 1.251 . S
C482 O486 1.275 . S
C482 O487 1.246 . S
O483 C477 1.263 . S
O483 Tb478 2.353 . S
C484 O488 1.245 . S
C484 O489 1.259 . S
C485 O490 1.250 . S
C485 O491 1.263 . S
O486 Tb478 2.427 . S
O486 C482 1.275 . S
O487 Tb478 2.513 . S
O487 C482 1.246 . S
O488 Tb478 2.453 . S
O488 C484 1.245 . S
O489 Tb476 2.343 . S
O489 Tb478 2.596 . S
O489 C484 1.259 . S
O490 Tb478 2.374 . S
O490 C485 1.250 . S
O491 Tb476 2.353 . S
O491 C485 1.263 . S
C492 O493 1.275 . S
C492 O494 1.246 . S
O493 Tb476 2.427 . S
O493 C492 1.275 . S
O494 Tb476 2.513 . S
O494 C492 1.246 . S
C495 O479 1.245 . S
C495 O480 1.259 . S
Tb496 O499 2.453 1_556 S
Tb496 O500 2.596 1_556 S
Tb496 O501 2.374 . S
Tb496 O509 2.343 . S
Tb496 O511 2.353 . S
Tb496 O513 2.427 . S
Tb496 O514 2.513 . S
C497 O501 1.251 1_554 S
C497 O503 1.263 . S
Tb498 O500 2.343 . S
Tb498 O503 2.353 . S
Tb498 O506 2.427 . S
Tb498 O507 2.513 . S
Tb498 O508 2.453 . S
Tb498 O509 2.596 1_554 S
Tb498 O510 2.374 . S
O499 Tb496 2.453 1_554 S
O499 C515 1.245 . S
O500 Tb496 2.596 1_554 S
O500 Tb498 2.343 . S
O500 C515 1.259 . S
O501 Tb496 2.374 . S
O501 C497 1.251 1_556 S
C502 O506 1.275 . S
C502 O507 1.246 . S
O503 C497 1.263 . S
O503 Tb498 2.353 . S
C504 O508 1.245 . S
C504 O509 1.259 1_554 S
C505 O510 1.250 . S
C505 O511 1.263 1_554 S
O506 Tb498 2.427 . S
O506 C502 1.275 . S
O507 Tb498 2.513 . S
O507 C502 1.246 . S
O508 Tb498 2.453 . S
O508 C504 1.245 . S
O509 Tb496 2.343 . S
O509 Tb498 2.596 1_556 S
O509 C504 1.259 1_556 S
O510 Tb498 2.374 . S
O510 C505 1.250 . S
O511 Tb496 2.353 . S
O511 C505 1.263 1_556 S
C512 O513 1.275 . S
C512 O514 1.246 . S
O513 Tb496 2.427 . S
O513 C512 1.275 . S
O514 Tb496 2.513 . S
O514 C512 1.246 . S
C515 O499 1.245 . S
C515 O500 1.259 . S
Tb516 O519 2.453 . S
Tb516 O520 2.596 . S
Tb516 O521 2.374 . S
Tb516 O529 2.343 . S
Tb516 O531 2.353 . S
Tb516 O533 2.427 . S
Tb516 O534 2.513 . S
C517 O521 1.251 . S
C517 O523 1.263 . S
Tb518 O520 2.343 . S
Tb518 O523 2.353 . S
Tb518 O526 2.427 . S
Tb518 O527 2.513 . S
Tb518 O528 2.453 . S
Tb518 O529 2.596 . S
Tb518 O530 2.374 . S
O519 Tb516 2.453 . S
O519 C535 1.245 . S
O520 Tb516 2.596 . S
O520 Tb518 2.343 . S
O520 C535 1.259 . S
O521 Tb516 2.374 . S
O521 C517 1.251 . S
C522 O526 1.275 . S
C522 O527 1.246 . S
O523 C517 1.263 . S
O523 Tb518 2.353 . S
C524 O528 1.245 . S
C524 O529 1.259 . S
C525 O530 1.250 . S
C525 O531 1.263 . S
O526 Tb518 2.427 . S
O526 C522 1.275 . S
O527 Tb518 2.513 . S
O527 C522 1.246 . S
O528 Tb518 2.453 . S
O528 C524 1.245 . S
O529 Tb516 2.343 . S
O529 Tb518 2.596 . S
O529 C524 1.259 . S
O530 Tb518 2.374 . S
O530 C525 1.250 . S
O531 Tb516 2.353 . S
O531 C525 1.263 . S
C532 O533 1.275 . S
C532 O534 1.246 . S
O533 Tb516 2.427 . S
O533 C532 1.275 . S
O534 Tb516 2.513 . S
O534 C532 1.246 . S
C535 O519 1.245 . S
C535 O520 1.259 . S
Tb536 O539 2.453 . S
Tb536 O540 2.596 1_655 S
Tb536 O541 2.374 . S
Tb536 O549 2.343 . S
Tb536 O551 2.353 . S
Tb536 O553 2.427 . S
Tb536 O554 2.513 . S
C537 O541 1.251 1_455 S
C537 O543 1.263 . S
Tb538 O540 2.343 . S
Tb538 O543 2.353 . S
Tb538 O546 2.427 . S
Tb538 O547 2.513 . S
Tb538 O548 2.453 . S
Tb538 O549 2.596 1_455 S
Tb538 O550 2.374 . S
O539 Tb536 2.453 . S
O539 C555 1.245 1_655 S
O540 Tb536 2.596 1_455 S
O540 Tb538 2.343 . S
O540 C555 1.259 . S
O541 Tb536 2.374 . S
O541 C537 1.251 1_655 S
C542 O546 1.275 . S
C542 O547 1.246 . S
O543 C537 1.263 . S
O543 Tb538 2.353 . S
C544 O548 1.245 1_655 S
C544 O549 1.259 . S
C545 O550 1.250 . S
C545 O551 1.263 1_455 S
O546 Tb538 2.427 . S
O546 C542 1.275 . S
O547 Tb538 2.513 . S
O547 C542 1.246 . S
O548 Tb538 2.453 . S
O548 C544 1.245 1_455 S
O549 Tb536 2.343 . S
O549 Tb538 2.596 1_655 S
O549 C544 1.259 . S
O550 Tb538 2.374 . S
O550 C545 1.250 . S
O551 Tb536 2.353 . S
O551 C545 1.263 1_655 S
C552 O553 1.275 . S
C552 O554 1.246 . S
O553 Tb536 2.427 . S
O553 C552 1.275 . S
O554 Tb536 2.513 . S
O554 C552 1.246 . S
C555 O539 1.245 1_455 S
C555 O540 1.259 . S
Tb556 O559 2.453 . S
Tb556 O560 2.596 . S
Tb556 O561 2.374 . S
Tb556 O569 2.343 . S
Tb556 O571 2.353 . S
Tb556 O573 2.427 . S
Tb556 O574 2.513 . S
C557 O561 1.251 . S
C557 O563 1.263 . S
Tb558 O560 2.343 . S
Tb558 O563 2.353 . S
Tb558 O566 2.427 . S
Tb558 O567 2.513 . S
Tb558 O568 2.453 . S
Tb558 O569 2.596 . S
Tb558 O570 2.374 . S
O559 Tb556 2.453 . S
O559 C575 1.245 . S
O560 Tb556 2.596 . S
O560 Tb558 2.343 . S
O560 C575 1.259 . S
O561 Tb556 2.374 . S
O561 C557 1.251 . S
C562 O566 1.275 . S
C562 O567 1.246 . S
O563 C557 1.263 . S
O563 Tb558 2.353 . S
C564 O568 1.245 . S
C564 O569 1.259 . S
C565 O570 1.250 . S
C565 O571 1.263 . S
O566 Tb558 2.427 . S
O566 C562 1.275 . S
O567 Tb558 2.513 . S
O567 C562 1.246 . S
O568 Tb558 2.453 . S
O568 C564 1.245 . S
O569 Tb556 2.343 . S
O569 Tb558 2.596 . S
O569 C564 1.259 . S
O570 Tb558 2.374 . S
O570 C565 1.250 . S
O571 Tb556 2.353 . S
O571 C565 1.263 . S
C572 O573 1.275 . S
C572 O574 1.246 . S
O573 Tb556 2.427 . S
O573 C572 1.275 . S
O574 Tb556 2.513 . S
O574 C572 1.246 . S
C575 O559 1.245 . S
C575 O560 1.259 . S
Tb576 O579 2.453 . S
Tb576 O580 2.596 . S
Tb576 O581 2.374 . S
Tb576 O589 2.343 . S
Tb576 O591 2.353 . S
Tb576 O593 2.427 . S
Tb576 O594 2.513 . S
C577 O581 1.251 . S
C577 O583 1.263 . S
Tb578 O580 2.343 . S
Tb578 O583 2.353 . S
Tb578 O586 2.427 . S
Tb578 O587 2.513 . S
Tb578 O588 2.453 . S
Tb578 O589 2.596 . S
Tb578 O590 2.374 . S
O579 Tb576 2.453 . S
O579 C595 1.245 . S
O580 Tb576 2.596 . S
O580 Tb578 2.343 . S
O580 C595 1.259 . S
O581 Tb576 2.374 . S
O581 C577 1.251 . S
C582 O586 1.275 . S
C582 O587 1.246 . S
O583 C577 1.263 . S
O583 Tb578 2.353 . S
C584 O588 1.245 . S
C584 O589 1.259 . S
C585 O590 1.250 . S
C585 O591 1.263 . S
O586 Tb578 2.427 . S
O586 C582 1.275 . S
O587 Tb578 2.513 . S
O587 C582 1.246 . S
O588 Tb578 2.453 . S
O588 C584 1.245 . S
O589 Tb576 2.343 . S
O589 Tb578 2.596 . S
O589 C584 1.259 . S
O590 Tb578 2.374 . S
O590 C585 1.250 . S
O591 Tb576 2.353 . S
O591 C585 1.263 . S
C592 O593 1.275 . S
C592 O594 1.246 . S
O593 Tb576 2.427 . S
O593 C592 1.275 . S
O594 Tb576 2.513 . S
O594 C592 1.246 . S
C595 O579 1.245 . S
C595 O580 1.259 . S
Tb596 O599 2.453 . S
Tb596 O600 2.596 . S
Tb596 O601 2.374 . S
Tb596 O609 2.343 . S
Tb596 O611 2.353 . S
Tb596 O613 2.427 . S
Tb596 O614 2.513 . S
C597 O601 1.251 . S
C597 O603 1.263 . S
Tb598 O600 2.343 . S
Tb598 O603 2.353 . S
Tb598 O606 2.427 . S
Tb598 O607 2.513 . S
Tb598 O608 2.453 . S
Tb598 O609 2.596 . S
Tb598 O610 2.374 . S
O599 Tb596 2.453 . S
O599 C615 1.245 . S
O600 Tb596 2.596 . S
O600 Tb598 2.343 . S
O600 C615 1.259 . S
O601 Tb596 2.374 . S
O601 C597 1.251 . S
C602 O606 1.275 . S
C602 O607 1.246 . S
O603 C597 1.263 . S
O603 Tb598 2.353 . S
C604 O608 1.245 . S
C604 O609 1.259 . S
C605 O610 1.250 . S
C605 O611 1.263 . S
O606 Tb598 2.427 . S
O606 C602 1.275 . S
O607 Tb598 2.513 . S
O607 C602 1.246 . S
O608 Tb598 2.453 . S
O608 C604 1.245 . S
O609 Tb596 2.343 . S
O609 Tb598 2.596 . S
O609 C604 1.259 . S
O610 Tb598 2.374 . S
O610 C605 1.250 . S
O611 Tb596 2.353 . S
O611 C605 1.263 . S
C612 O613 1.275 . S
C612 O614 1.246 . S
O613 Tb596 2.427 . S
O613 C612 1.275 . S
O614 Tb596 2.513 . S
O614 C612 1.246 . S
C615 O599 1.245 . S
C615 O600 1.259 . S
Tb616 O619 2.453 . S
Tb616 O620 2.596 . S
Tb616 O621 2.374 . S
Tb616 O629 2.343 . S
Tb616 O631 2.353 . S
Tb616 O633 2.427 . S
Tb616 O634 2.513 . S
C617 O621 1.251 . S
C617 O623 1.263 . S
Tb618 O620 2.343 . S
Tb618 O623 2.353 . S
Tb618 O626 2.427 . S
Tb618 O627 2.513 . S
Tb618 O628 2.453 . S
Tb618 O629 2.596 . S
Tb618 O630 2.374 . S
O619 Tb616 2.453 . S
O619 C635 1.245 . S
O620 Tb616 2.596 . S
O620 Tb618 2.343 . S
O620 C635 1.259 . S
O621 Tb616 2.374 . S
O621 C617 1.251 . S
C622 O626 1.275 . S
C622 O627 1.246 . S
O623 C617 1.263 . S
O623 Tb618 2.353 . S
C624 O628 1.245 . S
C624 O629 1.259 . S
C625 O630 1.250 . S
C625 O631 1.263 . S
O626 Tb618 2.427 . S
O626 C622 1.275 . S
O627 Tb618 2.513 . S
O627 C622 1.246 . S
O628 Tb618 2.453 . S
O628 C624 1.245 . S
O629 Tb616 2.343 . S
O629 Tb618 2.596 . S
O629 C624 1.259 . S
O630 Tb618 2.374 . S
O630 C625 1.250 . S
O631 Tb616 2.353 . S
O631 C625 1.263 . S
C632 O633 1.275 . S
C632 O634 1.246 . S
O633 Tb616 2.427 . S
O633 C632 1.275 . S
O634 Tb616 2.513 . S
O634 C632 1.246 . S
C635 O619 1.245 . S
C635 O620 1.259 . S
Tb636 O639 2.453 . S
Tb636 O640 2.619 . S
Tb636 O641 2.374 . S
Tb636 O649 2.343 . S
Tb636 O651 2.353 1_554 S
Tb636 O653 2.427 1_554 S
Tb636 O654 2.513 . S
C637 O641 1.251 . S
C637 O643 1.263 1_455 S
Tb638 O640 2.329 1_655 S
Tb638 O643 2.353 . S
Tb638 O646 2.427 . S
Tb638 O647 2.513 . S
Tb638 O648 2.453 1_554 S
Tb638 O649 2.596 1_655 S
Tb638 O650 2.374 1_554 S
O639 Tb636 2.453 . S
O639 C655 1.245 . S
O640 Tb636 2.619 . S
O640 Tb638 2.329 1_455 S
O640 C655 1.268 . S
O641 Tb636 2.374 . S
O641 C637 1.251 . S
C642 O646 1.275 . S
C642 O647 1.246 . S
O643 C637 1.263 1_655 S
O643 Tb638 2.353 . S
C644 O648 1.245 . S
C644 O649 1.259 1_656 S
C645 O650 1.250 . S
C645 O651 1.263 1_655 S
O646 Tb638 2.427 . S
O646 C642 1.275 . S
O647 Tb638 2.513 . S
O647 C642 1.246 . S
O648 Tb638 2.453 1_556 S
O648 C644 1.245 . S
O649 Tb636 2.343 . S
O649 Tb638 2.596 1_455 S
O649 C644 1.259 1_454 S
O650 Tb638 2.374 1_556 S
O650 C645 1.250 . S
O651 Tb636 2.353 1_556 S
O651 C645 1.263 1_455 S
C652 O653 1.275 . S
C652 O654 1.246 1_556 S
O653 Tb636 2.427 1_556 S
O653 C652 1.275 . S
O654 Tb636 2.513 . S
O654 C652 1.246 1_554 S
C655 O639 1.245 . S
C655 O640 1.268 . S
C656 C657 1.387 . S
C656 H660 0.950 . S
C656 C665 1.390 . S
C657 C656 1.387 . S
C657 C659 1.387 1_455 S
H658 C665 0.950 . S
C659 C657 1.387 1_655 S
C659 C661 1.390 . S
C659 H663 0.950 . S
H660 C656 0.950 . S
C661 C659 1.390 . S
C661 C662 1.387 1_655 S
C661 H664 0.950 . S
C662 C661 1.387 1_455 S
C662 C665 1.387 . S
H663 C659 0.950 . S
H664 C661 0.950 . S
C665 C656 1.390 . S
C665 H658 0.950 . S
C665 C662 1.387 . S
C666 C667 1.387 . S
C666 H670 0.950 . S
C666 C675 1.390 . S
C667 C666 1.387 . S
C667 C669 1.387 . S
H668 C675 0.950 . S
C669 C667 1.387 . S
C669 C671 1.390 . S
C669 H673 0.950 . S
H670 C666 0.950 . S
C671 C669 1.390 . S
C671 C672 1.387 . S
C671 H674 0.950 . S
C672 C671 1.387 . S
C672 C675 1.387 . S
H673 C669 0.950 . S
H674 C671 0.950 . S
C675 C666 1.390 . S
C675 H668 0.950 . S
C675 C672 1.387 . S
C676 C677 1.387 . S
C676 H680 0.950 . S
C676 C685 1.390 . S
C677 C676 1.387 . S
C677 C679 1.387 . S
H678 C685 0.950 . S
C679 C677 1.387 . S
C679 C681 1.390 . S
C679 H683 0.950 . S
H680 C676 0.950 . S
C681 C679 1.390 . S
C681 C682 1.387 . S
C681 H684 0.950 . S
C682 C681 1.387 . S
C682 C685 1.387 . S
H683 C679 0.950 . S
H684 C681 0.950 . S
C685 C676 1.390 . S
C685 H678 0.950 . S
C685 C682 1.387 . S
C686 C687 1.387 . S
C686 H690 0.950 . S
C686 C695 1.390 . S
C687 C686 1.387 . S
C687 C689 1.387 . S
H688 C695 0.950 . S
C689 C687 1.387 . S
C689 C691 1.390 . S
C689 H693 0.950 . S
H690 C686 0.950 . S
C691 C689 1.390 . S
C691 C692 1.387 . S
C691 H694 0.950 . S
C692 C691 1.387 . S
C692 C695 1.387 . S
H693 C689 0.950 . S
H694 C691 0.950 . S
C695 C686 1.390 . S
C695 H688 0.950 . S
C695 C692 1.387 . S
C696 C697 1.387 . S
C696 H700 0.950 . S
C696 C705 1.390 . S
C697 C696 1.387 . S
C697 C699 1.388 1_455 S
H698 C705 0.950 . S
C699 C697 1.388 1_655 S
C699 C701 1.391 1_655 S
C699 H703 0.948 . S
H700 C696 0.950 . S
C701 C699 1.391 1_455 S
C701 C702 1.387 . S
C701 H704 0.950 . S
C702 C701 1.387 . S
C702 C705 1.387 . S
H703 C699 0.948 . S
H704 C701 0.950 . S
C705 C696 1.390 . S
C705 H698 0.950 . S
C705 C702 1.387 . S
C706 C707 1.387 . S
C706 H710 0.950 . S
C706 C715 1.390 . S
C707 C706 1.387 . S
C707 C709 1.387 . S
H708 C715 0.950 . S
C709 C707 1.387 . S
C709 C711 1.390 . S
C709 H713 0.950 . S
H710 C706 0.950 . S
C711 C709 1.390 . S
C711 C712 1.387 . S
C711 H714 0.950 . S
C712 C711 1.387 . S
C712 C715 1.387 . S
H713 C709 0.950 . S
H714 C711 0.950 . S
C715 C706 1.390 . S
C715 H708 0.950 . S
C715 C712 1.387 . S
C716 C717 1.387 . S
C716 H720 0.950 . S
C716 C725 1.390 . S
C717 C716 1.387 . S
C717 C719 1.387 . S
H718 C725 0.950 . S
C719 C717 1.387 . S
C719 C721 1.390 . S
C719 H723 0.950 . S
H720 C716 0.950 . S
C721 C719 1.390 . S
C721 C722 1.387 . S
C721 H724 0.950 . S
C722 C721 1.387 . S
C722 C725 1.387 . S
H723 C719 0.950 . S
H724 C721 0.950 . S
C725 C716 1.390 . S
C725 H718 0.950 . S
C725 C722 1.387 . S
C726 C727 1.387 . S
C726 H730 0.950 . S
C726 C735 1.390 . S
C727 C726 1.387 . S
C727 C729 1.387 . S
H728 C735 0.950 . S
C729 C727 1.387 . S
C729 C731 1.390 . S
C729 H733 0.950 . S
H730 C726 0.950 . S
C731 C729 1.390 . S
C731 C732 1.387 . S
C731 H734 0.950 . S
C732 C731 1.387 . S
C732 C735 1.387 . S
H733 C729 0.950 . S
H734 C731 0.950 . S
C735 C726 1.390 . S
C735 H728 0.950 . S
C735 C732 1.387 . S
C736 C737 1.387 . S
C736 H740 0.922 1_545 S
C736 C745 1.390 . S
C737 C736 1.387 . S
C737 C739 1.387 . S
H738 C745 0.956 . S
C739 C737 1.387 . S
C739 C741 1.390 . S
C739 H743 0.950 . S
H740 C736 0.922 1_565 S
C741 C739 1.390 . S
C741 C742 1.387 . S
C741 H744 0.950 . S
C742 C741 1.387 . S
C742 C745 1.387 . S
H743 C739 0.950 . S
H744 C741 0.950 . S
C745 C736 1.390 . S
C745 H738 0.956 . S
C745 C742 1.387 . S
C746 C747 1.387 . S
C746 H750 0.950 . S
C746 C755 1.390 . S
C747 C746 1.387 . S
C747 C749 1.387 . S
H748 C755 0.950 . S
C749 C747 1.387 . S
C749 C751 1.390 . S
C749 H753 0.950 . S
H750 C746 0.950 . S
C751 C749 1.390 . S
C751 C752 1.387 . S
C751 H754 0.950 . S
C752 C751 1.387 . S
C752 C755 1.387 . S
H753 C749 0.950 . S
H754 C751 0.950 . S
C755 C746 1.390 . S
C755 H748 0.950 . S
C755 C752 1.387 . S
C756 C757 1.387 . S
C756 H760 0.950 . S
C756 C765 1.390 . S
C757 C756 1.387 . S
C757 C759 1.387 1_545 S
H758 C765 0.950 . S
C759 C757 1.387 1_565 S
C759 C761 1.390 . S
C759 H763 0.950 . S
H760 C756 0.950 . S
C761 C759 1.390 . S
C761 C762 1.387 1_565 S
C761 H764 0.950 . S
C762 C761 1.387 1_545 S
C762 C765 1.387 . S
H763 C759 0.950 . S
H764 C761 0.950 . S
C765 C756 1.390 . S
C765 H758 0.950 . S
C765 C762 1.387 . S
C766 C767 1.387 . S
C766 H770 0.950 . S
C766 C775 1.390 . S
C767 C766 1.387 . S
C767 C769 1.387 . S
H768 C775 0.950 . S
C769 C767 1.387 . S
C769 C771 1.390 . S
C769 H773 0.950 . S
H770 C766 0.950 . S
C771 C769 1.390 . S
C771 C772 1.387 . S
C771 H774 0.950 . S
C772 C771 1.387 . S
C772 C775 1.387 . S
H773 C769 0.950 . S
H774 C771 0.950 . S
C775 C766 1.390 . S
C775 H768 0.950 . S
C775 C772 1.387 . S
C776 C777 1.387 . S
C776 H780 0.950 . S
C776 C785 1.390 . S
C777 C776 1.387 . S
C777 C779 1.387 . S
H778 C785 0.950 1_565 S
C779 C777 1.387 . S
C779 C781 1.390 . S
C779 H783 0.950 . S
H780 C776 0.950 . S
C781 C779 1.390 . S
C781 C782 1.387 . S
C781 H784 0.950 . S
C782 C781 1.387 . S
C782 C785 1.387 . S
H783 C779 0.950 . S
H784 C781 0.950 . S
C785 C776 1.390 . S
C785 H778 0.950 1_545 S
C785 C782 1.387 . S
C786 C787 1.387 . S
C786 H790 0.950 . S
C786 C795 1.390 . S
C787 C786 1.387 . S
C787 C789 1.387 . S
H788 C795 0.950 . S
C789 C787 1.387 . S
C789 C791 1.390 . S
C789 H793 0.950 . S
H790 C786 0.950 . S
C791 C789 1.390 . S
C791 C792 1.387 . S
C791 H794 0.950 . S
C792 C791 1.387 . S
C792 C795 1.387 . S
H793 C789 0.950 . S
H794 C791 0.950 . S
C795 C786 1.390 . S
C795 H788 0.950 . S
C795 C792 1.387 . S
C796 C797 1.387 1_565 S
C796 H800 0.950 . S
C796 C805 1.390 . S
C797 C796 1.387 1_545 S
C797 C799 1.387 . S
H798 C805 0.950 . S
C799 C797 1.387 . S
C799 C801 1.390 . S
C799 H803 0.950 . S
H800 C796 0.950 . S
C801 C799 1.390 . S
C801 C802 1.387 . S
C801 H804 0.950 . S
C802 C801 1.387 . S
C802 C805 1.387 1_545 S
H803 C799 0.950 . S
H804 C801 0.950 . S
C805 C796 1.390 . S
C805 H798 0.950 . S
C805 C802 1.387 1_565 S
C806 C807 1.387 . S
C806 H810 0.950 . S
C806 C815 1.390 . S
C807 C806 1.387 . S
C807 C809 1.387 . S
H808 C815 0.950 . S
C809 C807 1.387 . S
C809 C811 1.390 . S
C809 H813 0.950 . S
H810 C806 0.950 . S
C811 C809 1.390 . S
C811 C812 1.387 . S
C811 H814 0.950 . S
C812 C811 1.387 . S
C812 C815 1.387 . S
H813 C809 0.950 . S
H814 C811 0.950 . S
C815 C806 1.390 . S
C815 H808 0.950 . S
C815 C812 1.387 . S
C816 C817 1.387 . S
C816 H820 0.950 . S
C816 C825 1.390 . S
C817 C816 1.387 . S
C817 C819 1.387 . S
H818 C825 0.950 1_545 S
C819 C817 1.387 . S
C819 C821 1.390 . S
C819 H823 0.950 1_554 S
H820 C816 0.950 . S
C821 C819 1.390 . S
C821 C822 1.387 . S
C821 H824 0.950 1_554 S
C822 C821 1.387 . S
C822 C825 1.387 . S
H823 C819 0.950 1_556 S
H824 C821 0.950 1_556 S
C825 C816 1.390 . S
C825 H818 0.950 1_565 S
C825 C822 1.387 . S
C826 C827 1.387 . S
C826 H830 0.950 . S
C826 C835 1.390 . S
C827 C826 1.387 . S
C827 C829 1.387 1_556 S
H828 C835 0.950 . S
C829 C827 1.387 1_554 S
C829 C831 1.390 . S
C829 H833 0.950 . S
H830 C826 0.950 . S
C831 C829 1.390 . S
C831 C832 1.380 1_554 S
C831 H834 0.950 . S
C832 C831 1.380 1_556 S
C832 C835 1.397 . S
H833 C829 0.950 . S
H834 C831 0.950 . S
C835 C826 1.390 . S
C835 H828 0.950 . S
C835 C832 1.397 . S
C836 C837 1.387 . S
C836 H840 0.950 . S
C836 C845 1.390 . S
C837 C836 1.387 . S
C837 C839 1.387 . S
H838 C845 0.950 . S
C839 C837 1.387 . S
C839 C841 1.390 . S
C839 H843 0.950 . S
H840 C836 0.950 . S
C841 C839 1.390 . S
C841 C842 1.387 . S
C841 H844 0.950 . S
C842 C841 1.387 . S
C842 C845 1.387 . S
H843 C839 0.950 . S
H844 C841 0.950 . S
C845 C836 1.390 . S
C845 H838 0.950 . S
C845 C842 1.387 . S
C846 C847 1.387 . S
C846 H850 0.950 . S
C846 C855 1.390 . S
C847 C846 1.387 . S
C847 C849 1.387 . S
H848 C855 0.950 . S
C849 C847 1.387 . S
C849 C851 1.390 . S
C849 H853 0.950 . S
H850 C846 0.950 . S
C851 C849 1.390 . S
C851 C852 1.387 . S
C851 H854 0.950 . S
C852 C851 1.387 . S
C852 C855 1.387 . S
H853 C849 0.950 . S
H854 C851 0.950 . S
C855 C846 1.390 . S
C855 H848 0.950 . S
C855 C852 1.387 . S
C856 C857 1.387 . S
C856 H860 0.950 . S
C856 C865 1.390 . S
C857 C856 1.387 . S
C857 C859 1.387 . S
H858 C865 0.950 . S
C859 C857 1.387 . S
C859 C861 1.390 . S
C859 H863 0.950 . S
H860 C856 0.950 . S
C861 C859 1.390 . S
C861 C862 1.387 . S
C861 H864 0.950 . S
C862 C861 1.387 . S
C862 C865 1.387 . S
H863 C859 0.950 . S
H864 C861 0.950 . S
C865 C856 1.390 . S
C865 H858 0.950 . S
C865 C862 1.387 . S
C866 C867 1.387 . S
C866 H870 0.950 . S
C866 C875 1.390 . S
C867 C866 1.387 . S
C867 C869 1.387 . S
H868 C875 0.950 . S
C869 C867 1.387 . S
C869 C871 1.390 . S
C869 H873 0.950 . S
H870 C866 0.950 . S
C871 C869 1.390 . S
C871 C872 1.387 . S
C871 H874 0.950 . S
C872 C871 1.387 . S
C872 C875 1.387 . S
H873 C869 0.950 . S
H874 C871 0.950 . S
C875 C866 1.390 . S
C875 H868 0.950 . S
C875 C872 1.387 . S
C876 C877 1.387 . S
C876 H880 0.950 . S
C876 C885 1.390 . S
C877 C876 1.387 . S
C877 C879 1.387 . S
H878 C885 0.950 . S
C879 C877 1.387 . S
C879 C881 1.390 . S
C879 H883 0.950 . S
H880 C876 0.950 . S
C881 C879 1.390 . S
C881 C882 1.387 . S
C881 H884 0.950 . S
C882 C881 1.387 . S
C882 C885 1.387 . S
H883 C879 0.950 . S
H884 C881 0.950 . S
C885 C876 1.390 . S
C885 H878 0.950 . S
C885 C882 1.387 . S
C886 C887 1.387 . S
C886 H890 0.950 . S
C886 C895 1.390 . S
C887 C886 1.387 . S
C887 C889 1.387 . S
H888 C895 0.950 . S
C889 C887 1.387 . S
C889 C891 1.390 . S
C889 H893 0.950 . S
H890 C886 0.950 . S
C891 C889 1.390 . S
C891 C892 1.387 . S
C891 H894 0.950 . S
C892 C891 1.387 . S
C892 C895 1.387 . S
H893 C889 0.950 . S
H894 C891 0.950 . S
C895 C886 1.390 . S
C895 H888 0.950 . S
C895 C892 1.387 . S
C896 C897 1.387 . S
C896 H900 0.950 . S
C896 C905 1.390 . S
C897 C896 1.387 . S
C897 C899 1.387 1_455 S
H898 C905 0.950 . S
C899 C897 1.387 1_655 S
C899 C901 1.390 . S
C899 H903 0.950 . S
H900 C896 0.950 . S
C901 C899 1.390 . S
C901 C902 1.387 1_655 S
C901 H904 0.950 . S
C902 C901 1.387 1_455 S
C902 C905 1.387 . S
H903 C899 0.950 . S
H904 C901 0.950 . S
C905 C896 1.390 . S
C905 H898 0.950 . S
C905 C902 1.387 . S
C906 C907 1.387 . S
C906 H910 0.950 . S
C906 C915 1.390 . S
C907 C906 1.387 . S
C907 C909 1.387 . S
H908 C915 0.950 . S
C909 C907 1.387 . S
C909 C911 1.390 . S
C909 H913 0.950 . S
H910 C906 0.950 . S
C911 C909 1.390 . S
C911 C912 1.387 . S
C911 H914 0.950 . S
C912 C911 1.387 . S
C912 C915 1.387 . S
H913 C909 0.950 . S
H914 C911 0.950 . S
C915 C906 1.390 . S
C915 H908 0.950 . S
C915 C912 1.387 . S
C916 C917 1.387 . S
C916 H920 0.950 . S
C916 C925 1.390 . S
C917 C916 1.387 . S
C917 C919 1.387 . S
H918 C925 0.950 . S
C919 C917 1.387 . S
C919 C921 1.390 . S
C919 H923 0.950 . S
H920 C916 0.950 . S
C921 C919 1.390 . S
C921 C922 1.387 . S
C921 H924 0.950 . S
C922 C921 1.387 . S
C922 C925 1.387 . S
H923 C919 0.950 . S
H924 C921 0.950 . S
C925 C916 1.390 . S
C925 H918 0.950 . S
C925 C922 1.387 . S
C926 C927 1.387 . S
C926 H930 0.950 . S
C926 C935 1.390 . S
C927 C926 1.387 . S
C927 C929 1.387 . S
H928 C935 0.950 . S
C929 C927 1.387 . S
C929 C931 1.390 . S
C929 H933 0.950 . S
H930 C926 0.950 . S
C931 C929 1.390 . S
C931 C932 1.387 . S
C931 H934 0.950 . S
C932 C931 1.387 . S
C932 C935 1.387 . S
H933 C929 0.950 . S
H934 C931 0.950 . S
C935 C926 1.390 . S
C935 H928 0.950 . S
C935 C932 1.387 . S
C936 C937 1.387 1_655 S
C936 H940 0.950 . S
C936 C945 1.390 . S
C937 C936 1.387 1_455 S
C937 C939 1.387 . S
H938 C945 0.950 . S
C939 C937 1.387 . S
C939 C941 1.390 . S
C939 H943 0.950 . S
H940 C936 0.950 . S
C941 C939 1.390 . S
C941 C942 1.387 . S
C941 H944 0.950 . S
C942 C941 1.387 . S
C942 C945 1.387 1_455 S
H943 C939 0.950 . S
H944 C941 0.950 . S
C945 C936 1.390 . S
C945 H938 0.950 . S
C945 C942 1.387 1_655 S
C946 C947 1.387 . S
C946 H950 0.950 . S
C946 C955 1.390 . S
C947 C946 1.387 . S
C947 C949 1.387 . S
H948 C955 0.950 . S
C949 C947 1.387 . S
C949 C951 1.390 . S
C949 H953 0.950 . S
H950 C946 0.950 . S
C951 C949 1.390 . S
C951 C952 1.387 . S
C951 H954 0.950 . S
C952 C951 1.387 . S
C952 C955 1.387 . S
H953 C949 0.950 . S
H954 C951 0.950 . S
C955 C946 1.390 . S
C955 H948 0.950 . S
C955 C952 1.387 . S
C956 C957 1.387 . S
C956 H960 0.950 . S
C956 C965 1.390 . S
C957 C956 1.387 . S
C957 C959 1.387 . S
H958 C965 0.950 1_554 S
C959 C957 1.387 . S
C959 C961 1.390 . S
C959 H963 0.950 . S
H960 C956 0.950 . S
C961 C959 1.390 . S
C961 C962 1.387 . S
C961 H964 0.950 . S
C962 C961 1.387 . S
C962 C965 1.387 . S
H963 C959 0.950 . S
H964 C961 0.950 . S
C965 C956 1.390 . S
C965 H958 0.950 1_556 S
C965 C962 1.387 . S
C966 C967 1.387 . S
C966 H970 0.950 . S
C966 C975 1.390 . S
C967 C966 1.387 . S
C967 C969 1.387 . S
H968 C975 0.950 . S
C969 C967 1.387 . S
C969 C971 1.390 . S
C969 H973 0.950 . S
H970 C966 0.950 . S
C971 C969 1.390 . S
C971 C972 1.387 . S
C971 H974 0.950 . S
C972 C971 1.387 . S
C972 C975 1.387 . S
H973 C969 0.950 . S
H974 C971 0.950 . S
C975 C966 1.390 . S
C975 H968 0.950 . S
C975 C972 1.387 . S
C976 C977 1.387 1_565 S
C976 H980 0.950 . S
C976 C985 1.390 . S
C977 C976 1.387 1_545 S
C977 C979 1.387 . S
H978 C985 0.950 . S
C979 C977 1.387 . S
C979 C981 1.390 . S
C979 H983 0.950 . S
H980 C976 0.950 . S
C981 C979 1.390 . S
C981 C982 1.387 1_545 S
C981 H984 0.950 . S
C982 C981 1.387 1_565 S
C982 C985 1.387 . S
H983 C979 0.950 . S
H984 C981 0.950 . S
C985 C976 1.390 . S
C985 H978 0.950 . S
C985 C982 1.387 . S
C986 C987 1.387 . S
C986 H990 0.950 . S
C986 C995 1.390 . S
C987 C986 1.387 . S
C987 C989 1.387 . S
H988 C995 0.950 . S
C989 C987 1.387 . S
C989 C991 1.390 . S
C989 H993 0.950 . S
H990 C986 0.950 . S
C991 C989 1.390 . S
C991 C992 1.387 . S
C991 H994 0.950 . S
C992 C991 1.387 . S
C992 C995 1.387 . S
H993 C989 0.950 . S
H994 C991 0.950 . S
C995 C986 1.390 . S
C995 H988 0.950 . S
C995 C992 1.387 . S
C996 C997 1.387 . S
C996 H1000 0.950 . S
C996 C1005 1.390 . S
C997 C996 1.387 . S
C997 C999 1.387 . S
H998 C1005 0.950 . S
C999 C997 1.387 . S
C999 C1001 1.390 . S
C999 H1003 0.956 . S
H1000 C996 0.950 . S
C1001 C999 1.390 . S
C1001 C1002 1.387 . S
C1001 H1004 0.950 1_545 S
C1002 C1001 1.387 . S
C1002 C1005 1.387 . S
H1003 C999 0.956 . S
H1004 C1001 0.950 1_565 S
C1005 C996 1.390 . S
C1005 H998 0.950 . S
C1005 C1002 1.387 . S
C1006 C1007 1.387 . S
C1006 H1010 0.950 . S
C1006 C1015 1.390 . S
C1007 C1006 1.387 . S
C1007 C1009 1.387 . S
H1008 C1015 0.950 . S
C1009 C1007 1.387 . S
C1009 C1011 1.390 . S
C1009 H1013 0.950 . S
H1010 C1006 0.950 . S
C1011 C1009 1.390 . S
C1011 C1012 1.387 . S
C1011 H1014 0.950 . S
C1012 C1011 1.387 . S
C1012 C1015 1.387 . S
H1013 C1009 0.950 . S
H1014 C1011 0.950 . S
C1015 C1006 1.390 . S
C1015 H1008 0.950 . S
C1015 C1012 1.387 . S
C1016 C1017 1.387 1_545 S
C1016 H1020 0.950 . S
C1016 C1025 1.390 . S
C1017 C1016 1.387 1_565 S
C1017 C1019 1.387 . S
H1018 C1025 0.950 . S
C1019 C1017 1.387 . S
C1019 C1021 1.390 . S
C1019 H1023 0.950 . S
H1020 C1016 0.950 . S
C1021 C1019 1.390 . S
C1021 C1022 1.387 1_565 S
C1021 H1024 0.960 . S
C1022 C1021 1.387 1_545 S
C1022 C1025 1.387 . S
H1023 C1019 0.950 . S
H1024 C1021 0.960 . S
C1025 C1016 1.390 . S
C1025 H1018 0.950 . S
C1025 C1022 1.387 . S
C1026 C1027 1.387 . S
C1026 H1030 0.950 . S
C1026 C1035 1.390 . S
C1027 C1026 1.387 . S
C1027 C1029 1.387 . S
H1028 C1035 0.950 . S
C1029 C1027 1.387 . S
C1029 C1031 1.390 . S
C1029 H1033 0.950 . S
H1030 C1026 0.950 . S
C1031 C1029 1.390 . S
C1031 C1032 1.387 . S
C1031 H1034 0.950 . S
C1032 C1031 1.387 . S
C1032 C1035 1.387 . S
H1033 C1029 0.950 . S
H1034 C1031 0.950 . S
C1035 C1026 1.390 . S
C1035 H1028 0.950 . S
C1035 C1032 1.387 . S
C1036 C1037 1.387 . S
C1036 H1040 0.950 1_545 S
C1036 C1045 1.390 . S
C1037 C1036 1.387 . S
C1037 C1039 1.387 . S
H1038 C1045 0.950 1_565 S
C1039 C1037 1.387 . S
C1039 C1041 1.390 . S
C1039 H1043 0.950 . S
H1040 C1036 0.950 1_565 S
C1041 C1039 1.390 . S
C1041 C1042 1.387 . S
C1041 H1044 0.950 . S
C1042 C1041 1.387 . S
C1042 C1045 1.387 . S
H1043 C1039 0.950 . S
H1044 C1041 0.950 . S
C1045 C1036 1.390 . S
C1045 H1038 0.950 1_545 S
C1045 C1042 1.387 . S
C1046 C1047 1.387 . S
C1046 H1050 0.950 . S
C1046 C1055 1.390 . S
C1047 C1046 1.387 . S
C1047 C1049 1.387 . S
H1048 C1055 0.950 . S
C1049 C1047 1.387 . S
C1049 C1051 1.390 . S
C1049 H1053 0.950 . S
H1050 C1046 0.950 . S
C1051 C1049 1.390 . S
C1051 C1052 1.387 . S
C1051 H1054 0.950 . S
C1052 C1051 1.387 . S
C1052 C1055 1.387 . S
H1053 C1049 0.950 . S
H1054 C1051 0.950 . S
C1055 C1046 1.390 . S
C1055 H1048 0.950 . S
C1055 C1052 1.387 . S
C1056 C1057 1.387 1_556 S
C1056 H1060 0.950 . S
C1056 C1065 1.390 . S
C1057 C1056 1.387 1_554 S
C1057 C1059 1.387 . S
H1058 C1065 0.950 . S
C1059 C1057 1.387 . S
C1059 C1061 1.390 . S
C1059 H1063 0.950 . S
H1060 C1056 0.950 . S
C1061 C1059 1.390 . S
C1061 C1062 1.387 1_554 S
C1061 H1064 0.950 . S
C1062 C1061 1.387 1_556 S
C1062 C1065 1.387 . S
H1063 C1059 0.950 . S
H1064 C1061 0.950 . S
C1065 C1056 1.390 . S
C1065 H1058 0.950 . S
C1065 C1062 1.387 . S
C1066 C1067 1.387 . S
C1066 H1070 0.950 1_554 S
C1066 C1075 1.390 . S
C1067 C1066 1.387 . S
C1067 C1069 1.387 . S
H1068 C1075 0.950 1_556 S
C1069 C1067 1.387 . S
C1069 C1071 1.390 . S
C1069 H1073 0.950 . S
H1070 C1066 0.950 1_556 S
C1071 C1069 1.390 . S
C1071 C1072 1.387 . S
C1071 H1074 0.950 . S
C1072 C1071 1.387 . S
C1072 C1075 1.387 . S
H1073 C1069 0.950 . S
H1074 C1071 0.950 . S
C1075 C1066 1.390 . S
C1075 H1068 0.950 1_554 S
C1075 C1072 1.387 . S
C1076 C1077 1.387 . S
C1076 H1080 0.950 . S
C1076 C1085 1.390 . S
C1077 C1076 1.387 . S
C1077 C1079 1.387 . S
H1078 C1085 0.950 . S
C1079 C1077 1.387 . S
C1079 C1081 1.390 . S
C1079 H1083 0.950 . S
H1080 C1076 0.950 . S
C1081 C1079 1.390 . S
C1081 C1082 1.387 . S
C1081 H1084 0.950 . S
C1082 C1081 1.387 . S
C1082 C1085 1.387 . S
H1083 C1079 0.950 . S
H1084 C1081 0.950 . S
C1085 C1076 1.390 . S
C1085 H1078 0.950 . S
C1085 C1082 1.387 . S
C1086 C1087 1.387 . S
C1086 H1090 0.950 . S
C1086 C1095 1.390 . S
C1087 C1086 1.387 . S
C1087 C1089 1.387 . S
H1088 C1095 0.950 . S
C1089 C1087 1.387 . S
C1089 C1091 1.390 . S
C1089 H1093 0.950 . S
H1090 C1086 0.950 . S
C1091 C1089 1.390 . S
C1091 C1092 1.387 . S
C1091 H1094 0.950 . S
C1092 C1091 1.387 . S
C1092 C1095 1.387 . S
H1093 C1089 0.950 . S
H1094 C1091 0.950 . S
C1095 C1086 1.390 . S
C1095 H1088 0.950 . S
C1095 C1092 1.387 . S
C1096 C1097 1.387 . S
C1096 H1100 0.950 . S
C1096 C1105 1.390 . S
C1097 C1096 1.387 . S
C1097 C1099 1.387 . S
H1098 C1105 0.950 . S
C1099 C1097 1.387 . S
C1099 C1101 1.390 . S
C1099 H1103 0.950 . S
H1100 C1096 0.950 . S
C1101 C1099 1.390 . S
C1101 C1102 1.387 . S
C1101 H1104 0.950 . S
C1102 C1101 1.387 . S
C1102 C1105 1.387 . S
H1103 C1099 0.950 . S
H1104 C1101 0.950 . S
C1105 C1096 1.390 . S
C1105 H1098 0.950 . S
C1105 C1102 1.387 . S
C1106 C1107 1.387 . S
C1106 H1110 0.950 . S
C1106 C1115 1.390 . S
C1107 C1106 1.387 . S
C1107 C1109 1.387 . S
H1108 C1115 0.950 . S
C1109 C1107 1.387 . S
C1109 C1111 1.390 . S
C1109 H1113 0.950 . S
H1110 C1106 0.950 . S
C1111 C1109 1.390 . S
C1111 C1112 1.387 . S
C1111 H1114 0.950 1_565 S
C1112 C1111 1.387 . S
C1112 C1115 1.387 . S
H1113 C1109 0.950 . S
H1114 C1111 0.950 1_545 S
C1115 C1106 1.390 . S
C1115 H1108 0.950 . S
C1115 C1112 1.387 . S
C1116 C1117 1.387 . S
C1116 H1120 0.950 . S
C1116 C1125 1.390 . S
C1117 C1116 1.387 . S
C1117 C1119 1.387 . S
H1118 C1125 0.950 . S
C1119 C1117 1.387 . S
C1119 C1121 1.390 . S
C1119 H1123 0.950 . S
H1120 C1116 0.950 . S
C1121 C1119 1.390 . S
C1121 C1122 1.387 . S
C1121 H1124 0.950 . S
C1122 C1121 1.387 . S
C1122 C1125 1.387 . S
H1123 C1119 0.950 . S
H1124 C1121 0.950 . S
C1125 C1116 1.390 . S
C1125 H1118 0.950 . S
C1125 C1122 1.387 . S
C1126 C1127 1.387 . S
C1126 H1130 0.950 . S
C1126 C1135 1.390 . S
C1127 C1126 1.387 . S
C1127 C1129 1.387 . S
H1128 C1135 0.950 . S
C1129 C1127 1.387 . S
C1129 C1131 1.390 . S
C1129 H1133 0.950 . S
H1130 C1126 0.950 . S
C1131 C1129 1.390 . S
C1131 C1132 1.387 . S
C1131 H1134 0.950 . S
C1132 C1131 1.387 . S
C1132 C1135 1.387 . S
H1133 C1129 0.950 . S
H1134 C1131 0.950 . S
C1135 C1126 1.390 . S
C1135 H1128 0.950 . S
C1135 C1132 1.387 . S
C1136 C1137 1.387 . S
C1136 H1140 0.950 . S
C1136 C1145 1.390 . S
C1137 C1136 1.387 . S
C1137 C1139 1.387 . S
H1138 C1145 0.950 . S
C1139 C1137 1.387 . S
C1139 C1141 1.390 . S
C1139 H1143 0.950 . S
H1140 C1136 0.950 . S
C1141 C1139 1.390 . S
C1141 C1142 1.387 . S
C1141 H1144 0.950 . S
C1142 C1141 1.387 . S
C1142 C1145 1.387 . S
H1143 C1139 0.950 . S
H1144 C1141 0.950 . S
C1145 C1136 1.390 . S
C1145 H1138 0.950 . S
C1145 C1142 1.387 . S
C1146 C1147 1.387 . S
C1146 H1150 0.950 . S
C1146 C1155 1.390 . S
C1147 C1146 1.387 . S
C1147 C1149 1.387 . S
H1148 C1155 0.950 . S
C1149 C1147 1.387 . S
C1149 C1151 1.390 . S
C1149 H1153 0.950 . S
H1150 C1146 0.950 . S
C1151 C1149 1.390 . S
C1151 C1152 1.387 . S
C1151 H1154 0.950 . S
C1152 C1151 1.387 . S
C1152 C1155 1.387 . S
H1153 C1149 0.950 . S
H1154 C1151 0.950 . S
C1155 C1146 1.390 . S
C1155 H1148 0.950 . S
C1155 C1152 1.387 . S
C1156 C1157 1.387 . S
C1156 H1160 0.950 . S
C1156 C1165 1.390 . S
C1157 C1156 1.387 . S
C1157 C1159 1.387 . S
H1158 C1165 0.950 . S
C1159 C1157 1.387 . S
C1159 C1161 1.390 . S
C1159 H1163 0.950 . S
H1160 C1156 0.950 . S
C1161 C1159 1.390 . S
C1161 C1162 1.387 . S
C1161 H1164 0.950 1_456 S
C1162 C1161 1.387 . S
C1162 C1165 1.387 . S
H1163 C1159 0.950 . S
H1164 C1161 0.950 1_654 S
C1165 C1156 1.390 . S
C1165 H1158 0.950 . S
C1165 C1162 1.387 . S
C1166 C1167 1.387 . S
C1166 H1170 0.950 . S
C1166 C1175 1.390 . S
C1167 C1166 1.387 . S
C1167 C1169 1.387 . S
H1168 C1175 0.950 . S
C1169 C1167 1.387 . S
C1169 C1171 1.390 . S
C1169 H1173 0.950 . S
H1170 C1166 0.950 . S
C1171 C1169 1.390 . S
C1171 C1172 1.387 . S
C1171 H1174 0.950 . S
C1172 C1171 1.387 . S
C1172 C1175 1.387 . S
H1173 C1169 0.950 . S
H1174 C1171 0.950 . S
C1175 C1166 1.390 . S
C1175 H1168 0.950 . S
C1175 C1172 1.387 . S
C1176 C1177 1.387 . S
C1176 H1180 0.950 . S
C1176 C1185 1.390 . S
C1177 C1176 1.387 . S
C1177 C1179 1.387 . S
H1178 C1185 0.950 . S
C1179 C1177 1.387 . S
C1179 C1181 1.390 . S
C1179 H1183 0.950 . S
H1180 C1176 0.950 . S
C1181 C1179 1.390 . S
C1181 C1182 1.387 . S
C1181 H1184 0.950 . S
C1182 C1181 1.387 . S
C1182 C1185 1.387 . S
H1183 C1179 0.950 . S
H1184 C1181 0.950 . S
C1185 C1176 1.390 . S
C1185 H1178 0.950 . S
C1185 C1182 1.387 . S
C1186 C1187 1.387 . S
C1186 H1190 0.950 . S
C1186 C1195 1.390 . S
C1187 C1186 1.387 . S
C1187 C1189 1.387 . S
H1188 C1195 0.950 . S
C1189 C1187 1.387 . S
C1189 C1191 1.390 . S
C1189 H1193 0.950 . S
H1190 C1186 0.950 . S
C1191 C1189 1.390 . S
C1191 C1192 1.387 . S
C1191 H1194 0.950 . S
C1192 C1191 1.387 . S
C1192 C1195 1.387 . S
H1193 C1189 0.950 . S
H1194 C1191 0.950 . S
C1195 C1186 1.390 . S
C1195 H1188 0.950 . S
C1195 C1192 1.387 . S
C1196 C1197 1.387 . S
C1196 H1200 0.950 . S
C1196 C1205 1.390 . S
C1197 C1196 1.387 . S
C1197 C1199 1.387 1_655 S
H1198 C1205 0.950 . S
C1199 C1197 1.387 1_455 S
C1199 C1201 1.390 . S
C1199 H1203 0.950 . S
H1200 C1196 0.950 . S
C1201 C1199 1.390 . S
C1201 C1202 1.387 1_455 S
C1201 H1204 0.950 . S
C1202 C1201 1.387 1_655 S
C1202 C1205 1.387 . S
H1203 C1199 0.950 . S
H1204 C1201 0.950 . S
C1205 C1196 1.390 . S
C1205 H1198 0.950 . S
C1205 C1202 1.387 . S
C1206 C1207 1.387 . S
C1206 H1210 0.950 . S
C1206 C1215 1.390 . S
C1207 C1206 1.387 . S
C1207 C1209 1.387 . S
H1208 C1215 0.950 . S
C1209 C1207 1.387 . S
C1209 C1211 1.390 . S
C1209 H1213 0.950 . S
H1210 C1206 0.950 . S
C1211 C1209 1.390 . S
C1211 C1212 1.387 . S
C1211 H1214 0.950 . S
C1212 C1211 1.387 . S
C1212 C1215 1.387 . S
H1213 C1209 0.950 . S
H1214 C1211 0.950 . S
C1215 C1206 1.390 . S
C1215 H1208 0.950 . S
C1215 C1212 1.387 . S
C1216 C1217 1.387 . S
C1216 H1220 0.950 . S
C1216 C1225 1.390 . S
C1217 C1216 1.387 . S
C1217 C1219 1.387 . S
H1218 C1225 0.950 . S
C1219 C1217 1.387 . S
C1219 C1221 1.390 . S
C1219 H1223 0.950 . S
H1220 C1216 0.950 . S
C1221 C1219 1.390 . S
C1221 C1222 1.387 . S
C1221 H1224 0.950 . S
C1222 C1221 1.387 . S
C1222 C1225 1.387 . S
H1223 C1219 0.950 . S
H1224 C1221 0.950 . S
C1225 C1216 1.390 . S
C1225 H1218 0.950 . S
C1225 C1222 1.387 . S
C1226 C1227 1.387 . S
C1226 H1230 0.950 . S
C1226 C1235 1.390 . S
C1227 C1226 1.387 . S
C1227 C1229 1.387 . S
H1228 C1235 0.950 . S
C1229 C1227 1.387 . S
C1229 C1231 1.390 . S
C1229 H1233 0.950 . S
H1230 C1226 0.950 . S
C1231 C1229 1.390 . S
C1231 C1232 1.387 . S
C1231 H1234 0.950 . S
C1232 C1231 1.387 . S
C1232 C1235 1.387 . S
H1233 C1229 0.950 . S
H1234 C1231 0.950 . S
C1235 C1226 1.390 . S
C1235 H1228 0.950 . S
C1235 C1232 1.387 . S
C1236 C1237 1.387 . S
C1236 H1240 0.950 . S
C1236 C1245 1.390 . S
C1237 C1236 1.387 . S
C1237 C1239 1.387 . S
H1238 C1245 0.950 1_655 S
C1239 C1237 1.387 . S
C1239 C1241 1.390 . S
C1239 H1243 0.950 . S
H1240 C1236 0.950 . S
C1241 C1239 1.390 . S
C1241 C1242 1.387 . S
C1241 H1244 0.950 . S
C1242 C1241 1.387 . S
C1242 C1245 1.387 . S
H1243 C1239 0.950 . S
H1244 C1241 0.950 . S
C1245 C1236 1.390 . S
C1245 H1238 0.950 1_455 S
C1245 C1242 1.387 . S
C1246 C1247 1.387 . S
C1246 H1250 0.950 . S
C1246 C1255 1.390 . S
C1247 C1246 1.387 . S
C1247 C1249 1.387 . S
H1248 C1255 0.950 . S
C1249 C1247 1.387 . S
C1249 C1251 1.390 . S
C1249 H1253 0.950 . S
H1250 C1246 0.950 . S
C1251 C1249 1.390 . S
C1251 C1252 1.387 . S
C1251 H1254 0.950 . S
C1252 C1251 1.387 . S
C1252 C1255 1.387 . S
H1253 C1249 0.950 . S
H1254 C1251 0.950 . S
C1255 C1246 1.390 . S
C1255 H1248 0.950 . S
C1255 C1252 1.387 . S
C1256 C1257 1.387 . S
C1256 H1260 0.950 . S
C1256 C1265 1.390 . S
C1257 C1256 1.387 . S
C1257 C1259 1.387 . S
H1258 C1265 0.950 . S
C1259 C1257 1.387 . S
C1259 C1261 1.390 . S
C1259 H1263 0.950 . S
H1260 C1256 0.950 . S
C1261 C1259 1.390 . S
C1261 C1262 1.387 . S
C1261 H1264 0.950 . S
C1262 C1261 1.387 . S
C1262 C1265 1.387 . S
H1263 C1259 0.950 . S
H1264 C1261 0.950 . S
C1265 C1256 1.390 . S
C1265 H1258 0.950 . S
C1265 C1262 1.387 . S
C1266 C1267 1.387 . S
C1266 H1270 0.950 . S
C1266 C1275 1.390 . S
C1267 C1266 1.387 . S
C1267 C1269 1.387 . S
H1268 C1275 0.950 . S
C1269 C1267 1.387 . S
C1269 C1271 1.390 . S
C1269 H1273 0.950 . S
H1270 C1266 0.950 . S
C1271 C1269 1.390 . S
C1271 C1272 1.387 . S
C1271 H1274 0.950 . S
C1272 C1271 1.387 . S
C1272 C1275 1.387 . S
H1273 C1269 0.950 . S
H1274 C1271 0.950 . S
C1275 C1266 1.390 . S
C1275 H1268 0.950 . S
C1275 C1272 1.387 . S
C1276 C1277 1.387 . S
C1276 H1280 0.950 . S
C1276 C1285 1.390 . S
C1277 C1276 1.387 . S
C1277 C1279 1.387 . S
H1278 C1285 0.950 . S
C1279 C1277 1.387 . S
C1279 C1281 1.390 . S
C1279 H1283 0.950 . S
H1280 C1276 0.950 . S
C1281 C1279 1.390 . S
C1281 C1282 1.387 . S
C1281 H1284 0.950 . S
C1282 C1281 1.387 . S
C1282 C1285 1.387 . S
H1283 C1279 0.950 . S
H1284 C1281 0.950 . S
C1285 C1276 1.390 . S
C1285 H1278 0.950 . S
C1285 C1282 1.387 . S
C1286 C1287 1.387 . S
C1286 H1290 0.950 . S
C1286 C1295 1.390 . S
C1287 C1286 1.387 . S
C1287 C1289 1.387 . S
H1288 C1295 0.950 . S
C1289 C1287 1.387 . S
C1289 C1291 1.390 . S
C1289 H1293 0.950 . S
H1290 C1286 0.950 . S
C1291 C1289 1.390 . S
C1291 C1292 1.387 . S
C1291 H1294 0.950 . S
C1292 C1291 1.387 . S
C1292 C1295 1.387 . S
H1293 C1289 0.950 . S
H1294 C1291 0.950 . S
C1295 C1286 1.390 . S
C1295 H1288 0.950 . S
C1295 C1292 1.387 . S
C1296 C1297 1.387 . S
C1296 H1300 0.950 . S
C1296 C1305 1.390 . S
C1297 C1296 1.387 . S
C1297 C1299 1.387 . S
H1298 C1305 0.950 . S
C1299 C1297 1.387 . S
C1299 C1301 1.390 . S
C1299 H1303 0.950 . S
H1300 C1296 0.950 . S
C1301 C1299 1.390 . S
C1301 C1302 1.387 . S
C1301 H1304 0.950 . S
C1302 C1301 1.387 . S
C1302 C1305 1.387 . S
H1303 C1299 0.950 . S
H1304 C1301 0.950 . S
C1305 C1296 1.390 . S
C1305 H1298 0.950 . S
C1305 C1302 1.387 . S
C1306 C1307 1.387 . S
C1306 H1310 0.950 . S
C1306 C1315 1.390 . S
C1307 C1306 1.387 . S
C1307 C1309 1.387 . S
H1308 C1315 0.950 . S
C1309 C1307 1.387 . S
C1309 C1311 1.390 . S
C1309 H1313 0.950 . S
H1310 C1306 0.950 . S
C1311 C1309 1.390 . S
C1311 C1312 1.387 . S
C1311 H1314 0.950 . S
C1312 C1311 1.387 . S
C1312 C1315 1.387 . S
H1313 C1309 0.950 . S
H1314 C1311 0.950 . S
C1315 C1306 1.390 . S
C1315 H1308 0.950 . S
C1315 C1312 1.387 . S
C1316 C1317 1.387 . S
C1316 H1320 0.950 . S
C1316 C1325 1.390 . S
C1317 C1316 1.387 . S
C1317 C1319 1.387 . S
H1318 C1325 0.950 . S
C1319 C1317 1.387 . S
C1319 C1321 1.390 . S
C1319 H1323 0.950 . S
H1320 C1316 0.950 . S
C1321 C1319 1.390 . S
C1321 C1322 1.387 . S
C1321 H1324 0.950 . S
C1322 C1321 1.387 . S
C1322 C1325 1.387 . S
H1323 C1319 0.950 . S
H1324 C1321 0.950 . S
C1325 C1316 1.390 . S
C1325 H1318 0.950 . S
C1325 C1322 1.387 . S
C1326 C1327 1.387 . S
C1326 H1330 0.950 . S
C1326 C1335 1.390 1_565 S
C1327 C1326 1.387 . S
C1327 C1329 1.387 . S
H1328 C1335 0.950 . S
C1329 C1327 1.387 . S
C1329 C1331 1.390 . S
C1329 H1333 0.950 1_554 S
H1330 C1326 0.950 . S
C1331 C1329 1.390 . S
C1331 C1332 1.387 . S
C1331 H1334 0.950 1_554 S
C1332 C1331 1.387 . S
C1332 C1335 1.387 1_565 S
H1333 C1329 0.950 1_556 S
H1334 C1331 0.950 1_556 S
C1335 C1326 1.390 1_545 S
C1335 H1328 0.950 . S
C1335 C1332 1.387 1_545 S
C1336 C1337 1.387 . S
C1336 H1340 0.950 . S
C1336 C1345 1.390 . S
C1337 C1336 1.387 . S
C1337 C1339 1.387 . S
H1338 C1345 0.950 . S
C1339 C1337 1.387 . S
C1339 C1341 1.390 . S
C1339 H1343 0.950 . S
H1340 C1336 0.950 . S
C1341 C1339 1.390 . S
C1341 C1342 1.387 . S
C1341 H1344 0.950 . S
C1342 C1341 1.387 . S
C1342 C1345 1.387 . S
H1343 C1339 0.950 . S
H1344 C1341 0.950 . S
C1345 C1336 1.390 . S
C1345 H1338 0.950 . S
C1345 C1342 1.387 . S
C1346 C1347 1.387 1_556 S
C1346 H1350 0.950 . S
C1346 C1355 1.390 1_556 S
C1347 C1346 1.387 1_554 S
C1347 C1349 1.387 . S
H1348 C1355 0.950 1_556 S
C1349 C1347 1.387 . S
C1349 C1351 1.390 . S
C1349 H1353 0.950 . S
H1350 C1346 0.950 . S
C1351 C1349 1.390 . S
C1351 C1352 1.387 . S
C1351 H1354 0.950 . S
C1352 C1351 1.387 . S
C1352 C1355 1.387 . S
H1353 C1349 0.950 . S
H1354 C1351 0.950 . S
C1355 C1346 1.390 1_554 S
C1355 H1348 0.950 1_554 S
C1355 C1352 1.387 . S
C1356 C1357 1.387 . S
C1356 H1360 0.950 . S
C1356 C1365 1.390 . S
C1357 C1356 1.387 . S
C1357 C1359 1.387 . S
H1358 C1365 0.950 . S
C1359 C1357 1.387 . S
C1359 C1361 1.390 . S
C1359 H1363 0.950 . S
H1360 C1356 0.950 . S
C1361 C1359 1.390 . S
C1361 C1362 1.387 . S
C1361 H1364 0.950 . S
C1362 C1361 1.387 . S
C1362 C1365 1.387 . S
H1363 C1359 0.950 . S
H1364 C1361 0.950 . S
C1365 C1356 1.390 . S
C1365 H1358 0.950 . S
C1365 C1362 1.387 . S
C1366 C1367 1.387 . S
C1366 H1370 0.950 . S
C1366 C1375 1.390 . S
C1367 C1366 1.387 . S
C1367 C1369 1.387 . S
H1368 C1375 0.950 . S
C1369 C1367 1.387 . S
C1369 C1371 1.390 . S
C1369 H1373 0.950 . S
H1370 C1366 0.950 . S
C1371 C1369 1.390 . S
C1371 C1372 1.387 . S
C1371 H1374 0.950 . S
C1372 C1371 1.387 . S
C1372 C1375 1.387 . S
H1373 C1369 0.950 . S
H1374 C1371 0.950 . S
C1375 C1366 1.390 . S
C1375 H1368 0.950 . S
C1375 C1372 1.387 . S
C1376 C1377 1.387 . S
C1376 H1380 0.950 . S
C1376 C1385 1.390 . S
C1377 C1376 1.387 . S
C1377 C1379 1.387 . S
H1378 C1385 0.950 . S
C1379 C1377 1.387 . S
C1379 C1381 1.390 . S
C1379 H1383 0.950 . S
H1380 C1376 0.950 . S
C1381 C1379 1.390 . S
C1381 C1382 1.387 . S
C1381 H1384 0.950 . S
C1382 C1381 1.387 . S
C1382 C1385 1.387 . S
H1383 C1379 0.950 . S
H1384 C1381 0.950 . S
C1385 C1376 1.390 . S
C1385 H1378 0.950 . S
C1385 C1382 1.387 . S
C1386 C1387 1.387 . S
C1386 H1390 0.950 . S
C1386 C1395 1.390 . S
C1387 C1386 1.387 . S
C1387 C1389 1.387 . S
H1388 C1395 0.950 . S
C1389 C1387 1.387 . S
C1389 C1391 1.390 . S
C1389 H1393 0.950 . S
H1390 C1386 0.950 . S
C1391 C1389 1.390 . S
C1391 C1392 1.387 . S
C1391 H1394 0.950 . S
C1392 C1391 1.387 . S
C1392 C1395 1.387 . S
H1393 C1389 0.950 . S
H1394 C1391 0.950 . S
C1395 C1386 1.390 . S
C1395 H1388 0.950 . S
C1395 C1392 1.387 . S
C1396 C1397 1.387 . S
C1396 H1400 0.950 . S
C1396 C1405 1.390 . S
C1397 C1396 1.387 . S
C1397 C1399 1.387 1_455 S
H1398 C1405 0.950 . S
C1399 C1397 1.387 1_655 S
C1399 C1401 1.390 . S
C1399 H1403 0.950 . S
H1400 C1396 0.950 . S
C1401 C1399 1.390 . S
C1401 C1402 1.387 1_655 S
C1401 H1404 0.950 . S
C1402 C1401 1.387 1_455 S
C1402 C1405 1.387 . S
H1403 C1399 0.950 . S
H1404 C1401 0.950 . S
C1405 C1396 1.390 . S
C1405 H1398 0.950 . S
C1405 C1402 1.387 . S
C1406 C1407 1.387 . S
C1406 H1410 0.950 . S
C1406 C1415 1.390 . S
C1407 C1406 1.387 . S
C1407 C1409 1.387 . S
H1408 C1415 0.950 . S
C1409 C1407 1.387 . S
C1409 C1411 1.390 . S
C1409 H1413 0.950 . S
H1410 C1406 0.950 . S
C1411 C1409 1.390 . S
C1411 C1412 1.387 . S
C1411 H1414 0.950 . S
C1412 C1411 1.387 . S
C1412 C1415 1.387 . S
H1413 C1409 0.950 . S
H1414 C1411 0.950 . S
C1415 C1406 1.390 . S
C1415 H1408 0.950 . S
C1415 C1412 1.387 . S
C1416 C1417 1.387 . S
C1416 H1420 0.950 . S
C1416 C1425 1.390 . S
C1417 C1416 1.387 . S
C1417 C1419 1.387 . S
H1418 C1425 0.950 . S
C1419 C1417 1.387 . S
C1419 C1421 1.390 . S
C1419 H1423 0.950 . S
H1420 C1416 0.950 . S
C1421 C1419 1.390 . S
C1421 C1422 1.387 . S
C1421 H1424 0.950 . S
C1422 C1421 1.387 . S
C1422 C1425 1.387 . S
H1423 C1419 0.950 . S
H1424 C1421 0.950 . S
C1425 C1416 1.390 . S
C1425 H1418 0.950 . S
C1425 C1422 1.387 . S
C1426 C1427 1.387 . S
C1426 H1430 0.950 . S
C1426 C1435 1.390 . S
C1427 C1426 1.387 . S
C1427 C1429 1.387 . S
H1428 C1435 0.950 . S
C1429 C1427 1.387 . S
C1429 C1431 1.390 . S
C1429 H1433 0.950 . S
H1430 C1426 0.950 . S
C1431 C1429 1.390 . S
C1431 C1432 1.387 . S
C1431 H1434 0.950 . S
C1432 C1431 1.387 . S
C1432 C1435 1.387 . S
H1433 C1429 0.950 . S
H1434 C1431 0.950 . S
C1435 C1426 1.390 . S
C1435 H1428 0.950 . S
C1435 C1432 1.387 . S
C1436 C1437 1.387 . S
C1436 H1440 0.950 . S
C1436 C1445 1.390 . S
C1437 C1436 1.387 . S
C1437 C1439 1.387 . S
H1438 C1445 0.950 . S
C1439 C1437 1.387 . S
C1439 C1441 1.390 . S
C1439 H1443 0.950 . S
H1440 C1436 0.950 . S
C1441 C1439 1.390 . S
C1441 C1442 1.387 . S
C1441 H1444 0.950 . S
C1442 C1441 1.387 . S
C1442 C1445 1.387 . S
H1443 C1439 0.950 . S
H1444 C1441 0.950 . S
C1445 C1436 1.390 . S
C1445 H1438 0.950 . S
C1445 C1442 1.387 . S
C1446 C1447 1.387 . S
C1446 H1450 0.950 . S
C1446 C1455 1.390 . S
C1447 C1446 1.387 . S
C1447 C1449 1.387 . S
H1448 C1455 0.950 . S
C1449 C1447 1.387 . S
C1449 C1451 1.390 . S
C1449 H1453 0.950 . S
H1450 C1446 0.950 . S
C1451 C1449 1.390 . S
C1451 C1452 1.387 . S
C1451 H1454 0.950 . S
C1452 C1451 1.387 . S
C1452 C1455 1.387 . S
H1453 C1449 0.950 . S
H1454 C1451 0.950 . S
C1455 C1446 1.390 . S
C1455 H1448 0.950 . S
C1455 C1452 1.387 . S
C1456 C1457 1.387 . S
C1456 H1460 0.950 . S
C1456 C1465 1.390 . S
C1457 C1456 1.387 . S
C1457 C1459 1.387 . S
H1458 C1465 0.950 . S
C1459 C1457 1.387 . S
C1459 C1461 1.390 . S
C1459 H1463 0.950 . S
H1460 C1456 0.950 . S
C1461 C1459 1.390 . S
C1461 C1462 1.387 . S
C1461 H1464 0.950 . S
C1462 C1461 1.387 . S
C1462 C1465 1.387 . S
H1463 C1459 0.950 . S
H1464 C1461 0.950 . S
C1465 C1456 1.390 . S
C1465 H1458 0.950 . S
C1465 C1462 1.387 . S
C1466 C1467 1.387 . S
C1466 H1470 0.950 . S
C1466 C1475 1.390 . S
C1467 C1466 1.387 . S
C1467 C1469 1.387 . S
H1468 C1475 0.950 . S
C1469 C1467 1.387 . S
C1469 C1471 1.390 . S
C1469 H1473 0.950 . S
H1470 C1466 0.950 . S
C1471 C1469 1.390 . S
C1471 C1472 1.387 . S
C1471 H1474 0.950 . S
C1472 C1471 1.387 . S
C1472 C1475 1.387 . S
H1473 C1469 0.950 . S
H1474 C1471 0.950 . S
C1475 C1466 1.390 . S
C1475 H1468 0.950 . S
C1475 C1472 1.387 . S
C1476 C1477 1.387 . S
C1476 H1480 0.950 . S
C1476 C1485 1.390 . S
C1477 C1476 1.387 . S
C1477 C1479 1.387 . S
H1478 C1485 0.950 . S
C1479 C1477 1.387 . S
C1479 C1481 1.390 . S
C1479 H1483 0.950 . S
H1480 C1476 0.950 . S
C1481 C1479 1.390 . S
C1481 C1482 1.387 . S
C1481 H1484 0.950 1_655 S
C1482 C1481 1.387 . S
C1482 C1485 1.387 . S
H1483 C1479 0.950 . S
H1484 C1481 0.950 1_455 S
C1485 C1476 1.390 . S
C1485 H1478 0.950 . S
C1485 C1482 1.387 . S
C1486 C1487 1.387 . S
C1486 H1490 0.950 . S
C1486 C1495 1.390 . S
C1487 C1486 1.387 . S
C1487 C1489 1.387 . S
H1488 C1495 0.950 . S
C1489 C1487 1.387 . S
C1489 C1491 1.390 . S
C1489 H1493 0.950 . S
H1490 C1486 0.950 . S
C1491 C1489 1.390 . S
C1491 C1492 1.387 . S
C1491 H1494 0.950 . S
C1492 C1491 1.387 . S
C1492 C1495 1.387 . S
H1493 C1489 0.950 . S
H1494 C1491 0.950 . S
C1495 C1486 1.390 . S
C1495 H1488 0.950 . S
C1495 C1492 1.387 . S
C1496 C1497 1.387 . S
C1496 H1500 0.950 . S
C1496 C1505 1.390 . S
C1497 C1496 1.387 . S
C1497 C1499 1.387 . S
H1498 C1505 0.950 . S
C1499 C1497 1.387 . S
C1499 C1501 1.390 . S
C1499 H1503 0.950 . S
H1500 C1496 0.950 . S
C1501 C1499 1.390 . S
C1501 C1502 1.387 . S
C1501 H1504 0.950 . S
C1502 C1501 1.387 . S
C1502 C1505 1.387 . S
H1503 C1499 0.950 . S
H1504 C1501 0.950 . S
C1505 C1496 1.390 . S
C1505 H1498 0.950 . S
C1505 C1502 1.387 . S
C1506 C1507 1.387 . S
C1506 H1510 0.950 . S
C1506 C1515 1.390 . S
C1507 C1506 1.387 . S
C1507 C1509 1.387 . S
H1508 C1515 0.950 . S
C1509 C1507 1.387 . S
C1509 C1511 1.390 . S
C1509 H1513 0.950 . S
H1510 C1506 0.950 . S
C1511 C1509 1.390 . S
C1511 C1512 1.387 . S
C1511 H1514 0.950 . S
C1512 C1511 1.387 . S
C1512 C1515 1.387 . S
H1513 C1509 0.950 . S
H1514 C1511 0.950 . S
C1515 C1506 1.390 . S
C1515 H1508 0.950 . S
C1515 C1512 1.387 . S
C1516 C1517 1.387 . S
C1516 H1520 0.950 . S
C1516 C1525 1.390 . S
C1517 C1516 1.387 . S
C1517 C1519 1.387 . S
H1518 C1525 0.950 . S
C1519 C1517 1.387 . S
C1519 C1521 1.390 . S
C1519 H1523 0.950 . S
H1520 C1516 0.950 . S
C1521 C1519 1.390 . S
C1521 C1522 1.387 . S
C1521 H1524 0.950 . S
C1522 C1521 1.387 . S
C1522 C1525 1.387 . S
H1523 C1519 0.950 . S
H1524 C1521 0.950 . S
C1525 C1516 1.390 . S
C1525 H1518 0.950 . S
C1525 C1522 1.387 . S
C1526 C1527 1.387 . S
C1526 H1530 0.950 . S
C1526 C1535 1.390 . S
C1527 C1526 1.387 . S
C1527 C1529 1.387 . S
H1528 C1535 0.950 . S
C1529 C1527 1.387 . S
C1529 C1531 1.390 . S
C1529 H1533 0.950 . S
H1530 C1526 0.950 . S
C1531 C1529 1.390 . S
C1531 C1532 1.387 . S
C1531 H1534 0.950 . S
C1532 C1531 1.387 . S
C1532 C1535 1.387 . S
H1533 C1529 0.950 . S
H1534 C1531 0.950 . S
C1535 C1526 1.390 . S
C1535 H1528 0.950 . S
C1535 C1532 1.387 . S
C1536 C1537 1.387 . S
C1536 H1540 0.950 . S
C1536 C1545 1.390 . S
C1537 C1536 1.387 . S
C1537 C1539 1.387 . S
H1538 C1545 0.950 . S
C1539 C1537 1.387 . S
C1539 C1541 1.390 . S
C1539 H1543 0.950 . S
H1540 C1536 0.950 . S
C1541 C1539 1.390 . S
C1541 C1542 1.387 . S
C1541 H1544 0.950 . S
C1542 C1541 1.387 . S
C1542 C1545 1.387 . S
H1543 C1539 0.950 . S
H1544 C1541 0.950 . S
C1545 C1536 1.390 . S
C1545 H1538 0.950 . S
C1545 C1542 1.387 . S
C1546 C1547 1.387 . S
C1546 H1550 0.950 . S
C1546 C1555 1.390 . S
C1547 C1546 1.387 . S
C1547 C1549 1.387 . S
H1548 C1555 0.950 . S
C1549 C1547 1.387 . S
C1549 C1551 1.390 . S
C1549 H1553 0.950 . S
H1550 C1546 0.950 . S
C1551 C1549 1.390 . S
C1551 C1552 1.387 . S
C1551 H1554 0.950 . S
C1552 C1551 1.387 . S
C1552 C1555 1.387 . S
H1553 C1549 0.950 . S
H1554 C1551 0.950 . S
C1555 C1546 1.390 . S
C1555 H1548 0.950 . S
C1555 C1552 1.387 . S
C1556 C1557 1.387 . S
C1556 H1560 0.950 . S
C1556 C1565 1.390 . S
C1557 C1556 1.387 . S
C1557 C1559 1.387 . S
H1558 C1565 0.950 . S
C1559 C1557 1.387 . S
C1559 C1561 1.390 . S
C1559 H1563 0.950 . S
H1560 C1556 0.950 . S
C1561 C1559 1.390 . S
C1561 C1562 1.387 . S
C1561 H1564 0.950 . S
C1562 C1561 1.387 . S
C1562 C1565 1.387 . S
H1563 C1559 0.950 . S
H1564 C1561 0.950 . S
C1565 C1556 1.390 . S
C1565 H1558 0.950 . S
C1565 C1562 1.387 . S
C1566 C1567 1.387 . S
C1566 H1570 0.950 . S
C1566 C1575 1.390 . S
C1567 C1566 1.387 . S
C1567 C1569 1.387 1_554 S
H1568 C1575 0.950 . S
C1569 C1567 1.387 1_556 S
C1569 C1571 1.390 . S
C1569 H1573 0.950 . S
H1570 C1566 0.950 . S
C1571 C1569 1.390 . S
C1571 C1572 1.387 1_556 S
C1571 H1574 0.950 . S
C1572 C1571 1.387 1_554 S
C1572 C1575 1.387 . S
H1573 C1569 0.950 . S
H1574 C1571 0.950 . S
C1575 C1566 1.390 . S
C1575 H1568 0.950 . S
C1575 C1572 1.387 . S
C1576 C1577 1.387 . S
C1576 H1580 0.950 . S
C1576 C1585 1.390 . S
C1577 C1576 1.387 . S
C1577 C1579 1.387 . S
H1578 C1585 0.950 . S
C1579 C1577 1.387 . S
C1579 C1581 1.390 . S
C1579 H1583 0.950 . S
H1580 C1576 0.950 . S
C1581 C1579 1.390 . S
C1581 C1582 1.387 . S
C1581 H1584 0.950 . S
C1582 C1581 1.387 . S
C1582 C1585 1.387 . S
H1583 C1579 0.950 . S
H1584 C1581 0.950 . S
C1585 C1576 1.390 . S
C1585 H1578 0.950 . S
C1585 C1582 1.387 . S
C1586 C1587 1.387 1_556 S
C1586 H1590 0.950 . S
C1586 C1595 1.390 . S
C1587 C1586 1.387 1_554 S
C1587 C1589 1.387 . S
H1588 C1595 0.950 . S
C1589 C1587 1.387 . S
C1589 C1591 1.390 . S
C1589 H1593 0.950 . S
H1590 C1586 0.950 . S
C1591 C1589 1.390 . S
C1591 C1592 1.387 1_554 S
C1591 H1594 0.950 . S
C1592 C1591 1.387 1_556 S
C1592 C1595 1.387 . S
H1593 C1589 0.950 . S
H1594 C1591 0.950 . S
C1595 C1586 1.390 . S
C1595 H1588 0.950 . S
C1595 C1592 1.387 . S
C1596 C1597 1.387 . S
C1596 H1600 0.950 . S
C1596 C1605 1.390 . S
C1597 C1596 1.387 . S
C1597 C1599 1.387 . S
H1598 C1605 0.950 . S
C1599 C1597 1.387 . S
C1599 C1601 1.390 . S
C1599 H1603 0.950 . S
H1600 C1596 0.950 . S
C1601 C1599 1.390 . S
C1601 C1602 1.387 . S
C1601 H1604 0.950 . S
C1602 C1601 1.387 . S
C1602 C1605 1.387 . S
H1603 C1599 0.950 . S
H1604 C1601 0.950 . S
C1605 C1596 1.390 . S
C1605 H1598 0.950 . S
C1605 C1602 1.387 . S
C1606 C1607 1.387 . S
C1606 H1610 0.950 . S
C1606 C1615 1.390 . S
C1607 C1606 1.387 . S
C1607 C1609 1.387 . S
H1608 C1615 0.950 . S
C1609 C1607 1.387 . S
C1609 C1611 1.390 . S
C1609 H1613 0.950 . S
H1610 C1606 0.950 . S
C1611 C1609 1.390 . S
C1611 C1612 1.387 . S
C1611 H1614 0.950 . S
C1612 C1611 1.387 . S
C1612 C1615 1.387 . S
H1613 C1609 0.950 . S
H1614 C1611 0.950 . S
C1615 C1606 1.390 . S
C1615 H1608 0.950 . S
C1615 C1612 1.387 . S
C657 C109 1.235 . S
C662 C352 1.205 . S
C667 C61 1.204 . S
C672 C365 1.374 . S
C677 C74 1.365 . S
C682 C384 1.424 . S
C692 C415 1.851 . S
C687 C96 1.913 . S
C697 C25 1.612 1_455 S
C702 C435 1.575 . S
C712 C452 0.967 . S
C707 C40 0.969 . S
C722 C465 1.495 . S
C717 C46 1.496 . S
C727 C5 0.895 . S
C732 C492 1.055 . S
C742 C345 1.168 . S
C737 C229 1.003 . S
C747 C249 1.603 . S
C752 C375 1.528 . S
C762 C377 1.587 . S
C757 C271 1.498 1_545 S
C772 C412 1.073 . S
C767 C172 1.023 . S
C777 C236 1.185 . S
C782 C432 1.194 . S
C792 C445 1.888 . S
C787 C242 1.897 . S
C802 C475 1.316 . S
C797 C278 1.354 . S
C812 C485 1.292 . S
C807 C179 1.323 . S
C822 C355 1.607 1_565 S
C817 C159 1.346 . S
C827 C285 1.464 . S
C832 C505 1.620 1_556 S
C842 C535 1.510 . S
C837 C333 1.543 . S
C852 C552 1.247 . S
C847 C320 1.261 . S
C857 C123 1.763 . S
C862 C495 1.741 . S
C867 C138 1.354 . S
C872 C382 1.275 . S
C877 C326 1.915 . S
C882 C565 1.901 . S
C892 C592 1.140 . S
C887 C298 1.114 . S
C902 C342 1.232 . S
C897 C67 1.248 . S
C912 C577 1.352 . S
C907 C110 1.381 . S
C917 C88 1.428 . S
C922 C395 1.414 . S
C927 C75 1.557 . S
C932 C564 1.795 . S
C942 C424 1.547 1_455 S
C937 C11 1.573 . S
C947 C47 0.910 . S
C952 C522 0.980 . S
C962 C457 1.444 . S
C957 C32 1.393 . S
C972 C602 1.128 . S
C967 C26 1.166 . S
C982 C337 1.274 1_565 S
C977 C152 1.305 . S
C992 C584 1.525 . S
C987 C319 1.518 . S
C997 C124 1.634 . S
C1002 C385 1.588 . S
C1007 C284 1.087 . S
C1012 C562 1.078 . S
C1017 C145 1.083 . S
C1022 C422 1.171 . S
C1032 C517 1.815 . S
C1027 C312 1.729 . S
C1037 C117 1.139 . S
C1042 C464 1.206 . S
C1047 C291 1.249 . S
C1052 C597 1.224 . S
C1057 C194 1.668 . S
C1062 C344 1.644 . S
C1067 C180 1.632 . S
C1072 C497 1.613 . S
C1077 C263 1.398 . S
C1082 C444 1.410 . S
C1087 C243 1.072 . S
C1092 C542 1.188 . S
C1102 C604 1.790 . S
C1097 C277 1.783 . S
C1107 C215 1.207 . S
C1112 C392 1.235 . S
C1122 C397 1.830 . S
C1117 C256 1.772 . S
C1132 C362 1.202 . S
C1127 C200 1.230 . S
C1137 C81 1.234 . S
C1142 C632 1.204 . S
C1152 C585 1.375 . S
C1147 C89 1.201 . S
C1157 C102 1.365 . S
C1162 C644 1.424 1_455 S
C1167 C68 1.912 . S
C1172 C575 1.849 . S
C1177 C53 1.613 . S
C1182 C515 1.575 . S
C1192 C532 0.965 . S
C1187 C12 0.970 . S
C1202 C545 1.495 1_655 S
C1197 C18 1.496 . S
C1212 C612 1.055 . S
C1207 C33 0.895 . S
C1222 C625 1.167 . S
C1217 C257 1.007 . S
C1227 C193 1.603 . S
C1232 C595 1.527 . S
C1242 C637 1.589 . S
C1237 C201 1.497 . S
C1252 C572 1.072 . S
C1247 C214 1.029 . S
C1262 C512 1.193 . S
C1257 C264 1.186 . S
C1267 C186 1.898 . S
C1272 C525 1.889 . S
C1282 C555 1.313 . S
C1277 C208 1.354 . S
C1287 C221 1.323 . S
C1292 C605 1.291 . S
C1302 C635 1.606 . S
C1297 C313 1.345 . S
C1307 C131 1.462 . S
C1312 C425 1.624 . S
C1322 C455 1.508 . S
C1317 C151 1.547 . S
C1332 C472 1.248 . S
C1327 C166 1.262 . S
C1342 C615 1.739 . S
C1337 C305 1.763 . S
C1347 C292 1.354 . S
C1352 C642 1.276 . S
C1362 C405 1.902 . S
C1357 C144 1.912 . S
C1372 C372 1.144 . S
C1367 C116 1.094 1_565 S
C1377 C95 1.248 . S
C1382 C622 1.219 . S
C1392 C357 1.354 . S
C1387 C82 1.382 . S
C1397 C60 1.428 1_455 S
C1402 C655 1.413 . S
C1407 C103 1.556 . S
C1412 C404 1.794 . S
C1417 C39 1.572 . S
C1422 C504 1.546 1_556 S
C1432 C442 0.981 . S
C1427 C19 0.913 . S
C1437 C4 1.396 . S
C1442 C537 1.443 . S
C1447 C54 1.166 . S
C1452 C482 1.128 . S
C1462 C617 1.274 . S
C1457 C334 1.306 . S
C1467 C165 1.517 . S
C1472 C364 1.523 . S
C1482 C645 1.590 . S
C1477 C306 1.634 . S
C1487 C130 1.086 . S
C1492 C402 1.077 . S
C1497 C327 1.084 . S
C1502 C502 1.173 . S
C1512 C437 1.814 . S
C1507 C158 1.732 . S
C1517 C299 1.144 . S
C1522 C544 1.202 . S
C1532 C477 1.224 . S
C1527 C137 1.250 . S
C1542 C624 1.643 . S
C1537 C250 1.669 . S
C1552 C417 1.614 1_565 S
C1547 C222 1.633 . S
C1557 C235 1.399 . S
C1562 C524 1.413 . S
C1572 C462 1.189 . S
C1567 C187 1.073 1_554 S
C1577 C207 1.784 . S
C1582 C484 1.788 . S
C1587 C173 1.207 . S
C1592 C652 1.236 . S
C1602 C557 1.831 . S
C1597 C228 1.773 1_565 S
C1612 C582 1.199 . S
C1607 C270 1.228 . S
