# Generated by pormake.
# Topology gar, (4,6)-cn, num edge types: 1
# Building blocks:
#     Node 0, Type 0, BuildingBlock: TATPOV_clean_sbu_0, # of connection points: 4
#     Node 1, Type 0, BuildingBlock: TATPOV_clean_sbu_0, # of connection points: 4
#     Node 2, Type 0, BuildingBlock: TATPOV_clean_sbu_0, # of connection points: 4
#     Node 3, Type 0, BuildingBlock: TATPOV_clean_sbu_0, # of connection points: 4
#     Node 4, Type 0, BuildingBlock: TATPOV_clean_sbu_0, # of connection points: 4
#     Node 5, Type 0, BuildingBlock: TATPOV_clean_sbu_0, # of connection points: 4
#     Node 6, Type 0, BuildingBlock: TATPOV_clean_sbu_0, # of connection points: 4
#     Node 7, Type 0, BuildingBlock: TATPOV_clean_sbu_0, # of connection points: 4
#     Node 8, Type 0, BuildingBlock: TATPOV_clean_sbu_0, # of connection points: 4
#     Node 9, Type 0, BuildingBlock: TATPOV_clean_sbu_0, # of connection points: 4
#     Node 10, Type 0, BuildingBlock: TATPOV_clean_sbu_0, # of connection points: 4
#     Node 11, Type 0, BuildingBlock: TATPOV_clean_sbu_0, # of connection points: 4
#     Node 12, Type 0, BuildingBlock: TATPOV_clean_sbu_0, # of connection points: 4
#     Node 13, Type 0, BuildingBlock: TATPOV_clean_sbu_0, # of connection points: 4
#     Node 14, Type 0, BuildingBlock: TATPOV_clean_sbu_0, # of connection points: 4
#     Node 15, Type 0, BuildingBlock: TATPOV_clean_sbu_0, # of connection points: 4
#     Node 16, Type 0, BuildingBlock: TATPOV_clean_sbu_0, # of connection points: 4
#     Node 17, Type 0, BuildingBlock: TATPOV_clean_sbu_0, # of connection points: 4
#     Node 18, Type 0, BuildingBlock: TATPOV_clean_sbu_0, # of connection points: 4
#     Node 19, Type 0, BuildingBlock: TATPOV_clean_sbu_0, # of connection points: 4
#     Node 20, Type 0, BuildingBlock: TATPOV_clean_sbu_0, # of connection points: 4
#     Node 21, Type 0, BuildingBlock: TATPOV_clean_sbu_0, # of connection points: 4
#     Node 22, Type 0, BuildingBlock: TATPOV_clean_sbu_0, # of connection points: 4
#     Node 23, Type 0, BuildingBlock: TATPOV_clean_sbu_0, # of connection points: 4
#     Node 24, Type 1, BuildingBlock: BETGAK_clean_sbu_0, # of connection points: 6
#     Node 25, Type 1, BuildingBlock: BETGAK_clean_sbu_0, # of connection points: 6
#     Node 26, Type 1, BuildingBlock: BETGAK_clean_sbu_0, # of connection points: 6
#     Node 27, Type 1, BuildingBlock: BETGAK_clean_sbu_0, # of connection points: 6
#     Node 28, Type 1, BuildingBlock: BETGAK_clean_sbu_0, # of connection points: 6
#     Node 29, Type 1, BuildingBlock: BETGAK_clean_sbu_0, # of connection points: 6
#     Node 30, Type 1, BuildingBlock: BETGAK_clean_sbu_0, # of connection points: 6
#     Node 31, Type 1, BuildingBlock: BETGAK_clean_sbu_0, # of connection points: 6
#     Node 32, Type 1, BuildingBlock: BETGAK_clean_sbu_0, # of connection points: 6
#     Node 33, Type 1, BuildingBlock: BETGAK_clean_sbu_0, # of connection points: 6
#     Node 34, Type 1, BuildingBlock: BETGAK_clean_sbu_0, # of connection points: 6
#     Node 35, Type 1, BuildingBlock: BETGAK_clean_sbu_0, # of connection points: 6
#     Node 36, Type 1, BuildingBlock: BETGAK_clean_sbu_0, # of connection points: 6
#     Node 37, Type 1, BuildingBlock: BETGAK_clean_sbu_0, # of connection points: 6
#     Node 38, Type 1, BuildingBlock: BETGAK_clean_sbu_0, # of connection points: 6
#     Node 39, Type 1, BuildingBlock: BETGAK_clean_sbu_0, # of connection points: 6
#     Edge 40, Type (0, 1), BuildingBlock: KIFKEQ_clean_linker_1, # of connection points: 2
#     Edge 41, Type (0, 1), BuildingBlock: KIFKEQ_clean_linker_1, # of connection points: 2
#     Edge 42, Type (0, 1), BuildingBlock: KIFKEQ_clean_linker_1, # of connection points: 2
#     Edge 43, Type (0, 1), BuildingBlock: KIFKEQ_clean_linker_1, # of connection points: 2
#     Edge 44, Type (0, 1), BuildingBlock: KIFKEQ_clean_linker_1, # of connection points: 2
#     Edge 45, Type (0, 1), BuildingBlock: KIFKEQ_clean_linker_1, # of connection points: 2
#     Edge 46, Type (0, 1), BuildingBlock: KIFKEQ_clean_linker_1, # of connection points: 2
#     Edge 47, Type (0, 1), BuildingBlock: KIFKEQ_clean_linker_1, # of connection points: 2
#     Edge 48, Type (0, 1), BuildingBlock: KIFKEQ_clean_linker_1, # of connection points: 2
#     Edge 49, Type (0, 1), BuildingBlock: KIFKEQ_clean_linker_1, # of connection points: 2
#     Edge 50, Type (0, 1), BuildingBlock: KIFKEQ_clean_linker_1, # of connection points: 2
#     Edge 51, Type (0, 1), BuildingBlock: KIFKEQ_clean_linker_1, # of connection points: 2
#     Edge 52, Type (0, 1), BuildingBlock: KIFKEQ_clean_linker_1, # of connection points: 2
#     Edge 53, Type (0, 1), BuildingBlock: KIFKEQ_clean_linker_1, # of connection points: 2
#     Edge 54, Type (0, 1), BuildingBlock: KIFKEQ_clean_linker_1, # of connection points: 2
#     Edge 55, Type (0, 1), BuildingBlock: KIFKEQ_clean_linker_1, # of connection points: 2
#     Edge 56, Type (0, 1), BuildingBlock: KIFKEQ_clean_linker_1, # of connection points: 2
#     Edge 57, Type (0, 1), BuildingBlock: KIFKEQ_clean_linker_1, # of connection points: 2
#     Edge 58, Type (0, 1), BuildingBlock: KIFKEQ_clean_linker_1, # of connection points: 2
#     Edge 59, Type (0, 1), BuildingBlock: KIFKEQ_clean_linker_1, # of connection points: 2
#     Edge 60, Type (0, 1), BuildingBlock: KIFKEQ_clean_linker_1, # of connection points: 2
#     Edge 61, Type (0, 1), BuildingBlock: KIFKEQ_clean_linker_1, # of connection points: 2
#     Edge 62, Type (0, 1), BuildingBlock: KIFKEQ_clean_linker_1, # of connection points: 2
#     Edge 63, Type (0, 1), BuildingBlock: KIFKEQ_clean_linker_1, # of connection points: 2
#     Edge 64, Type (0, 1), BuildingBlock: KIFKEQ_clean_linker_1, # of connection points: 2
#     Edge 65, Type (0, 1), BuildingBlock: KIFKEQ_clean_linker_1, # of connection points: 2
#     Edge 66, Type (0, 1), BuildingBlock: KIFKEQ_clean_linker_1, # of connection points: 2
#     Edge 67, Type (0, 1), BuildingBlock: KIFKEQ_clean_linker_1, # of connection points: 2
#     Edge 68, Type (0, 1), BuildingBlock: KIFKEQ_clean_linker_1, # of connection points: 2
#     Edge 69, Type (0, 1), BuildingBlock: KIFKEQ_clean_linker_1, # of connection points: 2
#     Edge 70, Type (0, 1), BuildingBlock: KIFKEQ_clean_linker_1, # of connection points: 2
#     Edge 71, Type (0, 1), BuildingBlock: KIFKEQ_clean_linker_1, # of connection points: 2
#     Edge 72, Type (0, 1), BuildingBlock: KIFKEQ_clean_linker_1, # of connection points: 2
#     Edge 73, Type (0, 1), BuildingBlock: KIFKEQ_clean_linker_1, # of connection points: 2
#     Edge 74, Type (0, 1), BuildingBlock: KIFKEQ_clean_linker_1, # of connection points: 2
#     Edge 75, Type (0, 1), BuildingBlock: KIFKEQ_clean_linker_1, # of connection points: 2
#     Edge 76, Type (0, 1), BuildingBlock: KIFKEQ_clean_linker_1, # of connection points: 2
#     Edge 77, Type (0, 1), BuildingBlock: KIFKEQ_clean_linker_1, # of connection points: 2
#     Edge 78, Type (0, 1), BuildingBlock: KIFKEQ_clean_linker_1, # of connection points: 2
#     Edge 79, Type (0, 1), BuildingBlock: KIFKEQ_clean_linker_1, # of connection points: 2
#     Edge 80, Type (0, 1), BuildingBlock: KIFKEQ_clean_linker_1, # of connection points: 2
#     Edge 81, Type (0, 1), BuildingBlock: KIFKEQ_clean_linker_1, # of connection points: 2
#     Edge 82, Type (0, 1), BuildingBlock: KIFKEQ_clean_linker_1, # of connection points: 2
#     Edge 83, Type (0, 1), BuildingBlock: KIFKEQ_clean_linker_1, # of connection points: 2
#     Edge 84, Type (0, 1), BuildingBlock: KIFKEQ_clean_linker_1, # of connection points: 2
#     Edge 85, Type (0, 1), BuildingBlock: KIFKEQ_clean_linker_1, # of connection points: 2
#     Edge 86, Type (0, 1), BuildingBlock: KIFKEQ_clean_linker_1, # of connection points: 2
#     Edge 87, Type (0, 1), BuildingBlock: KIFKEQ_clean_linker_1, # of connection points: 2
#     Edge 88, Type (0, 1), BuildingBlock: KIFKEQ_clean_linker_1, # of connection points: 2
#     Edge 89, Type (0, 1), BuildingBlock: KIFKEQ_clean_linker_1, # of connection points: 2
#     Edge 90, Type (0, 1), BuildingBlock: KIFKEQ_clean_linker_1, # of connection points: 2
#     Edge 91, Type (0, 1), BuildingBlock: KIFKEQ_clean_linker_1, # of connection points: 2
#     Edge 92, Type (0, 1), BuildingBlock: KIFKEQ_clean_linker_1, # of connection points: 2
#     Edge 93, Type (0, 1), BuildingBlock: KIFKEQ_clean_linker_1, # of connection points: 2
#     Edge 94, Type (0, 1), BuildingBlock: KIFKEQ_clean_linker_1, # of connection points: 2
#     Edge 95, Type (0, 1), BuildingBlock: KIFKEQ_clean_linker_1, # of connection points: 2
#     Edge 96, Type (0, 1), BuildingBlock: KIFKEQ_clean_linker_1, # of connection points: 2
#     Edge 97, Type (0, 1), BuildingBlock: KIFKEQ_clean_linker_1, # of connection points: 2
#     Edge 98, Type (0, 1), BuildingBlock: KIFKEQ_clean_linker_1, # of connection points: 2
#     Edge 99, Type (0, 1), BuildingBlock: KIFKEQ_clean_linker_1, # of connection points: 2
#     Edge 100, Type (0, 1), BuildingBlock: KIFKEQ_clean_linker_1, # of connection points: 2
#     Edge 101, Type (0, 1), BuildingBlock: KIFKEQ_clean_linker_1, # of connection points: 2
#     Edge 102, Type (0, 1), BuildingBlock: KIFKEQ_clean_linker_1, # of connection points: 2
#     Edge 103, Type (0, 1), BuildingBlock: KIFKEQ_clean_linker_1, # of connection points: 2
#     Edge 104, Type (0, 1), BuildingBlock: KIFKEQ_clean_linker_1, # of connection points: 2
#     Edge 105, Type (0, 1), BuildingBlock: KIFKEQ_clean_linker_1, # of connection points: 2
#     Edge 106, Type (0, 1), BuildingBlock: KIFKEQ_clean_linker_1, # of connection points: 2
#     Edge 107, Type (0, 1), BuildingBlock: KIFKEQ_clean_linker_1, # of connection points: 2
#     Edge 108, Type (0, 1), BuildingBlock: KIFKEQ_clean_linker_1, # of connection points: 2
#     Edge 109, Type (0, 1), BuildingBlock: KIFKEQ_clean_linker_1, # of connection points: 2
#     Edge 110, Type (0, 1), BuildingBlock: KIFKEQ_clean_linker_1, # of connection points: 2
#     Edge 111, Type (0, 1), BuildingBlock: KIFKEQ_clean_linker_1, # of connection points: 2
#     Edge 112, Type (0, 1), BuildingBlock: KIFKEQ_clean_linker_1, # of connection points: 2
#     Edge 113, Type (0, 1), BuildingBlock: KIFKEQ_clean_linker_1, # of connection points: 2
#     Edge 114, Type (0, 1), BuildingBlock: KIFKEQ_clean_linker_1, # of connection points: 2
#     Edge 115, Type (0, 1), BuildingBlock: KIFKEQ_clean_linker_1, # of connection points: 2
#     Edge 116, Type (0, 1), BuildingBlock: KIFKEQ_clean_linker_1, # of connection points: 2
#     Edge 117, Type (0, 1), BuildingBlock: KIFKEQ_clean_linker_1, # of connection points: 2
#     Edge 118, Type (0, 1), BuildingBlock: KIFKEQ_clean_linker_1, # of connection points: 2
#     Edge 119, Type (0, 1), BuildingBlock: KIFKEQ_clean_linker_1, # of connection points: 2
#     Edge 120, Type (0, 1), BuildingBlock: KIFKEQ_clean_linker_1, # of connection points: 2
#     Edge 121, Type (0, 1), BuildingBlock: KIFKEQ_clean_linker_1, # of connection points: 2
#     Edge 122, Type (0, 1), BuildingBlock: KIFKEQ_clean_linker_1, # of connection points: 2
#     Edge 123, Type (0, 1), BuildingBlock: KIFKEQ_clean_linker_1, # of connection points: 2
#     Edge 124, Type (0, 1), BuildingBlock: KIFKEQ_clean_linker_1, # of connection points: 2
#     Edge 125, Type (0, 1), BuildingBlock: KIFKEQ_clean_linker_1, # of connection points: 2
#     Edge 126, Type (0, 1), BuildingBlock: KIFKEQ_clean_linker_1, # of connection points: 2
#     Edge 127, Type (0, 1), BuildingBlock: KIFKEQ_clean_linker_1, # of connection points: 2
#     Edge 128, Type (0, 1), BuildingBlock: KIFKEQ_clean_linker_1, # of connection points: 2
#     Edge 129, Type (0, 1), BuildingBlock: KIFKEQ_clean_linker_1, # of connection points: 2
#     Edge 130, Type (0, 1), BuildingBlock: KIFKEQ_clean_linker_1, # of connection points: 2
#     Edge 131, Type (0, 1), BuildingBlock: KIFKEQ_clean_linker_1, # of connection points: 2
#     Edge 132, Type (0, 1), BuildingBlock: KIFKEQ_clean_linker_1, # of connection points: 2
#     Edge 133, Type (0, 1), BuildingBlock: KIFKEQ_clean_linker_1, # of connection points: 2
#     Edge 134, Type (0, 1), BuildingBlock: KIFKEQ_clean_linker_1, # of connection points: 2
#     Edge 135, Type (0, 1), BuildingBlock: KIFKEQ_clean_linker_1, # of connection points: 2
# Relax obj value: 0.213
# Max RMSD: 0.315
# Mean RMSD: 0.177
data_MOF--net-gar--node1-TATPOV_clean_sbu_0--node2-BETGAK_clean_sbu_0--edge1-KIFKEQ_clean_linker_1
_symmetry_space_group_name_H-M    P1
_symmetry_Int_Tables_number       1
_symmetry_cell_setting            triclinic
loop_
_symmetry_equiv_pos_as_xyz
'x, y, z'
_cell_length_a     63.369237
_cell_length_b     58.143364
_cell_length_c     58.488339
_cell_angle_alpha  99.420884
_cell_angle_beta   95.936667
_cell_angle_gamma 104.87833
loop_
_atom_site_label
_atom_site_type_symbol
_atom_site_fract_x
_atom_site_fract_y
_atom_site_fract_z
_atom_type_partial_charge
Zn0 Zn 0.08967 0.33485 0.41353 0.0
Zn1 Zn 0.1207 0.3387 0.39473 0.0
O2 O 0.12795 0.37307 0.41556 0.0
O3 O 0.09302 0.36999 0.41824 0.0
O4 O 0.14684 0.33638 0.37932 0.0
O5 O 0.09945 0.3205 0.43968 0.0
O6 O 0.11571 0.30893 0.41036 0.0
C7 C 0.11273 0.38285 0.42058 0.0
C8 C 0.07604 0.32154 0.36708 0.0
O9 O 0.09559 0.33486 0.36823 0.0
O10 O 0.07035 0.31326 0.38485 0.0
C11 C 0.14916 0.34219 0.35958 0.0
O12 O 0.13508 0.35221 0.34991 0.0
C13 C 0.10882 0.30592 0.4296 0.0
Zn14 Zn 0.99899 0.71847 0.68151 0.0
Zn15 Zn 1.00097 0.75088 0.65444 0.0
O16 O 0.97517 0.75359 0.6717 0.0
O17 O 0.97231 0.72438 0.69192 0.0
O18 O 1.00411 0.77662 0.63541 0.0
O19 O 0.02801 0.73741 0.7002 0.0
O20 O 0.03083 0.762 0.67509 0.0
C21 C 0.96578 0.7416 0.68598 0.0
C22 C 0.99698 0.69836 0.63364 0.0
O23 O 0.99736 0.71971 0.6309 0.0
O24 O 0.99746 0.69325 0.65383 0.0
C25 C 0.01822 0.77748 0.62144 0.0
O26 O 0.02866 0.76062 0.61901 0.0
C27 C 0.03892 0.75545 0.6929 0.0
Zn28 Zn 0.59219 0.8393 0.92118 0.0
Zn29 Zn 0.61959 0.83837 0.89438 0.0
O30 O 0.62751 0.87496 0.90955 0.0
O31 O 0.60066 0.87439 0.9307 0.0
O32 O 0.6443 0.83487 0.87698 0.0
O33 O 0.60091 0.82015 0.94304 0.0
O34 O 0.61741 0.81078 0.91308 0.0
C35 C 0.61726 0.88602 0.92315 0.0
C36 C 0.57275 0.82267 0.87287 0.0
O37 O 0.59265 0.82968 0.8694 0.0
O38 O 0.56834 0.82329 0.89355 0.0
C39 C 0.64565 0.84022 0.85691 0.0
O40 O 0.63094 0.84968 0.84758 0.0
C41 C 0.61073 0.80655 0.93218 0.0
Zn42 Zn 0.49516 0.21382 0.1782 0.0
Zn43 Zn 0.50274 0.24905 0.15254 0.0
O44 O 0.47658 0.25409 0.16797 0.0
O45 O 0.46754 0.22196 0.18428 0.0
O46 O 0.51126 0.27529 0.13468 0.0
O47 O 0.52391 0.23121 0.19964 0.0
O48 O 0.53073 0.25564 0.17455 0.0
C49 C 0.46386 0.241 0.17916 0.0
C50 C 0.49602 0.19697 0.12943 0.0
O51 O 0.49779 0.21891 0.12795 0.0
O52 O 0.49512 0.19046 0.14901 0.0
C53 C 0.49926 0.28837 0.12885 0.0
O54 O 0.47927 0.2847 0.13441 0.0
C55 C 0.53674 0.24831 0.19271 0.0
Zn56 Zn 0.12874 0.82245 0.09831 0.0
Zn57 Zn 0.09542 0.81344 0.12145 0.0
O58 O 0.09233 0.84407 0.10651 0.0
O59 O 0.11952 0.84975 0.08578 0.0
O60 O 0.06772 0.80555 0.13745 0.0
O61 O 0.11897 0.78719 0.08047 0.0
O62 O 0.0895 0.78091 0.09793 0.0
C63 C 0.10298 0.85579 0.09254 0.0
C64 C 0.14454 0.82332 0.14607 0.0
O65 O 0.12367 0.81658 0.14673 0.0
O66 O 0.15126 0.82938 0.12768 0.0
C67 C 0.06499 0.81685 0.15697 0.0
O68 O 0.08122 0.83521 0.16885 0.0
C69 C 0.10115 0.77301 0.0837 0.0
Zn70 Zn 0.4887 0.76015 0.44323 0.0
Zn71 Zn 0.51959 0.76748 0.41695 0.0
O72 O 0.52792 0.80074 0.43991 0.0
O73 O 0.50118 0.79481 0.4613 0.0
O74 O 0.54562 0.77069 0.39782 0.0
O75 O 0.49693 0.73244 0.45536 0.0
O76 O 0.52249 0.73715 0.4326 0.0
C77 C 0.51809 0.80882 0.45608 0.0
C78 C 0.46958 0.7609 0.39711 0.0
O79 O 0.49004 0.76609 0.39437 0.0
O80 O 0.46418 0.75503 0.41606 0.0
C81 C 0.5569 0.79045 0.39308 0.0
O82 O 0.55086 0.81033 0.39898 0.0
C83 C 0.51285 0.72599 0.44751 0.0
Zn84 Zn 0.62358 0.31876 0.59482 0.0
Zn85 Zn 0.59382 0.31368 0.62278 0.0
O86 O 0.59045 0.3437 0.60681 0.0
O87 O 0.6169 0.34844 0.58508 0.0
O88 O 0.56637 0.30648 0.63954 0.0
O89 O 0.61044 0.28504 0.57474 0.0
O90 O 0.58822 0.27979 0.60105 0.0
C91 C 0.60097 0.35519 0.5926 0.0
C92 C 0.64258 0.32006 0.6431 0.0
O93 O 0.62282 0.31865 0.6473 0.0
O94 O 0.64685 0.32108 0.62251 0.0
C95 C 0.56288 0.31932 0.65783 0.0
O96 O 0.57828 0.33918 0.66826 0.0
C97 C 0.59567 0.27114 0.58309 0.0
Zn98 Zn 0.98981 0.26039 0.9423 0.0
Zn99 Zn 0.01959 0.26743 0.91477 0.0
O100 O 0.0277 0.3009 0.93758 0.0
O101 O 1.00283 0.29464 0.96113 0.0
O102 O 0.04492 0.27175 0.89415 0.0
O103 O 0.99769 0.23196 0.95312 0.0
O104 O 0.02354 0.2373 0.93071 0.0
C105 C 0.01891 0.30884 0.95477 0.0
C106 C 0.96883 0.26127 0.89703 0.0
O107 O 0.98899 0.26542 0.89316 0.0
O108 O 0.96437 0.2563 0.91659 0.0
C109 C 0.06475 0.28355 0.90347 0.0
O110 O 0.06856 0.29321 0.92596 0.0
C111 C 0.01377 0.22578 0.94537 0.0
Zn112 Zn 0.4823 0.01644 0.29026 0.0
Zn113 Zn 0.4521 0.04361 0.29205 0.0
O114 O 0.46766 0.05311 0.32462 0.0
O115 O 0.49334 0.0336 0.32349 0.0
O116 O 0.4309 0.06274 0.2914 0.0
O117 O 0.49196 0.03137 0.26335 0.0
O118 O 0.46713 0.0517 0.26529 0.0
C119 C 0.48393 0.04773 0.33447 0.0
C120 C 0.43639 0.98923 0.28047 0.0
O121 O 0.43327 0.01005 0.28423 0.0
O122 O 0.45573 0.98671 0.2826 0.0
C123 C 0.41595 0.05663 0.27364 0.0
O124 O 0.41464 0.03738 0.25766 0.0
C125 C 0.48146 0.04457 0.25483 0.0
Zn126 Zn 0.26737 0.22157 0.50108 0.0
Zn127 Zn 0.29105 0.19208 0.50153 0.0
O128 O 0.29663 0.20754 0.47063 0.0
O129 O 0.27735 0.23407 0.47292 0.0
O130 O 0.31387 0.17256 0.5052 0.0
O131 O 0.27899 0.24093 0.5336 0.0
O132 O 0.2978 0.21428 0.53552 0.0
C133 C 0.29002 0.22402 0.46226 0.0
C134 C 0.24088 0.17186 0.49754 0.0
O135 O 0.2596 0.16722 0.49821 0.0
O136 O 0.24005 0.19344 0.4978 0.0
C137 C 0.32964 0.17325 0.49322 0.0
O138 O 0.33102 0.18594 0.47653 0.0
C139 C 0.29174 0.2323 0.54553 0.0
Zn140 Zn 0.15427 0.04422 0.7799 0.0
Zn141 Zn 0.18058 0.01666 0.77923 0.0
O142 O 0.16262 0.01643 0.81356 0.0
O143 O 0.14103 0.04002 0.80969 0.0
O144 O 0.19785 0.98415 0.77514 0.0
O145 O 0.13532 0.03279 0.74774 0.0
O146 O 0.16051 0.01333 0.74235 0.0
C147 C 0.14814 0.02684 0.82206 0.0
C148 C 0.20008 0.07429 0.78158 0.0
O149 O 0.20489 0.05386 0.7821 0.0
O150 O 0.17999 0.07416 0.78115 0.0
C151 C 0.21338 0.97854 0.78807 0.0
O152 O 0.22215 0.99372 0.80801 0.0
C153 C 0.14404 0.0206 0.73356 0.0
Zn154 Zn 0.35167 0.92105 0.01428 0.0
Zn155 Zn 0.31991 0.93414 0.01176 0.0
O156 O 0.31588 0.91159 0.98004 0.0
O157 O 0.35144 0.91709 0.9801 0.0
O158 O 0.29244 0.94362 0.01447 0.0
O159 O 0.33869 0.89184 0.02722 0.0
O160 O 0.3231 0.91965 0.04063 0.0
C161 C 0.33191 0.90931 0.96925 0.0
C162 C 0.36243 0.97005 0.02804 0.0
O163 O 0.34435 0.96539 0.01427 0.0
O164 O 0.3676 0.95291 0.03589 0.0
C165 C 0.28993 0.96229 0.00737 0.0
O166 O 0.30484 0.97397 0.99618 0.0
C167 C 0.32902 0.90076 0.04268 0.0
Zn168 Zn 0.34845 0.36321 0.04148 0.0
Zn169 Zn 0.32382 0.39063 0.04094 0.0
O170 O 0.3173 0.36907 1.00655 0.0
O171 O 0.33752 0.34382 0.00911 0.0
O172 O 0.29935 0.40871 0.04041 0.0
O173 O 0.34057 0.34966 0.06957 0.0
O174 O 0.31864 0.37336 0.07099 0.0
C175 C 0.32446 0.35177 0.99682 0.0
C176 C 0.37419 0.41234 0.04388 0.0
O177 O 0.35529 0.41667 0.0437 0.0
O178 O 0.3754 0.39098 0.04404 0.0
C179 C 0.29057 0.41392 0.02197 0.0
O180 O 0.29811 0.40893 1.0022 0.0
C181 C 0.3266 0.35788 0.0797 0.0
Zn182 Zn 0.76642 0.15687 0.04499 0.0
Zn183 Zn 0.79736 0.14603 0.03705 0.0
O184 O 0.79151 0.16348 0.01084 0.0
O185 O 0.75578 0.15216 0.0113 0.0
O186 O 0.82447 0.13627 0.03229 0.0
O187 O 0.78271 0.19028 0.06132 0.0
O188 O 0.80433 0.16797 0.06978 0.0
C189 C 0.77186 0.16096 1.00133 0.0
C190 C 0.75888 0.11129 0.04695 0.0
O191 O 0.77237 0.11459 0.03242 0.0
O192 O 0.75875 0.12933 0.06219 0.0
C193 C 0.8245 0.12272 0.01299 0.0
O194 O 0.80676 0.11593 0.997 0.0
C195 C 0.79834 0.18728 0.07454 0.0
Zn196 Zn 0.14548 0.566 0.23383 0.0
Zn197 Zn 0.1705 0.53565 0.24273 0.0
O198 O 0.15237 0.52978 0.26835 0.0
O199 O 0.14705 0.56578 0.26893 0.0
O200 O 0.19097 0.51613 0.24553 0.0
O201 O 0.16747 0.56421 0.21092 0.0
O202 O 0.15467 0.52589 0.20961 0.0
C203 C 0.14793 0.54828 0.27902 0.0
C204 C 0.18679 0.58917 0.26133 0.0
O205 O 0.19105 0.56989 0.25189 0.0
O206 O 0.16682 0.58982 0.26123 0.0
C207 C 0.20082 0.52011 0.26635 0.0
O208 O 0.1965 0.53576 0.2828 0.0
C209 C 0.15951 0.5432 0.19879 0.0
Zn210 Zn 0.84705 0.86158 0.53902 0.0
Zn211 Zn 0.8238 0.89151 0.54062 0.0
O212 O 0.81806 0.87119 0.506 0.0
O213 O 0.83292 0.84112 0.50726 0.0
O214 O 0.7995 0.90963 0.53983 0.0
O215 O 0.84035 0.85022 0.56876 0.0
O216 O 0.81845 0.87399 0.5703 0.0
C217 C 0.82218 0.85205 0.49562 0.0
C218 C 0.8733 0.91187 0.54181 0.0
O219 O 0.8551 0.91711 0.5443 0.0
O220 O 0.87366 0.8899 0.53935 0.0
C221 C 0.79174 0.91552 0.52129 0.0
O222 O 0.80044 0.91134 0.50214 0.0
C223 C 0.82662 0.85873 0.5791 0.0
Zn224 Zn 0.96405 0.03674 0.25859 0.0
Zn225 Zn 0.9406 0.06764 0.26105 0.0
O226 O 0.96078 0.07166 0.29774 0.0
O227 O 0.98054 0.04568 0.29203 0.0
O228 O 0.92403 0.10058 0.2618 0.0
O229 O 0.97918 0.04207 0.22999 0.0
O230 O 0.95888 0.06712 0.22702 0.0
C231 C 0.97482 0.06101 0.30625 0.0
C232 C 0.91839 1.00908 0.2565 0.0
O233 O 0.91544 0.03074 0.25898 0.0
O234 O 0.93761 1.00724 0.25436 0.0
C235 C 0.90887 0.10766 0.27264 0.0
O236 O 0.89989 0.09407 0.28689 0.0
C237 C 0.97287 0.05617 0.21819 0.0
Zn238 Zn 0.27151 0.66729 0.53506 0.0
Zn239 Zn 0.29944 0.64781 0.53723 0.0
O240 O 0.29782 0.66093 0.5072 0.0
O241 O 0.28952 0.69393 0.52141 0.0
O242 O 0.32466 0.63361 0.53616 0.0
O243 O 0.27159 0.67248 0.56928 0.0
O244 O 0.30624 0.67333 0.5675 0.0
C245 C 0.29609 0.68173 0.50521 0.0
C246 C 0.25554 0.61752 0.52143 0.0
O247 O 0.27256 0.61936 0.53587 0.0
O248 O 0.25306 0.63611 0.51417 0.0
C249 C 0.3287 0.62554 0.51605 0.0
O250 O 0.31599 0.62611 0.49709 0.0
C251 C 0.29147 0.67845 0.5789 0.0
Zn252 Zn 0.46233 0.53567 0.75824 0.0
Zn253 Zn 0.44007 0.56814 0.76146 0.0
O254 O 0.46057 0.57152 0.79796 0.0
O255 O 0.48055 0.54603 0.79081 0.0
O256 O 0.42399 0.60153 0.76272 0.0
O257 O 0.47647 0.54052 0.72902 0.0
O258 O 0.4582 0.56765 0.72731 0.0
C259 C 0.47509 0.56102 0.80568 0.0
C260 C 0.41658 0.50974 0.75733 0.0
O261 O 0.41448 0.53172 0.75917 0.0
O262 O 0.43545 0.50666 0.75556 0.0
C263 C 0.408 0.60783 0.7726 0.0
O264 O 0.39776 0.59299 0.78517 0.0
C265 C 0.47129 0.55573 0.71793 0.0
Zn266 Zn 0.6685 0.07872 0.73831 0.0
Zn267 Zn 0.67893 0.04484 0.74252 0.0
O268 O 0.6633 0.05031 0.7707 0.0
O269 O 0.67473 0.08952 0.77282 0.0
O270 O 0.69078 0.0179 0.74645 0.0
O271 O 0.63844 0.0588 0.72324 0.0
O272 O 0.65824 0.03449 0.71193 0.0
C273 C 0.66678 0.07178 0.78213 0.0
C274 C 0.70879 0.08931 0.73207 0.0
O275 O 0.7064 0.0728 0.74409 0.0
O276 O 0.69201 0.09119 0.71966 0.0
C277 C 0.70542 0.02367 0.76441 0.0
O278 O 0.70991 0.04532 0.77781 0.0
C279 C 0.64061 0.04093 0.70919 0.0
Zn280 Zn 0.76769 0.72176 1.00216 0.0
Zn281 Zn 0.79241 0.69361 1.00319 0.0
O282 O 0.79824 0.70913 0.97238 0.0
O283 O 0.77553 0.73203 0.97244 0.0
O284 O 0.81556 0.67464 0.00805 0.0
O285 O 0.7795 0.74301 0.03377 0.0
O286 O 0.79792 0.71616 0.03683 0.0
C287 C 0.78958 0.72356 0.96269 0.0
C288 C 0.74256 0.67224 1.00026 0.0
O289 O 0.76133 0.66791 0.9995 0.0
O290 O 0.74122 0.69372 1.00127 0.0
C291 C 0.83008 0.67238 0.99495 0.0
O292 O 0.83009 0.68158 0.97589 0.0
C293 C 0.79181 0.73438 0.04627 0.0
Zn294 Zn 0.97033 0.5131 0.78197 0.0
Zn295 Zn 0.94794 0.54252 0.78833 0.0
O296 O 0.9661 0.54915 0.82026 0.0
O297 O 0.97714 0.5159 0.81583 0.0
O298 O 0.9301 0.56562 0.78906 0.0
O299 O 0.99163 0.53416 0.7662 0.0
O300 O 0.96195 0.54582 0.75923 0.0
C301 C 0.97524 0.53469 0.8287 0.0
C302 C 0.92526 0.49089 0.7698 0.0
O303 O 0.9251 0.51078 0.78235 0.0
O304 O 0.94316 0.48771 0.76402 0.0
C305 C 0.91515 0.56013 0.77132 0.0
O306 O 0.91332 0.5408 0.75523 0.0
C307 C 0.97978 0.54266 0.75313 0.0
Zn308 Zn 0.84716 0.41671 0.5141 0.0
Zn309 Zn 0.81489 0.42886 0.51055 0.0
O310 O 0.80992 0.40469 0.47991 0.0
O311 O 0.84564 0.41552 0.4796 0.0
O312 O 0.78861 0.44071 0.51308 0.0
O313 O 0.83256 0.38662 0.52434 0.0
O314 O 0.81809 0.41462 0.53986 0.0
C315 C 0.82628 0.40528 0.46888 0.0
C316 C 0.85815 0.46282 0.52529 0.0
O317 O 0.84128 0.45759 0.50974 0.0
O318 O 0.85867 0.44803 0.53869 0.0
C319 C 0.78958 0.46251 0.51196 0.0
O320 O 0.80751 0.47656 0.50681 0.0
C321 C 0.82434 0.39574 0.5411 0.0
Zn322 Zn 0.65763 0.54742 0.2846 0.0
Zn323 Zn 0.682 0.51717 0.27915 0.0
O324 O 0.66438 0.51596 0.31353 0.0
O325 O 0.64329 0.54075 0.31357 0.0
O326 O 0.70219 0.48716 0.27588 0.0
O327 O 0.64051 0.53835 0.25139 0.0
O328 O 0.66081 0.51358 0.24281 0.0
C329 C 0.65044 0.52605 0.32377 0.0
C330 C 0.70266 0.5761 0.28532 0.0
O331 O 0.70587 0.55461 0.28163 0.0
O332 O 0.68357 0.57753 0.28869 0.0
C333 C 0.70024 0.46681 0.28373 0.0
O334 O 0.6842 0.46114 0.29613 0.0
C335 C 0.64615 0.52424 0.23576 0.0
La336 La 0.0394 0.02724 1.00539 0.0
La337 La 0.08072 0.05735 0.03515 0.0
C338 C 0.99876 0.00982 0.99115 0.0
C339 C 0.98075 0.02095 0.99417 0.0
C340 C 0.96217 0.01405 0.97681 0.0
C341 C 0.94608 0.02647 0.97807 0.0
C342 C 0.94833 0.04597 0.99676 0.0
C343 C 0.96711 0.05293 0.01408 0.0
C344 C 0.98325 0.04057 0.01273 0.0
C345 C 0.07094 0.02806 0.97652 0.0
C346 C 0.05303 0.08481 0.00855 0.0
C347 C 0.12116 0.07534 0.0504 0.0
C348 C 0.13934 0.0644 0.04846 0.0
C349 C 0.15863 0.07352 0.06488 0.0
C350 C 0.17498 0.06142 0.0647 0.0
C351 C 0.17214 0.03999 0.04813 0.0
C352 C 0.15268 0.03088 0.03176 0.0
C353 C 0.13637 0.04298 0.03196 0.0
C354 C 0.04877 0.05636 0.06356 0.0
C355 C 0.06708 0.9996 0.03175 0.0
O356 O 0.01274 0.02024 0.97854 0.0
O357 O 1.00871 1.00547 0.01008 0.0
O358 O 0.05032 0.01604 0.97176 0.0
O359 O 0.07371 0.03849 0.99841 0.0
O360 O 0.03713 0.06415 1.00422 0.0
O361 O 0.0727 0.08641 0.01969 0.0
O362 O 0.10683 0.06508 0.06273 0.0
O363 O 0.11163 0.07896 0.03087 0.0
O364 O 0.06912 0.06927 0.06853 0.0
O365 O 0.04659 0.04612 0.04179 0.0
O366 O 0.08286 0.02041 0.03676 0.0
O367 O 0.04758 0.99794 0.02016 0.0
H368 H 0.96036 0.99942 0.96201 0.0
H369 H 0.93204 0.02105 0.96418 0.0
H370 H 0.96925 0.06778 0.02875 0.0
H371 H 0.99784 0.04656 0.02599 0.0
H372 H 0.16084 0.08973 0.07806 0.0
H373 H 0.18973 0.06867 0.07767 0.0
H374 H 0.15017 0.01461 0.01856 0.0
H375 H 0.12134 0.03546 0.01942 0.0
La376 La 0.31498 0.79304 0.26052 0.0
La377 La 0.294 0.80176 0.29795 0.0
C378 C 0.33546 0.79488 0.22615 0.0
C379 C 0.34484 0.81476 0.2149 0.0
C380 C 0.36491 0.81596 0.20659 0.0
C381 C 0.3735 0.83414 0.19464 0.0
C382 C 0.36183 0.85098 0.19065 0.0
C383 C 0.34288 0.85114 0.20112 0.0
C384 C 0.33443 0.8331 0.21324 0.0
C385 C 0.33609 0.78351 0.29806 0.0
C386 C 0.32212 0.84628 0.28667 0.0
C387 C 0.27404 0.80127 0.33295 0.0
C388 C 0.26554 0.78255 0.34585 0.0
C389 C 0.2495 0.78505 0.36002 0.0
C390 C 0.24209 0.76755 0.37321 0.0
C391 C 0.25069 0.74747 0.37213 0.0
C392 C 0.26562 0.74429 0.35656 0.0
C393 C 0.27313 0.76185 0.34367 0.0
C394 C 0.27285 0.8101 0.2596 0.0
C395 C 0.28629 0.7485 0.27126 0.0
O396 O 0.34496 0.79737 0.24754 0.0
O397 O 0.31392 0.78777 0.22405 0.0
O398 O 0.3308 0.77005 0.27739 0.0
O399 O 0.32836 0.80174 0.29791 0.0
O400 O 0.31972 0.83196 0.26622 0.0
O401 O 0.31612 0.83748 0.30483 0.0
O402 O 0.26421 0.79695 0.31144 0.0
O403 O 0.29552 0.80853 0.3345 0.0
O404 O 0.27751 0.82397 0.28008 0.0
O405 O 0.28078 0.79227 0.26065 0.0
O406 O 0.28884 0.76269 0.29185 0.0
O407 O 0.29256 0.75749 0.25323 0.0
H408 H 0.37345 0.80231 0.20856 0.0
H409 H 0.3883 0.83393 0.18694 0.0
H410 H 0.33345 0.86381 0.19821 0.0
H411 H 0.31922 0.83282 0.22026 0.0
H412 H 0.24333 0.80089 0.36149 0.0
H413 H 0.23065 0.77036 0.3852 0.0
H414 H 0.27295 0.72933 0.35577 0.0
H415 H 0.28567 0.75978 0.33296 0.0
La416 La 0.58096 0.04168 0.52018 0.0
La417 La 0.53131 0.03798 0.52013 0.0
C418 C 0.61971 0.03721 0.52658 0.0
C419 C 0.63275 0.01936 0.52222 0.0
C420 C 0.64318 0.0174 0.50216 0.0
C421 C 0.65822 1.00346 0.49988 0.0
C422 C 0.66342 0.99127 0.5177 0.0
C423 C 0.65228 0.99251 0.5373 0.0
C424 C 0.6372 1.00636 0.53953 0.0
C425 C 0.55854 0.04498 0.48155 0.0
C426 C 0.54431 0.98951 0.50852 0.0
C427 C 0.49247 0.04212 0.51486 0.0
C428 C 0.47979 0.06039 0.5169 0.0
C429 C 0.4676 0.06271 0.53554 0.0
C430 C 0.45272 0.07687 0.53577 0.0
C431 C 0.44952 0.08879 0.5172 0.0
C432 C 0.46261 0.08752 0.49924 0.0
C433 C 0.47753 0.07347 0.49905 0.0
C434 C 0.55309 0.03408 0.55867 0.0
C435 C 0.56788 0.08994 0.5313 0.0
O436 O 0.61171 0.04478 0.50856 0.0
O437 O 0.60593 0.03417 0.54181 0.0
O438 O 0.57911 0.05691 0.48851 0.0
O439 O 0.55194 0.03128 0.4952 0.0
O440 O 0.56537 1.00226 0.51469 0.0
O441 O 0.52794 0.99977 0.50656 0.0
O442 O 0.50241 0.03897 0.53436 0.0
O443 O 0.50432 0.04094 0.49781 0.0
O444 O 0.53247 0.02272 0.55153 0.0
O445 O 0.5603 0.0481 0.54539 0.0
O446 O 0.54712 0.07715 0.52285 0.0
O447 O 0.58375 0.07939 0.5355 0.0
H448 H 0.6403 0.02727 0.48852 0.0
H449 H 0.66608 1.00264 0.4843 0.0
H450 H 0.65593 0.98371 0.55156 0.0
H451 H 0.62972 1.00766 0.55535 0.0
H452 H 0.46886 0.05272 0.54948 0.0
H453 H 0.44287 0.07739 0.54982 0.0
H454 H 0.46084 0.09687 0.48489 0.0
H455 H 0.48664 0.07214 0.48443 0.0
La456 La 0.28801 0.2968 0.7687 0.0
La457 La 0.33026 0.28865 0.7741 0.0
C458 C 0.24852 0.29819 0.77149 0.0
C459 C 0.2322 0.29889 0.78797 0.0
C460 C 0.21714 0.31242 0.78452 0.0
C461 C 0.19999 0.31178 0.79793 0.0
C462 C 0.19733 0.29752 0.81527 0.0
C463 C 0.21301 0.28464 0.81938 0.0
C464 C 0.23022 0.28526 0.80582 0.0
C465 C 0.3201 0.3357 0.76329 0.0
C466 C 0.31399 0.30485 0.82008 0.0
C467 C 0.37005 0.28875 0.77133 0.0
C468 C 0.38543 0.28545 0.75433 0.0
C469 C 0.39973 0.27122 0.75841 0.0
C470 C 0.41679 0.27057 0.7451 0.0
C471 C 0.4201 0.28424 0.72736 0.0
C472 C 0.40494 0.29742 0.72235 0.0
C473 C 0.38781 0.29807 0.73573 0.0
C474 C 0.29845 0.24948 0.77922 0.0
C475 C 0.30389 0.27967 0.72245 0.0
O476 O 0.26523 0.31739 0.77376 0.0
O477 O 0.25437 0.27823 0.76634 0.0
O478 O 0.30074 0.32679 0.75067 0.0
O479 O 0.3211 0.32249 0.77864 0.0
O480 O 0.29462 0.29881 0.80663 0.0
O481 O 0.33202 0.30503 0.81067 0.0
O482 O 0.35463 0.26971 0.77325 0.0
O483 O 0.36289 0.308 0.77268 0.0
O484 O 0.31798 0.25815 0.79156 0.0
O485 O 0.29718 0.26297 0.76414 0.0
O486 O 0.32308 0.28394 0.73586 0.0
O487 O 0.28618 0.28145 0.73179 0.0
H488 H 0.21833 0.32315 0.77095 0.0
H489 H 0.18867 0.32238 0.79454 0.0
H490 H 0.21154 0.27342 0.83251 0.0
H491 H 0.24162 0.27466 0.80894 0.0
H492 H 0.39825 0.26128 0.77257 0.0
H493 H 0.42779 0.25981 0.74918 0.0
H494 H 0.40696 0.30822 0.70888 0.0
H495 H 0.37699 0.30917 0.73208 0.0
La496 La 0.05676 0.06316 0.53126 0.0
La497 La 0.06004 0.01733 0.50966 0.0
C498 C 0.05808 0.10712 0.54117 0.0
C499 C 0.05863 0.12478 0.52605 0.0
C500 C 0.04774 0.14268 0.53086 0.0
C501 C 0.04857 0.15985 0.51671 0.0
C502 C 0.06045 0.15935 0.4977 0.0
C503 C 0.07043 0.1406 0.49228 0.0
C504 C 0.06945 0.12337 0.50632 0.0
C505 C 0.02289 0.02717 0.53548 0.0
C506 C 0.04132 0.0455 0.47442 0.0
C507 C 0.05779 0.97307 0.49979 0.0
C508 C 0.05767 0.9551 0.51455 0.0
C509 C 0.06811 0.93699 0.50862 0.0
C510 C 0.06772 0.91944 0.52229 0.0
C511 C 0.05675 0.91975 0.54199 0.0
C512 C 0.04713 0.93861 0.54847 0.0
C513 C 0.04764 0.95622 0.53487 0.0
C514 C 0.09384 0.05323 0.50516 0.0
C515 C 0.07657 0.03557 0.56622 0.0
O516 O 0.03977 0.0896 0.53755 0.0
O517 O 0.07557 0.09922 0.54326 0.0
O518 O 0.03266 0.04586 0.55188 0.0
O519 O 0.03202 0.02928 0.51743 0.0
O520 O 0.04838 0.06397 0.49281 0.0
O521 O 0.04266 0.02375 0.47742 0.0
O522 O 0.07626 0.99028 0.50269 0.0
O523 O 0.04049 0.98142 0.49874 0.0
O524 O 0.08443 0.03413 0.48909 0.0
O525 O 0.08475 0.05129 0.52325 0.0
O526 O 0.06883 0.01687 0.54812 0.0
O527 O 0.07537 0.0573 0.56307 0.0
H528 H 0.03892 0.14358 0.54575 0.0
H529 H 0.04043 0.17391 0.52099 0.0
H530 H 0.07989 0.13988 0.47791 0.0
H531 H 0.07766 0.10935 0.50208 0.0
H532 H 0.07631 0.93626 0.49326 0.0
H533 H 0.07564 0.90536 0.51719 0.0
H534 H 0.03845 0.93922 0.56347 0.0
H535 H 0.03979 0.97038 0.53997 0.0
La536 La 0.33396 0.81409 0.77395 0.0
La537 La 0.29231 0.77593 0.77302 0.0
C538 C 0.37229 0.84159 0.78684 0.0
C539 C 0.39409 0.83694 0.78877 0.0
C540 C 0.40854 0.84415 0.77297 0.0
C541 C 0.42875 0.83861 0.77392 0.0
C542 C 0.43465 0.82567 0.7906 0.0
C543 C 0.42033 0.81874 0.80656 0.0
C544 C 0.40026 0.82432 0.80569 0.0
C545 C 0.31408 0.7904 0.73243 0.0
C546 C 0.33592 0.75705 0.77542 0.0
C547 C 0.25435 0.74778 0.75984 0.0
C548 C 0.23284 0.75213 0.75381 0.0
C549 C 0.21752 0.74996 0.7696 0.0
C550 C 0.19751 0.75519 0.76437 0.0
C551 C 0.19254 0.76244 0.7432 0.0
C552 C 0.20784 0.76463 0.72746 0.0
C553 C 0.22779 0.75949 0.73268 0.0
C554 C 0.31204 0.7998 0.81461 0.0
C555 C 0.29005 0.83254 0.77116 0.0
O556 O 0.36173 0.8378 0.76548 0.0
O557 O 0.35932 0.83305 0.80144 0.0
O558 O 0.32488 0.81327 0.73657 0.0
O559 O 0.31609 0.78217 0.75073 0.0
O560 O 0.34679 0.78075 0.77725 0.0
O561 O 0.31386 0.75087 0.77289 0.0
O562 O 0.26332 0.75492 0.78195 0.0
O563 O 0.26868 0.75339 0.74557 0.0
O564 O 0.30165 0.7768 0.81026 0.0
O565 O 0.31008 0.80804 0.79629 0.0
O566 O 0.2793 0.80864 0.76782 0.0
O567 O 0.31215 0.83905 0.7755 0.0
H568 H 0.40412 0.85386 0.75976 0.0
H569 H 0.43966 0.84421 0.76154 0.0
H570 H 0.42481 0.80926 0.81996 0.0
H571 H 0.38958 0.81857 0.81821 0.0
H572 H 0.22106 0.74432 0.786 0.0
H573 H 0.18578 0.75314 0.77663 0.0
H574 H 0.20439 0.77043 0.71112 0.0
H575 H 0.23926 0.76148 0.72016 0.0
La576 La 0.55813 0.04565 0.03612 0.0
La577 La 0.55298 0.04854 0.98625 0.0
C578 C 0.55196 0.04305 0.07704 0.0
C579 C 0.53354 0.0265 0.0846 0.0
C580 C 0.5355 1.00428 0.08968 0.0
C581 C 0.51817 0.9889 0.09738 0.0
C582 C 0.49899 0.99599 0.10109 0.0
C583 C 0.49624 0.01696 0.0935 0.0
C584 C 0.51336 0.03208 0.08544 0.0
C585 C 0.56879 0.01133 0.00905 0.0
C586 C 0.51149 0.02316 1.00395 0.0
C587 C 0.55799 0.05013 0.94481 0.0
C588 C 0.57259 0.06928 0.93581 0.0
C589 C 0.56571 0.08935 0.93093 0.0
C590 C 0.57961 0.10719 0.92193 0.0
C591 C 0.6004 0.105 0.91754 0.0
C592 C 0.60791 0.08602 0.9243 0.0
C593 C 0.59404 0.06819 0.93314 0.0
C594 C 0.54407 0.0841 0.01357 0.0
C595 C 0.59989 0.0706 0.01906 0.0
O596 O 0.56529 0.03269 0.06649 0.0
O597 O 0.54695 0.05952 0.06641 0.0
O598 O 0.5784 0.02125 0.03017 0.0
O599 O 0.55263 0.01946 1.00396 0.0
O600 O 0.52266 0.03261 0.02511 0.0
O601 O 0.52101 0.02342 0.98502 0.0
O602 O 0.54173 0.05592 0.95408 0.0
O603 O 0.56793 0.0384 0.95755 0.0
O604 O 0.53428 0.07489 0.99244 0.0
O605 O 0.55941 0.07483 0.01823 0.0
O606 O 0.58889 0.06171 0.9976 0.0
O607 O 0.5898 0.07083 0.03764 0.0
H608 H 0.55065 0.99911 0.08842 0.0
H609 H 0.52059 0.97251 0.10237 0.0
H610 H 0.4818 0.02323 0.09589 0.0
H611 H 0.51104 0.04867 0.08085 0.0
H612 H 0.54935 0.09086 0.93326 0.0
H613 H 0.57346 0.12153 0.91655 0.0
H614 H 0.62367 0.08352 0.92061 0.0
H615 H 0.59989 0.0531 0.93706 0.0
La616 La 0.31834 0.31541 0.27914 0.0
La617 La 0.29477 0.2625 0.25748 0.0
C618 C 0.33113 0.36027 0.28232 0.0
C619 C 0.31819 0.37762 0.28488 0.0
C620 C 0.32658 0.39958 0.30097 0.0
C621 C 0.31377 0.41569 0.30416 0.0
C622 C 0.29248 0.40982 0.29133 0.0
C623 C 0.2839 0.38749 0.27571 0.0
C624 C 0.29667 0.37148 0.27252 0.0
C625 C 0.31516 0.28998 0.31339 0.0
C626 C 0.26683 0.29461 0.27769 0.0
C627 C 0.2843 0.21737 0.24505 0.0
C628 C 0.29788 0.20079 0.24689 0.0
C629 C 0.29545 0.1813 0.22838 0.0
C630 C 0.30955 0.16653 0.22915 0.0
C631 C 0.3262 0.17112 0.24849 0.0
C632 C 0.32885 0.19096 0.26683 0.0
C633 C 0.31484 0.20577 0.26599 0.0
C634 C 0.29582 0.29382 0.22891 0.0
C635 C 0.34762 0.28265 0.26498 0.0
O636 O 0.33315 0.34982 0.30026 0.0
O637 O 0.32618 0.34484 0.26228 0.0
O638 O 0.32482 0.31295 0.31609 0.0
O639 O 0.30837 0.28228 0.29168 0.0
O640 O 0.28343 0.31355 0.27701 0.0
O641 O 0.26822 0.27214 0.27319 0.0
O642 O 0.29012 0.23214 0.23076 0.0
O643 O 0.28046 0.22841 0.26493 0.0
O644 O 0.27895 0.27555 0.22876 0.0
O645 O 0.31093 0.29357 0.2446 0.0
O646 O 0.32991 0.26367 0.26144 0.0
O647 O 0.347 0.30515 0.27126 0.0
H648 H 0.34297 0.40424 0.31099 0.0
H649 H 0.32054 0.43282 0.31644 0.0
H650 H 0.26762 0.38274 0.2654 0.0
H651 H 0.28972 0.3544 0.26022 0.0
H652 H 0.28284 0.17771 0.21324 0.0
H653 H 0.30747 0.15155 0.21462 0.0
H654 H 0.34146 0.19476 0.28201 0.0
H655 H 0.31732 0.22116 0.28022 0.0
La656 La 0.55683 0.56274 0.03072 0.0
La657 La 0.56171 0.51784 0.00893 0.0
C658 C 0.55849 0.60677 0.03937 0.0
C659 C 0.55919 0.62356 0.02314 0.0
C660 C 0.54362 0.63677 0.02236 0.0
C661 C 0.54396 0.65248 1.00669 0.0
C662 C 0.56016 0.65548 0.99184 0.0
C663 C 0.57513 0.64136 0.99201 0.0
C664 C 0.57452 0.62539 0.00734 0.0
C665 C 0.52371 0.52622 0.03513 0.0
C666 C 0.54168 0.54528 0.9737 0.0
C667 C 0.56092 0.474 0.99903 0.0
C668 C 0.55906 0.45603 0.01397 0.0
C669 C 0.56893 0.43713 0.00945 0.0
C670 C 0.56629 0.41946 0.02328 0.0
C671 C 0.55368 0.42069 0.04154 0.0
C672 C 0.54476 0.44027 0.04674 0.0
C673 C 0.54754 0.45794 0.03312 0.0
C674 C 0.59455 0.55474 1.00475 0.0
C675 C 0.57721 0.53577 0.06599 0.0
O676 O 0.54006 0.58948 0.03651 0.0
O677 O 0.57588 0.59877 0.04234 0.0
O678 O 0.53292 0.54538 0.05123 0.0
O679 O 0.53287 0.52822 0.017 0.0
O680 O 0.54649 0.5631 0.9926 0.0
O681 O 0.54547 0.5243 0.97602 0.0
O682 O 0.57919 0.49167 1.00415 0.0
O683 O 0.54347 0.4818 0.99552 0.0
O684 O 0.58553 0.53575 0.98846 0.0
O685 O 0.58548 0.55217 0.02277 0.0
O686 O 0.57131 0.51746 0.04738 0.0
O687 O 0.57418 0.55696 0.06324 0.0
H688 H 0.53128 0.63504 0.03397 0.0
H689 H 0.53189 0.66269 1.00662 0.0
H690 H 0.58803 0.64336 0.98109 0.0
H691 H 0.58636 0.61484 1.00707 0.0
H692 H 0.57819 0.43575 0.99496 0.0
H693 H 0.57316 0.40432 0.0191 0.0
H694 H 0.53502 0.4414 0.06086 0.0
H695 H 0.54014 0.4727 0.03716 0.0
La696 La 0.83319 0.31249 0.27328 0.0
La697 La 0.79183 0.27469 0.27349 0.0
C698 C 0.87169 0.33995 0.28468 0.0
C699 C 0.89388 0.33634 0.28587 0.0
C700 C 0.90634 0.34087 0.26772 0.0
C701 C 0.9277 0.33834 0.26922 0.0
C702 C 0.93672 0.33122 0.28881 0.0
C703 C 0.92428 0.32624 0.30674 0.0
C704 C 0.90299 0.32882 0.30533 0.0
C705 C 0.81196 0.28912 0.23204 0.0
C706 C 0.83519 0.25545 0.2743 0.0
C707 C 0.75345 0.24742 0.26074 0.0
C708 C 0.7324 0.25307 0.25665 0.0
C709 C 0.71354 0.23876 0.26314 0.0
C710 C 0.69359 0.24459 0.25989 0.0
C711 C 0.6924 0.26512 0.2505 0.0
C712 C 0.71156 0.27971 0.24457 0.0
C713 C 0.73128 0.27352 0.24727 0.0
C714 C 0.81307 0.29748 0.31471 0.0
C715 C 0.78989 0.33174 0.27246 0.0
O716 O 0.86038 0.33593 0.26366 0.0
O717 O 0.85957 0.33111 0.29978 0.0
O718 O 0.82273 0.31197 0.23635 0.0
O719 O 0.81464 0.28063 0.25008 0.0
O720 O 0.84606 0.27911 0.27595 0.0
O721 O 0.81315 0.24934 0.27221 0.0
O722 O 0.76312 0.25328 0.28261 0.0
O723 O 0.76716 0.25378 0.24608 0.0
O724 O 0.80201 0.27467 0.31026 0.0
O725 O 0.8105 0.30642 0.29687 0.0
O726 O 0.77922 0.30803 0.27047 0.0
O727 O 0.81196 0.3381 0.27516 0.0
H728 H 0.89973 0.34677 0.25258 0.0
H729 H 0.93738 0.34253 0.25544 0.0
H730 H 0.93131 0.32111 0.32217 0.0
H731 H 0.89389 0.32533 0.31967 0.0
H732 H 0.71421 0.22298 0.27051 0.0
H733 H 0.67904 0.23266 0.2642 0.0
H734 H 0.71134 0.29583 0.23764 0.0
H735 H 0.74557 0.28475 0.24188 0.0
La736 La 0.05951 0.55063 0.53459 0.0
La737 La 0.05033 0.55363 0.48195 0.0
C738 C 0.05643 0.55599 0.5769 0.0
C739 C 0.0423 0.53899 0.58853 0.0
C740 C 0.04268 0.51459 0.58587 0.0
C741 C 0.02691 0.49794 0.59437 0.0
C742 C 0.01038 0.50542 0.60513 0.0
C743 C 0.00992 0.52976 0.60733 0.0
C744 C 0.02579 0.54636 0.59923 0.0
C745 C 0.06425 0.51202 0.5069 0.0
C746 C 0.0128 0.5235 0.50235 0.0
C747 C 0.05237 0.56077 0.44141 0.0
C748 C 0.07106 0.57511 0.43256 0.0
C749 C 0.06937 0.59629 0.42492 0.0
C750 C 0.08753 0.61133 0.41817 0.0
C751 C 0.10746 0.60493 0.4182 0.0
C752 C 0.10947 0.58462 0.42762 0.0
C753 C 0.09146 0.56991 0.43476 0.0
C754 C 0.04016 0.58526 0.51268 0.0
C755 C 0.09924 0.57137 0.51121 0.0
O756 O 0.07287 0.54933 0.56851 0.0
O757 O 0.04529 0.56485 0.5621 0.0
O758 O 0.06782 0.51565 0.52959 0.0
O759 O 0.05739 0.52913 0.50183 0.0
O760 O 0.02424 0.53336 0.52356 0.0
O761 O 0.02083 0.52589 0.48264 0.0
O762 O 0.0448 0.57396 0.45702 0.0
O763 O 0.05404 0.5404 0.44741 0.0
O764 O 0.02824 0.57476 0.49266 0.0
O765 O 0.05722 0.57806 0.51514 0.0
O766 O 0.08627 0.564 0.49059 0.0
O767 O 0.09165 0.57219 0.5314 0.0
H768 H 0.05499 0.50831 0.57711 0.0
H769 H 0.02783 0.47942 0.59295 0.0
H770 H 0.99784 0.53634 0.61627 0.0
H771 H 0.02496 0.56496 0.601 0.0
H772 H 0.05393 0.60113 0.42406 0.0
H773 H 0.08554 0.62706 0.41145 0.0
H774 H 0.1244 0.57882 0.42785 0.0
H775 H 0.09345 0.55418 0.44149 0.0
La776 La 0.78547 0.79648 0.2703 0.0
La777 La 0.83387 0.78977 0.27337 0.0
C778 C 0.74459 0.78785 0.27284 0.0
C779 C 0.72934 0.79249 0.28973 0.0
C780 C 0.71985 0.81185 0.28969 0.0
C781 C 0.70326 0.81416 0.30333 0.0
C782 C 0.69549 0.79702 0.31722 0.0
C783 C 0.70563 0.77818 0.31787 0.0
C784 C 0.72226 0.77594 0.30433 0.0
C785 C 0.81634 0.83966 0.27147 0.0
C786 C 0.81553 0.80594 0.32008 0.0
C787 C 0.87443 0.7982 0.26992 0.0
C788 C 0.88917 0.79122 0.25343 0.0
C789 C 0.90243 0.77629 0.2589 0.0
C790 C 0.9189 0.7729 0.24549 0.0
C791 C 0.92273 0.78462 0.22641 0.0
C792 C 0.90862 0.7985 0.22022 0.0
C793 C 0.89209 0.80176 0.23352 0.0
C794 C 0.80323 0.74658 0.2722 0.0
C795 C 0.80367 0.7799 0.22342 0.0
O796 O 0.75556 0.8059 0.26412 0.0
O797 O 0.75672 0.77368 0.27762 0.0
O798 O 0.79516 0.83625 0.27058 0.0
O799 O 0.81878 0.81862 0.27228 0.0
O800 O 0.79564 0.80188 0.30791 0.0
O801 O 0.83333 0.80469 0.31025 0.0
O802 O 0.86442 0.78222 0.28156 0.0
O803 O 0.86161 0.81081 0.2628 0.0
O804 O 0.82444 0.7501 0.27323 0.0
O805 O 0.80062 0.76758 0.27144 0.0
O806 O 0.82325 0.78276 0.23573 0.0
O807 O 0.7862 0.78273 0.23319 0.0
H808 H 0.72479 0.82487 0.2786 0.0
H809 H 0.69625 0.82921 0.30265 0.0
H810 H 0.70006 0.76442 0.32803 0.0
H811 H 0.72898 0.76062 0.30468 0.0
H812 H 0.90064 0.76793 0.27411 0.0
H813 H 0.92909 0.76166 0.25055 0.0
H814 H 0.91109 0.80803 0.20585 0.0
H815 H 0.88229 0.81349 0.22875 0.0
La816 La 0.81165 0.2954 0.76097 0.0
La817 La 0.79132 0.30328 0.79956 0.0
C818 C 0.82004 0.29328 0.7202 0.0
C819 C 0.83739 0.30927 0.71103 0.0
C820 C 0.84807 0.29936 0.69387 0.0
C821 C 0.86024 0.31437 0.68082 0.0
C822 C 0.86084 0.33905 0.68438 0.0
C823 C 0.85361 0.34952 0.70431 0.0
C824 C 0.84186 0.33461 0.71763 0.0
C825 C 0.84347 0.29776 0.79514 0.0
C826 C 0.82053 0.34807 0.78941 0.0
C827 C 0.76899 0.30208 0.83239 0.0
C828 C 0.76511 0.28576 0.84847 0.0
C829 C 0.74522 0.28136 0.85751 0.0
C830 C 0.74025 0.26343 0.8707 0.0
C831 C 0.7551 0.24977 0.87448 0.0
C832 C 0.77486 0.25403 0.86506 0.0
C833 C 0.77988 0.27203 0.85214 0.0
C834 C 0.7692 0.30895 0.76072 0.0
C835 C 0.79397 0.25104 0.78069 0.0
O836 O 0.82657 0.28025 0.73415 0.0
O837 O 0.80508 0.30315 0.72788 0.0
O838 O 0.84513 0.29693 0.77336 0.0
O839 O 0.82434 0.29957 0.79888 0.0
O840 O 0.81844 0.3344 0.76867 0.0
O841 O 0.81391 0.33886 0.80718 0.0
O842 O 0.76096 0.29132 0.81074 0.0
O843 O 0.78923 0.31595 0.83465 0.0
O844 O 0.7751 0.32453 0.78011 0.0
O845 O 0.77742 0.29152 0.76283 0.0
O846 O 0.79346 0.2665 0.79953 0.0
O847 O 0.79669 0.25817 0.76091 0.0
H848 H 0.84536 0.2799 0.68915 0.0
H849 H 0.86618 0.30613 0.66571 0.0
H850 H 0.85407 0.36856 0.70757 0.0
H851 H 0.83441 0.34279 0.73144 0.0
H852 H 0.73352 0.29157 0.85414 0.0
H853 H 0.725 0.26031 0.87806 0.0
H854 H 0.7867 0.24394 0.86828 0.0
H855 H 0.79521 0.27512 0.84493 0.0
La856 La 0.81587 0.81301 0.78196 0.0
La857 La 0.79352 0.76491 0.75744 0.0
C858 C 0.82855 0.85784 0.79756 0.0
C859 C 0.81647 0.87568 0.79608 0.0
C860 C 0.82186 0.89689 0.81321 0.0
C861 C 0.80912 0.91308 0.81254 0.0
C862 C 0.7908 0.90778 0.79494 0.0
C863 C 0.78536 0.88642 0.77793 0.0
C864 C 0.79827 0.87054 0.77837 0.0
C865 C 0.81497 0.78057 0.80934 0.0
C866 C 0.76382 0.79496 0.77475 0.0
C867 C 0.78255 0.71994 0.74228 0.0
C868 C 0.79574 0.70296 0.74405 0.0
C869 C 0.79266 0.68293 0.72592 0.0
C870 C 0.80631 0.66766 0.72696 0.0
C871 C 0.82324 0.67247 0.74607 0.0
C872 C 0.82644 0.69275 0.76405 0.0
C873 C 0.81275 0.70786 0.76307 0.0
C874 C 0.79538 0.79743 0.72983 0.0
C875 C 0.84547 0.78356 0.76429 0.0
O876 O 0.82072 0.84204 0.8102 0.0
O877 O 0.83254 0.84762 0.77748 0.0
O878 O 0.8317 0.79884 0.80941 0.0
O879 O 0.79943 0.78098 0.79412 0.0
O880 O 0.78131 0.81345 0.77589 0.0
O881 O 0.76503 0.77256 0.77003 0.0
O882 O 0.78948 0.7358 0.72939 0.0
O883 O 0.77797 0.72995 0.76214 0.0
O884 O 0.7784 0.77924 0.72941 0.0
O885 O 0.81044 0.79674 0.74541 0.0
O886 O 0.82821 0.76491 0.76348 0.0
O887 O 0.84398 0.80577 0.76878 0.0
H888 H 0.83577 0.90082 0.82707 0.0
H889 H 0.81345 0.92962 0.82574 0.0
H890 H 0.77148 0.88232 0.764 0.0
H891 H 0.79403 0.85431 0.76484 0.0
H892 H 0.77986 0.67925 0.71095 0.0
H893 H 0.80374 0.65218 0.71282 0.0
H894 H 0.83922 0.69665 0.77908 0.0
H895 H 0.8155 0.72339 0.7772 0.0
La896 La 0.53962 0.52761 0.50524 0.0
La897 La 0.57947 0.556 0.53361 0.0
C898 C 0.49912 0.50989 0.48976 0.0
C899 C 0.48091 0.52034 0.49367 0.0
C900 C 0.46059 0.51076 0.47899 0.0
C901 C 0.44419 0.52269 0.4809 0.0
C902 C 0.44812 0.54435 0.49744 0.0
C903 C 0.46836 0.55363 0.51244 0.0
C904 C 0.48461 0.54157 0.51069 0.0
C905 C 0.57282 0.52686 0.47859 0.0
C906 C 0.55242 0.58498 0.50906 0.0
C907 C 0.61984 0.57486 0.54989 0.0
C908 C 0.6384 0.56441 0.54858 0.0
C909 C 0.65576 0.57099 0.56738 0.0
C910 C 0.67172 0.55835 0.56774 0.0
C911 C 0.67049 0.53903 0.54925 0.0
C912 C 0.65309 0.53265 0.5304 0.0
C913 C 0.63711 0.54514 0.53016 0.0
C914 C 0.54873 0.55575 0.56367 0.0
C915 C 0.56683 0.49941 0.5311 0.0
O916 O 0.51329 0.52155 0.47805 0.0
O917 O 0.50888 0.50486 0.50831 0.0
O918 O 0.55459 0.50999 0.47745 0.0
O919 O 0.57164 0.54455 0.49469 0.0
O920 O 0.53664 0.56424 0.50391 0.0
O921 O 0.57192 0.58634 0.52033 0.0
O922 O 0.60531 0.56421 0.56172 0.0
O923 O 0.6105 0.57822 0.5302 0.0
O924 O 0.56929 0.56774 0.56776 0.0
O925 O 0.54535 0.54527 0.54188 0.0
O926 O 0.58305 0.51943 0.53361 0.0
O927 O 0.54693 0.49877 0.52161 0.0
H928 H 0.45763 0.49448 0.4657 0.0
H929 H 0.42864 0.51534 0.46913 0.0
H930 H 0.47158 0.57014 0.52552 0.0
H931 H 0.50025 0.54912 0.52225 0.0
H932 H 0.6566 0.58541 0.58206 0.0
H933 H 0.68479 0.56344 0.58264 0.0
H934 H 0.65186 0.51813 0.5157 0.0
H935 H 0.62348 0.5394 0.51578 0.0
La936 La 0.08034 0.54174 0.01854 0.0
La937 La 0.03045 0.53715 0.02159 0.0
C938 C 0.11923 0.53769 0.02481 0.0
C939 C 0.13234 0.51969 0.02221 0.0
C940 C 0.14471 0.51826 1.00364 0.0
C941 C 0.15967 0.50417 1.00278 0.0
C942 C 0.16284 0.49121 0.02059 0.0
C943 C 0.14985 0.49195 0.03871 0.0
C944 C 0.13485 0.50602 0.03955 0.0
C945 C 0.05604 0.54424 0.98116 0.0
C946 C 0.04412 0.4892 0.0089 0.0
C947 C 0.99155 0.54117 0.01674 0.0
C948 C 0.97885 0.5593 0.02087 0.0
C949 C 0.96401 0.55725 0.0372 0.0
C950 C 0.94961 0.57194 0.03908 0.0
C951 C 0.94956 0.58899 0.02454 0.0
C952 C 0.96504 0.59162 0.00881 0.0
C953 C 0.97949 0.577 1.007 0.0
C954 C 0.05547 0.53588 0.05899 0.0
C955 C 0.06675 0.59005 0.03068 0.0
O956 O 0.11021 0.5425 1.0056 0.0
O957 O 0.10642 0.53719 0.04109 0.0
O958 O 0.07701 0.55532 0.98622 0.0
O959 O 0.05012 0.53087 0.99539 0.0
O960 O 0.06516 0.50227 0.01422 0.0
O961 O 0.02746 0.49911 0.00767 0.0
O962 O 1.00065 0.53512 0.03516 0.0
O963 O 1.00424 0.54284 1.0004 0.0
O964 O 0.03481 0.52357 0.05416 0.0
O965 O 0.06055 0.54869 0.04425 0.0
O966 O 0.04566 0.5768 0.02624 0.0
O967 O 0.08344 0.5801 0.0311 0.0
H968 H 0.14344 0.52879 0.99016 0.0
H969 H 0.16946 0.50432 0.98867 0.0
H970 H 0.15153 0.48193 0.05254 0.0
H971 H 0.12573 0.50674 0.0542 0.0
H972 H 0.96305 0.54371 0.04806 0.0
H973 H 0.93826 0.56963 0.05169 0.0
H974 H 0.96539 0.60427 0.99707 0.0
H975 H 0.9906 0.57903 0.99412 0.0
H976 H 0.05104 0.20945 0.93901 0.0
H977 H 0.99256 0.19582 0.97225 0.0
H978 H 0.06155 0.17639 0.95454 0.0
H979 H 1.00309 0.16367 0.98787 0.0
H980 H 0.01293 0.09018 0.99201 0.0
H981 H 1.00479 0.1236 0.9763 0.0
H982 H 0.07417 0.16231 0.98969 0.0
H983 H 0.08241 0.12829 1.00523 0.0
C984 C 0.04038 0.19945 0.94952 0.0
C985 C 0.02078 0.2054 0.95407 0.0
C986 C 0.0465 0.18056 0.95863 0.0
C987 C 0.03311 0.16693 0.9724 0.0
C988 C 0.0137 0.17316 0.97701 0.0
C989 C 1.00769 0.19191 0.96807 0.0
C990 C 0.02655 0.10578 0.99174 0.0
C991 C 0.04836 0.10637 1.0001 0.0
C992 C 0.02184 0.12519 0.98276 0.0
C993 C 0.03873 0.14603 0.98169 0.0
C994 C 0.06065 0.14663 0.98998 0.0
C995 C 0.06538 0.12716 0.99915 0.0
H996 H 0.18366 0.85692 0.16463 0.0
H997 H 0.14464 0.78585 0.16951 0.0
H998 H 0.21423 0.85273 0.19111 0.0
H999 H 0.17557 0.78132 0.19592 0.0
H1000 H 0.24668 0.77432 0.22243 0.0
H1001 H 0.21463 0.777 0.19623 0.0
H1002 H 0.22468 0.85095 0.23183 0.0
H1003 H 0.25632 0.84832 0.25749 0.0
C1004 C 0.18146 0.84054 0.17175 0.0
C1005 C 0.16145 0.822 0.16534 0.0
C1006 C 0.19908 0.83805 0.18691 0.0
C1007 C 0.19758 0.81664 0.19579 0.0
C1008 C 0.17748 0.79803 0.18943 0.0
C1009 C 0.15958 0.80078 0.17459 0.0
C1010 C 0.24211 0.79118 0.22445 0.0
C1011 C 0.25427 0.81116 0.24203 0.0
C1012 C 0.22358 0.79267 0.20959 0.0
C1013 C 0.21692 0.81426 0.21177 0.0
C1014 C 0.2293 0.83413 0.22928 0.0
C1015 C 0.24753 0.83259 0.2441 0.0
H1016 H 0.55178 0.84559 0.4477 0.0
H1017 H 0.49793 0.83195 0.48785 0.0
H1018 H 0.55846 0.88915 0.46131 0.0
H1019 H 0.50381 0.8752 0.50045 0.0
H1020 H 0.52961 0.95532 0.53408 0.0
H1021 H 0.52528 0.91171 0.5234 0.0
H1022 H 0.54368 0.92102 0.45555 0.0
H1023 H 0.54903 0.9647 0.46703 0.0
C1024 C 0.54149 0.85184 0.45958 0.0
C1025 C 0.52431 0.83517 0.46664 0.0
C1026 C 0.54511 0.87689 0.46717 0.0
C1027 C 0.53151 0.88593 0.48182 0.0
C1028 C 0.51484 0.86915 0.48945 0.0
C1029 C 0.51139 0.84418 0.48209 0.0
C1030 C 0.53255 0.94783 0.51687 0.0
C1031 C 0.53952 0.96307 0.50128 0.0
C1032 C 0.53005 0.92285 0.51066 0.0
C1033 C 0.53424 0.91262 0.48858 0.0
C1034 C 0.54079 0.92813 0.47287 0.0
C1035 C 0.54358 0.95311 0.47926 0.0
H1036 H 0.55282 0.33893 0.6996 0.0
H1037 H 0.52438 0.28392 0.63722 0.0
H1038 H 0.51812 0.32847 0.71498 0.0
H1039 H 0.48938 0.27338 0.65279 0.0
H1040 H 0.42418 0.2849 0.68076 0.0
H1041 H 0.45818 0.29145 0.66307 0.0
H1042 H 0.49571 0.29467 0.73 0.0
H1043 H 0.46215 0.28871 0.74767 0.0
C1044 C 0.53919 0.32453 0.68914 0.0
C1045 C 0.54154 0.31228 0.66716 0.0
C1046 C 0.51925 0.31842 0.69805 0.0
C1047 C 0.50091 0.29998 0.68521 0.0
C1048 C 0.50311 0.28776 0.66311 0.0
C1049 C 0.52324 0.29372 0.65426 0.0
C1050 C 0.4397 0.28698 0.69167 0.0
C1051 C 0.44033 0.28634 0.71571 0.0
C1052 C 0.45916 0.29051 0.68148 0.0
C1053 C 0.47976 0.29384 0.69515 0.0
C1054 C 0.48023 0.29253 0.71899 0.0
C1055 C 0.46086 0.28883 0.72909 0.0
H1056 H 0.04374 0.78226 0.58685 0.0
H1057 H 1.00662 0.81981 0.6299 0.0
H1058 H 0.0552 0.81743 0.56876 0.0
H1059 H 0.01781 0.85483 0.61148 0.0
H1060 H 0.05971 0.92153 0.58936 0.0
H1061 H 0.05119 0.88709 0.60918 0.0
H1062 H 0.03764 0.83767 0.54223 0.0
H1063 H 0.04601 0.87182 0.52254 0.0
C1064 C 0.03796 0.79798 0.59237 0.0
C1065 C 0.02423 0.79827 0.60971 0.0
C1066 C 0.04448 0.81807 0.58198 0.0
C1067 C 0.03743 0.83884 0.58879 0.0
C1068 C 0.02371 0.83916 0.60614 0.0
C1069 C 0.01711 0.81902 0.61647 0.0
C1070 C 0.05499 0.90328 0.57896 0.0
C1071 C 0.0536 0.89931 0.55444 0.0
C1072 C 0.05008 0.88363 0.59026 0.0
C1073 C 0.04375 0.85975 0.5772 0.0
C1074 C 0.04282 0.85587 0.55276 0.0
C1075 C 0.04768 0.87544 0.5415 0.0
H1076 H 0.53118 0.79528 0.87228 0.0
H1077 H 0.57294 0.83544 0.8299 0.0
H1078 H 0.49897 0.79137 0.8443 0.0
H1079 H 0.54038 0.83113 0.80131 0.0
H1080 H 0.47504 0.8573 0.79294 0.0
H1081 H 0.5106 0.85095 0.80562 0.0
H1082 H 0.47816 0.77575 0.80533 0.0
H1083 H 0.44254 0.78237 0.79317 0.0
C1084 C 0.53349 0.80269 0.85658 0.0
C1085 C 0.55443 0.81594 0.85336 0.0
C1086 C 0.51505 0.80023 0.84038 0.0
C1087 C 0.51716 0.811 0.82061 0.0
C1088 C 0.53833 0.82278 0.81649 0.0
C1089 C 0.55691 0.82512 0.83274 0.0
C1090 C 0.47567 0.83925 0.79483 0.0
C1091 C 0.45618 0.82041 0.79254 0.0
C1092 C 0.49602 0.83555 0.80197 0.0
C1093 C 0.49707 0.81291 0.80676 0.0
C1094 C 0.47774 0.79347 0.80212 0.0
C1095 C 0.45742 0.79723 0.79521 0.0
H1096 H 0.50734 0.20692 0.08753 0.0
H1097 H 0.49169 0.14881 0.12618 0.0
H1098 H 0.51969 0.18056 0.05801 0.0
H1099 H 0.50429 0.12285 0.0968 0.0
H1100 H 0.56031 0.10261 0.05982 0.0
H1101 H 0.54616 0.12998 0.08659 0.0
H1102 H 0.50179 0.13694 0.02858 0.0
H1103 H 0.51492 0.10849 1.00206 0.0
C1104 C 0.50605 0.18842 0.08945 0.0
C1105 C 0.49878 0.17996 0.10927 0.0
C1106 C 0.51324 0.17348 0.07268 0.0
C1107 C 0.51329 0.15008 0.07566 0.0
C1108 C 0.50476 0.14111 0.09459 0.0
C1109 C 0.49741 0.15589 0.11122 0.0
C1110 C 0.54738 0.10978 0.05291 0.0
C1111 C 0.53812 0.10292 0.02918 0.0
C1112 C 0.53944 0.12548 0.0681 0.0
C1113 C 0.52275 0.13507 0.05945 0.0
C1114 C 0.51456 0.12951 0.03548 0.0
C1115 C 0.52205 0.11329 0.02044 0.0
H1116 H 0.15841 0.35117 0.31685 0.0
H1117 H 0.17741 0.31658 0.37261 0.0
H1118 H 0.18446 0.33717 0.2942 0.0
H1119 H 0.20374 0.30301 0.35011 0.0
H1120 H 0.23495 0.26433 0.29541 0.0
H1121 H 0.20493 0.27484 0.31394 0.0
H1122 H 0.22439 0.34622 0.29702 0.0
H1123 H 0.25384 0.33559 0.27813 0.0
C1124 C 0.16823 0.34073 0.32433 0.0
C1125 C 0.16591 0.33507 0.34652 0.0
C1126 C 0.18313 0.33271 0.31137 0.0
C1127 C 0.19599 0.3189 0.32035 0.0
C1128 C 0.19375 0.31328 0.34258 0.0
C1129 C 0.17887 0.32132 0.35557 0.0
C1130 C 0.23246 0.28205 0.29523 0.0
C1131 C 0.2468 0.29925 0.28554 0.0
C1132 C 0.21546 0.28814 0.30603 0.0
C1133 C 0.2125 0.31141 0.30709 0.0
C1134 C 0.22618 0.32809 0.29633 0.0
C1135 C 0.24315 0.32206 0.28564 0.0
H1136 H 0.96966 0.08615 0.18323 0.0
H1137 H 0.99791 0.02898 0.19681 0.0
H1138 H 0.98533 0.08576 0.14614 0.0
H1139 H 0.01325 0.02863 0.16066 0.0
H1140 H 0.03047 0.01788 0.08567 0.0
H1141 H 0.01215 0.01845 0.12064 0.0
H1142 H 0.01434 0.09335 0.1223 0.0
H1143 H 0.03289 0.09257 0.08742 0.0
C1144 C 0.97907 0.07341 0.17864 0.0
C1145 C 0.98199 0.05758 0.19413 0.0
C1146 C 0.98834 0.07318 0.15696 0.0
C1147 C 1.00089 0.05691 0.14911 0.0
C1148 C 1.00365 0.04128 0.16473 0.0
C1149 C 0.9947 0.04167 0.18621 0.0
C1150 C 0.02648 0.03434 0.09289 0.0
C1151 C 0.03272 0.05484 0.08226 0.0
C1152 C 0.01613 0.03492 0.1137 0.0
C1153 C 0.0112 0.05605 0.12549 0.0
C1154 C 0.01714 0.07641 0.11448 0.0
C1155 C 0.02785 0.07591 0.09393 0.0
H1156 H 0.31549 0.72246 0.49028 0.0
H1157 H 0.26676 0.65273 0.46931 0.0
H1158 H 0.3005 0.73534 0.4559 0.0
H1159 H 0.25079 0.66598 0.43584 0.0
H1160 H 0.24379 0.6985 0.36777 0.0
H1161 H 0.25596 0.67921 0.39875 0.0
H1162 H 0.26568 0.74557 0.44937 0.0
H1163 H 0.25483 0.76512 0.41848 0.0
C1164 C 0.30199 0.70977 0.47787 0.0
C1165 C 0.29229 0.68674 0.48199 0.0
C1166 C 0.29314 0.71717 0.45857 0.0
C1167 C 0.27406 0.70184 0.44381 0.0
C1168 C 0.26546 0.67807 0.44699 0.0
C1169 C 0.2747 0.67047 0.46596 0.0
C1170 C 0.2479 0.70862 0.38568 0.0
C1171 C 0.2488 0.73334 0.39074 0.0
C1172 C 0.25493 0.69766 0.40332 0.0
C1173 C 0.2626 0.71134 0.42611 0.0
C1174 C 0.26062 0.73501 0.43166 0.0
C1175 C 0.25386 0.746 0.41407 0.0
H1176 H 0.59791 0.04123 0.70195 0.0
H1177 H 0.65024 0.02322 0.6671 0.0
H1178 H 0.57611 0.03742 0.66392 0.0
H1179 H 0.6284 0.01966 0.62911 0.0
H1180 H 0.59514 0.05985 0.57724 0.0
H1181 H 0.61597 0.05659 0.61355 0.0
H1182 H 0.5592 1.00274 0.62538 0.0
H1183 H 0.53863 1.00517 0.58862 0.0
C1184 C 0.60437 0.0357 0.68614 0.0
C1185 C 0.62556 0.03234 0.68723 0.0
C1186 C 0.59202 0.03364 0.66456 0.0
C1187 C 0.60087 0.02838 0.64402 0.0
C1188 C 0.62151 0.02377 0.64499 0.0
C1189 C 0.63376 0.02548 0.66658 0.0
C1190 C 0.58736 0.04694 0.58736 0.0
C1191 C 0.56558 0.03236 0.58016 0.0
C1192 C 0.59918 0.04514 0.60799 0.0
C1193 C 0.58903 0.02919 0.62171 0.0
C1194 C 0.56718 0.01495 0.61472 0.0
C1195 C 0.55552 0.01638 0.59388 0.0
H1196 H 0.34577 0.32394 0.97139 0.0
H1197 H 0.2952 0.36089 0.96317 0.0
H1198 H 0.34308 0.31307 0.92919 0.0
H1199 H 0.29249 0.34981 0.9204 0.0
H1200 H 0.27964 0.30396 0.84499 0.0
H1201 H 0.28116 0.31488 0.88729 0.0
H1202 H 0.35236 0.3323 0.89629 0.0
H1203 H 0.35086 0.32099 0.85393 0.0
C1204 C 0.33381 0.32952 0.9606 0.0
C1205 C 0.32058 0.34322 0.97085 0.0
C1206 C 0.33249 0.32349 0.93627 0.0
C1207 C 0.31773 0.33071 0.92129 0.0
C1208 C 0.304 0.34385 0.93142 0.0
C1209 C 0.30553 0.35021 0.95593 0.0
C1210 C 0.29567 0.31012 0.85595 0.0
C1211 C 0.31514 0.3115 0.84597 0.0
C1212 C 0.29651 0.31655 0.88025 0.0
C1213 C 0.31685 0.32449 0.89529 0.0
C1214 C 0.33636 0.32595 0.8853 0.0
C1215 C 0.33552 0.31954 0.86096 0.0
H1216 H 1.00356 0.09869 0.34185 0.0
H1217 H 0.96467 0.02436 0.3306 0.0
H1218 H 0.01953 0.09565 0.38112 0.0
H1219 H 0.97977 0.02128 0.36955 0.0
H1220 H 0.02182 0.01102 0.43356 0.0
H1221 H 1.00617 0.01593 0.39546 0.0
H1222 H 0.02229 0.09327 0.42075 0.0
H1223 H 0.0384 0.08815 0.45893 0.0
C1224 C 0.99778 0.08186 0.34788 0.0
C1225 C 0.98204 0.06202 0.33262 0.0
C1226 C 1.00718 0.07994 0.37072 0.0
C1227 C 1.00154 0.05802 0.37955 0.0
C1228 C 0.98545 0.03849 0.36422 0.0
C1229 C 0.97625 0.04039 0.34156 0.0
C1230 C 0.02214 0.02919 0.43121 0.0
C1231 C 0.03163 0.04906 0.45013 0.0
C1232 C 0.01278 0.03211 0.40894 0.0
C1233 C 0.01225 0.05514 0.40398 0.0
C1234 C 0.02206 0.07509 0.42293 0.0
C1235 C 0.03138 0.07213 0.44529 0.0
H1236 H 0.27753 0.66734 0.6184 0.0
H1237 H 0.31665 0.72486 0.58963 0.0
H1238 H 0.28165 0.69552 0.65545 0.0
H1239 H 0.32101 0.75335 0.62683 0.0
H1240 H 0.30324 0.80063 0.68946 0.0
H1241 H 0.2978 0.77302 0.65132 0.0
H1242 H 0.31154 0.71759 0.6868 0.0
H1243 H 0.31587 0.74424 0.72417 0.0
C1244 C 0.28742 0.68597 0.62037 0.0
C1245 C 0.2973 0.69407 0.60182 0.0
C1246 C 0.28968 0.70208 0.64135 0.0
C1247 C 0.30163 0.72654 0.64386 0.0
C1248 C 0.31162 0.73459 0.62519 0.0
C1249 C 0.30953 0.71833 0.60423 0.0
C1250 C 0.30487 0.78245 0.68886 0.0
C1251 C 0.30983 0.77444 0.70953 0.0
C1252 C 0.30193 0.7668 0.66723 0.0
C1253 C 0.30424 0.74325 0.66629 0.0
C1254 C 0.30923 0.73546 0.68707 0.0
C1255 C 0.31177 0.7508 0.70846 0.0
H1256 H 0.67667 0.06681 0.82723 0.0
H1257 H 0.63224 0.08911 0.78022 0.0
H1258 H 0.66148 0.08422 0.86068 0.0
H1259 H 0.61832 0.1081 0.8131 0.0
H1260 H 0.57991 0.10562 0.87533 0.0
H1261 H 0.59651 0.09898 0.8408 0.0
H1262 H 0.66131 0.12239 0.88304 0.0
H1263 H 0.64412 0.12768 0.91826 0.0
C1264 C 0.66345 0.07515 0.82422 0.0
C1265 C 0.65534 0.07672 0.8016 0.0
C1266 C 0.65518 0.08566 0.8432 0.0
C1267 C 0.63913 0.09814 0.83951 0.0
C1268 C 0.63061 0.09866 0.81659 0.0
C1269 C 0.63847 0.08775 0.79779 0.0
C1270 C 0.5978 0.1108 0.87726 0.0
C1271 C 0.61076 0.11632 0.89941 0.0
C1272 C 0.60738 0.10669 0.85733 0.0
C1273 C 0.63015 0.10911 0.85937 0.0
C1274 C 0.64357 0.11935 0.88119 0.0
C1275 C 0.63386 0.12303 0.90125 0.0
H1276 H 0.34457 0.32866 0.10267 0.0
H1277 H 0.29529 0.36786 0.10732 0.0
H1278 H 0.33664 0.31498 0.13857 0.0
H1279 H 0.28726 0.35387 0.1439 0.0
H1280 H 0.26508 0.299 0.19488 0.0
H1281 H 0.27156 0.31573 0.15947 0.0
H1282 H 0.3419 0.3315 0.18066 0.0
H1283 H 0.33538 0.31507 0.21597 0.0
C1284 C 0.33198 0.33447 0.11133 0.0
C1285 C 0.32067 0.34957 0.10186 0.0
C1286 C 0.32754 0.32666 0.13218 0.0
C1287 C 0.31147 0.33345 0.14446 0.0
C1288 C 0.29975 0.34821 0.13493 0.0
C1289 C 0.30439 0.35632 0.11397 0.0
C1290 C 0.28192 0.30632 0.19207 0.0
C1291 C 0.29969 0.30575 0.20833 0.0
C1292 C 0.28565 0.316 0.17179 0.0
C1293 C 0.30726 0.32495 0.16701 0.0
C1294 C 0.32501 0.32463 0.18354 0.0
C1295 C 0.32129 0.31535 0.20394 0.0
H1296 H 0.27941 1.00142 0.99485 0.0
H1297 H 0.26022 0.94603 0.03585 0.0
H1298 H 0.25137 0.01976 0.00835 0.0
H1299 H 0.23235 0.96476 0.04968 0.0
H1300 H 0.16818 0.99128 0.0411 0.0
H1301 H 0.1971 0.97159 0.03316 0.0
H1302 H 0.2451 0.04189 0.04548 0.0
H1303 H 0.21617 0.06155 0.05227 0.0
C1304 C 0.2692 0.99317 1.00672 0.0
C1305 C 0.27199 0.97234 0.01427 0.0
C1306 C 0.25332 1.00379 0.01464 0.0
C1307 C 0.23997 0.99383 0.0303 0.0
C1308 C 0.24244 0.97273 0.03757 0.0
C1309 C 0.25835 0.96205 0.02962 0.0
C1310 C 0.18495 1.00247 0.0422 0.0
C1311 C 0.18991 0.02793 0.04694 0.0
C1312 C 0.20149 0.99122 0.03793 0.0
C1313 C 0.22319 1.0053 0.03836 0.0
C1314 C 0.22838 0.03068 0.04462 0.0
C1315 C 0.21187 0.0419 0.04877 0.0
H1316 H 0.73066 0.62241 0.98318 0.0
H1317 H 0.70835 0.67937 0.02158 0.0
H1318 H 0.69553 0.59285 0.9851 0.0
H1319 H 0.67381 0.65037 0.02343 0.0
H1320 H 0.62059 0.59022 0.04075 0.0
H1321 H 0.65756 0.61655 0.04089 0.0
H1322 H 0.65579 0.58293 0.96891 0.0
H1323 H 0.61897 0.55644 0.96894 0.0
C1324 C 0.71839 0.62858 0.99213 0.0
C1325 C 0.72224 0.65329 1.00199 0.0
C1326 C 0.69822 0.61172 0.99314 0.0
C1327 C 0.68174 0.61919 1.00444 0.0
C1328 C 0.68606 0.6438 0.01481 0.0
C1329 C 0.70589 0.66053 0.01352 0.0
C1330 C 0.62809 0.5885 0.02496 0.0
C1331 C 0.61677 0.57134 1.00481 0.0
C1332 C 0.64931 0.60359 0.025 0.0
C1333 C 0.65977 0.60191 1.00489 0.0
C1334 C 0.64846 0.58454 0.98481 0.0
C1335 C 0.62723 0.56952 0.98476 0.0
H1336 H 0.74155 0.46825 0.26478 0.0
H1337 H 0.69253 0.42099 0.2944 0.0
H1338 H 0.76235 0.43745 0.2615 0.0
H1339 H 0.71289 0.39105 0.29147 0.0
H1340 H 0.74469 0.32854 0.274 0.0
H1341 H 0.7249 0.35957 0.27511 0.0
H1342 H 0.7854 0.41333 0.27308 0.0
H1343 H 0.80509 0.38194 0.27179 0.0
C1344 C 0.73488 0.45147 0.27056 0.0
C1345 C 0.71461 0.4481 0.27989 0.0
C1346 C 0.74713 0.43338 0.2688 0.0
C1347 C 0.73993 0.41052 0.27601 0.0
C1348 C 0.71968 0.40743 0.28512 0.0
C1349 C 0.7077 0.42532 0.287 0.0
C1350 C 0.75401 0.34688 0.27372 0.0
C1351 C 0.77703 0.35179 0.27278 0.0
C1352 C 0.74244 0.3653 0.27457 0.0
C1353 C 0.75287 0.39022 0.27443 0.0
C1354 C 0.77593 0.395 0.27316 0.0
C1355 C 0.78754 0.37657 0.2725 0.0
H1356 H 0.88349 0.4375 0.50639 0.0
H1357 H 0.87998 0.51097 0.52813 0.0
H1358 H 0.92017 0.45249 0.497 0.0
H1359 H 0.91774 0.52626 0.51898 0.0
H1360 H 0.9797 0.53235 0.47553 0.0
H1361 H 0.94025 0.51964 0.47901 0.0
H1362 H 0.95461 0.47857 0.53091 0.0
H1363 H 0.9939 0.49166 0.52784 0.0
C1364 C 0.89051 0.45693 0.50877 0.0
C1365 C 0.87919 0.47322 0.51805 0.0
C1366 C 0.91145 0.46541 0.50345 0.0
C1367 C 0.9215 0.49034 0.50747 0.0
C1368 C 0.90994 0.50688 0.5157 0.0
C1369 C 0.88863 0.49827 0.521 0.0
C1370 C 0.97419 0.52016 0.48724 0.0
C1371 C 0.98939 0.51247 0.50115 0.0
C1372 C 0.9519 0.51334 0.48949 0.0
C1373 C 0.9448 0.49843 0.5053 0.0
C1374 C 0.95997 0.49018 0.51866 0.0
C1375 C 0.98223 0.49739 0.51677 0.0
H1376 H 0.38393 0.05052 0.23654 0.0
H1377 H 0.41707 0.09914 0.3018 0.0
H1378 H 0.36316 0.07898 0.2287 0.0
H1379 H 0.39584 0.12714 0.29429 0.0
H1380 H 0.37071 0.18277 0.26271 0.0
H1381 H 0.39276 0.1547 0.268 0.0
H1382 H 0.33435 0.09406 0.24389 0.0
H1383 H 0.31248 0.12198 0.23847 0.0
C1384 C 0.38661 0.06715 0.24929 0.0
C1385 C 0.40209 0.07266 0.26974 0.0
C1386 C 0.37471 0.08339 0.24483 0.0
C1387 C 0.37803 0.10528 0.26084 0.0
C1388 C 0.39327 0.11059 0.28145 0.0
C1389 C 0.40522 0.09442 0.28587 0.0
C1390 C 0.36268 0.16342 0.2585 0.0
C1391 C 0.33995 0.15445 0.25018 0.0
C1392 C 0.37524 0.14741 0.26155 0.0
C1393 C 0.36519 0.12226 0.25639 0.0
C1394 C 0.34256 0.11335 0.24764 0.0
C1395 C 0.33006 0.12932 0.24454 0.0
H1396 H 0.33847 0.15358 0.53189 0.0
H1397 H 0.35998 0.16445 0.46579 0.0
H1398 H 0.36715 0.13307 0.53931 0.0
H1399 H 0.38852 0.14454 0.47329 0.0
H1400 H 0.42015 0.08476 0.47852 0.0
H1401 H 0.39083 0.10429 0.47427 0.0
H1402 H 0.40778 0.13915 0.54742 0.0
H1403 H 0.43727 0.11908 0.55175 0.0
C1404 C 0.34922 0.15153 0.51892 0.0
C1405 C 0.34673 0.16047 0.4981 0.0
C1406 C 0.36579 0.13997 0.52327 0.0
C1407 C 0.38003 0.13688 0.50678 0.0
C1408 C 0.37761 0.14612 0.48619 0.0
C1409 C 0.36126 0.15771 0.48193 0.0
C1410 C 0.41783 0.09678 0.49368 0.0
C1411 C 0.4314 0.10076 0.51533 0.0
C1412 C 0.40095 0.10799 0.49126 0.0
C1413 C 0.39713 0.1237 0.51037 0.0
C1414 C 0.41022 0.12714 0.53232 0.0
C1415 C 0.42716 0.11574 0.53479 0.0
H1416 H 0.73991 0.58631 0.26154 0.0
H1417 H 0.70365 0.62202 0.30684 0.0
H1418 H 0.76246 0.62612 0.25711 0.0
H1419 H 0.72618 0.66135 0.30313 0.0
H1420 H 0.75895 0.73322 0.2822 0.0
H1421 H 0.73617 0.69312 0.28473 0.0
H1422 H 0.78914 0.66246 0.26775 0.0
H1423 H 0.81126 0.70226 0.26439 0.0
C1424 C 0.73697 0.60252 0.27105 0.0
C1425 C 0.71971 0.60025 0.28477 0.0
C1426 C 0.75 0.62578 0.26845 0.0
C1427 C 0.74653 0.64801 0.2795 0.0
C1428 C 0.72959 0.64545 0.29365 0.0
C1429 C 0.71661 0.6224 0.29608 0.0
C1430 C 0.76567 0.71801 0.27851 0.0
C1431 C 0.78725 0.72173 0.27274 0.0
C1432 C 0.75256 0.69455 0.28036 0.0
C1433 C 0.76033 0.67347 0.27665 0.0
C1434 C 0.78183 0.67737 0.27058 0.0
C1435 C 0.79481 0.7007 0.26875 0.0
H1436 H 0.88275 0.49264 0.76707 0.0
H1437 H 0.92385 0.44353 0.76543 0.0
H1438 H 0.85199 0.46081 0.77453 0.0
H1439 H 0.89326 0.41209 0.77308 0.0
H1440 H 0.85318 0.37903 0.82182 0.0
H1441 H 0.87592 0.41753 0.81502 0.0
H1442 H 0.82939 0.41248 0.75371 0.0
H1443 H 0.80672 0.37412 0.76051 0.0
C1444 C 0.88495 0.47486 0.76767 0.0
C1445 C 0.90562 0.47048 0.76625 0.0
C1446 C 0.86753 0.45691 0.7721 0.0
C1447 C 0.87096 0.43481 0.77534 0.0
C1448 C 0.89079 0.42953 0.77134 0.0
C1449 C 0.90807 0.44729 0.7666 0.0
C1450 C 0.84735 0.3869 0.8077 0.0
C1451 C 0.82873 0.37392 0.79138 0.0
C1452 C 0.86031 0.40862 0.8037 0.0
C1453 C 0.85435 0.4172 0.78359 0.0
C1454 C 0.83411 0.4059 0.76922 0.0
C1455 C 0.82128 0.38414 0.77311 0.0
H1456 H 0.06495 0.8711 0.09624 0.0
H1457 H 0.12651 0.88771 0.06872 0.0
H1458 H 0.05551 0.90496 0.08134 0.0
H1459 H 0.11709 0.92084 0.05373 0.0
H1460 H 0.10669 0.99458 0.05075 0.0
H1461 H 0.11419 0.96044 0.06574 0.0
H1462 H 0.04529 0.92051 0.04663 0.0
H1463 H 0.03768 0.95514 0.03188 0.0
C1464 C 0.0765 0.88192 0.08709 0.0
C1465 C 0.0966 0.87653 0.08391 0.0
C1466 C 0.07101 0.90129 0.07834 0.0
C1467 C 0.08556 0.91604 0.06636 0.0
C1468 C 0.10554 0.91044 0.06316 0.0
C1469 C 0.11091 0.89113 0.07171 0.0
C1470 C 0.09306 0.97855 0.04963 0.0
C1471 C 0.07156 0.97781 0.03991 0.0
C1472 C 0.0974 0.95875 0.05818 0.0
C1473 C 0.08043 0.93735 0.05744 0.0
C1474 C 0.05884 0.9366 0.04778 0.0
C1475 C 0.05449 0.95646 0.03907 0.0
H1476 H 0.97203 0.28783 0.86166 0.0
H1477 H 0.92403 0.24457 0.89589 0.0
H1478 H 0.94256 0.29866 0.83944 0.0
H1479 H 0.89438 0.25427 0.873 0.0
H1480 H 0.84399 0.28903 0.84108 0.0
H1481 H 0.87412 0.28066 0.86541 0.0
H1482 H 0.91396 0.28895 0.81001 0.0
H1483 H 0.88476 0.29835 0.78683 0.0
C1484 C 0.95513 0.28007 0.86402 0.0
C1485 C 0.95063 0.26505 0.88051 0.0
C1486 C 0.93797 0.28631 0.8512 0.0
C1487 C 0.91555 0.27749 0.85409 0.0
C1488 C 0.91116 0.26202 0.8703 0.0
C1489 C 0.92831 0.25608 0.8833 0.0
C1490 C 0.85937 0.28949 0.83438 0.0
C1491 C 0.86179 0.29456 0.81192 0.0
C1492 C 0.87671 0.28433 0.84822 0.0
C1493 C 0.89698 0.28395 0.83999 0.0
C1494 C 0.89919 0.2894 0.81761 0.0
C1495 C 0.88211 0.29468 0.80403 0.0
H1496 H 0.60054 0.24724 0.54034 0.0
H1497 H 0.57736 0.23464 0.60533 0.0
H1498 H 0.59412 0.20345 0.5271 0.0
H1499 H 0.57148 0.19097 0.59224 0.0
H1500 H 0.59373 0.12019 0.57046 0.0
H1501 H 0.59935 0.16411 0.58239 0.0
H1502 H 0.55925 0.1639 0.51803 0.0
H1503 H 0.55296 0.11985 0.50653 0.0
C1504 C 0.59385 0.23514 0.5517 0.0
C1505 C 0.58933 0.24448 0.57385 0.0
C1506 C 0.59023 0.21009 0.54412 0.0
C1507 C 0.58248 0.19385 0.55873 0.0
C1508 C 0.57766 0.2031 0.58071 0.0
C1509 C 0.58082 0.2281 0.58809 0.0
C1510 C 0.58625 0.1296 0.55884 0.0
C1511 C 0.57285 0.11669 0.53763 0.0
C1512 C 0.58934 0.15465 0.56572 0.0
C1513 C 0.57962 0.16737 0.55119 0.0
C1514 C 0.5669 0.15455 0.52958 0.0
C1515 C 0.56327 0.1294 0.52303 0.0
H1516 H 0.57948 0.82653 0.37276 0.0
H1517 H 0.58109 0.75719 0.38914 0.0
H1518 H 0.61344 0.82922 0.35587 0.0
H1519 H 0.61518 0.7599 0.37217 0.0
H1520 H 0.68779 0.78478 0.35998 0.0
H1521 H 0.6548 0.78327 0.37857 0.0
H1522 H 0.62605 0.80965 0.32162 0.0
H1523 H 0.65862 0.81066 0.30276 0.0
C1524 C 0.58702 0.81179 0.3727 0.0
C1525 C 0.57735 0.79153 0.38216 0.0
C1526 C 0.60651 0.81331 0.36292 0.0
C1527 C 0.6171 0.79477 0.36256 0.0
C1528 C 0.6076 0.77462 0.37228 0.0
C1529 C 0.58791 0.77294 0.38181 0.0
C1530 C 0.67441 0.79013 0.35129 0.0
C1531 C 0.67605 0.7978 0.32972 0.0
C1532 C 0.65545 0.78927 0.36201 0.0
C1533 C 0.63766 0.79625 0.35159 0.0
C1534 C 0.6395 0.80441 0.33033 0.0
C1535 C 0.65833 0.80509 0.31953 0.0
H1536 H 0.12774 0.29583 0.46883 0.0
H1537 H 0.08052 0.26443 0.40577 0.0
H1538 H 0.11544 0.25844 0.48363 0.0
H1539 H 0.06706 0.22756 0.42099 0.0
H1540 H 0.06109 0.15789 0.45073 0.0
H1541 H 0.07491 0.19232 0.4322 0.0
H1542 H 0.08271 0.24134 0.49861 0.0
H1543 H 0.07048 0.20714 0.51731 0.0
C1544 C 0.11506 0.28062 0.45804 0.0
C1545 C 0.10527 0.28245 0.43619 0.0
C1546 C 0.10774 0.25945 0.46655 0.0
C1547 C 0.09002 0.24029 0.4536 0.0
C1548 C 0.08089 0.24189 0.43121 0.0
C1549 C 0.0886 0.26286 0.42249 0.0
C1550 C 0.06577 0.17607 0.46128 0.0
C1551 C 0.0649 0.17986 0.48546 0.0
C1552 C 0.07353 0.19573 0.45067 0.0
C1553 C 0.08036 0.21943 0.46411 0.0
C1554 C 0.0782 0.22322 0.48797 0.0
C1555 C 0.07072 0.20363 0.49858 0.0
H1556 H 0.55458 0.26755 0.23841 0.0
H1557 H 0.57046 0.24721 0.16937 0.0
H1558 H 0.59391 0.2794 0.25473 0.0
H1559 H 0.60912 0.25684 0.18543 0.0
H1560 H 0.67802 0.28243 0.21291 0.0
H1561 H 0.64147 0.28605 0.20163 0.0
H1562 H 0.62084 0.26016 0.26332 0.0
H1563 H 0.65821 0.2593 0.27603 0.0
C1564 C 0.56661 0.26567 0.22687 0.0
C1565 C 0.55991 0.25666 0.20282 0.0
C1566 C 0.589 0.27228 0.2361 0.0
C1567 C 0.60473 0.26915 0.22141 0.0
C1568 C 0.5977 0.26029 0.19723 0.0
C1569 C 0.57553 0.25448 0.188 0.0
C1570 C 0.66598 0.27843 0.2246 0.0
C1571 C 0.67095 0.27018 0.24523 0.0
C1572 C 0.64485 0.2801 0.21789 0.0
C1573 C 0.62803 0.27274 0.23121 0.0
C1574 C 0.63336 0.26603 0.25262 0.0
C1575 C 0.6547 0.26504 0.25969 0.0
H1576 H 0.6479 0.92194 0.95472 0.0
H1577 H 0.59246 0.90763 0.90018 0.0
H1578 H 0.64048 0.9595 0.9719 0.0
H1579 H 0.58274 0.94248 0.91857 0.0
H1580 H 0.55737 0.99578 0.96136 0.0
H1581 H 0.57736 0.97575 0.93532 0.0
H1582 H 0.61856 0.96787 0.99609 0.0
H1583 H 0.60128 0.99183 0.02106 0.0
C1584 C 0.63462 0.92742 0.94597 0.0
C1585 C 0.62064 0.91209 0.92632 0.0
C1586 C 0.6297 0.94849 0.95625 0.0
C1587 C 0.60992 0.95351 0.94786 0.0
C1588 C 0.5979 0.93967 0.9262 0.0
C1589 C 0.60354 0.91948 0.91534 0.0
C1590 C 0.57137 0.9906 0.96883 0.0
C1591 C 0.57832 0.99612 0.99303 0.0
C1592 C 0.58266 0.97848 0.95395 0.0
C1593 C 0.60007 0.96993 0.96315 0.0
C1594 C 0.60617 0.97479 0.9877 0.0
C1595 C 0.59578 0.98812 1.00231 0.0
H1596 H 0.95529 0.73228 0.7275 0.0
H1597 H 0.93913 0.76868 0.67201 0.0
H1598 H 0.92814 0.74494 0.74869 0.0
H1599 H 0.91104 0.7808 0.69321 0.0
H1600 H 0.87766 0.81567 0.74939 0.0
H1601 H 0.90805 0.8069 0.73067 0.0
H1602 H 0.88788 0.73317 0.74184 0.0
H1603 H 0.85783 0.74204 0.761 0.0
C1604 C 0.94567 0.74273 0.71968 0.0
C1605 C 0.94892 0.74917 0.69795 0.0
C1606 C 0.9302 0.74999 0.73186 0.0
C1607 C 0.91747 0.76353 0.7224 0.0
C1608 C 0.92089 0.77045 0.70084 0.0
C1609 C 0.93671 0.7634 0.68869 0.0
C1610 C 0.88005 0.79775 0.74832 0.0
C1611 C 0.86551 0.77942 0.75658 0.0
C1612 C 0.8972 0.79271 0.73734 0.0
C1613 C 0.90005 0.76939 0.73474 0.0
C1614 C 0.88602 0.75137 0.74382 0.0
C1615 C 0.86885 0.75638 0.75472 0.0
H1616 H 0.1156 0.04592 0.83801 0.0
H1617 H 0.15848 1.00552 0.86245 0.0
H1618 H 0.10038 0.04752 0.87399 0.0
H1619 H 0.14239 1.00668 0.89943 0.0
H1620 H 0.11602 0.02642 0.97352 0.0
H1621 H 0.13485 0.02474 0.93839 0.0
H1622 H 0.07698 0.03126 0.89734 0.0
H1623 H 0.05881 0.03301 0.93177 0.0
C1624 C 0.12191 0.03697 0.85089 0.0
C1625 C 0.13872 0.02543 0.846 0.0
C1626 C 0.11272 0.03778 0.87218 0.0
C1627 C 0.11935 0.02705 0.8908 0.0
C1628 C 0.13633 0.01546 0.88625 0.0
C1629 C 0.14567 0.01459 0.86454 0.0
C1630 C 0.10746 0.02815 0.95717 0.0
C1631 C 0.08561 0.03062 0.95648 0.0
C1632 C 0.1183 0.02679 0.93651 0.0
C1633 C 0.10812 0.02808 0.91389 0.0
C1634 C 0.08638 0.03068 0.91364 0.0
C1635 C 0.07562 0.03169 0.93395 0.0
H1636 H 0.86373 0.39114 0.55749 0.0
H1637 H 0.79986 0.3924 0.57661 0.0
H1638 H 0.87554 0.38427 0.59614 0.0
H1639 H 0.81167 0.38463 0.6154 0.0
H1640 H 0.83587 0.31859 0.64268 0.0
H1641 H 0.82753 0.33864 0.61122 0.0
H1642 H 0.87359 0.4059 0.64866 0.0
H1643 H 0.88199 0.38575 0.68111 0.0
C1644 C 0.85223 0.38982 0.57003 0.0
C1645 C 0.83061 0.39125 0.56411 0.0
C1646 C 0.8592 0.38658 0.59217 0.0
C1647 C 0.84453 0.38439 0.60841 0.0
C1648 C 0.82322 0.38681 0.60296 0.0
C1649 C 0.81637 0.39069 0.58087 0.0
C1650 C 0.84478 0.33747 0.64407 0.0
C1651 C 0.8601 0.35054 0.66398 0.0
C1652 C 0.83955 0.34899 0.62636 0.0
C1653 C 0.84962 0.37366 0.62817 0.0
C1654 C 0.86551 0.38682 0.64748 0.0
C1655 C 0.87053 0.37531 0.66562 0.0
H1656 H 0.45861 0.04167 0.36853 0.0
H1657 H 0.52493 0.07158 0.35544 0.0
H1658 H 0.4724 0.04772 0.41048 0.0
H1659 H 0.53873 0.07789 0.39686 0.0
H1660 H 0.56315 0.08828 0.4685 0.0
H1661 H 0.53902 0.0972 0.43782 0.0
H1662 H 0.4963 0.02391 0.42667 0.0
H1663 H 0.52003 0.01538 0.45778 0.0
C1664 C 0.47597 0.05049 0.37493 0.0
C1665 C 0.49095 0.05632 0.35932 0.0
C1666 C 0.48379 0.05389 0.39871 0.0
C1667 C 0.50652 0.06349 0.4068 0.0
C1668 C 0.52106 0.07102 0.39118 0.0
C1669 C 0.51331 0.06723 0.36751 0.0
C1670 C 0.54842 0.07431 0.4596 0.0
C1671 C 0.5436 0.051 0.46461 0.0
C1672 C 0.5345 0.07948 0.44246 0.0
C1673 C 0.51605 0.06117 0.42986 0.0
C1674 C 0.51031 0.03842 0.43631 0.0
C1675 C 0.52408 0.03337 0.45367 0.0
H1676 H 0.81685 0.72026 0.07987 0.0
H1677 H 0.77532 0.76771 0.07171 0.0
H1678 H 0.81927 0.73095 0.12244 0.0
H1679 H 0.7779 0.77848 0.11407 0.0
H1680 H 0.76718 0.77157 0.18961 0.0
H1681 H 0.76515 0.7612 0.147 0.0
H1682 H 0.83427 0.76374 0.15575 0.0
H1683 H 0.83625 0.77357 0.19793 0.0
C1684 C 0.80852 0.73324 0.08711 0.0
C1685 C 0.79598 0.74315 0.07223 0.0
C1686 C 0.80988 0.73938 0.11156 0.0
C1687 C 0.79861 0.75546 0.12179 0.0
C1688 C 0.78648 0.76574 0.1069 0.0
C1689 C 0.78526 0.75975 0.08252 0.0
C1690 C 0.78191 0.76985 0.18244 0.0
C1691 C 0.80183 0.77337 0.19738 0.0
C1692 C 0.7808 0.76403 0.15797 0.0
C1693 C 0.79956 0.76155 0.14783 0.0
C1694 C 0.8194 0.76508 0.16282 0.0
C1695 C 0.82052 0.77089 0.18715 0.0
H1696 H 0.1014 1.0011 0.70947 0.0
H1697 H 0.16647 0.0369 0.69767 0.0
H1698 H 0.08593 1.00395 0.67012 0.0
H1699 H 0.1509 0.04061 0.65845 0.0
H1700 H 0.10971 0.06816 0.60031 0.0
H1701 H 0.1265 0.06273 0.6382 0.0
H1702 H 0.08325 0.99009 0.62612 0.0
H1703 H 0.06716 0.99521 0.58778 0.0
C1704 C 0.11266 1.009 0.69831 0.0
C1705 C 0.1356 0.01776 0.70711 0.0
C1706 C 0.10363 0.01088 0.67548 0.0
C1707 C 0.11683 0.02257 0.66029 0.0
C1708 C 0.13981 0.03144 0.66908 0.0
C1709 C 0.14894 0.02892 0.69173 0.0
C1710 C 0.10373 0.05091 0.60555 0.0
C1711 C 0.08682 0.03218 0.59029 0.0
C1712 C 0.11358 0.0477 0.62753 0.0
C1713 C 0.10661 0.02584 0.63598 0.0
C1714 C 0.0894 1.00729 0.62086 0.0
C1715 C 0.08006 0.01022 0.59852 0.0
H1716 H 0.85641 0.41034 0.43931 0.0
H1717 H 0.79079 0.3685 0.44533 0.0
H1718 H 0.8553 0.3832 0.4027 0.0
H1719 H 0.78952 0.34152 0.40811 0.0
H1720 H 0.80644 0.28358 0.35631 0.0
H1721 H 0.80974 0.31072 0.39404 0.0
H1722 H 0.83461 0.37271 0.36266 0.0
H1723 H 0.83146 0.34587 0.32536 0.0
C1724 C 0.8416 0.39554 0.43257 0.0
C1725 C 0.82368 0.3914 0.44508 0.0
C1726 C 0.841 0.38004 0.41167 0.0
C1727 C 0.82246 0.36021 0.4029 0.0
C1728 C 0.80416 0.35652 0.41489 0.0
C1729 C 0.80474 0.37211 0.43589 0.0
C1730 C 0.81305 0.30297 0.35773 0.0
C1731 C 0.81873 0.31272 0.3381 0.0
C1732 C 0.81468 0.31844 0.37911 0.0
C1733 C 0.82214 0.34369 0.38099 0.0
C1734 C 0.8289 0.35328 0.36163 0.0
C1735 C 0.82719 0.3379 0.34033 0.0
H1736 H 0.50729 0.06228 0.22362 0.0
H1737 H 0.44516 0.01342 0.23024 0.0
H1738 H 0.50275 0.04228 0.18234 0.0
H1739 H 0.44117 0.9928 0.18953 0.0
H1740 H 0.45474 0.99136 0.10383 0.0
H1741 H 0.44379 1.00396 0.14176 0.0
H1742 H 0.50202 0.99191 0.17698 0.0
H1743 H 0.51368 0.9808 0.14002 0.0
C1744 C 0.49237 0.04799 0.21592 0.0
C1745 C 0.4765 0.03939 0.22958 0.0
C1746 C 0.48978 0.03647 0.1926 0.0
C1747 C 0.47177 0.01592 0.18335 0.0
C1748 C 0.45498 1.00873 0.19644 0.0
C1749 C 0.45729 0.02058 0.21954 0.0
C1750 C 0.46473 0.99042 0.11965 0.0
C1751 C 0.4859 0.98697 0.11896 0.0
C1752 C 0.45845 0.99766 0.14124 0.0
C1753 C 0.47287 1.00006 0.16179 0.0
C1754 C 0.49118 0.99091 0.16101 0.0
C1755 C 0.49764 0.98415 0.13962 0.0
H1756 H 0.7642 0.74063 0.93318 0.0
H1757 H 0.82553 0.72109 0.93933 0.0
H1758 H 0.77077 0.7524 0.89618 0.0
H1759 H 0.83216 0.73294 0.90156 0.0
H1760 H 0.8461 0.78369 0.84664 0.0
H1761 H 0.84076 0.7685 0.88282 0.0
H1762 H 0.77143 0.73658 0.85594 0.0
H1763 H 0.7768 0.75215 0.81993 0.0
C1764 C 0.77917 0.73876 0.92663 0.0
C1765 C 0.79434 0.72988 0.93949 0.0
C1766 C 0.78283 0.74536 0.90511 0.0
C1767 C 0.80191 0.74352 0.89552 0.0
C1768 C 0.81727 0.7347 0.90834 0.0
C1769 C 0.81344 0.72776 0.92997 0.0
C1770 C 0.82975 0.77319 0.84835 0.0
C1771 C 0.81188 0.76915 0.83031 0.0
C1772 C 0.8267 0.76435 0.86912 0.0
C1773 C 0.80564 0.75129 0.87255 0.0
C1774 C 0.78786 0.7468 0.8542 0.0
C1775 C 0.79094 0.75556 0.83339 0.0
H1776 H 0.8639 0.13468 0.04199 0.0
H1777 H 0.82855 0.09025 0.97562 0.0
H1778 H 0.89471 0.11736 0.03717 0.0
H1779 H 0.85956 0.07333 0.97064 0.0
H1780 H 0.90388 0.02553 0.98756 0.0
H1781 H 0.8749 0.04577 0.99025 0.0
H1782 H 0.92409 0.11513 0.01273 0.0
H1783 H 0.95332 0.09483 0.00979 0.0
C1784 C 0.8628 0.12141 0.02626 0.0
C1785 C 0.84375 0.11365 0.00925 0.0
C1786 C 0.88051 0.11164 0.02345 0.0
C1787 C 0.87943 0.09393 1.0036 0.0
C1788 C 0.86066 0.08673 0.98627 0.0
C1789 C 0.84297 0.0965 0.98907 0.0
C1790 C 0.90856 0.04513 0.99274 0.0
C1791 C 0.93087 0.05858 0.99834 0.0
C1792 C 0.89195 0.05671 0.99428 0.0
C1793 C 0.89727 0.08201 1.00153 0.0
C1794 C 0.91957 0.09556 1.00725 0.0
C1795 C 0.93625 0.08394 1.00561 0.0
H1796 H 0.38457 0.4631 0.05255 0.0
H1797 H 0.41112 0.40331 0.02968 0.0
H1798 H 0.41979 0.49171 0.04904 0.0
H1799 H 0.44555 0.43133 0.02623 0.0
H1800 H 0.49937 0.48599 1.00244 0.0
H1801 H 0.46217 0.46035 1.00302 0.0
H1802 H 0.45938 0.50542 0.06843 0.0
H1803 H 0.49648 0.5309 0.06784 0.0
C1804 C 0.39777 0.45604 0.04676 0.0
C1805 C 0.39493 0.43082 0.0417 0.0
C1806 C 0.41799 0.4724 0.04479 0.0
C1807 C 0.43562 0.46388 0.03724 0.0
C1808 C 0.43243 0.4387 0.03178 0.0
C1809 C 0.41257 0.42254 0.03405 0.0
C1810 C 0.49081 0.4904 0.01693 0.0
C1811 C 0.50106 0.51037 0.03519 0.0
C1812 C 0.46945 0.47572 0.0173 0.0
C1813 C 0.45764 0.48074 0.03583 0.0
C1814 C 0.46776 0.50108 0.05378 0.0
C1815 C 0.48919 0.51556 0.05354 0.0
H1816 H 0.3686 0.61551 0.78327 0.0
H1817 H 0.42638 0.65425 0.75861 0.0
H1818 H 0.35346 0.6496 0.78406 0.0
H1819 H 0.41073 0.68923 0.75906 0.0
H1820 H 0.38154 0.75809 0.77563 0.0
H1821 H 0.39909 0.72464 0.77371 0.0
H1822 H 0.33534 0.67413 0.77049 0.0
H1823 H 0.31829 0.70719 0.77274 0.0
C1824 C 0.37833 0.63123 0.7777 0.0
C1825 C 0.39917 0.63082 0.77073 0.0
C1826 C 0.36924 0.65142 0.77801 0.0
C1827 C 0.38012 0.67343 0.77145 0.0
C1828 C 0.40115 0.67331 0.76443 0.0
C1829 C 0.41031 0.65272 0.76396 0.0
C1830 C 0.37114 0.73989 0.77468 0.0
C1831 C 0.34801 0.73632 0.77465 0.0
C1832 C 0.3814 0.7202 0.77341 0.0
C1833 C 0.36932 0.69546 0.77216 0.0
C1834 C 0.34617 0.69217 0.77194 0.0
C1835 C 0.33602 0.71168 0.77312 0.0
H1836 H 0.22915 0.59669 0.48041 0.0
H1837 H 0.23798 0.59302 0.55372 0.0
H1838 H 0.18984 0.57878 0.47746 0.0
H1839 H 0.19838 0.57427 0.55082 0.0
H1840 H 0.1329 0.59641 0.54651 0.0
H1841 H 0.17162 0.59701 0.54827 0.0
H1842 H 0.15673 0.5503 0.4796 0.0
H1843 H 0.11848 0.55085 0.47737 0.0
C1844 C 0.22273 0.59061 0.49553 0.0
C1845 C 0.23626 0.59654 0.51734 0.0
C1846 C 0.20016 0.5804 0.49393 0.0
C1847 C 0.19094 0.57593 0.51415 0.0
C1848 C 0.20504 0.57824 0.53513 0.0
C1849 C 0.22773 0.58851 0.53671 0.0
C1850 C 0.13805 0.58656 0.53172 0.0
C1851 C 0.12288 0.5741 0.5116 0.0
C1852 C 0.16008 0.58642 0.53291 0.0
C1853 C 0.16717 0.57341 0.51415 0.0
C1854 C 0.15183 0.56064 0.49423 0.0
C1855 C 0.12996 0.56121 0.49285 0.0
H1856 H 0.697 0.97634 0.74327 0.0
H1857 H 0.74163 0.03294 0.79717 0.0
H1858 H 0.71793 0.94824 0.75181 0.0
H1859 H 0.76213 1.00463 0.80607 0.0
H1860 H 0.80706 0.95506 0.79391 0.0
H1861 H 0.78598 0.98341 0.78653 0.0
H1862 H 0.72514 0.9276 0.78415 0.0
H1863 H 0.74636 0.89907 0.791 0.0
C1864 C 0.71119 0.9827 0.75701 0.0
C1865 C 0.71769 1.00668 0.76971 0.0
C1866 C 0.72302 0.96662 0.76198 0.0
C1867 C 0.74145 0.97437 0.77967 0.0
C1868 C 0.748 0.99837 0.79226 0.0
C1869 C 0.7362 0.01445 0.78729 0.0
C1870 C 0.7892 0.94911 0.79222 0.0
C1871 C 0.77816 0.92521 0.79313 0.0
C1872 C 0.77719 0.9652 0.78797 0.0
C1873 C 0.75404 0.95755 0.78481 0.0
C1874 C 0.74301 0.93372 0.78625 0.0
C1875 C 0.75504 0.91756 0.79031 0.0
H1876 H 0.77483 0.93421 0.48596 0.0
H1877 H 0.76493 0.92064 0.55502 0.0
H1878 H 0.74331 0.95085 0.48409 0.0
H1879 H 0.73342 0.93773 0.55329 0.0
H1880 H 0.66535 0.94931 0.5331 0.0
H1881 H 0.69574 0.93068 0.53393 0.0
H1882 H 0.73259 0.98589 0.50079 0.0
H1883 H 0.70247 1.00468 0.50023 0.0
C1884 C 0.766 0.93486 0.50085 0.0
C1885 C 0.77263 0.92619 0.52073 0.0
C1886 C 0.74792 0.94456 0.4998 0.0
C1887 C 0.73577 0.94581 0.51856 0.0
C1888 C 0.74222 0.9369 0.53839 0.0
C1889 C 0.76045 0.92729 0.5395 0.0
C1890 C 0.67996 0.95759 0.52609 0.0
C1891 C 0.68131 0.97864 0.51666 0.0
C1892 C 0.69745 0.94687 0.52658 0.0
C1893 C 0.71677 0.95678 0.51754 0.0
C1894 C 0.71791 0.9775 0.50766 0.0
C1895 C 0.70051 0.98828 0.50726 0.0
H1896 H 0.39367 0.47193 0.72116 0.0
H1897 H 0.40058 0.4933 0.796 0.0
H1898 H 0.37185 0.43119 0.72311 0.0
H1899 H 0.3786 0.45241 0.79825 0.0
H1900 H 0.35464 0.36824 0.79729 0.0
H1901 H 0.37581 0.41001 0.7963 0.0
H1902 H 0.33943 0.40391 0.72806 0.0
H1903 H 0.31872 0.36267 0.72913 0.0
C1904 C 0.38981 0.46832 0.73806 0.0
C1905 C 0.39821 0.48691 0.75823 0.0
C1906 C 0.37729 0.44451 0.7393 0.0
C1907 C 0.37287 0.43758 0.76089 0.0
C1908 C 0.38132 0.45627 0.78114 0.0
C1909 C 0.39368 0.48022 0.77982 0.0
C1910 C 0.35123 0.37572 0.78199 0.0
C1911 C 0.33469 0.36143 0.76326 0.0
C1912 C 0.36337 0.40006 0.78145 0.0
C1913 C 0.35979 0.41126 0.76203 0.0
C1914 C 0.34337 0.39664 0.74333 0.0
C1915 C 0.33119 0.37261 0.744 0.0
H1916 H 0.18276 0.63471 0.26569 0.0
H1917 H 0.23084 0.59399 0.27157 0.0
H1918 H 0.21238 0.67122 0.26713 0.0
H1919 H 0.26063 0.63114 0.27345 0.0
H1920 H 0.29094 0.72305 0.30515 0.0
H1921 H 0.27044 0.68106 0.30426 0.0
H1922 H 0.2428 0.67397 0.23196 0.0
H1923 H 0.26339 0.71596 0.23268 0.0
C1924 C 0.19966 0.63371 0.26797 0.0
C1925 C 0.20461 0.6116 0.26825 0.0
C1926 C 0.21647 0.65445 0.26849 0.0
C1927 C 0.23834 0.65334 0.26973 0.0
C1928 C 0.24364 0.63188 0.27207 0.0
C1929 C 0.22673 0.6109 0.27117 0.0
C1930 C 0.28087 0.71226 0.28894 0.0
C1931 C 0.278 0.72254 0.26916 0.0
C1932 C 0.2695 0.68834 0.2884 0.0
C1933 C 0.25521 0.67488 0.26814 0.0
C1934 C 0.25396 0.6844 0.24768 0.0
C1935 C 0.26555 0.70824 0.24812 0.0
H1936 H 0.54415 0.70288 0.43318 0.0
H1937 H 0.4983 0.70361 0.48278 0.0
H1938 H 0.5547 0.66968 0.44824 0.0
H1939 H 0.5091 0.67136 0.49804 0.0
H1940 H 0.51304 0.59558 0.50317 0.0
H1941 H 0.50463 0.62933 0.48812 0.0
H1942 H 0.5732 0.65738 0.48107 0.0
H1943 H 0.58154 0.62317 0.49621 0.0
C1944 C 0.53636 0.6961 0.4473 0.0
C1945 C 0.52013 0.70594 0.45647 0.0
C1946 C 0.54252 0.67711 0.45609 0.0
C1947 C 0.53264 0.66742 0.47431 0.0
C1948 C 0.51678 0.6777 0.48367 0.0
C1949 C 0.51062 0.69646 0.47491 0.0
C1950 C 0.52637 0.609 0.49855 0.0
C1951 C 0.54798 0.60672 0.50117 0.0
C1952 C 0.52159 0.62855 0.48998 0.0
C1953 C 0.5382 0.64645 0.48337 0.0
C1954 C 0.55989 0.64405 0.48582 0.0
C1955 C 0.56475 0.62456 0.49478 0.0
H1956 H 0.68096 0.3093 0.63521 0.0
H1957 H 0.64511 0.32586 0.69167 0.0
H1958 H 0.71026 0.30498 0.66298 0.0
H1959 H 0.67486 0.32164 0.71979 0.0
H1960 H 0.74454 0.34082 0.7637 0.0
H1961 H 0.71363 0.34241 0.73635 0.0
H1962 H 0.71967 0.27939 0.68992 0.0
H1963 H 0.75094 0.27771 0.71776 0.0
C1964 C 0.6793 0.31216 0.65362 0.0
C1965 C 0.66054 0.31819 0.66107 0.0
C1966 C 0.69614 0.30938 0.66959 0.0
C1967 C 0.6951 0.31284 0.69375 0.0
C1968 C 0.67639 0.31895 0.70134 0.0
C1969 C 0.65926 0.32136 0.68522 0.0
C1970 C 0.73933 0.32716 0.7477 0.0
C1971 C 0.75036 0.30909 0.74303 0.0
C1972 C 0.72136 0.328 0.73203 0.0
C1973 C 0.71385 0.31099 0.71086 0.0
C1974 C 0.72497 0.29291 0.70599 0.0
C1975 C 0.74289 0.29187 0.72196 0.0
H1976 H 1.00183 0.33148 0.99005 0.0
H1977 H 0.04963 0.34613 0.94293 0.0
H1978 H 1.00752 0.37473 1.0032 0.0
H1979 H 0.05593 0.38965 0.95675 0.0
H1980 H 0.04276 0.46399 0.96537 0.0
H1981 H 0.03784 0.42037 0.95341 0.0
H1982 H 0.03161 0.41178 0.0247 0.0
H1983 H 0.03589 0.45536 0.03621 0.0
C1984 C 0.01392 0.34393 0.9828 0.0
C1985 C 0.02522 0.33521 0.96533 0.0
C1986 C 0.01723 0.36885 0.99044 0.0
C1987 C 0.03205 0.38585 0.98094 0.0
C1988 C 0.04404 0.37714 0.96414 0.0
C1989 C 0.04064 0.35215 0.9564 0.0
C1990 C 0.04011 0.45259 0.97832 0.0
C1991 C 0.03954 0.46276 1.00161 0.0
C1992 C 0.03755 0.42768 0.9716 0.0
C1993 C 0.03453 0.41243 0.9881 0.0
C1994 C 0.03369 0.4228 0.01143 0.0
C1995 C 0.03617 0.44773 0.01809 0.0
H1996 H 0.05557 0.83425 0.19982 0.0
H1997 H 0.02591 0.78329 0.13505 0.0
H1998 H 0.0209 0.82348 0.2151 0.0
H1999 H 0.99099 0.77225 0.15059 0.0
H2000 H 0.92674 0.78366 0.17962 0.0
H2001 H 0.96062 0.78932 0.16202 0.0
H2002 H 0.99751 0.79026 0.22866 0.0
H2003 H 0.96412 0.78576 0.24643 0.0
C2004 C 0.04168 0.82063 0.18884 0.0
C2005 C 0.04366 0.80965 0.1662 0.0
C2006 C 0.02176 0.8143 0.1977 0.0
C2007 C 1.00311 0.79682 0.1842 0.0
C2008 C 1.00497 0.78585 0.16145 0.0
C2009 C 0.02504 0.7921 0.1526 0.0
C2010 C 0.94208 0.78504 0.19052 0.0
C2011 C 0.94259 0.78449 0.21458 0.0
C2012 C 0.96149 0.78804 0.18034 0.0
C2013 C 0.98192 0.79064 0.19399 0.0
C2014 C 0.98218 0.78882 0.2177 0.0
C2015 C 0.96287 0.78586 0.22785 0.0
H2016 H 0.53794 0.29703 0.11081 0.0
H2017 H 0.48073 0.32354 0.11857 0.0
H2018 H 0.55223 0.32856 0.08917 0.0
H2019 H 0.49542 0.35558 0.09777 0.0
H2020 H 0.51283 0.39151 0.0379 0.0
H2021 H 0.50047 0.35871 0.05864 0.0
H2022 H 0.56752 0.37187 0.09299 0.0
H2023 H 0.57993 0.40422 0.07111 0.0
C2024 C 0.52847 0.30968 0.10801 0.0
C2025 C 0.50808 0.3077 0.11617 0.0
C2026 C 0.53676 0.32783 0.09577 0.0
C2027 C 0.52486 0.34439 0.0916 0.0
C2028 C 0.50473 0.34272 0.10025 0.0
C2029 C 0.49634 0.32445 0.11226 0.0
C2030 C 0.52486 0.38716 0.04979 0.0
C2031 C 0.54718 0.4002 0.05323 0.0
C2032 C 0.51782 0.3686 0.06179 0.0
C2033 C 0.53295 0.36304 0.07779 0.0
C2034 C 0.55551 0.37572 0.08071 0.0
C2035 C 0.56262 0.39418 0.06835 0.0
H2036 H 0.06725 0.30707 0.31893 0.0
H2037 H 0.0459 0.34324 0.37906 0.0
H2038 H 0.03553 0.31161 0.29334 0.0
H2039 H 0.01498 0.34792 0.3541 0.0
H2040 H 0.97071 0.37008 0.30763 0.0
H2041 H 1.00849 0.37009 0.32123 0.0
H2042 H 0.99208 0.29323 0.29249 0.0
H2043 H 0.95417 0.2934 0.27872 0.0
C2044 C 0.05589 0.31611 0.32649 0.0
C2045 C 0.05849 0.32449 0.35075 0.0
C2046 C 0.03795 0.31873 0.31202 0.0
C2047 C 0.02312 0.33035 0.32184 0.0
C2048 C 0.0264 0.33931 0.34605 0.0
C2049 C 0.04388 0.33637 0.36034 0.0
C2050 C 0.97553 0.35346 0.30351 0.0
C2051 C 0.95996 0.33177 0.29221 0.0
C2052 C 0.997 0.35344 0.31121 0.0
C2053 C 1.00303 0.33165 0.30783 0.0
C2054 C 0.98782 0.31027 0.29494 0.0
C2055 C 0.96624 0.3103 0.28727 0.0
H2056 H 0.99791 0.70255 0.58775 0.0
H2057 H 1.00277 0.65411 0.63576 0.0
H2058 H 1.00872 0.67536 0.55746 0.0
H2059 H 0.01392 0.6276 0.60571 0.0
H2060 H 0.06302 0.60973 0.5557 0.0
H2061 H 0.0507 0.63708 0.58457 0.0
H2062 H 0.9916 0.62791 0.53605 0.0
H2063 H 1.00329 0.59992 0.50769 0.0
C2064 C 1.00092 0.68601 0.59171 0.0
C2065 C 0.99958 0.68049 0.61412 0.0
C2066 C 1.0072 0.67063 0.5745 0.0
C2067 C 0.01245 0.64986 0.57968 0.0
C2068 C 0.01027 0.64383 0.60165 0.0
C2069 C 1.00368 0.6589 0.61868 0.0
C2070 C 0.04735 0.61347 0.55137 0.0
C2071 C 0.03387 0.6025 0.5298 0.0
C2072 C 0.0404 0.62908 0.56772 0.0
C2073 C 0.02027 0.63434 0.56226 0.0
C2074 C 1.00721 0.62406 0.54042 0.0
C2075 C 0.01389 0.60806 0.52434 0.0
H2076 H 0.6529 0.84798 0.81319 0.0
H2077 H 0.67643 0.81786 0.87041 0.0
H2078 H 0.67965 0.83542 0.79043 0.0
H2079 H 0.70317 0.80557 0.84771 0.0
H2080 H 0.73213 0.76502 0.79245 0.0
H2081 H 0.70233 0.77563 0.81114 0.0
H2082 H 0.72093 0.8465 0.79303 0.0
H2083 H 0.75067 0.83583 0.77421 0.0
C2084 C 0.66382 0.83881 0.82095 0.0
C2085 C 0.66253 0.83388 0.84356 0.0
C2086 C 0.6791 0.83165 0.80793 0.0
C2087 C 0.69324 0.81935 0.81727 0.0
C2088 C 0.69214 0.81465 0.83996 0.0
C2089 C 0.67696 0.82189 0.85301 0.0
C2090 C 0.72949 0.78263 0.79196 0.0
C2091 C 0.74367 0.7997 0.78201 0.0
C2092 C 0.71263 0.78878 0.80287 0.0
C2093 C 0.70955 0.81195 0.8037 0.0
C2094 C 0.72294 0.82849 0.79255 0.0
C2095 C 0.73996 0.82244 0.78186 0.0
H2096 H 0.50065 0.53279 0.69976 0.0
H2097 H 0.46487 0.58208 0.68033 0.0
H2098 H 0.51603 0.53181 0.66387 0.0
H2099 H 0.48115 0.58153 0.64348 0.0
H2100 H 0.50603 0.56367 0.56849 0.0
H2101 H 0.48738 0.56523 0.6037 0.0
H2102 H 0.54082 0.54683 0.64137 0.0
H2103 H 0.55887 0.54531 0.60677 0.0
C2104 C 0.49598 0.54384 0.68803 0.0
C2105 C 0.48107 0.55763 0.69425 0.0
C2106 C 0.50528 0.54338 0.6668 0.0
C2107 C 0.50066 0.55675 0.6496 0.0
C2108 C 0.48559 0.57065 0.65552 0.0
C2109 C 0.47615 0.57115 0.67715 0.0
C2110 C 0.51358 0.55929 0.58406 0.0
C2111 C 0.53411 0.55352 0.58375 0.0
C2112 C 0.50287 0.56057 0.6048 0.0
C2113 C 0.51186 0.55593 0.6265 0.0
C2114 C 0.53231 0.55011 0.62575 0.0
C2115 C 0.54301 0.5492 0.60538 0.0
H2116 H 0.73681 0.17721 0.99058 0.0
H2117 H 0.79769 0.16922 0.96738 0.0
H2118 H 0.72969 0.19657 0.95808 0.0
H2119 H 0.79046 0.18894 0.93456 0.0
H2120 H 0.75764 0.20341 0.86732 0.0
H2121 H 0.76064 0.17969 0.89782 0.0
H2122 H 0.7495 0.2366 0.94866 0.0
H2123 H 0.74645 0.26013 0.91832 0.0
C2124 C 0.74848 0.17926 0.97826 0.0
C2125 C 0.76762 0.17146 0.98108 0.0
C2126 C 0.74446 0.19046 0.95986 0.0
C2127 C 0.75944 0.19385 0.94398 0.0
C2128 C 0.77858 0.18601 0.9466 0.0
C2129 C 0.78275 0.17496 0.96527 0.0
C2130 C 0.75531 0.2104 0.88494 0.0
C2131 C 0.75174 0.23331 0.89075 0.0
C2132 C 0.75724 0.19708 0.90226 0.0
C2133 C 0.75549 0.20663 0.92533 0.0
C2134 C 0.75069 0.22893 0.93082 0.0
C2135 C 0.74876 0.24222 0.91354 0.0
H2136 H 0.13888 0.57541 0.18712 0.0
H2137 H 0.1506 0.50653 0.16054 0.0
H2138 H 0.11479 0.5718 0.15133 0.0
H2139 H 0.12652 0.50328 0.12358 0.0
H2140 H 0.05623 0.49841 0.08122 0.0
H2141 H 0.08476 0.49873 0.11326 0.0
H2142 H 0.11923 0.57241 0.10993 0.0
H2143 H 0.09076 0.57229 0.07887 0.0
C2144 C 0.13674 0.55975 0.17327 0.0
C2145 C 0.14675 0.54131 0.1762 0.0
C2146 C 0.12295 0.55772 0.15282 0.0
C2147 C 0.1192 0.53743 0.13481 0.0
C2148 C 0.12932 0.51902 0.13748 0.0
C2149 C 0.14303 0.5209 0.15832 0.0
C2150 C 0.06988 0.51458 0.08767 0.0
C2151 C 0.07139 0.53543 0.07824 0.0
C2152 C 0.08628 0.51464 0.10547 0.0
C2153 C 0.10396 0.5356 0.1138 0.0
C2154 C 0.10562 0.55612 0.10375 0.0
C2155 C 0.08935 0.55608 0.08617 0.0
H2156 H 0.82529 0.8817 0.46368 0.0
H2157 H 0.8114 0.80629 0.46899 0.0
H2158 H 0.82497 0.87032 0.4213 0.0
H2159 H 0.8103 0.79488 0.42653 0.0
H2160 H 0.78476 0.78791 0.34625 0.0
H2161 H 0.78556 0.79884 0.38851 0.0
H2162 H 0.85031 0.84876 0.39498 0.0
H2163 H 0.8498 0.83727 0.35242 0.0
C2164 C 0.8216 0.86265 0.45571 0.0
C2165 C 0.81809 0.84484 0.46963 0.0
C2166 C 0.82174 0.8562 0.43153 0.0
C2167 C 0.81779 0.83174 0.42067 0.0
C2168 C 0.81342 0.81387 0.43444 0.0
C2169 C 0.81391 0.82038 0.45869 0.0
C2170 C 0.79927 0.8011 0.35668 0.0
C2171 C 0.81722 0.81176 0.346 0.0
C2172 C 0.79971 0.8073 0.38088 0.0
C2173 C 0.8179 0.82475 0.39501 0.0
C2174 C 0.83599 0.83537 0.38444 0.0
C2175 C 0.83579 0.82868 0.36017 0.0
H2176 H 0.51543 0.55594 0.82255 0.0
H2177 H 0.45814 0.57029 0.84872 0.0
H2178 H 0.53063 0.55289 0.86144 0.0
H2179 H 0.4734 0.56692 0.88825 0.0
H2180 H 0.51475 0.57476 0.96303 0.0
H2181 H 0.49887 0.58009 0.92473 0.0
H2182 H 0.53037 0.52958 0.89031 0.0
H2183 H 0.54577 0.52405 0.9285 0.0
C2184 C 0.50598 0.55878 0.83664 0.0
C2185 C 0.48536 0.56376 0.83167 0.0
C2186 C 0.51476 0.55666 0.85936 0.0
C2187 C 0.50351 0.55919 0.87893 0.0
C2188 C 0.48308 0.56489 0.87425 0.0
C2189 C 0.47422 0.56705 0.85127 0.0
C2190 C 0.5184 0.56476 0.94733 0.0
C2191 C 0.53188 0.54893 0.94954 0.0
C2192 C 0.50904 0.56774 0.925 0.0
C2193 C 0.51306 0.55554 0.90346 0.0
C2194 C 0.5267 0.53981 0.90583 0.0
C2195 C 0.5356 0.53642 0.92811 0.0
H2196 H 0.80081 0.17236 0.11551 0.0
H2197 H 0.80776 0.23612 0.08496 0.0
H2198 H 0.80157 0.19642 0.15376 0.0
H2199 H 0.81047 0.26093 0.1236 0.0
H2200 H 0.79219 0.29504 0.19069 0.0
H2201 H 0.78892 0.26944 0.15207 0.0
H2202 H 0.82396 0.22496 0.18404 0.0
H2203 H 0.82542 0.24907 0.2221 0.0
C2204 C 0.80354 0.1918 0.11731 0.0
C2205 C 0.80471 0.20267 0.09768 0.0
C2206 C 0.80384 0.2056 0.13914 0.0
C2207 C 0.80605 0.23064 0.14175 0.0
C2208 C 0.80825 0.24162 0.12211 0.0
C2209 C 0.80724 0.22762 0.10014 0.0
C2210 C 0.79884 0.27955 0.18918 0.0
C2211 C 0.80896 0.27384 0.20903 0.0
C2212 C 0.79722 0.26506 0.16721 0.0
C2213 C 0.80635 0.24524 0.16495 0.0
C2214 C 0.81632 0.23968 0.18509 0.0
C2215 C 0.8173 0.25362 0.20692 0.0
H2216 H 0.1833 0.57645 0.30911 0.0
H2217 H 0.11593 0.53345 0.30454 0.0
H2218 H 0.18064 0.60102 0.34634 0.0
H2219 H 0.11338 0.5575 0.34199 0.0
H2220 H 0.09787 0.6174 0.37616 0.0
H2221 H 0.11509 0.60478 0.34345 0.0
H2222 H 0.16952 0.59874 0.3906 0.0
H2223 H 0.15279 0.61284 0.42403 0.0
C2224 C 0.16838 0.57143 0.31686 0.0
C2225 C 0.14971 0.55327 0.30429 0.0
C2226 C 0.16683 0.58565 0.33786 0.0
C2227 C 0.14661 0.58156 0.34622 0.0
C2228 C 0.12896 0.56126 0.33526 0.0
C2229 C 0.13048 0.54719 0.31422 0.0
C2230 C 0.11421 0.61512 0.37994 0.0
C2231 C 0.12321 0.61418 0.40267 0.0
C2232 C 0.1239 0.60748 0.36102 0.0
C2233 C 0.14268 0.59932 0.36485 0.0
C2234 C 0.15451 0.60414 0.38747 0.0
C2235 C 0.14495 0.61227 0.40651 0.0
H2236 H 0.8487 0.83553 0.6058 0.0
H2237 H 0.7923 0.86429 0.60387 0.0
H2238 H 0.84086 0.82223 0.64197 0.0
H2239 H 0.78437 0.85082 0.64063 0.0
H2240 H 0.76515 0.79805 0.693 0.0
H2241 H 0.77201 0.81379 0.65726 0.0
H2242 H 0.84195 0.83768 0.6832 0.0
H2243 H 0.83503 0.8219 0.71882 0.0
C2244 C 0.83456 0.8391 0.61308 0.0
C2245 C 0.82118 0.8511 0.60168 0.0
C2246 C 0.83016 0.83157 0.6341 0.0
C2247 C 0.81205 0.83551 0.64456 0.0
C2248 C 0.79844 0.84733 0.63313 0.0
C2249 C 0.80304 0.8552 0.61208 0.0
C2250 C 0.78197 0.80691 0.69117 0.0
C2251 C 0.7995 0.80878 0.7089 0.0
C2252 C 0.78592 0.81604 0.67066 0.0
C2253 C 0.80756 0.82707 0.66712 0.0
C2254 C 0.82506 0.82914 0.68506 0.0
C2255 C 0.82109 0.82025 0.70565 0.0
H2256 H 0.78547 0.50739 0.50955 0.0
H2257 H 0.7537 0.44049 0.53045 0.0
H2258 H 0.75672 0.52479 0.52232 0.0
H2259 H 0.72524 0.45828 0.544 0.0
H2260 H 0.66543 0.49045 0.53467 0.0
H2261 H 0.69454 0.47102 0.52765 0.0
H2262 H 0.74376 0.53903 0.55751 0.0
H2263 H 0.71479 0.55885 0.56287 0.0
C2264 C 0.77237 0.49644 0.51694 0.0
C2265 C 0.77173 0.47259 0.51888 0.0
C2266 C 0.75605 0.5065 0.52453 0.0
C2267 C 0.73891 0.49296 0.53441 0.0
C2268 C 0.73821 0.46905 0.53632 0.0
C2269 C 0.75448 0.4589 0.52855 0.0
C2270 C 0.68248 0.50123 0.53971 0.0
C2271 C 0.68785 0.52629 0.54885 0.0
C2272 C 0.69913 0.49003 0.53601 0.0
C2273 C 0.72138 0.50366 0.54166 0.0
C2274 C 0.72671 0.52825 0.55248 0.0
C2275 C 0.7101 0.53952 0.55586 0.0
H2276 H 0.23322 0.12203 0.49432 0.0
H2277 H 0.20077 0.17913 0.50273 0.0
H2278 H 0.19836 0.09249 0.49701 0.0
H2279 H 0.1666 0.15002 0.50562 0.0
H2280 H 0.11547 0.09631 0.53519 0.0
H2281 H 0.15158 0.12379 0.53378 0.0
H2282 H 0.15907 0.07452 0.47345 0.0
H2283 H 0.12273 0.04737 0.47452 0.0
C2284 C 0.21875 0.1283 0.49665 0.0
C2285 C 0.21993 0.15303 0.49818 0.0
C2286 C 0.19878 0.11139 0.49819 0.0
C2287 C 0.17969 0.11893 0.50173 0.0
C2288 C 0.18098 0.1436 0.50325 0.0
C2289 C 0.20067 0.1603 0.50138 0.0
C2290 C 0.12477 0.09138 0.5216 0.0
C2291 C 0.11605 0.06979 0.50481 0.0
C2292 C 0.1455 0.10711 0.52078 0.0
C2293 C 0.15826 0.10139 0.50346 0.0
C2294 C 0.14979 0.07943 0.4871 0.0
C2295 C 0.12886 0.06397 0.48762 0.0
H2296 H 0.2519 0.97201 0.80919 0.0
H2297 H 0.19799 0.93197 0.75468 0.0
H2298 H 0.26817 0.93858 0.80478 0.0
H2299 H 0.21477 0.89767 0.74998 0.0
H2300 H 0.24444 0.82995 0.75814 0.0
H2301 H 0.22594 0.86265 0.76013 0.0
H2302 H 0.28849 0.91529 0.78797 0.0
H2303 H 0.30658 0.88296 0.78599 0.0
C2304 C 0.24328 0.95615 0.7959 0.0
C2305 C 0.22314 0.95598 0.78237 0.0
C2306 C 0.25303 0.93639 0.79321 0.0
C2307 C 0.24355 0.91427 0.77676 0.0
C2308 C 0.22323 0.91376 0.76305 0.0
C2309 C 0.21343 0.93393 0.76564 0.0
C2310 C 0.25441 0.84848 0.76471 0.0
C2311 C 0.27755 0.85291 0.77184 0.0
C2312 C 0.24359 0.8677 0.7658 0.0
C2313 C 0.25505 0.89276 0.77446 0.0
C2314 C 0.27818 0.89692 0.7815 0.0
C2315 C 0.28894 0.87788 0.78016 0.0
H2316 H 0.3701 0.99357 0.99218 0.0
H2317 H 0.39595 0.99363 0.06345 0.0
H2318 H 0.40731 0.01042 0.98453 0.0
H2319 H 0.43316 0.01169 0.05622 0.0
H2320 H 0.48844 0.98966 0.02513 0.0
H2321 H 0.4509 0.98572 0.03307 0.0
H2322 H 0.44445 0.03802 0.98991 0.0
H2323 H 0.482 0.04103 0.98123 0.0
C2324 C 0.3836 0.99872 1.00666 0.0
C2325 C 0.38042 0.99161 0.02814 0.0
C2326 C 0.40497 1.0082 1.00221 0.0
C2327 C 0.42309 0.01112 0.01946 0.0
C2328 C 0.41943 1.00856 0.04233 0.0
C2329 C 0.39814 0.99868 0.04663 0.0
C2330 C 0.47861 0.99955 0.01669 0.0
C2331 C 0.48764 0.01522 1.00227 0.0
C2332 C 0.45741 0.99788 0.0217 0.0
C2333 C 0.4451 0.01233 0.01281 0.0
C2334 C 0.45368 0.0269 0.99715 0.0
C2335 C 0.47491 0.02829 0.99186 0.0
H2336 H 0.91688 0.60314 0.79923 0.0
H2337 H 0.88112 0.55245 0.7361 0.0
H2338 H 0.89423 0.63017 0.79253 0.0
H2339 H 0.85895 0.57978 0.72912 0.0
H2340 H 0.80893 0.62345 0.7391 0.0
H2341 H 0.83081 0.59566 0.7457 0.0
H2342 H 0.88991 0.6561 0.76436 0.0
H2343 H 0.8679 0.68395 0.758 0.0
C2344 C 0.90418 0.59778 0.78396 0.0
C2345 C 0.90083 0.57583 0.76808 0.0
C2346 C 0.89137 0.61332 0.78004 0.0
C2347 C 0.87505 0.6071 0.7602 0.0
C2348 C 0.87137 0.5849 0.74463 0.0
C2349 C 0.88413 0.56935 0.74856 0.0
C2350 C 0.82664 0.63069 0.74426 0.0
C2351 C 0.83681 0.65571 0.74806 0.0
C2352 C 0.83912 0.61485 0.74809 0.0
C2353 C 0.86197 0.62382 0.75565 0.0
C2354 C 0.87223 0.64882 0.75894 0.0
C2355 C 0.85972 0.66468 0.7552 0.0
H2356 H 0.83396 0.64787 0.03121 0.0
H2357 H 0.86608 0.67031 0.97368 0.0
H2358 H 0.86327 0.6292 0.04168 0.0
H2359 H 0.89501 0.65171 0.98401 0.0
H2360 H 0.95469 0.63611 0.01904 0.0
H2361 H 0.9262 0.65697 0.01445 0.0
H2362 H 0.87747 0.59458 0.02598 0.0
H2363 H 0.90586 0.57348 0.03019 0.0
C2364 C 0.84721 0.64883 0.02079 0.0
C2365 C 0.84756 0.66059 1.00153 0.0
C2366 C 0.86399 0.63808 0.02677 0.0
C2367 C 0.88163 0.63908 0.0138 0.0
C2368 C 0.88194 0.65092 0.99466 0.0
C2369 C 0.86516 0.66143 0.98859 0.0
C2370 C 0.93792 0.62676 0.02057 0.0
C2371 C 0.93265 0.60288 0.02462 0.0
C2372 C 0.92156 0.63877 0.01799 0.0
C2373 C 0.89943 0.62734 0.01947 0.0
C2374 C 0.89432 0.604 0.02481 0.0
C2375 C 0.91069 0.59189 0.02727 0.0
H2376 H 0.24741 0.09214 0.7915 0.0
H2377 H 0.18987 0.11361 0.76832 0.0
H2378 H 0.27081 0.13283 0.78995 0.0
H2379 H 0.21262 0.15347 0.76718 0.0
H2380 H 0.25788 0.22252 0.7513 0.0
H2381 H 0.23616 0.18081 0.75068 0.0
H2382 H 0.28481 0.17487 0.80502 0.0
H2383 H 0.30643 0.21623 0.80525 0.0
C2384 C 0.2396 0.10526 0.78599 0.0
C2385 C 0.21631 0.0988 0.78017 0.0
C2386 C 0.25312 0.12901 0.78524 0.0
C2387 C 0.24409 0.1474 0.77836 0.0
C2388 C 0.22088 0.14054 0.77225 0.0
C2389 C 0.20754 0.11718 0.77317 0.0
C2390 C 0.264 0.21238 0.76313 0.0
C2391 C 0.28419 0.22341 0.77835 0.0
C2392 C 0.25135 0.18813 0.76294 0.0
C2393 C 0.25822 0.1735 0.77791 0.0
C2394 C 0.27857 0.18465 0.79292 0.0
C2395 C 0.29109 0.20885 0.79317 0.0
H2396 H 0.43527 0.94348 0.28599 0.0
H2397 H 0.39396 0.98799 0.266 0.0
H2398 H 0.40238 0.91219 0.28922 0.0
H2399 H 0.36115 0.95667 0.26955 0.0
H2400 H 0.31606 0.87227 0.25379 0.0
H2401 H 0.34181 0.91045 0.25087 0.0
H2402 H 0.37517 0.9158 0.32065 0.0
H2403 H 0.34945 0.87746 0.32353 0.0
C2404 C 0.4192 0.94636 0.28189 0.0
C2405 C 0.41707 0.96829 0.27649 0.0
C2406 C 0.40051 0.92873 0.28408 0.0
C2407 C 0.37967 0.9329 0.28068 0.0
C2408 C 0.37728 0.95365 0.27286 0.0
C2409 C 0.39597 0.97135 0.27077 0.0
C2410 C 0.32843 0.88217 0.26879 0.0
C2411 C 0.33155 0.872 0.28857 0.0
C2412 C 0.34298 0.90391 0.26714 0.0
C2413 C 0.36061 0.91523 0.28526 0.0
C2414 C 0.36176 0.9068 0.30637 0.0
C2415 C 0.34707 0.88513 0.30809 0.0
H2416 H 0.62487 0.38693 0.56893 0.0
H2417 H 0.56351 0.37144 0.59694 0.0
H2418 H 0.61589 0.42029 0.55399 0.0
H2419 H 0.55453 0.40555 0.58211 0.0
H2420 H 0.53707 0.45547 0.53212 0.0
H2421 H 0.54435 0.42091 0.54729 0.0
H2422 H 0.61347 0.46014 0.56582 0.0
H2423 H 0.60629 0.4942 0.55037 0.0
C2424 C 0.60943 0.39068 0.57207 0.0
C2425 C 0.59502 0.3763 0.58435 0.0
C2426 C 0.60431 0.41011 0.56355 0.0
C2427 C 0.58451 0.41607 0.56686 0.0
C2428 C 0.5699 0.4016 0.57901 0.0
C2429 C 0.57513 0.38209 0.58774 0.0
C2430 C 0.55386 0.45666 0.53929 0.0
C2431 C 0.5711 0.47774 0.53971 0.0
C2432 C 0.55802 0.43684 0.54823 0.0
C2433 C 0.57957 0.4374 0.55781 0.0
C2434 C 0.5967 0.45858 0.55828 0.0
C2435 C 0.59256 0.47833 0.54943 0.0
H2436 H 0.43079 0.72774 0.37646 0.0
H2437 H 0.46736 0.80218 0.38094 0.0
H2438 H 0.39896 0.73445 0.35415 0.0
H2439 H 0.43529 0.80924 0.35858 0.0
H2440 H 0.36374 0.8171 0.3366 0.0
H2441 H 0.39685 0.81243 0.35962 0.0
H2442 H 0.38587 0.7411 0.31723 0.0
H2443 H 0.35314 0.7454 0.29528 0.0
C2444 C 0.43219 0.74545 0.37216 0.0
C2445 C 0.45191 0.76415 0.37987 0.0
C2446 C 0.41384 0.74942 0.3594 0.0
C2447 C 0.41428 0.77246 0.3543 0.0
C2448 C 0.4341 0.79128 0.3621 0.0
C2449 C 0.45268 0.78713 0.37457 0.0
C2450 C 0.3683 0.80034 0.3325 0.0
C2451 C 0.35547 0.78156 0.31412 0.0
C2452 C 0.38746 0.79772 0.34552 0.0
C2453 C 0.39421 0.77623 0.34054 0.0
C2454 C 0.38124 0.7577 0.32214 0.0
C2455 C 0.36232 0.76027 0.30936 0.0
H2456 H 0.12959 0.74648 0.07277 0.0
H2457 H 0.0602 0.73985 0.07219 0.0
H2458 H 0.12161 0.70296 0.06047 0.0
H2459 H 0.05165 0.69632 0.05763 0.0
H2460 H 0.04186 0.61598 0.05265 0.0
H2461 H 0.05007 0.6596 0.06491 0.0
H2462 H 0.11033 0.66847 0.03421 0.0
H2463 H 0.10278 0.62462 0.02401 0.0
C2464 C 0.11248 0.73569 0.06933 0.0
C2465 C 0.09553 0.74667 0.07337 0.0
C2466 C 0.10778 0.7105 0.06207 0.0
C2467 C 0.08586 0.69545 0.05786 0.0
C2468 C 0.06883 0.70676 0.0612 0.0
C2469 C 0.07364 0.73192 0.06925 0.0
C2470 C 0.05688 0.62734 0.04858 0.0
C2471 C 0.07164 0.61685 0.03732 0.0
C2472 C 0.06157 0.65258 0.05542 0.0
C2473 C 0.08089 0.66824 0.05056 0.0
C2474 C 0.09551 0.65749 0.03893 0.0
C2475 C 0.09112 0.63218 0.03278 0.0
H2476 H 0.06521 0.26235 0.85762 0.0
H2477 H 0.10767 0.31056 0.91844 0.0
H2478 H 0.09696 0.26553 0.83658 0.0
H2479 H 0.13913 0.31417 0.89739 0.0
H2480 H 0.19571 0.29598 0.86206 0.0
H2481 H 0.16379 0.29248 0.88272 0.0
H2482 H 0.12286 0.2919 0.81871 0.0
H2483 H 0.1545 0.29449 0.79796 0.0
C2484 C 0.08124 0.27376 0.86647 0.0
C2485 C 0.08373 0.28607 0.88983 0.0
C2486 C 0.09952 0.2757 0.85436 0.0
C2487 C 0.12085 0.29002 0.86523 0.0
C2488 C 0.12319 0.30257 0.88848 0.0
C2489 C 0.10499 0.30061 0.90055 0.0
C2490 C 0.17987 0.29489 0.85232 0.0
C2491 C 0.17785 0.29557 0.82826 0.0
C2492 C 0.16152 0.29315 0.86426 0.0
C2493 C 0.14053 0.29189 0.85249 0.0
C2494 C 0.13856 0.29252 0.82842 0.0
C2495 C 0.15688 0.29434 0.81653 0.0
H2496 H 0.618 0.79787 0.97572 0.0
H2497 H 0.59714 0.76272 0.90298 0.0
H2498 H 0.60396 0.75925 0.98748 0.0
H2499 H 0.58182 0.72414 0.91465 0.0
H2500 H 0.57327 0.6558 0.94849 0.0
H2501 H 0.58792 0.69165 0.93236 0.0
H2502 H 0.56763 0.73563 0.98823 0.0
H2503 H 0.55499 0.70055 1.00549 0.0
C2504 C 0.61094 0.78165 0.96229 0.0
C2505 C 0.60883 0.78301 0.93856 0.0
C2506 C 0.60245 0.75968 0.96895 0.0
C2507 C 0.59117 0.73885 0.95198 0.0
C2508 C 0.59043 0.73988 0.9281 0.0
C2509 C 0.59939 0.76186 0.92141 0.0
C2510 C 0.57195 0.67315 0.9573 0.0
C2511 C 0.56352 0.6754 0.97863 0.0
C2512 C 0.58015 0.69363 0.94792 0.0
C2513 C 0.57965 0.71656 0.95954 0.0
C2514 C 0.56906 0.71832 0.97942 0.0
C2515 C 0.56132 0.69803 0.98904 0.0
H2516 H 0.05764 0.75809 0.73736 0.0
H2517 H 0.07229 0.7764 0.67092 0.0
H2518 H 0.09695 0.76598 0.75098 0.0
H2519 H 0.11167 0.78436 0.68461 0.0
H2520 H 0.16523 0.745 0.70184 0.0
H2521 H 0.12927 0.75116 0.69121 0.0
H2522 H 0.13527 0.79543 0.75983 0.0
H2523 H 0.17158 0.78929 0.77053 0.0
C2524 C 0.06936 0.76456 0.726 0.0
C2525 C 0.0621 0.76637 0.70307 0.0
C2526 C 0.0918 0.7692 0.73382 0.0
C2527 C 0.10715 0.77546 0.71868 0.0
C2528 C 0.1 0.77935 0.69647 0.0
C2529 C 0.07756 0.77497 0.68874 0.0
C2530 C 0.15905 0.75642 0.71448 0.0
C2531 C 0.17108 0.76679 0.73692 0.0
C2532 C 0.13858 0.76006 0.70837 0.0
C2533 C 0.12981 0.77412 0.72462 0.0
C2534 C 0.14186 0.78464 0.74704 0.0
C2535 C 0.16244 0.78101 0.75317 0.0
H2536 H 0.13164 0.40579 0.46467 0.0
H2537 H 0.10061 0.41593 0.3994 0.0
H2538 H 0.12288 0.44136 0.48547 0.0
H2539 H 0.09128 0.45102 0.41997 0.0
H2540 H 0.08043 0.51741 0.46587 0.0
H2541 H 0.09957 0.49121 0.4444 0.0
H2542 H 0.08644 0.44258 0.49308 0.0
H2543 H 0.06819 0.46915 0.51471 0.0
C2544 C 0.12408 0.41651 0.45466 0.0
C2545 C 0.11706 0.40856 0.43051 0.0
C2546 C 0.11862 0.43651 0.46655 0.0
C2547 C 0.10591 0.4486 0.45439 0.0
C2548 C 0.10112 0.44219 0.42984 0.0
C2549 C 0.10662 0.42223 0.418 0.0
C2550 C 0.08143 0.50094 0.47164 0.0
C2551 C 0.0728 0.49509 0.49174 0.0
C2552 C 0.09254 0.48608 0.45956 0.0
C2553 C 0.09497 0.46513 0.46737 0.0
C2554 C 0.08558 0.45902 0.48707 0.0
C2555 C 0.07479 0.47397 0.49922 0.0
H2556 H 0.46458 0.28705 0.19789 0.0
H2557 H 0.42398 0.21275 0.18291 0.0
H2558 H 0.43854 0.29887 0.22202 0.0
H2559 H 0.39708 0.22458 0.20547 0.0
H2560 H 0.3637 0.24352 0.26505 0.0
H2561 H 0.39329 0.23519 0.24445 0.0
H2562 H 0.40392 0.30468 0.22308 0.0
H2563 H 0.37582 0.31359 0.24511 0.0
C2564 C 0.44966 0.27347 0.19918 0.0
C2565 C 0.44613 0.24905 0.1888 0.0
C2566 C 0.43478 0.28015 0.21303 0.0
C2567 C 0.41598 0.26253 0.21614 0.0
C2568 C 0.41182 0.23842 0.20423 0.0
C2569 C 0.42695 0.23168 0.19096 0.0
C2570 C 0.3729 0.25717 0.25648 0.0
C2571 C 0.36767 0.27911 0.25668 0.0
C2572 C 0.38957 0.25235 0.24439 0.0
C2573 C 0.40061 0.26906 0.23164 0.0
C2574 C 0.39598 0.29152 0.23287 0.0
C2575 C 0.37983 0.29661 0.24553 0.0
H2576 H 0.66756 0.55266 0.3695 0.0
H2577 H 0.61227 0.4941 0.33306 0.0
H2578 H 0.6505 0.5537 0.40524 0.0
H2579 H 0.59515 0.49447 0.36851 0.0
H2580 H 0.55828 0.50242 0.43197 0.0
H2581 H 0.57668 0.50111 0.39764 0.0
H2582 H 0.63584 0.55116 0.43892 0.0
H2583 H 0.6167 0.55289 0.47341 0.0
C2584 C 0.65205 0.53923 0.36913 0.0
C2585 C 0.64227 0.52245 0.34776 0.0
C2586 C 0.6418 0.53999 0.39008 0.0
C2587 C 0.62065 0.52431 0.39127 0.0
C2588 C 0.61107 0.50738 0.36974 0.0
C2589 C 0.62132 0.50671 0.34885 0.0
C2590 C 0.57523 0.51342 0.43406 0.0
C2591 C 0.58537 0.52797 0.45651 0.0
C2592 C 0.58623 0.51252 0.41375 0.0
C2593 C 0.60861 0.52579 0.41402 0.0
C2594 C 0.61881 0.54046 0.4366 0.0
C2595 C 0.6076 0.5416 0.45698 0.0
H2596 H 0.31308 0.85883 0.0575 0.0
H2597 H 0.35596 0.93196 0.07869 0.0
H2598 H 0.32569 0.8499 0.09527 0.0
H2599 H 0.36931 0.92289 0.11592 0.0
H2600 H 0.36136 0.89754 0.18866 0.0
H2601 H 0.35415 0.91189 0.15239 0.0
H2602 H 0.36271 0.84646 0.11229 0.0
H2603 H 0.36908 0.83178 0.14801 0.0
C2604 C 0.32492 0.87295 0.07047 0.0
C2605 C 0.33331 0.89607 0.06587 0.0
C2606 C 0.33235 0.86788 0.09175 0.0
C2607 C 0.34863 0.88574 0.10812 0.0
C2608 C 0.35663 0.90902 0.10357 0.0
C2609 C 0.34892 0.91419 0.08251 0.0
C2610 C 0.3624 0.88668 0.17211 0.0
C2611 C 0.36556 0.86354 0.17106 0.0
C2612 C 0.35825 0.89482 0.15148 0.0
C2613 C 0.35732 0.87983 0.1298 0.0
C2614 C 0.36289 0.85797 0.12893 0.0
C2615 C 0.36697 0.84984 0.14943 0.0
H2616 H 0.95904 0.55398 0.86642 0.0
H2617 H 0.013 0.52682 0.84533 0.0
H2618 H 0.9756 0.56057 0.90791 0.0
H2619 H 0.02942 0.53378 0.88616 0.0
H2620 H 0.06417 0.5795 0.95585 0.0
H2621 H 0.04051 0.58203 0.92111 0.0
H2622 H 0.99082 0.51901 0.92983 0.0
H2623 H 0.01464 0.51589 0.96413 0.0
C2624 C 0.97452 0.54985 0.87073 0.0
C2625 C 0.985 0.54013 0.8531 0.0
C2626 C 0.9838 0.5535 0.89416 0.0
C2627 C 1.00371 0.54794 0.8996 0.0
C2628 C 0.01413 0.5384 0.88195 0.0
C2629 C 1.00476 0.53438 0.8588 0.0
C2630 C 0.04799 0.56657 0.9506 0.0
C2631 C 0.04109 0.54749 0.96232 0.0
C2632 C 0.03442 0.5683 0.93117 0.0
C2633 C 0.01392 0.55104 0.92356 0.0
C2634 C 1.0064 0.53282 0.93608 0.0
C2635 C 0.02007 0.53093 0.95537 0.0
H2636 H 0.3135 0.21442 0.5789 0.0
H2637 H 0.28063 0.26987 0.57126 0.0
H2638 H 0.31662 0.22566 0.62158 0.0
H2639 H 0.2839 0.28113 0.61362 0.0
H2640 H 0.26937 0.2755 0.68793 0.0
H2641 H 0.26788 0.26465 0.6455 0.0
H2642 H 0.33422 0.25758 0.65586 0.0
H2643 H 0.33564 0.26817 0.69816 0.0
C2644 C 0.30729 0.22926 0.58626 0.0
C2645 C 0.29679 0.24116 0.57149 0.0
C2646 C 0.30903 0.2357 0.61078 0.0
C2647 C 0.30024 0.25413 0.62113 0.0
C2648 C 0.29045 0.26652 0.60634 0.0
C2649 C 0.28879 0.26019 0.58195 0.0
C2650 C 0.28361 0.27158 0.68117 0.0
C2651 C 0.30262 0.27278 0.69654 0.0
C2652 C 0.28283 0.2655 0.6568 0.0
C2653 C 0.30098 0.26029 0.64715 0.0
C2654 C 0.31986 0.26124 0.66258 0.0
C2655 C 0.32071 0.26749 0.68691 0.0
H2656 H 0.62114 0.55223 0.21974 0.0
H2657 H 0.64816 0.4948 0.19137 0.0
H2658 H 0.60557 0.55397 0.18097 0.0
H2659 H 0.6323 0.4967 0.15145 0.0
H2660 H 0.58702 0.49507 0.08041 0.0
H2661 H 0.60344 0.49105 0.11906 0.0
H2662 H 0.60819 0.56605 0.14615 0.0
H2663 H 0.59156 0.56973 0.10799 0.0
C2664 C 0.62391 0.5397 0.20528 0.0
C2665 C 0.6363 0.52325 0.20981 0.0
C2666 C 0.61491 0.54096 0.18237 0.0
C2667 C 0.61741 0.52579 0.16188 0.0
C2668 C 0.62956 0.50892 0.16617 0.0
C2669 C 0.63889 0.5078 0.18944 0.0
C2670 C 0.59147 0.51077 0.09459 0.0
C2671 C 0.58749 0.53277 0.09032 0.0
C2672 C 0.60118 0.50849 0.11712 0.0
C2673 C 0.60743 0.52803 0.13687 0.0
C2674 C 0.60352 0.55004 0.13234 0.0
C2675 C 0.5939 0.5523 0.10992 0.0
H2676 H 0.36271 0.89623 0.94531 0.0
H2677 H 0.2926 0.88957 0.9397 0.0
H2678 H 0.35641 0.86827 0.90802 0.0
H2679 H 0.28656 0.86174 0.90176 0.0
H2680 H 0.30071 0.84162 0.82287 0.0
H2681 H 0.30386 0.86814 0.86055 0.0
H2682 H 0.33134 0.81992 0.89523 0.0
H2683 H 0.32764 0.79267 0.85719 0.0
C2684 C 0.34597 0.88901 0.93603 0.0
C2685 C 0.32807 0.89492 0.94545 0.0
C2686 C 0.34244 0.87289 0.91485 0.0
C2687 C 0.32104 0.86275 0.90262 0.0
C2688 C 0.30317 0.86934 0.91132 0.0
C2689 C 0.30665 0.88526 0.93281 0.0
C2690 C 0.3074 0.83662 0.83853 0.0
C2691 C 0.31416 0.81531 0.83738 0.0
C2692 C 0.30895 0.85165 0.85997 0.0
C2693 C 0.31768 0.84578 0.88043 0.0
C2694 C 0.32446 0.8245 0.87941 0.0
C2695 C 0.32242 0.80908 0.85789 0.0
H2696 H 0.01619 0.54645 0.73196 0.0
H2697 H 0.94481 0.52288 0.71883 0.0
H2698 H 0.01713 0.52359 0.69355 0.0
H2699 H 0.94566 0.49871 0.68122 0.0
H2700 H 0.96601 0.49702 0.6057 0.0
H2701 H 0.95374 0.50149 0.64353 0.0
H2702 H 0.01068 0.48254 0.67364 0.0
H2703 H 0.02378 0.4801 0.63609 0.0
C2704 C 1.00076 0.53684 0.72056 0.0
C2705 C 0.98053 0.53666 0.72813 0.0
C2706 C 1.0012 0.52304 0.69895 0.0
C2707 C 0.98141 0.50844 0.6848 0.0
C2708 C 0.96115 0.50951 0.69181 0.0
C2709 C 0.96071 0.52377 0.71317 0.0
C2710 C 0.97519 0.49238 0.62011 0.0
C2711 C 0.99656 0.49012 0.61867 0.0
C2712 C 0.96823 0.4951 0.64193 0.0
C2713 C 0.98225 0.49419 0.66179 0.0
C2714 C 1.00033 0.48482 0.65871 0.0
C2715 C 1.0076 0.48285 0.63703 0.0
H2716 H 0.2926 0.2679 0.4511 0.0
H2717 H 0.30085 0.19799 0.42275 0.0
H2718 H 0.29859 0.28093 0.41448 0.0
H2719 H 0.30715 0.21134 0.3854 0.0
H2720 H 0.29241 0.24191 0.3146 0.0
H2721 H 0.28776 0.22405 0.35002 0.0
H2722 H 0.32862 0.29163 0.39283 0.0
H2723 H 0.33288 0.30913 0.35831 0.0
C2724 C 0.29591 0.25528 0.43706 0.0
C2725 C 0.29631 0.23188 0.4401 0.0
C2726 C 0.29943 0.26284 0.41592 0.0
C2727 C 0.30345 0.2473 0.39677 0.0
C2728 C 0.30398 0.22379 0.39966 0.0
C2729 C 0.30065 0.21623 0.42117 0.0
C2730 C 0.30048 0.25276 0.3316 0.0
C2731 C 0.31288 0.27706 0.33353 0.0
C2732 C 0.29791 0.24253 0.35191 0.0
C2733 C 0.30757 0.25646 0.37449 0.0
C2734 C 0.32052 0.28039 0.37599 0.0
C2735 C 0.32306 0.29044 0.35599 0.0
H2736 H 0.35363 0.62667 0.48116 0.0
H2737 H 0.34527 0.60136 0.54603 0.0
H2738 H 0.38382 0.60793 0.47661 0.0
H2739 H 0.37508 0.58212 0.5411 0.0
H2740 H 0.40524 0.52469 0.50078 0.0
H2741 H 0.3768 0.54586 0.50568 0.0
H2742 H 0.42397 0.61354 0.50345 0.0
H2743 H 0.45259 0.59239 0.49865 0.0
C2744 C 0.35831 0.6171 0.49439 0.0
C2745 C 0.34726 0.61526 0.51388 0.0
C2746 C 0.37553 0.60658 0.49184 0.0
C2747 C 0.38147 0.59369 0.5085 0.0
C2748 C 0.37057 0.59201 0.52809 0.0
C2749 C 0.35369 0.60301 0.53092 0.0
C2750 C 0.40944 0.54404 0.50118 0.0
C2751 C 0.43095 0.55701 0.49941 0.0
C2752 C 0.39332 0.5561 0.50414 0.0
C2753 C 0.39847 0.58117 0.50505 0.0
C2754 C 0.41982 0.59414 0.50278 0.0
C2755 C 0.43608 0.58213 0.50015 0.0
H2756 H 0.90849 0.90346 0.52273 0.0
H2757 H 0.88556 0.96222 0.55661 0.0
H2758 H 0.9432 0.9318 0.52035 0.0
H2759 H 0.92089 0.99109 0.55412 0.0
H2760 H 0.99745 0.02828 0.57045 0.0
H2761 H 0.96051 1.0023 0.57095 0.0
H2762 H 0.96008 0.96393 0.50107 0.0
H2763 H 0.99712 0.9899 0.5007 0.0
C2764 C 0.91082 0.92252 0.52972 0.0
C2765 C 0.89413 0.93041 0.54013 0.0
C2766 C 0.9308 0.9389 0.52811 0.0
C2767 C 0.93505 0.96386 0.53699 0.0
C2768 C 0.91832 0.97196 0.54724 0.0
C2769 C 0.89801 0.95545 0.5486 0.0
C2770 C 0.98947 0.01429 0.55518 0.0
C2771 C 1.00038 0.01105 0.53561 0.0
C2772 C 0.96815 0.99951 0.55538 0.0
C2773 C 0.95715 0.98089 0.53609 0.0
C2774 C 0.96804 0.97785 0.5164 0.0
C2775 C 0.98932 0.99275 0.51614 0.0
H2776 H 0.92721 0.15438 0.25943 0.0
H2777 H 0.86842 0.11383 0.281 0.0
H2778 H 0.91111 0.18897 0.25956 0.0
H2779 H 0.85275 0.14754 0.28146 0.0
H2780 H 0.81767 0.20544 0.27104 0.0
H2781 H 0.83492 0.17256 0.26884 0.0
H2782 H 0.89863 0.22358 0.27318 0.0
H2783 H 0.88086 0.25681 0.27496 0.0
C2784 C 0.91078 0.15235 0.26392 0.0
C2785 C 0.8995 0.13009 0.26997 0.0
C2786 C 0.90136 0.17273 0.26425 0.0
C2787 C 0.87991 0.17226 0.27039 0.0
C2788 C 0.86887 0.14985 0.27614 0.0
C2789 C 0.87823 0.12988 0.276 0.0
C2790 C 0.83542 0.21006 0.27165 0.0
C2791 C 0.84733 0.23477 0.27342 0.0
C2792 C 0.84571 0.19066 0.27051 0.0
C2793 C 0.86892 0.19415 0.27107 0.0
C2794 C 0.8809 0.21897 0.27259 0.0
C2795 C 0.87051 0.23853 0.27377 0.0
H2796 H 0.73691 0.09017 1.003 0.0
H2797 H 0.73363 0.09056 0.07639 0.0
H2798 H 0.69681 0.07509 0.9941 0.0
H2799 H 0.69387 0.07686 0.06798 0.0
H2800 H 0.62172 0.05229 0.04965 0.0
H2801 H 0.65987 0.05154 0.05256 0.0
H2802 H 0.66988 0.09585 0.9997 0.0
H2803 H 0.63069 0.09436 0.99531 0.0
C2804 C 0.72769 0.08582 0.01707 0.0
C2805 C 0.73822 0.09177 0.04048 0.0
C2806 C 0.70467 0.07781 0.01206 0.0
C2807 C 0.69203 0.07564 0.0304 0.0
C2808 C 0.70289 0.07831 0.05332 0.0
C2809 C 0.72581 0.08605 0.05823 0.0
C2810 C 0.63219 0.06207 0.03884 0.0
C2811 C 0.62364 0.07391 0.02266 0.0
C2812 C 0.65405 0.06155 0.04041 0.0
C2813 C 0.6681 0.07369 0.02647 0.0
C2814 C 0.65946 0.08581 0.01036 0.0
C2815 C 0.63723 0.08549 0.00816 0.0
H2816 H 0.23082 0.50775 0.24096 0.0
H2817 H 0.20325 0.50056 0.30484 0.0
H2818 H 0.25441 0.48212 0.25026 0.0
H2819 H 0.22646 0.47444 0.31386 0.0
H2820 H 0.24887 0.40247 0.2949 0.0
H2821 H 0.22717 0.43117 0.2906 0.0
H2822 H 0.28626 0.48574 0.28519 0.0
H2823 H 0.30792 0.45708 0.28906 0.0
C2824 C 0.22997 0.5007 0.25699 0.0
C2825 C 0.21555 0.50597 0.27234 0.0
C2826 C 0.24341 0.48626 0.26232 0.0
C2827 C 0.24208 0.47663 0.28276 0.0
C2828 C 0.22763 0.48189 0.29808 0.0
C2829 C 0.21457 0.4968 0.29301 0.0
C2830 C 0.25719 0.42072 0.29314 0.0
C2831 C 0.27997 0.42775 0.29237 0.0
C2832 C 0.24488 0.43704 0.2908 0.0
C2833 C 0.25527 0.46038 0.28758 0.0
C2834 C 0.2781 0.46769 0.28761 0.0
C2835 C 0.29042 0.45145 0.29007 0.0
H2836 H 0.26451 0.41849 0.05653 0.0
H2837 H 0.27321 0.43377 0.98783 0.0
H2838 H 0.2328 0.43506 0.05596 0.0
H2839 H 0.24235 0.45135 0.98762 0.0
H2840 H 0.17478 0.46412 0.98345 0.0
H2841 H 0.20448 0.4446 0.98393 0.0
H2842 H 0.22117 0.47001 0.05899 0.0
H2843 H 0.19116 0.48894 0.05846 0.0
C2844 C 0.25984 0.42564 0.04141 0.0
C2845 C 0.27158 0.42482 0.02228 0.0
C2846 C 0.24163 0.4353 0.04109 0.0
C2847 C 0.23474 0.44473 0.02174 0.0
C2848 C 0.24663 0.44393 1.00268 0.0
C2849 C 0.26461 0.43401 1.0029 0.0
C2850 C 0.18478 0.46554 1.00007 0.0
C2851 C 0.18044 0.47817 0.02091 0.0
C2852 C 0.20199 0.45438 1.00037 0.0
C2853 C 0.21559 0.45568 0.02151 0.0
C2854 C 0.211 0.46809 0.04237 0.0
C2855 C 0.19369 0.47906 0.04208 0.0
H2856 H 0.88033 0.99957 0.27932 0.0
H2857 H 0.91736 0.96281 0.23604 0.0
H2858 H 0.8574 0.96005 0.28411 0.0
H2859 H 0.89454 0.92379 0.24018 0.0
H2860 H 0.86109 0.85276 0.26263 0.0
H2861 H 0.88402 0.89254 0.25932 0.0
H2862 H 0.83068 0.92356 0.27368 0.0
H2863 H 0.8083 0.88405 0.27753 0.0
C2864 C 0.88336 0.9832 0.27029 0.0
C2865 C 0.90094 0.98512 0.25701 0.0
C2866 C 0.87012 0.96009 0.27313 0.0
C2867 C 0.8737 0.93765 0.26281 0.0
C2868 C 0.89098 0.93986 0.2491 0.0
C2869 C 0.90414 0.96274 0.2464 0.0
C2870 C 0.85424 0.86795 0.26541 0.0
C2871 C 0.83245 0.86439 0.27055 0.0
C2872 C 0.86749 0.89124 0.26319 0.0
C2873 C 0.85971 0.91235 0.26599 0.0
C2874 C 0.83801 0.90863 0.27151 0.0
C2875 C 0.82487 0.88546 0.27363 0.0
H2876 H 0.75262 0.09264 0.74361 0.0
H2877 H 0.70522 0.13443 0.7424 0.0
H2878 H 0.78168 0.12973 0.76381 0.0
H2879 H 0.73346 0.17041 0.76316 0.0
H2880 H 0.77598 0.2263 0.81292 0.0
H2881 H 0.76209 0.18219 0.80715 0.0
H2882 H 0.79235 0.17447 0.74459 0.0
H2883 H 0.80614 0.21837 0.75011 0.0
C2884 C 0.74858 0.10974 0.74746 0.0
C2885 C 0.72707 0.11108 0.74077 0.0
C2886 C 0.76492 0.13059 0.75933 0.0
C2887 C 0.7594 0.1524 0.76547 0.0
C2888 C 0.73785 0.15353 0.75901 0.0
C2889 C 0.72188 0.13313 0.7466 0.0
C2890 C 0.78043 0.21514 0.79852 0.0
C2891 C 0.7912 0.22548 0.78136 0.0
C2892 C 0.7728 0.19 0.79545 0.0
C2893 C 0.7761 0.17529 0.77534 0.0
C2894 C 0.78982 0.18559 0.76028 0.0
C2895 C 0.79724 0.21067 0.76318 0.0
loop_
_geom_bond_atom_site_label_1
_geom_bond_atom_site_label_2
_geom_bond_distance
_geom_bond_site_symmetry_2
_ccdc_geom_bond_type
Zn0 O3 2.031 . S
Zn0 O5 2.049 . S
Zn0 O10 2.067 . S
Zn1 O2 1.962 . S
Zn1 O4 1.986 . S
Zn1 O6 1.996 . S
Zn1 O9 1.943 . S
O2 Zn1 1.962 . S
O2 C7 1.254 . S
O3 Zn0 2.031 . S
O3 C7 1.269 . S
O4 Zn1 1.986 . S
O4 C11 1.262 . S
O5 Zn0 2.049 . S
O5 C13 1.260 . S
O6 Zn1 1.996 . S
O6 C13 1.257 . S
C7 O2 1.254 . S
C7 O3 1.269 . S
C8 O9 1.249 . S
C8 O10 1.270 . S
O9 Zn1 1.943 . S
O9 C8 1.249 . S
O10 Zn0 2.067 . S
O10 C8 1.270 . S
C11 O4 1.262 . S
C11 O12 1.232 . S
O12 C11 1.232 . S
C13 O5 1.260 . S
C13 O6 1.257 . S
Zn14 O17 2.031 1_455 S
Zn14 O19 2.049 . S
Zn14 O24 2.067 . S
Zn15 O16 1.944 1_455 S
Zn15 O18 1.993 . S
Zn15 O20 2.010 . S
Zn15 O23 1.947 1_455 S
O16 Zn15 1.944 1_655 S
O16 C21 1.254 . S
O17 Zn14 2.031 1_655 S
O17 C21 1.269 . S
O18 Zn15 1.993 . S
O18 C25 1.262 . S
O19 Zn14 2.049 . S
O19 C27 1.260 . S
O20 Zn15 2.010 . S
O20 C27 1.257 . S
C21 O16 1.254 . S
C21 O17 1.269 . S
C22 O23 1.249 . S
C22 O24 1.270 1_655 S
O23 Zn15 1.947 1_655 S
O23 C22 1.249 . S
O24 Zn14 2.067 . S
O24 C22 1.270 1_455 S
C25 O18 1.262 . S
C25 O26 1.232 1_455 S
O26 C25 1.232 1_655 S
C27 O19 1.260 . S
C27 O20 1.257 . S
Zn28 O31 2.031 . S
Zn28 O33 2.049 . S
Zn28 O38 2.067 . S
Zn29 O30 1.962 . S
Zn29 O32 1.986 . S
Zn29 O34 1.996 . S
Zn29 O37 1.943 . S
O30 Zn29 1.962 . S
O30 C35 1.254 . S
O31 Zn28 2.031 . S
O31 C35 1.269 . S
O32 Zn29 1.986 . S
O32 C39 1.262 . S
O33 Zn28 2.049 . S
O33 C41 1.260 . S
O34 Zn29 1.996 . S
O34 C41 1.257 . S
C35 O30 1.254 . S
C35 O31 1.269 . S
C36 O37 1.249 . S
C36 O38 1.270 . S
O37 Zn29 1.943 . S
O37 C36 1.249 . S
O38 Zn28 2.067 . S
O38 C36 1.270 . S
C39 O32 1.262 . S
C39 O40 1.232 . S
O40 C39 1.232 . S
C41 O33 1.260 . S
C41 O34 1.257 . S
Zn42 O45 2.031 . S
Zn42 O47 2.049 . S
Zn42 O52 2.067 . S
Zn43 O44 1.962 . S
Zn43 O46 1.986 . S
Zn43 O48 1.996 . S
Zn43 O51 1.943 . S
O44 Zn43 1.962 . S
O44 C49 1.254 . S
O45 Zn42 2.031 . S
O45 C49 1.269 . S
O46 Zn43 1.986 . S
O46 C53 1.262 . S
O47 Zn42 2.049 . S
O47 C55 1.260 . S
O48 Zn43 1.996 . S
O48 C55 1.257 . S
C49 O44 1.254 . S
C49 O45 1.269 . S
C50 O51 1.249 . S
C50 O52 1.270 . S
O51 Zn43 1.943 . S
O51 C50 1.249 . S
O52 Zn42 2.067 . S
O52 C50 1.270 . S
C53 O46 1.262 . S
C53 O54 1.232 . S
O54 C53 1.232 . S
C55 O47 1.260 . S
C55 O48 1.257 . S
Zn56 O59 2.031 . S
Zn56 O61 2.049 . S
Zn56 O66 2.067 . S
Zn57 O58 1.962 . S
Zn57 O60 1.986 . S
Zn57 O62 1.996 . S
Zn57 O65 1.943 . S
O58 Zn57 1.962 . S
O58 C63 1.254 . S
O59 Zn56 2.031 . S
O59 C63 1.269 . S
O60 Zn57 1.986 . S
O60 C67 1.262 . S
O61 Zn56 2.049 . S
O61 C69 1.260 . S
O62 Zn57 1.996 . S
O62 C69 1.257 . S
C63 O58 1.254 . S
C63 O59 1.269 . S
C64 O65 1.249 . S
C64 O66 1.270 . S
O65 Zn57 1.943 . S
O65 C64 1.249 . S
O66 Zn56 2.067 . S
O66 C64 1.270 . S
C67 O60 1.262 . S
C67 O68 1.232 . S
O68 C67 1.232 . S
C69 O61 1.260 . S
C69 O62 1.257 . S
Zn70 O73 2.031 . S
Zn70 O75 2.049 . S
Zn70 O80 2.067 . S
Zn71 O72 1.962 . S
Zn71 O74 1.986 . S
Zn71 O76 1.996 . S
Zn71 O79 1.943 . S
O72 Zn71 1.962 . S
O72 C77 1.254 . S
O73 Zn70 2.031 . S
O73 C77 1.269 . S
O74 Zn71 1.986 . S
O74 C81 1.262 . S
O75 Zn70 2.049 . S
O75 C83 1.260 . S
O76 Zn71 1.996 . S
O76 C83 1.257 . S
C77 O72 1.254 . S
C77 O73 1.269 . S
C78 O79 1.249 . S
C78 O80 1.270 . S
O79 Zn71 1.943 . S
O79 C78 1.249 . S
O80 Zn70 2.067 . S
O80 C78 1.270 . S
C81 O74 1.262 . S
C81 O82 1.232 . S
O82 C81 1.232 . S
C83 O75 1.260 . S
C83 O76 1.257 . S
Zn84 O87 2.031 . S
Zn84 O89 2.049 . S
Zn84 O94 2.067 . S
Zn85 O86 1.962 . S
Zn85 O88 1.986 . S
Zn85 O90 1.996 . S
Zn85 O93 1.943 . S
O86 Zn85 1.962 . S
O86 C91 1.254 . S
O87 Zn84 2.031 . S
O87 C91 1.269 . S
O88 Zn85 1.986 . S
O88 C95 1.262 . S
O89 Zn84 2.049 . S
O89 C97 1.260 . S
O90 Zn85 1.996 . S
O90 C97 1.257 . S
C91 O86 1.254 . S
C91 O87 1.269 . S
C92 O93 1.249 . S
C92 O94 1.270 . S
O93 Zn85 1.943 . S
O93 C92 1.249 . S
O94 Zn84 2.067 . S
O94 C92 1.270 . S
C95 O88 1.262 . S
C95 O96 1.232 . S
O96 C95 1.232 . S
C97 O89 1.260 . S
C97 O90 1.257 . S
Zn98 O101 2.024 1_655 S
Zn98 O103 2.049 . S
Zn98 O108 2.067 . S
Zn99 O100 1.962 . S
Zn99 O102 1.986 . S
Zn99 O104 1.996 . S
Zn99 O107 1.943 . S
O100 Zn99 1.962 . S
O100 C105 1.254 . S
O101 Zn98 2.024 1_455 S
O101 C105 1.314 . S
O102 Zn99 1.986 . S
O102 C109 1.262 . S
O103 Zn98 2.049 . S
O103 C111 1.260 1_655 S
O104 Zn99 1.996 . S
O104 C111 1.257 . S
C105 O100 1.254 . S
C105 O101 1.314 . S
C106 O107 1.249 1_655 S
C106 O108 1.270 . S
O107 Zn99 1.943 . S
O107 C106 1.249 1_455 S
O108 Zn98 2.067 . S
O108 C106 1.270 . S
C109 O102 1.262 . S
C109 O110 1.232 . S
O110 C109 1.232 . S
C111 O103 1.260 1_455 S
C111 O104 1.257 . S
Zn112 O115 2.031 . S
Zn112 O117 2.049 . S
Zn112 O122 2.067 . S
Zn113 O114 1.962 . S
Zn113 O116 1.986 . S
Zn113 O118 1.996 . S
Zn113 O121 1.943 1_545 S
O114 Zn113 1.962 . S
O114 C119 1.254 . S
O115 Zn112 2.031 . S
O115 C119 1.269 1_565 S
O116 Zn113 1.986 . S
O116 C123 1.262 . S
O117 Zn112 2.049 . S
O117 C125 1.260 . S
O118 Zn113 1.996 . S
O118 C125 1.257 1_545 S
C119 O114 1.254 . S
C119 O115 1.269 1_545 S
C120 O121 1.249 . S
C120 O122 1.270 . S
O121 Zn113 1.943 1_565 S
O121 C120 1.249 . S
O122 Zn112 2.067 . S
O122 C120 1.270 . S
C123 O116 1.262 . S
C123 O124 1.232 . S
O124 C123 1.232 . S
C125 O117 1.260 . S
C125 O118 1.257 1_565 S
Zn126 O129 2.031 . S
Zn126 O131 2.049 . S
Zn126 O136 2.067 . S
Zn127 O128 1.962 . S
Zn127 O130 1.986 . S
Zn127 O132 1.996 . S
Zn127 O135 1.943 . S
O128 Zn127 1.962 . S
O128 C133 1.254 . S
O129 Zn126 2.031 . S
O129 C133 1.269 . S
O130 Zn127 1.986 . S
O130 C137 1.262 . S
O131 Zn126 2.049 . S
O131 C139 1.260 . S
O132 Zn127 1.996 . S
O132 C139 1.257 . S
C133 O128 1.254 . S
C133 O129 1.269 . S
C134 O135 1.249 . S
C134 O136 1.270 . S
O135 Zn127 1.943 . S
O135 C134 1.249 . S
O136 Zn126 2.067 . S
O136 C134 1.270 . S
C137 O130 1.262 . S
C137 O138 1.232 . S
O138 C137 1.232 . S
C139 O131 1.260 . S
C139 O132 1.257 . S
Zn140 O143 2.031 . S
Zn140 O145 2.049 . S
Zn140 O150 2.067 . S
Zn141 O142 1.962 . S
Zn141 O144 1.986 . S
Zn141 O146 1.996 . S
Zn141 O149 1.943 1_565 S
O142 Zn141 1.962 . S
O142 C147 1.254 1_565 S
O143 Zn140 2.031 . S
O143 C147 1.269 . S
O144 Zn141 1.986 . S
O144 C151 1.262 . S
O145 Zn140 2.049 . S
O145 C153 1.260 . S
O146 Zn141 1.996 . S
O146 C153 1.257 1_565 S
C147 O142 1.254 1_545 S
C147 O143 1.269 . S
C148 O149 1.249 . S
C148 O150 1.270 . S
O149 Zn141 1.943 1_545 S
O149 C148 1.249 . S
O150 Zn140 2.067 . S
O150 C148 1.270 . S
C151 O144 1.262 . S
C151 O152 1.232 . S
O152 C151 1.232 . S
C153 O145 1.260 . S
C153 O146 1.257 1_545 S
Zn154 O157 2.031 1_554 S
Zn154 O159 2.049 . S
Zn154 O164 2.067 . S
Zn155 O156 1.962 1_554 S
Zn155 O158 1.986 . S
Zn155 O160 1.996 . S
Zn155 O163 1.943 . S
O156 Zn155 1.962 1_556 S
O156 C161 1.254 . S
O157 Zn154 2.031 1_556 S
O157 C161 1.269 . S
O158 Zn155 1.986 . S
O158 C165 1.262 . S
O159 Zn154 2.049 . S
O159 C167 1.260 . S
O160 Zn155 1.996 . S
O160 C167 1.257 . S
C161 O156 1.254 . S
C161 O157 1.269 . S
C162 O163 1.249 . S
C162 O164 1.270 . S
O163 Zn155 1.943 . S
O163 C162 1.249 . S
O164 Zn154 2.067 . S
O164 C162 1.270 . S
C165 O158 1.262 . S
C165 O166 1.232 1_554 S
O166 C165 1.232 1_556 S
C167 O159 1.260 . S
C167 O160 1.257 . S
Zn168 O171 2.031 1_554 S
Zn168 O173 2.049 . S
Zn168 O178 2.067 . S
Zn169 O170 1.962 1_554 S
Zn169 O172 1.986 . S
Zn169 O174 1.996 . S
Zn169 O177 1.943 . S
O170 Zn169 1.962 1_556 S
O170 C175 1.254 . S
O171 Zn168 2.031 1_556 S
O171 C175 1.269 . S
O172 Zn169 1.986 . S
O172 C179 1.262 . S
O173 Zn168 2.049 . S
O173 C181 1.260 . S
O174 Zn169 1.996 . S
O174 C181 1.257 . S
C175 O170 1.254 . S
C175 O171 1.269 . S
C176 O177 1.249 . S
C176 O178 1.270 . S
O177 Zn169 1.943 . S
O177 C176 1.249 . S
O178 Zn168 2.067 . S
O178 C176 1.270 . S
C179 O172 1.262 . S
C179 O180 1.256 . S
O180 C179 1.256 . S
C181 O173 1.260 . S
C181 O174 1.257 . S
Zn182 O185 2.031 1_554 S
Zn182 O187 2.049 . S
Zn182 O192 2.067 . S
Zn183 O184 1.962 1_554 S
Zn183 O186 1.986 . S
Zn183 O188 1.996 . S
Zn183 O191 1.943 . S
O184 Zn183 1.962 1_556 S
O184 C189 1.254 . S
O185 Zn182 2.031 1_556 S
O185 C189 1.269 . S
O186 Zn183 1.986 . S
O186 C193 1.262 . S
O187 Zn182 2.049 . S
O187 C195 1.260 . S
O188 Zn183 1.996 . S
O188 C195 1.257 . S
C189 O184 1.254 . S
C189 O185 1.269 . S
C190 O191 1.249 . S
C190 O192 1.270 . S
O191 Zn183 1.943 . S
O191 C190 1.249 . S
O192 Zn182 2.067 . S
O192 C190 1.270 . S
C193 O186 1.262 . S
C193 O194 1.216 1_554 S
O194 C193 1.216 1_556 S
C195 O187 1.260 . S
C195 O188 1.257 . S
Zn196 O199 2.031 . S
Zn196 O201 2.049 . S
Zn196 O206 2.067 . S
Zn197 O198 1.962 . S
Zn197 O200 1.986 . S
Zn197 O202 1.996 . S
Zn197 O205 1.943 . S
O198 Zn197 1.962 . S
O198 C203 1.254 . S
O199 Zn196 2.031 . S
O199 C203 1.269 . S
O200 Zn197 1.986 . S
O200 C207 1.262 . S
O201 Zn196 2.049 . S
O201 C209 1.260 . S
O202 Zn197 1.996 . S
O202 C209 1.257 . S
C203 O198 1.254 . S
C203 O199 1.269 . S
C204 O205 1.249 . S
C204 O206 1.270 . S
O205 Zn197 1.943 . S
O205 C204 1.249 . S
O206 Zn196 2.067 . S
O206 C204 1.270 . S
C207 O200 1.262 . S
C207 O208 1.232 . S
O208 C207 1.232 . S
C209 O201 1.260 . S
C209 O202 1.257 . S
Zn210 O213 2.031 . S
Zn210 O215 2.049 . S
Zn210 O220 2.067 . S
Zn211 O212 1.962 . S
Zn211 O214 1.986 . S
Zn211 O216 1.996 . S
Zn211 O219 1.943 . S
O212 Zn211 1.962 . S
O212 C217 1.254 . S
O213 Zn210 2.031 . S
O213 C217 1.269 . S
O214 Zn211 1.986 . S
O214 C221 1.262 . S
O215 Zn210 2.049 . S
O215 C223 1.260 . S
O216 Zn211 1.996 . S
O216 C223 1.257 . S
C217 O212 1.254 . S
C217 O213 1.269 . S
C218 O219 1.249 . S
C218 O220 1.270 . S
O219 Zn211 1.943 . S
O219 C218 1.249 . S
O220 Zn210 2.067 . S
O220 C218 1.270 . S
C221 O214 1.262 . S
C221 O222 1.232 . S
O222 C221 1.232 . S
C223 O215 1.260 . S
C223 O216 1.257 . S
Zn224 O227 2.031 . S
Zn224 O229 2.049 . S
Zn224 O234 2.067 . S
Zn225 O226 1.962 . S
Zn225 O228 1.986 . S
Zn225 O230 1.996 . S
Zn225 O233 1.943 . S
O226 Zn225 1.962 . S
O226 C231 1.254 . S
O227 Zn224 2.031 . S
O227 C231 1.269 . S
O228 Zn225 1.986 . S
O228 C235 1.262 . S
O229 Zn224 2.049 . S
O229 C237 1.260 . S
O230 Zn225 1.996 . S
O230 C237 1.257 . S
C231 O226 1.254 . S
C231 O227 1.269 . S
C232 O233 1.249 . S
C232 O234 1.270 . S
O233 Zn225 1.943 . S
O233 C232 1.249 . S
O234 Zn224 2.067 . S
O234 C232 1.270 . S
C235 O228 1.262 . S
C235 O236 1.232 . S
O236 C235 1.232 . S
C237 O229 1.260 . S
C237 O230 1.257 . S
Zn238 O241 2.031 . S
Zn238 O243 2.049 . S
Zn238 O248 2.067 . S
Zn239 O240 1.962 . S
Zn239 O242 1.986 . S
Zn239 O244 1.996 . S
Zn239 O247 1.943 . S
O240 Zn239 1.962 . S
O240 C245 1.254 . S
O241 Zn238 2.031 . S
O241 C245 1.269 . S
O242 Zn239 1.986 . S
O242 C249 1.262 . S
O243 Zn238 2.049 . S
O243 C251 1.260 . S
O244 Zn239 1.996 . S
O244 C251 1.257 . S
C245 O240 1.254 . S
C245 O241 1.269 . S
C246 O247 1.249 . S
C246 O248 1.270 . S
O247 Zn239 1.943 . S
O247 C246 1.249 . S
O248 Zn238 2.067 . S
O248 C246 1.270 . S
C249 O242 1.262 . S
C249 O250 1.232 . S
O250 C249 1.232 . S
C251 O243 1.260 . S
C251 O244 1.257 . S
Zn252 O255 2.031 . S
Zn252 O257 2.049 . S
Zn252 O262 2.067 . S
Zn253 O254 1.962 . S
Zn253 O256 1.986 . S
Zn253 O258 1.996 . S
Zn253 O261 1.943 . S
O254 Zn253 1.962 . S
O254 C259 1.254 . S
O255 Zn252 2.031 . S
O255 C259 1.269 . S
O256 Zn253 1.986 . S
O256 C263 1.262 . S
O257 Zn252 2.049 . S
O257 C265 1.260 . S
O258 Zn253 1.996 . S
O258 C265 1.257 . S
C259 O254 1.254 . S
C259 O255 1.269 . S
C260 O261 1.249 . S
C260 O262 1.270 . S
O261 Zn253 1.943 . S
O261 C260 1.249 . S
O262 Zn252 2.067 . S
O262 C260 1.270 . S
C263 O256 1.262 . S
C263 O264 1.232 . S
O264 C263 1.232 . S
C265 O257 1.260 . S
C265 O258 1.257 . S
Zn266 O269 2.031 . S
Zn266 O271 2.049 . S
Zn266 O276 2.067 . S
Zn267 O268 1.962 . S
Zn267 O270 1.986 . S
Zn267 O272 1.996 . S
Zn267 O275 1.943 . S
O268 Zn267 1.962 . S
O268 C273 1.254 . S
O269 Zn266 2.031 . S
O269 C273 1.269 . S
O270 Zn267 1.986 . S
O270 C277 1.262 . S
O271 Zn266 2.049 . S
O271 C279 1.260 . S
O272 Zn267 1.996 . S
O272 C279 1.257 . S
C273 O268 1.254 . S
C273 O269 1.269 . S
C274 O275 1.249 . S
C274 O276 1.270 . S
O275 Zn267 1.943 . S
O275 C274 1.249 . S
O276 Zn266 2.067 . S
O276 C274 1.270 . S
C277 O270 1.262 . S
C277 O278 1.232 . S
O278 C277 1.232 . S
C279 O271 1.260 . S
C279 O272 1.257 . S
Zn280 O283 2.031 1_554 S
Zn280 O285 2.049 . S
Zn280 O290 2.067 . S
Zn281 O282 1.962 1_554 S
Zn281 O284 1.986 . S
Zn281 O286 1.996 . S
Zn281 O289 1.943 . S
O282 Zn281 1.962 1_556 S
O282 C287 1.254 . S
O283 Zn280 2.031 1_556 S
O283 C287 1.269 . S
O284 Zn281 1.986 . S
O284 C291 1.262 . S
O285 Zn280 2.049 . S
O285 C293 1.260 . S
O286 Zn281 1.996 . S
O286 C293 1.257 . S
C287 O282 1.254 . S
C287 O283 1.269 . S
C288 O289 1.249 . S
C288 O290 1.270 . S
O289 Zn281 1.943 . S
O289 C288 1.249 . S
O290 Zn280 2.067 . S
O290 C288 1.270 . S
C291 O284 1.262 . S
C291 O292 1.232 1_554 S
O292 C291 1.232 1_556 S
C293 O285 1.260 . S
C293 O286 1.257 . S
Zn294 O297 2.031 . S
Zn294 O299 2.049 . S
Zn294 O304 2.067 . S
Zn295 O296 1.962 . S
Zn295 O298 1.986 . S
Zn295 O300 1.996 . S
Zn295 O303 1.943 . S
O296 Zn295 1.962 . S
O296 C301 1.254 . S
O297 Zn294 2.031 . S
O297 C301 1.269 . S
O298 Zn295 1.986 . S
O298 C305 1.262 . S
O299 Zn294 2.049 . S
O299 C307 1.260 . S
O300 Zn295 1.996 . S
O300 C307 1.257 . S
C301 O296 1.254 . S
C301 O297 1.269 . S
C302 O303 1.249 . S
C302 O304 1.270 . S
O303 Zn295 1.943 . S
O303 C302 1.249 . S
O304 Zn294 2.067 . S
O304 C302 1.270 . S
C305 O298 1.262 . S
C305 O306 1.232 . S
O306 C305 1.232 . S
C307 O299 1.260 . S
C307 O300 1.257 . S
Zn308 O311 2.031 . S
Zn308 O313 2.049 . S
Zn308 O318 2.067 . S
Zn309 O310 1.962 . S
Zn309 O312 1.986 . S
Zn309 O314 1.996 . S
Zn309 O317 1.943 . S
O310 Zn309 1.962 . S
O310 C315 1.254 . S
O311 Zn308 2.031 . S
O311 C315 1.269 . S
O312 Zn309 1.986 . S
O312 C319 1.262 . S
O313 Zn308 2.049 . S
O313 C321 1.260 . S
O314 Zn309 1.996 . S
O314 C321 1.257 . S
C315 O310 1.254 . S
C315 O311 1.269 . S
C316 O317 1.249 . S
C316 O318 1.270 . S
O317 Zn309 1.943 . S
O317 C316 1.249 . S
O318 Zn308 2.067 . S
O318 C316 1.270 . S
C319 O312 1.262 . S
C319 O320 1.232 . S
O320 C319 1.232 . S
C321 O313 1.260 . S
C321 O314 1.257 . S
Zn322 O325 2.031 . S
Zn322 O327 2.049 . S
Zn322 O332 2.067 . S
Zn323 O324 1.962 . S
Zn323 O326 1.986 . S
Zn323 O328 1.996 . S
Zn323 O331 1.943 . S
O324 Zn323 1.962 . S
O324 C329 1.254 . S
O325 Zn322 2.031 . S
O325 C329 1.269 . S
O326 Zn323 1.986 . S
O326 C333 1.262 . S
O327 Zn322 2.049 . S
O327 C335 1.260 . S
O328 Zn323 1.996 . S
O328 C335 1.257 . S
C329 O324 1.254 . S
C329 O325 1.269 . S
C330 O331 1.249 . S
C330 O332 1.270 . S
O331 Zn323 1.943 . S
O331 C330 1.249 . S
O332 Zn322 2.067 . S
O332 C330 1.270 . S
C333 O326 1.262 . S
C333 O334 1.232 . S
O334 C333 1.232 . S
C335 O327 1.260 . S
C335 O328 1.257 . S
La336 C338 2.928 1_454 S
La336 O356 2.521 1_454 S
La336 O357 2.628 1_455 S
La336 O358 2.554 1_554 S
La336 O359 2.757 1_554 S
La336 O360 2.470 1_554 S
La336 O365 2.482 . S
La336 O367 2.503 1_545 S
La337 C347 2.928 . S
La337 O359 2.482 1_554 S
La337 O361 2.503 . S
La337 O362 2.521 . S
La337 O363 2.628 . S
La337 O364 2.554 . S
La337 O365 2.757 . S
La337 O366 2.470 . S
C338 La336 2.928 1_656 S
C338 C339 1.503 . S
C338 O356 1.261 . S
C338 O357 1.243 1_556 S
C339 C338 1.503 . S
C339 C340 1.394 . S
C339 C344 1.373 1_556 S
C340 C339 1.394 . S
C340 C341 1.380 . S
C340 H368 0.930 . S
C341 C340 1.380 . S
C341 C342 1.376 . S
C341 H369 0.930 . S
C342 C341 1.376 . S
C342 C343 1.370 . S
C343 C342 1.370 . S
C343 C344 1.396 1_556 S
C343 H370 0.929 1_556 S
C344 C339 1.373 1_554 S
C344 C343 1.396 1_554 S
C344 H371 0.929 . S
C345 O358 1.240 . S
C345 O359 1.289 . S
C346 O360 1.258 1_554 S
C346 O361 1.256 . S
C347 La337 2.928 . S
C347 C348 1.503 . S
C347 O362 1.261 . S
C347 O363 1.243 . S
C348 C347 1.503 . S
C348 C349 1.394 . S
C348 C353 1.373 . S
C349 C348 1.394 . S
C349 C350 1.380 . S
C349 H372 0.930 . S
C350 C349 1.380 . S
C350 C351 1.376 . S
C350 H373 0.930 . S
C351 C350 1.376 . S
C351 C352 1.370 1_545 S
C352 C351 1.370 1_565 S
C352 C353 1.396 1_565 S
C352 H374 0.929 . S
C353 C348 1.373 . S
C353 C352 1.396 1_545 S
C353 H375 0.929 . S
C354 O364 1.240 . S
C354 O365 1.289 . S
C355 O366 1.258 1_565 S
C355 O367 1.256 . S
O356 La336 2.521 1_656 S
O356 C338 1.261 . S
O357 La336 2.628 1_655 S
O357 C338 1.243 1_554 S
O358 La336 2.554 1_556 S
O358 C345 1.240 . S
O359 La336 2.757 1_556 S
O359 La337 2.482 1_556 S
O359 C345 1.289 . S
O360 La336 2.470 1_556 S
O360 C346 1.258 1_556 S
O361 La337 2.503 . S
O361 C346 1.256 . S
O362 La337 2.521 . S
O362 C347 1.261 . S
O363 La337 2.628 . S
O363 C347 1.243 . S
O364 La337 2.554 . S
O364 C354 1.240 . S
O365 La336 2.482 . S
O365 La337 2.757 . S
O365 C354 1.289 . S
O366 La337 2.470 . S
O366 C355 1.258 1_545 S
O367 La336 2.503 1_565 S
O367 C355 1.256 . S
H368 C340 0.930 . S
H369 C341 0.930 . S
H370 C343 0.929 1_554 S
H371 C344 0.929 . S
H372 C349 0.930 . S
H373 C350 0.930 . S
H374 C352 0.929 . S
H375 C353 0.929 . S
La376 C378 2.928 . S
La376 O396 2.521 . S
La376 O397 2.628 . S
La376 O398 2.554 . S
La376 O399 2.757 . S
La376 O400 2.470 . S
La376 O405 2.482 . S
La376 O407 2.503 . S
La377 C387 2.928 . S
La377 O399 2.482 . S
La377 O401 2.503 . S
La377 O402 2.521 . S
La377 O403 2.628 . S
La377 O404 2.554 . S
La377 O405 2.757 . S
La377 O406 2.470 . S
C378 La376 2.928 . S
C378 C379 1.503 . S
C378 O396 1.261 . S
C378 O397 1.243 . S
C379 C378 1.503 . S
C379 C380 1.394 . S
C379 C384 1.373 . S
C380 C379 1.394 . S
C380 C381 1.380 . S
C380 H408 0.930 . S
C381 C380 1.380 . S
C381 C382 1.376 . S
C381 H409 0.930 . S
C382 C381 1.376 . S
C382 C383 1.370 . S
C383 C382 1.370 . S
C383 C384 1.396 . S
C383 H410 0.929 . S
C384 C379 1.373 . S
C384 C383 1.396 . S
C384 H411 0.929 . S
C385 O398 1.240 . S
C385 O399 1.289 . S
C386 O400 1.258 . S
C386 O401 1.256 . S
C387 La377 2.928 . S
C387 C388 1.503 . S
C387 O402 1.261 . S
C387 O403 1.243 . S
C388 C387 1.503 . S
C388 C389 1.394 . S
C388 C393 1.373 . S
C389 C388 1.394 . S
C389 C390 1.380 . S
C389 H412 0.930 . S
C390 C389 1.380 . S
C390 C391 1.376 . S
C390 H413 0.930 . S
C391 C390 1.376 . S
C391 C392 1.370 . S
C392 C391 1.370 . S
C392 C393 1.396 . S
C392 H414 0.929 . S
C393 C388 1.373 . S
C393 C392 1.396 . S
C393 H415 0.929 . S
C394 O404 1.240 . S
C394 O405 1.289 . S
C395 O406 1.258 . S
C395 O407 1.256 . S
O396 La376 2.521 . S
O396 C378 1.261 . S
O397 La376 2.628 . S
O397 C378 1.243 . S
O398 La376 2.554 . S
O398 C385 1.240 . S
O399 La376 2.757 . S
O399 La377 2.482 . S
O399 C385 1.289 . S
O400 La376 2.470 . S
O400 C386 1.258 . S
O401 La377 2.503 . S
O401 C386 1.256 . S
O402 La377 2.521 . S
O402 C387 1.261 . S
O403 La377 2.628 . S
O403 C387 1.243 . S
O404 La377 2.554 . S
O404 C394 1.240 . S
O405 La376 2.482 . S
O405 La377 2.757 . S
O405 C394 1.289 . S
O406 La377 2.470 . S
O406 C395 1.258 . S
O407 La376 2.503 . S
O407 C395 1.256 . S
H408 C380 0.930 . S
H409 C381 0.930 . S
H410 C383 0.929 . S
H411 C384 0.929 . S
H412 C389 0.930 . S
H413 C390 0.930 . S
H414 C392 0.929 . S
H415 C393 0.929 . S
La416 C418 2.928 . S
La416 O436 2.521 . S
La416 O437 2.628 . S
La416 O438 2.554 . S
La416 O439 2.757 . S
La416 O440 2.470 1_545 S
La416 O445 2.482 . S
La416 O447 2.503 . S
La417 C427 2.928 . S
La417 O439 2.482 . S
La417 O441 2.503 1_545 S
La417 O442 2.521 . S
La417 O443 2.628 . S
La417 O444 2.554 . S
La417 O445 2.757 . S
La417 O446 2.470 . S
C418 La416 2.928 . S
C418 C419 1.503 1_545 S
C418 O436 1.261 . S
C418 O437 1.243 . S
C419 C418 1.503 1_565 S
C419 C420 1.394 . S
C419 C424 1.373 . S
C420 C419 1.394 . S
C420 C421 1.380 . S
C420 H448 0.914 1_565 S
C421 C420 1.380 . S
C421 C422 1.376 . S
C421 H449 0.930 . S
C422 C421 1.376 . S
C422 C423 1.370 . S
C423 C422 1.370 . S
C423 C424 1.396 . S
C423 H450 0.929 . S
C424 C419 1.373 . S
C424 C423 1.396 . S
C424 H451 0.929 . S
C425 O438 1.240 . S
C425 O439 1.289 . S
C426 O440 1.258 . S
C426 O441 1.256 . S
C427 La417 2.928 . S
C427 C428 1.503 . S
C427 O442 1.261 . S
C427 O443 1.243 . S
C428 C427 1.503 . S
C428 C429 1.394 . S
C428 C433 1.373 . S
C429 C428 1.394 . S
C429 C430 1.380 . S
C429 H452 0.930 . S
C430 C429 1.380 . S
C430 C431 1.376 . S
C430 H453 0.930 . S
C431 C430 1.376 . S
C431 C432 1.370 . S
C432 C431 1.370 . S
C432 C433 1.396 . S
C432 H454 0.929 . S
C433 C428 1.373 . S
C433 C432 1.396 . S
C433 H455 0.929 . S
C434 O444 1.240 . S
C434 O445 1.289 . S
C435 O446 1.258 . S
C435 O447 1.256 . S
O436 La416 2.521 . S
O436 C418 1.261 . S
O437 La416 2.628 . S
O437 C418 1.243 . S
O438 La416 2.554 . S
O438 C425 1.240 . S
O439 La416 2.757 . S
O439 La417 2.482 . S
O439 C425 1.289 . S
O440 La416 2.470 1_565 S
O440 C426 1.258 . S
O441 La417 2.503 1_565 S
O441 C426 1.256 . S
O442 La417 2.521 . S
O442 C427 1.261 . S
O443 La417 2.628 . S
O443 C427 1.243 . S
O444 La417 2.554 . S
O444 C434 1.240 . S
O445 La416 2.482 . S
O445 La417 2.757 . S
O445 C434 1.289 . S
O446 La417 2.470 . S
O446 C435 1.258 . S
O447 La416 2.503 . S
O447 C435 1.256 . S
H448 C420 0.914 1_545 S
H449 C421 0.930 . S
H450 C423 0.929 . S
H451 C424 0.929 . S
H452 C429 0.930 . S
H453 C430 0.930 . S
H454 C432 0.929 . S
H455 C433 0.929 . S
La456 C458 2.928 . S
La456 O476 2.521 . S
La456 O477 2.628 . S
La456 O478 2.554 . S
La456 O479 2.757 . S
La456 O480 2.470 . S
La456 O485 2.482 . S
La456 O487 2.503 . S
La457 C467 2.928 . S
La457 O479 2.482 . S
La457 O481 2.503 . S
La457 O482 2.521 . S
La457 O483 2.628 . S
La457 O484 2.554 . S
La457 O485 2.757 . S
La457 O486 2.470 . S
C458 La456 2.928 . S
C458 C459 1.503 . S
C458 O476 1.261 . S
C458 O477 1.243 . S
C459 C458 1.503 . S
C459 C460 1.394 . S
C459 C464 1.373 . S
C460 C459 1.394 . S
C460 C461 1.380 . S
C460 H488 0.930 . S
C461 C460 1.380 . S
C461 C462 1.376 . S
C461 H489 0.930 . S
C462 C461 1.376 . S
C462 C463 1.370 . S
C463 C462 1.370 . S
C463 C464 1.396 . S
C463 H490 0.929 . S
C464 C459 1.373 . S
C464 C463 1.396 . S
C464 H491 0.929 . S
C465 O478 1.240 . S
C465 O479 1.289 . S
C466 O480 1.258 . S
C466 O481 1.256 . S
C467 La457 2.928 . S
C467 C468 1.503 . S
C467 O482 1.261 . S
C467 O483 1.243 . S
C468 C467 1.503 . S
C468 C469 1.394 . S
C468 C473 1.373 . S
C469 C468 1.394 . S
C469 C470 1.380 . S
C469 H492 0.930 . S
C470 C469 1.380 . S
C470 C471 1.376 . S
C470 H493 0.930 . S
C471 C470 1.376 . S
C471 C472 1.370 . S
C472 C471 1.370 . S
C472 C473 1.396 . S
C472 H494 0.929 . S
C473 C468 1.373 . S
C473 C472 1.396 . S
C473 H495 0.929 . S
C474 O484 1.240 . S
C474 O485 1.289 . S
C475 O486 1.258 . S
C475 O487 1.256 . S
O476 La456 2.521 . S
O476 C458 1.261 . S
O477 La456 2.628 . S
O477 C458 1.243 . S
O478 La456 2.554 . S
O478 C465 1.240 . S
O479 La456 2.757 . S
O479 La457 2.482 . S
O479 C465 1.289 . S
O480 La456 2.470 . S
O480 C466 1.258 . S
O481 La457 2.503 . S
O481 C466 1.256 . S
O482 La457 2.521 . S
O482 C467 1.261 . S
O483 La457 2.628 . S
O483 C467 1.243 . S
O484 La457 2.554 . S
O484 C474 1.240 . S
O485 La456 2.482 . S
O485 La457 2.757 . S
O485 C474 1.289 . S
O486 La457 2.470 . S
O486 C475 1.258 . S
O487 La456 2.503 . S
O487 C475 1.256 . S
H488 C460 0.930 . S
H489 C461 0.930 . S
H490 C463 0.929 . S
H491 C464 0.929 . S
H492 C469 0.930 . S
H493 C470 0.930 . S
H494 C472 0.929 . S
H495 C473 0.929 . S
La496 C498 2.928 . S
La496 O516 2.521 . S
La496 O517 2.628 . S
La496 O518 2.554 . S
La496 O519 2.757 . S
La496 O520 2.470 . S
La496 O525 2.482 . S
La496 O527 2.503 . S
La497 C507 2.928 . S
La497 O519 2.482 1_565 S
La497 O521 2.503 1_565 S
La497 O522 2.521 . S
La497 O523 2.628 . S
La497 O524 2.554 1_565 S
La497 O525 2.757 1_565 S
La497 O526 2.470 1_565 S
C498 La496 2.928 . S
C498 C499 1.503 . S
C498 O516 1.261 . S
C498 O517 1.243 . S
C499 C498 1.503 . S
C499 C500 1.394 . S
C499 C504 1.373 . S
C500 C499 1.394 . S
C500 C501 1.380 . S
C500 H528 0.930 . S
C501 C500 1.380 . S
C501 C502 1.376 . S
C501 H529 0.930 . S
C502 C501 1.376 . S
C502 C503 1.370 . S
C503 C502 1.370 . S
C503 C504 1.396 . S
C503 H530 0.929 . S
C504 C499 1.373 . S
C504 C503 1.396 . S
C504 H531 0.929 . S
C505 O518 1.240 . S
C505 O519 1.289 . S
C506 O520 1.258 . S
C506 O521 1.256 . S
C507 La497 2.928 . S
C507 C508 1.503 . S
C507 O522 1.261 . S
C507 O523 1.243 . S
C508 C507 1.503 . S
C508 C509 1.394 . S
C508 C513 1.373 . S
C509 C508 1.394 . S
C509 C510 1.380 . S
C509 H532 0.930 . S
C510 C509 1.380 . S
C510 C511 1.376 . S
C510 H533 0.930 . S
C511 C510 1.376 . S
C511 C512 1.370 . S
C512 C511 1.370 . S
C512 C513 1.396 . S
C512 H534 0.929 . S
C513 C508 1.373 . S
C513 C512 1.396 . S
C513 H535 0.929 . S
C514 O524 1.240 . S
C514 O525 1.289 . S
C515 O526 1.258 . S
C515 O527 1.256 . S
O516 La496 2.521 . S
O516 C498 1.261 . S
O517 La496 2.628 . S
O517 C498 1.243 . S
O518 La496 2.554 . S
O518 C505 1.240 . S
O519 La496 2.757 . S
O519 La497 2.482 1_545 S
O519 C505 1.289 . S
O520 La496 2.470 . S
O520 C506 1.258 . S
O521 La497 2.503 1_545 S
O521 C506 1.256 . S
O522 La497 2.521 . S
O522 C507 1.261 . S
O523 La497 2.628 . S
O523 C507 1.243 . S
O524 La497 2.554 1_545 S
O524 C514 1.240 . S
O525 La496 2.482 . S
O525 La497 2.757 1_545 S
O525 C514 1.289 . S
O526 La497 2.470 1_545 S
O526 C515 1.258 . S
O527 La496 2.503 . S
O527 C515 1.256 . S
H528 C500 0.930 . S
H529 C501 0.930 . S
H530 C503 0.929 . S
H531 C504 0.929 . S
H532 C509 0.930 . S
H533 C510 0.930 . S
H534 C512 0.929 . S
H535 C513 0.929 . S
La536 C538 2.928 . S
La536 O556 2.521 . S
La536 O557 2.628 . S
La536 O558 2.554 . S
La536 O559 2.757 . S
La536 O560 2.470 . S
La536 O565 2.482 . S
La536 O567 2.503 . S
La537 C547 2.928 . S
La537 O559 2.482 . S
La537 O561 2.503 . S
La537 O562 2.521 . S
La537 O563 2.628 . S
La537 O564 2.554 . S
La537 O565 2.757 . S
La537 O566 2.470 . S
C538 La536 2.928 . S
C538 C539 1.503 . S
C538 O556 1.261 . S
C538 O557 1.243 . S
C539 C538 1.503 . S
C539 C540 1.394 . S
C539 C544 1.373 . S
C540 C539 1.394 . S
C540 C541 1.380 . S
C540 H568 0.930 . S
C541 C540 1.380 . S
C541 C542 1.376 . S
C541 H569 0.930 . S
C542 C541 1.376 . S
C542 C543 1.370 . S
C543 C542 1.370 . S
C543 C544 1.396 . S
C543 H570 0.929 . S
C544 C539 1.373 . S
C544 C543 1.396 . S
C544 H571 0.929 . S
C545 O558 1.240 . S
C545 O559 1.289 . S
C546 O560 1.258 . S
C546 O561 1.256 . S
C547 La537 2.928 . S
C547 C548 1.503 . S
C547 O562 1.261 . S
C547 O563 1.243 . S
C548 C547 1.503 . S
C548 C549 1.394 . S
C548 C553 1.373 . S
C549 C548 1.394 . S
C549 C550 1.380 . S
C549 H572 0.930 . S
C550 C549 1.380 . S
C550 C551 1.376 . S
C550 H573 0.930 . S
C551 C550 1.376 . S
C551 C552 1.370 . S
C552 C551 1.370 . S
C552 C553 1.396 . S
C552 H574 0.929 . S
C553 C548 1.373 . S
C553 C552 1.396 . S
C553 H575 0.929 . S
C554 O564 1.240 . S
C554 O565 1.289 . S
C555 O566 1.258 . S
C555 O567 1.256 . S
O556 La536 2.521 . S
O556 C538 1.261 . S
O557 La536 2.628 . S
O557 C538 1.243 . S
O558 La536 2.554 . S
O558 C545 1.240 . S
O559 La536 2.757 . S
O559 La537 2.482 . S
O559 C545 1.289 . S
O560 La536 2.470 . S
O560 C546 1.258 . S
O561 La537 2.503 . S
O561 C546 1.256 . S
O562 La537 2.521 . S
O562 C547 1.261 . S
O563 La537 2.628 . S
O563 C547 1.243 . S
O564 La537 2.554 . S
O564 C554 1.240 . S
O565 La536 2.482 . S
O565 La537 2.757 . S
O565 C554 1.289 . S
O566 La537 2.470 . S
O566 C555 1.258 . S
O567 La536 2.503 . S
O567 C555 1.256 . S
H568 C540 0.930 . S
H569 C541 0.930 . S
H570 C543 0.929 . S
H571 C544 0.929 . S
H572 C549 0.930 . S
H573 C550 0.930 . S
H574 C552 0.929 . S
H575 C553 0.929 . S
La576 C578 2.928 . S
La576 O596 2.521 . S
La576 O597 2.628 . S
La576 O598 2.554 1_545 S
La576 O599 2.757 1_554 S
La576 O600 2.470 . S
La576 O605 2.482 . S
La576 O607 2.503 . S
La577 C587 2.928 . S
La577 O599 2.482 . S
La577 O601 2.503 . S
La577 O602 2.521 . S
La577 O603 2.628 . S
La577 O604 2.554 . S
La577 O605 2.757 1_556 S
La577 O606 2.470 . S
C578 La576 2.928 . S
C578 C579 1.503 . S
C578 O596 1.261 . S
C578 O597 1.243 . S
C579 C578 1.503 . S
C579 C580 1.394 1_545 S
C579 C584 1.373 . S
C580 C579 1.394 1_565 S
C580 C581 1.380 . S
C580 H608 0.930 . S
C581 C580 1.380 . S
C581 C582 1.376 . S
C581 H609 0.930 . S
C582 C581 1.376 . S
C582 C583 1.370 1_565 S
C583 C582 1.370 1_545 S
C583 C584 1.396 . S
C583 H610 0.929 . S
C584 C579 1.373 . S
C584 C583 1.396 . S
C584 H611 0.929 . S
C585 O598 1.240 1_556 S
C585 O599 1.289 1_565 S
C586 O600 1.258 . S
C586 O601 1.256 1_554 S
C587 La577 2.928 . S
C587 C588 1.503 . S
C587 O602 1.261 . S
C587 O603 1.243 . S
C588 C587 1.503 . S
C588 C589 1.394 . S
C588 C593 1.373 . S
C589 C588 1.394 . S
C589 C590 1.380 . S
C589 H612 0.930 . S
C590 C589 1.380 . S
C590 C591 1.376 . S
C590 H613 0.930 . S
C591 C590 1.376 . S
C591 C592 1.370 . S
C592 C591 1.370 . S
C592 C593 1.396 . S
C592 H614 0.929 . S
C593 C588 1.373 . S
C593 C592 1.396 . S
C593 H615 0.929 . S
C594 O604 1.240 1_554 S
C594 O605 1.289 . S
C595 O606 1.258 1_554 S
C595 O607 1.256 . S
O596 La576 2.521 . S
O596 C578 1.261 . S
O597 La576 2.628 . S
O597 C578 1.243 . S
O598 La576 2.554 1_565 S
O598 C585 1.240 1_554 S
O599 La576 2.757 1_556 S
O599 La577 2.482 . S
O599 C585 1.289 1_545 S
O600 La576 2.470 . S
O600 C586 1.258 . S
O601 La577 2.503 . S
O601 C586 1.256 1_556 S
O602 La577 2.521 . S
O602 C587 1.261 . S
O603 La577 2.628 . S
O603 C587 1.243 . S
O604 La577 2.554 . S
O604 C594 1.240 1_556 S
O605 La576 2.482 . S
O605 La577 2.757 1_554 S
O605 C594 1.289 . S
O606 La577 2.470 . S
O606 C595 1.258 1_556 S
O607 La576 2.503 . S
O607 C595 1.256 . S
H608 C580 0.930 . S
H609 C581 0.930 . S
H610 C583 0.929 . S
H611 C584 0.929 . S
H612 C589 0.930 . S
H613 C590 0.930 . S
H614 C592 0.929 . S
H615 C593 0.929 . S
La616 C618 2.928 . S
La616 O636 2.521 . S
La616 O637 2.628 . S
La616 O638 2.554 . S
La616 O639 2.757 . S
La616 O640 2.470 . S
La616 O645 2.482 . S
La616 O647 2.503 . S
La617 C627 2.928 . S
La617 O639 2.482 . S
La617 O641 2.503 . S
La617 O642 2.521 . S
La617 O643 2.628 . S
La617 O644 2.554 . S
La617 O645 2.757 . S
La617 O646 2.470 . S
C618 La616 2.928 . S
C618 C619 1.503 . S
C618 O636 1.261 . S
C618 O637 1.243 . S
C619 C618 1.503 . S
C619 C620 1.394 . S
C619 C624 1.373 . S
C620 C619 1.394 . S
C620 C621 1.380 . S
C620 H648 0.930 . S
C621 C620 1.380 . S
C621 C622 1.376 . S
C621 H649 0.930 . S
C622 C621 1.376 . S
C622 C623 1.370 . S
C623 C622 1.370 . S
C623 C624 1.396 . S
C623 H650 0.929 . S
C624 C619 1.373 . S
C624 C623 1.396 . S
C624 H651 0.929 . S
C625 O638 1.240 . S
C625 O639 1.289 . S
C626 O640 1.258 . S
C626 O641 1.256 . S
C627 La617 2.928 . S
C627 C628 1.503 . S
C627 O642 1.261 . S
C627 O643 1.243 . S
C628 C627 1.503 . S
C628 C629 1.394 . S
C628 C633 1.373 . S
C629 C628 1.394 . S
C629 C630 1.380 . S
C629 H652 0.930 . S
C630 C629 1.380 . S
C630 C631 1.376 . S
C630 H653 0.930 . S
C631 C630 1.376 . S
C631 C632 1.370 . S
C632 C631 1.370 . S
C632 C633 1.396 . S
C632 H654 0.929 . S
C633 C628 1.373 . S
C633 C632 1.396 . S
C633 H655 0.929 . S
C634 O644 1.240 . S
C634 O645 1.289 . S
C635 O646 1.258 . S
C635 O647 1.256 . S
O636 La616 2.521 . S
O636 C618 1.261 . S
O637 La616 2.628 . S
O637 C618 1.243 . S
O638 La616 2.554 . S
O638 C625 1.240 . S
O639 La616 2.757 . S
O639 La617 2.482 . S
O639 C625 1.289 . S
O640 La616 2.470 . S
O640 C626 1.258 . S
O641 La617 2.503 . S
O641 C626 1.256 . S
O642 La617 2.521 . S
O642 C627 1.261 . S
O643 La617 2.628 . S
O643 C627 1.243 . S
O644 La617 2.554 . S
O644 C634 1.240 . S
O645 La616 2.482 . S
O645 La617 2.757 . S
O645 C634 1.289 . S
O646 La617 2.470 . S
O646 C635 1.258 . S
O647 La616 2.503 . S
O647 C635 1.256 . S
H648 C620 0.930 . S
H649 C621 0.930 . S
H650 C623 0.929 . S
H651 C624 0.929 . S
H652 C629 0.930 . S
H653 C630 0.930 . S
H654 C632 0.929 . S
H655 C633 0.929 . S
La656 C658 2.928 1_554 S
La656 O676 2.521 . S
La656 O677 2.628 1_554 S
La656 O678 2.554 . S
La656 O679 2.757 . S
La656 O680 2.470 1_554 S
La656 O685 2.482 . S
La656 O687 2.503 . S
La657 C667 2.928 1_556 S
La657 O679 2.482 1_556 S
La657 O681 2.503 . S
La657 O682 2.521 1_556 S
La657 O683 2.628 1_556 S
La657 O684 2.554 . S
La657 O685 2.757 1_556 S
La657 O686 2.470 1_556 S
C658 La656 2.928 1_556 S
C658 C659 1.503 . S
C658 O676 1.261 1_556 S
C658 O677 1.243 . S
C659 C658 1.503 . S
C659 C660 1.394 . S
C659 C664 1.373 . S
C660 C659 1.394 . S
C660 C661 1.380 . S
C660 H688 0.930 1_556 S
C661 C660 1.380 . S
C661 C662 1.376 . S
C661 H689 0.930 . S
C662 C661 1.376 . S
C662 C663 1.370 . S
C663 C662 1.370 . S
C663 C664 1.396 . S
C663 H690 0.929 . S
C664 C659 1.373 . S
C664 C663 1.396 . S
C664 H691 0.929 . S
C665 O678 1.240 . S
C665 O679 1.289 . S
C666 O680 1.258 . S
C666 O681 1.256 . S
C667 La657 2.928 1_554 S
C667 C668 1.503 . S
C667 O682 1.261 . S
C667 O683 1.243 . S
C668 C667 1.503 . S
C668 C669 1.394 . S
C668 C673 1.373 . S
C669 C668 1.394 . S
C669 C670 1.380 . S
C669 H692 0.930 . S
C670 C669 1.380 . S
C670 C671 1.376 . S
C670 H693 0.930 . S
C671 C670 1.376 . S
C671 C672 1.370 . S
C672 C671 1.370 . S
C672 C673 1.396 . S
C672 H694 0.929 . S
C673 C668 1.373 . S
C673 C672 1.396 . S
C673 H695 0.929 . S
C674 O684 1.240 1_554 S
C674 O685 1.289 . S
C675 O686 1.258 . S
C675 O687 1.256 . S
O676 La656 2.521 . S
O676 C658 1.261 1_554 S
O677 La656 2.628 1_556 S
O677 C658 1.243 . S
O678 La656 2.554 . S
O678 C665 1.240 . S
O679 La656 2.757 . S
O679 La657 2.482 1_554 S
O679 C665 1.289 . S
O680 La656 2.470 1_556 S
O680 C666 1.258 . S
O681 La657 2.503 . S
O681 C666 1.256 . S
O682 La657 2.521 1_554 S
O682 C667 1.261 . S
O683 La657 2.628 1_554 S
O683 C667 1.243 . S
O684 La657 2.554 . S
O684 C674 1.240 1_556 S
O685 La656 2.482 . S
O685 La657 2.757 1_554 S
O685 C674 1.289 . S
O686 La657 2.470 1_554 S
O686 C675 1.258 . S
O687 La656 2.503 . S
O687 C675 1.256 . S
H688 C660 0.930 1_554 S
H689 C661 0.930 . S
H690 C663 0.929 . S
H691 C664 0.929 . S
H692 C669 0.930 . S
H693 C670 0.930 . S
H694 C672 0.929 . S
H695 C673 0.929 . S
La696 C698 2.928 . S
La696 O716 2.521 . S
La696 O717 2.628 . S
La696 O718 2.554 . S
La696 O719 2.757 . S
La696 O720 2.470 . S
La696 O725 2.482 . S
La696 O727 2.503 . S
La697 C707 2.928 . S
La697 O719 2.482 . S
La697 O721 2.503 . S
La697 O722 2.521 . S
La697 O723 2.628 . S
La697 O724 2.554 . S
La697 O725 2.757 . S
La697 O726 2.470 . S
C698 La696 2.928 . S
C698 C699 1.503 . S
C698 O716 1.261 . S
C698 O717 1.243 . S
C699 C698 1.503 . S
C699 C700 1.394 . S
C699 C704 1.373 . S
C700 C699 1.394 . S
C700 C701 1.380 . S
C700 H728 0.930 . S
C701 C700 1.380 . S
C701 C702 1.376 . S
C701 H729 0.930 . S
C702 C701 1.376 . S
C702 C703 1.370 . S
C703 C702 1.370 . S
C703 C704 1.396 . S
C703 H730 0.929 . S
C704 C699 1.373 . S
C704 C703 1.396 . S
C704 H731 0.929 . S
C705 O718 1.240 . S
C705 O719 1.289 . S
C706 O720 1.258 . S
C706 O721 1.256 . S
C707 La697 2.928 . S
C707 C708 1.503 . S
C707 O722 1.261 . S
C707 O723 1.243 . S
C708 C707 1.503 . S
C708 C709 1.394 . S
C708 C713 1.373 . S
C709 C708 1.394 . S
C709 C710 1.380 . S
C709 H732 0.930 . S
C710 C709 1.380 . S
C710 C711 1.376 . S
C710 H733 0.930 . S
C711 C710 1.376 . S
C711 C712 1.370 . S
C712 C711 1.370 . S
C712 C713 1.396 . S
C712 H734 0.929 . S
C713 C708 1.373 . S
C713 C712 1.396 . S
C713 H735 0.929 . S
C714 O724 1.240 . S
C714 O725 1.289 . S
C715 O726 1.258 . S
C715 O727 1.256 . S
O716 La696 2.521 . S
O716 C698 1.261 . S
O717 La696 2.628 . S
O717 C698 1.243 . S
O718 La696 2.554 . S
O718 C705 1.240 . S
O719 La696 2.757 . S
O719 La697 2.482 . S
O719 C705 1.289 . S
O720 La696 2.470 . S
O720 C706 1.258 . S
O721 La697 2.503 . S
O721 C706 1.256 . S
O722 La697 2.521 . S
O722 C707 1.261 . S
O723 La697 2.628 . S
O723 C707 1.243 . S
O724 La697 2.554 . S
O724 C714 1.240 . S
O725 La696 2.482 . S
O725 La697 2.757 . S
O725 C714 1.289 . S
O726 La697 2.470 . S
O726 C715 1.258 . S
O727 La696 2.503 . S
O727 C715 1.256 . S
H728 C700 0.930 . S
H729 C701 0.930 . S
H730 C703 0.929 . S
H731 C704 0.929 . S
H732 C709 0.930 . S
H733 C710 0.930 . S
H734 C712 0.929 . S
H735 C713 0.929 . S
La736 C738 2.928 . S
La736 O756 2.521 . S
La736 O757 2.628 . S
La736 O758 2.554 . S
La736 O759 2.757 . S
La736 O760 2.470 . S
La736 O765 2.482 . S
La736 O767 2.503 . S
La737 C747 2.928 . S
La737 O759 2.482 . S
La737 O761 2.503 . S
La737 O762 2.521 . S
La737 O763 2.628 . S
La737 O764 2.554 . S
La737 O765 2.757 . S
La737 O766 2.470 . S
C738 La736 2.928 . S
C738 C739 1.503 . S
C738 O756 1.261 . S
C738 O757 1.243 . S
C739 C738 1.503 . S
C739 C740 1.394 . S
C739 C744 1.373 1_455 S
C740 C739 1.394 . S
C740 C741 1.380 . S
C740 H768 0.930 . S
C741 C740 1.380 . S
C741 C742 1.376 1_455 S
C741 H769 0.930 . S
C742 C741 1.376 1_655 S
C742 C743 1.370 . S
C743 C742 1.370 . S
C743 C744 1.396 . S
C743 H770 0.929 . S
C744 C739 1.373 1_655 S
C744 C743 1.396 . S
C744 H771 0.929 . S
C745 O758 1.240 . S
C745 O759 1.289 . S
C746 O760 1.229 1_655 S
C746 O761 1.249 1_655 S
C747 La737 2.928 . S
C747 C748 1.503 . S
C747 O762 1.261 . S
C747 O763 1.243 . S
C748 C747 1.503 . S
C748 C749 1.394 . S
C748 C753 1.373 . S
C749 C748 1.394 . S
C749 C750 1.380 . S
C749 H772 0.930 . S
C750 C749 1.380 . S
C750 C751 1.376 . S
C750 H773 0.930 . S
C751 C750 1.376 . S
C751 C752 1.370 . S
C752 C751 1.370 . S
C752 C753 1.396 . S
C752 H774 0.929 . S
C753 C748 1.373 . S
C753 C752 1.396 . S
C753 H775 0.929 . S
C754 O764 1.240 . S
C754 O765 1.289 . S
C755 O766 1.258 . S
C755 O767 1.256 . S
O756 La736 2.521 . S
O756 C738 1.261 . S
O757 La736 2.628 . S
O757 C738 1.243 . S
O758 La736 2.554 . S
O758 C745 1.240 . S
O759 La736 2.757 . S
O759 La737 2.482 . S
O759 C745 1.289 . S
O760 La736 2.470 . S
O760 C746 1.229 1_455 S
O761 La737 2.503 . S
O761 C746 1.249 1_455 S
O762 La737 2.521 . S
O762 C747 1.261 . S
O763 La737 2.628 . S
O763 C747 1.243 . S
O764 La737 2.554 . S
O764 C754 1.240 . S
O765 La736 2.482 . S
O765 La737 2.757 . S
O765 C754 1.289 . S
O766 La737 2.470 . S
O766 C755 1.258 . S
O767 La736 2.503 . S
O767 C755 1.256 . S
H768 C740 0.930 . S
H769 C741 0.930 . S
H770 C743 0.929 . S
H771 C744 0.929 . S
H772 C749 0.930 . S
H773 C750 0.930 . S
H774 C752 0.929 . S
H775 C753 0.929 . S
La776 C778 2.928 . S
La776 O796 2.521 . S
La776 O797 2.628 . S
La776 O798 2.554 . S
La776 O799 2.757 . S
La776 O800 2.470 . S
La776 O805 2.482 . S
La776 O807 2.503 . S
La777 C787 2.928 . S
La777 O799 2.482 . S
La777 O801 2.503 . S
La777 O802 2.521 . S
La777 O803 2.628 . S
La777 O804 2.554 . S
La777 O805 2.757 . S
La777 O806 2.470 . S
C778 La776 2.928 . S
C778 C779 1.503 . S
C778 O796 1.261 . S
C778 O797 1.243 . S
C779 C778 1.503 . S
C779 C780 1.394 . S
C779 C784 1.373 . S
C780 C779 1.394 . S
C780 C781 1.380 . S
C780 H808 0.930 . S
C781 C780 1.380 . S
C781 C782 1.376 . S
C781 H809 0.930 . S
C782 C781 1.376 . S
C782 C783 1.370 . S
C783 C782 1.370 . S
C783 C784 1.396 . S
C783 H810 0.929 . S
C784 C779 1.373 . S
C784 C783 1.396 . S
C784 H811 0.929 . S
C785 O798 1.240 . S
C785 O799 1.289 . S
C786 O800 1.258 . S
C786 O801 1.256 . S
C787 La777 2.928 . S
C787 C788 1.503 . S
C787 O802 1.261 . S
C787 O803 1.243 . S
C788 C787 1.503 . S
C788 C789 1.394 . S
C788 C793 1.373 . S
C789 C788 1.394 . S
C789 C790 1.380 . S
C789 H812 0.930 . S
C790 C789 1.380 . S
C790 C791 1.376 . S
C790 H813 0.930 . S
C791 C790 1.376 . S
C791 C792 1.370 . S
C792 C791 1.370 . S
C792 C793 1.396 . S
C792 H814 0.929 . S
C793 C788 1.373 . S
C793 C792 1.396 . S
C793 H815 0.929 . S
C794 O804 1.240 . S
C794 O805 1.289 . S
C795 O806 1.258 . S
C795 O807 1.256 . S
O796 La776 2.521 . S
O796 C778 1.261 . S
O797 La776 2.628 . S
O797 C778 1.243 . S
O798 La776 2.554 . S
O798 C785 1.240 . S
O799 La776 2.757 . S
O799 La777 2.482 . S
O799 C785 1.289 . S
O800 La776 2.470 . S
O800 C786 1.258 . S
O801 La777 2.503 . S
O801 C786 1.256 . S
O802 La777 2.521 . S
O802 C787 1.261 . S
O803 La777 2.628 . S
O803 C787 1.243 . S
O804 La777 2.554 . S
O804 C794 1.240 . S
O805 La776 2.482 . S
O805 La777 2.757 . S
O805 C794 1.289 . S
O806 La777 2.470 . S
O806 C795 1.258 . S
O807 La776 2.503 . S
O807 C795 1.256 . S
H808 C780 0.930 . S
H809 C781 0.930 . S
H810 C783 0.929 . S
H811 C784 0.929 . S
H812 C789 0.930 . S
H813 C790 0.930 . S
H814 C792 0.929 . S
H815 C793 0.929 . S
La816 C818 2.928 . S
La816 O836 2.521 . S
La816 O837 2.628 . S
La816 O838 2.554 . S
La816 O839 2.757 . S
La816 O840 2.470 . S
La816 O845 2.482 . S
La816 O847 2.503 . S
La817 C827 2.928 . S
La817 O839 2.482 . S
La817 O841 2.503 . S
La817 O842 2.521 . S
La817 O843 2.628 . S
La817 O844 2.554 . S
La817 O845 2.757 . S
La817 O846 2.470 . S
C818 La816 2.928 . S
C818 C819 1.503 . S
C818 O836 1.261 . S
C818 O837 1.243 . S
C819 C818 1.503 . S
C819 C820 1.394 . S
C819 C824 1.373 . S
C820 C819 1.394 . S
C820 C821 1.380 . S
C820 H848 0.930 . S
C821 C820 1.380 . S
C821 C822 1.376 . S
C821 H849 0.930 . S
C822 C821 1.376 . S
C822 C823 1.370 . S
C823 C822 1.370 . S
C823 C824 1.396 . S
C823 H850 0.929 . S
C824 C819 1.373 . S
C824 C823 1.396 . S
C824 H851 0.929 . S
C825 O838 1.240 . S
C825 O839 1.289 . S
C826 O840 1.258 . S
C826 O841 1.256 . S
C827 La817 2.928 . S
C827 C828 1.503 . S
C827 O842 1.261 . S
C827 O843 1.243 . S
C828 C827 1.503 . S
C828 C829 1.394 . S
C828 C833 1.373 . S
C829 C828 1.394 . S
C829 C830 1.380 . S
C829 H852 0.930 . S
C830 C829 1.380 . S
C830 C831 1.376 . S
C830 H853 0.930 . S
C831 C830 1.376 . S
C831 C832 1.370 . S
C832 C831 1.370 . S
C832 C833 1.396 . S
C832 H854 0.929 . S
C833 C828 1.373 . S
C833 C832 1.396 . S
C833 H855 0.929 . S
C834 O844 1.240 . S
C834 O845 1.289 . S
C835 O846 1.258 . S
C835 O847 1.256 . S
O836 La816 2.521 . S
O836 C818 1.261 . S
O837 La816 2.628 . S
O837 C818 1.243 . S
O838 La816 2.554 . S
O838 C825 1.240 . S
O839 La816 2.757 . S
O839 La817 2.482 . S
O839 C825 1.289 . S
O840 La816 2.470 . S
O840 C826 1.258 . S
O841 La817 2.503 . S
O841 C826 1.256 . S
O842 La817 2.521 . S
O842 C827 1.261 . S
O843 La817 2.628 . S
O843 C827 1.243 . S
O844 La817 2.554 . S
O844 C834 1.240 . S
O845 La816 2.482 . S
O845 La817 2.757 . S
O845 C834 1.289 . S
O846 La817 2.470 . S
O846 C835 1.258 . S
O847 La816 2.503 . S
O847 C835 1.256 . S
H848 C820 0.930 . S
H849 C821 0.930 . S
H850 C823 0.929 . S
H851 C824 0.929 . S
H852 C829 0.930 . S
H853 C830 0.930 . S
H854 C832 0.929 . S
H855 C833 0.929 . S
La856 C858 2.928 . S
La856 O876 2.521 . S
La856 O877 2.628 . S
La856 O878 2.554 . S
La856 O879 2.757 . S
La856 O880 2.470 . S
La856 O885 2.482 . S
La856 O887 2.503 . S
La857 C867 2.928 . S
La857 O879 2.482 . S
La857 O881 2.503 . S
La857 O882 2.521 . S
La857 O883 2.628 . S
La857 O884 2.554 . S
La857 O885 2.757 . S
La857 O886 2.470 . S
C858 La856 2.928 . S
C858 C859 1.503 . S
C858 O876 1.261 . S
C858 O877 1.243 . S
C859 C858 1.503 . S
C859 C860 1.394 . S
C859 C864 1.373 . S
C860 C859 1.394 . S
C860 C861 1.380 . S
C860 H888 0.930 . S
C861 C860 1.380 . S
C861 C862 1.376 . S
C861 H889 0.930 . S
C862 C861 1.376 . S
C862 C863 1.370 . S
C863 C862 1.370 . S
C863 C864 1.396 . S
C863 H890 0.929 . S
C864 C859 1.373 . S
C864 C863 1.396 . S
C864 H891 0.929 . S
C865 O878 1.240 . S
C865 O879 1.289 . S
C866 O880 1.258 . S
C866 O881 1.256 . S
C867 La857 2.928 . S
C867 C868 1.503 . S
C867 O882 1.261 . S
C867 O883 1.243 . S
C868 C867 1.503 . S
C868 C869 1.394 . S
C868 C873 1.373 . S
C869 C868 1.394 . S
C869 C870 1.380 . S
C869 H892 0.930 . S
C870 C869 1.380 . S
C870 C871 1.376 . S
C870 H893 0.930 . S
C871 C870 1.376 . S
C871 C872 1.370 . S
C872 C871 1.370 . S
C872 C873 1.396 . S
C872 H894 0.929 . S
C873 C868 1.373 . S
C873 C872 1.396 . S
C873 H895 0.929 . S
C874 O884 1.240 . S
C874 O885 1.289 . S
C875 O886 1.258 . S
C875 O887 1.256 . S
O876 La856 2.521 . S
O876 C858 1.261 . S
O877 La856 2.628 . S
O877 C858 1.243 . S
O878 La856 2.554 . S
O878 C865 1.240 . S
O879 La856 2.757 . S
O879 La857 2.482 . S
O879 C865 1.289 . S
O880 La856 2.470 . S
O880 C866 1.258 . S
O881 La857 2.503 . S
O881 C866 1.256 . S
O882 La857 2.521 . S
O882 C867 1.261 . S
O883 La857 2.628 . S
O883 C867 1.243 . S
O884 La857 2.554 . S
O884 C874 1.240 . S
O885 La856 2.482 . S
O885 La857 2.757 . S
O885 C874 1.289 . S
O886 La857 2.470 . S
O886 C875 1.258 . S
O887 La856 2.503 . S
O887 C875 1.256 . S
H888 C860 0.930 . S
H889 C861 0.930 . S
H890 C863 0.929 . S
H891 C864 0.929 . S
H892 C869 0.930 . S
H893 C870 0.930 . S
H894 C872 0.929 . S
H895 C873 0.929 . S
La896 C898 2.928 . S
La896 O916 2.521 . S
La896 O917 2.628 . S
La896 O918 2.554 . S
La896 O919 2.757 . S
La896 O920 2.470 . S
La896 O925 2.482 . S
La896 O927 2.503 . S
La897 C907 2.928 . S
La897 O919 2.482 . S
La897 O921 2.503 . S
La897 O922 2.521 . S
La897 O923 2.628 . S
La897 O924 2.554 . S
La897 O925 2.757 . S
La897 O926 2.470 . S
C898 La896 2.928 . S
C898 C899 1.503 . S
C898 O916 1.261 . S
C898 O917 1.243 . S
C899 C898 1.503 . S
C899 C900 1.394 . S
C899 C904 1.373 . S
C900 C899 1.394 . S
C900 C901 1.380 . S
C900 H928 0.930 . S
C901 C900 1.380 . S
C901 C902 1.376 . S
C901 H929 0.930 . S
C902 C901 1.376 . S
C902 C903 1.370 . S
C903 C902 1.370 . S
C903 C904 1.396 . S
C903 H930 0.929 . S
C904 C899 1.373 . S
C904 C903 1.396 . S
C904 H931 0.929 . S
C905 O918 1.240 . S
C905 O919 1.289 . S
C906 O920 1.258 . S
C906 O921 1.256 . S
C907 La897 2.928 . S
C907 C908 1.503 . S
C907 O922 1.261 . S
C907 O923 1.243 . S
C908 C907 1.503 . S
C908 C909 1.394 . S
C908 C913 1.373 . S
C909 C908 1.394 . S
C909 C910 1.380 . S
C909 H932 0.930 . S
C910 C909 1.380 . S
C910 C911 1.376 . S
C910 H933 0.930 . S
C911 C910 1.376 . S
C911 C912 1.370 . S
C912 C911 1.370 . S
C912 C913 1.396 . S
C912 H934 0.929 . S
C913 C908 1.373 . S
C913 C912 1.396 . S
C913 H935 0.929 . S
C914 O924 1.240 . S
C914 O925 1.289 . S
C915 O926 1.258 . S
C915 O927 1.256 . S
O916 La896 2.521 . S
O916 C898 1.261 . S
O917 La896 2.628 . S
O917 C898 1.243 . S
O918 La896 2.554 . S
O918 C905 1.240 . S
O919 La896 2.757 . S
O919 La897 2.482 . S
O919 C905 1.289 . S
O920 La896 2.470 . S
O920 C906 1.258 . S
O921 La897 2.503 . S
O921 C906 1.256 . S
O922 La897 2.521 . S
O922 C907 1.261 . S
O923 La897 2.628 . S
O923 C907 1.243 . S
O924 La897 2.554 . S
O924 C914 1.240 . S
O925 La896 2.482 . S
O925 La897 2.757 . S
O925 C914 1.289 . S
O926 La897 2.470 . S
O926 C915 1.258 . S
O927 La896 2.503 . S
O927 C915 1.256 . S
H928 C900 0.930 . S
H929 C901 0.930 . S
H930 C903 0.929 . S
H931 C904 0.929 . S
H932 C909 0.930 . S
H933 C910 0.930 . S
H934 C912 0.929 . S
H935 C913 0.929 . S
La936 C938 2.928 1_554 S
La936 O956 2.521 1_554 S
La936 O957 2.628 . S
La936 O958 2.554 1_554 S
La936 O959 2.757 1_554 S
La936 O960 2.470 1_554 S
La936 O965 2.482 . S
La936 O967 2.503 . S
La937 C947 2.928 1_455 S
La937 O959 2.482 1_554 S
La937 O961 2.503 . S
La937 O962 2.521 1_455 S
La937 O963 2.628 1_455 S
La937 O964 2.554 . S
La937 O965 2.757 . S
La937 O966 2.470 . S
C938 La936 2.928 1_556 S
C938 C939 1.503 . S
C938 O956 1.261 . S
C938 O957 1.243 1_556 S
C939 C938 1.503 . S
C939 C940 1.394 . S
C939 C944 1.373 1_556 S
C940 C939 1.394 . S
C940 C941 1.380 . S
C940 H968 0.930 . S
C941 C940 1.380 . S
C941 C942 1.376 . S
C941 H969 0.930 . S
C942 C941 1.376 . S
C942 C943 1.370 1_556 S
C943 C942 1.370 1_554 S
C943 C944 1.396 . S
C943 H970 0.929 . S
C944 C939 1.373 1_554 S
C944 C943 1.396 . S
C944 H971 0.929 . S
C945 O958 1.240 . S
C945 O959 1.289 . S
C946 O960 1.258 1_554 S
C946 O961 1.256 . S
C947 La937 2.928 1_655 S
C947 C948 1.503 . S
C947 O962 1.261 . S
C947 O963 1.243 . S
C948 C947 1.503 . S
C948 C949 1.394 . S
C948 C953 1.373 . S
C949 C948 1.394 . S
C949 C950 1.380 . S
C949 H972 0.930 . S
C950 C949 1.380 . S
C950 C951 1.376 . S
C950 H973 0.930 . S
C951 C950 1.376 . S
C951 C952 1.370 . S
C952 C951 1.370 . S
C952 C953 1.396 . S
C952 H974 0.929 . S
C953 C948 1.373 . S
C953 C952 1.396 . S
C953 H975 0.929 . S
C954 O964 1.240 . S
C954 O965 1.289 . S
C955 O966 1.258 . S
C955 O967 1.256 . S
O956 La936 2.521 1_556 S
O956 C938 1.261 . S
O957 La936 2.628 . S
O957 C938 1.243 1_554 S
O958 La936 2.554 1_556 S
O958 C945 1.240 . S
O959 La936 2.757 1_556 S
O959 La937 2.482 1_556 S
O959 C945 1.289 . S
O960 La936 2.470 1_556 S
O960 C946 1.258 1_556 S
O961 La937 2.503 . S
O961 C946 1.256 . S
O962 La937 2.521 1_655 S
O962 C947 1.261 . S
O963 La937 2.628 1_655 S
O963 C947 1.243 . S
O964 La937 2.554 . S
O964 C954 1.240 . S
O965 La936 2.482 . S
O965 La937 2.757 . S
O965 C954 1.289 . S
O966 La937 2.470 . S
O966 C955 1.258 . S
O967 La936 2.503 . S
O967 C955 1.256 . S
H968 C940 0.930 . S
H969 C941 0.930 . S
H970 C943 0.929 . S
H971 C944 0.929 . S
H972 C949 0.930 . S
H973 C950 0.930 . S
H974 C952 0.929 . S
H975 C953 0.929 . S
H976 C984 0.950 . S
H977 C989 0.950 1_655 S
H978 C986 0.950 . S
H979 C988 0.950 1_655 S
H980 C990 0.927 1_554 S
H981 C992 0.950 . S
H982 C994 0.950 . S
H983 C995 0.950 . S
C984 H976 0.950 . S
C984 C985 1.386 . S
C984 C986 1.391 . S
C985 C984 1.386 . S
C985 C989 1.393 . S
C986 H978 0.950 . S
C986 C984 1.391 . S
C986 C987 1.400 . S
C987 C986 1.400 . S
C987 C988 1.398 . S
C987 C993 1.491 . S
C988 H979 0.950 1_455 S
C988 C987 1.398 . S
C988 C989 1.391 . S
C989 H977 0.950 1_455 S
C989 C985 1.393 . S
C989 C988 1.391 . S
C990 H980 0.927 1_556 S
C990 C991 1.386 . S
C990 C992 1.391 . S
C991 C990 1.386 . S
C991 C995 1.393 . S
C992 H981 0.950 . S
C992 C990 1.391 . S
C992 C993 1.400 . S
C993 C987 1.491 . S
C993 C992 1.400 . S
C993 C994 1.398 . S
C994 H982 0.950 . S
C994 C993 1.398 . S
C994 C995 1.391 . S
C995 H983 0.950 . S
C995 C991 1.393 . S
C995 C994 1.391 . S
H996 C1004 0.950 . S
H997 C1009 0.950 . S
H998 C1006 0.950 . S
H999 C1008 0.950 . S
H1000 C1010 0.950 . S
H1001 C1012 0.950 . S
H1002 C1014 0.950 . S
H1003 C1015 0.950 . S
C1004 H996 0.950 . S
C1004 C1005 1.386 . S
C1004 C1006 1.391 . S
C1005 C1004 1.386 . S
C1005 C1009 1.393 . S
C1006 H998 0.950 . S
C1006 C1004 1.391 . S
C1006 C1007 1.400 . S
C1007 C1006 1.400 . S
C1007 C1008 1.398 . S
C1007 C1013 1.491 . S
C1008 H999 0.950 . S
C1008 C1007 1.398 . S
C1008 C1009 1.391 . S
C1009 H997 0.950 . S
C1009 C1005 1.393 . S
C1009 C1008 1.391 . S
C1010 H1000 0.950 . S
C1010 C1011 1.386 . S
C1010 C1012 1.391 . S
C1011 C1010 1.386 . S
C1011 C1015 1.393 . S
C1012 H1001 0.950 . S
C1012 C1010 1.391 . S
C1012 C1013 1.400 . S
C1013 C1007 1.491 . S
C1013 C1012 1.400 . S
C1013 C1014 1.398 . S
C1014 H1002 0.950 . S
C1014 C1013 1.398 . S
C1014 C1015 1.391 . S
C1015 H1003 0.950 . S
C1015 C1011 1.393 . S
C1015 C1014 1.391 . S
H1016 C1024 0.950 . S
H1017 C1029 0.950 . S
H1018 C1026 0.950 . S
H1019 C1028 0.950 . S
H1020 C1030 0.950 . S
H1021 C1032 0.950 . S
H1022 C1034 0.950 . S
H1023 C1035 0.950 . S
C1024 H1016 0.950 . S
C1024 C1025 1.386 . S
C1024 C1026 1.391 . S
C1025 C1024 1.386 . S
C1025 C1029 1.393 . S
C1026 H1018 0.950 . S
C1026 C1024 1.391 . S
C1026 C1027 1.400 . S
C1027 C1026 1.400 . S
C1027 C1028 1.398 . S
C1027 C1033 1.491 . S
C1028 H1019 0.950 . S
C1028 C1027 1.398 . S
C1028 C1029 1.391 . S
C1029 H1017 0.950 . S
C1029 C1025 1.393 . S
C1029 C1028 1.391 . S
C1030 H1020 0.950 . S
C1030 C1031 1.386 . S
C1030 C1032 1.391 . S
C1031 C1030 1.386 . S
C1031 C1035 1.393 . S
C1032 H1021 0.950 . S
C1032 C1030 1.391 . S
C1032 C1033 1.400 . S
C1033 C1027 1.491 . S
C1033 C1032 1.400 . S
C1033 C1034 1.398 . S
C1034 H1022 0.950 . S
C1034 C1033 1.398 . S
C1034 C1035 1.391 . S
C1035 H1023 0.950 . S
C1035 C1031 1.393 . S
C1035 C1034 1.391 . S
H1036 C1044 0.950 . S
H1037 C1049 0.950 . S
H1038 C1046 0.950 . S
H1039 C1048 0.950 . S
H1040 C1050 0.950 . S
H1041 C1052 0.950 . S
H1042 C1054 0.950 . S
H1043 C1055 0.950 . S
C1044 H1036 0.950 . S
C1044 C1045 1.386 . S
C1044 C1046 1.391 . S
C1045 C1044 1.386 . S
C1045 C1049 1.393 . S
C1046 H1038 0.950 . S
C1046 C1044 1.391 . S
C1046 C1047 1.400 . S
C1047 C1046 1.400 . S
C1047 C1048 1.398 . S
C1047 C1053 1.491 . S
C1048 H1039 0.950 . S
C1048 C1047 1.398 . S
C1048 C1049 1.391 . S
C1049 H1037 0.950 . S
C1049 C1045 1.393 . S
C1049 C1048 1.391 . S
C1050 H1040 0.950 . S
C1050 C1051 1.386 . S
C1050 C1052 1.391 . S
C1051 C1050 1.386 . S
C1051 C1055 1.393 . S
C1052 H1041 0.950 . S
C1052 C1050 1.391 . S
C1052 C1053 1.400 . S
C1053 C1047 1.491 . S
C1053 C1052 1.400 . S
C1053 C1054 1.398 . S
C1054 H1042 0.950 . S
C1054 C1053 1.398 . S
C1054 C1055 1.391 . S
C1055 H1043 0.950 . S
C1055 C1051 1.393 . S
C1055 C1054 1.391 . S
H1056 C1064 0.950 . S
H1057 C1069 0.950 . S
H1058 C1066 0.950 . S
H1059 C1068 0.950 . S
H1060 C1070 0.950 . S
H1061 C1072 0.950 . S
H1062 C1074 0.950 . S
H1063 C1075 0.950 . S
C1064 H1056 0.950 . S
C1064 C1065 1.386 . S
C1064 C1066 1.391 . S
C1065 C1064 1.386 . S
C1065 C1069 1.393 . S
C1066 H1058 0.950 . S
C1066 C1064 1.391 . S
C1066 C1067 1.400 . S
C1067 C1066 1.400 . S
C1067 C1068 1.398 . S
C1067 C1073 1.491 . S
C1068 H1059 0.950 . S
C1068 C1067 1.398 . S
C1068 C1069 1.391 . S
C1069 H1057 0.950 . S
C1069 C1065 1.393 . S
C1069 C1068 1.391 . S
C1070 H1060 0.950 . S
C1070 C1071 1.386 . S
C1070 C1072 1.391 . S
C1071 C1070 1.386 . S
C1071 C1075 1.393 . S
C1072 H1061 0.950 . S
C1072 C1070 1.391 . S
C1072 C1073 1.400 . S
C1073 C1067 1.491 . S
C1073 C1072 1.400 . S
C1073 C1074 1.398 . S
C1074 H1062 0.950 . S
C1074 C1073 1.398 . S
C1074 C1075 1.391 . S
C1075 H1063 0.950 . S
C1075 C1071 1.393 . S
C1075 C1074 1.391 . S
H1076 C1084 0.950 . S
H1077 C1089 0.950 . S
H1078 C1086 0.950 . S
H1079 C1088 0.950 . S
H1080 C1090 0.950 . S
H1081 C1092 0.950 . S
H1082 C1094 0.950 . S
H1083 C1095 0.950 . S
C1084 H1076 0.950 . S
C1084 C1085 1.386 . S
C1084 C1086 1.391 . S
C1085 C1084 1.386 . S
C1085 C1089 1.393 . S
C1086 H1078 0.950 . S
C1086 C1084 1.391 . S
C1086 C1087 1.400 . S
C1087 C1086 1.400 . S
C1087 C1088 1.398 . S
C1087 C1093 1.491 . S
C1088 H1079 0.950 . S
C1088 C1087 1.398 . S
C1088 C1089 1.391 . S
C1089 H1077 0.950 . S
C1089 C1085 1.393 . S
C1089 C1088 1.391 . S
C1090 H1080 0.950 . S
C1090 C1091 1.386 . S
C1090 C1092 1.391 . S
C1091 C1090 1.386 . S
C1091 C1095 1.393 . S
C1092 H1081 0.950 . S
C1092 C1090 1.391 . S
C1092 C1093 1.400 . S
C1093 C1087 1.491 . S
C1093 C1092 1.400 . S
C1093 C1094 1.398 . S
C1094 H1082 0.950 . S
C1094 C1093 1.398 . S
C1094 C1095 1.391 . S
C1095 H1083 0.950 . S
C1095 C1091 1.393 . S
C1095 C1094 1.391 . S
H1096 C1104 0.950 . S
H1097 C1109 0.950 . S
H1098 C1106 0.950 . S
H1099 C1108 0.950 . S
H1100 C1110 0.950 . S
H1101 C1112 0.950 . S
H1102 C1114 0.950 . S
H1103 C1115 0.950 . S
C1104 H1096 0.950 . S
C1104 C1105 1.386 . S
C1104 C1106 1.391 . S
C1105 C1104 1.386 . S
C1105 C1109 1.393 . S
C1106 H1098 0.950 . S
C1106 C1104 1.391 . S
C1106 C1107 1.400 . S
C1107 C1106 1.400 . S
C1107 C1108 1.398 . S
C1107 C1113 1.491 . S
C1108 H1099 0.950 . S
C1108 C1107 1.398 . S
C1108 C1109 1.391 . S
C1109 H1097 0.950 . S
C1109 C1105 1.393 . S
C1109 C1108 1.391 . S
C1110 H1100 0.950 . S
C1110 C1111 1.386 . S
C1110 C1112 1.391 . S
C1111 C1110 1.386 . S
C1111 C1115 1.393 . S
C1112 H1101 0.950 . S
C1112 C1110 1.391 . S
C1112 C1113 1.400 . S
C1113 C1107 1.491 . S
C1113 C1112 1.400 . S
C1113 C1114 1.398 . S
C1114 H1102 0.950 . S
C1114 C1113 1.398 . S
C1114 C1115 1.391 . S
C1115 H1103 0.950 . S
C1115 C1111 1.393 . S
C1115 C1114 1.391 . S
H1116 C1124 0.950 . S
H1117 C1129 0.950 . S
H1118 C1126 0.950 . S
H1119 C1128 0.950 . S
H1120 C1130 0.950 . S
H1121 C1132 0.950 . S
H1122 C1134 0.950 . S
H1123 C1135 0.950 . S
C1124 H1116 0.950 . S
C1124 C1125 1.386 . S
C1124 C1126 1.391 . S
C1125 C1124 1.386 . S
C1125 C1129 1.393 . S
C1126 H1118 0.950 . S
C1126 C1124 1.391 . S
C1126 C1127 1.400 . S
C1127 C1126 1.400 . S
C1127 C1128 1.398 . S
C1127 C1133 1.491 . S
C1128 H1119 0.950 . S
C1128 C1127 1.398 . S
C1128 C1129 1.391 . S
C1129 H1117 0.950 . S
C1129 C1125 1.393 . S
C1129 C1128 1.391 . S
C1130 H1120 0.950 . S
C1130 C1131 1.386 . S
C1130 C1132 1.391 . S
C1131 C1130 1.386 . S
C1131 C1135 1.393 . S
C1132 H1121 0.950 . S
C1132 C1130 1.391 . S
C1132 C1133 1.400 . S
C1133 C1127 1.491 . S
C1133 C1132 1.400 . S
C1133 C1134 1.398 . S
C1134 H1122 0.950 . S
C1134 C1133 1.398 . S
C1134 C1135 1.391 . S
C1135 H1123 0.950 . S
C1135 C1131 1.393 . S
C1135 C1134 1.391 . S
H1136 C1144 0.950 . S
H1137 C1149 0.950 . S
H1138 C1146 0.950 . S
H1139 C1148 0.963 . S
H1140 C1150 0.950 . S
H1141 C1152 0.950 . S
H1142 C1154 0.950 . S
H1143 C1155 0.950 . S
C1144 H1136 0.950 . S
C1144 C1145 1.386 . S
C1144 C1146 1.391 . S
C1145 C1144 1.386 . S
C1145 C1149 1.393 . S
C1146 H1138 0.950 . S
C1146 C1144 1.391 . S
C1146 C1147 1.400 1_655 S
C1147 C1146 1.400 1_455 S
C1147 C1148 1.397 . S
C1147 C1153 1.491 . S
C1148 H1139 0.963 . S
C1148 C1147 1.397 . S
C1148 C1149 1.380 1_455 S
C1149 H1137 0.950 . S
C1149 C1145 1.393 . S
C1149 C1148 1.380 1_655 S
C1150 H1140 0.950 . S
C1150 C1151 1.386 . S
C1150 C1152 1.391 . S
C1151 C1150 1.386 . S
C1151 C1155 1.393 . S
C1152 H1141 0.950 . S
C1152 C1150 1.391 . S
C1152 C1153 1.400 . S
C1153 C1147 1.491 . S
C1153 C1152 1.400 . S
C1153 C1154 1.398 . S
C1154 H1142 0.950 . S
C1154 C1153 1.398 . S
C1154 C1155 1.391 . S
C1155 H1143 0.950 . S
C1155 C1151 1.393 . S
C1155 C1154 1.391 . S
H1156 C1164 0.950 . S
H1157 C1169 0.950 . S
H1158 C1166 0.950 . S
H1159 C1168 0.950 . S
H1160 C1170 0.950 . S
H1161 C1172 0.950 . S
H1162 C1174 0.950 . S
H1163 C1175 0.950 . S
C1164 H1156 0.950 . S
C1164 C1165 1.386 . S
C1164 C1166 1.391 . S
C1165 C1164 1.386 . S
C1165 C1169 1.393 . S
C1166 H1158 0.950 . S
C1166 C1164 1.391 . S
C1166 C1167 1.400 . S
C1167 C1166 1.400 . S
C1167 C1168 1.398 . S
C1167 C1173 1.491 . S
C1168 H1159 0.950 . S
C1168 C1167 1.398 . S
C1168 C1169 1.391 . S
C1169 H1157 0.950 . S
C1169 C1165 1.393 . S
C1169 C1168 1.391 . S
C1170 H1160 0.950 . S
C1170 C1171 1.386 . S
C1170 C1172 1.391 . S
C1171 C1170 1.386 . S
C1171 C1175 1.393 . S
C1172 H1161 0.950 . S
C1172 C1170 1.391 . S
C1172 C1173 1.400 . S
C1173 C1167 1.491 . S
C1173 C1172 1.400 . S
C1173 C1174 1.398 . S
C1174 H1162 0.950 . S
C1174 C1173 1.398 . S
C1174 C1175 1.391 . S
C1175 H1163 0.950 . S
C1175 C1171 1.393 . S
C1175 C1174 1.391 . S
H1176 C1184 0.950 . S
H1177 C1189 0.950 . S
H1178 C1186 0.950 . S
H1179 C1188 0.950 . S
H1180 C1190 0.950 . S
H1181 C1192 0.950 . S
H1182 C1194 0.950 . S
H1183 C1195 0.950 . S
C1184 H1176 0.950 . S
C1184 C1185 1.386 . S
C1184 C1186 1.391 . S
C1185 C1184 1.386 . S
C1185 C1189 1.393 . S
C1186 H1178 0.950 . S
C1186 C1184 1.391 . S
C1186 C1187 1.400 . S
C1187 C1186 1.400 . S
C1187 C1188 1.398 . S
C1187 C1193 1.491 . S
C1188 H1179 0.950 . S
C1188 C1187 1.398 . S
C1188 C1189 1.391 . S
C1189 H1177 0.950 . S
C1189 C1185 1.393 . S
C1189 C1188 1.391 . S
C1190 H1180 0.950 . S
C1190 C1191 1.386 . S
C1190 C1192 1.391 . S
C1191 C1190 1.386 . S
C1191 C1195 1.393 . S
C1192 H1181 0.950 . S
C1192 C1190 1.391 . S
C1192 C1193 1.400 . S
C1193 C1187 1.491 . S
C1193 C1192 1.400 . S
C1193 C1194 1.398 . S
C1194 H1182 0.950 . S
C1194 C1193 1.398 . S
C1194 C1195 1.391 . S
C1195 H1183 0.950 . S
C1195 C1191 1.393 . S
C1195 C1194 1.391 . S
H1196 C1204 0.950 . S
H1197 C1209 0.950 . S
H1198 C1206 0.950 . S
H1199 C1208 0.950 . S
H1200 C1210 0.950 . S
H1201 C1212 0.950 . S
H1202 C1214 0.950 . S
H1203 C1215 0.950 . S
C1204 H1196 0.950 . S
C1204 C1205 1.386 . S
C1204 C1206 1.391 . S
C1205 C1204 1.386 . S
C1205 C1209 1.393 . S
C1206 H1198 0.950 . S
C1206 C1204 1.391 . S
C1206 C1207 1.400 . S
C1207 C1206 1.400 . S
C1207 C1208 1.398 . S
C1207 C1213 1.491 . S
C1208 H1199 0.950 . S
C1208 C1207 1.398 . S
C1208 C1209 1.391 . S
C1209 H1197 0.950 . S
C1209 C1205 1.393 . S
C1209 C1208 1.391 . S
C1210 H1200 0.950 . S
C1210 C1211 1.386 . S
C1210 C1212 1.391 . S
C1211 C1210 1.386 . S
C1211 C1215 1.393 . S
C1212 H1201 0.950 . S
C1212 C1210 1.391 . S
C1212 C1213 1.400 . S
C1213 C1207 1.491 . S
C1213 C1212 1.400 . S
C1213 C1214 1.398 . S
C1214 H1202 0.950 . S
C1214 C1213 1.398 . S
C1214 C1215 1.391 . S
C1215 H1203 0.950 . S
C1215 C1211 1.393 . S
C1215 C1214 1.391 . S
H1216 C1224 0.949 1_455 S
H1217 C1229 0.950 . S
H1218 C1226 0.950 . S
H1219 C1228 0.950 . S
H1220 C1230 0.950 . S
H1221 C1232 0.950 1_655 S
H1222 C1234 0.950 . S
H1223 C1235 0.950 . S
C1224 H1216 0.949 1_655 S
C1224 C1225 1.386 . S
C1224 C1226 1.391 1_655 S
C1225 C1224 1.386 . S
C1225 C1229 1.393 . S
C1226 H1218 0.950 . S
C1226 C1224 1.391 1_455 S
C1226 C1227 1.400 1_455 S
C1227 C1226 1.400 1_655 S
C1227 C1228 1.404 . S
C1227 C1233 1.485 1_655 S
C1228 H1219 0.950 . S
C1228 C1227 1.404 . S
C1228 C1229 1.391 . S
C1229 H1217 0.950 . S
C1229 C1225 1.393 . S
C1229 C1228 1.391 . S
C1230 H1220 0.950 . S
C1230 C1231 1.386 . S
C1230 C1232 1.391 . S
C1231 C1230 1.386 . S
C1231 C1235 1.393 . S
C1232 H1221 0.950 1_455 S
C1232 C1230 1.391 . S
C1232 C1233 1.400 . S
C1233 C1227 1.485 1_455 S
C1233 C1232 1.400 . S
C1233 C1234 1.398 . S
C1234 H1222 0.950 . S
C1234 C1233 1.398 . S
C1234 C1235 1.391 . S
C1235 H1223 0.950 . S
C1235 C1231 1.393 . S
C1235 C1234 1.391 . S
H1236 C1244 0.950 . S
H1237 C1249 0.950 . S
H1238 C1246 0.950 . S
H1239 C1248 0.950 . S
H1240 C1250 0.950 . S
H1241 C1252 0.950 . S
H1242 C1254 0.950 . S
H1243 C1255 0.950 . S
C1244 H1236 0.950 . S
C1244 C1245 1.386 . S
C1244 C1246 1.391 . S
C1245 C1244 1.386 . S
C1245 C1249 1.393 . S
C1246 H1238 0.950 . S
C1246 C1244 1.391 . S
C1246 C1247 1.400 . S
C1247 C1246 1.400 . S
C1247 C1248 1.398 . S
C1247 C1253 1.491 . S
C1248 H1239 0.950 . S
C1248 C1247 1.398 . S
C1248 C1249 1.391 . S
C1249 H1237 0.950 . S
C1249 C1245 1.393 . S
C1249 C1248 1.391 . S
C1250 H1240 0.950 . S
C1250 C1251 1.386 . S
C1250 C1252 1.391 . S
C1251 C1250 1.386 . S
C1251 C1255 1.393 . S
C1252 H1241 0.950 . S
C1252 C1250 1.391 . S
C1252 C1253 1.400 . S
C1253 C1247 1.491 . S
C1253 C1252 1.400 . S
C1253 C1254 1.398 . S
C1254 H1242 0.950 . S
C1254 C1253 1.398 . S
C1254 C1255 1.391 . S
C1255 H1243 0.950 . S
C1255 C1251 1.393 . S
C1255 C1254 1.391 . S
H1256 C1264 0.950 . S
H1257 C1269 0.950 . S
H1258 C1266 0.950 . S
H1259 C1268 0.950 . S
H1260 C1270 0.950 . S
H1261 C1272 0.950 . S
H1262 C1274 0.950 . S
H1263 C1275 0.950 . S
C1264 H1256 0.950 . S
C1264 C1265 1.386 . S
C1264 C1266 1.391 . S
C1265 C1264 1.386 . S
C1265 C1269 1.393 . S
C1266 H1258 0.950 . S
C1266 C1264 1.391 . S
C1266 C1267 1.400 . S
C1267 C1266 1.400 . S
C1267 C1268 1.398 . S
C1267 C1273 1.491 . S
C1268 H1259 0.950 . S
C1268 C1267 1.398 . S
C1268 C1269 1.391 . S
C1269 H1257 0.950 . S
C1269 C1265 1.393 . S
C1269 C1268 1.391 . S
C1270 H1260 0.950 . S
C1270 C1271 1.386 . S
C1270 C1272 1.391 . S
C1271 C1270 1.386 . S
C1271 C1275 1.393 . S
C1272 H1261 0.950 . S
C1272 C1270 1.391 . S
C1272 C1273 1.400 . S
C1273 C1267 1.491 . S
C1273 C1272 1.400 . S
C1273 C1274 1.398 . S
C1274 H1262 0.950 . S
C1274 C1273 1.398 . S
C1274 C1275 1.391 . S
C1275 H1263 0.950 . S
C1275 C1271 1.393 . S
C1275 C1274 1.391 . S
H1276 C1284 0.950 . S
H1277 C1289 0.950 . S
H1278 C1286 0.950 . S
H1279 C1288 0.950 . S
H1280 C1290 0.950 . S
H1281 C1292 0.950 . S
H1282 C1294 0.950 . S
H1283 C1295 0.950 . S
C1284 H1276 0.950 . S
C1284 C1285 1.386 . S
C1284 C1286 1.391 . S
C1285 C1284 1.386 . S
C1285 C1289 1.393 . S
C1286 H1278 0.950 . S
C1286 C1284 1.391 . S
C1286 C1287 1.400 . S
C1287 C1286 1.400 . S
C1287 C1288 1.398 . S
C1287 C1293 1.491 . S
C1288 H1279 0.950 . S
C1288 C1287 1.398 . S
C1288 C1289 1.391 . S
C1289 H1277 0.950 . S
C1289 C1285 1.393 . S
C1289 C1288 1.391 . S
C1290 H1280 0.950 . S
C1290 C1291 1.386 . S
C1290 C1292 1.391 . S
C1291 C1290 1.386 . S
C1291 C1295 1.393 . S
C1292 H1281 0.950 . S
C1292 C1290 1.391 . S
C1292 C1293 1.400 . S
C1293 C1287 1.491 . S
C1293 C1292 1.400 . S
C1293 C1294 1.398 . S
C1294 H1282 0.950 . S
C1294 C1293 1.398 . S
C1294 C1295 1.391 . S
C1295 H1283 0.950 . S
C1295 C1291 1.393 . S
C1295 C1294 1.391 . S
H1296 C1304 0.950 1_556 S
H1297 C1309 0.950 . S
H1298 C1306 0.954 1_545 S
H1299 C1308 0.950 . S
H1300 C1310 0.950 . S
H1301 C1312 0.950 . S
H1302 C1314 0.950 . S
H1303 C1315 0.950 . S
C1304 H1296 0.950 1_554 S
C1304 C1305 1.386 . S
C1304 C1306 1.391 . S
C1305 C1304 1.386 . S
C1305 C1309 1.393 . S
C1306 H1298 0.954 1_565 S
C1306 C1304 1.391 . S
C1306 C1307 1.400 . S
C1307 C1306 1.400 . S
C1307 C1308 1.398 . S
C1307 C1313 1.491 . S
C1308 H1299 0.950 . S
C1308 C1307 1.398 . S
C1308 C1309 1.391 . S
C1309 H1297 0.950 . S
C1309 C1305 1.393 . S
C1309 C1308 1.391 . S
C1310 H1300 0.950 . S
C1310 C1311 1.358 1_565 S
C1310 C1312 1.391 . S
C1311 C1310 1.358 1_545 S
C1311 C1315 1.406 . S
C1312 H1301 0.950 . S
C1312 C1310 1.391 . S
C1312 C1313 1.400 . S
C1313 C1307 1.491 . S
C1313 C1312 1.400 . S
C1313 C1314 1.398 1_565 S
C1314 H1302 0.950 . S
C1314 C1313 1.398 1_545 S
C1314 C1315 1.391 . S
C1315 H1303 0.950 . S
C1315 C1311 1.406 . S
C1315 C1314 1.391 . S
H1316 C1324 0.950 . S
H1317 C1329 0.950 . S
H1318 C1326 0.950 . S
H1319 C1328 0.950 . S
H1320 C1330 0.950 . S
H1321 C1332 0.950 . S
H1322 C1334 0.950 . S
H1323 C1335 0.950 . S
C1324 H1316 0.950 . S
C1324 C1325 1.386 . S
C1324 C1326 1.391 . S
C1325 C1324 1.386 . S
C1325 C1329 1.393 1_556 S
C1326 H1318 0.950 . S
C1326 C1324 1.391 . S
C1326 C1327 1.427 . S
C1327 C1326 1.427 . S
C1327 C1328 1.380 1_556 S
C1327 C1333 1.486 . S
C1328 H1319 0.950 . S
C1328 C1327 1.380 1_554 S
C1328 C1329 1.391 . S
C1329 H1317 0.950 . S
C1329 C1325 1.393 1_554 S
C1329 C1328 1.391 . S
C1330 H1320 0.950 . S
C1330 C1331 1.416 . S
C1330 C1332 1.391 . S
C1331 C1330 1.416 . S
C1331 C1335 1.349 1_554 S
C1332 H1321 0.950 . S
C1332 C1330 1.391 . S
C1332 C1333 1.389 1_554 S
C1333 C1327 1.486 . S
C1333 C1332 1.389 1_556 S
C1333 C1334 1.406 . S
C1334 H1322 0.950 . S
C1334 C1333 1.406 . S
C1334 C1335 1.391 . S
C1335 H1323 0.950 . S
C1335 C1331 1.349 1_556 S
C1335 C1334 1.391 . S
H1336 C1344 0.950 . S
H1337 C1349 0.950 . S
H1338 C1346 0.950 . S
H1339 C1348 0.950 . S
H1340 C1350 0.950 . S
H1341 C1352 0.950 . S
H1342 C1354 0.950 . S
H1343 C1355 0.950 . S
C1344 H1336 0.950 . S
C1344 C1345 1.386 . S
C1344 C1346 1.391 . S
C1345 C1344 1.386 . S
C1345 C1349 1.393 . S
C1346 H1338 0.950 . S
C1346 C1344 1.391 . S
C1346 C1347 1.400 . S
C1347 C1346 1.400 . S
C1347 C1348 1.398 . S
C1347 C1353 1.491 . S
C1348 H1339 0.950 . S
C1348 C1347 1.398 . S
C1348 C1349 1.391 . S
C1349 H1337 0.950 . S
C1349 C1345 1.393 . S
C1349 C1348 1.391 . S
C1350 H1340 0.950 . S
C1350 C1351 1.386 . S
C1350 C1352 1.391 . S
C1351 C1350 1.386 . S
C1351 C1355 1.393 . S
C1352 H1341 0.950 . S
C1352 C1350 1.391 . S
C1352 C1353 1.400 . S
C1353 C1347 1.491 . S
C1353 C1352 1.400 . S
C1353 C1354 1.398 . S
C1354 H1342 0.950 . S
C1354 C1353 1.398 . S
C1354 C1355 1.391 . S
C1355 H1343 0.950 . S
C1355 C1351 1.393 . S
C1355 C1354 1.391 . S
H1356 C1364 0.950 . S
H1357 C1369 0.950 . S
H1358 C1366 0.950 . S
H1359 C1368 0.950 . S
H1360 C1370 0.950 . S
H1361 C1372 0.950 . S
H1362 C1374 0.950 . S
H1363 C1375 0.950 . S
C1364 H1356 0.950 . S
C1364 C1365 1.386 . S
C1364 C1366 1.391 . S
C1365 C1364 1.386 . S
C1365 C1369 1.393 . S
C1366 H1358 0.950 . S
C1366 C1364 1.391 . S
C1366 C1367 1.400 . S
C1367 C1366 1.400 . S
C1367 C1368 1.398 . S
C1367 C1373 1.491 . S
C1368 H1359 0.950 . S
C1368 C1367 1.398 . S
C1368 C1369 1.391 . S
C1369 H1357 0.950 . S
C1369 C1365 1.393 . S
C1369 C1368 1.391 . S
C1370 H1360 0.950 . S
C1370 C1371 1.386 . S
C1370 C1372 1.391 . S
C1371 C1370 1.386 . S
C1371 C1375 1.393 . S
C1372 H1361 0.950 . S
C1372 C1370 1.391 . S
C1372 C1373 1.400 . S
C1373 C1367 1.491 . S
C1373 C1372 1.400 . S
C1373 C1374 1.398 . S
C1374 H1362 0.950 . S
C1374 C1373 1.398 . S
C1374 C1375 1.391 . S
C1375 H1363 0.950 . S
C1375 C1371 1.393 . S
C1375 C1374 1.391 . S
H1376 C1384 0.950 . S
H1377 C1389 0.950 . S
H1378 C1386 0.950 . S
H1379 C1388 0.950 . S
H1380 C1390 0.950 . S
H1381 C1392 0.950 . S
H1382 C1394 0.950 . S
H1383 C1395 0.950 . S
C1384 H1376 0.950 . S
C1384 C1385 1.386 . S
C1384 C1386 1.391 . S
C1385 C1384 1.386 . S
C1385 C1389 1.393 . S
C1386 H1378 0.950 . S
C1386 C1384 1.391 . S
C1386 C1387 1.400 . S
C1387 C1386 1.400 . S
C1387 C1388 1.398 . S
C1387 C1393 1.491 . S
C1388 H1379 0.950 . S
C1388 C1387 1.398 . S
C1388 C1389 1.391 . S
C1389 H1377 0.950 . S
C1389 C1385 1.393 . S
C1389 C1388 1.391 . S
C1390 H1380 0.950 . S
C1390 C1391 1.386 . S
C1390 C1392 1.391 . S
C1391 C1390 1.386 . S
C1391 C1395 1.393 . S
C1392 H1381 0.950 . S
C1392 C1390 1.391 . S
C1392 C1393 1.400 . S
C1393 C1387 1.491 . S
C1393 C1392 1.400 . S
C1393 C1394 1.398 . S
C1394 H1382 0.950 . S
C1394 C1393 1.398 . S
C1394 C1395 1.391 . S
C1395 H1383 0.950 . S
C1395 C1391 1.393 . S
C1395 C1394 1.391 . S
H1396 C1404 0.950 . S
H1397 C1409 0.950 . S
H1398 C1406 0.950 . S
H1399 C1408 0.950 . S
H1400 C1410 0.950 . S
H1401 C1412 0.950 . S
H1402 C1414 0.950 . S
H1403 C1415 0.950 . S
C1404 H1396 0.950 . S
C1404 C1405 1.386 . S
C1404 C1406 1.391 . S
C1405 C1404 1.386 . S
C1405 C1409 1.393 . S
C1406 H1398 0.950 . S
C1406 C1404 1.391 . S
C1406 C1407 1.400 . S
C1407 C1406 1.400 . S
C1407 C1408 1.398 . S
C1407 C1413 1.491 . S
C1408 H1399 0.950 . S
C1408 C1407 1.398 . S
C1408 C1409 1.391 . S
C1409 H1397 0.950 . S
C1409 C1405 1.393 . S
C1409 C1408 1.391 . S
C1410 H1400 0.950 . S
C1410 C1411 1.386 . S
C1410 C1412 1.391 . S
C1411 C1410 1.386 . S
C1411 C1415 1.393 . S
C1412 H1401 0.950 . S
C1412 C1410 1.391 . S
C1412 C1413 1.400 . S
C1413 C1407 1.491 . S
C1413 C1412 1.400 . S
C1413 C1414 1.398 . S
C1414 H1402 0.950 . S
C1414 C1413 1.398 . S
C1414 C1415 1.391 . S
C1415 H1403 0.950 . S
C1415 C1411 1.393 . S
C1415 C1414 1.391 . S
H1416 C1424 0.950 . S
H1417 C1429 0.950 . S
H1418 C1426 0.950 . S
H1419 C1428 0.950 . S
H1420 C1430 0.950 . S
H1421 C1432 0.950 . S
H1422 C1434 0.950 . S
H1423 C1435 0.950 . S
C1424 H1416 0.950 . S
C1424 C1425 1.386 . S
C1424 C1426 1.391 . S
C1425 C1424 1.386 . S
C1425 C1429 1.393 . S
C1426 H1418 0.950 . S
C1426 C1424 1.391 . S
C1426 C1427 1.400 . S
C1427 C1426 1.400 . S
C1427 C1428 1.398 . S
C1427 C1433 1.491 . S
C1428 H1419 0.950 . S
C1428 C1427 1.398 . S
C1428 C1429 1.391 . S
C1429 H1417 0.950 . S
C1429 C1425 1.393 . S
C1429 C1428 1.391 . S
C1430 H1420 0.950 . S
C1430 C1431 1.386 . S
C1430 C1432 1.391 . S
C1431 C1430 1.386 . S
C1431 C1435 1.393 . S
C1432 H1421 0.950 . S
C1432 C1430 1.391 . S
C1432 C1433 1.400 . S
C1433 C1427 1.491 . S
C1433 C1432 1.400 . S
C1433 C1434 1.398 . S
C1434 H1422 0.950 . S
C1434 C1433 1.398 . S
C1434 C1435 1.391 . S
C1435 H1423 0.950 . S
C1435 C1431 1.393 . S
C1435 C1434 1.391 . S
H1436 C1444 0.950 . S
H1437 C1449 0.950 . S
H1438 C1446 0.950 . S
H1439 C1448 0.950 . S
H1440 C1450 0.950 . S
H1441 C1452 0.950 . S
H1442 C1454 0.950 . S
H1443 C1455 0.950 . S
C1444 H1436 0.950 . S
C1444 C1445 1.386 . S
C1444 C1446 1.391 . S
C1445 C1444 1.386 . S
C1445 C1449 1.393 . S
C1446 H1438 0.950 . S
C1446 C1444 1.391 . S
C1446 C1447 1.400 . S
C1447 C1446 1.400 . S
C1447 C1448 1.398 . S
C1447 C1453 1.491 . S
C1448 H1439 0.950 . S
C1448 C1447 1.398 . S
C1448 C1449 1.391 . S
C1449 H1437 0.950 . S
C1449 C1445 1.393 . S
C1449 C1448 1.391 . S
C1450 H1440 0.950 . S
C1450 C1451 1.386 . S
C1450 C1452 1.391 . S
C1451 C1450 1.386 . S
C1451 C1455 1.393 . S
C1452 H1441 0.950 . S
C1452 C1450 1.391 . S
C1452 C1453 1.400 . S
C1453 C1447 1.491 . S
C1453 C1452 1.400 . S
C1453 C1454 1.398 . S
C1454 H1442 0.950 . S
C1454 C1453 1.398 . S
C1454 C1455 1.391 . S
C1455 H1443 0.950 . S
C1455 C1451 1.393 . S
C1455 C1454 1.391 . S
H1456 C1464 0.950 . S
H1457 C1469 0.950 . S
H1458 C1466 0.950 . S
H1459 C1468 0.950 . S
H1460 C1470 0.950 . S
H1461 C1472 0.950 . S
H1462 C1474 0.950 . S
H1463 C1475 0.950 . S
C1464 H1456 0.950 . S
C1464 C1465 1.386 . S
C1464 C1466 1.391 . S
C1465 C1464 1.386 . S
C1465 C1469 1.393 . S
C1466 H1458 0.950 . S
C1466 C1464 1.391 . S
C1466 C1467 1.400 . S
C1467 C1466 1.400 . S
C1467 C1468 1.398 . S
C1467 C1473 1.491 . S
C1468 H1459 0.950 . S
C1468 C1467 1.398 . S
C1468 C1469 1.391 . S
C1469 H1457 0.950 . S
C1469 C1465 1.393 . S
C1469 C1468 1.391 . S
C1470 H1460 0.950 . S
C1470 C1471 1.386 . S
C1470 C1472 1.391 . S
C1471 C1470 1.386 . S
C1471 C1475 1.393 . S
C1472 H1461 0.950 . S
C1472 C1470 1.391 . S
C1472 C1473 1.400 . S
C1473 C1467 1.491 . S
C1473 C1472 1.400 . S
C1473 C1474 1.398 . S
C1474 H1462 0.950 . S
C1474 C1473 1.398 . S
C1474 C1475 1.391 . S
C1475 H1463 0.950 . S
C1475 C1471 1.393 . S
C1475 C1474 1.391 . S
H1476 C1484 0.950 . S
H1477 C1489 0.950 . S
H1478 C1486 0.950 . S
H1479 C1488 0.950 . S
H1480 C1490 0.950 . S
H1481 C1492 0.950 . S
H1482 C1494 0.950 . S
H1483 C1495 0.950 . S
C1484 H1476 0.950 . S
C1484 C1485 1.386 . S
C1484 C1486 1.391 . S
C1485 C1484 1.386 . S
C1485 C1489 1.393 . S
C1486 H1478 0.950 . S
C1486 C1484 1.391 . S
C1486 C1487 1.400 . S
C1487 C1486 1.400 . S
C1487 C1488 1.398 . S
C1487 C1493 1.491 . S
C1488 H1479 0.950 . S
C1488 C1487 1.398 . S
C1488 C1489 1.391 . S
C1489 H1477 0.950 . S
C1489 C1485 1.393 . S
C1489 C1488 1.391 . S
C1490 H1480 0.950 . S
C1490 C1491 1.386 . S
C1490 C1492 1.391 . S
C1491 C1490 1.386 . S
C1491 C1495 1.393 . S
C1492 H1481 0.950 . S
C1492 C1490 1.391 . S
C1492 C1493 1.400 . S
C1493 C1487 1.491 . S
C1493 C1492 1.400 . S
C1493 C1494 1.398 . S
C1494 H1482 0.950 . S
C1494 C1493 1.398 . S
C1494 C1495 1.391 . S
C1495 H1483 0.950 . S
C1495 C1491 1.393 . S
C1495 C1494 1.391 . S
H1496 C1504 0.950 . S
H1497 C1509 0.950 . S
H1498 C1506 0.950 . S
H1499 C1508 0.950 . S
H1500 C1510 0.950 . S
H1501 C1512 0.950 . S
H1502 C1514 0.950 . S
H1503 C1515 0.950 . S
C1504 H1496 0.950 . S
C1504 C1505 1.386 . S
C1504 C1506 1.391 . S
C1505 C1504 1.386 . S
C1505 C1509 1.393 . S
C1506 H1498 0.950 . S
C1506 C1504 1.391 . S
C1506 C1507 1.400 . S
C1507 C1506 1.400 . S
C1507 C1508 1.398 . S
C1507 C1513 1.491 . S
C1508 H1499 0.950 . S
C1508 C1507 1.398 . S
C1508 C1509 1.391 . S
C1509 H1497 0.950 . S
C1509 C1505 1.393 . S
C1509 C1508 1.391 . S
C1510 H1500 0.950 . S
C1510 C1511 1.386 . S
C1510 C1512 1.391 . S
C1511 C1510 1.386 . S
C1511 C1515 1.393 . S
C1512 H1501 0.950 . S
C1512 C1510 1.391 . S
C1512 C1513 1.400 . S
C1513 C1507 1.491 . S
C1513 C1512 1.400 . S
C1513 C1514 1.398 . S
C1514 H1502 0.950 . S
C1514 C1513 1.398 . S
C1514 C1515 1.391 . S
C1515 H1503 0.950 . S
C1515 C1511 1.393 . S
C1515 C1514 1.391 . S
H1516 C1524 0.950 . S
H1517 C1529 0.950 . S
H1518 C1526 0.950 . S
H1519 C1528 0.950 . S
H1520 C1530 0.950 . S
H1521 C1532 0.950 . S
H1522 C1534 0.950 . S
H1523 C1535 0.950 . S
C1524 H1516 0.950 . S
C1524 C1525 1.386 . S
C1524 C1526 1.391 . S
C1525 C1524 1.386 . S
C1525 C1529 1.393 . S
C1526 H1518 0.950 . S
C1526 C1524 1.391 . S
C1526 C1527 1.400 . S
C1527 C1526 1.400 . S
C1527 C1528 1.398 . S
C1527 C1533 1.491 . S
C1528 H1519 0.950 . S
C1528 C1527 1.398 . S
C1528 C1529 1.391 . S
C1529 H1517 0.950 . S
C1529 C1525 1.393 . S
C1529 C1528 1.391 . S
C1530 H1520 0.950 . S
C1530 C1531 1.386 . S
C1530 C1532 1.391 . S
C1531 C1530 1.386 . S
C1531 C1535 1.393 . S
C1532 H1521 0.950 . S
C1532 C1530 1.391 . S
C1532 C1533 1.400 . S
C1533 C1527 1.491 . S
C1533 C1532 1.400 . S
C1533 C1534 1.398 . S
C1534 H1522 0.950 . S
C1534 C1533 1.398 . S
C1534 C1535 1.391 . S
C1535 H1523 0.950 . S
C1535 C1531 1.393 . S
C1535 C1534 1.391 . S
H1536 C1544 0.950 . S
H1537 C1549 0.950 . S
H1538 C1546 0.950 . S
H1539 C1548 0.950 . S
H1540 C1550 0.950 . S
H1541 C1552 0.950 . S
H1542 C1554 0.950 . S
H1543 C1555 0.950 . S
C1544 H1536 0.950 . S
C1544 C1545 1.386 . S
C1544 C1546 1.391 . S
C1545 C1544 1.386 . S
C1545 C1549 1.393 . S
C1546 H1538 0.950 . S
C1546 C1544 1.391 . S
C1546 C1547 1.400 . S
C1547 C1546 1.400 . S
C1547 C1548 1.398 . S
C1547 C1553 1.491 . S
C1548 H1539 0.950 . S
C1548 C1547 1.398 . S
C1548 C1549 1.391 . S
C1549 H1537 0.950 . S
C1549 C1545 1.393 . S
C1549 C1548 1.391 . S
C1550 H1540 0.950 . S
C1550 C1551 1.386 . S
C1550 C1552 1.391 . S
C1551 C1550 1.386 . S
C1551 C1555 1.393 . S
C1552 H1541 0.950 . S
C1552 C1550 1.391 . S
C1552 C1553 1.400 . S
C1553 C1547 1.491 . S
C1553 C1552 1.400 . S
C1553 C1554 1.398 . S
C1554 H1542 0.950 . S
C1554 C1553 1.398 . S
C1554 C1555 1.391 . S
C1555 H1543 0.950 . S
C1555 C1551 1.393 . S
C1555 C1554 1.391 . S
H1556 C1564 0.950 . S
H1557 C1569 0.950 . S
H1558 C1566 0.950 . S
H1559 C1568 0.950 . S
H1560 C1570 0.950 . S
H1561 C1572 0.950 . S
H1562 C1574 0.950 . S
H1563 C1575 0.950 . S
C1564 H1556 0.950 . S
C1564 C1565 1.386 . S
C1564 C1566 1.391 . S
C1565 C1564 1.386 . S
C1565 C1569 1.393 . S
C1566 H1558 0.950 . S
C1566 C1564 1.391 . S
C1566 C1567 1.400 . S
C1567 C1566 1.400 . S
C1567 C1568 1.398 . S
C1567 C1573 1.491 . S
C1568 H1559 0.950 . S
C1568 C1567 1.398 . S
C1568 C1569 1.391 . S
C1569 H1557 0.950 . S
C1569 C1565 1.393 . S
C1569 C1568 1.391 . S
C1570 H1560 0.950 . S
C1570 C1571 1.386 . S
C1570 C1572 1.391 . S
C1571 C1570 1.386 . S
C1571 C1575 1.393 . S
C1572 H1561 0.950 . S
C1572 C1570 1.391 . S
C1572 C1573 1.400 . S
C1573 C1567 1.491 . S
C1573 C1572 1.400 . S
C1573 C1574 1.398 . S
C1574 H1562 0.950 . S
C1574 C1573 1.398 . S
C1574 C1575 1.391 . S
C1575 H1563 0.950 . S
C1575 C1571 1.393 . S
C1575 C1574 1.391 . S
H1576 C1584 0.950 . S
H1577 C1589 0.950 . S
H1578 C1586 0.950 . S
H1579 C1588 0.950 . S
H1580 C1590 0.950 . S
H1581 C1592 0.950 . S
H1582 C1594 0.950 . S
H1583 C1595 0.950 1_554 S
C1584 H1576 0.950 . S
C1584 C1585 1.386 . S
C1584 C1586 1.391 . S
C1585 C1584 1.386 . S
C1585 C1589 1.393 . S
C1586 H1578 0.950 . S
C1586 C1584 1.391 . S
C1586 C1587 1.400 . S
C1587 C1586 1.400 . S
C1587 C1588 1.398 . S
C1587 C1593 1.491 . S
C1588 H1579 0.950 . S
C1588 C1587 1.398 . S
C1588 C1589 1.391 . S
C1589 H1577 0.950 . S
C1589 C1585 1.393 . S
C1589 C1588 1.391 . S
C1590 H1580 0.950 . S
C1590 C1591 1.386 . S
C1590 C1592 1.391 . S
C1591 C1590 1.386 . S
C1591 C1595 1.393 . S
C1592 H1581 0.950 . S
C1592 C1590 1.391 . S
C1592 C1593 1.400 . S
C1593 C1587 1.491 . S
C1593 C1592 1.400 . S
C1593 C1594 1.398 . S
C1594 H1582 0.950 . S
C1594 C1593 1.398 . S
C1594 C1595 1.391 . S
C1595 H1583 0.950 1_556 S
C1595 C1591 1.393 . S
C1595 C1594 1.391 . S
H1596 C1604 0.950 . S
H1597 C1609 0.950 . S
H1598 C1606 0.950 . S
H1599 C1608 0.950 . S
H1600 C1610 0.950 . S
H1601 C1612 0.950 . S
H1602 C1614 0.950 . S
H1603 C1615 0.950 . S
C1604 H1596 0.950 . S
C1604 C1605 1.386 . S
C1604 C1606 1.391 . S
C1605 C1604 1.386 . S
C1605 C1609 1.393 . S
C1606 H1598 0.950 . S
C1606 C1604 1.391 . S
C1606 C1607 1.400 . S
C1607 C1606 1.400 . S
C1607 C1608 1.398 . S
C1607 C1613 1.491 . S
C1608 H1599 0.950 . S
C1608 C1607 1.398 . S
C1608 C1609 1.391 . S
C1609 H1597 0.950 . S
C1609 C1605 1.393 . S
C1609 C1608 1.391 . S
C1610 H1600 0.950 . S
C1610 C1611 1.386 . S
C1610 C1612 1.391 . S
C1611 C1610 1.386 . S
C1611 C1615 1.393 . S
C1612 H1601 0.950 . S
C1612 C1610 1.391 . S
C1612 C1613 1.400 . S
C1613 C1607 1.491 . S
C1613 C1612 1.400 . S
C1613 C1614 1.398 . S
C1614 H1602 0.950 . S
C1614 C1613 1.398 . S
C1614 C1615 1.391 . S
C1615 H1603 0.950 . S
C1615 C1611 1.393 . S
C1615 C1614 1.391 . S
H1616 C1624 0.950 . S
H1617 C1629 0.950 . S
H1618 C1626 0.950 . S
H1619 C1628 0.976 . S
H1620 C1630 0.950 1_565 S
H1621 C1632 0.950 1_565 S
H1622 C1634 0.950 . S
H1623 C1635 0.950 . S
C1624 H1616 0.950 . S
C1624 C1625 1.386 . S
C1624 C1626 1.391 . S
C1625 C1624 1.386 . S
C1625 C1629 1.393 1_545 S
C1626 H1618 0.950 . S
C1626 C1624 1.391 . S
C1626 C1627 1.400 . S
C1627 C1626 1.400 . S
C1627 C1628 1.372 1_545 S
C1627 C1633 1.491 . S
C1628 H1619 0.976 . S
C1628 C1627 1.372 1_565 S
C1628 C1629 1.392 . S
C1629 H1617 0.950 . S
C1629 C1625 1.393 1_565 S
C1629 C1628 1.392 . S
C1630 H1620 0.950 1_545 S
C1630 C1631 1.386 . S
C1630 C1632 1.391 . S
C1631 C1630 1.386 . S
C1631 C1635 1.393 . S
C1632 H1621 0.950 1_545 S
C1632 C1630 1.391 . S
C1632 C1633 1.400 . S
C1633 C1627 1.491 . S
C1633 C1632 1.400 . S
C1633 C1634 1.398 . S
C1634 H1622 0.950 . S
C1634 C1633 1.398 . S
C1634 C1635 1.391 . S
C1635 H1623 0.950 . S
C1635 C1631 1.393 . S
C1635 C1634 1.391 . S
H1636 C1644 0.950 . S
H1637 C1649 0.950 . S
H1638 C1646 0.950 . S
H1639 C1648 0.950 . S
H1640 C1650 0.950 . S
H1641 C1652 0.950 . S
H1642 C1654 0.950 . S
H1643 C1655 0.950 . S
C1644 H1636 0.950 . S
C1644 C1645 1.386 . S
C1644 C1646 1.391 . S
C1645 C1644 1.386 . S
C1645 C1649 1.393 . S
C1646 H1638 0.950 . S
C1646 C1644 1.391 . S
C1646 C1647 1.400 . S
C1647 C1646 1.400 . S
C1647 C1648 1.398 . S
C1647 C1653 1.491 . S
C1648 H1639 0.950 . S
C1648 C1647 1.398 . S
C1648 C1649 1.391 . S
C1649 H1637 0.950 . S
C1649 C1645 1.393 . S
C1649 C1648 1.391 . S
C1650 H1640 0.950 . S
C1650 C1651 1.386 . S
C1650 C1652 1.391 . S
C1651 C1650 1.386 . S
C1651 C1655 1.393 . S
C1652 H1641 0.950 . S
C1652 C1650 1.391 . S
C1652 C1653 1.400 . S
C1653 C1647 1.491 . S
C1653 C1652 1.400 . S
C1653 C1654 1.398 . S
C1654 H1642 0.950 . S
C1654 C1653 1.398 . S
C1654 C1655 1.391 . S
C1655 H1643 0.950 . S
C1655 C1651 1.393 . S
C1655 C1654 1.391 . S
H1656 C1664 0.950 . S
H1657 C1669 0.950 . S
H1658 C1666 0.938 1_565 S
H1659 C1668 0.950 . S
H1660 C1670 0.950 . S
H1661 C1672 0.950 . S
H1662 C1674 0.952 . S
H1663 C1675 0.950 . S
C1664 H1656 0.950 . S
C1664 C1665 1.386 1_565 S
C1664 C1666 1.395 1_565 S
C1665 C1664 1.386 1_545 S
C1665 C1669 1.393 . S
C1666 H1658 0.938 1_545 S
C1666 C1664 1.395 1_545 S
C1666 C1667 1.408 . S
C1667 C1666 1.408 . S
C1667 C1668 1.398 . S
C1667 C1673 1.491 . S
C1668 H1659 0.950 . S
C1668 C1667 1.398 . S
C1668 C1669 1.391 . S
C1669 H1657 0.950 . S
C1669 C1665 1.393 . S
C1669 C1668 1.391 . S
C1670 H1660 0.950 . S
C1670 C1671 1.386 . S
C1670 C1672 1.391 . S
C1671 C1670 1.386 . S
C1671 C1675 1.393 . S
C1672 H1661 0.950 . S
C1672 C1670 1.391 . S
C1672 C1673 1.400 . S
C1673 C1667 1.491 . S
C1673 C1672 1.400 . S
C1673 C1674 1.398 . S
C1674 H1662 0.952 . S
C1674 C1673 1.398 . S
C1674 C1675 1.391 . S
C1675 H1663 0.950 . S
C1675 C1671 1.393 . S
C1675 C1674 1.391 . S
H1676 C1684 0.950 . S
H1677 C1689 0.950 . S
H1678 C1686 0.950 . S
H1679 C1688 0.950 . S
H1680 C1690 0.950 . S
H1681 C1692 0.950 . S
H1682 C1694 0.950 . S
H1683 C1695 0.950 . S
C1684 H1676 0.950 . S
C1684 C1685 1.386 . S
C1684 C1686 1.391 . S
C1685 C1684 1.386 . S
C1685 C1689 1.393 . S
C1686 H1678 0.950 . S
C1686 C1684 1.391 . S
C1686 C1687 1.400 . S
C1687 C1686 1.400 . S
C1687 C1688 1.398 . S
C1687 C1693 1.491 . S
C1688 H1679 0.950 . S
C1688 C1687 1.398 . S
C1688 C1689 1.391 . S
C1689 H1677 0.950 . S
C1689 C1685 1.393 . S
C1689 C1688 1.391 . S
C1690 H1680 0.950 . S
C1690 C1691 1.386 . S
C1690 C1692 1.391 . S
C1691 C1690 1.386 . S
C1691 C1695 1.393 . S
C1692 H1681 0.950 . S
C1692 C1690 1.391 . S
C1692 C1693 1.400 . S
C1693 C1687 1.491 . S
C1693 C1692 1.400 . S
C1693 C1694 1.398 . S
C1694 H1682 0.950 . S
C1694 C1693 1.398 . S
C1694 C1695 1.391 . S
C1695 H1683 0.950 . S
C1695 C1691 1.393 . S
C1695 C1694 1.391 . S
H1696 C1704 0.950 . S
H1697 C1709 0.950 . S
H1698 C1706 0.950 . S
H1699 C1708 0.950 . S
H1700 C1710 0.950 . S
H1701 C1712 0.950 . S
H1702 C1714 0.950 1_565 S
H1703 C1715 0.950 1_565 S
C1704 H1696 0.950 . S
C1704 C1705 1.392 . S
C1704 C1706 1.391 . S
C1705 C1704 1.392 . S
C1705 C1709 1.364 1_565 S
C1706 H1698 0.950 . S
C1706 C1704 1.391 . S
C1706 C1707 1.400 1_565 S
C1707 C1706 1.400 1_545 S
C1707 C1708 1.398 . S
C1707 C1713 1.491 . S
C1708 H1699 0.950 . S
C1708 C1707 1.398 . S
C1708 C1709 1.391 . S
C1709 H1697 0.950 . S
C1709 C1705 1.364 1_545 S
C1709 C1708 1.391 . S
C1710 H1700 0.950 . S
C1710 C1711 1.386 . S
C1710 C1712 1.391 . S
C1711 C1710 1.386 . S
C1711 C1715 1.393 . S
C1712 H1701 0.950 . S
C1712 C1710 1.391 . S
C1712 C1713 1.400 . S
C1713 C1707 1.491 . S
C1713 C1712 1.400 . S
C1713 C1714 1.398 . S
C1714 H1702 0.950 1_545 S
C1714 C1713 1.398 . S
C1714 C1715 1.391 . S
C1715 H1703 0.950 1_545 S
C1715 C1711 1.393 . S
C1715 C1714 1.391 . S
H1716 C1724 0.950 . S
H1717 C1729 0.950 . S
H1718 C1726 0.950 . S
H1719 C1728 0.950 . S
H1720 C1730 0.950 . S
H1721 C1732 0.950 . S
H1722 C1734 0.950 . S
H1723 C1735 0.950 . S
C1724 H1716 0.950 . S
C1724 C1725 1.386 . S
C1724 C1726 1.391 . S
C1725 C1724 1.386 . S
C1725 C1729 1.393 . S
C1726 H1718 0.950 . S
C1726 C1724 1.391 . S
C1726 C1727 1.400 . S
C1727 C1726 1.400 . S
C1727 C1728 1.398 . S
C1727 C1733 1.491 . S
C1728 H1719 0.950 . S
C1728 C1727 1.398 . S
C1728 C1729 1.391 . S
C1729 H1717 0.950 . S
C1729 C1725 1.393 . S
C1729 C1728 1.391 . S
C1730 H1720 0.950 . S
C1730 C1731 1.386 . S
C1730 C1732 1.391 . S
C1731 C1730 1.386 . S
C1731 C1735 1.393 . S
C1732 H1721 0.950 . S
C1732 C1730 1.391 . S
C1732 C1733 1.400 . S
C1733 C1727 1.491 . S
C1733 C1732 1.400 . S
C1733 C1734 1.398 . S
C1734 H1722 0.950 . S
C1734 C1733 1.398 . S
C1734 C1735 1.391 . S
C1735 H1723 0.950 . S
C1735 C1731 1.393 . S
C1735 C1734 1.391 . S
H1736 C1744 0.950 . S
H1737 C1749 0.950 . S
H1738 C1746 0.950 . S
H1739 C1748 0.950 . S
H1740 C1750 0.950 . S
H1741 C1752 0.950 . S
H1742 C1754 0.950 . S
H1743 C1755 0.950 . S
C1744 H1736 0.950 . S
C1744 C1745 1.389 . S
C1744 C1746 1.391 . S
C1745 C1744 1.389 . S
C1745 C1749 1.389 1_545 S
C1746 H1738 0.950 . S
C1746 C1744 1.391 . S
C1746 C1747 1.400 1_545 S
C1747 C1746 1.400 1_565 S
C1747 C1748 1.398 . S
C1747 C1753 1.491 . S
C1748 H1739 0.950 . S
C1748 C1747 1.398 . S
C1748 C1749 1.391 . S
C1749 H1737 0.950 . S
C1749 C1745 1.389 1_565 S
C1749 C1748 1.391 . S
C1750 H1740 0.950 . S
C1750 C1751 1.386 . S
C1750 C1752 1.391 . S
C1751 C1750 1.386 . S
C1751 C1755 1.393 1_565 S
C1752 H1741 0.950 . S
C1752 C1750 1.391 . S
C1752 C1753 1.400 . S
C1753 C1747 1.491 . S
C1753 C1752 1.400 . S
C1753 C1754 1.398 1_565 S
C1754 H1742 0.950 . S
C1754 C1753 1.398 1_545 S
C1754 C1755 1.391 . S
C1755 H1743 0.950 . S
C1755 C1751 1.393 1_545 S
C1755 C1754 1.391 . S
H1756 C1764 0.950 . S
H1757 C1769 0.950 . S
H1758 C1766 0.950 . S
H1759 C1768 0.950 . S
H1760 C1770 0.950 . S
H1761 C1772 0.950 . S
H1762 C1774 0.950 . S
H1763 C1775 0.950 . S
C1764 H1756 0.950 . S
C1764 C1765 1.386 . S
C1764 C1766 1.391 . S
C1765 C1764 1.386 . S
C1765 C1769 1.393 . S
C1766 H1758 0.950 . S
C1766 C1764 1.391 . S
C1766 C1767 1.400 . S
C1767 C1766 1.400 . S
C1767 C1768 1.398 . S
C1767 C1773 1.491 . S
C1768 H1759 0.950 . S
C1768 C1767 1.398 . S
C1768 C1769 1.391 . S
C1769 H1757 0.950 . S
C1769 C1765 1.393 . S
C1769 C1768 1.391 . S
C1770 H1760 0.950 . S
C1770 C1771 1.386 . S
C1770 C1772 1.391 . S
C1771 C1770 1.386 . S
C1771 C1775 1.393 . S
C1772 H1761 0.950 . S
C1772 C1770 1.391 . S
C1772 C1773 1.400 . S
C1773 C1767 1.491 . S
C1773 C1772 1.400 . S
C1773 C1774 1.398 . S
C1774 H1762 0.950 . S
C1774 C1773 1.398 . S
C1774 C1775 1.391 . S
C1775 H1763 0.950 . S
C1775 C1771 1.393 . S
C1775 C1774 1.391 . S
H1776 C1784 0.950 . S
H1777 C1789 0.944 1_556 S
H1778 C1786 0.950 . S
H1779 C1788 0.950 . S
H1780 C1790 0.950 . S
H1781 C1792 0.950 . S
H1782 C1794 0.950 1_554 S
H1783 C1795 0.950 . S
C1784 H1776 0.950 . S
C1784 C1785 1.386 . S
C1784 C1786 1.391 . S
C1785 C1784 1.386 . S
C1785 C1789 1.419 . S
C1786 H1778 0.950 . S
C1786 C1784 1.391 . S
C1786 C1787 1.412 . S
C1787 C1786 1.412 . S
C1787 C1788 1.396 1_554 S
C1787 C1793 1.482 1_554 S
C1788 H1779 0.950 . S
C1788 C1787 1.396 1_556 S
C1788 C1789 1.373 1_556 S
C1789 H1777 0.944 1_554 S
C1789 C1785 1.419 . S
C1789 C1788 1.373 1_554 S
C1790 H1780 0.950 . S
C1790 C1791 1.386 . S
C1790 C1792 1.391 . S
C1791 C1790 1.386 . S
C1791 C1795 1.393 . S
C1792 H1781 0.950 . S
C1792 C1790 1.391 . S
C1792 C1793 1.400 . S
C1793 C1787 1.482 1_556 S
C1793 C1792 1.400 . S
C1793 C1794 1.398 . S
C1794 H1782 0.950 1_556 S
C1794 C1793 1.398 . S
C1794 C1795 1.391 . S
C1795 H1783 0.950 . S
C1795 C1791 1.393 . S
C1795 C1794 1.391 . S
H1796 C1804 0.950 . S
H1797 C1809 0.950 . S
H1798 C1806 0.950 . S
H1799 C1808 0.950 . S
H1800 C1810 0.950 1_556 S
H1801 C1812 0.950 1_556 S
H1802 C1814 0.950 . S
H1803 C1815 0.950 . S
C1804 H1796 0.950 . S
C1804 C1805 1.386 . S
C1804 C1806 1.391 . S
C1805 C1804 1.386 . S
C1805 C1809 1.393 . S
C1806 H1798 0.950 . S
C1806 C1804 1.391 . S
C1806 C1807 1.400 . S
C1807 C1806 1.400 . S
C1807 C1808 1.398 . S
C1807 C1813 1.491 . S
C1808 H1799 0.950 . S
C1808 C1807 1.398 . S
C1808 C1809 1.391 . S
C1809 H1797 0.950 . S
C1809 C1805 1.393 . S
C1809 C1808 1.391 . S
C1810 H1800 0.950 1_554 S
C1810 C1811 1.386 . S
C1810 C1812 1.391 . S
C1811 C1810 1.386 . S
C1811 C1815 1.393 . S
C1812 H1801 0.950 1_554 S
C1812 C1810 1.391 . S
C1812 C1813 1.400 . S
C1813 C1807 1.491 . S
C1813 C1812 1.400 . S
C1813 C1814 1.398 . S
C1814 H1802 0.950 . S
C1814 C1813 1.398 . S
C1814 C1815 1.391 . S
C1815 H1803 0.950 . S
C1815 C1811 1.393 . S
C1815 C1814 1.391 . S
H1816 C1824 0.950 . S
H1817 C1829 0.950 . S
H1818 C1826 0.950 . S
H1819 C1828 0.950 . S
H1820 C1830 0.950 . S
H1821 C1832 0.950 . S
H1822 C1834 0.950 . S
H1823 C1835 0.950 . S
C1824 H1816 0.950 . S
C1824 C1825 1.386 . S
C1824 C1826 1.391 . S
C1825 C1824 1.386 . S
C1825 C1829 1.393 . S
C1826 H1818 0.950 . S
C1826 C1824 1.391 . S
C1826 C1827 1.400 . S
C1827 C1826 1.400 . S
C1827 C1828 1.398 . S
C1827 C1833 1.491 . S
C1828 H1819 0.950 . S
C1828 C1827 1.398 . S
C1828 C1829 1.391 . S
C1829 H1817 0.950 . S
C1829 C1825 1.393 . S
C1829 C1828 1.391 . S
C1830 H1820 0.950 . S
C1830 C1831 1.386 . S
C1830 C1832 1.391 . S
C1831 C1830 1.386 . S
C1831 C1835 1.393 . S
C1832 H1821 0.950 . S
C1832 C1830 1.391 . S
C1832 C1833 1.400 . S
C1833 C1827 1.491 . S
C1833 C1832 1.400 . S
C1833 C1834 1.398 . S
C1834 H1822 0.950 . S
C1834 C1833 1.398 . S
C1834 C1835 1.391 . S
C1835 H1823 0.950 . S
C1835 C1831 1.393 . S
C1835 C1834 1.391 . S
H1836 C1844 0.950 . S
H1837 C1849 0.950 . S
H1838 C1846 0.950 . S
H1839 C1848 0.950 . S
H1840 C1850 0.950 . S
H1841 C1852 0.950 . S
H1842 C1854 0.950 . S
H1843 C1855 0.950 . S
C1844 H1836 0.950 . S
C1844 C1845 1.386 . S
C1844 C1846 1.391 . S
C1845 C1844 1.386 . S
C1845 C1849 1.393 . S
C1846 H1838 0.950 . S
C1846 C1844 1.391 . S
C1846 C1847 1.400 . S
C1847 C1846 1.400 . S
C1847 C1848 1.398 . S
C1847 C1853 1.491 . S
C1848 H1839 0.950 . S
C1848 C1847 1.398 . S
C1848 C1849 1.391 . S
C1849 H1837 0.950 . S
C1849 C1845 1.393 . S
C1849 C1848 1.391 . S
C1850 H1840 0.950 . S
C1850 C1851 1.386 . S
C1850 C1852 1.391 . S
C1851 C1850 1.386 . S
C1851 C1855 1.393 . S
C1852 H1841 0.950 . S
C1852 C1850 1.391 . S
C1852 C1853 1.400 . S
C1853 C1847 1.491 . S
C1853 C1852 1.400 . S
C1853 C1854 1.398 . S
C1854 H1842 0.950 . S
C1854 C1853 1.398 . S
C1854 C1855 1.391 . S
C1855 H1843 0.950 . S
C1855 C1851 1.393 . S
C1855 C1854 1.391 . S
H1856 C1864 0.950 . S
H1857 C1869 0.950 . S
H1858 C1866 0.950 . S
H1859 C1868 0.951 . S
H1860 C1870 0.950 . S
H1861 C1872 0.950 . S
H1862 C1874 0.950 . S
H1863 C1875 0.950 . S
C1864 H1856 0.950 . S
C1864 C1865 1.386 1_565 S
C1864 C1866 1.391 . S
C1865 C1864 1.386 1_545 S
C1865 C1869 1.393 . S
C1866 H1858 0.950 . S
C1866 C1864 1.391 . S
C1866 C1867 1.400 . S
C1867 C1866 1.400 . S
C1867 C1868 1.361 1_565 S
C1867 C1873 1.491 . S
C1868 H1859 0.951 . S
C1868 C1867 1.361 1_545 S
C1868 C1869 1.428 . S
C1869 H1857 0.950 . S
C1869 C1865 1.393 . S
C1869 C1868 1.428 . S
C1870 H1860 0.950 . S
C1870 C1871 1.386 . S
C1870 C1872 1.391 . S
C1871 C1870 1.386 . S
C1871 C1875 1.393 . S
C1872 H1861 0.950 . S
C1872 C1870 1.391 . S
C1872 C1873 1.400 . S
C1873 C1867 1.491 . S
C1873 C1872 1.400 . S
C1873 C1874 1.398 . S
C1874 H1862 0.950 . S
C1874 C1873 1.398 . S
C1874 C1875 1.391 . S
C1875 H1863 0.950 . S
C1875 C1871 1.393 . S
C1875 C1874 1.391 . S
H1876 C1884 0.950 . S
H1877 C1889 0.950 . S
H1878 C1886 0.950 . S
H1879 C1888 0.950 . S
H1880 C1890 0.950 . S
H1881 C1892 0.950 . S
H1882 C1894 0.950 . S
H1883 C1895 0.950 . S
C1884 H1876 0.950 . S
C1884 C1885 1.386 . S
C1884 C1886 1.391 . S
C1885 C1884 1.386 . S
C1885 C1889 1.393 . S
C1886 H1878 0.950 . S
C1886 C1884 1.391 . S
C1886 C1887 1.400 . S
C1887 C1886 1.400 . S
C1887 C1888 1.398 . S
C1887 C1893 1.491 . S
C1888 H1879 0.950 . S
C1888 C1887 1.398 . S
C1888 C1889 1.391 . S
C1889 H1877 0.950 . S
C1889 C1885 1.393 . S
C1889 C1888 1.391 . S
C1890 H1880 0.950 . S
C1890 C1891 1.386 . S
C1890 C1892 1.391 . S
C1891 C1890 1.386 . S
C1891 C1895 1.393 . S
C1892 H1881 0.950 . S
C1892 C1890 1.391 . S
C1892 C1893 1.400 . S
C1893 C1887 1.491 . S
C1893 C1892 1.400 . S
C1893 C1894 1.398 . S
C1894 H1882 0.950 . S
C1894 C1893 1.398 . S
C1894 C1895 1.391 . S
C1895 H1883 0.950 . S
C1895 C1891 1.393 . S
C1895 C1894 1.391 . S
H1896 C1904 0.950 . S
H1897 C1909 0.950 . S
H1898 C1906 0.950 . S
H1899 C1908 0.950 . S
H1900 C1910 0.950 . S
H1901 C1912 0.950 . S
H1902 C1914 0.950 . S
H1903 C1915 0.950 . S
C1904 H1896 0.950 . S
C1904 C1905 1.386 . S
C1904 C1906 1.391 . S
C1905 C1904 1.386 . S
C1905 C1909 1.393 . S
C1906 H1898 0.950 . S
C1906 C1904 1.391 . S
C1906 C1907 1.400 . S
C1907 C1906 1.400 . S
C1907 C1908 1.398 . S
C1907 C1913 1.491 . S
C1908 H1899 0.950 . S
C1908 C1907 1.398 . S
C1908 C1909 1.391 . S
C1909 H1897 0.950 . S
C1909 C1905 1.393 . S
C1909 C1908 1.391 . S
C1910 H1900 0.950 . S
C1910 C1911 1.386 . S
C1910 C1912 1.391 . S
C1911 C1910 1.386 . S
C1911 C1915 1.393 . S
C1912 H1901 0.950 . S
C1912 C1910 1.391 . S
C1912 C1913 1.400 . S
C1913 C1907 1.491 . S
C1913 C1912 1.400 . S
C1913 C1914 1.398 . S
C1914 H1902 0.950 . S
C1914 C1913 1.398 . S
C1914 C1915 1.391 . S
C1915 H1903 0.950 . S
C1915 C1911 1.393 . S
C1915 C1914 1.391 . S
H1916 C1924 0.950 . S
H1917 C1929 0.950 . S
H1918 C1926 0.950 . S
H1919 C1928 0.950 . S
H1920 C1930 0.950 . S
H1921 C1932 0.950 . S
H1922 C1934 0.950 . S
H1923 C1935 0.950 . S
C1924 H1916 0.950 . S
C1924 C1925 1.386 . S
C1924 C1926 1.391 . S
C1925 C1924 1.386 . S
C1925 C1929 1.393 . S
C1926 H1918 0.950 . S
C1926 C1924 1.391 . S
C1926 C1927 1.400 . S
C1927 C1926 1.400 . S
C1927 C1928 1.398 . S
C1927 C1933 1.491 . S
C1928 H1919 0.950 . S
C1928 C1927 1.398 . S
C1928 C1929 1.391 . S
C1929 H1917 0.950 . S
C1929 C1925 1.393 . S
C1929 C1928 1.391 . S
C1930 H1920 0.950 . S
C1930 C1931 1.386 . S
C1930 C1932 1.391 . S
C1931 C1930 1.386 . S
C1931 C1935 1.393 . S
C1932 H1921 0.950 . S
C1932 C1930 1.391 . S
C1932 C1933 1.400 . S
C1933 C1927 1.491 . S
C1933 C1932 1.400 . S
C1933 C1934 1.398 . S
C1934 H1922 0.950 . S
C1934 C1933 1.398 . S
C1934 C1935 1.391 . S
C1935 H1923 0.950 . S
C1935 C1931 1.393 . S
C1935 C1934 1.391 . S
H1936 C1944 0.950 . S
H1937 C1949 0.950 . S
H1938 C1946 0.950 . S
H1939 C1948 0.950 . S
H1940 C1950 0.950 . S
H1941 C1952 0.950 . S
H1942 C1954 0.950 . S
H1943 C1955 0.950 . S
C1944 H1936 0.950 . S
C1944 C1945 1.386 . S
C1944 C1946 1.391 . S
C1945 C1944 1.386 . S
C1945 C1949 1.393 . S
C1946 H1938 0.950 . S
C1946 C1944 1.391 . S
C1946 C1947 1.400 . S
C1947 C1946 1.400 . S
C1947 C1948 1.398 . S
C1947 C1953 1.491 . S
C1948 H1939 0.950 . S
C1948 C1947 1.398 . S
C1948 C1949 1.391 . S
C1949 H1937 0.950 . S
C1949 C1945 1.393 . S
C1949 C1948 1.391 . S
C1950 H1940 0.950 . S
C1950 C1951 1.386 . S
C1950 C1952 1.391 . S
C1951 C1950 1.386 . S
C1951 C1955 1.393 . S
C1952 H1941 0.950 . S
C1952 C1950 1.391 . S
C1952 C1953 1.400 . S
C1953 C1947 1.491 . S
C1953 C1952 1.400 . S
C1953 C1954 1.398 . S
C1954 H1942 0.950 . S
C1954 C1953 1.398 . S
C1954 C1955 1.391 . S
C1955 H1943 0.950 . S
C1955 C1951 1.393 . S
C1955 C1954 1.391 . S
H1956 C1964 0.950 . S
H1957 C1969 0.950 . S
H1958 C1966 0.950 . S
H1959 C1968 0.950 . S
H1960 C1970 0.950 . S
H1961 C1972 0.950 . S
H1962 C1974 0.950 . S
H1963 C1975 0.950 . S
C1964 H1956 0.950 . S
C1964 C1965 1.386 . S
C1964 C1966 1.391 . S
C1965 C1964 1.386 . S
C1965 C1969 1.393 . S
C1966 H1958 0.950 . S
C1966 C1964 1.391 . S
C1966 C1967 1.400 . S
C1967 C1966 1.400 . S
C1967 C1968 1.398 . S
C1967 C1973 1.491 . S
C1968 H1959 0.950 . S
C1968 C1967 1.398 . S
C1968 C1969 1.391 . S
C1969 H1957 0.950 . S
C1969 C1965 1.393 . S
C1969 C1968 1.391 . S
C1970 H1960 0.950 . S
C1970 C1971 1.386 . S
C1970 C1972 1.391 . S
C1971 C1970 1.386 . S
C1971 C1975 1.393 . S
C1972 H1961 0.950 . S
C1972 C1970 1.391 . S
C1972 C1973 1.400 . S
C1973 C1967 1.491 . S
C1973 C1972 1.400 . S
C1973 C1974 1.398 . S
C1974 H1962 0.950 . S
C1974 C1973 1.398 . S
C1974 C1975 1.391 . S
C1975 H1963 0.950 . S
C1975 C1971 1.393 . S
C1975 C1974 1.391 . S
H1976 C1984 0.950 . S
H1977 C1989 0.950 . S
H1978 C1986 0.950 1_554 S
H1979 C1988 0.950 . S
H1980 C1990 0.950 . S
H1981 C1992 0.950 . S
H1982 C1994 0.950 . S
H1983 C1995 0.950 . S
C1984 H1976 0.950 . S
C1984 C1985 1.386 . S
C1984 C1986 1.391 . S
C1985 C1984 1.386 . S
C1985 C1989 1.393 . S
C1986 H1978 0.950 1_556 S
C1986 C1984 1.391 . S
C1986 C1987 1.400 . S
C1987 C1986 1.400 . S
C1987 C1988 1.398 . S
C1987 C1993 1.491 . S
C1988 H1979 0.950 . S
C1988 C1987 1.398 . S
C1988 C1989 1.391 . S
C1989 H1977 0.950 . S
C1989 C1985 1.393 . S
C1989 C1988 1.391 . S
C1990 H1980 0.950 . S
C1990 C1991 1.387 1_556 S
C1990 C1992 1.391 . S
C1991 C1990 1.387 1_554 S
C1991 C1995 1.392 . S
C1992 H1981 0.950 . S
C1992 C1990 1.391 . S
C1992 C1993 1.400 . S
C1993 C1987 1.491 . S
C1993 C1992 1.400 . S
C1993 C1994 1.398 1_556 S
C1994 H1982 0.950 . S
C1994 C1993 1.398 1_554 S
C1994 C1995 1.391 . S
C1995 H1983 0.950 . S
C1995 C1991 1.392 . S
C1995 C1994 1.391 . S
H1996 C2004 0.950 . S
H1997 C2009 0.950 . S
H1998 C2006 0.950 . S
H1999 C2008 0.950 . S
H2000 C2010 0.950 . S
H2001 C2012 0.950 . S
H2002 C2014 0.950 . S
H2003 C2015 0.950 . S
C2004 H1996 0.950 . S
C2004 C2005 1.386 . S
C2004 C2006 1.391 . S
C2005 C2004 1.386 . S
C2005 C2009 1.393 . S
C2006 H1998 0.950 . S
C2006 C2004 1.391 . S
C2006 C2007 1.400 1_455 S
C2007 C2006 1.400 1_655 S
C2007 C2008 1.398 . S
C2007 C2013 1.491 . S
C2008 H1999 0.950 . S
C2008 C2007 1.398 . S
C2008 C2009 1.391 1_655 S
C2009 H1997 0.950 . S
C2009 C2005 1.393 . S
C2009 C2008 1.391 1_455 S
C2010 H2000 0.950 . S
C2010 C2011 1.386 . S
C2010 C2012 1.391 . S
C2011 C2010 1.386 . S
C2011 C2015 1.393 . S
C2012 H2001 0.950 . S
C2012 C2010 1.391 . S
C2012 C2013 1.400 . S
C2013 C2007 1.491 . S
C2013 C2012 1.400 . S
C2013 C2014 1.398 . S
C2014 H2002 0.950 . S
C2014 C2013 1.398 . S
C2014 C2015 1.391 . S
C2015 H2003 0.950 . S
C2015 C2011 1.393 . S
C2015 C2014 1.391 . S
H2016 C2024 0.950 . S
H2017 C2029 0.950 . S
H2018 C2026 0.950 . S
H2019 C2028 0.950 . S
H2020 C2030 0.950 . S
H2021 C2032 0.950 . S
H2022 C2034 0.950 . S
H2023 C2035 0.950 . S
C2024 H2016 0.950 . S
C2024 C2025 1.386 . S
C2024 C2026 1.391 . S
C2025 C2024 1.386 . S
C2025 C2029 1.393 . S
C2026 H2018 0.950 . S
C2026 C2024 1.391 . S
C2026 C2027 1.400 . S
C2027 C2026 1.400 . S
C2027 C2028 1.398 . S
C2027 C2033 1.491 . S
C2028 H2019 0.950 . S
C2028 C2027 1.398 . S
C2028 C2029 1.391 . S
C2029 H2017 0.950 . S
C2029 C2025 1.393 . S
C2029 C2028 1.391 . S
C2030 H2020 0.950 . S
C2030 C2031 1.386 . S
C2030 C2032 1.391 . S
C2031 C2030 1.386 . S
C2031 C2035 1.393 . S
C2032 H2021 0.950 . S
C2032 C2030 1.391 . S
C2032 C2033 1.400 . S
C2033 C2027 1.491 . S
C2033 C2032 1.400 . S
C2033 C2034 1.398 . S
C2034 H2022 0.950 . S
C2034 C2033 1.398 . S
C2034 C2035 1.391 . S
C2035 H2023 0.950 . S
C2035 C2031 1.393 . S
C2035 C2034 1.391 . S
H2036 C2044 0.950 . S
H2037 C2049 0.950 . S
H2038 C2046 0.950 . S
H2039 C2048 0.950 . S
H2040 C2050 0.950 . S
H2041 C2052 0.950 . S
H2042 C2054 0.952 1_455 S
H2043 C2055 0.950 . S
C2044 H2036 0.950 . S
C2044 C2045 1.386 . S
C2044 C2046 1.391 . S
C2045 C2044 1.386 . S
C2045 C2049 1.393 . S
C2046 H2038 0.950 . S
C2046 C2044 1.391 . S
C2046 C2047 1.400 . S
C2047 C2046 1.400 . S
C2047 C2048 1.398 . S
C2047 C2053 1.491 1_455 S
C2048 H2039 0.950 . S
C2048 C2047 1.398 . S
C2048 C2049 1.391 . S
C2049 H2037 0.950 . S
C2049 C2045 1.393 . S
C2049 C2048 1.391 . S
C2050 H2040 0.950 . S
C2050 C2051 1.386 . S
C2050 C2052 1.391 . S
C2051 C2050 1.386 . S
C2051 C2055 1.393 . S
C2052 H2041 0.950 . S
C2052 C2050 1.391 . S
C2052 C2053 1.400 . S
C2053 C2047 1.491 1_655 S
C2053 C2052 1.400 . S
C2053 C2054 1.398 . S
C2054 H2042 0.952 1_655 S
C2054 C2053 1.398 . S
C2054 C2055 1.391 . S
C2055 H2043 0.950 . S
C2055 C2051 1.393 . S
C2055 C2054 1.391 . S
H2056 C2064 0.950 . S
H2057 C2069 0.950 . S
H2058 C2066 0.950 . S
H2059 C2068 0.950 . S
H2060 C2070 0.950 . S
H2061 C2072 0.950 . S
H2062 C2074 0.950 . S
H2063 C2075 0.950 . S
C2064 H2056 0.950 . S
C2064 C2065 1.386 . S
C2064 C2066 1.391 . S
C2065 C2064 1.386 . S
C2065 C2069 1.393 1_655 S
C2066 H2058 0.950 . S
C2066 C2064 1.391 . S
C2066 C2067 1.400 1_655 S
C2067 C2066 1.400 1_455 S
C2067 C2068 1.398 . S
C2067 C2073 1.491 . S
C2068 H2059 0.950 . S
C2068 C2067 1.398 . S
C2068 C2069 1.391 . S
C2069 H2057 0.950 . S
C2069 C2065 1.393 1_455 S
C2069 C2068 1.391 . S
C2070 H2060 0.950 . S
C2070 C2071 1.386 . S
C2070 C2072 1.391 . S
C2071 C2070 1.386 . S
C2071 C2075 1.393 . S
C2072 H2061 0.950 . S
C2072 C2070 1.391 . S
C2072 C2073 1.400 . S
C2073 C2067 1.491 . S
C2073 C2072 1.400 . S
C2073 C2074 1.398 . S
C2074 H2062 0.950 . S
C2074 C2073 1.398 . S
C2074 C2075 1.391 . S
C2075 H2063 0.950 . S
C2075 C2071 1.393 . S
C2075 C2074 1.391 . S
H2076 C2084 0.950 . S
H2077 C2089 0.950 . S
H2078 C2086 0.950 . S
H2079 C2088 0.950 . S
H2080 C2090 0.950 . S
H2081 C2092 0.950 . S
H2082 C2094 0.950 . S
H2083 C2095 0.950 . S
C2084 H2076 0.950 . S
C2084 C2085 1.386 . S
C2084 C2086 1.391 . S
C2085 C2084 1.386 . S
C2085 C2089 1.393 . S
C2086 H2078 0.950 . S
C2086 C2084 1.391 . S
C2086 C2087 1.400 . S
C2087 C2086 1.400 . S
C2087 C2088 1.398 . S
C2087 C2093 1.491 . S
C2088 H2079 0.950 . S
C2088 C2087 1.398 . S
C2088 C2089 1.391 . S
C2089 H2077 0.950 . S
C2089 C2085 1.393 . S
C2089 C2088 1.391 . S
C2090 H2080 0.950 . S
C2090 C2091 1.386 . S
C2090 C2092 1.391 . S
C2091 C2090 1.386 . S
C2091 C2095 1.393 . S
C2092 H2081 0.950 . S
C2092 C2090 1.391 . S
C2092 C2093 1.400 . S
C2093 C2087 1.491 . S
C2093 C2092 1.400 . S
C2093 C2094 1.398 . S
C2094 H2082 0.950 . S
C2094 C2093 1.398 . S
C2094 C2095 1.391 . S
C2095 H2083 0.950 . S
C2095 C2091 1.393 . S
C2095 C2094 1.391 . S
H2096 C2104 0.950 . S
H2097 C2109 0.950 . S
H2098 C2106 0.950 . S
H2099 C2108 0.950 . S
H2100 C2110 0.950 . S
H2101 C2112 0.950 . S
H2102 C2114 0.950 . S
H2103 C2115 0.950 . S
C2104 H2096 0.950 . S
C2104 C2105 1.386 . S
C2104 C2106 1.391 . S
C2105 C2104 1.386 . S
C2105 C2109 1.393 . S
C2106 H2098 0.950 . S
C2106 C2104 1.391 . S
C2106 C2107 1.400 . S
C2107 C2106 1.400 . S
C2107 C2108 1.398 . S
C2107 C2113 1.491 . S
C2108 H2099 0.950 . S
C2108 C2107 1.398 . S
C2108 C2109 1.391 . S
C2109 H2097 0.950 . S
C2109 C2105 1.393 . S
C2109 C2108 1.391 . S
C2110 H2100 0.950 . S
C2110 C2111 1.386 . S
C2110 C2112 1.391 . S
C2111 C2110 1.386 . S
C2111 C2115 1.393 . S
C2112 H2101 0.950 . S
C2112 C2110 1.391 . S
C2112 C2113 1.400 . S
C2113 C2107 1.491 . S
C2113 C2112 1.400 . S
C2113 C2114 1.398 . S
C2114 H2102 0.950 . S
C2114 C2113 1.398 . S
C2114 C2115 1.391 . S
C2115 H2103 0.950 . S
C2115 C2111 1.393 . S
C2115 C2114 1.391 . S
H2116 C2124 0.950 . S
H2117 C2129 0.950 . S
H2118 C2126 0.950 . S
H2119 C2128 0.950 . S
H2120 C2130 0.950 . S
H2121 C2132 0.950 . S
H2122 C2134 0.950 . S
H2123 C2135 0.950 . S
C2124 H2116 0.950 . S
C2124 C2125 1.386 . S
C2124 C2126 1.391 . S
C2125 C2124 1.386 . S
C2125 C2129 1.393 . S
C2126 H2118 0.950 . S
C2126 C2124 1.391 . S
C2126 C2127 1.400 . S
C2127 C2126 1.400 . S
C2127 C2128 1.398 . S
C2127 C2133 1.491 . S
C2128 H2119 0.950 . S
C2128 C2127 1.398 . S
C2128 C2129 1.391 . S
C2129 H2117 0.950 . S
C2129 C2125 1.393 . S
C2129 C2128 1.391 . S
C2130 H2120 0.950 . S
C2130 C2131 1.386 . S
C2130 C2132 1.391 . S
C2131 C2130 1.386 . S
C2131 C2135 1.393 . S
C2132 H2121 0.950 . S
C2132 C2130 1.391 . S
C2132 C2133 1.400 . S
C2133 C2127 1.491 . S
C2133 C2132 1.400 . S
C2133 C2134 1.398 . S
C2134 H2122 0.950 . S
C2134 C2133 1.398 . S
C2134 C2135 1.391 . S
C2135 H2123 0.950 . S
C2135 C2131 1.393 . S
C2135 C2134 1.391 . S
H2136 C2144 0.950 . S
H2137 C2149 0.950 . S
H2138 C2146 0.950 . S
H2139 C2148 0.950 . S
H2140 C2150 0.950 . S
H2141 C2152 0.950 . S
H2142 C2154 0.950 . S
H2143 C2155 0.950 . S
C2144 H2136 0.950 . S
C2144 C2145 1.386 . S
C2144 C2146 1.391 . S
C2145 C2144 1.386 . S
C2145 C2149 1.393 . S
C2146 H2138 0.950 . S
C2146 C2144 1.391 . S
C2146 C2147 1.400 . S
C2147 C2146 1.400 . S
C2147 C2148 1.398 . S
C2147 C2153 1.491 . S
C2148 H2139 0.950 . S
C2148 C2147 1.398 . S
C2148 C2149 1.391 . S
C2149 H2137 0.950 . S
C2149 C2145 1.393 . S
C2149 C2148 1.391 . S
C2150 H2140 0.950 . S
C2150 C2151 1.386 . S
C2150 C2152 1.391 . S
C2151 C2150 1.386 . S
C2151 C2155 1.393 . S
C2152 H2141 0.950 . S
C2152 C2150 1.391 . S
C2152 C2153 1.400 . S
C2153 C2147 1.491 . S
C2153 C2152 1.400 . S
C2153 C2154 1.398 . S
C2154 H2142 0.950 . S
C2154 C2153 1.398 . S
C2154 C2155 1.391 . S
C2155 H2143 0.950 . S
C2155 C2151 1.393 . S
C2155 C2154 1.391 . S
H2156 C2164 0.950 . S
H2157 C2169 0.950 . S
H2158 C2166 0.950 . S
H2159 C2168 0.950 . S
H2160 C2170 0.950 . S
H2161 C2172 0.950 . S
H2162 C2174 0.950 . S
H2163 C2175 0.950 . S
C2164 H2156 0.950 . S
C2164 C2165 1.386 . S
C2164 C2166 1.391 . S
C2165 C2164 1.386 . S
C2165 C2169 1.393 . S
C2166 H2158 0.950 . S
C2166 C2164 1.391 . S
C2166 C2167 1.400 . S
C2167 C2166 1.400 . S
C2167 C2168 1.398 . S
C2167 C2173 1.491 . S
C2168 H2159 0.950 . S
C2168 C2167 1.398 . S
C2168 C2169 1.391 . S
C2169 H2157 0.950 . S
C2169 C2165 1.393 . S
C2169 C2168 1.391 . S
C2170 H2160 0.950 . S
C2170 C2171 1.386 . S
C2170 C2172 1.391 . S
C2171 C2170 1.386 . S
C2171 C2175 1.393 . S
C2172 H2161 0.950 . S
C2172 C2170 1.391 . S
C2172 C2173 1.400 . S
C2173 C2167 1.491 . S
C2173 C2172 1.400 . S
C2173 C2174 1.398 . S
C2174 H2162 0.950 . S
C2174 C2173 1.398 . S
C2174 C2175 1.391 . S
C2175 H2163 0.950 . S
C2175 C2171 1.393 . S
C2175 C2174 1.391 . S
H2176 C2184 0.950 . S
H2177 C2189 0.950 . S
H2178 C2186 0.950 . S
H2179 C2188 0.950 . S
H2180 C2190 0.950 . S
H2181 C2192 0.950 . S
H2182 C2194 0.950 . S
H2183 C2195 0.950 . S
C2184 H2176 0.950 . S
C2184 C2185 1.386 . S
C2184 C2186 1.391 . S
C2185 C2184 1.386 . S
C2185 C2189 1.393 . S
C2186 H2178 0.950 . S
C2186 C2184 1.391 . S
C2186 C2187 1.400 . S
C2187 C2186 1.400 . S
C2187 C2188 1.398 . S
C2187 C2193 1.491 . S
C2188 H2179 0.950 . S
C2188 C2187 1.398 . S
C2188 C2189 1.391 . S
C2189 H2177 0.950 . S
C2189 C2185 1.393 . S
C2189 C2188 1.391 . S
C2190 H2180 0.950 . S
C2190 C2191 1.386 . S
C2190 C2192 1.391 . S
C2191 C2190 1.386 . S
C2191 C2195 1.393 . S
C2192 H2181 0.950 . S
C2192 C2190 1.391 . S
C2192 C2193 1.400 . S
C2193 C2187 1.491 . S
C2193 C2192 1.400 . S
C2193 C2194 1.398 . S
C2194 H2182 0.950 . S
C2194 C2193 1.398 . S
C2194 C2195 1.391 . S
C2195 H2183 0.950 . S
C2195 C2191 1.393 . S
C2195 C2194 1.391 . S
H2196 C2204 0.950 . S
H2197 C2209 0.950 . S
H2198 C2206 0.950 . S
H2199 C2208 0.950 . S
H2200 C2210 0.950 . S
H2201 C2212 0.950 . S
H2202 C2214 0.950 . S
H2203 C2215 0.950 . S
C2204 H2196 0.950 . S
C2204 C2205 1.386 . S
C2204 C2206 1.391 . S
C2205 C2204 1.386 . S
C2205 C2209 1.393 . S
C2206 H2198 0.950 . S
C2206 C2204 1.391 . S
C2206 C2207 1.400 . S
C2207 C2206 1.400 . S
C2207 C2208 1.398 . S
C2207 C2213 1.491 . S
C2208 H2199 0.950 . S
C2208 C2207 1.398 . S
C2208 C2209 1.391 . S
C2209 H2197 0.950 . S
C2209 C2205 1.393 . S
C2209 C2208 1.391 . S
C2210 H2200 0.950 . S
C2210 C2211 1.386 . S
C2210 C2212 1.391 . S
C2211 C2210 1.386 . S
C2211 C2215 1.393 . S
C2212 H2201 0.950 . S
C2212 C2210 1.391 . S
C2212 C2213 1.400 . S
C2213 C2207 1.491 . S
C2213 C2212 1.400 . S
C2213 C2214 1.398 . S
C2214 H2202 0.950 . S
C2214 C2213 1.398 . S
C2214 C2215 1.391 . S
C2215 H2203 0.950 . S
C2215 C2211 1.393 . S
C2215 C2214 1.391 . S
H2216 C2224 0.950 . S
H2217 C2229 0.950 . S
H2218 C2226 0.950 . S
H2219 C2228 0.950 . S
H2220 C2230 0.950 . S
H2221 C2232 0.950 . S
H2222 C2234 0.950 . S
H2223 C2235 0.950 . S
C2224 H2216 0.950 . S
C2224 C2225 1.386 . S
C2224 C2226 1.391 . S
C2225 C2224 1.386 . S
C2225 C2229 1.393 . S
C2226 H2218 0.950 . S
C2226 C2224 1.391 . S
C2226 C2227 1.400 . S
C2227 C2226 1.400 . S
C2227 C2228 1.398 . S
C2227 C2233 1.491 . S
C2228 H2219 0.950 . S
C2228 C2227 1.398 . S
C2228 C2229 1.391 . S
C2229 H2217 0.950 . S
C2229 C2225 1.393 . S
C2229 C2228 1.391 . S
C2230 H2220 0.950 . S
C2230 C2231 1.386 . S
C2230 C2232 1.391 . S
C2231 C2230 1.386 . S
C2231 C2235 1.393 . S
C2232 H2221 0.950 . S
C2232 C2230 1.391 . S
C2232 C2233 1.400 . S
C2233 C2227 1.491 . S
C2233 C2232 1.400 . S
C2233 C2234 1.398 . S
C2234 H2222 0.950 . S
C2234 C2233 1.398 . S
C2234 C2235 1.391 . S
C2235 H2223 0.950 . S
C2235 C2231 1.393 . S
C2235 C2234 1.391 . S
H2236 C2244 0.950 . S
H2237 C2249 0.950 . S
H2238 C2246 0.950 . S
H2239 C2248 0.950 . S
H2240 C2250 0.950 . S
H2241 C2252 0.950 . S
H2242 C2254 0.950 . S
H2243 C2255 0.950 . S
C2244 H2236 0.950 . S
C2244 C2245 1.386 . S
C2244 C2246 1.391 . S
C2245 C2244 1.386 . S
C2245 C2249 1.393 . S
C2246 H2238 0.950 . S
C2246 C2244 1.391 . S
C2246 C2247 1.400 . S
C2247 C2246 1.400 . S
C2247 C2248 1.398 . S
C2247 C2253 1.491 . S
C2248 H2239 0.950 . S
C2248 C2247 1.398 . S
C2248 C2249 1.391 . S
C2249 H2237 0.950 . S
C2249 C2245 1.393 . S
C2249 C2248 1.391 . S
C2250 H2240 0.950 . S
C2250 C2251 1.386 . S
C2250 C2252 1.391 . S
C2251 C2250 1.386 . S
C2251 C2255 1.393 . S
C2252 H2241 0.950 . S
C2252 C2250 1.391 . S
C2252 C2253 1.400 . S
C2253 C2247 1.491 . S
C2253 C2252 1.400 . S
C2253 C2254 1.398 . S
C2254 H2242 0.950 . S
C2254 C2253 1.398 . S
C2254 C2255 1.391 . S
C2255 H2243 0.950 . S
C2255 C2251 1.393 . S
C2255 C2254 1.391 . S
H2256 C2264 0.950 . S
H2257 C2269 0.950 . S
H2258 C2266 0.950 . S
H2259 C2268 0.950 . S
H2260 C2270 0.950 . S
H2261 C2272 0.950 . S
H2262 C2274 0.950 . S
H2263 C2275 0.950 . S
C2264 H2256 0.950 . S
C2264 C2265 1.386 . S
C2264 C2266 1.391 . S
C2265 C2264 1.386 . S
C2265 C2269 1.393 . S
C2266 H2258 0.950 . S
C2266 C2264 1.391 . S
C2266 C2267 1.400 . S
C2267 C2266 1.400 . S
C2267 C2268 1.398 . S
C2267 C2273 1.491 . S
C2268 H2259 0.950 . S
C2268 C2267 1.398 . S
C2268 C2269 1.391 . S
C2269 H2257 0.950 . S
C2269 C2265 1.393 . S
C2269 C2268 1.391 . S
C2270 H2260 0.950 . S
C2270 C2271 1.386 . S
C2270 C2272 1.391 . S
C2271 C2270 1.386 . S
C2271 C2275 1.393 . S
C2272 H2261 0.950 . S
C2272 C2270 1.391 . S
C2272 C2273 1.400 . S
C2273 C2267 1.491 . S
C2273 C2272 1.400 . S
C2273 C2274 1.398 . S
C2274 H2262 0.950 . S
C2274 C2273 1.398 . S
C2274 C2275 1.391 . S
C2275 H2263 0.950 . S
C2275 C2271 1.393 . S
C2275 C2274 1.391 . S
H2276 C2284 0.950 . S
H2277 C2289 0.950 . S
H2278 C2286 0.950 . S
H2279 C2288 0.950 . S
H2280 C2290 0.950 . S
H2281 C2292 0.950 . S
H2282 C2294 0.950 . S
H2283 C2295 0.950 . S
C2284 H2276 0.950 . S
C2284 C2285 1.386 . S
C2284 C2286 1.391 . S
C2285 C2284 1.386 . S
C2285 C2289 1.393 . S
C2286 H2278 0.950 . S
C2286 C2284 1.391 . S
C2286 C2287 1.400 . S
C2287 C2286 1.400 . S
C2287 C2288 1.398 . S
C2287 C2293 1.491 . S
C2288 H2279 0.950 . S
C2288 C2287 1.398 . S
C2288 C2289 1.391 . S
C2289 H2277 0.950 . S
C2289 C2285 1.393 . S
C2289 C2288 1.391 . S
C2290 H2280 0.950 . S
C2290 C2291 1.386 . S
C2290 C2292 1.391 . S
C2291 C2290 1.386 . S
C2291 C2295 1.393 . S
C2292 H2281 0.950 . S
C2292 C2290 1.391 . S
C2292 C2293 1.400 . S
C2293 C2287 1.491 . S
C2293 C2292 1.400 . S
C2293 C2294 1.398 . S
C2294 H2282 0.950 . S
C2294 C2293 1.398 . S
C2294 C2295 1.391 . S
C2295 H2283 0.950 . S
C2295 C2291 1.393 . S
C2295 C2294 1.391 . S
H2296 C2304 0.950 . S
H2297 C2309 0.950 . S
H2298 C2306 0.950 . S
H2299 C2308 0.950 . S
H2300 C2310 0.950 . S
H2301 C2312 0.950 . S
H2302 C2314 0.950 . S
H2303 C2315 0.950 . S
C2304 H2296 0.950 . S
C2304 C2305 1.386 . S
C2304 C2306 1.391 . S
C2305 C2304 1.386 . S
C2305 C2309 1.393 . S
C2306 H2298 0.950 . S
C2306 C2304 1.391 . S
C2306 C2307 1.400 . S
C2307 C2306 1.400 . S
C2307 C2308 1.398 . S
C2307 C2313 1.491 . S
C2308 H2299 0.950 . S
C2308 C2307 1.398 . S
C2308 C2309 1.391 . S
C2309 H2297 0.950 . S
C2309 C2305 1.393 . S
C2309 C2308 1.391 . S
C2310 H2300 0.950 . S
C2310 C2311 1.386 . S
C2310 C2312 1.391 . S
C2311 C2310 1.386 . S
C2311 C2315 1.393 . S
C2312 H2301 0.950 . S
C2312 C2310 1.391 . S
C2312 C2313 1.400 . S
C2313 C2307 1.491 . S
C2313 C2312 1.400 . S
C2313 C2314 1.398 . S
C2314 H2302 0.950 . S
C2314 C2313 1.398 . S
C2314 C2315 1.391 . S
C2315 H2303 0.950 . S
C2315 C2311 1.393 . S
C2315 C2314 1.391 . S
H2316 C2324 0.950 . S
H2317 C2329 0.950 . S
H2318 C2326 0.950 . S
H2319 C2328 0.950 . S
H2320 C2330 0.973 . S
H2321 C2332 0.950 . S
H2322 C2334 0.950 . S
H2323 C2335 0.950 . S
C2324 H2316 0.950 . S
C2324 C2325 1.386 1_556 S
C2324 C2326 1.391 . S
C2325 C2324 1.386 1_554 S
C2325 C2329 1.393 . S
C2326 H2318 0.950 . S
C2326 C2324 1.391 . S
C2326 C2327 1.400 1_556 S
C2327 C2326 1.400 1_554 S
C2327 C2328 1.398 . S
C2327 C2333 1.491 . S
C2328 H2319 0.950 . S
C2328 C2327 1.398 . S
C2328 C2329 1.391 . S
C2329 H2317 0.950 . S
C2329 C2325 1.393 . S
C2329 C2328 1.391 . S
C2330 H2320 0.973 . S
C2330 C2331 1.354 1_565 S
C2330 C2332 1.402 . S
C2331 C2330 1.354 1_545 S
C2331 C2335 1.393 1_554 S
C2332 H2321 0.950 . S
C2332 C2330 1.402 . S
C2332 C2333 1.400 . S
C2333 C2327 1.491 . S
C2333 C2332 1.400 . S
C2333 C2334 1.398 1_564 S
C2334 H2322 0.950 . S
C2334 C2333 1.398 1_546 S
C2334 C2335 1.391 . S
C2335 H2323 0.950 . S
C2335 C2331 1.393 1_556 S
C2335 C2334 1.391 . S
H2336 C2344 0.950 . S
H2337 C2349 0.950 . S
H2338 C2346 0.950 . S
H2339 C2348 0.950 . S
H2340 C2350 0.950 . S
H2341 C2352 0.950 . S
H2342 C2354 0.950 . S
H2343 C2355 0.950 . S
C2344 H2336 0.950 . S
C2344 C2345 1.386 . S
C2344 C2346 1.391 . S
C2345 C2344 1.386 . S
C2345 C2349 1.393 . S
C2346 H2338 0.950 . S
C2346 C2344 1.391 . S
C2346 C2347 1.400 . S
C2347 C2346 1.400 . S
C2347 C2348 1.398 . S
C2347 C2353 1.491 . S
C2348 H2339 0.950 . S
C2348 C2347 1.398 . S
C2348 C2349 1.391 . S
C2349 H2337 0.950 . S
C2349 C2345 1.393 . S
C2349 C2348 1.391 . S
C2350 H2340 0.950 . S
C2350 C2351 1.386 . S
C2350 C2352 1.391 . S
C2351 C2350 1.386 . S
C2351 C2355 1.393 . S
C2352 H2341 0.950 . S
C2352 C2350 1.391 . S
C2352 C2353 1.400 . S
C2353 C2347 1.491 . S
C2353 C2352 1.400 . S
C2353 C2354 1.398 . S
C2354 H2342 0.950 . S
C2354 C2353 1.398 . S
C2354 C2355 1.391 . S
C2355 H2343 0.950 . S
C2355 C2351 1.393 . S
C2355 C2354 1.391 . S
H2356 C2364 0.950 . S
H2357 C2369 0.950 1_556 S
H2358 C2366 0.950 . S
H2359 C2368 0.950 . S
H2360 C2370 0.950 . S
H2361 C2372 0.950 . S
H2362 C2374 0.950 . S
H2363 C2375 0.950 . S
C2364 H2356 0.950 . S
C2364 C2365 1.386 . S
C2364 C2366 1.391 . S
C2365 C2364 1.386 . S
C2365 C2369 1.393 . S
C2366 H2358 0.950 . S
C2366 C2364 1.391 . S
C2366 C2367 1.400 . S
C2367 C2366 1.400 . S
C2367 C2368 1.398 . S
C2367 C2373 1.491 . S
C2368 H2359 0.950 . S
C2368 C2367 1.398 . S
C2368 C2369 1.391 . S
C2369 H2357 0.950 1_554 S
C2369 C2365 1.393 . S
C2369 C2368 1.391 . S
C2370 H2360 0.950 . S
C2370 C2371 1.386 . S
C2370 C2372 1.391 . S
C2371 C2370 1.386 . S
C2371 C2375 1.393 . S
C2372 H2361 0.950 . S
C2372 C2370 1.391 . S
C2372 C2373 1.400 . S
C2373 C2367 1.491 . S
C2373 C2372 1.400 . S
C2373 C2374 1.398 . S
C2374 H2362 0.950 . S
C2374 C2373 1.398 . S
C2374 C2375 1.391 . S
C2375 H2363 0.950 . S
C2375 C2371 1.393 . S
C2375 C2374 1.391 . S
H2376 C2384 0.950 . S
H2377 C2389 0.950 . S
H2378 C2386 0.950 . S
H2379 C2388 0.950 . S
H2380 C2390 0.950 . S
H2381 C2392 0.950 . S
H2382 C2394 0.950 . S
H2383 C2395 0.950 . S
C2384 H2376 0.950 . S
C2384 C2385 1.386 . S
C2384 C2386 1.391 . S
C2385 C2384 1.386 . S
C2385 C2389 1.393 . S
C2386 H2378 0.950 . S
C2386 C2384 1.391 . S
C2386 C2387 1.400 . S
C2387 C2386 1.400 . S
C2387 C2388 1.398 . S
C2387 C2393 1.491 . S
C2388 H2379 0.950 . S
C2388 C2387 1.398 . S
C2388 C2389 1.391 . S
C2389 H2377 0.950 . S
C2389 C2385 1.393 . S
C2389 C2388 1.391 . S
C2390 H2380 0.950 . S
C2390 C2391 1.386 . S
C2390 C2392 1.391 . S
C2391 C2390 1.386 . S
C2391 C2395 1.393 . S
C2392 H2381 0.950 . S
C2392 C2390 1.391 . S
C2392 C2393 1.400 . S
C2393 C2387 1.491 . S
C2393 C2392 1.400 . S
C2393 C2394 1.398 . S
C2394 H2382 0.950 . S
C2394 C2393 1.398 . S
C2394 C2395 1.391 . S
C2395 H2383 0.950 . S
C2395 C2391 1.393 . S
C2395 C2394 1.391 . S
H2396 C2404 0.950 . S
H2397 C2409 0.950 . S
H2398 C2406 0.950 . S
H2399 C2408 0.950 . S
H2400 C2410 0.950 . S
H2401 C2412 0.950 . S
H2402 C2414 0.950 . S
H2403 C2415 0.950 . S
C2404 H2396 0.950 . S
C2404 C2405 1.386 . S
C2404 C2406 1.391 . S
C2405 C2404 1.386 . S
C2405 C2409 1.393 . S
C2406 H2398 0.950 . S
C2406 C2404 1.391 . S
C2406 C2407 1.400 . S
C2407 C2406 1.400 . S
C2407 C2408 1.398 . S
C2407 C2413 1.491 . S
C2408 H2399 0.950 . S
C2408 C2407 1.398 . S
C2408 C2409 1.391 . S
C2409 H2397 0.950 . S
C2409 C2405 1.393 . S
C2409 C2408 1.391 . S
C2410 H2400 0.950 . S
C2410 C2411 1.386 . S
C2410 C2412 1.391 . S
C2411 C2410 1.386 . S
C2411 C2415 1.393 . S
C2412 H2401 0.950 . S
C2412 C2410 1.391 . S
C2412 C2413 1.400 . S
C2413 C2407 1.491 . S
C2413 C2412 1.400 . S
C2413 C2414 1.398 . S
C2414 H2402 0.950 . S
C2414 C2413 1.398 . S
C2414 C2415 1.391 . S
C2415 H2403 0.950 . S
C2415 C2411 1.393 . S
C2415 C2414 1.391 . S
H2416 C2424 0.950 . S
H2417 C2429 0.950 . S
H2418 C2426 0.950 . S
H2419 C2428 0.950 . S
H2420 C2430 0.950 . S
H2421 C2432 0.950 . S
H2422 C2434 0.950 . S
H2423 C2435 0.950 . S
C2424 H2416 0.950 . S
C2424 C2425 1.386 . S
C2424 C2426 1.391 . S
C2425 C2424 1.386 . S
C2425 C2429 1.393 . S
C2426 H2418 0.950 . S
C2426 C2424 1.391 . S
C2426 C2427 1.400 . S
C2427 C2426 1.400 . S
C2427 C2428 1.398 . S
C2427 C2433 1.491 . S
C2428 H2419 0.950 . S
C2428 C2427 1.398 . S
C2428 C2429 1.391 . S
C2429 H2417 0.950 . S
C2429 C2425 1.393 . S
C2429 C2428 1.391 . S
C2430 H2420 0.950 . S
C2430 C2431 1.386 . S
C2430 C2432 1.391 . S
C2431 C2430 1.386 . S
C2431 C2435 1.393 . S
C2432 H2421 0.950 . S
C2432 C2430 1.391 . S
C2432 C2433 1.400 . S
C2433 C2427 1.491 . S
C2433 C2432 1.400 . S
C2433 C2434 1.398 . S
C2434 H2422 0.950 . S
C2434 C2433 1.398 . S
C2434 C2435 1.391 . S
C2435 H2423 0.950 . S
C2435 C2431 1.393 . S
C2435 C2434 1.391 . S
H2436 C2444 0.950 . S
H2437 C2449 0.950 . S
H2438 C2446 0.950 . S
H2439 C2448 0.950 . S
H2440 C2450 0.950 . S
H2441 C2452 0.950 . S
H2442 C2454 0.950 . S
H2443 C2455 0.950 . S
C2444 H2436 0.950 . S
C2444 C2445 1.386 . S
C2444 C2446 1.391 . S
C2445 C2444 1.386 . S
C2445 C2449 1.393 . S
C2446 H2438 0.950 . S
C2446 C2444 1.391 . S
C2446 C2447 1.400 . S
C2447 C2446 1.400 . S
C2447 C2448 1.398 . S
C2447 C2453 1.491 . S
C2448 H2439 0.950 . S
C2448 C2447 1.398 . S
C2448 C2449 1.391 . S
C2449 H2437 0.950 . S
C2449 C2445 1.393 . S
C2449 C2448 1.391 . S
C2450 H2440 0.950 . S
C2450 C2451 1.386 . S
C2450 C2452 1.391 . S
C2451 C2450 1.386 . S
C2451 C2455 1.393 . S
C2452 H2441 0.950 . S
C2452 C2450 1.391 . S
C2452 C2453 1.400 . S
C2453 C2447 1.491 . S
C2453 C2452 1.400 . S
C2453 C2454 1.398 . S
C2454 H2442 0.950 . S
C2454 C2453 1.398 . S
C2454 C2455 1.391 . S
C2455 H2443 0.950 . S
C2455 C2451 1.393 . S
C2455 C2454 1.391 . S
H2456 C2464 0.950 . S
H2457 C2469 0.950 . S
H2458 C2466 0.950 . S
H2459 C2468 0.950 . S
H2460 C2470 0.950 . S
H2461 C2472 0.950 . S
H2462 C2474 0.950 . S
H2463 C2475 0.950 . S
C2464 H2456 0.950 . S
C2464 C2465 1.386 . S
C2464 C2466 1.391 . S
C2465 C2464 1.386 . S
C2465 C2469 1.393 . S
C2466 H2458 0.950 . S
C2466 C2464 1.391 . S
C2466 C2467 1.400 . S
C2467 C2466 1.400 . S
C2467 C2468 1.398 . S
C2467 C2473 1.491 . S
C2468 H2459 0.950 . S
C2468 C2467 1.398 . S
C2468 C2469 1.391 . S
C2469 H2457 0.950 . S
C2469 C2465 1.393 . S
C2469 C2468 1.391 . S
C2470 H2460 0.950 . S
C2470 C2471 1.386 . S
C2470 C2472 1.391 . S
C2471 C2470 1.386 . S
C2471 C2475 1.393 . S
C2472 H2461 0.950 . S
C2472 C2470 1.391 . S
C2472 C2473 1.400 . S
C2473 C2467 1.491 . S
C2473 C2472 1.400 . S
C2473 C2474 1.398 . S
C2474 H2462 0.950 . S
C2474 C2473 1.398 . S
C2474 C2475 1.391 . S
C2475 H2463 0.950 . S
C2475 C2471 1.393 . S
C2475 C2474 1.391 . S
H2476 C2484 0.950 . S
H2477 C2489 0.950 . S
H2478 C2486 0.950 . S
H2479 C2488 0.950 . S
H2480 C2490 0.950 . S
H2481 C2492 0.950 . S
H2482 C2494 0.950 . S
H2483 C2495 0.950 . S
C2484 H2476 0.950 . S
C2484 C2485 1.386 . S
C2484 C2486 1.391 . S
C2485 C2484 1.386 . S
C2485 C2489 1.393 . S
C2486 H2478 0.950 . S
C2486 C2484 1.391 . S
C2486 C2487 1.400 . S
C2487 C2486 1.400 . S
C2487 C2488 1.398 . S
C2487 C2493 1.491 . S
C2488 H2479 0.950 . S
C2488 C2487 1.398 . S
C2488 C2489 1.391 . S
C2489 H2477 0.950 . S
C2489 C2485 1.393 . S
C2489 C2488 1.391 . S
C2490 H2480 0.950 . S
C2490 C2491 1.386 . S
C2490 C2492 1.391 . S
C2491 C2490 1.386 . S
C2491 C2495 1.393 . S
C2492 H2481 0.950 . S
C2492 C2490 1.391 . S
C2492 C2493 1.400 . S
C2493 C2487 1.491 . S
C2493 C2492 1.400 . S
C2493 C2494 1.398 . S
C2494 H2482 0.950 . S
C2494 C2493 1.398 . S
C2494 C2495 1.391 . S
C2495 H2483 0.950 . S
C2495 C2491 1.393 . S
C2495 C2494 1.391 . S
H2496 C2504 0.950 . S
H2497 C2509 0.950 . S
H2498 C2506 0.950 . S
H2499 C2508 0.950 . S
H2500 C2510 0.950 . S
H2501 C2512 0.950 . S
H2502 C2514 0.950 . S
H2503 C2515 0.950 . S
C2504 H2496 0.950 . S
C2504 C2505 1.386 . S
C2504 C2506 1.391 . S
C2505 C2504 1.386 . S
C2505 C2509 1.393 . S
C2506 H2498 0.950 . S
C2506 C2504 1.391 . S
C2506 C2507 1.400 . S
C2507 C2506 1.400 . S
C2507 C2508 1.398 . S
C2507 C2513 1.491 . S
C2508 H2499 0.950 . S
C2508 C2507 1.398 . S
C2508 C2509 1.391 . S
C2509 H2497 0.950 . S
C2509 C2505 1.393 . S
C2509 C2508 1.391 . S
C2510 H2500 0.950 . S
C2510 C2511 1.386 . S
C2510 C2512 1.391 . S
C2511 C2510 1.386 . S
C2511 C2515 1.393 . S
C2512 H2501 0.950 . S
C2512 C2510 1.391 . S
C2512 C2513 1.400 . S
C2513 C2507 1.491 . S
C2513 C2512 1.400 . S
C2513 C2514 1.398 . S
C2514 H2502 0.950 . S
C2514 C2513 1.398 . S
C2514 C2515 1.391 . S
C2515 H2503 0.950 . S
C2515 C2511 1.393 . S
C2515 C2514 1.391 . S
H2516 C2524 0.950 . S
H2517 C2529 0.950 . S
H2518 C2526 0.950 . S
H2519 C2528 0.950 . S
H2520 C2530 0.950 . S
H2521 C2532 0.950 . S
H2522 C2534 0.950 . S
H2523 C2535 0.950 . S
C2524 H2516 0.950 . S
C2524 C2525 1.386 . S
C2524 C2526 1.391 . S
C2525 C2524 1.386 . S
C2525 C2529 1.393 . S
C2526 H2518 0.950 . S
C2526 C2524 1.391 . S
C2526 C2527 1.400 . S
C2527 C2526 1.400 . S
C2527 C2528 1.398 . S
C2527 C2533 1.491 . S
C2528 H2519 0.950 . S
C2528 C2527 1.398 . S
C2528 C2529 1.391 . S
C2529 H2517 0.950 . S
C2529 C2525 1.393 . S
C2529 C2528 1.391 . S
C2530 H2520 0.950 . S
C2530 C2531 1.386 . S
C2530 C2532 1.391 . S
C2531 C2530 1.386 . S
C2531 C2535 1.393 . S
C2532 H2521 0.950 . S
C2532 C2530 1.391 . S
C2532 C2533 1.400 . S
C2533 C2527 1.491 . S
C2533 C2532 1.400 . S
C2533 C2534 1.398 . S
C2534 H2522 0.950 . S
C2534 C2533 1.398 . S
C2534 C2535 1.391 . S
C2535 H2523 0.950 . S
C2535 C2531 1.393 . S
C2535 C2534 1.391 . S
H2536 C2544 0.950 . S
H2537 C2549 0.950 . S
H2538 C2546 0.950 . S
H2539 C2548 0.950 . S
H2540 C2550 0.950 . S
H2541 C2552 0.950 . S
H2542 C2554 0.950 . S
H2543 C2555 0.950 . S
C2544 H2536 0.950 . S
C2544 C2545 1.386 . S
C2544 C2546 1.391 . S
C2545 C2544 1.386 . S
C2545 C2549 1.393 . S
C2546 H2538 0.950 . S
C2546 C2544 1.391 . S
C2546 C2547 1.400 . S
C2547 C2546 1.400 . S
C2547 C2548 1.398 . S
C2547 C2553 1.491 . S
C2548 H2539 0.950 . S
C2548 C2547 1.398 . S
C2548 C2549 1.391 . S
C2549 H2537 0.950 . S
C2549 C2545 1.393 . S
C2549 C2548 1.391 . S
C2550 H2540 0.950 . S
C2550 C2551 1.386 . S
C2550 C2552 1.391 . S
C2551 C2550 1.386 . S
C2551 C2555 1.393 . S
C2552 H2541 0.950 . S
C2552 C2550 1.391 . S
C2552 C2553 1.400 . S
C2553 C2547 1.491 . S
C2553 C2552 1.400 . S
C2553 C2554 1.398 . S
C2554 H2542 0.950 . S
C2554 C2553 1.398 . S
C2554 C2555 1.391 . S
C2555 H2543 0.950 . S
C2555 C2551 1.393 . S
C2555 C2554 1.391 . S
H2556 C2564 0.950 . S
H2557 C2569 0.950 . S
H2558 C2566 0.950 . S
H2559 C2568 0.950 . S
H2560 C2570 0.950 . S
H2561 C2572 0.950 . S
H2562 C2574 0.950 . S
H2563 C2575 0.950 . S
C2564 H2556 0.950 . S
C2564 C2565 1.386 . S
C2564 C2566 1.391 . S
C2565 C2564 1.386 . S
C2565 C2569 1.393 . S
C2566 H2558 0.950 . S
C2566 C2564 1.391 . S
C2566 C2567 1.400 . S
C2567 C2566 1.400 . S
C2567 C2568 1.398 . S
C2567 C2573 1.491 . S
C2568 H2559 0.950 . S
C2568 C2567 1.398 . S
C2568 C2569 1.391 . S
C2569 H2557 0.950 . S
C2569 C2565 1.393 . S
C2569 C2568 1.391 . S
C2570 H2560 0.950 . S
C2570 C2571 1.386 . S
C2570 C2572 1.391 . S
C2571 C2570 1.386 . S
C2571 C2575 1.393 . S
C2572 H2561 0.950 . S
C2572 C2570 1.391 . S
C2572 C2573 1.400 . S
C2573 C2567 1.491 . S
C2573 C2572 1.400 . S
C2573 C2574 1.398 . S
C2574 H2562 0.950 . S
C2574 C2573 1.398 . S
C2574 C2575 1.391 . S
C2575 H2563 0.950 . S
C2575 C2571 1.393 . S
C2575 C2574 1.391 . S
H2576 C2584 0.950 . S
H2577 C2589 0.950 . S
H2578 C2586 0.950 . S
H2579 C2588 0.950 . S
H2580 C2590 0.950 . S
H2581 C2592 0.950 . S
H2582 C2594 0.950 . S
H2583 C2595 0.950 . S
C2584 H2576 0.950 . S
C2584 C2585 1.386 . S
C2584 C2586 1.391 . S
C2585 C2584 1.386 . S
C2585 C2589 1.393 . S
C2586 H2578 0.950 . S
C2586 C2584 1.391 . S
C2586 C2587 1.400 . S
C2587 C2586 1.400 . S
C2587 C2588 1.398 . S
C2587 C2593 1.491 . S
C2588 H2579 0.950 . S
C2588 C2587 1.398 . S
C2588 C2589 1.391 . S
C2589 H2577 0.950 . S
C2589 C2585 1.393 . S
C2589 C2588 1.391 . S
C2590 H2580 0.950 . S
C2590 C2591 1.386 . S
C2590 C2592 1.391 . S
C2591 C2590 1.386 . S
C2591 C2595 1.393 . S
C2592 H2581 0.950 . S
C2592 C2590 1.391 . S
C2592 C2593 1.400 . S
C2593 C2587 1.491 . S
C2593 C2592 1.400 . S
C2593 C2594 1.398 . S
C2594 H2582 0.950 . S
C2594 C2593 1.398 . S
C2594 C2595 1.391 . S
C2595 H2583 0.950 . S
C2595 C2591 1.393 . S
C2595 C2594 1.391 . S
H2596 C2604 0.950 . S
H2597 C2609 0.950 . S
H2598 C2606 0.950 . S
H2599 C2608 0.950 . S
H2600 C2610 0.950 . S
H2601 C2612 0.950 . S
H2602 C2614 0.950 . S
H2603 C2615 0.950 . S
C2604 H2596 0.950 . S
C2604 C2605 1.386 . S
C2604 C2606 1.391 . S
C2605 C2604 1.386 . S
C2605 C2609 1.393 . S
C2606 H2598 0.950 . S
C2606 C2604 1.391 . S
C2606 C2607 1.400 . S
C2607 C2606 1.400 . S
C2607 C2608 1.398 . S
C2607 C2613 1.491 . S
C2608 H2599 0.950 . S
C2608 C2607 1.398 . S
C2608 C2609 1.391 . S
C2609 H2597 0.950 . S
C2609 C2605 1.393 . S
C2609 C2608 1.391 . S
C2610 H2600 0.950 . S
C2610 C2611 1.386 . S
C2610 C2612 1.391 . S
C2611 C2610 1.386 . S
C2611 C2615 1.393 . S
C2612 H2601 0.950 . S
C2612 C2610 1.391 . S
C2612 C2613 1.400 . S
C2613 C2607 1.491 . S
C2613 C2612 1.400 . S
C2613 C2614 1.398 . S
C2614 H2602 0.950 . S
C2614 C2613 1.398 . S
C2614 C2615 1.391 . S
C2615 H2603 0.950 . S
C2615 C2611 1.393 . S
C2615 C2614 1.391 . S
H2616 C2624 0.950 . S
H2617 C2629 0.950 . S
H2618 C2626 0.950 . S
H2619 C2628 0.950 1_455 S
H2620 C2630 0.950 . S
H2621 C2632 0.950 . S
H2622 C2634 0.950 . S
H2623 C2635 0.950 1_655 S
C2624 H2616 0.950 . S
C2624 C2625 1.386 . S
C2624 C2626 1.391 . S
C2625 C2624 1.386 . S
C2625 C2629 1.393 . S
C2626 H2618 0.950 . S
C2626 C2624 1.391 . S
C2626 C2627 1.400 . S
C2627 C2626 1.400 . S
C2627 C2628 1.398 . S
C2627 C2633 1.477 1_655 S
C2628 H2619 0.950 1_655 S
C2628 C2627 1.398 . S
C2628 C2629 1.391 . S
C2629 H2617 0.950 . S
C2629 C2625 1.393 . S
C2629 C2628 1.391 . S
C2630 H2620 0.950 . S
C2630 C2631 1.386 . S
C2630 C2632 1.391 . S
C2631 C2630 1.386 . S
C2631 C2635 1.393 . S
C2632 H2621 0.950 . S
C2632 C2630 1.391 . S
C2632 C2633 1.434 . S
C2633 C2627 1.477 1_455 S
C2633 C2632 1.434 . S
C2633 C2634 1.379 1_455 S
C2634 H2622 0.950 . S
C2634 C2633 1.379 1_655 S
C2634 C2635 1.391 1_655 S
C2635 H2623 0.950 1_455 S
C2635 C2631 1.393 . S
C2635 C2634 1.391 1_455 S
H2636 C2644 0.950 . S
H2637 C2649 0.950 . S
H2638 C2646 0.950 . S
H2639 C2648 0.950 . S
H2640 C2650 0.950 . S
H2641 C2652 0.950 . S
H2642 C2654 0.950 . S
H2643 C2655 0.950 . S
C2644 H2636 0.950 . S
C2644 C2645 1.386 . S
C2644 C2646 1.391 . S
C2645 C2644 1.386 . S
C2645 C2649 1.393 . S
C2646 H2638 0.950 . S
C2646 C2644 1.391 . S
C2646 C2647 1.400 . S
C2647 C2646 1.400 . S
C2647 C2648 1.398 . S
C2647 C2653 1.491 . S
C2648 H2639 0.950 . S
C2648 C2647 1.398 . S
C2648 C2649 1.391 . S
C2649 H2637 0.950 . S
C2649 C2645 1.393 . S
C2649 C2648 1.391 . S
C2650 H2640 0.950 . S
C2650 C2651 1.386 . S
C2650 C2652 1.391 . S
C2651 C2650 1.386 . S
C2651 C2655 1.393 . S
C2652 H2641 0.950 . S
C2652 C2650 1.391 . S
C2652 C2653 1.400 . S
C2653 C2647 1.491 . S
C2653 C2652 1.400 . S
C2653 C2654 1.398 . S
C2654 H2642 0.950 . S
C2654 C2653 1.398 . S
C2654 C2655 1.391 . S
C2655 H2643 0.950 . S
C2655 C2651 1.393 . S
C2655 C2654 1.391 . S
H2656 C2664 0.950 . S
H2657 C2669 0.950 . S
H2658 C2666 0.950 . S
H2659 C2668 0.950 . S
H2660 C2670 0.950 . S
H2661 C2672 0.950 . S
H2662 C2674 0.950 . S
H2663 C2675 0.950 . S
C2664 H2656 0.950 . S
C2664 C2665 1.386 . S
C2664 C2666 1.391 . S
C2665 C2664 1.386 . S
C2665 C2669 1.393 . S
C2666 H2658 0.950 . S
C2666 C2664 1.391 . S
C2666 C2667 1.400 . S
C2667 C2666 1.400 . S
C2667 C2668 1.398 . S
C2667 C2673 1.491 . S
C2668 H2659 0.950 . S
C2668 C2667 1.398 . S
C2668 C2669 1.391 . S
C2669 H2657 0.950 . S
C2669 C2665 1.393 . S
C2669 C2668 1.391 . S
C2670 H2660 0.950 . S
C2670 C2671 1.386 . S
C2670 C2672 1.391 . S
C2671 C2670 1.386 . S
C2671 C2675 1.393 . S
C2672 H2661 0.950 . S
C2672 C2670 1.391 . S
C2672 C2673 1.400 . S
C2673 C2667 1.491 . S
C2673 C2672 1.400 . S
C2673 C2674 1.398 . S
C2674 H2662 0.950 . S
C2674 C2673 1.398 . S
C2674 C2675 1.391 . S
C2675 H2663 0.950 . S
C2675 C2671 1.393 . S
C2675 C2674 1.391 . S
H2676 C2684 0.950 . S
H2677 C2689 0.950 . S
H2678 C2686 0.950 . S
H2679 C2688 0.950 . S
H2680 C2690 0.950 . S
H2681 C2692 0.950 . S
H2682 C2694 0.950 . S
H2683 C2695 0.950 . S
C2684 H2676 0.950 . S
C2684 C2685 1.386 . S
C2684 C2686 1.391 . S
C2685 C2684 1.386 . S
C2685 C2689 1.393 . S
C2686 H2678 0.950 . S
C2686 C2684 1.391 . S
C2686 C2687 1.400 . S
C2687 C2686 1.400 . S
C2687 C2688 1.398 . S
C2687 C2693 1.491 . S
C2688 H2679 0.950 . S
C2688 C2687 1.398 . S
C2688 C2689 1.391 . S
C2689 H2677 0.950 . S
C2689 C2685 1.393 . S
C2689 C2688 1.391 . S
C2690 H2680 0.950 . S
C2690 C2691 1.386 . S
C2690 C2692 1.391 . S
C2691 C2690 1.386 . S
C2691 C2695 1.393 . S
C2692 H2681 0.950 . S
C2692 C2690 1.391 . S
C2692 C2693 1.400 . S
C2693 C2687 1.491 . S
C2693 C2692 1.400 . S
C2693 C2694 1.398 . S
C2694 H2682 0.950 . S
C2694 C2693 1.398 . S
C2694 C2695 1.391 . S
C2695 H2683 0.950 . S
C2695 C2691 1.393 . S
C2695 C2694 1.391 . S
H2696 C2704 0.950 . S
H2697 C2709 0.950 . S
H2698 C2706 0.950 . S
H2699 C2708 0.950 . S
H2700 C2710 0.950 . S
H2701 C2712 0.950 . S
H2702 C2714 0.950 1_455 S
H2703 C2715 0.946 . S
C2704 H2696 0.950 . S
C2704 C2705 1.386 . S
C2704 C2706 1.391 . S
C2705 C2704 1.386 . S
C2705 C2709 1.393 . S
C2706 H2698 0.950 . S
C2706 C2704 1.391 . S
C2706 C2707 1.400 . S
C2707 C2706 1.400 . S
C2707 C2708 1.398 . S
C2707 C2713 1.491 . S
C2708 H2699 0.950 . S
C2708 C2707 1.398 . S
C2708 C2709 1.391 . S
C2709 H2697 0.950 . S
C2709 C2705 1.393 . S
C2709 C2708 1.391 . S
C2710 H2700 0.950 . S
C2710 C2711 1.386 . S
C2710 C2712 1.391 . S
C2711 C2710 1.386 . S
C2711 C2715 1.395 1_655 S
C2712 H2701 0.950 . S
C2712 C2710 1.391 . S
C2712 C2713 1.400 . S
C2713 C2707 1.491 . S
C2713 C2712 1.400 . S
C2713 C2714 1.398 . S
C2714 H2702 0.950 1_655 S
C2714 C2713 1.398 . S
C2714 C2715 1.392 1_655 S
C2715 H2703 0.946 . S
C2715 C2711 1.395 1_455 S
C2715 C2714 1.392 1_455 S
H2716 C2724 0.950 . S
H2717 C2729 0.950 . S
H2718 C2726 0.950 . S
H2719 C2728 0.950 . S
H2720 C2730 0.950 . S
H2721 C2732 0.950 . S
H2722 C2734 0.950 . S
H2723 C2735 0.950 . S
C2724 H2716 0.950 . S
C2724 C2725 1.386 . S
C2724 C2726 1.391 . S
C2725 C2724 1.386 . S
C2725 C2729 1.393 . S
C2726 H2718 0.950 . S
C2726 C2724 1.391 . S
C2726 C2727 1.400 . S
C2727 C2726 1.400 . S
C2727 C2728 1.398 . S
C2727 C2733 1.491 . S
C2728 H2719 0.950 . S
C2728 C2727 1.398 . S
C2728 C2729 1.391 . S
C2729 H2717 0.950 . S
C2729 C2725 1.393 . S
C2729 C2728 1.391 . S
C2730 H2720 0.950 . S
C2730 C2731 1.386 . S
C2730 C2732 1.391 . S
C2731 C2730 1.386 . S
C2731 C2735 1.393 . S
C2732 H2721 0.950 . S
C2732 C2730 1.391 . S
C2732 C2733 1.400 . S
C2733 C2727 1.491 . S
C2733 C2732 1.400 . S
C2733 C2734 1.398 . S
C2734 H2722 0.950 . S
C2734 C2733 1.398 . S
C2734 C2735 1.391 . S
C2735 H2723 0.950 . S
C2735 C2731 1.393 . S
C2735 C2734 1.391 . S
H2736 C2744 0.950 . S
H2737 C2749 0.950 . S
H2738 C2746 0.950 . S
H2739 C2748 0.950 . S
H2740 C2750 0.950 . S
H2741 C2752 0.950 . S
H2742 C2754 0.950 . S
H2743 C2755 0.950 . S
C2744 H2736 0.950 . S
C2744 C2745 1.386 . S
C2744 C2746 1.391 . S
C2745 C2744 1.386 . S
C2745 C2749 1.393 . S
C2746 H2738 0.950 . S
C2746 C2744 1.391 . S
C2746 C2747 1.400 . S
C2747 C2746 1.400 . S
C2747 C2748 1.398 . S
C2747 C2753 1.491 . S
C2748 H2739 0.950 . S
C2748 C2747 1.398 . S
C2748 C2749 1.391 . S
C2749 H2737 0.950 . S
C2749 C2745 1.393 . S
C2749 C2748 1.391 . S
C2750 H2740 0.950 . S
C2750 C2751 1.386 . S
C2750 C2752 1.391 . S
C2751 C2750 1.386 . S
C2751 C2755 1.393 . S
C2752 H2741 0.950 . S
C2752 C2750 1.391 . S
C2752 C2753 1.400 . S
C2753 C2747 1.491 . S
C2753 C2752 1.400 . S
C2753 C2754 1.398 . S
C2754 H2742 0.950 . S
C2754 C2753 1.398 . S
C2754 C2755 1.391 . S
C2755 H2743 0.950 . S
C2755 C2751 1.393 . S
C2755 C2754 1.391 . S
H2756 C2764 0.950 . S
H2757 C2769 0.950 . S
H2758 C2766 0.950 . S
H2759 C2768 0.950 . S
H2760 C2770 0.950 . S
H2761 C2772 0.950 . S
H2762 C2774 0.950 . S
H2763 C2775 0.950 . S
C2764 H2756 0.950 . S
C2764 C2765 1.386 . S
C2764 C2766 1.391 . S
C2765 C2764 1.386 . S
C2765 C2769 1.393 . S
C2766 H2758 0.950 . S
C2766 C2764 1.391 . S
C2766 C2767 1.400 . S
C2767 C2766 1.400 . S
C2767 C2768 1.398 . S
C2767 C2773 1.491 . S
C2768 H2759 0.950 . S
C2768 C2767 1.398 . S
C2768 C2769 1.391 . S
C2769 H2757 0.950 . S
C2769 C2765 1.393 . S
C2769 C2768 1.391 . S
C2770 H2760 0.950 . S
C2770 C2771 1.386 1_545 S
C2770 C2772 1.391 1_545 S
C2771 C2770 1.386 1_565 S
C2771 C2775 1.393 . S
C2772 H2761 0.950 . S
C2772 C2770 1.391 1_565 S
C2772 C2773 1.400 . S
C2773 C2767 1.491 . S
C2773 C2772 1.400 . S
C2773 C2774 1.398 . S
C2774 H2762 0.950 . S
C2774 C2773 1.398 . S
C2774 C2775 1.391 . S
C2775 H2763 0.950 . S
C2775 C2771 1.393 . S
C2775 C2774 1.391 . S
H2776 C2784 0.950 . S
H2777 C2789 0.950 . S
H2778 C2786 0.950 . S
H2779 C2788 0.950 . S
H2780 C2790 0.950 . S
H2781 C2792 0.950 . S
H2782 C2794 0.950 . S
H2783 C2795 0.950 . S
C2784 H2776 0.950 . S
C2784 C2785 1.386 . S
C2784 C2786 1.391 . S
C2785 C2784 1.386 . S
C2785 C2789 1.393 . S
C2786 H2778 0.950 . S
C2786 C2784 1.391 . S
C2786 C2787 1.400 . S
C2787 C2786 1.400 . S
C2787 C2788 1.398 . S
C2787 C2793 1.491 . S
C2788 H2779 0.950 . S
C2788 C2787 1.398 . S
C2788 C2789 1.391 . S
C2789 H2777 0.950 . S
C2789 C2785 1.393 . S
C2789 C2788 1.391 . S
C2790 H2780 0.950 . S
C2790 C2791 1.386 . S
C2790 C2792 1.391 . S
C2791 C2790 1.386 . S
C2791 C2795 1.393 . S
C2792 H2781 0.950 . S
C2792 C2790 1.391 . S
C2792 C2793 1.400 . S
C2793 C2787 1.491 . S
C2793 C2792 1.400 . S
C2793 C2794 1.398 . S
C2794 H2782 0.950 . S
C2794 C2793 1.398 . S
C2794 C2795 1.391 . S
C2795 H2783 0.950 . S
C2795 C2791 1.393 . S
C2795 C2794 1.391 . S
H2796 C2804 0.950 . S
H2797 C2809 0.950 . S
H2798 C2806 0.950 . S
H2799 C2808 0.950 . S
H2800 C2810 0.950 . S
H2801 C2812 0.950 . S
H2802 C2814 0.950 . S
H2803 C2815 0.950 . S
C2804 H2796 0.950 . S
C2804 C2805 1.386 1_556 S
C2804 C2806 1.391 . S
C2805 C2804 1.386 1_554 S
C2805 C2809 1.393 . S
C2806 H2798 0.950 . S
C2806 C2804 1.391 . S
C2806 C2807 1.400 1_556 S
C2807 C2806 1.400 1_554 S
C2807 C2808 1.398 . S
C2807 C2813 1.491 . S
C2808 H2799 0.950 . S
C2808 C2807 1.398 . S
C2808 C2809 1.391 . S
C2809 H2797 0.950 . S
C2809 C2805 1.393 . S
C2809 C2808 1.391 . S
C2810 H2800 0.950 . S
C2810 C2811 1.386 . S
C2810 C2812 1.391 . S
C2811 C2810 1.386 . S
C2811 C2815 1.393 1_554 S
C2812 H2801 0.950 . S
C2812 C2810 1.391 . S
C2812 C2813 1.400 . S
C2813 C2807 1.491 . S
C2813 C2812 1.400 . S
C2813 C2814 1.398 1_554 S
C2814 H2802 0.950 . S
C2814 C2813 1.398 1_556 S
C2814 C2815 1.391 . S
C2815 H2803 0.950 . S
C2815 C2811 1.393 1_556 S
C2815 C2814 1.391 . S
H2816 C2824 0.950 . S
H2817 C2829 0.950 . S
H2818 C2826 0.950 . S
H2819 C2828 0.950 . S
H2820 C2830 0.950 . S
H2821 C2832 0.950 . S
H2822 C2834 0.950 . S
H2823 C2835 0.950 . S
C2824 H2816 0.950 . S
C2824 C2825 1.386 . S
C2824 C2826 1.391 . S
C2825 C2824 1.386 . S
C2825 C2829 1.393 . S
C2826 H2818 0.950 . S
C2826 C2824 1.391 . S
C2826 C2827 1.400 . S
C2827 C2826 1.400 . S
C2827 C2828 1.398 . S
C2827 C2833 1.491 . S
C2828 H2819 0.950 . S
C2828 C2827 1.398 . S
C2828 C2829 1.391 . S
C2829 H2817 0.950 . S
C2829 C2825 1.393 . S
C2829 C2828 1.391 . S
C2830 H2820 0.950 . S
C2830 C2831 1.386 . S
C2830 C2832 1.391 . S
C2831 C2830 1.386 . S
C2831 C2835 1.393 . S
C2832 H2821 0.950 . S
C2832 C2830 1.391 . S
C2832 C2833 1.400 . S
C2833 C2827 1.491 . S
C2833 C2832 1.400 . S
C2833 C2834 1.398 . S
C2834 H2822 0.950 . S
C2834 C2833 1.398 . S
C2834 C2835 1.391 . S
C2835 H2823 0.950 . S
C2835 C2831 1.393 . S
C2835 C2834 1.391 . S
H2836 C2844 0.950 . S
H2837 C2849 0.950 . S
H2838 C2846 0.950 . S
H2839 C2848 0.950 . S
H2840 C2850 0.950 . S
H2841 C2852 0.950 . S
H2842 C2854 0.950 . S
H2843 C2855 0.950 . S
C2844 H2836 0.950 . S
C2844 C2845 1.386 . S
C2844 C2846 1.391 . S
C2845 C2844 1.386 . S
C2845 C2849 1.393 1_554 S
C2846 H2838 0.950 . S
C2846 C2844 1.391 . S
C2846 C2847 1.400 . S
C2847 C2846 1.400 . S
C2847 C2848 1.398 1_554 S
C2847 C2853 1.491 1_554 S
C2848 H2839 0.950 . S
C2848 C2847 1.398 1_556 S
C2848 C2849 1.391 . S
C2849 H2837 0.950 . S
C2849 C2845 1.393 1_556 S
C2849 C2848 1.391 . S
C2850 H2840 0.950 . S
C2850 C2851 1.386 . S
C2850 C2852 1.391 . S
C2851 C2850 1.386 . S
C2851 C2855 1.393 1_556 S
C2852 H2841 0.950 . S
C2852 C2850 1.391 . S
C2852 C2853 1.400 . S
C2853 C2847 1.491 1_556 S
C2853 C2852 1.400 . S
C2853 C2854 1.398 1_556 S
C2854 H2842 0.950 . S
C2854 C2853 1.398 1_554 S
C2854 C2855 1.391 . S
C2855 H2843 0.950 . S
C2855 C2851 1.393 1_554 S
C2855 C2854 1.391 . S
H2856 C2864 0.950 . S
H2857 C2869 0.950 . S
H2858 C2866 0.950 . S
H2859 C2868 0.950 . S
H2860 C2870 0.950 . S
H2861 C2872 0.950 . S
H2862 C2874 0.950 . S
H2863 C2875 0.950 . S
C2864 H2856 0.950 . S
C2864 C2865 1.386 . S
C2864 C2866 1.391 . S
C2865 C2864 1.386 . S
C2865 C2869 1.393 . S
C2866 H2858 0.950 . S
C2866 C2864 1.391 . S
C2866 C2867 1.400 . S
C2867 C2866 1.400 . S
C2867 C2868 1.398 . S
C2867 C2873 1.491 . S
C2868 H2859 0.950 . S
C2868 C2867 1.398 . S
C2868 C2869 1.391 . S
C2869 H2857 0.950 . S
C2869 C2865 1.393 . S
C2869 C2868 1.391 . S
C2870 H2860 0.950 . S
C2870 C2871 1.386 . S
C2870 C2872 1.391 . S
C2871 C2870 1.386 . S
C2871 C2875 1.393 . S
C2872 H2861 0.950 . S
C2872 C2870 1.391 . S
C2872 C2873 1.400 . S
C2873 C2867 1.491 . S
C2873 C2872 1.400 . S
C2873 C2874 1.398 . S
C2874 H2862 0.950 . S
C2874 C2873 1.398 . S
C2874 C2875 1.391 . S
C2875 H2863 0.950 . S
C2875 C2871 1.393 . S
C2875 C2874 1.391 . S
H2876 C2884 0.950 . S
H2877 C2889 0.950 . S
H2878 C2886 0.950 . S
H2879 C2888 0.950 . S
H2880 C2890 0.950 . S
H2881 C2892 0.950 . S
H2882 C2894 0.950 . S
H2883 C2895 0.950 . S
C2884 H2876 0.950 . S
C2884 C2885 1.386 . S
C2884 C2886 1.391 . S
C2885 C2884 1.386 . S
C2885 C2889 1.393 . S
C2886 H2878 0.950 . S
C2886 C2884 1.391 . S
C2886 C2887 1.400 . S
C2887 C2886 1.400 . S
C2887 C2888 1.398 . S
C2887 C2893 1.491 . S
C2888 H2879 0.950 . S
C2888 C2887 1.398 . S
C2888 C2889 1.391 . S
C2889 H2877 0.950 . S
C2889 C2885 1.393 . S
C2889 C2888 1.391 . S
C2890 H2880 0.950 . S
C2890 C2891 1.386 . S
C2890 C2892 1.391 . S
C2891 C2890 1.386 . S
C2891 C2895 1.393 . S
C2892 H2881 0.950 . S
C2892 C2890 1.391 . S
C2892 C2893 1.400 . S
C2893 C2887 1.491 . S
C2893 C2892 1.400 . S
C2893 C2894 1.398 . S
C2894 H2882 0.950 . S
C2894 C2893 1.398 . S
C2894 C2895 1.391 . S
C2895 H2883 0.950 . S
C2895 C2891 1.393 . S
C2895 C2894 1.391 . S
C985 C111 2.211 . S
C991 C346 2.194 1_556 S
C1005 C64 2.099 . S
C1011 C394 2.174 . S
C1025 C77 1.116 . S
C1031 C426 1.106 . S
C1051 C471 1.189 . S
C1045 C95 1.190 . S
C1065 C25 1.163 . S
C1071 C511 1.128 . S
C1091 C542 0.503 . S
C1085 C36 0.518 . S
C1111 C594 1.311 . S
C1105 C50 1.198 . S
C1125 C11 1.773 . S
C1131 C626 1.694 . S
C1151 C354 2.427 . S
C1145 C237 2.304 . S
C1165 C245 0.504 . S
C1171 C391 0.549 . S
C1191 C434 1.148 . S
C1185 C279 1.079 . S
C1211 C466 1.258 . S
C1205 C175 1.287 . S
C1225 C231 1.757 . S
C1231 C506 1.752 . S
C1251 C545 1.359 . S
C1245 C251 1.296 . S
C1271 C591 0.363 . S
C1265 C273 0.285 . S
C1291 C634 2.040 . S
C1285 C181 2.013 . S
C1311 C351 1.408 . S
C1305 C165 1.426 . S
C1325 C288 1.879 1_556 S
C1331 C674 1.956 . S
C1351 C715 2.572 . S
C1345 C333 2.636 . S
C1371 C746 0.600 . S
C1365 C316 0.594 . S
C1385 C123 1.445 . S
C1391 C631 1.377 . S
C1405 C137 1.477 . S
C1411 C431 1.437 . S
C1425 C330 2.164 . S
C1431 C794 2.228 . S
C1451 C826 0.561 . S
C1445 C302 0.460 . S
C1471 C355 2.320 . S
C1465 C63 2.353 . S
C1491 C825 2.196 . S
C1485 C106 2.197 . S
C1505 C97 1.177 . S
C1511 C435 1.215 . S
C1525 C81 1.241 . S
C1531 C782 1.246 . S
C1551 C502 1.191 . S
C1545 C13 1.087 . S
C1565 C55 0.534 . S
C1571 C711 0.485 . S
C1591 C585 1.344 . S
C1585 C35 1.317 . S
C1611 C875 1.844 . S
C1605 C21 1.910 . S
C1631 C345 2.533 . S
C1625 C147 2.543 . S
C1651 C822 0.497 . S
C1645 C321 0.611 . S
C1665 C119 1.231 . S
C1671 C425 1.228 . S
C1685 C293 1.368 . S
C1691 C795 1.405 . S
C1705 C153 1.781 1_565 S
C1711 C515 1.940 . S
C1731 C714 1.377 . S
C1725 C315 1.401 . S
C1745 C125 0.404 1_545 S
C1751 C582 0.330 . S
C1765 C287 2.174 . S
C1771 C865 2.147 . S
C1785 C193 1.450 . S
C1791 C342 1.448 . S
C1805 C176 1.946 . S
C1811 C665 1.963 . S
C1825 C263 2.586 . S
C1831 C546 2.504 . S
C1845 C246 0.809 . S
C1851 C755 0.799 . S
C1871 C862 1.406 . S
C1865 C277 1.415 . S
C1885 C221 1.450 . S
C1891 C422 1.454 . S
C1911 C465 2.280 . S
C1905 C260 2.264 . S
C1931 C395 0.641 . S
C1925 C204 0.639 . S
C1945 C83 2.215 . S
C1951 C906 2.198 . S
C1971 C834 2.169 . S
C1965 C92 2.104 . S
C1985 C105 1.122 . S
C1991 C946 1.085 . S
C2005 C67 1.190 . S
C2011 C791 1.190 . S
C2025 C53 1.160 . S
C2031 C671 1.110 . S
C2051 C702 0.506 . S
C2045 C8 0.489 . S
C2071 C754 1.313 . S
C2065 C22 1.200 . S
C2091 C866 1.691 . S
C2085 C39 1.774 . S
C2111 C914 2.420 . S
C2105 C265 2.310 . S
C2125 C189 0.482 . S
C2131 C831 0.548 . S
C2151 C954 1.141 . S
C2145 C209 1.098 . S
C2171 C786 1.265 . S
C2165 C217 1.284 . S
C2191 C666 1.744 . S
C2185 C259 1.761 . S
C2205 C195 1.294 . S
C2211 C705 1.359 . S
C2231 C751 0.369 . S
C2225 C203 0.280 . S
C2245 C223 2.016 . S
C2251 C874 2.038 . S
C2271 C911 1.397 . S
C2265 C319 1.431 . S
C2285 C134 1.873 . S
C2291 C514 1.940 . S
C2311 C555 2.568 . S
C2305 C151 2.636 . S
C2331 C586 0.535 . S
C2325 C162 0.594 . S
C2351 C871 1.361 . S
C2345 C305 1.434 . S
C2365 C291 1.478 . S
C2371 C951 1.447 . S
C2391 C474 2.235 . S
C2385 C148 2.171 . S
C2411 C386 0.536 . S
C2405 C120 0.502 . S
C2425 C91 2.351 . S
C2431 C915 2.307 . S
C2451 C385 2.188 . S
C2445 C78 2.192 . S
C2465 C69 1.197 . S
C2471 C955 1.218 . S
C2485 C109 1.244 . S
C2491 C462 1.246 . S
C2505 C41 1.094 . S
C2511 C662 1.192 . S
C2531 C551 0.474 . S
C2525 C27 0.518 . S
C2545 C7 1.315 . S
C2551 C745 1.349 . S
C2565 C49 1.916 . S
C2571 C635 1.859 . S
C2591 C905 2.534 . S
C2585 C329 2.541 . S
C2605 C167 0.532 . S
C2611 C382 0.444 . S
C2631 C945 1.224 . S
C2625 C301 1.232 . S
C2645 C139 1.374 . S
C2651 C475 1.404 . S
C2665 C335 1.793 . S
C2671 C675 1.950 . S
C2691 C554 1.390 . S
C2685 C161 1.402 . S
C2705 C307 0.425 . S
C2711 C742 0.319 . S
C2731 C625 2.137 . S
C2725 C133 2.173 . S
C2751 C902 1.449 . S
C2745 C249 1.444 . S
C2771 C505 1.967 1_665 S
C2765 C218 1.958 . S
C2785 C235 2.592 . S
C2791 C706 2.520 . S
C2811 C595 0.792 . S
C2805 C190 0.819 . S
C2825 C207 1.387 . S
C2831 C622 1.377 . S
C2845 C179 1.461 . S
C2851 C942 1.461 . S
C2871 C785 2.289 . S
C2865 C232 2.271 1_565 S
C2891 C835 0.666 . S
C2885 C274 0.607 . S
