# Generated by pormake.
# Topology zzz, (3,6)-cn, num edge types: 1
# Building blocks:
#     Node 0, Type 0, BuildingBlock: OLANEW_clean_sbu_2, # of connection points: 3
#     Node 1, Type 0, BuildingBlock: OLANEW_clean_sbu_2, # of connection points: 3
#     Node 2, Type 0, BuildingBlock: OLANEW_clean_sbu_2, # of connection points: 3
#     Node 3, Type 0, BuildingBlock: OLANEW_clean_sbu_2, # of connection points: 3
#     Node 4, Type 0, BuildingBlock: OLANEW_clean_sbu_2, # of connection points: 3
#     Node 5, Type 0, BuildingBlock: OLANEW_clean_sbu_2, # of connection points: 3
#     Node 6, Type 0, BuildingBlock: OLANEW_clean_sbu_2, # of connection points: 3
#     Node 7, Type 0, BuildingBlock: OLANEW_clean_sbu_2, # of connection points: 3
#     Node 8, Type 1, BuildingBlock: BETGAK_clean_sbu_0, # of connection points: 6
#     Node 9, Type 1, BuildingBlock: BETGAK_clean_sbu_0, # of connection points: 6
#     Node 10, Type 1, BuildingBlock: BETGAK_clean_sbu_0, # of connection points: 6
#     Node 11, Type 1, BuildingBlock: BETGAK_clean_sbu_0, # of connection points: 6
#     Edge 12, Type (0, 1), BuildingBlock: XUDNAN_clean_linker_2, # of connection points: 2
#     Edge 13, Type (0, 1), BuildingBlock: XUDNAN_clean_linker_2, # of connection points: 2
#     Edge 14, Type (0, 1), BuildingBlock: XUDNAN_clean_linker_2, # of connection points: 2
#     Edge 15, Type (0, 1), BuildingBlock: XUDNAN_clean_linker_2, # of connection points: 2
#     Edge 16, Type (0, 1), BuildingBlock: XUDNAN_clean_linker_2, # of connection points: 2
#     Edge 17, Type (0, 1), BuildingBlock: XUDNAN_clean_linker_2, # of connection points: 2
#     Edge 18, Type (0, 1), BuildingBlock: XUDNAN_clean_linker_2, # of connection points: 2
#     Edge 19, Type (0, 1), BuildingBlock: XUDNAN_clean_linker_2, # of connection points: 2
#     Edge 20, Type (0, 1), BuildingBlock: XUDNAN_clean_linker_2, # of connection points: 2
#     Edge 21, Type (0, 1), BuildingBlock: XUDNAN_clean_linker_2, # of connection points: 2
#     Edge 22, Type (0, 1), BuildingBlock: XUDNAN_clean_linker_2, # of connection points: 2
#     Edge 23, Type (0, 1), BuildingBlock: XUDNAN_clean_linker_2, # of connection points: 2
#     Edge 24, Type (0, 1), BuildingBlock: XUDNAN_clean_linker_2, # of connection points: 2
#     Edge 25, Type (0, 1), BuildingBlock: XUDNAN_clean_linker_2, # of connection points: 2
#     Edge 26, Type (0, 1), BuildingBlock: XUDNAN_clean_linker_2, # of connection points: 2
#     Edge 27, Type (0, 1), BuildingBlock: XUDNAN_clean_linker_2, # of connection points: 2
#     Edge 28, Type (0, 1), BuildingBlock: XUDNAN_clean_linker_2, # of connection points: 2
#     Edge 29, Type (0, 1), BuildingBlock: XUDNAN_clean_linker_2, # of connection points: 2
#     Edge 30, Type (0, 1), BuildingBlock: XUDNAN_clean_linker_2, # of connection points: 2
#     Edge 31, Type (0, 1), BuildingBlock: XUDNAN_clean_linker_2, # of connection points: 2
#     Edge 32, Type (0, 1), BuildingBlock: XUDNAN_clean_linker_2, # of connection points: 2
#     Edge 33, Type (0, 1), BuildingBlock: XUDNAN_clean_linker_2, # of connection points: 2
#     Edge 34, Type (0, 1), BuildingBlock: XUDNAN_clean_linker_2, # of connection points: 2
#     Edge 35, Type (0, 1), BuildingBlock: XUDNAN_clean_linker_2, # of connection points: 2
# Relax obj value: 0.256
# Max RMSD: 0.194
# Mean RMSD: 0.172
data_MOF--net-zzz--node1-OLANEW_clean_sbu_2--node2-BETGAK_clean_sbu_0--edge1-XUDNAN_clean_linker_2
_symmetry_space_group_name_H-M    P1
_symmetry_Int_Tables_number       1
_symmetry_cell_setting            triclinic
loop_
_symmetry_equiv_pos_as_xyz
'x, y, z'
_cell_length_a     56.845414
_cell_length_b     56.763005
_cell_length_c     15.253502
_cell_angle_alpha  89.909544
_cell_angle_beta   89.971788
_cell_angle_gamma 89.993746
loop_
_atom_site_label
_atom_site_type_symbol
_atom_site_fract_x
_atom_site_fract_y
_atom_site_fract_z
_atom_type_partial_charge
O0 O 0.72591 0.5872 0.33152 0.0
Cd1 Cd 0.68438 0.59072 0.37164 0.0
O2 O 0.72616 0.55011 0.37376 0.0
Cd3 Cd 0.74881 0.52036 0.40756 0.0
O4 O 0.78415 0.51562 0.46044 0.0
C5 C 0.79029 0.53204 0.51212 0.0
O6 O 0.7751 0.54881 0.52995 0.0
C7 C 0.73684 0.56789 0.34224 0.0
C8 C 0.65476 0.58368 0.22842 0.0
O9 O 0.66308 0.60413 0.24577 0.0
O10 O 0.66041 0.56654 0.27899 0.0
O11 O 0.92843 0.73372 0.1529 0.0
Cd12 Cd 0.9118 0.69743 0.21317 0.0
O13 O 0.94165 0.74299 0.28301 0.0
Cd14 Cd 0.95921 0.76384 0.38432 0.0
O15 O 0.96765 0.7948 0.46267 0.0
C16 C 0.95708 0.79882 0.53444 0.0
O17 O 0.94184 0.78332 0.56403 0.0
C18 C 0.93907 0.74823 0.20229 0.0
C19 C 0.93479 0.65721 0.15313 0.0
O20 O 0.91795 0.66651 0.10926 0.0
O21 O 0.94084 0.667 0.22536 0.0
O22 O 0.74907 0.90428 0.0205 0.0
Cd23 Cd 0.78663 0.88366 0.03267 0.0
O24 O 0.75214 0.908 0.16282 0.0
Cd25 Cd 0.73763 0.91807 0.28952 0.0
O26 O 0.70902 0.93294 0.36569 0.0
C27 C 0.70797 0.93337 0.44877 0.0
O28 O 0.72534 0.92448 0.49497 0.0
C29 C 0.74088 0.91205 0.09226 0.0
C30 C 0.82403 0.91405 0.99803 0.0
O31 O 0.81522 0.90105 0.93772 0.0
O32 O 0.81523 0.91259 0.07522 0.0
O33 O 0.60399 0.78514 0.15141 0.0
Cd34 Cd 0.61627 0.82613 0.17122 0.0
O35 O 0.59808 0.78293 0.29331 0.0
Cd36 Cd 0.58508 0.7641 0.40853 0.0
O37 O 0.56914 0.73315 0.46841 0.0
C38 C 0.55263 0.72403 0.4239 0.0
O39 O 0.54567 0.73471 0.35193 0.0
C40 C 0.59796 0.77318 0.21819 0.0
C41 C 0.5872 0.85731 0.08043 0.0
O42 O 0.60567 0.84871 0.04446 0.0
O43 O 0.58254 0.85124 0.15953 0.0
O44 O 0.26978 0.44408 0.32812 0.0
Cd45 Cd 0.30629 0.42424 0.28716 0.0
O46 O 0.25202 0.41385 0.26885 0.0
Cd47 Cd 0.22054 0.39666 0.2194 0.0
O48 O 0.1852 0.39399 0.16694 0.0
C49 C 0.17999 0.40663 0.10097 0.0
O50 O 0.19643 0.4197 0.06479 0.0
C51 C 0.25084 0.43347 0.30871 0.0
C52 C 0.34585 0.44735 0.35117 0.0
O53 O 0.33817 0.45158 0.27373 0.0
O54 O 0.33479 0.43222 0.39809 0.0
O55 O 0.0038 0.26669 0.19548 0.0
Cd56 Cd 0.01388 0.30797 0.17029 0.0
O57 O 0.01655 0.25976 0.06304 0.0
Cd58 Cd 0.029 0.24077 0.94723 0.0
O59 O 0.04648 0.2379 0.81965 0.0
C60 C 0.04836 0.22008 0.7697 0.0
O61 O 0.0585 0.2228 0.6929 0.0
C62 C 0.00818 0.25202 0.13487 0.0
C63 C 0.00995 0.33385 0.32429 0.0
O64 O 0.99349 0.33422 0.26693 0.0
O65 O 0.02829 0.32143 0.30848 0.0
O66 O 0.23352 0.00454 0.23361 0.0
Cd67 Cd 0.1937 0.0191 0.20737 0.0
O68 O 0.23871 0.02176 0.10691 0.0
Cd69 Cd 0.261 0.03415 0.00059 0.0
O70 O 0.29277 0.03615 0.92243 0.0
C71 C 0.29301 0.0307 0.84176 0.0
O72 O 0.27323 0.02484 0.80297 0.0
C73 C 0.24709 0.00997 0.17067 0.0
C74 C 0.16458 0.01915 0.35359 0.0
O75 O 0.16424 0.00193 0.29936 0.0
O76 O 0.17898 0.03611 0.3393 0.0
O77 O 0.46476 0.24547 0.19215 0.0
Cd78 Cd 0.44742 0.21071 0.12344 0.0
O79 O 0.45348 0.26833 0.0849 0.0
Cd80 Cd 0.44612 0.29778 0.99513 0.0
O81 O 0.42847 0.30547 0.87086 0.0
C82 C 0.43025 0.32269 0.81786 0.0
O83 O 0.41857 0.32175 0.74362 0.0
C84 C 0.46379 0.26595 0.15855 0.0
C85 C 0.4633 0.16977 0.20597 0.0
O86 O 0.47373 0.17789 0.13781 0.0
O87 O 0.44523 0.18087 0.23453 0.0
La88 La 0.99603 0.0035 0.86308 0.0
La89 La 0.99316 0.01201 0.66686 0.0
C90 C 0.9904 0.98541 0.01189 0.0
C91 C 0.98935 0.9601 0.03342 0.0
C92 C 0.00374 0.94406 0.98807 0.0
C93 C 0.00076 0.91986 0.99894 0.0
C94 C 0.98323 0.91108 0.05503 0.0
C95 C 0.96926 0.92713 0.10243 0.0
C96 C 0.97226 0.95146 0.09142 0.0
C97 C 0.03636 0.00718 0.78075 0.0
C98 C 0.98879 0.96062 0.72858 0.0
C99 C 0.00067 0.0257 0.51198 0.0
C100 C 0.00032 0.04818 0.46292 0.0
C101 C 0.98419 0.05106 0.3941 0.0
C102 C 0.98336 0.07208 0.34646 0.0
C103 C 0.99883 0.09066 0.36603 0.0
C104 C 0.01514 0.08767 0.43456 0.0
C105 C 0.01584 0.0667 0.4828 0.0
C106 C 0.95246 0.00742 0.74703 0.0
C107 C 0.99819 0.05528 0.80347 0.0
O108 O 0.01071 0.99311 0.98336 0.0
O109 O 0.97297 0.99324 0.96413 0.0
O110 O 0.0327 0.01488 0.85941 0.0
O111 O 0.01829 0.99686 0.75284 0.0
O112 O 0.98589 0.9694 0.80804 0.0
O113 O 0.99597 0.97385 0.66237 0.0
O114 O 0.98029 0.0181 0.53995 0.0
O115 O 0.0173 0.02272 0.5704 0.0
O116 O 0.95641 0.00115 0.66678 0.0
O117 O 0.97045 0.01769 0.77647 0.0
O118 O 0.00027 0.04707 0.72226 0.0
O119 O 0.99306 0.04144 0.87081 0.0
H120 H 0.01688 0.95019 0.94187 0.0
H121 H 0.01199 0.90801 0.96229 0.0
H122 H 0.95542 0.92091 0.14543 0.0
H123 H 0.96073 0.9635 0.12593 0.0
H124 H 0.97208 0.03702 0.37735 0.0
H125 H 0.97039 0.07384 0.29489 0.0
H126 H 0.02765 0.10143 0.44999 0.0
H127 H 0.02857 0.06501 0.53523 0.0
La128 La 0.50793 0.00793 0.72645 0.0
La129 La 0.50033 0.99059 0.5401 0.0
C130 C 0.52271 0.01185 0.8811 0.0
C131 C 0.54385 0.00266 0.92639 0.0
C132 C 0.56096 0.01836 0.95756 0.0
C133 C 0.58199 0.00991 0.9934 0.0
C134 C 0.58626 0.98553 0.99953 0.0
C135 C 0.56873 0.96985 0.97096 0.0
C136 C 0.54787 0.97833 0.93438 0.0
C137 C 0.50491 0.04067 0.60537 0.0
C138 C 0.55086 0.98935 0.61005 0.0
C139 C 0.48611 0.9872 0.38439 0.0
C140 C 0.46222 0.98597 0.34733 0.0
C141 C 0.44371 0.9761 0.3961 0.0
C142 C 0.42073 0.97652 0.3638 0.0
C143 C 0.41578 0.98681 0.28197 0.0
C144 C 0.43444 0.99634 0.2326 0.0
C145 C 0.45746 0.99599 0.26521 0.0
C146 C 0.50345 0.95744 0.65982 0.0
C147 C 0.45657 0.00743 0.66048 0.0
O148 O 0.5267 0.02753 0.81982 0.0
O149 O 0.50681 0.99639 0.85716 0.0
O150 O 0.49708 0.04322 0.68468 0.0
O151 O 0.51509 0.02111 0.59815 0.0
O152 O 0.54126 0.99134 0.68879 0.0
O153 O 0.5384 0.99243 0.53766 0.0
O154 O 0.49268 0.96914 0.43195 0.0
O155 O 0.49158 0.00726 0.42134 0.0
O156 O 0.51071 0.95505 0.5797 0.0
O157 O 0.49358 0.97716 0.66801 0.0
O158 O 0.46512 0.00194 0.58219 0.0
O159 O 0.46997 0.00869 0.73115 0.0
H160 H 0.55835 0.03721 0.95202 0.0
H161 H 0.59518 0.02252 0.01371 0.0
H162 H 0.57117 0.95097 0.97629 0.0
H163 H 0.5351 0.96581 0.91103 0.0
H164 H 0.44694 0.96838 0.45999 0.0
H165 H 0.40683 0.96881 0.40301 0.0
H166 H 0.43117 0.00462 0.16974 0.0
H167 H 0.47147 0.00389 0.227 0.0
La168 La 0.50625 0.53186 0.80242 0.0
La169 La 0.52524 0.51043 0.63368 0.0
C170 C 0.50354 0.55561 0.94136 0.0
C171 C 0.51462 0.57731 0.97643 0.0
C172 C 0.502 0.59859 0.97956 0.0
C173 C 0.51218 0.61885 0.01571 0.0
C174 C 0.53511 0.61816 0.05032 0.0
C175 C 0.54776 0.59692 0.04647 0.0
C176 C 0.53762 0.57679 0.01006 0.0
C177 C 0.47405 0.51793 0.69074 0.0
C178 C 0.521 0.56438 0.63871 0.0
C179 C 0.53281 0.48601 0.49916 0.0
C180 C 0.52688 0.46181 0.471 0.0
C181 C 0.54452 0.4445 0.46926 0.0
C182 C 0.53925 0.42146 0.44412 0.0
C183 C 0.5163 0.41535 0.41901 0.0
C184 C 0.49866 0.43267 0.41973 0.0
C185 C 0.50387 0.45569 0.44576 0.0
C186 C 0.55667 0.52601 0.74602 0.0
C187 C 0.50443 0.4774 0.78596 0.0
O188 O 0.48894 0.5581 0.87548 0.0
O189 O 0.51729 0.53725 0.93162 0.0
O190 O 0.47083 0.51823 0.77507 0.0
O191 O 0.49354 0.52714 0.67277 0.0
O192 O 0.51927 0.56241 0.72541 0.0
O193 O 0.5207 0.54582 0.58678 0.0
O194 O 0.54769 0.48779 0.56441 0.0
O195 O 0.5154 0.50103 0.50601 0.0
O196 O 0.55886 0.52781 0.66173 0.0
O197 O 0.53797 0.51526 0.76362 0.0
O198 O 0.50978 0.48034 0.70216 0.0
O199 O 0.50441 0.4951 0.84238 0.0
H200 H 0.48416 0.59953 0.9549 0.0
H201 H 0.50191 0.6349 0.01838 0.0
H202 H 0.56557 0.59586 0.07138 0.0
H203 H 0.54778 0.56073 0.00884 0.0
H204 H 0.56243 0.44876 0.48763 0.0
H205 H 0.55322 0.40847 0.44331 0.0
H206 H 0.48077 0.42833 0.40138 0.0
H207 H 0.48983 0.4686 0.44634 0.0
La208 La 0.97536 0.47766 0.91381 0.0
La209 La 0.99782 0.48398 0.73353 0.0
C210 C 0.95474 0.4839 0.0581 0.0
C211 C 0.93485 0.49791 0.09095 0.0
C212 C 0.9155 0.50305 0.03712 0.0
C213 C 0.89605 0.51496 0.07124 0.0
C214 C 0.8957 0.52209 0.15951 0.0
C215 C 0.91549 0.51773 0.21226 0.0
C216 C 0.93489 0.50565 0.17821 0.0
C217 C 0.97549 0.44032 0.81237 0.0
C218 C 0.94621 0.49953 0.75507 0.0
C219 C 0.01891 0.4786 0.58933 0.0
C220 C 0.04338 0.47629 0.55834 0.0
C221 C 0.05025 0.48835 0.48227 0.0
C222 C 0.07342 0.48695 0.452 0.0
C223 C 0.09017 0.47332 0.49703 0.0
C224 C 0.0832 0.46103 0.57291 0.0
C225 C 0.06003 0.46259 0.60361 0.0
C226 C 0.99835 0.52113 0.8367 0.0
C227 C 0.02695 0.46078 0.89338 0.0
O228 O 0.94956 0.46691 0.0033 0.0
O229 O 0.9734 0.49575 0.03375 0.0
O230 O 0.97743 0.43945 0.897 0.0
O231 O 0.97214 0.46128 0.78868 0.0
O232 O 0.95031 0.49952 0.84057 0.0
O233 O 0.96116 0.4899 0.69903 0.0
O234 O 0.0131 0.49915 0.6214 0.0
O235 O 0.01034 0.46119 0.63584 0.0
O236 O 0.99627 0.52226 0.75226 0.0
O237 O 0.00135 0.50006 0.85887 0.0
O238 O 0.02566 0.46581 0.8084 0.0
O239 O 0.0101 0.46611 0.94961 0.0
H240 H 0.91519 0.49746 0.96928 0.0
H241 H 0.88117 0.51842 0.02877 0.0
H242 H 0.91565 0.52296 0.28052 0.0
H243 H 0.94974 0.50192 0.22054 0.0
H244 H 0.03767 0.49897 0.44631 0.0
H245 H 0.07817 0.49638 0.3928 0.0
H246 H 0.09576 0.45053 0.60935 0.0
H247 H 0.05521 0.45319 0.66282 0.0
H248 H 0.12455 0.9931 0.37807 0.0
H249 H 0.16786 0.04701 0.49895 0.0
H250 H 0.14015 0.04904 0.62352 0.0
H251 H 0.06921 0.01889 0.43794 0.0
H252 H 0.05488 0.99102 0.45653 0.0
H253 H 0.07859 0.9931 0.37857 0.0
H254 H 0.10101 0.95996 0.46101 0.0
H255 H 0.07732 0.95784 0.53911 0.0
H256 H 0.10692 0.96317 0.5765 0.0
H257 H 0.10767 0.04552 0.73384 0.0
H258 H 0.07183 0.03743 0.82074 0.0
H259 H 0.04927 0.98656 0.62625 0.0
C260 C 0.12832 0.00516 0.43118 0.0
C261 C 0.14842 0.01979 0.4293 0.0
C262 C 0.15257 0.03563 0.49925 0.0
C263 C 0.13697 0.03688 0.57026 0.0
C264 C 0.11724 0.02234 0.56982 0.0
C265 C 0.11279 0.00686 0.50197 0.0
C266 C 0.08985 0.9938 0.51599 0.0
C267 C 0.07209 0.99956 0.44291 0.0
C268 C 0.09404 0.96711 0.52363 0.0
C269 C 0.08221 0.00423 0.60264 0.0
C270 C 0.09827 0.02062 0.63265 0.0
C271 C 0.09497 0.03272 0.71108 0.0
C272 C 0.07463 0.02799 0.75996 0.0
C273 C 0.05789 0.01145 0.72978 0.0
C274 C 0.0618 0.99937 0.65043 0.0
H275 H 0.44927 0.15226 0.36525 0.0
H276 H 0.49745 0.13927 0.14975 0.0
H277 H 0.51284 0.10427 0.22728 0.0
H278 H 0.48899 0.13675 0.53621 0.0
H279 H 0.46687 0.12313 0.60411 0.0
H280 H 0.45884 0.14647 0.52989 0.0
H281 H 0.42767 0.11938 0.45784 0.0
H282 H 0.43556 0.09596 0.53207 0.0
H283 H 0.43649 0.09109 0.41539 0.0
H284 H 0.52322 0.07086 0.32908 0.0
H285 H 0.52847 0.04211 0.44971 0.0
H286 H 0.47433 0.07769 0.59992 0.0
C287 C 0.46293 0.14197 0.33398 0.0
C288 C 0.4721 0.14845 0.25126 0.0
C289 C 0.49014 0.13463 0.21305 0.0
C290 C 0.49898 0.1147 0.2565 0.0
C291 C 0.48964 0.1089 0.33822 0.0
C292 C 0.47205 0.12215 0.37668 0.0
C293 C 0.46554 0.11254 0.46615 0.0
C294 C 0.47036 0.13081 0.53833 0.0
C295 C 0.43979 0.10425 0.46791 0.0
C296 C 0.48234 0.09193 0.47233 0.0
C297 C 0.49596 0.09 0.39757 0.0
C298 C 0.51266 0.07221 0.38791 0.0
C299 C 0.51551 0.05598 0.45656 0.0
C300 C 0.50182 0.0578 0.53375 0.0
C301 C 0.4851 0.07602 0.54165 0.0
H302 H 0.36176 0.44784 0.52045 0.0
H303 H 0.37728 0.47455 0.25992 0.0
H304 H 0.41239 0.49491 0.31805 0.0
H305 H 0.37811 0.49988 0.63705 0.0
H306 H 0.39059 0.48407 0.72846 0.0
H307 H 0.36717 0.47105 0.66555 0.0
H308 H 0.39316 0.43441 0.63692 0.0
H309 H 0.41695 0.44733 0.69835 0.0
H310 H 0.42162 0.43811 0.58658 0.0
H311 H 0.44584 0.51222 0.40482 0.0
H312 H 0.47418 0.5267 0.51522 0.0
H313 H 0.43615 0.48941 0.71918 0.0
C314 C 0.37258 0.4579 0.47548 0.0
C315 C 0.36685 0.45956 0.3856 0.0
C316 C 0.38134 0.47305 0.32906 0.0
C317 C 0.40134 0.48463 0.3614 0.0
C318 C 0.40646 0.48263 0.45044 0.0
C319 C 0.39242 0.46972 0.50674 0.0
C320 C 0.40148 0.47079 0.59994 0.0
C321 C 0.38325 0.48213 0.66134 0.0
C322 C 0.40873 0.4462 0.6324 0.0
C323 C 0.4227 0.48652 0.58752 0.0
C324 C 0.42541 0.49297 0.50064 0.0
C325 C 0.44388 0.5073 0.47301 0.0
C326 C 0.4599 0.51536 0.536 0.0
C327 C 0.45723 0.50915 0.62534 0.0
C328 C 0.43843 0.49453 0.65127 0.0
H329 H 0.98386 0.37353 0.35457 0.0
H330 H 0.03115 0.32391 0.48031 0.0
H331 H 0.02655 0.34517 0.62062 0.0
H332 H 0.00601 0.42482 0.47055 0.0
H333 H 0.97758 0.43876 0.4767 0.0
H334 H 0.98432 0.41935 0.3868 0.0
H335 H 0.94754 0.39419 0.42427 0.0
H336 H 0.94083 0.41345 0.51461 0.0
H337 H 0.94429 0.38227 0.53324 0.0
H338 H 0.01578 0.37105 0.74795 0.0
H339 H 0.00236 0.40197 0.8507 0.0
H340 H 0.96374 0.43578 0.64014 0.0
C341 C 0.99318 0.36714 0.41177 0.0
C342 C 0.0077 0.347 0.40712 0.0
C343 C 0.01995 0.33933 0.48274 0.0
C344 C 0.01738 0.35123 0.56265 0.0
C345 C 0.00282 0.37096 0.56524 0.0
C346 C 0.99121 0.37909 0.49155 0.0
C347 C 0.97738 0.40126 0.51122 0.0
C348 C 0.9869 0.42228 0.45816 0.0
C349 C 0.95094 0.39756 0.49487 0.0
C350 C 0.98262 0.40402 0.60788 0.0
C351 C 0.99725 0.38632 0.63789 0.0
C352 C 0.00439 0.38505 0.72517 0.0
C353 C 0.99659 0.40256 0.78305 0.0
C354 C 0.98208 0.42111 0.75287 0.0
C355 C 0.97488 0.42173 0.6645 0.0
H356 H 0.85119 0.91533 0.85033 0.0
H357 H 0.8411 0.94968 0.10154 0.0
H358 H 0.87299 0.97777 0.06563 0.0
H359 H 0.91479 0.92077 0.8467 0.0
H360 H 0.91571 0.92551 0.72985 0.0
H361 H 0.89252 0.90805 0.77727 0.0
H362 H 0.86156 0.93534 0.70397 0.0
H363 H 0.88474 0.95296 0.65729 0.0
H364 H 0.86253 0.9666 0.72462 0.0
H365 H 0.90542 0.00308 0.99845 0.0
H366 H 0.93659 0.02199 0.90828 0.0
H367 H 0.92527 0.97 0.70472 0.0
C368 C 0.85568 0.92872 0.89797 0.0
C369 C 0.8436 0.9304 0.97854 0.0
C370 C 0.85015 0.94807 0.03936 0.0
C371 C 0.86821 0.96411 0.01952 0.0
C372 C 0.87964 0.96208 0.93901 0.0
C373 C 0.87374 0.94467 0.87963 0.0
C374 C 0.88869 0.94607 0.79787 0.0
C375 C 0.90383 0.92378 0.78736 0.0
C376 C 0.87347 0.95052 0.71614 0.0
C377 C 0.90365 0.96726 0.81964 0.0
C378 C 0.8983 0.97629 0.90132 0.0
C379 C 0.90985 0.99605 0.93464 0.0
C380 C 0.92746 0.00667 0.88324 0.0
C381 C 0.93332 0.99734 0.80017 0.0
C382 C 0.92109 0.97755 0.76802 0.0
H383 H 0.59235 0.87312 0.9116 0.0
H384 H 0.54632 0.87768 0.13817 0.0
H385 H 0.51918 0.90311 0.05408 0.0
H386 H 0.58389 0.93346 0.83173 0.0
H387 H 0.58544 0.92368 0.71983 0.0
H388 H 0.60087 0.90769 0.80404 0.0
H389 H 0.57844 0.87008 0.74934 0.0
H390 H 0.56212 0.88731 0.67099 0.0
H391 H 0.54673 0.86985 0.75144 0.0
H392 H 0.49681 0.92782 0.94432 0.0
H393 H 0.48225 0.95169 0.81911 0.0
H394 H 0.54248 0.92989 0.66481 0.0
C395 C 0.57663 0.87954 0.94378 0.0
C396 C 0.57142 0.87335 0.0314 0.0
C397 C 0.55066 0.88215 0.07103 0.0
C398 C 0.53511 0.89657 0.0238 0.0
C399 C 0.54059 0.90202 0.93708 0.0
C400 C 0.56095 0.89393 0.89767 0.0
C401 C 0.56267 0.90214 0.80345 0.0
C402 C 0.58453 0.91765 0.78907 0.0
C403 C 0.56247 0.88109 0.74009 0.0
C404 C 0.54024 0.91635 0.79635 0.0
C405 C 0.52763 0.91596 0.87385 0.0
C406 C 0.50648 0.92818 0.88323 0.0
C407 C 0.49839 0.9417 0.81217 0.0
C408 C 0.51124 0.94245 0.73289 0.0
C409 C 0.53222 0.92938 0.72465 0.0
H410 H 0.63031 0.54369 0.18493 0.0
H411 H 0.64445 0.61518 0.0979 0.0
H412 H 0.62011 0.60842 0.96627 0.0
H413 H 0.63203 0.51669 0.97327 0.0
H414 H 0.60847 0.49637 0.99661 0.0
H415 H 0.62685 0.50698 0.08418 0.0
H416 H 0.59001 0.52061 0.16572 0.0
H417 H 0.57072 0.51194 0.07781 0.0
H418 H 0.57062 0.54191 0.11704 0.0
H419 H 0.59692 0.59291 0.83868 0.0
H420 H 0.57335 0.57067 0.73016 0.0
H421 H 0.57173 0.51051 0.90534 0.0
C422 C 0.62825 0.55796 0.13835 0.0
C423 C 0.63941 0.57992 0.15141 0.0
C424 C 0.63612 0.59818 0.08918 0.0
C425 C 0.62236 0.59451 0.01414 0.0
C426 C 0.61188 0.57256 0.0027 0.0
C427 C 0.61443 0.55467 0.06352 0.0
C428 C 0.60119 0.53275 0.03585 0.0
C429 C 0.61815 0.51198 0.02163 0.0
C430 C 0.58197 0.52644 0.10294 0.0
C431 C 0.59083 0.54111 0.94976 0.0
C432 C 0.5975 0.56402 0.93126 0.0
C433 C 0.59137 0.57507 0.85282 0.0
C434 C 0.57812 0.56233 0.79157 0.0
C435 C 0.57076 0.53907 0.81025 0.0
C436 C 0.57699 0.52842 0.89048 0.0
H437 H 0.93101 0.63674 0.99123 0.0
H438 H 0.96589 0.62931 0.24289 0.0
H439 H 0.98596 0.59347 0.18951 0.0
H440 H 0.92226 0.57444 0.94954 0.0
H441 H 0.92781 0.57757 0.83373 0.0
H442 H 0.91568 0.60182 0.8947 0.0
H443 H 0.95013 0.62817 0.83962 0.0
H444 H 0.96241 0.6036 0.7807 0.0
H445 H 0.98002 0.6191 0.86014 0.0
H446 H 0.0017 0.558 0.10917 0.0
H447 H 0.01318 0.52652 0.0051 0.0
H448 H 0.96928 0.5583 0.80497 0.0
C449 C 0.9428 0.62754 0.0353 0.0
C450 C 0.94685 0.63577 0.12132 0.0
C451 C 0.96255 0.62333 0.17667 0.0
C452 C 0.97398 0.60293 0.14704 0.0
C453 C 0.96963 0.59533 0.06178 0.0
C454 C 0.95449 0.6073 0.00657 0.0
C455 C 0.95329 0.59579 0.91722 0.0
C456 C 0.92827 0.58687 0.89774 0.0
C457 C 0.96199 0.61268 0.84519 0.0
C458 C 0.9702 0.57554 0.93061 0.0
C459 C 0.97927 0.57542 0.01469 0.0
C460 C 0.99482 0.558 0.04303 0.0
C461 C 0.00123 0.54025 0.98376 0.0
C462 C 0.99224 0.54025 0.89738 0.0
C463 C 0.97666 0.55817 0.87044 0.0
H464 H 0.00966 0.22944 0.29229 0.0
H465 H 0.99817 0.21725 0.01489 0.0
H466 H 0.99285 0.17472 0.04456 0.0
H467 H 0.04295 0.17808 0.33751 0.0
H468 H 0.02979 0.17297 0.44344 0.0
H469 H 0.03162 0.20245 0.40039 0.0
H470 H 0.98663 0.20715 0.41941 0.0
H471 H 0.98442 0.17755 0.46124 0.0
H472 H 0.96706 0.18634 0.36809 0.0
H473 H 0.99104 0.13322 0.10416 0.0
H474 H 0.99211 0.0961 0.18863 0.0
H475 H 0.00382 0.13588 0.42765 0.0
C476 C 0.00606 0.21782 0.23765 0.0
C477 C 0.00474 0.22657 0.151 0.0
C478 C -8e-05 0.21084 0.08138 0.0
C479 C 0.99676 0.18669 0.09769 0.0
C480 C 0.99871 0.17858 0.18375 0.0
C481 C 0.00314 0.19371 0.25261 0.0
C482 C 0.00443 0.18061 0.33903 0.0
C483 C 0.02864 0.18371 0.3826 0.0
C484 C 0.98445 0.18838 0.40056 0.0
C485 C 0.00082 0.1556 0.30771 0.0
C486 C 0.99726 0.15481 0.21815 0.0
C487 C 0.99382 0.1336 0.17426 0.0
C488 C 0.99427 0.11263 0.22303 0.0
C489 C 0.99804 0.113 0.31496 0.0
C490 C 0.00119 0.13489 0.35745 0.0
H491 H 0.27711 0.01026 0.31124 0.0
H492 H 0.27356 0.99425 0.0337 0.0
H493 H 0.31622 0.98599 0.03232 0.0
H494 H 0.33246 0.03938 0.30626 0.0
H495 H 0.34252 0.02778 0.40974 0.0
H496 H 0.31152 0.03148 0.39013 0.0
H497 H 0.30449 0.98745 0.42617 0.0
H498 H 0.3355 0.98369 0.44625 0.0
H499 H 0.32075 0.9652 0.36754 0.0
H500 H 0.35928 0.98043 0.06014 0.0
H501 H 0.40013 0.97831 0.11489 0.0
H502 H 0.37583 0.99785 0.3747 0.0
C503 C 0.28533 0.00473 0.25057 0.0
C504 C 0.27221 0.00333 0.17211 0.0
C505 C 0.28348 0.9961 0.09387 0.0
C506 C 0.30763 0.99113 0.09268 0.0
C507 C 0.32021 0.99322 0.17061 0.0
C508 C 0.30947 0.99974 0.24827 0.0
C509 C 0.32723 0.00132 0.32222 0.0
C510 C 0.3285 0.02649 0.35921 0.0
C511 C 0.32166 0.98334 0.39481 0.0
C512 C 0.34959 0.99487 0.2737 0.0
C513 C 0.34513 0.99016 0.18647 0.0
C514 C 0.36304 0.98417 0.12824 0.0
C515 C 0.38618 0.9831 0.15985 0.0
C516 C 0.3912 0.98788 0.24905 0.0
C517 C 0.37255 0.99378 0.30646 0.0
H518 H 0.4622 0.31386 0.1192 0.0
H519 H 0.48931 0.26366 0.30923 0.0
H520 H 0.50595 0.29622 0.39503 0.0
H521 H 0.51323 0.35422 0.13241 0.0
H522 H 0.49453 0.37945 0.11528 0.0
H523 H 0.4867 0.35126 0.06925 0.0
H524 H 0.44604 0.35515 0.14917 0.0
H525 H 0.45508 0.38251 0.19826 0.0
H526 H 0.44558 0.3584 0.26675 0.0
H527 H 0.51945 0.33399 0.46131 0.0
H528 H 0.52852 0.37491 0.50439 0.0
H529 H 0.4922 0.4007 0.27325 0.0
C530 C 0.47181 0.30954 0.17802 0.0
C531 C 0.47439 0.28601 0.20676 0.0
C532 C 0.48699 0.28146 0.28537 0.0
C533 C 0.49658 0.29986 0.33472 0.0
C534 C 0.49356 0.32279 0.30472 0.0
C535 C 0.4816 0.32773 0.22804 0.0
C536 C 0.48085 0.35401 0.21075 0.0
C537 C 0.49463 0.36012 0.12696 0.0
C538 C 0.45537 0.36304 0.206 0.0
C539 C 0.49343 0.36306 0.29149 0.0
C540 C 0.50098 0.3447 0.34398 0.0
C541 C 0.51359 0.34853 0.4209 0.0
C542 C 0.51866 0.37179 0.44481 0.0
C543 C 0.51083 0.39089 0.39266 0.0
C544 C 0.49805 0.38641 0.31504 0.0
H545 H 0.21149 0.41091 0.36902 0.0
H546 H 0.23872 0.47996 0.30199 0.0
H547 H 0.20033 0.4978 0.34096 0.0
H548 H 0.15217 0.4198 0.28902 0.0
H549 H 0.13876 0.40349 0.3773 0.0
H550 H 0.16805 0.39616 0.34159 0.0
H551 H 0.18356 0.4019 0.49986 0.0
H552 H 0.15434 0.40927 0.53631 0.0
H553 H 0.17829 0.42943 0.55533 0.0
H554 H 0.15877 0.50788 0.38602 0.0
H555 H 0.11783 0.50979 0.44033 0.0
H556 H 0.11821 0.43413 0.48117 0.0
C557 C 0.2092 0.42972 0.36095 0.0
C558 C 0.22784 0.44405 0.33077 0.0
C559 C 0.22454 0.46871 0.32443 0.0
C560 C 0.20283 0.47895 0.34618 0.0
C561 C 0.18474 0.4643 0.37532 0.0
C562 C 0.18776 0.44023 0.38331 0.0
C563 C 0.16582 0.42851 0.41928 0.0
C564 C 0.1556 0.41095 0.35282 0.0
C565 C 0.17081 0.41658 0.50796 0.0
C566 C 0.14995 0.44972 0.43007 0.0
C567 C 0.16112 0.47018 0.40383 0.0
C568 C 0.14986 0.49197 0.40677 0.0
C569 C 0.12659 0.49286 0.43734 0.0
C570 C 0.11485 0.47212 0.46508 0.0
C571 C 0.1268 0.45031 0.46141 0.0
H572 H 0.9468 0.79073 0.28643 0.0
H573 H 0.94963 0.75734 0.03111 0.0
H574 H 0.96235 0.79505 0.96546 0.0
H575 H 0.92687 0.84495 0.233 0.0
H576 H 0.94614 0.86188 0.30238 0.0
H577 H 0.93885 0.83207 0.33161 0.0
H578 H 0.98326 0.81999 0.33425 0.0
H579 H 0.99033 0.8504 0.3119 0.0
H580 H 0.00157 0.8274 0.24246 0.0
H581 H 0.97403 0.83674 0.92769 0.0
H582 H 0.98307 0.87917 0.92056 0.0
H583 H 0.97407 0.88457 0.20226 0.0
C584 C 0.95119 0.79083 0.21776 0.0
C585 C 0.94794 0.7707 0.1648 0.0
C586 C 0.95218 0.77244 0.07338 0.0
C587 C 0.95952 0.79375 0.03547 0.0
C588 C 0.96283 0.81312 0.09001 0.0
C589 C 0.95911 0.81177 0.17933 0.0
C590 C 0.96408 0.83512 0.22346 0.0
C591 C 0.9427 0.84402 0.27563 0.0
C592 C 0.98609 0.83315 0.28157 0.0
C593 C 0.96915 0.85034 0.14429 0.0
C594 C 0.9691 0.83716 0.06817 0.0
C595 C 0.9741 0.8472 0.98695 0.0
C596 C 0.97919 0.87134 0.98356 0.0
C597 C 0.97885 0.88531 0.06057 0.0
C598 C 0.97395 0.8745 0.14199 0.0
H599 H 0.70181 0.90513 0.98991 0.0
H600 H 0.73013 0.95016 0.19354 0.0
H601 H 0.69259 0.97189 0.19997 0.0
H602 H 0.67117 0.9509 0.87548 0.0
H603 H 0.64645 0.93263 0.84634 0.0
H604 H 0.675 0.91957 0.86217 0.0
H605 H 0.6571 0.8911 0.97772 0.0
H606 H 0.62861 0.90439 0.96232 0.0
H607 H 0.64139 0.90302 0.07028 0.0
H608 H 0.65254 0.98954 0.18119 0.0
H609 H 0.61308 0.00282 0.13507 0.0
H610 H 0.61176 0.94799 0.93688 0.0
C611 C 0.70001 0.91949 0.03611 0.0
C612 C 0.71853 0.92539 0.09377 0.0
C613 C 0.71575 0.94458 0.15201 0.0
C614 C 0.69459 0.95722 0.15537 0.0
C615 C 0.67649 0.95067 0.09899 0.0
C616 C 0.679 0.93238 0.03991 0.0
C617 C 0.65714 0.92967 0.9839 0.0
C618 C 0.66279 0.93343 0.88622 0.0
C619 C 0.64537 0.90562 0.99953 0.0
C620 C 0.64219 0.94952 0.01984 0.0
C621 C 0.65356 0.96125 0.08675 0.0
C622 C 0.64339 0.98044 0.12912 0.0
C623 C 0.62106 0.98799 0.10187 0.0
C624 C 0.60924 0.97653 0.03208 0.0
C625 C 0.62002 0.95692 0.99133 0.0
H626 H 0.57087 0.75422 0.08788 0.0
H627 H 0.60929 0.73604 0.32393 0.0
H628 H 0.59644 0.69461 0.30927 0.0
H629 H 0.52135 0.71558 0.12541 0.0
H630 H 0.51811 0.70783 0.01148 0.0
H631 H 0.53006 0.73611 0.0411 0.0
H632 H 0.56734 0.72755 0.94847 0.0
H633 H 0.55545 0.6993 0.91827 0.0
H634 H 0.58401 0.70109 0.96918 0.0
H635 H 0.57935 0.65524 0.26892 0.0
H636 H 0.56055 0.62033 0.20261 0.0
H637 H 0.53376 0.66395 0.99105 0.0
C638 C 0.57654 0.74147 0.13638 0.0
C639 C 0.59062 0.74835 0.20819 0.0
C640 C 0.59793 0.73122 0.2699 0.0
C641 C 0.59088 0.70763 0.2617 0.0
C642 C 0.57656 0.70149 0.19122 0.0
C643 C 0.56955 0.71787 0.12937 0.0
C644 C 0.55442 0.70659 0.05925 0.0
C645 C 0.52951 0.71716 0.05936 0.0
C646 C 0.566 0.70876 0.96843 0.0
C647 C 0.5542 0.68128 0.09087 0.0
C648 C 0.56698 0.67874 0.16734 0.0
C649 C 0.56942 0.65699 0.20874 0.0
C650 C 0.55877 0.63725 0.17036 0.0
C651 C 0.54578 0.63937 0.09138 0.0
C652 C 0.54338 0.66178 0.05179 0.0
H653 H 0.7581 0.53388 0.246 0.0
H654 H 0.77213 0.59788 0.39112 0.0
H655 H 0.81493 0.59288 0.3639 0.0
H656 H 0.80909 0.50087 0.31636 0.0
H657 H 0.8129 0.48734 0.21071 0.0
H658 H 0.784 0.4962 0.24619 0.0
H659 H 0.78001 0.52116 0.10331 0.0
H660 H 0.8092 0.51264 0.07025 0.0
H661 H 0.80174 0.5434 0.07941 0.0
H662 H 0.85647 0.57955 0.32446 0.0
H663 H 0.89267 0.56134 0.26416 0.0
H664 H 0.85047 0.50706 0.14105 0.0
C665 C 0.77025 0.54682 0.27195 0.0
C666 C 0.76206 0.56612 0.32131 0.0
C667 C 0.77824 0.58299 0.3531 0.0
C668 C 0.8025 0.58018 0.33848 0.0
C669 C 0.81009 0.56063 0.29078 0.0
C670 C 0.79436 0.54442 0.2571 0.0
C671 C 0.80677 0.52541 0.20545 0.0
C672 C 0.80295 0.50102 0.24722 0.0
C673 C 0.79897 0.52569 0.10889 0.0
C674 C 0.83198 0.53339 0.21519 0.0
C675 C 0.83365 0.55356 0.26543 0.0
C676 C 0.85533 0.56385 0.28453 0.0
C677 C 0.87577 0.55338 0.25035 0.0
C678 C 0.87428 0.53301 0.1971 0.0
C679 C 0.85208 0.52289 0.18012 0.0
H680 H 0.03386 0.1852 0.66019 0.0
H681 H 0.0435 0.20152 0.93558 0.0
H682 H 0.02955 0.16168 0.97505 0.0
H683 H 0.98152 0.14915 0.67972 0.0
H684 H 0.99123 0.12854 0.59742 0.0
H685 H 0.00063 0.15881 0.59246 0.0
H686 H 0.0437 0.14487 0.58851 0.0
H687 H 0.03499 0.11449 0.59817 0.0
H688 H 0.05501 0.12696 0.67673 0.0
H689 H 0.01505 0.11964 0.98391 0.0
H690 H 0.00339 0.07815 0.96106 0.0
H691 H 0.00434 0.08957 0.67941 0.0
C692 C 0.03265 0.18056 0.72896 0.0
C693 C 0.03906 0.19673 0.79499 0.0
C694 C 0.03772 0.18982 0.88408 0.0
C695 C 0.02994 0.16717 0.90712 0.0
C696 C 0.0234 0.15177 0.84036 0.0
C697 C 0.02481 0.15815 0.75304 0.0
C698 C 0.01825 0.1379 0.69353 0.0
C699 C 0.9966 0.14396 0.63751 0.0
C700 C 0.03924 0.13065 0.63583 0.0
C701 C 0.01265 0.11918 0.76099 0.0
C702 C 0.01571 0.12747 0.84532 0.0
C703 C 0.01226 0.11305 0.91827 0.0
C704 C 0.00564 0.08951 0.90458 0.0
C705 C 0.00281 0.0806 0.8185 0.0
C706 C 0.00619 0.09581 0.74613 0.0
H707 H 0.33704 0.03477 0.9116 0.0
H708 H 0.30023 0.0222 0.66665 0.0
H709 H 0.33839 0.01672 0.59148 0.0
H710 H 0.3874 0.06614 0.81742 0.0
H711 H 0.4078 0.05303 0.89364 0.0
H712 H 0.37767 0.05787 0.92569 0.0
H713 H 0.37383 0.01389 0.96577 0.0
H714 H 0.40371 0.00851 0.93269 0.0
H715 H 0.38012 0.99172 0.88452 0.0
H716 H 0.38053 0.01111 0.54504 0.0
H717 H 0.42327 0.00503 0.53091 0.0
H718 H 0.43203 0.02007 0.80807 0.0
C719 C 0.33695 0.03124 0.84184 0.0
C720 C 0.31567 0.02903 0.7948 0.0
C721 C 0.31634 0.02404 0.70388 0.0
C722 C 0.33791 0.02094 0.66064 0.0
C723 C 0.35855 0.02292 0.70943 0.0
C724 C 0.35823 0.02801 0.79797 0.0
C725 C 0.38275 0.0281 0.83643 0.0
C726 C 0.38928 0.05276 0.87026 0.0
C727 C 0.38525 0.00942 0.90907 0.0
C728 C 0.39693 0.02171 0.75609 0.0
C729 C 0.3827 0.01911 0.68327 0.0
C730 C 0.39184 0.01311 0.60162 0.0
C731 C 0.41616 0.00959 0.59439 0.0
C732 C 0.43103 0.0118 0.66857 0.0
C733 C 0.42119 0.01811 0.75019 0.0
H734 H 0.45369 0.3495 0.69966 0.0
H735 H 0.43884 0.34346 0.97752 0.0
H736 H 0.45857 0.38186 0.00287 0.0
H737 H 0.512 0.37795 0.72121 0.0
H738 H 0.50705 0.39644 0.62681 0.0
H739 H 0.49384 0.3676 0.63239 0.0
H740 H 0.45312 0.38617 0.6065 0.0
H741 H 0.46558 0.41528 0.60306 0.0
H742 H 0.44251 0.4085 0.6804 0.0
H743 H 0.47738 0.42277 0.99447 0.0
H744 H 0.49344 0.46184 0.95293 0.0
H745 H 0.4964 0.43937 0.68114 0.0
C746 C 0.45514 0.35595 0.76624 0.0
C747 C 0.44495 0.34351 0.83678 0.0
C748 C 0.44692 0.35258 0.92284 0.0
C749 C 0.45806 0.37435 0.93775 0.0
C750 C 0.46769 0.38637 0.8663 0.0
C751 C 0.46659 0.37726 0.78236 0.0
C752 C 0.47694 0.39406 0.71572 0.0
C753 C 0.49876 0.38336 0.67146 0.0
C754 C 0.45844 0.40145 0.64737 0.0
C755 C 0.48356 0.41434 0.77476 0.0
C756 C 0.47827 0.40966 0.86147 0.0
C757 C 0.48186 0.42647 0.92686 0.0
C758 C 0.49096 0.44862 0.90268 0.0
C759 C 0.49636 0.4537 0.81392 0.0
C760 C 0.49277 0.43611 0.74982 0.0
H761 H 0.16282 0.43218 0.96206 0.0
H762 H 0.14133 0.38582 0.17437 0.0
H763 H 0.09979 0.39263 0.13627 0.0
H764 H 0.1191 0.47428 0.98969 0.0
H765 H 0.11435 0.47997 0.87475 0.0
H766 H 0.14257 0.46966 0.91199 0.0
H767 H 0.14025 0.43437 0.80469 0.0
H768 H 0.11209 0.44476 0.76657 0.0
H769 H 0.11502 0.41514 0.80788 0.0
H770 H 0.06115 0.40805 0.08831 0.0
H771 H 0.02709 0.42898 0.02554 0.0
H772 H 0.07295 0.46393 0.83869 0.0
C773 C 0.14939 0.42308 0.99944 0.0
C774 C 0.15532 0.40853 0.07143 0.0
C775 C 0.13723 0.39705 0.119 0.0
C776 C 0.11357 0.40078 0.09781 0.0
C777 C 0.10832 0.4157 0.02795 0.0
C778 C 0.12566 0.4264 0.97851 0.0
C779 C 0.11515 0.44249 0.90936 0.0
C780 C 0.12328 0.46811 0.92229 0.0
C781 C 0.12098 0.43365 0.81663 0.0
C782 C 0.08921 0.43969 0.92961 0.0
C783 C 0.08574 0.42412 0.99823 0.0
C784 C 0.06356 0.41995 0.03356 0.0
C785 C 0.04439 0.43205 0.99795 0.0
C786 C 0.04749 0.44797 0.92738 0.0
C787 C 0.07013 0.45159 0.8919 0.0
H788 H 0.98064 0.83791 0.4751 0.0
H789 H 0.94127 0.81105 0.69777 0.0
H790 H 0.94562 0.84949 0.77178 0.0
H791 H 0.02178 0.87326 0.5953 0.0
H792 H 0.02194 0.89688 0.51615 0.0
H793 H 0.01614 0.86714 0.48125 0.0
H794 H 0.97677 0.88066 0.41175 0.0
H795 H 0.98245 0.91041 0.44628 0.0
H796 H 0.95552 0.89598 0.47814 0.0
H797 H 0.95267 0.89101 0.81812 0.0
H798 H 0.96427 0.93227 0.84009 0.0
H799 H 0.99872 0.93255 0.58568 0.0
C800 C 0.97302 0.84001 0.5395 0.0
C801 C 0.96061 0.82144 0.58062 0.0
C802 C 0.95082 0.82502 0.66494 0.0
C803 C 0.95317 0.84679 0.70741 0.0
C804 C 0.96522 0.86478 0.66435 0.0
C805 C 0.97501 0.86165 0.58236 0.0
C806 C 0.98677 0.88399 0.54991 0.0
C807 C 0.01323 0.88008 0.5348 0.0
C808 C 0.97465 0.8933 0.46661 0.0
C809 C 0.98234 0.90011 0.62713 0.0
C810 C 0.96974 0.88868 0.69204 0.0
C811 C 0.96299 0.89999 0.76873 0.0
C812 C 0.96968 0.92348 0.78039 0.0
C813 C 0.9827 0.93559 0.71498 0.0
C814 C 0.98896 0.92373 0.63711 0.0
H815 H 0.66961 0.95308 0.3695 0.0
H816 H 0.69817 0.93509 0.6251 0.0
H817 H 0.66162 0.9494 0.695 0.0
H818 H 0.63823 0.00641 0.43932 0.0
H819 H 0.6143 0.00079 0.36467 0.0
H820 H 0.64358 0.99089 0.3384 0.0
H821 H 0.62715 0.94849 0.31913 0.0
H822 H 0.59813 0.95835 0.34854 0.0
H823 H 0.61177 0.93471 0.40906 0.0
H824 H 0.62125 0.96389 0.73603 0.0
H825 H 0.58012 0.97731 0.74536 0.0
H826 H 0.57808 0.98529 0.46204 0.0
C827 C 0.66833 0.9523 0.44031 0.0
C828 C 0.68675 0.94295 0.49193 0.0
C829 C 0.6843 0.94221 0.58429 0.0
C830 C 0.66362 0.9503 0.62456 0.0
C831 C 0.64569 0.95912 0.5715 0.0
C832 C 0.6479 0.96026 0.48142 0.0
C833 C 0.62583 0.9698 0.43886 0.0
C834 C 0.63078 0.99338 0.39259 0.0
C835 C 0.61509 0.95175 0.37519 0.0
C836 C 0.61055 0.97326 0.51897 0.0
C837 C 0.62243 0.96729 0.59493 0.0
C838 C 0.61185 0.96878 0.67704 0.0
C839 C 0.58845 0.97644 0.68154 0.0
C840 C 0.57585 0.98239 0.6043 0.0
C841 C 0.58719 0.98089 0.5222 0.0
H842 H 0.55733 0.69961 0.57904 0.0
H843 H 0.52815 0.69472 0.31651 0.0
H844 H 0.51556 0.65403 0.34671 0.0
H845 H 0.57971 0.64155 0.58999 0.0
H846 H 0.57244 0.63679 0.7037 0.0
H847 H 0.57814 0.66617 0.66433 0.0
H848 H 0.53756 0.67987 0.72215 0.0
H849 H 0.53177 0.65055 0.76213 0.0
H850 H 0.51136 0.66452 0.68805 0.0
H851 H 0.50867 0.6136 0.3997 0.0
H852 H 0.50617 0.57539 0.47519 0.0
H853 H 0.53833 0.60595 0.70685 0.0
C854 C 0.548 0.69006 0.52848 0.0
C855 C 0.54356 0.70037 0.44562 0.0
C856 C 0.53147 0.68729 0.3808 0.0
C857 C 0.52429 0.66414 0.39723 0.0
C858 C 0.52905 0.65444 0.4792 0.0
C859 C 0.54041 0.66696 0.54421 0.0
C860 C 0.54381 0.65198 0.62581 0.0
C861 C 0.57009 0.64894 0.64717 0.0
C862 C 0.53031 0.66235 0.70416 0.0
C863 C 0.53295 0.62899 0.59566 0.0
C864 C 0.5246 0.63091 0.5108 0.0
C865 C 0.51488 0.6119 0.46647 0.0
C866 C 0.51367 0.59024 0.50983 0.0
C867 C 0.52202 0.58777 0.59688 0.0
C868 C 0.53156 0.60747 0.64071 0.0
H869 H 0.82994 0.5073 0.46347 0.0
H870 H 0.80359 0.55728 0.65507 0.0
H871 H 0.84192 0.55675 0.73018 0.0
H872 H 0.86303 0.47241 0.60765 0.0
H873 H 0.88736 0.46766 0.5339 0.0
H874 H 0.85844 0.47325 0.49071 0.0
H875 H 0.87464 0.50844 0.40075 0.0
H876 H 0.90369 0.50295 0.44358 0.0
H877 H 0.89043 0.5316 0.45588 0.0
H878 H 0.88101 0.5479 0.79343 0.0
H879 H 0.91966 0.53241 0.83804 0.0
H880 H 0.92223 0.48956 0.6027 0.0
C881 C 0.83233 0.51824 0.52085 0.0
C882 C 0.81374 0.53221 0.55384 0.0
C883 C 0.81757 0.54645 0.62863 0.0
C884 C 0.8393 0.54631 0.67171 0.0
C885 C 0.85716 0.53217 0.63831 0.0
C886 C 0.85409 0.51858 0.56408 0.0
C887 C 0.87609 0.50448 0.54364 0.0
C888 C 0.87091 0.47788 0.54405 0.0
C889 C 0.88685 0.51234 0.45578 0.0
C890 C 0.89158 0.51151 0.6203 0.0
C891 C 0.88031 0.52764 0.67357 0.0
C892 C 0.8902 0.53557 0.75161 0.0
C893 C 0.91212 0.52659 0.77656 0.0
C894 C 0.92398 0.50995 0.7235 0.0
C895 C 0.91372 0.5026 0.64366 0.0
loop_
_geom_bond_atom_site_label_1
_geom_bond_atom_site_label_2
_geom_bond_distance
_geom_bond_site_symmetry_2
_ccdc_geom_bond_type
O0 Cd1 2.300 . S
O0 C7 1.275 . S
Cd1 O0 2.300 . S
Cd1 O9 2.381 . S
Cd1 O10 2.378 . S
O2 Cd3 2.385 . S
O2 C7 1.255 . S
Cd3 O2 2.385 . S
Cd3 O4 2.317 . S
O4 Cd3 2.317 . S
O4 C5 1.232 . S
C5 O4 1.232 . S
C5 O6 1.218 . S
O6 C5 1.218 . S
C7 O0 1.275 . S
C7 O2 1.255 . S
C8 O9 1.258 . S
C8 O10 1.256 . S
O9 Cd1 2.381 . S
O9 C8 1.258 . S
O10 Cd1 2.378 . S
O10 C8 1.256 . S
O11 Cd12 2.300 1_655 S
O11 C18 1.275 1_655 S
Cd12 O11 2.300 1_455 S
Cd12 O20 2.381 1_455 S
Cd12 O21 2.378 . S
O13 Cd14 2.385 . S
O13 C18 1.255 . S
Cd14 O13 2.385 . S
Cd14 O15 2.317 . S
O15 Cd14 2.317 . S
O15 C16 1.232 . S
C16 O15 1.232 . S
C16 O17 1.218 . S
O17 C16 1.218 . S
C18 O11 1.275 1_455 S
C18 O13 1.255 . S
C19 O20 1.258 1_455 S
C19 O21 1.256 . S
O20 Cd12 2.381 1_655 S
O20 C19 1.258 1_655 S
O21 Cd12 2.378 . S
O21 C19 1.256 . S
O22 Cd23 2.300 1_565 S
O22 C29 1.275 1_565 S
Cd23 O22 2.300 1_545 S
Cd23 O31 2.381 1_545 S
Cd23 O32 2.378 . S
O24 Cd25 2.385 . S
O24 C29 1.255 . S
Cd25 O24 2.385 . S
Cd25 O26 2.317 . S
O26 Cd25 2.317 . S
O26 C27 1.232 . S
C27 O26 1.232 . S
C27 O28 1.218 . S
O28 C27 1.218 . S
C29 O22 1.275 1_545 S
C29 O24 1.255 . S
C30 O31 1.258 1_545 S
C30 O32 1.256 . S
O31 Cd23 2.381 1_565 S
O31 C30 1.258 1_565 S
O32 Cd23 2.378 . S
O32 C30 1.256 . S
O33 Cd34 2.300 . S
O33 C40 1.275 . S
Cd34 O33 2.300 . S
Cd34 O42 2.381 . S
Cd34 O43 2.378 . S
O35 Cd36 2.385 . S
O35 C40 1.255 . S
Cd36 O35 2.385 . S
Cd36 O37 2.317 . S
O37 Cd36 2.317 . S
O37 C38 1.232 . S
C38 O37 1.232 . S
C38 O39 1.218 . S
O39 C38 1.218 . S
C40 O33 1.275 . S
C40 O35 1.255 . S
C41 O42 1.258 . S
C41 O43 1.256 . S
O42 Cd34 2.381 . S
O42 C41 1.258 . S
O43 Cd34 2.378 . S
O43 C41 1.256 . S
O44 Cd45 2.300 . S
O44 C51 1.275 . S
Cd45 O44 2.300 . S
Cd45 O53 2.381 . S
Cd45 O54 2.378 . S
O46 Cd47 2.385 1_554 S
O46 C51 1.255 . S
Cd47 O46 2.385 1_556 S
Cd47 O48 2.317 . S
O48 Cd47 2.317 . S
O48 C49 1.232 . S
C49 O48 1.232 . S
C49 O50 1.218 . S
O50 C49 1.218 . S
C51 O44 1.275 . S
C51 O46 1.255 . S
C52 O53 1.258 . S
C52 O54 1.256 . S
O53 Cd45 2.381 . S
O53 C52 1.258 . S
O54 Cd45 2.378 . S
O54 C52 1.256 . S
O55 Cd56 2.300 1_655 S
O55 C62 1.275 1_655 S
Cd56 O55 2.300 1_455 S
Cd56 O64 2.381 1_455 S
Cd56 O65 2.378 . S
O57 Cd58 2.385 1_554 S
O57 C62 1.255 . S
Cd58 O57 2.385 1_556 S
Cd58 O59 2.317 . S
O59 Cd58 2.317 . S
O59 C60 1.232 . S
C60 O59 1.232 . S
C60 O61 1.218 . S
O61 C60 1.218 . S
C62 O55 1.275 1_455 S
C62 O57 1.255 . S
C63 O64 1.258 1_455 S
C63 O65 1.256 . S
O64 Cd56 2.381 1_655 S
O64 C63 1.258 1_655 S
O65 Cd56 2.378 . S
O65 C63 1.256 . S
O66 Cd67 2.300 1_565 S
O66 C73 1.275 1_565 S
Cd67 O66 2.300 1_545 S
Cd67 O75 2.381 1_545 S
Cd67 O76 2.378 . S
O68 Cd69 2.385 1_554 S
O68 C73 1.255 . S
Cd69 O68 2.385 1_556 S
Cd69 O70 2.317 . S
O70 Cd69 2.317 . S
O70 C71 1.232 . S
C71 O70 1.232 . S
C71 O72 1.218 . S
O72 C71 1.218 . S
C73 O66 1.275 1_545 S
C73 O68 1.255 . S
C74 O75 1.258 1_545 S
C74 O76 1.256 . S
O75 Cd67 2.381 1_565 S
O75 C74 1.258 1_565 S
O76 Cd67 2.378 . S
O76 C74 1.256 . S
O77 Cd78 2.300 . S
O77 C84 1.275 . S
Cd78 O77 2.300 . S
Cd78 O86 2.381 . S
Cd78 O87 2.378 . S
O79 Cd80 2.385 1_554 S
O79 C84 1.255 . S
Cd80 O79 2.385 1_556 S
Cd80 O81 2.317 . S
O81 Cd80 2.317 . S
O81 C82 1.232 . S
C82 O81 1.232 . S
C82 O83 1.218 . S
O83 C82 1.218 . S
C84 O77 1.275 . S
C84 O79 1.255 . S
C85 O86 1.258 . S
C85 O87 1.256 . S
O86 Cd78 2.381 . S
O86 C85 1.258 . S
O87 Cd78 2.378 . S
O87 C85 1.256 . S
La88 C90 2.928 . S
La88 O108 2.521 . S
La88 O109 2.628 . S
La88 O110 2.554 . S
La88 O111 2.757 1_565 S
La88 O112 2.470 . S
La88 O117 2.482 1_455 S
La88 O119 2.503 1_565 S
La89 C99 2.928 . S
La89 O111 2.482 1_655 S
La89 O113 2.503 1_545 S
La89 O114 2.521 . S
La89 O115 2.628 . S
La89 O116 2.554 . S
La89 O117 2.757 1_545 S
La89 O118 2.470 . S
C90 La88 2.928 . S
C90 C91 1.503 . S
C90 O108 1.261 . S
C90 O109 1.243 . S
C91 C90 1.503 . S
C91 C92 1.394 . S
C91 C96 1.373 . S
C92 C91 1.394 . S
C92 C93 1.380 1_556 S
C92 H120 0.930 . S
C93 C92 1.380 1_554 S
C93 C94 1.376 . S
C93 H121 0.930 . S
C94 C93 1.376 . S
C94 C95 1.370 . S
C95 C94 1.370 . S
C95 C96 1.396 1_554 S
C95 H122 0.929 1_455 S
C96 C91 1.373 . S
C96 C95 1.396 1_556 S
C96 H123 0.929 1_455 S
C97 O110 1.267 . S
C97 O111 1.273 1_565 S
C98 O112 1.258 1_655 S
C98 O113 1.256 . S
C99 La89 2.928 . S
C99 C100 1.503 . S
C99 O114 1.261 . S
C99 O115 1.243 . S
C100 C99 1.503 . S
C100 C101 1.394 . S
C100 C105 1.373 . S
C101 C100 1.394 . S
C101 C102 1.380 . S
C101 H124 0.930 . S
C102 C101 1.380 . S
C102 C103 1.376 . S
C102 H125 0.930 . S
C103 C102 1.376 . S
C103 C104 1.370 . S
C104 C103 1.370 . S
C104 C105 1.396 . S
C104 H126 0.929 1_655 S
C105 C100 1.373 . S
C105 C104 1.396 . S
C105 H127 0.929 1_655 S
C106 O116 1.240 . S
C106 O117 1.289 1_545 S
C107 O118 1.258 1_455 S
C107 O119 1.256 . S
O108 La88 2.521 . S
O108 C90 1.261 . S
O109 La88 2.628 . S
O109 C90 1.243 . S
O110 La88 2.554 . S
O110 C97 1.267 . S
O111 La88 2.757 1_545 S
O111 La89 2.482 1_455 S
O111 C97 1.273 1_545 S
O112 La88 2.470 . S
O112 C98 1.258 1_455 S
O113 La89 2.503 1_565 S
O113 C98 1.256 . S
O114 La89 2.521 . S
O114 C99 1.261 . S
O115 La89 2.628 . S
O115 C99 1.243 . S
O116 La89 2.554 . S
O116 C106 1.240 . S
O117 La88 2.482 1_655 S
O117 La89 2.757 1_565 S
O117 C106 1.289 1_565 S
O118 La89 2.470 . S
O118 C107 1.258 1_655 S
O119 La88 2.503 1_545 S
O119 C107 1.256 . S
H120 C92 0.930 . S
H121 C93 0.930 . S
H122 C95 0.929 1_655 S
H123 C96 0.929 1_655 S
H124 C101 0.930 . S
H125 C102 0.930 . S
H126 C104 0.929 1_455 S
H127 C105 0.929 1_455 S
La128 C130 2.928 . S
La128 O148 2.521 . S
La128 O149 2.628 . S
La128 O150 2.554 . S
La128 O151 2.757 . S
La128 O152 2.470 . S
La128 O157 2.482 1_545 S
La128 O159 2.503 . S
La129 C139 2.928 . S
La129 O151 2.482 1_565 S
La129 O153 2.503 . S
La129 O154 2.521 . S
La129 O155 2.628 . S
La129 O156 2.554 . S
La129 O157 2.757 . S
La129 O158 2.470 . S
C130 La128 2.928 . S
C130 C131 1.503 . S
C130 O148 1.261 . S
C130 O149 1.243 . S
C131 C130 1.503 . S
C131 C132 1.394 . S
C131 C136 1.373 . S
C132 C131 1.394 . S
C132 C133 1.380 1_556 S
C132 H160 0.930 . S
C133 C132 1.380 1_554 S
C133 C134 1.376 . S
C133 H161 0.930 . S
C134 C133 1.376 . S
C134 C135 1.370 . S
C135 C134 1.370 . S
C135 C136 1.396 1_554 S
C135 H162 0.929 1_545 S
C136 C131 1.373 . S
C136 C135 1.396 1_556 S
C136 H163 0.929 1_545 S
C137 O150 1.240 . S
C137 O151 1.289 . S
C138 O152 1.258 1_565 S
C138 O153 1.256 . S
C139 La129 2.928 . S
C139 C140 1.503 . S
C139 O154 1.261 . S
C139 O155 1.243 . S
C140 C139 1.503 . S
C140 C141 1.394 . S
C140 C145 1.373 . S
C141 C140 1.394 . S
C141 C142 1.380 . S
C141 H164 0.930 . S
C142 C141 1.380 . S
C142 C143 1.376 . S
C142 H165 0.930 . S
C143 C142 1.376 . S
C143 C144 1.370 . S
C144 C143 1.370 . S
C144 C145 1.396 . S
C144 H166 0.929 1_565 S
C145 C140 1.373 . S
C145 C144 1.396 . S
C145 H167 0.929 1_565 S
C146 O156 1.240 . S
C146 O157 1.289 . S
C147 O158 1.258 1_545 S
C147 O159 1.256 . S
O148 La128 2.521 . S
O148 C130 1.261 . S
O149 La128 2.628 . S
O149 C130 1.243 . S
O150 La128 2.554 . S
O150 C137 1.240 . S
O151 La128 2.757 . S
O151 La129 2.482 1_545 S
O151 C137 1.289 . S
O152 La128 2.470 . S
O152 C138 1.258 1_545 S
O153 La129 2.503 . S
O153 C138 1.256 . S
O154 La129 2.521 . S
O154 C139 1.261 . S
O155 La129 2.628 . S
O155 C139 1.243 . S
O156 La129 2.554 . S
O156 C146 1.240 . S
O157 La128 2.482 1_565 S
O157 La129 2.757 . S
O157 C146 1.289 . S
O158 La129 2.470 . S
O158 C147 1.258 1_565 S
O159 La128 2.503 . S
O159 C147 1.256 . S
H160 C132 0.930 . S
H161 C133 0.930 . S
H162 C135 0.929 1_565 S
H163 C136 0.929 1_565 S
H164 C141 0.930 . S
H165 C142 0.930 . S
H166 C144 0.929 1_545 S
H167 C145 0.929 1_545 S
La168 C170 2.928 . S
La168 O188 2.521 . S
La168 O189 2.628 . S
La168 O190 2.554 . S
La168 O191 2.757 . S
La168 O192 2.470 . S
La168 O197 2.482 . S
La168 O199 2.503 . S
La169 C179 2.928 . S
La169 O191 2.482 . S
La169 O193 2.503 . S
La169 O194 2.521 . S
La169 O195 2.628 . S
La169 O196 2.554 . S
La169 O197 2.757 . S
La169 O198 2.470 . S
C170 La168 2.928 . S
C170 C171 1.503 . S
C170 O188 1.261 . S
C170 O189 1.243 . S
C171 C170 1.503 . S
C171 C172 1.394 . S
C171 C176 1.373 . S
C172 C171 1.394 . S
C172 C173 1.380 1_556 S
C172 H200 0.930 . S
C173 C172 1.380 1_554 S
C173 C174 1.376 . S
C173 H201 0.930 . S
C174 C173 1.376 . S
C174 C175 1.370 . S
C175 C174 1.370 . S
C175 C176 1.396 1_554 S
C175 H202 0.929 . S
C176 C171 1.373 . S
C176 C175 1.396 1_556 S
C176 H203 0.929 . S
C177 O190 1.240 . S
C177 O191 1.289 . S
C178 O192 1.258 . S
C178 O193 1.256 . S
C179 La169 2.928 . S
C179 C180 1.503 . S
C179 O194 1.261 . S
C179 O195 1.243 . S
C180 C179 1.503 . S
C180 C181 1.394 . S
C180 C185 1.373 . S
C181 C180 1.394 . S
C181 C182 1.380 . S
C181 H204 0.930 . S
C182 C181 1.380 . S
C182 C183 1.376 . S
C182 H205 0.930 . S
C183 C182 1.376 . S
C183 C184 1.370 . S
C184 C183 1.370 . S
C184 C185 1.396 . S
C184 H206 0.929 . S
C185 C180 1.373 . S
C185 C184 1.396 . S
C185 H207 0.929 . S
C186 O196 1.240 . S
C186 O197 1.289 . S
C187 O198 1.258 . S
C187 O199 1.256 . S
O188 La168 2.521 . S
O188 C170 1.261 . S
O189 La168 2.628 . S
O189 C170 1.243 . S
O190 La168 2.554 . S
O190 C177 1.240 . S
O191 La168 2.757 . S
O191 La169 2.482 . S
O191 C177 1.289 . S
O192 La168 2.470 . S
O192 C178 1.258 . S
O193 La169 2.503 . S
O193 C178 1.256 . S
O194 La169 2.521 . S
O194 C179 1.261 . S
O195 La169 2.628 . S
O195 C179 1.243 . S
O196 La169 2.554 . S
O196 C186 1.240 . S
O197 La168 2.482 . S
O197 La169 2.757 . S
O197 C186 1.289 . S
O198 La169 2.470 . S
O198 C187 1.258 . S
O199 La168 2.503 . S
O199 C187 1.256 . S
H200 C172 0.930 . S
H201 C173 0.930 . S
H202 C175 0.929 . S
H203 C176 0.929 . S
H204 C181 0.930 . S
H205 C182 0.930 . S
H206 C184 0.929 . S
H207 C185 0.929 . S
La208 C210 2.928 . S
La208 O228 2.521 . S
La208 O229 2.628 . S
La208 O230 2.554 . S
La208 O231 2.757 1_655 S
La208 O232 2.470 . S
La208 O237 2.482 . S
La208 O239 2.503 1_655 S
La209 C219 2.928 . S
La209 O231 2.482 . S
La209 O233 2.503 1_455 S
La209 O234 2.521 . S
La209 O235 2.628 . S
La209 O236 2.554 . S
La209 O237 2.757 1_455 S
La209 O238 2.470 . S
C210 La208 2.928 . S
C210 C211 1.503 . S
C210 O228 1.261 . S
C210 O229 1.243 . S
C211 C210 1.503 . S
C211 C212 1.394 . S
C211 C216 1.373 . S
C212 C211 1.394 . S
C212 C213 1.380 1_556 S
C212 H240 0.930 . S
C213 C212 1.380 1_554 S
C213 C214 1.376 . S
C213 H241 0.930 . S
C214 C213 1.376 . S
C214 C215 1.370 . S
C215 C214 1.370 . S
C215 C216 1.396 1_554 S
C215 H242 0.929 . S
C216 C211 1.373 . S
C216 C215 1.396 1_556 S
C216 H243 0.929 . S
C217 O230 1.262 . S
C217 O231 1.276 1_655 S
C218 O232 1.258 . S
C218 O233 1.256 . S
C219 La209 2.928 . S
C219 C220 1.503 . S
C219 O234 1.261 . S
C219 O235 1.243 . S
C220 C219 1.503 . S
C220 C221 1.394 . S
C220 C225 1.373 . S
C221 C220 1.394 . S
C221 C222 1.380 . S
C221 H244 0.930 . S
C222 C221 1.380 . S
C222 C223 1.376 . S
C222 H245 0.930 . S
C223 C222 1.376 . S
C223 C224 1.370 . S
C224 C223 1.370 . S
C224 C225 1.396 . S
C224 H246 0.929 . S
C225 C220 1.373 . S
C225 C224 1.396 . S
C225 H247 0.929 . S
C226 O236 1.240 . S
C226 O237 1.289 1_455 S
C227 O238 1.258 . S
C227 O239 1.256 . S
O228 La208 2.521 . S
O228 C210 1.261 . S
O229 La208 2.628 . S
O229 C210 1.243 . S
O230 La208 2.554 . S
O230 C217 1.262 . S
O231 La208 2.757 1_455 S
O231 La209 2.482 . S
O231 C217 1.276 1_455 S
O232 La208 2.470 . S
O232 C218 1.258 . S
O233 La209 2.503 1_655 S
O233 C218 1.256 . S
O234 La209 2.521 . S
O234 C219 1.261 . S
O235 La209 2.628 . S
O235 C219 1.243 . S
O236 La209 2.554 . S
O236 C226 1.240 . S
O237 La208 2.482 . S
O237 La209 2.757 1_655 S
O237 C226 1.289 1_655 S
O238 La209 2.470 . S
O238 C227 1.258 . S
O239 La208 2.503 1_455 S
O239 C227 1.256 . S
H240 C212 0.930 . S
H241 C213 0.930 . S
H242 C215 0.929 . S
H243 C216 0.929 . S
H244 C221 0.930 . S
H245 C222 0.930 . S
H246 C224 0.929 . S
H247 C225 0.929 . S
H248 C260 0.930 . S
H249 C262 0.930 . S
H250 C263 0.930 . S
H251 C267 0.959 . S
H252 C267 0.959 . S
H253 C267 0.961 . S
H254 C268 0.960 . S
H255 C268 0.961 . S
H256 C268 0.959 . S
H257 C271 0.929 . S
H258 C272 0.931 . S
H259 C274 0.930 . S
C260 H248 0.930 . S
C260 C261 1.399 1_565 S
C260 C265 1.399 . S
C261 C260 1.399 1_545 S
C261 C262 1.376 . S
C262 H249 0.930 . S
C262 C261 1.376 . S
C262 C263 1.388 . S
C263 H250 0.930 . S
C263 C262 1.388 . S
C263 C264 1.390 . S
C264 C263 1.390 . S
C264 C265 1.394 1_545 S
C264 C270 1.465 . S
C265 C260 1.399 . S
C265 C264 1.394 1_565 S
C265 C266 1.516 . S
C266 C265 1.516 . S
C266 C267 1.502 . S
C266 C268 1.561 . S
C266 C269 1.526 . S
C267 H251 0.959 . S
C267 H252 0.959 . S
C267 H253 0.961 . S
C267 C266 1.502 . S
C268 H254 0.960 . S
C268 H255 0.961 . S
C268 H256 0.959 . S
C268 C266 1.561 . S
C269 C266 1.526 . S
C269 C270 1.396 1_565 S
C269 C274 1.390 . S
C270 C264 1.465 . S
C270 C269 1.396 1_545 S
C270 C271 1.399 . S
C271 H257 0.929 . S
C271 C270 1.399 . S
C271 C272 1.385 . S
C272 H258 0.931 . S
C272 C271 1.385 . S
C272 C273 1.389 . S
C273 C272 1.389 . S
C273 C274 1.387 1_545 S
C274 H259 0.930 . S
C274 C269 1.390 . S
C274 C273 1.387 1_565 S
H275 C287 0.930 . S
H276 C289 0.930 . S
H277 C290 0.930 . S
H278 C294 0.959 . S
H279 C294 0.959 . S
H280 C294 0.961 . S
H281 C295 0.960 . S
H282 C295 0.961 . S
H283 C295 0.959 . S
H284 C298 0.929 . S
H285 C299 0.931 . S
H286 C301 0.930 . S
C287 H275 0.930 . S
C287 C288 1.399 . S
C287 C292 1.399 . S
C288 C287 1.399 . S
C288 C289 1.376 . S
C289 H276 0.930 . S
C289 C288 1.376 . S
C289 C290 1.388 . S
C290 H277 0.930 . S
C290 C289 1.388 . S
C290 C291 1.390 . S
C291 C290 1.390 . S
C291 C292 1.394 . S
C291 C297 1.465 . S
C292 C287 1.399 . S
C292 C291 1.394 . S
C292 C293 1.516 . S
C293 C292 1.516 . S
C293 C294 1.502 . S
C293 C295 1.561 . S
C293 C296 1.526 . S
C294 H278 0.959 . S
C294 H279 0.959 . S
C294 H280 0.961 . S
C294 C293 1.502 . S
C295 H281 0.960 . S
C295 H282 0.961 . S
C295 H283 0.959 . S
C295 C293 1.561 . S
C296 C293 1.526 . S
C296 C297 1.396 . S
C296 C301 1.390 . S
C297 C291 1.465 . S
C297 C296 1.396 . S
C297 C298 1.399 . S
C298 H284 0.929 . S
C298 C297 1.399 . S
C298 C299 1.385 . S
C299 H285 0.931 . S
C299 C298 1.385 . S
C299 C300 1.389 . S
C300 C299 1.389 . S
C300 C301 1.387 . S
C301 H286 0.930 . S
C301 C296 1.390 . S
C301 C300 1.387 . S
H302 C314 0.930 . S
H303 C316 0.930 . S
H304 C317 0.930 . S
H305 C321 0.959 . S
H306 C321 0.959 . S
H307 C321 0.961 . S
H308 C322 0.960 . S
H309 C322 0.961 . S
H310 C322 0.959 . S
H311 C325 0.929 . S
H312 C326 0.931 . S
H313 C328 0.930 . S
C314 H302 0.930 . S
C314 C315 1.399 . S
C314 C319 1.399 . S
C315 C314 1.399 . S
C315 C316 1.376 . S
C316 H303 0.930 . S
C316 C315 1.376 . S
C316 C317 1.388 . S
C317 H304 0.930 . S
C317 C316 1.388 . S
C317 C318 1.390 . S
C318 C317 1.390 . S
C318 C319 1.394 . S
C318 C324 1.465 . S
C319 C314 1.399 . S
C319 C318 1.394 . S
C319 C320 1.516 . S
C320 C319 1.516 . S
C320 C321 1.502 . S
C320 C322 1.561 . S
C320 C323 1.526 . S
C321 H305 0.959 . S
C321 H306 0.959 . S
C321 H307 0.961 . S
C321 C320 1.502 . S
C322 H308 0.960 . S
C322 H309 0.961 . S
C322 H310 0.959 . S
C322 C320 1.561 . S
C323 C320 1.526 . S
C323 C324 1.396 . S
C323 C328 1.390 . S
C324 C318 1.465 . S
C324 C323 1.396 . S
C324 C325 1.399 . S
C325 H311 0.929 . S
C325 C324 1.399 . S
C325 C326 1.385 . S
C326 H312 0.931 . S
C326 C325 1.385 . S
C326 C327 1.389 . S
C327 C326 1.389 . S
C327 C328 1.387 . S
C328 H313 0.930 . S
C328 C323 1.390 . S
C328 C327 1.387 . S
H329 C341 0.930 . S
H330 C343 0.930 . S
H331 C344 0.930 . S
H332 C348 0.959 . S
H333 C348 0.959 . S
H334 C348 0.961 . S
H335 C349 0.960 . S
H336 C349 0.961 . S
H337 C349 0.959 . S
H338 C352 0.929 . S
H339 C353 0.931 . S
H340 C355 0.930 . S
C341 H329 0.930 . S
C341 C342 1.399 1_655 S
C341 C346 1.399 . S
C342 C341 1.399 1_455 S
C342 C343 1.376 . S
C343 H330 0.930 . S
C343 C342 1.376 . S
C343 C344 1.388 . S
C344 H331 0.930 . S
C344 C343 1.388 . S
C344 C345 1.390 . S
C345 C344 1.390 . S
C345 C346 1.394 1_455 S
C345 C351 1.465 . S
C346 C341 1.399 . S
C346 C345 1.394 1_655 S
C346 C347 1.516 . S
C347 C346 1.516 . S
C347 C348 1.502 . S
C347 C349 1.561 . S
C347 C350 1.526 . S
C348 H332 0.959 . S
C348 H333 0.959 . S
C348 H334 0.961 . S
C348 C347 1.502 . S
C349 H335 0.960 . S
C349 H336 0.961 . S
C349 H337 0.959 . S
C349 C347 1.561 . S
C350 C347 1.526 . S
C350 C351 1.396 1_655 S
C350 C355 1.390 . S
C351 C345 1.465 . S
C351 C350 1.396 1_455 S
C351 C352 1.399 . S
C352 H338 0.929 . S
C352 C351 1.399 . S
C352 C353 1.385 . S
C353 H339 0.931 . S
C353 C352 1.385 . S
C353 C354 1.389 . S
C354 C353 1.389 . S
C354 C355 1.387 1_455 S
C355 H340 0.930 . S
C355 C350 1.390 . S
C355 C354 1.387 1_655 S
H356 C368 0.930 . S
H357 C370 0.930 . S
H358 C371 0.930 . S
H359 C375 0.959 . S
H360 C375 0.959 . S
H361 C375 0.961 . S
H362 C376 0.960 . S
H363 C376 0.961 1_556 S
H364 C376 0.959 1_556 S
H365 C379 0.929 . S
H366 C380 0.931 . S
H367 C382 0.930 . S
C368 H356 0.930 . S
C368 C369 1.399 1_565 S
C368 C373 1.399 . S
C369 C368 1.399 1_545 S
C369 C370 1.376 . S
C370 H357 0.930 . S
C370 C369 1.376 . S
C370 C371 1.388 . S
C371 H358 0.930 . S
C371 C370 1.388 . S
C371 C372 1.390 . S
C372 C371 1.390 . S
C372 C373 1.394 1_545 S
C372 C378 1.465 . S
C373 C368 1.399 . S
C373 C372 1.394 1_565 S
C373 C374 1.516 . S
C374 C373 1.516 . S
C374 C375 1.502 . S
C374 C376 1.561 . S
C374 C377 1.523 1_554 S
C375 H359 0.959 . S
C375 H360 0.959 . S
C375 H361 0.961 . S
C375 C374 1.502 . S
C376 H362 0.960 . S
C376 H363 0.961 1_554 S
C376 H364 0.959 1_554 S
C376 C374 1.561 . S
C377 C374 1.523 1_556 S
C377 C378 1.396 1_566 S
C377 C382 1.392 . S
C378 C372 1.465 . S
C378 C377 1.396 1_544 S
C378 C379 1.399 1_554 S
C379 H365 0.929 . S
C379 C378 1.399 1_556 S
C379 C380 1.385 . S
C380 H366 0.931 . S
C380 C379 1.385 . S
C380 C381 1.389 . S
C381 C380 1.389 . S
C381 C382 1.387 1_545 S
C382 H367 0.930 . S
C382 C377 1.392 . S
C382 C381 1.387 1_565 S
H383 C395 0.930 . S
H384 C397 0.930 . S
H385 C398 0.930 . S
H386 C402 0.959 . S
H387 C402 0.959 . S
H388 C402 0.961 . S
H389 C403 0.960 . S
H390 C403 0.961 . S
H391 C403 0.959 . S
H392 C406 0.929 . S
H393 C407 0.931 . S
H394 C409 0.930 . S
C395 H383 0.930 . S
C395 C396 1.399 . S
C395 C400 1.399 . S
C396 C395 1.399 . S
C396 C397 1.376 . S
C397 H384 0.930 . S
C397 C396 1.376 . S
C397 C398 1.388 . S
C398 H385 0.930 . S
C398 C397 1.388 . S
C398 C399 1.390 . S
C399 C398 1.390 . S
C399 C400 1.394 . S
C399 C405 1.465 . S
C400 C395 1.399 . S
C400 C399 1.394 . S
C400 C401 1.516 1_554 S
C401 C400 1.516 1_556 S
C401 C402 1.502 . S
C401 C403 1.561 . S
C401 C404 1.526 . S
C402 H386 0.959 . S
C402 H387 0.959 . S
C402 H388 0.961 . S
C402 C401 1.502 . S
C403 H389 0.960 . S
C403 H390 0.961 . S
C403 H391 0.959 . S
C403 C401 1.561 . S
C404 C401 1.526 . S
C404 C405 1.396 1_556 S
C404 C409 1.390 . S
C405 C399 1.465 . S
C405 C404 1.396 1_554 S
C405 C406 1.399 . S
C406 H392 0.929 . S
C406 C405 1.399 . S
C406 C407 1.385 1_554 S
C407 H393 0.931 . S
C407 C406 1.385 1_556 S
C407 C408 1.389 . S
C408 C407 1.389 . S
C408 C409 1.387 . S
C409 H394 0.930 . S
C409 C404 1.390 . S
C409 C408 1.387 . S
H410 C422 0.930 . S
H411 C424 0.930 . S
H412 C425 0.930 . S
H413 C429 0.959 . S
H414 C429 0.959 . S
H415 C429 0.961 1_554 S
H416 C430 0.960 . S
H417 C430 0.961 . S
H418 C430 0.959 . S
H419 C433 0.929 1_554 S
H420 C434 0.931 . S
H421 C436 0.930 . S
C422 H410 0.930 . S
C422 C423 1.399 . S
C422 C427 1.399 . S
C423 C422 1.399 . S
C423 C424 1.376 . S
C424 H411 0.930 . S
C424 C423 1.376 . S
C424 C425 1.388 . S
C425 H412 0.930 . S
C425 C424 1.388 . S
C425 C426 1.390 . S
C426 C425 1.390 . S
C426 C427 1.394 . S
C426 C432 1.465 . S
C427 C422 1.399 . S
C427 C426 1.394 . S
C427 C428 1.516 . S
C428 C427 1.516 . S
C428 C429 1.502 1_554 S
C428 C430 1.561 . S
C428 C431 1.526 1_554 S
C429 H413 0.959 . S
C429 H414 0.959 . S
C429 H415 0.961 1_556 S
C429 C428 1.502 1_556 S
C430 H416 0.960 . S
C430 H417 0.961 . S
C430 H418 0.959 . S
C430 C428 1.561 . S
C431 C428 1.526 1_556 S
C431 C432 1.396 1_556 S
C431 C436 1.390 . S
C432 C426 1.465 . S
C432 C431 1.396 1_554 S
C432 C433 1.399 1_554 S
C433 H419 0.929 1_556 S
C433 C432 1.399 1_556 S
C433 C434 1.385 . S
C434 H420 0.931 . S
C434 C433 1.385 . S
C434 C435 1.389 . S
C435 C434 1.389 . S
C435 C436 1.387 . S
C436 H421 0.930 . S
C436 C431 1.390 . S
C436 C435 1.387 . S
H437 C449 0.930 . S
H438 C451 0.930 . S
H439 C452 0.930 . S
H440 C456 0.959 1_655 S
H441 C456 0.959 . S
H442 C456 0.961 . S
H443 C457 0.960 1_554 S
H444 C457 0.961 . S
H445 C457 0.959 1_554 S
H446 C460 0.929 . S
H447 C461 0.931 . S
H448 C463 0.930 . S
C449 H437 0.930 . S
C449 C450 1.396 1_455 S
C449 C454 1.399 . S
C450 C449 1.396 1_655 S
C450 C451 1.380 . S
C451 H438 0.930 . S
C451 C450 1.380 . S
C451 C452 1.388 . S
C452 H439 0.930 . S
C452 C451 1.388 . S
C452 C453 1.390 . S
C453 C452 1.390 . S
C453 C454 1.394 1_655 S
C453 C459 1.465 . S
C454 C449 1.399 . S
C454 C453 1.394 1_455 S
C454 C455 1.516 1_554 S
C455 C454 1.516 1_556 S
C455 C456 1.502 . S
C455 C457 1.561 . S
C455 C458 1.526 . S
C456 H440 0.959 1_455 S
C456 H441 0.959 . S
C456 H442 0.961 . S
C456 C455 1.502 . S
C457 H443 0.960 1_556 S
C457 H444 0.961 . S
C457 H445 0.959 1_556 S
C457 C455 1.561 . S
C458 C455 1.526 . S
C458 C459 1.396 1_456 S
C458 C463 1.390 . S
C459 C453 1.465 . S
C459 C458 1.396 1_654 S
C459 C460 1.399 . S
C460 H446 0.929 . S
C460 C459 1.399 . S
C460 C461 1.385 1_554 S
C461 H447 0.931 . S
C461 C460 1.385 1_556 S
C461 C462 1.389 . S
C462 C461 1.389 . S
C462 C463 1.387 1_655 S
C463 H448 0.930 . S
C463 C458 1.390 . S
C463 C462 1.387 1_455 S
H464 C476 0.930 . S
H465 C478 0.930 . S
H466 C479 0.930 . S
H467 C483 0.959 . S
H468 C483 0.959 . S
H469 C483 0.961 . S
H470 C484 0.960 . S
H471 C484 0.961 . S
H472 C484 0.959 . S
H473 C487 0.929 . S
H474 C488 0.931 . S
H475 C490 0.930 . S
C476 H464 0.930 . S
C476 C477 1.399 1_455 S
C476 C481 1.399 1_455 S
C477 C476 1.399 1_655 S
C477 C478 1.376 . S
C478 H465 0.930 . S
C478 C477 1.376 . S
C478 C479 1.388 . S
C479 H466 0.930 . S
C479 C478 1.388 . S
C479 C480 1.390 . S
C480 C479 1.390 . S
C480 C481 1.394 . S
C480 C486 1.465 . S
C481 C476 1.399 1_655 S
C481 C480 1.394 . S
C481 C482 1.516 . S
C482 C481 1.516 . S
C482 C483 1.502 1_655 S
C482 C484 1.561 . S
C482 C485 1.526 . S
C483 H467 0.959 . S
C483 H468 0.959 . S
C483 H469 0.961 . S
C483 C482 1.502 1_455 S
C484 H470 0.960 . S
C484 H471 0.961 . S
C484 H472 0.959 . S
C484 C482 1.561 . S
C485 C482 1.526 . S
C485 C486 1.396 . S
C485 C490 1.390 . S
C486 C480 1.465 . S
C486 C485 1.396 . S
C486 C487 1.399 . S
C487 H473 0.929 . S
C487 C486 1.399 . S
C487 C488 1.385 . S
C488 H474 0.931 . S
C488 C487 1.385 . S
C488 C489 1.389 . S
C489 C488 1.389 . S
C489 C490 1.387 . S
C490 H475 0.930 . S
C490 C485 1.390 . S
C490 C489 1.387 . S
H491 C503 0.930 . S
H492 C505 0.930 . S
H493 C506 0.938 . S
H494 C510 0.959 . S
H495 C510 0.959 . S
H496 C510 0.961 . S
H497 C511 0.960 . S
H498 C511 0.961 . S
H499 C511 0.959 . S
H500 C514 0.929 . S
H501 C515 0.931 . S
H502 C517 0.930 . S
C503 H491 0.930 . S
C503 C504 1.376 1_565 S
C503 C508 1.399 . S
C504 C503 1.376 1_545 S
C504 C505 1.388 . S
C505 H492 0.930 . S
C505 C504 1.388 . S
C505 C506 1.396 . S
C506 H493 0.938 . S
C506 C505 1.396 . S
C506 C507 1.375 1_545 S
C507 C506 1.375 1_565 S
C507 C508 1.394 . S
C507 C513 1.465 . S
C508 C503 1.399 . S
C508 C507 1.394 . S
C508 C509 1.516 . S
C509 C508 1.516 . S
C509 C510 1.502 . S
C509 C511 1.561 . S
C509 C512 1.526 . S
C510 H494 0.959 . S
C510 H495 0.959 . S
C510 H496 0.961 . S
C510 C509 1.502 . S
C511 H497 0.960 . S
C511 H498 0.961 . S
C511 H499 0.959 . S
C511 C509 1.561 . S
C512 C509 1.526 . S
C512 C513 1.396 . S
C512 C517 1.390 . S
C513 C507 1.465 . S
C513 C512 1.396 . S
C513 C514 1.399 . S
C514 H500 0.929 . S
C514 C513 1.399 . S
C514 C515 1.385 . S
C515 H501 0.931 . S
C515 C514 1.385 . S
C515 C516 1.389 . S
C516 C515 1.389 . S
C516 C517 1.387 . S
C517 H502 0.930 . S
C517 C512 1.390 . S
C517 C516 1.387 . S
H518 C530 0.930 . S
H519 C532 0.930 . S
H520 C533 0.930 . S
H521 C537 0.959 . S
H522 C537 0.959 . S
H523 C537 0.961 . S
H524 C538 0.960 . S
H525 C538 0.961 . S
H526 C538 0.959 . S
H527 C541 0.929 . S
H528 C542 0.931 . S
H529 C544 0.930 . S
C530 H518 0.930 . S
C530 C531 1.399 . S
C530 C535 1.399 . S
C531 C530 1.399 . S
C531 C532 1.376 . S
C532 H519 0.930 . S
C532 C531 1.376 . S
C532 C533 1.388 . S
C533 H520 0.930 . S
C533 C532 1.388 . S
C533 C534 1.390 . S
C534 C533 1.390 . S
C534 C535 1.394 . S
C534 C540 1.465 . S
C535 C530 1.399 . S
C535 C534 1.394 . S
C535 C536 1.516 . S
C536 C535 1.516 . S
C536 C537 1.502 . S
C536 C538 1.561 . S
C536 C539 1.526 . S
C537 H521 0.959 . S
C537 H522 0.959 . S
C537 H523 0.961 . S
C537 C536 1.502 . S
C538 H524 0.960 . S
C538 H525 0.961 . S
C538 H526 0.959 . S
C538 C536 1.561 . S
C539 C536 1.526 . S
C539 C540 1.396 . S
C539 C544 1.390 . S
C540 C534 1.465 . S
C540 C539 1.396 . S
C540 C541 1.399 . S
C541 H527 0.929 . S
C541 C540 1.399 . S
C541 C542 1.385 . S
C542 H528 0.931 . S
C542 C541 1.385 . S
C542 C543 1.389 . S
C543 C542 1.389 . S
C543 C544 1.387 . S
C544 H529 0.930 . S
C544 C539 1.390 . S
C544 C543 1.387 . S
H545 C557 0.930 . S
H546 C559 0.930 . S
H547 C560 0.930 . S
H548 C564 0.959 . S
H549 C564 0.959 . S
H550 C564 0.961 . S
H551 C565 0.960 . S
H552 C565 0.961 . S
H553 C565 0.959 . S
H554 C568 0.929 . S
H555 C569 0.931 . S
H556 C571 0.930 . S
C557 H545 0.930 . S
C557 C558 1.399 . S
C557 C562 1.399 . S
C558 C557 1.399 . S
C558 C559 1.376 . S
C559 H546 0.930 . S
C559 C558 1.376 . S
C559 C560 1.388 . S
C560 H547 0.930 . S
C560 C559 1.388 . S
C560 C561 1.390 . S
C561 C560 1.390 . S
C561 C562 1.394 . S
C561 C567 1.465 . S
C562 C557 1.399 . S
C562 C561 1.394 . S
C562 C563 1.516 . S
C563 C562 1.516 . S
C563 C564 1.502 . S
C563 C565 1.561 . S
C563 C566 1.526 . S
C564 H548 0.959 . S
C564 H549 0.959 . S
C564 H550 0.961 . S
C564 C563 1.502 . S
C565 H551 0.960 . S
C565 H552 0.961 . S
C565 H553 0.959 . S
C565 C563 1.561 . S
C566 C563 1.526 . S
C566 C567 1.396 . S
C566 C571 1.390 . S
C567 C561 1.465 . S
C567 C566 1.396 . S
C567 C568 1.399 . S
C568 H554 0.929 . S
C568 C567 1.399 . S
C568 C569 1.385 . S
C569 H555 0.931 . S
C569 C568 1.385 . S
C569 C570 1.389 . S
C570 C569 1.389 . S
C570 C571 1.387 . S
C571 H556 0.930 . S
C571 C566 1.390 . S
C571 C570 1.387 . S
H572 C584 0.930 . S
H573 C586 0.930 . S
H574 C587 0.930 . S
H575 C591 0.959 . S
H576 C591 0.959 . S
H577 C591 0.961 . S
H578 C592 0.960 . S
H579 C592 0.961 . S
H580 C592 0.959 . S
H581 C595 0.929 . S
H582 C596 0.931 1_556 S
H583 C598 0.930 . S
C584 H572 0.930 . S
C584 C585 1.399 1_655 S
C584 C589 1.399 1_655 S
C585 C584 1.399 1_455 S
C585 C586 1.376 . S
C586 H573 0.930 . S
C586 C585 1.376 . S
C586 C587 1.388 . S
C587 H574 0.930 . S
C587 C586 1.388 . S
C587 C588 1.390 . S
C588 C587 1.390 . S
C588 C589 1.394 . S
C588 C594 1.465 . S
C589 C584 1.399 1_455 S
C589 C588 1.394 . S
C589 C590 1.516 . S
C590 C589 1.516 . S
C590 C591 1.502 1_455 S
C590 C592 1.561 . S
C590 C593 1.526 . S
C591 H575 0.959 . S
C591 H576 0.959 . S
C591 H577 0.961 . S
C591 C590 1.502 1_655 S
C592 H578 0.960 . S
C592 H579 0.961 . S
C592 H580 0.959 . S
C592 C590 1.561 . S
C593 C590 1.526 . S
C593 C594 1.396 . S
C593 C598 1.390 . S
C594 C588 1.465 . S
C594 C593 1.396 . S
C594 C595 1.399 . S
C595 H581 0.929 . S
C595 C594 1.399 . S
C595 C596 1.385 . S
C596 H582 0.931 1_554 S
C596 C595 1.385 . S
C596 C597 1.389 . S
C597 C596 1.389 . S
C597 C598 1.387 . S
C598 H583 0.930 . S
C598 C593 1.390 . S
C598 C597 1.387 . S
H599 C611 0.930 . S
H600 C613 0.930 . S
H601 C614 0.930 . S
H602 C618 0.959 1_546 S
H603 C618 0.959 1_556 S
H604 C618 0.961 . S
H605 C619 0.960 . S
H606 C619 0.961 . S
H607 C619 0.959 . S
H608 C622 0.929 . S
H609 C623 0.931 . S
H610 C625 0.930 1_556 S
C611 H599 0.930 . S
C611 C612 1.400 1_565 S
C611 C616 1.399 1_565 S
C612 C611 1.400 1_545 S
C612 C613 1.374 . S
C613 H600 0.930 . S
C613 C612 1.374 . S
C613 C614 1.388 . S
C614 H601 0.930 . S
C614 C613 1.388 . S
C614 C615 1.390 . S
C615 C614 1.390 . S
C615 C616 1.394 . S
C615 C621 1.465 . S
C616 C611 1.399 1_545 S
C616 C615 1.394 . S
C616 C617 1.516 1_545 S
C617 C616 1.516 1_565 S
C617 C618 1.502 . S
C617 C619 1.561 . S
C617 C620 1.526 1_565 S
C618 H602 0.959 1_564 S
C618 H603 0.959 1_554 S
C618 H604 0.961 . S
C618 C617 1.502 . S
C619 H605 0.960 . S
C619 H606 0.961 . S
C619 H607 0.959 . S
C619 C617 1.561 . S
C620 C617 1.526 1_545 S
C620 C621 1.396 . S
C620 C625 1.390 . S
C621 C615 1.465 . S
C621 C620 1.396 . S
C621 C622 1.399 . S
C622 H608 0.929 . S
C622 C621 1.399 . S
C622 C623 1.385 . S
C623 H609 0.931 . S
C623 C622 1.385 . S
C623 C624 1.389 . S
C624 C623 1.389 . S
C624 C625 1.387 . S
C625 H610 0.930 1_554 S
C625 C620 1.390 . S
C625 C624 1.387 . S
H626 C638 0.930 . S
H627 C640 0.930 . S
H628 C641 0.930 . S
H629 C645 0.959 . S
H630 C645 0.959 1_556 S
H631 C645 0.961 . S
H632 C646 0.960 . S
H633 C646 0.961 . S
H634 C646 0.959 1_554 S
H635 C649 0.929 . S
H636 C650 0.931 . S
H637 C652 0.930 1_556 S
C638 H626 0.930 . S
C638 C639 1.399 . S
C638 C643 1.399 . S
C639 C638 1.399 . S
C639 C640 1.376 . S
C640 H627 0.930 . S
C640 C639 1.376 . S
C640 C641 1.388 . S
C641 H628 0.930 . S
C641 C640 1.388 . S
C641 C642 1.390 . S
C642 C641 1.390 . S
C642 C643 1.394 . S
C642 C648 1.465 . S
C643 C638 1.399 . S
C643 C642 1.394 . S
C643 C644 1.516 . S
C644 C643 1.516 . S
C644 C645 1.502 . S
C644 C646 1.561 1_554 S
C644 C647 1.526 . S
C645 H629 0.959 . S
C645 H630 0.959 1_554 S
C645 H631 0.961 . S
C645 C644 1.502 . S
C646 H632 0.960 . S
C646 H633 0.961 . S
C646 H634 0.959 1_556 S
C646 C644 1.561 1_556 S
C647 C644 1.526 . S
C647 C648 1.396 . S
C647 C652 1.390 . S
C648 C642 1.465 . S
C648 C647 1.396 . S
C648 C649 1.399 . S
C649 H635 0.929 . S
C649 C648 1.399 . S
C649 C650 1.385 . S
C650 H636 0.931 . S
C650 C649 1.385 . S
C650 C651 1.389 . S
C651 C650 1.389 . S
C651 C652 1.387 . S
C652 H637 0.930 1_554 S
C652 C647 1.390 . S
C652 C651 1.387 . S
H653 C665 0.930 . S
H654 C667 0.930 . S
H655 C668 0.930 . S
H656 C672 0.959 . S
H657 C672 0.959 . S
H658 C672 0.961 . S
H659 C673 0.960 . S
H660 C673 0.961 . S
H661 C673 0.959 . S
H662 C676 0.929 1_556 S
H663 C677 0.931 . S
H664 C679 0.930 . S
C665 H653 0.930 . S
C665 C666 1.399 . S
C665 C670 1.399 . S
C666 C665 1.399 . S
C666 C667 1.376 . S
C667 H654 0.930 . S
C667 C666 1.376 . S
C667 C668 1.388 . S
C668 H655 0.930 . S
C668 C667 1.388 . S
C668 C669 1.390 . S
C669 C668 1.390 . S
C669 C670 1.394 . S
C669 C675 1.465 . S
C670 C665 1.399 . S
C670 C669 1.394 . S
C670 C671 1.516 . S
C671 C670 1.516 . S
C671 C672 1.502 . S
C671 C673 1.561 . S
C671 C674 1.526 . S
C672 H656 0.959 . S
C672 H657 0.959 . S
C672 H658 0.961 . S
C672 C671 1.502 . S
C673 H659 0.960 . S
C673 H660 0.961 . S
C673 H661 0.959 . S
C673 C671 1.561 . S
C674 C671 1.526 . S
C674 C675 1.396 . S
C674 C679 1.390 . S
C675 C669 1.465 . S
C675 C674 1.396 . S
C675 C676 1.399 . S
C676 H662 0.929 1_554 S
C676 C675 1.399 . S
C676 C677 1.385 1_554 S
C677 H663 0.931 . S
C677 C676 1.385 1_556 S
C677 C678 1.389 1_556 S
C678 C677 1.389 1_554 S
C678 C679 1.387 . S
C679 H664 0.930 . S
C679 C674 1.390 . S
C679 C678 1.387 . S
H680 C692 0.929 1_655 S
H681 C694 0.930 . S
H682 C695 0.930 . S
H683 C699 0.959 . S
H684 C699 0.959 . S
H685 C699 0.961 . S
H686 C700 0.960 . S
H687 C700 0.961 . S
H688 C700 0.959 . S
H689 C703 0.929 . S
H690 C704 0.931 . S
H691 C706 0.930 . S
C692 H680 0.929 1_455 S
C692 C693 1.400 . S
C692 C697 1.400 . S
C693 C692 1.400 . S
C693 C694 1.376 . S
C694 H681 0.930 . S
C694 C693 1.376 . S
C694 C695 1.388 . S
C695 H682 0.930 . S
C695 C694 1.388 . S
C695 C696 1.390 . S
C696 C695 1.390 . S
C696 C697 1.394 . S
C696 C702 1.465 . S
C697 C692 1.400 . S
C697 C696 1.394 . S
C697 C698 1.516 . S
C698 C697 1.516 . S
C698 C699 1.502 1_455 S
C698 C700 1.561 . S
C698 C701 1.526 . S
C699 H683 0.959 . S
C699 H684 0.959 . S
C699 H685 0.961 . S
C699 C698 1.502 1_655 S
C700 H686 0.960 . S
C700 H687 0.961 . S
C700 H688 0.959 . S
C700 C698 1.561 . S
C701 C698 1.526 . S
C701 C702 1.396 . S
C701 C706 1.390 . S
C702 C696 1.465 . S
C702 C701 1.396 . S
C702 C703 1.399 . S
C703 H689 0.929 . S
C703 C702 1.399 . S
C703 C704 1.385 . S
C704 H690 0.931 . S
C704 C703 1.385 . S
C704 C705 1.389 . S
C705 C704 1.389 . S
C705 C706 1.387 . S
C706 H691 0.930 . S
C706 C701 1.390 . S
C706 C705 1.387 . S
H707 C719 0.930 . S
H708 C721 0.930 . S
H709 C722 0.930 . S
H710 C726 0.959 . S
H711 C726 0.959 . S
H712 C726 0.961 . S
H713 C727 0.960 1_554 S
H714 C727 0.961 1_554 S
H715 C727 0.959 1_565 S
H716 C730 0.929 . S
H717 C731 0.931 . S
H718 C733 0.930 . S
C719 H707 0.930 . S
C719 C720 1.392 1_545 S
C719 C724 1.399 . S
C720 C719 1.392 1_565 S
C720 C721 1.384 . S
C721 H708 0.930 . S
C721 C720 1.384 . S
C721 C722 1.388 . S
C722 H709 0.930 . S
C722 C721 1.388 . S
C722 C723 1.390 . S
C723 C722 1.390 . S
C723 C724 1.394 1_565 S
C723 C729 1.465 . S
C724 C719 1.399 . S
C724 C723 1.394 1_545 S
C724 C725 1.516 . S
C725 C724 1.516 . S
C725 C726 1.502 . S
C725 C727 1.561 . S
C725 C728 1.526 . S
C726 H710 0.959 . S
C726 H711 0.959 . S
C726 H712 0.961 . S
C726 C725 1.502 . S
C727 H713 0.960 1_556 S
C727 H714 0.961 1_556 S
C727 H715 0.959 1_545 S
C727 C725 1.561 . S
C728 C725 1.526 . S
C728 C729 1.396 1_545 S
C728 C733 1.390 . S
C729 C723 1.465 . S
C729 C728 1.396 1_565 S
C729 C730 1.399 . S
C730 H716 0.929 . S
C730 C729 1.399 . S
C730 C731 1.385 . S
C731 H717 0.931 . S
C731 C730 1.385 . S
C731 C732 1.389 1_565 S
C732 C731 1.389 1_545 S
C732 C733 1.387 . S
C733 H718 0.930 . S
C733 C728 1.390 . S
C733 C732 1.387 . S
H734 C746 0.930 . S
H735 C748 0.930 . S
H736 C749 0.930 . S
H737 C753 0.959 . S
H738 C753 0.959 . S
H739 C753 0.961 . S
H740 C754 0.960 . S
H741 C754 0.961 . S
H742 C754 0.959 . S
H743 C757 0.929 . S
H744 C758 0.931 . S
H745 C760 0.930 . S
C746 H734 0.930 . S
C746 C747 1.399 . S
C746 C751 1.399 . S
C747 C746 1.399 . S
C747 C748 1.376 . S
C748 H735 0.930 . S
C748 C747 1.376 . S
C748 C749 1.388 . S
C749 H736 0.930 . S
C749 C748 1.388 . S
C749 C750 1.390 . S
C750 C749 1.390 . S
C750 C751 1.394 . S
C750 C756 1.465 . S
C751 C746 1.399 . S
C751 C750 1.394 . S
C751 C752 1.516 . S
C752 C751 1.516 . S
C752 C753 1.502 . S
C752 C754 1.561 . S
C752 C755 1.526 . S
C753 H737 0.959 . S
C753 H738 0.959 . S
C753 H739 0.961 . S
C753 C752 1.502 . S
C754 H740 0.960 . S
C754 H741 0.961 . S
C754 H742 0.959 . S
C754 C752 1.561 . S
C755 C752 1.526 . S
C755 C756 1.396 . S
C755 C760 1.390 . S
C756 C750 1.465 . S
C756 C755 1.396 . S
C756 C757 1.399 . S
C757 H743 0.929 . S
C757 C756 1.399 . S
C757 C758 1.385 . S
C758 H744 0.931 . S
C758 C757 1.385 . S
C758 C759 1.389 . S
C759 C758 1.389 . S
C759 C760 1.387 . S
C760 H745 0.930 . S
C760 C755 1.390 . S
C760 C759 1.387 . S
H761 C773 0.930 . S
H762 C775 0.930 . S
H763 C776 0.930 . S
H764 C780 0.959 . S
H765 C780 0.959 . S
H766 C780 0.961 . S
H767 C781 0.960 . S
H768 C781 0.961 . S
H769 C781 0.959 . S
H770 C784 0.929 . S
H771 C785 0.931 . S
H772 C787 0.930 . S
C773 H761 0.930 . S
C773 C774 1.399 . S
C773 C778 1.399 . S
C774 C773 1.399 . S
C774 C775 1.376 . S
C775 H762 0.930 . S
C775 C774 1.376 . S
C775 C776 1.388 . S
C776 H763 0.930 . S
C776 C775 1.388 . S
C776 C777 1.390 . S
C777 C776 1.390 . S
C777 C778 1.394 . S
C777 C783 1.465 . S
C778 C773 1.399 . S
C778 C777 1.394 . S
C778 C779 1.516 . S
C779 C778 1.516 . S
C779 C780 1.502 . S
C779 C781 1.561 . S
C779 C782 1.526 . S
C780 H764 0.959 . S
C780 H765 0.959 . S
C780 H766 0.961 . S
C780 C779 1.502 . S
C781 H767 0.960 . S
C781 H768 0.961 . S
C781 H769 0.959 . S
C781 C779 1.561 . S
C782 C779 1.526 . S
C782 C783 1.396 . S
C782 C787 1.390 . S
C783 C777 1.465 . S
C783 C782 1.396 . S
C783 C784 1.399 . S
C784 H770 0.929 . S
C784 C783 1.399 . S
C784 C785 1.385 . S
C785 H771 0.931 . S
C785 C784 1.385 . S
C785 C786 1.389 . S
C786 C785 1.389 . S
C786 C787 1.387 . S
C787 H772 0.930 . S
C787 C782 1.390 . S
C787 C786 1.387 . S
H788 C800 0.930 . S
H789 C802 0.930 . S
H790 C803 0.930 . S
H791 C807 0.959 . S
H792 C807 0.959 . S
H793 C807 0.961 . S
H794 C808 0.960 . S
H795 C808 0.961 . S
H796 C808 0.959 . S
H797 C811 0.929 . S
H798 C812 0.931 . S
H799 C814 0.936 . S
C800 H788 0.930 . S
C800 C801 1.399 1_455 S
C800 C805 1.399 1_455 S
C801 C800 1.399 1_655 S
C801 C802 1.376 . S
C802 H789 0.930 . S
C802 C801 1.376 . S
C802 C803 1.388 . S
C803 H790 0.930 . S
C803 C802 1.388 . S
C803 C804 1.390 . S
C804 C803 1.390 . S
C804 C805 1.394 . S
C804 C810 1.465 . S
C805 C800 1.399 1_655 S
C805 C804 1.394 . S
C805 C806 1.516 . S
C806 C805 1.516 . S
C806 C807 1.501 1_655 S
C806 C808 1.562 . S
C806 C809 1.526 . S
C807 H791 0.959 . S
C807 H792 0.959 . S
C807 H793 0.961 . S
C807 C806 1.501 1_455 S
C808 H794 0.960 . S
C808 H795 0.961 . S
C808 H796 0.959 . S
C808 C806 1.562 . S
C809 C806 1.526 . S
C809 C810 1.396 . S
C809 C814 1.390 . S
C810 C804 1.465 . S
C810 C809 1.396 . S
C810 C811 1.399 . S
C811 H797 0.929 . S
C811 C810 1.399 . S
C811 C812 1.385 . S
C812 H798 0.931 . S
C812 C811 1.385 . S
C812 C813 1.389 . S
C813 C812 1.389 . S
C813 C814 1.387 . S
C814 H799 0.936 . S
C814 C809 1.390 . S
C814 C813 1.387 . S
H815 C827 0.930 . S
H816 C829 0.930 . S
H817 C830 0.930 . S
H818 C834 0.959 . S
H819 C834 0.959 . S
H820 C834 0.961 . S
H821 C835 0.960 . S
H822 C835 0.961 . S
H823 C835 0.959 . S
H824 C838 0.929 . S
H825 C839 0.931 . S
H826 C841 0.930 1_545 S
C827 H815 0.930 . S
C827 C828 1.399 1_545 S
C827 C832 1.399 1_545 S
C828 C827 1.399 1_565 S
C828 C829 1.376 . S
C829 H816 0.930 . S
C829 C828 1.376 . S
C829 C830 1.388 . S
C830 H817 0.930 . S
C830 C829 1.388 . S
C830 C831 1.390 . S
C831 C830 1.390 . S
C831 C832 1.394 . S
C831 C837 1.465 . S
C832 C827 1.399 1_565 S
C832 C831 1.394 . S
C832 C833 1.516 1_565 S
C833 C832 1.516 1_545 S
C833 C834 1.502 . S
C833 C835 1.561 1_545 S
C833 C836 1.526 1_545 S
C834 H818 0.959 . S
C834 H819 0.959 . S
C834 H820 0.961 . S
C834 C833 1.502 . S
C835 H821 0.960 . S
C835 H822 0.961 . S
C835 H823 0.959 . S
C835 C833 1.561 1_565 S
C836 C833 1.526 1_565 S
C836 C837 1.396 . S
C836 C841 1.390 . S
C837 C831 1.465 . S
C837 C836 1.396 . S
C837 C838 1.399 . S
C838 H824 0.929 . S
C838 C837 1.399 . S
C838 C839 1.385 . S
C839 H825 0.931 . S
C839 C838 1.385 . S
C839 C840 1.389 . S
C840 C839 1.389 . S
C840 C841 1.387 . S
C841 H826 0.930 1_565 S
C841 C836 1.390 . S
C841 C840 1.387 . S
H842 C854 0.930 . S
H843 C856 0.930 . S
H844 C857 0.930 . S
H845 C861 0.959 . S
H846 C861 0.959 . S
H847 C861 0.961 . S
H848 C862 0.960 . S
H849 C862 0.961 . S
H850 C862 0.959 . S
H851 C865 0.929 . S
H852 C866 0.931 . S
H853 C868 0.930 . S
C854 H842 0.930 . S
C854 C855 1.399 . S
C854 C859 1.399 . S
C855 C854 1.399 . S
C855 C856 1.376 . S
C856 H843 0.930 . S
C856 C855 1.376 . S
C856 C857 1.388 . S
C857 H844 0.930 . S
C857 C856 1.388 . S
C857 C858 1.390 . S
C858 C857 1.390 . S
C858 C859 1.394 . S
C858 C864 1.465 . S
C859 C854 1.399 . S
C859 C858 1.394 . S
C859 C860 1.516 . S
C860 C859 1.516 . S
C860 C861 1.502 . S
C860 C862 1.561 . S
C860 C863 1.526 . S
C861 H845 0.959 . S
C861 H846 0.959 . S
C861 H847 0.961 . S
C861 C860 1.502 . S
C862 H848 0.960 . S
C862 H849 0.961 . S
C862 H850 0.959 . S
C862 C860 1.561 . S
C863 C860 1.526 . S
C863 C864 1.396 . S
C863 C868 1.390 . S
C864 C858 1.465 . S
C864 C863 1.396 . S
C864 C865 1.399 . S
C865 H851 0.929 . S
C865 C864 1.399 . S
C865 C866 1.385 . S
C866 H852 0.931 . S
C866 C865 1.385 . S
C866 C867 1.389 . S
C867 C866 1.389 . S
C867 C868 1.387 . S
C868 H853 0.930 . S
C868 C863 1.390 . S
C868 C867 1.387 . S
H869 C881 0.930 . S
H870 C883 0.930 . S
H871 C884 0.930 . S
H872 C888 0.959 . S
H873 C888 0.959 . S
H874 C888 0.961 . S
H875 C889 0.960 . S
H876 C889 0.961 . S
H877 C889 0.959 . S
H878 C892 0.929 . S
H879 C893 0.931 . S
H880 C895 0.930 . S
C881 H869 0.930 . S
C881 C882 1.399 . S
C881 C886 1.399 . S
C882 C881 1.399 . S
C882 C883 1.376 . S
C883 H870 0.930 . S
C883 C882 1.376 . S
C883 C884 1.388 . S
C884 H871 0.930 . S
C884 C883 1.388 . S
C884 C885 1.390 . S
C885 C884 1.390 . S
C885 C886 1.394 . S
C885 C891 1.465 . S
C886 C881 1.399 . S
C886 C885 1.394 . S
C886 C887 1.516 . S
C887 C886 1.516 . S
C887 C888 1.502 . S
C887 C889 1.561 . S
C887 C890 1.526 . S
C888 H872 0.959 . S
C888 H873 0.959 . S
C888 H874 0.961 . S
C888 C887 1.502 . S
C889 H875 0.960 . S
C889 H876 0.961 . S
C889 H877 0.959 . S
C889 C887 1.561 . S
C890 C887 1.526 . S
C890 C891 1.396 . S
C890 C895 1.390 . S
C891 C885 1.465 . S
C891 C890 1.396 . S
C891 C892 1.399 . S
C892 H878 0.929 . S
C892 C891 1.399 . S
C892 C893 1.385 . S
C893 H879 0.931 . S
C893 C892 1.385 . S
C893 C894 1.389 . S
C894 C893 1.389 . S
C894 C895 1.387 . S
C895 H880 0.930 . S
C895 C890 1.390 . S
C895 C894 1.387 . S
C261 C74 1.743 . S
C273 C97 1.879 1_545 S
C300 C137 1.875 . S
C288 C85 1.765 . S
C327 C177 1.877 . S
C315 C52 1.821 . S
C354 C217 1.883 1_455 S
C342 C63 1.743 . S
C381 C106 1.870 . S
C369 C30 1.753 . S
C396 C41 1.814 . S
C408 C146 1.890 . S
C423 C8 1.820 . S
C435 C186 1.898 . S
C450 C19 1.822 1_655 S
C462 C226 1.893 1_655 S
C489 C103 0.655 . S
C477 C62 0.596 1_655 S
C516 C143 0.583 . S
C504 C73 0.630 . S
C543 C183 0.605 . S
C531 C84 0.554 . S
C558 C51 0.565 . S
C570 C223 0.663 . S
C585 C18 0.513 . S
C597 C94 0.656 . S
C624 C134 0.654 . S
C612 C29 0.609 . S
C651 C174 0.571 . S
C639 C40 0.712 . S
C666 C7 0.615 . S
C678 C214 0.572 . S
C693 C60 1.655 . S
C705 C107 2.240 . S
C720 C71 1.770 1_565 S
C732 C147 2.218 . S
C759 C187 2.241 . S
C747 C82 1.640 . S
C786 C227 2.258 . S
C774 C49 1.674 . S
C801 C16 1.853 1_655 S
C813 C98 2.257 . S
C840 C138 2.245 . S
C828 C27 1.843 1_565 S
C867 C178 2.217 . S
C855 C38 1.727 . S
C882 C5 1.853 . S
C894 C218 2.257 . S
