# Generated by pormake.
# Topology iac, (4,6)-cn, num edge types: 1
# Building blocks:
#     Node 0, Type 0, BuildingBlock: TATPOV_clean_sbu_0, # of connection points: 4
#     Node 1, Type 0, BuildingBlock: TATPOV_clean_sbu_0, # of connection points: 4
#     Node 2, Type 0, BuildingBlock: TATPOV_clean_sbu_0, # of connection points: 4
#     Node 3, Type 0, BuildingBlock: TATPOV_clean_sbu_0, # of connection points: 4
#     Node 4, Type 0, BuildingBlock: TATPOV_clean_sbu_0, # of connection points: 4
#     Node 5, Type 0, BuildingBlock: TATPOV_clean_sbu_0, # of connection points: 4
#     Node 6, Type 0, BuildingBlock: TATPOV_clean_sbu_0, # of connection points: 4
#     Node 7, Type 0, BuildingBlock: TATPOV_clean_sbu_0, # of connection points: 4
#     Node 8, Type 0, BuildingBlock: TATPOV_clean_sbu_0, # of connection points: 4
#     Node 9, Type 0, BuildingBlock: TATPOV_clean_sbu_0, # of connection points: 4
#     Node 10, Type 0, BuildingBlock: TATPOV_clean_sbu_0, # of connection points: 4
#     Node 11, Type 0, BuildingBlock: TATPOV_clean_sbu_0, # of connection points: 4
#     Node 12, Type 0, BuildingBlock: TATPOV_clean_sbu_0, # of connection points: 4
#     Node 13, Type 0, BuildingBlock: TATPOV_clean_sbu_0, # of connection points: 4
#     Node 14, Type 0, BuildingBlock: TATPOV_clean_sbu_0, # of connection points: 4
#     Node 15, Type 0, BuildingBlock: TATPOV_clean_sbu_0, # of connection points: 4
#     Node 16, Type 0, BuildingBlock: TATPOV_clean_sbu_0, # of connection points: 4
#     Node 17, Type 0, BuildingBlock: TATPOV_clean_sbu_0, # of connection points: 4
#     Node 18, Type 0, BuildingBlock: TATPOV_clean_sbu_0, # of connection points: 4
#     Node 19, Type 0, BuildingBlock: TATPOV_clean_sbu_0, # of connection points: 4
#     Node 20, Type 0, BuildingBlock: TATPOV_clean_sbu_0, # of connection points: 4
#     Node 21, Type 0, BuildingBlock: TATPOV_clean_sbu_0, # of connection points: 4
#     Node 22, Type 0, BuildingBlock: TATPOV_clean_sbu_0, # of connection points: 4
#     Node 23, Type 0, BuildingBlock: TATPOV_clean_sbu_0, # of connection points: 4
#     Node 24, Type 1, BuildingBlock: JUFBIX_clean_sbu_0, # of connection points: 6
#     Node 25, Type 1, BuildingBlock: JUFBIX_clean_sbu_0, # of connection points: 6
#     Node 26, Type 1, BuildingBlock: JUFBIX_clean_sbu_0, # of connection points: 6
#     Node 27, Type 1, BuildingBlock: JUFBIX_clean_sbu_0, # of connection points: 6
#     Node 28, Type 1, BuildingBlock: JUFBIX_clean_sbu_0, # of connection points: 6
#     Node 29, Type 1, BuildingBlock: JUFBIX_clean_sbu_0, # of connection points: 6
#     Node 30, Type 1, BuildingBlock: JUFBIX_clean_sbu_0, # of connection points: 6
#     Node 31, Type 1, BuildingBlock: JUFBIX_clean_sbu_0, # of connection points: 6
#     Node 32, Type 1, BuildingBlock: JUFBIX_clean_sbu_0, # of connection points: 6
#     Node 33, Type 1, BuildingBlock: JUFBIX_clean_sbu_0, # of connection points: 6
#     Node 34, Type 1, BuildingBlock: JUFBIX_clean_sbu_0, # of connection points: 6
#     Node 35, Type 1, BuildingBlock: JUFBIX_clean_sbu_0, # of connection points: 6
#     Node 36, Type 1, BuildingBlock: JUFBIX_clean_sbu_0, # of connection points: 6
#     Node 37, Type 1, BuildingBlock: JUFBIX_clean_sbu_0, # of connection points: 6
#     Node 38, Type 1, BuildingBlock: JUFBIX_clean_sbu_0, # of connection points: 6
#     Node 39, Type 1, BuildingBlock: JUFBIX_clean_sbu_0, # of connection points: 6
#     Edge 40, Type (0, 1), BuildingBlock: EZIPEK_clean_linker_0, # of connection points: 2
#     Edge 41, Type (0, 1), BuildingBlock: EZIPEK_clean_linker_0, # of connection points: 2
#     Edge 42, Type (0, 1), BuildingBlock: EZIPEK_clean_linker_0, # of connection points: 2
#     Edge 43, Type (0, 1), BuildingBlock: EZIPEK_clean_linker_0, # of connection points: 2
#     Edge 44, Type (0, 1), BuildingBlock: EZIPEK_clean_linker_0, # of connection points: 2
#     Edge 45, Type (0, 1), BuildingBlock: EZIPEK_clean_linker_0, # of connection points: 2
#     Edge 46, Type (0, 1), BuildingBlock: EZIPEK_clean_linker_0, # of connection points: 2
#     Edge 47, Type (0, 1), BuildingBlock: EZIPEK_clean_linker_0, # of connection points: 2
#     Edge 48, Type (0, 1), BuildingBlock: EZIPEK_clean_linker_0, # of connection points: 2
#     Edge 49, Type (0, 1), BuildingBlock: EZIPEK_clean_linker_0, # of connection points: 2
#     Edge 50, Type (0, 1), BuildingBlock: EZIPEK_clean_linker_0, # of connection points: 2
#     Edge 51, Type (0, 1), BuildingBlock: EZIPEK_clean_linker_0, # of connection points: 2
#     Edge 52, Type (0, 1), BuildingBlock: EZIPEK_clean_linker_0, # of connection points: 2
#     Edge 53, Type (0, 1), BuildingBlock: EZIPEK_clean_linker_0, # of connection points: 2
#     Edge 54, Type (0, 1), BuildingBlock: EZIPEK_clean_linker_0, # of connection points: 2
#     Edge 55, Type (0, 1), BuildingBlock: EZIPEK_clean_linker_0, # of connection points: 2
#     Edge 56, Type (0, 1), BuildingBlock: EZIPEK_clean_linker_0, # of connection points: 2
#     Edge 57, Type (0, 1), BuildingBlock: EZIPEK_clean_linker_0, # of connection points: 2
#     Edge 58, Type (0, 1), BuildingBlock: EZIPEK_clean_linker_0, # of connection points: 2
#     Edge 59, Type (0, 1), BuildingBlock: EZIPEK_clean_linker_0, # of connection points: 2
#     Edge 60, Type (0, 1), BuildingBlock: EZIPEK_clean_linker_0, # of connection points: 2
#     Edge 61, Type (0, 1), BuildingBlock: EZIPEK_clean_linker_0, # of connection points: 2
#     Edge 62, Type (0, 1), BuildingBlock: EZIPEK_clean_linker_0, # of connection points: 2
#     Edge 63, Type (0, 1), BuildingBlock: EZIPEK_clean_linker_0, # of connection points: 2
#     Edge 64, Type (0, 1), BuildingBlock: EZIPEK_clean_linker_0, # of connection points: 2
#     Edge 65, Type (0, 1), BuildingBlock: EZIPEK_clean_linker_0, # of connection points: 2
#     Edge 66, Type (0, 1), BuildingBlock: EZIPEK_clean_linker_0, # of connection points: 2
#     Edge 67, Type (0, 1), BuildingBlock: EZIPEK_clean_linker_0, # of connection points: 2
#     Edge 68, Type (0, 1), BuildingBlock: EZIPEK_clean_linker_0, # of connection points: 2
#     Edge 69, Type (0, 1), BuildingBlock: EZIPEK_clean_linker_0, # of connection points: 2
#     Edge 70, Type (0, 1), BuildingBlock: EZIPEK_clean_linker_0, # of connection points: 2
#     Edge 71, Type (0, 1), BuildingBlock: EZIPEK_clean_linker_0, # of connection points: 2
#     Edge 72, Type (0, 1), BuildingBlock: EZIPEK_clean_linker_0, # of connection points: 2
#     Edge 73, Type (0, 1), BuildingBlock: EZIPEK_clean_linker_0, # of connection points: 2
#     Edge 74, Type (0, 1), BuildingBlock: EZIPEK_clean_linker_0, # of connection points: 2
#     Edge 75, Type (0, 1), BuildingBlock: EZIPEK_clean_linker_0, # of connection points: 2
#     Edge 76, Type (0, 1), BuildingBlock: EZIPEK_clean_linker_0, # of connection points: 2
#     Edge 77, Type (0, 1), BuildingBlock: EZIPEK_clean_linker_0, # of connection points: 2
#     Edge 78, Type (0, 1), BuildingBlock: EZIPEK_clean_linker_0, # of connection points: 2
#     Edge 79, Type (0, 1), BuildingBlock: EZIPEK_clean_linker_0, # of connection points: 2
#     Edge 80, Type (0, 1), BuildingBlock: EZIPEK_clean_linker_0, # of connection points: 2
#     Edge 81, Type (0, 1), BuildingBlock: EZIPEK_clean_linker_0, # of connection points: 2
#     Edge 82, Type (0, 1), BuildingBlock: EZIPEK_clean_linker_0, # of connection points: 2
#     Edge 83, Type (0, 1), BuildingBlock: EZIPEK_clean_linker_0, # of connection points: 2
#     Edge 84, Type (0, 1), BuildingBlock: EZIPEK_clean_linker_0, # of connection points: 2
#     Edge 85, Type (0, 1), BuildingBlock: EZIPEK_clean_linker_0, # of connection points: 2
#     Edge 86, Type (0, 1), BuildingBlock: EZIPEK_clean_linker_0, # of connection points: 2
#     Edge 87, Type (0, 1), BuildingBlock: EZIPEK_clean_linker_0, # of connection points: 2
#     Edge 88, Type (0, 1), BuildingBlock: EZIPEK_clean_linker_0, # of connection points: 2
#     Edge 89, Type (0, 1), BuildingBlock: EZIPEK_clean_linker_0, # of connection points: 2
#     Edge 90, Type (0, 1), BuildingBlock: EZIPEK_clean_linker_0, # of connection points: 2
#     Edge 91, Type (0, 1), BuildingBlock: EZIPEK_clean_linker_0, # of connection points: 2
#     Edge 92, Type (0, 1), BuildingBlock: EZIPEK_clean_linker_0, # of connection points: 2
#     Edge 93, Type (0, 1), BuildingBlock: EZIPEK_clean_linker_0, # of connection points: 2
#     Edge 94, Type (0, 1), BuildingBlock: EZIPEK_clean_linker_0, # of connection points: 2
#     Edge 95, Type (0, 1), BuildingBlock: EZIPEK_clean_linker_0, # of connection points: 2
#     Edge 96, Type (0, 1), BuildingBlock: EZIPEK_clean_linker_0, # of connection points: 2
#     Edge 97, Type (0, 1), BuildingBlock: EZIPEK_clean_linker_0, # of connection points: 2
#     Edge 98, Type (0, 1), BuildingBlock: EZIPEK_clean_linker_0, # of connection points: 2
#     Edge 99, Type (0, 1), BuildingBlock: EZIPEK_clean_linker_0, # of connection points: 2
#     Edge 100, Type (0, 1), BuildingBlock: EZIPEK_clean_linker_0, # of connection points: 2
#     Edge 101, Type (0, 1), BuildingBlock: EZIPEK_clean_linker_0, # of connection points: 2
#     Edge 102, Type (0, 1), BuildingBlock: EZIPEK_clean_linker_0, # of connection points: 2
#     Edge 103, Type (0, 1), BuildingBlock: EZIPEK_clean_linker_0, # of connection points: 2
#     Edge 104, Type (0, 1), BuildingBlock: EZIPEK_clean_linker_0, # of connection points: 2
#     Edge 105, Type (0, 1), BuildingBlock: EZIPEK_clean_linker_0, # of connection points: 2
#     Edge 106, Type (0, 1), BuildingBlock: EZIPEK_clean_linker_0, # of connection points: 2
#     Edge 107, Type (0, 1), BuildingBlock: EZIPEK_clean_linker_0, # of connection points: 2
#     Edge 108, Type (0, 1), BuildingBlock: EZIPEK_clean_linker_0, # of connection points: 2
#     Edge 109, Type (0, 1), BuildingBlock: EZIPEK_clean_linker_0, # of connection points: 2
#     Edge 110, Type (0, 1), BuildingBlock: EZIPEK_clean_linker_0, # of connection points: 2
#     Edge 111, Type (0, 1), BuildingBlock: EZIPEK_clean_linker_0, # of connection points: 2
#     Edge 112, Type (0, 1), BuildingBlock: EZIPEK_clean_linker_0, # of connection points: 2
#     Edge 113, Type (0, 1), BuildingBlock: EZIPEK_clean_linker_0, # of connection points: 2
#     Edge 114, Type (0, 1), BuildingBlock: EZIPEK_clean_linker_0, # of connection points: 2
#     Edge 115, Type (0, 1), BuildingBlock: EZIPEK_clean_linker_0, # of connection points: 2
#     Edge 116, Type (0, 1), BuildingBlock: EZIPEK_clean_linker_0, # of connection points: 2
#     Edge 117, Type (0, 1), BuildingBlock: EZIPEK_clean_linker_0, # of connection points: 2
#     Edge 118, Type (0, 1), BuildingBlock: EZIPEK_clean_linker_0, # of connection points: 2
#     Edge 119, Type (0, 1), BuildingBlock: EZIPEK_clean_linker_0, # of connection points: 2
#     Edge 120, Type (0, 1), BuildingBlock: EZIPEK_clean_linker_0, # of connection points: 2
#     Edge 121, Type (0, 1), BuildingBlock: EZIPEK_clean_linker_0, # of connection points: 2
#     Edge 122, Type (0, 1), BuildingBlock: EZIPEK_clean_linker_0, # of connection points: 2
#     Edge 123, Type (0, 1), BuildingBlock: EZIPEK_clean_linker_0, # of connection points: 2
#     Edge 124, Type (0, 1), BuildingBlock: EZIPEK_clean_linker_0, # of connection points: 2
#     Edge 125, Type (0, 1), BuildingBlock: EZIPEK_clean_linker_0, # of connection points: 2
#     Edge 126, Type (0, 1), BuildingBlock: EZIPEK_clean_linker_0, # of connection points: 2
#     Edge 127, Type (0, 1), BuildingBlock: EZIPEK_clean_linker_0, # of connection points: 2
#     Edge 128, Type (0, 1), BuildingBlock: EZIPEK_clean_linker_0, # of connection points: 2
#     Edge 129, Type (0, 1), BuildingBlock: EZIPEK_clean_linker_0, # of connection points: 2
#     Edge 130, Type (0, 1), BuildingBlock: EZIPEK_clean_linker_0, # of connection points: 2
#     Edge 131, Type (0, 1), BuildingBlock: EZIPEK_clean_linker_0, # of connection points: 2
#     Edge 132, Type (0, 1), BuildingBlock: EZIPEK_clean_linker_0, # of connection points: 2
#     Edge 133, Type (0, 1), BuildingBlock: EZIPEK_clean_linker_0, # of connection points: 2
#     Edge 134, Type (0, 1), BuildingBlock: EZIPEK_clean_linker_0, # of connection points: 2
#     Edge 135, Type (0, 1), BuildingBlock: EZIPEK_clean_linker_0, # of connection points: 2
# Relax obj value: 0.262
# Max RMSD: 0.253
# Mean RMSD: 0.154
data_MOF--net-iac--node1-TATPOV_clean_sbu_0--node2-JUFBIX_clean_sbu_0--edge1-EZIPEK_clean_linker_0
_symmetry_space_group_name_H-M    P1
_symmetry_Int_Tables_number       1
_symmetry_cell_setting            triclinic
loop_
_symmetry_equiv_pos_as_xyz
'x, y, z'
_cell_length_a     40.087195
_cell_length_b     41.167844
_cell_length_c     41.091999
_cell_angle_alpha  89.056132
_cell_angle_beta   87.880909
_cell_angle_gamma 89.706486
loop_
_atom_site_label
_atom_site_type_symbol
_atom_site_fract_x
_atom_site_fract_y
_atom_site_fract_z
_atom_type_partial_charge
Zn0 Zn 0.0821 0.28893 0.12357 0.0
Zn1 Zn 0.03065 0.29272 0.16544 0.0
O2 O 0.02939 0.33768 0.13758 0.0
O3 O 0.07124 0.33352 0.10178 0.0
O4 O 0.98636 0.29346 0.19437 0.0
O5 O 0.06786 0.24473 0.10537 0.0
O6 O 0.02571 0.24657 0.14104 0.0
C7 C 0.04719 0.35011 0.1139 0.0
C8 C 0.10287 0.29132 0.19194 0.0
O9 O 0.07128 0.29334 0.19826 0.0
O10 O 0.11321 0.28869 0.16248 0.0
C11 C 0.96234 0.31369 0.19088 0.0
O12 O 0.96564 0.33705 0.16887 0.0
C13 C 0.04207 0.23143 0.11838 0.0
Zn14 Zn 0.0251 0.78424 0.48844 0.0
Zn15 Zn 0.06372 0.77006 0.43585 0.0
O16 O 0.08454 0.81087 0.45266 0.0
O17 O 0.05947 0.81639 0.50069 0.0
O18 O 0.09442 0.75406 0.4005 0.0
O19 O 0.02686 0.73848 0.50538 0.0
O20 O 0.06295 0.7302 0.46464 0.0
C21 C 0.08091 0.82599 0.4793 0.0
C22 C 0.99384 0.79384 0.426 0.0
O23 O 0.02033 0.78073 0.41419 0.0
O24 O 0.99037 0.79883 0.45631 0.0
C25 C 0.10701 0.77037 0.37676 0.0
O26 O 0.09918 0.80118 0.37289 0.0
C27 C 0.04733 0.72029 0.49023 0.0
Zn28 Zn 0.52729 0.74368 0.71686 0.0
Zn29 Zn 0.5363 0.79008 0.67162 0.0
O30 O 0.49014 0.80012 0.69645 0.0
O31 O 0.48379 0.76187 0.73424 0.0
O32 O 0.54226 0.8336 0.64248 0.0
O33 O 0.57023 0.7526 0.73895 0.0
O34 O 0.58041 0.78964 0.70067 0.0
C35 C 0.47276 0.78683 0.71978 0.0
C36 C 0.52726 0.71628 0.65241 0.0
O37 O 0.53173 0.74614 0.64304 0.0
O38 O 0.52527 0.70928 0.68254 0.0
C39 C 0.51897 0.84943 0.62834 0.0
O40 O 0.48912 0.8364 0.62821 0.0
C41 C 0.58954 0.77384 0.72616 0.0
Zn42 Zn 0.50491 0.26667 0.97611 0.0
Zn43 Zn 0.56757 0.27805 0.95043 0.0
O44 O 0.56805 0.30815 0.99008 0.0
O45 O 0.51806 0.2972 0.01099 0.0
O46 O 0.61311 0.27593 0.92769 0.0
O47 O 0.51332 0.21897 0.98225 0.0
O48 O 0.56424 0.2303 0.96353 0.0
C49 C 0.54568 0.31184 0.01267 0.0
C50 C 0.50538 0.29544 0.91235 0.0
O51 O 0.53687 0.29447 0.91491 0.0
O52 O 0.48602 0.28485 0.93506 0.0
C53 C 0.62007 0.28719 0.89925 0.0
O54 O 0.59885 0.30669 0.88501 0.0
C55 C 0.54282 0.21012 0.97493 0.0
Zn56 Zn 0.18054 0.05457 0.2601 0.0
Zn57 Zn 0.19982 1.00152 0.29192 0.0
O58 O 0.16322 0.01575 0.32401 0.0
O59 O 0.14526 0.05863 0.29656 0.0
O60 O 0.21748 0.95865 0.30628 0.0
O61 O 0.16838 0.03108 0.22052 0.0
O62 O 0.18045 0.98752 0.24941 0.0
C63 C 0.14329 0.03975 0.32126 0.0
C64 C 0.24613 0.05987 0.28244 0.0
O65 O 0.23956 0.03166 0.29379 0.0
O66 O 0.22537 0.0746 0.26497 0.0
C67 C 0.20154 0.93812 0.32405 0.0
O68 O 0.17349 0.94653 0.33924 0.0
C69 C 0.16897 1.00056 0.22397 0.0
Zn70 Zn 0.3114 0.86232 0.55343 0.0
Zn71 Zn 0.25594 0.89623 0.5354 0.0
O72 O 0.25595 0.85746 0.50439 0.0
O73 O 0.30149 0.8309 0.5184 0.0
O74 O 0.21749 0.92566 0.52384 0.0
O75 O 0.29138 0.85894 0.59861 0.0
O76 O 0.24682 0.88663 0.58423 0.0
C77 C 0.277 0.83441 0.50009 0.0
C78 C 0.3269 0.92413 0.5266 0.0
O79 O 0.29555 0.92538 0.52336 0.0
O80 O 0.3405 0.89984 0.53999 0.0
C81 C 0.21977 0.95522 0.53214 0.0
O82 O 0.24589 0.96452 0.54788 0.0
C83 C 0.26332 0.87164 0.60572 0.0
Zn84 Zn 0.3882 0.9846 0.75129 0.0
Zn85 Zn 0.37636 0.04667 0.77057 0.0
O86 O 0.41126 0.03315 0.8021 0.0
O87 O 0.42005 0.98188 0.78878 0.0
O88 O 0.36612 0.09234 0.77997 0.0
O89 O 0.40597 1.00145 0.7076 0.0
O90 O 0.39414 0.05086 0.72452 0.0
C91 C 0.4259 0.00607 0.80636 0.0
C92 C 0.32062 0.99751 0.77498 0.0
O93 O 0.33199 0.02545 0.78043 0.0
O94 O 0.33898 0.97637 0.761 0.0
C95 C 0.38747 0.1147 0.77533 0.0
O96 O 0.41847 0.10751 0.76669 0.0
C97 C 0.40565 0.03188 0.70287 0.0
Zn98 Zn 0.24074 0.20765 0.05177 0.0
Zn99 Zn 0.29016 0.16661 0.04826 0.0
O100 O 0.29933 0.19791 0.00667 0.0
O101 O 0.25393 0.22779 0.00717 0.0
O102 O 0.33157 0.13534 0.04806 0.0
O103 O 0.25448 0.2273 0.09473 0.0
O104 O 0.29366 0.1897 0.09485 0.0
C105 C 0.28141 0.21986 0.99311 0.0
C106 C 0.21553 0.14254 0.04654 0.0
O107 O 0.24689 0.1361 0.04306 0.0
O108 O 0.20656 0.17142 0.05277 0.0
C109 C 0.34554 0.12156 0.02337 0.0
O110 O 0.33275 0.12568 0.99464 0.0
C111 C 0.27846 0.21355 0.10883 0.0
Zn112 Zn 0.82733 0.3778 0.073 0.0
Zn113 Zn 0.77082 0.404 0.04808 0.0
O114 O 0.77669 0.36608 0.0176 0.0
O115 O 0.82416 0.34652 0.03599 0.0
O116 O 0.73198 0.43127 0.03448 0.0
O117 O 0.8033 0.36916 0.1158 0.0
O118 O 0.75803 0.39041 0.09492 0.0
C119 C 0.80111 0.34617 0.01573 0.0
C120 C 0.83863 0.43926 0.0447 0.0
O121 O 0.80829 0.43578 0.03784 0.0
O122 O 0.85307 0.4186 0.06252 0.0
C123 C 0.70271 0.42756 0.0467 0.0
O124 O 0.69613 0.40278 0.0664 0.0
C125 C 0.7728 0.37692 0.11844 0.0
Zn126 Zn 0.91019 0.49157 0.25305 0.0
Zn127 Zn 0.89346 0.55287 0.27047 0.0
O128 O 0.92737 0.54144 0.30407 0.0
O129 O 0.944 0.49262 0.28839 0.0
O130 O 0.87934 0.59793 0.27809 0.0
O131 O 0.92328 0.50669 0.20768 0.0
O132 O 0.91097 0.55616 0.22408 0.0
C133 C 0.94536 0.5162 0.30774 0.0
C134 C 0.84269 0.50021 0.27968 0.0
O135 O 0.85051 0.52985 0.28127 0.0
O136 O 0.86303 0.47962 0.26764 0.0
C137 C 0.89762 0.62292 0.27587 0.0
O138 O 0.93 0.62003 0.27048 0.0
C139 C 0.9219 0.53697 0.20232 0.0
Zn140 Zn 0.71848 0.70373 0.55284 0.0
Zn141 Zn 0.77132 0.66448 0.54771 0.0
O142 O 0.77693 0.69426 0.50477 0.0
O143 O 0.73086 0.72316 0.50708 0.0
O144 O 0.81292 0.63435 0.54722 0.0
O145 O 0.7348 0.72189 0.59668 0.0
O146 O 0.77714 0.68788 0.59304 0.0
C147 C 0.75763 0.71528 0.4916 0.0
C148 C 0.69794 0.6368 0.54951 0.0
O149 O 0.72964 0.63247 0.5465 0.0
O150 O 0.68631 0.66518 0.55365 0.0
C151 C 0.82948 0.6231 0.52274 0.0
O152 O 0.81969 0.62968 0.49322 0.0
C153 C 0.76097 0.70991 0.60871 0.0
Zn154 Zn 0.62213 0.54073 0.81353 0.0
Zn155 Zn 0.66139 0.49077 0.82518 0.0
O156 O 0.62277 0.48169 0.85733 0.0
O157 O 0.58752 0.51985 0.84315 0.0
O158 O 0.69173 0.45261 0.82981 0.0
O159 O 0.62083 0.5303 0.76685 0.0
O160 O 0.64599 0.48438 0.77941 0.0
C161 C 0.5937 0.49425 0.85934 0.0
C162 C 0.68385 0.561 0.83487 0.0
O163 O 0.68999 0.53067 0.83382 0.0
O164 O 0.65523 0.57203 0.82893 0.0
C165 C 0.72307 0.45389 0.82437 0.0
O166 O 0.73769 0.48197 0.81849 0.0
C167 C 0.63098 0.50227 0.75918 0.0
Zn168 Zn 0.98197 0.80007 0.95827 0.0
Zn169 Zn 0.0335 0.7942 0.9161 0.0
O170 O 0.03903 0.84115 0.93785 0.0
O171 O 0.99745 0.84499 0.97407 0.0
O172 O 0.0764 0.79095 0.88666 0.0
O173 O 0.99469 0.75692 0.98158 0.0
O174 O 0.03678 0.7515 0.94621 0.0
C175 C 0.02312 0.85743 0.95994 0.0
C176 C 0.9615 0.79426 0.89026 0.0
O177 O 0.99304 0.79224 0.88423 0.0
O178 O 0.95065 0.79824 0.91938 0.0
C179 C 0.08151 0.7719 0.86275 0.0
O180 O 0.05757 0.75241 0.85434 0.0
C181 C 0.0194 0.74039 0.97072 0.0
Zn182 Zn 0.08768 0.33319 0.64231 0.0
Zn183 Zn 0.02817 0.30152 0.65639 0.0
O184 O 0.01815 0.34669 0.64175 0.0
O185 O 0.06395 0.37527 0.63331 0.0
O186 O 0.98179 0.28887 0.67034 0.0
O187 O 0.09155 0.3008 0.6058 0.0
O188 O 0.04407 0.27509 0.61805 0.0
C189 C 0.03251 0.37301 0.63371 0.0
C190 C 0.08476 0.30006 0.70406 0.0
O191 O 0.056 0.29174 0.69551 0.0
O192 O 0.10273 0.31908 0.68652 0.0
C193 C 0.97256 0.2976 0.69882 0.0
O194 O 0.99443 0.31098 0.71744 0.0
C195 C 0.0706 0.27874 0.60038 0.0
Zn196 Zn 0.47541 0.292 0.46164 0.0
Zn197 Zn 0.52878 0.29185 0.42224 0.0
O198 O 0.53215 0.33739 0.44683 0.0
O199 O 0.48613 0.33794 0.47731 0.0
O200 O 0.57294 0.29156 0.3943 0.0
O201 O 0.48963 0.2494 0.48486 0.0
O202 O 0.53278 0.2479 0.45033 0.0
C203 C 0.51249 0.35232 0.46697 0.0
C204 C 0.45721 0.28986 0.39414 0.0
O205 O 0.48898 0.29118 0.38901 0.0
O206 O 0.44513 0.28941 0.42307 0.0
C207 C 0.58291 0.2692 0.37503 0.0
O208 O 0.56358 0.24408 0.37069 0.0
C209 C 0.51544 0.23468 0.4738 0.0
Zn210 Zn 0.50114 0.7217 0.15141 0.0
Zn211 Zn 0.51039 0.78584 0.13767 0.0
O212 O 0.46471 0.78333 0.16135 0.0
O213 O 0.45494 0.73147 0.17169 0.0
O214 O 0.51287 0.83246 0.12405 0.0
O215 O 0.54157 0.72551 0.17982 0.0
O216 O 0.5488 0.77768 0.1679 0.0
C217 C 0.44606 0.76099 0.17341 0.0
C218 C 0.5185 0.73547 0.08371 0.0
O219 O 0.51893 0.76453 0.09354 0.0
O220 O 0.5102 0.71244 0.10315 0.0
C221 C 0.48842 0.84399 0.10869 0.0
O222 O 0.46244 0.82566 0.10374 0.0
C223 C 0.55759 0.75174 0.18263 0.0
Zn224 Zn 0.98197 0.00487 0.73932 0.0
Zn225 Zn 0.93788 0.05625 0.7368 0.0
O226 O 0.95942 0.05935 0.78015 0.0
O227 O 0.99454 0.01825 0.78449 0.0
O228 O 0.90468 0.09218 0.74169 0.0
O229 O 0.00516 0.027 0.70016 0.0
O230 O 0.96952 0.06755 0.69835 0.0
C231 C 0.98072 0.04346 0.79611 0.0
C232 C 0.91313 0.98688 0.73252 0.0
O233 O 0.9084 0.01737 0.7322 0.0
O234 O 0.94217 0.97502 0.73487 0.0
C235 C 0.87676 0.09634 0.72848 0.0
O236 O 0.86741 0.07641 0.70594 0.0
C237 C 0.9963 0.05397 0.68774 0.0
Zn238 Zn 0.73675 0.17883 0.49781 0.0
Zn239 Zn 0.79874 0.16155 0.51439 0.0
O240 O 0.80093 0.18186 0.46894 0.0
O241 O 0.7503 0.1902 0.45153 0.0
O242 O 0.84638 0.14725 0.51822 0.0
O243 O 0.73857 0.21236 0.53308 0.0
O244 O 0.78698 0.19371 0.54996 0.0
C245 C 0.7816 0.19092 0.44679 0.0
C246 C 0.74176 0.11433 0.52539 0.0
O247 O 0.77281 0.12027 0.52505 0.0
O248 O 0.7215 0.1346 0.51352 0.0
C249 C 0.85814 0.13213 0.49353 0.0
O250 O 0.83869 0.12647 0.46924 0.0
C251 C 0.76165 0.21233 0.55334 0.0
Zn252 Zn 0.59862 0.06681 0.31809 0.0
Zn253 Zn 0.64079 0.01482 0.30868 0.0
O254 O 0.63298 0.01583 0.35738 0.0
O255 O 0.59945 0.05763 0.36627 0.0
O256 O 0.66958 0.97569 0.30322 0.0
O257 O 0.56518 0.04489 0.29049 0.0
O258 O 0.60111 0.00544 0.28148 0.0
C259 C 0.61622 0.03378 0.37671 0.0
C260 C 0.6628 0.08148 0.28611 0.0
O261 O 0.66908 0.05146 0.29015 0.0
O262 O 0.6352 0.09371 0.29579 0.0
C263 C 0.66427 0.95124 0.32186 0.0
O264 O 0.63945 0.95145 0.34358 0.0
C265 C 0.5729 0.01852 0.2766 0.0
Zn266 Zn 0.83929 0.87246 0.0409 0.0
Zn267 Zn 0.78509 0.9092 0.04518 0.0
O268 O 0.78055 0.88325 0.00102 0.0
O269 O 0.82677 0.85485 0.99639 0.0
O270 O 0.73861 0.93153 0.04704 0.0
O271 O 0.82797 0.84937 0.08501 0.0
O272 O 0.78503 0.88261 0.09019 0.0
C273 C 0.79929 0.86372 0.9846 0.0
C274 C 0.85534 0.94164 0.04157 0.0
O275 O 0.82345 0.94526 0.04272 0.0
O276 O 0.8679 0.91332 0.04078 0.0
C277 C 0.73079 0.96084 0.04009 0.0
O278 O 0.75453 0.98167 0.03207 0.0
C279 C 0.80337 0.86004 0.10205 0.0
Zn280 Zn 0.22482 0.64866 0.98491 0.0
Zn281 Zn 0.28852 0.64583 0.0048 0.0
O282 O 0.29195 0.664 0.95885 0.0
O283 O 0.24078 0.66655 0.941 0.0
O284 O 0.33551 0.63556 0.01439 0.0
O285 O 0.21845 0.68012 0.0227 0.0
O286 O 0.27139 0.67904 0.03644 0.0
C287 C 0.27178 0.67148 0.93683 0.0
C288 C 0.24149 0.58719 0.01168 0.0
O289 O 0.26792 0.60268 0.01665 0.0
O290 O 0.21894 0.60052 0.99519 0.0
C291 C 0.34755 0.61298 0.99674 0.0
O292 O 0.32955 0.60093 0.97377 0.0
C293 C 0.24162 0.68939 0.04058 0.0
Zn294 Zn 0.15475 0.58805 0.81705 0.0
Zn295 Zn 0.1703 0.52702 0.80766 0.0
O296 O 0.16391 0.52931 0.85666 0.0
O297 O 0.14158 0.5776 0.8638 0.0
O298 O 0.18537 0.48152 0.80417 0.0
O299 O 0.12155 0.58303 0.7819 0.0
O300 O 0.12762 0.52979 0.78284 0.0
C301 C 0.14956 0.54995 0.875 0.0
C302 C 0.21707 0.58116 0.78446 0.0
O303 O 0.20762 0.55184 0.78341 0.0
O304 O 0.20086 0.60147 0.80166 0.0
C305 C 0.21367 0.47576 0.81591 0.0
O306 O 0.23077 0.49967 0.82784 0.0
C307 C 0.11325 0.55526 0.77225 0.0
Zn308 Zn 0.32401 0.37675 0.54326 0.0
Zn309 Zn 0.26937 0.41234 0.55035 0.0
O310 O 0.26533 0.38823 0.50409 0.0
O311 O 0.31204 0.36068 0.49825 0.0
O312 O 0.222 0.4344 0.55492 0.0
O313 O 0.31513 0.35102 0.586 0.0
O314 O 0.27227 0.38385 0.59443 0.0
C315 C 0.28446 0.36962 0.48677 0.0
C316 C 0.33921 0.44567 0.54848 0.0
O317 O 0.30727 0.44895 0.54985 0.0
O318 O 0.35209 0.41765 0.54556 0.0
C319 C 0.21411 0.46428 0.55871 0.0
O320 O 0.23789 0.48591 0.56063 0.0
C321 C 0.29143 0.361 0.60457 0.0
Zn322 Zn 0.49173 0.51823 0.24743 0.0
Zn323 Zn 0.43873 0.56277 0.24861 0.0
O324 O 0.4562 0.56567 0.29326 0.0
O325 O 0.49679 0.52894 0.29447 0.0
O326 O 0.4003 0.59424 0.24864 0.0
O327 O 0.51493 0.54853 0.21518 0.0
O328 O 0.47172 0.5816 0.21532 0.0
C329 C 0.4791 0.55077 0.308 0.0
C330 C 0.42792 0.49037 0.2356 0.0
O331 O 0.41781 0.51917 0.2407 0.0
O332 O 0.45875 0.48341 0.23518 0.0
C333 C 0.37436 0.59053 0.23226 0.0
O334 O 0.37174 0.56532 0.21338 0.0
C335 C 0.50144 0.57481 0.20586 0.0
Co336 Co 0.0289 0.05679 0.01388 0.0
C337 C 0.02284 0.09864 0.06868 0.0
Co338 Co 0.03682 0.03214 0.06018 0.0
C339 C 0.01044 0.06511 0.94828 0.0
C340 C 0.03027 0.10926 0.96617 0.0
N341 N 0.02237 0.07843 0.97513 0.0
N342 N 0.01125 0.08601 0.92291 0.0
C343 C 0.02346 0.114 0.9338 0.0
H344 H 1.0021 0.04025 0.94693 0.0
H345 H 0.04107 0.12688 0.98181 0.0
C346 C 0.04523 0.99022 0.0057 0.0
N347 N 0.04312 0.00832 0.09766 0.0
C348 C 0.06734 0.01144 0.11912 0.0
C349 C 0.03007 0.97852 0.10389 0.0
N350 N 0.07037 0.9845 0.13781 0.0
C351 C 0.04711 0.96364 0.1284 0.0
C352 C 0.97079 0.02677 0.0395 0.0
O353 O 0.03815 0.01629 0.99031 0.0
O354 O 0.0466 0.99251 0.0364 0.0
O355 O 0.99019 0.0197 0.06238 0.0
O356 O 0.98195 0.04512 0.01639 0.0
O357 O 0.02747 0.07202 0.08446 0.0
H358 H 0.01151 0.96708 0.08951 0.0
H359 H 0.08437 0.03176 0.11924 0.0
O360 O 0.02025 0.09707 0.03783 0.0
O361 O 0.07559 0.0685 0.01084 0.0
O362 O 0.08387 0.04511 0.05784 0.0
C363 C 0.09503 0.06274 0.03409 0.0
H364 H 0.02805 0.13572 0.91915 0.0
H365 H 0.0441 0.93889 0.1373 0.0
Co366 Co 0.28205 0.75176 0.29463 0.0
C367 C 0.28962 0.69993 0.25474 0.0
Co368 Co 0.25737 0.75996 0.2485 0.0
C369 C 0.28311 0.75611 0.36248 0.0
C370 C 0.33113 0.74026 0.34436 0.0
N371 N 0.29978 0.74663 0.33516 0.0
N372 N 0.30279 0.75718 0.38808 0.0
C373 C 0.33311 0.74702 0.3771 0.0
H374 H 0.25787 0.76566 0.36288 0.0
H375 H 0.35175 0.73409 0.32785 0.0
C376 C 0.25097 0.81211 0.28881 0.0
N377 N 0.23763 0.76623 0.20917 0.0
C378 C 0.24666 0.75254 0.18068 0.0
C379 C 0.20959 0.78332 0.20308 0.0
N380 N 0.22531 0.76013 0.15729 0.0
C381 C 0.20191 0.77958 0.17097 0.0
C382 C 0.21512 0.73354 0.29565 0.0
O383 O 0.26749 0.79371 0.30716 0.0
O384 O 0.2442 0.80256 0.26067 0.0
O385 O 0.21657 0.74398 0.26647 0.0
O386 O 0.24155 0.73423 0.31165 0.0
O387 O 0.27106 0.71691 0.23656 0.0
H388 H 0.19487 0.79648 0.22114 0.0
H389 H 0.26765 0.73613 0.17734 0.0
O390 O 0.29691 0.7103 0.28247 0.0
O391 O 0.32262 0.76925 0.27674 0.0
O392 O 0.29824 0.77607 0.23048 0.0
C393 C 0.32429 0.77846 0.247 0.0
H394 H 0.35563 0.7476 0.39083 0.0
H395 H 0.18007 0.78881 0.15907 0.0
Co396 Co 0.51106 0.0372 0.53373 0.0
C397 C 0.53203 0.10263 0.52886 0.0
Co398 Co 0.55092 0.04814 0.56695 0.0
C399 C 0.44988 0.01141 0.51435 0.0
C400 C 0.47241 0.04043 0.47592 0.0
N401 N 0.47696 0.02931 0.50659 0.0
N402 N 0.4287 0.01075 0.48987 0.0
C403 C 0.44237 0.02902 0.46552 0.0
H404 H 0.44559 0.99913 0.53763 0.0
H405 H 0.4897 0.05591 0.46216 0.0
C406 C 0.52939 0.98248 0.57172 0.0
N407 N 0.58602 0.05572 0.59388 0.0
C408 C 0.61387 0.07103 0.58298 0.0
C409 C 0.5957 0.03746 0.61954 0.0
N410 N 0.64094 0.06123 0.59885 0.0
C411 C 0.62975 0.04039 0.62227 0.0
C412 C 0.4886 0.05929 0.59391 0.0
O413 O 0.51 0.99188 0.54948 0.0
O414 O 0.54935 0.00316 0.58274 0.0
O415 O 0.51949 0.06006 0.59992 0.0
O416 O 0.48009 0.04871 0.56669 0.0
O417 O 0.55199 0.09344 0.55077 0.0
H418 H 0.58013 0.01982 0.63254 0.0
H419 H 0.61533 0.08527 0.56071 0.0
O420 O 0.51198 0.0818 0.51824 0.0
O421 O 0.54174 0.02618 0.50078 0.0
O422 O 0.58236 0.03619 0.53329 0.0
C423 C 0.57264 0.02823 0.50556 0.0
H424 H 0.43153 0.03348 0.44212 0.0
H425 H 0.64543 0.02573 0.63765 0.0
Co426 Co 0.32256 0.30535 0.80222 0.0
C427 C 0.29602 0.30984 0.73936 0.0
Co428 Co 0.27375 0.2818 0.79942 0.0
C429 C 0.38892 0.31447 0.82224 0.0
C430 C 0.3755 0.35149 0.78791 0.0
N431 N 0.36373 0.32471 0.80388 0.0
N432 N 0.41571 0.33381 0.81865 0.0
C433 C 0.40775 0.35715 0.79698 0.0
H434 H 0.38757 0.29343 0.83839 0.0
H435 H 0.36142 0.36616 0.77114 0.0
C436 C 0.29978 0.27766 0.86221 0.0
N437 N 0.23282 0.2622 0.79842 0.0
C438 C 0.20646 0.27315 0.7822 0.0
C439 C 0.22165 0.23563 0.81519 0.0
N440 N 0.17941 0.25462 0.78814 0.0
C441 C 0.18846 0.23098 0.809 0.0
C442 C 0.32621 0.24025 0.78784 0.0
O443 O 0.3233 0.29451 0.84892 0.0
O444 O 0.27556 0.26982 0.84494 0.0
O445 O 0.29464 0.24232 0.78817 0.0
O446 O 0.34351 0.26521 0.79305 0.0
O447 O 0.27199 0.29416 0.75337 0.0
H448 H 0.2365 0.22084 0.83118 0.0
H449 H 0.20687 0.29454 0.76652 0.0
O450 O 0.32142 0.31604 0.75594 0.0
O451 O 0.30152 0.34536 0.81126 0.0
O452 O 0.25271 0.32147 0.81057 0.0
C453 C 0.26991 0.34697 0.81341 0.0
H454 H 0.42373 0.3771 0.78907 0.0
H455 H 0.17238 0.21183 0.81868 0.0
Co456 Co 0.04225 0.04154 0.49748 0.0
C457 C 0.04414 0.06878 0.55729 0.0
Co458 Co 0.06561 0.08936 0.49473 0.0
C459 C 0.04512 0.97621 0.48307 0.0
C460 C 0.00468 0.98391 0.5176 0.0
N461 N 0.02712 0.99967 0.49792 0.0
N462 N 0.03609 0.94653 0.49352 0.0
C463 C 0.01029 0.95087 0.51501 0.0
H464 H 0.06702 0.98076 0.46746 0.0
H465 H 0.98785 0.99557 0.53502 0.0
C466 C 0.06266 0.06171 0.4347 0.0
N467 N 0.08258 0.13069 0.49277 0.0
C468 C 0.07476 0.15461 0.51353 0.0
C469 C 0.10537 0.14378 0.47132 0.0
N470 N 0.09167 0.18185 0.50605 0.0
C471 C 0.11094 0.17559 0.47944 0.0
C472 C 0.11171 0.04208 0.50439 0.0
O473 O 0.04831 0.03943 0.4514 0.0
O474 O 0.07325 0.08601 0.44964 0.0
O475 O 0.10931 0.07269 0.50162 0.0
O476 O 0.08579 0.02496 0.5029 0.0
O477 O 0.05752 0.09216 0.54105 0.0
H478 H 0.11757 0.13093 0.45142 0.0
H479 H 0.05735 0.15219 0.53418 0.0
O480 O 0.03594 0.04327 0.54287 0.0
O481 O 0.99904 0.05834 0.49302 0.0
O482 O 0.02192 0.10632 0.48741 0.0
C483 C 0.99584 0.08885 0.48876 0.0
H484 H 0.99863 0.93186 0.52989 0.0
H485 H 0.12829 0.19242 0.46753 0.0
Co486 Co 0.27487 0.80983 0.79645 0.0
C487 C 0.2128 0.77807 0.79744 0.0
Co488 Co 0.27306 0.76807 0.76406 0.0
C489 C 0.28196 0.87517 0.81438 0.0
C490 C 0.25263 0.84904 0.85038 0.0
N491 N 0.27276 0.84504 0.82359 0.0
N492 N 0.26696 0.89795 0.83297 0.0
C493 C 0.24848 0.88179 0.85583 0.0
H494 H 0.29606 0.88063 0.79205 0.0
H495 H 0.23881 0.82974 0.86284 0.0
C496 C 0.33531 0.79985 0.76373 0.0
N497 N 0.27503 0.7327 0.73724 0.0
C498 C 0.26563 0.70237 0.74567 0.0
C499 C 0.29061 0.72995 0.70764 0.0
N500 N 0.27501 0.68081 0.72288 0.0
C501 C 0.29074 0.69776 0.69873 0.0
C502 C 0.25648 0.82478 0.73306 0.0
O503 O 0.32081 0.81885 0.78397 0.0
O504 O 0.31888 0.7765 0.75253 0.0
O505 O 0.26021 0.79449 0.72916 0.0
O506 O 0.26042 0.83666 0.76099 0.0
O507 O 0.22648 0.75962 0.77613 0.0
H508 H 0.30243 0.74982 0.69413 0.0
H509 H 0.25334 0.69588 0.76878 0.0
O510 O 0.22971 0.80091 0.80867 0.0
O511 O 0.28905 0.78301 0.83115 0.0
O512 O 0.28633 0.74161 0.79906 0.0
C513 C 0.29324 0.7528 0.82652 0.0
H514 H 0.2311 0.89282 0.8732 0.0
H515 H 0.3021 0.6875 0.67689 0.0
Co516 Co 0.53002 0.01716 0.00591 0.0
C517 C 0.59133 0.00326 0.03442 0.0
Co518 Co 0.53257 0.03343 0.05627 0.0
C519 C 0.5092 0.01442 0.93985 0.0
C520 C 0.54532 0.97765 0.95052 0.0
N521 N 0.52888 0.00339 0.96352 0.0
N522 N 0.51258 0.99644 0.91292 0.0
C523 C 0.53529 0.97331 0.91926 0.0
H524 H 0.49153 0.03423 0.94266 0.0
H525 H 0.56227 0.96198 0.96341 0.0
C526 C 0.47189 0.04949 0.02853 0.0
N527 N 0.534 0.04615 0.0988 0.0
C528 C 0.53672 0.02588 0.12461 0.0
C529 C 0.53292 0.07624 0.11138 0.0
N530 N 0.53789 0.04196 0.15262 0.0
C531 C 0.53547 0.07372 0.14469 0.0
C532 C 0.55558 0.07901 0.01126 0.0
O533 O 0.48469 0.03453 0.00412 0.0
O534 O 0.48852 0.05123 0.05415 0.0
O535 O 0.55039 0.07343 0.04151 0.0
O536 O 0.54692 0.05767 0.99134 0.0
O537 O 0.57703 0.01646 0.05895 0.0
H538 H 0.53056 0.09852 0.09731 0.0
H539 H 0.53874 0.99972 0.12309 0.0
O540 O 0.57517 1.00084 0.0085 0.0
O541 O 0.51334 0.97626 0.02009 0.0
O542 O 0.51493 0.99271 0.07032 0.0
C543 C 0.50921 0.97054 0.05033 0.0
H544 H 0.54256 0.95378 0.90313 0.0
H545 H 0.53563 0.09347 0.16175 0.0
Co546 Co 0.2748 0.2701 0.3073 0.0
C547 C 0.34139 0.29172 0.31286 0.0
Co548 Co 0.28448 0.31791 0.28529 0.0
C549 C 0.26403 0.20099 0.31303 0.0
C550 C 0.28165 0.22163 0.35651 0.0
N551 N 0.26952 0.22967 0.32719 0.0
N552 N 0.2737 0.17568 0.33179 0.0
C553 C 0.28485 0.18857 0.35913 0.0
H554 H 0.25629 0.19867 0.28822 0.0
H555 H 0.29084 0.23861 0.37362 0.0
C556 C 0.21809 0.29648 0.27795 0.0
N557 N 0.2915 0.35829 0.2663 0.0
C558 C 0.32038 0.36954 0.2527 0.0
C559 C 0.27111 0.38445 0.26808 0.0
N560 N 0.31921 0.40178 0.247 0.0
C561 C 0.28824 0.41135 0.25634 0.0
C562 C 0.29118 0.26662 0.24015 0.0
O563 O 0.22818 0.2714 0.29371 0.0
O564 O 0.23779 0.32065 0.27526 0.0
O565 O 0.29286 0.29743 0.2429 0.0
O566 O 0.28633 0.24969 0.26607 0.0
O567 O 0.33123 0.31513 0.29529 0.0
H568 H 0.24644 0.38447 0.27965 0.0
H569 H 0.34294 0.35514 0.24996 0.0
O570 O 0.32107 0.26884 0.31982 0.0
O571 O 0.26347 0.29069 0.34879 0.0
O572 O 0.27636 0.33826 0.32795 0.0
C573 C 0.26842 0.32088 0.35305 0.0
H574 H 0.29635 0.17511 0.37864 0.0
H575 H 0.27975 0.43633 0.25744 0.0
Co576 Co 0.52643 0.52072 0.04195 0.0
C577 C 0.53898 0.5695 0.08369 0.0
Co578 Co 0.55028 0.56326 0.01685 0.0
C579 C 0.5174 0.45232 0.04961 0.0
C580 C 0.50826 0.47592 0.09495 0.0
N581 N 0.51225 0.48197 0.06255 0.0
N582 N 0.51859 0.42861 0.07242 0.0
C583 C 0.51267 0.44318 0.10109 0.0
H584 H 0.52426 0.4482 0.02436 0.0
H585 H 0.50598 0.49422 0.11347 0.0
C586 C 0.53824 0.51426 0.97552 0.0
N587 N 0.56483 0.60209 0.99733 0.0
C588 C 0.55536 0.63089 0.00971 0.0
C589 C 0.58231 0.60994 0.96953 0.0
N590 N 0.56575 0.6562 0.99135 0.0
C591 C 0.58294 0.64358 0.96576 0.0
C592 C 0.59684 0.52055 0.03594 0.0
O593 O 0.52479 0.50125 0.00082 0.0
O594 O 0.55106 0.54234 0.97668 0.0
O595 O 0.59467 0.54883 0.0232 0.0
O596 O 0.57058 0.50565 0.04558 0.0
O597 O 0.54966 0.58375 0.05802 0.0
H598 H 0.59326 0.59249 0.95283 0.0
H599 H 0.54056 0.63383 0.03195 0.0
O600 O 0.5281 0.54085 0.0824 0.0
O601 O 0.48242 0.53624 0.0378 0.0
O602 O 0.50553 0.57673 0.00994 0.0
C603 C 0.47944 0.56238 0.02109 0.0
H604 H 0.51405 0.43143 0.12477 0.0
H605 H 0.59473 0.65748 0.94597 0.0
Co606 Co 0.77493 0.31198 0.298 0.0
C607 C 0.7146 0.27904 0.30998 0.0
Co608 Co 0.7713 0.26708 0.2704 0.0
C609 C 0.78395 0.37902 0.31179 0.0
C610 C 0.76218 0.35293 0.35262 0.0
N611 N 0.77541 0.34904 0.32216 0.0
N612 N 0.77636 0.40144 0.33438 0.0
C613 C 0.76234 0.38539 0.36007 0.0
H614 H 0.79453 0.38454 0.28771 0.0
H615 H 0.75182 0.33356 0.36791 0.0
C616 C 0.83176 0.3006 0.25862 0.0
N617 N 0.76987 0.22869 0.24727 0.0
C618 C 0.74349 0.20865 0.24618 0.0
C619 C 0.79627 0.21043 0.2371 0.0
N620 N 0.75256 0.1783 0.23796 0.0
C621 C 0.78566 0.17933 0.23152 0.0
C622 C 0.74668 0.32062 0.23795 0.0
O623 O 0.8196 0.32017 0.27974 0.0
O624 O 0.81441 0.2764 0.25074 0.0
O625 O 0.75108 0.29007 0.23624 0.0
O626 O 0.75649 0.33514 0.26287 0.0
O627 O 0.72769 0.25841 0.29071 0.0
H628 H 0.82208 0.21777 0.23777 0.0
H629 H 0.71871 0.21453 0.25564 0.0
O630 O 0.73092 0.30431 0.31595 0.0
O631 O 0.79332 0.28868 0.33259 0.0
O632 O 0.79166 0.24415 0.30475 0.0
C633 C 0.79994 0.25864 0.33022 0.0
H634 H 0.75273 0.39641 0.38227 0.0
H635 H 0.80152 0.15829 0.22759 0.0
Co636 Co 0.01628 0.52308 0.52248 0.0
C637 C 0.07555 0.51077 0.55511 0.0
Co638 Co 0.01495 0.54192 0.57218 0.0
C639 C 0.00547 0.52066 0.45388 0.0
C640 C 0.03329 0.47962 0.47094 0.0
N641 N 0.0188 0.50769 0.48075 0.0
N642 N 0.01099 0.50172 0.42787 0.0
C643 C 0.02839 0.47583 0.43829 0.0
H644 H 0.99065 0.54269 0.45361 0.0
H645 H 0.0455 0.46241 0.48679 0.0
C646 C 0.9565 0.55522 0.53908 0.0
N647 N 0.01141 0.55545 0.61471 0.0
C648 C 0.03611 0.56107 0.63516 0.0
C649 C 0.9836 0.55231 0.63413 0.0
N650 N 0.02498 0.56011 0.66652 0.0
C651 C 0.99196 0.55485 0.66604 0.0
C652 C 0.03761 0.58639 0.52733 0.0
O653 O 0.97146 0.53973 0.51621 0.0
O654 O 0.97093 0.55815 0.56581 0.0
O655 O 0.03183 0.58208 0.55772 0.0
O656 O 0.03404 0.56313 0.50786 0.0
O657 O 0.0602 0.52551 0.57827 0.0
H658 H 0.95941 0.5452 0.62596 0.0
H659 H 0.06225 0.5622 0.62764 0.0
O660 O 0.06069 0.50704 0.52869 0.0
O661 O 0.99839 0.48315 0.53726 0.0
O662 O 0.99761 0.50219 0.58638 0.0
C663 C 0.99129 0.4794 0.56737 0.0
H664 H 0.03544 0.45506 0.42372 0.0
H665 H 0.97572 0.55047 0.68728 0.0
Co666 Co 0.80548 0.80229 0.30285 0.0
C667 C 0.79022 0.80897 0.23698 0.0
Co668 Co 0.76062 0.7748 0.29127 0.0
C669 C 0.86828 0.80969 0.33058 0.0
C670 C 0.85107 0.8556 0.31252 0.0
N671 N 0.84363 0.82365 0.31384 0.0
N672 N 0.89038 0.83152 0.34043 0.0
C673 C 0.87983 0.86057 0.32922 0.0
H674 H 0.86876 0.78424 0.33765 0.0
H675 H 0.83562 0.87424 0.30181 0.0
C676 C 0.77614 0.76846 0.35743 0.0
N677 N 0.72242 0.7531 0.28099 0.0
C678 C 0.69787 0.76446 0.26229 0.0
C679 C 0.71302 0.7227 0.28992 0.0
N680 N 0.67369 0.74234 0.25914 0.0
C681 C 0.68292 0.71597 0.27639 0.0
C682 C 0.81763 0.7386 0.28472 0.0
O683 O 0.7994 0.78782 0.34815 0.0
O684 O 0.75565 0.75932 0.33643 0.0
O685 O 0.78644 0.73777 0.28082 0.0
O686 O 0.83102 0.76455 0.29386 0.0
O687 O 0.76607 0.79055 0.24632 0.0
H688 H 0.72725 0.70642 0.30505 0.0
H689 H 0.69784 0.78834 0.25086 0.0
O690 O 0.81147 0.81679 0.25783 0.0
O691 O 0.77959 0.83976 0.31156 0.0
O692 O 0.73475 0.81179 0.30158 0.0
C693 C 0.74819 0.83828 0.30922 0.0
H694 H 0.89123 0.8837 0.33406 0.0
H695 H 0.66905 0.69351 0.27869 0.0
Co696 Co 0.8033 0.26518 0.8128 0.0
C697 C 0.80571 0.20888 0.77821 0.0
Co698 Co 0.77442 0.26892 0.76872 0.0
C699 C 0.81232 0.27507 0.87886 0.0
C700 C 0.85578 0.25148 0.85865 0.0
N701 N 0.82531 0.26281 0.85108 0.0
N702 N 0.83323 0.27231 0.90335 0.0
C703 C 0.86089 0.25763 0.89108 0.0
H704 H 0.78855 0.28759 0.88082 0.0
H705 H 0.87356 0.24076 0.84152 0.0
C706 C 0.77451 0.32573 0.80235 0.0
N707 N 0.75141 0.2717 0.73101 0.0
C708 C 0.76206 0.26057 0.70184 0.0
C709 C 0.72133 0.28541 0.72587 0.0
N710 N 0.73999 0.26678 0.67879 0.0
C711 C 0.71412 0.28227 0.69352 0.0
C712 C 0.73579 0.25017 0.8228 0.0
O713 O 0.79332 0.30959 0.82078 0.0
O714 O 0.76303 0.31245 0.77755 0.0
O715 O 0.73476 0.25533 0.79228 0.0
O716 O 0.76371 0.25301 0.8358 0.0
O717 O 0.78687 0.2249 0.75948 0.0
H718 H 0.70561 0.29666 0.74449 0.0
H719 H 0.78529 0.24757 0.69758 0.0
O720 O 0.81374 0.22118 0.80488 0.0
O721 O 0.84283 0.2776 0.78951 0.0
O722 O 0.81374 0.28288 0.74547 0.0
C723 C 0.84155 0.28378 0.75919 0.0
H724 H 0.88357 0.25343 0.90405 0.0
H725 H 0.69156 0.28996 0.68187 0.0
Co726 Co 0.78129 0.76109 0.80845 0.0
C727 C 0.84639 0.78676 0.8073 0.0
Co728 Co 0.78459 0.80895 0.78502 0.0
C729 C 0.76058 0.69537 0.82335 0.0
C730 C 0.7978 0.71181 0.85515 0.0
N731 N 0.7796 0.72122 0.82953 0.0
N732 N 0.76611 0.67059 0.84426 0.0
C733 C 0.78954 0.68056 0.86427 0.0
H734 H 0.74295 0.69466 0.80406 0.0
H735 H 0.81599 0.72661 0.86658 0.0
C736 C 0.71878 0.78456 0.78867 0.0
N737 N 0.78683 0.84876 0.76384 0.0
C738 C 0.81044 0.87157 0.76641 0.0
C739 C 0.76793 0.85938 0.73918 0.0
N740 N 0.80732 0.89553 0.74416 0.0
C741 C 0.78055 0.88834 0.72699 0.0
C742 C 0.78838 0.7572 0.74014 0.0
O743 O 0.7334 0.76069 0.80234 0.0
O744 O 0.73688 0.80871 0.78006 0.0
O745 O 0.78936 0.78798 0.74285 0.0
O746 O 0.78754 0.74 0.76631 0.0
O747 O 0.83288 0.8092 0.79053 0.0
H748 H 0.74737 0.84612 0.72955 0.0
H749 H 0.83065 0.87004 0.78308 0.0
O750 O 0.82882 0.76202 0.815 0.0
O751 O 0.77477 0.7818 0.85009 0.0
O752 O 0.77957 0.82998 0.82746 0.0
C753 C 0.77685 0.81241 0.85336 0.0
H754 H 0.79954 0.66636 0.88408 0.0
H755 H 0.7719 0.90219 0.7063 0.0
Co756 Co 0.51631 0.55314 0.52638 0.0
C757 C 0.51517 0.59416 0.58145 0.0
Co758 Co 0.52348 0.52735 0.57193 0.0
C759 C 0.51642 0.5679 0.45851 0.0
C760 C 0.49121 0.60449 0.48663 0.0
N761 N 0.50941 0.57688 0.48926 0.0
N762 N 0.50252 0.58819 0.437 0.0
C763 C 0.48687 0.61149 0.45429 0.0
H764 H 0.52869 0.54537 0.45187 0.0
H765 H 0.47936 0.61721 0.50679 0.0
C766 C 0.52551 0.48575 0.51738 0.0
N767 N 0.52958 0.50303 0.60882 0.0
C768 C 0.55168 0.50775 0.63199 0.0
C769 C 0.51655 0.47332 0.61548 0.0
N770 N 0.55328 0.48194 0.65233 0.0
C771 C 0.53148 0.46004 0.64209 0.0
C772 C 0.45669 0.52709 0.55311 0.0
O773 O 0.51983 0.51213 0.50178 0.0
O774 O 0.52998 0.48783 0.54767 0.0
O775 O 0.47607 0.51763 0.57525 0.0
O776 O 0.46864 0.54599 0.53089 0.0
O777 O 0.51752 0.56727 0.59716 0.0
H778 H 0.49819 0.46153 0.60131 0.0
H779 H 0.56711 0.52916 0.63337 0.0
O780 O 0.51311 0.59309 0.55074 0.0
O781 O 0.56371 0.56048 0.52122 0.0
O782 O 0.57089 0.5369 0.56809 0.0
C783 C 0.58357 0.552 0.54335 0.0
H784 H 0.47081 0.63012 0.44439 0.0
H785 H 0.52684 0.43636 0.65314 0.0
Co786 Co 0.02134 0.5418 0.02661 0.0
C787 C 0.04016 0.60841 0.02631 0.0
Co788 Co 0.05966 0.55224 0.06145 0.0
C789 C 0.95943 0.51821 0.00954 0.0
C790 C 0.97971 0.54741 0.97016 0.0
N791 N 0.98654 0.53526 0.99997 0.0
N792 N 0.93589 0.51928 0.98733 0.0
C793 C 0.94818 0.53741 0.96219 0.0
H794 H 0.95656 0.50565 0.03284 0.0
H795 H 0.99621 0.563 0.9556 0.0
C796 C 0.03942 0.48546 0.06224 0.0
N797 N 0.09456 0.55818 0.08921 0.0
C798 C 0.12495 0.56769 0.0781 0.0
C799 C 0.10037 0.53966 0.1159 0.0
N800 N 0.14957 0.55296 0.09424 0.0
C801 C 0.13435 0.53585 0.11862 0.0
C802 C 0.99814 0.561 0.08858 0.0
O803 O 0.0199 0.49584 0.04056 0.0
O804 O 0.05936 0.5059 0.07384 0.0
O805 O 0.02876 0.56099 0.09528 0.0
O806 O 0.99022 0.55237 0.06051 0.0
O807 O 0.05906 0.59886 0.04905 0.0
H808 H 0.08159 0.5253 0.12898 0.0
H809 H 0.1292 0.57996 0.05487 0.0
O810 O 0.02259 0.58696 0.01302 0.0
O811 O 0.05212 0.532 0.99257 0.0
O812 O 0.09101 0.54359 0.02644 0.0
C813 C 0.0827 0.53608 0.9981 0.0
H814 H 0.93529 0.54304 0.9401 0.0
H815 H 0.14656 0.51827 0.1341 0.0
C816 C 0.00607 0.18921 0.09021 0.0
C817 C 0.03388 0.19666 0.10931 0.0
C818 C 0.05385 0.1399 0.10288 0.0
C819 C 0.02521 0.13172 0.08496 0.0
N820 N 0.97103 0.14785 0.067 0.0
N821 N 0.07976 0.17663 0.14007 0.0
C822 C 1.00047 0.15627 0.08022 0.0
C823 C 0.05628 0.17118 0.11751 0.0
N824 N 0.98556 0.21387 0.08059 0.0
N825 N 0.0801 0.11868 0.10431 0.0
H826 H 0.08234 0.19895 0.15135 0.0
H827 H 0.09436 0.15824 0.15002 0.0
H828 H 0.0801 0.09574 0.09422 0.0
H829 H 0.10327 0.12496 0.11293 0.0
H830 H 0.96719 0.21116 0.06361 0.0
H831 H 0.98842 0.23775 0.08811 0.0
H832 H 0.95059 0.16345 0.06564 0.0
H833 H 0.96591 0.12417 0.06009 0.0
C834 C 0.12643 0.75261 0.3209 0.0
C835 C 0.13197 0.75463 0.3548 0.0
C836 C 0.18305 0.72273 0.34742 0.0
C837 C 0.18236 0.72876 0.31358 0.0
N838 N 0.14852 0.73753 0.26712 0.0
N839 N 0.16717 0.74305 0.40037 0.0
C840 C 0.15226 0.73981 0.29989 0.0
C841 C 0.16039 0.73951 0.36825 0.0
N842 N 0.09636 0.7622 0.30921 0.0
N843 N 0.20548 0.70099 0.35941 0.0
H844 H 0.1523 0.75668 0.41644 0.0
H845 H 0.18944 0.73517 0.41024 0.0
H846 H 0.221 0.68722 0.34394 0.0
H847 H 0.20569 0.69396 0.38388 0.0
H848 H 0.08988 0.76041 0.28506 0.0
H849 H 0.0768 0.77073 0.32422 0.0
H850 H 0.12926 0.74828 0.25448 0.0
H851 H 0.16454 0.72332 0.25261 0.0
C852 C 0.50003 0.9086 0.62427 0.0
C853 C 0.52365 0.88401 0.61508 0.0
C854 C 0.55354 0.92534 0.58047 0.0
C855 C 0.52743 0.9484 0.58633 0.0
N856 N 0.47372 0.96044 0.61173 0.0
N857 N 0.57069 0.86853 0.58041 0.0
C858 C 0.49998 0.93942 0.60744 0.0
C859 C 0.54998 0.89236 0.59224 0.0
N860 N 0.47881 0.90335 0.65063 0.0
N861 N 0.58202 0.93496 0.56383 0.0
H862 H 0.56869 0.84428 0.58789 0.0
H863 H 0.58794 0.87224 0.56115 0.0
H864 H 0.5853 0.95842 0.55436 0.0
H865 H 0.60339 0.92053 0.56174 0.0
H866 H 0.46338 0.92129 0.66065 0.0
H867 H 0.47935 0.88221 0.66495 0.0
H868 H 0.45125 0.9539 0.62354 0.0
H869 H 0.47338 0.98378 0.60151 0.0
C870 C 0.47304 0.34033 0.88778 0.0
C871 C 0.49057 0.31068 0.88362 0.0
C872 C 0.46744 0.30467 0.82991 0.0
C873 C 0.44523 0.33058 0.83704 0.0
N874 N 0.42592 0.3734 0.87219 0.0
N875 N 0.50706 0.2652 0.85048 0.0
C876 C 0.44829 0.34907 0.86547 0.0
C877 C 0.48916 0.29333 0.85422 0.0
N878 N 0.48006 0.35984 0.91322 0.0
N879 N 0.46686 0.29074 0.80002 0.0
H880 H 0.5238 0.25685 0.86761 0.0
H881 H 0.50461 0.24952 0.83112 0.0
H882 H 0.45074 0.29893 0.78222 0.0
H883 H 0.48372 0.27307 0.79195 0.0
H884 H 0.4702 0.3831 0.91613 0.0
H885 H 0.49833 0.35385 0.92979 0.0
H886 H 0.42422 0.38532 0.89434 0.0
H887 H 0.40761 0.38049 0.85614 0.0
C888 C 0.08468 0.87952 0.45332 0.0
C889 C 0.09149 0.86021 0.48091 0.0
C890 C 0.07447 0.90521 0.51566 0.0
C891 C 0.05676 0.91835 0.48914 0.0
N892 N 0.04645 0.91917 0.43166 0.0
N893 N 0.1025 0.85755 0.53768 0.0
C894 C 0.06284 0.90628 0.4574 0.0
C895 C 0.09044 0.87459 0.51189 0.0
N896 N 0.09802 0.87145 0.42355 0.0
N897 N 0.07642 0.92221 0.54375 0.0
H898 H 0.11498 0.83544 0.5343 0.0
H899 H 0.09936 0.86468 0.56179 0.0
H900 H 0.06609 0.94535 0.54642 0.0
H901 H 0.09082 0.91478 0.56311 0.0
H902 H 0.09504 0.88573 0.40266 0.0
H903 H 0.11524 0.85245 0.421 0.0
H904 H 0.048 0.90928 0.40847 0.0
H905 H 0.02915 0.93805 0.43423 0.0
C906 C 0.43092 0.80435 0.76307 0.0
C907 C 0.43854 0.79871 0.7296 0.0
C908 C 0.37897 0.80519 0.71851 0.0
C909 C 0.37094 0.8043 0.75249 0.0
N910 N 0.38974 0.80053 0.80762 0.0
N911 N 0.41886 0.79107 0.67533 0.0
C912 C 0.39704 0.80378 0.77498 0.0
C913 C 0.41239 0.79897 0.70712 0.0
N914 N 0.45623 0.81046 0.78345 0.0
N915 N 0.3546 0.81232 0.69708 0.0
H916 H 0.44271 0.7861 0.66574 0.0
H917 H 0.40018 0.78695 0.65895 0.0
H918 H 0.33002 0.81741 0.70463 0.0
H919 H 0.35945 0.81649 0.67229 0.0
H920 H 0.45224 0.81774 0.80745 0.0
H921 H 0.48117 0.81155 0.77526 0.0
H922 H 0.4078 0.79612 0.82475 0.0
H923 H 0.36546 0.79961 0.81749 0.0
C924 C 0.55499 0.15327 0.9578 0.0
C925 C 0.55356 0.17685 0.98256 0.0
C926 C 0.57161 0.13644 0.02241 0.0
C927 C 0.5659 0.11202 0.99948 0.0
N928 N 0.57198 0.09874 0.94274 0.0
N929 N 0.56237 0.19231 0.03802 0.0
C930 C 0.56364 0.12081 0.96615 0.0
C931 C 0.56294 0.16898 0.0147 0.0
N932 N 0.54669 0.16162 0.92678 0.0
N933 N 0.58724 0.12863 0.05048 0.0
H934 H 0.5574 0.21675 0.03298 0.0
H935 H 0.56498 0.1872 0.0627 0.0
H936 H 0.59713 0.10549 0.05463 0.0
H937 H 0.59427 0.14564 0.06735 0.0
H938 H 0.54346 0.14475 0.90857 0.0
H939 H 0.54107 0.18542 0.91971 0.0
H940 H 0.57285 0.10415 0.91789 0.0
H941 H 0.58258 0.07625 0.94845 0.0
C942 C 0.15618 0.31625 0.21028 0.0
C943 C 0.1289 0.29528 0.21763 0.0
C944 C 0.1567 0.27975 0.26876 0.0
C945 C 0.18656 0.2962 0.25798 0.0
N946 N 0.21568 0.32136 0.21111 0.0
N947 N 0.10533 0.25361 0.2533 0.0
C948 C 0.18652 0.31222 0.22681 0.0
C949 C 0.12962 0.27615 0.24687 0.0
N950 N 0.15326 0.34049 0.18743 0.0
N951 N 0.15352 0.26847 0.30012 0.0
H952 H 0.08543 0.25026 0.23809 0.0
H953 H 0.10645 0.23659 0.27228 0.0
H954 H 0.17179 0.2719 0.31711 0.0
H955 H 0.13135 0.2589 0.31014 0.0
H956 H 0.1716 0.3581 0.18318 0.0
H957 H 0.13102 0.3453 0.17578 0.0
H958 H 0.21662 0.33065 0.18733 0.0
H959 H 0.23909 0.31527 0.21934 0.0
C960 C 0.15639 0.98356 0.16822 0.0
C961 C 0.14902 0.98141 0.20205 0.0
C962 C 0.09011 0.97294 0.19278 0.0
C963 C 0.09703 0.97766 0.15909 0.0
N964 N 0.13662 0.9757 0.11382 0.0
N965 N 0.11232 0.96071 0.24551 0.0
C966 C 0.13033 0.97887 0.14648 0.0
C967 C 0.11709 0.97109 0.21395 0.0
N968 N 0.18784 0.9917 0.15721 0.0
N969 N 0.05788 0.9729 0.20477 0.0
H970 H 0.13172 0.95839 0.26153 0.0
H971 H 0.08996 0.95078 0.25463 0.0
H972 H 0.03744 0.97502 0.18993 0.0
H973 H 0.05146 0.97335 0.22955 0.0
H974 H 0.19401 0.99745 0.13296 0.0
H975 H 0.20754 0.99364 0.173 0.0
H976 H 0.16058 0.97409 0.10328 0.0
H977 H 0.11759 0.97153 0.09774 0.0
C978 C 0.28818 0.83025 0.44027 0.0
C979 C 0.27742 0.81504 0.47014 0.0
C980 C 0.28124 0.76156 0.44471 0.0
C981 C 0.29532 0.77647 0.41623 0.0
N982 N 0.31402 0.82412 0.38637 0.0
N983 N 0.26414 0.76673 0.50174 0.0
C984 C 0.29904 0.81064 0.41379 0.0
C985 C 0.27389 0.78077 0.47257 0.0
N986 N 0.28831 0.86342 0.43727 0.0
N987 N 0.27444 0.72909 0.44462 0.0
H988 H 0.25658 0.78034 0.52194 0.0
H989 H 0.26457 0.7418 0.50636 0.0
H990 H 0.28048 0.71459 0.42463 0.0
H991 H 0.26122 0.71689 0.46331 0.0
H992 H 0.292 0.8759 0.41522 0.0
H993 H 0.28244 0.87896 0.45638 0.0
H994 H 0.32111 0.84835 0.38413 0.0
H995 H 0.32157 0.81058 0.36619 0.0
C996 C 0.45439 0.06215 0.67887 0.0
C997 C 0.42363 0.046 0.67442 0.0
C998 C 0.4293 0.05567 0.61582 0.0
C999 C 0.46274 0.06526 0.62002 0.0
N1000 N 0.4985 0.0953 0.65403 0.0
N1001 N 0.38042 0.02855 0.6394 0.0
C1002 C 0.47268 0.07415 0.65119 0.0
C1003 C 0.4104 0.04345 0.6431 0.0
N1004 N 0.46727 0.06395 0.70915 0.0
N1005 N 0.41507 0.06055 0.58645 0.0
H1006 H 0.36525 0.02065 0.65911 0.0
H1007 H 0.37148 0.02244 0.61683 0.0
H1008 H 0.4272 0.07338 0.56741 0.0
H1009 H 0.38999 0.05626 0.58254 0.0
H1010 H 0.49135 0.07197 0.71314 0.0
H1011 H 0.45498 0.05515 0.73025 0.0
H1012 H 0.50539 0.10484 0.67609 0.0
H1013 H 0.51005 0.10656 0.63368 0.0
C1014 C 0.30941 0.22007 0.93511 0.0
C1015 C 0.29152 0.23647 0.96079 0.0
C1016 C 0.28066 0.28143 0.92177 0.0
C1017 C 0.30042 0.26603 0.89716 0.0
N1018 N 0.34282 0.22605 0.88488 0.0
N1019 N 0.27194 0.28887 0.97973 0.0
C1020 C 0.31798 0.23723 0.9054 0.0
C1021 C 0.28068 0.26904 0.95447 0.0
N1022 N 0.31606 0.18759 0.9375 0.0
N1023 N 0.26148 0.30774 0.91407 0.0
H1024 H 0.27482 0.28204 0.00402 0.0
H1025 H 0.26628 0.31342 0.97646 0.0
H1026 H 0.26107 0.31766 0.89058 0.0
H1027 H 0.24409 0.31791 0.93048 0.0
H1028 H 0.32636 0.17436 0.91815 0.0
H1029 H 0.30764 0.17301 0.95694 0.0
H1030 H 0.35835 0.20666 0.89099 0.0
H1031 H 0.3498 0.23814 0.86318 0.0
C1032 C 0.09465 0.02134 0.35708 0.0
C1033 C 0.11762 0.04607 0.34709 0.0
C1034 C 0.08846 0.08399 0.38317 0.0
C1035 C 0.07225 0.05766 0.39947 0.0
N1036 N 0.05186 0.00268 0.39615 0.0
N1037 N 0.13825 0.1008 0.35322 0.0
C1038 C 0.07268 0.02667 0.38458 0.0
C1039 C 0.11477 0.07756 0.36044 0.0
N1040 N 0.09282 0.99359 0.33936 0.0
N1041 N 0.07824 0.11508 0.38911 0.0
H1042 H 0.15935 0.09675 0.33821 0.0
H1043 H 0.13856 0.12304 0.36498 0.0
H1044 H 0.0572 0.12009 0.40397 0.0
H1045 H 0.08784 0.13513 0.37614 0.0
H1046 H 0.07487 0.97571 0.3436 0.0
H1047 H 0.10765 0.98951 0.31843 0.0
H1048 H 0.05498 0.97828 0.3905 0.0
H1049 H 0.03048 0.0075 0.41048 0.0
C1050 C 0.22746 0.84544 0.64956 0.0
C1051 C 0.25102 0.86945 0.63989 0.0
C1052 C 0.27187 0.8714 0.69478 0.0
C1053 C 0.24989 0.84555 0.70422 0.0
N1054 N 0.19975 0.8158 0.69425 0.0
N1055 N 0.28572 0.91366 0.65472 0.0
C1056 C 0.22511 0.83539 0.68279 0.0
C1057 C 0.26952 0.88552 0.66326 0.0
N1058 N 0.209 0.83085 0.62669 0.0
N1059 N 0.29713 0.88031 0.71416 0.0
H1060 H 0.28433 0.92404 0.63143 0.0
H1061 H 0.29731 0.92823 0.67141 0.0
H1062 H 0.3014 0.86969 0.73672 0.0
H1063 H 0.31593 0.8964 0.7066 0.0
H1064 H 0.19442 0.81035 0.63145 0.0
H1065 H 0.20943 0.83866 0.60239 0.0
H1066 H 0.17942 0.80966 0.68058 0.0
H1067 H 0.19757 0.80811 0.71854 0.0
C1068 C 0.43811 0.98535 0.86193 0.0
C1069 C 0.44886 0.00242 0.8332 0.0
C1070 C 0.50145 0.01636 0.8578 0.0
C1071 C 0.49145 0.99785 0.88566 0.0
N1072 N 0.45313 0.96148 0.91377 0.0
N1073 N 0.49174 0.03065 0.8014 0.0
C1074 C 0.46058 0.98132 0.88754 0.0
C1075 C 0.48085 0.01702 0.83043 0.0
N1076 N 0.40602 0.97422 0.86517 0.0
N1077 N 0.53033 0.03381 0.85807 0.0
H1078 H 0.47716 0.03149 0.7809 0.0
H1079 H 0.51593 0.03902 0.7968 0.0
H1080 H 0.54608 0.033 0.87774 0.0
H1081 H 0.53768 0.05052 0.83997 0.0
H1082 H 0.39551 0.96474 0.88681 0.0
H1083 H 0.38886 0.97653 0.84678 0.0
H1084 H 0.43269 0.94598 0.91525 0.0
H1085 H 0.46879 0.95886 0.93337 0.0
C1086 C 0.31109 0.24639 0.1494 0.0
C1087 C 0.2857 0.22352 0.14313 0.0
C1088 C 0.26371 0.22942 0.19963 0.0
C1089 C 0.29031 0.25086 0.20689 0.0
N1090 N 0.34294 0.27466 0.18956 0.0
N1091 N 0.24289 0.18768 0.16466 0.0
C1092 C 0.31504 0.2579 0.18195 0.0
C1093 C 0.26378 0.21324 0.1691 0.0
N1094 N 0.33092 0.25781 0.12405 0.0
N1095 N 0.23678 0.22617 0.22077 0.0
H1096 H 0.24204 0.17545 0.14266 0.0
H1097 H 0.22899 0.17657 0.18363 0.0
H1098 H 0.23433 0.23843 0.24258 0.0
H1099 H 0.21504 0.21409 0.21506 0.0
H1100 H 0.34726 0.2772 0.12595 0.0
H1101 H 0.32949 0.24902 0.10047 0.0
H1102 H 0.36339 0.27796 0.17352 0.0
H1103 H 0.34699 0.28274 0.21301 0.0
C1104 C 0.18566 0.08704 0.05484 0.0
C1105 C 0.18823 0.11841 0.03976 0.0
C1106 C 0.12991 0.11384 0.02414 0.0
C1107 C 0.1279 0.08104 0.0357 0.0
N1108 N 0.15791 0.0345 0.05635 0.0
N1109 N 0.16565 0.15515 0.99973 0.0
C1110 C 0.15702 0.06701 0.0494 0.0
C1111 C 0.16134 0.12949 0.02094 0.0
N1112 N 0.20965 0.07674 0.07539 0.0
N1113 N 0.10168 0.13157 0.01897 0.0
H1114 H 0.18873 0.16632 0.99537 0.0
H1115 H 0.14731 0.16248 0.98376 0.0
H1116 H 0.07794 0.12329 0.02568 0.0
H1117 H 0.10222 0.15627 0.01289 0.0
H1118 H 0.20729 0.05575 0.0898 0.0
H1119 H 0.23067 0.09051 0.0799 0.0
H1120 H 0.17938 0.02249 0.06366 0.0
H1121 H 0.1383 0.01899 0.0515 0.0
C1122 C 0.66589 0.47012 0.07199 0.0
C1123 C 0.67818 0.45428 0.04355 0.0
C1124 C 0.64543 0.49134 0.00986 0.0
C1125 C 0.62898 0.50315 0.03852 0.0
N1126 N 0.62174 0.50234 0.0971 0.0
N1127 N 0.6778 0.44757 0.98537 0.0
C1128 C 0.63884 0.49224 0.06967 0.0
C1129 C 0.66782 0.46457 0.01237 0.0
N1130 N 0.68088 0.46501 0.10101 0.0
N1131 N 0.63923 0.5052 0.98022 0.0
H1132 H 0.69379 0.42754 0.9863 0.0
H1133 H 0.66809 0.45151 0.96248 0.0
H1134 H 0.62227 0.52414 0.97715 0.0
H1135 H 0.65285 0.49971 0.95893 0.0
H1136 H 0.67509 0.47838 0.12178 0.0
H1137 H 0.70155 0.44981 0.10359 0.0
H1138 H 0.62487 0.49194 0.12008 0.0
H1139 H 0.60288 0.51985 0.0966 0.0
C1140 C 0.82263 0.47892 0.33277 0.0
C1141 C 0.81502 0.48784 0.30049 0.0
C1142 C 0.76772 0.45134 0.30332 0.0
C1143 C 0.78213 0.4355 0.33013 0.0
N1144 N 0.82188 0.43523 0.37275 0.0
N1145 N 0.77763 0.48687 0.25626 0.0
C1146 C 0.80842 0.45023 0.3464 0.0
C1147 C 0.78607 0.47601 0.28641 0.0
N1148 N 0.84457 0.49695 0.34948 0.0
N1149 N 0.73727 0.44157 0.29371 0.0
H1150 H 0.79064 0.50569 0.24418 0.0
H1151 H 0.75861 0.47673 0.2432 0.0
H1152 H 0.72423 0.42293 0.30607 0.0
H1153 H 0.72402 0.45381 0.27591 0.0
H1154 H 0.84926 0.49281 0.37397 0.0
H1155 H 0.85551 0.51801 0.33963 0.0
H1156 H 0.8439 0.44278 0.38292 0.0
H1157 H 0.81194 0.41419 0.38352 0.0
C1158 C 0.88947 0.62208 0.53929 0.0
C1159 C 0.86172 0.60533 0.52723 0.0
C1160 C 0.89552 0.55504 0.52423 0.0
C1161 C 0.92389 0.57235 0.53418 0.0
N1162 N 0.94926 0.62397 0.54531 0.0
N1163 N 0.83912 0.55692 0.50444 0.0
C1164 C 0.92116 0.60627 0.54032 0.0
C1165 C 0.86509 0.57216 0.51839 0.0
N1166 N 0.88572 0.65334 0.54967 0.0
N1167 N 0.89707 0.52195 0.52207 0.0
H1168 H 0.81582 0.56781 0.50176 0.0
H1169 H 0.8412 0.53422 0.49374 0.0
H1170 H 0.91856 0.50853 0.52672 0.0
H1171 H 0.87641 0.50742 0.51843 0.0
H1172 H 0.90342 0.66521 0.563 0.0
H1173 H 0.86405 0.667 0.54677 0.0
H1174 H 0.94966 0.64924 0.54568 0.0
H1175 H 0.97304 0.61384 0.54598 0.0
C1176 C 0.26618 0.08489 0.33136 0.0
C1177 C 0.27141 0.0799 0.29767 0.0
C1178 C 0.29337 0.13485 0.29194 0.0
C1179 C 0.27705 0.14241 0.32215 0.0
N1180 N 0.24574 0.12391 0.37038 0.0
N1181 N 0.29553 0.09796 0.24638 0.0
C1182 C 0.26352 0.11714 0.34233 0.0
C1183 C 0.28765 0.10407 0.27826 0.0
N1184 N 0.26215 0.05909 0.35233 0.0
N1185 N 0.31424 0.15687 0.27677 0.0
H1186 H 0.29232 0.07489 0.23674 0.0
H1187 H 0.30394 0.11571 0.22972 0.0
H1188 H 0.32018 0.17882 0.28745 0.0
H1189 H 0.32825 0.15188 0.25557 0.0
H1190 H 0.25969 0.06172 0.3775 0.0
H1191 H 0.26577 0.03524 0.34472 0.0
H1192 H 0.23291 0.10614 0.38413 0.0
H1193 H 0.24082 0.14748 0.37808 0.0
C1194 C 0.34846 0.98107 0.52501 0.0
C1195 C 0.3482 0.94955 0.51169 0.0
C1196 C 0.39719 0.96209 0.47687 0.0
C1197 C 0.39809 0.99311 0.49095 0.0
N1198 N 0.37082 0.03575 0.52071 0.0
N1199 N 0.36523 0.91335 0.46853 0.0
C1200 C 0.37209 0.00384 0.51227 0.0
C1201 C 0.37023 0.94118 0.48535 0.0
N1202 N 0.32786 0.98844 0.55112 0.0
N1203 N 0.42325 0.9519 0.45721 0.0
H1204 H 0.3454 0.89763 0.4741 0.0
H1205 H 0.37873 0.90744 0.44729 0.0
H1206 H 0.44319 0.96695 0.45026 0.0
H1207 H 0.42606 0.92809 0.44934 0.0
H1208 H 0.32944 0.0099 0.56401 0.0
H1209 H 0.31059 0.97205 0.5614 0.0
H1210 H 0.35103 0.04603 0.53411 0.0
H1211 H 0.38845 0.05249 0.5116 0.0
C1212 C 0.85774 0.65847 0.30577 0.0
C1213 C 0.88121 0.65484 0.2795 0.0
C1214 C 0.86448 0.70781 0.25731 0.0
C1215 C 0.83813 0.70903 0.28131 0.0
N1216 N 0.80523 0.68159 0.32402 0.0
N1217 N 0.90337 0.67358 0.22696 0.0
C1218 C 0.83329 0.68314 0.30414 0.0
C1219 C 0.88399 0.67898 0.25444 0.0
N1220 N 0.85951 0.63887 0.33286 0.0
N1221 N 0.87045 0.73383 0.23687 0.0
H1222 H 0.91755 0.65259 0.22341 0.0
H1223 H 0.90325 0.68873 0.20642 0.0
H1224 H 0.85509 0.75436 0.23645 0.0
H1225 H 0.89169 0.73579 0.22159 0.0
H1226 H 0.84493 0.64255 0.35403 0.0
H1227 H 0.87814 0.62132 0.33548 0.0
H1228 H 0.79905 0.66116 0.33827 0.0
H1229 H 0.78689 0.69955 0.32482 0.0
C1230 C 0.7569 0.4152 0.7899 0.0
C1231 C 0.7417 0.42312 0.82054 0.0
C1232 C 0.74872 0.36709 0.83981 0.0
C1233 C 0.76551 0.35963 0.80981 0.0
N1234 N 0.79308 0.37823 0.75979 0.0
N1235 N 0.73064 0.40919 0.87708 0.0
C1236 C 0.77207 0.38426 0.78598 0.0
C1237 C 0.74015 0.39986 0.84634 0.0
N1238 N 0.75494 0.43615 0.76385 0.0
N1239 N 0.73894 0.3428 0.86111 0.0
H1240 H 0.7245 0.43318 0.88265 0.0
H1241 H 0.7321 0.39392 0.89747 0.0
H1242 H 0.74338 0.31829 0.85669 0.0
H1243 H 0.72356 0.34667 0.88169 0.0
H1244 H 0.76218 0.42982 0.74018 0.0
H1245 H 0.74336 0.45882 0.76509 0.0
H1246 H 0.80148 0.39631 0.74349 0.0
H1247 H 0.80473 0.35581 0.75611 0.0
C1248 C 0.05016 0.89671 0.99851 0.0
C1249 C 0.03382 0.89141 0.96891 0.0
C1250 C 0.0351 0.95096 0.95799 0.0
C1251 C 0.04736 0.95664 0.98964 0.0
N1252 N 0.08119 0.9336 0.03154 0.0
N1253 N 0.00797 0.91405 0.92168 0.0
C1254 C 0.05897 0.92905 0.00759 0.0
C1255 C 0.02581 0.91872 0.94891 0.0
N1256 N 0.05659 0.87078 0.01853 0.0
N1257 N 0.03516 0.97563 0.93536 0.0
H1258 H 1.00158 0.89106 0.91369 0.0
H1259 H 0.99724 0.93295 0.90847 0.0
H1260 H 0.04707 0.99763 0.93875 0.0
H1261 H 0.0286 0.97268 0.91131 0.0
H1262 H 0.06418 0.87306 0.04234 0.0
H1263 H 0.05224 0.84681 0.01206 0.0
H1264 H 0.09278 0.91473 0.04401 0.0
H1265 H 0.09186 0.95614 0.0357 0.0
C1266 C 0.92244 0.32202 0.7273 0.0
C1267 C 0.93712 0.29542 0.71033 0.0
C1268 C 0.88441 0.26581 0.71715 0.0
C1269 C 0.87272 0.28951 0.73972 0.0
N1270 N 0.88117 0.33973 0.76769 0.0
N1271 N 0.93273 0.24049 0.69093 0.0
C1272 C 0.89194 0.31748 0.74527 0.0
C1273 C 0.91813 0.26704 0.70522 0.0
N1274 N 0.9366 0.35215 0.72468 0.0
N1275 N 0.86376 0.24162 0.70785 0.0
H1276 H 0.95813 0.23877 0.68498 0.0
H1277 H 0.92041 0.21879 0.68726 0.0
H1278 H 0.83977 0.23822 0.71772 0.0
H1279 H 0.86947 0.22615 0.68863 0.0
H1280 H 0.92533 0.37295 0.73423 0.0
H1281 H 0.95744 0.35715 0.70952 0.0
H1282 H 0.89613 0.35853 0.77539 0.0
H1283 H 0.85805 0.33827 0.78011 0.0
C1284 C 0.52628 0.19653 0.52188 0.0
C1285 C 0.52405 0.20134 0.4876 0.0
C1286 C 0.53454 0.14244 0.48075 0.0
C1287 C 0.53187 0.13704 0.51509 0.0
N1288 N 0.52045 0.15938 0.56827 0.0
N1289 N 0.52113 0.17706 0.43466 0.0
C1290 C 0.52674 0.16426 0.53565 0.0
C1291 C 0.52717 0.17382 0.46707 0.0
N1292 N 0.52893 0.22289 0.54136 0.0
N1293 N 0.54502 0.11769 0.46104 0.0
H1294 H 0.51491 0.1991 0.42358 0.0
H1295 H 0.5192 0.15733 0.4193 0.0
H1296 H 0.55107 0.09464 0.46998 0.0
H1297 H 0.55101 0.12092 0.43632 0.0
H1298 H 0.53404 0.22108 0.566 0.0
H1299 H 0.52952 0.24667 0.53219 0.0
H1300 H 0.51272 0.17782 0.58391 0.0
H1301 H 0.51998 0.13641 0.5793 0.0
C1302 C 0.58403 0.75171 0.23687 0.0
C1303 C 0.5876 0.75157 0.20238 0.0
C1304 C 0.64806 0.74415 0.20565 0.0
C1305 C 0.64464 0.74579 0.23996 0.0
N1306 N 0.61136 0.75601 0.28844 0.0
N1307 N 0.62272 0.75214 0.15341 0.0
C1308 C 0.61311 0.75091 0.25566 0.0
C1309 C 0.6196 0.7493 0.18658 0.0
N1310 N 0.55286 0.75218 0.25156 0.0
N1311 N 0.67838 0.7363 0.19156 0.0
H1312 H 0.6023 0.75478 0.13859 0.0
H1313 H 0.64553 0.75413 0.14061 0.0
H1314 H 0.69956 0.7322 0.20507 0.0
H1315 H 0.68217 0.73143 0.16692 0.0
H1316 H 0.54835 0.7487 0.27647 0.0
H1317 H 0.53109 0.75435 0.23853 0.0
H1318 H 0.58968 0.76303 0.30122 0.0
H1319 H 0.63243 0.75556 0.30261 0.0
C1320 C 0.05773 0.25598 0.54647 0.0
C1321 C 0.0781 0.25607 0.57395 0.0
C1322 C 0.11317 0.21302 0.55065 0.0
C1323 C 0.09051 0.21034 0.52534 0.0
N1324 N 0.04083 0.22704 0.49885 0.0
N1325 N 0.12322 0.23316 0.60444 0.0
C1326 C 0.06283 0.23149 0.52297 0.0
C1327 C 0.10566 0.23451 0.57649 0.0
N1328 N 0.03404 0.27962 0.54264 0.0
N1329 N 0.14144 0.19435 0.55014 0.0
H1330 H 0.1181 0.2481 0.62427 0.0
H1331 H 0.14123 0.21561 0.6092 0.0
H1332 H 0.14681 0.17749 0.53201 0.0
H1333 H 0.16077 0.19722 0.56605 0.0
H1334 H 0.02062 0.28275 0.5216 0.0
H1335 H 0.02938 0.29773 0.55968 0.0
H1336 H 0.01787 0.23887 0.49781 0.0
H1337 H 0.04504 0.21009 0.48052 0.0
C1338 C 0.62326 0.29621 0.33427 0.0
C1339 C 0.61652 0.27111 0.35777 0.0
C1340 C 0.67414 0.25033 0.34928 0.0
C1341 C 0.6803 0.27466 0.32492 0.0
N1342 N 0.65951 0.31716 0.29011 0.0
N1343 N 0.63423 0.22218 0.38553 0.0
C1344 C 0.65452 0.29668 0.31638 0.0
C1345 C 0.64154 0.24742 0.36444 0.0
N1346 N 0.59974 0.31971 0.32902 0.0
N1347 N 0.69995 0.2311 0.35913 0.0
H1348 H 0.61191 0.22057 0.39928 0.0
H1349 H 0.64953 0.20191 0.38833 0.0
H1350 H 0.72391 0.23223 0.3484 0.0
H1351 H 0.69846 0.21547 0.37928 0.0
H1352 H 0.60445 0.34094 0.31557 0.0
H1353 H 0.57571 0.31899 0.3396 0.0
H1354 H 0.64085 0.33148 0.28021 0.0
H1355 H 0.6818 0.31786 0.2762 0.0
C1356 C 0.47028 0.90193 0.10111 0.0
C1357 C 0.49162 0.8758 0.09197 0.0
C1358 C 0.52392 0.91151 0.05487 0.0
C1359 C 0.5016 0.93742 0.06263 0.0
N1360 N 0.45002 0.95609 0.08809 0.0
N1361 N 0.53288 0.85341 0.05431 0.0
C1362 C 0.47366 0.93226 0.08428 0.0
C1363 C 0.51664 0.87989 0.06704 0.0
N1364 N 0.44772 0.89811 0.12664 0.0
N1365 N 0.55313 0.91727 0.03752 0.0
H1366 H 0.52796 0.82966 0.06228 0.0
H1367 H 0.54875 0.85468 0.03368 0.0
H1368 H 0.56009 0.94004 0.02837 0.0
H1369 H 0.57205 0.89998 0.03478 0.0
H1370 H 0.43405 0.91723 0.13682 0.0
H1371 H 0.44438 0.87613 0.1393 0.0
H1372 H 0.42744 0.95272 0.10102 0.0
H1373 H 0.45163 0.97846 0.07585 0.0
C1374 C 0.92994 0.76537 0.8461 0.0
C1375 C 0.93665 0.79405 0.86352 0.0
C1376 C 0.88634 0.8196 0.84143 0.0
C1377 C 0.8798 0.79127 0.82298 0.0
N1378 N 0.9004 0.7403 0.80232 0.0
N1379 N 0.92673 0.85124 0.86987 0.0
C1380 C 0.90326 0.76514 0.82366 0.0
C1381 C 0.91663 0.822 0.85848 0.0
N1382 N 0.94804 0.73786 0.85205 0.0
N1383 N 0.86269 0.84337 0.84523 0.0
H1384 H 0.94878 0.85392 0.88227 0.0
H1385 H 0.91522 0.8732 0.86398 0.0
H1386 H 0.83982 0.84315 0.83433 0.0
H1387 H 0.86443 0.862 0.86192 0.0
H1388 H 0.94197 0.71515 0.84324 0.0
H1389 H 0.96799 0.73734 0.86765 0.0
H1390 H 0.9182 0.72197 0.79937 0.0
H1391 H 0.88183 0.73985 0.7852 0.0
C1392 C 0.96294 0.05788 0.85292 0.0
C1393 C 0.98888 0.05467 0.82868 0.0
C1394 C 0.02994 0.0721 0.86718 0.0
C1395 C 0.00368 0.07798 0.89029 0.0
N1396 N 0.94523 0.08164 0.90439 0.0
N1397 N 0.04598 0.06464 0.81046 0.0
C1398 C 0.97012 0.07249 0.88282 0.0
C1399 C 0.02215 0.06341 0.83512 0.0
N1400 N 0.93193 0.04559 0.84796 0.0
N1401 N 0.0623 0.07349 0.87634 0.0
H1402 H 0.04116 0.05895 0.78645 0.0
H1403 H 0.06974 0.0741 0.8132 0.0
H1404 H 0.06881 0.07959 0.89979 0.0
H1405 H 0.08247 0.06597 0.86157 0.0
H1406 H 0.91301 0.04441 0.86599 0.0
H1407 H 0.92593 0.03375 0.82673 0.0
H1408 H 0.92001 0.08121 0.89921 0.0
H1409 H 0.95011 0.09241 0.92653 0.0
C1410 C 0.76959 0.25791 0.59189 0.0
C1411 C 0.75483 0.22775 0.58488 0.0
C1412 C 0.72873 0.22445 0.6396 0.0
C1413 C 0.74246 0.25504 0.64623 0.0
N1414 N 0.77258 0.30292 0.62936 0.0
N1415 N 0.71702 0.18384 0.59975 0.0
C1416 C 0.76188 0.27244 0.62244 0.0
C1417 C 0.73326 0.21153 0.60803 0.0
N1418 N 0.79129 0.27215 0.56958 0.0
N1419 N 0.71279 0.20713 0.66418 0.0
H1420 H 0.72101 0.17233 0.57753 0.0
H1421 H 0.69802 0.17315 0.61408 0.0
H1422 H 0.70852 0.21633 0.68746 0.0
H1423 H 0.7057 0.18297 0.66232 0.0
H1424 H 0.80526 0.29271 0.57407 0.0
H1425 H 0.7966 0.26236 0.54669 0.0
H1426 H 0.7848 0.31833 0.61258 0.0
H1427 H 0.76726 0.31366 0.65181 0.0
C1428 C 0.62797 0.04996 0.43271 0.0
C1429 C 0.61546 0.02653 0.41172 0.0
C1430 C 0.59157 0.99636 0.45831 0.0
C1431 C 0.59608 0.02399 0.4776 0.0
N1432 N 0.61913 0.07788 0.48333 0.0
N1433 N 0.58553 0.97663 0.4038 0.0
C1434 C 0.61543 0.05065 0.46531 0.0
C1435 C 0.59813 0.9989 0.42432 0.0
N1436 N 0.6512 0.07186 0.42116 0.0
N1437 N 0.57976 0.96829 0.47253 0.0
H1438 H 0.5892 0.97799 0.37859 0.0
H1439 H 0.56945 0.95806 0.41158 0.0
H1440 H 0.57448 0.96636 0.49754 0.0
H1441 H 0.57836 0.94643 0.46025 0.0
H1442 H 0.66352 0.08772 0.43609 0.0
H1443 H 0.66057 0.07171 0.39711 0.0
H1444 H 0.62933 0.09941 0.47387 0.0
H1445 H 0.60992 0.07996 0.50711 0.0
C1446 C 0.79224 0.81365 0.14281 0.0
C1447 C 0.79763 0.84738 0.13662 0.0
C1448 C 0.7946 0.85631 0.19612 0.0
C1449 C 0.7928 0.82218 0.20235 0.0
N1450 N 0.79544 0.76802 0.1809 0.0
N1451 N 0.80972 0.90004 0.15811 0.0
C1452 C 0.79296 0.80077 0.17545 0.0
C1453 C 0.80022 0.8685 0.1635 0.0
N1454 N 0.7854 0.79393 0.1175 0.0
N1455 N 0.78966 0.87738 0.22123 0.0
H1456 H 0.81434 0.91 0.1349 0.0
H1457 H 0.81595 0.91555 0.17669 0.0
H1458 H 0.78534 0.86981 0.24533 0.0
H1459 H 0.78669 0.90234 0.21781 0.0
H1460 H 0.77768 0.76992 0.12063 0.0
H1461 H 0.78431 0.80246 0.09352 0.0
H1462 H 0.79936 0.75134 0.16235 0.0
H1463 H 0.79682 0.75763 0.20413 0.0
C1464 C 1.0016 0.0914 0.63802 0.0
C1465 C 0.01547 0.06722 0.65846 0.0
C1466 C 0.05506 0.05177 0.61461 0.0
C1467 C 0.0369 0.07129 0.59263 0.0
N1468 N 0.9919 0.10892 0.58272 0.0
N1469 N 0.0668 0.04002 0.671 0.0
C1470 C 0.01033 0.09147 0.60422 0.0
C1471 C 0.04583 0.05206 0.64825 0.0
N1472 N 0.98218 0.11557 0.65112 0.0
N1473 N 0.08005 0.0318 0.6032 0.0
H1474 H 0.06219 0.0434 0.69589 0.0
H1475 H 0.09056 0.03091 0.66533 0.0
H1476 H 0.08774 0.03116 0.57872 0.0
H1477 H 0.09153 0.01427 0.61759 0.0
H1478 H 0.97327 0.13516 0.63758 0.0
H1479 H 0.97942 0.11883 0.67618 0.0
H1480 H 0.9698 0.12095 0.58928 0.0
H1481 H 0.99721 0.10906 0.55776 0.0
C1482 C 0.80139 0.18872 0.38849 0.0
C1483 C 0.79594 0.20672 0.41732 0.0
C1484 C 0.81437 0.25626 0.38887 0.0
C1485 C 0.81115 0.23997 0.35919 0.0
N1486 N 0.82228 0.18964 0.33216 0.0
N1487 N 0.80027 0.25691 0.4466 0.0
C1488 C 0.81112 0.20563 0.3593 0.0
C1489 C 0.80407 0.2402 0.41821 0.0
N1490 N 0.79617 0.15594 0.38895 0.0
N1491 N 0.82861 0.28631 0.38882 0.0
H1492 H 0.79354 0.2458 0.46887 0.0
H1493 H 0.802 0.28209 0.44779 0.0
H1494 H 0.83912 0.29684 0.36756 0.0
H1495 H 0.83382 0.29872 0.40989 0.0
H1496 H 0.79683 0.1418 0.36818 0.0
H1497 H 0.78999 0.14293 0.41033 0.0
H1498 H 0.82496 0.16452 0.33105 0.0
H1499 H 0.83253 0.20207 0.31185 0.0
C1500 C 0.52331 0.0246 0.24179 0.0
C1501 C 0.55373 0.00856 0.24817 0.0
C1502 C 0.56916 0.00744 0.19075 0.0
C1503 C 0.54136 0.0277 0.18438 0.0
N1504 N 0.48618 0.0457 0.20084 0.0
N1505 N 0.59178 0.96767 0.22803 0.0
C1506 C 0.51631 0.03302 0.20903 0.0
C1507 C 0.57182 0.99387 0.22227 0.0
N1508 N 0.50207 0.03235 0.26721 0.0
N1509 N 0.59423 0.00318 0.16781 0.0
H1510 H 0.59204 0.95647 0.25101 0.0
H1511 H 0.60429 0.955 0.20947 0.0
H1512 H 0.59472 0.01489 0.14513 0.0
H1513 H 0.61621 0.99066 0.17266 0.0
H1514 H 0.48095 0.04692 0.26509 0.0
H1515 H 0.50619 0.02381 0.29082 0.0
H1516 H 0.46611 0.04875 0.2173 0.0
H1517 H 0.48047 0.05086 0.17672 0.0
C1518 C 0.79907 0.81852 0.9434 0.0
C1519 C 0.78972 0.85075 0.95173 0.0
C1520 C 0.76624 0.8565 0.89675 0.0
C1521 C 0.78089 0.82638 0.88709 0.0
N1522 N 0.82201 0.78543 0.90041 0.0
N1523 N 0.76969 0.90292 0.93212 0.0
C1524 C 0.80024 0.8092 0.91021 0.0
C1525 C 0.77457 0.87048 0.9273 0.0
N1526 N 0.80624 0.79621 0.96712 0.0
N1527 N 0.74369 0.87152 0.8774 0.0
H1528 H 0.77679 0.91472 0.95294 0.0
H1529 H 0.76183 0.91875 0.91386 0.0
H1530 H 0.73611 0.86166 0.85568 0.0
H1531 H 0.72997 0.89188 0.88468 0.0
H1532 H 0.81087 0.77182 0.96206 0.0
H1533 H 0.80325 0.80106 0.99189 0.0
H1534 H 0.83837 0.77406 0.91619 0.0
H1535 H 0.82732 0.78071 0.876 0.0
C1536 C 0.88707 0.9877 0.0671 0.0
C1537 C 0.87909 0.96987 0.03914 0.0
C1538 C 0.92946 0.99142 0.01028 0.0
C1539 C 0.93733 0.01006 0.03798 0.0
N1540 N 0.91911 0.03141 0.0899 0.0
N1541 N 0.88748 0.96195 0.98165 0.0
C1542 C 0.91465 0.00988 0.06552 0.0
C1543 C 0.89857 0.97431 0.00993 0.0
N1544 N 0.8692 0.98241 0.09562 0.0
N1545 N 0.95246 0.98768 0.98521 0.0
H1546 H 0.86499 0.94937 0.98067 0.0
H1547 H 0.89864 0.96709 0.95886 0.0
H1548 H 0.97586 0.9984 0.98447 0.0
H1549 H 0.94968 0.97124 0.96651 0.0
H1550 H 0.87607 0.99147 0.1179 0.0
H1551 H 0.84835 0.96731 0.09726 0.0
H1552 H 0.90197 0.03469 0.10924 0.0
H1553 H 0.9385 0.04826 0.08913 0.0
C1554 C 0.4085 0.62177 0.00311 0.0
C1555 C 0.38133 0.60014 0.00207 0.0
C1556 C 0.41962 0.55411 0.00683 0.0
C1557 C 0.44589 0.57571 0.01377 0.0
N1558 N 0.46261 0.63135 0.02396 0.0
N1559 N 0.36006 0.54558 0.0098 0.0
C1560 C 0.4397 0.60992 0.01334 0.0
C1561 C 0.38654 0.56623 0.0059 0.0
N1562 N 0.40501 0.65344 0.99321 0.0
N1563 N 0.42622 0.52247 0.99922 0.0
H1564 H 0.33529 0.55351 0.01059 0.0
H1565 H 0.36287 0.52103 0.01575 0.0
H1566 H 0.45034 0.51306 0.99662 0.0
H1567 H 0.40799 0.50676 0.99132 0.0
H1568 H 0.42512 0.66929 0.99029 0.0
H1569 H 0.38284 0.66293 0.98444 0.0
H1570 H 0.45714 0.65578 0.02779 0.0
H1571 H 0.4857 0.6246 0.03233 0.0
C1572 C 0.27262 0.604 0.76802 0.0
C1573 C 0.24056 0.59411 0.75929 0.0
C1574 C 0.24082 0.63315 0.71408 0.0
C1575 C 0.27006 0.64653 0.72622 0.0
N1576 N 0.32009 0.63931 0.75535 0.0
N1577 N 0.2 0.58977 0.71778 0.0
C1578 C 0.2884 0.62954 0.74977 0.0
C1579 C 0.22697 0.60514 0.72971 0.0
N1580 N 0.28663 0.59025 0.79472 0.0
N1581 N 0.22494 0.64912 0.6897 0.0
H1582 H 0.18939 0.56929 0.72918 0.0
H1583 H 0.19005 0.59541 0.69533 0.0
H1584 H 0.23537 0.66938 0.6777 0.0
H1585 H 0.20135 0.64305 0.68205 0.0
H1586 H 0.30889 0.59799 0.80422 0.0
H1587 H 0.27531 0.5709 0.80757 0.0
H1588 H 0.33593 0.62718 0.77101 0.0
H1589 H 0.33111 0.65857 0.74213 0.0
C1590 C 0.16833 0.49745 0.53315 0.0
C1591 C 0.17825 0.47539 0.55801 0.0
C1592 C 0.12018 0.47529 0.58074 0.0
C1593 C 0.11116 0.49954 0.55755 0.0
N1594 N 0.12865 0.53824 0.51573 0.0
N1595 N 0.16464 0.4469 0.60843 0.0
C1596 C 0.13584 0.51185 0.5349 0.0
C1597 C 0.1544 0.46524 0.58261 0.0
N1598 N 0.18948 0.50364 0.50694 0.0
N1599 N 0.09587 0.46089 0.60014 0.0
H1600 H 0.18924 0.43899 0.61054 0.0
H1601 H 0.14947 0.44171 0.62895 0.0
H1602 H 0.07076 0.46755 0.59952 0.0
H1603 H 0.1001 0.44065 0.61497 0.0
H1604 H 0.18238 0.51657 0.48631 0.0
H1605 H 0.21314 0.49314 0.50429 0.0
H1606 H 0.14657 0.55061 0.50139 0.0
H1607 H 0.10548 0.54987 0.51654 0.0
C1608 C 0.85969 0.96762 0.75932 0.0
C1609 C 0.88402 0.96519 0.73337 0.0
C1610 C 0.85604 0.91741 0.71308 0.0
C1611 C 0.83099 0.92095 0.73795 0.0
N1612 N 0.80471 0.95199 0.78057 0.0
N1613 N 0.90181 0.94239 0.68185 0.0
C1614 C 0.83143 0.9471 0.75962 0.0
C1615 C 0.88113 0.94145 0.70905 0.0
N1616 N 0.86461 0.98792 0.78472 0.0
N1617 N 0.85664 0.89028 0.69438 0.0
H1618 H 0.92025 0.95997 0.678 0.0
H1619 H 0.89877 0.92762 0.66185 0.0
H1620 H 0.83847 0.87228 0.69673 0.0
H1621 H 0.87635 0.88445 0.67828 0.0
H1622 H 0.8494 0.98813 0.80582 0.0
H1623 H 0.8856 0.00257 0.78629 0.0
H1624 H 0.80184 0.97246 0.79499 0.0
H1625 H 0.78391 0.9368 0.7813 0.0
C1626 C 0.70621 0.06543 0.53323 0.0
C1627 C 0.72759 0.08836 0.54672 0.0
C1628 C 0.6976 0.08371 0.59947 0.0
C1629 C 0.67424 0.06357 0.58499 0.0
N1630 N 0.66213 0.02584 0.54314 0.0
N1631 N 0.75182 0.10943 0.59504 0.0
C1632 C 0.68089 0.05094 0.55353 0.0
C1633 C 0.72632 0.09375 0.58084 0.0
N1634 N 0.70905 0.05916 0.50072 0.0
N1635 N 0.69091 0.09514 0.63003 0.0
H1636 H 0.77342 0.11669 0.58215 0.0
H1637 H 0.75313 0.11222 0.6201 0.0
H1638 H 0.67012 0.08761 0.64415 0.0
H1639 H 0.70484 0.11313 0.64065 0.0
H1640 H 0.69185 0.04557 0.48839 0.0
H1641 H 0.72852 0.06868 0.48594 0.0
H1642 H 0.66657 0.01425 0.52106 0.0
H1643 H 0.64386 0.0148 0.55826 0.0
C1644 C 0.22779 0.42458 0.78669 0.0
C1645 C 0.22736 0.4425 0.81583 0.0
C1646 C 0.25638 0.3981 0.84335 0.0
C1647 C 0.25343 0.37893 0.81528 0.0
N1648 N 0.22991 0.37181 0.76232 0.0
N1649 N 0.23406 0.44341 0.87404 0.0
C1650 C 0.23683 0.39137 0.78773 0.0
C1651 C 0.23969 0.42852 0.84484 0.0
N1652 N 0.22173 0.43968 0.75758 0.0
N1653 N 0.27519 0.38744 0.8685 0.0
H1654 H 0.22053 0.46499 0.87646 0.0
H1655 H 0.2397 0.43263 0.89629 0.0
H1656 H 0.2871 0.36488 0.86875 0.0
H1657 H 0.28105 0.40205 0.88793 0.0
H1658 H 0.22535 0.42837 0.73521 0.0
H1659 H 0.21681 0.46449 0.75529 0.0
H1660 H 0.21449 0.37903 0.74362 0.0
H1661 H 0.23738 0.34766 0.76089 0.0
C1662 C 0.31889 0.61228 0.25173 0.0
C1663 C 0.34869 0.61636 0.23246 0.0
C1664 C 0.3332 0.67265 0.21966 0.0
C1665 C 0.30604 0.66998 0.24278 0.0
N1666 N 0.27183 0.63798 0.28031 0.0
N1667 N 0.38471 0.64925 0.19736 0.0
C1668 C 0.29829 0.63982 0.25837 0.0
C1669 C 0.35576 0.64613 0.21585 0.0
N1670 N 0.31054 0.58211 0.26376 0.0
N1671 N 0.33762 0.70064 0.20163 0.0
H1672 H 0.40065 0.62971 0.19233 0.0
H1673 H 0.39387 0.67125 0.18808 0.0
H1674 H 0.3222 0.72089 0.20417 0.0
H1675 H 0.35499 0.70324 0.18234 0.0
H1676 H 0.28782 0.57671 0.27562 0.0
H1677 H 0.32555 0.56167 0.25985 0.0
H1678 H 0.26691 0.61801 0.29553 0.0
H1679 H 0.25518 0.65724 0.28414 0.0
C1680 C 0.49253 0.67009 0.6322 0.0
C1681 C 0.52256 0.68851 0.62929 0.0
C1682 C 0.54605 0.64707 0.59186 0.0
C1683 C 0.51753 0.62678 0.59794 0.0
N1684 N 0.46434 0.61843 0.62577 0.0
N1685 N 0.57935 0.69271 0.60882 0.0
C1686 C 0.491 0.6382 0.61869 0.0
C1687 C 0.54957 0.67666 0.60946 0.0
N1688 N 0.46495 0.68371 0.64717 0.0
N1689 N 0.57 0.63813 0.5692 0.0
H1690 H 0.58259 0.71468 0.62055 0.0
H1691 H 0.60141 0.68333 0.59852 0.0
H1692 H 0.56946 0.61625 0.55698 0.0
H1693 H 0.58925 0.65332 0.56079 0.0
H1694 H 0.44133 0.67331 0.64761 0.0
H1695 H 0.465 0.70713 0.65652 0.0
H1696 H 0.44601 0.62343 0.64361 0.0
H1697 H 0.46157 0.59579 0.61519 0.0
C1698 C 0.64407 0.25856 0.84973 0.0
C1699 C 0.64896 0.2734 0.88029 0.0
C1700 C 0.70674 0.25437 0.87787 0.0
C1701 C 0.70449 0.2484 0.84409 0.0
N1702 N 0.66883 0.23694 0.79975 0.0
N1703 N 0.68671 0.28757 0.92231 0.0
C1704 C 0.6724 0.24811 0.83051 0.0
C1705 C 0.68075 0.27173 0.89418 0.0
N1706 N 0.61243 0.25253 0.84005 0.0
N1707 N 0.73274 0.24208 0.8948 0.0
H1708 H 0.6687 0.30161 0.93457 0.0
H1709 H 0.71054 0.28939 0.93148 0.0
H1710 H 0.74972 0.2255 0.88458 0.0
H1711 H 0.73437 0.24439 0.91992 0.0
H1712 H 0.60721 0.23931 0.8195 0.0
H1713 H 0.5911 0.2578 0.85429 0.0
H1714 H 0.64757 0.24095 0.78641 0.0
H1715 H 0.68726 0.22315 0.78778 0.0
C1716 C 0.0427 0.41179 0.12212 0.0
C1717 C 0.04136 0.38463 0.10114 0.0
C1718 C 0.03859 0.42327 0.05411 0.0
C1719 C 0.03814 0.45044 0.07532 0.0
N1720 N 0.02981 0.46882 0.13049 0.0
N1721 N 0.03039 0.36518 0.04771 0.0
C1722 C 0.03733 0.44413 0.1096 0.0
C1723 C 0.03708 0.39066 0.06729 0.0
N1724 N 0.05074 0.4071 0.15388 0.0
N1725 N 0.04194 0.4283 0.02122 0.0
H1726 H 0.02848 0.3413 0.05647 0.0
H1727 H 0.0234 0.36801 0.02367 0.0
H1728 H 0.04258 0.45129 0.01036 0.0
H1729 H 0.04671 0.40971 0.00479 0.0
H1730 H 0.05594 0.42613 0.16928 0.0
H1731 H 0.05528 0.38423 0.16409 0.0
H1732 H 0.02554 0.4652 0.15545 0.0
H1733 H 0.02394 0.49228 0.12255 0.0
C1734 C 0.97524 0.82403 0.37612 0.0
C1735 C 0.96724 0.80444 0.40414 0.0
C1736 C 0.90797 0.80996 0.39332 0.0
C1737 C 0.91633 0.82496 0.36288 0.0
N1738 N 0.95822 0.8417 0.32271 0.0
N1739 N 0.92605 0.77329 0.43564 0.0
C1740 C 0.95008 0.83084 0.35353 0.0
C1741 C 0.93357 0.79592 0.41181 0.0
N1742 N 0.00628 0.83735 0.37173 0.0
N1743 N 0.87559 0.8099 0.40487 0.0
H1744 H 0.94419 0.76108 0.44874 0.0
H1745 H 0.90209 0.7641 0.43991 0.0
H1746 H 0.85649 0.8215 0.39252 0.0
H1747 H 0.86843 0.80163 0.42818 0.0
H1748 H 0.01225 0.8542 0.35325 0.0
H1749 H 0.02503 0.8344 0.38847 0.0
H1750 H 0.98275 0.84323 0.31354 0.0
H1751 H 0.94035 0.84638 0.30542 0.0
C1752 C 0.52253 0.33819 0.06312 0.0
C1753 C 0.54853 0.33659 0.03877 0.0
C1754 C 0.56334 0.39235 0.05099 0.0
C1755 C 0.53153 0.39642 0.06691 0.0
N1756 N 0.48079 0.37248 0.08927 0.0
N1757 N 0.60182 0.35888 0.0201 0.0
C1758 C 0.51142 0.36896 0.07411 0.0
C1759 C 0.5716 0.36255 0.036 0.0
N1760 N 0.50903 0.31022 0.07596 0.0
N1761 N 0.58629 0.4166 0.04987 0.0
H1762 H 0.61112 0.3363 0.01303 0.0
H1763 H 0.61857 0.37808 0.01662 0.0
H1764 H 0.58281 0.43868 0.06175 0.0
H1765 H 0.58281 0.43868 0.06175 0.0
H1766 H 0.49154 0.30987 0.09536 0.0
H1767 H 0.51867 0.28744 0.06975 0.0
H1768 H 0.46369 0.35355 0.09187 0.0
H1769 H 0.47154 0.39483 0.0971 0.0
C1770 C 0.92679 0.30996 0.24363 0.0
C1771 C 0.92927 0.30951 0.209 0.0
C1772 C 0.8678 0.30886 0.20763 0.0
C1773 C 0.86538 0.3059 0.24212 0.0
N1774 N 0.89303 0.29865 0.29287 0.0
N1775 N 0.90192 0.30147 0.15841 0.0
C1776 C 0.89502 0.30519 0.26014 0.0
C1777 C 0.89967 0.30707 0.19112 0.0
N1778 N 0.95453 0.31618 0.2608 0.0
N1779 N 0.83965 0.31453 0.19056 0.0
H1780 H 0.92464 0.29868 0.14553 0.0
H1781 H 0.88135 0.29612 0.14472 0.0
H1782 H 0.81598 0.31677 0.20174 0.0
H1783 H 0.84017 0.32036 0.16578 0.0
H1784 H 0.95374 0.32041 0.28574 0.0
H1785 H 0.97805 0.31983 0.2497 0.0
H1786 H 0.91384 0.29416 0.30673 0.0
H1787 H 0.87043 0.29508 0.30578 0.0
C1788 C 0.06798 0.67295 0.52251 0.0
C1789 C 0.04774 0.68557 0.49778 0.0
C1790 C 0.02237 0.63278 0.4906 0.0
C1791 C 0.04362 0.61947 0.51451 0.0
N1792 N 0.09163 0.62483 0.54768 0.0
N1793 N 0.01176 0.6768 0.45286 0.0
C1794 C 0.068 0.63898 0.52884 0.0
C1795 C 0.02716 0.66517 0.4799 0.0
N1796 N 0.08666 0.69348 0.54016 0.0
N1797 N 0.99574 0.61576 0.48001 0.0
H1798 H 0.01276 0.70102 0.44506 0.0
H1799 H 1.00016 0.6618 0.43655 0.0
H1800 H 0.98965 0.59239 0.48776 0.0
H1801 H 0.9772 0.62612 0.46602 0.0
H1802 H 0.09912 0.6862 0.56085 0.0
H1803 H 0.08797 0.7184 0.53525 0.0
H1804 H 0.11184 0.63735 0.55645 0.0
H1805 H 0.09282 0.59982 0.55201 0.0
C1806 C 0.63383 0.80908 0.75214 0.0
C1807 C 0.62316 0.77836 0.74109 0.0
C1808 C 0.66754 0.7523 0.77246 0.0
C1809 C 0.68255 0.78284 0.77821 0.0
N1810 N 0.67622 0.84128 0.77729 0.0
N1811 N 0.63551 0.72126 0.73531 0.0
C1812 C 0.66466 0.81155 0.76887 0.0
C1813 C 0.64185 0.75023 0.74956 0.0
N1814 N 0.61357 0.83561 0.74854 0.0
N1815 N 0.6757 0.7254 0.7904 0.0
H1816 H 0.61814 0.71892 0.7172 0.0
H1817 H 0.65015 0.70058 0.7388 0.0
H1818 H 0.68944 0.7266 0.81132 0.0
H1819 H 0.66395 0.70307 0.78806 0.0
H1820 H 0.61779 0.85794 0.75911 0.0
H1821 H 0.59095 0.83478 0.7369 0.0
H1822 H 0.66823 0.86303 0.76682 0.0
H1823 H 0.69366 0.84418 0.79521 0.0
C1824 C 0.62951 0.4875 0.70069 0.0
C1825 C 0.61463 0.48707 0.73232 0.0
C1826 C 0.55971 0.47781 0.71132 0.0
C1827 C 0.57425 0.47896 0.67949 0.0
N1828 N 0.62286 0.47521 0.64376 0.0
N1829 N 0.56885 0.47108 0.76881 0.0
C1830 C 0.6093 0.48053 0.67415 0.0
C1831 C 0.58082 0.47817 0.73794 0.0
N1832 N 0.6623 0.49577 0.69609 0.0
N1833 N 0.52583 0.47923 0.71613 0.0
H1834 H 0.58387 0.47134 0.789 0.0
H1835 H 0.54505 0.4618 0.7739 0.0
H1836 H 0.50936 0.48055 0.69713 0.0
H1837 H 0.5141 0.48212 0.73895 0.0
H1838 H 0.67368 0.49996 0.67323 0.0
H1839 H 0.67774 0.4997 0.71555 0.0
H1840 H 0.64844 0.47385 0.63858 0.0
H1841 H 0.60817 0.46927 0.62427 0.0
C1842 C 0.81896 0.34259 0.9575 0.0
C1843 C 0.80675 0.32666 0.98643 0.0
C1844 C 0.81431 0.27378 0.96079 0.0
C1845 C 0.82879 0.28965 0.93304 0.0
N1846 N 0.85009 0.33778 0.90612 0.0
N1847 N 0.79548 0.27745 0.01743 0.0
C1848 C 0.83272 0.32371 0.93185 0.0
C1849 C 0.8053 0.29227 0.98867 0.0
N1850 N 0.81703 0.37568 0.95431 0.0
N1851 N 0.80818 0.24123 0.95978 0.0
H1852 H 0.7869 0.29041 0.03772 0.0
H1853 H 0.79725 0.25251 0.02169 0.0
H1854 H 0.81548 0.22722 0.93977 0.0
H1855 H 0.7944 0.22852 0.97775 0.0
H1856 H 0.82207 0.38822 0.93249 0.0
H1857 H 0.80789 0.39078 0.9727 0.0
H1858 H 0.85695 0.36214 0.90513 0.0
H1859 H 0.86034 0.32434 0.88688 0.0
C1860 C 0.92272 0.54373 0.14185 0.0
C1861 C 0.93687 0.55062 0.17208 0.0
C1862 C 0.9823 0.58022 0.1441 0.0
C1863 C 0.97225 0.56708 0.11457 0.0
N1864 N 0.9243 0.55422 0.0836 0.0
N1865 N 0.9804 0.57536 0.20268 0.0
C1866 C 0.93971 0.55416 0.11268 0.0
C1867 C 0.96625 0.56966 0.17353 0.0
N1868 N 0.89365 0.52657 0.14112 0.0
N1869 N 0.00642 0.60354 0.14358 0.0
H1870 H 0.97017 0.56742 0.22508 0.0
H1871 H 0.00385 0.58578 0.20456 0.0
H1872 H 0.01667 0.61302 0.12171 0.0
H1873 H 0.01309 0.61616 0.1641 0.0
H1874 H 0.88427 0.51725 0.11992 0.0
H1875 H 0.87957 0.52031 0.16214 0.0
H1876 H 0.89983 0.54669 0.08096 0.0
H1877 H 0.93422 0.56634 0.06301 0.0
C1878 C 0.75244 0.76154 0.44919 0.0
C1879 C 0.76522 0.7301 0.45772 0.0
C1880 C 0.79209 0.72882 0.40254 0.0
C1881 C 0.77338 0.75624 0.39232 0.0
N1882 N 0.73166 0.79647 0.40615 0.0
N1883 N 0.79074 0.68065 0.43669 0.0
C1884 C 0.75216 0.77181 0.4157 0.0
C1885 C 0.78353 0.71288 0.43288 0.0
N1886 N 0.74247 0.78263 0.47297 0.0
N1887 N 0.8184 0.71807 0.38363 0.0
H1888 H 0.78139 0.66658 0.45616 0.0
H1889 H 0.80196 0.66696 0.41813 0.0
H1890 H 0.8261 0.72991 0.36201 0.0
H1891 H 0.83445 0.69969 0.39128 0.0
H1892 H 0.73537 0.80653 0.46798 0.0
H1893 H 0.7458 0.7779 0.49764 0.0
H1894 H 0.71351 0.80672 0.42171 0.0
H1895 H 0.73082 0.80454 0.382 0.0
C1896 C 0.53747 0.49888 0.88662 0.0
C1897 C 0.5686 0.48273 0.88429 0.0
C1898 C 0.56667 0.47156 0.94239 0.0
C1899 C 0.54163 0.496 0.94538 0.0
N1900 N 0.49769 0.52757 0.92182 0.0
N1901 N 0.59962 0.43757 0.90534 0.0
C1902 C 0.52459 0.50732 0.91787 0.0
C1903 C 0.57884 0.46341 0.91076 0.0
N1904 N 0.52094 0.50597 0.85894 0.0
N1905 N 0.58047 0.45826 0.96946 0.0
H1906 H 0.60632 0.43034 0.88174 0.0
H1907 H 0.60682 0.42134 0.92348 0.0
H1908 H 0.5721 0.46376 0.993 0.0
H1909 H 0.6011 0.44279 0.96872 0.0
H1910 H 0.49727 0.51646 0.85878 0.0
H1911 H 0.53008 0.49819 0.83621 0.0
H1912 H 0.48619 0.53941 0.90265 0.0
H1913 H 0.48732 0.53292 0.9448 0.0
C1914 C 0.73861 0.33587 0.1495 0.0
C1915 C 0.75366 0.36702 0.14803 0.0
C1916 C 0.74287 0.37321 0.20634 0.0
C1917 C 0.73647 0.33949 0.20866 0.0
N1918 N 0.70981 0.29499 0.18331 0.0
N1919 N 0.7668 0.41738 0.17356 0.0
C1920 C 0.72825 0.32273 0.18035 0.0
C1921 C 0.75411 0.38666 0.17593 0.0
N1922 N 0.73625 0.31826 0.12177 0.0
N1923 N 0.73661 0.39231 0.23265 0.0
H1924 H 0.77382 0.42826 0.15124 0.0
H1925 H 0.77167 0.43142 0.19368 0.0
H1926 H 0.72497 0.3832 0.25401 0.0
H1927 H 0.73861 0.41749 0.2317 0.0
H1928 H 0.72916 0.29398 0.12165 0.0
H1929 H 0.74261 0.32777 0.09868 0.0
H1930 H 0.70112 0.28233 0.16363 0.0
H1931 H 0.70008 0.28682 0.20589 0.0
C1932 C 0.99284 0.52965 0.34296 0.0
C1933 C 0.9633 0.51184 0.33804 0.0
C1934 C 0.96462 0.4888 0.39323 0.0
C1935 C 0.99514 0.50495 0.39738 0.0
N1936 N 0.04045 0.53805 0.37687 0.0
N1937 N 0.92242 0.47191 0.35659 0.0
C1938 C 0.00987 0.52469 0.37239 0.0
C1939 C 0.94964 0.49054 0.36259 0.0
N1940 N 0.00426 0.55136 0.31965 0.0
N1941 N 0.94942 0.47291 0.41918 0.0
H1942 H 0.90925 0.4737 0.33524 0.0
H1943 H 0.91382 0.45317 0.37196 0.0
H1944 H 0.96004 0.47091 0.44191 0.0
H1945 H 0.92526 0.46377 0.41912 0.0
H1946 H 0.02377 0.56743 0.32289 0.0
H1947 H 0.99306 0.55449 0.29728 0.0
H1948 H 0.05432 0.55044 0.35879 0.0
H1949 H 0.05294 0.53498 0.39856 0.0
C1950 C 0.79716 0.74167 0.64729 0.0
C1951 C 0.77065 0.71956 0.64256 0.0
C1952 C 0.75631 0.72122 0.70162 0.0
C1953 C 0.78388 0.74216 0.7069 0.0
N1954 N 0.83424 0.7671 0.68499 0.0
N1955 N 0.72991 0.68278 0.66648 0.0
C1956 C 0.80533 0.75089 0.67971 0.0
C1957 C 0.75186 0.70765 0.67017 0.0
N1958 N 0.81398 0.75465 0.62068 0.0
N1959 N 0.7328 0.71583 0.726 0.0
H1960 H 0.72565 0.6725 0.64397 0.0
H1961 H 0.71833 0.67028 0.68601 0.0
H1962 H 0.73403 0.72561 0.74904 0.0
H1963 H 0.71029 0.70414 0.72251 0.0
H1964 H 0.83089 0.77366 0.62189 0.0
H1965 H 0.8093 0.74779 0.59695 0.0
H1966 H 0.85264 0.77155 0.66695 0.0
H1967 H 0.84135 0.77345 0.7082 0.0
C1968 C 0.66362 0.59014 0.57398 0.0
C1969 C 0.67383 0.60922 0.54629 0.0
C1970 C 0.63285 0.58044 0.51385 0.0
C1971 C 0.61926 0.565 0.54259 0.0
N1972 N 0.63392 0.54254 0.59481 0.0
N1973 N 0.66829 0.62277 0.48952 0.0
C1974 C 0.63815 0.56612 0.5713 0.0
C1975 C 0.65873 0.60409 0.51603 0.0
N1976 N 0.67737 0.59582 0.60327 0.0
N1977 N 0.62284 0.5705 0.4842 0.0
H1978 H 0.68814 0.63906 0.48971 0.0
H1979 H 0.65546 0.62352 0.46795 0.0
H1980 H 0.60717 0.55059 0.4818 0.0
H1981 H 0.63332 0.57875 0.46206 0.0
H1982 H 0.66807 0.58595 0.62525 0.0
H1983 H 0.69684 0.6122 0.60588 0.0
H1984 H 0.64827 0.54075 0.61537 0.0
H1985 H 0.61997 0.52174 0.59121 0.0
C1986 C 0.18014 0.99997 0.54856 0.0
C1987 C 0.19374 0.97941 0.52392 0.0
C1988 C 0.15629 0.00397 0.48452 0.0
C1989 C 0.14389 0.02535 0.50891 0.0
N1990 N 0.15031 0.04978 0.56116 0.0
N1991 N 0.20091 0.96785 0.4666 0.0
C1992 C 0.15811 0.02551 0.53989 0.0
C1993 C 0.18359 0.98308 0.4913 0.0
N1994 N 0.18635 0.9938 0.58058 0.0
N1995 N 0.14172 0.00341 0.45497 0.0
H1996 H 0.22187 0.95336 0.47033 0.0
H1997 H 0.1966 0.97214 0.44206 0.0
H1998 H 0.12349 0.02013 0.44822 0.0
H1999 H 0.14659 0.98548 0.43783 0.0
H2000 H 0.17427 0.00595 0.59971 0.0
H2001 H 0.20077 0.97421 0.58836 0.0
H2002 H 0.16241 0.05277 0.58291 0.0
H2003 H 0.13394 0.06869 0.5557 0.0
C2004 C 0.26887 0.9654 0.77425 0.0
C2005 C 0.28926 0.98652 0.79137 0.0
C2006 C 0.2795 0.95557 0.84161 0.0
C2007 C 0.26437 0.93141 0.82323 0.0
N2008 N 0.23238 0.91838 0.77703 0.0
N2009 N 0.29803 0.01151 0.8429 0.0
C2010 C 0.25422 0.93858 0.79125 0.0
C2011 C 0.2886 0.9852 0.82581 0.0
N2012 N 0.26624 0.96971 0.74146 0.0
N2013 N 0.28775 0.94911 0.87296 0.0
H2014 H 0.30332 0.03379 0.83148 0.0
H2015 H 0.29657 0.01228 0.86825 0.0
H2016 H 0.28112 0.92751 0.88505 0.0
H2017 H 0.30241 0.96448 0.88629 0.0
H2018 H 0.25481 0.95321 0.72655 0.0
H2019 H 0.27654 0.99 0.72931 0.0
H2020 H 0.22295 0.92261 0.75408 0.0
H2021 H 0.22178 0.8986 0.78978 0.0
C2022 C 0.40755 0.11886 0.03313 0.0
C2023 C 0.3775 0.10256 0.02619 0.0
C2024 C 0.40904 0.05084 0.02175 0.0
C2025 C 0.43932 0.06759 0.02657 0.0
N2026 N 0.46814 0.11859 0.03049 0.0
N2027 N 0.34989 0.05361 0.01062 0.0
C2028 C 0.43872 0.10187 0.03075 0.0
C2029 C 0.3784 0.06872 0.01941 0.0
N2030 N 0.40648 0.15078 0.04181 0.0
N2031 N 0.40931 0.01765 0.02083 0.0
H2032 H 0.32665 0.06511 0.01092 0.0
H2033 H 0.34945 0.03023 0.00139 0.0
H2034 H 0.43114 0.00387 0.02217 0.0
H2035 H 0.38783 0.00355 0.02111 0.0
H2036 H 0.42661 0.16285 0.0513 0.0
H2037 H 0.38482 0.16488 0.04163 0.0
H2038 H 0.46967 0.14382 0.02962 0.0
H2039 H 0.49141 0.10737 0.02793 0.0
C2040 C 0.70525 0.60512 0.86839 0.0
C2041 C 0.71024 0.58428 0.84156 0.0
C2042 C 0.75799 0.61661 0.82187 0.0
C2043 C 0.74934 0.64006 0.84543 0.0
N2044 N 0.71428 0.65859 0.89012 0.0
N2045 N 0.74026 0.57026 0.79156 0.0
C2046 C 0.72312 0.63467 0.86879 0.0
C2047 C 0.73676 0.5896 0.81823 0.0
N2048 N 0.68346 0.59645 0.89338 0.0
N2049 N 0.78652 0.62052 0.80304 0.0
H2050 H 0.72539 0.55003 0.78801 0.0
H2051 H 0.75659 0.57533 0.77188 0.0
H2052 H 0.80216 0.6405 0.80524 0.0
H2053 H 0.79611 0.60288 0.78736 0.0
H2054 H 0.6807 0.60928 0.91494 0.0
H2055 H 0.67039 0.57457 0.89374 0.0
H2056 H 0.69305 0.65763 0.90549 0.0
H2057 H 0.72698 0.68059 0.89084 0.0
C2058 C 0.87989 0.44917 0.99922 0.0
C2059 C 0.85911 0.46198 0.02473 0.0
C2060 C 0.88006 0.51651 0.01232 0.0
C2061 C 0.90483 0.50267 0.99145 0.0
N2062 N 0.92858 0.45721 0.96325 0.0
N2063 N 0.83691 0.50755 0.05464 0.0
C2064 C 0.90417 0.46949 0.98367 0.0
C2065 C 0.85791 0.49577 0.03061 0.0
N2066 N 0.87633 0.41764 0.98995 0.0
N2067 N 0.87897 0.54948 0.01515 0.0
H2068 H 0.82029 0.49276 0.06815 0.0
H2069 H 0.83674 0.53154 0.06219 0.0
H2070 H 0.89559 0.56453 0.0019 0.0
H2071 H 0.86064 0.56196 0.02853 0.0
H2072 H 0.8883 0.4079 0.96941 0.0
H2073 H 0.85938 0.40166 0.00141 0.0
H2074 H 0.93257 0.43251 0.95964 0.0
H2075 H 0.94589 0.47212 0.95076 0.0
C2076 C 0.37909 0.17135 0.75318 0.0
C2077 C 0.37635 0.14855 0.77946 0.0
C2078 C 0.33787 0.18442 0.80907 0.0
C2079 C 0.34275 0.20848 0.78424 0.0
N2080 N 0.37123 0.22695 0.73457 0.0
N2081 N 0.36081 0.13706 0.83567 0.0
C2082 C 0.36471 0.20274 0.75704 0.0
C2083 C 0.35805 0.15624 0.8084 0.0
N2084 N 0.39329 0.16243 0.72388 0.0
N2085 N 0.31365 0.18798 0.83305 0.0
H2086 H 0.37642 0.1167 0.83635 0.0
H2087 H 0.35061 0.14334 0.85842 0.0
H2088 H 0.29899 0.20874 0.83574 0.0
H2089 H 0.3066 0.16926 0.84922 0.0
H2090 H 0.39246 0.17683 0.70285 0.0
H2091 H 0.40358 0.13953 0.71966 0.0
H2092 H 0.39004 0.22538 0.71647 0.0
H2093 H 0.35915 0.24945 0.73507 0.0
C2094 C 0.24501 0.89507 0.32821 0.0
C2095 C 0.2117 0.90371 0.32141 0.0
C2096 C 0.2027 0.84942 0.30023 0.0
C2097 C 0.23747 0.84315 0.30129 0.0
N2098 N 0.29275 0.86141 0.31364 0.0
N2099 N 0.15977 0.89033 0.29638 0.0
C2100 C 0.25895 0.86617 0.31496 0.0
C2101 C 0.19057 0.88114 0.30654 0.0
N2102 N 0.26319 0.91451 0.34747 0.0
N2103 N 0.18104 0.8249 0.29414 0.0
H2104 H 0.1496 0.91337 0.29983 0.0
H2105 H 0.14537 0.87578 0.28191 0.0
H2106 H 0.18879 0.80105 0.29026 0.0
H2107 H 0.15519 0.8275 0.2965 0.0
H2108 H 0.28653 0.90799 0.35586 0.0
H2109 H 0.25334 0.93568 0.35775 0.0
H2110 H 0.30972 0.87895 0.32031 0.0
H2111 H 0.30417 0.84113 0.30312 0.0
C2112 C 0.53233 0.41221 0.45849 0.0
C2113 C 0.51943 0.38643 0.47911 0.0
C2114 C 0.50509 0.42743 0.52035 0.0
C2115 C 0.52259 0.45226 0.50244 0.0
N2116 N 0.55796 0.46581 0.45548 0.0
N2117 N 0.50388 0.37041 0.53449 0.0
C2118 C 0.53774 0.44394 0.47175 0.0
C2119 C 0.50909 0.39435 0.5115 0.0
N2120 N 0.53779 0.40732 0.42595 0.0
N2121 N 0.48258 0.43533 0.54465 0.0
H2122 H 0.50919 0.34602 0.53006 0.0
H2123 H 0.49854 0.37545 0.55894 0.0
H2124 H 0.4758 0.45927 0.54939 0.0
H2125 H 0.4674 0.41812 0.5567 0.0
H2126 H 0.54392 0.42608 0.4095 0.0
H2127 H 0.53286 0.38545 0.41478 0.0
H2128 H 0.57223 0.45997 0.43466 0.0
H2129 H 0.56287 0.48875 0.46449 0.0
C2130 C 0.4162 0.76916 0.2273 0.0
C2131 C 0.41567 0.77016 0.19273 0.0
C2132 C 0.35866 0.7919 0.1958 0.0
C2133 C 0.35729 0.78534 0.22985 0.0
N2134 N 0.38928 0.78583 0.27822 0.0
N2135 N 0.38686 0.78245 0.14353 0.0
C2136 C 0.38745 0.77925 0.24586 0.0
C2137 C 0.38718 0.78203 0.17679 0.0
N2138 N 0.44396 0.75802 0.24241 0.0
N2139 N 0.3337 0.80963 0.18221 0.0
H2140 H 0.40744 0.77569 0.12885 0.0
H2141 H 0.36553 0.78719 0.13052 0.0
H2142 H 0.31475 0.82049 0.19639 0.0
H2143 H 0.3341 0.81728 0.15793 0.0
H2144 H 0.44442 0.75288 0.26728 0.0
H2145 H 0.46613 0.75198 0.22981 0.0
H2146 H 0.41114 0.78405 0.29104 0.0
H2147 H 0.37003 0.79768 0.2911 0.0
C2148 C 0.05733 0.69866 0.99873 0.0
C2149 C 0.02603 0.70696 0.98543 0.0
C2150 C 0.00352 0.65495 0.00729 0.0
C2151 C 0.03587 0.64406 0.016 0.0
N2152 N 0.09449 0.65714 0.0196 0.0
N2153 N 0.97117 0.68907 0.97166 0.0
C2154 C 0.06303 0.66642 0.01176 0.0
C2155 C 0.99971 0.68397 0.98824 0.0
N2156 N 0.08123 0.72207 1.00041 0.0
N2157 N 0.97585 0.63859 0.01889 0.0
H2158 H 0.96763 0.70923 0.95644 0.0
H2159 H 0.95265 0.67153 0.97016 0.0
H2160 H 0.97708 0.61915 0.03541 0.0
H2161 H 0.9516 0.64701 0.0157 0.0
H2162 H 0.10304 0.71904 0.01315 0.0
H2163 H 0.07801 0.74565 0.99139 0.0
H2164 H 0.1158 0.67008 0.01228 0.0
H2165 H 0.09971 0.63599 0.03255 0.0
C2166 C 0.10622 0.3007 0.76011 0.0
C2167 C 0.09998 0.2833 0.7316 0.0
C2168 C 0.13987 0.24112 0.74641 0.0
C2169 C 0.14794 0.25971 0.7736 0.0
N2170 N 0.13455 0.30181 0.81144 0.0
N2171 N 0.10297 0.23311 0.70193 0.0
C2172 C 0.12926 0.28765 0.78228 0.0
C2173 C 0.11387 0.25195 0.72646 0.0
N2174 N 0.09112 0.33013 0.76506 0.0
N2175 N 0.15906 0.21478 0.73816 0.0
H2176 H 0.08469 0.24067 0.68607 0.0
H2177 H 0.10995 0.20892 0.69892 0.0
H2178 H 0.17821 0.20613 0.75247 0.0
H2179 H 0.1574 0.20256 0.71632 0.0
H2180 H 0.09695 0.34577 0.78362 0.0
H2181 H 0.07296 0.33928 0.74975 0.0
H2182 H 0.12069 0.3213 0.82055 0.0
H2183 H 0.15155 0.29218 0.8277 0.0
C2184 C 0.56754 0.72497 0.04593 0.0
C2185 C 0.53238 0.72755 0.05084 0.0
C2186 C 0.52454 0.69876 1.00019 0.0
C2187 C 0.5584 0.68909 1.00035 0.0
N2188 N 0.61363 0.6963 0.0187 0.0
N2189 N 0.47756 0.72407 0.02963 0.0
C2190 C 0.58059 0.70437 0.02104 0.0
C2191 C 0.51089 0.71721 0.02654 0.0
N2192 N 0.58813 0.74132 0.06567 0.0
N2193 N 0.50545 0.68776 0.97593 0.0
H2194 H 0.46765 0.73831 0.04847 0.0
H2195 H 0.45985 0.71625 0.0137 0.0
H2196 H 0.51585 0.6737 0.95717 0.0
H2197 H 0.48046 0.69372 0.97328 0.0
H2198 H 0.61396 0.74208 0.06228 0.0
H2199 H 0.57909 0.75647 0.08408 0.0
H2200 H 0.63118 0.70317 0.03527 0.0
H2201 H 0.62326 0.6818 0.99996 0.0
C2202 C 0.12404 0.80041 0.82554 0.0
C2203 C 0.11421 0.77221 0.84382 0.0
C2204 C 0.16813 0.74604 0.82893 0.0
C2205 C 0.17754 0.77394 0.80998 0.0
N2206 N 0.1627 0.82543 0.78576 0.0
N2207 N 0.12466 0.71639 0.85938 0.0
C2208 C 0.15492 0.80047 0.80705 0.0
C2209 C 0.13548 0.74438 0.84414 0.0
N2210 N 0.10391 0.82735 0.82606 0.0
N2211 N 0.19116 0.72207 0.83425 0.0
H2212 H 0.10222 0.71477 0.87293 0.0
H2213 H 0.13695 0.69416 0.85707 0.0
H2214 H 0.21512 0.72219 0.82351 0.0
H2215 H 0.18752 0.70312 0.85106 0.0
H2216 H 0.11132 0.85005 0.81705 0.0
H2217 H 0.08004 0.82757 0.83703 0.0
H2218 H 0.14615 0.84388 0.77959 0.0
H2219 H 0.18505 0.8264 0.772 0.0
C2220 C 0.99328 0.42017 0.63367 0.0
C2221 C 0.01297 0.39715 0.61629 0.0
C2222 C 0.9947 0.41959 0.56462 0.0
C2223 C 0.98346 0.44709 0.58167 0.0
N2224 N 0.95603 0.46699 0.63009 0.0
N2225 N 0.02971 0.37167 0.56545 0.0
C2226 C 0.9771 0.44493 0.61568 0.0
C2227 C 0.01236 0.39544 0.58176 0.0
N2228 N 0.99159 0.41917 0.66696 0.0
N2229 N 0.98791 0.4167 0.53251 0.0
H2230 H 0.04241 0.35298 0.57723 0.0
H2231 H 0.03303 0.37141 0.54021 0.0
H2232 H 0.97273 0.43352 0.52074 0.0
H2233 H 0.99373 0.39617 0.51892 0.0
H2234 H 0.97968 0.43668 0.68123 0.0
H2235 H 1.00309 0.40093 0.68052 0.0
H2236 H 0.94912 0.46678 0.65474 0.0
H2237 H 0.94341 0.48424 0.61616 0.0
C2238 C 0.41531 0.32116 0.3622 0.0
C2239 C 0.43313 0.29177 0.36699 0.0
C2240 C 0.39588 0.26491 0.32921 0.0
C2241 C 0.37477 0.29287 0.32882 0.0
N2242 N 0.36256 0.34637 0.35034 0.0
N2243 N 0.43978 0.23486 0.35622 0.0
C2244 C 0.38424 0.32089 0.34632 0.0
C2245 C 0.42342 0.26345 0.35055 0.0
N2246 N 0.4281 0.34953 0.37308 0.0
N2247 N 0.39009 0.24003 0.30858 0.0
H2248 H 0.46071 0.23337 0.37055 0.0
H2249 H 0.4316 0.21248 0.34825 0.0
H2250 H 0.37086 0.24071 0.29215 0.0
H2251 H 0.40613 0.22026 0.30549 0.0
H2252 H 0.41822 0.3723 0.36738 0.0
H2253 H 0.45068 0.35047 0.3849 0.0
H2254 H 0.36664 0.36544 0.36604 0.0
H2255 H 0.3389 0.34721 0.3409 0.0
C2256 C 0.51029 0.5837 0.34646 0.0
C2257 C 0.48569 0.55992 0.34116 0.0
C2258 C 0.4699 0.55769 0.39885 0.0
C2259 C 0.49591 0.57986 0.40442 0.0
N2260 N 0.54308 0.61152 0.38588 0.0
N2261 N 0.44497 0.52092 0.36135 0.0
C2262 C 0.51674 0.59225 0.37883 0.0
C2263 C 0.46624 0.54592 0.36709 0.0
N2264 N 0.5268 0.59847 0.32055 0.0
N2265 N 0.44845 0.54854 0.42394 0.0
H2266 H 0.44136 0.51202 0.33811 0.0
H2267 H 0.43268 0.50736 0.37967 0.0
H2268 H 0.45073 0.55651 0.44769 0.0
H2269 H 0.42696 0.53498 0.421 0.0
H2270 H 0.54256 0.61828 0.32265 0.0
H2271 H 0.52327 0.59212 0.29644 0.0
H2272 H 0.56145 0.61888 0.36881 0.0
H2273 H 0.54762 0.61861 0.40957 0.0
C2274 C 0.24612 0.74161 0.06998 0.0
C2275 C 0.23336 0.70961 0.06889 0.0
C2276 C 0.20872 0.71469 0.12387 0.0
C2277 C 0.22476 0.74501 0.12625 0.0
N2278 N 0.25995 0.78721 0.10369 0.0
N2279 N 0.20544 0.66386 0.09538 0.0
C2280 C 0.24359 0.7586 0.09974 0.0
C2281 C 0.21499 0.69574 0.09582 0.0
N2282 N 0.26009 0.75576 0.04243 0.0
N2283 N 0.18783 0.70403 0.14877 0.0
H2284 H 0.20971 0.64892 0.07539 0.0
H2285 H 0.19543 0.65131 0.11562 0.0
H2286 H 0.18381 0.71696 0.17018 0.0
H2287 H 0.17258 0.68375 0.14735 0.0
H2288 H 0.26729 0.78 0.0408 0.0
H2289 H 0.2621 0.74383 0.02023 0.0
H2290 H 0.27716 0.79694 0.08667 0.0
H2291 H 0.25751 0.80045 0.12511 0.0
C2292 C 0.14688 0.56423 0.93336 0.0
C2293 C 0.14031 0.54141 0.90915 0.0
C2294 C 0.10819 0.50901 0.94952 0.0
C2295 C 0.10769 0.53569 0.97069 0.0
N2296 N 0.12513 0.59069 0.9814 0.0
N2297 N 0.11192 0.49232 0.89359 0.0
C2298 C 0.12725 0.56365 0.96268 0.0
C2299 C 0.1208 0.51339 0.9171 0.0
N2300 N 0.17154 0.5867 0.92802 0.0
N2301 N 0.09656 0.47958 0.9605 0.0
H2302 H 0.11921 0.49478 0.86913 0.0
H2303 H 0.09468 0.47375 0.89798 0.0
H2304 H 0.08849 0.47579 0.98468 0.0
H2305 H 0.09872 0.45847 0.94691 0.0
H2306 H 0.17893 0.6027 0.94571 0.0
H2307 H 0.18688 0.587 0.90692 0.0
H2308 H 0.13605 0.61279 0.97455 0.0
H2309 H 0.10993 0.59208 0.00226 0.0
C2310 C 0.29814 0.36909 0.66525 0.0
C2311 C 0.2892 0.34856 0.63946 0.0
C2312 C 0.28676 0.30207 0.67865 0.0
C2313 C 0.29344 0.32305 0.70484 0.0
N2314 N 0.29913 0.3781 0.72336 0.0
N2315 N 0.26988 0.29649 0.62265 0.0
C2316 C 0.29735 0.35699 0.69816 0.0
C2317 C 0.282 0.31532 0.64655 0.0
N2318 N 0.30907 0.39992 0.6582 0.0
N2319 N 0.28665 0.26921 0.68401 0.0
H2320 H 0.26616 0.30539 0.59913 0.0
H2321 H 0.26075 0.27309 0.62677 0.0
H2322 H 0.29071 0.25859 0.70674 0.0
H2323 H 0.28555 0.25235 0.66548 0.0
H2324 H 0.32003 0.41465 0.67515 0.0
H2325 H 0.30981 0.40999 0.63474 0.0
H2326 H 0.29767 0.40323 0.72039 0.0
H2327 H 0.29883 0.37068 0.74771 0.0
C2328 C 0.55179 0.58722 0.17055 0.0
C2329 C 0.5181 0.59417 0.17936 0.0
C2330 C 0.50384 0.60073 0.1234 0.0
C2331 C 0.53526 0.587 0.11429 0.0
N2332 N 0.59303 0.5794 0.12626 0.0
N2333 N 0.47194 0.62858 0.16576 0.0
C2334 C 0.5609 0.58482 0.13696 0.0
C2335 C 0.49764 0.60871 0.1562 0.0
N2336 N 0.57387 0.58137 0.19443 0.0
N2337 N 0.4791 0.60334 0.10165 0.0
H2338 H 0.46849 0.63544 0.19001 0.0
H2339 H 0.45715 0.64103 0.14929 0.0
H2340 H 0.4825 0.59588 0.07777 0.0
H2341 H 0.45477 0.61037 0.10813 0.0
H2342 H 0.59835 0.57357 0.19018 0.0
H2343 H 0.56702 0.58477 0.21893 0.0
H2344 H 0.61322 0.5781 0.14143 0.0
H2345 H 0.59958 0.57844 0.10145 0.0
C2346 C 0.29379 0.72351 0.91306 0.0
C2347 C 0.28413 0.69074 0.90855 0.0
C2348 C 0.29735 0.69614 0.85031 0.0
C2349 C 0.3005 0.73014 0.85413 0.0
N2350 N 0.32067 0.77129 0.88914 0.0
N2351 N 0.27692 0.64516 0.87343 0.0
C2352 C 0.30457 0.74248 0.88561 0.0
C2353 C 0.2863 0.67669 0.87735 0.0
N2354 N 0.29063 0.73712 0.94318 0.0
N2355 N 0.30764 0.68223 0.82173 0.0
H2356 H 0.27012 0.62979 0.89298 0.0
H2357 H 0.27388 0.63493 0.85072 0.0
H2358 H 0.3202 0.69537 0.80317 0.0
H2359 H 0.30837 0.65724 0.81846 0.0
H2360 H 0.29342 0.76187 0.9471 0.0
H2361 H 0.28269 0.72422 0.96407 0.0
H2362 H 0.32679 0.7805 0.91159 0.0
H2363 H 0.33203 0.78365 0.86936 0.0
C2364 C 0.0593 0.57314 0.74899 0.0
C2365 C 0.08827 0.55317 0.74686 0.0
C2366 C 0.06991 0.53221 0.69537 0.0
C2367 C 0.04513 0.55676 0.6945 0.0
N2368 N 0.01869 0.60359 0.71868 0.0
N2369 N 0.12465 0.51867 0.71352 0.0
C2370 C 0.04033 0.57802 0.72092 0.0
C2371 C 0.09456 0.53378 0.71895 0.0
N2372 N 0.04941 0.58669 0.77793 0.0
N2373 N 0.06942 0.50698 0.67423 0.0
H2374 H 0.14478 0.52092 0.7286 0.0
H2375 H 0.13088 0.50689 0.69185 0.0
H2376 H 0.05033 0.50397 0.65799 0.0
H2377 H 0.08561 0.48714 0.67567 0.0
H2378 H 0.02695 0.59927 0.78124 0.0
H2379 H 0.06175 0.5822 0.79947 0.0
H2380 H 0.01664 0.62167 0.73611 0.0
H2381 H 0.00513 0.60835 0.69794 0.0
C2382 C 0.26186 0.3776 0.42843 0.0
C2383 C 0.27538 0.35727 0.45336 0.0
C2384 C 0.28764 0.31622 0.41156 0.0
C2385 C 0.27024 0.33412 0.38751 0.0
N2386 N 0.23559 0.38058 0.37585 0.0
N2387 N 0.29045 0.30236 0.46865 0.0
C2388 C 0.25575 0.36447 0.3968 0.0
C2389 C 0.28471 0.32506 0.44488 0.0
N2390 N 0.25649 0.40983 0.43401 0.0
N2391 N 0.3096 0.29234 0.40256 0.0
H2392 H 0.28647 0.30703 0.49338 0.0
H2393 H 0.29499 0.27797 0.4635 0.0
H2394 H 0.31607 0.28795 0.37832 0.0
H2395 H 0.32484 0.28044 0.41903 0.0
H2396 H 0.25011 0.42634 0.41575 0.0
H2397 H 0.26138 0.42073 0.45599 0.0
H2398 H 0.22175 0.40111 0.38236 0.0
H2399 H 0.23022 0.37161 0.35305 0.0
C2400 C 0.3806 0.48253 0.51967 0.0
C2401 C 0.36274 0.47401 0.54887 0.0
C2402 C 0.40099 0.50847 0.579 0.0
C2403 C 0.42237 0.5121 0.55068 0.0
N2404 N 0.43365 0.49722 0.49426 0.0
N2405 N 0.35635 0.47792 0.60705 0.0
C2406 C 0.41221 0.49822 0.52089 0.0
C2407 C 0.37285 0.48704 0.57873 0.0
N2408 N 0.36737 0.47521 0.49053 0.0
N2409 N 0.40715 0.52608 0.60599 0.0
H2410 H 0.33496 0.46356 0.60744 0.0
H2411 H 0.36479 0.48315 0.63004 0.0
H2412 H 0.42677 0.54259 0.60664 0.0
H2413 H 0.39103 0.52681 0.62643 0.0
H2414 H 0.3773 0.48368 0.4682 0.0
H2415 H 0.34439 0.46361 0.489 0.0
H2416 H 0.42897 0.48389 0.4736 0.0
H2417 H 0.45757 0.50672 0.4935 0.0
C2418 C 0.90261 0.09091 0.48023 0.0
C2419 C 0.89375 0.12241 0.49097 0.0
C2420 C 0.95269 0.13433 0.49883 0.0
C2421 C 0.96173 0.10327 0.48593 0.0
N2422 N 0.94488 0.05918 0.45202 0.0
N2423 N 0.91146 0.17747 0.49971 0.0
C2424 C 0.93655 0.08376 0.47279 0.0
C2425 C 0.91908 0.14518 0.49705 0.0
N2426 N 0.87899 0.06729 0.47822 0.0
N2427 N 0.97513 0.15328 0.51394 0.0
H2428 H 0.88744 0.18674 0.49713 0.0
H2429 H 0.92961 0.19544 0.50064 0.0
H2430 H 1.00022 0.14788 0.516 0.0
H2431 H 0.96799 0.17372 0.52717 0.0
H2432 H 0.88506 0.04318 0.4732 0.0
H2433 H 0.85396 0.07086 0.48511 0.0
H2434 H 0.9271 0.04591 0.44004 0.0
H2435 H 0.96933 0.05509 0.44339 0.0
C2436 C 0.69504 0.1067 0.23914 0.0
C2437 C 0.68922 0.10313 0.27328 0.0
C2438 C 0.73152 0.1437 0.28331 0.0
C2439 C 0.73433 0.15022 0.24932 0.0
N2440 N 0.71939 0.13957 0.19466 0.0
N2441 N 0.7004 0.11809 0.32833 0.0
C2442 C 0.71656 0.13184 0.22708 0.0
C2443 C 0.70723 0.12143 0.29555 0.0
N2444 N 0.67989 0.08618 0.21849 0.0
N2445 N 0.75243 0.1588 0.30371 0.0
H2446 H 0.68407 0.10066 0.33836 0.0
H2447 H 0.70943 0.13359 0.34567 0.0
H2448 H 0.7706 0.1752 0.29542 0.0
H2449 H 0.75372 0.15338 0.32843 0.0
H2450 H 0.68514 0.08566 0.19352 0.0
H2451 H 0.6634 0.06803 0.22669 0.0
H2452 H 0.70475 0.12951 0.17706 0.0
H2453 H 0.7357 0.1575 0.18554 0.0
C2454 C 0.68315 0.98689 0.01025 0.0
C2455 C 0.69479 0.97091 0.03863 0.0
C2456 C 0.63736 0.97198 0.06229 0.0
C2457 C 0.62684 0.99171 0.03576 0.0
N2458 N 0.64267 0.02413 0.98811 0.0
N2459 N 0.68361 0.95362 0.09438 0.0
C2460 C 0.65054 1.00085 0.0107 0.0
C2461 C 0.67204 0.96487 0.06542 0.0
N2462 N 0.7026 0.98759 0.98222 0.0
N2463 N 0.6142 0.95889 0.08389 0.0
H2464 H 0.70878 0.94889 0.09801 0.0
H2465 H 0.66872 0.95209 0.11568 0.0
H2466 H 0.58858 0.96247 0.08197 0.0
H2467 H 0.62016 0.94175 0.10171 0.0
H2468 H 0.69395 0.99605 0.96001 0.0
H2469 H 0.72597 0.97641 0.98022 0.0
H2470 H 0.66018 0.03394 0.97139 0.0
H2471 H 0.61981 0.03631 0.98832 0.0
C2472 C 0.38222 0.45993 0.20965 0.0
C2473 C 0.40291 0.46428 0.2365 0.0
C2474 C 0.36764 0.42794 0.27035 0.0
C2475 C 0.34778 0.4225 0.24319 0.0
N2476 N 0.33764 0.42898 0.18635 0.0
N2477 N 0.41892 0.44898 0.29083 0.0
C2478 C 0.35558 0.43723 0.21256 0.0
C2479 C 0.39688 0.44697 0.26629 0.0
N2480 N 0.38772 0.47798 0.18177 0.0
N2481 N 0.35741 0.41628 0.30043 0.0
H2482 H 0.43982 0.46396 0.28967 0.0
H2483 H 0.41796 0.43402 0.31151 0.0
H2484 H 0.33578 0.40266 0.30445 0.0
H2485 H 0.36864 0.42229 0.32194 0.0
H2486 H 0.37157 0.47859 0.16252 0.0
H2487 H 0.408 0.49365 0.17846 0.0
H2488 H 0.34362 0.43644 0.16254 0.0
H2489 H 0.31774 0.41272 0.18833 0.0
C2490 C 0.23803 0.56291 0.06694 0.0
C2491 C 0.23232 0.55929 0.03339 0.0
C2492 C 0.18136 0.52999 0.04786 0.0
C2493 C 0.18116 0.54537 0.07853 0.0
N2494 N 0.211 0.57228 0.11974 0.0
N2495 N 0.20458 0.53048 0.99225 0.0
C2496 C 0.21048 0.55971 0.0893 0.0
C2497 C 0.20636 0.53884 0.0241 0.0
N2498 N 0.26909 0.57033 0.0769 0.0
N2499 N 0.15661 0.50869 0.04142 0.0
H2500 H 0.22355 0.5368 0.97521 0.0
H2501 H 0.18468 0.518 0.98284 0.0
H2502 H 0.13837 0.50225 0.05912 0.0
H2503 H 0.15564 0.49579 0.01991 0.0
H2504 H 0.27478 0.57202 0.10135 0.0
H2505 H 0.28971 0.57079 0.06062 0.0
H2506 H 0.23063 0.58625 0.12765 0.0
H2507 H 0.19087 0.56967 0.1364 0.0
C2508 C 0.68399 0.90306 0.29095 0.0
C2509 C 0.6858 0.92248 0.31888 0.0
C2510 C 0.72751 0.88586 0.34162 0.0
C2511 C 0.72748 0.86776 0.31252 0.0
N2512 N 0.71128 0.86326 0.2566 0.0
N2513 N 0.71237 0.93607 0.36854 0.0
C2514 C 0.70723 0.87744 0.28636 0.0
C2515 C 0.70841 0.91493 0.34366 0.0
N2516 N 0.65939 0.90848 0.26928 0.0
N2517 N 0.74476 0.87472 0.36768 0.0
H2518 H 0.69854 0.95749 0.37099 0.0
H2519 H 0.73112 0.93378 0.38531 0.0
H2520 H 0.75955 0.85384 0.36707 0.0
H2521 H 0.74249 0.88477 0.39075 0.0
H2522 H 0.65444 0.89273 0.25049 0.0
H2523 H 0.64193 0.92723 0.27174 0.0
H2524 H 0.69989 0.87188 0.23577 0.0
H2525 H 0.72861 0.84491 0.25173 0.0
C2526 C 0.87372 0.15474 0.74191 0.0
C2527 C 0.85654 0.1253 0.73774 0.0
C2528 C 0.80458 0.15139 0.75772 0.0
C2529 C 0.82305 0.17916 0.76619 0.0
N2530 N 0.87756 0.20371 0.7723 0.0
N2531 N 0.80629 0.09367 0.74704 0.0
C2532 C 0.85833 0.17967 0.76038 0.0
C2533 C 0.822 0.12305 0.74676 0.0
N2534 N 0.90456 0.15934 0.7272 0.0
N2535 N 0.77052 0.15176 0.76073 0.0
H2536 H 0.81822 0.07212 0.7404 0.0
H2537 H 0.78218 0.09012 0.75672 0.0
H2538 H 0.75703 0.17104 0.77092 0.0
H2539 H 0.75565 0.13373 0.75135 0.0
H2540 H 0.91784 0.1809 0.72835 0.0
H2541 H 0.9154 0.14284 0.71091 0.0
H2542 H 0.90353 0.20257 0.77214 0.0
H2543 H 0.86817 0.22351 0.78488 0.0
loop_
_geom_bond_atom_site_label_1
_geom_bond_atom_site_label_2
_geom_bond_distance
_geom_bond_site_symmetry_2
_ccdc_geom_bond_type
Zn0 O3 2.031 . S
Zn0 O5 2.049 . S
Zn0 O10 2.067 . S
Zn1 O2 1.962 . S
Zn1 O4 1.986 1_455 S
Zn1 O6 1.996 . S
Zn1 O9 1.943 . S
O2 Zn1 1.962 . S
O2 C7 1.254 . S
O3 Zn0 2.031 . S
O3 C7 1.269 . S
O4 Zn1 1.986 1_655 S
O4 C11 1.262 . S
O5 Zn0 2.049 . S
O5 C13 1.260 . S
O6 Zn1 1.996 . S
O6 C13 1.257 . S
C7 O2 1.254 . S
C7 O3 1.269 . S
C8 O9 1.249 . S
C8 O10 1.270 . S
O9 Zn1 1.943 . S
O9 C8 1.249 . S
O10 Zn0 2.067 . S
O10 C8 1.270 . S
C11 O4 1.262 . S
C11 O12 1.232 . S
O12 C11 1.232 . S
C13 O5 1.260 . S
C13 O6 1.257 . S
Zn14 O17 2.031 . S
Zn14 O19 2.049 . S
Zn14 O24 2.067 1_455 S
Zn15 O16 1.962 . S
Zn15 O18 1.986 . S
Zn15 O20 1.996 . S
Zn15 O23 1.943 . S
O16 Zn15 1.962 . S
O16 C21 1.254 . S
O17 Zn14 2.031 . S
O17 C21 1.269 . S
O18 Zn15 1.986 . S
O18 C25 1.262 . S
O19 Zn14 2.049 . S
O19 C27 1.260 . S
O20 Zn15 1.996 . S
O20 C27 1.257 . S
C21 O16 1.254 . S
C21 O17 1.269 . S
C22 O23 1.249 . S
C22 O24 1.270 1_455 S
O23 Zn15 1.943 . S
O23 C22 1.249 . S
O24 Zn14 2.067 1_655 S
O24 C22 1.270 1_655 S
C25 O18 1.262 . S
C25 O26 1.232 . S
O26 C25 1.232 . S
C27 O19 1.260 . S
C27 O20 1.257 . S
Zn28 O31 2.031 . S
Zn28 O33 2.049 . S
Zn28 O38 2.067 . S
Zn29 O30 1.962 . S
Zn29 O32 1.986 . S
Zn29 O34 1.996 . S
Zn29 O37 1.943 . S
O30 Zn29 1.962 . S
O30 C35 1.254 . S
O31 Zn28 2.031 . S
O31 C35 1.269 . S
O32 Zn29 1.986 . S
O32 C39 1.262 . S
O33 Zn28 2.049 . S
O33 C41 1.260 . S
O34 Zn29 1.996 . S
O34 C41 1.257 . S
C35 O30 1.254 . S
C35 O31 1.269 . S
C36 O37 1.249 . S
C36 O38 1.270 . S
O37 Zn29 1.943 . S
O37 C36 1.249 . S
O38 Zn28 2.067 . S
O38 C36 1.270 . S
C39 O32 1.262 . S
C39 O40 1.232 . S
O40 C39 1.232 . S
C41 O33 1.260 . S
C41 O34 1.257 . S
Zn42 O45 2.031 . S
Zn42 O47 2.049 . S
Zn42 O52 2.067 . S
Zn43 O44 1.962 . S
Zn43 O46 1.986 . S
Zn43 O48 1.996 . S
Zn43 O51 1.943 . S
O44 Zn43 1.962 . S
O44 C49 1.254 . S
O45 Zn42 2.031 . S
O45 C49 1.269 . S
O46 Zn43 1.986 . S
O46 C53 1.262 . S
O47 Zn42 2.049 . S
O47 C55 1.260 . S
O48 Zn43 1.996 . S
O48 C55 1.257 . S
C49 O44 1.254 . S
C49 O45 1.269 . S
C50 O51 1.249 . S
C50 O52 1.270 . S
O51 Zn43 1.943 . S
O51 C50 1.249 . S
O52 Zn42 2.067 . S
O52 C50 1.270 . S
C53 O46 1.262 . S
C53 O54 1.232 . S
O54 C53 1.232 . S
C55 O47 1.260 . S
C55 O48 1.257 . S
Zn56 O59 2.031 . S
Zn56 O61 2.049 . S
Zn56 O66 2.067 . S
Zn57 O58 1.962 . S
Zn57 O60 1.986 . S
Zn57 O62 2.002 . S
Zn57 O65 1.943 1_565 S
O58 Zn57 1.962 . S
O58 C63 1.254 1_565 S
O59 Zn56 2.031 . S
O59 C63 1.269 . S
O60 Zn57 1.986 . S
O60 C67 1.262 . S
O61 Zn56 2.049 . S
O61 C69 1.260 . S
O62 Zn57 2.002 . S
O62 C69 1.244 1_565 S
C63 O58 1.254 1_545 S
C63 O59 1.269 . S
C64 O65 1.249 . S
C64 O66 1.270 . S
O65 Zn57 1.943 1_545 S
O65 C64 1.249 . S
O66 Zn56 2.067 . S
O66 C64 1.270 . S
C67 O60 1.262 . S
C67 O68 1.232 . S
O68 C67 1.232 . S
C69 O61 1.260 . S
C69 O62 1.244 1_545 S
Zn70 O73 2.031 . S
Zn70 O75 2.049 . S
Zn70 O80 2.067 . S
Zn71 O72 1.962 . S
Zn71 O74 1.986 . S
Zn71 O76 1.996 . S
Zn71 O79 1.943 . S
O72 Zn71 1.962 . S
O72 C77 1.254 . S
O73 Zn70 2.031 . S
O73 C77 1.269 . S
O74 Zn71 1.986 . S
O74 C81 1.262 . S
O75 Zn70 2.049 . S
O75 C83 1.260 . S
O76 Zn71 1.996 . S
O76 C83 1.257 . S
C77 O72 1.254 . S
C77 O73 1.269 . S
C78 O79 1.249 . S
C78 O80 1.270 . S
O79 Zn71 1.943 . S
O79 C78 1.249 . S
O80 Zn70 2.067 . S
O80 C78 1.270 . S
C81 O74 1.262 . S
C81 O82 1.232 . S
O82 C81 1.232 . S
C83 O75 1.260 . S
C83 O76 1.257 . S
Zn84 O87 2.031 . S
Zn84 O89 2.049 . S
Zn84 O94 2.067 1_545 S
Zn85 O86 1.962 . S
Zn85 O88 1.986 . S
Zn85 O90 1.996 . S
Zn85 O93 1.943 . S
O86 Zn85 1.962 . S
O86 C91 1.254 . S
O87 Zn84 2.031 . S
O87 C91 1.269 . S
O88 Zn85 1.986 . S
O88 C95 1.262 . S
O89 Zn84 2.049 . S
O89 C97 1.260 . S
O90 Zn85 1.996 . S
O90 C97 1.257 . S
C91 O86 1.254 . S
C91 O87 1.269 . S
C92 O93 1.249 . S
C92 O94 1.270 1_545 S
O93 Zn85 1.943 . S
O93 C92 1.249 . S
O94 Zn84 2.067 1_565 S
O94 C92 1.270 1_565 S
C95 O88 1.262 . S
C95 O96 1.232 . S
O96 C95 1.232 . S
C97 O89 1.260 . S
C97 O90 1.257 . S
Zn98 O101 2.031 . S
Zn98 O103 2.049 . S
Zn98 O108 2.067 . S
Zn99 O100 1.956 1_554 S
Zn99 O102 1.986 . S
Zn99 O104 1.996 . S
Zn99 O107 1.943 . S
O100 Zn99 1.956 1_556 S
O100 C105 1.257 . S
O101 Zn98 2.031 . S
O101 C105 1.269 1_554 S
O102 Zn99 1.986 . S
O102 C109 1.262 . S
O103 Zn98 2.049 . S
O103 C111 1.260 . S
O104 Zn99 1.996 . S
O104 C111 1.257 . S
C105 O100 1.257 . S
C105 O101 1.269 1_556 S
C106 O107 1.249 . S
C106 O108 1.270 . S
O107 Zn99 1.943 . S
O107 C106 1.249 . S
O108 Zn98 2.067 . S
O108 C106 1.270 . S
C109 O102 1.262 . S
C109 O110 1.232 . S
O110 C109 1.232 . S
C111 O103 1.260 . S
C111 O104 1.257 . S
Zn112 O115 2.031 . S
Zn112 O117 2.049 . S
Zn112 O122 2.067 . S
Zn113 O114 1.962 . S
Zn113 O116 1.986 . S
Zn113 O118 1.996 . S
Zn113 O121 1.943 . S
O114 Zn113 1.962 . S
O114 C119 1.254 . S
O115 Zn112 2.031 . S
O115 C119 1.269 . S
O116 Zn113 1.986 . S
O116 C123 1.262 . S
O117 Zn112 2.049 . S
O117 C125 1.260 . S
O118 Zn113 1.996 . S
O118 C125 1.257 . S
C119 O114 1.254 . S
C119 O115 1.269 . S
C120 O121 1.249 . S
C120 O122 1.270 . S
O121 Zn113 1.943 . S
O121 C120 1.249 . S
O122 Zn112 2.067 . S
O122 C120 1.270 . S
C123 O116 1.262 . S
C123 O124 1.232 . S
O124 C123 1.232 . S
C125 O117 1.260 . S
C125 O118 1.257 . S
Zn126 O129 2.031 . S
Zn126 O131 2.049 . S
Zn126 O136 2.067 . S
Zn127 O128 1.962 . S
Zn127 O130 1.986 . S
Zn127 O132 1.996 . S
Zn127 O135 1.943 . S
O128 Zn127 1.962 . S
O128 C133 1.254 . S
O129 Zn126 2.031 . S
O129 C133 1.269 . S
O130 Zn127 1.986 . S
O130 C137 1.262 . S
O131 Zn126 2.049 . S
O131 C139 1.260 . S
O132 Zn127 1.996 . S
O132 C139 1.257 . S
C133 O128 1.254 . S
C133 O129 1.269 . S
C134 O135 1.249 . S
C134 O136 1.270 . S
O135 Zn127 1.943 . S
O135 C134 1.249 . S
O136 Zn126 2.067 . S
O136 C134 1.270 . S
C137 O130 1.262 . S
C137 O138 1.232 . S
O138 C137 1.232 . S
C139 O131 1.260 . S
C139 O132 1.257 . S
Zn140 O143 2.031 . S
Zn140 O145 2.049 . S
Zn140 O150 2.067 . S
Zn141 O142 1.962 . S
Zn141 O144 1.986 . S
Zn141 O146 1.996 . S
Zn141 O149 1.943 . S
O142 Zn141 1.962 . S
O142 C147 1.254 . S
O143 Zn140 2.031 . S
O143 C147 1.269 . S
O144 Zn141 1.986 . S
O144 C151 1.262 . S
O145 Zn140 2.049 . S
O145 C153 1.260 . S
O146 Zn141 1.996 . S
O146 C153 1.257 . S
C147 O142 1.254 . S
C147 O143 1.269 . S
C148 O149 1.249 . S
C148 O150 1.270 . S
O149 Zn141 1.943 . S
O149 C148 1.249 . S
O150 Zn140 2.067 . S
O150 C148 1.270 . S
C151 O144 1.262 . S
C151 O152 1.232 . S
O152 C151 1.232 . S
C153 O145 1.260 . S
C153 O146 1.257 . S
Zn154 O157 2.031 . S
Zn154 O159 2.049 . S
Zn154 O164 2.067 . S
Zn155 O156 1.962 . S
Zn155 O158 1.986 . S
Zn155 O160 1.996 . S
Zn155 O163 1.943 . S
O156 Zn155 1.962 . S
O156 C161 1.254 . S
O157 Zn154 2.031 . S
O157 C161 1.269 . S
O158 Zn155 1.986 . S
O158 C165 1.262 . S
O159 Zn154 2.049 . S
O159 C167 1.260 . S
O160 Zn155 1.996 . S
O160 C167 1.257 . S
C161 O156 1.254 . S
C161 O157 1.269 . S
C162 O163 1.249 . S
C162 O164 1.270 . S
O163 Zn155 1.943 . S
O163 C162 1.249 . S
O164 Zn154 2.067 . S
O164 C162 1.270 . S
C165 O158 1.262 . S
C165 O166 1.232 . S
O166 C165 1.232 . S
C167 O159 1.260 . S
C167 O160 1.257 . S
Zn168 O171 2.031 . S
Zn168 O173 2.049 . S
Zn168 O178 2.067 . S
Zn169 O170 1.962 . S
Zn169 O172 1.986 . S
Zn169 O174 1.996 . S
Zn169 O177 1.943 . S
O170 Zn169 1.962 . S
O170 C175 1.254 . S
O171 Zn168 2.031 . S
O171 C175 1.269 1_655 S
O172 Zn169 1.986 . S
O172 C179 1.262 . S
O173 Zn168 2.049 . S
O173 C181 1.260 1_655 S
O174 Zn169 1.996 . S
O174 C181 1.257 . S
C175 O170 1.254 . S
C175 O171 1.269 1_455 S
C176 O177 1.249 1_655 S
C176 O178 1.270 . S
O177 Zn169 1.943 . S
O177 C176 1.249 1_455 S
O178 Zn168 2.067 . S
O178 C176 1.270 . S
C179 O172 1.262 . S
C179 O180 1.232 . S
O180 C179 1.232 . S
C181 O173 1.260 1_455 S
C181 O174 1.257 . S
Zn182 O185 2.031 . S
Zn182 O187 2.049 . S
Zn182 O192 2.067 . S
Zn183 O184 1.962 . S
Zn183 O186 1.986 . S
Zn183 O188 1.996 . S
Zn183 O191 1.943 1_655 S
O184 Zn183 1.962 . S
O184 C189 1.254 1_655 S
O185 Zn182 2.031 . S
O185 C189 1.269 . S
O186 Zn183 1.986 . S
O186 C193 1.262 . S
O187 Zn182 2.049 . S
O187 C195 1.260 . S
O188 Zn183 1.996 . S
O188 C195 1.257 1_655 S
C189 O184 1.254 1_455 S
C189 O185 1.269 . S
C190 O191 1.249 . S
C190 O192 1.270 . S
O191 Zn183 1.943 1_455 S
O191 C190 1.249 . S
O192 Zn182 2.067 . S
O192 C190 1.270 . S
C193 O186 1.262 . S
C193 O194 1.232 . S
O194 C193 1.232 . S
C195 O187 1.260 . S
C195 O188 1.257 1_455 S
Zn196 O199 2.031 . S
Zn196 O201 2.049 . S
Zn196 O206 2.067 . S
Zn197 O198 1.962 . S
Zn197 O200 1.986 . S
Zn197 O202 1.996 . S
Zn197 O205 1.943 . S
O198 Zn197 1.962 . S
O198 C203 1.254 . S
O199 Zn196 2.031 . S
O199 C203 1.269 . S
O200 Zn197 1.986 . S
O200 C207 1.262 . S
O201 Zn196 2.049 . S
O201 C209 1.260 . S
O202 Zn197 1.996 . S
O202 C209 1.257 . S
C203 O198 1.254 . S
C203 O199 1.269 . S
C204 O205 1.249 . S
C204 O206 1.270 . S
O205 Zn197 1.943 . S
O205 C204 1.249 . S
O206 Zn196 2.067 . S
O206 C204 1.270 . S
C207 O200 1.262 . S
C207 O208 1.232 . S
O208 C207 1.232 . S
C209 O201 1.260 . S
C209 O202 1.257 . S
Zn210 O213 2.031 . S
Zn210 O215 2.049 . S
Zn210 O220 2.067 . S
Zn211 O212 1.962 . S
Zn211 O214 1.986 . S
Zn211 O216 1.996 . S
Zn211 O219 1.943 . S
O212 Zn211 1.962 . S
O212 C217 1.254 . S
O213 Zn210 2.031 . S
O213 C217 1.269 . S
O214 Zn211 1.986 . S
O214 C221 1.262 . S
O215 Zn210 2.049 . S
O215 C223 1.260 . S
O216 Zn211 1.996 . S
O216 C223 1.257 . S
C217 O212 1.254 . S
C217 O213 1.269 . S
C218 O219 1.249 . S
C218 O220 1.270 . S
O219 Zn211 1.943 . S
O219 C218 1.249 . S
O220 Zn210 2.067 . S
O220 C218 1.270 . S
C221 O214 1.262 . S
C221 O222 1.232 . S
O222 C221 1.232 . S
C223 O215 1.260 . S
C223 O216 1.257 . S
Zn224 O227 2.031 . S
Zn224 O229 2.049 . S
Zn224 O234 2.067 1_545 S
Zn225 O226 1.962 . S
Zn225 O228 1.986 . S
Zn225 O230 1.996 . S
Zn225 O233 1.943 . S
O226 Zn225 1.962 . S
O226 C231 1.254 . S
O227 Zn224 2.031 . S
O227 C231 1.269 . S
O228 Zn225 1.986 . S
O228 C235 1.262 . S
O229 Zn224 2.049 . S
O229 C237 1.260 . S
O230 Zn225 1.996 . S
O230 C237 1.257 . S
C231 O226 1.254 . S
C231 O227 1.269 . S
C232 O233 1.249 . S
C232 O234 1.270 1_545 S
O233 Zn225 1.943 . S
O233 C232 1.249 . S
O234 Zn224 2.067 1_565 S
O234 C232 1.270 1_565 S
C235 O228 1.262 . S
C235 O236 1.232 . S
O236 C235 1.232 . S
C237 O229 1.260 . S
C237 O230 1.257 . S
Zn238 O241 2.031 . S
Zn238 O243 2.049 . S
Zn238 O248 2.067 . S
Zn239 O240 1.962 . S
Zn239 O242 1.986 . S
Zn239 O244 1.996 . S
Zn239 O247 1.943 . S
O240 Zn239 1.962 . S
O240 C245 1.254 . S
O241 Zn238 2.031 . S
O241 C245 1.269 . S
O242 Zn239 1.986 . S
O242 C249 1.262 . S
O243 Zn238 2.049 . S
O243 C251 1.260 . S
O244 Zn239 1.996 . S
O244 C251 1.257 . S
C245 O240 1.254 . S
C245 O241 1.269 . S
C246 O247 1.249 . S
C246 O248 1.270 . S
O247 Zn239 1.943 . S
O247 C246 1.249 . S
O248 Zn238 2.067 . S
O248 C246 1.270 . S
C249 O242 1.262 . S
C249 O250 1.232 . S
O250 C249 1.232 . S
C251 O243 1.260 . S
C251 O244 1.257 . S
Zn252 O255 2.031 . S
Zn252 O257 2.049 . S
Zn252 O262 2.067 . S
Zn253 O254 1.962 . S
Zn253 O256 1.986 . S
Zn253 O258 1.998 . S
Zn253 O261 1.943 1_565 S
O254 Zn253 1.962 . S
O254 C259 1.254 1_565 S
O255 Zn252 2.031 . S
O255 C259 1.269 . S
O256 Zn253 1.986 . S
O256 C263 1.262 . S
O257 Zn252 2.049 . S
O257 C265 1.260 . S
O258 Zn253 1.998 . S
O258 C265 1.252 1_565 S
C259 O254 1.254 1_545 S
C259 O255 1.269 . S
C260 O261 1.249 . S
C260 O262 1.270 . S
O261 Zn253 1.943 1_545 S
O261 C260 1.249 . S
O262 Zn252 2.067 . S
O262 C260 1.270 . S
C263 O256 1.262 . S
C263 O264 1.232 . S
O264 C263 1.232 . S
C265 O257 1.260 . S
C265 O258 1.252 1_545 S
Zn266 O269 2.031 1_554 S
Zn266 O271 2.049 . S
Zn266 O276 2.067 . S
Zn267 O268 1.962 1_554 S
Zn267 O270 1.986 . S
Zn267 O272 1.996 . S
Zn267 O275 1.943 . S
O268 Zn267 1.962 1_556 S
O268 C273 1.254 . S
O269 Zn266 2.031 1_556 S
O269 C273 1.269 . S
O270 Zn267 1.986 . S
O270 C277 1.262 . S
O271 Zn266 2.049 . S
O271 C279 1.260 . S
O272 Zn267 1.996 . S
O272 C279 1.257 . S
C273 O268 1.254 . S
C273 O269 1.269 . S
C274 O275 1.249 . S
C274 O276 1.270 . S
O275 Zn267 1.943 . S
O275 C274 1.249 . S
O276 Zn266 2.067 . S
O276 C274 1.270 . S
C277 O270 1.262 . S
C277 O278 1.232 . S
O278 C277 1.232 . S
C279 O271 1.260 . S
C279 O272 1.257 . S
Zn280 O283 2.031 1_554 S
Zn280 O285 2.049 . S
Zn280 O290 2.067 . S
Zn281 O282 1.962 . S
Zn281 O284 1.986 1_556 S
Zn281 O286 1.996 1_556 S
Zn281 O289 1.943 1_556 S
O282 Zn281 1.962 . S
O282 C287 1.254 . S
O283 Zn280 2.031 1_556 S
O283 C287 1.269 . S
O284 Zn281 1.986 1_554 S
O284 C291 1.262 1_554 S
O285 Zn280 2.049 . S
O285 C293 1.260 . S
O286 Zn281 1.996 1_554 S
O286 C293 1.257 . S
C287 O282 1.254 . S
C287 O283 1.269 . S
C288 O289 1.251 . S
C288 O290 1.270 . S
O289 Zn281 1.943 1_554 S
O289 C288 1.251 . S
O290 Zn280 2.067 . S
O290 C288 1.270 . S
C291 O284 1.262 1_556 S
C291 O292 1.232 . S
O292 C291 1.232 . S
C293 O285 1.260 . S
C293 O286 1.257 . S
Zn294 O297 2.031 . S
Zn294 O299 2.049 . S
Zn294 O304 2.067 . S
Zn295 O296 1.962 . S
Zn295 O298 1.986 . S
Zn295 O300 1.996 . S
Zn295 O303 1.943 . S
O296 Zn295 1.962 . S
O296 C301 1.254 . S
O297 Zn294 2.031 . S
O297 C301 1.269 . S
O298 Zn295 1.986 . S
O298 C305 1.262 . S
O299 Zn294 2.049 . S
O299 C307 1.260 . S
O300 Zn295 1.996 . S
O300 C307 1.257 . S
C301 O296 1.254 . S
C301 O297 1.269 . S
C302 O303 1.249 . S
C302 O304 1.270 . S
O303 Zn295 1.943 . S
O303 C302 1.249 . S
O304 Zn294 2.067 . S
O304 C302 1.270 . S
C305 O298 1.262 . S
C305 O306 1.232 . S
O306 C305 1.232 . S
C307 O299 1.260 . S
C307 O300 1.257 . S
Zn308 O311 2.031 . S
Zn308 O313 2.049 . S
Zn308 O318 2.067 . S
Zn309 O310 1.962 . S
Zn309 O312 1.986 . S
Zn309 O314 1.996 . S
Zn309 O317 1.943 . S
O310 Zn309 1.962 . S
O310 C315 1.254 . S
O311 Zn308 2.031 . S
O311 C315 1.269 . S
O312 Zn309 1.986 . S
O312 C319 1.262 . S
O313 Zn308 2.049 . S
O313 C321 1.260 . S
O314 Zn309 1.996 . S
O314 C321 1.257 . S
C315 O310 1.254 . S
C315 O311 1.269 . S
C316 O317 1.249 . S
C316 O318 1.270 . S
O317 Zn309 1.943 . S
O317 C316 1.249 . S
O318 Zn308 2.067 . S
O318 C316 1.270 . S
C319 O312 1.262 . S
C319 O320 1.232 . S
O320 C319 1.232 . S
C321 O313 1.260 . S
C321 O314 1.257 . S
Zn322 O325 2.031 . S
Zn322 O327 2.049 . S
Zn322 O332 2.067 . S
Zn323 O324 1.962 . S
Zn323 O326 1.986 . S
Zn323 O328 1.996 . S
Zn323 O331 1.943 . S
O324 Zn323 1.962 . S
O324 C329 1.254 . S
O325 Zn322 2.031 . S
O325 C329 1.269 . S
O326 Zn323 1.986 . S
O326 C333 1.262 . S
O327 Zn322 2.049 . S
O327 C335 1.260 . S
O328 Zn323 1.996 . S
O328 C335 1.257 . S
C329 O324 1.254 . S
C329 O325 1.269 . S
C330 O331 1.249 . S
C330 O332 1.270 . S
O331 Zn323 1.943 . S
O331 C330 1.249 . S
O332 Zn322 2.067 . S
O332 C330 1.270 . S
C333 O326 1.262 . S
C333 O334 1.232 . S
O334 C333 1.232 . S
C335 O327 1.260 . S
C335 O328 1.257 . S
Co336 N341 2.061 . S
Co336 O353 2.022 1_545 S
Co336 O356 2.060 1_456 S
Co336 O360 2.114 1_556 S
Co336 O361 2.019 . S
C337 O357 1.259 . S
C337 O360 1.258 . S
Co338 N347 2.057 1_545 S
Co338 O354 2.117 1_545 S
Co338 O355 2.020 1_455 S
Co338 O357 2.021 . S
Co338 O362 2.062 . S
C339 N341 1.316 1_655 S
C339 N342 1.347 . S
C339 H344 0.931 1_655 S
C340 N341 1.375 1_655 S
C340 C343 1.350 . S
C340 H345 0.930 . S
N341 Co336 2.061 . S
N341 C339 1.316 1_455 S
N341 C340 1.375 1_455 S
N342 C339 1.347 . S
N342 C343 1.373 . S
C343 C340 1.350 . S
C343 N342 1.373 . S
C343 H364 0.931 . S
H344 C339 0.931 1_455 S
H345 C340 0.930 . S
C346 O353 1.259 1_554 S
C346 O354 1.258 . S
N347 Co338 2.057 1_565 S
N347 C348 1.316 1_565 S
N347 C349 1.375 . S
C348 N347 1.316 1_545 S
C348 N350 1.347 1_545 S
C348 H359 0.931 . S
C349 N347 1.375 . S
C349 C351 1.350 . S
C349 H358 0.930 . S
N350 C348 1.347 1_565 S
N350 C351 1.373 . S
C351 C349 1.350 . S
C351 N350 1.373 . S
C351 H365 0.931 . S
C352 O355 1.256 . S
C352 O356 1.255 . S
O353 Co336 2.022 1_565 S
O353 C346 1.259 1_556 S
O354 Co338 2.117 1_565 S
O354 C346 1.258 . S
O355 Co338 2.020 1_655 S
O355 C352 1.256 . S
O356 Co336 2.060 1_654 S
O356 C352 1.255 . S
O357 C337 1.259 . S
O357 Co338 2.021 . S
H358 C349 0.930 . S
H359 C348 0.931 . S
O360 Co336 2.114 1_554 S
O360 C337 1.258 . S
O361 Co336 2.019 . S
O361 C363 1.254 1_556 S
O362 Co338 2.062 . S
O362 C363 1.255 . S
C363 O361 1.254 1_554 S
C363 O362 1.255 . S
H364 C343 0.931 . S
H365 C351 0.931 . S
Co366 N371 2.057 . S
Co366 O383 2.021 . S
Co366 O386 2.062 . S
Co366 O390 2.117 . S
Co366 O391 2.020 . S
C367 O387 1.259 . S
C367 O390 1.258 . S
Co368 N377 2.057 . S
Co368 O384 2.117 . S
Co368 O385 2.020 . S
Co368 O387 2.021 . S
Co368 O392 2.062 . S
C369 N371 1.316 . S
C369 N372 1.347 . S
C369 H374 0.931 . S
C370 N371 1.375 . S
C370 C373 1.350 . S
C370 H375 0.930 . S
N371 Co366 2.057 . S
N371 C369 1.316 . S
N371 C370 1.375 . S
N372 C369 1.347 . S
N372 C373 1.373 . S
C373 C370 1.350 . S
C373 N372 1.373 . S
C373 H394 0.931 . S
H374 C369 0.931 . S
H375 C370 0.930 . S
C376 O383 1.259 . S
C376 O384 1.258 . S
N377 Co368 2.057 . S
N377 C378 1.316 . S
N377 C379 1.375 . S
C378 N377 1.316 . S
C378 N380 1.347 . S
C378 H389 0.931 . S
C379 N377 1.375 . S
C379 C381 1.350 . S
C379 H388 0.930 . S
N380 C378 1.347 . S
N380 C381 1.373 . S
C381 C379 1.350 . S
C381 N380 1.373 . S
C381 H395 0.931 . S
C382 O385 1.256 . S
C382 O386 1.255 . S
O383 Co366 2.021 . S
O383 C376 1.259 . S
O384 Co368 2.117 . S
O384 C376 1.258 . S
O385 Co368 2.020 . S
O385 C382 1.256 . S
O386 Co366 2.062 . S
O386 C382 1.255 . S
O387 C367 1.259 . S
O387 Co368 2.021 . S
H388 C379 0.930 . S
H389 C378 0.931 . S
O390 Co366 2.117 . S
O390 C367 1.258 . S
O391 Co366 2.020 . S
O391 C393 1.256 . S
O392 Co368 2.062 . S
O392 C393 1.255 . S
C393 O391 1.256 . S
C393 O392 1.255 . S
H394 C373 0.931 . S
H395 C381 0.931 . S
Co396 N401 2.057 . S
Co396 O413 2.021 1_545 S
Co396 O416 2.062 . S
Co396 O420 2.117 . S
Co396 O421 2.020 . S
C397 O417 1.259 . S
C397 O420 1.258 . S
Co398 N407 2.057 . S
Co398 O414 2.117 . S
Co398 O415 2.020 . S
Co398 O417 2.021 . S
Co398 O422 2.062 . S
C399 N401 1.316 1_565 S
C399 N402 1.347 . S
C399 H404 0.931 . S
C400 N401 1.375 . S
C400 C403 1.350 . S
C400 H405 0.930 . S
N401 Co396 2.057 . S
N401 C399 1.316 1_545 S
N401 C400 1.375 . S
N402 C399 1.347 . S
N402 C403 1.373 1_565 S
C403 C400 1.350 . S
C403 N402 1.373 1_545 S
C403 H424 0.931 . S
H404 C399 0.931 . S
H405 C400 0.930 . S
C406 O413 1.259 . S
C406 O414 1.258 1_565 S
N407 Co398 2.057 . S
N407 C408 1.316 . S
N407 C409 1.375 . S
C408 N407 1.316 . S
C408 N410 1.347 . S
C408 H419 0.931 . S
C409 N407 1.375 . S
C409 C411 1.350 . S
C409 H418 0.930 . S
N410 C408 1.347 . S
N410 C411 1.373 . S
C411 C409 1.350 . S
C411 N410 1.373 . S
C411 H425 0.931 . S
C412 O415 1.256 . S
C412 O416 1.255 . S
O413 Co396 2.021 1_565 S
O413 C406 1.259 . S
O414 Co398 2.117 . S
O414 C406 1.258 1_545 S
O415 Co398 2.020 . S
O415 C412 1.256 . S
O416 Co396 2.062 . S
O416 C412 1.255 . S
O417 C397 1.259 . S
O417 Co398 2.021 . S
H418 C409 0.930 . S
H419 C408 0.931 . S
O420 Co396 2.117 . S
O420 C397 1.258 . S
O421 Co396 2.020 . S
O421 C423 1.256 . S
O422 Co398 2.062 . S
O422 C423 1.255 . S
C423 O421 1.256 . S
C423 O422 1.255 . S
H424 C403 0.931 . S
H425 C411 0.931 . S
Co426 N431 2.057 . S
Co426 O443 2.021 . S
Co426 O446 2.062 . S
Co426 O450 2.117 . S
Co426 O451 2.020 . S
C427 O447 1.259 . S
C427 O450 1.258 . S
Co428 N437 2.057 . S
Co428 O444 2.117 . S
Co428 O445 2.020 . S
Co428 O447 2.021 . S
Co428 O452 2.062 . S
C429 N431 1.316 . S
C429 N432 1.347 . S
C429 H434 0.931 . S
C430 N431 1.375 . S
C430 C433 1.350 . S
C430 H435 0.930 . S
N431 Co426 2.057 . S
N431 C429 1.316 . S
N431 C430 1.375 . S
N432 C429 1.347 . S
N432 C433 1.373 . S
C433 C430 1.350 . S
C433 N432 1.373 . S
C433 H454 0.931 . S
H434 C429 0.931 . S
H435 C430 0.930 . S
C436 O443 1.259 . S
C436 O444 1.258 . S
N437 Co428 2.057 . S
N437 C438 1.316 . S
N437 C439 1.375 . S
C438 N437 1.316 . S
C438 N440 1.347 . S
C438 H449 0.931 . S
C439 N437 1.375 . S
C439 C441 1.350 . S
C439 H448 0.930 . S
N440 C438 1.347 . S
N440 C441 1.373 . S
C441 C439 1.350 . S
C441 N440 1.373 . S
C441 H455 0.931 . S
C442 O445 1.256 . S
C442 O446 1.255 . S
O443 Co426 2.021 . S
O443 C436 1.259 . S
O444 Co428 2.117 . S
O444 C436 1.258 . S
O445 Co428 2.020 . S
O445 C442 1.256 . S
O446 Co426 2.062 . S
O446 C442 1.255 . S
O447 C427 1.259 . S
O447 Co428 2.021 . S
H448 C439 0.930 . S
H449 C438 0.931 . S
O450 Co426 2.117 . S
O450 C427 1.258 . S
O451 Co426 2.020 . S
O451 C453 1.256 . S
O452 Co428 2.062 . S
O452 C453 1.255 . S
C453 O451 1.256 . S
C453 O452 1.255 . S
H454 C433 0.931 . S
H455 C441 0.931 . S
Co456 N461 2.057 1_545 S
Co456 O473 2.021 . S
Co456 O476 2.062 1_545 S
Co456 O480 2.124 . S
Co456 O481 2.020 1_455 S
C457 O477 1.259 1_655 S
C457 O480 1.258 1_655 S
Co458 N467 2.057 . S
Co458 O474 2.117 . S
Co458 O475 2.020 . S
Co458 O477 2.021 . S
Co458 O482 2.062 1_455 S
C459 N461 1.316 . S
C459 N462 1.344 1_455 S
C459 H464 0.931 . S
C460 N461 1.375 1_655 S
C460 C463 1.350 . S
C460 H465 0.930 . S
N461 Co456 2.057 1_565 S
N461 C459 1.316 . S
N461 C460 1.375 1_455 S
N462 C459 1.344 1_655 S
N462 C463 1.377 . S
C463 C460 1.350 . S
C463 N462 1.377 . S
C463 H484 0.931 . S
H464 C459 0.931 . S
H465 C460 0.930 . S
C466 O473 1.259 . S
C466 O474 1.258 . S
N467 Co458 2.057 . S
N467 C468 1.316 . S
N467 C469 1.375 . S
C468 N467 1.316 . S
C468 N470 1.347 . S
C468 H479 0.931 . S
C469 N467 1.375 . S
C469 C471 1.350 . S
C469 H478 0.930 . S
N470 C468 1.347 . S
N470 C471 1.373 . S
C471 C469 1.350 . S
C471 N470 1.373 . S
C471 H485 0.931 . S
C472 O475 1.256 . S
C472 O476 1.255 1_545 S
O473 Co456 2.021 . S
O473 C466 1.259 . S
O474 Co458 2.117 . S
O474 C466 1.258 . S
O475 Co458 2.020 . S
O475 C472 1.256 . S
O476 Co456 2.062 1_565 S
O476 C472 1.255 1_565 S
O477 C457 1.259 1_455 S
O477 Co458 2.021 . S
H478 C469 0.930 . S
H479 C468 0.931 . S
O480 Co456 2.124 . S
O480 C457 1.258 1_455 S
O481 Co456 2.020 1_655 S
O481 C483 1.256 . S
O482 Co458 2.062 1_655 S
O482 C483 1.255 . S
C483 O481 1.256 . S
C483 O482 1.255 . S
H484 C463 0.931 . S
H485 C471 0.931 . S
Co486 N491 2.057 . S
Co486 O503 2.021 . S
Co486 O506 2.062 . S
Co486 O510 2.117 . S
Co486 O511 2.020 . S
C487 O507 1.259 . S
C487 O510 1.258 . S
Co488 N497 2.057 . S
Co488 O504 2.117 . S
Co488 O505 2.020 . S
Co488 O507 2.021 . S
Co488 O512 2.062 . S
C489 N491 1.316 . S
C489 N492 1.347 . S
C489 H494 0.931 . S
C490 N491 1.375 . S
C490 C493 1.350 . S
C490 H495 0.930 . S
N491 Co486 2.057 . S
N491 C489 1.316 . S
N491 C490 1.375 . S
N492 C489 1.347 . S
N492 C493 1.373 . S
C493 C490 1.350 . S
C493 N492 1.373 . S
C493 H514 0.931 . S
H494 C489 0.931 . S
H495 C490 0.930 . S
C496 O503 1.259 . S
C496 O504 1.258 . S
N497 Co488 2.057 . S
N497 C498 1.316 . S
N497 C499 1.375 . S
C498 N497 1.316 . S
C498 N500 1.347 . S
C498 H509 0.931 . S
C499 N497 1.375 . S
C499 C501 1.350 . S
C499 H508 0.930 . S
N500 C498 1.347 . S
N500 C501 1.373 . S
C501 C499 1.350 . S
C501 N500 1.373 . S
C501 H515 0.931 . S
C502 O505 1.256 . S
C502 O506 1.255 . S
O503 Co486 2.021 . S
O503 C496 1.259 . S
O504 Co488 2.117 . S
O504 C496 1.258 . S
O505 Co488 2.020 . S
O505 C502 1.256 . S
O506 Co486 2.062 . S
O506 C502 1.255 . S
O507 C487 1.259 . S
O507 Co488 2.021 . S
H508 C499 0.930 . S
H509 C498 0.931 . S
O510 Co486 2.117 . S
O510 C487 1.258 . S
O511 Co486 2.020 . S
O511 C513 1.256 . S
O512 Co488 2.062 . S
O512 C513 1.255 . S
C513 O511 1.256 . S
C513 O512 1.255 . S
H514 C493 0.931 . S
H515 C501 0.931 . S
Co516 N521 2.057 1_554 S
Co516 O533 2.021 . S
Co516 O536 2.062 1_554 S
Co516 O540 2.117 . S
Co516 O541 2.020 1_545 S
C517 O537 1.259 . S
C517 O540 1.258 . S
Co518 N527 2.057 . S
Co518 O534 2.117 . S
Co518 O535 2.020 . S
Co518 O537 2.021 . S
Co518 O542 2.062 1_545 S
C519 N521 1.316 . S
C519 N522 1.347 . S
C519 H524 0.931 . S
C520 N521 1.375 1_565 S
C520 C523 1.350 . S
C520 H525 0.930 . S
N521 Co516 2.057 1_556 S
N521 C519 1.316 . S
N521 C520 1.375 1_545 S
N522 C519 1.347 . S
N522 C523 1.373 1_545 S
C523 C520 1.350 . S
C523 N522 1.373 1_565 S
C523 H544 0.931 . S
H524 C519 0.931 . S
H525 C520 0.930 . S
C526 O533 1.259 . S
C526 O534 1.258 . S
N527 Co518 2.057 . S
N527 C528 1.316 . S
N527 C529 1.375 . S
C528 N527 1.316 . S
C528 N530 1.347 . S
C528 H539 0.931 . S
C529 N527 1.375 . S
C529 C531 1.350 . S
C529 H538 0.930 . S
N530 C528 1.347 . S
N530 C531 1.373 . S
C531 C529 1.350 . S
C531 N530 1.373 . S
C531 H545 0.931 . S
C532 O535 1.256 . S
C532 O536 1.255 1_554 S
O533 Co516 2.021 . S
O533 C526 1.259 . S
O534 Co518 2.117 . S
O534 C526 1.258 . S
O535 Co518 2.020 . S
O535 C532 1.256 . S
O536 Co516 2.062 1_556 S
O536 C532 1.255 1_556 S
O537 C517 1.259 . S
O537 Co518 2.021 . S
H538 C529 0.930 . S
H539 C528 0.931 . S
O540 Co516 2.117 . S
O540 C517 1.258 . S
O541 Co516 2.020 1_565 S
O541 C543 1.256 . S
O542 Co518 2.062 1_565 S
O542 C543 1.255 . S
C543 O541 1.256 . S
C543 O542 1.255 . S
H544 C523 0.931 . S
H545 C531 0.931 . S
Co546 N551 2.057 . S
Co546 O563 2.021 . S
Co546 O566 2.062 . S
Co546 O570 2.117 . S
Co546 O571 2.020 . S
C547 O567 1.259 . S
C547 O570 1.258 . S
Co548 N557 2.057 . S
Co548 O564 2.117 . S
Co548 O565 2.020 . S
Co548 O567 2.021 . S
Co548 O572 2.062 . S
C549 N551 1.316 . S
C549 N552 1.347 . S
C549 H554 0.931 . S
C550 N551 1.375 . S
C550 C553 1.350 . S
C550 H555 0.930 . S
N551 Co546 2.057 . S
N551 C549 1.316 . S
N551 C550 1.375 . S
N552 C549 1.347 . S
N552 C553 1.373 . S
C553 C550 1.350 . S
C553 N552 1.373 . S
C553 H574 0.931 . S
H554 C549 0.931 . S
H555 C550 0.930 . S
C556 O563 1.259 . S
C556 O564 1.258 . S
N557 Co548 2.057 . S
N557 C558 1.316 . S
N557 C559 1.375 . S
C558 N557 1.316 . S
C558 N560 1.347 . S
C558 H569 0.931 . S
C559 N557 1.375 . S
C559 C561 1.350 . S
C559 H568 0.930 . S
N560 C558 1.347 . S
N560 C561 1.373 . S
C561 C559 1.350 . S
C561 N560 1.373 . S
C561 H575 0.931 . S
C562 O565 1.256 . S
C562 O566 1.255 . S
O563 Co546 2.021 . S
O563 C556 1.259 . S
O564 Co548 2.117 . S
O564 C556 1.258 . S
O565 Co548 2.020 . S
O565 C562 1.256 . S
O566 Co546 2.062 . S
O566 C562 1.255 . S
O567 C547 1.259 . S
O567 Co548 2.021 . S
H568 C559 0.930 . S
H569 C558 0.931 . S
O570 Co546 2.117 . S
O570 C547 1.258 . S
O571 Co546 2.020 . S
O571 C573 1.256 . S
O572 Co548 2.062 . S
O572 C573 1.255 . S
C573 O571 1.256 . S
C573 O572 1.255 . S
H574 C553 0.931 . S
H575 C561 0.931 . S
Co576 N581 2.057 . S
Co576 O593 2.021 1_554 S
Co576 O596 2.062 . S
Co576 O600 2.117 . S
Co576 O601 2.020 . S
C577 O597 1.259 . S
C577 O600 1.258 . S
Co578 N587 2.057 . S
Co578 O594 2.117 . S
Co578 O595 2.020 . S
Co578 O597 2.021 . S
Co578 O602 2.062 . S
C579 N581 1.316 1_556 S
C579 N582 1.347 1_556 S
C579 H584 0.931 . S
C580 N581 1.375 . S
C580 C583 1.350 . S
C580 H585 0.930 . S
N581 Co576 2.057 . S
N581 C579 1.316 1_554 S
N581 C580 1.375 . S
N582 C579 1.347 1_554 S
N582 C583 1.373 . S
C583 C580 1.350 . S
C583 N582 1.373 . S
C583 H604 0.931 . S
H584 C579 0.931 . S
H585 C580 0.930 . S
C586 O593 1.259 . S
C586 O594 1.258 1_556 S
N587 Co578 2.057 . S
N587 C588 1.316 . S
N587 C589 1.375 . S
C588 N587 1.316 . S
C588 N590 1.347 . S
C588 H599 0.931 . S
C589 N587 1.375 . S
C589 C591 1.350 . S
C589 H598 0.930 . S
N590 C588 1.347 . S
N590 C591 1.373 . S
C591 C589 1.350 . S
C591 N590 1.373 . S
C591 H605 0.931 . S
C592 O595 1.256 . S
C592 O596 1.255 . S
O593 Co576 2.021 1_556 S
O593 C586 1.259 . S
O594 Co578 2.117 . S
O594 C586 1.258 1_554 S
O595 Co578 2.020 . S
O595 C592 1.256 . S
O596 Co576 2.062 . S
O596 C592 1.255 . S
O597 C577 1.259 . S
O597 Co578 2.021 . S
H598 C589 0.930 . S
H599 C588 0.931 . S
O600 Co576 2.117 . S
O600 C577 1.258 . S
O601 Co576 2.020 . S
O601 C603 1.256 . S
O602 Co578 2.062 . S
O602 C603 1.255 . S
C603 O601 1.256 . S
C603 O602 1.255 . S
H604 C583 0.931 . S
H605 C591 0.931 . S
Co606 N611 2.057 . S
Co606 O623 2.021 . S
Co606 O626 2.062 . S
Co606 O630 2.117 . S
Co606 O631 2.020 . S
C607 O627 1.259 . S
C607 O630 1.258 . S
Co608 N617 2.057 . S
Co608 O624 2.117 . S
Co608 O625 2.020 . S
Co608 O627 2.021 . S
Co608 O632 2.062 . S
C609 N611 1.316 . S
C609 N612 1.347 . S
C609 H614 0.931 . S
C610 N611 1.375 . S
C610 C613 1.350 . S
C610 H615 0.930 . S
N611 Co606 2.057 . S
N611 C609 1.316 . S
N611 C610 1.375 . S
N612 C609 1.347 . S
N612 C613 1.373 . S
C613 C610 1.350 . S
C613 N612 1.373 . S
C613 H634 0.931 . S
H614 C609 0.931 . S
H615 C610 0.930 . S
C616 O623 1.259 . S
C616 O624 1.258 . S
N617 Co608 2.057 . S
N617 C618 1.316 . S
N617 C619 1.375 . S
C618 N617 1.316 . S
C618 N620 1.347 . S
C618 H629 0.931 . S
C619 N617 1.375 . S
C619 C621 1.350 . S
C619 H628 0.930 . S
N620 C618 1.347 . S
N620 C621 1.373 . S
C621 C619 1.350 . S
C621 N620 1.373 . S
C621 H635 0.931 . S
C622 O625 1.256 . S
C622 O626 1.255 . S
O623 Co606 2.021 . S
O623 C616 1.259 . S
O624 Co608 2.117 . S
O624 C616 1.258 . S
O625 Co608 2.020 . S
O625 C622 1.256 . S
O626 Co606 2.062 . S
O626 C622 1.255 . S
O627 C607 1.259 . S
O627 Co608 2.021 . S
H628 C619 0.930 . S
H629 C618 0.931 . S
O630 Co606 2.117 . S
O630 C607 1.258 . S
O631 Co606 2.020 . S
O631 C633 1.256 . S
O632 Co608 2.062 . S
O632 C633 1.255 . S
C633 O631 1.256 . S
C633 O632 1.255 . S
H634 C613 0.931 . S
H635 C621 0.931 . S
Co636 N641 2.057 . S
Co636 O653 2.021 1_455 S
Co636 O656 2.062 . S
Co636 O660 2.117 . S
Co636 O661 2.020 . S
C637 O657 1.259 . S
C637 O660 1.258 . S
Co638 N647 2.057 . S
Co638 O654 2.117 1_455 S
Co638 O655 2.020 . S
Co638 O657 2.021 . S
Co638 O662 2.062 . S
C639 N641 1.316 1_655 S
C639 N642 1.347 . S
C639 H644 0.931 . S
C640 N641 1.375 . S
C640 C643 1.350 . S
C640 H645 0.930 . S
N641 Co636 2.057 . S
N641 C639 1.316 1_455 S
N641 C640 1.375 . S
N642 C639 1.347 . S
N642 C643 1.373 1_655 S
C643 C640 1.350 . S
C643 N642 1.373 1_455 S
C643 H664 0.931 . S
H644 C639 0.931 . S
H645 C640 0.930 . S
C646 O653 1.259 . S
C646 O654 1.258 . S
N647 Co638 2.057 . S
N647 C648 1.316 . S
N647 C649 1.375 . S
C648 N647 1.316 . S
C648 N650 1.347 . S
C648 H659 0.931 . S
C649 N647 1.375 . S
C649 C651 1.350 . S
C649 H658 0.930 . S
N650 C648 1.347 . S
N650 C651 1.373 . S
C651 C649 1.350 . S
C651 N650 1.373 . S
C651 H665 0.931 . S
C652 O655 1.256 . S
C652 O656 1.255 . S
O653 Co636 2.021 1_655 S
O653 C646 1.259 . S
O654 Co638 2.117 1_655 S
O654 C646 1.258 . S
O655 Co638 2.020 . S
O655 C652 1.256 . S
O656 Co636 2.062 . S
O656 C652 1.255 . S
O657 C637 1.259 . S
O657 Co638 2.021 . S
H658 C649 0.930 . S
H659 C648 0.931 . S
O660 Co636 2.117 . S
O660 C637 1.258 . S
O661 Co636 2.020 . S
O661 C663 1.256 . S
O662 Co638 2.062 . S
O662 C663 1.255 . S
C663 O661 1.256 . S
C663 O662 1.255 . S
H664 C643 0.931 . S
H665 C651 0.931 . S
Co666 N671 2.057 . S
Co666 O683 2.021 . S
Co666 O686 2.062 . S
Co666 O690 2.117 . S
Co666 O691 2.020 . S
C667 O687 1.259 . S
C667 O690 1.258 . S
Co668 N677 2.057 . S
Co668 O684 2.117 . S
Co668 O685 2.020 . S
Co668 O687 2.021 . S
Co668 O692 2.062 . S
C669 N671 1.316 . S
C669 N672 1.347 . S
C669 H674 0.931 . S
C670 N671 1.375 . S
C670 C673 1.350 . S
C670 H675 0.930 . S
N671 Co666 2.057 . S
N671 C669 1.316 . S
N671 C670 1.375 . S
N672 C669 1.347 . S
N672 C673 1.373 . S
C673 C670 1.350 . S
C673 N672 1.373 . S
C673 H694 0.931 . S
H674 C669 0.931 . S
H675 C670 0.930 . S
C676 O683 1.259 . S
C676 O684 1.258 . S
N677 Co668 2.057 . S
N677 C678 1.316 . S
N677 C679 1.375 . S
C678 N677 1.316 . S
C678 N680 1.347 . S
C678 H689 0.931 . S
C679 N677 1.375 . S
C679 C681 1.350 . S
C679 H688 0.930 . S
N680 C678 1.347 . S
N680 C681 1.373 . S
C681 C679 1.350 . S
C681 N680 1.373 . S
C681 H695 0.931 . S
C682 O685 1.256 . S
C682 O686 1.255 . S
O683 Co666 2.021 . S
O683 C676 1.259 . S
O684 Co668 2.117 . S
O684 C676 1.258 . S
O685 Co668 2.020 . S
O685 C682 1.256 . S
O686 Co666 2.062 . S
O686 C682 1.255 . S
O687 C667 1.259 . S
O687 Co668 2.021 . S
H688 C679 0.930 . S
H689 C678 0.931 . S
O690 Co666 2.117 . S
O690 C667 1.258 . S
O691 Co666 2.020 . S
O691 C693 1.256 . S
O692 Co668 2.062 . S
O692 C693 1.255 . S
C693 O691 1.256 . S
C693 O692 1.255 . S
H694 C673 0.931 . S
H695 C681 0.931 . S
Co696 N701 2.057 . S
Co696 O713 2.021 . S
Co696 O716 2.062 . S
Co696 O720 2.117 . S
Co696 O721 2.020 . S
C697 O717 1.259 . S
C697 O720 1.258 . S
Co698 N707 2.057 . S
Co698 O714 2.117 . S
Co698 O715 2.020 . S
Co698 O717 2.021 . S
Co698 O722 2.062 . S
C699 N701 1.316 . S
C699 N702 1.347 . S
C699 H704 0.931 . S
C700 N701 1.375 . S
C700 C703 1.350 . S
C700 H705 0.930 . S
N701 Co696 2.057 . S
N701 C699 1.316 . S
N701 C700 1.375 . S
N702 C699 1.347 . S
N702 C703 1.373 . S
C703 C700 1.350 . S
C703 N702 1.373 . S
C703 H724 0.931 . S
H704 C699 0.931 . S
H705 C700 0.930 . S
C706 O713 1.259 . S
C706 O714 1.258 . S
N707 Co698 2.057 . S
N707 C708 1.316 . S
N707 C709 1.375 . S
C708 N707 1.316 . S
C708 N710 1.347 . S
C708 H719 0.931 . S
C709 N707 1.375 . S
C709 C711 1.350 . S
C709 H718 0.930 . S
N710 C708 1.347 . S
N710 C711 1.373 . S
C711 C709 1.350 . S
C711 N710 1.373 . S
C711 H725 0.931 . S
C712 O715 1.256 . S
C712 O716 1.255 . S
O713 Co696 2.021 . S
O713 C706 1.259 . S
O714 Co698 2.117 . S
O714 C706 1.258 . S
O715 Co698 2.020 . S
O715 C712 1.256 . S
O716 Co696 2.062 . S
O716 C712 1.255 . S
O717 C697 1.259 . S
O717 Co698 2.021 . S
H718 C709 0.930 . S
H719 C708 0.931 . S
O720 Co696 2.117 . S
O720 C697 1.258 . S
O721 Co696 2.020 . S
O721 C723 1.256 . S
O722 Co698 2.062 . S
O722 C723 1.255 . S
C723 O721 1.256 . S
C723 O722 1.255 . S
H724 C703 0.931 . S
H725 C711 0.931 . S
Co726 N731 2.057 . S
Co726 O743 2.021 . S
Co726 O746 2.062 . S
Co726 O750 2.117 . S
Co726 O751 2.020 . S
C727 O747 1.259 . S
C727 O750 1.258 . S
Co728 N737 2.057 . S
Co728 O744 2.117 . S
Co728 O745 2.020 . S
Co728 O747 2.021 . S
Co728 O752 2.062 . S
C729 N731 1.316 . S
C729 N732 1.347 . S
C729 H734 0.931 . S
C730 N731 1.375 . S
C730 C733 1.350 . S
C730 H735 0.930 . S
N731 Co726 2.057 . S
N731 C729 1.316 . S
N731 C730 1.375 . S
N732 C729 1.347 . S
N732 C733 1.373 . S
C733 C730 1.350 . S
C733 N732 1.373 . S
C733 H754 0.931 . S
H734 C729 0.931 . S
H735 C730 0.930 . S
C736 O743 1.259 . S
C736 O744 1.258 . S
N737 Co728 2.057 . S
N737 C738 1.316 . S
N737 C739 1.375 . S
C738 N737 1.316 . S
C738 N740 1.347 . S
C738 H749 0.931 . S
C739 N737 1.375 . S
C739 C741 1.350 . S
C739 H748 0.930 . S
N740 C738 1.347 . S
N740 C741 1.373 . S
C741 C739 1.350 . S
C741 N740 1.373 . S
C741 H755 0.931 . S
C742 O745 1.256 . S
C742 O746 1.255 . S
O743 Co726 2.021 . S
O743 C736 1.259 . S
O744 Co728 2.117 . S
O744 C736 1.258 . S
O745 Co728 2.020 . S
O745 C742 1.256 . S
O746 Co726 2.062 . S
O746 C742 1.255 . S
O747 C727 1.259 . S
O747 Co728 2.021 . S
H748 C739 0.930 . S
H749 C738 0.931 . S
O750 Co726 2.117 . S
O750 C727 1.258 . S
O751 Co726 2.020 . S
O751 C753 1.256 . S
O752 Co728 2.062 . S
O752 C753 1.255 . S
C753 O751 1.256 . S
C753 O752 1.255 . S
H754 C733 0.931 . S
H755 C741 0.931 . S
Co756 N761 2.057 . S
Co756 O773 2.021 . S
Co756 O776 2.062 . S
Co756 O780 2.117 . S
Co756 O781 2.020 . S
C757 O777 1.259 . S
C757 O780 1.258 . S
Co758 N767 2.057 . S
Co758 O774 2.117 . S
Co758 O775 2.020 . S
Co758 O777 2.021 . S
Co758 O782 2.062 . S
C759 N761 1.316 . S
C759 N762 1.347 . S
C759 H764 0.931 . S
C760 N761 1.375 . S
C760 C763 1.350 . S
C760 H765 0.930 . S
N761 Co756 2.057 . S
N761 C759 1.316 . S
N761 C760 1.375 . S
N762 C759 1.347 . S
N762 C763 1.373 . S
C763 C760 1.350 . S
C763 N762 1.373 . S
C763 H784 0.931 . S
H764 C759 0.931 . S
H765 C760 0.930 . S
C766 O773 1.259 . S
C766 O774 1.258 . S
N767 Co758 2.057 . S
N767 C768 1.316 . S
N767 C769 1.375 . S
C768 N767 1.316 . S
C768 N770 1.347 . S
C768 H779 0.931 . S
C769 N767 1.375 . S
C769 C771 1.350 . S
C769 H778 0.930 . S
N770 C768 1.347 . S
N770 C771 1.373 . S
C771 C769 1.350 . S
C771 N770 1.373 . S
C771 H785 0.931 . S
C772 O775 1.256 . S
C772 O776 1.255 . S
O773 Co756 2.021 . S
O773 C766 1.259 . S
O774 Co758 2.117 . S
O774 C766 1.258 . S
O775 Co758 2.020 . S
O775 C772 1.256 . S
O776 Co756 2.062 . S
O776 C772 1.255 . S
O777 C757 1.259 . S
O777 Co758 2.021 . S
H778 C769 0.930 . S
H779 C768 0.931 . S
O780 Co756 2.117 . S
O780 C757 1.258 . S
O781 Co756 2.020 . S
O781 C783 1.256 . S
O782 Co758 2.062 . S
O782 C783 1.255 . S
C783 O781 1.256 . S
C783 O782 1.255 . S
H784 C763 0.931 . S
H785 C771 0.931 . S
Co786 N791 2.057 1_455 S
Co786 O803 2.021 . S
Co786 O806 2.062 1_455 S
Co786 O810 2.117 . S
Co786 O811 2.020 1_554 S
C787 O807 1.259 . S
C787 O810 1.258 . S
Co788 N797 2.057 . S
Co788 O804 2.117 . S
Co788 O805 2.020 . S
Co788 O807 2.021 . S
Co788 O812 2.062 1_554 S
C789 N791 1.316 . S
C789 N792 1.347 . S
C789 H794 0.931 . S
C790 N791 1.375 1_556 S
C790 C793 1.350 . S
C790 H795 0.930 . S
N791 Co786 2.057 1_655 S
N791 C789 1.316 . S
N791 C790 1.375 1_554 S
N792 C789 1.347 . S
N792 C793 1.373 1_554 S
C793 C790 1.350 . S
C793 N792 1.373 1_556 S
C793 H814 0.931 . S
H794 C789 0.931 . S
H795 C790 0.930 . S
C796 O803 1.259 . S
C796 O804 1.258 . S
N797 Co788 2.057 . S
N797 C798 1.316 . S
N797 C799 1.375 . S
C798 N797 1.316 . S
C798 N800 1.347 . S
C798 H809 0.931 . S
C799 N797 1.375 . S
C799 C801 1.350 . S
C799 H808 0.930 . S
N800 C798 1.347 . S
N800 C801 1.373 . S
C801 C799 1.350 . S
C801 N800 1.373 . S
C801 H815 0.931 . S
C802 O805 1.256 . S
C802 O806 1.255 1_455 S
O803 Co786 2.021 . S
O803 C796 1.259 . S
O804 Co788 2.117 . S
O804 C796 1.258 . S
O805 Co788 2.020 . S
O805 C802 1.256 . S
O806 Co786 2.062 1_655 S
O806 C802 1.255 1_655 S
O807 C787 1.259 . S
O807 Co788 2.021 . S
H808 C799 0.930 . S
H809 C798 0.931 . S
O810 Co786 2.117 . S
O810 C787 1.258 . S
O811 Co786 2.020 1_556 S
O811 C813 1.256 . S
O812 Co788 2.062 1_556 S
O812 C813 1.255 . S
C813 O811 1.256 . S
C813 O812 1.255 . S
H814 C793 0.931 . S
H815 C801 0.931 . S
C816 C817 1.363 . S
C816 C822 1.379 . S
C816 N824 1.356 . S
C817 C816 1.363 . S
C817 C823 1.363 . S
C818 C819 1.363 . S
C818 C823 1.379 . S
C818 N825 1.356 . S
C819 C818 1.363 . S
C819 C822 1.363 . S
N820 C822 1.356 1_655 S
N820 H832 0.984 . S
N820 H833 0.985 . S
N821 C823 1.356 . S
N821 H826 0.984 . S
N821 H827 0.985 . S
C822 C816 1.379 . S
C822 C819 1.363 . S
C822 N820 1.356 1_455 S
C823 C817 1.363 . S
C823 C818 1.379 . S
C823 N821 1.356 . S
N824 C816 1.356 . S
N824 H830 0.984 1_455 S
N824 H831 0.984 . S
N825 C818 1.356 . S
N825 H828 0.984 . S
N825 H829 0.985 . S
H826 N821 0.984 . S
H827 N821 0.985 . S
H828 N825 0.984 . S
H829 N825 0.985 . S
H830 N824 0.984 1_655 S
H831 N824 0.984 . S
H832 N820 0.984 . S
H833 N820 0.985 . S
C834 C835 1.363 . S
C834 C840 1.379 . S
C834 N842 1.356 . S
C835 C834 1.363 . S
C835 C841 1.363 . S
C836 C837 1.363 . S
C836 C841 1.379 . S
C836 N843 1.356 . S
C837 C836 1.363 . S
C837 C840 1.363 . S
N838 C840 1.356 . S
N838 H850 0.984 . S
N838 H851 0.985 . S
N839 C841 1.356 . S
N839 H844 0.984 . S
N839 H845 0.985 . S
C840 C834 1.379 . S
C840 C837 1.363 . S
C840 N838 1.356 . S
C841 C835 1.363 . S
C841 C836 1.379 . S
C841 N839 1.356 . S
N842 C834 1.356 . S
N842 H848 0.984 . S
N842 H849 0.984 . S
N843 C836 1.356 . S
N843 H846 0.984 . S
N843 H847 0.985 . S
H844 N839 0.984 . S
H845 N839 0.985 . S
H846 N843 0.984 . S
H847 N843 0.985 . S
H848 N842 0.984 . S
H849 N842 0.984 . S
H850 N838 0.984 . S
H851 N838 0.985 . S
C852 C853 1.363 . S
C852 C858 1.379 . S
C852 N860 1.356 . S
C853 C852 1.363 . S
C853 C859 1.363 . S
C854 C855 1.363 . S
C854 C859 1.379 . S
C854 N861 1.356 . S
C855 C854 1.363 . S
C855 C858 1.363 . S
N856 C858 1.356 . S
N856 H868 0.984 . S
N856 H869 0.985 . S
N857 C859 1.356 . S
N857 H862 0.984 . S
N857 H863 0.985 . S
C858 C852 1.379 . S
C858 C855 1.363 . S
C858 N856 1.356 . S
C859 C853 1.363 . S
C859 C854 1.379 . S
C859 N857 1.356 . S
N860 C852 1.356 . S
N860 H866 0.984 . S
N860 H867 0.984 . S
N861 C854 1.356 . S
N861 H864 0.984 . S
N861 H865 0.985 . S
H862 N857 0.984 . S
H863 N857 0.985 . S
H864 N861 0.984 . S
H865 N861 0.985 . S
H866 N860 0.984 . S
H867 N860 0.984 . S
H868 N856 0.984 . S
H869 N856 0.985 . S
C870 C871 1.363 . S
C870 C876 1.379 . S
C870 N878 1.356 . S
C871 C870 1.363 . S
C871 C877 1.363 . S
C872 C873 1.363 . S
C872 C877 1.379 . S
C872 N879 1.356 . S
C873 C872 1.363 . S
C873 C876 1.363 . S
N874 C876 1.356 . S
N874 H886 0.984 . S
N874 H887 0.985 . S
N875 C877 1.356 . S
N875 H880 0.984 . S
N875 H881 0.985 . S
C876 C870 1.379 . S
C876 C873 1.363 . S
C876 N874 1.356 . S
C877 C871 1.363 . S
C877 C872 1.379 . S
C877 N875 1.356 . S
N878 C870 1.356 . S
N878 H884 0.984 . S
N878 H885 0.984 . S
N879 C872 1.356 . S
N879 H882 0.984 . S
N879 H883 0.985 . S
H880 N875 0.984 . S
H881 N875 0.985 . S
H882 N879 0.984 . S
H883 N879 0.985 . S
H884 N878 0.984 . S
H885 N878 0.984 . S
H886 N874 0.984 . S
H887 N874 0.985 . S
C888 C889 1.363 . S
C888 C894 1.379 . S
C888 N896 1.356 . S
C889 C888 1.363 . S
C889 C895 1.363 . S
C890 C891 1.363 . S
C890 C895 1.379 . S
C890 N897 1.356 1_455 S
C891 C890 1.363 . S
C891 C894 1.363 . S
N892 C894 1.356 . S
N892 H904 0.984 . S
N892 H905 0.985 . S
N893 C895 1.356 . S
N893 H898 0.984 . S
N893 H899 0.985 . S
C894 C888 1.379 . S
C894 C891 1.363 . S
C894 N892 1.356 . S
C895 C889 1.363 . S
C895 C890 1.379 . S
C895 N893 1.356 . S
N896 C888 1.356 . S
N896 H902 0.984 . S
N896 H903 0.984 . S
N897 C890 1.356 1_655 S
N897 H900 0.984 . S
N897 H901 0.985 . S
H898 N893 0.984 . S
H899 N893 0.985 . S
H900 N897 0.984 . S
H901 N897 0.985 . S
H902 N896 0.984 . S
H903 N896 0.984 . S
H904 N892 0.984 . S
H905 N892 0.985 . S
C906 C907 1.363 . S
C906 C912 1.379 . S
C906 N914 1.356 . S
C907 C906 1.363 . S
C907 C913 1.363 . S
C908 C909 1.363 . S
C908 C913 1.379 . S
C908 N915 1.356 . S
C909 C908 1.363 . S
C909 C912 1.363 . S
N910 C912 1.356 . S
N910 H922 0.984 . S
N910 H923 0.985 . S
N911 C913 1.356 . S
N911 H916 0.984 . S
N911 H917 0.985 . S
C912 C906 1.379 . S
C912 C909 1.363 . S
C912 N910 1.356 . S
C913 C907 1.363 . S
C913 C908 1.379 . S
C913 N911 1.356 . S
N914 C906 1.356 . S
N914 H920 0.984 . S
N914 H921 0.984 . S
N915 C908 1.356 . S
N915 H918 0.984 . S
N915 H919 0.985 . S
H916 N911 0.984 . S
H917 N911 0.985 . S
H918 N915 0.984 . S
H919 N915 0.985 . S
H920 N914 0.984 . S
H921 N914 0.984 . S
H922 N910 0.984 . S
H923 N910 0.985 . S
C924 C925 1.363 . S
C924 C930 1.379 . S
C924 N932 1.356 . S
C925 C924 1.363 . S
C925 C931 1.363 . S
C926 C927 1.363 1_554 S
C926 C931 1.379 1_554 S
C926 N933 1.356 . S
C927 C926 1.363 1_556 S
C927 C930 1.363 . S
N928 C930 1.356 . S
N928 H940 0.984 . S
N928 H941 0.985 . S
N929 C931 1.356 1_554 S
N929 H934 0.982 1_554 S
N929 H935 0.987 . S
C930 C924 1.379 . S
C930 C927 1.363 . S
C930 N928 1.356 . S
C931 C925 1.363 . S
C931 C926 1.379 1_556 S
C931 N929 1.356 1_556 S
N932 C924 1.356 . S
N932 H938 0.984 . S
N932 H939 0.984 . S
N933 C926 1.356 . S
N933 H936 0.984 . S
N933 H937 0.985 . S
H934 N929 0.982 1_556 S
H935 N929 0.987 . S
H936 N933 0.984 . S
H937 N933 0.985 . S
H938 N932 0.984 . S
H939 N932 0.984 . S
H940 N928 0.984 . S
H941 N928 0.985 . S
C942 C943 1.363 . S
C942 C948 1.379 . S
C942 N950 1.356 . S
C943 C942 1.363 . S
C943 C949 1.363 . S
C944 C945 1.363 . S
C944 C949 1.379 . S
C944 N951 1.356 . S
C945 C944 1.363 . S
C945 C948 1.363 . S
N946 C948 1.356 . S
N946 H958 0.984 . S
N946 H959 0.985 . S
N947 C949 1.356 . S
N947 H952 0.984 . S
N947 H953 0.985 . S
C948 C942 1.379 . S
C948 C945 1.363 . S
C948 N946 1.356 . S
C949 C943 1.363 . S
C949 C944 1.379 . S
C949 N947 1.356 . S
N950 C942 1.356 . S
N950 H956 0.984 . S
N950 H957 0.984 . S
N951 C944 1.356 . S
N951 H954 0.984 . S
N951 H955 0.985 . S
H952 N947 0.984 . S
H953 N947 0.985 . S
H954 N951 0.984 . S
H955 N951 0.985 . S
H956 N950 0.984 . S
H957 N950 0.984 . S
H958 N946 0.984 . S
H959 N946 0.985 . S
C960 C961 1.363 1_565 S
C960 C966 1.379 . S
C960 N968 1.356 . S
C961 C960 1.363 1_545 S
C961 C967 1.363 . S
C962 C963 1.363 1_545 S
C962 C967 1.379 . S
C962 N969 1.356 . S
C963 C962 1.363 1_565 S
C963 C966 1.363 . S
N964 C966 1.356 . S
N964 H976 0.984 . S
N964 H977 0.985 . S
N965 C967 1.356 . S
N965 H970 0.984 . S
N965 H971 0.985 . S
C966 C960 1.379 . S
C966 C963 1.363 . S
C966 N964 1.356 . S
C967 C961 1.363 . S
C967 C962 1.379 . S
C967 N965 1.356 . S
N968 C960 1.356 . S
N968 H974 0.984 . S
N968 H975 0.984 . S
N969 C962 1.356 . S
N969 H972 0.984 . S
N969 H973 0.985 . S
H970 N965 0.984 . S
H971 N965 0.985 . S
H972 N969 0.984 . S
H973 N969 0.985 . S
H974 N968 0.984 . S
H975 N968 0.984 . S
H976 N964 0.984 . S
H977 N964 0.985 . S
C978 C979 1.363 . S
C978 C984 1.379 . S
C978 N986 1.356 . S
C979 C978 1.363 . S
C979 C985 1.363 . S
C980 C981 1.363 . S
C980 C985 1.379 . S
C980 N987 1.356 . S
C981 C980 1.363 . S
C981 C984 1.363 . S
N982 C984 1.356 . S
N982 H994 0.984 . S
N982 H995 0.985 . S
N983 C985 1.356 . S
N983 H988 0.984 . S
N983 H989 0.985 . S
C984 C978 1.379 . S
C984 C981 1.363 . S
C984 N982 1.356 . S
C985 C979 1.363 . S
C985 C980 1.379 . S
C985 N983 1.356 . S
N986 C978 1.356 . S
N986 H992 0.984 . S
N986 H993 0.984 . S
N987 C980 1.356 . S
N987 H990 0.984 . S
N987 H991 0.985 . S
H988 N983 0.984 . S
H989 N983 0.985 . S
H990 N987 0.984 . S
H991 N987 0.985 . S
H992 N986 0.984 . S
H993 N986 0.984 . S
H994 N982 0.984 . S
H995 N982 0.985 . S
C996 C997 1.363 . S
C996 C1002 1.379 . S
C996 N1004 1.356 . S
C997 C996 1.363 . S
C997 C1003 1.363 . S
C998 C999 1.363 . S
C998 C1003 1.379 . S
C998 N1005 1.356 . S
C999 C998 1.363 . S
C999 C1002 1.363 . S
N1000 C1002 1.356 . S
N1000 H1012 0.984 1_545 S
N1000 H1013 0.985 . S
N1001 C1003 1.356 . S
N1001 H1006 0.984 . S
N1001 H1007 0.985 . S
C1002 C996 1.379 . S
C1002 C999 1.363 . S
C1002 N1000 1.356 . S
C1003 C997 1.363 . S
C1003 C998 1.379 . S
C1003 N1001 1.356 . S
N1004 C996 1.356 . S
N1004 H1010 0.984 . S
N1004 H1011 0.984 . S
N1005 C998 1.356 . S
N1005 H1008 0.984 . S
N1005 H1009 0.985 . S
H1006 N1001 0.984 . S
H1007 N1001 0.985 . S
H1008 N1005 0.984 . S
H1009 N1005 0.985 . S
H1010 N1004 0.984 . S
H1011 N1004 0.984 . S
H1012 N1000 0.984 1_565 S
H1013 N1000 0.985 . S
C1014 C1015 1.363 . S
C1014 C1020 1.379 . S
C1014 N1022 1.356 . S
C1015 C1014 1.363 . S
C1015 C1021 1.363 . S
C1016 C1017 1.363 . S
C1016 C1021 1.379 . S
C1016 N1023 1.356 . S
C1017 C1016 1.363 . S
C1017 C1020 1.363 . S
N1018 C1020 1.356 . S
N1018 H1030 0.984 . S
N1018 H1031 0.985 . S
N1019 C1021 1.356 . S
N1019 H1024 0.984 . S
N1019 H1025 0.985 . S
C1020 C1014 1.379 . S
C1020 C1017 1.363 . S
C1020 N1018 1.356 . S
C1021 C1015 1.363 . S
C1021 C1016 1.379 . S
C1021 N1019 1.356 . S
N1022 C1014 1.356 . S
N1022 H1028 0.984 . S
N1022 H1029 0.984 . S
N1023 C1016 1.356 . S
N1023 H1026 0.984 . S
N1023 H1027 0.985 . S
H1024 N1019 0.984 . S
H1025 N1019 0.985 . S
H1026 N1023 0.984 . S
H1027 N1023 0.985 . S
H1028 N1022 0.984 . S
H1029 N1022 0.984 . S
H1030 N1018 0.984 . S
H1031 N1018 0.985 . S
C1032 C1033 1.363 1_565 S
C1032 C1038 1.379 1_565 S
C1032 N1040 1.356 . S
C1033 C1032 1.363 1_545 S
C1033 C1039 1.363 . S
C1034 C1035 1.363 . S
C1034 C1039 1.379 . S
C1034 N1041 1.356 . S
C1035 C1034 1.363 . S
C1035 C1038 1.363 . S
N1036 C1038 1.356 1_565 S
N1036 H1048 0.984 . S
N1036 H1049 0.985 1_565 S
N1037 C1039 1.356 . S
N1037 H1042 0.984 . S
N1037 H1043 0.985 . S
C1038 C1032 1.379 1_545 S
C1038 C1035 1.363 . S
C1038 N1036 1.356 1_545 S
C1039 C1033 1.363 . S
C1039 C1034 1.379 . S
C1039 N1037 1.356 . S
N1040 C1032 1.356 . S
N1040 H1046 0.984 . S
N1040 H1047 0.984 . S
N1041 C1034 1.356 . S
N1041 H1044 0.984 . S
N1041 H1045 0.985 . S
H1042 N1037 0.984 . S
H1043 N1037 0.985 . S
H1044 N1041 0.984 . S
H1045 N1041 0.985 . S
H1046 N1040 0.984 . S
H1047 N1040 0.984 . S
H1048 N1036 0.984 . S
H1049 N1036 0.985 1_545 S
C1050 C1051 1.363 . S
C1050 C1056 1.379 . S
C1050 N1058 1.356 . S
C1051 C1050 1.363 . S
C1051 C1057 1.363 . S
C1052 C1053 1.363 . S
C1052 C1057 1.379 . S
C1052 N1059 1.356 . S
C1053 C1052 1.363 . S
C1053 C1056 1.363 . S
N1054 C1056 1.356 . S
N1054 H1066 0.984 . S
N1054 H1067 0.985 . S
N1055 C1057 1.356 . S
N1055 H1060 0.984 . S
N1055 H1061 0.985 . S
C1056 C1050 1.379 . S
C1056 C1053 1.363 . S
C1056 N1054 1.356 . S
C1057 C1051 1.363 . S
C1057 C1052 1.379 . S
C1057 N1055 1.356 . S
N1058 C1050 1.356 . S
N1058 H1064 0.984 . S
N1058 H1065 0.984 . S
N1059 C1052 1.356 . S
N1059 H1062 0.984 . S
N1059 H1063 0.985 . S
H1060 N1055 0.984 . S
H1061 N1055 0.985 . S
H1062 N1059 0.984 . S
H1063 N1059 0.985 . S
H1064 N1058 0.984 . S
H1065 N1058 0.984 . S
H1066 N1054 0.984 . S
H1067 N1054 0.985 . S
C1068 C1069 1.363 . S
C1068 C1074 1.379 . S
C1068 N1076 1.356 . S
C1069 C1068 1.363 . S
C1069 C1075 1.363 . S
C1070 C1071 1.363 . S
C1070 C1075 1.379 . S
C1070 N1077 1.356 . S
C1071 C1070 1.363 . S
C1071 C1074 1.363 . S
N1072 C1074 1.356 1_565 S
N1072 H1084 0.984 . S
N1072 H1085 0.985 . S
N1073 C1075 1.356 . S
N1073 H1078 0.984 . S
N1073 H1079 0.985 . S
C1074 C1068 1.379 . S
C1074 C1071 1.363 . S
C1074 N1072 1.356 1_545 S
C1075 C1069 1.363 . S
C1075 C1070 1.379 . S
C1075 N1073 1.356 . S
N1076 C1068 1.356 . S
N1076 H1082 0.984 1_545 S
N1076 H1083 0.984 . S
N1077 C1070 1.356 . S
N1077 H1080 0.984 . S
N1077 H1081 0.985 . S
H1078 N1073 0.984 . S
H1079 N1073 0.985 . S
H1080 N1077 0.984 . S
H1081 N1077 0.985 . S
H1082 N1076 0.984 1_565 S
H1083 N1076 0.984 . S
H1084 N1072 0.984 . S
H1085 N1072 0.985 . S
C1086 C1087 1.363 . S
C1086 C1092 1.379 . S
C1086 N1094 1.356 . S
C1087 C1086 1.363 . S
C1087 C1093 1.363 . S
C1088 C1089 1.363 . S
C1088 C1093 1.379 . S
C1088 N1095 1.356 . S
C1089 C1088 1.363 . S
C1089 C1092 1.363 . S
N1090 C1092 1.356 . S
N1090 H1102 0.984 . S
N1090 H1103 0.985 . S
N1091 C1093 1.356 . S
N1091 H1096 0.984 . S
N1091 H1097 0.985 . S
C1092 C1086 1.379 . S
C1092 C1089 1.363 . S
C1092 N1090 1.356 . S
C1093 C1087 1.363 . S
C1093 C1088 1.379 . S
C1093 N1091 1.356 . S
N1094 C1086 1.356 . S
N1094 H1100 0.984 . S
N1094 H1101 0.984 . S
N1095 C1088 1.356 . S
N1095 H1098 0.984 . S
N1095 H1099 0.985 . S
H1096 N1091 0.984 . S
H1097 N1091 0.985 . S
H1098 N1095 0.984 . S
H1099 N1095 0.985 . S
H1100 N1094 0.984 . S
H1101 N1094 0.984 . S
H1102 N1090 0.984 . S
H1103 N1090 0.985 . S
C1104 C1105 1.363 . S
C1104 C1110 1.379 . S
C1104 N1112 1.356 . S
C1105 C1104 1.363 . S
C1105 C1111 1.363 . S
C1106 C1107 1.363 . S
C1106 C1111 1.379 . S
C1106 N1113 1.356 1_554 S
C1107 C1106 1.363 . S
C1107 C1110 1.363 . S
N1108 C1110 1.356 . S
N1108 H1120 0.984 . S
N1108 H1121 0.985 . S
N1109 C1111 1.356 . S
N1109 H1114 0.984 . S
N1109 H1115 0.985 1_554 S
C1110 C1104 1.379 . S
C1110 C1107 1.363 . S
C1110 N1108 1.356 . S
C1111 C1105 1.363 . S
C1111 C1106 1.379 . S
C1111 N1109 1.356 . S
N1112 C1104 1.356 . S
N1112 H1118 0.984 . S
N1112 H1119 0.984 . S
N1113 C1106 1.356 1_556 S
N1113 H1116 0.984 . S
N1113 H1117 0.985 . S
H1114 N1109 0.984 . S
H1115 N1109 0.985 1_556 S
H1116 N1113 0.984 . S
H1117 N1113 0.985 . S
H1118 N1112 0.984 . S
H1119 N1112 0.984 . S
H1120 N1108 0.984 . S
H1121 N1108 0.985 . S
C1122 C1123 1.363 . S
C1122 C1128 1.379 . S
C1122 N1130 1.356 . S
C1123 C1122 1.363 . S
C1123 C1129 1.363 . S
C1124 C1125 1.363 . S
C1124 C1129 1.379 . S
C1124 N1131 1.356 . S
C1125 C1124 1.363 . S
C1125 C1128 1.363 . S
N1126 C1128 1.356 . S
N1126 H1138 0.984 . S
N1126 H1139 0.985 . S
N1127 C1129 1.356 . S
N1127 H1132 0.984 . S
N1127 H1133 0.985 . S
C1128 C1122 1.379 . S
C1128 C1125 1.363 . S
C1128 N1126 1.356 . S
C1129 C1123 1.363 . S
C1129 C1124 1.379 . S
C1129 N1127 1.356 . S
N1130 C1122 1.356 . S
N1130 H1136 0.984 . S
N1130 H1137 0.984 . S
N1131 C1124 1.356 . S
N1131 H1134 0.984 . S
N1131 H1135 0.985 1_554 S
H1132 N1127 0.984 . S
H1133 N1127 0.985 . S
H1134 N1131 0.984 . S
H1135 N1131 0.985 1_556 S
H1136 N1130 0.984 . S
H1137 N1130 0.984 . S
H1138 N1126 0.984 . S
H1139 N1126 0.985 . S
C1140 C1141 1.363 . S
C1140 C1146 1.379 . S
C1140 N1148 1.356 . S
C1141 C1140 1.363 . S
C1141 C1147 1.363 . S
C1142 C1143 1.363 . S
C1142 C1147 1.379 . S
C1142 N1149 1.356 . S
C1143 C1142 1.363 . S
C1143 C1146 1.363 . S
N1144 C1146 1.356 . S
N1144 H1156 0.984 . S
N1144 H1157 0.985 . S
N1145 C1147 1.356 . S
N1145 H1150 0.984 . S
N1145 H1151 0.985 . S
C1146 C1140 1.379 . S
C1146 C1143 1.363 . S
C1146 N1144 1.356 . S
C1147 C1141 1.363 . S
C1147 C1142 1.379 . S
C1147 N1145 1.356 . S
N1148 C1140 1.356 . S
N1148 H1154 0.984 . S
N1148 H1155 0.984 . S
N1149 C1142 1.356 . S
N1149 H1152 0.984 . S
N1149 H1153 0.985 . S
H1150 N1145 0.984 . S
H1151 N1145 0.985 . S
H1152 N1149 0.984 . S
H1153 N1149 0.985 . S
H1154 N1148 0.984 . S
H1155 N1148 0.984 . S
H1156 N1144 0.984 . S
H1157 N1144 0.985 . S
C1158 C1159 1.363 . S
C1158 C1164 1.379 . S
C1158 N1166 1.356 . S
C1159 C1158 1.363 . S
C1159 C1165 1.363 . S
C1160 C1161 1.363 . S
C1160 C1165 1.379 . S
C1160 N1167 1.356 . S
C1161 C1160 1.363 . S
C1161 C1164 1.363 . S
N1162 C1164 1.356 . S
N1162 H1174 0.984 . S
N1162 H1175 0.985 . S
N1163 C1165 1.356 . S
N1163 H1168 0.984 . S
N1163 H1169 0.985 . S
C1164 C1158 1.379 . S
C1164 C1161 1.363 . S
C1164 N1162 1.356 . S
C1165 C1159 1.363 . S
C1165 C1160 1.379 . S
C1165 N1163 1.356 . S
N1166 C1158 1.356 . S
N1166 H1172 0.984 . S
N1166 H1173 0.984 . S
N1167 C1160 1.356 . S
N1167 H1170 0.984 . S
N1167 H1171 0.985 . S
H1168 N1163 0.984 . S
H1169 N1163 0.985 . S
H1170 N1167 0.984 . S
H1171 N1167 0.985 . S
H1172 N1166 0.984 . S
H1173 N1166 0.984 . S
H1174 N1162 0.984 . S
H1175 N1162 0.985 . S
C1176 C1177 1.363 . S
C1176 C1182 1.379 . S
C1176 N1184 1.356 . S
C1177 C1176 1.363 . S
C1177 C1183 1.363 . S
C1178 C1179 1.363 . S
C1178 C1183 1.379 . S
C1178 N1185 1.356 . S
C1179 C1178 1.363 . S
C1179 C1182 1.363 . S
N1180 C1182 1.356 . S
N1180 H1192 0.984 . S
N1180 H1193 0.985 . S
N1181 C1183 1.356 . S
N1181 H1186 0.984 . S
N1181 H1187 0.985 . S
C1182 C1176 1.379 . S
C1182 C1179 1.363 . S
C1182 N1180 1.356 . S
C1183 C1177 1.363 . S
C1183 C1178 1.379 . S
C1183 N1181 1.356 . S
N1184 C1176 1.356 . S
N1184 H1190 0.984 . S
N1184 H1191 0.984 . S
N1185 C1178 1.356 . S
N1185 H1188 0.984 . S
N1185 H1189 0.985 . S
H1186 N1181 0.984 . S
H1187 N1181 0.985 . S
H1188 N1185 0.984 . S
H1189 N1185 0.985 . S
H1190 N1184 0.984 . S
H1191 N1184 0.984 . S
H1192 N1180 0.984 . S
H1193 N1180 0.985 . S
C1194 C1195 1.363 . S
C1194 C1200 1.379 . S
C1194 N1202 1.356 . S
C1195 C1194 1.363 . S
C1195 C1201 1.363 . S
C1196 C1197 1.363 . S
C1196 C1201 1.379 . S
C1196 N1203 1.356 . S
C1197 C1196 1.363 . S
C1197 C1200 1.363 . S
N1198 C1200 1.356 . S
N1198 H1210 0.983 1_565 S
N1198 H1211 0.985 1_565 S
N1199 C1201 1.356 . S
N1199 H1204 0.984 . S
N1199 H1205 0.985 . S
C1200 C1194 1.379 . S
C1200 C1197 1.363 . S
C1200 N1198 1.356 . S
C1201 C1195 1.363 . S
C1201 C1196 1.379 . S
C1201 N1199 1.356 . S
N1202 C1194 1.356 . S
N1202 H1208 0.984 . S
N1202 H1209 0.984 . S
N1203 C1196 1.356 . S
N1203 H1206 0.984 . S
N1203 H1207 0.985 . S
H1204 N1199 0.984 . S
H1205 N1199 0.985 . S
H1206 N1203 0.984 . S
H1207 N1203 0.985 . S
H1208 N1202 0.984 . S
H1209 N1202 0.984 . S
H1210 N1198 0.983 1_545 S
H1211 N1198 0.985 1_545 S
C1212 C1213 1.363 . S
C1212 C1218 1.379 . S
C1212 N1220 1.356 . S
C1213 C1212 1.363 . S
C1213 C1219 1.363 . S
C1214 C1215 1.363 . S
C1214 C1219 1.379 . S
C1214 N1221 1.356 . S
C1215 C1214 1.363 . S
C1215 C1218 1.363 . S
N1216 C1218 1.356 . S
N1216 H1228 0.984 . S
N1216 H1229 0.985 . S
N1217 C1219 1.356 . S
N1217 H1222 0.984 . S
N1217 H1223 0.985 . S
C1218 C1212 1.379 . S
C1218 C1215 1.363 . S
C1218 N1216 1.356 . S
C1219 C1213 1.363 . S
C1219 C1214 1.379 . S
C1219 N1217 1.356 . S
N1220 C1212 1.356 . S
N1220 H1226 0.984 . S
N1220 H1227 0.984 . S
N1221 C1214 1.356 . S
N1221 H1224 0.984 . S
N1221 H1225 0.985 . S
H1222 N1217 0.984 . S
H1223 N1217 0.985 . S
H1224 N1221 0.984 . S
H1225 N1221 0.985 . S
H1226 N1220 0.984 . S
H1227 N1220 0.984 . S
H1228 N1216 0.984 . S
H1229 N1216 0.985 . S
C1230 C1231 1.363 . S
C1230 C1236 1.379 . S
C1230 N1238 1.356 . S
C1231 C1230 1.363 . S
C1231 C1237 1.363 . S
C1232 C1233 1.363 . S
C1232 C1237 1.379 . S
C1232 N1239 1.356 . S
C1233 C1232 1.363 . S
C1233 C1236 1.363 . S
N1234 C1236 1.356 . S
N1234 H1246 0.984 . S
N1234 H1247 0.985 . S
N1235 C1237 1.356 . S
N1235 H1240 0.984 . S
N1235 H1241 0.985 . S
C1236 C1230 1.379 . S
C1236 C1233 1.363 . S
C1236 N1234 1.356 . S
C1237 C1231 1.363 . S
C1237 C1232 1.379 . S
C1237 N1235 1.356 . S
N1238 C1230 1.356 . S
N1238 H1244 0.984 . S
N1238 H1245 0.984 . S
N1239 C1232 1.356 . S
N1239 H1242 0.984 . S
N1239 H1243 0.985 . S
H1240 N1235 0.984 . S
H1241 N1235 0.985 . S
H1242 N1239 0.984 . S
H1243 N1239 0.985 . S
H1244 N1238 0.984 . S
H1245 N1238 0.984 . S
H1246 N1234 0.984 . S
H1247 N1234 0.985 . S
C1248 C1249 1.384 . S
C1248 C1254 1.370 1_556 S
C1248 N1256 1.350 1_556 S
C1249 C1248 1.384 . S
C1249 C1255 1.363 . S
C1250 C1251 1.363 . S
C1250 C1255 1.379 . S
C1250 N1257 1.356 . S
C1251 C1250 1.363 . S
C1251 C1254 1.363 1_556 S
N1252 C1254 1.356 . S
N1252 H1264 0.984 . S
N1252 H1265 0.985 . S
N1253 C1255 1.356 . S
N1253 H1258 0.984 . S
N1253 H1259 0.985 . S
C1254 C1248 1.370 1_554 S
C1254 C1251 1.363 1_554 S
C1254 N1252 1.356 . S
C1255 C1249 1.363 . S
C1255 C1250 1.379 . S
C1255 N1253 1.356 . S
N1256 C1248 1.350 1_554 S
N1256 H1262 0.984 . S
N1256 H1263 0.984 1_554 S
N1257 C1250 1.356 . S
N1257 H1260 0.984 . S
N1257 H1261 0.985 . S
H1258 N1253 0.984 . S
H1259 N1253 0.985 . S
H1260 N1257 0.984 . S
H1261 N1257 0.985 . S
H1262 N1256 0.984 . S
H1263 N1256 0.984 1_556 S
H1264 N1252 0.984 . S
H1265 N1252 0.985 . S
C1266 C1267 1.363 . S
C1266 C1272 1.379 . S
C1266 N1274 1.356 . S
C1267 C1266 1.363 . S
C1267 C1273 1.363 . S
C1268 C1269 1.363 . S
C1268 C1273 1.379 . S
C1268 N1275 1.356 . S
C1269 C1268 1.363 . S
C1269 C1272 1.363 . S
N1270 C1272 1.356 . S
N1270 H1282 0.984 . S
N1270 H1283 0.985 . S
N1271 C1273 1.356 . S
N1271 H1276 0.984 . S
N1271 H1277 0.985 . S
C1272 C1266 1.379 . S
C1272 C1269 1.363 . S
C1272 N1270 1.356 . S
C1273 C1267 1.363 . S
C1273 C1268 1.379 . S
C1273 N1271 1.356 . S
N1274 C1266 1.356 . S
N1274 H1280 0.984 . S
N1274 H1281 0.984 . S
N1275 C1268 1.356 . S
N1275 H1278 0.984 . S
N1275 H1279 0.985 . S
H1276 N1271 0.984 . S
H1277 N1271 0.985 . S
H1278 N1275 0.984 . S
H1279 N1275 0.985 . S
H1280 N1274 0.984 . S
H1281 N1274 0.984 . S
H1282 N1270 0.984 . S
H1283 N1270 0.985 . S
C1284 C1285 1.363 . S
C1284 C1290 1.379 . S
C1284 N1292 1.356 . S
C1285 C1284 1.363 . S
C1285 C1291 1.363 . S
C1286 C1287 1.363 . S
C1286 C1291 1.379 . S
C1286 N1293 1.356 . S
C1287 C1286 1.363 . S
C1287 C1290 1.363 . S
N1288 C1290 1.356 . S
N1288 H1300 0.984 . S
N1288 H1301 0.985 . S
N1289 C1291 1.356 . S
N1289 H1294 0.984 . S
N1289 H1295 0.985 . S
C1290 C1284 1.379 . S
C1290 C1287 1.363 . S
C1290 N1288 1.356 . S
C1291 C1285 1.363 . S
C1291 C1286 1.379 . S
C1291 N1289 1.356 . S
N1292 C1284 1.356 . S
N1292 H1298 0.984 . S
N1292 H1299 0.984 . S
N1293 C1286 1.356 . S
N1293 H1296 0.984 . S
N1293 H1297 0.985 . S
H1294 N1289 0.984 . S
H1295 N1289 0.985 . S
H1296 N1293 0.984 . S
H1297 N1293 0.985 . S
H1298 N1292 0.984 . S
H1299 N1292 0.984 . S
H1300 N1288 0.984 . S
H1301 N1288 0.985 . S
C1302 C1303 1.363 . S
C1302 C1308 1.379 . S
C1302 N1310 1.356 . S
C1303 C1302 1.363 . S
C1303 C1309 1.363 . S
C1304 C1305 1.363 . S
C1304 C1309 1.379 . S
C1304 N1311 1.356 . S
C1305 C1304 1.363 . S
C1305 C1308 1.363 . S
N1306 C1308 1.356 . S
N1306 H1318 0.984 . S
N1306 H1319 0.985 . S
N1307 C1309 1.356 . S
N1307 H1312 0.984 . S
N1307 H1313 0.985 . S
C1308 C1302 1.379 . S
C1308 C1305 1.363 . S
C1308 N1306 1.356 . S
C1309 C1303 1.363 . S
C1309 C1304 1.379 . S
C1309 N1307 1.356 . S
N1310 C1302 1.356 . S
N1310 H1316 0.984 . S
N1310 H1317 0.984 . S
N1311 C1304 1.356 . S
N1311 H1314 0.984 . S
N1311 H1315 0.985 . S
H1312 N1307 0.984 . S
H1313 N1307 0.985 . S
H1314 N1311 0.984 . S
H1315 N1311 0.985 . S
H1316 N1310 0.984 . S
H1317 N1310 0.984 . S
H1318 N1306 0.984 . S
H1319 N1306 0.985 . S
C1320 C1321 1.363 . S
C1320 C1326 1.379 . S
C1320 N1328 1.356 1_455 S
C1321 C1320 1.363 . S
C1321 C1327 1.363 . S
C1322 C1323 1.363 . S
C1322 C1327 1.379 . S
C1322 N1329 1.356 . S
C1323 C1322 1.363 . S
C1323 C1326 1.363 . S
N1324 C1326 1.356 . S
N1324 H1336 0.998 . S
N1324 H1337 0.985 . S
N1325 C1327 1.356 . S
N1325 H1330 0.984 . S
N1325 H1331 0.985 . S
C1326 C1320 1.379 . S
C1326 C1323 1.363 . S
C1326 N1324 1.356 . S
C1327 C1321 1.363 . S
C1327 C1322 1.379 . S
C1327 N1325 1.356 . S
N1328 C1320 1.356 1_655 S
N1328 H1334 0.984 . S
N1328 H1335 0.984 . S
N1329 C1322 1.356 . S
N1329 H1332 0.984 . S
N1329 H1333 0.985 . S
H1330 N1325 0.984 . S
H1331 N1325 0.985 . S
H1332 N1329 0.984 . S
H1333 N1329 0.985 . S
H1334 N1328 0.984 . S
H1335 N1328 0.984 . S
H1336 N1324 0.998 . S
H1337 N1324 0.985 . S
C1338 C1339 1.363 . S
C1338 C1344 1.379 . S
C1338 N1346 1.356 . S
C1339 C1338 1.363 . S
C1339 C1345 1.363 . S
C1340 C1341 1.363 . S
C1340 C1345 1.379 . S
C1340 N1347 1.356 . S
C1341 C1340 1.363 . S
C1341 C1344 1.363 . S
N1342 C1344 1.356 . S
N1342 H1354 0.984 . S
N1342 H1355 0.985 . S
N1343 C1345 1.356 . S
N1343 H1348 0.984 . S
N1343 H1349 0.985 . S
C1344 C1338 1.379 . S
C1344 C1341 1.363 . S
C1344 N1342 1.356 . S
C1345 C1339 1.363 . S
C1345 C1340 1.379 . S
C1345 N1343 1.356 . S
N1346 C1338 1.356 . S
N1346 H1352 0.984 . S
N1346 H1353 0.984 . S
N1347 C1340 1.356 . S
N1347 H1350 0.984 . S
N1347 H1351 0.985 . S
H1348 N1343 0.984 . S
H1349 N1343 0.985 . S
H1350 N1347 0.984 . S
H1351 N1347 0.985 . S
H1352 N1346 0.984 . S
H1353 N1346 0.984 . S
H1354 N1342 0.984 . S
H1355 N1342 0.985 . S
C1356 C1357 1.363 . S
C1356 C1362 1.379 . S
C1356 N1364 1.356 . S
C1357 C1356 1.363 . S
C1357 C1363 1.363 . S
C1358 C1359 1.363 . S
C1358 C1363 1.379 . S
C1358 N1365 1.356 . S
C1359 C1358 1.363 . S
C1359 C1362 1.363 . S
N1360 C1362 1.356 . S
N1360 H1372 0.984 . S
N1360 H1373 0.985 . S
N1361 C1363 1.356 . S
N1361 H1366 0.984 . S
N1361 H1367 0.985 . S
C1362 C1356 1.379 . S
C1362 C1359 1.363 . S
C1362 N1360 1.356 . S
C1363 C1357 1.363 . S
C1363 C1358 1.379 . S
C1363 N1361 1.356 . S
N1364 C1356 1.356 . S
N1364 H1370 0.984 . S
N1364 H1371 0.984 . S
N1365 C1358 1.356 . S
N1365 H1368 0.984 . S
N1365 H1369 0.985 . S
H1366 N1361 0.984 . S
H1367 N1361 0.985 . S
H1368 N1365 0.984 . S
H1369 N1365 0.985 . S
H1370 N1364 0.984 . S
H1371 N1364 0.984 . S
H1372 N1360 0.984 . S
H1373 N1360 0.985 . S
C1374 C1375 1.363 . S
C1374 C1380 1.379 . S
C1374 N1382 1.356 . S
C1375 C1374 1.363 . S
C1375 C1381 1.363 . S
C1376 C1377 1.363 . S
C1376 C1381 1.379 . S
C1376 N1383 1.356 . S
C1377 C1376 1.363 . S
C1377 C1380 1.363 . S
N1378 C1380 1.356 . S
N1378 H1390 0.984 . S
N1378 H1391 0.985 . S
N1379 C1381 1.356 . S
N1379 H1384 0.984 . S
N1379 H1385 0.985 . S
C1380 C1374 1.379 . S
C1380 C1377 1.363 . S
C1380 N1378 1.356 . S
C1381 C1375 1.363 . S
C1381 C1376 1.379 . S
C1381 N1379 1.356 . S
N1382 C1374 1.356 . S
N1382 H1388 0.984 . S
N1382 H1389 0.984 . S
N1383 C1376 1.356 . S
N1383 H1386 0.984 . S
N1383 H1387 0.985 . S
H1384 N1379 0.984 . S
H1385 N1379 0.985 . S
H1386 N1383 0.984 . S
H1387 N1383 0.985 . S
H1388 N1382 0.984 . S
H1389 N1382 0.984 . S
H1390 N1378 0.984 . S
H1391 N1378 0.985 . S
C1392 C1393 1.363 . S
C1392 C1398 1.379 . S
C1392 N1400 1.356 . S
C1393 C1392 1.363 . S
C1393 C1399 1.363 . S
C1394 C1395 1.363 . S
C1394 C1399 1.379 . S
C1394 N1401 1.356 1_655 S
C1395 C1394 1.363 . S
C1395 C1398 1.363 . S
N1396 C1398 1.356 . S
N1396 H1408 0.984 . S
N1396 H1409 0.985 . S
N1397 C1399 1.356 . S
N1397 H1402 0.984 . S
N1397 H1403 0.985 . S
C1398 C1392 1.379 . S
C1398 C1395 1.363 . S
C1398 N1396 1.356 . S
C1399 C1393 1.363 . S
C1399 C1394 1.379 . S
C1399 N1397 1.356 . S
N1400 C1392 1.356 . S
N1400 H1406 1.002 . S
N1400 H1407 0.984 . S
N1401 C1394 1.356 1_455 S
N1401 H1404 0.984 . S
N1401 H1405 0.985 . S
H1402 N1397 0.984 . S
H1403 N1397 0.985 . S
H1404 N1401 0.984 . S
H1405 N1401 0.985 . S
H1406 N1400 1.002 . S
H1407 N1400 0.984 . S
H1408 N1396 0.984 . S
H1409 N1396 0.985 . S
C1410 C1411 1.363 . S
C1410 C1416 1.379 . S
C1410 N1418 1.356 . S
C1411 C1410 1.363 . S
C1411 C1417 1.363 . S
C1412 C1413 1.363 . S
C1412 C1417 1.379 . S
C1412 N1419 1.356 . S
C1413 C1412 1.363 . S
C1413 C1416 1.363 . S
N1414 C1416 1.356 . S
N1414 H1426 0.984 . S
N1414 H1427 0.985 . S
N1415 C1417 1.356 . S
N1415 H1420 0.984 . S
N1415 H1421 0.985 . S
C1416 C1410 1.379 . S
C1416 C1413 1.363 . S
C1416 N1414 1.356 . S
C1417 C1411 1.363 . S
C1417 C1412 1.379 . S
C1417 N1415 1.356 . S
N1418 C1410 1.356 . S
N1418 H1424 0.984 . S
N1418 H1425 0.984 . S
N1419 C1412 1.356 . S
N1419 H1422 0.984 . S
N1419 H1423 0.985 . S
H1420 N1415 0.984 . S
H1421 N1415 0.985 . S
H1422 N1419 0.984 . S
H1423 N1419 0.985 . S
H1424 N1418 0.984 . S
H1425 N1418 0.984 . S
H1426 N1414 0.984 . S
H1427 N1414 0.985 . S
C1428 C1429 1.363 . S
C1428 C1434 1.379 . S
C1428 N1436 1.356 . S
C1429 C1428 1.363 . S
C1429 C1435 1.363 1_545 S
C1430 C1431 1.363 1_565 S
C1430 C1435 1.379 . S
C1430 N1437 1.356 . S
C1431 C1430 1.363 1_545 S
C1431 C1434 1.363 . S
N1432 C1434 1.356 . S
N1432 H1444 0.984 . S
N1432 H1445 0.985 . S
N1433 C1435 1.356 . S
N1433 H1438 0.984 . S
N1433 H1439 0.985 . S
C1434 C1428 1.379 . S
C1434 C1431 1.363 . S
C1434 N1432 1.356 . S
C1435 C1429 1.363 1_565 S
C1435 C1430 1.379 . S
C1435 N1433 1.356 . S
N1436 C1428 1.356 . S
N1436 H1442 0.984 . S
N1436 H1443 0.984 . S
N1437 C1430 1.356 . S
N1437 H1440 0.984 . S
N1437 H1441 0.985 . S
H1438 N1433 0.984 . S
H1439 N1433 0.985 . S
H1440 N1437 0.984 . S
H1441 N1437 0.985 . S
H1442 N1436 0.984 . S
H1443 N1436 0.984 . S
H1444 N1432 0.984 . S
H1445 N1432 0.985 . S
C1446 C1447 1.363 . S
C1446 C1452 1.379 . S
C1446 N1454 1.356 . S
C1447 C1446 1.363 . S
C1447 C1453 1.363 . S
C1448 C1449 1.363 . S
C1448 C1453 1.379 . S
C1448 N1455 1.356 . S
C1449 C1448 1.363 . S
C1449 C1452 1.363 . S
N1450 C1452 1.356 . S
N1450 H1462 0.984 . S
N1450 H1463 0.985 . S
N1451 C1453 1.356 . S
N1451 H1456 0.984 . S
N1451 H1457 0.985 . S
C1452 C1446 1.379 . S
C1452 C1449 1.363 . S
C1452 N1450 1.356 . S
C1453 C1447 1.363 . S
C1453 C1448 1.379 . S
C1453 N1451 1.356 . S
N1454 C1446 1.356 . S
N1454 H1460 0.984 . S
N1454 H1461 0.984 . S
N1455 C1448 1.356 . S
N1455 H1458 0.984 . S
N1455 H1459 0.985 . S
H1456 N1451 0.984 . S
H1457 N1451 0.985 . S
H1458 N1455 0.984 . S
H1459 N1455 0.985 . S
H1460 N1454 0.984 . S
H1461 N1454 0.984 . S
H1462 N1450 0.984 . S
H1463 N1450 0.985 . S
C1464 C1465 1.363 . S
C1464 C1470 1.379 . S
C1464 N1472 1.356 . S
C1465 C1464 1.363 . S
C1465 C1471 1.363 . S
C1466 C1467 1.363 . S
C1466 C1471 1.379 . S
C1466 N1473 1.356 1_645 S
C1467 C1466 1.363 . S
C1467 C1470 1.363 . S
N1468 C1470 1.356 . S
N1468 H1480 0.984 . S
N1468 H1481 0.985 . S
N1469 C1471 1.356 . S
N1469 H1474 0.984 . S
N1469 H1475 0.985 . S
C1470 C1464 1.379 . S
C1470 C1467 1.363 . S
C1470 N1468 1.356 . S
C1471 C1465 1.363 . S
C1471 C1466 1.379 . S
C1471 N1469 1.356 . S
N1472 C1464 1.356 . S
N1472 H1478 0.984 . S
N1472 H1479 0.984 . S
N1473 C1466 1.356 1_465 S
N1473 H1476 0.984 . S
N1473 H1477 0.985 . S
H1474 N1469 0.984 . S
H1475 N1469 0.985 . S
H1476 N1473 0.984 . S
H1477 N1473 0.985 . S
H1478 N1472 0.984 . S
H1479 N1472 0.984 . S
H1480 N1468 0.984 . S
H1481 N1468 0.985 . S
C1482 C1483 1.363 . S
C1482 C1488 1.379 . S
C1482 N1490 1.356 . S
C1483 C1482 1.363 . S
C1483 C1489 1.363 . S
C1484 C1485 1.363 . S
C1484 C1489 1.379 . S
C1484 N1491 1.356 . S
C1485 C1484 1.363 . S
C1485 C1488 1.363 . S
N1486 C1488 1.356 . S
N1486 H1498 0.984 . S
N1486 H1499 0.985 . S
N1487 C1489 1.356 . S
N1487 H1492 0.984 . S
N1487 H1493 0.985 . S
C1488 C1482 1.379 . S
C1488 C1485 1.363 . S
C1488 N1486 1.356 . S
C1489 C1483 1.363 . S
C1489 C1484 1.379 . S
C1489 N1487 1.356 . S
N1490 C1482 1.356 . S
N1490 H1496 0.984 . S
N1490 H1497 0.984 . S
N1491 C1484 1.356 . S
N1491 H1494 0.984 . S
N1491 H1495 0.985 . S
H1492 N1487 0.984 . S
H1493 N1487 0.985 . S
H1494 N1491 0.984 . S
H1495 N1491 0.985 . S
H1496 N1490 0.984 . S
H1497 N1490 0.984 . S
H1498 N1486 0.984 . S
H1499 N1486 0.985 . S
C1500 C1501 1.363 1_565 S
C1500 C1506 1.379 1_565 S
C1500 N1508 1.356 . S
C1501 C1500 1.363 1_545 S
C1501 C1507 1.363 . S
C1502 C1503 1.363 . S
C1502 C1507 1.379 . S
C1502 N1509 1.356 . S
C1503 C1502 1.363 . S
C1503 C1506 1.363 . S
N1504 C1506 1.356 . S
N1504 H1516 0.984 1_545 S
N1504 H1517 0.985 . S
N1505 C1507 1.356 . S
N1505 H1510 0.984 . S
N1505 H1511 0.985 . S
C1506 C1500 1.379 1_545 S
C1506 C1503 1.363 . S
C1506 N1504 1.356 . S
C1507 C1501 1.363 . S
C1507 C1502 1.379 . S
C1507 N1505 1.356 . S
N1508 C1500 1.356 . S
N1508 H1514 0.984 . S
N1508 H1515 0.984 . S
N1509 C1502 1.356 . S
N1509 H1512 0.984 . S
N1509 H1513 0.985 . S
H1510 N1505 0.984 . S
H1511 N1505 0.985 . S
H1512 N1509 0.984 . S
H1513 N1509 0.985 . S
H1514 N1508 0.984 . S
H1515 N1508 0.984 . S
H1516 N1504 0.984 1_565 S
H1517 N1504 0.985 . S
C1518 C1519 1.363 . S
C1518 C1524 1.379 . S
C1518 N1526 1.356 . S
C1519 C1518 1.363 . S
C1519 C1525 1.363 . S
C1520 C1521 1.363 . S
C1520 C1525 1.379 . S
C1520 N1527 1.356 . S
C1521 C1520 1.363 . S
C1521 C1524 1.363 . S
N1522 C1524 1.356 . S
N1522 H1534 0.984 . S
N1522 H1535 0.985 . S
N1523 C1525 1.356 . S
N1523 H1528 0.984 . S
N1523 H1529 0.985 . S
C1524 C1518 1.379 . S
C1524 C1521 1.363 . S
C1524 N1522 1.356 . S
C1525 C1519 1.363 . S
C1525 C1520 1.379 . S
C1525 N1523 1.356 . S
N1526 C1518 1.356 . S
N1526 H1532 0.984 . S
N1526 H1533 0.984 . S
N1527 C1520 1.356 . S
N1527 H1530 0.984 . S
N1527 H1531 0.985 . S
H1528 N1523 0.984 . S
H1529 N1523 0.985 . S
H1530 N1527 0.984 . S
H1531 N1527 0.985 . S
H1532 N1526 0.984 . S
H1533 N1526 0.984 . S
H1534 N1522 0.984 . S
H1535 N1522 0.985 . S
C1536 C1537 1.363 . S
C1536 C1542 1.379 . S
C1536 N1544 1.356 . S
C1537 C1536 1.363 . S
C1537 C1543 1.363 . S
C1538 C1539 1.363 . S
C1538 C1543 1.379 . S
C1538 N1545 1.358 1_554 S
C1539 C1538 1.363 . S
C1539 C1542 1.363 . S
N1540 C1542 1.356 1_545 S
N1540 H1552 0.984 . S
N1540 H1553 0.985 . S
N1541 C1543 1.356 1_556 S
N1541 H1546 0.984 . S
N1541 H1547 0.985 . S
C1542 C1536 1.379 . S
C1542 C1539 1.363 . S
C1542 N1540 1.356 1_565 S
C1543 C1537 1.363 . S
C1543 C1538 1.379 . S
C1543 N1541 1.356 1_554 S
N1544 C1536 1.356 . S
N1544 H1550 0.984 . S
N1544 H1551 0.984 . S
N1545 C1538 1.358 1_556 S
N1545 H1548 0.986 1_556 S
N1545 H1549 0.982 . S
H1546 N1541 0.984 . S
H1547 N1541 0.985 . S
H1548 N1545 0.986 1_554 S
H1549 N1545 0.982 . S
H1550 N1544 0.984 . S
H1551 N1544 0.984 . S
H1552 N1540 0.984 . S
H1553 N1540 0.985 . S
C1554 C1555 1.363 . S
C1554 C1560 1.379 . S
C1554 N1562 1.356 . S
C1555 C1554 1.363 . S
C1555 C1561 1.363 1_554 S
C1556 C1557 1.363 1_556 S
C1556 C1561 1.379 . S
C1556 N1563 1.356 . S
C1557 C1556 1.363 1_554 S
C1557 C1560 1.363 . S
N1558 C1560 1.356 . S
N1558 H1570 0.984 . S
N1558 H1571 0.985 . S
N1559 C1561 1.356 . S
N1559 H1564 0.984 . S
N1559 H1565 0.985 . S
C1560 C1554 1.379 . S
C1560 C1557 1.363 . S
C1560 N1558 1.356 . S
C1561 C1555 1.363 1_556 S
C1561 C1556 1.379 . S
C1561 N1559 1.356 . S
N1562 C1554 1.356 . S
N1562 H1568 0.984 . S
N1562 H1569 0.984 . S
N1563 C1556 1.356 . S
N1563 H1566 0.984 . S
N1563 H1567 0.985 . S
H1564 N1559 0.984 . S
H1565 N1559 0.985 . S
H1566 N1563 0.984 . S
H1567 N1563 0.985 . S
H1568 N1562 0.984 . S
H1569 N1562 0.984 . S
H1570 N1558 0.984 . S
H1571 N1558 0.985 . S
C1572 C1573 1.363 . S
C1572 C1578 1.379 . S
C1572 N1580 1.356 . S
C1573 C1572 1.363 . S
C1573 C1579 1.363 . S
C1574 C1575 1.363 . S
C1574 C1579 1.379 . S
C1574 N1581 1.356 . S
C1575 C1574 1.363 . S
C1575 C1578 1.363 . S
N1576 C1578 1.356 . S
N1576 H1588 0.984 . S
N1576 H1589 0.985 . S
N1577 C1579 1.356 . S
N1577 H1582 0.984 . S
N1577 H1583 0.985 . S
C1578 C1572 1.379 . S
C1578 C1575 1.363 . S
C1578 N1576 1.356 . S
C1579 C1573 1.363 . S
C1579 C1574 1.379 . S
C1579 N1577 1.356 . S
N1580 C1572 1.356 . S
N1580 H1586 0.984 . S
N1580 H1587 0.984 . S
N1581 C1574 1.356 . S
N1581 H1584 0.984 . S
N1581 H1585 0.985 . S
H1582 N1577 0.984 . S
H1583 N1577 0.985 . S
H1584 N1581 0.984 . S
H1585 N1581 0.985 . S
H1586 N1580 0.984 . S
H1587 N1580 0.984 . S
H1588 N1576 0.984 . S
H1589 N1576 0.985 . S
C1590 C1591 1.363 . S
C1590 C1596 1.379 . S
C1590 N1598 1.356 . S
C1591 C1590 1.363 . S
C1591 C1597 1.363 . S
C1592 C1593 1.363 . S
C1592 C1597 1.379 . S
C1592 N1599 1.356 . S
C1593 C1592 1.363 . S
C1593 C1596 1.363 . S
N1594 C1596 1.356 . S
N1594 H1606 0.984 . S
N1594 H1607 0.985 . S
N1595 C1597 1.356 . S
N1595 H1600 0.984 . S
N1595 H1601 0.985 . S
C1596 C1590 1.379 . S
C1596 C1593 1.363 . S
C1596 N1594 1.356 . S
C1597 C1591 1.363 . S
C1597 C1592 1.379 . S
C1597 N1595 1.356 . S
N1598 C1590 1.356 . S
N1598 H1604 0.984 . S
N1598 H1605 0.984 . S
N1599 C1592 1.356 . S
N1599 H1602 0.984 . S
N1599 H1603 0.985 . S
H1600 N1595 0.984 . S
H1601 N1595 0.985 . S
H1602 N1599 0.984 . S
H1603 N1599 0.985 . S
H1604 N1598 0.984 . S
H1605 N1598 0.984 . S
H1606 N1594 0.984 . S
H1607 N1594 0.985 . S
C1608 C1609 1.363 . S
C1608 C1614 1.379 . S
C1608 N1616 1.356 . S
C1609 C1608 1.363 . S
C1609 C1615 1.363 . S
C1610 C1611 1.363 . S
C1610 C1615 1.379 . S
C1610 N1617 1.356 . S
C1611 C1610 1.363 . S
C1611 C1614 1.363 . S
N1612 C1614 1.356 . S
N1612 H1624 0.984 . S
N1612 H1625 0.985 . S
N1613 C1615 1.356 1_545 S
N1613 H1618 0.984 . S
N1613 H1619 0.985 . S
C1614 C1608 1.379 . S
C1614 C1611 1.363 . S
C1614 N1612 1.356 . S
C1615 C1609 1.363 . S
C1615 C1610 1.379 . S
C1615 N1613 1.356 1_565 S
N1616 C1608 1.356 . S
N1616 H1622 0.984 . S
N1616 H1623 0.984 1_565 S
N1617 C1610 1.356 . S
N1617 H1620 0.984 . S
N1617 H1621 0.985 . S
H1618 N1613 0.984 . S
H1619 N1613 0.985 . S
H1620 N1617 0.984 . S
H1621 N1617 0.985 . S
H1622 N1616 0.984 . S
H1623 N1616 0.984 1_545 S
H1624 N1612 0.984 . S
H1625 N1612 0.985 . S
C1626 C1627 1.363 . S
C1626 C1632 1.379 . S
C1626 N1634 1.356 . S
C1627 C1626 1.363 . S
C1627 C1633 1.363 . S
C1628 C1629 1.363 . S
C1628 C1633 1.379 . S
C1628 N1635 1.356 . S
C1629 C1628 1.363 . S
C1629 C1632 1.363 . S
N1630 C1632 1.356 . S
N1630 H1642 0.984 . S
N1630 H1643 0.985 . S
N1631 C1633 1.356 . S
N1631 H1636 0.984 . S
N1631 H1637 0.985 . S
C1632 C1626 1.379 . S
C1632 C1629 1.363 . S
C1632 N1630 1.356 . S
C1633 C1627 1.363 . S
C1633 C1628 1.379 . S
C1633 N1631 1.356 . S
N1634 C1626 1.356 . S
N1634 H1640 0.984 . S
N1634 H1641 0.984 . S
N1635 C1628 1.356 . S
N1635 H1638 0.984 . S
N1635 H1639 0.985 . S
H1636 N1631 0.984 . S
H1637 N1631 0.985 . S
H1638 N1635 0.984 . S
H1639 N1635 0.985 . S
H1640 N1634 0.984 . S
H1641 N1634 0.984 . S
H1642 N1630 0.984 . S
H1643 N1630 0.985 . S
C1644 C1645 1.363 . S
C1644 C1650 1.379 . S
C1644 N1652 1.356 . S
C1645 C1644 1.363 . S
C1645 C1651 1.363 . S
C1646 C1647 1.363 . S
C1646 C1651 1.379 . S
C1646 N1653 1.356 . S
C1647 C1646 1.363 . S
C1647 C1650 1.363 . S
N1648 C1650 1.356 . S
N1648 H1660 0.984 . S
N1648 H1661 0.985 . S
N1649 C1651 1.356 . S
N1649 H1654 0.984 . S
N1649 H1655 0.985 . S
C1650 C1644 1.379 . S
C1650 C1647 1.363 . S
C1650 N1648 1.356 . S
C1651 C1645 1.363 . S
C1651 C1646 1.379 . S
C1651 N1649 1.356 . S
N1652 C1644 1.356 . S
N1652 H1658 0.984 . S
N1652 H1659 0.984 . S
N1653 C1646 1.356 . S
N1653 H1656 0.984 . S
N1653 H1657 0.985 . S
H1654 N1649 0.984 . S
H1655 N1649 0.985 . S
H1656 N1653 0.984 . S
H1657 N1653 0.985 . S
H1658 N1652 0.984 . S
H1659 N1652 0.984 . S
H1660 N1648 0.984 . S
H1661 N1648 0.985 . S
C1662 C1663 1.363 . S
C1662 C1668 1.379 . S
C1662 N1670 1.356 . S
C1663 C1662 1.363 . S
C1663 C1669 1.363 . S
C1664 C1665 1.363 . S
C1664 C1669 1.379 . S
C1664 N1671 1.356 . S
C1665 C1664 1.363 . S
C1665 C1668 1.363 . S
N1666 C1668 1.356 . S
N1666 H1678 0.984 . S
N1666 H1679 0.985 . S
N1667 C1669 1.356 . S
N1667 H1672 0.984 . S
N1667 H1673 0.985 . S
C1668 C1662 1.379 . S
C1668 C1665 1.363 . S
C1668 N1666 1.356 . S
C1669 C1663 1.363 . S
C1669 C1664 1.379 . S
C1669 N1667 1.356 . S
N1670 C1662 1.356 . S
N1670 H1676 0.984 . S
N1670 H1677 0.984 . S
N1671 C1664 1.356 . S
N1671 H1674 0.984 . S
N1671 H1675 0.985 . S
H1672 N1667 0.984 . S
H1673 N1667 0.985 . S
H1674 N1671 0.984 . S
H1675 N1671 0.985 . S
H1676 N1670 0.984 . S
H1677 N1670 0.984 . S
H1678 N1666 0.984 . S
H1679 N1666 0.985 . S
C1680 C1681 1.363 . S
C1680 C1686 1.379 . S
C1680 N1688 1.356 . S
C1681 C1680 1.363 . S
C1681 C1687 1.363 . S
C1682 C1683 1.363 . S
C1682 C1687 1.379 . S
C1682 N1689 1.356 . S
C1683 C1682 1.363 . S
C1683 C1686 1.363 . S
N1684 C1686 1.356 . S
N1684 H1696 0.984 . S
N1684 H1697 0.985 . S
N1685 C1687 1.356 . S
N1685 H1690 0.984 . S
N1685 H1691 0.985 . S
C1686 C1680 1.379 . S
C1686 C1683 1.363 . S
C1686 N1684 1.356 . S
C1687 C1681 1.363 . S
C1687 C1682 1.379 . S
C1687 N1685 1.356 . S
N1688 C1680 1.356 . S
N1688 H1694 0.984 . S
N1688 H1695 0.984 . S
N1689 C1682 1.356 . S
N1689 H1692 0.984 . S
N1689 H1693 0.985 . S
H1690 N1685 0.984 . S
H1691 N1685 0.985 . S
H1692 N1689 0.984 . S
H1693 N1689 0.985 . S
H1694 N1688 0.984 . S
H1695 N1688 0.984 . S
H1696 N1684 0.984 . S
H1697 N1684 0.985 . S
C1698 C1699 1.363 . S
C1698 C1704 1.379 . S
C1698 N1706 1.356 . S
C1699 C1698 1.363 . S
C1699 C1705 1.363 . S
C1700 C1701 1.363 . S
C1700 C1705 1.379 . S
C1700 N1707 1.356 . S
C1701 C1700 1.363 . S
C1701 C1704 1.363 . S
N1702 C1704 1.356 . S
N1702 H1714 0.984 . S
N1702 H1715 0.985 . S
N1703 C1705 1.356 . S
N1703 H1708 0.984 . S
N1703 H1709 0.985 . S
C1704 C1698 1.379 . S
C1704 C1701 1.363 . S
C1704 N1702 1.356 . S
C1705 C1699 1.363 . S
C1705 C1700 1.379 . S
C1705 N1703 1.356 . S
N1706 C1698 1.356 . S
N1706 H1712 0.984 . S
N1706 H1713 0.984 . S
N1707 C1700 1.356 . S
N1707 H1710 0.984 . S
N1707 H1711 0.985 . S
H1708 N1703 0.984 . S
H1709 N1703 0.985 . S
H1710 N1707 0.984 . S
H1711 N1707 0.985 . S
H1712 N1706 0.984 . S
H1713 N1706 0.984 . S
H1714 N1702 0.984 . S
H1715 N1702 0.985 . S
C1716 C1717 1.363 . S
C1716 C1722 1.379 . S
C1716 N1724 1.356 . S
C1717 C1716 1.363 . S
C1717 C1723 1.363 . S
C1718 C1719 1.363 . S
C1718 C1723 1.379 . S
C1718 N1725 1.356 . S
C1719 C1718 1.363 . S
C1719 C1722 1.363 . S
N1720 C1722 1.356 . S
N1720 H1732 0.984 . S
N1720 H1733 0.985 . S
N1721 C1723 1.356 . S
N1721 H1726 0.984 . S
N1721 H1727 0.985 . S
C1722 C1716 1.379 . S
C1722 C1719 1.363 . S
C1722 N1720 1.356 . S
C1723 C1717 1.363 . S
C1723 C1718 1.379 . S
C1723 N1721 1.356 . S
N1724 C1716 1.356 . S
N1724 H1730 0.984 . S
N1724 H1731 0.984 . S
N1725 C1718 1.356 . S
N1725 H1728 0.984 . S
N1725 H1729 0.985 . S
H1726 N1721 0.984 . S
H1727 N1721 0.985 . S
H1728 N1725 0.984 . S
H1729 N1725 0.985 . S
H1730 N1724 0.984 . S
H1731 N1724 0.984 . S
H1732 N1720 0.984 . S
H1733 N1720 0.985 . S
C1734 C1735 1.363 . S
C1734 C1740 1.379 . S
C1734 N1742 1.356 1_655 S
C1735 C1734 1.363 . S
C1735 C1741 1.363 . S
C1736 C1737 1.363 . S
C1736 C1741 1.379 . S
C1736 N1743 1.356 . S
C1737 C1736 1.363 . S
C1737 C1740 1.363 . S
N1738 C1740 1.356 . S
N1738 H1750 0.984 . S
N1738 H1751 0.985 . S
N1739 C1741 1.356 . S
N1739 H1744 0.984 . S
N1739 H1745 0.985 . S
C1740 C1734 1.379 . S
C1740 C1737 1.363 . S
C1740 N1738 1.356 . S
C1741 C1735 1.363 . S
C1741 C1736 1.379 . S
C1741 N1739 1.356 . S
N1742 C1734 1.356 1_455 S
N1742 H1748 0.984 . S
N1742 H1749 0.984 . S
N1743 C1736 1.356 . S
N1743 H1746 0.984 . S
N1743 H1747 0.985 . S
H1744 N1739 0.984 . S
H1745 N1739 0.985 . S
H1746 N1743 0.984 . S
H1747 N1743 0.985 . S
H1748 N1742 0.984 . S
H1749 N1742 0.984 . S
H1750 N1738 0.984 . S
H1751 N1738 0.985 . S
C1752 C1753 1.363 . S
C1752 C1758 1.379 . S
C1752 N1760 1.356 . S
C1753 C1752 1.363 . S
C1753 C1759 1.363 . S
C1754 C1755 1.363 . S
C1754 C1759 1.379 . S
C1754 N1761 1.356 . S
C1755 C1754 1.363 . S
C1755 C1758 1.363 . S
N1756 C1758 1.356 1_554 S
N1756 H1768 0.984 . S
N1756 H1769 0.985 . S
N1757 C1759 1.356 . S
N1757 H1762 0.984 . S
N1757 H1763 0.985 . S
C1758 C1752 1.379 . S
C1758 C1755 1.363 . S
C1758 N1756 1.356 1_556 S
C1759 C1753 1.363 . S
C1759 C1754 1.379 . S
C1759 N1757 1.356 . S
N1760 C1752 1.356 . S
N1760 H1766 0.984 . S
N1760 H1767 0.984 . S
N1761 C1754 1.356 . S
N1761 H1764 0.984 . S
N1761 H1765 0.985 . S
H1762 N1757 0.984 . S
H1763 N1757 0.985 . S
H1764 N1761 0.984 . S
H1765 N1761 0.985 . S
H1766 N1760 0.984 . S
H1767 N1760 0.984 . S
H1768 N1756 0.984 . S
H1769 N1756 0.985 . S
C1770 C1771 1.363 . S
C1770 C1776 1.379 . S
C1770 N1778 1.356 . S
C1771 C1770 1.363 . S
C1771 C1777 1.363 . S
C1772 C1773 1.363 . S
C1772 C1777 1.379 . S
C1772 N1779 1.356 . S
C1773 C1772 1.363 . S
C1773 C1776 1.363 . S
N1774 C1776 1.356 . S
N1774 H1786 0.984 . S
N1774 H1787 0.985 . S
N1775 C1777 1.356 . S
N1775 H1780 0.984 . S
N1775 H1781 0.985 . S
C1776 C1770 1.379 . S
C1776 C1773 1.363 . S
C1776 N1774 1.356 . S
C1777 C1771 1.363 . S
C1777 C1772 1.379 . S
C1777 N1775 1.356 . S
N1778 C1770 1.356 . S
N1778 H1784 0.984 . S
N1778 H1785 0.984 . S
N1779 C1772 1.356 . S
N1779 H1782 0.984 . S
N1779 H1783 0.985 . S
H1780 N1775 0.984 . S
H1781 N1775 0.985 . S
H1782 N1779 0.984 . S
H1783 N1779 0.985 . S
H1784 N1778 0.984 . S
H1785 N1778 0.984 . S
H1786 N1774 0.984 . S
H1787 N1774 0.985 . S
C1788 C1789 1.363 . S
C1788 C1794 1.379 . S
C1788 N1796 1.356 . S
C1789 C1788 1.363 . S
C1789 C1795 1.363 . S
C1790 C1791 1.363 . S
C1790 C1795 1.379 . S
C1790 N1797 1.356 . S
C1791 C1790 1.363 . S
C1791 C1794 1.363 . S
N1792 C1794 1.356 . S
N1792 H1804 0.984 . S
N1792 H1805 0.985 . S
N1793 C1795 1.356 . S
N1793 H1798 0.984 . S
N1793 H1799 0.985 . S
C1794 C1788 1.379 . S
C1794 C1791 1.363 . S
C1794 N1792 1.356 . S
C1795 C1789 1.363 . S
C1795 C1790 1.379 . S
C1795 N1793 1.356 . S
N1796 C1788 1.356 . S
N1796 H1802 0.984 . S
N1796 H1803 0.984 . S
N1797 C1790 1.356 . S
N1797 H1800 0.984 . S
N1797 H1801 0.985 . S
H1798 N1793 0.984 . S
H1799 N1793 0.985 . S
H1800 N1797 0.984 . S
H1801 N1797 0.985 . S
H1802 N1796 0.984 . S
H1803 N1796 0.984 . S
H1804 N1792 0.984 . S
H1805 N1792 0.985 . S
C1806 C1807 1.363 . S
C1806 C1812 1.379 . S
C1806 N1814 1.356 . S
C1807 C1806 1.363 . S
C1807 C1813 1.363 . S
C1808 C1809 1.363 . S
C1808 C1813 1.379 . S
C1808 N1815 1.356 . S
C1809 C1808 1.363 . S
C1809 C1812 1.363 . S
N1810 C1812 1.356 . S
N1810 H1822 0.984 . S
N1810 H1823 0.985 . S
N1811 C1813 1.356 . S
N1811 H1816 0.984 . S
N1811 H1817 0.985 . S
C1812 C1806 1.379 . S
C1812 C1809 1.363 . S
C1812 N1810 1.356 . S
C1813 C1807 1.363 . S
C1813 C1808 1.379 . S
C1813 N1811 1.356 . S
N1814 C1806 1.356 . S
N1814 H1820 0.984 . S
N1814 H1821 0.984 . S
N1815 C1808 1.356 . S
N1815 H1818 0.984 . S
N1815 H1819 0.985 . S
H1816 N1811 0.984 . S
H1817 N1811 0.985 . S
H1818 N1815 0.984 . S
H1819 N1815 0.985 . S
H1820 N1814 0.984 . S
H1821 N1814 0.984 . S
H1822 N1810 0.984 . S
H1823 N1810 0.985 . S
C1824 C1825 1.363 . S
C1824 C1830 1.379 . S
C1824 N1832 1.356 . S
C1825 C1824 1.363 . S
C1825 C1831 1.363 . S
C1826 C1827 1.363 . S
C1826 C1831 1.379 . S
C1826 N1833 1.356 . S
C1827 C1826 1.363 . S
C1827 C1830 1.363 . S
N1828 C1830 1.356 . S
N1828 H1840 0.984 . S
N1828 H1841 0.985 . S
N1829 C1831 1.356 . S
N1829 H1834 0.984 . S
N1829 H1835 0.985 . S
C1830 C1824 1.379 . S
C1830 C1827 1.363 . S
C1830 N1828 1.356 . S
C1831 C1825 1.363 . S
C1831 C1826 1.379 . S
C1831 N1829 1.356 . S
N1832 C1824 1.356 . S
N1832 H1838 0.984 . S
N1832 H1839 0.984 . S
N1833 C1826 1.356 . S
N1833 H1836 0.984 . S
N1833 H1837 0.985 . S
H1834 N1829 0.984 . S
H1835 N1829 0.985 . S
H1836 N1833 0.984 . S
H1837 N1833 0.985 . S
H1838 N1832 0.984 . S
H1839 N1832 0.984 . S
H1840 N1828 0.984 . S
H1841 N1828 0.985 . S
C1842 C1843 1.363 . S
C1842 C1848 1.379 . S
C1842 N1850 1.356 . S
C1843 C1842 1.363 . S
C1843 C1849 1.363 . S
C1844 C1845 1.363 . S
C1844 C1849 1.379 . S
C1844 N1851 1.356 . S
C1845 C1844 1.363 . S
C1845 C1848 1.363 . S
N1846 C1848 1.356 . S
N1846 H1858 0.984 . S
N1846 H1859 0.985 . S
N1847 C1849 1.356 1_554 S
N1847 H1852 0.984 . S
N1847 H1853 0.985 . S
C1848 C1842 1.379 . S
C1848 C1845 1.363 . S
C1848 N1846 1.356 . S
C1849 C1843 1.363 . S
C1849 C1844 1.379 . S
C1849 N1847 1.356 1_556 S
N1850 C1842 1.356 . S
N1850 H1856 0.984 . S
N1850 H1857 0.984 . S
N1851 C1844 1.356 . S
N1851 H1854 0.984 . S
N1851 H1855 0.985 . S
H1852 N1847 0.984 . S
H1853 N1847 0.985 . S
H1854 N1851 0.984 . S
H1855 N1851 0.985 . S
H1856 N1850 0.984 . S
H1857 N1850 0.984 . S
H1858 N1846 0.984 . S
H1859 N1846 0.985 . S
C1860 C1861 1.363 . S
C1860 C1866 1.379 . S
C1860 N1868 1.356 . S
C1861 C1860 1.363 . S
C1861 C1867 1.363 . S
C1862 C1863 1.364 . S
C1862 C1867 1.382 . S
C1862 N1869 1.352 1_655 S
C1863 C1862 1.364 . S
C1863 C1866 1.363 . S
N1864 C1866 1.356 . S
N1864 H1876 0.984 . S
N1864 H1877 0.985 . S
N1865 C1867 1.356 . S
N1865 H1870 0.984 . S
N1865 H1871 0.985 . S
C1866 C1860 1.379 . S
C1866 C1863 1.363 . S
C1866 N1864 1.356 . S
C1867 C1861 1.363 . S
C1867 C1862 1.382 . S
C1867 N1865 1.356 . S
N1868 C1860 1.356 . S
N1868 H1874 0.984 . S
N1868 H1875 0.984 . S
N1869 C1862 1.352 1_455 S
N1869 H1872 0.984 . S
N1869 H1873 0.985 . S
H1870 N1865 0.984 . S
H1871 N1865 0.985 . S
H1872 N1869 0.984 . S
H1873 N1869 0.985 . S
H1874 N1868 0.984 . S
H1875 N1868 0.984 . S
H1876 N1864 0.984 . S
H1877 N1864 0.985 . S
C1878 C1879 1.363 . S
C1878 C1884 1.379 . S
C1878 N1886 1.356 . S
C1879 C1878 1.363 . S
C1879 C1885 1.363 . S
C1880 C1881 1.363 . S
C1880 C1885 1.379 . S
C1880 N1887 1.356 . S
C1881 C1880 1.363 . S
C1881 C1884 1.363 . S
N1882 C1884 1.356 . S
N1882 H1894 0.984 . S
N1882 H1895 0.985 . S
N1883 C1885 1.356 . S
N1883 H1888 0.984 . S
N1883 H1889 0.985 . S
C1884 C1878 1.379 . S
C1884 C1881 1.363 . S
C1884 N1882 1.356 . S
C1885 C1879 1.363 . S
C1885 C1880 1.379 . S
C1885 N1883 1.356 . S
N1886 C1878 1.356 . S
N1886 H1892 0.984 . S
N1886 H1893 0.984 . S
N1887 C1880 1.356 . S
N1887 H1890 0.984 . S
N1887 H1891 0.985 . S
H1888 N1883 0.984 . S
H1889 N1883 0.985 . S
H1890 N1887 0.984 . S
H1891 N1887 0.985 . S
H1892 N1886 0.984 . S
H1893 N1886 0.984 . S
H1894 N1882 0.984 . S
H1895 N1882 0.985 . S
C1896 C1897 1.363 . S
C1896 C1902 1.379 . S
C1896 N1904 1.356 . S
C1897 C1896 1.363 . S
C1897 C1903 1.363 . S
C1898 C1899 1.363 . S
C1898 C1903 1.379 . S
C1898 N1905 1.356 . S
C1899 C1898 1.363 . S
C1899 C1902 1.363 . S
N1900 C1902 1.356 . S
N1900 H1912 0.984 . S
N1900 H1913 0.985 . S
N1901 C1903 1.356 . S
N1901 H1906 0.984 . S
N1901 H1907 0.985 . S
C1902 C1896 1.379 . S
C1902 C1899 1.363 . S
C1902 N1900 1.356 . S
C1903 C1897 1.363 . S
C1903 C1898 1.379 . S
C1903 N1901 1.356 . S
N1904 C1896 1.356 . S
N1904 H1910 0.984 . S
N1904 H1911 0.984 . S
N1905 C1898 1.356 . S
N1905 H1908 0.984 . S
N1905 H1909 0.985 . S
H1906 N1901 0.984 . S
H1907 N1901 0.985 . S
H1908 N1905 0.984 . S
H1909 N1905 0.985 . S
H1910 N1904 0.984 . S
H1911 N1904 0.984 . S
H1912 N1900 0.984 . S
H1913 N1900 0.985 . S
C1914 C1915 1.363 . S
C1914 C1920 1.379 . S
C1914 N1922 1.356 . S
C1915 C1914 1.363 . S
C1915 C1921 1.363 . S
C1916 C1917 1.363 . S
C1916 C1921 1.379 . S
C1916 N1923 1.356 . S
C1917 C1916 1.363 . S
C1917 C1920 1.363 . S
N1918 C1920 1.356 . S
N1918 H1930 0.984 . S
N1918 H1931 0.985 . S
N1919 C1921 1.356 . S
N1919 H1924 0.984 . S
N1919 H1925 0.985 . S
C1920 C1914 1.379 . S
C1920 C1917 1.363 . S
C1920 N1918 1.356 . S
C1921 C1915 1.363 . S
C1921 C1916 1.379 . S
C1921 N1919 1.356 . S
N1922 C1914 1.356 . S
N1922 H1928 0.984 . S
N1922 H1929 0.984 . S
N1923 C1916 1.356 . S
N1923 H1926 0.984 . S
N1923 H1927 0.985 . S
H1924 N1919 0.984 . S
H1925 N1919 0.985 . S
H1926 N1923 0.984 . S
H1927 N1923 0.985 . S
H1928 N1922 0.984 . S
H1929 N1922 0.984 . S
H1930 N1918 0.984 . S
H1931 N1918 0.985 . S
C1932 C1933 1.363 . S
C1932 C1938 1.379 . S
C1932 N1940 1.356 . S
C1933 C1932 1.363 . S
C1933 C1939 1.363 . S
C1934 C1935 1.363 . S
C1934 C1939 1.379 . S
C1934 N1941 1.356 . S
C1935 C1934 1.363 . S
C1935 C1938 1.363 . S
N1936 C1938 1.356 . S
N1936 H1948 0.984 . S
N1936 H1949 0.985 . S
N1937 C1939 1.356 . S
N1937 H1942 0.984 . S
N1937 H1943 0.985 . S
C1938 C1932 1.379 . S
C1938 C1935 1.363 . S
C1938 N1936 1.356 . S
C1939 C1933 1.363 . S
C1939 C1934 1.379 . S
C1939 N1937 1.356 . S
N1940 C1932 1.356 . S
N1940 H1946 0.984 . S
N1940 H1947 0.984 . S
N1941 C1934 1.356 . S
N1941 H1944 0.984 . S
N1941 H1945 0.985 . S
H1942 N1937 0.984 . S
H1943 N1937 0.985 . S
H1944 N1941 0.984 . S
H1945 N1941 0.985 . S
H1946 N1940 0.984 . S
H1947 N1940 0.984 . S
H1948 N1936 0.984 . S
H1949 N1936 0.985 . S
C1950 C1951 1.363 . S
C1950 C1956 1.379 . S
C1950 N1958 1.356 . S
C1951 C1950 1.363 . S
C1951 C1957 1.363 . S
C1952 C1953 1.363 . S
C1952 C1957 1.379 . S
C1952 N1959 1.356 . S
C1953 C1952 1.363 . S
C1953 C1956 1.363 . S
N1954 C1956 1.356 . S
N1954 H1966 0.984 . S
N1954 H1967 0.985 . S
N1955 C1957 1.356 . S
N1955 H1960 0.984 . S
N1955 H1961 0.985 . S
C1956 C1950 1.379 . S
C1956 C1953 1.363 . S
C1956 N1954 1.356 . S
C1957 C1951 1.363 . S
C1957 C1952 1.379 . S
C1957 N1955 1.356 . S
N1958 C1950 1.356 . S
N1958 H1964 0.984 . S
N1958 H1965 0.984 . S
N1959 C1952 1.356 . S
N1959 H1962 0.984 . S
N1959 H1963 0.985 . S
H1960 N1955 0.984 . S
H1961 N1955 0.985 . S
H1962 N1959 0.984 . S
H1963 N1959 0.985 . S
H1964 N1958 0.984 . S
H1965 N1958 0.984 . S
H1966 N1954 0.984 . S
H1967 N1954 0.985 . S
C1968 C1969 1.363 . S
C1968 C1974 1.379 . S
C1968 N1976 1.356 . S
C1969 C1968 1.363 . S
C1969 C1975 1.363 . S
C1970 C1971 1.363 . S
C1970 C1975 1.379 . S
C1970 N1977 1.356 . S
C1971 C1970 1.363 . S
C1971 C1974 1.363 . S
N1972 C1974 1.356 . S
N1972 H1984 0.984 . S
N1972 H1985 0.985 . S
N1973 C1975 1.356 . S
N1973 H1978 0.984 . S
N1973 H1979 0.985 . S
C1974 C1968 1.379 . S
C1974 C1971 1.363 . S
C1974 N1972 1.356 . S
C1975 C1969 1.363 . S
C1975 C1970 1.379 . S
C1975 N1973 1.356 . S
N1976 C1968 1.356 . S
N1976 H1982 0.984 . S
N1976 H1983 0.984 . S
N1977 C1970 1.356 . S
N1977 H1980 0.984 . S
N1977 H1981 0.985 . S
H1978 N1973 0.984 . S
H1979 N1973 0.985 . S
H1980 N1977 0.984 . S
H1981 N1977 0.985 . S
H1982 N1976 0.984 . S
H1983 N1976 0.984 . S
H1984 N1972 0.984 . S
H1985 N1972 0.985 . S
C1986 C1987 1.363 . S
C1986 C1992 1.379 . S
C1986 N1994 1.356 . S
C1987 C1986 1.363 . S
C1987 C1993 1.363 . S
C1988 C1989 1.363 . S
C1988 C1993 1.379 . S
C1988 N1995 1.356 . S
C1989 C1988 1.363 . S
C1989 C1992 1.363 . S
N1990 C1992 1.356 1_545 S
N1990 H2002 0.984 . S
N1990 H2003 0.985 . S
N1991 C1993 1.356 . S
N1991 H1996 0.984 . S
N1991 H1997 0.985 . S
C1992 C1986 1.379 . S
C1992 C1989 1.363 . S
C1992 N1990 1.356 1_565 S
C1993 C1987 1.363 . S
C1993 C1988 1.379 . S
C1993 N1991 1.356 . S
N1994 C1986 1.356 . S
N1994 H2000 0.984 . S
N1994 H2001 0.984 . S
N1995 C1988 1.356 . S
N1995 H1998 0.984 . S
N1995 H1999 0.985 . S
H1996 N1991 0.984 . S
H1997 N1991 0.985 . S
H1998 N1995 0.984 . S
H1999 N1995 0.985 . S
H2000 N1994 0.984 . S
H2001 N1994 0.984 . S
H2002 N1990 0.984 . S
H2003 N1990 0.985 . S
C2004 C2005 1.363 . S
C2004 C2010 1.379 . S
C2004 N2012 1.356 . S
C2005 C2004 1.363 . S
C2005 C2011 1.363 . S
C2006 C2007 1.363 . S
C2006 C2011 1.379 . S
C2006 N2013 1.356 . S
C2007 C2006 1.363 . S
C2007 C2010 1.363 . S
N2008 C2010 1.356 . S
N2008 H2020 0.984 . S
N2008 H2021 0.985 . S
N2009 C2011 1.356 . S
N2009 H2014 0.984 1_565 S
N2009 H2015 0.985 . S
C2010 C2004 1.379 . S
C2010 C2007 1.363 . S
C2010 N2008 1.356 . S
C2011 C2005 1.363 . S
C2011 C2006 1.379 . S
C2011 N2009 1.356 . S
N2012 C2004 1.356 . S
N2012 H2018 0.984 . S
N2012 H2019 0.984 1_565 S
N2013 C2006 1.356 . S
N2013 H2016 0.984 . S
N2013 H2017 0.985 . S
H2014 N2009 0.984 1_545 S
H2015 N2009 0.985 . S
H2016 N2013 0.984 . S
H2017 N2013 0.985 . S
H2018 N2012 0.984 . S
H2019 N2012 0.984 1_545 S
H2020 N2008 0.984 . S
H2021 N2008 0.985 . S
C2022 C2023 1.363 . S
C2022 C2028 1.379 . S
C2022 N2030 1.356 . S
C2023 C2022 1.363 . S
C2023 C2029 1.363 . S
C2024 C2025 1.363 . S
C2024 C2029 1.379 . S
C2024 N2031 1.356 . S
C2025 C2024 1.363 . S
C2025 C2028 1.363 . S
N2026 C2028 1.356 . S
N2026 H2038 0.984 . S
N2026 H2039 0.985 . S
N2027 C2029 1.356 . S
N2027 H2032 0.984 . S
N2027 H2033 0.985 1_554 S
C2028 C2022 1.379 . S
C2028 C2025 1.363 . S
C2028 N2026 1.356 . S
C2029 C2023 1.363 . S
C2029 C2024 1.379 . S
C2029 N2027 1.356 . S
N2030 C2022 1.356 . S
N2030 H2036 0.984 . S
N2030 H2037 0.984 . S
N2031 C2024 1.356 . S
N2031 H2034 0.984 . S
N2031 H2035 0.985 . S
H2032 N2027 0.984 . S
H2033 N2027 0.985 1_556 S
H2034 N2031 0.984 . S
H2035 N2031 0.985 . S
H2036 N2030 0.984 . S
H2037 N2030 0.984 . S
H2038 N2026 0.984 . S
H2039 N2026 0.985 . S
C2040 C2041 1.363 . S
C2040 C2046 1.379 . S
C2040 N2048 1.356 . S
C2041 C2040 1.363 . S
C2041 C2047 1.363 . S
C2042 C2043 1.363 . S
C2042 C2047 1.379 . S
C2042 N2049 1.356 . S
C2043 C2042 1.363 . S
C2043 C2046 1.363 . S
N2044 C2046 1.356 . S
N2044 H2056 0.984 . S
N2044 H2057 0.985 . S
N2045 C2047 1.356 . S
N2045 H2050 0.984 . S
N2045 H2051 0.985 . S
C2046 C2040 1.379 . S
C2046 C2043 1.363 . S
C2046 N2044 1.356 . S
C2047 C2041 1.363 . S
C2047 C2042 1.379 . S
C2047 N2045 1.356 . S
N2048 C2040 1.356 . S
N2048 H2054 0.984 . S
N2048 H2055 0.984 . S
N2049 C2042 1.356 . S
N2049 H2052 0.984 . S
N2049 H2053 0.985 . S
H2050 N2045 0.984 . S
H2051 N2045 0.985 . S
H2052 N2049 0.984 . S
H2053 N2049 0.985 . S
H2054 N2048 0.984 . S
H2055 N2048 0.984 . S
H2056 N2044 0.984 . S
H2057 N2044 0.985 . S
C2058 C2059 1.363 . S
C2058 C2064 1.379 . S
C2058 N2066 1.356 . S
C2059 C2058 1.363 . S
C2059 C2065 1.363 . S
C2060 C2061 1.363 . S
C2060 C2065 1.379 . S
C2060 N2067 1.356 . S
C2061 C2060 1.363 . S
C2061 C2064 1.363 . S
N2062 C2064 1.356 . S
N2062 H2074 0.984 . S
N2062 H2075 0.985 . S
N2063 C2065 1.356 . S
N2063 H2068 0.984 . S
N2063 H2069 0.985 . S
C2064 C2058 1.379 . S
C2064 C2061 1.363 . S
C2064 N2062 1.356 . S
C2065 C2059 1.363 . S
C2065 C2060 1.379 . S
C2065 N2063 1.356 . S
N2066 C2058 1.356 . S
N2066 H2072 0.984 . S
N2066 H2073 0.984 . S
N2067 C2060 1.356 . S
N2067 H2070 0.984 . S
N2067 H2071 0.985 . S
H2068 N2063 0.984 . S
H2069 N2063 0.985 . S
H2070 N2067 0.984 . S
H2071 N2067 0.985 . S
H2072 N2066 0.984 . S
H2073 N2066 0.984 . S
H2074 N2062 0.984 . S
H2075 N2062 0.985 . S
C2076 C2077 1.363 . S
C2076 C2082 1.379 . S
C2076 N2084 1.356 . S
C2077 C2076 1.363 . S
C2077 C2083 1.363 . S
C2078 C2079 1.363 . S
C2078 C2083 1.379 . S
C2078 N2085 1.356 . S
C2079 C2078 1.363 . S
C2079 C2082 1.363 . S
N2080 C2082 1.356 . S
N2080 H2092 0.984 . S
N2080 H2093 0.985 . S
N2081 C2083 1.356 . S
N2081 H2086 0.984 . S
N2081 H2087 0.985 . S
C2082 C2076 1.379 . S
C2082 C2079 1.363 . S
C2082 N2080 1.356 . S
C2083 C2077 1.363 . S
C2083 C2078 1.379 . S
C2083 N2081 1.356 . S
N2084 C2076 1.356 . S
N2084 H2090 0.984 . S
N2084 H2091 0.984 . S
N2085 C2078 1.356 . S
N2085 H2088 0.984 . S
N2085 H2089 0.985 . S
H2086 N2081 0.984 . S
H2087 N2081 0.985 . S
H2088 N2085 0.984 . S
H2089 N2085 0.985 . S
H2090 N2084 0.984 . S
H2091 N2084 0.984 . S
H2092 N2080 0.984 . S
H2093 N2080 0.985 . S
C2094 C2095 1.363 . S
C2094 C2100 1.379 . S
C2094 N2102 1.356 . S
C2095 C2094 1.363 . S
C2095 C2101 1.363 . S
C2096 C2097 1.363 . S
C2096 C2101 1.379 . S
C2096 N2103 1.356 . S
C2097 C2096 1.363 . S
C2097 C2100 1.363 . S
N2098 C2100 1.356 . S
N2098 H2110 0.984 . S
N2098 H2111 0.985 . S
N2099 C2101 1.356 . S
N2099 H2104 0.984 . S
N2099 H2105 0.985 . S
C2100 C2094 1.379 . S
C2100 C2097 1.363 . S
C2100 N2098 1.356 . S
C2101 C2095 1.363 . S
C2101 C2096 1.379 . S
C2101 N2099 1.356 . S
N2102 C2094 1.356 . S
N2102 H2108 0.984 . S
N2102 H2109 0.984 . S
N2103 C2096 1.356 . S
N2103 H2106 0.984 . S
N2103 H2107 0.985 . S
H2104 N2099 0.984 . S
H2105 N2099 0.985 . S
H2106 N2103 0.984 . S
H2107 N2103 0.985 . S
H2108 N2102 0.984 . S
H2109 N2102 0.984 . S
H2110 N2098 0.984 . S
H2111 N2098 0.985 . S
C2112 C2113 1.363 . S
C2112 C2118 1.379 . S
C2112 N2120 1.356 . S
C2113 C2112 1.363 . S
C2113 C2119 1.363 . S
C2114 C2115 1.363 . S
C2114 C2119 1.379 . S
C2114 N2121 1.356 . S
C2115 C2114 1.363 . S
C2115 C2118 1.363 . S
N2116 C2118 1.356 . S
N2116 H2128 0.984 . S
N2116 H2129 0.985 . S
N2117 C2119 1.356 . S
N2117 H2122 0.984 . S
N2117 H2123 0.985 . S
C2118 C2112 1.379 . S
C2118 C2115 1.363 . S
C2118 N2116 1.356 . S
C2119 C2113 1.363 . S
C2119 C2114 1.379 . S
C2119 N2117 1.356 . S
N2120 C2112 1.356 . S
N2120 H2126 0.984 . S
N2120 H2127 0.984 . S
N2121 C2114 1.356 . S
N2121 H2124 0.984 . S
N2121 H2125 0.985 . S
H2122 N2117 0.984 . S
H2123 N2117 0.985 . S
H2124 N2121 0.984 . S
H2125 N2121 0.985 . S
H2126 N2120 0.984 . S
H2127 N2120 0.984 . S
H2128 N2116 0.984 . S
H2129 N2116 0.985 . S
C2130 C2131 1.363 . S
C2130 C2136 1.379 . S
C2130 N2138 1.356 . S
C2131 C2130 1.363 . S
C2131 C2137 1.363 . S
C2132 C2133 1.363 . S
C2132 C2137 1.379 . S
C2132 N2139 1.356 . S
C2133 C2132 1.363 . S
C2133 C2136 1.363 . S
N2134 C2136 1.356 . S
N2134 H2146 0.984 . S
N2134 H2147 0.985 . S
N2135 C2137 1.356 . S
N2135 H2140 0.984 . S
N2135 H2141 0.985 . S
C2136 C2130 1.379 . S
C2136 C2133 1.363 . S
C2136 N2134 1.356 . S
C2137 C2131 1.363 . S
C2137 C2132 1.379 . S
C2137 N2135 1.356 . S
N2138 C2130 1.356 . S
N2138 H2144 0.984 . S
N2138 H2145 0.984 . S
N2139 C2132 1.356 . S
N2139 H2142 0.984 . S
N2139 H2143 0.985 . S
H2140 N2135 0.984 . S
H2141 N2135 0.985 . S
H2142 N2139 0.984 . S
H2143 N2139 0.985 . S
H2144 N2138 0.984 . S
H2145 N2138 0.984 . S
H2146 N2134 0.984 . S
H2147 N2134 0.985 . S
C2148 C2149 1.363 . S
C2148 C2154 1.379 . S
C2148 N2156 1.356 . S
C2149 C2148 1.363 . S
C2149 C2155 1.363 1_455 S
C2150 C2151 1.363 1_655 S
C2150 C2155 1.379 . S
C2150 N2157 1.356 1_556 S
C2151 C2150 1.363 1_455 S
C2151 C2154 1.363 . S
N2152 C2154 1.356 . S
N2152 H2164 0.984 . S
N2152 H2165 0.985 . S
N2153 C2155 1.356 . S
N2153 H2158 0.984 . S
N2153 H2159 0.985 . S
C2154 C2148 1.379 . S
C2154 C2151 1.363 . S
C2154 N2152 1.356 . S
C2155 C2149 1.363 1_655 S
C2155 C2150 1.379 . S
C2155 N2153 1.356 . S
N2156 C2148 1.356 . S
N2156 H2162 0.984 . S
N2156 H2163 0.984 . S
N2157 C2150 1.356 1_554 S
N2157 H2160 0.984 . S
N2157 H2161 0.985 . S
H2158 N2153 0.984 . S
H2159 N2153 0.985 . S
H2160 N2157 0.984 . S
H2161 N2157 0.985 . S
H2162 N2156 0.984 . S
H2163 N2156 0.984 . S
H2164 N2152 0.984 . S
H2165 N2152 0.985 . S
C2166 C2167 1.363 . S
C2166 C2172 1.379 . S
C2166 N2174 1.356 . S
C2167 C2166 1.363 . S
C2167 C2173 1.363 . S
C2168 C2169 1.363 . S
C2168 C2173 1.379 . S
C2168 N2175 1.356 . S
C2169 C2168 1.363 . S
C2169 C2172 1.363 . S
N2170 C2172 1.356 . S
N2170 H2182 0.984 . S
N2170 H2183 0.985 . S
N2171 C2173 1.356 . S
N2171 H2176 0.984 . S
N2171 H2177 0.985 . S
C2172 C2166 1.379 . S
C2172 C2169 1.363 . S
C2172 N2170 1.356 . S
C2173 C2167 1.363 . S
C2173 C2168 1.379 . S
C2173 N2171 1.356 . S
N2174 C2166 1.356 . S
N2174 H2180 0.984 . S
N2174 H2181 0.984 . S
N2175 C2168 1.356 . S
N2175 H2178 0.984 . S
N2175 H2179 0.985 . S
H2176 N2171 0.984 . S
H2177 N2171 0.985 . S
H2178 N2175 0.984 . S
H2179 N2175 0.985 . S
H2180 N2174 0.984 . S
H2181 N2174 0.984 . S
H2182 N2170 0.984 . S
H2183 N2170 0.985 . S
C2184 C2185 1.363 . S
C2184 C2190 1.379 . S
C2184 N2192 1.356 . S
C2185 C2184 1.363 . S
C2185 C2191 1.363 . S
C2186 C2187 1.363 . S
C2186 C2191 1.379 . S
C2186 N2193 1.356 . S
C2187 C2186 1.363 . S
C2187 C2190 1.363 . S
N2188 C2190 1.356 . S
N2188 H2200 0.984 . S
N2188 H2201 0.985 . S
N2189 C2191 1.356 . S
N2189 H2194 0.984 . S
N2189 H2195 0.985 . S
C2190 C2184 1.379 . S
C2190 C2187 1.363 . S
C2190 N2188 1.356 . S
C2191 C2185 1.363 . S
C2191 C2186 1.379 . S
C2191 N2189 1.356 . S
N2192 C2184 1.356 . S
N2192 H2198 0.984 . S
N2192 H2199 0.984 . S
N2193 C2186 1.356 . S
N2193 H2196 0.984 . S
N2193 H2197 0.985 . S
H2194 N2189 0.984 . S
H2195 N2189 0.985 . S
H2196 N2193 0.984 . S
H2197 N2193 0.985 . S
H2198 N2192 0.984 . S
H2199 N2192 0.984 . S
H2200 N2188 0.984 . S
H2201 N2188 0.985 . S
C2202 C2203 1.363 . S
C2202 C2208 1.379 . S
C2202 N2210 1.356 . S
C2203 C2202 1.363 . S
C2203 C2209 1.363 . S
C2204 C2205 1.363 . S
C2204 C2209 1.379 . S
C2204 N2211 1.356 . S
C2205 C2204 1.363 . S
C2205 C2208 1.363 . S
N2206 C2208 1.356 . S
N2206 H2218 0.984 . S
N2206 H2219 0.985 . S
N2207 C2209 1.356 . S
N2207 H2212 0.984 . S
N2207 H2213 0.985 . S
C2208 C2202 1.379 . S
C2208 C2205 1.363 . S
C2208 N2206 1.356 . S
C2209 C2203 1.363 . S
C2209 C2204 1.379 . S
C2209 N2207 1.356 . S
N2210 C2202 1.356 . S
N2210 H2216 0.984 . S
N2210 H2217 0.984 . S
N2211 C2204 1.356 . S
N2211 H2214 0.984 . S
N2211 H2215 0.985 . S
H2212 N2207 0.984 . S
H2213 N2207 0.985 . S
H2214 N2211 0.984 . S
H2215 N2211 0.985 . S
H2216 N2210 0.984 . S
H2217 N2210 0.984 . S
H2218 N2206 0.984 . S
H2219 N2206 0.985 . S
C2220 C2221 1.363 1_655 S
C2220 C2226 1.379 . S
C2220 N2228 1.356 . S
C2221 C2220 1.363 1_455 S
C2221 C2227 1.363 . S
C2222 C2223 1.363 . S
C2222 C2227 1.379 . S
C2222 N2229 1.356 . S
C2223 C2222 1.363 . S
C2223 C2226 1.363 1_455 S
N2224 C2226 1.356 . S
N2224 H2236 0.984 . S
N2224 H2237 0.985 . S
N2225 C2227 1.356 . S
N2225 H2230 0.984 . S
N2225 H2231 0.985 . S
C2226 C2220 1.379 . S
C2226 C2223 1.363 1_655 S
C2226 N2224 1.356 . S
C2227 C2221 1.363 . S
C2227 C2222 1.379 . S
C2227 N2225 1.356 . S
N2228 C2220 1.356 . S
N2228 H2234 0.984 . S
N2228 H2235 0.984 . S
N2229 C2222 1.356 . S
N2229 H2232 0.984 . S
N2229 H2233 0.985 . S
H2230 N2225 0.984 . S
H2231 N2225 0.985 . S
H2232 N2229 0.984 . S
H2233 N2229 0.985 . S
H2234 N2228 0.984 . S
H2235 N2228 0.984 . S
H2236 N2224 0.984 . S
H2237 N2224 0.985 . S
C2238 C2239 1.363 . S
C2238 C2244 1.379 . S
C2238 N2246 1.356 . S
C2239 C2238 1.363 . S
C2239 C2245 1.363 . S
C2240 C2241 1.363 . S
C2240 C2245 1.379 . S
C2240 N2247 1.356 . S
C2241 C2240 1.363 . S
C2241 C2244 1.363 . S
N2242 C2244 1.356 . S
N2242 H2254 0.984 . S
N2242 H2255 0.985 . S
N2243 C2245 1.356 . S
N2243 H2248 0.984 . S
N2243 H2249 0.985 . S
C2244 C2238 1.379 . S
C2244 C2241 1.363 . S
C2244 N2242 1.356 . S
C2245 C2239 1.363 . S
C2245 C2240 1.379 . S
C2245 N2243 1.356 . S
N2246 C2238 1.356 . S
N2246 H2252 0.984 . S
N2246 H2253 0.984 . S
N2247 C2240 1.356 . S
N2247 H2250 0.984 . S
N2247 H2251 0.985 . S
H2248 N2243 0.984 . S
H2249 N2243 0.985 . S
H2250 N2247 0.984 . S
H2251 N2247 0.985 . S
H2252 N2246 0.984 . S
H2253 N2246 0.984 . S
H2254 N2242 0.984 . S
H2255 N2242 0.985 . S
C2256 C2257 1.363 . S
C2256 C2262 1.379 . S
C2256 N2264 1.356 . S
C2257 C2256 1.363 . S
C2257 C2263 1.363 . S
C2258 C2259 1.363 . S
C2258 C2263 1.379 . S
C2258 N2265 1.356 . S
C2259 C2258 1.363 . S
C2259 C2262 1.363 . S
N2260 C2262 1.356 . S
N2260 H2272 0.984 . S
N2260 H2273 0.985 . S
N2261 C2263 1.356 . S
N2261 H2266 0.984 . S
N2261 H2267 0.985 . S
C2262 C2256 1.379 . S
C2262 C2259 1.363 . S
C2262 N2260 1.356 . S
C2263 C2257 1.363 . S
C2263 C2258 1.379 . S
C2263 N2261 1.356 . S
N2264 C2256 1.356 . S
N2264 H2270 0.984 . S
N2264 H2271 0.984 . S
N2265 C2258 1.356 . S
N2265 H2268 0.984 . S
N2265 H2269 0.985 . S
H2266 N2261 0.984 . S
H2267 N2261 0.985 . S
H2268 N2265 0.984 . S
H2269 N2265 0.985 . S
H2270 N2264 0.984 . S
H2271 N2264 0.984 . S
H2272 N2260 0.984 . S
H2273 N2260 0.985 . S
C2274 C2275 1.363 . S
C2274 C2280 1.379 . S
C2274 N2282 1.356 . S
C2275 C2274 1.363 . S
C2275 C2281 1.363 . S
C2276 C2277 1.363 . S
C2276 C2281 1.379 . S
C2276 N2283 1.356 . S
C2277 C2276 1.363 . S
C2277 C2280 1.363 . S
N2278 C2280 1.356 . S
N2278 H2290 0.984 . S
N2278 H2291 0.985 . S
N2279 C2281 1.356 . S
N2279 H2284 0.984 . S
N2279 H2285 0.985 . S
C2280 C2274 1.379 . S
C2280 C2277 1.363 . S
C2280 N2278 1.356 . S
C2281 C2275 1.363 . S
C2281 C2276 1.379 . S
C2281 N2279 1.356 . S
N2282 C2274 1.356 . S
N2282 H2288 0.984 . S
N2282 H2289 0.984 . S
N2283 C2276 1.356 . S
N2283 H2286 0.984 . S
N2283 H2287 0.985 . S
H2284 N2279 0.984 . S
H2285 N2279 0.985 . S
H2286 N2283 0.984 . S
H2287 N2283 0.985 . S
H2288 N2282 0.984 . S
H2289 N2282 0.984 . S
H2290 N2278 0.984 . S
H2291 N2278 0.985 . S
C2292 C2293 1.363 . S
C2292 C2298 1.379 . S
C2292 N2300 1.356 . S
C2293 C2292 1.363 . S
C2293 C2299 1.363 . S
C2294 C2295 1.363 . S
C2294 C2299 1.379 . S
C2294 N2301 1.356 . S
C2295 C2294 1.363 . S
C2295 C2298 1.363 . S
N2296 C2298 1.356 . S
N2296 H2308 0.984 . S
N2296 H2309 0.985 . S
N2297 C2299 1.356 . S
N2297 H2302 0.984 . S
N2297 H2303 0.985 . S
C2298 C2292 1.379 . S
C2298 C2295 1.363 . S
C2298 N2296 1.356 . S
C2299 C2293 1.363 . S
C2299 C2294 1.379 . S
C2299 N2297 1.356 . S
N2300 C2292 1.356 . S
N2300 H2306 0.984 . S
N2300 H2307 0.984 . S
N2301 C2294 1.356 . S
N2301 H2304 0.984 . S
N2301 H2305 0.985 . S
H2302 N2297 0.984 . S
H2303 N2297 0.985 . S
H2304 N2301 0.984 . S
H2305 N2301 0.985 . S
H2306 N2300 0.984 . S
H2307 N2300 0.984 . S
H2308 N2296 0.984 . S
H2309 N2296 0.985 . S
C2310 C2311 1.363 . S
C2310 C2316 1.379 . S
C2310 N2318 1.356 . S
C2311 C2310 1.363 . S
C2311 C2317 1.363 . S
C2312 C2313 1.363 . S
C2312 C2317 1.379 . S
C2312 N2319 1.356 . S
C2313 C2312 1.363 . S
C2313 C2316 1.363 . S
N2314 C2316 1.356 . S
N2314 H2326 0.984 . S
N2314 H2327 0.985 . S
N2315 C2317 1.356 . S
N2315 H2320 0.984 . S
N2315 H2321 0.985 . S
C2316 C2310 1.379 . S
C2316 C2313 1.363 . S
C2316 N2314 1.356 . S
C2317 C2311 1.363 . S
C2317 C2312 1.379 . S
C2317 N2315 1.356 . S
N2318 C2310 1.356 . S
N2318 H2324 0.984 . S
N2318 H2325 0.984 . S
N2319 C2312 1.356 . S
N2319 H2322 0.984 . S
N2319 H2323 0.985 . S
H2320 N2315 0.984 . S
H2321 N2315 0.985 . S
H2322 N2319 0.984 . S
H2323 N2319 0.985 . S
H2324 N2318 0.984 . S
H2325 N2318 0.984 . S
H2326 N2314 0.984 . S
H2327 N2314 0.985 . S
C2328 C2329 1.363 . S
C2328 C2334 1.379 . S
C2328 N2336 1.356 . S
C2329 C2328 1.363 . S
C2329 C2335 1.363 . S
C2330 C2331 1.363 . S
C2330 C2335 1.379 . S
C2330 N2337 1.356 . S
C2331 C2330 1.363 . S
C2331 C2334 1.363 . S
N2332 C2334 1.356 . S
N2332 H2344 0.984 . S
N2332 H2345 0.985 . S
N2333 C2335 1.356 . S
N2333 H2338 0.984 . S
N2333 H2339 0.985 . S
C2334 C2328 1.379 . S
C2334 C2331 1.363 . S
C2334 N2332 1.356 . S
C2335 C2329 1.363 . S
C2335 C2330 1.379 . S
C2335 N2333 1.356 . S
N2336 C2328 1.356 . S
N2336 H2342 0.984 . S
N2336 H2343 0.984 . S
N2337 C2330 1.356 . S
N2337 H2340 0.984 . S
N2337 H2341 0.985 . S
H2338 N2333 0.984 . S
H2339 N2333 0.985 . S
H2340 N2337 0.984 . S
H2341 N2337 0.985 . S
H2342 N2336 0.984 . S
H2343 N2336 0.984 . S
H2344 N2332 0.984 . S
H2345 N2332 0.985 . S
C2346 C2347 1.363 . S
C2346 C2352 1.379 . S
C2346 N2354 1.356 . S
C2347 C2346 1.363 . S
C2347 C2353 1.363 . S
C2348 C2349 1.363 . S
C2348 C2353 1.379 . S
C2348 N2355 1.356 . S
C2349 C2348 1.363 . S
C2349 C2352 1.363 . S
N2350 C2352 1.356 . S
N2350 H2362 0.984 . S
N2350 H2363 0.985 . S
N2351 C2353 1.356 . S
N2351 H2356 0.984 . S
N2351 H2357 0.985 . S
C2352 C2346 1.379 . S
C2352 C2349 1.363 . S
C2352 N2350 1.356 . S
C2353 C2347 1.363 . S
C2353 C2348 1.379 . S
C2353 N2351 1.356 . S
N2354 C2346 1.356 . S
N2354 H2360 0.984 . S
N2354 H2361 0.984 . S
N2355 C2348 1.356 . S
N2355 H2358 0.984 . S
N2355 H2359 0.985 . S
H2356 N2351 0.984 . S
H2357 N2351 0.985 . S
H2358 N2355 0.984 . S
H2359 N2355 0.985 . S
H2360 N2354 0.984 . S
H2361 N2354 0.984 . S
H2362 N2350 0.984 . S
H2363 N2350 0.985 . S
C2364 C2365 1.363 . S
C2364 C2370 1.379 . S
C2364 N2372 1.356 . S
C2365 C2364 1.363 . S
C2365 C2371 1.363 . S
C2366 C2367 1.363 . S
C2366 C2371 1.379 . S
C2366 N2373 1.356 . S
C2367 C2366 1.363 . S
C2367 C2370 1.363 . S
N2368 C2370 1.356 . S
N2368 H2380 0.984 . S
N2368 H2381 0.985 . S
N2369 C2371 1.356 . S
N2369 H2374 0.984 . S
N2369 H2375 0.985 . S
C2370 C2364 1.379 . S
C2370 C2367 1.363 . S
C2370 N2368 1.356 . S
C2371 C2365 1.363 . S
C2371 C2366 1.379 . S
C2371 N2369 1.356 . S
N2372 C2364 1.356 . S
N2372 H2378 0.984 . S
N2372 H2379 0.984 . S
N2373 C2366 1.356 . S
N2373 H2376 0.984 . S
N2373 H2377 0.985 . S
H2374 N2369 0.984 . S
H2375 N2369 0.985 . S
H2376 N2373 0.984 . S
H2377 N2373 0.985 . S
H2378 N2372 0.984 . S
H2379 N2372 0.984 . S
H2380 N2368 0.984 . S
H2381 N2368 0.985 . S
C2382 C2383 1.363 . S
C2382 C2388 1.379 . S
C2382 N2390 1.356 . S
C2383 C2382 1.363 . S
C2383 C2389 1.363 . S
C2384 C2385 1.363 . S
C2384 C2389 1.379 . S
C2384 N2391 1.356 . S
C2385 C2384 1.363 . S
C2385 C2388 1.363 . S
N2386 C2388 1.356 . S
N2386 H2398 0.984 . S
N2386 H2399 0.985 . S
N2387 C2389 1.356 . S
N2387 H2392 0.984 . S
N2387 H2393 0.985 . S
C2388 C2382 1.379 . S
C2388 C2385 1.363 . S
C2388 N2386 1.356 . S
C2389 C2383 1.363 . S
C2389 C2384 1.379 . S
C2389 N2387 1.356 . S
N2390 C2382 1.356 . S
N2390 H2396 0.984 . S
N2390 H2397 0.984 . S
N2391 C2384 1.356 . S
N2391 H2394 0.984 . S
N2391 H2395 0.985 . S
H2392 N2387 0.984 . S
H2393 N2387 0.985 . S
H2394 N2391 0.984 . S
H2395 N2391 0.985 . S
H2396 N2390 0.984 . S
H2397 N2390 0.984 . S
H2398 N2386 0.984 . S
H2399 N2386 0.985 . S
C2400 C2401 1.363 . S
C2400 C2406 1.379 . S
C2400 N2408 1.356 . S
C2401 C2400 1.363 . S
C2401 C2407 1.363 . S
C2402 C2403 1.363 . S
C2402 C2407 1.379 . S
C2402 N2409 1.356 . S
C2403 C2402 1.363 . S
C2403 C2406 1.363 . S
N2404 C2406 1.356 . S
N2404 H2416 0.984 . S
N2404 H2417 0.985 . S
N2405 C2407 1.356 . S
N2405 H2410 0.984 . S
N2405 H2411 0.985 . S
C2406 C2400 1.379 . S
C2406 C2403 1.363 . S
C2406 N2404 1.356 . S
C2407 C2401 1.363 . S
C2407 C2402 1.379 . S
C2407 N2405 1.356 . S
N2408 C2400 1.356 . S
N2408 H2414 0.984 . S
N2408 H2415 0.984 . S
N2409 C2402 1.356 . S
N2409 H2412 0.984 . S
N2409 H2413 0.985 . S
H2410 N2405 0.984 . S
H2411 N2405 0.985 . S
H2412 N2409 0.984 . S
H2413 N2409 0.985 . S
H2414 N2408 0.984 . S
H2415 N2408 0.984 . S
H2416 N2404 0.984 . S
H2417 N2404 0.985 . S
C2418 C2419 1.363 . S
C2418 C2424 1.379 . S
C2418 N2426 1.356 . S
C2419 C2418 1.363 . S
C2419 C2425 1.363 . S
C2420 C2421 1.363 . S
C2420 C2425 1.379 . S
C2420 N2427 1.356 . S
C2421 C2420 1.363 . S
C2421 C2424 1.363 . S
N2422 C2424 1.356 . S
N2422 H2434 0.984 . S
N2422 H2435 0.985 . S
N2423 C2425 1.356 . S
N2423 H2428 0.984 . S
N2423 H2429 0.985 . S
C2424 C2418 1.379 . S
C2424 C2421 1.363 . S
C2424 N2422 1.356 . S
C2425 C2419 1.363 . S
C2425 C2420 1.379 . S
C2425 N2423 1.356 . S
N2426 C2418 1.356 . S
N2426 H2432 0.984 . S
N2426 H2433 0.984 . S
N2427 C2420 1.356 . S
N2427 H2430 0.984 . S
N2427 H2431 0.985 . S
H2428 N2423 0.984 . S
H2429 N2423 0.985 . S
H2430 N2427 0.984 . S
H2431 N2427 0.985 . S
H2432 N2426 0.984 . S
H2433 N2426 0.984 . S
H2434 N2422 0.984 . S
H2435 N2422 0.985 . S
C2436 C2437 1.363 . S
C2436 C2442 1.379 . S
C2436 N2444 1.356 . S
C2437 C2436 1.363 . S
C2437 C2443 1.363 . S
C2438 C2439 1.363 . S
C2438 C2443 1.379 . S
C2438 N2445 1.356 . S
C2439 C2438 1.363 . S
C2439 C2442 1.363 . S
N2440 C2442 1.356 . S
N2440 H2452 0.984 . S
N2440 H2453 0.985 . S
N2441 C2443 1.356 . S
N2441 H2446 0.984 . S
N2441 H2447 0.985 . S
C2442 C2436 1.379 . S
C2442 C2439 1.363 . S
C2442 N2440 1.356 . S
C2443 C2437 1.363 . S
C2443 C2438 1.379 . S
C2443 N2441 1.356 . S
N2444 C2436 1.356 . S
N2444 H2450 0.984 . S
N2444 H2451 0.984 . S
N2445 C2438 1.356 . S
N2445 H2448 0.984 . S
N2445 H2449 0.985 . S
H2446 N2441 0.984 . S
H2447 N2441 0.985 . S
H2448 N2445 0.984 . S
H2449 N2445 0.985 . S
H2450 N2444 0.984 . S
H2451 N2444 0.984 . S
H2452 N2440 0.984 . S
H2453 N2440 0.985 . S
C2454 C2455 1.363 . S
C2454 C2460 1.379 1_554 S
C2454 N2462 1.356 1_554 S
C2455 C2454 1.363 . S
C2455 C2461 1.363 . S
C2456 C2457 1.363 . S
C2456 C2461 1.379 . S
C2456 N2463 1.356 1_565 S
C2457 C2456 1.363 . S
C2457 C2460 1.363 1_554 S
N2458 C2460 1.356 . S
N2458 H2470 0.984 . S
N2458 H2471 0.985 . S
N2459 C2461 1.356 . S
N2459 H2464 0.984 . S
N2459 H2465 0.985 . S
C2460 C2454 1.379 1_556 S
C2460 C2457 1.363 1_556 S
C2460 N2458 1.356 . S
C2461 C2455 1.363 . S
C2461 C2456 1.379 . S
C2461 N2459 1.356 . S
N2462 C2454 1.356 1_556 S
N2462 H2468 0.984 . S
N2462 H2469 0.984 . S
N2463 C2456 1.356 1_545 S
N2463 H2466 0.984 . S
N2463 H2467 0.985 . S
H2464 N2459 0.984 . S
H2465 N2459 0.985 . S
H2466 N2463 0.984 . S
H2467 N2463 0.985 . S
H2468 N2462 0.984 . S
H2469 N2462 0.984 . S
H2470 N2458 0.984 . S
H2471 N2458 0.985 . S
C2472 C2473 1.363 . S
C2472 C2478 1.379 . S
C2472 N2480 1.356 . S
C2473 C2472 1.363 . S
C2473 C2479 1.363 . S
C2474 C2475 1.363 . S
C2474 C2479 1.379 . S
C2474 N2481 1.356 . S
C2475 C2474 1.363 . S
C2475 C2478 1.363 . S
N2476 C2478 1.356 . S
N2476 H2488 0.984 . S
N2476 H2489 0.985 . S
N2477 C2479 1.356 . S
N2477 H2482 0.984 . S
N2477 H2483 0.985 . S
C2478 C2472 1.379 . S
C2478 C2475 1.363 . S
C2478 N2476 1.356 . S
C2479 C2473 1.363 . S
C2479 C2474 1.379 . S
C2479 N2477 1.356 . S
N2480 C2472 1.356 . S
N2480 H2486 0.984 . S
N2480 H2487 0.984 . S
N2481 C2474 1.356 . S
N2481 H2484 0.984 . S
N2481 H2485 0.985 . S
H2482 N2477 0.984 . S
H2483 N2477 0.985 . S
H2484 N2481 0.984 . S
H2485 N2481 0.985 . S
H2486 N2480 0.984 . S
H2487 N2480 0.984 . S
H2488 N2476 0.984 . S
H2489 N2476 0.985 . S
C2490 C2491 1.363 . S
C2490 C2496 1.379 . S
C2490 N2498 1.356 . S
C2491 C2490 1.363 . S
C2491 C2497 1.363 1_554 S
C2492 C2493 1.363 . S
C2492 C2497 1.379 1_554 S
C2492 N2499 1.356 . S
C2493 C2492 1.363 . S
C2493 C2496 1.363 . S
N2494 C2496 1.356 . S
N2494 H2506 0.984 . S
N2494 H2507 0.985 . S
N2495 C2497 1.356 . S
N2495 H2500 0.984 . S
N2495 H2501 0.985 . S
C2496 C2490 1.379 . S
C2496 C2493 1.363 . S
C2496 N2494 1.356 . S
C2497 C2491 1.363 1_556 S
C2497 C2492 1.379 1_556 S
C2497 N2495 1.356 . S
N2498 C2490 1.356 . S
N2498 H2504 0.984 . S
N2498 H2505 0.984 . S
N2499 C2492 1.356 . S
N2499 H2502 0.984 . S
N2499 H2503 0.985 1_554 S
H2500 N2495 0.984 . S
H2501 N2495 0.985 . S
H2502 N2499 0.984 . S
H2503 N2499 0.985 1_556 S
H2504 N2498 0.984 . S
H2505 N2498 0.984 . S
H2506 N2494 0.984 . S
H2507 N2494 0.985 . S
C2508 C2509 1.363 . S
C2508 C2514 1.379 . S
C2508 N2516 1.356 . S
C2509 C2508 1.363 . S
C2509 C2515 1.363 . S
C2510 C2511 1.363 . S
C2510 C2515 1.379 . S
C2510 N2517 1.356 . S
C2511 C2510 1.363 . S
C2511 C2514 1.363 . S
N2512 C2514 1.356 . S
N2512 H2524 0.984 . S
N2512 H2525 0.985 . S
N2513 C2515 1.356 . S
N2513 H2518 0.984 . S
N2513 H2519 0.985 . S
C2514 C2508 1.379 . S
C2514 C2511 1.363 . S
C2514 N2512 1.356 . S
C2515 C2509 1.363 . S
C2515 C2510 1.379 . S
C2515 N2513 1.356 . S
N2516 C2508 1.356 . S
N2516 H2522 0.984 . S
N2516 H2523 0.984 . S
N2517 C2510 1.356 . S
N2517 H2520 0.984 . S
N2517 H2521 0.985 . S
H2518 N2513 0.984 . S
H2519 N2513 0.985 . S
H2520 N2517 0.984 . S
H2521 N2517 0.985 . S
H2522 N2516 0.984 . S
H2523 N2516 0.984 . S
H2524 N2512 0.984 . S
H2525 N2512 0.985 . S
C2526 C2527 1.363 . S
C2526 C2532 1.379 . S
C2526 N2534 1.356 . S
C2527 C2526 1.363 . S
C2527 C2533 1.363 . S
C2528 C2529 1.363 . S
C2528 C2533 1.379 . S
C2528 N2535 1.356 . S
C2529 C2528 1.363 . S
C2529 C2532 1.363 . S
N2530 C2532 1.356 . S
N2530 H2542 0.984 . S
N2530 H2543 0.985 . S
N2531 C2533 1.356 . S
N2531 H2536 0.984 . S
N2531 H2537 0.985 . S
C2532 C2526 1.379 . S
C2532 C2529 1.363 . S
C2532 N2530 1.356 . S
C2533 C2527 1.363 . S
C2533 C2528 1.379 . S
C2533 N2531 1.356 . S
N2534 C2526 1.356 . S
N2534 H2540 0.984 . S
N2534 H2541 0.984 . S
N2535 C2528 1.356 . S
N2535 H2538 0.984 . S
N2535 H2539 0.985 . S
H2536 N2531 0.984 . S
H2537 N2531 0.985 . S
H2538 N2535 0.984 . S
H2539 N2535 0.985 . S
H2540 N2534 0.984 . S
H2541 N2534 0.984 . S
H2542 N2530 0.984 . S
H2543 N2530 0.985 . S
C819 C337 1.833 . S
C817 C13 1.831 . S
C835 C25 1.001 . S
C837 C382 1.006 . S
C853 C39 1.704 . S
C855 C406 1.688 . S
C873 N432 1.286 . S
C871 C50 1.276 . S
C889 C21 1.234 . S
C891 N462 1.268 1_455 S
C909 C496 1.643 . S
C907 C35 1.671 . S
C927 C532 1.177 1_556 S
C925 C55 1.117 . S
C943 C8 1.912 . S
C945 C556 1.900 . S
C961 C69 1.013 . S
C963 N350 1.038 . S
C979 C77 1.257 . S
C981 N372 1.295 . S
C999 C412 1.097 . S
C997 C97 1.037 . S
C1017 C436 1.823 . S
C1015 C105 1.856 . S
C1033 C63 1.301 . S
C1035 C466 1.274 . S
C1053 C502 1.178 . S
C1051 C83 1.088 . S
C1071 N522 1.210 . S
C1069 C91 1.182 . S
C1089 C562 1.805 . S
C1087 C111 1.798 . S
C1107 C363 1.787 . S
C1105 C106 1.791 . S
C1125 C592 1.080 . S
C1123 C123 1.072 . S
C1141 C134 1.293 . S
C1143 N612 1.308 . S
C1161 C646 1.604 . S
C1159 C151 1.628 . S
C1177 C64 1.061 . S
C1179 N552 1.089 . S
C1197 N402 1.281 . S
C1195 C78 1.272 . S
C1213 C137 1.097 . S
C1215 C682 1.111 . S
C1233 C706 1.122 . S
C1231 C165 1.174 . S
C1249 C175 1.828 . S
C1251 C346 1.790 1_556 S
C1269 C723 0.903 . S
C1267 C193 0.910 . S
C1285 C209 1.578 . S
C1287 C397 1.619 . S
C1303 C223 0.998 . S
C1305 N680 1.144 . S
C1323 N470 1.207 . S
C1321 C195 1.047 . S
C1341 C607 1.499 . S
C1339 C207 1.508 . S
C1359 C543 1.042 . S
C1357 C221 1.047 . S
C1377 C727 1.797 . S
C1375 C176 1.765 . S
C1395 N342 1.022 . S
C1393 C231 1.020 . S
C1411 C251 1.063 . S
C1413 N710 1.224 . S
C1431 C423 1.039 . S
C1429 C259 1.041 . S
C1447 C279 1.706 . S
C1449 C667 1.773 . S
C1465 C237 1.123 . S
C1467 C457 1.215 . S
C1483 C245 1.086 . S
C1485 C633 1.086 . S
C1503 N530 1.196 . S
C1501 C265 1.049 . S
C1519 C273 1.764 . S
C1521 C753 1.731 . S
C1537 C274 1.677 . S
C1539 C352 1.730 1_565 S
C1555 C291 0.913 1_554 S
C1557 C603 0.910 . S
C1573 C302 1.167 . S
C1575 N500 1.286 . S
C1591 C319 1.521 . S
C1593 C637 1.509 . S
C1611 N740 1.045 . S
C1609 C232 1.006 1_565 S
C1629 N410 1.242 . S
C1627 C246 1.135 . S
C1647 C453 1.002 . S
C1645 C305 1.005 . S
C1665 C367 1.015 . S
C1663 C333 1.022 . S
C1681 C36 1.912 . S
C1683 C757 1.912 . S
C1701 C712 0.976 . S
C1699 C53 0.974 . S
C1719 C796 1.755 . S
C1717 C7 1.782 . S
C1735 C22 1.273 1_655 S
C1737 N672 1.284 . S
C1753 C49 1.241 . S
C1755 N582 1.276 1_556 S
C1773 C616 1.580 . S
C1771 C11 1.604 . S
C1791 C652 1.198 . S
C1789 C27 1.129 . S
C1809 C736 1.809 . S
C1807 C41 1.772 . S
C1827 N770 1.047 . S
C1825 C167 1.017 . S
C1843 C119 1.247 1_556 S
C1845 N702 1.284 . S
C1861 C139 1.047 . S
C1863 C802 1.115 1_655 S
C1881 C676 1.825 . S
C1879 C147 1.855 . S
C1899 C586 1.278 . S
C1897 C161 1.307 . S
C1915 C125 1.077 . S
C1917 C622 1.159 . S
C1935 N642 1.220 . S
C1933 C133 1.191 . S
C1951 C153 1.794 . S
C1953 C742 1.793 . S
C1971 C783 1.822 . S
C1969 C148 1.816 . S
C1989 C472 1.053 1_565 S
C1987 C81 1.044 . S
C2007 N492 1.311 . S
C2005 C92 1.292 1_565 S
C2023 C109 1.606 . S
C2025 C526 1.582 . S
C2043 N732 1.071 . S
C2041 C162 1.047 . S
C2059 C120 1.269 . S
C2061 N792 1.281 . S
C2079 C442 1.141 . S
C2077 C95 1.128 . S
C2097 C376 1.146 . S
C2095 C67 1.199 . S
C2113 C203 1.842 . S
C2115 C766 1.804 . S
C2133 C393 0.992 . S
C2131 C217 0.999 . S
C2151 C787 1.624 1_556 S
C2149 C181 1.578 . S
C2167 C190 1.175 . S
C2169 N440 1.286 . S
C2185 C218 1.234 . S
C2187 N590 1.354 . S
C2203 C179 1.511 . S
C2205 C487 1.503 . S
C2221 C189 1.143 . S
C2223 C663 1.133 . S
C2239 C204 1.781 . S
C2241 C547 1.813 . S
C2259 N762 1.051 . S
C2257 C329 1.049 . S
C2275 C293 1.031 . S
C2277 N380 1.177 . S
C2295 C813 1.044 . S
C2293 C301 1.047 . S
C2311 C321 1.667 . S
C2313 C427 1.729 . S
C2329 C335 1.073 . S
C2331 C577 1.156 . S
C2349 C513 1.091 . S
C2347 C287 1.094 . S
C2365 C307 1.017 . S
C2367 N650 1.151 . S
C2385 C573 1.749 . S
C2383 C315 1.786 . S
C2403 C772 1.715 . S
C2401 C316 1.670 . S
C2421 C483 0.978 . S
C2419 C249 0.984 . S
C2437 C260 1.156 . S
C2439 N620 1.271 . S
C2457 C517 1.580 1_565 S
C2455 C277 1.594 . S
C2475 N560 1.040 . S
C2473 C330 1.001 . S
C2491 C288 1.147 . S
C2493 N800 1.258 . S
C2511 C693 1.073 . S
C2509 C263 1.078 . S
C2529 C697 1.098 . S
C2527 C235 1.108 . S
