# Generated by pormake.
# Topology eea, (3,6)-cn, num edge types: 1
# Building blocks:
#     Node 0, Type 0, BuildingBlock: WUSLED_clean_sbu_0, # of connection points: 3
#     Node 1, Type 0, BuildingBlock: WUSLED_clean_sbu_0, # of connection points: 3
#     Node 2, Type 0, BuildingBlock: WUSLED_clean_sbu_0, # of connection points: 3
#     Node 3, Type 0, BuildingBlock: WUSLED_clean_sbu_0, # of connection points: 3
#     Node 4, Type 0, BuildingBlock: WUSLED_clean_sbu_0, # of connection points: 3
#     Node 5, Type 0, BuildingBlock: WUSLED_clean_sbu_0, # of connection points: 3
#     Node 6, Type 0, BuildingBlock: WUSLED_clean_sbu_0, # of connection points: 3
#     Node 7, Type 0, BuildingBlock: WUSLED_clean_sbu_0, # of connection points: 3
#     Node 8, Type 0, BuildingBlock: WUSLED_clean_sbu_0, # of connection points: 3
#     Node 9, Type 0, BuildingBlock: WUSLED_clean_sbu_0, # of connection points: 3
#     Node 10, Type 0, BuildingBlock: WUSLED_clean_sbu_0, # of connection points: 3
#     Node 11, Type 0, BuildingBlock: WUSLED_clean_sbu_0, # of connection points: 3
#     Node 12, Type 0, BuildingBlock: WUSLED_clean_sbu_0, # of connection points: 3
#     Node 13, Type 0, BuildingBlock: WUSLED_clean_sbu_0, # of connection points: 3
#     Node 14, Type 0, BuildingBlock: WUSLED_clean_sbu_0, # of connection points: 3
#     Node 15, Type 0, BuildingBlock: WUSLED_clean_sbu_0, # of connection points: 3
#     Node 16, Type 0, BuildingBlock: WUSLED_clean_sbu_0, # of connection points: 3
#     Node 17, Type 0, BuildingBlock: WUSLED_clean_sbu_0, # of connection points: 3
#     Node 18, Type 1, BuildingBlock: LEVNOQ01_clean_sbu_1, # of connection points: 6
#     Node 19, Type 1, BuildingBlock: LEVNOQ01_clean_sbu_1, # of connection points: 6
#     Node 20, Type 1, BuildingBlock: LEVNOQ01_clean_sbu_1, # of connection points: 6
#     Node 21, Type 1, BuildingBlock: LEVNOQ01_clean_sbu_1, # of connection points: 6
#     Node 22, Type 1, BuildingBlock: LEVNOQ01_clean_sbu_1, # of connection points: 6
#     Node 23, Type 1, BuildingBlock: LEVNOQ01_clean_sbu_1, # of connection points: 6
#     Node 24, Type 1, BuildingBlock: LEVNOQ01_clean_sbu_1, # of connection points: 6
#     Node 25, Type 1, BuildingBlock: LEVNOQ01_clean_sbu_1, # of connection points: 6
#     Node 26, Type 1, BuildingBlock: LEVNOQ01_clean_sbu_1, # of connection points: 6
#     Edge 27, Type (0, 1), BuildingBlock: MIFKUJ_clean_linker_0, # of connection points: 2
#     Edge 28, Type (0, 1), BuildingBlock: MIFKUJ_clean_linker_0, # of connection points: 2
#     Edge 29, Type (0, 1), BuildingBlock: MIFKUJ_clean_linker_0, # of connection points: 2
#     Edge 30, Type (0, 1), BuildingBlock: MIFKUJ_clean_linker_0, # of connection points: 2
#     Edge 31, Type (0, 1), BuildingBlock: MIFKUJ_clean_linker_0, # of connection points: 2
#     Edge 32, Type (0, 1), BuildingBlock: MIFKUJ_clean_linker_0, # of connection points: 2
#     Edge 33, Type (0, 1), BuildingBlock: MIFKUJ_clean_linker_0, # of connection points: 2
#     Edge 34, Type (0, 1), BuildingBlock: MIFKUJ_clean_linker_0, # of connection points: 2
#     Edge 35, Type (0, 1), BuildingBlock: MIFKUJ_clean_linker_0, # of connection points: 2
#     Edge 36, Type (0, 1), BuildingBlock: MIFKUJ_clean_linker_0, # of connection points: 2
#     Edge 37, Type (0, 1), BuildingBlock: MIFKUJ_clean_linker_0, # of connection points: 2
#     Edge 38, Type (0, 1), BuildingBlock: MIFKUJ_clean_linker_0, # of connection points: 2
#     Edge 39, Type (0, 1), BuildingBlock: MIFKUJ_clean_linker_0, # of connection points: 2
#     Edge 40, Type (0, 1), BuildingBlock: MIFKUJ_clean_linker_0, # of connection points: 2
#     Edge 41, Type (0, 1), BuildingBlock: MIFKUJ_clean_linker_0, # of connection points: 2
#     Edge 42, Type (0, 1), BuildingBlock: MIFKUJ_clean_linker_0, # of connection points: 2
#     Edge 43, Type (0, 1), BuildingBlock: MIFKUJ_clean_linker_0, # of connection points: 2
#     Edge 44, Type (0, 1), BuildingBlock: MIFKUJ_clean_linker_0, # of connection points: 2
#     Edge 45, Type (0, 1), BuildingBlock: MIFKUJ_clean_linker_0, # of connection points: 2
#     Edge 46, Type (0, 1), BuildingBlock: MIFKUJ_clean_linker_0, # of connection points: 2
#     Edge 47, Type (0, 1), BuildingBlock: MIFKUJ_clean_linker_0, # of connection points: 2
#     Edge 48, Type (0, 1), BuildingBlock: MIFKUJ_clean_linker_0, # of connection points: 2
#     Edge 49, Type (0, 1), BuildingBlock: MIFKUJ_clean_linker_0, # of connection points: 2
#     Edge 50, Type (0, 1), BuildingBlock: MIFKUJ_clean_linker_0, # of connection points: 2
#     Edge 51, Type (0, 1), BuildingBlock: MIFKUJ_clean_linker_0, # of connection points: 2
#     Edge 52, Type (0, 1), BuildingBlock: MIFKUJ_clean_linker_0, # of connection points: 2
#     Edge 53, Type (0, 1), BuildingBlock: MIFKUJ_clean_linker_0, # of connection points: 2
#     Edge 54, Type (0, 1), BuildingBlock: MIFKUJ_clean_linker_0, # of connection points: 2
#     Edge 55, Type (0, 1), BuildingBlock: MIFKUJ_clean_linker_0, # of connection points: 2
#     Edge 56, Type (0, 1), BuildingBlock: MIFKUJ_clean_linker_0, # of connection points: 2
#     Edge 57, Type (0, 1), BuildingBlock: MIFKUJ_clean_linker_0, # of connection points: 2
#     Edge 58, Type (0, 1), BuildingBlock: MIFKUJ_clean_linker_0, # of connection points: 2
#     Edge 59, Type (0, 1), BuildingBlock: MIFKUJ_clean_linker_0, # of connection points: 2
#     Edge 60, Type (0, 1), BuildingBlock: MIFKUJ_clean_linker_0, # of connection points: 2
#     Edge 61, Type (0, 1), BuildingBlock: MIFKUJ_clean_linker_0, # of connection points: 2
#     Edge 62, Type (0, 1), BuildingBlock: MIFKUJ_clean_linker_0, # of connection points: 2
#     Edge 63, Type (0, 1), BuildingBlock: MIFKUJ_clean_linker_0, # of connection points: 2
#     Edge 64, Type (0, 1), BuildingBlock: MIFKUJ_clean_linker_0, # of connection points: 2
#     Edge 65, Type (0, 1), BuildingBlock: MIFKUJ_clean_linker_0, # of connection points: 2
#     Edge 66, Type (0, 1), BuildingBlock: MIFKUJ_clean_linker_0, # of connection points: 2
#     Edge 67, Type (0, 1), BuildingBlock: MIFKUJ_clean_linker_0, # of connection points: 2
#     Edge 68, Type (0, 1), BuildingBlock: MIFKUJ_clean_linker_0, # of connection points: 2
#     Edge 69, Type (0, 1), BuildingBlock: MIFKUJ_clean_linker_0, # of connection points: 2
#     Edge 70, Type (0, 1), BuildingBlock: MIFKUJ_clean_linker_0, # of connection points: 2
#     Edge 71, Type (0, 1), BuildingBlock: MIFKUJ_clean_linker_0, # of connection points: 2
#     Edge 72, Type (0, 1), BuildingBlock: MIFKUJ_clean_linker_0, # of connection points: 2
#     Edge 73, Type (0, 1), BuildingBlock: MIFKUJ_clean_linker_0, # of connection points: 2
#     Edge 74, Type (0, 1), BuildingBlock: MIFKUJ_clean_linker_0, # of connection points: 2
#     Edge 75, Type (0, 1), BuildingBlock: MIFKUJ_clean_linker_0, # of connection points: 2
#     Edge 76, Type (0, 1), BuildingBlock: MIFKUJ_clean_linker_0, # of connection points: 2
#     Edge 77, Type (0, 1), BuildingBlock: MIFKUJ_clean_linker_0, # of connection points: 2
#     Edge 78, Type (0, 1), BuildingBlock: MIFKUJ_clean_linker_0, # of connection points: 2
#     Edge 79, Type (0, 1), BuildingBlock: MIFKUJ_clean_linker_0, # of connection points: 2
#     Edge 80, Type (0, 1), BuildingBlock: MIFKUJ_clean_linker_0, # of connection points: 2
# Relax obj value: 0.092
# Max RMSD: 0.177
# Mean RMSD: 0.088
data_MOF--net-eea--node1-WUSLED_clean_sbu_0--node2-LEVNOQ01_clean_sbu_1--edge1-MIFKUJ_clean_linker_0
_symmetry_space_group_name_H-M    P1
_symmetry_Int_Tables_number       1
_symmetry_cell_setting            triclinic
loop_
_symmetry_equiv_pos_as_xyz
'x, y, z'
_cell_length_a     87.54958
_cell_length_b     87.046269
_cell_length_c     87.546961
_cell_angle_alpha  90.104841
_cell_angle_beta   90.341264
_cell_angle_gamma 119.98128
loop_
_atom_site_label
_atom_site_type_symbol
_atom_site_fract_x
_atom_site_fract_y
_atom_site_fract_z
_atom_type_partial_charge
C0 C 0.22753 0.14824 0.39669 0.0
C1 C 0.2299 0.1602 0.40848 0.0
C2 C 0.22017 0.17588 0.39158 0.0
C3 C 0.22619 0.17387 0.40596 0.0
C4 C 0.21808 0.16399 0.37975 0.0
C5 C 0.22171 0.15027 0.3823 0.0
U6 U 0.24606 0.12546 0.42133 0.0
O7 O 0.2344 0.09768 0.4283 0.0
O8 O 0.259 0.11014 0.41519 0.0
C9 C 0.24639 0.09548 0.42124 0.0
C10 C 0.23066 0.13338 0.3994 0.0
C11 C 0.23983 0.0792 0.41204 0.0
C12 C 0.21661 0.0547 0.39758 0.0
C13 C 0.22318 0.07113 0.40492 0.0
C14 C 0.24355 0.05459 0.40389 0.0
C15 C 0.22665 0.04615 0.39716 0.0
C16 C 0.25004 0.07093 0.41128 0.0
C17 C 0.26916 0.1454 0.45856 0.0
C18 C 0.27447 0.12704 0.47618 0.0
C19 C 0.28513 0.15796 0.48227 0.0
C20 C 0.27813 0.15991 0.46847 0.0
C21 C 0.28312 0.14142 0.48636 0.0
C22 C 0.26761 0.12903 0.46237 0.0
C23 C 0.2608 0.14705 0.44456 0.0
O24 O 0.24722 0.13727 0.39881 0.0
O25 O 0.22211 0.12325 0.41103 0.0
O26 O 0.24377 0.13584 0.44354 0.0
O27 O 0.26924 0.14829 0.43184 0.0
H28 H 0.23449 0.15886 0.41966 0.0
H29 H 0.22815 0.18294 0.41524 0.0
H30 H 0.2133 0.16506 0.36859 0.0
H31 H 0.21978 0.14113 0.37309 0.0
H32 H 0.20365 0.04862 0.39232 0.0
H33 H 0.2151 0.07733 0.4053 0.0
H34 H 0.25153 0.04829 0.4039 0.0
H35 H 0.26289 0.07692 0.41677 0.0
H36 H 0.27293 0.11421 0.47894 0.0
H37 H 0.29163 0.16923 0.48994 0.0
H38 H 0.27944 0.17263 0.46568 0.0
H39 H 0.26081 0.11771 0.45477 0.0
C40 C 0.91932 0.15083 0.38573 0.0
C41 C 0.92851 0.16638 0.3945 0.0
C42 C 0.9529 0.17798 0.3765 0.0
C43 C 0.94515 0.17986 0.38991 0.0
C44 C 0.94349 0.16241 0.36771 0.0
C45 C 0.92686 0.14898 0.37229 0.0
U46 U 0.88242 0.12912 0.41504 0.0
O47 O 0.85357 0.1138 0.41179 0.0
O48 O 0.86747 0.10145 0.42257 0.0
C49 C 0.85237 0.09926 0.41744 0.0
C50 C 0.90211 0.13625 0.39064 0.0
C51 C 0.84119 0.08271 0.40898 0.0
C52 C 0.8373 0.05982 0.39085 0.0
C53 C 0.84803 0.07647 0.39764 0.0
C54 C 0.81277 0.05583 0.40637 0.0
C55 C 0.81959 0.0492 0.39529 0.0
C56 C 0.82347 0.07241 0.41312 0.0
C57 C 0.88451 0.1504 0.45316 0.0
C58 C 0.85952 0.13631 0.47032 0.0
C59 C 0.88756 0.16018 0.47956 0.0
C60 C 0.89481 0.16164 0.46507 0.0
C61 C 0.86983 0.14743 0.4824 0.0
C62 C 0.86681 0.13774 0.45586 0.0
C63 C 0.89248 0.15129 0.43821 0.0
O64 O 0.90267 0.12684 0.40213 0.0
O65 O 0.88945 0.14013 0.39187 0.0
O66 O 0.88384 0.15242 0.42633 0.0
O67 O 0.89782 0.13975 0.43626 0.0
H68 H 0.9229 0.16798 0.40497 0.0
H69 H 0.95212 0.19157 0.39704 0.0
H70 H 0.94896 0.16063 0.35723 0.0
H71 H 0.91993 0.13706 0.36538 0.0
H72 H 0.84291 0.05521 0.38221 0.0
H73 H 0.8617 0.08428 0.39427 0.0
H74 H 0.79931 0.04796 0.41024 0.0
H75 H 0.818 0.07699 0.42191 0.0
H76 H 0.84579 0.12652 0.47201 0.0
H77 H 0.89597 0.16877 0.48863 0.0
H78 H 0.90855 0.17136 0.46323 0.0
H79 H 0.85867 0.12887 0.4468 0.0
C80 C 0.85802 0.77227 0.3839 0.0
C81 C 0.84483 0.76859 0.39465 0.0
C82 C 0.83047 0.77903 0.377 0.0
C83 C 0.83118 0.77193 0.39123 0.0
C84 C 0.84352 0.78232 0.36612 0.0
C85 C 0.85724 0.779 0.36958 0.0
U86 U 0.88043 0.7586 0.41315 0.0
O87 O 0.89471 0.74383 0.41113 0.0
O88 O 0.90813 0.77095 0.42042 0.0
C89 C 0.90974 0.75753 0.41556 0.0
C90 C 0.87287 0.76969 0.38794 0.0
C91 C 0.92487 0.76224 0.40556 0.0
C92 C 0.94377 0.77912 0.38449 0.0
C93 C 0.92888 0.77423 0.39349 0.0
C94 C 0.95048 0.7597 0.39931 0.0
C95 C 0.95476 0.77194 0.38734 0.0
C96 C 0.93568 0.75493 0.40834 0.0
C97 C 0.85647 0.74342 0.45188 0.0
C98 C 0.85903 0.72529 0.47172 0.0
C99 C 0.84635 0.74377 0.47758 0.0
C100 C 0.84888 0.74964 0.46249 0.0
C101 C 0.85131 0.73146 0.48237 0.0
C102 C 0.86166 0.73128 0.4566 0.0
C103 C 0.8583 0.74955 0.43598 0.0
O104 O 0.88333 0.78047 0.39865 0.0
O105 O 0.86876 0.75312 0.39005 0.0
O106 O 0.85707 0.73838 0.42524 0.0
O107 O 0.87084 0.76594 0.43353 0.0
H108 H 0.84523 0.76334 0.40576 0.0
H109 H 0.82117 0.76898 0.39975 0.0
H110 H 0.8434 0.78791 0.3551 0.0
H111 H 0.86736 0.78194 0.36118 0.0
H112 H 0.94666 0.78845 0.37529 0.0
H113 H 0.9206 0.77994 0.39112 0.0
H114 H 0.95881 0.75413 0.40193 0.0
H115 H 0.93279 0.74567 0.41762 0.0
H116 H 0.86315 0.71595 0.47511 0.0
H117 H 0.84016 0.7486 0.48543 0.0
H118 H 0.84473 0.75896 0.45906 0.0
H119 H 0.86763 0.72636 0.4486 0.0
C120 C 0.08666 0.23394 0.62348 0.0
C121 C 0.0777 0.23943 0.61356 0.0
C122 C 0.05272 0.22768 0.6309 0.0
C123 C 0.06087 0.23636 0.61725 0.0
C124 C 0.06188 0.22234 0.64084 0.0
C125 C 0.0787 0.22546 0.63714 0.0
U126 U 0.12518 0.24884 0.596 0.0
O127 O 0.15378 0.26263 0.6008 0.0
O128 O 0.14067 0.23622 0.59008 0.0
C129 C 0.15521 0.249 0.59629 0.0
C130 C 0.10412 0.23663 0.6196 0.0
C131 C 0.1648 0.24337 0.60668 0.0
C132 C 0.16582 0.22121 0.62286 0.0
C133 C 0.15616 0.22699 0.61425 0.0
C134 C 0.19275 0.24846 0.61709 0.0
C135 C 0.18425 0.23178 0.62418 0.0
C136 C 0.18311 0.25416 0.60838 0.0
C137 C 0.1243 0.26691 0.55678 0.0
C138 C 0.14961 0.27824 0.53996 0.0
C139 C 0.12134 0.27265 0.53012 0.0
C140 C 0.11396 0.26705 0.54458 0.0
C141 C 0.13923 0.27824 0.52762 0.0
C142 C 0.14218 0.27254 0.55441 0.0
C143 C 0.11613 0.26015 0.57172 0.0
O144 O 0.10425 0.22643 0.60858 0.0
O145 O 0.11677 0.25324 0.61843 0.0
O146 O 0.12438 0.27037 0.58355 0.0
O147 O 0.11092 0.24335 0.57409 0.0
H148 H 0.08365 0.24595 0.60291 0.0
H149 H 0.0541 0.24045 0.60927 0.0
H150 H 0.05609 0.21586 0.65152 0.0
H151 H 0.08547 0.22116 0.64493 0.0
H152 H 0.15891 0.20837 0.62832 0.0
H153 H 0.14201 0.21847 0.61323 0.0
H154 H 0.20695 0.25681 0.61777 0.0
H155 H 0.19002 0.26683 0.60262 0.0
H156 H 0.16337 0.28231 0.53837 0.0
H157 H 0.11306 0.27271 0.5209 0.0
H158 H 0.10012 0.26269 0.54621 0.0
H159 H 0.15033 0.27235 0.56369 0.0
C160 C 0.76912 0.85327 0.6215 0.0
C161 C 0.76295 0.8385 0.61174 0.0
C162 C 0.77658 0.82592 0.62798 0.0
C163 C 0.76664 0.82494 0.61495 0.0
C164 C 0.78244 0.84063 0.63786 0.0
C165 C 0.77875 0.85418 0.63463 0.0
U166 U 0.75217 0.87466 0.59384 0.0
O167 O 0.73976 0.89103 0.59715 0.0
O168 O 0.76473 0.90174 0.58472 0.0
C169 C 0.75248 0.90474 0.59008 0.0
C170 C 0.76652 0.86821 0.61754 0.0
C171 C 0.75872 0.92229 0.59697 0.0
C172 C 0.77047 0.9432 0.61815 0.0
C173 C 0.76435 0.9261 0.61224 0.0
C174 C 0.76534 0.95266 0.59357 0.0
C175 C 0.77105 0.9567 0.60885 0.0
C176 C 0.75922 0.93564 0.58773 0.0
C177 C 0.73044 0.85222 0.55703 0.0
C178 C 0.7275 0.86996 0.53711 0.0
C179 C 0.71383 0.8381 0.53392 0.0
C180 C 0.72028 0.83689 0.54827 0.0
C181 C 0.71761 0.85469 0.52812 0.0
C182 C 0.73378 0.86872 0.55147 0.0
C183 C 0.73795 0.85124 0.57178 0.0
O184 O 0.7756 0.87742 0.60569 0.0
O185 O 0.75007 0.86475 0.61732 0.0
O186 O 0.72909 0.85124 0.58385 0.0
O187 O 0.75502 0.8621 0.57313 0.0
H188 H 0.75552 0.83762 0.60151 0.0
H189 H 0.76177 0.81372 0.6072 0.0
H190 H 0.79034 0.84195 0.64787 0.0
H191 H 0.78373 0.86555 0.64222 0.0
H192 H 0.77462 0.94582 0.63 0.0
H193 H 0.76405 0.91591 0.61953 0.0
H194 H 0.76591 0.96274 0.58599 0.0
H195 H 0.755 0.93293 0.57588 0.0
H196 H 0.7304 0.88287 0.53301 0.0
H197 H 0.70631 0.82613 0.52719 0.0
H198 H 0.71755 0.82405 0.55244 0.0
H199 H 0.74148 0.88069 0.55816 0.0
C200 C 0.08958 0.86028 0.62105 0.0
C201 C 0.07997 0.84468 0.61245 0.0
C202 C 0.05648 0.83329 0.6313 0.0
C203 C 0.06356 0.8313 0.61753 0.0
C204 C 0.06635 0.84888 0.63997 0.0
C205 C 0.08275 0.86226 0.63487 0.0
U206 U 0.12596 0.8801 0.59127 0.0
O207 O 0.13944 0.90675 0.58134 0.0
O208 O 0.15469 0.89716 0.59407 0.0
C209 C 0.15488 0.91055 0.58697 0.0
C210 C 0.1064 0.87482 0.61547 0.0
C211 C 0.16478 0.92791 0.59449 0.0
C212 C 0.16753 0.9492 0.61383 0.0
C213 C 0.15828 0.93213 0.60748 0.0
C214 C 0.1899 0.95776 0.59438 0.0
C215 C 0.18334 0.96226 0.60721 0.0
C216 C 0.18069 0.94074 0.58808 0.0
C217 C 0.1252 0.85593 0.55552 0.0
C218 C 0.14909 0.87138 0.53751 0.0
C219 C 0.12414 0.8427 0.53083 0.0
C220 C 0.11659 0.84195 0.54505 0.0
C221 C 0.14043 0.85749 0.52685 0.0
C222 C 0.14153 0.87061 0.5517 0.0
C223 C 0.11689 0.85567 0.57011 0.0
O224 O 0.1196 0.87165 0.6152 0.0
O225 O 0.10521 0.88261 0.60304 0.0
O226 O 0.11046 0.86644 0.57075 0.0
O227 O 0.12598 0.85644 0.58239 0.0
H228 H 0.08505 0.84299 0.6017 0.0
H229 H 0.05623 0.81958 0.61047 0.0
H230 H 0.0614 0.85075 0.65071 0.0
H231 H 0.09003 0.87423 0.64166 0.0
H232 H 0.16209 0.95229 0.62367 0.0
H233 H 0.14596 0.92234 0.61253 0.0
H234 H 0.2022 0.96739 0.58919 0.0
H235 H 0.18588 0.93765 0.57806 0.0
H236 H 0.16173 0.88284 0.53489 0.0
H237 H 0.11703 0.83189 0.52282 0.0
H238 H 0.10392 0.83059 0.54779 0.0
H239 H 0.14834 0.88156 0.55966 0.0
C240 C 0.89936 0.47926 0.72374 0.0
C241 C 0.90882 0.49622 0.73037 0.0
C242 C 0.88894 0.50468 0.71842 0.0
C243 C 0.90373 0.50886 0.72765 0.0
C244 C 0.8796 0.48771 0.71169 0.0
C245 C 0.88479 0.47513 0.71432 0.0
U246 U 0.91934 0.46052 0.75105 0.0
O247 O 0.90934 0.43345 0.75949 0.0
O248 O 0.9346 0.44698 0.74742 0.0
C249 C 0.92257 0.43224 0.75384 0.0
C250 C 0.90378 0.46545 0.72744 0.0
C251 C 0.91767 0.41564 0.74571 0.0
C252 C 0.90372 0.39527 0.72444 0.0
C253 C 0.90937 0.41181 0.73134 0.0
C254 C 0.91488 0.38649 0.74612 0.0
C255 C 0.90624 0.38233 0.73184 0.0
C256 C 0.92054 0.40298 0.75295 0.0
C257 C 0.9384 0.4839 0.78861 0.0
C258 C 0.95165 0.47228 0.80621 0.0
C259 C 0.94209 0.49239 0.81537 0.0
C260 C 0.93664 0.49356 0.8006 0.0
C261 C 0.94943 0.48154 0.81837 0.0
C262 C 0.94608 0.47336 0.79146 0.0
C263 C 0.93065 0.48352 0.7736 0.0
O264 O 0.92069 0.47055 0.72775 0.0
O265 O 0.89509 0.45539 0.73905 0.0
O266 O 0.91413 0.47094 0.77203 0.0
O267 O 0.94037 0.485 0.76169 0.0
H268 H 0.91997 0.49959 0.73787 0.0
H269 H 0.91108 0.52175 0.7331 0.0
H270 H 0.86828 0.48418 0.70439 0.0
H271 H 0.87727 0.46207 0.70919 0.0
H272 H 0.8973 0.39259 0.71336 0.0
H273 H 0.90702 0.42147 0.72561 0.0
H274 H 0.91679 0.3768 0.7523 0.0
H275 H 0.92683 0.40571 0.76411 0.0
H276 H 0.95709 0.46368 0.80821 0.0
H277 H 0.94039 0.49982 0.82449 0.0
H278 H 0.93062 0.50166 0.79861 0.0
H279 H 0.9473 0.46559 0.78237 0.0
C280 C 0.58647 0.48379 0.71733 0.0
C281 C 0.5947 0.49957 0.72587 0.0
C282 C 0.62028 0.5114 0.70921 0.0
C283 C 0.61143 0.51327 0.72183 0.0
C284 C 0.6118 0.49562 0.70056 0.0
C285 C 0.59504 0.48193 0.7046 0.0
U286 U 0.54989 0.46274 0.74643 0.0
O287 O 0.52099 0.4471 0.74364 0.0
O288 O 0.53527 0.43553 0.75507 0.0
C289 C 0.52003 0.43294 0.74992 0.0
C290 C 0.56932 0.46898 0.72201 0.0
C291 C 0.50884 0.41596 0.74208 0.0
C292 C 0.50508 0.39167 0.72577 0.0
C293 C 0.51584 0.40869 0.73185 0.0
C294 C 0.48019 0.38934 0.73973 0.0
C295 C 0.48717 0.38171 0.72981 0.0
C296 C 0.49093 0.40629 0.7458 0.0
C297 C 0.55239 0.4855 0.78364 0.0
C298 C 0.52718 0.47237 0.80059 0.0
C299 C 0.55585 0.49458 0.81026 0.0
C300 C 0.56305 0.49599 0.79575 0.0
C301 C 0.53786 0.48267 0.81285 0.0
C302 C 0.5344 0.4737 0.78614 0.0
C303 C 0.56026 0.48596 0.76875 0.0
O304 O 0.56996 0.45992 0.73374 0.0
O305 O 0.55644 0.47258 0.72288 0.0
O306 O 0.55142 0.48652 0.75677 0.0
O307 O 0.56573 0.47448 0.76724 0.0
H308 H 0.58826 0.50121 0.73577 0.0
H309 H 0.61745 0.52533 0.72862 0.0
H310 H 0.61831 0.49363 0.6909 0.0
H311 H 0.5889 0.46978 0.69793 0.0
H312 H 0.51079 0.38626 0.718 0.0
H313 H 0.52965 0.41601 0.72881 0.0
H314 H 0.46653 0.38198 0.74323 0.0
H315 H 0.48535 0.41167 0.75374 0.0
H316 H 0.51333 0.46292 0.80228 0.0
H317 H 0.56437 0.5028 0.81945 0.0
H318 H 0.57698 0.50507 0.79405 0.0
H319 H 0.52601 0.46529 0.77696 0.0
C320 C 0.52899 0.10932 0.71451 0.0
C321 C 0.51302 0.1036 0.72215 0.0
C322 C 0.50447 0.11879 0.70358 0.0
C323 C 0.50084 0.10825 0.71671 0.0
C324 C 0.52055 0.12456 0.69602 0.0
C325 C 0.5327 0.11983 0.70144 0.0
U326 U 0.54542 0.09087 0.74577 0.0
O327 O 0.55703 0.07357 0.74435 0.0
O328 O 0.57226 0.10019 0.75444 0.0
C329 C 0.57235 0.08588 0.74978 0.0
C330 C 0.54193 0.10463 0.72025 0.0
C331 C 0.58785 0.0891 0.74089 0.0
C332 C 0.60663 0.10103 0.71864 0.0
C333 C 0.59137 0.09745 0.7266 0.0
C334 C 0.61477 0.08774 0.7391 0.0
C335 C 0.61856 0.09628 0.72484 0.0
C336 C 0.59956 0.08418 0.74701 0.0
C337 C 0.51912 0.07551 0.78304 0.0
C338 C 0.52467 0.05995 0.80342 0.0
C339 C 0.50495 0.0715 0.80763 0.0
C340 C 0.5078 0.07795 0.79269 0.0
C341 C 0.51336 0.06244 0.81319 0.0
C342 C 0.52759 0.06649 0.78847 0.0
C343 C 0.52202 0.0827 0.76746 0.0
O344 O 0.55162 0.11426 0.73184 0.0
O345 O 0.53597 0.08757 0.72201 0.0
O346 O 0.5203 0.07172 0.75637 0.0
O347 O 0.53575 0.09864 0.76582 0.0
H348 H 0.51001 0.09559 0.73236 0.0
H349 H 0.4887 0.10382 0.72293 0.0
H350 H 0.52367 0.13256 0.68581 0.0
H351 H 0.545 0.12438 0.69543 0.0
H352 H 0.60908 0.10751 0.70765 0.0
H353 H 0.58241 0.10132 0.72171 0.0
H354 H 0.6238 0.08419 0.74437 0.0
H355 H 0.59708 0.0778 0.75806 0.0
H356 H 0.53148 0.05319 0.80742 0.0
H357 H 0.49599 0.07345 0.81476 0.0
H358 H 0.50116 0.08488 0.78868 0.0
H359 H 0.53648 0.06459 0.78119 0.0
C360 C 0.75636 0.57194 0.958 0.0
C361 C 0.74972 0.58186 0.95092 0.0
C362 C 0.72219 0.56552 0.96491 0.0
C363 C 0.73284 0.57875 0.9544 0.0
C364 C 0.72902 0.55572 0.97206 0.0
C365 C 0.74594 0.55893 0.96864 0.0
U366 U 0.79351 0.58596 0.92952 0.0
O367 O 0.82233 0.6002 0.93267 0.0
O368 O 0.80879 0.57322 0.92305 0.0
C369 C 0.8238 0.58671 0.92778 0.0
C370 C 0.77373 0.57443 0.9539 0.0
C371 C 0.83518 0.58228 0.93688 0.0
C372 C 0.84112 0.56948 0.95921 0.0
C373 C 0.83003 0.57399 0.95115 0.0
C374 C 0.86249 0.58166 0.93882 0.0
C375 C 0.85749 0.57327 0.95311 0.0
C376 C 0.85146 0.58614 0.93083 0.0
C377 C 0.79079 0.603 0.89047 0.0
C378 C 0.8093 0.60385 0.86953 0.0
C379 C 0.79377 0.62031 0.8678 0.0
C380 C 0.78664 0.61428 0.88229 0.0
C381 C 0.80508 0.61505 0.86123 0.0
C382 C 0.80231 0.59797 0.88406 0.0
C383 C 0.78313 0.59661 0.90566 0.0
O384 O 0.77344 0.56386 0.94302 0.0
O385 O 0.78646 0.59096 0.95233 0.0
O386 O 0.7919 0.60716 0.91715 0.0
O387 O 0.7779 0.57985 0.90836 0.0
H388 H 0.75752 0.59191 0.94259 0.0
H389 H 0.72815 0.58673 0.94884 0.0
H390 H 0.72112 0.54525 0.98002 0.0
H391 H 0.7508 0.55103 0.97412 0.0
H392 H 0.83692 0.5631 0.97021 0.0
H393 H 0.81745 0.57092 0.95596 0.0
H394 H 0.87478 0.58442 0.93361 0.0
H395 H 0.85557 0.59244 0.91978 0.0
H396 H 0.81816 0.59977 0.86484 0.0
H397 H 0.79019 0.62884 0.86163 0.0
H398 H 0.77783 0.61836 0.88709 0.0
H399 H 0.80585 0.58943 0.89027 0.0
C400 C 0.43731 0.18919 0.9562 0.0
C401 C 0.43514 0.17689 0.94479 0.0
C402 C 0.44707 0.16335 0.96184 0.0
C403 C 0.44004 0.16412 0.94757 0.0
C404 C 0.44895 0.17555 0.97331 0.0
C405 C 0.44415 0.18839 0.97049 0.0
U406 U 0.41535 0.20744 0.93073 0.0
O407 O 0.40077 0.22143 0.93568 0.0
O408 O 0.42478 0.23422 0.92183 0.0
C409 C 0.41226 0.23584 0.9285 0.0
C410 C 0.4328 0.20304 0.95309 0.0
C411 C 0.41815 0.25276 0.93643 0.0
C412 C 0.43566 0.27447 0.95593 0.0
C413 C 0.42908 0.2576 0.94941 0.0
C414 C 0.42015 0.28157 0.9367 0.0
C415 C 0.43142 0.28673 0.94953 0.0
C416 C 0.41358 0.26475 0.93024 0.0
C417 C 0.39262 0.18314 0.89449 0.0
C418 C 0.37759 0.19435 0.87852 0.0
C419 C 0.38717 0.17493 0.8677 0.0
C420 C 0.39377 0.17377 0.88196 0.0
C421 C 0.37927 0.18546 0.86579 0.0
C422 C 0.38433 0.1933 0.89275 0.0
C423 C 0.40168 0.18373 0.90883 0.0
O424 O 0.44046 0.21275 0.94101 0.0
O425 O 0.41594 0.19797 0.95393 0.0
O426 O 0.3932 0.18275 0.92147 0.0
O427 O 0.41837 0.19614 0.90928 0.0
H428 H 0.42978 0.17725 0.9337 0.0
H429 H 0.4382 0.15476 0.93858 0.0
H430 H 0.45447 0.1754 0.98438 0.0
H431 H 0.44592 0.1978 0.97941 0.0
H432 H 0.44413 0.27794 0.96592 0.0
H433 H 0.43276 0.24847 0.9543 0.0
H434 H 0.41684 0.29072 0.93131 0.0
H435 H 0.40525 0.26124 0.92015 0.0
H436 H 0.37171 0.20267 0.87733 0.0
H437 H 0.38847 0.1678 0.85811 0.0
H438 H 0.40024 0.16598 0.88309 0.0
H439 H 0.38355 0.20085 0.90226 0.0
C440 C 0.75737 0.19128 0.95484 0.0
C441 C 0.74771 0.17563 0.9463 0.0
C442 C 0.72369 0.1649 0.96464 0.0
C443 C 0.73102 0.16254 0.95117 0.0
C444 C 0.73358 0.18054 0.97323 0.0
C445 C 0.75027 0.1936 0.96837 0.0
U446 U 0.79334 0.21153 0.92465 0.0
O447 O 0.80763 0.23877 0.91585 0.0
O448 O 0.82221 0.22737 0.92702 0.0
C449 C 0.823 0.24143 0.92067 0.0
C450 C 0.77448 0.2056 0.94945 0.0
C451 C 0.83443 0.2586 0.92816 0.0
C452 C 0.84449 0.27802 0.95041 0.0
C453 C 0.83341 0.26131 0.94383 0.0
C454 C 0.85755 0.28929 0.92568 0.0
C455 C 0.85669 0.29223 0.94138 0.0
C456 C 0.84656 0.27266 0.91918 0.0
C457 C 0.79024 0.18902 0.88714 0.0
C458 C 0.80967 0.20627 0.8665 0.0
C459 C 0.7915 0.17436 0.86393 0.0
C460 C 0.78465 0.17351 0.87853 0.0
C461 C 0.80394 0.19079 0.8577 0.0
C462 C 0.80295 0.20538 0.88111 0.0
C463 C 0.78271 0.18829 0.90229 0.0
O464 O 0.78709 0.20164 0.94824 0.0
O465 O 0.77358 0.21449 0.9377 0.0
O466 O 0.77689 0.19945 0.90424 0.0
O467 O 0.79208 0.18797 0.91395 0.0
H468 H 0.75295 0.17368 0.93576 0.0
H469 H 0.72368 0.15077 0.94417 0.0
H470 H 0.72843 0.18269 0.98374 0.0
H471 H 0.75755 0.20562 0.97509 0.0
H472 H 0.84357 0.27978 0.96255 0.0
H473 H 0.82408 0.25057 0.95094 0.0
H474 H 0.86649 0.29996 0.91831 0.0
H475 H 0.84745 0.2708 0.90703 0.0
H476 H 0.81943 0.21907 0.86211 0.0
H477 H 0.78678 0.16223 0.85738 0.0
H478 H 0.77489 0.16077 0.88303 0.0
H479 H 0.80757 0.2175 0.88766 0.0
C480 C 0.56095 0.80841 0.05808 0.0
C481 C 0.55856 0.81747 0.0703 0.0
C482 C 0.55248 0.83522 0.0525 0.0
C483 C 0.55426 0.83066 0.06753 0.0
C484 C 0.55517 0.82632 0.04028 0.0
C485 C 0.55931 0.81297 0.04306 0.0
U486 U 0.58141 0.78907 0.08398 0.0
O487 O 0.57159 0.76208 0.0925 0.0
O488 O 0.59631 0.77527 0.07962 0.0
C489 C 0.58452 0.76068 0.0864 0.0
C490 C 0.56528 0.79435 0.06103 0.0
C491 C 0.57914 0.74389 0.07841 0.0
C492 C 0.563 0.72257 0.05824 0.0
C493 C 0.56929 0.73939 0.0648 0.0
C494 C 0.57663 0.71484 0.07873 0.0
C495 C 0.56636 0.71002 0.0653 0.0
C496 C 0.58296 0.73163 0.08521 0.0
C497 C 0.60183 0.81263 0.12124 0.0
C498 C 0.61687 0.80216 0.13803 0.0
C499 C 0.60522 0.82013 0.1482 0.0
C500 C 0.5993 0.82128 0.13363 0.0
C501 C 0.61382 0.81034 0.15058 0.0
C502 C 0.61079 0.80318 0.12347 0.0
C503 C 0.59361 0.81215 0.10645 0.0
O504 O 0.58218 0.79944 0.06085 0.0
O505 O 0.5569 0.78391 0.07255 0.0
O506 O 0.57701 0.79965 0.10526 0.0
O507 O 0.6029 0.8135 0.09425 0.0
H508 H 0.56 0.81433 0.082 0.0
H509 H 0.55254 0.83747 0.07717 0.0
H510 H 0.55382 0.82951 0.02858 0.0
H511 H 0.56119 0.80619 0.0335 0.0
H512 H 0.55502 0.7192 0.04795 0.0
H513 H 0.56614 0.7487 0.05947 0.0
H514 H 0.57965 0.70556 0.0843 0.0
H515 H 0.59054 0.73491 0.09574 0.0
H516 H 0.62334 0.79443 0.13958 0.0
H517 H 0.60288 0.82672 0.15765 0.0
H518 H 0.59231 0.82852 0.13212 0.0
H519 H 0.61265 0.7962 0.11406 0.0
C520 C 0.2529 0.81338 0.0502 0.0
C521 C 0.26134 0.83029 0.057 0.0
C522 C 0.28704 0.83922 0.04088 0.0
C523 C 0.27825 0.84312 0.05233 0.0
C524 C 0.27842 0.82228 0.03405 0.0
C525 C 0.2615 0.8095 0.03867 0.0
U526 U 0.21549 0.79463 0.07918 0.0
O527 O 0.18665 0.77974 0.07569 0.0
O528 O 0.19981 0.76765 0.08813 0.0
C529 C 0.18495 0.76547 0.08239 0.0
C530 C 0.2354 0.79951 0.0553 0.0
C531 C 0.17365 0.74844 0.07461 0.0
C532 C 0.16974 0.72388 0.05859 0.0
C533 C 0.18061 0.74091 0.06461 0.0
C534 C 0.14482 0.72205 0.0721 0.0
C535 C 0.15177 0.71412 0.06248 0.0
C536 C 0.15567 0.73902 0.07811 0.0
C537 C 0.21798 0.81871 0.11582 0.0
C538 C 0.19244 0.80764 0.13235 0.0
C539 C 0.22157 0.82807 0.14237 0.0
C540 C 0.22882 0.82871 0.12803 0.0
C541 C 0.20329 0.81743 0.14476 0.0
C542 C 0.19973 0.80821 0.11805 0.0
C543 C 0.22591 0.81835 0.10114 0.0
O544 O 0.23545 0.7907 0.06746 0.0
O545 O 0.22306 0.80391 0.0556 0.0
O546 O 0.21756 0.81897 0.08883 0.0
O547 O 0.23084 0.80639 0.10024 0.0
H548 H 0.25495 0.83348 0.06601 0.0
H549 H 0.2846 0.85595 0.05796 0.0
H550 H 0.28474 0.81891 0.0251 0.0
H551 H 0.25518 0.79652 0.03331 0.0
H552 H 0.17554 0.71813 0.05129 0.0
H553 H 0.19449 0.748 0.06178 0.0
H554 H 0.13099 0.71507 0.0751 0.0
H555 H 0.15007 0.74466 0.08578 0.0
H556 H 0.17831 0.79949 0.13369 0.0
H557 H 0.23037 0.83555 0.15169 0.0
H558 H 0.24296 0.83672 0.12657 0.0
H559 H 0.19114 0.80025 0.10878 0.0
C560 C 0.19081 0.43639 0.04931 0.0
C561 C 0.17478 0.42821 0.05722 0.0
C562 C 0.16326 0.44259 0.04068 0.0
C563 C 0.16112 0.43124 0.05291 0.0
C564 C 0.17932 0.45063 0.03271 0.0
C565 C 0.19297 0.44754 0.037 0.0
U566 U 0.21103 0.42134 0.0797 0.0
O567 O 0.22636 0.40764 0.07847 0.0
O568 O 0.238 0.43403 0.08915 0.0
C569 C 0.24055 0.42113 0.08449 0.0
C570 C 0.20554 0.43407 0.05444 0.0
C571 C 0.25737 0.42669 0.07666 0.0
C572 C 0.27458 0.43051 0.05379 0.0
C573 C 0.25838 0.42562 0.06072 0.0
C574 C 0.28887 0.43793 0.07863 0.0
C575 C 0.29 0.43657 0.0627 0.0
C576 C 0.27273 0.43299 0.08551 0.0
C577 C 0.18399 0.40238 0.11628 0.0
C578 C 0.19566 0.39852 0.14032 0.0
C579 C 0.16445 0.38831 0.13771 0.0
C580 C 0.16708 0.39417 0.12259 0.0
C581 C 0.17874 0.39062 0.14682 0.0
C582 C 0.19826 0.40433 0.12516 0.0
C583 C 0.18654 0.40959 0.10075 0.0
O584 O 0.21449 0.44409 0.06613 0.0
O585 O 0.20194 0.41754 0.05578 0.0
O586 O 0.18692 0.3995 0.08974 0.0
O587 O 0.1987 0.42635 0.09939 0.0
H588 H 0.17296 0.41972 0.06688 0.0
H589 H 0.14904 0.42506 0.05943 0.0
H590 H 0.18132 0.45931 0.02315 0.0
H591 H 0.20529 0.45402 0.03082 0.0
H592 H 0.27495 0.42921 0.04151 0.0
H593 H 0.24667 0.42086 0.05365 0.0
H594 H 0.3005 0.44291 0.08583 0.0
H595 H 0.27225 0.43403 0.09782 0.0
H596 H 0.20689 0.40027 0.14697 0.0
H597 H 0.1513 0.38247 0.14238 0.0
H598 H 0.15593 0.39261 0.1159 0.0
H599 H 0.21142 0.4106 0.12044 0.0
C600 C 0.42062 0.90014 0.28982 0.0
C601 C 0.41046 0.90467 0.28043 0.0
C602 C 0.38654 0.89202 0.29886 0.0
C603 C 0.39356 0.90067 0.28492 0.0
C604 C 0.39693 0.88775 0.3083 0.0
C605 C 0.41382 0.89178 0.3038 0.0
U606 U 0.45759 0.91627 0.26054 0.0
O607 O 0.48636 0.93025 0.26387 0.0
O608 O 0.47287 0.90387 0.2531 0.0
C609 C 0.48781 0.91697 0.25839 0.0
C610 C 0.43799 0.90338 0.28494 0.0
C611 C 0.49865 0.91172 0.26735 0.0
C612 C 0.50551 0.90127 0.29072 0.0
C613 C 0.4949 0.90639 0.28264 0.0
C614 C 0.52347 0.9067 0.26822 0.0
C615 C 0.51997 0.90145 0.28359 0.0
C616 C 0.51295 0.91182 0.26022 0.0
C617 C 0.4553 0.93502 0.2223 0.0
C618 C 0.47385 0.93636 0.20118 0.0
C619 C 0.45905 0.95358 0.20034 0.0
C620 C 0.45167 0.94698 0.21465 0.0
C621 C 0.47011 0.94822 0.19339 0.0
C622 C 0.4666 0.9299 0.21554 0.0
C623 C 0.44741 0.92802 0.23732 0.0
O624 O 0.4377 0.89348 0.27346 0.0
O625 O 0.45031 0.92012 0.28368 0.0
O626 O 0.45609 0.93804 0.24911 0.0
O627 O 0.44201 0.91112 0.23946 0.0
H628 H 0.4155 0.91106 0.26954 0.0
H629 H 0.38583 0.90396 0.27731 0.0
H630 H 0.39203 0.88133 0.31919 0.0
H631 H 0.42152 0.8882 0.31118 0.0
H632 H 0.5025 0.89736 0.30255 0.0
H633 H 0.48383 0.90619 0.28829 0.0
H634 H 0.53422 0.90661 0.26225 0.0
H635 H 0.51592 0.91576 0.24838 0.0
H636 H 0.48251 0.93219 0.19623 0.0
H637 H 0.45585 0.96262 0.19457 0.0
H638 H 0.44305 0.95114 0.21972 0.0
H639 H 0.46978 0.92086 0.22135 0.0
C640 C 0.09722 0.51443 0.29013 0.0
C641 C 0.09652 0.50328 0.27821 0.0
C642 C 0.1055 0.48746 0.2957 0.0
C643 C 0.10071 0.49001 0.28094 0.0
C644 C 0.10538 0.49818 0.30774 0.0
C645 C 0.10136 0.51161 0.30495 0.0
U646 U 0.07937 0.53605 0.26392 0.0
O647 O 0.06769 0.55302 0.26799 0.0
O648 O 0.09179 0.56286 0.2544 0.0
C649 C 0.08027 0.56645 0.26054 0.0
C650 C 0.09448 0.52947 0.2869 0.0
C651 C 0.08777 0.58403 0.26767 0.0
C652 C 0.10722 0.60629 0.28605 0.0
C653 C 0.09888 0.5888 0.28053 0.0
C654 C 0.09311 0.61412 0.26605 0.0
C655 C 0.10466 0.6192 0.27866 0.0
C656 C 0.08475 0.5967 0.26062 0.0
C657 C 0.05634 0.51299 0.22753 0.0
C658 C 0.04994 0.52971 0.20895 0.0
C659 C 0.04488 0.50042 0.20248 0.0
C660 C 0.05067 0.49899 0.21705 0.0
C661 C 0.04474 0.51594 0.19818 0.0
C662 C 0.0557 0.52824 0.22349 0.0
C663 C 0.06425 0.51236 0.24215 0.0
O664 O 0.10319 0.539 0.27504 0.0
O665 O 0.07804 0.526 0.28728 0.0
O666 O 0.05583 0.51274 0.2544 0.0
O667 O 0.08135 0.52322 0.24302 0.0
H668 H 0.09326 0.5052 0.26668 0.0
H669 H 0.10085 0.48223 0.27134 0.0
H670 H 0.10863 0.49638 0.31931 0.0
H671 H 0.10181 0.51999 0.31431 0.0
H672 H 0.1161 0.60984 0.29575 0.0
H673 H 0.10142 0.57915 0.28604 0.0
H674 H 0.09064 0.62368 0.26028 0.0
H675 H 0.07622 0.59321 0.25066 0.0
H676 H 0.0502 0.54191 0.20597 0.0
H677 H 0.04072 0.48949 0.19452 0.0
H678 H 0.05113 0.48714 0.22 0.0
H679 H 0.06017 0.53924 0.23145 0.0
C680 C 0.42289 0.5223 0.28464 0.0
C681 C 0.40852 0.51462 0.27442 0.0
C682 C 0.38937 0.49577 0.29462 0.0
C683 C 0.39191 0.50157 0.27939 0.0
C684 C 0.40387 0.50313 0.30473 0.0
C685 C 0.42047 0.51635 0.29979 0.0
U686 U 0.45933 0.54316 0.25503 0.0
O687 O 0.47435 0.57054 0.24678 0.0
O688 O 0.48826 0.55822 0.25757 0.0
C689 C 0.48953 0.57266 0.2516 0.0
C690 C 0.44033 0.53667 0.27975 0.0
C691 C 0.50094 0.58939 0.25967 0.0
C692 C 0.50686 0.60993 0.28068 0.0
C693 C 0.49623 0.59331 0.27383 0.0
C694 C 0.52701 0.61864 0.25937 0.0
C695 C 0.52226 0.62286 0.27341 0.0
C696 C 0.51644 0.60206 0.25258 0.0
C697 C 0.45541 0.52118 0.21707 0.0
C698 C 0.47932 0.53596 0.19899 0.0
C699 C 0.45178 0.51035 0.19099 0.0
C700 C 0.44508 0.50899 0.2057 0.0
C701 C 0.46894 0.52394 0.18744 0.0
C702 C 0.4726 0.53462 0.21366 0.0
C703 C 0.44799 0.52051 0.23222 0.0
O704 O 0.45269 0.53238 0.27838 0.0
O705 O 0.44019 0.5466 0.26851 0.0
O706 O 0.44294 0.53224 0.23437 0.0
O707 O 0.45705 0.51946 0.2438 0.0
H708 H 0.41007 0.5188 0.26261 0.0
H709 H 0.38104 0.49593 0.27128 0.0
H710 H 0.40228 0.49896 0.31654 0.0
H711 H 0.43139 0.52205 0.30785 0.0
H712 H 0.50278 0.61282 0.29145 0.0
H713 H 0.48423 0.58366 0.27941 0.0
H714 H 0.53891 0.62818 0.25361 0.0
H715 H 0.52024 0.59922 0.24164 0.0
H716 H 0.49249 0.5467 0.19658 0.0
H717 H 0.44353 0.50077 0.18239 0.0
H718 H 0.43177 0.49858 0.20815 0.0
H719 H 0.4807 0.54425 0.22229 0.0
O720 O 0.49866 0.98275 0.96526 0.0
Mg721 Mg 0.51758 0.99002 0.98253 0.0
O722 O 0.49975 0.00529 0.97709 0.0
Mg723 Mg 0.50519 0.00158 0.00335 0.0
O724 O 0.51184 0.97782 0.00333 0.0
O725 O 0.52401 0.97103 0.98379 0.0
O726 O 0.51058 0.99731 0.02963 0.0
O727 O 0.47569 0.97948 0.00512 0.0
Mg728 Mg 0.49535 0.01304 0.02382 0.0
O729 O 0.49814 0.02532 0.00334 0.0
O730 O 0.51657 0.02265 0.03936 0.0
O731 O 0.47249 0.98796 0.02784 0.0
O732 O 0.48654 0.03021 0.02434 0.0
C733 C 0.54593 0.02585 0.99131 0.0
C734 C 0.49608 0.99572 0.96507 0.0
C735 C 0.51831 0.96843 0.99761 0.0
C736 C 0.5166 0.00829 0.04076 0.0
C737 C 0.46642 0.97675 0.01704 0.0
C738 C 0.49112 0.03357 0.01026 0.0
O739 O 0.54157 0.01419 0.98098 0.0
O740 O 0.5349 0.02396 0.00163 0.0
O741 O 0.02063 0.50372 0.96856 0.0
Mg742 Mg 0.01796 0.52235 0.98173 0.0
O743 O 0.99687 0.48755 0.98169 0.0
Mg744 Mg 0.00219 0.50001 0.00654 0.0
O745 O 0.02816 0.52797 0.0033 0.0
O746 O 0.04086 0.54546 0.98303 0.0
O747 O 0.0066 0.51147 0.03146 0.0
O748 O 0.02034 0.48835 0.0118 0.0
Mg749 Mg 0.98505 0.472 0.03257 0.0
O750 O 0.977 0.47298 0.01096 0.0
O751 O 0.98644 0.49207 0.04692 0.0
O752 O 0.00771 0.46886 0.03054 0.0
O753 O 0.96058 0.4512 0.02711 0.0
C754 C 0.9836 0.5204 0.9898 0.0
C755 C 0.00601 0.48969 0.96978 0.0
C756 C 0.04085 0.54253 0.99747 0.0
C757 C 0.99889 0.50758 0.04435 0.0
C758 C 0.02023 0.47702 0.02112 0.0
C759 C 0.96294 0.45785 0.01359 0.0
O760 O 0.99536 0.52544 0.97958 0.0
O761 O 0.98392 0.51153 0.00127 0.0
O762 O 0.51822 0.4998 0.03942 0.0
Mg763 Mg 0.49676 0.47839 0.0282 0.0
O764 O 0.5104 0.51541 0.02515 0.0
Mg765 Mg 0.50294 0.50237 0.00066 0.0
O766 O 0.50128 0.47562 0.006 0.0
O767 O 0.49846 0.45607 0.02376 0.0
O768 O 0.49556 0.48881 0.9761 0.0
O769 O 0.53249 0.51367 0.99557 0.0
Mg770 Mg 0.50941 0.5236 0.97459 0.0
O771 O 0.50494 0.52998 0.99588 0.0
O772 O 0.48736 0.50437 0.96247 0.0
O773 O 0.53465 0.52536 0.97276 0.0
O774 O 0.51029 0.54719 0.9753 0.0
C775 C 0.46461 0.48202 0.01823 0.0
C776 C 0.51753 0.51379 0.03732 0.0
C777 C 0.50035 0.46074 0.00962 0.0
C778 C 0.48821 0.49046 0.96408 0.0
C779 C 0.54147 0.52121 0.9837 0.0
C780 C 0.50699 0.54449 0.9897 0.0
O781 O 0.47145 0.47677 0.0284 0.0
O782 O 0.47342 0.49076 0.00659 0.0
O783 O 0.16392 0.32124 0.29938 0.0
Mg784 Mg 0.18294 0.32436 0.31552 0.0
O785 O 0.16535 0.34253 0.31367 0.0
Mg786 Mg 0.1717 0.33785 0.33912 0.0
O787 O 0.17544 0.31265 0.33646 0.0
O788 O 0.18419 0.3021 0.31701 0.0
O789 O 0.17771 0.33358 0.36459 0.0
O790 O 0.14172 0.31819 0.34284 0.0
Mg791 Mg 0.15955 0.35358 0.36388 0.0
O792 O 0.16828 0.36253 0.34248 0.0
O793 O 0.17831 0.35435 0.37933 0.0
O794 O 0.13442 0.3302 0.36183 0.0
O795 O 0.16119 0.37725 0.35934 0.0
C796 C 0.21273 0.35906 0.3259 0.0
C797 C 0.16134 0.33413 0.30099 0.0
C798 C 0.17902 0.30086 0.33095 0.0
C799 C 0.18119 0.34165 0.37743 0.0
C800 C 0.13032 0.31782 0.35213 0.0
C801 C 0.16606 0.37585 0.34577 0.0
O802 O 0.20837 0.34727 0.31565 0.0
O803 O 0.20162 0.35799 0.33581 0.0
O804 O 0.68673 0.84416 0.29993 0.0
Mg805 Mg 0.68508 0.86272 0.31425 0.0
O806 O 0.66513 0.82426 0.31387 0.0
Mg807 Mg 0.66838 0.83444 0.33919 0.0
O808 O 0.69234 0.86276 0.33629 0.0
O809 O 0.70801 0.88522 0.32044 0.0
O810 O 0.67252 0.84606 0.36447 0.0
O811 O 0.68836 0.82499 0.34317 0.0
Mg812 Mg 0.65534 0.81324 0.36227 0.0
O813 O 0.64394 0.80483 0.34117 0.0
O814 O 0.6475 0.82835 0.3752 0.0
O815 O 0.68027 0.81484 0.36645 0.0
O816 O 0.63611 0.78776 0.36214 0.0
C817 C 0.64829 0.85489 0.32453 0.0
C818 C 0.67378 0.82868 0.30143 0.0
C819 C 0.70558 0.87854 0.33394 0.0
C820 C 0.66185 0.84279 0.37546 0.0
C821 C 0.69098 0.81888 0.35548 0.0
C822 C 0.63395 0.78965 0.34783 0.0
O823 O 0.66085 0.86297 0.31512 0.0
O824 O 0.64859 0.84428 0.33444 0.0
O825 O 0.15927 0.81125 0.37455 0.0
Mg826 Mg 0.1479 0.79903 0.35394 0.0
O827 O 0.17203 0.83698 0.36279 0.0
Mg828 Mg 0.16788 0.83136 0.33607 0.0
O829 O 0.16404 0.80241 0.33603 0.0
O830 O 0.15006 0.77755 0.35011 0.0
O831 O 0.16369 0.8239 0.30937 0.0
O832 O 0.19772 0.8404 0.33468 0.0
Mg833 Mg 0.17844 0.8552 0.31648 0.0
O834 O 0.17321 0.86154 0.33761 0.0
O835 O 0.15895 0.844 0.29939 0.0
O836 O 0.20262 0.8555 0.31347 0.0
O837 O 0.1856 0.88075 0.31822 0.0
C838 C 0.12326 0.80895 0.34098 0.0
C839 C 0.16841 0.82794 0.37508 0.0
C840 C 0.16003 0.78607 0.33877 0.0
C841 C 0.15867 0.82947 0.298 0.0
C842 C 0.20799 0.8492 0.32384 0.0
C843 C 0.18007 0.87755 0.33207 0.0
O844 O 0.12368 0.79628 0.34761 0.0
O845 O 0.13755 0.82269 0.33689 0.0
O846 O 0.83242 0.65188 0.63318 0.0
Mg847 Mg 0.85151 0.65746 0.65 0.0
O848 O 0.83409 0.67404 0.6462 0.0
Mg849 Mg 0.83961 0.66938 0.67204 0.0
O850 O 0.84492 0.64489 0.6706 0.0
O851 O 0.85639 0.63739 0.65093 0.0
O852 O 0.84517 0.66408 0.69799 0.0
O853 O 0.80998 0.64836 0.67398 0.0
Mg854 Mg 0.83075 0.68131 0.69365 0.0
O855 O 0.83378 0.69375 0.67324 0.0
O856 O 0.85259 0.68953 0.70828 0.0
O857 O 0.80735 0.65636 0.69714 0.0
O858 O 0.82381 0.70001 0.6946 0.0
C859 C 0.88047 0.69267 0.65984 0.0
C860 C 0.83008 0.66499 0.63384 0.0
C861 C 0.85049 0.63481 0.66468 0.0
C862 C 0.85202 0.67484 0.70919 0.0
C863 C 0.80092 0.64558 0.68603 0.0
C864 C 0.82807 0.70304 0.68042 0.0
O865 O 0.87599 0.68123 0.64928 0.0
O866 O 0.86946 0.69087 0.67014 0.0
O867 O 0.3556 0.17612 0.6378 0.0
Mg868 Mg 0.34637 0.18867 0.65223 0.0
O869 O 0.33206 0.15549 0.64881 0.0
Mg870 Mg 0.3356 0.16624 0.67466 0.0
O871 O 0.35826 0.19658 0.67307 0.0
O872 O 0.36372 0.21482 0.65313 0.0
O873 O 0.33844 0.17617 0.70014 0.0
O874 O 0.35862 0.15987 0.67693 0.0
Mg875 Mg 0.32657 0.13808 0.69748 0.0
O876 O 0.31265 0.13676 0.67811 0.0
O877 O 0.32565 0.15324 0.71554 0.0
O878 O 0.34995 0.13766 0.69312 0.0
O879 O 0.30433 0.11462 0.69496 0.0
C880 C 0.30966 0.17901 0.65998 0.0
C881 C 0.34255 0.16065 0.63745 0.0
C882 C 0.36694 0.21229 0.667 0.0
C883 C 0.33311 0.16973 0.71338 0.0
C884 C 0.36133 0.14861 0.68399 0.0
C885 C 0.30151 0.12063 0.68243 0.0
O886 O 0.32053 0.18468 0.64907 0.0
O887 O 0.31309 0.17289 0.67189 0.0
O888 O 0.84757 0.15927 0.7074 0.0
Mg889 Mg 0.82752 0.14179 0.69274 0.0
O890 O 0.8441 0.17935 0.6953 0.0
Mg891 Mg 0.83562 0.16962 0.6697 0.0
O892 O 0.8339 0.1418 0.6705 0.0
O893 O 0.82906 0.1201 0.68693 0.0
O894 O 0.82744 0.16017 0.64426 0.0
O895 O 0.86513 0.1814 0.66357 0.0
Mg896 Mg 0.84547 0.19882 0.64579 0.0
O897 O 0.83763 0.19728 0.66792 0.0
O898 O 0.82683 0.18075 0.63019 0.0
O899 O 0.8713 0.20201 0.64599 0.0
O900 O 0.84241 0.21959 0.65235 0.0
C901 C 0.79607 0.14645 0.68605 0.0
C902 C 0.84933 0.17455 0.70706 0.0
C903 C 0.83254 0.12647 0.67329 0.0
C904 C 0.82383 0.16506 0.63166 0.0
C905 C 0.876 0.19323 0.65448 0.0
C906 C 0.83886 0.21266 0.66579 0.0
O907 O 0.80193 0.13863 0.69446 0.0
O908 O 0.8059 0.15778 0.6761 0.0
H909 H 0.31478 0.8338 0.03563 0.0
H910 H 0.34515 0.85589 0.02937 0.0
H911 H 0.33124 0.89693 0.03003 0.0
H912 H 0.30071 0.87483 0.03601 0.0
H913 H 0.35363 0.90115 0.00617 0.0
H914 H 0.35046 0.89145 0.06048 0.0
H915 H 0.34351 0.87341 0.08382 0.0
H916 H 0.37876 0.85515 0.07005 0.0
H917 H 0.38573 0.8729 0.04651 0.0
H918 H 0.44435 0.96775 0.04132 0.0
H919 H 0.41421 0.94337 0.04331 0.0
H920 H 0.41724 0.92577 0.99791 0.0
H921 H 0.44759 0.95056 0.99569 0.0
H922 H 0.40026 0.9088 0.04301 0.0
H923 H 0.37546 0.90676 0.98165 0.0
H924 H 0.382 0.92655 0.95951 0.0
H925 H 0.40222 0.97168 0.98954 0.0
H926 H 0.39561 0.95214 0.01186 0.0
C927 C 0.3181 0.84748 0.03421 0.0
C928 C 0.30533 0.85256 0.03639 0.0
C929 C 0.3355 0.8601 0.03071 0.0
C930 C 0.34049 0.87808 0.02933 0.0
C931 C 0.32767 0.88313 0.03103 0.0
C932 C 0.31028 0.87052 0.0346 0.0
C933 C 0.35926 0.89172 0.02699 0.0
C934 C 0.36386 0.90277 0.01417 0.0
C935 C 0.37257 0.89396 0.0375 0.0
C936 C 0.36847 0.88334 0.05167 0.0
C937 C 0.35662 0.88347 0.06238 0.0
C938 C 0.3527 0.87332 0.07565 0.0
C939 C 0.36065 0.8631 0.0784 0.0
C940 C 0.37258 0.86305 0.06789 0.0
C941 C 0.37653 0.87316 0.05459 0.0
C942 C 0.4387 0.95871 0.03172 0.0
C943 C 0.44841 0.96118 0.0183 0.0
C944 C 0.42143 0.9447 0.03292 0.0
C945 C 0.41337 0.93279 0.02074 0.0
C946 C 0.4231 0.93494 0.00739 0.0
C947 C 0.44047 0.94905 0.00617 0.0
C948 C 0.39473 0.91833 0.02218 0.0
C949 C 0.39011 0.90706 0.03487 0.0
C950 C 0.3814 0.91614 0.01168 0.0
C951 C 0.38522 0.928 0.99839 0.0
C952 C 0.38125 0.9209 0.98352 0.0
C953 C 0.38498 0.93207 0.97094 0.0
C954 C 0.39258 0.95037 0.97311 0.0
C955 C 0.3964 0.95752 0.98787 0.0
C956 C 0.39269 0.9464 0.00048 0.0
H957 H 0.39547 0.95899 0.96336 0.0
H958 H 0.3576 0.85525 0.08868 0.0
H959 H 0.12775 0.41921 0.03892 0.0
H960 H 0.10418 0.42577 0.03362 0.0
H961 H 0.14277 0.48103 0.02763 0.0
H962 H 0.16641 0.47463 0.03338 0.0
H963 H 0.11655 0.47757 0.04526 0.0
H964 H 0.12102 0.45491 0.99703 0.0
H965 H 0.12236 0.43395 0.97887 0.0
H966 H 0.07036 0.39367 0.99187 0.0
H967 H 0.0688 0.41431 0.0103 0.0
H968 H 0.05425 0.49926 0.01244 0.0
H969 H 0.07916 0.49383 0.01408 0.0
H970 H 0.04456 0.44133 0.03134 0.0
H971 H 0.0197 0.44679 0.03011 0.0
H972 H 0.06951 0.44474 0.00658 0.0
H973 H 0.06666 0.4678 0.05616 0.0
H974 H 0.06559 0.4896 0.07349 0.0
H975 H 0.11543 0.53032 0.05654 0.0
H976 H 0.11664 0.50878 0.03892 0.0
C977 C 0.13123 0.43276 0.0365 0.0
C978 C 0.14897 0.44639 0.03658 0.0
C979 C 0.11774 0.43647 0.03333 0.0
C980 C 0.12171 0.45387 0.03008 0.0
C981 C 0.1394 0.4675 0.03005 0.0
C982 C 0.15291 0.46379 0.03321 0.0
C983 C 0.10732 0.45791 0.02729 0.0
C984 C 0.10645 0.47059 0.03662 0.0
C985 C 0.09397 0.44863 0.01617 0.0
C986 C 0.09487 0.43612 0.00516 0.0
C987 C 0.10993 0.44153 0.99613 0.0
C988 C 0.11072 0.42972 0.98576 0.0
C989 C 0.09648 0.41248 0.98425 0.0
C990 C 0.0814 0.40702 0.99308 0.0
C991 C 0.08055 0.41878 0.00347 0.0
C992 C 0.05194 0.48652 0.01648 0.0
C993 C 0.03507 0.47347 0.02122 0.0
C994 C 0.06616 0.48347 0.01743 0.0
C995 C 0.06364 0.46721 0.02285 0.0
C996 C 0.04672 0.45395 0.02712 0.0
C997 C 0.03258 0.45713 0.02648 0.0
C998 C 0.07877 0.46422 0.02461 0.0
C999 C 0.07974 0.45176 0.01511 0.0
C1000 C 0.09229 0.47379 0.03546 0.0
C1001 C 0.09163 0.48674 0.04608 0.0
C1002 C 0.0773 0.48144 0.05601 0.0
C1003 C 0.07668 0.49374 0.06591 0.0
C1004 C 0.0904 0.51135 0.06608 0.0
C1005 C 0.10479 0.51668 0.05637 0.0
C1006 C 0.10545 0.50443 0.04643 0.0
H1007 H 0.08991 0.52085 0.07376 0.0
H1008 H 0.09711 0.40335 0.97621 0.0
H1009 H 0.56499 0.69993 0.03546 0.0
H1010 H 0.55156 0.66976 0.02519 0.0
H1011 H 0.5368 0.64864 0.07067 0.0
H1012 H 0.5504 0.6788 0.08102 0.0
H1013 H 0.5487 0.63046 0.05507 0.0
H1014 H 0.50635 0.64884 0.0461 0.0
H1015 H 0.4959 0.66886 0.03713 0.0
H1016 H 0.50982 0.66403 0.99114 0.0
H1017 H 0.5206 0.64419 0.99986 0.0
H1018 H 0.50015 0.54442 0.02038 0.0
H1019 H 0.50558 0.57008 0.03615 0.0
H1020 H 0.52242 0.60317 0.99605 0.0
H1021 H 0.51636 0.57777 0.98039 0.0
H1022 H 0.50494 0.61285 0.01288 0.0
H1023 H 0.55164 0.59841 0.02293 0.0
H1024 H 0.56186 0.57814 0.03185 0.0
H1025 H 0.53924 0.57524 0.07587 0.0
H1026 H 0.52866 0.59527 0.06714 0.0
C1027 C 0.55883 0.68886 0.04326 0.0
C1028 C 0.55867 0.69174 0.05903 0.0
C1029 C 0.55116 0.67162 0.03739 0.0
C1030 C 0.5429 0.65691 0.04715 0.0
C1031 C 0.54306 0.65976 0.06293 0.0
C1032 C 0.55086 0.67701 0.06882 0.0
C1033 C 0.5339 0.6386 0.04078 0.0
C1034 C 0.53893 0.6265 0.046 0.0
C1035 C 0.52111 0.63339 0.02899 0.0
C1036 C 0.51437 0.6451 0.02366 0.0
C1037 C 0.50726 0.65212 0.03409 0.0
C1038 C 0.50128 0.66343 0.02904 0.0
C1039 C 0.50222 0.66773 0.01358 0.0
C1040 C 0.5091 0.66069 0.00312 0.0
C1041 C 0.51513 0.64939 0.0081 0.0
C1042 C 0.50476 0.55714 0.01497 0.0
C1043 C 0.50799 0.55907 0.99919 0.0
C1044 C 0.50796 0.57182 0.02398 0.0
C1045 C 0.51477 0.58869 0.01734 0.0
C1046 C 0.5172 0.59035 0.00148 0.0
C1047 C 0.51375 0.57574 0.99252 0.0
C1048 C 0.52035 0.60498 0.02664 0.0
C1049 C 0.51456 0.6167 0.02208 0.0
C1050 C 0.53245 0.60983 0.039 0.0
C1051 C 0.53924 0.5982 0.04435 0.0
C1052 C 0.54881 0.5934 0.0345 0.0
C1053 C 0.55464 0.58194 0.03951 0.0
C1054 C 0.55115 0.57537 0.0544 0.0
C1055 C 0.5419 0.58031 0.06433 0.0
C1056 C 0.53598 0.59171 0.05936 0.0
H1057 H 0.55566 0.56649 0.05826 0.0
H1058 H 0.49759 0.67651 0.0097 0.0
H1059 H 0.84822 0.30961 0.96297 0.0
H1060 H 0.86663 0.33986 0.97254 0.0
H1061 H 0.90935 0.34615 0.94398 0.0
H1062 H 0.89133 0.31564 0.93492 0.0
H1063 H 0.92173 0.36084 0.97089 0.0
H1064 H 0.88285 0.36359 0.93376 0.0
H1065 H 0.85404 0.35471 0.92177 0.0
H1066 H 0.83729 0.36931 0.96257 0.0
H1067 H 0.86593 0.37805 0.97489 0.0
H1068 H 0.97183 0.45214 0.98526 0.0
H1069 H 0.95349 0.42656 0.96874 0.0
H1070 H 0.90927 0.41151 0.99863 0.0
H1071 H 0.9275 0.4371 0.01498 0.0
H1072 H 0.89884 0.4027 0.96818 0.0
H1073 H 0.93626 0.39651 0.00592 0.0
H1074 H 0.96496 0.40532 0.01814 0.0
H1075 H 0.98436 0.39709 0.97577 0.0
H1076 H 0.95584 0.3885 0.96324 0.0
C1077 C 0.86162 0.3173 0.95891 0.0
C1078 C 0.86821 0.31021 0.94804 0.0
C1079 C 0.87207 0.3347 0.96424 0.0
C1080 C 0.88925 0.34545 0.95871 0.0
C1081 C 0.89608 0.3382 0.9483 0.0
C1082 C 0.88569 0.32078 0.94303 0.0
C1083 C 0.90004 0.36427 0.96368 0.0
C1084 C 0.91683 0.37005 0.97002 0.0
C1085 C 0.89362 0.37631 0.96274 0.0
C1086 C 0.87649 0.37136 0.95528 0.0
C1087 C 0.87299 0.36482 0.9402 0.0
C1088 C 0.85669 0.35982 0.93335 0.0
C1089 C 0.84383 0.36142 0.94141 0.0
C1090 C 0.84726 0.36808 0.95634 0.0
C1091 C 0.86353 0.37308 0.96326 0.0
C1092 C 0.95797 0.44391 0.98782 0.0
C1093 C 0.95101 0.44662 0.0013 0.0
C1094 C 0.94755 0.42916 0.9785 0.0
C1095 C 0.9301 0.41697 0.98263 0.0
C1096 C 0.92269 0.42071 0.99524 0.0
C1097 C 0.9331 0.43535 0.00457 0.0
C1098 C 0.9204 0.39914 0.9754 0.0
C1099 C 0.90381 0.39353 0.96876 0.0
C1100 C 0.92699 0.38724 0.97602 0.0
C1101 C 0.94401 0.39207 0.98361 0.0
C1102 C 0.94669 0.39669 0.99919 0.0
C1103 C 0.96292 0.40164 0.00617 0.0
C1104 C 0.9765 0.40182 0.99772 0.0
C1105 C 0.97385 0.39699 0.98229 0.0
C1106 C 0.95765 0.39208 0.97524 0.0
H1107 H 0.98905 0.40567 0.00314 0.0
H1108 H 0.83121 0.35752 0.93609 0.0
H1109 H 0.69801 0.56504 0.94461 0.0
H1110 H 0.66794 0.55835 0.94966 0.0
H1111 H 0.67439 0.54977 0.99719 0.0
H1112 H 0.70473 0.55689 0.99233 0.0
H1113 H 0.64299 0.52336 0.98508 0.0
H1114 H 0.67462 0.58664 0.98743 0.0
H1115 H 0.69515 0.61698 0.97863 0.0
H1116 H 0.66304 0.60817 0.93868 0.0
H1117 H 0.64244 0.57767 0.94714 0.0
H1118 H 0.56202 0.51874 0.00624 0.0
H1119 H 0.59299 0.52667 0.00465 0.0
H1120 H 0.5939 0.54094 0.95735 0.0
H1121 H 0.56313 0.53346 0.95894 0.0
H1122 H 0.62231 0.56535 0.97165 0.0
H1123 H 0.59163 0.50142 0.96861 0.0
H1124 H 0.57113 0.47107 0.97744 0.0
H1125 H 0.60148 0.48109 0.01872 0.0
H1126 H 0.62203 0.5116 0.01022 0.0
C1127 C 0.69319 0.56203 0.9562 0.0
C1128 C 0.70389 0.56162 0.96807 0.0
C1129 C 0.67594 0.55811 0.95905 0.0
C1130 C 0.66898 0.5537 0.97383 0.0
C1131 C 0.67951 0.55313 0.9857 0.0
C1132 C 0.69683 0.55713 0.98287 0.0
C1133 C 0.6506 0.54946 0.97674 0.0
C1134 C 0.63851 0.53263 0.98238 0.0
C1135 C 0.64472 0.56146 0.97298 0.0
C1136 C 0.65707 0.57981 0.96786 0.0
C1137 C 0.67201 0.59112 0.9767 0.0
C1138 C 0.68365 0.60836 0.97179 0.0
C1139 C 0.68042 0.61448 0.95808 0.0
C1140 C 0.66553 0.60339 0.94929 0.0
C1141 C 0.65386 0.58614 0.95414 0.0
C1142 C 0.56879 0.5235 0.99548 0.0
C1143 C 0.56008 0.52545 0.98271 0.0
C1144 C 0.58649 0.52798 0.99458 0.0
C1145 C 0.59575 0.53425 0.98084 0.0
C1146 C 0.58705 0.53617 0.96809 0.0
C1147 C 0.56943 0.53183 0.96901 0.0
C1148 C 0.61457 0.53909 0.97969 0.0
C1149 C 0.62678 0.55608 0.97442 0.0
C1150 C 0.62053 0.52722 0.98378 0.0
C1151 C 0.60825 0.50885 0.98885 0.0
C1152 C 0.59386 0.49719 0.97962 0.0
C1153 C 0.58224 0.47996 0.98455 0.0
C1154 C 0.58497 0.47417 0.99865 0.0
C1155 C 0.59936 0.4856 0.00781 0.0
C1156 C 0.611 0.50286 0.00294 0.0
H1157 H 0.57597 0.46083 0.00245 0.0
H1158 H 0.68944 0.62784 0.9543 0.0
H1159 H 0.46556 0.15347 0.94297 0.0
H1160 H 0.47528 0.13203 0.94815 0.0
H1161 H 0.4506 0.12156 0.99235 0.0
H1162 H 0.44098 0.14302 0.98728 0.0
H1163 H 0.48283 0.12653 0.99476 0.0
H1164 H 0.43257 0.09237 0.96151 0.0
H1165 H 0.41523 0.08626 0.93771 0.0
H1166 H 0.45764 0.08764 0.9122 0.0
H1167 H 0.47533 0.09399 0.93585 0.0
H1168 H 0.47075 0.04676 0.0202 0.0
H1169 H 0.46605 0.0693 0.00863 0.0
H1170 H 0.49904 0.07308 0.97078 0.0
H1171 H 0.50374 0.04992 0.98237 0.0
H1172 H 0.46791 0.07405 0.96222 0.0
H1173 H 0.51647 0.10446 0.99687 0.0
H1174 H 0.53249 0.10928 0.02128 0.0
H1175 H 0.49215 0.11424 0.04462 0.0
H1176 H 0.47576 0.10919 0.02039 0.0
C1177 C 0.46206 0.14645 0.95372 0.0
C1178 C 0.45254 0.14996 0.96474 0.0
C1179 C 0.46762 0.1342 0.95667 0.0
C1180 C 0.46359 0.12509 0.97061 0.0
C1181 C 0.45395 0.12848 0.98154 0.0
C1182 C 0.44849 0.14078 0.97865 0.0
C1183 C 0.46978 0.1124 0.97415 0.0
C1184 C 0.47948 0.11502 0.98766 0.0
C1185 C 0.46599 0.09772 0.96461 0.0
C1186 C 0.45535 0.09387 0.95041 0.0
C1187 C 0.43826 0.09152 0.95081 0.0
C1188 C 0.42835 0.08798 0.93735 0.0
C1189 C 0.43535 0.08662 0.92344 0.0
C1190 C 0.45225 0.08874 0.92298 0.0
C1191 C 0.46222 0.0923 0.9364 0.0
C1192 C 0.47709 0.0523 0.00941 0.0
C1193 C 0.4879 0.04672 0.00234 0.0
C1194 C 0.47434 0.06522 0.0028 0.0
C1195 C 0.4825 0.07315 0.98903 0.0
C1196 C 0.49276 0.06721 0.98151 0.0
C1197 C 0.49546 0.05404 0.98814 0.0
C1198 C 0.4804 0.08793 0.98306 0.0
C1199 C 0.47154 0.08576 0.96912 0.0
C1200 C 0.48487 0.10304 0.99223 0.0
C1201 C 0.49486 0.10639 0.0068 0.0
C1202 C 0.51097 0.1065 0.00722 0.0
C1203 C 0.52012 0.10927 0.02102 0.0
C1204 C 0.51334 0.11205 0.03449 0.0
C1205 C 0.4974 0.1121 0.03417 0.0
C1206 C 0.48819 0.10931 0.0204 0.0
H1207 H 0.52043 0.11418 0.04517 0.0
H1208 H 0.42766 0.08388 0.91304 0.0
H1209 H 0.70879 0.12873 0.96407 0.0
H1210 H 0.67858 0.10646 0.97059 0.0
H1211 H 0.66746 0.1479 0.98272 0.0
H1212 H 0.69766 0.17029 0.97616 0.0
H1213 H 0.65268 0.12018 0.003 0.0
H1214 H 0.65451 0.12781 0.94845 0.0
H1215 H 0.66602 0.1292 0.92254 0.0
H1216 H 0.65459 0.0753 0.92634 0.0
H1217 H 0.64323 0.07367 0.95236 0.0
H1218 H 0.55817 0.06021 0.00116 0.0
H1219 H 0.58833 0.08542 0.99851 0.0
H1220 H 0.60487 0.05026 0.97959 0.0
H1221 H 0.57492 0.02554 0.98154 0.0
H1222 H 0.61633 0.07721 0.96253 0.0
H1223 H 0.61601 0.06943 0.01722 0.0
H1224 H 0.60513 0.06763 0.04345 0.0
H1225 H 0.61397 0.12066 0.03992 0.0
H1226 H 0.62471 0.12269 0.01359 0.0
C1227 C 0.69992 0.13312 0.96809 0.0
C1228 C 0.70562 0.15131 0.96946 0.0
C1229 C 0.68267 0.12038 0.97186 0.0
C1230 C 0.67069 0.12552 0.97695 0.0
C1231 C 0.67648 0.14363 0.97882 0.0
C1232 C 0.69376 0.1564 0.97509 0.0
C1233 C 0.65194 0.112 0.97965 0.0
C1234 C 0.64462 0.11088 0.99412 0.0
C1235 C 0.64151 0.09976 0.96812 0.0
C1236 C 0.64815 0.10067 0.9524 0.0
C1237 C 0.65455 0.11629 0.94379 0.0
C1238 C 0.66104 0.11712 0.92908 0.0
C1239 C 0.66107 0.10236 0.92281 0.0
C1240 C 0.65457 0.08673 0.93121 0.0
C1241 C 0.64809 0.08584 0.94594 0.0
C1242 C 0.56835 0.05794 0.99658 0.0
C1243 C 0.56419 0.04099 0.99141 0.0
C1244 C 0.58558 0.07231 0.99511 0.0
C1245 C 0.59896 0.06979 0.98883 0.0
C1246 C 0.59482 0.05266 0.98429 0.0
C1247 C 0.57767 0.0385 0.98545 0.0
C1248 C 0.61709 0.08487 0.98609 0.0
C1249 C 0.62429 0.08643 0.97149 0.0
C1250 C 0.62741 0.09735 0.99756 0.0
C1251 C 0.62097 0.09614 0.01338 0.0
C1252 C 0.6155 0.08065 0.022 0.0
C1253 C 0.60939 0.0796 0.03689 0.0
C1254 C 0.60881 0.094 0.04333 0.0
C1255 C 0.6144 0.1095 0.03491 0.0
C1256 C 0.62051 0.11062 0.02001 0.0
H1257 H 0.60407 0.09316 0.05486 0.0
H1258 H 0.6661 0.10303 0.91142 0.0
H1259 H 0.89339 0.59231 0.95584 0.0
H1260 H 0.91294 0.58186 0.96512 0.0
H1261 H 0.86795 0.53215 0.97814 0.0
H1262 H 0.84815 0.5423 0.96844 0.0
H1263 H 0.89986 0.54819 0.99959 0.0
H1264 H 0.88211 0.53004 0.94709 0.0
H1265 H 0.87721 0.5355 0.92036 0.0
H1266 H 0.93213 0.57424 0.91621 0.0
H1267 H 0.93728 0.56922 0.94302 0.0
H1268 H 0.95056 0.50382 0.00236 0.0
H1269 H 0.92734 0.51145 0.99873 0.0
H1270 H 0.96247 0.5559 0.9708 0.0
H1271 H 0.98531 0.54794 0.9739 0.0
H1272 H 0.93257 0.53956 0.95746 0.0
H1273 H 0.95114 0.55971 0.0091 0.0
H1274 H 0.95723 0.55674 0.03615 0.0
H1275 H 0.90296 0.51709 0.04246 0.0
H1276 H 0.8966 0.51967 0.01538 0.0
C1277 C 0.88761 0.57919 0.96076 0.0
C1278 C 0.86919 0.56801 0.96112 0.0
C1279 C 0.89881 0.57331 0.96618 0.0
C1280 C 0.89185 0.5562 0.97217 0.0
C1281 C 0.87353 0.54543 0.97358 0.0
C1282 C 0.86225 0.55126 0.96804 0.0
C1283 C 0.90375 0.54907 0.9753 0.0
C1284 C 0.90685 0.54601 0.99041 0.0
C1285 C 0.91305 0.54659 0.9633 0.0
C1286 C 0.91004 0.54936 0.94709 0.0
C1287 C 0.89311 0.53981 0.94051 0.0
C1288 C 0.89029 0.54282 0.92534 0.0
C1289 C 0.90434 0.55523 0.9166 0.0
C1290 C 0.92125 0.56463 0.923 0.0
C1291 C 0.92413 0.5617 0.93817 0.0
C1292 C 0.9533 0.51526 0.99551 0.0
C1293 C 0.9697 0.52523 0.98835 0.0
C1294 C 0.94006 0.51966 0.9935 0.0
C1295 C 0.94316 0.53435 0.98458 0.0
C1296 C 0.95968 0.54445 0.97766 0.0
C1297 C 0.97275 0.5399 0.97946 0.0
C1298 C 0.92918 0.53903 0.98187 0.0
C1299 C 0.92558 0.54157 0.96673 0.0
C1300 C 0.91966 0.54126 0.9939 0.0
C1301 C 0.92345 0.53974 0.01018 0.0
C1302 C 0.94054 0.55026 0.01623 0.0
C1303 C 0.94403 0.54867 0.03157 0.0
C1304 C 0.93051 0.53669 0.04101 0.0
C1305 C 0.91344 0.52633 0.03513 0.0
C1306 C 0.90988 0.52786 0.01979 0.0
H1307 H 0.93324 0.53548 0.05288 0.0
H1308 H 0.90213 0.55755 0.90486 0.0
H1309 H 0.46521 0.30841 0.95988 0.0
H1310 H 0.47854 0.33923 0.96846 0.0
H1311 H 0.42905 0.33773 0.96119 0.0
H1312 H 0.41549 0.3068 0.95291 0.0
H1313 H 0.45698 0.36725 0.94859 0.0
H1314 H 0.44241 0.33683 0.99665 0.0
H1315 H 0.44224 0.31616 0.01597 0.0
H1316 H 0.49878 0.34604 0.01863 0.0
H1317 H 0.4993 0.36676 0.99917 0.0
H1318 H 0.47488 0.44623 0.98799 0.0
H1319 H 0.46484 0.41771 0.97543 0.0
H1320 H 0.51073 0.4168 0.9927 0.0
H1321 H 0.51978 0.44458 0.00643 0.0
H1322 H 0.48504 0.38815 0.99948 0.0
H1323 H 0.49987 0.41848 0.95089 0.0
H1324 H 0.4999 0.43842 0.931 0.0
H1325 H 0.44329 0.40901 0.92913 0.0
H1326 H 0.44296 0.38871 0.94892 0.0
C1327 C 0.45705 0.31451 0.96037 0.0
C1328 C 0.43926 0.3051 0.95569 0.0
C1329 C 0.46473 0.33217 0.9652 0.0
C1330 C 0.45477 0.34075 0.96547 0.0
C1331 C 0.43699 0.33138 0.96097 0.0
C1332 C 0.42928 0.31371 0.95621 0.0
C1333 C 0.46298 0.35962 0.97017 0.0
C1334 C 0.46302 0.37186 0.95976 0.0
C1335 C 0.47119 0.36564 0.9846 0.0
C1336 C 0.4709 0.35324 0.99634 0.0
C1337 C 0.45482 0.33891 0.00127 0.0
C1338 C 0.45466 0.3272 0.01226 0.0
C1339 C 0.4705 0.32976 0.01849 0.0
C1340 C 0.48653 0.34406 0.01378 0.0
C1341 C 0.48676 0.3558 0.00278 0.0
C1342 C 0.48313 0.44022 0.98858 0.0
C1343 C 0.49815 0.44757 0.99802 0.0
C1344 C 0.47741 0.42387 0.98136 0.0
C1345 C 0.48702 0.41494 0.98298 0.0
C1346 C 0.50295 0.42324 0.99133 0.0
C1347 C 0.50828 0.43923 0.99902 0.0
C1348 C 0.47943 0.39614 0.97778 0.0
C1349 C 0.47932 0.38377 0.98818 0.0
C1350 C 0.47122 0.39002 0.96331 0.0
C1351 C 0.4714 0.4022 0.95145 0.0
C1352 C 0.48743 0.41633 0.94629 0.0
C1353 C 0.48749 0.42768 0.935 0.0
C1354 C 0.47158 0.42509 0.92887 0.0
C1355 C 0.45559 0.41102 0.93391 0.0
C1356 C 0.45547 0.39954 0.9451 0.0
H1357 H 0.47157 0.43389 0.92018 0.0
H1358 H 0.47035 0.32068 0.027 0.0
H1359 H 0.12693 0.68569 0.07852 0.0
H1360 H 0.1081 0.65528 0.06949 0.0
H1361 H 0.13235 0.6699 0.02515 0.0
H1362 H 0.15085 0.70053 0.03397 0.0
H1363 H 0.09717 0.64995 0.02266 0.0
H1364 H 0.143 0.64689 0.05075 0.0
H1365 H 0.16167 0.65089 0.0733 0.0
H1366 H 0.11574 0.61605 0.09916 0.0
H1367 H 0.09676 0.61204 0.07681 0.0
H1368 H 0.07264 0.56932 0.98862 0.0
H1369 H 0.09153 0.59685 0.00232 0.0
H1370 H 0.05818 0.57674 0.04184 0.0
H1371 H 0.03901 0.54884 0.02808 0.0
H1372 H 0.09588 0.59858 0.0485 0.0
H1373 H 0.05016 0.60082 0.02005 0.0
H1374 H 0.03164 0.59667 0.99736 0.0
H1375 H 0.07746 0.63323 0.97222 0.0
H1376 H 0.09632 0.63737 0.99469 0.0
C1377 C 0.12815 0.6825 0.0668 0.0
C1378 C 0.1404 0.69558 0.05696 0.0
C1379 C 0.1175 0.66504 0.0617 0.0
C1380 C 0.11894 0.66025 0.0467 0.0
C1381 C 0.13105 0.67329 0.0368 0.0
C1382 C 0.14171 0.69076 0.04189 0.0
C1383 C 0.10766 0.64171 0.0412 0.0
C1384 C 0.09705 0.63876 0.02823 0.0
C1385 C 0.10706 0.62702 0.04875 0.0
C1386 C 0.11845 0.62931 0.06216 0.0
C1387 C 0.13687 0.64019 0.06128 0.0
C1388 C 0.14751 0.64244 0.07402 0.0
C1389 C 0.13989 0.63377 0.08767 0.0
C1390 C 0.12162 0.62278 0.08859 0.0
C1391 C 0.11092 0.6205 0.07589 0.0
C1392 C 0.06949 0.57054 0.00035 0.0
C1393 C 0.05419 0.557 0.0072 0.0
C1394 C 0.0803 0.58631 0.00815 0.0
C1395 C 0.07603 0.58897 0.02295 0.0
C1396 C 0.06162 0.57495 0.03037 0.0
C1397 C 0.05072 0.55902 0.02252 0.0
C1398 C 0.08572 0.60696 0.02984 0.0
C1399 C 0.09595 0.60979 0.04303 0.0
C1400 C 0.08599 0.6216 0.02253 0.0
C1401 C 0.07467 0.61928 0.00902 0.0
C1402 C 0.05631 0.60786 0.00964 0.0
C1403 C 0.04575 0.60553 0.99683 0.0
C1404 C 0.05337 0.61465 0.98335 0.0
C1405 C 0.07158 0.62616 0.98267 0.0
C1406 C 0.08221 0.62851 0.99545 0.0
H1407 H 0.04517 0.61283 0.97344 0.0
H1408 H 0.14815 0.63553 0.09752 0.0
H1409 H 0.30393 0.4543 0.03577 0.0
H1410 H 0.33311 0.4634 0.02518 0.0
H1411 H 0.34424 0.43892 0.06313 0.0
H1412 H 0.31514 0.42946 0.07356 0.0
H1413 H 0.37061 0.47342 0.05827 0.0
H1414 H 0.33495 0.41983 0.02843 0.0
H1415 H 0.311 0.40086 0.01049 0.0
H1416 H 0.33371 0.4412 0.97617 0.0
H1417 H 0.35768 0.46051 0.994 0.0
H1418 H 0.44236 0.46346 0.04135 0.0
H1419 H 0.41277 0.45813 0.04591 0.0
H1420 H 0.41496 0.48596 0.00456 0.0
H1421 H 0.44499 0.49159 0.99991 0.0
H1422 H 0.38248 0.45442 0.0084 0.0
H1423 H 0.41942 0.50675 0.03628 0.0
H1424 H 0.44337 0.52698 0.05365 0.0
H1425 H 0.41849 0.49115 0.09088 0.0
H1426 H 0.39451 0.47051 0.07367 0.0
C1427 C 0.31249 0.45062 0.04173 0.0
C1428 C 0.30724 0.44131 0.05562 0.0
C1429 C 0.32918 0.45588 0.03568 0.0
C1430 C 0.34087 0.45189 0.04341 0.0
C1431 C 0.33549 0.44228 0.05706 0.0
C1432 C 0.31887 0.43697 0.06304 0.0
C1433 C 0.35899 0.45821 0.03776 0.0
C1434 C 0.37319 0.46917 0.04741 0.0
C1435 C 0.3624 0.45331 0.0233 0.0
C1436 C 0.34798 0.4417 0.01261 0.0
C1437 C 0.33474 0.42473 0.01711 0.0
C1438 C 0.32119 0.4139 0.00695 0.0
C1439 C 0.3208 0.41985 0.99222 0.0
C1440 C 0.334 0.43662 0.9876 0.0
C1441 C 0.34758 0.44751 0.99772 0.0
C1442 C 0.43668 0.46854 0.0332 0.0
C1443 C 0.44621 0.47815 0.02036 0.0
C1444 C 0.4197 0.46545 0.03584 0.0
C1445 C 0.41176 0.47185 0.02569 0.0
C1446 C 0.42091 0.48098 0.01256 0.0
C1447 C 0.43806 0.4842 0.00995 0.0
C1448 C 0.39399 0.46908 0.02918 0.0
C1449 C 0.3799 0.45887 0.01916 0.0
C1450 C 0.39065 0.47484 0.04325 0.0
C1451 C 0.40519 0.48703 0.05365 0.0
C1452 C 0.41913 0.50309 0.04814 0.0
C1453 C 0.43269 0.51465 0.05796 0.0
C1454 C 0.43241 0.51038 0.07337 0.0
C1455 C 0.41864 0.49447 0.07896 0.0
C1456 C 0.40505 0.48283 0.06917 0.0
H1457 H 0.44286 0.51943 0.08097 0.0
H1458 H 0.3103 0.41144 0.98436 0.0
H1459 H 0.56765 0.86248 0.03214 0.0
H1460 H 0.56032 0.88579 0.02758 0.0
H1461 H 0.51986 0.86318 0.06184 0.0
H1462 H 0.52705 0.8397 0.06639 0.0
H1463 H 0.50847 0.87188 0.03534 0.0
H1464 H 0.55634 0.89997 0.07048 0.0
H1465 H 0.58588 0.90953 0.08119 0.0
H1466 H 0.60979 0.94029 0.04102 0.0
H1467 H 0.58039 0.9307 0.02996 0.0
H1468 H 0.50053 0.95064 0.02365 0.0
H1469 H 0.50462 0.9285 0.03795 0.0
H1470 H 0.54588 0.93592 0.00699 0.0
H1471 H 0.54175 0.95745 0.99272 0.0
H1472 H 0.55456 0.93544 0.0379 0.0
H1473 H 0.50703 0.90238 0.0012 0.0
H1474 H 0.4777 0.89262 0.9899 0.0
H1475 H 0.45345 0.87136 0.03311 0.0
H1476 H 0.48271 0.88123 0.04472 0.0
C1477 C 0.55714 0.86242 0.03865 0.0
C1478 C 0.54794 0.84929 0.04963 0.0
C1479 C 0.55306 0.87582 0.03613 0.0
C1480 C 0.53967 0.87632 0.0445 0.0
C1481 C 0.53029 0.86309 0.05533 0.0
C1482 C 0.53448 0.84976 0.05796 0.0
C1483 C 0.53536 0.89053 0.04164 0.0
C1484 C 0.51842 0.88579 0.03625 0.0
C1485 C 0.54838 0.90868 0.04275 0.0
C1486 C 0.56613 0.91451 0.04934 0.0
C1487 C 0.56789 0.90866 0.06387 0.0
C1488 C 0.58461 0.9141 0.07002 0.0
C1489 C 0.5997 0.92548 0.06178 0.0
C1490 C 0.59809 0.93147 0.04739 0.0
C1491 C 0.58139 0.92605 0.04118 0.0
C1492 C 0.51047 0.94752 0.01999 0.0
C1493 C 0.52065 0.9556 0.00696 0.0
C1494 C 0.5128 0.93493 0.02814 0.0
C1495 C 0.52557 0.93061 0.02349 0.0
C1496 C 0.53601 0.9391 0.01079 0.0
C1497 C 0.53351 0.95132 0.00257 0.0
C1498 C 0.52788 0.91675 0.03118 0.0
C1499 C 0.54448 0.92154 0.03743 0.0
C1500 C 0.51458 0.89868 0.03084 0.0
C1501 C 0.49704 0.89276 0.02388 0.0
C1502 C 0.49545 0.89578 0.00833 0.0
C1503 C 0.47884 0.8902 0.00186 0.0
C1504 C 0.46372 0.88144 0.0108 0.0
C1505 C 0.46518 0.87819 0.02622 0.0
C1506 C 0.48176 0.88378 0.03275 0.0
H1507 H 0.45087 0.87712 0.00577 0.0
H1508 H 0.61264 0.92969 0.06656 0.0
H1509 H 0.97955 0.17353 0.36523 0.0
H1510 H 0.00933 0.19643 0.35831 0.0
H1511 H 0.99707 0.23698 0.37085 0.0
H1512 H 0.96704 0.2141 0.37738 0.0
H1513 H 0.01605 0.24565 0.34482 0.0
H1514 H 0.02013 0.22598 0.3949 0.0
H1515 H 0.01614 0.20434 0.41484 0.0
H1516 H 0.04787 0.1886 0.38935 0.0
H1517 H 0.05184 0.20998 0.36914 0.0
H1518 H 0.10103 0.31808 0.36182 0.0
H1519 H 0.07084 0.29326 0.3628 0.0
H1520 H 0.0877 0.25876 0.34314 0.0
H1521 H 0.11811 0.28377 0.3419 0.0
H1522 H 0.06681 0.24589 0.37063 0.0
H1523 H 0.06467 0.26871 0.32145 0.0
H1524 H 0.06967 0.29234 0.30326 0.0
H1525 H 0.03494 0.30399 0.32883 0.0
H1526 H 0.02993 0.28059 0.34731 0.0
C1527 C 0.98309 0.18731 0.36632 0.0
C1528 C 0.9709 0.19197 0.37192 0.0
C1529 C 1.00018 0.2004 0.36248 0.0
C1530 C 0.00551 0.21843 0.36422 0.0
C1531 C 0.99327 0.22315 0.36945 0.0
C1532 C 0.97616 0.21006 0.37331 0.0
C1533 C 0.024 0.23234 0.36106 0.0
C1534 C 0.02714 0.24575 0.35054 0.0
C1535 C 0.03851 0.23234 0.36832 0.0
C1536 C 0.03609 0.21942 0.38041 0.0
C1537 C 0.02611 0.21778 0.39347 0.0
C1538 C 0.02388 0.20559 0.40484 0.0
C1539 C 0.03169 0.19505 0.40334 0.0
C1540 C 0.04179 0.19673 0.39048 0.0
C1541 C 0.04404 0.20889 0.37907 0.0
C1542 C 0.09833 0.30525 0.35761 0.0
C1543 C 0.11195 0.30285 0.35182 0.0
C1544 C 0.08106 0.2911 0.35812 0.0
C1545 C 0.07705 0.27422 0.35299 0.0
C1546 C 0.09056 0.27174 0.34711 0.0
C1547 C 0.10787 0.28601 0.34636 0.0
C1548 C 0.05882 0.25914 0.35445 0.0
C1549 C 0.05573 0.24558 0.36473 0.0
C1550 C 0.04438 0.25915 0.34712 0.0
C1551 C 0.04703 0.27297 0.33584 0.0
C1552 C 0.05818 0.27638 0.32325 0.0
C1553 C 0.061 0.28972 0.31288 0.0
C1554 C 0.05266 0.29969 0.31491 0.0
C1555 C 0.04141 0.29627 0.32728 0.0
C1556 C 0.03855 0.28294 0.33769 0.0
H1557 H 0.0549 0.31005 0.30689 0.0
H1558 H 0.02996 0.18563 0.41215 0.0
H1559 H 0.81817 0.79519 0.39602 0.0
H1560 H 0.79457 0.80177 0.3911 0.0
H1561 H 0.78746 0.77964 0.34575 0.0
H1562 H 0.81114 0.77295 0.35062 0.0
H1563 H 0.78687 0.81081 0.34595 0.0
H1564 H 0.75886 0.7559 0.37356 0.0
H1565 H 0.75556 0.73591 0.39479 0.0
H1566 H 0.75156 0.77134 0.42658 0.0
H1567 H 0.75507 0.79166 0.40556 0.0
H1568 H 0.70587 0.80944 0.33283 0.0
H1569 H 0.72941 0.80226 0.3353 0.0
H1570 H 0.73405 0.81502 0.38343 0.0
H1571 H 0.70964 0.82097 0.38113 0.0
H1572 H 0.73546 0.7871 0.38057 0.0
H1573 H 0.76489 0.84288 0.35364 0.0
H1574 H 0.76889 0.86351 0.33274 0.0
H1575 H 0.77104 0.82767 0.30021 0.0
H1576 H 0.76684 0.80673 0.3209 0.0
C1577 C 0.8115 0.79158 0.38504 0.0
C1578 C 0.8164 0.78338 0.37376 0.0
C1579 C 0.79804 0.79539 0.38223 0.0
C1580 C 0.78909 0.79095 0.36815 0.0
C1581 C 0.79419 0.78313 0.35671 0.0
C1582 C 0.80772 0.77935 0.3595 0.0
C1583 C 0.77434 0.7944 0.36548 0.0
C1584 C 0.77549 0.80546 0.35338 0.0
C1585 C 0.75969 0.78768 0.37536 0.0
C1586 C 0.75736 0.77536 0.38799 0.0
C1587 C 0.75738 0.75948 0.38509 0.0
C1588 C 0.75546 0.74808 0.39709 0.0
C1589 C 0.75339 0.75237 0.41203 0.0
C1590 C 0.75318 0.76804 0.415 0.0
C1591 C 0.75511 0.77949 0.40305 0.0
C1592 C 0.71203 0.81081 0.3439 0.0
C1593 C 0.70601 0.81579 0.35679 0.0
C1594 C 0.72557 0.80682 0.3453 0.0
C1595 C 0.73382 0.8084 0.35951 0.0
C1596 C 0.72793 0.81366 0.37234 0.0
C1597 C 0.71403 0.81712 0.37103 0.0
C1598 C 0.7481 0.80395 0.36122 0.0
C1599 C 0.74681 0.79255 0.37311 0.0
C1600 C 0.7627 0.8105 0.35121 0.0
C1601 C 0.76539 0.82318 0.3388 0.0
C1602 C 0.76612 0.83936 0.34202 0.0
C1603 C 0.76843 0.85111 0.33021 0.0
C1604 C 0.77018 0.84689 0.31516 0.0
C1605 C 0.76967 0.83092 0.31188 0.0
C1606 C 0.76734 0.81912 0.32364 0.0
H1607 H 0.77195 0.856 0.30603 0.0
H1608 H 0.75191 0.74353 0.4213 0.0
H1609 H 0.24343 0.03412 0.37854 0.0
H1610 H 0.232 0.0041 0.36848 0.0
H1611 H 0.18203 0.98757 0.39007 0.0
H1612 H 0.19351 0.01757 0.40044 0.0
H1613 H 0.19437 0.96417 0.39501 0.0
H1614 H 0.18514 0.99323 0.3523 0.0
H1615 H 0.19383 0.01696 0.33326 0.0
H1616 H 0.23319 0.00606 0.31579 0.0
H1617 H 0.22491 0.98243 0.33486 0.0
H1618 H 0.15877 0.87971 0.35423 0.0
H1619 H 0.16335 0.9071 0.36686 0.0
H1620 H 0.21336 0.93682 0.34408 0.0
H1621 H 0.20856 0.91002 0.33126 0.0
H1622 H 0.19552 0.95246 0.33972 0.0
H1623 H 0.20974 0.92841 0.3838 0.0
H1624 H 0.20523 0.9074 0.40448 0.0
H1625 H 0.16002 0.90995 0.41977 0.0
H1626 H 0.16432 0.93105 0.39918 0.0
C1627 C 0.23001 0.0241 0.38114 0.0
C1628 C 0.21936 0.02822 0.39025 0.0
C1629 C 0.22345 0.00699 0.37531 0.0
C1630 C 0.20611 0.99365 0.37842 0.0
C1631 C 0.19542 0.9977 0.38749 0.0
C1632 C 0.20195 0.01486 0.39328 0.0
C1633 C 0.1994 0.97541 0.37246 0.0
C1634 C 0.19426 0.96148 0.38289 0.0
C1635 C 0.19961 0.97204 0.35669 0.0
C1636 C 0.20446 0.98611 0.34508 0.0
C1637 C 0.19572 0.99596 0.34446 0.0
C1638 C 0.20056 0.00939 0.33365 0.0
C1639 C 0.21406 0.01303 0.32334 0.0
C1640 C 0.22273 0.00322 0.32378 0.0
C1641 C 0.21795 0.98979 0.33458 0.0
C1642 C 0.17079 0.8921 0.35215 0.0
C1643 C 0.18317 0.89286 0.3416 0.0
C1644 C 0.17343 0.90772 0.35936 0.0
C1645 C 0.18864 0.92411 0.35628 0.0
C1646 C 0.20139 0.92447 0.34645 0.0
C1647 C 0.19864 0.9091 0.33913 0.0
C1648 C 0.19115 0.94123 0.36231 0.0
C1649 C 0.19535 0.95499 0.35184 0.0
C1650 C 0.1904 0.9445 0.37804 0.0
C1651 C 0.1872 0.93109 0.38985 0.0
C1652 C 0.1987 0.9243 0.39145 0.0
C1653 C 0.19624 0.91246 0.40321 0.0
C1654 C 0.18233 0.90732 0.41342 0.0
C1655 C 0.17078 0.91394 0.41185 0.0
C1656 C 0.17325 0.92586 0.40016 0.0
H1657 H 0.18055 0.89829 0.42259 0.0
H1658 H 0.2178 0.02344 0.31498 0.0
H1659 H 0.53702 0.65483 0.25883 0.0
H1660 H 0.55514 0.68439 0.26992 0.0
H1661 H 0.55029 0.66118 0.3144 0.0
H1662 H 0.5321 0.63155 0.30337 0.0
H1663 H 0.54515 0.68871 0.31601 0.0
H1664 H 0.58788 0.67697 0.29258 0.0
H1665 H 0.60203 0.66978 0.27166 0.0
H1666 H 0.61065 0.71624 0.2474 0.0
H1667 H 0.59622 0.72352 0.26803 0.0
H1668 H 0.61372 0.75606 0.35836 0.0
H1669 H 0.59381 0.72958 0.34404 0.0
H1670 H 0.60416 0.76058 0.30304 0.0
H1671 H 0.62473 0.78744 0.31741 0.0
H1672 H 0.60526 0.73095 0.29755 0.0
H1673 H 0.56419 0.74368 0.32202 0.0
H1674 H 0.55109 0.75123 0.34357 0.0
H1675 H 0.54013 0.70315 0.3663 0.0
H1676 H 0.55338 0.69542 0.34499 0.0
C1677 C 0.53995 0.65601 0.27096 0.0
C1678 C 0.53319 0.64083 0.28022 0.0
C1679 C 0.55031 0.67292 0.27727 0.0
C1680 C 0.55426 0.67501 0.29296 0.0
C1681 C 0.54741 0.6599 0.30226 0.0
C1682 C 0.53698 0.64297 0.29596 0.0
C1683 C 0.56526 0.69294 0.29979 0.0
C1684 C 0.55835 0.69788 0.31206 0.0
C1685 C 0.58227 0.70517 0.29428 0.0
C1686 C 0.59071 0.70064 0.28176 0.0
C1687 C 0.59258 0.68553 0.2827 0.0
C1688 C 0.60069 0.68146 0.2709 0.0
C1689 C 0.60716 0.6925 0.25818 0.0
C1690 C 0.60556 0.70766 0.25723 0.0
C1691 C 0.5974 0.71175 0.26897 0.0
C1692 C 0.6117 0.7574 0.34633 0.0
C1693 C 0.62081 0.77395 0.33904 0.0
C1694 C 0.60019 0.74217 0.33815 0.0
C1695 C 0.5972 0.74308 0.32252 0.0
C1696 C 0.60617 0.75958 0.31514 0.0
C1697 C 0.61788 0.77491 0.32335 0.0
C1698 C 0.58527 0.72655 0.31395 0.0
C1699 C 0.59196 0.72187 0.30136 0.0
C1700 C 0.56806 0.71452 0.31916 0.0
C1701 C 0.55987 0.71902 0.33192 0.0
C1702 C 0.55907 0.73476 0.33165 0.0
C1703 C 0.55161 0.73907 0.34382 0.0
C1704 C 0.5448 0.72769 0.3563 0.0
C1705 C 0.5454 0.71195 0.35662 0.0
C1706 C 0.55286 0.70759 0.34448 0.0
H1707 H 0.53905 0.73106 0.36572 0.0
H1708 H 0.61347 0.68934 0.24908 0.0
H1709 H 0.37027 0.91181 0.29596 0.0
H1710 H 0.34004 0.90334 0.30275 0.0
H1711 H 0.33146 0.85294 0.31912 0.0
H1712 H 0.3615 0.86109 0.31189 0.0
H1713 H 0.30431 0.84848 0.30201 0.0
H1714 H 0.33666 0.88529 0.34413 0.0
H1715 H 0.35984 0.91186 0.35735 0.0
H1716 H 0.33995 0.94345 0.33733 0.0
H1717 H 0.31679 0.91712 0.3238 0.0
H1718 H 0.22174 0.82982 0.33653 0.0
H1719 H 0.25232 0.83591 0.33469 0.0
H1720 H 0.26613 0.88306 0.3087 0.0
H1721 H 0.23575 0.8769 0.31015 0.0
H1722 H 0.29033 0.88721 0.33357 0.0
H1723 H 0.26021 0.85054 0.28939 0.0
H1724 H 0.23681 0.82371 0.27663 0.0
H1725 H 0.25254 0.79147 0.3017 0.0
H1726 H 0.2759 0.81812 0.31478 0.0
C1727 C 0.36193 0.89889 0.30093 0.0
C1728 C 0.36832 0.88714 0.3034 0.0
C1729 C 0.3447 0.89413 0.30496 0.0
C1730 C 0.33354 0.87758 0.31163 0.0
C1731 C 0.33986 0.86581 0.31407 0.0
C1732 C 0.35709 0.87055 0.31004 0.0
C1733 C 0.31512 0.8724 0.31559 0.0
C1734 C 0.30128 0.85679 0.30916 0.0
C1735 C 0.31112 0.88333 0.32478 0.0
C1736 C 0.32507 0.89924 0.33284 0.0
C1737 C 0.33731 0.89793 0.34244 0.0
C1738 C 0.35044 0.91295 0.35001 0.0
C1739 C 0.35139 0.92934 0.34815 0.0
C1740 C 0.3392 0.93075 0.33874 0.0
C1741 C 0.32606 0.91577 0.33113 0.0
C1742 C 0.23135 0.8415 0.33049 0.0
C1743 C 0.22637 0.85283 0.32341 0.0
C1744 C 0.24875 0.84494 0.32943 0.0
C1745 C 0.26141 0.85993 0.32156 0.0
C1746 C 0.25654 0.87146 0.31484 0.0
C1747 C 0.23916 0.86785 0.31562 0.0
C1748 C 0.2797 0.86351 0.31983 0.0
C1749 C 0.29345 0.87882 0.32663 0.0
C1750 C 0.28362 0.85228 0.31108 0.0
C1751 C 0.26963 0.83628 0.30321 0.0
C1752 C 0.25856 0.83771 0.2923 0.0
C1753 C 0.24533 0.82254 0.28498 0.0
C1754 C 0.24314 0.80589 0.28839 0.0
C1755 C 0.25422 0.80438 0.2991 0.0
C1756 C 0.26746 0.8195 0.30646 0.0
H1757 H 0.23289 0.79416 0.28271 0.0
H1758 H 0.36155 0.94095 0.35403 0.0
H1759 H 0.13187 0.49081 0.31487 0.0
H1760 H 0.14324 0.47059 0.31791 0.0
H1761 H 0.10552 0.43495 0.28469 0.0
H1762 H 0.09322 0.45463 0.28228 0.0
H1763 H 0.10862 0.41648 0.30684 0.0
H1764 H 0.14932 0.46268 0.27509 0.0
H1765 H 0.16877 0.49355 0.26695 0.0
H1766 H 0.20104 0.50341 0.30696 0.0
H1767 H 0.18163 0.47266 0.31547 0.0
H1768 H 0.15328 0.36821 0.31649 0.0
H1769 H 0.14528 0.38661 0.30088 0.0
H1770 H 0.17071 0.42915 0.33381 0.0
H1771 H 0.17869 0.41094 0.34925 0.0
H1772 H 0.17348 0.44179 0.30462 0.0
H1773 H 0.12761 0.39708 0.33807 0.0
H1774 H 0.10794 0.36606 0.34585 0.0
H1775 H 0.08559 0.35316 0.30064 0.0
H1776 H 0.10526 0.3841 0.29259 0.0
C1777 C 0.12569 0.47852 0.30841 0.0
C1778 C 0.11165 0.47447 0.29825 0.0
C1779 C 0.13243 0.46708 0.30998 0.0
C1780 C 0.12559 0.45147 0.30119 0.0
C1781 C 0.11118 0.44703 0.29143 0.0
C1782 C 0.10427 0.45839 0.28998 0.0
C1783 C 0.13358 0.43991 0.30233 0.0
C1784 C 0.12276 0.42194 0.30598 0.0
C1785 C 0.15203 0.44693 0.30113 0.0
C1786 C 0.16396 0.46536 0.29594 0.0
C1787 C 0.16052 0.47145 0.28219 0.0
C1788 C 0.17154 0.48893 0.27751 0.0
C1789 C 0.18612 0.50044 0.28644 0.0
C1790 C 0.18974 0.49447 0.30005 0.0
C1791 C 0.17875 0.47701 0.30479 0.0
C1792 C 0.15785 0.38178 0.31997 0.0
C1793 C 0.16654 0.3882 0.33407 0.0
C1794 C 0.15311 0.39221 0.31115 0.0
C1795 C 0.1571 0.40912 0.31636 0.0
C1796 C 0.16744 0.41614 0.32959 0.0
C1797 C 0.17201 0.40573 0.33841 0.0
C1798 C 0.14859 0.41865 0.30966 0.0
C1799 C 0.1593 0.43626 0.30499 0.0
C1800 C 0.13004 0.41126 0.30974 0.0
C1801 C 0.118 0.39281 0.31469 0.0
C1802 C 0.11854 0.3876 0.32979 0.0
C1803 C 0.10739 0.37004 0.33424 0.0
C1804 C 0.09555 0.35763 0.32374 0.0
C1805 C 0.09478 0.36278 0.30877 0.0
C1806 C 0.10592 0.38031 0.30425 0.0
H1807 H 0.08695 0.34404 0.3272 0.0
H1808 H 0.19463 0.51397 0.2828 0.0
H1809 H 0.38043 0.46625 0.3118 0.0
H1810 H 0.35081 0.44351 0.31976 0.0
H1811 H 0.32866 0.47212 0.2974 0.0
H1812 H 0.35818 0.49486 0.28943 0.0
H1813 H 0.31479 0.45941 0.32706 0.0
H1814 H 0.32659 0.43821 0.27964 0.0
H1815 H 0.34384 0.42966 0.26308 0.0
H1816 H 0.33818 0.39025 0.29553 0.0
H1817 H 0.32109 0.39874 0.31239 0.0
H1818 H 0.22407 0.39398 0.32119 0.0
H1819 H 0.25466 0.41786 0.31822 0.0
H1820 H 0.27282 0.38118 0.329 0.0
H1821 H 0.2422 0.35715 0.33079 0.0
H1822 H 0.28985 0.39826 0.30667 0.0
H1823 H 0.27749 0.41719 0.3539 0.0
H1824 H 0.26118 0.4254 0.37191 0.0
H1825 H 0.26898 0.46831 0.34276 0.0
H1826 H 0.28515 0.46022 0.32447 0.0
C1827 C 0.36925 0.46774 0.30871 0.0
C1828 C 0.37158 0.48226 0.29992 0.0
C1829 C 0.35236 0.45474 0.3132 0.0
C1830 C 0.33756 0.45611 0.30909 0.0
C1831 C 0.33991 0.47082 0.30068 0.0
C1832 C 0.35675 0.48371 0.29604 0.0
C1833 C 0.31953 0.44192 0.31305 0.0
C1834 C 0.30922 0.44604 0.32256 0.0
C1835 C 0.31254 0.42439 0.30753 0.0
C1836 C 0.32273 0.41924 0.29735 0.0
C1837 C 0.32915 0.42782 0.2833 0.0
C1838 C 0.33887 0.42297 0.27385 0.0
C1839 C 0.34215 0.40945 0.27827 0.0
C1840 C 0.33566 0.40073 0.29214 0.0
C1841 C 0.32595 0.40555 0.30164 0.0
C1842 C 0.23469 0.39119 0.32313 0.0
C1843 C 0.23096 0.37389 0.32629 0.0
C1844 C 0.25217 0.40484 0.32153 0.0
C1845 C 0.26622 0.40148 0.32359 0.0
C1846 C 0.26233 0.38419 0.32729 0.0
C1847 C 0.24486 0.37048 0.32842 0.0
C1848 C 0.28483 0.41558 0.32084 0.0
C1849 C 0.29532 0.41151 0.31144 0.0
C1850 C 0.29208 0.43305 0.32675 0.0
C1851 C 0.28241 0.438 0.33775 0.0
C1852 C 0.27563 0.4283 0.35128 0.0
C1853 C 0.26642 0.43295 0.36154 0.0
C1854 C 0.26401 0.44734 0.35846 0.0
C1855 C 0.27084 0.45716 0.34512 0.0
C1856 C 0.28005 0.45256 0.33481 0.0
H1857 H 0.25687 0.45092 0.36642 0.0
H1858 H 0.34968 0.40571 0.27094 0.0
H1859 H 0.50999 0.87369 0.30358 0.0
H1860 H 0.52875 0.86287 0.31456 0.0
H1861 H 0.57413 0.90554 0.2928 0.0
H1862 H 0.55577 0.91676 0.28227 0.0
H1863 H 0.56674 0.86965 0.28586 0.0
H1864 H 0.5718 0.90806 0.32863 0.0
H1865 H 0.55989 0.91765 0.34972 0.0
H1866 H 0.53821 0.8662 0.37019 0.0
H1867 H 0.5498 0.85624 0.34908 0.0
H1868 H 0.64632 0.88051 0.30844 0.0
H1869 H 0.62117 0.88486 0.30538 0.0
H1870 H 0.59054 0.84088 0.33536 0.0
H1871 H 0.61603 0.83648 0.33872 0.0
H1872 H 0.58499 0.87034 0.33977 0.0
H1873 H 0.58264 0.8327 0.29961 0.0
H1874 H 0.59531 0.82275 0.27944 0.0
H1875 H 0.61016 0.87036 0.25421 0.0
H1876 H 0.59787 0.88078 0.27438 0.0
C1877 C 0.52403 0.881 0.30143 0.0
C1878 C 0.53134 0.89593 0.29183 0.0
C1879 C 0.53469 0.87475 0.30767 0.0
C1880 C 0.55275 0.88334 0.30434 0.0
C1881 C 0.56017 0.89865 0.29535 0.0
C1882 C 0.54963 0.90497 0.28928 0.0
C1883 C 0.5639 0.87585 0.30913 0.0
C1884 C 0.57072 0.86978 0.29765 0.0
C1885 C 0.56847 0.87534 0.32457 0.0
C1886 C 0.56144 0.88133 0.33717 0.0
C1887 C 0.56432 0.89873 0.33753 0.0
C1888 C 0.55767 0.90425 0.34951 0.0
C1889 C 0.54824 0.89252 0.36126 0.0
C1890 C 0.54547 0.87526 0.36106 0.0
C1891 C 0.55208 0.86968 0.3491 0.0
C1892 C 0.63431 0.87175 0.31448 0.0
C1893 C 0.63313 0.85797 0.32366 0.0
C1894 C 0.61993 0.87429 0.31272 0.0
C1895 C 0.60392 0.86301 0.31994 0.0
C1896 C 0.60279 0.84968 0.32966 0.0
C1897 C 0.61732 0.84715 0.33151 0.0
C1898 C 0.58836 0.86487 0.31641 0.0
C1899 C 0.58067 0.86979 0.32804 0.0
C1900 C 0.5827 0.86407 0.30111 0.0
C1901 C 0.58942 0.85757 0.28857 0.0
C1902 C 0.58865 0.84108 0.28979 0.0
C1903 C 0.59577 0.83536 0.27836 0.0
C1904 C 0.60359 0.84595 0.2656 0.0
C1905 C 0.60412 0.86219 0.26413 0.0
C1906 C 0.59705 0.868 0.27555 0.0
H1907 H 0.60929 0.84159 0.25688 0.0
H1908 H 0.54311 0.89682 0.37053 0.0
H1909 H 0.12137 0.6486 0.26078 0.0
H1910 H 0.13606 0.67968 0.2688 0.0
H1911 H 0.12474 0.66354 0.31586 0.0
H1912 H 0.10971 0.63232 0.30786 0.0
H1913 H 0.11628 0.68862 0.30892 0.0
H1914 H 0.1659 0.68054 0.30283 0.0
H1915 H 0.18519 0.67178 0.28964 0.0
H1916 H 0.19525 0.71006 0.25457 0.0
H1917 H 0.17579 0.71888 0.26746 0.0
H1918 H 0.17391 0.76591 0.34729 0.0
H1919 H 0.17102 0.74052 0.33293 0.0
H1920 H 0.15353 0.7571 0.29339 0.0
H1921 H 0.15616 0.78249 0.30791 0.0
H1922 H 0.17788 0.73303 0.29538 0.0
H1923 H 0.12035 0.73411 0.30062 0.0
H1924 H 0.1032 0.74362 0.31636 0.0
H1925 H 0.11082 0.71859 0.3556 0.0
H1926 H 0.1282 0.70914 0.34008 0.0
C1927 C 0.12198 0.65167 0.27284 0.0
C1928 C 0.1143 0.63802 0.2837 0.0
C1929 C 0.13052 0.66943 0.27741 0.0
C1930 C 0.13159 0.67392 0.29293 0.0
C1931 C 0.12408 0.66035 0.30382 0.0
C1932 C 0.1156 0.64254 0.29926 0.0
C1933 C 0.13993 0.69279 0.2977 0.0
C1934 C 0.12973 0.69825 0.30589 0.0
C1935 C 0.15749 0.70546 0.29378 0.0
C1936 C 0.16924 0.70024 0.28602 0.0
C1937 C 0.1721 0.68698 0.29223 0.0
C1938 C 0.18309 0.68203 0.28483 0.0
C1939 C 0.1914 0.69032 0.27125 0.0
C1940 C 0.18878 0.70363 0.26508 0.0
C1941 C 0.17778 0.70862 0.27244 0.0
C1942 C 0.17038 0.76468 0.33528 0.0
C1943 C 0.16533 0.77614 0.32862 0.0
C1944 C 0.16876 0.75019 0.32709 0.0
C1945 C 0.16199 0.74695 0.31217 0.0
C1946 C 0.15895 0.75954 0.30487 0.0
C1947 C 0.1606 0.77412 0.3131 0.0
C1948 C 0.15402 0.72869 0.30609 0.0
C1949 C 0.16431 0.72334 0.29797 0.0
C1950 C 0.13659 0.71601 0.3101 0.0
C1951 C 0.12556 0.721 0.31924 0.0
C1952 C 0.11834 0.73065 0.31261 0.0
C1953 C 0.10862 0.73605 0.32148 0.0
C1954 C 0.10594 0.73173 0.33697 0.0
C1955 C 0.11291 0.72193 0.3436 0.0
C1956 C 0.12268 0.71655 0.33477 0.0
H1957 H 0.09844 0.73595 0.34384 0.0
H1958 H 0.19991 0.68647 0.26553 0.0
H1959 H 0.82911 0.02416 0.38943 0.0
H1960 H 0.8101 0.99346 0.38107 0.0
H1961 H 0.76566 0.00198 0.37908 0.0
H1962 H 0.78461 0.03277 0.38718 0.0
H1963 H 0.75803 0.97173 0.39456 0.0
H1964 H 0.78449 0.99893 0.34671 0.0
H1965 H 0.80919 0.0166 0.32933 0.0
H1966 H 0.82848 0.98036 0.33576 0.0
H1967 H 0.804 0.9626 0.35334 0.0
H1968 H 0.69584 0.897 0.35203 0.0
H1969 H 0.71576 0.92431 0.36558 0.0
H1970 H 0.75902 0.91493 0.35723 0.0
H1971 H 0.73909 0.88819 0.34259 0.0
H1972 H 0.76855 0.94535 0.34841 0.0
H1973 H 0.74397 0.91938 0.39776 0.0
H1974 H 0.72101 0.90315 0.41702 0.0
H1975 H 0.69865 0.93634 0.40814 0.0
H1976 H 0.72196 0.95328 0.38933 0.0
C1977 C 0.81537 0.01962 0.38693 0.0
C1978 C 0.80839 0.03095 0.38902 0.0
C1979 C 0.8045 0.00203 0.38223 0.0
C1980 C 0.78645 0.99542 0.37945 0.0
C1981 C 0.77952 0.00676 0.38126 0.0
C1982 C 0.79037 0.02435 0.38592 0.0
C1983 C 0.77468 0.97656 0.37507 0.0
C1984 C 0.76023 0.96596 0.3844 0.0
C1985 C 0.77784 0.96891 0.36209 0.0
C1986 C 0.79252 0.97954 0.35147 0.0
C1987 C 0.79408 0.99481 0.34452 0.0
C1988 C 0.80802 0.00483 0.33461 0.0
C1989 C 0.82043 0.99963 0.33148 0.0
C1990 C 0.81888 0.98438 0.33821 0.0
C1991 C 0.80496 0.97433 0.34814 0.0
C1992 C 0.70946 0.9004 0.35371 0.0
C1993 C 0.71593 0.89041 0.34654 0.0
C1994 C 0.72091 0.91606 0.36152 0.0
C1995 C 0.73903 0.92181 0.36265 0.0
C1996 C 0.74516 0.91091 0.35654 0.0
C1997 C 0.73376 0.89549 0.34835 0.0
C1998 C 0.75179 0.94022 0.36799 0.0
C1999 C 0.76642 0.95089 0.35875 0.0
C2000 C 0.74887 0.9479 0.38113 0.0
C2001 C 0.73455 0.93742 0.39204 0.0
C2002 C 0.73407 0.9231 0.39984 0.0
C2003 C 0.72103 0.91382 0.41071 0.0
C2004 C 0.70819 0.91849 0.41361 0.0
C2005 C 0.70854 0.93267 0.40583 0.0
C2006 C 0.72176 0.94222 0.39519 0.0
H2007 H 0.69804 0.91124 0.42195 0.0
H2008 H 0.83121 0.00741 0.32381 0.0
H2009 H 0.96672 0.75087 0.37558 0.0
H2010 H 0.99513 0.76024 0.36357 0.0
H2011 H 0.00797 0.81487 0.36657 0.0
H2012 H 0.97945 0.80556 0.37865 0.0
H2013 H 0.02034 0.80723 0.3394 0.0
H2014 H 0.02315 0.80054 0.39335 0.0
H2015 H 0.01345 0.78542 0.41814 0.0
H2016 H 0.02036 0.74281 0.40165 0.0
H2017 H 0.02983 0.75755 0.37666 0.0
H2018 H 0.11561 0.83605 0.34065 0.0
H2019 H 0.08619 0.83276 0.34397 0.0
H2020 H 0.06266 0.77591 0.34103 0.0
H2021 H 0.09168 0.77906 0.33778 0.0
H2022 H 0.05702 0.78869 0.36875 0.0
H2023 H 0.0539 0.79585 0.31428 0.0
H2024 H 0.06376 0.81163 0.28979 0.0
H2025 H 0.05858 0.85468 0.30784 0.0
H2026 H 0.04893 0.83928 0.33254 0.0
C2027 C 0.97552 0.76487 0.37358 0.0
C2028 C 0.97097 0.7775 0.37828 0.0
C2029 C 0.9917 0.7702 0.36665 0.0
C2030 C 0.00375 0.78827 0.3644 0.0
C2031 C 0.99885 0.80087 0.36821 0.0
C2032 C 0.98257 0.79552 0.37512 0.0
C2033 C 0.02199 0.79389 0.35952 0.0
C2034 C 0.02849 0.80341 0.34589 0.0
C2035 C 0.03261 0.78893 0.36802 0.0
C2036 C 0.02706 0.78008 0.38309 0.0
C2037 C 0.02248 0.78788 0.39497 0.0
C2038 C 0.01703 0.77939 0.40906 0.0
C2039 C 0.01625 0.76315 0.41145 0.0
C2040 C 0.02095 0.75538 0.39977 0.0
C2041 C 0.02637 0.76381 0.38564 0.0
C2042 C 0.10408 0.82292 0.34022 0.0
C2043 C 0.10592 0.80779 0.33921 0.0
C2044 C 0.08732 0.82105 0.34213 0.0
C2045 C 0.07231 0.80407 0.3429 0.0
C2046 C 0.07409 0.78911 0.34058 0.0
C2047 C 0.09069 0.79095 0.33874 0.0
C2048 C 0.05519 0.80145 0.34833 0.0
C2049 C 0.04894 0.79262 0.36225 0.0
C2050 C 0.04501 0.80721 0.34014 0.0
C2051 C 0.05093 0.81652 0.32533 0.0
C2052 C 0.05507 0.80878 0.3131 0.0
C2053 C 0.06057 0.81763 0.29916 0.0
C2054 C 0.06186 0.83418 0.29727 0.0
C2055 C 0.05761 0.84189 0.30932 0.0
C2056 C 0.05212 0.8331 0.32329 0.0
H2057 H 0.0661 0.841 0.28647 0.0
H2058 H 0.01204 0.75659 0.42237 0.0
H2059 H 0.22842 0.19752 0.36676 0.0
H2060 H 0.2204 0.22021 0.36188 0.0
H2061 H 0.19446 0.20955 0.40549 0.0
H2062 H 0.20213 0.18647 0.41032 0.0
H2063 H 0.17418 0.21166 0.38278 0.0
H2064 H 0.23285 0.24738 0.4011 0.0
H2065 H 0.26471 0.25808 0.40318 0.0
H2066 H 0.27149 0.27411 0.35621 0.0
H2067 H 0.23962 0.26326 0.35376 0.0
H2068 H 0.17297 0.29528 0.36204 0.0
H2069 H 0.17826 0.27501 0.37802 0.0
H2070 H 0.19266 0.25652 0.3379 0.0
H2071 H 0.18697 0.27588 0.32202 0.0
H2072 H 0.21851 0.27218 0.36607 0.0
H2073 H 0.15846 0.23114 0.34744 0.0
H2074 H 0.12666 0.22072 0.34586 0.0
H2075 H 0.12266 0.21475 0.39459 0.0
H2076 H 0.15455 0.22534 0.39642 0.0
C2077 C 0.22098 0.19997 0.37531 0.0
C2078 C 0.2159 0.19018 0.38892 0.0
C2079 C 0.21655 0.21306 0.37257 0.0
C2080 C 0.20701 0.21673 0.38341 0.0
C2081 C 0.20191 0.20701 0.39702 0.0
C2082 C 0.20641 0.19392 0.3998 0.0
C2083 C 0.2019 0.23028 0.38009 0.0
C2084 C 0.1839 0.22503 0.37947 0.0
C2085 C 0.21457 0.24775 0.37582 0.0
C2086 C 0.2338 0.25443 0.37724 0.0
C2087 C 0.24111 0.25309 0.39118 0.0
C2088 C 0.25918 0.25919 0.39243 0.0
C2089 C 0.27011 0.26675 0.37983 0.0
C2090 C 0.263 0.26826 0.36596 0.0
C2091 C 0.24494 0.26216 0.36464 0.0
C2092 C 0.17689 0.2866 0.35664 0.0
C2093 C 0.17959 0.28727 0.34075 0.0
C2094 C 0.17998 0.27513 0.36577 0.0
C2095 C 0.18593 0.26441 0.35907 0.0
C2096 C 0.18813 0.26476 0.34325 0.0
C2097 C 0.18479 0.27585 0.33419 0.0
C2098 C 0.19086 0.25328 0.36821 0.0
C2099 C 0.20886 0.25899 0.36987 0.0
C2100 C 0.17821 0.23627 0.3734 0.0
C2101 C 0.15902 0.22966 0.37214 0.0
C2102 C 0.1509 0.22797 0.35785 0.0
C2103 C 0.13282 0.2219 0.35688 0.0
C2104 C 0.12267 0.21725 0.37013 0.0
C2105 C 0.13056 0.21851 0.38435 0.0
C2106 C 0.14864 0.22458 0.38535 0.0
H2107 H 0.10867 0.21255 0.36936 0.0
H2108 H 0.2841 0.27147 0.38082 0.0
H2109 H 0.63448 0.52353 0.68087 0.0
H2110 H 0.66475 0.54629 0.67487 0.0
H2111 H 0.67748 0.55409 0.72295 0.0
H2112 H 0.64741 0.5313 0.72903 0.0
H2113 H 0.69014 0.58541 0.70796 0.0
H2114 H 0.68953 0.52975 0.70056 0.0
H2115 H 0.67854 0.50023 0.68886 0.0
H2116 H 0.69148 0.52375 0.64432 0.0
H2117 H 0.70234 0.55339 0.65576 0.0
H2118 H 0.78173 0.63132 0.71173 0.0
H2119 H 0.75085 0.60837 0.71351 0.0
H2120 H 0.7475 0.60322 0.6644 0.0
H2121 H 0.77877 0.6259 0.66256 0.0
H2122 H 0.7291 0.57162 0.67697 0.0
H2123 H 0.7315 0.62704 0.68346 0.0
H2124 H 0.74201 0.65694 0.69413 0.0
H2125 H 0.72489 0.63475 0.73875 0.0
H2126 H 0.71449 0.60474 0.72838 0.0
C2127 C 0.64376 0.53001 0.69016 0.0
C2128 C 0.63849 0.52557 0.70544 0.0
C2129 C 0.66104 0.54304 0.68671 0.0
C2130 C 0.67341 0.55178 0.69846 0.0
C2131 C 0.66814 0.54755 0.7137 0.0
C2132 C 0.6509 0.53456 0.71716 0.0
C2133 C 0.69192 0.56532 0.69503 0.0
C2134 C 0.69871 0.58236 0.7013 0.0
C2135 C 0.7029 0.56153 0.68583 0.0
C2136 C 0.69657 0.54375 0.679 0.0
C2137 C 0.68992 0.5286 0.68826 0.0
C2138 C 0.68373 0.51186 0.68168 0.0
C2139 C 0.68427 0.51011 0.66585 0.0
C2140 C 0.69105 0.52512 0.65658 0.0
C2141 C 0.69723 0.54189 0.6631 0.0
C2142 C 0.77448 0.62523 0.70129 0.0
C2143 C 0.78264 0.63055 0.68699 0.0
C2144 C 0.75677 0.61217 0.70232 0.0
C2145 C 0.74669 0.60439 0.68907 0.0
C2146 C 0.75497 0.60914 0.67477 0.0
C2147 C 0.77283 0.62208 0.67374 0.0
C2148 C 0.72748 0.5916 0.69027 0.0
C2149 C 0.72053 0.57475 0.68353 0.0
C2150 C 0.71624 0.59562 0.69887 0.0
C2151 C 0.72233 0.61364 0.70515 0.0
C2152 C 0.73007 0.62855 0.69556 0.0
C2153 C 0.736 0.64551 0.70156 0.0
C2154 C 0.73415 0.64775 0.71711 0.0
C2155 C 0.72632 0.63301 0.7267 0.0
C2156 C 0.72039 0.61601 0.72077 0.0
H2157 H 0.73875 0.66089 0.72173 0.0
H2158 H 0.67946 0.49713 0.66078 0.0
H2159 H 0.51093 0.15119 0.69319 0.0
H2160 H 0.48933 0.15957 0.68488 0.0
H2161 H 0.44721 0.10622 0.69311 0.0
H2162 H 0.46871 0.09767 0.70106 0.0
H2163 H 0.44188 0.11935 0.66668 0.0
H2164 H 0.45794 0.13894 0.71926 0.0
H2165 H 0.47872 0.15574 0.74015 0.0
H2166 H 0.4945 0.20449 0.71641 0.0
H2167 H 0.47396 0.18793 0.69528 0.0
H2168 H 0.36578 0.12025 0.68812 0.0
H2169 H 0.39281 0.11895 0.68587 0.0
H2170 H 0.42106 0.17388 0.67242 0.0
H2171 H 0.39371 0.17524 0.67446 0.0
H2172 H 0.43712 0.16521 0.69663 0.0
H2173 H 0.41607 0.14533 0.64647 0.0
H2174 H 0.3945 0.1281 0.62623 0.0
H2175 H 0.38749 0.07969 0.6455 0.0
H2176 H 0.40881 0.09659 0.66601 0.0
C2177 C 0.49708 0.14119 0.69302 0.0
C2178 C 0.49152 0.12379 0.6979 0.0
C2179 C 0.48476 0.14603 0.68836 0.0
C2180 C 0.46665 0.13356 0.6885 0.0
C2181 C 0.46112 0.11607 0.69292 0.0
C2182 C 0.47341 0.11124 0.69761 0.0
C2183 C 0.45329 0.13875 0.68474 0.0
C2184 C 0.44081 0.12936 0.67322 0.0
C2185 C 0.45227 0.15224 0.69293 0.0
C2186 C 0.46461 0.16219 0.70561 0.0
C2187 C 0.46596 0.15323 0.71844 0.0
C2188 C 0.47767 0.16271 0.73033 0.0
C2189 C 0.48797 0.18117 0.72958 0.0
C2190 C 0.48655 0.19019 0.71696 0.0
C2191 C 0.47488 0.18077 0.70502 0.0
C2192 C 0.37769 0.13205 0.68455 0.0
C2193 C 0.37766 0.14789 0.68155 0.0
C2194 C 0.39311 0.13124 0.68317 0.0
C2195 C 0.4089 0.14627 0.67887 0.0
C2196 C 0.40895 0.16211 0.67567 0.0
C2197 C 0.39336 0.16286 0.67681 0.0
C2198 C 0.42537 0.1454 0.67891 0.0
C2199 C 0.43844 0.15555 0.68977 0.0
C2200 C 0.42689 0.13256 0.67015 0.0
C2201 C 0.414 0.12226 0.65785 0.0
C2202 C 0.40983 0.131 0.64647 0.0
C2203 C 0.39766 0.12129 0.63493 0.0
C2204 C 0.38962 0.10281 0.63459 0.0
C2205 C 0.39374 0.09401 0.64578 0.0
C2206 C 0.40589 0.10365 0.65735 0.0
H2207 H 0.3802 0.09531 0.62564 0.0
H2208 H 0.49702 0.18849 0.7388 0.0
H2209 H 0.92158 0.36148 0.73205 0.0
H2210 H 0.90871 0.33078 0.72345 0.0
H2211 H 0.86242 0.33162 0.70747 0.0
H2212 H 0.87482 0.36206 0.71676 0.0
H2213 H 0.85286 0.30243 0.72271 0.0
H2214 H 0.89392 0.33275 0.68271 0.0
H2215 H 0.92272 0.35301 0.67117 0.0
H2216 H 0.94439 0.32258 0.69035 0.0
H2217 H 0.91577 0.30226 0.70218 0.0
H2218 H 0.82184 0.23128 0.66823 0.0
H2219 H 0.83171 0.25809 0.6837 0.0
H2220 H 0.87002 0.24838 0.70618 0.0
H2221 H 0.85986 0.22129 0.69087 0.0
H2222 H 0.88405 0.28104 0.68939 0.0
H2223 H 0.84209 0.25041 0.72886 0.0
H2224 H 0.81293 0.23037 0.7397 0.0
H2225 H 0.79227 0.26121 0.71953 0.0
H2226 H 0.82147 0.28163 0.70865 0.0
C2227 C 0.90863 0.35514 0.72674 0.0
C2228 C 0.89922 0.36426 0.72517 0.0
C2229 C 0.90136 0.33761 0.72168 0.0
C2230 C 0.88462 0.32888 0.71471 0.0
C2231 C 0.87535 0.33806 0.71282 0.0
C2232 C 0.88256 0.35556 0.71798 0.0
C2233 C 0.87652 0.31 0.70989 0.0
C2234 C 0.85963 0.29783 0.71528 0.0
C2235 C 0.88548 0.30383 0.7005 0.0
C2236 C 0.90275 0.3161 0.69348 0.0
C2237 C 0.90487 0.33047 0.68459 0.0
C2238 C 0.92115 0.34195 0.67797 0.0
C2239 C 0.93539 0.33912 0.68007 0.0
C2240 C 0.93336 0.32478 0.68876 0.0
C2241 C 0.91711 0.31327 0.69542 0.0
C2242 C 0.83171 0.23439 0.67704 0.0
C2243 C 0.83992 0.22413 0.67856 0.0
C2244 C 0.83743 0.24976 0.68581 0.0
C2245 C 0.85167 0.25527 0.696 0.0
C2246 C 0.85898 0.24431 0.69839 0.0
C2247 C 0.85301 0.22872 0.68981 0.0
C2248 C 0.86047 0.2736 0.7022 0.0
C2249 C 0.87743 0.28568 0.69697 0.0
C2250 C 0.85151 0.27974 0.71153 0.0
C2251 C 0.8339 0.26744 0.71784 0.0
C2252 C 0.8313 0.25284 0.72663 0.0
C2253 C 0.81476 0.24143 0.73281 0.0
C2254 C 0.80068 0.24439 0.73022 0.0
C2255 C 0.80317 0.2589 0.72151 0.0
C2256 C 0.81973 0.27045 0.71539 0.0
H2257 H 0.78788 0.2355 0.73501 0.0
H2258 H 0.94798 0.34801 0.67492 0.0
H2259 H 0.19872 0.99341 0.59137 0.0
H2260 H 0.21594 0.02353 0.60158 0.0
H2261 H 0.20684 0.00281 0.6474 0.0
H2262 H 0.18967 0.97259 0.63725 0.0
H2263 H 0.2036 0.03239 0.64534 0.0
H2264 H 0.24514 0.01426 0.62954 0.0
H2265 H 0.25887 0.00336 0.61119 0.0
H2266 H 0.27222 0.04799 0.58219 0.0
H2267 H 0.25835 0.05904 0.60029 0.0
H2268 H 0.27362 0.08966 0.69151 0.0
H2269 H 0.25059 0.0669 0.67579 0.0
H2270 H 0.27078 0.10063 0.63628 0.0
H2271 H 0.29435 0.12381 0.65224 0.0
H2272 H 0.26663 0.06816 0.63106 0.0
H2273 H 0.2298 0.08908 0.65021 0.0
H2274 H 0.21715 0.09991 0.6696 0.0
H2275 H 0.19546 0.05023 0.69316 0.0
H2276 H 0.20824 0.03916 0.67403 0.0
C2277 C 0.20044 0.99525 0.60362 0.0
C2278 C 0.19298 0.98059 0.6135 0.0
C2279 C 0.21021 0.01248 0.60943 0.0
C2280 C 0.21281 0.0154 0.62524 0.0
C2281 C 0.20495 0.00085 0.63516 0.0
C2282 C 0.19513 0.9836 0.62935 0.0
C2283 C 0.22433 0.03351 0.63145 0.0
C2284 C 0.21739 0.04022 0.64227 0.0
C2285 C 0.24216 0.04396 0.62702 0.0
C2286 C 0.25051 0.03734 0.61615 0.0
C2287 C 0.25087 0.02166 0.61918 0.0
C2288 C 0.2587 0.01547 0.60884 0.0
C2289 C 0.26635 0.02494 0.5955 0.0
C2290 C 0.26624 0.04065 0.5925 0.0
C2291 C 0.2584 0.04688 0.6028 0.0
C2292 C 0.27309 0.09246 0.67953 0.0
C2293 C 0.28601 0.10845 0.67304 0.0
C2294 C 0.25974 0.07942 0.67056 0.0
C2295 C 0.25883 0.08206 0.65487 0.0
C2296 C 0.27123 0.09834 0.6484 0.0
C2297 C 0.28465 0.11155 0.65748 0.0
C2298 C 0.24605 0.06691 0.64531 0.0
C2299 C 0.25272 0.06063 0.63386 0.0
C2300 C 0.228 0.05683 0.64922 0.0
C2301 C 0.22003 0.0633 0.66067 0.0
C2302 C 0.22241 0.08048 0.65956 0.0
C2303 C 0.2152 0.08666 0.67051 0.0
C2304 C 0.20549 0.07578 0.68261 0.0
C2305 C 0.20296 0.05865 0.68376 0.0
C2306 C 0.21015 0.05239 0.67285 0.0
H2307 H 0.19994 0.08061 0.69108 0.0
H2308 H 0.27242 0.02013 0.58751 0.0
H2309 H 0.03887 0.24957 0.62726 0.0
H2310 H 0.00895 0.24315 0.63297 0.0
H2311 H 0.99589 0.19123 0.64912 0.0
H2312 H 0.02563 0.19735 0.643 0.0
H2313 H 0.97034 0.18922 0.63101 0.0
H2314 H 0.00267 0.22398 0.67416 0.0
H2315 H 0.02642 0.24948 0.68805 0.0
H2316 H 0.01034 0.28406 0.66771 0.0
H2317 H 0.98664 0.25879 0.65351 0.0
H2318 H 0.88902 0.17223 0.66465 0.0
H2319 H 0.9192 0.17767 0.66219 0.0
H2320 H 0.93458 0.22746 0.64003 0.0
H2321 H 0.90449 0.2221 0.64229 0.0
H2322 H 0.95866 0.22941 0.66285 0.0
H2323 H 0.92745 0.19429 0.61851 0.0
H2324 H 0.90334 0.16834 0.60534 0.0
H2325 H 0.91716 0.13388 0.62918 0.0
H2326 H 0.94125 0.15963 0.64263 0.0
C2327 C 0.0296 0.23675 0.63194 0.0
C2328 C 0.03465 0.22398 0.63469 0.0
C2329 C 0.01255 0.23316 0.63535 0.0
C2330 C 1.00023 0.21677 0.64164 0.0
C2331 C 0.0052 0.20398 0.64434 0.0
C2332 C 0.02225 0.20757 0.64094 0.0
C2333 C 0.98202 0.21284 0.64501 0.0
C2334 C 0.9678 0.19786 0.63819 0.0
C2335 C 0.97868 0.22424 0.65419 0.0
C2336 C 0.99298 0.2395 0.66265 0.0
C2337 C 0.00429 0.23704 0.67253 0.0
C2338 C 0.01773 0.25145 0.68049 0.0
C2339 C 0.01992 0.26839 0.67873 0.0
C2340 C 0.00865 0.27094 0.66904 0.0
C2341 C 0.9952 0.25657 0.66105 0.0
C2342 C 0.89885 0.18438 0.65932 0.0
C2343 C 0.89434 0.1967 0.6536 0.0
C2344 C 0.91605 0.18743 0.6579 0.0
C2345 C 0.92906 0.20292 0.65086 0.0
C2346 C 0.92472 0.21543 0.64549 0.0
C2347 C 0.9075 0.2123 0.64673 0.0
C2348 C 0.94713 0.20596 0.64873 0.0
C2349 C 0.96128 0.22075 0.65578 0.0
C2350 C 0.95041 0.19434 0.63985 0.0
C2351 C 0.93602 0.17886 0.6317 0.0
C2352 C 0.92526 0.18116 0.62103 0.0
C2353 C 0.91162 0.1665 0.6135 0.0
C2354 C 0.90868 0.14947 0.61646 0.0
C2355 C 0.91943 0.14708 0.62692 0.0
C2356 C 0.93309 0.16171 0.63449 0.0
H2357 H 0.8981 0.13813 0.61062 0.0
H2358 H 0.03032 0.27952 0.68491 0.0
H2359 H 0.77693 0.81114 0.65545 0.0
H2360 H 0.78733 0.79037 0.66083 0.0
H2361 H 0.79741 0.78829 0.61293 0.0
H2362 H 0.78714 0.80925 0.60745 0.0
H2363 H 0.78287 0.75508 0.6268 0.0
H2364 H 0.83104 0.81368 0.63524 0.0
H2365 H 0.84577 0.84417 0.64555 0.0
H2366 H 0.83625 0.82391 0.69129 0.0
H2367 H 0.82119 0.79327 0.68126 0.0
H2368 H 0.83068 0.71084 0.64967 0.0
H2369 H 0.82426 0.73224 0.63704 0.0
H2370 H 0.81293 0.7469 0.68086 0.0
H2371 H 0.81959 0.72612 0.69339 0.0
H2372 H 0.8319 0.77545 0.66442 0.0
H2373 H 0.77994 0.7172 0.65583 0.0
H2374 H 0.76494 0.68656 0.64579 0.0
H2375 H 0.78193 0.70615 0.60044 0.0
H2376 H 0.79721 0.73691 0.61027 0.0
C2377 C 0.78136 0.80629 0.64605 0.0
C2378 C 0.7814 0.81205 0.63105 0.0
C2379 C 0.78724 0.79436 0.64913 0.0
C2380 C 0.79341 0.788 0.6373 0.0
C2381 C 0.79274 0.79306 0.62222 0.0
C2382 C 0.78683 0.80502 0.61912 0.0
C2383 C 0.80135 0.77683 0.64095 0.0
C2384 C 0.79379 0.75962 0.63482 0.0
C2385 C 0.81562 0.78275 0.65139 0.0
C2386 C 0.82489 0.80117 0.65749 0.0
C2387 C 0.83199 0.81572 0.6475 0.0
C2388 C 0.84041 0.83303 0.65329 0.0
C2389 C 0.84192 0.83597 0.66906 0.0
C2390 C 0.83506 0.82161 0.67907 0.0
C2391 C 0.8266 0.80426 0.67334 0.0
C2392 C 0.82701 0.71879 0.65656 0.0
C2393 C 0.82559 0.7167 0.67251 0.0
C2394 C 0.82324 0.73093 0.64935 0.0
C2395 C 0.81794 0.74108 0.658 0.0
C2396 C 0.817 0.73927 0.67393 0.0
C2397 C 0.82077 0.72728 0.68108 0.0
C2398 C 0.81294 0.75341 0.65082 0.0
C2399 C 0.82116 0.77096 0.65621 0.0
C2400 C 0.79929 0.74776 0.63974 0.0
C2401 C 0.78986 0.72932 0.6338 0.0
C2402 C 0.78055 0.71496 0.64373 0.0
C2403 C 0.77199 0.69758 0.63808 0.0
C2404 C 0.77254 0.69441 0.62249 0.0
C2405 C 0.78157 0.70862 0.61252 0.0
C2406 C 0.79016 0.72603 0.61812 0.0
H2407 H 0.76593 0.68095 0.61815 0.0
H2408 H 0.84844 0.84939 0.67353 0.0
H2409 H 0.03043 0.83784 0.64397 0.0
H2410 H 1.00072 0.81492 0.65116 0.0
H2411 H 0.0124 0.77441 0.63707 0.0
H2412 H 0.04218 0.79723 0.63 0.0
H2413 H 0.98162 0.76908 0.62507 0.0
H2414 H 0.00953 0.78268 0.67488 0.0
H2415 H 0.02629 0.8024 0.69638 0.0
H2416 H 0.98661 0.81721 0.70169 0.0
H2417 H 0.96972 0.79774 0.68008 0.0
H2418 H 0.90958 0.69209 0.65077 0.0
H2419 H 0.93947 0.71699 0.64846 0.0
H2420 H 0.92262 0.7523 0.66638 0.0
H2421 H 0.89255 0.72699 0.66941 0.0
H2422 H 0.95514 0.76205 0.67637 0.0
H2423 H 0.92687 0.7486 0.62741 0.0
H2424 H 0.9098 0.72946 0.60571 0.0
H2425 H 0.94985 0.71559 0.59825 0.0
H2426 H 0.96707 0.73448 0.62003 0.0
C2427 C 0.02679 0.82405 0.64264 0.0
C2428 C 0.03869 0.81937 0.63637 0.0
C2429 C 0.00978 0.81096 0.64674 0.0
C2430 C 0.00437 0.79295 0.64473 0.0
C2431 C 0.01629 0.78824 0.63868 0.0
C2432 C 0.03328 0.8013 0.63458 0.0
C2433 C 0.98603 0.77898 0.64818 0.0
C2434 C 0.97592 0.76741 0.63634 0.0
C2435 C 0.97835 0.77725 0.66272 0.0
C2436 C 0.98846 0.78889 0.67576 0.0
C2437 C 0.00445 0.79025 0.68055 0.0
C2438 C 0.01396 0.80136 0.69277 0.0
C2439 C 0.00755 0.81109 0.70037 0.0
C2440 C 0.99158 0.80968 0.69578 0.0
C2441 C 0.98202 0.7986 0.68356 0.0
C2442 C 0.91226 0.70514 0.65436 0.0
C2443 C 0.89873 0.70769 0.66005 0.0
C2444 C 0.92934 0.71937 0.65297 0.0
C2445 C 0.93319 0.73662 0.65678 0.0
C2446 C 0.91991 0.73913 0.66322 0.0
C2447 C 0.90277 0.72471 0.66494 0.0
C2448 C 0.9509 0.7519 0.65334 0.0
C2449 C 0.96084 0.76376 0.6651 0.0
C2450 C 0.95842 0.75407 0.63865 0.0
C2451 C 0.9482 0.74287 0.62541 0.0
C2452 C 0.93199 0.7414 0.62119 0.0
C2453 C 0.9223 0.7306 0.60887 0.0
C2454 C 0.92872 0.7213 0.60062 0.0
C2455 C 0.94489 0.72281 0.60465 0.0
C2456 C 0.95464 0.73358 0.61696 0.0
H2457 H 0.92119 0.71294 0.5911 0.0
H2458 H 0.01493 0.81969 0.70983 0.0
H2459 H 0.21158 0.24927 0.64451 0.0
H2460 H 0.23081 0.23896 0.65513 0.0
H2461 H 0.20021 0.18887 0.6317 0.0
H2462 H 0.1808 0.19899 0.62132 0.0
H2463 H 0.21052 0.18348 0.65885 0.0
H2464 H 0.23829 0.22335 0.61622 0.0
H2465 H 0.25004 0.2516 0.60231 0.0
H2466 H 0.28582 0.27902 0.63942 0.0
H2467 H 0.27412 0.25094 0.65362 0.0
H2468 H 0.29453 0.18275 0.63426 0.0
H2469 H 0.27083 0.18958 0.63219 0.0
H2470 H 0.26545 0.18704 0.6812 0.0
H2471 H 0.28903 0.17962 0.68331 0.0
H2472 H 0.27353 0.21986 0.64477 0.0
H2473 H 0.23081 0.1769 0.68924 0.0
H2474 H 0.21901 0.14715 0.70061 0.0
H2475 H 0.21334 0.12443 0.65589 0.0
H2476 H 0.22535 0.15411 0.64435 0.0
C2477 C 0.20886 0.236 0.64177 0.0
C2478 C 0.19476 0.22498 0.632 0.0
C2479 C 0.21983 0.23011 0.64785 0.0
C2480 C 0.21711 0.21323 0.64404 0.0
C2481 C 0.20255 0.20192 0.63486 0.0
C2482 C 0.19147 0.20773 0.62892 0.0
C2483 C 0.23016 0.20783 0.64845 0.0
C2484 C 0.22433 0.19155 0.65589 0.0
C2485 C 0.2482 0.21824 0.64457 0.0
C2486 C 0.25519 0.23511 0.63605 0.0
C2487 C 0.24857 0.23543 0.62145 0.0
C2488 C 0.25524 0.25141 0.61351 0.0
C2489 C 0.26863 0.26711 0.62 0.0
C2490 C 0.27542 0.26686 0.63443 0.0
C2491 C 0.26878 0.25092 0.64242 0.0
C2492 C 0.28809 0.18327 0.64459 0.0
C2493 C 0.2937 0.18072 0.65894 0.0
C2494 C 0.27456 0.18723 0.64339 0.0
C2495 C 0.2664 0.18887 0.65653 0.0
C2496 C 0.27142 0.1856 0.6709 0.0
C2497 C 0.28491 0.18142 0.67209 0.0
C2498 C 0.25385 0.19551 0.65498 0.0
C2499 C 0.2598 0.21204 0.64805 0.0
C2500 C 0.23598 0.1853 0.65915 0.0
C2501 C 0.22895 0.16759 0.666 0.0
C2502 C 0.22704 0.16552 0.68188 0.0
C2503 C 0.22037 0.14871 0.68834 0.0
C2504 C 0.21542 0.1339 0.67898 0.0
C2505 C 0.21722 0.1359 0.66313 0.0
C2506 C 0.22401 0.15271 0.65663 0.0
H2507 H 0.21017 0.1209 0.68401 0.0
H2508 H 0.27378 0.27946 0.61383 0.0
H2509 H 0.79938 0.97577 0.62794 0.0
H2510 H 0.81156 0.00647 0.63652 0.0
H2511 H 0.77097 0.01015 0.61144 0.0
H2512 H 0.75848 0.97936 0.60306 0.0
H2513 H 0.80378 0.03909 0.60668 0.0
H2514 H 0.76821 0.00652 0.64912 0.0
H2515 H 0.75733 0.98395 0.66939 0.0
H2516 H 0.80912 0.0084 0.68952 0.0
H2517 H 0.82036 0.03099 0.66923 0.0
H2518 H 0.81358 0.11683 0.6467 0.0
H2519 H 0.80585 0.08985 0.63196 0.0
H2520 H 0.84337 0.08243 0.65847 0.0
H2521 H 0.8507 0.109 0.67335 0.0
H2522 H 0.81149 0.05532 0.6616 0.0
H2523 H 0.84673 0.08931 0.6194 0.0
H2524 H 0.85737 0.11083 0.5983 0.0
H2525 H 0.80612 0.08367 0.5772 0.0
H2526 H 0.79498 0.0623 0.59838 0.0
C2527 C 0.79287 0.98299 0.62443 0.0
C2528 C 0.77796 0.97507 0.61478 0.0
C2529 C 0.79991 1.00059 0.62927 0.0
C2530 C 0.79217 0.0106 0.62461 0.0
C2531 C 0.77723 0.00271 0.61507 0.0
C2532 C 0.77014 0.98511 0.61028 0.0
C2533 C 0.79967 0.02929 0.62971 0.0
C2534 C 0.8053 0.04271 0.61868 0.0
C2535 C 0.80188 0.03393 0.64536 0.0
C2536 C 0.79517 0.02034 0.65756 0.0
C2537 C 0.77731 0.00699 0.65779 0.0
C2538 C 0.77107 0.99421 0.6693 0.0
C2539 C 0.78254 0.99471 0.68071 0.0
C2540 C 0.80026 0.00801 0.68066 0.0
C2541 C 0.80657 0.02082 0.66916 0.0
C2542 C 0.82076 0.10988 0.64882 0.0
C2543 C 0.83276 0.11494 0.66109 0.0
C2544 C 0.81627 0.0944 0.64047 0.0
C2545 C 0.82388 0.08396 0.64423 0.0
C2546 C 0.83721 0.09016 0.65544 0.0
C2547 C 0.84151 0.10541 0.66386 0.0
C2548 C 0.81606 0.0654 0.63858 0.0
C2549 C 0.81013 0.05187 0.64956 0.0
C2550 C 0.81353 0.06075 0.62288 0.0
C2551 C 0.81996 0.07427 0.61061 0.0
C2552 C 0.83762 0.08809 0.61042 0.0
C2553 C 0.84377 0.10023 0.5984 0.0
C2554 C 0.83242 0.09862 0.58642 0.0
C2555 C 0.81487 0.08495 0.5865 0.0
C2556 C 0.80863 0.07284 0.59853 0.0
H2557 H 0.83723 0.10796 0.57708 0.0
H2558 H 0.77768 0.9848 0.68961 0.0
H2559 H 0.49583 0.35561 0.72735 0.0
H2560 H 0.47676 0.32478 0.71929 0.0
H2561 H 0.4339 0.33502 0.71195 0.0
H2562 H 0.45289 0.36586 0.71987 0.0
H2563 H 0.42272 0.30427 0.72699 0.0
H2564 H 0.45698 0.33242 0.68217 0.0
H2565 H 0.48418 0.34968 0.66735 0.0
H2566 H 0.49997 0.31133 0.67743 0.0
H2567 H 0.47294 0.29395 0.69248 0.0
H2568 H 0.3769 0.24671 0.66215 0.0
H2569 H 0.39865 0.2727 0.6763 0.0
H2570 H 0.40859 0.23924 0.70611 0.0
H2571 H 0.38616 0.2128 0.6922 0.0
H2572 H 0.43796 0.27867 0.68295 0.0
H2573 H 0.40224 0.25102 0.72931 0.0
H2574 H 0.37341 0.23422 0.74198 0.0
H2575 H 0.35931 0.27239 0.72673 0.0
H2576 H 0.388 0.28927 0.7138 0.0
C2577 C 0.48241 0.35136 0.72383 0.0
C2578 C 0.47589 0.36321 0.72423 0.0
C2579 C 0.4715 0.33371 0.71932 0.0
C2580 C 0.45391 0.3276 0.71502 0.0
C2581 C 0.44739 0.33941 0.71535 0.0
C2582 C 0.45827 0.35703 0.71987 0.0
C2583 C 0.44228 0.30899 0.70996 0.0
C2584 C 0.42616 0.29866 0.71744 0.0
C2585 C 0.44678 0.30154 0.69759 0.0
C2586 C 0.46306 0.31202 0.68862 0.0
C2587 C 0.46633 0.32776 0.68135 0.0
C2588 C 0.4817 0.33755 0.67288 0.0
C2589 C 0.49383 0.33164 0.6715 0.0
C2590 C 0.49059 0.31591 0.67854 0.0
C2591 C 0.47524 0.30608 0.68704 0.0
C2592 C 0.38363 0.24481 0.67175 0.0
C2593 C 0.3799 0.22773 0.67604 0.0
C2594 C 0.39602 0.25967 0.67983 0.0
C2595 C 0.40509 0.25783 0.69226 0.0
C2596 C 0.4015 0.24085 0.69665 0.0
C2597 C 0.38877 0.22582 0.6887 0.0
C2598 C 0.41862 0.27404 0.70007 0.0
C2599 C 0.43494 0.28409 0.6929 0.0
C2600 C 0.4143 0.28127 0.71264 0.0
C2601 C 0.39711 0.27123 0.72042 0.0
C2602 C 0.39289 0.25569 0.72851 0.0
C2603 C 0.37661 0.24619 0.73577 0.0
C2604 C 0.36449 0.25218 0.73509 0.0
C2605 C 0.36868 0.26773 0.7272 0.0
C2606 C 0.38495 0.27727 0.71992 0.0
H2607 H 0.3519 0.24481 0.74072 0.0
H2608 H 0.50572 0.33923 0.66493 0.0
H2609 H 0.64099 0.12694 0.70965 0.0
H2610 H 0.67033 0.13567 0.69978 0.0
H2611 H 0.66354 0.08485 0.71266 0.0
H2612 H 0.63412 0.07587 0.72222 0.0
H2613 H 0.69317 0.1129 0.72516 0.0
H2614 H 0.66519 0.09484 0.67604 0.0
H2615 H 0.64714 0.09442 0.65416 0.0
H2616 H 0.68264 0.14992 0.64685 0.0
H2617 H 0.70078 0.15074 0.66885 0.0
H2618 H 0.76949 0.11647 0.69837 0.0
H2619 H 0.73916 0.10901 0.70261 0.0
H2620 H 0.75009 0.15893 0.68305 0.0
H2621 H 0.78062 0.16622 0.67815 0.0
H2622 H 0.71873 0.13355 0.67378 0.0
H2623 H 0.74456 0.15222 0.7247 0.0
H2624 H 0.76106 0.1528 0.74794 0.0
H2625 H 0.72942 0.09625 0.75158 0.0
H2626 H 0.71228 0.09537 0.72877 0.0
C2627 C 0.64554 0.11744 0.71002 0.0
C2628 C 0.6353 0.10079 0.71694 0.0
C2629 C 0.66233 0.12248 0.70438 0.0
C2630 C 0.66913 0.11094 0.70555 0.0
C2631 C 0.65857 0.094 0.71173 0.0
C2632 C 0.64181 0.08894 0.71729 0.0
C2633 C 0.68785 0.11709 0.70197 0.0
C2634 C 0.69869 0.11722 0.71386 0.0
C2635 C 0.69519 0.12332 0.68738 0.0
C2636 C 0.68423 0.1229 0.67423 0.0
C2637 C 0.66905 0.10701 0.66988 0.0
C2638 C 0.65882 0.10668 0.65743 0.0
C2639 C 0.6637 0.12215 0.64915 0.0
C2640 C 0.67885 0.13796 0.65329 0.0
C2641 C 0.68911 0.13836 0.66575 0.0
C2642 C 0.7655 0.12592 0.69496 0.0
C2643 C 0.77752 0.14202 0.68803 0.0
C2644 C 0.74814 0.12168 0.69751 0.0
C2645 C 0.74241 0.13361 0.69358 0.0
C2646 C 0.75424 0.14957 0.68632 0.0
C2647 C 0.77166 0.15372 0.68351 0.0
C2648 C 0.72399 0.12912 0.69696 0.0
C2649 C 0.71322 0.12936 0.68508 0.0
C2650 C 0.71662 0.12326 0.71161 0.0
C2651 C 0.7273 0.12372 0.72497 0.0
C2652 C 0.74123 0.13991 0.7304 0.0
C2653 C 0.75065 0.1403 0.7435 0.0
C2654 C 0.74648 0.12458 0.75106 0.0
C2655 C 0.7327 0.10842 0.74567 0.0
C2656 C 0.72303 0.10798 0.73275 0.0
H2657 H 0.75384 0.12494 0.76116 0.0
H2658 H 0.65578 0.12187 0.6395 0.0
H2659 H 0.8554 0.49919 0.7197 0.0
H2660 H 0.84565 0.52065 0.715 0.0
H2661 H 0.89947 0.56131 0.70683 0.0
H2662 H 0.90931 0.53994 0.71179 0.0
H2663 H 0.88363 0.5752 0.7221 0.0
H2664 H 0.87061 0.53923 0.6773 0.0
H2665 H 0.85799 0.51164 0.6621 0.0
H2666 H 0.80583 0.49871 0.67555 0.0
H2667 H 0.81818 0.52615 0.69102 0.0
H2668 H 0.87476 0.62468 0.66158 0.0
H2669 H 0.87719 0.60185 0.67553 0.0
H2670 H 0.83166 0.59101 0.70219 0.0
H2671 H 0.82942 0.61459 0.68842 0.0
H2672 H 0.83868 0.56098 0.68145 0.0
H2673 H 0.85586 0.60317 0.72381 0.0
H2674 H 0.87228 0.63412 0.73298 0.0
H2675 H 0.92098 0.6379 0.71908 0.0
H2676 H 0.90479 0.60712 0.70939 0.0
C2677 C 0.86514 0.5127 0.71688 0.0
C2678 C 0.8831 0.51785 0.71597 0.0
C2679 C 0.85956 0.52497 0.71424 0.0
C2680 C 0.87179 0.54257 0.71038 0.0
C2681 C 0.88979 0.54784 0.70985 0.0
C2682 C 0.8954 0.53561 0.71264 0.0
C2683 C 0.86578 0.55525 0.70616 0.0
C2684 C 0.87367 0.57198 0.71332 0.0
C2685 C 0.8528 0.55116 0.69467 0.0
C2686 C 0.84533 0.53459 0.68549 0.0
C2687 C 0.85646 0.53041 0.67714 0.0
C2688 C 0.84935 0.51482 0.66845 0.0
C2689 C 0.83112 0.50339 0.66791 0.0
C2690 C 0.81995 0.50755 0.67602 0.0
C2691 C 0.827 0.52312 0.68475 0.0
C2692 C 0.86524 0.61751 0.67043 0.0
C2693 C 0.85179 0.62129 0.67384 0.0
C2694 C 0.8667 0.60451 0.6784 0.0
C2695 C 0.85461 0.59481 0.68981 0.0
C2696 C 0.84112 0.59847 0.69339 0.0
C2697 C 0.83988 0.61189 0.68558 0.0
C2698 C 0.85634 0.58067 0.6975 0.0
C2699 C 0.84798 0.56379 0.69075 0.0
C2700 C 0.86923 0.58481 0.70901 0.0
C2701 C 0.87908 0.60289 0.71573 0.0
C2702 C 0.87005 0.61064 0.72259 0.0
C2703 C 0.87931 0.62817 0.72782 0.0
C2704 C 0.89764 0.63801 0.72648 0.0
C2705 C 0.90677 0.63028 0.72004 0.0
C2706 C 0.89755 0.61279 0.71467 0.0
H2707 H 0.90478 0.65159 0.73053 0.0
H2708 H 0.82564 0.49134 0.66116 0.0
H2709 H 0.47149 0.92901 0.16926 0.0
H2710 H 0.48306 0.93963 0.14373 0.0
H2711 H 0.49729 0.99288 0.15723 0.0
H2712 H 0.48539 0.98222 0.18272 0.0
H2713 H 0.48188 0.98581 0.13068 0.0
H2714 H 0.52855 0.9791 0.15233 0.0
H2715 H 0.54182 0.96348 0.16543 0.0
H2716 H 0.5238 0.92469 0.12936 0.0
H2717 H 0.5102 0.93994 0.11615 0.0
H2718 H 0.53005 0.02901 0.0662 0.0
H2719 H 0.52614 0.01891 0.09261 0.0
H2720 H 0.50349 0.96479 0.07704 0.0
H2721 H 0.50739 0.9748 0.05046 0.0
H2722 H 0.52417 0.97252 0.10456 0.0
H2723 H 0.47654 0.97898 0.08372 0.0
H2724 H 0.46384 0.99512 0.07061 0.0
H2725 H 0.48446 0.03511 0.10573 0.0
H2726 H 0.49755 0.01934 0.11892 0.0
C2727 C 0.47725 0.94301 0.16683 0.0
C2728 C 0.47755 0.95479 0.178 0.0
C2729 C 0.48392 0.94909 0.15223 0.0
C2730 C 0.49131 0.96712 0.14858 0.0
C2731 C 0.49167 0.97891 0.15976 0.0
C2732 C 0.48483 0.97281 0.17431 0.0
C2733 C 0.49794 0.97356 0.13292 0.0
C2734 C 0.49136 0.98313 0.12511 0.0
C2735 C 0.50999 0.96973 0.12544 0.0
C2736 C 0.51822 0.96058 0.13332 0.0
C2737 C 0.52731 0.96716 0.14725 0.0
C2738 C 0.5349 0.95839 0.15469 0.0
C2739 C 0.53362 0.94308 0.14825 0.0
C2740 C 0.52477 0.93654 0.13434 0.0
C2741 C 0.51713 0.94526 0.12686 0.0
C2742 C 0.52469 0.015 0.06835 0.0
C2743 C 0.51876 0.00268 0.05622 0.0
C2744 C 0.52243 0.00925 0.08347 0.0
C2745 C 0.51417 0.99108 0.08676 0.0
C2746 C 0.5098 0.97887 0.07472 0.0
C2747 C 0.51207 0.98462 0.05953 0.0
C2748 C 0.50822 0.98484 0.10253 0.0
C2749 C 0.51481 0.97525 0.11026 0.0
C2750 C 0.49623 0.9887 0.11002 0.0
C2751 C 0.48818 0.99808 0.10221 0.0
C2752 C 0.47848 0.99129 0.08858 0.0
C2753 C 0.4712 1.00036 0.08114 0.0
C2754 C 0.47338 0.01616 0.08731 0.0
C2755 C 0.48281 0.02288 0.10095 0.0
C2756 C 0.49016 0.01388 0.10842 0.0
H2757 H 0.46773 0.02317 0.08154 0.0
H2758 H 0.53951 0.93631 0.15403 0.0
H2759 H 0.05437 0.50656 0.17168 0.0
H2760 H 0.04798 0.5114 0.14553 0.0
H2761 H 0.01907 0.53595 0.16245 0.0
H2762 H 0.02494 0.53064 0.18874 0.0
H2763 H 0.0018 0.51225 0.1391 0.0
H2764 H 0.0604 0.56143 0.14857 0.0
H2765 H 0.09147 0.57467 0.15676 0.0
H2766 H 0.10042 0.54557 0.12169 0.0
H2767 H 0.06935 0.53198 0.11341 0.0
H2768 H 0.98698 0.52444 0.06308 0.0
H2769 H 0.99751 0.53459 0.08923 0.0
H2770 H 0.03918 0.52235 0.08261 0.0
H2771 H 0.02981 0.51421 0.0562 0.0
H2772 H 0.05023 0.5453 0.10234 0.0
H2773 H 0.99328 0.49107 0.0968 0.0
H2774 H 0.96204 0.47366 0.08883 0.0
H2775 H 0.94985 0.50706 0.11621 0.0
H2776 H 0.98106 0.52476 0.12421 0.0
C2777 C 0.04645 0.51278 0.16987 0.0
C2778 C 0.04017 0.51822 0.1823 0.0
C2779 C 0.04301 0.51575 0.15491 0.0
C2780 C 0.03335 0.52435 0.15207 0.0
C2781 C 0.02671 0.52946 0.16442 0.0
C2782 C 0.03015 0.52648 0.17941 0.0
C2783 C 0.02989 0.52763 0.13616 0.0
C2784 C 0.01236 0.51976 0.1311 0.0
C2785 C 0.0437 0.53709 0.12569 0.0
C2786 C 0.06252 0.54565 0.13041 0.0
C2787 C 0.06898 0.55782 0.14263 0.0
C2788 C 0.08659 0.56538 0.14729 0.0
C2789 C 0.09791 0.56095 0.13976 0.0
C2790 C 0.09165 0.549 0.12751 0.0
C2791 C 0.07404 0.54139 0.12281 0.0
C2792 C 0.9989 0.52483 0.06708 0.0
C2793 C 0.00769 0.51869 0.05774 0.0
C2794 C 0.00474 0.53028 0.08209 0.0
C2795 C 0.01868 0.52848 0.08821 0.0
C2796 C 0.02833 0.5238 0.07834 0.0
C2797 C 0.023 0.51916 0.06319 0.0
C2798 C 0.02205 0.5293 0.105 0.0
C2799 C 0.03959 0.53802 0.11032 0.0
C2800 C 0.00824 0.52006 0.11564 0.0
C2801 C 0.98949 0.50934 0.11094 0.0
C2802 C 0.98393 0.49472 0.10106 0.0
C2803 C 0.96624 0.48481 0.09654 0.0
C2804 C 0.95398 0.48929 0.10197 0.0
C2805 C 0.95937 0.50364 0.11198 0.0
C2806 C 0.97704 0.51361 0.11652 0.0
H2807 H 0.9403 0.48161 0.09845 0.0
H2808 H 0.11153 0.5668 0.1434 0.0
H2809 H 0.50192 0.53142 0.17861 0.0
H2810 H 0.51326 0.53502 0.15262 0.0
H2811 H 0.46296 0.52461 0.13463 0.0
H2812 H 0.45154 0.52095 0.16058 0.0
H2813 H 0.47452 0.50635 0.11932 0.0
H2814 H 0.49914 0.5668 0.13548 0.0
H2815 H 0.51575 0.5926 0.15251 0.0
H2816 H 0.56268 0.58948 0.14587 0.0
H2817 H 0.54628 0.56348 0.12896 0.0
H2818 H 0.49867 0.52994 0.04417 0.0
H2819 H 0.49444 0.53827 0.06974 0.0
H2820 H 0.536 0.53009 0.08706 0.0
H2821 H 0.54008 0.52133 0.06147 0.0
H2822 H 0.52962 0.55943 0.10229 0.0
H2823 H 0.50379 0.49685 0.08903 0.0
H2824 H 0.48732 0.47112 0.0719 0.0
H2825 H 0.44247 0.47863 0.07337 0.0
H2826 H 0.45886 0.50461 0.09041 0.0
C2827 C 0.49333 0.53004 0.16912 0.0
C2828 C 0.47582 0.5259 0.17166 0.0
C2829 C 0.49984 0.53214 0.15427 0.0
C2830 C 0.48904 0.53033 0.14167 0.0
C2831 C 0.47154 0.52609 0.14418 0.0
C2832 C 0.465 0.52391 0.15901 0.0
C2833 C 0.49576 0.53221 0.12585 0.0
C2834 C 0.48642 0.5181 0.11559 0.0
C2835 C 0.5115 0.54737 0.12101 0.0
C2836 C 0.52144 0.56309 0.13106 0.0
C2837 C 0.51298 0.57153 0.13774 0.0
C2838 C 0.52236 0.58621 0.14735 0.0
C2839 C 0.54025 0.59265 0.1503 0.0
C2840 C 0.54882 0.58446 0.14359 0.0
C2841 C 0.53949 0.56977 0.13398 0.0
C2842 C 0.50754 0.53078 0.05322 0.0
C2843 C 0.51961 0.52484 0.05086 0.0
C2844 C 0.50503 0.53546 0.06786 0.0
C2845 C 0.51477 0.53455 0.08026 0.0
C2846 C 0.52839 0.53087 0.07759 0.0
C2847 C 0.53067 0.52584 0.06299 0.0
C2848 C 0.50829 0.53365 0.09596 0.0
C2849 C 0.51766 0.54783 0.10611 0.0
C2850 C 0.49258 0.51856 0.10079 0.0
C2851 C 0.48264 0.50286 0.09072 0.0
C2852 C 0.49051 0.49316 0.08554 0.0
C2853 C 0.48118 0.4785 0.07591 0.0
C2854 C 0.46388 0.47328 0.07153 0.0
C2855 C 0.45588 0.48273 0.07676 0.0
C2856 C 0.46519 0.49742 0.08639 0.0
H2857 H 0.45665 0.46181 0.06421 0.0
H2858 H 0.54749 0.60401 0.15775 0.0
H2859 H 0.97925 0.48194 0.82854 0.0
H2860 H 0.98643 0.47784 0.85474 0.0
H2861 H 0.93682 0.47142 0.87008 0.0
H2862 H 0.92975 0.4758 0.84398 0.0
H2863 H 0.96184 0.49242 0.8887 0.0
H2864 H 0.94421 0.43574 0.86652 0.0
H2865 H 0.94428 0.41483 0.84752 0.0
H2866 H 0.99868 0.43283 0.85784 0.0
H2867 H 0.99901 0.45405 0.87675 0.0
H2868 H 0.9709 0.47044 0.96285 0.0
H2869 H 0.95826 0.46207 0.93721 0.0
H2870 H 0.00975 0.47814 0.91907 0.0
H2871 H 0.02249 0.48636 0.94474 0.0
H2872 H 0.98144 0.44961 0.90241 0.0
H2873 H 0.99919 0.50829 0.92257 0.0
H2874 H 0.99878 0.5289 0.94174 0.0
H2875 H 0.94299 0.50628 0.935 0.0
H2876 H 0.94301 0.48528 0.91601 0.0
C2877 C 0.96986 0.47956 0.83751 0.0
C2878 C 0.95396 0.47923 0.83423 0.0
C2879 C 0.97393 0.47714 0.85246 0.0
C2880 C 0.96204 0.47405 0.86436 0.0
C2881 C 0.94619 0.47377 0.86109 0.0
C2882 C 0.9422 0.47635 0.84619 0.0
C2883 C 0.96639 0.47175 0.88032 0.0
C2884 C 0.96578 0.4828 0.8917 0.0
C2885 C 0.97185 0.45942 0.88425 0.0
C2886 C 0.97167 0.44659 0.87297 0.0
C2887 C 0.95623 0.43533 0.86466 0.0
C2888 C 0.95619 0.42341 0.85392 0.0
C2889 C 0.97149 0.42253 0.85145 0.0
C2890 C 0.98684 0.43354 0.85976 0.0
C2891 C 0.98696 0.4455 0.8705 0.0
C2892 C 0.97941 0.47137 0.95355 0.0
C2893 C 0.99773 0.47924 0.95578 0.0
C2894 C 0.97217 0.4667 0.93887 0.0
C2895 C 0.98315 0.46986 0.92624 0.0
C2896 C 0.00108 0.47569 0.92867 0.0
C2897 C 0.00834 0.48042 0.94334 0.0
C2898 C 0.97678 0.47021 0.91062 0.0
C2899 C 0.97718 0.45896 0.89934 0.0
C2900 C 0.97103 0.48229 0.90675 0.0
C2901 C 0.97106 0.49508 0.91801 0.0
C2902 C 0.98681 0.50761 0.92528 0.0
C2903 C 0.98665 0.51937 0.9361 0.0
C2904 C 0.97086 0.51887 0.9396 0.0
C2905 C 0.9552 0.50662 0.93229 0.0
C2906 C 0.95527 0.49478 0.92151 0.0
H2907 H 0.97077 0.52802 0.94792 0.0
H2908 H 0.97143 0.4133 0.84313 0.0
H2909 H 0.55208 0.48021 0.83997 0.0
H2910 H 0.53964 0.47671 0.86552 0.0
H2911 H 0.4941 0.47663 0.84636 0.0
H2912 H 0.50661 0.48043 0.82075 0.0
H2913 H 0.50759 0.4985 0.8713 0.0
H2914 H 0.49067 0.43866 0.85833 0.0
H2915 H 0.49506 0.41421 0.84961 0.0
H2916 H 0.53017 0.42357 0.88743 0.0
H2917 H 0.52621 0.44828 0.89624 0.0
H2918 H 0.46455 0.48169 0.94075 0.0
H2919 H 0.46864 0.47453 0.91459 0.0
H2920 H 0.51429 0.47168 0.92923 0.0
H2921 H 0.50954 0.47766 0.95552 0.0
H2922 H 0.49851 0.4495 0.90573 0.0
H2923 H 0.51818 0.51063 0.91711 0.0
H2924 H 0.51493 0.53567 0.92621 0.0
H2925 H 0.47569 0.5244 0.8916 0.0
H2926 H 0.47851 0.4991 0.88245 0.0
C2927 C 0.53947 0.47956 0.84121 0.0
C2928 C 0.53033 0.48063 0.82836 0.0
C2929 C 0.53229 0.47737 0.85578 0.0
C2930 C 0.51585 0.4762 0.8578 0.0
C2931 C 0.50676 0.47741 0.84503 0.0
C2932 C 0.51388 0.47949 0.83042 0.0
C2933 C 0.50846 0.4743 0.87333 0.0
C2934 C 0.5052 0.48756 0.87873 0.0
C2935 C 0.50583 0.46029 0.88314 0.0
C2936 C 0.50828 0.44545 0.87785 0.0
C2937 C 0.49946 0.43562 0.86471 0.0
C2938 C 0.50185 0.42169 0.85976 0.0
C2939 C 0.51293 0.41737 0.86794 0.0
C2940 C 0.52161 0.42695 0.88109 0.0
C2941 C 0.51929 0.44091 0.88607 0.0
C2942 C 0.47493 0.47869 0.93849 0.0
C2943 C 0.48677 0.48031 0.95012 0.0
C2944 C 0.4774 0.47482 0.92352 0.0
C2945 C 0.49209 0.47311 0.91988 0.0
C2946 C 0.5029 0.47301 0.93175 0.0
C2947 C 0.50012 0.47635 0.94681 0.0
C2948 C 0.4974 0.47356 0.90372 0.0
C2949 C 0.50047 0.4602 0.89824 0.0
C2950 C 0.49998 0.48754 0.89384 0.0
C2951 C 0.49841 0.50286 0.89921 0.0
C2952 C 0.50877 0.51342 0.9115 0.0
C2953 C 0.50702 0.52766 0.91667 0.0
C2954 C 0.49508 0.53159 0.90951 0.0
C2955 C 0.48491 0.52132 0.89715 0.0
C2956 C 0.48658 0.50703 0.89197 0.0
H2957 H 0.49373 0.54262 0.91353 0.0
H2958 H 0.51475 0.40657 0.8641 0.0
H2959 H 0.51193 0.07933 0.83909 0.0
H2960 H 0.50624 0.06804 0.86521 0.0
H2961 H 0.50245 0.01921 0.84964 0.0
H2962 H 0.50778 0.03028 0.82339 0.0
H2963 H 0.47595 0.01326 0.86939 0.0
H2964 H 0.53902 0.04983 0.86779 0.0
H2965 H 0.56726 0.07723 0.86325 0.0
H2966 H 0.55381 0.1049 0.89636 0.0
H2967 H 0.52537 0.07771 0.90095 0.0
H2968 H 0.48838 0.97813 0.93783 0.0
H2969 H 0.48822 0.98977 0.91267 0.0
H2970 H 0.49549 0.03813 0.93314 0.0
H2971 H 0.49621 0.02669 0.95855 0.0
H2972 H 0.51862 0.04548 0.91129 0.0
H2973 H 0.45621 0.00774 0.91438 0.0
H2974 H 0.42839 0.97994 0.91904 0.0
H2975 H 0.44062 0.95408 0.88328 0.0
H2976 H 0.46864 0.98166 0.87854 0.0
C2977 C 0.50978 0.06614 0.8412 0.0
C2978 C 0.51031 0.0557 0.82914 0.0
C2979 C 0.50665 0.05976 0.85616 0.0
C2980 C 0.50403 0.04283 0.85941 0.0
C2981 C 0.50445 0.03232 0.8474 0.0
C2982 C 0.50765 0.03873 0.83243 0.0
C2983 C 0.50089 0.03609 0.87533 0.0
C2984 C 0.48534 0.0202 0.87855 0.0
C2985 C 0.51291 0.04541 0.88734 0.0
C2986 C 0.52998 0.06179 0.88458 0.0
C2987 C 0.54202 0.0618 0.874 0.0
C2988 C 0.55807 0.07728 0.87144 0.0
C2989 C 0.5623 0.09281 0.87947 0.0
C2990 C 0.5505 0.09287 0.89012 0.0
C2991 C 0.53442 0.07743 0.89271 0.0
C2992 C 0.48959 0.99111 0.93706 0.0
C2993 C 0.4924 0.00151 0.95024 0.0
C2994 C 0.48941 0.99774 0.9226 0.0
C2995 C 0.49173 0.01481 0.92094 0.0
C2996 C 0.49368 0.02492 0.93412 0.0
C2997 C 0.49396 0.01831 0.94865 0.0
C2998 C 0.49368 0.02253 0.90543 0.0
C2999 C 0.50907 0.03861 0.90223 0.0
C3000 C 0.48151 0.01335 0.89344 0.0
C3001 C 0.46459 0.99676 0.89617 0.0
C3002 C 0.45302 0.9961 0.90757 0.0
C3003 C 0.43721 0.98038 0.91022 0.0
C3004 C 0.43275 0.96525 0.90148 0.0
C3005 C 0.44409 0.96581 0.89004 0.0
C3006 C 0.45993 0.9815 0.88736 0.0
H3007 H 0.42051 0.95309 0.90355 0.0
H3008 H 0.57474 0.10478 0.87748 0.0
H3009 H 0.17109 0.30692 0.52018 0.0
H3010 H 0.1832 0.31689 0.49462 0.0
H3011 H 0.13693 0.27264 0.47465 0.0
H3012 H 0.12488 0.26243 0.50016 0.0
H3013 H 0.16805 0.27896 0.46052 0.0
H3014 H 0.13958 0.31189 0.4762 0.0
H3015 H 0.13454 0.33135 0.49343 0.0
H3016 H 0.1886 0.37228 0.48874 0.0
H3017 H 0.19401 0.35295 0.47163 0.0
H3018 H 0.16375 0.30702 0.3854 0.0
H3019 H 0.16157 0.29545 0.41109 0.0
H3020 H 0.20287 0.3469 0.42642 0.0
H3021 H 0.204 0.35876 0.40088 0.0
H3022 H 0.17775 0.3376 0.444 0.0
H3023 H 0.20521 0.30588 0.42484 0.0
H3024 H 0.20964 0.28623 0.40734 0.0
H3025 H 0.15839 0.243 0.4185 0.0
H3026 H 0.15342 0.26246 0.43563 0.0
C3027 C 0.1636 0.29918 0.51035 0.0
C3028 C 0.14696 0.28396 0.51218 0.0
C3029 C 0.17051 0.30493 0.49576 0.0
C3030 C 0.16091 0.29556 0.48274 0.0
C3031 C 0.14455 0.28006 0.48455 0.0
C3032 C 0.13761 0.27436 0.49912 0.0
C3033 C 0.16738 0.3024 0.4672 0.0
C3034 C 0.17016 0.29176 0.45681 0.0
C3035 C 0.17052 0.31927 0.46255 0.0
C3036 C 0.16725 0.33091 0.47279 0.0
C3037 C 0.15042 0.32499 0.47895 0.0
C3038 C 0.14749 0.336 0.48867 0.0
C3039 C 0.16126 0.35302 0.49222 0.0
C3040 C 0.17797 0.35908 0.48601 0.0
C3041 C 0.18097 0.34811 0.47629 0.0
C3042 C 0.17283 0.31566 0.39413 0.0
C3043 C 0.18413 0.33374 0.39119 0.0
C3044 C 0.1716 0.30903 0.40888 0.0
C3045 C 0.18212 0.32023 0.42083 0.0
C3046 C 0.19451 0.33798 0.41749 0.0
C3047 C 0.19531 0.34473 0.40286 0.0
C3048 C 0.17855 0.3142 0.43702 0.0
C3049 C 0.17613 0.32496 0.44762 0.0
C3050 C 0.17585 0.29746 0.44181 0.0
C3051 C 0.17891 0.2857 0.43149 0.0
C3052 C 0.19482 0.29222 0.42346 0.0
C3053 C 0.19742 0.28111 0.41357 0.0
C3054 C 0.1843 0.26338 0.41175 0.0
C3055 C 0.16854 0.25674 0.41982 0.0
C3056 C 0.16582 0.26781 0.42963 0.0
H3057 H 0.18637 0.25479 0.40415 0.0
H3058 H 0.15896 0.36153 0.49974 0.0
H3059 H 0.73707 0.87818 0.50595 0.0
H3060 H 0.72769 0.88037 0.4801 0.0
H3061 H 0.67544 0.83702 0.48943 0.0
H3062 H 0.68494 0.83454 0.51523 0.0
H3063 H 0.68546 0.83215 0.46302 0.0
H3064 H 0.68562 0.88142 0.48737 0.0
H3065 H 0.69771 0.9092 0.50225 0.0
H3066 H 0.73779 0.93612 0.46854 0.0
H3067 H 0.72609 0.90843 0.45356 0.0
H3068 H 0.64186 0.84068 0.39992 0.0
H3069 H 0.6523 0.84812 0.42628 0.0
H3070 H 0.70607 0.87272 0.41094 0.0
H3071 H 0.69583 0.86574 0.38446 0.0
H3072 H 0.69527 0.88842 0.44001 0.0
H3073 H 0.69623 0.83724 0.4176 0.0
H3074 H 0.68241 0.80967 0.40231 0.0
H3075 H 0.6384 0.78668 0.43287 0.0
H3076 H 0.65183 0.8143 0.44817 0.0
C3077 C 0.72354 0.86924 0.50252 0.0
C3078 C 0.71171 0.85621 0.51259 0.0
C3079 C 0.71817 0.87054 0.48776 0.0
C3080 C 0.70078 0.85904 0.48287 0.0
C3081 C 0.68892 0.84605 0.49295 0.0
C3082 C 0.69435 0.84461 0.50766 0.0
C3083 C 0.69517 0.86 0.46702 0.0
C3084 C 0.68746 0.84445 0.45813 0.0
C3085 C 0.69802 0.87611 0.46044 0.0
C3086 C 0.7051 0.89278 0.46944 0.0
C3087 C 0.69711 0.89322 0.4832 0.0
C3088 C 0.70388 0.90896 0.49164 0.0
C3089 C 0.71855 0.9244 0.48637 0.0
C3090 C 0.72645 0.92414 0.47263 0.0
C3091 C 0.71975 0.90843 0.46415 0.0
C3092 C 0.65593 0.84836 0.40208 0.0
C3093 C 0.66802 0.85237 0.39015 0.0
C3094 C 0.66186 0.8526 0.41714 0.0
C3095 C 0.67993 0.86095 0.42048 0.0
C3096 C 0.69209 0.86662 0.40852 0.0
C3097 C 0.68618 0.86249 0.39339 0.0
C3098 C 0.68573 0.86068 0.43628 0.0
C3099 C 0.6934 0.87624 0.44505 0.0
C3100 C 0.68279 0.84463 0.44285 0.0
C3101 C 0.67492 0.82788 0.43391 0.0
C3102 C 0.68353 0.82636 0.42098 0.0
C3103 C 0.67579 0.81072 0.41232 0.0
C3104 C 0.65951 0.79644 0.41659 0.0
C3105 C 0.65099 0.79776 0.42956 0.0
C3106 C 0.65866 0.8134 0.43823 0.0
H3107 H 0.65353 0.78435 0.40988 0.0
H3108 H 0.72376 0.93658 0.49292 0.0
H3109 H 0.15678 0.8864 0.50808 0.0
H3110 H 0.16871 0.88782 0.48259 0.0
H3111 H 0.15315 0.83243 0.48533 0.0
H3112 H 0.1417 0.83103 0.51099 0.0
H3113 H 0.18596 0.85216 0.473 0.0
H3114 H 0.12746 0.84601 0.46582 0.0
H3115 H 0.1057 0.85585 0.46935 0.0
H3116 H 0.14146 0.90616 0.44931 0.0
H3117 H 0.16351 0.89669 0.44593 0.0
H3118 H 0.16732 0.81206 0.40197 0.0
H3119 H 0.16995 0.82386 0.42749 0.0
H3120 H 0.18342 0.87488 0.40886 0.0
H3121 H 0.18011 0.86286 0.38288 0.0
H3122 H 0.15845 0.86549 0.42911 0.0
H3123 H 0.21393 0.86875 0.43045 0.0
H3124 H 0.23564 0.85899 0.42649 0.0
H3125 H 0.20749 0.81579 0.45748 0.0
H3126 H 0.18545 0.82511 0.46147 0.0
C3127 C 0.15612 0.87458 0.50335 0.0
C3128 C 0.14819 0.85856 0.51155 0.0
C3129 C 0.16284 0.87539 0.48873 0.0
C3130 C 0.16167 0.86019 0.482 0.0
C3131 C 0.15417 0.84432 0.4903 0.0
C3132 C 0.14747 0.84349 0.5049 0.0
C3133 C 0.16757 0.86044 0.4661 0.0
C3134 C 0.17999 0.85508 0.46337 0.0
C3135 C 0.16036 0.86503 0.45359 0.0
C3136 C 0.14712 0.87068 0.45566 0.0
C3137 C 0.13069 0.8592 0.46224 0.0
C3138 C 0.11832 0.86471 0.46423 0.0
C3139 C 0.1222 0.88163 0.45957 0.0
C3140 C 0.13846 0.89306 0.45291 0.0
C3141 C 0.15089 0.88762 0.45094 0.0
C3142 C 0.17114 0.82592 0.40321 0.0
C3143 C 0.17337 0.83649 0.39034 0.0
C3144 C 0.17282 0.83272 0.4179 0.0
C3145 C 0.17711 0.85038 0.42019 0.0
C3146 C 0.18016 0.86126 0.40738 0.0
C3147 C 0.17838 0.8544 0.39255 0.0
C3148 C 0.17642 0.85653 0.4359 0.0
C3149 C 0.16493 0.8631 0.43866 0.0
C3150 C 0.18466 0.85323 0.44844 0.0
C3151 C 0.198 0.84764 0.44623 0.0
C3152 C 0.21231 0.85712 0.43637 0.0
C3153 C 0.22469 0.85166 0.43412 0.0
C3154 C 0.22294 0.83678 0.44172 0.0
C3155 C 0.20883 0.82733 0.45161 0.0
C3156 C 0.19642 0.83273 0.4539 0.0
H3157 H 0.23253 0.83257 0.43995 0.0
H3158 H 0.1126 0.88587 0.46111 0.0
H3159 H 0.59361 0.80128 0.17607 0.0
H3160 H 0.60194 0.79831 0.2021 0.0
H3161 H 0.65367 0.81122 0.18654 0.0
H3162 H 0.64522 0.81387 0.16031 0.0
H3163 H 0.64183 0.78527 0.20771 0.0
H3164 H 0.64774 0.84312 0.20387 0.0
H3165 H 0.63791 0.86444 0.19754 0.0
H3166 H 0.59483 0.8385 0.22878 0.0
H3167 H 0.60437 0.81695 0.23524 0.0
H3168 H 0.69139 0.82799 0.27609 0.0
H3169 H 0.67843 0.81716 0.25075 0.0
H3170 H 0.62634 0.79518 0.26968 0.0
H3171 H 0.63918 0.80571 0.29507 0.0
H3172 H 0.63631 0.82296 0.24739 0.0
H3173 H 0.63345 0.76705 0.25328 0.0
H3174 H 0.64456 0.74675 0.25947 0.0
H3175 H 0.68367 0.77039 0.22449 0.0
H3176 H 0.67287 0.79094 0.21816 0.0
C3177 C 0.60677 0.80352 0.17821 0.0
C3178 C 0.61886 0.80806 0.16623 0.0
C3179 C 0.6115 0.80177 0.19307 0.0
C3180 C 0.62852 0.80482 0.1963 0.0
C3181 C 0.64047 0.80881 0.18429 0.0
C3182 C 0.63566 0.81038 0.16935 0.0
C3183 C 0.63405 0.80471 0.21233 0.0
C3184 C 0.64078 0.79361 0.21637 0.0
C3185 C 0.63237 0.81536 0.22369 0.0
C3186 C 0.62669 0.82837 0.21995 0.0
C3187 C 0.63612 0.84193 0.20934 0.0
C3188 C 0.63062 0.85406 0.20574 0.0
C3189 C 0.61574 0.85281 0.21274 0.0
C3190 C 0.60635 0.83944 0.22336 0.0
C3191 C 0.61182 0.82729 0.22702 0.0
C3192 C 0.67717 0.82022 0.27494 0.0
C3193 C 0.6663 0.81775 0.28753 0.0
C3194 C 0.66979 0.81402 0.26048 0.0
C3195 C 0.65145 0.80548 0.25838 0.0
C3196 C 0.64053 0.8017 0.27112 0.0
C3197 C 0.6479 0.80762 0.28564 0.0
C3198 C 0.64408 0.80351 0.24279 0.0
C3199 C 0.63714 0.8144 0.23879 0.0
C3200 C 0.64581 0.79286 0.23151 0.0
C3201 C 0.65245 0.78064 0.23534 0.0
C3202 C 0.64453 0.76804 0.247 0.0
C3203 C 0.65073 0.75645 0.25051 0.0
C3204 C 0.66485 0.75732 0.24241 0.0
C3205 C 0.67275 0.76974 0.23076 0.0
C3206 C 0.66656 0.78134 0.22719 0.0
H3207 H 0.66964 0.74834 0.24514 0.0
H3208 H 0.6115 0.86222 0.20994 0.0
H3209 H 0.21252 0.84397 0.16595 0.0
H3210 H 0.20132 0.84138 0.19186 0.0
H3211 H 0.16544 0.78558 0.1845 0.0
H3212 H 0.17684 0.78791 0.15867 0.0
H3213 H 0.14969 0.8021 0.19956 0.0
H3214 H 0.20152 0.79717 0.20415 0.0
H3215 H 0.23271 0.80602 0.20022 0.0
H3216 H 0.24898 0.85487 0.22432 0.0
H3217 H 0.21786 0.84644 0.22818 0.0
H3218 H 0.16753 0.80489 0.28883 0.0
H3219 H 0.17022 0.79696 0.26261 0.0
H3220 H 0.14975 0.82977 0.24587 0.0
H3221 H 0.14647 0.83725 0.27205 0.0
H3222 H 0.19198 0.81977 0.24294 0.0
H3223 H 0.13275 0.81731 0.21026 0.0
H3224 H 0.10121 0.80682 0.21438 0.0
H3225 H 0.09871 0.76901 0.24715 0.0
H3226 H 0.13017 0.77909 0.24308 0.0
C3227 C 0.20233 0.8311 0.16984 0.0
C3228 C 0.1957 0.81613 0.16022 0.0
C3229 C 0.19587 0.82967 0.18464 0.0
C3230 C 0.18266 0.81325 0.19015 0.0
C3231 C 0.17561 0.79838 0.18046 0.0
C3232 C 0.18212 0.79978 0.16567 0.0
C3233 C 0.17667 0.81156 0.20619 0.0
C3234 C 0.15889 0.80591 0.20907 0.0
C3235 C 0.18862 0.81613 0.2186 0.0
C3236 C 0.20735 0.82123 0.21634 0.0
C3237 C 0.21175 0.80987 0.2085 0.0
C3238 C 0.22941 0.8148 0.2063 0.0
C3239 C 0.24282 0.83102 0.21199 0.0
C3240 C 0.23858 0.84232 0.21991 0.0
C3241 C 0.22093 0.83747 0.22211 0.0
C3242 C 0.16294 0.80985 0.27961 0.0
C3243 C 0.15675 0.82167 0.28256 0.0
C3244 C 0.16467 0.80546 0.26459 0.0
C3245 C 0.16022 0.81277 0.25223 0.0
C3246 C 0.15305 0.82374 0.25518 0.0
C3247 C 0.15126 0.82808 0.27019 0.0
C3248 C 0.16501 0.81073 0.23639 0.0
C3249 C 0.18266 0.81576 0.2335 0.0
C3250 C 0.15286 0.80537 0.22403 0.0
C3251 C 0.13387 0.79906 0.22644 0.0
C3252 C 0.12545 0.80669 0.21829 0.0
C3253 C 0.10759 0.80083 0.22063 0.0
C3254 C 0.09798 0.78729 0.23105 0.0
C3255 C 0.10619 0.77954 0.23912 0.0
C3256 C 0.12405 0.78534 0.23682 0.0
H3257 H 0.08415 0.78278 0.23286 0.0
H3258 H 0.25649 0.83481 0.21028 0.0
H3259 H 0.19952 0.40894 0.1713 0.0
H3260 H 0.19466 0.40075 0.19825 0.0
H3261 H 0.14691 0.3524 0.18642 0.0
H3262 H 0.15169 0.36053 0.15941 0.0
H3263 H 0.14157 0.36741 0.21085 0.0
H3264 H 0.18449 0.35198 0.19573 0.0
H3265 H 0.21215 0.35635 0.18453 0.0
H3266 H 0.24216 0.39755 0.21727 0.0
H3267 H 0.21466 0.3936 0.22854 0.0
H3268 H 0.14088 0.31599 0.27657 0.0
H3269 H 0.14143 0.32805 0.25119 0.0
H3270 H 0.17599 0.38094 0.26826 0.0
H3271 H 0.17503 0.369 0.29384 0.0
H3272 H 0.18792 0.36514 0.242 0.0
H3273 H 0.14311 0.37803 0.25801 0.0
H3274 H 0.11463 0.37065 0.26949 0.0
H3275 H 0.08726 0.33091 0.23496 0.0
H3276 H 0.11563 0.33782 0.22343 0.0
C3277 C 0.18809 0.39646 0.1744 0.0
C3278 C 0.17604 0.38534 0.16318 0.0
C3279 C 0.18529 0.39183 0.18983 0.0
C3280 C 0.17048 0.37589 0.19437 0.0
C3281 C 0.15838 0.3648 0.18321 0.0
C3282 C 0.16114 0.36946 0.16777 0.0
C3283 C 0.1677 0.37076 0.21074 0.0
C3284 C 0.15167 0.36679 0.21761 0.0
C3285 C 0.18094 0.37014 0.21966 0.0
C3286 C 0.19751 0.37264 0.21286 0.0
C3287 C 0.19699 0.36209 0.20045 0.0
C3288 C 0.21264 0.36447 0.19411 0.0
C3289 C 0.22891 0.37726 0.20016 0.0
C3290 C 0.22955 0.38767 0.21258 0.0
C3291 C 0.21394 0.38537 0.21896 0.0
C3292 C 0.14805 0.33023 0.27503 0.0
C3293 C 0.15786 0.34157 0.28715 0.0
C3294 C 0.14841 0.33709 0.26054 0.0
C3295 C 0.15884 0.35534 0.25789 0.0
C3296 C 0.16784 0.36681 0.27015 0.0
C3297 C 0.16715 0.35999 0.28475 0.0
C3298 C 0.16193 0.36198 0.24203 0.0
C3299 C 0.17797 0.36604 0.23524 0.0
C3300 C 0.14862 0.36238 0.23317 0.0
C3301 C 0.13152 0.35833 0.23995 0.0
C3302 C 0.13104 0.3676 0.25295 0.0
C3303 C 0.11491 0.36352 0.25945 0.0
C3304 C 0.09914 0.35029 0.25298 0.0
C3305 C 0.09948 0.34114 0.23997 0.0
C3306 C 0.11559 0.34514 0.23344 0.0
H3307 H 0.08666 0.34715 0.25803 0.0
H3308 H 0.24101 0.37907 0.19524 0.0
H3309 H 0.81968 0.64854 0.84959 0.0
H3310 H 0.83101 0.65831 0.82384 0.0
H3311 H 0.81793 0.60494 0.81197 0.0
H3312 H 0.8069 0.59519 0.83784 0.0
H3313 H 0.84877 0.6276 0.80033 0.0
H3314 H 0.79174 0.62246 0.80068 0.0
H3315 H 0.76818 0.62764 0.81006 0.0
H3316 H 0.8013 0.68363 0.80308 0.0
H3317 H 0.82516 0.6788 0.79385 0.0
H3318 H 0.84299 0.64105 0.71815 0.0
H3319 H 0.83955 0.63054 0.74458 0.0
H3320 H 0.86237 0.68433 0.761 0.0
H3321 H 0.86609 0.69497 0.73481 0.0
H3322 H 0.82657 0.66048 0.76992 0.0
H3323 H 0.88374 0.66523 0.77006 0.0
H3324 H 0.9076 0.65979 0.76206 0.0
H3325 H 0.87328 0.60374 0.76749 0.0
H3326 H 0.84919 0.60885 0.77551 0.0
C3327 C 0.81917 0.63889 0.84147 0.0
C3328 C 0.8123 0.62108 0.84569 0.0
C3329 C 0.82565 0.64448 0.82675 0.0
C3330 C 0.82507 0.6323 0.81586 0.0
C3331 C 0.81852 0.61458 0.82016 0.0
C3332 C 0.81222 0.60902 0.83493 0.0
C3333 C 0.83103 0.63802 0.79995 0.0
C3334 C 0.84372 0.63456 0.7936 0.0
C3335 C 0.82465 0.64734 0.79121 0.0
C3336 C 0.81029 0.65028 0.7967 0.0
C3337 C 0.79404 0.63589 0.80124 0.0
C3338 C 0.78063 0.63876 0.80652 0.0
C3339 C 0.78326 0.65596 0.8072 0.0
C3340 C 0.79929 0.67032 0.80256 0.0
C3341 C 0.81276 0.66752 0.7973 0.0
C3342 C 0.84785 0.6507 0.72736 0.0
C3343 C 0.85451 0.66883 0.72437 0.0
C3344 C 0.84585 0.64466 0.74246 0.0
C3345 C 0.85052 0.65666 0.75471 0.0
C3346 C 0.85862 0.67486 0.7517 0.0
C3347 C 0.86073 0.6809 0.73669 0.0
C3348 C 0.84446 0.65026 0.77041 0.0
C3349 C 0.83159 0.65349 0.77666 0.0
C3350 C 0.85055 0.6406 0.77894 0.0
C3351 C 0.86463 0.63741 0.77325 0.0
C3352 C 0.88122 0.65173 0.76937 0.0
C3353 C 0.89482 0.64872 0.76496 0.0
C3354 C 0.89199 0.63144 0.76436 0.0
C3355 C 0.87549 0.61712 0.76804 0.0
C3356 C 0.86186 0.62007 0.77254 0.0
H3357 H 0.90253 0.62913 0.76093 0.0
H3358 H 0.77285 0.65815 0.81128 0.0
H3359 H 0.39773 0.19268 0.83932 0.0
H3360 H 0.38855 0.19639 0.81382 0.0
H3361 H 0.33915 0.18767 0.83195 0.0
H3362 H 0.34826 0.18385 0.85759 0.0
H3363 H 0.33571 0.16707 0.80618 0.0
H3364 H 0.36823 0.22811 0.82127 0.0
H3365 H 0.39394 0.2549 0.83181 0.0
H3366 H 0.42624 0.25365 0.79567 0.0
H3367 H 0.40079 0.22669 0.78503 0.0
H3368 H 0.31065 0.17257 0.73277 0.0
H3369 H 0.31746 0.18317 0.75922 0.0
H3370 H 0.37244 0.20084 0.75148 0.0
H3371 H 0.36574 0.19141 0.72476 0.0
H3372 H 0.37028 0.21979 0.77356 0.0
H3373 H 0.34196 0.15705 0.76209 0.0
H3374 H 0.31837 0.1287 0.7515 0.0
H3375 H 0.28065 0.13147 0.78082 0.0
H3376 H 0.304 0.15998 0.79142 0.0
C3377 C 0.38489 0.19152 0.83787 0.0
C3378 C 0.37365 0.18787 0.85041 0.0
C3379 C 0.37976 0.19384 0.82334 0.0
C3380 C 0.36327 0.19253 0.82106 0.0
C3381 C 0.35199 0.18888 0.83353 0.0
C3382 C 0.3572 0.18673 0.84813 0.0
C3383 C 0.35749 0.19382 0.80543 0.0
C3384 C 0.34298 0.17875 0.79915 0.0
C3385 C 0.36733 0.2089 0.79618 0.0
C3386 C 0.3826 0.22531 0.80239 0.0
C3387 C 0.38084 0.23348 0.81562 0.0
C3388 C 0.39536 0.24871 0.82161 0.0
C3389 C 0.41172 0.25596 0.81443 0.0
C3390 C 0.41356 0.24803 0.80122 0.0
C3391 C 0.39908 0.23278 0.79518 0.0
C3392 C 0.32428 0.17956 0.73657 0.0
C3393 C 0.3377 0.18121 0.72688 0.0
C3394 C 0.32816 0.18543 0.7517 0.0
C3395 C 0.34535 0.19217 0.75749 0.0
C3396 C 0.35904 0.19553 0.74734 0.0
C3397 C 0.35524 0.19019 0.73206 0.0
C3398 C 0.34862 0.19292 0.77423 0.0
C3399 C 0.36271 0.20829 0.7807 0.0
C3400 C 0.33866 0.17793 0.78363 0.0
C3401 C 0.32466 0.16072 0.77741 0.0
C3402 C 0.32861 0.15164 0.76621 0.0
C3403 C 0.31529 0.13556 0.76021 0.0
C3404 C 0.29801 0.12832 0.76545 0.0
C3405 C 0.29403 0.13712 0.77674 0.0
C3406 C 0.3073 0.15324 0.78275 0.0
H3407 H 0.28771 0.11587 0.76079 0.0
H3408 H 0.42295 0.26774 0.81909 0.0
H3409 H 0.81558 0.16993 0.84467 0.0
H3410 H 0.82711 0.17212 0.81882 0.0
H3411 H 0.8192 0.21628 0.80948 0.0
H3412 H 0.80761 0.21414 0.83527 0.0
H3413 H 0.80669 0.18965 0.78598 0.0
H3414 H 0.85933 0.22479 0.81684 0.0
H3415 H 0.87932 0.22943 0.83853 0.0
H3416 H 0.88617 0.18659 0.82259 0.0
H3417 H 0.86602 0.18153 0.80093 0.0
H3418 H 0.84457 0.20267 0.7142 0.0
H3419 H 0.84234 0.21223 0.73997 0.0
H3420 H 0.85875 0.17695 0.75886 0.0
H3421 H 0.86212 0.16831 0.7333 0.0
H3422 H 0.868 0.20253 0.77766 0.0
H3423 H 0.81504 0.16401 0.74972 0.0
H3424 H 0.79509 0.15642 0.72746 0.0
H3425 H 0.78623 0.19942 0.73835 0.0
H3426 H 0.80659 0.20763 0.76043 0.0
C3427 C 0.81622 0.18004 0.83707 0.0
C3428 C 0.81076 0.19191 0.84201 0.0
C3429 C 0.82289 0.18134 0.82236 0.0
C3430 C 0.82412 0.19445 0.8123 0.0
C3431 C 0.81841 0.20612 0.81709 0.0
C3432 C 0.81191 0.20495 0.83185 0.0
C3433 C 0.83134 0.19597 0.79675 0.0
C3434 C 0.82018 0.19277 0.78411 0.0
C3435 C 0.84877 0.1995 0.79439 0.0
C3436 C 0.86107 0.20271 0.80732 0.0
C3437 C 0.86501 0.21629 0.81802 0.0
C3438 C 0.87638 0.219 0.8303 0.0
C3439 C 0.88399 0.20829 0.83195 0.0
C3440 C 0.88027 0.19487 0.8213 0.0
C3441 C 0.86889 0.19209 0.80901 0.0
C3442 C 0.84851 0.19759 0.7238 0.0
C3443 C 0.85317 0.18445 0.72169 0.0
C3444 C 0.84701 0.2029 0.73857 0.0
C3445 C 0.84969 0.19477 0.75139 0.0
C3446 C 0.85635 0.18325 0.74921 0.0
C3447 C 0.85819 0.17824 0.73451 0.0
C3448 C 0.84335 0.19612 0.76679 0.0
C3449 C 0.8546 0.19972 0.77945 0.0
C3450 C 0.82577 0.19229 0.7692 0.0
C3451 C 0.81266 0.1867 0.75652 0.0
C3452 C 0.80895 0.17194 0.7473 0.0
C3453 C 0.79765 0.16759 0.73467 0.0
C3454 C 0.78968 0.17765 0.73133 0.0
C3455 C 0.79267 0.19184 0.74081 0.0
C3456 C 0.80411 0.19637 0.75337 0.0
H3457 H 0.78094 0.17426 0.72154 0.0
H3458 H 0.89278 0.21041 0.84147 0.0
H3459 H 0.31481 0.16297 0.50048 0.0
H3460 H 0.32428 0.15945 0.526 0.0
H3461 H 0.27487 0.1109 0.53189 0.0
H3462 H 0.26528 0.11439 0.50644 0.0
H3463 H 0.28392 0.13506 0.55612 0.0
H3464 H 0.31086 0.10829 0.52668 0.0
H3465 H 0.32924 0.10723 0.50592 0.0
H3466 H 0.37445 0.15344 0.52434 0.0
H3467 H 0.3563 0.15494 0.54508 0.0
H3468 H 0.31206 0.12976 0.62991 0.0
H3469 H 0.30123 0.11885 0.60405 0.0
H3470 H 0.35043 0.15978 0.58557 0.0
H3471 H 0.36153 0.1701 0.6112 0.0
H3472 H 0.33862 0.13333 0.56748 0.0
H3473 H 0.3135 0.16618 0.59034 0.0
H3474 H 0.29759 0.1727 0.61005 0.0
H3475 H 0.25211 0.12109 0.6035 0.0
H3476 H 0.26782 0.11433 0.58359 0.0
C3477 C 0.30601 0.15152 0.5072 0.0
C3478 C 0.28932 0.13895 0.50147 0.0
C3479 C 0.31148 0.14944 0.5217 0.0
C3480 C 0.30032 0.13481 0.53075 0.0
C3481 C 0.2837 0.1222 0.52503 0.0
C3482 C 0.27829 0.12418 0.51048 0.0
C3483 C 0.3056 0.13332 0.54654 0.0
C3484 C 0.29564 0.13422 0.55862 0.0
C3485 C 0.32118 0.1328 0.54975 0.0
C3486 C 0.33218 0.13177 0.5374 0.0
C3487 C 0.3247 0.11829 0.52625 0.0
C3488 C 0.33508 0.1176 0.5145 0.0
C3489 C 0.35299 0.13027 0.5138 0.0
C3490 C 0.36057 0.14363 0.52489 0.0
C3491 C 0.35025 0.14439 0.53667 0.0
C3492 C 0.32073 0.13607 0.62036 0.0
C3493 C 0.33748 0.15108 0.62262 0.0
C3494 C 0.31449 0.12992 0.60556 0.0
C3495 C 0.32479 0.13887 0.5928 0.0
C3496 C 0.34213 0.15272 0.59516 0.0
C3497 C 0.34844 0.15868 0.6099 0.0
C3498 C 0.31713 0.13543 0.5771 0.0
C3499 C 0.32663 0.13365 0.56501 0.0
C3500 C 0.30143 0.13575 0.57379 0.0
C3501 C 0.29187 0.13969 0.58565 0.0
C3502 C 0.30013 0.15621 0.59316 0.0
C3503 C 0.29114 0.15994 0.60436 0.0
C3504 C 0.27387 0.14728 0.60814 0.0
C3505 C 0.2655 0.13087 0.60061 0.0
C3506 C 0.27442 0.1271 0.58933 0.0
H3507 H 0.26695 0.1502 0.61685 0.0
H3508 H 0.36101 0.12972 0.50469 0.0
H3509 H 0.87546 0.17377 0.50276 0.0
H3510 H 0.86403 0.17055 0.52864 0.0
H3511 H 0.83535 0.11369 0.52317 0.0
H3512 H 0.847 0.11674 0.49734 0.0
H3513 H 0.81534 0.12613 0.53693 0.0
H3514 H 0.87229 0.132 0.54348 0.0
H3515 H 0.9044 0.14569 0.54001 0.0
H3516 H 0.91239 0.19351 0.56161 0.0
H3517 H 0.8803 0.18021 0.56498 0.0
H3518 H 0.83306 0.13993 0.62632 0.0
H3519 H 0.83627 0.12952 0.60133 0.0
H3520 H 0.81173 0.15646 0.58003 0.0
H3521 H 0.80857 0.16703 0.60502 0.0
H3522 H 0.85717 0.15271 0.58044 0.0
H3523 H 0.79427 0.13677 0.54472 0.0
H3524 H 0.76213 0.12233 0.54833 0.0
H3525 H 0.76559 0.09264 0.58598 0.0
H3526 H 0.79768 0.10673 0.5825 0.0
C3527 C 0.86685 0.16056 0.50707 0.0
C3528 C 0.86227 0.14552 0.49796 0.0
C3529 C 0.86026 0.15875 0.52186 0.0
C3530 C 0.84899 0.14187 0.52789 0.0
C3531 C 0.84402 0.12684 0.51874 0.0
C3532 C 0.85066 0.12863 0.50394 0.0
C3533 C 0.84264 0.14001 0.54384 0.0
C3534 C 0.82443 0.13187 0.54649 0.0
C3535 C 0.85453 0.14712 0.55632 0.0
C3536 C 0.87386 0.15514 0.55438 0.0
C3537 C 0.88088 0.14548 0.54738 0.0
C3538 C 0.89908 0.15317 0.54545 0.0
C3539 C 0.91043 0.17047 0.55056 0.0
C3540 C 0.90359 0.18011 0.55765 0.0
C3541 C 0.88539 0.1725 0.55958 0.0
C3542 C 0.82761 0.14297 0.61641 0.0
C3543 C 0.82058 0.15433 0.61764 0.0
C3544 C 0.82958 0.1371 0.60208 0.0
C3545 C 0.82426 0.1422 0.58878 0.0
C3546 C 0.81579 0.15221 0.59012 0.0
C3547 C 0.81399 0.15825 0.60443 0.0
C3548 C 0.82984 0.13942 0.57352 0.0
C3549 C 0.84798 0.14675 0.57097 0.0
C3550 C 0.81784 0.1315 0.56119 0.0
C3551 C 0.79847 0.12287 0.56335 0.0
C3552 C 0.78818 0.12708 0.55371 0.0
C3553 C 0.76995 0.11898 0.55576 0.0
C3554 C 0.76182 0.10659 0.56739 0.0
C3555 C 0.7719 0.10226 0.57699 0.0
C3556 C 0.79013 0.11032 0.57499 0.0
H3557 H 0.74771 0.10033 0.56895 0.0
H3558 H 0.92452 0.1764 0.54905 0.0
H3559 H 0.85724 0.75092 0.50853 0.0
H3560 H 0.85094 0.74016 0.5348 0.0
H3561 H 0.83215 0.68674 0.51877 0.0
H3562 H 0.8381 0.69738 0.49239 0.0
H3563 H 0.81002 0.68839 0.54 0.0
H3564 H 0.87201 0.70958 0.53505 0.0
H3565 H 0.90298 0.73126 0.52922 0.0
H3566 H 0.90299 0.76662 0.5635 0.0
H3567 H 0.87191 0.74523 0.56937 0.0
H3568 H 0.81635 0.64666 0.60732 0.0
H3569 H 0.81669 0.65897 0.58226 0.0
H3570 H 0.83648 0.71076 0.60257 0.0
H3571 H 0.83654 0.69854 0.6277 0.0
H3572 H 0.85706 0.7115 0.57969 0.0
H3573 H 0.79549 0.68907 0.58603 0.0
H3574 H 0.76474 0.66691 0.59208 0.0
H3575 H 0.76403 0.63349 0.55562 0.0
H3576 H 0.79483 0.65538 0.54943 0.0
C3577 C 0.85169 0.73687 0.51058 0.0
C3578 C 0.84817 0.725 0.49837 0.0
C3579 C 0.8482 0.73076 0.52561 0.0
C3580 C 0.84116 0.71266 0.52875 0.0
C3581 C 0.83758 0.70076 0.5166 0.0
C3582 C 0.84115 0.70688 0.50155 0.0
C3583 C 0.83756 0.70618 0.54471 0.0
C3584 C 0.82032 0.6933 0.54866 0.0
C3585 C 0.85092 0.71297 0.5561 0.0
C3586 C 0.86957 0.7259 0.55252 0.0
C3587 C 0.87856 0.72205 0.54124 0.0
C3588 C 0.89614 0.73427 0.53795 0.0
C3589 C 0.90493 0.75033 0.54595 0.0
C3590 C 0.89615 0.75419 0.55728 0.0
C3591 C 0.87856 0.74202 0.5606 0.0
C3592 C 0.82036 0.66058 0.60653 0.0
C3593 C 0.82644 0.67163 0.61951 0.0
C3594 C 0.82048 0.6676 0.59218 0.0
C3595 C 0.8266 0.6858 0.59052 0.0
C3596 C 0.8317 0.69668 0.60359 0.0
C3597 C 0.83155 0.68964 0.61798 0.0
C3598 C 0.8295 0.69363 0.57502 0.0
C3599 C 0.84667 0.70674 0.57111 0.0
C3600 C 0.81608 0.68701 0.56369 0.0
C3601 C 0.79752 0.67383 0.56733 0.0
C3602 C 0.78882 0.67695 0.57936 0.0
C3603 C 0.77137 0.66444 0.58281 0.0
C3604 C 0.76245 0.64878 0.57427 0.0
C3605 C 0.77095 0.64562 0.56223 0.0
C3606 C 0.7884 0.65809 0.55873 0.0
H3607 H 0.74895 0.63911 0.57696 0.0
H3608 H 0.91855 0.75977 0.5434 0.0
loop_
_geom_bond_atom_site_label_1
_geom_bond_atom_site_label_2
_geom_bond_distance
_geom_bond_site_symmetry_2
_ccdc_geom_bond_type
C0 C1 1.264 . S
C0 C5 1.479 . S
C0 C10 1.465 . S
C1 C0 1.264 . S
C1 C3 1.339 . S
C1 H28 0.931 . S
C2 C3 1.395 . S
C2 C4 1.320 . S
C3 C1 1.339 . S
C3 C2 1.395 . S
C3 H29 0.929 . S
C4 C2 1.320 . S
C4 C5 1.405 . S
C4 H30 0.930 . S
C5 C0 1.479 . S
C5 C4 1.405 . S
C5 H31 0.931 . S
U6 O7 2.454 . S
U6 O8 2.458 . S
U6 C9 2.984 . S
U6 C10 2.847 . S
U6 C23 2.882 . S
U6 O24 2.441 . S
U6 O25 2.420 . S
U6 O26 2.455 . S
U6 O27 2.449 . S
O7 U6 2.454 . S
O7 C9 1.353 . S
O8 U6 2.458 . S
O8 C9 1.286 . S
C9 U6 2.984 . S
C9 O7 1.353 . S
C9 O8 1.286 . S
C9 C11 1.363 . S
C10 C0 1.465 . S
C10 U6 2.847 . S
C10 O24 1.249 . S
C10 O25 1.202 . S
C11 C9 1.363 . S
C11 C13 1.408 . S
C11 C16 1.342 . S
C12 C13 1.310 . S
C12 C15 1.461 . S
C12 H32 0.932 . S
C13 C11 1.408 . S
C13 C12 1.310 . S
C13 H33 0.930 . S
C14 C15 1.474 . S
C14 C16 1.285 . S
C14 H34 0.929 . S
C15 C12 1.461 . S
C15 C14 1.474 . S
C16 C11 1.342 . S
C16 C14 1.285 . S
C16 H35 0.930 . S
C17 C20 1.424 . S
C17 C22 1.245 . S
C17 C23 1.428 . S
C18 C21 1.260 . S
C18 C22 1.477 . S
C18 H36 0.932 . S
C19 C20 1.384 . S
C19 C21 1.479 . S
C19 H37 0.929 . S
C20 C17 1.424 . S
C20 C19 1.384 . S
C20 H38 0.928 . S
C21 C18 1.260 . S
C21 C19 1.479 . S
C22 C17 1.245 . S
C22 C18 1.477 . S
C22 H39 0.932 . S
C23 U6 2.882 . S
C23 C17 1.428 . S
C23 O26 1.301 . S
C23 O27 1.282 . S
O24 U6 2.441 . S
O24 C10 1.249 . S
O25 U6 2.420 . S
O25 C10 1.202 . S
O26 U6 2.455 . S
O26 C23 1.301 . S
O27 U6 2.449 . S
O27 C23 1.282 . S
H28 C1 0.931 . S
H29 C3 0.929 . S
H30 C4 0.930 . S
H31 C5 0.931 . S
H32 C12 0.932 . S
H33 C13 0.930 . S
H34 C14 0.929 . S
H35 C16 0.930 . S
H36 C18 0.932 . S
H37 C19 0.929 . S
H38 C20 0.928 . S
H39 C22 0.932 . S
C40 C41 1.264 . S
C40 C45 1.479 . S
C40 C50 1.465 . S
C41 C40 1.264 . S
C41 C43 1.339 . S
C41 H68 0.931 . S
C42 C43 1.395 . S
C42 C44 1.320 . S
C43 C41 1.339 . S
C43 C42 1.395 . S
C43 H69 0.929 . S
C44 C42 1.320 . S
C44 C45 1.405 . S
C44 H70 0.930 . S
C45 C40 1.479 . S
C45 C44 1.405 . S
C45 H71 0.931 . S
U46 O47 2.454 . S
U46 O48 2.458 . S
U46 C49 2.984 . S
U46 C50 2.847 . S
U46 C63 2.882 . S
U46 O64 2.441 . S
U46 O65 2.420 . S
U46 O66 2.455 . S
U46 O67 2.449 . S
O47 U46 2.454 . S
O47 C49 1.353 . S
O48 U46 2.458 . S
O48 C49 1.286 . S
C49 U46 2.984 . S
C49 O47 1.353 . S
C49 O48 1.286 . S
C49 C51 1.363 . S
C50 C40 1.465 . S
C50 U46 2.847 . S
C50 O64 1.249 . S
C50 O65 1.202 . S
C51 C49 1.363 . S
C51 C53 1.408 . S
C51 C56 1.342 . S
C52 C53 1.310 . S
C52 C55 1.461 . S
C52 H72 0.932 . S
C53 C51 1.408 . S
C53 C52 1.310 . S
C53 H73 0.930 . S
C54 C55 1.474 . S
C54 C56 1.285 . S
C54 H74 0.929 . S
C55 C52 1.461 . S
C55 C54 1.474 . S
C56 C51 1.342 . S
C56 C54 1.285 . S
C56 H75 0.930 . S
C57 C60 1.424 . S
C57 C62 1.245 . S
C57 C63 1.428 . S
C58 C61 1.260 . S
C58 C62 1.477 . S
C58 H76 0.932 . S
C59 C60 1.384 . S
C59 C61 1.479 . S
C59 H77 0.929 . S
C60 C57 1.424 . S
C60 C59 1.384 . S
C60 H78 0.928 . S
C61 C58 1.260 . S
C61 C59 1.479 . S
C62 C57 1.245 . S
C62 C58 1.477 . S
C62 H79 0.932 . S
C63 U46 2.882 . S
C63 C57 1.428 . S
C63 O66 1.301 . S
C63 O67 1.282 . S
O64 U46 2.441 . S
O64 C50 1.249 . S
O65 U46 2.420 . S
O65 C50 1.202 . S
O66 U46 2.455 . S
O66 C63 1.301 . S
O67 U46 2.449 . S
O67 C63 1.282 . S
H68 C41 0.931 . S
H69 C43 0.929 . S
H70 C44 0.930 . S
H71 C45 0.931 . S
H72 C52 0.932 . S
H73 C53 0.930 . S
H74 C54 0.929 . S
H75 C56 0.930 . S
H76 C58 0.932 . S
H77 C59 0.929 . S
H78 C60 0.928 . S
H79 C62 0.932 . S
C80 C81 1.264 . S
C80 C85 1.479 . S
C80 C90 1.465 . S
C81 C80 1.264 . S
C81 C83 1.339 . S
C81 H108 0.931 . S
C82 C83 1.395 . S
C82 C84 1.320 . S
C83 C81 1.339 . S
C83 C82 1.395 . S
C83 H109 0.929 . S
C84 C82 1.320 . S
C84 C85 1.405 . S
C84 H110 0.930 . S
C85 C80 1.479 . S
C85 C84 1.405 . S
C85 H111 0.931 . S
U86 O87 2.454 . S
U86 O88 2.458 . S
U86 C89 2.984 . S
U86 C90 2.847 . S
U86 C103 2.882 . S
U86 O104 2.441 . S
U86 O105 2.420 . S
U86 O106 2.455 . S
U86 O107 2.449 . S
O87 U86 2.454 . S
O87 C89 1.353 . S
O88 U86 2.458 . S
O88 C89 1.286 . S
C89 U86 2.984 . S
C89 O87 1.353 . S
C89 O88 1.286 . S
C89 C91 1.363 . S
C90 C80 1.465 . S
C90 U86 2.847 . S
C90 O104 1.249 . S
C90 O105 1.202 . S
C91 C89 1.363 . S
C91 C93 1.408 . S
C91 C96 1.342 . S
C92 C93 1.310 . S
C92 C95 1.461 . S
C92 H112 0.932 . S
C93 C91 1.408 . S
C93 C92 1.310 . S
C93 H113 0.930 . S
C94 C95 1.474 . S
C94 C96 1.285 . S
C94 H114 0.929 . S
C95 C92 1.461 . S
C95 C94 1.474 . S
C96 C91 1.342 . S
C96 C94 1.285 . S
C96 H115 0.930 . S
C97 C100 1.424 . S
C97 C102 1.245 . S
C97 C103 1.428 . S
C98 C101 1.260 . S
C98 C102 1.477 . S
C98 H116 0.932 . S
C99 C100 1.384 . S
C99 C101 1.479 . S
C99 H117 0.929 . S
C100 C97 1.424 . S
C100 C99 1.384 . S
C100 H118 0.928 . S
C101 C98 1.260 . S
C101 C99 1.479 . S
C102 C97 1.245 . S
C102 C98 1.477 . S
C102 H119 0.932 . S
C103 U86 2.882 . S
C103 C97 1.428 . S
C103 O106 1.301 . S
C103 O107 1.282 . S
O104 U86 2.441 . S
O104 C90 1.249 . S
O105 U86 2.420 . S
O105 C90 1.202 . S
O106 U86 2.455 . S
O106 C103 1.301 . S
O107 U86 2.449 . S
O107 C103 1.282 . S
H108 C81 0.931 . S
H109 C83 0.929 . S
H110 C84 0.930 . S
H111 C85 0.931 . S
H112 C92 0.932 . S
H113 C93 0.930 . S
H114 C94 0.929 . S
H115 C96 0.930 . S
H116 C98 0.932 . S
H117 C99 0.929 . S
H118 C100 0.928 . S
H119 C102 0.932 . S
C120 C121 1.264 . S
C120 C125 1.479 . S
C120 C130 1.465 . S
C121 C120 1.264 . S
C121 C123 1.339 . S
C121 H148 0.931 . S
C122 C123 1.395 . S
C122 C124 1.320 . S
C123 C121 1.339 . S
C123 C122 1.395 . S
C123 H149 0.929 . S
C124 C122 1.320 . S
C124 C125 1.405 . S
C124 H150 0.930 . S
C125 C120 1.479 . S
C125 C124 1.405 . S
C125 H151 0.931 . S
U126 O127 2.454 . S
U126 O128 2.458 . S
U126 C129 2.984 . S
U126 C130 2.847 . S
U126 C143 2.882 . S
U126 O144 2.441 . S
U126 O145 2.420 . S
U126 O146 2.455 . S
U126 O147 2.449 . S
O127 U126 2.454 . S
O127 C129 1.353 . S
O128 U126 2.458 . S
O128 C129 1.286 . S
C129 U126 2.984 . S
C129 O127 1.353 . S
C129 O128 1.286 . S
C129 C131 1.363 . S
C130 C120 1.465 . S
C130 U126 2.847 . S
C130 O144 1.249 . S
C130 O145 1.202 . S
C131 C129 1.363 . S
C131 C133 1.408 . S
C131 C136 1.342 . S
C132 C133 1.310 . S
C132 C135 1.461 . S
C132 H152 0.932 . S
C133 C131 1.408 . S
C133 C132 1.310 . S
C133 H153 0.930 . S
C134 C135 1.474 . S
C134 C136 1.285 . S
C134 H154 0.929 . S
C135 C132 1.461 . S
C135 C134 1.474 . S
C136 C131 1.342 . S
C136 C134 1.285 . S
C136 H155 0.930 . S
C137 C140 1.424 . S
C137 C142 1.245 . S
C137 C143 1.428 . S
C138 C141 1.260 . S
C138 C142 1.477 . S
C138 H156 0.932 . S
C139 C140 1.384 . S
C139 C141 1.479 . S
C139 H157 0.929 . S
C140 C137 1.424 . S
C140 C139 1.384 . S
C140 H158 0.928 . S
C141 C138 1.260 . S
C141 C139 1.479 . S
C142 C137 1.245 . S
C142 C138 1.477 . S
C142 H159 0.932 . S
C143 U126 2.882 . S
C143 C137 1.428 . S
C143 O146 1.301 . S
C143 O147 1.282 . S
O144 U126 2.441 . S
O144 C130 1.249 . S
O145 U126 2.420 . S
O145 C130 1.202 . S
O146 U126 2.455 . S
O146 C143 1.301 . S
O147 U126 2.449 . S
O147 C143 1.282 . S
H148 C121 0.931 . S
H149 C123 0.929 . S
H150 C124 0.930 . S
H151 C125 0.931 . S
H152 C132 0.932 . S
H153 C133 0.930 . S
H154 C134 0.929 . S
H155 C136 0.930 . S
H156 C138 0.932 . S
H157 C139 0.929 . S
H158 C140 0.928 . S
H159 C142 0.932 . S
C160 C161 1.264 . S
C160 C165 1.479 . S
C160 C170 1.465 . S
C161 C160 1.264 . S
C161 C163 1.339 . S
C161 H188 0.931 . S
C162 C163 1.395 . S
C162 C164 1.320 . S
C163 C161 1.339 . S
C163 C162 1.395 . S
C163 H189 0.929 . S
C164 C162 1.320 . S
C164 C165 1.405 . S
C164 H190 0.930 . S
C165 C160 1.479 . S
C165 C164 1.405 . S
C165 H191 0.931 . S
U166 O167 2.454 . S
U166 O168 2.458 . S
U166 C169 2.984 . S
U166 C170 2.847 . S
U166 C183 2.882 . S
U166 O184 2.441 . S
U166 O185 2.420 . S
U166 O186 2.455 . S
U166 O187 2.449 . S
O167 U166 2.454 . S
O167 C169 1.353 . S
O168 U166 2.458 . S
O168 C169 1.286 . S
C169 U166 2.984 . S
C169 O167 1.353 . S
C169 O168 1.286 . S
C169 C171 1.363 . S
C170 C160 1.465 . S
C170 U166 2.847 . S
C170 O184 1.249 . S
C170 O185 1.202 . S
C171 C169 1.363 . S
C171 C173 1.408 . S
C171 C176 1.342 . S
C172 C173 1.310 . S
C172 C175 1.461 . S
C172 H192 0.932 . S
C173 C171 1.408 . S
C173 C172 1.310 . S
C173 H193 0.930 . S
C174 C175 1.474 . S
C174 C176 1.285 . S
C174 H194 0.929 . S
C175 C172 1.461 . S
C175 C174 1.474 . S
C176 C171 1.342 . S
C176 C174 1.285 . S
C176 H195 0.930 . S
C177 C180 1.424 . S
C177 C182 1.245 . S
C177 C183 1.428 . S
C178 C181 1.260 . S
C178 C182 1.477 . S
C178 H196 0.932 . S
C179 C180 1.384 . S
C179 C181 1.479 . S
C179 H197 0.929 . S
C180 C177 1.424 . S
C180 C179 1.384 . S
C180 H198 0.928 . S
C181 C178 1.260 . S
C181 C179 1.479 . S
C182 C177 1.245 . S
C182 C178 1.477 . S
C182 H199 0.932 . S
C183 U166 2.882 . S
C183 C177 1.428 . S
C183 O186 1.301 . S
C183 O187 1.282 . S
O184 U166 2.441 . S
O184 C170 1.249 . S
O185 U166 2.420 . S
O185 C170 1.202 . S
O186 U166 2.455 . S
O186 C183 1.301 . S
O187 U166 2.449 . S
O187 C183 1.282 . S
H188 C161 0.931 . S
H189 C163 0.929 . S
H190 C164 0.930 . S
H191 C165 0.931 . S
H192 C172 0.932 . S
H193 C173 0.930 . S
H194 C174 0.929 . S
H195 C176 0.930 . S
H196 C178 0.932 . S
H197 C179 0.929 . S
H198 C180 0.928 . S
H199 C182 0.932 . S
C200 C201 1.264 . S
C200 C205 1.479 . S
C200 C210 1.465 . S
C201 C200 1.264 . S
C201 C203 1.339 . S
C201 H228 0.931 . S
C202 C203 1.395 . S
C202 C204 1.320 . S
C203 C201 1.339 . S
C203 C202 1.395 . S
C203 H229 0.929 . S
C204 C202 1.320 . S
C204 C205 1.405 . S
C204 H230 0.930 . S
C205 C200 1.479 . S
C205 C204 1.405 . S
C205 H231 0.931 . S
U206 O207 2.454 . S
U206 O208 2.458 . S
U206 C209 2.984 . S
U206 C210 2.847 . S
U206 C223 2.882 . S
U206 O224 2.441 . S
U206 O225 2.420 . S
U206 O226 2.455 . S
U206 O227 2.449 . S
O207 U206 2.454 . S
O207 C209 1.353 . S
O208 U206 2.458 . S
O208 C209 1.286 . S
C209 U206 2.984 . S
C209 O207 1.353 . S
C209 O208 1.286 . S
C209 C211 1.363 . S
C210 C200 1.465 . S
C210 U206 2.847 . S
C210 O224 1.249 . S
C210 O225 1.202 . S
C211 C209 1.363 . S
C211 C213 1.408 . S
C211 C216 1.342 . S
C212 C213 1.310 . S
C212 C215 1.461 . S
C212 H232 0.932 . S
C213 C211 1.408 . S
C213 C212 1.310 . S
C213 H233 0.930 . S
C214 C215 1.474 . S
C214 C216 1.285 . S
C214 H234 0.929 . S
C215 C212 1.461 . S
C215 C214 1.474 . S
C216 C211 1.342 . S
C216 C214 1.285 . S
C216 H235 0.930 . S
C217 C220 1.424 . S
C217 C222 1.245 . S
C217 C223 1.428 . S
C218 C221 1.260 . S
C218 C222 1.477 . S
C218 H236 0.932 . S
C219 C220 1.384 . S
C219 C221 1.479 . S
C219 H237 0.929 . S
C220 C217 1.424 . S
C220 C219 1.384 . S
C220 H238 0.928 . S
C221 C218 1.260 . S
C221 C219 1.479 . S
C222 C217 1.245 . S
C222 C218 1.477 . S
C222 H239 0.932 . S
C223 U206 2.882 . S
C223 C217 1.428 . S
C223 O226 1.301 . S
C223 O227 1.282 . S
O224 U206 2.441 . S
O224 C210 1.249 . S
O225 U206 2.420 . S
O225 C210 1.202 . S
O226 U206 2.455 . S
O226 C223 1.301 . S
O227 U206 2.449 . S
O227 C223 1.282 . S
H228 C201 0.931 . S
H229 C203 0.929 . S
H230 C204 0.930 . S
H231 C205 0.931 . S
H232 C212 0.932 . S
H233 C213 0.930 . S
H234 C214 0.929 . S
H235 C216 0.930 . S
H236 C218 0.932 . S
H237 C219 0.929 . S
H238 C220 0.928 . S
H239 C222 0.932 . S
C240 C241 1.264 . S
C240 C245 1.479 . S
C240 C250 1.465 . S
C241 C240 1.264 . S
C241 C243 1.339 . S
C241 H268 0.931 . S
C242 C243 1.395 . S
C242 C244 1.320 . S
C243 C241 1.339 . S
C243 C242 1.395 . S
C243 H269 0.929 . S
C244 C242 1.320 . S
C244 C245 1.405 . S
C244 H270 0.930 . S
C245 C240 1.479 . S
C245 C244 1.405 . S
C245 H271 0.931 . S
U246 O247 2.454 . S
U246 O248 2.458 . S
U246 C249 2.984 . S
U246 C250 2.847 . S
U246 C263 2.882 . S
U246 O264 2.441 . S
U246 O265 2.420 . S
U246 O266 2.455 . S
U246 O267 2.449 . S
O247 U246 2.454 . S
O247 C249 1.353 . S
O248 U246 2.458 . S
O248 C249 1.286 . S
C249 U246 2.984 . S
C249 O247 1.353 . S
C249 O248 1.286 . S
C249 C251 1.363 . S
C250 C240 1.465 . S
C250 U246 2.847 . S
C250 O264 1.249 . S
C250 O265 1.202 . S
C251 C249 1.363 . S
C251 C253 1.408 . S
C251 C256 1.342 . S
C252 C253 1.310 . S
C252 C255 1.461 . S
C252 H272 0.932 . S
C253 C251 1.408 . S
C253 C252 1.310 . S
C253 H273 0.930 . S
C254 C255 1.474 . S
C254 C256 1.285 . S
C254 H274 0.929 . S
C255 C252 1.461 . S
C255 C254 1.474 . S
C256 C251 1.342 . S
C256 C254 1.285 . S
C256 H275 0.930 . S
C257 C260 1.424 . S
C257 C262 1.245 . S
C257 C263 1.428 . S
C258 C261 1.260 . S
C258 C262 1.477 . S
C258 H276 0.932 . S
C259 C260 1.384 . S
C259 C261 1.479 . S
C259 H277 0.929 . S
C260 C257 1.424 . S
C260 C259 1.384 . S
C260 H278 0.928 . S
C261 C258 1.260 . S
C261 C259 1.479 . S
C262 C257 1.245 . S
C262 C258 1.477 . S
C262 H279 0.932 . S
C263 U246 2.882 . S
C263 C257 1.428 . S
C263 O266 1.301 . S
C263 O267 1.282 . S
O264 U246 2.441 . S
O264 C250 1.249 . S
O265 U246 2.420 . S
O265 C250 1.202 . S
O266 U246 2.455 . S
O266 C263 1.301 . S
O267 U246 2.449 . S
O267 C263 1.282 . S
H268 C241 0.931 . S
H269 C243 0.929 . S
H270 C244 0.930 . S
H271 C245 0.931 . S
H272 C252 0.932 . S
H273 C253 0.930 . S
H274 C254 0.929 . S
H275 C256 0.930 . S
H276 C258 0.932 . S
H277 C259 0.929 . S
H278 C260 0.928 . S
H279 C262 0.932 . S
C280 C281 1.264 . S
C280 C285 1.479 . S
C280 C290 1.465 . S
C281 C280 1.264 . S
C281 C283 1.339 . S
C281 H308 0.931 . S
C282 C283 1.395 . S
C282 C284 1.320 . S
C283 C281 1.339 . S
C283 C282 1.395 . S
C283 H309 0.929 . S
C284 C282 1.320 . S
C284 C285 1.405 . S
C284 H310 0.930 . S
C285 C280 1.479 . S
C285 C284 1.405 . S
C285 H311 0.931 . S
U286 O287 2.454 . S
U286 O288 2.458 . S
U286 C289 2.984 . S
U286 C290 2.847 . S
U286 C303 2.882 . S
U286 O304 2.441 . S
U286 O305 2.420 . S
U286 O306 2.455 . S
U286 O307 2.449 . S
O287 U286 2.454 . S
O287 C289 1.353 . S
O288 U286 2.458 . S
O288 C289 1.286 . S
C289 U286 2.984 . S
C289 O287 1.353 . S
C289 O288 1.286 . S
C289 C291 1.363 . S
C290 C280 1.465 . S
C290 U286 2.847 . S
C290 O304 1.249 . S
C290 O305 1.202 . S
C291 C289 1.363 . S
C291 C293 1.408 . S
C291 C296 1.342 . S
C292 C293 1.310 . S
C292 C295 1.461 . S
C292 H312 0.932 . S
C293 C291 1.408 . S
C293 C292 1.310 . S
C293 H313 0.930 . S
C294 C295 1.474 . S
C294 C296 1.285 . S
C294 H314 0.929 . S
C295 C292 1.461 . S
C295 C294 1.474 . S
C296 C291 1.342 . S
C296 C294 1.285 . S
C296 H315 0.930 . S
C297 C300 1.424 . S
C297 C302 1.245 . S
C297 C303 1.428 . S
C298 C301 1.260 . S
C298 C302 1.477 . S
C298 H316 0.932 . S
C299 C300 1.384 . S
C299 C301 1.479 . S
C299 H317 0.929 . S
C300 C297 1.424 . S
C300 C299 1.384 . S
C300 H318 0.928 . S
C301 C298 1.260 . S
C301 C299 1.479 . S
C302 C297 1.245 . S
C302 C298 1.477 . S
C302 H319 0.932 . S
C303 U286 2.882 . S
C303 C297 1.428 . S
C303 O306 1.301 . S
C303 O307 1.282 . S
O304 U286 2.441 . S
O304 C290 1.249 . S
O305 U286 2.420 . S
O305 C290 1.202 . S
O306 U286 2.455 . S
O306 C303 1.301 . S
O307 U286 2.449 . S
O307 C303 1.282 . S
H308 C281 0.931 . S
H309 C283 0.929 . S
H310 C284 0.930 . S
H311 C285 0.931 . S
H312 C292 0.932 . S
H313 C293 0.930 . S
H314 C294 0.929 . S
H315 C296 0.930 . S
H316 C298 0.932 . S
H317 C299 0.929 . S
H318 C300 0.928 . S
H319 C302 0.932 . S
C320 C321 1.264 . S
C320 C325 1.479 . S
C320 C330 1.465 . S
C321 C320 1.264 . S
C321 C323 1.339 . S
C321 H348 0.931 . S
C322 C323 1.395 . S
C322 C324 1.320 . S
C323 C321 1.339 . S
C323 C322 1.395 . S
C323 H349 0.929 . S
C324 C322 1.320 . S
C324 C325 1.405 . S
C324 H350 0.930 . S
C325 C320 1.479 . S
C325 C324 1.405 . S
C325 H351 0.931 . S
U326 O327 2.454 . S
U326 O328 2.458 . S
U326 C329 2.984 . S
U326 C330 2.847 . S
U326 C343 2.882 . S
U326 O344 2.441 . S
U326 O345 2.420 . S
U326 O346 2.455 . S
U326 O347 2.449 . S
O327 U326 2.454 . S
O327 C329 1.353 . S
O328 U326 2.458 . S
O328 C329 1.286 . S
C329 U326 2.984 . S
C329 O327 1.353 . S
C329 O328 1.286 . S
C329 C331 1.363 . S
C330 C320 1.465 . S
C330 U326 2.847 . S
C330 O344 1.249 . S
C330 O345 1.202 . S
C331 C329 1.363 . S
C331 C333 1.408 . S
C331 C336 1.342 . S
C332 C333 1.310 . S
C332 C335 1.461 . S
C332 H352 0.932 . S
C333 C331 1.408 . S
C333 C332 1.310 . S
C333 H353 0.930 . S
C334 C335 1.474 . S
C334 C336 1.285 . S
C334 H354 0.929 . S
C335 C332 1.461 . S
C335 C334 1.474 . S
C336 C331 1.342 . S
C336 C334 1.285 . S
C336 H355 0.930 . S
C337 C340 1.424 . S
C337 C342 1.245 . S
C337 C343 1.428 . S
C338 C341 1.260 . S
C338 C342 1.477 . S
C338 H356 0.932 . S
C339 C340 1.384 . S
C339 C341 1.479 . S
C339 H357 0.929 . S
C340 C337 1.424 . S
C340 C339 1.384 . S
C340 H358 0.928 . S
C341 C338 1.260 . S
C341 C339 1.479 . S
C342 C337 1.245 . S
C342 C338 1.477 . S
C342 H359 0.932 . S
C343 U326 2.882 . S
C343 C337 1.428 . S
C343 O346 1.301 . S
C343 O347 1.282 . S
O344 U326 2.441 . S
O344 C330 1.249 . S
O345 U326 2.420 . S
O345 C330 1.202 . S
O346 U326 2.455 . S
O346 C343 1.301 . S
O347 U326 2.449 . S
O347 C343 1.282 . S
H348 C321 0.931 . S
H349 C323 0.929 . S
H350 C324 0.930 . S
H351 C325 0.931 . S
H352 C332 0.932 . S
H353 C333 0.930 . S
H354 C334 0.929 . S
H355 C336 0.930 . S
H356 C338 0.932 . S
H357 C339 0.929 . S
H358 C340 0.928 . S
H359 C342 0.932 . S
C360 C361 1.264 . S
C360 C365 1.479 . S
C360 C370 1.465 . S
C361 C360 1.264 . S
C361 C363 1.339 . S
C361 H388 0.931 . S
C362 C363 1.395 . S
C362 C364 1.320 . S
C363 C361 1.339 . S
C363 C362 1.395 . S
C363 H389 0.929 . S
C364 C362 1.320 . S
C364 C365 1.405 . S
C364 H390 0.930 . S
C365 C360 1.479 . S
C365 C364 1.405 . S
C365 H391 0.931 . S
U366 O367 2.454 . S
U366 O368 2.458 . S
U366 C369 2.984 . S
U366 C370 2.847 . S
U366 C383 2.882 . S
U366 O384 2.441 . S
U366 O385 2.420 . S
U366 O386 2.455 . S
U366 O387 2.449 . S
O367 U366 2.454 . S
O367 C369 1.353 . S
O368 U366 2.458 . S
O368 C369 1.286 . S
C369 U366 2.984 . S
C369 O367 1.353 . S
C369 O368 1.286 . S
C369 C371 1.363 . S
C370 C360 1.465 . S
C370 U366 2.847 . S
C370 O384 1.249 . S
C370 O385 1.202 . S
C371 C369 1.363 . S
C371 C373 1.408 . S
C371 C376 1.342 . S
C372 C373 1.310 . S
C372 C375 1.461 . S
C372 H392 0.932 . S
C373 C371 1.408 . S
C373 C372 1.310 . S
C373 H393 0.930 . S
C374 C375 1.474 . S
C374 C376 1.285 . S
C374 H394 0.929 . S
C375 C372 1.461 . S
C375 C374 1.474 . S
C376 C371 1.342 . S
C376 C374 1.285 . S
C376 H395 0.930 . S
C377 C380 1.424 . S
C377 C382 1.245 . S
C377 C383 1.428 . S
C378 C381 1.260 . S
C378 C382 1.477 . S
C378 H396 0.932 . S
C379 C380 1.384 . S
C379 C381 1.479 . S
C379 H397 0.929 . S
C380 C377 1.424 . S
C380 C379 1.384 . S
C380 H398 0.928 . S
C381 C378 1.260 . S
C381 C379 1.479 . S
C382 C377 1.245 . S
C382 C378 1.477 . S
C382 H399 0.932 . S
C383 U366 2.882 . S
C383 C377 1.428 . S
C383 O386 1.301 . S
C383 O387 1.282 . S
O384 U366 2.441 . S
O384 C370 1.249 . S
O385 U366 2.420 . S
O385 C370 1.202 . S
O386 U366 2.455 . S
O386 C383 1.301 . S
O387 U366 2.449 . S
O387 C383 1.282 . S
H388 C361 0.931 . S
H389 C363 0.929 . S
H390 C364 0.930 . S
H391 C365 0.931 . S
H392 C372 0.932 . S
H393 C373 0.930 . S
H394 C374 0.929 . S
H395 C376 0.930 . S
H396 C378 0.932 . S
H397 C379 0.929 . S
H398 C380 0.928 . S
H399 C382 0.932 . S
C400 C401 1.264 . S
C400 C405 1.479 . S
C400 C410 1.465 . S
C401 C400 1.264 . S
C401 C403 1.339 . S
C401 H428 0.931 . S
C402 C403 1.395 . S
C402 C404 1.320 . S
C403 C401 1.339 . S
C403 C402 1.395 . S
C403 H429 0.929 . S
C404 C402 1.320 . S
C404 C405 1.405 . S
C404 H430 0.930 . S
C405 C400 1.479 . S
C405 C404 1.405 . S
C405 H431 0.931 . S
U406 O407 2.454 . S
U406 O408 2.458 . S
U406 C409 2.984 . S
U406 C410 2.847 . S
U406 C423 2.882 . S
U406 O424 2.441 . S
U406 O425 2.420 . S
U406 O426 2.455 . S
U406 O427 2.449 . S
O407 U406 2.454 . S
O407 C409 1.353 . S
O408 U406 2.458 . S
O408 C409 1.286 . S
C409 U406 2.984 . S
C409 O407 1.353 . S
C409 O408 1.286 . S
C409 C411 1.363 . S
C410 C400 1.465 . S
C410 U406 2.847 . S
C410 O424 1.249 . S
C410 O425 1.202 . S
C411 C409 1.363 . S
C411 C413 1.408 . S
C411 C416 1.342 . S
C412 C413 1.310 . S
C412 C415 1.461 . S
C412 H432 0.932 . S
C413 C411 1.408 . S
C413 C412 1.310 . S
C413 H433 0.930 . S
C414 C415 1.474 . S
C414 C416 1.285 . S
C414 H434 0.929 . S
C415 C412 1.461 . S
C415 C414 1.474 . S
C416 C411 1.342 . S
C416 C414 1.285 . S
C416 H435 0.930 . S
C417 C420 1.424 . S
C417 C422 1.245 . S
C417 C423 1.428 . S
C418 C421 1.260 . S
C418 C422 1.477 . S
C418 H436 0.932 . S
C419 C420 1.384 . S
C419 C421 1.479 . S
C419 H437 0.929 . S
C420 C417 1.424 . S
C420 C419 1.384 . S
C420 H438 0.928 . S
C421 C418 1.260 . S
C421 C419 1.479 . S
C422 C417 1.245 . S
C422 C418 1.477 . S
C422 H439 0.932 . S
C423 U406 2.882 . S
C423 C417 1.428 . S
C423 O426 1.301 . S
C423 O427 1.282 . S
O424 U406 2.441 . S
O424 C410 1.249 . S
O425 U406 2.420 . S
O425 C410 1.202 . S
O426 U406 2.455 . S
O426 C423 1.301 . S
O427 U406 2.449 . S
O427 C423 1.282 . S
H428 C401 0.931 . S
H429 C403 0.929 . S
H430 C404 0.930 . S
H431 C405 0.931 . S
H432 C412 0.932 . S
H433 C413 0.930 . S
H434 C414 0.929 . S
H435 C416 0.930 . S
H436 C418 0.932 . S
H437 C419 0.929 . S
H438 C420 0.928 . S
H439 C422 0.932 . S
C440 C441 1.264 . S
C440 C445 1.479 . S
C440 C450 1.465 . S
C441 C440 1.264 . S
C441 C443 1.339 . S
C441 H468 0.931 . S
C442 C443 1.395 . S
C442 C444 1.320 . S
C443 C441 1.339 . S
C443 C442 1.395 . S
C443 H469 0.929 . S
C444 C442 1.320 . S
C444 C445 1.405 . S
C444 H470 0.930 . S
C445 C440 1.479 . S
C445 C444 1.405 . S
C445 H471 0.931 . S
U446 O447 2.454 . S
U446 O448 2.458 . S
U446 C449 2.984 . S
U446 C450 2.847 . S
U446 C463 2.882 . S
U446 O464 2.441 . S
U446 O465 2.420 . S
U446 O466 2.455 . S
U446 O467 2.449 . S
O447 U446 2.454 . S
O447 C449 1.353 . S
O448 U446 2.458 . S
O448 C449 1.286 . S
C449 U446 2.984 . S
C449 O447 1.353 . S
C449 O448 1.286 . S
C449 C451 1.363 . S
C450 C440 1.465 . S
C450 U446 2.847 . S
C450 O464 1.249 . S
C450 O465 1.202 . S
C451 C449 1.363 . S
C451 C453 1.408 . S
C451 C456 1.342 . S
C452 C453 1.310 . S
C452 C455 1.461 . S
C452 H472 0.932 . S
C453 C451 1.408 . S
C453 C452 1.310 . S
C453 H473 0.930 . S
C454 C455 1.474 . S
C454 C456 1.285 . S
C454 H474 0.929 . S
C455 C452 1.461 . S
C455 C454 1.474 . S
C456 C451 1.342 . S
C456 C454 1.285 . S
C456 H475 0.930 . S
C457 C460 1.424 . S
C457 C462 1.245 . S
C457 C463 1.428 . S
C458 C461 1.260 . S
C458 C462 1.477 . S
C458 H476 0.932 . S
C459 C460 1.384 . S
C459 C461 1.479 . S
C459 H477 0.929 . S
C460 C457 1.424 . S
C460 C459 1.384 . S
C460 H478 0.928 . S
C461 C458 1.260 . S
C461 C459 1.479 . S
C462 C457 1.245 . S
C462 C458 1.477 . S
C462 H479 0.932 . S
C463 U446 2.882 . S
C463 C457 1.428 . S
C463 O466 1.301 . S
C463 O467 1.282 . S
O464 U446 2.441 . S
O464 C450 1.249 . S
O465 U446 2.420 . S
O465 C450 1.202 . S
O466 U446 2.455 . S
O466 C463 1.301 . S
O467 U446 2.449 . S
O467 C463 1.282 . S
H468 C441 0.931 . S
H469 C443 0.929 . S
H470 C444 0.930 . S
H471 C445 0.931 . S
H472 C452 0.932 . S
H473 C453 0.930 . S
H474 C454 0.929 . S
H475 C456 0.930 . S
H476 C458 0.932 . S
H477 C459 0.929 . S
H478 C460 0.928 . S
H479 C462 0.932 . S
C480 C481 1.264 . S
C480 C485 1.479 . S
C480 C490 1.465 . S
C481 C480 1.264 . S
C481 C483 1.339 . S
C481 H508 0.931 . S
C482 C483 1.395 . S
C482 C484 1.320 . S
C483 C481 1.339 . S
C483 C482 1.395 . S
C483 H509 0.929 . S
C484 C482 1.320 . S
C484 C485 1.405 . S
C484 H510 0.930 . S
C485 C480 1.479 . S
C485 C484 1.405 . S
C485 H511 0.931 . S
U486 O487 2.454 . S
U486 O488 2.458 . S
U486 C489 2.984 . S
U486 C490 2.847 . S
U486 C503 2.882 . S
U486 O504 2.441 . S
U486 O505 2.420 . S
U486 O506 2.455 . S
U486 O507 2.449 . S
O487 U486 2.454 . S
O487 C489 1.353 . S
O488 U486 2.458 . S
O488 C489 1.286 . S
C489 U486 2.984 . S
C489 O487 1.353 . S
C489 O488 1.286 . S
C489 C491 1.363 . S
C490 C480 1.465 . S
C490 U486 2.847 . S
C490 O504 1.249 . S
C490 O505 1.202 . S
C491 C489 1.363 . S
C491 C493 1.408 . S
C491 C496 1.342 . S
C492 C493 1.310 . S
C492 C495 1.461 . S
C492 H512 0.932 . S
C493 C491 1.408 . S
C493 C492 1.310 . S
C493 H513 0.930 . S
C494 C495 1.474 . S
C494 C496 1.285 . S
C494 H514 0.929 . S
C495 C492 1.461 . S
C495 C494 1.474 . S
C496 C491 1.342 . S
C496 C494 1.285 . S
C496 H515 0.930 . S
C497 C500 1.424 . S
C497 C502 1.245 . S
C497 C503 1.428 . S
C498 C501 1.260 . S
C498 C502 1.477 . S
C498 H516 0.932 . S
C499 C500 1.384 . S
C499 C501 1.479 . S
C499 H517 0.929 . S
C500 C497 1.424 . S
C500 C499 1.384 . S
C500 H518 0.928 . S
C501 C498 1.260 . S
C501 C499 1.479 . S
C502 C497 1.245 . S
C502 C498 1.477 . S
C502 H519 0.932 . S
C503 U486 2.882 . S
C503 C497 1.428 . S
C503 O506 1.301 . S
C503 O507 1.282 . S
O504 U486 2.441 . S
O504 C490 1.249 . S
O505 U486 2.420 . S
O505 C490 1.202 . S
O506 U486 2.455 . S
O506 C503 1.301 . S
O507 U486 2.449 . S
O507 C503 1.282 . S
H508 C481 0.931 . S
H509 C483 0.929 . S
H510 C484 0.930 . S
H511 C485 0.931 . S
H512 C492 0.932 . S
H513 C493 0.930 . S
H514 C494 0.929 . S
H515 C496 0.930 . S
H516 C498 0.932 . S
H517 C499 0.929 . S
H518 C500 0.928 . S
H519 C502 0.932 . S
C520 C521 1.264 . S
C520 C525 1.479 . S
C520 C530 1.465 . S
C521 C520 1.264 . S
C521 C523 1.339 . S
C521 H548 0.931 . S
C522 C523 1.395 . S
C522 C524 1.320 . S
C523 C521 1.339 . S
C523 C522 1.395 . S
C523 H549 0.929 . S
C524 C522 1.320 . S
C524 C525 1.405 . S
C524 H550 0.930 . S
C525 C520 1.479 . S
C525 C524 1.405 . S
C525 H551 0.931 . S
U526 O527 2.454 . S
U526 O528 2.458 . S
U526 C529 2.984 . S
U526 C530 2.847 . S
U526 C543 2.882 . S
U526 O544 2.441 . S
U526 O545 2.420 . S
U526 O546 2.455 . S
U526 O547 2.449 . S
O527 U526 2.454 . S
O527 C529 1.353 . S
O528 U526 2.458 . S
O528 C529 1.286 . S
C529 U526 2.984 . S
C529 O527 1.353 . S
C529 O528 1.286 . S
C529 C531 1.363 . S
C530 C520 1.465 . S
C530 U526 2.847 . S
C530 O544 1.249 . S
C530 O545 1.202 . S
C531 C529 1.363 . S
C531 C533 1.408 . S
C531 C536 1.342 . S
C532 C533 1.310 . S
C532 C535 1.461 . S
C532 H552 0.932 . S
C533 C531 1.408 . S
C533 C532 1.310 . S
C533 H553 0.930 . S
C534 C535 1.474 . S
C534 C536 1.285 . S
C534 H554 0.929 . S
C535 C532 1.461 . S
C535 C534 1.474 . S
C536 C531 1.342 . S
C536 C534 1.285 . S
C536 H555 0.930 . S
C537 C540 1.424 . S
C537 C542 1.245 . S
C537 C543 1.428 . S
C538 C541 1.260 . S
C538 C542 1.477 . S
C538 H556 0.932 . S
C539 C540 1.384 . S
C539 C541 1.479 . S
C539 H557 0.929 . S
C540 C537 1.424 . S
C540 C539 1.384 . S
C540 H558 0.928 . S
C541 C538 1.260 . S
C541 C539 1.479 . S
C542 C537 1.245 . S
C542 C538 1.477 . S
C542 H559 0.932 . S
C543 U526 2.882 . S
C543 C537 1.428 . S
C543 O546 1.301 . S
C543 O547 1.282 . S
O544 U526 2.441 . S
O544 C530 1.249 . S
O545 U526 2.420 . S
O545 C530 1.202 . S
O546 U526 2.455 . S
O546 C543 1.301 . S
O547 U526 2.449 . S
O547 C543 1.282 . S
H548 C521 0.931 . S
H549 C523 0.929 . S
H550 C524 0.930 . S
H551 C525 0.931 . S
H552 C532 0.932 . S
H553 C533 0.930 . S
H554 C534 0.929 . S
H555 C536 0.930 . S
H556 C538 0.932 . S
H557 C539 0.929 . S
H558 C540 0.928 . S
H559 C542 0.932 . S
C560 C561 1.264 . S
C560 C565 1.479 . S
C560 C570 1.465 . S
C561 C560 1.264 . S
C561 C563 1.339 . S
C561 H588 0.931 . S
C562 C563 1.395 . S
C562 C564 1.320 . S
C563 C561 1.339 . S
C563 C562 1.395 . S
C563 H589 0.929 . S
C564 C562 1.320 . S
C564 C565 1.405 . S
C564 H590 0.930 . S
C565 C560 1.479 . S
C565 C564 1.405 . S
C565 H591 0.931 . S
U566 O567 2.454 . S
U566 O568 2.458 . S
U566 C569 2.984 . S
U566 C570 2.847 . S
U566 C583 2.882 . S
U566 O584 2.441 . S
U566 O585 2.420 . S
U566 O586 2.455 . S
U566 O587 2.449 . S
O567 U566 2.454 . S
O567 C569 1.353 . S
O568 U566 2.458 . S
O568 C569 1.286 . S
C569 U566 2.984 . S
C569 O567 1.353 . S
C569 O568 1.286 . S
C569 C571 1.363 . S
C570 C560 1.465 . S
C570 U566 2.847 . S
C570 O584 1.249 . S
C570 O585 1.202 . S
C571 C569 1.363 . S
C571 C573 1.408 . S
C571 C576 1.342 . S
C572 C573 1.310 . S
C572 C575 1.461 . S
C572 H592 0.932 . S
C573 C571 1.408 . S
C573 C572 1.310 . S
C573 H593 0.930 . S
C574 C575 1.474 . S
C574 C576 1.285 . S
C574 H594 0.929 . S
C575 C572 1.461 . S
C575 C574 1.474 . S
C576 C571 1.342 . S
C576 C574 1.285 . S
C576 H595 0.930 . S
C577 C580 1.424 . S
C577 C582 1.245 . S
C577 C583 1.428 . S
C578 C581 1.260 . S
C578 C582 1.477 . S
C578 H596 0.932 . S
C579 C580 1.384 . S
C579 C581 1.479 . S
C579 H597 0.929 . S
C580 C577 1.424 . S
C580 C579 1.384 . S
C580 H598 0.928 . S
C581 C578 1.260 . S
C581 C579 1.479 . S
C582 C577 1.245 . S
C582 C578 1.477 . S
C582 H599 0.932 . S
C583 U566 2.882 . S
C583 C577 1.428 . S
C583 O586 1.301 . S
C583 O587 1.282 . S
O584 U566 2.441 . S
O584 C570 1.249 . S
O585 U566 2.420 . S
O585 C570 1.202 . S
O586 U566 2.455 . S
O586 C583 1.301 . S
O587 U566 2.449 . S
O587 C583 1.282 . S
H588 C561 0.931 . S
H589 C563 0.929 . S
H590 C564 0.930 . S
H591 C565 0.931 . S
H592 C572 0.932 . S
H593 C573 0.930 . S
H594 C574 0.929 . S
H595 C576 0.930 . S
H596 C578 0.932 . S
H597 C579 0.929 . S
H598 C580 0.928 . S
H599 C582 0.932 . S
C600 C601 1.264 . S
C600 C605 1.479 . S
C600 C610 1.465 . S
C601 C600 1.264 . S
C601 C603 1.339 . S
C601 H628 0.931 . S
C602 C603 1.395 . S
C602 C604 1.320 . S
C603 C601 1.339 . S
C603 C602 1.395 . S
C603 H629 0.929 . S
C604 C602 1.320 . S
C604 C605 1.405 . S
C604 H630 0.930 . S
C605 C600 1.479 . S
C605 C604 1.405 . S
C605 H631 0.931 . S
U606 O607 2.454 . S
U606 O608 2.458 . S
U606 C609 2.984 . S
U606 C610 2.847 . S
U606 C623 2.882 . S
U606 O624 2.441 . S
U606 O625 2.420 . S
U606 O626 2.455 . S
U606 O627 2.449 . S
O607 U606 2.454 . S
O607 C609 1.353 . S
O608 U606 2.458 . S
O608 C609 1.286 . S
C609 U606 2.984 . S
C609 O607 1.353 . S
C609 O608 1.286 . S
C609 C611 1.363 . S
C610 C600 1.465 . S
C610 U606 2.847 . S
C610 O624 1.249 . S
C610 O625 1.202 . S
C611 C609 1.363 . S
C611 C613 1.408 . S
C611 C616 1.342 . S
C612 C613 1.310 . S
C612 C615 1.461 . S
C612 H632 0.932 . S
C613 C611 1.408 . S
C613 C612 1.310 . S
C613 H633 0.930 . S
C614 C615 1.474 . S
C614 C616 1.285 . S
C614 H634 0.929 . S
C615 C612 1.461 . S
C615 C614 1.474 . S
C616 C611 1.342 . S
C616 C614 1.285 . S
C616 H635 0.930 . S
C617 C620 1.424 . S
C617 C622 1.245 . S
C617 C623 1.428 . S
C618 C621 1.260 . S
C618 C622 1.477 . S
C618 H636 0.932 . S
C619 C620 1.384 . S
C619 C621 1.479 . S
C619 H637 0.929 . S
C620 C617 1.424 . S
C620 C619 1.384 . S
C620 H638 0.928 . S
C621 C618 1.260 . S
C621 C619 1.479 . S
C622 C617 1.245 . S
C622 C618 1.477 . S
C622 H639 0.932 . S
C623 U606 2.882 . S
C623 C617 1.428 . S
C623 O626 1.301 . S
C623 O627 1.282 . S
O624 U606 2.441 . S
O624 C610 1.249 . S
O625 U606 2.420 . S
O625 C610 1.202 . S
O626 U606 2.455 . S
O626 C623 1.301 . S
O627 U606 2.449 . S
O627 C623 1.282 . S
H628 C601 0.931 . S
H629 C603 0.929 . S
H630 C604 0.930 . S
H631 C605 0.931 . S
H632 C612 0.932 . S
H633 C613 0.930 . S
H634 C614 0.929 . S
H635 C616 0.930 . S
H636 C618 0.932 . S
H637 C619 0.929 . S
H638 C620 0.928 . S
H639 C622 0.932 . S
C640 C641 1.264 . S
C640 C645 1.479 . S
C640 C650 1.465 . S
C641 C640 1.264 . S
C641 C643 1.339 . S
C641 H668 0.931 . S
C642 C643 1.395 . S
C642 C644 1.320 . S
C643 C641 1.339 . S
C643 C642 1.395 . S
C643 H669 0.929 . S
C644 C642 1.320 . S
C644 C645 1.405 . S
C644 H670 0.930 . S
C645 C640 1.479 . S
C645 C644 1.405 . S
C645 H671 0.931 . S
U646 O647 2.454 . S
U646 O648 2.458 . S
U646 C649 2.984 . S
U646 C650 2.847 . S
U646 C663 2.882 . S
U646 O664 2.441 . S
U646 O665 2.420 . S
U646 O666 2.455 . S
U646 O667 2.449 . S
O647 U646 2.454 . S
O647 C649 1.353 . S
O648 U646 2.458 . S
O648 C649 1.286 . S
C649 U646 2.984 . S
C649 O647 1.353 . S
C649 O648 1.286 . S
C649 C651 1.363 . S
C650 C640 1.465 . S
C650 U646 2.847 . S
C650 O664 1.249 . S
C650 O665 1.202 . S
C651 C649 1.363 . S
C651 C653 1.408 . S
C651 C656 1.342 . S
C652 C653 1.310 . S
C652 C655 1.461 . S
C652 H672 0.932 . S
C653 C651 1.408 . S
C653 C652 1.310 . S
C653 H673 0.930 . S
C654 C655 1.474 . S
C654 C656 1.285 . S
C654 H674 0.929 . S
C655 C652 1.461 . S
C655 C654 1.474 . S
C656 C651 1.342 . S
C656 C654 1.285 . S
C656 H675 0.930 . S
C657 C660 1.424 . S
C657 C662 1.245 . S
C657 C663 1.428 . S
C658 C661 1.260 . S
C658 C662 1.477 . S
C658 H676 0.932 . S
C659 C660 1.384 . S
C659 C661 1.479 . S
C659 H677 0.929 . S
C660 C657 1.424 . S
C660 C659 1.384 . S
C660 H678 0.928 . S
C661 C658 1.260 . S
C661 C659 1.479 . S
C662 C657 1.245 . S
C662 C658 1.477 . S
C662 H679 0.932 . S
C663 U646 2.882 . S
C663 C657 1.428 . S
C663 O666 1.301 . S
C663 O667 1.282 . S
O664 U646 2.441 . S
O664 C650 1.249 . S
O665 U646 2.420 . S
O665 C650 1.202 . S
O666 U646 2.455 . S
O666 C663 1.301 . S
O667 U646 2.449 . S
O667 C663 1.282 . S
H668 C641 0.931 . S
H669 C643 0.929 . S
H670 C644 0.930 . S
H671 C645 0.931 . S
H672 C652 0.932 . S
H673 C653 0.930 . S
H674 C654 0.929 . S
H675 C656 0.930 . S
H676 C658 0.932 . S
H677 C659 0.929 . S
H678 C660 0.928 . S
H679 C662 0.932 . S
C680 C681 1.264 . S
C680 C685 1.479 . S
C680 C690 1.465 . S
C681 C680 1.264 . S
C681 C683 1.339 . S
C681 H708 0.931 . S
C682 C683 1.395 . S
C682 C684 1.320 . S
C683 C681 1.339 . S
C683 C682 1.395 . S
C683 H709 0.929 . S
C684 C682 1.320 . S
C684 C685 1.405 . S
C684 H710 0.930 . S
C685 C680 1.479 . S
C685 C684 1.405 . S
C685 H711 0.931 . S
U686 O687 2.454 . S
U686 O688 2.458 . S
U686 C689 2.984 . S
U686 C690 2.847 . S
U686 C703 2.882 . S
U686 O704 2.441 . S
U686 O705 2.420 . S
U686 O706 2.455 . S
U686 O707 2.449 . S
O687 U686 2.454 . S
O687 C689 1.353 . S
O688 U686 2.458 . S
O688 C689 1.286 . S
C689 U686 2.984 . S
C689 O687 1.353 . S
C689 O688 1.286 . S
C689 C691 1.363 . S
C690 C680 1.465 . S
C690 U686 2.847 . S
C690 O704 1.249 . S
C690 O705 1.202 . S
C691 C689 1.363 . S
C691 C693 1.408 . S
C691 C696 1.342 . S
C692 C693 1.310 . S
C692 C695 1.461 . S
C692 H712 0.932 . S
C693 C691 1.408 . S
C693 C692 1.310 . S
C693 H713 0.930 . S
C694 C695 1.474 . S
C694 C696 1.285 . S
C694 H714 0.929 . S
C695 C692 1.461 . S
C695 C694 1.474 . S
C696 C691 1.342 . S
C696 C694 1.285 . S
C696 H715 0.930 . S
C697 C700 1.424 . S
C697 C702 1.245 . S
C697 C703 1.428 . S
C698 C701 1.260 . S
C698 C702 1.477 . S
C698 H716 0.932 . S
C699 C700 1.384 . S
C699 C701 1.479 . S
C699 H717 0.929 . S
C700 C697 1.424 . S
C700 C699 1.384 . S
C700 H718 0.928 . S
C701 C698 1.260 . S
C701 C699 1.479 . S
C702 C697 1.245 . S
C702 C698 1.477 . S
C702 H719 0.932 . S
C703 U686 2.882 . S
C703 C697 1.428 . S
C703 O706 1.301 . S
C703 O707 1.282 . S
O704 U686 2.441 . S
O704 C690 1.249 . S
O705 U686 2.420 . S
O705 C690 1.202 . S
O706 U686 2.455 . S
O706 C703 1.301 . S
O707 U686 2.449 . S
O707 C703 1.282 . S
H708 C681 0.931 . S
H709 C683 0.929 . S
H710 C684 0.930 . S
H711 C685 0.931 . S
H712 C692 0.932 . S
H713 C693 0.930 . S
H714 C694 0.929 . S
H715 C696 0.930 . S
H716 C698 0.932 . S
H717 C699 0.929 . S
H718 C700 0.928 . S
H719 C702 0.932 . S
O720 Mg721 1.990 . S
O720 C734 1.253 1_565 S
Mg721 O720 1.990 . S
Mg721 O724 2.180 1_556 S
Mg721 O725 2.117 . S
Mg721 O739 2.030 1_565 S
O722 Mg723 2.072 1_556 S
O722 C734 1.260 . S
Mg723 O722 2.072 1_554 S
Mg723 O724 2.099 1_545 S
Mg723 O726 2.079 . S
Mg723 O727 2.072 1_545 S
Mg723 O729 2.099 . S
Mg723 O740 2.079 . S
O724 Mg721 2.180 1_554 S
O724 Mg723 2.099 1_565 S
O724 C735 1.279 . S
O725 Mg721 2.117 . S
O725 C735 1.250 1_556 S
O726 Mg723 2.079 . S
O726 C736 1.264 . S
O727 Mg723 2.072 1_565 S
O727 C737 1.260 . S
Mg728 O729 2.180 . S
Mg728 O730 2.077 . S
Mg728 O731 1.990 1_545 S
Mg728 O732 2.117 . S
O729 Mg723 2.099 . S
O729 Mg728 2.180 . S
O729 C738 1.279 . S
O730 Mg728 2.077 . S
O730 C736 1.216 . S
O731 Mg728 1.990 1_565 S
O731 C737 1.253 . S
O732 Mg728 2.117 . S
O732 C738 1.250 . S
C733 O739 1.248 . S
C733 O740 1.264 1_556 S
C734 O720 1.253 1_545 S
C734 O722 1.260 . S
C735 O724 1.279 . S
C735 O725 1.250 1_554 S
C736 O726 1.264 . S
C736 O730 1.216 . S
C737 O727 1.260 . S
C737 O731 1.253 . S
C738 O729 1.279 . S
C738 O732 1.250 . S
O739 Mg721 2.030 1_545 S
O739 C733 1.248 . S
O740 Mg723 2.079 . S
O740 C733 1.264 1_554 S
O741 Mg742 1.990 . S
O741 C755 1.252 . S
Mg742 O741 1.990 . S
Mg742 O745 2.180 1_556 S
Mg742 O746 2.117 . S
Mg742 O760 2.030 1_455 S
O743 Mg744 2.072 1_556 S
O743 C755 1.263 1_655 S
Mg744 O743 2.072 1_554 S
Mg744 O745 2.095 1_655 S
Mg744 O747 2.083 . S
Mg744 O748 2.018 1_655 S
Mg744 O750 2.106 . S
Mg744 O761 2.132 . S
O745 Mg742 2.180 1_554 S
O745 Mg744 2.095 1_455 S
O745 C756 1.279 . S
O746 Mg742 2.117 . S
O746 C756 1.250 1_556 S
O747 Mg744 2.083 . S
O747 C757 1.264 1_655 S
O748 Mg744 2.018 1_455 S
O748 C758 1.260 . S
Mg749 O750 2.180 . S
Mg749 O751 2.030 1_655 S
Mg749 O752 1.990 1_655 S
Mg749 O753 2.117 . S
O750 Mg744 2.106 . S
O750 Mg749 2.180 . S
O750 C759 1.279 . S
O751 Mg749 2.030 1_455 S
O751 C757 1.248 . S
O752 Mg749 1.990 1_455 S
O752 C758 1.253 . S
O753 Mg749 2.117 . S
O753 C759 1.250 . S
C754 O760 1.248 . S
C754 O761 1.264 1_556 S
C755 O741 1.252 . S
C755 O743 1.263 1_455 S
C756 O745 1.279 . S
C756 O746 1.250 1_554 S
C757 O747 1.264 1_455 S
C757 O751 1.248 . S
C758 O748 1.260 . S
C758 O752 1.253 . S
C759 O750 1.279 . S
C759 O753 1.250 . S
O760 Mg742 2.030 1_655 S
O760 C754 1.248 . S
O761 Mg744 2.132 . S
O761 C754 1.264 1_554 S
O762 Mg763 1.990 . S
O762 C776 1.253 . S
Mg763 O762 1.990 . S
Mg763 O766 2.180 . S
Mg763 O767 2.117 . S
Mg763 O781 2.030 . S
O764 Mg765 2.096 . S
O764 C776 1.260 . S
Mg765 O764 2.096 . S
Mg765 O766 2.102 . S
Mg765 O768 2.054 1_554 S
Mg765 O769 2.070 1_554 S
Mg765 O771 2.095 1_554 S
Mg765 O782 2.078 . S
O766 Mg763 2.180 . S
O766 Mg765 2.102 . S
O766 C777 1.279 . S
O767 Mg763 2.117 . S
O767 C777 1.250 . S
O768 Mg765 2.054 1_556 S
O768 C778 1.264 . S
O769 Mg765 2.070 1_556 S
O769 C779 1.276 . S
Mg770 O771 2.180 . S
Mg770 O772 2.030 . S
Mg770 O773 1.990 . S
Mg770 O774 2.123 . S
O771 Mg765 2.095 1_556 S
O771 Mg770 2.180 . S
O771 C780 1.279 1_556 S
O772 Mg770 2.030 . S
O772 C778 1.248 . S
O773 Mg770 1.990 . S
O773 C779 1.253 . S
O774 Mg770 2.123 . S
O774 C780 1.248 1_556 S
C775 O781 1.248 . S
C775 O782 1.311 . S
C776 O762 1.253 . S
C776 O764 1.260 . S
C777 O766 1.279 . S
C777 O767 1.250 . S
C778 O768 1.264 . S
C778 O772 1.248 . S
C779 O769 1.276 . S
C779 O773 1.253 . S
C780 O771 1.279 1_554 S
C780 O774 1.248 1_554 S
O781 Mg763 2.030 . S
O781 C775 1.248 . S
O782 Mg765 2.078 . S
O782 C775 1.311 . S
O783 Mg784 1.990 . S
O783 C797 1.253 . S
Mg784 O783 1.990 . S
Mg784 O787 2.180 . S
Mg784 O788 2.117 . S
Mg784 O802 2.030 . S
O785 Mg786 2.072 . S
O785 C797 1.260 . S
Mg786 O785 2.072 . S
Mg786 O787 2.099 . S
Mg786 O789 2.079 . S
Mg786 O790 2.072 . S
Mg786 O792 2.099 . S
Mg786 O803 2.079 . S
O787 Mg784 2.180 . S
O787 Mg786 2.099 . S
O787 C798 1.279 . S
O788 Mg784 2.117 . S
O788 C798 1.250 . S
O789 Mg786 2.079 . S
O789 C799 1.264 . S
O790 Mg786 2.072 . S
O790 C800 1.260 . S
Mg791 O792 2.180 . S
Mg791 O793 2.030 . S
Mg791 O794 1.990 . S
Mg791 O795 2.117 . S
O792 Mg786 2.099 . S
O792 Mg791 2.180 . S
O792 C801 1.279 . S
O793 Mg791 2.030 . S
O793 C799 1.248 . S
O794 Mg791 1.990 . S
O794 C800 1.253 . S
O795 Mg791 2.117 . S
O795 C801 1.250 . S
C796 O802 1.248 . S
C796 O803 1.264 . S
C797 O783 1.253 . S
C797 O785 1.260 . S
C798 O787 1.279 . S
C798 O788 1.250 . S
C799 O789 1.264 . S
C799 O793 1.248 . S
C800 O790 1.260 . S
C800 O794 1.253 . S
C801 O792 1.279 . S
C801 O795 1.250 . S
O802 Mg784 2.030 . S
O802 C796 1.248 . S
O803 Mg786 2.079 . S
O803 C796 1.264 . S
O804 Mg805 1.990 . S
O804 C818 1.253 . S
Mg805 O804 1.990 . S
Mg805 O808 2.180 . S
Mg805 O809 2.117 . S
Mg805 O823 2.030 . S
O806 Mg807 2.072 . S
O806 C818 1.260 . S
Mg807 O806 2.072 . S
Mg807 O808 2.099 . S
Mg807 O810 2.079 . S
Mg807 O811 2.072 . S
Mg807 O813 2.099 . S
Mg807 O824 2.079 . S
O808 Mg805 2.180 . S
O808 Mg807 2.099 . S
O808 C819 1.279 . S
O809 Mg805 2.117 . S
O809 C819 1.250 . S
O810 Mg807 2.079 . S
O810 C820 1.264 . S
O811 Mg807 2.072 . S
O811 C821 1.260 . S
Mg812 O813 2.180 . S
Mg812 O814 2.030 . S
Mg812 O815 1.990 . S
Mg812 O816 2.117 . S
O813 Mg807 2.099 . S
O813 Mg812 2.180 . S
O813 C822 1.279 . S
O814 Mg812 2.030 . S
O814 C820 1.248 . S
O815 Mg812 1.990 . S
O815 C821 1.253 . S
O816 Mg812 2.117 . S
O816 C822 1.250 . S
C817 O823 1.248 . S
C817 O824 1.264 . S
C818 O804 1.253 . S
C818 O806 1.260 . S
C819 O808 1.279 . S
C819 O809 1.250 . S
C820 O810 1.264 . S
C820 O814 1.248 . S
C821 O811 1.260 . S
C821 O815 1.253 . S
C822 O813 1.279 . S
C822 O816 1.250 . S
O823 Mg805 2.030 . S
O823 C817 1.248 . S
O824 Mg807 2.079 . S
O824 C817 1.264 . S
O825 Mg826 1.990 . S
O825 C839 1.253 . S
Mg826 O825 1.990 . S
Mg826 O829 2.180 . S
Mg826 O830 2.117 . S
Mg826 O844 2.030 . S
O827 Mg828 2.072 . S
O827 C839 1.260 . S
Mg828 O827 2.072 . S
Mg828 O829 2.099 . S
Mg828 O831 2.079 . S
Mg828 O832 2.072 . S
Mg828 O834 2.099 . S
Mg828 O845 2.079 . S
O829 Mg826 2.180 . S
O829 Mg828 2.099 . S
O829 C840 1.279 . S
O830 Mg826 2.117 . S
O830 C840 1.250 . S
O831 Mg828 2.079 . S
O831 C841 1.264 . S
O832 Mg828 2.072 . S
O832 C842 1.260 . S
Mg833 O834 2.180 . S
Mg833 O835 2.030 . S
Mg833 O836 1.990 . S
Mg833 O837 2.117 . S
O834 Mg828 2.099 . S
O834 Mg833 2.180 . S
O834 C843 1.279 . S
O835 Mg833 2.030 . S
O835 C841 1.248 . S
O836 Mg833 1.990 . S
O836 C842 1.253 . S
O837 Mg833 2.117 . S
O837 C843 1.250 . S
C838 O844 1.248 . S
C838 O845 1.264 . S
C839 O825 1.253 . S
C839 O827 1.260 . S
C840 O829 1.279 . S
C840 O830 1.250 . S
C841 O831 1.264 . S
C841 O835 1.248 . S
C842 O832 1.260 . S
C842 O836 1.253 . S
C843 O834 1.279 . S
C843 O837 1.250 . S
O844 Mg826 2.030 . S
O844 C838 1.248 . S
O845 Mg828 2.079 . S
O845 C838 1.264 . S
O846 Mg847 1.990 . S
O846 C860 1.253 . S
Mg847 O846 1.990 . S
Mg847 O850 2.180 . S
Mg847 O851 2.117 . S
Mg847 O865 2.030 . S
O848 Mg849 2.072 . S
O848 C860 1.260 . S
Mg849 O848 2.072 . S
Mg849 O850 2.099 . S
Mg849 O852 2.079 . S
Mg849 O853 2.072 . S
Mg849 O855 2.099 . S
Mg849 O866 2.079 . S
O850 Mg847 2.180 . S
O850 Mg849 2.099 . S
O850 C861 1.279 . S
O851 Mg847 2.117 . S
O851 C861 1.250 . S
O852 Mg849 2.079 . S
O852 C862 1.264 . S
O853 Mg849 2.072 . S
O853 C863 1.260 . S
Mg854 O855 2.180 . S
Mg854 O856 2.030 . S
Mg854 O857 1.990 . S
Mg854 O858 2.117 . S
O855 Mg849 2.099 . S
O855 Mg854 2.180 . S
O855 C864 1.279 . S
O856 Mg854 2.030 . S
O856 C862 1.248 . S
O857 Mg854 1.990 . S
O857 C863 1.253 . S
O858 Mg854 2.117 . S
O858 C864 1.250 . S
C859 O865 1.248 . S
C859 O866 1.264 . S
C860 O846 1.253 . S
C860 O848 1.260 . S
C861 O850 1.279 . S
C861 O851 1.250 . S
C862 O852 1.264 . S
C862 O856 1.248 . S
C863 O853 1.260 . S
C863 O857 1.253 . S
C864 O855 1.279 . S
C864 O858 1.250 . S
O865 Mg847 2.030 . S
O865 C859 1.248 . S
O866 Mg849 2.079 . S
O866 C859 1.264 . S
O867 Mg868 1.990 . S
O867 C881 1.253 . S
Mg868 O867 1.990 . S
Mg868 O871 2.180 . S
Mg868 O872 2.117 . S
Mg868 O886 2.030 . S
O869 Mg870 2.072 . S
O869 C881 1.260 . S
Mg870 O869 2.072 . S
Mg870 O871 2.099 . S
Mg870 O873 2.079 . S
Mg870 O874 2.072 . S
Mg870 O876 2.099 . S
Mg870 O887 2.079 . S
O871 Mg868 2.180 . S
O871 Mg870 2.099 . S
O871 C882 1.279 . S
O872 Mg868 2.117 . S
O872 C882 1.250 . S
O873 Mg870 2.079 . S
O873 C883 1.264 . S
O874 Mg870 2.072 . S
O874 C884 1.260 . S
Mg875 O876 2.180 . S
Mg875 O877 2.030 . S
Mg875 O878 1.990 . S
Mg875 O879 2.117 . S
O876 Mg870 2.099 . S
O876 Mg875 2.180 . S
O876 C885 1.279 . S
O877 Mg875 2.030 . S
O877 C883 1.248 . S
O878 Mg875 1.990 . S
O878 C884 1.253 . S
O879 Mg875 2.117 . S
O879 C885 1.250 . S
C880 O886 1.248 . S
C880 O887 1.264 . S
C881 O867 1.253 . S
C881 O869 1.260 . S
C882 O871 1.279 . S
C882 O872 1.250 . S
C883 O873 1.264 . S
C883 O877 1.248 . S
C884 O874 1.260 . S
C884 O878 1.253 . S
C885 O876 1.279 . S
C885 O879 1.250 . S
O886 Mg868 2.030 . S
O886 C880 1.248 . S
O887 Mg870 2.079 . S
O887 C880 1.264 . S
O888 Mg889 1.990 . S
O888 C902 1.253 . S
Mg889 O888 1.990 . S
Mg889 O892 2.180 . S
Mg889 O893 2.117 . S
Mg889 O907 2.030 . S
O890 Mg891 2.072 . S
O890 C902 1.260 . S
Mg891 O890 2.072 . S
Mg891 O892 2.099 . S
Mg891 O894 2.079 . S
Mg891 O895 2.072 . S
Mg891 O897 2.099 . S
Mg891 O908 2.079 . S
O892 Mg889 2.180 . S
O892 Mg891 2.099 . S
O892 C903 1.279 . S
O893 Mg889 2.117 . S
O893 C903 1.250 . S
O894 Mg891 2.079 . S
O894 C904 1.264 . S
O895 Mg891 2.072 . S
O895 C905 1.260 . S
Mg896 O897 2.180 . S
Mg896 O898 2.030 . S
Mg896 O899 1.990 . S
Mg896 O900 2.117 . S
O897 Mg891 2.099 . S
O897 Mg896 2.180 . S
O897 C906 1.279 . S
O898 Mg896 2.030 . S
O898 C904 1.248 . S
O899 Mg896 1.990 . S
O899 C905 1.253 . S
O900 Mg896 2.117 . S
O900 C906 1.250 . S
C901 O907 1.248 . S
C901 O908 1.264 . S
C902 O888 1.253 . S
C902 O890 1.260 . S
C903 O892 1.279 . S
C903 O893 1.250 . S
C904 O894 1.264 . S
C904 O898 1.248 . S
C905 O895 1.260 . S
C905 O899 1.253 . S
C906 O897 1.279 . S
C906 O900 1.250 . S
O907 Mg889 2.030 . S
O907 C901 1.248 . S
O908 Mg891 2.079 . S
O908 C901 1.264 . S
H909 C927 0.951 . S
H910 C929 0.951 . S
H911 C931 0.950 . S
H912 C932 0.950 . S
H913 C934 0.950 . S
H914 C937 0.950 . S
H915 C938 0.950 . S
H916 C940 0.950 . S
H917 C941 0.950 . S
H918 C942 0.951 . S
H919 C944 0.951 . S
H920 C946 0.950 . S
H921 C947 0.950 . S
H922 C949 0.950 . S
H923 C952 0.950 . S
H924 C953 0.950 . S
H925 C955 0.950 . S
H926 C956 0.950 . S
C927 H909 0.951 . S
C927 C928 1.366 . S
C927 C929 1.388 . S
C928 C927 1.366 . S
C928 C932 1.385 . S
C929 H910 0.951 . S
C929 C927 1.388 . S
C929 C930 1.366 . S
C930 C929 1.366 . S
C930 C931 1.414 . S
C930 C933 1.499 . S
C931 H911 0.950 . S
C931 C930 1.414 . S
C931 C932 1.374 . S
C932 H912 0.950 . S
C932 C928 1.385 . S
C932 C931 1.374 . S
C933 C930 1.499 . S
C933 C934 1.373 . S
C933 C935 1.389 . S
C934 H913 0.950 . S
C934 C933 1.373 . S
C934 C950 1.377 . S
C935 C933 1.389 . S
C935 C936 1.524 . S
C935 C949 1.377 . S
C936 C935 1.524 . S
C936 C937 1.397 . S
C936 C941 1.363 . S
C937 H914 0.950 . S
C937 C936 1.397 . S
C937 C938 1.334 . S
C938 H915 0.950 . S
C938 C937 1.334 . S
C938 C939 1.287 . S
C939 C938 1.287 . S
C939 C940 1.524 . S
C939 H958 0.913 . S
C940 H916 0.950 . S
C940 C939 1.524 . S
C940 C941 1.415 . S
C941 H917 0.950 . S
C941 C936 1.363 . S
C941 C940 1.415 . S
C942 H918 0.951 . S
C942 C943 1.366 . S
C942 C944 1.388 . S
C943 C942 1.366 . S
C943 C947 1.385 . S
C944 H919 0.951 . S
C944 C942 1.388 . S
C944 C945 1.366 . S
C945 C944 1.366 . S
C945 C946 1.414 . S
C945 C948 1.499 . S
C946 H920 0.950 . S
C946 C945 1.414 . S
C946 C947 1.374 . S
C947 H921 0.950 . S
C947 C943 1.385 . S
C947 C946 1.374 . S
C948 C945 1.499 . S
C948 C949 1.373 . S
C948 C950 1.389 . S
C949 H922 0.950 . S
C949 C935 1.377 . S
C949 C948 1.373 . S
C950 C934 1.377 . S
C950 C948 1.389 . S
C950 C951 1.524 1_554 S
C951 C950 1.524 1_556 S
C951 C952 1.397 . S
C951 C956 1.363 . S
C952 H923 0.950 . S
C952 C951 1.397 . S
C952 C953 1.334 . S
C953 H924 0.950 . S
C953 C952 1.334 . S
C953 C954 1.287 . S
C954 C953 1.287 . S
C954 C955 1.524 . S
C954 H957 0.999 . S
C955 H925 0.950 . S
C955 C954 1.524 . S
C955 C956 1.415 . S
C956 H926 0.950 . S
C956 C951 1.363 . S
C956 C955 1.415 . S
H957 C954 0.999 . S
H958 C939 0.913 . S
H959 C977 0.951 . S
H960 C979 0.951 . S
H961 C981 0.950 . S
H962 C982 0.950 . S
H963 C984 0.950 . S
H964 C987 0.950 . S
H965 C988 0.950 . S
H966 C990 0.950 . S
H967 C991 0.950 . S
H968 C992 0.951 . S
H969 C994 0.951 . S
H970 C996 0.950 . S
H971 C997 0.950 . S
H972 C999 0.950 . S
H973 C1002 0.950 . S
H974 C1003 0.950 . S
H975 C1005 0.950 . S
H976 C1006 0.950 . S
C977 H959 0.951 . S
C977 C978 1.366 . S
C977 C979 1.388 . S
C978 C977 1.366 . S
C978 C982 1.385 . S
C979 H960 0.951 . S
C979 C977 1.388 . S
C979 C980 1.366 . S
C980 C979 1.366 . S
C980 C981 1.414 . S
C980 C983 1.499 . S
C981 H961 0.950 . S
C981 C980 1.414 . S
C981 C982 1.374 . S
C982 H962 0.950 . S
C982 C978 1.385 . S
C982 C981 1.374 . S
C983 C980 1.499 . S
C983 C984 1.373 . S
C983 C985 1.389 . S
C984 H963 0.950 . S
C984 C983 1.373 . S
C984 C1000 1.377 . S
C985 C983 1.389 . S
C985 C986 1.524 1_554 S
C985 C999 1.377 . S
C986 C985 1.524 1_556 S
C986 C987 1.397 . S
C986 C991 1.363 . S
C987 H964 0.950 . S
C987 C986 1.397 . S
C987 C988 1.334 . S
C988 H965 0.950 . S
C988 C987 1.334 . S
C988 C989 1.287 . S
C989 C988 1.287 . S
C989 C990 1.524 . S
C989 H1008 0.913 . S
C990 H966 0.950 . S
C990 C989 1.524 . S
C990 C991 1.415 . S
C991 H967 0.950 . S
C991 C986 1.363 . S
C991 C990 1.415 . S
C992 H968 0.951 . S
C992 C993 1.366 . S
C992 C994 1.388 . S
C993 C992 1.366 . S
C993 C997 1.385 . S
C994 H969 0.951 . S
C994 C992 1.388 . S
C994 C995 1.366 . S
C995 C994 1.366 . S
C995 C996 1.414 . S
C995 C998 1.499 . S
C996 H970 0.950 . S
C996 C995 1.414 . S
C996 C997 1.374 . S
C997 H971 0.950 . S
C997 C993 1.385 . S
C997 C996 1.374 . S
C998 C995 1.499 . S
C998 C999 1.373 . S
C998 C1000 1.389 . S
C999 H972 0.950 . S
C999 C985 1.377 . S
C999 C998 1.373 . S
C1000 C984 1.377 . S
C1000 C998 1.389 . S
C1000 C1001 1.524 . S
C1001 C1000 1.524 . S
C1001 C1002 1.397 . S
C1001 C1006 1.363 . S
C1002 H973 0.950 . S
C1002 C1001 1.397 . S
C1002 C1003 1.334 . S
C1003 H974 0.950 . S
C1003 C1002 1.334 . S
C1003 C1004 1.287 . S
C1004 C1003 1.287 . S
C1004 C1005 1.524 . S
C1004 H1007 0.999 . S
C1005 H975 0.950 . S
C1005 C1004 1.524 . S
C1005 C1006 1.415 . S
C1006 H976 0.950 . S
C1006 C1001 1.363 . S
C1006 C1005 1.415 . S
H1007 C1004 0.999 . S
H1008 C989 0.913 . S
H1009 C1027 0.951 . S
H1010 C1029 0.951 . S
H1011 C1031 0.950 . S
H1012 C1032 0.950 . S
H1013 C1034 0.950 . S
H1014 C1037 0.950 . S
H1015 C1038 0.950 . S
H1016 C1040 0.950 . S
H1017 C1041 0.950 . S
H1018 C1042 0.951 . S
H1019 C1044 0.951 . S
H1020 C1046 0.931 1_556 S
H1021 C1047 0.950 . S
H1022 C1049 0.975 . S
H1023 C1052 0.950 . S
H1024 C1053 0.950 . S
H1025 C1055 0.950 . S
H1026 C1056 0.950 . S
C1027 H1009 0.951 . S
C1027 C1028 1.366 . S
C1027 C1029 1.388 . S
C1028 C1027 1.366 . S
C1028 C1032 1.385 . S
C1029 H1010 0.951 . S
C1029 C1027 1.388 . S
C1029 C1030 1.366 . S
C1030 C1029 1.366 . S
C1030 C1031 1.414 . S
C1030 C1033 1.499 . S
C1031 H1011 0.950 . S
C1031 C1030 1.414 . S
C1031 C1032 1.374 . S
C1032 H1012 0.950 . S
C1032 C1028 1.385 . S
C1032 C1031 1.374 . S
C1033 C1030 1.499 . S
C1033 C1034 1.373 . S
C1033 C1035 1.389 . S
C1034 H1013 0.950 . S
C1034 C1033 1.373 . S
C1034 C1050 1.377 . S
C1035 C1033 1.389 . S
C1035 C1036 1.524 . S
C1035 C1049 1.377 . S
C1036 C1035 1.524 . S
C1036 C1037 1.397 . S
C1036 C1041 1.363 1_554 S
C1037 H1014 0.950 . S
C1037 C1036 1.397 . S
C1037 C1038 1.334 . S
C1038 H1015 0.950 . S
C1038 C1037 1.334 . S
C1038 C1039 1.287 1_554 S
C1039 C1038 1.287 1_556 S
C1039 C1040 1.524 . S
C1039 H1058 0.913 . S
C1040 H1016 0.950 . S
C1040 C1039 1.524 . S
C1040 C1041 1.415 . S
C1041 H1017 0.950 . S
C1041 C1036 1.363 1_556 S
C1041 C1040 1.415 . S
C1042 H1018 0.951 . S
C1042 C1043 1.366 . S
C1042 C1044 1.388 . S
C1043 C1042 1.366 . S
C1043 C1047 1.385 1_554 S
C1044 H1019 0.951 . S
C1044 C1042 1.388 . S
C1044 C1045 1.366 . S
C1045 C1044 1.366 . S
C1045 C1046 1.436 . S
C1045 C1048 1.499 . S
C1046 H1020 0.931 1_554 S
C1046 C1045 1.436 . S
C1046 C1047 1.371 1_554 S
C1047 H1021 0.950 . S
C1047 C1043 1.385 1_556 S
C1047 C1046 1.371 1_556 S
C1048 C1045 1.499 . S
C1048 C1049 1.373 . S
C1048 C1050 1.389 . S
C1049 H1022 0.975 . S
C1049 C1035 1.377 . S
C1049 C1048 1.373 . S
C1050 C1034 1.377 . S
C1050 C1048 1.389 . S
C1050 C1051 1.524 . S
C1051 C1050 1.524 . S
C1051 C1052 1.397 . S
C1051 C1056 1.363 . S
C1052 H1023 0.950 . S
C1052 C1051 1.397 . S
C1052 C1053 1.334 . S
C1053 H1024 0.950 . S
C1053 C1052 1.334 . S
C1053 C1054 1.287 . S
C1054 C1053 1.287 . S
C1054 C1055 1.524 . S
C1054 H1057 0.999 . S
C1055 H1025 0.950 . S
C1055 C1054 1.524 . S
C1055 C1056 1.415 . S
C1056 H1026 0.950 . S
C1056 C1051 1.363 . S
C1056 C1055 1.415 . S
H1057 C1054 0.999 . S
H1058 C1039 0.913 . S
H1059 C1077 0.951 . S
H1060 C1079 0.951 . S
H1061 C1081 0.950 . S
H1062 C1082 0.950 . S
H1063 C1084 0.950 . S
H1064 C1087 0.950 . S
H1065 C1088 0.950 . S
H1066 C1090 0.950 . S
H1067 C1091 0.950 . S
H1068 C1092 0.951 . S
H1069 C1094 0.951 . S
H1070 C1096 0.962 . S
H1071 C1097 0.950 . S
H1072 C1099 0.950 . S
H1073 C1102 0.950 . S
H1074 C1103 0.950 . S
H1075 C1105 0.950 1_556 S
H1076 C1106 0.950 . S
C1077 H1059 0.951 . S
C1077 C1078 1.366 . S
C1077 C1079 1.388 . S
C1078 C1077 1.366 . S
C1078 C1082 1.385 . S
C1079 H1060 0.951 . S
C1079 C1077 1.388 . S
C1079 C1080 1.366 . S
C1080 C1079 1.366 . S
C1080 C1081 1.414 . S
C1080 C1083 1.499 . S
C1081 H1061 0.950 . S
C1081 C1080 1.414 . S
C1081 C1082 1.374 . S
C1082 H1062 0.950 . S
C1082 C1078 1.385 . S
C1082 C1081 1.374 . S
C1083 C1080 1.499 . S
C1083 C1084 1.373 . S
C1083 C1085 1.389 . S
C1084 H1063 0.950 . S
C1084 C1083 1.373 . S
C1084 C1100 1.377 . S
C1085 C1083 1.389 . S
C1085 C1086 1.524 . S
C1085 C1099 1.377 . S
C1086 C1085 1.524 . S
C1086 C1087 1.397 . S
C1086 C1091 1.363 . S
C1087 H1064 0.950 . S
C1087 C1086 1.397 . S
C1087 C1088 1.334 . S
C1088 H1065 0.950 . S
C1088 C1087 1.334 . S
C1088 C1089 1.287 . S
C1089 C1088 1.287 . S
C1089 C1090 1.524 . S
C1089 H1108 0.913 . S
C1090 H1066 0.950 . S
C1090 C1089 1.524 . S
C1090 C1091 1.415 . S
C1091 H1067 0.950 . S
C1091 C1086 1.363 . S
C1091 C1090 1.415 . S
C1092 H1068 0.951 . S
C1092 C1093 1.366 . S
C1092 C1094 1.388 . S
C1093 C1092 1.366 . S
C1093 C1097 1.385 1_556 S
C1094 H1069 0.951 . S
C1094 C1092 1.388 . S
C1094 C1095 1.366 . S
C1095 C1094 1.366 . S
C1095 C1096 1.399 1_556 S
C1095 C1098 1.499 . S
C1096 H1070 0.962 . S
C1096 C1095 1.399 1_554 S
C1096 C1097 1.378 . S
C1097 H1071 0.950 . S
C1097 C1093 1.385 1_554 S
C1097 C1096 1.378 . S
C1098 C1095 1.499 . S
C1098 C1099 1.373 . S
C1098 C1100 1.389 . S
C1099 H1072 0.950 . S
C1099 C1085 1.377 . S
C1099 C1098 1.373 . S
C1100 C1084 1.377 . S
C1100 C1098 1.389 . S
C1100 C1101 1.496 1_556 S
C1101 C1100 1.496 1_554 S
C1101 C1102 1.458 . S
C1101 C1106 1.337 1_554 S
C1102 H1073 0.950 . S
C1102 C1101 1.458 . S
C1102 C1103 1.334 . S
C1103 H1074 0.950 . S
C1103 C1102 1.334 . S
C1103 C1104 1.287 . S
C1104 C1103 1.287 . S
C1104 C1105 1.524 . S
C1104 H1107 0.999 . S
C1105 H1075 0.950 1_554 S
C1105 C1104 1.524 . S
C1105 C1106 1.415 1_554 S
C1106 H1076 0.950 . S
C1106 C1101 1.337 1_556 S
C1106 C1105 1.415 1_556 S
H1107 C1104 0.999 . S
H1108 C1089 0.913 . S
H1109 C1127 0.951 . S
H1110 C1129 0.951 . S
H1111 C1131 0.950 1_554 S
H1112 C1132 0.950 . S
H1113 C1134 0.950 . S
H1114 C1137 0.950 . S
H1115 C1138 0.950 . S
H1116 C1140 0.950 . S
H1117 C1141 0.950 . S
H1118 C1142 0.951 . S
H1119 C1144 0.951 . S
H1120 C1146 0.950 . S
H1121 C1147 0.950 . S
H1122 C1149 0.950 . S
H1123 C1152 0.950 . S
H1124 C1153 0.950 . S
H1125 C1155 0.950 . S
H1126 C1156 0.950 . S
C1127 H1109 0.951 . S
C1127 C1128 1.366 . S
C1127 C1129 1.388 . S
C1128 C1127 1.366 . S
C1128 C1132 1.385 . S
C1129 H1110 0.951 . S
C1129 C1127 1.388 . S
C1129 C1130 1.366 . S
C1130 C1129 1.366 . S
C1130 C1131 1.414 . S
C1130 C1133 1.499 . S
C1131 H1111 0.950 1_556 S
C1131 C1130 1.414 . S
C1131 C1132 1.374 . S
C1132 H1112 0.950 . S
C1132 C1128 1.385 . S
C1132 C1131 1.374 . S
C1133 C1130 1.499 . S
C1133 C1134 1.373 . S
C1133 C1135 1.389 . S
C1134 H1113 0.950 . S
C1134 C1133 1.373 . S
C1134 C1150 1.377 . S
C1135 C1133 1.389 . S
C1135 C1136 1.524 . S
C1135 C1149 1.377 . S
C1136 C1135 1.524 . S
C1136 C1137 1.397 . S
C1136 C1141 1.363 . S
C1137 H1114 0.950 . S
C1137 C1136 1.397 . S
C1137 C1138 1.334 . S
C1138 H1115 0.950 . S
C1138 C1137 1.334 . S
C1138 C1139 1.287 . S
C1139 C1138 1.287 . S
C1139 C1140 1.524 . S
C1139 H1158 0.913 . S
C1140 H1116 0.950 . S
C1140 C1139 1.524 . S
C1140 C1141 1.415 . S
C1141 H1117 0.950 . S
C1141 C1136 1.363 . S
C1141 C1140 1.415 . S
C1142 H1118 0.951 . S
C1142 C1143 1.366 1_554 S
C1142 C1144 1.388 . S
C1143 C1142 1.366 1_556 S
C1143 C1147 1.385 . S
C1144 H1119 0.951 . S
C1144 C1142 1.388 . S
C1144 C1145 1.366 1_554 S
C1145 C1144 1.366 1_556 S
C1145 C1146 1.414 . S
C1145 C1148 1.499 . S
C1146 H1120 0.950 . S
C1146 C1145 1.414 . S
C1146 C1147 1.374 . S
C1147 H1121 0.950 . S
C1147 C1143 1.385 . S
C1147 C1146 1.374 . S
C1148 C1145 1.499 . S
C1148 C1149 1.373 . S
C1148 C1150 1.389 . S
C1149 H1122 0.950 . S
C1149 C1135 1.377 . S
C1149 C1148 1.373 . S
C1150 C1134 1.377 . S
C1150 C1148 1.389 . S
C1150 C1151 1.524 . S
C1151 C1150 1.524 . S
C1151 C1152 1.397 . S
C1151 C1156 1.363 1_556 S
C1152 H1123 0.950 . S
C1152 C1151 1.397 . S
C1152 C1153 1.334 . S
C1153 H1124 0.950 . S
C1153 C1152 1.334 . S
C1153 C1154 1.295 . S
C1154 C1153 1.295 . S
C1154 C1155 1.517 1_556 S
C1154 H1157 0.996 1_556 S
C1155 H1125 0.950 . S
C1155 C1154 1.517 1_554 S
C1155 C1156 1.415 . S
C1156 H1126 0.950 . S
C1156 C1151 1.363 1_554 S
C1156 C1155 1.415 . S
H1157 C1154 0.996 1_554 S
H1158 C1139 0.913 . S
H1159 C1177 0.951 . S
H1160 C1179 0.951 . S
H1161 C1181 0.950 1_554 S
H1162 C1182 0.950 . S
H1163 C1184 0.992 . S
H1164 C1187 0.950 . S
H1165 C1188 0.950 . S
H1166 C1190 0.950 . S
H1167 C1191 0.950 . S
H1168 C1192 0.951 . S
H1169 C1194 0.951 . S
H1170 C1196 0.950 . S
H1171 C1197 0.950 . S
H1172 C1199 0.950 . S
H1173 C1202 0.950 . S
H1174 C1203 0.950 . S
H1175 C1205 0.950 . S
H1176 C1206 0.950 . S
C1177 H1159 0.951 . S
C1177 C1178 1.366 . S
C1177 C1179 1.388 . S
C1178 C1177 1.366 . S
C1178 C1182 1.385 . S
C1179 H1160 0.951 . S
C1179 C1177 1.388 . S
C1179 C1180 1.366 . S
C1180 C1179 1.366 . S
C1180 C1181 1.414 . S
C1180 C1183 1.499 . S
C1181 H1161 0.950 1_556 S
C1181 C1180 1.414 . S
C1181 C1182 1.374 . S
C1182 H1162 0.950 . S
C1182 C1178 1.385 . S
C1182 C1181 1.374 . S
C1183 C1180 1.499 . S
C1183 C1184 1.326 1_556 S
C1183 C1185 1.389 . S
C1184 H1163 0.992 . S
C1184 C1183 1.326 1_554 S
C1184 C1200 1.384 . S
C1185 C1183 1.389 . S
C1185 C1186 1.524 . S
C1185 C1199 1.377 . S
C1186 C1185 1.524 . S
C1186 C1187 1.397 . S
C1186 C1191 1.363 . S
C1187 H1164 0.950 . S
C1187 C1186 1.397 . S
C1187 C1188 1.334 . S
C1188 H1165 0.950 . S
C1188 C1187 1.334 . S
C1188 C1189 1.287 . S
C1189 C1188 1.287 . S
C1189 C1190 1.524 . S
C1189 H1208 0.913 . S
C1190 H1166 0.950 . S
C1190 C1189 1.524 . S
C1190 C1191 1.415 . S
C1191 H1167 0.950 . S
C1191 C1186 1.363 . S
C1191 C1190 1.415 . S
C1192 H1168 0.951 . S
C1192 C1193 1.366 1_554 S
C1192 C1194 1.388 . S
C1193 C1192 1.366 1_556 S
C1193 C1197 1.385 . S
C1194 H1169 0.951 . S
C1194 C1192 1.388 . S
C1194 C1195 1.366 1_554 S
C1195 C1194 1.366 1_556 S
C1195 C1196 1.414 . S
C1195 C1198 1.499 . S
C1196 H1170 0.950 . S
C1196 C1195 1.414 . S
C1196 C1197 1.374 . S
C1197 H1171 0.950 . S
C1197 C1193 1.385 . S
C1197 C1196 1.374 . S
C1198 C1195 1.499 . S
C1198 C1199 1.373 . S
C1198 C1200 1.389 1_556 S
C1199 H1172 0.950 . S
C1199 C1185 1.377 . S
C1199 C1198 1.373 . S
C1200 C1184 1.384 . S
C1200 C1198 1.389 1_554 S
C1200 C1201 1.524 . S
C1201 C1200 1.524 . S
C1201 C1202 1.397 . S
C1201 C1206 1.363 . S
C1202 H1173 0.950 . S
C1202 C1201 1.397 . S
C1202 C1203 1.334 . S
C1203 H1174 0.950 . S
C1203 C1202 1.334 . S
C1203 C1204 1.287 . S
C1204 C1203 1.287 . S
C1204 C1205 1.524 . S
C1204 H1207 0.999 . S
C1205 H1175 0.950 . S
C1205 C1204 1.524 . S
C1205 C1206 1.415 . S
C1206 H1176 0.950 . S
C1206 C1201 1.363 . S
C1206 C1205 1.415 . S
H1207 C1204 0.999 . S
H1208 C1189 0.913 . S
H1209 C1227 0.951 . S
H1210 C1229 0.951 . S
H1211 C1231 0.950 . S
H1212 C1232 0.950 . S
H1213 C1234 0.950 1_554 S
H1214 C1237 0.950 . S
H1215 C1238 0.950 . S
H1216 C1240 0.950 . S
H1217 C1241 0.950 . S
H1218 C1242 0.946 1_554 S
H1219 C1244 0.951 . S
H1220 C1246 0.950 . S
H1221 C1247 0.950 . S
H1222 C1249 0.950 . S
H1223 C1252 0.950 . S
H1224 C1253 0.950 . S
H1225 C1255 0.950 . S
H1226 C1256 0.950 . S
C1227 H1209 0.951 . S
C1227 C1228 1.366 . S
C1227 C1229 1.388 . S
C1228 C1227 1.366 . S
C1228 C1232 1.385 . S
C1229 H1210 0.951 . S
C1229 C1227 1.388 . S
C1229 C1230 1.366 . S
C1230 C1229 1.366 . S
C1230 C1231 1.414 . S
C1230 C1233 1.499 . S
C1231 H1211 0.950 . S
C1231 C1230 1.414 . S
C1231 C1232 1.374 . S
C1232 H1212 0.950 . S
C1232 C1228 1.385 . S
C1232 C1231 1.374 . S
C1233 C1230 1.499 . S
C1233 C1234 1.373 . S
C1233 C1235 1.389 . S
C1234 H1213 0.950 1_556 S
C1234 C1233 1.373 . S
C1234 C1250 1.379 . S
C1235 C1233 1.389 . S
C1235 C1236 1.524 . S
C1235 C1249 1.377 . S
C1236 C1235 1.524 . S
C1236 C1237 1.397 . S
C1236 C1241 1.363 . S
C1237 H1214 0.950 . S
C1237 C1236 1.397 . S
C1237 C1238 1.334 . S
C1238 H1215 0.950 . S
C1238 C1237 1.334 . S
C1238 C1239 1.287 . S
C1239 C1238 1.287 . S
C1239 C1240 1.524 . S
C1239 H1258 0.913 . S
C1240 H1216 0.950 . S
C1240 C1239 1.524 . S
C1240 C1241 1.415 . S
C1241 H1217 0.950 . S
C1241 C1236 1.363 . S
C1241 C1240 1.415 . S
C1242 H1218 0.946 1_556 S
C1242 C1243 1.366 . S
C1242 C1244 1.388 . S
C1243 C1242 1.366 . S
C1243 C1247 1.385 . S
C1244 H1219 0.951 . S
C1244 C1242 1.388 . S
C1244 C1245 1.366 . S
C1245 C1244 1.366 . S
C1245 C1246 1.414 . S
C1245 C1248 1.499 . S
C1246 H1220 0.950 . S
C1246 C1245 1.414 . S
C1246 C1247 1.374 . S
C1247 H1221 0.950 . S
C1247 C1243 1.385 . S
C1247 C1246 1.374 . S
C1248 C1245 1.499 . S
C1248 C1249 1.373 . S
C1248 C1250 1.397 . S
C1249 H1222 0.950 . S
C1249 C1235 1.377 . S
C1249 C1248 1.373 . S
C1250 C1234 1.379 . S
C1250 C1248 1.397 . S
C1250 C1251 1.514 1_556 S
C1251 C1250 1.514 1_554 S
C1251 C1252 1.397 . S
C1251 C1256 1.363 . S
C1252 H1223 0.950 . S
C1252 C1251 1.397 . S
C1252 C1253 1.334 . S
C1253 H1224 0.950 . S
C1253 C1252 1.334 . S
C1253 C1254 1.287 . S
C1254 C1253 1.287 . S
C1254 C1255 1.524 . S
C1254 H1257 0.999 . S
C1255 H1225 0.950 . S
C1255 C1254 1.524 . S
C1255 C1256 1.415 . S
C1256 H1226 0.950 . S
C1256 C1251 1.363 . S
C1256 C1255 1.415 . S
H1257 C1254 0.999 . S
H1258 C1239 0.913 . S
H1259 C1277 0.951 . S
H1260 C1279 0.951 . S
H1261 C1281 0.950 . S
H1262 C1282 0.950 . S
H1263 C1284 0.933 1_554 S
H1264 C1287 0.950 . S
H1265 C1288 0.950 . S
H1266 C1290 0.950 . S
H1267 C1291 0.950 . S
H1268 C1292 0.951 . S
H1269 C1294 0.957 . S
H1270 C1296 0.950 . S
H1271 C1297 0.950 . S
H1272 C1299 0.950 . S
H1273 C1302 0.950 . S
H1274 C1303 0.950 . S
H1275 C1305 0.950 . S
H1276 C1306 0.950 . S
C1277 H1259 0.951 . S
C1277 C1278 1.366 . S
C1277 C1279 1.388 . S
C1278 C1277 1.366 . S
C1278 C1282 1.385 . S
C1279 H1260 0.951 . S
C1279 C1277 1.388 . S
C1279 C1280 1.366 . S
C1280 C1279 1.366 . S
C1280 C1281 1.414 . S
C1280 C1283 1.499 . S
C1281 H1261 0.950 . S
C1281 C1280 1.414 . S
C1281 C1282 1.374 . S
C1282 H1262 0.950 . S
C1282 C1278 1.385 . S
C1282 C1281 1.374 . S
C1283 C1280 1.499 . S
C1283 C1284 1.395 . S
C1283 C1285 1.389 . S
C1284 H1263 0.933 1_556 S
C1284 C1283 1.395 . S
C1284 C1300 1.372 1_556 S
C1285 C1283 1.389 . S
C1285 C1286 1.524 . S
C1285 C1299 1.377 . S
C1286 C1285 1.524 . S
C1286 C1287 1.397 . S
C1286 C1291 1.363 . S
C1287 H1264 0.950 . S
C1287 C1286 1.397 . S
C1287 C1288 1.334 . S
C1288 H1265 0.950 . S
C1288 C1287 1.334 . S
C1288 C1289 1.287 . S
C1289 C1288 1.287 . S
C1289 C1290 1.524 . S
C1289 H1308 0.913 . S
C1290 H1266 0.950 . S
C1290 C1289 1.524 . S
C1290 C1291 1.415 . S
C1291 H1267 0.950 . S
C1291 C1286 1.363 . S
C1291 C1290 1.415 . S
C1292 H1268 0.951 . S
C1292 C1293 1.366 1_554 S
C1292 C1294 1.391 . S
C1293 C1292 1.366 1_556 S
C1293 C1297 1.385 . S
C1294 H1269 0.957 . S
C1294 C1292 1.391 . S
C1294 C1295 1.357 1_554 S
C1295 C1294 1.357 1_556 S
C1295 C1296 1.414 . S
C1295 C1298 1.499 . S
C1296 H1270 0.950 . S
C1296 C1295 1.414 . S
C1296 C1297 1.374 . S
C1297 H1271 0.950 . S
C1297 C1293 1.385 . S
C1297 C1296 1.374 . S
C1298 C1295 1.499 . S
C1298 C1299 1.373 . S
C1298 C1300 1.389 1_556 S
C1299 H1272 0.950 . S
C1299 C1285 1.377 . S
C1299 C1298 1.373 . S
C1300 C1284 1.372 1_554 S
C1300 C1298 1.389 1_554 S
C1300 C1301 1.524 . S
C1301 C1300 1.524 . S
C1301 C1302 1.397 . S
C1301 C1306 1.363 . S
C1302 H1273 0.950 . S
C1302 C1301 1.397 . S
C1302 C1303 1.334 . S
C1303 H1274 0.950 . S
C1303 C1302 1.334 . S
C1303 C1304 1.287 . S
C1304 C1303 1.287 . S
C1304 C1305 1.524 . S
C1304 H1307 0.999 . S
C1305 H1275 0.950 . S
C1305 C1304 1.524 . S
C1305 C1306 1.415 . S
C1306 H1276 0.950 . S
C1306 C1301 1.363 . S
C1306 C1305 1.415 . S
H1307 C1304 0.999 . S
H1308 C1289 0.913 . S
H1309 C1327 0.951 . S
H1310 C1329 0.951 . S
H1311 C1331 0.950 . S
H1312 C1332 0.950 . S
H1313 C1334 0.950 . S
H1314 C1337 0.950 . S
H1315 C1338 0.950 . S
H1316 C1340 0.950 . S
H1317 C1341 0.950 . S
H1318 C1342 0.956 . S
H1319 C1344 0.951 . S
H1320 C1346 0.950 . S
H1321 C1347 0.950 . S
H1322 C1349 0.938 1_554 S
H1323 C1352 0.950 . S
H1324 C1353 0.950 . S
H1325 C1355 0.950 . S
H1326 C1356 0.950 . S
C1327 H1309 0.951 . S
C1327 C1328 1.366 . S
C1327 C1329 1.388 . S
C1328 C1327 1.366 . S
C1328 C1332 1.385 . S
C1329 H1310 0.951 . S
C1329 C1327 1.388 . S
C1329 C1330 1.366 . S
C1330 C1329 1.366 . S
C1330 C1331 1.414 . S
C1330 C1333 1.499 . S
C1331 H1311 0.950 . S
C1331 C1330 1.414 . S
C1331 C1332 1.374 . S
C1332 H1312 0.950 . S
C1332 C1328 1.385 . S
C1332 C1331 1.374 . S
C1333 C1330 1.499 . S
C1333 C1334 1.373 . S
C1333 C1335 1.389 . S
C1334 H1313 0.950 . S
C1334 C1333 1.373 . S
C1334 C1350 1.377 . S
C1335 C1333 1.389 . S
C1335 C1336 1.524 1_556 S
C1335 C1349 1.378 . S
C1336 C1335 1.524 1_554 S
C1336 C1337 1.397 . S
C1336 C1341 1.363 . S
C1337 H1314 0.950 . S
C1337 C1336 1.397 . S
C1337 C1338 1.334 . S
C1338 H1315 0.950 . S
C1338 C1337 1.334 . S
C1338 C1339 1.287 . S
C1339 C1338 1.287 . S
C1339 C1340 1.524 . S
C1339 H1358 0.913 . S
C1340 H1316 0.950 . S
C1340 C1339 1.524 . S
C1340 C1341 1.415 . S
C1341 H1317 0.950 . S
C1341 C1336 1.363 . S
C1341 C1340 1.415 . S
C1342 H1318 0.956 . S
C1342 C1343 1.366 . S
C1342 C1344 1.388 . S
C1343 C1342 1.366 . S
C1343 C1347 1.385 . S
C1344 H1319 0.951 . S
C1344 C1342 1.388 . S
C1344 C1345 1.366 . S
C1345 C1344 1.366 . S
C1345 C1346 1.414 . S
C1345 C1348 1.499 . S
C1346 H1320 0.950 . S
C1346 C1345 1.414 . S
C1346 C1347 1.374 . S
C1347 H1321 0.950 . S
C1347 C1343 1.385 . S
C1347 C1346 1.374 . S
C1348 C1345 1.499 . S
C1348 C1349 1.384 . S
C1348 C1350 1.389 . S
C1349 H1322 0.938 1_556 S
C1349 C1335 1.378 . S
C1349 C1348 1.384 . S
C1350 C1334 1.377 . S
C1350 C1348 1.389 . S
C1350 C1351 1.524 . S
C1351 C1350 1.524 . S
C1351 C1352 1.397 . S
C1351 C1356 1.363 . S
C1352 H1323 0.950 . S
C1352 C1351 1.397 . S
C1352 C1353 1.334 . S
C1353 H1324 0.950 . S
C1353 C1352 1.334 . S
C1353 C1354 1.287 . S
C1354 C1353 1.287 . S
C1354 C1355 1.524 . S
C1354 H1357 0.999 . S
C1355 H1325 0.950 . S
C1355 C1354 1.524 . S
C1355 C1356 1.415 . S
C1356 H1326 0.950 . S
C1356 C1351 1.363 . S
C1356 C1355 1.415 . S
H1357 C1354 0.999 . S
H1358 C1339 0.913 . S
H1359 C1377 0.951 . S
H1360 C1379 0.951 . S
H1361 C1381 0.950 . S
H1362 C1382 0.950 . S
H1363 C1384 0.998 . S
H1364 C1387 0.950 . S
H1365 C1388 0.950 . S
H1366 C1390 0.950 . S
H1367 C1391 0.950 . S
H1368 C1392 0.951 . S
H1369 C1394 0.916 1_556 S
H1370 C1396 0.950 . S
H1371 C1397 0.950 . S
H1372 C1399 0.950 . S
H1373 C1402 0.950 1_554 S
H1374 C1403 0.950 . S
H1375 C1405 0.950 . S
H1376 C1406 0.950 . S
C1377 H1359 0.951 . S
C1377 C1378 1.366 . S
C1377 C1379 1.388 . S
C1378 C1377 1.366 . S
C1378 C1382 1.385 . S
C1379 H1360 0.951 . S
C1379 C1377 1.388 . S
C1379 C1380 1.366 . S
C1380 C1379 1.366 . S
C1380 C1381 1.414 . S
C1380 C1383 1.499 . S
C1381 H1361 0.950 . S
C1381 C1380 1.414 . S
C1381 C1382 1.374 . S
C1382 H1362 0.950 . S
C1382 C1378 1.385 . S
C1382 C1381 1.374 . S
C1383 C1380 1.499 . S
C1383 C1384 1.373 . S
C1383 C1385 1.389 . S
C1384 H1363 0.998 . S
C1384 C1383 1.373 . S
C1384 C1400 1.377 . S
C1385 C1383 1.389 . S
C1385 C1386 1.524 . S
C1385 C1399 1.377 . S
C1386 C1385 1.524 . S
C1386 C1387 1.397 . S
C1386 C1391 1.363 . S
C1387 H1364 0.950 . S
C1387 C1386 1.397 . S
C1387 C1388 1.334 . S
C1388 H1365 0.950 . S
C1388 C1387 1.334 . S
C1388 C1389 1.287 . S
C1389 C1388 1.287 . S
C1389 C1390 1.524 . S
C1389 H1408 0.913 . S
C1390 H1366 0.950 . S
C1390 C1389 1.524 . S
C1390 C1391 1.415 . S
C1391 H1367 0.950 . S
C1391 C1386 1.363 . S
C1391 C1390 1.415 . S
C1392 H1368 0.951 . S
C1392 C1393 1.366 1_556 S
C1392 C1394 1.383 1_556 S
C1393 C1392 1.366 1_554 S
C1393 C1397 1.385 . S
C1394 H1369 0.916 1_554 S
C1394 C1392 1.383 1_554 S
C1394 C1395 1.406 . S
C1395 C1394 1.406 . S
C1395 C1396 1.414 . S
C1395 C1398 1.499 . S
C1396 H1370 0.950 . S
C1396 C1395 1.414 . S
C1396 C1397 1.374 . S
C1397 H1371 0.950 . S
C1397 C1393 1.385 . S
C1397 C1396 1.374 . S
C1398 C1395 1.499 . S
C1398 C1399 1.373 . S
C1398 C1400 1.389 . S
C1399 H1372 0.950 . S
C1399 C1385 1.377 . S
C1399 C1398 1.373 . S
C1400 C1384 1.377 . S
C1400 C1398 1.389 . S
C1400 C1401 1.524 1_554 S
C1401 C1400 1.524 1_556 S
C1401 C1402 1.397 . S
C1401 C1406 1.363 . S
C1402 H1373 0.950 1_556 S
C1402 C1401 1.397 . S
C1402 C1403 1.334 . S
C1403 H1374 0.950 . S
C1403 C1402 1.334 . S
C1403 C1404 1.287 . S
C1404 C1403 1.287 . S
C1404 C1405 1.524 . S
C1404 H1407 0.999 . S
C1405 H1375 0.950 . S
C1405 C1404 1.524 . S
C1405 C1406 1.415 . S
C1406 H1376 0.950 . S
C1406 C1401 1.363 . S
C1406 C1405 1.415 . S
H1407 C1404 0.999 . S
H1408 C1389 0.913 . S
H1409 C1427 0.951 . S
H1410 C1429 0.951 . S
H1411 C1431 0.950 . S
H1412 C1432 0.950 . S
H1413 C1434 0.950 . S
H1414 C1437 1.013 . S
H1415 C1438 0.950 . S
H1416 C1440 0.950 . S
H1417 C1441 0.950 . S
H1418 C1442 0.951 . S
H1419 C1444 0.951 . S
H1420 C1446 0.950 1_556 S
H1421 C1447 1.014 . S
H1422 C1449 0.950 1_556 S
H1423 C1452 0.950 . S
H1424 C1453 0.950 . S
H1425 C1455 0.950 . S
H1426 C1456 0.950 . S
C1427 H1409 0.951 . S
C1427 C1428 1.366 . S
C1427 C1429 1.388 . S
C1428 C1427 1.366 . S
C1428 C1432 1.385 . S
C1429 H1410 0.951 . S
C1429 C1427 1.388 . S
C1429 C1430 1.366 . S
C1430 C1429 1.366 . S
C1430 C1431 1.414 . S
C1430 C1433 1.499 . S
C1431 H1411 0.950 . S
C1431 C1430 1.414 . S
C1431 C1432 1.374 . S
C1432 H1412 0.950 . S
C1432 C1428 1.385 . S
C1432 C1431 1.374 . S
C1433 C1430 1.499 . S
C1433 C1434 1.373 . S
C1433 C1435 1.389 . S
C1434 H1413 0.950 . S
C1434 C1433 1.373 . S
C1434 C1450 1.377 . S
C1435 C1433 1.389 . S
C1435 C1436 1.524 1_554 S
C1435 C1449 1.377 . S
C1436 C1435 1.524 1_556 S
C1436 C1437 1.381 1_556 S
C1436 C1441 1.363 . S
C1437 H1414 1.013 . S
C1437 C1436 1.381 1_554 S
C1437 C1438 1.290 1_554 S
C1438 H1415 0.950 . S
C1438 C1437 1.290 1_556 S
C1438 C1439 1.287 . S
C1439 C1438 1.287 . S
C1439 C1440 1.524 . S
C1439 H1458 0.913 . S
C1440 H1416 0.950 . S
C1440 C1439 1.524 . S
C1440 C1441 1.415 . S
C1441 H1417 0.950 . S
C1441 C1436 1.363 . S
C1441 C1440 1.415 . S
C1442 H1418 0.951 . S
C1442 C1443 1.366 . S
C1442 C1444 1.388 . S
C1443 C1442 1.366 . S
C1443 C1447 1.336 1_554 S
C1444 H1419 0.951 . S
C1444 C1442 1.388 . S
C1444 C1445 1.366 . S
C1445 C1444 1.366 . S
C1445 C1446 1.414 . S
C1445 C1448 1.499 . S
C1446 H1420 0.950 1_554 S
C1446 C1445 1.414 . S
C1446 C1447 1.362 1_554 S
C1447 H1421 1.014 . S
C1447 C1443 1.336 1_556 S
C1447 C1446 1.362 1_556 S
C1448 C1445 1.499 . S
C1448 C1449 1.373 . S
C1448 C1450 1.389 . S
C1449 H1422 0.950 1_554 S
C1449 C1435 1.377 . S
C1449 C1448 1.373 . S
C1450 C1434 1.377 . S
C1450 C1448 1.389 . S
C1450 C1451 1.524 . S
C1451 C1450 1.524 . S
C1451 C1452 1.397 . S
C1451 C1456 1.363 . S
C1452 H1423 0.950 . S
C1452 C1451 1.397 . S
C1452 C1453 1.334 . S
C1453 H1424 0.950 . S
C1453 C1452 1.334 . S
C1453 C1454 1.287 . S
C1454 C1453 1.287 . S
C1454 C1455 1.524 . S
C1454 H1457 0.999 . S
C1455 H1425 0.950 . S
C1455 C1454 1.524 . S
C1455 C1456 1.415 . S
C1456 H1426 0.950 . S
C1456 C1451 1.363 . S
C1456 C1455 1.415 . S
H1457 C1454 0.999 . S
H1458 C1439 0.913 . S
H1459 C1477 0.951 . S
H1460 C1479 0.951 . S
H1461 C1481 0.950 . S
H1462 C1482 0.950 . S
H1463 C1484 0.950 . S
H1464 C1487 0.950 . S
H1465 C1488 0.950 . S
H1466 C1490 0.950 . S
H1467 C1491 0.950 . S
H1468 C1492 0.951 . S
H1469 C1494 0.951 . S
H1470 C1496 0.950 . S
H1471 C1497 0.950 1_556 S
H1472 C1499 0.950 . S
H1473 C1502 0.950 . S
H1474 C1503 0.950 . S
H1475 C1505 0.950 . S
H1476 C1506 0.950 . S
C1477 H1459 0.951 . S
C1477 C1478 1.366 . S
C1477 C1479 1.388 . S
C1478 C1477 1.366 . S
C1478 C1482 1.385 . S
C1479 H1460 0.951 . S
C1479 C1477 1.388 . S
C1479 C1480 1.366 . S
C1480 C1479 1.366 . S
C1480 C1481 1.414 . S
C1480 C1483 1.499 . S
C1481 H1461 0.950 . S
C1481 C1480 1.414 . S
C1481 C1482 1.374 . S
C1482 H1462 0.950 . S
C1482 C1478 1.385 . S
C1482 C1481 1.374 . S
C1483 C1480 1.499 . S
C1483 C1484 1.373 . S
C1483 C1485 1.389 . S
C1484 H1463 0.950 . S
C1484 C1483 1.373 . S
C1484 C1500 1.377 . S
C1485 C1483 1.389 . S
C1485 C1486 1.524 . S
C1485 C1499 1.377 . S
C1486 C1485 1.524 . S
C1486 C1487 1.397 . S
C1486 C1491 1.363 . S
C1487 H1464 0.950 . S
C1487 C1486 1.397 . S
C1487 C1488 1.334 . S
C1488 H1465 0.950 . S
C1488 C1487 1.334 . S
C1488 C1489 1.287 . S
C1489 C1488 1.287 . S
C1489 C1490 1.524 . S
C1489 H1508 0.913 . S
C1490 H1466 0.950 . S
C1490 C1489 1.524 . S
C1490 C1491 1.415 . S
C1491 H1467 0.950 . S
C1491 C1486 1.363 . S
C1491 C1490 1.415 . S
C1492 H1468 0.951 . S
C1492 C1493 1.366 . S
C1492 C1494 1.388 . S
C1493 C1492 1.366 . S
C1493 C1497 1.385 . S
C1494 H1469 0.951 . S
C1494 C1492 1.388 . S
C1494 C1495 1.366 . S
C1495 C1494 1.366 . S
C1495 C1496 1.414 . S
C1495 C1498 1.499 . S
C1496 H1470 0.950 . S
C1496 C1495 1.414 . S
C1496 C1497 1.374 . S
C1497 H1471 0.950 1_554 S
C1497 C1493 1.385 . S
C1497 C1496 1.374 . S
C1498 C1495 1.499 . S
C1498 C1499 1.373 . S
C1498 C1500 1.389 . S
C1499 H1472 0.950 . S
C1499 C1485 1.377 . S
C1499 C1498 1.373 . S
C1500 C1484 1.377 . S
C1500 C1498 1.389 . S
C1500 C1501 1.524 . S
C1501 C1500 1.524 . S
C1501 C1502 1.397 1_554 S
C1501 C1506 1.363 . S
C1502 H1473 0.950 . S
C1502 C1501 1.397 1_556 S
C1502 C1503 1.334 . S
C1503 H1474 0.950 . S
C1503 C1502 1.334 . S
C1503 C1504 1.287 . S
C1504 C1503 1.287 . S
C1504 C1505 1.524 1_556 S
C1504 H1507 0.999 . S
C1505 H1475 0.950 . S
C1505 C1504 1.524 1_554 S
C1505 C1506 1.415 . S
C1506 H1476 0.950 . S
C1506 C1501 1.363 . S
C1506 C1505 1.415 . S
H1507 C1504 0.999 . S
H1508 C1489 0.913 . S
H1509 C1527 0.951 . S
H1510 C1529 0.947 1_455 S
H1511 C1531 0.942 . S
H1512 C1532 0.950 . S
H1513 C1534 0.950 . S
H1514 C1537 0.950 . S
H1515 C1538 0.950 . S
H1516 C1540 0.950 . S
H1517 C1541 0.950 . S
H1518 C1542 0.951 . S
H1519 C1544 0.951 . S
H1520 C1546 0.950 . S
H1521 C1547 0.950 . S
H1522 C1549 0.950 . S
H1523 C1552 0.950 . S
H1524 C1553 0.950 . S
H1525 C1555 0.950 . S
H1526 C1556 0.950 . S
C1527 H1509 0.951 . S
C1527 C1528 1.366 . S
C1527 C1529 1.391 . S
C1528 C1527 1.366 . S
C1528 C1532 1.385 . S
C1529 H1510 0.947 1_655 S
C1529 C1527 1.391 . S
C1529 C1530 1.366 1_655 S
C1530 C1529 1.366 1_455 S
C1530 C1531 1.414 1_455 S
C1530 C1533 1.499 . S
C1531 H1511 0.942 . S
C1531 C1530 1.414 1_655 S
C1531 C1532 1.374 . S
C1532 H1512 0.950 . S
C1532 C1528 1.385 . S
C1532 C1531 1.374 . S
C1533 C1530 1.499 . S
C1533 C1534 1.373 . S
C1533 C1535 1.389 . S
C1534 H1513 0.950 . S
C1534 C1533 1.373 . S
C1534 C1550 1.377 . S
C1535 C1533 1.389 . S
C1535 C1536 1.524 . S
C1535 C1549 1.377 . S
C1536 C1535 1.524 . S
C1536 C1537 1.397 . S
C1536 C1541 1.363 . S
C1537 H1514 0.950 . S
C1537 C1536 1.397 . S
C1537 C1538 1.334 . S
C1538 H1515 0.950 . S
C1538 C1537 1.334 . S
C1538 C1539 1.287 . S
C1539 C1538 1.287 . S
C1539 C1540 1.524 . S
C1539 H1558 0.913 . S
C1540 H1516 0.950 . S
C1540 C1539 1.524 . S
C1540 C1541 1.415 . S
C1541 H1517 0.950 . S
C1541 C1536 1.363 . S
C1541 C1540 1.415 . S
C1542 H1518 0.951 . S
C1542 C1543 1.366 . S
C1542 C1544 1.388 . S
C1543 C1542 1.366 . S
C1543 C1547 1.385 . S
C1544 H1519 0.951 . S
C1544 C1542 1.388 . S
C1544 C1545 1.366 . S
C1545 C1544 1.366 . S
C1545 C1546 1.414 . S
C1545 C1548 1.499 . S
C1546 H1520 0.950 . S
C1546 C1545 1.414 . S
C1546 C1547 1.374 . S
C1547 H1521 0.950 . S
C1547 C1543 1.385 . S
C1547 C1546 1.374 . S
C1548 C1545 1.499 . S
C1548 C1549 1.373 . S
C1548 C1550 1.389 . S
C1549 H1522 0.950 . S
C1549 C1535 1.377 . S
C1549 C1548 1.373 . S
C1550 C1534 1.377 . S
C1550 C1548 1.389 . S
C1550 C1551 1.524 . S
C1551 C1550 1.524 . S
C1551 C1552 1.397 . S
C1551 C1556 1.363 . S
C1552 H1523 0.950 . S
C1552 C1551 1.397 . S
C1552 C1553 1.334 . S
C1553 H1524 0.950 . S
C1553 C1552 1.334 . S
C1553 C1554 1.287 . S
C1554 C1553 1.287 . S
C1554 C1555 1.524 . S
C1554 H1557 0.999 . S
C1555 H1525 0.950 . S
C1555 C1554 1.524 . S
C1555 C1556 1.415 . S
C1556 H1526 0.950 . S
C1556 C1551 1.363 . S
C1556 C1555 1.415 . S
H1557 C1554 0.999 . S
H1558 C1539 0.913 . S
H1559 C1577 0.951 . S
H1560 C1579 0.951 . S
H1561 C1581 0.950 . S
H1562 C1582 0.950 . S
H1563 C1584 0.950 . S
H1564 C1587 0.950 . S
H1565 C1588 0.950 . S
H1566 C1590 0.950 . S
H1567 C1591 0.950 . S
H1568 C1592 0.951 . S
H1569 C1594 0.951 . S
H1570 C1596 0.950 . S
H1571 C1597 0.950 . S
H1572 C1599 0.950 . S
H1573 C1602 0.950 . S
H1574 C1603 0.950 . S
H1575 C1605 0.950 . S
H1576 C1606 0.950 . S
C1577 H1559 0.951 . S
C1577 C1578 1.366 . S
C1577 C1579 1.388 . S
C1578 C1577 1.366 . S
C1578 C1582 1.385 . S
C1579 H1560 0.951 . S
C1579 C1577 1.388 . S
C1579 C1580 1.366 . S
C1580 C1579 1.366 . S
C1580 C1581 1.414 . S
C1580 C1583 1.499 . S
C1581 H1561 0.950 . S
C1581 C1580 1.414 . S
C1581 C1582 1.374 . S
C1582 H1562 0.950 . S
C1582 C1578 1.385 . S
C1582 C1581 1.374 . S
C1583 C1580 1.499 . S
C1583 C1584 1.373 . S
C1583 C1585 1.389 . S
C1584 H1563 0.950 . S
C1584 C1583 1.373 . S
C1584 C1600 1.377 . S
C1585 C1583 1.389 . S
C1585 C1586 1.524 . S
C1585 C1599 1.377 . S
C1586 C1585 1.524 . S
C1586 C1587 1.397 . S
C1586 C1591 1.363 . S
C1587 H1564 0.950 . S
C1587 C1586 1.397 . S
C1587 C1588 1.334 . S
C1588 H1565 0.950 . S
C1588 C1587 1.334 . S
C1588 C1589 1.287 . S
C1589 C1588 1.287 . S
C1589 C1590 1.524 . S
C1589 H1608 0.913 . S
C1590 H1566 0.950 . S
C1590 C1589 1.524 . S
C1590 C1591 1.415 . S
C1591 H1567 0.950 . S
C1591 C1586 1.363 . S
C1591 C1590 1.415 . S
C1592 H1568 0.951 . S
C1592 C1593 1.366 . S
C1592 C1594 1.388 . S
C1593 C1592 1.366 . S
C1593 C1597 1.385 . S
C1594 H1569 0.951 . S
C1594 C1592 1.388 . S
C1594 C1595 1.366 . S
C1595 C1594 1.366 . S
C1595 C1596 1.414 . S
C1595 C1598 1.499 . S
C1596 H1570 0.950 . S
C1596 C1595 1.414 . S
C1596 C1597 1.374 . S
C1597 H1571 0.950 . S
C1597 C1593 1.385 . S
C1597 C1596 1.374 . S
C1598 C1595 1.499 . S
C1598 C1599 1.373 . S
C1598 C1600 1.389 . S
C1599 H1572 0.950 . S
C1599 C1585 1.377 . S
C1599 C1598 1.373 . S
C1600 C1584 1.377 . S
C1600 C1598 1.389 . S
C1600 C1601 1.524 . S
C1601 C1600 1.524 . S
C1601 C1602 1.397 . S
C1601 C1606 1.363 . S
C1602 H1573 0.950 . S
C1602 C1601 1.397 . S
C1602 C1603 1.334 . S
C1603 H1574 0.950 . S
C1603 C1602 1.334 . S
C1603 C1604 1.287 . S
C1604 C1603 1.287 . S
C1604 C1605 1.524 . S
C1604 H1607 0.999 . S
C1605 H1575 0.950 . S
C1605 C1604 1.524 . S
C1605 C1606 1.415 . S
C1606 H1576 0.950 . S
C1606 C1601 1.363 . S
C1606 C1605 1.415 . S
H1607 C1604 0.999 . S
H1608 C1589 0.913 . S
H1609 C1627 0.951 . S
H1610 C1629 0.951 . S
H1611 C1631 0.950 1_565 S
H1612 C1632 0.950 . S
H1613 C1634 0.950 . S
H1614 C1637 0.950 . S
H1615 C1638 0.950 . S
H1616 C1640 0.950 . S
H1617 C1641 0.950 . S
H1618 C1642 0.951 . S
H1619 C1644 0.951 . S
H1620 C1646 0.950 . S
H1621 C1647 0.950 . S
H1622 C1649 0.950 . S
H1623 C1652 0.950 . S
H1624 C1653 0.950 . S
H1625 C1655 0.950 . S
H1626 C1656 0.950 . S
C1627 H1609 0.951 . S
C1627 C1628 1.366 . S
C1627 C1629 1.388 . S
C1628 C1627 1.366 . S
C1628 C1632 1.385 . S
C1629 H1610 0.951 . S
C1629 C1627 1.388 . S
C1629 C1630 1.349 1_545 S
C1630 C1629 1.349 1_565 S
C1630 C1631 1.362 1_565 S
C1630 C1633 1.569 . S
C1631 H1611 0.950 1_545 S
C1631 C1630 1.362 1_545 S
C1631 C1632 1.374 . S
C1632 H1612 0.950 . S
C1632 C1628 1.385 . S
C1632 C1631 1.374 . S
C1633 C1630 1.569 . S
C1633 C1634 1.373 . S
C1633 C1635 1.389 . S
C1634 H1613 0.950 . S
C1634 C1633 1.373 . S
C1634 C1650 1.377 . S
C1635 C1633 1.389 . S
C1635 C1636 1.524 . S
C1635 C1649 1.377 . S
C1636 C1635 1.524 . S
C1636 C1637 1.397 . S
C1636 C1641 1.363 . S
C1637 H1614 0.950 . S
C1637 C1636 1.397 . S
C1637 C1638 1.334 1_565 S
C1638 H1615 0.950 . S
C1638 C1637 1.334 1_545 S
C1638 C1639 1.292 . S
C1639 C1638 1.292 . S
C1639 C1640 1.513 1_545 S
C1639 H1658 0.920 . S
C1640 H1616 0.950 . S
C1640 C1639 1.513 1_565 S
C1640 C1641 1.415 . S
C1641 H1617 0.950 . S
C1641 C1636 1.363 . S
C1641 C1640 1.415 . S
C1642 H1618 0.951 . S
C1642 C1643 1.366 . S
C1642 C1644 1.388 . S
C1643 C1642 1.366 . S
C1643 C1647 1.385 . S
C1644 H1619 0.951 . S
C1644 C1642 1.388 . S
C1644 C1645 1.366 . S
C1645 C1644 1.366 . S
C1645 C1646 1.414 . S
C1645 C1648 1.499 . S
C1646 H1620 0.950 . S
C1646 C1645 1.414 . S
C1646 C1647 1.374 . S
C1647 H1621 0.950 . S
C1647 C1643 1.385 . S
C1647 C1646 1.374 . S
C1648 C1645 1.499 . S
C1648 C1649 1.373 . S
C1648 C1650 1.389 . S
C1649 H1622 0.950 . S
C1649 C1635 1.377 . S
C1649 C1648 1.373 . S
C1650 C1634 1.377 . S
C1650 C1648 1.389 . S
C1650 C1651 1.524 . S
C1651 C1650 1.524 . S
C1651 C1652 1.397 . S
C1651 C1656 1.363 . S
C1652 H1623 0.950 . S
C1652 C1651 1.397 . S
C1652 C1653 1.334 . S
C1653 H1624 0.950 . S
C1653 C1652 1.334 . S
C1653 C1654 1.287 . S
C1654 C1653 1.287 . S
C1654 C1655 1.524 . S
C1654 H1657 0.999 . S
C1655 H1625 0.950 . S
C1655 C1654 1.524 . S
C1655 C1656 1.415 . S
C1656 H1626 0.950 . S
C1656 C1651 1.363 . S
C1656 C1655 1.415 . S
H1657 C1654 0.999 . S
H1658 C1639 0.920 . S
H1659 C1677 0.951 . S
H1660 C1679 0.951 . S
H1661 C1681 0.950 . S
H1662 C1682 0.950 . S
H1663 C1684 0.950 . S
H1664 C1687 0.950 . S
H1665 C1688 0.950 . S
H1666 C1690 0.950 . S
H1667 C1691 0.950 . S
H1668 C1692 0.951 . S
H1669 C1694 0.951 . S
H1670 C1696 0.950 . S
H1671 C1697 0.950 . S
H1672 C1699 0.950 . S
H1673 C1702 0.950 . S
H1674 C1703 0.950 . S
H1675 C1705 0.950 . S
H1676 C1706 0.950 . S
C1677 H1659 0.951 . S
C1677 C1678 1.366 . S
C1677 C1679 1.388 . S
C1678 C1677 1.366 . S
C1678 C1682 1.385 . S
C1679 H1660 0.951 . S
C1679 C1677 1.388 . S
C1679 C1680 1.366 . S
C1680 C1679 1.366 . S
C1680 C1681 1.414 . S
C1680 C1683 1.499 . S
C1681 H1661 0.950 . S
C1681 C1680 1.414 . S
C1681 C1682 1.374 . S
C1682 H1662 0.950 . S
C1682 C1678 1.385 . S
C1682 C1681 1.374 . S
C1683 C1680 1.499 . S
C1683 C1684 1.373 . S
C1683 C1685 1.389 . S
C1684 H1663 0.950 . S
C1684 C1683 1.373 . S
C1684 C1700 1.377 . S
C1685 C1683 1.389 . S
C1685 C1686 1.524 . S
C1685 C1699 1.377 . S
C1686 C1685 1.524 . S
C1686 C1687 1.397 . S
C1686 C1691 1.363 . S
C1687 H1664 0.950 . S
C1687 C1686 1.397 . S
C1687 C1688 1.334 . S
C1688 H1665 0.950 . S
C1688 C1687 1.334 . S
C1688 C1689 1.287 . S
C1689 C1688 1.287 . S
C1689 C1690 1.524 . S
C1689 H1708 0.913 . S
C1690 H1666 0.950 . S
C1690 C1689 1.524 . S
C1690 C1691 1.415 . S
C1691 H1667 0.950 . S
C1691 C1686 1.363 . S
C1691 C1690 1.415 . S
C1692 H1668 0.951 . S
C1692 C1693 1.366 . S
C1692 C1694 1.388 . S
C1693 C1692 1.366 . S
C1693 C1697 1.385 . S
C1694 H1669 0.951 . S
C1694 C1692 1.388 . S
C1694 C1695 1.366 . S
C1695 C1694 1.366 . S
C1695 C1696 1.414 . S
C1695 C1698 1.499 . S
C1696 H1670 0.950 . S
C1696 C1695 1.414 . S
C1696 C1697 1.374 . S
C1697 H1671 0.950 . S
C1697 C1693 1.385 . S
C1697 C1696 1.374 . S
C1698 C1695 1.499 . S
C1698 C1699 1.373 . S
C1698 C1700 1.389 . S
C1699 H1672 0.950 . S
C1699 C1685 1.377 . S
C1699 C1698 1.373 . S
C1700 C1684 1.377 . S
C1700 C1698 1.389 . S
C1700 C1701 1.524 . S
C1701 C1700 1.524 . S
C1701 C1702 1.397 . S
C1701 C1706 1.363 . S
C1702 H1673 0.950 . S
C1702 C1701 1.397 . S
C1702 C1703 1.334 . S
C1703 H1674 0.950 . S
C1703 C1702 1.334 . S
C1703 C1704 1.287 . S
C1704 C1703 1.287 . S
C1704 C1705 1.524 . S
C1704 H1707 0.999 . S
C1705 H1675 0.950 . S
C1705 C1704 1.524 . S
C1705 C1706 1.415 . S
C1706 H1676 0.950 . S
C1706 C1701 1.363 . S
C1706 C1705 1.415 . S
H1707 C1704 0.999 . S
H1708 C1689 0.913 . S
H1709 C1727 0.951 . S
H1710 C1729 0.951 . S
H1711 C1731 0.950 . S
H1712 C1732 0.950 . S
H1713 C1734 0.950 . S
H1714 C1737 0.950 . S
H1715 C1738 0.950 . S
H1716 C1740 0.950 . S
H1717 C1741 0.950 . S
H1718 C1742 0.951 . S
H1719 C1744 0.951 . S
H1720 C1746 0.950 . S
H1721 C1747 0.950 . S
H1722 C1749 0.950 . S
H1723 C1752 0.950 . S
H1724 C1753 0.950 . S
H1725 C1755 0.950 . S
H1726 C1756 0.950 . S
C1727 H1709 0.951 . S
C1727 C1728 1.366 . S
C1727 C1729 1.388 . S
C1728 C1727 1.366 . S
C1728 C1732 1.385 . S
C1729 H1710 0.951 . S
C1729 C1727 1.388 . S
C1729 C1730 1.366 . S
C1730 C1729 1.366 . S
C1730 C1731 1.414 . S
C1730 C1733 1.499 . S
C1731 H1711 0.950 . S
C1731 C1730 1.414 . S
C1731 C1732 1.374 . S
C1732 H1712 0.950 . S
C1732 C1728 1.385 . S
C1732 C1731 1.374 . S
C1733 C1730 1.499 . S
C1733 C1734 1.373 . S
C1733 C1735 1.389 . S
C1734 H1713 0.950 . S
C1734 C1733 1.373 . S
C1734 C1750 1.377 . S
C1735 C1733 1.389 . S
C1735 C1736 1.524 . S
C1735 C1749 1.377 . S
C1736 C1735 1.524 . S
C1736 C1737 1.397 . S
C1736 C1741 1.363 . S
C1737 H1714 0.950 . S
C1737 C1736 1.397 . S
C1737 C1738 1.334 . S
C1738 H1715 0.950 . S
C1738 C1737 1.334 . S
C1738 C1739 1.287 . S
C1739 C1738 1.287 . S
C1739 C1740 1.524 . S
C1739 H1758 0.913 . S
C1740 H1716 0.950 . S
C1740 C1739 1.524 . S
C1740 C1741 1.415 . S
C1741 H1717 0.950 . S
C1741 C1736 1.363 . S
C1741 C1740 1.415 . S
C1742 H1718 0.951 . S
C1742 C1743 1.366 . S
C1742 C1744 1.388 . S
C1743 C1742 1.366 . S
C1743 C1747 1.385 . S
C1744 H1719 0.951 . S
C1744 C1742 1.388 . S
C1744 C1745 1.366 . S
C1745 C1744 1.366 . S
C1745 C1746 1.414 . S
C1745 C1748 1.499 . S
C1746 H1720 0.950 . S
C1746 C1745 1.414 . S
C1746 C1747 1.374 . S
C1747 H1721 0.950 . S
C1747 C1743 1.385 . S
C1747 C1746 1.374 . S
C1748 C1745 1.499 . S
C1748 C1749 1.373 . S
C1748 C1750 1.389 . S
C1749 H1722 0.950 . S
C1749 C1735 1.377 . S
C1749 C1748 1.373 . S
C1750 C1734 1.377 . S
C1750 C1748 1.389 . S
C1750 C1751 1.524 . S
C1751 C1750 1.524 . S
C1751 C1752 1.397 . S
C1751 C1756 1.363 . S
C1752 H1723 0.950 . S
C1752 C1751 1.397 . S
C1752 C1753 1.334 . S
C1753 H1724 0.950 . S
C1753 C1752 1.334 . S
C1753 C1754 1.287 . S
C1754 C1753 1.287 . S
C1754 C1755 1.524 . S
C1754 H1757 0.999 . S
C1755 H1725 0.950 . S
C1755 C1754 1.524 . S
C1755 C1756 1.415 . S
C1756 H1726 0.950 . S
C1756 C1751 1.363 . S
C1756 C1755 1.415 . S
H1757 C1754 0.999 . S
H1758 C1739 0.913 . S
H1759 C1777 0.951 . S
H1760 C1779 0.951 . S
H1761 C1781 0.950 . S
H1762 C1782 0.950 . S
H1763 C1784 0.950 . S
H1764 C1787 0.950 . S
H1765 C1788 0.950 . S
H1766 C1790 0.950 . S
H1767 C1791 0.950 . S
H1768 C1792 0.951 . S
H1769 C1794 0.951 . S
H1770 C1796 0.950 . S
H1771 C1797 0.950 . S
H1772 C1799 0.950 . S
H1773 C1802 0.950 . S
H1774 C1803 0.950 . S
H1775 C1805 0.950 . S
H1776 C1806 0.950 . S
C1777 H1759 0.951 . S
C1777 C1778 1.366 . S
C1777 C1779 1.388 . S
C1778 C1777 1.366 . S
C1778 C1782 1.385 . S
C1779 H1760 0.951 . S
C1779 C1777 1.388 . S
C1779 C1780 1.366 . S
C1780 C1779 1.366 . S
C1780 C1781 1.414 . S
C1780 C1783 1.499 . S
C1781 H1761 0.950 . S
C1781 C1780 1.414 . S
C1781 C1782 1.374 . S
C1782 H1762 0.950 . S
C1782 C1778 1.385 . S
C1782 C1781 1.374 . S
C1783 C1780 1.499 . S
C1783 C1784 1.373 . S
C1783 C1785 1.389 . S
C1784 H1763 0.950 . S
C1784 C1783 1.373 . S
C1784 C1800 1.377 . S
C1785 C1783 1.389 . S
C1785 C1786 1.524 . S
C1785 C1799 1.377 . S
C1786 C1785 1.524 . S
C1786 C1787 1.397 . S
C1786 C1791 1.363 . S
C1787 H1764 0.950 . S
C1787 C1786 1.397 . S
C1787 C1788 1.334 . S
C1788 H1765 0.950 . S
C1788 C1787 1.334 . S
C1788 C1789 1.287 . S
C1789 C1788 1.287 . S
C1789 C1790 1.524 . S
C1789 H1808 0.913 . S
C1790 H1766 0.950 . S
C1790 C1789 1.524 . S
C1790 C1791 1.415 . S
C1791 H1767 0.950 . S
C1791 C1786 1.363 . S
C1791 C1790 1.415 . S
C1792 H1768 0.951 . S
C1792 C1793 1.366 . S
C1792 C1794 1.388 . S
C1793 C1792 1.366 . S
C1793 C1797 1.385 . S
C1794 H1769 0.951 . S
C1794 C1792 1.388 . S
C1794 C1795 1.366 . S
C1795 C1794 1.366 . S
C1795 C1796 1.414 . S
C1795 C1798 1.499 . S
C1796 H1770 0.950 . S
C1796 C1795 1.414 . S
C1796 C1797 1.374 . S
C1797 H1771 0.950 . S
C1797 C1793 1.385 . S
C1797 C1796 1.374 . S
C1798 C1795 1.499 . S
C1798 C1799 1.373 . S
C1798 C1800 1.389 . S
C1799 H1772 0.950 . S
C1799 C1785 1.377 . S
C1799 C1798 1.373 . S
C1800 C1784 1.377 . S
C1800 C1798 1.389 . S
C1800 C1801 1.524 . S
C1801 C1800 1.524 . S
C1801 C1802 1.397 . S
C1801 C1806 1.363 . S
C1802 H1773 0.950 . S
C1802 C1801 1.397 . S
C1802 C1803 1.334 . S
C1803 H1774 0.950 . S
C1803 C1802 1.334 . S
C1803 C1804 1.287 . S
C1804 C1803 1.287 . S
C1804 C1805 1.524 . S
C1804 H1807 0.999 . S
C1805 H1775 0.950 . S
C1805 C1804 1.524 . S
C1805 C1806 1.415 . S
C1806 H1776 0.950 . S
C1806 C1801 1.363 . S
C1806 C1805 1.415 . S
H1807 C1804 0.999 . S
H1808 C1789 0.913 . S
H1809 C1827 0.951 . S
H1810 C1829 0.951 . S
H1811 C1831 0.950 . S
H1812 C1832 0.950 . S
H1813 C1834 0.950 . S
H1814 C1837 0.950 . S
H1815 C1838 0.950 . S
H1816 C1840 0.950 . S
H1817 C1841 0.950 . S
H1818 C1842 0.951 . S
H1819 C1844 0.951 . S
H1820 C1846 0.950 . S
H1821 C1847 0.950 . S
H1822 C1849 0.950 . S
H1823 C1852 0.950 . S
H1824 C1853 0.950 . S
H1825 C1855 0.950 . S
H1826 C1856 0.950 . S
C1827 H1809 0.951 . S
C1827 C1828 1.366 . S
C1827 C1829 1.388 . S
C1828 C1827 1.366 . S
C1828 C1832 1.385 . S
C1829 H1810 0.951 . S
C1829 C1827 1.388 . S
C1829 C1830 1.366 . S
C1830 C1829 1.366 . S
C1830 C1831 1.414 . S
C1830 C1833 1.499 . S
C1831 H1811 0.950 . S
C1831 C1830 1.414 . S
C1831 C1832 1.374 . S
C1832 H1812 0.950 . S
C1832 C1828 1.385 . S
C1832 C1831 1.374 . S
C1833 C1830 1.499 . S
C1833 C1834 1.373 . S
C1833 C1835 1.389 . S
C1834 H1813 0.950 . S
C1834 C1833 1.373 . S
C1834 C1850 1.377 . S
C1835 C1833 1.389 . S
C1835 C1836 1.524 . S
C1835 C1849 1.377 . S
C1836 C1835 1.524 . S
C1836 C1837 1.397 . S
C1836 C1841 1.363 . S
C1837 H1814 0.950 . S
C1837 C1836 1.397 . S
C1837 C1838 1.334 . S
C1838 H1815 0.950 . S
C1838 C1837 1.334 . S
C1838 C1839 1.287 . S
C1839 C1838 1.287 . S
C1839 C1840 1.524 . S
C1839 H1858 0.913 . S
C1840 H1816 0.950 . S
C1840 C1839 1.524 . S
C1840 C1841 1.415 . S
C1841 H1817 0.950 . S
C1841 C1836 1.363 . S
C1841 C1840 1.415 . S
C1842 H1818 0.951 . S
C1842 C1843 1.366 . S
C1842 C1844 1.388 . S
C1843 C1842 1.366 . S
C1843 C1847 1.385 . S
C1844 H1819 0.951 . S
C1844 C1842 1.388 . S
C1844 C1845 1.366 . S
C1845 C1844 1.366 . S
C1845 C1846 1.414 . S
C1845 C1848 1.499 . S
C1846 H1820 0.950 . S
C1846 C1845 1.414 . S
C1846 C1847 1.374 . S
C1847 H1821 0.950 . S
C1847 C1843 1.385 . S
C1847 C1846 1.374 . S
C1848 C1845 1.499 . S
C1848 C1849 1.373 . S
C1848 C1850 1.389 . S
C1849 H1822 0.950 . S
C1849 C1835 1.377 . S
C1849 C1848 1.373 . S
C1850 C1834 1.377 . S
C1850 C1848 1.389 . S
C1850 C1851 1.524 . S
C1851 C1850 1.524 . S
C1851 C1852 1.397 . S
C1851 C1856 1.363 . S
C1852 H1823 0.950 . S
C1852 C1851 1.397 . S
C1852 C1853 1.334 . S
C1853 H1824 0.950 . S
C1853 C1852 1.334 . S
C1853 C1854 1.287 . S
C1854 C1853 1.287 . S
C1854 C1855 1.524 . S
C1854 H1857 0.999 . S
C1855 H1825 0.950 . S
C1855 C1854 1.524 . S
C1855 C1856 1.415 . S
C1856 H1826 0.950 . S
C1856 C1851 1.363 . S
C1856 C1855 1.415 . S
H1857 C1854 0.999 . S
H1858 C1839 0.913 . S
H1859 C1877 0.951 . S
H1860 C1879 0.951 . S
H1861 C1881 0.950 . S
H1862 C1882 0.950 . S
H1863 C1884 0.950 . S
H1864 C1887 0.950 . S
H1865 C1888 0.950 . S
H1866 C1890 0.950 . S
H1867 C1891 0.950 . S
H1868 C1892 0.951 . S
H1869 C1894 0.951 . S
H1870 C1896 0.950 . S
H1871 C1897 0.950 . S
H1872 C1899 0.950 . S
H1873 C1902 0.950 . S
H1874 C1903 0.950 . S
H1875 C1905 0.950 . S
H1876 C1906 0.950 . S
C1877 H1859 0.951 . S
C1877 C1878 1.366 . S
C1877 C1879 1.388 . S
C1878 C1877 1.366 . S
C1878 C1882 1.385 . S
C1879 H1860 0.951 . S
C1879 C1877 1.388 . S
C1879 C1880 1.366 . S
C1880 C1879 1.366 . S
C1880 C1881 1.414 . S
C1880 C1883 1.499 . S
C1881 H1861 0.950 . S
C1881 C1880 1.414 . S
C1881 C1882 1.374 . S
C1882 H1862 0.950 . S
C1882 C1878 1.385 . S
C1882 C1881 1.374 . S
C1883 C1880 1.499 . S
C1883 C1884 1.373 . S
C1883 C1885 1.389 . S
C1884 H1863 0.950 . S
C1884 C1883 1.373 . S
C1884 C1900 1.377 . S
C1885 C1883 1.389 . S
C1885 C1886 1.524 . S
C1885 C1899 1.377 . S
C1886 C1885 1.524 . S
C1886 C1887 1.397 . S
C1886 C1891 1.363 . S
C1887 H1864 0.950 . S
C1887 C1886 1.397 . S
C1887 C1888 1.334 . S
C1888 H1865 0.950 . S
C1888 C1887 1.334 . S
C1888 C1889 1.287 . S
C1889 C1888 1.287 . S
C1889 C1890 1.524 . S
C1889 H1908 0.913 . S
C1890 H1866 0.950 . S
C1890 C1889 1.524 . S
C1890 C1891 1.415 . S
C1891 H1867 0.950 . S
C1891 C1886 1.363 . S
C1891 C1890 1.415 . S
C1892 H1868 0.951 . S
C1892 C1893 1.366 . S
C1892 C1894 1.388 . S
C1893 C1892 1.366 . S
C1893 C1897 1.385 . S
C1894 H1869 0.951 . S
C1894 C1892 1.388 . S
C1894 C1895 1.366 . S
C1895 C1894 1.366 . S
C1895 C1896 1.414 . S
C1895 C1898 1.499 . S
C1896 H1870 0.950 . S
C1896 C1895 1.414 . S
C1896 C1897 1.374 . S
C1897 H1871 0.950 . S
C1897 C1893 1.385 . S
C1897 C1896 1.374 . S
C1898 C1895 1.499 . S
C1898 C1899 1.373 . S
C1898 C1900 1.389 . S
C1899 H1872 0.950 . S
C1899 C1885 1.377 . S
C1899 C1898 1.373 . S
C1900 C1884 1.377 . S
C1900 C1898 1.389 . S
C1900 C1901 1.524 . S
C1901 C1900 1.524 . S
C1901 C1902 1.397 . S
C1901 C1906 1.363 . S
C1902 H1873 0.950 . S
C1902 C1901 1.397 . S
C1902 C1903 1.334 . S
C1903 H1874 0.950 . S
C1903 C1902 1.334 . S
C1903 C1904 1.287 . S
C1904 C1903 1.287 . S
C1904 C1905 1.524 . S
C1904 H1907 0.999 . S
C1905 H1875 0.950 . S
C1905 C1904 1.524 . S
C1905 C1906 1.415 . S
C1906 H1876 0.950 . S
C1906 C1901 1.363 . S
C1906 C1905 1.415 . S
H1907 C1904 0.999 . S
H1908 C1889 0.913 . S
H1909 C1927 0.951 . S
H1910 C1929 0.951 . S
H1911 C1931 0.950 . S
H1912 C1932 0.950 . S
H1913 C1934 0.950 . S
H1914 C1937 0.950 . S
H1915 C1938 0.950 . S
H1916 C1940 0.950 . S
H1917 C1941 0.950 . S
H1918 C1942 0.951 . S
H1919 C1944 0.951 . S
H1920 C1946 0.950 . S
H1921 C1947 0.950 . S
H1922 C1949 0.950 . S
H1923 C1952 0.950 . S
H1924 C1953 0.950 . S
H1925 C1955 0.950 . S
H1926 C1956 0.950 . S
C1927 H1909 0.951 . S
C1927 C1928 1.366 . S
C1927 C1929 1.388 . S
C1928 C1927 1.366 . S
C1928 C1932 1.385 . S
C1929 H1910 0.951 . S
C1929 C1927 1.388 . S
C1929 C1930 1.366 . S
C1930 C1929 1.366 . S
C1930 C1931 1.414 . S
C1930 C1933 1.499 . S
C1931 H1911 0.950 . S
C1931 C1930 1.414 . S
C1931 C1932 1.374 . S
C1932 H1912 0.950 . S
C1932 C1928 1.385 . S
C1932 C1931 1.374 . S
C1933 C1930 1.499 . S
C1933 C1934 1.373 . S
C1933 C1935 1.389 . S
C1934 H1913 0.950 . S
C1934 C1933 1.373 . S
C1934 C1950 1.377 . S
C1935 C1933 1.389 . S
C1935 C1936 1.524 . S
C1935 C1949 1.377 . S
C1936 C1935 1.524 . S
C1936 C1937 1.397 . S
C1936 C1941 1.363 . S
C1937 H1914 0.950 . S
C1937 C1936 1.397 . S
C1937 C1938 1.334 . S
C1938 H1915 0.950 . S
C1938 C1937 1.334 . S
C1938 C1939 1.287 . S
C1939 C1938 1.287 . S
C1939 C1940 1.524 . S
C1939 H1958 0.913 . S
C1940 H1916 0.950 . S
C1940 C1939 1.524 . S
C1940 C1941 1.415 . S
C1941 H1917 0.950 . S
C1941 C1936 1.363 . S
C1941 C1940 1.415 . S
C1942 H1918 0.951 . S
C1942 C1943 1.366 . S
C1942 C1944 1.388 . S
C1943 C1942 1.366 . S
C1943 C1947 1.385 . S
C1944 H1919 0.951 . S
C1944 C1942 1.388 . S
C1944 C1945 1.366 . S
C1945 C1944 1.366 . S
C1945 C1946 1.414 . S
C1945 C1948 1.499 . S
C1946 H1920 0.950 . S
C1946 C1945 1.414 . S
C1946 C1947 1.374 . S
C1947 H1921 0.950 . S
C1947 C1943 1.385 . S
C1947 C1946 1.374 . S
C1948 C1945 1.499 . S
C1948 C1949 1.373 . S
C1948 C1950 1.389 . S
C1949 H1922 0.950 . S
C1949 C1935 1.377 . S
C1949 C1948 1.373 . S
C1950 C1934 1.377 . S
C1950 C1948 1.389 . S
C1950 C1951 1.524 . S
C1951 C1950 1.524 . S
C1951 C1952 1.397 . S
C1951 C1956 1.363 . S
C1952 H1923 0.950 . S
C1952 C1951 1.397 . S
C1952 C1953 1.334 . S
C1953 H1924 0.950 . S
C1953 C1952 1.334 . S
C1953 C1954 1.287 . S
C1954 C1953 1.287 . S
C1954 C1955 1.524 . S
C1954 H1957 0.999 . S
C1955 H1925 0.950 . S
C1955 C1954 1.524 . S
C1955 C1956 1.415 . S
C1956 H1926 0.950 . S
C1956 C1951 1.363 . S
C1956 C1955 1.415 . S
H1957 C1954 0.999 . S
H1958 C1939 0.913 . S
H1959 C1977 0.951 . S
H1960 C1979 0.951 1_565 S
H1961 C1981 0.950 . S
H1962 C1982 0.950 . S
H1963 C1984 0.950 . S
H1964 C1987 0.950 . S
H1965 C1988 0.950 1_545 S
H1966 C1990 0.950 . S
H1967 C1991 0.950 . S
H1968 C1992 0.951 . S
H1969 C1994 0.951 . S
H1970 C1996 0.950 . S
H1971 C1997 0.950 . S
H1972 C1999 0.950 . S
H1973 C2002 0.950 . S
H1974 C2003 0.950 . S
H1975 C2005 0.950 . S
H1976 C2006 0.950 . S
C1977 H1959 0.951 . S
C1977 C1978 1.366 . S
C1977 C1979 1.388 . S
C1978 C1977 1.366 . S
C1978 C1982 1.385 . S
C1979 H1960 0.951 1_545 S
C1979 C1977 1.388 . S
C1979 C1980 1.366 1_545 S
C1980 C1979 1.366 1_565 S
C1980 C1981 1.414 1_565 S
C1980 C1983 1.499 . S
C1981 H1961 0.950 . S
C1981 C1980 1.414 1_545 S
C1981 C1982 1.374 . S
C1982 H1962 0.950 . S
C1982 C1978 1.385 . S
C1982 C1981 1.374 . S
C1983 C1980 1.499 . S
C1983 C1984 1.373 . S
C1983 C1985 1.389 . S
C1984 H1963 0.950 . S
C1984 C1983 1.373 . S
C1984 C2000 1.377 . S
C1985 C1983 1.389 . S
C1985 C1986 1.524 . S
C1985 C1999 1.377 . S
C1986 C1985 1.524 . S
C1986 C1987 1.397 . S
C1986 C1991 1.363 . S
C1987 H1964 0.950 . S
C1987 C1986 1.397 . S
C1987 C1988 1.334 . S
C1988 H1965 0.950 1_565 S
C1988 C1987 1.334 . S
C1988 C1989 1.287 . S
C1989 C1988 1.287 . S
C1989 C1990 1.524 . S
C1989 H2008 0.913 . S
C1990 H1966 0.950 . S
C1990 C1989 1.524 . S
C1990 C1991 1.415 . S
C1991 H1967 0.950 . S
C1991 C1986 1.363 . S
C1991 C1990 1.415 . S
C1992 H1968 0.951 . S
C1992 C1993 1.366 . S
C1992 C1994 1.388 . S
C1993 C1992 1.366 . S
C1993 C1997 1.385 . S
C1994 H1969 0.951 . S
C1994 C1992 1.388 . S
C1994 C1995 1.366 . S
C1995 C1994 1.366 . S
C1995 C1996 1.414 . S
C1995 C1998 1.499 . S
C1996 H1970 0.950 . S
C1996 C1995 1.414 . S
C1996 C1997 1.374 . S
C1997 H1971 0.950 . S
C1997 C1993 1.385 . S
C1997 C1996 1.374 . S
C1998 C1995 1.499 . S
C1998 C1999 1.373 . S
C1998 C2000 1.389 . S
C1999 H1972 0.950 . S
C1999 C1985 1.377 . S
C1999 C1998 1.373 . S
C2000 C1984 1.377 . S
C2000 C1998 1.389 . S
C2000 C2001 1.524 . S
C2001 C2000 1.524 . S
C2001 C2002 1.397 . S
C2001 C2006 1.363 . S
C2002 H1973 0.950 . S
C2002 C2001 1.397 . S
C2002 C2003 1.334 . S
C2003 H1974 0.950 . S
C2003 C2002 1.334 . S
C2003 C2004 1.287 . S
C2004 C2003 1.287 . S
C2004 C2005 1.524 . S
C2004 H2007 0.999 . S
C2005 H1975 0.950 . S
C2005 C2004 1.524 . S
C2005 C2006 1.415 . S
C2006 H1976 0.950 . S
C2006 C2001 1.363 . S
C2006 C2005 1.415 . S
H2007 C2004 0.999 . S
H2008 C1989 0.913 . S
H2009 C2027 0.951 . S
H2010 C2029 0.951 . S
H2011 C2031 0.950 1_455 S
H2012 C2032 0.950 . S
H2013 C2034 0.950 . S
H2014 C2037 0.950 . S
H2015 C2038 0.950 . S
H2016 C2040 0.950 . S
H2017 C2041 0.950 . S
H2018 C2042 0.951 . S
H2019 C2044 0.951 . S
H2020 C2046 0.950 . S
H2021 C2047 0.950 . S
H2022 C2049 0.950 . S
H2023 C2052 0.950 . S
H2024 C2053 0.950 . S
H2025 C2055 0.950 . S
H2026 C2056 0.950 . S
C2027 H2009 0.951 . S
C2027 C2028 1.366 . S
C2027 C2029 1.388 . S
C2028 C2027 1.366 . S
C2028 C2032 1.385 . S
C2029 H2010 0.951 . S
C2029 C2027 1.388 . S
C2029 C2030 1.366 1_655 S
C2030 C2029 1.366 1_455 S
C2030 C2031 1.414 1_455 S
C2030 C2033 1.499 . S
C2031 H2011 0.950 1_655 S
C2031 C2030 1.414 1_655 S
C2031 C2032 1.374 . S
C2032 H2012 0.950 . S
C2032 C2028 1.385 . S
C2032 C2031 1.374 . S
C2033 C2030 1.499 . S
C2033 C2034 1.373 . S
C2033 C2035 1.389 . S
C2034 H2013 0.950 . S
C2034 C2033 1.373 . S
C2034 C2050 1.377 . S
C2035 C2033 1.389 . S
C2035 C2036 1.524 . S
C2035 C2049 1.377 . S
C2036 C2035 1.524 . S
C2036 C2037 1.397 . S
C2036 C2041 1.363 . S
C2037 H2014 0.950 . S
C2037 C2036 1.397 . S
C2037 C2038 1.334 . S
C2038 H2015 0.950 . S
C2038 C2037 1.334 . S
C2038 C2039 1.287 . S
C2039 C2038 1.287 . S
C2039 C2040 1.524 . S
C2039 H2058 0.913 . S
C2040 H2016 0.950 . S
C2040 C2039 1.524 . S
C2040 C2041 1.415 . S
C2041 H2017 0.950 . S
C2041 C2036 1.363 . S
C2041 C2040 1.415 . S
C2042 H2018 0.951 . S
C2042 C2043 1.366 . S
C2042 C2044 1.388 . S
C2043 C2042 1.366 . S
C2043 C2047 1.385 . S
C2044 H2019 0.951 . S
C2044 C2042 1.388 . S
C2044 C2045 1.366 . S
C2045 C2044 1.366 . S
C2045 C2046 1.414 . S
C2045 C2048 1.499 . S
C2046 H2020 0.950 . S
C2046 C2045 1.414 . S
C2046 C2047 1.374 . S
C2047 H2021 0.950 . S
C2047 C2043 1.385 . S
C2047 C2046 1.374 . S
C2048 C2045 1.499 . S
C2048 C2049 1.373 . S
C2048 C2050 1.389 . S
C2049 H2022 0.950 . S
C2049 C2035 1.377 . S
C2049 C2048 1.373 . S
C2050 C2034 1.377 . S
C2050 C2048 1.389 . S
C2050 C2051 1.524 . S
C2051 C2050 1.524 . S
C2051 C2052 1.397 . S
C2051 C2056 1.363 . S
C2052 H2023 0.950 . S
C2052 C2051 1.397 . S
C2052 C2053 1.334 . S
C2053 H2024 0.950 . S
C2053 C2052 1.334 . S
C2053 C2054 1.287 . S
C2054 C2053 1.287 . S
C2054 C2055 1.524 . S
C2054 H2057 0.999 . S
C2055 H2025 0.950 . S
C2055 C2054 1.524 . S
C2055 C2056 1.415 . S
C2056 H2026 0.950 . S
C2056 C2051 1.363 . S
C2056 C2055 1.415 . S
H2057 C2054 0.999 . S
H2058 C2039 0.913 . S
H2059 C2077 0.951 . S
H2060 C2079 0.951 . S
H2061 C2081 0.950 . S
H2062 C2082 0.950 . S
H2063 C2084 0.950 . S
H2064 C2087 0.950 . S
H2065 C2088 0.950 . S
H2066 C2090 0.950 . S
H2067 C2091 0.950 . S
H2068 C2092 0.951 . S
H2069 C2094 0.951 . S
H2070 C2096 0.950 . S
H2071 C2097 0.950 . S
H2072 C2099 0.950 . S
H2073 C2102 0.950 . S
H2074 C2103 0.950 . S
H2075 C2105 0.950 . S
H2076 C2106 0.950 . S
C2077 H2059 0.951 . S
C2077 C2078 1.366 . S
C2077 C2079 1.388 . S
C2078 C2077 1.366 . S
C2078 C2082 1.385 . S
C2079 H2060 0.951 . S
C2079 C2077 1.388 . S
C2079 C2080 1.366 . S
C2080 C2079 1.366 . S
C2080 C2081 1.414 . S
C2080 C2083 1.499 . S
C2081 H2061 0.950 . S
C2081 C2080 1.414 . S
C2081 C2082 1.374 . S
C2082 H2062 0.950 . S
C2082 C2078 1.385 . S
C2082 C2081 1.374 . S
C2083 C2080 1.499 . S
C2083 C2084 1.373 . S
C2083 C2085 1.389 . S
C2084 H2063 0.950 . S
C2084 C2083 1.373 . S
C2084 C2100 1.377 . S
C2085 C2083 1.389 . S
C2085 C2086 1.524 . S
C2085 C2099 1.377 . S
C2086 C2085 1.524 . S
C2086 C2087 1.397 . S
C2086 C2091 1.363 . S
C2087 H2064 0.950 . S
C2087 C2086 1.397 . S
C2087 C2088 1.334 . S
C2088 H2065 0.950 . S
C2088 C2087 1.334 . S
C2088 C2089 1.287 . S
C2089 C2088 1.287 . S
C2089 C2090 1.524 . S
C2089 H2108 0.913 . S
C2090 H2066 0.950 . S
C2090 C2089 1.524 . S
C2090 C2091 1.415 . S
C2091 H2067 0.950 . S
C2091 C2086 1.363 . S
C2091 C2090 1.415 . S
C2092 H2068 0.951 . S
C2092 C2093 1.366 . S
C2092 C2094 1.388 . S
C2093 C2092 1.366 . S
C2093 C2097 1.385 . S
C2094 H2069 0.951 . S
C2094 C2092 1.388 . S
C2094 C2095 1.366 . S
C2095 C2094 1.366 . S
C2095 C2096 1.414 . S
C2095 C2098 1.499 . S
C2096 H2070 0.950 . S
C2096 C2095 1.414 . S
C2096 C2097 1.374 . S
C2097 H2071 0.950 . S
C2097 C2093 1.385 . S
C2097 C2096 1.374 . S
C2098 C2095 1.499 . S
C2098 C2099 1.373 . S
C2098 C2100 1.389 . S
C2099 H2072 0.950 . S
C2099 C2085 1.377 . S
C2099 C2098 1.373 . S
C2100 C2084 1.377 . S
C2100 C2098 1.389 . S
C2100 C2101 1.524 . S
C2101 C2100 1.524 . S
C2101 C2102 1.397 . S
C2101 C2106 1.363 . S
C2102 H2073 0.950 . S
C2102 C2101 1.397 . S
C2102 C2103 1.334 . S
C2103 H2074 0.950 . S
C2103 C2102 1.334 . S
C2103 C2104 1.287 . S
C2104 C2103 1.287 . S
C2104 C2105 1.524 . S
C2104 H2107 0.999 . S
C2105 H2075 0.950 . S
C2105 C2104 1.524 . S
C2105 C2106 1.415 . S
C2106 H2076 0.950 . S
C2106 C2101 1.363 . S
C2106 C2105 1.415 . S
H2107 C2104 0.999 . S
H2108 C2089 0.913 . S
H2109 C2127 0.951 . S
H2110 C2129 0.951 . S
H2111 C2131 0.950 . S
H2112 C2132 0.950 . S
H2113 C2134 0.950 . S
H2114 C2137 0.950 . S
H2115 C2138 0.950 . S
H2116 C2140 0.950 . S
H2117 C2141 0.950 . S
H2118 C2142 0.951 . S
H2119 C2144 0.951 . S
H2120 C2146 0.950 . S
H2121 C2147 0.950 . S
H2122 C2149 0.950 . S
H2123 C2152 0.950 . S
H2124 C2153 0.950 . S
H2125 C2155 0.950 . S
H2126 C2156 0.950 . S
C2127 H2109 0.951 . S
C2127 C2128 1.366 . S
C2127 C2129 1.388 . S
C2128 C2127 1.366 . S
C2128 C2132 1.385 . S
C2129 H2110 0.951 . S
C2129 C2127 1.388 . S
C2129 C2130 1.366 . S
C2130 C2129 1.366 . S
C2130 C2131 1.414 . S
C2130 C2133 1.499 . S
C2131 H2111 0.950 . S
C2131 C2130 1.414 . S
C2131 C2132 1.374 . S
C2132 H2112 0.950 . S
C2132 C2128 1.385 . S
C2132 C2131 1.374 . S
C2133 C2130 1.499 . S
C2133 C2134 1.373 . S
C2133 C2135 1.389 . S
C2134 H2113 0.950 . S
C2134 C2133 1.373 . S
C2134 C2150 1.377 . S
C2135 C2133 1.389 . S
C2135 C2136 1.524 . S
C2135 C2149 1.377 . S
C2136 C2135 1.524 . S
C2136 C2137 1.397 . S
C2136 C2141 1.363 . S
C2137 H2114 0.950 . S
C2137 C2136 1.397 . S
C2137 C2138 1.334 . S
C2138 H2115 0.950 . S
C2138 C2137 1.334 . S
C2138 C2139 1.287 . S
C2139 C2138 1.287 . S
C2139 C2140 1.524 . S
C2139 H2158 0.913 . S
C2140 H2116 0.950 . S
C2140 C2139 1.524 . S
C2140 C2141 1.415 . S
C2141 H2117 0.950 . S
C2141 C2136 1.363 . S
C2141 C2140 1.415 . S
C2142 H2118 0.951 . S
C2142 C2143 1.366 . S
C2142 C2144 1.388 . S
C2143 C2142 1.366 . S
C2143 C2147 1.385 . S
C2144 H2119 0.951 . S
C2144 C2142 1.388 . S
C2144 C2145 1.366 . S
C2145 C2144 1.366 . S
C2145 C2146 1.414 . S
C2145 C2148 1.499 . S
C2146 H2120 0.950 . S
C2146 C2145 1.414 . S
C2146 C2147 1.374 . S
C2147 H2121 0.950 . S
C2147 C2143 1.385 . S
C2147 C2146 1.374 . S
C2148 C2145 1.499 . S
C2148 C2149 1.373 . S
C2148 C2150 1.389 . S
C2149 H2122 0.950 . S
C2149 C2135 1.377 . S
C2149 C2148 1.373 . S
C2150 C2134 1.377 . S
C2150 C2148 1.389 . S
C2150 C2151 1.524 . S
C2151 C2150 1.524 . S
C2151 C2152 1.397 . S
C2151 C2156 1.363 . S
C2152 H2123 0.950 . S
C2152 C2151 1.397 . S
C2152 C2153 1.334 . S
C2153 H2124 0.950 . S
C2153 C2152 1.334 . S
C2153 C2154 1.287 . S
C2154 C2153 1.287 . S
C2154 C2155 1.524 . S
C2154 H2157 0.999 . S
C2155 H2125 0.950 . S
C2155 C2154 1.524 . S
C2155 C2156 1.415 . S
C2156 H2126 0.950 . S
C2156 C2151 1.363 . S
C2156 C2155 1.415 . S
H2157 C2154 0.999 . S
H2158 C2139 0.913 . S
H2159 C2177 0.951 . S
H2160 C2179 0.951 . S
H2161 C2181 0.950 . S
H2162 C2182 0.950 . S
H2163 C2184 0.950 . S
H2164 C2187 0.950 . S
H2165 C2188 0.950 . S
H2166 C2190 0.950 . S
H2167 C2191 0.950 . S
H2168 C2192 0.951 . S
H2169 C2194 0.951 . S
H2170 C2196 0.950 . S
H2171 C2197 0.950 . S
H2172 C2199 0.950 . S
H2173 C2202 0.950 . S
H2174 C2203 0.950 . S
H2175 C2205 0.950 . S
H2176 C2206 0.950 . S
C2177 H2159 0.951 . S
C2177 C2178 1.366 . S
C2177 C2179 1.388 . S
C2178 C2177 1.366 . S
C2178 C2182 1.385 . S
C2179 H2160 0.951 . S
C2179 C2177 1.388 . S
C2179 C2180 1.366 . S
C2180 C2179 1.366 . S
C2180 C2181 1.414 . S
C2180 C2183 1.499 . S
C2181 H2161 0.950 . S
C2181 C2180 1.414 . S
C2181 C2182 1.374 . S
C2182 H2162 0.950 . S
C2182 C2178 1.385 . S
C2182 C2181 1.374 . S
C2183 C2180 1.499 . S
C2183 C2184 1.373 . S
C2183 C2185 1.389 . S
C2184 H2163 0.950 . S
C2184 C2183 1.373 . S
C2184 C2200 1.377 . S
C2185 C2183 1.389 . S
C2185 C2186 1.524 . S
C2185 C2199 1.377 . S
C2186 C2185 1.524 . S
C2186 C2187 1.397 . S
C2186 C2191 1.363 . S
C2187 H2164 0.950 . S
C2187 C2186 1.397 . S
C2187 C2188 1.334 . S
C2188 H2165 0.950 . S
C2188 C2187 1.334 . S
C2188 C2189 1.287 . S
C2189 C2188 1.287 . S
C2189 C2190 1.524 . S
C2189 H2208 0.913 . S
C2190 H2166 0.950 . S
C2190 C2189 1.524 . S
C2190 C2191 1.415 . S
C2191 H2167 0.950 . S
C2191 C2186 1.363 . S
C2191 C2190 1.415 . S
C2192 H2168 0.951 . S
C2192 C2193 1.366 . S
C2192 C2194 1.388 . S
C2193 C2192 1.366 . S
C2193 C2197 1.385 . S
C2194 H2169 0.951 . S
C2194 C2192 1.388 . S
C2194 C2195 1.366 . S
C2195 C2194 1.366 . S
C2195 C2196 1.414 . S
C2195 C2198 1.499 . S
C2196 H2170 0.950 . S
C2196 C2195 1.414 . S
C2196 C2197 1.374 . S
C2197 H2171 0.950 . S
C2197 C2193 1.385 . S
C2197 C2196 1.374 . S
C2198 C2195 1.499 . S
C2198 C2199 1.373 . S
C2198 C2200 1.389 . S
C2199 H2172 0.950 . S
C2199 C2185 1.377 . S
C2199 C2198 1.373 . S
C2200 C2184 1.377 . S
C2200 C2198 1.389 . S
C2200 C2201 1.524 . S
C2201 C2200 1.524 . S
C2201 C2202 1.397 . S
C2201 C2206 1.363 . S
C2202 H2173 0.950 . S
C2202 C2201 1.397 . S
C2202 C2203 1.334 . S
C2203 H2174 0.950 . S
C2203 C2202 1.334 . S
C2203 C2204 1.287 . S
C2204 C2203 1.287 . S
C2204 C2205 1.524 . S
C2204 H2207 0.999 . S
C2205 H2175 0.950 . S
C2205 C2204 1.524 . S
C2205 C2206 1.415 . S
C2206 H2176 0.950 . S
C2206 C2201 1.363 . S
C2206 C2205 1.415 . S
H2207 C2204 0.999 . S
H2208 C2189 0.913 . S
H2209 C2227 0.951 . S
H2210 C2229 0.951 . S
H2211 C2231 0.950 . S
H2212 C2232 0.950 . S
H2213 C2234 0.950 . S
H2214 C2237 0.950 . S
H2215 C2238 0.950 . S
H2216 C2240 0.950 . S
H2217 C2241 0.950 . S
H2218 C2242 0.951 . S
H2219 C2244 0.951 . S
H2220 C2246 0.950 . S
H2221 C2247 0.950 . S
H2222 C2249 0.950 . S
H2223 C2252 0.950 . S
H2224 C2253 0.950 . S
H2225 C2255 0.950 . S
H2226 C2256 0.950 . S
C2227 H2209 0.951 . S
C2227 C2228 1.366 . S
C2227 C2229 1.388 . S
C2228 C2227 1.366 . S
C2228 C2232 1.385 . S
C2229 H2210 0.951 . S
C2229 C2227 1.388 . S
C2229 C2230 1.366 . S
C2230 C2229 1.366 . S
C2230 C2231 1.414 . S
C2230 C2233 1.499 . S
C2231 H2211 0.950 . S
C2231 C2230 1.414 . S
C2231 C2232 1.374 . S
C2232 H2212 0.950 . S
C2232 C2228 1.385 . S
C2232 C2231 1.374 . S
C2233 C2230 1.499 . S
C2233 C2234 1.373 . S
C2233 C2235 1.389 . S
C2234 H2213 0.950 . S
C2234 C2233 1.373 . S
C2234 C2250 1.377 . S
C2235 C2233 1.389 . S
C2235 C2236 1.524 . S
C2235 C2249 1.377 . S
C2236 C2235 1.524 . S
C2236 C2237 1.397 . S
C2236 C2241 1.363 . S
C2237 H2214 0.950 . S
C2237 C2236 1.397 . S
C2237 C2238 1.334 . S
C2238 H2215 0.950 . S
C2238 C2237 1.334 . S
C2238 C2239 1.287 . S
C2239 C2238 1.287 . S
C2239 C2240 1.524 . S
C2239 H2258 0.913 . S
C2240 H2216 0.950 . S
C2240 C2239 1.524 . S
C2240 C2241 1.415 . S
C2241 H2217 0.950 . S
C2241 C2236 1.363 . S
C2241 C2240 1.415 . S
C2242 H2218 0.951 . S
C2242 C2243 1.366 . S
C2242 C2244 1.388 . S
C2243 C2242 1.366 . S
C2243 C2247 1.385 . S
C2244 H2219 0.951 . S
C2244 C2242 1.388 . S
C2244 C2245 1.366 . S
C2245 C2244 1.366 . S
C2245 C2246 1.414 . S
C2245 C2248 1.499 . S
C2246 H2220 0.950 . S
C2246 C2245 1.414 . S
C2246 C2247 1.374 . S
C2247 H2221 0.950 . S
C2247 C2243 1.385 . S
C2247 C2246 1.374 . S
C2248 C2245 1.499 . S
C2248 C2249 1.373 . S
C2248 C2250 1.389 . S
C2249 H2222 0.950 . S
C2249 C2235 1.377 . S
C2249 C2248 1.373 . S
C2250 C2234 1.377 . S
C2250 C2248 1.389 . S
C2250 C2251 1.524 . S
C2251 C2250 1.524 . S
C2251 C2252 1.397 . S
C2251 C2256 1.363 . S
C2252 H2223 0.950 . S
C2252 C2251 1.397 . S
C2252 C2253 1.334 . S
C2253 H2224 0.950 . S
C2253 C2252 1.334 . S
C2253 C2254 1.287 . S
C2254 C2253 1.287 . S
C2254 C2255 1.524 . S
C2254 H2257 0.999 . S
C2255 H2225 0.950 . S
C2255 C2254 1.524 . S
C2255 C2256 1.415 . S
C2256 H2226 0.950 . S
C2256 C2251 1.363 . S
C2256 C2255 1.415 . S
H2257 C2254 0.999 . S
H2258 C2239 0.913 . S
H2259 C2277 0.951 . S
H2260 C2279 0.951 1_545 S
H2261 C2281 0.950 . S
H2262 C2282 0.950 . S
H2263 C2284 0.950 . S
H2264 C2287 0.950 . S
H2265 C2288 0.950 1_565 S
H2266 C2290 0.950 . S
H2267 C2291 0.950 . S
H2268 C2292 0.951 . S
H2269 C2294 0.951 . S
H2270 C2296 0.950 . S
H2271 C2297 0.950 . S
H2272 C2299 0.950 . S
H2273 C2302 0.950 . S
H2274 C2303 0.950 . S
H2275 C2305 0.950 . S
H2276 C2306 0.950 . S
C2277 H2259 0.951 . S
C2277 C2278 1.366 . S
C2277 C2279 1.388 . S
C2278 C2277 1.366 . S
C2278 C2282 1.385 . S
C2279 H2260 0.951 1_565 S
C2279 C2277 1.388 . S
C2279 C2280 1.366 1_565 S
C2280 C2279 1.366 1_545 S
C2280 C2281 1.414 1_545 S
C2280 C2283 1.499 . S
C2281 H2261 0.950 . S
C2281 C2280 1.414 1_565 S
C2281 C2282 1.374 . S
C2282 H2262 0.950 . S
C2282 C2278 1.385 . S
C2282 C2281 1.374 . S
C2283 C2280 1.499 . S
C2283 C2284 1.373 . S
C2283 C2285 1.389 . S
C2284 H2263 0.950 . S
C2284 C2283 1.373 . S
C2284 C2300 1.377 . S
C2285 C2283 1.389 . S
C2285 C2286 1.524 . S
C2285 C2299 1.377 . S
C2286 C2285 1.524 . S
C2286 C2287 1.397 . S
C2286 C2291 1.363 . S
C2287 H2264 0.950 . S
C2287 C2286 1.397 . S
C2287 C2288 1.334 . S
C2288 H2265 0.950 1_545 S
C2288 C2287 1.334 . S
C2288 C2289 1.287 . S
C2289 C2288 1.287 . S
C2289 C2290 1.524 . S
C2289 H2308 0.913 . S
C2290 H2266 0.950 . S
C2290 C2289 1.524 . S
C2290 C2291 1.415 . S
C2291 H2267 0.950 . S
C2291 C2286 1.363 . S
C2291 C2290 1.415 . S
C2292 H2268 0.951 . S
C2292 C2293 1.366 . S
C2292 C2294 1.388 . S
C2293 C2292 1.366 . S
C2293 C2297 1.385 . S
C2294 H2269 0.951 . S
C2294 C2292 1.388 . S
C2294 C2295 1.366 . S
C2295 C2294 1.366 . S
C2295 C2296 1.414 . S
C2295 C2298 1.499 . S
C2296 H2270 0.950 . S
C2296 C2295 1.414 . S
C2296 C2297 1.374 . S
C2297 H2271 0.950 . S
C2297 C2293 1.385 . S
C2297 C2296 1.374 . S
C2298 C2295 1.499 . S
C2298 C2299 1.373 . S
C2298 C2300 1.389 . S
C2299 H2272 0.950 . S
C2299 C2285 1.377 . S
C2299 C2298 1.373 . S
C2300 C2284 1.377 . S
C2300 C2298 1.389 . S
C2300 C2301 1.524 . S
C2301 C2300 1.524 . S
C2301 C2302 1.397 . S
C2301 C2306 1.363 . S
C2302 H2273 0.950 . S
C2302 C2301 1.397 . S
C2302 C2303 1.334 . S
C2303 H2274 0.950 . S
C2303 C2302 1.334 . S
C2303 C2304 1.287 . S
C2304 C2303 1.287 . S
C2304 C2305 1.524 . S
C2304 H2307 0.999 . S
C2305 H2275 0.950 . S
C2305 C2304 1.524 . S
C2305 C2306 1.415 . S
C2306 H2276 0.950 . S
C2306 C2301 1.363 . S
C2306 C2305 1.415 . S
H2307 C2304 0.999 . S
H2308 C2289 0.913 . S
H2309 C2327 0.951 . S
H2310 C2329 0.951 . S
H2311 C2331 0.947 1_655 S
H2312 C2332 0.950 . S
H2313 C2334 0.950 . S
H2314 C2337 0.950 . S
H2315 C2338 0.950 . S
H2316 C2340 0.950 . S
H2317 C2341 0.950 . S
H2318 C2342 0.951 . S
H2319 C2344 0.951 . S
H2320 C2346 0.950 . S
H2321 C2347 0.950 . S
H2322 C2349 0.950 . S
H2323 C2352 0.950 . S
H2324 C2353 0.950 . S
H2325 C2355 0.950 . S
H2326 C2356 0.950 . S
C2327 H2309 0.951 . S
C2327 C2328 1.366 . S
C2327 C2329 1.388 . S
C2328 C2327 1.366 . S
C2328 C2332 1.385 . S
C2329 H2310 0.951 . S
C2329 C2327 1.388 . S
C2329 C2330 1.366 1_455 S
C2330 C2329 1.366 1_655 S
C2330 C2331 1.414 1_655 S
C2330 C2333 1.499 . S
C2331 H2311 0.947 1_455 S
C2331 C2330 1.414 1_455 S
C2331 C2332 1.374 . S
C2332 H2312 0.950 . S
C2332 C2328 1.385 . S
C2332 C2331 1.374 . S
C2333 C2330 1.499 . S
C2333 C2334 1.373 . S
C2333 C2335 1.389 . S
C2334 H2313 0.950 . S
C2334 C2333 1.373 . S
C2334 C2350 1.377 . S
C2335 C2333 1.389 . S
C2335 C2336 1.524 . S
C2335 C2349 1.377 . S
C2336 C2335 1.524 . S
C2336 C2337 1.397 . S
C2336 C2341 1.363 . S
C2337 H2314 0.950 . S
C2337 C2336 1.397 . S
C2337 C2338 1.334 1_655 S
C2338 H2315 0.950 . S
C2338 C2337 1.334 1_455 S
C2338 C2339 1.287 . S
C2339 C2338 1.287 . S
C2339 C2340 1.524 1_455 S
C2339 H2358 0.913 . S
C2340 H2316 0.950 . S
C2340 C2339 1.524 1_655 S
C2340 C2341 1.415 . S
C2341 H2317 0.950 . S
C2341 C2336 1.363 . S
C2341 C2340 1.415 . S
C2342 H2318 0.951 . S
C2342 C2343 1.366 . S
C2342 C2344 1.388 . S
C2343 C2342 1.366 . S
C2343 C2347 1.385 . S
C2344 H2319 0.951 . S
C2344 C2342 1.388 . S
C2344 C2345 1.366 . S
C2345 C2344 1.366 . S
C2345 C2346 1.414 . S
C2345 C2348 1.499 . S
C2346 H2320 0.950 . S
C2346 C2345 1.414 . S
C2346 C2347 1.374 . S
C2347 H2321 0.950 . S
C2347 C2343 1.385 . S
C2347 C2346 1.374 . S
C2348 C2345 1.499 . S
C2348 C2349 1.373 . S
C2348 C2350 1.389 . S
C2349 H2322 0.950 . S
C2349 C2335 1.377 . S
C2349 C2348 1.373 . S
C2350 C2334 1.377 . S
C2350 C2348 1.389 . S
C2350 C2351 1.524 . S
C2351 C2350 1.524 . S
C2351 C2352 1.397 . S
C2351 C2356 1.363 . S
C2352 H2323 0.950 . S
C2352 C2351 1.397 . S
C2352 C2353 1.334 . S
C2353 H2324 0.950 . S
C2353 C2352 1.334 . S
C2353 C2354 1.287 . S
C2354 C2353 1.287 . S
C2354 C2355 1.524 . S
C2354 H2357 0.999 . S
C2355 H2325 0.950 . S
C2355 C2354 1.524 . S
C2355 C2356 1.415 . S
C2356 H2326 0.950 . S
C2356 C2351 1.363 . S
C2356 C2355 1.415 . S
H2357 C2354 0.999 . S
H2358 C2339 0.913 . S
H2359 C2377 0.951 . S
H2360 C2379 0.951 . S
H2361 C2381 0.950 . S
H2362 C2382 0.950 . S
H2363 C2384 0.950 . S
H2364 C2387 0.950 . S
H2365 C2388 0.950 . S
H2366 C2390 0.950 . S
H2367 C2391 0.950 . S
H2368 C2392 0.951 . S
H2369 C2394 0.951 . S
H2370 C2396 0.950 . S
H2371 C2397 0.950 . S
H2372 C2399 0.950 . S
H2373 C2402 0.950 . S
H2374 C2403 0.950 . S
H2375 C2405 0.950 . S
H2376 C2406 0.950 . S
C2377 H2359 0.951 . S
C2377 C2378 1.366 . S
C2377 C2379 1.388 . S
C2378 C2377 1.366 . S
C2378 C2382 1.385 . S
C2379 H2360 0.951 . S
C2379 C2377 1.388 . S
C2379 C2380 1.366 . S
C2380 C2379 1.366 . S
C2380 C2381 1.414 . S
C2380 C2383 1.499 . S
C2381 H2361 0.950 . S
C2381 C2380 1.414 . S
C2381 C2382 1.374 . S
C2382 H2362 0.950 . S
C2382 C2378 1.385 . S
C2382 C2381 1.374 . S
C2383 C2380 1.499 . S
C2383 C2384 1.373 . S
C2383 C2385 1.389 . S
C2384 H2363 0.950 . S
C2384 C2383 1.373 . S
C2384 C2400 1.377 . S
C2385 C2383 1.389 . S
C2385 C2386 1.524 . S
C2385 C2399 1.377 . S
C2386 C2385 1.524 . S
C2386 C2387 1.397 . S
C2386 C2391 1.363 . S
C2387 H2364 0.950 . S
C2387 C2386 1.397 . S
C2387 C2388 1.334 . S
C2388 H2365 0.950 . S
C2388 C2387 1.334 . S
C2388 C2389 1.287 . S
C2389 C2388 1.287 . S
C2389 C2390 1.524 . S
C2389 H2408 0.913 . S
C2390 H2366 0.950 . S
C2390 C2389 1.524 . S
C2390 C2391 1.415 . S
C2391 H2367 0.950 . S
C2391 C2386 1.363 . S
C2391 C2390 1.415 . S
C2392 H2368 0.951 . S
C2392 C2393 1.366 . S
C2392 C2394 1.388 . S
C2393 C2392 1.366 . S
C2393 C2397 1.385 . S
C2394 H2369 0.951 . S
C2394 C2392 1.388 . S
C2394 C2395 1.366 . S
C2395 C2394 1.366 . S
C2395 C2396 1.414 . S
C2395 C2398 1.499 . S
C2396 H2370 0.950 . S
C2396 C2395 1.414 . S
C2396 C2397 1.374 . S
C2397 H2371 0.950 . S
C2397 C2393 1.385 . S
C2397 C2396 1.374 . S
C2398 C2395 1.499 . S
C2398 C2399 1.373 . S
C2398 C2400 1.389 . S
C2399 H2372 0.950 . S
C2399 C2385 1.377 . S
C2399 C2398 1.373 . S
C2400 C2384 1.377 . S
C2400 C2398 1.389 . S
C2400 C2401 1.524 . S
C2401 C2400 1.524 . S
C2401 C2402 1.397 . S
C2401 C2406 1.363 . S
C2402 H2373 0.950 . S
C2402 C2401 1.397 . S
C2402 C2403 1.334 . S
C2403 H2374 0.950 . S
C2403 C2402 1.334 . S
C2403 C2404 1.287 . S
C2404 C2403 1.287 . S
C2404 C2405 1.524 . S
C2404 H2407 0.999 . S
C2405 H2375 0.950 . S
C2405 C2404 1.524 . S
C2405 C2406 1.415 . S
C2406 H2376 0.950 . S
C2406 C2401 1.363 . S
C2406 C2405 1.415 . S
H2407 C2404 0.999 . S
H2408 C2389 0.913 . S
H2409 C2427 0.951 . S
H2410 C2429 0.951 . S
H2411 C2431 0.950 . S
H2412 C2432 0.950 . S
H2413 C2434 0.950 . S
H2414 C2437 0.950 1_455 S
H2415 C2438 0.950 . S
H2416 C2440 0.950 . S
H2417 C2441 0.950 . S
H2418 C2442 0.951 . S
H2419 C2444 0.951 . S
H2420 C2446 0.950 . S
H2421 C2447 0.950 . S
H2422 C2449 0.950 . S
H2423 C2452 0.950 . S
H2424 C2453 0.950 . S
H2425 C2455 0.950 . S
H2426 C2456 0.950 . S
C2427 H2409 0.951 . S
C2427 C2428 1.366 . S
C2427 C2429 1.388 . S
C2428 C2427 1.366 . S
C2428 C2432 1.385 . S
C2429 H2410 0.951 . S
C2429 C2427 1.388 . S
C2429 C2430 1.366 . S
C2430 C2429 1.366 . S
C2430 C2431 1.414 . S
C2430 C2433 1.499 1_455 S
C2431 H2411 0.950 . S
C2431 C2430 1.414 . S
C2431 C2432 1.374 . S
C2432 H2412 0.950 . S
C2432 C2428 1.385 . S
C2432 C2431 1.374 . S
C2433 C2430 1.499 1_655 S
C2433 C2434 1.373 . S
C2433 C2435 1.389 . S
C2434 H2413 0.950 . S
C2434 C2433 1.373 . S
C2434 C2450 1.377 . S
C2435 C2433 1.389 . S
C2435 C2436 1.524 . S
C2435 C2449 1.377 . S
C2436 C2435 1.524 . S
C2436 C2437 1.397 . S
C2436 C2441 1.363 . S
C2437 H2414 0.950 1_655 S
C2437 C2436 1.397 . S
C2437 C2438 1.334 1_655 S
C2438 H2415 0.950 . S
C2438 C2437 1.334 1_455 S
C2438 C2439 1.287 . S
C2439 C2438 1.287 . S
C2439 C2440 1.524 1_455 S
C2439 H2458 0.913 . S
C2440 H2416 0.950 . S
C2440 C2439 1.524 1_655 S
C2440 C2441 1.415 . S
C2441 H2417 0.950 . S
C2441 C2436 1.363 . S
C2441 C2440 1.415 . S
C2442 H2418 0.951 . S
C2442 C2443 1.366 . S
C2442 C2444 1.388 . S
C2443 C2442 1.366 . S
C2443 C2447 1.385 . S
C2444 H2419 0.951 . S
C2444 C2442 1.388 . S
C2444 C2445 1.366 . S
C2445 C2444 1.366 . S
C2445 C2446 1.414 . S
C2445 C2448 1.499 . S
C2446 H2420 0.950 . S
C2446 C2445 1.414 . S
C2446 C2447 1.374 . S
C2447 H2421 0.950 . S
C2447 C2443 1.385 . S
C2447 C2446 1.374 . S
C2448 C2445 1.499 . S
C2448 C2449 1.373 . S
C2448 C2450 1.389 . S
C2449 H2422 0.950 . S
C2449 C2435 1.377 . S
C2449 C2448 1.373 . S
C2450 C2434 1.377 . S
C2450 C2448 1.389 . S
C2450 C2451 1.524 . S
C2451 C2450 1.524 . S
C2451 C2452 1.397 . S
C2451 C2456 1.363 . S
C2452 H2423 0.950 . S
C2452 C2451 1.397 . S
C2452 C2453 1.334 . S
C2453 H2424 0.950 . S
C2453 C2452 1.334 . S
C2453 C2454 1.287 . S
C2454 C2453 1.287 . S
C2454 C2455 1.524 . S
C2454 H2457 0.999 . S
C2455 H2425 0.950 . S
C2455 C2454 1.524 . S
C2455 C2456 1.415 . S
C2456 H2426 0.950 . S
C2456 C2451 1.363 . S
C2456 C2455 1.415 . S
H2457 C2454 0.999 . S
H2458 C2439 0.913 . S
H2459 C2477 0.951 . S
H2460 C2479 0.951 . S
H2461 C2481 0.950 . S
H2462 C2482 0.950 . S
H2463 C2484 0.950 . S
H2464 C2487 0.950 . S
H2465 C2488 0.950 . S
H2466 C2490 0.950 . S
H2467 C2491 0.950 . S
H2468 C2492 0.951 . S
H2469 C2494 0.951 . S
H2470 C2496 0.950 . S
H2471 C2497 0.950 . S
H2472 C2499 0.950 . S
H2473 C2502 0.950 . S
H2474 C2503 0.950 . S
H2475 C2505 0.950 . S
H2476 C2506 0.950 . S
C2477 H2459 0.951 . S
C2477 C2478 1.366 . S
C2477 C2479 1.388 . S
C2478 C2477 1.366 . S
C2478 C2482 1.385 . S
C2479 H2460 0.951 . S
C2479 C2477 1.388 . S
C2479 C2480 1.366 . S
C2480 C2479 1.366 . S
C2480 C2481 1.414 . S
C2480 C2483 1.499 . S
C2481 H2461 0.950 . S
C2481 C2480 1.414 . S
C2481 C2482 1.374 . S
C2482 H2462 0.950 . S
C2482 C2478 1.385 . S
C2482 C2481 1.374 . S
C2483 C2480 1.499 . S
C2483 C2484 1.373 . S
C2483 C2485 1.389 . S
C2484 H2463 0.950 . S
C2484 C2483 1.373 . S
C2484 C2500 1.377 . S
C2485 C2483 1.389 . S
C2485 C2486 1.524 . S
C2485 C2499 1.377 . S
C2486 C2485 1.524 . S
C2486 C2487 1.397 . S
C2486 C2491 1.363 . S
C2487 H2464 0.950 . S
C2487 C2486 1.397 . S
C2487 C2488 1.334 . S
C2488 H2465 0.950 . S
C2488 C2487 1.334 . S
C2488 C2489 1.287 . S
C2489 C2488 1.287 . S
C2489 C2490 1.524 . S
C2489 H2508 0.913 . S
C2490 H2466 0.950 . S
C2490 C2489 1.524 . S
C2490 C2491 1.415 . S
C2491 H2467 0.950 . S
C2491 C2486 1.363 . S
C2491 C2490 1.415 . S
C2492 H2468 0.951 . S
C2492 C2493 1.366 . S
C2492 C2494 1.388 . S
C2493 C2492 1.366 . S
C2493 C2497 1.385 . S
C2494 H2469 0.951 . S
C2494 C2492 1.388 . S
C2494 C2495 1.366 . S
C2495 C2494 1.366 . S
C2495 C2496 1.414 . S
C2495 C2498 1.499 . S
C2496 H2470 0.950 . S
C2496 C2495 1.414 . S
C2496 C2497 1.374 . S
C2497 H2471 0.950 . S
C2497 C2493 1.385 . S
C2497 C2496 1.374 . S
C2498 C2495 1.499 . S
C2498 C2499 1.373 . S
C2498 C2500 1.389 . S
C2499 H2472 0.950 . S
C2499 C2485 1.377 . S
C2499 C2498 1.373 . S
C2500 C2484 1.377 . S
C2500 C2498 1.389 . S
C2500 C2501 1.524 . S
C2501 C2500 1.524 . S
C2501 C2502 1.397 . S
C2501 C2506 1.363 . S
C2502 H2473 0.950 . S
C2502 C2501 1.397 . S
C2502 C2503 1.334 . S
C2503 H2474 0.950 . S
C2503 C2502 1.334 . S
C2503 C2504 1.287 . S
C2504 C2503 1.287 . S
C2504 C2505 1.524 . S
C2504 H2507 0.999 . S
C2505 H2475 0.950 . S
C2505 C2504 1.524 . S
C2505 C2506 1.415 . S
C2506 H2476 0.950 . S
C2506 C2501 1.363 . S
C2506 C2505 1.415 . S
H2507 C2504 0.999 . S
H2508 C2489 0.913 . S
H2509 C2527 0.951 . S
H2510 C2529 0.951 1_545 S
H2511 C2531 0.950 1_545 S
H2512 C2532 0.950 . S
H2513 C2534 0.950 . S
H2514 C2537 0.950 . S
H2515 C2538 0.968 . S
H2516 C2540 0.950 . S
H2517 C2541 0.950 . S
H2518 C2542 0.951 . S
H2519 C2544 0.951 . S
H2520 C2546 0.950 . S
H2521 C2547 0.950 . S
H2522 C2549 0.950 . S
H2523 C2552 0.950 . S
H2524 C2553 0.950 . S
H2525 C2555 0.950 . S
H2526 C2556 0.950 . S
C2527 H2509 0.951 . S
C2527 C2528 1.366 . S
C2527 C2529 1.388 . S
C2528 C2527 1.366 . S
C2528 C2532 1.385 . S
C2529 H2510 0.951 1_565 S
C2529 C2527 1.388 . S
C2529 C2530 1.366 1_565 S
C2530 C2529 1.366 1_545 S
C2530 C2531 1.414 1_545 S
C2530 C2533 1.499 . S
C2531 H2511 0.950 1_565 S
C2531 C2530 1.414 1_565 S
C2531 C2532 1.374 . S
C2532 H2512 0.950 . S
C2532 C2528 1.385 . S
C2532 C2531 1.374 . S
C2533 C2530 1.499 . S
C2533 C2534 1.373 . S
C2533 C2535 1.389 . S
C2534 H2513 0.950 . S
C2534 C2533 1.373 . S
C2534 C2550 1.377 . S
C2535 C2533 1.389 . S
C2535 C2536 1.524 . S
C2535 C2549 1.377 . S
C2536 C2535 1.524 . S
C2536 C2537 1.397 . S
C2536 C2541 1.363 . S
C2537 H2514 0.950 . S
C2537 C2536 1.397 . S
C2537 C2538 1.312 1_545 S
C2538 H2515 0.968 . S
C2538 C2537 1.312 1_565 S
C2538 C2539 1.294 1_565 S
C2539 C2538 1.294 1_545 S
C2539 C2540 1.524 . S
C2539 H2558 0.913 1_545 S
C2540 H2516 0.950 . S
C2540 C2539 1.524 . S
C2540 C2541 1.415 . S
C2541 H2517 0.950 . S
C2541 C2536 1.363 . S
C2541 C2540 1.415 . S
C2542 H2518 0.951 . S
C2542 C2543 1.366 . S
C2542 C2544 1.388 . S
C2543 C2542 1.366 . S
C2543 C2547 1.385 . S
C2544 H2519 0.951 . S
C2544 C2542 1.388 . S
C2544 C2545 1.366 . S
C2545 C2544 1.366 . S
C2545 C2546 1.414 . S
C2545 C2548 1.499 . S
C2546 H2520 0.950 . S
C2546 C2545 1.414 . S
C2546 C2547 1.374 . S
C2547 H2521 0.950 . S
C2547 C2543 1.385 . S
C2547 C2546 1.374 . S
C2548 C2545 1.499 . S
C2548 C2549 1.373 . S
C2548 C2550 1.389 . S
C2549 H2522 0.950 . S
C2549 C2535 1.377 . S
C2549 C2548 1.373 . S
C2550 C2534 1.377 . S
C2550 C2548 1.389 . S
C2550 C2551 1.524 . S
C2551 C2550 1.524 . S
C2551 C2552 1.397 . S
C2551 C2556 1.363 . S
C2552 H2523 0.950 . S
C2552 C2551 1.397 . S
C2552 C2553 1.334 . S
C2553 H2524 0.950 . S
C2553 C2552 1.334 . S
C2553 C2554 1.287 . S
C2554 C2553 1.287 . S
C2554 C2555 1.524 . S
C2554 H2557 0.999 . S
C2555 H2525 0.950 . S
C2555 C2554 1.524 . S
C2555 C2556 1.415 . S
C2556 H2526 0.950 . S
C2556 C2551 1.363 . S
C2556 C2555 1.415 . S
H2557 C2554 0.999 . S
H2558 C2539 0.913 1_565 S
H2559 C2577 0.951 . S
H2560 C2579 0.951 . S
H2561 C2581 0.950 . S
H2562 C2582 0.950 . S
H2563 C2584 0.950 . S
H2564 C2587 0.950 . S
H2565 C2588 0.950 . S
H2566 C2590 0.950 . S
H2567 C2591 0.950 . S
H2568 C2592 0.951 . S
H2569 C2594 0.951 . S
H2570 C2596 0.950 . S
H2571 C2597 0.950 . S
H2572 C2599 0.950 . S
H2573 C2602 0.950 . S
H2574 C2603 0.950 . S
H2575 C2605 0.950 . S
H2576 C2606 0.950 . S
C2577 H2559 0.951 . S
C2577 C2578 1.366 . S
C2577 C2579 1.388 . S
C2578 C2577 1.366 . S
C2578 C2582 1.385 . S
C2579 H2560 0.951 . S
C2579 C2577 1.388 . S
C2579 C2580 1.366 . S
C2580 C2579 1.366 . S
C2580 C2581 1.414 . S
C2580 C2583 1.499 . S
C2581 H2561 0.950 . S
C2581 C2580 1.414 . S
C2581 C2582 1.374 . S
C2582 H2562 0.950 . S
C2582 C2578 1.385 . S
C2582 C2581 1.374 . S
C2583 C2580 1.499 . S
C2583 C2584 1.373 . S
C2583 C2585 1.389 . S
C2584 H2563 0.950 . S
C2584 C2583 1.373 . S
C2584 C2600 1.377 . S
C2585 C2583 1.389 . S
C2585 C2586 1.524 . S
C2585 C2599 1.377 . S
C2586 C2585 1.524 . S
C2586 C2587 1.397 . S
C2586 C2591 1.363 . S
C2587 H2564 0.950 . S
C2587 C2586 1.397 . S
C2587 C2588 1.334 . S
C2588 H2565 0.950 . S
C2588 C2587 1.334 . S
C2588 C2589 1.287 . S
C2589 C2588 1.287 . S
C2589 C2590 1.524 . S
C2589 H2608 0.913 . S
C2590 H2566 0.950 . S
C2590 C2589 1.524 . S
C2590 C2591 1.415 . S
C2591 H2567 0.950 . S
C2591 C2586 1.363 . S
C2591 C2590 1.415 . S
C2592 H2568 0.951 . S
C2592 C2593 1.366 . S
C2592 C2594 1.388 . S
C2593 C2592 1.366 . S
C2593 C2597 1.385 . S
C2594 H2569 0.951 . S
C2594 C2592 1.388 . S
C2594 C2595 1.366 . S
C2595 C2594 1.366 . S
C2595 C2596 1.414 . S
C2595 C2598 1.499 . S
C2596 H2570 0.950 . S
C2596 C2595 1.414 . S
C2596 C2597 1.374 . S
C2597 H2571 0.950 . S
C2597 C2593 1.385 . S
C2597 C2596 1.374 . S
C2598 C2595 1.499 . S
C2598 C2599 1.373 . S
C2598 C2600 1.389 . S
C2599 H2572 0.950 . S
C2599 C2585 1.377 . S
C2599 C2598 1.373 . S
C2600 C2584 1.377 . S
C2600 C2598 1.389 . S
C2600 C2601 1.524 . S
C2601 C2600 1.524 . S
C2601 C2602 1.397 . S
C2601 C2606 1.363 . S
C2602 H2573 0.950 . S
C2602 C2601 1.397 . S
C2602 C2603 1.334 . S
C2603 H2574 0.950 . S
C2603 C2602 1.334 . S
C2603 C2604 1.287 . S
C2604 C2603 1.287 . S
C2604 C2605 1.524 . S
C2604 H2607 0.999 . S
C2605 H2575 0.950 . S
C2605 C2604 1.524 . S
C2605 C2606 1.415 . S
C2606 H2576 0.950 . S
C2606 C2601 1.363 . S
C2606 C2605 1.415 . S
H2607 C2604 0.999 . S
H2608 C2589 0.913 . S
H2609 C2627 0.951 . S
H2610 C2629 0.951 . S
H2611 C2631 0.950 . S
H2612 C2632 0.950 . S
H2613 C2634 0.950 . S
H2614 C2637 0.950 . S
H2615 C2638 0.950 . S
H2616 C2640 0.950 . S
H2617 C2641 0.950 . S
H2618 C2642 0.951 . S
H2619 C2644 0.951 . S
H2620 C2646 0.950 . S
H2621 C2647 0.950 . S
H2622 C2649 0.950 . S
H2623 C2652 0.950 . S
H2624 C2653 0.950 . S
H2625 C2655 0.950 . S
H2626 C2656 0.950 . S
C2627 H2609 0.951 . S
C2627 C2628 1.366 . S
C2627 C2629 1.388 . S
C2628 C2627 1.366 . S
C2628 C2632 1.385 . S
C2629 H2610 0.951 . S
C2629 C2627 1.388 . S
C2629 C2630 1.366 . S
C2630 C2629 1.366 . S
C2630 C2631 1.414 . S
C2630 C2633 1.499 . S
C2631 H2611 0.950 . S
C2631 C2630 1.414 . S
C2631 C2632 1.374 . S
C2632 H2612 0.950 . S
C2632 C2628 1.385 . S
C2632 C2631 1.374 . S
C2633 C2630 1.499 . S
C2633 C2634 1.373 . S
C2633 C2635 1.389 . S
C2634 H2613 0.950 . S
C2634 C2633 1.373 . S
C2634 C2650 1.377 . S
C2635 C2633 1.389 . S
C2635 C2636 1.524 . S
C2635 C2649 1.377 . S
C2636 C2635 1.524 . S
C2636 C2637 1.397 . S
C2636 C2641 1.363 . S
C2637 H2614 0.950 . S
C2637 C2636 1.397 . S
C2637 C2638 1.334 . S
C2638 H2615 0.950 . S
C2638 C2637 1.334 . S
C2638 C2639 1.287 . S
C2639 C2638 1.287 . S
C2639 C2640 1.524 . S
C2639 H2658 0.913 . S
C2640 H2616 0.950 . S
C2640 C2639 1.524 . S
C2640 C2641 1.415 . S
C2641 H2617 0.950 . S
C2641 C2636 1.363 . S
C2641 C2640 1.415 . S
C2642 H2618 0.951 . S
C2642 C2643 1.366 . S
C2642 C2644 1.388 . S
C2643 C2642 1.366 . S
C2643 C2647 1.385 . S
C2644 H2619 0.951 . S
C2644 C2642 1.388 . S
C2644 C2645 1.366 . S
C2645 C2644 1.366 . S
C2645 C2646 1.414 . S
C2645 C2648 1.499 . S
C2646 H2620 0.950 . S
C2646 C2645 1.414 . S
C2646 C2647 1.374 . S
C2647 H2621 0.950 . S
C2647 C2643 1.385 . S
C2647 C2646 1.374 . S
C2648 C2645 1.499 . S
C2648 C2649 1.373 . S
C2648 C2650 1.389 . S
C2649 H2622 0.950 . S
C2649 C2635 1.377 . S
C2649 C2648 1.373 . S
C2650 C2634 1.377 . S
C2650 C2648 1.389 . S
C2650 C2651 1.524 . S
C2651 C2650 1.524 . S
C2651 C2652 1.397 . S
C2651 C2656 1.363 . S
C2652 H2623 0.950 . S
C2652 C2651 1.397 . S
C2652 C2653 1.334 . S
C2653 H2624 0.950 . S
C2653 C2652 1.334 . S
C2653 C2654 1.287 . S
C2654 C2653 1.287 . S
C2654 C2655 1.524 . S
C2654 H2657 0.999 . S
C2655 H2625 0.950 . S
C2655 C2654 1.524 . S
C2655 C2656 1.415 . S
C2656 H2626 0.950 . S
C2656 C2651 1.363 . S
C2656 C2655 1.415 . S
H2657 C2654 0.999 . S
H2658 C2639 0.913 . S
H2659 C2677 0.951 . S
H2660 C2679 0.951 . S
H2661 C2681 0.950 . S
H2662 C2682 0.950 . S
H2663 C2684 0.950 . S
H2664 C2687 0.950 . S
H2665 C2688 0.950 . S
H2666 C2690 0.950 . S
H2667 C2691 0.950 . S
H2668 C2692 0.951 . S
H2669 C2694 0.951 . S
H2670 C2696 0.950 . S
H2671 C2697 0.950 . S
H2672 C2699 0.950 . S
H2673 C2702 0.950 . S
H2674 C2703 0.950 . S
H2675 C2705 0.950 . S
H2676 C2706 0.950 . S
C2677 H2659 0.951 . S
C2677 C2678 1.366 . S
C2677 C2679 1.388 . S
C2678 C2677 1.366 . S
C2678 C2682 1.385 . S
C2679 H2660 0.951 . S
C2679 C2677 1.388 . S
C2679 C2680 1.366 . S
C2680 C2679 1.366 . S
C2680 C2681 1.414 . S
C2680 C2683 1.499 . S
C2681 H2661 0.950 . S
C2681 C2680 1.414 . S
C2681 C2682 1.374 . S
C2682 H2662 0.950 . S
C2682 C2678 1.385 . S
C2682 C2681 1.374 . S
C2683 C2680 1.499 . S
C2683 C2684 1.373 . S
C2683 C2685 1.389 . S
C2684 H2663 0.950 . S
C2684 C2683 1.373 . S
C2684 C2700 1.377 . S
C2685 C2683 1.389 . S
C2685 C2686 1.524 . S
C2685 C2699 1.377 . S
C2686 C2685 1.524 . S
C2686 C2687 1.397 . S
C2686 C2691 1.363 . S
C2687 H2664 0.950 . S
C2687 C2686 1.397 . S
C2687 C2688 1.334 . S
C2688 H2665 0.950 . S
C2688 C2687 1.334 . S
C2688 C2689 1.287 . S
C2689 C2688 1.287 . S
C2689 C2690 1.524 . S
C2689 H2708 0.913 . S
C2690 H2666 0.950 . S
C2690 C2689 1.524 . S
C2690 C2691 1.415 . S
C2691 H2667 0.950 . S
C2691 C2686 1.363 . S
C2691 C2690 1.415 . S
C2692 H2668 0.951 . S
C2692 C2693 1.366 . S
C2692 C2694 1.388 . S
C2693 C2692 1.366 . S
C2693 C2697 1.385 . S
C2694 H2669 0.951 . S
C2694 C2692 1.388 . S
C2694 C2695 1.366 . S
C2695 C2694 1.366 . S
C2695 C2696 1.414 . S
C2695 C2698 1.499 . S
C2696 H2670 0.950 . S
C2696 C2695 1.414 . S
C2696 C2697 1.374 . S
C2697 H2671 0.950 . S
C2697 C2693 1.385 . S
C2697 C2696 1.374 . S
C2698 C2695 1.499 . S
C2698 C2699 1.373 . S
C2698 C2700 1.389 . S
C2699 H2672 0.950 . S
C2699 C2685 1.377 . S
C2699 C2698 1.373 . S
C2700 C2684 1.377 . S
C2700 C2698 1.389 . S
C2700 C2701 1.524 . S
C2701 C2700 1.524 . S
C2701 C2702 1.397 . S
C2701 C2706 1.363 . S
C2702 H2673 0.950 . S
C2702 C2701 1.397 . S
C2702 C2703 1.334 . S
C2703 H2674 0.950 . S
C2703 C2702 1.334 . S
C2703 C2704 1.287 . S
C2704 C2703 1.287 . S
C2704 C2705 1.524 . S
C2704 H2707 0.999 . S
C2705 H2675 0.950 . S
C2705 C2704 1.524 . S
C2705 C2706 1.415 . S
C2706 H2676 0.950 . S
C2706 C2701 1.363 . S
C2706 C2705 1.415 . S
H2707 C2704 0.999 . S
H2708 C2689 0.913 . S
H2709 C2727 0.951 . S
H2710 C2729 0.951 . S
H2711 C2731 0.950 1_545 S
H2712 C2732 0.950 . S
H2713 C2734 0.921 1_545 S
H2714 C2737 0.950 . S
H2715 C2738 0.950 . S
H2716 C2740 0.950 . S
H2717 C2741 0.950 . S
H2718 C2742 0.951 . S
H2719 C2744 0.951 . S
H2720 C2746 0.950 . S
H2721 C2747 0.950 . S
H2722 C2749 0.950 . S
H2723 C2752 0.950 1_565 S
H2724 C2753 0.950 . S
H2725 C2755 0.950 . S
H2726 C2756 0.950 . S
C2727 H2709 0.951 . S
C2727 C2728 1.366 . S
C2727 C2729 1.388 . S
C2728 C2727 1.366 . S
C2728 C2732 1.385 . S
C2729 H2710 0.951 . S
C2729 C2727 1.388 . S
C2729 C2730 1.366 . S
C2730 C2729 1.366 . S
C2730 C2731 1.414 . S
C2730 C2733 1.499 . S
C2731 H2711 0.950 1_565 S
C2731 C2730 1.414 . S
C2731 C2732 1.374 . S
C2732 H2712 0.950 . S
C2732 C2728 1.385 . S
C2732 C2731 1.374 . S
C2733 C2730 1.499 . S
C2733 C2734 1.373 . S
C2733 C2735 1.389 . S
C2734 H2713 0.921 1_565 S
C2734 C2733 1.373 . S
C2734 C2750 1.377 . S
C2735 C2733 1.389 . S
C2735 C2736 1.524 . S
C2735 C2749 1.377 . S
C2736 C2735 1.524 . S
C2736 C2737 1.397 . S
C2736 C2741 1.363 . S
C2737 H2714 0.950 . S
C2737 C2736 1.397 . S
C2737 C2738 1.334 . S
C2738 H2715 0.950 . S
C2738 C2737 1.334 . S
C2738 C2739 1.287 . S
C2739 C2738 1.287 . S
C2739 C2740 1.524 . S
C2739 H2758 0.913 . S
C2740 H2716 0.950 . S
C2740 C2739 1.524 . S
C2740 C2741 1.415 . S
C2741 H2717 0.950 . S
C2741 C2736 1.363 . S
C2741 C2740 1.415 . S
C2742 H2718 0.951 . S
C2742 C2743 1.347 1_545 S
C2742 C2744 1.388 . S
C2743 C2742 1.347 1_565 S
C2743 C2747 1.408 . S
C2744 H2719 0.951 . S
C2744 C2742 1.388 . S
C2744 C2745 1.366 1_545 S
C2745 C2744 1.366 1_565 S
C2745 C2746 1.414 . S
C2745 C2748 1.499 . S
C2746 H2720 0.950 . S
C2746 C2745 1.414 . S
C2746 C2747 1.374 . S
C2747 H2721 0.950 . S
C2747 C2743 1.408 . S
C2747 C2746 1.374 . S
C2748 C2745 1.499 . S
C2748 C2749 1.373 . S
C2748 C2750 1.389 . S
C2749 H2722 0.950 . S
C2749 C2735 1.377 . S
C2749 C2748 1.373 . S
C2750 C2734 1.377 . S
C2750 C2748 1.389 . S
C2750 C2751 1.524 1_565 S
C2751 C2750 1.524 1_545 S
C2751 C2752 1.397 . S
C2751 C2756 1.363 . S
C2752 H2723 0.950 1_545 S
C2752 C2751 1.397 . S
C2752 C2753 1.334 . S
C2753 H2724 0.950 . S
C2753 C2752 1.334 . S
C2753 C2754 1.287 . S
C2754 C2753 1.287 . S
C2754 C2755 1.524 . S
C2754 H2757 0.999 . S
C2755 H2725 0.950 . S
C2755 C2754 1.524 . S
C2755 C2756 1.415 . S
C2756 H2726 0.950 . S
C2756 C2751 1.363 . S
C2756 C2755 1.415 . S
H2757 C2754 0.999 . S
H2758 C2739 0.913 . S
H2759 C2777 0.951 . S
H2760 C2779 0.951 . S
H2761 C2781 0.950 . S
H2762 C2782 0.950 . S
H2763 C2784 0.954 1_655 S
H2764 C2787 0.950 . S
H2765 C2788 0.950 . S
H2766 C2790 0.950 . S
H2767 C2791 0.950 . S
H2768 C2792 0.951 . S
H2769 C2794 0.951 . S
H2770 C2796 0.950 . S
H2771 C2797 0.950 . S
H2772 C2799 0.950 . S
H2773 C2802 0.950 . S
H2774 C2803 0.950 . S
H2775 C2805 0.950 . S
H2776 C2806 0.950 . S
C2777 H2759 0.951 . S
C2777 C2778 1.366 . S
C2777 C2779 1.388 . S
C2778 C2777 1.366 . S
C2778 C2782 1.385 . S
C2779 H2760 0.951 . S
C2779 C2777 1.388 . S
C2779 C2780 1.366 . S
C2780 C2779 1.366 . S
C2780 C2781 1.414 . S
C2780 C2783 1.499 . S
C2781 H2761 0.950 . S
C2781 C2780 1.414 . S
C2781 C2782 1.374 . S
C2782 H2762 0.950 . S
C2782 C2778 1.385 . S
C2782 C2781 1.374 . S
C2783 C2780 1.499 . S
C2783 C2784 1.373 . S
C2783 C2785 1.389 . S
C2784 H2763 0.954 1_455 S
C2784 C2783 1.373 . S
C2784 C2800 1.377 . S
C2785 C2783 1.389 . S
C2785 C2786 1.524 . S
C2785 C2799 1.377 . S
C2786 C2785 1.524 . S
C2786 C2787 1.397 . S
C2786 C2791 1.363 . S
C2787 H2764 0.950 . S
C2787 C2786 1.397 . S
C2787 C2788 1.334 . S
C2788 H2765 0.950 . S
C2788 C2787 1.334 . S
C2788 C2789 1.287 . S
C2789 C2788 1.287 . S
C2789 C2790 1.524 . S
C2789 H2808 0.913 . S
C2790 H2766 0.950 . S
C2790 C2789 1.524 . S
C2790 C2791 1.415 . S
C2791 H2767 0.950 . S
C2791 C2786 1.363 . S
C2791 C2790 1.415 . S
C2792 H2768 0.951 . S
C2792 C2793 1.366 . S
C2792 C2794 1.388 . S
C2793 C2792 1.366 . S
C2793 C2797 1.385 . S
C2794 H2769 0.951 . S
C2794 C2792 1.388 . S
C2794 C2795 1.366 . S
C2795 C2794 1.366 . S
C2795 C2796 1.414 . S
C2795 C2798 1.499 . S
C2796 H2770 0.950 . S
C2796 C2795 1.414 . S
C2796 C2797 1.374 . S
C2797 H2771 0.950 . S
C2797 C2793 1.385 . S
C2797 C2796 1.374 . S
C2798 C2795 1.499 . S
C2798 C2799 1.373 . S
C2798 C2800 1.389 . S
C2799 H2772 0.950 . S
C2799 C2785 1.377 . S
C2799 C2798 1.373 . S
C2800 C2784 1.377 . S
C2800 C2798 1.389 . S
C2800 C2801 1.524 1_455 S
C2801 C2800 1.524 1_655 S
C2801 C2802 1.397 . S
C2801 C2806 1.363 . S
C2802 H2773 0.950 . S
C2802 C2801 1.397 . S
C2802 C2803 1.334 . S
C2803 H2774 0.950 . S
C2803 C2802 1.334 . S
C2803 C2804 1.287 . S
C2804 C2803 1.287 . S
C2804 C2805 1.524 . S
C2804 H2807 0.999 . S
C2805 H2775 0.950 . S
C2805 C2804 1.524 . S
C2805 C2806 1.415 . S
C2806 H2776 0.950 . S
C2806 C2801 1.363 . S
C2806 C2805 1.415 . S
H2807 C2804 0.999 . S
H2808 C2789 0.913 . S
H2809 C2827 0.951 . S
H2810 C2829 0.951 . S
H2811 C2831 0.950 . S
H2812 C2832 0.950 . S
H2813 C2834 0.950 . S
H2814 C2837 0.950 . S
H2815 C2838 0.950 . S
H2816 C2840 0.950 . S
H2817 C2841 0.950 . S
H2818 C2842 0.951 . S
H2819 C2844 0.951 . S
H2820 C2846 0.950 . S
H2821 C2847 0.950 . S
H2822 C2849 0.950 . S
H2823 C2852 0.950 . S
H2824 C2853 0.950 . S
H2825 C2855 0.950 . S
H2826 C2856 0.950 . S
C2827 H2809 0.951 . S
C2827 C2828 1.366 . S
C2827 C2829 1.388 . S
C2828 C2827 1.366 . S
C2828 C2832 1.385 . S
C2829 H2810 0.951 . S
C2829 C2827 1.388 . S
C2829 C2830 1.366 . S
C2830 C2829 1.366 . S
C2830 C2831 1.414 . S
C2830 C2833 1.499 . S
C2831 H2811 0.950 . S
C2831 C2830 1.414 . S
C2831 C2832 1.374 . S
C2832 H2812 0.950 . S
C2832 C2828 1.385 . S
C2832 C2831 1.374 . S
C2833 C2830 1.499 . S
C2833 C2834 1.373 . S
C2833 C2835 1.389 . S
C2834 H2813 0.950 . S
C2834 C2833 1.373 . S
C2834 C2850 1.377 . S
C2835 C2833 1.389 . S
C2835 C2836 1.524 . S
C2835 C2849 1.377 . S
C2836 C2835 1.524 . S
C2836 C2837 1.397 . S
C2836 C2841 1.363 . S
C2837 H2814 0.950 . S
C2837 C2836 1.397 . S
C2837 C2838 1.334 . S
C2838 H2815 0.950 . S
C2838 C2837 1.334 . S
C2838 C2839 1.287 . S
C2839 C2838 1.287 . S
C2839 C2840 1.524 . S
C2839 H2858 0.913 . S
C2840 H2816 0.950 . S
C2840 C2839 1.524 . S
C2840 C2841 1.415 . S
C2841 H2817 0.950 . S
C2841 C2836 1.363 . S
C2841 C2840 1.415 . S
C2842 H2818 0.951 . S
C2842 C2843 1.366 . S
C2842 C2844 1.388 . S
C2843 C2842 1.366 . S
C2843 C2847 1.385 . S
C2844 H2819 0.951 . S
C2844 C2842 1.388 . S
C2844 C2845 1.366 . S
C2845 C2844 1.366 . S
C2845 C2846 1.414 . S
C2845 C2848 1.499 . S
C2846 H2820 0.950 . S
C2846 C2845 1.414 . S
C2846 C2847 1.374 . S
C2847 H2821 0.950 . S
C2847 C2843 1.385 . S
C2847 C2846 1.374 . S
C2848 C2845 1.499 . S
C2848 C2849 1.373 . S
C2848 C2850 1.389 . S
C2849 H2822 0.950 . S
C2849 C2835 1.377 . S
C2849 C2848 1.373 . S
C2850 C2834 1.377 . S
C2850 C2848 1.389 . S
C2850 C2851 1.524 . S
C2851 C2850 1.524 . S
C2851 C2852 1.397 . S
C2851 C2856 1.363 . S
C2852 H2823 0.950 . S
C2852 C2851 1.397 . S
C2852 C2853 1.334 . S
C2853 H2824 0.950 . S
C2853 C2852 1.334 . S
C2853 C2854 1.287 . S
C2854 C2853 1.287 . S
C2854 C2855 1.524 . S
C2854 H2857 0.999 . S
C2855 H2825 0.950 . S
C2855 C2854 1.524 . S
C2855 C2856 1.415 . S
C2856 H2826 0.950 . S
C2856 C2851 1.363 . S
C2856 C2855 1.415 . S
H2857 C2854 0.999 . S
H2858 C2839 0.913 . S
H2859 C2877 0.951 . S
H2860 C2879 0.951 . S
H2861 C2881 0.950 . S
H2862 C2882 0.950 . S
H2863 C2884 0.950 . S
H2864 C2887 0.950 . S
H2865 C2888 0.950 . S
H2866 C2890 0.950 . S
H2867 C2891 0.950 1_455 S
H2868 C2892 0.951 . S
H2869 C2894 0.951 . S
H2870 C2896 0.950 . S
H2871 C2897 0.950 . S
H2872 C2899 0.950 . S
H2873 C2902 0.950 . S
H2874 C2903 0.950 . S
H2875 C2905 0.950 . S
H2876 C2906 0.950 . S
C2877 H2859 0.951 . S
C2877 C2878 1.366 . S
C2877 C2879 1.388 . S
C2878 C2877 1.366 . S
C2878 C2882 1.385 . S
C2879 H2860 0.951 . S
C2879 C2877 1.388 . S
C2879 C2880 1.366 . S
C2880 C2879 1.366 . S
C2880 C2881 1.414 . S
C2880 C2883 1.499 . S
C2881 H2861 0.950 . S
C2881 C2880 1.414 . S
C2881 C2882 1.374 . S
C2882 H2862 0.950 . S
C2882 C2878 1.385 . S
C2882 C2881 1.374 . S
C2883 C2880 1.499 . S
C2883 C2884 1.373 . S
C2883 C2885 1.389 . S
C2884 H2863 0.950 . S
C2884 C2883 1.373 . S
C2884 C2900 1.377 . S
C2885 C2883 1.389 . S
C2885 C2886 1.524 . S
C2885 C2899 1.377 . S
C2886 C2885 1.524 . S
C2886 C2887 1.397 . S
C2886 C2891 1.363 . S
C2887 H2864 0.950 . S
C2887 C2886 1.397 . S
C2887 C2888 1.334 . S
C2888 H2865 0.950 . S
C2888 C2887 1.334 . S
C2888 C2889 1.287 . S
C2889 C2888 1.287 . S
C2889 C2890 1.524 . S
C2889 H2908 0.913 . S
C2890 H2866 0.950 . S
C2890 C2889 1.524 . S
C2890 C2891 1.415 . S
C2891 H2867 0.950 1_655 S
C2891 C2886 1.363 . S
C2891 C2890 1.415 . S
C2892 H2868 0.951 . S
C2892 C2893 1.366 . S
C2892 C2894 1.388 . S
C2893 C2892 1.366 . S
C2893 C2897 1.385 1_655 S
C2894 H2869 0.951 . S
C2894 C2892 1.388 . S
C2894 C2895 1.366 . S
C2895 C2894 1.366 . S
C2895 C2896 1.414 1_655 S
C2895 C2898 1.499 . S
C2896 H2870 0.950 . S
C2896 C2895 1.414 1_455 S
C2896 C2897 1.374 . S
C2897 H2871 0.950 . S
C2897 C2893 1.385 1_455 S
C2897 C2896 1.374 . S
C2898 C2895 1.499 . S
C2898 C2899 1.373 . S
C2898 C2900 1.389 . S
C2899 H2872 0.950 . S
C2899 C2885 1.377 . S
C2899 C2898 1.373 . S
C2900 C2884 1.377 . S
C2900 C2898 1.389 . S
C2900 C2901 1.524 . S
C2901 C2900 1.524 . S
C2901 C2902 1.397 1_655 S
C2901 C2906 1.363 . S
C2902 H2873 0.950 . S
C2902 C2901 1.397 1_455 S
C2902 C2903 1.334 . S
C2903 H2874 0.950 . S
C2903 C2902 1.334 . S
C2903 C2904 1.287 1_455 S
C2904 C2903 1.287 1_655 S
C2904 C2905 1.524 . S
C2904 H2907 0.999 . S
C2905 H2875 0.950 . S
C2905 C2904 1.524 . S
C2905 C2906 1.415 . S
C2906 H2876 0.950 . S
C2906 C2901 1.363 . S
C2906 C2905 1.415 . S
H2907 C2904 0.999 . S
H2908 C2889 0.913 . S
H2909 C2927 0.951 . S
H2910 C2929 0.951 . S
H2911 C2931 0.950 . S
H2912 C2932 0.950 . S
H2913 C2934 0.950 . S
H2914 C2937 0.950 . S
H2915 C2938 0.950 . S
H2916 C2940 0.950 . S
H2917 C2941 0.950 . S
H2918 C2942 0.951 . S
H2919 C2944 0.951 . S
H2920 C2946 0.950 . S
H2921 C2947 0.950 . S
H2922 C2949 0.950 . S
H2923 C2952 0.950 . S
H2924 C2953 0.950 . S
H2925 C2955 0.950 . S
H2926 C2956 0.950 . S
C2927 H2909 0.951 . S
C2927 C2928 1.366 . S
C2927 C2929 1.388 . S
C2928 C2927 1.366 . S
C2928 C2932 1.385 . S
C2929 H2910 0.951 . S
C2929 C2927 1.388 . S
C2929 C2930 1.366 . S
C2930 C2929 1.366 . S
C2930 C2931 1.414 . S
C2930 C2933 1.499 . S
C2931 H2911 0.950 . S
C2931 C2930 1.414 . S
C2931 C2932 1.374 . S
C2932 H2912 0.950 . S
C2932 C2928 1.385 . S
C2932 C2931 1.374 . S
C2933 C2930 1.499 . S
C2933 C2934 1.373 . S
C2933 C2935 1.389 . S
C2934 H2913 0.950 . S
C2934 C2933 1.373 . S
C2934 C2950 1.377 . S
C2935 C2933 1.389 . S
C2935 C2936 1.524 . S
C2935 C2949 1.377 . S
C2936 C2935 1.524 . S
C2936 C2937 1.397 . S
C2936 C2941 1.363 . S
C2937 H2914 0.950 . S
C2937 C2936 1.397 . S
C2937 C2938 1.334 . S
C2938 H2915 0.950 . S
C2938 C2937 1.334 . S
C2938 C2939 1.287 . S
C2939 C2938 1.287 . S
C2939 C2940 1.524 . S
C2939 H2958 0.913 . S
C2940 H2916 0.950 . S
C2940 C2939 1.524 . S
C2940 C2941 1.415 . S
C2941 H2917 0.950 . S
C2941 C2936 1.363 . S
C2941 C2940 1.415 . S
C2942 H2918 0.951 . S
C2942 C2943 1.366 . S
C2942 C2944 1.388 . S
C2943 C2942 1.366 . S
C2943 C2947 1.385 . S
C2944 H2919 0.951 . S
C2944 C2942 1.388 . S
C2944 C2945 1.366 . S
C2945 C2944 1.366 . S
C2945 C2946 1.414 . S
C2945 C2948 1.499 . S
C2946 H2920 0.950 . S
C2946 C2945 1.414 . S
C2946 C2947 1.374 . S
C2947 H2921 0.950 . S
C2947 C2943 1.385 . S
C2947 C2946 1.374 . S
C2948 C2945 1.499 . S
C2948 C2949 1.373 . S
C2948 C2950 1.389 . S
C2949 H2922 0.950 . S
C2949 C2935 1.377 . S
C2949 C2948 1.373 . S
C2950 C2934 1.377 . S
C2950 C2948 1.389 . S
C2950 C2951 1.524 . S
C2951 C2950 1.524 . S
C2951 C2952 1.397 . S
C2951 C2956 1.363 . S
C2952 H2923 0.950 . S
C2952 C2951 1.397 . S
C2952 C2953 1.334 . S
C2953 H2924 0.950 . S
C2953 C2952 1.334 . S
C2953 C2954 1.287 . S
C2954 C2953 1.287 . S
C2954 C2955 1.524 . S
C2954 H2957 0.999 . S
C2955 H2925 0.950 . S
C2955 C2954 1.524 . S
C2955 C2956 1.415 . S
C2956 H2926 0.950 . S
C2956 C2951 1.363 . S
C2956 C2955 1.415 . S
H2957 C2954 0.999 . S
H2958 C2939 0.913 . S
H2959 C2977 0.951 . S
H2960 C2979 0.951 . S
H2961 C2981 0.950 . S
H2962 C2982 0.950 . S
H2963 C2984 0.950 1_565 S
H2964 C2987 0.950 . S
H2965 C2988 0.950 . S
H2966 C2990 0.950 . S
H2967 C2991 0.950 . S
H2968 C2992 0.951 . S
H2969 C2994 0.972 . S
H2970 C2996 0.950 . S
H2971 C2997 0.950 . S
H2972 C2999 0.950 . S
H2973 C3002 0.950 . S
H2974 C3003 0.950 . S
H2975 C3005 0.950 . S
H2976 C3006 0.950 . S
C2977 H2959 0.951 . S
C2977 C2978 1.366 . S
C2977 C2979 1.388 . S
C2978 C2977 1.366 . S
C2978 C2982 1.385 . S
C2979 H2960 0.951 . S
C2979 C2977 1.388 . S
C2979 C2980 1.366 . S
C2980 C2979 1.366 . S
C2980 C2981 1.414 . S
C2980 C2983 1.499 . S
C2981 H2961 0.950 . S
C2981 C2980 1.414 . S
C2981 C2982 1.374 . S
C2982 H2962 0.950 . S
C2982 C2978 1.385 . S
C2982 C2981 1.374 . S
C2983 C2980 1.499 . S
C2983 C2984 1.373 . S
C2983 C2985 1.389 . S
C2984 H2963 0.950 1_545 S
C2984 C2983 1.373 . S
C2984 C3000 1.377 . S
C2985 C2983 1.389 . S
C2985 C2986 1.524 . S
C2985 C2999 1.377 . S
C2986 C2985 1.524 . S
C2986 C2987 1.397 . S
C2986 C2991 1.363 . S
C2987 H2964 0.950 . S
C2987 C2986 1.397 . S
C2987 C2988 1.334 . S
C2988 H2965 0.950 . S
C2988 C2987 1.334 . S
C2988 C2989 1.287 . S
C2989 C2988 1.287 . S
C2989 C2990 1.524 . S
C2989 H3008 0.913 . S
C2990 H2966 0.950 . S
C2990 C2989 1.524 . S
C2990 C2991 1.415 . S
C2991 H2967 0.950 . S
C2991 C2986 1.363 . S
C2991 C2990 1.415 . S
C2992 H2968 0.951 . S
C2992 C2993 1.366 1_565 S
C2992 C2994 1.392 . S
C2993 C2992 1.366 1_545 S
C2993 C2997 1.385 . S
C2994 H2969 0.972 . S
C2994 C2992 1.392 . S
C2994 C2995 1.340 1_565 S
C2995 C2994 1.340 1_545 S
C2995 C2996 1.414 . S
C2995 C2998 1.499 . S
C2996 H2970 0.950 . S
C2996 C2995 1.414 . S
C2996 C2997 1.374 . S
C2997 H2971 0.950 . S
C2997 C2993 1.385 . S
C2997 C2996 1.374 . S
C2998 C2995 1.499 . S
C2998 C2999 1.373 . S
C2998 C3000 1.389 . S
C2999 H2972 0.950 . S
C2999 C2985 1.377 . S
C2999 C2998 1.373 . S
C3000 C2984 1.377 . S
C3000 C2998 1.389 . S
C3000 C3001 1.524 1_545 S
C3001 C3000 1.524 1_565 S
C3001 C3002 1.397 . S
C3001 C3006 1.363 . S
C3002 H2973 0.950 . S
C3002 C3001 1.397 . S
C3002 C3003 1.334 . S
C3003 H2974 0.950 . S
C3003 C3002 1.334 . S
C3003 C3004 1.287 . S
C3004 C3003 1.287 . S
C3004 C3005 1.524 . S
C3004 H3007 0.999 . S
C3005 H2975 0.950 . S
C3005 C3004 1.524 . S
C3005 C3006 1.415 . S
C3006 H2976 0.950 . S
C3006 C3001 1.363 . S
C3006 C3005 1.415 . S
H3007 C3004 0.999 . S
H3008 C2989 0.913 . S
H3009 C3027 0.951 . S
H3010 C3029 0.951 . S
H3011 C3031 0.950 . S
H3012 C3032 0.950 . S
H3013 C3034 0.950 . S
H3014 C3037 0.950 . S
H3015 C3038 0.950 . S
H3016 C3040 0.950 . S
H3017 C3041 0.950 . S
H3018 C3042 0.951 . S
H3019 C3044 0.951 . S
H3020 C3046 0.950 . S
H3021 C3047 0.950 . S
H3022 C3049 0.950 . S
H3023 C3052 0.950 . S
H3024 C3053 0.950 . S
H3025 C3055 0.950 . S
H3026 C3056 0.950 . S
C3027 H3009 0.951 . S
C3027 C3028 1.366 . S
C3027 C3029 1.388 . S
C3028 C3027 1.366 . S
C3028 C3032 1.385 . S
C3029 H3010 0.951 . S
C3029 C3027 1.388 . S
C3029 C3030 1.366 . S
C3030 C3029 1.366 . S
C3030 C3031 1.414 . S
C3030 C3033 1.499 . S
C3031 H3011 0.950 . S
C3031 C3030 1.414 . S
C3031 C3032 1.374 . S
C3032 H3012 0.950 . S
C3032 C3028 1.385 . S
C3032 C3031 1.374 . S
C3033 C3030 1.499 . S
C3033 C3034 1.373 . S
C3033 C3035 1.389 . S
C3034 H3013 0.950 . S
C3034 C3033 1.373 . S
C3034 C3050 1.377 . S
C3035 C3033 1.389 . S
C3035 C3036 1.524 . S
C3035 C3049 1.377 . S
C3036 C3035 1.524 . S
C3036 C3037 1.397 . S
C3036 C3041 1.363 . S
C3037 H3014 0.950 . S
C3037 C3036 1.397 . S
C3037 C3038 1.334 . S
C3038 H3015 0.950 . S
C3038 C3037 1.334 . S
C3038 C3039 1.287 . S
C3039 C3038 1.287 . S
C3039 C3040 1.524 . S
C3039 H3058 0.913 . S
C3040 H3016 0.950 . S
C3040 C3039 1.524 . S
C3040 C3041 1.415 . S
C3041 H3017 0.950 . S
C3041 C3036 1.363 . S
C3041 C3040 1.415 . S
C3042 H3018 0.951 . S
C3042 C3043 1.366 . S
C3042 C3044 1.388 . S
C3043 C3042 1.366 . S
C3043 C3047 1.385 . S
C3044 H3019 0.951 . S
C3044 C3042 1.388 . S
C3044 C3045 1.366 . S
C3045 C3044 1.366 . S
C3045 C3046 1.414 . S
C3045 C3048 1.499 . S
C3046 H3020 0.950 . S
C3046 C3045 1.414 . S
C3046 C3047 1.374 . S
C3047 H3021 0.950 . S
C3047 C3043 1.385 . S
C3047 C3046 1.374 . S
C3048 C3045 1.499 . S
C3048 C3049 1.373 . S
C3048 C3050 1.389 . S
C3049 H3022 0.950 . S
C3049 C3035 1.377 . S
C3049 C3048 1.373 . S
C3050 C3034 1.377 . S
C3050 C3048 1.389 . S
C3050 C3051 1.524 . S
C3051 C3050 1.524 . S
C3051 C3052 1.397 . S
C3051 C3056 1.363 . S
C3052 H3023 0.950 . S
C3052 C3051 1.397 . S
C3052 C3053 1.334 . S
C3053 H3024 0.950 . S
C3053 C3052 1.334 . S
C3053 C3054 1.287 . S
C3054 C3053 1.287 . S
C3054 C3055 1.524 . S
C3054 H3057 0.999 . S
C3055 H3025 0.950 . S
C3055 C3054 1.524 . S
C3055 C3056 1.415 . S
C3056 H3026 0.950 . S
C3056 C3051 1.363 . S
C3056 C3055 1.415 . S
H3057 C3054 0.999 . S
H3058 C3039 0.913 . S
H3059 C3077 0.951 . S
H3060 C3079 0.951 . S
H3061 C3081 0.950 . S
H3062 C3082 0.950 . S
H3063 C3084 0.950 . S
H3064 C3087 0.950 . S
H3065 C3088 0.950 . S
H3066 C3090 0.950 . S
H3067 C3091 0.950 . S
H3068 C3092 0.951 . S
H3069 C3094 0.951 . S
H3070 C3096 0.950 . S
H3071 C3097 0.950 . S
H3072 C3099 0.950 . S
H3073 C3102 0.950 . S
H3074 C3103 0.950 . S
H3075 C3105 0.950 . S
H3076 C3106 0.950 . S
C3077 H3059 0.951 . S
C3077 C3078 1.366 . S
C3077 C3079 1.388 . S
C3078 C3077 1.366 . S
C3078 C3082 1.385 . S
C3079 H3060 0.951 . S
C3079 C3077 1.388 . S
C3079 C3080 1.366 . S
C3080 C3079 1.366 . S
C3080 C3081 1.414 . S
C3080 C3083 1.499 . S
C3081 H3061 0.950 . S
C3081 C3080 1.414 . S
C3081 C3082 1.374 . S
C3082 H3062 0.950 . S
C3082 C3078 1.385 . S
C3082 C3081 1.374 . S
C3083 C3080 1.499 . S
C3083 C3084 1.373 . S
C3083 C3085 1.389 . S
C3084 H3063 0.950 . S
C3084 C3083 1.373 . S
C3084 C3100 1.377 . S
C3085 C3083 1.389 . S
C3085 C3086 1.524 . S
C3085 C3099 1.377 . S
C3086 C3085 1.524 . S
C3086 C3087 1.397 . S
C3086 C3091 1.363 . S
C3087 H3064 0.950 . S
C3087 C3086 1.397 . S
C3087 C3088 1.334 . S
C3088 H3065 0.950 . S
C3088 C3087 1.334 . S
C3088 C3089 1.287 . S
C3089 C3088 1.287 . S
C3089 C3090 1.524 . S
C3089 H3108 0.913 . S
C3090 H3066 0.950 . S
C3090 C3089 1.524 . S
C3090 C3091 1.415 . S
C3091 H3067 0.950 . S
C3091 C3086 1.363 . S
C3091 C3090 1.415 . S
C3092 H3068 0.951 . S
C3092 C3093 1.366 . S
C3092 C3094 1.388 . S
C3093 C3092 1.366 . S
C3093 C3097 1.385 . S
C3094 H3069 0.951 . S
C3094 C3092 1.388 . S
C3094 C3095 1.366 . S
C3095 C3094 1.366 . S
C3095 C3096 1.414 . S
C3095 C3098 1.499 . S
C3096 H3070 0.950 . S
C3096 C3095 1.414 . S
C3096 C3097 1.374 . S
C3097 H3071 0.950 . S
C3097 C3093 1.385 . S
C3097 C3096 1.374 . S
C3098 C3095 1.499 . S
C3098 C3099 1.373 . S
C3098 C3100 1.389 . S
C3099 H3072 0.950 . S
C3099 C3085 1.377 . S
C3099 C3098 1.373 . S
C3100 C3084 1.377 . S
C3100 C3098 1.389 . S
C3100 C3101 1.524 . S
C3101 C3100 1.524 . S
C3101 C3102 1.397 . S
C3101 C3106 1.363 . S
C3102 H3073 0.950 . S
C3102 C3101 1.397 . S
C3102 C3103 1.334 . S
C3103 H3074 0.950 . S
C3103 C3102 1.334 . S
C3103 C3104 1.287 . S
C3104 C3103 1.287 . S
C3104 C3105 1.524 . S
C3104 H3107 0.999 . S
C3105 H3075 0.950 . S
C3105 C3104 1.524 . S
C3105 C3106 1.415 . S
C3106 H3076 0.950 . S
C3106 C3101 1.363 . S
C3106 C3105 1.415 . S
H3107 C3104 0.999 . S
H3108 C3089 0.913 . S
H3109 C3127 0.951 . S
H3110 C3129 0.951 . S
H3111 C3131 0.950 . S
H3112 C3132 0.950 . S
H3113 C3134 0.950 . S
H3114 C3137 0.950 . S
H3115 C3138 0.950 . S
H3116 C3140 0.950 . S
H3117 C3141 0.950 . S
H3118 C3142 0.951 . S
H3119 C3144 0.951 . S
H3120 C3146 0.950 . S
H3121 C3147 0.950 . S
H3122 C3149 0.950 . S
H3123 C3152 0.950 . S
H3124 C3153 0.950 . S
H3125 C3155 0.950 . S
H3126 C3156 0.950 . S
C3127 H3109 0.951 . S
C3127 C3128 1.366 . S
C3127 C3129 1.388 . S
C3128 C3127 1.366 . S
C3128 C3132 1.385 . S
C3129 H3110 0.951 . S
C3129 C3127 1.388 . S
C3129 C3130 1.366 . S
C3130 C3129 1.366 . S
C3130 C3131 1.414 . S
C3130 C3133 1.499 . S
C3131 H3111 0.950 . S
C3131 C3130 1.414 . S
C3131 C3132 1.374 . S
C3132 H3112 0.950 . S
C3132 C3128 1.385 . S
C3132 C3131 1.374 . S
C3133 C3130 1.499 . S
C3133 C3134 1.373 . S
C3133 C3135 1.389 . S
C3134 H3113 0.950 . S
C3134 C3133 1.373 . S
C3134 C3150 1.377 . S
C3135 C3133 1.389 . S
C3135 C3136 1.524 . S
C3135 C3149 1.377 . S
C3136 C3135 1.524 . S
C3136 C3137 1.397 . S
C3136 C3141 1.363 . S
C3137 H3114 0.950 . S
C3137 C3136 1.397 . S
C3137 C3138 1.334 . S
C3138 H3115 0.950 . S
C3138 C3137 1.334 . S
C3138 C3139 1.287 . S
C3139 C3138 1.287 . S
C3139 C3140 1.524 . S
C3139 H3158 0.913 . S
C3140 H3116 0.950 . S
C3140 C3139 1.524 . S
C3140 C3141 1.415 . S
C3141 H3117 0.950 . S
C3141 C3136 1.363 . S
C3141 C3140 1.415 . S
C3142 H3118 0.951 . S
C3142 C3143 1.366 . S
C3142 C3144 1.388 . S
C3143 C3142 1.366 . S
C3143 C3147 1.385 . S
C3144 H3119 0.951 . S
C3144 C3142 1.388 . S
C3144 C3145 1.366 . S
C3145 C3144 1.366 . S
C3145 C3146 1.414 . S
C3145 C3148 1.499 . S
C3146 H3120 0.950 . S
C3146 C3145 1.414 . S
C3146 C3147 1.374 . S
C3147 H3121 0.950 . S
C3147 C3143 1.385 . S
C3147 C3146 1.374 . S
C3148 C3145 1.499 . S
C3148 C3149 1.373 . S
C3148 C3150 1.389 . S
C3149 H3122 0.950 . S
C3149 C3135 1.377 . S
C3149 C3148 1.373 . S
C3150 C3134 1.377 . S
C3150 C3148 1.389 . S
C3150 C3151 1.524 . S
C3151 C3150 1.524 . S
C3151 C3152 1.397 . S
C3151 C3156 1.363 . S
C3152 H3123 0.950 . S
C3152 C3151 1.397 . S
C3152 C3153 1.334 . S
C3153 H3124 0.950 . S
C3153 C3152 1.334 . S
C3153 C3154 1.287 . S
C3154 C3153 1.287 . S
C3154 C3155 1.524 . S
C3154 H3157 0.999 . S
C3155 H3125 0.950 . S
C3155 C3154 1.524 . S
C3155 C3156 1.415 . S
C3156 H3126 0.950 . S
C3156 C3151 1.363 . S
C3156 C3155 1.415 . S
H3157 C3154 0.999 . S
H3158 C3139 0.913 . S
H3159 C3177 0.951 . S
H3160 C3179 0.951 . S
H3161 C3181 0.950 . S
H3162 C3182 0.950 . S
H3163 C3184 0.950 . S
H3164 C3187 0.950 . S
H3165 C3188 0.950 . S
H3166 C3190 0.950 . S
H3167 C3191 0.950 . S
H3168 C3192 0.951 . S
H3169 C3194 0.951 . S
H3170 C3196 0.950 . S
H3171 C3197 0.950 . S
H3172 C3199 0.950 . S
H3173 C3202 0.950 . S
H3174 C3203 0.950 . S
H3175 C3205 0.950 . S
H3176 C3206 0.950 . S
C3177 H3159 0.951 . S
C3177 C3178 1.366 . S
C3177 C3179 1.388 . S
C3178 C3177 1.366 . S
C3178 C3182 1.385 . S
C3179 H3160 0.951 . S
C3179 C3177 1.388 . S
C3179 C3180 1.366 . S
C3180 C3179 1.366 . S
C3180 C3181 1.414 . S
C3180 C3183 1.499 . S
C3181 H3161 0.950 . S
C3181 C3180 1.414 . S
C3181 C3182 1.374 . S
C3182 H3162 0.950 . S
C3182 C3178 1.385 . S
C3182 C3181 1.374 . S
C3183 C3180 1.499 . S
C3183 C3184 1.373 . S
C3183 C3185 1.389 . S
C3184 H3163 0.950 . S
C3184 C3183 1.373 . S
C3184 C3200 1.377 . S
C3185 C3183 1.389 . S
C3185 C3186 1.524 . S
C3185 C3199 1.377 . S
C3186 C3185 1.524 . S
C3186 C3187 1.397 . S
C3186 C3191 1.363 . S
C3187 H3164 0.950 . S
C3187 C3186 1.397 . S
C3187 C3188 1.334 . S
C3188 H3165 0.950 . S
C3188 C3187 1.334 . S
C3188 C3189 1.287 . S
C3189 C3188 1.287 . S
C3189 C3190 1.524 . S
C3189 H3208 0.913 . S
C3190 H3166 0.950 . S
C3190 C3189 1.524 . S
C3190 C3191 1.415 . S
C3191 H3167 0.950 . S
C3191 C3186 1.363 . S
C3191 C3190 1.415 . S
C3192 H3168 0.951 . S
C3192 C3193 1.366 . S
C3192 C3194 1.388 . S
C3193 C3192 1.366 . S
C3193 C3197 1.385 . S
C3194 H3169 0.951 . S
C3194 C3192 1.388 . S
C3194 C3195 1.366 . S
C3195 C3194 1.366 . S
C3195 C3196 1.414 . S
C3195 C3198 1.499 . S
C3196 H3170 0.950 . S
C3196 C3195 1.414 . S
C3196 C3197 1.374 . S
C3197 H3171 0.950 . S
C3197 C3193 1.385 . S
C3197 C3196 1.374 . S
C3198 C3195 1.499 . S
C3198 C3199 1.373 . S
C3198 C3200 1.389 . S
C3199 H3172 0.950 . S
C3199 C3185 1.377 . S
C3199 C3198 1.373 . S
C3200 C3184 1.377 . S
C3200 C3198 1.389 . S
C3200 C3201 1.524 . S
C3201 C3200 1.524 . S
C3201 C3202 1.397 . S
C3201 C3206 1.363 . S
C3202 H3173 0.950 . S
C3202 C3201 1.397 . S
C3202 C3203 1.334 . S
C3203 H3174 0.950 . S
C3203 C3202 1.334 . S
C3203 C3204 1.287 . S
C3204 C3203 1.287 . S
C3204 C3205 1.524 . S
C3204 H3207 0.999 . S
C3205 H3175 0.950 . S
C3205 C3204 1.524 . S
C3205 C3206 1.415 . S
C3206 H3176 0.950 . S
C3206 C3201 1.363 . S
C3206 C3205 1.415 . S
H3207 C3204 0.999 . S
H3208 C3189 0.913 . S
H3209 C3227 0.951 . S
H3210 C3229 0.951 . S
H3211 C3231 0.950 . S
H3212 C3232 0.950 . S
H3213 C3234 0.950 . S
H3214 C3237 0.950 . S
H3215 C3238 0.950 . S
H3216 C3240 0.950 . S
H3217 C3241 0.950 . S
H3218 C3242 0.951 . S
H3219 C3244 0.951 . S
H3220 C3246 0.950 . S
H3221 C3247 0.950 . S
H3222 C3249 0.950 . S
H3223 C3252 0.950 . S
H3224 C3253 0.950 . S
H3225 C3255 0.950 . S
H3226 C3256 0.950 . S
C3227 H3209 0.951 . S
C3227 C3228 1.366 . S
C3227 C3229 1.388 . S
C3228 C3227 1.366 . S
C3228 C3232 1.385 . S
C3229 H3210 0.951 . S
C3229 C3227 1.388 . S
C3229 C3230 1.366 . S
C3230 C3229 1.366 . S
C3230 C3231 1.414 . S
C3230 C3233 1.499 . S
C3231 H3211 0.950 . S
C3231 C3230 1.414 . S
C3231 C3232 1.374 . S
C3232 H3212 0.950 . S
C3232 C3228 1.385 . S
C3232 C3231 1.374 . S
C3233 C3230 1.499 . S
C3233 C3234 1.373 . S
C3233 C3235 1.389 . S
C3234 H3213 0.950 . S
C3234 C3233 1.373 . S
C3234 C3250 1.377 . S
C3235 C3233 1.389 . S
C3235 C3236 1.524 . S
C3235 C3249 1.377 . S
C3236 C3235 1.524 . S
C3236 C3237 1.397 . S
C3236 C3241 1.363 . S
C3237 H3214 0.950 . S
C3237 C3236 1.397 . S
C3237 C3238 1.334 . S
C3238 H3215 0.950 . S
C3238 C3237 1.334 . S
C3238 C3239 1.287 . S
C3239 C3238 1.287 . S
C3239 C3240 1.524 . S
C3239 H3258 0.913 . S
C3240 H3216 0.950 . S
C3240 C3239 1.524 . S
C3240 C3241 1.415 . S
C3241 H3217 0.950 . S
C3241 C3236 1.363 . S
C3241 C3240 1.415 . S
C3242 H3218 0.951 . S
C3242 C3243 1.366 . S
C3242 C3244 1.388 . S
C3243 C3242 1.366 . S
C3243 C3247 1.385 . S
C3244 H3219 0.951 . S
C3244 C3242 1.388 . S
C3244 C3245 1.366 . S
C3245 C3244 1.366 . S
C3245 C3246 1.414 . S
C3245 C3248 1.499 . S
C3246 H3220 0.950 . S
C3246 C3245 1.414 . S
C3246 C3247 1.374 . S
C3247 H3221 0.950 . S
C3247 C3243 1.385 . S
C3247 C3246 1.374 . S
C3248 C3245 1.499 . S
C3248 C3249 1.373 . S
C3248 C3250 1.389 . S
C3249 H3222 0.950 . S
C3249 C3235 1.377 . S
C3249 C3248 1.373 . S
C3250 C3234 1.377 . S
C3250 C3248 1.389 . S
C3250 C3251 1.524 . S
C3251 C3250 1.524 . S
C3251 C3252 1.397 . S
C3251 C3256 1.363 . S
C3252 H3223 0.950 . S
C3252 C3251 1.397 . S
C3252 C3253 1.334 . S
C3253 H3224 0.950 . S
C3253 C3252 1.334 . S
C3253 C3254 1.287 . S
C3254 C3253 1.287 . S
C3254 C3255 1.524 . S
C3254 H3257 0.999 . S
C3255 H3225 0.950 . S
C3255 C3254 1.524 . S
C3255 C3256 1.415 . S
C3256 H3226 0.950 . S
C3256 C3251 1.363 . S
C3256 C3255 1.415 . S
H3257 C3254 0.999 . S
H3258 C3239 0.913 . S
H3259 C3277 0.951 . S
H3260 C3279 0.951 . S
H3261 C3281 0.950 . S
H3262 C3282 0.950 . S
H3263 C3284 0.950 . S
H3264 C3287 0.950 . S
H3265 C3288 0.950 . S
H3266 C3290 0.950 . S
H3267 C3291 0.950 . S
H3268 C3292 0.951 . S
H3269 C3294 0.951 . S
H3270 C3296 0.950 . S
H3271 C3297 0.950 . S
H3272 C3299 0.950 . S
H3273 C3302 0.950 . S
H3274 C3303 0.950 . S
H3275 C3305 0.950 . S
H3276 C3306 0.950 . S
C3277 H3259 0.951 . S
C3277 C3278 1.366 . S
C3277 C3279 1.388 . S
C3278 C3277 1.366 . S
C3278 C3282 1.385 . S
C3279 H3260 0.951 . S
C3279 C3277 1.388 . S
C3279 C3280 1.366 . S
C3280 C3279 1.366 . S
C3280 C3281 1.414 . S
C3280 C3283 1.499 . S
C3281 H3261 0.950 . S
C3281 C3280 1.414 . S
C3281 C3282 1.374 . S
C3282 H3262 0.950 . S
C3282 C3278 1.385 . S
C3282 C3281 1.374 . S
C3283 C3280 1.499 . S
C3283 C3284 1.373 . S
C3283 C3285 1.389 . S
C3284 H3263 0.950 . S
C3284 C3283 1.373 . S
C3284 C3300 1.377 . S
C3285 C3283 1.389 . S
C3285 C3286 1.524 . S
C3285 C3299 1.377 . S
C3286 C3285 1.524 . S
C3286 C3287 1.397 . S
C3286 C3291 1.363 . S
C3287 H3264 0.950 . S
C3287 C3286 1.397 . S
C3287 C3288 1.334 . S
C3288 H3265 0.950 . S
C3288 C3287 1.334 . S
C3288 C3289 1.287 . S
C3289 C3288 1.287 . S
C3289 C3290 1.524 . S
C3289 H3308 0.913 . S
C3290 H3266 0.950 . S
C3290 C3289 1.524 . S
C3290 C3291 1.415 . S
C3291 H3267 0.950 . S
C3291 C3286 1.363 . S
C3291 C3290 1.415 . S
C3292 H3268 0.951 . S
C3292 C3293 1.366 . S
C3292 C3294 1.388 . S
C3293 C3292 1.366 . S
C3293 C3297 1.385 . S
C3294 H3269 0.951 . S
C3294 C3292 1.388 . S
C3294 C3295 1.366 . S
C3295 C3294 1.366 . S
C3295 C3296 1.414 . S
C3295 C3298 1.499 . S
C3296 H3270 0.950 . S
C3296 C3295 1.414 . S
C3296 C3297 1.374 . S
C3297 H3271 0.950 . S
C3297 C3293 1.385 . S
C3297 C3296 1.374 . S
C3298 C3295 1.499 . S
C3298 C3299 1.373 . S
C3298 C3300 1.389 . S
C3299 H3272 0.950 . S
C3299 C3285 1.377 . S
C3299 C3298 1.373 . S
C3300 C3284 1.377 . S
C3300 C3298 1.389 . S
C3300 C3301 1.524 . S
C3301 C3300 1.524 . S
C3301 C3302 1.397 . S
C3301 C3306 1.363 . S
C3302 H3273 0.950 . S
C3302 C3301 1.397 . S
C3302 C3303 1.334 . S
C3303 H3274 0.950 . S
C3303 C3302 1.334 . S
C3303 C3304 1.287 . S
C3304 C3303 1.287 . S
C3304 C3305 1.524 . S
C3304 H3307 0.999 . S
C3305 H3275 0.950 . S
C3305 C3304 1.524 . S
C3305 C3306 1.415 . S
C3306 H3276 0.950 . S
C3306 C3301 1.363 . S
C3306 C3305 1.415 . S
H3307 C3304 0.999 . S
H3308 C3289 0.913 . S
H3309 C3327 0.951 . S
H3310 C3329 0.951 . S
H3311 C3331 0.950 . S
H3312 C3332 0.950 . S
H3313 C3334 0.950 . S
H3314 C3337 0.950 . S
H3315 C3338 0.950 . S
H3316 C3340 0.950 . S
H3317 C3341 0.950 . S
H3318 C3342 0.951 . S
H3319 C3344 0.951 . S
H3320 C3346 0.950 . S
H3321 C3347 0.950 . S
H3322 C3349 0.950 . S
H3323 C3352 0.950 . S
H3324 C3353 0.950 . S
H3325 C3355 0.950 . S
H3326 C3356 0.950 . S
C3327 H3309 0.951 . S
C3327 C3328 1.366 . S
C3327 C3329 1.388 . S
C3328 C3327 1.366 . S
C3328 C3332 1.385 . S
C3329 H3310 0.951 . S
C3329 C3327 1.388 . S
C3329 C3330 1.366 . S
C3330 C3329 1.366 . S
C3330 C3331 1.414 . S
C3330 C3333 1.499 . S
C3331 H3311 0.950 . S
C3331 C3330 1.414 . S
C3331 C3332 1.374 . S
C3332 H3312 0.950 . S
C3332 C3328 1.385 . S
C3332 C3331 1.374 . S
C3333 C3330 1.499 . S
C3333 C3334 1.373 . S
C3333 C3335 1.389 . S
C3334 H3313 0.950 . S
C3334 C3333 1.373 . S
C3334 C3350 1.377 . S
C3335 C3333 1.389 . S
C3335 C3336 1.524 . S
C3335 C3349 1.377 . S
C3336 C3335 1.524 . S
C3336 C3337 1.397 . S
C3336 C3341 1.363 . S
C3337 H3314 0.950 . S
C3337 C3336 1.397 . S
C3337 C3338 1.334 . S
C3338 H3315 0.950 . S
C3338 C3337 1.334 . S
C3338 C3339 1.287 . S
C3339 C3338 1.287 . S
C3339 C3340 1.524 . S
C3339 H3358 0.913 . S
C3340 H3316 0.950 . S
C3340 C3339 1.524 . S
C3340 C3341 1.415 . S
C3341 H3317 0.950 . S
C3341 C3336 1.363 . S
C3341 C3340 1.415 . S
C3342 H3318 0.951 . S
C3342 C3343 1.366 . S
C3342 C3344 1.388 . S
C3343 C3342 1.366 . S
C3343 C3347 1.385 . S
C3344 H3319 0.951 . S
C3344 C3342 1.388 . S
C3344 C3345 1.366 . S
C3345 C3344 1.366 . S
C3345 C3346 1.414 . S
C3345 C3348 1.499 . S
C3346 H3320 0.950 . S
C3346 C3345 1.414 . S
C3346 C3347 1.374 . S
C3347 H3321 0.950 . S
C3347 C3343 1.385 . S
C3347 C3346 1.374 . S
C3348 C3345 1.499 . S
C3348 C3349 1.373 . S
C3348 C3350 1.389 . S
C3349 H3322 0.950 . S
C3349 C3335 1.377 . S
C3349 C3348 1.373 . S
C3350 C3334 1.377 . S
C3350 C3348 1.389 . S
C3350 C3351 1.524 . S
C3351 C3350 1.524 . S
C3351 C3352 1.397 . S
C3351 C3356 1.363 . S
C3352 H3323 0.950 . S
C3352 C3351 1.397 . S
C3352 C3353 1.334 . S
C3353 H3324 0.950 . S
C3353 C3352 1.334 . S
C3353 C3354 1.287 . S
C3354 C3353 1.287 . S
C3354 C3355 1.524 . S
C3354 H3357 0.999 . S
C3355 H3325 0.950 . S
C3355 C3354 1.524 . S
C3355 C3356 1.415 . S
C3356 H3326 0.950 . S
C3356 C3351 1.363 . S
C3356 C3355 1.415 . S
H3357 C3354 0.999 . S
H3358 C3339 0.913 . S
H3359 C3377 0.951 . S
H3360 C3379 0.951 . S
H3361 C3381 0.950 . S
H3362 C3382 0.950 . S
H3363 C3384 0.950 . S
H3364 C3387 0.950 . S
H3365 C3388 0.950 . S
H3366 C3390 0.950 . S
H3367 C3391 0.950 . S
H3368 C3392 0.951 . S
H3369 C3394 0.951 . S
H3370 C3396 0.950 . S
H3371 C3397 0.950 . S
H3372 C3399 0.950 . S
H3373 C3402 0.950 . S
H3374 C3403 0.950 . S
H3375 C3405 0.950 . S
H3376 C3406 0.950 . S
C3377 H3359 0.951 . S
C3377 C3378 1.366 . S
C3377 C3379 1.388 . S
C3378 C3377 1.366 . S
C3378 C3382 1.385 . S
C3379 H3360 0.951 . S
C3379 C3377 1.388 . S
C3379 C3380 1.366 . S
C3380 C3379 1.366 . S
C3380 C3381 1.414 . S
C3380 C3383 1.499 . S
C3381 H3361 0.950 . S
C3381 C3380 1.414 . S
C3381 C3382 1.374 . S
C3382 H3362 0.950 . S
C3382 C3378 1.385 . S
C3382 C3381 1.374 . S
C3383 C3380 1.499 . S
C3383 C3384 1.373 . S
C3383 C3385 1.389 . S
C3384 H3363 0.950 . S
C3384 C3383 1.373 . S
C3384 C3400 1.377 . S
C3385 C3383 1.389 . S
C3385 C3386 1.524 . S
C3385 C3399 1.377 . S
C3386 C3385 1.524 . S
C3386 C3387 1.397 . S
C3386 C3391 1.363 . S
C3387 H3364 0.950 . S
C3387 C3386 1.397 . S
C3387 C3388 1.334 . S
C3388 H3365 0.950 . S
C3388 C3387 1.334 . S
C3388 C3389 1.287 . S
C3389 C3388 1.287 . S
C3389 C3390 1.524 . S
C3389 H3408 0.913 . S
C3390 H3366 0.950 . S
C3390 C3389 1.524 . S
C3390 C3391 1.415 . S
C3391 H3367 0.950 . S
C3391 C3386 1.363 . S
C3391 C3390 1.415 . S
C3392 H3368 0.951 . S
C3392 C3393 1.366 . S
C3392 C3394 1.388 . S
C3393 C3392 1.366 . S
C3393 C3397 1.385 . S
C3394 H3369 0.951 . S
C3394 C3392 1.388 . S
C3394 C3395 1.366 . S
C3395 C3394 1.366 . S
C3395 C3396 1.414 . S
C3395 C3398 1.499 . S
C3396 H3370 0.950 . S
C3396 C3395 1.414 . S
C3396 C3397 1.374 . S
C3397 H3371 0.950 . S
C3397 C3393 1.385 . S
C3397 C3396 1.374 . S
C3398 C3395 1.499 . S
C3398 C3399 1.373 . S
C3398 C3400 1.389 . S
C3399 H3372 0.950 . S
C3399 C3385 1.377 . S
C3399 C3398 1.373 . S
C3400 C3384 1.377 . S
C3400 C3398 1.389 . S
C3400 C3401 1.524 . S
C3401 C3400 1.524 . S
C3401 C3402 1.397 . S
C3401 C3406 1.363 . S
C3402 H3373 0.950 . S
C3402 C3401 1.397 . S
C3402 C3403 1.334 . S
C3403 H3374 0.950 . S
C3403 C3402 1.334 . S
C3403 C3404 1.287 . S
C3404 C3403 1.287 . S
C3404 C3405 1.524 . S
C3404 H3407 0.999 . S
C3405 H3375 0.950 . S
C3405 C3404 1.524 . S
C3405 C3406 1.415 . S
C3406 H3376 0.950 . S
C3406 C3401 1.363 . S
C3406 C3405 1.415 . S
H3407 C3404 0.999 . S
H3408 C3389 0.913 . S
H3409 C3427 0.951 . S
H3410 C3429 0.951 . S
H3411 C3431 0.950 . S
H3412 C3432 0.950 . S
H3413 C3434 0.950 . S
H3414 C3437 0.950 . S
H3415 C3438 0.950 . S
H3416 C3440 0.950 . S
H3417 C3441 0.950 . S
H3418 C3442 0.951 . S
H3419 C3444 0.951 . S
H3420 C3446 0.950 . S
H3421 C3447 0.950 . S
H3422 C3449 0.950 . S
H3423 C3452 0.950 . S
H3424 C3453 0.950 . S
H3425 C3455 0.950 . S
H3426 C3456 0.950 . S
C3427 H3409 0.951 . S
C3427 C3428 1.366 . S
C3427 C3429 1.388 . S
C3428 C3427 1.366 . S
C3428 C3432 1.385 . S
C3429 H3410 0.951 . S
C3429 C3427 1.388 . S
C3429 C3430 1.366 . S
C3430 C3429 1.366 . S
C3430 C3431 1.414 . S
C3430 C3433 1.499 . S
C3431 H3411 0.950 . S
C3431 C3430 1.414 . S
C3431 C3432 1.374 . S
C3432 H3412 0.950 . S
C3432 C3428 1.385 . S
C3432 C3431 1.374 . S
C3433 C3430 1.499 . S
C3433 C3434 1.373 . S
C3433 C3435 1.389 . S
C3434 H3413 0.950 . S
C3434 C3433 1.373 . S
C3434 C3450 1.377 . S
C3435 C3433 1.389 . S
C3435 C3436 1.524 . S
C3435 C3449 1.377 . S
C3436 C3435 1.524 . S
C3436 C3437 1.397 . S
C3436 C3441 1.363 . S
C3437 H3414 0.950 . S
C3437 C3436 1.397 . S
C3437 C3438 1.334 . S
C3438 H3415 0.950 . S
C3438 C3437 1.334 . S
C3438 C3439 1.287 . S
C3439 C3438 1.287 . S
C3439 C3440 1.524 . S
C3439 H3458 0.913 . S
C3440 H3416 0.950 . S
C3440 C3439 1.524 . S
C3440 C3441 1.415 . S
C3441 H3417 0.950 . S
C3441 C3436 1.363 . S
C3441 C3440 1.415 . S
C3442 H3418 0.951 . S
C3442 C3443 1.366 . S
C3442 C3444 1.388 . S
C3443 C3442 1.366 . S
C3443 C3447 1.385 . S
C3444 H3419 0.951 . S
C3444 C3442 1.388 . S
C3444 C3445 1.366 . S
C3445 C3444 1.366 . S
C3445 C3446 1.414 . S
C3445 C3448 1.499 . S
C3446 H3420 0.950 . S
C3446 C3445 1.414 . S
C3446 C3447 1.374 . S
C3447 H3421 0.950 . S
C3447 C3443 1.385 . S
C3447 C3446 1.374 . S
C3448 C3445 1.499 . S
C3448 C3449 1.373 . S
C3448 C3450 1.389 . S
C3449 H3422 0.950 . S
C3449 C3435 1.377 . S
C3449 C3448 1.373 . S
C3450 C3434 1.377 . S
C3450 C3448 1.389 . S
C3450 C3451 1.524 . S
C3451 C3450 1.524 . S
C3451 C3452 1.397 . S
C3451 C3456 1.363 . S
C3452 H3423 0.950 . S
C3452 C3451 1.397 . S
C3452 C3453 1.334 . S
C3453 H3424 0.950 . S
C3453 C3452 1.334 . S
C3453 C3454 1.287 . S
C3454 C3453 1.287 . S
C3454 C3455 1.524 . S
C3454 H3457 0.999 . S
C3455 H3425 0.950 . S
C3455 C3454 1.524 . S
C3455 C3456 1.415 . S
C3456 H3426 0.950 . S
C3456 C3451 1.363 . S
C3456 C3455 1.415 . S
H3457 C3454 0.999 . S
H3458 C3439 0.913 . S
H3459 C3477 0.951 . S
H3460 C3479 0.951 . S
H3461 C3481 0.950 . S
H3462 C3482 0.950 . S
H3463 C3484 0.950 . S
H3464 C3487 0.950 . S
H3465 C3488 0.950 . S
H3466 C3490 0.950 . S
H3467 C3491 0.950 . S
H3468 C3492 0.951 . S
H3469 C3494 0.951 . S
H3470 C3496 0.950 . S
H3471 C3497 0.950 . S
H3472 C3499 0.950 . S
H3473 C3502 0.950 . S
H3474 C3503 0.950 . S
H3475 C3505 0.950 . S
H3476 C3506 0.950 . S
C3477 H3459 0.951 . S
C3477 C3478 1.366 . S
C3477 C3479 1.388 . S
C3478 C3477 1.366 . S
C3478 C3482 1.385 . S
C3479 H3460 0.951 . S
C3479 C3477 1.388 . S
C3479 C3480 1.366 . S
C3480 C3479 1.366 . S
C3480 C3481 1.414 . S
C3480 C3483 1.499 . S
C3481 H3461 0.950 . S
C3481 C3480 1.414 . S
C3481 C3482 1.374 . S
C3482 H3462 0.950 . S
C3482 C3478 1.385 . S
C3482 C3481 1.374 . S
C3483 C3480 1.499 . S
C3483 C3484 1.373 . S
C3483 C3485 1.389 . S
C3484 H3463 0.950 . S
C3484 C3483 1.373 . S
C3484 C3500 1.377 . S
C3485 C3483 1.389 . S
C3485 C3486 1.524 . S
C3485 C3499 1.377 . S
C3486 C3485 1.524 . S
C3486 C3487 1.397 . S
C3486 C3491 1.363 . S
C3487 H3464 0.950 . S
C3487 C3486 1.397 . S
C3487 C3488 1.334 . S
C3488 H3465 0.950 . S
C3488 C3487 1.334 . S
C3488 C3489 1.287 . S
C3489 C3488 1.287 . S
C3489 C3490 1.524 . S
C3489 H3508 0.913 . S
C3490 H3466 0.950 . S
C3490 C3489 1.524 . S
C3490 C3491 1.415 . S
C3491 H3467 0.950 . S
C3491 C3486 1.363 . S
C3491 C3490 1.415 . S
C3492 H3468 0.951 . S
C3492 C3493 1.366 . S
C3492 C3494 1.388 . S
C3493 C3492 1.366 . S
C3493 C3497 1.385 . S
C3494 H3469 0.951 . S
C3494 C3492 1.388 . S
C3494 C3495 1.366 . S
C3495 C3494 1.366 . S
C3495 C3496 1.414 . S
C3495 C3498 1.499 . S
C3496 H3470 0.950 . S
C3496 C3495 1.414 . S
C3496 C3497 1.374 . S
C3497 H3471 0.950 . S
C3497 C3493 1.385 . S
C3497 C3496 1.374 . S
C3498 C3495 1.499 . S
C3498 C3499 1.373 . S
C3498 C3500 1.389 . S
C3499 H3472 0.950 . S
C3499 C3485 1.377 . S
C3499 C3498 1.373 . S
C3500 C3484 1.377 . S
C3500 C3498 1.389 . S
C3500 C3501 1.524 . S
C3501 C3500 1.524 . S
C3501 C3502 1.397 . S
C3501 C3506 1.363 . S
C3502 H3473 0.950 . S
C3502 C3501 1.397 . S
C3502 C3503 1.334 . S
C3503 H3474 0.950 . S
C3503 C3502 1.334 . S
C3503 C3504 1.287 . S
C3504 C3503 1.287 . S
C3504 C3505 1.524 . S
C3504 H3507 0.999 . S
C3505 H3475 0.950 . S
C3505 C3504 1.524 . S
C3505 C3506 1.415 . S
C3506 H3476 0.950 . S
C3506 C3501 1.363 . S
C3506 C3505 1.415 . S
H3507 C3504 0.999 . S
H3508 C3489 0.913 . S
H3509 C3527 0.951 . S
H3510 C3529 0.951 . S
H3511 C3531 0.950 . S
H3512 C3532 0.950 . S
H3513 C3534 0.950 . S
H3514 C3537 0.950 . S
H3515 C3538 0.950 . S
H3516 C3540 0.950 . S
H3517 C3541 0.950 . S
H3518 C3542 0.951 . S
H3519 C3544 0.951 . S
H3520 C3546 0.950 . S
H3521 C3547 0.950 . S
H3522 C3549 0.950 . S
H3523 C3552 0.950 . S
H3524 C3553 0.950 . S
H3525 C3555 0.950 . S
H3526 C3556 0.950 . S
C3527 H3509 0.951 . S
C3527 C3528 1.366 . S
C3527 C3529 1.388 . S
C3528 C3527 1.366 . S
C3528 C3532 1.385 . S
C3529 H3510 0.951 . S
C3529 C3527 1.388 . S
C3529 C3530 1.366 . S
C3530 C3529 1.366 . S
C3530 C3531 1.414 . S
C3530 C3533 1.499 . S
C3531 H3511 0.950 . S
C3531 C3530 1.414 . S
C3531 C3532 1.374 . S
C3532 H3512 0.950 . S
C3532 C3528 1.385 . S
C3532 C3531 1.374 . S
C3533 C3530 1.499 . S
C3533 C3534 1.373 . S
C3533 C3535 1.389 . S
C3534 H3513 0.950 . S
C3534 C3533 1.373 . S
C3534 C3550 1.377 . S
C3535 C3533 1.389 . S
C3535 C3536 1.524 . S
C3535 C3549 1.377 . S
C3536 C3535 1.524 . S
C3536 C3537 1.397 . S
C3536 C3541 1.363 . S
C3537 H3514 0.950 . S
C3537 C3536 1.397 . S
C3537 C3538 1.334 . S
C3538 H3515 0.950 . S
C3538 C3537 1.334 . S
C3538 C3539 1.287 . S
C3539 C3538 1.287 . S
C3539 C3540 1.524 . S
C3539 H3558 0.913 . S
C3540 H3516 0.950 . S
C3540 C3539 1.524 . S
C3540 C3541 1.415 . S
C3541 H3517 0.950 . S
C3541 C3536 1.363 . S
C3541 C3540 1.415 . S
C3542 H3518 0.951 . S
C3542 C3543 1.366 . S
C3542 C3544 1.388 . S
C3543 C3542 1.366 . S
C3543 C3547 1.385 . S
C3544 H3519 0.951 . S
C3544 C3542 1.388 . S
C3544 C3545 1.366 . S
C3545 C3544 1.366 . S
C3545 C3546 1.414 . S
C3545 C3548 1.499 . S
C3546 H3520 0.950 . S
C3546 C3545 1.414 . S
C3546 C3547 1.374 . S
C3547 H3521 0.950 . S
C3547 C3543 1.385 . S
C3547 C3546 1.374 . S
C3548 C3545 1.499 . S
C3548 C3549 1.373 . S
C3548 C3550 1.389 . S
C3549 H3522 0.950 . S
C3549 C3535 1.377 . S
C3549 C3548 1.373 . S
C3550 C3534 1.377 . S
C3550 C3548 1.389 . S
C3550 C3551 1.524 . S
C3551 C3550 1.524 . S
C3551 C3552 1.397 . S
C3551 C3556 1.363 . S
C3552 H3523 0.950 . S
C3552 C3551 1.397 . S
C3552 C3553 1.334 . S
C3553 H3524 0.950 . S
C3553 C3552 1.334 . S
C3553 C3554 1.287 . S
C3554 C3553 1.287 . S
C3554 C3555 1.524 . S
C3554 H3557 0.999 . S
C3555 H3525 0.950 . S
C3555 C3554 1.524 . S
C3555 C3556 1.415 . S
C3556 H3526 0.950 . S
C3556 C3551 1.363 . S
C3556 C3555 1.415 . S
H3557 C3554 0.999 . S
H3558 C3539 0.913 . S
H3559 C3577 0.951 . S
H3560 C3579 0.951 . S
H3561 C3581 0.950 . S
H3562 C3582 0.950 . S
H3563 C3584 0.950 . S
H3564 C3587 0.950 . S
H3565 C3588 0.950 . S
H3566 C3590 0.950 . S
H3567 C3591 0.950 . S
H3568 C3592 0.951 . S
H3569 C3594 0.951 . S
H3570 C3596 0.950 . S
H3571 C3597 0.950 . S
H3572 C3599 0.950 . S
H3573 C3602 0.950 . S
H3574 C3603 0.950 . S
H3575 C3605 0.950 . S
H3576 C3606 0.950 . S
C3577 H3559 0.951 . S
C3577 C3578 1.366 . S
C3577 C3579 1.388 . S
C3578 C3577 1.366 . S
C3578 C3582 1.385 . S
C3579 H3560 0.951 . S
C3579 C3577 1.388 . S
C3579 C3580 1.366 . S
C3580 C3579 1.366 . S
C3580 C3581 1.414 . S
C3580 C3583 1.499 . S
C3581 H3561 0.950 . S
C3581 C3580 1.414 . S
C3581 C3582 1.374 . S
C3582 H3562 0.950 . S
C3582 C3578 1.385 . S
C3582 C3581 1.374 . S
C3583 C3580 1.499 . S
C3583 C3584 1.373 . S
C3583 C3585 1.389 . S
C3584 H3563 0.950 . S
C3584 C3583 1.373 . S
C3584 C3600 1.377 . S
C3585 C3583 1.389 . S
C3585 C3586 1.524 . S
C3585 C3599 1.377 . S
C3586 C3585 1.524 . S
C3586 C3587 1.397 . S
C3586 C3591 1.363 . S
C3587 H3564 0.950 . S
C3587 C3586 1.397 . S
C3587 C3588 1.334 . S
C3588 H3565 0.950 . S
C3588 C3587 1.334 . S
C3588 C3589 1.287 . S
C3589 C3588 1.287 . S
C3589 C3590 1.524 . S
C3589 H3608 0.913 . S
C3590 H3566 0.950 . S
C3590 C3589 1.524 . S
C3590 C3591 1.415 . S
C3591 H3567 0.950 . S
C3591 C3586 1.363 . S
C3591 C3590 1.415 . S
C3592 H3568 0.951 . S
C3592 C3593 1.366 . S
C3592 C3594 1.388 . S
C3593 C3592 1.366 . S
C3593 C3597 1.385 . S
C3594 H3569 0.951 . S
C3594 C3592 1.388 . S
C3594 C3595 1.366 . S
C3595 C3594 1.366 . S
C3595 C3596 1.414 . S
C3595 C3598 1.499 . S
C3596 H3570 0.950 . S
C3596 C3595 1.414 . S
C3596 C3597 1.374 . S
C3597 H3571 0.950 . S
C3597 C3593 1.385 . S
C3597 C3596 1.374 . S
C3598 C3595 1.499 . S
C3598 C3599 1.373 . S
C3598 C3600 1.389 . S
C3599 H3572 0.950 . S
C3599 C3585 1.377 . S
C3599 C3598 1.373 . S
C3600 C3584 1.377 . S
C3600 C3598 1.389 . S
C3600 C3601 1.524 . S
C3601 C3600 1.524 . S
C3601 C3602 1.397 . S
C3601 C3606 1.363 . S
C3602 H3573 0.950 . S
C3602 C3601 1.397 . S
C3602 C3603 1.334 . S
C3603 H3574 0.950 . S
C3603 C3602 1.334 . S
C3603 C3604 1.287 . S
C3604 C3603 1.287 . S
C3604 C3605 1.524 . S
C3604 H3607 0.999 . S
C3605 H3575 0.950 . S
C3605 C3604 1.524 . S
C3605 C3606 1.415 . S
C3606 H3576 0.950 . S
C3606 C3601 1.363 . S
C3606 C3605 1.415 . S
H3607 C3604 0.999 . S
H3608 C3589 0.913 . S
C928 C522 1.420 . S
C943 C737 1.328 . S
C978 C562 1.412 . S
C993 C758 1.318 . S
C1028 C495 1.349 . S
C1043 C780 1.152 . S
C1078 C455 1.363 . S
C1093 C759 1.157 1_556 S
C1143 C779 1.325 . S
C1128 C362 1.425 . S
C1178 C402 1.382 . S
C1193 C738 1.151 1_556 S
C1243 C733 1.304 . S
C1228 C442 1.346 . S
C1293 C754 1.254 . S
C1278 C375 1.313 . S
C1328 C415 1.417 . S
C1343 C777 1.192 1_556 S
C1378 C535 1.353 . S
C1393 C756 1.150 . S
C1428 C575 1.258 . S
C1443 C775 1.199 . S
C1493 C735 1.173 . S
C1478 C482 1.354 . S
C1543 C800 1.328 . S
C1528 C42 1.420 . S
C1578 C82 1.412 . S
C1593 C821 1.318 . S
C1628 C15 1.349 . S
C1643 C843 1.151 . S
C1678 C695 1.362 . S
C1693 C822 1.156 . S
C1728 C602 1.425 . S
C1743 C842 1.326 . S
C1778 C642 1.382 . S
C1793 C801 1.152 . S
C1828 C682 1.346 . S
C1843 C796 1.304 . S
C1878 C615 1.312 . S
C1893 C817 1.254 . S
C1943 C840 1.193 . S
C1928 C655 1.417 . S
C1978 C55 1.352 . S
C1993 C819 1.148 . S
C2043 C838 1.199 . S
C2028 C95 1.259 . S
C2078 C2 1.354 . S
C2093 C798 1.173 . S
C2143 C863 1.329 . S
C2128 C282 1.420 . S
C2178 C322 1.412 . S
C2193 C884 1.318 . S
C2243 C906 1.150 . S
C2228 C255 1.349 . S
C2293 C885 1.156 . S
C2278 C215 1.362 . S
C2343 C905 1.326 . S
C2328 C122 1.425 . S
C2378 C162 1.382 . S
C2393 C864 1.151 . S
C2428 C202 1.346 . S
C2443 C859 1.305 . S
C2478 C135 1.313 . S
C2493 C880 1.253 . S
C2543 C903 1.191 . S
C2528 C175 1.416 . S
C2578 C295 1.352 . S
C2593 C882 1.148 . S
C2628 C335 1.258 . S
C2643 C901 1.199 . S
C2678 C242 1.354 . S
C2693 C861 1.173 . S
C2728 C621 1.367 . S
C2743 C736 1.315 1_565 S
C2793 C757 1.406 . S
C2778 C661 1.451 . S
C2828 C701 1.486 . S
C2843 C776 1.489 . S
C2878 C261 1.552 . S
C2893 C755 1.549 1_655 S
C2928 C301 1.448 . S
C2943 C778 1.401 . S
C2993 C734 1.446 . S
C2978 C341 1.485 . S
C3028 C141 1.367 . S
C3043 C799 1.321 . S
C3078 C181 1.451 . S
C3093 C820 1.406 . S
C3128 C221 1.486 . S
C3143 C839 1.488 . S
C3178 C501 1.551 . S
C3193 C818 1.550 . S
C3243 C841 1.400 . S
C3228 C541 1.448 . S
C3278 C581 1.485 . S
C3293 C797 1.445 . S
C3328 C381 1.367 . S
C3343 C862 1.321 . S
C3378 C421 1.451 . S
C3393 C883 1.406 . S
C3443 C902 1.488 . S
C3428 C461 1.485 . S
C3478 C21 1.551 . S
C3493 C881 1.551 . S
C3528 C61 1.448 . S
C3543 C904 1.400 . S
C3578 C101 1.485 . S
C3593 C860 1.446 . S
