# Generated by pormake.
# Topology pyr, (3,6)-cn, num edge types: 1
# Building blocks:
#     Node 0, Type 0, BuildingBlock: OLANEW_clean_sbu_2, # of connection points: 3
#     Node 1, Type 0, BuildingBlock: OLANEW_clean_sbu_2, # of connection points: 3
#     Node 2, Type 0, BuildingBlock: OLANEW_clean_sbu_2, # of connection points: 3
#     Node 3, Type 0, BuildingBlock: OLANEW_clean_sbu_2, # of connection points: 3
#     Node 4, Type 0, BuildingBlock: OLANEW_clean_sbu_2, # of connection points: 3
#     Node 5, Type 0, BuildingBlock: OLANEW_clean_sbu_2, # of connection points: 3
#     Node 6, Type 0, BuildingBlock: OLANEW_clean_sbu_2, # of connection points: 3
#     Node 7, Type 0, BuildingBlock: OLANEW_clean_sbu_2, # of connection points: 3
#     Node 8, Type 1, BuildingBlock: FUNLAD_clean_sbu_0, # of connection points: 6
#     Node 9, Type 1, BuildingBlock: FUNLAD_clean_sbu_0, # of connection points: 6
#     Node 10, Type 1, BuildingBlock: FUNLAD_clean_sbu_0, # of connection points: 6
#     Node 11, Type 1, BuildingBlock: FUNLAD_clean_sbu_0, # of connection points: 6
#     Edge 12, Type (0, 1), BuildingBlock: OJICUG_clean_linker_0, # of connection points: 2
#     Edge 13, Type (0, 1), BuildingBlock: OJICUG_clean_linker_0, # of connection points: 2
#     Edge 14, Type (0, 1), BuildingBlock: OJICUG_clean_linker_0, # of connection points: 2
#     Edge 15, Type (0, 1), BuildingBlock: OJICUG_clean_linker_0, # of connection points: 2
#     Edge 16, Type (0, 1), BuildingBlock: OJICUG_clean_linker_0, # of connection points: 2
#     Edge 17, Type (0, 1), BuildingBlock: OJICUG_clean_linker_0, # of connection points: 2
#     Edge 18, Type (0, 1), BuildingBlock: OJICUG_clean_linker_0, # of connection points: 2
#     Edge 19, Type (0, 1), BuildingBlock: OJICUG_clean_linker_0, # of connection points: 2
#     Edge 20, Type (0, 1), BuildingBlock: OJICUG_clean_linker_0, # of connection points: 2
#     Edge 21, Type (0, 1), BuildingBlock: OJICUG_clean_linker_0, # of connection points: 2
#     Edge 22, Type (0, 1), BuildingBlock: OJICUG_clean_linker_0, # of connection points: 2
#     Edge 23, Type (0, 1), BuildingBlock: OJICUG_clean_linker_0, # of connection points: 2
#     Edge 24, Type (0, 1), BuildingBlock: OJICUG_clean_linker_0, # of connection points: 2
#     Edge 25, Type (0, 1), BuildingBlock: OJICUG_clean_linker_0, # of connection points: 2
#     Edge 26, Type (0, 1), BuildingBlock: OJICUG_clean_linker_0, # of connection points: 2
#     Edge 27, Type (0, 1), BuildingBlock: OJICUG_clean_linker_0, # of connection points: 2
#     Edge 28, Type (0, 1), BuildingBlock: OJICUG_clean_linker_0, # of connection points: 2
#     Edge 29, Type (0, 1), BuildingBlock: OJICUG_clean_linker_0, # of connection points: 2
#     Edge 30, Type (0, 1), BuildingBlock: OJICUG_clean_linker_0, # of connection points: 2
#     Edge 31, Type (0, 1), BuildingBlock: OJICUG_clean_linker_0, # of connection points: 2
#     Edge 32, Type (0, 1), BuildingBlock: OJICUG_clean_linker_0, # of connection points: 2
#     Edge 33, Type (0, 1), BuildingBlock: OJICUG_clean_linker_0, # of connection points: 2
#     Edge 34, Type (0, 1), BuildingBlock: OJICUG_clean_linker_0, # of connection points: 2
#     Edge 35, Type (0, 1), BuildingBlock: OJICUG_clean_linker_0, # of connection points: 2
# Relax obj value: 0.205
# Max RMSD: 0.176
# Mean RMSD: 0.120
data_MOF--net-pry--node1-OLANEW_clean_sbu_2--node2-FUNLAD_clean_sbu_0--edge1-OJICUG_clean_linker_0
_symmetry_space_group_name_H-M    P1
_symmetry_Int_Tables_number       1
_symmetry_cell_setting            triclinic
loop_
_symmetry_equiv_pos_as_xyz
'x, y, z'
_cell_length_a     28.109952
_cell_length_b     30.882268
_cell_length_c     30.900848
_cell_angle_alpha  94.30706
_cell_angle_beta   89.589476
_cell_angle_gamma 89.123056
loop_
_atom_site_label
_atom_site_type_symbol
_atom_site_fract_x
_atom_site_fract_y
_atom_site_fract_z
_atom_type_partial_charge
O0 O 0.24887 0.1865 0.17579 0.0
Cd1 Cd 0.18684 0.24124 0.20201 0.0
O2 O 0.24804 0.13381 0.22151 0.0
Cd3 Cd 0.1921 0.14428 0.27265 0.0
O4 O 0.15522 0.12859 0.33375 0.0
C5 C 0.14851 0.08896 0.3409 0.0
O6 O 0.16241 0.05861 0.31122 0.0
C7 C 0.2653 0.15065 0.18834 0.0
C8 C 0.154 0.30558 0.14728 0.0
O9 O 0.19565 0.30735 0.16384 0.0
O10 O 0.12847 0.27293 0.15492 0.0
O11 O 0.45641 0.90935 0.81945 0.0
Cd12 Cd 0.42257 0.87905 0.74926 0.0
O13 O 0.4159 0.97065 0.81585 0.0
Cd14 Cd 0.37604 0.95083 0.75695 0.0
O15 O 0.31635 0.94861 0.71133 0.0
C16 C 0.299 0.98534 0.70318 0.0
O17 O 0.31898 0.02054 0.72081 0.0
C18 C 0.4454 0.94754 0.83552 0.0
C19 C 0.45994 0.80309 0.70376 0.0
O20 O 0.4713 0.84074 0.69254 0.0
O21 O 0.43291 0.80143 0.73719 0.0
O22 O 0.75146 0.41798 0.95492 0.0
Cd23 Cd 0.72351 0.48703 0.98894 0.0
O24 O 0.7948 0.36509 0.92491 0.0
Cd25 Cd 0.85512 0.32031 0.91405 0.0
O26 O 0.80363 0.27359 0.93427 0.0
C27 C 0.78578 0.2825 0.97186 0.0
O28 O 0.80421 0.31409 0.99694 0.0
C29 C 0.79251 0.40169 0.94651 0.0
C30 C 0.66962 0.51388 0.92128 0.0
O31 O 0.65015 0.49287 0.95075 0.0
O32 O 0.71296 0.52543 0.92642 0.0
O33 O 0.97572 0.63272 0.5013 0.0
Cd34 Cd 0.93083 0.56727 0.48385 0.0
O35 O 0.98419 0.62921 0.57159 0.0
Cd36 Cd 0.93669 0.57442 0.56976 0.0
O37 O 0.86136 0.55983 0.57167 0.0
C38 C 0.83407 0.58385 0.5508 0.0
O39 O 0.85289 0.6137 0.52814 0.0
C40 C 0.99201 0.64828 0.53728 0.0
C41 C 0.93314 0.55775 0.3939 0.0
O42 O 0.90146 0.58202 0.41397 0.0
O43 O 0.96209 0.53637 0.41642 0.0
O44 O 0.94081 0.88218 0.83037 0.0
Cd45 Cd 0.90631 0.84211 0.89107 0.0
O46 O 0.89778 0.942 0.84546 0.0
Cd47 Cd 0.8579 0.92247 0.90244 0.0
O48 O 0.80068 0.92796 0.95211 0.0
C49 C 0.79559 0.96437 0.97395 0.0
O50 O 0.82578 0.99527 0.96716 0.0
C51 C 0.92862 0.9207 0.82169 0.0
C52 C 0.94769 0.76711 0.92527 0.0
O53 O 0.9262 0.7647 0.88871 0.0
O54 O 0.95206 0.80498 0.94474 0.0
O55 O 0.64422 0.10335 0.37428 0.0
Cd56 Cd 0.67017 0.1186 0.4503 0.0
O57 O 0.60781 0.16604 0.36395 0.0
Cd58 Cd 0.6159 0.20779 0.42513 0.0
O59 O 0.6046 0.26856 0.46793 0.0
C60 C 0.59163 0.30223 0.44934 0.0
O61 O 0.58654 0.29872 0.40698 0.0
C62 C 0.62054 0.12751 0.35016 0.0
C63 C 0.75973 0.08665 0.47589 0.0
O64 O 0.72327 0.06217 0.47447 0.0
O65 O 0.75432 0.12521 0.46372 0.0
O66 O 0.54415 0.65588 0.10288 0.0
Cd67 Cd 0.55592 0.57946 0.11361 0.0
O68 O 0.47334 0.64835 0.13062 0.0
Cd69 Cd 0.39945 0.66332 0.14973 0.0
O70 O 0.3234 0.65164 0.14334 0.0
C71 C 0.31024 0.64475 0.10423 0.0
O72 O 0.34197 0.64763 0.07316 0.0
C73 C 0.50467 0.67288 0.11599 0.0
C74 C 0.54553 0.5753 0.20249 0.0
O75 O 0.58642 0.58099 0.1854 0.0
O76 O 0.50992 0.56933 0.17719 0.0
O77 O 0.1091 0.5173 0.64734 0.0
Cd78 Cd 0.13479 0.53426 0.57478 0.0
O79 O 0.17628 0.48105 0.65139 0.0
Cd80 Cd 0.15984 0.45326 0.58686 0.0
O81 O 0.12178 0.39312 0.57408 0.0
C82 C 0.0928 0.38386 0.60371 0.0
O83 O 0.0854 0.4122 0.63705 0.0
C84 C 0.14107 0.50074 0.67016 0.0
C85 C 0.23429 0.536 0.57438 0.0
O86 O 0.20963 0.56536 0.59611 0.0
O87 O 0.21227 0.50684 0.55114 0.0
C88 C 0.06735 0.03757 0.50329 0.0
N89 N 0.03621 0.11573 0.61611 0.0
C90 C 0.07937 0.13246 0.60711 0.0
C91 C 0.08521 0.177 0.6076 0.0
C92 C 0.04625 0.20497 0.61702 0.0
C93 C 1.0028 0.18737 0.62921 0.0
C94 C 0.99844 0.14214 0.62833 0.0
Zn95 Zn 0.0297 0.0512 0.59742 0.0
C96 C 0.93887 0.03404 0.55087 0.0
N97 N 0.02491 0.91942 0.54897 0.0
C98 C 0.06321 0.89779 0.53013 0.0
C99 C 0.98598 0.89794 0.56169 0.0
C100 C 0.98582 0.8528 0.55843 0.0
C101 C 0.0258 0.82966 0.54133 0.0
C102 C 0.06422 0.85241 0.52559 0.0
Zn103 Zn 0.02868 0.98338 0.56871 0.0
O104 O 0.06004 0.06533 0.53529 0.0
C105 C 0.11967 1.00298 0.61483 0.0
O106 O 0.05699 0.99817 0.50752 0.0
H107 H 0.95597 0.91581 0.57658 0.0
H108 H 0.10879 0.11133 0.59644 0.0
H109 H 0.09392 0.91563 0.52064 0.0
O110 O 0.0977 0.03898 0.62183 0.0
O111 O 0.0996 0.97232 0.59245 0.0
H112 H 0.96426 0.12823 0.63477 0.0
O113 O 1.00165 0.96851 0.63041 0.0
O114 O 0.99939 0.03539 0.65961 0.0
O115 O 0.95704 0.99591 0.54494 0.0
O116 O 0.96185 0.06319 0.57258 0.0
C117 C 0.99298 0.99491 0.66312 0.0
H118 H 0.11953 0.1894 0.59881 0.0
H119 H 0.972 0.20812 0.63682 0.0
H120 H 0.95524 0.83608 0.57016 0.0
H121 H 0.09546 0.83534 0.51198 0.0
C122 C 0.622 0.00938 0.06929 0.0
N123 N 0.56409 0.13151 0.06346 0.0
C124 C 0.60064 0.14823 0.08786 0.0
C125 C 0.62924 0.18016 0.07292 0.0
C126 C 0.62162 0.19458 0.03171 0.0
C127 C 0.58252 0.17871 1.00765 0.0
C128 C 0.55364 0.14723 0.02449 0.0
Zn129 Zn 0.53885 0.07288 0.08133 0.0
C130 C 0.50354 0.01477 1.00766 0.0
N131 N 0.50566 0.94748 0.11994 0.0
C132 C 0.53955 0.92391 0.13936 0.0
C133 C 0.46437 0.92916 0.10553 0.0
C134 C 0.4574 0.88465 0.10785 0.0
C135 C 0.49353 0.85929 0.12474 0.0
C136 C 0.53429 0.87941 0.14184 0.0
Zn137 Zn 0.52379 1.0076 0.10322 0.0
O138 O 0.60848 0.04853 0.06754 0.0
C139 C 0.55969 0.0638 0.1773 0.0
O140 O 0.59306 0.98243 0.08332 0.0
H141 H 0.43817 0.94849 0.08981 0.0
H142 H 0.61107 0.13455 0.11741 0.0
H143 H 0.57214 0.93909 0.15042 0.0
O144 O 0.55678 0.09021 0.14783 0.0
O145 O 0.54895 0.02438 0.16797 0.0
H146 H 0.52507 0.1334 1.00503 0.0
O147 O 0.45404 0.03493 0.12189 0.0
O148 O 0.46931 0.09737 0.09505 0.0
O149 O 0.50012 0.99026 0.03874 0.0
O150 O 0.51908 0.05308 0.01547 0.0
C151 C 0.44066 0.07337 0.11416 0.0
H152 H 0.65966 0.19071 0.09207 0.0
H153 H 0.57565 0.18913 0.97556 0.0
H154 H 0.42568 0.8698 0.09415 0.0
H155 H 0.56278 0.86051 0.15504 0.0
C156 C 0.55239 0.47073 0.54178 0.0
N157 N 0.55206 0.5325 0.66907 0.0
C158 C 0.5394 0.49751 0.69063 0.0
C159 C 0.55447 0.49399 0.73355 0.0
C160 C 0.58245 0.52693 0.75395 0.0
C161 C 0.59303 0.56312 0.73125 0.0
C162 C 0.57832 0.56486 0.68882 0.0
Zn163 Zn 0.53758 0.54313 0.60572 0.0
C164 C 0.62988 0.57167 0.56522 0.0
N165 N 0.52037 0.58257 0.47819 0.0
C166 C 0.4946 0.5538 0.45283 0.0
C167 C 0.54439 0.61513 0.46086 0.0
C168 C 0.5453 0.61803 0.41598 0.0
C169 C 0.52117 0.58721 0.38889 0.0
C170 C 0.4944 0.5556 0.40794 0.0
Zn171 Zn 0.5303 0.56964 0.54116 0.0
O172 O 0.5511 0.4768 0.58301 0.0
C173 C 0.4384 0.54018 0.58022 0.0
O174 O 0.54524 0.50303 0.51919 0.0
H175 H 0.56472 0.63756 0.48164 0.0
H176 H 0.51868 0.47203 0.67436 0.0
H177 H 0.47623 0.52782 0.46718 0.0
O178 O 0.46378 0.53124 0.61246 0.0
O179 O 0.45759 0.55558 0.54747 0.0
H180 H 0.5891 0.59217 0.67145 0.0
O181 O 0.51553 0.63641 0.56439 0.0
O182 O 0.52253 0.609 0.62724 0.0
O183 O 0.60312 0.58306 0.53514 0.0
O184 O 0.6115 0.55494 0.59753 0.0
C185 C 0.51436 0.64158 0.60565 0.0
H186 H 0.5457 0.46535 0.74997 0.0
H187 H 0.61351 0.58976 0.74581 0.0
H188 H 0.56584 0.64329 0.40254 0.0
H189 H 0.47572 0.53094 0.38826 0.0
C190 C 0.01007 0.60935 1.00276 0.0
N191 N 0.9969 0.5535 0.12397 0.0
C192 C 1.00302 0.59093 0.14934 0.0
C193 C 0.98727 0.59409 0.19259 0.0
C194 C 0.96574 0.55818 0.20955 0.0
C195 C 0.95792 0.52093 0.18204 0.0
C196 C 0.97368 0.51932 0.13921 0.0
Zn197 Zn 0.02791 0.54201 0.06419 0.0
C198 C 0.96292 0.49018 1.00455 0.0
N199 N 0.09153 0.50818 0.94128 0.0
C200 C 0.11618 0.54036 0.92386 0.0
C201 C 0.08155 0.47057 0.91749 0.0
C202 C 0.09379 0.46551 0.87355 0.0
C203 C 0.11744 0.49904 0.85465 0.0
C204 C 0.13005 0.53619 0.88039 0.0
Zn205 Zn 0.06187 0.52109 1.00114 0.0
O206 O 1.00326 0.60355 0.04276 0.0
C207 C 0.12691 0.5729 0.05991 0.0
O208 O 0.03171 0.57982 0.97894 0.0
H209 H 0.06201 0.44539 0.93199 0.0
H210 H 0.02182 0.61758 0.13662 0.0
H211 H 0.12294 0.57035 0.94298 0.0
O212 O 0.09242 0.57189 0.0867 0.0
O213 O 0.12269 0.55468 0.02199 0.0
H214 H 0.96922 0.48978 0.11869 0.0
O215 O 0.09235 0.46269 0.02372 0.0
O216 O 0.0536 0.48032 0.08443 0.0
O217 O 1.00012 0.48737 0.98096 0.0
O218 O 0.96395 0.51232 0.04086 0.0
C219 C 0.08066 0.45389 0.0619 0.0
H220 H 0.99407 0.62331 0.2131 0.0
H221 H 0.94107 0.49277 0.19396 0.0
H222 H 0.08353 0.43649 0.8542 0.0
H223 H 0.14782 0.56279 0.86639 0.0
C224 C 0.11587 0.10762 0.41673 0.0
C225 C 0.12673 0.07648 0.38233 0.0
H226 H 0.08894 0.11992 0.48177 0.0
C227 C 0.11746 0.03258 0.38812 0.0
H228 H 0.12257 0.14168 0.41355 0.0
C229 C 0.09811 0.02009 0.42713 0.0
C230 C 0.08759 0.0511 0.46167 0.0
H231 H 0.12527 1.0076 0.36245 0.0
H232 H 0.09164 0.98597 0.43024 0.0
C233 C 0.09665 0.09508 0.45593 0.0
C234 C 0.46484 0.00982 0.88949 0.0
C235 C 0.46402 0.96473 0.87838 0.0
H236 H 0.47862 0.06106 0.93857 0.0
C237 C 0.47775 0.93647 0.90978 0.0
H238 H 0.45448 0.03253 0.86607 0.0
C239 C 0.49041 0.95283 0.95164 0.0
C240 C 0.49075 0.99791 0.96289 0.0
H241 H 0.4772 0.90162 0.90247 0.0
H242 H 0.49997 0.93008 0.97528 0.0
C243 C 0.47862 0.02623 0.93105 0.0
C244 C 0.67072 0.53605 0.8457 0.0
C245 C 0.6451 0.52014 0.88006 0.0
H246 H 0.67196 0.54858 0.77898 0.0
C247 C 0.59819 0.50613 0.87288 0.0
H248 H 0.70716 0.54641 0.84981 0.0
C249 C 0.57752 0.50784 0.83187 0.0
C250 C 0.60353 0.52348 0.79747 0.0
H251 H 0.57773 0.49328 0.8987 0.0
H252 H 0.54124 0.49727 0.82718 0.0
C253 C 0.65042 0.53729 0.80494 0.0
C254 C 0.91994 0.59054 0.3232 0.0
C255 C 0.9383 0.55653 0.34628 0.0
H256 H 0.91497 0.61814 0.26157 0.0
C257 C 0.96451 0.52279 0.32387 0.0
H258 H 0.89993 0.61718 0.33977 0.0
C259 C 0.97258 0.52319 0.27933 0.0
C260 C 0.95525 0.55766 0.25643 0.0
H261 H 0.97918 0.49625 0.34083 0.0
H262 H 0.99341 0.497 0.26292 0.0
C263 C 0.92879 0.59133 0.27865 0.0
C264 C 0.3349 0.15089 0.13613 0.0
C265 C 0.30766 0.12915 0.16588 0.0
H266 H 0.39792 0.15055 0.0966 0.0
C267 C 0.32309 0.0875 0.17608 0.0
H268 H 0.32431 0.18295 0.12745 0.0
C269 C 0.36524 0.06874 0.15813 0.0
C270 C 0.39342 0.09123 0.12974 0.0
H271 H 0.30305 0.06957 0.19867 0.0
H272 H 0.37642 0.0371 0.16756 0.0
C273 C 0.37728 0.13228 0.11847 0.0
C274 C 0.23485 0.03018 0.67226 0.0
C275 C 0.25504 0.989 0.6773 0.0
H276 H 0.17685 0.0667 0.6486 0.0
C277 C 0.23165 0.95202 0.65911 0.0
H278 H 0.25189 0.0594 0.68559 0.0
C279 C 0.18826 0.95627 0.63744 0.0
C280 C 0.16741 0.99752 0.63393 0.0
H281 H 0.24635 0.91982 0.66232 0.0
H282 H 0.17045 0.92727 0.62458 0.0
C283 C 0.19163 0.03437 0.65103 0.0
C284 C 0.87884 0.41749 0.93845 0.0
C285 C 0.83598 0.42413 0.96177 0.0
H286 H 0.95236 0.43332 0.93342 0.0
C287 C 0.83498 0.45285 0.99925 0.0
H288 H 0.88046 0.39626 0.90895 0.0
C289 C 0.87623 0.47422 0.01335 0.0
C290 C 0.91915 0.46762 0.98993 0.0
H291 H 0.80247 0.45839 0.01799 0.0
H292 H 0.87444 0.49599 0.0425 0.0
C293 C 0.91994 0.43908 0.95228 0.0
C294 C 0.76127 0.55647 0.58612 0.0
C295 C 0.78186 0.58022 0.554 0.0
H296 H 0.69713 0.53576 0.61527 0.0
C297 C 0.75206 0.60163 0.52584 0.0
H298 H 0.78328 0.53984 0.60847 0.0
C299 C 0.70262 0.5991 0.52955 0.0
C300 C 0.68205 0.57556 0.56186 0.0
H301 H 0.76691 0.62021 0.50076 0.0
H302 H 0.68055 0.61567 0.50719 0.0
C303 C 0.71189 0.55439 0.59018 0.0
C304 C 0.08667 0.35428 0.12701 0.0
C305 C 0.13482 0.34154 0.12259 0.0
H306 H 0.03224 0.40037 0.11218 0.0
C307 C 0.16463 0.36499 0.09634 0.0
H308 H 0.06288 0.33713 0.14725 0.0
C309 C 0.14662 0.40034 0.075 0.0
C310 C 0.09888 0.41401 0.08082 0.0
H311 H 0.20189 0.35601 0.09237 0.0
H312 H 0.17045 0.418 0.05526 0.0
C313 C 0.06915 0.39056 0.10704 0.0
C314 C 0.71952 0.27579 0.02495 0.0
C315 C 0.7418 0.2615 0.98548 0.0
H316 H 0.66277 0.26682 0.0697 0.0
C317 C 0.72075 0.22825 0.95891 0.0
H318 H 0.73426 0.30186 0.04585 0.0
C319 C 0.67941 0.20838 0.97254 0.0
C320 C 0.65848 0.22146 0.01294 0.0
H321 H 0.73676 0.2169 0.92805 0.0
H322 H 0.66526 0.18135 0.95253 0.0
C323 C 0.6783 0.25604 0.03847 0.0
C324 C 0.01106 0.71773 0.57939 0.0
C325 C 0.01223 0.69217 0.53983 0.0
H326 H 0.0142 0.78193 0.61054 0.0
C327 C 0.0251 0.71139 0.50164 0.0
H328 H 1.0013 0.70391 0.60934 0.0
C329 C 0.03281 0.75602 0.50247 0.0
C330 C 0.02716 0.78198 0.54138 0.0
H331 H 0.02653 0.6924 0.47071 0.0
H332 H 0.04004 0.7706 0.47233 0.0
C333 C 0.01806 0.76237 0.58006 0.0
C334 C 0.49106 0.76268 0.63475 0.0
C335 C 0.47607 0.76257 0.6784 0.0
H336 H 0.51418 0.72453 0.57692 0.0
C337 C 0.47444 0.72277 0.69739 0.0
H338 H 0.49239 0.79285 0.61907 0.0
C339 C 0.48738 0.68409 0.67362 0.0
C340 C 0.5016 0.6838 0.62977 0.0
H341 H 0.4631 0.72142 0.73084 0.0
H342 H 0.48551 0.65414 0.68965 0.0
C343 C 0.50327 0.72359 0.61051 0.0
C344 C 0.96961 0.91441 0.74843 0.0
C345 C 0.94782 0.94044 0.78241 0.0
H346 H 1.00006 0.91092 0.68457 0.0
C347 C 0.94199 0.9853 0.77728 0.0
H348 H 0.97454 0.87984 0.75091 0.0
C349 C 0.95716 1.00346 0.73913 0.0
C350 C 0.97777 0.97709 0.70473 0.0
H351 H 0.92536 1.00648 0.80274 0.0
H352 H 0.95192 0.03794 0.73628 0.0
C353 C 0.98398 0.93236 0.71013 0.0
C354 C 0.60578 0.06577 0.29344 0.0
C355 C 0.60625 0.11065 0.30566 0.0
H356 H 0.59002 0.01562 0.24375 0.0
C357 C 0.59141 0.13959 0.2752 0.0
H358 H 0.61672 0.04252 0.31611 0.0
C359 C 0.57667 0.12424 0.23374 0.0
C360 C 0.57553 0.07942 0.22164 0.0
H361 H 0.59134 0.17433 0.28331 0.0
H362 H 0.56567 0.14765 0.21124 0.0
C363 C 0.59021 0.05032 0.25204 0.0
C364 C 0.57812 0.5868 0.27746 0.0
C365 C 0.53926 0.57767 0.25012 0.0
H366 H 0.60279 0.59698 0.34268 0.0
C367 C 0.49407 0.57271 0.26869 0.0
H368 H 0.61337 0.59095 0.26417 0.0
C369 C 0.48794 0.57659 0.31372 0.0
C370 C 0.52684 0.58565 0.34107 0.0
H371 H 0.46334 0.56601 0.24847 0.0
H372 H 0.45269 0.5727 0.32715 0.0
C373 C 0.57196 0.59078 0.32245 0.0
C374 C 0.17541 0.49779 0.74416 0.0
C375 C 0.1354 0.50079 0.71747 0.0
H376 H 0.20091 0.49544 0.80933 0.0
C377 C 0.0897 0.50217 0.73616 0.0
H378 H 0.21101 0.49668 0.7304 0.0
C379 C 0.08405 0.50023 0.78081 0.0
C380 C 0.12402 0.49779 0.80744 0.0
H381 H 0.05831 0.50406 0.71621 0.0
H382 H 0.04851 0.50143 0.79472 0.0
C383 C 0.16975 0.49692 0.78903 0.0
C384 C 0.72032 0.94174 0.01086 0.0
C385 C 0.75378 0.97382 1.00313 0.0
H386 H 0.6525 0.92757 0.03871 0.0
C387 C 0.74553 0.01632 0.02151 0.0
H388 H 0.72569 0.90863 0.99736 0.0
C389 C 0.70375 0.02712 0.04484 0.0
C390 C 0.66924 0.99564 0.05092 0.0
H391 H 0.77053 0.04186 0.01655 0.0
H392 H 0.69783 0.06061 0.05702 0.0
C393 C 0.67853 0.95251 0.03476 0.0
C394 C 0.84027 0.10283 0.5065 0.0
C395 C 0.80604 0.07201 0.49335 0.0
H396 H 0.90806 0.11508 0.53528 0.0
C397 C 0.816 0.02787 0.49877 0.0
H398 H 0.83383 0.13707 0.50306 0.0
C399 C 0.8593 0.01501 0.5169 0.0
C400 C 0.89298 0.04616 0.53086 0.0
H401 H 0.79035 1.00329 0.48898 0.0
H402 H 0.86607 0.98088 0.52063 0.0
C403 C 0.88283 0.09016 0.5253 0.0
C404 C 0.22757 0.6242 0.12614 0.0
C405 C 0.26166 0.6298 0.09352 0.0
H406 H 0.15776 0.60194 0.14118 0.0
C407 C 0.24987 0.61877 0.05006 0.0
H408 H 0.23558 0.6325 0.15995 0.0
C409 C 0.20578 0.60116 0.03945 0.0
C410 C 0.17212 0.59432 0.07199 0.0
H411 H 0.27511 0.62282 0.02408 0.0
H412 H 0.19838 0.59239 1.00559 0.0
C413 C 0.18305 0.60673 0.11543 0.0
C414 C 0.30963 0.54979 0.6152 0.0
C415 C 0.28659 0.53521 0.57671 0.0
H416 H 0.37648 0.56121 0.647 0.0
C417 C 0.31389 0.51946 0.54058 0.0
H418 H 0.28921 0.56164 0.64364 0.0
C419 C 0.36348 0.52006 0.54227 0.0
C420 C 0.38654 0.53498 0.58058 0.0
H421 H 0.29691 0.50793 0.51062 0.0
H422 H 0.38389 0.50925 0.51347 0.0
C423 C 0.35934 0.54908 0.61732 0.0
C424 C 0.9726 0.68811 0.91952 0.0
C425 C 0.96494 0.72718 0.94519 0.0
H426 H 0.99324 0.62084 0.91736 0.0
C427 C 0.97198 0.72713 0.99031 0.0
H428 H 0.96746 0.68685 0.88475 0.0
C429 C 0.98568 0.68887 1.00927 0.0
C430 C 0.99376 0.64991 0.98346 0.0
H431 H 0.96605 0.75655 0.01114 0.0
H432 H 0.99056 0.68994 0.04407 0.0
C433 C 0.98735 0.65019 0.9383 0.0
C434 C 0.52619 0.74375 0.08835 0.0
C435 C 0.49694 0.72027 0.11494 0.0
H436 H 0.54769 0.80642 0.07092 0.0
C437 C 0.46425 0.7431 0.14324 0.0
H438 H 0.55185 0.72723 0.06633 0.0
C439 C 0.4615 0.78852 0.14534 0.0
C440 C 0.49202 0.81161 0.1198 0.0
H441 H 0.4426 0.72633 0.16541 0.0
H442 H 0.43709 0.80564 0.16817 0.0
C443 C 0.52388 0.78898 0.09091 0.0
C444 C 0.08516 0.3082 0.57033 0.0
C445 C 0.0739 0.33952 0.60426 0.0
H446 H 0.08441 0.24112 0.54771 0.0
C447 C 0.04837 0.32696 0.64053 0.0
H448 H 0.1043 0.31684 0.54175 0.0
C449 C 0.03706 0.28338 0.64399 0.0
C450 C 0.05131 0.25178 0.61131 0.0
H451 H 0.03893 0.35043 0.66714 0.0
H452 H 0.0194 0.27412 0.67309 0.0
C453 C 0.07397 0.26481 0.57383 0.0
C454 C 0.58401 0.34998 0.51976 0.0
C455 C 0.58191 0.34486 0.47411 0.0
H456 H 0.57618 0.39356 0.5772 0.0
C457 C 0.56987 0.38132 0.45155 0.0
H458 H 0.5931 0.32261 0.53821 0.0
C459 C 0.5603 0.42166 0.4737 0.0
C460 C 0.56231 0.42703 0.51927 0.0
H461 H 0.56783 0.37886 0.41647 0.0
H462 H 0.55124 0.44875 0.45484 0.0
C463 C 0.57422 0.39063 0.54212 0.0
loop_
_geom_bond_atom_site_label_1
_geom_bond_atom_site_label_2
_geom_bond_distance
_geom_bond_site_symmetry_2
_ccdc_geom_bond_type
O0 Cd1 2.300 . S
O0 C7 1.275 . S
Cd1 O0 2.300 . S
Cd1 O9 2.381 . S
Cd1 O10 2.378 . S
O2 Cd3 2.385 . S
O2 C7 1.255 . S
Cd3 O2 2.385 . S
Cd3 O4 2.317 . S
O4 Cd3 2.317 . S
O4 C5 1.232 . S
C5 O4 1.232 . S
C5 O6 1.218 . S
O6 C5 1.218 . S
C7 O0 1.275 . S
C7 O2 1.255 . S
C8 O9 1.258 . S
C8 O10 1.256 . S
O9 Cd1 2.381 . S
O9 C8 1.258 . S
O10 Cd1 2.378 . S
O10 C8 1.256 . S
O11 Cd12 2.300 . S
O11 C18 1.275 . S
Cd12 O11 2.300 . S
Cd12 O20 2.381 . S
Cd12 O21 2.378 . S
O13 Cd14 2.385 . S
O13 C18 1.255 . S
Cd14 O13 2.385 . S
Cd14 O15 2.317 . S
O15 Cd14 2.317 . S
O15 C16 1.232 . S
C16 O15 1.232 . S
C16 O17 1.218 . S
O17 C16 1.218 . S
C18 O11 1.275 . S
C18 O13 1.255 . S
C19 O20 1.258 . S
C19 O21 1.256 . S
O20 Cd12 2.381 . S
O20 C19 1.258 . S
O21 Cd12 2.378 . S
O21 C19 1.256 . S
O22 Cd23 2.300 . S
O22 C29 1.275 . S
Cd23 O22 2.300 . S
Cd23 O31 2.381 . S
Cd23 O32 2.378 . S
O24 Cd25 2.385 . S
O24 C29 1.255 . S
Cd25 O24 2.385 . S
Cd25 O26 2.317 . S
O26 Cd25 2.317 . S
O26 C27 1.232 1_556 S
C27 O26 1.232 1_554 S
C27 O28 1.218 . S
O28 C27 1.218 . S
C29 O22 1.275 . S
C29 O24 1.255 . S
C30 O31 1.258 . S
C30 O32 1.256 . S
O31 Cd23 2.381 . S
O31 C30 1.258 . S
O32 Cd23 2.378 . S
O32 C30 1.256 . S
O33 Cd34 2.300 . S
O33 C40 1.275 . S
Cd34 O33 2.300 . S
Cd34 O42 2.381 . S
Cd34 O43 2.378 . S
O35 Cd36 2.385 . S
O35 C40 1.255 . S
Cd36 O35 2.385 . S
Cd36 O37 2.317 . S
O37 Cd36 2.317 . S
O37 C38 1.232 . S
C38 O37 1.232 . S
C38 O39 1.218 . S
O39 C38 1.218 . S
C40 O33 1.275 . S
C40 O35 1.255 . S
C41 O42 1.258 . S
C41 O43 1.256 . S
O42 Cd34 2.381 . S
O42 C41 1.258 . S
O43 Cd34 2.378 . S
O43 C41 1.256 . S
O44 Cd45 2.300 . S
O44 C51 1.275 . S
Cd45 O44 2.300 . S
Cd45 O53 2.381 . S
Cd45 O54 2.378 . S
O46 Cd47 2.385 . S
O46 C51 1.255 . S
Cd47 O46 2.385 . S
Cd47 O48 2.317 . S
O48 Cd47 2.317 . S
O48 C49 1.232 . S
C49 O48 1.232 . S
C49 O50 1.218 1_565 S
O50 C49 1.218 1_545 S
C51 O44 1.275 . S
C51 O46 1.255 . S
C52 O53 1.258 . S
C52 O54 1.256 . S
O53 Cd45 2.381 . S
O53 C52 1.258 . S
O54 Cd45 2.378 . S
O54 C52 1.256 . S
O55 Cd56 2.300 . S
O55 C62 1.275 . S
Cd56 O55 2.300 . S
Cd56 O64 2.381 . S
Cd56 O65 2.378 . S
O57 Cd58 2.385 . S
O57 C62 1.255 . S
Cd58 O57 2.385 . S
Cd58 O59 2.317 . S
O59 Cd58 2.317 . S
O59 C60 1.232 . S
C60 O59 1.232 . S
C60 O61 1.218 . S
O61 C60 1.218 . S
C62 O55 1.275 . S
C62 O57 1.255 . S
C63 O64 1.258 . S
C63 O65 1.256 . S
O64 Cd56 2.381 . S
O64 C63 1.258 . S
O65 Cd56 2.378 . S
O65 C63 1.256 . S
O66 Cd67 2.300 . S
O66 C73 1.275 . S
Cd67 O66 2.300 . S
Cd67 O75 2.381 . S
Cd67 O76 2.378 . S
O68 Cd69 2.385 . S
O68 C73 1.255 . S
Cd69 O68 2.385 . S
Cd69 O70 2.317 . S
O70 Cd69 2.317 . S
O70 C71 1.232 . S
C71 O70 1.232 . S
C71 O72 1.218 . S
O72 C71 1.218 . S
C73 O66 1.275 . S
C73 O68 1.255 . S
C74 O75 1.258 . S
C74 O76 1.256 . S
O75 Cd67 2.381 . S
O75 C74 1.258 . S
O76 Cd67 2.378 . S
O76 C74 1.256 . S
O77 Cd78 2.300 . S
O77 C84 1.275 . S
Cd78 O77 2.300 . S
Cd78 O86 2.381 . S
Cd78 O87 2.378 . S
O79 Cd80 2.385 . S
O79 C84 1.255 . S
Cd80 O79 2.385 . S
Cd80 O81 2.317 . S
O81 Cd80 2.317 . S
O81 C82 1.232 . S
C82 O81 1.232 . S
C82 O83 1.218 . S
O83 C82 1.218 . S
C84 O77 1.275 . S
C84 O79 1.255 . S
C85 O86 1.258 . S
C85 O87 1.256 . S
O86 Cd78 2.381 . S
O86 C85 1.258 . S
O87 Cd78 2.378 . S
O87 C85 1.256 . S
C88 O104 1.251 . S
C88 O106 1.254 1_545 S
N89 C90 1.333 . S
N89 C94 1.307 . S
N89 Zn95 2.020 . S
C90 N89 1.333 . S
C90 C91 1.379 . S
C90 H108 0.952 . S
C91 C90 1.379 . S
C91 C92 1.390 . S
C91 H118 0.949 . S
C92 C91 1.390 . S
C92 C93 1.357 . S
C93 C92 1.357 . S
C93 C94 1.370 . S
C93 H119 0.950 . S
C94 N89 1.307 . S
C94 C93 1.370 . S
C94 H112 0.948 . S
Zn95 N89 2.020 . S
Zn95 O104 2.039 . S
Zn95 O110 2.034 . S
Zn95 O114 2.025 . S
Zn95 O116 2.024 1_455 S
C96 O115 1.246 . S
C96 O116 1.249 . S
N97 C98 1.307 1_655 S
N97 C99 1.333 . S
N97 Zn103 2.020 1_655 S
C98 N97 1.307 1_455 S
C98 C102 1.370 1_455 S
C98 H109 0.948 . S
C99 N97 1.333 . S
C99 C100 1.379 . S
C99 H107 0.952 . S
C100 C99 1.379 . S
C100 C101 1.390 . S
C100 H120 0.949 . S
C101 C100 1.390 . S
C101 C102 1.357 . S
C102 C98 1.370 1_655 S
C102 C101 1.357 . S
C102 H121 0.950 1_655 S
Zn103 N97 2.020 1_455 S
Zn103 O106 2.025 . S
Zn103 O111 2.024 . S
Zn103 O113 2.039 1_455 S
Zn103 O115 2.034 1_465 S
O104 C88 1.251 . S
O104 Zn95 2.039 . S
C105 O110 1.246 1_565 S
C105 O111 1.249 . S
O106 C88 1.254 1_565 S
O106 Zn103 2.025 . S
H107 C99 0.952 . S
H108 C90 0.952 . S
H109 C98 0.948 . S
O110 Zn95 2.034 . S
O110 C105 1.246 1_545 S
O111 Zn103 2.024 . S
O111 C105 1.249 . S
H112 C94 0.948 . S
O113 Zn103 2.039 1_655 S
O113 C117 1.249 1_565 S
O114 Zn95 2.025 . S
O114 C117 1.256 1_455 S
O115 C96 1.246 . S
O115 Zn103 2.034 1_645 S
O116 Zn95 2.024 1_655 S
O116 C96 1.249 . S
C117 O113 1.249 1_545 S
C117 O114 1.256 1_655 S
H118 C91 0.949 . S
H119 C93 0.950 . S
H120 C100 0.949 . S
H121 C102 0.950 1_455 S
C122 O138 1.251 . S
C122 O140 1.254 1_545 S
N123 C124 1.333 . S
N123 C128 1.307 . S
N123 Zn129 2.020 . S
C124 N123 1.333 . S
C124 C125 1.379 . S
C124 H142 0.952 . S
C125 C124 1.379 . S
C125 C126 1.390 . S
C125 H152 0.949 . S
C126 C125 1.390 . S
C126 C127 1.357 . S
C127 C126 1.357 . S
C127 C128 1.370 . S
C127 H153 0.950 . S
C128 N123 1.307 . S
C128 C127 1.370 . S
C128 H146 0.948 . S
Zn129 N123 2.020 . S
Zn129 O138 2.039 . S
Zn129 O144 2.034 . S
Zn129 O148 2.025 . S
Zn129 O150 2.024 . S
C130 O149 1.246 1_546 S
C130 O150 1.249 1_556 S
N131 C132 1.307 . S
N131 C133 1.333 . S
N131 Zn137 2.020 . S
C132 N131 1.307 . S
C132 C136 1.370 . S
C132 H143 0.948 . S
C133 N131 1.333 . S
C133 C134 1.379 . S
C133 H141 0.952 . S
C134 C133 1.379 . S
C134 C135 1.390 . S
C134 H154 0.949 . S
C135 C134 1.390 . S
C135 C136 1.357 . S
C136 C132 1.370 . S
C136 C135 1.357 . S
C136 H155 0.950 . S
Zn137 N131 2.020 . S
Zn137 O140 2.025 . S
Zn137 O145 2.024 1_565 S
Zn137 O147 2.039 1_565 S
Zn137 O149 2.034 . S
O138 C122 1.251 . S
O138 Zn129 2.039 . S
C139 O144 1.246 . S
C139 O145 1.249 . S
O140 C122 1.254 1_565 S
O140 Zn137 2.025 . S
H141 C133 0.952 . S
H142 C124 0.952 . S
H143 C132 0.948 . S
O144 Zn129 2.034 . S
O144 C139 1.246 . S
O145 Zn137 2.024 1_545 S
O145 C139 1.249 . S
H146 C128 0.948 . S
O147 Zn137 2.039 1_545 S
O147 C151 1.251 . S
O148 Zn129 2.025 . S
O148 C151 1.254 . S
O149 C130 1.246 1_564 S
O149 Zn137 2.034 . S
O150 Zn129 2.024 . S
O150 C130 1.249 1_554 S
C151 O147 1.251 . S
C151 O148 1.254 . S
H152 C125 0.949 . S
H153 C127 0.950 . S
H154 C134 0.949 . S
H155 C136 0.950 . S
C156 O172 1.251 . S
C156 O174 1.254 . S
N157 C158 1.333 . S
N157 C162 1.307 . S
N157 Zn163 2.020 . S
C158 N157 1.333 . S
C158 C159 1.379 . S
C158 H176 0.952 . S
C159 C158 1.379 . S
C159 C160 1.390 . S
C159 H186 0.949 . S
C160 C159 1.390 . S
C160 C161 1.357 . S
C161 C160 1.357 . S
C161 C162 1.370 . S
C161 H187 0.950 . S
C162 N157 1.307 . S
C162 C161 1.370 . S
C162 H180 0.948 . S
Zn163 N157 2.020 . S
Zn163 O172 2.039 . S
Zn163 O178 2.034 . S
Zn163 O182 2.025 . S
Zn163 O184 2.024 . S
C164 O183 1.246 . S
C164 O184 1.249 . S
N165 C166 1.307 . S
N165 C167 1.333 . S
N165 Zn171 2.020 . S
C166 N165 1.307 . S
C166 C170 1.370 . S
C166 H177 0.948 . S
C167 N165 1.333 . S
C167 C168 1.379 . S
C167 H175 0.952 . S
C168 C167 1.379 . S
C168 C169 1.390 . S
C168 H188 0.949 . S
C169 C168 1.390 . S
C169 C170 1.357 . S
C170 C166 1.370 . S
C170 C169 1.357 . S
C170 H189 0.950 . S
Zn171 N165 2.020 . S
Zn171 O174 2.025 . S
Zn171 O179 2.024 . S
Zn171 O181 2.039 . S
Zn171 O183 2.034 . S
O172 C156 1.251 . S
O172 Zn163 2.039 . S
C173 O178 1.246 . S
C173 O179 1.249 . S
O174 C156 1.254 . S
O174 Zn171 2.025 . S
H175 C167 0.952 . S
H176 C158 0.952 . S
H177 C166 0.948 . S
O178 Zn163 2.034 . S
O178 C173 1.246 . S
O179 Zn171 2.024 . S
O179 C173 1.249 . S
H180 C162 0.948 . S
O181 Zn171 2.039 . S
O181 C185 1.251 . S
O182 Zn163 2.025 . S
O182 C185 1.254 . S
O183 C164 1.246 . S
O183 Zn171 2.034 . S
O184 Zn163 2.024 . S
O184 C164 1.249 . S
C185 O181 1.251 . S
C185 O182 1.254 . S
H186 C159 0.949 . S
H187 C161 0.950 . S
H188 C168 0.949 . S
H189 C170 0.950 . S
C190 O206 1.251 . S
C190 O208 1.254 1_554 S
N191 C192 1.333 . S
N191 C196 1.307 1_455 S
N191 Zn197 2.020 . S
C192 N191 1.333 . S
C192 C193 1.379 1_455 S
C192 H210 0.952 . S
C193 C192 1.379 1_655 S
C193 C194 1.390 . S
C193 H220 0.949 . S
C194 C193 1.390 . S
C194 C195 1.357 . S
C195 C194 1.357 . S
C195 C196 1.370 . S
C195 H221 0.950 . S
C196 N191 1.307 1_655 S
C196 C195 1.370 . S
C196 H214 0.948 . S
Zn197 N191 2.020 . S
Zn197 O206 2.039 . S
Zn197 O212 2.034 . S
Zn197 O216 2.025 . S
Zn197 O218 2.024 1_455 S
C198 O217 1.246 1_554 S
C198 O218 1.249 . S
N199 C200 1.307 . S
N199 C201 1.333 . S
N199 Zn205 2.020 . S
C200 N199 1.307 . S
C200 C204 1.370 . S
C200 H211 0.948 . S
C201 N199 1.333 . S
C201 C202 1.379 . S
C201 H209 0.952 . S
C202 C201 1.379 . S
C202 C203 1.390 . S
C202 H222 0.949 . S
C203 C202 1.390 . S
C203 C204 1.357 . S
C204 C200 1.370 . S
C204 C203 1.357 . S
C204 H223 0.950 . S
Zn205 N199 2.020 . S
Zn205 O208 2.025 . S
Zn205 O213 2.024 1_556 S
Zn205 O215 2.039 1_556 S
Zn205 O217 2.034 1_455 S
O206 C190 1.251 . S
O206 Zn197 2.039 . S
C207 O212 1.246 . S
C207 O213 1.249 . S
O208 C190 1.254 1_556 S
O208 Zn205 2.025 . S
H209 C201 0.952 . S
H210 C192 0.952 . S
H211 C200 0.948 . S
O212 Zn197 2.034 . S
O212 C207 1.246 . S
O213 Zn205 2.024 1_554 S
O213 C207 1.249 . S
H214 C196 0.948 . S
O215 Zn205 2.039 1_554 S
O215 C219 1.251 . S
O216 Zn197 2.025 . S
O216 C219 1.254 . S
O217 C198 1.246 1_556 S
O217 Zn205 2.034 1_655 S
O218 Zn197 2.024 1_655 S
O218 C198 1.249 . S
C219 O215 1.251 . S
C219 O216 1.254 . S
H220 C193 0.949 . S
H221 C195 0.950 . S
H222 C202 0.949 . S
H223 C204 0.950 . S
C224 C225 1.387 . S
C224 H228 0.950 . S
C224 C233 1.390 . S
C225 C224 1.387 . S
C225 C227 1.387 . S
H226 C233 0.950 . S
C227 C225 1.387 . S
C227 C229 1.390 . S
C227 H231 0.950 1_545 S
H228 C224 0.950 . S
C229 C227 1.390 . S
C229 C230 1.387 . S
C229 H232 0.950 1_545 S
C230 C229 1.387 . S
C230 C233 1.387 . S
H231 C227 0.950 1_565 S
H232 C229 0.950 1_565 S
C233 C224 1.390 . S
C233 H226 0.950 . S
C233 C230 1.387 . S
C234 C235 1.387 . S
C234 H238 0.950 . S
C234 C243 1.394 . S
C235 C234 1.387 . S
C235 C237 1.387 . S
H236 C243 0.939 1_545 S
C237 C235 1.387 . S
C237 C239 1.390 . S
C237 H241 0.950 . S
H238 C234 0.950 . S
C239 C237 1.390 . S
C239 C240 1.387 . S
C239 H242 0.950 . S
C240 C239 1.387 . S
C240 C243 1.395 . S
H241 C237 0.950 . S
H242 C239 0.950 . S
C243 C234 1.394 . S
C243 H236 0.939 1_565 S
C243 C240 1.395 . S
C244 C245 1.387 . S
C244 H248 0.950 . S
C244 C253 1.390 . S
C245 C244 1.387 . S
C245 C247 1.387 . S
H246 C253 0.950 . S
C247 C245 1.387 . S
C247 C249 1.390 . S
C247 H251 0.950 . S
H248 C244 0.950 . S
C249 C247 1.390 . S
C249 C250 1.387 . S
C249 H252 0.950 . S
C250 C249 1.387 . S
C250 C253 1.387 . S
H251 C247 0.950 . S
H252 C249 0.950 . S
C253 C244 1.390 . S
C253 H246 0.950 . S
C253 C250 1.387 . S
C254 C255 1.387 . S
C254 H258 0.950 . S
C254 C263 1.390 . S
C255 C254 1.387 . S
C255 C257 1.387 . S
H256 C263 0.950 . S
C257 C255 1.387 . S
C257 C259 1.390 . S
C257 H261 0.950 . S
H258 C254 0.950 . S
C259 C257 1.390 . S
C259 C260 1.387 . S
C259 H262 0.950 . S
C260 C259 1.387 . S
C260 C263 1.387 . S
H261 C257 0.950 . S
H262 C259 0.950 . S
C263 C254 1.390 . S
C263 H256 0.950 . S
C263 C260 1.387 . S
C264 C265 1.387 . S
C264 H268 0.950 . S
C264 C273 1.390 . S
C265 C264 1.387 . S
C265 C267 1.387 . S
H266 C273 0.950 . S
C267 C265 1.387 . S
C267 C269 1.390 . S
C267 H271 0.950 . S
H268 C264 0.950 . S
C269 C267 1.390 . S
C269 C270 1.387 . S
C269 H272 0.950 . S
C270 C269 1.387 . S
C270 C273 1.387 . S
H271 C267 0.950 . S
H272 C269 0.950 . S
C273 C264 1.390 . S
C273 H266 0.950 . S
C273 C270 1.387 . S
C274 C275 1.387 1_545 S
C274 H278 0.950 . S
C274 C283 1.390 . S
C275 C274 1.387 1_565 S
C275 C277 1.387 . S
H276 C283 0.950 . S
C277 C275 1.387 . S
C277 C279 1.390 . S
C277 H281 0.950 . S
H278 C274 0.950 . S
C279 C277 1.390 . S
C279 C280 1.387 . S
C279 H282 0.950 . S
C280 C279 1.387 . S
C280 C283 1.387 1_565 S
H281 C277 0.950 . S
H282 C279 0.950 . S
C283 C274 1.390 . S
C283 H276 0.950 . S
C283 C280 1.387 1_545 S
C284 C285 1.387 1_556 S
C284 H288 0.950 . S
C284 C293 1.390 . S
C285 C284 1.387 1_554 S
C285 C287 1.387 . S
H286 C293 0.950 . S
C287 C285 1.387 . S
C287 C289 1.390 . S
C287 H291 0.950 . S
H288 C284 0.950 . S
C289 C287 1.390 . S
C289 C290 1.387 1_554 S
C289 H292 0.950 . S
C290 C289 1.387 1_556 S
C290 C293 1.387 . S
H291 C287 0.950 . S
H292 C289 0.950 . S
C293 C284 1.390 . S
C293 H286 0.950 . S
C293 C290 1.387 . S
C294 C295 1.387 . S
C294 H298 0.950 . S
C294 C303 1.390 . S
C295 C294 1.387 . S
C295 C297 1.387 . S
H296 C303 0.950 . S
C297 C295 1.387 . S
C297 C299 1.390 . S
C297 H301 0.950 . S
H298 C294 0.950 . S
C299 C297 1.390 . S
C299 C300 1.387 . S
C299 H302 0.950 . S
C300 C299 1.387 . S
C300 C303 1.387 . S
H301 C297 0.950 . S
H302 C299 0.950 . S
C303 C294 1.390 . S
C303 H296 0.950 . S
C303 C300 1.387 . S
C304 C305 1.387 . S
C304 H308 0.950 . S
C304 C313 1.390 . S
C305 C304 1.387 . S
C305 C307 1.387 . S
H306 C313 0.950 . S
C307 C305 1.387 . S
C307 C309 1.390 . S
C307 H311 0.950 . S
H308 C304 0.950 . S
C309 C307 1.390 . S
C309 C310 1.387 . S
C309 H312 0.950 . S
C310 C309 1.387 . S
C310 C313 1.387 . S
H311 C307 0.950 . S
H312 C309 0.950 . S
C313 C304 1.390 . S
C313 H306 0.950 . S
C313 C310 1.387 . S
C314 C315 1.387 . S
C314 H318 0.950 . S
C314 C323 1.390 . S
C315 C314 1.387 . S
C315 C317 1.387 1_554 S
H316 C323 0.950 . S
C317 C315 1.387 1_556 S
C317 C319 1.390 . S
C317 H321 0.950 . S
H318 C314 0.950 . S
C319 C317 1.390 . S
C319 C320 1.387 1_556 S
C319 H322 0.950 . S
C320 C319 1.387 1_554 S
C320 C323 1.387 . S
H321 C317 0.950 . S
H322 C319 0.950 . S
C323 C314 1.390 . S
C323 H316 0.950 . S
C323 C320 1.387 . S
C324 C325 1.387 . S
C324 H328 0.950 . S
C324 C333 1.390 . S
C325 C324 1.387 . S
C325 C327 1.387 . S
H326 C333 0.950 . S
C327 C325 1.387 . S
C327 C329 1.390 . S
C327 H331 0.950 . S
H328 C324 0.950 . S
C329 C327 1.390 . S
C329 C330 1.387 . S
C329 H332 0.950 . S
C330 C329 1.387 . S
C330 C333 1.387 . S
H331 C327 0.950 . S
H332 C329 0.950 . S
C333 C324 1.390 . S
C333 H326 0.950 . S
C333 C330 1.387 . S
C334 C335 1.387 . S
C334 H338 0.950 . S
C334 C343 1.390 . S
C335 C334 1.387 . S
C335 C337 1.387 . S
H336 C343 0.950 . S
C337 C335 1.387 . S
C337 C339 1.390 . S
C337 H341 0.950 . S
H338 C334 0.950 . S
C339 C337 1.390 . S
C339 C340 1.387 . S
C339 H342 0.950 . S
C340 C339 1.387 . S
C340 C343 1.387 . S
H341 C337 0.950 . S
H342 C339 0.950 . S
C343 C334 1.390 . S
C343 H336 0.950 . S
C343 C340 1.387 . S
C344 C345 1.387 . S
C344 H348 0.950 . S
C344 C353 1.390 . S
C345 C344 1.387 . S
C345 C347 1.387 . S
H346 C353 0.950 . S
C347 C345 1.387 . S
C347 C349 1.390 1_565 S
C347 H351 0.950 1_565 S
H348 C344 0.950 . S
C349 C347 1.390 1_545 S
C349 C350 1.387 1_545 S
C349 H352 0.950 . S
C350 C349 1.387 1_565 S
C350 C353 1.387 . S
H351 C347 0.950 1_545 S
H352 C349 0.950 . S
C353 C344 1.390 . S
C353 H346 0.950 . S
C353 C350 1.387 . S
C354 C355 1.387 . S
C354 H358 0.950 . S
C354 C363 1.390 . S
C355 C354 1.387 . S
C355 C357 1.387 . S
H356 C363 0.950 . S
C357 C355 1.387 . S
C357 C359 1.390 . S
C357 H361 0.950 . S
H358 C354 0.950 . S
C359 C357 1.390 . S
C359 C360 1.387 . S
C359 H362 0.950 . S
C360 C359 1.387 . S
C360 C363 1.387 . S
H361 C357 0.950 . S
H362 C359 0.950 . S
C363 C354 1.390 . S
C363 H356 0.950 . S
C363 C360 1.387 . S
C364 C365 1.387 . S
C364 H368 0.950 . S
C364 C373 1.390 . S
C365 C364 1.387 . S
C365 C367 1.387 . S
H366 C373 0.950 . S
C367 C365 1.387 . S
C367 C369 1.390 . S
C367 H371 0.950 . S
H368 C364 0.950 . S
C369 C367 1.390 . S
C369 C370 1.387 . S
C369 H372 0.950 . S
C370 C369 1.387 . S
C370 C373 1.387 . S
H371 C367 0.950 . S
H372 C369 0.950 . S
C373 C364 1.390 . S
C373 H366 0.950 . S
C373 C370 1.387 . S
C374 C375 1.387 . S
C374 H378 0.950 . S
C374 C383 1.390 . S
C375 C374 1.387 . S
C375 C377 1.387 . S
H376 C383 0.950 . S
C377 C375 1.387 . S
C377 C379 1.390 . S
C377 H381 0.950 . S
H378 C374 0.950 . S
C379 C377 1.390 . S
C379 C380 1.387 . S
C379 H382 0.950 . S
C380 C379 1.387 . S
C380 C383 1.387 . S
H381 C377 0.950 . S
H382 C379 0.950 . S
C383 C374 1.390 . S
C383 H376 0.950 . S
C383 C380 1.387 . S
C384 C385 1.387 . S
C384 H388 0.950 . S
C384 C393 1.392 . S
C385 C384 1.387 . S
C385 C387 1.387 1_566 S
H386 C393 0.950 . S
C387 C385 1.387 1_544 S
C387 C389 1.390 . S
C387 H391 0.950 . S
H388 C384 0.950 . S
C389 C387 1.390 . S
C389 C390 1.387 1_545 S
C389 H392 0.950 . S
C390 C389 1.387 1_565 S
C390 C393 1.386 1_554 S
H391 C387 0.950 . S
H392 C389 0.950 . S
C393 C384 1.392 . S
C393 H386 0.950 . S
C393 C390 1.386 1_556 S
C394 C395 1.387 . S
C394 H398 0.950 . S
C394 C403 1.390 . S
C395 C394 1.387 . S
C395 C397 1.387 . S
H396 C403 0.950 . S
C397 C395 1.387 . S
C397 C399 1.390 . S
C397 H401 0.950 . S
H398 C394 0.950 . S
C399 C397 1.390 . S
C399 C400 1.387 . S
C399 H402 0.950 1_545 S
C400 C399 1.387 . S
C400 C403 1.387 . S
H401 C397 0.950 . S
H402 C399 0.950 1_565 S
C403 C394 1.390 . S
C403 H396 0.950 . S
C403 C400 1.387 . S
C404 C405 1.387 . S
C404 H408 0.950 . S
C404 C413 1.390 . S
C405 C404 1.387 . S
C405 C407 1.387 . S
H406 C413 0.950 . S
C407 C405 1.387 . S
C407 C409 1.390 . S
C407 H411 0.950 1_554 S
H408 C404 0.950 . S
C409 C407 1.390 . S
C409 C410 1.387 . S
C409 H412 0.950 1_554 S
C410 C409 1.387 . S
C410 C413 1.387 . S
H411 C407 0.950 1_556 S
H412 C409 0.950 1_556 S
C413 C404 1.390 . S
C413 H406 0.950 . S
C413 C410 1.387 . S
C414 C415 1.387 . S
C414 H418 0.950 . S
C414 C423 1.390 . S
C415 C414 1.387 . S
C415 C417 1.387 . S
H416 C423 0.950 . S
C417 C415 1.387 . S
C417 C419 1.390 . S
C417 H421 0.950 . S
H418 C414 0.950 . S
C419 C417 1.390 . S
C419 C420 1.387 . S
C419 H422 0.950 . S
C420 C419 1.387 . S
C420 C423 1.387 . S
H421 C417 0.950 . S
H422 C419 0.950 . S
C423 C414 1.390 . S
C423 H416 0.950 . S
C423 C420 1.387 . S
C424 C425 1.387 . S
C424 H428 0.950 . S
C424 C433 1.390 . S
C425 C424 1.387 . S
C425 C427 1.387 1_656 S
H426 C433 0.950 . S
C427 C425 1.387 1_454 S
C427 C429 1.390 . S
C427 H431 0.950 . S
H428 C424 0.950 . S
C429 C427 1.390 . S
C429 C430 1.387 1_554 S
C429 H432 0.950 . S
C430 C429 1.387 1_556 S
C430 C433 1.387 1_455 S
H431 C427 0.950 . S
H432 C429 0.950 . S
C433 C424 1.390 . S
C433 H426 0.950 . S
C433 C430 1.387 1_655 S
C434 C435 1.387 . S
C434 H438 0.950 . S
C434 C443 1.390 . S
C435 C434 1.387 . S
C435 C437 1.387 . S
H436 C443 0.950 . S
C437 C435 1.387 . S
C437 C439 1.390 . S
C437 H441 0.950 . S
H438 C434 0.950 . S
C439 C437 1.390 . S
C439 C440 1.387 . S
C439 H442 0.950 . S
C440 C439 1.387 . S
C440 C443 1.387 . S
H441 C437 0.950 . S
H442 C439 0.950 . S
C443 C434 1.390 . S
C443 H436 0.950 . S
C443 C440 1.387 . S
C444 C445 1.387 . S
C444 H448 0.950 . S
C444 C453 1.390 . S
C445 C444 1.387 . S
C445 C447 1.387 . S
H446 C453 0.950 . S
C447 C445 1.387 . S
C447 C449 1.390 . S
C447 H451 0.950 . S
H448 C444 0.950 . S
C449 C447 1.390 . S
C449 C450 1.387 . S
C449 H452 0.950 . S
C450 C449 1.387 . S
C450 C453 1.387 . S
H451 C447 0.950 . S
H452 C449 0.950 . S
C453 C444 1.390 . S
C453 H446 0.950 . S
C453 C450 1.387 . S
C454 C455 1.387 . S
C454 H458 0.950 . S
C454 C463 1.390 . S
C455 C454 1.387 . S
C455 C457 1.387 . S
H456 C463 0.950 . S
C457 C455 1.387 . S
C457 C459 1.390 . S
C457 H461 0.950 . S
H458 C454 0.950 . S
C459 C457 1.390 . S
C459 C460 1.387 . S
C459 H462 0.950 . S
C460 C459 1.387 . S
C460 C463 1.387 . S
H461 C457 0.950 . S
H462 C459 0.950 . S
C463 C454 1.390 . S
C463 H456 0.950 . S
C463 C460 1.387 . S
C225 C5 2.448 . S
C230 C88 2.594 . S
C235 C18 2.255 . S
C240 C130 2.404 1_565 S
C250 C160 0.928 . S
C245 C30 0.899 . S
C255 C41 0.974 . S
C260 C194 0.961 . S
C270 C151 2.084 . S
C265 C7 2.010 . S
C280 C105 2.121 . S
C275 C16 1.778 . S
C290 C198 1.428 1_556 S
C285 C29 1.238 1_554 S
C300 C164 1.049 . S
C295 C38 1.065 . S
C305 C8 2.255 . S
C310 C219 2.247 . S
C320 C126 1.371 . S
C315 C27 1.122 . S
C325 C40 1.097 . S
C330 C101 1.133 . S
C335 C19 1.816 . S
C340 C185 1.863 . S
C350 C117 2.444 1_565 S
C345 C51 2.393 . S
C355 C62 2.329 . S
C360 C139 2.477 . S
C365 C74 0.966 . S
C370 C169 0.998 . S
C375 C84 1.011 . S
C380 C203 1.043 . S
C385 C49 2.050 . S
C390 C122 2.163 1_565 S
C400 C96 1.854 . S
C395 C63 1.793 . S
C410 C207 1.373 . S
C405 C71 1.070 . S
C420 C173 1.125 . S
C415 C85 1.059 . S
C425 C52 2.236 . S
C430 C190 2.234 1_556 S
C440 C135 1.378 . S
C435 C73 1.194 . S
C450 C92 1.131 . S
C445 C82 0.845 . S
C455 C60 2.007 . S
C460 C156 2.373 . S
