# Generated by pormake.
# Topology zzz, (3,6)-cn, num edge types: 1
# Building blocks:
#     Node 0, Type 0, BuildingBlock: OLANEW_clean_sbu_2, # of connection points: 3
#     Node 1, Type 0, BuildingBlock: OLANEW_clean_sbu_2, # of connection points: 3
#     Node 2, Type 0, BuildingBlock: OLANEW_clean_sbu_2, # of connection points: 3
#     Node 3, Type 0, BuildingBlock: OLANEW_clean_sbu_2, # of connection points: 3
#     Node 4, Type 0, BuildingBlock: OLANEW_clean_sbu_2, # of connection points: 3
#     Node 5, Type 0, BuildingBlock: OLANEW_clean_sbu_2, # of connection points: 3
#     Node 6, Type 0, BuildingBlock: OLANEW_clean_sbu_2, # of connection points: 3
#     Node 7, Type 0, BuildingBlock: OLANEW_clean_sbu_2, # of connection points: 3
#     Node 8, Type 1, BuildingBlock: CUWYAW_clean_sbu_0, # of connection points: 6
#     Node 9, Type 1, BuildingBlock: CUWYAW_clean_sbu_0, # of connection points: 6
#     Node 10, Type 1, BuildingBlock: CUWYAW_clean_sbu_0, # of connection points: 6
#     Node 11, Type 1, BuildingBlock: CUWYAW_clean_sbu_0, # of connection points: 6
#     Edge 12, Type (0, 1), BuildingBlock: EZIPEK_clean_linker_0, # of connection points: 2
#     Edge 13, Type (0, 1), BuildingBlock: EZIPEK_clean_linker_0, # of connection points: 2
#     Edge 14, Type (0, 1), BuildingBlock: EZIPEK_clean_linker_0, # of connection points: 2
#     Edge 15, Type (0, 1), BuildingBlock: EZIPEK_clean_linker_0, # of connection points: 2
#     Edge 16, Type (0, 1), BuildingBlock: EZIPEK_clean_linker_0, # of connection points: 2
#     Edge 17, Type (0, 1), BuildingBlock: EZIPEK_clean_linker_0, # of connection points: 2
#     Edge 18, Type (0, 1), BuildingBlock: EZIPEK_clean_linker_0, # of connection points: 2
#     Edge 19, Type (0, 1), BuildingBlock: EZIPEK_clean_linker_0, # of connection points: 2
#     Edge 20, Type (0, 1), BuildingBlock: EZIPEK_clean_linker_0, # of connection points: 2
#     Edge 21, Type (0, 1), BuildingBlock: EZIPEK_clean_linker_0, # of connection points: 2
#     Edge 22, Type (0, 1), BuildingBlock: EZIPEK_clean_linker_0, # of connection points: 2
#     Edge 23, Type (0, 1), BuildingBlock: EZIPEK_clean_linker_0, # of connection points: 2
#     Edge 24, Type (0, 1), BuildingBlock: EZIPEK_clean_linker_0, # of connection points: 2
#     Edge 25, Type (0, 1), BuildingBlock: EZIPEK_clean_linker_0, # of connection points: 2
#     Edge 26, Type (0, 1), BuildingBlock: EZIPEK_clean_linker_0, # of connection points: 2
#     Edge 27, Type (0, 1), BuildingBlock: EZIPEK_clean_linker_0, # of connection points: 2
#     Edge 28, Type (0, 1), BuildingBlock: EZIPEK_clean_linker_0, # of connection points: 2
#     Edge 29, Type (0, 1), BuildingBlock: EZIPEK_clean_linker_0, # of connection points: 2
#     Edge 30, Type (0, 1), BuildingBlock: EZIPEK_clean_linker_0, # of connection points: 2
#     Edge 31, Type (0, 1), BuildingBlock: EZIPEK_clean_linker_0, # of connection points: 2
#     Edge 32, Type (0, 1), BuildingBlock: EZIPEK_clean_linker_0, # of connection points: 2
#     Edge 33, Type (0, 1), BuildingBlock: EZIPEK_clean_linker_0, # of connection points: 2
#     Edge 34, Type (0, 1), BuildingBlock: EZIPEK_clean_linker_0, # of connection points: 2
#     Edge 35, Type (0, 1), BuildingBlock: EZIPEK_clean_linker_0, # of connection points: 2
# Relax obj value: 0.291
# Max RMSD: 0.183
# Mean RMSD: 0.148
data_MOF--net-zzz--node1-OLANEW_clean_sbu_2--node2-CUWYAW_clean_sbu_0--edge1-EZIPEK_clean_linker_0
_symmetry_space_group_name_H-M    P1
_symmetry_Int_Tables_number       1
_symmetry_cell_setting            triclinic
loop_
_symmetry_equiv_pos_as_xyz
'x, y, z'
_cell_length_a     42.071254
_cell_length_b     42.114042
_cell_length_c     12.207022
_cell_angle_alpha  89.608112
_cell_angle_beta   89.976914
_cell_angle_gamma 90.021584
loop_
_atom_site_label
_atom_site_type_symbol
_atom_site_fract_x
_atom_site_fract_y
_atom_site_fract_z
_atom_type_partial_charge
O0 O 0.75336 0.56058 0.24078 0.0
Cd1 Cd 0.7026 0.58202 0.29968 0.0
O2 O 0.74367 0.51299 0.30901 0.0
Cd3 Cd 0.71982 0.5333 0.44991 0.0
O4 O 0.76848 0.52969 0.51417 0.0
C5 C 0.77986 0.50217 0.53238 0.0
O6 O 0.76089 0.4774 0.52876 0.0
C7 C 0.75981 0.5312 0.24713 0.0
C8 C 0.65798 0.56421 0.14132 0.0
O9 O 0.67878 0.58576 0.12241 0.0
O10 O 0.65772 0.55138 0.23683 0.0
O11 O 0.01542 0.69338 0.19515 0.0
Cd12 Cd 0.00229 0.63845 0.243 0.0
O13 O 0.98491 0.71159 0.32672 0.0
Cd14 Cd 0.96621 0.75271 0.41358 0.0
O15 O 0.95849 0.80074 0.47342 0.0
C16 C 0.97237 0.809 0.56106 0.0
O17 O 0.98946 0.78816 0.61565 0.0
C18 C 0.00407 0.71665 0.24795 0.0
C19 C 0.99563 0.60143 0.05599 0.0
O20 O 0.97115 0.61307 0.1036 0.0
O21 O 0.02305 0.60711 0.0972 0.0
O22 O 0.77336 0.91599 0.33615 0.0
Cd23 Cd 0.82433 0.89913 0.413 0.0
O24 O 0.76675 0.94026 0.49251 0.0
Cd25 Cd 0.73727 0.96825 0.60095 0.0
O26 O 0.69383 0.98377 0.67919 0.0
C27 C 0.67647 0.00331 0.62718 0.0
O28 O 0.68601 0.01451 0.5321 0.0
C29 C 0.75657 0.93342 0.39762 0.0
C30 C 0.87237 0.93027 0.30001 0.0
O31 O 0.86252 0.90289 0.27001 0.0
O32 O 0.86046 0.94263 0.38643 0.0
O33 O 0.61608 0.79571 0.26036 0.0
Cd34 Cd 0.62385 0.8503 0.31739 0.0
O35 O 0.56771 0.8038 0.32209 0.0
Cd36 Cd 0.5223 0.78116 0.35574 0.0
O37 O 0.51156 0.73344 0.41242 0.0
C38 C 0.50984 0.72815 0.51469 0.0
O39 O 0.51042 0.75216 0.58283 0.0
C40 C 0.58804 0.78573 0.27754 0.0
C41 C 0.58268 0.88755 0.19316 0.0
O42 O 0.57305 0.87344 0.28032 0.0
O43 O 0.61205 0.88486 0.16678 0.0
O44 O 0.26794 0.4851 0.2358 0.0
Cd45 Cd 0.32487 0.48825 0.198 0.0
O46 O 0.26162 0.48002 0.0584 0.0
Cd47 Cd 0.22971 0.47691 0.91837 0.0
O48 O 0.18582 0.47538 0.82465 0.0
C49 C 0.17681 0.44999 0.77861 0.0
O50 O 0.19505 0.42469 0.78208 0.0
C51 C 0.24963 0.4827 0.15353 0.0
C52 C 0.36263 0.49949 0.38176 0.0
O53 O 0.34523 0.52135 0.33976 0.0
O54 O 0.36163 0.47187 0.33842 0.0
O55 O 0.97222 0.23684 0.08141 0.0
Cd56 Cd 0.9949 0.28263 0.98757 0.0
O57 O 0.01409 0.23436 0.1893 0.0
Cd58 Cd 0.04347 0.25233 0.0566 0.0
O59 O 0.03942 0.20521 0.98446 0.0
C60 C 0.05518 0.18229 0.02558 0.0
O61 O 0.07675 0.1881 0.10061 0.0
C62 C 0.98582 0.22602 0.16675 0.0
C63 C 0.99675 0.32965 0.1464 0.0
O64 O 0.97149 0.32433 0.0909 0.0
O65 O 0.02185 0.31391 0.12273 0.0
O66 O 0.2088 0.92981 0.3135 0.0
Cd67 Cd 0.15739 0.93453 0.22097 0.0
O68 O 0.21288 0.98151 0.29211 0.0
Cd69 Cd 0.24541 0.02152 0.30586 0.0
O70 O 0.29597 0.0283 0.27699 0.0
C71 C 0.30443 0.03156 0.17778 0.0
O72 O 0.2826 0.03326 0.10104 0.0
C73 C 0.22441 0.95535 0.32592 0.0
C74 C 0.117 0.97048 0.35006 0.0
O75 O 0.11786 0.94018 0.35931 0.0
O76 O 0.13453 0.98398 0.27763 0.0
O77 O 0.47093 0.26002 0.38587 0.0
Cd78 Cd 0.45034 0.20644 0.36245 0.0
O79 O 0.4915 0.25663 0.22121 0.0
Cd80 Cd 0.51388 0.28178 0.08653 0.0
O81 O 0.51953 0.32817 0.01216 0.0
C82 C 0.4943 0.34234 0.98252 0.0
O83 O 0.46687 0.32756 0.99014 0.0
C84 C 0.48623 0.27263 0.30718 0.0
C85 C 0.46099 0.16822 0.54471 0.0
O86 O 0.48077 0.1687 0.46482 0.0
O87 O 0.43634 0.18601 0.53899 0.0
C88 C 0.93166 0.04439 0.6564 0.0
Eu89 Eu 0.96986 0.00861 0.77123 0.0
C90 C 0.93601 0.07299 0.58946 0.0
C91 C 0.90952 0.0894 0.54864 0.0
C92 C 0.91375 0.11614 0.48173 0.0
C93 C 0.94453 0.12624 0.45408 0.0
C94 C 0.97098 0.11015 0.49665 0.0
C95 C 0.96675 0.08382 0.56483 0.0
C96 C 0.95053 0.97941 0.95878 0.0
C97 C 0.01773 0.0544 0.90638 0.0
C98 C 0.05509 0.94212 0.02829 0.0
Eu99 Eu 0.02239 0.97964 0.90007 0.0
C100 C 0.05105 0.90844 0.05988 0.0
C101 C 0.05891 0.89813 0.16602 0.0
C102 C 0.05286 0.86675 0.19861 0.0
C103 C 0.03847 0.84543 0.12587 0.0
C104 C 0.03126 0.85552 0.01907 0.0
C105 C 0.03767 0.88668 0.98614 0.0
C106 C 0.04358 0.00702 0.71095 0.0
C107 C 0.98043 0.93615 0.73107 0.0
O108 O 0.945 0.01872 0.61853 0.0
O109 O 0.93621 0.04788 0.76145 0.0
O110 O 0.93463 0.97949 0.86841 0.0
O111 O 0.97488 0.99656 0.94895 0.0
O112 O 0.999 0.05135 0.82047 0.0
O113 O 0.02763 0.02947 0.96302 0.0
O114 O 0.03333 0.96162 0.06428 0.0
O115 O 0.06241 0.94764 0.92587 0.0
O116 O 0.05894 0.00648 0.8032 0.0
O117 O 0.01798 0.99137 0.72199 0.0
O118 O 0.99802 0.93738 0.82046 0.0
O119 O 0.96848 0.96192 0.68604 0.0
H120 H 0.88567 0.08139 0.56776 0.0
H121 H 0.89317 0.12854 0.44968 0.0
H122 H 0.99486 0.11791 0.47656 0.0
H123 H 0.98744 0.07177 0.59745 0.0
H124 H 0.0694 0.91436 0.22404 0.0
H125 H 0.05901 0.85918 0.28084 0.0
H126 H 0.02031 0.83935 0.96163 0.0
H127 H 0.03168 0.89378 0.90346 0.0
C128 C 0.44043 0.00855 0.61423 0.0
Eu129 Eu 0.47463 0.01008 0.79203 0.0
C130 C 0.40954 0.99683 0.57579 0.0
C131 C 0.39133 0.97569 0.63943 0.0
C132 C 0.36161 0.96545 0.60199 0.0
C133 C 0.34974 0.97647 0.50108 0.0
C134 C 0.36818 0.99729 0.43726 0.0
C135 C 0.39789 0.00739 0.47433 0.0
C136 C 0.49751 0.96136 0.91621 0.0
C137 C 0.43287 0.02253 0.01643 0.0
C138 C 0.54625 0.02948 0.18118 0.0
Eu139 Eu 0.5087 0.02922 0.01162 0.0
C140 C 0.5765 0.01405 0.20991 0.0
C141 C 0.59231 0.02264 0.30624 0.0
C142 C 0.6214 0.00861 0.33339 0.0
C143 C 0.635 0.98569 0.26475 0.0
C144 C 0.61897 0.97678 0.16887 0.0
C145 C 0.58989 0.9909 0.14157 0.0
C146 C 0.48614 0.07762 0.88766 0.0
C147 C 0.54898 0.01658 0.79038 0.0
O148 O 0.46176 0.98704 0.63925 0.0
O149 O 0.43963 0.03202 0.68406 0.0
O150 O 0.49334 0.95943 0.81106 0.0
O151 O 0.48534 0.98677 0.94908 0.0
O152 O 0.4334 0.01772 0.90907 0.0
O153 O 0.45883 0.02538 0.07682 0.0
O154 O 0.5217 0.01059 0.17213 0.0
O155 O 0.54752 0.05089 0.10295 0.0
O156 O 0.48858 0.07918 0.99367 0.0
O157 O 0.49904 0.05274 0.85301 0.0
O158 O 0.54744 0.01156 0.89735 0.0
O159 O 0.52341 0.02358 0.73259 0.0
H160 H 0.39998 0.9674 0.71819 0.0
H161 H 0.34762 0.94944 0.65237 0.0
H162 H 0.35935 0.00601 0.35948 0.0
H163 H 0.41164 0.02371 0.42424 0.0
H164 H 0.58228 0.04036 0.36008 0.0
H165 H 0.63342 0.01583 0.40743 0.0
H166 H 0.62905 0.95907 0.11511 0.0
H167 H 0.57791 0.98379 0.0672 0.0
C168 C 0.52997 0.50093 0.4488 0.0
Eu169 Eu 0.52274 0.52231 0.64649 0.0
C170 C 0.53254 0.4681 0.40966 0.0
C171 C 0.54053 0.44381 0.48393 0.0
C172 C 0.53627 0.41202 0.4559 0.0
C173 C 0.52403 0.4041 0.3529 0.0
C174 C 0.51806 0.42827 0.27571 0.0
C175 C 0.52208 0.46017 0.30424 0.0
C176 C 0.56617 0.52848 0.80951 0.0
C177 C 0.50493 0.47305 0.8374 0.0
C178 C 0.49323 0.57742 0.05354 0.0
Eu179 Eu 0.49719 0.54804 0.86793 0.0
C180 C 0.50868 0.6064 0.09362 0.0
C181 C 0.49393 0.62507 0.17352 0.0
C182 C 0.50801 0.65351 0.20707 0.0
C183 C 0.5369 0.66349 0.16074 0.0
C184 C 0.55173 0.6447 0.08157 0.0
C185 C 0.53777 0.61631 0.04832 0.0
C186 C 0.45233 0.52568 0.72924 0.0
C187 C 0.51408 0.59823 0.6711 0.0
O188 O 0.50225 0.50775 0.49128 0.0
O189 O 0.55368 0.51153 0.50794 0.0
O190 O 0.56722 0.50597 0.7375 0.0
O191 O 0.54386 0.54729 0.7876 0.0
O192 O 0.50457 0.47806 0.7305 0.0
O193 O 0.5077 0.49658 0.90794 0.0
O194 O 0.51229 0.55329 0.03693 0.0
O195 O 0.47265 0.58154 0.9741 0.0
O196 O 0.44936 0.5243 0.8352 0.0
O197 O 0.47695 0.54101 0.70434 0.0
O198 O 0.50352 0.59374 0.77218 0.0
O199 O 0.52387 0.5748 0.60768 0.0
H200 H 0.54844 0.44953 0.56566 0.0
H201 H 0.54096 0.39369 0.51649 0.0
H202 H 0.50889 0.42253 0.19559 0.0
H203 H 0.51553 0.4786 0.24612 0.0
H204 H 0.47133 0.61792 0.20837 0.0
H205 H 0.49616 0.66808 0.26716 0.0
H206 H 0.57376 0.65245 0.04427 0.0
H207 H 0.54942 0.6023 0.98606 0.0
C208 C 0.01447 0.49907 0.29721 0.0
Eu209 Eu 0.98898 0.48596 0.48592 0.0
C210 C 0.04816 0.49833 0.26197 0.0
C211 C 0.07005 0.52095 0.30044 0.0
C212 C 0.1024 0.51796 0.27709 0.0
C213 C 0.11343 0.49242 0.21471 0.0
C214 C 0.09167 0.47037 0.17293 0.0
C215 C 0.05925 0.47332 0.19635 0.0
C216 C 0.98547 0.52389 0.66446 0.0
C217 C 0.04575 0.45481 0.63964 0.0
C218 C 0.94963 0.43357 0.88709 0.0
Eu219 Eu 0.97307 0.44993 0.69921 0.0
C220 C 0.92356 0.44836 0.94768 0.0
C221 C 0.90335 0.42986 0.01336 0.0
C222 C 0.87692 0.44374 0.06319 0.0
C223 C 0.87042 0.47609 0.04639 0.0
C224 C 0.89073 0.49462 0.9814 0.0
C225 C 0.91717 0.48085 0.9324 0.0
C226 C 0.98055 0.41369 0.5168 0.0
C227 C 0.91681 0.4859 0.56579 0.0
O228 O 0.00187 0.47148 0.32071 0.0
O229 O 0.00643 0.52093 0.36776 0.0
O230 O 0.97915 0.53334 0.5653 0.0
O231 O 0.99617 0.49589 0.66171 0.0
O232 O 0.0361 0.46352 0.54047 0.0
O233 O 0.02563 0.45119 0.7215 0.0
O234 O 0.97538 0.45082 0.87702 0.0
O235 O 0.94127 0.41993 0.79556 0.0
O236 O 0.98791 0.4042 0.61519 0.0
O237 O 0.96701 0.44022 0.5232 0.0
O238 O 0.92823 0.47735 0.66208 0.0
O239 O 0.93509 0.48763 0.47728 0.0
H240 H 0.0624 0.54052 0.35116 0.0
H241 H 0.11896 0.5352 0.30959 0.0
H242 H 0.09986 0.45064 0.12394 0.0
H243 H 0.04293 0.45562 0.16529 0.0
H244 H 0.90778 0.40472 0.02485 0.0
H245 H 0.86134 0.42927 0.1136 0.0
H246 H 0.88588 0.5196 0.96778 0.0
H247 H 0.93231 0.49549 0.8809 0.0
C248 C 0.11292 0.00423 0.51698 0.0
C249 C 0.09777 0.98934 0.42714 0.0
C250 C 0.04568 0.00162 0.50529 0.0
C251 C 0.06089 0.01011 0.60425 0.0
N252 N 0.107 0.03566 0.68128 0.0
N253 N 0.05021 0.97718 0.32641 0.0
C254 C 0.09399 0.01661 0.60306 0.0
C255 C 0.0642 0.98951 0.41764 0.0
N256 N 0.14536 0.00475 0.52329 0.0
N257 N 0.0139 0.00692 0.4939 0.0
H258 H 0.06341 0.97037 0.25817 0.0
H259 H 0.02593 0.97293 0.31932 0.0
H260 H 0.00103 0.0185 0.55445 0.0
H261 H 0.00127 0.00331 0.42177 0.0
H262 H 0.15783 0.01124 0.59331 0.0
H263 H 0.16 0.99709 0.45983 0.0
H264 H 0.13048 0.04344 0.67985 0.0
H265 H 0.09331 0.04699 0.74033 0.0
C266 C 0.44255 0.12553 0.6747 0.0
C267 C 0.46644 0.14734 0.64098 0.0
C268 C 0.50277 0.12554 0.77936 0.0
C269 C 0.47837 0.10473 0.81522 0.0
N270 N 0.42278 0.09159 0.82027 0.0
N271 N 0.51634 0.17344 0.67863 0.0
C272 C 0.44749 0.10693 0.7704 0.0
C273 C 0.49577 0.14892 0.6984 0.0
N274 N 0.41602 0.12103 0.612 0.0
N275 N 0.53274 0.12259 0.82131 0.0
H276 H 0.51156 0.1916 0.62249 0.0
H277 H 0.53665 0.17752 0.72521 0.0
H278 H 0.53812 0.10723 0.88605 0.0
H279 H 0.55247 0.13419 0.78851 0.0
H280 H 0.39966 0.10293 0.62699 0.0
H281 H 0.41191 0.13314 0.53864 0.0
H282 H 0.39915 0.09447 0.79667 0.0
H283 H 0.42569 0.07884 0.89295 0.0
C284 C 0.38749 0.48427 0.56372 0.0
C285 C 0.3841 0.50637 0.47567 0.0
C286 C 0.41794 0.54365 0.57442 0.0
C287 C 0.42634 0.51951 0.65014 0.0
N288 N 0.42123 0.46507 0.71062 0.0
N289 N 0.4034 0.5545 0.38756 0.0
C290 C 0.41164 0.48928 0.64351 0.0
C291 C 0.40122 0.53545 0.47832 0.0
N292 N 0.36687 0.45938 0.57451 0.0
N293 N 0.42481 0.57468 0.59583 0.0
H294 H 0.39413 0.54831 0.3115 0.0
H295 H 0.41794 0.57456 0.38474 0.0
H296 H 0.4356 0.58192 0.66845 0.0
H297 H 0.41635 0.59331 0.54724 0.0
H298 H 0.3667 0.44432 0.64259 0.0
H299 H 0.34761 0.45595 0.52225 0.0
H300 H 0.4138 0.44166 0.70063 0.0
H301 H 0.43849 0.46793 0.77078 0.0
C302 C 0.98109 0.38283 0.21922 0.0
C303 C 0.99647 0.35336 0.23591 0.0
C304 C 0.01098 0.37084 0.41925 0.0
C305 C 0.98842 0.39597 0.41349 0.0
N306 N 0.94998 0.42429 0.29861 0.0
N307 N 0.02223 0.31728 0.36346 0.0
C308 C 0.97295 0.40172 0.31088 0.0
C309 C 0.01046 0.3467 0.33911 0.0
N310 N 0.97559 0.39376 0.11545 0.0
N311 N 0.03433 0.37093 0.49662 0.0
H312 H 0.02095 0.29815 0.31006 0.0
H313 H 0.03015 0.31118 0.4418 0.0
H314 H 0.03868 0.39072 0.5449 0.0
H315 H 0.05232 0.35391 0.4994 0.0
H316 H 0.96827 0.41698 0.10001 0.0
H317 H 0.98238 0.38132 0.04563 0.0
H318 H 0.93545 0.42556 0.22951 0.0
H319 H 0.94427 0.44099 0.35672 0.0
C320 C 0.88739 0.97587 0.17669 0.0
C321 C 0.89605 0.94746 0.23254 0.0
C322 C 0.9444 0.94343 0.12229 0.0
C323 C 0.93535 0.9713 0.06459 0.0
N324 N 0.90427 0.01923 0.0583 0.0
N325 N 0.93664 0.90978 0.28239 0.0
C326 C 0.90883 0.9893 0.09935 0.0
C327 C 0.92596 0.93312 0.21327 0.0
N328 N 0.85793 0.98884 0.19161 0.0
N329 N 0.96951 0.92589 0.0864 0.0
H330 H 0.92362 0.90211 0.35041 0.0
H331 H 0.95948 0.90032 0.27888 0.0
H332 H 0.98316 0.93266 0.01924 0.0
H333 H 0.97555 0.90377 0.11818 0.0
H334 H 0.84898 0.00724 0.14324 0.0
H335 H 0.84135 0.97985 0.24715 0.0
H336 H 0.88708 0.03474 0.08799 0.0
H337 H 0.91984 0.02968 0.00206 0.0
C338 C 0.56171 0.90217 0.00689 0.0
C339 C 0.56021 0.90547 0.12226 0.0
C340 C 0.51285 0.93846 0.09993 0.0
C341 C 0.51822 0.94037 0.98495 0.0
N342 N 0.55472 0.92918 0.83507 0.0
N343 N 0.53814 0.93368 0.27667 0.0
C344 C 0.54453 0.92364 0.93959 0.0
C345 C 0.53684 0.92557 0.16861 0.0
N346 N 0.57849 0.87792 0.96071 0.0
N347 N 0.48454 0.94776 0.14398 0.0
H348 H 0.55646 0.92651 0.32868 0.0
H349 H 0.52306 0.9506 0.31079 0.0
H350 H 0.46523 0.95484 0.09637 0.0
H351 H 0.47903 0.94455 0.22661 0.0
H352 H 0.57783 0.87325 0.87693 0.0
H353 H 0.58967 0.8602 0.00664 0.0
H354 H 0.57564 0.9194 0.80416 0.0
H355 H 0.5451 0.94636 0.78394 0.0
C356 C 0.62695 0.52172 0.04112 0.0
C357 C 0.6352 0.55429 0.05426 0.0
C358 C 0.60526 0.56687 0.88761 0.0
C359 C 0.59196 0.53599 0.88813 0.0
N360 N 0.58769 0.48449 0.97499 0.0
N361 N 0.62575 0.60897 0.9997 0.0
C362 C 0.60211 0.51346 0.96753 0.0
C363 C 0.62265 0.57723 0.98001 0.0
N364 N 0.64391 0.49844 0.09325 0.0
N365 N 0.60232 0.58598 0.79737 0.0
H366 H 0.63509 0.61796 0.07219 0.0
H367 H 0.61544 0.6263 0.94985 0.0
H368 H 0.59104 0.57862 0.72579 0.0
H369 H 0.61421 0.6076 0.78943 0.0
H370 H 0.64043 0.47435 0.07841 0.0
H371 H 0.664 0.50301 0.14045 0.0
H372 H 0.59184 0.46865 0.0394 0.0
H373 H 0.56971 0.47739 0.92201 0.0
C374 C 0.97391 0.59303 0.86552 0.0
C375 C 0.99256 0.58211 0.95507 0.0
C376 C 0.01227 0.53892 0.84164 0.0
C377 C 0.989 0.54569 0.76031 0.0
N378 N 0.94506 0.57937 0.70184 0.0
N379 N 0.0242 0.53994 0.0344 0.0
C380 C 0.96903 0.5728 0.77397 0.0
C381 C 0.01004 0.55357 0.94516 0.0
N382 N 0.96225 0.62334 0.8645 0.0
N383 N 0.03821 0.52079 0.81784 0.0
H384 H 0.02203 0.54905 0.11325 0.0
H385 H 0.03497 0.51768 0.03116 0.0
H386 H 0.04385 0.51431 0.73812 0.0
H387 H 0.05671 0.51696 0.87325 0.0
H388 H 0.95149 0.63359 0.79601 0.0
H389 H 0.96645 0.63952 0.92708 0.0
H390 H 0.92768 0.5964 0.71705 0.0
H391 H 0.94052 0.56638 0.63158 0.0
C392 C 0.96135 0.17217 0.19306 0.0
C393 C 0.96981 0.20221 0.23681 0.0
C394 C 0.95776 0.18349 0.42247 0.0
C395 C 0.94957 0.15345 0.37896 0.0
N396 N 0.93713 0.12057 0.22379 0.0
N397 N 0.96868 0.23917 0.38643 0.0
C398 C 0.94903 0.14836 0.26427 0.0
C399 C 0.96575 0.20869 0.34972 0.0
N400 N 0.96709 0.16562 0.08516 0.0
N401 N 0.95867 0.18761 0.53346 0.0
H402 H 0.97377 0.25826 0.33434 0.0
H403 H 0.96321 0.24611 0.4659 0.0
H404 H 0.95127 0.1702 0.58908 0.0
H405 H 0.96826 0.20759 0.57084 0.0
H406 H 0.96473 0.14317 0.05111 0.0
H407 H 0.97665 0.182 0.03003 0.0
H408 H 0.93274 0.11671 0.14105 0.0
H409 H 0.92935 0.10193 0.27363 0.0
C410 C 0.2595 0.97218 0.47928 0.0
C411 C 0.256 0.95541 0.37977 0.0
C412 C 0.31366 0.94674 0.37315 0.0
C413 C 0.31735 0.96746 0.46363 0.0
N414 N 0.2941 0.00326 0.59497 0.0
N415 N 0.27936 0.92764 0.22769 0.0
C416 C 0.29034 0.98089 0.51531 0.0
C417 C 0.28296 0.94258 0.32597 0.0
N418 N 0.23322 0.97934 0.54016 0.0
N419 N 0.33948 0.93081 0.33347 0.0
H420 H 0.25724 0.92384 0.19155 0.0
H421 H 0.29827 0.92065 0.17847 0.0
H422 H 0.36223 0.93339 0.36621 0.0
H423 H 0.33808 0.91316 0.27443 0.0
H424 H 0.23434 0.98889 0.61854 0.0
H425 H 0.21035 0.9726 0.51689 0.0
H426 H 0.27537 0.01655 0.62641 0.0
H427 H 0.31626 0.01059 0.62347 0.0
C428 C 0.47242 0.33024 0.32686 0.0
C429 C 0.49595 0.3065 0.31265 0.0
C430 C 0.53719 0.34776 0.30367 0.0
C431 C 0.51415 0.37084 0.33173 0.0
N432 N 0.46041 0.38378 0.38471 0.0
N433 N 0.55133 0.29196 0.30079 0.0
C434 C 0.4819 0.36202 0.34735 0.0
C435 C 0.52854 0.31506 0.30387 0.0
N436 N 0.44096 0.32273 0.31598 0.0
N437 N 0.5672 0.35717 0.27543 0.0
H438 H 0.546 0.26778 0.30198 0.0
H439 H 0.57558 0.29664 0.30617 0.0
H440 H 0.57427 0.38092 0.27553 0.0
H441 H 0.58418 0.34188 0.24306 0.0
H442 H 0.42296 0.33969 0.31341 0.0
H443 H 0.433 0.29987 0.29834 0.0
H444 H 0.43752 0.37776 0.4099 0.0
H445 H 0.46611 0.40751 0.39863 0.0
C446 C 0.19875 0.46266 0.23815 0.0
C447 C 0.21459 0.48446 0.16757 0.0
C448 C 0.16332 0.50793 0.11591 0.0
C449 C 0.14803 0.4886 0.19534 0.0
N450 N 0.15137 0.45068 0.34388 0.0
N451 N 0.21255 0.53207 0.056 0.0
C452 C 0.16579 0.46679 0.25988 0.0
C453 C 0.19703 0.50821 0.11058 0.0
N454 N 0.21488 0.43729 0.28101 0.0
N455 N 0.1456 0.52564 0.04428 0.0
H456 H 0.23725 0.53387 0.05279 0.0
H457 H 0.20099 0.55178 0.02282 0.0
H458 H 0.1208 0.52619 0.04633 0.0
H459 H 0.15531 0.53745 0.97687 0.0
H460 H 0.20385 0.41884 0.32371 0.0
H461 H 0.23887 0.43308 0.26529 0.0
H462 H 0.16381 0.43725 0.40158 0.0
H463 H 0.1272 0.45279 0.36158 0.0
C464 C 0.04557 0.75892 0.2181 0.0
C465 C 0.01309 0.74964 0.21775 0.0
C466 C 0.99752 0.80432 0.17444 0.0
C467 C 0.02999 0.81268 0.16171 0.0
N468 N 0.08502 0.79675 0.15454 0.0
N469 N 0.95852 0.76215 0.17386 0.0
C470 C 0.0541 0.78965 0.17891 0.0
C471 C 0.98913 0.77198 0.18997 0.0
N472 N 0.06815 0.73892 0.26 0.0
N473 N 0.97472 0.82739 0.17519 0.0
H474 H 0.95145 0.73851 0.18181 0.0
H475 H 0.94083 0.77691 0.14238 0.0
H476 H 0.9801 0.85141 0.16646 0.0
H477 H 0.95108 0.82304 0.1958 0.0
H478 H 0.09165 0.74573 0.27293 0.0
H479 H 0.06284 0.71649 0.29173 0.0
H480 H 0.10308 0.77984 0.15399 0.0
H481 H 0.09221 0.81899 0.12572 0.0
C482 C 0.69829 0.92653 0.3597 0.0
C483 C 0.72569 0.94618 0.35867 0.0
C484 C 0.69437 0.99008 0.28114 0.0
C485 C 0.6664 0.97151 0.29284 0.0
N486 N 0.64075 0.92357 0.35541 0.0
N487 N 0.74987 0.99743 0.32868 0.0
C488 C 0.66811 0.94 0.3344 0.0
C489 C 0.72374 0.9782 0.32233 0.0
N490 N 0.70113 0.89495 0.38435 0.0
N491 N 0.693 0.01865 0.22746 0.0
H492 H 0.77217 0.98926 0.35338 0.0
H493 H 0.74909 0.0219 0.31631 0.0
H494 H 0.67194 0.02801 0.19576 0.0
H495 H 0.71298 0.03186 0.20589 0.0
H496 H 0.68277 0.87864 0.37437 0.0
H497 H 0.7226 0.88451 0.40753 0.0
H498 H 0.64013 0.90235 0.39953 0.0
H499 H 0.61821 0.93262 0.33836 0.0
C500 C 0.56126 0.75032 0.14372 0.0
C501 C 0.5782 0.75361 0.24334 0.0
C502 C 0.57021 0.69709 0.28548 0.0
C503 C 0.55101 0.69454 0.19028 0.0
N504 N 0.52513 0.71873 0.03447 0.0
N505 N 0.59798 0.73164 0.41259 0.0
C506 C 0.54578 0.72114 0.12062 0.0
C507 C 0.58264 0.72733 0.31506 0.0
N508 N 0.56056 0.77502 0.07033 0.0
N509 N 0.5767 0.6705 0.3465 0.0
H510 H 0.60802 0.7533 0.43505 0.0
H511 H 0.59979 0.71439 0.47355 0.0
H512 H 0.56728 0.64823 0.32849 0.0
H513 H 0.5927 0.66985 0.41139 0.0
H514 H 0.55153 0.77324 0.99126 0.0
H515 H 0.57146 0.79683 0.08512 0.0
H516 H 0.51746 0.73803 0.98781 0.0
H517 H 0.51364 0.69764 0.01394 0.0
C518 C 0.81877 0.52605 0.23268 0.0
C519 C 0.78811 0.51863 0.19123 0.0
C520 C 0.81182 0.48601 0.04768 0.0
C521 C 0.84207 0.49076 0.09611 0.0
N522 N 0.87455 0.51169 0.24136 0.0
N523 N 0.75457 0.48976 0.06642 0.0
C524 C 0.84568 0.50999 0.19009 0.0
C525 C 0.78437 0.49803 0.10081 0.0
N526 N 0.82213 0.54814 0.31349 0.0
N527 N 0.80952 0.47102 0.94893 0.0
H528 H 0.73389 0.4995 0.09934 0.0
H529 H 0.75022 0.47193 0.00972 0.0
H530 H 0.82916 0.46181 0.90771 0.0
H531 H 0.78865 0.46993 0.90334 0.0
H532 H 0.84399 0.55705 0.33881 0.0
H533 H 0.80297 0.55931 0.35114 0.0
H534 H 0.8781 0.52247 0.31683 0.0
H535 H 0.89478 0.50003 0.21288 0.0
C536 C 0.03491 0.12801 0.07758 0.0
C537 C 0.04709 0.1491 0.99615 0.0
C538 C 0.04233 0.10731 0.85778 0.0
C539 C 0.02825 0.08685 0.93761 0.0
N540 N 0.00505 0.08001 0.11705 0.0
N541 N 0.05972 0.16032 0.80709 0.0
C542 C 0.02321 0.09767 0.04619 0.0
C543 C 0.04988 0.13919 0.88573 0.0
N544 N 0.03359 0.13723 0.18475 0.0
N545 N 0.04982 0.09595 0.7563 0.0
H546 H 0.06847 0.18286 0.82497 0.0
H547 H 0.05774 0.15625 0.72336 0.0
H548 H 0.04448 0.07307 0.73083 0.0
H549 H 0.06366 0.10823 0.69942 0.0
H550 H 0.02916 0.12163 0.2495 0.0
H551 H 0.0382 0.1603 0.21052 0.0
H552 H 0.99754 0.08799 0.19328 0.0
H553 H 0.99469 0.05841 0.09606 0.0
C554 C 0.34818 0.00051 0.09034 0.0
C555 C 0.33824 0.02814 0.14693 0.0
C556 C 0.39133 0.05139 0.12631 0.0
C557 C 0.40137 0.02361 0.07055 0.0
N558 N 0.39207 0.96896 0.02253 0.0
N559 N 0.35144 0.07676 0.23954 0.0
C560 C 0.38054 0.99734 0.05926 0.0
C561 C 0.36025 0.0525 0.17212 0.0
N562 N 0.32659 0.97736 0.06547 0.0
N563 N 0.41069 0.07744 0.12978 0.0
H564 H 0.32847 0.0792 0.27043 0.0
H565 H 0.36743 0.09312 0.27165 0.0
H566 H 0.43361 0.07774 0.09775 0.0
H567 H 0.40328 0.09961 0.15698 0.0
H568 H 0.33128 0.95875 0.01216 0.0
H569 H 0.30321 0.97751 0.0937 0.0
H570 H 0.37909 0.94792 0.02356 0.0
H571 H 0.41575 0.96563 0.0001 0.0
C572 C 0.47782 0.3995 0.9972 0.0
C573 C 0.49584 0.37564 0.94389 0.0
C574 C 0.52277 0.4162 0.83411 0.0
C575 C 0.50244 0.43982 0.87828 0.0
N576 N 0.45674 0.45284 0.98987 0.0
N577 N 0.52996 0.36055 0.79422 0.0
C578 C 0.4789 0.43121 0.95673 0.0
C579 C 0.51672 0.38377 0.85725 0.0
N580 N 0.4607 0.39226 0.08933 0.0
N581 N 0.54893 0.42468 0.77452 0.0
H582 H 0.52544 0.33643 0.80663 0.0
H583 H 0.54266 0.36535 0.72267 0.0
H584 H 0.5552 0.44819 0.75989 0.0
H585 H 0.56625 0.40854 0.74993 0.0
H586 H 0.45017 0.40936 0.13878 0.0
H587 H 0.45951 0.36951 0.12299 0.0
H588 H 0.43683 0.44678 0.03627 0.0
H589 H 0.45647 0.47634 0.96333 0.0
C590 C 0.12169 0.42734 0.77873 0.0
C591 C 0.14442 0.44829 0.73218 0.0
C592 C 0.10272 0.47396 0.62365 0.0
C593 C 0.08029 0.45117 0.66302 0.0
N594 N 0.07113 0.40112 0.7572 0.0
N595 N 0.15824 0.48601 0.59082 0.0
C596 C 0.09063 0.42624 0.73385 0.0
C597 C 0.13546 0.46972 0.64793 0.0
N598 N 0.129 0.40979 0.86996 0.0
N599 N 0.09295 0.50099 0.5709 0.0
H600 H 0.18248 0.48329 0.60628 0.0
H601 H 0.15323 0.49956 0.52114 0.0
H602 H 0.06925 0.50697 0.55821 0.0
H603 H 0.10833 0.51952 0.55071 0.0
H604 H 0.11205 0.3971 0.91458 0.0
H605 H 0.15122 0.41027 0.90762 0.0
H606 H 0.07888 0.38088 0.79892 0.0
H607 H 0.04826 0.39885 0.72577 0.0
C608 C 0.98555 0.8666 0.53425 0.0
C609 C 0.97105 0.84234 0.59833 0.0
C610 C 0.95973 0.88043 0.74439 0.0
C611 C 0.97451 0.9047 0.68092 0.0
N612 N 0.99765 0.92249 0.50992 0.0
N613 N 0.93925 0.82652 0.75331 0.0
C614 C 0.98585 0.89835 0.57349 0.0
C615 C 0.95676 0.84935 0.70054 0.0
N616 N 0.00099 0.85889 0.43936 0.0
N617 N 0.94852 0.88719 0.84678 0.0
H618 H 0.93625 0.80367 0.72252 0.0
H619 H 0.92565 0.83061 0.82297 0.0
H620 H 0.94663 0.9103 0.87606 0.0
H621 H 0.94186 0.87004 0.9041 0.0
H622 H 0.0148 0.87472 0.39432 0.0
H623 H 0.00193 0.83591 0.40833 0.0
H624 H 0.00209 0.92059 0.42637 0.0
H625 H 0.00165 0.94529 0.53896 0.0
C626 C 0.61952 0.98716 0.62849 0.0
C627 C 0.64348 0.00849 0.66309 0.0
C628 C 0.60483 0.03694 0.77538 0.0
C629 C 0.58058 0.0162 0.7372 0.0
N630 N 0.56345 0.97739 0.60411 0.0
N631 N 0.65876 0.05671 0.75349 0.0
C632 C 0.58741 0.99329 0.65586 0.0
C633 C 0.63606 0.03439 0.73164 0.0
N634 N 0.6276 0.96014 0.57381 0.0
N635 N 0.59801 0.05897 0.85371 0.0
H636 H 0.68203 0.05505 0.72442 0.0
H637 H 0.65414 0.07796 0.79353 0.0
H638 H 0.57497 0.06357 0.88055 0.0
H639 H 0.61524 0.07188 0.89534 0.0
H640 H 0.61157 0.94184 0.5585 0.0
H641 H 0.65096 0.95465 0.55277 0.0
H642 H 0.56719 0.96334 0.53535 0.0
H643 H 0.53952 0.98014 0.6234 0.0
C644 C 0.48919 0.67231 0.51427 0.0
C645 C 0.51077 0.69503 0.5562 0.0
C646 C 0.53354 0.65455 0.67804 0.0
C647 C 0.51432 0.63113 0.62746 0.0
N648 N 0.47785 0.61686 0.48266 0.0
N649 N 0.55852 0.70596 0.65984 0.0
C650 C 0.49355 0.63969 0.54042 0.0
C651 C 0.5343 0.68574 0.63346 0.0
N652 N 0.46351 0.68202 0.45418 0.0
N653 N 0.55117 0.64713 0.76864 0.0
H654 H 0.56101 0.72859 0.62593 0.0
H655 H 0.57811 0.69908 0.70644 0.0
H656 H 0.5528 0.62422 0.80048 0.0
H657 H 0.56235 0.66417 0.8167 0.0
H658 H 0.44515 0.66684 0.43128 0.0
H659 H 0.45888 0.70582 0.43631 0.0
H660 H 0.46494 0.62173 0.41177 0.0
H661 H 0.47961 0.5927 0.50001 0.0
C662 C 0.83102 0.47709 0.46998 0.0
C663 C 0.81479 0.49766 0.54302 0.0
C664 C 0.86569 0.51195 0.62813 0.0
C665 C 0.8817 0.49039 0.55771 0.0
N666 N 0.87754 0.44465 0.44081 0.0
N667 N 0.81563 0.529 0.70738 0.0
C668 C 0.86381 0.4708 0.48651 0.0
C669 C 0.83185 0.51365 0.62633 0.0
N670 N 0.81547 0.46407 0.3828 0.0
N671 N 0.88274 0.53105 0.69636 0.0
H672 H 0.79088 0.53021 0.70995 0.0
H673 H 0.8264 0.53789 0.77758 0.0
H674 H 0.90721 0.52914 0.70586 0.0
H675 H 0.87292 0.54998 0.73907 0.0
H676 H 0.82706 0.45163 0.32104 0.0
H677 H 0.79165 0.46843 0.36511 0.0
H678 H 0.86494 0.42788 0.39594 0.0
H679 H 0.90049 0.43739 0.46032 0.0
loop_
_geom_bond_atom_site_label_1
_geom_bond_atom_site_label_2
_geom_bond_distance
_geom_bond_site_symmetry_2
_ccdc_geom_bond_type
O0 Cd1 2.300 . S
O0 C7 1.275 . S
Cd1 O0 2.300 . S
Cd1 O9 2.381 . S
Cd1 O10 2.378 . S
O2 Cd3 2.385 . S
O2 C7 1.255 . S
Cd3 O2 2.385 . S
Cd3 O4 2.317 . S
O4 Cd3 2.317 . S
O4 C5 1.232 . S
C5 O4 1.232 . S
C5 O6 1.218 . S
O6 C5 1.218 . S
C7 O0 1.275 . S
C7 O2 1.255 . S
C8 O9 1.258 . S
C8 O10 1.256 . S
O9 Cd1 2.381 . S
O9 C8 1.258 . S
O10 Cd1 2.378 . S
O10 C8 1.256 . S
O11 Cd12 2.300 1_655 S
O11 C18 1.275 1_655 S
Cd12 O11 2.300 1_455 S
Cd12 O20 2.381 1_455 S
Cd12 O21 2.378 . S
O13 Cd14 2.385 . S
O13 C18 1.255 . S
Cd14 O13 2.385 . S
Cd14 O15 2.317 . S
O15 Cd14 2.317 . S
O15 C16 1.232 . S
C16 O15 1.232 . S
C16 O17 1.218 . S
O17 C16 1.218 . S
C18 O11 1.275 1_455 S
C18 O13 1.255 . S
C19 O20 1.258 1_455 S
C19 O21 1.256 . S
O20 Cd12 2.381 1_655 S
O20 C19 1.258 1_655 S
O21 Cd12 2.378 . S
O21 C19 1.256 . S
O22 Cd23 2.300 1_565 S
O22 C29 1.275 1_565 S
Cd23 O22 2.300 1_545 S
Cd23 O31 2.381 1_545 S
Cd23 O32 2.378 . S
O24 Cd25 2.385 . S
O24 C29 1.255 . S
Cd25 O24 2.385 . S
Cd25 O26 2.317 . S
O26 Cd25 2.317 . S
O26 C27 1.232 . S
C27 O26 1.232 . S
C27 O28 1.218 . S
O28 C27 1.218 . S
C29 O22 1.275 1_545 S
C29 O24 1.255 . S
C30 O31 1.258 1_545 S
C30 O32 1.256 . S
O31 Cd23 2.381 1_565 S
O31 C30 1.258 1_565 S
O32 Cd23 2.378 . S
O32 C30 1.256 . S
O33 Cd34 2.300 . S
O33 C40 1.275 . S
Cd34 O33 2.300 . S
Cd34 O42 2.381 . S
Cd34 O43 2.378 . S
O35 Cd36 2.385 . S
O35 C40 1.255 . S
Cd36 O35 2.385 . S
Cd36 O37 2.317 . S
O37 Cd36 2.317 . S
O37 C38 1.232 . S
C38 O37 1.232 . S
C38 O39 1.218 . S
O39 C38 1.218 . S
C40 O33 1.275 . S
C40 O35 1.255 . S
C41 O42 1.258 . S
C41 O43 1.256 . S
O42 Cd34 2.381 . S
O42 C41 1.258 . S
O43 Cd34 2.378 . S
O43 C41 1.256 . S
O44 Cd45 2.300 . S
O44 C51 1.275 . S
Cd45 O44 2.300 . S
Cd45 O53 2.381 . S
Cd45 O54 2.378 . S
O46 Cd47 2.385 1_554 S
O46 C51 1.255 . S
Cd47 O46 2.385 1_556 S
Cd47 O48 2.317 . S
O48 Cd47 2.317 . S
O48 C49 1.232 . S
C49 O48 1.232 . S
C49 O50 1.218 . S
O50 C49 1.218 . S
C51 O44 1.275 . S
C51 O46 1.255 . S
C52 O53 1.258 . S
C52 O54 1.256 . S
O53 Cd45 2.381 . S
O53 C52 1.258 . S
O54 Cd45 2.378 . S
O54 C52 1.256 . S
O55 Cd56 2.300 1_655 S
O55 C62 1.275 1_655 S
Cd56 O55 2.300 1_455 S
Cd56 O64 2.381 1_455 S
Cd56 O65 2.378 . S
O57 Cd58 2.385 1_554 S
O57 C62 1.255 . S
Cd58 O57 2.385 1_556 S
Cd58 O59 2.317 . S
O59 Cd58 2.317 . S
O59 C60 1.232 . S
C60 O59 1.232 . S
C60 O61 1.218 . S
O61 C60 1.218 . S
C62 O55 1.275 1_455 S
C62 O57 1.255 . S
C63 O64 1.258 1_455 S
C63 O65 1.256 . S
O64 Cd56 2.381 1_655 S
O64 C63 1.258 1_655 S
O65 Cd56 2.378 . S
O65 C63 1.256 . S
O66 Cd67 2.300 1_565 S
O66 C73 1.275 1_565 S
Cd67 O66 2.300 1_545 S
Cd67 O75 2.381 1_545 S
Cd67 O76 2.378 . S
O68 Cd69 2.385 1_554 S
O68 C73 1.255 . S
Cd69 O68 2.385 1_556 S
Cd69 O70 2.317 . S
O70 Cd69 2.317 . S
O70 C71 1.232 . S
C71 O70 1.232 . S
C71 O72 1.218 . S
O72 C71 1.218 . S
C73 O66 1.275 1_545 S
C73 O68 1.255 . S
C74 O75 1.258 1_545 S
C74 O76 1.256 . S
O75 Cd67 2.381 1_565 S
O75 C74 1.258 1_565 S
O76 Cd67 2.378 . S
O76 C74 1.256 . S
O77 Cd78 2.300 . S
O77 C84 1.275 . S
Cd78 O77 2.300 . S
Cd78 O86 2.381 . S
Cd78 O87 2.378 . S
O79 Cd80 2.385 1_554 S
O79 C84 1.255 . S
Cd80 O79 2.385 1_556 S
Cd80 O81 2.317 . S
O81 Cd80 2.317 . S
O81 C82 1.232 . S
C82 O81 1.232 . S
C82 O83 1.218 . S
O83 C82 1.218 . S
C84 O77 1.275 . S
C84 O79 1.255 . S
C85 O86 1.258 . S
C85 O87 1.256 . S
O86 Cd78 2.381 . S
O86 C85 1.258 . S
O87 Cd78 2.378 . S
O87 C85 1.256 . S
C88 Eu89 2.835 . S
C88 C90 1.500 . S
C88 O108 1.257 . S
C88 O109 1.260 . S
Eu89 C88 2.835 . S
Eu89 O108 2.473 . S
Eu89 O109 2.480 . S
Eu89 O110 2.430 . S
Eu89 O111 2.670 1_545 S
Eu89 O112 2.394 . S
Eu89 O117 2.355 1_655 S
Eu89 O119 2.374 1_545 S
C90 C88 1.500 . S
C90 C91 1.377 . S
C90 C95 1.377 . S
C91 C90 1.377 . S
C91 C92 1.395 . S
C91 H120 0.931 . S
C92 C91 1.395 . S
C92 C93 1.383 . S
C92 H121 0.931 . S
C93 C92 1.383 . S
C93 C94 1.394 . S
C94 C93 1.394 . S
C94 C95 1.378 . S
C94 H122 0.931 1_655 S
C95 C90 1.377 . S
C95 C94 1.378 . S
C95 H123 0.931 1_655 S
C96 O110 1.259 . S
C96 O111 1.270 1_545 S
C97 O112 1.251 1_455 S
C97 O113 1.251 . S
C98 Eu99 2.835 . S
C98 C100 1.500 1_556 S
C98 O114 1.257 . S
C98 O115 1.260 . S
Eu99 C98 2.835 . S
Eu99 O111 2.355 1_455 S
Eu99 O113 2.374 1_565 S
Eu99 O114 2.473 . S
Eu99 O115 2.480 . S
Eu99 O116 2.430 . S
Eu99 O117 2.670 1_565 S
Eu99 O118 2.394 . S
C100 C98 1.500 1_554 S
C100 C101 1.377 . S
C100 C105 1.377 . S
C101 C100 1.377 . S
C101 C102 1.395 . S
C101 H124 0.931 . S
C102 C101 1.395 . S
C102 C103 1.383 . S
C102 H125 0.931 . S
C103 C102 1.383 . S
C103 C104 1.394 . S
C104 C103 1.394 . S
C104 C105 1.378 . S
C104 H126 0.931 1_455 S
C105 C100 1.377 . S
C105 C104 1.378 . S
C105 H127 0.931 1_455 S
C106 O116 1.259 . S
C106 O117 1.270 1_565 S
C107 O118 1.251 1_655 S
C107 O119 1.251 . S
O108 C88 1.257 . S
O108 Eu89 2.473 . S
O109 C88 1.260 . S
O109 Eu89 2.480 . S
O110 Eu89 2.430 . S
O110 C96 1.259 . S
O111 Eu89 2.670 1_565 S
O111 C96 1.270 1_565 S
O111 Eu99 2.355 1_655 S
O112 Eu89 2.394 . S
O112 C97 1.251 1_655 S
O113 C97 1.251 . S
O113 Eu99 2.374 1_545 S
O114 C98 1.257 . S
O114 Eu99 2.473 . S
O115 C98 1.260 . S
O115 Eu99 2.480 . S
O116 Eu99 2.430 . S
O116 C106 1.259 . S
O117 Eu89 2.355 1_455 S
O117 Eu99 2.670 1_545 S
O117 C106 1.270 1_545 S
O118 Eu99 2.394 . S
O118 C107 1.251 1_455 S
O119 Eu89 2.374 1_565 S
O119 C107 1.251 . S
H120 C91 0.931 . S
H121 C92 0.931 . S
H122 C94 0.931 1_455 S
H123 C95 0.931 1_455 S
H124 C101 0.931 . S
H125 C102 0.931 . S
H126 C104 0.931 1_655 S
H127 C105 0.931 1_655 S
C128 Eu129 2.835 . S
C128 C130 1.500 . S
C128 O148 1.257 . S
C128 O149 1.260 . S
Eu129 C128 2.835 . S
Eu129 O148 2.473 . S
Eu129 O149 2.480 . S
Eu129 O150 2.430 . S
Eu129 O151 2.670 . S
Eu129 O152 2.394 . S
Eu129 O157 2.355 1_565 S
Eu129 O159 2.374 . S
C130 C128 1.500 . S
C130 C131 1.377 . S
C130 C135 1.377 . S
C131 C130 1.377 . S
C131 C132 1.395 . S
C131 H160 0.931 . S
C132 C131 1.395 . S
C132 C133 1.383 . S
C132 H161 0.931 . S
C133 C132 1.383 . S
C133 C134 1.394 . S
C134 C133 1.394 . S
C134 C135 1.378 . S
C134 H162 0.931 1_565 S
C135 C130 1.377 . S
C135 C134 1.378 . S
C135 H163 0.931 1_565 S
C136 O150 1.259 . S
C136 O151 1.270 . S
C137 O152 1.251 1_545 S
C137 O153 1.251 . S
C138 Eu139 2.835 . S
C138 C140 1.500 1_556 S
C138 O154 1.257 . S
C138 O155 1.260 . S
Eu139 C138 2.835 . S
Eu139 O151 2.355 1_545 S
Eu139 O153 2.374 . S
Eu139 O154 2.473 . S
Eu139 O155 2.480 . S
Eu139 O156 2.430 . S
Eu139 O157 2.670 . S
Eu139 O158 2.394 . S
C140 C138 1.500 1_554 S
C140 C141 1.377 . S
C140 C145 1.377 . S
C141 C140 1.377 . S
C141 C142 1.395 . S
C141 H164 0.931 . S
C142 C141 1.395 . S
C142 C143 1.383 . S
C142 H165 0.931 . S
C143 C142 1.383 . S
C143 C144 1.394 . S
C144 C143 1.394 . S
C144 C145 1.378 . S
C144 H166 0.931 1_545 S
C145 C140 1.377 . S
C145 C144 1.378 . S
C145 H167 0.931 1_545 S
C146 O156 1.259 . S
C146 O157 1.270 . S
C147 O158 1.251 1_565 S
C147 O159 1.251 . S
O148 C128 1.257 . S
O148 Eu129 2.473 . S
O149 C128 1.260 . S
O149 Eu129 2.480 . S
O150 Eu129 2.430 . S
O150 C136 1.259 . S
O151 Eu129 2.670 . S
O151 C136 1.270 . S
O151 Eu139 2.355 1_565 S
O152 Eu129 2.394 . S
O152 C137 1.251 1_565 S
O153 C137 1.251 . S
O153 Eu139 2.374 . S
O154 C138 1.257 . S
O154 Eu139 2.473 . S
O155 C138 1.260 . S
O155 Eu139 2.480 . S
O156 Eu139 2.430 . S
O156 C146 1.259 . S
O157 Eu129 2.355 1_545 S
O157 Eu139 2.670 . S
O157 C146 1.270 . S
O158 Eu139 2.394 . S
O158 C147 1.251 1_545 S
O159 Eu129 2.374 . S
O159 C147 1.251 . S
H160 C131 0.931 . S
H161 C132 0.931 . S
H162 C134 0.931 1_545 S
H163 C135 0.931 1_545 S
H164 C141 0.931 . S
H165 C142 0.931 . S
H166 C144 0.931 1_565 S
H167 C145 0.931 1_565 S
C168 Eu169 2.835 . S
C168 C170 1.500 . S
C168 O188 1.257 . S
C168 O189 1.260 . S
Eu169 C168 2.835 . S
Eu169 O188 2.473 . S
Eu169 O189 2.480 . S
Eu169 O190 2.430 . S
Eu169 O191 2.670 . S
Eu169 O192 2.394 . S
Eu169 O197 2.355 . S
Eu169 O199 2.374 . S
C170 C168 1.500 . S
C170 C171 1.377 . S
C170 C175 1.377 . S
C171 C170 1.377 . S
C171 C172 1.395 . S
C171 H200 0.931 . S
C172 C171 1.395 . S
C172 C173 1.383 . S
C172 H201 0.931 . S
C173 C172 1.383 . S
C173 C174 1.394 . S
C174 C173 1.394 . S
C174 C175 1.378 . S
C174 H202 0.931 . S
C175 C170 1.377 . S
C175 C174 1.378 . S
C175 H203 0.931 . S
C176 O190 1.259 . S
C176 O191 1.270 . S
C177 O192 1.251 . S
C177 O193 1.251 . S
C178 Eu179 2.835 . S
C178 C180 1.500 1_556 S
C178 O194 1.257 . S
C178 O195 1.260 . S
Eu179 C178 2.835 . S
Eu179 O191 2.355 . S
Eu179 O193 2.374 . S
Eu179 O194 2.473 . S
Eu179 O195 2.480 . S
Eu179 O196 2.430 . S
Eu179 O197 2.670 . S
Eu179 O198 2.394 . S
C180 C178 1.500 1_554 S
C180 C181 1.377 . S
C180 C185 1.377 . S
C181 C180 1.377 . S
C181 C182 1.395 . S
C181 H204 0.931 . S
C182 C181 1.395 . S
C182 C183 1.383 . S
C182 H205 0.931 . S
C183 C182 1.383 . S
C183 C184 1.394 . S
C184 C183 1.394 . S
C184 C185 1.378 . S
C184 H206 0.931 . S
C185 C180 1.377 . S
C185 C184 1.378 . S
C185 H207 0.931 . S
C186 O196 1.259 . S
C186 O197 1.270 . S
C187 O198 1.251 . S
C187 O199 1.251 . S
O188 C168 1.257 . S
O188 Eu169 2.473 . S
O189 C168 1.260 . S
O189 Eu169 2.480 . S
O190 Eu169 2.430 . S
O190 C176 1.259 . S
O191 Eu169 2.670 . S
O191 C176 1.270 . S
O191 Eu179 2.355 . S
O192 Eu169 2.394 . S
O192 C177 1.251 . S
O193 C177 1.251 . S
O193 Eu179 2.374 . S
O194 C178 1.257 . S
O194 Eu179 2.473 . S
O195 C178 1.260 . S
O195 Eu179 2.480 . S
O196 Eu179 2.430 . S
O196 C186 1.259 . S
O197 Eu169 2.355 . S
O197 Eu179 2.670 . S
O197 C186 1.270 . S
O198 Eu179 2.394 . S
O198 C187 1.251 . S
O199 Eu169 2.374 . S
O199 C187 1.251 . S
H200 C171 0.931 . S
H201 C172 0.931 . S
H202 C174 0.931 . S
H203 C175 0.931 . S
H204 C181 0.931 . S
H205 C182 0.931 . S
H206 C184 0.931 . S
H207 C185 0.931 . S
C208 Eu209 2.835 . S
C208 C210 1.500 . S
C208 O228 1.257 . S
C208 O229 1.260 . S
Eu209 C208 2.835 . S
Eu209 O228 2.473 . S
Eu209 O229 2.480 . S
Eu209 O230 2.430 . S
Eu209 O231 2.670 1_455 S
Eu209 O232 2.394 . S
Eu209 O237 2.355 . S
Eu209 O239 2.374 1_455 S
C210 C208 1.500 . S
C210 C211 1.377 . S
C210 C215 1.377 . S
C211 C210 1.377 . S
C211 C212 1.395 . S
C211 H240 0.931 . S
C212 C211 1.395 . S
C212 C213 1.383 . S
C212 H241 0.931 . S
C213 C212 1.383 . S
C213 C214 1.394 . S
C214 C213 1.394 . S
C214 C215 1.378 . S
C214 H242 0.931 . S
C215 C210 1.377 . S
C215 C214 1.378 . S
C215 H243 0.931 . S
C216 O230 1.263 . S
C216 O231 1.267 1_455 S
C217 O232 1.251 . S
C217 O233 1.251 . S
C218 Eu219 2.835 . S
C218 C220 1.500 1_556 S
C218 O234 1.257 . S
C218 O235 1.260 . S
Eu219 C218 2.835 . S
Eu219 O231 2.355 . S
Eu219 O233 2.374 1_655 S
Eu219 O234 2.473 . S
Eu219 O235 2.480 . S
Eu219 O236 2.430 . S
Eu219 O237 2.670 1_655 S
Eu219 O238 2.394 . S
C220 C218 1.500 1_554 S
C220 C221 1.377 . S
C220 C225 1.377 . S
C221 C220 1.377 . S
C221 C222 1.395 . S
C221 H244 0.931 . S
C222 C221 1.395 . S
C222 C223 1.383 . S
C222 H245 0.931 . S
C223 C222 1.383 . S
C223 C224 1.394 . S
C224 C223 1.394 . S
C224 C225 1.378 . S
C224 H246 0.931 . S
C225 C220 1.377 . S
C225 C224 1.378 . S
C225 H247 0.931 . S
C226 O236 1.260 . S
C226 O237 1.269 1_655 S
C227 O238 1.251 . S
C227 O239 1.251 . S
O228 C208 1.257 . S
O228 Eu209 2.473 . S
O229 C208 1.260 . S
O229 Eu209 2.480 . S
O230 Eu209 2.430 . S
O230 C216 1.263 . S
O231 Eu209 2.670 1_655 S
O231 C216 1.267 1_655 S
O231 Eu219 2.355 . S
O232 Eu209 2.394 . S
O232 C217 1.251 . S
O233 C217 1.251 . S
O233 Eu219 2.374 1_455 S
O234 C218 1.257 . S
O234 Eu219 2.473 . S
O235 C218 1.260 . S
O235 Eu219 2.480 . S
O236 Eu219 2.430 . S
O236 C226 1.260 . S
O237 Eu209 2.355 . S
O237 Eu219 2.670 1_455 S
O237 C226 1.269 1_455 S
O238 Eu219 2.394 . S
O238 C227 1.251 . S
O239 Eu209 2.374 1_655 S
O239 C227 1.251 . S
H240 C211 0.931 . S
H241 C212 0.931 . S
H242 C214 0.931 . S
H243 C215 0.931 . S
H244 C221 0.931 . S
H245 C222 0.931 . S
H246 C224 0.931 . S
H247 C225 0.931 . S
C248 C249 1.363 . S
C248 C254 1.379 . S
C248 N256 1.356 . S
C249 C248 1.363 . S
C249 C255 1.363 1_545 S
C250 C251 1.364 1_565 S
C250 C255 1.379 . S
C250 N257 1.356 . S
C251 C250 1.364 1_545 S
C251 C254 1.362 . S
N252 C254 1.356 . S
N252 H264 0.984 . S
N252 H265 0.985 . S
N253 C255 1.356 . S
N253 H258 0.984 . S
N253 H259 0.985 . S
C254 C248 1.379 . S
C254 C251 1.362 . S
C254 N252 1.356 . S
C255 C249 1.363 1_565 S
C255 C250 1.379 . S
C255 N253 1.356 . S
N256 C248 1.356 . S
N256 H262 0.984 . S
N256 H263 0.984 . S
N257 C250 1.356 . S
N257 H260 0.984 . S
N257 H261 0.985 . S
H258 N253 0.984 . S
H259 N253 0.985 . S
H260 N257 0.984 . S
H261 N257 0.985 . S
H262 N256 0.984 . S
H263 N256 0.984 . S
H264 N252 0.984 . S
H265 N252 0.985 . S
C266 C267 1.363 . S
C266 C272 1.379 . S
C266 N274 1.356 . S
C267 C266 1.363 . S
C267 C273 1.363 . S
C268 C269 1.363 . S
C268 C273 1.379 . S
C268 N275 1.356 . S
C269 C268 1.363 . S
C269 C272 1.363 . S
N270 C272 1.356 . S
N270 H282 0.984 . S
N270 H283 0.985 . S
N271 C273 1.356 . S
N271 H276 0.984 . S
N271 H277 0.985 . S
C272 C266 1.379 . S
C272 C269 1.363 . S
C272 N270 1.356 . S
C273 C267 1.363 . S
C273 C268 1.379 . S
C273 N271 1.356 . S
N274 C266 1.356 . S
N274 H280 0.984 . S
N274 H281 0.984 . S
N275 C268 1.356 . S
N275 H278 0.984 . S
N275 H279 0.985 . S
H276 N271 0.984 . S
H277 N271 0.985 . S
H278 N275 0.984 . S
H279 N275 0.985 . S
H280 N274 0.984 . S
H281 N274 0.984 . S
H282 N270 0.984 . S
H283 N270 0.985 . S
C284 C285 1.363 . S
C284 C290 1.379 . S
C284 N292 1.356 . S
C285 C284 1.363 . S
C285 C291 1.363 . S
C286 C287 1.363 . S
C286 C291 1.379 . S
C286 N293 1.356 . S
C287 C286 1.363 . S
C287 C290 1.363 . S
N288 C290 1.356 . S
N288 H300 0.984 . S
N288 H301 0.985 . S
N289 C291 1.356 . S
N289 H294 0.984 . S
N289 H295 0.985 . S
C290 C284 1.379 . S
C290 C287 1.363 . S
C290 N288 1.356 . S
C291 C285 1.363 . S
C291 C286 1.379 . S
C291 N289 1.356 . S
N292 C284 1.356 . S
N292 H298 0.984 . S
N292 H299 0.984 . S
N293 C286 1.356 . S
N293 H296 0.984 . S
N293 H297 0.985 . S
H294 N289 0.984 . S
H295 N289 0.985 . S
H296 N293 0.984 . S
H297 N293 0.985 . S
H298 N292 0.984 . S
H299 N292 0.984 . S
H300 N288 0.984 . S
H301 N288 0.985 . S
C302 C303 1.367 . S
C302 C308 1.379 . S
C302 N310 1.356 . S
C303 C302 1.367 . S
C303 C309 1.359 1_455 S
C304 C305 1.363 1_655 S
C304 C309 1.379 . S
C304 N311 1.356 . S
C305 C304 1.363 1_455 S
C305 C308 1.363 . S
N306 C308 1.356 . S
N306 H318 0.984 . S
N306 H319 0.985 . S
N307 C309 1.356 . S
N307 H312 0.984 . S
N307 H313 0.985 . S
C308 C302 1.379 . S
C308 C305 1.363 . S
C308 N306 1.356 . S
C309 C303 1.359 1_655 S
C309 C304 1.379 . S
C309 N307 1.356 . S
N310 C302 1.356 . S
N310 H316 0.984 . S
N310 H317 0.984 . S
N311 C304 1.356 . S
N311 H314 0.984 . S
N311 H315 0.985 . S
H312 N307 0.984 . S
H313 N307 0.985 . S
H314 N311 0.984 . S
H315 N311 0.985 . S
H316 N310 0.984 . S
H317 N310 0.984 . S
H318 N306 0.984 . S
H319 N306 0.985 . S
C320 C321 1.363 . S
C320 C326 1.379 . S
C320 N328 1.356 . S
C321 C320 1.363 . S
C321 C327 1.363 1_545 S
C322 C323 1.362 1_565 S
C322 C327 1.379 . S
C322 N329 1.356 . S
C323 C322 1.362 1_545 S
C323 C326 1.364 . S
N324 C326 1.356 1_556 S
N324 H336 0.984 . S
N324 H337 0.985 . S
N325 C327 1.356 . S
N325 H330 0.984 . S
N325 H331 0.985 . S
C326 C320 1.379 . S
C326 C323 1.364 . S
C326 N324 1.356 1_554 S
C327 C321 1.363 1_565 S
C327 C322 1.379 . S
C327 N325 1.356 . S
N328 C320 1.356 . S
N328 H334 0.984 . S
N328 H335 0.984 . S
N329 C322 1.356 . S
N329 H332 0.984 1_554 S
N329 H333 0.985 . S
H330 N325 0.984 . S
H331 N325 0.985 . S
H332 N329 0.984 1_556 S
H333 N329 0.985 . S
H334 N328 0.984 . S
H335 N328 0.984 . S
H336 N324 0.984 . S
H337 N324 0.985 . S
C338 C339 1.363 . S
C338 C344 1.379 . S
C338 N346 1.356 . S
C339 C338 1.363 . S
C339 C345 1.363 . S
C340 C341 1.363 . S
C340 C345 1.379 . S
C340 N347 1.356 . S
C341 C340 1.363 . S
C341 C344 1.363 . S
N342 C344 1.356 1_556 S
N342 H354 0.984 . S
N342 H355 0.985 . S
N343 C345 1.356 . S
N343 H348 0.984 . S
N343 H349 0.985 . S
C344 C338 1.379 . S
C344 C341 1.363 . S
C344 N342 1.356 1_554 S
C345 C339 1.363 . S
C345 C340 1.379 . S
C345 N343 1.356 . S
N346 C338 1.356 . S
N346 H352 0.984 . S
N346 H353 0.984 . S
N347 C340 1.356 . S
N347 H350 0.984 1_554 S
N347 H351 0.985 . S
H348 N343 0.984 . S
H349 N343 0.985 . S
H350 N347 0.984 1_556 S
H351 N347 0.985 . S
H352 N346 0.984 . S
H353 N346 0.984 . S
H354 N342 0.984 . S
H355 N342 0.985 . S
C356 C357 1.363 . S
C356 C362 1.379 . S
C356 N364 1.356 . S
C357 C356 1.363 . S
C357 C363 1.363 . S
C358 C359 1.363 . S
C358 C363 1.379 . S
C358 N365 1.356 . S
C359 C358 1.363 . S
C359 C362 1.363 . S
N360 C362 1.356 1_556 S
N360 H372 0.984 . S
N360 H373 0.985 . S
N361 C363 1.356 . S
N361 H366 0.984 . S
N361 H367 0.985 . S
C362 C356 1.379 . S
C362 C359 1.363 . S
C362 N360 1.356 1_554 S
C363 C357 1.363 . S
C363 C358 1.379 . S
C363 N361 1.356 . S
N364 C356 1.356 . S
N364 H370 0.984 . S
N364 H371 0.984 . S
N365 C358 1.356 . S
N365 H368 0.984 1_554 S
N365 H369 0.985 . S
H366 N361 0.984 . S
H367 N361 0.985 . S
H368 N365 0.984 1_556 S
H369 N365 0.985 . S
H370 N364 0.984 . S
H371 N364 0.984 . S
H372 N360 0.984 . S
H373 N360 0.985 . S
C374 C375 1.369 . S
C374 C380 1.379 . S
C374 N382 1.356 . S
C375 C374 1.369 . S
C375 C381 1.358 1_655 S
C376 C377 1.363 1_455 S
C376 C381 1.379 . S
C376 N383 1.356 . S
C377 C376 1.363 1_655 S
C377 C380 1.363 . S
N378 C380 1.356 1_556 S
N378 H390 0.984 . S
N378 H391 0.985 . S
N379 C381 1.356 . S
N379 H384 0.984 . S
N379 H385 0.985 . S
C380 C374 1.379 . S
C380 C377 1.363 . S
C380 N378 1.356 1_554 S
C381 C375 1.358 1_455 S
C381 C376 1.379 . S
C381 N379 1.356 . S
N382 C374 1.356 . S
N382 H388 0.984 . S
N382 H389 0.984 . S
N383 C376 1.356 . S
N383 H386 0.984 1_554 S
N383 H387 0.985 . S
H384 N379 0.984 . S
H385 N379 0.985 . S
H386 N383 0.984 1_556 S
H387 N383 0.985 . S
H388 N382 0.984 . S
H389 N382 0.984 . S
H390 N378 0.984 . S
H391 N378 0.985 . S
C392 C393 1.363 . S
C392 C398 1.379 . S
C392 N400 1.356 . S
C393 C392 1.363 . S
C393 C399 1.363 . S
C394 C395 1.363 . S
C394 C399 1.379 . S
C394 N401 1.356 . S
C395 C394 1.363 . S
C395 C398 1.363 . S
N396 C398 1.356 . S
N396 H408 0.984 . S
N396 H409 0.985 . S
N397 C399 1.356 1_455 S
N397 H402 0.984 . S
N397 H403 0.985 . S
C398 C392 1.379 . S
C398 C395 1.363 . S
C398 N396 1.356 . S
C399 C393 1.363 . S
C399 C394 1.379 . S
C399 N397 1.356 1_655 S
N400 C392 1.356 . S
N400 H406 0.984 . S
N400 H407 0.984 1_655 S
N401 C394 1.356 . S
N401 H404 0.984 . S
N401 H405 0.985 . S
H402 N397 0.984 . S
H403 N397 0.985 . S
H404 N401 0.984 . S
H405 N401 0.985 . S
H406 N400 0.984 . S
H407 N400 0.984 1_455 S
H408 N396 0.984 . S
H409 N396 0.985 . S
C410 C411 1.363 1_545 S
C410 C416 1.379 1_545 S
C410 N418 1.356 . S
C411 C410 1.363 1_565 S
C411 C417 1.363 . S
C412 C413 1.363 . S
C412 C417 1.379 . S
C412 N419 1.356 . S
C413 C412 1.363 . S
C413 C416 1.363 . S
N414 C416 1.356 . S
N414 H426 0.984 1_565 S
N414 H427 0.985 . S
N415 C417 1.356 . S
N415 H420 0.984 . S
N415 H421 0.985 . S
C416 C410 1.379 1_565 S
C416 C413 1.363 . S
C416 N414 1.356 . S
C417 C411 1.363 . S
C417 C412 1.379 . S
C417 N415 1.356 . S
N418 C410 1.356 . S
N418 H424 0.984 . S
N418 H425 0.984 . S
N419 C412 1.356 . S
N419 H422 0.984 . S
N419 H423 0.985 . S
H420 N415 0.984 . S
H421 N415 0.985 . S
H422 N419 0.984 . S
H423 N419 0.985 . S
H424 N418 0.984 . S
H425 N418 0.984 . S
H426 N414 0.984 1_545 S
H427 N414 0.985 . S
C428 C429 1.363 . S
C428 C434 1.379 . S
C428 N436 1.356 . S
C429 C428 1.363 . S
C429 C435 1.363 . S
C430 C431 1.363 . S
C430 C435 1.379 . S
C430 N437 1.356 . S
C431 C430 1.363 . S
C431 C434 1.363 . S
N432 C434 1.356 . S
N432 H444 0.984 . S
N432 H445 0.985 . S
N433 C435 1.356 . S
N433 H438 0.984 . S
N433 H439 0.985 . S
C434 C428 1.379 . S
C434 C431 1.363 . S
C434 N432 1.356 . S
C435 C429 1.363 . S
C435 C430 1.379 . S
C435 N433 1.356 . S
N436 C428 1.356 . S
N436 H442 0.984 . S
N436 H443 0.984 . S
N437 C430 1.356 . S
N437 H440 0.984 . S
N437 H441 0.985 . S
H438 N433 0.984 . S
H439 N433 0.985 . S
H440 N437 0.984 . S
H441 N437 0.985 . S
H442 N436 0.984 . S
H443 N436 0.984 . S
H444 N432 0.984 . S
H445 N432 0.985 . S
C446 C447 1.363 . S
C446 C452 1.379 . S
C446 N454 1.356 . S
C447 C446 1.363 . S
C447 C453 1.363 . S
C448 C449 1.363 . S
C448 C453 1.379 . S
C448 N455 1.356 . S
C449 C448 1.363 . S
C449 C452 1.363 . S
N450 C452 1.356 . S
N450 H462 0.984 . S
N450 H463 0.985 . S
N451 C453 1.356 . S
N451 H456 0.984 . S
N451 H457 0.985 . S
C452 C446 1.379 . S
C452 C449 1.363 . S
C452 N450 1.356 . S
C453 C447 1.363 . S
C453 C448 1.379 . S
C453 N451 1.356 . S
N454 C446 1.356 . S
N454 H460 0.984 . S
N454 H461 0.984 . S
N455 C448 1.356 . S
N455 H458 0.984 . S
N455 H459 0.985 . S
H456 N451 0.984 . S
H457 N451 0.985 . S
H458 N455 0.984 . S
H459 N455 0.985 . S
H460 N454 0.984 . S
H461 N454 0.984 . S
H462 N450 0.984 . S
H463 N450 0.985 . S
C464 C465 1.363 . S
C464 C470 1.379 . S
C464 N472 1.356 . S
C465 C464 1.363 . S
C465 C471 1.363 . S
C466 C467 1.363 . S
C466 C471 1.379 . S
C466 N473 1.356 . S
C467 C466 1.363 . S
C467 C470 1.363 . S
N468 C470 1.356 . S
N468 H480 0.984 . S
N468 H481 0.985 . S
N469 C471 1.356 1_655 S
N469 H474 0.984 . S
N469 H475 0.985 . S
C470 C464 1.379 . S
C470 C467 1.363 . S
C470 N468 1.356 . S
C471 C465 1.363 . S
C471 C466 1.379 . S
C471 N469 1.356 1_455 S
N472 C464 1.356 . S
N472 H478 0.984 . S
N472 H479 0.984 1_455 S
N473 C466 1.356 . S
N473 H476 0.984 . S
N473 H477 0.985 . S
H474 N469 0.984 . S
H475 N469 0.985 . S
H476 N473 0.984 . S
H477 N473 0.985 . S
H478 N472 0.984 . S
H479 N472 0.984 1_655 S
H480 N468 0.984 . S
H481 N468 0.985 . S
C482 C483 1.363 . S
C482 C488 1.379 . S
C482 N490 1.356 1_545 S
C483 C482 1.363 . S
C483 C489 1.363 . S
C484 C485 1.363 . S
C484 C489 1.379 . S
C484 N491 1.356 . S
C485 C484 1.363 . S
C485 C488 1.363 . S
N486 C488 1.356 . S
N486 H498 0.984 . S
N486 H499 0.985 . S
N487 C489 1.356 . S
N487 H492 0.984 1_545 S
N487 H493 0.985 . S
C488 C482 1.379 . S
C488 C485 1.363 . S
C488 N486 1.356 . S
C489 C483 1.363 . S
C489 C484 1.379 . S
C489 N487 1.356 . S
N490 C482 1.356 1_565 S
N490 H496 0.984 . S
N490 H497 0.984 . S
N491 C484 1.356 . S
N491 H494 0.984 . S
N491 H495 0.985 . S
H492 N487 0.984 1_565 S
H493 N487 0.985 . S
H494 N491 0.984 . S
H495 N491 0.985 . S
H496 N490 0.984 . S
H497 N490 0.984 . S
H498 N486 0.984 . S
H499 N486 0.985 . S
C500 C501 1.363 . S
C500 C506 1.379 . S
C500 N508 1.356 . S
C501 C500 1.363 . S
C501 C507 1.363 . S
C502 C503 1.363 . S
C502 C507 1.379 . S
C502 N509 1.356 . S
C503 C502 1.363 . S
C503 C506 1.363 . S
N504 C506 1.356 . S
N504 H516 0.984 . S
N504 H517 0.985 . S
N505 C507 1.356 . S
N505 H510 0.984 . S
N505 H511 0.985 . S
C506 C500 1.379 . S
C506 C503 1.363 . S
C506 N504 1.356 . S
C507 C501 1.363 . S
C507 C502 1.379 . S
C507 N505 1.356 . S
N508 C500 1.356 . S
N508 H514 0.984 . S
N508 H515 0.984 . S
N509 C502 1.356 . S
N509 H512 0.984 . S
N509 H513 0.985 . S
H510 N505 0.984 . S
H511 N505 0.985 . S
H512 N509 0.984 . S
H513 N509 0.985 . S
H514 N508 0.984 . S
H515 N508 0.984 . S
H516 N504 0.984 . S
H517 N504 0.985 . S
C518 C519 1.363 . S
C518 C524 1.379 . S
C518 N526 1.356 . S
C519 C518 1.363 . S
C519 C525 1.363 . S
C520 C521 1.363 . S
C520 C525 1.379 . S
C520 N527 1.356 . S
C521 C520 1.363 . S
C521 C524 1.363 . S
N522 C524 1.356 . S
N522 H534 0.984 . S
N522 H535 0.985 . S
N523 C525 1.356 . S
N523 H528 0.984 . S
N523 H529 0.985 . S
C524 C518 1.379 . S
C524 C521 1.363 . S
C524 N522 1.356 . S
C525 C519 1.363 . S
C525 C520 1.379 . S
C525 N523 1.356 . S
N526 C518 1.356 . S
N526 H532 0.984 . S
N526 H533 0.984 . S
N527 C520 1.356 . S
N527 H530 0.984 . S
N527 H531 0.985 . S
H528 N523 0.984 . S
H529 N523 0.985 . S
H530 N527 0.984 . S
H531 N527 0.985 . S
H532 N526 0.984 . S
H533 N526 0.984 . S
H534 N522 0.984 . S
H535 N522 0.985 . S
C536 C537 1.363 . S
C536 C542 1.379 . S
C536 N544 1.356 . S
C537 C536 1.363 . S
C537 C543 1.363 1_455 S
C538 C539 1.367 . S
C538 C543 1.378 1_455 S
C538 N545 1.355 1_455 S
C539 C538 1.367 . S
C539 C542 1.363 . S
N540 C542 1.356 1_554 S
N540 H552 0.984 . S
N540 H553 0.985 1_554 S
N541 C543 1.356 . S
N541 H546 0.984 . S
N541 H547 0.985 . S
C542 C536 1.379 . S
C542 C539 1.363 . S
C542 N540 1.356 1_556 S
C543 C537 1.363 1_655 S
C543 C538 1.378 1_655 S
C543 N541 1.356 . S
N544 C536 1.356 . S
N544 H550 0.984 1_556 S
N544 H551 0.984 . S
N545 C538 1.355 1_655 S
N545 H548 0.984 1_655 S
N545 H549 0.985 . S
H546 N541 0.984 . S
H547 N541 0.985 . S
H548 N545 0.984 1_455 S
H549 N545 0.985 . S
H550 N544 0.984 1_554 S
H551 N544 0.984 . S
H552 N540 0.984 . S
H553 N540 0.985 1_556 S
C554 C555 1.363 1_565 S
C554 C560 1.379 . S
C554 N562 1.356 . S
C555 C554 1.363 1_545 S
C555 C561 1.363 . S
C556 C557 1.363 . S
C556 C561 1.379 . S
C556 N563 1.356 . S
C557 C556 1.363 . S
C557 C560 1.363 1_545 S
N558 C560 1.356 . S
N558 H570 0.984 1_556 S
N558 H571 0.985 . S
N559 C561 1.356 . S
N559 H564 0.984 . S
N559 H565 0.985 . S
C560 C554 1.379 . S
C560 C557 1.363 1_565 S
C560 N558 1.356 . S
C561 C555 1.363 . S
C561 C556 1.379 . S
C561 N559 1.356 . S
N562 C554 1.356 . S
N562 H568 0.984 1_556 S
N562 H569 0.984 . S
N563 C556 1.356 . S
N563 H566 0.984 . S
N563 H567 0.985 . S
H564 N559 0.984 . S
H565 N559 0.985 . S
H566 N563 0.984 . S
H567 N563 0.985 . S
H568 N562 0.984 1_554 S
H569 N562 0.984 . S
H570 N558 0.984 1_554 S
H571 N558 0.985 . S
C572 C573 1.363 . S
C572 C578 1.379 . S
C572 N580 1.356 . S
C573 C572 1.363 . S
C573 C579 1.363 . S
C574 C575 1.363 . S
C574 C579 1.379 . S
C574 N581 1.356 . S
C575 C574 1.363 . S
C575 C578 1.363 . S
N576 C578 1.356 . S
N576 H588 0.984 1_556 S
N576 H589 0.985 . S
N577 C579 1.356 . S
N577 H582 0.984 . S
N577 H583 0.985 . S
C578 C572 1.379 . S
C578 C575 1.363 . S
C578 N576 1.356 . S
C579 C573 1.363 . S
C579 C574 1.379 . S
C579 N577 1.356 . S
N580 C572 1.356 . S
N580 H586 0.984 . S
N580 H587 0.984 . S
N581 C574 1.356 . S
N581 H584 0.984 . S
N581 H585 0.985 . S
H582 N577 0.984 . S
H583 N577 0.985 . S
H584 N581 0.984 . S
H585 N581 0.985 . S
H586 N580 0.984 . S
H587 N580 0.984 . S
H588 N576 0.984 1_554 S
H589 N576 0.985 . S
C590 C591 1.363 . S
C590 C596 1.379 . S
C590 N598 1.356 . S
C591 C590 1.363 . S
C591 C597 1.363 . S
C592 C593 1.363 . S
C592 C597 1.379 . S
C592 N599 1.356 . S
C593 C592 1.363 . S
C593 C596 1.363 . S
N594 C596 1.356 . S
N594 H606 0.984 . S
N594 H607 0.985 . S
N595 C597 1.356 . S
N595 H600 0.984 . S
N595 H601 0.985 . S
C596 C590 1.379 . S
C596 C593 1.363 . S
C596 N594 1.356 . S
C597 C591 1.363 . S
C597 C592 1.379 . S
C597 N595 1.356 . S
N598 C590 1.356 . S
N598 H604 0.984 . S
N598 H605 0.984 . S
N599 C592 1.356 . S
N599 H602 0.984 . S
N599 H603 0.985 . S
H600 N595 0.984 . S
H601 N595 0.985 . S
H602 N599 0.984 . S
H603 N599 0.985 . S
H604 N598 0.984 . S
H605 N598 0.984 . S
H606 N594 0.984 . S
H607 N594 0.985 . S
C608 C609 1.363 1_455 S
C608 C614 1.379 . S
C608 N616 1.356 . S
C609 C608 1.363 1_655 S
C609 C615 1.363 . S
C610 C611 1.363 . S
C610 C615 1.379 . S
C610 N617 1.356 . S
C611 C610 1.363 . S
C611 C614 1.363 1_655 S
N612 C614 1.356 . S
N612 H624 0.984 . S
N612 H625 0.985 . S
N613 C615 1.356 . S
N613 H618 0.984 . S
N613 H619 0.985 . S
C614 C608 1.379 . S
C614 C611 1.363 1_455 S
C614 N612 1.356 . S
C615 C609 1.363 . S
C615 C610 1.379 . S
C615 N613 1.356 . S
N616 C608 1.356 . S
N616 H622 0.984 . S
N616 H623 0.984 . S
N617 C610 1.356 . S
N617 H620 0.984 . S
N617 H621 0.985 . S
H618 N613 0.984 . S
H619 N613 0.985 . S
H620 N617 0.984 . S
H621 N617 0.985 . S
H622 N616 0.984 . S
H623 N616 0.984 . S
H624 N612 0.984 . S
H625 N612 0.985 . S
C626 C627 1.363 . S
C626 C632 1.379 . S
C626 N634 1.356 . S
C627 C626 1.363 . S
C627 C633 1.363 1_565 S
C628 C629 1.363 1_545 S
C628 C633 1.379 . S
C628 N635 1.356 . S
C629 C628 1.363 1_565 S
C629 C632 1.363 . S
N630 C632 1.356 . S
N630 H642 0.984 . S
N630 H643 0.985 . S
N631 C633 1.356 . S
N631 H636 0.984 . S
N631 H637 0.985 . S
C632 C626 1.379 . S
C632 C629 1.363 . S
C632 N630 1.356 . S
C633 C627 1.363 1_545 S
C633 C628 1.379 . S
C633 N631 1.356 . S
N634 C626 1.356 . S
N634 H640 0.984 . S
N634 H641 0.984 . S
N635 C628 1.356 . S
N635 H638 0.984 . S
N635 H639 0.985 . S
H636 N631 0.984 . S
H637 N631 0.985 . S
H638 N635 0.984 . S
H639 N635 0.985 . S
H640 N634 0.984 . S
H641 N634 0.984 . S
H642 N630 0.984 . S
H643 N630 0.985 . S
C644 C645 1.363 . S
C644 C650 1.379 . S
C644 N652 1.356 . S
C645 C644 1.363 . S
C645 C651 1.363 . S
C646 C647 1.363 . S
C646 C651 1.379 . S
C646 N653 1.356 . S
C647 C646 1.363 . S
C647 C650 1.363 . S
N648 C650 1.356 . S
N648 H660 0.984 . S
N648 H661 0.985 . S
N649 C651 1.356 . S
N649 H654 0.984 . S
N649 H655 0.985 . S
C650 C644 1.379 . S
C650 C647 1.363 . S
C650 N648 1.356 . S
C651 C645 1.363 . S
C651 C646 1.379 . S
C651 N649 1.356 . S
N652 C644 1.356 . S
N652 H658 0.984 . S
N652 H659 0.984 . S
N653 C646 1.356 . S
N653 H656 0.984 . S
N653 H657 0.985 . S
H654 N649 0.984 . S
H655 N649 0.985 . S
H656 N653 0.984 . S
H657 N653 0.985 . S
H658 N652 0.984 . S
H659 N652 0.984 . S
H660 N648 0.984 . S
H661 N648 0.985 . S
C662 C663 1.363 . S
C662 C668 1.379 . S
C662 N670 1.356 . S
C663 C662 1.363 . S
C663 C669 1.363 . S
C664 C665 1.363 . S
C664 C669 1.379 . S
C664 N671 1.356 . S
C665 C664 1.363 . S
C665 C668 1.363 . S
N666 C668 1.356 . S
N666 H678 0.984 . S
N666 H679 0.985 . S
N667 C669 1.356 . S
N667 H672 0.984 . S
N667 H673 0.985 . S
C668 C662 1.379 . S
C668 C665 1.363 . S
C668 N666 1.356 . S
C669 C663 1.363 . S
C669 C664 1.379 . S
C669 N667 1.356 . S
N670 C662 1.356 . S
N670 H676 0.984 . S
N670 H677 0.984 . S
N671 C664 1.356 . S
N671 H674 0.984 . S
N671 H675 0.985 . S
H672 N667 0.984 . S
H673 N667 0.985 . S
H674 N671 0.984 . S
H675 N671 0.985 . S
H676 N670 0.984 . S
H677 N670 0.984 . S
H678 N666 0.984 . S
H679 N666 0.985 . S
C249 C74 1.951 . S
C251 C106 2.166 1_545 S
C269 C146 2.183 . S
C267 C85 1.956 . S
C287 C186 2.191 . S
C285 C52 1.967 . S
C305 C226 2.175 1_455 S
C303 C63 1.960 . S
C323 C96 2.168 1_554 S
C321 C30 1.954 . S
C339 C41 1.976 . S
C341 C136 2.185 1_554 S
C357 C8 1.985 . S
C359 C176 2.190 1_554 S
C375 C19 1.960 1_655 S
C377 C216 2.174 1_654 S
C395 C93 0.828 . S
C393 C62 0.849 1_655 S
C413 C133 0.829 . S
C411 C73 0.851 1_565 S
C431 C173 0.820 . S
C429 C84 0.838 . S
C447 C51 0.836 . S
C449 C213 0.814 . S
C465 C18 0.813 . S
C467 C103 0.831 . S
C485 C143 0.829 . S
C483 C29 0.813 . S
C503 C183 0.820 . S
C501 C40 0.810 . S
C519 C7 0.807 . S
C521 C223 0.820 . S
C537 C60 1.927 . S
C539 C97 2.548 . S
C555 C71 1.892 . S
C557 C137 2.518 . S
C575 C177 2.505 . S
C573 C82 1.849 . S
C593 C217 2.539 . S
C591 C49 1.880 . S
C609 C16 2.030 1_655 S
C611 C107 2.556 . S
C629 C147 2.518 . S
C627 C27 1.999 1_565 S
C647 C187 2.505 . S
C645 C38 2.026 . S
C663 C5 2.053 . S
C665 C227 2.543 . S
