# Generated by pormake.
# Topology gar, (4,6)-cn, num edge types: 1
# Building blocks:
#     Node 0, Type 0, BuildingBlock: NAHDIM_clean_sbu_0, # of connection points: 4
#     Node 1, Type 0, BuildingBlock: NAHDIM_clean_sbu_0, # of connection points: 4
#     Node 2, Type 0, BuildingBlock: NAHDIM_clean_sbu_0, # of connection points: 4
#     Node 3, Type 0, BuildingBlock: NAHDIM_clean_sbu_0, # of connection points: 4
#     Node 4, Type 0, BuildingBlock: NAHDIM_clean_sbu_0, # of connection points: 4
#     Node 5, Type 0, BuildingBlock: NAHDIM_clean_sbu_0, # of connection points: 4
#     Node 6, Type 0, BuildingBlock: NAHDIM_clean_sbu_0, # of connection points: 4
#     Node 7, Type 0, BuildingBlock: NAHDIM_clean_sbu_0, # of connection points: 4
#     Node 8, Type 0, BuildingBlock: NAHDIM_clean_sbu_0, # of connection points: 4
#     Node 9, Type 0, BuildingBlock: NAHDIM_clean_sbu_0, # of connection points: 4
#     Node 10, Type 0, BuildingBlock: NAHDIM_clean_sbu_0, # of connection points: 4
#     Node 11, Type 0, BuildingBlock: NAHDIM_clean_sbu_0, # of connection points: 4
#     Node 12, Type 0, BuildingBlock: NAHDIM_clean_sbu_0, # of connection points: 4
#     Node 13, Type 0, BuildingBlock: NAHDIM_clean_sbu_0, # of connection points: 4
#     Node 14, Type 0, BuildingBlock: NAHDIM_clean_sbu_0, # of connection points: 4
#     Node 15, Type 0, BuildingBlock: NAHDIM_clean_sbu_0, # of connection points: 4
#     Node 16, Type 0, BuildingBlock: NAHDIM_clean_sbu_0, # of connection points: 4
#     Node 17, Type 0, BuildingBlock: NAHDIM_clean_sbu_0, # of connection points: 4
#     Node 18, Type 0, BuildingBlock: NAHDIM_clean_sbu_0, # of connection points: 4
#     Node 19, Type 0, BuildingBlock: NAHDIM_clean_sbu_0, # of connection points: 4
#     Node 20, Type 0, BuildingBlock: NAHDIM_clean_sbu_0, # of connection points: 4
#     Node 21, Type 0, BuildingBlock: NAHDIM_clean_sbu_0, # of connection points: 4
#     Node 22, Type 0, BuildingBlock: NAHDIM_clean_sbu_0, # of connection points: 4
#     Node 23, Type 0, BuildingBlock: NAHDIM_clean_sbu_0, # of connection points: 4
#     Node 24, Type 1, BuildingBlock: BETDAH_clean_sbu_0, # of connection points: 6
#     Node 25, Type 1, BuildingBlock: BETDAH_clean_sbu_0, # of connection points: 6
#     Node 26, Type 1, BuildingBlock: BETDAH_clean_sbu_0, # of connection points: 6
#     Node 27, Type 1, BuildingBlock: BETDAH_clean_sbu_0, # of connection points: 6
#     Node 28, Type 1, BuildingBlock: BETDAH_clean_sbu_0, # of connection points: 6
#     Node 29, Type 1, BuildingBlock: BETDAH_clean_sbu_0, # of connection points: 6
#     Node 30, Type 1, BuildingBlock: BETDAH_clean_sbu_0, # of connection points: 6
#     Node 31, Type 1, BuildingBlock: BETDAH_clean_sbu_0, # of connection points: 6
#     Node 32, Type 1, BuildingBlock: BETDAH_clean_sbu_0, # of connection points: 6
#     Node 33, Type 1, BuildingBlock: BETDAH_clean_sbu_0, # of connection points: 6
#     Node 34, Type 1, BuildingBlock: BETDAH_clean_sbu_0, # of connection points: 6
#     Node 35, Type 1, BuildingBlock: BETDAH_clean_sbu_0, # of connection points: 6
#     Node 36, Type 1, BuildingBlock: BETDAH_clean_sbu_0, # of connection points: 6
#     Node 37, Type 1, BuildingBlock: BETDAH_clean_sbu_0, # of connection points: 6
#     Node 38, Type 1, BuildingBlock: BETDAH_clean_sbu_0, # of connection points: 6
#     Node 39, Type 1, BuildingBlock: BETDAH_clean_sbu_0, # of connection points: 6
#     Edge 40, Type (0, 1), BuildingBlock: XUDNAN_clean_linker_2, # of connection points: 2
#     Edge 41, Type (0, 1), BuildingBlock: XUDNAN_clean_linker_2, # of connection points: 2
#     Edge 42, Type (0, 1), BuildingBlock: XUDNAN_clean_linker_2, # of connection points: 2
#     Edge 43, Type (0, 1), BuildingBlock: XUDNAN_clean_linker_2, # of connection points: 2
#     Edge 44, Type (0, 1), BuildingBlock: XUDNAN_clean_linker_2, # of connection points: 2
#     Edge 45, Type (0, 1), BuildingBlock: XUDNAN_clean_linker_2, # of connection points: 2
#     Edge 46, Type (0, 1), BuildingBlock: XUDNAN_clean_linker_2, # of connection points: 2
#     Edge 47, Type (0, 1), BuildingBlock: XUDNAN_clean_linker_2, # of connection points: 2
#     Edge 48, Type (0, 1), BuildingBlock: XUDNAN_clean_linker_2, # of connection points: 2
#     Edge 49, Type (0, 1), BuildingBlock: XUDNAN_clean_linker_2, # of connection points: 2
#     Edge 50, Type (0, 1), BuildingBlock: XUDNAN_clean_linker_2, # of connection points: 2
#     Edge 51, Type (0, 1), BuildingBlock: XUDNAN_clean_linker_2, # of connection points: 2
#     Edge 52, Type (0, 1), BuildingBlock: XUDNAN_clean_linker_2, # of connection points: 2
#     Edge 53, Type (0, 1), BuildingBlock: XUDNAN_clean_linker_2, # of connection points: 2
#     Edge 54, Type (0, 1), BuildingBlock: XUDNAN_clean_linker_2, # of connection points: 2
#     Edge 55, Type (0, 1), BuildingBlock: XUDNAN_clean_linker_2, # of connection points: 2
#     Edge 56, Type (0, 1), BuildingBlock: XUDNAN_clean_linker_2, # of connection points: 2
#     Edge 57, Type (0, 1), BuildingBlock: XUDNAN_clean_linker_2, # of connection points: 2
#     Edge 58, Type (0, 1), BuildingBlock: XUDNAN_clean_linker_2, # of connection points: 2
#     Edge 59, Type (0, 1), BuildingBlock: XUDNAN_clean_linker_2, # of connection points: 2
#     Edge 60, Type (0, 1), BuildingBlock: XUDNAN_clean_linker_2, # of connection points: 2
#     Edge 61, Type (0, 1), BuildingBlock: XUDNAN_clean_linker_2, # of connection points: 2
#     Edge 62, Type (0, 1), BuildingBlock: XUDNAN_clean_linker_2, # of connection points: 2
#     Edge 63, Type (0, 1), BuildingBlock: XUDNAN_clean_linker_2, # of connection points: 2
#     Edge 64, Type (0, 1), BuildingBlock: XUDNAN_clean_linker_2, # of connection points: 2
#     Edge 65, Type (0, 1), BuildingBlock: XUDNAN_clean_linker_2, # of connection points: 2
#     Edge 66, Type (0, 1), BuildingBlock: XUDNAN_clean_linker_2, # of connection points: 2
#     Edge 67, Type (0, 1), BuildingBlock: XUDNAN_clean_linker_2, # of connection points: 2
#     Edge 68, Type (0, 1), BuildingBlock: XUDNAN_clean_linker_2, # of connection points: 2
#     Edge 69, Type (0, 1), BuildingBlock: XUDNAN_clean_linker_2, # of connection points: 2
#     Edge 70, Type (0, 1), BuildingBlock: XUDNAN_clean_linker_2, # of connection points: 2
#     Edge 71, Type (0, 1), BuildingBlock: XUDNAN_clean_linker_2, # of connection points: 2
#     Edge 72, Type (0, 1), BuildingBlock: XUDNAN_clean_linker_2, # of connection points: 2
#     Edge 73, Type (0, 1), BuildingBlock: XUDNAN_clean_linker_2, # of connection points: 2
#     Edge 74, Type (0, 1), BuildingBlock: XUDNAN_clean_linker_2, # of connection points: 2
#     Edge 75, Type (0, 1), BuildingBlock: XUDNAN_clean_linker_2, # of connection points: 2
#     Edge 76, Type (0, 1), BuildingBlock: XUDNAN_clean_linker_2, # of connection points: 2
#     Edge 77, Type (0, 1), BuildingBlock: XUDNAN_clean_linker_2, # of connection points: 2
#     Edge 78, Type (0, 1), BuildingBlock: XUDNAN_clean_linker_2, # of connection points: 2
#     Edge 79, Type (0, 1), BuildingBlock: XUDNAN_clean_linker_2, # of connection points: 2
#     Edge 80, Type (0, 1), BuildingBlock: XUDNAN_clean_linker_2, # of connection points: 2
#     Edge 81, Type (0, 1), BuildingBlock: XUDNAN_clean_linker_2, # of connection points: 2
#     Edge 82, Type (0, 1), BuildingBlock: XUDNAN_clean_linker_2, # of connection points: 2
#     Edge 83, Type (0, 1), BuildingBlock: XUDNAN_clean_linker_2, # of connection points: 2
#     Edge 84, Type (0, 1), BuildingBlock: XUDNAN_clean_linker_2, # of connection points: 2
#     Edge 85, Type (0, 1), BuildingBlock: XUDNAN_clean_linker_2, # of connection points: 2
#     Edge 86, Type (0, 1), BuildingBlock: XUDNAN_clean_linker_2, # of connection points: 2
#     Edge 87, Type (0, 1), BuildingBlock: XUDNAN_clean_linker_2, # of connection points: 2
#     Edge 88, Type (0, 1), BuildingBlock: XUDNAN_clean_linker_2, # of connection points: 2
#     Edge 89, Type (0, 1), BuildingBlock: XUDNAN_clean_linker_2, # of connection points: 2
#     Edge 90, Type (0, 1), BuildingBlock: XUDNAN_clean_linker_2, # of connection points: 2
#     Edge 91, Type (0, 1), BuildingBlock: XUDNAN_clean_linker_2, # of connection points: 2
#     Edge 92, Type (0, 1), BuildingBlock: XUDNAN_clean_linker_2, # of connection points: 2
#     Edge 93, Type (0, 1), BuildingBlock: XUDNAN_clean_linker_2, # of connection points: 2
#     Edge 94, Type (0, 1), BuildingBlock: XUDNAN_clean_linker_2, # of connection points: 2
#     Edge 95, Type (0, 1), BuildingBlock: XUDNAN_clean_linker_2, # of connection points: 2
#     Edge 96, Type (0, 1), BuildingBlock: XUDNAN_clean_linker_2, # of connection points: 2
#     Edge 97, Type (0, 1), BuildingBlock: XUDNAN_clean_linker_2, # of connection points: 2
#     Edge 98, Type (0, 1), BuildingBlock: XUDNAN_clean_linker_2, # of connection points: 2
#     Edge 99, Type (0, 1), BuildingBlock: XUDNAN_clean_linker_2, # of connection points: 2
#     Edge 100, Type (0, 1), BuildingBlock: XUDNAN_clean_linker_2, # of connection points: 2
#     Edge 101, Type (0, 1), BuildingBlock: XUDNAN_clean_linker_2, # of connection points: 2
#     Edge 102, Type (0, 1), BuildingBlock: XUDNAN_clean_linker_2, # of connection points: 2
#     Edge 103, Type (0, 1), BuildingBlock: XUDNAN_clean_linker_2, # of connection points: 2
#     Edge 104, Type (0, 1), BuildingBlock: XUDNAN_clean_linker_2, # of connection points: 2
#     Edge 105, Type (0, 1), BuildingBlock: XUDNAN_clean_linker_2, # of connection points: 2
#     Edge 106, Type (0, 1), BuildingBlock: XUDNAN_clean_linker_2, # of connection points: 2
#     Edge 107, Type (0, 1), BuildingBlock: XUDNAN_clean_linker_2, # of connection points: 2
#     Edge 108, Type (0, 1), BuildingBlock: XUDNAN_clean_linker_2, # of connection points: 2
#     Edge 109, Type (0, 1), BuildingBlock: XUDNAN_clean_linker_2, # of connection points: 2
#     Edge 110, Type (0, 1), BuildingBlock: XUDNAN_clean_linker_2, # of connection points: 2
#     Edge 111, Type (0, 1), BuildingBlock: XUDNAN_clean_linker_2, # of connection points: 2
#     Edge 112, Type (0, 1), BuildingBlock: XUDNAN_clean_linker_2, # of connection points: 2
#     Edge 113, Type (0, 1), BuildingBlock: XUDNAN_clean_linker_2, # of connection points: 2
#     Edge 114, Type (0, 1), BuildingBlock: XUDNAN_clean_linker_2, # of connection points: 2
#     Edge 115, Type (0, 1), BuildingBlock: XUDNAN_clean_linker_2, # of connection points: 2
#     Edge 116, Type (0, 1), BuildingBlock: XUDNAN_clean_linker_2, # of connection points: 2
#     Edge 117, Type (0, 1), BuildingBlock: XUDNAN_clean_linker_2, # of connection points: 2
#     Edge 118, Type (0, 1), BuildingBlock: XUDNAN_clean_linker_2, # of connection points: 2
#     Edge 119, Type (0, 1), BuildingBlock: XUDNAN_clean_linker_2, # of connection points: 2
#     Edge 120, Type (0, 1), BuildingBlock: XUDNAN_clean_linker_2, # of connection points: 2
#     Edge 121, Type (0, 1), BuildingBlock: XUDNAN_clean_linker_2, # of connection points: 2
#     Edge 122, Type (0, 1), BuildingBlock: XUDNAN_clean_linker_2, # of connection points: 2
#     Edge 123, Type (0, 1), BuildingBlock: XUDNAN_clean_linker_2, # of connection points: 2
#     Edge 124, Type (0, 1), BuildingBlock: XUDNAN_clean_linker_2, # of connection points: 2
#     Edge 125, Type (0, 1), BuildingBlock: XUDNAN_clean_linker_2, # of connection points: 2
#     Edge 126, Type (0, 1), BuildingBlock: XUDNAN_clean_linker_2, # of connection points: 2
#     Edge 127, Type (0, 1), BuildingBlock: XUDNAN_clean_linker_2, # of connection points: 2
#     Edge 128, Type (0, 1), BuildingBlock: XUDNAN_clean_linker_2, # of connection points: 2
#     Edge 129, Type (0, 1), BuildingBlock: XUDNAN_clean_linker_2, # of connection points: 2
#     Edge 130, Type (0, 1), BuildingBlock: XUDNAN_clean_linker_2, # of connection points: 2
#     Edge 131, Type (0, 1), BuildingBlock: XUDNAN_clean_linker_2, # of connection points: 2
#     Edge 132, Type (0, 1), BuildingBlock: XUDNAN_clean_linker_2, # of connection points: 2
#     Edge 133, Type (0, 1), BuildingBlock: XUDNAN_clean_linker_2, # of connection points: 2
#     Edge 134, Type (0, 1), BuildingBlock: XUDNAN_clean_linker_2, # of connection points: 2
#     Edge 135, Type (0, 1), BuildingBlock: XUDNAN_clean_linker_2, # of connection points: 2
# Relax obj value: 0.207
# Max RMSD: 0.303
# Mean RMSD: 0.183
data_MOF--net-gar--node1-NAHDIM_clean_sbu_0--node2-BETDAH_clean_sbu_0--edge1-XUDNAN_clean_linker_2
_symmetry_space_group_name_H-M    P1
_symmetry_Int_Tables_number       1
_symmetry_cell_setting            triclinic
loop_
_symmetry_equiv_pos_as_xyz
'x, y, z'
_cell_length_a     63.404531
_cell_length_b     56.39499
_cell_length_c     55.703788
_cell_angle_alpha  99.249289
_cell_angle_beta   95.666545
_cell_angle_gamma 103.27356
loop_
_atom_site_label
_atom_site_type_symbol
_atom_site_fract_x
_atom_site_fract_y
_atom_site_fract_z
_atom_type_partial_charge
C0 C 0.14165 0.32606 0.35608 0.0
O1 O 0.13696 0.30994 0.37056 0.0
O2 O 0.08943 0.30649 0.37732 0.0
Zn3 Zn 0.10056 0.33761 0.36448 0.0
O4 O 0.10496 0.36685 0.39102 0.0
C5 C 0.06511 0.3227 0.3245 0.0
O6 O 0.06452 0.30019 0.32837 0.0
O7 O 0.12846 0.33899 0.35131 0.0
C8 C 0.08821 0.37326 0.39765 0.0
O9 O 0.06865 0.36012 0.3871 0.0
C10 C 0.09449 0.30581 0.39979 0.0
O11 O 0.10784 0.32531 0.41422 0.0
O12 O 0.0791 0.34106 0.33773 0.0
C13 C 0.9722 0.73477 0.6906 0.0
O14 O 0.98202 0.7168 0.69197 0.0
O15 O 0.01951 0.73096 0.65969 0.0
Zn16 Zn 0.0132 0.7611 0.67858 0.0
O17 O 0.02056 0.79009 0.66161 0.0
C18 C 0.0451 0.7904 0.71943 0.0
O19 O 0.0435 0.80896 0.70843 0.0
O20 O 0.98236 0.75472 0.68476 0.0
C21 C 0.02472 0.78909 0.63969 0.0
O22 O 0.02337 0.76748 0.62583 0.0
C23 C 1.00708 0.71459 0.64264 0.0
O24 O 0.98753 0.71694 0.63496 0.0
O25 O 0.03285 0.76892 0.71064 0.0
C26 C 0.65724 0.8481 0.86485 0.0
O27 O 0.65729 0.8396 0.88548 0.0
O28 O 0.60985 0.81632 0.88646 0.0
Zn29 Zn 0.61478 0.84855 0.87412 0.0
O30 O 0.61973 0.8772 0.90198 0.0
C31 C 0.57937 0.82843 0.83495 0.0
O32 O 0.58879 0.80992 0.83163 0.0
O33 O 0.64016 0.85336 0.8558 0.0
C34 C 0.61276 0.89591 0.89848 0.0
O35 O 0.60302 0.89619 0.87662 0.0
C36 C 0.60094 0.81417 0.90572 0.0
O37 O 0.59587 0.8335 0.91804 0.0
O38 O 0.58798 0.84713 0.8518 0.0
C39 C 0.46854 0.24286 0.18624 0.0
O40 O 0.46715 0.21905 0.17971 0.0
O41 O 0.49777 0.21503 0.14216 0.0
Zn42 Zn 0.50622 0.24982 0.16078 0.0
O43 O 0.51457 0.27232 0.13706 0.0
C44 C 0.54689 0.24314 0.1806 0.0
O45 O 0.54586 0.23089 0.15819 0.0
O46 O 0.48296 0.25861 0.1789 0.0
C47 C 0.52262 0.29559 0.14292 0.0
O48 O 0.52563 0.30651 0.16612 0.0
C49 C 0.48767 0.21061 0.12048 0.0
O50 O 0.48099 0.22849 0.11202 0.0
O51 O 0.53169 0.25337 0.18589 0.0
C52 C 0.06113 0.80835 0.15593 0.0
O53 O 0.06291 0.78547 0.14997 0.0
O54 O 0.09501 0.78912 0.1076 0.0
Zn55 Zn 0.09895 0.82402 0.12781 0.0
O56 O 0.09588 0.84818 0.10421 0.0
C57 C 0.139 0.81661 0.15404 0.0
O58 O 0.12893 0.79323 0.14551 0.0
O59 O 0.07455 0.82584 0.1493 0.0
C60 C 0.10509 0.87134 0.10755 0.0
O61 O 0.11953 0.8816 0.12719 0.0
C62 C 0.07782 0.7732 0.09625 0.0
O63 O 0.05874 0.77859 0.09632 0.0
O64 O 0.1295 0.83336 0.14918 0.0
C65 C 0.5601 0.79096 0.39441 0.0
O66 O 0.56413 0.81224 0.4098 0.0
O67 O 0.51407 0.75034 0.43439 0.0
Zn68 Zn 0.51773 0.77911 0.41464 0.0
O69 O 0.52616 0.81423 0.43614 0.0
C70 C 0.4737 0.78648 0.39489 0.0
O71 O 0.47517 0.80145 0.41597 0.0
O72 O 0.54194 0.77508 0.3934 0.0
C73 C 0.51707 0.81992 0.45489 0.0
O74 O 0.50283 0.80233 0.4618 0.0
C75 C 0.53033 0.74314 0.44347 0.0
O76 O 0.55021 0.75552 0.44178 0.0
O77 O 0.48901 0.77554 0.39111 0.0
C78 C 0.56018 0.31443 0.65355 0.0
O79 O 0.55475 0.29841 0.63269 0.0
O80 O 0.59598 0.29252 0.61397 0.0
Zn81 Zn 0.60219 0.3278 0.63451 0.0
O82 O 0.59745 0.35256 0.61175 0.0
C83 C 0.64253 0.32004 0.66047 0.0
O84 O 0.63085 0.29693 0.65593 0.0
O85 O 0.5796 0.32842 0.65863 0.0
C86 C 0.60607 0.37591 0.61513 0.0
O87 O 0.62079 0.3864 0.63448 0.0
C88 C 0.60933 0.2873 0.59954 0.0
O89 O 0.62629 0.30502 0.59768 0.0
O90 O 0.63389 0.33663 0.65343 0.0
C91 C 0.06022 0.2855 0.8903 0.0
O92 O 0.06768 0.2942 0.91367 0.0
O93 O 0.02426 0.24995 0.93073 0.0
Zn94 Zn 0.01827 0.27501 0.90918 0.0
O95 O 0.0245 0.30939 0.93083 0.0
C96 C 0.97816 0.28342 0.88487 0.0
O97 O 0.99015 0.30641 0.89003 0.0
O98 O 0.03968 0.27645 0.88391 0.0
C99 C 0.01227 0.31345 0.94701 0.0
O100 O 0.99628 0.29504 0.94975 0.0
C101 C 0.01385 0.22741 0.92935 0.0
O102 O 0.99641 0.21788 0.91283 0.0
O103 O 0.98649 0.26635 0.89123 0.0
C104 C 0.43626 0.08662 0.25504 0.0
O105 O 0.44244 0.07105 0.23871 0.0
O106 O 0.4477 0.02946 0.26226 0.0
Zn107 Zn 0.44438 0.0554 0.28958 0.0
O108 O 0.46973 0.06441 0.31653 0.0
C109 C 0.40105 0.02873 0.28501 0.0
O110 O 0.40199 0.03305 0.2626 0.0
O111 O 0.43813 0.08451 0.27744 0.0
C112 C 0.46789 0.05303 0.33442 0.0
O113 O 0.44977 0.03615 0.33443 0.0
C114 C 0.44495 1.0071 0.26517 0.0
O115 O 0.44215 1.00136 0.28675 0.0
O116 O 0.41722 0.03924 0.30153 0.0
C117 C 0.31907 0.16834 0.52498 0.0
O118 O 0.31017 0.17626 0.54403 0.0
O119 O 0.28765 0.21266 0.53099 0.0
Zn120 Zn 0.28584 0.18765 0.49908 0.0
O121 O 0.2905 0.20364 0.46838 0.0
C122 C 0.24218 0.16024 0.50835 0.0
O123 O 0.24839 0.17331 0.53072 0.0
O124 O 0.31086 0.17002 0.50367 0.0
C125 C 0.28744 0.22398 0.46327 0.0
O126 O 0.28023 0.23871 0.47944 0.0
C127 C 0.30507 0.22932 0.54015 0.0
O128 O 0.32173 0.23191 0.52768 0.0
O129 O 0.25536 0.16286 0.49248 0.0
C130 C 0.19764 0.9737 0.77198 0.0
O131 O 0.17725 0.96193 0.76332 0.0
O132 O 0.15876 0.01943 0.74397 0.0
Zn133 Zn 0.18111 0.02632 0.77946 0.0
O134 O 0.16404 0.02576 0.81367 0.0
C135 C 0.21503 0.08192 0.79336 0.0
O136 O 0.22138 0.07875 0.81553 0.0
O137 O 0.20205 0.99785 0.77862 0.0
C138 C 0.15485 0.04094 0.82656 0.0
O139 O 0.15415 0.06167 0.819 0.0
C140 C 0.15507 0.03635 0.73193 0.0
O141 O 0.16413 0.05962 0.74211 0.0
O142 O 0.20071 0.06396 0.77886 0.0
C143 C 0.27904 0.95179 0.01943 0.0
O144 O 0.28334 0.93309 0.02858 0.0
O145 O 0.3313 0.93838 0.02554 0.0
Zn146 Zn 0.31638 0.94774 0.99615 0.0
O147 O 0.30795 0.91838 0.96854 0.0
C148 C 0.35287 0.9875 1.00348 0.0
O149 O 0.34725 0.99019 0.02565 0.0
O150 O 0.29098 0.96109 1.00458 0.0
C151 C 0.3222 0.90614 0.96459 0.0
O152 O 0.34145 0.91321 0.97827 0.0
C153 C 0.32735 0.91621 0.02902 0.0
O154 O 0.31159 0.89919 0.01447 0.0
O155 O 0.33941 0.97279 0.9861 0.0
C156 C 0.29742 0.43663 0.03382 0.0
O157 O 0.30248 0.43232 0.0115 0.0
O158 O 0.3271 0.38851 0.07494 0.0
Zn159 Zn 0.33032 0.40892 0.04711 0.0
O160 O 0.32215 0.38763 0.01227 0.0
C161 C 0.37185 0.43928 0.03522 0.0
O162 O 0.36173 0.43417 0.01257 0.0
O163 O 0.30783 0.42975 0.05111 0.0
C164 C 0.33436 0.378 0.99885 0.0
O165 O 0.35473 0.37987 1.00794 0.0
C166 C 0.3077 0.38061 0.07956 0.0
O167 O 0.29142 0.38375 0.06491 0.0
O168 O 0.36169 0.43106 0.05204 0.0
C169 C 0.82872 0.12617 0.0257 0.0
O170 O 0.83448 0.14868 0.02101 0.0
O171 O 0.79886 0.16513 0.07116 0.0
Zn172 Zn 0.79091 0.14146 0.03904 0.0
O173 O 0.78745 0.15727 0.00969 0.0
C174 C 0.74639 0.11114 0.02552 0.0
O175 O 0.74928 0.11233 1.00267 0.0
O176 O 0.81099 0.11942 0.0343 0.0
C177 C 0.77284 0.16889 1.00603 0.0
O178 O 0.75984 0.17213 0.02255 0.0
C179 C 0.79856 0.18784 0.07484 0.0
O180 O 0.79759 0.19926 0.05615 0.0
O181 O 0.76209 0.12105 0.04268 0.0
C182 C 0.18133 0.49596 0.25758 0.0
O183 O 0.16238 0.48851 0.2433 0.0
O184 O 0.1709 0.53242 0.2107 0.0
Zn185 Zn 0.18168 0.5444 0.24642 0.0
O186 O 0.1569 0.55255 0.26271 0.0
C187 C 0.22049 0.58062 0.2384 0.0
O188 O 0.21853 0.56737 0.21627 0.0
O189 O 0.1918 0.51856 0.26114 0.0
C190 C 0.16016 0.56922 0.28188 0.0
O191 O 0.18029 0.58145 0.29124 0.0
C192 C 0.1674 0.54828 0.19806 0.0
O193 O 0.17224 0.57181 0.2086 0.0
O194 O 0.20681 0.57423 0.25278 0.0
C195 C 0.79122 0.91372 0.52945 0.0
O196 O 0.78979 0.89155 0.51682 0.0
O197 O 0.82744 0.88488 0.57484 0.0
Zn198 Zn 0.83257 0.90459 0.54635 0.0
O199 O 0.828 0.88248 0.51196 0.0
C200 C 0.87463 0.93398 0.53555 0.0
O201 O 0.86527 0.92624 0.51263 0.0
O202 O 0.80866 0.92447 0.54443 0.0
C203 C 0.83885 0.87048 0.49874 0.0
O204 O 0.8584 0.86927 0.50789 0.0
C205 C 0.80892 0.86967 0.57381 0.0
O206 O 0.79469 0.86581 0.55394 0.0
O207 O 0.86382 0.92771 0.5527 0.0
C208 C 0.89743 0.11121 0.2653 0.0
O209 O 0.88208 0.0934 0.27025 0.0
O210 O 0.94766 0.07007 0.22225 0.0
Zn211 Zn 0.93122 0.07175 0.25712 0.0
O212 O 0.95277 0.07049 0.29109 0.0
C213 C 0.89776 0.02246 0.2664 0.0
O214 O 0.89642 0.03512 0.2879 0.0
O215 O 0.91582 0.10581 0.26052 0.0
C216 C 0.95945 0.08344 0.31316 0.0
O217 O 0.95416 0.10465 0.31868 0.0
C218 C 0.96738 0.07089 0.21698 0.0
O219 O 0.98299 0.07396 0.23538 0.0
O220 O 0.90908 0.03406 0.25176 0.0
C221 C 0.33259 0.62654 0.54684 0.0
O222 O 0.33296 0.63066 0.57079 0.0
O223 O 0.30917 0.67277 0.58011 0.0
Zn224 Zn 0.2976 0.65037 0.54793 0.0
O225 O 0.28742 0.67047 0.52544 0.0
C226 C 0.25594 0.63351 0.55906 0.0
O227 O 0.26057 0.65671 0.57058 0.0
O228 O 0.31911 0.63408 0.53352 0.0
C229 C 0.27809 0.66011 0.50389 0.0
O230 O 0.2769 0.63654 0.49596 0.0
C231 C 0.32287 0.69305 0.58 0.0
O232 O 0.33046 0.6969 0.55948 0.0
O233 O 0.27081 0.62516 0.54966 0.0
C234 C 0.39796 0.61117 0.74939 0.0
O235 O 0.38919 0.59744 0.72781 0.0
O236 O 0.44508 0.56743 0.72377 0.0
Zn237 Zn 0.42882 0.57068 0.75851 0.0
O238 O 0.45093 0.57495 0.79379 0.0
C239 C 0.39909 0.52106 0.77115 0.0
O240 O 0.40364 0.53221 0.79431 0.0
O241 O 0.41243 0.60352 0.76251 0.0
C242 C 0.4567 0.55826 0.80474 0.0
O243 O 0.45032 0.53506 0.79321 0.0
C244 C 0.46299 0.57864 0.71649 0.0
O245 O 0.47635 0.59718 0.73214 0.0
O246 O 0.40639 0.53353 0.7548 0.0
C247 C 0.70376 1.00138 0.76462 0.0
O248 O 0.68448 0.99147 0.77027 0.0
O249 O 0.67292 0.0295 0.70696 0.0
Zn250 Zn 0.68377 0.03626 0.74279 0.0
O251 O 0.65926 0.0324 0.76244 0.0
C252 C 0.6981 0.08885 0.74105 0.0
O253 O 0.68694 0.08279 0.71885 0.0
O254 O 0.70595 0.01856 0.75223 0.0
C255 C 0.64692 0.04688 0.75961 0.0
O256 O 0.64876 0.05914 0.74146 0.0
C257 C 0.65407 0.01626 0.69719 0.0
O258 O 0.64175 1.00308 0.71038 0.0
O259 O 0.69919 0.07212 0.7535 0.0
C260 C 0.81943 0.67217 0.01232 0.0
O261 O 0.82358 0.69085 0.03096 0.0
O262 O 0.7843 0.71401 0.02921 0.0
Zn263 Zn 0.78047 0.69025 0.99584 0.0
O264 O 0.78508 0.70574 0.96485 0.0
C265 C 0.73699 0.66436 1.00639 0.0
O266 O 0.74462 0.67531 0.02925 0.0
O267 O 0.80233 0.66847 0.9967 0.0
C268 C 0.78654 0.72722 0.95959 0.0
O269 O 0.78504 0.74554 0.97663 0.0
C270 C 0.79963 0.7335 0.03736 0.0
O271 O 0.81432 0.74058 0.02318 0.0
O272 O 0.74923 0.66785 0.98977 0.0
C273 C 0.90245 0.57763 0.81382 0.0
O274 O 0.91745 0.58429 0.8333 0.0
O275 O 0.94968 0.59098 0.77024 0.0
Zn276 Zn 0.93679 0.56377 0.78777 0.0
O277 O 0.95494 0.56637 0.81996 0.0
C278 C 0.91619 0.51547 0.75613 0.0
O279 O 0.90038 0.52578 0.74993 0.0
O280 O 0.90715 0.56822 0.79337 0.0
C281 C 0.94733 0.54892 0.83098 0.0
O282 O 0.92905 0.53251 0.82088 0.0
C283 C 0.95441 0.58717 0.74863 0.0
O284 O 0.96097 0.60603 0.73778 0.0
O285 O 0.93336 0.52876 0.76994 0.0
C286 C 0.78287 0.48028 0.502 0.0
O287 O 0.7758 0.45737 0.50521 0.0
O288 O 0.81666 0.44396 0.52269 0.0
Zn289 Zn 0.82234 0.46537 0.49771 0.0
O290 O 0.82389 0.44601 0.46495 0.0
C291 C 0.85927 0.49199 0.5326 0.0
O292 O 0.8453 0.48838 0.54836 0.0
O293 O 0.8022 0.48751 0.4973 0.0
C294 C 0.83666 0.43161 0.46476 0.0
O295 O 0.84693 0.42919 0.48553 0.0
C296 C 0.8109 0.42058 0.52067 0.0
O297 O 0.80463 0.40635 0.49884 0.0
O298 O 0.85243 0.48575 0.50972 0.0
C299 C 0.69759 0.47618 0.28393 0.0
O300 O 0.67998 0.46746 0.29353 0.0
O301 O 0.65703 0.52137 0.24581 0.0
Zn302 Zn 0.67893 0.52696 0.28155 0.0
O303 O 0.66075 0.52408 0.31487 0.0
C304 C 0.71398 0.57643 0.27543 0.0
O305 O 0.72267 0.56188 0.26077 0.0
O306 O 0.70006 0.49833 0.27845 0.0
C307 C 0.65204 0.53948 0.3282 0.0
O308 O 0.65274 0.561 0.32171 0.0
C309 C 0.65509 0.53804 0.23263 0.0
O310 O 0.66643 0.56094 0.24134 0.0
O311 O 0.69774 0.56613 0.28575 0.0
Ho312 Ho 0.03939 0.03565 1.00233 0.0
Ho313 Ho 0.07969 0.06459 0.03767 0.0
C314 C 0.0518 0.09552 0.00974 0.0
C315 C 0.99933 0.01393 0.98394 0.0
C316 C 0.97884 0.02063 0.98759 0.0
C317 C 0.97933 0.04297 1.00311 0.0
C318 C 0.96008 0.05036 1.00566 0.0
C319 C 0.94004 0.03554 0.99264 0.0
C320 C 0.93957 1.01295 0.97737 0.0
C321 C 0.95894 1.00556 0.97481 0.0
C322 C 0.07405 0.03822 0.97501 0.0
C323 C 0.06766 1.0047 0.02975 0.0
C324 C 0.11995 0.08481 0.05601 0.0
C325 C 0.13968 0.0757 0.05378 0.0
C326 C 0.14286 0.06296 0.03113 0.0
C327 C 0.159 0.04983 0.03013 0.0
C328 C 0.17189 0.04891 0.05179 0.0
C329 C 0.16933 0.06252 0.07425 0.0
C330 C 0.1534 0.07594 0.07521 0.0
C331 C 0.04523 0.06193 0.0654 0.0
O332 O 0.0363 0.07473 1.00246 0.0
O333 O 0.07064 0.09601 0.02249 0.0
O334 O 0.01245 0.02907 0.9733 0.0
O335 O 0.00946 1.00823 1.00299 0.0
O336 O 0.05387 0.02682 0.96714 0.0
O337 O 0.07491 0.04735 0.99787 0.0
O338 O 0.08301 0.02556 0.03724 0.0
O339 O 0.04873 1.00423 0.01723 0.0
O340 O 0.10594 0.07196 0.06763 0.0
O341 O 0.11057 0.09018 0.03625 0.0
O342 O 0.06549 0.07335 0.07283 0.0
O343 O 0.04398 0.05275 0.04239 0.0
H344 H 0.99466 0.05482 0.01302 0.0
H345 H 0.96086 0.06765 0.01787 0.0
H346 H 0.92433 1.00129 0.96704 0.0
H347 H 0.95842 0.98834 0.96264 0.0
H348 H 0.13219 0.06207 0.0144 0.0
H349 H 0.16058 0.03929 0.01263 0.0
H350 H 0.17924 0.06219 0.09114 0.0
H351 H 0.15098 0.0854 0.09287 0.0
Ho352 Ho 0.315 0.80186 0.24785 0.0
Ho353 Ho 0.30012 0.8112 0.29605 0.0
C354 C 0.33283 0.85575 0.28347 0.0
C355 C 0.31856 0.80221 0.20238 0.0
C356 C 0.33539 0.81593 0.18983 0.0
C357 C 0.34171 0.842 0.19502 0.0
C358 C 0.35528 0.8549 0.18071 0.0
C359 C 0.36297 0.842 0.16105 0.0
C360 C 0.3585 0.81595 0.15764 0.0
C361 C 0.34461 0.80302 0.17176 0.0
C362 C 0.34797 0.79691 0.28009 0.0
C363 C 0.29305 0.75514 0.26839 0.0
C364 C 0.28332 0.81169 0.33642 0.0
C365 C 0.27692 0.79481 0.35321 0.0
C366 C 0.28846 0.77711 0.35738 0.0
C367 C 0.28169 0.76102 0.37327 0.0
C368 C 0.26316 0.76226 0.38494 0.0
C369 C 0.25134 0.7796 0.38007 0.0
C370 C 0.25823 0.7958 0.36438 0.0
C371 C 0.27634 0.82284 0.25839 0.0
O372 O 0.32787 0.84331 0.26057 0.0
O373 O 0.32646 0.8455 0.30192 0.0
O374 O 0.32405 0.78546 0.2137 0.0
O375 O 0.30743 0.81543 0.21494 0.0
O376 O 0.34773 0.79482 0.25665 0.0
O377 O 0.3305 0.80213 0.28609 0.0
O378 O 0.29671 0.77029 0.2898 0.0
O379 O 0.29555 0.76355 0.24787 0.0
O380 O 0.27173 0.80519 0.31467 0.0
O381 O 0.30427 0.81989 0.33576 0.0
O382 O 0.28422 0.83761 0.27916 0.0
O383 O 0.28261 0.80311 0.25802 0.0
H384 H 0.33525 0.85252 0.20925 0.0
H385 H 0.35818 0.87491 0.18389 0.0
H386 H 0.36454 0.80547 0.14298 0.0
H387 H 0.34033 0.78291 0.16783 0.0
H388 H 0.30275 0.77586 0.34855 0.0
H389 H 0.29133 0.7481 0.37691 0.0
H390 H 0.23683 0.78075 0.3885 0.0
H391 H 0.24895 0.80912 0.36093 0.0
Ho392 Ho 0.58938 0.05436 0.52318 0.0
Ho393 Ho 0.53922 0.05499 0.5219 0.0
C394 C 0.55108 1.00191 0.51061 0.0
C395 C 0.628 0.04874 0.5367 0.0
C396 C 0.64244 0.03158 0.53322 0.0
C397 C 0.65426 0.027 0.55394 0.0
C398 C 0.6692 1.0122 0.55131 0.0
C399 C 0.67268 1.00164 0.52784 0.0
C400 C 0.66068 1.00619 0.5071 0.0
C401 C 0.64572 0.02094 0.50976 0.0
C402 C 0.56904 0.05744 0.47997 0.0
C403 C 0.57731 0.1076 0.53307 0.0
C404 C 0.49995 0.06032 0.51111 0.0
C405 C 0.48443 0.07606 0.5167 0.0
C406 C 0.47684 0.08829 0.49879 0.0
C407 C 0.46021 0.10065 0.50257 0.0
C408 C 0.45063 0.101 0.52435 0.0
C409 C 0.45842 0.08889 0.54231 0.0
C410 C 0.47505 0.07664 0.53856 0.0
C411 C 0.56184 0.05485 0.56554 0.0
O412 O 0.57224 1.01318 0.51686 0.0
O413 O 0.53575 0.01429 0.50854 0.0
O414 O 0.62346 0.05962 0.51843 0.0
O415 O 0.6112 0.0421 0.54822 0.0
O416 O 0.59003 0.06592 0.48657 0.0
O417 O 0.56054 0.04516 0.49513 0.0
O418 O 0.55612 0.09619 0.52719 0.0
O419 O 0.59273 0.09529 0.53533 0.0
O420 O 0.50536 0.04795 0.52773 0.0
O421 O 0.51626 0.06863 0.49943 0.0
O422 O 0.54107 0.0442 0.55984 0.0
O423 O 0.5683 0.0657 0.54884 0.0
H424 H 0.65208 0.03509 0.57225 0.0
H425 H 0.67786 1.00887 0.56768 0.0
H426 H 0.66309 0.9987 0.48872 0.0
H427 H 0.63695 0.02424 0.49343 0.0
H428 H 0.48348 0.08789 0.48159 0.0
H429 H 0.45488 0.10992 0.4884 0.0
H430 H 0.45126 0.08822 0.55912 0.0
H431 H 0.48011 0.06707 0.55262 0.0
Ho432 Ho 0.28384 0.30047 0.76326 0.0
Ho433 Ho 0.33067 0.29293 0.77357 0.0
C434 C 0.30942 0.3138 0.81955 0.0
C435 C 0.24156 0.29039 0.76064 0.0
C436 C 0.22341 0.29587 0.77373 0.0
C437 C 0.22205 0.29237 0.79805 0.0
C438 C 0.20291 0.29309 0.8085 0.0
C439 C 0.18465 0.29737 0.79493 0.0
C440 C 0.18658 0.30228 0.77111 0.0
C441 C 0.20566 0.30141 0.76063 0.0
C442 C 0.31406 0.34554 0.76601 0.0
C443 C 0.30826 0.28903 0.71732 0.0
C444 C 0.37116 0.29068 0.77363 0.0
C445 C 0.39013 0.29634 0.7599 0.0
C446 C 0.40034 0.32075 0.75795 0.0
C447 C 0.41965 0.32576 0.74726 0.0
C448 C 0.42925 0.30652 0.73825 0.0
C449 C 0.41859 0.28205 0.73954 0.0
C450 C 0.39936 0.27706 0.7503 0.0
C451 C 0.29695 0.2531 0.77671 0.0
O452 O 0.29061 0.30803 0.80464 0.0
O453 O 0.32804 0.31188 0.81149 0.0
O454 O 0.25266 0.30737 0.74999 0.0
O455 O 0.25388 0.27803 0.77091 0.0
O456 O 0.29294 0.34186 0.76134 0.0
O457 O 0.31749 0.32472 0.76874 0.0
O458 O 0.32649 0.29492 0.7332 0.0
O459 O 0.28877 0.28673 0.72457 0.0
O460 O 0.35445 0.27245 0.76299 0.0
O461 O 0.36521 0.30928 0.78599 0.0
O462 O 0.31552 0.2604 0.79108 0.0
O463 O 0.29755 0.26726 0.76099 0.0
H464 H 0.23542 0.288 0.80869 0.0
H465 H 0.2021 0.28908 0.8268 0.0
H466 H 0.17312 0.30622 0.76025 0.0
H467 H 0.20621 0.30412 0.74185 0.0
H468 H 0.39371 0.33608 0.76511 0.0
H469 H 0.42718 0.3448 0.74626 0.0
H470 H 0.42555 0.26677 0.73307 0.0
H471 H 0.392 0.25809 0.75175 0.0
Ho472 Ho 0.05772 0.07079 0.52779 0.0
Ho473 Ho 0.05771 0.02059 0.50542 0.0
C474 C 0.03592 0.04933 0.46869 0.0
C475 C 0.06267 0.11833 0.53724 0.0
C476 C 0.06122 0.13647 0.5214 0.0
C477 C 0.06301 0.13064 0.49636 0.0
C478 C 0.0613 0.14761 0.48112 0.0
C479 C 0.05807 0.17089 0.49073 0.0
C480 C 0.05636 0.17678 0.51585 0.0
C481 C 0.05779 0.15957 0.53107 0.0
C482 C 0.02426 0.03622 0.53792 0.0
C483 C 0.07731 0.04012 0.56459 0.0
C484 C 0.05419 0.97343 0.49633 0.0
C485 C 0.0527 0.95565 0.51302 0.0
C486 C 0.0428 0.95955 0.53427 0.0
C487 C 0.0427 0.94378 0.55111 0.0
C488 C 0.05265 0.92392 0.54717 0.0
C489 C 0.06242 0.91993 0.52575 0.0
C490 C 0.06246 0.93574 0.50881 0.0
C491 C 0.09168 0.05561 0.4964 0.0
O492 O 0.04382 0.069 0.48683 0.0
O493 O 0.03796 0.02729 0.47232 0.0
O494 O 0.04428 0.10241 0.5379 0.0
O495 O 0.07891 0.10782 0.53502 0.0
O496 O 0.03534 0.05575 0.55359 0.0
O497 O 0.03097 0.03637 0.51729 0.0
O498 O 0.06818 0.02106 0.54634 0.0
O499 O 0.07722 0.06292 0.56127 0.0
O500 O 0.07293 0.98988 0.49939 0.0
O501 O 0.0375 0.98321 0.49374 0.0
O502 O 0.08064 0.03645 0.48029 0.0
O503 O 0.08449 0.05485 0.51666 0.0
H504 H 0.06603 0.11308 0.48859 0.0
H505 H 0.06309 0.14277 0.46194 0.0
H506 H 0.05385 0.19462 0.52366 0.0
H507 H 0.05632 0.16433 0.55036 0.0
H508 H 0.03532 0.97496 0.53802 0.0
H509 H 0.0347 0.94711 0.56719 0.0
H510 H 0.07037 0.90489 0.52233 0.0
H511 H 0.07042 0.93269 0.49265 0.0
Ho512 Ho 0.33027 0.82122 0.78221 0.0
Ho513 Ho 0.28625 0.78114 0.7594 0.0
C514 C 0.33022 0.76092 0.76875 0.0
C515 C 0.36427 0.84597 0.81214 0.0
C516 C 0.38661 0.84381 0.81025 0.0
C517 C 0.40383 0.85514 0.82926 0.0
C518 C 0.42472 0.85144 0.82722 0.0
C519 C 0.42852 0.8364 0.80611 0.0
C520 C 0.41116 0.82548 0.78703 0.0
C521 C 0.39041 0.82898 0.7892 0.0
C522 C 0.3286 0.80718 0.73299 0.0
C523 C 0.28628 0.84229 0.77178 0.0
C524 C 0.24925 0.75678 0.7346 0.0
C525 C 0.22721 0.75861 0.7393 0.0
C526 C 0.21239 0.76186 0.72049 0.0
C527 C 0.19244 0.76654 0.7256 0.0
C528 C 0.18702 0.76791 0.74959 0.0
C529 C 0.20166 0.76408 0.76826 0.0
C530 C 0.22165 0.75966 0.76322 0.0
C531 C 0.29524 0.79295 0.80875 0.0
O532 O 0.33894 0.78338 0.78292 0.0
O533 O 0.31079 0.75659 0.75486 0.0
O534 O 0.35564 0.85508 0.7944 0.0
O535 O 0.35113 0.82596 0.81656 0.0
O536 O 0.34449 0.8243 0.74638 0.0
O537 O 0.31502 0.8001 0.74669 0.0
O538 O 0.27514 0.81864 0.76225 0.0
O539 O 0.30742 0.84727 0.78119 0.0
O540 O 0.26 0.74785 0.75081 0.0
O541 O 0.26134 0.77632 0.72825 0.0
O542 O 0.2844 0.77104 0.7972 0.0
O543 O 0.29872 0.80714 0.79375 0.0
H544 H 0.40105 0.86642 0.84573 0.0
H545 H 0.43773 0.85984 0.84238 0.0
H546 H 0.41357 0.81412 0.77041 0.0
H547 H 0.37723 0.81978 0.77448 0.0
H548 H 0.21647 0.76137 0.70201 0.0
H549 H 0.18126 0.76915 0.71082 0.0
H550 H 0.19791 0.76522 0.78691 0.0
H551 H 0.23295 0.75768 0.77824 0.0
Ho552 Ho 0.55248 0.03484 0.0572 0.0
Ho553 Ho 0.54784 0.03841 1.00464 0.0
C554 C 0.50918 1.00288 0.01993 0.0
C555 C 0.54582 0.02859 0.10083 0.0
C556 C 0.52874 1.01075 0.1095 0.0
C557 C 0.50749 0.0141 0.1097 0.0
C558 C 0.49156 0.99725 0.11818 0.0
C559 C 0.4965 0.97662 0.12657 0.0
C560 C 0.51747 0.97267 0.12522 0.0
C561 C 0.53347 0.98967 0.11696 0.0
C562 C 0.57185 1.00537 0.02897 0.0
C563 C 0.59164 0.07021 0.04138 0.0
C564 C 0.55136 0.04178 0.95955 0.0
C565 C 0.56515 0.05781 0.94596 0.0
C566 C 0.58808 0.06269 0.95017 0.0
C567 C 0.60051 0.07408 0.93396 0.0
C568 C 0.59013 0.08062 0.91343 0.0
C569 C 0.56742 0.07805 0.91084 0.0
C570 C 0.55501 0.06662 0.92698 0.0
C571 C 0.52722 0.06721 0.03193 0.0
O572 O 0.5173 0.01506 0.04245 0.0
O573 O 0.52104 1.00472 1.00195 0.0
O574 O 0.55945 0.01892 0.08887 0.0
O575 O 0.53969 0.04576 0.09071 0.0
O576 O 0.58042 0.01731 0.05084 0.0
O577 O 0.55327 1.00896 0.02345 0.0
O578 O 0.58254 0.05949 0.0187 0.0
O579 O 0.58127 0.06676 0.06039 0.0
O580 O 0.53825 0.0518 0.97204 0.0
O581 O 0.56059 0.02768 0.97126 0.0
O582 O 0.51943 0.05433 0.01024 0.0
O583 O 0.54617 0.0647 0.03843 0.0
H584 H 0.50321 0.03001 0.10385 0.0
H585 H 0.47576 1.00125 0.1194 0.0
H586 H 0.52176 0.95691 0.1314 0.0
H587 H 0.54967 0.98647 0.11675 0.0
H588 H 0.59628 0.05643 0.96502 0.0
H589 H 0.61804 0.07609 0.93641 0.0
H590 H 0.55898 0.08273 0.89508 0.0
H591 H 0.53735 0.06323 0.92368 0.0
Ho592 Ho 0.32307 0.32733 0.28213 0.0
Ho593 Ho 0.2993 0.27553 0.25987 0.0
C594 C 0.27222 0.31145 0.28197 0.0
C595 C 0.34166 0.37406 0.29055 0.0
C596 C 0.33102 0.39456 0.29624 0.0
C597 C 0.32814 0.40881 0.27823 0.0
C598 C 0.3114 0.42111 0.27821 0.0
C599 C 0.29776 0.41977 0.29652 0.0
C600 C 0.30229 0.40818 0.31614 0.0
C601 C 0.31886 0.39562 0.31604 0.0
C602 C 0.31237 0.29817 0.31567 0.0
C603 C 0.35217 0.29022 0.26569 0.0
C604 C 0.28491 0.22838 0.24478 0.0
C605 C 0.29646 0.20867 0.24324 0.0
C606 C 0.31466 0.21084 0.26068 0.0
C607 C 0.32806 0.19463 0.25705 0.0
C608 C 0.32364 0.17622 0.23577 0.0
C609 C 0.30522 0.17366 0.21851 0.0
C610 C 0.29159 0.18978 0.22232 0.0
C611 C 0.2966 0.3086 0.23003 0.0
O612 O 0.28815 0.32941 0.27812 0.0
O613 O 0.27421 0.28851 0.28011 0.0
O614 O 0.34294 0.3602 0.3071 0.0
O615 O 0.33498 0.36085 0.26843 0.0
O616 O 0.31162 0.32124 0.31837 0.0
O617 O 0.31937 0.29195 0.29572 0.0
O618 O 0.33388 0.27279 0.25774 0.0
O619 O 0.35226 0.31286 0.27628 0.0
O620 O 0.29062 0.24392 0.23015 0.0
O621 O 0.28358 0.23952 0.26693 0.0
O622 O 0.28035 0.29113 0.23285 0.0
O623 O 0.31363 0.30787 0.24343 0.0
H624 H 0.33723 0.40821 0.26275 0.0
H625 H 0.30795 0.42989 0.26285 0.0
H626 H 0.29175 0.40691 0.33031 0.0
H627 H 0.32064 0.38485 0.33021 0.0
H628 H 0.31911 0.22572 0.27657 0.0
H629 H 0.34241 0.19713 0.27041 0.0
H630 H 0.30159 0.1595 0.20201 0.0
H631 H 0.27781 0.18817 0.20848 0.0
Ho632 Ho 0.55652 0.57468 0.0316 0.0
Ho633 Ho 0.55394 0.52382 1.00707 0.0
C634 C 0.53478 0.55614 0.97237 0.0
C635 C 0.56324 0.62231 0.04107 0.0
C636 C 0.56651 0.64046 0.02465 0.0
C637 C 0.57952 0.63799 1.00585 0.0
C638 C 0.58166 0.65437 0.98945 0.0
C639 C 0.57059 0.67339 0.99123 0.0
C640 C 0.55755 0.67581 0.0101 0.0
C641 C 0.55556 0.65949 0.02668 0.0
C642 C 0.52199 0.54088 0.04075 0.0
C643 C 0.57529 0.54194 0.06641 0.0
C644 C 0.54839 0.4764 0.99521 0.0
C645 C 0.54827 0.45624 0.00897 0.0
C646 C 0.53874 0.4559 0.03065 0.0
C647 C 0.53847 0.43638 0.04326 0.0
C648 C 0.54795 0.41698 0.03458 0.0
C649 C 0.55801 0.41782 0.01321 0.0
C650 C 0.55808 0.43724 1.00048 0.0
C651 C 0.58826 0.55816 0.99799 0.0
O652 O 0.54481 0.57485 0.99079 0.0
O653 O 0.5342 0.53308 0.97504 0.0
O654 O 0.54371 0.6073 0.03781 0.0
O655 O 0.57878 0.61084 0.04396 0.0
O656 O 0.5334 0.55983 0.0569 0.0
O657 O 0.52876 0.54145 0.02024 0.0
O658 O 0.5657 0.52329 0.04774 0.0
O659 O 0.57563 0.56504 0.06398 0.0
O660 O 0.56729 0.49221 0.9967 0.0
O661 O 0.53223 0.48714 0.99693 0.0
O662 O 0.57666 0.53953 0.98165 0.0
O663 O 0.5816 0.55707 0.01846 0.0
H664 H 0.58796 0.62327 1.00365 0.0
H665 H 0.59216 0.65219 0.97549 0.0
H666 H 0.54858 0.69003 0.01182 0.0
H667 H 0.54522 0.66149 0.04085 0.0
H668 H 0.53128 0.47057 0.03772 0.0
H669 H 0.53035 0.43621 0.05947 0.0
H670 H 0.56583 0.40346 1.00627 0.0
H671 H 0.56577 0.4374 0.98395 0.0
Ho672 Ho 0.82504 0.3177 0.25969 0.0
Ho673 Ho 0.79164 0.28777 0.28359 0.0
C674 C 0.83253 0.26342 0.27203 0.0
C675 C 0.8602 0.34329 0.24742 0.0
C676 C 0.88277 0.34116 0.24837 0.0
C677 C 0.89096 0.32824 0.26507 0.0
C678 C 0.91269 0.32698 0.26663 0.0
C679 C 0.92656 0.33846 0.25137 0.0
C680 C 0.91812 0.35096 0.23427 0.0
C681 C 0.89632 0.3523 0.23281 0.0
C682 C 0.79028 0.28887 0.22801 0.0
C683 C 0.78471 0.34239 0.27105 0.0
C684 C 0.75597 0.26212 0.29485 0.0
C685 C 0.73293 0.26173 0.2888 0.0
C686 C 0.7261 0.27036 0.26784 0.0
C687 C 0.70401 0.26856 0.26105 0.0
C688 C 0.68845 0.25834 0.27524 0.0
C689 C 0.69536 0.2506 0.29676 0.0
C690 C 0.71755 0.25218 0.30344 0.0
C691 C 0.82622 0.31747 0.31504 0.0
O692 O 0.84111 0.28556 0.26643 0.0
O693 O 0.81247 0.2591 0.27841 0.0
O694 O 0.84574 0.32592 0.23192 0.0
O695 O 0.85368 0.34833 0.26878 0.0
O696 O 0.7998 0.31149 0.22669 0.0
O697 O 0.79983 0.283 0.24624 0.0
O698 O 0.77526 0.32007 0.27594 0.0
O699 O 0.80512 0.34638 0.26594 0.0
O700 O 0.76814 0.28224 0.30918 0.0
O701 O 0.76531 0.25461 0.27617 0.0
O702 O 0.81645 0.29532 0.31762 0.0
O703 O 0.81643 0.3226 0.2966 0.0
H704 H 0.88069 0.31955 0.27726 0.0
H705 H 0.91876 0.31765 0.28035 0.0
H706 H 0.92838 0.35979 0.22216 0.0
H707 H 0.89012 0.36222 0.21973 0.0
H708 H 0.73782 0.27804 0.25646 0.0
H709 H 0.69904 0.27498 0.24458 0.0
H710 H 0.68357 0.24267 0.30793 0.0
H711 H 0.72266 0.24558 0.31974 0.0
Ho712 Ho 0.06674 0.53421 0.56629 0.0
Ho713 Ho 0.04817 0.53431 0.51318 0.0
C714 C 0.01591 0.50812 0.54484 0.0
C715 C 0.07187 0.53287 0.61234 0.0
C716 C 0.05495 0.52503 0.62763 0.0
C717 C 0.03515 0.532 0.62454 0.0
C718 C 0.01781 0.52184 0.63619 0.0
C719 C 0.01977 0.50436 0.65109 0.0
C720 C 0.03971 0.49768 0.65461 0.0
C721 C 0.05717 0.50783 0.64276 0.0
C722 C 0.07596 0.50115 0.53166 0.0
C723 C 0.09878 0.56292 0.53511 0.0
C724 C 0.03895 0.53066 0.46628 0.0
C725 C 0.04869 0.54079 0.4461 0.0
C726 C 0.07095 0.54343 0.44412 0.0
C727 C 0.07948 0.55195 0.42403 0.0
C728 C 0.06593 0.55817 0.4057 0.0
C729 C 0.0438 0.55626 0.40825 0.0
C730 C 0.03526 0.54758 0.42825 0.0
C731 C 0.0407 0.56936 0.548 0.0
O732 O 0.03016 0.52075 0.56411 0.0
O733 O 0.02112 0.50625 0.52244 0.0
O734 O 0.074 0.515 0.59539 0.0
O735 O 0.07188 0.55339 0.60408 0.0
O736 O 0.08961 0.51301 0.55101 0.0
O737 O 0.05772 0.50647 0.53207 0.0
O738 O 0.08431 0.55168 0.5154 0.0
O739 O 0.09448 0.56212 0.55777 0.0
O740 O 0.03299 0.54638 0.48245 0.0
O741 O 0.0483 0.51548 0.47626 0.0
O742 O 0.02683 0.55839 0.52855 0.0
O743 O 0.05804 0.56228 0.54719 0.0
H744 H 0.03284 0.54497 0.61274 0.0
H745 H 1.0029 0.52801 0.63377 0.0
H746 H 0.04173 0.48459 0.66637 0.0
H747 H 0.07223 0.50194 0.64503 0.0
H748 H 0.08166 0.53845 0.4578 0.0
H749 H 0.09652 0.55283 0.42246 0.0
H750 H 0.03302 0.5612 0.39464 0.0
H751 H 0.01807 0.54584 0.42963 0.0
Ho752 Ho 0.78232 0.80401 0.26374 0.0
Ho753 Ho 0.83052 0.79275 0.27051 0.0
C754 C 0.80933 0.81107 0.31863 0.0
C755 C 0.74052 0.80009 0.26163 0.0
C756 C 0.72228 0.79537 0.27655 0.0
C757 C 0.7146 0.77231 0.28338 0.0
C758 C 0.69654 0.7682 0.29625 0.0
C759 C 0.68554 0.78694 0.30243 0.0
C760 C 0.69342 0.81004 0.2957 0.0
C761 C 0.71149 0.81415 0.28295 0.0
C762 C 0.81525 0.84591 0.26214 0.0
C763 C 0.80486 0.78953 0.21575 0.0
C764 C 0.87194 0.79446 0.27336 0.0
C765 C 0.89135 0.80038 0.26061 0.0
C766 C 0.8945 0.8189 0.24627 0.0
C767 C 0.91313 0.82351 0.2343 0.0
C768 C 0.92888 0.80957 0.23633 0.0
C769 C 0.92548 0.79101 0.25067 0.0
C770 C 0.90697 0.78651 0.26262 0.0
C771 C 0.79734 0.75106 0.27261 0.0
O772 O 0.79029 0.80767 0.30459 0.0
O773 O 0.82743 0.80803 0.30973 0.0
O774 O 0.75543 0.821 0.26907 0.0
O775 O 0.74884 0.78168 0.25316 0.0
O776 O 0.79446 0.84478 0.26039 0.0
O777 O 0.8168 0.82423 0.26449 0.0
O778 O 0.82375 0.79303 0.23009 0.0
O779 O 0.78612 0.79008 0.22436 0.0
O780 O 0.85645 0.77501 0.26247 0.0
O781 O 0.86432 0.81272 0.2838 0.0
O782 O 0.81806 0.75205 0.27419 0.0
O783 O 0.79605 0.77271 0.27 0.0
H784 H 0.72232 0.75732 0.27853 0.0
H785 H 0.69118 0.75025 0.30133 0.0
H786 H 0.68526 0.82481 0.29963 0.0
H787 H 0.71681 0.83201 0.27766 0.0
H788 H 0.88257 0.8297 0.24426 0.0
H789 H 0.91507 0.83778 0.22323 0.0
H790 H 0.93733 0.78017 0.25303 0.0
H791 H 0.90487 0.77211 0.27356 0.0
Ho792 Ho 0.81642 0.29202 0.74596 0.0
Ho793 Ho 0.8097 0.31681 0.79341 0.0
C794 C 0.84201 0.34888 0.76591 0.0
C795 C 0.82201 0.27953 0.70083 0.0
C796 C 0.82501 0.29485 0.68206 0.0
C797 C 0.81907 0.31747 0.68563 0.0
C798 C 0.82333 0.33336 0.66914 0.0
C799 C 0.83346 0.32685 0.64866 0.0
C800 C 0.83899 0.30393 0.6447 0.0
C801 C 0.83495 0.28803 0.66153 0.0
C802 C 0.84033 0.28125 0.78425 0.0
C803 C 0.78389 0.25994 0.7729 0.0
C804 C 0.80355 0.32694 0.83855 0.0
C805 C 0.79914 0.30971 0.8557 0.0
C806 C 0.81065 0.29124 0.85621 0.0
C807 C 0.80434 0.27248 0.86943 0.0
C808 C 0.7862 0.27152 0.88216 0.0
C809 C 0.77504 0.2904 0.88222 0.0
C810 C 0.78146 0.30935 0.86904 0.0
C811 C 0.7851 0.32692 0.75516 0.0
O812 O 0.83151 0.33251 0.74633 0.0
O813 O 0.83854 0.34548 0.78812 0.0
O814 O 0.83794 0.28567 0.71913 0.0
O815 O 0.80279 0.27602 0.70817 0.0
O816 O 0.83039 0.26531 0.76477 0.0
O817 O 0.83743 0.3023 0.7823 0.0
O818 O 0.79419 0.27625 0.79266 0.0
O819 O 0.78754 0.26378 0.75091 0.0
O820 O 0.78804 0.32317 0.82012 0.0
O821 O 0.82299 0.33073 0.83171 0.0
O822 O 0.79516 0.34311 0.77449 0.0
O823 O 0.78842 0.30606 0.75722 0.0
H824 H 0.81123 0.32295 0.70129 0.0
H825 H 0.81847 0.35069 0.67228 0.0
H826 H 0.84673 0.29856 0.62891 0.0
H827 H 0.83973 0.27066 0.65868 0.0
H828 H 0.82416 0.2908 0.84579 0.0
H829 H 0.81361 0.25857 0.86946 0.0
H830 H 0.76094 0.2901 0.89179 0.0
H831 H 0.77216 0.32319 0.86852 0.0
Ho832 Ho 0.82168 0.81346 0.76868 0.0
Ho833 Ho 0.78751 0.76073 0.75367 0.0
C834 C 0.77232 0.80968 0.77477 0.0
C835 C 0.84723 0.85639 0.77053 0.0
C836 C 0.84049 0.87968 0.7708 0.0
C837 C 0.82249 0.88015 0.75413 0.0
C838 C 0.81195 0.89915 0.7583 0.0
C839 C 0.81916 0.91804 0.77914 0.0
C840 C 0.83819 0.9188 0.79472 0.0
C841 C 0.84877 0.8996 0.79062 0.0
C842 C 0.81303 0.78768 0.8052 0.0
C843 C 0.83785 0.76509 0.74582 0.0
C844 C 0.76495 0.7176 0.75692 0.0
C845 C 0.77221 0.69647 0.76409 0.0
C846 C 0.79016 0.68967 0.75469 0.0
C847 C 0.79861 0.67145 0.76324 0.0
C848 C 0.78936 0.65959 0.78142 0.0
C849 C 0.77124 0.66617 0.7907 0.0
C850 C 0.76269 0.68449 0.78203 0.0
C851 C 0.78633 0.78734 0.7167 0.0
O852 O 0.78971 0.82378 0.76833 0.0
O853 O 0.76961 0.78557 0.77392 0.0
O854 O 0.84406 0.8467 0.79011 0.0
O855 O 0.84089 0.83985 0.75016 0.0
O856 O 0.81747 0.81168 0.80817 0.0
O857 O 0.8148 0.77871 0.78339 0.0
O858 O 0.81849 0.7501 0.74605 0.0
O859 O 0.84248 0.78947 0.75312 0.0
O860 O 0.77045 0.72342 0.73612 0.0
O861 O 0.76802 0.73704 0.77452 0.0
O862 O 0.77358 0.76558 0.71594 0.0
O863 O 0.79806 0.79329 0.73729 0.0
H864 H 0.81559 0.86502 0.73874 0.0
H865 H 0.79753 0.89851 0.74577 0.0
H866 H 0.84406 0.93333 0.81083 0.0
H867 H 0.86248 0.89946 0.8038 0.0
H868 H 0.79815 0.6989 0.74119 0.0
H869 H 0.81296 0.66733 0.75619 0.0
H870 H 0.76385 0.65736 0.80479 0.0
H871 H 0.74902 0.68974 0.78975 0.0
Ho872 Ho 0.53448 0.53232 0.50323 0.0
Ho873 Ho 0.57391 0.56561 0.53652 0.0
C874 C 0.54231 0.59143 0.50683 0.0
C875 C 0.4948 0.50757 0.48691 0.0
C876 C 0.47442 0.51341 0.49268 0.0
C877 C 0.4754 0.53395 0.511 0.0
C878 C 0.45665 0.54203 0.51468 0.0
C879 C 0.43658 0.52969 0.50005 0.0
C880 C 0.43551 0.50853 0.48225 0.0
C881 C 0.4544 0.50045 0.47855 0.0
C882 C 0.56862 0.53589 0.47494 0.0
C883 C 0.56524 0.50607 0.53335 0.0
C884 C 0.61361 0.59062 0.5525 0.0
C885 C 0.63416 0.586 0.54586 0.0
C886 C 0.63361 0.56688 0.52615 0.0
C887 C 0.65275 0.56018 0.52129 0.0
C888 C 0.67271 0.57249 0.5361 0.0
C889 C 0.67337 0.59227 0.5553 0.0
C890 C 0.6541 0.59892 0.56024 0.0
C891 C 0.54007 0.56245 0.56505 0.0
O892 O 0.52784 0.56974 0.50219 0.0
O893 O 0.56224 0.59406 0.51812 0.0
O894 O 0.50629 0.52323 0.47532 0.0
O895 O 0.50667 0.50253 0.50509 0.0
O896 O 0.5488 0.52268 0.46805 0.0
O897 O 0.56951 0.54626 0.49744 0.0
O898 O 0.57981 0.52778 0.53929 0.0
O899 O 0.5459 0.50375 0.52086 0.0
O900 O 0.60272 0.57395 0.56349 0.0
O901 O 0.60122 0.59615 0.53513 0.0
O902 O 0.5599 0.57582 0.57152 0.0
O903 O 0.53882 0.55188 0.54249 0.0
H904 H 0.49087 0.54438 0.52178 0.0
H905 H 0.45815 0.55866 0.52819 0.0
H906 H 0.4202 0.49858 0.47087 0.0
H907 H 0.45351 0.48466 0.46422 0.0
H908 H 0.61825 0.55667 0.51496 0.0
H909 H 0.6519 0.54509 0.50619 0.0
H910 H 0.68859 0.60189 0.56702 0.0
H911 H 0.65465 0.61358 0.57564 0.0
Ho912 Ho 0.07601 0.54511 0.01366 0.0
Ho913 Ho 0.02846 0.54377 0.02744 0.0
C914 C 0.04121 0.49207 0.01353 0.0
C915 C 0.11601 0.54153 0.01271 0.0
C916 C 0.1312 0.5259 0.01821 0.0
C917 C 0.1402 0.52663 0.0425 0.0
C918 C 0.157 0.51496 0.0474 0.0
C919 C 0.16516 0.50193 0.02814 0.0
C920 C 0.15547 0.5004 1.00386 0.0
C921 C 0.13886 0.51238 0.99898 0.0
C922 C 0.04546 0.54763 0.97766 0.0
C923 C 0.06327 0.59684 0.02804 0.0
C924 C 0.98869 0.54757 0.02971 0.0
C925 C 0.97381 0.56379 0.02542 0.0
C926 C 0.96925 0.56974 1.0022 0.0
C927 C 0.95276 0.58197 0.99768 0.0
C928 C 0.94047 0.58858 0.01625 0.0
C929 C 0.94576 0.58357 0.03975 0.0
C930 C 0.96217 0.57125 0.04422 0.0
C931 C 0.05836 0.5388 0.06251 0.0
O932 O 0.062 0.50453 0.01514 0.0
O933 O 0.02495 0.50314 0.01522 0.0
O934 O 0.10065 0.53302 0.99371 0.0
O935 O 0.1094 0.55373 0.03135 0.0
O936 O 0.06611 0.55841 0.97882 0.0
O937 O 0.0428 0.53505 0.99419 0.0
O938 O 0.04248 0.5843 0.02598 0.0
O939 O 0.07944 0.58569 0.02605 0.0
O940 O 1.00426 0.5553 0.04857 0.0
O941 O 0.99495 0.53604 0.0104 0.0
O942 O 0.03767 0.528 0.06057 0.0
O943 O 0.0616 0.55281 0.04718 0.0
H944 H 0.13476 0.53689 0.05778 0.0
H945 H 0.16406 0.51699 0.06634 0.0
H946 H 0.16083 0.49014 0.98849 0.0
H947 H 0.13238 0.51157 0.98004 0.0
H948 H 0.97793 0.56431 0.98727 0.0
H949 H 0.94938 0.58587 0.97948 0.0
H950 H 0.93654 0.58816 0.05443 0.0
H951 H 0.9652 0.56672 0.06222 0.0
H952 H 0.99542 0.17848 0.9318 0.0
H953 H 0.05093 0.24045 0.96337 0.0
H954 H 0.06547 0.21415 0.98874 0.0
H955 H 0.98961 0.15278 0.98811 0.0
H956 H 0.98231 0.12107 0.97187 0.0
H957 H 0.97557 0.14505 0.95705 0.0
H958 H 0.99625 0.13238 0.92118 0.0
H959 H 1.00302 0.10839 0.93589 0.0
H960 H 0.02445 0.13148 0.92771 0.0
H961 H 0.07507 0.18054 0.00929 0.0
H962 H 0.079 0.14234 0.02343 0.0
H963 H 0.01716 0.10185 0.97904 0.0
C964 C 0.01054 0.18662 0.9442 0.0
C965 C 0.02199 0.21168 0.94551 0.0
C966 C 0.04177 0.22143 0.96198 0.0
C967 C 0.05018 0.20659 0.97652 0.0
C968 C 0.0386 0.18198 0.97462 0.0
C969 C 0.01914 0.17206 0.95897 0.0
C970 C 0.01024 0.14484 0.96 0.0
C971 C 0.98812 0.1407 0.96984 0.0
C972 C 1.00839 0.12831 0.93469 0.0
C973 C 0.02798 0.14088 0.97824 0.0
C974 C 0.0441 0.16261 0.98658 0.0
C975 C 0.06246 0.16347 1.003 0.0
C976 C 0.06454 0.14159 0.01094 0.0
C977 C 0.04839 0.11893 1.0025 0.0
C978 C 0.02976 0.1188 0.98607 0.0
H979 H 0.16389 0.78468 0.16531 0.0
H980 H 0.16421 0.86276 0.17728 0.0
H981 H 0.20033 0.87279 0.20307 0.0
H982 H 0.18805 0.78411 0.22556 0.0
H983 H 0.204 0.76266 0.21563 0.0
H984 H 0.1787 0.76178 0.19731 0.0
H985 H 0.19909 0.76716 0.15973 0.0
H986 H 0.2245 0.76814 0.17798 0.0
H987 H 0.22235 0.7932 0.16222 0.0
H988 H 0.23561 0.87409 0.22936 0.0
H989 H 0.26714 0.86671 0.25416 0.0
H990 H 0.2447 0.78786 0.22451 0.0
C991 C 0.17156 0.80395 0.17321 0.0
C992 C 0.16107 0.82296 0.16918 0.0
C993 C 0.17181 0.84786 0.17999 0.0
C994 C 0.19238 0.85374 0.19467 0.0
C995 C 0.20218 0.83454 0.1983 0.0
C996 C 0.19215 0.81014 0.18782 0.0
C997 C 0.20594 0.79293 0.19507 0.0
C998 C 0.19343 0.77427 0.20924 0.0
C999 C 0.21341 0.77957 0.1724 0.0
C1000 C 0.22517 0.8114 0.21163 0.0
C1001 C 0.22267 0.83532 0.21315 0.0
C1002 C 0.23779 0.85547 0.22811 0.0
C1003 C 0.25567 0.85108 0.24214 0.0
C1004 C 0.25851 0.82676 0.24116 0.0
C1005 C 0.24318 0.8067 0.22536 0.0
H1006 H 0.54985 0.86121 0.45178 0.0
H1007 H 0.4913 0.83862 0.48532 0.0
H1008 H 0.49439 0.88221 0.50363 0.0
H1009 H 0.57878 0.91056 0.50386 0.0
H1010 H 0.59119 0.931 0.48458 0.0
H1011 H 0.58477 0.89786 0.47423 0.0
H1012 H 0.56177 0.90207 0.4348 0.0
H1013 H 0.56805 0.93519 0.44506 0.0
H1014 H 0.53994 0.91753 0.43745 0.0
H1015 H 0.50174 0.9282 0.51559 0.0
H1016 H 0.51501 0.97384 0.52384 0.0
H1017 H 0.5706 0.96781 0.48583 0.0
C1018 C 0.53779 0.86544 0.46314 0.0
C1019 C 0.52028 0.84633 0.46704 0.0
C1020 C 0.5049 0.85275 0.48209 0.0
C1021 C 0.50648 0.87754 0.49255 0.0
C1022 C 0.52373 0.8959 0.48819 0.0
C1023 C 0.53934 0.89022 0.47418 0.0
C1024 C 0.55632 0.91372 0.47266 0.0
C1025 C 0.57912 0.91325 0.48454 0.0
C1026 C 0.55652 0.91734 0.4459 0.0
C1027 C 0.54757 0.93342 0.48768 0.0
C1028 C 0.52863 0.92262 0.49624 0.0
C1029 C 0.51672 0.93685 0.5093 0.0
C1030 C 0.52435 0.96277 0.51382 0.0
C1031 C 0.54391 0.97436 0.50571 0.0
C1032 C 0.55578 0.95942 0.49262 0.0
H1033 H 0.5185 0.28463 0.64976 0.0
H1034 H 0.56369 0.34991 0.69489 0.0
H1035 H 0.53522 0.35506 0.7212 0.0
H1036 H 0.47018 0.30694 0.65171 0.0
H1037 H 0.45255 0.2774 0.65338 0.0
H1038 H 0.47655 0.27856 0.63837 0.0
H1039 H 0.49018 0.25152 0.66688 0.0
H1040 H 0.46617 0.25019 0.68192 0.0
H1041 H 0.493 0.2613 0.69973 0.0
H1042 H 0.50124 0.35376 0.74197 0.0
H1043 H 0.46532 0.34502 0.75674 0.0
H1044 H 0.44223 0.28038 0.69824 0.0
C1045 C 0.52249 0.29998 0.66523 0.0
C1046 C 0.54343 0.31691 0.67018 0.0
C1047 C 0.54787 0.33666 0.6907 0.0
C1048 C 0.53175 0.33977 0.70573 0.0
C1049 C 0.51125 0.32289 0.70017 0.0
C1050 C 0.50664 0.30326 0.68052 0.0
C1051 C 0.48335 0.28767 0.67858 0.0
C1052 C 0.46987 0.28766 0.65405 0.0
C1053 C 0.48317 0.2611 0.68198 0.0
C1054 C 0.47549 0.30169 0.70008 0.0
C1055 C 0.49182 0.32199 0.71226 0.0
C1056 C 0.48836 0.3379 0.73255 0.0
C1057 C 0.46779 0.33288 0.7407 0.0
C1058 C 0.45078 0.31205 0.72868 0.0
C1059 C 0.45485 0.29632 0.70804 0.0
H1060 H 0.02864 0.79433 0.59203 0.0
H1061 H 0.03623 0.83636 0.66623 0.0
H1062 H 0.0472 0.87532 0.65084 0.0
H1063 H 0.07423 0.83556 0.57155 0.0
H1064 H 0.05973 0.83187 0.54114 0.0
H1065 H 0.05418 0.80703 0.55814 0.0
H1066 H 0.01299 0.80654 0.55295 0.0
H1067 H 0.0184 0.83126 0.53588 0.0
H1068 H 1.00491 0.8348 0.56276 0.0
H1069 H 0.05584 0.90964 0.62754 0.0
H1070 H 0.05966 0.93732 0.59731 0.0
H1071 H 0.04515 0.87316 0.53807 0.0
C1072 C 0.03284 0.81171 0.60507 0.0
C1073 C 0.03162 0.8123 0.63032 0.0
C1074 C 0.037 0.83544 0.64678 0.0
C1075 C 0.04338 0.85768 0.63826 0.0
C1076 C 0.04429 0.85647 0.61325 0.0
C1077 C 0.03911 0.83413 0.59685 0.0
C1078 C 0.04017 0.83812 0.57071 0.0
C1079 C 0.05815 0.82752 0.55975 0.0
C1080 C 0.01778 0.82703 0.55464 0.0
C1081 C 0.0462 0.86618 0.57496 0.0
C1082 C 0.04884 0.87638 0.59967 0.0
C1083 C 0.05384 0.9019 0.60813 0.0
C1084 C 0.05581 0.91744 0.59082 0.0
C1085 C 0.05253 0.90738 0.56533 0.0
C1086 C 0.04802 0.88142 0.55742 0.0
H1087 H 0.55732 0.86459 0.836 0.0
H1088 H 0.55163 0.78717 0.80552 0.0
H1089 H 0.51263 0.78207 0.79029 0.0
H1090 H 0.50961 0.85617 0.85941 0.0
H1091 H 0.50239 0.88375 0.85269 0.0
H1092 H 0.53065 0.88288 0.85686 0.0
H1093 H 0.53524 0.89399 0.81399 0.0
H1094 H 0.50702 0.89538 0.8098 0.0
H1095 H 0.51691 0.87546 0.78733 0.0
H1096 H 0.4735 0.78362 0.78506 0.0
H1097 H 0.43736 0.79228 0.78755 0.0
H1098 H 0.46879 0.86905 0.82063 0.0
C1099 C 0.54806 0.84673 0.8255 0.0
C1100 C 0.55743 0.82625 0.82196 0.0
C1101 C 0.54476 0.80313 0.80832 0.0
C1102 C 0.52262 0.80007 0.7996 0.0
C1103 C 0.51363 0.82041 0.8044 0.0
C1104 C 0.52604 0.84341 0.81667 0.0
C1105 C 0.51212 0.86165 0.82155 0.0
C1106 C 0.5138 0.87168 0.84927 0.0
C1107 C 0.51818 0.88287 0.80731 0.0
C1108 C 0.48975 0.84497 0.81125 0.0
C1109 C 0.49099 0.82136 0.80113 0.0
C1110 C 0.47234 0.8022 0.7923 0.0
C1111 C 0.45189 0.80733 0.7938 0.0
C1112 C 0.45026 0.83143 0.80407 0.0
C1113 C 0.4695 0.85046 0.8127 0.0
H1114 H 0.50119 0.17051 0.13204 0.0
H1115 H 0.47476 0.19905 0.07088 0.0
H1116 H 0.48049 0.16393 0.04199 0.0
H1117 H 0.54326 0.15281 0.10607 0.0
H1118 H 0.54115 0.12448 0.11778 0.0
H1119 H 0.53203 0.14955 0.13421 0.0
H1120 H 0.49356 0.12043 0.13244 0.0
H1121 H 0.50269 0.09507 0.11637 0.0
H1122 H 0.4788 0.10315 0.10319 0.0
H1123 H 0.4921 0.12872 0.01978 0.0
H1124 H 0.50754 0.09375 1.00503 0.0
H1125 H 0.52789 0.08838 0.08025 0.0
C1126 C 0.49608 0.16904 0.1126 0.0
C1127 C 0.48749 0.1875 0.10369 0.0
C1128 C 0.48121 0.18505 0.07814 0.0
C1129 C 0.48444 0.16519 0.06158 0.0
C1130 C 0.4937 0.14785 0.07092 0.0
C1131 C 0.49914 0.1493 0.09582 0.0
C1132 C 0.50994 0.12889 0.10088 0.0
C1133 C 0.53296 0.13959 0.11559 0.0
C1134 C 0.49538 0.11082 0.114 0.0
C1135 C 0.51087 0.11666 0.07488 0.0
C1136 C 0.50092 0.12761 0.05796 0.0
C1137 C 0.4997 0.1198 0.03281 0.0
C1138 C 0.50857 0.09999 0.02465 0.0
C1139 C 0.51889 0.08852 0.04158 0.0
C1140 C 0.52021 0.09703 0.06702 0.0
H1141 H 0.16997 0.29598 0.35455 0.0
H1142 H 0.15836 0.36233 0.33119 0.0
H1143 H 0.19078 0.36596 0.30974 0.0
H1144 H 0.22961 0.31603 0.36402 0.0
H1145 H 0.23262 0.28544 0.35242 0.0
H1146 H 0.20925 0.28902 0.36725 0.0
H1147 H 0.18354 0.26189 0.32857 0.0
H1148 H 0.20689 0.25857 0.31362 0.0
H1149 H 0.18608 0.27072 0.29907 0.0
H1150 H 0.22387 0.36204 0.29026 0.0
H1151 H 0.25582 0.35042 0.27399 0.0
H1152 H 0.24494 0.28626 0.30911 0.0
C1153 C 0.17439 0.31141 0.34516 0.0
C1154 C 0.1617 0.32884 0.34451 0.0
C1155 C 0.16786 0.34869 0.33185 0.0
C1156 C 0.18624 0.35096 0.31964 0.0
C1157 C 0.19819 0.33322 0.32029 0.0
C1158 C 0.1926 0.31387 0.33275 0.0
C1159 C 0.20782 0.29688 0.32993 0.0
C1160 C 0.22058 0.29686 0.35489 0.0
C1161 C 0.19533 0.27046 0.31702 0.0
C1162 C 0.22266 0.30958 0.31373 0.0
C1163 C 0.21697 0.33062 0.30854 0.0
C1164 C 0.22852 0.34562 0.29419 0.0
C1165 C 0.24657 0.33897 0.28509 0.0
C1166 C 0.25261 0.31752 0.29027 0.0
C1167 C 0.24042 0.30258 0.3046 0.0
H1168 H 1.0089 0.07584 0.2023 0.0
H1169 H 0.94082 0.05942 0.1706 0.0
H1170 H 0.95194 0.05417 0.12879 0.0
H1171 H 0.0314 0.11116 0.15807 0.0
H1172 H 0.05562 0.09953 0.15833 0.0
H1173 H 0.04189 0.1014 0.18512 0.0
H1174 H 0.0384 0.05472 0.18448 0.0
H1175 H 0.05205 0.05269 0.15762 0.0
H1176 H 0.02542 0.03244 0.15706 0.0
H1177 H 0.97263 0.04955 0.08776 0.0
H1178 H 0.99858 0.0493 0.05688 0.0
H1179 H 0.05269 0.0705 0.11616 0.0
C1180 C 0.99612 0.07115 0.18669 0.0
C1181 C 0.97367 0.06811 0.19055 0.0
C1182 C 0.95802 0.06199 0.16891 0.0
C1183 C 0.96432 0.05888 0.14479 0.0
C1184 C 0.98657 0.06195 0.14183 0.0
C1185 C 1.00216 0.06814 0.16252 0.0
C1186 C 0.02506 0.07084 0.15496 0.0
C1187 C 0.03933 0.09731 0.1647 0.0
C1188 C 0.03587 0.05153 0.16408 0.0
C1189 C 0.02025 0.06554 0.12685 0.0
C1190 C 0.99795 0.06008 0.11934 0.0
C1191 C 0.99005 0.05401 0.09392 0.0
C1192 C 1.00503 0.05381 0.07621 0.0
C1193 C 0.02808 0.05997 0.08346 0.0
C1194 C 0.03536 0.06579 0.10943 0.0
H1195 H 0.2731 0.65318 0.45384 0.0
H1196 H 0.26249 0.70015 0.51888 0.0
H1197 H 0.25016 0.72743 0.49316 0.0
H1198 H 0.29749 0.69999 0.42723 0.0
H1199 H 0.28619 0.68588 0.39583 0.0
H1200 H 0.28897 0.66668 0.41813 0.0
H1201 H 0.24756 0.64499 0.40788 0.0
H1202 H 0.24467 0.66414 0.38537 0.0
H1203 H 0.22779 0.66341 0.40959 0.0
H1204 H 0.2454 0.75304 0.4625 0.0
H1205 H 0.25006 0.77653 0.42905 0.0
H1206 H 0.26375 0.71351 0.38316 0.0
C1207 C 0.26745 0.66875 0.46247 0.0
C1208 C 0.26858 0.67461 0.48819 0.0
C1209 C 0.26173 0.69547 0.49912 0.0
C1210 C 0.2545 0.7109 0.48466 0.0
C1211 C 0.25423 0.70515 0.45936 0.0
C1212 C 0.26048 0.68456 0.44829 0.0
C1213 C 0.26186 0.68469 0.42134 0.0
C1214 C 0.285 0.6843 0.4153 0.0
C1215 C 0.24443 0.66302 0.40509 0.0
C1216 C 0.25675 0.7093 0.41944 0.0
C1217 C 0.25176 0.72041 0.4414 0.0
C1218 C 0.24868 0.74431 0.44498 0.0
C1219 C 0.25132 0.75749 0.42583 0.0
C1220 C 0.25716 0.74679 0.40346 0.0
C1221 C 0.25926 0.72213 0.40005 0.0
H1222 H 0.61256 0.99524 0.67166 0.0
H1223 H 0.67356 0.04905 0.67028 0.0
H1224 H 0.65561 0.06452 0.63726 0.0
H1225 H 0.59548 0.98335 0.60322 0.0
H1226 H 0.56696 0.97949 0.60651 0.0
H1227 H 0.58502 0.97093 0.62877 0.0
H1228 H 0.57349 0.99974 0.6634 0.0
H1229 H 0.55588 1.00894 0.64121 0.0
H1230 H 0.57697 0.03213 0.66206 0.0
H1231 H 0.63068 0.07902 0.61051 0.0
H1232 H 0.60153 0.0853 0.58177 0.0
H1233 H 0.55661 0.01996 0.5959 0.0
C1234 C 0.62225 1.00982 0.66395 0.0
C1235 C 0.64439 0.02116 0.67385 0.0
C1236 C 0.65656 0.04017 0.66322 0.0
C1237 C 0.6465 0.0492 0.6445 0.0
C1238 C 0.62443 0.03863 0.63617 0.0
C1239 C 0.61255 0.01879 0.64476 0.0
C1240 C 0.58899 1.01098 0.63215 0.0
C1241 C 0.58381 0.98462 0.61674 0.0
C1242 C 0.57289 1.01308 0.65083 0.0
C1243 C 0.58944 0.03021 0.6159 0.0
C1244 C 0.61007 0.04608 0.61892 0.0
C1245 C 0.6146 0.06634 0.60738 0.0
C1246 C 0.59787 0.06982 0.59124 0.0
C1247 C 0.57705 0.05277 0.58626 0.0
C1248 C 0.57249 0.03308 0.59925 0.0
H1249 H 0.35742 0.36082 0.96305 0.0
H1250 H 0.29288 0.37028 0.97464 0.0
H1251 H 0.27964 0.35416 0.93056 0.0
H1252 H 0.35803 0.37986 0.90512 0.0
H1253 H 0.372 0.35754 0.89198 0.0
H1254 H 0.37631 0.36858 0.9247 0.0
H1255 H 0.36477 0.32338 0.93174 0.0
H1256 H 0.36052 0.31219 0.89902 0.0
H1257 H 0.33867 0.30368 0.91681 0.0
H1258 H 0.27352 0.33823 0.88513 0.0
H1259 H 0.27472 0.32341 0.84143 0.0
H1260 H 0.34336 0.32449 0.85839 0.0
C1261 C 0.34043 0.35926 0.9564 0.0
C1262 C 0.32618 0.36678 0.97249 0.0
C1263 C 0.30413 0.36461 0.96284 0.0
C1264 C 0.29644 0.35547 0.93777 0.0
C1265 C 0.31095 0.34851 0.92243 0.0
C1266 C 0.33246 0.35021 0.93133 0.0
C1267 C 0.34474 0.34198 0.91069 0.0
C1268 C 0.3639 0.36326 0.90797 0.0
C1269 C 0.35264 0.31894 0.91481 0.0
C1270 C 0.32684 0.33572 0.88876 0.0
C1271 C 0.30746 0.33949 0.89604 0.0
C1272 C 0.28859 0.33514 0.87923 0.0
C1273 C 0.28948 0.3267 0.85435 0.0
C1274 C 0.30914 0.32271 0.84623 0.0
C1275 C 0.32807 0.32733 0.86384 0.0
H1276 H 0.98041 0.10925 0.36023 0.0
H1277 H 0.96654 0.03658 0.31351 0.0
H1278 H 0.98426 0.02101 0.34728 0.0
H1279 H 0.03416 0.1071 0.38976 0.0
H1280 H 0.03174 0.12289 0.41972 0.0
H1281 H 0.01792 0.12953 0.39265 0.0
H1282 H 0.98071 0.11866 0.40822 0.0
H1283 H 0.99416 0.11298 0.43599 0.0
H1284 H 0.97174 0.08928 0.41766 0.0
H1285 H 1.00269 1.01255 0.38742 0.0
H1286 H 0.02098 1.01211 0.42827 0.0
H1287 H 0.02476 0.09051 0.45059 0.0
C1288 C 0.98116 0.09004 0.35692 0.0
C1289 C 0.97179 0.07426 0.33358 0.0
C1290 C 0.97344 0.0493 0.33067 0.0
C1291 C 0.98351 0.04022 0.35 0.0
C1292 C 0.99233 0.05615 0.37261 0.0
C1293 C 0.99145 0.08067 0.3761 0.0
C1294 C 1.00255 0.09396 0.40218 0.0
C1295 C 0.02278 0.11462 0.401 0.0
C1296 C 0.98632 0.10433 0.41688 0.0
C1297 C 1.00933 0.07302 0.41311 0.0
C1298 C 1.00327 0.0514 0.39556 0.0
C1299 C 1.0075 0.02948 0.40108 0.0
C1300 C 0.01803 0.02947 0.4247 0.0
C1301 C 0.02467 0.05119 0.44342 0.0
C1302 C 0.02013 0.0734 0.43716 0.0
H1303 H 0.30206 0.69472 0.62066 0.0
H1304 H 0.35359 0.73741 0.58759 0.0
H1305 H 0.35905 0.77267 0.62219 0.0
H1306 H 0.27894 0.74491 0.6424 0.0
H1307 H 0.27293 0.73447 0.67048 0.0
H1308 H 0.27331 0.7123 0.64346 0.0
H1309 H 0.30229 0.69555 0.66752 0.0
H1310 H 0.30127 0.71723 0.69463 0.0
H1311 H 0.32707 0.71715 0.68369 0.0
H1312 H 0.35949 0.80264 0.66079 0.0
H1313 H 0.35561 0.82482 0.70154 0.0
H1314 H 0.30233 0.76328 0.70773 0.0
C1315 C 0.31465 0.71138 0.62076 0.0
C1316 C 0.3275 0.71333 0.60152 0.0
C1317 C 0.34362 0.73554 0.60221 0.0
C1318 C 0.34677 0.75567 0.6217 0.0
C1319 C 0.33352 0.75327 0.64012 0.0
C1320 C 0.31783 0.73167 0.63986 0.0
C1321 C 0.30578 0.73381 0.66191 0.0
C1322 C 0.28129 0.73122 0.65408 0.0
C1323 C 0.30931 0.71479 0.67788 0.0
C1324 C 0.31726 0.75995 0.67473 0.0
C1325 C 0.33323 0.77086 0.6619 0.0
C1326 C 0.3469 0.79442 0.67089 0.0
C1327 C 0.34455 0.80687 0.69394 0.0
C1328 C 0.32857 0.79574 0.70747 0.0
C1329 C 0.31444 0.7723 0.69751 0.0
H1330 H 0.6428 0.0279 0.8014 0.0
H1331 H 0.62537 0.08395 0.76383 0.0
H1332 H 0.61169 0.10155 0.80093 0.0
H1333 H 0.59643 0.01889 0.835 0.0
H1334 H 0.61245 0.01429 0.86165 0.0
H1335 H 0.61972 1.00598 0.83158 0.0
H1336 H 0.65884 0.03416 0.84679 0.0
H1337 H 0.65141 0.04322 0.87666 0.0
H1338 H 0.6623 0.06654 0.85941 0.0
H1339 H 0.60064 0.11342 0.84268 0.0
H1340 H 0.58906 0.11528 0.88403 0.0
H1341 H 0.61524 0.05224 0.89356 0.0
C1342 C 0.63582 0.04365 0.80079 0.0
C1343 C 0.6352 0.0546 0.77979 0.0
C1344 C 0.62594 0.0752 0.77974 0.0
C1345 C 0.61832 0.08548 0.80078 0.0
C1346 C 0.62009 0.07486 0.82155 0.0
C1347 C 0.62829 0.05416 0.82154 0.0
C1348 C 0.62824 0.04603 0.84603 0.0
C1349 C 0.61331 0.01975 0.8434 0.0
C1350 C 0.65159 0.04759 0.85791 0.0
C1351 C 0.61874 0.0654 0.85988 0.0
C1352 C 0.61421 0.08197 0.84556 0.0
C1353 C 0.60422 0.10066 0.85413 0.0
C1354 C 0.59783 0.10167 0.8776 0.0
C1355 C 0.60158 0.08415 0.89203 0.0
C1356 C 0.61279 0.06638 0.88328 0.0
H1357 H 0.33673 0.37156 0.1164 0.0
H1358 H 0.26781 0.36551 0.09374 0.0
H1359 H 0.2587 0.34943 0.13074 0.0
H1360 H 0.32848 0.31519 0.14127 0.0
H1361 H 0.35005 0.32752 0.16689 0.0
H1362 H 0.35179 0.33953 0.13888 0.0
H1363 H 0.35628 0.38389 0.16339 0.0
H1364 H 0.3544 0.37195 0.19145 0.0
H1365 H 0.33597 0.38997 0.18238 0.0
H1366 H 0.25616 0.33356 0.16919 0.0
H1367 H 0.26022 0.31598 0.20652 0.0
H1368 H 0.33046 0.3311 0.20624 0.0
C1369 C 0.31974 0.36681 0.11924 0.0
C1370 C 0.30301 0.3699 0.10193 0.0
C1371 C 0.281 0.3634 0.10647 0.0
C1372 C 0.27559 0.35429 0.12759 0.0
C1373 C 0.29232 0.35163 0.14427 0.0
C1374 C 0.31395 0.35749 0.14043 0.0
C1375 C 0.32846 0.35199 0.1613 0.0
C1376 C 0.3404 0.33239 0.1515 0.0
C1377 C 0.34475 0.37588 0.17546 0.0
C1378 C 0.31149 0.34183 0.17711 0.0
C1379 C 0.29081 0.34212 0.16688 0.0
C1380 C 0.27227 0.33327 0.17742 0.0
C1381 C 0.27475 0.32332 0.19867 0.0
C1382 C 0.2956 0.32217 0.20934 0.0
C1383 C 0.31433 0.33198 0.19864 0.0
H1384 H 0.26456 0.98863 1.00185 0.0
H1385 H 0.25337 0.93967 0.05456 0.0
H1386 H 0.22466 0.95935 0.06872 0.0
H1387 H 0.25786 0.0426 0.03993 0.0
H1388 H 0.24411 0.05308 0.01532 0.0
H1389 H 0.26342 0.03475 0.00892 0.0
H1390 H 0.23383 1.00271 0.97683 0.0
H1391 H 0.21446 0.021 0.98303 0.0
H1392 H 0.20799 0.98883 0.98586 0.0
H1393 H 0.19823 0.9854 0.07814 0.0
H1394 H 0.17446 0.01464 0.08058 0.0
H1395 H 0.20262 0.04579 0.02119 0.0
C1396 C 0.25602 0.98194 0.0163 0.0
C1397 C 0.26121 0.96267 0.02716 0.0
C1398 C 0.24963 0.95441 0.04598 0.0
C1399 C 0.23334 0.96549 0.05417 0.0
C1400 C 0.22881 0.98464 0.04324 0.0
C1401 C 0.23969 0.99267 0.02459 0.0
C1402 C 0.23178 1.0136 0.01593 0.0
C1403 C 0.2504 0.03742 0.0203 0.0
C1404 C 0.22139 1.00607 0.98881 0.0
C1405 C 0.2148 0.01619 0.03272 0.0
C1406 C 0.2134 0.99941 0.04842 0.0
C1407 C 0.19914 0.9986 0.06592 0.0
C1408 C 0.18584 0.01533 0.06727 0.0
C1409 C 0.18685 0.03239 0.0511 0.0
C1410 C 0.20152 0.03281 0.03366 0.0
H1411 H 0.7067 0.65255 0.03766 0.0
H1412 H 0.71568 0.63966 0.9608 0.0
H1413 H 0.67811 0.61278 0.95026 0.0
H1414 H 0.67608 0.59118 0.03835 0.0
H1415 H 0.65808 0.60089 0.05885 0.0
H1416 H 0.68535 0.61993 0.06029 0.0
H1417 H 0.66945 0.65723 0.05383 0.0
H1418 H 0.64211 0.63824 0.05231 0.0
H1419 H 0.64935 0.65399 0.02747 0.0
H1420 H 0.6399 0.58625 0.94812 0.0
H1421 H 0.60417 0.56136 0.95469 0.0
H1422 H 0.61965 0.59145 0.03285 0.0
C1423 C 0.70076 0.64418 0.01858 0.0
C1424 C 0.71425 0.64829 1.00005 0.0
C1425 C 0.70576 0.63686 0.97534 0.0
C1426 C 0.68439 0.62158 0.96916 0.0
C1427 C 0.67158 0.6179 0.98785 0.0
C1428 C 0.67943 0.62887 0.01207 0.0
C1429 C 0.66246 0.62138 0.02871 0.0
C1430 C 0.67101 0.60752 0.04767 0.0
C1431 C 0.65543 0.64407 0.04132 0.0
C1432 C 0.64397 0.6042 0.01011 0.0
C1433 C 0.64954 0.60259 0.98662 0.0
C1434 C 0.63536 0.58745 0.96642 0.0
C1435 C 0.6151 0.57336 0.97033 0.0
C1436 C 0.60915 0.57444 0.99425 0.0
C1437 C 0.62372 0.59033 0.01433 0.0
H1438 H 0.69556 0.42859 0.29525 0.0
H1439 H 0.73678 0.48399 0.26306 0.0
H1440 H 0.76191 0.45638 0.25636 0.0
H1441 H 0.73981 0.40809 0.32657 0.0
H1442 H 0.72505 0.37591 0.32104 0.0
H1443 H 0.71033 0.39981 0.32329 0.0
H1444 H 0.68807 0.37953 0.28068 0.0
H1445 H 0.70275 0.3556 0.27827 0.0
H1446 H 0.70224 0.37395 0.25465 0.0
H1447 H 0.78344 0.42157 0.25315 0.0
H1448 H 0.79871 0.38538 0.25373 0.0
H1449 H 0.74419 0.3504 0.28782 0.0
C1450 C 0.70987 0.43513 0.28676 0.0
C1451 C 0.71373 0.45922 0.27977 0.0
C1452 C 0.73295 0.4662 0.26875 0.0
C1453 C 0.74746 0.45036 0.26484 0.0
C1454 C 0.74307 0.42699 0.27191 0.0
C1455 C 0.72464 0.41941 0.28271 0.0
C1456 C 0.72372 0.39337 0.28873 0.0
C1457 C 0.72478 0.39435 0.31656 0.0
C1458 C 0.70295 0.37449 0.27476 0.0
C1459 C 0.7444 0.38725 0.27958 0.0
C1460 C 0.75528 0.40708 0.27 0.0
C1461 C 0.77483 0.40616 0.26065 0.0
C1462 C 0.78351 0.3851 0.2611 0.0
C1463 C 0.77313 0.36409 0.27074 0.0
C1464 C 0.75293 0.36554 0.28007 0.0
H1465 H 0.89165 0.49932 0.50414 0.0
H1466 H 0.8802 0.49543 0.57916 0.0
H1467 H 0.91928 0.49686 0.59053 0.0
H1468 H 0.92663 0.45951 0.49997 0.0
H1469 H 0.94417 0.47649 0.48162 0.0
H1470 H 0.91586 0.47735 0.47994 0.0
H1471 H 0.92706 0.52546 0.4914 0.0
H1472 H 0.95536 0.52476 0.49237 0.0
H1473 H 0.94623 0.54043 0.51867 0.0
H1474 H 0.95964 0.49732 0.59292 0.0
H1475 H 0.99826 0.50027 0.58675 0.0
H1476 H 0.98129 0.50141 0.50965 0.0
C1477 C 0.89736 0.4992 0.52309 0.0
C1478 C 0.88294 0.49732 0.54078 0.0
C1479 C 0.89106 0.49709 0.56535 0.0
C1480 C 0.91315 0.49768 0.57192 0.0
C1481 C 0.9267 0.49844 0.55368 0.0
C1482 C 0.91911 0.4995 0.52985 0.0
C1483 C 0.93666 0.49977 0.51344 0.0
C1484 C 0.93045 0.47691 0.49252 0.0
C1485 C 0.94162 0.52405 0.5034 0.0
C1486 C 0.95538 0.49856 0.5317 0.0
C1487 C 0.94944 0.49788 0.55485 0.0
C1488 C 0.96445 0.49779 0.57486 0.0
C1489 C 0.98628 0.49941 0.57121 0.0
C1490 C 0.99268 0.50097 0.54776 0.0
C1491 C 0.97685 0.49975 0.5277 0.0
H1492 H 0.40568 0.10153 0.27993 0.0
H1493 H 0.43327 0.10445 0.21187 0.0
H1494 H 0.40581 0.12629 0.1979 0.0
H1495 H 0.35007 0.0882 0.25231 0.0
H1496 H 0.34192 0.10585 0.27812 0.0
H1497 H 0.36424 0.09152 0.28281 0.0
H1498 H 0.38992 0.13411 0.3042 0.0
H1499 H 0.36757 0.14842 0.29999 0.0
H1500 H 0.39279 0.16003 0.28851 0.0
H1501 H 0.37499 0.14814 0.19213 0.0
H1502 H 0.34486 0.16932 0.19581 0.0
H1503 H 0.33755 0.14914 0.26692 0.0
C1504 C 0.4063 0.10711 0.26223 0.0
C1505 C 0.42179 0.10172 0.24709 0.0
C1506 C 0.4216 0.10869 0.22379 0.0
C1507 C 0.40604 0.12093 0.21571 0.0
C1508 C 0.39069 0.12549 0.23102 0.0
C1509 C 0.39077 0.11871 0.25377 0.0
C1510 C 0.37237 0.1249 0.26666 0.0
C1511 C 0.3562 0.10121 0.27017 0.0
C1512 C 0.3812 0.14295 0.29128 0.0
C1513 C 0.36227 0.13711 0.24801 0.0
C1514 C 0.3728 0.13709 0.22741 0.0
C1515 C 0.3665 0.14803 0.20805 0.0
C1516 C 0.34935 0.15981 0.21019 0.0
C1517 C 0.339 0.16057 0.23157 0.0
C1518 C 0.34525 0.14866 0.25038 0.0
H1519 H 0.33946 0.14325 0.49068 0.0
H1520 H 0.34513 0.17392 0.5684 0.0
H1521 H 0.3794 0.16121 0.57602 0.0
H1522 H 0.35971 0.08952 0.49933 0.0
H1523 H 0.37428 0.08967 0.47314 0.0
H1524 H 0.35028 0.10164 0.47337 0.0
H1525 H 0.37266 0.14339 0.46519 0.0
H1526 H 0.39677 0.13158 0.46507 0.0
H1527 H 0.39732 0.15993 0.48565 0.0
H1528 H 0.41342 0.14623 0.57562 0.0
H1529 H 0.44396 0.12736 0.56763 0.0
H1530 H 0.41623 0.10392 0.49057 0.0
C1531 C 0.34793 0.14728 0.50928 0.0
C1532 C 0.33948 0.15967 0.52893 0.0
C1533 C 0.35108 0.16442 0.55301 0.0
C1534 C 0.37068 0.15735 0.55756 0.0
C1535 C 0.37858 0.14528 0.53791 0.0
C1536 C 0.36754 0.14003 0.51426 0.0
C1537 C 0.37949 0.12616 0.49667 0.0
C1538 C 0.36508 0.10021 0.48494 0.0
C1539 C 0.387 0.14116 0.47698 0.0
C1540 C 0.39894 0.12456 0.51416 0.0
C1541 C 0.39808 0.1359 0.53781 0.0
C1542 C 0.41415 0.13707 0.55721 0.0
C1543 C 0.43142 0.12609 0.55248 0.0
C1544 C 0.43257 0.11374 0.52852 0.0
C1545 C 0.41608 0.11328 0.50908 0.0
H1546 H 0.75251 0.60274 0.26231 0.0
H1547 H 0.69547 0.61486 0.29439 0.0
H1548 H 0.70903 0.66022 0.29602 0.0
H1549 H 0.79121 0.6574 0.29851 0.0
H1550 H 0.80675 0.6629 0.27367 0.0
H1551 H 0.79215 0.63183 0.27496 0.0
H1552 H 0.77183 0.62731 0.23121 0.0
H1553 H 0.78624 0.65846 0.22988 0.0
H1554 H 0.75674 0.6496 0.22485 0.0
H1555 H 0.72985 0.70661 0.29241 0.0
H1556 H 0.75591 0.74561 0.28783 0.0
H1557 H 0.79959 0.70259 0.25995 0.0
C1558 C 0.74278 0.61482 0.26982 0.0
C1559 C 0.72268 0.60462 0.27823 0.0
C1560 C 0.71085 0.62168 0.2879 0.0
C1561 C 0.71848 0.64769 0.28877 0.0
C1562 C 0.73824 0.65698 0.2801 0.0
C1563 C 0.75029 0.64083 0.27108 0.0
C1564 C 0.77125 0.65512 0.26336 0.0
C1565 C 0.79154 0.6516 0.27853 0.0
C1566 C 0.77153 0.64714 0.23568 0.0
C1567 C 0.76935 0.68188 0.2694 0.0
C1568 C 0.75009 0.68276 0.27876 0.0
C1569 C 0.74491 0.70575 0.28512 0.0
C1570 C 0.75975 0.728 0.28223 0.0
C1571 C 0.77987 0.72757 0.27325 0.0
C1572 C 0.78442 0.70391 0.26679 0.0
H1573 H 0.88032 0.48046 0.72993 0.0
H1574 H 0.94231 0.48872 0.77522 0.0
H1575 H 0.93146 0.44473 0.77843 0.0
H1576 H 0.848 0.44506 0.76128 0.0
H1577 H 0.82975 0.42436 0.73571 0.0
H1578 H 0.84373 0.45493 0.73234 0.0
H1579 H 0.86041 0.43644 0.69526 0.0
H1580 H 0.846 0.40574 0.69817 0.0
H1581 H 0.87524 0.41316 0.69849 0.0
H1582 H 0.91071 0.40402 0.78539 0.0
H1583 H 0.88357 0.36602 0.78924 0.0
H1584 H 0.83623 0.38182 0.73649 0.0
C1585 C 0.89195 0.47277 0.73971 0.0
C1586 C 0.91205 0.48813 0.75252 0.0
C1587 C 0.92677 0.47741 0.7653 0.0
C1588 C 0.92077 0.45238 0.76724 0.0
C1589 C 0.90027 0.43812 0.75571 0.0
C1590 C 0.88634 0.44764 0.74147 0.0
C1591 C 0.86458 0.42878 0.73251 0.0
C1592 C 0.8454 0.4389 0.74098 0.0
C1593 C 0.86138 0.42054 0.70444 0.0
C1594 C 0.86796 0.40791 0.74531 0.0
C1595 C 0.8887 0.41367 0.75854 0.0
C1596 C 0.89471 0.39885 0.77443 0.0
C1597 C 0.87919 0.37751 0.77671 0.0
C1598 C 0.85811 0.37106 0.76289 0.0
C1599 C 0.85251 0.3862 0.74675 0.0
H1600 H 0.12339 0.92071 0.1068 0.0
H1601 H 0.07025 0.85791 0.07058 0.0
H1602 H 0.05631 0.88461 0.04524 0.0
H1603 H 0.09345 0.96614 0.1104 0.0
H1604 H 0.11487 0.99041 0.10392 0.0
H1605 H 0.12175 0.96608 0.11798 0.0
H1606 H 0.1442 0.95595 0.08308 0.0
H1607 H 0.13728 0.98016 0.06875 0.0
H1608 H 0.13128 0.9489 0.05158 0.0
H1609 H 0.04632 0.91881 0.02608 0.0
H1610 H 0.04175 0.95752 0.01355 0.0
H1611 H 0.10178 0.99838 0.06121 0.0
C1612 C 0.10899 0.91246 0.0933 0.0
C1613 C 0.09795 0.88707 0.09076 0.0
C1614 C 0.07911 0.87717 0.07288 0.0
C1615 C 0.07102 0.89224 0.05838 0.0
C1616 C 0.08207 0.91721 0.06162 0.0
C1617 C 0.1008 0.92722 0.07844 0.0
C1618 C 0.10923 0.9548 0.07868 0.0
C1619 C 0.10985 0.97026 0.10427 0.0
C1620 C 0.13184 0.96026 0.07001 0.0
C1621 C 0.09187 0.95889 0.06003 0.0
C1622 C 0.07647 0.93689 0.05028 0.0
C1623 C 0.05842 0.93607 0.03341 0.0
C1624 C 0.05595 0.95825 0.02643 0.0
C1625 C 0.07141 0.98115 0.03624 0.0
C1626 C 0.08974 0.98126 0.05312 0.0
H1627 H 0.95525 0.31654 0.87209 0.0
H1628 H 0.94975 0.23765 0.86656 0.0
H1629 H 0.91293 0.22868 0.84246 0.0
H1630 H 0.89769 0.31399 0.87777 0.0
H1631 H 0.89666 0.33771 0.85984 0.0
H1632 H 0.92204 0.33791 0.87767 0.0
H1633 H 0.94105 0.33783 0.83859 0.0
H1634 H 0.91576 0.33764 0.82067 0.0
H1635 H 0.92971 0.31379 0.81195 0.0
H1636 H 0.87751 0.22836 0.81661 0.0
H1637 H 0.8465 0.23662 0.79157 0.0
H1638 H 0.87453 0.31576 0.81473 0.0
C1639 C 0.94628 0.29734 0.866 0.0
C1640 C 0.95552 0.27778 0.87127 0.0
C1641 C 0.94311 0.25297 0.86286 0.0
C1642 C 0.92214 0.2477 0.84915 0.0
C1643 C 0.91363 0.26742 0.84412 0.0
C1644 C 0.92529 0.29177 0.85243 0.0
C1645 C 0.9127 0.30959 0.84403 0.0
C1646 C 0.90693 0.32575 0.86615 0.0
C1647 C 0.92557 0.32565 0.82785 0.0
C1648 C 0.89233 0.2915 0.8292 0.0
C1649 C 0.89315 0.26725 0.8296 0.0
C1650 C 0.87666 0.24727 0.81639 0.0
C1651 C 0.8591 0.25214 0.80219 0.0
C1652 C 0.85802 0.2768 0.80126 0.0
C1653 C 0.87475 0.29671 0.81529 0.0
H1654 H 0.575 0.24553 0.59621 0.0
H1655 H 0.63839 0.27039 0.57274 0.0
H1656 H 0.63604 0.22778 0.55195 0.0
H1657 H 0.58203 0.18726 0.60816 0.0
H1658 H 0.5542 0.17023 0.59657 0.0
H1659 H 0.56025 0.20294 0.60906 0.0
H1660 H 0.54153 0.21045 0.56848 0.0
H1661 H 0.53544 0.17774 0.55587 0.0
H1662 H 0.55048 0.1999 0.53983 0.0
H1663 H 0.62848 0.18238 0.53618 0.0
H1664 H 0.61511 0.13685 0.52452 0.0
H1665 H 0.55561 0.14042 0.55572 0.0
C1666 C 0.5883 0.24203 0.58653 0.0
C1667 C 0.60692 0.26148 0.58619 0.0
C1668 C 0.62394 0.25599 0.57331 0.0
C1669 C 0.62278 0.23177 0.5614 0.0
C1670 C 0.60437 0.21306 0.56223 0.0
C1671 C 0.58731 0.21783 0.57425 0.0
C1672 C 0.56954 0.19407 0.57243 0.0
C1673 C 0.56632 0.18829 0.59808 0.0
C1674 C 0.54797 0.19564 0.55831 0.0
C1675 C 0.57947 0.17524 0.55785 0.0
C1676 C 0.59962 0.1867 0.55228 0.0
C1677 C 0.6126 0.17323 0.54016 0.0
C1678 C 0.60489 0.14737 0.53366 0.0
C1679 C 0.58426 0.13512 0.53897 0.0
C1680 C 0.57127 0.14933 0.551 0.0
H1681 H 0.5995 0.82191 0.39003 0.0
H1682 H 0.55865 0.74729 0.36339 0.0
H1683 H 0.58649 0.73786 0.33785 0.0
H1684 H 0.61901 0.83082 0.33285 0.0
H1685 H 0.64614 0.8481 0.34708 0.0
H1686 H 0.62316 0.84883 0.36352 0.0
H1687 H 0.64243 0.83399 0.39938 0.0
H1688 H 0.66547 0.83318 0.38304 0.0
H1689 H 0.65145 0.80581 0.39326 0.0
H1690 H 0.61888 0.73667 0.31478 0.0
H1691 H 0.65255 0.74406 0.29543 0.0
H1692 H 0.67264 0.81929 0.3376 0.0
C1693 C 0.59637 0.80355 0.37886 0.0
C1694 C 0.57679 0.78534 0.37879 0.0
C1695 C 0.57344 0.7616 0.36379 0.0
C1696 C 0.5892 0.75604 0.34923 0.0
C1697 C 0.6083 0.7744 0.34976 0.0
C1698 C 0.61192 0.7977 0.36415 0.0
C1699 C 0.63368 0.81423 0.36117 0.0
C1700 C 0.63029 0.83683 0.35052 0.0
C1701 C 0.64917 0.82227 0.38567 0.0
C1702 C 0.64176 0.79661 0.34283 0.0
C1703 C 0.6269 0.77371 0.33653 0.0
C1704 C 0.63067 0.75451 0.31971 0.0
C1705 C 0.65 0.75885 0.30893 0.0
C1706 C 0.66548 0.78225 0.31493 0.0
C1707 C 0.66118 0.80126 0.3323 0.0
H1708 H 0.10303 0.2978 0.44658 0.0
H1709 H 0.0646 0.26352 0.37539 0.0
H1710 H 0.04875 0.22642 0.39204 0.0
H1711 H 0.11607 0.24346 0.46073 0.0
H1712 H 0.11428 0.25108 0.49303 0.0
H1713 H 0.12152 0.27545 0.47585 0.0
H1714 H 0.08942 0.29314 0.48963 0.0
H1715 H 0.08196 0.26866 0.50671 0.0
H1716 H 0.06203 0.27334 0.48373 0.0
H1717 H 0.0382 0.19248 0.41588 0.0
H1718 H 0.03508 0.16335 0.44486 0.0
H1719 H 0.08068 0.21963 0.50015 0.0
C1720 C 0.09117 0.28258 0.43451 0.0
C1721 C 0.08502 0.28357 0.4097 0.0
C1722 C 0.06956 0.26317 0.39447 0.0
C1723 C 0.06038 0.24207 0.40378 0.0
C1724 C 0.0668 0.24171 0.42834 0.0
C1725 C 0.08188 0.26139 0.44348 0.0
C1726 C 0.08674 0.25588 0.46886 0.0
C1727 C 0.11109 0.25649 0.47496 0.0
C1728 C 0.07961 0.27382 0.48838 0.0
C1729 C 0.07236 0.22983 0.46548 0.0
C1730 C 0.06081 0.22209 0.44205 0.0
C1731 C 0.04709 0.19836 0.4343 0.0
C1732 C 0.04551 0.18192 0.45079 0.0
C1733 C 0.05769 0.18927 0.47463 0.0
C1734 C 0.07092 0.21368 0.48216 0.0
H1735 H 0.58416 0.2278 0.1744 0.0
H1736 H 0.55162 0.2633 0.2295 0.0
H1737 H 0.58331 0.2679 0.26091 0.0
H1738 H 0.61108 0.19477 0.21463 0.0
H1739 H 0.63557 0.19974 0.20025 0.0
H1740 H 0.60945 0.19719 0.18265 0.0
H1741 H 0.62461 0.23985 0.17076 0.0
H1742 H 0.65072 0.24253 0.18828 0.0
H1743 H 0.63652 0.2666 0.19465 0.0
H1744 H 0.61939 0.27068 0.28578 0.0
H1745 H 0.65796 0.27313 0.30156 0.0
H1746 H 0.66656 0.23646 0.22991 0.0
C1747 C 0.58356 0.23625 0.19312 0.0
C1748 C 0.56545 0.24513 0.19953 0.0
C1749 C 0.56537 0.25635 0.22419 0.0
C1750 C 0.58323 0.25894 0.24218 0.0
C1751 C 0.60094 0.25017 0.23519 0.0
C1752 C 0.60124 0.23908 0.21125 0.0
C1753 C 0.62277 0.23264 0.20813 0.0
C1754 C 0.61951 0.20441 0.201 0.0
C1755 C 0.63433 0.24623 0.18935 0.0
C1756 C 0.63474 0.24247 0.2339 0.0
C1757 C 0.6218 0.25214 0.24938 0.0
C1758 C 0.62965 0.26298 0.27391 0.0
C1759 C 0.65146 0.26425 0.28271 0.0
C1760 C 0.66504 0.25506 0.26685 0.0
C1761 C 0.65645 0.24373 0.24232 0.0
H1762 H 0.58434 0.92523 0.90312 0.0
H1763 H 0.64116 0.90974 0.94137 0.0
H1764 H 0.63894 0.93955 0.97825 0.0
H1765 H 0.59469 0.99195 0.93309 0.0
H1766 H 0.56589 0.98903 0.934 0.0
H1767 H 0.57478 0.97033 0.90956 0.0
H1768 H 0.55066 0.93075 0.92057 0.0
H1769 H 0.5422 0.9494 0.94529 0.0
H1770 H 0.55478 0.92498 0.95139 0.0
H1771 H 0.62897 0.96897 0.01165 0.0
H1772 H 0.61058 0.99345 0.03982 0.0
H1773 H 0.55785 0.98475 0.98076 0.0
C1774 C 0.5967 0.92868 0.91902 0.0
C1775 C 0.6131 0.91555 0.91942 0.0
C1776 C 0.62857 0.91985 0.94076 0.0
C1777 C 0.62749 0.93679 0.96169 0.0
C1778 C 0.61074 0.94901 0.96093 0.0
C1779 C 0.59556 0.94508 0.94016 0.0
C1780 C 0.57767 0.95818 0.94491 0.0
C1781 C 0.57831 0.97858 0.92948 0.0
C1782 C 0.555 0.93972 0.94028 0.0
C1783 C 0.58464 0.96923 0.97186 0.0
C1784 C 0.60412 0.96447 0.98059 0.0
C1785 C 0.61375 0.9729 1.005 0.0
C1786 C 0.60317 0.98662 0.02086 0.0
C1787 C 0.58294 0.99109 0.0123 0.0
C1788 C 0.57352 0.98205 0.98761 0.0
H1789 H 0.95139 0.77181 0.6972 0.0
H1790 H 0.94341 0.69381 0.70006 0.0
H1791 H 0.90703 0.69218 0.71344 0.0
H1792 H 0.9284 0.78712 0.75081 0.0
H1793 H 0.91573 0.80918 0.73894 0.0
H1794 H 0.94026 0.80347 0.72815 0.0
H1795 H 0.92063 0.79242 0.6832 0.0
H1796 H 0.89604 0.79821 0.69385 0.0
H1797 H 0.89528 0.7687 0.67522 0.0
H1798 H 0.87152 0.69996 0.72735 0.0
H1799 H 0.84105 0.7167 0.74157 0.0
H1800 H 0.87432 0.78955 0.73017 0.0
C1801 C 0.94196 0.75424 0.70034 0.0
C1802 C 0.95013 0.73289 0.69747 0.0
C1803 C 0.93737 0.71039 0.70211 0.0
C1804 C 0.91672 0.70929 0.70966 0.0
C1805 C 0.90928 0.73087 0.71253 0.0
C1806 C 0.92161 0.7529 0.70803 0.0
C1807 C 0.91063 0.77382 0.7134 0.0
C1808 C 0.92459 0.79461 0.73405 0.0
C1809 C 0.90533 0.78386 0.69002 0.0
C1810 C 0.89015 0.7602 0.72173 0.0
C1811 C 0.88945 0.73542 0.72099 0.0
C1812 C 0.87191 0.71934 0.72797 0.0
C1813 C 0.8547 0.72897 0.73597 0.0
C1814 C 0.85544 0.75443 0.73709 0.0
C1815 C 0.87337 0.77006 0.72977 0.0
H1816 H 0.13152 0.06899 0.8548 0.0
H1817 H 0.15548 1.00283 0.85353 0.0
H1818 H 0.14036 0.99689 0.89228 0.0
H1819 H 0.14186 0.09045 0.92137 0.0
H1820 H 0.11751 0.10171 0.92253 0.0
H1821 H 0.13065 0.10103 0.89525 0.0
H1822 H 0.09446 0.07461 0.8691 0.0
H1823 H 0.08119 0.07544 0.89625 0.0
H1824 H 0.08069 0.04605 0.8775 0.0
H1825 H 0.12168 0.9986 0.93336 0.0
H1826 H 0.09992 1.00536 0.96736 0.0
H1827 H 0.08666 0.06946 0.94146 0.0
C1828 C 0.13371 0.05315 0.86253 0.0
C1829 C 0.14507 0.03641 0.8504 0.0
C1830 C 0.14709 0.01606 0.86181 0.0
C1831 C 0.1385 1.01259 0.88413 0.0
C1832 C 0.12759 0.02951 0.89551 0.0
C1833 C 0.12506 0.04933 0.8848 0.0
C1834 C 0.1122 0.06462 0.90018 0.0
C1835 C 0.1264 0.09102 0.91043 0.0
C1836 C 0.09087 0.06521 0.88484 0.0
C1837 C 0.10747 0.05027 0.92106 0.0
C1838 C 0.11682 0.03026 0.91831 0.0
C1839 C 0.11457 0.01438 0.93544 0.0
C1840 C 0.10228 0.01857 0.95513 0.0
C1841 C 0.092 0.03855 0.95826 0.0
C1842 C 0.09482 0.05452 0.9406 0.0
H1843 H 0.80519 0.37128 0.52416 0.0
H1844 H 0.82861 0.4463 0.56665 0.0
H1845 H 0.84159 0.42999 0.60194 0.0
H1846 H 0.78488 0.34411 0.57363 0.0
H1847 H 0.79254 0.31547 0.56446 0.0
H1848 H 0.78642 0.33319 0.54175 0.0
H1849 H 0.82441 0.3342 0.5278 0.0
H1850 H 0.83079 0.31694 0.55092 0.0
H1851 H 0.84879 0.34648 0.54997 0.0
H1852 H 0.85169 0.40652 0.63272 0.0
H1853 H 0.85281 0.37617 0.6598 0.0
H1854 H 0.82175 0.31607 0.59883 0.0
C1855 C 0.81298 0.38423 0.54091 0.0
C1856 C 0.81606 0.41008 0.54248 0.0
C1857 C 0.82617 0.42642 0.56484 0.0
C1858 C 0.83381 0.41739 0.58499 0.0
C1859 C 0.83108 0.39195 0.58264 0.0
C1860 C 0.82056 0.3755 0.56142 0.0
C1861 C 0.81833 0.34891 0.56462 0.0
C1862 C 0.7941 0.33459 0.56091 0.0
C1863 C 0.83136 0.33587 0.54729 0.0
C1864 C 0.82867 0.35312 0.59115 0.0
C1865 C 0.83641 0.37813 0.60092 0.0
C1866 C 0.84576 0.38686 0.62533 0.0
C1867 C 0.84631 0.36956 0.64054 0.0
C1868 C 0.83727 0.34396 0.63131 0.0
C1869 C 0.82906 0.33555 0.60614 0.0
H1870 H 0.46771 0.03317 0.3759 0.0
H1871 H 0.50868 0.08457 0.33905 0.0
H1872 H 0.53899 0.09213 0.37307 0.0
H1873 H 0.48743 0.0673 0.43778 0.0
H1874 H 0.48615 0.03972 0.45063 0.0
H1875 H 0.46748 0.03889 0.42377 0.0
H1876 H 0.48025 1.00246 0.40006 0.0
H1877 H 0.4989 1.00305 0.42682 0.0
H1878 H 0.50896 1.00594 0.398 0.0
H1879 H 0.56506 0.09281 0.41028 0.0
H1880 H 0.58495 0.08711 0.44856 0.0
H1881 H 0.52657 0.03539 0.46064 0.0
C1882 C 0.483 0.04611 0.37498 0.0
C1883 C 0.48589 0.05827 0.35485 0.0
C1884 C 0.50614 0.07508 0.35435 0.0
C1885 C 0.52342 0.07949 0.37355 0.0
C1886 C 0.52005 0.06703 0.39304 0.0
C1887 C 0.50032 0.05077 0.39394 0.0
C1888 C 0.50096 0.03941 0.41671 0.0
C1889 C 0.48453 0.04677 0.4332 0.0
C1890 C 0.49704 1.01103 0.40998 0.0
C1891 C 0.52426 0.05159 0.42837 0.0
C1892 C 0.53499 0.06751 0.4145 0.0
C1893 C 0.55682 0.0805 0.42136 0.0
C1894 C 0.56795 0.07711 0.44303 0.0
C1895 C 0.55717 0.0609 0.45742 0.0
C1896 C 0.53509 0.04804 0.45001 0.0
H1897 H 0.77388 0.72239 0.07362 0.0
H1898 H 0.83128 0.77484 0.06018 0.0
H1899 H 0.83735 0.79577 0.10353 0.0
H1900 H 0.75547 0.76672 0.11747 0.0
H1901 H 0.74663 0.74453 0.13666 0.0
H1902 H 0.74599 0.73414 0.1042 0.0
H1903 H 0.76992 0.70431 0.11351 0.0
H1904 H 0.77066 0.71461 0.14597 0.0
H1905 H 0.79585 0.71649 0.1331 0.0
H1906 H 0.83922 0.80909 0.1488 0.0
H1907 H 0.83567 0.81527 0.19296 0.0
H1908 H 0.77616 0.75598 0.17796 0.0
C1909 C 0.78757 0.73846 0.07971 0.0
C1910 C 0.8021 0.74692 0.06329 0.0
C1911 C 0.81989 0.76793 0.0722 0.0
C1912 C 0.82349 0.78 0.09688 0.0
C1913 C 0.8091 0.77104 0.11259 0.0
C1914 C 0.79138 0.75088 0.1044 0.0
C1915 C 0.77878 0.74474 0.12543 0.0
C1916 C 0.75532 0.74772 0.12065 0.0
C1917 C 0.77881 0.71848 0.12975 0.0
C1918 C 0.79232 0.76444 0.14673 0.0
C1919 C 0.80979 0.7793 0.13881 0.0
C1920 C 0.82544 0.7978 0.15514 0.0
C1921 C 0.82331 0.80114 0.18021 0.0
C1922 C 0.80552 0.78635 0.18885 0.0
C1923 C 0.78966 0.76792 0.17179 0.0
H1924 H 0.14456 0.07014 0.70411 0.0
H1925 H 0.13466 0.99092 0.70047 0.0
H1926 H 0.11395 0.98353 0.65854 0.0
H1927 H 0.09114 0.06782 0.67139 0.0
H1928 H 0.1016 0.09283 0.6559 0.0
H1929 H 0.11527 0.09171 0.68549 0.0
H1930 H 0.15147 0.09354 0.66737 0.0
H1931 H 0.13791 0.09463 0.63772 0.0
H1932 H 0.15218 0.07085 0.64087 0.0
H1933 H 0.09415 0.98512 0.61523 0.0
H1934 H 0.07791 0.9949 0.57712 0.0
H1935 H 0.10026 0.07346 0.60824 0.0
C1936 C 0.13801 0.05111 0.69467 0.0
C1937 C 0.14151 0.03109 0.70628 0.0
C1938 C 0.13243 1.00668 0.69262 0.0
C1939 C 0.12058 1.00234 0.66855 0.0
C1940 C 0.1176 0.0225 0.65781 0.0
C1941 C 0.12609 0.04646 0.6706 0.0
C1942 C 0.12072 0.06501 0.65502 0.0
C1943 C 0.10633 0.08025 0.66771 0.0
C1944 C 0.14183 0.08201 0.64995 0.0
C1945 C 0.108 0.04792 0.63129 0.0
C1946 C 0.10637 0.02342 0.63332 0.0
C1947 C 0.09546 1.00429 0.61376 0.0
C1948 C 0.08617 1.01013 0.5919 0.0
C1949 C 0.08746 0.03506 0.58898 0.0
C1950 C 0.09868 0.05416 0.60937 0.0
H1951 H 0.83658 0.38291 0.45259 0.0
H1952 H 0.84548 0.45137 0.42457 0.0
H1953 H 0.85205 0.42971 0.38483 0.0
H1954 H 0.87493 0.35464 0.41727 0.0
H1955 H 0.85653 0.32414 0.41148 0.0
H1956 H 0.85708 0.34575 0.43931 0.0
H1957 H 0.81538 0.34111 0.42901 0.0
H1958 H 0.81471 0.31931 0.40145 0.0
H1959 H 0.80471 0.34653 0.39972 0.0
H1960 H 0.85381 0.40069 0.34765 0.0
H1961 H 0.84441 0.36531 0.3131 0.0
H1962 H 0.83211 0.31451 0.36384 0.0
C1963 C 0.84045 0.39333 0.43818 0.0
C1964 C 0.84087 0.41874 0.44145 0.0
C1965 C 0.84521 0.43185 0.4222 0.0
C1966 C 0.84922 0.41979 0.39977 0.0
C1967 C 0.84854 0.3946 0.39692 0.0
C1968 C 0.8439 0.38138 0.41544 0.0
C1969 C 0.84053 0.35379 0.40631 0.0
C1970 C 0.85834 0.34401 0.41937 0.0
C1971 C 0.81747 0.33936 0.40929 0.0
C1972 C 0.84315 0.35351 0.37953 0.0
C1973 C 0.84852 0.37735 0.37479 0.0
C1974 C 0.84995 0.38196 0.35114 0.0
C1975 C 0.84464 0.36172 0.33163 0.0
C1976 C 0.83766 0.33724 0.33586 0.0
C1977 C 0.83783 0.33303 0.36017 0.0
H1978 H 0.47507 0.98157 0.25564 0.0
H1979 H 0.41261 0.99134 0.22666 0.0
H1980 H 0.41434 0.96638 0.18665 0.0
H1981 H 0.50024 0.99722 0.2129 0.0
H1982 H 0.51769 0.97601 0.21043 0.0
H1983 H 0.5071 0.98304 0.23846 0.0
H1984 H 0.49016 0.9362 0.23621 0.0
H1985 H 0.50067 0.9291 0.20768 0.0
H1986 H 0.4719 0.9182 0.20928 0.0
H1987 H 0.42744 0.95414 0.14851 0.0
H1988 H 0.45151 0.96129 0.11704 0.0
H1989 H 0.50714 0.96151 0.16891 0.0
C1990 C 0.46134 0.97706 0.24109 0.0
C1991 C 0.44358 0.98768 0.24394 0.0
C1992 C 0.42614 0.98278 0.22463 0.0
C1993 C 0.42695 0.96844 0.20196 0.0
C1994 C 0.44548 0.95947 0.19888 0.0
C1995 C 0.46237 0.96342 0.2181 0.0
C1996 C 0.48273 0.95798 0.20881 0.0
C1997 C 0.50308 0.97988 0.21816 0.0
C1998 C 0.48658 0.93393 0.21591 0.0
C1999 C 0.4758 0.9543 0.18138 0.0
C2000 C 0.45378 0.95331 0.17597 0.0
C2001 C 0.44454 0.95428 0.15245 0.0
C2002 C 0.45837 0.95856 0.13468 0.0
C2003 C 0.48125 0.96241 0.14075 0.0
C2004 C 0.48968 0.95822 0.16367 0.0
H2005 H 0.79281 0.7712 0.94208 0.0
H2006 H 0.78783 0.69257 0.91932 0.0
H2007 H 0.79329 0.69907 0.87733 0.0
H2008 H 0.76477 0.78024 0.88566 0.0
H2009 H 0.78259 0.81054 0.88708 0.0
H2010 H 0.77768 0.7992 0.91496 0.0
H2011 H 0.81959 0.80672 0.92708 0.0
H2012 H 0.82433 0.81766 0.89896 0.0
H2013 H 0.83513 0.79239 0.90632 0.0
H2014 H 0.79977 0.71441 0.83728 0.0
H2015 H 0.8073 0.73752 0.80351 0.0
H2016 H 0.80781 0.80588 0.85227 0.0
C2017 C 0.79279 0.7553 0.92829 0.0
C2018 C 0.78982 0.73132 0.93418 0.0
C2019 C 0.79005 0.71113 0.91543 0.0
C2020 C 0.79312 0.71463 0.89144 0.0
C2021 C 0.796 0.73847 0.88628 0.0
C2022 C 0.7959 0.75847 0.90422 0.0
C2023 C 0.79974 0.78228 0.89403 0.0
C2024 C 0.78001 0.79372 0.89551 0.0
C2025 C 0.82096 0.80085 0.90739 0.0
C2026 C 0.80194 0.77257 0.86757 0.0
C2027 C 0.79973 0.74724 0.86341 0.0
C2028 C 0.80146 0.73424 0.8404 0.0
C2029 C 0.80568 0.7475 0.82126 0.0
C2030 C 0.80804 0.77347 0.82516 0.0
C2031 C 0.80604 0.78602 0.84866 0.0
H2032 H 0.86993 0.13539 0.01251 0.0
H2033 H 0.81748 0.07654 0.02605 0.0
H2034 H 0.83944 0.04637 0.01631 0.0
H2035 H 0.88736 0.0986 0.96194 0.0
H2036 H 0.916 0.11343 0.97152 0.0
H2037 H 0.8957 0.13032 0.97822 0.0
H2038 H 0.9112 0.13976 0.02454 0.0
H2039 H 0.93155 0.12298 0.01793 0.0
H2040 H 0.9135 0.11446 0.03989 0.0
H2041 H 0.86726 0.02284 1.00646 0.0
H2042 H 0.90026 1.00794 0.99917 0.0
H2043 H 0.93441 0.08201 0.99207 0.0
C2044 C 0.86301 0.11614 0.01326 0.0
C2045 C 0.84201 0.1083 0.01998 0.0
C2046 C 0.83359 0.08298 0.02099 0.0
C2047 C 0.84586 0.06566 0.01537 0.0
C2048 C 0.8665 0.07399 0.00883 0.0
C2049 C 0.87508 0.09862 1.00784 0.0
C2050 C 0.8981 0.10288 1.00141 0.0
C2051 C 0.89935 0.11183 0.97681 0.0
C2052 C 0.91455 0.12109 0.02218 0.0
C2053 C 0.90117 0.07686 0.9993 0.0
C2054 C 0.88268 0.06042 1.00338 0.0
C2055 C 0.88182 0.03546 1.00306 0.0
C2056 C 0.90055 0.02715 0.99881 0.0
C2057 C 0.91981 0.04385 0.99514 0.0
C2058 C 0.91994 0.0689 0.99505 0.0
H2059 H 0.4007 0.45245 1.00285 0.0
H2060 H 0.39555 0.45985 0.0807 0.0
H2061 H 0.43378 0.48507 0.09041 0.0
H2062 H 0.45734 0.44747 1.00838 0.0
H2063 H 0.46418 0.4648 0.98451 0.0
H2064 H 0.43654 0.44684 0.98358 0.0
H2065 H 0.42221 0.48604 0.98145 0.0
H2066 H 0.44977 0.50407 0.98232 0.0
H2067 H 0.43323 0.51348 1.00479 0.0
H2068 H 0.47201 0.51118 0.0917 0.0
H2069 H 0.50769 0.53565 0.08448 0.0
H2070 H 0.48881 0.51027 1.00589 0.0
C2071 C 0.4076 0.45933 0.02196 0.0
C2072 C 0.395 0.4542 0.04102 0.0
C2073 C 0.40479 0.46347 0.06576 0.0
C2074 C 0.42653 0.47783 0.07147 0.0
C2075 C 0.43844 0.48258 0.05226 0.0
C2076 C 0.42939 0.47349 0.02799 0.0
C2077 C 0.44574 0.48143 0.01083 0.0
C2078 C 0.45127 0.45878 0.99595 0.0
C2079 C 0.43723 0.4972 0.99385 0.0
C2080 C 0.46524 0.49686 0.02922 0.0
C2081 C 0.46067 0.4972 0.05302 0.0
C2082 C 0.47581 0.51088 0.07315 0.0
C2083 C 0.49602 0.52475 0.06887 0.0
C2084 C 0.50104 0.52482 0.04467 0.0
C2085 C 0.4855 0.5104 0.02462 0.0
H2086 H 0.36602 0.62994 0.72495 0.0
H2087 H 0.41254 0.64874 0.79169 0.0
H2088 H 0.40079 0.68766 0.80326 0.0
H2089 H 0.37277 0.69312 0.71325 0.0
H2090 H 0.3443 0.68839 0.70153 0.0
H2091 H 0.35667 0.66254 0.69871 0.0
H2092 H 0.32676 0.63925 0.72088 0.0
H2093 H 0.31458 0.66529 0.72392 0.0
H2094 H 0.32267 0.65367 0.75079 0.0
H2095 H 0.38377 0.72686 0.80708 0.0
H2096 H 0.36339 0.75891 0.80391 0.0
H2097 H 0.32621 0.71489 0.73539 0.0
C2098 C 0.37385 0.6421 0.74212 0.0
C2099 C 0.39056 0.63547 0.75729 0.0
C2100 C 0.3999 0.65262 0.77949 0.0
C2101 C 0.39322 0.67507 0.78624 0.0
C2102 C 0.37686 0.68088 0.77084 0.0
C2103 C 0.36723 0.66466 0.74921 0.0
C2104 C 0.34994 0.67511 0.73583 0.0
C2105 C 0.3563 0.68008 0.71084 0.0
C2106 C 0.32713 0.65726 0.73267 0.0
C2107 C 0.35097 0.6996 0.7533 0.0
C2108 C 0.36686 0.70269 0.77328 0.0
C2109 C 0.37129 0.72419 0.79149 0.0
C2110 C 0.35946 0.7426 0.78947 0.0
C2111 C 0.34267 0.74012 0.76953 0.0
C2112 C 0.33857 0.71787 0.75116 0.0
H2113 H 0.22111 0.63939 0.58239 0.0
H2114 H 0.23915 0.59676 0.5191 0.0
H2115 H 0.20017 0.57716 0.50394 0.0
H2116 H 0.17715 0.59016 0.59161 0.0
H2117 H 0.1603 0.61068 0.60121 0.0
H2118 H 0.18964 0.62187 0.6064 0.0
H2119 H 0.18643 0.65737 0.58295 0.0
H2120 H 0.15708 0.64591 0.57723 0.0
H2121 H 0.17236 0.64987 0.55191 0.0
H2122 H 0.15949 0.56322 0.49502 0.0
H2123 H 0.11982 0.55007 0.49667 0.0
H2124 H 0.12848 0.60021 0.56673 0.0
C2125 C 0.21681 0.6258 0.56544 0.0
C2126 C 0.23302 0.61955 0.5519 0.0
C2127 C 0.22692 0.60161 0.52986 0.0
C2128 C 0.20484 0.59062 0.52095 0.0
C2129 C 0.18921 0.59761 0.53444 0.0
C2130 C 0.19489 0.61436 0.55647 0.0
C2131 C 0.17494 0.61749 0.56813 0.0
C2132 C 0.17555 0.60957 0.59332 0.0
C2133 C 0.17257 0.64426 0.57016 0.0
C2134 C 0.15719 0.59966 0.54933 0.0
C2135 C 0.16573 0.58884 0.52976 0.0
C2136 C 0.15256 0.57152 0.51024 0.0
C2137 C 0.13007 0.56433 0.51124 0.0
C2138 C 0.12127 0.57417 0.53185 0.0
C2139 C 0.1349 0.59246 0.55079 0.0
H2140 H 0.70698 0.95576 0.77315 0.0
H2141 H 0.74491 0.03099 0.77625 0.0
H2142 H 0.77882 0.01885 0.78799 0.0
H2143 H 0.74334 0.94063 0.82334 0.0
H2144 H 0.74024 0.90949 0.80705 0.0
H2145 H 0.71809 0.92439 0.80378 0.0
H2146 H 0.7169 0.91672 0.75674 0.0
H2147 H 0.73881 0.90155 0.7591 0.0
H2148 H 0.74142 0.92758 0.74367 0.0
H2149 H 0.80872 0.99791 0.79333 0.0
H2150 H 0.83253 0.9687 0.78937 0.0
H2151 H 0.7756 0.90691 0.78169 0.0
C2152 C 0.72239 0.96975 0.77707 0.0
C2153 C 0.72343 0.99425 0.77394 0.0
C2154 C 0.74386 1.01205 0.77852 0.0
C2155 C 0.76317 1.00541 0.78543 0.0
C2156 C 0.76177 0.98092 0.78767 0.0
C2157 C 0.74191 0.96331 0.78365 0.0
C2158 C 0.74522 0.93763 0.78389 0.0
C2159 C 0.73618 0.92743 0.80581 0.0
C2160 C 0.73499 0.91984 0.7594 0.0
C2161 C 0.76997 0.94342 0.78717 0.0
C2162 C 0.77922 0.96858 0.79011 0.0
C2163 C 0.80174 0.9782 0.79151 0.0
C2164 C 0.81513 0.96156 0.78923 0.0
C2165 C 0.80577 0.93575 0.78512 0.0
C2166 C 0.78305 0.92666 0.78479 0.0
H2167 H 0.78325 0.95655 0.55623 0.0
H2168 H 0.75604 0.89616 0.49406 0.0
H2169 H 0.72353 0.91205 0.48751 0.0
H2170 H 0.73192 0.95787 0.57878 0.0
H2171 H 0.73805 0.99118 0.58744 0.0
H2172 H 0.75993 0.97566 0.58752 0.0
H2173 H 0.77835 1.00273 0.55827 0.0
H2174 H 0.75658 0.01841 0.55822 0.0
H2175 H 0.7629 1.0036 0.52961 0.0
H2176 H 0.69345 0.93297 0.48764 0.0
H2177 H 0.66761 0.95916 0.49388 0.0
H2178 H 0.71331 1.00736 0.55516 0.0
C2179 C 0.7705 0.94682 0.54117 0.0
C2180 C 0.77234 0.92499 0.52574 0.0
C2181 C 0.75517 0.91279 0.50629 0.0
C2182 C 0.73652 0.92167 0.50233 0.0
C2183 C 0.73506 0.94291 0.51791 0.0
C2184 C 0.75153 0.95548 0.53689 0.0
C2185 C 0.74541 0.97787 0.55084 0.0
C2186 C 0.74373 0.97549 0.57774 0.0
C2187 C 0.76179 1.00209 0.54913 0.0
C2188 C 0.72302 0.97573 0.53668 0.0
C2189 C 0.71747 0.95535 0.5178 0.0
C2190 C 0.69766 0.94915 0.50222 0.0
C2191 C 0.68312 0.96429 0.50583 0.0
C2192 C 0.68839 0.98557 0.52482 0.0
C2193 C 0.70865 0.99119 0.54054 0.0
H2194 H 0.38191 0.49028 0.80279 0.0
H2195 H 0.38813 0.48863 0.72577 0.0
H2196 H 0.36931 0.44377 0.71662 0.0
H2197 H 0.39074 0.4292 0.80534 0.0
H2198 H 0.37118 0.4222 0.82619 0.0
H2199 H 0.38528 0.45394 0.82668 0.0
H2200 H 0.34821 0.4654 0.81987 0.0
H2201 H 0.33402 0.43376 0.81957 0.0
H2202 H 0.32814 0.4483 0.79401 0.0
H2203 H 0.34918 0.39746 0.71603 0.0
H2204 H 0.32848 0.35696 0.7236 0.0
H2205 H 0.33448 0.38845 0.80083 0.0
C2206 C 0.37932 0.48063 0.7839 0.0
C2207 C 0.38673 0.4936 0.76501 0.0
C2208 C 0.38279 0.47966 0.74068 0.0
C2209 C 0.37208 0.45394 0.73532 0.0
C2210 C 0.36519 0.44184 0.75439 0.0
C2211 C 0.36859 0.45489 0.77823 0.0
C2212 C 0.35935 0.43773 0.79543 0.0
C2213 C 0.37773 0.43566 0.81455 0.0
C2214 C 0.34136 0.44684 0.80796 0.0
C2215 C 0.3499 0.413 0.77765 0.0
C2216 C 0.35368 0.41568 0.75406 0.0
C2217 C 0.34636 0.39539 0.73452 0.0
C2218 C 0.33469 0.37223 0.73901 0.0
C2219 C 0.3302 0.36897 0.7629 0.0
C2220 C 0.33805 0.38989 0.78244 0.0
H2221 H 0.2372 0.61379 0.21012 0.0
H2222 H 0.24043 0.60059 0.28482 0.0
H2223 H 0.26385 0.64283 0.29981 0.0
H2224 H 0.2938 0.65707 0.21717 0.0
H2225 H 0.28401 0.67639 0.19814 0.0
H2226 H 0.2715 0.64353 0.19254 0.0
H2227 H 0.23364 0.65273 0.19626 0.0
H2228 H 0.246 0.68552 0.20221 0.0
H2229 H 0.22988 0.67206 0.2238 0.0
H2230 H 0.28137 0.68734 0.30754 0.0
H2231 H 0.29323 0.73201 0.30771 0.0
H2232 H 0.27833 0.71752 0.22807 0.0
C2233 C 0.2436 0.61956 0.22947 0.0
C2234 C 0.23731 0.60404 0.24635 0.0
C2235 C 0.24524 0.61231 0.27166 0.0
C2236 C 0.25861 0.63618 0.28032 0.0
C2237 C 0.26382 0.65148 0.26339 0.0
C2238 C 0.25675 0.64354 0.23847 0.0
C2239 C 0.26245 0.66471 0.22468 0.0
C2240 C 0.27893 0.66015 0.20709 0.0
C2241 C 0.24176 0.669 0.21095 0.0
C2242 C 0.27288 0.68591 0.2459 0.0
C2243 C 0.27383 0.67772 0.26797 0.0
C2244 C 0.28115 0.69397 0.29036 0.0
C2245 C 0.28768 0.71934 0.29025 0.0
C2246 C 0.28673 0.72823 0.26787 0.0
C2247 C 0.27947 0.71123 0.24542 0.0
H2248 H 0.56186 0.72477 0.46674 0.0
H2249 H 0.49178 0.70863 0.44406 0.0
H2250 H 0.48709 0.66902 0.45912 0.0
H2251 H 0.56766 0.66347 0.44972 0.0
H2252 H 0.58786 0.66558 0.47563 0.0
H2253 H 0.58558 0.69312 0.46419 0.0
H2254 H 0.58026 0.7138 0.50741 0.0
H2255 H 0.58259 0.68632 0.51901 0.0
H2256 H 0.5588 0.69824 0.52256 0.0
H2257 H 0.49039 0.62968 0.47466 0.0
H2258 H 0.50109 0.59499 0.49036 0.0
H2259 H 0.56903 0.63702 0.50385 0.0
C2260 C 0.54546 0.71306 0.46512 0.0
C2261 C 0.52716 0.72001 0.45416 0.0
C2262 C 0.50606 0.70394 0.45243 0.0
C2263 C 0.50324 0.68132 0.46092 0.0
C2264 C 0.52165 0.67496 0.47134 0.0
C2265 C 0.54234 0.69049 0.47365 0.0
C2266 C 0.55948 0.67917 0.4852 0.0
C2267 C 0.57612 0.67509 0.46763 0.0
C2268 C 0.57096 0.69535 0.51002 0.0
C2269 C 0.5453 0.65464 0.48866 0.0
C2270 C 0.52351 0.65258 0.48058 0.0
C2271 C 0.5074 0.63126 0.48119 0.0
C2272 C 0.51368 0.61156 0.49014 0.0
C2273 C 0.53593 0.61314 0.49854 0.0
C2274 C 0.55186 0.63519 0.49788 0.0
H2275 H 0.66627 0.28788 0.67418 0.0
H2276 H 0.67087 0.36625 0.67679 0.0
H2277 H 0.70841 0.3763 0.69939 0.0
H2278 H 0.69483 0.29352 0.73409 0.0
H2279 H 0.70852 0.26945 0.72522 0.0
H2280 H 0.68239 0.26849 0.70864 0.0
H2281 H 0.69909 0.26645 0.66799 0.0
H2282 H 0.72529 0.26749 0.68452 0.0
H2283 H 0.72291 0.29011 0.6656 0.0
H2284 H 0.74508 0.37785 0.72359 0.0
H2285 H 0.77762 0.37082 0.747 0.0
H2286 H 0.74972 0.29138 0.72767 0.0
C2287 C 0.67515 0.3072 0.67939 0.0
C2288 C 0.66544 0.3263 0.67365 0.0
C2289 C 0.67781 0.35127 0.68088 0.0
C2290 C 0.6992 0.35715 0.69373 0.0
C2291 C 0.70819 0.33787 0.69914 0.0
C2292 C 0.69657 0.31337 0.6921 0.0
C2293 C 0.70984 0.29613 0.70047 0.0
C2294 C 0.6982 0.28101 0.71816 0.0
C2295 C 0.71456 0.27904 0.67832 0.0
C2296 C 0.73066 0.31475 0.71366 0.0
C2297 C 0.72939 0.33873 0.71264 0.0
C2298 C 0.74627 0.35913 0.7243 0.0
C2299 C 0.76471 0.35496 0.73757 0.0
C2300 C 0.76633 0.33059 0.73908 0.0
C2301 C 0.74914 0.31023 0.72662 0.0
H2302 H 0.04423 0.35622 0.94717 0.0
H2303 H 0.98611 0.32819 0.97947 0.0
H2304 H 0.98878 0.37035 1.00193 0.0
H2305 H 0.07306 0.40261 1.00177 0.0
H2306 H 0.08446 0.42512 0.98392 0.0
H2307 H 0.07885 0.39244 0.97131 0.0
H2308 H 0.05474 0.3985 0.93357 0.0
H2309 H 0.06027 0.43115 0.94606 0.0
H2310 H 0.03239 0.41277 0.93824 0.0
H2311 H 0.99567 0.41573 0.01818 0.0
H2312 H 1.00728 0.46147 0.02841 0.0
H2313 H 0.06192 0.46066 0.98743 0.0
C2314 C 0.03221 0.3589 0.95918 0.0
C2315 C 0.01494 0.33878 0.96151 0.0
C2316 C 0.99951 0.34319 0.97736 0.0
C2317 C 1.00089 0.36711 0.99025 0.0
C2318 C 0.01792 0.38653 0.98735 0.0
C2319 C 0.03344 0.38273 0.9724 0.0
C2320 C 0.04972 0.40705 0.97207 0.0
C2321 C 0.0729 0.40678 0.98292 0.0
C2322 C 0.04924 0.4127 0.94593 0.0
C2323 C 0.04063 0.42513 0.98876 0.0
C2324 C 0.02228 0.41283 0.99736 0.0
C2325 C 0.01019 0.42554 0.01184 0.0
C2326 C 0.01687 0.45153 0.0175 0.0
C2327 C 0.03559 0.46459 0.00892 0.0
C2328 C 0.04779 0.45113 0.99465 0.0
H2329 H 0.02651 0.7749 0.16794 0.0
H2330 H 0.05395 0.85383 0.17323 0.0
H2331 H 0.02298 0.8627 0.19357 0.0
H2332 H 0.97002 0.77626 0.15481 0.0
H2333 H 0.96012 0.75301 0.17253 0.0
H2334 H 0.98455 0.75282 0.15858 0.0
H2335 H 1.00616 0.75439 0.20102 0.0
H2336 H 0.98179 0.75451 0.21508 0.0
H2337 H 1.00635 0.77885 0.2263 0.0
H2338 H 0.98868 0.86302 0.21335 0.0
H2339 H 0.95455 0.85473 0.23192 0.0
H2340 H 0.94911 0.77561 0.21311 0.0
C2341 C 0.02611 0.79408 0.17347 0.0
C2342 C 0.04281 0.81366 0.16899 0.0
C2343 C 0.04146 0.83847 0.17643 0.0
C2344 C 0.02387 0.84371 0.188 0.0
C2345 C 1.00764 0.82398 0.19198 0.0
C2346 C 1.00862 0.79965 0.18497 0.0
C2347 C 0.98901 0.78185 0.19128 0.0
C2348 C 0.97511 0.76499 0.16791 0.0
C2349 C 0.99627 0.7665 0.20951 0.0
C2350 C 0.97698 0.79995 0.20316 0.0
C2351 C 0.98792 0.82417 0.20327 0.0
C2352 C 0.97995 0.84411 0.21329 0.0
C2353 C 0.96043 0.8392 0.22367 0.0
C2354 C 0.94901 0.81452 0.22406 0.0
C2355 C 0.95747 0.79472 0.21344 0.0
H2356 H 0.53578 0.34634 0.14758 0.0
H2357 H 0.52174 0.27748 0.09426 0.0
H2358 H 0.52939 0.30121 0.06132 0.0
H2359 H 0.51044 0.3794 0.11 0.0
H2360 H 0.53034 0.40868 0.12059 0.0
H2361 H 0.52558 0.3864 0.1405 0.0
H2362 H 0.56684 0.38725 0.14588 0.0
H2363 H 0.57172 0.4096 0.126 0.0
H2364 H 0.57993 0.38098 0.11909 0.0
H2365 H 0.53583 0.33195 0.0338 0.0
H2366 H 0.5405 0.36797 0.01328 0.0
H2367 H 0.55145 0.41715 0.08433 0.0
C2368 C 0.53459 0.33625 0.12903 0.0
C2369 C 0.52818 0.31005 0.12352 0.0
C2370 C 0.5266 0.29755 0.09895 0.0
C2371 C 0.53098 0.31085 0.0801 0.0
C2372 C 0.53701 0.33663 0.08609 0.0
C2373 C 0.53889 0.34925 0.10994 0.0
C2374 C 0.54458 0.37706 0.11114 0.0
C2375 C 0.52666 0.38855 0.12114 0.0
C2376 C 0.56711 0.38945 0.12643 0.0
C2377 C 0.54512 0.37801 0.08418 0.0
C2378 C 0.54089 0.35449 0.07011 0.0
C2379 C 0.5395 0.35051 0.04463 0.0
C2380 C 0.54231 0.37113 0.03315 0.0
C2381 C 0.54649 0.39547 0.04715 0.0
C2382 C 0.54815 0.39883 0.07305 0.0
H2383 H 0.02583 0.29104 0.30371 0.0
H2384 H 0.06634 0.36505 0.30641 0.0
H2385 H 0.0363 0.37489 0.28153 0.0
H2386 H 0.99455 0.283 0.24068 0.0
H2387 H 0.96958 0.26726 0.25022 0.0
H2388 H 0.99559 0.26435 0.264 0.0
H2389 H 0.98628 0.27965 0.30717 0.0
H2390 H 0.9604 0.28276 0.29357 0.0
H2391 H 0.97924 0.30903 0.31347 0.0
H2392 H 1.00062 0.37903 0.26264 0.0
H2393 H 0.96164 0.37718 0.25126 0.0
H2394 H 0.94435 0.30021 0.25978 0.0
C2395 C 0.02862 0.309 0.29833 0.0
C2396 C 0.04839 0.32722 0.30679 0.0
C2397 C 0.05128 0.35079 0.30001 0.0
C2398 C 0.03437 0.35651 0.28578 0.0
C2399 C 0.01479 0.33841 0.27837 0.0
C2400 C 0.01185 0.31507 0.28427 0.0
C2401 C 0.98842 0.30006 0.27671 0.0
C2402 C 0.98696 0.27732 0.2567 0.0
C2403 C 0.97799 0.29245 0.29906 0.0
C2404 C 0.97849 0.31897 0.26658 0.0
C2405 C 0.99402 0.34083 0.26733 0.0
C2406 C 0.98837 0.36181 0.2613 0.0
C2407 C 0.96619 0.36056 0.25477 0.0
C2408 C 0.94999 0.33851 0.25449 0.0
C2409 C 0.95638 0.31731 0.25981 0.0
H2410 H 0.9864 0.67638 0.60417 0.0
H2411 H 0.04544 0.70385 0.65749 0.0
H2412 H 0.05912 0.66831 0.64037 0.0
H2413 H 0.9815 0.61038 0.60386 0.0
H2414 H 0.9723 0.60126 0.57129 0.0
H2415 H 0.96629 0.62828 0.58842 0.0
H2416 H 0.98466 0.65506 0.55888 0.0
H2417 H 0.99068 0.62814 0.54166 0.0
H2418 H 0.01244 0.65545 0.5541 0.0
H2419 H 0.06751 0.63162 0.61683 0.0
H2420 H 0.07032 0.59535 0.58728 0.0
H2421 H 1.00589 0.59051 0.54925 0.0
C2422 C 1.00212 0.6748 0.61233 0.0
C2423 C 0.01482 0.69291 0.63218 0.0
C2424 C 0.03539 0.69026 0.64226 0.0
C2425 C 0.04331 0.67008 0.63274 0.0
C2426 C 0.03047 0.65264 0.61317 0.0
C2427 C 0.01033 0.65469 0.60302 0.0
C2428 C 1.00031 0.63368 0.58143 0.0
C2429 C 0.97883 0.61744 0.58657 0.0
C2430 C 0.99683 0.64369 0.55761 0.0
C2431 C 0.01817 0.61984 0.5809 0.0
C2432 C 0.03532 0.63107 0.59951 0.0
C2433 C 0.05411 0.62243 0.60233 0.0
C2434 C 0.05553 0.60181 0.58552 0.0
C2435 C 0.03824 0.59008 0.56623 0.0
C2436 C 0.01924 0.59906 0.56402 0.0
H2437 H 0.68725 0.82097 0.86728 0.0
H2438 H 0.66859 0.87697 0.83079 0.0
H2439 H 0.69833 0.87588 0.80524 0.0
H2440 H 0.74643 0.83996 0.86632 0.0
H2441 H 0.74854 0.80832 0.85969 0.0
H2442 H 0.72794 0.81606 0.87737 0.0
H2443 H 0.69792 0.78328 0.84648 0.0
H2444 H 0.71844 0.77542 0.82884 0.0
H2445 H 0.69583 0.78479 0.81427 0.0
H2446 H 0.72923 0.86677 0.78233 0.0
H2447 H 0.75722 0.84891 0.7629 0.0
H2448 H 0.75248 0.79694 0.81285 0.0
C2449 C 0.68976 0.83344 0.85434 0.0
C2450 C 0.67592 0.84924 0.85112 0.0
C2451 C 0.67921 0.8648 0.83352 0.0
C2452 C 0.69606 0.86438 0.81905 0.0
C2453 C 0.70919 0.84813 0.82233 0.0
C2454 C 0.70611 0.83288 0.83949 0.0
C2455 C 0.72083 0.81534 0.83792 0.0
C2456 C 0.73689 0.82025 0.86177 0.0
C2457 C 0.70745 0.78811 0.83148 0.0
C2458 C 0.7325 0.82283 0.817 0.0
C2459 C 0.72596 0.84206 0.80845 0.0
C2460 C 0.7346 0.85184 0.78899 0.0
C2461 C 0.75034 0.84159 0.77803 0.0
C2462 C 0.75655 0.82139 0.78622 0.0
C2463 C 0.74765 0.81212 0.806 0.0
H2464 H 0.50051 0.60011 0.69752 0.0
H2465 H 0.44123 0.54102 0.67593 0.0
H2466 H 0.45291 0.53045 0.63499 0.0
H2467 H 0.50297 0.61923 0.63837 0.0
H2468 H 0.53241 0.62603 0.64144 0.0
H2469 H 0.51899 0.62868 0.66844 0.0
H2470 H 0.53893 0.59848 0.6856 0.0
H2471 H 0.55244 0.59579 0.65869 0.0
H2472 H 0.53662 0.56835 0.66727 0.0
H2473 H 0.47316 0.52652 0.59377 0.0
H2474 H 0.49812 0.52949 0.56185 0.0
H2475 H 0.54373 0.59103 0.61124 0.0
C2476 C 0.48978 0.58488 0.68431 0.0
C2477 C 0.46964 0.57154 0.69071 0.0
C2478 C 0.4566 0.55178 0.67218 0.0
C2479 C 0.46323 0.54562 0.64859 0.0
C2480 C 0.48316 0.55921 0.64305 0.0
C2481 C 0.49618 0.57851 0.6607 0.0
C2482 C 0.51694 0.59042 0.65079 0.0
C2483 C 0.51788 0.61771 0.6497 0.0
C2484 C 0.53745 0.58812 0.66653 0.0
C2485 C 0.51396 0.57488 0.62491 0.0
C2486 C 0.49433 0.55697 0.62046 0.0
C2487 C 0.48845 0.54064 0.59748 0.0
C2488 C 0.5028 0.54252 0.57913 0.0
C2489 C 0.52319 0.5606 0.58335 0.0
C2490 C 0.52842 0.57692 0.60684 0.0
H2491 H 0.76359 0.21269 1.00017 0.0
H2492 H 0.77782 0.14669 0.96077 0.0
H2493 H 0.77681 0.16371 0.92262 0.0
H2494 H 0.72891 0.22624 0.948 0.0
H2495 H 0.74062 0.2592 0.95695 0.0
H2496 H 0.73809 0.23996 0.97995 0.0
H2497 H 0.77965 0.25636 0.9954 0.0
H2498 H 0.78229 0.2756 0.97255 0.0
H2499 H 0.79891 0.25373 0.97397 0.0
H2500 H 0.77772 0.18899 0.89016 0.0
H2501 H 0.7842 0.22248 0.86627 0.0
H2502 H 0.7725 0.27367 0.92757 0.0
C2503 C 0.76584 0.20162 0.98329 0.0
C2504 C 0.7705 0.17833 0.98313 0.0
C2505 C 0.77414 0.16456 0.96107 0.0
C2506 C 0.77341 0.17397 0.93933 0.0
C2507 C 0.76923 0.19725 0.94011 0.0
C2508 C 0.76567 0.21102 0.96154 0.0
C2509 C 0.76459 0.23685 0.95818 0.0
C2510 C 0.74168 0.24079 0.96093 0.0
C2511 C 0.78243 0.2568 0.97608 0.0
C2512 C 0.769 0.23577 0.93185 0.0
C2513 C 0.77097 0.21252 0.92159 0.0
C2514 C 0.77613 0.20725 0.89793 0.0
C2515 C 0.78 0.22646 0.88462 0.0
C2516 C 0.77916 0.25077 0.8952 0.0
C2517 C 0.77301 0.25524 0.91889 0.0
H2518 H 0.16092 0.57712 0.16452 0.0
H2519 H 0.14497 0.50109 0.17603 0.0
H2520 H 0.11834 0.4889 0.13814 0.0
H2521 H 0.10939 0.58031 0.14687 0.0
H2522 H 0.1155 0.59881 0.12371 0.0
H2523 H 0.13622 0.60066 0.14884 0.0
H2524 H 0.16176 0.59014 0.11816 0.0
H2525 H 0.14124 0.5866 0.09212 0.0
H2526 H 0.15382 0.56158 0.09606 0.0
H2527 H 0.08795 0.48721 0.10561 0.0
H2528 H 0.05905 0.49511 0.07694 0.0
H2529 H 0.09642 0.57117 0.0842 0.0
C2530 C 0.15233 0.55776 0.15863 0.0
C2531 C 0.1549 0.54008 0.1732 0.0
C2532 C 0.1433 0.51494 0.16506 0.0
C2533 C 0.12814 0.50782 0.14355 0.0
C2534 C 0.12521 0.52596 0.13019 0.0
C2535 C 0.13735 0.55032 0.13709 0.0
C2536 C 0.12973 0.56666 0.12086 0.0
C2537 C 0.12226 0.58783 0.13598 0.0
C2538 C 0.14768 0.57683 0.10588 0.0
C2539 C 0.1106 0.54797 0.10467 0.0
C2540 C 0.10829 0.52457 0.11029 0.0
C2541 C 0.08996 0.50518 0.10041 0.0
C2542 C 0.07356 0.50987 0.08443 0.0
C2543 C 0.07583 0.53362 0.07841 0.0
C2544 C 0.09472 0.5527 0.0882 0.0
H2545 H 0.85745 0.8448 0.46309 0.0
H2546 H 0.80088 0.87445 0.47385 0.0
H2547 H 0.78729 0.86131 0.42981 0.0
H2548 H 0.86595 0.86275 0.40588 0.0
H2549 H 0.87311 0.83495 0.39227 0.0
H2550 H 0.87815 0.8452 0.42511 0.0
H2551 H 0.8554 0.80256 0.43076 0.0
H2552 H 0.85038 0.79212 0.3979 0.0
H2553 H 0.82773 0.79081 0.41523 0.0
H2554 H 0.7801 0.8467 0.38485 0.0
H2555 H 0.77954 0.83122 0.341 0.0
H2556 H 0.84075 0.81088 0.3574 0.0
C2557 C 0.84209 0.84827 0.45622 0.0
C2558 C 0.83024 0.86064 0.47221 0.0
C2559 C 0.81026 0.86491 0.46229 0.0
C2560 C 0.80237 0.85753 0.43717 0.0
C2561 C 0.81449 0.84569 0.42196 0.0
C2562 C 0.83384 0.8409 0.431 0.0
C2563 C 0.8437 0.8282 0.41026 0.0
C2564 C 0.86659 0.84371 0.40827 0.0
C2565 C 0.84434 0.80186 0.41375 0.0
C2566 C 0.82721 0.82741 0.38817 0.0
C2567 C 0.81037 0.83733 0.39555 0.0
C2568 C 0.79312 0.83876 0.37883 0.0
C2569 C 0.79296 0.82981 0.35386 0.0
C2570 C 0.81005 0.81967 0.34554 0.0
C2571 C 0.82745 0.81852 0.36306 0.0
H2572 H 0.46848 0.52506 0.83259 0.0
H2573 H 0.47459 0.60382 0.83695 0.0
H2574 H 0.49495 0.61182 0.87911 0.0
H2575 H 0.46027 0.52318 0.8957 0.0
H2576 H 0.47568 0.50043 0.8989 0.0
H2577 H 0.46204 0.50113 0.86916 0.0
H2578 H 0.49866 0.50517 0.85157 0.0
H2579 H 0.51241 0.50447 0.88125 0.0
H2580 H 0.52201 0.52998 0.86605 0.0
H2581 H 0.51548 0.6109 0.92254 0.0
H2582 H 0.5325 0.60149 0.96062 0.0
H2583 H 0.5128 0.52304 0.92863 0.0
C2584 C 0.47411 0.54411 0.84224 0.0
C2585 C 0.4697 0.56382 0.83074 0.0
C2586 C 0.47753 0.58828 0.84472 0.0
C2587 C 0.48921 0.59298 0.86891 0.0
C2588 C 0.49318 0.57313 0.87954 0.0
C2589 C 0.48576 0.54912 0.86649 0.0
C2590 C 0.4919 0.5309 0.882 0.0
C2591 C 0.47124 0.51284 0.88671 0.0
C2592 C 0.50715 0.5168 0.86947 0.0
C2593 C 0.50393 0.54823 0.9059 0.0
C2594 C 0.50456 0.57257 0.9041 0.0
C2595 C 0.5149 0.59183 0.92385 0.0
C2596 C 0.52464 0.58623 0.94566 0.0
C2597 C 0.52426 0.56144 0.9483 0.0
C2598 C 0.5136 0.54226 0.92774 0.0
H2599 H 0.79902 0.23661 0.09154 0.0
H2600 H 0.78754 0.16433 0.11266 0.0
H2601 H 0.77674 0.1818 0.15149 0.0
H2602 H 0.82369 0.27057 0.15003 0.0
H2603 H 0.81223 0.29668 0.14763 0.0
H2604 H 0.81655 0.27768 0.12033 0.0
H2605 H 0.77557 0.27029 0.10301 0.0
H2606 H 0.77108 0.2888 0.13068 0.0
H2607 H 0.75479 0.25739 0.12046 0.0
H2608 H 0.76963 0.20694 0.18888 0.0
H2609 H 0.77297 0.23964 0.22521 0.0
H2610 H 0.78894 0.29581 0.18051 0.0
C2611 C 0.79412 0.22446 0.10429 0.0
C2612 C 0.79407 0.19912 0.09899 0.0
C2613 C 0.78781 0.18386 0.11629 0.0
C2614 C 0.78132 0.19351 0.13829 0.0
C2615 C 0.78119 0.21844 0.14278 0.0
C2616 C 0.78775 0.23384 0.1265 0.0
C2617 C 0.78839 0.2605 0.13703 0.0
C2618 C 0.81159 0.27734 0.13888 0.0
C2619 C 0.77144 0.26978 0.12189 0.0
C2620 C 0.78202 0.25777 0.16214 0.0
C2621 C 0.77732 0.23322 0.16478 0.0
C2622 C 0.77297 0.2262 0.187 0.0
C2623 C 0.77479 0.24487 0.2075 0.0
C2624 C 0.78118 0.27015 0.20559 0.0
C2625 C 0.78366 0.2766 0.18238 0.0
H2626 H 0.16203 0.59344 0.32892 0.0
H2627 H 0.11654 0.55166 0.26462 0.0
H2628 H 0.08584 0.5515 0.28853 0.0
H2629 H 0.13986 0.56068 0.36917 0.0
H2630 H 0.14378 0.58597 0.39483 0.0
H2631 H 0.16149 0.5884 0.37163 0.0
H2632 H 0.15164 0.62896 0.36407 0.0
H2633 H 0.13397 0.62681 0.38751 0.0
H2634 H 0.12334 0.62921 0.35701 0.0
H2635 H 0.06151 0.54866 0.32053 0.0
H2636 H 0.04537 0.54306 0.35827 0.0
H2637 H 0.10627 0.58719 0.40215 0.0
C2638 C 0.14553 0.58506 0.31965 0.0
C2639 C 0.14164 0.57262 0.29494 0.0
C2640 C 0.11988 0.56133 0.28356 0.0
C2641 C 0.10231 0.56129 0.29694 0.0
C2642 C 0.10678 0.57281 0.3216 0.0
C2643 C 0.12784 0.58473 0.33281 0.0
C2644 C 0.12861 0.59268 0.36023 0.0
C2645 C 0.14435 0.58123 0.3748 0.0
C2646 C 0.13475 0.62111 0.36763 0.0
C2647 C 0.10501 0.58184 0.36289 0.0
C2648 C 0.09256 0.57108 0.34032 0.0
C2649 C 0.07089 0.55762 0.33827 0.0
C2650 C 0.06184 0.55459 0.35985 0.0
C2651 C 0.07453 0.56479 0.38319 0.0
C2652 C 0.09617 0.57919 0.38459 0.0
H2653 H 0.83378 0.86996 0.6187 0.0
H2654 H 0.76887 0.84107 0.5765 0.0
H2655 H 0.75636 0.82031 0.60972 0.0
H2656 H 0.83486 0.81517 0.64376 0.0
H2657 H 0.84879 0.83145 0.6737 0.0
H2658 H 0.85301 0.84562 0.64721 0.0
H2659 H 0.84133 0.8839 0.66856 0.0
H2660 H 0.83696 0.86972 0.69505 0.0
H2661 H 0.81516 0.87966 0.67956 0.0
H2662 H 0.75044 0.80111 0.64566 0.0
H2663 H 0.75189 0.78278 0.68275 0.0
H2664 H 0.82004 0.82281 0.70395 0.0
C2665 C 0.81694 0.85936 0.61655 0.0
C2666 C 0.80237 0.85728 0.59474 0.0
C2667 C 0.78047 0.84306 0.59276 0.0
C2668 C 0.7731 0.8312 0.61167 0.0
C2669 C 0.78769 0.83355 0.63276 0.0
C2670 C 0.80918 0.84715 0.63547 0.0
C2671 C 0.8214 0.84555 0.65998 0.0
C2672 C 0.84066 0.83374 0.65591 0.0
C2673 C 0.82918 0.87124 0.67678 0.0
C2674 C 0.80348 0.82859 0.67018 0.0
C2675 C 0.78418 0.82222 0.65408 0.0
C2676 C 0.76541 0.80611 0.65851 0.0
C2677 C 0.7664 0.79577 0.67968 0.0
C2678 C 0.78595 0.80154 0.69643 0.0
C2679 C 0.80472 0.81851 0.6918 0.0
H2680 H 0.7399 0.47071 0.50928 0.0
H2681 H 0.79558 0.53044 0.50465 0.0
H2682 H 0.77375 0.56084 0.5141 0.0
H2683 H 0.69887 0.49596 0.48093 0.0
H2684 H 0.67904 0.48559 0.5005 0.0
H2685 H 0.69918 0.46856 0.49362 0.0
H2686 H 0.71173 0.47304 0.54023 0.0
H2687 H 0.69169 0.4902 0.54722 0.0
H2688 H 0.72015 0.50352 0.55934 0.0
H2689 H 0.74615 0.58483 0.52481 0.0
H2690 H 0.71357 0.60032 0.53325 0.0
H2691 H 0.6762 0.52484 0.53024 0.0
C2692 C 0.74749 0.49016 0.51016 0.0
C2693 C 0.76941 0.49822 0.50623 0.0
C2694 C 0.77875 0.52384 0.50751 0.0
C2695 C 0.76654 0.54127 0.51297 0.0
C2696 C 0.74503 0.53274 0.51698 0.0
C2697 C 0.73552 0.50779 0.51545 0.0
C2698 C 0.71199 0.50345 0.52011 0.0
C2699 C 0.69635 0.48745 0.49744 0.0
C2700 C 0.70871 0.49187 0.5431 0.0
C2701 C 0.70977 0.52985 0.52436 0.0
C2702 C 0.72904 0.54651 0.52271 0.0
C2703 C 0.73093 0.57198 0.52608 0.0
C2704 C 0.71245 0.58061 0.53095 0.0
C2705 C 0.69247 0.56371 0.53213 0.0
C2706 C 0.69124 0.53809 0.52905 0.0
H2707 H 0.21053 0.1496 0.53842 0.0
H2708 H 0.22273 0.13261 0.46301 0.0
H2709 H 0.18532 0.10533 0.4517 0.0
H2710 H 0.17896 0.08851 0.54091 0.0
H2711 H 0.16028 0.09951 0.55964 0.0
H2712 H 0.18786 0.11801 0.56171 0.0
H2713 H 0.1729 0.15498 0.55199 0.0
H2714 H 0.14527 0.13653 0.54975 0.0
H2715 H 0.15388 0.15081 0.52445 0.0
H2716 H 0.14649 0.07958 0.44856 0.0
H2717 H 0.1098 0.05627 0.45409 0.0
H2718 H 0.12252 0.08972 0.53153 0.0
C2719 C 0.20538 0.14017 0.5195 0.0
C2720 C 0.21972 0.14335 0.5016 0.0
C2721 C 0.21219 0.13054 0.47709 0.0
C2722 C 0.1909 0.11502 0.47047 0.0
C2723 C 0.17721 0.1124 0.48853 0.0
C2724 C 0.18416 0.12456 0.51257 0.0
C2725 C 0.16631 0.11823 0.52852 0.0
C2726 C 0.17381 0.10529 0.5489 0.0
C2727 C 0.15917 0.14153 0.53931 0.0
C2728 C 0.14825 0.10051 0.50973 0.0
C2729 C 0.15487 0.0975 0.48675 0.0
C2730 C 0.14117 0.08183 0.46648 0.0
C2731 C 0.12032 0.06866 0.4698 0.0
C2732 C 0.11325 0.07111 0.49322 0.0
C2733 C 0.1274 0.0875 0.51338 0.0
H2734 H 0.19194 0.92194 0.75743 0.0
H2735 H 0.24242 0.98826 0.79092 0.0
H2736 H 0.26907 0.96243 0.79429 0.0
H2737 H 0.21016 0.87995 0.79419 0.0
H2738 H 0.20329 0.85378 0.76903 0.0
H2739 H 0.18851 0.87759 0.76974 0.0
H2740 H 0.19817 0.8834 0.72666 0.0
H2741 H 0.21335 0.85999 0.72633 0.0
H2742 H 0.22648 0.89059 0.72189 0.0
H2743 H 0.29096 0.92831 0.79439 0.0
H2744 H 0.30568 0.89147 0.79081 0.0
H2745 H 0.24183 0.8453 0.75667 0.0
C2746 C 0.20862 0.93125 0.76551 0.0
C2747 C 0.21465 0.95783 0.7739 0.0
C2748 C 0.23689 0.96843 0.78425 0.0
C2749 C 0.25228 0.95366 0.78626 0.0
C2750 C 0.24572 0.92778 0.77787 0.0
C2751 C 0.22431 0.91665 0.76761 0.0
C2752 C 0.2215 0.88838 0.7599 0.0
C2753 C 0.20488 0.87407 0.77405 0.0
C2754 C 0.21445 0.8801 0.73204 0.0
C2755 C 0.24463 0.88518 0.7673 0.0
C2756 C 0.25825 0.90828 0.77771 0.0
C2757 C 0.28025 0.91035 0.78616 0.0
C2758 C 0.28856 0.88888 0.78397 0.0
C2759 C 0.27541 0.86461 0.77329 0.0
C2760 C 0.25281 0.86311 0.76487 0.0
H2761 H 0.38805 1.00481 0.03977 0.0
H2762 H 0.37039 0.98127 0.96069 0.0
H2763 H 0.40838 0.97934 0.95691 0.0
H2764 H 0.44371 0.04261 0.03814 0.0
H2765 H 0.45464 0.03378 0.06552 0.0
H2766 H 0.42655 0.03553 0.0613 0.0
H2767 H 0.41457 0.99004 0.06776 0.0
H2768 H 0.44258 0.98792 0.07097 0.0
H2769 H 0.42242 0.96591 0.048 0.0
H2770 H 0.44698 0.97602 0.96203 0.0
H2771 H 0.4862 0.9802 0.97473 0.0
H2772 H 0.47834 1.00535 0.05051 0.0
C2773 C 0.39227 0.99997 0.02157 0.0
C2774 C 0.37623 0.99303 1.00054 0.0
C2775 C 0.38242 0.98662 0.97707 0.0
C2776 C 0.40389 0.98523 0.97474 0.0
C2777 C 0.41891 0.99053 0.99603 0.0
C2778 C 0.41359 0.99844 0.01891 0.0
C2779 C 0.43282 1.00289 0.03887 0.0
C2780 C 0.43985 0.03033 0.0517 0.0
C2781 C 0.42778 0.98566 0.05749 0.0
C2782 C 0.44969 0.99601 0.02358 0.0
C2783 C 0.44127 0.98871 0.99897 0.0
C2784 C 0.45385 0.98189 0.98123 0.0
C2785 C 0.47606 0.98409 0.98867 0.0
C2786 C 0.48534 0.99325 0.01358 0.0
C2787 C 0.47173 0.99816 0.03135 0.0
H2788 H 0.8723 0.57618 0.77493 0.0
H2789 H 0.88539 0.59497 0.85453 0.0
H2790 H 0.85259 0.61161 0.8551 0.0
H2791 H 0.85991 0.63007 0.76723 0.0
H2792 H 0.83901 0.61696 0.74107 0.0
H2793 H 0.86042 0.6018 0.74715 0.0
H2794 H 0.83153 0.5612 0.74791 0.0
H2795 H 0.80993 0.57625 0.74171 0.0
H2796 H 0.8111 0.56171 0.76819 0.0
H2797 H 0.82251 0.63245 0.84661 0.0
H2798 H 0.79856 0.65653 0.82978 0.0
H2799 H 0.80487 0.6234 0.75583 0.0
C2800 C 0.86788 0.58301 0.79256 0.0
C2801 C 0.88128 0.58414 0.8147 0.0
C2802 C 0.87526 0.59382 0.83734 0.0
C2803 C 0.85661 0.60319 0.83785 0.0
C2804 C 0.84415 0.60258 0.81558 0.0
C2805 C 0.84951 0.5926 0.79335 0.0
C2806 C 0.83545 0.59716 0.7719 0.0
C2807 C 0.84954 0.6124 0.75592 0.0
C2808 C 0.82114 0.57261 0.75653 0.0
C2809 C 0.82182 0.61201 0.7855 0.0
C2810 C 0.82679 0.61466 0.81067 0.0
C2811 C 0.81804 0.62998 0.82695 0.0
C2812 C 0.80438 0.64351 0.81724 0.0
C2813 C 0.79981 0.6417 0.79152 0.0
C2814 C 0.80803 0.62504 0.77558 0.0
H2815 H 0.85681 0.6739 0.04309 0.0
H2816 H 0.81815 0.63512 0.97324 0.0
H2817 H 0.84519 0.61035 0.96635 0.0
H2818 H 0.90969 0.67694 0.02377 0.0
H2819 H 0.92207 0.67188 0.05243 0.0
H2820 H 0.89969 0.6866 0.05199 0.0
H2821 H 0.87797 0.65337 0.07353 0.0
H2822 H 0.90033 0.63861 0.07414 0.0
H2823 H 0.87324 0.62098 0.06012 0.0
H2824 H 0.87681 0.59014 0.96671 0.0
H2825 H 0.90952 0.57449 0.97526 0.0
H2826 H 0.9277 0.62616 0.04499 0.0
C2827 C 0.85396 0.66015 0.02636 0.0
C2828 C 0.83527 0.65651 0.0087 0.0
C2829 C 0.83224 0.63827 0.98709 0.0
C2830 C 0.84758 0.62413 0.98296 0.0
C2831 C 0.86587 0.62833 1.00065 0.0
C2832 C 0.86906 0.64578 0.02199 0.0
C2833 C 0.89001 0.64646 0.03816 0.0
C2834 C 0.90633 0.67199 0.0418 0.0
C2835 C 0.88508 0.63943 0.06295 0.0
C2836 C 0.89807 0.62661 0.02261 0.0
C2837 C 0.88397 0.61651 1.00097 0.0
C2838 C 0.88797 0.59795 0.98359 0.0
C2839 C 0.90673 0.58931 0.98854 0.0
C2840 C 0.92132 0.5991 0.01076 0.0
C2841 C 0.91684 0.61812 0.02792 0.0
H2842 H 0.24788 0.12244 0.81928 0.0
H2843 H 0.20394 0.0986 0.75045 0.0
H2844 H 0.21891 0.13928 0.73902 0.0
H2845 H 0.24514 0.18677 0.82996 0.0
H2846 H 0.27359 0.19867 0.84274 0.0
H2847 H 0.2592 0.16793 0.84549 0.0
H2848 H 0.28828 0.1497 0.82485 0.0
H2849 H 0.3028 0.18037 0.82212 0.0
H2850 H 0.29422 0.15613 0.79522 0.0
H2851 H 0.23929 0.18476 0.73545 0.0
H2852 H 0.26333 0.22712 0.73936 0.0
H2853 H 0.29479 0.22086 0.80987 0.0
C2854 C 0.24131 0.12562 0.80174 0.0
C2855 C 0.22445 0.10676 0.78587 0.0
C2856 C 0.21669 0.11228 0.7631 0.0
C2857 C 0.22516 0.13557 0.75644 0.0
C2858 C 0.24166 0.15365 0.77256 0.0
C2859 C 0.2497 0.14877 0.79474 0.0
C2860 C 0.26769 0.17106 0.80874 0.0
C2861 C 0.261 0.18173 0.83319 0.0
C2862 C 0.28954 0.16388 0.81298 0.0
C2863 C 0.26873 0.18927 0.79105 0.0
C2864 C 0.25344 0.17903 0.77033 0.0
C2865 C 0.25129 0.19268 0.75165 0.0
C2866 C 0.26506 0.21693 0.75403 0.0
C2867 C 0.2812 0.22774 0.77487 0.0
C2868 C 0.28278 0.21343 0.79361 0.0
H2869 H 0.37986 0.98806 0.25058 0.0
H2870 H 0.38966 0.01825 0.32874 0.0
H2871 H 0.37201 0.97696 0.33661 0.0
H2872 H 0.32715 0.94133 0.24809 0.0
H2873 H 0.33495 0.91895 0.22606 0.0
H2874 H 0.34489 0.95163 0.22643 0.0
H2875 H 0.38443 0.94643 0.23067 0.0
H2876 H 0.37491 0.914 0.23144 0.0
H2877 H 0.39448 0.93419 0.25624 0.0
H2878 H 0.35788 0.93215 0.33649 0.0
H2879 H 0.34423 0.88673 0.32822 0.0
H2880 H 0.34465 0.88545 0.25003 0.0
C2881 C 0.3775 0.98623 0.26924 0.0
C2882 C 0.38585 1.00633 0.28907 0.0
C2883 C 0.38312 1.00305 0.31333 0.0
C2884 C 0.37325 0.97969 0.31796 0.0
C2885 C 0.36629 0.95995 0.29812 0.0
C2886 C 0.36799 0.96299 0.2742 0.0
C2887 C 0.36089 0.93838 0.25642 0.0
C2888 C 0.34076 0.93753 0.23818 0.0
C2889 C 0.37981 0.93294 0.24292 0.0
C2890 C 0.35519 0.92103 0.27417 0.0
C2891 C 0.35842 0.93388 0.29809 0.0
C2892 C 0.35496 0.92188 0.31782 0.0
C2893 C 0.34733 0.89605 0.3129 0.0
C2894 C 0.34325 0.88254 0.28844 0.0
C2895 C 0.34756 0.89523 0.2689 0.0
H2896 H 0.62247 0.42602 0.61529 0.0
H2897 H 0.57196 0.3614 0.57725 0.0
H2898 H 0.55758 0.38732 0.5513 0.0
H2899 H 0.59004 0.46961 0.61681 0.0
H2900 H 0.61116 0.49474 0.61123 0.0
H2901 H 0.61844 0.47101 0.626 0.0
H2902 H 0.64284 0.46212 0.59273 0.0
H2903 H 0.63566 0.48587 0.57787 0.0
H2904 H 0.63118 0.45475 0.56078 0.0
H2905 H 0.54722 0.42042 0.53102 0.0
H2906 H 0.54179 0.45809 0.51716 0.0
H2907 H 0.59923 0.50219 0.56738 0.0
C2908 C 0.60851 0.41724 0.60134 0.0
C2909 C 0.59839 0.39149 0.5984 0.0
C2910 C 0.58012 0.38092 0.57991 0.0
C2911 C 0.5718 0.39555 0.56504 0.0
C2912 C 0.58199 0.42082 0.56859 0.0
C2913 C 0.60006 0.4316 0.58614 0.0
C2914 C 0.60763 0.45934 0.58638 0.0
C2915 C 0.60676 0.47457 0.61161 0.0
C2916 C 0.6307 0.4659 0.579 0.0
C2917 C 0.5906 0.46258 0.56673 0.0
C2918 C 0.5761 0.44001 0.55663 0.0
C2919 C 0.55858 0.43814 0.53868 0.0
C2920 C 0.55563 0.4598 0.53095 0.0
C2921 C 0.57007 0.48334 0.54104 0.0
C2922 C 0.58797 0.48457 0.55906 0.0
H2923 H 0.43798 0.80706 0.39706 0.0
H2924 H 0.46638 0.75885 0.34826 0.0
H2925 H 0.43608 0.75476 0.3153 0.0
H2926 H 0.38034 0.77453 0.37408 0.0
H2927 H 0.37117 0.8027 0.3769 0.0
H2928 H 0.39444 0.80104 0.39737 0.0
H2929 H 0.41802 0.83965 0.38459 0.0
H2930 H 0.39485 0.84144 0.36411 0.0
H2931 H 0.4201 0.83956 0.35252 0.0
H2932 H 0.40446 0.75763 0.28697 0.0
H2933 H 0.37303 0.76688 0.26442 0.0
H2934 H 0.36323 0.81275 0.33073 0.0
C2935 C 0.43774 0.79545 0.37951 0.0
C2936 C 0.45472 0.78323 0.37537 0.0
C2937 C 0.4537 0.76834 0.35203 0.0
C2938 C 0.43649 0.76589 0.33316 0.0
C2939 C 0.4202 0.77828 0.33779 0.0
C2940 C 0.42054 0.79269 0.36038 0.0
C2941 C 0.40115 0.80451 0.3601 0.0
C2942 C 0.38587 0.79513 0.37819 0.0
C2943 C 0.40901 0.83298 0.36566 0.0
C2944 C 0.39015 0.79494 0.33362 0.0
C2945 C 0.40149 0.77972 0.32128 0.0
C2946 C 0.39537 0.76933 0.2965 0.0
C2947 C 0.37744 0.77478 0.28383 0.0
C2948 C 0.3655 0.79046 0.29574 0.0
C2949 C 0.37178 0.80042 0.32118 0.0
H2950 H 0.04451 0.73079 0.07898 0.0
H2951 H 0.11492 0.75941 0.08539 0.0
H2952 H 0.11824 0.71823 0.06588 0.0
H2953 H 0.04604 0.67227 0.0939 0.0
H2954 H 0.02208 0.65496 0.07269 0.0
H2955 H 0.02487 0.68715 0.08535 0.0
H2956 H 0.01984 0.69652 0.04141 0.0
H2957 H 0.01708 0.66431 0.02863 0.0
H2958 H 0.03755 0.68806 0.01991 0.0
H2959 H 0.11435 0.6738 0.0473 0.0
H2960 H 0.10383 0.62861 0.03264 0.0
H2961 H 0.03589 0.6278 0.03884 0.0
C2962 C 0.0606 0.72848 0.07599 0.0
C2963 C 0.07946 0.74847 0.08363 0.0
C2964 C 0.10023 0.74448 0.0797 0.0
C2965 C 0.10228 0.72114 0.06854 0.0
C2966 C 0.08343 0.70183 0.06141 0.0
C2967 C 0.06298 0.70516 0.06502 0.0
C2968 C 0.04553 0.68087 0.05685 0.0
C2969 C 0.03396 0.67338 0.07849 0.0
C2970 C 0.02903 0.68255 0.03543 0.0
C2971 C 0.05945 0.66334 0.04847 0.0
C2972 C 0.08122 0.67593 0.05101 0.0
C2973 C 0.09734 0.66376 0.04512 0.0
C2974 C 0.09115 0.63799 0.03678 0.0
C2975 C 0.069 0.62445 0.0345 0.0
C2976 C 0.05294 0.6375 0.04016 0.0
H2977 H 0.10503 0.30384 0.89815 0.0
H2978 H 0.05051 0.26824 0.84047 0.0
H2979 H 0.07622 0.26849 0.80988 0.0
H2980 H 0.13648 0.34367 0.86237 0.0
H2981 H 0.16247 0.34066 0.87605 0.0
H2982 H 0.13976 0.33816 0.89335 0.0
H2983 H 0.14368 0.29509 0.90075 0.0
H2984 H 0.16638 0.29745 0.88347 0.0
H2985 H 0.14303 0.27112 0.87481 0.0
H2986 H 0.10802 0.27162 0.78566 0.0
H2987 H 0.14329 0.27709 0.76961 0.0
H2988 H 0.1773 0.31161 0.84286 0.0
C2989 C 0.09844 0.29616 0.87908 0.0
C2990 C 0.07565 0.28601 0.87177 0.0
C2991 C 0.06783 0.27613 0.84658 0.0
C2992 C 0.08233 0.27621 0.82905 0.0
C2993 C 0.10465 0.28628 0.8369 0.0
C2994 C 0.11268 0.29611 0.86132 0.0
C2995 C 0.13744 0.30553 0.86497 0.0
C2996 C 0.14445 0.33368 0.87476 0.0
C2997 C 0.14826 0.29145 0.88201 0.0
C2998 C 0.14212 0.29925 0.83882 0.0
C2999 C 0.12296 0.28825 0.82292 0.0
C3000 C 0.1231 0.28043 0.79793 0.0
C3001 C 0.14329 0.28384 0.78894 0.0
C3002 C 0.16326 0.29504 0.80482 0.0
C3003 C 0.16248 0.30288 0.83014 0.0
H3004 H 0.59111 0.80542 0.95077 0.0
H3005 H 0.59887 0.76841 0.8788 0.0
H3006 H 0.58963 0.72799 0.8921 0.0
H3007 H 0.61581 0.76825 0.98477 0.0
H3008 H 0.59763 0.76809 1.00769 0.0
H3009 H 0.60344 0.79383 0.99194 0.0
H3010 H 0.5619 0.78741 0.97838 0.0
H3011 H 0.55598 0.76154 0.99399 0.0
H3012 H 0.54591 0.75752 0.96181 0.0
H3013 H 0.57981 0.69173 0.91334 0.0
H3014 H 0.57285 0.66248 0.94182 0.0
H3015 H 0.57369 0.72361 1.00064 0.0
C3016 C 0.59071 0.7888 0.93775 0.0
C3017 C 0.59563 0.79002 0.91373 0.0
C3018 C 0.59521 0.76789 0.89732 0.0
C3019 C 0.58986 0.74485 0.90466 0.0
C3020 C 0.58511 0.7443 0.92849 0.0
C3021 C 0.58566 0.7657 0.94485 0.0
C3022 C 0.58105 0.76015 0.96981 0.0
C3023 C 0.60065 0.77336 0.98972 0.0
C3024 C 0.55995 0.76707 0.97637 0.0
C3025 C 0.57809 0.73232 0.965 0.0
C3026 C 0.58019 0.7235 0.94097 0.0
C3027 C 0.57827 0.69844 0.93225 0.0
C3028 C 0.57448 0.682 0.94864 0.0
C3029 C 0.57296 0.69072 0.9736 0.0
C3030 C 0.57453 0.71623 0.98168 0.0
H3031 H 0.08538 0.82048 0.72104 0.0
H3032 H 0.04919 0.76276 0.75471 0.0
H3033 H 0.08389 0.75709 0.77417 0.0
H3034 H 0.11964 0.78958 0.70129 0.0
H3035 H 0.14398 0.81461 0.7056 0.0
H3036 H 0.11757 0.821 0.70167 0.0
H3037 H 0.12705 0.85243 0.74298 0.0
H3038 H 0.1539 0.84668 0.74652 0.0
H3039 H 0.13697 0.84303 0.77051 0.0
H3040 H 0.12092 0.75033 0.78104 0.0
H3041 H 0.15742 0.74364 0.77546 0.0
H3042 H 0.16963 0.80433 0.73566 0.0
C3043 C 0.08481 0.80772 0.73371 0.0
C3044 C 0.06473 0.79231 0.73675 0.0
C3045 C 0.06449 0.77495 0.75249 0.0
C3046 C 0.08412 0.77166 0.76364 0.0
C3047 C 0.10377 0.78588 0.75882 0.0
C3048 C 0.10428 0.80386 0.74447 0.0
C3049 C 0.12701 0.81314 0.73805 0.0
C3050 C 0.12702 0.80932 0.71001 0.0
C3051 C 0.13681 0.84044 0.75027 0.0
C3052 C 0.13876 0.79634 0.74948 0.0
C3053 C 0.1253 0.78132 0.76205 0.0
C3054 C 0.13182 0.76248 0.77189 0.0
C3055 C 0.15251 0.75873 0.76856 0.0
C3056 C 0.1662 0.77348 0.75513 0.0
C3057 C 0.1594 0.79283 0.746 0.0
H3058 H 0.05587 0.39256 0.4158 0.0
H3059 H 0.12647 0.40333 0.42333 0.0
H3060 H 0.13091 0.43941 0.45653 0.0
H3061 H 0.05622 0.45865 0.42847 0.0
H3062 H 0.0333 0.45354 0.44538 0.0
H3063 H 0.03561 0.42963 0.42082 0.0
H3064 H 0.03323 0.39852 0.45068 0.0
H3065 H 0.03087 0.4223 0.47525 0.0
H3066 H 0.05225 0.40635 0.47872 0.0
H3067 H 0.12776 0.4721 0.4904 0.0
H3068 H 0.11706 0.4996 0.52355 0.0
H3069 H 0.04859 0.46806 0.49389 0.0
C3070 C 0.07227 0.40266 0.42425 0.0
C3071 C 0.09082 0.3952 0.41699 0.0
C3072 C 0.11202 0.40877 0.42859 0.0
C3073 C 0.11473 0.42933 0.44739 0.0
C3074 C 0.0961 0.4361 0.4542 0.0
C3075 C 0.07529 0.42327 0.44299 0.0
C3076 C 0.05797 0.43371 0.45465 0.0
C3077 C 0.04501 0.44452 0.43622 0.0
C3078 C 0.04269 0.41405 0.46547 0.0
C3079 C 0.07232 0.45397 0.4746 0.0
C3080 C 0.09426 0.45517 0.47383 0.0
C3081 C 0.11066 0.47154 0.49109 0.0
C3082 C 0.10443 0.48694 0.50986 0.0
C3083 C 0.08205 0.48576 0.5111 0.0
C3084 C 0.06582 0.46937 0.4931 0.0
H3085 H 0.42815 0.2185 0.19518 0.0
H3086 H 0.47865 0.28749 0.21692 0.0
H3087 H 0.45603 0.30392 0.24546 0.0
H3088 H 0.38464 0.24484 0.192 0.0
H3089 H 0.36595 0.22205 0.20416 0.0
H3090 H 0.38758 0.21347 0.18903 0.0
H3091 H 0.40121 0.1981 0.2276 0.0
H3092 H 0.37973 0.20696 0.24307 0.0
H3093 H 0.40787 0.21889 0.25696 0.0
H3094 H 0.4274 0.31504 0.26737 0.0
H3095 H 0.39269 0.3218 0.27917 0.0
H3096 H 0.35938 0.2464 0.2428 0.0
C3097 C 0.43456 0.23681 0.20642 0.0
C3098 C 0.45509 0.25174 0.20396 0.0
C3099 C 0.46288 0.27582 0.21848 0.0
C3100 C 0.45029 0.28521 0.23497 0.0
C3101 C 0.42996 0.27029 0.23671 0.0
C3102 C 0.42201 0.24663 0.22284 0.0
C3103 C 0.39847 0.23586 0.22609 0.0
C3104 C 0.38328 0.22866 0.20135 0.0
C3105 C 0.39673 0.21363 0.23921 0.0
C3106 C 0.39413 0.25788 0.24253 0.0
C3107 C 0.41279 0.27712 0.2491 0.0
C3108 C 0.4127 0.30003 0.26271 0.0
C3109 C 0.39285 0.3037 0.26922 0.0
C3110 C 0.37329 0.28468 0.26176 0.0
C3111 C 0.37409 0.26124 0.24886 0.0
H3112 H 0.62952 0.56823 0.35691 0.0
H3113 H 0.64993 0.49966 0.35344 0.0
H3114 H 0.63365 0.4931 0.39141 0.0
H3115 H 0.63906 0.58734 0.42365 0.0
H3116 H 0.61546 0.59998 0.42499 0.0
H3117 H 0.629 0.59947 0.398 0.0
H3118 H 0.59256 0.5753 0.37092 0.0
H3119 H 0.57889 0.57597 0.39779 0.0
H3120 H 0.57747 0.54675 0.37819 0.0
H3121 H 0.61411 0.4943 0.43172 0.0
H3122 H 0.59224 0.50117 0.46554 0.0
H3123 H 0.58333 0.56843 0.44282 0.0
C3124 C 0.63066 0.55172 0.36398 0.0
C3125 C 0.6414 0.53449 0.35146 0.0
C3126 C 0.64206 0.51328 0.36202 0.0
C3127 C 0.63279 0.50945 0.3839 0.0
C3128 C 0.62255 0.52687 0.39568 0.0
C3129 C 0.62133 0.54755 0.38581 0.0
C3130 C 0.609 0.56328 0.40154 0.0
C3131 C 0.62402 0.58905 0.4127 0.0
C3132 C 0.58825 0.56545 0.38619 0.0
C3133 C 0.60319 0.5483 0.42174 0.0
C3134 C 0.61141 0.52746 0.41821 0.0
C3135 C 0.60791 0.51074 0.43444 0.0
C3136 C 0.59555 0.51497 0.45402 0.0
C3137 C 0.58649 0.53589 0.45807 0.0
C3138 C 0.59056 0.55273 0.44131 0.0
H3139 H 0.32807 0.86964 0.03524 0.0
H3140 H 0.35791 0.94722 0.06598 0.0
H3141 H 0.37905 0.93504 0.09957 0.0
H3142 H 0.31804 0.85119 0.08774 0.0
H3143 H 0.32369 0.82118 0.08006 0.0
H3144 H 0.31541 0.83616 0.05608 0.0
H3145 H 0.35051 0.83254 0.03688 0.0
H3146 H 0.35908 0.81791 0.06134 0.0
H3147 H 0.37699 0.84539 0.05519 0.0
H3148 H 0.39097 0.91483 0.13357 0.0
H3149 H 0.38983 0.88921 0.16563 0.0
H3150 H 0.35244 0.82512 0.11197 0.0
C3151 C 0.3394 0.88407 0.04874 0.0
C3152 C 0.34124 0.90931 0.04817 0.0
C3153 C 0.35622 0.9277 0.06615 0.0
C3154 C 0.36847 0.92095 0.08513 0.0
C3155 C 0.36586 0.89578 0.08552 0.0
C3156 C 0.35178 0.87764 0.06761 0.0
C3157 C 0.34942 0.85217 0.0738 0.0
C3158 C 0.32523 0.83947 0.07449 0.0
C3159 C 0.35962 0.83606 0.05573 0.0
C3160 C 0.36279 0.85897 0.09902 0.0
C3161 C 0.37287 0.88407 0.10515 0.0
C3162 C 0.38357 0.89509 0.12878 0.0
C3163 C 0.38275 0.8804 0.14692 0.0
C3164 C 0.37093 0.85513 0.14136 0.0
C3165 C 0.3621 0.84413 0.11677 0.0
H3166 H 0.9882 0.57549 0.8544 0.0
H3167 H 0.93188 0.5174 0.86095 0.0
H3168 H 0.95069 0.51239 0.89987 0.0
H3169 H 0.02859 0.54694 0.87699 0.0
H3170 H 0.04708 0.57541 0.89356 0.0
H3171 H 0.02886 0.57575 0.86676 0.0
H3172 H 0.01322 0.60865 0.89224 0.0
H3173 H 0.03145 0.60846 0.91913 0.0
H3174 H 1.00238 0.6024 0.91994 0.0
H3175 H 0.97547 0.51186 0.93625 0.0
H3176 H 1.00543 0.51588 0.96923 0.0
H3177 H 0.04625 0.57475 0.94053 0.0
C3178 C 0.97977 0.56192 0.86418 0.0
C3179 C 0.95855 0.54687 0.8547 0.0
C3180 C 0.94812 0.52912 0.86786 0.0
C3181 C 0.95863 0.52617 0.89001 0.0
C3182 C 0.97955 0.54109 0.89874 0.0
C3183 C 0.99008 0.55864 0.88636 0.0
C3184 C 0.01293 0.57157 0.89955 0.0
C3185 C 0.03039 0.56714 0.88324 0.0
C3186 C 0.01511 0.59942 0.90823 0.0
C3187 C 0.0136 0.55827 0.92108 0.0
C3188 C 0.99407 0.54088 0.92018 0.0
C3189 C 0.99074 0.52563 0.9374 0.0
C3190 C 1.00783 0.52819 0.95616 0.0
C3191 C 0.02794 0.54598 0.95768 0.0
C3192 C 0.03092 0.5612 0.93988 0.0
H3193 H 0.27663 0.22369 0.57484 0.0
H3194 H 0.3398 0.26691 0.56373 0.0
H3195 H 0.34629 0.2882 0.60698 0.0
H3196 H 0.26332 0.27334 0.61794 0.0
H3197 H 0.25061 0.25233 0.63654 0.0
H3198 H 0.2501 0.24152 0.60418 0.0
H3199 H 0.26793 0.20662 0.61405 0.0
H3200 H 0.26858 0.21736 0.64642 0.0
H3201 H 0.29347 0.21457 0.63442 0.0
H3202 H 0.34758 0.30238 0.65209 0.0
H3203 H 0.34281 0.30993 0.69583 0.0
H3204 H 0.27837 0.25892 0.67852 0.0
C3205 C 0.29166 0.23794 0.58139 0.0
C3206 C 0.30768 0.24362 0.5657 0.0
C3207 C 0.32723 0.26218 0.57521 0.0
C3208 C 0.33109 0.27443 0.59983 0.0
C3209 C 0.31521 0.26811 0.61487 0.0
C3210 C 0.29578 0.25046 0.60603 0.0
C3211 C 0.28183 0.24661 0.62646 0.0
C3212 C 0.26018 0.25389 0.62095 0.0
C3213 C 0.27772 0.21969 0.63058 0.0
C3214 C 0.29659 0.26457 0.64818 0.0
C3215 C 0.31577 0.27673 0.641 0.0
C3216 C 0.33252 0.2932 0.65787 0.0
C3217 C 0.32968 0.29731 0.68273 0.0
C3218 C 0.31017 0.2852 0.69064 0.0
C3219 C 0.29332 0.26879 0.673 0.0
H3220 H 0.64789 0.5715 0.20273 0.0
H3221 H 0.62978 0.49284 0.20407 0.0
H3222 H 0.60786 0.48533 0.16277 0.0
H3223 H 0.59577 0.57525 0.17221 0.0
H3224 H 0.60794 0.59757 0.15454 0.0
H3225 H 0.62202 0.59651 0.18392 0.0
H3226 H 0.65595 0.59094 0.16363 0.0
H3227 H 0.64196 0.59194 0.13418 0.0
H3228 H 0.65299 0.56583 0.13803 0.0
H3229 H 0.58778 0.48671 0.11913 0.0
H3230 H 0.57184 0.49652 0.08071 0.0
H3231 H 0.60226 0.57464 0.10779 0.0
C3232 C 0.63931 0.55257 0.19452 0.0
C3233 C 0.64087 0.53276 0.20734 0.0
C3234 C 0.62913 0.50848 0.19525 0.0
C3235 C 0.61656 0.50405 0.17154 0.0
C3236 C 0.61552 0.524 0.15957 0.0
C3237 C 0.62662 0.54786 0.17087 0.0
C3238 C 0.62295 0.56624 0.1543 0.0
C3239 C 0.61149 0.585 0.167 0.0
C3240 C 0.64476 0.57952 0.14712 0.0
C3241 C 0.60799 0.54921 0.13184 0.0
C3242 C 0.60398 0.52484 0.13517 0.0
C3243 C 0.59092 0.5058 0.11669 0.0
C3244 C 0.58184 0.51163 0.09465 0.0
C3245 C 0.58543 0.53645 0.09059 0.0
C3246 C 0.59883 0.55542 0.10986 0.0
H3247 H 0.2987 0.9 0.9197 0.0
H3248 H 0.33528 0.86345 0.96523 0.0
H3249 H 0.32808 0.82706 0.9313 0.0
H3250 H 0.25783 0.84508 0.88493 0.0
H3251 H 0.25874 0.85667 0.85662 0.0
H3252 H 0.26406 0.87804 0.88557 0.0
H3253 H 0.30151 0.90023 0.87467 0.0
H3254 H 0.29617 0.87905 0.8457 0.0
H3255 H 0.32078 0.88232 0.86645 0.0
H3256 H 0.3183 0.79558 0.89135 0.0
H3257 H 0.31074 0.77436 0.8475 0.0
H3258 H 0.28329 0.83358 0.82839 0.0
C3259 C 0.30474 0.88407 0.92264 0.0
C3260 C 0.3172 0.88415 0.94499 0.0
C3261 C 0.32556 0.86348 0.94811 0.0
C3262 C 0.32143 0.84274 0.92907 0.0
C3263 C 0.3092 0.84327 0.90703 0.0
C3264 C 0.30126 0.86359 0.90367 0.0
C3265 C 0.29094 0.861 0.87748 0.0
C3266 C 0.26643 0.86014 0.87608 0.0
C3267 C 0.30309 0.88188 0.86537 0.0
C3268 C 0.2945 0.83619 0.86656 0.0
C3269 C 0.30462 0.8259 0.8839 0.0
C3270 C 0.31021 0.80336 0.87765 0.0
C3271 C 0.30582 0.79139 0.85286 0.0
C3272 C 0.29643 0.80245 0.83495 0.0
C3273 C 0.29038 0.82478 0.84195 0.0
H3274 H 0.98197 0.55994 0.76055 0.0
H3275 H 0.92693 0.55972 0.70825 0.0
H3276 H 0.93099 0.52125 0.6831 0.0
H3277 H 0.01495 0.55249 0.72429 0.0
H3278 H 0.02851 0.53165 0.7373 0.0
H3279 H 0.01519 0.55037 0.75631 0.0
H3280 H 0.99189 0.51089 0.76798 0.0
H3281 H 1.0052 0.49194 0.74845 0.0
H3282 H 0.97577 0.48595 0.74425 0.0
H3283 H 0.94719 0.49355 0.6581 0.0
H3284 H 0.97621 0.4869 0.63372 0.0
H3285 H 0.02293 0.5053 0.69994 0.0
C3286 C 0.97024 0.55084 0.74437 0.0
C3287 C 0.95397 0.56213 0.73631 0.0
C3288 C 0.93927 0.55085 0.71471 0.0
C3289 C 0.94131 0.52882 0.70058 0.0
C3290 C 0.95833 0.51855 0.70819 0.0
C3291 C 0.97252 0.52916 0.72982 0.0
C3292 C 0.99255 0.51883 0.73083 0.0
C3293 C 0.01402 0.53958 0.7375 0.0
C3294 C 0.99127 0.50083 0.74894 0.0
C3295 C 0.98952 0.50478 0.70464 0.0
C3296 C 0.96873 0.50281 0.6927 0.0
C3297 C 0.96327 0.49448 0.66737 0.0
C3298 C 0.97989 0.49082 0.65358 0.0
C3299 C 1.00175 0.49615 0.66514 0.0
C3300 C 1.0062 0.50085 0.69096 0.0
H3301 H 0.28349 0.26652 0.44617 0.0
H3302 H 0.30143 0.19703 0.42527 0.0
H3303 H 0.30881 0.20799 0.38523 0.0
H3304 H 0.2567 0.26812 0.38584 0.0
H3305 H 0.26665 0.30124 0.389 0.0
H3306 H 0.26228 0.28772 0.41584 0.0
H3307 H 0.30247 0.30892 0.43499 0.0
H3308 H 0.30689 0.32241 0.40815 0.0
H3309 H 0.32435 0.30371 0.41812 0.0
H3310 H 0.31471 0.22665 0.34732 0.0
H3311 H 0.31933 0.25205 0.31502 0.0
H3312 H 0.29769 0.30952 0.36007 0.0
C3313 C 0.28891 0.25355 0.43317 0.0
C3314 C 0.29184 0.23082 0.43904 0.0
C3315 C 0.29904 0.21451 0.42138 0.0
C3316 C 0.30325 0.22057 0.3985 0.0
C3317 C 0.30022 0.24305 0.39334 0.0
C3318 C 0.29323 0.25932 0.41017 0.0
C3319 C 0.29161 0.28248 0.40013 0.0
C3320 C 0.26789 0.28503 0.39755 0.0
C3321 C 0.30726 0.30576 0.41631 0.0
C3322 C 0.29892 0.27676 0.37512 0.0
C3323 C 0.30371 0.25386 0.37154 0.0
C3324 C 0.31095 0.24458 0.34995 0.0
C3325 C 0.31348 0.25911 0.33164 0.0
C3326 C 0.30887 0.28273 0.33493 0.0
C3327 C 0.30138 0.29154 0.35698 0.0
H3328 H 0.36461 0.60905 0.56948 0.0
H3329 H 0.33151 0.61026 0.49773 0.0
H3330 H 0.35313 0.58352 0.47808 0.0
H3331 H 0.41763 0.61155 0.55057 0.0
H3332 H 0.42446 0.59138 0.57048 0.0
H3333 H 0.40617 0.61049 0.57885 0.0
H3334 H 0.37682 0.57135 0.5827 0.0
H3335 H 0.39494 0.5521 0.57408 0.0
H3336 H 0.36799 0.54584 0.55693 0.0
H3337 H 0.37829 0.55692 0.46619 0.0
H3338 H 0.40732 0.53448 0.46273 0.0
H3339 H 0.42323 0.54979 0.54223 0.0
C3340 C 0.36192 0.60371 0.54964 0.0
C3341 C 0.34633 0.61162 0.53515 0.0
C3342 C 0.34338 0.60439 0.50922 0.0
C3343 C 0.3555 0.58913 0.49787 0.0
C3344 C 0.37051 0.58136 0.51271 0.0
C3345 C 0.37391 0.58856 0.538 0.0
C3346 C 0.39147 0.57816 0.54965 0.0
C3347 C 0.41109 0.59915 0.56318 0.0
C3348 C 0.38224 0.56083 0.56685 0.0
C3349 C 0.39729 0.5639 0.52695 0.0
C3350 C 0.38499 0.56593 0.50584 0.0
C3351 C 0.38794 0.55501 0.48258 0.0
C3352 C 0.40431 0.5421 0.48082 0.0
C3353 C 0.41744 0.5403 0.50222 0.0
C3354 C 0.41351 0.55095 0.52555 0.0
H3355 H 0.90355 0.94559 0.50286 0.0
H3356 H 0.89806 0.95736 0.5807 0.0
H3357 H 0.93615 0.98319 0.58969 0.0
H3358 H 0.96031 0.94164 0.50957 0.0
H3359 H 0.96694 0.95751 0.48465 0.0
H3360 H 0.93943 0.93951 0.48432 0.0
H3361 H 0.9246 0.97794 0.47974 0.0
H3362 H 0.95204 0.99601 0.47999 0.0
H3363 H 0.93538 1.00637 0.50185 0.0
H3364 H 0.97447 1.00907 0.59009 0.0
H3365 H 0.01001 0.03297 0.58197 0.0
H3366 H 0.99122 1.00374 0.50393 0.0
C3367 C 0.91033 0.95355 0.52183 0.0
C3368 C 0.89767 0.94943 0.54109 0.0
C3369 C 0.90732 0.96018 0.56562 0.0
C3370 C 0.92899 0.97488 0.57091 0.0
C3371 C 0.94095 0.97856 0.5515 0.0
C3372 C 0.93199 0.96813 0.52744 0.0
C3373 C 0.9483 0.97518 0.50994 0.0
C3374 C 0.95408 0.95208 0.49632 0.0
C3375 C 0.93955 0.98974 0.49181 0.0
C3376 C 0.96772 0.99157 0.52785 0.0
C3377 C 0.96314 0.99318 0.55175 0.0
C3378 C 0.97824 1.0078 0.57147 0.0
C3379 C 0.9984 0.02134 0.56667 0.0
C3380 C 1.00342 0.02022 0.54235 0.0
C3381 C 0.98793 1.00484 0.52273 0.0
H3382 H 0.85938 0.12666 0.27586 0.0
H3383 H 0.92282 0.15558 0.25474 0.0
H3384 H 0.91363 0.19611 0.25448 0.0
H3385 H 0.82849 0.1585 0.23915 0.0
H3386 H 0.81088 0.16419 0.26177 0.0
H3387 H 0.82253 0.1378 0.26049 0.0
H3388 H 0.83919 0.15266 0.30614 0.0
H3389 H 0.82759 0.1791 0.30756 0.0
H3390 H 0.85659 0.18357 0.31618 0.0
H3391 H 0.89636 0.23546 0.25646 0.0
H3392 H 0.87449 0.26659 0.26014 0.0
H3393 H 0.82158 0.21304 0.28011 0.0
C3394 C 0.87153 0.14142 0.27116 0.0
C3395 C 0.89218 0.13704 0.2653 0.0
C3396 C 0.90706 0.1576 0.25936 0.0
C3397 C 0.90184 0.181 0.25916 0.0
C3398 C 0.88145 0.18447 0.26498 0.0
C3399 C 0.86653 0.16504 0.27092 0.0
C3400 C 0.8457 0.17342 0.27651 0.0
C3401 C 0.82571 0.15752 0.2584 0.0
C3402 C 0.84205 0.1721 0.30318 0.0
C3403 C 0.85094 0.20054 0.27272 0.0
C3404 C 0.87173 0.20656 0.26611 0.0
C3405 C 0.88014 0.23052 0.26165 0.0
C3406 C 0.86738 0.2484 0.26383 0.0
C3407 C 0.84587 0.24314 0.27052 0.0
C3408 C 0.8378 0.21841 0.27503 0.0
H3409 H 0.70712 0.10119 0.99578 0.0
H3410 H 0.73596 0.10379 0.07053 0.0
H3411 H 0.69938 0.09718 0.08353 0.0
H3412 H 0.66714 0.1336 0.01101 0.0
H3413 H 0.64603 0.11484 0.98691 0.0
H3414 H 0.6744 0.11879 0.98295 0.0
H3415 H 0.66928 0.07106 0.97437 0.0
H3416 H 0.6408 0.06706 0.97767 0.0
H3417 H 0.65774 0.0532 0.99614 0.0
H3418 H 0.66006 0.09193 0.08882 0.0
H3419 H 0.61972 0.08204 0.08464 0.0
H3420 H 0.61692 0.08378 1.00671 0.0
C3421 C 0.70571 0.09994 0.01478 0.0
C3422 C 0.72434 0.10311 0.03215 0.0
C3423 C 0.72185 0.1015 0.05691 0.0
C3424 C 0.70119 0.09791 0.06453 0.0
C3425 C 0.68325 0.09592 0.04716 0.0
C3426 C 0.68521 0.09641 0.02273 0.0
C3427 C 0.66327 0.09349 1.00774 0.0
C3428 C 0.66269 0.11656 0.9965 0.0
C3429 C 0.65743 0.06979 0.98782 0.0
C3430 C 0.64871 0.09126 0.0276 0.0
C3431 C 0.66055 0.09293 0.05024 0.0
C3432 C 0.65055 0.09062 0.07121 0.0
C3433 C 0.62766 0.08525 0.0687 0.0
C3434 C 0.61521 0.08214 0.04536 0.0
C3435 C 0.62598 0.08612 0.02482 0.0
H3436 H 0.21641 0.50627 0.29323 0.0
H3437 H 0.17141 0.44562 0.24167 0.0
H3438 H 0.19454 0.41759 0.25097 0.0
H3439 H 0.2628 0.49457 0.27691 0.0
H3440 H 0.27869 0.50217 0.30703 0.0
H3441 H 0.25643 0.51613 0.30102 0.0
H3442 H 0.23835 0.49968 0.33682 0.0
H3443 H 0.26086 0.48605 0.34338 0.0
H3444 H 0.23315 0.46708 0.33781 0.0
H3445 H 0.22605 0.3994 0.25831 0.0
H3446 H 0.26217 0.39065 0.26702 0.0
H3447 H 0.28622 0.46212 0.31542 0.0
C3448 C 0.21104 0.48688 0.2845 0.0
C3449 C 0.19221 0.47807 0.26666 0.0
C3450 C 0.18572 0.45268 0.25549 0.0
C3451 C 0.19876 0.43665 0.26067 0.0
C3452 C 0.21788 0.44628 0.2774 0.0
C3453 C 0.22376 0.47068 0.2896 0.0
C3454 C 0.24619 0.47712 0.30476 0.0
C3455 C 0.26194 0.49876 0.29694 0.0
C3456 C 0.24453 0.48281 0.33233 0.0
C3457 C 0.25263 0.453 0.29791 0.0
C3458 C 0.23594 0.43535 0.28235 0.0
C3459 C 0.23891 0.41268 0.27118 0.0
C3460 C 0.25939 0.40786 0.27617 0.0
C3461 C 0.27645 0.42548 0.29232 0.0
C3462 C 0.27308 0.44823 0.30349 0.0
H3463 H 0.27495 0.45928 1.0033 0.0
H3464 H 0.27595 0.43666 0.07421 0.0
H3465 H 0.24232 0.45052 0.08035 0.0
H3466 H 0.25574 0.51473 0.02203 0.0
H3467 H 0.23907 0.51111 0.99289 0.0
H3468 H 0.2634 0.49973 0.99432 0.0
H3469 H 0.24036 0.45603 0.97257 0.0
H3470 H 0.21593 0.46723 0.97129 0.0
H3471 H 0.21713 0.441 0.98561 0.0
H3472 H 0.2072 0.46467 0.07767 0.0
H3473 H 0.1752 0.48106 0.06806 0.0
H3474 H 0.19831 0.49709 1.00007 0.0
C3475 C 0.2682 0.4574 0.02021 0.0
C3476 C 0.27817 0.44684 0.03827 0.0
C3477 C 0.26876 0.44479 0.06015 0.0
C3478 C 0.24957 0.45252 0.06376 0.0
C3479 C 0.24001 0.46253 0.04546 0.0
C3480 C 0.24917 0.4653 0.02426 0.0
C3481 C 0.23577 0.47689 1.00759 0.0
C3482 C 0.2493 0.50211 1.00401 0.0
C3483 C 0.22677 0.45923 0.9828 0.0
C3484 C 0.21752 0.47995 0.0226 0.0
C3485 C 0.22021 0.47142 0.04431 0.0
C3486 C 0.20513 0.47173 0.06087 0.0
C3487 C 0.187 0.48128 0.05528 0.0
C3488 C 0.18407 0.49074 0.03337 0.0
C3489 C 0.19968 0.48986 0.01685 0.0
H3490 H 0.86338 0.99528 0.28605 0.0
H3491 H 0.90926 0.98507 0.23501 0.0
H3492 H 0.89527 0.93935 0.22995 0.0
H3493 H 0.86553 0.94324 0.31519 0.0
H3494 H 0.83673 0.93529 0.31766 0.0
H3495 H 0.85058 0.96693 0.31742 0.0
H3496 H 0.82275 0.96768 0.28049 0.0
H3497 H 0.80866 0.93616 0.28085 0.0
H3498 H 0.81832 0.9442 0.25313 0.0
H3499 H 0.8765 0.89238 0.23286 0.0
H3500 H 0.85231 0.85255 0.23822 0.0
H3501 H 0.81677 0.89376 0.28436 0.0
C3502 C 0.87046 0.98352 0.2736 0.0
C3503 C 0.88765 0.99437 0.26093 0.0
C3504 C 0.8961 0.97776 0.24486 0.0
C3505 C 0.88828 0.95153 0.24202 0.0
C3506 C 0.87157 0.94156 0.25506 0.0
C3507 C 0.86249 0.95728 0.27016 0.0
C3508 C 0.8441 0.94221 0.28144 0.0
C3509 C 0.84956 0.94722 0.3096 0.0
C3510 C 0.82216 0.9479 0.2735 0.0
C3511 C 0.84409 0.91556 0.27046 0.0
C3512 C 0.86034 0.91539 0.25565 0.0
C3513 C 0.86371 0.89264 0.24433 0.0
C3514 C 0.84999 0.86989 0.24768 0.0
C3515 C 0.8326 0.8696 0.26194 0.0
C3516 C 0.82991 0.89303 0.27344 0.0
H3517 H 0.70474 0.12832 0.71752 0.0
H3518 H 0.71676 0.10814 0.7887 0.0
H3519 H 0.73683 0.15143 0.80615 0.0
H3520 H 0.75633 0.16708 0.71992 0.0
H3521 H 0.74704 0.1894 0.70458 0.0
H3522 H 0.7313 0.15767 0.69858 0.0
H3523 H 0.69718 0.17208 0.71083 0.0
H3524 H 0.71287 0.20394 0.71692 0.0
H3525 H 0.69889 0.19135 0.74046 0.0
H3526 H 0.75812 0.1963 0.81502 0.0
H3527 H 0.78027 0.23831 0.81369 0.0
H3528 H 0.75437 0.22819 0.7366 0.0
C3529 C 0.71126 0.13308 0.73687 0.0
C3530 C 0.70918 0.11492 0.75175 0.0
C3531 C 0.71821 0.1218 0.77693 0.0
C3532 C 0.72951 0.14636 0.78707 0.0
C3533 C 0.73155 0.16377 0.77179 0.0
C3534 C 0.72266 0.15742 0.74723 0.0
C3535 C 0.72865 0.17903 0.73424 0.0
C3536 C 0.74161 0.17292 0.7131 0.0
C3537 C 0.70818 0.18707 0.72508 0.0
C3538 C 0.74286 0.19828 0.75512 0.0
C3539 C 0.74406 0.18936 0.77677 0.0
C3540 C 0.75713 0.20358 0.79823 0.0
C3541 C 0.76963 0.22737 0.79732 0.0
C3542 C 0.76909 0.23635 0.77502 0.0
C3543 C 0.75517 0.22177 0.75391 0.0
loop_
_geom_bond_atom_site_label_1
_geom_bond_atom_site_label_2
_geom_bond_distance
_geom_bond_site_symmetry_2
_ccdc_geom_bond_type
C0 O1 1.160 . S
C0 O7 1.185 . S
O1 C0 1.160 . S
O2 Zn3 1.899 . S
O2 C10 1.284 . S
Zn3 O2 1.899 . S
Zn3 O4 2.032 . S
Zn3 O7 2.086 . S
Zn3 O12 1.977 . S
O4 Zn3 2.032 . S
O4 C8 1.278 . S
C5 O6 1.203 . S
C5 O12 1.267 . S
O6 C5 1.203 . S
O7 C0 1.185 . S
O7 Zn3 2.086 . S
C8 O4 1.278 . S
C8 O9 1.211 . S
O9 C8 1.211 . S
C10 O2 1.284 . S
C10 O11 1.273 . S
O11 C10 1.273 . S
O12 Zn3 1.977 . S
O12 C5 1.267 . S
C13 O14 1.160 . S
C13 O20 1.185 . S
O14 C13 1.160 . S
O15 Zn16 1.899 . S
O15 C23 1.284 . S
Zn16 O15 1.899 . S
Zn16 O17 2.032 . S
Zn16 O20 2.086 . S
Zn16 O25 1.977 1_655 S
O17 Zn16 2.032 . S
O17 C21 1.278 1_655 S
C18 O19 1.203 . S
C18 O25 1.267 . S
O19 C18 1.203 . S
O20 C13 1.185 . S
O20 Zn16 2.086 . S
C21 O17 1.278 1_455 S
C21 O22 1.211 . S
O22 C21 1.211 . S
C23 O15 1.284 . S
C23 O24 1.273 1_655 S
O24 C23 1.273 1_455 S
O25 Zn16 1.977 1_455 S
O25 C18 1.267 . S
C26 O27 1.160 . S
C26 O33 1.185 . S
O27 C26 1.160 . S
O28 Zn29 1.899 . S
O28 C36 1.284 . S
Zn29 O28 1.899 . S
Zn29 O30 2.032 . S
Zn29 O33 2.086 . S
Zn29 O38 1.977 . S
O30 Zn29 2.032 . S
O30 C34 1.278 . S
C31 O32 1.203 . S
C31 O38 1.267 . S
O32 C31 1.203 . S
O33 C26 1.185 . S
O33 Zn29 2.086 . S
C34 O30 1.278 . S
C34 O35 1.211 . S
O35 C34 1.211 . S
C36 O28 1.284 . S
C36 O37 1.273 . S
O37 C36 1.273 . S
O38 Zn29 1.977 . S
O38 C31 1.267 . S
C39 O40 1.160 . S
C39 O46 1.185 . S
O40 C39 1.160 . S
O41 Zn42 1.899 . S
O41 C49 1.284 . S
Zn42 O41 1.899 . S
Zn42 O43 2.032 . S
Zn42 O46 2.086 . S
Zn42 O51 1.977 . S
O43 Zn42 2.032 . S
O43 C47 1.278 . S
C44 O45 1.203 . S
C44 O51 1.267 . S
O45 C44 1.203 . S
O46 C39 1.185 . S
O46 Zn42 2.086 . S
C47 O43 1.278 . S
C47 O48 1.211 . S
O48 C47 1.211 . S
C49 O41 1.284 . S
C49 O50 1.273 . S
O50 C49 1.273 . S
O51 Zn42 1.977 . S
O51 C44 1.267 . S
C52 O53 1.160 . S
C52 O59 1.185 . S
O53 C52 1.160 . S
O54 Zn55 1.899 . S
O54 C62 1.284 . S
Zn55 O54 1.899 . S
Zn55 O56 2.032 . S
Zn55 O59 2.086 . S
Zn55 O64 1.977 . S
O56 Zn55 2.032 . S
O56 C60 1.278 . S
C57 O58 1.203 . S
C57 O64 1.267 . S
O58 C57 1.203 . S
O59 C52 1.185 . S
O59 Zn55 2.086 . S
C60 O56 1.278 . S
C60 O61 1.211 . S
O61 C60 1.211 . S
C62 O54 1.284 . S
C62 O63 1.273 . S
O63 C62 1.273 . S
O64 Zn55 1.977 . S
O64 C57 1.267 . S
C65 O66 1.160 . S
C65 O72 1.185 . S
O66 C65 1.160 . S
O67 Zn68 1.899 . S
O67 C75 1.284 . S
Zn68 O67 1.899 . S
Zn68 O69 2.032 . S
Zn68 O72 2.086 . S
Zn68 O77 1.977 . S
O69 Zn68 2.032 . S
O69 C73 1.278 . S
C70 O71 1.203 . S
C70 O77 1.267 . S
O71 C70 1.203 . S
O72 C65 1.185 . S
O72 Zn68 2.086 . S
C73 O69 1.278 . S
C73 O74 1.211 . S
O74 C73 1.211 . S
C75 O67 1.284 . S
C75 O76 1.273 . S
O76 C75 1.273 . S
O77 Zn68 1.977 . S
O77 C70 1.267 . S
C78 O79 1.160 . S
C78 O85 1.185 . S
O79 C78 1.160 . S
O80 Zn81 1.899 . S
O80 C88 1.284 . S
Zn81 O80 1.899 . S
Zn81 O82 2.032 . S
Zn81 O85 2.086 . S
Zn81 O90 1.977 . S
O82 Zn81 2.032 . S
O82 C86 1.278 . S
C83 O84 1.203 . S
C83 O90 1.267 . S
O84 C83 1.203 . S
O85 C78 1.185 . S
O85 Zn81 2.086 . S
C86 O82 1.278 . S
C86 O87 1.211 . S
O87 C86 1.211 . S
C88 O80 1.284 . S
C88 O89 1.273 . S
O89 C88 1.273 . S
O90 Zn81 1.977 . S
O90 C83 1.267 . S
C91 O92 1.160 . S
C91 O98 1.185 . S
O92 C91 1.160 . S
O93 Zn94 1.899 . S
O93 C101 1.284 . S
Zn94 O93 1.899 . S
Zn94 O95 2.032 . S
Zn94 O98 2.086 . S
Zn94 O103 1.977 1_455 S
O95 Zn94 2.032 . S
O95 C99 1.278 . S
C96 O97 1.203 . S
C96 O103 1.267 . S
O97 C96 1.203 . S
O98 C91 1.185 . S
O98 Zn94 2.086 . S
C99 O95 1.278 . S
C99 O100 1.211 . S
O100 C99 1.211 . S
C101 O93 1.284 . S
C101 O102 1.273 . S
O102 C101 1.273 . S
O103 Zn94 1.977 1_655 S
O103 C96 1.267 . S
C104 O105 1.160 . S
C104 O111 1.185 . S
O105 C104 1.160 . S
O106 Zn107 1.897 . S
O106 C114 1.272 1_545 S
Zn107 O106 1.897 . S
Zn107 O108 2.032 . S
Zn107 O111 2.086 . S
Zn107 O116 1.977 1_545 S
O108 Zn107 2.032 . S
O108 C112 1.278 . S
C109 O110 1.203 . S
C109 O116 1.267 . S
O110 C109 1.203 . S
O111 C104 1.185 . S
O111 Zn107 2.086 . S
C112 O108 1.278 . S
C112 O113 1.211 1_545 S
O113 C112 1.211 1_565 S
C114 O106 1.272 1_565 S
C114 O115 1.273 . S
O115 C114 1.273 . S
O116 Zn107 1.977 1_565 S
O116 C109 1.267 . S
C117 O118 1.160 . S
C117 O124 1.185 . S
O118 C117 1.160 . S
O119 Zn120 1.899 . S
O119 C127 1.284 . S
Zn120 O119 1.899 . S
Zn120 O121 2.032 . S
Zn120 O124 2.086 . S
Zn120 O129 1.977 . S
O121 Zn120 2.032 . S
O121 C125 1.278 . S
C122 O123 1.203 . S
C122 O129 1.267 . S
O123 C122 1.203 . S
O124 C117 1.185 . S
O124 Zn120 2.086 . S
C125 O121 1.278 . S
C125 O126 1.211 . S
O126 C125 1.211 . S
C127 O119 1.284 . S
C127 O128 1.273 . S
O128 C127 1.273 . S
O129 Zn120 1.977 . S
O129 C122 1.267 . S
C130 O131 1.160 . S
C130 O137 1.185 . S
O131 C130 1.160 . S
O132 Zn133 1.899 1_565 S
O132 C140 1.284 . S
Zn133 O132 1.899 1_545 S
Zn133 O134 2.032 1_545 S
Zn133 O137 2.086 1_545 S
Zn133 O142 1.977 . S
O134 Zn133 2.032 1_565 S
O134 C138 1.278 1_565 S
C135 O136 1.203 . S
C135 O142 1.267 . S
O136 C135 1.203 . S
O137 C130 1.185 . S
O137 Zn133 2.086 1_565 S
C138 O134 1.278 1_545 S
C138 O139 1.211 . S
O139 C138 1.211 . S
C140 O132 1.284 . S
C140 O141 1.273 1_565 S
O141 C140 1.273 1_545 S
O142 Zn133 1.977 . S
O142 C135 1.267 . S
C143 O144 1.160 . S
C143 O150 1.185 . S
O144 C143 1.160 . S
O145 Zn146 1.899 . S
O145 C153 1.284 . S
Zn146 O145 1.899 . S
Zn146 O147 2.032 1_554 S
Zn146 O150 2.086 . S
Zn146 O155 1.977 . S
O147 Zn146 2.032 1_556 S
O147 C151 1.278 . S
C148 O149 1.203 . S
C148 O155 1.267 . S
O149 C148 1.203 . S
O150 C143 1.185 . S
O150 Zn146 2.086 . S
C151 O147 1.278 . S
C151 O152 1.211 . S
O152 C151 1.211 . S
C153 O145 1.284 . S
C153 O154 1.273 . S
O154 C153 1.273 . S
O155 Zn146 1.977 . S
O155 C148 1.267 . S
C156 O157 1.160 . S
C156 O163 1.185 . S
O157 C156 1.160 . S
O158 Zn159 1.899 . S
O158 C166 1.284 . S
Zn159 O158 1.899 . S
Zn159 O160 2.032 1_554 S
Zn159 O163 2.086 . S
Zn159 O168 1.977 . S
O160 Zn159 2.032 1_556 S
O160 C164 1.278 . S
C161 O162 1.203 . S
C161 O168 1.267 . S
O162 C161 1.203 . S
O163 C156 1.185 . S
O163 Zn159 2.086 . S
C164 O160 1.278 . S
C164 O165 1.211 . S
O165 C164 1.211 . S
C166 O158 1.284 . S
C166 O167 1.273 . S
O167 C166 1.273 . S
O168 Zn159 1.977 . S
O168 C161 1.267 . S
C169 O170 1.160 . S
C169 O176 1.185 . S
O170 C169 1.160 . S
O171 Zn172 1.899 . S
O171 C179 1.284 . S
Zn172 O171 1.899 . S
Zn172 O173 2.032 1_554 S
Zn172 O176 2.086 . S
Zn172 O181 1.977 . S
O173 Zn172 2.032 1_556 S
O173 C177 1.278 . S
C174 O175 1.203 . S
C174 O181 1.267 . S
O175 C174 1.203 . S
O176 C169 1.185 . S
O176 Zn172 2.086 . S
C177 O173 1.278 . S
C177 O178 1.211 . S
O178 C177 1.211 . S
C179 O171 1.284 . S
C179 O180 1.273 . S
O180 C179 1.273 . S
O181 Zn172 1.977 . S
O181 C174 1.267 . S
C182 O183 1.160 . S
C182 O189 1.185 . S
O183 C182 1.160 . S
O184 Zn185 1.899 . S
O184 C192 1.284 . S
Zn185 O184 1.899 . S
Zn185 O186 2.032 . S
Zn185 O189 2.086 . S
Zn185 O194 1.977 . S
O186 Zn185 2.032 . S
O186 C190 1.278 . S
C187 O188 1.203 . S
C187 O194 1.267 . S
O188 C187 1.203 . S
O189 C182 1.185 . S
O189 Zn185 2.086 . S
C190 O186 1.278 . S
C190 O191 1.211 . S
O191 C190 1.211 . S
C192 O184 1.284 . S
C192 O193 1.273 . S
O193 C192 1.273 . S
O194 Zn185 1.977 . S
O194 C187 1.267 . S
C195 O196 1.160 . S
C195 O202 1.185 . S
O196 C195 1.160 . S
O197 Zn198 1.899 . S
O197 C205 1.284 . S
Zn198 O197 1.899 . S
Zn198 O199 2.032 . S
Zn198 O202 2.086 . S
Zn198 O207 1.977 . S
O199 Zn198 2.032 . S
O199 C203 1.278 . S
C200 O201 1.203 . S
C200 O207 1.267 . S
O201 C200 1.203 . S
O202 C195 1.185 . S
O202 Zn198 2.086 . S
C203 O199 1.278 . S
C203 O204 1.211 . S
O204 C203 1.211 . S
C205 O197 1.284 . S
C205 O206 1.273 . S
O206 C205 1.273 . S
O207 Zn198 1.977 . S
O207 C200 1.267 . S
C208 O209 1.160 . S
C208 O215 1.185 . S
O209 C208 1.160 . S
O210 Zn211 1.899 . S
O210 C218 1.284 . S
Zn211 O210 1.899 . S
Zn211 O212 2.032 . S
Zn211 O215 2.086 . S
Zn211 O220 1.977 . S
O212 Zn211 2.032 . S
O212 C216 1.278 . S
C213 O214 1.203 . S
C213 O220 1.267 . S
O214 C213 1.203 . S
O215 C208 1.185 . S
O215 Zn211 2.086 . S
C216 O212 1.278 . S
C216 O217 1.211 . S
O217 C216 1.211 . S
C218 O210 1.284 . S
C218 O219 1.273 . S
O219 C218 1.273 . S
O220 Zn211 1.977 . S
O220 C213 1.267 . S
C221 O222 1.160 . S
C221 O228 1.185 . S
O222 C221 1.160 . S
O223 Zn224 1.899 . S
O223 C231 1.284 . S
Zn224 O223 1.899 . S
Zn224 O225 2.032 . S
Zn224 O228 2.086 . S
Zn224 O233 1.977 . S
O225 Zn224 2.032 . S
O225 C229 1.278 . S
C226 O227 1.203 . S
C226 O233 1.267 . S
O227 C226 1.203 . S
O228 C221 1.185 . S
O228 Zn224 2.086 . S
C229 O225 1.278 . S
C229 O230 1.211 . S
O230 C229 1.211 . S
C231 O223 1.284 . S
C231 O232 1.273 . S
O232 C231 1.273 . S
O233 Zn224 1.977 . S
O233 C226 1.267 . S
C234 O235 1.160 . S
C234 O241 1.185 . S
O235 C234 1.160 . S
O236 Zn237 1.899 . S
O236 C244 1.284 . S
Zn237 O236 1.899 . S
Zn237 O238 2.032 . S
Zn237 O241 2.086 . S
Zn237 O246 1.977 . S
O238 Zn237 2.032 . S
O238 C242 1.278 . S
C239 O240 1.203 . S
C239 O246 1.267 . S
O240 C239 1.203 . S
O241 C234 1.185 . S
O241 Zn237 2.086 . S
C242 O238 1.278 . S
C242 O243 1.211 . S
O243 C242 1.211 . S
C244 O236 1.284 . S
C244 O245 1.273 . S
O245 C244 1.273 . S
O246 Zn237 1.977 . S
O246 C239 1.267 . S
C247 O248 1.160 . S
C247 O254 1.185 . S
O248 C247 1.160 . S
O249 Zn250 1.899 . S
O249 C257 1.284 . S
Zn250 O249 1.899 . S
Zn250 O251 2.032 . S
Zn250 O254 2.086 . S
Zn250 O259 1.977 . S
O251 Zn250 2.032 . S
O251 C255 1.278 . S
C252 O253 1.203 . S
C252 O259 1.267 . S
O253 C252 1.203 . S
O254 C247 1.185 . S
O254 Zn250 2.086 . S
C255 O251 1.278 . S
C255 O256 1.211 . S
O256 C255 1.211 . S
C257 O249 1.284 . S
C257 O258 1.273 . S
O258 C257 1.273 . S
O259 Zn250 1.977 . S
O259 C252 1.267 . S
C260 O261 1.160 . S
C260 O267 1.196 . S
O261 C260 1.160 . S
O262 Zn263 1.899 . S
O262 C270 1.284 . S
Zn263 O262 1.899 . S
Zn263 O264 2.032 1_554 S
Zn263 O267 2.094 . S
Zn263 O272 1.977 1_554 S
O264 Zn263 2.032 1_556 S
O264 C268 1.278 . S
C265 O266 1.203 . S
C265 O272 1.267 1_554 S
O266 C265 1.203 . S
O267 C260 1.196 . S
O267 Zn263 2.094 . S
C268 O264 1.278 . S
C268 O269 1.211 . S
O269 C268 1.211 . S
C270 O262 1.284 . S
C270 O271 1.273 . S
O271 C270 1.273 . S
O272 Zn263 1.977 1_556 S
O272 C265 1.267 1_556 S
C273 O274 1.160 . S
C273 O280 1.185 . S
O274 C273 1.160 . S
O275 Zn276 1.899 . S
O275 C283 1.284 . S
Zn276 O275 1.899 . S
Zn276 O277 2.032 . S
Zn276 O280 2.086 . S
Zn276 O285 1.977 . S
O277 Zn276 2.032 . S
O277 C281 1.278 . S
C278 O279 1.203 . S
C278 O285 1.267 . S
O279 C278 1.203 . S
O280 C273 1.185 . S
O280 Zn276 2.086 . S
C281 O277 1.278 . S
C281 O282 1.211 . S
O282 C281 1.211 . S
C283 O275 1.284 . S
C283 O284 1.273 . S
O284 C283 1.273 . S
O285 Zn276 1.977 . S
O285 C278 1.267 . S
C286 O287 1.160 . S
C286 O293 1.185 . S
O287 C286 1.160 . S
O288 Zn289 1.899 . S
O288 C296 1.284 . S
Zn289 O288 1.899 . S
Zn289 O290 2.032 . S
Zn289 O293 2.086 . S
Zn289 O298 1.977 . S
O290 Zn289 2.032 . S
O290 C294 1.278 . S
C291 O292 1.203 . S
C291 O298 1.267 . S
O292 C291 1.203 . S
O293 C286 1.185 . S
O293 Zn289 2.086 . S
C294 O290 1.278 . S
C294 O295 1.211 . S
O295 C294 1.211 . S
C296 O288 1.284 . S
C296 O297 1.273 . S
O297 C296 1.273 . S
O298 Zn289 1.977 . S
O298 C291 1.267 . S
C299 O300 1.160 . S
C299 O306 1.185 . S
O300 C299 1.160 . S
O301 Zn302 1.899 . S
O301 C309 1.284 . S
Zn302 O301 1.899 . S
Zn302 O303 2.032 . S
Zn302 O306 2.086 . S
Zn302 O311 1.977 . S
O303 Zn302 2.032 . S
O303 C307 1.278 . S
C304 O305 1.203 . S
C304 O311 1.267 . S
O305 C304 1.203 . S
O306 C299 1.185 . S
O306 Zn302 2.086 . S
C307 O303 1.278 . S
C307 O308 1.211 . S
O308 C307 1.211 . S
C309 O301 1.284 . S
C309 O310 1.273 . S
O310 C309 1.273 . S
O311 Zn302 1.977 . S
O311 C304 1.267 . S
Ho312 C315 2.811 1_455 S
Ho312 O332 2.322 . S
Ho312 O334 2.378 1_455 S
Ho312 O335 2.524 1_456 S
Ho312 O336 2.381 . S
Ho312 O337 2.669 . S
Ho312 O339 2.346 1_546 S
Ho312 O343 2.305 1_556 S
Ho313 C324 2.811 . S
Ho313 O333 2.346 . S
Ho313 O337 2.305 1_554 S
Ho313 O338 2.322 . S
Ho313 O340 2.378 . S
Ho313 O341 2.524 . S
Ho313 O342 2.381 . S
Ho313 O343 2.669 . S
C314 O332 1.259 1_554 S
C314 O333 1.268 . S
C315 Ho312 2.811 1_655 S
C315 C316 1.488 . S
C315 O334 1.215 . S
C315 O335 1.289 1_556 S
C316 C315 1.488 . S
C316 C317 1.348 . S
C316 C321 1.413 . S
C317 C316 1.348 . S
C317 C318 1.442 . S
C317 H344 0.930 1_556 S
C318 C317 1.442 . S
C318 C319 1.381 . S
C318 H345 0.931 1_556 S
C319 C318 1.381 . S
C319 C320 1.321 . S
C320 C319 1.321 . S
C320 C321 1.403 . S
C320 H346 0.934 . S
C321 C316 1.413 . S
C321 C320 1.403 . S
C321 H347 0.930 . S
C322 O336 1.275 . S
C322 O337 1.256 . S
C323 O338 1.259 1_565 S
C323 O339 1.268 . S
C324 Ho313 2.811 . S
C324 C325 1.488 . S
C324 O340 1.215 . S
C324 O341 1.289 . S
C325 C324 1.488 . S
C325 C326 1.348 . S
C325 C330 1.413 . S
C326 C325 1.348 . S
C326 C327 1.442 1_545 S
C326 H348 0.930 1_545 S
C327 C326 1.442 1_565 S
C327 C328 1.381 1_565 S
C327 H349 0.931 . S
C328 C327 1.381 1_545 S
C328 C329 1.321 . S
C329 C328 1.321 . S
C329 C330 1.403 . S
C329 H350 0.934 . S
C330 C325 1.413 . S
C330 C329 1.403 . S
C330 H351 0.930 . S
C331 O342 1.275 . S
C331 O343 1.256 . S
O332 Ho312 2.322 . S
O332 C314 1.259 1_556 S
O333 Ho313 2.346 . S
O333 C314 1.268 . S
O334 Ho312 2.378 1_655 S
O334 C315 1.215 . S
O335 Ho312 2.524 1_654 S
O335 C315 1.289 1_554 S
O336 Ho312 2.381 . S
O336 C322 1.275 . S
O337 Ho312 2.669 . S
O337 Ho313 2.305 1_556 S
O337 C322 1.256 . S
O338 Ho313 2.322 . S
O338 C323 1.259 1_545 S
O339 Ho312 2.346 1_564 S
O339 C323 1.268 . S
O340 Ho313 2.378 . S
O340 C324 1.215 . S
O341 Ho313 2.524 . S
O341 C324 1.289 . S
O342 Ho313 2.381 . S
O342 C331 1.275 . S
O343 Ho312 2.305 1_554 S
O343 Ho313 2.669 . S
O343 C331 1.256 . S
H344 C317 0.930 1_554 S
H345 C318 0.931 1_554 S
H346 C320 0.934 . S
H347 C321 0.930 . S
H348 C326 0.930 1_565 S
H349 C327 0.931 . S
H350 C329 0.934 . S
H351 C330 0.930 . S
Ho352 C355 2.811 . S
Ho352 O372 2.322 . S
Ho352 O374 2.378 . S
Ho352 O375 2.524 . S
Ho352 O376 2.381 . S
Ho352 O377 2.669 . S
Ho352 O379 2.346 . S
Ho352 O383 2.305 . S
Ho353 C364 2.811 . S
Ho353 O373 2.346 . S
Ho353 O377 2.305 . S
Ho353 O378 2.322 . S
Ho353 O380 2.378 . S
Ho353 O381 2.524 . S
Ho353 O382 2.381 . S
Ho353 O383 2.669 . S
C354 O372 1.259 . S
C354 O373 1.268 . S
C355 Ho352 2.811 . S
C355 C356 1.488 . S
C355 O374 1.215 . S
C355 O375 1.289 . S
C356 C355 1.488 . S
C356 C357 1.348 . S
C356 C361 1.413 . S
C357 C356 1.348 . S
C357 C358 1.442 . S
C357 H384 0.930 . S
C358 C357 1.442 . S
C358 C359 1.381 . S
C358 H385 0.931 . S
C359 C358 1.381 . S
C359 C360 1.321 . S
C360 C359 1.321 . S
C360 C361 1.403 . S
C360 H386 0.934 . S
C361 C356 1.413 . S
C361 C360 1.403 . S
C361 H387 0.930 . S
C362 O376 1.275 . S
C362 O377 1.256 . S
C363 O378 1.259 . S
C363 O379 1.268 . S
C364 Ho353 2.811 . S
C364 C365 1.488 . S
C364 O380 1.215 . S
C364 O381 1.289 . S
C365 C364 1.488 . S
C365 C366 1.348 . S
C365 C370 1.413 . S
C366 C365 1.348 . S
C366 C367 1.442 . S
C366 H388 0.930 . S
C367 C366 1.442 . S
C367 C368 1.381 . S
C367 H389 0.931 . S
C368 C367 1.381 . S
C368 C369 1.321 . S
C369 C368 1.321 . S
C369 C370 1.403 . S
C369 H390 0.934 . S
C370 C365 1.413 . S
C370 C369 1.403 . S
C370 H391 0.930 . S
C371 O382 1.275 . S
C371 O383 1.256 . S
O372 Ho352 2.322 . S
O372 C354 1.259 . S
O373 Ho353 2.346 . S
O373 C354 1.268 . S
O374 Ho352 2.378 . S
O374 C355 1.215 . S
O375 Ho352 2.524 . S
O375 C355 1.289 . S
O376 Ho352 2.381 . S
O376 C362 1.275 . S
O377 Ho352 2.669 . S
O377 Ho353 2.305 . S
O377 C362 1.256 . S
O378 Ho353 2.322 . S
O378 C363 1.259 . S
O379 Ho352 2.346 . S
O379 C363 1.268 . S
O380 Ho353 2.378 . S
O380 C364 1.215 . S
O381 Ho353 2.524 . S
O381 C364 1.289 . S
O382 Ho353 2.381 . S
O382 C371 1.275 . S
O383 Ho352 2.305 . S
O383 Ho353 2.669 . S
O383 C371 1.256 . S
H384 C357 0.930 . S
H385 C358 0.931 . S
H386 C360 0.934 . S
H387 C361 0.930 . S
H388 C366 0.930 . S
H389 C367 0.931 . S
H390 C369 0.934 . S
H391 C370 0.930 . S
Ho392 C395 2.811 . S
Ho392 O412 2.354 . S
Ho392 O414 2.378 . S
Ho392 O415 2.524 . S
Ho392 O416 2.381 . S
Ho392 O417 2.669 . S
Ho392 O419 2.346 . S
Ho392 O423 2.305 . S
Ho393 C404 2.811 . S
Ho393 O413 2.346 1_545 S
Ho393 O417 2.305 . S
Ho393 O418 2.322 . S
Ho393 O420 2.378 . S
Ho393 O421 2.524 . S
Ho393 O422 2.381 . S
Ho393 O423 2.669 . S
C394 O412 1.240 1_565 S
C394 O413 1.268 . S
C395 Ho392 2.811 . S
C395 C396 1.488 1_545 S
C395 O414 1.215 . S
C395 O415 1.289 . S
C396 C395 1.488 1_565 S
C396 C397 1.348 . S
C396 C401 1.413 . S
C397 C396 1.348 . S
C397 C398 1.442 . S
C397 H424 0.930 . S
C398 C397 1.442 . S
C398 C399 1.381 . S
C398 H425 0.931 . S
C399 C398 1.381 . S
C399 C400 1.321 . S
C400 C399 1.321 . S
C400 C401 1.403 . S
C400 H426 0.934 . S
C401 C396 1.413 . S
C401 C400 1.403 . S
C401 H427 0.928 . S
C402 O416 1.275 . S
C402 O417 1.256 . S
C403 O418 1.259 . S
C403 O419 1.268 . S
C404 Ho393 2.811 . S
C404 C405 1.488 . S
C404 O420 1.215 . S
C404 O421 1.289 . S
C405 C404 1.488 . S
C405 C406 1.348 . S
C405 C410 1.413 . S
C406 C405 1.348 . S
C406 C407 1.442 . S
C406 H428 0.930 . S
C407 C406 1.442 . S
C407 C408 1.381 . S
C407 H429 0.931 . S
C408 C407 1.381 . S
C408 C409 1.321 . S
C409 C408 1.321 . S
C409 C410 1.403 . S
C409 H430 0.934 . S
C410 C405 1.413 . S
C410 C409 1.403 . S
C410 H431 0.930 . S
C411 O422 1.275 . S
C411 O423 1.256 . S
O412 Ho392 2.354 . S
O412 C394 1.240 1_545 S
O413 Ho393 2.346 1_565 S
O413 C394 1.268 . S
O414 Ho392 2.378 . S
O414 C395 1.215 . S
O415 Ho392 2.524 . S
O415 C395 1.289 . S
O416 Ho392 2.381 . S
O416 C402 1.275 . S
O417 Ho392 2.669 . S
O417 Ho393 2.305 . S
O417 C402 1.256 . S
O418 Ho393 2.322 . S
O418 C403 1.259 . S
O419 Ho392 2.346 . S
O419 C403 1.268 . S
O420 Ho393 2.378 . S
O420 C404 1.215 . S
O421 Ho393 2.524 . S
O421 C404 1.289 . S
O422 Ho393 2.381 . S
O422 C411 1.275 . S
O423 Ho392 2.305 . S
O423 Ho393 2.669 . S
O423 C411 1.256 . S
H424 C397 0.930 . S
H425 C398 0.931 . S
H426 C400 0.934 . S
H427 C401 0.928 . S
H428 C406 0.930 . S
H429 C407 0.931 . S
H430 C409 0.934 . S
H431 C410 0.930 . S
Ho432 C435 2.811 . S
Ho432 O452 2.322 . S
Ho432 O454 2.378 . S
Ho432 O455 2.524 . S
Ho432 O456 2.381 . S
Ho432 O457 2.669 . S
Ho432 O459 2.346 . S
Ho432 O463 2.305 . S
Ho433 C444 2.811 . S
Ho433 O453 2.346 . S
Ho433 O457 2.305 . S
Ho433 O458 2.322 . S
Ho433 O460 2.378 . S
Ho433 O461 2.524 . S
Ho433 O462 2.381 . S
Ho433 O463 2.669 . S
C434 O452 1.259 . S
C434 O453 1.268 . S
C435 Ho432 2.811 . S
C435 C436 1.488 . S
C435 O454 1.215 . S
C435 O455 1.289 . S
C436 C435 1.488 . S
C436 C437 1.348 . S
C436 C441 1.413 . S
C437 C436 1.348 . S
C437 C438 1.442 . S
C437 H464 0.930 . S
C438 C437 1.442 . S
C438 C439 1.381 . S
C438 H465 0.931 . S
C439 C438 1.381 . S
C439 C440 1.321 . S
C440 C439 1.321 . S
C440 C441 1.403 . S
C440 H466 0.934 . S
C441 C436 1.413 . S
C441 C440 1.403 . S
C441 H467 0.930 . S
C442 O456 1.275 . S
C442 O457 1.256 . S
C443 O458 1.259 . S
C443 O459 1.268 . S
C444 Ho433 2.811 . S
C444 C445 1.488 . S
C444 O460 1.215 . S
C444 O461 1.289 . S
C445 C444 1.488 . S
C445 C446 1.348 . S
C445 C450 1.413 . S
C446 C445 1.348 . S
C446 C447 1.442 . S
C446 H468 0.930 . S
C447 C446 1.442 . S
C447 C448 1.381 . S
C447 H469 0.931 . S
C448 C447 1.381 . S
C448 C449 1.321 . S
C449 C448 1.321 . S
C449 C450 1.403 . S
C449 H470 0.934 . S
C450 C445 1.413 . S
C450 C449 1.403 . S
C450 H471 0.930 . S
C451 O462 1.275 . S
C451 O463 1.256 . S
O452 Ho432 2.322 . S
O452 C434 1.259 . S
O453 Ho433 2.346 . S
O453 C434 1.268 . S
O454 Ho432 2.378 . S
O454 C435 1.215 . S
O455 Ho432 2.524 . S
O455 C435 1.289 . S
O456 Ho432 2.381 . S
O456 C442 1.275 . S
O457 Ho432 2.669 . S
O457 Ho433 2.305 . S
O457 C442 1.256 . S
O458 Ho433 2.322 . S
O458 C443 1.259 . S
O459 Ho432 2.346 . S
O459 C443 1.268 . S
O460 Ho433 2.378 . S
O460 C444 1.215 . S
O461 Ho433 2.524 . S
O461 C444 1.289 . S
O462 Ho433 2.381 . S
O462 C451 1.275 . S
O463 Ho432 2.305 . S
O463 Ho433 2.669 . S
O463 C451 1.256 . S
H464 C437 0.930 . S
H465 C438 0.931 . S
H466 C440 0.934 . S
H467 C441 0.930 . S
H468 C446 0.930 . S
H469 C447 0.931 . S
H470 C449 0.934 . S
H471 C450 0.930 . S
Ho472 C475 2.811 . S
Ho472 O492 2.322 . S
Ho472 O494 2.378 . S
Ho472 O495 2.524 . S
Ho472 O496 2.381 . S
Ho472 O497 2.669 . S
Ho472 O499 2.346 . S
Ho472 O503 2.305 . S
Ho473 C484 2.811 1_545 S
Ho473 O493 2.346 . S
Ho473 O497 2.305 . S
Ho473 O498 2.322 . S
Ho473 O500 2.378 1_545 S
Ho473 O501 2.524 1_545 S
Ho473 O502 2.381 . S
Ho473 O503 2.669 . S
C474 O492 1.259 . S
C474 O493 1.268 . S
C475 Ho472 2.811 . S
C475 C476 1.488 . S
C475 O494 1.215 . S
C475 O495 1.289 . S
C476 C475 1.488 . S
C476 C477 1.348 . S
C476 C481 1.413 . S
C477 C476 1.348 . S
C477 C478 1.442 . S
C477 H504 0.930 . S
C478 C477 1.442 . S
C478 C479 1.381 . S
C478 H505 0.931 . S
C479 C478 1.381 . S
C479 C480 1.321 . S
C480 C479 1.321 . S
C480 C481 1.403 . S
C480 H506 0.934 . S
C481 C476 1.413 . S
C481 C480 1.403 . S
C481 H507 0.930 . S
C482 O496 1.275 . S
C482 O497 1.256 . S
C483 O498 1.259 . S
C483 O499 1.268 . S
C484 Ho473 2.811 1_565 S
C484 C485 1.488 . S
C484 O500 1.215 . S
C484 O501 1.289 . S
C485 C484 1.488 . S
C485 C486 1.348 . S
C485 C490 1.413 . S
C486 C485 1.348 . S
C486 C487 1.442 . S
C486 H508 0.930 . S
C487 C486 1.442 . S
C487 C488 1.381 . S
C487 H509 0.931 . S
C488 C487 1.381 . S
C488 C489 1.321 . S
C489 C488 1.321 . S
C489 C490 1.403 . S
C489 H510 0.934 . S
C490 C485 1.413 . S
C490 C489 1.403 . S
C490 H511 0.930 . S
C491 O502 1.275 . S
C491 O503 1.256 . S
O492 Ho472 2.322 . S
O492 C474 1.259 . S
O493 Ho473 2.346 . S
O493 C474 1.268 . S
O494 Ho472 2.378 . S
O494 C475 1.215 . S
O495 Ho472 2.524 . S
O495 C475 1.289 . S
O496 Ho472 2.381 . S
O496 C482 1.275 . S
O497 Ho472 2.669 . S
O497 Ho473 2.305 . S
O497 C482 1.256 . S
O498 Ho473 2.322 . S
O498 C483 1.259 . S
O499 Ho472 2.346 . S
O499 C483 1.268 . S
O500 Ho473 2.378 1_565 S
O500 C484 1.215 . S
O501 Ho473 2.524 1_565 S
O501 C484 1.289 . S
O502 Ho473 2.381 . S
O502 C491 1.275 . S
O503 Ho472 2.305 . S
O503 Ho473 2.669 . S
O503 C491 1.256 . S
H504 C477 0.930 . S
H505 C478 0.931 . S
H506 C480 0.934 . S
H507 C481 0.930 . S
H508 C486 0.930 . S
H509 C487 0.931 . S
H510 C489 0.934 . S
H511 C490 0.930 . S
Ho512 C515 2.811 . S
Ho512 O532 2.322 . S
Ho512 O534 2.378 . S
Ho512 O535 2.524 . S
Ho512 O536 2.381 . S
Ho512 O537 2.669 . S
Ho512 O539 2.346 . S
Ho512 O543 2.305 . S
Ho513 C524 2.811 . S
Ho513 O533 2.346 . S
Ho513 O537 2.305 . S
Ho513 O538 2.322 . S
Ho513 O540 2.378 . S
Ho513 O541 2.524 . S
Ho513 O542 2.381 . S
Ho513 O543 2.669 . S
C514 O532 1.259 . S
C514 O533 1.268 . S
C515 Ho512 2.811 . S
C515 C516 1.488 . S
C515 O534 1.215 . S
C515 O535 1.289 . S
C516 C515 1.488 . S
C516 C517 1.348 . S
C516 C521 1.413 . S
C517 C516 1.348 . S
C517 C518 1.442 . S
C517 H544 0.930 . S
C518 C517 1.442 . S
C518 C519 1.381 . S
C518 H545 0.931 . S
C519 C518 1.381 . S
C519 C520 1.321 . S
C520 C519 1.321 . S
C520 C521 1.403 . S
C520 H546 0.934 . S
C521 C516 1.413 . S
C521 C520 1.403 . S
C521 H547 0.930 . S
C522 O536 1.275 . S
C522 O537 1.256 . S
C523 O538 1.259 . S
C523 O539 1.268 . S
C524 Ho513 2.811 . S
C524 C525 1.488 . S
C524 O540 1.215 . S
C524 O541 1.289 . S
C525 C524 1.488 . S
C525 C526 1.348 . S
C525 C530 1.413 . S
C526 C525 1.348 . S
C526 C527 1.442 . S
C526 H548 0.930 . S
C527 C526 1.442 . S
C527 C528 1.381 . S
C527 H549 0.931 . S
C528 C527 1.381 . S
C528 C529 1.321 . S
C529 C528 1.321 . S
C529 C530 1.403 . S
C529 H550 0.934 . S
C530 C525 1.413 . S
C530 C529 1.403 . S
C530 H551 0.930 . S
C531 O542 1.275 . S
C531 O543 1.256 . S
O532 Ho512 2.322 . S
O532 C514 1.259 . S
O533 Ho513 2.346 . S
O533 C514 1.268 . S
O534 Ho512 2.378 . S
O534 C515 1.215 . S
O535 Ho512 2.524 . S
O535 C515 1.289 . S
O536 Ho512 2.381 . S
O536 C522 1.275 . S
O537 Ho512 2.669 . S
O537 Ho513 2.305 . S
O537 C522 1.256 . S
O538 Ho513 2.322 . S
O538 C523 1.259 . S
O539 Ho512 2.346 . S
O539 C523 1.268 . S
O540 Ho513 2.378 . S
O540 C524 1.215 . S
O541 Ho513 2.524 . S
O541 C524 1.289 . S
O542 Ho513 2.381 . S
O542 C531 1.275 . S
O543 Ho512 2.305 . S
O543 Ho513 2.669 . S
O543 C531 1.256 . S
H544 C517 0.930 . S
H545 C518 0.931 . S
H546 C520 0.934 . S
H547 C521 0.930 . S
H548 C526 0.930 . S
H549 C527 0.931 . S
H550 C529 0.934 . S
H551 C530 0.930 . S
Ho552 C555 2.811 . S
Ho552 O572 2.322 . S
Ho552 O574 2.378 1_545 S
Ho552 O575 2.524 . S
Ho552 O576 2.381 1_545 S
Ho552 O577 2.629 1_554 S
Ho552 O579 2.346 . S
Ho552 O583 2.305 . S
Ho553 C564 2.811 . S
Ho553 O573 2.346 . S
Ho553 O577 2.326 . S
Ho553 O578 2.322 1_556 S
Ho553 O580 2.378 . S
Ho553 O581 2.524 . S
Ho553 O582 2.381 1_556 S
Ho553 O583 2.669 1_556 S
C554 O572 1.259 . S
C554 O573 1.268 1_554 S
C555 Ho552 2.811 . S
C555 C556 1.497 . S
C555 O574 1.215 1_545 S
C555 O575 1.289 . S
C556 C555 1.497 . S
C556 C557 1.367 . S
C556 C561 1.384 1_545 S
C557 C556 1.367 . S
C557 C558 1.442 . S
C557 H584 0.930 . S
C558 C557 1.442 . S
C558 C559 1.381 1_545 S
C558 H585 0.931 . S
C559 C558 1.381 1_565 S
C559 C560 1.321 . S
C560 C559 1.321 . S
C560 C561 1.403 . S
C560 H586 0.934 . S
C561 C556 1.384 1_565 S
C561 C560 1.403 . S
C561 H587 0.930 . S
C562 O576 1.275 . S
C562 O577 1.243 1_564 S
C563 O578 1.259 . S
C563 O579 1.268 . S
C564 Ho553 2.811 . S
C564 C565 1.488 . S
C564 O580 1.215 . S
C564 O581 1.289 . S
C565 C564 1.488 . S
C565 C566 1.348 . S
C565 C570 1.413 . S
C566 C565 1.348 . S
C566 C567 1.442 . S
C566 H588 0.930 . S
C567 C566 1.442 . S
C567 C568 1.381 . S
C567 H589 0.931 . S
C568 C567 1.381 . S
C568 C569 1.321 . S
C569 C568 1.321 . S
C569 C570 1.403 . S
C569 H590 0.934 . S
C570 C565 1.413 . S
C570 C569 1.403 . S
C570 H591 0.930 . S
C571 O582 1.275 . S
C571 O583 1.256 . S
O572 Ho552 2.322 . S
O572 C554 1.259 . S
O573 Ho553 2.346 . S
O573 C554 1.268 1_556 S
O574 Ho552 2.378 1_565 S
O574 C555 1.215 1_565 S
O575 Ho552 2.524 . S
O575 C555 1.289 . S
O576 Ho552 2.381 1_565 S
O576 C562 1.275 . S
O577 Ho552 2.629 1_556 S
O577 Ho553 2.326 . S
O577 C562 1.243 1_546 S
O578 Ho553 2.322 1_554 S
O578 C563 1.259 . S
O579 Ho552 2.346 . S
O579 C563 1.268 . S
O580 Ho553 2.378 . S
O580 C564 1.215 . S
O581 Ho553 2.524 . S
O581 C564 1.289 . S
O582 Ho553 2.381 1_554 S
O582 C571 1.275 . S
O583 Ho552 2.305 . S
O583 Ho553 2.669 1_554 S
O583 C571 1.256 . S
H584 C557 0.930 . S
H585 C558 0.931 . S
H586 C560 0.934 . S
H587 C561 0.930 . S
H588 C566 0.930 . S
H589 C567 0.931 . S
H590 C569 0.934 . S
H591 C570 0.930 . S
Ho592 C595 2.811 . S
Ho592 O612 2.322 . S
Ho592 O614 2.378 . S
Ho592 O615 2.524 . S
Ho592 O616 2.381 . S
Ho592 O617 2.669 . S
Ho592 O619 2.346 . S
Ho592 O623 2.305 . S
Ho593 C604 2.811 . S
Ho593 O613 2.346 . S
Ho593 O617 2.305 . S
Ho593 O618 2.322 . S
Ho593 O620 2.378 . S
Ho593 O621 2.524 . S
Ho593 O622 2.381 . S
Ho593 O623 2.669 . S
C594 O612 1.259 . S
C594 O613 1.268 . S
C595 Ho592 2.811 . S
C595 C596 1.488 . S
C595 O614 1.215 . S
C595 O615 1.289 . S
C596 C595 1.488 . S
C596 C597 1.348 . S
C596 C601 1.413 . S
C597 C596 1.348 . S
C597 C598 1.442 . S
C597 H624 0.930 . S
C598 C597 1.442 . S
C598 C599 1.381 . S
C598 H625 0.931 . S
C599 C598 1.381 . S
C599 C600 1.321 . S
C600 C599 1.321 . S
C600 C601 1.403 . S
C600 H626 0.934 . S
C601 C596 1.413 . S
C601 C600 1.403 . S
C601 H627 0.930 . S
C602 O616 1.275 . S
C602 O617 1.256 . S
C603 O618 1.259 . S
C603 O619 1.268 . S
C604 Ho593 2.811 . S
C604 C605 1.488 . S
C604 O620 1.215 . S
C604 O621 1.289 . S
C605 C604 1.488 . S
C605 C606 1.348 . S
C605 C610 1.413 . S
C606 C605 1.348 . S
C606 C607 1.442 . S
C606 H628 0.930 . S
C607 C606 1.442 . S
C607 C608 1.381 . S
C607 H629 0.931 . S
C608 C607 1.381 . S
C608 C609 1.321 . S
C609 C608 1.321 . S
C609 C610 1.403 . S
C609 H630 0.934 . S
C610 C605 1.413 . S
C610 C609 1.403 . S
C610 H631 0.930 . S
C611 O622 1.275 . S
C611 O623 1.256 . S
O612 Ho592 2.322 . S
O612 C594 1.259 . S
O613 Ho593 2.346 . S
O613 C594 1.268 . S
O614 Ho592 2.378 . S
O614 C595 1.215 . S
O615 Ho592 2.524 . S
O615 C595 1.289 . S
O616 Ho592 2.381 . S
O616 C602 1.275 . S
O617 Ho592 2.669 . S
O617 Ho593 2.305 . S
O617 C602 1.256 . S
O618 Ho593 2.322 . S
O618 C603 1.259 . S
O619 Ho592 2.346 . S
O619 C603 1.268 . S
O620 Ho593 2.378 . S
O620 C604 1.215 . S
O621 Ho593 2.524 . S
O621 C604 1.289 . S
O622 Ho593 2.381 . S
O622 C611 1.275 . S
O623 Ho592 2.305 . S
O623 Ho593 2.669 . S
O623 C611 1.256 . S
H624 C597 0.930 . S
H625 C598 0.931 . S
H626 C600 0.934 . S
H627 C601 0.930 . S
H628 C606 0.930 . S
H629 C607 0.931 . S
H630 C609 0.934 . S
H631 C610 0.930 . S
Ho632 C635 2.811 . S
Ho632 O652 2.322 1_554 S
Ho632 O654 2.378 . S
Ho632 O655 2.524 . S
Ho632 O656 2.381 . S
Ho632 O657 2.669 . S
Ho632 O659 2.346 . S
Ho632 O663 2.305 . S
Ho633 C644 2.811 . S
Ho633 O653 2.346 1_554 S
Ho633 O657 2.305 . S
Ho633 O658 2.322 . S
Ho633 O660 2.378 . S
Ho633 O661 2.524 . S
Ho633 O662 2.381 . S
Ho633 O663 2.669 . S
C634 O652 1.259 . S
C634 O653 1.268 . S
C635 Ho632 2.811 . S
C635 C636 1.488 1_554 S
C635 O654 1.215 . S
C635 O655 1.289 . S
C636 C635 1.488 1_556 S
C636 C637 1.348 . S
C636 C641 1.413 . S
C637 C636 1.348 . S
C637 C638 1.442 . S
C637 H664 0.930 . S
C638 C637 1.442 . S
C638 C639 1.381 . S
C638 H665 0.931 . S
C639 C638 1.381 . S
C639 C640 1.321 . S
C640 C639 1.321 . S
C640 C641 1.403 . S
C640 H666 0.934 . S
C641 C636 1.413 . S
C641 C640 1.403 . S
C641 H667 0.930 1_556 S
C642 O656 1.275 . S
C642 O657 1.256 . S
C643 O658 1.259 . S
C643 O659 1.268 . S
C644 Ho633 2.811 . S
C644 C645 1.488 . S
C644 O660 1.215 . S
C644 O661 1.289 . S
C645 C644 1.488 . S
C645 C646 1.348 . S
C645 C650 1.413 . S
C646 C645 1.348 . S
C646 C647 1.442 . S
C646 H668 0.930 . S
C647 C646 1.442 . S
C647 C648 1.381 . S
C647 H669 0.931 . S
C648 C647 1.381 . S
C648 C649 1.321 . S
C649 C648 1.321 . S
C649 C650 1.403 . S
C649 H670 0.934 . S
C650 C645 1.413 . S
C650 C649 1.403 . S
C650 H671 0.930 . S
C651 O662 1.275 . S
C651 O663 1.256 . S
O652 Ho632 2.322 1_556 S
O652 C634 1.259 . S
O653 Ho633 2.346 1_556 S
O653 C634 1.268 . S
O654 Ho632 2.378 . S
O654 C635 1.215 . S
O655 Ho632 2.524 . S
O655 C635 1.289 . S
O656 Ho632 2.381 . S
O656 C642 1.275 . S
O657 Ho632 2.669 . S
O657 Ho633 2.305 . S
O657 C642 1.256 . S
O658 Ho633 2.322 . S
O658 C643 1.259 . S
O659 Ho632 2.346 . S
O659 C643 1.268 . S
O660 Ho633 2.378 . S
O660 C644 1.215 . S
O661 Ho633 2.524 . S
O661 C644 1.289 . S
O662 Ho633 2.381 . S
O662 C651 1.275 . S
O663 Ho632 2.305 . S
O663 Ho633 2.669 . S
O663 C651 1.256 . S
H664 C637 0.930 . S
H665 C638 0.931 . S
H666 C640 0.934 . S
H667 C641 0.930 1_554 S
H668 C646 0.930 . S
H669 C647 0.931 . S
H670 C649 0.934 . S
H671 C650 0.930 . S
Ho672 C675 2.811 . S
Ho672 O692 2.322 . S
Ho672 O694 2.378 . S
Ho672 O695 2.524 . S
Ho672 O696 2.381 . S
Ho672 O697 2.669 . S
Ho672 O699 2.346 . S
Ho672 O703 2.305 . S
Ho673 C684 2.811 . S
Ho673 O693 2.346 . S
Ho673 O697 2.305 . S
Ho673 O698 2.322 . S
Ho673 O700 2.378 . S
Ho673 O701 2.524 . S
Ho673 O702 2.381 . S
Ho673 O703 2.669 . S
C674 O692 1.259 . S
C674 O693 1.268 . S
C675 Ho672 2.811 . S
C675 C676 1.488 . S
C675 O694 1.215 . S
C675 O695 1.289 . S
C676 C675 1.488 . S
C676 C677 1.348 . S
C676 C681 1.413 . S
C677 C676 1.348 . S
C677 C678 1.442 . S
C677 H704 0.930 . S
C678 C677 1.442 . S
C678 C679 1.381 . S
C678 H705 0.931 . S
C679 C678 1.381 . S
C679 C680 1.321 . S
C680 C679 1.321 . S
C680 C681 1.403 . S
C680 H706 0.934 . S
C681 C676 1.413 . S
C681 C680 1.403 . S
C681 H707 0.930 . S
C682 O696 1.275 . S
C682 O697 1.256 . S
C683 O698 1.259 . S
C683 O699 1.268 . S
C684 Ho673 2.811 . S
C684 C685 1.488 . S
C684 O700 1.215 . S
C684 O701 1.289 . S
C685 C684 1.488 . S
C685 C686 1.348 . S
C685 C690 1.413 . S
C686 C685 1.348 . S
C686 C687 1.442 . S
C686 H708 0.930 . S
C687 C686 1.442 . S
C687 C688 1.381 . S
C687 H709 0.931 . S
C688 C687 1.381 . S
C688 C689 1.321 . S
C689 C688 1.321 . S
C689 C690 1.403 . S
C689 H710 0.934 . S
C690 C685 1.413 . S
C690 C689 1.403 . S
C690 H711 0.930 . S
C691 O702 1.275 . S
C691 O703 1.256 . S
O692 Ho672 2.322 . S
O692 C674 1.259 . S
O693 Ho673 2.346 . S
O693 C674 1.268 . S
O694 Ho672 2.378 . S
O694 C675 1.215 . S
O695 Ho672 2.524 . S
O695 C675 1.289 . S
O696 Ho672 2.381 . S
O696 C682 1.275 . S
O697 Ho672 2.669 . S
O697 Ho673 2.305 . S
O697 C682 1.256 . S
O698 Ho673 2.322 . S
O698 C683 1.259 . S
O699 Ho672 2.346 . S
O699 C683 1.268 . S
O700 Ho673 2.378 . S
O700 C684 1.215 . S
O701 Ho673 2.524 . S
O701 C684 1.289 . S
O702 Ho673 2.381 . S
O702 C691 1.275 . S
O703 Ho672 2.305 . S
O703 Ho673 2.669 . S
O703 C691 1.256 . S
H704 C677 0.930 . S
H705 C678 0.931 . S
H706 C680 0.934 . S
H707 C681 0.930 . S
H708 C686 0.930 . S
H709 C687 0.931 . S
H710 C689 0.934 . S
H711 C690 0.930 . S
Ho712 C715 2.811 . S
Ho712 O732 2.322 . S
Ho712 O734 2.378 . S
Ho712 O735 2.524 . S
Ho712 O736 2.381 . S
Ho712 O737 2.669 . S
Ho712 O739 2.346 . S
Ho712 O743 2.305 . S
Ho713 C724 2.811 . S
Ho713 O733 2.346 . S
Ho713 O737 2.305 . S
Ho713 O738 2.322 . S
Ho713 O740 2.378 . S
Ho713 O741 2.524 . S
Ho713 O742 2.381 . S
Ho713 O743 2.669 . S
C714 O732 1.259 . S
C714 O733 1.268 . S
C715 Ho712 2.811 . S
C715 C716 1.488 . S
C715 O734 1.215 . S
C715 O735 1.289 . S
C716 C715 1.488 . S
C716 C717 1.348 . S
C716 C721 1.413 . S
C717 C716 1.348 . S
C717 C718 1.442 1_455 S
C717 H744 0.930 . S
C718 C717 1.442 1_655 S
C718 C719 1.381 . S
C718 H745 0.931 . S
C719 C718 1.381 . S
C719 C720 1.321 1_655 S
C720 C719 1.321 1_455 S
C720 C721 1.403 . S
C720 H746 0.934 . S
C721 C716 1.413 . S
C721 C720 1.403 . S
C721 H747 0.930 . S
C722 O736 1.275 . S
C722 O737 1.256 . S
C723 O738 1.259 . S
C723 O739 1.268 . S
C724 Ho713 2.811 . S
C724 C725 1.488 . S
C724 O740 1.215 . S
C724 O741 1.289 . S
C725 C724 1.488 . S
C725 C726 1.348 . S
C725 C730 1.413 . S
C726 C725 1.348 . S
C726 C727 1.442 . S
C726 H748 0.930 . S
C727 C726 1.442 . S
C727 C728 1.381 . S
C727 H749 0.931 . S
C728 C727 1.381 . S
C728 C729 1.321 . S
C729 C728 1.321 . S
C729 C730 1.403 . S
C729 H750 0.934 . S
C730 C725 1.413 . S
C730 C729 1.403 . S
C730 H751 0.930 . S
C731 O742 1.275 . S
C731 O743 1.256 . S
O732 Ho712 2.322 . S
O732 C714 1.259 . S
O733 Ho713 2.346 . S
O733 C714 1.268 . S
O734 Ho712 2.378 . S
O734 C715 1.215 . S
O735 Ho712 2.524 . S
O735 C715 1.289 . S
O736 Ho712 2.381 . S
O736 C722 1.275 . S
O737 Ho712 2.669 . S
O737 Ho713 2.305 . S
O737 C722 1.256 . S
O738 Ho713 2.322 . S
O738 C723 1.259 . S
O739 Ho712 2.346 . S
O739 C723 1.268 . S
O740 Ho713 2.378 . S
O740 C724 1.215 . S
O741 Ho713 2.524 . S
O741 C724 1.289 . S
O742 Ho713 2.381 . S
O742 C731 1.275 . S
O743 Ho712 2.305 . S
O743 Ho713 2.669 . S
O743 C731 1.256 . S
H744 C717 0.930 . S
H745 C718 0.931 . S
H746 C720 0.934 . S
H747 C721 0.930 . S
H748 C726 0.930 . S
H749 C727 0.931 . S
H750 C729 0.934 . S
H751 C730 0.930 . S
Ho752 C755 2.811 . S
Ho752 O772 2.322 . S
Ho752 O774 2.378 . S
Ho752 O775 2.524 . S
Ho752 O776 2.381 . S
Ho752 O777 2.669 . S
Ho752 O779 2.346 . S
Ho752 O783 2.305 . S
Ho753 C764 2.811 . S
Ho753 O773 2.346 . S
Ho753 O777 2.305 . S
Ho753 O778 2.322 . S
Ho753 O780 2.378 . S
Ho753 O781 2.524 . S
Ho753 O782 2.381 . S
Ho753 O783 2.669 . S
C754 O772 1.259 . S
C754 O773 1.268 . S
C755 Ho752 2.811 . S
C755 C756 1.488 . S
C755 O774 1.215 . S
C755 O775 1.289 . S
C756 C755 1.488 . S
C756 C757 1.348 . S
C756 C761 1.413 . S
C757 C756 1.348 . S
C757 C758 1.442 . S
C757 H784 0.930 . S
C758 C757 1.442 . S
C758 C759 1.381 . S
C758 H785 0.931 . S
C759 C758 1.381 . S
C759 C760 1.321 . S
C760 C759 1.321 . S
C760 C761 1.403 . S
C760 H786 0.934 . S
C761 C756 1.413 . S
C761 C760 1.403 . S
C761 H787 0.930 . S
C762 O776 1.275 . S
C762 O777 1.256 . S
C763 O778 1.259 . S
C763 O779 1.268 . S
C764 Ho753 2.811 . S
C764 C765 1.488 . S
C764 O780 1.215 . S
C764 O781 1.289 . S
C765 C764 1.488 . S
C765 C766 1.348 . S
C765 C770 1.413 . S
C766 C765 1.348 . S
C766 C767 1.442 . S
C766 H788 0.930 . S
C767 C766 1.442 . S
C767 C768 1.381 . S
C767 H789 0.931 . S
C768 C767 1.381 . S
C768 C769 1.321 . S
C769 C768 1.321 . S
C769 C770 1.403 . S
C769 H790 0.934 . S
C770 C765 1.413 . S
C770 C769 1.403 . S
C770 H791 0.930 . S
C771 O782 1.275 . S
C771 O783 1.256 . S
O772 Ho752 2.322 . S
O772 C754 1.259 . S
O773 Ho753 2.346 . S
O773 C754 1.268 . S
O774 Ho752 2.378 . S
O774 C755 1.215 . S
O775 Ho752 2.524 . S
O775 C755 1.289 . S
O776 Ho752 2.381 . S
O776 C762 1.275 . S
O777 Ho752 2.669 . S
O777 Ho753 2.305 . S
O777 C762 1.256 . S
O778 Ho753 2.322 . S
O778 C763 1.259 . S
O779 Ho752 2.346 . S
O779 C763 1.268 . S
O780 Ho753 2.378 . S
O780 C764 1.215 . S
O781 Ho753 2.524 . S
O781 C764 1.289 . S
O782 Ho753 2.381 . S
O782 C771 1.275 . S
O783 Ho752 2.305 . S
O783 Ho753 2.669 . S
O783 C771 1.256 . S
H784 C757 0.930 . S
H785 C758 0.931 . S
H786 C760 0.934 . S
H787 C761 0.930 . S
H788 C766 0.930 . S
H789 C767 0.931 . S
H790 C769 0.934 . S
H791 C770 0.930 . S
Ho792 C795 2.811 . S
Ho792 O812 2.322 . S
Ho792 O814 2.378 . S
Ho792 O815 2.524 . S
Ho792 O816 2.381 . S
Ho792 O817 2.669 . S
Ho792 O819 2.346 . S
Ho792 O823 2.305 . S
Ho793 C804 2.811 . S
Ho793 O813 2.346 . S
Ho793 O817 2.305 . S
Ho793 O818 2.322 . S
Ho793 O820 2.378 . S
Ho793 O821 2.524 . S
Ho793 O822 2.381 . S
Ho793 O823 2.669 . S
C794 O812 1.259 . S
C794 O813 1.268 . S
C795 Ho792 2.811 . S
C795 C796 1.488 . S
C795 O814 1.215 . S
C795 O815 1.289 . S
C796 C795 1.488 . S
C796 C797 1.348 . S
C796 C801 1.413 . S
C797 C796 1.348 . S
C797 C798 1.442 . S
C797 H824 0.930 . S
C798 C797 1.442 . S
C798 C799 1.381 . S
C798 H825 0.931 . S
C799 C798 1.381 . S
C799 C800 1.321 . S
C800 C799 1.321 . S
C800 C801 1.403 . S
C800 H826 0.934 . S
C801 C796 1.413 . S
C801 C800 1.403 . S
C801 H827 0.930 . S
C802 O816 1.275 . S
C802 O817 1.256 . S
C803 O818 1.259 . S
C803 O819 1.268 . S
C804 Ho793 2.811 . S
C804 C805 1.488 . S
C804 O820 1.215 . S
C804 O821 1.289 . S
C805 C804 1.488 . S
C805 C806 1.348 . S
C805 C810 1.413 . S
C806 C805 1.348 . S
C806 C807 1.442 . S
C806 H828 0.930 . S
C807 C806 1.442 . S
C807 C808 1.381 . S
C807 H829 0.931 . S
C808 C807 1.381 . S
C808 C809 1.321 . S
C809 C808 1.321 . S
C809 C810 1.403 . S
C809 H830 0.934 . S
C810 C805 1.413 . S
C810 C809 1.403 . S
C810 H831 0.930 . S
C811 O822 1.275 . S
C811 O823 1.256 . S
O812 Ho792 2.322 . S
O812 C794 1.259 . S
O813 Ho793 2.346 . S
O813 C794 1.268 . S
O814 Ho792 2.378 . S
O814 C795 1.215 . S
O815 Ho792 2.524 . S
O815 C795 1.289 . S
O816 Ho792 2.381 . S
O816 C802 1.275 . S
O817 Ho792 2.669 . S
O817 Ho793 2.305 . S
O817 C802 1.256 . S
O818 Ho793 2.322 . S
O818 C803 1.259 . S
O819 Ho792 2.346 . S
O819 C803 1.268 . S
O820 Ho793 2.378 . S
O820 C804 1.215 . S
O821 Ho793 2.524 . S
O821 C804 1.289 . S
O822 Ho793 2.381 . S
O822 C811 1.275 . S
O823 Ho792 2.305 . S
O823 Ho793 2.669 . S
O823 C811 1.256 . S
H824 C797 0.930 . S
H825 C798 0.931 . S
H826 C800 0.934 . S
H827 C801 0.930 . S
H828 C806 0.930 . S
H829 C807 0.931 . S
H830 C809 0.934 . S
H831 C810 0.930 . S
Ho832 C835 2.811 . S
Ho832 O852 2.322 . S
Ho832 O854 2.378 . S
Ho832 O855 2.524 . S
Ho832 O856 2.381 . S
Ho832 O857 2.669 . S
Ho832 O859 2.346 . S
Ho832 O863 2.305 . S
Ho833 C844 2.811 . S
Ho833 O853 2.346 . S
Ho833 O857 2.305 . S
Ho833 O858 2.322 . S
Ho833 O860 2.378 . S
Ho833 O861 2.524 . S
Ho833 O862 2.381 . S
Ho833 O863 2.669 . S
C834 O852 1.259 . S
C834 O853 1.268 . S
C835 Ho832 2.811 . S
C835 C836 1.488 . S
C835 O854 1.215 . S
C835 O855 1.289 . S
C836 C835 1.488 . S
C836 C837 1.348 . S
C836 C841 1.413 . S
C837 C836 1.348 . S
C837 C838 1.442 . S
C837 H864 0.930 . S
C838 C837 1.442 . S
C838 C839 1.381 . S
C838 H865 0.931 . S
C839 C838 1.381 . S
C839 C840 1.321 . S
C840 C839 1.321 . S
C840 C841 1.403 . S
C840 H866 0.934 . S
C841 C836 1.413 . S
C841 C840 1.403 . S
C841 H867 0.930 . S
C842 O856 1.275 . S
C842 O857 1.256 . S
C843 O858 1.259 . S
C843 O859 1.268 . S
C844 Ho833 2.811 . S
C844 C845 1.488 . S
C844 O860 1.215 . S
C844 O861 1.289 . S
C845 C844 1.488 . S
C845 C846 1.348 . S
C845 C850 1.413 . S
C846 C845 1.348 . S
C846 C847 1.442 . S
C846 H868 0.930 . S
C847 C846 1.442 . S
C847 C848 1.381 . S
C847 H869 0.931 . S
C848 C847 1.381 . S
C848 C849 1.321 . S
C849 C848 1.321 . S
C849 C850 1.403 . S
C849 H870 0.934 . S
C850 C845 1.413 . S
C850 C849 1.403 . S
C850 H871 0.930 . S
C851 O862 1.275 . S
C851 O863 1.256 . S
O852 Ho832 2.322 . S
O852 C834 1.259 . S
O853 Ho833 2.346 . S
O853 C834 1.268 . S
O854 Ho832 2.378 . S
O854 C835 1.215 . S
O855 Ho832 2.524 . S
O855 C835 1.289 . S
O856 Ho832 2.381 . S
O856 C842 1.275 . S
O857 Ho832 2.669 . S
O857 Ho833 2.305 . S
O857 C842 1.256 . S
O858 Ho833 2.322 . S
O858 C843 1.259 . S
O859 Ho832 2.346 . S
O859 C843 1.268 . S
O860 Ho833 2.378 . S
O860 C844 1.215 . S
O861 Ho833 2.524 . S
O861 C844 1.289 . S
O862 Ho833 2.381 . S
O862 C851 1.275 . S
O863 Ho832 2.305 . S
O863 Ho833 2.669 . S
O863 C851 1.256 . S
H864 C837 0.930 . S
H865 C838 0.931 . S
H866 C840 0.934 . S
H867 C841 0.930 . S
H868 C846 0.930 . S
H869 C847 0.931 . S
H870 C849 0.934 . S
H871 C850 0.930 . S
Ho872 C875 2.811 . S
Ho872 O892 2.322 . S
Ho872 O894 2.378 . S
Ho872 O895 2.524 . S
Ho872 O896 2.381 . S
Ho872 O897 2.669 . S
Ho872 O899 2.346 . S
Ho872 O903 2.305 . S
Ho873 C884 2.811 . S
Ho873 O893 2.346 . S
Ho873 O897 2.305 . S
Ho873 O898 2.322 . S
Ho873 O900 2.378 . S
Ho873 O901 2.524 . S
Ho873 O902 2.381 . S
Ho873 O903 2.669 . S
C874 O892 1.259 . S
C874 O893 1.268 . S
C875 Ho872 2.811 . S
C875 C876 1.488 . S
C875 O894 1.215 . S
C875 O895 1.289 . S
C876 C875 1.488 . S
C876 C877 1.348 . S
C876 C881 1.413 . S
C877 C876 1.348 . S
C877 C878 1.442 . S
C877 H904 0.930 . S
C878 C877 1.442 . S
C878 C879 1.381 . S
C878 H905 0.931 . S
C879 C878 1.381 . S
C879 C880 1.321 . S
C880 C879 1.321 . S
C880 C881 1.403 . S
C880 H906 0.934 . S
C881 C876 1.413 . S
C881 C880 1.403 . S
C881 H907 0.930 . S
C882 O896 1.275 . S
C882 O897 1.256 . S
C883 O898 1.259 . S
C883 O899 1.268 . S
C884 Ho873 2.811 . S
C884 C885 1.488 . S
C884 O900 1.215 . S
C884 O901 1.289 . S
C885 C884 1.488 . S
C885 C886 1.348 . S
C885 C890 1.413 . S
C886 C885 1.348 . S
C886 C887 1.442 . S
C886 H908 0.930 . S
C887 C886 1.442 . S
C887 C888 1.381 . S
C887 H909 0.931 . S
C888 C887 1.381 . S
C888 C889 1.321 . S
C889 C888 1.321 . S
C889 C890 1.403 . S
C889 H910 0.934 . S
C890 C885 1.413 . S
C890 C889 1.403 . S
C890 H911 0.930 . S
C891 O902 1.275 . S
C891 O903 1.256 . S
O892 Ho872 2.322 . S
O892 C874 1.259 . S
O893 Ho873 2.346 . S
O893 C874 1.268 . S
O894 Ho872 2.378 . S
O894 C875 1.215 . S
O895 Ho872 2.524 . S
O895 C875 1.289 . S
O896 Ho872 2.381 . S
O896 C882 1.275 . S
O897 Ho872 2.669 . S
O897 Ho873 2.305 . S
O897 C882 1.256 . S
O898 Ho873 2.322 . S
O898 C883 1.259 . S
O899 Ho872 2.346 . S
O899 C883 1.268 . S
O900 Ho873 2.378 . S
O900 C884 1.215 . S
O901 Ho873 2.524 . S
O901 C884 1.289 . S
O902 Ho873 2.381 . S
O902 C891 1.275 . S
O903 Ho872 2.305 . S
O903 Ho873 2.669 . S
O903 C891 1.256 . S
H904 C877 0.930 . S
H905 C878 0.931 . S
H906 C880 0.934 . S
H907 C881 0.930 . S
H908 C886 0.930 . S
H909 C887 0.931 . S
H910 C889 0.934 . S
H911 C890 0.930 . S
Ho912 C915 2.811 . S
Ho912 O932 2.322 . S
Ho912 O934 2.378 . S
Ho912 O935 2.524 1_556 S
Ho912 O936 2.381 . S
Ho912 O937 2.669 . S
Ho912 O939 2.346 1_556 S
Ho912 O943 2.305 1_556 S
Ho913 C924 2.811 1_455 S
Ho913 O933 2.346 . S
Ho913 O937 2.305 1_554 S
Ho913 O938 2.322 . S
Ho913 O940 2.378 1_455 S
Ho913 O941 2.524 1_455 S
Ho913 O942 2.381 . S
Ho913 O943 2.669 . S
C914 O932 1.259 . S
C914 O933 1.268 1_556 S
C915 Ho912 2.811 . S
C915 C916 1.488 . S
C915 O934 1.215 . S
C915 O935 1.289 1_556 S
C916 C915 1.488 . S
C916 C917 1.348 1_556 S
C916 C921 1.413 . S
C917 C916 1.348 1_554 S
C917 C918 1.442 1_554 S
C917 H944 0.930 . S
C918 C917 1.442 1_556 S
C918 C919 1.381 . S
C918 H945 0.931 1_556 S
C919 C918 1.381 . S
C919 C920 1.321 . S
C920 C919 1.321 . S
C920 C921 1.403 . S
C920 H946 0.934 . S
C921 C916 1.413 . S
C921 C920 1.403 . S
C921 H947 0.930 . S
C922 O936 1.275 . S
C922 O937 1.256 . S
C923 O938 1.259 . S
C923 O939 1.268 . S
C924 Ho913 2.811 1_655 S
C924 C925 1.488 . S
C924 O940 1.215 . S
C924 O941 1.289 . S
C925 C924 1.488 . S
C925 C926 1.348 . S
C925 C930 1.413 . S
C926 C925 1.348 . S
C926 C927 1.442 . S
C926 H948 0.932 . S
C927 C926 1.442 . S
C927 C928 1.381 . S
C927 H949 0.931 . S
C928 C927 1.381 . S
C928 C929 1.321 . S
C929 C928 1.321 . S
C929 C930 1.403 . S
C929 H950 0.934 . S
C930 C925 1.413 . S
C930 C929 1.403 . S
C930 H951 0.930 . S
C931 O942 1.275 . S
C931 O943 1.256 . S
O932 Ho912 2.322 . S
O932 C914 1.259 . S
O933 Ho913 2.346 . S
O933 C914 1.268 1_554 S
O934 Ho912 2.378 . S
O934 C915 1.215 . S
O935 Ho912 2.524 1_554 S
O935 C915 1.289 1_554 S
O936 Ho912 2.381 . S
O936 C922 1.275 . S
O937 Ho912 2.669 . S
O937 Ho913 2.305 1_556 S
O937 C922 1.256 . S
O938 Ho913 2.322 . S
O938 C923 1.259 . S
O939 Ho912 2.346 1_554 S
O939 C923 1.268 . S
O940 Ho913 2.378 1_655 S
O940 C924 1.215 . S
O941 Ho913 2.524 1_655 S
O941 C924 1.289 . S
O942 Ho913 2.381 . S
O942 C931 1.275 . S
O943 Ho912 2.305 1_554 S
O943 Ho913 2.669 . S
O943 C931 1.256 . S
H944 C917 0.930 . S
H945 C918 0.931 1_554 S
H946 C920 0.934 . S
H947 C921 0.930 . S
H948 C926 0.932 . S
H949 C927 0.931 . S
H950 C929 0.934 . S
H951 C930 0.930 . S
H952 C964 0.930 1_655 S
H953 C966 0.930 . S
H954 C967 0.930 . S
H955 C971 0.959 1_455 S
H956 C971 0.959 . S
H957 C971 0.965 . S
H958 C972 0.960 . S
H959 C972 0.961 . S
H960 C972 0.959 . S
H961 C975 0.929 . S
H962 C976 0.931 . S
H963 C978 0.930 . S
C964 H952 0.930 1_455 S
C964 C965 1.399 . S
C964 C969 1.399 . S
C965 C964 1.399 . S
C965 C966 1.376 . S
C966 H953 0.930 . S
C966 C965 1.376 . S
C966 C967 1.388 . S
C967 H954 0.930 . S
C967 C966 1.388 . S
C967 C968 1.390 . S
C968 C967 1.390 . S
C968 C969 1.394 . S
C968 C974 1.465 . S
C969 C964 1.399 . S
C969 C968 1.394 . S
C969 C970 1.519 . S
C970 C969 1.519 . S
C970 C971 1.496 1_456 S
C970 C972 1.557 1_455 S
C970 C973 1.534 . S
C971 H955 0.959 1_655 S
C971 H956 0.959 . S
C971 H957 0.965 . S
C971 C970 1.496 1_654 S
C972 H958 0.960 . S
C972 H959 0.961 . S
C972 H960 0.959 . S
C972 C970 1.557 1_655 S
C973 C970 1.534 . S
C973 C974 1.396 . S
C973 C978 1.390 . S
C974 C968 1.465 . S
C974 C973 1.396 . S
C974 C975 1.399 . S
C975 H961 0.929 . S
C975 C974 1.399 . S
C975 C976 1.385 . S
C976 H962 0.931 . S
C976 C975 1.385 . S
C976 C977 1.389 . S
C977 C976 1.389 . S
C977 C978 1.387 . S
C978 H963 0.930 . S
C978 C973 1.390 . S
C978 C977 1.387 . S
H979 C991 0.930 . S
H980 C993 0.930 . S
H981 C994 0.930 . S
H982 C998 0.959 . S
H983 C998 0.959 . S
H984 C998 0.961 . S
H985 C999 0.960 . S
H986 C999 0.961 . S
H987 C999 0.959 . S
H988 C1002 0.929 . S
H989 C1003 0.931 . S
H990 C1005 0.930 . S
C991 H979 0.930 . S
C991 C992 1.399 . S
C991 C996 1.399 . S
C992 C991 1.399 . S
C992 C993 1.376 . S
C993 H980 0.930 . S
C993 C992 1.376 . S
C993 C994 1.388 . S
C994 H981 0.930 . S
C994 C993 1.388 . S
C994 C995 1.390 . S
C995 C994 1.390 . S
C995 C996 1.394 . S
C995 C1001 1.465 . S
C996 C991 1.399 . S
C996 C995 1.394 . S
C996 C997 1.516 . S
C997 C996 1.516 . S
C997 C998 1.502 . S
C997 C999 1.561 . S
C997 C1000 1.526 . S
C998 H982 0.959 . S
C998 H983 0.959 . S
C998 H984 0.961 . S
C998 C997 1.502 . S
C999 H985 0.960 . S
C999 H986 0.961 . S
C999 H987 0.959 . S
C999 C997 1.561 . S
C1000 C997 1.526 . S
C1000 C1001 1.396 . S
C1000 C1005 1.390 . S
C1001 C995 1.465 . S
C1001 C1000 1.396 . S
C1001 C1002 1.399 . S
C1002 H988 0.929 . S
C1002 C1001 1.399 . S
C1002 C1003 1.385 . S
C1003 H989 0.931 . S
C1003 C1002 1.385 . S
C1003 C1004 1.389 . S
C1004 C1003 1.389 . S
C1004 C1005 1.387 . S
C1005 H990 0.930 . S
C1005 C1000 1.390 . S
C1005 C1004 1.387 . S
H1006 C1018 0.930 . S
H1007 C1020 0.930 . S
H1008 C1021 0.930 . S
H1009 C1025 0.959 . S
H1010 C1025 0.959 . S
H1011 C1025 0.961 . S
H1012 C1026 0.960 . S
H1013 C1026 0.961 . S
H1014 C1026 0.959 . S
H1015 C1029 0.929 . S
H1016 C1030 0.931 . S
H1017 C1032 0.930 . S
C1018 H1006 0.930 . S
C1018 C1019 1.399 . S
C1018 C1023 1.399 . S
C1019 C1018 1.399 . S
C1019 C1020 1.376 . S
C1020 H1007 0.930 . S
C1020 C1019 1.376 . S
C1020 C1021 1.388 . S
C1021 H1008 0.930 . S
C1021 C1020 1.388 . S
C1021 C1022 1.390 . S
C1022 C1021 1.390 . S
C1022 C1023 1.394 . S
C1022 C1028 1.465 . S
C1023 C1018 1.399 . S
C1023 C1022 1.394 . S
C1023 C1024 1.516 . S
C1024 C1023 1.516 . S
C1024 C1025 1.502 . S
C1024 C1026 1.561 . S
C1024 C1027 1.526 . S
C1025 H1009 0.959 . S
C1025 H1010 0.959 . S
C1025 H1011 0.961 . S
C1025 C1024 1.502 . S
C1026 H1012 0.960 . S
C1026 H1013 0.961 . S
C1026 H1014 0.959 . S
C1026 C1024 1.561 . S
C1027 C1024 1.526 . S
C1027 C1028 1.396 . S
C1027 C1032 1.390 . S
C1028 C1022 1.465 . S
C1028 C1027 1.396 . S
C1028 C1029 1.399 . S
C1029 H1015 0.929 . S
C1029 C1028 1.399 . S
C1029 C1030 1.385 . S
C1030 H1016 0.931 . S
C1030 C1029 1.385 . S
C1030 C1031 1.389 . S
C1031 C1030 1.389 . S
C1031 C1032 1.387 . S
C1032 H1017 0.930 . S
C1032 C1027 1.390 . S
C1032 C1031 1.387 . S
H1033 C1045 0.930 . S
H1034 C1047 0.930 . S
H1035 C1048 0.930 . S
H1036 C1052 0.959 . S
H1037 C1052 0.959 . S
H1038 C1052 0.961 . S
H1039 C1053 0.960 . S
H1040 C1053 0.961 . S
H1041 C1053 0.959 . S
H1042 C1056 0.929 . S
H1043 C1057 0.931 . S
H1044 C1059 0.930 . S
C1045 H1033 0.930 . S
C1045 C1046 1.399 . S
C1045 C1050 1.399 . S
C1046 C1045 1.399 . S
C1046 C1047 1.376 . S
C1047 H1034 0.930 . S
C1047 C1046 1.376 . S
C1047 C1048 1.388 . S
C1048 H1035 0.930 . S
C1048 C1047 1.388 . S
C1048 C1049 1.390 . S
C1049 C1048 1.390 . S
C1049 C1050 1.394 . S
C1049 C1055 1.465 . S
C1050 C1045 1.399 . S
C1050 C1049 1.394 . S
C1050 C1051 1.516 . S
C1051 C1050 1.516 . S
C1051 C1052 1.502 . S
C1051 C1053 1.561 . S
C1051 C1054 1.526 . S
C1052 H1036 0.959 . S
C1052 H1037 0.959 . S
C1052 H1038 0.961 . S
C1052 C1051 1.502 . S
C1053 H1039 0.960 . S
C1053 H1040 0.961 . S
C1053 H1041 0.959 . S
C1053 C1051 1.561 . S
C1054 C1051 1.526 . S
C1054 C1055 1.396 . S
C1054 C1059 1.390 . S
C1055 C1049 1.465 . S
C1055 C1054 1.396 . S
C1055 C1056 1.399 . S
C1056 H1042 0.929 . S
C1056 C1055 1.399 . S
C1056 C1057 1.385 . S
C1057 H1043 0.931 . S
C1057 C1056 1.385 . S
C1057 C1058 1.389 . S
C1058 C1057 1.389 . S
C1058 C1059 1.387 . S
C1059 H1044 0.930 . S
C1059 C1054 1.390 . S
C1059 C1058 1.387 . S
H1060 C1072 0.930 . S
H1061 C1074 0.930 . S
H1062 C1075 0.952 . S
H1063 C1079 0.959 . S
H1064 C1079 0.959 . S
H1065 C1079 0.961 . S
H1066 C1080 0.960 . S
H1067 C1080 0.961 . S
H1068 C1080 0.959 . S
H1069 C1083 0.929 . S
H1070 C1084 0.931 . S
H1071 C1086 0.930 . S
C1072 H1060 0.930 . S
C1072 C1073 1.399 . S
C1072 C1077 1.399 . S
C1073 C1072 1.399 . S
C1073 C1074 1.376 1_455 S
C1074 H1061 0.930 . S
C1074 C1073 1.376 1_655 S
C1074 C1075 1.388 1_655 S
C1075 H1062 0.952 . S
C1075 C1074 1.388 1_455 S
C1075 C1076 1.390 . S
C1076 C1075 1.390 . S
C1076 C1077 1.394 . S
C1076 C1082 1.465 . S
C1077 C1072 1.399 . S
C1077 C1076 1.394 . S
C1077 C1078 1.516 . S
C1078 C1077 1.516 . S
C1078 C1079 1.502 . S
C1078 C1080 1.561 . S
C1078 C1081 1.526 . S
C1079 H1063 0.959 . S
C1079 H1064 0.959 . S
C1079 H1065 0.961 . S
C1079 C1078 1.502 . S
C1080 H1066 0.960 . S
C1080 H1067 0.961 . S
C1080 H1068 0.959 . S
C1080 C1078 1.561 . S
C1081 C1078 1.526 . S
C1081 C1082 1.396 . S
C1081 C1086 1.390 . S
C1082 C1076 1.465 . S
C1082 C1081 1.396 . S
C1082 C1083 1.399 . S
C1083 H1069 0.929 . S
C1083 C1082 1.399 . S
C1083 C1084 1.385 . S
C1084 H1070 0.931 . S
C1084 C1083 1.385 . S
C1084 C1085 1.389 . S
C1085 C1084 1.389 . S
C1085 C1086 1.387 . S
C1086 H1071 0.930 . S
C1086 C1081 1.390 . S
C1086 C1085 1.387 . S
H1087 C1099 0.930 . S
H1088 C1101 0.930 . S
H1089 C1102 0.930 . S
H1090 C1106 0.959 . S
H1091 C1106 0.959 . S
H1092 C1106 0.961 . S
H1093 C1107 0.960 . S
H1094 C1107 0.961 . S
H1095 C1107 0.959 . S
H1096 C1110 0.929 . S
H1097 C1111 0.931 . S
H1098 C1113 0.930 . S
C1099 H1087 0.930 . S
C1099 C1100 1.399 . S
C1099 C1104 1.399 . S
C1100 C1099 1.399 . S
C1100 C1101 1.376 . S
C1101 H1088 0.930 . S
C1101 C1100 1.376 . S
C1101 C1102 1.388 . S
C1102 H1089 0.930 . S
C1102 C1101 1.388 . S
C1102 C1103 1.390 . S
C1103 C1102 1.390 . S
C1103 C1104 1.394 . S
C1103 C1109 1.465 . S
C1104 C1099 1.399 . S
C1104 C1103 1.394 . S
C1104 C1105 1.516 . S
C1105 C1104 1.516 . S
C1105 C1106 1.502 . S
C1105 C1107 1.561 . S
C1105 C1108 1.526 . S
C1106 H1090 0.959 . S
C1106 H1091 0.959 . S
C1106 H1092 0.961 . S
C1106 C1105 1.502 . S
C1107 H1093 0.960 . S
C1107 H1094 0.961 . S
C1107 H1095 0.959 . S
C1107 C1105 1.561 . S
C1108 C1105 1.526 . S
C1108 C1109 1.396 . S
C1108 C1113 1.390 . S
C1109 C1103 1.465 . S
C1109 C1108 1.396 . S
C1109 C1110 1.399 . S
C1110 H1096 0.929 . S
C1110 C1109 1.399 . S
C1110 C1111 1.385 . S
C1111 H1097 0.931 . S
C1111 C1110 1.385 . S
C1111 C1112 1.389 . S
C1112 C1111 1.389 . S
C1112 C1113 1.387 . S
C1113 H1098 0.930 . S
C1113 C1108 1.390 . S
C1113 C1112 1.387 . S
H1114 C1126 0.930 . S
H1115 C1128 0.930 . S
H1116 C1129 0.930 . S
H1117 C1133 0.959 . S
H1118 C1133 0.959 . S
H1119 C1133 0.961 . S
H1120 C1134 0.960 . S
H1121 C1134 0.961 . S
H1122 C1134 0.959 . S
H1123 C1137 0.929 . S
H1124 C1138 0.931 . S
H1125 C1140 0.930 . S
C1126 H1114 0.930 . S
C1126 C1127 1.399 . S
C1126 C1131 1.399 . S
C1127 C1126 1.399 . S
C1127 C1128 1.376 . S
C1128 H1115 0.930 . S
C1128 C1127 1.376 . S
C1128 C1129 1.388 . S
C1129 H1116 0.930 . S
C1129 C1128 1.388 . S
C1129 C1130 1.390 . S
C1130 C1129 1.390 . S
C1130 C1131 1.394 . S
C1130 C1136 1.465 . S
C1131 C1126 1.399 . S
C1131 C1130 1.394 . S
C1131 C1132 1.516 . S
C1132 C1131 1.516 . S
C1132 C1133 1.502 . S
C1132 C1134 1.561 . S
C1132 C1135 1.526 . S
C1133 H1117 0.959 . S
C1133 H1118 0.959 . S
C1133 H1119 0.961 . S
C1133 C1132 1.502 . S
C1134 H1120 0.960 . S
C1134 H1121 0.961 . S
C1134 H1122 0.959 . S
C1134 C1132 1.561 . S
C1135 C1132 1.526 . S
C1135 C1136 1.396 . S
C1135 C1140 1.390 . S
C1136 C1130 1.465 . S
C1136 C1135 1.396 . S
C1136 C1137 1.399 . S
C1137 H1123 0.929 . S
C1137 C1136 1.399 . S
C1137 C1138 1.385 . S
C1138 H1124 0.931 . S
C1138 C1137 1.385 . S
C1138 C1139 1.389 . S
C1139 C1138 1.389 . S
C1139 C1140 1.387 . S
C1140 H1125 0.930 . S
C1140 C1135 1.390 . S
C1140 C1139 1.387 . S
H1141 C1153 0.930 . S
H1142 C1155 0.930 . S
H1143 C1156 0.930 . S
H1144 C1160 0.959 . S
H1145 C1160 0.959 . S
H1146 C1160 0.961 . S
H1147 C1161 0.960 . S
H1148 C1161 0.961 . S
H1149 C1161 0.959 . S
H1150 C1164 0.929 . S
H1151 C1165 0.931 . S
H1152 C1167 0.930 . S
C1153 H1141 0.930 . S
C1153 C1154 1.399 . S
C1153 C1158 1.399 . S
C1154 C1153 1.399 . S
C1154 C1155 1.376 . S
C1155 H1142 0.930 . S
C1155 C1154 1.376 . S
C1155 C1156 1.388 . S
C1156 H1143 0.930 . S
C1156 C1155 1.388 . S
C1156 C1157 1.390 . S
C1157 C1156 1.390 . S
C1157 C1158 1.394 . S
C1157 C1163 1.465 . S
C1158 C1153 1.399 . S
C1158 C1157 1.394 . S
C1158 C1159 1.516 . S
C1159 C1158 1.516 . S
C1159 C1160 1.502 . S
C1159 C1161 1.561 . S
C1159 C1162 1.526 . S
C1160 H1144 0.959 . S
C1160 H1145 0.959 . S
C1160 H1146 0.961 . S
C1160 C1159 1.502 . S
C1161 H1147 0.960 . S
C1161 H1148 0.961 . S
C1161 H1149 0.959 . S
C1161 C1159 1.561 . S
C1162 C1159 1.526 . S
C1162 C1163 1.396 . S
C1162 C1167 1.390 . S
C1163 C1157 1.465 . S
C1163 C1162 1.396 . S
C1163 C1164 1.399 . S
C1164 H1150 0.929 . S
C1164 C1163 1.399 . S
C1164 C1165 1.385 . S
C1165 H1151 0.931 . S
C1165 C1164 1.385 . S
C1165 C1166 1.389 . S
C1166 C1165 1.389 . S
C1166 C1167 1.387 . S
C1167 H1152 0.930 . S
C1167 C1162 1.390 . S
C1167 C1166 1.387 . S
H1168 C1180 0.930 . S
H1169 C1182 0.930 . S
H1170 C1183 0.930 . S
H1171 C1187 0.959 . S
H1172 C1187 0.959 . S
H1173 C1187 0.961 . S
H1174 C1188 0.960 1_565 S
H1175 C1188 0.961 1_565 S
H1176 C1188 0.959 . S
H1177 C1191 0.929 1_655 S
H1178 C1192 0.931 . S
H1179 C1194 0.930 . S
C1180 H1168 0.930 . S
C1180 C1181 1.399 . S
C1180 C1185 1.399 . S
C1181 C1180 1.399 . S
C1181 C1182 1.376 . S
C1182 H1169 0.930 . S
C1182 C1181 1.376 . S
C1182 C1183 1.388 . S
C1183 H1170 0.930 . S
C1183 C1182 1.388 . S
C1183 C1184 1.390 . S
C1184 C1183 1.390 . S
C1184 C1185 1.394 . S
C1184 C1190 1.465 1_655 S
C1185 C1180 1.399 . S
C1185 C1184 1.394 . S
C1185 C1186 1.516 1_655 S
C1186 C1185 1.516 1_455 S
C1186 C1187 1.502 . S
C1186 C1188 1.561 1_455 S
C1186 C1189 1.526 . S
C1187 H1171 0.959 . S
C1187 H1172 0.959 . S
C1187 H1173 0.961 . S
C1187 C1186 1.502 . S
C1188 H1174 0.960 1_545 S
C1188 H1175 0.961 1_545 S
C1188 H1176 0.959 . S
C1188 C1186 1.561 1_655 S
C1189 C1186 1.526 . S
C1189 C1190 1.396 . S
C1189 C1194 1.390 . S
C1190 C1184 1.465 1_455 S
C1190 C1189 1.396 . S
C1190 C1191 1.399 . S
C1191 H1177 0.929 1_455 S
C1191 C1190 1.399 . S
C1191 C1192 1.385 . S
C1192 H1178 0.931 . S
C1192 C1191 1.385 . S
C1192 C1193 1.389 . S
C1193 C1192 1.389 . S
C1193 C1194 1.387 . S
C1194 H1179 0.930 . S
C1194 C1189 1.390 . S
C1194 C1193 1.387 . S
H1195 C1207 0.930 . S
H1196 C1209 0.930 . S
H1197 C1210 0.930 . S
H1198 C1214 0.959 . S
H1199 C1214 0.959 . S
H1200 C1214 0.961 . S
H1201 C1215 0.960 . S
H1202 C1215 0.961 . S
H1203 C1215 0.959 . S
H1204 C1218 0.929 . S
H1205 C1219 0.931 . S
H1206 C1221 0.930 . S
C1207 H1195 0.930 . S
C1207 C1208 1.399 . S
C1207 C1212 1.399 . S
C1208 C1207 1.399 . S
C1208 C1209 1.376 . S
C1209 H1196 0.930 . S
C1209 C1208 1.376 . S
C1209 C1210 1.388 . S
C1210 H1197 0.930 . S
C1210 C1209 1.388 . S
C1210 C1211 1.390 . S
C1211 C1210 1.390 . S
C1211 C1212 1.394 . S
C1211 C1217 1.465 . S
C1212 C1207 1.399 . S
C1212 C1211 1.394 . S
C1212 C1213 1.516 . S
C1213 C1212 1.516 . S
C1213 C1214 1.502 . S
C1213 C1215 1.561 . S
C1213 C1216 1.526 . S
C1214 H1198 0.959 . S
C1214 H1199 0.959 . S
C1214 H1200 0.961 . S
C1214 C1213 1.502 . S
C1215 H1201 0.960 . S
C1215 H1202 0.961 . S
C1215 H1203 0.959 . S
C1215 C1213 1.561 . S
C1216 C1213 1.526 . S
C1216 C1217 1.396 . S
C1216 C1221 1.390 . S
C1217 C1211 1.465 . S
C1217 C1216 1.396 . S
C1217 C1218 1.399 . S
C1218 H1204 0.929 . S
C1218 C1217 1.399 . S
C1218 C1219 1.385 . S
C1219 H1205 0.931 . S
C1219 C1218 1.385 . S
C1219 C1220 1.389 . S
C1220 C1219 1.389 . S
C1220 C1221 1.387 . S
C1221 H1206 0.930 . S
C1221 C1216 1.390 . S
C1221 C1220 1.387 . S
H1222 C1234 0.930 . S
H1223 C1236 0.930 . S
H1224 C1237 0.930 . S
H1225 C1241 0.959 . S
H1226 C1241 0.959 . S
H1227 C1241 0.961 . S
H1228 C1242 0.960 . S
H1229 C1242 0.961 . S
H1230 C1242 0.959 1_545 S
H1231 C1245 0.929 . S
H1232 C1246 0.931 . S
H1233 C1248 0.930 . S
C1234 H1222 0.930 . S
C1234 C1235 1.399 . S
C1234 C1239 1.399 . S
C1235 C1234 1.399 . S
C1235 C1236 1.376 . S
C1236 H1223 0.930 . S
C1236 C1235 1.376 . S
C1236 C1237 1.388 . S
C1237 H1224 0.930 . S
C1237 C1236 1.388 . S
C1237 C1238 1.390 . S
C1238 C1237 1.390 . S
C1238 C1239 1.394 . S
C1238 C1244 1.465 . S
C1239 C1234 1.399 . S
C1239 C1238 1.394 . S
C1239 C1240 1.516 . S
C1240 C1239 1.516 . S
C1240 C1241 1.502 . S
C1240 C1242 1.561 1_545 S
C1240 C1243 1.526 . S
C1241 H1225 0.959 . S
C1241 H1226 0.959 . S
C1241 H1227 0.961 . S
C1241 C1240 1.502 . S
C1242 H1228 0.960 . S
C1242 H1229 0.961 . S
C1242 H1230 0.959 1_565 S
C1242 C1240 1.561 1_565 S
C1243 C1240 1.526 . S
C1243 C1244 1.396 . S
C1243 C1248 1.390 . S
C1244 C1238 1.465 . S
C1244 C1243 1.396 . S
C1244 C1245 1.399 . S
C1245 H1231 0.929 . S
C1245 C1244 1.399 . S
C1245 C1246 1.385 . S
C1246 H1232 0.931 . S
C1246 C1245 1.385 . S
C1246 C1247 1.389 . S
C1247 C1246 1.389 . S
C1247 C1248 1.387 . S
C1248 H1233 0.930 . S
C1248 C1243 1.390 . S
C1248 C1247 1.387 . S
H1249 C1261 0.930 . S
H1250 C1263 0.930 . S
H1251 C1264 0.930 . S
H1252 C1268 0.959 . S
H1253 C1268 0.959 . S
H1254 C1268 0.961 . S
H1255 C1269 0.960 . S
H1256 C1269 0.961 . S
H1257 C1269 0.959 . S
H1258 C1272 0.929 . S
H1259 C1273 0.931 . S
H1260 C1275 0.930 . S
C1261 H1249 0.930 . S
C1261 C1262 1.399 . S
C1261 C1266 1.399 . S
C1262 C1261 1.399 . S
C1262 C1263 1.376 . S
C1263 H1250 0.930 . S
C1263 C1262 1.376 . S
C1263 C1264 1.388 . S
C1264 H1251 0.930 . S
C1264 C1263 1.388 . S
C1264 C1265 1.390 . S
C1265 C1264 1.390 . S
C1265 C1266 1.394 . S
C1265 C1271 1.465 . S
C1266 C1261 1.399 . S
C1266 C1265 1.394 . S
C1266 C1267 1.516 . S
C1267 C1266 1.516 . S
C1267 C1268 1.502 . S
C1267 C1269 1.561 . S
C1267 C1270 1.526 . S
C1268 H1252 0.959 . S
C1268 H1253 0.959 . S
C1268 H1254 0.961 . S
C1268 C1267 1.502 . S
C1269 H1255 0.960 . S
C1269 H1256 0.961 . S
C1269 H1257 0.959 . S
C1269 C1267 1.561 . S
C1270 C1267 1.526 . S
C1270 C1271 1.396 . S
C1270 C1275 1.390 . S
C1271 C1265 1.465 . S
C1271 C1270 1.396 . S
C1271 C1272 1.399 . S
C1272 H1258 0.929 . S
C1272 C1271 1.399 . S
C1272 C1273 1.385 . S
C1273 H1259 0.931 . S
C1273 C1272 1.385 . S
C1273 C1274 1.389 . S
C1274 C1273 1.389 . S
C1274 C1275 1.387 . S
C1275 H1260 0.930 . S
C1275 C1270 1.390 . S
C1275 C1274 1.387 . S
H1276 C1288 0.930 . S
H1277 C1290 0.930 . S
H1278 C1291 0.930 . S
H1279 C1295 0.959 . S
H1280 C1295 0.959 . S
H1281 C1295 0.961 . S
H1282 C1296 0.978 . S
H1283 C1296 0.943 1_455 S
H1284 C1296 0.996 . S
H1285 C1299 0.929 . S
H1286 C1300 0.931 . S
H1287 C1302 0.930 . S
C1288 H1276 0.930 . S
C1288 C1289 1.399 . S
C1288 C1293 1.399 . S
C1289 C1288 1.399 . S
C1289 C1290 1.376 . S
C1290 H1277 0.930 . S
C1290 C1289 1.376 . S
C1290 C1291 1.388 . S
C1291 H1278 0.930 . S
C1291 C1290 1.388 . S
C1291 C1292 1.390 . S
C1292 C1291 1.390 . S
C1292 C1293 1.394 . S
C1292 C1298 1.473 . S
C1293 C1288 1.399 . S
C1293 C1292 1.394 . S
C1293 C1294 1.516 1_655 S
C1294 C1293 1.516 1_455 S
C1294 C1295 1.502 . S
C1294 C1296 1.527 1_455 S
C1294 C1297 1.526 . S
C1295 H1279 0.959 . S
C1295 H1280 0.959 . S
C1295 H1281 0.961 . S
C1295 C1294 1.502 . S
C1296 H1282 0.978 . S
C1296 H1283 0.943 1_655 S
C1296 H1284 0.996 . S
C1296 C1294 1.527 1_655 S
C1297 C1294 1.526 . S
C1297 C1298 1.390 1_455 S
C1297 C1302 1.390 . S
C1298 C1292 1.473 . S
C1298 C1297 1.390 1_655 S
C1298 C1299 1.397 . S
C1299 H1285 0.929 . S
C1299 C1298 1.397 . S
C1299 C1300 1.385 1_655 S
C1300 H1286 0.931 . S
C1300 C1299 1.385 1_455 S
C1300 C1301 1.389 . S
C1301 C1300 1.389 . S
C1301 C1302 1.387 . S
C1302 H1287 0.930 . S
C1302 C1297 1.390 . S
C1302 C1301 1.387 . S
H1303 C1315 0.930 . S
H1304 C1317 0.930 . S
H1305 C1318 0.930 . S
H1306 C1322 0.959 . S
H1307 C1322 0.959 . S
H1308 C1322 0.961 . S
H1309 C1323 0.960 . S
H1310 C1323 0.961 . S
H1311 C1323 0.959 . S
H1312 C1326 0.929 . S
H1313 C1327 0.931 . S
H1314 C1329 0.930 . S
C1315 H1303 0.930 . S
C1315 C1316 1.399 . S
C1315 C1320 1.399 . S
C1316 C1315 1.399 . S
C1316 C1317 1.376 . S
C1317 H1304 0.930 . S
C1317 C1316 1.376 . S
C1317 C1318 1.388 . S
C1318 H1305 0.930 . S
C1318 C1317 1.388 . S
C1318 C1319 1.390 . S
C1319 C1318 1.390 . S
C1319 C1320 1.394 . S
C1319 C1325 1.465 . S
C1320 C1315 1.399 . S
C1320 C1319 1.394 . S
C1320 C1321 1.516 . S
C1321 C1320 1.516 . S
C1321 C1322 1.502 . S
C1321 C1323 1.561 . S
C1321 C1324 1.526 . S
C1322 H1306 0.959 . S
C1322 H1307 0.959 . S
C1322 H1308 0.961 . S
C1322 C1321 1.502 . S
C1323 H1309 0.960 . S
C1323 H1310 0.961 . S
C1323 H1311 0.959 . S
C1323 C1321 1.561 . S
C1324 C1321 1.526 . S
C1324 C1325 1.396 . S
C1324 C1329 1.390 . S
C1325 C1319 1.465 . S
C1325 C1324 1.396 . S
C1325 C1326 1.399 . S
C1326 H1312 0.929 . S
C1326 C1325 1.399 . S
C1326 C1327 1.385 . S
C1327 H1313 0.931 . S
C1327 C1326 1.385 . S
C1327 C1328 1.389 . S
C1328 C1327 1.389 . S
C1328 C1329 1.387 . S
C1329 H1314 0.930 . S
C1329 C1324 1.390 . S
C1329 C1328 1.387 . S
H1330 C1342 0.930 . S
H1331 C1344 0.930 . S
H1332 C1345 0.930 . S
H1333 C1349 0.959 . S
H1334 C1349 0.959 . S
H1335 C1349 0.961 . S
H1336 C1350 0.960 . S
H1337 C1350 0.961 . S
H1338 C1350 0.959 . S
H1339 C1353 0.929 . S
H1340 C1354 0.931 . S
H1341 C1356 0.930 . S
C1342 H1330 0.930 . S
C1342 C1343 1.399 . S
C1342 C1347 1.399 . S
C1343 C1342 1.399 . S
C1343 C1344 1.376 . S
C1344 H1331 0.930 . S
C1344 C1343 1.376 . S
C1344 C1345 1.388 . S
C1345 H1332 0.930 . S
C1345 C1344 1.388 . S
C1345 C1346 1.390 . S
C1346 C1345 1.390 . S
C1346 C1347 1.394 . S
C1346 C1352 1.465 . S
C1347 C1342 1.399 . S
C1347 C1346 1.394 . S
C1347 C1348 1.516 . S
C1348 C1347 1.516 . S
C1348 C1349 1.502 . S
C1348 C1350 1.561 . S
C1348 C1351 1.526 . S
C1349 H1333 0.959 . S
C1349 H1334 0.959 . S
C1349 H1335 0.961 . S
C1349 C1348 1.502 . S
C1350 H1336 0.960 . S
C1350 H1337 0.961 . S
C1350 H1338 0.959 . S
C1350 C1348 1.561 . S
C1351 C1348 1.526 . S
C1351 C1352 1.396 . S
C1351 C1356 1.390 . S
C1352 C1346 1.465 . S
C1352 C1351 1.396 . S
C1352 C1353 1.399 . S
C1353 H1339 0.929 . S
C1353 C1352 1.399 . S
C1353 C1354 1.385 . S
C1354 H1340 0.931 . S
C1354 C1353 1.385 . S
C1354 C1355 1.389 . S
C1355 C1354 1.389 . S
C1355 C1356 1.387 . S
C1356 H1341 0.930 . S
C1356 C1351 1.390 . S
C1356 C1355 1.387 . S
H1357 C1369 0.930 . S
H1358 C1371 0.930 . S
H1359 C1372 0.930 . S
H1360 C1376 0.959 . S
H1361 C1376 0.959 . S
H1362 C1376 0.961 . S
H1363 C1377 0.960 . S
H1364 C1377 0.961 . S
H1365 C1377 0.959 . S
H1366 C1380 0.929 . S
H1367 C1381 0.931 . S
H1368 C1383 0.930 . S
C1369 H1357 0.930 . S
C1369 C1370 1.399 . S
C1369 C1374 1.399 . S
C1370 C1369 1.399 . S
C1370 C1371 1.376 . S
C1371 H1358 0.930 . S
C1371 C1370 1.376 . S
C1371 C1372 1.388 . S
C1372 H1359 0.930 . S
C1372 C1371 1.388 . S
C1372 C1373 1.390 . S
C1373 C1372 1.390 . S
C1373 C1374 1.394 . S
C1373 C1379 1.465 . S
C1374 C1369 1.399 . S
C1374 C1373 1.394 . S
C1374 C1375 1.516 . S
C1375 C1374 1.516 . S
C1375 C1376 1.502 . S
C1375 C1377 1.561 . S
C1375 C1378 1.526 . S
C1376 H1360 0.959 . S
C1376 H1361 0.959 . S
C1376 H1362 0.961 . S
C1376 C1375 1.502 . S
C1377 H1363 0.960 . S
C1377 H1364 0.961 . S
C1377 H1365 0.959 . S
C1377 C1375 1.561 . S
C1378 C1375 1.526 . S
C1378 C1379 1.396 . S
C1378 C1383 1.390 . S
C1379 C1373 1.465 . S
C1379 C1378 1.396 . S
C1379 C1380 1.399 . S
C1380 H1366 0.929 . S
C1380 C1379 1.399 . S
C1380 C1381 1.385 . S
C1381 H1367 0.931 . S
C1381 C1380 1.385 . S
C1381 C1382 1.389 . S
C1382 C1381 1.389 . S
C1382 C1383 1.387 . S
C1383 H1368 0.930 . S
C1383 C1378 1.390 . S
C1383 C1382 1.387 . S
H1384 C1396 0.930 . S
H1385 C1398 0.930 . S
H1386 C1399 0.930 . S
H1387 C1403 0.959 . S
H1388 C1403 0.959 . S
H1389 C1403 0.961 . S
H1390 C1404 0.962 . S
H1391 C1404 0.978 . S
H1392 C1404 0.944 1_565 S
H1393 C1407 0.929 . S
H1394 C1408 0.931 . S
H1395 C1410 0.930 . S
C1396 H1384 0.930 . S
C1396 C1397 1.399 . S
C1396 C1401 1.399 . S
C1397 C1396 1.399 . S
C1397 C1398 1.376 . S
C1398 H1385 0.930 . S
C1398 C1397 1.376 . S
C1398 C1399 1.388 . S
C1399 H1386 0.930 . S
C1399 C1398 1.388 . S
C1399 C1400 1.390 . S
C1400 C1399 1.390 . S
C1400 C1401 1.394 . S
C1400 C1406 1.465 . S
C1401 C1396 1.399 . S
C1401 C1400 1.394 . S
C1401 C1402 1.516 1_565 S
C1402 C1401 1.516 1_545 S
C1402 C1403 1.502 . S
C1402 C1404 1.557 1_554 S
C1402 C1405 1.526 1_545 S
C1403 H1387 0.959 . S
C1403 H1388 0.959 . S
C1403 H1389 0.961 . S
C1403 C1402 1.502 . S
C1404 H1390 0.962 . S
C1404 H1391 0.978 . S
C1404 H1392 0.944 1_545 S
C1404 C1402 1.557 1_556 S
C1405 C1402 1.526 1_565 S
C1405 C1406 1.396 . S
C1405 C1410 1.390 1_565 S
C1406 C1400 1.465 . S
C1406 C1405 1.396 . S
C1406 C1407 1.399 . S
C1407 H1393 0.929 . S
C1407 C1406 1.399 . S
C1407 C1408 1.385 . S
C1408 H1394 0.931 . S
C1408 C1407 1.385 . S
C1408 C1409 1.389 . S
C1409 C1408 1.389 . S
C1409 C1410 1.387 1_565 S
C1410 H1395 0.930 . S
C1410 C1405 1.390 1_545 S
C1410 C1409 1.387 1_545 S
H1411 C1423 0.930 . S
H1412 C1425 0.930 . S
H1413 C1426 0.930 . S
H1414 C1430 0.959 . S
H1415 C1430 0.959 . S
H1416 C1430 0.961 . S
H1417 C1431 0.960 . S
H1418 C1431 0.961 . S
H1419 C1431 0.959 . S
H1420 C1434 0.929 . S
H1421 C1435 0.931 . S
H1422 C1437 0.930 . S
C1423 H1411 0.930 . S
C1423 C1424 1.399 1_554 S
C1423 C1428 1.399 . S
C1424 C1423 1.399 1_556 S
C1424 C1425 1.376 . S
C1425 H1412 0.930 . S
C1425 C1424 1.376 . S
C1425 C1426 1.388 . S
C1426 H1413 0.930 . S
C1426 C1425 1.388 . S
C1426 C1427 1.390 . S
C1427 C1426 1.390 . S
C1427 C1428 1.394 1_556 S
C1427 C1433 1.465 . S
C1428 C1423 1.399 . S
C1428 C1427 1.394 1_554 S
C1428 C1429 1.516 . S
C1429 C1428 1.516 . S
C1429 C1430 1.502 . S
C1429 C1431 1.561 . S
C1429 C1432 1.526 . S
C1430 H1414 0.959 . S
C1430 H1415 0.959 . S
C1430 H1416 0.961 . S
C1430 C1429 1.502 . S
C1431 H1417 0.960 . S
C1431 H1418 0.961 . S
C1431 H1419 0.959 . S
C1431 C1429 1.561 . S
C1432 C1429 1.526 . S
C1432 C1433 1.396 1_554 S
C1432 C1437 1.390 . S
C1433 C1427 1.465 . S
C1433 C1432 1.396 1_556 S
C1433 C1434 1.399 . S
C1434 H1420 0.929 . S
C1434 C1433 1.399 . S
C1434 C1435 1.385 . S
C1435 H1421 0.931 . S
C1435 C1434 1.385 . S
C1435 C1436 1.389 1_556 S
C1436 C1435 1.389 1_554 S
C1436 C1437 1.387 . S
C1437 H1422 0.930 . S
C1437 C1432 1.390 . S
C1437 C1436 1.387 . S
H1438 C1450 0.930 . S
H1439 C1452 0.930 . S
H1440 C1453 0.930 . S
H1441 C1457 0.959 . S
H1442 C1457 0.959 . S
H1443 C1457 0.961 . S
H1444 C1458 0.960 . S
H1445 C1458 0.961 . S
H1446 C1458 0.959 . S
H1447 C1461 0.929 . S
H1448 C1462 0.931 . S
H1449 C1464 0.930 . S
C1450 H1438 0.930 . S
C1450 C1451 1.399 . S
C1450 C1455 1.399 . S
C1451 C1450 1.399 . S
C1451 C1452 1.376 . S
C1452 H1439 0.930 . S
C1452 C1451 1.376 . S
C1452 C1453 1.388 . S
C1453 H1440 0.930 . S
C1453 C1452 1.388 . S
C1453 C1454 1.390 . S
C1454 C1453 1.390 . S
C1454 C1455 1.394 . S
C1454 C1460 1.465 . S
C1455 C1450 1.399 . S
C1455 C1454 1.394 . S
C1455 C1456 1.516 . S
C1456 C1455 1.516 . S
C1456 C1457 1.502 . S
C1456 C1458 1.561 . S
C1456 C1459 1.526 . S
C1457 H1441 0.959 . S
C1457 H1442 0.959 . S
C1457 H1443 0.961 . S
C1457 C1456 1.502 . S
C1458 H1444 0.960 . S
C1458 H1445 0.961 . S
C1458 H1446 0.959 . S
C1458 C1456 1.561 . S
C1459 C1456 1.526 . S
C1459 C1460 1.396 . S
C1459 C1464 1.390 . S
C1460 C1454 1.465 . S
C1460 C1459 1.396 . S
C1460 C1461 1.399 . S
C1461 H1447 0.929 . S
C1461 C1460 1.399 . S
C1461 C1462 1.385 . S
C1462 H1448 0.931 . S
C1462 C1461 1.385 . S
C1462 C1463 1.389 . S
C1463 C1462 1.389 . S
C1463 C1464 1.387 . S
C1464 H1449 0.930 . S
C1464 C1459 1.390 . S
C1464 C1463 1.387 . S
H1465 C1477 0.930 . S
H1466 C1479 0.930 . S
H1467 C1480 0.930 . S
H1468 C1484 0.959 . S
H1469 C1484 0.959 . S
H1470 C1484 0.961 . S
H1471 C1485 0.960 . S
H1472 C1485 0.961 . S
H1473 C1485 0.959 . S
H1474 C1488 0.929 . S
H1475 C1489 0.931 1_455 S
H1476 C1491 0.930 . S
C1477 H1465 0.930 . S
C1477 C1478 1.399 . S
C1477 C1482 1.399 . S
C1478 C1477 1.399 . S
C1478 C1479 1.376 . S
C1479 H1466 0.930 . S
C1479 C1478 1.376 . S
C1479 C1480 1.388 . S
C1480 H1467 0.930 . S
C1480 C1479 1.388 . S
C1480 C1481 1.390 . S
C1481 C1480 1.390 . S
C1481 C1482 1.394 . S
C1481 C1487 1.465 . S
C1482 C1477 1.399 . S
C1482 C1481 1.394 . S
C1482 C1483 1.516 . S
C1483 C1482 1.516 . S
C1483 C1484 1.502 . S
C1483 C1485 1.561 . S
C1483 C1486 1.526 . S
C1484 H1468 0.959 . S
C1484 H1469 0.959 . S
C1484 H1470 0.961 . S
C1484 C1483 1.502 . S
C1485 H1471 0.960 . S
C1485 H1472 0.961 . S
C1485 H1473 0.959 . S
C1485 C1483 1.561 . S
C1486 C1483 1.526 . S
C1486 C1487 1.396 . S
C1486 C1491 1.390 . S
C1487 C1481 1.465 . S
C1487 C1486 1.396 . S
C1487 C1488 1.399 . S
C1488 H1474 0.929 . S
C1488 C1487 1.399 . S
C1488 C1489 1.385 . S
C1489 H1475 0.931 1_655 S
C1489 C1488 1.385 . S
C1489 C1490 1.389 . S
C1490 C1489 1.389 . S
C1490 C1491 1.387 . S
C1491 H1476 0.930 . S
C1491 C1486 1.390 . S
C1491 C1490 1.387 . S
H1492 C1504 0.930 . S
H1493 C1506 0.930 . S
H1494 C1507 0.930 . S
H1495 C1511 0.959 . S
H1496 C1511 0.959 . S
H1497 C1511 0.961 . S
H1498 C1512 0.960 . S
H1499 C1512 0.961 . S
H1500 C1512 0.959 . S
H1501 C1515 0.929 . S
H1502 C1516 0.931 . S
H1503 C1518 0.930 . S
C1504 H1492 0.930 . S
C1504 C1505 1.399 . S
C1504 C1509 1.399 . S
C1505 C1504 1.399 . S
C1505 C1506 1.376 . S
C1506 H1493 0.930 . S
C1506 C1505 1.376 . S
C1506 C1507 1.388 . S
C1507 H1494 0.930 . S
C1507 C1506 1.388 . S
C1507 C1508 1.390 . S
C1508 C1507 1.390 . S
C1508 C1509 1.394 . S
C1508 C1514 1.465 . S
C1509 C1504 1.399 . S
C1509 C1508 1.394 . S
C1509 C1510 1.516 . S
C1510 C1509 1.516 . S
C1510 C1511 1.502 . S
C1510 C1512 1.561 . S
C1510 C1513 1.526 . S
C1511 H1495 0.959 . S
C1511 H1496 0.959 . S
C1511 H1497 0.961 . S
C1511 C1510 1.502 . S
C1512 H1498 0.960 . S
C1512 H1499 0.961 . S
C1512 H1500 0.959 . S
C1512 C1510 1.561 . S
C1513 C1510 1.526 . S
C1513 C1514 1.396 . S
C1513 C1518 1.390 . S
C1514 C1508 1.465 . S
C1514 C1513 1.396 . S
C1514 C1515 1.399 . S
C1515 H1501 0.929 . S
C1515 C1514 1.399 . S
C1515 C1516 1.385 . S
C1516 H1502 0.931 . S
C1516 C1515 1.385 . S
C1516 C1517 1.389 . S
C1517 C1516 1.389 . S
C1517 C1518 1.387 . S
C1518 H1503 0.930 . S
C1518 C1513 1.390 . S
C1518 C1517 1.387 . S
H1519 C1531 0.930 . S
H1520 C1533 0.930 . S
H1521 C1534 0.930 . S
H1522 C1538 0.959 . S
H1523 C1538 0.959 . S
H1524 C1538 0.961 . S
H1525 C1539 0.960 . S
H1526 C1539 0.961 . S
H1527 C1539 0.959 . S
H1528 C1542 0.929 . S
H1529 C1543 0.931 . S
H1530 C1545 0.930 . S
C1531 H1519 0.930 . S
C1531 C1532 1.399 . S
C1531 C1536 1.399 . S
C1532 C1531 1.399 . S
C1532 C1533 1.376 . S
C1533 H1520 0.930 . S
C1533 C1532 1.376 . S
C1533 C1534 1.388 . S
C1534 H1521 0.930 . S
C1534 C1533 1.388 . S
C1534 C1535 1.390 . S
C1535 C1534 1.390 . S
C1535 C1536 1.394 . S
C1535 C1541 1.465 . S
C1536 C1531 1.399 . S
C1536 C1535 1.394 . S
C1536 C1537 1.516 . S
C1537 C1536 1.516 . S
C1537 C1538 1.502 . S
C1537 C1539 1.561 . S
C1537 C1540 1.526 . S
C1538 H1522 0.959 . S
C1538 H1523 0.959 . S
C1538 H1524 0.961 . S
C1538 C1537 1.502 . S
C1539 H1525 0.960 . S
C1539 H1526 0.961 . S
C1539 H1527 0.959 . S
C1539 C1537 1.561 . S
C1540 C1537 1.526 . S
C1540 C1541 1.396 . S
C1540 C1545 1.390 . S
C1541 C1535 1.465 . S
C1541 C1540 1.396 . S
C1541 C1542 1.399 . S
C1542 H1528 0.929 . S
C1542 C1541 1.399 . S
C1542 C1543 1.385 . S
C1543 H1529 0.931 . S
C1543 C1542 1.385 . S
C1543 C1544 1.389 . S
C1544 C1543 1.389 . S
C1544 C1545 1.387 . S
C1545 H1530 0.930 . S
C1545 C1540 1.390 . S
C1545 C1544 1.387 . S
H1546 C1558 0.930 . S
H1547 C1560 0.930 . S
H1548 C1561 0.930 . S
H1549 C1565 0.959 . S
H1550 C1565 0.959 . S
H1551 C1565 0.961 . S
H1552 C1566 0.960 . S
H1553 C1566 0.961 . S
H1554 C1566 0.959 . S
H1555 C1569 0.929 . S
H1556 C1570 0.931 . S
H1557 C1572 0.930 . S
C1558 H1546 0.930 . S
C1558 C1559 1.399 . S
C1558 C1563 1.399 . S
C1559 C1558 1.399 . S
C1559 C1560 1.376 . S
C1560 H1547 0.930 . S
C1560 C1559 1.376 . S
C1560 C1561 1.388 . S
C1561 H1548 0.930 . S
C1561 C1560 1.388 . S
C1561 C1562 1.390 . S
C1562 C1561 1.390 . S
C1562 C1563 1.394 . S
C1562 C1568 1.465 . S
C1563 C1558 1.399 . S
C1563 C1562 1.394 . S
C1563 C1564 1.516 . S
C1564 C1563 1.516 . S
C1564 C1565 1.502 . S
C1564 C1566 1.561 . S
C1564 C1567 1.526 . S
C1565 H1549 0.959 . S
C1565 H1550 0.959 . S
C1565 H1551 0.961 . S
C1565 C1564 1.502 . S
C1566 H1552 0.960 . S
C1566 H1553 0.961 . S
C1566 H1554 0.959 . S
C1566 C1564 1.561 . S
C1567 C1564 1.526 . S
C1567 C1568 1.396 . S
C1567 C1572 1.390 . S
C1568 C1562 1.465 . S
C1568 C1567 1.396 . S
C1568 C1569 1.399 . S
C1569 H1555 0.929 . S
C1569 C1568 1.399 . S
C1569 C1570 1.385 . S
C1570 H1556 0.931 . S
C1570 C1569 1.385 . S
C1570 C1571 1.389 . S
C1571 C1570 1.389 . S
C1571 C1572 1.387 . S
C1572 H1557 0.930 . S
C1572 C1567 1.390 . S
C1572 C1571 1.387 . S
H1573 C1585 0.930 . S
H1574 C1587 0.930 . S
H1575 C1588 0.930 . S
H1576 C1592 0.959 . S
H1577 C1592 0.959 . S
H1578 C1592 0.961 . S
H1579 C1593 0.960 . S
H1580 C1593 0.961 . S
H1581 C1593 0.959 . S
H1582 C1596 0.929 . S
H1583 C1597 0.931 . S
H1584 C1599 0.930 . S
C1585 H1573 0.930 . S
C1585 C1586 1.399 . S
C1585 C1590 1.399 . S
C1586 C1585 1.399 . S
C1586 C1587 1.376 . S
C1587 H1574 0.930 . S
C1587 C1586 1.376 . S
C1587 C1588 1.388 . S
C1588 H1575 0.930 . S
C1588 C1587 1.388 . S
C1588 C1589 1.390 . S
C1589 C1588 1.390 . S
C1589 C1590 1.394 . S
C1589 C1595 1.465 . S
C1590 C1585 1.399 . S
C1590 C1589 1.394 . S
C1590 C1591 1.516 . S
C1591 C1590 1.516 . S
C1591 C1592 1.502 . S
C1591 C1593 1.561 . S
C1591 C1594 1.526 . S
C1592 H1576 0.959 . S
C1592 H1577 0.959 . S
C1592 H1578 0.961 . S
C1592 C1591 1.502 . S
C1593 H1579 0.960 . S
C1593 H1580 0.961 . S
C1593 H1581 0.959 . S
C1593 C1591 1.561 . S
C1594 C1591 1.526 . S
C1594 C1595 1.396 . S
C1594 C1599 1.390 . S
C1595 C1589 1.465 . S
C1595 C1594 1.396 . S
C1595 C1596 1.399 . S
C1596 H1582 0.929 . S
C1596 C1595 1.399 . S
C1596 C1597 1.385 . S
C1597 H1583 0.931 . S
C1597 C1596 1.385 . S
C1597 C1598 1.389 . S
C1598 C1597 1.389 . S
C1598 C1599 1.387 . S
C1599 H1584 0.930 . S
C1599 C1594 1.390 . S
C1599 C1598 1.387 . S
H1600 C1612 0.930 . S
H1601 C1614 0.930 . S
H1602 C1615 0.930 . S
H1603 C1619 0.959 . S
H1604 C1619 0.959 . S
H1605 C1619 0.961 . S
H1606 C1620 0.960 . S
H1607 C1620 0.961 1_556 S
H1608 C1620 0.959 1_556 S
H1609 C1623 0.929 . S
H1610 C1624 0.931 . S
H1611 C1626 0.930 . S
C1612 H1600 0.930 . S
C1612 C1613 1.399 . S
C1612 C1617 1.399 . S
C1613 C1612 1.399 . S
C1613 C1614 1.376 . S
C1614 H1601 0.930 . S
C1614 C1613 1.376 . S
C1614 C1615 1.388 . S
C1615 H1602 0.930 . S
C1615 C1614 1.388 . S
C1615 C1616 1.390 . S
C1616 C1615 1.390 . S
C1616 C1617 1.394 . S
C1616 C1622 1.465 . S
C1617 C1612 1.399 . S
C1617 C1616 1.394 . S
C1617 C1618 1.516 . S
C1618 C1617 1.516 . S
C1618 C1619 1.502 . S
C1618 C1620 1.561 . S
C1618 C1621 1.526 . S
C1619 H1603 0.959 . S
C1619 H1604 0.959 . S
C1619 H1605 0.961 . S
C1619 C1618 1.502 . S
C1620 H1606 0.960 . S
C1620 H1607 0.961 1_554 S
C1620 H1608 0.959 1_554 S
C1620 C1618 1.561 . S
C1621 C1618 1.526 . S
C1621 C1622 1.396 . S
C1621 C1626 1.390 . S
C1622 C1616 1.465 . S
C1622 C1621 1.396 . S
C1622 C1623 1.399 . S
C1623 H1609 0.929 . S
C1623 C1622 1.399 . S
C1623 C1624 1.385 . S
C1624 H1610 0.931 . S
C1624 C1623 1.385 . S
C1624 C1625 1.389 . S
C1625 C1624 1.389 . S
C1625 C1626 1.387 . S
C1626 H1611 0.930 . S
C1626 C1621 1.390 . S
C1626 C1625 1.387 . S
H1627 C1639 0.930 . S
H1628 C1641 0.930 . S
H1629 C1642 0.930 . S
H1630 C1646 0.959 . S
H1631 C1646 0.959 . S
H1632 C1646 0.961 . S
H1633 C1647 0.960 . S
H1634 C1647 0.961 . S
H1635 C1647 0.959 . S
H1636 C1650 0.929 . S
H1637 C1651 0.931 . S
H1638 C1653 0.930 . S
C1639 H1627 0.930 . S
C1639 C1640 1.399 . S
C1639 C1644 1.399 . S
C1640 C1639 1.399 . S
C1640 C1641 1.376 . S
C1641 H1628 0.930 . S
C1641 C1640 1.376 . S
C1641 C1642 1.388 . S
C1642 H1629 0.930 . S
C1642 C1641 1.388 . S
C1642 C1643 1.390 . S
C1643 C1642 1.390 . S
C1643 C1644 1.394 . S
C1643 C1649 1.465 . S
C1644 C1639 1.399 . S
C1644 C1643 1.394 . S
C1644 C1645 1.516 . S
C1645 C1644 1.516 . S
C1645 C1646 1.502 . S
C1645 C1647 1.561 . S
C1645 C1648 1.526 . S
C1646 H1630 0.959 . S
C1646 H1631 0.959 . S
C1646 H1632 0.961 . S
C1646 C1645 1.502 . S
C1647 H1633 0.960 . S
C1647 H1634 0.961 . S
C1647 H1635 0.959 . S
C1647 C1645 1.561 . S
C1648 C1645 1.526 . S
C1648 C1649 1.396 . S
C1648 C1653 1.390 . S
C1649 C1643 1.465 . S
C1649 C1648 1.396 . S
C1649 C1650 1.399 . S
C1650 H1636 0.929 . S
C1650 C1649 1.399 . S
C1650 C1651 1.385 . S
C1651 H1637 0.931 . S
C1651 C1650 1.385 . S
C1651 C1652 1.389 . S
C1652 C1651 1.389 . S
C1652 C1653 1.387 . S
C1653 H1638 0.930 . S
C1653 C1648 1.390 . S
C1653 C1652 1.387 . S
H1654 C1666 0.930 . S
H1655 C1668 0.930 . S
H1656 C1669 0.930 . S
H1657 C1673 0.959 . S
H1658 C1673 0.959 . S
H1659 C1673 0.961 . S
H1660 C1674 0.960 . S
H1661 C1674 0.961 . S
H1662 C1674 0.959 . S
H1663 C1677 0.929 . S
H1664 C1678 0.931 . S
H1665 C1680 0.930 . S
C1666 H1654 0.930 . S
C1666 C1667 1.399 . S
C1666 C1671 1.399 . S
C1667 C1666 1.399 . S
C1667 C1668 1.376 . S
C1668 H1655 0.930 . S
C1668 C1667 1.376 . S
C1668 C1669 1.388 . S
C1669 H1656 0.930 . S
C1669 C1668 1.388 . S
C1669 C1670 1.390 . S
C1670 C1669 1.390 . S
C1670 C1671 1.394 . S
C1670 C1676 1.465 . S
C1671 C1666 1.399 . S
C1671 C1670 1.394 . S
C1671 C1672 1.516 . S
C1672 C1671 1.516 . S
C1672 C1673 1.502 . S
C1672 C1674 1.561 . S
C1672 C1675 1.526 . S
C1673 H1657 0.959 . S
C1673 H1658 0.959 . S
C1673 H1659 0.961 . S
C1673 C1672 1.502 . S
C1674 H1660 0.960 . S
C1674 H1661 0.961 . S
C1674 H1662 0.959 . S
C1674 C1672 1.561 . S
C1675 C1672 1.526 . S
C1675 C1676 1.396 . S
C1675 C1680 1.390 . S
C1676 C1670 1.465 . S
C1676 C1675 1.396 . S
C1676 C1677 1.399 . S
C1677 H1663 0.929 . S
C1677 C1676 1.399 . S
C1677 C1678 1.385 . S
C1678 H1664 0.931 . S
C1678 C1677 1.385 . S
C1678 C1679 1.389 . S
C1679 C1678 1.389 . S
C1679 C1680 1.387 . S
C1680 H1665 0.930 . S
C1680 C1675 1.390 . S
C1680 C1679 1.387 . S
H1681 C1693 0.930 . S
H1682 C1695 0.930 . S
H1683 C1696 0.930 . S
H1684 C1700 0.959 . S
H1685 C1700 0.959 . S
H1686 C1700 0.961 . S
H1687 C1701 0.960 . S
H1688 C1701 0.961 . S
H1689 C1701 0.959 . S
H1690 C1704 0.929 . S
H1691 C1705 0.931 . S
H1692 C1707 0.930 . S
C1693 H1681 0.930 . S
C1693 C1694 1.399 . S
C1693 C1698 1.399 . S
C1694 C1693 1.399 . S
C1694 C1695 1.376 . S
C1695 H1682 0.930 . S
C1695 C1694 1.376 . S
C1695 C1696 1.388 . S
C1696 H1683 0.930 . S
C1696 C1695 1.388 . S
C1696 C1697 1.390 . S
C1697 C1696 1.390 . S
C1697 C1698 1.394 . S
C1697 C1703 1.465 . S
C1698 C1693 1.399 . S
C1698 C1697 1.394 . S
C1698 C1699 1.516 . S
C1699 C1698 1.516 . S
C1699 C1700 1.502 . S
C1699 C1701 1.561 . S
C1699 C1702 1.526 . S
C1700 H1684 0.959 . S
C1700 H1685 0.959 . S
C1700 H1686 0.961 . S
C1700 C1699 1.502 . S
C1701 H1687 0.960 . S
C1701 H1688 0.961 . S
C1701 H1689 0.959 . S
C1701 C1699 1.561 . S
C1702 C1699 1.526 . S
C1702 C1703 1.396 . S
C1702 C1707 1.390 . S
C1703 C1697 1.465 . S
C1703 C1702 1.396 . S
C1703 C1704 1.399 . S
C1704 H1690 0.929 . S
C1704 C1703 1.399 . S
C1704 C1705 1.385 . S
C1705 H1691 0.931 . S
C1705 C1704 1.385 . S
C1705 C1706 1.389 . S
C1706 C1705 1.389 . S
C1706 C1707 1.387 . S
C1707 H1692 0.930 . S
C1707 C1702 1.390 . S
C1707 C1706 1.387 . S
H1708 C1720 0.930 . S
H1709 C1722 0.930 . S
H1710 C1723 0.930 . S
H1711 C1727 0.959 . S
H1712 C1727 0.959 . S
H1713 C1727 0.961 . S
H1714 C1728 0.960 . S
H1715 C1728 0.961 . S
H1716 C1728 0.959 . S
H1717 C1731 0.929 . S
H1718 C1732 0.931 . S
H1719 C1734 0.930 . S
C1720 H1708 0.930 . S
C1720 C1721 1.399 . S
C1720 C1725 1.399 . S
C1721 C1720 1.399 . S
C1721 C1722 1.376 . S
C1722 H1709 0.930 . S
C1722 C1721 1.376 . S
C1722 C1723 1.388 . S
C1723 H1710 0.930 . S
C1723 C1722 1.388 . S
C1723 C1724 1.390 . S
C1724 C1723 1.390 . S
C1724 C1725 1.394 . S
C1724 C1730 1.465 . S
C1725 C1720 1.399 . S
C1725 C1724 1.394 . S
C1725 C1726 1.516 . S
C1726 C1725 1.516 . S
C1726 C1727 1.502 . S
C1726 C1728 1.561 . S
C1726 C1729 1.526 . S
C1727 H1711 0.959 . S
C1727 H1712 0.959 . S
C1727 H1713 0.961 . S
C1727 C1726 1.502 . S
C1728 H1714 0.960 . S
C1728 H1715 0.961 . S
C1728 H1716 0.959 . S
C1728 C1726 1.561 . S
C1729 C1726 1.526 . S
C1729 C1730 1.396 . S
C1729 C1734 1.390 . S
C1730 C1724 1.465 . S
C1730 C1729 1.396 . S
C1730 C1731 1.399 . S
C1731 H1717 0.929 . S
C1731 C1730 1.399 . S
C1731 C1732 1.385 . S
C1732 H1718 0.931 . S
C1732 C1731 1.385 . S
C1732 C1733 1.389 . S
C1733 C1732 1.389 . S
C1733 C1734 1.387 . S
C1734 H1719 0.930 . S
C1734 C1729 1.390 . S
C1734 C1733 1.387 . S
H1735 C1747 0.930 . S
H1736 C1749 0.930 . S
H1737 C1750 0.930 . S
H1738 C1754 0.959 . S
H1739 C1754 0.959 . S
H1740 C1754 0.961 . S
H1741 C1755 0.960 . S
H1742 C1755 0.961 . S
H1743 C1755 0.959 . S
H1744 C1758 0.929 . S
H1745 C1759 0.931 . S
H1746 C1761 0.930 . S
C1747 H1735 0.930 . S
C1747 C1748 1.399 . S
C1747 C1752 1.399 . S
C1748 C1747 1.399 . S
C1748 C1749 1.376 . S
C1749 H1736 0.930 . S
C1749 C1748 1.376 . S
C1749 C1750 1.388 . S
C1750 H1737 0.930 . S
C1750 C1749 1.388 . S
C1750 C1751 1.390 . S
C1751 C1750 1.390 . S
C1751 C1752 1.394 . S
C1751 C1757 1.465 . S
C1752 C1747 1.399 . S
C1752 C1751 1.394 . S
C1752 C1753 1.516 . S
C1753 C1752 1.516 . S
C1753 C1754 1.502 . S
C1753 C1755 1.561 . S
C1753 C1756 1.526 . S
C1754 H1738 0.959 . S
C1754 H1739 0.959 . S
C1754 H1740 0.961 . S
C1754 C1753 1.502 . S
C1755 H1741 0.960 . S
C1755 H1742 0.961 . S
C1755 H1743 0.959 . S
C1755 C1753 1.561 . S
C1756 C1753 1.526 . S
C1756 C1757 1.396 . S
C1756 C1761 1.390 . S
C1757 C1751 1.465 . S
C1757 C1756 1.396 . S
C1757 C1758 1.399 . S
C1758 H1744 0.929 . S
C1758 C1757 1.399 . S
C1758 C1759 1.385 . S
C1759 H1745 0.931 . S
C1759 C1758 1.385 . S
C1759 C1760 1.389 . S
C1760 C1759 1.389 . S
C1760 C1761 1.387 . S
C1761 H1746 0.930 . S
C1761 C1756 1.390 . S
C1761 C1760 1.387 . S
H1762 C1774 0.930 . S
H1763 C1776 0.930 . S
H1764 C1777 0.930 . S
H1765 C1781 0.959 . S
H1766 C1781 0.959 . S
H1767 C1781 0.961 . S
H1768 C1782 0.960 . S
H1769 C1782 0.961 . S
H1770 C1782 0.959 . S
H1771 C1785 0.929 . S
H1772 C1786 0.931 1_554 S
H1773 C1788 0.930 . S
C1774 H1762 0.930 . S
C1774 C1775 1.399 . S
C1774 C1779 1.399 . S
C1775 C1774 1.399 . S
C1775 C1776 1.376 . S
C1776 H1763 0.930 . S
C1776 C1775 1.376 . S
C1776 C1777 1.388 . S
C1777 H1764 0.930 . S
C1777 C1776 1.388 . S
C1777 C1778 1.390 . S
C1778 C1777 1.390 . S
C1778 C1779 1.394 . S
C1778 C1784 1.465 . S
C1779 C1774 1.399 . S
C1779 C1778 1.394 . S
C1779 C1780 1.516 . S
C1780 C1779 1.516 . S
C1780 C1781 1.502 . S
C1780 C1782 1.561 . S
C1780 C1783 1.526 . S
C1781 H1765 0.959 . S
C1781 H1766 0.959 . S
C1781 H1767 0.961 . S
C1781 C1780 1.502 . S
C1782 H1768 0.960 . S
C1782 H1769 0.961 . S
C1782 H1770 0.959 . S
C1782 C1780 1.561 . S
C1783 C1780 1.526 . S
C1783 C1784 1.396 . S
C1783 C1788 1.390 . S
C1784 C1778 1.465 . S
C1784 C1783 1.396 . S
C1784 C1785 1.399 . S
C1785 H1771 0.929 . S
C1785 C1784 1.399 . S
C1785 C1786 1.385 . S
C1786 H1772 0.931 1_556 S
C1786 C1785 1.385 . S
C1786 C1787 1.389 . S
C1787 C1786 1.389 . S
C1787 C1788 1.387 . S
C1788 H1773 0.930 . S
C1788 C1783 1.390 . S
C1788 C1787 1.387 . S
H1789 C1801 0.930 . S
H1790 C1803 0.930 . S
H1791 C1804 0.930 . S
H1792 C1808 0.959 . S
H1793 C1808 0.959 . S
H1794 C1808 0.961 . S
H1795 C1809 0.960 . S
H1796 C1809 0.961 . S
H1797 C1809 0.959 . S
H1798 C1812 0.929 . S
H1799 C1813 0.931 . S
H1800 C1815 0.930 . S
C1801 H1789 0.930 . S
C1801 C1802 1.399 . S
C1801 C1806 1.399 . S
C1802 C1801 1.399 . S
C1802 C1803 1.376 . S
C1803 H1790 0.930 . S
C1803 C1802 1.376 . S
C1803 C1804 1.388 . S
C1804 H1791 0.930 . S
C1804 C1803 1.388 . S
C1804 C1805 1.390 . S
C1805 C1804 1.390 . S
C1805 C1806 1.394 . S
C1805 C1811 1.465 . S
C1806 C1801 1.399 . S
C1806 C1805 1.394 . S
C1806 C1807 1.516 . S
C1807 C1806 1.516 . S
C1807 C1808 1.502 . S
C1807 C1809 1.561 . S
C1807 C1810 1.526 . S
C1808 H1792 0.959 . S
C1808 H1793 0.959 . S
C1808 H1794 0.961 . S
C1808 C1807 1.502 . S
C1809 H1795 0.960 . S
C1809 H1796 0.961 . S
C1809 H1797 0.959 . S
C1809 C1807 1.561 . S
C1810 C1807 1.526 . S
C1810 C1811 1.396 . S
C1810 C1815 1.390 . S
C1811 C1805 1.465 . S
C1811 C1810 1.396 . S
C1811 C1812 1.399 . S
C1812 H1798 0.929 . S
C1812 C1811 1.399 . S
C1812 C1813 1.385 . S
C1813 H1799 0.931 . S
C1813 C1812 1.385 . S
C1813 C1814 1.389 . S
C1814 C1813 1.389 . S
C1814 C1815 1.387 . S
C1815 H1800 0.930 . S
C1815 C1810 1.390 . S
C1815 C1814 1.387 . S
H1816 C1828 0.930 . S
H1817 C1830 0.930 . S
H1818 C1831 0.930 . S
H1819 C1835 0.959 . S
H1820 C1835 0.959 . S
H1821 C1835 0.961 . S
H1822 C1836 0.960 . S
H1823 C1836 0.961 . S
H1824 C1836 0.959 . S
H1825 C1839 0.929 . S
H1826 C1840 0.931 . S
H1827 C1842 0.930 . S
C1828 H1816 0.930 . S
C1828 C1829 1.399 . S
C1828 C1833 1.399 . S
C1829 C1828 1.399 . S
C1829 C1830 1.376 1_545 S
C1830 H1817 0.930 . S
C1830 C1829 1.376 1_565 S
C1830 C1831 1.388 . S
C1831 H1818 0.930 . S
C1831 C1830 1.388 . S
C1831 C1832 1.390 . S
C1832 C1831 1.390 . S
C1832 C1833 1.394 1_565 S
C1832 C1838 1.466 . S
C1833 C1828 1.399 . S
C1833 C1832 1.394 1_545 S
C1833 C1834 1.516 . S
C1834 C1833 1.516 . S
C1834 C1835 1.502 . S
C1834 C1836 1.561 . S
C1834 C1837 1.526 . S
C1835 H1819 0.959 . S
C1835 H1820 0.959 . S
C1835 H1821 0.961 . S
C1835 C1834 1.502 . S
C1836 H1822 0.960 . S
C1836 H1823 0.961 . S
C1836 H1824 0.959 . S
C1836 C1834 1.561 . S
C1837 C1834 1.526 . S
C1837 C1838 1.382 1_545 S
C1837 C1842 1.390 . S
C1838 C1832 1.466 . S
C1838 C1837 1.382 1_565 S
C1838 C1839 1.409 . S
C1839 H1825 0.929 . S
C1839 C1838 1.409 . S
C1839 C1840 1.385 . S
C1840 H1826 0.931 . S
C1840 C1839 1.385 . S
C1840 C1841 1.389 1_565 S
C1841 C1840 1.389 1_545 S
C1841 C1842 1.387 . S
C1842 H1827 0.930 . S
C1842 C1837 1.390 . S
C1842 C1841 1.387 . S
H1843 C1855 0.930 . S
H1844 C1857 0.930 . S
H1845 C1858 0.930 . S
H1846 C1862 0.959 . S
H1847 C1862 0.959 . S
H1848 C1862 0.961 . S
H1849 C1863 0.960 . S
H1850 C1863 0.961 . S
H1851 C1863 0.959 . S
H1852 C1866 0.929 . S
H1853 C1867 0.931 . S
H1854 C1869 0.930 . S
C1855 H1843 0.930 . S
C1855 C1856 1.399 . S
C1855 C1860 1.399 . S
C1856 C1855 1.399 . S
C1856 C1857 1.376 . S
C1857 H1844 0.930 . S
C1857 C1856 1.376 . S
C1857 C1858 1.388 . S
C1858 H1845 0.930 . S
C1858 C1857 1.388 . S
C1858 C1859 1.390 . S
C1859 C1858 1.390 . S
C1859 C1860 1.394 . S
C1859 C1865 1.465 . S
C1860 C1855 1.399 . S
C1860 C1859 1.394 . S
C1860 C1861 1.516 . S
C1861 C1860 1.516 . S
C1861 C1862 1.502 . S
C1861 C1863 1.561 . S
C1861 C1864 1.526 . S
C1862 H1846 0.959 . S
C1862 H1847 0.959 . S
C1862 H1848 0.961 . S
C1862 C1861 1.502 . S
C1863 H1849 0.960 . S
C1863 H1850 0.961 . S
C1863 H1851 0.959 . S
C1863 C1861 1.561 . S
C1864 C1861 1.526 . S
C1864 C1865 1.396 . S
C1864 C1869 1.390 . S
C1865 C1859 1.465 . S
C1865 C1864 1.396 . S
C1865 C1866 1.399 . S
C1866 H1852 0.929 . S
C1866 C1865 1.399 . S
C1866 C1867 1.385 . S
C1867 H1853 0.931 . S
C1867 C1866 1.385 . S
C1867 C1868 1.389 . S
C1868 C1867 1.389 . S
C1868 C1869 1.387 . S
C1869 H1854 0.930 . S
C1869 C1864 1.390 . S
C1869 C1868 1.387 . S
H1870 C1882 0.930 . S
H1871 C1884 0.930 . S
H1872 C1885 0.930 . S
H1873 C1889 0.959 . S
H1874 C1889 0.959 . S
H1875 C1889 0.961 . S
H1876 C1890 0.960 . S
H1877 C1890 0.961 . S
H1878 C1890 0.959 . S
H1879 C1893 0.929 . S
H1880 C1894 0.931 . S
H1881 C1896 0.884 1_565 S
C1882 H1870 0.930 . S
C1882 C1883 1.399 1_565 S
C1882 C1887 1.399 1_565 S
C1883 C1882 1.399 1_545 S
C1883 C1884 1.376 . S
C1884 H1871 0.930 . S
C1884 C1883 1.376 . S
C1884 C1885 1.388 . S
C1885 H1872 0.930 . S
C1885 C1884 1.388 . S
C1885 C1886 1.390 . S
C1886 C1885 1.390 . S
C1886 C1887 1.394 . S
C1886 C1892 1.465 . S
C1887 C1882 1.399 1_545 S
C1887 C1886 1.394 . S
C1887 C1888 1.516 1_545 S
C1888 C1887 1.516 1_565 S
C1888 C1889 1.502 . S
C1888 C1890 1.561 . S
C1888 C1891 1.526 1_565 S
C1889 H1873 0.959 . S
C1889 H1874 0.959 . S
C1889 H1875 0.961 . S
C1889 C1888 1.502 . S
C1890 H1876 0.960 . S
C1890 H1877 0.961 . S
C1890 H1878 0.959 . S
C1890 C1888 1.561 . S
C1891 C1888 1.526 1_545 S
C1891 C1892 1.396 . S
C1891 C1896 1.390 . S
C1892 C1886 1.465 . S
C1892 C1891 1.396 . S
C1892 C1893 1.399 . S
C1893 H1879 0.929 . S
C1893 C1892 1.399 . S
C1893 C1894 1.385 . S
C1894 H1880 0.931 . S
C1894 C1893 1.385 . S
C1894 C1895 1.389 . S
C1895 C1894 1.389 . S
C1895 C1896 1.387 . S
C1896 H1881 0.884 1_545 S
C1896 C1891 1.390 . S
C1896 C1895 1.387 . S
H1897 C1909 0.930 . S
H1898 C1911 0.930 . S
H1899 C1912 0.930 . S
H1900 C1916 0.959 . S
H1901 C1916 0.959 . S
H1902 C1916 0.961 . S
H1903 C1917 0.960 . S
H1904 C1917 0.961 . S
H1905 C1917 0.959 . S
H1906 C1920 0.929 . S
H1907 C1921 0.931 . S
H1908 C1923 0.930 . S
C1909 H1897 0.930 . S
C1909 C1910 1.399 . S
C1909 C1914 1.399 . S
C1910 C1909 1.399 . S
C1910 C1911 1.376 . S
C1911 H1898 0.930 . S
C1911 C1910 1.376 . S
C1911 C1912 1.388 . S
C1912 H1899 0.930 . S
C1912 C1911 1.388 . S
C1912 C1913 1.390 . S
C1913 C1912 1.390 . S
C1913 C1914 1.394 . S
C1913 C1919 1.465 . S
C1914 C1909 1.399 . S
C1914 C1913 1.394 . S
C1914 C1915 1.516 . S
C1915 C1914 1.516 . S
C1915 C1916 1.502 . S
C1915 C1917 1.561 . S
C1915 C1918 1.526 . S
C1916 H1900 0.959 . S
C1916 H1901 0.959 . S
C1916 H1902 0.961 . S
C1916 C1915 1.502 . S
C1917 H1903 0.960 . S
C1917 H1904 0.961 . S
C1917 H1905 0.959 . S
C1917 C1915 1.561 . S
C1918 C1915 1.526 . S
C1918 C1919 1.396 . S
C1918 C1923 1.390 . S
C1919 C1913 1.465 . S
C1919 C1918 1.396 . S
C1919 C1920 1.399 . S
C1920 H1906 0.929 . S
C1920 C1919 1.399 . S
C1920 C1921 1.385 . S
C1921 H1907 0.931 . S
C1921 C1920 1.385 . S
C1921 C1922 1.389 . S
C1922 C1921 1.389 . S
C1922 C1923 1.387 . S
C1923 H1908 0.930 . S
C1923 C1918 1.390 . S
C1923 C1922 1.387 . S
H1924 C1936 0.930 . S
H1925 C1938 0.930 . S
H1926 C1939 0.930 . S
H1927 C1943 0.959 . S
H1928 C1943 0.959 . S
H1929 C1943 0.961 . S
H1930 C1944 0.960 . S
H1931 C1944 0.961 . S
H1932 C1944 0.959 . S
H1933 C1947 0.929 1_565 S
H1934 C1948 0.931 . S
H1935 C1950 0.930 . S
C1936 H1924 0.930 . S
C1936 C1937 1.410 . S
C1936 C1941 1.399 . S
C1937 C1936 1.410 . S
C1937 C1938 1.371 1_545 S
C1938 H1925 0.930 . S
C1938 C1937 1.371 1_565 S
C1938 C1939 1.388 . S
C1939 H1926 0.930 . S
C1939 C1938 1.388 . S
C1939 C1940 1.390 1_565 S
C1940 C1939 1.390 1_545 S
C1940 C1941 1.394 . S
C1940 C1946 1.465 . S
C1941 C1936 1.399 . S
C1941 C1940 1.394 . S
C1941 C1942 1.516 . S
C1942 C1941 1.516 . S
C1942 C1943 1.502 . S
C1942 C1944 1.561 . S
C1942 C1945 1.526 . S
C1943 H1927 0.959 . S
C1943 H1928 0.959 . S
C1943 H1929 0.961 . S
C1943 C1942 1.502 . S
C1944 H1930 0.960 . S
C1944 H1931 0.961 . S
C1944 H1932 0.959 . S
C1944 C1942 1.561 . S
C1945 C1942 1.526 . S
C1945 C1946 1.396 . S
C1945 C1950 1.390 . S
C1946 C1940 1.465 . S
C1946 C1945 1.396 . S
C1946 C1947 1.399 . S
C1947 H1933 0.929 1_545 S
C1947 C1946 1.399 . S
C1947 C1948 1.385 . S
C1948 H1934 0.931 . S
C1948 C1947 1.385 . S
C1948 C1949 1.389 . S
C1949 C1948 1.389 . S
C1949 C1950 1.387 . S
C1950 H1935 0.930 . S
C1950 C1945 1.390 . S
C1950 C1949 1.387 . S
H1951 C1963 0.930 . S
H1952 C1965 0.930 . S
H1953 C1966 0.930 . S
H1954 C1970 0.959 . S
H1955 C1970 0.959 . S
H1956 C1970 0.961 . S
H1957 C1971 0.960 . S
H1958 C1971 0.961 . S
H1959 C1971 0.959 . S
H1960 C1974 0.929 . S
H1961 C1975 0.931 . S
H1962 C1977 0.930 . S
C1963 H1951 0.930 . S
C1963 C1964 1.399 . S
C1963 C1968 1.399 . S
C1964 C1963 1.399 . S
C1964 C1965 1.376 . S
C1965 H1952 0.930 . S
C1965 C1964 1.376 . S
C1965 C1966 1.388 . S
C1966 H1953 0.930 . S
C1966 C1965 1.388 . S
C1966 C1967 1.390 . S
C1967 C1966 1.390 . S
C1967 C1968 1.394 . S
C1967 C1973 1.465 . S
C1968 C1963 1.399 . S
C1968 C1967 1.394 . S
C1968 C1969 1.516 . S
C1969 C1968 1.516 . S
C1969 C1970 1.502 . S
C1969 C1971 1.561 . S
C1969 C1972 1.526 . S
C1970 H1954 0.959 . S
C1970 H1955 0.959 . S
C1970 H1956 0.961 . S
C1970 C1969 1.502 . S
C1971 H1957 0.960 . S
C1971 H1958 0.961 . S
C1971 H1959 0.959 . S
C1971 C1969 1.561 . S
C1972 C1969 1.526 . S
C1972 C1973 1.396 . S
C1972 C1977 1.390 . S
C1973 C1967 1.465 . S
C1973 C1972 1.396 . S
C1973 C1974 1.399 . S
C1974 H1960 0.929 . S
C1974 C1973 1.399 . S
C1974 C1975 1.385 . S
C1975 H1961 0.931 . S
C1975 C1974 1.385 . S
C1975 C1976 1.389 . S
C1976 C1975 1.389 . S
C1976 C1977 1.387 . S
C1977 H1962 0.930 . S
C1977 C1972 1.390 . S
C1977 C1976 1.387 . S
H1978 C1990 0.930 . S
H1979 C1992 0.930 . S
H1980 C1993 0.930 . S
H1981 C1997 0.959 . S
H1982 C1997 0.959 . S
H1983 C1997 0.961 . S
H1984 C1998 0.960 . S
H1985 C1998 0.961 . S
H1986 C1998 0.959 . S
H1987 C2001 0.929 1_545 S
H1988 C2002 0.931 . S
H1989 C2004 0.930 . S
C1990 H1978 0.930 . S
C1990 C1991 1.397 . S
C1990 C1995 1.399 . S
C1991 C1990 1.397 . S
C1991 C1992 1.379 1_565 S
C1992 H1979 0.930 . S
C1992 C1991 1.379 1_545 S
C1992 C1993 1.388 . S
C1993 H1980 0.930 . S
C1993 C1992 1.388 . S
C1993 C1994 1.390 1_545 S
C1994 C1993 1.390 1_565 S
C1994 C1995 1.394 . S
C1994 C2000 1.465 . S
C1995 C1990 1.399 . S
C1995 C1994 1.394 . S
C1995 C1996 1.516 . S
C1996 C1995 1.516 . S
C1996 C1997 1.502 . S
C1996 C1998 1.561 . S
C1996 C1999 1.526 . S
C1997 H1981 0.959 . S
C1997 H1982 0.959 . S
C1997 H1983 0.961 . S
C1997 C1996 1.502 . S
C1998 H1984 0.960 . S
C1998 H1985 0.961 . S
C1998 H1986 0.959 . S
C1998 C1996 1.561 . S
C1999 C1996 1.526 . S
C1999 C2000 1.396 . S
C1999 C2004 1.390 . S
C2000 C1994 1.465 . S
C2000 C1999 1.396 . S
C2000 C2001 1.399 . S
C2001 H1987 0.929 1_565 S
C2001 C2000 1.399 . S
C2001 C2002 1.385 . S
C2002 H1988 0.931 . S
C2002 C2001 1.385 . S
C2002 C2003 1.389 . S
C2003 C2002 1.389 . S
C2003 C2004 1.387 . S
C2004 H1989 0.930 . S
C2004 C1999 1.390 . S
C2004 C2003 1.387 . S
H2005 C2017 0.930 . S
H2006 C2019 0.930 . S
H2007 C2020 0.930 . S
H2008 C2024 0.959 . S
H2009 C2024 0.959 . S
H2010 C2024 0.961 . S
H2011 C2025 0.960 . S
H2012 C2025 0.961 . S
H2013 C2025 0.959 . S
H2014 C2028 0.929 . S
H2015 C2029 0.931 . S
H2016 C2031 0.930 . S
C2017 H2005 0.930 . S
C2017 C2018 1.399 . S
C2017 C2022 1.399 . S
C2018 C2017 1.399 . S
C2018 C2019 1.376 . S
C2019 H2006 0.930 . S
C2019 C2018 1.376 . S
C2019 C2020 1.388 . S
C2020 H2007 0.930 . S
C2020 C2019 1.388 . S
C2020 C2021 1.390 . S
C2021 C2020 1.390 . S
C2021 C2022 1.394 . S
C2021 C2027 1.465 . S
C2022 C2017 1.399 . S
C2022 C2021 1.394 . S
C2022 C2023 1.516 . S
C2023 C2022 1.516 . S
C2023 C2024 1.502 . S
C2023 C2025 1.561 . S
C2023 C2026 1.526 . S
C2024 H2008 0.959 . S
C2024 H2009 0.959 . S
C2024 H2010 0.961 . S
C2024 C2023 1.502 . S
C2025 H2011 0.960 . S
C2025 H2012 0.961 . S
C2025 H2013 0.959 . S
C2025 C2023 1.561 . S
C2026 C2023 1.526 . S
C2026 C2027 1.396 . S
C2026 C2031 1.390 . S
C2027 C2021 1.465 . S
C2027 C2026 1.396 . S
C2027 C2028 1.399 . S
C2028 H2014 0.929 . S
C2028 C2027 1.399 . S
C2028 C2029 1.385 . S
C2029 H2015 0.931 . S
C2029 C2028 1.385 . S
C2029 C2030 1.389 . S
C2030 C2029 1.389 . S
C2030 C2031 1.387 . S
C2031 H2016 0.930 . S
C2031 C2026 1.390 . S
C2031 C2030 1.387 . S
H2032 C2044 0.930 . S
H2033 C2046 0.930 . S
H2034 C2047 0.927 . S
H2035 C2051 0.959 . S
H2036 C2051 0.959 . S
H2037 C2051 0.961 . S
H2038 C2052 0.960 . S
H2039 C2052 0.961 . S
H2040 C2052 0.959 . S
H2041 C2055 0.929 . S
H2042 C2056 0.931 . S
H2043 C2058 0.930 . S
C2044 H2032 0.930 . S
C2044 C2045 1.399 . S
C2044 C2049 1.386 1_554 S
C2045 C2044 1.399 . S
C2045 C2046 1.376 . S
C2046 H2033 0.930 . S
C2046 C2045 1.376 . S
C2046 C2047 1.388 . S
C2047 H2034 0.927 . S
C2047 C2046 1.388 . S
C2047 C2048 1.390 1_554 S
C2048 C2047 1.390 1_556 S
C2048 C2049 1.389 . S
C2048 C2054 1.465 . S
C2049 C2044 1.386 1_556 S
C2049 C2048 1.389 . S
C2049 C2050 1.536 . S
C2050 C2049 1.536 . S
C2050 C2051 1.502 . S
C2050 C2052 1.561 1_556 S
C2050 C2053 1.526 . S
C2051 H2035 0.959 . S
C2051 H2036 0.959 . S
C2051 H2037 0.961 . S
C2051 C2050 1.502 . S
C2052 H2038 0.960 . S
C2052 H2039 0.961 . S
C2052 H2040 0.959 . S
C2052 C2050 1.561 1_554 S
C2053 C2050 1.526 . S
C2053 C2054 1.396 . S
C2053 C2058 1.390 . S
C2054 C2048 1.465 . S
C2054 C2053 1.396 . S
C2054 C2055 1.399 . S
C2055 H2041 0.929 . S
C2055 C2054 1.399 . S
C2055 C2056 1.385 . S
C2056 H2042 0.931 . S
C2056 C2055 1.385 . S
C2056 C2057 1.389 . S
C2057 C2056 1.389 . S
C2057 C2058 1.387 . S
C2058 H2043 0.930 . S
C2058 C2053 1.390 . S
C2058 C2057 1.387 . S
H2059 C2071 0.930 1_556 S
H2060 C2073 0.930 . S
H2061 C2074 0.930 . S
H2062 C2078 0.959 . S
H2063 C2078 0.959 . S
H2064 C2078 0.961 . S
H2065 C2079 0.960 . S
H2066 C2079 0.961 . S
H2067 C2079 0.959 . S
H2068 C2082 0.929 . S
H2069 C2083 0.931 . S
H2070 C2085 0.930 1_556 S
C2071 H2059 0.930 1_554 S
C2071 C2072 1.399 . S
C2071 C2076 1.399 . S
C2072 C2071 1.399 . S
C2072 C2073 1.376 . S
C2073 H2060 0.930 . S
C2073 C2072 1.376 . S
C2073 C2074 1.388 . S
C2074 H2061 0.930 . S
C2074 C2073 1.388 . S
C2074 C2075 1.390 . S
C2075 C2074 1.390 . S
C2075 C2076 1.394 . S
C2075 C2081 1.465 . S
C2076 C2071 1.399 . S
C2076 C2075 1.394 . S
C2076 C2077 1.516 1_554 S
C2077 C2076 1.516 1_556 S
C2077 C2078 1.502 . S
C2077 C2079 1.561 . S
C2077 C2080 1.526 1_556 S
C2078 H2062 0.959 . S
C2078 H2063 0.959 . S
C2078 H2064 0.961 . S
C2078 C2077 1.502 . S
C2079 H2065 0.960 . S
C2079 H2066 0.961 . S
C2079 H2067 0.959 . S
C2079 C2077 1.561 . S
C2080 C2077 1.526 1_554 S
C2080 C2081 1.396 . S
C2080 C2085 1.390 . S
C2081 C2075 1.465 . S
C2081 C2080 1.396 . S
C2081 C2082 1.399 . S
C2082 H2068 0.929 . S
C2082 C2081 1.399 . S
C2082 C2083 1.385 . S
C2083 H2069 0.931 . S
C2083 C2082 1.385 . S
C2083 C2084 1.389 . S
C2084 C2083 1.389 . S
C2084 C2085 1.387 . S
C2085 H2070 0.930 1_554 S
C2085 C2080 1.390 . S
C2085 C2084 1.387 . S
H2086 C2098 0.930 . S
H2087 C2100 0.930 . S
H2088 C2101 0.930 . S
H2089 C2105 0.959 . S
H2090 C2105 0.959 . S
H2091 C2105 0.961 . S
H2092 C2106 0.960 . S
H2093 C2106 0.961 . S
H2094 C2106 0.959 . S
H2095 C2109 0.929 . S
H2096 C2110 0.931 . S
H2097 C2112 0.930 . S
C2098 H2086 0.930 . S
C2098 C2099 1.399 . S
C2098 C2103 1.399 . S
C2099 C2098 1.399 . S
C2099 C2100 1.376 . S
C2100 H2087 0.930 . S
C2100 C2099 1.376 . S
C2100 C2101 1.388 . S
C2101 H2088 0.930 . S
C2101 C2100 1.388 . S
C2101 C2102 1.390 . S
C2102 C2101 1.390 . S
C2102 C2103 1.394 . S
C2102 C2108 1.465 . S
C2103 C2098 1.399 . S
C2103 C2102 1.394 . S
C2103 C2104 1.516 . S
C2104 C2103 1.516 . S
C2104 C2105 1.502 . S
C2104 C2106 1.561 . S
C2104 C2107 1.526 . S
C2105 H2089 0.959 . S
C2105 H2090 0.959 . S
C2105 H2091 0.961 . S
C2105 C2104 1.502 . S
C2106 H2092 0.960 . S
C2106 H2093 0.961 . S
C2106 H2094 0.959 . S
C2106 C2104 1.561 . S
C2107 C2104 1.526 . S
C2107 C2108 1.396 . S
C2107 C2112 1.390 . S
C2108 C2102 1.465 . S
C2108 C2107 1.396 . S
C2108 C2109 1.399 . S
C2109 H2095 0.929 . S
C2109 C2108 1.399 . S
C2109 C2110 1.385 . S
C2110 H2096 0.931 . S
C2110 C2109 1.385 . S
C2110 C2111 1.389 . S
C2111 C2110 1.389 . S
C2111 C2112 1.387 . S
C2112 H2097 0.930 . S
C2112 C2107 1.390 . S
C2112 C2111 1.387 . S
H2113 C2125 0.930 . S
H2114 C2127 0.930 . S
H2115 C2128 0.930 . S
H2116 C2132 0.959 . S
H2117 C2132 0.959 . S
H2118 C2132 0.961 . S
H2119 C2133 0.960 . S
H2120 C2133 0.961 . S
H2121 C2133 0.959 . S
H2122 C2136 0.929 . S
H2123 C2137 0.931 . S
H2124 C2139 0.930 . S
C2125 H2113 0.930 . S
C2125 C2126 1.399 . S
C2125 C2130 1.399 . S
C2126 C2125 1.399 . S
C2126 C2127 1.376 . S
C2127 H2114 0.930 . S
C2127 C2126 1.376 . S
C2127 C2128 1.388 . S
C2128 H2115 0.930 . S
C2128 C2127 1.388 . S
C2128 C2129 1.390 . S
C2129 C2128 1.390 . S
C2129 C2130 1.394 . S
C2129 C2135 1.465 . S
C2130 C2125 1.399 . S
C2130 C2129 1.394 . S
C2130 C2131 1.516 . S
C2131 C2130 1.516 . S
C2131 C2132 1.502 . S
C2131 C2133 1.561 . S
C2131 C2134 1.526 . S
C2132 H2116 0.959 . S
C2132 H2117 0.959 . S
C2132 H2118 0.961 . S
C2132 C2131 1.502 . S
C2133 H2119 0.960 . S
C2133 H2120 0.961 . S
C2133 H2121 0.959 . S
C2133 C2131 1.561 . S
C2134 C2131 1.526 . S
C2134 C2135 1.396 . S
C2134 C2139 1.390 . S
C2135 C2129 1.465 . S
C2135 C2134 1.396 . S
C2135 C2136 1.399 . S
C2136 H2122 0.929 . S
C2136 C2135 1.399 . S
C2136 C2137 1.385 . S
C2137 H2123 0.931 . S
C2137 C2136 1.385 . S
C2137 C2138 1.389 . S
C2138 C2137 1.389 . S
C2138 C2139 1.387 . S
C2139 H2124 0.930 . S
C2139 C2134 1.390 . S
C2139 C2138 1.387 . S
H2140 C2152 0.930 . S
H2141 C2154 0.930 . S
H2142 C2155 0.930 . S
H2143 C2159 0.959 . S
H2144 C2159 0.959 . S
H2145 C2159 0.961 . S
H2146 C2160 0.960 . S
H2147 C2160 0.961 . S
H2148 C2160 0.959 . S
H2149 C2163 0.929 1_545 S
H2150 C2164 0.931 . S
H2151 C2166 0.930 . S
C2152 H2140 0.930 . S
C2152 C2153 1.399 1_565 S
C2152 C2157 1.399 . S
C2153 C2152 1.399 1_545 S
C2153 C2154 1.376 . S
C2154 H2141 0.930 . S
C2154 C2153 1.376 . S
C2154 C2155 1.388 . S
C2155 H2142 0.930 . S
C2155 C2154 1.388 . S
C2155 C2156 1.390 1_545 S
C2156 C2155 1.390 1_565 S
C2156 C2157 1.394 . S
C2156 C2162 1.465 . S
C2157 C2152 1.399 . S
C2157 C2156 1.394 . S
C2157 C2158 1.516 . S
C2158 C2157 1.516 . S
C2158 C2159 1.502 . S
C2158 C2160 1.561 . S
C2158 C2161 1.526 . S
C2159 H2143 0.959 . S
C2159 H2144 0.959 . S
C2159 H2145 0.961 . S
C2159 C2158 1.502 . S
C2160 H2146 0.960 . S
C2160 H2147 0.961 . S
C2160 H2148 0.959 . S
C2160 C2158 1.561 . S
C2161 C2158 1.526 . S
C2161 C2162 1.396 . S
C2161 C2166 1.390 . S
C2162 C2156 1.465 . S
C2162 C2161 1.396 . S
C2162 C2163 1.399 . S
C2163 H2149 0.929 1_565 S
C2163 C2162 1.399 . S
C2163 C2164 1.385 . S
C2164 H2150 0.931 . S
C2164 C2163 1.385 . S
C2164 C2165 1.389 . S
C2165 C2164 1.389 . S
C2165 C2166 1.387 . S
C2166 H2151 0.930 . S
C2166 C2161 1.390 . S
C2166 C2165 1.387 . S
H2167 C2179 0.930 . S
H2168 C2181 0.930 . S
H2169 C2182 0.930 . S
H2170 C2186 0.959 . S
H2171 C2186 0.959 . S
H2172 C2186 0.961 . S
H2173 C2187 0.960 . S
H2174 C2187 0.961 . S
H2175 C2187 0.959 . S
H2176 C2190 0.929 . S
H2177 C2191 0.931 . S
H2178 C2193 0.930 . S
C2179 H2167 0.930 . S
C2179 C2180 1.399 . S
C2179 C2184 1.399 . S
C2180 C2179 1.399 . S
C2180 C2181 1.376 . S
C2181 H2168 0.930 . S
C2181 C2180 1.376 . S
C2181 C2182 1.388 . S
C2182 H2169 0.930 . S
C2182 C2181 1.388 . S
C2182 C2183 1.390 . S
C2183 C2182 1.390 . S
C2183 C2184 1.394 . S
C2183 C2189 1.465 . S
C2184 C2179 1.399 . S
C2184 C2183 1.394 . S
C2184 C2185 1.516 . S
C2185 C2184 1.516 . S
C2185 C2186 1.502 . S
C2185 C2187 1.561 . S
C2185 C2188 1.526 . S
C2186 H2170 0.959 . S
C2186 H2171 0.959 . S
C2186 H2172 0.961 . S
C2186 C2185 1.502 . S
C2187 H2173 0.960 . S
C2187 H2174 0.961 . S
C2187 H2175 0.959 . S
C2187 C2185 1.561 . S
C2188 C2185 1.526 . S
C2188 C2189 1.396 . S
C2188 C2193 1.390 . S
C2189 C2183 1.465 . S
C2189 C2188 1.396 . S
C2189 C2190 1.399 . S
C2190 H2176 0.929 . S
C2190 C2189 1.399 . S
C2190 C2191 1.385 . S
C2191 H2177 0.931 . S
C2191 C2190 1.385 . S
C2191 C2192 1.389 . S
C2192 C2191 1.389 . S
C2192 C2193 1.387 . S
C2193 H2178 0.930 . S
C2193 C2188 1.390 . S
C2193 C2192 1.387 . S
H2194 C2206 0.930 . S
H2195 C2208 0.930 . S
H2196 C2209 0.930 . S
H2197 C2213 0.959 . S
H2198 C2213 0.959 . S
H2199 C2213 0.961 . S
H2200 C2214 0.960 . S
H2201 C2214 0.961 . S
H2202 C2214 0.959 . S
H2203 C2217 0.929 . S
H2204 C2218 0.931 . S
H2205 C2220 0.930 . S
C2206 H2194 0.930 . S
C2206 C2207 1.399 . S
C2206 C2211 1.399 . S
C2207 C2206 1.399 . S
C2207 C2208 1.376 . S
C2208 H2195 0.930 . S
C2208 C2207 1.376 . S
C2208 C2209 1.388 . S
C2209 H2196 0.930 . S
C2209 C2208 1.388 . S
C2209 C2210 1.390 . S
C2210 C2209 1.390 . S
C2210 C2211 1.394 . S
C2210 C2216 1.465 . S
C2211 C2206 1.399 . S
C2211 C2210 1.394 . S
C2211 C2212 1.516 . S
C2212 C2211 1.516 . S
C2212 C2213 1.502 . S
C2212 C2214 1.561 . S
C2212 C2215 1.526 . S
C2213 H2197 0.959 . S
C2213 H2198 0.959 . S
C2213 H2199 0.961 . S
C2213 C2212 1.502 . S
C2214 H2200 0.960 . S
C2214 H2201 0.961 . S
C2214 H2202 0.959 . S
C2214 C2212 1.561 . S
C2215 C2212 1.526 . S
C2215 C2216 1.396 . S
C2215 C2220 1.390 . S
C2216 C2210 1.465 . S
C2216 C2215 1.396 . S
C2216 C2217 1.399 . S
C2217 H2203 0.929 . S
C2217 C2216 1.399 . S
C2217 C2218 1.385 . S
C2218 H2204 0.931 . S
C2218 C2217 1.385 . S
C2218 C2219 1.389 . S
C2219 C2218 1.389 . S
C2219 C2220 1.387 . S
C2220 H2205 0.930 . S
C2220 C2215 1.390 . S
C2220 C2219 1.387 . S
H2221 C2233 0.930 . S
H2222 C2235 0.930 . S
H2223 C2236 0.930 . S
H2224 C2240 0.959 . S
H2225 C2240 0.959 . S
H2226 C2240 0.961 . S
H2227 C2241 0.960 . S
H2228 C2241 0.961 . S
H2229 C2241 0.959 . S
H2230 C2244 0.929 . S
H2231 C2245 0.931 . S
H2232 C2247 0.930 . S
C2233 H2221 0.930 . S
C2233 C2234 1.399 . S
C2233 C2238 1.399 . S
C2234 C2233 1.399 . S
C2234 C2235 1.376 . S
C2235 H2222 0.930 . S
C2235 C2234 1.376 . S
C2235 C2236 1.388 . S
C2236 H2223 0.930 . S
C2236 C2235 1.388 . S
C2236 C2237 1.390 . S
C2237 C2236 1.390 . S
C2237 C2238 1.394 . S
C2237 C2243 1.465 . S
C2238 C2233 1.399 . S
C2238 C2237 1.394 . S
C2238 C2239 1.516 . S
C2239 C2238 1.516 . S
C2239 C2240 1.502 . S
C2239 C2241 1.561 . S
C2239 C2242 1.526 . S
C2240 H2224 0.959 . S
C2240 H2225 0.959 . S
C2240 H2226 0.961 . S
C2240 C2239 1.502 . S
C2241 H2227 0.960 . S
C2241 H2228 0.961 . S
C2241 H2229 0.959 . S
C2241 C2239 1.561 . S
C2242 C2239 1.526 . S
C2242 C2243 1.396 . S
C2242 C2247 1.390 . S
C2243 C2237 1.465 . S
C2243 C2242 1.396 . S
C2243 C2244 1.399 . S
C2244 H2230 0.929 . S
C2244 C2243 1.399 . S
C2244 C2245 1.385 . S
C2245 H2231 0.931 . S
C2245 C2244 1.385 . S
C2245 C2246 1.389 . S
C2246 C2245 1.389 . S
C2246 C2247 1.387 . S
C2247 H2232 0.930 . S
C2247 C2242 1.390 . S
C2247 C2246 1.387 . S
H2248 C2260 0.930 . S
H2249 C2262 0.930 . S
H2250 C2263 0.930 . S
H2251 C2267 0.959 . S
H2252 C2267 0.959 . S
H2253 C2267 0.961 . S
H2254 C2268 0.960 . S
H2255 C2268 0.961 . S
H2256 C2268 0.959 . S
H2257 C2271 0.929 . S
H2258 C2272 0.931 . S
H2259 C2274 0.930 . S
C2260 H2248 0.930 . S
C2260 C2261 1.399 . S
C2260 C2265 1.399 . S
C2261 C2260 1.399 . S
C2261 C2262 1.376 . S
C2262 H2249 0.930 . S
C2262 C2261 1.376 . S
C2262 C2263 1.388 . S
C2263 H2250 0.930 . S
C2263 C2262 1.388 . S
C2263 C2264 1.390 . S
C2264 C2263 1.390 . S
C2264 C2265 1.394 . S
C2264 C2270 1.465 . S
C2265 C2260 1.399 . S
C2265 C2264 1.394 . S
C2265 C2266 1.516 . S
C2266 C2265 1.516 . S
C2266 C2267 1.502 . S
C2266 C2268 1.561 . S
C2266 C2269 1.526 . S
C2267 H2251 0.959 . S
C2267 H2252 0.959 . S
C2267 H2253 0.961 . S
C2267 C2266 1.502 . S
C2268 H2254 0.960 . S
C2268 H2255 0.961 . S
C2268 H2256 0.959 . S
C2268 C2266 1.561 . S
C2269 C2266 1.526 . S
C2269 C2270 1.396 . S
C2269 C2274 1.390 . S
C2270 C2264 1.465 . S
C2270 C2269 1.396 . S
C2270 C2271 1.399 . S
C2271 H2257 0.929 . S
C2271 C2270 1.399 . S
C2271 C2272 1.385 . S
C2272 H2258 0.931 . S
C2272 C2271 1.385 . S
C2272 C2273 1.389 . S
C2273 C2272 1.389 . S
C2273 C2274 1.387 . S
C2274 H2259 0.930 . S
C2274 C2269 1.390 . S
C2274 C2273 1.387 . S
H2275 C2287 0.930 . S
H2276 C2289 0.930 . S
H2277 C2290 0.930 . S
H2278 C2294 0.959 . S
H2279 C2294 0.959 . S
H2280 C2294 0.961 . S
H2281 C2295 0.960 . S
H2282 C2295 0.961 . S
H2283 C2295 0.959 . S
H2284 C2298 0.929 . S
H2285 C2299 0.931 . S
H2286 C2301 0.930 . S
C2287 H2275 0.930 . S
C2287 C2288 1.399 . S
C2287 C2292 1.399 . S
C2288 C2287 1.399 . S
C2288 C2289 1.376 . S
C2289 H2276 0.930 . S
C2289 C2288 1.376 . S
C2289 C2290 1.388 . S
C2290 H2277 0.930 . S
C2290 C2289 1.388 . S
C2290 C2291 1.390 . S
C2291 C2290 1.390 . S
C2291 C2292 1.394 . S
C2291 C2297 1.465 . S
C2292 C2287 1.399 . S
C2292 C2291 1.394 . S
C2292 C2293 1.516 . S
C2293 C2292 1.516 . S
C2293 C2294 1.502 . S
C2293 C2295 1.561 . S
C2293 C2296 1.526 . S
C2294 H2278 0.959 . S
C2294 H2279 0.959 . S
C2294 H2280 0.961 . S
C2294 C2293 1.502 . S
C2295 H2281 0.960 . S
C2295 H2282 0.961 . S
C2295 H2283 0.959 . S
C2295 C2293 1.561 . S
C2296 C2293 1.526 . S
C2296 C2297 1.396 . S
C2296 C2301 1.390 . S
C2297 C2291 1.465 . S
C2297 C2296 1.396 . S
C2297 C2298 1.399 . S
C2298 H2284 0.929 . S
C2298 C2297 1.399 . S
C2298 C2299 1.385 . S
C2299 H2285 0.931 . S
C2299 C2298 1.385 . S
C2299 C2300 1.389 . S
C2300 C2299 1.389 . S
C2300 C2301 1.387 . S
C2301 H2286 0.930 . S
C2301 C2296 1.390 . S
C2301 C2300 1.387 . S
H2302 C2314 0.930 . S
H2303 C2316 0.930 . S
H2304 C2317 0.930 1_554 S
H2305 C2321 0.959 . S
H2306 C2321 0.959 . S
H2307 C2321 0.961 . S
H2308 C2322 0.960 . S
H2309 C2322 0.961 . S
H2310 C2322 0.959 . S
H2311 C2325 0.929 . S
H2312 C2326 0.931 . S
H2313 C2328 0.930 . S
C2314 H2302 0.930 . S
C2314 C2315 1.399 . S
C2314 C2319 1.399 . S
C2315 C2314 1.399 . S
C2315 C2316 1.376 . S
C2316 H2303 0.930 . S
C2316 C2315 1.376 . S
C2316 C2317 1.388 . S
C2317 H2304 0.930 1_556 S
C2317 C2316 1.388 . S
C2317 C2318 1.390 . S
C2318 C2317 1.390 . S
C2318 C2319 1.394 . S
C2318 C2324 1.465 . S
C2319 C2314 1.399 . S
C2319 C2318 1.394 . S
C2319 C2320 1.516 . S
C2320 C2319 1.516 . S
C2320 C2321 1.502 . S
C2320 C2322 1.561 . S
C2320 C2323 1.526 . S
C2321 H2305 0.959 . S
C2321 H2306 0.959 . S
C2321 H2307 0.961 . S
C2321 C2320 1.502 . S
C2322 H2308 0.960 . S
C2322 H2309 0.961 . S
C2322 H2310 0.959 . S
C2322 C2320 1.561 . S
C2323 C2320 1.526 . S
C2323 C2324 1.396 . S
C2323 C2328 1.390 . S
C2324 C2318 1.465 . S
C2324 C2323 1.396 . S
C2324 C2325 1.399 1_556 S
C2325 H2311 0.929 . S
C2325 C2324 1.399 1_554 S
C2325 C2326 1.385 . S
C2326 H2312 0.931 . S
C2326 C2325 1.385 . S
C2326 C2327 1.389 1_554 S
C2327 C2326 1.389 1_556 S
C2327 C2328 1.387 . S
C2328 H2313 0.930 . S
C2328 C2323 1.390 . S
C2328 C2327 1.387 . S
H2329 C2341 0.930 . S
H2330 C2343 0.930 . S
H2331 C2344 0.930 . S
H2332 C2348 0.959 . S
H2333 C2348 0.959 . S
H2334 C2348 0.961 . S
H2335 C2349 0.960 . S
H2336 C2349 0.961 . S
H2337 C2349 0.959 . S
H2338 C2352 0.929 . S
H2339 C2353 0.931 . S
H2340 C2355 0.930 . S
C2341 H2329 0.930 . S
C2341 C2342 1.399 . S
C2341 C2346 1.399 1_455 S
C2342 C2341 1.399 . S
C2342 C2343 1.376 . S
C2343 H2330 0.930 . S
C2343 C2342 1.376 . S
C2343 C2344 1.388 1_455 S
C2344 H2331 0.930 . S
C2344 C2343 1.388 1_655 S
C2344 C2345 1.390 . S
C2345 C2344 1.390 . S
C2345 C2346 1.394 . S
C2345 C2351 1.465 . S
C2346 C2341 1.399 1_655 S
C2346 C2345 1.394 . S
C2346 C2347 1.516 . S
C2347 C2346 1.516 . S
C2347 C2348 1.502 . S
C2347 C2349 1.561 . S
C2347 C2350 1.526 . S
C2348 H2332 0.959 . S
C2348 H2333 0.959 . S
C2348 H2334 0.961 . S
C2348 C2347 1.502 . S
C2349 H2335 0.960 . S
C2349 H2336 0.961 . S
C2349 H2337 0.959 . S
C2349 C2347 1.561 . S
C2350 C2347 1.526 . S
C2350 C2351 1.396 . S
C2350 C2355 1.390 . S
C2351 C2345 1.465 . S
C2351 C2350 1.396 . S
C2351 C2352 1.399 . S
C2352 H2338 0.929 . S
C2352 C2351 1.399 . S
C2352 C2353 1.385 . S
C2353 H2339 0.931 . S
C2353 C2352 1.385 . S
C2353 C2354 1.389 . S
C2354 C2353 1.389 . S
C2354 C2355 1.387 . S
C2355 H2340 0.930 . S
C2355 C2350 1.390 . S
C2355 C2354 1.387 . S
H2356 C2368 0.930 . S
H2357 C2370 0.930 . S
H2358 C2371 0.930 . S
H2359 C2375 0.959 . S
H2360 C2375 0.959 . S
H2361 C2375 0.961 . S
H2362 C2376 0.960 . S
H2363 C2376 0.961 . S
H2364 C2376 0.959 . S
H2365 C2379 0.929 . S
H2366 C2380 0.931 . S
H2367 C2382 0.930 . S
C2368 H2356 0.930 . S
C2368 C2369 1.399 . S
C2368 C2373 1.399 . S
C2369 C2368 1.399 . S
C2369 C2370 1.376 . S
C2370 H2357 0.930 . S
C2370 C2369 1.376 . S
C2370 C2371 1.388 . S
C2371 H2358 0.930 . S
C2371 C2370 1.388 . S
C2371 C2372 1.390 . S
C2372 C2371 1.390 . S
C2372 C2373 1.394 . S
C2372 C2378 1.465 . S
C2373 C2368 1.399 . S
C2373 C2372 1.394 . S
C2373 C2374 1.516 . S
C2374 C2373 1.516 . S
C2374 C2375 1.502 . S
C2374 C2376 1.561 . S
C2374 C2377 1.526 . S
C2375 H2359 0.959 . S
C2375 H2360 0.959 . S
C2375 H2361 0.961 . S
C2375 C2374 1.502 . S
C2376 H2362 0.960 . S
C2376 H2363 0.961 . S
C2376 H2364 0.959 . S
C2376 C2374 1.561 . S
C2377 C2374 1.526 . S
C2377 C2378 1.396 . S
C2377 C2382 1.390 . S
C2378 C2372 1.465 . S
C2378 C2377 1.396 . S
C2378 C2379 1.399 . S
C2379 H2365 0.929 . S
C2379 C2378 1.399 . S
C2379 C2380 1.385 . S
C2380 H2366 0.931 . S
C2380 C2379 1.385 . S
C2380 C2381 1.389 . S
C2381 C2380 1.389 . S
C2381 C2382 1.387 . S
C2382 H2367 0.930 . S
C2382 C2377 1.390 . S
C2382 C2381 1.387 . S
H2383 C2395 0.930 . S
H2384 C2397 0.930 . S
H2385 C2398 0.930 . S
H2386 C2402 0.959 1_455 S
H2387 C2402 0.959 . S
H2388 C2402 0.961 1_455 S
H2389 C2403 0.960 . S
H2390 C2403 0.961 . S
H2391 C2403 0.959 . S
H2392 C2406 0.929 . S
H2393 C2407 0.931 . S
H2394 C2409 0.930 . S
C2395 H2383 0.930 . S
C2395 C2396 1.399 . S
C2395 C2400 1.399 . S
C2396 C2395 1.399 . S
C2396 C2397 1.376 . S
C2397 H2384 0.930 . S
C2397 C2396 1.376 . S
C2397 C2398 1.388 . S
C2398 H2385 0.930 . S
C2398 C2397 1.388 . S
C2398 C2399 1.390 . S
C2399 C2398 1.390 . S
C2399 C2400 1.394 . S
C2399 C2405 1.465 1_455 S
C2400 C2395 1.399 . S
C2400 C2399 1.394 . S
C2400 C2401 1.516 1_455 S
C2401 C2400 1.516 1_655 S
C2401 C2402 1.502 . S
C2401 C2403 1.561 . S
C2401 C2404 1.526 . S
C2402 H2386 0.959 1_655 S
C2402 H2387 0.959 . S
C2402 H2388 0.961 1_655 S
C2402 C2401 1.502 . S
C2403 H2389 0.960 . S
C2403 H2390 0.961 . S
C2403 H2391 0.959 . S
C2403 C2401 1.561 . S
C2404 C2401 1.526 . S
C2404 C2405 1.396 . S
C2404 C2409 1.390 . S
C2405 C2399 1.465 1_655 S
C2405 C2404 1.396 . S
C2405 C2406 1.399 . S
C2406 H2392 0.929 . S
C2406 C2405 1.399 . S
C2406 C2407 1.385 . S
C2407 H2393 0.931 . S
C2407 C2406 1.385 . S
C2407 C2408 1.389 . S
C2408 C2407 1.389 . S
C2408 C2409 1.387 . S
C2409 H2394 0.930 . S
C2409 C2404 1.390 . S
C2409 C2408 1.387 . S
H2410 C2422 0.930 . S
H2411 C2424 0.930 . S
H2412 C2425 0.930 . S
H2413 C2429 0.959 . S
H2414 C2429 0.959 . S
H2415 C2429 0.961 . S
H2416 C2430 0.960 1_655 S
H2417 C2430 0.961 . S
H2418 C2430 0.959 . S
H2419 C2433 0.929 . S
H2420 C2434 0.931 . S
H2421 C2436 0.930 . S
C2422 H2410 0.930 . S
C2422 C2423 1.401 . S
C2422 C2427 1.399 1_655 S
C2423 C2422 1.401 . S
C2423 C2424 1.355 1_655 S
C2424 H2411 0.930 . S
C2424 C2423 1.355 1_455 S
C2424 C2425 1.388 . S
C2425 H2412 0.930 . S
C2425 C2424 1.388 . S
C2425 C2426 1.390 . S
C2426 C2425 1.390 . S
C2426 C2427 1.394 . S
C2426 C2432 1.465 . S
C2427 C2422 1.399 1_455 S
C2427 C2426 1.394 . S
C2427 C2428 1.516 . S
C2428 C2427 1.516 . S
C2428 C2429 1.502 1_455 S
C2428 C2430 1.561 . S
C2428 C2431 1.526 . S
C2429 H2413 0.959 . S
C2429 H2414 0.959 . S
C2429 H2415 0.961 . S
C2429 C2428 1.502 1_655 S
C2430 H2416 0.960 1_455 S
C2430 H2417 0.961 . S
C2430 H2418 0.959 . S
C2430 C2428 1.561 . S
C2431 C2428 1.526 . S
C2431 C2432 1.396 . S
C2431 C2436 1.390 . S
C2432 C2426 1.465 . S
C2432 C2431 1.396 . S
C2432 C2433 1.399 . S
C2433 H2419 0.929 . S
C2433 C2432 1.399 . S
C2433 C2434 1.385 . S
C2434 H2420 0.931 . S
C2434 C2433 1.385 . S
C2434 C2435 1.389 . S
C2435 C2434 1.389 . S
C2435 C2436 1.387 . S
C2436 H2421 0.930 . S
C2436 C2431 1.390 . S
C2436 C2435 1.387 . S
H2437 C2449 0.930 . S
H2438 C2451 0.930 . S
H2439 C2452 0.930 . S
H2440 C2456 0.959 . S
H2441 C2456 0.959 . S
H2442 C2456 0.961 . S
H2443 C2457 0.960 . S
H2444 C2457 0.961 . S
H2445 C2457 0.959 . S
H2446 C2460 0.929 . S
H2447 C2461 0.931 . S
H2448 C2463 0.930 . S
C2449 H2437 0.930 . S
C2449 C2450 1.399 . S
C2449 C2454 1.399 . S
C2450 C2449 1.399 . S
C2450 C2451 1.376 . S
C2451 H2438 0.930 . S
C2451 C2450 1.376 . S
C2451 C2452 1.388 . S
C2452 H2439 0.930 . S
C2452 C2451 1.388 . S
C2452 C2453 1.390 . S
C2453 C2452 1.390 . S
C2453 C2454 1.394 . S
C2453 C2459 1.465 . S
C2454 C2449 1.399 . S
C2454 C2453 1.394 . S
C2454 C2455 1.516 . S
C2455 C2454 1.516 . S
C2455 C2456 1.502 . S
C2455 C2457 1.561 . S
C2455 C2458 1.526 . S
C2456 H2440 0.959 . S
C2456 H2441 0.959 . S
C2456 H2442 0.961 . S
C2456 C2455 1.502 . S
C2457 H2443 0.960 . S
C2457 H2444 0.961 . S
C2457 H2445 0.959 . S
C2457 C2455 1.561 . S
C2458 C2455 1.526 . S
C2458 C2459 1.396 . S
C2458 C2463 1.390 . S
C2459 C2453 1.465 . S
C2459 C2458 1.396 . S
C2459 C2460 1.399 . S
C2460 H2446 0.929 . S
C2460 C2459 1.399 . S
C2460 C2461 1.385 . S
C2461 H2447 0.931 . S
C2461 C2460 1.385 . S
C2461 C2462 1.389 . S
C2462 C2461 1.389 . S
C2462 C2463 1.387 . S
C2463 H2448 0.930 . S
C2463 C2458 1.390 . S
C2463 C2462 1.387 . S
H2464 C2476 0.930 . S
H2465 C2478 0.930 . S
H2466 C2479 0.930 . S
H2467 C2483 0.959 . S
H2468 C2483 0.959 . S
H2469 C2483 0.961 . S
H2470 C2484 0.960 . S
H2471 C2484 0.961 . S
H2472 C2484 0.959 . S
H2473 C2487 0.929 . S
H2474 C2488 0.931 . S
H2475 C2490 0.930 . S
C2476 H2464 0.930 . S
C2476 C2477 1.399 . S
C2476 C2481 1.399 . S
C2477 C2476 1.399 . S
C2477 C2478 1.376 . S
C2478 H2465 0.930 . S
C2478 C2477 1.376 . S
C2478 C2479 1.388 . S
C2479 H2466 0.930 . S
C2479 C2478 1.388 . S
C2479 C2480 1.390 . S
C2480 C2479 1.390 . S
C2480 C2481 1.394 . S
C2480 C2486 1.465 . S
C2481 C2476 1.399 . S
C2481 C2480 1.394 . S
C2481 C2482 1.516 . S
C2482 C2481 1.516 . S
C2482 C2483 1.502 . S
C2482 C2484 1.561 . S
C2482 C2485 1.526 . S
C2483 H2467 0.959 . S
C2483 H2468 0.959 . S
C2483 H2469 0.961 . S
C2483 C2482 1.502 . S
C2484 H2470 0.960 . S
C2484 H2471 0.961 . S
C2484 H2472 0.959 . S
C2484 C2482 1.561 . S
C2485 C2482 1.526 . S
C2485 C2486 1.396 . S
C2485 C2490 1.390 . S
C2486 C2480 1.465 . S
C2486 C2485 1.396 . S
C2486 C2487 1.399 . S
C2487 H2473 0.929 . S
C2487 C2486 1.399 . S
C2487 C2488 1.385 . S
C2488 H2474 0.931 . S
C2488 C2487 1.385 . S
C2488 C2489 1.389 . S
C2489 C2488 1.389 . S
C2489 C2490 1.387 . S
C2490 H2475 0.930 . S
C2490 C2485 1.390 . S
C2490 C2489 1.387 . S
H2491 C2503 0.930 . S
H2492 C2505 0.930 . S
H2493 C2506 0.930 . S
H2494 C2510 0.959 . S
H2495 C2510 0.959 . S
H2496 C2510 0.961 . S
H2497 C2511 0.960 . S
H2498 C2511 0.961 . S
H2499 C2511 0.959 . S
H2500 C2514 0.929 . S
H2501 C2515 0.931 . S
H2502 C2517 0.930 . S
C2503 H2491 0.930 . S
C2503 C2504 1.399 . S
C2503 C2508 1.399 . S
C2504 C2503 1.399 . S
C2504 C2505 1.376 . S
C2505 H2492 0.930 . S
C2505 C2504 1.376 . S
C2505 C2506 1.388 . S
C2506 H2493 0.930 . S
C2506 C2505 1.388 . S
C2506 C2507 1.390 . S
C2507 C2506 1.390 . S
C2507 C2508 1.394 . S
C2507 C2513 1.465 . S
C2508 C2503 1.399 . S
C2508 C2507 1.394 . S
C2508 C2509 1.516 . S
C2509 C2508 1.516 . S
C2509 C2510 1.502 . S
C2509 C2511 1.561 . S
C2509 C2512 1.526 . S
C2510 H2494 0.959 . S
C2510 H2495 0.959 . S
C2510 H2496 0.961 . S
C2510 C2509 1.502 . S
C2511 H2497 0.960 . S
C2511 H2498 0.961 . S
C2511 H2499 0.959 . S
C2511 C2509 1.561 . S
C2512 C2509 1.526 . S
C2512 C2513 1.396 . S
C2512 C2517 1.390 . S
C2513 C2507 1.465 . S
C2513 C2512 1.396 . S
C2513 C2514 1.399 . S
C2514 H2500 0.929 . S
C2514 C2513 1.399 . S
C2514 C2515 1.385 . S
C2515 H2501 0.931 . S
C2515 C2514 1.385 . S
C2515 C2516 1.389 . S
C2516 C2515 1.389 . S
C2516 C2517 1.387 . S
C2517 H2502 0.930 . S
C2517 C2512 1.390 . S
C2517 C2516 1.387 . S
H2518 C2530 0.930 . S
H2519 C2532 0.930 . S
H2520 C2533 0.930 . S
H2521 C2537 0.959 . S
H2522 C2537 0.959 . S
H2523 C2537 0.961 . S
H2524 C2538 0.960 . S
H2525 C2538 0.961 . S
H2526 C2538 0.959 . S
H2527 C2541 0.929 . S
H2528 C2542 0.931 . S
H2529 C2544 0.930 . S
C2530 H2518 0.930 . S
C2530 C2531 1.399 . S
C2530 C2535 1.399 . S
C2531 C2530 1.399 . S
C2531 C2532 1.376 . S
C2532 H2519 0.930 . S
C2532 C2531 1.376 . S
C2532 C2533 1.388 . S
C2533 H2520 0.930 . S
C2533 C2532 1.388 . S
C2533 C2534 1.390 . S
C2534 C2533 1.390 . S
C2534 C2535 1.394 . S
C2534 C2540 1.465 . S
C2535 C2530 1.399 . S
C2535 C2534 1.394 . S
C2535 C2536 1.516 . S
C2536 C2535 1.516 . S
C2536 C2537 1.502 . S
C2536 C2538 1.561 . S
C2536 C2539 1.526 . S
C2537 H2521 0.959 . S
C2537 H2522 0.959 . S
C2537 H2523 0.961 . S
C2537 C2536 1.502 . S
C2538 H2524 0.960 . S
C2538 H2525 0.961 . S
C2538 H2526 0.959 . S
C2538 C2536 1.561 . S
C2539 C2536 1.526 . S
C2539 C2540 1.396 . S
C2539 C2544 1.390 . S
C2540 C2534 1.465 . S
C2540 C2539 1.396 . S
C2540 C2541 1.399 . S
C2541 H2527 0.929 . S
C2541 C2540 1.399 . S
C2541 C2542 1.385 . S
C2542 H2528 0.931 . S
C2542 C2541 1.385 . S
C2542 C2543 1.389 . S
C2543 C2542 1.389 . S
C2543 C2544 1.387 . S
C2544 H2529 0.930 . S
C2544 C2539 1.390 . S
C2544 C2543 1.387 . S
H2545 C2557 0.930 . S
H2546 C2559 0.930 . S
H2547 C2560 0.930 . S
H2548 C2564 0.959 . S
H2549 C2564 0.959 . S
H2550 C2564 0.961 . S
H2551 C2565 0.960 . S
H2552 C2565 0.961 . S
H2553 C2565 0.959 . S
H2554 C2568 0.929 . S
H2555 C2569 0.931 . S
H2556 C2571 0.930 . S
C2557 H2545 0.930 . S
C2557 C2558 1.399 . S
C2557 C2562 1.399 . S
C2558 C2557 1.399 . S
C2558 C2559 1.376 . S
C2559 H2546 0.930 . S
C2559 C2558 1.376 . S
C2559 C2560 1.388 . S
C2560 H2547 0.930 . S
C2560 C2559 1.388 . S
C2560 C2561 1.390 . S
C2561 C2560 1.390 . S
C2561 C2562 1.394 . S
C2561 C2567 1.465 . S
C2562 C2557 1.399 . S
C2562 C2561 1.394 . S
C2562 C2563 1.516 . S
C2563 C2562 1.516 . S
C2563 C2564 1.502 . S
C2563 C2565 1.561 . S
C2563 C2566 1.526 . S
C2564 H2548 0.959 . S
C2564 H2549 0.959 . S
C2564 H2550 0.961 . S
C2564 C2563 1.502 . S
C2565 H2551 0.960 . S
C2565 H2552 0.961 . S
C2565 H2553 0.959 . S
C2565 C2563 1.561 . S
C2566 C2563 1.526 . S
C2566 C2567 1.396 . S
C2566 C2571 1.390 . S
C2567 C2561 1.465 . S
C2567 C2566 1.396 . S
C2567 C2568 1.399 . S
C2568 H2554 0.929 . S
C2568 C2567 1.399 . S
C2568 C2569 1.385 . S
C2569 H2555 0.931 . S
C2569 C2568 1.385 . S
C2569 C2570 1.389 . S
C2570 C2569 1.389 . S
C2570 C2571 1.387 . S
C2571 H2556 0.930 . S
C2571 C2566 1.390 . S
C2571 C2570 1.387 . S
H2572 C2584 0.930 . S
H2573 C2586 0.930 . S
H2574 C2587 0.930 . S
H2575 C2591 0.959 . S
H2576 C2591 0.959 . S
H2577 C2591 0.961 . S
H2578 C2592 0.960 . S
H2579 C2592 0.961 . S
H2580 C2592 0.959 . S
H2581 C2595 0.929 . S
H2582 C2596 0.931 . S
H2583 C2598 0.930 . S
C2584 H2572 0.930 . S
C2584 C2585 1.399 . S
C2584 C2589 1.399 . S
C2585 C2584 1.399 . S
C2585 C2586 1.376 . S
C2586 H2573 0.930 . S
C2586 C2585 1.376 . S
C2586 C2587 1.388 . S
C2587 H2574 0.930 . S
C2587 C2586 1.388 . S
C2587 C2588 1.390 . S
C2588 C2587 1.390 . S
C2588 C2589 1.394 . S
C2588 C2594 1.465 . S
C2589 C2584 1.399 . S
C2589 C2588 1.394 . S
C2589 C2590 1.516 . S
C2590 C2589 1.516 . S
C2590 C2591 1.502 . S
C2590 C2592 1.561 . S
C2590 C2593 1.526 . S
C2591 H2575 0.959 . S
C2591 H2576 0.959 . S
C2591 H2577 0.961 . S
C2591 C2590 1.502 . S
C2592 H2578 0.960 . S
C2592 H2579 0.961 . S
C2592 H2580 0.959 . S
C2592 C2590 1.561 . S
C2593 C2590 1.526 . S
C2593 C2594 1.396 . S
C2593 C2598 1.390 . S
C2594 C2588 1.465 . S
C2594 C2593 1.396 . S
C2594 C2595 1.399 . S
C2595 H2581 0.929 . S
C2595 C2594 1.399 . S
C2595 C2596 1.385 . S
C2596 H2582 0.931 . S
C2596 C2595 1.385 . S
C2596 C2597 1.389 . S
C2597 C2596 1.389 . S
C2597 C2598 1.387 . S
C2598 H2583 0.930 . S
C2598 C2593 1.390 . S
C2598 C2597 1.387 . S
H2599 C2611 0.930 . S
H2600 C2613 0.930 . S
H2601 C2614 0.930 . S
H2602 C2618 0.959 . S
H2603 C2618 0.959 . S
H2604 C2618 0.961 . S
H2605 C2619 0.960 . S
H2606 C2619 0.961 . S
H2607 C2619 0.959 . S
H2608 C2622 0.929 . S
H2609 C2623 0.931 . S
H2610 C2625 0.930 . S
C2611 H2599 0.930 . S
C2611 C2612 1.399 . S
C2611 C2616 1.399 . S
C2612 C2611 1.399 . S
C2612 C2613 1.376 . S
C2613 H2600 0.930 . S
C2613 C2612 1.376 . S
C2613 C2614 1.388 . S
C2614 H2601 0.930 . S
C2614 C2613 1.388 . S
C2614 C2615 1.390 . S
C2615 C2614 1.390 . S
C2615 C2616 1.394 . S
C2615 C2621 1.465 . S
C2616 C2611 1.399 . S
C2616 C2615 1.394 . S
C2616 C2617 1.516 . S
C2617 C2616 1.516 . S
C2617 C2618 1.502 . S
C2617 C2619 1.561 . S
C2617 C2620 1.526 . S
C2618 H2602 0.959 . S
C2618 H2603 0.959 . S
C2618 H2604 0.961 . S
C2618 C2617 1.502 . S
C2619 H2605 0.960 . S
C2619 H2606 0.961 . S
C2619 H2607 0.959 . S
C2619 C2617 1.561 . S
C2620 C2617 1.526 . S
C2620 C2621 1.396 . S
C2620 C2625 1.390 . S
C2621 C2615 1.465 . S
C2621 C2620 1.396 . S
C2621 C2622 1.399 . S
C2622 H2608 0.929 . S
C2622 C2621 1.399 . S
C2622 C2623 1.385 . S
C2623 H2609 0.931 . S
C2623 C2622 1.385 . S
C2623 C2624 1.389 . S
C2624 C2623 1.389 . S
C2624 C2625 1.387 . S
C2625 H2610 0.930 . S
C2625 C2620 1.390 . S
C2625 C2624 1.387 . S
H2626 C2638 0.930 . S
H2627 C2640 0.930 . S
H2628 C2641 0.930 . S
H2629 C2645 0.959 . S
H2630 C2645 0.959 . S
H2631 C2645 0.961 . S
H2632 C2646 0.960 . S
H2633 C2646 0.961 . S
H2634 C2646 0.959 . S
H2635 C2649 0.929 . S
H2636 C2650 0.931 . S
H2637 C2652 0.930 . S
C2638 H2626 0.930 . S
C2638 C2639 1.399 . S
C2638 C2643 1.399 . S
C2639 C2638 1.399 . S
C2639 C2640 1.376 . S
C2640 H2627 0.930 . S
C2640 C2639 1.376 . S
C2640 C2641 1.388 . S
C2641 H2628 0.930 . S
C2641 C2640 1.388 . S
C2641 C2642 1.390 . S
C2642 C2641 1.390 . S
C2642 C2643 1.394 . S
C2642 C2648 1.465 . S
C2643 C2638 1.399 . S
C2643 C2642 1.394 . S
C2643 C2644 1.516 . S
C2644 C2643 1.516 . S
C2644 C2645 1.502 . S
C2644 C2646 1.561 . S
C2644 C2647 1.526 . S
C2645 H2629 0.959 . S
C2645 H2630 0.959 . S
C2645 H2631 0.961 . S
C2645 C2644 1.502 . S
C2646 H2632 0.960 . S
C2646 H2633 0.961 . S
C2646 H2634 0.959 . S
C2646 C2644 1.561 . S
C2647 C2644 1.526 . S
C2647 C2648 1.396 . S
C2647 C2652 1.390 . S
C2648 C2642 1.465 . S
C2648 C2647 1.396 . S
C2648 C2649 1.399 . S
C2649 H2635 0.929 . S
C2649 C2648 1.399 . S
C2649 C2650 1.385 . S
C2650 H2636 0.931 . S
C2650 C2649 1.385 . S
C2650 C2651 1.389 . S
C2651 C2650 1.389 . S
C2651 C2652 1.387 . S
C2652 H2637 0.930 . S
C2652 C2647 1.390 . S
C2652 C2651 1.387 . S
H2653 C2665 0.930 . S
H2654 C2667 0.930 . S
H2655 C2668 0.930 . S
H2656 C2672 0.959 . S
H2657 C2672 0.959 . S
H2658 C2672 0.961 . S
H2659 C2673 0.960 . S
H2660 C2673 0.961 . S
H2661 C2673 0.959 . S
H2662 C2676 0.929 . S
H2663 C2677 0.931 . S
H2664 C2679 0.930 . S
C2665 H2653 0.930 . S
C2665 C2666 1.399 . S
C2665 C2670 1.399 . S
C2666 C2665 1.399 . S
C2666 C2667 1.376 . S
C2667 H2654 0.930 . S
C2667 C2666 1.376 . S
C2667 C2668 1.388 . S
C2668 H2655 0.930 . S
C2668 C2667 1.388 . S
C2668 C2669 1.390 . S
C2669 C2668 1.390 . S
C2669 C2670 1.394 . S
C2669 C2675 1.465 . S
C2670 C2665 1.399 . S
C2670 C2669 1.394 . S
C2670 C2671 1.516 . S
C2671 C2670 1.516 . S
C2671 C2672 1.502 . S
C2671 C2673 1.561 . S
C2671 C2674 1.526 . S
C2672 H2656 0.959 . S
C2672 H2657 0.959 . S
C2672 H2658 0.961 . S
C2672 C2671 1.502 . S
C2673 H2659 0.960 . S
C2673 H2660 0.961 . S
C2673 H2661 0.959 . S
C2673 C2671 1.561 . S
C2674 C2671 1.526 . S
C2674 C2675 1.396 . S
C2674 C2679 1.390 . S
C2675 C2669 1.465 . S
C2675 C2674 1.396 . S
C2675 C2676 1.399 . S
C2676 H2662 0.929 . S
C2676 C2675 1.399 . S
C2676 C2677 1.385 . S
C2677 H2663 0.931 . S
C2677 C2676 1.385 . S
C2677 C2678 1.389 . S
C2678 C2677 1.389 . S
C2678 C2679 1.387 . S
C2679 H2664 0.930 . S
C2679 C2674 1.390 . S
C2679 C2678 1.387 . S
H2680 C2692 0.930 . S
H2681 C2694 0.930 . S
H2682 C2695 0.930 . S
H2683 C2699 0.959 . S
H2684 C2699 0.959 . S
H2685 C2699 0.961 . S
H2686 C2700 0.960 . S
H2687 C2700 0.961 . S
H2688 C2700 0.959 . S
H2689 C2703 0.929 . S
H2690 C2704 0.931 . S
H2691 C2706 0.930 . S
C2692 H2680 0.930 . S
C2692 C2693 1.399 . S
C2692 C2697 1.399 . S
C2693 C2692 1.399 . S
C2693 C2694 1.376 . S
C2694 H2681 0.930 . S
C2694 C2693 1.376 . S
C2694 C2695 1.388 . S
C2695 H2682 0.930 . S
C2695 C2694 1.388 . S
C2695 C2696 1.390 . S
C2696 C2695 1.390 . S
C2696 C2697 1.394 . S
C2696 C2702 1.465 . S
C2697 C2692 1.399 . S
C2697 C2696 1.394 . S
C2697 C2698 1.516 . S
C2698 C2697 1.516 . S
C2698 C2699 1.502 . S
C2698 C2700 1.561 . S
C2698 C2701 1.526 . S
C2699 H2683 0.959 . S
C2699 H2684 0.959 . S
C2699 H2685 0.961 . S
C2699 C2698 1.502 . S
C2700 H2686 0.960 . S
C2700 H2687 0.961 . S
C2700 H2688 0.959 . S
C2700 C2698 1.561 . S
C2701 C2698 1.526 . S
C2701 C2702 1.396 . S
C2701 C2706 1.390 . S
C2702 C2696 1.465 . S
C2702 C2701 1.396 . S
C2702 C2703 1.399 . S
C2703 H2689 0.929 . S
C2703 C2702 1.399 . S
C2703 C2704 1.385 . S
C2704 H2690 0.931 . S
C2704 C2703 1.385 . S
C2704 C2705 1.389 . S
C2705 C2704 1.389 . S
C2705 C2706 1.387 . S
C2706 H2691 0.930 . S
C2706 C2701 1.390 . S
C2706 C2705 1.387 . S
H2707 C2719 0.930 . S
H2708 C2721 0.930 . S
H2709 C2722 0.930 . S
H2710 C2726 0.959 . S
H2711 C2726 0.959 . S
H2712 C2726 0.961 . S
H2713 C2727 0.960 . S
H2714 C2727 0.961 . S
H2715 C2727 0.959 . S
H2716 C2730 0.929 . S
H2717 C2731 0.931 . S
H2718 C2733 0.930 . S
C2719 H2707 0.930 . S
C2719 C2720 1.399 . S
C2719 C2724 1.399 . S
C2720 C2719 1.399 . S
C2720 C2721 1.376 . S
C2721 H2708 0.930 . S
C2721 C2720 1.376 . S
C2721 C2722 1.388 . S
C2722 H2709 0.930 . S
C2722 C2721 1.388 . S
C2722 C2723 1.390 . S
C2723 C2722 1.390 . S
C2723 C2724 1.394 . S
C2723 C2729 1.465 . S
C2724 C2719 1.399 . S
C2724 C2723 1.394 . S
C2724 C2725 1.516 . S
C2725 C2724 1.516 . S
C2725 C2726 1.502 . S
C2725 C2727 1.561 . S
C2725 C2728 1.526 . S
C2726 H2710 0.959 . S
C2726 H2711 0.959 . S
C2726 H2712 0.961 . S
C2726 C2725 1.502 . S
C2727 H2713 0.960 . S
C2727 H2714 0.961 . S
C2727 H2715 0.959 . S
C2727 C2725 1.561 . S
C2728 C2725 1.526 . S
C2728 C2729 1.396 . S
C2728 C2733 1.390 . S
C2729 C2723 1.465 . S
C2729 C2728 1.396 . S
C2729 C2730 1.399 . S
C2730 H2716 0.929 . S
C2730 C2729 1.399 . S
C2730 C2731 1.385 . S
C2731 H2717 0.931 . S
C2731 C2730 1.385 . S
C2731 C2732 1.389 . S
C2732 C2731 1.389 . S
C2732 C2733 1.387 . S
C2733 H2718 0.930 . S
C2733 C2728 1.390 . S
C2733 C2732 1.387 . S
H2734 C2746 0.930 . S
H2735 C2748 0.930 . S
H2736 C2749 0.930 . S
H2737 C2753 0.959 . S
H2738 C2753 0.959 . S
H2739 C2753 0.961 . S
H2740 C2754 0.960 . S
H2741 C2754 0.961 . S
H2742 C2754 0.959 . S
H2743 C2757 0.929 . S
H2744 C2758 0.931 . S
H2745 C2760 0.930 . S
C2746 H2734 0.930 . S
C2746 C2747 1.399 . S
C2746 C2751 1.399 . S
C2747 C2746 1.399 . S
C2747 C2748 1.376 . S
C2748 H2735 0.930 . S
C2748 C2747 1.376 . S
C2748 C2749 1.388 . S
C2749 H2736 0.930 . S
C2749 C2748 1.388 . S
C2749 C2750 1.390 . S
C2750 C2749 1.390 . S
C2750 C2751 1.394 . S
C2750 C2756 1.465 . S
C2751 C2746 1.399 . S
C2751 C2750 1.394 . S
C2751 C2752 1.516 . S
C2752 C2751 1.516 . S
C2752 C2753 1.502 . S
C2752 C2754 1.561 . S
C2752 C2755 1.526 . S
C2753 H2737 0.959 . S
C2753 H2738 0.959 . S
C2753 H2739 0.961 . S
C2753 C2752 1.502 . S
C2754 H2740 0.960 . S
C2754 H2741 0.961 . S
C2754 H2742 0.959 . S
C2754 C2752 1.561 . S
C2755 C2752 1.526 . S
C2755 C2756 1.396 . S
C2755 C2760 1.390 . S
C2756 C2750 1.465 . S
C2756 C2755 1.396 . S
C2756 C2757 1.399 . S
C2757 H2743 0.929 . S
C2757 C2756 1.399 . S
C2757 C2758 1.385 . S
C2758 H2744 0.931 . S
C2758 C2757 1.385 . S
C2758 C2759 1.389 . S
C2759 C2758 1.389 . S
C2759 C2760 1.387 . S
C2760 H2745 0.930 . S
C2760 C2755 1.390 . S
C2760 C2759 1.387 . S
H2761 C2773 0.930 . S
H2762 C2775 0.930 . S
H2763 C2776 0.930 . S
H2764 C2780 0.959 . S
H2765 C2780 0.959 . S
H2766 C2780 0.961 . S
H2767 C2781 0.960 . S
H2768 C2781 0.961 . S
H2769 C2781 0.959 . S
H2770 C2784 0.929 . S
H2771 C2785 0.931 . S
H2772 C2787 0.930 . S
C2773 H2761 0.930 . S
C2773 C2774 1.399 . S
C2773 C2778 1.399 . S
C2774 C2773 1.399 . S
C2774 C2775 1.376 1_554 S
C2775 H2762 0.930 . S
C2775 C2774 1.376 1_556 S
C2775 C2776 1.388 . S
C2776 H2763 0.930 . S
C2776 C2775 1.388 . S
C2776 C2777 1.390 1_556 S
C2777 C2776 1.390 1_554 S
C2777 C2778 1.394 . S
C2777 C2783 1.465 . S
C2778 C2773 1.399 . S
C2778 C2777 1.394 . S
C2778 C2779 1.508 1_565 S
C2779 C2778 1.508 1_545 S
C2779 C2780 1.539 . S
C2779 C2781 1.533 1_545 S
C2779 C2782 1.517 1_545 S
C2780 H2764 0.959 . S
C2780 H2765 0.959 . S
C2780 H2766 0.961 . S
C2780 C2779 1.539 . S
C2781 H2767 0.960 . S
C2781 H2768 0.961 . S
C2781 H2769 0.959 . S
C2781 C2779 1.533 1_565 S
C2782 C2779 1.517 1_565 S
C2782 C2783 1.414 . S
C2782 C2787 1.383 1_565 S
C2783 C2777 1.465 . S
C2783 C2782 1.414 . S
C2783 C2784 1.399 1_554 S
C2784 H2770 0.929 . S
C2784 C2783 1.399 1_556 S
C2784 C2785 1.385 . S
C2785 H2771 0.931 . S
C2785 C2784 1.385 . S
C2785 C2786 1.389 1_566 S
C2786 C2785 1.389 1_544 S
C2786 C2787 1.387 . S
C2787 H2772 0.930 . S
C2787 C2782 1.383 1_545 S
C2787 C2786 1.387 . S
H2788 C2800 0.930 . S
H2789 C2802 0.930 . S
H2790 C2803 0.930 . S
H2791 C2807 0.959 . S
H2792 C2807 0.959 . S
H2793 C2807 0.961 . S
H2794 C2808 0.960 . S
H2795 C2808 0.961 . S
H2796 C2808 0.959 . S
H2797 C2811 0.929 . S
H2798 C2812 0.931 . S
H2799 C2814 0.930 . S
C2800 H2788 0.930 . S
C2800 C2801 1.399 . S
C2800 C2805 1.399 . S
C2801 C2800 1.399 . S
C2801 C2802 1.376 . S
C2802 H2789 0.930 . S
C2802 C2801 1.376 . S
C2802 C2803 1.388 . S
C2803 H2790 0.930 . S
C2803 C2802 1.388 . S
C2803 C2804 1.390 . S
C2804 C2803 1.390 . S
C2804 C2805 1.394 . S
C2804 C2810 1.465 . S
C2805 C2800 1.399 . S
C2805 C2804 1.394 . S
C2805 C2806 1.516 . S
C2806 C2805 1.516 . S
C2806 C2807 1.502 . S
C2806 C2808 1.561 . S
C2806 C2809 1.526 . S
C2807 H2791 0.959 . S
C2807 H2792 0.959 . S
C2807 H2793 0.961 . S
C2807 C2806 1.502 . S
C2808 H2794 0.960 . S
C2808 H2795 0.961 . S
C2808 H2796 0.959 . S
C2808 C2806 1.561 . S
C2809 C2806 1.526 . S
C2809 C2810 1.396 . S
C2809 C2814 1.390 . S
C2810 C2804 1.465 . S
C2810 C2809 1.396 . S
C2810 C2811 1.399 . S
C2811 H2797 0.929 . S
C2811 C2810 1.399 . S
C2811 C2812 1.385 . S
C2812 H2798 0.931 . S
C2812 C2811 1.385 . S
C2812 C2813 1.389 . S
C2813 C2812 1.389 . S
C2813 C2814 1.387 . S
C2814 H2799 0.930 . S
C2814 C2809 1.390 . S
C2814 C2813 1.387 . S
H2815 C2827 0.930 . S
H2816 C2829 0.930 . S
H2817 C2830 0.930 . S
H2818 C2834 0.959 . S
H2819 C2834 0.959 . S
H2820 C2834 0.961 . S
H2821 C2835 0.960 . S
H2822 C2835 0.961 . S
H2823 C2835 0.959 . S
H2824 C2838 0.929 1_556 S
H2825 C2839 0.931 . S
H2826 C2841 0.930 . S
C2827 H2815 0.930 . S
C2827 C2828 1.399 . S
C2827 C2832 1.399 . S
C2828 C2827 1.399 . S
C2828 C2829 1.376 1_554 S
C2829 H2816 0.930 . S
C2829 C2828 1.376 1_556 S
C2829 C2830 1.388 . S
C2830 H2817 0.930 . S
C2830 C2829 1.388 . S
C2830 C2831 1.390 1_556 S
C2831 C2830 1.390 1_554 S
C2831 C2832 1.394 . S
C2831 C2837 1.465 . S
C2832 C2827 1.399 . S
C2832 C2831 1.394 . S
C2832 C2833 1.516 . S
C2833 C2832 1.516 . S
C2833 C2834 1.502 . S
C2833 C2835 1.561 . S
C2833 C2836 1.526 . S
C2834 H2818 0.959 . S
C2834 H2819 0.959 . S
C2834 H2820 0.961 . S
C2834 C2833 1.502 . S
C2835 H2821 0.960 . S
C2835 H2822 0.961 . S
C2835 H2823 0.959 . S
C2835 C2833 1.561 . S
C2836 C2833 1.526 . S
C2836 C2837 1.396 . S
C2836 C2841 1.390 . S
C2837 C2831 1.465 . S
C2837 C2836 1.396 . S
C2837 C2838 1.399 . S
C2838 H2824 0.929 1_554 S
C2838 C2837 1.399 . S
C2838 C2839 1.385 . S
C2839 H2825 0.931 . S
C2839 C2838 1.385 . S
C2839 C2840 1.389 . S
C2840 C2839 1.389 . S
C2840 C2841 1.387 . S
C2841 H2826 0.930 . S
C2841 C2836 1.390 . S
C2841 C2840 1.387 . S
H2842 C2854 0.930 . S
H2843 C2856 0.930 . S
H2844 C2857 0.930 . S
H2845 C2861 0.959 . S
H2846 C2861 0.959 . S
H2847 C2861 0.961 . S
H2848 C2862 0.960 . S
H2849 C2862 0.961 . S
H2850 C2862 0.959 . S
H2851 C2865 0.929 . S
H2852 C2866 0.931 . S
H2853 C2868 0.930 . S
C2854 H2842 0.930 . S
C2854 C2855 1.399 . S
C2854 C2859 1.399 . S
C2855 C2854 1.399 . S
C2855 C2856 1.376 . S
C2856 H2843 0.930 . S
C2856 C2855 1.376 . S
C2856 C2857 1.388 . S
C2857 H2844 0.930 . S
C2857 C2856 1.388 . S
C2857 C2858 1.390 . S
C2858 C2857 1.390 . S
C2858 C2859 1.394 . S
C2858 C2864 1.465 . S
C2859 C2854 1.399 . S
C2859 C2858 1.394 . S
C2859 C2860 1.516 . S
C2860 C2859 1.516 . S
C2860 C2861 1.502 . S
C2860 C2862 1.561 . S
C2860 C2863 1.526 . S
C2861 H2845 0.959 . S
C2861 H2846 0.959 . S
C2861 H2847 0.961 . S
C2861 C2860 1.502 . S
C2862 H2848 0.960 . S
C2862 H2849 0.961 . S
C2862 H2850 0.959 . S
C2862 C2860 1.561 . S
C2863 C2860 1.526 . S
C2863 C2864 1.396 . S
C2863 C2868 1.390 . S
C2864 C2858 1.465 . S
C2864 C2863 1.396 . S
C2864 C2865 1.399 . S
C2865 H2851 0.929 . S
C2865 C2864 1.399 . S
C2865 C2866 1.385 . S
C2866 H2852 0.931 . S
C2866 C2865 1.385 . S
C2866 C2867 1.389 . S
C2867 C2866 1.389 . S
C2867 C2868 1.387 . S
C2868 H2853 0.930 . S
C2868 C2863 1.390 . S
C2868 C2867 1.387 . S
H2869 C2881 0.930 . S
H2870 C2883 0.930 . S
H2871 C2884 0.930 . S
H2872 C2888 0.959 . S
H2873 C2888 0.959 . S
H2874 C2888 0.961 . S
H2875 C2889 0.960 . S
H2876 C2889 0.961 . S
H2877 C2889 0.959 . S
H2878 C2892 0.929 . S
H2879 C2893 0.931 . S
H2880 C2895 0.930 . S
C2881 H2869 0.930 . S
C2881 C2882 1.399 . S
C2881 C2886 1.399 . S
C2882 C2881 1.399 . S
C2882 C2883 1.376 . S
C2883 H2870 0.930 . S
C2883 C2882 1.376 . S
C2883 C2884 1.388 . S
C2884 H2871 0.930 . S
C2884 C2883 1.388 . S
C2884 C2885 1.390 . S
C2885 C2884 1.390 . S
C2885 C2886 1.394 . S
C2885 C2891 1.465 . S
C2886 C2881 1.399 . S
C2886 C2885 1.394 . S
C2886 C2887 1.516 . S
C2887 C2886 1.516 . S
C2887 C2888 1.502 . S
C2887 C2889 1.561 . S
C2887 C2890 1.526 . S
C2888 H2872 0.959 . S
C2888 H2873 0.959 . S
C2888 H2874 0.961 . S
C2888 C2887 1.502 . S
C2889 H2875 0.960 . S
C2889 H2876 0.961 . S
C2889 H2877 0.959 . S
C2889 C2887 1.561 . S
C2890 C2887 1.526 . S
C2890 C2891 1.396 . S
C2890 C2895 1.390 . S
C2891 C2885 1.465 . S
C2891 C2890 1.396 . S
C2891 C2892 1.399 . S
C2892 H2878 0.929 . S
C2892 C2891 1.399 . S
C2892 C2893 1.385 . S
C2893 H2879 0.931 . S
C2893 C2892 1.385 . S
C2893 C2894 1.389 . S
C2894 C2893 1.389 . S
C2894 C2895 1.387 . S
C2895 H2880 0.930 . S
C2895 C2890 1.390 . S
C2895 C2894 1.387 . S
H2896 C2908 0.930 . S
H2897 C2910 0.930 . S
H2898 C2911 0.930 . S
H2899 C2915 0.959 . S
H2900 C2915 0.959 . S
H2901 C2915 0.961 . S
H2902 C2916 0.960 . S
H2903 C2916 0.961 . S
H2904 C2916 0.959 . S
H2905 C2919 0.929 . S
H2906 C2920 0.931 . S
H2907 C2922 0.930 . S
C2908 H2896 0.930 . S
C2908 C2909 1.399 . S
C2908 C2913 1.399 . S
C2909 C2908 1.399 . S
C2909 C2910 1.376 . S
C2910 H2897 0.930 . S
C2910 C2909 1.376 . S
C2910 C2911 1.388 . S
C2911 H2898 0.930 . S
C2911 C2910 1.388 . S
C2911 C2912 1.390 . S
C2912 C2911 1.390 . S
C2912 C2913 1.394 . S
C2912 C2918 1.465 . S
C2913 C2908 1.399 . S
C2913 C2912 1.394 . S
C2913 C2914 1.516 . S
C2914 C2913 1.516 . S
C2914 C2915 1.502 . S
C2914 C2916 1.561 . S
C2914 C2917 1.526 . S
C2915 H2899 0.959 . S
C2915 H2900 0.959 . S
C2915 H2901 0.961 . S
C2915 C2914 1.502 . S
C2916 H2902 0.960 . S
C2916 H2903 0.961 . S
C2916 H2904 0.959 . S
C2916 C2914 1.561 . S
C2917 C2914 1.526 . S
C2917 C2918 1.396 . S
C2917 C2922 1.390 . S
C2918 C2912 1.465 . S
C2918 C2917 1.396 . S
C2918 C2919 1.399 . S
C2919 H2905 0.929 . S
C2919 C2918 1.399 . S
C2919 C2920 1.385 . S
C2920 H2906 0.931 . S
C2920 C2919 1.385 . S
C2920 C2921 1.389 . S
C2921 C2920 1.389 . S
C2921 C2922 1.387 . S
C2922 H2907 0.930 . S
C2922 C2917 1.390 . S
C2922 C2921 1.387 . S
H2923 C2935 0.930 . S
H2924 C2937 0.930 . S
H2925 C2938 0.930 . S
H2926 C2942 0.959 . S
H2927 C2942 0.959 . S
H2928 C2942 0.961 . S
H2929 C2943 0.960 . S
H2930 C2943 0.961 . S
H2931 C2943 0.959 . S
H2932 C2946 0.929 . S
H2933 C2947 0.931 . S
H2934 C2949 0.930 . S
C2935 H2923 0.930 . S
C2935 C2936 1.399 . S
C2935 C2940 1.399 . S
C2936 C2935 1.399 . S
C2936 C2937 1.376 . S
C2937 H2924 0.930 . S
C2937 C2936 1.376 . S
C2937 C2938 1.388 . S
C2938 H2925 0.930 . S
C2938 C2937 1.388 . S
C2938 C2939 1.390 . S
C2939 C2938 1.390 . S
C2939 C2940 1.394 . S
C2939 C2945 1.465 . S
C2940 C2935 1.399 . S
C2940 C2939 1.394 . S
C2940 C2941 1.516 . S
C2941 C2940 1.516 . S
C2941 C2942 1.502 . S
C2941 C2943 1.561 . S
C2941 C2944 1.526 . S
C2942 H2926 0.959 . S
C2942 H2927 0.959 . S
C2942 H2928 0.961 . S
C2942 C2941 1.502 . S
C2943 H2929 0.960 . S
C2943 H2930 0.961 . S
C2943 H2931 0.959 . S
C2943 C2941 1.561 . S
C2944 C2941 1.526 . S
C2944 C2945 1.396 . S
C2944 C2949 1.390 . S
C2945 C2939 1.465 . S
C2945 C2944 1.396 . S
C2945 C2946 1.399 . S
C2946 H2932 0.929 . S
C2946 C2945 1.399 . S
C2946 C2947 1.385 . S
C2947 H2933 0.931 . S
C2947 C2946 1.385 . S
C2947 C2948 1.389 . S
C2948 C2947 1.389 . S
C2948 C2949 1.387 . S
C2949 H2934 0.930 . S
C2949 C2944 1.390 . S
C2949 C2948 1.387 . S
H2950 C2962 0.930 . S
H2951 C2964 0.930 . S
H2952 C2965 0.930 . S
H2953 C2969 0.959 . S
H2954 C2969 0.959 . S
H2955 C2969 0.961 . S
H2956 C2970 0.960 . S
H2957 C2970 0.961 . S
H2958 C2970 0.959 . S
H2959 C2973 0.929 . S
H2960 C2974 0.931 . S
H2961 C2976 0.930 . S
C2962 H2950 0.930 . S
C2962 C2963 1.399 . S
C2962 C2967 1.399 . S
C2963 C2962 1.399 . S
C2963 C2964 1.376 . S
C2964 H2951 0.930 . S
C2964 C2963 1.376 . S
C2964 C2965 1.388 . S
C2965 H2952 0.930 . S
C2965 C2964 1.388 . S
C2965 C2966 1.390 . S
C2966 C2965 1.390 . S
C2966 C2967 1.394 . S
C2966 C2972 1.465 . S
C2967 C2962 1.399 . S
C2967 C2966 1.394 . S
C2967 C2968 1.516 . S
C2968 C2967 1.516 . S
C2968 C2969 1.502 . S
C2968 C2970 1.561 1_554 S
C2968 C2971 1.526 . S
C2969 H2953 0.959 . S
C2969 H2954 0.959 . S
C2969 H2955 0.961 . S
C2969 C2968 1.502 . S
C2970 H2956 0.960 . S
C2970 H2957 0.961 . S
C2970 H2958 0.959 . S
C2970 C2968 1.561 1_556 S
C2971 C2968 1.526 . S
C2971 C2972 1.396 . S
C2971 C2976 1.390 . S
C2972 C2966 1.465 . S
C2972 C2971 1.396 . S
C2972 C2973 1.399 . S
C2973 H2959 0.929 . S
C2973 C2972 1.399 . S
C2973 C2974 1.385 . S
C2974 H2960 0.931 . S
C2974 C2973 1.385 . S
C2974 C2975 1.389 . S
C2975 C2974 1.389 . S
C2975 C2976 1.387 . S
C2976 H2961 0.930 . S
C2976 C2971 1.390 . S
C2976 C2975 1.387 . S
H2977 C2989 0.930 . S
H2978 C2991 0.930 . S
H2979 C2992 0.930 . S
H2980 C2996 0.959 . S
H2981 C2996 0.959 . S
H2982 C2996 0.961 . S
H2983 C2997 0.960 . S
H2984 C2997 0.961 . S
H2985 C2997 0.959 . S
H2986 C3000 0.929 . S
H2987 C3001 0.931 . S
H2988 C3003 0.930 . S
C2989 H2977 0.930 . S
C2989 C2990 1.399 . S
C2989 C2994 1.399 . S
C2990 C2989 1.399 . S
C2990 C2991 1.376 . S
C2991 H2978 0.930 . S
C2991 C2990 1.376 . S
C2991 C2992 1.388 . S
C2992 H2979 0.930 . S
C2992 C2991 1.388 . S
C2992 C2993 1.390 . S
C2993 C2992 1.390 . S
C2993 C2994 1.394 . S
C2993 C2999 1.465 . S
C2994 C2989 1.399 . S
C2994 C2993 1.394 . S
C2994 C2995 1.516 . S
C2995 C2994 1.516 . S
C2995 C2996 1.502 . S
C2995 C2997 1.561 . S
C2995 C2998 1.526 . S
C2996 H2980 0.959 . S
C2996 H2981 0.959 . S
C2996 H2982 0.961 . S
C2996 C2995 1.502 . S
C2997 H2983 0.960 . S
C2997 H2984 0.961 . S
C2997 H2985 0.959 . S
C2997 C2995 1.561 . S
C2998 C2995 1.526 . S
C2998 C2999 1.396 . S
C2998 C3003 1.390 . S
C2999 C2993 1.465 . S
C2999 C2998 1.396 . S
C2999 C3000 1.399 . S
C3000 H2986 0.929 . S
C3000 C2999 1.399 . S
C3000 C3001 1.385 . S
C3001 H2987 0.931 . S
C3001 C3000 1.385 . S
C3001 C3002 1.389 . S
C3002 C3001 1.389 . S
C3002 C3003 1.387 . S
C3003 H2988 0.930 . S
C3003 C2998 1.390 . S
C3003 C3002 1.387 . S
H3004 C3016 0.930 . S
H3005 C3018 0.930 . S
H3006 C3019 0.930 . S
H3007 C3023 0.959 . S
H3008 C3023 0.959 . S
H3009 C3023 0.961 . S
H3010 C3024 0.960 . S
H3011 C3024 0.961 . S
H3012 C3024 0.959 . S
H3013 C3027 0.929 . S
H3014 C3028 0.931 . S
H3015 C3030 0.930 . S
C3016 H3004 0.930 . S
C3016 C3017 1.399 . S
C3016 C3021 1.399 . S
C3017 C3016 1.399 . S
C3017 C3018 1.376 . S
C3018 H3005 0.930 . S
C3018 C3017 1.376 . S
C3018 C3019 1.388 . S
C3019 H3006 0.930 . S
C3019 C3018 1.388 . S
C3019 C3020 1.390 . S
C3020 C3019 1.390 . S
C3020 C3021 1.394 . S
C3020 C3026 1.465 . S
C3021 C3016 1.399 . S
C3021 C3020 1.394 . S
C3021 C3022 1.516 . S
C3022 C3021 1.516 . S
C3022 C3023 1.502 . S
C3022 C3024 1.561 . S
C3022 C3025 1.526 . S
C3023 H3007 0.959 . S
C3023 H3008 0.959 . S
C3023 H3009 0.961 . S
C3023 C3022 1.502 . S
C3024 H3010 0.960 . S
C3024 H3011 0.961 . S
C3024 H3012 0.959 . S
C3024 C3022 1.561 . S
C3025 C3022 1.526 . S
C3025 C3026 1.396 . S
C3025 C3030 1.390 . S
C3026 C3020 1.465 . S
C3026 C3025 1.396 . S
C3026 C3027 1.399 . S
C3027 H3013 0.929 . S
C3027 C3026 1.399 . S
C3027 C3028 1.385 . S
C3028 H3014 0.931 . S
C3028 C3027 1.385 . S
C3028 C3029 1.389 . S
C3029 C3028 1.389 . S
C3029 C3030 1.387 . S
C3030 H3015 0.930 . S
C3030 C3025 1.390 . S
C3030 C3029 1.387 . S
H3031 C3043 0.930 . S
H3032 C3045 0.930 . S
H3033 C3046 0.930 . S
H3034 C3050 0.959 . S
H3035 C3050 0.959 . S
H3036 C3050 0.961 . S
H3037 C3051 0.960 . S
H3038 C3051 0.961 . S
H3039 C3051 0.959 . S
H3040 C3054 0.929 . S
H3041 C3055 0.931 . S
H3042 C3057 0.930 . S
C3043 H3031 0.930 . S
C3043 C3044 1.399 . S
C3043 C3048 1.399 . S
C3044 C3043 1.399 . S
C3044 C3045 1.376 . S
C3045 H3032 0.930 . S
C3045 C3044 1.376 . S
C3045 C3046 1.388 . S
C3046 H3033 0.930 . S
C3046 C3045 1.388 . S
C3046 C3047 1.390 . S
C3047 C3046 1.390 . S
C3047 C3048 1.394 . S
C3047 C3053 1.465 . S
C3048 C3043 1.399 . S
C3048 C3047 1.394 . S
C3048 C3049 1.516 . S
C3049 C3048 1.516 . S
C3049 C3050 1.502 . S
C3049 C3051 1.561 . S
C3049 C3052 1.526 . S
C3050 H3034 0.959 . S
C3050 H3035 0.959 . S
C3050 H3036 0.961 . S
C3050 C3049 1.502 . S
C3051 H3037 0.960 . S
C3051 H3038 0.961 . S
C3051 H3039 0.959 . S
C3051 C3049 1.561 . S
C3052 C3049 1.526 . S
C3052 C3053 1.396 . S
C3052 C3057 1.390 . S
C3053 C3047 1.465 . S
C3053 C3052 1.396 . S
C3053 C3054 1.399 . S
C3054 H3040 0.929 . S
C3054 C3053 1.399 . S
C3054 C3055 1.385 . S
C3055 H3041 0.931 . S
C3055 C3054 1.385 . S
C3055 C3056 1.389 . S
C3056 C3055 1.389 . S
C3056 C3057 1.387 . S
C3057 H3042 0.930 . S
C3057 C3052 1.390 . S
C3057 C3056 1.387 . S
H3058 C3070 0.930 . S
H3059 C3072 0.930 . S
H3060 C3073 0.930 . S
H3061 C3077 0.959 . S
H3062 C3077 0.959 . S
H3063 C3077 0.961 . S
H3064 C3078 0.960 . S
H3065 C3078 0.961 . S
H3066 C3078 0.959 . S
H3067 C3081 0.929 . S
H3068 C3082 0.931 . S
H3069 C3084 0.930 . S
C3070 H3058 0.930 . S
C3070 C3071 1.399 . S
C3070 C3075 1.399 . S
C3071 C3070 1.399 . S
C3071 C3072 1.376 . S
C3072 H3059 0.930 . S
C3072 C3071 1.376 . S
C3072 C3073 1.388 . S
C3073 H3060 0.930 . S
C3073 C3072 1.388 . S
C3073 C3074 1.390 . S
C3074 C3073 1.390 . S
C3074 C3075 1.394 . S
C3074 C3080 1.465 . S
C3075 C3070 1.399 . S
C3075 C3074 1.394 . S
C3075 C3076 1.516 . S
C3076 C3075 1.516 . S
C3076 C3077 1.502 . S
C3076 C3078 1.561 . S
C3076 C3079 1.526 . S
C3077 H3061 0.959 . S
C3077 H3062 0.959 . S
C3077 H3063 0.961 . S
C3077 C3076 1.502 . S
C3078 H3064 0.960 . S
C3078 H3065 0.961 . S
C3078 H3066 0.959 . S
C3078 C3076 1.561 . S
C3079 C3076 1.526 . S
C3079 C3080 1.396 . S
C3079 C3084 1.390 . S
C3080 C3074 1.465 . S
C3080 C3079 1.396 . S
C3080 C3081 1.399 . S
C3081 H3067 0.929 . S
C3081 C3080 1.399 . S
C3081 C3082 1.385 . S
C3082 H3068 0.931 . S
C3082 C3081 1.385 . S
C3082 C3083 1.389 . S
C3083 C3082 1.389 . S
C3083 C3084 1.387 . S
C3084 H3069 0.930 . S
C3084 C3079 1.390 . S
C3084 C3083 1.387 . S
H3085 C3097 0.930 . S
H3086 C3099 0.930 . S
H3087 C3100 0.930 . S
H3088 C3104 0.959 . S
H3089 C3104 0.959 . S
H3090 C3104 0.961 . S
H3091 C3105 0.960 . S
H3092 C3105 0.961 . S
H3093 C3105 0.959 . S
H3094 C3108 0.929 . S
H3095 C3109 0.931 . S
H3096 C3111 0.930 . S
C3097 H3085 0.930 . S
C3097 C3098 1.399 . S
C3097 C3102 1.399 . S
C3098 C3097 1.399 . S
C3098 C3099 1.376 . S
C3099 H3086 0.930 . S
C3099 C3098 1.376 . S
C3099 C3100 1.388 . S
C3100 H3087 0.930 . S
C3100 C3099 1.388 . S
C3100 C3101 1.390 . S
C3101 C3100 1.390 . S
C3101 C3102 1.394 . S
C3101 C3107 1.465 . S
C3102 C3097 1.399 . S
C3102 C3101 1.394 . S
C3102 C3103 1.516 . S
C3103 C3102 1.516 . S
C3103 C3104 1.502 . S
C3103 C3105 1.561 . S
C3103 C3106 1.526 . S
C3104 H3088 0.959 . S
C3104 H3089 0.959 . S
C3104 H3090 0.961 . S
C3104 C3103 1.502 . S
C3105 H3091 0.960 . S
C3105 H3092 0.961 . S
C3105 H3093 0.959 . S
C3105 C3103 1.561 . S
C3106 C3103 1.526 . S
C3106 C3107 1.396 . S
C3106 C3111 1.390 . S
C3107 C3101 1.465 . S
C3107 C3106 1.396 . S
C3107 C3108 1.399 . S
C3108 H3094 0.929 . S
C3108 C3107 1.399 . S
C3108 C3109 1.385 . S
C3109 H3095 0.931 . S
C3109 C3108 1.385 . S
C3109 C3110 1.389 . S
C3110 C3109 1.389 . S
C3110 C3111 1.387 . S
C3111 H3096 0.930 . S
C3111 C3106 1.390 . S
C3111 C3110 1.387 . S
H3112 C3124 0.930 . S
H3113 C3126 0.930 . S
H3114 C3127 0.930 . S
H3115 C3131 0.959 . S
H3116 C3131 0.959 . S
H3117 C3131 0.961 . S
H3118 C3132 0.960 . S
H3119 C3132 0.961 . S
H3120 C3132 0.959 . S
H3121 C3135 0.929 . S
H3122 C3136 0.931 . S
H3123 C3138 0.930 . S
C3124 H3112 0.930 . S
C3124 C3125 1.399 . S
C3124 C3129 1.399 . S
C3125 C3124 1.399 . S
C3125 C3126 1.376 . S
C3126 H3113 0.930 . S
C3126 C3125 1.376 . S
C3126 C3127 1.388 . S
C3127 H3114 0.930 . S
C3127 C3126 1.388 . S
C3127 C3128 1.390 . S
C3128 C3127 1.390 . S
C3128 C3129 1.394 . S
C3128 C3134 1.465 . S
C3129 C3124 1.399 . S
C3129 C3128 1.394 . S
C3129 C3130 1.516 . S
C3130 C3129 1.516 . S
C3130 C3131 1.502 . S
C3130 C3132 1.561 . S
C3130 C3133 1.526 . S
C3131 H3115 0.959 . S
C3131 H3116 0.959 . S
C3131 H3117 0.961 . S
C3131 C3130 1.502 . S
C3132 H3118 0.960 . S
C3132 H3119 0.961 . S
C3132 H3120 0.959 . S
C3132 C3130 1.561 . S
C3133 C3130 1.526 . S
C3133 C3134 1.396 . S
C3133 C3138 1.390 . S
C3134 C3128 1.465 . S
C3134 C3133 1.396 . S
C3134 C3135 1.399 . S
C3135 H3121 0.929 . S
C3135 C3134 1.399 . S
C3135 C3136 1.385 . S
C3136 H3122 0.931 . S
C3136 C3135 1.385 . S
C3136 C3137 1.389 . S
C3137 C3136 1.389 . S
C3137 C3138 1.387 . S
C3138 H3123 0.930 . S
C3138 C3133 1.390 . S
C3138 C3137 1.387 . S
H3139 C3151 0.930 . S
H3140 C3153 0.930 . S
H3141 C3154 0.930 . S
H3142 C3158 0.959 . S
H3143 C3158 0.959 . S
H3144 C3158 0.961 . S
H3145 C3159 0.960 . S
H3146 C3159 0.961 . S
H3147 C3159 0.959 . S
H3148 C3162 0.929 . S
H3149 C3163 0.931 . S
H3150 C3165 0.930 . S
C3151 H3139 0.930 . S
C3151 C3152 1.399 . S
C3151 C3156 1.399 . S
C3152 C3151 1.399 . S
C3152 C3153 1.376 . S
C3153 H3140 0.930 . S
C3153 C3152 1.376 . S
C3153 C3154 1.388 . S
C3154 H3141 0.930 . S
C3154 C3153 1.388 . S
C3154 C3155 1.390 . S
C3155 C3154 1.390 . S
C3155 C3156 1.394 . S
C3155 C3161 1.465 . S
C3156 C3151 1.399 . S
C3156 C3155 1.394 . S
C3156 C3157 1.516 . S
C3157 C3156 1.516 . S
C3157 C3158 1.502 . S
C3157 C3159 1.561 . S
C3157 C3160 1.526 . S
C3158 H3142 0.959 . S
C3158 H3143 0.959 . S
C3158 H3144 0.961 . S
C3158 C3157 1.502 . S
C3159 H3145 0.960 . S
C3159 H3146 0.961 . S
C3159 H3147 0.959 . S
C3159 C3157 1.561 . S
C3160 C3157 1.526 . S
C3160 C3161 1.396 . S
C3160 C3165 1.390 . S
C3161 C3155 1.465 . S
C3161 C3160 1.396 . S
C3161 C3162 1.399 . S
C3162 H3148 0.929 . S
C3162 C3161 1.399 . S
C3162 C3163 1.385 . S
C3163 H3149 0.931 . S
C3163 C3162 1.385 . S
C3163 C3164 1.389 . S
C3164 C3163 1.389 . S
C3164 C3165 1.387 . S
C3165 H3150 0.930 . S
C3165 C3160 1.390 . S
C3165 C3164 1.387 . S
H3166 C3178 0.930 . S
H3167 C3180 0.930 . S
H3168 C3181 0.930 . S
H3169 C3185 0.959 . S
H3170 C3185 0.959 . S
H3171 C3185 0.961 . S
H3172 C3186 0.960 . S
H3173 C3186 0.961 1_455 S
H3174 C3186 0.959 . S
H3175 C3189 0.929 . S
H3176 C3190 0.931 . S
H3177 C3192 0.930 . S
C3178 H3166 0.930 . S
C3178 C3179 1.399 . S
C3178 C3183 1.399 . S
C3179 C3178 1.399 . S
C3179 C3180 1.376 . S
C3180 H3167 0.930 . S
C3180 C3179 1.376 . S
C3180 C3181 1.388 . S
C3181 H3168 0.930 . S
C3181 C3180 1.388 . S
C3181 C3182 1.390 . S
C3182 C3181 1.390 . S
C3182 C3183 1.394 . S
C3182 C3188 1.465 . S
C3183 C3178 1.399 . S
C3183 C3182 1.394 . S
C3183 C3184 1.516 1_655 S
C3184 C3183 1.516 1_455 S
C3184 C3185 1.502 . S
C3184 C3186 1.561 1_455 S
C3184 C3187 1.526 . S
C3185 H3169 0.959 . S
C3185 H3170 0.959 . S
C3185 H3171 0.961 . S
C3185 C3184 1.502 . S
C3186 H3172 0.960 . S
C3186 H3173 0.961 1_655 S
C3186 H3174 0.959 . S
C3186 C3184 1.561 1_655 S
C3187 C3184 1.526 . S
C3187 C3188 1.396 1_455 S
C3187 C3192 1.390 . S
C3188 C3182 1.465 . S
C3188 C3187 1.396 1_655 S
C3188 C3189 1.399 . S
C3189 H3175 0.929 . S
C3189 C3188 1.399 . S
C3189 C3190 1.385 1_655 S
C3190 H3176 0.931 . S
C3190 C3189 1.385 1_455 S
C3190 C3191 1.389 . S
C3191 C3190 1.389 . S
C3191 C3192 1.387 . S
C3192 H3177 0.930 . S
C3192 C3187 1.390 . S
C3192 C3191 1.387 . S
H3193 C3205 0.930 . S
H3194 C3207 0.930 . S
H3195 C3208 0.930 . S
H3196 C3212 0.959 . S
H3197 C3212 0.959 . S
H3198 C3212 0.961 . S
H3199 C3213 0.960 . S
H3200 C3213 0.961 . S
H3201 C3213 0.959 . S
H3202 C3216 0.929 . S
H3203 C3217 0.931 . S
H3204 C3219 0.930 . S
C3205 H3193 0.930 . S
C3205 C3206 1.399 . S
C3205 C3210 1.399 . S
C3206 C3205 1.399 . S
C3206 C3207 1.376 . S
C3207 H3194 0.930 . S
C3207 C3206 1.376 . S
C3207 C3208 1.388 . S
C3208 H3195 0.930 . S
C3208 C3207 1.388 . S
C3208 C3209 1.390 . S
C3209 C3208 1.390 . S
C3209 C3210 1.394 . S
C3209 C3215 1.465 . S
C3210 C3205 1.399 . S
C3210 C3209 1.394 . S
C3210 C3211 1.516 . S
C3211 C3210 1.516 . S
C3211 C3212 1.502 . S
C3211 C3213 1.561 . S
C3211 C3214 1.526 . S
C3212 H3196 0.959 . S
C3212 H3197 0.959 . S
C3212 H3198 0.961 . S
C3212 C3211 1.502 . S
C3213 H3199 0.960 . S
C3213 H3200 0.961 . S
C3213 H3201 0.959 . S
C3213 C3211 1.561 . S
C3214 C3211 1.526 . S
C3214 C3215 1.396 . S
C3214 C3219 1.390 . S
C3215 C3209 1.465 . S
C3215 C3214 1.396 . S
C3215 C3216 1.399 . S
C3216 H3202 0.929 . S
C3216 C3215 1.399 . S
C3216 C3217 1.385 . S
C3217 H3203 0.931 . S
C3217 C3216 1.385 . S
C3217 C3218 1.389 . S
C3218 C3217 1.389 . S
C3218 C3219 1.387 . S
C3219 H3204 0.930 . S
C3219 C3214 1.390 . S
C3219 C3218 1.387 . S
H3220 C3232 0.930 . S
H3221 C3234 0.930 . S
H3222 C3235 0.930 . S
H3223 C3239 0.959 . S
H3224 C3239 0.959 . S
H3225 C3239 0.961 . S
H3226 C3240 0.960 . S
H3227 C3240 0.961 . S
H3228 C3240 0.959 . S
H3229 C3243 0.929 . S
H3230 C3244 0.931 . S
H3231 C3246 0.930 . S
C3232 H3220 0.930 . S
C3232 C3233 1.399 . S
C3232 C3237 1.399 . S
C3233 C3232 1.399 . S
C3233 C3234 1.376 . S
C3234 H3221 0.930 . S
C3234 C3233 1.376 . S
C3234 C3235 1.388 . S
C3235 H3222 0.930 . S
C3235 C3234 1.388 . S
C3235 C3236 1.390 . S
C3236 C3235 1.390 . S
C3236 C3237 1.394 . S
C3236 C3242 1.465 . S
C3237 C3232 1.399 . S
C3237 C3236 1.394 . S
C3237 C3238 1.516 . S
C3238 C3237 1.516 . S
C3238 C3239 1.502 . S
C3238 C3240 1.561 . S
C3238 C3241 1.526 . S
C3239 H3223 0.959 . S
C3239 H3224 0.959 . S
C3239 H3225 0.961 . S
C3239 C3238 1.502 . S
C3240 H3226 0.960 . S
C3240 H3227 0.961 . S
C3240 H3228 0.959 . S
C3240 C3238 1.561 . S
C3241 C3238 1.526 . S
C3241 C3242 1.396 . S
C3241 C3246 1.390 . S
C3242 C3236 1.465 . S
C3242 C3241 1.396 . S
C3242 C3243 1.399 . S
C3243 H3229 0.929 . S
C3243 C3242 1.399 . S
C3243 C3244 1.385 . S
C3244 H3230 0.931 . S
C3244 C3243 1.385 . S
C3244 C3245 1.389 . S
C3245 C3244 1.389 . S
C3245 C3246 1.387 . S
C3246 H3231 0.930 . S
C3246 C3241 1.390 . S
C3246 C3245 1.387 . S
H3247 C3259 0.930 . S
H3248 C3261 0.930 . S
H3249 C3262 0.930 . S
H3250 C3266 0.959 . S
H3251 C3266 0.959 . S
H3252 C3266 0.961 . S
H3253 C3267 0.960 . S
H3254 C3267 0.961 . S
H3255 C3267 0.959 . S
H3256 C3270 0.929 . S
H3257 C3271 0.931 . S
H3258 C3273 0.930 . S
C3259 H3247 0.930 . S
C3259 C3260 1.399 . S
C3259 C3264 1.399 . S
C3260 C3259 1.399 . S
C3260 C3261 1.376 . S
C3261 H3248 0.930 . S
C3261 C3260 1.376 . S
C3261 C3262 1.388 . S
C3262 H3249 0.930 . S
C3262 C3261 1.388 . S
C3262 C3263 1.390 . S
C3263 C3262 1.390 . S
C3263 C3264 1.394 . S
C3263 C3269 1.465 . S
C3264 C3259 1.399 . S
C3264 C3263 1.394 . S
C3264 C3265 1.516 . S
C3265 C3264 1.516 . S
C3265 C3266 1.502 . S
C3265 C3267 1.561 . S
C3265 C3268 1.526 . S
C3266 H3250 0.959 . S
C3266 H3251 0.959 . S
C3266 H3252 0.961 . S
C3266 C3265 1.502 . S
C3267 H3253 0.960 . S
C3267 H3254 0.961 . S
C3267 H3255 0.959 . S
C3267 C3265 1.561 . S
C3268 C3265 1.526 . S
C3268 C3269 1.396 . S
C3268 C3273 1.390 . S
C3269 C3263 1.465 . S
C3269 C3268 1.396 . S
C3269 C3270 1.399 . S
C3270 H3256 0.929 . S
C3270 C3269 1.399 . S
C3270 C3271 1.385 . S
C3271 H3257 0.931 . S
C3271 C3270 1.385 . S
C3271 C3272 1.389 . S
C3272 C3271 1.389 . S
C3272 C3273 1.387 . S
C3273 H3258 0.930 . S
C3273 C3268 1.390 . S
C3273 C3272 1.387 . S
H3274 C3286 0.930 . S
H3275 C3288 0.930 . S
H3276 C3289 0.930 . S
H3277 C3293 0.959 1_455 S
H3278 C3293 0.959 1_455 S
H3279 C3293 0.961 . S
H3280 C3294 0.960 . S
H3281 C3294 0.961 . S
H3282 C3294 0.959 . S
H3283 C3297 0.929 . S
H3284 C3298 0.931 . S
H3285 C3300 0.930 . S
C3286 H3274 0.930 . S
C3286 C3287 1.399 . S
C3286 C3291 1.399 . S
C3287 C3286 1.399 . S
C3287 C3288 1.376 . S
C3288 H3275 0.930 . S
C3288 C3287 1.376 . S
C3288 C3289 1.388 . S
C3289 H3276 0.930 . S
C3289 C3288 1.388 . S
C3289 C3290 1.390 . S
C3290 C3289 1.390 . S
C3290 C3291 1.394 . S
C3290 C3296 1.465 . S
C3291 C3286 1.399 . S
C3291 C3290 1.394 . S
C3291 C3292 1.516 . S
C3292 C3291 1.516 . S
C3292 C3293 1.502 . S
C3292 C3294 1.561 . S
C3292 C3295 1.526 . S
C3293 H3277 0.959 1_655 S
C3293 H3278 0.959 1_655 S
C3293 H3279 0.961 . S
C3293 C3292 1.502 . S
C3294 H3280 0.960 . S
C3294 H3281 0.961 . S
C3294 H3282 0.959 . S
C3294 C3292 1.561 . S
C3295 C3292 1.526 . S
C3295 C3296 1.396 . S
C3295 C3300 1.390 . S
C3296 C3290 1.465 . S
C3296 C3295 1.396 . S
C3296 C3297 1.399 . S
C3297 H3283 0.929 . S
C3297 C3296 1.399 . S
C3297 C3298 1.385 . S
C3298 H3284 0.931 . S
C3298 C3297 1.385 . S
C3298 C3299 1.389 . S
C3299 C3298 1.389 . S
C3299 C3300 1.387 . S
C3300 H3285 0.930 . S
C3300 C3295 1.390 . S
C3300 C3299 1.387 . S
H3301 C3313 0.930 . S
H3302 C3315 0.930 . S
H3303 C3316 0.930 . S
H3304 C3320 0.959 . S
H3305 C3320 0.959 . S
H3306 C3320 0.961 . S
H3307 C3321 0.960 . S
H3308 C3321 0.961 . S
H3309 C3321 0.959 . S
H3310 C3324 0.929 . S
H3311 C3325 0.931 . S
H3312 C3327 0.930 . S
C3313 H3301 0.930 . S
C3313 C3314 1.399 . S
C3313 C3318 1.399 . S
C3314 C3313 1.399 . S
C3314 C3315 1.376 . S
C3315 H3302 0.930 . S
C3315 C3314 1.376 . S
C3315 C3316 1.388 . S
C3316 H3303 0.930 . S
C3316 C3315 1.388 . S
C3316 C3317 1.390 . S
C3317 C3316 1.390 . S
C3317 C3318 1.394 . S
C3317 C3323 1.465 . S
C3318 C3313 1.399 . S
C3318 C3317 1.394 . S
C3318 C3319 1.516 . S
C3319 C3318 1.516 . S
C3319 C3320 1.502 . S
C3319 C3321 1.561 . S
C3319 C3322 1.526 . S
C3320 H3304 0.959 . S
C3320 H3305 0.959 . S
C3320 H3306 0.961 . S
C3320 C3319 1.502 . S
C3321 H3307 0.960 . S
C3321 H3308 0.961 . S
C3321 H3309 0.959 . S
C3321 C3319 1.561 . S
C3322 C3319 1.526 . S
C3322 C3323 1.396 . S
C3322 C3327 1.390 . S
C3323 C3317 1.465 . S
C3323 C3322 1.396 . S
C3323 C3324 1.399 . S
C3324 H3310 0.929 . S
C3324 C3323 1.399 . S
C3324 C3325 1.385 . S
C3325 H3311 0.931 . S
C3325 C3324 1.385 . S
C3325 C3326 1.389 . S
C3326 C3325 1.389 . S
C3326 C3327 1.387 . S
C3327 H3312 0.930 . S
C3327 C3322 1.390 . S
C3327 C3326 1.387 . S
H3328 C3340 0.930 . S
H3329 C3342 0.930 . S
H3330 C3343 0.930 . S
H3331 C3347 0.959 . S
H3332 C3347 0.959 . S
H3333 C3347 0.961 . S
H3334 C3348 0.960 . S
H3335 C3348 0.961 . S
H3336 C3348 0.959 . S
H3337 C3351 0.929 . S
H3338 C3352 0.931 . S
H3339 C3354 0.930 . S
C3340 H3328 0.930 . S
C3340 C3341 1.399 . S
C3340 C3345 1.399 . S
C3341 C3340 1.399 . S
C3341 C3342 1.376 . S
C3342 H3329 0.930 . S
C3342 C3341 1.376 . S
C3342 C3343 1.388 . S
C3343 H3330 0.930 . S
C3343 C3342 1.388 . S
C3343 C3344 1.390 . S
C3344 C3343 1.390 . S
C3344 C3345 1.394 . S
C3344 C3350 1.465 . S
C3345 C3340 1.399 . S
C3345 C3344 1.394 . S
C3345 C3346 1.516 . S
C3346 C3345 1.516 . S
C3346 C3347 1.502 . S
C3346 C3348 1.561 . S
C3346 C3349 1.526 . S
C3347 H3331 0.959 . S
C3347 H3332 0.959 . S
C3347 H3333 0.961 . S
C3347 C3346 1.502 . S
C3348 H3334 0.960 . S
C3348 H3335 0.961 . S
C3348 H3336 0.959 . S
C3348 C3346 1.561 . S
C3349 C3346 1.526 . S
C3349 C3350 1.396 . S
C3349 C3354 1.390 . S
C3350 C3344 1.465 . S
C3350 C3349 1.396 . S
C3350 C3351 1.399 . S
C3351 H3337 0.929 . S
C3351 C3350 1.399 . S
C3351 C3352 1.385 . S
C3352 H3338 0.931 . S
C3352 C3351 1.385 . S
C3352 C3353 1.389 . S
C3353 C3352 1.389 . S
C3353 C3354 1.387 . S
C3354 H3339 0.930 . S
C3354 C3349 1.390 . S
C3354 C3353 1.387 . S
H3355 C3367 0.930 . S
H3356 C3369 0.930 . S
H3357 C3370 0.930 . S
H3358 C3374 0.959 . S
H3359 C3374 0.959 . S
H3360 C3374 0.961 . S
H3361 C3375 0.960 . S
H3362 C3375 0.961 . S
H3363 C3375 0.959 . S
H3364 C3378 0.929 . S
H3365 C3379 0.931 . S
H3366 C3381 0.930 . S
C3367 H3355 0.930 . S
C3367 C3368 1.399 . S
C3367 C3372 1.399 . S
C3368 C3367 1.399 . S
C3368 C3369 1.376 . S
C3369 H3356 0.930 . S
C3369 C3368 1.376 . S
C3369 C3370 1.388 . S
C3370 H3357 0.930 . S
C3370 C3369 1.388 . S
C3370 C3371 1.390 . S
C3371 C3370 1.390 . S
C3371 C3372 1.394 . S
C3371 C3377 1.465 . S
C3372 C3367 1.399 . S
C3372 C3371 1.394 . S
C3372 C3373 1.516 . S
C3373 C3372 1.516 . S
C3373 C3374 1.502 . S
C3373 C3375 1.561 . S
C3373 C3376 1.526 . S
C3374 H3358 0.959 . S
C3374 H3359 0.959 . S
C3374 H3360 0.961 . S
C3374 C3373 1.502 . S
C3375 H3361 0.960 . S
C3375 H3362 0.961 . S
C3375 H3363 0.959 . S
C3375 C3373 1.561 . S
C3376 C3373 1.526 . S
C3376 C3377 1.396 . S
C3376 C3381 1.390 . S
C3377 C3371 1.465 . S
C3377 C3376 1.396 . S
C3377 C3378 1.399 1_565 S
C3378 H3364 0.929 . S
C3378 C3377 1.399 1_545 S
C3378 C3379 1.385 . S
C3379 H3365 0.931 . S
C3379 C3378 1.385 . S
C3379 C3380 1.389 . S
C3380 C3379 1.389 . S
C3380 C3381 1.387 1_545 S
C3381 H3366 0.930 . S
C3381 C3376 1.390 . S
C3381 C3380 1.387 1_565 S
H3382 C3394 0.930 . S
H3383 C3396 0.930 . S
H3384 C3397 0.930 . S
H3385 C3401 0.959 . S
H3386 C3401 0.959 . S
H3387 C3401 0.961 . S
H3388 C3402 0.960 . S
H3389 C3402 0.961 . S
H3390 C3402 0.959 . S
H3391 C3405 0.929 . S
H3392 C3406 0.931 . S
H3393 C3408 0.930 . S
C3394 H3382 0.930 . S
C3394 C3395 1.399 . S
C3394 C3399 1.399 . S
C3395 C3394 1.399 . S
C3395 C3396 1.376 . S
C3396 H3383 0.930 . S
C3396 C3395 1.376 . S
C3396 C3397 1.388 . S
C3397 H3384 0.930 . S
C3397 C3396 1.388 . S
C3397 C3398 1.390 . S
C3398 C3397 1.390 . S
C3398 C3399 1.394 . S
C3398 C3404 1.465 . S
C3399 C3394 1.399 . S
C3399 C3398 1.394 . S
C3399 C3400 1.516 . S
C3400 C3399 1.516 . S
C3400 C3401 1.502 . S
C3400 C3402 1.561 . S
C3400 C3403 1.526 . S
C3401 H3385 0.959 . S
C3401 H3386 0.959 . S
C3401 H3387 0.961 . S
C3401 C3400 1.502 . S
C3402 H3388 0.960 . S
C3402 H3389 0.961 . S
C3402 H3390 0.959 . S
C3402 C3400 1.561 . S
C3403 C3400 1.526 . S
C3403 C3404 1.396 . S
C3403 C3408 1.390 . S
C3404 C3398 1.465 . S
C3404 C3403 1.396 . S
C3404 C3405 1.399 . S
C3405 H3391 0.929 . S
C3405 C3404 1.399 . S
C3405 C3406 1.385 . S
C3406 H3392 0.931 . S
C3406 C3405 1.385 . S
C3406 C3407 1.389 . S
C3407 C3406 1.389 . S
C3407 C3408 1.387 . S
C3408 H3393 0.930 . S
C3408 C3403 1.390 . S
C3408 C3407 1.387 . S
H3409 C3421 0.931 1_556 S
H3410 C3423 0.930 . S
H3411 C3424 0.930 . S
H3412 C3428 0.959 1_554 S
H3413 C3428 0.959 . S
H3414 C3428 0.961 . S
H3415 C3429 0.960 . S
H3416 C3429 0.961 . S
H3417 C3429 0.959 . S
H3418 C3432 0.929 . S
H3419 C3433 0.931 . S
H3420 C3435 0.930 1_556 S
C3421 H3409 0.931 1_554 S
C3421 C3422 1.398 . S
C3421 C3426 1.398 . S
C3422 C3421 1.398 . S
C3422 C3423 1.376 . S
C3423 H3410 0.930 . S
C3423 C3422 1.376 . S
C3423 C3424 1.388 . S
C3424 H3411 0.930 . S
C3424 C3423 1.388 . S
C3424 C3425 1.390 . S
C3425 C3424 1.390 . S
C3425 C3426 1.394 . S
C3425 C3431 1.465 . S
C3426 C3421 1.398 . S
C3426 C3425 1.394 . S
C3426 C3427 1.516 1_554 S
C3427 C3426 1.516 1_556 S
C3427 C3428 1.502 . S
C3427 C3429 1.561 . S
C3427 C3430 1.526 1_556 S
C3428 H3412 0.959 1_556 S
C3428 H3413 0.959 . S
C3428 H3414 0.961 . S
C3428 C3427 1.502 . S
C3429 H3415 0.960 . S
C3429 H3416 0.961 . S
C3429 H3417 0.959 . S
C3429 C3427 1.561 . S
C3430 C3427 1.526 1_554 S
C3430 C3431 1.396 . S
C3430 C3435 1.390 . S
C3431 C3425 1.465 . S
C3431 C3430 1.396 . S
C3431 C3432 1.399 . S
C3432 H3418 0.929 . S
C3432 C3431 1.399 . S
C3432 C3433 1.385 . S
C3433 H3419 0.931 . S
C3433 C3432 1.385 . S
C3433 C3434 1.389 . S
C3434 C3433 1.389 . S
C3434 C3435 1.387 . S
C3435 H3420 0.930 1_554 S
C3435 C3430 1.390 . S
C3435 C3434 1.387 . S
H3436 C3448 0.930 . S
H3437 C3450 0.930 . S
H3438 C3451 0.930 . S
H3439 C3455 0.959 . S
H3440 C3455 0.959 . S
H3441 C3455 0.961 . S
H3442 C3456 0.960 . S
H3443 C3456 0.961 . S
H3444 C3456 0.959 . S
H3445 C3459 0.929 . S
H3446 C3460 0.931 . S
H3447 C3462 0.930 . S
C3448 H3436 0.930 . S
C3448 C3449 1.399 . S
C3448 C3453 1.399 . S
C3449 C3448 1.399 . S
C3449 C3450 1.376 . S
C3450 H3437 0.930 . S
C3450 C3449 1.376 . S
C3450 C3451 1.388 . S
C3451 H3438 0.930 . S
C3451 C3450 1.388 . S
C3451 C3452 1.390 . S
C3452 C3451 1.390 . S
C3452 C3453 1.394 . S
C3452 C3458 1.465 . S
C3453 C3448 1.399 . S
C3453 C3452 1.394 . S
C3453 C3454 1.516 . S
C3454 C3453 1.516 . S
C3454 C3455 1.502 . S
C3454 C3456 1.561 . S
C3454 C3457 1.526 . S
C3455 H3439 0.959 . S
C3455 H3440 0.959 . S
C3455 H3441 0.961 . S
C3455 C3454 1.502 . S
C3456 H3442 0.960 . S
C3456 H3443 0.961 . S
C3456 H3444 0.959 . S
C3456 C3454 1.561 . S
C3457 C3454 1.526 . S
C3457 C3458 1.396 . S
C3457 C3462 1.390 . S
C3458 C3452 1.465 . S
C3458 C3457 1.396 . S
C3458 C3459 1.399 . S
C3459 H3445 0.929 . S
C3459 C3458 1.399 . S
C3459 C3460 1.385 . S
C3460 H3446 0.931 . S
C3460 C3459 1.385 . S
C3460 C3461 1.389 . S
C3461 C3460 1.389 . S
C3461 C3462 1.387 . S
C3462 H3447 0.930 . S
C3462 C3457 1.390 . S
C3462 C3461 1.387 . S
H3463 C3475 0.930 . S
H3464 C3477 0.930 . S
H3465 C3478 0.930 . S
H3466 C3482 0.959 . S
H3467 C3482 0.959 . S
H3468 C3482 0.961 . S
H3469 C3483 0.960 . S
H3470 C3483 0.961 . S
H3471 C3483 0.959 . S
H3472 C3486 0.929 . S
H3473 C3487 0.931 1_554 S
H3474 C3489 0.930 . S
C3475 H3463 0.930 . S
C3475 C3476 1.399 1_556 S
C3475 C3480 1.399 . S
C3476 C3475 1.399 1_554 S
C3476 C3477 1.376 . S
C3477 H3464 0.930 . S
C3477 C3476 1.376 . S
C3477 C3478 1.388 . S
C3478 H3465 0.930 . S
C3478 C3477 1.388 . S
C3478 C3479 1.390 . S
C3479 C3478 1.390 . S
C3479 C3480 1.394 1_554 S
C3479 C3485 1.468 . S
C3480 C3475 1.399 . S
C3480 C3479 1.394 1_556 S
C3480 C3481 1.516 . S
C3481 C3480 1.516 . S
C3481 C3482 1.502 . S
C3481 C3483 1.561 . S
C3481 C3484 1.526 . S
C3482 H3466 0.959 . S
C3482 H3467 0.959 . S
C3482 H3468 0.961 . S
C3482 C3481 1.502 . S
C3483 H3469 0.960 . S
C3483 H3470 0.961 . S
C3483 H3471 0.959 . S
C3483 C3481 1.561 . S
C3484 C3481 1.526 . S
C3484 C3485 1.386 1_556 S
C3484 C3489 1.390 . S
C3485 C3479 1.468 . S
C3485 C3484 1.386 1_554 S
C3485 C3486 1.404 . S
C3486 H3472 0.929 . S
C3486 C3485 1.404 . S
C3486 C3487 1.385 1_554 S
C3487 H3473 0.931 1_556 S
C3487 C3486 1.385 1_556 S
C3487 C3488 1.389 . S
C3488 C3487 1.389 . S
C3488 C3489 1.387 . S
C3489 H3474 0.930 . S
C3489 C3484 1.390 . S
C3489 C3488 1.387 . S
H3490 C3502 0.930 . S
H3491 C3504 0.930 . S
H3492 C3505 0.930 . S
H3493 C3509 0.959 . S
H3494 C3509 0.959 . S
H3495 C3509 0.961 . S
H3496 C3510 0.960 . S
H3497 C3510 0.961 . S
H3498 C3510 0.959 . S
H3499 C3513 0.929 . S
H3500 C3514 0.931 . S
H3501 C3516 0.930 . S
C3502 H3490 0.930 . S
C3502 C3503 1.399 . S
C3502 C3507 1.399 . S
C3503 C3502 1.399 . S
C3503 C3504 1.376 . S
C3504 H3491 0.930 . S
C3504 C3503 1.376 . S
C3504 C3505 1.388 . S
C3505 H3492 0.930 . S
C3505 C3504 1.388 . S
C3505 C3506 1.390 . S
C3506 C3505 1.390 . S
C3506 C3507 1.394 . S
C3506 C3512 1.465 . S
C3507 C3502 1.399 . S
C3507 C3506 1.394 . S
C3507 C3508 1.516 . S
C3508 C3507 1.516 . S
C3508 C3509 1.502 . S
C3508 C3510 1.561 . S
C3508 C3511 1.526 . S
C3509 H3493 0.959 . S
C3509 H3494 0.959 . S
C3509 H3495 0.961 . S
C3509 C3508 1.502 . S
C3510 H3496 0.960 . S
C3510 H3497 0.961 . S
C3510 H3498 0.959 . S
C3510 C3508 1.561 . S
C3511 C3508 1.526 . S
C3511 C3512 1.396 . S
C3511 C3516 1.390 . S
C3512 C3506 1.465 . S
C3512 C3511 1.396 . S
C3512 C3513 1.399 . S
C3513 H3499 0.929 . S
C3513 C3512 1.399 . S
C3513 C3514 1.385 . S
C3514 H3500 0.931 . S
C3514 C3513 1.385 . S
C3514 C3515 1.389 . S
C3515 C3514 1.389 . S
C3515 C3516 1.387 . S
C3516 H3501 0.930 . S
C3516 C3511 1.390 . S
C3516 C3515 1.387 . S
H3517 C3529 0.930 . S
H3518 C3531 0.930 . S
H3519 C3532 0.930 . S
H3520 C3536 0.959 . S
H3521 C3536 0.959 . S
H3522 C3536 0.961 . S
H3523 C3537 0.960 . S
H3524 C3537 0.961 . S
H3525 C3537 0.959 . S
H3526 C3540 0.929 . S
H3527 C3541 0.931 . S
H3528 C3543 0.930 . S
C3529 H3517 0.930 . S
C3529 C3530 1.399 . S
C3529 C3534 1.399 . S
C3530 C3529 1.399 . S
C3530 C3531 1.376 . S
C3531 H3518 0.930 . S
C3531 C3530 1.376 . S
C3531 C3532 1.388 . S
C3532 H3519 0.930 . S
C3532 C3531 1.388 . S
C3532 C3533 1.390 . S
C3533 C3532 1.390 . S
C3533 C3534 1.394 . S
C3533 C3539 1.465 . S
C3534 C3529 1.399 . S
C3534 C3533 1.394 . S
C3534 C3535 1.516 . S
C3535 C3534 1.516 . S
C3535 C3536 1.502 . S
C3535 C3537 1.561 . S
C3535 C3538 1.526 . S
C3536 H3520 0.959 . S
C3536 H3521 0.959 . S
C3536 H3522 0.961 . S
C3536 C3535 1.502 . S
C3537 H3523 0.960 . S
C3537 H3524 0.961 . S
C3537 H3525 0.959 . S
C3537 C3535 1.561 . S
C3538 C3535 1.526 . S
C3538 C3539 1.396 . S
C3538 C3543 1.390 . S
C3539 C3533 1.465 . S
C3539 C3538 1.396 . S
C3539 C3540 1.399 . S
C3540 H3526 0.929 . S
C3540 C3539 1.399 . S
C3540 C3541 1.385 . S
C3541 H3527 0.931 . S
C3541 C3540 1.385 . S
C3541 C3542 1.389 . S
C3542 C3541 1.389 . S
C3542 C3543 1.387 . S
C3543 H3528 0.930 . S
C3543 C3538 1.390 . S
C3543 C3542 1.387 . S
C965 C101 2.296 . S
C977 C314 2.281 1_556 S
C992 C57 2.120 . S
C1004 C371 2.136 . S
C1019 C73 1.247 . S
C1031 C394 1.304 . S
C1058 C448 1.334 . S
C1046 C78 1.364 . S
C1073 C21 1.318 . S
C1085 C488 1.275 . S
C1112 C519 0.509 . S
C1100 C31 0.579 . S
C1139 C571 1.364 . S
C1127 C49 1.313 . S
C1154 C0 1.701 . S
C1166 C594 1.742 . S
C1193 C331 2.475 . S
C1181 C218 2.484 . S
C1208 C229 0.511 . S
C1220 C368 0.559 . S
C1247 C411 1.283 . S
C1235 C257 1.297 . S
C1274 C434 1.359 . S
C1262 C164 1.315 . S
C1289 C216 1.724 . S
C1301 C474 1.865 . S
C1328 C522 1.426 . S
C1316 C231 1.464 . S
C1355 C568 0.503 . S
C1343 C255 0.303 . S
C1382 C611 2.044 . S
C1370 C166 2.064 . S
C1409 C328 1.481 1_565 S
C1397 C143 1.362 . S
C1424 C265 1.954 1_556 S
C1436 C651 1.982 . S
C1463 C683 2.555 . S
C1451 C299 2.544 . S
C1490 C714 0.713 1_655 S
C1478 C291 0.677 . S
C1505 C104 1.249 . S
C1517 C608 1.355 . S
C1532 C117 1.415 . S
C1544 C408 1.546 . S
C1559 C304 2.175 . S
C1571 C771 2.217 . S
C1598 C794 0.387 . S
C1586 C278 0.404 . S
C1625 C323 2.248 . S
C1613 C60 2.280 . S
C1652 C802 2.048 . S
C1640 C96 2.063 . S
C1667 C88 1.208 . S
C1679 C403 1.203 . S
C1694 C65 1.276 . S
C1706 C759 1.266 . S
C1733 C479 1.305 . S
C1721 C10 1.297 . S
C1748 C44 0.529 . S
C1760 C688 0.459 . S
C1787 C562 1.251 1_556 S
C1775 C34 1.091 . S
C1814 C843 1.695 . S
C1802 C13 1.765 . S
C1841 C322 2.414 . S
C1829 C138 2.389 . S
C1868 C799 0.535 . S
C1856 C296 0.497 . S
C1883 C112 1.240 . S
C1895 C402 1.226 . S
C1910 C270 1.285 . S
C1922 C763 1.289 . S
C1937 C140 1.806 1_545 S
C1949 C483 1.771 . S
C1976 C691 1.410 . S
C1964 C294 1.414 . S
C1991 C114 0.339 . S
C2003 C559 0.333 . S
C2018 C268 1.979 . S
C2030 C842 2.010 . S
C2045 C169 1.491 . S
C2057 C319 1.422 . S
C2072 C161 1.910 . S
C2084 C642 1.904 . S
C2099 C234 2.538 . S
C2111 C514 2.507 . S
C2126 C226 0.673 . S
C2138 C723 0.582 . S
C2165 C839 1.399 . S
C2153 C247 1.439 . S
C2180 C195 1.539 . S
C2192 C399 1.529 . S
C2219 C442 2.123 . S
C2207 C239 2.133 . S
C2246 C363 0.436 . S
C2234 C187 0.386 . S
C2261 C75 2.315 . S
C2273 C874 2.280 . S
C2300 C811 2.143 . S
C2288 C83 2.108 . S
C2315 C99 1.259 . S
C2327 C914 1.311 . S
C2342 C52 1.368 . S
C2354 C768 1.333 . S
C2369 C47 1.242 . S
C2381 C648 1.342 . S
C2408 C679 0.469 . S
C2396 C5 0.459 . S
C2435 C731 1.399 . S
C2423 C23 1.315 . S
C2462 C834 1.746 . S
C2450 C26 1.689 . S
C2489 C891 2.463 . S
C2477 C244 2.470 . S
C2504 C177 0.616 . S
C2516 C808 0.466 . S
C2543 C931 1.316 . S
C2531 C192 1.318 . S
C2570 C754 1.354 . S
C2558 C203 1.302 . S
C2597 C634 1.875 . S
C2585 C242 1.810 . S
C2612 C179 1.482 . S
C2624 C682 1.458 . S
C2651 C728 0.270 . S
C2639 C190 0.570 . S
C2666 C205 2.065 . S
C2678 C851 2.038 . S
C2705 C888 1.480 . S
C2693 C286 1.380 . S
C2720 C122 1.955 . S
C2732 C491 1.982 . S
C2759 C523 2.517 . S
C2747 C130 2.572 . S
C2786 C554 0.681 . S
C2774 C148 0.648 . S
C2813 C848 1.288 . S
C2801 C273 1.347 . S
C2828 C260 1.499 . S
C2840 C928 1.487 . S
C2867 C451 2.215 . S
C2855 C135 2.166 . S
C2894 C354 0.435 . S
C2882 C109 0.441 . S
C2909 C86 2.282 . S
C2921 C883 2.251 . S
C2948 C362 2.047 . S
C2936 C70 2.062 . S
C2963 C62 1.198 . S
C2975 C923 1.152 . S
C2990 C91 1.286 . S
C3002 C439 1.268 . S
C3017 C36 1.324 . S
C3029 C639 1.270 . S
C3056 C528 0.475 . S
C3044 C18 0.476 . S
C3071 C8 1.219 . S
C3083 C722 1.230 . S
C3098 C39 1.770 . S
C3110 C603 1.686 . S
C3137 C882 2.414 . S
C3125 C307 2.390 . S
C3152 C153 0.515 . S
C3164 C359 0.506 . S
C3191 C922 1.224 . S
C3179 C281 1.174 . S
C3206 C127 1.285 . S
C3218 C443 1.289 . S
C3233 C309 1.806 . S
C3245 C643 1.814 . S
C3272 C531 1.432 . S
C3260 C151 1.389 . S
C3287 C283 0.347 . S
C3299 C719 0.301 . S
C3326 C602 2.012 . S
C3314 C125 1.989 . S
C3353 C879 1.466 . S
C3341 C221 1.493 . S
C3380 C482 1.903 1_655 S
C3368 C200 1.911 . S
C3395 C208 2.514 . S
C3407 C674 2.471 . S
C3434 C563 0.557 . S
C3422 C174 0.669 . S
C3449 C182 1.437 . S
C3461 C599 1.311 . S
C3476 C156 1.523 . S
C3488 C919 1.467 . S
C3515 C762 2.129 . S
C3503 C213 2.127 1_565 S
C3542 C803 0.522 . S
C3530 C252 0.429 . S
