# Generated by pormake.
# Topology pth, (4,4)-cn, num edge types: 1
# Building blocks:
#     Node 0, Type 0, BuildingBlock: UXUYUI_clean_sbu_0, # of connection points: 4
#     Node 1, Type 0, BuildingBlock: UXUYUI_clean_sbu_0, # of connection points: 4
#     Node 2, Type 0, BuildingBlock: UXUYUI_clean_sbu_0, # of connection points: 4
#     Node 3, Type 1, BuildingBlock: KOZSID_clean_sbu_0, # of connection points: 4
#     Node 4, Type 1, BuildingBlock: KOZSID_clean_sbu_0, # of connection points: 4
#     Node 5, Type 1, BuildingBlock: KOZSID_clean_sbu_0, # of connection points: 4
#     Edge 6, Type (0, 1), BuildingBlock: XIVTED_clean_linker_0, # of connection points: 2
#     Edge 7, Type (0, 1), BuildingBlock: XIVTED_clean_linker_0, # of connection points: 2
#     Edge 8, Type (0, 1), BuildingBlock: XIVTED_clean_linker_0, # of connection points: 2
#     Edge 9, Type (0, 1), BuildingBlock: XIVTED_clean_linker_0, # of connection points: 2
#     Edge 10, Type (0, 1), BuildingBlock: XIVTED_clean_linker_0, # of connection points: 2
#     Edge 11, Type (0, 1), BuildingBlock: XIVTED_clean_linker_0, # of connection points: 2
#     Edge 12, Type (0, 1), BuildingBlock: XIVTED_clean_linker_0, # of connection points: 2
#     Edge 13, Type (0, 1), BuildingBlock: XIVTED_clean_linker_0, # of connection points: 2
#     Edge 14, Type (0, 1), BuildingBlock: XIVTED_clean_linker_0, # of connection points: 2
#     Edge 15, Type (0, 1), BuildingBlock: XIVTED_clean_linker_0, # of connection points: 2
#     Edge 16, Type (0, 1), BuildingBlock: XIVTED_clean_linker_0, # of connection points: 2
#     Edge 17, Type (0, 1), BuildingBlock: XIVTED_clean_linker_0, # of connection points: 2
# Relax obj value: 0.074
# Max RMSD: 0.212
# Mean RMSD: 0.112
data_MOF--net-pth--node1-UXUYUI_clean_sbu_0--node2-KOZSID_clean_sbu_0--edge1-XIVTED_clean_linker_0
_symmetry_space_group_name_H-M    P1
_symmetry_Int_Tables_number       1
_symmetry_cell_setting            triclinic
loop_
_symmetry_equiv_pos_as_xyz
'x, y, z'
_cell_length_a     32.260227
_cell_length_b     32.258682
_cell_length_c     73.438833
_cell_angle_alpha  87.844299
_cell_angle_beta   87.809454
_cell_angle_gamma 119.97839
loop_
_atom_site_label
_atom_site_type_symbol
_atom_site_fract_x
_atom_site_fract_y
_atom_site_fract_z
_atom_type_partial_charge
Li0 Li 0.09838 0.08336 0.01964 0.0
Li1 Li 0.04153 0.07881 0.04349 0.0
Li2 Li 0.06724 0.01639 0.04342 0.0
Li3 Li 0.01219 0.01692 0.02098 0.0
C4 C 0.15306 0.11048 0.05021 0.0
N5 N 0.24862 0.15925 0.05769 0.0
C6 C 0.17386 0.1572 0.05587 0.0
C7 C 0.18059 0.08824 0.04865 0.0
C8 C 0.22232 0.18137 0.05949 0.0
C9 C 0.22891 0.11358 0.05241 0.0
C10 C 0.01547 0.11049 0.01213 0.0
C11 C 0.94159 0.11158 0.01015 0.0
N12 N 0.96679 0.15777 0.00308 0.0
C13 C 0.04062 0.15778 0.00464 0.0
C14 C 0.96554 0.08701 0.01475 0.0
C15 C 0.01537 0.18115 0.00025 0.0
C16 C 0.16452 0.11813 0.98819 0.0
N17 N 0.15088 0.12946 0.00411 0.0
C18 C 0.2086 0.2124 0.9978 0.0
C19 C 0.17166 0.1755 0.00895 0.0
C20 C 0.22382 0.2019 0.98133 0.0
C21 C 0.20135 0.15398 0.97657 0.0
H22 H 0.1462 0.08149 0.98431 0.0
H23 H 0.15853 0.18374 0.02125 0.0
C24 C 0.00451 0.10186 0.0749 0.0
N25 N 0.02919 0.1186 0.05836 0.0
C26 C -0.00056 0.13307 0.08627 0.0
C27 C 0.04497 0.19779 0.06328 0.0
C28 C 0.04969 0.16556 0.0525 0.0
C29 C 0.01991 0.18172 0.08046 0.0
H30 H 0.98977 0.06459 0.07944 0.0
H31 H 0.07097 0.17829 0.03968 0.0
C32 C 0.09059 0.98889 0.00861 0.0
N33 N 0.12867 0.93755 0.99299 0.0
C34 C 0.06043 0.94465 0.0016 0.0
C35 C 0.14014 0.00714 0.00759 0.0
C36 C 0.08037 0.91921 0.99378 0.0
C37 C 0.15869 0.98061 -0.00034 0.0
C38 C 0.95722 0.97722 0.05532 0.0
C39 C 0.94562 0.93151 0.06231 0.0
C40 C 0.92252 0.99106 0.05617 0.0
C41 C 0.89913 0.90004 0.06973 0.0
C42 C 0.87644 0.95857 0.06372 0.0
N43 N 0.86578 0.9141 0.07027 0.0
C44 C 0.06783 0.97458 0.07718 0.0
C45 C 0.08544 0.93985 0.05235 0.0
C46 C 0.06591 0.9394 0.08945 0.0
N47 N 0.07654 0.97361 0.05899 0.0
C48 C 0.08411 0.9042 0.06411 0.0
C49 C 0.07299 0.9029 0.08288 0.0
H50 H 0.06013 0.00143 0.08204 0.0
H51 H 0.09187 0.93922 0.03792 0.0
C52 C 0.95625 0.99091 0.99016 0.0
N53 N 0.9614 0.97515 0.00689 0.0
C54 C 0.92186 0.95903 0.97899 0.0
C55 C 0.89846 0.89568 0.00261 0.0
C56 C 0.93359 0.92856 0.01319 0.0
C57 C 0.8926 0.91069 0.9852 0.0
H58 H 0.97961 0.02796 0.98533 0.0
H59 H 0.93986 0.91644 0.02612 0.0
O60 O 0.1057 0.08636 0.0466 0.0
O61 O 0.03966 0.08712 0.0165 0.0
O62 O 0.07157 0.01415 0.01633 0.0
O63 O 0.00269 0.00858 0.04813 0.0
H64 H 0.15281 0.17469 0.05734 0.0
H65 H 0.16477 0.05175 0.04467 0.0
H66 H 0.23899 0.21768 0.06376 0.0
H67 H 0.25071 0.09688 0.05119 0.0
H68 H 0.90294 0.09386 0.01215 0.0
H69 H 0.07927 0.1763 0.00237 0.0
H70 H 0.94547 0.05008 0.0201 0.0
H71 H 0.0344 0.21786 0.99456 0.0
H72 H 0.22398 0.24894 0.00177 0.0
H73 H 0.21196 0.14434 0.96398 0.0
H74 H 0.98002 0.11943 0.09948 0.0
H75 H 0.06222 0.23524 0.0585 0.0
H76 H 0.02203 0.93004 0.00224 0.0
H77 H 0.16407 0.04151 0.01277 0.0
H78 H 0.05745 0.88488 0.98835 0.0
H79 H 0.19695 0.99429 -0.00121 0.0
H80 H 0.97208 0.92025 0.06181 0.0
H81 H 0.93116 0.02667 0.05126 0.0
H82 H 0.88956 0.86445 0.07507 0.0
H83 H 0.84921 0.96879 0.06444 0.0
H84 H 0.05676 0.93955 0.10378 0.0
H85 H 0.09064 0.87728 0.05848 0.0
H86 H 0.9184 0.97189 0.96562 0.0
H87 H 0.87738 0.85849 0.00771 0.0
Li88 Li 0.03719 0.02522 0.35569 0.0
Li89 Li 0.09167 0.08049 0.37625 0.0
Li90 Li 0.00366 0.05487 0.37816 0.0
Li91 Li 0.0568 0.11075 0.35343 0.0
C92 C 0.0264 0.97031 0.3853 0.0
N93 N 0.01016 0.87778 0.38955 0.0
C94 C 0.06496 0.9622 0.38636 0.0
C95 C 0.97956 0.9314 0.38668 0.0
C96 C 0.05603 0.91515 0.38844 0.0
C97 C 0.97209 0.88488 0.38874 0.0
C98 C 0.146 0.11498 0.34175 0.0
C99 C 0.21374 0.19502 0.33617 0.0
N100 N 0.23777 0.17712 0.32675 0.0
C101 C 0.17114 0.09749 0.33176 0.0
C102 C 0.16727 0.16422 0.34375 0.0
C103 C 0.21758 0.12942 0.3244 0.0
C104 C 0.98867 0.94417 0.33376 0.0
N105 N 0.02912 0.97288 0.34227 0.0
C106 C 0.06753 0.93152 0.33069 0.0
C107 C 0.0679 0.96689 0.34108 0.0
C108 C 0.0267 0.90182 0.32147 0.0
C109 C 0.98656 0.90788 0.3233 0.0
H110 H 0.95848 0.94995 0.3348 0.0
H111 H 0.09937 0.99002 0.34814 0.0
C112 C 0.14194 0.10046 0.40813 0.0
N113 N 0.14446 0.09255 0.39018 0.0
C114 C 0.17722 0.10381 0.41942 0.0
C115 C 0.21736 0.09162 0.39345 0.0
C116 C 0.18124 0.0883 0.3827 0.0
C117 C 0.21525 0.09875 0.41213 0.0
H118 H 0.11181 0.10291 0.41376 0.0
H119 H 0.18151 0.08022 0.3686 0.0
C120 C 0.9469 0.03611 0.3499 0.0
N121 N 0.85079 0.00606 0.34744 0.0
C122 C 0.93301 0.06673 0.34173 0.0
C123 C 0.91192 0.98999 0.35657 0.0
C124 C 0.88424 0.05093 0.34068 0.0
C125 C 0.86352 0.97553 0.35528 0.0
C126 C 0.08123 0.16442 0.38644 0.0
C127 C 0.05265 0.18201 0.3936 0.0
C128 C 0.13112 0.19234 0.38667 0.0
C129 C 0.07441 0.22769 0.40027 0.0
C130 C 0.15155 0.23782 0.39348 0.0
N131 N 0.12301 0.25446 0.40005 0.0
C132 C 0.93313 0.01321 0.40847 0.0
C133 C 0.93266 0.07393 0.38943 0.0
C134 C 0.89618 0.01047 0.42001 0.0
N135 N 0.95062 0.04486 0.3936 0.0
C136 C 0.8959 0.07239 0.40049 0.0
C137 C 0.87738 0.04068 0.41613 0.0
H138 H 0.94847 0.99085 0.41156 0.0
H139 H 0.94796 0.09941 0.37771 0.0
C140 C 0.08215 0.17035 0.32054 0.0
N141 N 0.06311 0.16232 0.33802 0.0
C142 C 0.08154 0.20529 0.30889 0.0
C143 C 0.04174 0.22273 0.33348 0.0
C144 C 0.04315 0.18759 0.3446 0.0
C145 C 0.06069 0.23169 0.3153 0.0
H146 H 0.09675 0.14887 0.31553 0.0
H147 H 0.02631 0.17893 0.35825 0.0
O148 O 0.03449 0.0161 0.38297 0.0
O149 O 0.10037 0.08407 0.34901 0.0
O150 O 0.99449 0.05127 0.35133 0.0
O151 O 0.06036 0.1193 0.38012 0.0
H152 H 0.10143 0.99185 0.38539 0.0
H153 H 0.94927 0.93701 0.38621 0.0
H154 H 0.08556 0.90835 0.38913 0.0
H155 H 0.93602 0.85442 0.38974 0.0
H156 H 0.23056 0.2332 0.33766 0.0
H157 H 0.15509 0.05966 0.32972 0.0
H158 H 0.14783 0.1787 0.35075 0.0
H159 H 0.23751 0.11628 0.31676 0.0
H160 H 0.09894 0.92752 0.32983 0.0
H161 H 0.95453 0.88583 0.31628 0.0
H162 H 0.17442 0.10961 0.43373 0.0
H163 H 0.24547 0.08653 0.38736 0.0
H164 H 0.95954 0.10233 0.3363 0.0
H165 H 0.92203 0.96576 0.3628 0.0
H166 H 0.87298 0.07434 0.33448 0.0
H167 H 0.83608 0.94004 0.36051 0.0
H168 H 0.01404 0.16082 0.39394 0.0
H169 H 0.15403 0.17902 0.38183 0.0
H170 H 0.05263 0.24181 0.40568 0.0
H171 H 0.19011 0.25977 0.39363 0.0
H172 H 0.88272 0.98529 0.43187 0.0
H173 H 0.88334 0.09705 0.39715 0.0
H174 H 0.09673 0.21119 0.29499 0.0
H175 H 0.02423 0.2413 0.33886 0.0
Li176 Li 0.09236 0.04171 0.68624 0.0
Li177 Li 0.09377 0.09586 0.70889 0.0
Li178 Li 0.03391 0.01028 0.71163 0.0
Li179 Li 0.02955 0.06343 0.68832 0.0
C180 C 0.10717 0.01565 0.72696 0.0
N181 N 0.10808 0.96283 0.75727 0.0
C182 C 0.11425 0.03471 0.74409 0.0
C183 C 0.10084 0.96988 0.7252 0.0
C184 C 0.11456 0.00741 0.75926 0.0
C185 C 0.10131 0.9437 0.7407 0.0
C186 C 0.13386 0.15156 0.67782 0.0
C187 C 0.16256 0.23651 0.67659 0.0
N188 N 0.20687 0.24528 0.67069 0.0
C189 C 0.17957 0.16137 0.67161 0.0
C190 C 0.12513 0.18936 0.6802 0.0
C191 C 0.21604 0.20901 0.66813 0.0
C192 C 0.13213 0.03827 0.65176 0.0
N193 N 0.13393 0.03273 0.67009 0.0
C194 C 0.20452 0.0269 0.66588 0.0
C195 C 0.16881 0.02664 0.67729 0.0
C196 C 0.20423 0.03336 0.64685 0.0
C197 C 0.16671 0.03807 0.63982 0.0
H198 H 0.10473 0.04441 0.64644 0.0
H199 H 0.17009 0.02363 0.69194 0.0
C200 C 0.11969 0.16491 0.73563 0.0
N201 N 0.13619 0.14842 0.72202 0.0
C202 C 0.15196 0.2002 0.74642 0.0
C203 C 0.21731 0.20144 0.72865 0.0
C204 C 0.18385 0.1656 0.71847 0.0
C205 C 0.20142 0.21868 0.74297 0.0
H206 H 0.08153 0.14962 0.73848 0.0
H207 H 0.1958 0.15036 0.70808 0.0
C208 C 0.01863 0.97249 0.67133 0.0
N209 N 0.01498 0.92066 0.64173 0.0
C210 C 0.0035 0.98122 0.65477 0.0
C211 C 0.03158 0.93719 0.67288 0.0
C212 C 0.00194 0.95465 0.63996 0.0
C213 C 0.02963 0.91147 0.65774 0.0
C214 C 0.98956 0.0765 0.71864 0.0
C215 C 0.94357 0.04038 0.72498 0.0
C216 C 0.99884 0.12342 0.71539 0.0
C217 C 0.90742 0.05176 0.72774 0.0
C218 C 0.96173 0.13335 0.7183 0.0
N219 N 0.91716 0.09761 0.72435 0.0
C220 C 0.98908 0.96588 0.746 0.0
C221 C 0.96858 0.91315 0.72202 0.0
C222 C 0.95494 0.92897 0.75803 0.0
N223 N 0.99461 0.95747 0.72833 0.0
C224 C 0.93404 0.8752 0.73356 0.0
C225 C 0.92609 0.88316 0.75172 0.0
H226 H 0.00968 0.00181 0.7505 0.0
H227 H 0.97332 0.90767 0.70784 0.0
C228 C 0.00152 0.1076 0.66099 0.0
N229 N 0.98585 0.07304 0.67486 0.0
C230 C 0.96861 0.11096 0.65009 0.0
C231 C 0.90431 0.04394 0.66829 0.0
C232 C 0.93841 0.04127 0.67856 0.0
C233 C 0.91937 0.07873 0.65372 0.0
H234 H 0.03955 0.13163 0.65808 0.0
H235 H 0.92717 0.01298 0.68919 0.0
O236 O 0.10564 0.04132 0.71202 0.0
O237 O 0.09775 0.10517 0.68143 0.0
O238 O 0.02077 0.99836 0.68596 0.0
O239 O 0.02532 0.06599 0.71569 0.0
H240 H 0.11901 0.06999 0.7457 0.0
H241 H 0.09521 0.95462 0.71204 0.0
H242 H 0.11979 0.0216 0.77262 0.0
H243 H 0.0962 0.90812 0.73957 0.0
H244 H 0.15637 0.26613 0.67845 0.0
H245 H 0.18699 0.13258 0.66967 0.0
H246 H 0.08985 0.18237 0.68479 0.0
H247 H 0.25166 0.21714 0.66343 0.0
H248 H 0.23311 0.02414 0.67201 0.0
H249 H 0.16452 0.0425 0.62527 0.0
H250 H 0.13846 0.21257 0.75743 0.0
H251 H 0.25513 0.21414 0.72585 0.0
H252 H 0.99334 0.00838 0.65331 0.0
H253 H 0.04353 0.93011 0.68558 0.0
H254 H 0.99047 0.96113 0.62703 0.0
H255 H 0.03984 0.88426 0.65871 0.0
H256 H 0.9357 0.00382 0.72752 0.0
H257 H 0.03431 0.15183 0.71064 0.0
H258 H 0.87159 0.02412 0.73253 0.0
H259 H 0.96836 0.16948 0.71576 0.0
H260 H 0.94959 0.93686 0.77183 0.0
H261 H 0.91298 0.8403 0.72821 0.0
H262 H 0.98143 0.13812 0.63888 0.0
H263 H 0.86667 0.01792 0.67124 0.0
C264 C 0.07745 0.63164 0.17052 0.0
C265 C 0.12196 0.66538 0.16236 0.0
C266 C 0.15517 0.65836 0.17072 0.0
C267 C 0.12915 0.62071 0.18335 0.0
N268 N 0.08124 0.60286 0.18344 0.0
Co269 Co 0.03014 0.54752 0.1993 0.0
N270 N 0.07939 0.54136 0.21319 0.0
C271 C 0.12765 0.56929 0.21077 0.0
C272 C 0.1522 0.5566 0.22241 0.0
C273 C 0.11762 0.5181 0.23288 0.0
C274 C 0.07376 0.50952 0.22697 0.0
N275 N 0.97904 0.49115 0.2148 0.0
C276 C 0.98302 0.46284 0.22791 0.0
C277 C 0.93846 0.42611 0.23484 0.0
C278 C 0.90507 0.43103 0.22564 0.0
C279 C 0.93103 0.4703 0.21367 0.0
N280 N 0.98098 0.55504 0.18582 0.0
C281 C 0.9327 0.52819 0.18864 0.0
C282 C 0.90836 0.54383 0.17816 0.0
C283 C 0.94311 0.58352 0.16823 0.0
C284 C 0.98684 0.5896 0.17317 0.0
N285 N 0.02979 0.5025 0.18144 0.0
C286 C 0.02756 0.43436 0.15799 0.0
C287 C 0.98617 0.43619 0.16251 0.0
C288 C 0.98802 0.47006 0.17421 0.0
C289 C 0.07036 0.46783 0.16503 0.0
C290 C 0.07077 0.50162 0.1765 0.0
N291 N 0.03026 0.59218 0.21713 0.0
C292 C 0.98708 0.61757 0.23711 0.0
C293 C 0.0298 0.6576 0.24141 0.0
C294 C 0.07287 0.66384 0.23352 0.0
C295 C 0.07227 0.63105 0.22148 0.0
C296 C 0.98815 0.58552 0.22514 0.0
H297 H 0.1062 0.63802 0.21577 0.0
H298 H 0.95435 0.55591 0.22242 0.0
H299 H 0.95493 0.46865 0.17737 0.0
H300 H 0.10461 0.52631 0.18128 0.0
C301 C 0.14887 0.60471 0.1965 0.0
C302 C 0.03295 0.62975 0.16607 0.0
C303 C 0.02801 0.4691 0.23416 0.0
C304 C 0.91139 0.48903 0.20149 0.0
H305 H 0.1297 0.69295 0.15175 0.0
H306 H 0.19377 0.67928 0.16832 0.0
H307 H 0.19066 0.57256 0.22287 0.0
H308 H 0.12409 0.49792 0.24336 0.0
H309 H 0.93095 0.39855 0.24542 0.0
H310 H 0.86646 0.40862 0.22744 0.0
H311 H 0.86994 0.52874 0.17802 0.0
H312 H 0.9369 0.60592 0.15869 0.0
H313 H 0.95209 0.41071 0.15743 0.0
H314 H 0.1035 0.46812 0.16165 0.0
H315 H 0.95267 0.61132 0.24263 0.0
H316 H 0.10705 0.69378 0.23663 0.0
C317 C 0.47428 0.01882 0.56141 0.0
C318 C 0.43899 0.97396 0.56881 0.0
C319 C 0.44501 0.94086 0.55991 0.0
C320 C 0.48327 0.96712 0.54758 0.0
N321 N 0.50224 0.0151 0.54807 0.0
Co322 Co 0.55816 0.06624 0.53241 0.0
N323 N 0.56353 0.01714 0.51813 0.0
C324 C 0.53395 0.96906 0.51981 0.0
C325 C 0.54605 0.94462 0.50787 0.0
C326 C 0.58598 0.97913 0.49801 0.0
C327 C 0.59603 0.02274 0.50464 0.0
N328 N 0.61566 0.11727 0.51733 0.0
C329 C 0.64457 0.11317 0.50452 0.0
C330 C 0.68259 0.1576 0.49816 0.0
C331 C 0.67778 0.19104 0.5074 0.0
C332 C 0.63741 0.1652 0.51887 0.0
N333 N 0.55111 0.11537 0.54605 0.0
C334 C 0.57819 0.16364 0.54328 0.0
C335 C 0.56373 0.1881 0.55426 0.0
C336 C 0.52458 0.15343 0.56446 0.0
C337 C 0.51739 0.10963 0.55907 0.0
N338 N 0.602 0.06478 0.55034 0.0
C339 C 0.66722 0.0644 0.5746 0.0
C340 C 0.66515 0.10592 0.57076 0.0
C341 C 0.63287 0.10544 0.55859 0.0
C342 C 0.63576 0.02279 0.56635 0.0
C343 C 0.6032 0.02359 0.55451 0.0
N344 N 0.51442 0.068 0.51451 0.0
C345 C 0.49247 0.11344 0.49413 0.0
C346 C 0.44951 0.07225 0.49099 0.0
C347 C 0.44009 0.02863 0.49946 0.0
C348 C 0.47291 0.02727 0.511 0.0
C349 C 0.52409 0.11054 0.50583 0.0
H350 H 0.46369 0.99296 0.51705 0.0
H351 H 0.55575 0.14342 0.50783 0.0
H352 H 0.6341 0.13867 0.55595 0.0
H353 H 0.57959 0.99054 0.54883 0.0
C354 C 0.49839 0.94772 0.53399 0.0
C355 C 0.47803 0.06366 0.56672 0.0
C356 C 0.63814 0.06808 0.49832 0.0
C357 C 0.61824 0.18484 0.53084 0.0
H358 H 0.41077 0.96569 0.57918 0.0
H359 H 0.42287 0.90222 0.56169 0.0
H360 H 0.52887 0.90621 0.50688 0.0
H361 H 0.60613 0.97283 0.48744 0.0
H362 H 0.71104 0.165 0.488 0.0
H363 H 0.70105 0.22958 0.50598 0.0
H364 H 0.57985 0.22656 0.55483 0.0
H365 H 0.50369 0.15966 0.57473 0.0
H366 H 0.68926 0.13907 0.57678 0.0
H367 H 0.63601 0.98969 0.56913 0.0
H368 H 0.5012 0.14815 0.488 0.0
H369 H 0.40758 0.9956 0.49718 0.0
C370 C 0.64516 0.58972 0.83637 0.0
C371 C 0.67867 0.57871 0.82917 0.0
C372 C 0.67041 0.53759 0.83844 0.0
C373 C 0.63229 0.52572 0.85062 0.0
N374 N 0.61547 0.55657 0.8496 0.0
Co375 Co 0.55933 0.55169 0.86423 0.0
N376 N 0.55171 0.49532 0.87963 0.0
C377 C 0.5802 0.47569 0.87877 0.0
C378 C 0.56681 0.43806 0.89136 0.0
C379 C 0.5273 0.43325 0.90084 0.0
C380 C 0.51881 0.46833 0.89338 0.0
N381 N 0.50136 0.54495 0.87816 0.0
C382 C 0.47142 0.5113 0.89125 0.0
C383 C 0.43356 0.51802 0.89659 0.0
C384 C 0.4395 0.55705 0.88637 0.0
C385 C 0.4804 0.57178 0.8754 0.0
N386 N 0.56905 0.61008 0.84961 0.0
C387 C 0.54295 0.63213 0.85145 0.0
C388 C 0.56021 0.67344 0.84049 0.0
C389 C 0.60026 0.6786 0.83131 0.0
C390 C 0.60486 0.63973 0.83713 0.0
N391 N 0.51619 0.50875 0.84625 0.0
C392 C 0.45125 0.44634 0.8221 0.0
C393 C 0.45604 0.49114 0.82448 0.0
C394 C 0.48815 0.52135 0.8366 0.0
C395 C 0.47996 0.43342 0.83173 0.0
C396 C 0.5124 0.46517 0.8435 0.0
N397 N 0.60223 0.59467 0.88213 0.0
C398 C 0.62291 0.65873 0.90229 0.0
C399 C 0.66579 0.66019 0.90581 0.0
C400 C 0.67595 0.62763 0.8976 0.0
C401 C 0.64365 0.59504 0.88602 0.0
C402 C 0.592 0.6261 0.89047 0.0
H403 H 0.65311 0.57079 0.88023 0.0
H404 H 0.5604 0.62756 0.8881 0.0
H405 H 0.48899 0.55442 0.83803 0.0
H406 H 0.53371 0.45344 0.85027 0.0
C407 C 0.61578 0.48989 0.8647 0.0
C408 C 0.64448 0.63317 0.83083 0.0
C409 C 0.47734 0.4725 0.89901 0.0
C410 C 0.50161 0.61226 0.86319 0.0
H411 H 0.70697 0.59903 0.81863 0.0
H412 H 0.69097 0.51961 0.837 0.0
H413 H 0.58281 0.41571 0.89301 0.0
H414 H 0.50632 0.40607 0.91165 0.0
H415 H 0.40471 0.4969 0.90684 0.0
H416 H 0.41692 0.57301 0.88696 0.0
H417 H 0.5456 0.69715 0.83939 0.0
H418 H 0.62367 0.70792 0.82156 0.0
H419 H 0.43413 0.50239 0.81737 0.0
H420 H 0.47766 0.3991 0.83011 0.0
H421 H 0.61375 0.68356 0.90826 0.0
H422 H 0.70854 0.62711 0.90016 0.0
H423 H 0.03747 0.19154 0.11662 0.0
H424 H 0.98389 0.40667 0.12592 0.0
H425 H 0.99738 0.25087 0.07157 0.0
H426 H 0.06642 0.37699 0.16368 0.0
H427 H 0.97934 0.34327 0.1073 0.0
H428 H 0.03826 0.25248 0.13577 0.0
C429 C 0.02832 0.21709 0.11084 0.0
C430 C 0.01739 0.21629 0.09251 0.0
C431 C 0.99853 0.35072 0.11964 0.0
C432 C 0.01848 0.28608 0.11423 0.0
C433 C 0.00098 0.38672 0.13028 0.0
C434 C 0.02569 0.39709 0.14631 0.0
C435 C 0.02037 0.32449 0.1252 0.0
C436 C 0.04748 0.37043 0.1513 0.0
C437 C 0.02917 0.25206 0.1217 0.0
C438 C 0.00637 0.25056 0.08561 0.0
N439 N 0.04412 0.33516 0.14083 0.0
N440 N 0.00711 0.28404 0.09649 0.0
H441 H 0.87068 0.0342 0.45362 0.0
H442 H 0.65096 0.08378 0.46134 0.0
H443 H 0.8001 0.04916 0.40713 0.0
H444 H 0.70789 0.04932 0.50789 0.0
H445 H 0.70856 0.07555 0.44117 0.0
H446 H 0.81307 0.04167 0.4738 0.0
C447 C 0.84274 0.03846 0.44765 0.0
C448 C 0.84038 0.04122 0.42863 0.0
C449 C 0.70868 0.06998 0.45579 0.0
C450 C 0.77491 0.05078 0.45165 0.0
C451 C 0.67613 0.075 0.46722 0.0
C452 C 0.6754 0.06754 0.48614 0.0
C453 C 0.74055 0.0574 0.46342 0.0
C454 C 0.70798 0.05565 0.4933 0.0
C455 C 0.8101 0.04313 0.45918 0.0
C456 C 0.80381 0.04759 0.42169 0.0
N457 N 0.73934 0.05091 0.48192 0.0
N458 N 0.77269 0.05234 0.43318 0.0
H459 H 0.92439 0.85955 0.78819 0.0
H460 H 0.64595 0.6575 0.79479 0.0
H461 H 0.83535 0.82052 0.7423 0.0
H462 H 0.7349 0.6934 0.84047 0.0
H463 H 0.71507 0.71798 0.77532 0.0
H464 H 0.85562 0.79929 0.80766 0.0
C465 C 0.89041 0.83827 0.78221 0.0
C466 C 0.88568 0.84501 0.76357 0.0
C467 C 0.71955 0.71283 0.78961 0.0
C468 C 0.80686 0.776 0.78575 0.0
C469 C 0.68014 0.67856 0.80066 0.0
C470 C 0.68515 0.67117 0.81914 0.0
C471 C 0.76416 0.73964 0.79715 0.0
C472 C 0.72997 0.69861 0.82624 0.0
C473 C 0.8512 0.8038 0.79331 0.0
C474 C 0.8409 0.81609 0.75652 0.0
N475 N 0.76788 0.73174 0.81522 0.0
N476 N 0.80325 0.78299 0.76762 0.0
H477 H 0.02905 0.80783 0.07608 0.0
H478 H 0.06453 0.72138 0.17496 0.0
H479 H 0.10029 0.90483 0.11803 0.0
H480 H 0.00797 0.6281 0.13092 0.0
H481 H 0.07346 0.78849 0.155 0.0
H482 H 0.01733 0.74105 0.09651 0.0
C483 C 0.04268 0.8152 0.08954 0.0
C484 C 0.06613 0.86218 0.09527 0.0
C485 C 0.05885 0.75333 0.1497 0.0
C486 C 0.05195 0.78547 0.11891 0.0
C487 C 0.05364 0.7152 0.16109 0.0
C488 C 0.03522 0.66952 0.15449 0.0
C489 C 0.04556 0.74555 0.1316 0.0
C490 C 0.02192 0.66292 0.13645 0.0
C491 C 0.03562 0.77692 0.10126 0.0
C492 C 0.08179 0.86923 0.11306 0.0
N493 N 0.02737 0.7006 0.1256 0.0
N494 N 0.07449 0.83129 0.12424 0.0
H495 H 0.31254 0.14108 0.40514 0.0
H496 H 0.3519 0.02729 0.49709 0.0
H497 H 0.19902 0.05376 0.44615 0.0
H498 H 0.46735 0.1244 0.45839 0.0
H499 H 0.29502 0.03485 0.47818 0.0
H500 H 0.36976 0.13461 0.42423 0.0
C501 C 0.29969 0.12062 0.41818 0.0
C502 C 0.25093 0.09792 0.42406 0.0
C503 C 0.3328 0.05451 0.47382 0.0
C504 C 0.31617 0.0903 0.44598 0.0
C505 C 0.36523 0.04989 0.48453 0.0
C506 C 0.41445 0.07522 0.4793 0.0
C507 C 0.34962 0.08452 0.45769 0.0
C508 C 0.42978 0.10462 0.46304 0.0
C509 C 0.33237 0.11704 0.4291 0.0
C510 C 0.23635 0.07232 0.44117 0.0
N511 N 0.39749 0.1084 0.4528 0.0
N512 N 0.26878 0.06901 0.45148 0.0
H513 H 0.19893 0.21367 0.78021 0.0
H514 H 0.43709 0.46559 0.78709 0.0
H515 H 0.28374 0.30262 0.73263 0.0
H516 H 0.38401 0.35201 0.82968 0.0
H517 H 0.37517 0.41096 0.7677 0.0
H518 H 0.26017 0.26937 0.79957 0.0
C519 C 0.23022 0.24525 0.77388 0.0
C520 C 0.23643 0.25373 0.75484 0.0
C521 C 0.37724 0.39799 0.78126 0.0
C522 C 0.3064 0.31723 0.77679 0.0
C523 C 0.41238 0.42909 0.79231 0.0
C524 C 0.41559 0.41311 0.80995 0.0
C525 C 0.34461 0.35086 0.78803 0.0
C526 C 0.38293 0.36549 0.81609 0.0
C527 C 0.26527 0.27671 0.78489 0.0
C528 C 0.27785 0.29478 0.74727 0.0
N529 N 0.3485 0.33608 0.80518 0.0
N530 N 0.31124 0.32517 0.75828 0.0
H531 H 0.92012 0.07876 0.61657 0.0
H532 H 0.68462 0.09757 0.60872 0.0
H533 H 0.83746 0.07939 0.664 0.0
H534 H 0.73128 0.03399 0.56805 0.0
H535 H 0.7469 0.10247 0.62815 0.0
H536 H 0.85796 0.07469 0.59725 0.0
C537 C 0.88909 0.07856 0.62286 0.0
C538 C 0.88374 0.07945 0.64185 0.0
C539 C 0.74332 0.08726 0.61501 0.0
C540 C 0.81286 0.07477 0.61996 0.0
C541 C 0.70798 0.08457 0.60394 0.0
C542 C 0.7029 0.06522 0.58684 0.0
C543 C 0.77431 0.07136 0.60875 0.0
C544 C 0.73387 0.04874 0.58124 0.0
C545 C 0.85355 0.07582 0.61188 0.0
C546 C 0.84267 0.07854 0.6494 0.0
N547 N 0.76861 0.05255 0.59211 0.0
N548 N 0.80883 0.07649 0.63841 0.0
H549 H 0.79965 0.84147 0.99438 0.0
H550 H 0.76291 0.71761 0.89956 0.0
H551 H 0.90667 0.89891 0.94924 0.0
H552 H 0.64615 0.68512 0.93886 0.0
H553 H 0.81812 0.77967 0.91872 0.0
H554 H 0.7443 0.77986 0.97516 0.0
C555 C 0.81139 0.84113 0.98039 0.0
C556 C 0.85772 0.87529 0.97336 0.0
C557 C 0.78041 0.75895 0.92314 0.0
C558 C 0.79486 0.80483 0.95136 0.0
C559 C 0.74902 0.72331 0.9123 0.0
C560 C 0.69995 0.69628 0.91765 0.0
C561 C 0.76266 0.76723 0.93953 0.0
C562 C 0.68368 0.70548 0.93417 0.0
C563 C 0.7798 0.80609 0.96942 0.0
C564 C 0.87107 0.87351 0.95512 0.0
N565 N 0.71498 0.7401 0.94455 0.0
N566 N 0.83988 0.83862 0.94478 0.0
H567 H 0.09717 0.91452 0.29634 0.0
H568 H 0.97011 0.64047 0.27201 0.0
H569 H 0.95698 0.80771 0.31948 0.0
H570 H 0.08802 0.75554 0.2389 0.0
H571 H 0.9683 0.69958 0.29136 0.0
H572 H 0.09826 0.8549 0.2771 0.0
C573 C 0.06668 0.87839 0.2974 0.0
C574 C 0.02698 0.86592 0.30955 0.0
C575 C 0.99451 0.7118 0.27984 0.0
C576 C 0.02794 0.79754 0.28755 0.0
C577 C 0.9955 0.67811 0.26873 0.0
C578 C 0.02923 0.69293 0.25372 0.0
C579 C 0.02776 0.76069 0.27606 0.0
C580 C 0.06185 0.74223 0.25044 0.0
C581 C 0.0672 0.84448 0.28635 0.0
C582 C 0.98814 0.81881 0.3102 0.0
N583 N 0.06032 0.77427 0.26153 0.0
N584 N 0.98968 0.78619 0.29941 0.0
H585 H 0.2453 0.09141 0.61538 0.0
H586 H 0.45791 0.03463 0.60294 0.0
H587 H 0.25528 0.98627 0.65029 0.0
H588 H 0.41217 0.08944 0.55838 0.0
H589 H 0.39088 0.02724 0.6226 0.0
H590 H 0.31264 0.10022 0.59597 0.0
C591 C 0.26115 0.06972 0.6189 0.0
C592 C 0.24421 0.03784 0.63454 0.0
C593 C 0.39557 0.04094 0.60853 0.0
C594 C 0.32246 0.04908 0.61259 0.0
C595 C 0.43375 0.04531 0.59741 0.0
C596 C 0.4399 0.06223 0.5791 0.0
C597 C 0.364 0.05442 0.60132 0.0
C598 C 0.40821 0.07609 0.57246 0.0
C599 C 0.29991 0.07514 0.60786 0.0
C600 C 0.26737 0.01181 0.63858 0.0
N601 N 0.37151 0.07191 0.58358 0.0
N602 N 0.30544 0.01818 0.62773 0.0
H603 H 0.22645 0.21313 0.94404 0.0
H604 H 0.47565 0.46224 0.93605 0.0
H605 H 0.30699 0.28028 0.99038 0.0
H606 H 0.39345 0.39681 0.89004 0.0
H607 H 0.41392 0.39604 0.95634 0.0
H608 H 0.28763 0.27953 0.924 0.0
C609 C 0.25722 0.24162 0.94999 0.0
C610 C 0.26159 0.24111 0.96892 0.0
C611 C 0.40918 0.39617 0.94183 0.0
C612 C 0.33148 0.31765 0.94608 0.0
C613 C 0.44424 0.43392 0.93034 0.0
C614 C 0.43906 0.43453 0.91153 0.0
C615 C 0.3689 0.3589 0.93435 0.0
C616 C 0.39823 0.39728 0.90456 0.0
C617 C 0.29196 0.27974 0.93855 0.0
C618 C 0.30186 0.27946 0.97589 0.0
N619 N 0.36465 0.36079 0.91599 0.0
N620 N 0.33523 0.31615 0.96448 0.0
H621 H 0.03789 0.22336 0.27952 0.0
H622 H 0.04209 0.47384 0.27051 0.0
H623 H 0.07298 0.31949 0.32306 0.0
H624 H 0.01508 0.38208 0.22607 0.0
H625 H 0.0496 0.4156 0.29052 0.0
H626 H 0.02735 0.27984 0.25994 0.0
C627 C 0.04386 0.25656 0.28491 0.0
C628 C 0.05642 0.26671 0.30297 0.0
C629 C 0.04174 0.40796 0.27643 0.0
C630 C 0.04353 0.33117 0.28071 0.0
C631 C 0.03724 0.441 0.26511 0.0
C632 C 0.02791 0.43224 0.24679 0.0
C633 C 0.0369 0.36603 0.26929 0.0
C634 C 0.02214 0.38964 0.24022 0.0
C635 C 0.03742 0.28862 0.27377 0.0
C636 C 0.06275 0.30991 0.30931 0.0
N637 N 0.02691 0.35807 0.25146 0.0
N638 N 0.05622 0.3405 0.2982 0.0
loop_
_geom_bond_atom_site_label_1
_geom_bond_atom_site_label_2
_geom_bond_distance
_geom_bond_site_symmetry_2
_ccdc_geom_bond_type
Li0 N17 1.990 . S
Li0 O60 1.956 . S
Li0 O61 1.970 . S
Li0 O62 1.961 . S
Li1 N25 1.990 . S
Li1 O60 1.970 . S
Li1 O61 1.956 . S
Li1 O63 1.961 . S
Li2 N47 1.990 1_545 S
Li2 O60 1.961 . S
Li2 O62 1.956 . S
Li2 O63 1.970 . S
Li3 N53 1.990 1_445 S
Li3 O61 1.961 . S
Li3 O62 1.970 . S
Li3 O63 1.956 . S
C4 C6 1.348 . S
C4 C7 1.356 . S
C4 O60 1.325 . S
N5 C8 1.314 . S
N5 C9 1.279 . S
C6 C4 1.348 . S
C6 C8 1.353 . S
C6 H64 0.929 . S
C7 C4 1.356 . S
C7 C9 1.358 . S
C7 H65 0.930 . S
C8 N5 1.314 . S
C8 C6 1.353 . S
C8 H66 0.930 . S
C9 N5 1.279 . S
C9 C7 1.358 . S
C9 H67 0.930 . S
C10 C13 1.356 . S
C10 C14 1.356 . S
C10 O61 1.325 . S
C11 N12 1.279 1_655 S
C11 C14 1.358 1_656 S
C11 H68 0.930 . S
N12 C11 1.279 1_455 S
N12 C15 1.314 . S
C13 C10 1.356 . S
C13 C15 1.342 1_554 S
C13 H69 0.933 . S
C14 C10 1.356 . S
C14 C11 1.358 1_454 S
C14 H70 0.930 1_455 S
C15 N12 1.314 . S
C15 C13 1.342 1_556 S
C15 H71 0.930 . S
C16 N17 1.314 1_556 S
C16 C21 1.353 . S
C16 H22 0.930 . S
N17 Li0 1.990 . S
N17 C16 1.314 1_554 S
N17 C19 1.279 . S
C18 C19 1.354 1_556 S
C18 C20 1.364 . S
C18 H72 0.926 1_556 S
C19 N17 1.279 . S
C19 C18 1.354 1_554 S
C19 H23 0.930 . S
C20 C18 1.364 . S
C20 C21 1.348 . S
C21 C16 1.353 . S
C21 C20 1.348 . S
C21 H73 0.929 . S
H22 C16 0.930 . S
H23 C19 0.930 . S
C24 N25 1.314 . S
C24 C26 1.353 . S
C24 H30 0.930 . S
N25 Li1 1.990 . S
N25 C24 1.314 . S
N25 C28 1.279 . S
C26 C24 1.353 . S
C26 C29 1.348 . S
C26 H74 0.930 1_455 S
C27 C28 1.358 . S
C27 C29 1.356 . S
C27 H75 0.930 . S
C28 N25 1.279 . S
C28 C27 1.358 . S
C28 H31 0.930 . S
C29 C26 1.348 . S
C29 C27 1.356 . S
H30 C24 0.930 . S
H31 C28 0.930 . S
C32 C34 1.348 . S
C32 C35 1.356 . S
C32 O62 1.325 1_565 S
N33 C36 1.314 . S
N33 C37 1.279 . S
C34 C32 1.348 . S
C34 C36 1.353 1_554 S
C34 H76 0.929 . S
C35 C32 1.356 . S
C35 C37 1.358 1_554 S
C35 H77 0.930 1_565 S
C36 N33 1.314 . S
C36 C34 1.353 1_556 S
C36 H78 0.930 . S
C37 N33 1.279 . S
C37 C35 1.358 1_556 S
C37 H79 0.930 . S
C38 C39 1.348 . S
C38 C40 1.356 . S
C38 O63 1.325 1_665 S
C39 C38 1.348 . S
C39 C41 1.353 . S
C39 H80 0.929 . S
C40 C38 1.356 . S
C40 C42 1.358 . S
C40 H81 0.930 1_565 S
C41 C39 1.353 . S
C41 N43 1.314 . S
C41 H82 0.930 . S
C42 C40 1.358 . S
C42 N43 1.279 . S
C42 H83 0.930 . S
N43 C41 1.314 . S
N43 C42 1.279 . S
C44 C46 1.353 . S
C44 N47 1.314 . S
C44 H50 0.930 1_565 S
C45 N47 1.279 . S
C45 C48 1.358 . S
C45 H51 0.930 . S
C46 C44 1.353 . S
C46 C49 1.348 . S
C46 H84 0.929 . S
N47 Li2 1.990 1_565 S
N47 C44 1.314 . S
N47 C45 1.279 . S
C48 C45 1.358 . S
C48 C49 1.356 . S
C48 H85 0.930 . S
C49 C46 1.348 . S
C49 C48 1.356 . S
H50 C44 0.930 1_545 S
H51 C45 0.930 . S
C52 N53 1.314 1_556 S
C52 C54 1.353 . S
C52 H58 0.930 1_565 S
N53 Li3 1.990 1_665 S
N53 C52 1.314 1_554 S
N53 C56 1.279 . S
C54 C52 1.353 . S
C54 C57 1.348 . S
C54 H86 0.929 . S
C55 C56 1.358 . S
C55 C57 1.356 1_554 S
C55 H87 0.930 . S
C56 N53 1.279 . S
C56 C55 1.358 . S
C56 H59 0.930 . S
C57 C54 1.348 . S
C57 C55 1.356 1_556 S
H58 C52 0.930 1_545 S
H59 C56 0.930 . S
O60 Li0 1.956 . S
O60 Li1 1.970 . S
O60 Li2 1.961 . S
O60 C4 1.325 . S
O61 Li0 1.970 . S
O61 Li1 1.956 . S
O61 Li3 1.961 . S
O61 C10 1.325 . S
O62 Li0 1.961 . S
O62 Li2 1.956 . S
O62 Li3 1.970 . S
O62 C32 1.325 1_545 S
O63 Li1 1.961 . S
O63 Li2 1.970 . S
O63 Li3 1.956 . S
O63 C38 1.325 1_445 S
H64 C6 0.929 . S
H65 C7 0.930 . S
H66 C8 0.930 . S
H67 C9 0.930 . S
H68 C11 0.930 . S
H69 C13 0.933 . S
H70 C14 0.930 1_655 S
H71 C15 0.930 . S
H72 C18 0.926 1_554 S
H73 C21 0.929 . S
H74 C26 0.930 1_655 S
H75 C27 0.930 . S
H76 C34 0.929 . S
H77 C35 0.930 1_545 S
H78 C36 0.930 . S
H79 C37 0.930 . S
H80 C39 0.929 . S
H81 C40 0.930 1_545 S
H82 C41 0.930 . S
H83 C42 0.930 . S
H84 C46 0.929 . S
H85 C48 0.930 . S
H86 C54 0.929 . S
H87 C55 0.930 . S
Li88 N105 1.990 1_545 S
Li88 O148 1.956 . S
Li88 O149 1.970 . S
Li88 O150 1.961 1_455 S
Li89 N113 1.990 . S
Li89 O148 1.970 . S
Li89 O149 1.956 . S
Li89 O151 1.961 . S
Li90 N135 1.990 . S
Li90 O148 1.961 1_655 S
Li90 O150 1.956 . S
Li90 O151 1.970 1_655 S
Li91 N141 1.990 . S
Li91 O149 1.961 . S
Li91 O150 1.970 1_455 S
Li91 O151 1.956 . S
C92 C94 1.348 . S
C92 C95 1.356 1_455 S
C92 O148 1.325 1_565 S
N93 C96 1.314 1_655 S
N93 C97 1.279 . S
C94 C92 1.348 . S
C94 C96 1.353 . S
C94 H152 0.927 1_565 S
C95 C92 1.356 1_655 S
C95 C97 1.358 . S
C95 H153 0.930 . S
C96 N93 1.314 1_455 S
C96 C94 1.353 . S
C96 H154 0.930 . S
C97 N93 1.279 . S
C97 C95 1.358 . S
C97 H155 0.930 . S
C98 C101 1.348 . S
C98 C102 1.356 . S
C98 O149 1.325 . S
C99 N100 1.279 . S
C99 C102 1.358 . S
C99 H156 0.930 . S
N100 C99 1.279 . S
N100 C103 1.314 . S
C101 C98 1.348 . S
C101 C103 1.353 . S
C101 H157 0.929 . S
C102 C98 1.356 . S
C102 C99 1.358 . S
C102 H158 0.930 . S
C103 N100 1.314 . S
C103 C101 1.353 . S
C103 H159 0.930 . S
C104 N105 1.314 1_655 S
C104 C109 1.353 . S
C104 H110 0.930 . S
N105 Li88 1.990 1_565 S
N105 C104 1.314 1_455 S
N105 C107 1.279 . S
C106 C107 1.358 1_655 S
C106 C108 1.356 . S
C106 H160 0.930 . S
C107 N105 1.279 . S
C107 C106 1.358 1_455 S
C107 H111 0.930 . S
C108 C106 1.356 . S
C108 C109 1.348 . S
C109 C104 1.353 . S
C109 C108 1.348 . S
C109 H161 0.929 . S
H110 C104 0.930 . S
H111 C107 0.930 . S
C112 N113 1.314 . S
C112 C114 1.353 . S
C112 H118 0.930 . S
N113 Li89 1.990 . S
N113 C112 1.314 . S
N113 C116 1.279 . S
C114 C112 1.353 . S
C114 C117 1.348 . S
C114 H162 0.929 . S
C115 C116 1.358 . S
C115 C117 1.356 . S
C115 H163 0.930 . S
C116 N113 1.279 . S
C116 C115 1.358 . S
C116 H119 0.930 . S
C117 C114 1.348 . S
C117 C115 1.356 . S
H118 C112 0.930 . S
H119 C116 0.930 . S
C120 C122 1.348 . S
C120 C123 1.356 . S
C120 O150 1.325 . S
N121 C124 1.314 . S
N121 C125 1.279 1_545 S
C122 C120 1.348 . S
C122 C124 1.353 . S
C122 H164 0.929 . S
C123 C120 1.356 . S
C123 C125 1.358 1_545 S
C123 H165 0.930 1_545 S
C124 N121 1.314 . S
C124 C122 1.353 . S
C124 H166 0.930 . S
C125 N121 1.279 1_565 S
C125 C123 1.358 1_565 S
C125 H167 0.930 . S
C126 C127 1.348 . S
C126 C128 1.356 . S
C126 O151 1.325 . S
C127 C126 1.348 . S
C127 C129 1.353 . S
C127 H168 0.929 1_455 S
C128 C126 1.356 . S
C128 C130 1.358 . S
C128 H169 0.930 . S
C129 C127 1.353 . S
C129 N131 1.314 . S
C129 H170 0.930 . S
C130 C128 1.358 . S
C130 N131 1.279 . S
C130 H171 0.930 . S
N131 C129 1.314 . S
N131 C130 1.279 . S
C132 C134 1.353 . S
C132 N135 1.314 . S
C132 H138 0.930 . S
C133 N135 1.279 . S
C133 C136 1.358 . S
C133 H139 0.930 . S
C134 C132 1.353 . S
C134 C137 1.348 . S
C134 H172 0.929 . S
N135 Li90 1.990 . S
N135 C132 1.314 . S
N135 C133 1.279 . S
C136 C133 1.358 . S
C136 C137 1.356 . S
C136 H173 0.930 . S
C137 C134 1.348 . S
C137 C136 1.356 . S
H138 C132 0.930 . S
H139 C133 0.930 . S
C140 N141 1.314 . S
C140 C142 1.353 . S
C140 H146 0.930 . S
N141 Li91 1.990 . S
N141 C140 1.314 . S
N141 C144 1.279 . S
C142 C140 1.353 . S
C142 C145 1.348 . S
C142 H174 0.929 . S
C143 C144 1.358 . S
C143 C145 1.356 . S
C143 H175 0.930 . S
C144 N141 1.279 . S
C144 C143 1.358 . S
C144 H147 0.930 . S
C145 C142 1.348 . S
C145 C143 1.356 . S
H146 C140 0.930 . S
H147 C144 0.930 . S
O148 Li88 1.956 . S
O148 Li89 1.970 . S
O148 Li90 1.961 1_455 S
O148 C92 1.325 1_545 S
O149 Li88 1.970 . S
O149 Li89 1.956 . S
O149 Li91 1.961 . S
O149 C98 1.325 . S
O150 Li88 1.961 1_655 S
O150 Li90 1.956 . S
O150 Li91 1.970 1_655 S
O150 C120 1.325 . S
O151 Li89 1.961 . S
O151 Li90 1.970 1_455 S
O151 Li91 1.956 . S
O151 C126 1.325 . S
H152 C94 0.927 1_545 S
H153 C95 0.930 . S
H154 C96 0.930 . S
H155 C97 0.930 . S
H156 C99 0.930 . S
H157 C101 0.929 . S
H158 C102 0.930 . S
H159 C103 0.930 . S
H160 C106 0.930 . S
H161 C109 0.929 . S
H162 C114 0.929 . S
H163 C115 0.930 . S
H164 C122 0.929 . S
H165 C123 0.930 1_565 S
H166 C124 0.930 . S
H167 C125 0.930 . S
H168 C127 0.929 1_655 S
H169 C128 0.930 . S
H170 C129 0.930 . S
H171 C130 0.930 . S
H172 C134 0.929 . S
H173 C136 0.930 . S
H174 C142 0.929 . S
H175 C143 0.930 . S
Li176 N193 1.990 . S
Li176 O236 1.956 . S
Li176 O237 1.970 . S
Li176 O238 1.961 1_545 S
Li177 N201 1.990 . S
Li177 O236 1.970 . S
Li177 O237 1.956 . S
Li177 O239 1.961 . S
Li178 N223 1.990 1_455 S
Li178 O236 1.961 1_565 S
Li178 O238 1.956 . S
Li178 O239 1.970 1_565 S
Li179 N229 1.990 1_455 S
Li179 O237 1.961 . S
Li179 O238 1.970 1_545 S
Li179 O239 1.956 . S
C180 C182 1.348 . S
C180 C183 1.356 1_545 S
C180 O236 1.325 . S
N181 C184 1.314 1_565 S
N181 C185 1.279 . S
C182 C180 1.348 . S
C182 C184 1.353 . S
C182 H240 0.929 . S
C183 C180 1.356 1_565 S
C183 C185 1.358 . S
C183 H241 0.930 . S
C184 N181 1.314 1_545 S
C184 C182 1.353 . S
C184 H242 0.930 . S
C185 N181 1.279 . S
C185 C183 1.358 . S
C185 H243 0.930 . S
C186 C189 1.348 . S
C186 C190 1.356 . S
C186 O237 1.325 . S
C187 N188 1.279 . S
C187 C190 1.358 . S
C187 H244 0.930 . S
N188 C187 1.279 . S
N188 C191 1.314 . S
C189 C186 1.348 . S
C189 C191 1.353 . S
C189 H245 0.929 . S
C190 C186 1.356 . S
C190 C187 1.358 . S
C190 H246 0.930 . S
C191 N188 1.314 . S
C191 C189 1.353 . S
C191 H247 0.930 . S
C192 N193 1.314 . S
C192 C197 1.338 1_545 S
C192 H198 0.930 . S
N193 Li176 1.990 . S
N193 C192 1.314 . S
N193 C195 1.279 . S
C194 C195 1.358 . S
C194 C196 1.357 . S
C194 H248 0.930 . S
C195 N193 1.279 . S
C195 C194 1.358 . S
C195 H199 0.930 . S
C196 C194 1.357 . S
C196 C197 1.365 1_545 S
C197 C192 1.338 1_565 S
C197 C196 1.365 1_565 S
C197 H249 0.933 . S
H198 C192 0.930 . S
H199 C195 0.930 . S
C200 N201 1.314 . S
C200 C202 1.353 . S
C200 H206 0.930 . S
N201 Li177 1.990 . S
N201 C200 1.314 . S
N201 C204 1.279 . S
C202 C200 1.353 . S
C202 C205 1.348 . S
C202 H250 0.929 . S
C203 C204 1.358 . S
C203 C205 1.356 . S
C203 H251 0.930 . S
C204 N201 1.279 . S
C204 C203 1.358 . S
C204 H207 0.930 . S
C205 C202 1.348 . S
C205 C203 1.356 . S
H206 C200 0.930 . S
H207 C204 0.930 . S
C208 C210 1.348 . S
C208 C211 1.356 1_655 S
C208 O238 1.325 1_655 S
N209 C212 1.314 . S
N209 C213 1.279 . S
C210 C208 1.348 . S
C210 C212 1.353 . S
C210 H252 0.929 . S
C211 C208 1.356 1_455 S
C211 C213 1.358 1_455 S
C211 H253 0.930 . S
C212 N209 1.314 . S
C212 C210 1.353 . S
C212 H254 0.930 . S
C213 N209 1.279 . S
C213 C211 1.358 1_655 S
C213 H255 0.930 . S
C214 C215 1.348 . S
C214 C216 1.366 1_655 S
C214 O239 1.325 1_655 S
C215 C214 1.348 . S
C215 C217 1.353 . S
C215 H256 0.929 1_545 S
C216 C214 1.366 1_455 S
C216 C218 1.337 1_455 S
C216 H257 0.942 . S
C217 C215 1.353 . S
C217 N219 1.314 . S
C217 H258 0.930 . S
C218 C216 1.337 1_655 S
C218 N219 1.279 . S
C218 H259 0.930 . S
N219 C217 1.314 . S
N219 C218 1.279 . S
C220 C222 1.353 . S
C220 N223 1.314 . S
C220 H226 0.930 1_655 S
C221 N223 1.279 . S
C221 C224 1.358 . S
C221 H227 0.930 . S
C222 C220 1.353 . S
C222 C225 1.348 . S
C222 H260 0.929 . S
N223 Li178 1.990 1_655 S
N223 C220 1.314 . S
N223 C221 1.279 . S
C224 C221 1.358 . S
C224 C225 1.356 . S
C224 H261 0.930 . S
C225 C222 1.348 . S
C225 C224 1.356 . S
H226 C220 0.930 1_455 S
H227 C221 0.930 . S
C228 N229 1.314 . S
C228 C230 1.353 . S
C228 H234 0.930 1_655 S
N229 Li179 1.990 1_655 S
N229 C228 1.314 . S
N229 C232 1.279 . S
C230 C228 1.353 . S
C230 C233 1.348 . S
C230 H262 0.929 . S
C231 C232 1.358 . S
C231 C233 1.356 . S
C231 H263 0.930 . S
C232 N229 1.279 . S
C232 C231 1.358 . S
C232 H235 0.930 . S
C233 C230 1.348 . S
C233 C231 1.356 . S
H234 C228 0.930 1_455 S
H235 C232 0.930 . S
O236 Li176 1.956 . S
O236 Li177 1.970 . S
O236 Li178 1.961 1_545 S
O236 C180 1.325 . S
O237 Li176 1.970 . S
O237 Li177 1.956 . S
O237 Li179 1.961 . S
O237 C186 1.325 . S
O238 Li176 1.961 1_565 S
O238 Li178 1.956 . S
O238 Li179 1.970 1_565 S
O238 C208 1.325 1_455 S
O239 Li177 1.961 . S
O239 Li178 1.970 1_545 S
O239 Li179 1.956 . S
O239 C214 1.325 1_455 S
H240 C182 0.929 . S
H241 C183 0.930 . S
H242 C184 0.930 . S
H243 C185 0.930 . S
H244 C187 0.930 . S
H245 C189 0.929 . S
H246 C190 0.930 . S
H247 C191 0.930 . S
H248 C194 0.930 . S
H249 C197 0.933 . S
H250 C202 0.929 . S
H251 C203 0.930 . S
H252 C210 0.929 . S
H253 C211 0.930 . S
H254 C212 0.930 . S
H255 C213 0.930 . S
H256 C215 0.929 1_565 S
H257 C216 0.942 . S
H258 C217 0.930 . S
H259 C218 0.930 . S
H260 C222 0.929 . S
H261 C224 0.930 . S
H262 C230 0.929 . S
H263 C231 0.930 . S
C264 C265 1.443 . S
C264 N268 1.376 . S
C264 C302 1.389 . S
C265 C264 1.443 . S
C265 C266 1.340 . S
C265 H305 0.951 . S
C266 C265 1.340 . S
C266 C267 1.439 . S
C266 H306 0.950 . S
C267 C266 1.439 . S
C267 N268 1.374 . S
C267 C301 1.395 . S
N268 C264 1.376 . S
N268 C267 1.374 . S
N268 Co269 2.008 . S
Co269 N268 2.008 . S
Co269 N270 1.995 . S
Co269 N275 2.008 1_455 S
Co269 N280 1.995 1_455 S
Co269 N285 2.282 . S
Co269 N291 2.282 . S
N270 Co269 1.995 . S
N270 C271 1.376 . S
N270 C274 1.383 . S
C271 N270 1.376 . S
C271 C272 1.446 . S
C271 C301 1.391 . S
C272 C271 1.446 . S
C272 C273 1.339 . S
C272 H307 0.949 . S
C273 C272 1.339 . S
C273 C274 1.439 . S
C273 H308 0.950 . S
C274 N270 1.383 . S
C274 C273 1.439 . S
C274 C303 1.392 . S
N275 Co269 2.008 1_655 S
N275 C276 1.376 . S
N275 C279 1.374 . S
C276 N275 1.376 . S
C276 C277 1.443 . S
C276 C303 1.389 1_655 S
C277 C276 1.443 . S
C277 C278 1.340 . S
C277 H309 0.951 . S
C278 C277 1.340 . S
C278 C279 1.439 . S
C278 H310 0.950 . S
C279 N275 1.374 . S
C279 C278 1.439 . S
C279 C304 1.395 . S
N280 Co269 1.995 1_655 S
N280 C281 1.376 . S
N280 C284 1.383 . S
C281 N280 1.376 . S
C281 C282 1.446 . S
C281 C304 1.391 . S
C282 C281 1.446 . S
C282 C283 1.339 . S
C282 H311 0.949 . S
C283 C282 1.339 . S
C283 C284 1.439 . S
C283 H312 0.950 . S
C284 N280 1.383 . S
C284 C283 1.439 . S
C284 C302 1.392 1_655 S
N285 Co269 2.282 . S
N285 C288 1.332 1_455 S
N285 C290 1.332 . S
C286 C287 1.386 1_455 S
C286 C289 1.388 . S
C287 C286 1.386 1_655 S
C287 C288 1.382 . S
C287 H313 0.950 . S
C288 N285 1.332 1_655 S
C288 C287 1.382 . S
C288 H299 0.952 . S
C289 C286 1.388 . S
C289 C290 1.382 . S
C289 H314 0.950 . S
C290 N285 1.332 . S
C290 C289 1.382 . S
C290 H300 0.948 . S
N291 Co269 2.282 . S
N291 C295 1.332 . S
N291 C296 1.332 1_455 S
C292 C293 1.388 1_655 S
C292 C296 1.382 . S
C292 H315 0.950 . S
C293 C292 1.388 1_455 S
C293 C294 1.386 . S
C294 C293 1.386 . S
C294 C295 1.382 . S
C294 H316 0.950 . S
C295 N291 1.332 . S
C295 C294 1.382 . S
C295 H297 0.952 . S
C296 N291 1.332 1_655 S
C296 C292 1.382 . S
C296 H298 0.948 . S
H297 C295 0.952 . S
H298 C296 0.948 . S
H299 C288 0.952 . S
H300 C290 0.948 . S
C301 C267 1.395 . S
C301 C271 1.391 . S
C302 C264 1.389 . S
C302 C284 1.392 1_455 S
C303 C274 1.392 . S
C303 C276 1.389 1_455 S
C304 C279 1.395 . S
C304 C281 1.391 . S
H305 C265 0.951 . S
H306 C266 0.950 . S
H307 C272 0.949 . S
H308 C273 0.950 . S
H309 C277 0.951 . S
H310 C278 0.950 . S
H311 C282 0.949 . S
H312 C283 0.950 . S
H313 C287 0.950 . S
H314 C289 0.950 . S
H315 C292 0.950 . S
H316 C294 0.950 . S
C317 C318 1.443 1_545 S
C317 N321 1.376 . S
C317 C355 1.389 . S
C318 C317 1.443 1_565 S
C318 C319 1.340 . S
C318 H358 0.951 . S
C319 C318 1.340 . S
C319 C320 1.439 . S
C319 H359 0.950 . S
C320 C319 1.439 . S
C320 N321 1.374 1_565 S
C320 C354 1.395 . S
N321 C317 1.376 . S
N321 C320 1.374 1_545 S
N321 Co322 2.008 . S
Co322 N321 2.008 . S
Co322 N323 1.995 . S
Co322 N328 2.008 . S
Co322 N333 1.995 . S
Co322 N338 2.282 . S
Co322 N344 2.282 . S
N323 Co322 1.995 . S
N323 C324 1.376 1_545 S
N323 C327 1.383 . S
C324 N323 1.376 1_565 S
C324 C325 1.446 . S
C324 C354 1.391 . S
C325 C324 1.446 . S
C325 C326 1.339 . S
C325 H360 0.949 . S
C326 C325 1.339 . S
C326 C327 1.439 1_565 S
C326 H361 0.950 . S
C327 N323 1.383 . S
C327 C326 1.439 1_545 S
C327 C356 1.392 . S
N328 Co322 2.008 . S
N328 C329 1.376 . S
N328 C332 1.374 . S
C329 N328 1.376 . S
C329 C330 1.443 . S
C329 C356 1.389 . S
C330 C329 1.443 . S
C330 C331 1.340 . S
C330 H362 0.951 . S
C331 C330 1.340 . S
C331 C332 1.439 . S
C331 H363 0.950 . S
C332 N328 1.374 . S
C332 C331 1.439 . S
C332 C357 1.395 . S
N333 Co322 1.995 . S
N333 C334 1.376 . S
N333 C337 1.383 . S
C334 N333 1.376 . S
C334 C335 1.446 . S
C334 C357 1.391 . S
C335 C334 1.446 . S
C335 C336 1.339 . S
C335 H364 0.949 . S
C336 C335 1.339 . S
C336 C337 1.439 . S
C336 H365 0.950 . S
C337 N333 1.383 . S
C337 C336 1.439 . S
C337 C355 1.392 . S
N338 Co322 2.282 . S
N338 C341 1.332 . S
N338 C343 1.332 . S
C339 C340 1.386 . S
C339 C342 1.388 . S
C340 C339 1.386 . S
C340 C341 1.382 . S
C340 H366 0.950 . S
C341 N338 1.332 . S
C341 C340 1.382 . S
C341 H352 0.952 . S
C342 C339 1.388 . S
C342 C343 1.382 . S
C342 H367 0.950 . S
C343 N338 1.332 . S
C343 C342 1.382 . S
C343 H353 0.948 . S
N344 Co322 2.282 . S
N344 C348 1.332 . S
N344 C349 1.332 . S
C345 C346 1.388 . S
C345 C349 1.382 . S
C345 H368 0.950 . S
C346 C345 1.388 . S
C346 C347 1.386 . S
C347 C346 1.386 . S
C347 C348 1.382 . S
C347 H369 0.950 . S
C348 N344 1.332 . S
C348 C347 1.382 . S
C348 H350 0.952 . S
C349 N344 1.332 . S
C349 C345 1.382 . S
C349 H351 0.948 . S
H350 C348 0.952 . S
H351 C349 0.948 . S
H352 C341 0.952 . S
H353 C343 0.948 . S
C354 C320 1.395 . S
C354 C324 1.391 . S
C355 C317 1.389 . S
C355 C337 1.392 . S
C356 C327 1.392 . S
C356 C329 1.389 . S
C357 C332 1.395 . S
C357 C334 1.391 . S
H358 C318 0.951 . S
H359 C319 0.950 . S
H360 C325 0.949 . S
H361 C326 0.950 . S
H362 C330 0.951 . S
H363 C331 0.950 . S
H364 C335 0.949 . S
H365 C336 0.950 . S
H366 C340 0.950 . S
H367 C342 0.950 . S
H368 C345 0.950 . S
H369 C347 0.950 . S
C370 C371 1.443 . S
C370 N374 1.376 . S
C370 C408 1.389 . S
C371 C370 1.443 . S
C371 C372 1.340 . S
C371 H411 0.951 . S
C372 C371 1.340 . S
C372 C373 1.439 . S
C372 H412 0.950 . S
C373 C372 1.439 . S
C373 N374 1.374 . S
C373 C407 1.395 . S
N374 C370 1.376 . S
N374 C373 1.374 . S
N374 Co375 2.008 . S
Co375 N374 2.008 . S
Co375 N376 1.995 . S
Co375 N381 2.008 . S
Co375 N386 1.995 . S
Co375 N391 2.282 . S
Co375 N397 2.282 . S
N376 Co375 1.995 . S
N376 C377 1.376 . S
N376 C380 1.383 . S
C377 N376 1.376 . S
C377 C378 1.446 . S
C377 C407 1.391 . S
C378 C377 1.446 . S
C378 C379 1.339 . S
C378 H413 0.949 . S
C379 C378 1.339 . S
C379 C380 1.439 . S
C379 H414 0.950 . S
C380 N376 1.383 . S
C380 C379 1.439 . S
C380 C409 1.392 . S
N381 Co375 2.008 . S
N381 C382 1.376 . S
N381 C385 1.374 . S
C382 N381 1.376 . S
C382 C383 1.443 . S
C382 C409 1.389 . S
C383 C382 1.443 . S
C383 C384 1.340 . S
C383 H415 0.951 . S
C384 C383 1.340 . S
C384 C385 1.439 . S
C384 H416 0.950 . S
C385 N381 1.374 . S
C385 C384 1.439 . S
C385 C410 1.395 . S
N386 Co375 1.995 . S
N386 C387 1.376 . S
N386 C390 1.383 . S
C387 N386 1.376 . S
C387 C388 1.446 . S
C387 C410 1.391 . S
C388 C387 1.446 . S
C388 C389 1.339 . S
C388 H417 0.949 . S
C389 C388 1.339 . S
C389 C390 1.439 . S
C389 H418 0.950 . S
C390 N386 1.383 . S
C390 C389 1.439 . S
C390 C408 1.392 . S
N391 Co375 2.282 . S
N391 C394 1.332 . S
N391 C396 1.332 . S
C392 C393 1.386 . S
C392 C395 1.388 . S
C393 C392 1.386 . S
C393 C394 1.382 . S
C393 H419 0.950 . S
C394 N391 1.332 . S
C394 C393 1.382 . S
C394 H405 0.952 . S
C395 C392 1.388 . S
C395 C396 1.382 . S
C395 H420 0.950 . S
C396 N391 1.332 . S
C396 C395 1.382 . S
C396 H406 0.948 . S
N397 Co375 2.282 . S
N397 C401 1.332 . S
N397 C402 1.332 . S
C398 C399 1.388 . S
C398 C402 1.382 . S
C398 H421 0.950 . S
C399 C398 1.388 . S
C399 C400 1.386 . S
C400 C399 1.386 . S
C400 C401 1.382 . S
C400 H422 0.950 . S
C401 N397 1.332 . S
C401 C400 1.382 . S
C401 H403 0.952 . S
C402 N397 1.332 . S
C402 C398 1.382 . S
C402 H404 0.948 . S
H403 C401 0.952 . S
H404 C402 0.948 . S
H405 C394 0.952 . S
H406 C396 0.948 . S
C407 C373 1.395 . S
C407 C377 1.391 . S
C408 C370 1.389 . S
C408 C390 1.392 . S
C409 C380 1.392 . S
C409 C382 1.389 . S
C410 C385 1.395 . S
C410 C387 1.391 . S
H411 C371 0.951 . S
H412 C372 0.950 . S
H413 C378 0.949 . S
H414 C379 0.950 . S
H415 C383 0.951 . S
H416 C384 0.950 . S
H417 C388 0.949 . S
H418 C389 0.950 . S
H419 C393 0.950 . S
H420 C395 0.950 . S
H421 C398 0.950 . S
H422 C400 0.950 . S
H423 C429 0.930 . S
H424 C433 0.930 . S
H425 C438 0.929 . S
H426 C436 0.929 . S
H427 C431 0.929 1_655 S
H428 C437 0.929 . S
C429 H423 0.930 . S
C429 C430 1.367 . S
C429 C437 1.378 . S
C430 C429 1.367 . S
C430 C438 1.433 1_455 S
C431 H427 0.929 1_455 S
C431 C433 1.378 . S
C431 C435 1.350 . S
C432 C435 1.463 . S
C432 C437 1.350 . S
C432 N440 1.434 . S
C433 H424 0.930 . S
C433 C431 1.378 . S
C433 C434 1.367 . S
C434 C433 1.367 . S
C434 C436 1.433 . S
C435 C431 1.350 . S
C435 C432 1.463 . S
C435 N439 1.427 . S
C436 H426 0.929 . S
C436 C434 1.433 . S
C436 N439 1.384 . S
C437 H428 0.929 . S
C437 C429 1.378 . S
C437 C432 1.350 . S
C438 H425 0.929 . S
C438 C430 1.433 1_655 S
C438 N440 1.388 1_655 S
N439 C435 1.427 . S
N439 C436 1.384 . S
N440 C432 1.434 . S
N440 C438 1.388 1_455 S
H441 C447 0.930 . S
H442 C451 0.930 . S
H443 C456 0.929 . S
H444 C454 0.929 . S
H445 C449 0.929 . S
H446 C455 0.929 . S
C447 H441 0.930 . S
C447 C448 1.367 . S
C447 C455 1.378 . S
C448 C447 1.367 . S
C448 C456 1.433 . S
C449 H445 0.929 . S
C449 C451 1.378 . S
C449 C453 1.350 . S
C450 C453 1.463 . S
C450 C455 1.350 . S
C450 N458 1.427 . S
C451 H442 0.930 . S
C451 C449 1.378 . S
C451 C452 1.367 . S
C452 C451 1.367 . S
C452 C454 1.433 . S
C453 C449 1.350 . S
C453 C450 1.463 . S
C453 N457 1.427 . S
C454 H444 0.929 . S
C454 C452 1.433 . S
C454 N457 1.384 . S
C455 H446 0.929 . S
C455 C447 1.378 . S
C455 C450 1.350 . S
C456 H443 0.929 . S
C456 C448 1.433 . S
C456 N458 1.384 . S
N457 C453 1.427 . S
N457 C454 1.384 . S
N458 C450 1.427 . S
N458 C456 1.384 . S
H459 C465 0.930 . S
H460 C469 0.930 . S
H461 C474 0.929 . S
H462 C472 0.929 . S
H463 C467 0.929 . S
H464 C473 0.929 . S
C465 H459 0.930 . S
C465 C466 1.367 . S
C465 C473 1.378 . S
C466 C465 1.367 . S
C466 C474 1.433 . S
C467 H463 0.929 . S
C467 C469 1.378 . S
C467 C471 1.350 . S
C468 C471 1.463 . S
C468 C473 1.350 . S
C468 N476 1.427 . S
C469 H460 0.930 . S
C469 C467 1.378 . S
C469 C470 1.367 . S
C470 C469 1.367 . S
C470 C472 1.433 . S
C471 C467 1.350 . S
C471 C468 1.463 . S
C471 N475 1.427 . S
C472 H462 0.929 . S
C472 C470 1.433 . S
C472 N475 1.384 . S
C473 H464 0.929 . S
C473 C465 1.378 . S
C473 C468 1.350 . S
C474 H461 0.929 . S
C474 C466 1.433 . S
C474 N476 1.384 . S
N475 C471 1.427 . S
N475 C472 1.384 . S
N476 C468 1.427 . S
N476 C474 1.384 . S
H477 C483 0.930 . S
H478 C487 0.930 . S
H479 C492 0.929 . S
H480 C490 0.929 1_655 S
H481 C485 0.929 . S
H482 C491 0.929 . S
C483 H477 0.930 . S
C483 C484 1.367 . S
C483 C491 1.378 . S
C484 C483 1.367 . S
C484 C492 1.433 . S
C485 H481 0.929 . S
C485 C487 1.378 . S
C485 C489 1.350 . S
C486 C489 1.463 . S
C486 C491 1.350 . S
C486 N494 1.427 . S
C487 H478 0.930 . S
C487 C485 1.378 . S
C487 C488 1.367 . S
C488 C487 1.367 . S
C488 C490 1.433 . S
C489 C485 1.350 . S
C489 C486 1.463 . S
C489 N493 1.427 . S
C490 H480 0.929 1_455 S
C490 C488 1.433 . S
C490 N493 1.384 . S
C491 H482 0.929 . S
C491 C483 1.378 . S
C491 C486 1.350 . S
C492 H479 0.929 . S
C492 C484 1.433 . S
C492 N494 1.384 . S
N493 C489 1.427 . S
N493 C490 1.384 . S
N494 C486 1.427 . S
N494 C492 1.384 . S
H495 C501 0.930 . S
H496 C505 0.930 . S
H497 C510 0.929 . S
H498 C508 0.929 . S
H499 C503 0.929 . S
H500 C509 0.929 . S
C501 H495 0.930 . S
C501 C502 1.367 . S
C501 C509 1.378 . S
C502 C501 1.367 . S
C502 C510 1.433 . S
C503 H499 0.929 . S
C503 C505 1.378 . S
C503 C507 1.350 . S
C504 C507 1.463 . S
C504 C509 1.350 . S
C504 N512 1.427 . S
C505 H496 0.930 . S
C505 C503 1.378 . S
C505 C506 1.367 . S
C506 C505 1.367 . S
C506 C508 1.433 . S
C507 C503 1.350 . S
C507 C504 1.463 . S
C507 N511 1.427 . S
C508 H498 0.929 . S
C508 C506 1.433 . S
C508 N511 1.384 . S
C509 H500 0.929 . S
C509 C501 1.378 . S
C509 C504 1.350 . S
C510 H497 0.929 . S
C510 C502 1.433 . S
C510 N512 1.384 . S
N511 C507 1.427 . S
N511 C508 1.384 . S
N512 C504 1.427 . S
N512 C510 1.384 . S
H513 C519 0.930 . S
H514 C523 0.930 . S
H515 C528 0.929 . S
H516 C526 0.929 . S
H517 C521 0.929 . S
H518 C527 0.929 . S
C519 H513 0.930 . S
C519 C520 1.367 . S
C519 C527 1.378 . S
C520 C519 1.367 . S
C520 C528 1.433 . S
C521 H517 0.929 . S
C521 C523 1.378 . S
C521 C525 1.350 . S
C522 C525 1.463 . S
C522 C527 1.350 . S
C522 N530 1.427 . S
C523 H514 0.930 . S
C523 C521 1.378 . S
C523 C524 1.367 . S
C524 C523 1.367 . S
C524 C526 1.433 . S
C525 C521 1.350 . S
C525 C522 1.463 . S
C525 N529 1.427 . S
C526 H516 0.929 . S
C526 C524 1.433 . S
C526 N529 1.384 . S
C527 H518 0.929 . S
C527 C519 1.378 . S
C527 C522 1.350 . S
C528 H515 0.929 . S
C528 C520 1.433 . S
C528 N530 1.384 . S
N529 C525 1.427 . S
N529 C526 1.384 . S
N530 C522 1.427 . S
N530 C528 1.384 . S
H531 C537 0.930 . S
H532 C541 0.930 . S
H533 C546 0.929 . S
H534 C544 0.929 . S
H535 C539 0.929 . S
H536 C545 0.929 . S
C537 H531 0.930 . S
C537 C538 1.367 . S
C537 C545 1.378 . S
C538 C537 1.367 . S
C538 C546 1.433 . S
C539 H535 0.929 . S
C539 C541 1.378 . S
C539 C543 1.350 . S
C540 C543 1.463 . S
C540 C545 1.350 . S
C540 N548 1.427 . S
C541 H532 0.930 . S
C541 C539 1.378 . S
C541 C542 1.367 . S
C542 C541 1.367 . S
C542 C544 1.433 . S
C543 C539 1.350 . S
C543 C540 1.463 . S
C543 N547 1.427 . S
C544 H534 0.929 . S
C544 C542 1.433 . S
C544 N547 1.384 . S
C545 H536 0.929 . S
C545 C537 1.378 . S
C545 C540 1.350 . S
C546 H533 0.929 . S
C546 C538 1.433 . S
C546 N548 1.384 . S
N547 C543 1.427 . S
N547 C544 1.384 . S
N548 C540 1.427 . S
N548 C546 1.384 . S
H549 C555 0.930 . S
H550 C559 0.930 . S
H551 C564 0.929 . S
H552 C562 0.929 . S
H553 C557 0.929 . S
H554 C563 0.929 . S
C555 H549 0.930 . S
C555 C556 1.367 . S
C555 C563 1.378 . S
C556 C555 1.367 . S
C556 C564 1.433 . S
C557 H553 0.929 . S
C557 C559 1.378 . S
C557 C561 1.350 . S
C558 C561 1.463 . S
C558 C563 1.350 . S
C558 N566 1.427 . S
C559 H550 0.930 . S
C559 C557 1.378 . S
C559 C560 1.367 . S
C560 C559 1.367 . S
C560 C562 1.433 . S
C561 C557 1.350 . S
C561 C558 1.463 . S
C561 N565 1.427 . S
C562 H552 0.929 . S
C562 C560 1.433 . S
C562 N565 1.384 . S
C563 H554 0.929 . S
C563 C555 1.378 . S
C563 C558 1.350 . S
C564 H551 0.929 . S
C564 C556 1.433 . S
C564 N566 1.384 . S
N565 C561 1.427 . S
N565 C562 1.384 . S
N566 C558 1.427 . S
N566 C564 1.384 . S
H567 C573 0.930 . S
H568 C577 0.930 . S
H569 C582 0.929 . S
H570 C580 0.929 . S
H571 C575 0.929 . S
H572 C581 0.929 . S
C573 H567 0.930 . S
C573 C574 1.367 1_455 S
C573 C581 1.378 . S
C574 C573 1.367 1_655 S
C574 C582 1.433 . S
C575 H571 0.929 . S
C575 C577 1.378 . S
C575 C579 1.350 1_655 S
C576 C579 1.463 . S
C576 C581 1.350 . S
C576 N584 1.427 1_455 S
C577 H568 0.930 . S
C577 C575 1.378 . S
C577 C578 1.367 1_655 S
C578 C577 1.367 1_455 S
C578 C580 1.433 . S
C579 C575 1.350 1_455 S
C579 C576 1.463 . S
C579 N583 1.427 . S
C580 H570 0.929 . S
C580 C578 1.433 . S
C580 N583 1.384 . S
C581 H572 0.929 . S
C581 C573 1.378 . S
C581 C576 1.350 . S
C582 H569 0.929 . S
C582 C574 1.433 . S
C582 N584 1.384 . S
N583 C579 1.427 . S
N583 C580 1.384 . S
N584 C576 1.427 1_655 S
N584 C582 1.384 . S
H585 C591 0.930 . S
H586 C595 0.930 1_565 S
H587 C600 0.929 . S
H588 C598 0.929 . S
H589 C593 0.929 1_565 S
H590 C599 0.929 . S
C591 H585 0.930 . S
C591 C592 1.367 . S
C591 C599 1.378 . S
C592 C591 1.367 . S
C592 C600 1.433 1_545 S
C593 H589 0.929 1_545 S
C593 C595 1.378 . S
C593 C597 1.350 . S
C594 C597 1.463 . S
C594 C599 1.350 . S
C594 N602 1.427 1_545 S
C595 H586 0.930 1_545 S
C595 C593 1.378 . S
C595 C596 1.367 . S
C596 C595 1.367 . S
C596 C598 1.433 . S
C597 C593 1.350 . S
C597 C594 1.463 . S
C597 N601 1.427 . S
C598 H588 0.929 . S
C598 C596 1.433 . S
C598 N601 1.384 . S
C599 H590 0.929 . S
C599 C591 1.378 . S
C599 C594 1.350 . S
C600 H587 0.929 . S
C600 C592 1.433 1_565 S
C600 N602 1.384 . S
N601 C597 1.427 . S
N601 C598 1.384 . S
N602 C594 1.427 1_565 S
N602 C600 1.384 . S
H603 C609 0.930 . S
H604 C613 0.930 . S
H605 C618 0.929 . S
H606 C616 0.929 . S
H607 C611 0.929 . S
H608 C617 0.929 . S
C609 H603 0.930 . S
C609 C610 1.367 . S
C609 C617 1.378 . S
C610 C609 1.367 . S
C610 C618 1.433 . S
C611 H607 0.929 . S
C611 C613 1.378 . S
C611 C615 1.350 . S
C612 C615 1.463 . S
C612 C617 1.350 . S
C612 N620 1.427 . S
C613 H604 0.930 . S
C613 C611 1.378 . S
C613 C614 1.367 . S
C614 C613 1.367 . S
C614 C616 1.433 . S
C615 C611 1.350 . S
C615 C612 1.463 . S
C615 N619 1.427 . S
C616 H606 0.929 . S
C616 C614 1.433 . S
C616 N619 1.384 . S
C617 H608 0.929 . S
C617 C609 1.378 . S
C617 C612 1.350 . S
C618 H605 0.929 . S
C618 C610 1.433 . S
C618 N620 1.384 . S
N619 C615 1.427 . S
N619 C616 1.384 . S
N620 C612 1.427 . S
N620 C618 1.384 . S
H621 C627 0.930 . S
H622 C631 0.930 . S
H623 C636 0.929 . S
H624 C634 0.929 1_655 S
H625 C629 0.929 . S
H626 C635 0.929 . S
C627 H621 0.930 . S
C627 C628 1.367 . S
C627 C635 1.378 . S
C628 C627 1.367 . S
C628 C636 1.433 . S
C629 H625 0.929 . S
C629 C631 1.378 . S
C629 C633 1.350 . S
C630 C633 1.463 . S
C630 C635 1.350 . S
C630 N638 1.427 . S
C631 H622 0.930 . S
C631 C629 1.378 . S
C631 C632 1.367 . S
C632 C631 1.367 . S
C632 C634 1.433 . S
C633 C629 1.350 . S
C633 C630 1.463 . S
C633 N637 1.427 . S
C634 H624 0.929 1_455 S
C634 C632 1.433 . S
C634 N637 1.384 . S
C635 H626 0.929 . S
C635 C627 1.378 . S
C635 C630 1.350 . S
C636 H623 0.929 . S
C636 C628 1.433 . S
C636 N638 1.384 . S
N637 C633 1.427 . S
N637 C634 1.384 . S
N638 C630 1.427 . S
N638 C636 1.384 . S
C434 C286 1.444 . S
C430 C29 1.429 . S
C448 C137 1.466 . S
C452 C356 1.484 . S
C466 C225 1.472 . S
C470 C408 1.489 . S
C484 C49 1.476 . S
C488 C302 1.496 . S
C506 C346 1.456 . S
C502 C117 1.443 . S
C520 C205 1.432 . S
C524 C392 1.448 . S
C542 C339 1.444 . S
C538 C233 1.431 . S
C556 C57 1.439 . S
C560 C399 1.450 . S
C578 C293 1.451 . S
C574 C108 1.434 . S
C596 C355 1.494 . S
C592 C196 1.470 . S
C614 C409 1.491 . S
C610 C20 1.469 . S
C628 C145 1.463 . S
C632 C303 1.483 . S
