# Generated by pormake.
# Topology pth, (4,4)-cn, num edge types: 1
# Building blocks:
#     Node 0, Type 0, BuildingBlock: TATPOV_clean_sbu_0, # of connection points: 4
#     Node 1, Type 0, BuildingBlock: TATPOV_clean_sbu_0, # of connection points: 4
#     Node 2, Type 0, BuildingBlock: TATPOV_clean_sbu_0, # of connection points: 4
#     Node 3, Type 1, BuildingBlock: KOZSID_clean_sbu_0, # of connection points: 4
#     Node 4, Type 1, BuildingBlock: KOZSID_clean_sbu_0, # of connection points: 4
#     Node 5, Type 1, BuildingBlock: KOZSID_clean_sbu_0, # of connection points: 4
#     Edge 6, Type (0, 1), BuildingBlock: OJICUG_clean_linker_0, # of connection points: 2
#     Edge 7, Type (0, 1), BuildingBlock: OJICUG_clean_linker_0, # of connection points: 2
#     Edge 8, Type (0, 1), BuildingBlock: OJICUG_clean_linker_0, # of connection points: 2
#     Edge 9, Type (0, 1), BuildingBlock: OJICUG_clean_linker_0, # of connection points: 2
#     Edge 10, Type (0, 1), BuildingBlock: OJICUG_clean_linker_0, # of connection points: 2
#     Edge 11, Type (0, 1), BuildingBlock: OJICUG_clean_linker_0, # of connection points: 2
#     Edge 12, Type (0, 1), BuildingBlock: OJICUG_clean_linker_0, # of connection points: 2
#     Edge 13, Type (0, 1), BuildingBlock: OJICUG_clean_linker_0, # of connection points: 2
#     Edge 14, Type (0, 1), BuildingBlock: OJICUG_clean_linker_0, # of connection points: 2
#     Edge 15, Type (0, 1), BuildingBlock: OJICUG_clean_linker_0, # of connection points: 2
#     Edge 16, Type (0, 1), BuildingBlock: OJICUG_clean_linker_0, # of connection points: 2
#     Edge 17, Type (0, 1), BuildingBlock: OJICUG_clean_linker_0, # of connection points: 2
# Relax obj value: 0.036
# Max RMSD: 0.169
# Mean RMSD: 0.081
data_MOF--net-pth--node1-TATPOV_clean_sbu_0--node2-KOZSID_clean_sbu_0--edge1-OJICUG_clean_linker_0
_symmetry_space_group_name_H-M    P1
_symmetry_Int_Tables_number       1
_symmetry_cell_setting            triclinic
loop_
_symmetry_equiv_pos_as_xyz
'x, y, z'
_cell_length_a     20.326816
_cell_length_b     20.128403
_cell_length_c     44.649859
_cell_angle_alpha  89.117735
_cell_angle_beta   88.823471
_cell_angle_gamma 121.07897
loop_
_atom_site_label
_atom_site_type_symbol
_atom_site_fract_x
_atom_site_fract_y
_atom_site_fract_z
_atom_type_partial_charge
Zn0 Zn 0.21376 0.04166 0.00331 0.0
Zn1 Zn 0.15156 0.09896 0.03772 0.0
O2 O 0.15332 0.01548 0.06522 0.0
O3 O 0.20532 0.96734 0.03561 0.0
O4 O 0.12851 0.16352 0.06522 0.0
O5 O 0.30934 0.14145 0.99203 0.0
O6 O 0.24975 0.18929 0.01701 0.0
C7 C 0.17419 0.96645 0.06057 0.0
C8 C 0.0667 0.01443 0.98364 0.0
O9 O 0.06471 0.04648 0.00782 0.0
O10 O 0.12421 0.00841 0.97695 0.0
C11 C 0.07855 0.14545 0.08624 0.0
O12 O 0.02765 0.07204 0.09235 0.0
C13 C 0.30562 0.19931 0.00018 0.0
Zn14 Zn 0.21572 0.21264 0.34774 0.0
Zn15 Zn 0.08621 0.13857 0.37763 0.0
O16 O 0.16887 0.15215 0.40821 0.0
O17 O 0.27858 0.22763 0.38356 0.0
O18 O 0.9876 0.10393 0.40169 0.0
O19 O 0.20185 0.29485 0.32973 0.0
O20 O 0.09075 0.23106 0.35446 0.0
C21 C 0.24234 0.18927 0.4071 0.0
C22 C 0.1131 0.0551 0.32852 0.0
O23 O 0.06675 0.0514 0.34911 0.0
O24 O 0.17821 0.11629 0.32428 0.0
C25 C 0.99092 0.14267 0.42446 0.0
O26 O 0.05843 0.19659 0.43358 0.0
C27 C 0.13698 0.28578 0.33638 0.0
Zn28 Zn 0.14021 0.9438 0.74127 0.0
Zn29 Zn 0.09014 0.01727 0.70781 0.0
O30 O 0.16278 0.00229 0.67946 0.0
O31 O 0.20041 0.93637 0.70644 0.0
O32 O 0.03727 0.05225 0.67968 0.0
O33 O 0.03458 0.85987 0.75476 0.0
O34 O 0.99445 0.92437 0.72832 0.0
C35 C 0.20273 0.97036 0.682 0.0
C36 C 0.18723 0.10012 0.76 0.0
O37 O 0.15135 0.10342 0.73744 0.0
O38 O 0.18968 0.0396 0.76573 0.0
C39 C 0.9828 0.06074 0.68927 0.0
O40 O 0.96902 0.05766 0.7183 0.0
C41 C 0.98048 0.86855 0.74622 0.0
C42 C 0.17423 0.72068 0.15715 0.0
C43 C 0.24838 0.77137 0.14586 0.0
C44 C 0.29679 0.76216 0.16373 0.0
C45 C 0.24987 0.70684 0.18486 0.0
N46 N 0.17415 0.67919 0.18129 0.0
Co47 Co 0.08611 0.59903 0.2072 0.0
N48 N 0.15825 0.59812 0.23672 0.0
C49 C 0.23572 0.64355 0.23613 0.0
C50 C 0.26896 0.63424 0.26097 0.0
C51 C 0.20907 0.57877 0.27831 0.0
C52 C 0.14276 0.55696 0.26273 0.0
N53 N 0.99848 0.51611 0.23254 0.0
C54 C 0.99967 0.47535 0.25679 0.0
C55 C 0.92632 0.41756 0.26618 0.0
C56 C 0.87681 0.42165 0.24702 0.0
C57 C 0.92275 0.48114 0.227 0.0
N58 N 0.01433 0.60435 0.17846 0.0
C59 C 0.93659 0.56265 0.18014 0.0
C60 C 0.90311 0.58426 0.15879 0.0
C61 C 0.96302 0.64469 0.14301 0.0
C62 C 0.02977 0.65634 0.15568 0.0
N63 N 0.08756 0.51588 0.18415 0.0
C64 C 0.08605 0.39309 0.15376 0.0
C65 C 0.02024 0.39807 0.15619 0.0
C66 C 0.02234 0.45944 0.17117 0.0
C67 C 0.15302 0.45106 0.16661 0.0
C68 C 0.15245 0.51129 0.18167 0.0
N69 N 0.08383 0.68095 0.23026 0.0
C70 C 0.01289 0.73016 0.25626 0.0
C71 C 0.08085 0.79935 0.26159 0.0
C72 C 0.15035 0.80779 0.25149 0.0
C73 C 0.15054 0.74839 0.23602 0.0
C74 C 0.01564 0.67218 0.24055 0.0
H75 H 0.20535 0.7585 0.22881 0.0
H76 H 0.96181 0.62119 0.23676 0.0
H77 H 0.97014 0.45952 0.17198 0.0
H78 H 0.20502 0.55309 0.1913 0.0
C79 C 0.27568 0.6905 0.21108 0.0
C80 C 0.10647 0.71864 0.14586 0.0
C81 C 0.06908 0.48823 0.27092 0.0
C82 C 0.89698 0.5056 0.20276 0.0
H83 H 0.26625 0.8134 0.12749 0.0
H84 H 0.35899 0.79555 0.16264 0.0
H85 H 0.32956 0.66245 0.26546 0.0
H86 H 0.21374 0.55388 0.29925 0.0
H87 H 0.91046 0.37642 0.28477 0.0
H88 H 0.81482 0.38491 0.24738 0.0
H89 H 0.84239 0.56037 0.1556 0.0
H90 H 0.95825 0.67755 0.12465 0.0
H91 H 0.96732 0.35534 0.14617 0.0
H92 H 0.20546 0.44945 0.16544 0.0
H93 H 0.95773 0.7214 0.26358 0.0
H94 H 0.20465 0.86004 0.2556 0.0
C95 C 0.43727 0.96494 0.57761 0.0
C96 C 0.37995 0.88762 0.58222 0.0
C97 C 0.40175 0.84491 0.56585 0.0
C98 C 0.4705 0.8983 0.55208 0.0
N99 N 0.49356 0.97206 0.55867 0.0
Co100 Co 0.58763 0.06713 0.54248 0.0
N101 N 0.6016 0.00873 0.50963 0.0
C102 C 0.56455 0.93079 0.50798 0.0
C103 C 0.5868 0.90584 0.48363 0.0
C104 C 0.64283 0.97188 0.4692 0.0
C105 C 0.65187 0.03407 0.48567 0.0
N106 N 0.68217 0.16244 0.52641 0.0
C107 C 0.7247 0.17479 0.50081 0.0
C108 C 0.78652 0.25064 0.49863 0.0
C109 C 0.78472 0.28588 0.52432 0.0
C110 C 0.72165 0.23017 0.54057 0.0
N111 N 0.57326 0.12484 0.57525 0.0
C112 C 0.62644 0.19522 0.58474 0.0
C113 C 0.59971 0.22029 0.60779 0.0
C114 C 0.52501 0.16196 0.61318 0.0
C115 C 0.51035 0.10451 0.59298 0.0
N116 N 0.65118 0.04553 0.56862 0.0
C117 C 0.75535 0.04195 0.60796 0.0
C118 C 0.6825 0.02509 0.61835 0.0
C119 C 0.6314 0.02716 0.59836 0.0
C120 C 0.77261 0.05598 0.57714 0.0
C121 C 0.71964 0.0564 0.55799 0.0
N122 N 0.52428 0.09034 0.51693 0.0
C123 C 0.48956 0.18212 0.50012 0.0
C124 C 0.42729 0.12438 0.48489 0.0
C125 C 0.41499 0.04903 0.4858 0.0
C126 C 0.46435 0.03333 0.50181 0.0
C127 C 0.53706 0.16404 0.51585 0.0
H128 H 0.45345 0.97495 0.50223 0.0
H129 H 0.58337 0.20992 0.52763 0.0
H130 H 0.57689 0.01643 0.60721 0.0
H131 H 0.73587 0.06866 0.53474 0.0
C132 C 0.50646 0.88273 0.52875 0.0
C133 C 0.4381 0.0295 0.59265 0.0
C134 C 0.71749 0.11377 0.481 0.0
C135 C 0.6948 0.24104 0.56805 0.0
H136 H 0.32748 0.86438 0.59574 0.0
H137 H 0.3693 0.78275 0.56308 0.0
H138 H 0.56548 0.84659 0.47728 0.0
H139 H 0.67535 0.97304 0.44958 0.0
H140 H 0.83065 0.27643 0.48099 0.0
H141 H 0.82487 0.34491 0.53048 0.0
H142 H 0.62976 0.27569 0.61852 0.0
H143 H 0.48584 0.1617 0.63004 0.0
H144 H 0.66524 0.01148 0.64181 0.0
H145 H 0.82791 0.06966 0.56777 0.0
H146 H 0.50107 0.241 0.50031 0.0
H147 H 0.36825 0.00276 0.47394 0.0
C148 C 0.68641 0.60039 0.81551 0.0
C149 C 0.72666 0.5711 0.80095 0.0
C150 C 0.73343 0.52377 0.82132 0.0
C151 C 0.69648 0.5265 0.8469 0.0
N152 N 0.66583 0.57184 0.84384 0.0
Co153 Co 0.59835 0.5844 0.87336 0.0
N154 N 0.61413 0.52164 0.90417 0.0
C155 C 0.66365 0.49585 0.90249 0.0
C156 C 0.66678 0.46106 0.92864 0.0
C157 C 0.61532 0.46405 0.94792 0.0
C158 C 0.5834 0.50001 0.93218 0.0
N159 N 0.5252 0.59043 0.90234 0.0
C160 C 0.49267 0.5488 0.92822 0.0
C161 C 0.43634 0.56143 0.93973 0.0
C162 C 0.43268 0.61246 0.92018 0.0
C163 C 0.4863 0.62735 0.8978 0.0
N164 N 0.58865 0.65302 0.84305 0.0
C165 C 0.54829 0.68887 0.84643 0.0
C166 C 0.56115 0.74054 0.82336 0.0
C167 C 0.61434 0.73883 0.80456 0.0
C168 C 0.63023 0.68558 0.8172 0.0
N169 N 0.50977 0.49082 0.8572 0.0
C170 C 0.3896 0.36131 0.82995 0.0
C171 C 0.39013 0.43072 0.83132 0.0
C172 C 0.45012 0.49417 0.84505 0.0
C173 C 0.4487 0.35686 0.8435 0.0
C174 C 0.50758 0.42171 0.85703 0.0
N175 N 0.68672 0.67844 0.88948 0.0
C176 C 0.73837 0.80087 0.91411 0.0
C177 C 0.81036 0.80844 0.91504 0.0
C178 C 0.82012 0.751 0.90227 0.0
C179 C 0.75802 0.68696 0.88972 0.0
C180 C 0.67792 0.73618 0.90111 0.0
H181 H 0.76891 0.64472 0.8806 0.0
H182 H 0.6246 0.73415 0.90098 0.0
H183 H 0.44726 0.54547 0.84528 0.0
H184 H 0.55134 0.41498 0.86684 0.0
C185 C 0.69774 0.49565 0.87501 0.0
C186 C 0.68679 0.66894 0.80463 0.0
C187 C 0.51227 0.49505 0.94178 0.0
C188 C 0.50044 0.67376 0.87189 0.0
H189 H 0.75364 0.58753 0.77876 0.0
H190 H 0.7653 0.49465 0.81838 0.0
H191 H 0.69894 0.43272 0.93262 0.0
H192 H 0.59836 0.43728 0.97015 0.0
H193 H 0.40092 0.53567 0.95987 0.0
H194 H 0.3941 0.6344 0.92171 0.0
H195 H 0.53632 0.77659 0.82088 0.0
H196 H 0.63938 0.77343 0.78414 0.0
H197 H 0.34463 0.43632 0.82173 0.0
H198 H 0.45098 0.3043 0.84293 0.0
H199 H 0.72863 0.84461 0.9234 0.0
H200 H 0.87494 0.75416 0.90271 0.0
C201 C 0.14275 0.28468 0.10051 0.0
C202 C 0.08029 0.20794 0.10406 0.0
H203 H 0.19355 0.40283 0.11339 0.0
C204 C 0.02047 0.19217 0.12469 0.0
H205 H 0.19006 0.29899 0.08491 0.0
C206 C 0.02257 0.25208 0.14102 0.0
C207 C 0.0849 0.32885 0.13729 0.0
H208 H 0.9717 0.13375 0.12803 0.0
H209 H 0.97555 0.23826 0.1567 0.0
C210 C 0.14517 0.34428 0.11701 0.0
C211 C 0.8562 0.11589 0.42163 0.0
C212 C 0.92032 0.13356 0.43873 0.0
H213 H 0.74302 0.09968 0.42133 0.0
C214 C 0.91849 0.14771 0.46931 0.0
H215 H 0.85676 0.10626 0.39785 0.0
C216 C 0.85311 0.14217 0.48276 0.0
C217 C 0.78877 0.12444 0.46578 0.0
H218 H 0.96734 0.16209 0.48294 0.0
H219 H 0.85284 0.15145 0.50657 0.0
C220 C 0.79152 0.11271 0.43495 0.0
C221 C 0.83622 0.79947 0.74539 0.0
C222 C 0.90385 0.82156 0.7608 0.0
H223 H 0.71246 0.73204 0.74739 0.0
C224 C 0.89874 0.8014 0.79131 0.0
H225 H 0.83909 0.81548 0.72192 0.0
C226 C 0.82749 0.75759 0.80597 0.0
C227 C 0.75966 0.73099 0.79027 0.0
H228 H 0.95002 0.81944 0.80391 0.0
H229 H 0.82527 0.74094 0.82932 0.0
C230 C 0.7642 0.75311 0.75998 0.0
C231 C 0.12953 0.90382 0.11217 0.0
C232 C 0.15564 0.90321 0.08281 0.0
H233 H 0.09301 0.84474 0.15531 0.0
C234 C 0.16032 0.8388 0.07403 0.0
H235 H 0.12457 0.95213 0.11952 0.0
C236 C 0.14059 0.77719 0.09416 0.0
C237 C 0.11688 0.77907 0.12362 0.0
H238 H 0.17902 0.83564 0.05148 0.0
H239 H 0.14597 0.72895 0.08702 0.0
C240 C 0.11074 0.84229 0.1325 0.0
C241 C 0.36617 0.22985 0.43167 0.0
C242 C 0.2863 0.17863 0.43086 0.0
H243 H 0.47289 0.25237 0.44883 0.0
C244 C 0.252 0.11154 0.44959 0.0
H245 H 0.39449 0.28189 0.41745 0.0
C246 C 0.29737 0.09415 0.46753 0.0
C247 C 0.37772 0.14399 0.46733 0.0
H248 H 0.19071 0.07053 0.44927 0.0
H249 H 0.26973 0.04121 0.48123 0.0
C250 C 0.41122 0.21287 0.44969 0.0
C251 C 0.25562 0.24301 0.76868 0.0
C252 C 0.22986 0.16721 0.77925 0.0
H253 H 0.32777 0.36438 0.77631 0.0
C254 C 0.25083 0.15575 0.80782 0.0
H255 H 0.24039 0.25343 0.74673 0.0
C256 C 0.29997 0.2188 0.82482 0.0
C257 C 0.32973 0.29479 0.81355 0.0
H258 H 0.23079 0.09784 0.81679 0.0
H259 H 0.31602 0.20798 0.84653 0.0
C260 C 0.30548 0.3064 0.78566 0.0
C261 C 0.9233 0.03265 0.63911 0.0
C262 C 0.92776 0.0606 0.66808 0.0
H263 H 0.86375 0.0012 0.59813 0.0
C264 C 0.87519 0.08235 0.67726 0.0
H265 H 0.96212 0.01412 0.63151 0.0
C266 C 0.81932 0.07633 0.65784 0.0
C267 C 0.81394 0.04719 0.62894 0.0
H268 H 0.87719 0.10402 0.69949 0.0
H269 H 0.78092 0.09534 0.66544 0.0
C270 C 0.86671 0.02532 0.61991 0.0
C271 C 0.92505 0.94562 0.97596 0.0
C272 C 0.00015 0.97658 0.96422 0.0
H273 H 0.8052 0.86671 0.96944 0.0
C274 C 0.01132 0.96097 0.93458 0.0
H275 H 0.91495 0.95667 0.99876 0.0
C276 C 0.949 0.90992 0.91789 0.0
C277 C 0.87427 0.87339 0.9305 0.0
H278 H 0.06867 0.98513 0.92478 0.0
H279 H 0.95956 0.89639 0.89556 0.0
C280 C 0.86238 0.89412 0.95919 0.0
C281 C 0.04269 0.91176 0.31986 0.0
C282 C 0.09456 0.98836 0.30979 0.0
H283 H 0.99817 0.7909 0.31248 0.0
C284 C 0.13529 0.00156 0.2824 0.0
H285 H 0.01063 0.90008 0.34091 0.0
C286 C 0.1281 0.93981 0.26626 0.0
C287 C 0.08027 0.86334 0.27717 0.0
H288 H 0.17469 0.06 0.27377 0.0
H289 H 0.16153 0.95207 0.24552 0.0
C290 C 0.03566 0.84949 0.30363 0.0
C291 C 0.26547 0.02111 0.63087 0.0
C292 C 0.25864 0.98047 0.65785 0.0
H293 H 0.32841 0.06871 0.58898 0.0
C294 C 0.31067 0.95537 0.66278 0.0
H295 H 0.22678 0.04181 0.62647 0.0
C296 C 0.36888 0.97173 0.6416 0.0
C297 C 0.37569 0.01246 0.61486 0.0
H298 H 0.30775 0.92464 0.68336 0.0
H299 H 0.40901 0.95287 0.64614 0.0
C300 C 0.32365 0.03696 0.60952 0.0
C301 C 0.37568 0.34517 0.00012 0.0
C302 C 0.35831 0.27616 0.98603 0.0
H303 H 0.43981 0.47005 0.99718 0.0
C304 C 0.38691 0.28021 0.95677 0.0
H305 H 0.35349 0.34334 0.02258 0.0
C306 C 0.43262 0.35155 0.94198 0.0
C307 C 0.45261 0.42073 0.95633 0.0
H308 H 0.37301 0.228 0.94505 0.0
H309 H 0.45448 0.35286 0.9195 0.0
C310 C 0.42371 0.41729 0.9855 0.0
C311 C 0.13213 0.34813 0.2891 0.0
C312 C 0.11134 0.33132 0.31964 0.0
H313 H 0.13068 0.40799 0.24941 0.0
C314 C 0.06612 0.35739 0.33325 0.0
H315 H 0.16543 0.32709 0.27793 0.0
C316 C 0.0471 0.40487 0.3169 0.0
C317 C 0.07113 0.42421 0.28668 0.0
H318 H 0.04877 0.34416 0.35673 0.0
H319 H 0.01699 0.42932 0.3281 0.0
C320 C 0.11134 0.39326 0.27268 0.0
loop_
_geom_bond_atom_site_label_1
_geom_bond_atom_site_label_2
_geom_bond_distance
_geom_bond_site_symmetry_2
_ccdc_geom_bond_type
Zn0 O3 2.031 1_545 S
Zn0 O5 2.049 1_554 S
Zn0 O10 2.067 1_544 S
Zn1 O2 1.962 . S
Zn1 O4 1.986 . S
Zn1 O6 1.996 . S
Zn1 O9 1.943 . S
O2 Zn1 1.962 . S
O2 C7 1.254 1_545 S
O3 Zn0 2.031 1_565 S
O3 C7 1.269 . S
O4 Zn1 1.986 . S
O4 C11 1.262 . S
O5 Zn0 2.049 1_556 S
O5 C13 1.260 1_556 S
O6 Zn1 1.996 . S
O6 C13 1.257 . S
C7 O2 1.254 1_565 S
C7 O3 1.269 . S
C8 O9 1.249 . S
C8 O10 1.271 1_544 S
O9 Zn1 1.943 . S
O9 C8 1.249 . S
O10 Zn0 2.067 1_566 S
O10 C8 1.271 1_566 S
C11 O4 1.262 . S
C11 O12 1.232 . S
O12 C11 1.232 . S
C13 O5 1.260 1_554 S
C13 O6 1.257 . S
Zn14 O17 2.031 . S
Zn14 O19 2.049 . S
Zn14 O24 2.067 . S
Zn15 O16 1.962 . S
Zn15 O18 1.986 1_455 S
Zn15 O20 1.996 . S
Zn15 O23 1.943 . S
O16 Zn15 1.962 . S
O16 C21 1.254 . S
O17 Zn14 2.031 . S
O17 C21 1.269 . S
O18 Zn15 1.986 1_655 S
O18 C25 1.262 . S
O19 Zn14 2.049 . S
O19 C27 1.260 . S
O20 Zn15 1.996 . S
O20 C27 1.257 . S
C21 O16 1.254 . S
C21 O17 1.269 . S
C22 O23 1.249 . S
C22 O24 1.270 . S
O23 Zn15 1.943 . S
O23 C22 1.249 . S
O24 Zn14 2.067 . S
O24 C22 1.270 . S
C25 O18 1.262 . S
C25 O26 1.232 . S
O26 C25 1.232 . S
C27 O19 1.260 . S
C27 O20 1.257 . S
Zn28 O31 2.031 1_565 S
Zn28 O33 2.049 . S
Zn28 O38 2.067 1_565 S
Zn29 O30 1.962 . S
Zn29 O32 1.986 1_455 S
Zn29 O34 1.996 1_545 S
Zn29 O37 1.943 . S
O30 Zn29 1.962 . S
O30 C35 1.254 . S
O31 Zn28 2.031 1_545 S
O31 C35 1.269 . S
O32 Zn29 1.986 1_655 S
O32 C39 1.262 . S
O33 Zn28 2.049 . S
O33 C41 1.260 . S
O34 Zn29 1.996 1_565 S
O34 C41 1.257 . S
C35 O30 1.254 . S
C35 O31 1.269 . S
C36 O37 1.249 . S
C36 O38 1.270 . S
O37 Zn29 1.943 . S
O37 C36 1.249 . S
O38 Zn28 2.067 1_545 S
O38 C36 1.270 . S
C39 O32 1.262 . S
C39 O40 1.232 1_655 S
O40 C39 1.232 1_455 S
C41 O33 1.260 . S
C41 O34 1.257 . S
C42 C43 1.443 . S
C42 N46 1.376 . S
C42 C80 1.389 . S
C43 C42 1.443 . S
C43 C44 1.340 . S
C43 H83 0.951 . S
C44 C43 1.340 . S
C44 C45 1.439 . S
C44 H84 0.950 . S
C45 C44 1.439 . S
C45 N46 1.374 . S
C45 C79 1.395 . S
N46 C42 1.376 . S
N46 C45 1.374 . S
N46 Co47 2.008 . S
Co47 N46 2.008 . S
Co47 N48 1.995 . S
Co47 N53 2.008 1_455 S
Co47 N58 1.995 1_455 S
Co47 N63 2.282 . S
Co47 N69 2.282 . S
N48 Co47 1.995 . S
N48 C49 1.376 . S
N48 C52 1.383 . S
C49 N48 1.376 . S
C49 C50 1.446 . S
C49 C79 1.391 . S
C50 C49 1.446 . S
C50 C51 1.339 . S
C50 H85 0.949 . S
C51 C50 1.339 . S
C51 C52 1.439 . S
C51 H86 0.950 . S
C52 N48 1.383 . S
C52 C51 1.439 . S
C52 C81 1.392 . S
N53 Co47 2.008 1_655 S
N53 C54 1.376 . S
N53 C57 1.374 . S
C54 N53 1.376 . S
C54 C55 1.443 . S
C54 C81 1.389 1_655 S
C55 C54 1.443 . S
C55 C56 1.340 . S
C55 H87 0.951 . S
C56 C55 1.340 . S
C56 C57 1.439 . S
C56 H88 0.950 . S
C57 N53 1.374 . S
C57 C56 1.439 . S
C57 C82 1.395 . S
N58 Co47 1.995 1_655 S
N58 C59 1.376 . S
N58 C62 1.383 1_655 S
C59 N58 1.376 . S
C59 C60 1.446 . S
C59 C82 1.391 . S
C60 C59 1.446 . S
C60 C61 1.339 . S
C60 H89 0.949 . S
C61 C60 1.339 . S
C61 C62 1.439 1_655 S
C61 H90 0.950 . S
C62 N58 1.383 1_455 S
C62 C61 1.439 1_455 S
C62 C80 1.392 . S
N63 Co47 2.282 . S
N63 C66 1.332 . S
N63 C68 1.332 . S
C64 C65 1.386 . S
C64 C67 1.388 . S
C65 C64 1.386 . S
C65 C66 1.382 . S
C65 H91 0.950 1_455 S
C66 N63 1.332 . S
C66 C65 1.382 . S
C66 H77 0.952 1_455 S
C67 C64 1.388 . S
C67 C68 1.382 . S
C67 H92 0.950 . S
C68 N63 1.332 . S
C68 C67 1.382 . S
C68 H78 0.948 . S
N69 Co47 2.282 . S
N69 C73 1.332 . S
N69 C74 1.332 1_455 S
C70 C71 1.388 1_655 S
C70 C74 1.382 . S
C70 H93 0.950 . S
C71 C70 1.388 1_455 S
C71 C72 1.386 . S
C72 C71 1.386 . S
C72 C73 1.382 . S
C72 H94 0.950 . S
C73 N69 1.332 . S
C73 C72 1.382 . S
C73 H75 0.952 . S
C74 N69 1.332 1_655 S
C74 C70 1.382 . S
C74 H76 0.948 . S
H75 C73 0.952 . S
H76 C74 0.948 . S
H77 C66 0.952 1_655 S
H78 C68 0.948 . S
C79 C45 1.395 . S
C79 C49 1.391 . S
C80 C42 1.389 . S
C80 C62 1.392 . S
C81 C52 1.392 . S
C81 C54 1.389 1_455 S
C82 C57 1.395 . S
C82 C59 1.391 . S
H83 C43 0.951 . S
H84 C44 0.950 . S
H85 C50 0.949 . S
H86 C51 0.950 . S
H87 C55 0.951 . S
H88 C56 0.950 . S
H89 C60 0.949 . S
H90 C61 0.950 . S
H91 C65 0.950 1_655 S
H92 C67 0.950 . S
H93 C70 0.950 . S
H94 C72 0.950 . S
C95 C96 1.443 1_545 S
C95 N99 1.376 . S
C95 C133 1.389 . S
C96 C95 1.443 1_565 S
C96 C97 1.340 . S
C96 H136 0.951 . S
C97 C96 1.340 . S
C97 C98 1.439 . S
C97 H137 0.950 . S
C98 C97 1.439 . S
C98 N99 1.374 1_565 S
C98 C132 1.395 . S
N99 C95 1.376 . S
N99 C98 1.374 1_545 S
N99 Co100 2.008 . S
Co100 N99 2.008 . S
Co100 N101 1.995 . S
Co100 N106 2.008 . S
Co100 N111 1.995 . S
Co100 N116 2.282 . S
Co100 N122 2.282 . S
N101 Co100 1.995 . S
N101 C102 1.376 1_545 S
N101 C105 1.383 . S
C102 N101 1.376 1_565 S
C102 C103 1.446 . S
C102 C132 1.391 . S
C103 C102 1.446 . S
C103 C104 1.339 . S
C103 H138 0.949 . S
C104 C103 1.339 . S
C104 C105 1.439 1_565 S
C104 H139 0.950 . S
C105 N101 1.383 . S
C105 C104 1.439 1_545 S
C105 C134 1.392 . S
N106 Co100 2.008 . S
N106 C107 1.376 . S
N106 C110 1.374 . S
C107 N106 1.376 . S
C107 C108 1.443 . S
C107 C134 1.389 . S
C108 C107 1.443 . S
C108 C109 1.340 . S
C108 H140 0.951 . S
C109 C108 1.340 . S
C109 C110 1.439 . S
C109 H141 0.950 . S
C110 N106 1.374 . S
C110 C109 1.439 . S
C110 C135 1.395 . S
N111 Co100 1.995 . S
N111 C112 1.376 . S
N111 C115 1.383 . S
C112 N111 1.376 . S
C112 C113 1.446 . S
C112 C135 1.391 . S
C113 C112 1.446 . S
C113 C114 1.339 . S
C113 H142 0.949 . S
C114 C113 1.339 . S
C114 C115 1.439 . S
C114 H143 0.950 . S
C115 N111 1.383 . S
C115 C114 1.439 . S
C115 C133 1.392 . S
N116 Co100 2.282 . S
N116 C119 1.332 . S
N116 C121 1.332 . S
C117 C118 1.386 . S
C117 C120 1.388 . S
C118 C117 1.386 . S
C118 C119 1.382 . S
C118 H144 0.950 . S
C119 N116 1.332 . S
C119 C118 1.382 . S
C119 H130 0.952 . S
C120 C117 1.388 . S
C120 C121 1.382 . S
C120 H145 0.950 1_545 S
C121 N116 1.332 . S
C121 C120 1.382 . S
C121 H131 0.948 1_545 S
N122 Co100 2.282 . S
N122 C126 1.332 . S
N122 C127 1.332 . S
C123 C124 1.388 . S
C123 C127 1.382 . S
C123 H146 0.950 . S
C124 C123 1.388 . S
C124 C125 1.386 . S
C125 C124 1.386 . S
C125 C126 1.382 . S
C125 H147 0.950 . S
C126 N122 1.332 . S
C126 C125 1.382 . S
C126 H128 0.952 . S
C127 N122 1.332 . S
C127 C123 1.382 . S
C127 H129 0.948 . S
H128 C126 0.952 . S
H129 C127 0.948 . S
H130 C119 0.952 . S
H131 C121 0.948 1_565 S
C132 C98 1.395 . S
C132 C102 1.391 . S
C133 C95 1.389 . S
C133 C115 1.392 . S
C134 C105 1.392 . S
C134 C107 1.389 . S
C135 C110 1.395 . S
C135 C112 1.391 . S
H136 C96 0.951 . S
H137 C97 0.950 . S
H138 C103 0.949 . S
H139 C104 0.950 . S
H140 C108 0.951 . S
H141 C109 0.950 . S
H142 C113 0.949 . S
H143 C114 0.950 . S
H144 C118 0.950 . S
H145 C120 0.950 1_565 S
H146 C123 0.950 . S
H147 C125 0.950 . S
C148 C149 1.443 . S
C148 N152 1.376 . S
C148 C186 1.389 . S
C149 C148 1.443 . S
C149 C150 1.340 . S
C149 H189 0.951 . S
C150 C149 1.340 . S
C150 C151 1.439 . S
C150 H190 0.950 . S
C151 C150 1.439 . S
C151 N152 1.374 . S
C151 C185 1.395 . S
N152 C148 1.376 . S
N152 C151 1.374 . S
N152 Co153 2.008 . S
Co153 N152 2.008 . S
Co153 N154 1.995 . S
Co153 N159 2.008 . S
Co153 N164 1.995 . S
Co153 N169 2.282 . S
Co153 N175 2.282 . S
N154 Co153 1.995 . S
N154 C155 1.376 . S
N154 C158 1.383 . S
C155 N154 1.376 . S
C155 C156 1.446 . S
C155 C185 1.391 . S
C156 C155 1.446 . S
C156 C157 1.339 . S
C156 H191 0.949 . S
C157 C156 1.339 . S
C157 C158 1.439 . S
C157 H192 0.950 . S
C158 N154 1.383 . S
C158 C157 1.439 . S
C158 C187 1.392 . S
N159 Co153 2.008 . S
N159 C160 1.376 . S
N159 C163 1.374 . S
C160 N159 1.376 . S
C160 C161 1.443 . S
C160 C187 1.389 . S
C161 C160 1.443 . S
C161 C162 1.340 . S
C161 H193 0.951 . S
C162 C161 1.340 . S
C162 C163 1.439 . S
C162 H194 0.950 . S
C163 N159 1.374 . S
C163 C162 1.439 . S
C163 C188 1.395 . S
N164 Co153 1.995 . S
N164 C165 1.376 . S
N164 C168 1.383 . S
C165 N164 1.376 . S
C165 C166 1.446 . S
C165 C188 1.391 . S
C166 C165 1.446 . S
C166 C167 1.339 . S
C166 H195 0.949 . S
C167 C166 1.339 . S
C167 C168 1.439 . S
C167 H196 0.950 . S
C168 N164 1.383 . S
C168 C167 1.439 . S
C168 C186 1.392 . S
N169 Co153 2.282 . S
N169 C172 1.332 . S
N169 C174 1.332 . S
C170 C171 1.386 . S
C170 C173 1.388 . S
C171 C170 1.386 . S
C171 C172 1.382 . S
C171 H197 0.950 . S
C172 N169 1.332 . S
C172 C171 1.382 . S
C172 H183 0.952 . S
C173 C170 1.388 . S
C173 C174 1.382 . S
C173 H198 0.950 . S
C174 N169 1.332 . S
C174 C173 1.382 . S
C174 H184 0.948 . S
N175 Co153 2.282 . S
N175 C179 1.332 . S
N175 C180 1.332 . S
C176 C177 1.388 . S
C176 C180 1.382 . S
C176 H199 0.950 . S
C177 C176 1.388 . S
C177 C178 1.386 . S
C178 C177 1.386 . S
C178 C179 1.382 . S
C178 H200 0.950 . S
C179 N175 1.332 . S
C179 C178 1.382 . S
C179 H181 0.952 . S
C180 N175 1.332 . S
C180 C176 1.382 . S
C180 H182 0.948 . S
H181 C179 0.952 . S
H182 C180 0.948 . S
H183 C172 0.952 . S
H184 C174 0.948 . S
C185 C151 1.395 . S
C185 C155 1.391 . S
C186 C148 1.389 . S
C186 C168 1.392 . S
C187 C158 1.392 . S
C187 C160 1.389 . S
C188 C163 1.395 . S
C188 C165 1.391 . S
H189 C149 0.951 . S
H190 C150 0.950 . S
H191 C156 0.949 . S
H192 C157 0.950 . S
H193 C161 0.951 . S
H194 C162 0.950 . S
H195 C166 0.949 . S
H196 C167 0.950 . S
H197 C171 0.950 . S
H198 C173 0.950 . S
H199 C176 0.950 . S
H200 C178 0.950 . S
C201 C202 1.387 . S
C201 H205 0.950 . S
C201 C210 1.390 . S
C202 C201 1.387 . S
C202 C204 1.387 . S
H203 C210 0.950 . S
C204 C202 1.387 . S
C204 C206 1.390 . S
C204 H208 0.950 . S
H205 C201 0.950 . S
C206 C204 1.390 . S
C206 C207 1.387 . S
C206 H209 0.950 . S
C207 C206 1.387 . S
C207 C210 1.387 . S
H208 C204 0.950 . S
H209 C206 0.950 . S
C210 C201 1.390 . S
C210 H203 0.950 . S
C210 C207 1.387 . S
C211 C212 1.387 . S
C211 H215 0.950 . S
C211 C220 1.390 . S
C212 C211 1.387 . S
C212 C214 1.387 . S
H213 C220 0.950 . S
C214 C212 1.387 . S
C214 C216 1.390 . S
C214 H218 0.950 . S
H215 C211 0.950 . S
C216 C214 1.390 . S
C216 C217 1.387 . S
C216 H219 0.950 . S
C217 C216 1.387 . S
C217 C220 1.387 . S
H218 C214 0.950 . S
H219 C216 0.950 . S
C220 C211 1.390 . S
C220 H213 0.950 . S
C220 C217 1.387 . S
C221 C222 1.387 . S
C221 H225 0.950 . S
C221 C230 1.390 . S
C222 C221 1.387 . S
C222 C224 1.387 . S
H223 C230 0.950 . S
C224 C222 1.387 . S
C224 C226 1.390 . S
C224 H228 0.950 1_655 S
H225 C221 0.950 . S
C226 C224 1.390 . S
C226 C227 1.387 . S
C226 H229 0.950 . S
C227 C226 1.387 . S
C227 C230 1.387 . S
H228 C224 0.950 1_455 S
H229 C226 0.950 . S
C230 C221 1.390 . S
C230 H223 0.950 . S
C230 C227 1.387 . S
C231 C232 1.387 . S
C231 H235 0.950 . S
C231 C240 1.390 . S
C232 C231 1.387 . S
C232 C234 1.387 . S
H233 C240 0.950 1_655 S
C234 C232 1.387 . S
C234 C236 1.390 . S
C234 H238 0.950 . S
H235 C231 0.950 . S
C236 C234 1.390 . S
C236 C237 1.387 . S
C236 H239 0.950 . S
C237 C236 1.387 . S
C237 C240 1.387 . S
H238 C234 0.950 . S
H239 C236 0.950 . S
C240 C231 1.390 . S
C240 H233 0.950 1_455 S
C240 C237 1.387 . S
C241 C242 1.387 . S
C241 H245 0.950 . S
C241 C250 1.390 . S
C242 C241 1.387 . S
C242 C244 1.387 . S
H243 C250 0.950 . S
C244 C242 1.387 . S
C244 C246 1.390 . S
C244 H248 0.950 . S
H245 C241 0.950 . S
C246 C244 1.390 . S
C246 C247 1.387 . S
C246 H249 0.950 . S
C247 C246 1.387 . S
C247 C250 1.387 . S
H248 C244 0.950 . S
H249 C246 0.950 . S
C250 C241 1.390 . S
C250 H243 0.950 . S
C250 C247 1.387 . S
C251 C252 1.387 . S
C251 H255 0.950 . S
C251 C260 1.390 . S
C252 C251 1.387 . S
C252 C254 1.387 . S
H253 C260 0.950 . S
C254 C252 1.387 . S
C254 C256 1.390 . S
C254 H258 0.950 . S
H255 C251 0.950 . S
C256 C254 1.390 . S
C256 C257 1.387 . S
C256 H259 0.950 . S
C257 C256 1.387 . S
C257 C260 1.387 . S
H258 C254 0.950 . S
H259 C256 0.950 . S
C260 C251 1.390 . S
C260 H253 0.950 . S
C260 C257 1.387 . S
C261 C262 1.387 . S
C261 H265 0.950 1_545 S
C261 C270 1.390 . S
C262 C261 1.387 . S
C262 C264 1.387 . S
H263 C270 0.950 1_565 S
C264 C262 1.387 . S
C264 C266 1.390 . S
C264 H268 0.950 . S
H265 C261 0.950 1_565 S
C266 C264 1.390 . S
C266 C267 1.387 . S
C266 H269 0.950 . S
C267 C266 1.387 . S
C267 C270 1.387 . S
H268 C264 0.950 . S
H269 C266 0.950 . S
C270 C261 1.390 . S
C270 H263 0.950 1_545 S
C270 C267 1.387 . S
C271 C272 1.387 1_554 S
C271 H275 0.950 . S
C271 C280 1.390 1_554 S
C272 C271 1.387 1_556 S
C272 C274 1.387 . S
H273 C280 0.950 . S
C274 C272 1.387 . S
C274 C276 1.390 . S
C274 H278 0.950 1_665 S
H275 C271 0.950 . S
C276 C274 1.390 . S
C276 C277 1.387 . S
C276 H279 0.950 . S
C277 C276 1.387 . S
C277 C280 1.387 . S
H278 C274 0.950 1_445 S
H279 C276 0.950 . S
C280 C271 1.390 1_556 S
C280 H273 0.950 . S
C280 C277 1.387 . S
C281 C282 1.387 1_655 S
C281 H285 0.950 . S
C281 C290 1.390 . S
C282 C281 1.387 1_455 S
C282 C284 1.387 . S
H283 C290 0.950 . S
C284 C282 1.387 . S
C284 C286 1.390 . S
C284 H288 0.950 1_565 S
H285 C281 0.950 . S
C286 C284 1.390 . S
C286 C287 1.387 . S
C286 H289 0.950 . S
C287 C286 1.387 . S
C287 C290 1.387 1_455 S
H288 C284 0.950 1_545 S
H289 C286 0.950 . S
C290 C281 1.390 . S
C290 H283 0.950 . S
C290 C287 1.387 1_655 S
C291 C292 1.387 1_565 S
C291 H295 0.950 . S
C291 C300 1.390 1_565 S
C292 C291 1.387 1_545 S
C292 C294 1.387 . S
H293 C300 0.950 1_565 S
C294 C292 1.387 . S
C294 C296 1.390 . S
C294 H298 0.950 . S
H295 C291 0.950 . S
C296 C294 1.390 . S
C296 C297 1.387 . S
C296 H299 0.950 . S
C297 C296 1.387 . S
C297 C300 1.387 . S
H298 C294 0.950 . S
H299 C296 0.950 . S
C300 C291 1.390 1_545 S
C300 H293 0.950 1_545 S
C300 C297 1.387 . S
C301 C302 1.387 . S
C301 H305 0.950 1_556 S
C301 C310 1.390 . S
C302 C301 1.387 . S
C302 C304 1.387 . S
H303 C310 0.950 . S
C304 C302 1.387 . S
C304 C306 1.390 . S
C304 H308 0.950 . S
H305 C301 0.950 1_554 S
C306 C304 1.390 . S
C306 C307 1.387 . S
C306 H309 0.950 . S
C307 C306 1.387 . S
C307 C310 1.387 . S
H308 C304 0.950 . S
H309 C306 0.950 . S
C310 C301 1.390 . S
C310 H303 0.950 . S
C310 C307 1.387 . S
C311 C312 1.387 . S
C311 H315 0.950 . S
C311 C320 1.390 . S
C312 C311 1.387 . S
C312 C314 1.387 . S
H313 C320 0.950 . S
C314 C312 1.387 . S
C314 C316 1.390 . S
C314 H318 0.950 . S
H315 C311 0.950 . S
C316 C314 1.390 . S
C316 C317 1.387 . S
C316 H319 0.950 . S
C317 C316 1.387 . S
C317 C320 1.387 . S
H318 C314 0.950 . S
H319 C316 0.950 . S
C320 C311 1.390 . S
C320 H313 0.950 . S
C320 C317 1.387 . S
C207 C64 1.384 . S
C202 C11 1.369 . S
C212 C25 1.431 . S
C217 C134 1.455 . S
C222 C41 1.416 1_655 S
C227 C186 1.467 . S
C232 C7 1.425 . S
C237 C80 1.421 . S
C247 C124 1.461 . S
C242 C21 1.459 . S
C252 C36 1.420 . S
C257 C170 1.490 . S
C267 C117 1.433 . S
C262 C39 1.418 . S
C272 C8 1.418 1_666 S
C277 C177 1.482 . S
C287 C71 1.525 . S
C282 C22 1.463 1_565 S
C297 C133 1.473 . S
C292 C35 1.473 . S
C307 C187 1.460 . S
C302 C13 1.407 1_556 S
C312 C27 1.491 . S
C317 C81 1.520 . S
