# Generated by pormake.
# Topology zzz, (3,6)-cn, num edge types: 1
# Building blocks:
#     Node 0, Type 0, BuildingBlock: OLANEW_clean_sbu_2, # of connection points: 3
#     Node 1, Type 0, BuildingBlock: OLANEW_clean_sbu_2, # of connection points: 3
#     Node 2, Type 0, BuildingBlock: OLANEW_clean_sbu_2, # of connection points: 3
#     Node 3, Type 0, BuildingBlock: OLANEW_clean_sbu_2, # of connection points: 3
#     Node 4, Type 0, BuildingBlock: OLANEW_clean_sbu_2, # of connection points: 3
#     Node 5, Type 0, BuildingBlock: OLANEW_clean_sbu_2, # of connection points: 3
#     Node 6, Type 0, BuildingBlock: OLANEW_clean_sbu_2, # of connection points: 3
#     Node 7, Type 0, BuildingBlock: OLANEW_clean_sbu_2, # of connection points: 3
#     Node 8, Type 1, BuildingBlock: GEDQOX_clean_sbu_0, # of connection points: 6
#     Node 9, Type 1, BuildingBlock: GEDQOX_clean_sbu_0, # of connection points: 6
#     Node 10, Type 1, BuildingBlock: GEDQOX_clean_sbu_0, # of connection points: 6
#     Node 11, Type 1, BuildingBlock: GEDQOX_clean_sbu_0, # of connection points: 6
#     Edge 12, Type (0, 1), BuildingBlock: UVAHIK_clean_linker_0, # of connection points: 2
#     Edge 13, Type (0, 1), BuildingBlock: UVAHIK_clean_linker_0, # of connection points: 2
#     Edge 14, Type (0, 1), BuildingBlock: UVAHIK_clean_linker_0, # of connection points: 2
#     Edge 15, Type (0, 1), BuildingBlock: UVAHIK_clean_linker_0, # of connection points: 2
#     Edge 16, Type (0, 1), BuildingBlock: UVAHIK_clean_linker_0, # of connection points: 2
#     Edge 17, Type (0, 1), BuildingBlock: UVAHIK_clean_linker_0, # of connection points: 2
#     Edge 18, Type (0, 1), BuildingBlock: UVAHIK_clean_linker_0, # of connection points: 2
#     Edge 19, Type (0, 1), BuildingBlock: UVAHIK_clean_linker_0, # of connection points: 2
#     Edge 20, Type (0, 1), BuildingBlock: UVAHIK_clean_linker_0, # of connection points: 2
#     Edge 21, Type (0, 1), BuildingBlock: UVAHIK_clean_linker_0, # of connection points: 2
#     Edge 22, Type (0, 1), BuildingBlock: UVAHIK_clean_linker_0, # of connection points: 2
#     Edge 23, Type (0, 1), BuildingBlock: UVAHIK_clean_linker_0, # of connection points: 2
#     Edge 24, Type (0, 1), BuildingBlock: UVAHIK_clean_linker_0, # of connection points: 2
#     Edge 25, Type (0, 1), BuildingBlock: UVAHIK_clean_linker_0, # of connection points: 2
#     Edge 26, Type (0, 1), BuildingBlock: UVAHIK_clean_linker_0, # of connection points: 2
#     Edge 27, Type (0, 1), BuildingBlock: UVAHIK_clean_linker_0, # of connection points: 2
#     Edge 28, Type (0, 1), BuildingBlock: UVAHIK_clean_linker_0, # of connection points: 2
#     Edge 29, Type (0, 1), BuildingBlock: UVAHIK_clean_linker_0, # of connection points: 2
#     Edge 30, Type (0, 1), BuildingBlock: UVAHIK_clean_linker_0, # of connection points: 2
#     Edge 31, Type (0, 1), BuildingBlock: UVAHIK_clean_linker_0, # of connection points: 2
#     Edge 32, Type (0, 1), BuildingBlock: UVAHIK_clean_linker_0, # of connection points: 2
#     Edge 33, Type (0, 1), BuildingBlock: UVAHIK_clean_linker_0, # of connection points: 2
#     Edge 34, Type (0, 1), BuildingBlock: UVAHIK_clean_linker_0, # of connection points: 2
#     Edge 35, Type (0, 1), BuildingBlock: UVAHIK_clean_linker_0, # of connection points: 2
# Relax obj value: 0.142
# Max RMSD: 0.214
# Mean RMSD: 0.108
data_MOF--net-zzz--node1-OLANEW_clean_sbu_2--node2-GEDQOX_clean_sbu_0--edge1-UVAHIK_clean_linker_0
_symmetry_space_group_name_H-M    P1
_symmetry_Int_Tables_number       1
_symmetry_cell_setting            triclinic
loop_
_symmetry_equiv_pos_as_xyz
'x, y, z'
_cell_length_a     73.328629
_cell_length_b     70.958098
_cell_length_c     23.153351
_cell_angle_alpha  82.843012
_cell_angle_beta   90.207843
_cell_angle_gamma 100.35475
loop_
_atom_site_label
_atom_site_type_symbol
_atom_site_fract_x
_atom_site_fract_y
_atom_site_fract_z
_atom_type_partial_charge
O0 O 0.76859 0.42231 0.92811 0.0
Cd1 Cd 0.73677 0.40802 0.96051 0.0
O2 O 0.77379 0.42466 0.02035 0.0
Cd3 Cd 0.79127 0.43358 0.09235 0.0
O4 O 0.80982 0.44491 0.15871 0.0
C5 C 0.8249 0.45636 0.14343 0.0
O6 O 0.82902 0.46103 0.0877 0.0
C7 C 0.77988 0.42664 0.96817 0.0
C8 C 0.70934 0.43034 0.93566 0.0
O9 O 0.71939 0.4321 0.98079 0.0
O10 O 0.71269 0.4185 0.90123 0.0
O11 O 0.9278 0.76008 0.96593 0.0
Cd12 Cd 0.9121 0.72688 0.99464 0.0
O13 O 0.93098 0.76257 0.05883 0.0
Cd14 Cd 0.93999 0.77669 0.13556 0.0
O15 O 0.9446 0.79653 0.20113 0.0
C16 C 0.95809 0.81068 0.19542 0.0
O17 O 0.96954 0.81278 0.15061 0.0
C18 C 0.93334 0.7703 0.00609 0.0
C19 C 0.9329 0.69946 0.97063 0.0
O20 O 0.92118 0.705 0.93407 0.0
O21 O 0.93491 0.70705 0.0182 0.0
O22 O 0.72625 0.95867 0.84669 0.0
Cd23 Cd 0.74656 0.9348 0.8545 0.0
O24 O 0.72219 0.95522 0.94133 0.0
Cd25 Cd 0.71164 0.95979 0.02606 0.0
O26 O 0.69653 0.96061 0.10666 0.0
C27 C 0.68731 0.97396 0.1106 0.0
O28 O 0.68738 0.98743 0.06612 0.0
C29 C 0.71862 0.9631 0.89106 0.0
C30 C 0.78381 0.95133 0.86115 0.0
O31 O 0.77607 0.94992 0.81177 0.0
O32 O 0.77388 0.94504 0.90735 0.0
O33 O 0.60367 0.7834 0.16294 0.0
Cd34 Cd 0.62081 0.81386 0.18843 0.0
O35 O 0.59579 0.77524 0.25501 0.0
Cd36 Cd 0.58154 0.75631 0.32897 0.0
O37 O 0.57227 0.7334 0.39983 0.0
C38 C 0.58344 0.72196 0.41442 0.0
O39 O 0.59954 0.7248 0.38693 0.0
C40 C 0.59523 0.77113 0.20303 0.0
C41 C 0.60299 0.84413 0.1468 0.0
O42 O 0.61536 0.83914 0.11587 0.0
O43 O 0.59918 0.83487 0.19772 0.0
O44 O 0.25713 0.60001 0.71949 0.0
Cd45 Cd 0.28975 0.61412 0.69778 0.0
O46 O 0.25486 0.58192 0.64839 0.0
Cd47 Cd 0.23803 0.56349 0.59161 0.0
O48 O 0.21826 0.54864 0.53394 0.0
C49 C 0.22016 0.55312 0.47913 0.0
O50 O 0.23428 0.56635 0.45833 0.0
C51 C 0.24744 0.5879 0.69051 0.0
C52 C 0.31543 0.58946 0.71772 0.0
O53 O 0.30988 0.59761 0.75909 0.0
O54 O 0.30841 0.59249 0.66736 0.0
O55 O 0.10867 0.26079 0.71432 0.0
Cd56 Cd 0.12758 0.29308 0.70406 0.0
O57 O 0.1073 0.26086 0.61971 0.0
Cd58 Cd 0.09872 0.24943 0.53823 0.0
O59 O 0.09308 0.23056 0.47015 0.0
C60 C 0.07754 0.21927 0.46941 0.0
O61 O 0.06481 0.21964 0.50884 0.0
C62 C 0.10313 0.2522 0.67078 0.0
C63 C 0.10631 0.32136 0.7143 0.0
O64 O 0.11027 0.31707 0.66423 0.0
O65 O 0.11239 0.31226 0.75948 0.0
O66 O 0.27436 0.95872 0.69152 0.0
Cd67 Cd 0.24503 0.95133 0.6418 0.0
O68 O 0.28415 0.98161 0.62013 0.0
Cd69 Cd 0.30579 0.00226 0.56927 0.0
O70 O 0.3276 0.01859 0.50918 0.0
C71 C 0.32383 0.02202 0.4557 0.0
O72 O 0.30686 0.01608 0.43882 0.0
C73 C 0.28714 0.97195 0.66817 0.0
C74 C 0.21693 0.96876 0.67991 0.0
O75 O 0.21956 0.95233 0.70487 0.0
O76 O 0.22784 0.97712 0.63756 0.0
O77 O 0.46465 0.25373 0.34873 0.0
Cd78 Cd 0.46099 0.23287 0.27193 0.0
O79 O 0.43531 0.25589 0.35851 0.0
Cd80 Cd 0.42964 0.24651 0.27316 0.0
O81 O 0.43339 0.26606 0.19193 0.0
C82 C 0.44945 0.27644 0.18489 0.0
O83 O 0.46228 0.27309 0.22258 0.0
C84 C 0.45191 0.25922 0.37587 0.0
C85 C 0.47148 0.19872 0.32088 0.0
O86 O 0.48355 0.21293 0.29741 0.0
O87 O 0.45436 0.20036 0.31894 0.0
Nd88 Nd 0.00174 0.01239 0.77744 0.0
Nd89 Nd 0.01868 0.01527 0.89676 0.0
C90 C 0.98082 0.00316 0.68833 0.0
C91 C 0.97838 0.98717 0.65285 0.0
C92 C 0.96342 0.9846 0.61517 0.0
C93 C 0.96128 0.96963 0.58036 0.0
C94 C 0.97413 0.95701 0.58258 0.0
C95 C 0.989 0.95956 0.62118 0.0
C96 C 0.99106 0.97447 0.65613 0.0
C97 C 0.03955 0.01519 0.7785 0.0
C98 C 0.00546 0.97249 0.86415 0.0
C99 C 0.04001 0.02465 0.98487 0.0
C100 C 0.04342 0.0413 0.01774 0.0
C101 C 0.05843 0.0436 0.05535 0.0
C102 C 0.0614 0.05915 0.08802 0.0
C103 C 0.04932 0.07257 0.0837 0.0
C104 C 0.03443 0.07033 0.04516 0.0
C105 C 0.03155 0.05486 0.0123 0.0
C106 C 0.98089 0.01177 0.89649 0.0
C107 C 0.0148 0.05505 0.80964 0.0
O108 O 0.97507 0.99869 0.74255 0.0
O109 O 0.99691 0.01473 0.68269 0.0
O110 O 0.03079 0.02327 0.73642 0.0
O111 O 0.02837 0.00512 0.81622 0.0
O112 O 0.99712 0.98065 0.81962 0.0
O113 O 0.0169 0.9828 0.89726 0.0
O114 O 0.04591 0.02788 0.93065 0.0
O115 O 0.02343 0.01407 0.99141 0.0
O116 O 0.98989 0.00421 0.93893 0.0
O117 O 0.99185 0.02203 0.85838 0.0
O118 O 0.02342 0.04695 0.85358 0.0
O119 O 0.00302 0.04468 0.77769 0.0
H120 H 0.95343 0.99422 0.61252 0.0
H121 H 0.9495 0.96789 0.55192 0.0
H122 H 0.99928 0.95029 0.62358 0.0
H123 H 0.00268 0.97623 0.68525 0.0
H124 H 0.06773 0.03326 0.05993 0.0
H125 H 0.07289 0.06042 0.11767 0.0
H126 H 0.02505 0.08057 0.04033 0.0
H127 H 0.01996 0.05337 0.983 0.0
Nd128 Nd 0.51739 0.00547 0.77741 0.0
Nd129 Nd 0.51602 0.03927 0.84363 0.0
C130 C 0.52645 0.97594 0.73201 0.0
C131 C 0.54094 0.97482 0.68961 0.0
C132 C 0.54167 0.95744 0.66769 0.0
C133 C 0.55483 0.95682 0.62459 0.0
C134 C 0.56738 0.97362 0.6027 0.0
C135 C 0.56679 0.9909 0.62592 0.0
C136 C 0.55367 0.9915 0.66885 0.0
C137 C 0.51058 0.03784 0.70955 0.0
C138 C 0.55603 0.03546 0.80087 0.0
C139 C 0.50705 0.06897 0.88863 0.0
C140 C 0.49186 0.07127 0.92697 0.0
C141 C 0.49475 0.08553 0.96449 0.0
C142 C 0.48108 0.08646 0.00555 0.0
C143 C 0.46429 0.07312 0.00966 0.0
C144 C 0.4613 0.05917 0.97084 0.0
C145 C 0.47497 0.05821 0.93007 0.0
C146 C 0.52278 0.00662 0.91079 0.0
C147 C 0.4776 0.00878 0.82184 0.0
O148 O 0.53231 0.98076 0.7825 0.0
O149 O 0.51342 0.98511 0.71139 0.0
O150 O 0.50265 0.02044 0.70286 0.0
O151 O 0.52236 0.0379 0.74938 0.0
O152 O 0.54809 0.01802 0.79059 0.0
O153 O 0.54635 0.04825 0.81465 0.0
O154 O 0.50258 0.06509 0.83606 0.0
O155 O 0.51862 0.0585 0.91278 0.0
O156 O 0.53049 0.02394 0.91908 0.0
O157 O 0.51115 0.007 0.87083 0.0
O158 O 0.48533 0.02676 0.82752 0.0
O159 O 0.48783 0.99588 0.81306 0.0
H160 H 0.53187 0.94446 0.68311 0.0
H161 H 0.55482 0.94333 0.60724 0.0
H162 H 0.57643 0.00402 0.6107 0.0
H163 H 0.55327 0.00507 0.68523 0.0
H164 H 0.50776 0.09564 0.96298 0.0
H165 H 0.48374 0.09748 0.0345 0.0
H166 H 0.44866 0.04849 0.97342 0.0
H167 H 0.47254 0.04691 0.90212 0.0
Nd168 Nd 0.50386 0.51345 0.8945 0.0
Nd169 Nd 0.51648 0.49971 0.7855 0.0
C170 C 0.49102 0.53256 0.97163 0.0
C171 C 0.49824 0.55063 0.99573 0.0
C172 C 0.48626 0.56328 0.00557 0.0
C173 C 0.49319 0.58101 0.02523 0.0
C174 C 0.51225 0.58637 0.03548 0.0
C175 C 0.52413 0.57345 0.02638 0.0
C176 C 0.51723 0.55584 0.00636 0.0
C177 C 0.53825 0.50314 0.90131 0.0
C178 C 0.52667 0.54478 0.78987 0.0
C179 C 0.52996 0.48067 0.70963 0.0
C180 C 0.52383 0.46143 0.69217 0.0
C181 C 0.53534 0.45354 0.65751 0.0
C182 C 0.52957 0.43498 0.64209 0.0
C183 C 0.51221 0.42406 0.66139 0.0
C184 C 0.50078 0.4321 0.69644 0.0
C185 C 0.50653 0.45064 0.71155 0.0
C186 C 0.48233 0.5105 0.77789 0.0
C187 C 0.49353 0.46811 0.88826 0.0
O188 O 0.48671 0.53445 0.91662 0.0
O189 O 0.49976 0.51818 0.98588 0.0
O190 O 0.52642 0.49966 0.94443 0.0
O191 O 0.53224 0.51264 0.85826 0.0
O192 O 0.51404 0.54174 0.83231 0.0
O193 O 0.53268 0.53033 0.77024 0.0
O194 O 0.53574 0.48088 0.7631 0.0
O195 O 0.51905 0.49313 0.69522 0.0
O196 O 0.49428 0.51377 0.73503 0.0
O197 O 0.48805 0.50084 0.82133 0.0
O198 O 0.50604 0.47152 0.84563 0.0
O199 O 0.48778 0.48239 0.91011 0.0
H200 H 0.4716 0.55959 0.99708 0.0
H201 H 0.48368 0.5907 0.03099 0.0
H202 H 0.53882 0.57694 0.03467 0.0
H203 H 0.52679 0.54638 0.99864 0.0
H204 H 0.54875 0.46171 0.64234 0.0
H205 H 0.53858 0.4293 0.61442 0.0
H206 H 0.48747 0.42399 0.71271 0.0
H207 H 0.49751 0.45655 0.73859 0.0
Nd208 Nd 0.01014 0.51938 0.77654 0.0
Nd209 Nd 0.01784 0.49538 0.88839 0.0
C210 C 0.99636 0.54124 0.69283 0.0
C211 C 0.98091 0.53709 0.65321 0.0
C212 C 0.97811 0.55085 0.60677 0.0
C213 C 0.96407 0.54633 0.56697 0.0
C214 C 0.95265 0.52796 0.57317 0.0
C215 C 0.95539 0.51435 0.62052 0.0
C216 C 0.96942 0.51886 0.66006 0.0
C217 C 0.01915 0.48439 0.76129 0.0
C218 C 0.97565 0.48969 0.85009 0.0
C219 C 0.0319 0.47385 0.97256 0.0
C220 C 0.04801 0.47762 0.00996 0.0
C221 C 0.05184 0.4632 0.05286 0.0
C222 C 0.06679 0.46711 0.08994 0.0
C223 C 0.07813 0.48552 0.08462 0.0
C224 C 0.0743 0.49984 0.04087 0.0
C225 C 0.05938 0.49591 0.00389 0.0
C226 C 0.00866 0.5304 0.90284 0.0
C227 C 0.05219 0.52462 0.81399 0.0
O228 O 0.99179 0.54028 0.74786 0.0
O229 O 0.01041 0.53278 0.68487 0.0
O230 O 0.02414 0.49997 0.72532 0.0
O231 O 0.00873 0.48721 0.8012 0.0
O232 O 0.98095 0.50582 0.8145 0.0
O233 O 0.98789 0.48054 0.87795 0.0
O234 O 0.03562 0.47393 0.91734 0.0
O235 O 0.01856 0.48323 0.98106 0.0
O236 O 0.00334 0.51476 0.93827 0.0
O237 O 0.01935 0.52756 0.86374 0.0
O238 O 0.04686 0.50815 0.84792 0.0
O239 O 0.03995 0.53432 0.78876 0.0
H240 H 0.98692 0.56497 0.60085 0.0
H241 H 0.9622 0.55717 0.53129 0.0
H242 H 0.94705 0.49998 0.62609 0.0
H243 H 0.97155 0.50799 0.69537 0.0
H244 H 0.04319 0.44899 0.05798 0.0
H245 H 0.06949 0.4557 0.12268 0.0
H246 H 0.08255 0.51424 0.03606 0.0
H247 H 0.05655 0.50725 0.97106 0.0
C248 C 0.197 0.99412 0.66528 0.0
C249 C 0.20116 0.97734 0.69748 0.0
C250 C 0.18112 0.00119 0.67852 0.0
C251 C 0.14486 0.99844 0.79163 0.0
H252 H 0.11409 0.00962 0.65977 0.0
C253 C 0.06708 0.00145 0.81544 0.0
C254 C 0.05944 0.01431 0.77555 0.0
C255 C 0.08558 0.99947 0.80945 0.0
C256 C 0.12263 0.00694 0.69709 0.0
H257 H 0.19234 0.95529 0.77047 0.0
H258 H 0.16462 0.96761 0.7935 0.0
H259 H 0.14449 0.00194 0.64341 0.0
H260 H 0.06529 0.03596 0.70014 0.0
H261 H 0.0977 0.03288 0.69033 0.0
H262 H 0.12286 0.00325 0.84539 0.0
C263 C 0.17367 0.97535 0.75814 0.0
C264 C 0.14007 0.00251 0.68766 0.0
C265 C 0.18951 0.96822 0.74471 0.0
C266 C 0.0708 0.02576 0.73109 0.0
C267 C 0.08933 0.02391 0.72533 0.0
C268 C 0.12742 0.003 0.80109 0.0
C269 C 0.16911 0.99168 0.72447 0.0
C270 C 0.15128 0.99796 0.73481 0.0
C271 C 0.09685 0.01045 0.76369 0.0
C272 C 0.11598 0.00705 0.75394 0.0
H273 H 0.20575 0.00154 0.62877 0.0
H274 H 0.17808 0.01394 0.65227 0.0
H275 H 0.15329 0.9952 0.82879 0.0
H276 H 0.05861 0.99246 0.85022 0.0
H277 H 0.09083 0.98883 0.83942 0.0
C278 C 0.49556 0.18229 0.37183 0.0
C279 C 0.47723 0.18148 0.35292 0.0
C280 C 0.50056 0.16672 0.40753 0.0
C281 C 0.48779 0.11484 0.45189 0.0
H282 H 0.51028 0.12545 0.59906 0.0
C283 C 0.49203 0.05357 0.6347 0.0
C284 C 0.50763 0.05492 0.67016 0.0
C285 C 0.4893 0.06926 0.59516 0.0
C286 C 0.50432 0.12223 0.55778 0.0
H287 H 0.44995 0.16349 0.35455 0.0
H288 H 0.45884 0.13609 0.41575 0.0
H289 H 0.50432 0.15211 0.52855 0.0
H290 H 0.53256 0.07368 0.69297 0.0
H291 H 0.5282 0.10107 0.62224 0.0
H292 H 0.48804 0.08508 0.48002 0.0
C293 C 0.46926 0.14885 0.40334 0.0
C294 C 0.50086 0.13751 0.51752 0.0
C295 C 0.46418 0.16453 0.3685 0.0
C296 C 0.52039 0.07233 0.66608 0.0
C297 C 0.51782 0.08801 0.62573 0.0
C298 C 0.4915 0.09959 0.49166 0.0
C299 C 0.48741 0.14995 0.42402 0.0
C300 C 0.49232 0.13391 0.46464 0.0
C301 C 0.50229 0.08661 0.5894 0.0
C302 C 0.49951 0.10304 0.54562 0.0
H303 H 0.50591 0.19519 0.36073 0.0
H304 H 0.51467 0.16785 0.42265 0.0
H305 H 0.48139 0.11173 0.41106 0.0
H306 H 0.48185 0.04035 0.63755 0.0
H307 H 0.47692 0.06777 0.56928 0.0
C308 C 0.33953 0.57311 0.67926 0.0
C309 C 0.33029 0.57782 0.72702 0.0
C310 C 0.35468 0.56367 0.68765 0.0
C311 C 0.39025 0.55443 0.79709 0.0
H312 H 0.40151 0.51986 0.69053 0.0
C313 C 0.45273 0.51435 0.82479 0.0
C314 C 0.46394 0.51621 0.7746 0.0
C315 C 0.43553 0.52031 0.82156 0.0
C316 C 0.39853 0.52952 0.72054 0.0
H317 H 0.32918 0.57557 0.82123 0.0
H318 H 0.35517 0.55849 0.83607 0.0
H319 H 0.37259 0.53232 0.68113 0.0
H320 H 0.46593 0.52547 0.68169 0.0
H321 H 0.43575 0.53556 0.67587 0.0
H322 H 0.41619 0.55137 0.83674 0.0
C323 C 0.35112 0.5626 0.79194 0.0
C324 C 0.382 0.53675 0.71506 0.0
C325 C 0.33611 0.57227 0.78348 0.0
C326 C 0.45755 0.52386 0.72105 0.0
C327 C 0.44026 0.52954 0.71766 0.0
C328 C 0.40666 0.54699 0.80302 0.0
C329 C 0.36083 0.55847 0.74409 0.0
C330 C 0.37776 0.54956 0.75267 0.0
C331 C 0.42912 0.52794 0.76791 0.0
C332 C 0.4111 0.5347 0.76425 0.0
H333 H 0.33547 0.57729 0.63517 0.0
H334 H 0.36193 0.56105 0.64962 0.0
H335 H 0.38768 0.5645 0.82629 0.0
H336 H 0.45734 0.50847 0.86662 0.0
H337 H 0.42718 0.51885 0.8609 0.0
C338 C 0.08764 0.3384 0.77396 0.0
C339 C 0.09524 0.33655 0.7198 0.0
C340 C 0.07746 0.35299 0.77934 0.0
C341 C 0.05364 0.38886 0.69164 0.0
H342 H 0.05958 0.41452 0.83073 0.0
C343 C 0.03524 0.46383 0.70675 0.0
C344 C 0.02528 0.46597 0.75646 0.0
C345 C 0.04189 0.44679 0.70287 0.0
C346 C 0.05762 0.40732 0.79197 0.0
H347 H 0.09819 0.34854 0.62881 0.0
H348 H 0.08107 0.37437 0.63845 0.0
H349 H 0.0751 0.38731 0.82274 0.0
H350 H 0.01415 0.45193 0.84068 0.0
H351 H 0.02626 0.42219 0.83452 0.0
H352 H 0.03677 0.40954 0.66012 0.0
C353 C 0.08245 0.36427 0.67659 0.0
C354 C 0.06646 0.39167 0.78737 0.0
C355 C 0.0924 0.34952 0.67109 0.0
C356 C 0.02187 0.45066 0.80199 0.0
C357 C 0.02881 0.43371 0.79853 0.0
C358 C 0.04502 0.40468 0.69595 0.0
C359 C 0.07486 0.36624 0.73083 0.0
C360 C 0.06472 0.38232 0.73691 0.0
C361 C 0.03894 0.43166 0.749 0.0
C362 C 0.04705 0.41414 0.74597 0.0
H363 H 0.08946 0.32852 0.81222 0.0
H364 H 0.07156 0.3538 0.82157 0.0
H365 H 0.05161 0.38179 0.65268 0.0
H366 H 0.03805 0.47542 0.67101 0.0
H367 H 0.0498 0.44564 0.66443 0.0
C368 C 0.81285 0.95772 0.91809 0.0
C369 C 0.80375 0.95952 0.86472 0.0
C370 C 0.83187 0.96459 0.92105 0.0
C371 C 0.87105 0.99837 0.84753 0.0
H372 H 0.90058 0.96343 0.92758 0.0
C373 C 0.95157 0.01442 0.84259 0.0
C374 C 0.96051 0.00809 0.8931 0.0
C375 C 0.93228 0.00946 0.83857 0.0
C376 C 0.89255 0.97353 0.90586 0.0
H377 H 0.80734 0.97042 0.77291 0.0
H378 H 0.8406 0.98262 0.77836 0.0
H379 H 0.8672 0.95328 0.92247 0.0
H380 H 0.95638 0.99244 0.97996 0.0
H381 H 0.92285 0.98443 0.97398 0.0
H382 H 0.89638 0.01878 0.83171 0.0
C383 C 0.83298 0.97584 0.81776 0.0
C384 C 0.87341 0.96765 0.90279 0.0
C385 C 0.81398 0.96877 0.81464 0.0
C386 C 0.94985 0.99736 0.94024 0.0
C387 C 0.93063 0.99262 0.93656 0.0
C388 C 0.89023 0.00437 0.85113 0.0
C389 C 0.84214 0.97359 0.87087 0.0
C390 C 0.86246 0.98001 0.87376 0.0
C391 C 0.9216 0.99827 0.88531 0.0
C392 C 0.90121 0.99203 0.88058 0.0
H393 H 0.80537 0.95069 0.95746 0.0
H394 H 0.83857 0.96284 0.96267 0.0
H395 H 0.86289 0.00823 0.82516 0.0
H396 H 0.95949 0.02281 0.80572 0.0
H397 H 0.92583 0.01396 0.79828 0.0
C398 C 0.59766 0.87007 0.06832 0.0
C399 C 0.59334 0.86003 0.12419 0.0
C400 C 0.58853 0.88507 0.04684 0.0
C401 C 0.56226 0.92016 0.0944 0.0
H402 H 0.54819 0.92606 0.9324 0.0
C403 C 0.52042 0.97074 0.92528 0.0
C404 C 0.52859 0.989 0.93943 0.0
C405 C 0.52683 0.95421 0.95007 0.0
C406 C 0.55183 0.92449 0.9779 0.0
H407 H 0.57594 0.85778 0.20124 0.0
H408 H 0.55991 0.88389 0.16354 0.0
H409 H 0.56202 0.89841 0.97098 0.0
H410 H 0.54963 0.00437 0.99095 0.0
H411 H 0.56089 0.97559 0.03396 0.0
H412 H 0.55198 0.94617 0.10141 0.0
C413 C 0.57051 0.88029 0.1366 0.0
C414 C 0.55996 0.90878 0.99982 0.0
C415 C 0.57964 0.86528 0.1581 0.0
C416 C 0.54302 0.99044 0.97953 0.0
C417 C 0.5494 0.97394 0.00437 0.0
C418 C 0.55415 0.93587 0.07247 0.0
C419 C 0.57486 0.89036 0.08074 0.0
C420 C 0.56544 0.90655 0.05816 0.0
C421 C 0.54149 0.95566 0.98957 0.0
C422 C 0.54902 0.93832 0.01383 0.0
H423 H 0.60818 0.86641 0.04113 0.0
H424 H 0.5924 0.89273 0.00398 0.0
H425 H 0.56645 0.91893 0.13942 0.0
H426 H 0.50925 0.96926 0.89447 0.0
H427 H 0.52033 0.9403 0.93828 0.0
C428 C 0.69131 0.45533 0.9594 0.0
C429 C 0.6936 0.44076 0.92563 0.0
C430 C 0.67559 0.46398 0.95347 0.0
C431 C 0.63512 0.46919 0.85815 0.0
H432 H 0.61339 0.47972 0.00041 0.0
C433 C 0.56123 0.48478 0.95025 0.0
C434 C 0.55658 0.49728 0.90295 0.0
C435 C 0.57847 0.47896 0.95158 0.0
C436 C 0.61915 0.47671 0.96027 0.0
H437 H 0.68139 0.42414 0.85816 0.0
H438 H 0.65379 0.43877 0.84892 0.0
H439 H 0.64237 0.46764 0.00411 0.0
H440 H 0.56625 0.51365 0.82005 0.0
H441 H 0.59657 0.50397 0.82298 0.0
H442 H 0.6114 0.47737 0.8148 0.0
C443 C 0.66427 0.44388 0.87917 0.0
C444 C 0.63599 0.47007 0.96223 0.0
C445 C 0.68009 0.4354 0.88466 0.0
C446 C 0.56949 0.50395 0.85704 0.0
C447 C 0.58681 0.49828 0.85859 0.0
C448 C 0.61817 0.47567 0.85627 0.0
C449 C 0.66167 0.4581 0.91408 0.0
C450 C 0.64417 0.4661 0.91127 0.0
C451 C 0.59153 0.48568 0.90586 0.0
C452 C 0.60989 0.47939 0.90739 0.0
H453 H 0.70155 0.4599 0.99106 0.0
H454 H 0.67429 0.47516 0.9802 0.0
H455 H 0.64108 0.46655 0.81787 0.0
H456 H 0.55146 0.4793 0.986 0.0
H457 H 0.58142 0.46895 0.98814 0.0
C458 C 0.95764 0.67985 0.99623 0.0
C459 C 0.94335 0.68426 0.95924 0.0
C460 C 0.96678 0.66474 0.98753 0.0
C461 C 0.97415 0.63168 0.88019 0.0
H462 H 0.98436 0.59879 0.01864 0.0
C463 C 0.00997 0.56561 0.86986 0.0
C464 C 0.0029 0.54897 0.90814 0.0
C465 C 0.00419 0.58309 0.87507 0.0
C466 C 0.9815 0.60775 0.97947 0.0
H467 H 0.92772 0.67654 0.88332 0.0
H468 H 0.94331 0.64989 0.86901 0.0
H469 H 0.97146 0.62747 0.02843 0.0
H470 H 0.98415 0.53739 0.98125 0.0
H471 H 0.97381 0.56766 0.98971 0.0
H472 H 0.98344 0.61139 0.83128 0.0
C473 C 0.94774 0.65831 0.9041 0.0
C474 C 0.97435 0.62439 0.98509 0.0
C475 C 0.9387 0.67353 0.91253 0.0
C476 C 0.98994 0.55005 0.95147 0.0
C477 C 0.98411 0.56745 0.95652 0.0
C478 C 0.98122 0.61494 0.87456 0.0
C479 C 0.96174 0.65357 0.94193 0.0
C480 C 0.97041 0.63649 0.93556 0.0
C481 C 0.99119 0.58422 0.91854 0.0
C482 C 0.98476 0.60264 0.92417 0.0
H483 H 0.96167 0.68796 0.03232 0.0
H484 H 0.97774 0.66175 0.01683 0.0
H485 H 0.97151 0.64079 0.8411 0.0
H486 H 0.01997 0.56513 0.83601 0.0
H487 H 0.01004 0.59576 0.84544 0.0
C488 C 0.092 0.21927 0.6405 0.0
C489 C 0.09183 0.23252 0.68066 0.0
C490 C 0.08136 0.20072 0.65078 0.0
C491 C 0.04382 0.17031 0.7492 0.0
H492 H 0.06333 0.1284 0.69372 0.0
C493 C 0.02626 0.08813 0.83629 0.0
C494 C 0.01941 0.07617 0.7941 0.0
C495 C 0.03263 0.10786 0.82027 0.0
C496 C 0.05768 0.14003 0.70897 0.0
H497 H 0.08105 0.23631 0.76466 0.0
H498 H 0.06354 0.20368 0.78457 0.0
H499 H 0.07993 0.16139 0.67042 0.0
H500 H 0.0135 0.07547 0.70247 0.0
H501 H 0.0253 0.10996 0.67429 0.0
H502 H 0.02219 0.1484 0.79093 0.0
C503 C 0.071 0.20784 0.74339 0.0
C504 C 0.06709 0.159 0.69534 0.0
C505 C 0.08127 0.22655 0.73235 0.0
C506 C 0.01857 0.08438 0.73592 0.0
C507 C 0.02536 0.10403 0.71973 0.0
C508 C 0.03467 0.15126 0.76398 0.0
C509 C 0.07083 0.19464 0.70267 0.0
C510 C 0.06034 0.17445 0.71539 0.0
C511 C 0.03262 0.11582 0.76171 0.0
C512 C 0.04157 0.13602 0.74397 0.0
H513 H 0.1008 0.22288 0.60204 0.0
H514 H 0.08157 0.19113 0.618 0.0
H515 H 0.03791 0.18175 0.76446 0.0
H516 H 0.02704 0.08216 0.88145 0.0
H517 H 0.03828 0.11674 0.85319 0.0
C518 C 0.31626 0.99359 0.69246 0.0
C519 C 0.30559 0.97498 0.69463 0.0
C520 C 0.33401 0.99625 0.71578 0.0
C521 C 0.37303 0.97165 0.74452 0.0
H522 H 0.3902 0.01167 0.84197 0.0
C523 C 0.44832 0.98424 0.82293 0.0
C524 C 0.45716 0.00357 0.82129 0.0
C525 C 0.42911 0.97962 0.81679 0.0
C526 C 0.3857 0.00055 0.81435 0.0
H527 H 0.30476 0.94464 0.72424 0.0
H528 H 0.33598 0.94925 0.76413 0.0
H529 H 0.3579 0.00614 0.81216 0.0
H530 H 0.45273 0.03321 0.81352 0.0
H531 H 0.41952 0.02528 0.80096 0.0
H532 H 0.40084 0.96656 0.74405 0.0
C533 C 0.33061 0.96175 0.74435 0.0
C534 C 0.36719 0.99735 0.79753 0.0
C535 C 0.31277 0.95913 0.72179 0.0
C536 C 0.44635 0.01814 0.81527 0.0
C537 C 0.42721 0.01356 0.8084 0.0
C538 C 0.39159 0.97501 0.7606 0.0
C539 C 0.34145 0.98031 0.74117 0.0
C540 C 0.36074 0.983 0.76203 0.0
C541 C 0.41836 0.99426 0.80812 0.0
C542 C 0.39824 0.98965 0.79521 0.0
H543 H 0.31085 0.00609 0.67303 0.0
H544 H 0.3421 0.01071 0.71267 0.0
H545 H 0.36844 0.96062 0.71659 0.0
H546 H 0.45626 0.97267 0.82804 0.0
H547 H 0.42274 0.96457 0.81806 0.0
C548 C 0.47481 0.27319 0.44627 0.0
C549 C 0.45688 0.27119 0.42341 0.0
C550 C 0.4806 0.28681 0.48421 0.0
C551 C 0.46455 0.32097 0.57382 0.0
H552 H 0.51289 0.3519 0.53118 0.0
C553 C 0.4874 0.39869 0.62835 0.0
C554 C 0.50588 0.4045 0.64426 0.0
C555 C 0.48153 0.38054 0.61047 0.0
C556 C 0.49951 0.34323 0.54441 0.0
H557 H 0.43059 0.28107 0.42527 0.0
H558 H 0.4408 0.3051 0.49059 0.0
H559 H 0.50221 0.32294 0.48568 0.0
H560 H 0.53255 0.3955 0.6558 0.0
H561 H 0.52234 0.36383 0.62398 0.0
H562 H 0.46169 0.34177 0.63121 0.0
C563 C 0.45034 0.296 0.47979 0.0
C564 C 0.49338 0.32658 0.5184 0.0
C565 C 0.44449 0.28226 0.44212 0.0
C566 C 0.5183 0.39159 0.64283 0.0
C567 C 0.51244 0.37344 0.62481 0.0
C568 C 0.47067 0.3377 0.59974 0.0
C569 C 0.46865 0.29883 0.49981 0.0
C570 C 0.47572 0.31539 0.53215 0.0
C571 C 0.49404 0.36779 0.60795 0.0
C572 C 0.48811 0.34915 0.58463 0.0
H573 H 0.48462 0.2647 0.43327 0.0
H574 H 0.49466 0.28832 0.49992 0.0
H575 H 0.45098 0.31253 0.58593 0.0
H576 H 0.47754 0.40838 0.62815 0.0
H577 H 0.46734 0.37673 0.59682 0.0
C578 C 0.21898 0.56229 0.70463 0.0
C579 C 0.22746 0.58169 0.70404 0.0
C580 C 0.20006 0.55649 0.718 0.0
C581 C 0.15618 0.57297 0.71178 0.0
H582 H 0.13999 0.53208 0.83783 0.0
C583 C 0.079 0.55141 0.78391 0.0
C584 C 0.07224 0.53188 0.80353 0.0
C585 C 0.09802 0.55801 0.77358 0.0
C586 C 0.14416 0.54329 0.80179 0.0
H587 H 0.22301 0.61026 0.71691 0.0
H588 H 0.18972 0.60019 0.73864 0.0
H589 H 0.17295 0.54211 0.81442 0.0
H590 H 0.08 0.50387 0.82674 0.0
H591 H 0.11283 0.51506 0.80624 0.0
H592 H 0.12753 0.57372 0.69708 0.0
C593 C 0.19775 0.5895 0.72914 0.0
C594 C 0.16308 0.54909 0.78875 0.0
C595 C 0.21674 0.59521 0.71701 0.0
C596 C 0.08481 0.51907 0.81227 0.0
C597 C 0.10373 0.52556 0.80086 0.0
C598 C 0.13721 0.56691 0.72396 0.0
C599 C 0.18928 0.57008 0.72999 0.0
C600 C 0.16924 0.56398 0.7437 0.0
C601 C 0.11066 0.54514 0.78153 0.0
C602 C 0.13091 0.55195 0.76917 0.0
H603 H 0.22703 0.55156 0.69571 0.0
H604 H 0.19379 0.54144 0.71841 0.0
H605 H 0.16064 0.58442 0.67654 0.0
H606 H 0.06963 0.56164 0.77717 0.0
H607 H 0.10278 0.57325 0.75983 0.0
C608 C 0.95185 0.7967 0.93709 0.0
C609 C 0.94245 0.7907 0.99092 0.0
C610 C 0.96027 0.81599 0.92199 0.0
C611 C 0.98171 0.85922 0.97963 0.0
H612 H 0.96411 0.88804 0.84408 0.0
C613 C 0.00121 0.94233 0.93469 0.0
C614 C 0.00153 0.95127 0.87708 0.0
C615 C 0.99553 0.92235 0.94738 0.0
C616 C 0.96959 0.88022 0.88129 0.0
H617 H 0.93321 0.80076 0.0686 0.0
H618 H 0.94908 0.83406 0.04414 0.0
H619 H 0.9517 0.85376 0.86777 0.0
H620 H 0.99721 0.94638 0.78716 0.0
H621 H 0.98846 0.91149 0.80856 0.0
H622 H 6e-05 0.88529 0.99257 0.0
C623 C 0.95014 0.82368 0.01427 0.0
C624 C 0.96231 0.86058 0.89499 0.0
C625 C 0.94136 0.80451 0.02875 0.0
C626 C 0.99689 0.93984 0.8321 0.0
C627 C 0.99168 0.91982 0.84456 0.0
C628 C 0.98935 0.87877 0.9652 0.0
C629 C 0.95962 0.82956 0.96075 0.0
C630 C 0.96815 0.85001 0.94461 0.0
C631 C 0.99047 0.9108 0.90252 0.0
C632 C 0.98322 0.88964 0.9162 0.0
H633 H 0.95274 0.78645 0.90666 0.0
H634 H 0.96741 0.82029 0.88025 0.0
H635 H 0.98647 0.85124 0.01799 0.0
H636 H 0.00457 0.95088 0.97021 0.0
H637 H 0.99452 0.91613 0.99262 0.0
C638 C 0.70663 0.98985 0.83109 0.0
C639 C 0.70557 0.97687 0.88268 0.0
C640 C 0.69339 0.00167 0.81968 0.0
C641 C 0.65897 0.02449 0.88119 0.0
H642 H 0.62859 0.01136 0.74968 0.0
C643 C 0.58463 0.03931 0.85794 0.0
C644 C 0.57627 0.03931 0.8035 0.0
C645 C 0.60309 0.03694 0.8637 0.0
C646 C 0.63714 0.01581 0.7855 0.0
H647 H 0.68921 0.96582 0.96149 0.0
H648 H 0.66687 0.98734 0.94327 0.0
H649 H 0.65632 0.99761 0.76837 0.0
H650 H 0.58058 0.03829 0.71177 0.0
H651 H 0.61327 0.03589 0.72047 0.0
H652 H 0.64009 0.04293 0.89819 0.0
C653 C 0.67816 0.98845 0.91225 0.0
C654 C 0.65298 0.00771 0.7964 0.0
C655 C 0.69116 0.97631 0.92309 0.0
C656 C 0.58692 0.03852 0.75411 0.0
C657 C 0.60554 0.03676 0.75948 0.0
C658 C 0.64335 0.03303 0.86947 0.0
C659 C 0.679 0.00096 0.86002 0.0
C660 C 0.66374 0.0116 0.84507 0.0
C661 C 0.61362 0.03487 0.81479 0.0
C662 C 0.63188 0.02838 0.82236 0.0
H663 H 0.71747 0.99057 0.79882 0.0
H664 H 0.69417 0.01112 0.77888 0.0
H665 H 0.6672 0.02774 0.91885 0.0
H666 H 0.57645 0.03944 0.89675 0.0
H667 H 0.60853 0.03532 0.90717 0.0
C668 C 0.57591 0.75153 0.13535 0.0
C669 C 0.58499 0.75246 0.18866 0.0
C670 C 0.5668 0.73384 0.12016 0.0
C671 C 0.54837 0.68295 0.18077 0.0
H672 H 0.5529 0.674 0.02007 0.0
C673 C 0.51006 0.61358 0.09401 0.0
C674 C 0.51985 0.60554 0.05407 0.0
C675 C 0.51727 0.63165 0.111 0.0
C676 C 0.55161 0.67617 0.06524 0.0
H677 H 0.59232 0.73556 0.26684 0.0
H678 H 0.57648 0.70464 0.24053 0.0
H679 H 0.56695 0.70495 0.04936 0.0
H680 H 0.54482 0.61042 0.00014 0.0
H681 H 0.55763 0.64146 0.03119 0.0
H682 H 0.53359 0.65385 0.19695 0.0
C683 C 0.57585 0.71763 0.21116 0.0
C684 C 0.55945 0.69406 0.0819 0.0
C685 C 0.58486 0.73536 0.22646 0.0
C686 C 0.537 0.61601 0.03162 0.0
C687 C 0.54424 0.63398 0.04879 0.0
C688 C 0.54058 0.66498 0.16413 0.0
C689 C 0.5668 0.71663 0.15761 0.0
C690 C 0.55799 0.69768 0.1399 0.0
C691 C 0.53445 0.64208 0.08853 0.0
C692 C 0.54221 0.66134 0.1062 0.0
H693 H 0.57581 0.76452 0.10539 0.0
H694 H 0.55975 0.73369 0.079 0.0
H695 H 0.54679 0.68529 0.22567 0.0
H696 H 0.4969 0.60585 0.11261 0.0
H697 H 0.50927 0.63753 0.14125 0.0
C698 C 0.81314 0.42717 0.99266 0.0
C699 C 0.79984 0.43333 0.95455 0.0
C700 C 0.83204 0.43295 0.97944 0.0
C701 C 0.8656 0.47042 0.89342 0.0
H702 H 0.89797 0.4326 0.91609 0.0
C703 C 0.94264 0.48965 0.82207 0.0
C704 C 0.95555 0.48202 0.85879 0.0
C705 C 0.92362 0.48319 0.83166 0.0
C706 C 0.88919 0.44341 0.91018 0.0
H707 H 0.7958 0.44999 0.87212 0.0
H708 H 0.82898 0.46031 0.84903 0.0
H709 H 0.86484 0.42261 0.93718 0.0
H710 H 0.9586 0.46148 0.93415 0.0
H711 H 0.9254 0.45049 0.95178 0.0
H712 H 0.88991 0.49133 0.86761 0.0
C713 C 0.82475 0.45117 0.88949 0.0
C714 C 0.87019 0.43766 0.92213 0.0
C715 C 0.80579 0.44521 0.90251 0.0
C716 C 0.94902 0.46757 0.90486 0.0
C717 C 0.92996 0.46122 0.91479 0.0
C718 C 0.88462 0.47622 0.88192 0.0
C719 C 0.83807 0.44503 0.92778 0.0
C720 C 0.85819 0.45111 0.91398 0.0
C721 C 0.917 0.46905 0.87856 0.0
C722 C 0.89669 0.46279 0.89018 0.0
H723 H 0.80895 0.41748 0.03213 0.0
H724 H 0.84196 0.42805 0.00991 0.0
H725 H 0.85673 0.48116 0.88745 0.0
H726 H 0.94719 0.50069 0.78584 0.0
H727 H 0.9141 0.48927 0.80212 0.0
C728 C 0.05653 0.19389 0.4224 0.0
C729 C 0.07414 0.20531 0.42636 0.0
C730 C 0.05348 0.18022 0.38318 0.0
C731 C 0.07357 0.16589 0.25156 0.0
H732 H 0.04222 0.11645 0.30162 0.0
C733 C 0.06968 0.09935 0.12735 0.0
C734 C 0.05195 0.08855 0.12033 0.0
C735 C 0.07214 0.11414 0.16285 0.0
C736 C 0.05086 0.13026 0.2868 0.0
H737 H 0.10236 0.21139 0.39196 0.0
H738 H 0.09716 0.18732 0.32454 0.0
H739 H 0.04696 0.14124 0.36686 0.0
H740 H 0.02291 0.08472 0.14525 0.0
H741 H 0.0272 0.11057 0.20717 0.0
H742 H 0.07771 0.15465 0.17183 0.0
C743 C 0.08558 0.18914 0.35088 0.0
C744 C 0.05355 0.14451 0.32411 0.0
C745 C 0.08859 0.20289 0.38982 0.0
C746 C 0.03672 0.0929 0.1494 0.0
C747 C 0.0392 0.10757 0.18526 0.0
C748 C 0.07098 0.15157 0.2144 0.0
C749 C 0.068 0.17756 0.34725 0.0
C750 C 0.06494 0.16251 0.30701 0.0
C751 C 0.05694 0.11831 0.1925 0.0
C752 C 0.0596 0.13361 0.23163 0.0
H753 H 0.04507 0.19545 0.4497 0.0
H754 H 0.03969 0.1718 0.38089 0.0
H755 H 0.08219 0.17968 0.23653 0.0
H756 H 0.08165 0.09642 0.10515 0.0
H757 H 0.08599 0.12208 0.16793 0.0
C758 C 0.35681 0.0375 0.4299 0.0
C759 C 0.33853 0.03148 0.41245 0.0
C760 C 0.37086 0.04533 0.38852 0.0
C761 C 0.37923 0.0663 0.23343 0.0
H762 H 0.42557 0.04739 0.25311 0.0
C763 C 0.43129 0.06939 0.04465 0.0
C764 C 0.45035 0.07292 0.05628 0.0
C765 C 0.41815 0.06735 0.08962 0.0
C766 C 0.41285 0.05309 0.24736 0.0
H767 H 0.32059 0.02945 0.33789 0.0
H768 H 0.34508 0.04279 0.26589 0.0
H769 H 0.40171 0.03833 0.32928 0.0
H770 H 0.47053 0.0776 0.12414 0.0
H771 H 0.44758 0.07433 0.20249 0.0
H772 H 0.39026 0.08067 0.15072 0.0
C773 C 0.34856 0.04173 0.31154 0.0
C774 C 0.39915 0.0479 0.29109 0.0
C775 C 0.33452 0.03393 0.35287 0.0
C776 C 0.45596 0.07504 0.11361 0.0
C777 C 0.44281 0.07295 0.15862 0.0
C778 C 0.39293 0.07147 0.1896 0.0
C779 C 0.36695 0.0473 0.32877 0.0
C780 C 0.38206 0.0542 0.28432 0.0
C781 C 0.42376 0.06875 0.1473 0.0
C782 C 0.40979 0.0647 0.19572 0.0
H783 H 0.36035 0.03593 0.47549 0.0
H784 H 0.38483 0.04973 0.40334 0.0
H785 H 0.36635 0.07168 0.22725 0.0
H786 H 0.42652 0.06789 0.00085 0.0
H787 H 0.40359 0.06398 0.07944 0.0
C788 C 0.47076 0.30527 0.13524 0.0
C789 C 0.45297 0.29381 0.14113 0.0
C790 C 0.47379 0.323 0.09996 0.0
C791 C 0.47865 0.35653 0.00404 0.0
H792 H 0.44278 0.38989 0.01745 0.0
C793 C 0.48955 0.43289 0.87999 0.0
C794 C 0.48601 0.44777 0.91078 0.0
C795 C 0.48366 0.41359 0.90224 0.0
C796 C 0.45295 0.38077 0.01343 0.0
H797 H 0.42455 0.29159 0.11243 0.0
H798 H 0.42993 0.32258 0.05004 0.0
H799 H 0.43649 0.35668 0.06543 0.0
H800 H 0.47303 0.45401 0.98843 0.0
H801 H 0.46311 0.42014 0.0283 0.0
H802 H 0.4955 0.38074 0.95438 0.0
C803 C 0.44146 0.31792 0.07356 0.0
C804 C 0.44924 0.36166 0.04024 0.0
C805 C 0.43842 0.3001 0.10889 0.0
C806 C 0.47595 0.44288 0.96367 0.0
C807 C 0.47019 0.42347 0.98632 0.0
C808 C 0.48238 0.3756 0.97743 0.0
C809 C 0.45911 0.32973 0.06957 0.0
C810 C 0.46218 0.34941 0.03652 0.0
C811 C 0.47426 0.4086 0.95626 0.0
C812 C 0.46968 0.38803 0.98227 0.0
H813 H 0.48228 0.30086 0.15942 0.0
H814 H 0.48752 0.3318 0.09843 0.0
H815 H 0.48882 0.34742 0.99978 0.0
H816 H 0.49708 0.43611 0.83879 0.0
H817 H 0.48668 0.40254 0.87728 0.0
C818 C 0.19065 0.53068 0.46149 0.0
C819 C 0.2063 0.54411 0.43935 0.0
C820 C 0.17725 0.52276 0.42394 0.0
C821 C 0.16938 0.51473 0.27014 0.0
H822 H 0.11763 0.51151 0.31158 0.0
C823 C 0.11047 0.50169 0.10545 0.0
C824 C 0.09355 0.49004 0.12548 0.0
C825 C 0.12458 0.50683 0.14434 0.0
C826 C 0.132 0.51203 0.2997 0.0
H827 H 0.22025 0.55952 0.36024 0.0
H828 H 0.19681 0.54581 0.29489 0.0
H829 H 0.14159 0.52307 0.37841 0.0
H830 H 0.07833 0.47446 0.20223 0.0
H831 H 0.1031 0.48306 0.26985 0.0
H832 H 0.15978 0.50382 0.19119 0.0
C833 C 0.19499 0.54125 0.34124 0.0
C834 C 0.14574 0.51867 0.33803 0.0
C835 C 0.20838 0.5492 0.37877 0.0
C836 C 0.09124 0.48331 0.18521 0.0
C837 C 0.10536 0.48844 0.22411 0.0
C838 C 0.15563 0.50805 0.23181 0.0
C839 C 0.1792 0.52804 0.3634 0.0
C840 C 0.1646 0.52023 0.32355 0.0
C841 C 0.12212 0.50043 0.20424 0.0
C842 C 0.13677 0.50675 0.24595 0.0
H843 H 0.18865 0.52639 0.50792 0.0
H844 H 0.16536 0.51244 0.44235 0.0
H845 H 0.18378 0.51549 0.25806 0.0
H846 H 0.1128 0.50693 0.05963 0.0
H847 H 0.13724 0.51623 0.12757 0.0
C848 C 0.94693 0.82409 0.28116 0.0
C849 C 0.9604 0.82502 0.23738 0.0
C850 C 0.94875 0.83802 0.31946 0.0
C851 C 0.97261 0.88775 0.33427 0.0
H852 H 0.95708 0.8734 0.49608 0.0
C853 C 0.96656 0.9449 0.48622 0.0
C854 C 0.97226 0.9415 0.54405 0.0
C855 C 0.96518 0.9305 0.44959 0.0
C856 C 0.96165 0.87765 0.45117 0.0
H857 H 0.98654 0.84116 0.20015 0.0
H858 H 0.98993 0.86523 0.26773 0.0
H859 H 0.95536 0.84852 0.43172 0.0
H860 H 0.98069 0.92006 0.60885 0.0
H861 H 0.97884 0.89517 0.54447 0.0
H862 H 0.97939 0.9168 0.35406 0.0
C863 C 0.97775 0.85394 0.27177 0.0
C864 C 0.96043 0.8634 0.41404 0.0
C865 C 0.97587 0.84006 0.23324 0.0
C866 C 0.97646 0.92328 0.56438 0.0
C867 C 0.97517 0.9089 0.52764 0.0
C868 C 0.97391 0.90199 0.37146 0.0
C869 C 0.96414 0.85318 0.31513 0.0
C870 C 0.96583 0.86828 0.35505 0.0
C871 C 0.96957 0.91235 0.46971 0.0
C872 C 0.96837 0.89713 0.43033 0.0
H873 H 0.93479 0.81275 0.28539 0.0
H874 H 0.93787 0.83713 0.35172 0.0
H875 H 0.97668 0.89208 0.28897 0.0
H876 H 0.96342 0.95883 0.46883 0.0
H877 H 0.96056 0.93359 0.40551 0.0
C878 C 0.67512 0.95897 0.2101 0.0
C879 C 0.6762 0.97402 0.16387 0.0
C880 C 0.66421 0.95878 0.25965 0.0
C881 C 0.64192 0.99037 0.34114 0.0
H882 H 0.61031 0.94255 0.40542 0.0
C883 C 0.58363 0.98861 0.50858 0.0
C884 C 0.58062 0.97337 0.55446 0.0
C885 C 0.59597 0.98849 0.46291 0.0
C886 C 0.61924 0.95596 0.38855 0.0
H887 H 0.66674 0.00076 0.13374 0.0
H888 H 0.64768 0.00039 0.22002 0.0
H889 H 0.63074 0.9428 0.3223 0.0
H890 H 0.58836 0.9461 0.5885 0.0
H891 H 0.61001 0.94591 0.50868 0.0
H892 H 0.63042 0.00357 0.40716 0.0
C893 C 0.65541 0.98882 0.21819 0.0
C894 C 0.63094 0.95611 0.34087 0.0
C895 C 0.66626 0.98897 0.16857 0.0
C896 C 0.59023 0.95796 0.55349 0.0
C897 C 0.60262 0.95785 0.50775 0.0
C898 C 0.63027 0.99022 0.38886 0.0
C899 C 0.65419 0.97368 0.2642 0.0
C900 C 0.6423 0.97335 0.3163 0.0
C901 C 0.60564 0.97313 0.46193 0.0
C902 C 0.61865 0.97306 0.41282 0.0
H903 H 0.68262 0.94724 0.20794 0.0
H904 H 0.66373 0.94703 0.29462 0.0
H905 H 0.65073 0.00382 0.32387 0.0
H906 H 0.57619 0.00053 0.5074 0.0
H907 H 0.59766 0.0003 0.42778 0.0
C908 C 0.5614 0.70247 0.49145 0.0
C909 C 0.5782 0.70523 0.45975 0.0
C910 C 0.55622 0.68613 0.53241 0.0
C911 C 0.56352 0.63636 0.56434 0.0
H912 H 0.54374 0.63803 0.71838 0.0
C913 C 0.55044 0.56839 0.72917 0.0
C914 C 0.53386 0.56459 0.76214 0.0
C915 C 0.55637 0.58647 0.69741 0.0
C916 C 0.54906 0.63732 0.6753 0.0
H917 H 0.60293 0.69327 0.44727 0.0
H918 H 0.59383 0.66481 0.51832 0.0
H919 H 0.5528 0.66805 0.65241 0.0
H920 H 0.51086 0.57694 0.78973 0.0
H921 H 0.521 0.6085 0.73281 0.0
H922 H 0.5595 0.60579 0.58596 0.0
C923 C 0.58462 0.6752 0.51123 0.0
C924 C 0.55427 0.65449 0.63764 0.0
C925 C 0.58986 0.69154 0.47069 0.0
C926 C 0.52372 0.57949 0.76471 0.0
C927 C 0.52956 0.59758 0.73223 0.0
C928 C 0.55822 0.61926 0.6016 0.0
C929 C 0.56767 0.6722 0.542 0.0
C930 C 0.56171 0.65416 0.58201 0.0
C931 C 0.54574 0.60111 0.69711 0.0
C932 C 0.5511 0.61951 0.65778 0.0
H933 H 0.55214 0.71279 0.48412 0.0
H934 H 0.54302 0.68412 0.55532 0.0
H935 H 0.56885 0.63563 0.52125 0.0
H936 H 0.55871 0.55728 0.72707 0.0
H937 H 0.56918 0.58884 0.67221 0.0
C938 C 0.85441 0.47677 0.17104 0.0
C939 C 0.83755 0.46442 0.18779 0.0
C940 C 0.86634 0.48439 0.21295 0.0
C941 C 0.87745 0.47599 0.36864 0.0
H942 H 0.903 0.52923 0.34275 0.0
C943 C 0.92103 0.51147 0.54682 0.0
C944 C 0.93842 0.52262 0.52934 0.0
C945 C 0.90815 0.50526 0.50548 0.0
C946 C 0.89608 0.51429 0.35039 0.0
H947 H 0.81997 0.45046 0.26176 0.0
H948 H 0.84071 0.46389 0.33472 0.0
H949 H 0.88172 0.51648 0.26983 0.0
H950 H 0.95579 0.53619 0.45461 0.0
H951 H 0.93328 0.52541 0.38245 0.0
H952 H 0.89185 0.47375 0.44901 0.0
C953 C 0.84482 0.4675 0.28923 0.0
C954 C 0.88391 0.50697 0.3086 0.0
C955 C 0.83289 0.45988 0.24736 0.0
C956 C 0.94243 0.52784 0.46955 0.0
C957 C 0.92954 0.52165 0.42818 0.0
C958 C 0.8896 0.4833 0.41041 0.0
C959 C 0.8617 0.47982 0.27254 0.0
C960 C 0.87449 0.48772 0.31718 0.0
C961 C 0.91234 0.51007 0.44567 0.0
C962 C 0.89908 0.50252 0.40174 0.0
H963 H 0.85845 0.48052 0.12553 0.0
H964 H 0.87935 0.49363 0.19866 0.0
H965 H 0.87066 0.461 0.37619 0.0
H966 H 0.91739 0.50746 0.59256 0.0
H967 H 0.89489 0.49666 0.52038 0.0
loop_
_geom_bond_atom_site_label_1
_geom_bond_atom_site_label_2
_geom_bond_distance
_geom_bond_site_symmetry_2
_ccdc_geom_bond_type
O0 Cd1 2.300 . S
O0 C7 1.275 . S
Cd1 O0 2.300 . S
Cd1 O9 2.381 . S
Cd1 O10 2.378 1_556 S
O2 Cd3 2.385 . S
O2 C7 1.255 1_554 S
Cd3 O2 2.385 . S
Cd3 O4 2.317 . S
O4 Cd3 2.317 . S
O4 C5 1.232 . S
C5 O4 1.232 . S
C5 O6 1.218 . S
O6 C5 1.218 . S
C7 O0 1.275 . S
C7 O2 1.255 1_556 S
C8 O9 1.258 . S
C8 O10 1.256 1_556 S
O9 Cd1 2.381 . S
O9 C8 1.258 . S
O10 Cd1 2.378 1_554 S
O10 C8 1.256 1_554 S
O11 Cd12 2.300 1_556 S
O11 C18 1.275 . S
Cd12 O11 2.300 1_554 S
Cd12 O20 2.381 1_554 S
Cd12 O21 2.378 . S
O13 Cd14 2.385 . S
O13 C18 1.255 1_554 S
Cd14 O13 2.385 . S
Cd14 O15 2.317 . S
O15 Cd14 2.317 . S
O15 C16 1.232 . S
C16 O15 1.232 . S
C16 O17 1.218 . S
O17 C16 1.218 . S
C18 O11 1.275 . S
C18 O13 1.255 1_556 S
C19 O20 1.258 1_554 S
C19 O21 1.256 . S
O20 Cd12 2.381 1_556 S
O20 C19 1.258 1_556 S
O21 Cd12 2.378 . S
O21 C19 1.256 . S
O22 Cd23 2.300 . S
O22 C29 1.275 . S
Cd23 O22 2.300 . S
Cd23 O31 2.381 . S
Cd23 O32 2.378 . S
O24 Cd25 2.385 1_566 S
O24 C29 1.255 . S
Cd25 O24 2.385 1_544 S
Cd25 O26 2.317 1_545 S
O26 Cd25 2.317 1_565 S
O26 C27 1.232 . S
C27 O26 1.232 . S
C27 O28 1.218 . S
O28 C27 1.218 . S
C29 O22 1.275 . S
C29 O24 1.255 . S
C30 O31 1.258 . S
C30 O32 1.256 . S
O31 Cd23 2.381 . S
O31 C30 1.258 . S
O32 Cd23 2.378 . S
O32 C30 1.256 . S
O33 Cd34 2.300 . S
O33 C40 1.275 . S
Cd34 O33 2.300 . S
Cd34 O42 2.381 . S
Cd34 O43 2.378 . S
O35 Cd36 2.385 . S
O35 C40 1.255 . S
Cd36 O35 2.385 . S
Cd36 O37 2.317 . S
O37 Cd36 2.317 . S
O37 C38 1.232 . S
C38 O37 1.232 . S
C38 O39 1.218 . S
O39 C38 1.218 . S
C40 O33 1.275 . S
C40 O35 1.255 . S
C41 O42 1.258 . S
C41 O43 1.256 . S
O42 Cd34 2.381 . S
O42 C41 1.258 . S
O43 Cd34 2.378 . S
O43 C41 1.256 . S
O44 Cd45 2.300 . S
O44 C51 1.275 . S
Cd45 O44 2.300 . S
Cd45 O53 2.381 . S
Cd45 O54 2.378 . S
O46 Cd47 2.385 . S
O46 C51 1.255 . S
Cd47 O46 2.385 . S
Cd47 O48 2.317 . S
O48 Cd47 2.317 . S
O48 C49 1.232 . S
C49 O48 1.232 . S
C49 O50 1.218 . S
O50 C49 1.218 . S
C51 O44 1.275 . S
C51 O46 1.255 . S
C52 O53 1.258 . S
C52 O54 1.256 . S
O53 Cd45 2.381 . S
O53 C52 1.258 . S
O54 Cd45 2.378 . S
O54 C52 1.256 . S
O55 Cd56 2.300 . S
O55 C62 1.275 . S
Cd56 O55 2.300 . S
Cd56 O64 2.381 . S
Cd56 O65 2.378 . S
O57 Cd58 2.385 . S
O57 C62 1.255 . S
Cd58 O57 2.385 . S
Cd58 O59 2.317 . S
O59 Cd58 2.317 . S
O59 C60 1.232 . S
C60 O59 1.232 . S
C60 O61 1.218 . S
O61 C60 1.218 . S
C62 O55 1.275 . S
C62 O57 1.255 . S
C63 O64 1.258 . S
C63 O65 1.256 . S
O64 Cd56 2.381 . S
O64 C63 1.258 . S
O65 Cd56 2.378 . S
O65 C63 1.256 . S
O66 Cd67 2.300 . S
O66 C73 1.275 . S
Cd67 O66 2.300 . S
Cd67 O75 2.381 . S
Cd67 O76 2.378 . S
O68 Cd69 2.385 . S
O68 C73 1.255 . S
Cd69 O68 2.385 . S
Cd69 O70 2.317 . S
O70 Cd69 2.317 . S
O70 C71 1.232 . S
C71 O70 1.232 . S
C71 O72 1.218 . S
O72 C71 1.218 . S
C73 O66 1.275 . S
C73 O68 1.255 . S
C74 O75 1.258 . S
C74 O76 1.256 . S
O75 Cd67 2.381 . S
O75 C74 1.258 . S
O76 Cd67 2.378 . S
O76 C74 1.256 . S
O77 Cd78 2.300 . S
O77 C84 1.275 . S
Cd78 O77 2.300 . S
Cd78 O86 2.381 . S
Cd78 O87 2.378 . S
O79 Cd80 2.385 . S
O79 C84 1.255 . S
Cd80 O79 2.385 . S
Cd80 O81 2.317 . S
O81 Cd80 2.317 . S
O81 C82 1.232 . S
C82 O81 1.232 . S
C82 O83 1.218 . S
O83 C82 1.218 . S
C84 O77 1.275 . S
C84 O79 1.255 . S
C85 O86 1.258 . S
C85 O87 1.256 . S
O86 Cd78 2.381 . S
O86 C85 1.258 . S
O87 Cd78 2.378 . S
O87 C85 1.256 . S
Nd88 C90 2.831 1_445 S
Nd88 O108 2.500 1_445 S
Nd88 O109 2.492 1_545 S
Nd88 O110 2.487 . S
Nd88 O111 2.682 . S
Nd88 O112 2.410 1_545 S
Nd88 O117 2.414 1_455 S
Nd88 O119 2.424 . S
Nd89 C99 2.836 . S
Nd89 O111 2.414 . S
Nd89 O113 2.424 1_545 S
Nd89 O114 2.500 . S
Nd89 O115 2.492 . S
Nd89 O116 2.487 1_455 S
Nd89 O117 2.682 1_455 S
Nd89 O118 2.410 . S
C90 Nd88 2.831 1_665 S
C90 C91 1.503 . S
C90 O108 1.279 . S
C90 O109 1.213 1_655 S
C91 C90 1.503 . S
C91 C92 1.366 . S
C91 C96 1.407 1_655 S
C92 C91 1.366 . S
C92 C93 1.392 . S
C92 H120 0.930 . S
C93 C92 1.392 . S
C93 C94 1.398 . S
C93 H121 0.929 . S
C94 C93 1.398 . S
C94 C95 1.352 . S
C95 C94 1.352 . S
C95 C96 1.384 1_655 S
C95 H122 0.930 1_655 S
C96 C91 1.407 1_455 S
C96 C95 1.384 1_455 S
C96 H123 0.929 . S
C97 O110 1.241 . S
C97 O111 1.273 . S
C98 O112 1.251 . S
C98 O113 1.268 . S
C99 Nd89 2.836 . S
C99 C100 1.498 . S
C99 O114 1.258 . S
C99 O115 1.239 . S
C100 C99 1.498 . S
C100 C101 1.366 . S
C100 C105 1.407 1_556 S
C101 C100 1.366 . S
C101 C102 1.392 1_556 S
C101 H124 0.930 . S
C102 C101 1.392 1_554 S
C102 C103 1.398 . S
C102 H125 0.929 . S
C103 C102 1.398 . S
C103 C104 1.352 . S
C104 C103 1.352 . S
C104 C105 1.384 . S
C104 H126 0.930 . S
C105 C100 1.407 1_554 S
C105 C104 1.384 . S
C105 H127 0.929 . S
C106 O116 1.241 . S
C106 O117 1.273 . S
C107 O118 1.251 . S
C107 O119 1.268 . S
O108 Nd88 2.500 1_665 S
O108 C90 1.279 . S
O109 Nd88 2.492 1_565 S
O109 C90 1.213 1_455 S
O110 Nd88 2.487 . S
O110 C97 1.241 . S
O111 Nd88 2.682 . S
O111 Nd89 2.414 . S
O111 C97 1.273 . S
O112 Nd88 2.410 1_565 S
O112 C98 1.251 . S
O113 Nd89 2.424 1_565 S
O113 C98 1.268 . S
O114 Nd89 2.500 . S
O114 C99 1.258 . S
O115 Nd89 2.492 . S
O115 C99 1.239 . S
O116 Nd89 2.487 1_655 S
O116 C106 1.241 . S
O117 Nd88 2.414 1_655 S
O117 Nd89 2.682 1_655 S
O117 C106 1.273 . S
O118 Nd89 2.410 . S
O118 C107 1.251 . S
O119 Nd88 2.424 . S
O119 C107 1.268 . S
H120 C92 0.930 . S
H121 C93 0.929 . S
H122 C95 0.930 1_455 S
H123 C96 0.929 . S
H124 C101 0.930 . S
H125 C102 0.929 . S
H126 C104 0.930 . S
H127 C105 0.929 . S
Nd128 C130 2.836 1_545 S
Nd128 O148 2.500 1_545 S
Nd128 O149 2.492 . S
Nd128 O150 2.487 . S
Nd128 O151 2.682 . S
Nd128 O152 2.410 . S
Nd128 O157 2.414 1_545 S
Nd128 O159 2.430 1_545 S
Nd129 C139 2.836 . S
Nd129 O151 2.414 . S
Nd129 O153 2.424 . S
Nd129 O154 2.500 . S
Nd129 O155 2.492 . S
Nd129 O156 2.487 1_545 S
Nd129 O157 2.682 1_545 S
Nd129 O158 2.410 . S
C130 Nd128 2.836 1_565 S
C130 C131 1.498 . S
C130 O148 1.258 . S
C130 O149 1.239 1_565 S
C131 C130 1.498 . S
C131 C132 1.366 . S
C131 C136 1.427 . S
C132 C131 1.366 . S
C132 C133 1.392 . S
C132 H160 0.930 . S
C133 C132 1.392 . S
C133 C134 1.398 . S
C133 H161 0.929 . S
C134 C133 1.398 . S
C134 C135 1.352 . S
C135 C134 1.352 . S
C135 C136 1.407 . S
C135 H162 0.930 1_565 S
C136 C131 1.427 . S
C136 C135 1.407 . S
C136 H163 0.888 1_565 S
C137 O150 1.241 . S
C137 O151 1.273 . S
C138 O152 1.251 . S
C138 O153 1.268 . S
C139 Nd129 2.836 . S
C139 C140 1.498 . S
C139 O154 1.258 . S
C139 O155 1.239 . S
C140 C139 1.498 . S
C140 C141 1.366 . S
C140 C145 1.407 1_556 S
C141 C140 1.366 . S
C141 C142 1.392 1_556 S
C141 H164 0.930 . S
C142 C141 1.392 1_554 S
C142 C143 1.398 . S
C142 H165 0.929 1_554 S
C143 C142 1.398 . S
C143 C144 1.352 . S
C144 C143 1.352 . S
C144 C145 1.384 . S
C144 H166 0.930 . S
C145 C140 1.407 1_554 S
C145 C144 1.384 . S
C145 H167 0.929 . S
C146 O156 1.241 . S
C146 O157 1.273 . S
C147 O158 1.251 . S
C147 O159 1.258 1_545 S
O148 Nd128 2.500 1_565 S
O148 C130 1.258 . S
O149 Nd128 2.492 . S
O149 C130 1.239 1_545 S
O150 Nd128 2.487 . S
O150 C137 1.241 . S
O151 Nd128 2.682 . S
O151 Nd129 2.414 . S
O151 C137 1.273 . S
O152 Nd128 2.410 . S
O152 C138 1.251 . S
O153 Nd129 2.424 . S
O153 C138 1.268 . S
O154 Nd129 2.500 . S
O154 C139 1.258 . S
O155 Nd129 2.492 . S
O155 C139 1.239 . S
O156 Nd129 2.487 1_565 S
O156 C146 1.241 . S
O157 Nd128 2.414 1_565 S
O157 Nd129 2.682 1_565 S
O157 C146 1.273 . S
O158 Nd129 2.410 . S
O158 C147 1.251 . S
O159 Nd128 2.430 1_565 S
O159 C147 1.258 1_565 S
H160 C132 0.930 . S
H161 C133 0.929 . S
H162 C135 0.930 1_545 S
H163 C136 0.888 1_545 S
H164 C141 0.930 . S
H165 C142 0.929 1_556 S
H166 C144 0.930 . S
H167 C145 0.929 . S
Nd168 C170 2.836 . S
Nd168 O188 2.500 . S
Nd168 O189 2.492 . S
Nd168 O190 2.487 . S
Nd168 O191 2.682 . S
Nd168 O192 2.410 . S
Nd168 O197 2.414 . S
Nd168 O199 2.424 . S
Nd169 C179 2.836 . S
Nd169 O191 2.414 . S
Nd169 O193 2.424 . S
Nd169 O194 2.500 . S
Nd169 O195 2.492 . S
Nd169 O196 2.487 . S
Nd169 O197 2.682 . S
Nd169 O198 2.410 . S
C170 Nd168 2.836 . S
C170 C171 1.498 . S
C170 O188 1.258 . S
C170 O189 1.239 . S
C171 C170 1.498 . S
C171 C172 1.366 . S
C171 C176 1.407 . S
C172 C171 1.366 . S
C172 C173 1.392 . S
C172 H200 0.930 . S
C173 C172 1.392 . S
C173 C174 1.398 . S
C173 H201 0.929 . S
C174 C173 1.398 . S
C174 C175 1.352 . S
C175 C174 1.352 . S
C175 C176 1.384 . S
C175 H202 0.930 1_556 S
C176 C171 1.407 . S
C176 C175 1.384 . S
C176 H203 0.929 . S
C177 O190 1.241 . S
C177 O191 1.273 . S
C178 O192 1.251 . S
C178 O193 1.268 . S
C179 Nd169 2.836 . S
C179 C180 1.498 . S
C179 O194 1.258 . S
C179 O195 1.239 . S
C180 C179 1.498 . S
C180 C181 1.366 . S
C180 C185 1.407 . S
C181 C180 1.366 . S
C181 C182 1.392 . S
C181 H204 0.930 . S
C182 C181 1.392 . S
C182 C183 1.398 . S
C182 H205 0.929 . S
C183 C182 1.398 . S
C183 C184 1.352 . S
C184 C183 1.352 . S
C184 C185 1.384 . S
C184 H206 0.930 . S
C185 C180 1.407 . S
C185 C184 1.384 . S
C185 H207 0.929 . S
C186 O196 1.241 . S
C186 O197 1.273 . S
C187 O198 1.251 . S
C187 O199 1.268 . S
O188 Nd168 2.500 . S
O188 C170 1.258 . S
O189 Nd168 2.492 . S
O189 C170 1.239 . S
O190 Nd168 2.487 . S
O190 C177 1.241 . S
O191 Nd168 2.682 . S
O191 Nd169 2.414 . S
O191 C177 1.273 . S
O192 Nd168 2.410 . S
O192 C178 1.251 . S
O193 Nd169 2.424 . S
O193 C178 1.268 . S
O194 Nd169 2.500 . S
O194 C179 1.258 . S
O195 Nd169 2.492 . S
O195 C179 1.239 . S
O196 Nd169 2.487 . S
O196 C186 1.241 . S
O197 Nd168 2.414 . S
O197 Nd169 2.682 . S
O197 C186 1.273 . S
O198 Nd169 2.410 . S
O198 C187 1.251 . S
O199 Nd168 2.424 . S
O199 C187 1.268 . S
H200 C172 0.930 . S
H201 C173 0.929 . S
H202 C175 0.930 1_554 S
H203 C176 0.929 . S
H204 C181 0.930 . S
H205 C182 0.929 . S
H206 C184 0.930 . S
H207 C185 0.929 . S
Nd208 C210 2.836 1_455 S
Nd208 O228 2.500 1_455 S
Nd208 O229 2.492 1_455 S
Nd208 O230 2.487 . S
Nd208 O231 2.682 . S
Nd208 O232 2.410 1_455 S
Nd208 O237 2.414 . S
Nd208 O239 2.424 . S
Nd209 C219 2.836 . S
Nd209 O231 2.414 . S
Nd209 O233 2.424 1_455 S
Nd209 O234 2.500 . S
Nd209 O235 2.492 . S
Nd209 O236 2.487 . S
Nd209 O237 2.682 . S
Nd209 O238 2.410 . S
C210 Nd208 2.836 1_655 S
C210 C211 1.498 . S
C210 O228 1.258 . S
C210 O229 1.239 . S
C211 C210 1.498 . S
C211 C212 1.366 . S
C211 C216 1.407 . S
C212 C211 1.366 . S
C212 C213 1.392 . S
C212 H240 0.930 . S
C213 C212 1.392 . S
C213 C214 1.398 . S
C213 H241 0.929 . S
C214 C213 1.398 . S
C214 C215 1.352 . S
C215 C214 1.352 . S
C215 C216 1.384 . S
C215 H242 0.930 . S
C216 C211 1.407 . S
C216 C215 1.384 . S
C216 H243 0.929 . S
C217 O230 1.241 . S
C217 O231 1.273 . S
C218 O232 1.251 . S
C218 O233 1.268 . S
C219 Nd209 2.836 . S
C219 C220 1.498 1_556 S
C219 O234 1.258 . S
C219 O235 1.239 . S
C220 C219 1.498 1_554 S
C220 C221 1.366 1_554 S
C220 C225 1.407 . S
C221 C220 1.366 1_556 S
C221 C222 1.392 1_556 S
C221 H244 0.930 . S
C222 C221 1.392 1_554 S
C222 C223 1.398 . S
C222 H245 0.929 . S
C223 C222 1.398 . S
C223 C224 1.352 . S
C224 C223 1.352 . S
C224 C225 1.384 . S
C224 H246 0.930 . S
C225 C220 1.407 . S
C225 C224 1.384 . S
C225 H247 0.929 . S
C226 O236 1.241 . S
C226 O237 1.273 . S
C227 O238 1.251 . S
C227 O239 1.268 . S
O228 Nd208 2.500 1_655 S
O228 C210 1.258 . S
O229 Nd208 2.492 1_655 S
O229 C210 1.239 . S
O230 Nd208 2.487 . S
O230 C217 1.241 . S
O231 Nd208 2.682 . S
O231 Nd209 2.414 . S
O231 C217 1.273 . S
O232 Nd208 2.410 1_655 S
O232 C218 1.251 . S
O233 Nd209 2.424 1_655 S
O233 C218 1.268 . S
O234 Nd209 2.500 . S
O234 C219 1.258 . S
O235 Nd209 2.492 . S
O235 C219 1.239 . S
O236 Nd209 2.487 . S
O236 C226 1.241 . S
O237 Nd208 2.414 . S
O237 Nd209 2.682 . S
O237 C226 1.273 . S
O238 Nd209 2.410 . S
O238 C227 1.251 . S
O239 Nd208 2.424 . S
O239 C227 1.268 . S
H240 C212 0.930 . S
H241 C213 0.929 . S
H242 C215 0.930 . S
H243 C216 0.929 . S
H244 C221 0.930 . S
H245 C222 0.929 . S
H246 C224 0.930 . S
H247 C225 0.929 . S
C248 C249 1.349 . S
C248 C250 1.327 . S
C248 H273 0.950 . S
C249 C248 1.349 . S
C249 C265 1.349 . S
C250 C248 1.327 . S
C250 C269 1.429 . S
C250 H274 0.950 . S
C251 C268 1.574 . S
C251 C270 1.368 . S
C251 H275 0.925 1_545 S
H252 C256 0.949 . S
C253 C254 1.349 1_565 S
C253 C255 1.329 1_565 S
C253 H276 0.950 . S
C254 C253 1.349 1_545 S
C254 C266 1.349 . S
C255 C253 1.329 1_545 S
C255 C271 1.442 . S
C255 H277 0.934 1_545 S
C256 H252 0.949 . S
C256 C264 1.574 . S
C256 C272 1.368 . S
H257 C265 0.950 . S
H258 C263 0.950 . S
H259 C264 0.949 . S
H260 C266 0.950 . S
H261 C267 0.950 . S
H262 C268 0.949 1_565 S
C263 H258 0.950 . S
C263 C265 1.327 . S
C263 C269 1.429 . S
C264 C256 1.574 . S
C264 H259 0.949 . S
C264 C270 1.368 . S
C265 C249 1.349 . S
C265 H257 0.950 . S
C265 C263 1.327 . S
C266 C254 1.349 . S
C266 H260 0.950 . S
C266 C267 1.327 . S
C267 H261 0.950 . S
C267 C266 1.327 . S
C267 C271 1.429 . S
C268 C251 1.574 . S
C268 H262 0.949 1_545 S
C268 C272 1.368 . S
C269 C250 1.429 . S
C269 C263 1.429 . S
C269 C270 1.523 . S
C270 C251 1.368 . S
C270 C264 1.368 . S
C270 C269 1.523 . S
C271 C255 1.442 . S
C271 C267 1.429 . S
C271 C272 1.523 . S
C272 C256 1.368 . S
C272 C268 1.368 . S
C272 C271 1.523 . S
H273 C248 0.950 . S
H274 C250 0.950 . S
H275 C251 0.925 1_565 S
H276 C253 0.950 . S
H277 C255 0.934 1_565 S
C278 C279 1.349 . S
C278 C280 1.327 . S
C278 H303 0.950 . S
C279 C278 1.349 . S
C279 C295 1.349 . S
C280 C278 1.327 . S
C280 C299 1.429 . S
C280 H304 0.950 . S
C281 C298 1.574 . S
C281 C300 1.368 . S
C281 H305 0.949 . S
H282 C286 0.949 . S
C283 C284 1.349 . S
C283 C285 1.327 . S
C283 H306 0.950 . S
C284 C283 1.349 . S
C284 C296 1.349 . S
C285 C283 1.327 . S
C285 C301 1.429 . S
C285 H307 0.950 . S
C286 H282 0.949 . S
C286 C294 1.574 . S
C286 C302 1.368 . S
H287 C295 0.950 . S
H288 C293 0.950 . S
H289 C294 0.949 . S
H290 C296 0.950 . S
H291 C297 0.950 . S
H292 C298 0.949 . S
C293 H288 0.950 . S
C293 C295 1.327 . S
C293 C299 1.429 . S
C294 C286 1.574 . S
C294 H289 0.949 . S
C294 C300 1.368 . S
C295 C279 1.349 . S
C295 H287 0.950 . S
C295 C293 1.327 . S
C296 C284 1.349 . S
C296 H290 0.950 . S
C296 C297 1.327 . S
C297 H291 0.950 . S
C297 C296 1.327 . S
C297 C301 1.429 . S
C298 C281 1.574 . S
C298 H292 0.949 . S
C298 C302 1.368 . S
C299 C280 1.429 . S
C299 C293 1.429 . S
C299 C300 1.523 . S
C300 C281 1.368 . S
C300 C294 1.368 . S
C300 C299 1.523 . S
C301 C285 1.429 . S
C301 C297 1.429 . S
C301 C302 1.523 . S
C302 C286 1.368 . S
C302 C298 1.368 . S
C302 C301 1.523 . S
H303 C278 0.950 . S
H304 C280 0.950 . S
H305 C281 0.949 . S
H306 C283 0.950 . S
H307 C285 0.950 . S
C308 C309 1.349 . S
C308 C310 1.327 . S
C308 H333 0.950 . S
C309 C308 1.349 . S
C309 C325 1.349 . S
C310 C308 1.327 . S
C310 C329 1.429 . S
C310 H334 0.950 . S
C311 C328 1.574 . S
C311 C330 1.368 . S
C311 H335 0.949 . S
H312 C316 0.949 . S
C313 C314 1.349 . S
C313 C315 1.327 . S
C313 H336 0.950 . S
C314 C313 1.349 . S
C314 C326 1.349 . S
C315 C313 1.327 . S
C315 C331 1.429 . S
C315 H337 0.950 . S
C316 H312 0.949 . S
C316 C324 1.574 . S
C316 C332 1.368 . S
H317 C325 0.950 . S
H318 C323 0.950 . S
H319 C324 0.949 . S
H320 C326 0.950 . S
H321 C327 0.950 . S
H322 C328 0.949 . S
C323 H318 0.950 . S
C323 C325 1.327 . S
C323 C329 1.429 . S
C324 C316 1.574 . S
C324 H319 0.949 . S
C324 C330 1.368 . S
C325 C309 1.349 . S
C325 H317 0.950 . S
C325 C323 1.327 . S
C326 C314 1.349 . S
C326 H320 0.950 . S
C326 C327 1.327 . S
C327 H321 0.950 . S
C327 C326 1.327 . S
C327 C331 1.429 . S
C328 C311 1.574 . S
C328 H322 0.949 . S
C328 C332 1.368 . S
C329 C310 1.429 . S
C329 C323 1.429 . S
C329 C330 1.523 . S
C330 C311 1.368 . S
C330 C324 1.368 . S
C330 C329 1.523 . S
C331 C315 1.429 . S
C331 C327 1.429 . S
C331 C332 1.523 . S
C332 C316 1.368 . S
C332 C328 1.368 . S
C332 C331 1.523 . S
H333 C308 0.950 . S
H334 C310 0.950 . S
H335 C311 0.949 . S
H336 C313 0.950 . S
H337 C315 0.950 . S
C338 C339 1.349 . S
C338 C340 1.327 . S
C338 H363 0.950 . S
C339 C338 1.349 . S
C339 C355 1.349 . S
C340 C338 1.327 . S
C340 C359 1.429 . S
C340 H364 0.950 . S
C341 C358 1.574 . S
C341 C360 1.368 . S
C341 H365 0.949 . S
H342 C346 0.949 . S
C343 C344 1.349 . S
C343 C345 1.327 . S
C343 H366 0.950 . S
C344 C343 1.349 . S
C344 C356 1.349 . S
C345 C343 1.327 . S
C345 C361 1.429 . S
C345 H367 0.950 . S
C346 H342 0.949 . S
C346 C354 1.574 . S
C346 C362 1.368 . S
H347 C355 0.950 . S
H348 C353 0.950 . S
H349 C354 0.949 . S
H350 C356 0.950 . S
H351 C357 0.950 . S
H352 C358 0.949 . S
C353 H348 0.950 . S
C353 C355 1.327 . S
C353 C359 1.429 . S
C354 C346 1.574 . S
C354 H349 0.949 . S
C354 C360 1.368 . S
C355 C339 1.349 . S
C355 H347 0.950 . S
C355 C353 1.327 . S
C356 C344 1.349 . S
C356 H350 0.950 . S
C356 C357 1.327 . S
C357 H351 0.950 . S
C357 C356 1.327 . S
C357 C361 1.429 . S
C358 C341 1.574 . S
C358 H352 0.949 . S
C358 C362 1.368 . S
C359 C340 1.429 . S
C359 C353 1.429 . S
C359 C360 1.523 . S
C360 C341 1.368 . S
C360 C354 1.368 . S
C360 C359 1.523 . S
C361 C345 1.429 . S
C361 C357 1.429 . S
C361 C362 1.523 . S
C362 C346 1.368 . S
C362 C358 1.368 . S
C362 C361 1.523 . S
H363 C338 0.950 . S
H364 C340 0.950 . S
H365 C341 0.949 . S
H366 C343 0.950 . S
H367 C345 0.950 . S
C368 C369 1.349 . S
C368 C370 1.327 . S
C368 H393 0.950 1_565 S
C369 C368 1.349 . S
C369 C385 1.349 . S
C370 C368 1.327 . S
C370 C389 1.429 . S
C370 H394 0.950 1_565 S
C371 C388 1.574 . S
C371 C390 1.368 . S
C371 H395 0.949 . S
H372 C376 0.949 . S
C373 C374 1.349 1_565 S
C373 C375 1.327 . S
C373 H396 0.950 . S
C374 C373 1.349 1_545 S
C374 C386 1.349 . S
C375 C373 1.327 . S
C375 C391 1.440 . S
C375 H397 0.950 . S
C376 H372 0.949 . S
C376 C384 1.574 . S
C376 C392 1.368 1_545 S
H377 C385 0.950 . S
H378 C383 0.950 . S
H379 C384 0.949 . S
H380 C386 0.950 . S
H381 C387 0.950 . S
H382 C388 0.949 . S
C383 H378 0.950 . S
C383 C385 1.327 . S
C383 C389 1.429 . S
C384 C376 1.574 . S
C384 H379 0.949 . S
C384 C390 1.368 1_545 S
C385 C369 1.349 . S
C385 H377 0.950 . S
C385 C383 1.327 . S
C386 C374 1.349 . S
C386 H380 0.950 . S
C386 C387 1.327 . S
C387 H381 0.950 . S
C387 C386 1.327 . S
C387 C391 1.419 1_545 S
C388 C371 1.574 . S
C388 H382 0.949 . S
C388 C392 1.368 . S
C389 C370 1.429 . S
C389 C383 1.429 . S
C389 C390 1.523 . S
C390 C371 1.368 . S
C390 C384 1.368 1_565 S
C390 C389 1.523 . S
C391 C375 1.440 . S
C391 C387 1.419 1_565 S
C391 C392 1.522 . S
C392 C376 1.368 1_565 S
C392 C388 1.368 . S
C392 C391 1.522 . S
H393 C368 0.950 1_545 S
H394 C370 0.950 1_545 S
H395 C371 0.949 . S
H396 C373 0.950 . S
H397 C375 0.950 . S
C398 C399 1.349 . S
C398 C400 1.327 . S
C398 H423 0.950 . S
C399 C398 1.349 . S
C399 C415 1.349 . S
C400 C398 1.327 . S
C400 C419 1.429 . S
C400 H424 0.950 . S
C401 C418 1.574 . S
C401 C420 1.368 . S
C401 H425 0.949 . S
H402 C406 0.949 1_556 S
C403 C404 1.349 . S
C403 C405 1.327 . S
C403 H426 0.950 . S
C404 C403 1.349 . S
C404 C416 1.349 . S
C405 C403 1.327 . S
C405 C421 1.429 . S
C405 H427 0.950 1_556 S
C406 H402 0.949 1_554 S
C406 C414 1.574 . S
C406 C422 1.368 . S
H407 C415 0.950 . S
H408 C413 0.950 . S
H409 C414 0.949 . S
H410 C416 0.950 . S
H411 C417 0.950 . S
H412 C418 0.949 . S
C413 H408 0.950 . S
C413 C415 1.327 . S
C413 C419 1.429 . S
C414 C406 1.574 . S
C414 H409 0.949 . S
C414 C420 1.368 . S
C415 C399 1.349 . S
C415 H407 0.950 . S
C415 C413 1.327 . S
C416 C404 1.349 . S
C416 H410 0.950 . S
C416 C417 1.327 . S
C417 H411 0.950 . S
C417 C416 1.327 . S
C417 C421 1.429 . S
C418 C401 1.574 . S
C418 H412 0.949 . S
C418 C422 1.368 . S
C419 C400 1.429 . S
C419 C413 1.429 . S
C419 C420 1.523 . S
C420 C401 1.368 . S
C420 C414 1.368 . S
C420 C419 1.523 . S
C421 C405 1.429 . S
C421 C417 1.429 . S
C421 C422 1.523 1_556 S
C422 C406 1.368 . S
C422 C418 1.368 . S
C422 C421 1.523 1_554 S
H423 C398 0.950 . S
H424 C400 0.950 . S
H425 C401 0.949 . S
H426 C403 0.950 . S
H427 C405 0.950 1_554 S
C428 C429 1.349 . S
C428 C430 1.327 . S
C428 H453 0.950 . S
C429 C428 1.349 . S
C429 C445 1.349 . S
C430 C428 1.327 . S
C430 C449 1.429 . S
C430 H454 0.950 . S
C431 C448 1.574 . S
C431 C450 1.368 . S
C431 H455 0.949 . S
H432 C436 0.949 . S
C433 C434 1.349 . S
C433 C435 1.327 . S
C433 H456 0.950 . S
C434 C433 1.349 . S
C434 C446 1.349 . S
C435 C433 1.327 . S
C435 C451 1.429 . S
C435 H457 0.950 . S
C436 H432 0.949 . S
C436 C444 1.574 . S
C436 C452 1.368 . S
H437 C445 0.950 . S
H438 C443 0.950 . S
H439 C444 0.949 . S
H440 C446 0.950 . S
H441 C447 0.950 . S
H442 C448 0.949 . S
C443 H438 0.950 . S
C443 C445 1.327 . S
C443 C449 1.429 . S
C444 C436 1.574 . S
C444 H439 0.949 . S
C444 C450 1.368 . S
C445 C429 1.349 . S
C445 H437 0.950 . S
C445 C443 1.327 . S
C446 C434 1.349 . S
C446 H440 0.950 . S
C446 C447 1.327 . S
C447 H441 0.950 . S
C447 C446 1.327 . S
C447 C451 1.429 . S
C448 C431 1.574 . S
C448 H442 0.949 . S
C448 C452 1.368 . S
C449 C430 1.429 . S
C449 C443 1.429 . S
C449 C450 1.523 . S
C450 C431 1.368 . S
C450 C444 1.368 . S
C450 C449 1.523 . S
C451 C435 1.429 . S
C451 C447 1.429 . S
C451 C452 1.523 . S
C452 C436 1.368 . S
C452 C448 1.368 . S
C452 C451 1.523 . S
H453 C428 0.950 . S
H454 C430 0.950 . S
H455 C431 0.949 . S
H456 C433 0.950 . S
H457 C435 0.950 . S
C458 C459 1.349 1_554 S
C458 C460 1.327 . S
C458 H483 0.950 . S
C459 C458 1.349 1_556 S
C459 C475 1.349 . S
C460 C458 1.327 . S
C460 C479 1.429 1_554 S
C460 H484 0.950 . S
C461 C478 1.574 . S
C461 C480 1.368 . S
C461 H485 0.949 . S
H462 C466 0.949 . S
C463 C464 1.349 . S
C463 C465 1.327 . S
C463 H486 0.950 1_655 S
C464 C463 1.349 . S
C464 C476 1.349 . S
C465 C463 1.327 . S
C465 C481 1.429 . S
C465 H487 0.950 . S
C466 H462 0.949 . S
C466 C474 1.574 . S
C466 C482 1.368 . S
H467 C475 0.950 . S
H468 C473 0.950 . S
H469 C474 0.949 1_554 S
H470 C476 0.950 . S
H471 C477 0.950 . S
H472 C478 0.949 . S
C473 H468 0.950 . S
C473 C475 1.327 . S
C473 C479 1.429 . S
C474 C466 1.574 . S
C474 H469 0.949 1_556 S
C474 C480 1.368 . S
C475 C459 1.349 . S
C475 H467 0.950 . S
C475 C473 1.327 . S
C476 C464 1.349 . S
C476 H470 0.950 . S
C476 C477 1.327 . S
C477 H471 0.950 . S
C477 C476 1.327 . S
C477 C481 1.429 . S
C478 C461 1.574 . S
C478 H472 0.949 . S
C478 C482 1.368 . S
C479 C460 1.429 1_556 S
C479 C473 1.429 . S
C479 C480 1.523 . S
C480 C461 1.368 . S
C480 C474 1.368 . S
C480 C479 1.523 . S
C481 C465 1.429 . S
C481 C477 1.429 . S
C481 C482 1.523 . S
C482 C466 1.368 . S
C482 C478 1.368 . S
C482 C481 1.523 . S
H483 C458 0.950 . S
H484 C460 0.950 . S
H485 C461 0.949 . S
H486 C463 0.950 1_455 S
H487 C465 0.950 . S
C488 C489 1.349 . S
C488 C490 1.327 . S
C488 H513 0.950 . S
C489 C488 1.349 . S
C489 C505 1.349 . S
C490 C488 1.327 . S
C490 C509 1.429 . S
C490 H514 0.950 . S
C491 C508 1.574 . S
C491 C510 1.368 . S
C491 H515 0.949 . S
H492 C496 0.949 . S
C493 C494 1.349 . S
C493 C495 1.327 . S
C493 H516 0.950 . S
C494 C493 1.349 . S
C494 C506 1.349 . S
C495 C493 1.327 . S
C495 C511 1.429 . S
C495 H517 0.950 . S
C496 H492 0.949 . S
C496 C504 1.574 . S
C496 C512 1.368 . S
H497 C505 0.950 . S
H498 C503 0.950 . S
H499 C504 0.949 . S
H500 C506 0.950 . S
H501 C507 0.950 . S
H502 C508 0.949 . S
C503 H498 0.950 . S
C503 C505 1.327 . S
C503 C509 1.429 . S
C504 C496 1.574 . S
C504 H499 0.949 . S
C504 C510 1.368 . S
C505 C489 1.349 . S
C505 H497 0.950 . S
C505 C503 1.327 . S
C506 C494 1.349 . S
C506 H500 0.950 . S
C506 C507 1.327 . S
C507 H501 0.950 . S
C507 C506 1.327 . S
C507 C511 1.429 . S
C508 C491 1.574 . S
C508 H502 0.949 . S
C508 C512 1.368 . S
C509 C490 1.429 . S
C509 C503 1.429 . S
C509 C510 1.523 . S
C510 C491 1.368 . S
C510 C504 1.368 . S
C510 C509 1.523 . S
C511 C495 1.429 . S
C511 C507 1.429 . S
C511 C512 1.523 . S
C512 C496 1.368 . S
C512 C508 1.368 . S
C512 C511 1.523 . S
H513 C488 0.950 . S
H514 C490 0.950 . S
H515 C491 0.949 . S
H516 C493 0.950 . S
H517 C495 0.950 . S
C518 C519 1.349 . S
C518 C520 1.327 . S
C518 H543 0.950 . S
C519 C518 1.349 . S
C519 C535 1.349 . S
C520 C518 1.327 . S
C520 C539 1.429 . S
C520 H544 0.950 . S
C521 C538 1.574 . S
C521 C540 1.368 . S
C521 H545 0.949 . S
H522 C526 0.949 . S
C523 C524 1.349 1_565 S
C523 C525 1.328 1_565 S
C523 H546 0.950 . S
C524 C523 1.349 1_545 S
C524 C536 1.349 . S
C525 C523 1.328 1_545 S
C525 C541 1.427 . S
C525 H547 0.950 1_545 S
C526 H522 0.949 . S
C526 C534 1.574 . S
C526 C542 1.368 . S
H527 C535 0.950 . S
H528 C533 0.950 . S
H529 C534 0.949 . S
H530 C536 0.950 . S
H531 C537 0.950 . S
H532 C538 0.975 . S
C533 H528 0.950 . S
C533 C535 1.327 . S
C533 C539 1.429 . S
C534 C526 1.574 . S
C534 H529 0.949 . S
C534 C540 1.368 . S
C535 C519 1.349 . S
C535 H527 0.950 . S
C535 C533 1.327 . S
C536 C524 1.349 . S
C536 H530 0.950 . S
C536 C537 1.327 . S
C537 H531 0.950 . S
C537 C536 1.327 . S
C537 C541 1.429 . S
C538 C521 1.574 . S
C538 H532 0.975 . S
C538 C542 1.368 . S
C539 C520 1.429 . S
C539 C533 1.429 . S
C539 C540 1.523 . S
C540 C521 1.368 . S
C540 C534 1.368 . S
C540 C539 1.523 . S
C541 C525 1.427 . S
C541 C537 1.429 . S
C541 C542 1.523 . S
C542 C526 1.368 . S
C542 C538 1.368 . S
C542 C541 1.523 . S
H543 C518 0.950 . S
H544 C520 0.950 . S
H545 C521 0.949 . S
H546 C523 0.950 . S
H547 C525 0.950 1_565 S
C548 C549 1.349 . S
C548 C550 1.327 . S
C548 H573 0.950 . S
C549 C548 1.349 . S
C549 C565 1.349 . S
C550 C548 1.327 . S
C550 C569 1.429 . S
C550 H574 0.950 . S
C551 C568 1.574 . S
C551 C570 1.368 . S
C551 H575 0.949 . S
H552 C556 0.949 . S
C553 C554 1.349 . S
C553 C555 1.327 . S
C553 H576 0.950 . S
C554 C553 1.349 . S
C554 C566 1.349 . S
C555 C553 1.327 . S
C555 C571 1.429 . S
C555 H577 0.950 . S
C556 H552 0.949 . S
C556 C564 1.574 . S
C556 C572 1.368 . S
H557 C565 0.950 . S
H558 C563 0.950 . S
H559 C564 0.949 . S
H560 C566 0.950 . S
H561 C567 0.950 . S
H562 C568 0.949 . S
C563 H558 0.950 . S
C563 C565 1.327 . S
C563 C569 1.429 . S
C564 C556 1.574 . S
C564 H559 0.949 . S
C564 C570 1.368 . S
C565 C549 1.349 . S
C565 H557 0.950 . S
C565 C563 1.327 . S
C566 C554 1.349 . S
C566 H560 0.950 . S
C566 C567 1.327 . S
C567 H561 0.950 . S
C567 C566 1.327 . S
C567 C571 1.429 . S
C568 C551 1.574 . S
C568 H562 0.949 . S
C568 C572 1.368 . S
C569 C550 1.429 . S
C569 C563 1.429 . S
C569 C570 1.523 . S
C570 C551 1.368 . S
C570 C564 1.368 . S
C570 C569 1.523 . S
C571 C555 1.429 . S
C571 C567 1.429 . S
C571 C572 1.523 . S
C572 C556 1.368 . S
C572 C568 1.368 . S
C572 C571 1.523 . S
H573 C548 0.950 . S
H574 C550 0.950 . S
H575 C551 0.949 . S
H576 C553 0.950 . S
H577 C555 0.950 . S
C578 C579 1.349 . S
C578 C580 1.327 . S
C578 H603 0.950 . S
C579 C578 1.349 . S
C579 C595 1.349 . S
C580 C578 1.327 . S
C580 C599 1.429 . S
C580 H604 0.950 . S
C581 C598 1.574 . S
C581 C600 1.368 . S
C581 H605 0.949 . S
H582 C586 0.949 . S
C583 C584 1.349 . S
C583 C585 1.327 . S
C583 H606 0.950 . S
C584 C583 1.349 . S
C584 C596 1.349 . S
C585 C583 1.327 . S
C585 C601 1.429 . S
C585 H607 0.950 . S
C586 H582 0.949 . S
C586 C594 1.574 . S
C586 C602 1.368 . S
H587 C595 0.950 . S
H588 C593 0.950 . S
H589 C594 0.949 . S
H590 C596 0.950 . S
H591 C597 0.950 . S
H592 C598 0.949 . S
C593 H588 0.950 . S
C593 C595 1.327 . S
C593 C599 1.429 . S
C594 C586 1.574 . S
C594 H589 0.949 . S
C594 C600 1.368 . S
C595 C579 1.349 . S
C595 H587 0.950 . S
C595 C593 1.327 . S
C596 C584 1.349 . S
C596 H590 0.950 . S
C596 C597 1.327 . S
C597 H591 0.950 . S
C597 C596 1.327 . S
C597 C601 1.429 . S
C598 C581 1.574 . S
C598 H592 0.949 . S
C598 C602 1.368 . S
C599 C580 1.429 . S
C599 C593 1.429 . S
C599 C600 1.523 . S
C600 C581 1.368 . S
C600 C594 1.368 . S
C600 C599 1.523 . S
C601 C585 1.429 . S
C601 C597 1.429 . S
C601 C602 1.523 . S
C602 C586 1.368 . S
C602 C598 1.368 . S
C602 C601 1.523 . S
H603 C578 0.950 . S
H604 C580 0.950 . S
H605 C581 0.949 . S
H606 C583 0.950 . S
H607 C585 0.950 . S
C608 C609 1.349 . S
C608 C610 1.327 . S
C608 H633 0.950 . S
C609 C608 1.349 . S
C609 C625 1.349 1_556 S
C610 C608 1.327 . S
C610 C629 1.429 . S
C610 H634 0.950 . S
C611 C628 1.574 . S
C611 C630 1.368 . S
C611 H635 0.949 . S
H612 C616 0.949 . S
C613 C614 1.349 . S
C613 C615 1.329 1_455 S
C613 H636 0.950 . S
C614 C613 1.349 . S
C614 C626 1.349 1_455 S
C615 C613 1.329 1_655 S
C615 C631 1.425 . S
C615 H637 0.952 1_655 S
C616 H612 0.949 . S
C616 C624 1.574 . S
C616 C632 1.368 . S
H617 C625 0.950 . S
H618 C623 0.950 1_554 S
H619 C624 0.949 . S
H620 C626 0.950 . S
H621 C627 0.950 . S
H622 C628 0.949 . S
C623 H618 0.950 1_556 S
C623 C625 1.327 1_556 S
C623 C629 1.429 . S
C624 C616 1.574 . S
C624 H619 0.949 . S
C624 C630 1.368 . S
C625 C609 1.349 1_554 S
C625 H617 0.950 . S
C625 C623 1.327 1_554 S
C626 C614 1.349 1_655 S
C626 H620 0.950 . S
C626 C627 1.327 . S
C627 H621 0.950 . S
C627 C626 1.327 . S
C627 C631 1.429 . S
C628 C611 1.574 . S
C628 H622 0.949 . S
C628 C632 1.368 . S
C629 C610 1.429 . S
C629 C623 1.429 . S
C629 C630 1.523 . S
C630 C611 1.368 . S
C630 C624 1.368 . S
C630 C629 1.523 . S
C631 C615 1.425 . S
C631 C627 1.429 . S
C631 C632 1.523 . S
C632 C616 1.368 . S
C632 C628 1.368 . S
C632 C631 1.523 . S
H633 C608 0.950 . S
H634 C610 0.950 . S
H635 C611 0.949 . S
H636 C613 0.950 . S
H637 C615 0.952 1_455 S
C638 C639 1.349 . S
C638 C640 1.327 . S
C638 H663 0.950 . S
C639 C638 1.349 . S
C639 C655 1.349 . S
C640 C638 1.327 . S
C640 C659 1.429 . S
C640 H664 0.950 . S
C641 C658 1.574 . S
C641 C660 1.368 1_545 S
C641 H665 0.949 . S
H642 C646 0.949 . S
C643 C644 1.349 . S
C643 C645 1.327 . S
C643 H666 0.950 . S
C644 C643 1.349 . S
C644 C656 1.349 . S
C645 C643 1.327 . S
C645 C661 1.429 . S
C645 H667 0.950 . S
C646 H642 0.949 . S
C646 C654 1.574 . S
C646 C662 1.368 1_565 S
H647 C655 0.950 . S
H648 C653 0.950 . S
H649 C654 0.949 . S
H650 C656 0.950 . S
H651 C657 0.950 1_565 S
H652 C658 0.949 . S
C653 H648 0.950 . S
C653 C655 1.327 . S
C653 C659 1.429 . S
C654 C646 1.574 . S
C654 H649 0.949 . S
C654 C660 1.368 . S
C655 C639 1.349 . S
C655 H647 0.950 . S
C655 C653 1.327 . S
C656 C644 1.349 . S
C656 H650 0.950 . S
C656 C657 1.327 . S
C657 H651 0.950 1_545 S
C657 C656 1.327 . S
C657 C661 1.429 . S
C658 C641 1.574 . S
C658 H652 0.949 . S
C658 C662 1.368 . S
C659 C640 1.429 . S
C659 C653 1.429 . S
C659 C660 1.523 . S
C660 C641 1.368 1_565 S
C660 C654 1.368 . S
C660 C659 1.523 . S
C661 C645 1.429 . S
C661 C657 1.429 . S
C661 C662 1.523 . S
C662 C646 1.368 1_545 S
C662 C658 1.368 . S
C662 C661 1.523 . S
H663 C638 0.950 . S
H664 C640 0.950 . S
H665 C641 0.949 . S
H666 C643 0.950 . S
H667 C645 0.950 . S
C668 C669 1.349 . S
C668 C670 1.327 . S
C668 H693 0.950 . S
C669 C668 1.349 . S
C669 C685 1.349 . S
C670 C668 1.327 . S
C670 C689 1.429 . S
C670 H694 0.950 . S
C671 C688 1.574 . S
C671 C690 1.368 . S
C671 H695 0.949 . S
H672 C676 0.949 . S
C673 C674 1.349 1_554 S
C673 C675 1.327 . S
C673 H696 0.950 . S
C674 C673 1.349 1_556 S
C674 C686 1.349 . S
C675 C673 1.327 . S
C675 C691 1.429 . S
C675 H697 0.950 . S
C676 H672 0.949 . S
C676 C684 1.574 . S
C676 C692 1.368 . S
H677 C685 0.950 . S
H678 C683 0.950 . S
H679 C684 0.949 . S
H680 C686 0.950 . S
H681 C687 0.950 1_556 S
H682 C688 0.949 . S
C683 H678 0.950 . S
C683 C685 1.327 . S
C683 C689 1.429 . S
C684 C676 1.574 . S
C684 H679 0.949 . S
C684 C690 1.368 . S
C685 C669 1.349 . S
C685 H677 0.950 . S
C685 C683 1.327 . S
C686 C674 1.349 . S
C686 H680 0.950 . S
C686 C687 1.327 1_556 S
C687 H681 0.950 1_554 S
C687 C686 1.327 1_554 S
C687 C691 1.429 . S
C688 C671 1.574 . S
C688 H682 0.949 . S
C688 C692 1.368 . S
C689 C670 1.429 . S
C689 C683 1.429 . S
C689 C690 1.523 . S
C690 C671 1.368 . S
C690 C684 1.368 . S
C690 C689 1.523 . S
C691 C675 1.429 . S
C691 C687 1.429 . S
C691 C692 1.523 . S
C692 C676 1.368 . S
C692 C688 1.368 . S
C692 C691 1.523 . S
H693 C668 0.950 . S
H694 C670 0.950 . S
H695 C671 0.949 . S
H696 C673 0.950 . S
H697 C675 0.950 . S
C698 C699 1.349 . S
C698 C700 1.327 . S
C698 H723 0.950 . S
C699 C698 1.349 . S
C699 C715 1.349 . S
C700 C698 1.327 . S
C700 C719 1.429 . S
C700 H724 0.950 . S
C701 C718 1.574 . S
C701 C720 1.368 . S
C701 H725 0.949 . S
H702 C706 0.949 . S
C703 C704 1.349 . S
C703 C705 1.327 . S
C703 H726 0.950 . S
C704 C703 1.349 . S
C704 C716 1.349 . S
C705 C703 1.327 . S
C705 C721 1.429 . S
C705 H727 0.950 . S
C706 H702 0.949 . S
C706 C714 1.574 . S
C706 C722 1.368 . S
H707 C715 0.950 1_554 S
H708 C713 0.950 . S
H709 C714 0.949 . S
H710 C716 0.950 . S
H711 C717 0.950 . S
H712 C718 0.949 . S
C713 H708 0.950 . S
C713 C715 1.327 . S
C713 C719 1.429 . S
C714 C706 1.574 . S
C714 H709 0.949 . S
C714 C720 1.368 . S
C715 C699 1.349 . S
C715 H707 0.950 1_556 S
C715 C713 1.327 . S
C716 C704 1.349 . S
C716 H710 0.950 . S
C716 C717 1.327 . S
C717 H711 0.950 . S
C717 C716 1.327 . S
C717 C721 1.429 . S
C718 C701 1.574 . S
C718 H712 0.949 . S
C718 C722 1.368 . S
C719 C700 1.429 . S
C719 C713 1.429 . S
C719 C720 1.523 . S
C720 C701 1.368 . S
C720 C714 1.368 . S
C720 C719 1.523 . S
C721 C705 1.429 . S
C721 C717 1.429 . S
C721 C722 1.523 . S
C722 C706 1.368 . S
C722 C718 1.368 . S
C722 C721 1.523 . S
H723 C698 0.950 . S
H724 C700 0.950 . S
H725 C701 0.949 . S
H726 C703 0.950 . S
H727 C705 0.950 . S
C728 C729 1.349 . S
C728 C730 1.327 . S
C728 H753 0.950 . S
C729 C728 1.349 . S
C729 C745 1.349 . S
C730 C728 1.327 . S
C730 C749 1.429 . S
C730 H754 0.950 . S
C731 C748 1.574 . S
C731 C750 1.368 . S
C731 H755 0.949 . S
H732 C736 0.949 . S
C733 C734 1.349 . S
C733 C735 1.327 . S
C733 H756 0.950 . S
C734 C733 1.349 . S
C734 C746 1.349 . S
C735 C733 1.327 . S
C735 C751 1.429 . S
C735 H757 0.950 . S
C736 H732 0.949 . S
C736 C744 1.574 . S
C736 C752 1.368 . S
H737 C745 0.950 . S
H738 C743 0.950 . S
H739 C744 0.949 . S
H740 C746 0.950 . S
H741 C747 0.950 . S
H742 C748 0.949 . S
C743 H738 0.950 . S
C743 C745 1.327 . S
C743 C749 1.429 . S
C744 C736 1.574 . S
C744 H739 0.949 . S
C744 C750 1.368 . S
C745 C729 1.349 . S
C745 H737 0.950 . S
C745 C743 1.327 . S
C746 C734 1.349 . S
C746 H740 0.950 . S
C746 C747 1.327 . S
C747 H741 0.950 . S
C747 C746 1.327 . S
C747 C751 1.429 . S
C748 C731 1.574 . S
C748 H742 0.949 . S
C748 C752 1.368 . S
C749 C730 1.429 . S
C749 C743 1.429 . S
C749 C750 1.523 . S
C750 C731 1.368 . S
C750 C744 1.368 . S
C750 C749 1.523 . S
C751 C735 1.429 . S
C751 C747 1.429 . S
C751 C752 1.523 . S
C752 C736 1.368 . S
C752 C748 1.368 . S
C752 C751 1.523 . S
H753 C728 0.950 . S
H754 C730 0.950 . S
H755 C731 0.949 . S
H756 C733 0.950 . S
H757 C735 0.950 . S
C758 C759 1.349 . S
C758 C760 1.327 . S
C758 H783 0.950 . S
C759 C758 1.349 . S
C759 C775 1.349 . S
C760 C758 1.327 . S
C760 C779 1.429 . S
C760 H784 0.950 . S
C761 C778 1.574 . S
C761 C780 1.368 . S
C761 H785 0.949 . S
H762 C766 0.949 . S
C763 C764 1.349 . S
C763 C765 1.327 . S
C763 H786 0.950 . S
C764 C763 1.349 . S
C764 C776 1.349 . S
C765 C763 1.327 . S
C765 C781 1.429 . S
C765 H787 0.950 . S
C766 H762 0.949 . S
C766 C774 1.574 . S
C766 C782 1.368 . S
H767 C775 0.950 . S
H768 C773 0.950 . S
H769 C774 0.949 . S
H770 C776 0.950 . S
H771 C777 0.950 . S
H772 C778 0.949 . S
C773 H768 0.950 . S
C773 C775 1.327 . S
C773 C779 1.429 . S
C774 C766 1.574 . S
C774 H769 0.949 . S
C774 C780 1.368 . S
C775 C759 1.349 . S
C775 H767 0.950 . S
C775 C773 1.327 . S
C776 C764 1.349 . S
C776 H770 0.950 . S
C776 C777 1.327 . S
C777 H771 0.950 . S
C777 C776 1.327 . S
C777 C781 1.429 . S
C778 C761 1.574 . S
C778 H772 0.949 . S
C778 C782 1.368 . S
C779 C760 1.429 . S
C779 C773 1.429 . S
C779 C780 1.523 . S
C780 C761 1.368 . S
C780 C774 1.368 . S
C780 C779 1.523 . S
C781 C765 1.429 . S
C781 C777 1.429 . S
C781 C782 1.523 . S
C782 C766 1.368 . S
C782 C778 1.368 . S
C782 C781 1.523 . S
H783 C758 0.950 . S
H784 C760 0.950 . S
H785 C761 0.949 . S
H786 C763 0.950 . S
H787 C765 0.950 . S
C788 C789 1.349 . S
C788 C790 1.327 . S
C788 H813 0.950 . S
C789 C788 1.349 . S
C789 C805 1.349 . S
C790 C788 1.327 . S
C790 C809 1.429 . S
C790 H814 0.950 . S
C791 C808 1.574 . S
C791 C810 1.368 1_556 S
C791 H815 0.949 . S
H792 C796 0.949 . S
C793 C794 1.349 . S
C793 C795 1.327 . S
C793 H816 0.950 . S
C794 C793 1.349 . S
C794 C806 1.349 . S
C795 C793 1.327 . S
C795 C811 1.429 . S
C795 H817 0.950 . S
C796 H792 0.949 . S
C796 C804 1.574 . S
C796 C812 1.368 1_554 S
H797 C805 0.950 . S
H798 C803 0.950 . S
H799 C804 0.949 . S
H800 C806 0.950 . S
H801 C807 0.950 1_554 S
H802 C808 0.949 . S
C803 H798 0.950 . S
C803 C805 1.327 . S
C803 C809 1.429 . S
C804 C796 1.574 . S
C804 H799 0.949 . S
C804 C810 1.368 . S
C805 C789 1.349 . S
C805 H797 0.950 . S
C805 C803 1.327 . S
C806 C794 1.349 . S
C806 H800 0.950 . S
C806 C807 1.327 . S
C807 H801 0.950 1_556 S
C807 C806 1.327 . S
C807 C811 1.429 . S
C808 C791 1.574 . S
C808 H802 0.949 . S
C808 C812 1.368 . S
C809 C790 1.429 . S
C809 C803 1.429 . S
C809 C810 1.523 . S
C810 C791 1.368 1_554 S
C810 C804 1.368 . S
C810 C809 1.523 . S
C811 C795 1.429 . S
C811 C807 1.429 . S
C811 C812 1.523 . S
C812 C796 1.368 1_556 S
C812 C808 1.368 . S
C812 C811 1.523 . S
H813 C788 0.950 . S
H814 C790 0.950 . S
H815 C791 0.949 . S
H816 C793 0.950 . S
H817 C795 0.950 . S
C818 C819 1.349 . S
C818 C820 1.327 . S
C818 H843 0.950 . S
C819 C818 1.349 . S
C819 C835 1.349 . S
C820 C818 1.327 . S
C820 C839 1.429 . S
C820 H844 0.950 . S
C821 C838 1.574 . S
C821 C840 1.368 . S
C821 H845 0.949 . S
H822 C826 0.949 . S
C823 C824 1.349 . S
C823 C825 1.327 . S
C823 H846 0.950 . S
C824 C823 1.349 . S
C824 C836 1.349 . S
C825 C823 1.327 . S
C825 C841 1.429 . S
C825 H847 0.950 . S
C826 H822 0.949 . S
C826 C834 1.574 . S
C826 C842 1.368 . S
H827 C835 0.950 . S
H828 C833 0.950 . S
H829 C834 0.949 . S
H830 C836 0.950 . S
H831 C837 0.950 . S
H832 C838 0.949 . S
C833 H828 0.950 . S
C833 C835 1.327 . S
C833 C839 1.429 . S
C834 C826 1.574 . S
C834 H829 0.949 . S
C834 C840 1.368 . S
C835 C819 1.349 . S
C835 H827 0.950 . S
C835 C833 1.327 . S
C836 C824 1.349 . S
C836 H830 0.950 . S
C836 C837 1.327 . S
C837 H831 0.950 . S
C837 C836 1.327 . S
C837 C841 1.429 . S
C838 C821 1.574 . S
C838 H832 0.949 . S
C838 C842 1.368 . S
C839 C820 1.429 . S
C839 C833 1.429 . S
C839 C840 1.523 . S
C840 C821 1.368 . S
C840 C834 1.368 . S
C840 C839 1.523 . S
C841 C825 1.429 . S
C841 C837 1.429 . S
C841 C842 1.523 . S
C842 C826 1.368 . S
C842 C838 1.368 . S
C842 C841 1.523 . S
H843 C818 0.950 . S
H844 C820 0.950 . S
H845 C821 0.949 . S
H846 C823 0.950 . S
H847 C825 0.950 . S
C848 C849 1.349 . S
C848 C850 1.327 . S
C848 H873 0.950 . S
C849 C848 1.349 . S
C849 C865 1.349 . S
C850 C848 1.327 . S
C850 C869 1.429 . S
C850 H874 0.950 . S
C851 C868 1.574 . S
C851 C870 1.368 . S
C851 H875 0.949 . S
H852 C856 0.949 . S
C853 C854 1.349 . S
C853 C855 1.327 . S
C853 H876 0.950 . S
C854 C853 1.349 . S
C854 C866 1.349 . S
C855 C853 1.327 . S
C855 C871 1.429 . S
C855 H877 0.950 . S
C856 H852 0.949 . S
C856 C864 1.574 . S
C856 C872 1.368 . S
H857 C865 0.950 . S
H858 C863 0.950 . S
H859 C864 0.949 . S
H860 C866 0.950 . S
H861 C867 0.950 . S
H862 C868 0.949 . S
C863 H858 0.950 . S
C863 C865 1.327 . S
C863 C869 1.429 . S
C864 C856 1.574 . S
C864 H859 0.949 . S
C864 C870 1.368 . S
C865 C849 1.349 . S
C865 H857 0.950 . S
C865 C863 1.327 . S
C866 C854 1.349 . S
C866 H860 0.950 . S
C866 C867 1.327 . S
C867 H861 0.950 . S
C867 C866 1.327 . S
C867 C871 1.429 . S
C868 C851 1.574 . S
C868 H862 0.949 . S
C868 C872 1.368 . S
C869 C850 1.429 . S
C869 C863 1.429 . S
C869 C870 1.523 . S
C870 C851 1.368 . S
C870 C864 1.368 . S
C870 C869 1.523 . S
C871 C855 1.429 . S
C871 C867 1.429 . S
C871 C872 1.523 . S
C872 C856 1.368 . S
C872 C868 1.368 . S
C872 C871 1.523 . S
H873 C848 0.950 . S
H874 C850 0.950 . S
H875 C851 0.949 . S
H876 C853 0.950 . S
H877 C855 0.950 . S
C878 C879 1.349 . S
C878 C880 1.327 . S
C878 H903 0.950 . S
C879 C878 1.349 . S
C879 C895 1.349 . S
C880 C878 1.327 . S
C880 C899 1.429 . S
C880 H904 0.950 . S
C881 C898 1.574 . S
C881 C900 1.368 . S
C881 H905 0.951 1_565 S
H882 C886 0.949 . S
C883 C884 1.349 . S
C883 C885 1.327 . S
C883 H906 0.950 . S
C884 C883 1.349 . S
C884 C896 1.349 . S
C885 C883 1.327 . S
C885 C901 1.429 . S
C885 H907 0.950 . S
C886 H882 0.949 . S
C886 C894 1.574 . S
C886 C902 1.368 . S
H887 C895 0.942 1_545 S
H888 C893 0.938 1_545 S
H889 C894 0.949 . S
H890 C896 0.950 . S
H891 C897 0.950 . S
H892 C898 0.970 . S
C893 H888 0.938 1_565 S
C893 C895 1.327 . S
C893 C899 1.429 . S
C894 C886 1.574 . S
C894 H889 0.949 . S
C894 C900 1.368 . S
C895 C879 1.349 . S
C895 H887 0.942 1_565 S
C895 C893 1.327 . S
C896 C884 1.349 . S
C896 H890 0.950 . S
C896 C897 1.327 . S
C897 H891 0.950 . S
C897 C896 1.327 . S
C897 C901 1.429 . S
C898 C881 1.574 . S
C898 H892 0.970 . S
C898 C902 1.368 . S
C899 C880 1.429 . S
C899 C893 1.429 . S
C899 C900 1.523 . S
C900 C881 1.368 . S
C900 C894 1.368 . S
C900 C899 1.523 . S
C901 C885 1.429 . S
C901 C897 1.429 . S
C901 C902 1.523 . S
C902 C886 1.368 . S
C902 C898 1.368 . S
C902 C901 1.523 . S
H903 C878 0.950 . S
H904 C880 0.950 . S
H905 C881 0.951 1_545 S
H906 C883 0.950 . S
H907 C885 0.950 . S
C908 C909 1.349 . S
C908 C910 1.327 . S
C908 H933 0.950 . S
C909 C908 1.349 . S
C909 C925 1.349 . S
C910 C908 1.327 . S
C910 C929 1.429 . S
C910 H934 0.950 . S
C911 C928 1.574 . S
C911 C930 1.368 . S
C911 H935 0.949 . S
H912 C916 0.949 . S
C913 C914 1.349 . S
C913 C915 1.327 . S
C913 H936 0.950 . S
C914 C913 1.349 . S
C914 C926 1.349 . S
C915 C913 1.327 . S
C915 C931 1.429 . S
C915 H937 0.950 . S
C916 H912 0.949 . S
C916 C924 1.574 . S
C916 C932 1.368 . S
H917 C925 0.950 . S
H918 C923 0.950 . S
H919 C924 0.949 . S
H920 C926 0.950 . S
H921 C927 0.950 . S
H922 C928 0.949 . S
C923 H918 0.950 . S
C923 C925 1.327 . S
C923 C929 1.429 . S
C924 C916 1.574 . S
C924 H919 0.949 . S
C924 C930 1.368 . S
C925 C909 1.349 . S
C925 H917 0.950 . S
C925 C923 1.327 . S
C926 C914 1.349 . S
C926 H920 0.950 . S
C926 C927 1.327 . S
C927 H921 0.950 . S
C927 C926 1.327 . S
C927 C931 1.429 . S
C928 C911 1.574 . S
C928 H922 0.949 . S
C928 C932 1.368 . S
C929 C910 1.429 . S
C929 C923 1.429 . S
C929 C930 1.523 . S
C930 C911 1.368 . S
C930 C924 1.368 . S
C930 C929 1.523 . S
C931 C915 1.429 . S
C931 C927 1.429 . S
C931 C932 1.523 . S
C932 C916 1.368 . S
C932 C928 1.368 . S
C932 C931 1.523 . S
H933 C908 0.950 . S
H934 C910 0.950 . S
H935 C911 0.949 . S
H936 C913 0.950 . S
H937 C915 0.950 . S
C938 C939 1.349 . S
C938 C940 1.327 . S
C938 H963 0.950 . S
C939 C938 1.349 . S
C939 C955 1.349 . S
C940 C938 1.327 . S
C940 C959 1.429 . S
C940 H964 0.950 . S
C941 C958 1.574 . S
C941 C960 1.368 . S
C941 H965 0.949 . S
H942 C946 0.949 . S
C943 C944 1.349 . S
C943 C945 1.327 . S
C943 H966 0.950 . S
C944 C943 1.349 . S
C944 C956 1.349 . S
C945 C943 1.327 . S
C945 C961 1.429 . S
C945 H967 0.950 . S
C946 H942 0.949 . S
C946 C954 1.574 . S
C946 C962 1.368 . S
H947 C955 0.950 . S
H948 C953 0.950 . S
H949 C954 0.949 . S
H950 C956 0.950 . S
H951 C957 0.950 . S
H952 C958 0.949 . S
C953 H948 0.950 . S
C953 C955 1.327 . S
C953 C959 1.429 . S
C954 C946 1.574 . S
C954 H949 0.949 . S
C954 C960 1.368 . S
C955 C939 1.349 . S
C955 H947 0.950 . S
C955 C953 1.327 . S
C956 C944 1.349 . S
C956 H950 0.950 . S
C956 C957 1.327 . S
C957 H951 0.950 . S
C957 C956 1.327 . S
C957 C961 1.429 . S
C958 C941 1.574 . S
C958 H952 0.949 . S
C958 C962 1.368 . S
C959 C940 1.429 . S
C959 C953 1.429 . S
C959 C960 1.523 . S
C960 C941 1.368 . S
C960 C954 1.368 . S
C960 C959 1.523 . S
C961 C945 1.429 . S
C961 C957 1.429 . S
C961 C962 1.523 . S
C962 C946 1.368 . S
C962 C958 1.368 . S
C962 C961 1.523 . S
H963 C938 0.950 . S
H964 C940 0.950 . S
H965 C941 0.949 . S
H966 C943 0.950 . S
H967 C945 0.950 . S
C249 C74 1.317 . S
C254 C97 1.275 . S
C284 C137 1.262 . S
C279 C85 1.326 . S
C314 C186 1.364 . S
C309 C52 1.373 . S
C344 C217 1.838 . S
C339 C63 1.916 . S
C374 C106 1.276 . S
C369 C30 1.299 . S
C399 C41 1.286 . S
C404 C146 1.260 . S
C429 C8 1.409 . S
C434 C177 1.365 . S
C459 C19 1.844 1_556 S
C464 C226 1.838 1_655 S
C494 C107 0.987 . S
C489 C62 0.984 . S
C524 C147 0.963 . S
C519 C73 0.959 . S
C554 C183 0.718 . S
C549 C84 0.718 . S
C579 C51 1.112 . S
C584 C227 1.151 . S
C609 C18 0.934 . S
C614 C98 0.987 . S
C644 C138 0.962 . S
C639 C29 0.938 . S
C674 C174 0.718 . S
C669 C40 0.723 . S
C699 C7 1.145 . S
C704 C218 1.151 . S
C729 C60 1.557 . S
C734 C103 1.741 . S
C759 C71 1.239 . S
C764 C143 1.444 . S
C794 C187 1.962 . S
C789 C82 1.661 . S
C824 C223 1.389 . S
C819 C49 1.104 . S
C849 C16 1.371 . S
C854 C94 1.742 . S
C884 C134 1.442 . S
C879 C27 1.246 . S
C914 C178 1.962 . S
C909 C38 1.489 . S
C939 C5 1.273 . S
C944 C214 1.390 . S
