# Generated by pormake.
# Topology csq, (4,8)-cn, num edge types: 1
# Building blocks:
#     Node 0, Type 0, BuildingBlock: NAWXER_clean_sbu_0, # of connection points: 4
#     Node 1, Type 0, BuildingBlock: NAWXER_clean_sbu_0, # of connection points: 4
#     Node 2, Type 0, BuildingBlock: NAWXER_clean_sbu_0, # of connection points: 4
#     Node 3, Type 0, BuildingBlock: NAWXER_clean_sbu_0, # of connection points: 4
#     Node 4, Type 0, BuildingBlock: NAWXER_clean_sbu_0, # of connection points: 4
#     Node 5, Type 0, BuildingBlock: NAWXER_clean_sbu_0, # of connection points: 4
#     Node 6, Type 1, BuildingBlock: TAGTUT_clean_sbu_1, # of connection points: 8
#     Node 7, Type 1, BuildingBlock: TAGTUT_clean_sbu_1, # of connection points: 8
#     Node 8, Type 1, BuildingBlock: TAGTUT_clean_sbu_1, # of connection points: 8
#     Edge 9, Type (0, 1), BuildingBlock: MIFKUJ_clean_linker_0, # of connection points: 2
#     Edge 10, Type (0, 1), BuildingBlock: MIFKUJ_clean_linker_0, # of connection points: 2
#     Edge 11, Type (0, 1), BuildingBlock: MIFKUJ_clean_linker_0, # of connection points: 2
#     Edge 12, Type (0, 1), BuildingBlock: MIFKUJ_clean_linker_0, # of connection points: 2
#     Edge 13, Type (0, 1), BuildingBlock: MIFKUJ_clean_linker_0, # of connection points: 2
#     Edge 14, Type (0, 1), BuildingBlock: MIFKUJ_clean_linker_0, # of connection points: 2
#     Edge 15, Type (0, 1), BuildingBlock: MIFKUJ_clean_linker_0, # of connection points: 2
#     Edge 16, Type (0, 1), BuildingBlock: MIFKUJ_clean_linker_0, # of connection points: 2
#     Edge 17, Type (0, 1), BuildingBlock: MIFKUJ_clean_linker_0, # of connection points: 2
#     Edge 18, Type (0, 1), BuildingBlock: MIFKUJ_clean_linker_0, # of connection points: 2
#     Edge 19, Type (0, 1), BuildingBlock: MIFKUJ_clean_linker_0, # of connection points: 2
#     Edge 20, Type (0, 1), BuildingBlock: MIFKUJ_clean_linker_0, # of connection points: 2
#     Edge 21, Type (0, 1), BuildingBlock: MIFKUJ_clean_linker_0, # of connection points: 2
#     Edge 22, Type (0, 1), BuildingBlock: MIFKUJ_clean_linker_0, # of connection points: 2
#     Edge 23, Type (0, 1), BuildingBlock: MIFKUJ_clean_linker_0, # of connection points: 2
#     Edge 24, Type (0, 1), BuildingBlock: MIFKUJ_clean_linker_0, # of connection points: 2
#     Edge 25, Type (0, 1), BuildingBlock: MIFKUJ_clean_linker_0, # of connection points: 2
#     Edge 26, Type (0, 1), BuildingBlock: MIFKUJ_clean_linker_0, # of connection points: 2
#     Edge 27, Type (0, 1), BuildingBlock: MIFKUJ_clean_linker_0, # of connection points: 2
#     Edge 28, Type (0, 1), BuildingBlock: MIFKUJ_clean_linker_0, # of connection points: 2
#     Edge 29, Type (0, 1), BuildingBlock: MIFKUJ_clean_linker_0, # of connection points: 2
#     Edge 30, Type (0, 1), BuildingBlock: MIFKUJ_clean_linker_0, # of connection points: 2
#     Edge 31, Type (0, 1), BuildingBlock: MIFKUJ_clean_linker_0, # of connection points: 2
#     Edge 32, Type (0, 1), BuildingBlock: MIFKUJ_clean_linker_0, # of connection points: 2
# Relax obj value: 0.042
# Max RMSD: 0.131
# Mean RMSD: 0.074
data_MOF--net-csq--node1-NAWXER_clean_sbu_0--node2-TAGTUT_clean_sbu_1--edge1-MIFKUJ_clean_linker_0
_symmetry_space_group_name_H-M    P1
_symmetry_Int_Tables_number       1
_symmetry_cell_setting            triclinic
loop_
_symmetry_equiv_pos_as_xyz
'x, y, z'
_cell_length_a     63.870907
_cell_length_b     63.083844
_cell_length_c     25.039997
_cell_angle_alpha  92.423463
_cell_angle_beta   92.057139
_cell_angle_gamma 119.88949
loop_
_atom_site_label
_atom_site_type_symbol
_atom_site_fract_x
_atom_site_fract_y
_atom_site_fract_z
_atom_type_partial_charge
C0 C 0.2974 0.51126 0.11374 0.0
C1 C 0.23801 0.50997 0.238 0.0
O2 O 0.29904 0.52986 0.13988 0.0
Zn3 Zn 0.26909 0.51255 0.17837 0.0
O4 O 0.2798 0.48994 0.12122 0.0
Zn5 Zn 0.24884 0.47295 0.16659 0.0
O6 O 0.22324 0.45724 0.10953 0.0
O7 O 0.24148 0.49769 0.11464 0.0
O8 O 0.23374 0.48896 0.21855 0.0
O9 O 0.25685 0.52924 0.22531 0.0
O10 O 0.2776 0.49387 0.23608 0.0
O11 O 0.25647 0.45398 0.21531 0.0
C12 C 0.22539 0.4769 0.09224 0.0
C13 C 0.27177 0.47199 0.24649 0.0
C14 C 0.74702 0.20618 0.06184 0.0
C15 C 0.81168 0.26582 0.18889 0.0
O16 O 0.76553 0.20541 0.07946 0.0
Zn17 Zn 0.77939 0.23491 0.12726 0.0
O18 O 0.74382 0.22379 0.07844 0.0
Zn19 Zn 0.76135 0.25596 0.13153 0.0
O20 O 0.76966 0.28236 0.08395 0.0
O21 O 0.79027 0.26312 0.07288 0.0
O22 O 0.79477 0.27067 0.17868 0.0
O23 O 0.80999 0.2462 0.16816 0.0
O24 O 0.75448 0.22584 0.18881 0.0
O25 O 0.73791 0.24925 0.18498 0.0
C26 C 0.7858 0.28002 0.06037 0.0
C27 C 0.73991 0.23245 0.20683 0.0
C28 C 0.56788 0.80772 0.13285 0.0
C29 C 0.57863 0.759 0.99476 0.0
O30 O 0.58724 0.80835 0.12019 0.0
Zn31 Zn 0.57302 0.78313 0.0637 0.0
O32 O 0.54756 0.79168 0.10909 0.0
Zn33 Zn 0.53523 0.76294 0.04608 0.0
O34 O 0.51539 0.73285 0.08015 0.0
O35 O 0.55421 0.75022 0.10501 0.0
O36 O 0.55628 0.75266 0.99773 0.0
O37 O 0.59479 0.77654 0.02534 0.0
O38 O 0.55897 0.79857 0.00657 0.0
O39 O 0.51953 0.77337 0.99531 0.0
C40 C 0.53245 0.73253 0.1071 0.0
C41 C 0.53822 0.79312 0.98478 0.0
C42 C 0.78711 0.50946 0.98904 0.0
C43 C 0.73081 0.50845 0.12138 0.0
O44 O 0.79227 0.53067 0.00915 0.0
Zn45 Zn 0.77882 0.54687 0.06507 0.0
O46 O 0.76871 0.49052 0.00417 0.0
Zn47 Zn 0.75822 0.50731 0.05519 0.0
O48 O 0.74692 0.52604 0.00359 0.0
O49 O 0.77058 0.5661 0.01829 0.0
O50 O 0.72964 0.48976 0.09672 0.0
O51 O 0.74797 0.52988 0.11244 0.0
O52 O 0.80528 0.56246 0.12042 0.0
O53 O 0.78689 0.52204 0.11587 0.0
C54 C 0.75264 0.54785 0.99266 0.0
C55 C 0.80338 0.54284 0.13726 0.0
C56 C 0.23162 0.72426 0.14242 0.0
C57 C 0.27982 0.77726 0.00598 0.0
O58 O 0.22915 0.74309 0.1384 0.0
Zn59 Zn 0.24244 0.77463 0.09216 0.0
O60 O 0.24634 0.72166 0.11379 0.0
Zn61 Zn 0.25677 0.75127 0.07636 0.0
O62 O 0.2768 0.78011 0.13797 0.0
O63 O 0.25805 0.80136 0.14606 0.0
O64 O 0.27939 0.75821 0.02194 0.0
O65 O 0.267 0.78514 0.02848 0.0
O66 O 0.21232 0.76852 0.05753 0.0
O67 O 0.22365 0.742 0.03134 0.0
C68 C 0.27524 0.79784 0.16077 0.0
C69 C 0.20849 0.74969 0.02883 0.0
C70 C 0.46347 0.25631 0.23759 0.0
C71 C 0.46918 0.20685 0.09258 0.0
O72 O 0.4855 0.26267 0.22936 0.0
Zn73 Zn 0.50462 0.25237 0.17452 0.0
O74 O 0.44625 0.23917 0.20805 0.0
Zn75 Zn 0.46624 0.23276 0.163 0.0
O76 O 0.48172 0.21784 0.21715 0.0
O77 O 0.5215 0.24157 0.22216 0.0
O78 O 0.45039 0.20693 0.1072 0.0
O79 O 0.49004 0.22292 0.11381 0.0
O80 O 0.52297 0.28191 0.13674 0.0
O81 O 0.48355 0.26582 0.12249 0.0
C82 C 0.5027 0.22265 0.23588 0.0
C83 C 0.50511 0.28297 0.11587 0.0
C84 C 0.98344 0.45298 0.78342 0.0
C85 C 0.056 0.48766 0.72583 0.0
C86 C 0.04081 0.56141 0.67599 0.0
Mg87 Mg 0.00467 0.45673 0.67236 0.0
O88 O 1.00104 0.48436 0.67455 0.0
Mg89 Mg 0.01689 0.50928 0.73711 0.0
Mg90 Mg 0.0109 0.50618 0.61442 0.0
O91 O 0.02107 0.52797 0.55416 0.0
Mg92 Mg 0.01973 0.55678 0.55548 0.0
Mg93 Mg 0.00488 0.50327 0.49184 0.0
C94 C 0.98476 0.45224 0.55037 0.0
C95 C 0.04897 0.49759 0.54446 0.0
O96 O 0.99468 0.47654 0.78983 0.0
O97 O 0.98442 0.44147 0.74098 0.0
O98 O 0.04958 0.50268 0.74428 0.0
O99 O 0.04196 0.46926 0.69379 0.0
O100 O 0.99019 0.443 0.58974 0.0
O101 O 0.98745 0.47388 0.55421 0.0
C102 C 0.97241 0.5142 0.68434 0.0
O103 O 0.97811 0.51118 0.63692 0.0
O104 O 0.98465 0.51475 0.72642 0.0
O105 O 0.02722 0.53537 0.4373 0.0
O106 O 0.03935 0.57088 0.48571 0.0
O107 O 0.97281 0.51122 0.48652 0.0
C108 C 0.03932 0.55894 0.44301 0.0
O109 O 0.98252 0.54537 0.53706 0.0
O110 O 0.03699 0.57125 0.63561 0.0
C111 C 0.96752 0.52703 0.5059 0.0
O112 O 0.03431 0.53854 0.67466 0.0
O113 O 0.0435 0.50099 0.59186 0.0
O114 O 0.03674 0.49704 0.50229 0.0
C115 C 0.46336 0.01526 0.76443 0.0
C116 C 0.44129 0.94794 0.67052 0.0
C117 C 0.53573 0.97703 0.67526 0.0
Mg118 Mg 0.46028 0.00132 0.64288 0.0
O119 O 0.49222 0.00904 0.66253 0.0
Mg120 Mg 0.49714 0.99115 0.72154 0.0
Mg121 Mg 0.51115 0.0033 0.60831 0.0
O122 O 0.53031 0.99779 0.55426 0.0
Mg123 Mg 0.56277 0.00794 0.57582 0.0
Mg124 Mg 0.52473 0.0149 0.49438 0.0
C125 C 0.48694 0.03054 0.54164 0.0
C126 C 0.47373 0.96596 0.51202 0.0
O127 O 0.47769 0.00675 0.77309 0.0
O128 O 0.45494 0.01553 0.71735 0.0
O129 O 0.46084 0.95594 0.69993 0.0
O130 O 0.43727 0.96197 0.64185 0.0
O131 O 0.4683 0.02196 0.56993 0.0
O132 O 0.50487 0.02724 0.55276 0.0
C133 C 0.54871 0.03958 0.70576 0.0
O134 O 0.54509 0.03512 0.65472 0.0
O135 O 0.53318 0.02607 0.73807 0.0
O136 O 0.54508 -8e-05 0.44429 0.0
O137 O 0.56963 0.99446 0.50219 0.0
O138 O 0.56044 0.05075 0.51422 0.0
C139 C 0.56074 0.99324 0.45463 0.0
O140 O 0.58434 0.04768 0.57662 0.0
O141 O 0.55488 0.98708 0.64859 0.0
C142 C 0.57983 0.06039 0.54468 0.0
O143 O 0.51711 0.97904 0.66312 0.0
O144 O 0.47741 0.9713 0.56274 0.0
O145 O 0.48903 0.97914 0.47893 0.0
C146 C 0.52766 0.55149 0.43469 0.0
C147 C 0.56604 0.51541 0.48988 0.0
C148 C 0.47834 0.44994 0.56303 0.0
Mg149 Mg 0.55098 0.55007 0.54472 0.0
O150 O 0.51917 0.5246 0.55031 0.0
Mg151 Mg 0.50595 0.49722 0.49262 0.0
Mg152 Mg 0.51124 0.50534 0.61513 0.0
O153 O 0.50299 0.48594 0.67986 0.0
Mg154 Mg 0.47087 0.46122 0.68599 0.0
Mg155 Mg 0.51723 0.51297 0.73795 0.0
C156 C 0.54443 0.56094 0.66819 0.0
C157 C 0.56117 0.51402 0.67473 0.0
O158 O 0.51382 0.52799 0.43284 0.0
O159 O 0.54274 0.56361 0.47464 0.0
O160 O 0.54348 0.50095 0.47741 0.0
O161 O 0.57335 0.53505 0.51971 0.0
O162 O 0.55614 0.56761 0.62549 0.0
O163 O 0.5252 0.53992 0.67012 0.0
C164 C 0.46031 0.49346 0.55433 0.0
O165 O 0.47222 0.49883 0.60008 0.0
O166 O 0.46972 0.49278 0.51046 0.0
O167 O 0.5089 0.482 0.79635 0.0
O168 O 0.47914 0.44683 0.75489 0.0
O169 O 0.48079 0.51079 0.75494 0.0
C170 C 0.49479 0.45857 0.7942 0.0
O171 O 0.44975 0.47772 0.71238 0.0
O172 O 0.46605 0.44375 0.60505 0.0
C173 C 0.45807 0.49733 0.74295 0.0
O174 O 0.49786 0.47073 0.56121 0.0
O175 O 0.54988 0.51119 0.6292 0.0
O176 O 0.55219 0.51477 0.71908 0.0
H177 H 0.24215 0.54958 0.29989 0.0
H178 H 0.21285 0.54939 0.36153 0.0
H179 H 0.1657 0.47208 0.32136 0.0
H180 H 0.19436 0.47211 0.26031 0.0
H181 H 0.14102 0.49588 0.31819 0.0
H182 H 0.20004 0.49331 0.43974 0.0
H183 H 0.24083 0.50859 0.48268 0.0
H184 H 0.24314 0.57496 0.53943 0.0
H185 H 0.20246 0.5602 0.49615 0.0
H186 H 0.05263 0.45975 0.50022 0.0
H187 H 0.08811 0.46281 0.45886 0.0
H188 H 0.13048 0.53838 0.52002 0.0
H189 H 0.09521 0.53479 0.56395 0.0
H190 H 0.1592 0.51933 0.51304 0.0
H191 H 0.09913 0.52086 0.39335 0.0
H192 H 0.05815 0.50486 0.35058 0.0
H193 H 0.05814 0.44042 0.28847 0.0
H194 H 0.09889 0.45572 0.33172 0.0
C195 C 0.22551 0.53259 0.30422 0.0
C196 C 0.22069 0.51089 0.27502 0.0
C197 C 0.20884 0.53246 0.33969 0.0
C198 C 0.18707 0.51065 0.34639 0.0
C199 C 0.18229 0.48913 0.31698 0.0
C200 C 0.19883 0.48921 0.28201 0.0
C201 C 0.1687 0.50986 0.38267 0.0
C202 C 0.145 0.50084 0.36087 0.0
C203 C 0.17392 0.51691 0.43818 0.0
C204 C 0.19835 0.52578 0.46415 0.0
C205 C 0.20934 0.51126 0.46095 0.0
C206 C 0.23242 0.5198 0.48544 0.0
C207 C 0.2446 0.54277 0.51362 0.0
C208 C 0.2337 0.5572 0.51749 0.0
C209 C 0.21063 0.54875 0.49301 0.0
C210 C 0.06984 0.47663 0.50685 0.0
C211 C 0.07134 0.49693 0.53574 0.0
C212 C 0.09003 0.47853 0.48252 0.0
C213 C 0.11183 0.5011 0.48465 0.0
C214 C 0.11388 0.52082 0.51734 0.0
C215 C 0.09377 0.51872 0.54281 0.0
C216 C 0.13137 0.50474 0.44866 0.0
C217 C 0.15526 0.51447 0.47034 0.0
C218 C 0.12638 0.49837 0.39277 0.0
C219 C 0.102 0.48936 0.36614 0.0
C220 C 0.09035 0.50322 0.37081 0.0
C221 C 0.06717 0.49428 0.34649 0.0
C222 C 0.05558 0.47167 0.31688 0.0
C223 C 0.06714 0.45793 0.31145 0.0
C224 C 0.09027 0.46672 0.33586 0.0
H225 H 0.03766 0.4648 0.29808 0.0
H226 H 0.26246 0.54935 0.53257 0.0
H227 H 0.74924 0.20658 0.27846 0.0
H228 H 0.72424 0.18312 0.34902 0.0
H229 H 0.67257 0.20594 0.30837 0.0
H230 H 0.6981 0.23027 0.23827 0.0
H231 H 0.67647 0.20396 0.41423 0.0
H232 H 0.66345 0.15063 0.26216 0.0
H233 H 0.67432 0.13199 0.18763 0.0
H234 H 0.70586 0.10445 0.29963 0.0
H235 H 0.69575 0.12351 0.37494 0.0
H236 H 0.57341 0.09617 0.50316 0.0
H237 H 0.60379 0.13188 0.46077 0.0
H238 H 0.65924 0.1169 0.51791 0.0
H239 H 0.62894 0.08109 0.56073 0.0
H240 H 0.65371 0.11631 0.40673 0.0
H241 H 0.66112 0.16873 0.56013 0.0
H242 H 0.6471 0.18716 0.62868 0.0
H243 H 0.62026 0.21453 0.5057 0.0
H244 H 0.6336 0.19577 0.43637 0.0
C245 C 0.73265 0.2068 0.2847 0.0
C246 C 0.72547 0.22002 0.25229 0.0
C247 C 0.71835 0.19333 0.32508 0.0
C248 C 0.69625 0.19231 0.33328 0.0
C249 C 0.6895 0.20637 0.30262 0.0
C250 C 0.70405 0.2202 0.2625 0.0
C251 C 0.67976 0.17546 0.37179 0.0
C252 C 0.67126 0.18472 0.41234 0.0
C253 C 0.67302 0.15037 0.3694 0.0
C254 C 0.67906 0.13874 0.32424 0.0
C255 C 0.67289 0.14078 0.27093 0.0
C256 C 0.67889 0.13011 0.22853 0.0
C257 C 0.69077 0.11703 0.23887 0.0
C258 C 0.69668 0.11461 0.29168 0.0
C259 C 0.69085 0.12537 0.33426 0.0
C260 C 0.59222 0.10099 0.50849 0.0
C261 C 0.59875 0.08563 0.53481 0.0
C262 C 0.60958 0.12152 0.4844 0.0
C263 C 0.63377 0.1271 0.4863 0.0
C264 C 0.64066 0.11297 0.51628 0.0
C265 C 0.62334 0.09257 0.54097 0.0
C266 C 0.65076 0.14484 0.44998 0.0
C267 C 0.65913 0.1356 0.40916 0.0
C268 C 0.65663 0.16969 0.45128 0.0
C269 C 0.64813 0.18054 0.49299 0.0
C270 C 0.6519 0.17834 0.54766 0.0
C271 C 0.64414 0.18891 0.58667 0.0
C272 C 0.63273 0.20194 0.57156 0.0
C273 C 0.62912 0.20446 0.51738 0.0
C274 C 0.63674 0.19381 0.4782 0.0
H275 H 0.62674 0.21011 0.60182 0.0
H276 H 0.69535 0.10874 0.20596 0.0
H277 H 0.56227 0.73041 0.18427 0.0
H278 H 0.55744 0.69441 0.22698 0.0
H279 H 0.48857 0.64969 0.13854 0.0
H280 H 0.49301 0.68604 0.09646 0.0
H281 H 0.4861 0.63703 0.23876 0.0
H282 H 0.53958 0.64779 0.10139 0.0
H283 H 0.57486 0.67015 0.04755 0.0
H284 H 0.62285 0.68784 0.18742 0.0
H285 H 0.58797 0.6657 0.24227 0.0
H286 H 0.49177 0.53651 0.35342 0.0
H287 H 0.4884 0.56169 0.28505 0.0
H288 H 0.55598 0.62357 0.34883 0.0
H289 H 0.55962 0.59878 0.4161 0.0
H290 H 0.55416 0.62022 0.24197 0.0
H291 H 0.50035 0.6172 0.37971 0.0
H292 H 0.46518 0.59742 0.43467 0.0
H293 H 0.41782 0.56543 0.2924 0.0
H294 H 0.45281 0.58516 0.23656 0.0
C295 C 0.54598 0.71297 0.17414 0.0
C296 C 0.52805 0.71107 0.13688 0.0
C297 C 0.54335 0.69233 0.19823 0.0
C298 C 0.52296 0.66919 0.18487 0.0
C299 C 0.50457 0.66732 0.14907 0.0
C300 C 0.50708 0.68811 0.12528 0.0
C301 C 0.52095 0.64724 0.20938 0.0
C302 C 0.50073 0.63297 0.23837 0.0
C303 C 0.54004 0.64194 0.20906 0.0
C304 C 0.56111 0.65514 0.17603 0.0
C305 C 0.55764 0.65654 0.12075 0.0
C306 C 0.57756 0.66917 0.09003 0.0
C307 C 0.60102 0.68048 0.11406 0.0
C308 C 0.60465 0.67908 0.16885 0.0
C309 C 0.58482 0.66642 0.19975 0.0
C310 C 0.50602 0.55541 0.35242 0.0
C311 C 0.52592 0.56562 0.39045 0.0
C312 C 0.50399 0.56981 0.31356 0.0
C313 C 0.52186 0.5946 0.31205 0.0
C314 C 0.54198 0.60451 0.34906 0.0
C315 C 0.54397 0.59027 0.38777 0.0
C316 C 0.51983 0.61079 0.27323 0.0
C317 C 0.53927 0.62389 0.24122 0.0
C318 C 0.50001 0.61495 0.27059 0.0
C319 C 0.47917 0.60235 0.30409 0.0
C320 C 0.48246 0.60572 0.36022 0.0
C321 C 0.46254 0.59459 0.3915 0.0
C322 C 0.43926 0.58007 0.36706 0.0
C323 C 0.43586 0.57663 0.31127 0.0
C324 C 0.45572 0.58782 0.27979 0.0
H325 H 0.42382 0.57159 0.39127 0.0
H326 H 0.61639 0.69027 0.09018 0.0
H327 H 0.83314 0.58092 0.21083 0.0
H328 H 0.85817 0.57975 0.2862 0.0
H329 H 0.83545 0.50454 0.23744 0.0
H330 H 0.81015 0.50537 0.16375 0.0
H331 H 0.83404 0.50868 0.34081 0.0
H332 H 0.89195 0.55376 0.21165 0.0
H333 H 0.91312 0.58731 0.15218 0.0
H334 H 0.93684 0.64012 0.28699 0.0
H335 H 0.91554 0.60687 0.3472 0.0
H336 H 0.93112 0.49211 0.43677 0.0
H337 H 0.89939 0.49596 0.38834 0.0
H338 H 0.9218 0.56453 0.47806 0.0
H339 H 0.95337 0.5608 0.52719 0.0
H340 H 0.92222 0.56746 0.36562 0.0
H341 H 0.86748 0.52093 0.49527 0.0
H342 H 0.84794 0.4866 0.55367 0.0
H343 H 0.81931 0.43558 0.41526 0.0
H344 H 0.8391 0.46964 0.35625 0.0
C345 C 0.83361 0.56421 0.21621 0.0
C346 C 0.81965 0.54325 0.18139 0.0
C347 C 0.8479 0.56355 0.25923 0.0
C348 C 0.84875 0.54204 0.26746 0.0
C349 C 0.83496 0.52126 0.23233 0.0
C350 C 0.82056 0.52182 0.18996 0.0
C351 C 0.86405 0.54086 0.31206 0.0
C352 C 0.85335 0.52149 0.346 0.0
C353 C 0.88914 0.55788 0.31991 0.0
C354 C 0.90191 0.57787 0.28379 0.0
C355 C 0.90152 0.57255 0.22853 0.0
C356 C 0.91357 0.5915 0.19471 0.0
C357 C 0.92625 0.61584 0.21576 0.0
C358 C 0.92696 0.62126 0.27072 0.0
C359 C 0.91491 0.60237 0.30471 0.0
C360 C 0.92894 0.5077 0.44727 0.0
C361 C 0.94508 0.52632 0.48534 0.0
C362 C 0.91076 0.50986 0.41955 0.0
C363 C 0.90845 0.53066 0.42932 0.0
C364 C 0.92343 0.54843 0.46973 0.0
C365 C 0.94143 0.54619 0.49786 0.0
C366 C 0.89228 0.53503 0.39328 0.0
C367 C 0.90284 0.55494 0.36094 0.0
C368 C 0.86716 0.51837 0.38648 0.0
C369 C 0.85499 0.4978 0.42152 0.0
C370 C 0.85723 0.50236 0.47745 0.0
C371 C 0.84607 0.48296 0.51061 0.0
C372 C 0.83244 0.4589 0.48818 0.0
C373 C 0.8299 0.45422 0.43257 0.0
C374 C 0.84107 0.47358 0.39926 0.0
H375 H 0.82381 0.44389 0.51389 0.0
H376 H 0.93557 0.63048 0.18952 0.0
H377 H 0.31843 0.80101 0.18836 0.0
H378 H 0.34813 0.82702 0.26025 0.0
H379 H 0.30227 0.85611 0.30516 0.0
H380 H 0.27274 0.83064 0.23179 0.0
H381 H 0.34623 0.89167 0.30738 0.0
H382 H 0.3092 0.81481 0.38219 0.0
H383 H 0.29271 0.77038 0.38698 0.0
H384 H 0.36343 0.77979 0.36951 0.0
H385 H 0.3803 0.82426 0.36381 0.0
H386 H 0.42797 0.95252 0.53851 0.0
H387 H 0.38998 0.92052 0.49203 0.0
H388 H 0.43042 0.89999 0.38851 0.0
H389 H 0.46836 0.9322 0.43418 0.0
H390 H 0.38447 0.859 0.42994 0.0
H391 H 0.41792 0.9364 0.34107 0.0
H392 H 0.43288 0.98082 0.34277 0.0
H393 H 0.36503 0.96908 0.39649 0.0
H394 H 0.34984 0.9246 0.39594 0.0
C395 C 0.3146 0.81289 0.21358 0.0
C396 C 0.29321 0.81373 0.20444 0.0
C397 C 0.33154 0.82763 0.25501 0.0
C398 C 0.32724 0.84318 0.28896 0.0
C399 C 0.30594 0.84418 0.27971 0.0
C400 C 0.28909 0.82962 0.23775 0.0
C401 C 0.34556 0.85904 0.33251 0.0
C402 C 0.35416 0.88437 0.33486 0.0
C403 C 0.356 0.84965 0.36866 0.0
C404 C 0.34599 0.82289 0.3722 0.0
C405 C 0.32122 0.8074 0.37898 0.0
C406 C 0.3118 0.7822 0.38192 0.0
C407 C 0.327 0.77226 0.37846 0.0
C408 C 0.35167 0.78752 0.37217 0.0
C409 C 0.36118 0.81273 0.36916 0.0
C410 C 0.42864 0.94067 0.50696 0.0
C411 C 0.45095 0.9446 0.49006 0.0
C412 C 0.40701 0.92254 0.4803 0.0
C413 C 0.4075 0.90795 0.43702 0.0
C414 C 0.42973 0.91099 0.42208 0.0
C415 C 0.45132 0.92941 0.44795 0.0
C416 C 0.38527 0.89135 0.40338 0.0
C417 C 0.37605 0.86601 0.40298 0.0
C418 C 0.3739 0.90062 0.36984 0.0
C419 C 0.38287 0.92725 0.36909 0.0
C420 C 0.40628 0.94333 0.35366 0.0
C421 C 0.41479 0.9685 0.35435 0.0
C422 C 0.39995 0.97778 0.3699 0.0
C423 C 0.37653 0.96188 0.38457 0.0
C424 C 0.36796 0.93669 0.38406 0.0
H425 H 0.40657 0.99728 0.37045 0.0
H426 H 0.31968 0.75275 0.38074 0.0
H427 H 0.42304 0.26054 0.24247 0.0
H428 H 0.41903 0.29116 0.29772 0.0
H429 H 0.48923 0.31572 0.37687 0.0
H430 H 0.49342 0.28534 0.32194 0.0
H431 H 0.45619 0.31603 0.44557 0.0
H432 H 0.48647 0.34221 0.27276 0.0
H433 H 0.48401 0.33727 0.17429 0.0
H434 H 0.41916 0.3419 0.16689 0.0
H435 H 0.42084 0.34614 0.26565 0.0
H436 H 0.50367 0.45077 0.47635 0.0
H437 H 0.49442 0.41587 0.41401 0.0
H438 H 0.42636 0.3726 0.48451 0.0
H439 H 0.43529 0.40725 0.54671 0.0
H440 H 0.45573 0.38069 0.33967 0.0
H441 H 0.42754 0.32126 0.52096 0.0
H442 H 0.4338 0.3261 0.61961 0.0
H443 H 0.50243 0.3914 0.60902 0.0
H444 H 0.49673 0.38675 0.51039 0.0
C445 C 0.4373 0.27202 0.27267 0.0
C446 C 0.45868 0.27085 0.27755 0.0
C447 C 0.43501 0.28951 0.30398 0.0
C448 C 0.45399 0.3058 0.34066 0.0
C449 C 0.47444 0.30329 0.34862 0.0
C450 C 0.47685 0.28603 0.31706 0.0
C451 C 0.45398 0.3272 0.36649 0.0
C452 C 0.45572 0.32999 0.4225 0.0
C453 C 0.45409 0.34567 0.33604 0.0
C454 C 0.45356 0.3441 0.27664 0.0
C455 C 0.47152 0.34188 0.2502 0.0
C456 C 0.4702 0.33909 0.19431 0.0
C457 C 0.4513 0.33903 0.16431 0.0
C458 C 0.43372 0.34183 0.19019 0.0
C459 C 0.43481 0.34437 0.24615 0.0
C460 C 0.4864 0.4341 0.47749 0.0
C461 C 0.47049 0.43154 0.51733 0.0
C462 C 0.48112 0.41422 0.44171 0.0
C463 C 0.45994 0.39166 0.44557 0.0
C464 C 0.44292 0.38986 0.48152 0.0
C465 C 0.44814 0.40966 0.51716 0.0
C466 C 0.45749 0.36925 0.41874 0.0
C467 C 0.45555 0.36641 0.36266 0.0
C468 C 0.45783 0.35096 0.44906 0.0
C469 C 0.46153 0.35382 0.50836 0.0
C470 C 0.44397 0.33662 0.53973 0.0
C471 C 0.44743 0.33933 0.59562 0.0
C472 C 0.46845 0.3591 0.62057 0.0
C473 C 0.48611 0.37617 0.58966 0.0
C474 C 0.48275 0.37352 0.53378 0.0
H475 H 0.4711 0.36116 0.66383 0.0
H476 H 0.4504 0.33703 0.12103 0.0
H477 H 0.4967 0.79202 0.94822 0.0
H478 H 0.49336 0.82364 0.90182 0.0
H479 H 0.57114 0.86609 0.90036 0.0
H480 H 0.57465 0.83488 0.94786 0.0
H481 H 0.55359 0.89449 0.9318 0.0
H482 H 0.53354 0.8328 0.78661 0.0
H483 H 0.51032 0.79145 0.74088 0.0
H484 H 0.4449 0.79474 0.74738 0.0
H485 H 0.46769 0.836 0.79378 0.0
H486 H 0.57306 0.97464 0.72611 0.0
H487 H 0.57013 0.94414 0.78695 0.0
H488 H 0.49255 0.91214 0.78093 0.0
H489 H 0.4953 0.94263 0.7203 0.0
H490 H 0.50534 0.87811 0.75987 0.0
H491 H 0.52524 0.94092 0.89574 0.0
H492 H 0.54761 0.98227 0.94158 0.0
H493 H 0.6121 0.97707 0.95383 0.0
H494 H 0.59022 0.93581 0.90735 0.0
C495 C 0.51309 0.80794 0.93745 0.0
C496 C 0.53595 0.81088 0.95165 0.0
C497 C 0.51114 0.82602 0.9109 0.0
C498 C 0.532 0.84723 0.89734 0.0
C499 C 0.5548 0.84995 0.91061 0.0
C500 C 0.55676 0.83201 0.93749 0.0
C501 C 0.53026 0.86689 0.87034 0.0
C502 C 0.54326 0.89095 0.89389 0.0
C503 C 0.51596 0.86215 0.82204 0.0
C504 C 0.50227 0.83735 0.79419 0.0
C505 C 0.51417 0.82462 0.77867 0.0
C506 C 0.5011 0.80122 0.75256 0.0
C507 C 0.47614 0.79045 0.74138 0.0
C508 C 0.46422 0.80308 0.75616 0.0
C509 C 0.4772 0.82648 0.78233 0.0
C510 C 0.55541 0.96142 0.73854 0.0
C511 C 0.53442 0.96108 0.71826 0.0
C512 C 0.55377 0.94404 0.77351 0.0
C513 C 0.53112 0.92594 0.78877 0.0
C514 C 0.51021 0.92603 0.76999 0.0
C515 C 0.51185 0.94357 0.73547 0.0
C516 C 0.52927 0.9058 0.82051 0.0
C517 C 0.51552 0.88164 0.79801 0.0
C518 C 0.5428 0.91044 0.86986 0.0
C519 C 0.55612 0.93532 0.89764 0.0
C520 C 0.54425 0.94867 0.90777 0.0
C521 C 0.55683 0.97208 0.93397 0.0
C522 C 0.58127 0.98231 0.95052 0.0
C523 C 0.59317 0.96913 0.94097 0.0
C524 C 0.58068 0.94571 0.91475 0.0
H525 H 0.59098 0.00043 0.97082 0.0
H526 H 0.46605 0.77233 0.72115 0.0
H527 H 0.7661 0.58563 0.92542 0.0
H528 H 0.74193 0.58599 0.84658 0.0
H529 H 0.68217 0.51674 0.88574 0.0
H530 H 0.70592 0.51616 0.96276 0.0
H531 H 0.69228 0.51518 0.78304 0.0
H532 H 0.683 0.57109 0.90931 0.0
H533 H 0.69751 0.60933 0.96606 0.0
H534 H 0.72668 0.65158 0.83008 0.0
H535 H 0.7125 0.61353 0.77263 0.0
H536 H 0.57514 0.48872 0.735 0.0
H537 H 0.61644 0.49965 0.76189 0.0
H538 H 0.64349 0.55763 0.65327 0.0
H539 H 0.60153 0.54652 0.62611 0.0
H540 H 0.66252 0.57343 0.7585 0.0
H541 H 0.65223 0.51059 0.6326 0.0
H542 H 0.63069 0.46962 0.58477 0.0
H543 H 0.63284 0.43668 0.72978 0.0
H544 H 0.65361 0.47722 0.77894 0.0
C545 C 0.74768 0.57074 0.91734 0.0
C546 C 0.73796 0.55073 0.94977 0.0
C547 C 0.73397 0.5709 0.87231 0.0
C548 C 0.7104 0.55116 0.85981 0.0
C549 C 0.70047 0.53192 0.89391 0.0
C550 C 0.71406 0.53166 0.93814 0.0
C551 C 0.69557 0.54949 0.81112 0.0
C552 C 0.68584 0.52796 0.77724 0.0
C553 C 0.68806 0.56673 0.80215 0.0
C554 C 0.69712 0.58953 0.83695 0.0
C555 C 0.69278 0.58855 0.89169 0.0
C556 C 0.70086 0.61018 0.92393 0.0
C557 C 0.71312 0.63288 0.90175 0.0
C558 C 0.71729 0.63399 0.84726 0.0
C559 C 0.70924 0.61241 0.81485 0.0
C560 C 0.58987 0.50322 0.71544 0.0
C561 C 0.58532 0.51669 0.67833 0.0
C562 C 0.61347 0.50948 0.73078 0.0
C563 C 0.63305 0.52937 0.70933 0.0
C564 C 0.62858 0.54212 0.66996 0.0
C565 C 0.60472 0.53564 0.6541 0.0
C566 C 0.65771 0.53806 0.73365 0.0
C567 C 0.66956 0.56102 0.76251 0.0
C568 C 0.66662 0.52169 0.73931 0.0
C569 C 0.65476 0.49715 0.70944 0.0
C570 C 0.64813 0.49463 0.65435 0.0
C571 C 0.63596 0.47144 0.62702 0.0
C572 C 0.63054 0.4506 0.65414 0.0
C573 C 0.63717 0.45286 0.70873 0.0
C574 C 0.64917 0.47597 0.73635 0.0
H575 H 0.62113 0.43267 0.63289 0.0
H576 H 0.7193 0.6496 0.92674 0.0
H577 H 0.16339 0.72998 0.0645 0.0
H578 H 0.12594 0.69674 0.01804 0.0
H579 H 0.16478 0.70169 0.87741 0.0
H580 H 0.2023 0.73398 0.92441 0.0
H581 H 0.11275 0.696 0.86698 0.0
H582 H 0.16382 0.6647 0.94758 0.0
H583 H 0.18352 0.65799 0.02643 0.0
H584 H 0.11515 0.62035 0.09743 0.0
H585 H 0.09518 0.62739 0.01948 0.0
H586 H 0.0808 0.60522 0.67562 0.0
H587 H 0.10104 0.63587 0.74987 0.0
H588 H 0.05089 0.58638 0.85752 0.0
H589 H 0.03084 0.55489 0.78233 0.0
H590 H 0.09631 0.61264 0.90533 0.0
H591 H 0.04314 0.63248 0.81697 0.0
H592 H 0.02119 0.63829 0.74126 0.0
H593 H 0.08802 0.6967 0.69164 0.0
H594 H 0.11046 0.691 0.7665 0.0
C595 C 0.16364 0.7244 0.02312 0.0
C596 C 0.18547 0.73454 0.9975 0.0
C597 C 0.14238 0.70539 0.99692 0.0
C598 C 0.14277 0.69687 0.94455 0.0
C599 C 0.16423 0.70818 0.91782 0.0
C600 C 0.18555 0.7266 0.94446 0.0
C601 C 0.12166 0.67483 0.91839 0.0
C602 C 0.1089 0.67772 0.87545 0.0
C603 C 0.11598 0.65102 0.93142 0.0
C604 C 0.12809 0.64692 0.97815 0.0
C605 C 0.15306 0.65532 0.98034 0.0
C606 C 0.16427 0.6514 0.0248 0.0
C607 C 0.15062 0.63882 0.06696 0.0
C608 C 0.12573 0.63016 0.06483 0.0
C609 C 0.11447 0.63414 0.02056 0.0
C610 C 0.07423 0.60074 0.71523 0.0
C611 C 0.0542 0.57788 0.72339 0.0
C612 C 0.08567 0.61833 0.75756 0.0
C613 C 0.07694 0.61374 0.80885 0.0
C614 C 0.05766 0.59039 0.81801 0.0
C615 C 0.04633 0.57243 0.77532 0.0
C616 C 0.08832 0.63388 0.8516 0.0
C617 C 0.09929 0.63072 0.89776 0.0
C618 C 0.09188 0.65745 0.84238 0.0
C619 C 0.0785 0.66128 0.79749 0.0
C620 C 0.05319 0.6465 0.78981 0.0
C621 C 0.04066 0.64977 0.74701 0.0
C622 C 0.05321 0.66786 0.71167 0.0
C623 C 0.07832 0.68273 0.71911 0.0
C624 C 0.09096 0.67952 0.76182 0.0
H625 H 0.04347 0.67035 0.67853 0.0
H626 H 0.15931 0.63564 0.10106 0.0
H627 H 0.50351 0.19417 0.07826 0.0
H628 H 0.49924 0.15849 0.02713 0.0
H629 H 0.42596 0.13772 0.97502 0.0
H630 H 0.4298 0.17317 0.02828 0.0
H631 H 0.42802 0.09884 0.00304 0.0
H632 H 0.47261 0.16368 0.89019 0.0
H633 H 0.50508 0.20403 0.86665 0.0
H634 H 0.55838 0.18409 0.90935 0.0
H635 H 0.52625 0.14373 0.93387 0.0
H636 H 0.4259 0.02424 0.77138 0.0
H637 H 0.42338 0.05292 0.83615 0.0
H638 H 0.48853 0.06477 0.92167 0.0
H639 H 0.49103 0.03584 0.85776 0.0
H640 H 0.48926 0.10714 0.87642 0.0
H641 H 0.44249 0.04085 0.98637 0.0
H642 H 0.40872 0.00035 0.005 0.0
H643 H 0.35771 0.02297 0.95987 0.0
H644 H 0.39117 0.06351 0.94019 0.0
C645 C 0.48656 0.18225 0.05536 0.0
C646 C 0.46706 0.18664 0.05674 0.0
C647 C 0.48416 0.16182 0.02614 0.0
C648 C 0.46242 0.14566 0.99658 0.0
C649 C 0.44292 0.15002 0.99751 0.0
C650 C 0.44518 0.17034 0.02754 0.0
C651 C 0.46019 0.1241 0.96539 0.0
C652 C 0.44119 0.10067 0.97471 0.0
C653 C 0.47762 0.12649 0.92913 0.0
C654 C 0.49702 0.15075 0.91431 0.0
C655 C 0.49127 0.16796 0.89494 0.0
C656 C 0.50961 0.19083 0.88136 0.0
C657 C 0.53378 0.19664 0.88662 0.0
C658 C 0.53966 0.17957 0.90535 0.0
C659 C 0.52138 0.15669 0.91904 0.0
C660 C 0.43931 0.03244 0.80484 0.0
C661 C 0.45881 0.02803 0.80923 0.0
C662 C 0.43777 0.0487 0.84185 0.0
C663 C 0.45583 0.06092 0.88331 0.0
C664 C 0.47443 0.05538 0.88985 0.0
C665 C 0.47577 0.03882 0.8534 0.0
C666 C 0.4573 0.082 0.9145 0.0
C667 C 0.47613 0.10537 0.90482 0.0
C668 C 0.43949 0.07951 0.94952 0.0
C669 C 0.41934 0.05514 0.96123 0.0
C670 C 0.42406 0.03711 0.97986 0.0
C671 C 0.40498 0.01416 0.99076 0.0
C672 C 0.38108 0.00907 0.98348 0.0
C673 C 0.37623 0.02693 0.96542 0.0
C674 C 0.39525 0.04991 0.95444 0.0
H675 H 0.36633 0.99129 0.99195 0.0
H676 H 0.54796 0.21435 0.87608 0.0
H677 H 0.28973 0.47816 0.0319 0.0
H678 H 0.31762 0.47957 0.96687 0.0
H679 H 0.37264 0.55007 0.03806 0.0
H680 H 0.3441 0.54913 0.10291 0.0
H681 H 0.37485 0.54957 0.93265 0.0
H682 H 0.37311 0.4962 0.06289 0.0
H683 H 0.35498 0.46206 0.12205 0.0
H684 H 0.322 0.41076 0.98499 0.0
H685 H 0.33965 0.44463 0.92499 0.0
H686 H 0.46933 0.53747 0.81059 0.0
H687 H 0.44268 0.54322 0.86951 0.0
H688 H 0.38182 0.47583 0.8006 0.0
H689 H 0.40843 0.46975 0.74176 0.0
H690 H 0.38489 0.47675 0.90846 0.0
H691 H 0.3893 0.53305 0.77854 0.0
H692 H 0.4101 0.56862 0.72403 0.0
H693 H 0.44169 0.61623 0.867 0.0
H694 H 0.42159 0.58091 0.92229 0.0
C695 C 0.30775 0.49405 0.03396 0.0
C696 C 0.31476 0.51341 0.07324 0.0
C697 C 0.32378 0.49477 0.99667 0.0
C698 C 0.34756 0.5146 0.99816 0.0
C699 C 0.35447 0.53444 0.03622 0.0
C700 C 0.33818 0.53389 0.07336 0.0
C701 C 0.36495 0.51411 0.96028 0.0
C702 C 0.37732 0.5338 0.92794 0.0
C703 C 0.36814 0.49347 0.95353 0.0
C704 C 0.35755 0.473 0.98946 0.0
C705 C 0.36185 0.47766 0.04537 0.0
C706 C 0.35168 0.45835 0.07905 0.0
C707 C 0.33731 0.43427 0.05729 0.0
C708 C 0.33312 0.42943 0.00179 0.0
C709 C 0.34323 0.44868 0.96792 0.0
C710 C 0.45019 0.52405 0.80708 0.0
C711 C 0.44113 0.50303 0.7714 0.0
C712 C 0.43493 0.52743 0.84089 0.0
C713 C 0.41017 0.50997 0.83971 0.0
C714 C 0.40086 0.48954 0.80247 0.0
C715 C 0.41611 0.48616 0.76854 0.0
C716 C 0.39437 0.51195 0.87994 0.0
C717 C 0.3824 0.49252 0.91305 0.0
C718 C 0.392 0.53303 0.88798 0.0
C719 C 0.40412 0.55427 0.85457 0.0
C720 C 0.40089 0.55107 0.79834 0.0
C721 C 0.41256 0.5712 0.76728 0.0
C722 C 0.42733 0.59467 0.792 0.0
C723 C 0.43039 0.59805 0.84783 0.0
C724 C 0.41885 0.57798 0.87906 0.0
H725 H 0.43633 0.61024 0.76791 0.0
H726 H 0.32945 0.41934 0.08344 0.0
H727 H 0.79228 0.32584 0.04413 0.0
H728 H 0.82513 0.3581 0.99707 0.0
H729 H 0.84885 0.30745 0.94891 0.0
H730 H 0.81627 0.27534 0.99462 0.0
H731 H 0.88472 0.35021 0.00548 0.0
H732 H 0.82327 0.32406 0.86326 0.0
H733 H 0.78488 0.31598 0.81811 0.0
H734 H 0.80786 0.39264 0.83563 0.0
H735 H 0.84634 0.40112 0.88151 0.0
H736 H 0.96854 0.40579 0.80547 0.0
H737 H 0.93472 0.37955 0.85832 0.0
H738 H 0.92422 0.44046 0.9002 0.0
H739 H 0.95839 0.46702 0.84814 0.0
H740 H 0.88193 0.39648 0.85279 0.0
H741 H 0.94321 0.42204 0.99574 0.0
H742 H 0.98198 0.42976 0.03849 0.0
H743 H 0.95944 0.3534 0.01355 0.0
H744 H 0.92065 0.34527 0.96995 0.0
C745 C 0.80411 0.32145 0.02226 0.0
C746 C 0.80184 0.29812 0.02361 0.0
C747 C 0.8229 0.33989 0.99565 0.0
C748 C 0.83955 0.33517 0.97021 0.0
C749 C 0.83634 0.31151 0.96882 0.0
C750 C 0.81763 0.29316 0.9949 0.0
C751 C 0.86153 0.35504 0.94864 0.0
C752 C 0.88408 0.36026 0.97192 0.0
C753 C 0.86061 0.36843 0.90557 0.0
C754 C 0.8374 0.36316 0.87772 0.0
C755 C 0.81998 0.33916 0.8586 0.0
C756 C 0.79824 0.3345 0.83246 0.0
C757 C 0.79381 0.35374 0.8245 0.0
C758 C 0.8112 0.37771 0.84224 0.0
C759 C 0.83296 0.38243 0.86842 0.0
C760 C 0.95939 0.41373 0.82693 0.0
C761 C 0.96614 0.43845 0.82282 0.0
C762 C 0.94008 0.39873 0.85702 0.0
C763 C 0.92699 0.40811 0.8829 0.0
C764 C 0.93415 0.43296 0.88043 0.0
C765 C 0.95378 0.44811 0.85111 0.0
C766 C 0.90491 0.39141 0.90945 0.0
C767 C 0.88243 0.38669 0.88696 0.0
C768 C 0.90579 0.37828 0.95292 0.0
C769 C 0.9291 0.38309 0.97916 0.0
C770 C 0.9466 0.40693 0.99894 0.0
C771 C 0.96857 0.41137 0.02343 0.0
C772 C 0.9732 0.39209 0.02863 0.0
C773 C 0.95584 0.36832 0.00946 0.0
C774 C 0.93385 0.36378 0.98492 0.0
H775 H 0.99021 0.39557 0.0476 0.0
H776 H 0.77698 0.35011 0.8042 0.0
H777 H 0.78266 0.46813 0.93515 0.0
H778 H 0.80943 0.46625 0.86955 0.0
H779 H 0.85406 0.54497 0.88638 0.0
H780 H 0.82735 0.54706 0.95072 0.0
H781 H 0.84907 0.5296 0.78358 0.0
H782 H 0.87691 0.511 0.9483 0.0
H783 H 0.86885 0.48944 0.03167 0.0
H784 H 0.83119 0.42015 0.94038 0.0
H785 H 0.83974 0.44135 0.85606 0.0
H786 H 0.96781 0.55072 0.73279 0.0
H787 H 0.93126 0.54679 0.77081 0.0
H788 H 0.88995 0.47255 0.7014 0.0
H789 H 0.92644 0.4768 0.66168 0.0
H790 H 0.88907 0.4811 0.82107 0.0
H791 H 0.87702 0.50802 0.65223 0.0
H792 H 0.89073 0.53576 0.57894 0.0
H793 H 0.90128 0.59557 0.68651 0.0
H794 H 0.88875 0.56846 0.76124 0.0
C795 C 0.79813 0.48503 0.92475 0.0
C796 C 0.80285 0.50771 0.94859 0.0
C797 C 0.81348 0.48394 0.8873 0.0
C798 C 0.83396 0.50548 0.87318 0.0
C799 C 0.83839 0.5281 0.89626 0.0
C800 C 0.82309 0.52922 0.93345 0.0
C801 C 0.85141 0.5046 0.8362 0.0
C802 C 0.85777 0.51896 0.7917 0.0
C803 C 0.86278 0.4907 0.84644 0.0
C804 C 0.85897 0.47771 0.89613 0.0
C805 C 0.86716 0.49115 0.94603 0.0
C806 C 0.86258 0.47901 0.99333 0.0
C807 C 0.84969 0.45342 0.99116 0.0
C808 C 0.84151 0.43994 0.94169 0.0
C809 C 0.84635 0.45199 0.89415 0.0
C810 C 0.9507 0.53396 0.72378 0.0
C811 C 0.94975 0.51429 0.69317 0.0
C812 C 0.9299 0.53161 0.74601 0.0
C813 C 0.90791 0.50933 0.73921 0.0
C814 C 0.90673 0.4899 0.7071 0.0
C815 C 0.92745 0.49246 0.68375 0.0
C816 C 0.88674 0.50613 0.76844 0.0
C817 C 0.87988 0.49119 0.81192 0.0
C818 C 0.87538 0.52002 0.75787 0.0
C819 C 0.8821 0.53619 0.71256 0.0
C820 C 0.88245 0.52713 0.66047 0.0
C821 C 0.89 0.54274 0.61859 0.0
C822 C 0.89675 0.56738 0.62794 0.0
C823 C 0.89602 0.57647 0.67929 0.0
C824 C 0.88877 0.56099 0.72149 0.0
H825 H 0.90256 0.57943 0.59542 0.0
H826 H 0.84594 0.44403 0.02783 0.0
H827 H 0.28047 0.81477 0.95385 0.0
H828 H 0.30592 0.83683 0.88217 0.0
H829 H 0.33901 0.79168 0.88629 0.0
H830 H 0.31357 0.76945 0.95819 0.0
H831 H 0.37244 0.84081 0.88649 0.0
H832 H 0.30027 0.78288 0.78354 0.0
H833 H 0.25644 0.76013 0.75874 0.0
H834 H 0.25824 0.82745 0.72802 0.0
H835 H 0.30203 0.85066 0.75341 0.0
H836 H 0.44445 0.90697 0.68445 0.0
H837 H 0.41428 0.86977 0.72336 0.0
H838 H 0.36439 0.89722 0.72058 0.0
H839 H 0.3938 0.93338 0.67797 0.0
H840 H 0.33939 0.85073 0.71291 0.0
H841 H 0.40836 0.90881 0.83254 0.0
H842 H 0.4519 0.93303 0.86052 0.0
H843 H 0.45578 0.86704 0.86283 0.0
H844 H 0.41226 0.84244 0.83454 0.0
C845 C 0.29308 0.80943 0.93944 0.0
C846 C 0.29498 0.79033 0.96181 0.0
C847 C 0.30752 0.82198 0.8982 0.0
C848 C 0.32418 0.81572 0.87847 0.0
C849 C 0.32619 0.79672 0.90076 0.0
C850 C 0.31162 0.78403 0.9418 0.0
C851 C 0.34015 0.8298 0.83618 0.0
C852 C 0.36526 0.8426 0.84807 0.0
C853 C 0.33075 0.83245 0.78646 0.0
C854 C 0.30443 0.81853 0.77074 0.0
C855 C 0.29129 0.79286 0.77186 0.0
C856 C 0.26645 0.77987 0.75764 0.0
C857 C 0.25455 0.79233 0.7419 0.0
C858 C 0.26748 0.81781 0.74023 0.0
C859 C 0.29232 0.83089 0.75447 0.0
C860 C 0.42666 0.90451 0.69022 0.0
C861 C 0.42146 0.92307 0.67863 0.0
C862 C 0.40953 0.88342 0.71312 0.0
C863 C 0.3874 0.88112 0.72714 0.0
C864 C 0.3814 0.89859 0.7108 0.0
C865 C 0.39821 0.91928 0.68623 0.0
C866 C 0.37171 0.86234 0.76375 0.0
C867 C 0.34664 0.84865 0.75092 0.0
C868 C 0.38112 0.8591 0.81305 0.0
C869 C 0.40714 0.87383 0.83105 0.0
C870 C 0.41852 0.89949 0.83897 0.0
C871 C 0.44318 0.91327 0.85488 0.0
C872 C 0.45658 0.90158 0.8635 0.0
C873 C 0.44535 0.87606 0.85625 0.0
C874 C 0.42069 0.86219 0.84034 0.0
H875 H 0.47567 0.91228 0.8758 0.0
H876 H 0.23532 0.78225 0.73091 0.0
H877 H 0.54574 0.31663 0.0688 0.0
H878 H 0.55065 0.35196 0.02091 0.0
H879 H 0.47773 0.33341 0.05207 0.0
H880 H 0.47247 0.298 0.09853 0.0
H881 H 0.51995 0.34938 0.9289 0.0
H882 H 0.48319 0.39354 0.08338 0.0
H883 H 0.48435 0.40133 0.18098 0.0
H884 H 0.54687 0.39315 0.20208 0.0
H885 H 0.54665 0.38614 0.10454 0.0
H886 H 0.46705 0.40943 0.80519 0.0
H887 H 0.47491 0.38468 0.8658 0.0
H888 H 0.53771 0.44959 0.93772 0.0
H889 H 0.52995 0.47478 0.87701 0.0
H890 H 0.51084 0.41684 0.01258 0.0
H891 H 0.54689 0.41532 0.84992 0.0
H892 H 0.54772 0.41101 0.75179 0.0
H893 H 0.48992 0.33637 0.74913 0.0
H894 H 0.48854 0.34032 0.84723 0.0
C895 C 0.5308 0.32013 0.0654 0.0
C896 C 0.50867 0.30443 0.08705 0.0
C897 C 0.53363 0.34028 0.03817 0.0
C898 C 0.51462 0.34538 0.03356 0.0
C899 C 0.49268 0.32993 0.05574 0.0
C900 C 0.48967 0.30958 0.08186 0.0
C901 C 0.51685 0.36593 0.00296 0.0
C902 C 0.51818 0.36425 0.94728 0.0
C903 C 0.51484 0.38549 0.02722 0.0
C904 C 0.51474 0.38903 0.08634 0.0
C905 C 0.49729 0.39353 0.10871 0.0
C906 C 0.49786 0.39796 0.16408 0.0
C907 C 0.51569 0.39777 0.1977 0.0
C908 C 0.53301 0.3932 0.176 0.0
C909 C 0.53265 0.38898 0.12062 0.0
C910 C 0.48243 0.4186 0.83415 0.0
C911 C 0.49799 0.44414 0.83579 0.0
C912 C 0.48694 0.40435 0.86868 0.0
C913 C 0.50716 0.41524 0.90551 0.0
C914 C 0.5221 0.44083 0.90928 0.0
C915 C 0.51761 0.45518 0.87458 0.0
C916 C 0.51284 0.39957 0.9386 0.0
C917 C 0.51292 0.40212 0.99452 0.0
C918 C 0.51629 0.38087 0.91477 0.0
C919 C 0.51755 0.37816 0.85594 0.0
C920 C 0.53431 0.398 0.8284 0.0
C921 C 0.53488 0.39563 0.77278 0.0
C922 C 0.51886 0.37344 0.74424 0.0
C923 C 0.50233 0.35354 0.77131 0.0
C924 C 0.50168 0.35582 0.82694 0.0
H925 H 0.51927 0.37166 0.70115 0.0
H926 H 0.51601 0.40106 0.24058 0.0
H927 H 0.22189 0.5155 0.05925 0.0
H928 H 0.19493 0.51569 0.98858 0.0
H929 H 0.16548 0.43823 0.95235 0.0
H930 H 0.19258 0.43771 0.02419 0.0
H931 H 0.17733 0.47072 0.85871 0.0
H932 H 0.1324 0.44984 0.01722 0.0
H933 H 0.12676 0.45481 0.1129 0.0
H934 H 0.13891 0.5272 0.09175 0.0
H935 H 0.14504 0.52281 0.99608 0.0
H936 H 0.07111 0.45419 0.71257 0.0
H937 H 0.10275 0.45249 0.76613 0.0
H938 H 0.12372 0.523 0.84508 0.0
H939 H 0.09158 0.52455 0.79267 0.0
H940 H 0.11555 0.49117 0.91605 0.0
H941 H 0.16076 0.51347 0.75978 0.0
H942 H 0.16808 0.51053 0.66446 0.0
H943 H 0.15723 0.43827 0.68019 0.0
H944 H 0.14947 0.44062 0.77547 0.0
C945 C 0.20984 0.49843 0.03625 0.0
C946 C 0.20931 0.47652 0.04763 0.0
C947 C 0.19445 0.49864 0.99577 0.0
C948 C 0.17823 0.477 0.96548 0.0
C949 C 0.17799 0.45513 0.97538 0.0
C950 C 0.19333 0.45484 0.01654 0.0
C951 C 0.16079 0.47746 0.92575 0.0
C952 C 0.16348 0.47472 0.87096 0.0
C953 C 0.14332 0.48346 0.94212 0.0
C954 C 0.1394 0.48607 0.99956 0.0
C955 C 0.13408 0.4669 0.03306 0.0
C956 C 0.13076 0.4696 0.08728 0.0
C957 C 0.13254 0.49133 0.10843 0.0
C958 C 0.13757 0.51039 0.07534 0.0
C959 C 0.14095 0.50779 0.02109 0.0
C960 C 0.0828 0.46965 0.74037 0.0
C961 C 0.07856 0.48938 0.74879 0.0
C962 C 0.10098 0.46866 0.77094 0.0
C963 C 0.11558 0.48756 0.80986 0.0
C964 C 0.11253 0.5081 0.81558 0.0
C965 C 0.09421 0.50901 0.78538 0.0
C966 C 0.13213 0.48476 0.8484 0.0
C967 C 0.12926 0.48704 0.9033 0.0
C968 C 0.14952 0.47856 0.83194 0.0
C969 C 0.15429 0.47713 0.77468 0.0
C970 C 0.15973 0.49686 0.74283 0.0
C971 C 0.164 0.49532 0.68881 0.0
C972 C 0.16306 0.47421 0.66625 0.0
C973 C 0.15792 0.45461 0.69771 0.0
C974 C 0.1536 0.45605 0.75174 0.0
H975 H 0.16637 0.47305 0.62442 0.0
H976 H 0.12996 0.49339 0.15042 0.0
H977 H 0.7009 0.19585 0.03979 0.0
H978 H 0.67095 0.16563 0.9734 0.0
H979 H 0.72188 0.14337 0.92701 0.0
H980 H 0.75224 0.1737 0.99449 0.0
H981 H 0.69569 0.15201 0.83872 0.0
H982 H 0.68084 0.10593 0.99269 0.0
H983 H 0.67435 0.09753 0.08778 0.0
H984 H 0.6104 0.10368 0.0755 0.0
H985 H 0.61674 0.11259 0.9806 0.0
H986 H 0.59422 0.05007 0.68321 0.0
H987 H 0.63181 0.07757 0.73732 0.0
H988 H 0.59245 0.10108 0.83736 0.0
H989 H 0.55496 0.07304 0.78462 0.0
H990 H 0.61703 0.08722 0.89647 0.0
H991 H 0.63402 0.13666 0.74329 0.0
H992 H 0.64078 0.14486 0.64822 0.0
H993 H 0.70116 0.13268 0.65862 0.0
H994 H 0.69426 0.12355 0.75329 0.0
C995 C 0.70582 0.18454 0.01564 0.0
C996 C 0.72894 0.18714 0.02241 0.0
C997 C 0.68864 0.16725 0.97776 0.0
C998 C 0.69421 0.15228 0.9455 0.0
C999 C 0.71731 0.15482 0.95165 0.0
C1000 C 0.73452 0.172 0.99032 0.0
C1001 C 0.67549 0.13403 0.90581 0.0
C1002 C 0.67861 0.13748 0.85104 0.0
C1003 C 0.65322 0.11534 0.92225 0.0
C1004 C 0.64937 0.11008 0.97951 0.0
C1005 C 0.66552 0.10572 0.01036 0.0
C1006 C 0.66184 0.10083 0.06423 0.0
C1007 C 0.64197 0.10006 0.08764 0.0
C1008 C 0.62577 0.10426 0.05728 0.0
C1009 C 0.62939 0.10922 0.00344 0.0
C1010 C 0.59387 0.06176 0.71566 0.0
C1011 C 0.57187 0.05974 0.72959 0.0
C1012 C 0.61529 0.07734 0.74678 0.0
C1013 C 0.61498 0.09139 0.79157 0.0
C1014 C 0.59314 0.0903 0.80333 0.0
C1015 C 0.57177 0.07446 0.77298 0.0
C1016 C 0.63668 0.10581 0.82908 0.0
C1017 C 0.63415 0.10152 0.88372 0.0
C1018 C 0.65942 0.12368 0.81231 0.0
C1019 C 0.66346 0.12916 0.75531 0.0
C1020 C 0.64858 0.13547 0.72519 0.0
C1021 C 0.65246 0.14032 0.67136 0.0
C1022 C 0.67145 0.13938 0.64749 0.0
C1023 C 0.68647 0.13341 0.67721 0.0
C1024 C 0.68254 0.12833 0.7309 0.0
H1025 H 0.67462 0.14337 0.60604 0.0
H1026 H 0.63909 0.09617 0.12927 0.0
H1027 H 0.56125 0.73903 0.89402 0.0
H1028 H 0.56212 0.70389 0.85159 0.0
H1029 H 0.60748 0.70534 0.98542 0.0
H1030 H 0.60782 0.7415 0.02632 0.0
H1031 H 0.61792 0.68889 0.89892 0.0
H1032 H 0.54581 0.6682 0.98332 0.0
H1033 H 0.50999 0.67072 0.00701 0.0
H1034 H 0.48169 0.65167 0.84308 0.0
H1035 H 0.51742 0.64912 0.81845 0.0
H1036 H 0.52629 0.55437 0.76795 0.0
H1037 H 0.5393 0.58494 0.8431 0.0
H1038 H 0.59509 0.63799 0.75045 0.0
H1039 H 0.58324 0.60728 0.67682 0.0
H1040 H 0.53474 0.62164 0.84426 0.0
H1041 H 0.6394 0.68483 0.82075 0.0
H1042 H 0.6747 0.67963 0.80783 0.0
H1043 H 0.63746 0.60849 0.86985 0.0
H1044 H 0.60204 0.61336 0.88397 0.0
C1045 C 0.57212 0.73237 0.91323 0.0
C1046 C 0.58446 0.74281 0.96315 0.0
C1047 C 0.5724 0.71217 0.88944 0.0
C1048 C 0.58414 0.7015 0.91639 0.0
C1049 C 0.59813 0.71315 0.96423 0.0
C1050 C 0.59842 0.73385 0.98735 0.0
C1051 C 0.57993 0.67718 0.89656 0.0
C1052 C 0.59979 0.67407 0.88711 0.0
C1053 C 0.55616 0.65736 0.88432 0.0
C1054 C 0.53438 0.65851 0.89906 0.0
C1055 C 0.53198 0.66457 0.95234 0.0
C1056 C 0.51166 0.66598 0.96595 0.0
C1057 C 0.49352 0.6613 0.92661 0.0
C1058 C 0.49568 0.65517 0.8736 0.0
C1059 C 0.51594 0.65367 0.85982 0.0
C1060 C 0.54181 0.57228 0.76413 0.0
C1061 C 0.55362 0.57833 0.71614 0.0
C1062 C 0.5492 0.5898 0.80719 0.0
C1063 C 0.56831 0.61377 0.80277 0.0
C1064 C 0.58073 0.61951 0.75566 0.0
C1065 C 0.57365 0.60193 0.71308 0.0
C1066 C 0.57283 0.63377 0.84296 0.0
C1067 C 0.55295 0.6361 0.85686 0.0
C1068 C 0.59652 0.65235 0.86111 0.0
C1069 C 0.61796 0.64945 0.85323 0.0
C1070 C 0.63877 0.66814 0.83205 0.0
C1071 C 0.6588 0.66523 0.8244 0.0
C1072 C 0.6583 0.64373 0.83792 0.0
C1073 C 0.63779 0.62511 0.85925 0.0
C1074 C 0.61771 0.62792 0.86699 0.0
H1075 H 0.6738 0.6415 0.83189 0.0
H1076 H 0.47781 0.66243 0.93718 0.0
H1077 H 0.54284 0.21881 0.26231 0.0
H1078 H 0.54362 0.18545 0.308 0.0
H1079 H 0.46742 0.15325 0.33124 0.0
H1080 H 0.46641 0.18604 0.28557 0.0
H1081 H 0.53211 0.16698 0.40768 0.0
H1082 H 0.43947 0.09245 0.3029 0.0
H1083 H 0.416 0.08533 0.21705 0.0
H1084 H 0.48139 0.13158 0.14141 0.0
H1085 H 0.50531 0.13861 0.2265 0.0
H1086 H 0.45217 0.04019 0.50191 0.0
H1087 H 0.4577 0.07174 0.4413 0.0
H1088 H 0.5312 0.08875 0.42257 0.0
H1089 H 0.52591 0.05745 0.48306 0.0
H1090 H 0.47268 0.08238 0.33517 0.0
H1091 H 0.56574 0.1494 0.43275 0.0
H1092 H 0.58977 0.1553 0.51723 0.0
H1093 H 0.52515 0.12405 0.6028 0.0
H1094 H 0.50069 0.11791 0.51895 0.0
C1095 C 0.52637 0.20479 0.27788 0.0
C1096 C 0.50451 0.20489 0.26976 0.0
C1097 C 0.52683 0.18575 0.30385 0.0
C1098 C 0.50546 0.1666 0.32187 0.0
C1099 C 0.484 0.16753 0.31653 0.0
C1100 C 0.48349 0.18637 0.29054 0.0
C1101 C 0.50495 0.14503 0.3446 0.0
C1102 C 0.51948 0.14852 0.39118 0.0
C1103 C 0.48841 0.1209 0.32312 0.0
C1104 C 0.47417 0.1162 0.27132 0.0
C1105 C 0.44887 0.10096 0.26789 0.0
C1106 C 0.43548 0.09696 0.21934 0.0
C1107 C 0.4472 0.10804 0.17384 0.0
C1108 C 0.47234 0.12306 0.17672 0.0
C1109 C 0.48581 0.12706 0.22512 0.0
C1110 C 0.46939 0.05032 0.48419 0.0
C1111 C 0.48872 0.04645 0.49801 0.0
C1112 C 0.47248 0.06829 0.44939 0.0
C1113 C 0.49496 0.08279 0.42814 0.0
C1114 C 0.51378 0.07792 0.43904 0.0
C1115 C 0.51068 0.05992 0.4736 0.0
C1116 C 0.49935 0.10439 0.39881 0.0
C1117 C 0.48556 0.10088 0.35102 0.0
C1118 C 0.51677 0.12847 0.4187 0.0
C1119 C 0.53142 0.13314 0.46962 0.0
C1120 C 0.5567 0.14398 0.46968 0.0
C1121 C 0.57038 0.14733 0.51739 0.0
C1122 C 0.55903 0.14012 0.56529 0.0
C1123 C 0.53393 0.12961 0.56566 0.0
C1124 C 0.52014 0.12615 0.51808 0.0
H1125 H 0.5697 0.14268 0.60209 0.0
H1126 H 0.4368 0.10496 0.13633 0.0
H1127 H 0.28596 0.43812 0.26283 0.0
H1128 H 0.3098 0.43743 0.34103 0.0
H1129 H 0.30515 0.49701 0.42002 0.0
H1130 H 0.28253 0.49849 0.34109 0.0
H1131 H 0.34868 0.50831 0.42636 0.0
H1132 H 0.27734 0.43657 0.46621 0.0
H1133 H 0.24087 0.3958 0.44996 0.0
H1134 H 0.28499 0.36443 0.41046 0.0
H1135 H 0.32172 0.40505 0.42571 0.0
H1136 H 0.43535 0.51078 0.61299 0.0
H1137 H 0.39361 0.50172 0.59087 0.0
H1138 H 0.38561 0.44891 0.46472 0.0
H1139 H 0.42653 0.4576 0.48677 0.0
H1140 H 0.34252 0.4352 0.50745 0.0
H1141 H 0.41123 0.51048 0.44472 0.0
H1142 H 0.44795 0.55057 0.46722 0.0
H1143 H 0.4064 0.57493 0.55513 0.0
H1144 H 0.36956 0.53467 0.53439 0.0
C1145 C 0.28969 0.4507 0.29737 0.0
C1146 C 0.28267 0.4685 0.29585 0.0
C1147 C 0.30317 0.45024 0.34227 0.0
C1148 C 0.30923 0.46711 0.38686 0.0
C1149 C 0.30091 0.48392 0.38621 0.0
C1150 C 0.28797 0.48473 0.34107 0.0
C1151 C 0.32647 0.46917 0.4312 0.0
C1152 C 0.34685 0.49232 0.44508 0.0
C1153 C 0.32434 0.44847 0.45601 0.0
C1154 C 0.3023 0.42393 0.44689 0.0
C1155 C 0.27927 0.42101 0.45373 0.0
C1156 C 0.25854 0.39791 0.44474 0.0
C1157 C 0.26061 0.37754 0.42913 0.0
C1158 C 0.28342 0.38022 0.42257 0.0
C1159 C 0.30421 0.40328 0.43148 0.0
C1160 C 0.42434 0.49681 0.5816 0.0
C1161 C 0.4343 0.48546 0.55038 0.0
C1162 C 0.40055 0.49159 0.56906 0.0
C1163 C 0.38666 0.47495 0.52542 0.0
C1164 C 0.39592 0.46186 0.49832 0.0
C1165 C 0.41948 0.46712 0.51051 0.0
C1166 C 0.36473 0.47402 0.50068 0.0
C1167 C 0.34362 0.45116 0.4901 0.0
C1168 C 0.36599 0.49496 0.47913 0.0
C1169 C 0.38777 0.51956 0.48854 0.0
C1170 C 0.40996 0.5244 0.46888 0.0
C1171 C 0.4308 0.54707 0.48161 0.0
C1172 C 0.42952 0.56525 0.51281 0.0
C1173 C 0.40737 0.56081 0.53112 0.0
C1174 C 0.38653 0.53805 0.51906 0.0
H1175 H 0.44567 0.58279 0.52268 0.0
H1176 H 0.24454 0.35968 0.42218 0.0
H1177 H 0.85269 0.26391 0.21906 0.0
H1178 H 0.88942 0.29633 0.26922 0.0
H1179 H 0.85673 0.34178 0.28085 0.0
H1180 H 0.82041 0.30995 0.23154 0.0
H1181 H 0.90367 0.3673 0.25105 0.0
H1182 H 0.85757 0.31045 0.38442 0.0
H1183 H 0.83779 0.27002 0.42241 0.0
H1184 H 0.90508 0.27006 0.42862 0.0
H1185 H 0.92519 0.31038 0.39002 0.0
H1186 H 0.95292 0.45263 0.47523 0.0
H1187 H 0.9309 0.42195 0.40101 0.0
H1188 H 0.97281 0.38707 0.43623 0.0
H1189 H 0.99408 0.41708 0.51179 0.0
H1190 H 0.92818 0.35472 0.4317 0.0
H1191 H 0.97623 0.41604 0.31587 0.0
H1192 H 0.99593 0.4567 0.27904 0.0
H1193 H 0.92648 0.44894 0.2385 0.0
H1194 H 0.90631 0.40841 0.27581 0.0
C1195 C 0.85335 0.28078 0.23259 0.0
C1196 C 0.83358 0.28427 0.22144 0.0
C1197 C 0.87433 0.29928 0.261 0.0
C1198 C 0.87579 0.32149 0.2784 0.0
C1199 C 0.85608 0.3249 0.26732 0.0
C1200 C 0.83521 0.30652 0.23942 0.0
C1201 C 0.89731 0.34117 0.30989 0.0
C1202 C 0.90916 0.36466 0.29057 0.0
C1203 C 0.90488 0.33744 0.36056 0.0
C1204 C 0.89279 0.31324 0.3837 0.0
C1205 C 0.86809 0.30173 0.39346 0.0
C1206 C 0.85683 0.27886 0.41518 0.0
C1207 C 0.87015 0.26744 0.42774 0.0
C1208 C 0.89477 0.2789 0.41874 0.0
C1209 C 0.90611 0.30175 0.39696 0.0
C1210 C 0.95778 0.43874 0.46629 0.0
C1211 C 0.97492 0.43699 0.4996 0.0
C1212 C 0.94529 0.42126 0.42366 0.0
C1213 C 0.95021 0.40214 0.41283 0.0
C1214 C 0.96856 0.40149 0.44395 0.0
C1215 C 0.9807 0.41866 0.4871 0.0
C1216 C 0.93426 0.3813 0.37377 0.0
C1217 C 0.92337 0.35749 0.39165 0.0
C1218 C 0.92768 0.3848 0.32168 0.0
C1219 C 0.93975 0.40917 0.29893 0.0
C1220 C 0.96514 0.42305 0.29943 0.0
C1221 C 0.9764 0.44608 0.27842 0.0
C1222 C 0.96248 0.4554 0.25651 0.0
C1223 C 0.93725 0.4417 0.25547 0.0
C1224 C 0.92589 0.41867 0.27647 0.0
H1225 H 0.97124 0.47323 0.24028 0.0
H1226 H 0.8614 0.24974 0.44458 0.0
H1227 H 0.60684 0.84235 0.19619 0.0
H1228 H 0.60983 0.87769 0.2479 0.0
H1229 H 0.53495 0.85289 0.20286 0.0
H1230 H 0.53169 0.81752 0.1514 0.0
H1231 H 0.56733 0.90268 0.18483 0.0
H1232 H 0.54875 0.84599 0.32429 0.0
H1233 H 0.5555 0.81813 0.37918 0.0
H1234 H 0.62621 0.87709 0.4329 0.0
H1235 H 0.62 0.90524 0.37771 0.0
H1236 H 0.53316 0.96778 0.36402 0.0
H1237 H 0.53984 0.94091 0.30298 0.0
H1238 H 0.60928 0.96502 0.38597 0.0
H1239 H 0.60217 0.99118 0.44858 0.0
H1240 H 0.58482 0.91844 0.38156 0.0
H1241 H 0.6027 0.97666 0.25133 0.0
H1242 H 0.59757 0.00516 0.19526 0.0
H1243 H 0.53123 0.94553 0.12211 0.0
H1244 H 0.53573 0.91671 0.17834 0.0
C1245 C 0.59092 0.84424 0.19792 0.0
C1246 C 0.56903 0.82717 0.16974 0.0
C1247 C 0.59269 0.86444 0.22732 0.0
C1248 C 0.57264 0.86786 0.22873 0.0
C1249 C 0.55063 0.85056 0.20182 0.0
C1250 C 0.54877 0.83027 0.17286 0.0
C1251 C 0.57463 0.88974 0.25742 0.0
C1252 C 0.57096 0.90616 0.22792 0.0
C1253 C 0.58032 0.89455 0.31316 0.0
C1254 C 0.58402 0.87764 0.34639 0.0
C1255 C 0.56583 0.85296 0.34742 0.0
C1256 C 0.56953 0.83712 0.37867 0.0
C1257 C 0.5913 0.84581 0.40937 0.0
C1258 C 0.60938 0.87037 0.40901 0.0
C1259 C 0.60577 0.88627 0.37779 0.0
C1260 C 0.55013 0.96785 0.36833 0.0
C1261 C 0.56704 0.98133 0.4113 0.0
C1262 C 0.554 0.95254 0.33324 0.0
C1263 C 0.5751 0.95095 0.3398 0.0
C1264 C 0.5928 0.96583 0.38036 0.0
C1265 C 0.58874 0.98078 0.41603 0.0
C1266 C 0.57717 0.93153 0.30924 0.0
C1267 C 0.58157 0.91541 0.33835 0.0
C1268 C 0.57242 0.9272 0.253 0.0
C1269 C 0.56948 0.94453 0.21943 0.0
C1270 C 0.58689 0.96964 0.22366 0.0
C1271 C 0.58412 0.98585 0.19176 0.0
C1272 C 0.56407 0.97717 0.15521 0.0
C1273 C 0.54675 0.95224 0.15046 0.0
C1274 C 0.54942 0.93595 0.18231 0.0
H1275 H 0.56197 0.98974 0.1305 0.0
H1276 H 0.59414 0.83353 0.43355 0.0
H1277 H 0.68985 0.46671 0.14875 0.0
H1278 H 0.66122 0.46403 0.21485 0.0
H1279 H 0.70278 0.54236 0.24876 0.0
H1280 H 0.73128 0.54517 0.18371 0.0
H1281 H 0.6916 0.51942 0.33961 0.0
H1282 H 0.64857 0.51537 0.17309 0.0
H1283 H 0.63 0.49811 0.08215 0.0
H1284 H 0.58304 0.42863 0.14409 0.0
H1285 H 0.60129 0.44546 0.23544 0.0
H1286 H 0.61367 0.54839 0.47765 0.0
H1287 H 0.64102 0.54351 0.41998 0.0
H1288 H 0.58715 0.46756 0.38272 0.0
H1289 H 0.5591 0.4728 0.43833 0.0
H1290 H 0.60383 0.48495 0.29563 0.0
H1291 H 0.64739 0.48773 0.46094 0.0
H1292 H 0.66822 0.50345 0.55061 0.0
H1293 H 0.71415 0.57393 0.4919 0.0
H1294 H 0.69427 0.55835 0.40119 0.0
C1295 C 0.69285 0.48334 0.17026 0.0
C1296 C 0.71294 0.50614 0.16076 0.0
C1297 C 0.6764 0.48181 0.2079 0.0
C1298 C 0.67973 0.50303 0.23675 0.0
C1299 C 0.69978 0.52571 0.22725 0.0
C1300 C 0.71608 0.52727 0.18974 0.0
C1301 C 0.66282 0.50195 0.27768 0.0
C1302 C 0.67242 0.51201 0.32985 0.0
C1303 C 0.63766 0.49168 0.26569 0.0
C1304 C 0.62646 0.4816 0.21097 0.0
C1305 C 0.63435 0.49637 0.16726 0.0
C1306 C 0.62382 0.48668 0.11568 0.0
C1307 C 0.60532 0.46227 0.10736 0.0
C1308 C 0.59727 0.44753 0.15064 0.0
C1309 C 0.60767 0.45715 0.20233 0.0
C1310 C 0.60776 0.53047 0.45817 0.0
C1311 C 0.58411 0.511 0.46285 0.0
C1312 C 0.62358 0.52762 0.42521 0.0
C1313 C 0.61651 0.50502 0.39712 0.0
C1314 C 0.59321 0.48524 0.40361 0.0
C1315 C 0.57717 0.48821 0.4358 0.0
C1316 C 0.63262 0.50266 0.35793 0.0
C1317 C 0.62292 0.49204 0.30587 0.0
C1318 C 0.65773 0.51231 0.37001 0.0
C1319 C 0.66917 0.52197 0.42461 0.0
C1320 C 0.6618 0.50663 0.46731 0.0
C1321 C 0.67348 0.51549 0.51826 0.0
C1322 C 0.6922 0.53976 0.52726 0.0
C1323 C 0.69956 0.55516 0.485 0.0
C1324 C 0.68825 0.54628 0.4337 0.0
H1325 H 0.70111 0.54657 0.56686 0.0
H1326 H 0.59722 0.45478 0.0674 0.0
H1327 H 0.20653 0.72896 0.22271 0.0
H1328 H 0.1759 0.69663 0.27192 0.0
H1329 H 0.18909 0.64341 0.18942 0.0
H1330 H 0.21987 0.67593 0.139 0.0
H1331 H 0.14048 0.62906 0.18799 0.0
H1332 H 0.20595 0.65751 0.31931 0.0
H1333 H 0.24146 0.68825 0.3761 0.0
H1334 H 0.19733 0.71232 0.45368 0.0
H1335 H 0.16161 0.68199 0.3968 0.0
H1336 H 0.05619 0.54154 0.36299 0.0
H1337 H 0.09018 0.56581 0.30843 0.0
H1338 H 0.09505 0.63216 0.37692 0.0
H1339 H 0.06159 0.60815 0.43208 0.0
H1340 H 0.13785 0.63455 0.38545 0.0
H1341 H 0.07395 0.60992 0.24622 0.0
H1342 H 0.03882 0.58074 0.18634 0.0
H1343 H 0.08031 0.55025 0.12203 0.0
H1344 H 0.1156 0.57903 0.18213 0.0
C1345 C 0.20322 0.71045 0.21546 0.0
C1346 C 0.21567 0.705 0.17704 0.0
C1347 C 0.18574 0.69199 0.24382 0.0
C1348 C 0.18034 0.66764 0.23462 0.0
C1349 C 0.19309 0.66212 0.19721 0.0
C1350 C 0.21077 0.68071 0.16879 0.0
C1351 C 0.16032 0.6481 0.26223 0.0
C1352 C 0.14008 0.62984 0.23122 0.0
C1353 C 0.15972 0.64944 0.31861 0.0
C1354 C 0.1811 0.66751 0.35355 0.0
C1355 C 0.20383 0.66945 0.34826 0.0
C1356 C 0.224 0.6868 0.3805 0.0
C1357 C 0.22166 0.70225 0.41842 0.0
C1358 C 0.19912 0.70033 0.4243 0.0
C1359 C 0.17889 0.68303 0.39212 0.0
C1360 C 0.0642 0.56125 0.36558 0.0
C1361 C 0.05633 0.5729 0.4023 0.0
C1362 C 0.08364 0.57512 0.33439 0.0
C1363 C 0.09529 0.60083 0.33892 0.0
C1364 C 0.08651 0.61236 0.37322 0.0
C1365 C 0.06728 0.59857 0.40457 0.0
C1366 C 0.1176 0.61605 0.31103 0.0
C1367 C 0.13835 0.63344 0.3422 0.0
C1368 C 0.11862 0.6139 0.25481 0.0
C1369 C 0.09729 0.59637 0.21929 0.0
C1370 C 0.0755 0.5968 0.21979 0.0
C1371 C 0.05558 0.58037 0.18569 0.0
C1372 C 0.0573 0.56358 0.15057 0.0
C1373 C 0.07897 0.56321 0.14938 0.0
C1374 C 0.09893 0.57956 0.18347 0.0
H1375 H 0.04187 0.5509 0.12415 0.0
H1376 H 0.2373 0.71569 0.4433 0.0
loop_
_geom_bond_atom_site_label_1
_geom_bond_atom_site_label_2
_geom_bond_distance
_geom_bond_site_symmetry_2
_ccdc_geom_bond_type
C0 O2 1.247 . S
C0 O4 1.258 . S
C1 O8 1.247 . S
C1 O9 1.258 . S
O2 C0 1.247 . S
O2 Zn3 2.028 . S
Zn3 O2 2.028 . S
Zn3 O7 2.035 . S
Zn3 O9 2.035 . S
Zn3 O10 2.028 . S
O4 C0 1.258 . S
O4 Zn5 2.035 . S
Zn5 O4 2.035 . S
Zn5 O6 2.028 . S
Zn5 O8 2.028 . S
Zn5 O11 2.035 . S
O6 Zn5 2.028 . S
O6 C12 1.247 . S
O7 Zn3 2.035 . S
O7 C12 1.258 . S
O8 C1 1.247 . S
O8 Zn5 2.028 . S
O9 C1 1.258 . S
O9 Zn3 2.035 . S
O10 Zn3 2.028 . S
O10 C13 1.247 . S
O11 Zn5 2.035 . S
O11 C13 1.258 . S
C12 O6 1.247 . S
C12 O7 1.258 . S
C13 O10 1.247 . S
C13 O11 1.258 . S
C14 O16 1.247 . S
C14 O18 1.258 . S
C15 O22 1.247 . S
C15 O23 1.258 . S
O16 C14 1.247 . S
O16 Zn17 2.028 . S
Zn17 O16 2.028 . S
Zn17 O21 2.035 . S
Zn17 O23 2.035 . S
Zn17 O24 2.028 . S
O18 C14 1.258 . S
O18 Zn19 2.035 . S
Zn19 O18 2.035 . S
Zn19 O20 2.028 . S
Zn19 O22 2.028 . S
Zn19 O25 2.035 . S
O20 Zn19 2.028 . S
O20 C26 1.247 . S
O21 Zn17 2.035 . S
O21 C26 1.258 . S
O22 C15 1.247 . S
O22 Zn19 2.028 . S
O23 C15 1.258 . S
O23 Zn17 2.035 . S
O24 Zn17 2.028 . S
O24 C27 1.247 . S
O25 Zn19 2.035 . S
O25 C27 1.258 . S
C26 O20 1.247 . S
C26 O21 1.258 . S
C27 O24 1.247 . S
C27 O25 1.258 . S
C28 O30 1.247 . S
C28 O32 1.258 . S
C29 O36 1.247 . S
C29 O37 1.258 . S
O30 C28 1.247 . S
O30 Zn31 2.028 . S
Zn31 O30 2.028 . S
Zn31 O35 2.035 . S
Zn31 O37 2.035 1_554 S
Zn31 O38 2.028 1_554 S
O32 C28 1.258 . S
O32 Zn33 2.035 . S
Zn33 O32 2.035 . S
Zn33 O34 2.028 . S
Zn33 O36 2.028 1_554 S
Zn33 O39 2.035 1_554 S
O34 Zn33 2.028 . S
O34 C40 1.247 . S
O35 Zn31 2.035 . S
O35 C40 1.258 . S
O36 C29 1.247 . S
O36 Zn33 2.028 1_556 S
O37 C29 1.258 . S
O37 Zn31 2.035 1_556 S
O38 Zn31 2.028 1_556 S
O38 C41 1.247 . S
O39 Zn33 2.035 1_556 S
O39 C41 1.258 . S
C40 O34 1.247 . S
C40 O35 1.258 . S
C41 O38 1.247 . S
C41 O39 1.258 . S
C42 O44 1.247 1_556 S
C42 O46 1.258 1_556 S
C43 O50 1.247 . S
C43 O51 1.258 . S
O44 C42 1.247 1_554 S
O44 Zn45 2.028 . S
Zn45 O44 2.028 . S
Zn45 O49 2.035 . S
Zn45 O51 2.035 . S
Zn45 O52 2.028 . S
O46 C42 1.258 1_554 S
O46 Zn47 2.035 . S
Zn47 O46 2.035 . S
Zn47 O48 2.028 . S
Zn47 O50 2.028 . S
Zn47 O53 2.035 . S
O48 Zn47 2.028 . S
O48 C54 1.247 1_554 S
O49 Zn45 2.035 . S
O49 C54 1.258 1_554 S
O50 C43 1.247 . S
O50 Zn47 2.028 . S
O51 C43 1.258 . S
O51 Zn45 2.035 . S
O52 Zn45 2.028 . S
O52 C55 1.247 . S
O53 Zn47 2.035 . S
O53 C55 1.258 . S
C54 O48 1.247 1_556 S
C54 O49 1.258 1_556 S
C55 O52 1.247 . S
C55 O53 1.258 . S
C56 O58 1.247 . S
C56 O60 1.258 . S
C57 O64 1.247 . S
C57 O65 1.258 . S
O58 C56 1.247 . S
O58 Zn59 2.028 . S
Zn59 O58 2.028 . S
Zn59 O63 2.035 . S
Zn59 O65 2.035 . S
Zn59 O66 2.028 . S
O60 C56 1.258 . S
O60 Zn61 2.035 . S
Zn61 O60 2.035 . S
Zn61 O62 2.028 . S
Zn61 O64 2.028 . S
Zn61 O67 2.035 . S
O62 Zn61 2.028 . S
O62 C68 1.247 . S
O63 Zn59 2.035 . S
O63 C68 1.258 . S
O64 C57 1.247 . S
O64 Zn61 2.028 . S
O65 C57 1.258 . S
O65 Zn59 2.035 . S
O66 Zn59 2.028 . S
O66 C69 1.247 . S
O67 Zn61 2.035 . S
O67 C69 1.258 . S
C68 O62 1.247 . S
C68 O63 1.258 . S
C69 O66 1.247 . S
C69 O67 1.258 . S
C70 O72 1.247 . S
C70 O74 1.258 . S
C71 O78 1.247 . S
C71 O79 1.258 . S
O72 C70 1.247 . S
O72 Zn73 2.028 . S
Zn73 O72 2.028 . S
Zn73 O77 2.035 . S
Zn73 O79 2.035 . S
Zn73 O80 2.028 . S
O74 C70 1.258 . S
O74 Zn75 2.035 . S
Zn75 O74 2.035 . S
Zn75 O76 2.028 . S
Zn75 O78 2.028 . S
Zn75 O81 2.035 . S
O76 Zn75 2.028 . S
O76 C82 1.247 . S
O77 Zn73 2.035 . S
O77 C82 1.258 . S
O78 C71 1.247 . S
O78 Zn75 2.028 . S
O79 C71 1.258 . S
O79 Zn73 2.035 . S
O80 Zn73 2.028 . S
O80 C83 1.247 . S
O81 Zn75 2.035 . S
O81 C83 1.258 . S
C82 O76 1.247 . S
C82 O77 1.258 . S
C83 O80 1.247 . S
C83 O81 1.258 . S
C84 O96 1.241 . S
C84 O97 1.280 . S
C85 O98 1.277 . S
C85 O99 1.245 . S
C86 O110 1.247 . S
C86 O112 1.289 . S
Mg87 O88 1.906 . S
Mg87 O97 1.959 1_455 S
Mg87 O99 2.027 . S
Mg87 O100 2.040 1_455 S
O88 Mg87 1.906 . S
O88 Mg89 1.986 . S
O88 Mg90 1.917 . S
Mg89 O88 1.986 . S
Mg89 O96 2.042 1_455 S
Mg89 O98 2.041 . S
Mg89 O104 2.038 1_455 S
Mg89 O112 2.238 . S
Mg90 O88 1.917 . S
Mg90 O91 1.917 . S
Mg90 O101 2.106 1_455 S
Mg90 O103 2.079 1_455 S
Mg90 O112 2.106 . S
Mg90 O113 2.079 . S
O91 Mg90 1.917 . S
O91 Mg92 1.926 . S
O91 Mg93 1.986 . S
Mg92 O91 1.926 . S
Mg92 O106 1.984 . S
Mg92 O109 1.988 1_455 S
Mg92 O110 2.061 . S
Mg93 O91 1.986 . S
Mg93 O101 2.238 1_455 S
Mg93 O105 2.042 . S
Mg93 O107 2.041 1_455 S
Mg93 O114 2.038 . S
C94 O100 1.247 . S
C94 O101 1.289 . S
C95 O113 1.245 . S
C95 O114 1.274 . S
O96 C84 1.241 . S
O96 Mg89 2.042 1_655 S
O97 C84 1.280 . S
O97 Mg87 1.959 1_655 S
O98 C85 1.277 . S
O98 Mg89 2.041 . S
O99 C85 1.245 . S
O99 Mg87 2.027 . S
O100 Mg87 2.040 1_655 S
O100 C94 1.247 . S
O101 Mg90 2.106 1_655 S
O101 Mg93 2.238 1_655 S
O101 C94 1.289 . S
C102 O103 1.245 . S
C102 O104 1.274 . S
O103 Mg90 2.079 1_655 S
O103 C102 1.245 . S
O104 Mg89 2.038 1_655 S
O104 C102 1.274 . S
O105 Mg93 2.042 . S
O105 C108 1.241 . S
O106 Mg92 1.984 . S
O106 C108 1.280 . S
O107 Mg93 2.041 1_655 S
O107 C111 1.277 . S
C108 O105 1.241 . S
C108 O106 1.280 . S
O109 Mg92 1.988 1_655 S
O109 C111 1.245 . S
O110 C86 1.247 . S
O110 Mg92 2.061 . S
C111 O107 1.277 . S
C111 O109 1.245 . S
O112 C86 1.289 . S
O112 Mg89 2.238 . S
O112 Mg90 2.106 . S
O113 Mg90 2.079 . S
O113 C95 1.245 . S
O114 Mg93 2.038 . S
O114 C95 1.274 . S
C115 O127 1.241 . S
C115 O128 1.280 . S
C116 O129 1.277 . S
C116 O130 1.245 . S
C117 O141 1.247 . S
C117 O143 1.289 . S
Mg118 O119 1.926 . S
Mg118 O128 1.984 . S
Mg118 O130 1.988 1_545 S
Mg118 O131 2.061 . S
O119 Mg118 1.926 . S
O119 Mg120 1.986 . S
O119 Mg121 1.917 . S
Mg120 O119 1.986 . S
Mg120 O127 2.042 . S
Mg120 O129 2.041 1_545 S
Mg120 O135 2.038 . S
Mg120 O143 2.238 1_545 S
Mg121 O119 1.917 . S
Mg121 O122 1.917 1_545 S
Mg121 O132 2.106 . S
Mg121 O134 2.079 . S
Mg121 O143 2.106 1_545 S
Mg121 O144 2.079 1_545 S
O122 Mg121 1.917 1_565 S
O122 Mg123 1.926 . S
O122 Mg124 1.986 1_565 S
Mg123 O122 1.926 . S
Mg123 O137 1.984 . S
Mg123 O140 1.988 1_565 S
Mg123 O141 2.061 . S
Mg124 O122 1.986 1_545 S
Mg124 O132 2.238 . S
Mg124 O136 2.042 1_545 S
Mg124 O138 2.041 . S
Mg124 O145 2.038 1_545 S
C125 O131 1.247 . S
C125 O132 1.289 . S
C126 O144 1.245 . S
C126 O145 1.274 . S
O127 C115 1.241 . S
O127 Mg120 2.042 . S
O128 C115 1.280 . S
O128 Mg118 1.984 . S
O129 C116 1.277 . S
O129 Mg120 2.041 1_565 S
O130 C116 1.245 . S
O130 Mg118 1.988 1_565 S
O131 Mg118 2.061 . S
O131 C125 1.247 . S
O132 Mg121 2.106 . S
O132 Mg124 2.238 . S
O132 C125 1.289 . S
C133 O134 1.245 . S
C133 O135 1.274 . S
O134 Mg121 2.079 . S
O134 C133 1.245 . S
O135 Mg120 2.038 . S
O135 C133 1.274 . S
O136 Mg124 2.042 1_565 S
O136 C139 1.241 . S
O137 Mg123 1.984 . S
O137 C139 1.280 . S
O138 Mg124 2.041 . S
O138 C142 1.277 . S
C139 O136 1.241 . S
C139 O137 1.280 . S
O140 Mg123 1.988 1_545 S
O140 C142 1.245 . S
O141 C117 1.247 . S
O141 Mg123 2.061 . S
C142 O138 1.277 . S
C142 O140 1.245 . S
O143 C117 1.289 . S
O143 Mg120 2.238 1_565 S
O143 Mg121 2.106 1_565 S
O144 Mg121 2.079 1_565 S
O144 C126 1.245 . S
O145 Mg124 2.038 1_565 S
O145 C126 1.274 . S
C146 O158 1.241 . S
C146 O159 1.280 . S
C147 O160 1.277 . S
C147 O161 1.245 . S
C148 O172 1.247 . S
C148 O174 1.289 . S
Mg149 O150 1.926 . S
Mg149 O159 1.984 . S
Mg149 O161 1.988 . S
Mg149 O162 2.061 . S
O150 Mg149 1.926 . S
O150 Mg151 1.986 . S
O150 Mg152 1.917 . S
Mg151 O150 1.986 . S
Mg151 O158 2.042 . S
Mg151 O160 2.041 . S
Mg151 O166 2.038 . S
Mg151 O174 2.238 . S
Mg152 O150 1.917 . S
Mg152 O153 1.917 . S
Mg152 O163 2.106 . S
Mg152 O165 2.079 . S
Mg152 O174 2.106 . S
Mg152 O175 2.079 . S
O153 Mg152 1.917 . S
O153 Mg154 1.926 . S
O153 Mg155 1.986 . S
Mg154 O153 1.926 . S
Mg154 O168 1.984 . S
Mg154 O171 1.988 . S
Mg154 O172 2.061 . S
Mg155 O153 1.986 . S
Mg155 O163 2.238 . S
Mg155 O167 2.042 . S
Mg155 O169 2.041 . S
Mg155 O176 2.038 . S
C156 O162 1.247 . S
C156 O163 1.289 . S
C157 O175 1.245 . S
C157 O176 1.274 . S
O158 C146 1.241 . S
O158 Mg151 2.042 . S
O159 C146 1.280 . S
O159 Mg149 1.984 . S
O160 C147 1.277 . S
O160 Mg151 2.041 . S
O161 C147 1.245 . S
O161 Mg149 1.988 . S
O162 Mg149 2.061 . S
O162 C156 1.247 . S
O163 Mg152 2.106 . S
O163 Mg155 2.238 . S
O163 C156 1.289 . S
C164 O165 1.245 . S
C164 O166 1.274 . S
O165 Mg152 2.079 . S
O165 C164 1.245 . S
O166 Mg151 2.038 . S
O166 C164 1.274 . S
O167 Mg155 2.042 . S
O167 C170 1.241 . S
O168 Mg154 1.984 . S
O168 C170 1.280 . S
O169 Mg155 2.041 . S
O169 C173 1.277 . S
C170 O167 1.241 . S
C170 O168 1.280 . S
O171 Mg154 1.988 . S
O171 C173 1.245 . S
O172 C148 1.247 . S
O172 Mg154 2.061 . S
C173 O169 1.277 . S
C173 O171 1.245 . S
O174 C148 1.289 . S
O174 Mg151 2.238 . S
O174 Mg152 2.106 . S
O175 Mg152 2.079 . S
O175 C157 1.245 . S
O176 Mg155 2.038 . S
O176 C157 1.274 . S
H177 C195 0.951 . S
H178 C197 0.951 . S
H179 C199 0.950 . S
H180 C200 0.950 . S
H181 C202 0.950 . S
H182 C205 0.950 . S
H183 C206 0.950 . S
H184 C208 0.950 . S
H185 C209 0.950 . S
H186 C210 0.951 . S
H187 C212 0.951 . S
H188 C214 0.950 . S
H189 C215 0.950 . S
H190 C217 0.950 . S
H191 C220 0.950 . S
H192 C221 0.950 . S
H193 C223 0.950 . S
H194 C224 0.950 . S
C195 H177 0.951 . S
C195 C196 1.366 . S
C195 C197 1.388 . S
C196 C195 1.366 . S
C196 C200 1.385 . S
C197 H178 0.951 . S
C197 C195 1.388 . S
C197 C198 1.366 . S
C198 C197 1.366 . S
C198 C199 1.414 . S
C198 C201 1.499 . S
C199 H179 0.950 . S
C199 C198 1.414 . S
C199 C200 1.374 . S
C200 H180 0.950 . S
C200 C196 1.385 . S
C200 C199 1.374 . S
C201 C198 1.499 . S
C201 C202 1.373 . S
C201 C203 1.389 . S
C202 H181 0.950 . S
C202 C201 1.373 . S
C202 C218 1.377 . S
C203 C201 1.389 . S
C203 C204 1.524 . S
C203 C217 1.377 . S
C204 C203 1.524 . S
C204 C205 1.397 . S
C204 C209 1.363 . S
C205 H182 0.950 . S
C205 C204 1.397 . S
C205 C206 1.334 . S
C206 H183 0.950 . S
C206 C205 1.334 . S
C206 C207 1.287 . S
C207 C206 1.287 . S
C207 C208 1.524 . S
C207 H226 0.913 . S
C208 H184 0.950 . S
C208 C207 1.524 . S
C208 C209 1.415 . S
C209 H185 0.950 . S
C209 C204 1.363 . S
C209 C208 1.415 . S
C210 H186 0.951 . S
C210 C211 1.366 . S
C210 C212 1.388 . S
C211 C210 1.366 . S
C211 C215 1.385 . S
C212 H187 0.951 . S
C212 C210 1.388 . S
C212 C213 1.366 . S
C213 C212 1.366 . S
C213 C214 1.414 . S
C213 C216 1.499 . S
C214 H188 0.950 . S
C214 C213 1.414 . S
C214 C215 1.374 . S
C215 H189 0.950 . S
C215 C211 1.385 . S
C215 C214 1.374 . S
C216 C213 1.499 . S
C216 C217 1.373 . S
C216 C218 1.389 . S
C217 H190 0.950 . S
C217 C203 1.377 . S
C217 C216 1.373 . S
C218 C202 1.377 . S
C218 C216 1.389 . S
C218 C219 1.524 . S
C219 C218 1.524 . S
C219 C220 1.397 . S
C219 C224 1.363 . S
C220 H191 0.950 . S
C220 C219 1.397 . S
C220 C221 1.334 . S
C221 H192 0.950 . S
C221 C220 1.334 . S
C221 C222 1.287 . S
C222 C221 1.287 . S
C222 C223 1.524 . S
C222 H225 0.999 . S
C223 H193 0.950 . S
C223 C222 1.524 . S
C223 C224 1.415 . S
C224 H194 0.950 . S
C224 C219 1.363 . S
C224 C223 1.415 . S
H225 C222 0.999 . S
H226 C207 0.913 . S
H227 C245 0.951 . S
H228 C247 0.951 . S
H229 C249 0.950 . S
H230 C250 0.950 . S
H231 C252 0.950 . S
H232 C255 0.950 . S
H233 C256 0.950 . S
H234 C258 0.950 . S
H235 C259 0.950 . S
H236 C260 0.951 . S
H237 C262 0.951 . S
H238 C264 0.950 . S
H239 C265 0.950 . S
H240 C267 0.950 . S
H241 C270 0.950 . S
H242 C271 0.950 . S
H243 C273 0.950 . S
H244 C274 0.950 . S
C245 H227 0.951 . S
C245 C246 1.366 . S
C245 C247 1.388 . S
C246 C245 1.366 . S
C246 C250 1.385 . S
C247 H228 0.951 . S
C247 C245 1.388 . S
C247 C248 1.366 . S
C248 C247 1.366 . S
C248 C249 1.414 . S
C248 C251 1.499 . S
C249 H229 0.950 . S
C249 C248 1.414 . S
C249 C250 1.374 . S
C250 H230 0.950 . S
C250 C246 1.385 . S
C250 C249 1.374 . S
C251 C248 1.499 . S
C251 C252 1.373 . S
C251 C253 1.389 . S
C252 H231 0.950 . S
C252 C251 1.373 . S
C252 C268 1.377 . S
C253 C251 1.389 . S
C253 C254 1.524 . S
C253 C267 1.377 . S
C254 C253 1.524 . S
C254 C255 1.397 . S
C254 C259 1.363 . S
C255 H232 0.950 . S
C255 C254 1.397 . S
C255 C256 1.334 . S
C256 H233 0.950 . S
C256 C255 1.334 . S
C256 C257 1.287 . S
C257 C256 1.287 . S
C257 C258 1.524 . S
C257 H276 0.913 . S
C258 H234 0.950 . S
C258 C257 1.524 . S
C258 C259 1.415 . S
C259 H235 0.950 . S
C259 C254 1.363 . S
C259 C258 1.415 . S
C260 H236 0.951 . S
C260 C261 1.366 . S
C260 C262 1.388 . S
C261 C260 1.366 . S
C261 C265 1.385 . S
C262 H237 0.951 . S
C262 C260 1.388 . S
C262 C263 1.366 . S
C263 C262 1.366 . S
C263 C264 1.414 . S
C263 C266 1.499 . S
C264 H238 0.950 . S
C264 C263 1.414 . S
C264 C265 1.374 . S
C265 H239 0.950 . S
C265 C261 1.385 . S
C265 C264 1.374 . S
C266 C263 1.499 . S
C266 C267 1.373 . S
C266 C268 1.389 . S
C267 H240 0.950 . S
C267 C253 1.377 . S
C267 C266 1.373 . S
C268 C252 1.377 . S
C268 C266 1.389 . S
C268 C269 1.524 . S
C269 C268 1.524 . S
C269 C270 1.397 . S
C269 C274 1.363 . S
C270 H241 0.950 . S
C270 C269 1.397 . S
C270 C271 1.334 . S
C271 H242 0.950 . S
C271 C270 1.334 . S
C271 C272 1.287 . S
C272 C271 1.287 . S
C272 C273 1.524 . S
C272 H275 0.999 . S
C273 H243 0.950 . S
C273 C272 1.524 . S
C273 C274 1.415 . S
C274 H244 0.950 . S
C274 C269 1.363 . S
C274 C273 1.415 . S
H275 C272 0.999 . S
H276 C257 0.913 . S
H277 C295 0.951 . S
H278 C297 0.951 . S
H279 C299 0.950 . S
H280 C300 0.950 . S
H281 C302 0.950 . S
H282 C305 0.950 . S
H283 C306 0.950 . S
H284 C308 0.950 . S
H285 C309 0.950 . S
H286 C310 0.951 . S
H287 C312 0.951 . S
H288 C314 0.950 . S
H289 C315 0.950 . S
H290 C317 0.950 . S
H291 C320 0.950 . S
H292 C321 0.950 . S
H293 C323 0.950 . S
H294 C324 0.950 . S
C295 H277 0.951 . S
C295 C296 1.366 . S
C295 C297 1.388 . S
C296 C295 1.366 . S
C296 C300 1.385 . S
C297 H278 0.951 . S
C297 C295 1.388 . S
C297 C298 1.366 . S
C298 C297 1.366 . S
C298 C299 1.414 . S
C298 C301 1.499 . S
C299 H279 0.950 . S
C299 C298 1.414 . S
C299 C300 1.374 . S
C300 H280 0.950 . S
C300 C296 1.385 . S
C300 C299 1.374 . S
C301 C298 1.499 . S
C301 C302 1.373 . S
C301 C303 1.389 . S
C302 H281 0.950 . S
C302 C301 1.373 . S
C302 C318 1.377 . S
C303 C301 1.389 . S
C303 C304 1.524 . S
C303 C317 1.377 . S
C304 C303 1.524 . S
C304 C305 1.397 . S
C304 C309 1.363 . S
C305 H282 0.950 . S
C305 C304 1.397 . S
C305 C306 1.334 . S
C306 H283 0.950 . S
C306 C305 1.334 . S
C306 C307 1.287 . S
C307 C306 1.287 . S
C307 C308 1.524 . S
C307 H326 0.913 . S
C308 H284 0.950 . S
C308 C307 1.524 . S
C308 C309 1.415 . S
C309 H285 0.950 . S
C309 C304 1.363 . S
C309 C308 1.415 . S
C310 H286 0.951 . S
C310 C311 1.366 . S
C310 C312 1.388 . S
C311 C310 1.366 . S
C311 C315 1.385 . S
C312 H287 0.951 . S
C312 C310 1.388 . S
C312 C313 1.366 . S
C313 C312 1.366 . S
C313 C314 1.414 . S
C313 C316 1.499 . S
C314 H288 0.950 . S
C314 C313 1.414 . S
C314 C315 1.374 . S
C315 H289 0.950 . S
C315 C311 1.385 . S
C315 C314 1.374 . S
C316 C313 1.499 . S
C316 C317 1.373 . S
C316 C318 1.389 . S
C317 H290 0.950 . S
C317 C303 1.377 . S
C317 C316 1.373 . S
C318 C302 1.377 . S
C318 C316 1.389 . S
C318 C319 1.524 . S
C319 C318 1.524 . S
C319 C320 1.397 . S
C319 C324 1.363 . S
C320 H291 0.950 . S
C320 C319 1.397 . S
C320 C321 1.334 . S
C321 H292 0.950 . S
C321 C320 1.334 . S
C321 C322 1.287 . S
C322 C321 1.287 . S
C322 C323 1.524 . S
C322 H325 0.999 . S
C323 H293 0.950 . S
C323 C322 1.524 . S
C323 C324 1.415 . S
C324 H294 0.950 . S
C324 C319 1.363 . S
C324 C323 1.415 . S
H325 C322 0.999 . S
H326 C307 0.913 . S
H327 C345 0.951 . S
H328 C347 0.951 . S
H329 C349 0.950 . S
H330 C350 0.950 . S
H331 C352 0.950 . S
H332 C355 0.950 . S
H333 C356 0.950 . S
H334 C358 0.950 . S
H335 C359 0.950 . S
H336 C360 0.951 . S
H337 C362 0.951 . S
H338 C364 0.950 . S
H339 C365 0.950 . S
H340 C367 0.950 . S
H341 C370 0.950 . S
H342 C371 0.950 . S
H343 C373 0.950 . S
H344 C374 0.950 . S
C345 H327 0.951 . S
C345 C346 1.366 . S
C345 C347 1.388 . S
C346 C345 1.366 . S
C346 C350 1.385 . S
C347 H328 0.951 . S
C347 C345 1.388 . S
C347 C348 1.366 . S
C348 C347 1.366 . S
C348 C349 1.414 . S
C348 C351 1.499 . S
C349 H329 0.950 . S
C349 C348 1.414 . S
C349 C350 1.374 . S
C350 H330 0.950 . S
C350 C346 1.385 . S
C350 C349 1.374 . S
C351 C348 1.499 . S
C351 C352 1.373 . S
C351 C353 1.389 . S
C352 H331 0.950 . S
C352 C351 1.373 . S
C352 C368 1.377 . S
C353 C351 1.389 . S
C353 C354 1.524 . S
C353 C367 1.377 . S
C354 C353 1.524 . S
C354 C355 1.397 . S
C354 C359 1.363 . S
C355 H332 0.950 . S
C355 C354 1.397 . S
C355 C356 1.334 . S
C356 H333 0.950 . S
C356 C355 1.334 . S
C356 C357 1.287 . S
C357 C356 1.287 . S
C357 C358 1.524 . S
C357 H376 0.913 . S
C358 H334 0.950 . S
C358 C357 1.524 . S
C358 C359 1.415 . S
C359 H335 0.950 . S
C359 C354 1.363 . S
C359 C358 1.415 . S
C360 H336 0.951 . S
C360 C361 1.366 . S
C360 C362 1.388 . S
C361 C360 1.366 . S
C361 C365 1.385 . S
C362 H337 0.951 . S
C362 C360 1.388 . S
C362 C363 1.366 . S
C363 C362 1.366 . S
C363 C364 1.414 . S
C363 C366 1.499 . S
C364 H338 0.950 . S
C364 C363 1.414 . S
C364 C365 1.374 . S
C365 H339 0.950 . S
C365 C361 1.385 . S
C365 C364 1.374 . S
C366 C363 1.499 . S
C366 C367 1.373 . S
C366 C368 1.389 . S
C367 H340 0.950 . S
C367 C353 1.377 . S
C367 C366 1.373 . S
C368 C352 1.377 . S
C368 C366 1.389 . S
C368 C369 1.524 . S
C369 C368 1.524 . S
C369 C370 1.397 . S
C369 C374 1.363 . S
C370 H341 0.950 . S
C370 C369 1.397 . S
C370 C371 1.334 . S
C371 H342 0.950 . S
C371 C370 1.334 . S
C371 C372 1.287 . S
C372 C371 1.287 . S
C372 C373 1.524 . S
C372 H375 0.999 . S
C373 H343 0.950 . S
C373 C372 1.524 . S
C373 C374 1.415 . S
C374 H344 0.950 . S
C374 C369 1.363 . S
C374 C373 1.415 . S
H375 C372 0.999 . S
H376 C357 0.913 . S
H377 C395 0.951 . S
H378 C397 0.951 . S
H379 C399 0.950 . S
H380 C400 0.950 . S
H381 C402 0.950 . S
H382 C405 0.950 . S
H383 C406 0.950 . S
H384 C408 0.950 . S
H385 C409 0.950 . S
H386 C410 0.951 . S
H387 C412 0.951 . S
H388 C414 0.950 . S
H389 C415 0.950 . S
H390 C417 0.950 . S
H391 C420 0.950 . S
H392 C421 0.950 . S
H393 C423 0.950 . S
H394 C424 0.950 . S
C395 H377 0.951 . S
C395 C396 1.366 . S
C395 C397 1.388 . S
C396 C395 1.366 . S
C396 C400 1.385 . S
C397 H378 0.951 . S
C397 C395 1.388 . S
C397 C398 1.366 . S
C398 C397 1.366 . S
C398 C399 1.414 . S
C398 C401 1.499 . S
C399 H379 0.950 . S
C399 C398 1.414 . S
C399 C400 1.374 . S
C400 H380 0.950 . S
C400 C396 1.385 . S
C400 C399 1.374 . S
C401 C398 1.499 . S
C401 C402 1.373 . S
C401 C403 1.389 . S
C402 H381 0.950 . S
C402 C401 1.373 . S
C402 C418 1.377 . S
C403 C401 1.389 . S
C403 C404 1.524 . S
C403 C417 1.377 . S
C404 C403 1.524 . S
C404 C405 1.397 . S
C404 C409 1.363 . S
C405 H382 0.950 . S
C405 C404 1.397 . S
C405 C406 1.334 . S
C406 H383 0.950 . S
C406 C405 1.334 . S
C406 C407 1.287 . S
C407 C406 1.287 . S
C407 C408 1.524 . S
C407 H426 0.913 . S
C408 H384 0.950 . S
C408 C407 1.524 . S
C408 C409 1.415 . S
C409 H385 0.950 . S
C409 C404 1.363 . S
C409 C408 1.415 . S
C410 H386 0.951 . S
C410 C411 1.366 . S
C410 C412 1.388 . S
C411 C410 1.366 . S
C411 C415 1.385 . S
C412 H387 0.951 . S
C412 C410 1.388 . S
C412 C413 1.366 . S
C413 C412 1.366 . S
C413 C414 1.414 . S
C413 C416 1.499 . S
C414 H388 0.950 . S
C414 C413 1.414 . S
C414 C415 1.374 . S
C415 H389 0.950 . S
C415 C411 1.385 . S
C415 C414 1.374 . S
C416 C413 1.499 . S
C416 C417 1.373 . S
C416 C418 1.389 . S
C417 H390 0.950 . S
C417 C403 1.377 . S
C417 C416 1.373 . S
C418 C402 1.377 . S
C418 C416 1.389 . S
C418 C419 1.524 . S
C419 C418 1.524 . S
C419 C420 1.397 . S
C419 C424 1.363 . S
C420 H391 0.950 . S
C420 C419 1.397 . S
C420 C421 1.334 . S
C421 H392 0.950 . S
C421 C420 1.334 . S
C421 C422 1.287 . S
C422 C421 1.287 . S
C422 C423 1.524 . S
C422 H425 0.999 1_565 S
C423 H393 0.950 . S
C423 C422 1.524 . S
C423 C424 1.415 . S
C424 H394 0.950 . S
C424 C419 1.363 . S
C424 C423 1.415 . S
H425 C422 0.999 1_545 S
H426 C407 0.913 . S
H427 C445 0.951 . S
H428 C447 0.951 . S
H429 C449 0.950 . S
H430 C450 0.950 . S
H431 C452 0.950 . S
H432 C455 0.950 . S
H433 C456 0.950 . S
H434 C458 0.950 . S
H435 C459 0.950 . S
H436 C460 0.951 . S
H437 C462 0.951 . S
H438 C464 0.950 . S
H439 C465 0.950 . S
H440 C467 0.950 . S
H441 C470 0.950 . S
H442 C471 0.950 . S
H443 C473 0.950 . S
H444 C474 0.950 . S
C445 H427 0.951 . S
C445 C446 1.366 . S
C445 C447 1.388 . S
C446 C445 1.366 . S
C446 C450 1.385 . S
C447 H428 0.951 . S
C447 C445 1.388 . S
C447 C448 1.366 . S
C448 C447 1.366 . S
C448 C449 1.414 . S
C448 C451 1.499 . S
C449 H429 0.950 . S
C449 C448 1.414 . S
C449 C450 1.374 . S
C450 H430 0.950 . S
C450 C446 1.385 . S
C450 C449 1.374 . S
C451 C448 1.499 . S
C451 C452 1.373 . S
C451 C453 1.389 . S
C452 H431 0.950 . S
C452 C451 1.373 . S
C452 C468 1.377 . S
C453 C451 1.389 . S
C453 C454 1.524 . S
C453 C467 1.377 . S
C454 C453 1.524 . S
C454 C455 1.397 . S
C454 C459 1.363 . S
C455 H432 0.950 . S
C455 C454 1.397 . S
C455 C456 1.334 . S
C456 H433 0.950 . S
C456 C455 1.334 . S
C456 C457 1.287 . S
C457 C456 1.287 . S
C457 C458 1.524 . S
C457 H476 0.913 . S
C458 H434 0.950 . S
C458 C457 1.524 . S
C458 C459 1.415 . S
C459 H435 0.950 . S
C459 C454 1.363 . S
C459 C458 1.415 . S
C460 H436 0.951 . S
C460 C461 1.366 . S
C460 C462 1.388 . S
C461 C460 1.366 . S
C461 C465 1.385 . S
C462 H437 0.951 . S
C462 C460 1.388 . S
C462 C463 1.366 . S
C463 C462 1.366 . S
C463 C464 1.414 . S
C463 C466 1.499 . S
C464 H438 0.950 . S
C464 C463 1.414 . S
C464 C465 1.374 . S
C465 H439 0.950 . S
C465 C461 1.385 . S
C465 C464 1.374 . S
C466 C463 1.499 . S
C466 C467 1.373 . S
C466 C468 1.389 . S
C467 H440 0.950 . S
C467 C453 1.377 . S
C467 C466 1.373 . S
C468 C452 1.377 . S
C468 C466 1.389 . S
C468 C469 1.524 . S
C469 C468 1.524 . S
C469 C470 1.397 . S
C469 C474 1.363 . S
C470 H441 0.950 . S
C470 C469 1.397 . S
C470 C471 1.334 . S
C471 H442 0.950 . S
C471 C470 1.334 . S
C471 C472 1.287 . S
C472 C471 1.287 . S
C472 C473 1.524 . S
C472 H475 0.999 . S
C473 H443 0.950 . S
C473 C472 1.524 . S
C473 C474 1.415 . S
C474 H444 0.950 . S
C474 C469 1.363 . S
C474 C473 1.415 . S
H475 C472 0.999 . S
H476 C457 0.913 . S
H477 C495 0.951 . S
H478 C497 0.951 . S
H479 C499 0.950 . S
H480 C500 0.950 . S
H481 C502 0.950 . S
H482 C505 0.950 . S
H483 C506 0.950 . S
H484 C508 0.950 . S
H485 C509 0.950 . S
H486 C510 0.951 . S
H487 C512 0.951 . S
H488 C514 0.950 . S
H489 C515 0.950 . S
H490 C517 0.950 . S
H491 C520 0.950 . S
H492 C521 0.950 . S
H493 C523 0.950 . S
H494 C524 0.950 . S
C495 H477 0.951 . S
C495 C496 1.366 . S
C495 C497 1.388 . S
C496 C495 1.366 . S
C496 C500 1.385 . S
C497 H478 0.951 . S
C497 C495 1.388 . S
C497 C498 1.366 . S
C498 C497 1.366 . S
C498 C499 1.414 . S
C498 C501 1.499 . S
C499 H479 0.950 . S
C499 C498 1.414 . S
C499 C500 1.374 . S
C500 H480 0.950 . S
C500 C496 1.385 . S
C500 C499 1.374 . S
C501 C498 1.499 . S
C501 C502 1.373 . S
C501 C503 1.389 . S
C502 H481 0.950 . S
C502 C501 1.373 . S
C502 C518 1.377 . S
C503 C501 1.389 . S
C503 C504 1.524 . S
C503 C517 1.377 . S
C504 C503 1.524 . S
C504 C505 1.397 . S
C504 C509 1.363 . S
C505 H482 0.950 . S
C505 C504 1.397 . S
C505 C506 1.334 . S
C506 H483 0.950 . S
C506 C505 1.334 . S
C506 C507 1.287 . S
C507 C506 1.287 . S
C507 C508 1.524 . S
C507 H526 0.913 . S
C508 H484 0.950 . S
C508 C507 1.524 . S
C508 C509 1.415 . S
C509 H485 0.950 . S
C509 C504 1.363 . S
C509 C508 1.415 . S
C510 H486 0.951 . S
C510 C511 1.366 . S
C510 C512 1.388 . S
C511 C510 1.366 . S
C511 C515 1.385 . S
C512 H487 0.951 . S
C512 C510 1.388 . S
C512 C513 1.366 . S
C513 C512 1.366 . S
C513 C514 1.414 . S
C513 C516 1.499 . S
C514 H488 0.950 . S
C514 C513 1.414 . S
C514 C515 1.374 . S
C515 H489 0.950 . S
C515 C511 1.385 . S
C515 C514 1.374 . S
C516 C513 1.499 . S
C516 C517 1.373 . S
C516 C518 1.389 . S
C517 H490 0.950 . S
C517 C503 1.377 . S
C517 C516 1.373 . S
C518 C502 1.377 . S
C518 C516 1.389 . S
C518 C519 1.524 . S
C519 C518 1.524 . S
C519 C520 1.397 . S
C519 C524 1.363 . S
C520 H491 0.950 . S
C520 C519 1.397 . S
C520 C521 1.334 . S
C521 H492 0.950 . S
C521 C520 1.334 . S
C521 C522 1.287 . S
C522 C521 1.287 . S
C522 C523 1.524 . S
C522 H525 0.999 . S
C523 H493 0.950 . S
C523 C522 1.524 . S
C523 C524 1.415 . S
C524 H494 0.950 . S
C524 C519 1.363 . S
C524 C523 1.415 . S
H525 C522 0.999 . S
H526 C507 0.913 . S
H527 C545 0.951 . S
H528 C547 0.951 . S
H529 C549 0.950 . S
H530 C550 0.950 1_554 S
H531 C552 0.950 . S
H532 C555 0.950 . S
H533 C556 0.950 . S
H534 C558 0.950 . S
H535 C559 0.950 . S
H536 C560 0.951 . S
H537 C562 0.951 . S
H538 C564 0.950 . S
H539 C565 0.950 . S
H540 C567 0.950 . S
H541 C570 0.950 . S
H542 C571 0.950 . S
H543 C573 0.950 . S
H544 C574 0.950 . S
C545 H527 0.951 . S
C545 C546 1.366 . S
C545 C547 1.388 . S
C546 C545 1.366 . S
C546 C550 1.385 . S
C547 H528 0.951 . S
C547 C545 1.388 . S
C547 C548 1.366 . S
C548 C547 1.366 . S
C548 C549 1.414 . S
C548 C551 1.499 . S
C549 H529 0.950 . S
C549 C548 1.414 . S
C549 C550 1.374 . S
C550 H530 0.950 1_556 S
C550 C546 1.385 . S
C550 C549 1.374 . S
C551 C548 1.499 . S
C551 C552 1.373 . S
C551 C553 1.389 . S
C552 H531 0.950 . S
C552 C551 1.373 . S
C552 C568 1.377 . S
C553 C551 1.389 . S
C553 C554 1.524 . S
C553 C567 1.377 . S
C554 C553 1.524 . S
C554 C555 1.397 . S
C554 C559 1.363 . S
C555 H532 0.950 . S
C555 C554 1.397 . S
C555 C556 1.334 . S
C556 H533 0.950 . S
C556 C555 1.334 . S
C556 C557 1.287 . S
C557 C556 1.287 . S
C557 C558 1.524 . S
C557 H576 0.913 . S
C558 H534 0.950 . S
C558 C557 1.524 . S
C558 C559 1.415 . S
C559 H535 0.950 . S
C559 C554 1.363 . S
C559 C558 1.415 . S
C560 H536 0.951 . S
C560 C561 1.366 . S
C560 C562 1.388 . S
C561 C560 1.366 . S
C561 C565 1.385 . S
C562 H537 0.951 . S
C562 C560 1.388 . S
C562 C563 1.366 . S
C563 C562 1.366 . S
C563 C564 1.414 . S
C563 C566 1.499 . S
C564 H538 0.950 . S
C564 C563 1.414 . S
C564 C565 1.374 . S
C565 H539 0.950 . S
C565 C561 1.385 . S
C565 C564 1.374 . S
C566 C563 1.499 . S
C566 C567 1.373 . S
C566 C568 1.389 . S
C567 H540 0.950 . S
C567 C553 1.377 . S
C567 C566 1.373 . S
C568 C552 1.377 . S
C568 C566 1.389 . S
C568 C569 1.524 . S
C569 C568 1.524 . S
C569 C570 1.397 . S
C569 C574 1.363 . S
C570 H541 0.950 . S
C570 C569 1.397 . S
C570 C571 1.334 . S
C571 H542 0.950 . S
C571 C570 1.334 . S
C571 C572 1.287 . S
C572 C571 1.287 . S
C572 C573 1.524 . S
C572 H575 0.999 . S
C573 H543 0.950 . S
C573 C572 1.524 . S
C573 C574 1.415 . S
C574 H544 0.950 . S
C574 C569 1.363 . S
C574 C573 1.415 . S
H575 C572 0.999 . S
H576 C557 0.913 . S
H577 C595 0.951 . S
H578 C597 0.951 . S
H579 C599 0.950 . S
H580 C600 0.950 . S
H581 C602 0.950 . S
H582 C605 0.950 . S
H583 C606 0.950 . S
H584 C608 0.950 1_554 S
H585 C609 0.950 . S
H586 C610 0.951 . S
H587 C612 0.951 . S
H588 C614 0.950 . S
H589 C615 0.950 . S
H590 C617 0.950 . S
H591 C620 0.950 . S
H592 C621 0.950 . S
H593 C623 0.950 . S
H594 C624 0.950 . S
C595 H577 0.951 . S
C595 C596 1.366 1_554 S
C595 C597 1.388 1_554 S
C596 C595 1.366 1_556 S
C596 C600 1.385 . S
C597 H578 0.951 . S
C597 C595 1.388 1_556 S
C597 C598 1.366 . S
C598 C597 1.366 . S
C598 C599 1.414 . S
C598 C601 1.499 . S
C599 H579 0.950 . S
C599 C598 1.414 . S
C599 C600 1.374 . S
C600 H580 0.950 . S
C600 C596 1.385 . S
C600 C599 1.374 . S
C601 C598 1.499 . S
C601 C602 1.373 . S
C601 C603 1.389 . S
C602 H581 0.950 . S
C602 C601 1.373 . S
C602 C618 1.377 . S
C603 C601 1.389 . S
C603 C604 1.524 . S
C603 C617 1.377 . S
C604 C603 1.524 . S
C604 C605 1.397 . S
C604 C609 1.363 . S
C605 H582 0.950 . S
C605 C604 1.397 . S
C605 C606 1.334 . S
C606 H583 0.950 . S
C606 C605 1.334 . S
C606 C607 1.287 . S
C607 C606 1.287 . S
C607 C608 1.524 . S
C607 H626 0.913 . S
C608 H584 0.950 1_556 S
C608 C607 1.524 . S
C608 C609 1.415 . S
C609 H585 0.950 . S
C609 C604 1.363 . S
C609 C608 1.415 . S
C610 H586 0.951 . S
C610 C611 1.366 . S
C610 C612 1.388 . S
C611 C610 1.366 . S
C611 C615 1.385 . S
C612 H587 0.951 . S
C612 C610 1.388 . S
C612 C613 1.366 . S
C613 C612 1.366 . S
C613 C614 1.414 . S
C613 C616 1.499 . S
C614 H588 0.950 . S
C614 C613 1.414 . S
C614 C615 1.374 . S
C615 H589 0.950 . S
C615 C611 1.385 . S
C615 C614 1.374 . S
C616 C613 1.499 . S
C616 C617 1.373 . S
C616 C618 1.389 . S
C617 H590 0.950 . S
C617 C603 1.377 . S
C617 C616 1.373 . S
C618 C602 1.377 . S
C618 C616 1.389 . S
C618 C619 1.524 . S
C619 C618 1.524 . S
C619 C620 1.397 . S
C619 C624 1.363 . S
C620 H591 0.950 . S
C620 C619 1.397 . S
C620 C621 1.334 . S
C621 H592 0.950 . S
C621 C620 1.334 . S
C621 C622 1.287 . S
C622 C621 1.287 . S
C622 C623 1.524 . S
C622 H625 0.999 . S
C623 H593 0.950 . S
C623 C622 1.524 . S
C623 C624 1.415 . S
C624 H594 0.950 . S
C624 C619 1.363 . S
C624 C623 1.415 . S
H625 C622 0.999 . S
H626 C607 0.913 . S
H627 C645 0.951 . S
H628 C647 0.951 . S
H629 C649 0.950 1_556 S
H630 C650 0.950 . S
H631 C652 0.950 . S
H632 C655 0.950 . S
H633 C656 0.950 . S
H634 C658 0.950 . S
H635 C659 0.950 . S
H636 C660 0.951 . S
H637 C662 0.951 . S
H638 C664 0.950 . S
H639 C665 0.950 . S
H640 C667 0.950 . S
H641 C670 0.950 . S
H642 C671 0.950 . S
H643 C673 0.950 . S
H644 C674 0.950 . S
C645 H627 0.951 . S
C645 C646 1.366 . S
C645 C647 1.388 . S
C646 C645 1.366 . S
C646 C650 1.385 . S
C647 H628 0.951 . S
C647 C645 1.388 . S
C647 C648 1.366 . S
C648 C647 1.366 . S
C648 C649 1.414 . S
C648 C651 1.499 1_554 S
C649 H629 0.950 1_554 S
C649 C648 1.414 . S
C649 C650 1.374 . S
C650 H630 0.950 . S
C650 C646 1.385 . S
C650 C649 1.374 . S
C651 C648 1.499 1_556 S
C651 C652 1.373 . S
C651 C653 1.389 . S
C652 H631 0.950 . S
C652 C651 1.373 . S
C652 C668 1.377 . S
C653 C651 1.389 . S
C653 C654 1.524 . S
C653 C667 1.377 . S
C654 C653 1.524 . S
C654 C655 1.397 . S
C654 C659 1.363 1_556 S
C655 H632 0.950 . S
C655 C654 1.397 . S
C655 C656 1.334 . S
C656 H633 0.950 . S
C656 C655 1.334 . S
C656 C657 1.287 1_556 S
C657 C656 1.287 1_554 S
C657 C658 1.524 . S
C657 H676 0.913 . S
C658 H634 0.950 . S
C658 C657 1.524 . S
C658 C659 1.415 . S
C659 H635 0.950 . S
C659 C654 1.363 1_554 S
C659 C658 1.415 . S
C660 H636 0.951 . S
C660 C661 1.366 . S
C660 C662 1.388 . S
C661 C660 1.366 . S
C661 C665 1.385 . S
C662 H637 0.951 . S
C662 C660 1.388 . S
C662 C663 1.366 . S
C663 C662 1.366 . S
C663 C664 1.414 . S
C663 C666 1.499 . S
C664 H638 0.950 . S
C664 C663 1.414 . S
C664 C665 1.374 . S
C665 H639 0.950 . S
C665 C661 1.385 . S
C665 C664 1.374 . S
C666 C663 1.499 . S
C666 C667 1.373 . S
C666 C668 1.389 . S
C667 H640 0.950 . S
C667 C653 1.377 . S
C667 C666 1.373 . S
C668 C652 1.377 . S
C668 C666 1.389 . S
C668 C669 1.524 . S
C669 C668 1.524 . S
C669 C670 1.397 . S
C669 C674 1.363 . S
C670 H641 0.950 . S
C670 C669 1.397 . S
C670 C671 1.334 . S
C671 H642 0.950 . S
C671 C670 1.334 . S
C671 C672 1.287 . S
C672 C671 1.287 . S
C672 C673 1.524 . S
C672 H675 0.999 . S
C673 H643 0.950 . S
C673 C672 1.524 . S
C673 C674 1.415 . S
C674 H644 0.950 . S
C674 C669 1.363 . S
C674 C673 1.415 . S
H675 C672 0.999 . S
H676 C657 0.913 . S
H677 C695 0.951 . S
H678 C697 0.951 . S
H679 C699 0.950 . S
H680 C700 0.950 . S
H681 C702 0.950 . S
H682 C705 0.950 . S
H683 C706 0.950 1_554 S
H684 C708 0.950 . S
H685 C709 0.950 . S
H686 C710 0.951 . S
H687 C712 0.951 . S
H688 C714 0.950 . S
H689 C715 0.950 . S
H690 C717 0.950 . S
H691 C720 0.950 . S
H692 C721 0.950 . S
H693 C723 0.950 . S
H694 C724 0.950 . S
C695 H677 0.951 . S
C695 C696 1.366 1_556 S
C695 C697 1.388 . S
C696 C695 1.366 1_554 S
C696 C700 1.385 . S
C697 H678 0.951 . S
C697 C695 1.388 . S
C697 C698 1.366 . S
C698 C697 1.366 . S
C698 C699 1.414 1_556 S
C698 C701 1.499 . S
C699 H679 0.950 . S
C699 C698 1.414 1_554 S
C699 C700 1.374 . S
C700 H680 0.950 . S
C700 C696 1.385 . S
C700 C699 1.374 . S
C701 C698 1.499 . S
C701 C702 1.373 . S
C701 C703 1.389 . S
C702 H681 0.950 . S
C702 C701 1.373 . S
C702 C718 1.377 . S
C703 C701 1.389 . S
C703 C704 1.524 . S
C703 C717 1.377 . S
C704 C703 1.524 . S
C704 C705 1.397 . S
C704 C709 1.363 . S
C705 H682 0.950 . S
C705 C704 1.397 . S
C705 C706 1.334 . S
C706 H683 0.950 1_556 S
C706 C705 1.334 . S
C706 C707 1.287 . S
C707 C706 1.287 . S
C707 C708 1.524 . S
C707 H726 0.913 . S
C708 H684 0.950 . S
C708 C707 1.524 . S
C708 C709 1.415 . S
C709 H685 0.950 . S
C709 C704 1.363 . S
C709 C708 1.415 . S
C710 H686 0.951 . S
C710 C711 1.366 . S
C710 C712 1.388 . S
C711 C710 1.366 . S
C711 C715 1.385 . S
C712 H687 0.951 . S
C712 C710 1.388 . S
C712 C713 1.366 . S
C713 C712 1.366 . S
C713 C714 1.414 . S
C713 C716 1.499 . S
C714 H688 0.950 . S
C714 C713 1.414 . S
C714 C715 1.374 . S
C715 H689 0.950 . S
C715 C711 1.385 . S
C715 C714 1.374 . S
C716 C713 1.499 . S
C716 C717 1.373 . S
C716 C718 1.389 . S
C717 H690 0.950 . S
C717 C703 1.377 . S
C717 C716 1.373 . S
C718 C702 1.377 . S
C718 C716 1.389 . S
C718 C719 1.524 . S
C719 C718 1.524 . S
C719 C720 1.397 . S
C719 C724 1.363 . S
C720 H691 0.950 . S
C720 C719 1.397 . S
C720 C721 1.334 . S
C721 H692 0.950 . S
C721 C720 1.334 . S
C721 C722 1.287 . S
C722 C721 1.287 . S
C722 C723 1.524 . S
C722 H725 0.999 . S
C723 H693 0.950 . S
C723 C722 1.524 . S
C723 C724 1.415 . S
C724 H694 0.950 . S
C724 C719 1.363 . S
C724 C723 1.415 . S
H725 C722 0.999 . S
H726 C707 0.913 . S
H727 C745 0.951 . S
H728 C747 0.951 . S
H729 C749 0.950 . S
H730 C750 0.950 . S
H731 C752 0.950 . S
H732 C755 0.950 . S
H733 C756 0.950 . S
H734 C758 0.950 . S
H735 C759 0.950 . S
H736 C760 0.951 . S
H737 C762 0.951 . S
H738 C764 0.950 . S
H739 C765 0.950 . S
H740 C767 0.950 . S
H741 C770 0.950 . S
H742 C771 0.950 . S
H743 C773 0.950 . S
H744 C774 0.950 . S
C745 H727 0.951 . S
C745 C746 1.366 . S
C745 C747 1.380 1_554 S
C746 C745 1.366 . S
C746 C750 1.385 . S
C747 H728 0.951 . S
C747 C745 1.380 1_556 S
C747 C748 1.373 . S
C748 C747 1.373 . S
C748 C749 1.414 . S
C748 C751 1.499 . S
C749 H729 0.950 . S
C749 C748 1.414 . S
C749 C750 1.374 1_556 S
C750 H730 0.950 . S
C750 C746 1.385 . S
C750 C749 1.374 1_554 S
C751 C748 1.499 . S
C751 C752 1.373 . S
C751 C753 1.389 . S
C752 H731 0.950 . S
C752 C751 1.373 . S
C752 C768 1.377 . S
C753 C751 1.389 . S
C753 C754 1.524 . S
C753 C767 1.377 . S
C754 C753 1.524 . S
C754 C755 1.397 . S
C754 C759 1.363 . S
C755 H732 0.950 . S
C755 C754 1.397 . S
C755 C756 1.334 . S
C756 H733 0.950 . S
C756 C755 1.334 . S
C756 C757 1.287 . S
C757 C756 1.287 . S
C757 C758 1.524 . S
C757 H776 0.913 . S
C758 H734 0.950 . S
C758 C757 1.524 . S
C758 C759 1.415 . S
C759 H735 0.950 . S
C759 C754 1.363 . S
C759 C758 1.415 . S
C760 H736 0.951 . S
C760 C761 1.366 . S
C760 C762 1.388 . S
C761 C760 1.366 . S
C761 C765 1.385 . S
C762 H737 0.951 . S
C762 C760 1.388 . S
C762 C763 1.366 . S
C763 C762 1.366 . S
C763 C764 1.414 . S
C763 C766 1.499 . S
C764 H738 0.950 . S
C764 C763 1.414 . S
C764 C765 1.374 . S
C765 H739 0.950 . S
C765 C761 1.385 . S
C765 C764 1.374 . S
C766 C763 1.499 . S
C766 C767 1.373 . S
C766 C768 1.389 . S
C767 H740 0.950 . S
C767 C753 1.377 . S
C767 C766 1.373 . S
C768 C752 1.377 . S
C768 C766 1.389 . S
C768 C769 1.524 . S
C769 C768 1.524 . S
C769 C770 1.397 . S
C769 C774 1.363 . S
C770 H741 0.950 . S
C770 C769 1.397 . S
C770 C771 1.334 . S
C771 H742 0.950 . S
C771 C770 1.334 . S
C771 C772 1.287 . S
C772 C771 1.287 . S
C772 C773 1.524 . S
C772 H775 0.999 1_655 S
C773 H743 0.950 . S
C773 C772 1.524 . S
C773 C774 1.415 . S
C774 H744 0.950 . S
C774 C769 1.363 . S
C774 C773 1.415 . S
H775 C772 0.999 1_455 S
H776 C757 0.913 . S
H777 C795 0.951 . S
H778 C797 0.951 . S
H779 C799 0.950 . S
H780 C800 0.950 . S
H781 C802 0.950 . S
H782 C805 0.950 . S
H783 C806 0.950 1_554 S
H784 C808 0.950 . S
H785 C809 0.950 . S
H786 C810 0.951 . S
H787 C812 0.951 . S
H788 C814 0.950 . S
H789 C815 0.950 . S
H790 C817 0.950 . S
H791 C820 0.950 . S
H792 C821 0.950 . S
H793 C823 0.950 . S
H794 C824 0.950 . S
C795 H777 0.951 . S
C795 C796 1.366 . S
C795 C797 1.388 . S
C796 C795 1.366 . S
C796 C800 1.385 . S
C797 H778 0.951 . S
C797 C795 1.388 . S
C797 C798 1.366 . S
C798 C797 1.366 . S
C798 C799 1.414 . S
C798 C801 1.499 . S
C799 H779 0.950 . S
C799 C798 1.414 . S
C799 C800 1.374 . S
C800 H780 0.950 . S
C800 C796 1.385 . S
C800 C799 1.374 . S
C801 C798 1.499 . S
C801 C802 1.373 . S
C801 C803 1.389 . S
C802 H781 0.950 . S
C802 C801 1.373 . S
C802 C818 1.377 . S
C803 C801 1.389 . S
C803 C804 1.524 . S
C803 C817 1.377 . S
C804 C803 1.524 . S
C804 C805 1.397 . S
C804 C809 1.363 . S
C805 H782 0.950 . S
C805 C804 1.397 . S
C805 C806 1.334 . S
C806 H783 0.950 1_556 S
C806 C805 1.334 . S
C806 C807 1.287 . S
C807 C806 1.287 . S
C807 C808 1.524 . S
C807 H826 0.913 1_556 S
C808 H784 0.950 . S
C808 C807 1.524 . S
C808 C809 1.415 . S
C809 H785 0.950 . S
C809 C804 1.363 . S
C809 C808 1.415 . S
C810 H786 0.951 . S
C810 C811 1.366 . S
C810 C812 1.388 . S
C811 C810 1.366 . S
C811 C815 1.385 . S
C812 H787 0.951 . S
C812 C810 1.388 . S
C812 C813 1.366 . S
C813 C812 1.366 . S
C813 C814 1.414 . S
C813 C816 1.499 . S
C814 H788 0.950 . S
C814 C813 1.414 . S
C814 C815 1.374 . S
C815 H789 0.950 . S
C815 C811 1.385 . S
C815 C814 1.374 . S
C816 C813 1.499 . S
C816 C817 1.373 . S
C816 C818 1.389 . S
C817 H790 0.950 . S
C817 C803 1.377 . S
C817 C816 1.373 . S
C818 C802 1.377 . S
C818 C816 1.389 . S
C818 C819 1.524 . S
C819 C818 1.524 . S
C819 C820 1.397 . S
C819 C824 1.363 . S
C820 H791 0.950 . S
C820 C819 1.397 . S
C820 C821 1.334 . S
C821 H792 0.950 . S
C821 C820 1.334 . S
C821 C822 1.287 . S
C822 C821 1.287 . S
C822 C823 1.524 . S
C822 H825 0.999 . S
C823 H793 0.950 . S
C823 C822 1.524 . S
C823 C824 1.415 . S
C824 H794 0.950 . S
C824 C819 1.363 . S
C824 C823 1.415 . S
H825 C822 0.999 . S
H826 C807 0.913 1_554 S
H827 C845 0.951 1_554 S
H828 C847 0.951 . S
H829 C849 0.950 . S
H830 C850 0.950 . S
H831 C852 0.950 . S
H832 C855 0.950 . S
H833 C856 0.950 . S
H834 C858 0.950 . S
H835 C859 0.950 . S
H836 C860 0.951 . S
H837 C862 0.951 . S
H838 C864 0.950 . S
H839 C865 0.950 . S
H840 C867 0.950 . S
H841 C870 0.950 . S
H842 C871 0.950 . S
H843 C873 0.950 . S
H844 C874 0.950 . S
C845 H827 0.951 1_556 S
C845 C846 1.366 . S
C845 C847 1.388 . S
C846 C845 1.366 . S
C846 C850 1.385 . S
C847 H828 0.951 . S
C847 C845 1.388 . S
C847 C848 1.366 . S
C848 C847 1.366 . S
C848 C849 1.414 . S
C848 C851 1.499 . S
C849 H829 0.950 . S
C849 C848 1.414 . S
C849 C850 1.374 . S
C850 H830 0.950 . S
C850 C846 1.385 . S
C850 C849 1.374 . S
C851 C848 1.499 . S
C851 C852 1.373 . S
C851 C853 1.389 . S
C852 H831 0.950 . S
C852 C851 1.373 . S
C852 C868 1.377 . S
C853 C851 1.389 . S
C853 C854 1.524 . S
C853 C867 1.377 . S
C854 C853 1.524 . S
C854 C855 1.397 . S
C854 C859 1.363 . S
C855 H832 0.950 . S
C855 C854 1.397 . S
C855 C856 1.334 . S
C856 H833 0.950 . S
C856 C855 1.334 . S
C856 C857 1.287 . S
C857 C856 1.287 . S
C857 C858 1.524 . S
C857 H876 0.913 . S
C858 H834 0.950 . S
C858 C857 1.524 . S
C858 C859 1.415 . S
C859 H835 0.950 . S
C859 C854 1.363 . S
C859 C858 1.415 . S
C860 H836 0.951 . S
C860 C861 1.366 . S
C860 C862 1.388 . S
C861 C860 1.366 . S
C861 C865 1.385 . S
C862 H837 0.951 . S
C862 C860 1.388 . S
C862 C863 1.366 . S
C863 C862 1.366 . S
C863 C864 1.414 . S
C863 C866 1.499 . S
C864 H838 0.950 . S
C864 C863 1.414 . S
C864 C865 1.374 . S
C865 H839 0.950 . S
C865 C861 1.385 . S
C865 C864 1.374 . S
C866 C863 1.499 . S
C866 C867 1.373 . S
C866 C868 1.389 . S
C867 H840 0.950 . S
C867 C853 1.377 . S
C867 C866 1.373 . S
C868 C852 1.377 . S
C868 C866 1.389 . S
C868 C869 1.524 . S
C869 C868 1.524 . S
C869 C870 1.397 . S
C869 C874 1.363 . S
C870 H841 0.950 . S
C870 C869 1.397 . S
C870 C871 1.334 . S
C871 H842 0.950 . S
C871 C870 1.334 . S
C871 C872 1.287 . S
C872 C871 1.287 . S
C872 C873 1.524 . S
C872 H875 0.999 . S
C873 H843 0.950 . S
C873 C872 1.524 . S
C873 C874 1.415 . S
C874 H844 0.950 . S
C874 C869 1.363 . S
C874 C873 1.415 . S
H875 C872 0.999 . S
H876 C857 0.913 . S
H877 C895 0.951 . S
H878 C897 0.951 . S
H879 C899 0.950 1_556 S
H880 C900 0.950 . S
H881 C902 0.950 . S
H882 C905 0.950 . S
H883 C906 0.950 . S
H884 C908 0.950 . S
H885 C909 0.950 . S
H886 C910 0.951 . S
H887 C912 0.951 . S
H888 C914 0.950 . S
H889 C915 0.950 . S
H890 C917 0.950 . S
H891 C920 0.950 . S
H892 C921 0.950 . S
H893 C923 0.950 . S
H894 C924 0.950 . S
C895 H877 0.951 . S
C895 C896 1.366 . S
C895 C897 1.388 . S
C896 C895 1.366 . S
C896 C900 1.385 . S
C897 H878 0.951 . S
C897 C895 1.388 . S
C897 C898 1.366 . S
C898 C897 1.366 . S
C898 C899 1.414 . S
C898 C901 1.499 1_554 S
C899 H879 0.950 1_554 S
C899 C898 1.414 . S
C899 C900 1.374 . S
C900 H880 0.950 . S
C900 C896 1.385 . S
C900 C899 1.374 . S
C901 C898 1.499 1_556 S
C901 C902 1.373 . S
C901 C903 1.389 . S
C902 H881 0.950 . S
C902 C901 1.373 . S
C902 C918 1.377 . S
C903 C901 1.389 . S
C903 C904 1.524 1_556 S
C903 C917 1.377 . S
C904 C903 1.524 1_554 S
C904 C905 1.397 . S
C904 C909 1.363 . S
C905 H882 0.950 . S
C905 C904 1.397 . S
C905 C906 1.334 . S
C906 H883 0.950 . S
C906 C905 1.334 . S
C906 C907 1.287 . S
C907 C906 1.287 . S
C907 C908 1.524 . S
C907 H926 0.913 . S
C908 H884 0.950 . S
C908 C907 1.524 . S
C908 C909 1.415 . S
C909 H885 0.950 . S
C909 C904 1.363 . S
C909 C908 1.415 . S
C910 H886 0.951 . S
C910 C911 1.366 . S
C910 C912 1.388 . S
C911 C910 1.366 . S
C911 C915 1.385 . S
C912 H887 0.951 . S
C912 C910 1.388 . S
C912 C913 1.366 . S
C913 C912 1.366 . S
C913 C914 1.414 . S
C913 C916 1.499 . S
C914 H888 0.950 . S
C914 C913 1.414 . S
C914 C915 1.374 . S
C915 H889 0.950 . S
C915 C911 1.385 . S
C915 C914 1.374 . S
C916 C913 1.499 . S
C916 C917 1.373 . S
C916 C918 1.389 . S
C917 H890 0.950 . S
C917 C903 1.377 . S
C917 C916 1.373 . S
C918 C902 1.377 . S
C918 C916 1.389 . S
C918 C919 1.524 . S
C919 C918 1.524 . S
C919 C920 1.397 . S
C919 C924 1.363 . S
C920 H891 0.950 . S
C920 C919 1.397 . S
C920 C921 1.334 . S
C921 H892 0.950 . S
C921 C920 1.334 . S
C921 C922 1.287 . S
C922 C921 1.287 . S
C922 C923 1.524 . S
C922 H925 0.999 . S
C923 H893 0.950 . S
C923 C922 1.524 . S
C923 C924 1.415 . S
C924 H894 0.950 . S
C924 C919 1.363 . S
C924 C923 1.415 . S
H925 C922 0.999 . S
H926 C907 0.913 . S
H927 C945 0.951 . S
H928 C947 0.951 . S
H929 C949 0.950 . S
H930 C950 0.950 . S
H931 C952 0.950 . S
H932 C955 0.950 . S
H933 C956 0.950 . S
H934 C958 0.950 . S
H935 C959 0.950 1_556 S
H936 C960 0.951 . S
H937 C962 0.951 . S
H938 C964 0.950 . S
H939 C965 0.950 . S
H940 C967 0.950 . S
H941 C970 0.950 . S
H942 C971 0.950 . S
H943 C973 0.950 . S
H944 C974 0.950 . S
C945 H927 0.951 . S
C945 C946 1.366 . S
C945 C947 1.388 . S
C946 C945 1.366 . S
C946 C950 1.385 . S
C947 H928 0.951 . S
C947 C945 1.388 . S
C947 C948 1.366 1_554 S
C948 C947 1.366 1_556 S
C948 C949 1.414 . S
C948 C951 1.499 . S
C949 H929 0.950 . S
C949 C948 1.414 . S
C949 C950 1.374 1_556 S
C950 H930 0.950 . S
C950 C946 1.385 . S
C950 C949 1.374 1_554 S
C951 C948 1.499 . S
C951 C952 1.373 . S
C951 C953 1.389 . S
C952 H931 0.950 . S
C952 C951 1.373 . S
C952 C968 1.377 . S
C953 C951 1.389 . S
C953 C954 1.524 1_556 S
C953 C967 1.377 . S
C954 C953 1.524 1_554 S
C954 C955 1.397 . S
C954 C959 1.363 . S
C955 H932 0.950 . S
C955 C954 1.397 . S
C955 C956 1.334 . S
C956 H933 0.950 . S
C956 C955 1.334 . S
C956 C957 1.287 . S
C957 C956 1.287 . S
C957 C958 1.524 . S
C957 H976 0.913 . S
C958 H934 0.950 . S
C958 C957 1.524 . S
C958 C959 1.415 . S
C959 H935 0.950 1_554 S
C959 C954 1.363 . S
C959 C958 1.415 . S
C960 H936 0.951 . S
C960 C961 1.366 . S
C960 C962 1.388 . S
C961 C960 1.366 . S
C961 C965 1.385 . S
C962 H937 0.951 . S
C962 C960 1.388 . S
C962 C963 1.366 . S
C963 C962 1.366 . S
C963 C964 1.414 . S
C963 C966 1.499 . S
C964 H938 0.950 . S
C964 C963 1.414 . S
C964 C965 1.374 . S
C965 H939 0.950 . S
C965 C961 1.385 . S
C965 C964 1.374 . S
C966 C963 1.499 . S
C966 C967 1.373 . S
C966 C968 1.389 . S
C967 H940 0.950 . S
C967 C953 1.377 . S
C967 C966 1.373 . S
C968 C952 1.377 . S
C968 C966 1.389 . S
C968 C969 1.524 . S
C969 C968 1.524 . S
C969 C970 1.397 . S
C969 C974 1.363 . S
C970 H941 0.950 . S
C970 C969 1.397 . S
C970 C971 1.334 . S
C971 H942 0.950 . S
C971 C970 1.334 . S
C971 C972 1.287 . S
C972 C971 1.287 . S
C972 C973 1.524 . S
C972 H975 0.999 . S
C973 H943 0.950 . S
C973 C972 1.524 . S
C973 C974 1.415 . S
C974 H944 0.950 . S
C974 C969 1.363 . S
C974 C973 1.415 . S
H975 C972 0.999 . S
H976 C957 0.913 . S
H977 C995 0.951 . S
H978 C997 0.951 . S
H979 C999 0.950 . S
H980 C1000 0.950 . S
H981 C1002 0.950 . S
H982 C1005 0.950 1_556 S
H983 C1006 0.950 . S
H984 C1008 0.950 . S
H985 C1009 0.950 1_556 S
H986 C1010 0.951 . S
H987 C1012 0.951 . S
H988 C1014 0.950 . S
H989 C1015 0.950 . S
H990 C1017 0.950 . S
H991 C1020 0.950 . S
H992 C1021 0.950 . S
H993 C1023 0.950 . S
H994 C1024 0.950 . S
C995 H977 0.951 . S
C995 C996 1.366 . S
C995 C997 1.388 1_554 S
C996 C995 1.366 . S
C996 C1000 1.385 1_554 S
C997 H978 0.951 . S
C997 C995 1.388 1_556 S
C997 C998 1.366 . S
C998 C997 1.366 . S
C998 C999 1.414 . S
C998 C1001 1.499 . S
C999 H979 0.950 . S
C999 C998 1.414 . S
C999 C1000 1.374 . S
C1000 H980 0.950 . S
C1000 C996 1.385 1_556 S
C1000 C999 1.374 . S
C1001 C998 1.499 . S
C1001 C1002 1.373 . S
C1001 C1003 1.389 . S
C1002 H981 0.950 . S
C1002 C1001 1.373 . S
C1002 C1018 1.377 . S
C1003 C1001 1.389 . S
C1003 C1004 1.524 . S
C1003 C1017 1.377 . S
C1004 C1003 1.524 . S
C1004 C1005 1.397 1_556 S
C1004 C1009 1.363 1_556 S
C1005 H982 0.950 1_554 S
C1005 C1004 1.397 1_554 S
C1005 C1006 1.334 . S
C1006 H983 0.950 . S
C1006 C1005 1.334 . S
C1006 C1007 1.287 . S
C1007 C1006 1.287 . S
C1007 C1008 1.524 . S
C1007 H1026 0.913 . S
C1008 H984 0.950 . S
C1008 C1007 1.524 . S
C1008 C1009 1.415 . S
C1009 H985 0.950 1_554 S
C1009 C1004 1.363 1_554 S
C1009 C1008 1.415 . S
C1010 H986 0.951 . S
C1010 C1011 1.366 . S
C1010 C1012 1.388 . S
C1011 C1010 1.366 . S
C1011 C1015 1.385 . S
C1012 H987 0.951 . S
C1012 C1010 1.388 . S
C1012 C1013 1.366 . S
C1013 C1012 1.366 . S
C1013 C1014 1.414 . S
C1013 C1016 1.499 . S
C1014 H988 0.950 . S
C1014 C1013 1.414 . S
C1014 C1015 1.374 . S
C1015 H989 0.950 . S
C1015 C1011 1.385 . S
C1015 C1014 1.374 . S
C1016 C1013 1.499 . S
C1016 C1017 1.373 . S
C1016 C1018 1.389 . S
C1017 H990 0.950 . S
C1017 C1003 1.377 . S
C1017 C1016 1.373 . S
C1018 C1002 1.377 . S
C1018 C1016 1.389 . S
C1018 C1019 1.524 . S
C1019 C1018 1.524 . S
C1019 C1020 1.397 . S
C1019 C1024 1.363 . S
C1020 H991 0.950 . S
C1020 C1019 1.397 . S
C1020 C1021 1.334 . S
C1021 H992 0.950 . S
C1021 C1020 1.334 . S
C1021 C1022 1.287 . S
C1022 C1021 1.287 . S
C1022 C1023 1.524 . S
C1022 H1025 0.999 . S
C1023 H993 0.950 . S
C1023 C1022 1.524 . S
C1023 C1024 1.415 . S
C1024 H994 0.950 . S
C1024 C1019 1.363 . S
C1024 C1023 1.415 . S
H1025 C1022 0.999 . S
H1026 C1007 0.913 . S
H1027 C1045 0.951 . S
H1028 C1047 0.951 . S
H1029 C1049 0.950 . S
H1030 C1050 0.950 . S
H1031 C1052 0.950 . S
H1032 C1055 0.950 . S
H1033 C1056 0.950 . S
H1034 C1058 0.950 . S
H1035 C1059 0.950 . S
H1036 C1060 0.951 . S
H1037 C1062 0.951 . S
H1038 C1064 0.950 . S
H1039 C1065 0.950 . S
H1040 C1067 0.950 . S
H1041 C1070 0.950 . S
H1042 C1071 0.950 . S
H1043 C1073 0.950 . S
H1044 C1074 0.950 . S
C1045 H1027 0.951 . S
C1045 C1046 1.366 . S
C1045 C1047 1.388 . S
C1046 C1045 1.366 . S
C1046 C1050 1.385 . S
C1047 H1028 0.951 . S
C1047 C1045 1.388 . S
C1047 C1048 1.366 . S
C1048 C1047 1.366 . S
C1048 C1049 1.414 . S
C1048 C1051 1.499 . S
C1049 H1029 0.950 . S
C1049 C1048 1.414 . S
C1049 C1050 1.374 . S
C1050 H1030 0.950 . S
C1050 C1046 1.385 . S
C1050 C1049 1.374 . S
C1051 C1048 1.499 . S
C1051 C1052 1.373 . S
C1051 C1053 1.389 . S
C1052 H1031 0.950 . S
C1052 C1051 1.373 . S
C1052 C1068 1.377 . S
C1053 C1051 1.389 . S
C1053 C1054 1.524 . S
C1053 C1067 1.377 . S
C1054 C1053 1.524 . S
C1054 C1055 1.397 . S
C1054 C1059 1.363 . S
C1055 H1032 0.950 . S
C1055 C1054 1.397 . S
C1055 C1056 1.334 . S
C1056 H1033 0.950 . S
C1056 C1055 1.334 . S
C1056 C1057 1.287 . S
C1057 C1056 1.287 . S
C1057 C1058 1.524 . S
C1057 H1076 0.913 . S
C1058 H1034 0.950 . S
C1058 C1057 1.524 . S
C1058 C1059 1.415 . S
C1059 H1035 0.950 . S
C1059 C1054 1.363 . S
C1059 C1058 1.415 . S
C1060 H1036 0.951 . S
C1060 C1061 1.366 . S
C1060 C1062 1.388 . S
C1061 C1060 1.366 . S
C1061 C1065 1.385 . S
C1062 H1037 0.951 . S
C1062 C1060 1.388 . S
C1062 C1063 1.366 . S
C1063 C1062 1.366 . S
C1063 C1064 1.414 . S
C1063 C1066 1.499 . S
C1064 H1038 0.950 . S
C1064 C1063 1.414 . S
C1064 C1065 1.374 . S
C1065 H1039 0.950 . S
C1065 C1061 1.385 . S
C1065 C1064 1.374 . S
C1066 C1063 1.499 . S
C1066 C1067 1.373 . S
C1066 C1068 1.389 . S
C1067 H1040 0.950 . S
C1067 C1053 1.377 . S
C1067 C1066 1.373 . S
C1068 C1052 1.377 . S
C1068 C1066 1.389 . S
C1068 C1069 1.524 . S
C1069 C1068 1.524 . S
C1069 C1070 1.397 . S
C1069 C1074 1.363 . S
C1070 H1041 0.950 . S
C1070 C1069 1.397 . S
C1070 C1071 1.334 . S
C1071 H1042 0.950 . S
C1071 C1070 1.334 . S
C1071 C1072 1.287 . S
C1072 C1071 1.287 . S
C1072 C1073 1.524 . S
C1072 H1075 0.999 . S
C1073 H1043 0.950 . S
C1073 C1072 1.524 . S
C1073 C1074 1.415 . S
C1074 H1044 0.950 . S
C1074 C1069 1.363 . S
C1074 C1073 1.415 . S
H1075 C1072 0.999 . S
H1076 C1057 0.913 . S
H1077 C1095 0.951 . S
H1078 C1097 0.951 . S
H1079 C1099 0.950 . S
H1080 C1100 0.950 . S
H1081 C1102 0.950 . S
H1082 C1105 0.950 . S
H1083 C1106 0.950 . S
H1084 C1108 0.950 . S
H1085 C1109 0.950 . S
H1086 C1110 0.951 . S
H1087 C1112 0.951 . S
H1088 C1114 0.950 . S
H1089 C1115 0.950 . S
H1090 C1117 0.950 . S
H1091 C1120 0.950 . S
H1092 C1121 0.950 . S
H1093 C1123 0.950 . S
H1094 C1124 0.950 . S
C1095 H1077 0.951 . S
C1095 C1096 1.366 . S
C1095 C1097 1.388 . S
C1096 C1095 1.366 . S
C1096 C1100 1.385 . S
C1097 H1078 0.951 . S
C1097 C1095 1.388 . S
C1097 C1098 1.366 . S
C1098 C1097 1.366 . S
C1098 C1099 1.414 . S
C1098 C1101 1.499 . S
C1099 H1079 0.950 . S
C1099 C1098 1.414 . S
C1099 C1100 1.374 . S
C1100 H1080 0.950 . S
C1100 C1096 1.385 . S
C1100 C1099 1.374 . S
C1101 C1098 1.499 . S
C1101 C1102 1.373 . S
C1101 C1103 1.389 . S
C1102 H1081 0.950 . S
C1102 C1101 1.373 . S
C1102 C1118 1.377 . S
C1103 C1101 1.389 . S
C1103 C1104 1.524 . S
C1103 C1117 1.377 . S
C1104 C1103 1.524 . S
C1104 C1105 1.397 . S
C1104 C1109 1.363 . S
C1105 H1082 0.950 . S
C1105 C1104 1.397 . S
C1105 C1106 1.334 . S
C1106 H1083 0.950 . S
C1106 C1105 1.334 . S
C1106 C1107 1.287 . S
C1107 C1106 1.287 . S
C1107 C1108 1.524 . S
C1107 H1126 0.913 . S
C1108 H1084 0.950 . S
C1108 C1107 1.524 . S
C1108 C1109 1.415 . S
C1109 H1085 0.950 . S
C1109 C1104 1.363 . S
C1109 C1108 1.415 . S
C1110 H1086 0.951 . S
C1110 C1111 1.366 . S
C1110 C1112 1.388 . S
C1111 C1110 1.366 . S
C1111 C1115 1.385 . S
C1112 H1087 0.951 . S
C1112 C1110 1.388 . S
C1112 C1113 1.366 . S
C1113 C1112 1.366 . S
C1113 C1114 1.414 . S
C1113 C1116 1.499 . S
C1114 H1088 0.950 . S
C1114 C1113 1.414 . S
C1114 C1115 1.374 . S
C1115 H1089 0.950 . S
C1115 C1111 1.385 . S
C1115 C1114 1.374 . S
C1116 C1113 1.499 . S
C1116 C1117 1.373 . S
C1116 C1118 1.389 . S
C1117 H1090 0.950 . S
C1117 C1103 1.377 . S
C1117 C1116 1.373 . S
C1118 C1102 1.377 . S
C1118 C1116 1.389 . S
C1118 C1119 1.524 . S
C1119 C1118 1.524 . S
C1119 C1120 1.397 . S
C1119 C1124 1.363 . S
C1120 H1091 0.950 . S
C1120 C1119 1.397 . S
C1120 C1121 1.334 . S
C1121 H1092 0.950 . S
C1121 C1120 1.334 . S
C1121 C1122 1.287 . S
C1122 C1121 1.287 . S
C1122 C1123 1.524 . S
C1122 H1125 0.999 . S
C1123 H1093 0.950 . S
C1123 C1122 1.524 . S
C1123 C1124 1.415 . S
C1124 H1094 0.950 . S
C1124 C1119 1.363 . S
C1124 C1123 1.415 . S
H1125 C1122 0.999 . S
H1126 C1107 0.913 . S
H1127 C1145 0.951 . S
H1128 C1147 0.951 . S
H1129 C1149 0.950 . S
H1130 C1150 0.950 . S
H1131 C1152 0.950 . S
H1132 C1155 0.950 . S
H1133 C1156 0.950 . S
H1134 C1158 0.950 . S
H1135 C1159 0.950 . S
H1136 C1160 0.951 . S
H1137 C1162 0.951 . S
H1138 C1164 0.950 . S
H1139 C1165 0.950 . S
H1140 C1167 0.950 . S
H1141 C1170 0.950 . S
H1142 C1171 0.950 . S
H1143 C1173 0.950 . S
H1144 C1174 0.950 . S
C1145 H1127 0.951 . S
C1145 C1146 1.366 . S
C1145 C1147 1.388 . S
C1146 C1145 1.366 . S
C1146 C1150 1.385 . S
C1147 H1128 0.951 . S
C1147 C1145 1.388 . S
C1147 C1148 1.366 . S
C1148 C1147 1.366 . S
C1148 C1149 1.414 . S
C1148 C1151 1.499 . S
C1149 H1129 0.950 . S
C1149 C1148 1.414 . S
C1149 C1150 1.374 . S
C1150 H1130 0.950 . S
C1150 C1146 1.385 . S
C1150 C1149 1.374 . S
C1151 C1148 1.499 . S
C1151 C1152 1.373 . S
C1151 C1153 1.389 . S
C1152 H1131 0.950 . S
C1152 C1151 1.373 . S
C1152 C1168 1.377 . S
C1153 C1151 1.389 . S
C1153 C1154 1.524 . S
C1153 C1167 1.377 . S
C1154 C1153 1.524 . S
C1154 C1155 1.397 . S
C1154 C1159 1.363 . S
C1155 H1132 0.950 . S
C1155 C1154 1.397 . S
C1155 C1156 1.334 . S
C1156 H1133 0.950 . S
C1156 C1155 1.334 . S
C1156 C1157 1.287 . S
C1157 C1156 1.287 . S
C1157 C1158 1.524 . S
C1157 H1176 0.913 . S
C1158 H1134 0.950 . S
C1158 C1157 1.524 . S
C1158 C1159 1.415 . S
C1159 H1135 0.950 . S
C1159 C1154 1.363 . S
C1159 C1158 1.415 . S
C1160 H1136 0.951 . S
C1160 C1161 1.366 . S
C1160 C1162 1.388 . S
C1161 C1160 1.366 . S
C1161 C1165 1.385 . S
C1162 H1137 0.951 . S
C1162 C1160 1.388 . S
C1162 C1163 1.366 . S
C1163 C1162 1.366 . S
C1163 C1164 1.414 . S
C1163 C1166 1.499 . S
C1164 H1138 0.950 . S
C1164 C1163 1.414 . S
C1164 C1165 1.374 . S
C1165 H1139 0.950 . S
C1165 C1161 1.385 . S
C1165 C1164 1.374 . S
C1166 C1163 1.499 . S
C1166 C1167 1.373 . S
C1166 C1168 1.389 . S
C1167 H1140 0.950 . S
C1167 C1153 1.377 . S
C1167 C1166 1.373 . S
C1168 C1152 1.377 . S
C1168 C1166 1.389 . S
C1168 C1169 1.524 . S
C1169 C1168 1.524 . S
C1169 C1170 1.397 . S
C1169 C1174 1.363 . S
C1170 H1141 0.950 . S
C1170 C1169 1.397 . S
C1170 C1171 1.334 . S
C1171 H1142 0.950 . S
C1171 C1170 1.334 . S
C1171 C1172 1.287 . S
C1172 C1171 1.287 . S
C1172 C1173 1.524 . S
C1172 H1175 0.999 . S
C1173 H1143 0.950 . S
C1173 C1172 1.524 . S
C1173 C1174 1.415 . S
C1174 H1144 0.950 . S
C1174 C1169 1.363 . S
C1174 C1173 1.415 . S
H1175 C1172 0.999 . S
H1176 C1157 0.913 . S
H1177 C1195 0.951 . S
H1178 C1197 0.951 . S
H1179 C1199 0.950 . S
H1180 C1200 0.950 . S
H1181 C1202 0.950 . S
H1182 C1205 0.950 . S
H1183 C1206 0.950 . S
H1184 C1208 0.950 . S
H1185 C1209 0.950 . S
H1186 C1210 0.951 . S
H1187 C1212 0.951 . S
H1188 C1214 0.950 . S
H1189 C1215 0.950 . S
H1190 C1217 0.950 . S
H1191 C1220 0.950 . S
H1192 C1221 0.950 . S
H1193 C1223 0.950 . S
H1194 C1224 0.950 . S
C1195 H1177 0.951 . S
C1195 C1196 1.366 . S
C1195 C1197 1.388 . S
C1196 C1195 1.366 . S
C1196 C1200 1.385 . S
C1197 H1178 0.951 . S
C1197 C1195 1.388 . S
C1197 C1198 1.366 . S
C1198 C1197 1.366 . S
C1198 C1199 1.414 . S
C1198 C1201 1.499 . S
C1199 H1179 0.950 . S
C1199 C1198 1.414 . S
C1199 C1200 1.374 . S
C1200 H1180 0.950 . S
C1200 C1196 1.385 . S
C1200 C1199 1.374 . S
C1201 C1198 1.499 . S
C1201 C1202 1.373 . S
C1201 C1203 1.389 . S
C1202 H1181 0.950 . S
C1202 C1201 1.373 . S
C1202 C1218 1.377 . S
C1203 C1201 1.389 . S
C1203 C1204 1.524 . S
C1203 C1217 1.377 . S
C1204 C1203 1.524 . S
C1204 C1205 1.397 . S
C1204 C1209 1.363 . S
C1205 H1182 0.950 . S
C1205 C1204 1.397 . S
C1205 C1206 1.334 . S
C1206 H1183 0.950 . S
C1206 C1205 1.334 . S
C1206 C1207 1.287 . S
C1207 C1206 1.287 . S
C1207 C1208 1.524 . S
C1207 H1226 0.913 . S
C1208 H1184 0.950 . S
C1208 C1207 1.524 . S
C1208 C1209 1.415 . S
C1209 H1185 0.950 . S
C1209 C1204 1.363 . S
C1209 C1208 1.415 . S
C1210 H1186 0.951 . S
C1210 C1211 1.366 . S
C1210 C1212 1.388 . S
C1211 C1210 1.366 . S
C1211 C1215 1.385 . S
C1212 H1187 0.951 . S
C1212 C1210 1.388 . S
C1212 C1213 1.366 . S
C1213 C1212 1.366 . S
C1213 C1214 1.414 . S
C1213 C1216 1.499 . S
C1214 H1188 0.950 . S
C1214 C1213 1.414 . S
C1214 C1215 1.374 . S
C1215 H1189 0.950 . S
C1215 C1211 1.385 . S
C1215 C1214 1.374 . S
C1216 C1213 1.499 . S
C1216 C1217 1.373 . S
C1216 C1218 1.389 . S
C1217 H1190 0.950 . S
C1217 C1203 1.377 . S
C1217 C1216 1.373 . S
C1218 C1202 1.377 . S
C1218 C1216 1.389 . S
C1218 C1219 1.524 . S
C1219 C1218 1.524 . S
C1219 C1220 1.397 . S
C1219 C1224 1.363 . S
C1220 H1191 0.950 . S
C1220 C1219 1.397 . S
C1220 C1221 1.334 . S
C1221 H1192 0.950 . S
C1221 C1220 1.334 . S
C1221 C1222 1.287 . S
C1222 C1221 1.287 . S
C1222 C1223 1.524 . S
C1222 H1225 0.999 . S
C1223 H1193 0.950 . S
C1223 C1222 1.524 . S
C1223 C1224 1.415 . S
C1224 H1194 0.950 . S
C1224 C1219 1.363 . S
C1224 C1223 1.415 . S
H1225 C1222 0.999 . S
H1226 C1207 0.913 . S
H1227 C1245 0.951 . S
H1228 C1247 0.951 . S
H1229 C1249 0.950 . S
H1230 C1250 0.950 . S
H1231 C1252 0.950 . S
H1232 C1255 0.950 . S
H1233 C1256 0.950 . S
H1234 C1258 0.950 . S
H1235 C1259 0.950 . S
H1236 C1260 0.951 . S
H1237 C1262 0.951 . S
H1238 C1264 0.950 . S
H1239 C1265 0.950 . S
H1240 C1267 0.950 . S
H1241 C1270 0.950 . S
H1242 C1271 0.950 . S
H1243 C1273 0.950 . S
H1244 C1274 0.950 . S
C1245 H1227 0.951 . S
C1245 C1246 1.366 . S
C1245 C1247 1.388 . S
C1246 C1245 1.366 . S
C1246 C1250 1.385 . S
C1247 H1228 0.951 . S
C1247 C1245 1.388 . S
C1247 C1248 1.366 . S
C1248 C1247 1.366 . S
C1248 C1249 1.414 . S
C1248 C1251 1.499 . S
C1249 H1229 0.950 . S
C1249 C1248 1.414 . S
C1249 C1250 1.374 . S
C1250 H1230 0.950 . S
C1250 C1246 1.385 . S
C1250 C1249 1.374 . S
C1251 C1248 1.499 . S
C1251 C1252 1.373 . S
C1251 C1253 1.389 . S
C1252 H1231 0.950 . S
C1252 C1251 1.373 . S
C1252 C1268 1.377 . S
C1253 C1251 1.389 . S
C1253 C1254 1.524 . S
C1253 C1267 1.377 . S
C1254 C1253 1.524 . S
C1254 C1255 1.397 . S
C1254 C1259 1.363 . S
C1255 H1232 0.950 . S
C1255 C1254 1.397 . S
C1255 C1256 1.334 . S
C1256 H1233 0.950 . S
C1256 C1255 1.334 . S
C1256 C1257 1.287 . S
C1257 C1256 1.287 . S
C1257 C1258 1.524 . S
C1257 H1276 0.913 . S
C1258 H1234 0.950 . S
C1258 C1257 1.524 . S
C1258 C1259 1.415 . S
C1259 H1235 0.950 . S
C1259 C1254 1.363 . S
C1259 C1258 1.415 . S
C1260 H1236 0.951 . S
C1260 C1261 1.366 . S
C1260 C1262 1.388 . S
C1261 C1260 1.366 . S
C1261 C1265 1.385 . S
C1262 H1237 0.951 . S
C1262 C1260 1.388 . S
C1262 C1263 1.366 . S
C1263 C1262 1.366 . S
C1263 C1264 1.414 . S
C1263 C1266 1.499 . S
C1264 H1238 0.950 . S
C1264 C1263 1.414 . S
C1264 C1265 1.374 . S
C1265 H1239 0.950 . S
C1265 C1261 1.385 . S
C1265 C1264 1.374 . S
C1266 C1263 1.499 . S
C1266 C1267 1.373 . S
C1266 C1268 1.389 . S
C1267 H1240 0.950 . S
C1267 C1253 1.377 . S
C1267 C1266 1.373 . S
C1268 C1252 1.377 . S
C1268 C1266 1.389 . S
C1268 C1269 1.524 . S
C1269 C1268 1.524 . S
C1269 C1270 1.397 . S
C1269 C1274 1.363 . S
C1270 H1241 0.950 . S
C1270 C1269 1.397 . S
C1270 C1271 1.334 . S
C1271 H1242 0.950 . S
C1271 C1270 1.334 . S
C1271 C1272 1.287 . S
C1272 C1271 1.287 . S
C1272 C1273 1.524 . S
C1272 H1275 0.999 . S
C1273 H1243 0.950 . S
C1273 C1272 1.524 . S
C1273 C1274 1.415 . S
C1274 H1244 0.950 . S
C1274 C1269 1.363 . S
C1274 C1273 1.415 . S
H1275 C1272 0.999 . S
H1276 C1257 0.913 . S
H1277 C1295 0.951 . S
H1278 C1297 0.951 . S
H1279 C1299 0.950 . S
H1280 C1300 0.950 . S
H1281 C1302 0.950 . S
H1282 C1305 0.950 . S
H1283 C1306 0.950 . S
H1284 C1308 0.950 . S
H1285 C1309 0.950 . S
H1286 C1310 0.951 . S
H1287 C1312 0.951 . S
H1288 C1314 0.950 . S
H1289 C1315 0.950 . S
H1290 C1317 0.950 . S
H1291 C1320 0.950 . S
H1292 C1321 0.950 . S
H1293 C1323 0.950 . S
H1294 C1324 0.950 . S
C1295 H1277 0.951 . S
C1295 C1296 1.366 . S
C1295 C1297 1.388 . S
C1296 C1295 1.366 . S
C1296 C1300 1.385 . S
C1297 H1278 0.951 . S
C1297 C1295 1.388 . S
C1297 C1298 1.366 . S
C1298 C1297 1.366 . S
C1298 C1299 1.414 . S
C1298 C1301 1.499 . S
C1299 H1279 0.950 . S
C1299 C1298 1.414 . S
C1299 C1300 1.374 . S
C1300 H1280 0.950 . S
C1300 C1296 1.385 . S
C1300 C1299 1.374 . S
C1301 C1298 1.499 . S
C1301 C1302 1.373 . S
C1301 C1303 1.389 . S
C1302 H1281 0.950 . S
C1302 C1301 1.373 . S
C1302 C1318 1.377 . S
C1303 C1301 1.389 . S
C1303 C1304 1.524 . S
C1303 C1317 1.377 . S
C1304 C1303 1.524 . S
C1304 C1305 1.397 . S
C1304 C1309 1.363 . S
C1305 H1282 0.950 . S
C1305 C1304 1.397 . S
C1305 C1306 1.334 . S
C1306 H1283 0.950 . S
C1306 C1305 1.334 . S
C1306 C1307 1.287 . S
C1307 C1306 1.287 . S
C1307 C1308 1.524 . S
C1307 H1326 0.913 . S
C1308 H1284 0.950 . S
C1308 C1307 1.524 . S
C1308 C1309 1.415 . S
C1309 H1285 0.950 . S
C1309 C1304 1.363 . S
C1309 C1308 1.415 . S
C1310 H1286 0.951 . S
C1310 C1311 1.366 . S
C1310 C1312 1.388 . S
C1311 C1310 1.366 . S
C1311 C1315 1.385 . S
C1312 H1287 0.951 . S
C1312 C1310 1.388 . S
C1312 C1313 1.366 . S
C1313 C1312 1.366 . S
C1313 C1314 1.414 . S
C1313 C1316 1.499 . S
C1314 H1288 0.950 . S
C1314 C1313 1.414 . S
C1314 C1315 1.374 . S
C1315 H1289 0.950 . S
C1315 C1311 1.385 . S
C1315 C1314 1.374 . S
C1316 C1313 1.499 . S
C1316 C1317 1.373 . S
C1316 C1318 1.389 . S
C1317 H1290 0.950 . S
C1317 C1303 1.377 . S
C1317 C1316 1.373 . S
C1318 C1302 1.377 . S
C1318 C1316 1.389 . S
C1318 C1319 1.524 . S
C1319 C1318 1.524 . S
C1319 C1320 1.397 . S
C1319 C1324 1.363 . S
C1320 H1291 0.950 . S
C1320 C1319 1.397 . S
C1320 C1321 1.334 . S
C1321 H1292 0.950 . S
C1321 C1320 1.334 . S
C1321 C1322 1.287 . S
C1322 C1321 1.287 . S
C1322 C1323 1.524 . S
C1322 H1325 0.999 . S
C1323 H1293 0.950 . S
C1323 C1322 1.524 . S
C1323 C1324 1.415 . S
C1324 H1294 0.950 . S
C1324 C1319 1.363 . S
C1324 C1323 1.415 . S
H1325 C1322 0.999 . S
H1326 C1307 0.913 . S
H1327 C1345 0.951 . S
H1328 C1347 0.951 . S
H1329 C1349 0.950 . S
H1330 C1350 0.950 . S
H1331 C1352 0.950 . S
H1332 C1355 0.950 . S
H1333 C1356 0.950 . S
H1334 C1358 0.950 . S
H1335 C1359 0.950 . S
H1336 C1360 0.951 . S
H1337 C1362 0.951 . S
H1338 C1364 0.950 . S
H1339 C1365 0.950 . S
H1340 C1367 0.950 . S
H1341 C1370 0.950 . S
H1342 C1371 0.950 . S
H1343 C1373 0.950 . S
H1344 C1374 0.950 . S
C1345 H1327 0.951 . S
C1345 C1346 1.366 . S
C1345 C1347 1.388 . S
C1346 C1345 1.366 . S
C1346 C1350 1.385 . S
C1347 H1328 0.951 . S
C1347 C1345 1.388 . S
C1347 C1348 1.366 . S
C1348 C1347 1.366 . S
C1348 C1349 1.414 . S
C1348 C1351 1.499 . S
C1349 H1329 0.950 . S
C1349 C1348 1.414 . S
C1349 C1350 1.374 . S
C1350 H1330 0.950 . S
C1350 C1346 1.385 . S
C1350 C1349 1.374 . S
C1351 C1348 1.499 . S
C1351 C1352 1.373 . S
C1351 C1353 1.389 . S
C1352 H1331 0.950 . S
C1352 C1351 1.373 . S
C1352 C1368 1.377 . S
C1353 C1351 1.389 . S
C1353 C1354 1.524 . S
C1353 C1367 1.377 . S
C1354 C1353 1.524 . S
C1354 C1355 1.397 . S
C1354 C1359 1.363 . S
C1355 H1332 0.950 . S
C1355 C1354 1.397 . S
C1355 C1356 1.334 . S
C1356 H1333 0.950 . S
C1356 C1355 1.334 . S
C1356 C1357 1.287 . S
C1357 C1356 1.287 . S
C1357 C1358 1.524 . S
C1357 H1376 0.913 . S
C1358 H1334 0.950 . S
C1358 C1357 1.524 . S
C1358 C1359 1.415 . S
C1359 H1335 0.950 . S
C1359 C1354 1.363 . S
C1359 C1358 1.415 . S
C1360 H1336 0.951 . S
C1360 C1361 1.366 . S
C1360 C1362 1.388 . S
C1361 C1360 1.366 . S
C1361 C1365 1.385 . S
C1362 H1337 0.951 . S
C1362 C1360 1.388 . S
C1362 C1363 1.366 . S
C1363 C1362 1.366 . S
C1363 C1364 1.414 . S
C1363 C1366 1.499 . S
C1364 H1338 0.950 . S
C1364 C1363 1.414 . S
C1364 C1365 1.374 . S
C1365 H1339 0.950 . S
C1365 C1361 1.385 . S
C1365 C1364 1.374 . S
C1366 C1363 1.499 . S
C1366 C1367 1.373 . S
C1366 C1368 1.389 . S
C1367 H1340 0.950 . S
C1367 C1353 1.377 . S
C1367 C1366 1.373 . S
C1368 C1352 1.377 . S
C1368 C1366 1.389 . S
C1368 C1369 1.524 . S
C1369 C1368 1.524 . S
C1369 C1370 1.397 . S
C1369 C1374 1.363 . S
C1370 H1341 0.950 . S
C1370 C1369 1.397 . S
C1370 C1371 1.334 . S
C1371 H1342 0.950 . S
C1371 C1370 1.334 . S
C1371 C1372 1.287 . S
C1372 C1371 1.287 . S
C1372 C1373 1.524 . S
C1372 H1375 0.999 . S
C1373 H1343 0.950 . S
C1373 C1372 1.524 . S
C1373 C1374 1.415 . S
C1374 H1344 0.950 . S
C1374 C1369 1.363 . S
C1374 C1373 1.415 . S
H1375 C1372 0.999 . S
H1376 C1357 0.913 . S
C196 C1 1.781 . S
C211 C95 1.706 . S
C246 C27 1.592 . S
C261 C142 1.555 . S
C311 C146 1.781 . S
C296 C40 1.834 . S
C361 C111 1.491 . S
C346 C55 1.529 . S
C396 C68 1.714 . S
C411 C126 1.639 . S
C461 C148 0.851 . S
C446 C70 0.864 . S
C511 C117 1.279 . S
C496 C41 1.324 . S
C546 C54 1.319 . S
C561 C157 1.271 . S
C611 C86 1.207 . S
C596 C69 1.250 1_556 S
C646 C71 1.437 . S
C661 C115 1.399 . S
C696 C0 1.931 . S
C711 C173 1.881 . S
C761 C84 1.459 . S
C746 C26 1.499 . S
C811 C102 1.705 . S
C796 C42 1.781 . S
C861 C116 1.555 . S
C846 C57 1.591 1_556 S
C911 C170 1.781 . S
C896 C83 1.834 . S
C961 C85 1.491 . S
C946 C12 1.529 . S
C1011 C133 1.638 . S
C996 C14 1.715 . S
C1046 C29 0.864 . S
C1061 C156 0.852 . S
C1111 C125 1.278 . S
C1096 C82 1.324 . S
C1161 C164 1.271 . S
C1146 C13 1.319 . S
C1211 C94 1.206 . S
C1196 C15 1.249 . S
C1261 C139 1.398 . S
C1246 C28 1.437 . S
C1296 C43 1.931 . S
C1311 C147 1.881 . S
C1346 C56 1.499 . S
C1361 C108 1.459 . S
