# Generated by pormake.
# Topology pyr, (3,6)-cn, num edge types: 1
# Building blocks:
#     Node 0, Type 0, BuildingBlock: OLANEW_clean_sbu_2, # of connection points: 3
#     Node 1, Type 0, BuildingBlock: OLANEW_clean_sbu_2, # of connection points: 3
#     Node 2, Type 0, BuildingBlock: OLANEW_clean_sbu_2, # of connection points: 3
#     Node 3, Type 0, BuildingBlock: OLANEW_clean_sbu_2, # of connection points: 3
#     Node 4, Type 0, BuildingBlock: OLANEW_clean_sbu_2, # of connection points: 3
#     Node 5, Type 0, BuildingBlock: OLANEW_clean_sbu_2, # of connection points: 3
#     Node 6, Type 0, BuildingBlock: OLANEW_clean_sbu_2, # of connection points: 3
#     Node 7, Type 0, BuildingBlock: OLANEW_clean_sbu_2, # of connection points: 3
#     Node 8, Type 1, BuildingBlock: VOLQOD_clean_sbu_1, # of connection points: 6
#     Node 9, Type 1, BuildingBlock: VOLQOD_clean_sbu_1, # of connection points: 6
#     Node 10, Type 1, BuildingBlock: VOLQOD_clean_sbu_1, # of connection points: 6
#     Node 11, Type 1, BuildingBlock: VOLQOD_clean_sbu_1, # of connection points: 6
#     Edge 12, Type (0, 1), BuildingBlock: UVAHIK_clean_linker_0, # of connection points: 2
#     Edge 13, Type (0, 1), BuildingBlock: UVAHIK_clean_linker_0, # of connection points: 2
#     Edge 14, Type (0, 1), BuildingBlock: UVAHIK_clean_linker_0, # of connection points: 2
#     Edge 15, Type (0, 1), BuildingBlock: UVAHIK_clean_linker_0, # of connection points: 2
#     Edge 16, Type (0, 1), BuildingBlock: UVAHIK_clean_linker_0, # of connection points: 2
#     Edge 17, Type (0, 1), BuildingBlock: UVAHIK_clean_linker_0, # of connection points: 2
#     Edge 18, Type (0, 1), BuildingBlock: UVAHIK_clean_linker_0, # of connection points: 2
#     Edge 19, Type (0, 1), BuildingBlock: UVAHIK_clean_linker_0, # of connection points: 2
#     Edge 20, Type (0, 1), BuildingBlock: UVAHIK_clean_linker_0, # of connection points: 2
#     Edge 21, Type (0, 1), BuildingBlock: UVAHIK_clean_linker_0, # of connection points: 2
#     Edge 22, Type (0, 1), BuildingBlock: UVAHIK_clean_linker_0, # of connection points: 2
#     Edge 23, Type (0, 1), BuildingBlock: UVAHIK_clean_linker_0, # of connection points: 2
#     Edge 24, Type (0, 1), BuildingBlock: UVAHIK_clean_linker_0, # of connection points: 2
#     Edge 25, Type (0, 1), BuildingBlock: UVAHIK_clean_linker_0, # of connection points: 2
#     Edge 26, Type (0, 1), BuildingBlock: UVAHIK_clean_linker_0, # of connection points: 2
#     Edge 27, Type (0, 1), BuildingBlock: UVAHIK_clean_linker_0, # of connection points: 2
#     Edge 28, Type (0, 1), BuildingBlock: UVAHIK_clean_linker_0, # of connection points: 2
#     Edge 29, Type (0, 1), BuildingBlock: UVAHIK_clean_linker_0, # of connection points: 2
#     Edge 30, Type (0, 1), BuildingBlock: UVAHIK_clean_linker_0, # of connection points: 2
#     Edge 31, Type (0, 1), BuildingBlock: UVAHIK_clean_linker_0, # of connection points: 2
#     Edge 32, Type (0, 1), BuildingBlock: UVAHIK_clean_linker_0, # of connection points: 2
#     Edge 33, Type (0, 1), BuildingBlock: UVAHIK_clean_linker_0, # of connection points: 2
#     Edge 34, Type (0, 1), BuildingBlock: UVAHIK_clean_linker_0, # of connection points: 2
#     Edge 35, Type (0, 1), BuildingBlock: UVAHIK_clean_linker_0, # of connection points: 2
# Relax obj value: 0.087
# Max RMSD: 0.154
# Mean RMSD: 0.135
data_MOF--net-pry--node1-OLANEW_clean_sbu_2--node2-VOLQOD_clean_sbu_1--edge1-UVAHIK_clean_linker_0
_symmetry_space_group_name_H-M    P1
_symmetry_Int_Tables_number       1
_symmetry_cell_setting            triclinic
loop_
_symmetry_equiv_pos_as_xyz
'x, y, z'
_cell_length_a     49.655096
_cell_length_b     49.902243
_cell_length_c     49.279739
_cell_angle_alpha  94.173995
_cell_angle_beta   89.089963
_cell_angle_gamma 94.912339
loop_
_atom_site_label
_atom_site_type_symbol
_atom_site_fract_x
_atom_site_fract_y
_atom_site_fract_z
_atom_type_partial_charge
O0 O 0.17766 0.15997 0.15055 0.0
Cd1 Cd 0.14066 0.18232 0.17344 0.0
O2 O 0.15611 0.1195 0.14749 0.0
Cd3 Cd 0.12271 0.1315 0.17359 0.0
O4 O 0.1025 0.12758 0.21292 0.0
C5 C 0.11659 0.13459 0.23396 0.0
O6 O 0.1414 0.14546 0.23081 0.0
C7 C 0.17692 0.13511 0.14255 0.0
C8 C 0.12574 0.22538 0.14543 0.0
O9 O 0.14579 0.22827 0.16174 0.0
O10 O 0.11267 0.2021 0.14229 0.0
O11 O 0.42575 0.90855 0.71213 0.0
Cd12 Cd 0.40878 0.89576 0.6662 0.0
O13 O 0.39708 0.87925 0.73118 0.0
Cd14 Cd 0.37149 0.87367 0.6953 0.0
O15 O 0.33749 0.8814 0.67025 0.0
C16 C 0.33678 0.90471 0.66157 0.0
O17 O 0.35722 0.92279 0.66668 0.0
C18 C 0.41733 0.89667 0.73302 0.0
C19 C 0.42716 0.84685 0.6454 0.0
O20 O 0.44074 0.86933 0.64165 0.0
O21 O 0.40492 0.84754 0.65887 0.0
O22 O 0.66169 0.44179 0.9198 0.0
Cd23 Cd 0.61279 0.43219 0.9149 0.0
O24 O 0.6638 0.41065 0.94889 0.0
Cd25 Cd 0.62162 0.39455 0.94746 0.0
O26 O 0.59446 0.36116 0.96046 0.0
C27 C 0.5985 0.35485 0.98449 0.0
O28 O 0.6167 0.36968 0.99935 0.0
C29 C 0.67539 0.42938 0.93566 0.0
C30 C 0.59507 0.44251 0.86356 0.0
O31 O 0.59799 0.46133 0.88267 0.0
O32 O 0.60056 0.41877 0.86871 0.0
O33 O 0.92301 0.65384 0.4235 0.0
Cd34 Cd 0.89881 0.60986 0.41184 0.0
O35 O 0.9489 0.64115 0.45517 0.0
Cd36 Cd 0.92597 0.6019 0.45359 0.0
O37 O 0.8873 0.58021 0.4626 0.0
C38 C 0.87595 0.58853 0.48455 0.0
O39 O 0.8888 0.60779 0.50019 0.0
C40 C 0.94183 0.65941 0.44073 0.0
C41 C 0.91216 0.59221 0.35881 0.0
O42 O 0.8938 0.60852 0.36362 0.0
O43 O 0.92394 0.58379 0.37912 0.0
O44 O 0.93084 0.92921 0.91796 0.0
Cd45 Cd 0.91887 0.91885 0.96452 0.0
O46 O 0.92249 0.97184 0.92389 0.0
Cd47 Cd 0.90389 0.96818 0.96399 0.0
O48 O 0.86794 0.97362 0.98914 0.0
C49 C 0.8527 0.99021 0.98035 0.0
O50 O 0.86035 0.00259 0.95851 0.0
C51 C 0.93077 0.95238 0.90883 0.0
C52 C 0.93341 0.86745 0.97337 0.0
O53 O 0.95038 0.88821 0.9769 0.0
O54 O 0.9094 0.87104 0.96605 0.0
O55 O 0.58943 0.02479 0.43941 0.0
Cd56 Cd 0.60436 0.01786 0.48525 0.0
O57 O 0.59211 0.06852 0.44863 0.0
Cd58 Cd 0.58598 0.11044 0.44206 0.0
O59 O 0.58 0.15339 0.44702 0.0
C60 C 0.56251 0.16389 0.43356 0.0
O61 O 0.5479 0.14861 0.41549 0.0
C62 C 0.58661 0.04821 0.43193 0.0
C63 C 0.66044 0.02127 0.49066 0.0
O64 O 0.64724 0.99924 0.48181 0.0
O65 O 0.64715 0.04185 0.49668 0.0
O66 O 0.511 0.65295 0.11385 0.0
Cd67 Cd 0.51411 0.60444 0.11401 0.0
O68 O 0.46752 0.64381 0.11858 0.0
Cd69 Cd 0.42427 0.64824 0.12381 0.0
O70 O 0.38053 0.64277 0.11894 0.0
C71 C 0.37019 0.65076 0.09786 0.0
O72 O 0.38605 0.66314 0.08027 0.0
C73 C 0.48755 0.66127 0.11642 0.0
C74 C 0.51307 0.58923 0.16732 0.0
O75 O 0.53553 0.59441 0.15481 0.0
O76 O 0.4911 0.59094 0.15448 0.0
O77 O 0.09205 0.49942 0.63842 0.0
Cd78 Cd 0.09926 0.49471 0.58925 0.0
O79 O 0.10168 0.45751 0.63838 0.0
Cd80 Cd 0.1043 0.41809 0.65433 0.0
O81 O 0.10215 0.3744 0.65606 0.0
C82 C 0.07964 0.36159 0.6612 0.0
O83 O 0.05847 0.3752 0.66676 0.0
C84 C 0.09512 0.4789 0.65151 0.0
C85 C 0.15408 0.49389 0.57669 0.0
O86 O 0.14249 0.51593 0.57763 0.0
O87 O 0.13968 0.47217 0.58152 0.0
O88 O 0.00805 0.06713 0.58891 0.0
Zn89 Zn 0.99167 0.02905 0.58105 0.0
O90 O 0.01581 0.00787 0.55809 0.0
Zn91 Zn 0.99825 0.99651 0.52347 0.0
Zn92 Zn 0.04979 0.02965 0.55171 0.0
Zn93 Zn 0.02336 0.97587 0.5761 0.0
O94 O 0.99788 0.95629 0.51508 0.0
O95 O 0.01127 0.94183 0.55378 0.0
O96 O 0.95506 0.02968 0.56366 0.0
O97 O 0.95948 0.00542 0.52449 0.0
O98 O 0.01713 0.01529 0.49277 0.0
O99 O 0.05374 0.0369 0.51199 0.0
O100 O 0.08242 0.01145 0.56321 0.0
O101 O 0.98563 0.01321 0.61736 0.0
O102 O 0.06318 0.97472 0.58075 0.0
O103 O 0.00625 0.97535 0.61337 0.0
C104 C 0.03165 0.07852 0.5852 0.0
C105 C 0.00271 0.93714 0.52955 0.0
C106 C 0.03904 0.0304 0.49117 0.0
C107 C 0.94523 0.01886 0.54134 0.0
C108 C 0.0842 0.98958 0.57468 0.0
C109 C 0.99231 0.99184 0.6272 0.0
O110 O 0.04984 0.06608 0.57233 0.0
O111 O 0.50109 0.07221 0.04736 0.0
Zn112 Zn 0.48498 0.03417 0.05068 0.0
O113 O 0.50422 0.01611 0.0774 0.0
Zn114 Zn 0.51975 0.98514 0.05905 0.0
Zn115 Zn 0.53328 0.04111 0.09327 0.0
Zn116 Zn 0.47921 0.00361 0.106 0.0
O117 O 0.50934 0.95171 0.07804 0.0
O118 O 0.47615 0.96272 0.10639 0.0
O119 O 0.48506 0.01422 0.01356 0.0
O120 O 0.50685 0.97832 0.02046 0.0
O121 O 0.5602 0.99049 0.05791 0.0
O122 O 0.57009 0.02881 0.08282 0.0
O123 O 0.53032 0.04424 0.13416 0.0
O124 O 0.44632 0.03676 0.06245 0.0
O125 O 0.4931 0.01823 0.14305 0.0
O126 O 0.44209 0.01651 0.10117 0.0
C127 C 0.51894 0.0872 0.06088 0.0
C128 C 0.49097 0.9453 0.09525 0.0
C129 C 0.57747 0.00843 0.0684 0.0
C130 C 0.49393 0.99192 0.00497 0.0
C131 C 0.51344 0.03399 0.15106 0.0
C132 C 0.43214 0.02929 0.08275 0.0
O133 O 0.53205 0.07814 0.07973 0.0
O134 O 0.53443 0.52281 0.58543 0.0
Zn135 Zn 0.53736 0.53851 0.5489 0.0
O136 O 0.51555 0.51566 0.52193 0.0
Zn137 Zn 0.53899 0.50158 0.49309 0.0
Zn138 Zn 0.49617 0.48538 0.53934 0.0
Zn139 Zn 0.48975 0.53725 0.50595 0.0
O140 O 0.53044 0.51485 0.45692 0.0
O141 O 0.49491 0.53836 0.46531 0.0
O142 O 0.57697 0.54074 0.53829 0.0
O143 O 0.5779 0.51339 0.50074 0.0
O144 O 0.53503 0.46102 0.48915 0.0
O145 O 0.50467 0.44962 0.52071 0.0
O146 O 0.45568 0.48765 0.53821 0.0
O147 O 0.52514 0.57628 0.55357 0.0
O148 O 0.45174 0.52272 0.51371 0.0
O149 O 0.49312 0.57541 0.52255 0.0
C150 C 0.52222 0.50158 0.59414 0.0
C151 C 0.5123 0.52886 0.44882 0.0
C152 C 0.52064 0.44313 0.5013 0.0
C153 C 0.59001 0.52916 0.51896 0.0
C154 C 0.44113 0.50348 0.52699 0.0
C155 C 0.50747 0.58794 0.54139 0.0
O156 O 0.50719 0.4853 0.57865 0.0
O157 O 0.99598 0.5152 0.06981 0.0
Zn158 Zn 0.00312 0.50162 0.03088 0.0
O159 O 0.02635 0.5284 0.01204 0.0
Zn160 Zn 0.0072 0.53991 0.98122 0.0
Zn161 Zn 0.03567 0.56005 0.03687 0.0
Zn162 Zn 0.05933 0.51243 0.99898 0.0
O163 O 0.02573 0.52956 0.94611 0.0
O164 O 0.06109 0.50865 0.95767 0.0
O165 O 0.96691 0.49376 0.01233 0.0
O166 O 0.96955 0.52186 0.97928 0.0
O167 O 0.00405 0.58006 0.98357 0.0
O168 O 0.02232 0.59362 0.02352 0.0
O169 O 0.076 0.56684 0.04092 0.0
O170 O 0.02105 0.46696 0.03273 0.0
O171 O 0.09248 0.53534 0.01276 0.0
O172 O 0.06115 0.47564 0.01313 0.0
C173 C 0.00351 0.53697 0.08379 0.0
C174 C 0.04638 0.51697 0.93959 0.0
C175 C 0.01052 0.59865 0.00196 0.0
C176 C 0.9564 0.50387 0.99239 0.0
C177 C 0.09598 0.55585 0.0297 0.0
C178 C 0.04439 0.45999 0.02563 0.0
O179 O 0.01875 0.55559 0.07366 0.0
C180 C 0.08173 0.11246 0.2644 0.0
C181 C 0.10658 0.12772 0.26127 0.0
C182 C 0.07369 0.10361 0.28981 0.0
C183 C 0.10261 0.08875 0.35494 0.0
H184 H 0.02813 0.08566 0.38015 0.0
C185 C 0.07093 0.05849 0.46252 0.0
C186 C 0.04707 0.04143 0.46481 0.0
C187 C 0.07799 0.06965 0.43793 0.0
C188 C 0.04897 0.08615 0.37326 0.0
H189 H 0.14188 0.14671 0.28264 0.0
H190 H 0.12768 0.13163 0.32695 0.0
H191 H 0.0403 0.10512 0.33714 0.0
H192 H 0.01205 0.02256 0.44282 0.0
H193 H 0.02454 0.04184 0.3999 0.0
H194 H 0.11128 0.0697 0.39094 0.0
C195 C 0.11466 0.12601 0.30967 0.0
C196 C 0.05595 0.09732 0.34863 0.0
C197 C 0.1227 0.13481 0.28429 0.0
C198 C 0.03056 0.03564 0.44183 0.0
C199 C 0.0376 0.04685 0.41726 0.0
C200 C 0.09565 0.07762 0.37955 0.0
C201 C 0.09031 0.10987 0.31264 0.0
C202 C 0.08285 0.09871 0.33916 0.0
C203 C 0.06134 0.06406 0.41505 0.0
C204 C 0.06874 0.07612 0.38897 0.0
H205 H 0.06884 0.10662 0.24707 0.0
H206 H 0.05491 0.09105 0.29133 0.0
H207 H 0.12343 0.08903 0.348 0.0
H208 H 0.08409 0.06347 0.4798 0.0
H209 H 0.09627 0.08305 0.43698 0.0
C210 C 0.44275 0.93025 0.76531 0.0
C211 C 0.42974 0.90438 0.75982 0.0
C212 C 0.45202 0.93859 0.79146 0.0
C213 C 0.44244 0.92102 0.86346 0.0
H214 H 0.50315 0.97463 0.87552 0.0
C215 C 0.48843 0.95353 0.96935 0.0
C216 C 0.48879 0.98134 0.97655 0.0
C217 C 0.48274 0.94338 0.94269 0.0
C218 C 0.48616 0.95966 0.87235 0.0
H219 H 0.41746 0.8664 0.77693 0.0
H220 H 0.43491 0.88029 0.82213 0.0
H221 H 0.49173 0.95718 0.8292 0.0
H222 H 0.48413 0.02039 0.96137 0.0
H223 H 0.47495 0.0026 0.91448 0.0
H224 H 0.43759 0.92307 0.90685 0.0
C225 C 0.43699 0.89469 0.80667 0.0
C226 C 0.47944 0.94975 0.84583 0.0
C227 C 0.42719 0.88658 0.78067 0.0
C228 C 0.48388 0.99886 0.95644 0.0
C229 C 0.47878 0.98874 0.92963 0.0
C230 C 0.44954 0.93051 0.88996 0.0
C231 C 0.449 0.92103 0.81263 0.0
C232 C 0.45727 0.9305 0.84096 0.0
C233 C 0.47791 0.96091 0.92263 0.0
C234 C 0.47125 0.95011 0.8946 0.0
H235 H 0.44479 0.94449 0.74967 0.0
H236 H 0.46069 0.95915 0.79518 0.0
H237 H 0.42488 0.90672 0.8607 0.0
H238 H 0.49204 0.93953 0.98443 0.0
H239 H 0.48222 0.92184 0.93768 0.0
C240 C 0.5774 0.42678 0.81725 0.0
C241 C 0.58567 0.44806 0.83634 0.0
C242 C 0.56853 0.43205 0.79154 0.0
C243 C 0.54471 0.48687 0.75283 0.0
H244 H 0.56374 0.4404 0.69019 0.0
C245 C 0.53783 0.51531 0.64163 0.0
C246 C 0.52641 0.49533 0.62262 0.0
C247 C 0.54297 0.50917 0.66817 0.0
C248 C 0.55804 0.45337 0.70755 0.0
H249 H 0.59136 0.49155 0.84338 0.0
H250 H 0.57681 0.50078 0.79832 0.0
H251 H 0.57727 0.4305 0.73547 0.0
H252 H 0.51118 0.45326 0.6167 0.0
H253 H 0.52057 0.44249 0.66304 0.0
H254 H 0.52626 0.51021 0.72457 0.0
C255 C 0.5764 0.47999 0.80336 0.0
C256 C 0.56571 0.44768 0.73354 0.0
C257 C 0.58495 0.47471 0.82917 0.0
C258 C 0.51995 0.46913 0.63085 0.0
C259 C 0.52545 0.46291 0.65731 0.0
C260 C 0.53734 0.49273 0.72679 0.0
C261 C 0.56804 0.45874 0.78418 0.0
C262 C 0.55924 0.46441 0.75654 0.0
C263 C 0.53713 0.48284 0.67618 0.0
C264 C 0.54401 0.47609 0.7039 0.0
H265 H 0.57753 0.40601 0.82224 0.0
H266 H 0.56182 0.41516 0.77754 0.0
H267 H 0.53887 0.49991 0.77006 0.0
H268 H 0.54298 0.5357 0.63597 0.0
H269 H 0.55217 0.52487 0.68224 0.0
C270 C 0.93362 0.56076 0.32462 0.0
C271 C 0.9202 0.58421 0.3306 0.0
C272 C 0.94209 0.55389 0.29799 0.0
C273 C 0.96782 0.58248 0.23811 0.0
H274 H 0.93855 0.5186 0.1954 0.0
C275 C 0.99226 0.56733 0.12409 0.0
C276 C 0.99402 0.5411 0.11223 0.0
C277 C 0.98317 0.57152 0.15087 0.0
C278 C 0.94738 0.53627 0.20714 0.0
H279 H 0.90512 0.61881 0.3135 0.0
H280 H 0.92083 0.60721 0.26715 0.0
H281 H 0.92305 0.52725 0.2423 0.0
H282 H 0.98795 0.49862 0.11917 0.0
H283 H 0.97332 0.50585 0.16642 0.0
H284 H 0.99292 0.59126 0.20384 0.0
C285 C 0.92432 0.59402 0.28303 0.0
C286 C 0.93831 0.54124 0.23391 0.0
C287 C 0.9153 0.60057 0.30947 0.0
C288 C 0.98663 0.51908 0.12776 0.0
C289 C 0.97807 0.52327 0.15482 0.0
C290 C 0.97733 0.57726 0.21162 0.0
C291 C 0.93782 0.5707 0.27714 0.0
C292 C 0.94822 0.56457 0.2494 0.0
C293 C 0.97619 0.54958 0.16676 0.0
C294 C 0.96695 0.5543 0.19555 0.0
H295 H 0.93759 0.54777 0.34051 0.0
H296 H 0.95256 0.53585 0.29379 0.0
H297 H 0.9759 0.60047 0.2499 0.0
H298 H 0.99748 0.5847 0.11249 0.0
H299 H 0.98133 0.59205 0.15893 0.0
C300 C 0.22575 0.13987 0.12853 0.0
C301 C 0.20116 0.12381 0.12988 0.0
C302 C 0.24941 0.12845 0.11981 0.0
C303 C 0.27911 0.063 0.11474 0.0
H304 H 0.33572 0.10209 0.07482 0.0
C305 C 0.38911 0.03339 0.10966 0.0
C306 C 0.40392 0.03681 0.08544 0.0
C307 C 0.36323 0.04233 0.11278 0.0
C308 C 0.32002 0.09071 0.08568 0.0
H309 H 0.1819 0.08338 0.12171 0.0
H310 H 0.22307 0.06361 0.10597 0.0
H311 H 0.29244 0.12101 0.08262 0.0
H312 H 0.40264 0.05141 0.04507 0.0
H313 H 0.35742 0.06648 0.05033 0.0
H314 H 0.30657 0.03255 0.11753 0.0
C315 C 0.22419 0.08492 0.11227 0.0
C316 C 0.29529 0.10173 0.09044 0.0
C317 C 0.20054 0.09632 0.12111 0.0
C318 C 0.39192 0.04865 0.06411 0.0
C319 C 0.36602 0.05746 0.06718 0.0
C320 C 0.3038 0.05193 0.10991 0.0
C321 C 0.24902 0.10073 0.11208 0.0
C322 C 0.27463 0.08817 0.10529 0.0
C323 C 0.3515 0.05477 0.09168 0.0
C324 C 0.32468 0.06578 0.09558 0.0
H325 H 0.22699 0.16111 0.13519 0.0
H326 H 0.2682 0.1412 0.12019 0.0
H327 H 0.26378 0.05212 0.12653 0.0
H328 H 0.39776 0.02443 0.12653 0.0
H329 H 0.35277 0.04021 0.13205 0.0
C330 C 0.31129 0.93817 0.63916 0.0
C331 C 0.31219 0.91225 0.64839 0.0
C332 C 0.28735 0.94615 0.62894 0.0
C333 C 0.21393 0.93134 0.63402 0.0
H334 H 0.21157 0.9731 0.57086 0.0
C335 C 0.11306 0.95504 0.59013 0.0
C336 C 0.11104 0.98091 0.58118 0.0
C337 C 0.13803 0.94672 0.59692 0.0
C338 C 0.21195 0.96173 0.58873 0.0
H339 H 0.28887 0.87405 0.65317 0.0
H340 H 0.24715 0.88799 0.63529 0.0
H341 H 0.25455 0.95798 0.58461 0.0
H342 H 0.13391 0.01824 0.57206 0.0
H343 H 0.17764 0.00384 0.58446 0.0
H344 H 0.17159 0.93534 0.63854 0.0
C345 C 0.2649 0.90223 0.63626 0.0
C346 C 0.23654 0.953 0.59654 0.0
C347 C 0.28886 0.8942 0.64635 0.0
C348 C 0.13475 0.99817 0.57886 0.0
C349 C 0.15983 0.98986 0.58583 0.0
C350 C 0.18943 0.94015 0.62633 0.0
C351 C 0.26376 0.92843 0.62786 0.0
C352 C 0.23775 0.93759 0.6192 0.0
C353 C 0.16171 0.96409 0.59516 0.0
C354 C 0.18807 0.95531 0.6035 0.0
H355 H 0.32892 0.95256 0.64039 0.0
H356 H 0.28706 0.96652 0.62277 0.0
H357 H 0.21429 0.92 0.65192 0.0
H358 H 0.09529 0.94106 0.59189 0.0
H359 H 0.13877 0.92654 0.60345 0.0
C360 C 0.7194 0.42308 0.95728 0.0
C361 C 0.70476 0.43661 0.93914 0.0
C362 C 0.74698 0.42988 0.96109 0.0
C363 C 0.80021 0.48504 0.95364 0.0
H364 H 0.84809 0.42902 0.96312 0.0
C365 C 0.91568 0.50764 0.96395 0.0
C366 C 0.92815 0.49509 0.98451 0.0
C367 C 0.88883 0.50005 0.95695 0.0
C368 C 0.83493 0.44489 0.96072 0.0
H369 H 0.70777 0.46781 0.91054 0.0
H370 H 0.75616 0.47955 0.91702 0.0
H371 H 0.80057 0.41667 0.95288 0.0
H372 H 0.92214 0.46444 0.01358 0.0
H373 H 0.8752 0.45124 0.00136 0.0
H374 H 0.83461 0.51325 0.96157 0.0
C375 C 0.74612 0.46385 0.92854 0.0
C376 C 0.8077 0.43784 0.95486 0.0
C377 C 0.71843 0.45705 0.92473 0.0
C378 C 0.9132 0.47452 0.99766 0.0
C379 C 0.88634 0.46685 0.99055 0.0
C380 C 0.82747 0.49209 0.95942 0.0
C381 C 0.76069 0.45036 0.94681 0.0
C382 C 0.78995 0.45784 0.95151 0.0
C383 C 0.87382 0.47966 0.97025 0.0
C384 C 0.84507 0.4721 0.96325 0.0
H385 H 0.70954 0.40729 0.96881 0.0
H386 H 0.75746 0.41939 0.97566 0.0
H387 H 0.78702 0.50096 0.95157 0.0
H388 H 0.92658 0.52352 0.95332 0.0
H389 H 0.87986 0.51006 0.94099 0.0
C390 C 0.83524 0.58898 0.51503 0.0
C391 C 0.84782 0.57876 0.49118 0.0
C392 C 0.80796 0.58179 0.52024 0.0
C393 C 0.75071 0.53216 0.50071 0.0
H394 H 0.70727 0.59064 0.52455 0.0
C395 C 0.63439 0.52172 0.49598 0.0
C396 C 0.61986 0.5339 0.51757 0.0
C397 C 0.6625 0.52612 0.49448 0.0
C398 C 0.71914 0.574 0.51829 0.0
H399 H 0.84184 0.55221 0.45454 0.0
H400 H 0.79412 0.53978 0.46355 0.0
H401 H 0.75597 0.5996 0.51916 0.0
H402 H 0.62362 0.56011 0.55468 0.0
H403 H 0.67276 0.56761 0.55214 0.0
H404 H 0.71379 0.50661 0.49958 0.0
C405 C 0.80543 0.55322 0.47833 0.0
C406 C 0.74707 0.57913 0.5152 0.0
C407 C 0.83275 0.56043 0.4731 0.0
C408 C 0.63415 0.5505 0.53771 0.0
C409 C 0.66231 0.55489 0.5362 0.0
C410 C 0.72276 0.52701 0.50384 0.0
C411 C 0.79263 0.56419 0.50173 0.0
C412 C 0.76314 0.55832 0.50618 0.0
C413 C 0.67679 0.54278 0.51454 0.0
C414 C 0.70663 0.54793 0.51245 0.0
H415 H 0.84631 0.60301 0.52949 0.0
H416 H 0.79879 0.59023 0.53867 0.0
H417 H 0.76259 0.51563 0.49408 0.0
H418 H 0.62407 0.50886 0.48006 0.0
H419 H 0.67298 0.51682 0.47731 0.0
C420 C 0.09185 0.24797 0.1199 0.0
C421 C 0.11782 0.24836 0.13087 0.0
C422 C 0.08414 0.2701 0.10692 0.0
C423 C 0.10422 0.34316 0.10001 0.0
H424 H 0.05347 0.33333 0.04037 0.0
C425 C 0.08044 0.42992 0.03531 0.0
C426 C 0.05285 0.43398 0.03377 0.0
C427 C 0.08858 0.40647 0.04545 0.0
C428 C 0.06761 0.33631 0.05705 0.0
H429 H 0.15639 0.27185 0.1361 0.0
H430 H 0.1435 0.30985 0.11249 0.0
H431 H 0.06781 0.29396 0.06106 0.0
H432 H 0.01215 0.41611 0.04062 0.0
H433 H 0.02648 0.37478 0.05771 0.0
H434 H 0.10447 0.38553 0.09534 0.0
C435 C 0.1286 0.29298 0.11471 0.0
C436 C 0.07574 0.31379 0.06907 0.0
C437 C 0.13612 0.27107 0.12811 0.0
C438 C 0.03356 0.41361 0.04162 0.0
C439 C 0.04172 0.38993 0.0513 0.0
C440 C 0.09646 0.36559 0.08766 0.0
C441 C 0.10239 0.29298 0.10418 0.0
C442 C 0.09407 0.31689 0.09085 0.0
C443 C 0.06931 0.38639 0.05378 0.0
C444 C 0.078 0.3624 0.06617 0.0
H445 H 0.07724 0.23079 0.12186 0.0
H446 H 0.06365 0.26942 0.09956 0.0
H447 H 0.11783 0.34656 0.11709 0.0
H448 H 0.09582 0.44523 0.02952 0.0
H449 H 0.10998 0.40412 0.04699 0.0
C450 C 0.56806 0.31208 0.97791 0.0
C451 C 0.58559 0.32957 0.99452 0.0
C452 C 0.55833 0.28688 0.98644 0.0
C453 C 0.57741 0.23596 0.0307 0.0
H454 H 0.50385 0.20448 0.02034 0.0
C455 C 0.54169 0.13354 0.07115 0.0
C456 C 0.5247 0.11566 0.05441 0.0
C457 C 0.54752 0.16026 0.06481 0.0
C458 C 0.52454 0.21289 0.02311 0.0
H459 H 0.60556 0.33485 0.03364 0.0
H460 H 0.58856 0.29103 0.04845 0.0
H461 H 0.5163 0.25037 0.00758 0.0
H462 H 0.50035 0.11194 0.01791 0.0
H463 H 0.51102 0.15836 0.00654 0.0
H464 H 0.58595 0.19852 0.04564 0.0
C465 C 0.58265 0.29663 0.0287 0.0
C466 C 0.53163 0.23917 0.01586 0.0
C467 C 0.59226 0.3218 0.02025 0.0
C468 C 0.51347 0.12519 0.0313 0.0
C469 C 0.51945 0.15188 0.02487 0.0
C470 C 0.5704 0.2097 0.03778 0.0
C471 C 0.56605 0.27868 0.01167 0.0
C472 C 0.55813 0.25099 0.01965 0.0
C473 C 0.53667 0.1697 0.04146 0.0
C474 C 0.54388 0.19782 0.03412 0.0
H475 H 0.5625 0.31749 0.95799 0.0
H476 H 0.54565 0.2734 0.97284 0.0
H477 H 0.59813 0.24433 0.03337 0.0
H478 H 0.5505 0.12695 0.08923 0.0
H479 H 0.56048 0.17355 0.07831 0.0
C480 C 0.96974 0.69549 0.46831 0.0
C481 C 0.95368 0.68757 0.44541 0.0
C482 C 0.97799 0.7227 0.47457 0.0
C483 C 0.95716 0.79004 0.46314 0.0
H484 H 0.02574 0.81492 0.49673 0.0
C485 C 0.98746 0.90275 0.49198 0.0
C486 C 0.99872 0.90887 0.51793 0.0
C487 C 0.98375 0.87603 0.48113 0.0
C488 C 0.00645 0.80822 0.48749 0.0
H489 H 0.9351 0.70182 0.41021 0.0
H490 H 0.94994 0.74913 0.42082 0.0
H491 H 0.01708 0.76758 0.48054 0.0
H492 H 0.01513 0.89164 0.5527 0.0
H493 H 0.0085 0.84514 0.5338 0.0
H494 H 0.94644 0.83059 0.4703 0.0
C495 C 0.95558 0.73443 0.43434 0.0
C496 C 0.00149 0.78112 0.47823 0.0
C497 C 0.94722 0.70727 0.42817 0.0
C498 C 0.00637 0.88768 0.53267 0.0
C499 C 0.00278 0.86102 0.52176 0.0
C500 C 0.96217 0.81712 0.47229 0.0
C501 C 0.97047 0.74255 0.45798 0.0
C502 C 0.97666 0.77166 0.46619 0.0
C503 C 0.99135 0.85489 0.49592 0.0
C504 C 0.98674 0.82645 0.48483 0.0
H505 H 0.97504 0.68083 0.48204 0.0
H506 H 0.98925 0.72826 0.49306 0.0
H507 H 0.93763 0.78337 0.45443 0.0
H508 H 0.98141 0.91856 0.48005 0.0
H509 H 0.9751 0.87194 0.46107 0.0
C510 C 0.4218 0.79642 0.63918 0.0
C511 C 0.43677 0.82087 0.63448 0.0
C512 C 0.43064 0.77188 0.6287 0.0
C513 C 0.44479 0.72479 0.59045 0.0
H514 H 0.52067 0.71191 0.59156 0.0
C515 C 0.48375 0.62959 0.53608 0.0
C516 C 0.50233 0.61615 0.55017 0.0
C517 C 0.4772 0.65535 0.54543 0.0
C518 C 0.4994 0.71514 0.59123 0.0
H519 H 0.47289 0.83868 0.6152 0.0
H520 H 0.48817 0.79582 0.59665 0.0
H521 H 0.50615 0.75498 0.61055 0.0
H522 H 0.52917 0.61969 0.58481 0.0
H523 H 0.51748 0.66456 0.6013 0.0
H524 H 0.43787 0.68483 0.57177 0.0
C525 C 0.46974 0.79562 0.60871 0.0
C526 C 0.49111 0.73993 0.60185 0.0
C527 C 0.46089 0.8202 0.61921 0.0
C528 C 0.5148 0.62945 0.57343 0.0
C529 C 0.50818 0.65524 0.58283 0.0
C530 C 0.45306 0.70007 0.57984 0.0
C531 C 0.45465 0.77117 0.61324 0.0
C532 C 0.46368 0.745 0.60167 0.0
C533 C 0.48898 0.66832 0.56916 0.0
C534 C 0.48046 0.69491 0.58011 0.0
H535 H 0.4032 0.79619 0.65097 0.0
H536 H 0.41874 0.75341 0.63294 0.0
H537 H 0.42356 0.72812 0.58967 0.0
H538 H 0.4739 0.62009 0.51796 0.0
H539 H 0.46274 0.66505 0.5341 0.0
C540 C 0.94927 0.93551 0.86368 0.0
C541 C 0.93912 0.95649 0.88035 0.0
C542 C 0.9558 0.93904 0.8364 0.0
C543 C 0.97027 0.99173 0.78755 0.0
H544 H 0.95058 0.93314 0.73356 0.0
C545 C 0.97285 0.00639 0.67263 0.0
C546 C 0.98479 0.9867 0.65569 0.0
C547 C 0.96725 0.00225 0.69995 0.0
C548 C 0.9564 0.94959 0.74844 0.0
H549 H 0.92815 0.99774 0.88143 0.0
H550 H 0.93911 0.00371 0.83387 0.0
H551 H 0.9417 0.92695 0.78164 0.0
H552 H -0.00041 0.94692 0.65412 0.0
H553 H 0.98969 0.93971 0.7018 0.0
H554 H 0.98464 0.01446 0.75427 0.0
C555 C 0.94245 0.98466 0.84194 0.0
C556 C 0.95141 0.94603 0.77599 0.0
C557 C 0.93603 0.98119 0.86922 0.0
C558 C 0.99042 0.96252 0.66658 0.0
C559 C 0.98464 0.95832 0.69387 0.0
C560 C 0.97512 0.99532 0.76001 0.0
C561 C 0.95225 0.96358 0.82514 0.0
C562 C 0.95821 0.96709 0.79588 0.0
C563 C 0.97328 0.97827 0.71091 0.0
C564 C 0.96817 0.97432 0.74015 0.0
H565 H 0.952 0.91627 0.87163 0.0
H566 H 0.9637 0.92253 0.82414 0.0
H567 H 0.9762 0.00821 0.80235 0.0
H568 H 0.9682 0.02523 0.66494 0.0
H569 H 0.95814 0.01783 0.7125 0.0
C570 C 0.58566 0.07337 0.38971 0.0
C571 C 0.57643 0.05125 0.40441 0.0
C572 C 0.57716 0.07502 0.36297 0.0
C573 C 0.52409 0.04947 0.31397 0.0
H574 H 0.57975 0.06172 0.25915 0.0
C575 C 0.50429 0.02391 0.19964 0.0
C576 C 0.51819 0.03975 0.18062 0.0
C577 C 0.51003 0.02823 0.22738 0.0
C578 C 0.56382 0.05879 0.27417 0.0
H579 H 0.55086 0.01375 0.40293 0.0
H580 H 0.53578 0.01677 0.35643 0.0
H581 H 0.59195 0.06476 0.30702 0.0
H582 H 0.54833 0.07328 0.17597 0.0
H583 H 0.55777 0.08133 0.22435 0.0
H584 H 0.49589 0.04355 0.28128 0.0
C585 C 0.54946 0.03288 0.36555 0.0
C586 C 0.57088 0.06049 0.30163 0.0
C587 C 0.55823 0.03107 0.39208 0.0
C588 C 0.53741 0.06053 0.19005 0.0
C589 C 0.54295 0.06505 0.21782 0.0
C590 C 0.51697 0.04807 0.28654 0.0
C591 C 0.55906 0.05471 0.3506 0.0
C592 C 0.55115 0.0554 0.32177 0.0
C593 C 0.52961 0.04871 0.23683 0.0
C594 C 0.53681 0.05225 0.26621 0.0
H595 H 0.60018 0.08889 0.39846 0.0
H596 H 0.58487 0.09206 0.35189 0.0
H597 H 0.50842 0.04578 0.32912 0.0
H598 H 0.48946 0.00764 0.19307 0.0
H599 H 0.49963 0.01495 0.24128 0.0
C600 C 0.53618 0.57552 0.20827 0.0
C601 C 0.51251 0.58195 0.19589 0.0
C602 C 0.53577 0.56918 0.23543 0.0
C603 C 0.48906 0.54895 0.29157 0.0
H604 H 0.55101 0.57342 0.33652 0.0
C605 C 0.48917 0.54497 0.40886 0.0
C606 C 0.51174 0.53448 0.41975 0.0
C607 C 0.48885 0.55038 0.38142 0.0
C608 C 0.53365 0.56631 0.32414 0.0
H609 H 0.46986 0.58689 0.20229 0.0
H610 H 0.46929 0.57664 0.24987 0.0
H611 H 0.55117 0.58374 0.28895 0.0
H612 H 0.5517 0.52157 0.41035 0.0
H613 H 0.55119 0.53134 0.3626 0.0
H614 H 0.47139 0.53207 0.32716 0.0
C615 C 0.48806 0.57581 0.23847 0.0
C616 C 0.53376 0.5721 0.29684 0.0
C617 C 0.48841 0.58184 0.21121 0.0
C618 C 0.53397 0.52959 0.40262 0.0
C619 C 0.53378 0.53532 0.37531 0.0
C620 C 0.48884 0.54344 0.31898 0.0
C621 C 0.51176 0.56945 0.25097 0.0
C622 C 0.51152 0.56339 0.28013 0.0
C623 C 0.51123 0.54575 0.36444 0.0
C624 C 0.51119 0.55195 0.33549 0.0
H625 H 0.55503 0.57525 0.19694 0.0
H626 H 0.5543 0.56388 0.24417 0.0
H627 H 0.47175 0.54153 0.27927 0.0
H628 H 0.4717 0.54891 0.42149 0.0
H629 H 0.47128 0.55858 0.37358 0.0
C630 C 0.10454 0.46478 0.69804 0.0
C631 C 0.09019 0.47997 0.68119 0.0
C632 C 0.10023 0.46661 0.72623 0.0
C633 C 0.05047 0.48617 0.7786 0.0
H634 H 0.11168 0.49622 0.82729 0.0
C635 C 0.03812 0.52297 0.89056 0.0
C636 C 0.05283 0.5116 0.91031 0.0
C637 C 0.04326 0.51742 0.86291 0.0
C638 C 0.09436 0.49302 0.81401 0.0
H639 H 0.06035 0.50917 0.68057 0.0
H640 H 0.05276 0.5123 0.72967 0.0
H641 H 0.11932 0.48902 0.77828 0.0
H642 H 0.08477 0.48563 0.91637 0.0
H643 H 0.09356 0.47566 0.86788 0.0
H644 H 0.02547 0.49017 0.8141 0.0
C645 C 0.0671 0.49874 0.72113 0.0
C646 C 0.09874 0.48892 0.78594 0.0
C647 C 0.07157 0.49709 0.69304 0.0
C648 C 0.0731 0.49477 0.90169 0.0
C649 C 0.0782 0.48912 0.87391 0.0
C650 C 0.04609 0.49012 0.80659 0.0
C651 C 0.0814 0.48356 0.73804 0.0
C652 C 0.07684 0.4859 0.76793 0.0
C653 C 0.06316 0.50022 0.8542 0.0
C654 C 0.06798 0.49408 0.82462 0.0
H655 H 0.1196 0.45204 0.68958 0.0
H656 H 0.11155 0.45469 0.73876 0.0
H657 H 0.03317 0.4834 0.76526 0.0
H658 H 0.02251 0.53621 0.89639 0.0
H659 H 0.03171 0.52681 0.84834 0.0
C660 C 0.80845 0.01056 0.98105 0.0
C661 C 0.82594 0.99415 0.99294 0.0
C662 C 0.78239 0.01285 0.9914 0.0
C663 C 0.73834 0.00372 0.05123 0.0
H664 H 0.68123 0.99513 0.9977 0.0
C665 C 0.62651 0.02462 0.07476 0.0
C666 C 0.60659 0.00589 0.06279 0.0
C667 C 0.65385 0.02281 0.06818 0.0
C668 C 0.69692 0.99742 0.01292 0.0
H669 H 0.83009 0.96807 0.02571 0.0
H670 H 0.78435 0.9722 0.0439 0.0
H671 H 0.72809 0.99331 0.98285 0.0
H672 H 0.59998 0.97011 0.03508 0.0
H673 H 0.6475 0.96711 0.02364 0.0
H674 H 0.70693 0.00777 0.08131 0.0
C675 C 0.79095 0.98326 0.02654 0.0
C676 C 0.72377 0.99665 0.00439 0.0
C677 C 0.81707 0.98081 0.01605 0.0
C678 C 0.61471 0.98498 0.0446 0.0
C679 C 0.64194 0.9833 0.03792 0.0
C680 C 0.71139 0.00474 0.05977 0.0
C681 C 0.7732 0.99891 0.01398 0.0
C682 C 0.74477 -0.0002 0.02343 0.0
C683 C 0.66177 0.00237 0.04936 0.0
C684 C 0.69043 0.00148 0.04067 0.0
H685 H 0.81466 0.02125 0.96333 0.0
H686 H 0.76928 0.02538 0.98156 0.0
H687 H 0.75416 0.00633 0.06632 0.0
H688 H 0.62097 0.04092 0.08891 0.0
H689 H 0.66871 0.03788 0.07719 0.0
C690 C 0.70349 0.04418 0.51015 0.0
C691 C 0.69004 0.02262 0.49444 0.0
C692 C 0.73126 0.04473 0.51479 0.0
C693 C 0.78732 0.99963 0.5124 0.0
H694 H 0.83261 0.06706 0.51792 0.0
C695 C 0.90357 0.00396 0.51443 0.0
C696 C 0.9164 0.02104 0.53518 0.0
C697 C 0.87612 0.005 0.50928 0.0
C698 C 0.82013 0.04812 0.5166 0.0
H699 H 0.69531 0.98519 0.47054 0.0
H700 H 0.74378 0.98658 0.47775 0.0
H701 H 0.78449 0.06731 0.50851 0.0
H702 H 0.91052 0.05306 0.56636 0.0
H703 H 0.86251 0.05512 0.55699 0.0
H704 H 0.82317 0.98046 0.51987 0.0
C705 C 0.73284 0.00268 0.48728 0.0
C706 C 0.79253 0.04823 0.5113 0.0
C707 C 0.70504 0.00196 0.48295 0.0
C708 C 0.90124 0.03958 0.55028 0.0
C709 C 0.87381 0.04087 0.54486 0.0
C710 C 0.81492 0.99952 0.51734 0.0
C711 C 0.7463 0.02389 0.50355 0.0
C712 C 0.77574 0.02396 0.50911 0.0
C713 C 0.86093 0.02336 0.52451 0.0
C714 C 0.83161 0.02373 0.51947 0.0
H715 H 0.69245 0.06034 0.5194 0.0
H716 H 0.74077 0.06121 0.52773 0.0
H717 H 0.77502 0.9806 0.51153 0.0
H718 H 0.9146 0.98941 0.50241 0.0
H719 H 0.86675 0.99146 0.4933 0.0
C720 C 0.32456 0.62897 0.1097 0.0
C721 C 0.34109 0.64431 0.09212 0.0
C722 C 0.29756 0.62128 0.1033 0.0
C723 C 0.25183 0.61023 0.04464 0.0
H724 H 0.19575 0.60806 0.10029 0.0
C725 C 0.12821 0.59028 0.05455 0.0
C726 C 0.12383 0.56712 0.03661 0.0
C727 C 0.15444 0.60081 0.06123 0.0
C728 C 0.21112 0.60877 0.08445 0.0
H729 H 0.34194 0.66432 0.05444 0.0
H730 H 0.29473 0.65119 0.04347 0.0
H731 H 0.24165 0.62566 0.11238 0.0
H732 H 0.14373 0.53687 0.01166 0.0
H733 H 0.18943 0.55506 0.02358 0.0
H734 H 0.22125 0.59368 0.01664 0.0
C735 C 0.30279 0.64471 0.06197 0.0
C736 C 0.23749 0.61858 0.09145 0.0
C737 C 0.32981 0.65238 0.06835 0.0
C738 C 0.14633 0.55479 0.02547 0.0
C739 C 0.17256 0.56531 0.03218 0.0
C740 C 0.22547 0.60041 0.03765 0.0
C741 C 0.28644 0.62879 0.0792 0.0
C742 C 0.25818 0.6193 0.07165 0.0
C743 C 0.17693 0.58842 0.05016 0.0
C744 C 0.20483 0.59943 0.05749 0.0
H745 H 0.33262 0.62238 0.12816 0.0
H746 H 0.28562 0.60878 0.11687 0.0
H747 H 0.26734 0.61021 0.02894 0.0
H748 H 0.11138 0.60037 0.06344 0.0
H749 H 0.15711 0.61884 0.07486 0.0
C750 C 0.19689 0.47058 0.57412 0.0
C751 C 0.18331 0.49362 0.57053 0.0
C752 C 0.22468 0.47065 0.56901 0.0
C753 C 0.28608 0.51758 0.56197 0.0
H754 H 0.31708 0.45398 0.52931 0.0
C755 C 0.39565 0.52064 0.52247 0.0
C756 C 0.41135 0.50044 0.53041 0.0
C757 C 0.36777 0.51879 0.52701 0.0
C758 C 0.30869 0.4718 0.53864 0.0
H759 H 0.18807 0.5346 0.55816 0.0
H760 H 0.23628 0.53451 0.54856 0.0
H761 H 0.26835 0.45284 0.53757 0.0
H762 H 0.40987 0.46207 0.5487 0.0
H763 H 0.36092 0.45877 0.55638 0.0
H764 H 0.32636 0.53665 0.56255 0.0
C765 C 0.22569 0.51658 0.556 0.0
C766 C 0.2808 0.47116 0.54345 0.0
C767 C 0.19799 0.51659 0.56134 0.0
C768 C 0.39838 0.478 0.5424 0.0
C769 C 0.37037 0.47604 0.5467 0.0
C770 C 0.31385 0.51828 0.55693 0.0
C771 C 0.23946 0.4937 0.56 0.0
C772 C 0.26914 0.4941 0.55509 0.0
C773 C 0.35488 0.49662 0.53937 0.0
C774 C 0.32543 0.49545 0.54512 0.0
H775 H 0.18615 0.45259 0.5813 0.0
H776 H 0.23464 0.45279 0.57266 0.0
H777 H 0.27795 0.53543 0.57154 0.0
H778 H 0.40492 0.5382 0.51316 0.0
H779 H 0.35627 0.53478 0.52084 0.0
C780 C 0.92198 0.818 0.97737 0.0
C781 C 0.94148 0.8401 0.97704 0.0
C782 C 0.9297 0.79207 0.98022 0.0
C783 C 0.9871 0.75558 0.00182 0.0
H784 H 0.94818 0.69471 0.96217 0.0
C785 C 0.99518 0.63397 0.97333 0.0
C786 C 0.00362 0.62652 0.9986 0.0
C787 C 0.9882 0.66016 0.97042 0.0
C788 C 0.95951 0.71148 0.97315 0.0
H789 H 0.98441 0.85232 0.97931 0.0
H790 H 0.99795 0.80708 0.98351 0.0
H791 H 0.93529 0.74 0.95727 0.0
H792 H 0.01116 0.64074 0.04068 0.0
H793 H 0.99829 0.68603 0.03581 0.0
H794 H 0.01197 0.72718 0.01689 0.0
C795 C 0.97662 0.80977 0.98225 0.0
C796 C 0.95181 0.73748 0.97068 0.0
C797 C 0.96886 0.83573 0.97968 0.0
C798 C 0.00495 0.64585 0.02086 0.0
C799 C 0.9977 0.67193 0.01802 0.0
C800 C 0.99495 0.72961 0.00409 0.0
C801 C 0.95714 0.78758 0.98253 0.0
C802 C 0.96543 0.75987 0.98506 0.0
C803 C 0.98921 0.67945 0.99277 0.0
C804 C 0.98119 0.70719 0.98989 0.0
H805 H 0.90069 0.82073 0.97553 0.0
H806 H 0.91408 0.77559 0.98086 0.0
H807 H 0.99788 0.77225 0.01347 0.0
H808 H 0.99409 0.61961 0.95573 0.0
H809 H 0.98221 0.66532 0.95055 0.0
C810 C 0.45952 0.70067 0.11229 0.0
C811 C 0.48439 0.69063 0.11744 0.0
C812 C 0.4571 0.72847 0.11354 0.0
C813 C 0.4935 0.79445 0.13771 0.0
H814 H 0.44841 0.82323 0.08521 0.0
C815 C 0.50962 0.90141 0.10122 0.0
C816 C 0.48732 0.917 0.10239 0.0
C817 C 0.50647 0.87433 0.1068 0.0
C818 C 0.46075 0.81539 0.10023 0.0
H819 H 0.52649 0.7021 0.12701 0.0
H820 H 0.52265 0.75024 0.1279 0.0
H821 H 0.44847 0.77448 0.08708 0.0
H822 H 0.44425 0.91658 0.1104 0.0
H823 H 0.43857 0.8685 0.11924 0.0
H824 H 0.507 0.83555 0.14951 0.0
C825 C 0.50462 0.73679 0.12406 0.0
C826 C 0.46077 0.78747 0.10141 0.0
C827 C 0.50692 0.70907 0.1232 0.0
C828 C 0.46177 0.90501 0.10947 0.0
C829 C 0.4585 0.87761 0.11442 0.0
C830 C 0.49383 0.8223 0.13615 0.0
C831 C 0.47964 0.74693 0.11942 0.0
C832 C 0.47757 0.7766 0.11981 0.0
C833 C 0.48088 0.86212 0.11311 0.0
C834 C 0.4778 0.83296 0.11712 0.0
H835 H 0.44202 0.68726 0.10664 0.0
H836 H 0.43751 0.73543 0.10986 0.0
H837 H 0.50613 0.78695 0.15266 0.0
H838 H 0.52957 0.91017 0.09595 0.0
H839 H 0.52397 0.86271 0.10548 0.0
C840 C 0.09872 0.3172 0.64971 0.0
C841 C 0.07671 0.33174 0.65831 0.0
C842 C 0.09534 0.28921 0.64459 0.0
C843 C 0.04961 0.22856 0.65661 0.0
H844 H 0.08085 0.19982 0.58914 0.0
C845 C 0.01788 0.12171 0.60853 0.0
C846 C 0.03802 0.10688 0.59585 0.0
C847 C 0.02376 0.14862 0.61803 0.0
C848 C 0.07233 0.2074 0.60826 0.0
H849 H 0.03412 0.32813 0.66926 0.0
H850 H 0.02823 0.27933 0.66019 0.0
H851 H 0.08938 0.24755 0.60309 0.0
H852 H 0.08032 0.10867 0.58372 0.0
H853 H 0.0906 0.15545 0.60056 0.0
H854 H 0.03236 0.18839 0.66163 0.0
C855 C 0.04813 0.28955 0.65756 0.0
C856 C 0.07723 0.23479 0.61626 0.0
C857 C 0.05149 0.31756 0.66262 0.0
C858 C 0.06426 0.11951 0.59322 0.0
C859 C 0.07014 0.1464 0.60277 0.0
C860 C 0.04476 0.20112 0.64863 0.0
C861 C 0.06991 0.27513 0.64803 0.0
C862 C 0.06578 0.24572 0.64042 0.0
C863 C 0.04992 0.16133 0.61512 0.0
C864 C 0.0559 0.19026 0.62425 0.0
H865 H 0.11846 0.32748 0.64633 0.0
H866 H 0.11261 0.27861 0.63766 0.0
H867 H 0.04078 0.23632 0.6755 0.0
H868 H 0.99744 0.11266 0.61087 0.0
H869 H 0.00762 0.15963 0.62711 0.0
C870 C 0.53858 0.20461 0.42447 0.0
C871 C 0.55794 0.19273 0.4391 0.0
C872 C 0.53372 0.23163 0.43041 0.0
C873 C 0.54107 0.28596 0.48534 0.0
H874 H 0.53171 0.33307 0.42762 0.0
C875 C 0.50885 0.39392 0.50723 0.0
C876 C 0.52302 0.41424 0.49303 0.0
C877 C 0.51189 0.36673 0.49999 0.0
C878 C 0.53438 0.32018 0.44396 0.0
H879 H 0.58766 0.2001 0.4712 0.0
H880 H 0.5793 0.24716 0.48139 0.0
H881 H 0.54016 0.28606 0.41617 0.0
H882 H 0.55119 0.42175 0.45974 0.0
H883 H 0.55655 0.37437 0.44728 0.0
H884 H 0.53582 0.32014 0.51313 0.0
C885 C 0.56762 0.2355 0.46557 0.0
C886 C 0.53896 0.2932 0.4374 0.0
C887 C 0.57253 0.20856 0.45959 0.0
C888 C 0.53996 0.40667 0.47115 0.0
C889 C 0.54292 0.37948 0.46387 0.0
C890 C 0.53639 0.31288 0.49189 0.0
C891 C 0.54805 0.24731 0.45118 0.0
C892 C 0.54254 0.27583 0.45803 0.0
C893 C 0.52908 0.3592 0.47834 0.0
C894 C 0.53314 0.33035 0.47128 0.0
H895 H 0.52697 0.19298 0.40858 0.0
H896 H 0.51836 0.24008 0.41911 0.0
H897 H 0.54342 0.27302 0.50172 0.0
H898 H 0.49557 0.39899 0.52413 0.0
H899 H 0.50069 0.35156 0.51133 0.0
loop_
_geom_bond_atom_site_label_1
_geom_bond_atom_site_label_2
_geom_bond_distance
_geom_bond_site_symmetry_2
_ccdc_geom_bond_type
O0 Cd1 2.300 . S
O0 C7 1.275 . S
Cd1 O0 2.300 . S
Cd1 O9 2.381 . S
Cd1 O10 2.378 . S
O2 Cd3 2.385 . S
O2 C7 1.255 . S
Cd3 O2 2.385 . S
Cd3 O4 2.317 . S
O4 Cd3 2.317 . S
O4 C5 1.232 . S
C5 O4 1.232 . S
C5 O6 1.218 . S
O6 C5 1.218 . S
C7 O0 1.275 . S
C7 O2 1.255 . S
C8 O9 1.258 . S
C8 O10 1.256 . S
O9 Cd1 2.381 . S
O9 C8 1.258 . S
O10 Cd1 2.378 . S
O10 C8 1.256 . S
O11 Cd12 2.300 . S
O11 C18 1.275 . S
Cd12 O11 2.300 . S
Cd12 O20 2.381 . S
Cd12 O21 2.378 . S
O13 Cd14 2.385 . S
O13 C18 1.255 . S
Cd14 O13 2.385 . S
Cd14 O15 2.317 . S
O15 Cd14 2.317 . S
O15 C16 1.232 . S
C16 O15 1.232 . S
C16 O17 1.218 . S
O17 C16 1.218 . S
C18 O11 1.275 . S
C18 O13 1.255 . S
C19 O20 1.258 . S
C19 O21 1.256 . S
O20 Cd12 2.381 . S
O20 C19 1.258 . S
O21 Cd12 2.378 . S
O21 C19 1.256 . S
O22 Cd23 2.300 . S
O22 C29 1.275 . S
Cd23 O22 2.300 . S
Cd23 O31 2.381 . S
Cd23 O32 2.378 . S
O24 Cd25 2.385 . S
O24 C29 1.255 . S
Cd25 O24 2.385 . S
Cd25 O26 2.317 . S
O26 Cd25 2.317 . S
O26 C27 1.232 . S
C27 O26 1.232 . S
C27 O28 1.218 . S
O28 C27 1.218 . S
C29 O22 1.275 . S
C29 O24 1.255 . S
C30 O31 1.258 . S
C30 O32 1.256 . S
O31 Cd23 2.381 . S
O31 C30 1.258 . S
O32 Cd23 2.378 . S
O32 C30 1.256 . S
O33 Cd34 2.300 . S
O33 C40 1.275 . S
Cd34 O33 2.300 . S
Cd34 O42 2.381 . S
Cd34 O43 2.378 . S
O35 Cd36 2.385 . S
O35 C40 1.255 . S
Cd36 O35 2.385 . S
Cd36 O37 2.317 . S
O37 Cd36 2.317 . S
O37 C38 1.232 . S
C38 O37 1.232 . S
C38 O39 1.218 . S
O39 C38 1.218 . S
C40 O33 1.275 . S
C40 O35 1.255 . S
C41 O42 1.258 . S
C41 O43 1.256 . S
O42 Cd34 2.381 . S
O42 C41 1.258 . S
O43 Cd34 2.378 . S
O43 C41 1.256 . S
O44 Cd45 2.300 . S
O44 C51 1.275 . S
Cd45 O44 2.300 . S
Cd45 O53 2.381 . S
Cd45 O54 2.378 . S
O46 Cd47 2.385 . S
O46 C51 1.255 . S
Cd47 O46 2.385 . S
Cd47 O48 2.317 . S
O48 Cd47 2.317 . S
O48 C49 1.232 . S
C49 O48 1.232 . S
C49 O50 1.218 1_565 S
O50 C49 1.218 1_545 S
C51 O44 1.275 . S
C51 O46 1.255 . S
C52 O53 1.258 . S
C52 O54 1.256 . S
O53 Cd45 2.381 . S
O53 C52 1.258 . S
O54 Cd45 2.378 . S
O54 C52 1.256 . S
O55 Cd56 2.300 . S
O55 C62 1.275 . S
Cd56 O55 2.300 . S
Cd56 O64 2.381 . S
Cd56 O65 2.378 . S
O57 Cd58 2.385 . S
O57 C62 1.255 . S
Cd58 O57 2.385 . S
Cd58 O59 2.317 . S
O59 Cd58 2.317 . S
O59 C60 1.232 . S
C60 O59 1.232 . S
C60 O61 1.218 . S
O61 C60 1.218 . S
C62 O55 1.275 . S
C62 O57 1.255 . S
C63 O64 1.258 . S
C63 O65 1.256 . S
O64 Cd56 2.381 . S
O64 C63 1.258 . S
O65 Cd56 2.378 . S
O65 C63 1.256 . S
O66 Cd67 2.300 . S
O66 C73 1.275 . S
Cd67 O66 2.300 . S
Cd67 O75 2.381 . S
Cd67 O76 2.378 . S
O68 Cd69 2.385 . S
O68 C73 1.255 . S
Cd69 O68 2.385 . S
Cd69 O70 2.317 . S
O70 Cd69 2.317 . S
O70 C71 1.232 . S
C71 O70 1.232 . S
C71 O72 1.218 . S
O72 C71 1.218 . S
C73 O66 1.275 . S
C73 O68 1.255 . S
C74 O75 1.258 . S
C74 O76 1.256 . S
O75 Cd67 2.381 . S
O75 C74 1.258 . S
O76 Cd67 2.378 . S
O76 C74 1.256 . S
O77 Cd78 2.300 . S
O77 C84 1.275 . S
Cd78 O77 2.300 . S
Cd78 O86 2.381 . S
Cd78 O87 2.378 . S
O79 Cd80 2.385 . S
O79 C84 1.255 . S
Cd80 O79 2.385 . S
Cd80 O81 2.317 . S
O81 Cd80 2.317 . S
O81 C82 1.232 . S
C82 O81 1.232 . S
C82 O83 1.218 . S
O83 C82 1.218 . S
C84 O77 1.275 . S
C84 O79 1.255 . S
C85 O86 1.258 . S
C85 O87 1.256 . S
O86 Cd78 2.381 . S
O86 C85 1.258 . S
O87 Cd78 2.378 . S
O87 C85 1.256 . S
O88 Zn89 1.968 . S
O88 C104 1.189 1_655 S
Zn89 O88 1.968 . S
Zn89 O90 1.949 1_655 S
Zn89 O96 1.919 . S
Zn89 O101 1.924 . S
O90 Zn89 1.949 1_455 S
O90 Zn91 1.923 1_445 S
O90 Zn92 1.950 . S
O90 Zn93 1.945 1_545 S
Zn91 O90 1.923 1_665 S
Zn91 O94 1.933 . S
Zn91 O97 1.941 1_565 S
Zn91 O98 1.965 1_665 S
Zn92 O90 1.950 . S
Zn92 O99 1.938 . S
Zn92 O100 1.906 . S
Zn92 O110 1.953 . S
Zn93 O90 1.945 1_565 S
Zn93 O95 1.932 1_455 S
Zn93 O102 1.977 . S
Zn93 O103 1.910 1_455 S
O94 Zn91 1.933 . S
O94 C105 1.226 . S
O95 Zn93 1.932 1_655 S
O95 C105 1.307 . S
O96 Zn89 1.919 . S
O96 C107 1.253 . S
O97 Zn91 1.941 1_545 S
O97 C107 1.283 . S
O98 Zn91 1.965 1_445 S
O98 C106 1.303 . S
O99 Zn92 1.938 . S
O99 C106 1.247 . S
O100 Zn92 1.906 . S
O100 C108 1.304 1_545 S
O101 Zn89 1.924 . S
O101 C109 1.311 . S
O102 Zn93 1.977 . S
O102 C108 1.272 . S
O103 Zn93 1.910 1_655 S
O103 C109 1.231 1_565 S
C104 O88 1.189 1_455 S
C104 O110 1.298 . S
C105 O94 1.226 . S
C105 O95 1.307 . S
C106 O98 1.303 . S
C106 O99 1.247 . S
C107 O96 1.253 . S
C107 O97 1.283 . S
C108 O100 1.304 1_565 S
C108 O102 1.272 . S
C109 O101 1.311 . S
C109 O103 1.231 1_545 S
O110 Zn92 1.953 . S
O110 C104 1.298 . S
O111 Zn112 1.953 . S
O111 C127 1.225 . S
Zn112 O111 1.953 . S
Zn112 O113 1.949 . S
Zn112 O119 1.919 . S
Zn112 O124 1.924 . S
O113 Zn112 1.949 . S
O113 Zn114 1.923 1_545 S
O113 Zn115 1.950 . S
O113 Zn116 1.945 . S
Zn114 O113 1.923 1_565 S
Zn114 O117 1.933 . S
Zn114 O120 1.941 . S
Zn114 O121 1.965 . S
Zn115 O113 1.950 . S
Zn115 O122 1.938 . S
Zn115 O123 1.906 . S
Zn115 O133 1.953 . S
Zn116 O113 1.945 . S
Zn116 O118 1.932 1_545 S
Zn116 O125 1.977 . S
Zn116 O126 1.910 . S
O117 Zn114 1.933 . S
O117 C128 1.226 . S
O118 Zn116 1.932 1_565 S
O118 C128 1.307 . S
O119 Zn112 1.919 . S
O119 C130 1.263 1_554 S
O120 Zn114 1.941 . S
O120 C130 1.278 1_564 S
O121 Zn114 1.965 . S
O121 C129 1.303 1_565 S
O122 Zn115 1.938 . S
O122 C129 1.247 . S
O123 Zn115 1.906 . S
O123 C131 1.304 . S
O124 Zn112 1.924 . S
O124 C132 1.311 . S
O125 Zn116 1.977 . S
O125 C131 1.272 . S
O126 Zn116 1.910 . S
O126 C132 1.231 . S
C127 O111 1.225 . S
C127 O133 1.298 . S
C128 O117 1.226 . S
C128 O118 1.307 . S
C129 O121 1.303 1_545 S
C129 O122 1.247 . S
C130 O119 1.263 1_556 S
C130 O120 1.278 1_546 S
C131 O123 1.304 . S
C131 O125 1.272 . S
C132 O124 1.311 . S
C132 O126 1.231 . S
O133 Zn115 1.953 . S
O133 C127 1.298 . S
O134 Zn135 1.953 . S
O134 C150 1.225 . S
Zn135 O134 1.953 . S
Zn135 O136 1.949 . S
Zn135 O142 1.919 . S
Zn135 O147 1.924 . S
O136 Zn135 1.949 . S
O136 Zn137 1.923 . S
O136 Zn138 1.950 . S
O136 Zn139 1.945 . S
Zn137 O136 1.923 . S
Zn137 O140 1.933 . S
Zn137 O143 1.941 . S
Zn137 O144 1.965 . S
Zn138 O136 1.950 . S
Zn138 O145 1.938 . S
Zn138 O146 1.906 . S
Zn138 O156 1.953 . S
Zn139 O136 1.945 . S
Zn139 O141 1.932 . S
Zn139 O148 1.977 . S
Zn139 O149 1.910 . S
O140 Zn137 1.933 . S
O140 C151 1.226 . S
O141 Zn139 1.932 . S
O141 C151 1.307 . S
O142 Zn135 1.919 . S
O142 C153 1.253 . S
O143 Zn137 1.941 . S
O143 C153 1.283 . S
O144 Zn137 1.965 . S
O144 C152 1.303 . S
O145 Zn138 1.938 . S
O145 C152 1.247 . S
O146 Zn138 1.906 . S
O146 C154 1.304 . S
O147 Zn135 1.924 . S
O147 C155 1.311 . S
O148 Zn139 1.977 . S
O148 C154 1.272 . S
O149 Zn139 1.910 . S
O149 C155 1.231 . S
C150 O134 1.225 . S
C150 O156 1.298 . S
C151 O140 1.226 . S
C151 O141 1.307 . S
C152 O144 1.303 . S
C152 O145 1.247 . S
C153 O142 1.253 . S
C153 O143 1.283 . S
C154 O146 1.304 . S
C154 O148 1.272 . S
C155 O147 1.311 . S
C155 O149 1.231 . S
O156 Zn138 1.953 . S
O156 C150 1.298 . S
O157 Zn158 1.953 . S
O157 C173 1.225 1_655 S
Zn158 O157 1.953 . S
Zn158 O159 1.949 1_655 S
Zn158 O165 1.919 . S
Zn158 O170 1.924 1_655 S
O159 Zn158 1.949 1_455 S
O159 Zn160 1.923 1_554 S
O159 Zn161 1.950 . S
O159 Zn162 1.945 1_554 S
Zn160 O159 1.923 1_556 S
Zn160 O163 1.933 . S
Zn160 O166 1.941 1_455 S
Zn160 O167 1.965 . S
Zn161 O159 1.950 . S
Zn161 O168 1.938 . S
Zn161 O169 1.906 . S
Zn161 O179 1.953 . S
Zn162 O159 1.945 1_556 S
Zn162 O164 1.932 . S
Zn162 O171 1.977 1_556 S
Zn162 O172 1.910 1_556 S
O163 Zn160 1.933 . S
O163 C174 1.226 . S
O164 Zn162 1.932 . S
O164 C174 1.307 . S
O165 Zn158 1.919 . S
O165 C176 1.253 1_554 S
O166 Zn160 1.941 1_655 S
O166 C176 1.283 . S
O167 Zn160 1.965 . S
O167 C175 1.315 . S
O168 Zn161 1.938 . S
O168 C175 1.235 1_554 S
O169 Zn161 1.906 . S
O169 C177 1.304 . S
O170 Zn158 1.924 1_455 S
O170 C178 1.311 . S
O171 Zn162 1.977 1_554 S
O171 C177 1.272 . S
O172 Zn162 1.910 1_554 S
O172 C178 1.231 . S
C173 O157 1.225 1_455 S
C173 O179 1.298 . S
C174 O163 1.226 . S
C174 O164 1.307 . S
C175 O167 1.315 . S
C175 O168 1.235 1_556 S
C176 O165 1.253 1_556 S
C176 O166 1.283 . S
C177 O169 1.304 . S
C177 O171 1.272 . S
C178 O170 1.311 . S
C178 O172 1.231 . S
O179 Zn161 1.953 . S
O179 C173 1.298 . S
C180 C181 1.349 . S
C180 C182 1.327 . S
C180 H205 0.950 . S
C181 C180 1.349 . S
C181 C197 1.349 . S
C182 C180 1.327 . S
C182 C201 1.429 . S
C182 H206 0.950 . S
C183 C200 1.574 . S
C183 C202 1.368 . S
C183 H207 0.949 . S
H184 C188 0.949 . S
C185 C186 1.349 . S
C185 C187 1.327 . S
C185 H208 0.950 . S
C186 C185 1.349 . S
C186 C198 1.349 . S
C187 C185 1.327 . S
C187 C203 1.429 . S
C187 H209 0.950 . S
C188 H184 0.949 . S
C188 C196 1.574 . S
C188 C204 1.368 . S
H189 C197 0.950 . S
H190 C195 0.950 . S
H191 C196 0.949 . S
H192 C198 0.950 . S
H193 C199 0.950 . S
H194 C200 0.949 . S
C195 H190 0.950 . S
C195 C197 1.327 . S
C195 C201 1.429 . S
C196 C188 1.574 . S
C196 H191 0.949 . S
C196 C202 1.368 . S
C197 C181 1.349 . S
C197 H189 0.950 . S
C197 C195 1.327 . S
C198 C186 1.349 . S
C198 H192 0.950 . S
C198 C199 1.327 . S
C199 H193 0.950 . S
C199 C198 1.327 . S
C199 C203 1.429 . S
C200 C183 1.574 . S
C200 H194 0.949 . S
C200 C204 1.368 . S
C201 C182 1.429 . S
C201 C195 1.429 . S
C201 C202 1.523 . S
C202 C183 1.368 . S
C202 C196 1.368 . S
C202 C201 1.523 . S
C203 C187 1.429 . S
C203 C199 1.429 . S
C203 C204 1.523 . S
C204 C188 1.368 . S
C204 C200 1.368 . S
C204 C203 1.523 . S
H205 C180 0.950 . S
H206 C182 0.950 . S
H207 C183 0.949 . S
H208 C185 0.950 . S
H209 C187 0.950 . S
C210 C211 1.349 . S
C210 C212 1.327 . S
C210 H235 0.950 . S
C211 C210 1.349 . S
C211 C227 1.349 . S
C212 C210 1.327 . S
C212 C231 1.429 . S
C212 H236 0.950 . S
C213 C230 1.574 . S
C213 C232 1.368 . S
C213 H237 0.949 . S
H214 C218 0.949 . S
C215 C216 1.349 . S
C215 C217 1.327 . S
C215 H238 0.950 . S
C216 C215 1.349 . S
C216 C228 1.349 1_565 S
C217 C215 1.327 . S
C217 C233 1.429 . S
C217 H239 0.950 . S
C218 H214 0.949 . S
C218 C226 1.574 . S
C218 C234 1.368 . S
H219 C227 0.950 . S
H220 C225 0.950 . S
H221 C226 0.949 . S
H222 C228 0.950 . S
H223 C229 0.950 1_545 S
H224 C230 0.949 . S
C225 H220 0.950 . S
C225 C227 1.327 . S
C225 C231 1.429 . S
C226 C218 1.574 . S
C226 H221 0.949 . S
C226 C232 1.368 . S
C227 C211 1.349 . S
C227 H219 0.950 . S
C227 C225 1.327 . S
C228 C216 1.349 1_545 S
C228 H222 0.950 . S
C228 C229 1.327 1_545 S
C229 H223 0.950 1_565 S
C229 C228 1.327 1_565 S
C229 C233 1.429 . S
C230 C213 1.574 . S
C230 H224 0.949 . S
C230 C234 1.368 . S
C231 C212 1.429 . S
C231 C225 1.429 . S
C231 C232 1.523 . S
C232 C213 1.368 . S
C232 C226 1.368 . S
C232 C231 1.523 . S
C233 C217 1.429 . S
C233 C229 1.429 . S
C233 C234 1.523 . S
C234 C218 1.368 . S
C234 C230 1.368 . S
C234 C233 1.523 . S
H235 C210 0.950 . S
H236 C212 0.950 . S
H237 C213 0.949 . S
H238 C215 0.950 . S
H239 C217 0.950 . S
C240 C241 1.349 . S
C240 C242 1.327 . S
C240 H265 0.950 . S
C241 C240 1.349 . S
C241 C257 1.349 . S
C242 C240 1.327 . S
C242 C261 1.429 . S
C242 H266 0.950 . S
C243 C260 1.574 . S
C243 C262 1.368 . S
C243 H267 0.949 . S
H244 C248 0.949 . S
C245 C246 1.349 . S
C245 C247 1.327 . S
C245 H268 0.950 . S
C246 C245 1.349 . S
C246 C258 1.349 . S
C247 C245 1.327 . S
C247 C263 1.429 . S
C247 H269 0.950 . S
C248 H244 0.949 . S
C248 C256 1.574 . S
C248 C264 1.368 . S
H249 C257 0.950 . S
H250 C255 0.950 . S
H251 C256 0.949 . S
H252 C258 0.950 . S
H253 C259 0.950 . S
H254 C260 0.949 . S
C255 H250 0.950 . S
C255 C257 1.327 . S
C255 C261 1.429 . S
C256 C248 1.574 . S
C256 H251 0.949 . S
C256 C262 1.368 . S
C257 C241 1.349 . S
C257 H249 0.950 . S
C257 C255 1.327 . S
C258 C246 1.349 . S
C258 H252 0.950 . S
C258 C259 1.327 . S
C259 H253 0.950 . S
C259 C258 1.327 . S
C259 C263 1.429 . S
C260 C243 1.574 . S
C260 H254 0.949 . S
C260 C264 1.368 . S
C261 C242 1.429 . S
C261 C255 1.429 . S
C261 C262 1.523 . S
C262 C243 1.368 . S
C262 C256 1.368 . S
C262 C261 1.523 . S
C263 C247 1.429 . S
C263 C259 1.429 . S
C263 C264 1.523 . S
C264 C248 1.368 . S
C264 C260 1.368 . S
C264 C263 1.523 . S
H265 C240 0.950 . S
H266 C242 0.950 . S
H267 C243 0.949 . S
H268 C245 0.950 . S
H269 C247 0.950 . S
C270 C271 1.349 . S
C270 C272 1.327 . S
C270 H295 0.950 . S
C271 C270 1.349 . S
C271 C287 1.349 . S
C272 C270 1.327 . S
C272 C291 1.429 . S
C272 H296 0.950 . S
C273 C290 1.574 . S
C273 C292 1.368 . S
C273 H297 0.949 . S
H274 C278 0.949 . S
C275 C276 1.349 1_455 S
C275 C277 1.327 . S
C275 H298 0.950 . S
C276 C275 1.349 1_655 S
C276 C288 1.349 . S
C277 C275 1.327 . S
C277 C293 1.429 1_455 S
C277 H299 0.950 . S
C278 H274 0.949 . S
C278 C286 1.574 . S
C278 C294 1.368 . S
H279 C287 0.950 . S
H280 C285 0.950 . S
H281 C286 0.949 . S
H282 C288 0.950 . S
H283 C289 0.950 . S
H284 C290 0.949 1_455 S
C285 H280 0.950 . S
C285 C287 1.327 . S
C285 C291 1.429 . S
C286 C278 1.574 . S
C286 H281 0.949 . S
C286 C292 1.368 . S
C287 C271 1.349 . S
C287 H279 0.950 . S
C287 C285 1.327 . S
C288 C276 1.349 . S
C288 H282 0.950 . S
C288 C289 1.327 . S
C289 H283 0.950 . S
C289 C288 1.327 . S
C289 C293 1.429 . S
C290 C273 1.574 . S
C290 H284 0.949 1_655 S
C290 C294 1.368 . S
C291 C272 1.429 . S
C291 C285 1.429 . S
C291 C292 1.523 . S
C292 C273 1.368 . S
C292 C286 1.368 . S
C292 C291 1.523 . S
C293 C277 1.429 1_655 S
C293 C289 1.429 . S
C293 C294 1.523 . S
C294 C278 1.368 . S
C294 C290 1.368 . S
C294 C293 1.523 . S
H295 C270 0.950 . S
H296 C272 0.950 . S
H297 C273 0.949 . S
H298 C275 0.950 . S
H299 C277 0.950 . S
C300 C301 1.349 . S
C300 C302 1.327 . S
C300 H325 0.950 . S
C301 C300 1.349 . S
C301 C317 1.349 . S
C302 C300 1.327 . S
C302 C321 1.429 . S
C302 H326 0.950 . S
C303 C320 1.574 . S
C303 C322 1.368 . S
C303 H327 0.949 . S
H304 C308 0.949 . S
C305 C306 1.349 . S
C305 C307 1.327 . S
C305 H328 0.950 . S
C306 C305 1.349 . S
C306 C318 1.349 . S
C307 C305 1.327 . S
C307 C323 1.429 . S
C307 H329 0.950 . S
C308 H304 0.949 . S
C308 C316 1.574 . S
C308 C324 1.368 . S
H309 C317 0.950 . S
H310 C315 0.950 . S
H311 C316 0.949 . S
H312 C318 0.950 . S
H313 C319 0.950 . S
H314 C320 0.949 . S
C315 H310 0.950 . S
C315 C317 1.327 . S
C315 C321 1.429 . S
C316 C308 1.574 . S
C316 H311 0.949 . S
C316 C322 1.368 . S
C317 C301 1.349 . S
C317 H309 0.950 . S
C317 C315 1.327 . S
C318 C306 1.349 . S
C318 H312 0.950 . S
C318 C319 1.327 . S
C319 H313 0.950 . S
C319 C318 1.327 . S
C319 C323 1.429 . S
C320 C303 1.574 . S
C320 H314 0.949 . S
C320 C324 1.368 . S
C321 C302 1.429 . S
C321 C315 1.429 . S
C321 C322 1.523 . S
C322 C303 1.368 . S
C322 C316 1.368 . S
C322 C321 1.523 . S
C323 C307 1.429 . S
C323 C319 1.429 . S
C323 C324 1.523 . S
C324 C308 1.368 . S
C324 C320 1.368 . S
C324 C323 1.523 . S
H325 C300 0.950 . S
H326 C302 0.950 . S
H327 C303 0.949 . S
H328 C305 0.950 . S
H329 C307 0.950 . S
C330 C331 1.349 . S
C330 C332 1.327 . S
C330 H355 0.950 . S
C331 C330 1.349 . S
C331 C347 1.349 . S
C332 C330 1.327 . S
C332 C351 1.429 . S
C332 H356 0.950 . S
C333 C350 1.574 . S
C333 C352 1.368 . S
C333 H357 0.949 . S
H334 C338 0.949 . S
C335 C336 1.349 . S
C335 C337 1.327 . S
C335 H358 0.950 . S
C336 C335 1.349 . S
C336 C348 1.349 . S
C337 C335 1.327 . S
C337 C353 1.429 . S
C337 H359 0.950 . S
C338 H334 0.949 . S
C338 C346 1.574 . S
C338 C354 1.368 . S
H339 C347 0.950 . S
H340 C345 0.950 . S
H341 C346 0.949 . S
H342 C348 0.950 . S
H343 C349 0.950 . S
H344 C350 0.949 . S
C345 H340 0.950 . S
C345 C347 1.327 . S
C345 C351 1.429 . S
C346 C338 1.574 . S
C346 H341 0.949 . S
C346 C352 1.368 . S
C347 C331 1.349 . S
C347 H339 0.950 . S
C347 C345 1.327 . S
C348 C336 1.349 . S
C348 H342 0.950 . S
C348 C349 1.327 . S
C349 H343 0.950 . S
C349 C348 1.327 . S
C349 C353 1.429 . S
C350 C333 1.574 . S
C350 H344 0.949 . S
C350 C354 1.368 . S
C351 C332 1.429 . S
C351 C345 1.429 . S
C351 C352 1.523 . S
C352 C333 1.368 . S
C352 C346 1.368 . S
C352 C351 1.523 . S
C353 C337 1.429 . S
C353 C349 1.429 . S
C353 C354 1.523 . S
C354 C338 1.368 . S
C354 C350 1.368 . S
C354 C353 1.523 . S
H355 C330 0.950 . S
H356 C332 0.950 . S
H357 C333 0.949 . S
H358 C335 0.950 . S
H359 C337 0.950 . S
C360 C361 1.349 . S
C360 C362 1.327 . S
C360 H385 0.950 . S
C361 C360 1.349 . S
C361 C377 1.349 . S
C362 C360 1.327 . S
C362 C381 1.429 . S
C362 H386 0.950 . S
C363 C380 1.574 . S
C363 C382 1.368 . S
C363 H387 0.949 . S
H364 C368 0.949 . S
C365 C366 1.349 . S
C365 C367 1.327 . S
C365 H388 0.950 . S
C366 C365 1.349 . S
C366 C378 1.349 . S
C367 C365 1.327 . S
C367 C383 1.429 . S
C367 H389 0.950 . S
C368 H364 0.949 . S
C368 C376 1.574 . S
C368 C384 1.368 . S
H369 C377 0.950 . S
H370 C375 0.950 . S
H371 C376 0.949 . S
H372 C378 0.950 . S
H373 C379 0.950 . S
H374 C380 0.949 . S
C375 H370 0.950 . S
C375 C377 1.327 . S
C375 C381 1.429 . S
C376 C368 1.574 . S
C376 H371 0.949 . S
C376 C382 1.368 . S
C377 C361 1.349 . S
C377 H369 0.950 . S
C377 C375 1.327 . S
C378 C366 1.349 . S
C378 H372 0.950 . S
C378 C379 1.327 . S
C379 H373 0.950 . S
C379 C378 1.327 . S
C379 C383 1.429 . S
C380 C363 1.574 . S
C380 H374 0.949 . S
C380 C384 1.368 . S
C381 C362 1.429 . S
C381 C375 1.429 . S
C381 C382 1.523 . S
C382 C363 1.368 . S
C382 C376 1.368 . S
C382 C381 1.523 . S
C383 C367 1.429 . S
C383 C379 1.429 . S
C383 C384 1.523 . S
C384 C368 1.368 . S
C384 C380 1.368 . S
C384 C383 1.523 . S
H385 C360 0.950 . S
H386 C362 0.950 . S
H387 C363 0.949 . S
H388 C365 0.950 . S
H389 C367 0.950 . S
C390 C391 1.349 . S
C390 C392 1.327 . S
C390 H415 0.950 . S
C391 C390 1.349 . S
C391 C407 1.349 . S
C392 C390 1.327 . S
C392 C411 1.429 . S
C392 H416 0.950 . S
C393 C410 1.574 . S
C393 C412 1.368 . S
C393 H417 0.949 . S
H394 C398 0.949 . S
C395 C396 1.349 . S
C395 C397 1.327 . S
C395 H418 0.950 . S
C396 C395 1.349 . S
C396 C408 1.349 . S
C397 C395 1.327 . S
C397 C413 1.429 . S
C397 H419 0.950 . S
C398 H394 0.949 . S
C398 C406 1.574 . S
C398 C414 1.368 . S
H399 C407 0.950 . S
H400 C405 0.950 . S
H401 C406 0.949 . S
H402 C408 0.950 . S
H403 C409 0.950 . S
H404 C410 0.949 . S
C405 H400 0.950 . S
C405 C407 1.327 . S
C405 C411 1.429 . S
C406 C398 1.574 . S
C406 H401 0.949 . S
C406 C412 1.368 . S
C407 C391 1.349 . S
C407 H399 0.950 . S
C407 C405 1.327 . S
C408 C396 1.349 . S
C408 H402 0.950 . S
C408 C409 1.327 . S
C409 H403 0.950 . S
C409 C408 1.327 . S
C409 C413 1.429 . S
C410 C393 1.574 . S
C410 H404 0.949 . S
C410 C414 1.368 . S
C411 C392 1.429 . S
C411 C405 1.429 . S
C411 C412 1.523 . S
C412 C393 1.368 . S
C412 C406 1.368 . S
C412 C411 1.523 . S
C413 C397 1.429 . S
C413 C409 1.429 . S
C413 C414 1.523 . S
C414 C398 1.368 . S
C414 C410 1.368 . S
C414 C413 1.523 . S
H415 C390 0.950 . S
H416 C392 0.950 . S
H417 C393 0.949 . S
H418 C395 0.950 . S
H419 C397 0.950 . S
C420 C421 1.349 . S
C420 C422 1.327 . S
C420 H445 0.950 . S
C421 C420 1.349 . S
C421 C437 1.349 . S
C422 C420 1.327 . S
C422 C441 1.429 . S
C422 H446 0.950 . S
C423 C440 1.574 . S
C423 C442 1.368 . S
C423 H447 0.949 . S
H424 C428 0.949 . S
C425 C426 1.349 . S
C425 C427 1.327 . S
C425 H448 0.950 . S
C426 C425 1.349 . S
C426 C438 1.349 . S
C427 C425 1.327 . S
C427 C443 1.429 . S
C427 H449 0.950 . S
C428 H424 0.949 . S
C428 C436 1.574 . S
C428 C444 1.368 . S
H429 C437 0.950 . S
H430 C435 0.950 . S
H431 C436 0.949 . S
H432 C438 0.950 . S
H433 C439 0.950 . S
H434 C440 0.949 . S
C435 H430 0.950 . S
C435 C437 1.327 . S
C435 C441 1.429 . S
C436 C428 1.574 . S
C436 H431 0.949 . S
C436 C442 1.368 . S
C437 C421 1.349 . S
C437 H429 0.950 . S
C437 C435 1.327 . S
C438 C426 1.349 . S
C438 H432 0.950 . S
C438 C439 1.327 . S
C439 H433 0.950 . S
C439 C438 1.327 . S
C439 C443 1.429 . S
C440 C423 1.574 . S
C440 H434 0.949 . S
C440 C444 1.368 . S
C441 C422 1.429 . S
C441 C435 1.429 . S
C441 C442 1.523 . S
C442 C423 1.368 . S
C442 C436 1.368 . S
C442 C441 1.523 . S
C443 C427 1.429 . S
C443 C439 1.429 . S
C443 C444 1.523 . S
C444 C428 1.368 . S
C444 C440 1.368 . S
C444 C443 1.523 . S
H445 C420 0.950 . S
H446 C422 0.950 . S
H447 C423 0.949 . S
H448 C425 0.950 . S
H449 C427 0.950 . S
C450 C451 1.349 . S
C450 C452 1.327 . S
C450 H475 0.950 . S
C451 C450 1.349 . S
C451 C467 1.349 . S
C452 C450 1.327 . S
C452 C471 1.429 . S
C452 H476 0.950 . S
C453 C470 1.574 . S
C453 C472 1.368 . S
C453 H477 0.949 . S
H454 C458 0.949 . S
C455 C456 1.349 . S
C455 C457 1.327 . S
C455 H478 0.950 . S
C456 C455 1.349 . S
C456 C468 1.349 . S
C457 C455 1.327 . S
C457 C473 1.429 . S
C457 H479 0.950 . S
C458 H454 0.949 . S
C458 C466 1.579 . S
C458 C474 1.368 . S
H459 C467 0.950 . S
H460 C465 0.950 . S
H461 C466 0.949 . S
H462 C468 0.950 . S
H463 C469 0.950 . S
H464 C470 0.949 . S
C465 H460 0.950 . S
C465 C467 1.327 . S
C465 C471 1.429 . S
C466 C458 1.579 . S
C466 H461 0.949 . S
C466 C472 1.363 1_554 S
C467 C451 1.349 . S
C467 H459 0.950 . S
C467 C465 1.327 . S
C468 C456 1.349 . S
C468 H462 0.950 . S
C468 C469 1.327 . S
C469 H463 0.950 . S
C469 C468 1.327 . S
C469 C473 1.429 . S
C470 C453 1.574 . S
C470 H464 0.949 . S
C470 C474 1.368 1_556 S
C471 C452 1.429 . S
C471 C465 1.429 . S
C471 C472 1.523 . S
C472 C453 1.368 . S
C472 C466 1.363 1_556 S
C472 C471 1.523 . S
C473 C457 1.429 . S
C473 C469 1.429 . S
C473 C474 1.523 . S
C474 C458 1.368 . S
C474 C470 1.368 1_554 S
C474 C473 1.523 . S
H475 C450 0.950 . S
H476 C452 0.950 . S
H477 C453 0.949 . S
H478 C455 0.950 . S
H479 C457 0.950 . S
C480 C481 1.349 . S
C480 C482 1.327 . S
C480 H505 0.950 . S
C481 C480 1.349 . S
C481 C497 1.349 . S
C482 C480 1.327 . S
C482 C501 1.429 . S
C482 H506 0.950 . S
C483 C500 1.574 . S
C483 C502 1.368 . S
C483 H507 0.949 . S
H484 C488 0.949 . S
C485 C486 1.349 . S
C485 C487 1.327 . S
C485 H508 0.950 . S
C486 C485 1.349 . S
C486 C498 1.349 . S
C487 C485 1.327 . S
C487 C503 1.429 . S
C487 H509 0.950 . S
C488 H484 0.949 . S
C488 C496 1.574 . S
C488 C504 1.368 . S
H489 C497 0.950 . S
H490 C495 0.950 . S
H491 C496 0.949 . S
H492 C498 0.977 . S
H493 C499 0.950 . S
H494 C500 0.949 . S
C495 H490 0.950 . S
C495 C497 1.327 . S
C495 C501 1.429 . S
C496 C488 1.574 . S
C496 H491 0.949 . S
C496 C502 1.368 . S
C497 C481 1.349 . S
C497 H489 0.950 . S
C497 C495 1.327 . S
C498 C486 1.349 . S
C498 H492 0.977 . S
C498 C499 1.327 . S
C499 H493 0.950 . S
C499 C498 1.327 . S
C499 C503 1.429 . S
C500 C483 1.574 . S
C500 H494 0.949 . S
C500 C504 1.368 . S
C501 C482 1.429 . S
C501 C495 1.429 . S
C501 C502 1.523 . S
C502 C483 1.368 . S
C502 C496 1.368 . S
C502 C501 1.523 . S
C503 C487 1.429 . S
C503 C499 1.429 . S
C503 C504 1.523 . S
C504 C488 1.368 . S
C504 C500 1.368 . S
C504 C503 1.523 . S
H505 C480 0.950 . S
H506 C482 0.950 . S
H507 C483 0.949 . S
H508 C485 0.950 . S
H509 C487 0.950 . S
C510 C511 1.349 . S
C510 C512 1.327 . S
C510 H535 0.950 . S
C511 C510 1.349 . S
C511 C527 1.349 . S
C512 C510 1.327 . S
C512 C531 1.429 . S
C512 H536 0.950 . S
C513 C530 1.574 . S
C513 C532 1.368 . S
C513 H537 0.949 . S
H514 C518 0.949 . S
C515 C516 1.349 . S
C515 C517 1.327 . S
C515 H538 0.950 . S
C516 C515 1.349 . S
C516 C528 1.349 . S
C517 C515 1.327 . S
C517 C533 1.429 . S
C517 H539 0.950 . S
C518 H514 0.949 . S
C518 C526 1.574 . S
C518 C534 1.368 . S
H519 C527 0.950 . S
H520 C525 0.950 . S
H521 C526 0.949 . S
H522 C528 0.950 . S
H523 C529 0.950 . S
H524 C530 0.949 . S
C525 H520 0.950 . S
C525 C527 1.327 . S
C525 C531 1.429 . S
C526 C518 1.574 . S
C526 H521 0.949 . S
C526 C532 1.368 . S
C527 C511 1.349 . S
C527 H519 0.950 . S
C527 C525 1.327 . S
C528 C516 1.349 . S
C528 H522 0.950 . S
C528 C529 1.327 . S
C529 H523 0.950 . S
C529 C528 1.327 . S
C529 C533 1.429 . S
C530 C513 1.574 . S
C530 H524 0.949 . S
C530 C534 1.368 . S
C531 C512 1.429 . S
C531 C525 1.429 . S
C531 C532 1.523 . S
C532 C513 1.368 . S
C532 C526 1.368 . S
C532 C531 1.523 . S
C533 C517 1.429 . S
C533 C529 1.429 . S
C533 C534 1.523 . S
C534 C518 1.368 . S
C534 C530 1.368 . S
C534 C533 1.523 . S
H535 C510 0.950 . S
H536 C512 0.950 . S
H537 C513 0.949 . S
H538 C515 0.950 . S
H539 C517 0.950 . S
C540 C541 1.349 . S
C540 C542 1.327 . S
C540 H565 0.950 . S
C541 C540 1.349 . S
C541 C557 1.349 . S
C542 C540 1.327 . S
C542 C561 1.429 . S
C542 H566 0.950 . S
C543 C560 1.567 1_565 S
C543 C562 1.392 . S
C543 H567 0.935 1_565 S
H544 C548 0.949 . S
C545 C546 1.364 . S
C545 C547 1.327 . S
C545 H568 0.950 1_655 S
C546 C545 1.364 . S
C546 C558 1.327 1_545 S
C547 C545 1.327 . S
C547 C563 1.429 1_545 S
C547 H569 0.950 . S
C548 H544 0.949 . S
C548 C556 1.574 . S
C548 C564 1.368 . S
H549 C557 0.950 . S
H550 C555 0.950 1_545 S
H551 C556 0.949 . S
H552 C558 0.950 . S
H553 C559 0.950 . S
H554 C560 0.949 . S
C555 H550 0.950 1_565 S
C555 C557 1.327 . S
C555 C561 1.429 . S
C556 C548 1.574 . S
C556 H551 0.949 . S
C556 C562 1.368 . S
C557 C541 1.349 . S
C557 H549 0.950 . S
C557 C555 1.327 . S
C558 C546 1.327 1_565 S
C558 H552 0.950 . S
C558 C559 1.327 . S
C559 H553 0.950 . S
C559 C558 1.327 . S
C559 C563 1.429 . S
C560 C543 1.567 1_545 S
C560 H554 0.949 . S
C560 C564 1.368 1_545 S
C561 C542 1.429 . S
C561 C555 1.429 . S
C561 C562 1.523 . S
C562 C543 1.392 . S
C562 C556 1.368 . S
C562 C561 1.523 . S
C563 C547 1.429 1_565 S
C563 C559 1.429 . S
C563 C564 1.523 . S
C564 C548 1.368 . S
C564 C560 1.368 1_565 S
C564 C563 1.523 . S
H565 C540 0.950 . S
H566 C542 0.950 . S
H567 C543 0.935 1_545 S
H568 C545 0.950 1_455 S
H569 C547 0.950 . S
C570 C571 1.349 . S
C570 C572 1.327 . S
C570 H595 0.950 . S
C571 C570 1.349 . S
C571 C587 1.349 . S
C572 C570 1.327 . S
C572 C591 1.429 . S
C572 H596 0.950 . S
C573 C590 1.574 . S
C573 C592 1.368 . S
C573 H597 0.949 . S
H574 C578 0.949 . S
C575 C576 1.349 . S
C575 C577 1.327 . S
C575 H598 0.950 . S
C576 C575 1.349 . S
C576 C588 1.349 . S
C577 C575 1.327 . S
C577 C593 1.429 . S
C577 H599 0.950 . S
C578 H574 0.949 . S
C578 C586 1.574 . S
C578 C594 1.368 . S
H579 C587 0.950 . S
H580 C585 0.950 . S
H581 C586 0.949 . S
H582 C588 0.950 . S
H583 C589 0.950 . S
H584 C590 0.949 . S
C585 H580 0.950 . S
C585 C587 1.327 . S
C585 C591 1.429 . S
C586 C578 1.574 . S
C586 H581 0.949 . S
C586 C592 1.368 . S
C587 C571 1.349 . S
C587 H579 0.950 . S
C587 C585 1.327 . S
C588 C576 1.349 . S
C588 H582 0.950 . S
C588 C589 1.327 . S
C589 H583 0.950 . S
C589 C588 1.327 . S
C589 C593 1.429 . S
C590 C573 1.574 . S
C590 H584 0.949 . S
C590 C594 1.368 . S
C591 C572 1.429 . S
C591 C585 1.429 . S
C591 C592 1.523 . S
C592 C573 1.368 . S
C592 C586 1.368 . S
C592 C591 1.523 . S
C593 C577 1.429 . S
C593 C589 1.429 . S
C593 C594 1.523 . S
C594 C578 1.368 . S
C594 C590 1.368 . S
C594 C593 1.523 . S
H595 C570 0.950 . S
H596 C572 0.950 . S
H597 C573 0.949 . S
H598 C575 0.950 . S
H599 C577 0.950 . S
C600 C601 1.349 . S
C600 C602 1.327 . S
C600 H625 0.950 . S
C601 C600 1.349 . S
C601 C617 1.349 . S
C602 C600 1.327 . S
C602 C621 1.429 . S
C602 H626 0.950 . S
C603 C620 1.574 . S
C603 C622 1.368 . S
C603 H627 0.949 . S
H604 C608 0.949 . S
C605 C606 1.349 . S
C605 C607 1.327 . S
C605 H628 0.950 . S
C606 C605 1.349 . S
C606 C618 1.349 . S
C607 C605 1.327 . S
C607 C623 1.429 . S
C607 H629 0.950 . S
C608 H604 0.949 . S
C608 C616 1.574 . S
C608 C624 1.368 . S
H609 C617 0.950 . S
H610 C615 0.950 . S
H611 C616 0.949 . S
H612 C618 0.950 . S
H613 C619 0.950 . S
H614 C620 0.949 . S
C615 H610 0.950 . S
C615 C617 1.327 . S
C615 C621 1.429 . S
C616 C608 1.574 . S
C616 H611 0.949 . S
C616 C622 1.368 . S
C617 C601 1.349 . S
C617 H609 0.950 . S
C617 C615 1.327 . S
C618 C606 1.349 . S
C618 H612 0.950 . S
C618 C619 1.327 . S
C619 H613 0.950 . S
C619 C618 1.327 . S
C619 C623 1.429 . S
C620 C603 1.574 . S
C620 H614 0.949 . S
C620 C624 1.368 . S
C621 C602 1.429 . S
C621 C615 1.429 . S
C621 C622 1.523 . S
C622 C603 1.368 . S
C622 C616 1.368 . S
C622 C621 1.523 . S
C623 C607 1.429 . S
C623 C619 1.429 . S
C623 C624 1.523 . S
C624 C608 1.368 . S
C624 C620 1.368 . S
C624 C623 1.523 . S
H625 C600 0.950 . S
H626 C602 0.950 . S
H627 C603 0.949 . S
H628 C605 0.950 . S
H629 C607 0.950 . S
C630 C631 1.349 . S
C630 C632 1.327 . S
C630 H655 0.950 . S
C631 C630 1.349 . S
C631 C647 1.349 . S
C632 C630 1.327 . S
C632 C651 1.429 . S
C632 H656 0.950 . S
C633 C650 1.574 . S
C633 C652 1.368 . S
C633 H657 0.949 . S
H634 C638 0.949 . S
C635 C636 1.349 . S
C635 C637 1.327 . S
C635 H658 0.950 . S
C636 C635 1.349 . S
C636 C648 1.349 . S
C637 C635 1.327 . S
C637 C653 1.429 . S
C637 H659 0.950 . S
C638 H634 0.949 . S
C638 C646 1.574 . S
C638 C654 1.368 . S
H639 C647 0.950 . S
H640 C645 0.950 . S
H641 C646 0.949 . S
H642 C648 0.950 . S
H643 C649 0.950 . S
H644 C650 0.949 . S
C645 H640 0.950 . S
C645 C647 1.327 . S
C645 C651 1.429 . S
C646 C638 1.574 . S
C646 H641 0.949 . S
C646 C652 1.368 . S
C647 C631 1.349 . S
C647 H639 0.950 . S
C647 C645 1.327 . S
C648 C636 1.349 . S
C648 H642 0.950 . S
C648 C649 1.327 . S
C649 H643 0.950 . S
C649 C648 1.327 . S
C649 C653 1.429 . S
C650 C633 1.574 . S
C650 H644 0.949 . S
C650 C654 1.368 . S
C651 C632 1.429 . S
C651 C645 1.429 . S
C651 C652 1.523 . S
C652 C633 1.368 . S
C652 C646 1.368 . S
C652 C651 1.523 . S
C653 C637 1.429 . S
C653 C649 1.429 . S
C653 C654 1.523 . S
C654 C638 1.368 . S
C654 C650 1.368 . S
C654 C653 1.523 . S
H655 C630 0.950 . S
H656 C632 0.950 . S
H657 C633 0.949 . S
H658 C635 0.950 . S
H659 C637 0.950 . S
C660 C661 1.349 . S
C660 C662 1.327 . S
C660 H685 0.950 . S
C661 C660 1.349 . S
C661 C677 1.349 1_556 S
C662 C660 1.327 . S
C662 C681 1.429 . S
C662 H686 0.950 . S
C663 C680 1.574 . S
C663 C682 1.368 1_545 S
C663 H687 0.949 . S
H664 C668 0.949 . S
C665 C666 1.349 . S
C665 C667 1.327 . S
C665 H688 0.950 . S
C666 C665 1.349 . S
C666 C678 1.349 . S
C667 C665 1.327 . S
C667 C683 1.429 . S
C667 H689 0.950 . S
C668 H664 0.949 . S
C668 C676 1.574 . S
C668 C684 1.368 1_566 S
H669 C677 0.950 . S
H670 C675 0.950 1_545 S
H671 C676 0.949 . S
H672 C678 0.950 1_566 S
H673 C679 0.967 1_556 S
H674 C680 0.949 . S
C675 H670 0.950 1_565 S
C675 C677 1.327 . S
C675 C681 1.429 1_554 S
C676 C668 1.574 . S
C676 H671 0.949 . S
C676 C682 1.368 1_556 S
C677 C661 1.349 1_554 S
C677 H669 0.950 . S
C677 C675 1.327 . S
C678 C666 1.349 . S
C678 H672 0.950 1_544 S
C678 C679 1.318 1_545 S
C679 H673 0.967 1_554 S
C679 C678 1.318 1_565 S
C679 C683 1.422 1_565 S
C680 C663 1.574 . S
C680 H674 0.949 . S
C680 C684 1.368 . S
C681 C662 1.429 . S
C681 C675 1.429 1_556 S
C681 C682 1.523 1_556 S
C682 C663 1.368 1_565 S
C682 C676 1.368 1_554 S
C682 C681 1.523 1_554 S
C683 C667 1.429 . S
C683 C679 1.422 1_545 S
C683 C684 1.523 . S
C684 C668 1.368 1_544 S
C684 C680 1.368 . S
C684 C683 1.523 . S
H685 C660 0.950 . S
H686 C662 0.950 . S
H687 C663 0.949 . S
H688 C665 0.950 . S
H689 C667 0.950 . S
C690 C691 1.349 . S
C690 C692 1.327 . S
C690 H715 0.950 . S
C691 C690 1.349 . S
C691 C707 1.349 . S
C692 C690 1.327 . S
C692 C711 1.429 . S
C692 H716 0.950 . S
C693 C710 1.574 . S
C693 C712 1.368 . S
C693 H717 0.949 . S
H694 C698 0.949 . S
C695 C696 1.349 . S
C695 C697 1.327 . S
C695 H718 0.950 1_545 S
C696 C695 1.349 . S
C696 C708 1.349 . S
C697 C695 1.327 . S
C697 C713 1.429 . S
C697 H719 0.950 1_545 S
C698 H694 0.949 . S
C698 C706 1.574 . S
C698 C714 1.368 . S
H699 C707 0.950 . S
H700 C705 0.950 . S
H701 C706 0.949 . S
H702 C708 0.950 . S
H703 C709 0.950 . S
H704 C710 0.964 . S
C705 H700 0.950 . S
C705 C707 1.327 . S
C705 C711 1.429 . S
C706 C698 1.574 . S
C706 H701 0.949 . S
C706 C712 1.368 . S
C707 C691 1.349 . S
C707 H699 0.950 . S
C707 C705 1.327 . S
C708 C696 1.349 . S
C708 H702 0.950 . S
C708 C709 1.327 . S
C709 H703 0.950 . S
C709 C708 1.327 . S
C709 C713 1.429 . S
C710 C693 1.574 . S
C710 H704 0.964 . S
C710 C714 1.368 . S
C711 C692 1.429 . S
C711 C705 1.429 . S
C711 C712 1.523 . S
C712 C693 1.368 . S
C712 C706 1.368 . S
C712 C711 1.523 . S
C713 C697 1.429 . S
C713 C709 1.429 . S
C713 C714 1.523 . S
C714 C698 1.368 . S
C714 C710 1.368 . S
C714 C713 1.523 . S
H715 C690 0.950 . S
H716 C692 0.950 . S
H717 C693 0.949 . S
H718 C695 0.950 1_565 S
H719 C697 0.950 1_565 S
C720 C721 1.349 . S
C720 C722 1.327 . S
C720 H745 0.950 . S
C721 C720 1.349 . S
C721 C737 1.349 . S
C722 C720 1.327 . S
C722 C741 1.429 . S
C722 H746 0.950 . S
C723 C740 1.574 . S
C723 C742 1.368 . S
C723 H747 0.949 . S
H724 C728 0.949 . S
C725 C726 1.349 . S
C725 C727 1.327 . S
C725 H748 0.950 1_554 S
C726 C725 1.349 . S
C726 C738 1.349 . S
C727 C725 1.327 . S
C727 C743 1.429 . S
C727 H749 0.950 1_554 S
C728 H724 0.949 . S
C728 C736 1.574 . S
C728 C744 1.368 . S
H729 C737 0.950 . S
H730 C735 0.950 . S
H731 C736 0.949 . S
H732 C738 0.950 . S
H733 C739 0.950 . S
H734 C740 0.949 . S
C735 H730 0.950 . S
C735 C737 1.327 . S
C735 C741 1.429 . S
C736 C728 1.574 . S
C736 H731 0.949 . S
C736 C742 1.368 . S
C737 C721 1.349 . S
C737 H729 0.950 . S
C737 C735 1.327 . S
C738 C726 1.349 . S
C738 H732 0.950 . S
C738 C739 1.327 . S
C739 H733 0.950 . S
C739 C738 1.327 . S
C739 C743 1.429 . S
C740 C723 1.574 . S
C740 H734 0.949 . S
C740 C744 1.368 . S
C741 C722 1.429 . S
C741 C735 1.429 . S
C741 C742 1.523 . S
C742 C723 1.368 . S
C742 C736 1.368 . S
C742 C741 1.523 . S
C743 C727 1.429 . S
C743 C739 1.429 . S
C743 C744 1.523 . S
C744 C728 1.368 . S
C744 C740 1.368 . S
C744 C743 1.523 . S
H745 C720 0.950 . S
H746 C722 0.950 . S
H747 C723 0.949 . S
H748 C725 0.950 1_556 S
H749 C727 0.950 1_556 S
C750 C751 1.349 . S
C750 C752 1.327 . S
C750 H775 0.950 . S
C751 C750 1.349 . S
C751 C767 1.349 . S
C752 C750 1.327 . S
C752 C771 1.429 . S
C752 H776 0.950 . S
C753 C770 1.574 . S
C753 C772 1.368 . S
C753 H777 0.949 . S
H754 C758 0.949 . S
C755 C756 1.349 . S
C755 C757 1.327 . S
C755 H778 0.950 . S
C756 C755 1.349 . S
C756 C768 1.349 . S
C757 C755 1.327 . S
C757 C773 1.429 . S
C757 H779 0.950 . S
C758 H754 0.949 . S
C758 C766 1.574 . S
C758 C774 1.368 . S
H759 C767 0.950 . S
H760 C765 0.950 . S
H761 C766 0.949 . S
H762 C768 0.950 . S
H763 C769 0.950 . S
H764 C770 0.949 . S
C765 H760 0.950 . S
C765 C767 1.327 . S
C765 C771 1.429 . S
C766 C758 1.574 . S
C766 H761 0.949 . S
C766 C772 1.368 . S
C767 C751 1.349 . S
C767 H759 0.950 . S
C767 C765 1.327 . S
C768 C756 1.349 . S
C768 H762 0.950 . S
C768 C769 1.327 . S
C769 H763 0.950 . S
C769 C768 1.327 . S
C769 C773 1.429 . S
C770 C753 1.574 . S
C770 H764 0.949 . S
C770 C774 1.368 . S
C771 C752 1.429 . S
C771 C765 1.429 . S
C771 C772 1.523 . S
C772 C753 1.368 . S
C772 C766 1.368 . S
C772 C771 1.523 . S
C773 C757 1.429 . S
C773 C769 1.429 . S
C773 C774 1.523 . S
C774 C758 1.368 . S
C774 C770 1.368 . S
C774 C773 1.523 . S
H775 C750 0.950 . S
H776 C752 0.950 . S
H777 C753 0.949 . S
H778 C755 0.950 . S
H779 C757 0.950 . S
C780 C781 1.349 1_554 S
C780 C782 1.327 . S
C780 H805 0.950 . S
C781 C780 1.349 1_556 S
C781 C797 1.349 . S
C782 C780 1.327 . S
C782 C801 1.429 1_554 S
C782 H806 0.950 . S
C783 C800 1.574 . S
C783 C802 1.368 . S
C783 H807 0.949 . S
H784 C788 0.949 . S
C785 C786 1.353 . S
C785 C787 1.327 . S
C785 H808 0.950 . S
C786 C785 1.353 . S
C786 C798 1.342 1_456 S
C787 C785 1.327 . S
C787 C803 1.429 1_455 S
C787 H809 0.950 . S
C788 H784 0.949 . S
C788 C796 1.574 . S
C788 C804 1.368 1_554 S
H789 C797 0.950 . S
H790 C795 0.950 . S
H791 C796 0.949 . S
H792 C798 0.950 . S
H793 C799 0.950 . S
H794 C800 0.949 1_455 S
C795 H790 0.950 . S
C795 C797 1.327 . S
C795 C801 1.429 . S
C796 C788 1.574 . S
C796 H791 0.949 . S
C796 C802 1.368 1_554 S
C797 C781 1.349 . S
C797 H789 0.950 . S
C797 C795 1.327 . S
C798 C786 1.342 1_654 S
C798 H792 0.950 . S
C798 C799 1.327 . S
C799 H793 0.950 . S
C799 C798 1.327 . S
C799 C803 1.429 1_554 S
C800 C783 1.574 . S
C800 H794 0.949 1_655 S
C800 C804 1.368 . S
C801 C782 1.429 1_556 S
C801 C795 1.429 . S
C801 C802 1.523 . S
C802 C783 1.368 . S
C802 C796 1.368 1_556 S
C802 C801 1.523 . S
C803 C787 1.429 1_655 S
C803 C799 1.429 1_556 S
C803 C804 1.523 . S
C804 C788 1.368 1_556 S
C804 C800 1.368 . S
C804 C803 1.523 . S
H805 C780 0.950 . S
H806 C782 0.950 . S
H807 C783 0.949 . S
H808 C785 0.950 . S
H809 C787 0.950 . S
C810 C811 1.349 . S
C810 C812 1.327 . S
C810 H835 0.950 . S
C811 C810 1.349 . S
C811 C827 1.349 . S
C812 C810 1.327 . S
C812 C831 1.429 . S
C812 H836 0.950 . S
C813 C830 1.574 . S
C813 C832 1.368 . S
C813 H837 0.949 . S
H814 C818 0.949 . S
C815 C816 1.349 . S
C815 C817 1.327 . S
C815 H838 0.950 . S
C816 C815 1.349 . S
C816 C828 1.349 . S
C817 C815 1.327 . S
C817 C833 1.429 . S
C817 H839 0.950 . S
C818 H814 0.949 . S
C818 C826 1.574 . S
C818 C834 1.368 . S
H819 C827 0.950 . S
H820 C825 0.950 . S
H821 C826 0.949 . S
H822 C828 0.950 . S
H823 C829 0.950 . S
H824 C830 0.949 . S
C825 H820 0.950 . S
C825 C827 1.327 . S
C825 C831 1.429 . S
C826 C818 1.574 . S
C826 H821 0.949 . S
C826 C832 1.368 . S
C827 C811 1.349 . S
C827 H819 0.950 . S
C827 C825 1.327 . S
C828 C816 1.349 . S
C828 H822 0.950 . S
C828 C829 1.327 . S
C829 H823 0.950 . S
C829 C828 1.327 . S
C829 C833 1.429 . S
C830 C813 1.574 . S
C830 H824 0.949 . S
C830 C834 1.368 . S
C831 C812 1.429 . S
C831 C825 1.429 . S
C831 C832 1.523 . S
C832 C813 1.368 . S
C832 C826 1.368 . S
C832 C831 1.523 . S
C833 C817 1.429 . S
C833 C829 1.429 . S
C833 C834 1.523 . S
C834 C818 1.368 . S
C834 C830 1.368 . S
C834 C833 1.523 . S
H835 C810 0.950 . S
H836 C812 0.950 . S
H837 C813 0.949 . S
H838 C815 0.950 . S
H839 C817 0.950 . S
C840 C841 1.349 . S
C840 C842 1.327 . S
C840 H865 0.950 . S
C841 C840 1.349 . S
C841 C857 1.349 . S
C842 C840 1.327 . S
C842 C861 1.429 . S
C842 H866 0.950 . S
C843 C860 1.574 . S
C843 C862 1.368 . S
C843 H867 0.949 . S
H844 C848 0.949 . S
C845 C846 1.349 . S
C845 C847 1.327 . S
C845 H868 0.950 . S
C846 C845 1.349 . S
C846 C858 1.349 . S
C847 C845 1.327 . S
C847 C863 1.429 . S
C847 H869 0.950 . S
C848 H844 0.949 . S
C848 C856 1.574 . S
C848 C864 1.368 . S
H849 C857 0.950 . S
H850 C855 0.950 . S
H851 C856 0.949 . S
H852 C858 0.950 . S
H853 C859 0.950 . S
H854 C860 0.949 . S
C855 H850 0.950 . S
C855 C857 1.327 . S
C855 C861 1.429 . S
C856 C848 1.574 . S
C856 H851 0.949 . S
C856 C862 1.368 . S
C857 C841 1.349 . S
C857 H849 0.950 . S
C857 C855 1.327 . S
C858 C846 1.349 . S
C858 H852 0.950 . S
C858 C859 1.327 . S
C859 H853 0.950 . S
C859 C858 1.327 . S
C859 C863 1.429 . S
C860 C843 1.574 . S
C860 H854 0.949 . S
C860 C864 1.368 . S
C861 C842 1.429 . S
C861 C855 1.429 . S
C861 C862 1.523 . S
C862 C843 1.368 . S
C862 C856 1.368 . S
C862 C861 1.523 . S
C863 C847 1.429 . S
C863 C859 1.429 . S
C863 C864 1.523 . S
C864 C848 1.368 . S
C864 C860 1.368 . S
C864 C863 1.523 . S
H865 C840 0.950 . S
H866 C842 0.950 . S
H867 C843 0.949 . S
H868 C845 0.950 . S
H869 C847 0.950 . S
C870 C871 1.349 . S
C870 C872 1.327 . S
C870 H895 0.950 . S
C871 C870 1.349 . S
C871 C887 1.349 . S
C872 C870 1.327 . S
C872 C891 1.429 . S
C872 H896 0.950 . S
C873 C890 1.574 . S
C873 C892 1.368 . S
C873 H897 0.949 . S
H874 C878 0.949 . S
C875 C876 1.349 . S
C875 C877 1.327 . S
C875 H898 0.950 . S
C876 C875 1.349 . S
C876 C888 1.349 . S
C877 C875 1.327 . S
C877 C893 1.429 . S
C877 H899 0.950 . S
C878 H874 0.949 . S
C878 C886 1.574 . S
C878 C894 1.368 . S
H879 C887 0.950 . S
H880 C885 0.950 . S
H881 C886 0.949 . S
H882 C888 0.950 . S
H883 C889 0.950 . S
H884 C890 0.949 . S
C885 H880 0.950 . S
C885 C887 1.327 . S
C885 C891 1.429 . S
C886 C878 1.574 . S
C886 H881 0.949 . S
C886 C892 1.368 . S
C887 C871 1.349 . S
C887 H879 0.950 . S
C887 C885 1.327 . S
C888 C876 1.349 . S
C888 H882 0.950 . S
C888 C889 1.327 . S
C889 H883 0.950 . S
C889 C888 1.327 . S
C889 C893 1.429 . S
C890 C873 1.574 . S
C890 H884 0.949 . S
C890 C894 1.368 . S
C891 C872 1.429 . S
C891 C885 1.429 . S
C891 C892 1.523 . S
C892 C873 1.368 . S
C892 C886 1.368 . S
C892 C891 1.523 . S
C893 C877 1.429 . S
C893 C889 1.429 . S
C893 C894 1.523 . S
C894 C878 1.368 . S
C894 C890 1.368 . S
C894 C893 1.523 . S
H895 C870 0.950 . S
H896 C872 0.950 . S
H897 C873 0.949 . S
H898 C875 0.950 . S
H899 C877 0.950 . S
C181 C5 1.789 . S
C186 C106 1.916 . S
C211 C18 1.634 . S
C216 C130 1.684 1_565 S
C246 C150 1.190 . S
C241 C30 1.161 . S
C271 C41 1.098 . S
C276 C173 1.099 1_655 S
C306 C132 2.006 . S
C301 C7 1.989 . S
C336 C108 1.940 . S
C331 C16 1.717 . S
C366 C176 1.641 . S
C361 C29 1.582 . S
C396 C153 1.081 . S
C391 C38 1.056 . S
C421 C8 1.530 . S
C426 C178 1.509 . S
C456 C127 1.804 . S
C451 C27 1.510 . S
C481 C40 1.622 . S
C486 C105 1.644 . S
C511 C19 1.025 . S
C516 C155 1.017 . S
C546 C109 1.681 . S
C541 C51 1.652 . S
C571 C62 1.656 . S
C576 C131 1.754 . S
C601 C74 1.605 . S
C606 C151 1.664 . S
C631 C84 1.495 . S
C636 C174 1.623 . S
C661 C49 1.880 . S
C666 C129 1.921 . S
C696 C107 1.465 . S
C691 C63 1.433 . S
C726 C177 1.343 . S
C721 C71 1.111 . S
C756 C154 1.091 . S
C751 C85 1.083 . S
C781 C52 1.938 . S
C786 C175 1.913 . S
C816 C128 1.838 . S
C811 C73 1.702 . S
C846 C104 1.335 . S
C841 C82 1.044 . S
C871 C60 1.593 . S
C876 C152 1.933 . S
