# Generated by pormake.
# Topology myd, (4,6)-cn, num edge types: 1
# Building blocks:
#     Node 0, Type 0, BuildingBlock: KOZSID_clean_sbu_0, # of connection points: 4
#     Node 1, Type 0, BuildingBlock: KOZSID_clean_sbu_0, # of connection points: 4
#     Node 2, Type 0, BuildingBlock: KOZSID_clean_sbu_0, # of connection points: 4
#     Node 3, Type 0, BuildingBlock: KOZSID_clean_sbu_0, # of connection points: 4
#     Node 4, Type 0, BuildingBlock: KOZSID_clean_sbu_0, # of connection points: 4
#     Node 5, Type 0, BuildingBlock: KOZSID_clean_sbu_0, # of connection points: 4
#     Node 6, Type 0, BuildingBlock: KOZSID_clean_sbu_0, # of connection points: 4
#     Node 7, Type 0, BuildingBlock: KOZSID_clean_sbu_0, # of connection points: 4
#     Node 8, Type 0, BuildingBlock: KOZSID_clean_sbu_0, # of connection points: 4
#     Node 9, Type 0, BuildingBlock: KOZSID_clean_sbu_0, # of connection points: 4
#     Node 10, Type 0, BuildingBlock: KOZSID_clean_sbu_0, # of connection points: 4
#     Node 11, Type 0, BuildingBlock: KOZSID_clean_sbu_0, # of connection points: 4
#     Node 12, Type 1, BuildingBlock: MIDCAF_clean_sbu_0, # of connection points: 6
#     Node 13, Type 1, BuildingBlock: MIDCAF_clean_sbu_0, # of connection points: 6
#     Node 14, Type 1, BuildingBlock: MIDCAF_clean_sbu_0, # of connection points: 6
#     Node 15, Type 1, BuildingBlock: MIDCAF_clean_sbu_0, # of connection points: 6
#     Node 16, Type 1, BuildingBlock: MIDCAF_clean_sbu_0, # of connection points: 6
#     Node 17, Type 1, BuildingBlock: MIDCAF_clean_sbu_0, # of connection points: 6
#     Node 18, Type 1, BuildingBlock: MIDCAF_clean_sbu_0, # of connection points: 6
#     Node 19, Type 1, BuildingBlock: MIDCAF_clean_sbu_0, # of connection points: 6
#     Edge 20, Type (0, 1), BuildingBlock: CIFDUS_clean_linker_0, # of connection points: 2
#     Edge 21, Type (0, 1), BuildingBlock: CIFDUS_clean_linker_0, # of connection points: 2
#     Edge 22, Type (0, 1), BuildingBlock: CIFDUS_clean_linker_0, # of connection points: 2
#     Edge 23, Type (0, 1), BuildingBlock: CIFDUS_clean_linker_0, # of connection points: 2
#     Edge 24, Type (0, 1), BuildingBlock: CIFDUS_clean_linker_0, # of connection points: 2
#     Edge 25, Type (0, 1), BuildingBlock: CIFDUS_clean_linker_0, # of connection points: 2
#     Edge 26, Type (0, 1), BuildingBlock: CIFDUS_clean_linker_0, # of connection points: 2
#     Edge 27, Type (0, 1), BuildingBlock: CIFDUS_clean_linker_0, # of connection points: 2
#     Edge 28, Type (0, 1), BuildingBlock: CIFDUS_clean_linker_0, # of connection points: 2
#     Edge 29, Type (0, 1), BuildingBlock: CIFDUS_clean_linker_0, # of connection points: 2
#     Edge 30, Type (0, 1), BuildingBlock: CIFDUS_clean_linker_0, # of connection points: 2
#     Edge 31, Type (0, 1), BuildingBlock: CIFDUS_clean_linker_0, # of connection points: 2
#     Edge 32, Type (0, 1), BuildingBlock: CIFDUS_clean_linker_0, # of connection points: 2
#     Edge 33, Type (0, 1), BuildingBlock: CIFDUS_clean_linker_0, # of connection points: 2
#     Edge 34, Type (0, 1), BuildingBlock: CIFDUS_clean_linker_0, # of connection points: 2
#     Edge 35, Type (0, 1), BuildingBlock: CIFDUS_clean_linker_0, # of connection points: 2
#     Edge 36, Type (0, 1), BuildingBlock: CIFDUS_clean_linker_0, # of connection points: 2
#     Edge 37, Type (0, 1), BuildingBlock: CIFDUS_clean_linker_0, # of connection points: 2
#     Edge 38, Type (0, 1), BuildingBlock: CIFDUS_clean_linker_0, # of connection points: 2
#     Edge 39, Type (0, 1), BuildingBlock: CIFDUS_clean_linker_0, # of connection points: 2
#     Edge 40, Type (0, 1), BuildingBlock: CIFDUS_clean_linker_0, # of connection points: 2
#     Edge 41, Type (0, 1), BuildingBlock: CIFDUS_clean_linker_0, # of connection points: 2
#     Edge 42, Type (0, 1), BuildingBlock: CIFDUS_clean_linker_0, # of connection points: 2
#     Edge 43, Type (0, 1), BuildingBlock: CIFDUS_clean_linker_0, # of connection points: 2
#     Edge 44, Type (0, 1), BuildingBlock: CIFDUS_clean_linker_0, # of connection points: 2
#     Edge 45, Type (0, 1), BuildingBlock: CIFDUS_clean_linker_0, # of connection points: 2
#     Edge 46, Type (0, 1), BuildingBlock: CIFDUS_clean_linker_0, # of connection points: 2
#     Edge 47, Type (0, 1), BuildingBlock: CIFDUS_clean_linker_0, # of connection points: 2
#     Edge 48, Type (0, 1), BuildingBlock: CIFDUS_clean_linker_0, # of connection points: 2
#     Edge 49, Type (0, 1), BuildingBlock: CIFDUS_clean_linker_0, # of connection points: 2
#     Edge 50, Type (0, 1), BuildingBlock: CIFDUS_clean_linker_0, # of connection points: 2
#     Edge 51, Type (0, 1), BuildingBlock: CIFDUS_clean_linker_0, # of connection points: 2
#     Edge 52, Type (0, 1), BuildingBlock: CIFDUS_clean_linker_0, # of connection points: 2
#     Edge 53, Type (0, 1), BuildingBlock: CIFDUS_clean_linker_0, # of connection points: 2
#     Edge 54, Type (0, 1), BuildingBlock: CIFDUS_clean_linker_0, # of connection points: 2
#     Edge 55, Type (0, 1), BuildingBlock: CIFDUS_clean_linker_0, # of connection points: 2
#     Edge 56, Type (0, 1), BuildingBlock: CIFDUS_clean_linker_0, # of connection points: 2
#     Edge 57, Type (0, 1), BuildingBlock: CIFDUS_clean_linker_0, # of connection points: 2
#     Edge 58, Type (0, 1), BuildingBlock: CIFDUS_clean_linker_0, # of connection points: 2
#     Edge 59, Type (0, 1), BuildingBlock: CIFDUS_clean_linker_0, # of connection points: 2
#     Edge 60, Type (0, 1), BuildingBlock: CIFDUS_clean_linker_0, # of connection points: 2
#     Edge 61, Type (0, 1), BuildingBlock: CIFDUS_clean_linker_0, # of connection points: 2
#     Edge 62, Type (0, 1), BuildingBlock: CIFDUS_clean_linker_0, # of connection points: 2
#     Edge 63, Type (0, 1), BuildingBlock: CIFDUS_clean_linker_0, # of connection points: 2
#     Edge 64, Type (0, 1), BuildingBlock: CIFDUS_clean_linker_0, # of connection points: 2
#     Edge 65, Type (0, 1), BuildingBlock: CIFDUS_clean_linker_0, # of connection points: 2
#     Edge 66, Type (0, 1), BuildingBlock: CIFDUS_clean_linker_0, # of connection points: 2
#     Edge 67, Type (0, 1), BuildingBlock: CIFDUS_clean_linker_0, # of connection points: 2
# Relax obj value: 0.148
# Max RMSD: 0.126
# Mean RMSD: 0.102
data_MOF--net-myd--node1-KOZSID_clean_sbu_0--node2-MIDCAF_clean_sbu_0--edge1-CIFDUS_clean_linker_0
_symmetry_space_group_name_H-M    P1
_symmetry_Int_Tables_number       1
_symmetry_cell_setting            triclinic
loop_
_symmetry_equiv_pos_as_xyz
'x, y, z'
_cell_length_a     44.730068
_cell_length_b     44.773499
_cell_length_c     44.676672
_cell_angle_alpha  91.886322
_cell_angle_beta   90.570824
_cell_angle_gamma 92.561619
loop_
_atom_site_label
_atom_site_type_symbol
_atom_site_fract_x
_atom_site_fract_y
_atom_site_fract_z
_atom_type_partial_charge
C0 C 0.97182 0.29625 0.33074 0.0
C1 C 0.94347 0.2997 0.34236 0.0
C2 C 0.92589 0.2757 0.3317 0.0
C3 C 0.94441 0.25893 0.31428 0.0
N4 N 0.97248 0.27094 0.31326 0.0
Co5 Co 0.00615 0.2538 0.29094 0.0
N6 N 0.9785 0.22861 0.2647 0.0
C7 C 0.94971 0.22123 0.27063 0.0
C8 C 0.93612 0.2032 0.24857 0.0
C9 C 0.95781 0.19875 0.22762 0.0
C10 C 0.98357 0.21429 0.23818 0.0
N11 N 0.03986 0.23673 0.26864 0.0
C12 C 0.03991 0.22183 0.24172 0.0
C13 C 0.0686 0.2135 0.23463 0.0
C14 C 0.08692 0.22336 0.25809 0.0
C15 C 0.06851 0.2371 0.27818 0.0
N16 N 0.03352 0.27902 0.3174 0.0
C17 C 0.06285 0.27493 0.32181 0.0
C18 C 0.07626 0.29648 0.34067 0.0
C19 C 0.05394 0.31512 0.3487 0.0
C20 C 0.02793 0.30378 0.33443 0.0
N21 N 0.00767 0.22103 0.31899 0.0
C22 C 0.01145 0.17333 0.35803 0.0
C23 C 0.01326 0.16857 0.32702 0.0
C24 C 0.01125 0.19251 0.30803 0.0
C25 C 0.00764 0.20266 0.36911 0.0
C26 C 0.00587 0.22617 0.34925 0.0
N27 N 0.0051 0.28586 0.26252 0.0
C28 C 0.03206 0.31802 0.22914 0.0
C29 C 0.00549 0.32354 0.21396 0.0
C30 C 0.97843 0.31153 0.22492 0.0
C31 C 0.97872 0.29272 0.24927 0.0
C32 C 0.03135 0.29934 0.25348 0.0
H33 H 0.9578 0.2826 0.25646 0.0
H34 H 0.05229 0.29468 0.26405 0.0
H35 H 0.01257 0.18775 0.28433 0.0
H36 H 0.00313 0.24851 0.35833 0.0
C37 C 0.93522 0.23526 0.29455 0.0
C38 C 0.99807 0.31591 0.33879 0.0
C39 C 0.01296 0.21256 0.22396 0.0
C40 C 0.0778 0.2545 0.30355 0.0
H41 H 0.93628 0.31756 0.35714 0.0
H42 H 0.90218 0.27165 0.33528 0.0
H43 H 0.91299 0.19501 0.24738 0.0
H44 H 0.95509 0.18526 0.20715 0.0
H45 H 0.07549 0.20123 0.21479 0.0
H46 H 0.11091 0.22151 0.25983 0.0
H47 H 0.09975 0.29923 0.34669 0.0
H48 H 0.05665 0.33487 0.36325 0.0
H49 H 0.01558 0.14633 0.31728 0.0
H50 H 0.00626 0.20749 0.39295 0.0
H51 H 0.05337 0.32738 0.22172 0.0
H52 H 0.95736 0.31531 0.21382 0.0
C53 C 0.97639 0.71323 0.15358 0.0
C54 C 0.94971 0.70634 0.13814 0.0
C55 C 0.92988 0.72705 0.14747 0.0
C56 C 0.94552 0.7454 0.16788 0.0
N57 N 0.97391 0.73754 0.17198 0.0
Co58 Co 0.00434 0.75846 0.1986 0.0
N59 N 0.9729 0.77788 0.22233 0.0
C60 C 0.94433 0.78087 0.21344 0.0
C61 C 0.92762 0.79556 0.23428 0.0
C62 C 0.94694 0.80268 0.25759 0.0
C63 C 0.97458 0.79195 0.24958 0.0
N64 N 0.03476 0.77929 0.22533 0.0
C65 C 0.03141 0.79353 0.25225 0.0
C66 C 0.0588 0.80533 0.26316 0.0
C67 C 0.07973 0.79874 0.24199 0.0
C68 C 0.06411 0.78324 0.21941 0.0
N69 N 0.03531 0.739 0.17426 0.0
C70 C 0.0645 0.74761 0.17338 0.0
C71 C 0.08069 0.72879 0.15562 0.0
C72 C 0.06038 0.70718 0.14461 0.0
C73 C 0.03271 0.71417 0.15605 0.0
N74 N 0.00648 0.7927 0.17227 0.0
C75 C 0.0227 0.84191 0.13675 0.0
C76 C 0.01634 0.81297 0.1239 0.0
C77 C 0.00878 0.7888 0.14198 0.0
C78 C 0.01822 0.84537 0.16781 0.0
C79 C 0.00951 0.82094 0.18473 0.0
N80 N 0.00345 0.72483 0.22548 0.0
C81 C 0.03134 0.69365 0.25743 0.0
C82 C 0.00503 0.68355 0.27088 0.0
C83 C 0.97761 0.69329 0.26038 0.0
C84 C 0.97728 0.71384 0.23734 0.0
C85 C 0.03008 0.71423 0.23487 0.0
H86 H 0.95607 0.72162 0.22984 0.0
H87 H 0.05098 0.72244 0.22597 0.0
H88 H 0.00583 0.76675 0.13155 0.0
H89 H 0.00681 0.82486 0.20839 0.0
C90 C 0.93304 0.76629 0.18733 0.0
C91 C 0.00417 0.69777 0.14851 0.0
C92 C 1.00249 0.79986 0.2661 0.0
C93 C 0.07657 0.76887 0.19442 0.0
H94 H 0.94507 0.68839 0.12171 0.0
H95 H 0.90654 0.72784 0.14106 0.0
H96 H 0.90409 0.80013 0.23294 0.0
H97 H 0.94146 0.81527 0.27773 0.0
H98 H 0.06304 0.81808 0.28389 0.0
H99 H 0.10355 0.80416 0.2432 0.0
H100 H 0.10468 0.72957 0.15251 0.0
H101 H 0.06556 0.68827 0.1302 0.0
H102 H 0.01755 0.80825 0.10013 0.0
H103 H 0.02218 0.86637 0.17996 0.0
H104 H 0.05287 0.68646 0.26503 0.0
H105 H 0.95679 0.68563 0.27035 0.0
C106 C 0.34412 0.96303 0.29731 0.0
C107 C 0.34948 0.93336 0.30284 0.0
C108 C 0.33697 0.91656 0.27962 0.0
C109 C 0.32434 0.93669 0.2615 0.0
N110 N 0.32865 0.9655 0.27127 0.0
Co111 Co 0.31022 1.00144 0.2542 0.0
N112 N 0.2859 0.97577 0.22458 0.0
C113 C 0.28751 0.94596 0.21944 0.0
C114 C 0.26828 0.93451 0.19748 0.0
C115 C 0.25338 0.95842 0.18806 0.0
C116 C 0.26441 0.98315 0.205 0.0
N117 N 0.291 0.03724 0.23801 0.0
C118 C 0.26855 0.03875 0.21757 0.0
C119 C 0.26091 0.06808 0.21358 0.0
C120 C 0.27917 0.0857 0.2322 0.0
C121 C 0.29676 0.06622 0.24657 0.0
N122 N 0.3349 0.02683 0.28372 0.0
C123 C 0.33744 0.05706 0.28548 0.0
C124 C 0.35513 0.068 0.30897 0.0
C125 C 0.36379 0.04332 0.32343 0.0
C126 C 0.35068 0.01864 0.30799 0.0
N127 N 0.34272 0.00553 0.22382 0.0
C128 C 0.3824 0.01243 0.17523 0.0
C129 C 0.37257 0.03718 0.19137 0.0
C130 C 0.35331 0.03325 0.21547 0.0
C131 C 0.37314 0.98403 0.18467 0.0
C132 C 0.35355 0.98112 0.20883 0.0
N133 N 0.27777 0.99801 0.28375 0.0
C134 C 0.24689 0.02142 0.32097 0.0
C135 C 0.2305 0.99469 0.32437 0.0
C136 C 0.23809 0.96942 0.30745 0.0
C137 C 0.26181 0.97154 0.28731 0.0
C138 C 0.27028 0.0226 0.30067 0.0
H139 H 0.26701 0.95166 0.27483 0.0
H140 H 0.28202 0.04369 0.29904 0.0
H141 H 0.34723 0.05322 0.22662 0.0
H142 H 0.34727 0.95889 0.21458 0.0
C143 C 0.30534 0.92893 0.23732 0.0
C144 C 0.35239 0.988 0.31814 0.0
C145 C 0.25376 0.0131 0.20159 0.0
C146 C 0.31879 0.07431 0.26828 0.0
H147 H 0.36011 0.92434 0.32216 0.0
H148 H 0.33566 0.8924 0.27719 0.0
H149 H 0.26498 0.91142 0.18976 0.0
H150 H 0.23613 0.95767 0.17085 0.0
H151 H 0.24379 0.07589 0.19883 0.0
H152 H 0.27941 0.10981 0.23511 0.0
H153 H 0.35962 0.09117 0.31591 0.0
H154 H 0.3772 0.04348 0.34374 0.0
H155 H 0.37987 0.05964 0.1856 0.0
H156 H 0.3804 0.96405 0.17307 0.0
H157 H 0.24177 0.04131 0.33408 0.0
H158 H 0.22595 0.94818 0.30995 0.0
C159 C 0.66779 0.47809 0.22874 0.0
C160 C 0.65075 0.45195 0.22219 0.0
C161 C 0.65965 0.43121 0.24201 0.0
C162 C 0.68143 0.44581 0.25959 0.0
N163 N 0.68668 0.47437 0.25197 0.0
Co164 Co 0.71579 0.50341 0.27151 0.0
N165 N 0.73898 0.47093 0.28792 0.0
C166 C 0.72909 0.44238 0.29099 0.0
C167 C 0.75094 0.42467 0.30138 0.0
C168 C 0.77596 0.44335 0.30526 0.0
C169 C 0.76782 0.47167 0.29742 0.0
N170 N 0.74451 0.53239 0.29152 0.0
C171 C 0.77236 0.52814 0.30203 0.0
C172 C 0.78455 0.55432 0.31564 0.0
C173 C 0.76344 0.57555 0.31319 0.0
C174 C 0.73952 0.56119 0.29848 0.0
N175 N 0.69268 0.5356 0.25453 0.0
C176 C 0.69346 0.56436 0.26431 0.0
C177 C 0.67618 0.5817 0.24688 0.0
C178 C 0.66377 0.56254 0.22499 0.0
C179 C 0.67392 0.53434 0.23046 0.0
N180 N 0.69145 0.50452 0.30776 0.0
C181 C 0.66056 0.51766 0.36077 0.0
C182 C 0.64618 0.51794 0.33261 0.0
C183 C 0.66185 0.51083 0.30648 0.0
C184 C 0.6902 0.50874 0.36159 0.0
C185 C 0.7052 0.50262 0.33506 0.0
N186 N 0.74069 0.50327 0.23595 0.0
C187 C 0.77424 0.53058 0.20398 0.0
C188 C 0.78168 0.504 0.1894 0.0
C189 C 0.76756 0.47703 0.19776 0.0
C190 C 0.74723 0.47711 0.22135 0.0
C191 C 0.75337 0.52979 0.22685 0.0
H192 H 0.73732 0.45607 0.22826 0.0
H193 H 0.7481 0.55069 0.2377 0.0
H194 H 0.65041 0.51176 0.28517 0.0
H195 H 0.72846 0.49757 0.33677 0.0
C196 C 0.7015 0.4321 0.27849 0.0
C197 C 0.66439 0.50645 0.21378 0.0
C198 C 0.78685 0.49923 0.30097 0.0
C199 C 0.71496 0.57493 0.28577 0.0
H200 H 0.63379 0.44821 0.20487 0.0
H201 H 0.65223 0.40789 0.24247 0.0
H202 H 0.74939 0.40075 0.30428 0.0
H203 H 0.79761 0.43663 0.31281 0.0
H204 H 0.80635 0.55773 0.32624 0.0
H205 H 0.76583 0.59892 0.32017 0.0
H206 H 0.67409 0.60568 0.24881 0.0
H207 H 0.64918 0.56881 0.20704 0.0
H208 H 0.62332 0.52456 0.33045 0.0
H209 H 0.70215 0.50689 0.38258 0.0
H210 H 0.78452 0.55182 0.19774 0.0
H211 H 0.77285 0.45604 0.18672 0.0
C212 C 0.31695 0.3562 0.9747 0.0
C213 C 0.3234 0.37111 0.94863 0.0
C214 C 0.30003 0.36416 0.92903 0.0
C215 C 0.28069 0.34548 0.94419 0.0
N216 N 0.29058 0.34041 0.97199 0.0
Co217 Co 0.27036 0.31486 1.00142 0.0
N218 N 0.24704 0.2925 0.96951 0.0
C219 C 0.24183 0.3018 0.94168 0.0
C220 C 0.2266 0.28036 0.92407 0.0
C221 C 0.22194 0.25631 0.94206 0.0
C222 C 0.23424 0.26461 0.96994 0.0
N223 N 0.25007 0.28953 0.03081 0.0
C224 C 0.2363 0.26229 0.02637 0.0
C225 C 0.22467 0.25202 0.05303 0.0
C226 C 0.23181 0.27379 0.07475 0.0
C227 C 0.24721 0.29616 0.06019 0.0
N228 N 0.2938 0.33735 0.03304 0.0
C229 C 0.28694 0.33936 0.06224 0.0
C230 C 0.3082 0.35615 0.07867 0.0
C231 C 0.32952 0.36513 0.05838 0.0
C232 C 0.32006 0.35325 0.03065 0.0
N233 N 0.2382 0.343 0.00539 0.0
C234 C 0.19099 0.38151 0.01492 0.0
C235 C 0.22099 0.39253 0.01522 0.0
C236 C 0.24418 0.37299 0.0101 0.0
C237 C 0.18544 0.35079 0.00929 0.0
C238 C 0.20915 0.33206 0.00492 0.0
N239 N 0.30166 0.28605 0.99805 0.0
C240 C 0.32852 0.24785 0.02193 0.0
C241 C 0.33335 0.23391 0.99407 0.0
C242 C 0.3246 0.24817 0.96813 0.0
C243 C 0.30913 0.2745 0.97061 0.0
C244 C 0.31263 0.27395 0.02343 0.0
H245 H 0.3014 0.28438 0.95041 0.0
H246 H 0.30736 0.28307 0.04527 0.0
H247 H 0.26698 0.38203 0.01039 0.0
H248 H 0.20382 0.30849 1.00141 0.0
C249 C 0.25722 0.32739 0.93129 0.0
C250 C 0.33529 0.35834 1.00213 0.0
C251 C 0.23272 0.24668 0.99692 0.0
C252 C 0.26424 0.32028 0.07374 0.0
H253 H 0.34298 0.38529 0.9442 0.0
H254 H 0.29826 0.37061 0.90597 0.0
H255 H 0.22124 0.28128 0.90045 0.0
H256 H 0.2112 0.23511 0.93502 0.0
H257 H 0.21242 0.23103 0.05643 0.0
H258 H 0.22751 0.27273 0.0985 0.0
H259 H 0.30898 0.36011 0.1027 0.0
H260 H 0.34971 0.37866 0.06341 0.0
H261 H 0.22669 0.416 0.01974 0.0
H262 H 0.16286 0.34105 0.00792 0.0
H263 H 0.33515 0.23762 0.04247 0.0
H264 H 0.32862 0.23837 0.94612 0.0
C265 C 0.2159 0.65516 0.46279 0.0
C266 C 0.21195 0.63969 0.43546 0.0
C267 C 0.23548 0.64848 0.41785 0.0
C268 C 0.25232 0.66898 0.43512 0.0
N269 N 0.24085 0.67336 0.46254 0.0
Co270 Co 0.25628 0.70254 0.49375 0.0
N271 N 0.27765 0.72685 0.46374 0.0
C272 C 0.28431 0.7177 0.43568 0.0
C273 C 0.29753 0.74007 0.41946 0.0
C274 C 0.29966 0.76463 0.43866 0.0
C275 C 0.28804 0.75571 0.46586 0.0
N276 N 0.27222 0.73105 0.52514 0.0
C277 C 0.28495 0.7588 0.52256 0.0
C278 C 0.29506 0.77017 0.55035 0.0
C279 C 0.28818 0.74868 0.57079 0.0
C280 C 0.27448 0.72531 0.55447 0.0
N281 N 0.23386 0.67851 0.52308 0.0
C282 C 0.23909 0.67847 0.55273 0.0
C283 C 0.2183 0.66068 0.56719 0.0
C284 C 0.19892 0.64908 0.54511 0.0
C285 C 0.20896 0.66053 0.51839 0.0
N286 N 0.29204 0.67921 0.49968 0.0
C287 C 0.34302 0.65158 0.52183 0.0
C288 C 0.31464 0.63639 0.52034 0.0
C289 C 0.28977 0.65025 0.50848 0.0
C290 C 0.34518 0.68007 0.5096 0.0
C291 C 0.31968 0.69358 0.49945 0.0
N292 N 0.22123 0.7264 0.48916 0.0
C293 C 0.18373 0.75583 0.51251 0.0
C294 C 0.1722 0.76248 0.48451 0.0
C295 C 0.18542 0.75036 0.45874 0.0
C296 C 0.21009 0.73248 0.46155 0.0
C297 C 0.20803 0.73768 0.51434 0.0
H298 H 0.22031 0.72375 0.44152 0.0
H299 H 0.2162 0.73287 0.53632 0.0
H300 H 0.26838 0.63806 0.50795 0.0
H301 H 0.32246 0.71639 0.49282 0.0
C302 C 0.27309 0.68999 0.42394 0.0
C303 C 0.1959 0.65269 0.48862 0.0
C304 C 0.2897 0.77387 0.49398 0.0
C305 C 0.25923 0.7001 0.56618 0.0
H306 H 0.19364 0.62446 0.42836 0.0
H307 H 0.23846 0.64254 0.39442 0.0
H308 H 0.30368 0.73907 0.39609 0.0
H309 H 0.30883 0.78646 0.43306 0.0
H310 H 0.3065 0.79159 0.55535 0.0
H311 H 0.29192 0.75033 0.59477 0.0
H312 H 0.21639 0.65778 0.59106 0.0
H313 H 0.17961 0.63412 0.54826 0.0
H314 H 0.311 0.61435 0.52911 0.0
H315 H 0.36629 0.69263 0.50831 0.0
H316 H 0.17387 0.76438 0.53293 0.0
H317 H 0.17714 0.75514 0.43662 0.0
C318 C 0.78968 0.82994 0.46365 0.0
C319 C 0.79349 0.8415 0.43544 0.0
C320 C 0.76975 0.83029 0.41814 0.0
C321 C 0.75288 0.81251 0.43665 0.0
N322 N 0.76456 0.81203 0.46447 0.0
Co323 Co 0.74848 0.78856 0.49791 0.0
N324 N 0.7258 0.76048 0.47001 0.0
C325 C 0.71896 0.76543 0.44123 0.0
C326 C 0.70444 0.74118 0.4271 0.0
C327 C 0.70174 0.71987 0.44842 0.0
C328 C 0.71444 0.73251 0.47465 0.0
N329 N 0.73203 0.76576 0.53144 0.0
C330 C 0.71877 0.73802 0.53122 0.0
C331 C 0.70899 0.73118 0.55973 0.0
C332 C 0.71664 0.75557 0.57818 0.0
C333 C 0.73045 0.77602 0.56003 0.0
N334 N 0.77195 0.8164 0.52525 0.0
C335 C 0.76704 0.82127 0.55458 0.0
C336 C 0.78819 0.84097 0.56768 0.0
C337 C 0.80746 0.84876 0.54505 0.0
C338 C 0.79698 0.83329 0.51941 0.0
N339 N 0.71356 0.81399 0.50077 0.0
C340 C 0.66285 0.84761 0.51385 0.0
C341 C 0.69164 0.86155 0.51148 0.0
C342 C 0.71653 0.84444 0.50453 0.0
C343 C 0.66029 0.81664 0.50794 0.0
C344 C 0.68559 0.80042 0.50202 0.0
N345 N 0.78252 0.76251 0.49608 0.0
C346 C 0.81656 0.73185 0.52212 0.0
C347 C 0.82632 0.71972 0.49495 0.0
C348 C 0.81449 0.73013 0.46824 0.0
C349 C 0.79239 0.75134 0.46928 0.0
C350 C 0.79507 0.75354 0.52219 0.0
H351 H 0.78279 0.7582 0.4485 0.0
H352 H 0.78809 0.76251 0.54352 0.0
H353 H 0.73831 0.85572 0.50321 0.0
H354 H 0.68232 0.77653 0.49944 0.0
C355 C 0.73112 0.79066 0.42713 0.0
C356 C 0.80981 0.83628 0.48941 0.0
C357 C 0.71328 0.71876 0.50413 0.0
C358 C 0.74656 0.80244 0.56959 0.0
H359 H 0.81175 0.85593 0.42792 0.0
H360 H 0.76642 0.8331 0.39439 0.0
H361 H 0.69779 0.73873 0.40376 0.0
H362 H 0.69155 0.69767 0.44487 0.0
H363 H 0.69733 0.71085 0.56648 0.0
H364 H 0.71341 0.75766 0.60212 0.0
H365 H 0.79032 0.84767 0.59112 0.0
H366 H 0.82695 0.86392 0.54714 0.0
H367 H 0.69528 0.88536 0.51572 0.0
H368 H 0.63883 0.80452 0.50811 0.0
H369 H 0.82555 0.72468 0.54318 0.0
H370 H 0.82166 0.7213 0.44675 0.0
C371 C 0.47844 0.8148 0.84946 0.0
C372 C 0.45066 0.82292 0.85979 0.0
C373 C 0.43027 0.8015 0.8492 0.0
C374 C 0.44656 0.78166 0.83291 0.0
N375 N 0.47624 0.78884 0.83288 0.0
Co376 Co 0.50777 0.76712 0.81052 0.0
N377 N 0.47687 0.74096 0.78816 0.0
C378 C 0.44687 0.74101 0.7916 0.0
C379 C 0.43112 0.72285 0.77122 0.0
C380 C 0.45226 0.71089 0.75325 0.0
C381 C 0.47989 0.72221 0.76401 0.0
N382 N 0.5392 0.74491 0.7888 0.0
C383 C 0.53641 0.7247 0.76556 0.0
C384 C 0.56402 0.71447 0.75711 0.0
C385 C 0.585 0.72935 0.77519 0.0
C386 C 0.5691 0.74761 0.79376 0.0
N387 N 0.53843 0.79449 0.8316 0.0
C388 C 0.56852 0.79326 0.82977 0.0
C389 C 0.58374 0.81666 0.84462 0.0
C390 C 0.56205 0.83428 0.85591 0.0
C391 C 0.53476 0.82056 0.84727 0.0
N392 N 0.50952 0.73754 0.84314 0.0
C393 C 0.514 0.69014 0.88305 0.0
C394 C 0.539 0.70812 0.87616 0.0
C395 C 0.53618 0.73175 0.85684 0.0
C396 C 0.48641 0.69709 0.87085 0.0
C397 C 0.48469 0.72062 0.85112 0.0
N398 N 0.50661 0.79584 0.77806 0.0
C399 C 0.53248 0.82348 0.73992 0.0
C400 C 0.50568 0.83465 0.73021 0.0
C401 C 0.4793 0.82658 0.745 0.0
C402 C 0.4802 0.80694 0.76865 0.0
C403 C 0.53251 0.80456 0.76401 0.0
H404 H 0.4594 0.80072 0.7789 0.0
H405 H 0.55376 0.79706 0.7708 0.0
H406 H 0.55611 0.74474 0.8534 0.0
H407 H 0.46304 0.7243 0.84245 0.0
C408 C 0.43412 0.75983 0.81295 0.0
C409 C 0.50593 0.83339 0.85395 0.0
C410 C 0.50833 0.71571 0.74995 0.0
C411 C 0.58162 0.77079 0.8124 0.0
H412 H 0.44527 0.84292 0.87245 0.0
H413 H 0.40619 0.80156 0.85133 0.0
H414 H 0.40707 0.71959 0.76898 0.0
H415 H 0.44758 0.69619 0.73395 0.0
H416 H 0.56857 0.69859 0.73912 0.0
H417 H 0.60907 0.72815 0.77387 0.0
H418 H 0.60772 0.82093 0.8462 0.0
H419 H 0.56585 0.85517 0.86855 0.0
H420 H 0.5607 0.70418 0.88591 0.0
H421 H 0.46626 0.68397 0.87594 0.0
H422 H 0.55336 0.8295 0.72907 0.0
H423 H 0.45806 0.83484 0.73788 0.0
C424 C 0.5461 0.30471 0.67675 0.0
C425 C 0.5723 0.31106 0.6613 0.0
C426 C 0.59132 0.28881 0.66733 0.0
C427 C 0.57575 0.27011 0.68596 0.0
N428 N 0.54808 0.2792 0.69196 0.0
Co429 Co 0.51835 0.25881 0.71783 0.0
N430 N 0.55014 0.23734 0.7385 0.0
C431 C 0.57808 0.23366 0.72851 0.0
C432 C 0.59507 0.21768 0.74745 0.0
C433 C 0.57654 0.21051 0.77062 0.0
C434 C 0.54913 0.22254 0.76446 0.0
N435 N 0.48847 0.23774 0.74293 0.0
C436 C 0.49246 0.22126 0.7674 0.0
C437 C 0.46525 0.20913 0.7771 0.0
C438 C 0.44368 0.21809 0.75772 0.0
C439 C 0.45879 0.23518 0.73734 0.0
N440 N 0.4873 0.2817 0.69782 0.0
C441 C 0.45762 0.27535 0.69786 0.0
C442 C 0.44166 0.29645 0.6838 0.0
C443 C 0.46265 0.31726 0.67429 0.0
C444 C 0.49042 0.30758 0.68288 0.0
N445 N 0.51252 0.22527 0.68805 0.0
C446 C 0.49073 0.17459 0.65383 0.0
C447 C 0.48816 0.2037 0.64323 0.0
C448 C 0.4998 0.22868 0.66039 0.0
C449 C 0.50692 0.17173 0.68039 0.0
C450 C 0.51672 0.19687 0.69728 0.0
N451 N 0.52307 0.29089 0.74841 0.0
C452 C 0.50138 0.31593 0.79085 0.0
C453 C 0.52989 0.32433 0.80229 0.0
C454 C 0.55477 0.31811 0.78448 0.0
C455 C 0.55089 0.30125 0.75774 0.0
C456 C 0.49848 0.2997 0.76373 0.0
H457 H 0.5705 0.29514 0.74552 0.0
H458 H 0.47628 0.29256 0.75626 0.0
H459 H 0.49712 0.25069 0.65187 0.0
H460 H 0.52603 0.19258 0.71877 0.0
C461 C 0.58842 0.24835 0.70321 0.0
C462 C 0.51936 0.32244 0.67523 0.0
C463 C 0.52165 0.21514 0.78081 0.0
C464 C 0.44567 0.25272 0.71577 0.0
H465 H 0.57727 0.3299 0.64733 0.0
H466 H 0.61433 0.28743 0.66035 0.0
H467 H 0.61825 0.21217 0.74493 0.0
H468 H 0.58221 0.19699 0.78933 0.0
H469 H 0.46139 0.19512 0.79609 0.0
H470 H 0.41977 0.21346 0.75893 0.0
H471 H 0.41758 0.29743 0.68197 0.0
H472 H 0.45797 0.33733 0.66258 0.0
H473 H 0.47639 0.20738 0.6225 0.0
H474 H 0.51127 0.15002 0.68904 0.0
H475 H 0.48139 0.32021 0.80345 0.0
H476 H 0.57725 0.32517 0.79165 0.0
C477 C 0.85217 0.47772 0.79948 0.0
C478 C 0.86376 0.44996 0.80399 0.0
C479 C 0.85141 0.43088 0.78233 0.0
C480 C 0.83299 0.44795 0.76595 0.0
N481 N 0.83333 0.47691 0.77549 0.0
Co482 Co 0.8088 0.50915 0.75935 0.0
N483 N 0.78359 0.47938 0.73446 0.0
C484 C 0.78716 0.44956 0.73171 0.0
C485 C 0.76433 0.43427 0.71641 0.0
C486 C 0.74464 0.45545 0.70949 0.0
C487 C 0.75692 0.48274 0.72056 0.0
N488 N 0.78475 0.54136 0.74283 0.0
C489 C 0.75907 0.53915 0.72644 0.0
C490 C 0.74965 0.56717 0.7192 0.0
C491 C 0.76968 0.58772 0.7323 0.0
C492 C 0.79029 0.57118 0.74652 0.0
N493 N 0.83288 0.53847 0.78567 0.0
C494 C 0.83141 0.56858 0.78651 0.0
C495 C 0.8484 0.58246 0.8091 0.0
C496 C 0.86076 0.55975 0.82406 0.0
C497 C 0.8506 0.53329 0.80961 0.0
N498 N 0.83746 0.51453 0.72533 0.0
C499 C 0.86867 0.52481 0.67134 0.0
C500 C 0.866 0.54764 0.69301 0.0
C501 C 0.85095 0.54194 0.71973 0.0
C502 C 0.85702 0.49633 0.67797 0.0
C503 C 0.84191 0.49171 0.70481 0.0
N504 N 0.77994 0.50443 0.79208 0.0
C505 C 0.74265 0.52638 0.82355 0.0
C506 C 0.73015 0.49806 0.82934 0.0
C507 C 0.74469 0.47296 0.81835 0.0
C508 C 0.76959 0.47663 0.80002 0.0
C509 C 0.76752 0.52904 0.80506 0.0
H510 H 0.77945 0.45681 0.79137 0.0
H511 H 0.7755 0.55122 0.8003 0.0
H512 H 0.85052 0.56034 0.73522 0.0
H513 H 0.83372 0.46948 0.70798 0.0
C514 C 0.81078 0.43631 0.74614 0.0
C515 C 0.85769 0.50367 0.81974 0.0
C516 C 0.74216 0.51113 0.71867 0.0
C517 C 0.81176 0.58271 0.76743 0.0
H518 H 0.87847 0.44372 0.82187 0.0
H519 H 0.85381 0.40695 0.78024 0.0
H520 H 0.76157 0.41036 0.71212 0.0
H521 H 0.72326 0.45083 0.69847 0.0
H522 H 0.72981 0.57223 0.70662 0.0
H523 H 0.76841 0.61181 0.73276 0.0
H524 H 0.8505 0.60614 0.81483 0.0
H525 H 0.87502 0.56228 0.84378 0.0
H526 H 0.87569 0.56984 0.68953 0.0
H527 H 0.85884 0.47765 0.66216 0.0
H528 H 0.73232 0.54644 0.83176 0.0
H529 H 0.73628 0.45056 0.82303 0.0
C530 C 0.18118 0.04458 0.79758 0.0
C531 C 0.16907 0.07204 0.80419 0.0
C532 C 0.17745 0.09064 0.78167 0.0
C533 C 0.19403 0.07359 0.76254 0.0
N534 N 0.19663 0.04547 0.77168 0.0
Co535 Co 0.2178 0.01354 0.75007 0.0
N536 N 0.24175 0.04314 0.72714 0.0
C537 C 0.23516 0.0718 0.72334 0.0
C538 C 0.25645 0.0872 0.7073 0.0
C539 C 0.27759 0.06687 0.7004 0.0
C540 C 0.26777 0.03995 0.71234 0.0
N541 N 0.23859 0.98169 0.72805 0.0
C542 C 0.26433 0.98346 0.7124 0.0
C543 C 0.27047 0.95573 0.69964 0.0
C544 C 0.24773 0.9361 0.70783 0.0
C545 C 0.22891 0.95286 0.72493 0.0
N546 N 0.19406 0.98423 0.77346 0.0
C547 C 0.18966 0.95491 0.76635 0.0
C548 C 0.17341 0.93995 0.78755 0.0
C549 C 0.16706 0.96126 0.80912 0.0
C550 C 0.17957 0.98829 0.79976 0.0
N551 N 0.18689 0.01143 0.71854 0.0
C552 C 0.14414 0.99888 0.67268 0.0
C553 C 0.13574 1.00072 0.70295 0.0
C554 C 0.1573 0.00753 0.72539 0.0
C555 C 0.17436 0.00497 0.66611 0.0
C556 C 0.19525 0.01075 0.68917 0.0
N557 N 0.24888 0.01466 0.781 0.0
C558 C 0.28364 0.98777 0.81001 0.0
C559 C 0.29697 0.01465 0.82105 0.0
C560 C 0.28535 0.04167 0.81251 0.0
C561 C 0.26132 0.04119 0.79218 0.0
C562 C 0.25938 0.98825 0.79036 0.0
H563 H 0.2532 0.06216 0.78501 0.0
H564 H 0.24958 0.96712 0.78222 0.0
H565 H 0.15015 0.00856 0.74838 0.0
H566 H 0.2184 0.01375 0.6831 0.0
C567 C 0.21195 0.08452 0.73945 0.0
C568 C 0.17565 0.01767 0.81504 0.0
C569 C 0.28218 0.0113 0.70764 0.0
C570 C 0.20557 0.94167 0.74281 0.0
H571 H 0.15549 0.07802 0.82318 0.0
H572 H 0.17302 0.11411 0.78015 0.0
H573 H 0.25725 0.11073 0.70236 0.0
H574 H 0.29781 0.07155 0.68804 0.0
H575 H 0.28932 0.9503 0.6858 0.0
H576 H 0.24586 0.91225 0.7029 0.0
H577 H 0.16798 0.91617 0.78803 0.0
H578 H 0.1547 0.95724 0.82938 0.0
H579 H 0.11285 0.99613 0.7096 0.0
H580 H 0.18218 0.00506 0.64327 0.0
H581 H 0.292 0.96653 0.81644 0.0
H582 H 0.29529 0.06289 0.8208 0.0
C583 C 0.72952 0.17593 0.96239 0.0
C584 C 0.72142 0.16508 0.93383 0.0
C585 C 0.74016 0.17921 0.91443 0.0
C586 C 0.75866 0.19765 0.93214 0.0
N587 N 0.75317 0.19592 0.96176 0.0
Co588 Co 0.77446 0.2192 0.99531 0.0
N589 N 0.79863 0.24349 0.96634 0.0
C590 C 0.79853 0.24003 0.93613 0.0
C591 C 0.8155 0.26143 0.92209 0.0
C592 C 0.82674 0.28005 0.94459 0.0
C593 C 0.81616 0.26867 0.97126 0.0
N594 N 0.79556 0.24269 0.02869 0.0
C595 C 0.81382 0.26761 0.02769 0.0
C596 C 0.82324 0.27755 0.05613 0.0
C597 C 0.80976 0.25868 0.07584 0.0
C598 C 0.79306 0.23829 0.05838 0.0
N599 N 0.74996 0.19516 0.02412 0.0
C600 C 0.75202 0.19673 0.0544 0.0
C601 C 0.73107 0.17885 0.06821 0.0
C602 C 0.71439 0.1653 0.04545 0.0
C603 C 0.72631 0.17554 0.01889 0.0
N604 N 0.80644 0.18937 0.99612 0.0
C605 C 0.85761 0.1545 0.99891 0.0
C606 C 0.84128 0.16105 0.02453 0.0
C607 C 0.81597 0.17812 0.0226 0.0
C608 C 0.84695 0.16438 0.97159 0.0
C609 C 0.82143 0.18129 0.97069 0.0
N610 N 0.74349 0.24933 0.99501 0.0
C611 C 0.71477 0.28522 0.02261 0.0
C612 C 0.70999 0.30077 0.99663 0.0
C613 C 0.71996 0.2888 0.96943 0.0
C614 C 0.73609 0.26279 0.96905 0.0
C615 C 0.73158 0.2597 0.02132 0.0
H616 H 0.74355 0.25462 0.94777 0.0
H617 H 0.73589 0.24958 0.0421 0.0
H618 H 0.80486 0.18203 0.04306 0.0
H619 H 0.81467 0.18788 0.94916 0.0
C620 C 0.77964 0.21853 0.92145 0.0
C621 C 0.71385 0.16678 0.98931 0.0
C622 C 0.82156 0.28343 1.00055 0.0
C623 C 0.77236 0.21701 0.06918 0.0
H624 H 0.70353 0.14894 0.92758 0.0
H625 H 0.7398 0.17693 0.89023 0.0
H626 H 0.81812 0.26408 0.89825 0.0
H627 H 0.84022 0.30027 0.94134 0.0
H628 H 0.83764 0.29698 0.062 0.0
H629 H 0.81096 0.26042 0.10005 0.0
H630 H 0.72766 0.17672 0.09201 0.0
H631 H 0.69517 0.15014 0.04821 0.0
H632 H 0.84789 0.15301 0.04611 0.0
H633 H 0.85858 0.15975 0.95093 0.0
H634 H 0.70717 0.29371 0.04408 0.0
H635 H 0.71609 0.29997 0.94868 0.0
Zn636 Zn 0.11199 0.09717 0.07423 0.0
Zn637 Zn 0.04896 0.02904 0.00915 0.0
Zn638 Zn 0.08074 0.06497 0.04306 0.0
C639 C 0.09511 0.04731 0.97259 0.0
C640 C 0.06532 0.99506 0.05644 0.0
O641 O 0.05348 0.10037 0.06605 0.0
O642 O 0.08937 0.13322 0.08046 0.0
C643 C 0.14082 0.10053 0.02294 0.0
O644 O 0.101 0.06407 0.99627 0.0
O645 O 0.07296 0.02887 0.97262 0.0
O646 O 0.04906 0.99276 0.03318 0.0
O647 O 0.07988 0.01994 0.06318 0.0
O648 O 0.14806 0.10269 0.05024 0.0
O649 O 0.11548 0.0875 0.01509 0.0
O650 O 0.10283 0.0385 0.07816 0.0
O651 O 0.11756 0.0746 0.11038 0.0
C652 C 0.11504 0.04716 0.10345 0.0
O653 O 0.03524 0.08311 0.04398 0.0
O654 O 0.01293 0.05315 0.00959 0.0
C655 C 0.06193 0.12591 0.07848 0.0
C656 C 0.01214 0.07552 0.02749 0.0
Zn657 Zn 1.00089 0.50752 0.00826 0.0
Zn658 Zn 0.91639 0.41337 0.06636 0.0
Zn659 Zn 0.96588 0.47451 0.03692 0.0
C660 C 0.92038 0.48425 0.08806 0.0
C661 C 0.90698 0.44208 0.01676 0.0
O662 O 0.01086 0.45587 0.04222 0.0
O663 O 0.03792 0.4855 0.0137 0.0
C664 C 0.97797 0.54295 0.05574 0.0
O665 O 0.94111 0.49685 0.07242 0.0
O666 O 0.91286 0.45659 0.08421 0.0
O667 O 0.9009 0.4482 0.04368 0.0
O668 O 0.93235 0.452 0.0071 0.0
O669 O 0.99594 0.54381 0.03411 0.0
O670 O 0.96271 0.51852 0.06062 0.0
O671 O 0.94893 0.47286 0.98947 0.0
O672 O 0.98102 0.50433 0.96833 0.0
C673 C 0.95805 0.48693 0.96633 0.0
O674 O 0.98764 0.4399 0.06133 0.0
O675 O 0.95657 0.4018 0.0503 0.0
C676 C 0.03611 0.46326 0.03034 0.0
C677 C 0.97868 0.41269 0.06548 0.0
Zn678 Zn 1.00056 0.98193 0.48788 0.0
Zn679 Zn 0.05426 0.92267 0.42501 0.0
Zn680 Zn 0.02991 0.94954 0.45521 0.0
C681 C 0.05913 0.89171 0.4712 0.0
C682 C 0.00492 0.91813 0.39863 0.0
O683 O 0.0367 0.99514 0.43662 0.0
O684 O 0.00378 0.01867 0.46392 0.0
C685 C 0.04824 0.96167 0.52291 0.0
O686 O 0.05958 0.91945 0.48029 0.0
O687 O 0.04728 0.88493 0.44603 0.0
O688 O 0.02874 0.93099 0.38982 0.0
O689 O 0.99983 0.91878 0.427 0.0
O690 O 0.02739 0.97983 0.52358 0.0
O691 O 0.05216 0.94535 0.4991 0.0
O692 O 0.98265 0.92999 0.45201 0.0
O693 O 0.9618 0.95841 0.48651 0.0
C694 C 0.95976 0.93661 0.46784 0.0
O695 O 0.05959 0.97671 0.42459 0.0
O696 O 0.0939 0.9436 0.42946 0.0
C697 C 0.02237 0.01893 0.44282 0.0
C698 C 0.0869 0.969 0.42113 0.0
Zn699 Zn 0.94239 0.57089 0.42542 0.0
Zn700 Zn 0.00574 0.50687 0.47687 0.0
Zn701 Zn 0.97312 0.54124 0.45118 0.0
C702 C 0.98225 0.4709 0.43104 0.0
C703 C 0.04462 0.55322 0.46131 0.0
O704 O 0.94114 0.56509 0.48173 0.0
O705 O 0.9052 0.57038 0.44884 0.0
C706 C 0.93569 0.52391 0.39081 0.0
O707 O 0.96782 0.49505 0.42804 0.0
O708 O 1.00192 0.47016 0.45137 0.0
O709 O 0.04427 0.52985 0.47633 0.0
O710 O 0.02035 0.56103 0.44845 0.0
O711 O 0.93806 0.55133 0.38537 0.0
O712 O 0.94666 0.51487 0.41563 0.0
O713 O 1.00039 0.57678 0.42855 0.0
O714 O 0.96541 0.60958 0.42661 0.0
C715 C 0.99208 0.60303 0.422 0.0
O716 O 0.95621 0.54168 0.49841 0.0
O717 O 0.98388 0.50609 0.51472 0.0
C718 C 0.91478 0.57392 0.47535 0.0
C719 C 0.96319 0.5239 0.51921 0.0
Zn720 Zn 0.42364 0.92767 0.57277 0.0
Zn721 Zn 0.48096 0.99126 0.50675 0.0
Zn722 Zn 0.45093 0.95896 0.54133 0.0
C723 C 0.43828 0.96276 0.47001 0.0
C724 C 0.45726 0.03105 0.5482 0.0
O725 O 0.48159 0.93022 0.56598 0.0
O726 O 0.44959 0.89367 0.57723 0.0
C727 C 0.39205 0.91754 0.52337 0.0
O728 O 0.4315 0.95089 0.49511 0.0
O729 O 0.45987 0.98169 0.46869 0.0
O730 O 0.47393 0.0305 0.52561 0.0
O731 O 0.44572 0.00634 0.55795 0.0
O732 O 0.38601 0.91828 0.55083 0.0
O733 O 0.41678 0.9303 0.5146 0.0
O734 O 0.42646 0.98686 0.57551 0.0
O735 O 0.41904 0.95271 0.60926 0.0
C736 C 0.41677 0.97931 0.6015 0.0
O737 O 0.4994 0.94498 0.54319 0.0
O738 O 0.52094 0.97518 0.51112 0.0
C739 C 0.47602 0.90455 0.57749 0.0
C740 C 0.52291 0.95396 0.52882 0.0
Zn741 Zn 0.51963 0.51196 0.54752 0.0
Zn742 Zn 0.58327 0.58232 0.60419 0.0
Zn743 Zn 0.55145 0.54887 0.57647 0.0
C744 C 0.59154 0.53406 0.63395 0.0
C745 C 0.60991 0.58484 0.55189 0.0
O746 O 0.50469 0.56541 0.58011 0.0
O747 O 0.48118 0.53055 0.55165 0.0
C748 C 0.5412 0.47771 0.59144 0.0
O749 O 0.57814 0.52432 0.60956 0.0
O750 O 0.59123 0.56145 0.64118 0.0
O751 O 0.61844 0.58777 0.57879 0.0
O752 O 0.5841 0.57184 0.54568 0.0
O753 O 0.52361 0.47522 0.56921 0.0
O754 O 0.55502 0.50324 0.59743 0.0
O755 O 0.56672 0.5498 0.52844 0.0
O756 O 0.53739 0.51381 0.50778 0.0
C757 C 0.55816 0.53349 0.50528 0.0
O758 O 0.52423 0.58314 0.60072 0.0
O759 O 0.55982 0.61795 0.60934 0.0
C760 C 0.48043 0.55438 0.56738 0.0
C761 C 0.53268 0.60954 0.61099 0.0
Zn762 Zn 0.52629 0.50847 0.02333 0.0
Zn763 Zn 0.616 0.43887 0.94352 0.0
Zn764 Zn 0.5548 0.47579 0.98955 0.0
C765 C 0.61928 0.44948 1.0024 0.0
C766 C 0.54329 0.42068 0.95261 0.0
O767 O 0.55708 0.52041 0.96875 0.0
O768 O 0.5283 0.54525 0.99957 0.0
C769 C 0.57334 0.489 0.05836 0.0
O770 O 0.59209 0.45322 0.01068 0.0
O771 O 0.62938 0.46349 0.98023 0.0
O772 O 0.57086 0.42763 0.94921 0.0
O773 O 0.52803 0.43823 0.96904 0.0
O774 O 0.55199 0.50653 0.05981 0.0
O775 O 0.57768 0.47419 0.03377 0.0
O776 O 0.50862 0.45414 0.98797 0.0
O777 O 0.48787 0.48454 0.02078 0.0
C778 C 0.48562 0.462 0.00299 0.0
O779 O 0.57587 0.50064 0.95308 0.0
O780 O 0.57918 0.4586 0.92781 0.0
C781 C 0.54366 0.54442 0.97602 0.0
C782 C 0.58471 0.48647 0.92957 0.0
Zn783 Zn 0.52049 0.02892 0.98885 0.0
Zn784 Zn 0.45703 0.08388 0.92543 0.0
Zn785 Zn 0.48672 0.05919 0.95692 0.0
C786 C 0.50389 0.11903 0.92221 0.0
C787 C 0.45356 0.0338 0.89676 0.0
O788 O 0.46785 0.06283 0.003 0.0
O789 O 0.4962 0.03124 0.02558 0.0
C790 C 0.55691 0.0758 0.96838 0.0
O791 O 0.51337 0.09425 0.93196 0.0
O792 O 0.47648 0.12388 0.92364 0.0
O793 O 0.45739 0.05987 0.88737 0.0
O794 O 0.4622 0.02856 0.92364 0.0
O795 O 0.55741 0.05457 0.98627 0.0
O796 O 0.53262 0.08041 0.95376 0.0
O797 O 0.48333 0.01141 0.93991 0.0
O798 O 0.51791 0.99008 0.96644 0.0
C799 C 0.49824 0.98834 0.94597 0.0
O800 O 0.45266 0.08355 0.98314 0.0
O801 O 0.41891 0.08381 0.94715 0.0
C802 C 0.4742 0.04795 0.02629 0.0
C803 C 0.42651 0.09047 0.97387 0.0
H804 H 0.0473 0.12523 0.35458 0.0
H805 H 0.97684 0.16306 0.40697 0.0
H806 H 0.97512 0.11939 0.43822 0.0
H807 H 0.99163 0.06966 0.44922 0.0
H808 H 0.06163 0.03106 0.39728 0.0
H809 H 0.06531 0.07562 0.36703 0.0
C810 C 0.03153 0.12391 0.37281 0.0
C811 C 0.01217 0.14751 0.37831 0.0
C812 C 0.03041 0.09848 0.3906 0.0
C813 C 0.99225 0.14554 0.40238 0.0
C814 C 0.99108 0.12042 0.42015 0.0
C815 C 0.00786 0.07089 0.43139 0.0
C816 C 0.02617 0.04661 0.4253 0.0
C817 C 0.0098 0.09665 0.41426 0.0
C818 C 0.04705 0.04901 0.40217 0.0
C819 C 0.04918 0.07463 0.38495 0.0
H820 H 0.97707 0.37094 0.32635 0.0
H821 H 0.00922 0.31907 0.39855 0.0
H822 H 0.00465 0.36164 0.43361 0.0
H823 H 0.99411 0.41404 0.44338 0.0
H824 H 0.96246 0.46731 0.37202 0.0
H825 H 0.96332 0.42379 0.33723 0.0
C826 C 0.98303 0.36914 0.34978 0.0
C827 C 0.99429 0.34221 0.35977 0.0
C828 C 0.98011 0.39384 0.36998 0.0
C829 C 1.00127 0.3398 0.39027 0.0
C830 C 0.99849 0.36408 0.41032 0.0
C831 C 0.98707 0.41617 0.42027 0.0
C832 C 0.97804 0.44404 0.41046 0.0
C833 C 0.98833 0.39128 0.40037 0.0
C834 C 0.9689 0.44614 0.38044 0.0
C835 C 0.96981 0.42127 0.36041 0.0
H836 H 0.02958 0.90307 0.15281 0.0
H837 H 0.0441 0.84104 0.07809 0.0
H838 H 0.05987 0.88225 0.04807 0.0
H839 H 0.06741 0.93634 0.04136 0.0
H840 H 0.05897 0.9974 0.11702 0.0
H841 H 0.04468 0.95552 0.14866 0.0
C842 C 0.03658 0.89765 0.13033 0.0
C843 C 0.03426 0.86783 0.11834 0.0
C844 C 0.04742 0.92154 0.11315 0.0
C845 C 0.04382 0.86308 0.08853 0.0
C846 C 0.05353 0.88687 0.07106 0.0
C847 C 0.06314 0.94033 0.06499 0.0
C848 C 0.06425 0.96982 0.07692 0.0
C849 C 0.05505 0.91618 0.08299 0.0
C850 C 0.05868 0.97483 0.10748 0.0
C851 C 0.0501 0.95091 0.12542 0.0
H852 H 0.97829 0.64318 0.15944 0.0
H853 H 0.02453 0.69275 0.09151 0.0
H854 H 0.01912 0.64963 0.05666 0.0
H855 H 1.00137 0.5983 0.04546 0.0
H856 H 0.95401 0.54803 0.11209 0.0
H857 H 0.95872 0.59123 0.14729 0.0
C858 C 0.9875 0.64421 0.13711 0.0
C859 C 1.00292 0.67058 0.12837 0.0
C860 C 0.98349 0.61953 0.11687 0.0
C861 C 0.01379 0.67224 0.0991 0.0
C862 C 0.01029 0.64776 0.07906 0.0
C863 C 0.99187 0.59669 0.06763 0.0
C864 C 0.97725 0.56981 0.07613 0.0
C865 C 0.9952 0.62135 0.0877 0.0
C866 C 0.965 0.56844 0.10489 0.0
C867 C 0.96802 0.59308 0.12509 0.0
H868 H 0.37832 0.05207 0.13013 0.0
H869 H 0.43199 0.9816 0.16188 0.0
H870 H 0.46546 0.98765 0.11952 0.0
H871 H 0.47919 0.01216 0.07357 0.0
H872 H 0.42516 0.08126 0.03989 0.0
H873 H 0.39245 0.07702 0.08324 0.0
C874 C 0.39748 0.0382 0.12787 0.0
C875 C 0.40259 0.01633 0.14919 0.0
C876 C 0.41665 0.0417 0.10326 0.0
C877 C 0.42729 0.99829 0.14567 0.0
C878 C 0.44656 1.00188 0.12155 0.0
C879 C 0.46043 0.02659 0.07564 0.0
C880 C 0.45493 0.04735 0.05335 0.0
C881 C 0.44141 0.02343 0.10022 0.0
C882 C 0.43021 0.0654 0.0566 0.0
C883 C 0.41139 0.06281 0.08141 0.0
H884 H 0.67457 0.482 0.15846 0.0
H885 H 0.60885 0.52854 0.20956 0.0
H886 H 0.57499 0.52648 0.16623 0.0
H887 H 0.56405 0.51169 0.11417 0.0
H888 H 0.62832 0.46326 0.0627 0.0
H889 H 0.66248 0.4652 0.10588 0.0
C890 C 0.65295 0.49197 0.15982 0.0
C891 C 0.64465 0.50655 0.1867 0.0
C892 C 0.63322 0.48996 0.13494 0.0
C893 C 0.6162 0.51842 0.18871 0.0
C894 C 0.59671 0.51688 0.16406 0.0
C895 C 0.58549 0.50144 0.11225 0.0
C896 C 0.59354 0.48747 0.08495 0.0
C897 C 0.60501 0.50279 0.13709 0.0
C898 C 0.62136 0.4741 0.08325 0.0
C899 C 0.64103 0.47536 0.10798 0.0
H900 H 0.40204 0.95968 0.33532 0.0
H901 H 0.32616 0.00455 0.37049 0.0
H902 H 0.34341 0.99652 0.42182 0.0
H903 H 0.3824 0.97959 0.45654 0.0
H904 H 0.45766 0.93427 0.42056 0.0
H905 H 0.43759 0.93793 0.36978 0.0
C906 C 0.38901 0.96713 0.35427 0.0
C907 C 0.36276 0.98242 0.34926 0.0
C908 C 0.39866 0.96173 0.38355 0.0
C909 C 0.34643 0.99267 0.37393 0.0
C910 C 0.35618 0.98791 0.40321 0.0
C911 C 0.39364 0.96947 0.43761 0.0
C912 C 0.42109 0.95608 0.44217 0.0
C913 C 0.38241 0.97262 0.40833 0.0
C914 C 0.43613 0.94401 0.4175 0.0
C915 C 0.42492 0.94656 0.38847 0.0
H916 H 0.6009 0.51109 0.3738 0.0
H917 H 0.68525 0.54507 0.4121 0.0
H918 H 0.66108 0.55523 0.45972 0.0
H919 H 0.61635 0.55069 0.49192 0.0
H920 H 0.53191 0.52012 0.45166 0.0
H921 H 0.55566 0.51346 0.40338 0.0
C922 C 0.61407 0.52134 0.39218 0.0
C923 C 0.64513 0.52652 0.38914 0.0
C924 C 0.59994 0.52792 0.41942 0.0
C925 C 0.66152 0.53965 0.41376 0.0
C926 C 0.64764 0.54585 0.44108 0.0
C927 C 0.60303 0.54352 0.47241 0.0
C928 C 0.57242 0.5358 0.47555 0.0
C929 C 0.61691 0.53956 0.44439 0.0
C930 C 0.5556 0.52596 0.45001 0.0
C931 C 0.56916 0.52203 0.42232 0.0
H932 H 0.13666 0.36919 0.0414 0.0
H933 H 0.1875 0.43981 0.99839 0.0
H934 H 0.14523 0.47186 0.00263 0.0
H935 H 0.0929 0.4788 0.01464 0.0
H936 H 0.04012 0.40727 0.05312 0.0
H937 H 0.08395 0.37648 0.05416 0.0
C938 C 0.13856 0.39146 0.03263 0.0
C939 C 0.16553 0.40176 0.01938 0.0
C940 C 0.11368 0.40961 0.03418 0.0
C941 C 0.16746 0.43114 0.00907 0.0
C942 C 0.1431 0.44951 0.0112 0.0
C943 C 0.0909 0.45654 0.0235 0.0
C944 C 0.06309 0.4454 0.03399 0.0
C945 C 0.11599 0.4388 0.0232 0.0
C946 C 0.06119 0.41655 0.0454 0.0
C947 C 0.08627 0.39887 0.04571 0.0
H948 H 0.18005 0.59526 0.47176 0.0
H949 H 0.14273 0.67907 0.49749 0.0
H950 H 0.09188 0.65721 0.48823 0.0
H951 H 0.05788 0.61315 0.47342 0.0
H952 H 0.09697 0.53025 0.44676 0.0
H953 H 0.14707 0.55306 0.45425 0.0
C954 C 0.16075 0.60878 0.47505 0.0
C955 C 0.16504 0.63876 0.48498 0.0
C956 C 0.13185 0.59632 0.46883 0.0
C957 C 0.13988 0.65589 0.48984 0.0
C958 C 0.11086 0.64346 0.48428 0.0
C959 C 0.07743 0.60048 0.46846 0.0
C960 C 0.07373 0.57013 0.45915 0.0
C961 C 0.1065 0.61365 0.47358 0.0
C962 C 0.09926 0.5537 0.45359 0.0
C963 C 0.12794 0.56663 0.45819 0.0
H964 H 0.82433 0.89379 0.47604 0.0
H965 H 0.86323 0.80968 0.49264 0.0
H966 H 0.91348 0.83191 0.48363 0.0
H967 H 0.94667 0.87649 0.47302 0.0
H968 H 0.90675 0.96064 0.4582 0.0
H969 H 0.85682 0.93729 0.46362 0.0
C970 C 0.84389 0.88043 0.47765 0.0
C971 C 0.84029 0.85027 0.4851 0.0
C972 C 0.87255 0.89335 0.47229 0.0
C973 C 0.86565 0.83305 0.48714 0.0
C974 C 0.8943 0.84572 0.4818 0.0
C975 C 0.92695 0.88939 0.4702 0.0
C976 C 0.93034 0.92016 0.46475 0.0
C977 C 0.89811 0.87594 0.47442 0.0
C978 C 0.90465 0.93686 0.462 0.0
C979 C 0.87609 0.92359 0.46539 0.0
H980 H 0.35329 0.59219 0.53193 0.0
H981 H 0.39468 0.6809 0.54559 0.0
H982 H 0.44006 0.65945 0.56325 0.0
H983 H 0.47005 0.6148 0.57134 0.0
H984 H 0.42556 0.52734 0.56322 0.0
H985 H 0.37917 0.54938 0.54887 0.0
C986 C 0.37163 0.60727 0.53933 0.0
C987 C 0.37009 0.63837 0.53594 0.0
C988 C 0.39748 0.59496 0.55109 0.0
C989 C 0.39499 0.6568 0.546 0.0
C990 C 0.42114 0.64458 0.55679 0.0
C991 C 0.44996 0.60072 0.56737 0.0
C992 C 0.45151 0.5694 0.56791 0.0
C993 C 0.42293 0.61358 0.5589 0.0
C994 C 0.42517 0.5515 0.56261 0.0
C995 C 0.39858 0.56405 0.55416 0.0
H996 H 0.55417 0.64603 0.88042 0.0
H997 H 0.47957 0.67745 0.93114 0.0
H998 H 0.48324 0.63586 0.9648 0.0
H999 H 0.50686 0.59057 0.97936 0.0
H1000 H 0.57986 0.5568 0.92781 0.0
H1001 H 0.57779 0.59944 0.89499 0.0
C1002 C 0.53886 0.64377 0.89896 0.0
C1003 C 0.5166 0.66476 0.90333 0.0
C1004 C 0.54086 0.61949 0.91803 0.0
C1005 C 0.49668 0.66145 0.92719 0.0
C1006 C 0.49886 0.63776 0.94649 0.0
C1007 C 0.52257 0.59252 0.96111 0.0
C1008 C 0.54374 0.57053 0.9563 0.0
C1009 C 0.52077 0.61665 0.94206 0.0
C1010 C 0.56349 0.57338 0.93219 0.0
C1011 C 0.56225 0.59777 0.91338 0.0
H1012 H 0.48982 0.85166 0.90977 0.0
H1013 H 0.51925 0.885 0.82525 0.0
H1014 H 0.51623 0.93672 0.84482 0.0
H1015 H 0.50691 0.97251 0.8872 0.0
H1016 H 0.47838 0.93808 0.97169 0.0
H1017 H 0.47815 0.88694 0.95081 0.0
C1018 C 0.49535 0.87034 0.89566 0.0
C1019 C 0.50459 0.86473 0.86615 0.0
C1020 C 0.49319 0.89982 0.90697 0.0
C1021 C 0.51207 0.88896 0.84808 0.0
C1022 C 0.51018 0.91845 0.85921 0.0
C1023 C 0.49992 0.95376 0.90065 0.0
C1024 C 0.4922 0.95891 0.93077 0.0
C1025 C 0.50079 0.92421 0.88869 0.0
C1026 C 0.48397 0.93453 0.94833 0.0
C1027 C 0.48414 0.9053 0.9365 0.0
H1028 H 0.54609 0.37756 0.68942 0.0
H1029 H 0.49756 0.32762 0.619 0.0
H1030 H 0.50207 0.37049 0.5867 0.0
H1031 H 0.51911 0.42167 0.57845 0.0
H1032 H 0.56646 0.47374 0.64828 0.0
H1033 H 0.564 0.43037 0.68053 0.0
C1034 C 0.53624 0.37637 0.66711 0.0
C1035 C 0.52065 0.3498 0.65686 0.0
C1036 C 0.53922 0.40123 0.64844 0.0
C1037 C 0.50876 0.34811 0.62765 0.0
C1038 C 0.51163 0.37251 0.60911 0.0
C1039 C 0.5291 0.42376 0.60068 0.0
C1040 C 0.54318 0.45117 0.61071 0.0
C1041 C 0.52672 0.39913 0.61927 0.0
C1042 C 0.55597 0.45299 0.63964 0.0
C1043 C 0.5542 0.4282 0.65824 0.0
H1044 H 0.48017 0.16359 0.5934 0.0
H1045 H 0.46843 0.12307 0.67919 0.0
H1046 H 0.45403 0.07547 0.6545 0.0
H1047 H 0.45015 0.04352 0.60829 0.0
H1048 H 0.45842 0.08501 0.52284 0.0
H1049 H 0.46717 0.13387 0.54766 0.0
C1050 C 0.47385 0.14467 0.60685 0.0
C1051 C 0.47689 0.14703 0.63823 0.0
C1052 C 0.46463 0.11721 0.59252 0.0
C1053 C 0.46805 0.12192 0.65496 0.0
C1054 C 0.45933 0.09454 0.64087 0.0
C1055 C 0.45292 0.06336 0.59515 0.0
C1056 C 0.45407 0.0605 0.56377 0.0
C1057 C 0.4584 0.09162 0.60961 0.0
C1058 C 0.45784 0.08652 0.54708 0.0
C1059 C 0.46303 0.11453 0.56125 0.0
H1060 H 0.90804 0.48956 0.64339 0.0
H1061 H 0.86412 0.57253 0.63433 0.0
H1062 H 0.88883 0.58024 0.58618 0.0
H1063 H 0.92331 0.56265 0.54606 0.0
H1064 H 0.96609 0.47899 0.55766 0.0
H1065 H 0.94132 0.47242 0.60476 0.0
C1066 C 0.90361 0.50923 0.63082 0.0
C1067 C 0.8841 0.53026 0.64242 0.0
C1068 C 0.91779 0.51348 0.60333 0.0
C1069 C 0.87922 0.556 0.62603 0.0
C1070 C 0.89324 0.56035 0.59839 0.0
C1071 C 0.92708 0.54301 0.55887 0.0
C1072 C 0.94679 0.52152 0.54802 0.0
C1073 C 0.91263 0.53915 0.58668 0.0
C1074 C 0.9514 0.49622 0.56522 0.0
C1075 C 0.93713 0.49225 0.59235 0.0
H1076 H 0.15335 0.96971 0.61845 0.0
H1077 H 0.08397 0.00977 0.671 0.0
H1078 H 0.04793 0.99766 0.631 0.0
H1079 H 0.03648 0.97921 0.57987 0.0
H1080 H 0.10727 0.94789 0.52396 0.0
H1081 H 0.14231 0.95297 0.56644 0.0
C1082 C 0.13052 0.97632 0.62121 0.0
C1083 C 0.12179 0.99083 0.64814 0.0
C1084 C 0.10997 0.97053 0.59745 0.0
C1085 C 0.09163 0.99815 0.65111 0.0
C1086 C 0.07089 0.99148 0.62801 0.0
C1087 C 0.05951 0.9731 0.57705 0.0
C1088 C 0.06893 0.96179 0.54907 0.0
C1089 C 0.07989 0.97806 0.60098 0.0
C1090 C 0.09898 0.95471 0.54567 0.0
C1091 C 0.11918 0.95838 0.56981 0.0
H1092 H 0.91565 0.49358 0.83216 0.0
H1093 H 0.83059 0.50534 0.874 0.0
H1094 H 0.85308 0.49772 0.92345 0.0
H1095 H 0.89796 0.48942 0.95497 0.0
H1096 H 0.98313 0.47985 0.91223 0.0
H1097 H 0.9597 0.48398 0.86307 0.0
C1098 C 0.90216 0.49442 0.8522 0.0
C1099 C 0.87164 0.49999 0.84971 0.0
C1100 C 0.91524 0.48996 0.88034 0.0
C1101 C 0.85421 0.50116 0.87563 0.0
C1102 C 0.86703 0.49664 0.90379 0.0
C1103 C 0.91113 0.48759 0.93479 0.0
C1104 C 0.94216 0.48404 0.93712 0.0
C1105 C 0.89761 0.49107 0.90648 0.0
C1106 C 0.95917 0.48238 0.9109 0.0
C1107 C 0.94584 0.48496 0.88281 0.0
H1108 H 0.1922 0.04443 0.86913 0.0
H1109 H 0.11758 0.99921 0.82241 0.0
H1110 H 0.08627 0.00582 0.86637 0.0
H1111 H 0.07989 0.02409 0.91769 0.0
H1112 H 0.15363 0.06931 0.96587 0.0
H1113 H 0.18517 0.06407 0.92157 0.0
C1114 C 0.16917 0.03578 0.86886 0.0
C1115 C 0.1575 0.02034 0.84292 0.0
C1116 C 0.151 0.04024 0.89421 0.0
C1117 C 0.12737 0.0101 0.84243 0.0
C1118 C 0.10937 0.01422 0.86744 0.0
C1119 C 0.10284 0.03301 0.91866 0.0
C1120 C 0.11416 0.04742 0.94526 0.0
C1121 C 0.12093 0.02919 0.89342 0.0
C1122 C 0.14398 0.05879 0.94571 0.0
C1123 C 0.16217 0.05538 0.92041 0.0
H1124 H 0.65138 0.90676 0.50458 0.0
H1125 H 0.61216 0.82731 0.54355 0.0
H1126 H 0.56618 0.85277 0.55282 0.0
H1127 H 0.53531 0.89712 0.54711 0.0
H1128 H 0.57691 0.97745 0.51252 0.0
H1129 H 0.62343 0.95242 0.50537 0.0
C1130 C 0.63318 0.89496 0.51564 0.0
C1131 C 0.63557 0.86459 0.52236 0.0
C1132 C 0.6068 0.91006 0.52195 0.0
C1133 C 0.6111 0.85019 0.5367 0.0
C1134 C 0.58464 0.8649 0.54248 0.0
C1135 C 0.55474 0.90936 0.53882 0.0
C1136 C 0.55222 0.93919 0.53028 0.0
C1137 C 0.58196 0.89476 0.53476 0.0
C1138 C 0.57781 0.95443 0.51909 0.0
C1139 C 0.6046 0.9401 0.51487 0.0
H1140 H 0.65899 0.17851 0.96691 0.0
H1141 H 0.70934 0.1085 0.0041 0.0
H1142 H 0.66566 0.07369 0.99894 0.0
H1143 H 0.61316 0.06364 0.98516 0.0
H1144 H 0.56181 0.13346 0.94901 0.0
H1145 H 0.606 0.1677 0.9514 0.0
C1146 C 0.66019 0.15561 0.97387 0.0
C1147 C 0.68698 0.14603 0.98635 0.0
C1148 C 0.63503 0.13569 0.97056 0.0
C1149 C 0.68869 0.11631 0.99493 0.0
C1150 C 0.66383 0.09645 0.99182 0.0
C1151 C 0.6116 0.08629 0.97755 0.0
C1152 C 0.58414 0.09585 0.9665 0.0
C1153 C 0.63688 0.10595 0.97983 0.0
C1154 C 0.5827 0.12527 0.95679 0.0
C1155 C 0.60793 0.14498 0.95862 0.0
H1156 H 0.35023 0.41721 0.00827 0.0
H1157 H 0.38804 0.33148 0.99309 0.0
H1158 H 0.43833 0.35561 0.98944 0.0
H1159 H 0.47179 0.40181 0.99188 0.0
H1160 H 0.43231 0.48704 0.00774 0.0
H1161 H 0.38274 0.46271 0.00928 0.0
C1162 C 0.36961 0.40394 0.00437 0.0
C1163 C 0.36581 0.37276 1.00139 0.0
C1164 C 0.39818 0.41797 1.00211 0.0
C1165 C 0.39076 0.35559 0.99583 0.0
C1166 C 0.41941 0.36939 0.99359 0.0
C1167 C 0.45225 0.41496 0.99527 0.0
C1168 C 0.45582 0.4462 0.99984 0.0
C1169 C 0.42347 0.40066 0.99675 0.0
C1170 C 0.43027 0.46295 0.00441 0.0
C1171 C 0.40183 0.44907 0.00537 0.0
H1172 H 0.90155 0.1584 0.04232 0.0
H1173 H 0.87599 0.11153 0.95926 0.0
H1174 H 0.92155 0.08389 0.96091 0.0
H1175 H 0.96825 0.0728 0.98552 0.0
H1176 H 0.99365 0.11709 0.06967 0.0
H1177 H 0.94846 0.14596 0.06807 0.0
C1178 C 0.90577 0.14191 0.02473 0.0
C1179 C 0.88529 0.13725 1.00058 0.0
C1180 C 0.93201 0.12574 0.02596 0.0
C1181 C 0.89147 0.11606 0.97782 0.0
C1182 C 0.91746 0.10004 0.97884 0.0
C1183 C 0.96399 0.08867 0.00368 0.0
C1184 C 0.98469 0.09305 0.02757 0.0
C1185 C 0.93785 0.10473 0.00274 0.0
C1186 C 0.97861 0.1138 0.05072 0.0
C1187 C 0.95257 0.13009 0.0499 0.0
H1188 H 0.02094 0.22692 0.1657 0.0
H1189 H 0.01215 0.15212 0.22358 0.0
H1190 H 0.02011 0.11737 0.18119 0.0
H1191 H 0.0352 0.10887 0.12891 0.0
H1192 H 0.0482 0.18379 0.07184 0.0
H1193 H 0.03185 0.21781 0.11193 0.0
C1194 C 0.02043 0.20297 0.16875 0.0
C1195 C 0.01603 0.19191 0.19749 0.0
C1196 C 0.02534 0.18318 0.14426 0.0
C1197 C 0.01552 0.16093 0.2015 0.0
C1198 C 0.01999 0.14113 0.1773 0.0
C1199 C 0.03312 0.13247 0.12492 0.0
C1200 C 0.04207 0.14379 0.09728 0.0
C1201 C 0.02544 0.15201 0.14867 0.0
C1202 C 0.0406 0.17457 0.0927 0.0
C1203 C 0.03178 0.19404 0.1158 0.0
H1204 H 0.97023 0.36823 0.19738 0.0
H1205 H 0.04253 0.31485 0.16685 0.0
H1206 H 0.04176 0.33858 0.11839 0.0
H1207 H 0.01788 0.37191 0.08337 0.0
H1208 H 0.94782 0.42737 0.115 0.0
H1209 H 0.94971 0.405 0.16399 0.0
C1210 C 0.98585 0.36193 0.18011 0.0
C1211 C 0.00626 0.33976 0.18558 0.0
C1212 C 0.98542 0.37578 0.15238 0.0
C1213 C 0.0267 0.33202 0.1632 0.0
C1214 C 0.02616 0.34543 0.13543 0.0
C1215 C 0.00361 0.37958 0.10123 0.0
C1216 C 0.98282 0.40132 0.09571 0.0
C1217 C 0.00534 0.36704 0.1296 0.0
C1218 C 0.96396 0.41065 0.1188 0.0
C1219 C 0.96505 0.39786 0.14682 0.0
H1220 H 0.98588 0.79881 0.32476 0.0
H1221 H 0.01467 0.8578 0.25531 0.0
H1222 H 0.00992 0.90115 0.28916 0.0
H1223 H 1.00207 0.92175 0.33917 0.0
H1224 H 0.97795 0.8636 0.41086 0.0
H1225 H 0.97438 0.82061 0.37526 0.0
C1226 C 0.99129 0.82122 0.31737 0.0
C1227 C 1.00142 0.82532 0.28805 0.0
C1228 C 0.98846 0.84612 0.33706 0.0
C1229 C 0.00763 0.8543 0.27811 0.0
C1230 C 0.00453 0.87903 0.29729 0.0
C1231 C 0.99512 0.89978 0.34686 0.0
C1232 C 0.99049 0.89578 0.37754 0.0
C1233 C 0.99537 0.87516 0.32685 0.0
C1234 C 0.98136 0.8673 0.38727 0.0
C1235 C 0.98001 0.84263 0.36703 0.0
H1236 H 0.00893 0.70102 0.32909 0.0
H1237 H 0.00665 0.62306 0.26996 0.0
H1238 H 0.01057 0.59068 0.313 0.0
H1239 H 0.00882 0.58464 0.36748 0.0
H1240 H 0.00683 0.66244 0.42654 0.0
H1241 H 0.01192 0.69506 0.38379 0.0
C1242 C 0.00932 0.67691 0.32584 0.0
C1243 C 0.00682 0.66414 0.29676 0.0
C1244 C 0.01155 0.65861 0.35065 0.0
C1245 C 0.00791 0.63307 0.29237 0.0
C1246 C 0.01042 0.6147 0.3169 0.0
C1247 C 0.01103 0.60874 0.37102 0.0
C1248 C 0.00819 0.62123 0.40009 0.0
C1249 C 0.01177 0.62719 0.34617 0.0
C1250 C 0.0098 0.65245 0.40441 0.0
C1251 C 0.01202 0.67104 0.37991 0.0
H1252 H 0.19384 0.0031 0.20661 0.0
H1253 H 0.26222 0.03188 0.14539 0.0
H1254 H 0.2243 0.03786 0.10635 0.0
H1255 H 0.17171 0.03939 0.09152 0.0
H1256 H 0.10257 0.01649 0.1541 0.0
H1257 H 0.14049 1.00218 0.19047 0.0
C1258 C 0.20017 0.01069 0.18466 0.0
C1259 C 0.23042 0.01759 0.17869 0.0
C1260 C 0.1782 0.01431 0.16254 0.0
C1261 C 0.23887 0.02701 0.1503 0.0
C1262 C 0.21729 0.03014 0.12803 0.0
C1263 C 0.16501 0.03003 0.11268 0.0
C1264 C 0.13457 0.02803 0.11997 0.0
C1265 C 0.18691 0.0242 0.13403 0.0
C1266 C 0.12591 0.01719 0.1478 0.0
C1267 C 0.14761 0.00967 0.16874 0.0
H1268 H 0.84064 0.51948 0.19547 0.0
H1269 H 0.77288 0.48969 0.13063 0.0
H1270 H 0.81048 0.48858 0.09119 0.0
H1271 H 0.86293 0.4904 0.07673 0.0
H1272 H 0.93184 0.51167 0.1429 0.0
H1273 H 0.89375 0.52342 0.18008 0.0
C1274 C 0.83427 0.51309 0.17258 0.0
C1275 C 0.80429 0.50452 0.16569 0.0
C1276 C 0.85618 0.51162 0.15032 0.0
C1277 C 0.79597 0.49607 0.13621 0.0
C1278 C 0.81738 0.49562 0.11375 0.0
C1279 C 0.86953 0.49877 0.09902 0.0
C1280 C 0.90005 0.50135 0.10686 0.0
C1281 C 0.84758 0.50274 0.1207 0.0
C1282 C 0.90854 0.511 0.13601 0.0
C1283 C 0.8867 0.51691 0.15743 0.0
H1284 H 0.17136 0.00291 0.316 0.0
H1285 H 0.23715 0.98349 0.38281 0.0
H1286 H 0.19818 0.97993 0.42082 0.0
H1287 H 0.14516 0.97772 0.43367 0.0
H1288 H 0.07851 0.99236 0.36616 0.0
H1289 H 0.11785 0.00399 0.33007 0.0
C1290 C 0.17694 0.99804 0.33896 0.0
C1291 C 0.20673 0.99302 0.34683 0.0
C1292 C 0.15436 0.99591 0.36058 0.0
C1293 C 0.21416 0.98702 0.37649 0.0
C1294 C 0.19197 0.98519 0.39814 0.0
C1295 C 0.13934 0.98453 0.41133 0.0
C1296 C 0.10905 0.98527 0.40288 0.0
C1297 C 0.16198 0.98914 0.39033 0.0
C1298 C 0.10165 0.99312 0.37363 0.0
C1299 C 0.12417 0.99897 0.35278 0.0
H1300 H 0.81066 0.47475 0.35048 0.0
H1301 H 0.83424 0.52381 0.27211 0.0
H1302 H 0.88595 0.5307 0.29044 0.0
H1303 H 0.92179 0.52901 0.33225 0.0
H1304 H 0.89844 0.47891 0.41007 0.0
H1305 H 0.84979 0.46419 0.38746 0.0
C1306 C 0.82744 0.48576 0.33679 0.0
C1307 C 0.8189 0.49846 0.3098 0.0
C1308 C 0.85713 0.48921 0.34728 0.0
C1309 C 0.84052 0.51375 0.29286 0.0
C1310 C 0.87 0.51765 0.30332 0.0
C1311 C 0.90648 0.5139 0.34373 0.0
C1312 C 0.91344 0.50544 0.37294 0.0
C1313 C 0.87829 0.50627 0.33095 0.0
C1314 C 0.8936 0.48571 0.38755 0.0
C1315 C 0.86556 0.47771 0.37483 0.0
H1316 H 0.1799 0.22184 0.97489 0.0
H1317 H 0.2627 0.20037 0.01757 0.0
H1318 H 0.24359 0.14878 0.02336 0.0
H1319 H 0.20037 0.11297 0.02333 0.0
H1320 H 0.11817 0.13423 0.97941 0.0
H1321 H 0.14086 0.18213 0.9647 0.0
C1322 C 0.19428 0.2055 0.98412 0.0
C1323 C 0.22277 0.21462 0.99549 0.0
C1324 C 0.18335 0.17586 0.98682 0.0
C1325 C 0.24071 0.19363 0.00865 0.0
C1326 C 0.22983 0.16421 0.01186 0.0
C1327 C 0.18793 0.12755 0.00935 0.0
C1328 C 0.15758 0.12042 0.00283 0.0
C1329 C 0.20082 0.1554 1.0019 0.0
C1330 C 0.1416 0.13925 0.98464 0.0
C1331 C 0.15439 0.16691 0.97675 0.0
H1332 H 0.16503 0.81585 0.51387 0.0
H1333 H 0.12169 0.75256 0.45071 0.0
H1334 H 0.07974 0.78524 0.44583 0.0
H1335 H 0.05777 0.83299 0.45613 0.0
H1336 H 0.1023 0.8985 0.5159 0.0
H1337 H 0.1408 0.86315 0.5268 0.0
C1338 C 0.1462 0.80913 0.49931 0.0
C1339 C 0.14649 0.78201 0.48241 0.0
C1340 C 0.12236 0.82823 0.49633 0.0
C1341 C 0.12213 0.77357 0.4635 0.0
C1342 C 0.09809 0.79211 0.46091 0.0
C1343 C 0.07562 0.83955 0.47194 0.0
C1344 C 0.07745 0.86878 0.48478 0.0
C1345 C 0.09828 0.81967 0.47678 0.0
C1346 C 0.10045 0.87645 0.50556 0.0
C1347 C 0.12264 0.85625 0.51151 0.0
H1348 H 0.8218 0.66468 0.5192 0.0
H1349 H 0.88095 0.72263 0.46936 0.0
H1350 H 0.91741 0.68355 0.46575 0.0
H1351 H 0.92965 0.63142 0.47155 0.0
H1352 H 0.86775 0.57067 0.51439 0.0
H1353 H 0.83565 0.61231 0.52725 0.0
C1354 C 0.84289 0.66872 0.50792 0.0
C1355 C 0.8488 0.69637 0.49445 0.0
C1356 C 0.86331 0.64571 0.50511 0.0
C1357 C 0.87596 0.70143 0.47964 0.0
C1358 C 0.8968 0.67915 0.47772 0.0
C1359 C 0.9097 0.62757 0.48476 0.0
C1360 C 0.90141 0.59828 0.4928 0.0
C1361 C 0.89043 0.65105 0.48981 0.0
C1362 C 0.87495 0.5932 0.50879 0.0
C1363 C 0.85639 0.61693 0.51561 0.0
H1364 H 0.34448 0.79409 0.47442 0.0
H1365 H 0.26411 0.82333 0.51657 0.0
H1366 H 0.28711 0.87371 0.52432 0.0
H1367 H 0.3323 0.90698 0.52484 0.0
H1368 H 0.41199 0.8784 0.48098 0.0
H1369 H 0.3863 0.83071 0.4661 0.0
C1370 C 0.33157 0.81181 0.48419 0.0
C1371 C 0.30249 0.80519 0.49463 0.0
C1372 C 0.3447 0.84083 0.48789 0.0
C1373 C 0.28645 0.82805 0.50828 0.0
C1374 C 0.29956 0.85679 0.51263 0.0
C1375 C 0.34361 0.89077 0.51093 0.0
C1376 C 0.37401 0.89605 0.50415 0.0
C1377 C 0.32893 0.8632 0.50319 0.0
C1378 C 0.38852 0.87495 0.48622 0.0
C1379 C 0.37399 0.84745 0.47822 0.0
H1380 H 0.4873 0.65954 0.73202 0.0
H1381 H 0.53157 0.73957 0.69996 0.0
H1382 H 0.53727 0.71524 0.65061 0.0
H1383 H 0.53505 0.66948 0.61896 0.0
H1384 H 0.491 0.58917 0.65059 0.0
H1385 H 0.47794 0.61584 0.69706 0.0
C1386 C 0.49751 0.67179 0.71394 0.0
C1387 C 0.50907 0.70125 0.71946 0.0
C1388 C 0.50027 0.65777 0.68549 0.0
C1389 C 0.52269 0.71683 0.69612 0.0
C1390 C 0.52578 0.70299 0.66793 0.0
C1391 C 0.52156 0.65813 0.63556 0.0
C1392 C 0.51416 0.62737 0.63145 0.0
C1393 C 0.51526 0.67328 0.66259 0.0
C1394 C 0.49672 0.6129 0.65307 0.0
C1395 C 0.4898 0.62801 0.67992 0.0
H1396 H 0.52121 0.82066 0.67339 0.0
H1397 H 0.489 0.89204 0.72966 0.0
H1398 H 0.48512 0.92369 0.68622 0.0
H1399 H 0.48427 0.92821 0.63188 0.0
H1400 H 0.50778 0.85384 0.57476 0.0
H1401 H 0.52323 0.8265 0.61862 0.0
C1402 C 0.51379 0.84333 0.67601 0.0
C1403 C 0.50525 0.85419 0.70437 0.0
C1404 C 0.51059 0.86086 0.65079 0.0
C1405 C 0.49539 0.88336 0.70783 0.0
C1406 C 0.49334 0.90141 0.68309 0.0
C1407 C 0.49409 0.90655 0.6291 0.0
C1408 C 0.49587 0.89328 0.60032 0.0
C1409 C 0.50016 0.89011 0.65441 0.0
C1410 C 0.50721 0.86471 0.59675 0.0
C1411 C 0.51542 0.84894 0.62184 0.0
H1412 H 0.49332 0.36236 0.83319 0.0
H1413 H 0.57486 0.31483 0.84216 0.0
H1414 H 0.58284 0.33668 0.89215 0.0
H1415 H 0.56924 0.37204 0.93156 0.0
H1416 H 0.48865 0.42055 0.92369 0.0
H1417 H 0.47652 0.39373 0.87593 0.0
C1418 C 0.51259 0.35633 0.84618 0.0
C1419 C 0.53382 0.33743 0.83332 0.0
C1420 C 0.51684 0.36856 0.87544 0.0
C1421 C 0.55868 0.33013 0.85074 0.0
C1422 C 0.56307 0.34223 0.87964 0.0
C1423 C 0.54851 0.37608 0.91983 0.0
C1424 C 0.52989 0.39822 0.931 0.0
C1425 C 0.54259 0.36178 0.89197 0.0
C1426 C 0.50315 0.40334 0.91568 0.0
C1427 C 0.49657 0.38843 0.8881 0.0
H1428 H 0.53373 0.2248 0.84007 0.0
H1429 H 0.51285 0.15521 0.77337 0.0
H1430 H 0.5129 0.11742 0.81182 0.0
H1431 H 0.51314 0.10522 0.86494 0.0
H1432 H 0.52821 0.17531 0.9323 0.0
H1433 H 0.53773 0.21177 0.89337 0.0
C1434 C 0.52947 0.2013 0.83416 0.0
C1435 C 0.52289 0.19258 0.8043 0.0
C1436 C 0.52918 0.17983 0.85647 0.0
C1437 C 0.51759 0.16219 0.79646 0.0
C1438 C 0.51779 0.14067 0.81835 0.0
C1439 C 0.51992 0.12824 0.87098 0.0
C1440 C 0.52108 0.1375 0.90133 0.0
C1441 C 0.52302 0.14929 0.8485 0.0
C1442 C 0.52831 0.16759 0.90906 0.0
C1443 C 0.5331 0.18849 0.88679 0.0
H1444 H 0.71685 0.49124 0.6654 0.0
H1445 H 0.69644 0.53364 0.7503 0.0
H1446 H 0.64487 0.53973 0.73341 0.0
H1447 H 0.60779 0.53796 0.69237 0.0
H1448 H 0.62734 0.49305 0.60849 0.0
H1449 H 0.67651 0.4809 0.62785 0.0
C1450 C 0.70081 0.50092 0.68051 0.0
C1451 C 0.71026 0.51193 0.70905 0.0
C1452 C 0.67103 0.5034 0.67101 0.0
C1453 C 0.68955 0.52515 0.72818 0.0
C1454 C 0.66011 0.52845 0.71861 0.0
C1455 C 0.62239 0.52449 0.67879 0.0
C1456 C 0.61413 0.51662 0.64901 0.0
C1457 C 0.6508 0.51821 0.68984 0.0
C1458 C 0.63312 0.49917 0.63156 0.0
C1459 C 0.66147 0.49272 0.64244 0.0
H1460 H 0.29947 0.02953 0.65213 0.0
H1461 H 0.33149 0.988 0.73124 0.0
H1462 H 0.37929 0.97937 0.70691 0.0
H1463 H 0.40933 0.97852 0.66134 0.0
H1464 H 0.37788 0.02022 0.58208 0.0
H1465 H 0.33325 0.03568 0.60882 0.0
C1466 C 0.31733 0.01953 0.66435 0.0
C1467 C 0.3122 0.00971 0.69359 0.0
C1468 C 0.34489 0.01497 0.65028 0.0
C1469 C 0.33509 0.99584 0.70881 0.0
C1470 C 0.36238 0.99098 0.69493 0.0
C1471 C 0.3932 0.99192 0.65022 0.0
C1472 C 0.39684 0.99807 0.61971 0.0
C1473 C 0.36726 0.99987 0.66546 0.0
C1474 C 0.37579 0.01542 0.60559 0.0
C1475 C 0.34999 0.02379 0.62076 0.0
H1476 H 0.71039 0.52851 0.87919 0.0
H1477 H 0.6835 0.4606 0.8122 0.0
H1478 H 0.63487 0.45416 0.83557 0.0
H1479 H 0.60095 0.46575 0.87589 0.0
H1480 H 0.62721 0.53143 0.94502 0.0
H1481 H 0.67465 0.54179 0.91928 0.0
C1482 C 0.69378 0.51244 0.86969 0.0
C1483 C 0.70077 0.49467 0.84428 0.0
C1484 C 0.66565 0.5088 0.88333 0.0
C1485 C 0.67902 0.47397 0.83217 0.0
C1486 C 0.65107 0.4705 0.84532 0.0
C1487 C 0.61688 0.48268 0.88515 0.0
C1488 C 0.61056 0.49784 0.91223 0.0
C1489 C 0.6443 0.48753 0.871 0.0
C1490 C 0.63136 0.51972 0.92397 0.0
C1491 C 0.65863 0.52534 0.90946 0.0
H1492 H 0.3519 0.99691 0.80635 0.0
H1493 H 0.30062 0.03157 0.87975 0.0
H1494 H 0.34492 0.03246 0.91256 0.0
H1495 H 0.39899 0.02906 0.91836 0.0
H1496 H 0.45205 0.00299 0.84288 0.0
H1497 H 0.40634 0.99144 0.81299 0.0
C1498 C 0.35057 0.00433 0.82964 0.0
C1499 C 0.32339 0.0143 0.84086 0.0
C1500 C 0.37632 0.00569 0.84794 0.0
C1501 C 0.32155 0.02408 0.87085 0.0
C1502 C 0.34675 0.02439 0.88954 0.0
C1503 C 0.40038 0.01962 0.89575 0.0
C1504 C 0.42857 0.01602 0.88292 0.0
C1505 C 0.37434 0.01581 0.87815 0.0
C1506 C 0.43044 0.00504 0.8533 0.0
C1507 C 0.40437 0.99905 0.83614 0.0
H1508 H 0.6574 0.69676 0.48753 0.0
H1509 H 0.73941 0.6726 0.52998 0.0
H1510 H 0.71577 0.62466 0.54366 0.0
H1511 H 0.66982 0.59352 0.54971 0.0
H1512 H 0.58801 0.61706 0.50651 0.0
H1513 H 0.61403 0.66052 0.48508 0.0
C1514 C 0.67042 0.68046 0.49868 0.0
C1515 C 0.70019 0.68794 0.50753 0.0
C1516 C 0.65677 0.65283 0.50608 0.0
C1517 C 0.71653 0.66712 0.52288 0.0
C1518 C 0.70303 0.63978 0.53066 0.0
C1519 C 0.658 0.60754 0.53463 0.0
C1520 C 0.62703 0.60237 0.52992 0.0
C1521 C 0.67291 0.63283 0.52316 0.0
C1522 C 0.61189 0.62054 0.51033 0.0
C1523 C 0.62666 0.64567 0.49851 0.0
H1524 H 0.65646 0.31658 0.01979 0.0
H1525 H 0.73626 0.35207 0.97791 0.0
H1526 H 0.71666 0.40213 0.97978 0.0
H1527 H 0.67583 0.43501 0.99015 0.0
H1528 H 0.59443 0.39996 0.02957 0.0
H1529 H 0.61577 0.3507 0.03235 0.0
C1530 C 0.66943 0.33539 0.01117 0.0
C1531 C 0.69747 0.33076 0.99826 0.0
C1532 C 0.65781 0.36412 0.01197 0.0
C1533 C 0.71432 0.35515 0.98732 0.0
C1534 C 0.70324 0.38374 0.98858 0.0
C1535 C 0.66283 0.41672 0.99971 0.0
C1536 C 0.63353 0.4212 0.00945 0.0
C1537 C 0.67485 0.38838 1.00041 0.0
C1538 C 0.61711 0.39725 0.022 0.0
C1539 C 0.6292 0.36897 0.02335 0.0
H1540 H 0.38284 0.2134 0.02165 0.0
H1541 H 0.30901 0.18607 0.96264 0.0
H1542 H 0.32842 0.13619 0.95671 0.0
H1543 H 0.36892 0.10249 0.9636 0.0
H1544 H 0.44558 0.13072 0.01847 0.0
H1545 H 0.42186 0.1774 0.03204 0.0
C1546 C 0.37095 0.19635 0.00776 0.0
C1547 C 0.34493 0.20348 0.99206 0.0
C1548 C 0.38253 0.16777 0.00408 0.0
C1549 C 0.32953 0.18126 0.97427 0.0
C1550 C 0.34045 0.15269 0.9711 0.0
C1551 C 0.38014 0.1185 0.97917 0.0
C1552 C 0.40899 0.11311 0.98994 0.0
C1553 C 0.36728 0.14595 0.98528 0.0
C1554 C 0.42321 0.13411 0.01009 0.0
C1555 C 0.40987 0.16105 0.01745 0.0
H1556 H 0.87582 0.30702 0.98368 0.0
H1557 H 0.79207 0.3305 0.02289 0.0
H1558 H 0.81002 0.38292 0.02809 0.0
H1559 H 0.85049 0.42123 0.02391 0.0
H1560 H 0.93377 0.39847 0.98305 0.0
H1561 H 0.91453 0.3468 0.9745 0.0
C1562 C 0.86143 0.32381 0.99289 0.0
C1563 C 0.8327 0.31519 0.00283 0.0
C1564 C 0.87161 0.35395 0.995 0.0
C1565 C 0.8143 0.33682 0.01521 0.0
C1566 C 0.82447 0.36671 0.01799 0.0
C1567 C 0.86414 0.40509 0.01246 0.0
C1568 C 0.89348 0.4136 0.00418 0.0
C1569 C 0.85315 0.37545 0.00815 0.0
C1570 C 0.911 0.39256 0.98938 0.0
C1571 C 0.90016 0.36292 0.98489 0.0
loop_
_geom_bond_atom_site_label_1
_geom_bond_atom_site_label_2
_geom_bond_distance
_geom_bond_site_symmetry_2
_ccdc_geom_bond_type
C0 C1 1.443 . S
C0 N4 1.376 . S
C0 C38 1.389 . S
C1 C0 1.443 . S
C1 C2 1.340 . S
C1 H41 0.951 . S
C2 C1 1.340 . S
C2 C3 1.439 . S
C2 H42 0.950 . S
C3 C2 1.439 . S
C3 N4 1.374 . S
C3 C37 1.395 . S
N4 C0 1.376 . S
N4 C3 1.374 . S
N4 Co5 2.008 1_655 S
Co5 N4 2.008 1_455 S
Co5 N6 1.995 1_455 S
Co5 N11 2.008 . S
Co5 N16 1.995 . S
Co5 N21 2.282 . S
Co5 N27 2.282 . S
N6 Co5 1.995 1_655 S
N6 C7 1.376 . S
N6 C10 1.381 1_655 S
C7 N6 1.376 . S
C7 C8 1.446 . S
C7 C37 1.391 . S
C8 C7 1.446 . S
C8 C9 1.339 . S
C8 H43 0.949 . S
C9 C8 1.339 . S
C9 C10 1.435 1_655 S
C9 H44 0.950 . S
C10 N6 1.381 1_455 S
C10 C9 1.435 1_455 S
C10 C39 1.397 . S
N11 Co5 2.008 . S
N11 C12 1.376 . S
N11 C15 1.374 . S
C12 N11 1.376 . S
C12 C13 1.443 . S
C12 C39 1.389 . S
C13 C12 1.443 . S
C13 C14 1.340 . S
C13 H45 0.951 . S
C14 C13 1.340 . S
C14 C15 1.439 . S
C14 H46 0.950 . S
C15 N11 1.374 . S
C15 C14 1.439 . S
C15 C40 1.395 . S
N16 Co5 1.995 . S
N16 C17 1.376 . S
N16 C20 1.383 . S
C17 N16 1.376 . S
C17 C18 1.446 . S
C17 C40 1.391 . S
C18 C17 1.446 . S
C18 C19 1.339 . S
C18 H47 0.949 . S
C19 C18 1.339 . S
C19 C20 1.439 . S
C19 H48 0.950 . S
C20 N16 1.383 . S
C20 C19 1.439 . S
C20 C38 1.392 1_455 S
N21 Co5 2.282 . S
N21 C24 1.332 . S
N21 C26 1.332 1_455 S
C22 C23 1.386 . S
C22 C25 1.388 . S
C23 C22 1.386 . S
C23 C24 1.382 . S
C23 H49 0.950 . S
C24 N21 1.332 . S
C24 C23 1.382 . S
C24 H35 0.952 . S
C25 C22 1.388 . S
C25 C26 1.382 1_455 S
C25 H50 0.950 1_455 S
C26 N21 1.332 1_655 S
C26 C25 1.382 1_655 S
C26 H36 0.948 . S
N27 Co5 2.282 . S
N27 C31 1.332 1_455 S
N27 C32 1.332 . S
C28 C29 1.388 1_455 S
C28 C32 1.382 . S
C28 H51 0.950 . S
C29 C28 1.388 1_655 S
C29 C30 1.386 . S
C30 C29 1.386 . S
C30 C31 1.382 . S
C30 H52 0.950 . S
C31 N27 1.332 1_655 S
C31 C30 1.382 . S
C31 H33 0.952 . S
C32 N27 1.332 . S
C32 C28 1.382 . S
C32 H34 0.948 . S
H33 C31 0.952 . S
H34 C32 0.948 . S
H35 C24 0.952 . S
H36 C26 0.948 . S
C37 C3 1.395 . S
C37 C7 1.391 . S
C38 C0 1.389 . S
C38 C20 1.392 1_655 S
C39 C10 1.397 . S
C39 C12 1.389 . S
C40 C15 1.395 . S
C40 C17 1.391 . S
H41 C1 0.951 . S
H42 C2 0.950 . S
H43 C8 0.949 . S
H44 C9 0.950 . S
H45 C13 0.951 . S
H46 C14 0.950 . S
H47 C18 0.949 . S
H48 C19 0.950 . S
H49 C23 0.950 . S
H50 C25 0.950 1_655 S
H51 C28 0.950 . S
H52 C30 0.950 . S
C53 C54 1.443 . S
C53 N57 1.376 . S
C53 C91 1.389 . S
C54 C53 1.443 . S
C54 C55 1.340 . S
C54 H94 0.951 . S
C55 C54 1.340 . S
C55 C56 1.439 . S
C55 H95 0.950 . S
C56 C55 1.439 . S
C56 N57 1.374 . S
C56 C90 1.395 . S
N57 C53 1.376 . S
N57 C56 1.374 . S
N57 Co58 2.008 1_655 S
Co58 N57 2.008 1_455 S
Co58 N59 1.995 1_455 S
Co58 N64 2.008 . S
Co58 N69 1.995 . S
Co58 N74 2.282 . S
Co58 N80 2.282 1_455 S
N59 Co58 1.995 1_655 S
N59 C60 1.376 . S
N59 C63 1.383 . S
C60 N59 1.376 . S
C60 C61 1.446 . S
C60 C90 1.391 . S
C61 C60 1.446 . S
C61 C62 1.339 . S
C61 H96 0.949 . S
C62 C61 1.339 . S
C62 C63 1.439 . S
C62 H97 0.950 . S
C63 N59 1.383 . S
C63 C62 1.439 . S
C63 C92 1.392 1_655 S
N64 Co58 2.008 . S
N64 C65 1.376 . S
N64 C68 1.374 . S
C65 N64 1.376 . S
C65 C66 1.443 . S
C65 C92 1.389 . S
C66 C65 1.443 . S
C66 C67 1.340 . S
C66 H98 0.951 . S
C67 C66 1.340 . S
C67 C68 1.439 . S
C67 H99 0.950 . S
C68 N64 1.374 . S
C68 C67 1.439 . S
C68 C93 1.395 . S
N69 Co58 1.995 . S
N69 C70 1.376 . S
N69 C73 1.383 . S
C70 N69 1.376 . S
C70 C71 1.446 . S
C70 C93 1.391 . S
C71 C70 1.446 . S
C71 C72 1.339 . S
C71 H100 0.949 . S
C72 C71 1.339 . S
C72 C73 1.439 . S
C72 H101 0.950 . S
C73 N69 1.383 . S
C73 C72 1.439 . S
C73 C91 1.392 1_455 S
N74 Co58 2.282 . S
N74 C77 1.332 . S
N74 C79 1.332 1_455 S
C75 C76 1.386 . S
C75 C78 1.388 1_455 S
C76 C75 1.386 . S
C76 C77 1.382 . S
C76 H102 0.950 . S
C77 N74 1.332 . S
C77 C76 1.382 . S
C77 H88 0.952 . S
C78 C75 1.388 1_655 S
C78 C79 1.382 . S
C78 H103 0.950 . S
C79 N74 1.332 1_655 S
C79 C78 1.382 . S
C79 H89 0.948 . S
N80 Co58 2.282 1_655 S
N80 C84 1.332 . S
N80 C85 1.332 1_655 S
C81 C82 1.388 1_455 S
C81 C85 1.382 . S
C81 H104 0.950 . S
C82 C81 1.388 1_655 S
C82 C83 1.386 . S
C83 C82 1.386 . S
C83 C84 1.382 . S
C83 H105 0.950 . S
C84 N80 1.332 . S
C84 C83 1.382 . S
C84 H86 0.952 . S
C85 N80 1.332 1_455 S
C85 C81 1.382 . S
C85 H87 0.948 . S
H86 C84 0.952 . S
H87 C85 0.948 . S
H88 C77 0.952 . S
H89 C79 0.948 . S
C90 C56 1.395 . S
C90 C60 1.391 . S
C91 C53 1.389 . S
C91 C73 1.392 1_655 S
C92 C63 1.392 1_455 S
C92 C65 1.389 . S
C93 C68 1.395 . S
C93 C70 1.391 . S
H94 C54 0.951 . S
H95 C55 0.950 . S
H96 C61 0.949 . S
H97 C62 0.950 . S
H98 C66 0.951 . S
H99 C67 0.950 . S
H100 C71 0.949 . S
H101 C72 0.950 . S
H102 C76 0.950 . S
H103 C78 0.950 . S
H104 C81 0.950 . S
H105 C83 0.950 . S
C106 C107 1.443 . S
C106 N110 1.376 . S
C106 C144 1.389 . S
C107 C106 1.443 . S
C107 C108 1.340 . S
C107 H147 0.951 . S
C108 C107 1.340 . S
C108 C109 1.439 . S
C108 H148 0.950 . S
C109 C108 1.439 . S
C109 N110 1.374 . S
C109 C143 1.395 . S
N110 C106 1.376 . S
N110 C109 1.374 . S
N110 Co111 2.008 1_565 S
Co111 N110 2.008 1_545 S
Co111 N112 1.995 1_545 S
Co111 N117 2.008 . S
Co111 N122 1.995 . S
Co111 N127 2.282 . S
Co111 N133 2.282 . S
N112 Co111 1.995 1_565 S
N112 C113 1.376 . S
N112 C116 1.383 . S
C113 N112 1.376 . S
C113 C114 1.446 . S
C113 C143 1.391 . S
C114 C113 1.446 . S
C114 C115 1.339 . S
C114 H149 0.949 . S
C115 C114 1.339 . S
C115 C116 1.439 . S
C115 H150 0.950 . S
C116 N112 1.383 . S
C116 C115 1.439 . S
C116 C145 1.392 1_565 S
N117 Co111 2.008 . S
N117 C118 1.376 . S
N117 C121 1.374 . S
C118 N117 1.376 . S
C118 C119 1.443 . S
C118 C145 1.389 . S
C119 C118 1.443 . S
C119 C120 1.340 . S
C119 H151 0.951 . S
C120 C119 1.340 . S
C120 C121 1.439 . S
C120 H152 0.950 . S
C121 N117 1.374 . S
C121 C120 1.439 . S
C121 C146 1.395 . S
N122 Co111 1.995 . S
N122 C123 1.376 . S
N122 C126 1.383 . S
C123 N122 1.376 . S
C123 C124 1.446 . S
C123 C146 1.391 . S
C124 C123 1.446 . S
C124 C125 1.339 . S
C124 H153 0.949 . S
C125 C124 1.339 . S
C125 C126 1.439 . S
C125 H154 0.950 . S
C126 N122 1.383 . S
C126 C125 1.439 . S
C126 C144 1.392 1_545 S
N127 Co111 2.282 . S
N127 C130 1.332 . S
N127 C132 1.332 1_545 S
C128 C129 1.386 . S
C128 C131 1.388 . S
C129 C128 1.386 . S
C129 C130 1.382 . S
C129 H155 0.950 . S
C130 N127 1.332 . S
C130 C129 1.382 . S
C130 H141 0.952 . S
C131 C128 1.388 . S
C131 C132 1.382 1_545 S
C131 H156 0.950 1_545 S
C132 N127 1.332 1_565 S
C132 C131 1.382 1_565 S
C132 H142 0.948 . S
N133 Co111 2.282 . S
N133 C137 1.332 1_545 S
N133 C138 1.332 . S
C134 C135 1.388 1_545 S
C134 C138 1.382 . S
C134 H157 0.950 . S
C135 C134 1.388 1_565 S
C135 C136 1.386 . S
C136 C135 1.386 . S
C136 C137 1.382 . S
C136 H158 0.950 . S
C137 N133 1.332 1_565 S
C137 C136 1.382 . S
C137 H139 0.952 . S
C138 N133 1.332 . S
C138 C134 1.382 . S
C138 H140 0.948 . S
H139 C137 0.952 . S
H140 C138 0.948 . S
H141 C130 0.952 . S
H142 C132 0.948 . S
C143 C109 1.395 . S
C143 C113 1.391 . S
C144 C106 1.389 . S
C144 C126 1.392 1_565 S
C145 C116 1.392 1_545 S
C145 C118 1.389 . S
C146 C121 1.395 . S
C146 C123 1.391 . S
H147 C107 0.951 . S
H148 C108 0.950 . S
H149 C114 0.949 . S
H150 C115 0.950 . S
H151 C119 0.951 . S
H152 C120 0.950 . S
H153 C124 0.949 . S
H154 C125 0.950 . S
H155 C129 0.950 . S
H156 C131 0.950 1_565 S
H157 C134 0.950 . S
H158 C136 0.950 . S
C159 C160 1.443 . S
C159 N163 1.376 . S
C159 C197 1.389 . S
C160 C159 1.443 . S
C160 C161 1.340 . S
C160 H200 0.951 . S
C161 C160 1.340 . S
C161 C162 1.439 . S
C161 H201 0.950 . S
C162 C161 1.439 . S
C162 N163 1.374 . S
C162 C196 1.395 . S
N163 C159 1.376 . S
N163 C162 1.374 . S
N163 Co164 2.008 . S
Co164 N163 2.008 . S
Co164 N165 1.995 . S
Co164 N170 2.008 . S
Co164 N175 1.995 . S
Co164 N180 2.282 . S
Co164 N186 2.282 . S
N165 Co164 1.995 . S
N165 C166 1.376 . S
N165 C169 1.383 . S
C166 N165 1.376 . S
C166 C167 1.446 . S
C166 C196 1.391 . S
C167 C166 1.446 . S
C167 C168 1.339 . S
C167 H202 0.949 . S
C168 C167 1.339 . S
C168 C169 1.439 . S
C168 H203 0.950 . S
C169 N165 1.383 . S
C169 C168 1.439 . S
C169 C198 1.392 . S
N170 Co164 2.008 . S
N170 C171 1.376 . S
N170 C174 1.374 . S
C171 N170 1.376 . S
C171 C172 1.443 . S
C171 C198 1.389 . S
C172 C171 1.443 . S
C172 C173 1.340 . S
C172 H204 0.951 . S
C173 C172 1.340 . S
C173 C174 1.439 . S
C173 H205 0.950 . S
C174 N170 1.374 . S
C174 C173 1.439 . S
C174 C199 1.395 . S
N175 Co164 1.995 . S
N175 C176 1.376 . S
N175 C179 1.383 . S
C176 N175 1.376 . S
C176 C177 1.446 . S
C176 C199 1.391 . S
C177 C176 1.446 . S
C177 C178 1.339 . S
C177 H206 0.949 . S
C178 C177 1.339 . S
C178 C179 1.439 . S
C178 H207 0.950 . S
C179 N175 1.383 . S
C179 C178 1.439 . S
C179 C197 1.392 . S
N180 Co164 2.282 . S
N180 C183 1.332 . S
N180 C185 1.332 . S
C181 C182 1.386 . S
C181 C184 1.388 . S
C182 C181 1.386 . S
C182 C183 1.382 . S
C182 H208 0.950 . S
C183 N180 1.332 . S
C183 C182 1.382 . S
C183 H194 0.952 . S
C184 C181 1.388 . S
C184 C185 1.382 . S
C184 H209 0.950 . S
C185 N180 1.332 . S
C185 C184 1.382 . S
C185 H195 0.948 . S
N186 Co164 2.282 . S
N186 C190 1.332 . S
N186 C191 1.332 . S
C187 C188 1.388 . S
C187 C191 1.382 . S
C187 H210 0.950 . S
C188 C187 1.388 . S
C188 C189 1.386 . S
C189 C188 1.386 . S
C189 C190 1.382 . S
C189 H211 0.950 . S
C190 N186 1.332 . S
C190 C189 1.382 . S
C190 H192 0.952 . S
C191 N186 1.332 . S
C191 C187 1.382 . S
C191 H193 0.948 . S
H192 C190 0.952 . S
H193 C191 0.948 . S
H194 C183 0.952 . S
H195 C185 0.948 . S
C196 C162 1.395 . S
C196 C166 1.391 . S
C197 C159 1.389 . S
C197 C179 1.392 . S
C198 C169 1.392 . S
C198 C171 1.389 . S
C199 C174 1.395 . S
C199 C176 1.391 . S
H200 C160 0.951 . S
H201 C161 0.950 . S
H202 C167 0.949 . S
H203 C168 0.950 . S
H204 C172 0.951 . S
H205 C173 0.950 . S
H206 C177 0.949 . S
H207 C178 0.950 . S
H208 C182 0.950 . S
H209 C184 0.950 . S
H210 C187 0.950 . S
H211 C189 0.950 . S
C212 C213 1.443 . S
C212 N216 1.376 . S
C212 C250 1.389 . S
C213 C212 1.443 . S
C213 C214 1.340 . S
C213 H253 0.951 . S
C214 C213 1.340 . S
C214 C215 1.439 . S
C214 H254 0.950 . S
C215 C214 1.439 . S
C215 N216 1.374 . S
C215 C249 1.395 . S
N216 C212 1.376 . S
N216 C215 1.374 . S
N216 Co217 2.008 1_556 S
Co217 N216 2.008 1_554 S
Co217 N218 1.995 1_554 S
Co217 N223 2.008 . S
Co217 N228 1.995 . S
Co217 N233 2.282 . S
Co217 N239 2.285 . S
N218 Co217 1.995 1_556 S
N218 C219 1.376 . S
N218 C222 1.383 . S
C219 N218 1.376 . S
C219 C220 1.446 . S
C219 C249 1.391 . S
C220 C219 1.446 . S
C220 C221 1.339 . S
C220 H255 0.949 . S
C221 C220 1.339 . S
C221 C222 1.439 . S
C221 H256 0.950 . S
C222 N218 1.383 . S
C222 C221 1.439 . S
C222 C251 1.392 1_556 S
N223 Co217 2.008 . S
N223 C224 1.376 . S
N223 C227 1.374 . S
C224 N223 1.376 . S
C224 C225 1.443 . S
C224 C251 1.389 . S
C225 C224 1.443 . S
C225 C226 1.340 . S
C225 H257 0.951 . S
C226 C225 1.340 . S
C226 C227 1.439 . S
C226 H258 0.950 . S
C227 N223 1.374 . S
C227 C226 1.439 . S
C227 C252 1.395 . S
N228 Co217 1.995 . S
N228 C229 1.376 . S
N228 C232 1.383 . S
C229 N228 1.376 . S
C229 C230 1.446 . S
C229 C252 1.391 . S
C230 C229 1.446 . S
C230 C231 1.339 . S
C230 H259 0.949 . S
C231 C230 1.339 . S
C231 C232 1.439 . S
C231 H260 0.950 . S
C232 N228 1.383 . S
C232 C231 1.439 . S
C232 C250 1.392 1_554 S
N233 Co217 2.282 . S
N233 C236 1.332 . S
N233 C238 1.332 1_554 S
C234 C235 1.386 . S
C234 C237 1.388 1_554 S
C235 C234 1.386 . S
C235 C236 1.382 . S
C235 H261 0.950 . S
C236 N233 1.332 . S
C236 C235 1.382 . S
C236 H247 0.952 . S
C237 C234 1.388 1_556 S
C237 C238 1.382 . S
C237 H262 0.950 . S
C238 N233 1.332 1_556 S
C238 C237 1.382 . S
C238 H248 0.948 . S
N239 Co217 2.285 . S
N239 C243 1.314 1_554 S
N239 C244 1.346 . S
C240 C241 1.388 1_554 S
C240 C244 1.382 . S
C240 H263 0.950 . S
C241 C240 1.388 1_556 S
C241 C242 1.386 . S
C242 C241 1.386 . S
C242 C243 1.382 . S
C242 H264 0.950 . S
C243 N239 1.314 1_556 S
C243 C242 1.382 . S
C243 H245 0.952 . S
C244 N239 1.346 . S
C244 C240 1.382 . S
C244 H246 0.948 . S
H245 C243 0.952 . S
H246 C244 0.948 . S
H247 C236 0.952 . S
H248 C238 0.948 . S
C249 C215 1.395 . S
C249 C219 1.391 . S
C250 C212 1.389 . S
C250 C232 1.392 1_556 S
C251 C222 1.392 1_554 S
C251 C224 1.389 . S
C252 C227 1.395 . S
C252 C229 1.391 . S
H253 C213 0.951 . S
H254 C214 0.950 . S
H255 C220 0.949 . S
H256 C221 0.950 . S
H257 C225 0.951 . S
H258 C226 0.950 . S
H259 C230 0.949 . S
H260 C231 0.950 . S
H261 C235 0.950 . S
H262 C237 0.950 . S
H263 C240 0.950 . S
H264 C242 0.950 . S
C265 C266 1.443 . S
C265 N269 1.376 . S
C265 C303 1.389 . S
C266 C265 1.443 . S
C266 C267 1.340 . S
C266 H306 0.951 . S
C267 C266 1.340 . S
C267 C268 1.439 . S
C267 H307 0.950 . S
C268 C267 1.439 . S
C268 N269 1.374 . S
C268 C302 1.395 . S
N269 C265 1.376 . S
N269 C268 1.374 . S
N269 Co270 2.008 . S
Co270 N269 2.008 . S
Co270 N271 1.995 . S
Co270 N276 2.008 . S
Co270 N281 1.995 . S
Co270 N286 2.282 . S
Co270 N292 2.282 . S
N271 Co270 1.995 . S
N271 C272 1.376 . S
N271 C275 1.383 . S
C272 N271 1.376 . S
C272 C273 1.446 . S
C272 C302 1.391 . S
C273 C272 1.446 . S
C273 C274 1.339 . S
C273 H308 0.949 . S
C274 C273 1.339 . S
C274 C275 1.439 . S
C274 H309 0.950 . S
C275 N271 1.383 . S
C275 C274 1.439 . S
C275 C304 1.392 . S
N276 Co270 2.008 . S
N276 C277 1.376 . S
N276 C280 1.374 . S
C277 N276 1.376 . S
C277 C278 1.443 . S
C277 C304 1.389 . S
C278 C277 1.443 . S
C278 C279 1.340 . S
C278 H310 0.951 . S
C279 C278 1.340 . S
C279 C280 1.439 . S
C279 H311 0.950 . S
C280 N276 1.374 . S
C280 C279 1.439 . S
C280 C305 1.395 . S
N281 Co270 1.995 . S
N281 C282 1.376 . S
N281 C285 1.383 . S
C282 N281 1.376 . S
C282 C283 1.446 . S
C282 C305 1.391 . S
C283 C282 1.446 . S
C283 C284 1.339 . S
C283 H312 0.949 . S
C284 C283 1.339 . S
C284 C285 1.439 . S
C284 H313 0.950 . S
C285 N281 1.383 . S
C285 C284 1.439 . S
C285 C303 1.392 . S
N286 Co270 2.282 . S
N286 C289 1.332 . S
N286 C291 1.332 . S
C287 C288 1.386 . S
C287 C290 1.388 . S
C288 C287 1.386 . S
C288 C289 1.382 . S
C288 H314 0.950 . S
C289 N286 1.332 . S
C289 C288 1.382 . S
C289 H300 0.952 . S
C290 C287 1.388 . S
C290 C291 1.382 . S
C290 H315 0.950 . S
C291 N286 1.332 . S
C291 C290 1.382 . S
C291 H301 0.948 . S
N292 Co270 2.282 . S
N292 C296 1.332 . S
N292 C297 1.332 . S
C293 C294 1.388 . S
C293 C297 1.382 . S
C293 H316 0.950 . S
C294 C293 1.388 . S
C294 C295 1.386 . S
C295 C294 1.386 . S
C295 C296 1.382 . S
C295 H317 0.950 . S
C296 N292 1.332 . S
C296 C295 1.382 . S
C296 H298 0.952 . S
C297 N292 1.332 . S
C297 C293 1.382 . S
C297 H299 0.948 . S
H298 C296 0.952 . S
H299 C297 0.948 . S
H300 C289 0.952 . S
H301 C291 0.948 . S
C302 C268 1.395 . S
C302 C272 1.391 . S
C303 C265 1.389 . S
C303 C285 1.392 . S
C304 C275 1.392 . S
C304 C277 1.389 . S
C305 C280 1.395 . S
C305 C282 1.391 . S
H306 C266 0.951 . S
H307 C267 0.950 . S
H308 C273 0.949 . S
H309 C274 0.950 . S
H310 C278 0.951 . S
H311 C279 0.950 . S
H312 C283 0.949 . S
H313 C284 0.950 . S
H314 C288 0.950 . S
H315 C290 0.950 . S
H316 C293 0.950 . S
H317 C295 0.950 . S
C318 C319 1.443 . S
C318 N322 1.376 . S
C318 C356 1.389 . S
C319 C318 1.443 . S
C319 C320 1.340 . S
C319 H359 0.951 . S
C320 C319 1.340 . S
C320 C321 1.439 . S
C320 H360 0.950 . S
C321 C320 1.439 . S
C321 N322 1.374 . S
C321 C355 1.395 . S
N322 C318 1.376 . S
N322 C321 1.374 . S
N322 Co323 2.008 . S
Co323 N322 2.008 . S
Co323 N324 1.995 . S
Co323 N329 2.008 . S
Co323 N334 1.995 . S
Co323 N339 2.282 . S
Co323 N345 2.282 . S
N324 Co323 1.995 . S
N324 C325 1.376 . S
N324 C328 1.383 . S
C325 N324 1.376 . S
C325 C326 1.446 . S
C325 C355 1.391 . S
C326 C325 1.446 . S
C326 C327 1.339 . S
C326 H361 0.949 . S
C327 C326 1.339 . S
C327 C328 1.439 . S
C327 H362 0.950 . S
C328 N324 1.383 . S
C328 C327 1.439 . S
C328 C357 1.392 . S
N329 Co323 2.008 . S
N329 C330 1.376 . S
N329 C333 1.374 . S
C330 N329 1.376 . S
C330 C331 1.443 . S
C330 C357 1.389 . S
C331 C330 1.443 . S
C331 C332 1.340 . S
C331 H363 0.951 . S
C332 C331 1.340 . S
C332 C333 1.439 . S
C332 H364 0.950 . S
C333 N329 1.374 . S
C333 C332 1.439 . S
C333 C358 1.395 . S
N334 Co323 1.995 . S
N334 C335 1.376 . S
N334 C338 1.383 . S
C335 N334 1.376 . S
C335 C336 1.446 . S
C335 C358 1.391 . S
C336 C335 1.446 . S
C336 C337 1.339 . S
C336 H365 0.949 . S
C337 C336 1.339 . S
C337 C338 1.439 . S
C337 H366 0.950 . S
C338 N334 1.383 . S
C338 C337 1.439 . S
C338 C356 1.392 . S
N339 Co323 2.282 . S
N339 C342 1.332 . S
N339 C344 1.332 . S
C340 C341 1.386 . S
C340 C343 1.388 . S
C341 C340 1.386 . S
C341 C342 1.382 . S
C341 H367 0.950 . S
C342 N339 1.332 . S
C342 C341 1.382 . S
C342 H353 0.952 . S
C343 C340 1.388 . S
C343 C344 1.382 . S
C343 H368 0.950 . S
C344 N339 1.332 . S
C344 C343 1.382 . S
C344 H354 0.948 . S
N345 Co323 2.282 . S
N345 C349 1.332 . S
N345 C350 1.332 . S
C346 C347 1.388 . S
C346 C350 1.382 . S
C346 H369 0.950 . S
C347 C346 1.388 . S
C347 C348 1.386 . S
C348 C347 1.386 . S
C348 C349 1.382 . S
C348 H370 0.950 . S
C349 N345 1.332 . S
C349 C348 1.382 . S
C349 H351 0.952 . S
C350 N345 1.332 . S
C350 C346 1.382 . S
C350 H352 0.948 . S
H351 C349 0.952 . S
H352 C350 0.948 . S
H353 C342 0.952 . S
H354 C344 0.948 . S
C355 C321 1.395 . S
C355 C325 1.391 . S
C356 C318 1.389 . S
C356 C338 1.392 . S
C357 C328 1.392 . S
C357 C330 1.389 . S
C358 C333 1.395 . S
C358 C335 1.391 . S
H359 C319 0.951 . S
H360 C320 0.950 . S
H361 C326 0.949 . S
H362 C327 0.950 . S
H363 C331 0.951 . S
H364 C332 0.950 . S
H365 C336 0.949 . S
H366 C337 0.950 . S
H367 C341 0.950 . S
H368 C343 0.950 . S
H369 C346 0.950 . S
H370 C348 0.950 . S
C371 C372 1.443 . S
C371 N375 1.376 . S
C371 C409 1.389 . S
C372 C371 1.443 . S
C372 C373 1.340 . S
C372 H412 0.951 . S
C373 C372 1.340 . S
C373 C374 1.439 . S
C373 H413 0.950 . S
C374 C373 1.439 . S
C374 N375 1.374 . S
C374 C408 1.395 . S
N375 C371 1.376 . S
N375 C374 1.374 . S
N375 Co376 2.008 . S
Co376 N375 2.008 . S
Co376 N377 1.995 . S
Co376 N382 2.008 . S
Co376 N387 1.995 . S
Co376 N392 2.282 . S
Co376 N398 2.282 . S
N377 Co376 1.995 . S
N377 C378 1.376 . S
N377 C381 1.383 . S
C378 N377 1.376 . S
C378 C379 1.446 . S
C378 C408 1.391 . S
C379 C378 1.446 . S
C379 C380 1.339 . S
C379 H414 0.949 . S
C380 C379 1.339 . S
C380 C381 1.439 . S
C380 H415 0.950 . S
C381 N377 1.383 . S
C381 C380 1.439 . S
C381 C410 1.392 . S
N382 Co376 2.008 . S
N382 C383 1.376 . S
N382 C386 1.374 . S
C383 N382 1.376 . S
C383 C384 1.443 . S
C383 C410 1.389 . S
C384 C383 1.443 . S
C384 C385 1.340 . S
C384 H416 0.951 . S
C385 C384 1.340 . S
C385 C386 1.439 . S
C385 H417 0.950 . S
C386 N382 1.374 . S
C386 C385 1.439 . S
C386 C411 1.395 . S
N387 Co376 1.995 . S
N387 C388 1.376 . S
N387 C391 1.383 . S
C388 N387 1.376 . S
C388 C389 1.446 . S
C388 C411 1.391 . S
C389 C388 1.446 . S
C389 C390 1.339 . S
C389 H418 0.949 . S
C390 C389 1.339 . S
C390 C391 1.439 . S
C390 H419 0.950 . S
C391 N387 1.383 . S
C391 C390 1.439 . S
C391 C409 1.392 . S
N392 Co376 2.282 . S
N392 C395 1.332 . S
N392 C397 1.332 . S
C393 C394 1.386 . S
C393 C396 1.388 . S
C394 C393 1.386 . S
C394 C395 1.382 . S
C394 H420 0.950 . S
C395 N392 1.332 . S
C395 C394 1.382 . S
C395 H406 0.952 . S
C396 C393 1.388 . S
C396 C397 1.382 . S
C396 H421 0.950 . S
C397 N392 1.332 . S
C397 C396 1.382 . S
C397 H407 0.948 . S
N398 Co376 2.282 . S
N398 C402 1.332 . S
N398 C403 1.332 . S
C399 C400 1.388 . S
C399 C403 1.382 . S
C399 H422 0.950 . S
C400 C399 1.388 . S
C400 C401 1.386 . S
C401 C400 1.386 . S
C401 C402 1.382 . S
C401 H423 0.950 . S
C402 N398 1.332 . S
C402 C401 1.382 . S
C402 H404 0.952 . S
C403 N398 1.332 . S
C403 C399 1.382 . S
C403 H405 0.948 . S
H404 C402 0.952 . S
H405 C403 0.948 . S
H406 C395 0.952 . S
H407 C397 0.948 . S
C408 C374 1.395 . S
C408 C378 1.391 . S
C409 C371 1.389 . S
C409 C391 1.392 . S
C410 C381 1.392 . S
C410 C383 1.389 . S
C411 C386 1.395 . S
C411 C388 1.391 . S
H412 C372 0.951 . S
H413 C373 0.950 . S
H414 C379 0.949 . S
H415 C380 0.950 . S
H416 C384 0.951 . S
H417 C385 0.950 . S
H418 C389 0.949 . S
H419 C390 0.950 . S
H420 C394 0.950 . S
H421 C396 0.950 . S
H422 C399 0.950 . S
H423 C401 0.950 . S
C424 C425 1.443 . S
C424 N428 1.376 . S
C424 C462 1.389 . S
C425 C424 1.443 . S
C425 C426 1.340 . S
C425 H465 0.951 . S
C426 C425 1.340 . S
C426 C427 1.439 . S
C426 H466 0.950 . S
C427 C426 1.439 . S
C427 N428 1.374 . S
C427 C461 1.395 . S
N428 C424 1.376 . S
N428 C427 1.374 . S
N428 Co429 2.008 . S
Co429 N428 2.008 . S
Co429 N430 1.995 . S
Co429 N435 2.008 . S
Co429 N440 1.995 . S
Co429 N445 2.282 . S
Co429 N451 2.282 . S
N430 Co429 1.995 . S
N430 C431 1.376 . S
N430 C434 1.383 . S
C431 N430 1.376 . S
C431 C432 1.446 . S
C431 C461 1.391 . S
C432 C431 1.446 . S
C432 C433 1.339 . S
C432 H467 0.949 . S
C433 C432 1.339 . S
C433 C434 1.439 . S
C433 H468 0.950 . S
C434 N430 1.383 . S
C434 C433 1.439 . S
C434 C463 1.392 . S
N435 Co429 2.008 . S
N435 C436 1.376 . S
N435 C439 1.374 . S
C436 N435 1.376 . S
C436 C437 1.443 . S
C436 C463 1.389 . S
C437 C436 1.443 . S
C437 C438 1.340 . S
C437 H469 0.951 . S
C438 C437 1.340 . S
C438 C439 1.439 . S
C438 H470 0.950 . S
C439 N435 1.374 . S
C439 C438 1.439 . S
C439 C464 1.395 . S
N440 Co429 1.995 . S
N440 C441 1.376 . S
N440 C444 1.383 . S
C441 N440 1.376 . S
C441 C442 1.446 . S
C441 C464 1.391 . S
C442 C441 1.446 . S
C442 C443 1.339 . S
C442 H471 0.949 . S
C443 C442 1.339 . S
C443 C444 1.439 . S
C443 H472 0.950 . S
C444 N440 1.383 . S
C444 C443 1.439 . S
C444 C462 1.392 . S
N445 Co429 2.282 . S
N445 C448 1.332 . S
N445 C450 1.332 . S
C446 C447 1.386 . S
C446 C449 1.388 . S
C447 C446 1.386 . S
C447 C448 1.382 . S
C447 H473 0.950 . S
C448 N445 1.332 . S
C448 C447 1.382 . S
C448 H459 0.952 . S
C449 C446 1.388 . S
C449 C450 1.382 . S
C449 H474 0.950 . S
C450 N445 1.332 . S
C450 C449 1.382 . S
C450 H460 0.948 . S
N451 Co429 2.282 . S
N451 C455 1.332 . S
N451 C456 1.332 . S
C452 C453 1.388 . S
C452 C456 1.382 . S
C452 H475 0.950 . S
C453 C452 1.388 . S
C453 C454 1.386 . S
C454 C453 1.386 . S
C454 C455 1.382 . S
C454 H476 0.950 . S
C455 N451 1.332 . S
C455 C454 1.382 . S
C455 H457 0.952 . S
C456 N451 1.332 . S
C456 C452 1.382 . S
C456 H458 0.948 . S
H457 C455 0.952 . S
H458 C456 0.948 . S
H459 C448 0.952 . S
H460 C450 0.948 . S
C461 C427 1.395 . S
C461 C431 1.391 . S
C462 C424 1.389 . S
C462 C444 1.392 . S
C463 C434 1.392 . S
C463 C436 1.389 . S
C464 C439 1.395 . S
C464 C441 1.391 . S
H465 C425 0.951 . S
H466 C426 0.950 . S
H467 C432 0.949 . S
H468 C433 0.950 . S
H469 C437 0.951 . S
H470 C438 0.950 . S
H471 C442 0.949 . S
H472 C443 0.950 . S
H473 C447 0.950 . S
H474 C449 0.950 . S
H475 C452 0.950 . S
H476 C454 0.950 . S
C477 C478 1.443 . S
C477 N481 1.376 . S
C477 C515 1.389 . S
C478 C477 1.443 . S
C478 C479 1.340 . S
C478 H518 0.951 . S
C479 C478 1.340 . S
C479 C480 1.439 . S
C479 H519 0.950 . S
C480 C479 1.439 . S
C480 N481 1.374 . S
C480 C514 1.395 . S
N481 C477 1.376 . S
N481 C480 1.374 . S
N481 Co482 2.008 . S
Co482 N481 2.008 . S
Co482 N483 1.995 . S
Co482 N488 2.008 . S
Co482 N493 1.995 . S
Co482 N498 2.282 . S
Co482 N504 2.282 . S
N483 Co482 1.995 . S
N483 C484 1.376 . S
N483 C487 1.383 . S
C484 N483 1.376 . S
C484 C485 1.446 . S
C484 C514 1.391 . S
C485 C484 1.446 . S
C485 C486 1.339 . S
C485 H520 0.949 . S
C486 C485 1.339 . S
C486 C487 1.439 . S
C486 H521 0.950 . S
C487 N483 1.383 . S
C487 C486 1.439 . S
C487 C516 1.392 . S
N488 Co482 2.008 . S
N488 C489 1.376 . S
N488 C492 1.374 . S
C489 N488 1.376 . S
C489 C490 1.443 . S
C489 C516 1.389 . S
C490 C489 1.443 . S
C490 C491 1.340 . S
C490 H522 0.951 . S
C491 C490 1.340 . S
C491 C492 1.439 . S
C491 H523 0.950 . S
C492 N488 1.374 . S
C492 C491 1.439 . S
C492 C517 1.395 . S
N493 Co482 1.995 . S
N493 C494 1.376 . S
N493 C497 1.383 . S
C494 N493 1.376 . S
C494 C495 1.446 . S
C494 C517 1.391 . S
C495 C494 1.446 . S
C495 C496 1.339 . S
C495 H524 0.949 . S
C496 C495 1.339 . S
C496 C497 1.439 . S
C496 H525 0.950 . S
C497 N493 1.383 . S
C497 C496 1.439 . S
C497 C515 1.392 . S
N498 Co482 2.282 . S
N498 C501 1.332 . S
N498 C503 1.332 . S
C499 C500 1.386 . S
C499 C502 1.388 . S
C500 C499 1.386 . S
C500 C501 1.382 . S
C500 H526 0.950 . S
C501 N498 1.332 . S
C501 C500 1.382 . S
C501 H512 0.952 . S
C502 C499 1.388 . S
C502 C503 1.382 . S
C502 H527 0.950 . S
C503 N498 1.332 . S
C503 C502 1.382 . S
C503 H513 0.948 . S
N504 Co482 2.282 . S
N504 C508 1.332 . S
N504 C509 1.332 . S
C505 C506 1.388 . S
C505 C509 1.382 . S
C505 H528 0.950 . S
C506 C505 1.388 . S
C506 C507 1.386 . S
C507 C506 1.386 . S
C507 C508 1.382 . S
C507 H529 0.950 . S
C508 N504 1.332 . S
C508 C507 1.382 . S
C508 H510 0.952 . S
C509 N504 1.332 . S
C509 C505 1.382 . S
C509 H511 0.948 . S
H510 C508 0.952 . S
H511 C509 0.948 . S
H512 C501 0.952 . S
H513 C503 0.948 . S
C514 C480 1.395 . S
C514 C484 1.391 . S
C515 C477 1.389 . S
C515 C497 1.392 . S
C516 C487 1.392 . S
C516 C489 1.389 . S
C517 C492 1.395 . S
C517 C494 1.391 . S
H518 C478 0.951 . S
H519 C479 0.950 . S
H520 C485 0.949 . S
H521 C486 0.950 . S
H522 C490 0.951 . S
H523 C491 0.950 . S
H524 C495 0.949 . S
H525 C496 0.950 . S
H526 C500 0.950 . S
H527 C502 0.950 . S
H528 C505 0.950 . S
H529 C507 0.950 . S
C530 C531 1.443 . S
C530 N534 1.376 . S
C530 C568 1.389 . S
C531 C530 1.443 . S
C531 C532 1.340 . S
C531 H571 0.951 . S
C532 C531 1.340 . S
C532 C533 1.439 . S
C532 H572 0.950 . S
C533 C532 1.439 . S
C533 N534 1.374 . S
C533 C567 1.395 . S
N534 C530 1.376 . S
N534 C533 1.374 . S
N534 Co535 2.008 . S
Co535 N534 2.008 . S
Co535 N536 1.995 . S
Co535 N541 2.008 1_545 S
Co535 N546 1.995 1_545 S
Co535 N551 2.282 1_545 S
Co535 N557 2.282 . S
N536 Co535 1.995 . S
N536 C537 1.376 . S
N536 C540 1.383 . S
C537 N536 1.376 . S
C537 C538 1.446 . S
C537 C567 1.391 . S
C538 C537 1.446 . S
C538 C539 1.339 . S
C538 H573 0.949 . S
C539 C538 1.339 . S
C539 C540 1.439 . S
C539 H574 0.950 . S
C540 N536 1.383 . S
C540 C539 1.439 . S
C540 C569 1.392 1_545 S
N541 Co535 2.008 1_565 S
N541 C542 1.376 . S
N541 C545 1.374 . S
C542 N541 1.376 . S
C542 C543 1.443 . S
C542 C569 1.389 . S
C543 C542 1.443 . S
C543 C544 1.340 . S
C543 H575 0.951 . S
C544 C543 1.340 . S
C544 C545 1.439 . S
C544 H576 0.950 . S
C545 N541 1.374 . S
C545 C544 1.439 . S
C545 C570 1.395 . S
N546 Co535 1.995 1_565 S
N546 C547 1.376 . S
N546 C550 1.383 . S
C547 N546 1.376 . S
C547 C548 1.446 . S
C547 C570 1.391 . S
C548 C547 1.446 . S
C548 C549 1.339 . S
C548 H577 0.949 . S
C549 C548 1.339 . S
C549 C550 1.439 . S
C549 H578 0.950 . S
C550 N546 1.383 . S
C550 C549 1.439 . S
C550 C568 1.392 1_565 S
N551 Co535 2.282 1_565 S
N551 C554 1.332 . S
N551 C556 1.332 1_565 S
C552 C553 1.386 . S
C552 C555 1.388 1_565 S
C553 C552 1.386 . S
C553 C554 1.382 . S
C553 H579 0.950 . S
C554 N551 1.332 . S
C554 C553 1.382 . S
C554 H565 0.952 . S
C555 C552 1.388 1_545 S
C555 C556 1.382 . S
C555 H580 0.950 . S
C556 N551 1.332 1_545 S
C556 C555 1.382 . S
C556 H566 0.948 . S
N557 Co535 2.282 . S
N557 C561 1.332 . S
N557 C562 1.332 1_545 S
C558 C559 1.388 1_565 S
C558 C562 1.382 . S
C558 H581 0.950 . S
C559 C558 1.388 1_545 S
C559 C560 1.386 . S
C560 C559 1.386 . S
C560 C561 1.382 . S
C560 H582 0.950 . S
C561 N557 1.332 . S
C561 C560 1.382 . S
C561 H563 0.952 . S
C562 N557 1.332 1_565 S
C562 C558 1.382 . S
C562 H564 0.948 . S
H563 C561 0.952 . S
H564 C562 0.948 . S
H565 C554 0.952 . S
H566 C556 0.948 . S
C567 C533 1.395 . S
C567 C537 1.391 . S
C568 C530 1.389 . S
C568 C550 1.392 1_545 S
C569 C540 1.392 1_565 S
C569 C542 1.389 . S
C570 C545 1.395 . S
C570 C547 1.391 . S
H571 C531 0.951 . S
H572 C532 0.950 . S
H573 C538 0.949 . S
H574 C539 0.950 . S
H575 C543 0.951 . S
H576 C544 0.950 . S
H577 C548 0.949 . S
H578 C549 0.950 . S
H579 C553 0.950 . S
H580 C555 0.950 . S
H581 C558 0.950 . S
H582 C560 0.950 . S
C583 C584 1.443 . S
C583 N587 1.376 . S
C583 C621 1.389 . S
C584 C583 1.443 . S
C584 C585 1.340 . S
C584 H624 0.951 . S
C585 C584 1.340 . S
C585 C586 1.439 . S
C585 H625 0.950 . S
C586 C585 1.439 . S
C586 N587 1.374 . S
C586 C620 1.395 . S
N587 C583 1.376 . S
N587 C586 1.374 . S
N587 Co588 2.008 1_556 S
Co588 N587 2.008 1_554 S
Co588 N589 1.995 1_554 S
Co588 N594 2.008 . S
Co588 N599 1.995 . S
Co588 N604 2.282 . S
Co588 N610 2.282 1_554 S
N589 Co588 1.995 1_556 S
N589 C590 1.376 . S
N589 C593 1.383 . S
C590 N589 1.376 . S
C590 C591 1.446 . S
C590 C620 1.391 . S
C591 C590 1.446 . S
C591 C592 1.339 . S
C591 H626 0.949 . S
C592 C591 1.339 . S
C592 C593 1.439 . S
C592 H627 0.950 . S
C593 N589 1.383 . S
C593 C592 1.439 . S
C593 C622 1.392 1_556 S
N594 Co588 2.008 . S
N594 C595 1.376 . S
N594 C598 1.374 . S
C595 N594 1.376 . S
C595 C596 1.443 . S
C595 C622 1.389 . S
C596 C595 1.443 . S
C596 C597 1.340 . S
C596 H628 0.951 . S
C597 C596 1.340 . S
C597 C598 1.439 . S
C597 H629 0.950 . S
C598 N594 1.374 . S
C598 C597 1.439 . S
C598 C623 1.395 . S
N599 Co588 1.995 . S
N599 C600 1.376 . S
N599 C603 1.383 . S
C600 N599 1.376 . S
C600 C601 1.446 . S
C600 C623 1.391 . S
C601 C600 1.446 . S
C601 C602 1.339 . S
C601 H630 0.949 . S
C602 C601 1.339 . S
C602 C603 1.439 . S
C602 H631 0.950 . S
C603 N599 1.383 . S
C603 C602 1.439 . S
C603 C621 1.392 1_554 S
N604 Co588 2.282 . S
N604 C607 1.332 . S
N604 C609 1.332 1_554 S
C605 C606 1.386 . S
C605 C608 1.388 1_554 S
C606 C605 1.386 . S
C606 C607 1.382 . S
C606 H632 0.950 . S
C607 N604 1.332 . S
C607 C606 1.382 . S
C607 H618 0.952 . S
C608 C605 1.388 1_556 S
C608 C609 1.382 . S
C608 H633 0.950 . S
C609 N604 1.332 1_556 S
C609 C608 1.382 . S
C609 H619 0.948 . S
N610 Co588 2.282 1_556 S
N610 C614 1.332 . S
N610 C615 1.332 1_556 S
C611 C612 1.388 1_554 S
C611 C615 1.382 . S
C611 H634 0.950 . S
C612 C611 1.388 1_556 S
C612 C613 1.386 . S
C613 C612 1.386 . S
C613 C614 1.382 . S
C613 H635 0.950 . S
C614 N610 1.332 . S
C614 C613 1.382 . S
C614 H616 0.952 . S
C615 N610 1.332 1_554 S
C615 C611 1.382 . S
C615 H617 0.948 . S
H616 C614 0.952 . S
H617 C615 0.948 . S
H618 C607 0.952 . S
H619 C609 0.948 . S
C620 C586 1.395 . S
C620 C590 1.391 . S
C621 C583 1.389 . S
C621 C603 1.392 1_556 S
C622 C593 1.392 1_554 S
C622 C595 1.389 . S
C623 C598 1.395 . S
C623 C600 1.391 . S
H624 C584 0.951 . S
H625 C585 0.950 . S
H626 C591 0.949 . S
H627 C592 0.950 . S
H628 C596 0.951 . S
H629 C597 0.950 . S
H630 C601 0.949 . S
H631 C602 0.950 . S
H632 C606 0.950 . S
H633 C608 0.950 . S
H634 C611 0.950 . S
H635 C613 0.950 . S
Zn636 O642 1.920 . S
Zn636 O648 1.898 . S
Zn636 O651 1.905 . S
Zn637 O645 1.905 1_554 S
Zn637 O646 1.898 1_545 S
Zn637 O654 1.920 . S
Zn638 O641 2.080 . S
Zn638 O644 2.114 . S
Zn638 O647 2.120 . S
Zn638 O649 2.120 . S
Zn638 O650 2.114 . S
Zn638 O653 2.080 . S
C639 O644 1.166 1_556 S
C639 O645 1.182 . S
C640 O646 1.167 1_545 S
C640 O647 1.299 . S
O641 Zn638 2.080 . S
O641 C655 1.305 . S
O642 Zn636 1.920 . S
O642 C655 1.234 . S
C643 O648 1.167 . S
C643 O649 1.299 . S
O644 Zn638 2.114 . S
O644 C639 1.166 1_554 S
O645 Zn637 1.905 1_556 S
O645 C639 1.182 . S
O646 Zn637 1.898 1_565 S
O646 C640 1.167 1_565 S
O647 Zn638 2.120 . S
O647 C640 1.299 . S
O648 Zn636 1.898 . S
O648 C643 1.167 . S
O649 Zn638 2.120 . S
O649 C643 1.299 . S
O650 Zn638 2.114 . S
O650 C652 1.166 . S
O651 Zn636 1.905 . S
O651 C652 1.182 . S
C652 O650 1.166 . S
C652 O651 1.182 . S
O653 Zn638 2.080 . S
O653 C656 1.305 . S
O654 Zn637 1.920 . S
O654 C656 1.234 . S
C655 O641 1.305 . S
C655 O642 1.234 . S
C656 O653 1.305 . S
C656 O654 1.234 . S
Zn657 O663 1.925 1_655 S
Zn657 O669 1.914 . S
Zn657 O672 1.891 1_554 S
Zn658 O666 1.905 . S
Zn658 O667 1.898 . S
Zn658 O675 1.920 . S
Zn659 O662 2.080 . S
Zn659 O665 2.114 . S
Zn659 O668 2.120 . S
Zn659 O670 2.120 . S
Zn659 O671 2.114 . S
Zn659 O674 2.080 . S
C660 O665 1.166 . S
C660 O666 1.182 . S
C661 O667 1.167 . S
C661 O668 1.299 . S
O662 Zn659 2.080 . S
O662 C676 1.305 1_655 S
O663 Zn657 1.925 1_455 S
O663 C676 1.234 . S
C664 O669 1.167 . S
C664 O670 1.299 . S
O665 Zn659 2.114 . S
O665 C660 1.166 . S
O666 Zn658 1.905 . S
O666 C660 1.182 . S
O667 Zn658 1.898 . S
O667 C661 1.167 . S
O668 Zn659 2.120 . S
O668 C661 1.299 . S
O669 Zn657 1.914 . S
O669 C664 1.167 . S
O670 Zn659 2.120 . S
O670 C664 1.299 . S
O671 Zn659 2.114 . S
O671 C673 1.166 1_554 S
O672 Zn657 1.891 1_556 S
O672 C673 1.182 . S
C673 O671 1.166 1_556 S
C673 O672 1.182 . S
O674 Zn659 2.080 . S
O674 C677 1.305 . S
O675 Zn658 1.920 . S
O675 C677 1.234 . S
C676 O662 1.305 1_455 S
C676 O663 1.234 . S
C677 O674 1.305 . S
C677 O675 1.234 . S
Zn678 O684 1.920 1_665 S
Zn678 O690 1.898 1_655 S
Zn678 O693 1.905 . S
Zn679 O687 1.905 . S
Zn679 O688 1.898 . S
Zn679 O696 1.920 . S
Zn680 O683 2.080 . S
Zn680 O686 2.114 . S
Zn680 O689 2.120 . S
Zn680 O691 2.120 . S
Zn680 O692 2.114 . S
Zn680 O695 2.080 . S
C681 O686 1.166 . S
C681 O687 1.182 . S
C682 O688 1.167 . S
C682 O689 1.299 . S
O683 Zn680 2.080 . S
O683 C697 1.305 1_565 S
O684 Zn678 1.920 1_445 S
O684 C697 1.234 . S
C685 O690 1.167 . S
C685 O691 1.299 . S
O686 Zn680 2.114 . S
O686 C681 1.166 . S
O687 Zn679 1.905 . S
O687 C681 1.182 . S
O688 Zn679 1.898 . S
O688 C682 1.167 . S
O689 Zn680 2.120 . S
O689 C682 1.299 . S
O690 Zn678 1.898 1_455 S
O690 C685 1.167 . S
O691 Zn680 2.120 . S
O691 C685 1.299 . S
O692 Zn680 2.114 . S
O692 C694 1.166 1_455 S
O693 Zn678 1.905 . S
O693 C694 1.182 . S
C694 O692 1.166 1_655 S
C694 O693 1.182 . S
O695 Zn680 2.080 . S
O695 C698 1.305 . S
O696 Zn679 1.920 . S
O696 C698 1.234 . S
C697 O683 1.305 1_545 S
C697 O684 1.234 . S
C698 O695 1.305 . S
C698 O696 1.234 . S
Zn699 O705 1.920 . S
Zn699 O711 1.898 . S
Zn699 O714 1.905 . S
Zn700 O708 1.915 . S
Zn700 O709 1.873 1_655 S
Zn700 O717 1.946 . S
Zn701 O704 2.080 . S
Zn701 O707 2.114 . S
Zn701 O710 2.120 . S
Zn701 O712 2.120 . S
Zn701 O713 2.114 . S
Zn701 O716 2.080 . S
C702 O707 1.166 . S
C702 O708 1.182 . S
C703 O709 1.167 . S
C703 O710 1.299 1_455 S
O704 Zn701 2.080 . S
O704 C718 1.305 . S
O705 Zn699 1.920 . S
O705 C718 1.234 . S
C706 O711 1.167 . S
C706 O712 1.299 . S
O707 Zn701 2.114 . S
O707 C702 1.166 . S
O708 Zn700 1.915 . S
O708 C702 1.182 . S
O709 Zn700 1.873 1_455 S
O709 C703 1.167 . S
O710 Zn701 2.120 . S
O710 C703 1.299 1_655 S
O711 Zn699 1.898 . S
O711 C706 1.167 . S
O712 Zn701 2.120 . S
O712 C706 1.299 . S
O713 Zn701 2.114 . S
O713 C715 1.166 . S
O714 Zn699 1.905 . S
O714 C715 1.182 . S
C715 O713 1.166 . S
C715 O714 1.182 . S
O716 Zn701 2.080 . S
O716 C719 1.305 . S
O717 Zn700 1.946 . S
O717 C719 1.234 . S
C718 O704 1.305 . S
C718 O705 1.234 . S
C719 O716 1.305 . S
C719 O717 1.234 . S
Zn720 O726 1.920 . S
Zn720 O732 1.898 . S
Zn720 O735 1.905 . S
Zn721 O729 1.905 . S
Zn721 O730 1.898 1_565 S
Zn721 O738 1.920 . S
Zn722 O725 2.080 . S
Zn722 O728 2.114 . S
Zn722 O731 2.120 . S
Zn722 O733 2.120 . S
Zn722 O734 2.114 . S
Zn722 O737 2.080 . S
C723 O728 1.166 . S
C723 O729 1.182 . S
C724 O730 1.167 . S
C724 O731 1.299 1_545 S
O725 Zn722 2.080 . S
O725 C739 1.305 . S
O726 Zn720 1.920 . S
O726 C739 1.234 . S
C727 O732 1.167 . S
C727 O733 1.299 . S
O728 Zn722 2.114 . S
O728 C723 1.166 . S
O729 Zn721 1.905 . S
O729 C723 1.182 . S
O730 Zn721 1.898 1_545 S
O730 C724 1.167 . S
O731 Zn722 2.120 . S
O731 C724 1.299 1_565 S
O732 Zn720 1.898 . S
O732 C727 1.167 . S
O733 Zn722 2.120 . S
O733 C727 1.299 . S
O734 Zn722 2.114 . S
O734 C736 1.166 . S
O735 Zn720 1.905 . S
O735 C736 1.182 . S
C736 O734 1.166 . S
C736 O735 1.182 . S
O737 Zn722 2.080 . S
O737 C740 1.305 . S
O738 Zn721 1.920 . S
O738 C740 1.234 . S
C739 O725 1.305 . S
C739 O726 1.234 . S
C740 O737 1.305 . S
C740 O738 1.234 . S
Zn741 O747 1.920 . S
Zn741 O753 1.898 . S
Zn741 O756 1.905 . S
Zn742 O750 1.905 . S
Zn742 O751 1.898 . S
Zn742 O759 1.920 . S
Zn743 O746 2.080 . S
Zn743 O749 2.114 . S
Zn743 O752 2.120 . S
Zn743 O754 2.120 . S
Zn743 O755 2.114 . S
Zn743 O758 2.080 . S
C744 O749 1.166 . S
C744 O750 1.182 . S
C745 O751 1.167 . S
C745 O752 1.299 . S
O746 Zn743 2.080 . S
O746 C760 1.305 . S
O747 Zn741 1.920 . S
O747 C760 1.234 . S
C748 O753 1.167 . S
C748 O754 1.299 . S
O749 Zn743 2.114 . S
O749 C744 1.166 . S
O750 Zn742 1.905 . S
O750 C744 1.182 . S
O751 Zn742 1.898 . S
O751 C745 1.167 . S
O752 Zn743 2.120 . S
O752 C745 1.299 . S
O753 Zn741 1.898 . S
O753 C748 1.167 . S
O754 Zn743 2.120 . S
O754 C748 1.299 . S
O755 Zn743 2.114 . S
O755 C757 1.166 . S
O756 Zn741 1.905 . S
O756 C757 1.182 . S
C757 O755 1.166 . S
C757 O756 1.182 . S
O758 Zn743 2.080 . S
O758 C761 1.305 . S
O759 Zn742 1.920 . S
O759 C761 1.234 . S
C760 O746 1.305 . S
C760 O747 1.234 . S
C761 O758 1.305 . S
C761 O759 1.234 . S
Zn762 O768 1.920 1_554 S
Zn762 O774 1.898 . S
Zn762 O777 1.905 . S
Zn763 O771 1.905 . S
Zn763 O772 1.898 . S
Zn763 O780 1.920 . S
Zn764 O767 2.080 . S
Zn764 O770 2.114 . S
Zn764 O773 2.120 . S
Zn764 O775 2.120 1_556 S
Zn764 O776 2.114 . S
Zn764 O779 2.080 . S
C765 O770 1.166 . S
C765 O771 1.182 . S
C766 O772 1.167 . S
C766 O773 1.299 . S
O767 Zn764 2.080 . S
O767 C781 1.305 . S
O768 Zn762 1.920 1_556 S
O768 C781 1.234 . S
C769 O774 1.167 . S
C769 O775 1.299 . S
O770 Zn764 2.114 . S
O770 C765 1.166 . S
O771 Zn763 1.905 . S
O771 C765 1.182 . S
O772 Zn763 1.898 . S
O772 C766 1.167 . S
O773 Zn764 2.120 . S
O773 C766 1.299 . S
O774 Zn762 1.898 . S
O774 C769 1.167 . S
O775 Zn764 2.120 1_554 S
O775 C769 1.299 . S
O776 Zn764 2.114 . S
O776 C778 1.166 . S
O777 Zn762 1.905 . S
O777 C778 1.182 1_554 S
C778 O776 1.166 . S
C778 O777 1.182 1_556 S
O779 Zn764 2.080 . S
O779 C782 1.305 . S
O780 Zn763 1.920 . S
O780 C782 1.234 . S
C781 O767 1.305 . S
C781 O768 1.234 . S
C782 O779 1.305 . S
C782 O780 1.234 . S
Zn783 O789 1.920 1_556 S
Zn783 O795 1.898 . S
Zn783 O798 1.905 1_545 S
Zn784 O792 1.905 . S
Zn784 O793 1.898 . S
Zn784 O801 1.920 . S
Zn785 O788 2.080 . S
Zn785 O791 2.114 . S
Zn785 O794 2.120 . S
Zn785 O796 2.120 . S
Zn785 O797 2.114 . S
Zn785 O800 2.080 . S
C786 O791 1.166 . S
C786 O792 1.182 . S
C787 O793 1.167 . S
C787 O794 1.299 . S
O788 Zn785 2.080 . S
O788 C802 1.305 1_556 S
O789 Zn783 1.920 1_554 S
O789 C802 1.234 . S
C790 O795 1.167 . S
C790 O796 1.299 . S
O791 Zn785 2.114 . S
O791 C786 1.166 . S
O792 Zn784 1.905 . S
O792 C786 1.182 . S
O793 Zn784 1.898 . S
O793 C787 1.167 . S
O794 Zn785 2.120 . S
O794 C787 1.299 . S
O795 Zn783 1.898 . S
O795 C790 1.167 . S
O796 Zn785 2.120 . S
O796 C790 1.299 . S
O797 Zn785 2.114 . S
O797 C799 1.166 . S
O798 Zn783 1.905 1_565 S
O798 C799 1.182 1_565 S
C799 O797 1.166 . S
C799 O798 1.182 1_545 S
O800 Zn785 2.080 . S
O800 C803 1.305 . S
O801 Zn784 1.920 . S
O801 C803 1.234 . S
C802 O788 1.305 1_554 S
C802 O789 1.234 . S
C803 O800 1.305 . S
C803 O801 1.234 . S
H804 C810 0.930 . S
H805 C813 0.914 1_655 S
H806 C814 0.930 . S
H807 C815 0.930 1_655 S
H808 C818 0.930 . S
H809 C819 0.930 . S
C810 H804 0.930 . S
C810 C811 1.355 . S
C810 C812 1.415 . S
C811 C810 1.355 . S
C811 C813 1.439 . S
C812 C810 1.415 . S
C812 C817 1.425 . S
C812 C819 1.409 . S
C813 H805 0.914 1_455 S
C813 C811 1.439 . S
C813 C814 1.358 1_455 S
C814 H806 0.930 . S
C814 C813 1.358 1_655 S
C814 C817 1.409 1_655 S
C815 H807 0.930 1_455 S
C815 C816 1.355 . S
C815 C817 1.415 . S
C816 C815 1.355 . S
C816 C818 1.419 . S
C817 C812 1.425 . S
C817 C814 1.409 1_455 S
C817 C815 1.415 . S
C818 H808 0.930 . S
C818 C816 1.419 . S
C818 C819 1.362 . S
C819 H809 0.930 . S
C819 C812 1.409 . S
C819 C818 1.362 . S
H820 C826 0.930 . S
H821 C829 0.930 . S
H822 C830 0.930 . S
H823 C831 0.930 1_455 S
H824 C834 0.930 . S
H825 C835 0.930 . S
C826 H820 0.930 . S
C826 C827 1.355 . S
C826 C828 1.415 . S
C827 C826 1.355 . S
C827 C829 1.419 1_655 S
C828 C826 1.415 . S
C828 C833 1.425 . S
C828 C835 1.409 . S
C829 H821 0.930 . S
C829 C827 1.419 1_455 S
C829 C830 1.362 . S
C830 H822 0.930 . S
C830 C829 1.362 . S
C830 C833 1.409 1_455 S
C831 H823 0.930 1_655 S
C831 C832 1.355 . S
C831 C833 1.415 . S
C832 C831 1.355 . S
C832 C834 1.419 . S
C833 C828 1.425 . S
C833 C830 1.409 1_655 S
C833 C831 1.415 . S
C834 H824 0.930 . S
C834 C832 1.419 . S
C834 C835 1.362 . S
C835 H825 0.930 . S
C835 C828 1.409 . S
C835 C834 1.362 . S
H836 C842 0.930 1_655 S
H837 C845 0.930 . S
H838 C846 0.930 . S
H839 C847 0.930 . S
H840 C850 0.930 . S
H841 C851 0.930 1_655 S
C842 H836 0.930 1_455 S
C842 C843 1.355 . S
C842 C844 1.415 . S
C843 C842 1.355 . S
C843 C845 1.419 . S
C844 C842 1.415 . S
C844 C849 1.425 . S
C844 C851 1.409 . S
C845 H837 0.930 . S
C845 C843 1.419 . S
C845 C846 1.362 . S
C846 H838 0.930 . S
C846 C845 1.362 . S
C846 C849 1.409 . S
C847 H839 0.930 . S
C847 C848 1.355 . S
C847 C849 1.415 . S
C848 C847 1.355 . S
C848 C850 1.419 . S
C849 C844 1.425 . S
C849 C846 1.409 . S
C849 C847 1.415 . S
C850 H840 0.930 . S
C850 C848 1.419 . S
C850 C851 1.362 . S
C851 H841 0.930 1_455 S
C851 C844 1.409 . S
C851 C850 1.362 . S
H852 C858 0.930 . S
H853 C861 0.930 . S
H854 C862 0.930 . S
H855 C863 0.930 1_455 S
H856 C866 0.930 . S
H857 C867 0.930 . S
C858 H852 0.930 . S
C858 C859 1.355 . S
C858 C860 1.415 . S
C859 C858 1.355 . S
C859 C861 1.419 1_655 S
C860 C858 1.415 . S
C860 C865 1.425 . S
C860 C867 1.409 . S
C861 H853 0.930 . S
C861 C859 1.419 1_455 S
C861 C862 1.362 . S
C862 H854 0.930 . S
C862 C861 1.362 . S
C862 C865 1.409 1_455 S
C863 H855 0.930 1_655 S
C863 C864 1.355 . S
C863 C865 1.415 . S
C864 C863 1.355 . S
C864 C866 1.419 . S
C865 C860 1.425 . S
C865 C862 1.409 1_655 S
C865 C863 1.415 . S
C866 H856 0.930 . S
C866 C864 1.419 . S
C866 C867 1.362 . S
C867 H857 0.930 . S
C867 C860 1.409 . S
C867 C866 1.362 . S
H868 C874 0.930 . S
H869 C877 0.930 1_565 S
H870 C878 0.930 1_565 S
H871 C879 0.930 . S
H872 C882 0.930 . S
H873 C883 0.930 . S
C874 H868 0.930 . S
C874 C875 1.355 . S
C874 C876 1.415 . S
C875 C874 1.355 . S
C875 C877 1.419 . S
C876 C874 1.415 . S
C876 C881 1.425 . S
C876 C883 1.409 . S
C877 H869 0.930 1_545 S
C877 C875 1.419 . S
C877 C878 1.362 . S
C878 H870 0.930 1_545 S
C878 C877 1.362 . S
C878 C881 1.409 . S
C879 H871 0.930 . S
C879 C880 1.355 . S
C879 C881 1.415 . S
C880 C879 1.355 . S
C880 C882 1.419 . S
C881 C876 1.425 . S
C881 C878 1.409 . S
C881 C879 1.415 . S
C882 H872 0.930 . S
C882 C880 1.419 . S
C882 C883 1.362 . S
C883 H873 0.930 . S
C883 C876 1.409 . S
C883 C882 1.362 . S
H884 C890 0.930 . S
H885 C893 0.930 . S
H886 C894 0.930 . S
H887 C895 0.930 . S
H888 C898 0.930 . S
H889 C899 0.930 . S
C890 H884 0.930 . S
C890 C891 1.355 . S
C890 C892 1.415 . S
C891 C890 1.355 . S
C891 C893 1.419 . S
C892 C890 1.415 . S
C892 C897 1.425 . S
C892 C899 1.409 . S
C893 H885 0.930 . S
C893 C891 1.419 . S
C893 C894 1.362 . S
C894 H886 0.930 . S
C894 C893 1.362 . S
C894 C897 1.409 . S
C895 H887 0.930 . S
C895 C896 1.355 . S
C895 C897 1.415 . S
C896 C895 1.355 . S
C896 C898 1.419 . S
C897 C892 1.425 . S
C897 C894 1.409 . S
C897 C895 1.415 . S
C898 H888 0.930 . S
C898 C896 1.419 . S
C898 C899 1.362 . S
C899 H889 0.930 . S
C899 C892 1.409 . S
C899 C898 1.362 . S
H900 C906 0.930 . S
H901 C909 0.930 . S
H902 C910 0.930 . S
H903 C911 0.930 . S
H904 C914 0.930 . S
H905 C915 0.930 . S
C906 H900 0.930 . S
C906 C907 1.355 . S
C906 C908 1.415 . S
C907 C906 1.355 . S
C907 C909 1.419 . S
C908 C906 1.415 . S
C908 C913 1.425 . S
C908 C915 1.409 . S
C909 H901 0.930 . S
C909 C907 1.419 . S
C909 C910 1.362 . S
C910 H902 0.930 . S
C910 C909 1.362 . S
C910 C913 1.409 . S
C911 H903 0.930 . S
C911 C912 1.355 . S
C911 C913 1.415 . S
C912 C911 1.355 . S
C912 C914 1.419 . S
C913 C908 1.425 . S
C913 C910 1.409 . S
C913 C911 1.415 . S
C914 H904 0.930 . S
C914 C912 1.419 . S
C914 C915 1.362 . S
C915 H905 0.930 . S
C915 C908 1.409 . S
C915 C914 1.362 . S
H916 C922 0.930 . S
H917 C925 0.930 . S
H918 C926 0.930 . S
H919 C927 0.930 . S
H920 C930 0.930 . S
H921 C931 0.930 . S
C922 H916 0.930 . S
C922 C923 1.355 . S
C922 C924 1.415 . S
C923 C922 1.355 . S
C923 C925 1.419 . S
C924 C922 1.415 . S
C924 C929 1.425 . S
C924 C931 1.409 . S
C925 H917 0.930 . S
C925 C923 1.419 . S
C925 C926 1.362 . S
C926 H918 0.930 . S
C926 C925 1.362 . S
C926 C929 1.409 . S
C927 H919 0.930 . S
C927 C928 1.355 . S
C927 C929 1.415 . S
C928 C927 1.355 . S
C928 C930 1.419 . S
C929 C924 1.425 . S
C929 C926 1.409 . S
C929 C927 1.415 . S
C930 H920 0.930 . S
C930 C928 1.419 . S
C930 C931 1.362 . S
C931 H921 0.930 . S
C931 C924 1.409 . S
C931 C930 1.362 . S
H932 C938 0.930 1_556 S
H933 C941 0.930 . S
H934 C942 0.930 . S
H935 C943 0.930 . S
H936 C946 0.932 . S
H937 C947 0.930 . S
C938 H932 0.930 1_554 S
C938 C939 1.355 . S
C938 C940 1.415 . S
C939 C938 1.355 . S
C939 C941 1.419 . S
C940 C938 1.415 . S
C940 C945 1.425 . S
C940 C947 1.409 1_554 S
C941 H933 0.930 . S
C941 C939 1.419 . S
C941 C942 1.362 . S
C942 H934 0.930 . S
C942 C941 1.362 . S
C942 C945 1.409 . S
C943 H935 0.930 . S
C943 C944 1.355 . S
C943 C945 1.415 . S
C944 C943 1.355 . S
C944 C946 1.417 1_554 S
C945 C940 1.425 . S
C945 C942 1.409 . S
C945 C943 1.415 . S
C946 H936 0.932 . S
C946 C944 1.417 1_556 S
C946 C947 1.363 . S
C947 H937 0.930 . S
C947 C940 1.409 1_556 S
C947 C946 1.363 . S
H948 C954 0.930 . S
H949 C957 0.930 . S
H950 C958 0.930 . S
H951 C959 0.930 . S
H952 C962 0.930 . S
H953 C963 0.930 . S
C954 H948 0.930 . S
C954 C955 1.355 . S
C954 C956 1.415 . S
C955 C954 1.355 . S
C955 C957 1.419 . S
C956 C954 1.415 . S
C956 C961 1.425 . S
C956 C963 1.409 . S
C957 H949 0.930 . S
C957 C955 1.419 . S
C957 C958 1.362 . S
C958 H950 0.930 . S
C958 C957 1.362 . S
C958 C961 1.409 . S
C959 H951 0.930 . S
C959 C960 1.355 . S
C959 C961 1.415 . S
C960 C959 1.355 . S
C960 C962 1.419 . S
C961 C956 1.425 . S
C961 C958 1.409 . S
C961 C959 1.415 . S
C962 H952 0.930 . S
C962 C960 1.419 . S
C962 C963 1.362 . S
C963 H953 0.930 . S
C963 C956 1.409 . S
C963 C962 1.362 . S
H964 C970 0.930 . S
H965 C973 0.930 . S
H966 C974 0.930 . S
H967 C975 0.930 . S
H968 C978 0.930 . S
H969 C979 0.930 . S
C970 H964 0.930 . S
C970 C971 1.355 . S
C970 C972 1.415 . S
C971 C970 1.355 . S
C971 C973 1.419 . S
C972 C970 1.415 . S
C972 C977 1.425 . S
C972 C979 1.409 . S
C973 H965 0.930 . S
C973 C971 1.419 . S
C973 C974 1.362 . S
C974 H966 0.930 . S
C974 C973 1.362 . S
C974 C977 1.409 . S
C975 H967 0.930 . S
C975 C976 1.355 . S
C975 C977 1.415 . S
C976 C975 1.355 . S
C976 C978 1.419 . S
C977 C972 1.425 . S
C977 C974 1.409 . S
C977 C975 1.415 . S
C978 H968 0.930 . S
C978 C976 1.419 . S
C978 C979 1.362 . S
C979 H969 0.930 . S
C979 C972 1.409 . S
C979 C978 1.362 . S
H980 C986 0.930 . S
H981 C989 0.930 . S
H982 C990 0.930 . S
H983 C991 0.930 . S
H984 C994 0.930 . S
H985 C995 0.930 . S
C986 H980 0.930 . S
C986 C987 1.355 . S
C986 C988 1.415 . S
C987 C986 1.355 . S
C987 C989 1.419 . S
C988 C986 1.415 . S
C988 C993 1.425 . S
C988 C995 1.409 . S
C989 H981 0.930 . S
C989 C987 1.419 . S
C989 C990 1.362 . S
C990 H982 0.930 . S
C990 C989 1.362 . S
C990 C993 1.409 . S
C991 H983 0.930 . S
C991 C992 1.355 . S
C991 C993 1.415 . S
C992 C991 1.355 . S
C992 C994 1.419 . S
C993 C988 1.425 . S
C993 C990 1.409 . S
C993 C991 1.415 . S
C994 H984 0.930 . S
C994 C992 1.419 . S
C994 C995 1.362 . S
C995 H985 0.930 . S
C995 C988 1.409 . S
C995 C994 1.362 . S
H996 C1002 0.930 . S
H997 C1005 0.930 . S
H998 C1006 0.930 . S
H999 C1007 0.930 . S
H1000 C1010 0.930 . S
H1001 C1011 0.930 . S
C1002 H996 0.930 . S
C1002 C1003 1.355 . S
C1002 C1004 1.415 . S
C1003 C1002 1.355 . S
C1003 C1005 1.419 . S
C1004 C1002 1.415 . S
C1004 C1009 1.425 . S
C1004 C1011 1.409 . S
C1005 H997 0.930 . S
C1005 C1003 1.419 . S
C1005 C1006 1.362 . S
C1006 H998 0.930 . S
C1006 C1005 1.362 . S
C1006 C1009 1.409 . S
C1007 H999 0.930 . S
C1007 C1008 1.355 . S
C1007 C1009 1.415 . S
C1008 C1007 1.355 . S
C1008 C1010 1.419 . S
C1009 C1004 1.425 . S
C1009 C1006 1.409 . S
C1009 C1007 1.415 . S
C1010 H1000 0.930 . S
C1010 C1008 1.419 . S
C1010 C1011 1.362 . S
C1011 H1001 0.930 . S
C1011 C1004 1.409 . S
C1011 C1010 1.362 . S
H1012 C1018 0.930 . S
H1013 C1021 0.930 . S
H1014 C1022 0.930 . S
H1015 C1023 0.930 . S
H1016 C1026 0.930 . S
H1017 C1027 0.930 . S
C1018 H1012 0.930 . S
C1018 C1019 1.355 . S
C1018 C1020 1.415 . S
C1019 C1018 1.355 . S
C1019 C1021 1.419 . S
C1020 C1018 1.415 . S
C1020 C1025 1.425 . S
C1020 C1027 1.409 . S
C1021 H1013 0.930 . S
C1021 C1019 1.419 . S
C1021 C1022 1.362 . S
C1022 H1014 0.930 . S
C1022 C1021 1.362 . S
C1022 C1025 1.409 . S
C1023 H1015 0.930 . S
C1023 C1024 1.355 . S
C1023 C1025 1.415 . S
C1024 C1023 1.355 . S
C1024 C1026 1.419 . S
C1025 C1020 1.425 . S
C1025 C1022 1.409 . S
C1025 C1023 1.415 . S
C1026 H1016 0.930 . S
C1026 C1024 1.419 . S
C1026 C1027 1.362 . S
C1027 H1017 0.930 . S
C1027 C1020 1.409 . S
C1027 C1026 1.362 . S
H1028 C1034 0.930 . S
H1029 C1037 0.930 . S
H1030 C1038 0.930 . S
H1031 C1039 0.930 . S
H1032 C1042 0.930 . S
H1033 C1043 0.930 . S
C1034 H1028 0.930 . S
C1034 C1035 1.355 . S
C1034 C1036 1.415 . S
C1035 C1034 1.355 . S
C1035 C1037 1.419 . S
C1036 C1034 1.415 . S
C1036 C1041 1.425 . S
C1036 C1043 1.409 . S
C1037 H1029 0.930 . S
C1037 C1035 1.419 . S
C1037 C1038 1.362 . S
C1038 H1030 0.930 . S
C1038 C1037 1.362 . S
C1038 C1041 1.409 . S
C1039 H1031 0.930 . S
C1039 C1040 1.355 . S
C1039 C1041 1.415 . S
C1040 C1039 1.355 . S
C1040 C1042 1.419 . S
C1041 C1036 1.425 . S
C1041 C1038 1.409 . S
C1041 C1039 1.415 . S
C1042 H1032 0.930 . S
C1042 C1040 1.419 . S
C1042 C1043 1.362 . S
C1043 H1033 0.930 . S
C1043 C1036 1.409 . S
C1043 C1042 1.362 . S
H1044 C1050 0.930 . S
H1045 C1053 0.930 . S
H1046 C1054 0.930 . S
H1047 C1055 0.930 . S
H1048 C1058 0.930 . S
H1049 C1059 0.930 . S
C1050 H1044 0.930 . S
C1050 C1051 1.355 . S
C1050 C1052 1.415 . S
C1051 C1050 1.355 . S
C1051 C1053 1.419 . S
C1052 C1050 1.415 . S
C1052 C1057 1.425 . S
C1052 C1059 1.409 . S
C1053 H1045 0.930 . S
C1053 C1051 1.419 . S
C1053 C1054 1.362 . S
C1054 H1046 0.930 . S
C1054 C1053 1.362 . S
C1054 C1057 1.409 . S
C1055 H1047 0.930 . S
C1055 C1056 1.355 . S
C1055 C1057 1.415 . S
C1056 C1055 1.355 . S
C1056 C1058 1.419 . S
C1057 C1052 1.425 . S
C1057 C1054 1.409 . S
C1057 C1055 1.415 . S
C1058 H1048 0.930 . S
C1058 C1056 1.419 . S
C1058 C1059 1.362 . S
C1059 H1049 0.930 . S
C1059 C1052 1.409 . S
C1059 C1058 1.362 . S
H1060 C1066 0.930 . S
H1061 C1069 0.930 . S
H1062 C1070 0.930 . S
H1063 C1071 0.930 . S
H1064 C1074 0.930 . S
H1065 C1075 0.930 . S
C1066 H1060 0.930 . S
C1066 C1067 1.355 . S
C1066 C1068 1.415 . S
C1067 C1066 1.355 . S
C1067 C1069 1.419 . S
C1068 C1066 1.415 . S
C1068 C1073 1.425 . S
C1068 C1075 1.409 . S
C1069 H1061 0.930 . S
C1069 C1067 1.419 . S
C1069 C1070 1.362 . S
C1070 H1062 0.930 . S
C1070 C1069 1.362 . S
C1070 C1073 1.409 . S
C1071 H1063 0.930 . S
C1071 C1072 1.355 . S
C1071 C1073 1.415 . S
C1072 C1071 1.355 . S
C1072 C1074 1.419 . S
C1073 C1068 1.425 . S
C1073 C1070 1.409 . S
C1073 C1071 1.415 . S
C1074 H1064 0.930 . S
C1074 C1072 1.419 . S
C1074 C1075 1.362 . S
C1075 H1065 0.930 . S
C1075 C1068 1.409 . S
C1075 C1074 1.362 . S
H1076 C1082 0.930 1_545 S
H1077 C1085 0.930 . S
H1078 C1086 0.930 . S
H1079 C1087 0.930 . S
H1080 C1090 0.916 1_545 S
H1081 C1091 0.930 1_545 S
C1082 H1076 0.930 1_565 S
C1082 C1083 1.355 . S
C1082 C1084 1.415 . S
C1083 C1082 1.355 . S
C1083 C1085 1.419 . S
C1084 C1082 1.415 . S
C1084 C1089 1.425 . S
C1084 C1091 1.409 . S
C1085 H1077 0.930 . S
C1085 C1083 1.419 . S
C1085 C1086 1.362 . S
C1086 H1078 0.930 . S
C1086 C1085 1.362 . S
C1086 C1089 1.409 . S
C1087 H1079 0.930 . S
C1087 C1088 1.355 . S
C1087 C1089 1.415 . S
C1088 C1087 1.355 . S
C1088 C1090 1.419 . S
C1089 C1084 1.425 . S
C1089 C1086 1.409 . S
C1089 C1087 1.415 . S
C1090 H1080 0.916 1_565 S
C1090 C1088 1.419 . S
C1090 C1091 1.362 . S
C1091 H1081 0.930 1_565 S
C1091 C1084 1.409 . S
C1091 C1090 1.362 . S
H1092 C1098 0.930 . S
H1093 C1101 0.930 . S
H1094 C1102 0.930 . S
H1095 C1103 0.930 . S
H1096 C1106 0.930 . S
H1097 C1107 0.930 . S
C1098 H1092 0.930 . S
C1098 C1099 1.355 . S
C1098 C1100 1.415 . S
C1099 C1098 1.355 . S
C1099 C1101 1.419 . S
C1100 C1098 1.415 . S
C1100 C1105 1.425 . S
C1100 C1107 1.409 . S
C1101 H1093 0.930 . S
C1101 C1099 1.419 . S
C1101 C1102 1.362 . S
C1102 H1094 0.930 . S
C1102 C1101 1.362 . S
C1102 C1105 1.409 . S
C1103 H1095 0.930 . S
C1103 C1104 1.355 . S
C1103 C1105 1.415 . S
C1104 C1103 1.355 . S
C1104 C1106 1.419 . S
C1105 C1100 1.425 . S
C1105 C1102 1.409 . S
C1105 C1103 1.415 . S
C1106 H1096 0.930 . S
C1106 C1104 1.419 . S
C1106 C1107 1.362 . S
C1107 H1097 0.930 . S
C1107 C1100 1.409 . S
C1107 C1106 1.362 . S
H1108 C1114 0.930 . S
H1109 C1117 0.930 1_565 S
H1110 C1118 0.930 1_565 S
H1111 C1119 0.930 . S
H1112 C1122 0.930 . S
H1113 C1123 0.930 . S
C1114 H1108 0.930 . S
C1114 C1115 1.355 . S
C1114 C1116 1.415 . S
C1115 C1114 1.355 . S
C1115 C1117 1.419 . S
C1116 C1114 1.415 . S
C1116 C1121 1.425 . S
C1116 C1123 1.409 . S
C1117 H1109 0.930 1_545 S
C1117 C1115 1.419 . S
C1117 C1118 1.362 . S
C1118 H1110 0.930 1_545 S
C1118 C1117 1.362 . S
C1118 C1121 1.409 . S
C1119 H1111 0.930 . S
C1119 C1120 1.355 . S
C1119 C1121 1.415 . S
C1120 C1119 1.355 . S
C1120 C1122 1.419 . S
C1121 C1116 1.425 . S
C1121 C1118 1.409 . S
C1121 C1119 1.415 . S
C1122 H1112 0.930 . S
C1122 C1120 1.419 . S
C1122 C1123 1.362 . S
C1123 H1113 0.930 . S
C1123 C1116 1.409 . S
C1123 C1122 1.362 . S
H1124 C1130 0.930 . S
H1125 C1133 0.930 . S
H1126 C1134 0.930 . S
H1127 C1135 0.930 . S
H1128 C1138 0.930 . S
H1129 C1139 0.930 . S
C1130 H1124 0.930 . S
C1130 C1131 1.355 . S
C1130 C1132 1.415 . S
C1131 C1130 1.355 . S
C1131 C1133 1.419 . S
C1132 C1130 1.415 . S
C1132 C1137 1.425 . S
C1132 C1139 1.409 . S
C1133 H1125 0.930 . S
C1133 C1131 1.419 . S
C1133 C1134 1.362 . S
C1134 H1126 0.930 . S
C1134 C1133 1.362 . S
C1134 C1137 1.409 . S
C1135 H1127 0.930 . S
C1135 C1136 1.355 . S
C1135 C1137 1.415 . S
C1136 C1135 1.355 . S
C1136 C1138 1.419 . S
C1137 C1132 1.425 . S
C1137 C1134 1.409 . S
C1137 C1135 1.415 . S
C1138 H1128 0.930 . S
C1138 C1136 1.419 . S
C1138 C1139 1.362 . S
C1139 H1129 0.930 . S
C1139 C1132 1.409 . S
C1139 C1138 1.362 . S
H1140 C1146 0.930 . S
H1141 C1149 0.930 . S
H1142 C1150 0.930 . S
H1143 C1151 0.930 . S
H1144 C1154 0.930 . S
H1145 C1155 0.930 . S
C1146 H1140 0.930 . S
C1146 C1147 1.355 . S
C1146 C1148 1.415 . S
C1147 C1146 1.355 . S
C1147 C1149 1.419 . S
C1148 C1146 1.415 . S
C1148 C1153 1.425 . S
C1148 C1155 1.409 . S
C1149 H1141 0.930 . S
C1149 C1147 1.419 . S
C1149 C1150 1.362 . S
C1150 H1142 0.930 . S
C1150 C1149 1.362 . S
C1150 C1153 1.409 . S
C1151 H1143 0.930 . S
C1151 C1152 1.355 . S
C1151 C1153 1.415 . S
C1152 C1151 1.355 . S
C1152 C1154 1.419 . S
C1153 C1148 1.425 . S
C1153 C1150 1.409 . S
C1153 C1151 1.415 . S
C1154 H1144 0.930 . S
C1154 C1152 1.419 . S
C1154 C1155 1.362 . S
C1155 H1145 0.930 . S
C1155 C1148 1.409 . S
C1155 C1154 1.362 . S
H1156 C1162 0.930 . S
H1157 C1165 0.930 . S
H1158 C1166 0.930 . S
H1159 C1167 0.930 . S
H1160 C1170 0.930 . S
H1161 C1171 0.930 . S
C1162 H1156 0.930 . S
C1162 C1163 1.355 1_554 S
C1162 C1164 1.413 1_554 S
C1163 C1162 1.355 1_556 S
C1163 C1165 1.419 . S
C1164 C1162 1.413 1_556 S
C1164 C1169 1.435 . S
C1164 C1171 1.402 1_556 S
C1165 H1157 0.930 . S
C1165 C1163 1.419 . S
C1165 C1166 1.362 . S
C1166 H1158 0.930 . S
C1166 C1165 1.362 . S
C1166 C1169 1.409 . S
C1167 H1159 0.930 . S
C1167 C1168 1.355 . S
C1167 C1169 1.415 . S
C1168 C1167 1.355 . S
C1168 C1170 1.419 1_556 S
C1169 C1164 1.435 . S
C1169 C1166 1.409 . S
C1169 C1167 1.415 . S
C1170 H1160 0.930 . S
C1170 C1168 1.419 1_554 S
C1170 C1171 1.362 . S
C1171 H1161 0.930 . S
C1171 C1164 1.402 1_554 S
C1171 C1170 1.362 . S
H1172 C1178 0.930 . S
H1173 C1181 0.930 . S
H1174 C1182 0.930 . S
H1175 C1183 0.919 1_556 S
H1176 C1186 0.932 . S
H1177 C1187 0.930 . S
C1178 H1172 0.930 . S
C1178 C1179 1.355 . S
C1178 C1180 1.415 . S
C1179 C1178 1.355 . S
C1179 C1181 1.419 1_554 S
C1180 C1178 1.415 . S
C1180 C1185 1.425 . S
C1180 C1187 1.409 . S
C1181 H1173 0.930 . S
C1181 C1179 1.419 1_556 S
C1181 C1182 1.362 . S
C1182 H1174 0.930 . S
C1182 C1181 1.362 . S
C1182 C1185 1.409 1_556 S
C1183 H1175 0.919 1_554 S
C1183 C1184 1.355 . S
C1183 C1185 1.415 . S
C1184 C1183 1.355 . S
C1184 C1186 1.419 . S
C1185 C1180 1.425 . S
C1185 C1182 1.409 1_554 S
C1185 C1183 1.415 . S
C1186 H1176 0.932 . S
C1186 C1184 1.419 . S
C1186 C1187 1.362 . S
C1187 H1177 0.930 . S
C1187 C1180 1.409 . S
C1187 C1186 1.362 . S
H1188 C1194 0.930 . S
H1189 C1197 0.930 . S
H1190 C1198 0.930 . S
H1191 C1199 0.930 . S
H1192 C1202 0.930 . S
H1193 C1203 0.930 . S
C1194 H1188 0.930 . S
C1194 C1195 1.355 . S
C1194 C1196 1.415 . S
C1195 C1194 1.355 . S
C1195 C1197 1.419 . S
C1196 C1194 1.415 . S
C1196 C1201 1.425 . S
C1196 C1203 1.409 . S
C1197 H1189 0.930 . S
C1197 C1195 1.419 . S
C1197 C1198 1.362 . S
C1198 H1190 0.930 . S
C1198 C1197 1.362 . S
C1198 C1201 1.409 . S
C1199 H1191 0.930 . S
C1199 C1200 1.355 . S
C1199 C1201 1.415 . S
C1200 C1199 1.355 . S
C1200 C1202 1.419 . S
C1201 C1196 1.425 . S
C1201 C1198 1.409 . S
C1201 C1199 1.415 . S
C1202 H1192 0.930 . S
C1202 C1200 1.419 . S
C1202 C1203 1.362 . S
C1203 H1193 0.930 . S
C1203 C1196 1.409 . S
C1203 C1202 1.362 . S
H1204 C1210 0.930 . S
H1205 C1213 0.930 . S
H1206 C1214 0.930 . S
H1207 C1215 0.930 . S
H1208 C1218 0.930 . S
H1209 C1219 0.930 . S
C1210 H1204 0.930 . S
C1210 C1211 1.355 . S
C1210 C1212 1.415 . S
C1211 C1210 1.355 . S
C1211 C1213 1.419 1_655 S
C1212 C1210 1.415 . S
C1212 C1217 1.425 1_655 S
C1212 C1219 1.409 . S
C1213 H1205 0.930 . S
C1213 C1211 1.419 1_455 S
C1213 C1214 1.362 . S
C1214 H1206 0.930 . S
C1214 C1213 1.362 . S
C1214 C1217 1.409 . S
C1215 H1207 0.930 . S
C1215 C1216 1.355 1_455 S
C1215 C1217 1.415 . S
C1216 C1215 1.355 1_655 S
C1216 C1218 1.419 . S
C1217 C1212 1.425 1_455 S
C1217 C1214 1.409 . S
C1217 C1215 1.415 . S
C1218 H1208 0.930 . S
C1218 C1216 1.419 . S
C1218 C1219 1.362 . S
C1219 H1209 0.930 . S
C1219 C1212 1.409 . S
C1219 C1218 1.362 . S
H1220 C1226 0.930 . S
H1221 C1229 0.930 1_655 S
H1222 C1230 0.930 1_655 S
H1223 C1231 0.930 . S
H1224 C1234 0.930 . S
H1225 C1235 0.930 . S
C1226 H1220 0.930 . S
C1226 C1227 1.355 . S
C1226 C1228 1.415 . S
C1227 C1226 1.355 . S
C1227 C1229 1.419 . S
C1228 C1226 1.415 . S
C1228 C1233 1.425 . S
C1228 C1235 1.409 . S
C1229 H1221 0.930 1_455 S
C1229 C1227 1.419 . S
C1229 C1230 1.362 . S
C1230 H1222 0.930 1_455 S
C1230 C1229 1.362 . S
C1230 C1233 1.409 . S
C1231 H1223 0.930 . S
C1231 C1232 1.355 . S
C1231 C1233 1.415 . S
C1232 C1231 1.355 . S
C1232 C1234 1.419 . S
C1233 C1228 1.425 . S
C1233 C1230 1.409 . S
C1233 C1231 1.415 . S
C1234 H1224 0.930 . S
C1234 C1232 1.419 . S
C1234 C1235 1.362 . S
C1235 H1225 0.930 . S
C1235 C1228 1.409 . S
C1235 C1234 1.362 . S
H1236 C1242 0.930 . S
H1237 C1245 0.930 . S
H1238 C1246 0.930 . S
H1239 C1247 0.930 1_455 S
H1240 C1250 0.930 . S
H1241 C1251 0.930 . S
C1242 H1236 0.930 . S
C1242 C1243 1.355 . S
C1242 C1244 1.415 . S
C1243 C1242 1.355 . S
C1243 C1245 1.419 1_655 S
C1244 C1242 1.415 . S
C1244 C1249 1.425 . S
C1244 C1251 1.409 . S
C1245 H1237 0.930 . S
C1245 C1243 1.419 1_455 S
C1245 C1246 1.362 . S
C1246 H1238 0.930 . S
C1246 C1245 1.362 . S
C1246 C1249 1.409 1_455 S
C1247 H1239 0.930 1_655 S
C1247 C1248 1.355 . S
C1247 C1249 1.415 . S
C1248 C1247 1.355 . S
C1248 C1250 1.419 . S
C1249 C1244 1.425 . S
C1249 C1246 1.409 1_655 S
C1249 C1247 1.415 . S
C1250 H1240 0.930 . S
C1250 C1248 1.419 . S
C1250 C1251 1.362 . S
C1251 H1241 0.930 . S
C1251 C1244 1.409 . S
C1251 C1250 1.362 . S
H1252 C1258 0.930 . S
H1253 C1261 0.930 . S
H1254 C1262 0.930 . S
H1255 C1263 0.930 . S
H1256 C1266 0.930 . S
H1257 C1267 0.930 . S
C1258 H1252 0.930 . S
C1258 C1259 1.355 . S
C1258 C1260 1.415 . S
C1259 C1258 1.355 . S
C1259 C1261 1.419 . S
C1260 C1258 1.415 . S
C1260 C1265 1.425 . S
C1260 C1267 1.409 . S
C1261 H1253 0.930 . S
C1261 C1259 1.419 . S
C1261 C1262 1.362 . S
C1262 H1254 0.930 . S
C1262 C1261 1.362 . S
C1262 C1265 1.409 . S
C1263 H1255 0.930 . S
C1263 C1264 1.355 . S
C1263 C1265 1.415 . S
C1264 C1263 1.355 . S
C1264 C1266 1.419 . S
C1265 C1260 1.425 . S
C1265 C1262 1.409 . S
C1265 C1263 1.415 . S
C1266 H1256 0.930 . S
C1266 C1264 1.419 . S
C1266 C1267 1.362 . S
C1267 H1257 0.930 . S
C1267 C1260 1.409 . S
C1267 C1266 1.362 . S
H1268 C1274 0.930 . S
H1269 C1277 0.930 . S
H1270 C1278 0.930 . S
H1271 C1279 0.930 . S
H1272 C1282 0.930 . S
H1273 C1283 0.930 . S
C1274 H1268 0.930 . S
C1274 C1275 1.355 . S
C1274 C1276 1.415 . S
C1275 C1274 1.355 . S
C1275 C1277 1.419 . S
C1276 C1274 1.415 . S
C1276 C1281 1.425 . S
C1276 C1283 1.409 . S
C1277 H1269 0.930 . S
C1277 C1275 1.419 . S
C1277 C1278 1.362 . S
C1278 H1270 0.930 . S
C1278 C1277 1.362 . S
C1278 C1281 1.409 . S
C1279 H1271 0.930 . S
C1279 C1280 1.355 . S
C1279 C1281 1.415 . S
C1280 C1279 1.355 . S
C1280 C1282 1.419 . S
C1281 C1276 1.425 . S
C1281 C1278 1.409 . S
C1281 C1279 1.415 . S
C1282 H1272 0.930 . S
C1282 C1280 1.419 . S
C1282 C1283 1.362 . S
C1283 H1273 0.930 . S
C1283 C1276 1.409 . S
C1283 C1282 1.362 . S
H1284 C1290 0.930 . S
H1285 C1293 0.930 . S
H1286 C1294 0.930 . S
H1287 C1295 0.930 . S
H1288 C1298 0.930 . S
H1289 C1299 0.930 . S
C1290 H1284 0.930 . S
C1290 C1291 1.355 . S
C1290 C1292 1.415 . S
C1291 C1290 1.355 . S
C1291 C1293 1.419 . S
C1292 C1290 1.415 . S
C1292 C1297 1.425 . S
C1292 C1299 1.409 . S
C1293 H1285 0.930 . S
C1293 C1291 1.419 . S
C1293 C1294 1.362 . S
C1294 H1286 0.930 . S
C1294 C1293 1.362 . S
C1294 C1297 1.409 . S
C1295 H1287 0.930 . S
C1295 C1296 1.355 . S
C1295 C1297 1.415 . S
C1296 C1295 1.355 . S
C1296 C1298 1.419 . S
C1297 C1292 1.425 . S
C1297 C1294 1.409 . S
C1297 C1295 1.415 . S
C1298 H1288 0.930 . S
C1298 C1296 1.419 . S
C1298 C1299 1.362 . S
C1299 H1289 0.930 . S
C1299 C1292 1.409 . S
C1299 C1298 1.362 . S
H1300 C1306 0.930 . S
H1301 C1309 0.930 . S
H1302 C1310 0.930 . S
H1303 C1311 0.930 . S
H1304 C1314 0.930 . S
H1305 C1315 0.930 . S
C1306 H1300 0.930 . S
C1306 C1307 1.355 . S
C1306 C1308 1.415 . S
C1307 C1306 1.355 . S
C1307 C1309 1.419 . S
C1308 C1306 1.415 . S
C1308 C1313 1.425 . S
C1308 C1315 1.409 . S
C1309 H1301 0.930 . S
C1309 C1307 1.419 . S
C1309 C1310 1.362 . S
C1310 H1302 0.930 . S
C1310 C1309 1.362 . S
C1310 C1313 1.409 . S
C1311 H1303 0.930 . S
C1311 C1312 1.355 . S
C1311 C1313 1.415 . S
C1312 C1311 1.355 . S
C1312 C1314 1.419 . S
C1313 C1308 1.425 . S
C1313 C1310 1.409 . S
C1313 C1311 1.415 . S
C1314 H1304 0.930 . S
C1314 C1312 1.419 . S
C1314 C1315 1.362 . S
C1315 H1305 0.930 . S
C1315 C1308 1.409 . S
C1315 C1314 1.362 . S
H1316 C1322 0.930 . S
H1317 C1325 0.930 . S
H1318 C1326 0.930 . S
H1319 C1327 0.930 1_556 S
H1320 C1330 0.930 . S
H1321 C1331 0.930 . S
C1322 H1316 0.930 . S
C1322 C1323 1.355 . S
C1322 C1324 1.415 . S
C1323 C1322 1.355 . S
C1323 C1325 1.419 1_554 S
C1324 C1322 1.415 . S
C1324 C1329 1.425 . S
C1324 C1331 1.409 . S
C1325 H1317 0.930 . S
C1325 C1323 1.419 1_556 S
C1325 C1326 1.362 . S
C1326 H1318 0.930 . S
C1326 C1325 1.362 . S
C1326 C1329 1.409 1_556 S
C1327 H1319 0.930 1_554 S
C1327 C1328 1.355 . S
C1327 C1329 1.415 . S
C1328 C1327 1.355 . S
C1328 C1330 1.419 . S
C1329 C1324 1.425 . S
C1329 C1326 1.409 1_554 S
C1329 C1327 1.415 . S
C1330 H1320 0.930 . S
C1330 C1328 1.419 . S
C1330 C1331 1.362 . S
C1331 H1321 0.930 . S
C1331 C1324 1.409 . S
C1331 C1330 1.362 . S
H1332 C1338 0.930 . S
H1333 C1341 0.930 . S
H1334 C1342 0.930 . S
H1335 C1343 0.930 . S
H1336 C1346 0.930 . S
H1337 C1347 0.930 . S
C1338 H1332 0.930 . S
C1338 C1339 1.355 . S
C1338 C1340 1.415 . S
C1339 C1338 1.355 . S
C1339 C1341 1.419 . S
C1340 C1338 1.415 . S
C1340 C1345 1.425 . S
C1340 C1347 1.409 . S
C1341 H1333 0.930 . S
C1341 C1339 1.419 . S
C1341 C1342 1.362 . S
C1342 H1334 0.930 . S
C1342 C1341 1.362 . S
C1342 C1345 1.409 . S
C1343 H1335 0.930 . S
C1343 C1344 1.355 . S
C1343 C1345 1.415 . S
C1344 C1343 1.355 . S
C1344 C1346 1.419 . S
C1345 C1340 1.425 . S
C1345 C1342 1.409 . S
C1345 C1343 1.415 . S
C1346 H1336 0.930 . S
C1346 C1344 1.419 . S
C1346 C1347 1.362 . S
C1347 H1337 0.930 . S
C1347 C1340 1.409 . S
C1347 C1346 1.362 . S
H1348 C1354 0.930 . S
H1349 C1357 0.930 . S
H1350 C1358 0.930 . S
H1351 C1359 0.930 . S
H1352 C1362 0.930 . S
H1353 C1363 0.930 . S
C1354 H1348 0.930 . S
C1354 C1355 1.355 . S
C1354 C1356 1.415 . S
C1355 C1354 1.355 . S
C1355 C1357 1.419 . S
C1356 C1354 1.415 . S
C1356 C1361 1.425 . S
C1356 C1363 1.409 . S
C1357 H1349 0.930 . S
C1357 C1355 1.419 . S
C1357 C1358 1.362 . S
C1358 H1350 0.930 . S
C1358 C1357 1.362 . S
C1358 C1361 1.409 . S
C1359 H1351 0.930 . S
C1359 C1360 1.355 . S
C1359 C1361 1.415 . S
C1360 C1359 1.355 . S
C1360 C1362 1.419 . S
C1361 C1356 1.425 . S
C1361 C1358 1.409 . S
C1361 C1359 1.415 . S
C1362 H1352 0.930 . S
C1362 C1360 1.419 . S
C1362 C1363 1.362 . S
C1363 H1353 0.930 . S
C1363 C1356 1.409 . S
C1363 C1362 1.362 . S
H1364 C1370 0.930 . S
H1365 C1373 0.930 . S
H1366 C1374 0.930 . S
H1367 C1375 0.930 . S
H1368 C1378 0.930 . S
H1369 C1379 0.930 . S
C1370 H1364 0.930 . S
C1370 C1371 1.355 . S
C1370 C1372 1.415 . S
C1371 C1370 1.355 . S
C1371 C1373 1.419 . S
C1372 C1370 1.415 . S
C1372 C1377 1.425 . S
C1372 C1379 1.409 . S
C1373 H1365 0.930 . S
C1373 C1371 1.419 . S
C1373 C1374 1.362 . S
C1374 H1366 0.930 . S
C1374 C1373 1.362 . S
C1374 C1377 1.409 . S
C1375 H1367 0.930 . S
C1375 C1376 1.355 . S
C1375 C1377 1.415 . S
C1376 C1375 1.355 . S
C1376 C1378 1.419 . S
C1377 C1372 1.425 . S
C1377 C1374 1.409 . S
C1377 C1375 1.415 . S
C1378 H1368 0.930 . S
C1378 C1376 1.419 . S
C1378 C1379 1.362 . S
C1379 H1369 0.930 . S
C1379 C1372 1.409 . S
C1379 C1378 1.362 . S
H1380 C1386 0.930 . S
H1381 C1389 0.930 . S
H1382 C1390 0.930 . S
H1383 C1391 0.930 . S
H1384 C1394 0.930 . S
H1385 C1395 0.930 . S
C1386 H1380 0.930 . S
C1386 C1387 1.355 . S
C1386 C1388 1.415 . S
C1387 C1386 1.355 . S
C1387 C1389 1.419 . S
C1388 C1386 1.415 . S
C1388 C1393 1.425 . S
C1388 C1395 1.409 . S
C1389 H1381 0.930 . S
C1389 C1387 1.419 . S
C1389 C1390 1.362 . S
C1390 H1382 0.930 . S
C1390 C1389 1.362 . S
C1390 C1393 1.409 . S
C1391 H1383 0.930 . S
C1391 C1392 1.355 . S
C1391 C1393 1.415 . S
C1392 C1391 1.355 . S
C1392 C1394 1.419 . S
C1393 C1388 1.425 . S
C1393 C1390 1.409 . S
C1393 C1391 1.415 . S
C1394 H1384 0.930 . S
C1394 C1392 1.419 . S
C1394 C1395 1.362 . S
C1395 H1385 0.930 . S
C1395 C1388 1.409 . S
C1395 C1394 1.362 . S
H1396 C1402 0.930 . S
H1397 C1405 0.930 . S
H1398 C1406 0.930 . S
H1399 C1407 0.930 . S
H1400 C1410 0.930 . S
H1401 C1411 0.930 . S
C1402 H1396 0.930 . S
C1402 C1403 1.355 . S
C1402 C1404 1.415 . S
C1403 C1402 1.355 . S
C1403 C1405 1.419 . S
C1404 C1402 1.415 . S
C1404 C1409 1.425 . S
C1404 C1411 1.409 . S
C1405 H1397 0.930 . S
C1405 C1403 1.419 . S
C1405 C1406 1.362 . S
C1406 H1398 0.930 . S
C1406 C1405 1.362 . S
C1406 C1409 1.409 . S
C1407 H1399 0.930 . S
C1407 C1408 1.355 . S
C1407 C1409 1.415 . S
C1408 C1407 1.355 . S
C1408 C1410 1.419 . S
C1409 C1404 1.425 . S
C1409 C1406 1.409 . S
C1409 C1407 1.415 . S
C1410 H1400 0.930 . S
C1410 C1408 1.419 . S
C1410 C1411 1.362 . S
C1411 H1401 0.930 . S
C1411 C1404 1.409 . S
C1411 C1410 1.362 . S
H1412 C1418 0.930 . S
H1413 C1421 0.930 . S
H1414 C1422 0.930 . S
H1415 C1423 0.930 . S
H1416 C1426 0.930 . S
H1417 C1427 0.930 . S
C1418 H1412 0.930 . S
C1418 C1419 1.355 . S
C1418 C1420 1.415 . S
C1419 C1418 1.355 . S
C1419 C1421 1.419 . S
C1420 C1418 1.415 . S
C1420 C1425 1.425 . S
C1420 C1427 1.409 . S
C1421 H1413 0.930 . S
C1421 C1419 1.419 . S
C1421 C1422 1.362 . S
C1422 H1414 0.930 . S
C1422 C1421 1.362 . S
C1422 C1425 1.409 . S
C1423 H1415 0.930 . S
C1423 C1424 1.355 . S
C1423 C1425 1.415 . S
C1424 C1423 1.355 . S
C1424 C1426 1.419 . S
C1425 C1420 1.425 . S
C1425 C1422 1.409 . S
C1425 C1423 1.415 . S
C1426 H1416 0.930 . S
C1426 C1424 1.419 . S
C1426 C1427 1.362 . S
C1427 H1417 0.930 . S
C1427 C1420 1.409 . S
C1427 C1426 1.362 . S
H1428 C1434 0.930 . S
H1429 C1437 0.930 . S
H1430 C1438 0.930 . S
H1431 C1439 0.930 . S
H1432 C1442 0.930 . S
H1433 C1443 0.930 . S
C1434 H1428 0.930 . S
C1434 C1435 1.355 . S
C1434 C1436 1.415 . S
C1435 C1434 1.355 . S
C1435 C1437 1.419 . S
C1436 C1434 1.415 . S
C1436 C1441 1.425 . S
C1436 C1443 1.409 . S
C1437 H1429 0.930 . S
C1437 C1435 1.419 . S
C1437 C1438 1.362 . S
C1438 H1430 0.930 . S
C1438 C1437 1.362 . S
C1438 C1441 1.409 . S
C1439 H1431 0.930 . S
C1439 C1440 1.355 . S
C1439 C1441 1.415 . S
C1440 C1439 1.355 . S
C1440 C1442 1.419 . S
C1441 C1436 1.425 . S
C1441 C1438 1.409 . S
C1441 C1439 1.415 . S
C1442 H1432 0.930 . S
C1442 C1440 1.419 . S
C1442 C1443 1.362 . S
C1443 H1433 0.930 . S
C1443 C1436 1.409 . S
C1443 C1442 1.362 . S
H1444 C1450 0.930 . S
H1445 C1453 0.930 . S
H1446 C1454 0.930 . S
H1447 C1455 0.930 . S
H1448 C1458 0.930 . S
H1449 C1459 0.930 . S
C1450 H1444 0.930 . S
C1450 C1451 1.355 . S
C1450 C1452 1.415 . S
C1451 C1450 1.355 . S
C1451 C1453 1.419 . S
C1452 C1450 1.415 . S
C1452 C1457 1.425 . S
C1452 C1459 1.409 . S
C1453 H1445 0.930 . S
C1453 C1451 1.419 . S
C1453 C1454 1.362 . S
C1454 H1446 0.930 . S
C1454 C1453 1.362 . S
C1454 C1457 1.409 . S
C1455 H1447 0.930 . S
C1455 C1456 1.355 . S
C1455 C1457 1.415 . S
C1456 C1455 1.355 . S
C1456 C1458 1.419 . S
C1457 C1452 1.425 . S
C1457 C1454 1.409 . S
C1457 C1455 1.415 . S
C1458 H1448 0.930 . S
C1458 C1456 1.419 . S
C1458 C1459 1.362 . S
C1459 H1449 0.930 . S
C1459 C1452 1.409 . S
C1459 C1458 1.362 . S
H1460 C1466 0.930 . S
H1461 C1469 0.930 . S
H1462 C1470 0.930 . S
H1463 C1471 0.930 1_545 S
H1464 C1474 0.930 . S
H1465 C1475 0.930 . S
C1466 H1460 0.930 . S
C1466 C1467 1.355 . S
C1466 C1468 1.415 . S
C1467 C1466 1.355 . S
C1467 C1469 1.419 1_565 S
C1468 C1466 1.415 . S
C1468 C1473 1.425 . S
C1468 C1475 1.409 . S
C1469 H1461 0.930 . S
C1469 C1467 1.419 1_545 S
C1469 C1470 1.362 . S
C1470 H1462 0.930 . S
C1470 C1469 1.362 . S
C1470 C1473 1.409 1_545 S
C1471 H1463 0.930 1_565 S
C1471 C1472 1.355 . S
C1471 C1473 1.415 . S
C1472 C1471 1.355 . S
C1472 C1474 1.419 . S
C1473 C1468 1.425 . S
C1473 C1470 1.409 1_565 S
C1473 C1471 1.415 . S
C1474 H1464 0.930 . S
C1474 C1472 1.419 . S
C1474 C1475 1.362 . S
C1475 H1465 0.930 . S
C1475 C1468 1.409 . S
C1475 C1474 1.362 . S
H1476 C1482 0.930 . S
H1477 C1485 0.930 . S
H1478 C1486 0.930 . S
H1479 C1487 0.930 . S
H1480 C1490 0.930 . S
H1481 C1491 0.930 . S
C1482 H1476 0.930 . S
C1482 C1483 1.355 . S
C1482 C1484 1.415 . S
C1483 C1482 1.355 . S
C1483 C1485 1.419 . S
C1484 C1482 1.415 . S
C1484 C1489 1.425 . S
C1484 C1491 1.409 . S
C1485 H1477 0.930 . S
C1485 C1483 1.419 . S
C1485 C1486 1.362 . S
C1486 H1478 0.930 . S
C1486 C1485 1.362 . S
C1486 C1489 1.409 . S
C1487 H1479 0.930 . S
C1487 C1488 1.355 . S
C1487 C1489 1.415 . S
C1488 C1487 1.355 . S
C1488 C1490 1.419 . S
C1489 C1484 1.425 . S
C1489 C1486 1.409 . S
C1489 C1487 1.415 . S
C1490 H1480 0.930 . S
C1490 C1488 1.419 . S
C1490 C1491 1.362 . S
C1491 H1481 0.930 . S
C1491 C1484 1.409 . S
C1491 C1490 1.362 . S
H1492 C1498 0.930 . S
H1493 C1501 0.930 . S
H1494 C1502 0.930 . S
H1495 C1503 0.930 . S
H1496 C1506 0.930 . S
H1497 C1507 0.930 . S
C1498 H1492 0.930 . S
C1498 C1499 1.355 . S
C1498 C1500 1.415 . S
C1499 C1498 1.355 . S
C1499 C1501 1.419 . S
C1500 C1498 1.415 . S
C1500 C1505 1.425 . S
C1500 C1507 1.409 . S
C1501 H1493 0.930 . S
C1501 C1499 1.419 . S
C1501 C1502 1.362 . S
C1502 H1494 0.930 . S
C1502 C1501 1.362 . S
C1502 C1505 1.409 . S
C1503 H1495 0.930 . S
C1503 C1504 1.355 . S
C1503 C1505 1.415 . S
C1504 C1503 1.355 . S
C1504 C1506 1.419 . S
C1505 C1500 1.425 . S
C1505 C1502 1.409 . S
C1505 C1503 1.415 . S
C1506 H1496 0.930 . S
C1506 C1504 1.419 . S
C1506 C1507 1.362 . S
C1507 H1497 0.930 . S
C1507 C1500 1.409 . S
C1507 C1506 1.362 . S
H1508 C1514 0.930 . S
H1509 C1517 0.930 . S
H1510 C1518 0.930 . S
H1511 C1519 0.930 . S
H1512 C1522 0.930 . S
H1513 C1523 0.930 . S
C1514 H1508 0.930 . S
C1514 C1515 1.355 . S
C1514 C1516 1.415 . S
C1515 C1514 1.355 . S
C1515 C1517 1.419 . S
C1516 C1514 1.415 . S
C1516 C1521 1.425 . S
C1516 C1523 1.409 . S
C1517 H1509 0.930 . S
C1517 C1515 1.419 . S
C1517 C1518 1.362 . S
C1518 H1510 0.930 . S
C1518 C1517 1.362 . S
C1518 C1521 1.409 . S
C1519 H1511 0.930 . S
C1519 C1520 1.355 . S
C1519 C1521 1.415 . S
C1520 C1519 1.355 . S
C1520 C1522 1.419 . S
C1521 C1516 1.425 . S
C1521 C1518 1.409 . S
C1521 C1519 1.415 . S
C1522 H1512 0.930 . S
C1522 C1520 1.419 . S
C1522 C1523 1.362 . S
C1523 H1513 0.930 . S
C1523 C1516 1.409 . S
C1523 C1522 1.362 . S
H1524 C1530 0.930 . S
H1525 C1533 0.930 . S
H1526 C1534 0.930 . S
H1527 C1535 0.930 . S
H1528 C1538 0.930 . S
H1529 C1539 0.930 . S
C1530 H1524 0.930 . S
C1530 C1531 1.355 . S
C1530 C1532 1.415 . S
C1531 C1530 1.355 . S
C1531 C1533 1.419 1_556 S
C1532 C1530 1.415 . S
C1532 C1537 1.425 1_556 S
C1532 C1539 1.409 . S
C1533 H1525 0.930 . S
C1533 C1531 1.419 1_554 S
C1533 C1534 1.362 . S
C1534 H1526 0.930 . S
C1534 C1533 1.362 . S
C1534 C1537 1.409 . S
C1535 H1527 0.930 . S
C1535 C1536 1.355 1_554 S
C1535 C1537 1.415 . S
C1536 C1535 1.355 1_556 S
C1536 C1538 1.419 . S
C1537 C1532 1.425 1_554 S
C1537 C1534 1.409 . S
C1537 C1535 1.415 . S
C1538 H1528 0.930 . S
C1538 C1536 1.419 . S
C1538 C1539 1.362 . S
C1539 H1529 0.930 . S
C1539 C1532 1.409 . S
C1539 C1538 1.362 . S
H1540 C1546 0.930 . S
H1541 C1549 0.930 . S
H1542 C1550 0.930 . S
H1543 C1551 0.930 . S
H1544 C1554 0.930 . S
H1545 C1555 0.930 . S
C1546 H1540 0.930 . S
C1546 C1547 1.355 . S
C1546 C1548 1.415 . S
C1547 C1546 1.355 . S
C1547 C1549 1.419 . S
C1548 C1546 1.415 . S
C1548 C1553 1.425 . S
C1548 C1555 1.409 . S
C1549 H1541 0.930 . S
C1549 C1547 1.419 . S
C1549 C1550 1.362 . S
C1550 H1542 0.930 . S
C1550 C1549 1.362 . S
C1550 C1553 1.409 . S
C1551 H1543 0.930 . S
C1551 C1552 1.355 . S
C1551 C1553 1.415 . S
C1552 C1551 1.355 . S
C1552 C1554 1.419 . S
C1553 C1548 1.425 . S
C1553 C1550 1.409 . S
C1553 C1551 1.415 . S
C1554 H1544 0.930 . S
C1554 C1552 1.419 . S
C1554 C1555 1.362 . S
C1555 H1545 0.930 . S
C1555 C1548 1.409 . S
C1555 C1554 1.362 . S
H1556 C1562 0.939 . S
H1557 C1565 0.930 . S
H1558 C1566 0.930 . S
H1559 C1567 0.930 . S
H1560 C1570 0.930 . S
H1561 C1571 0.930 . S
C1562 H1556 0.939 . S
C1562 C1563 1.347 1_556 S
C1562 C1564 1.414 1_556 S
C1563 C1562 1.347 1_554 S
C1563 C1565 1.419 . S
C1564 C1562 1.414 1_554 S
C1564 C1569 1.425 . S
C1564 C1571 1.409 1_554 S
C1565 H1557 0.930 . S
C1565 C1563 1.419 . S
C1565 C1566 1.362 . S
C1566 H1558 0.930 . S
C1566 C1565 1.362 . S
C1566 C1569 1.409 . S
C1567 H1559 0.930 . S
C1567 C1568 1.355 . S
C1567 C1569 1.415 . S
C1568 C1567 1.355 . S
C1568 C1570 1.419 1_554 S
C1569 C1564 1.425 . S
C1569 C1566 1.409 . S
C1569 C1567 1.415 . S
C1570 H1560 0.930 . S
C1570 C1568 1.419 1_556 S
C1570 C1571 1.362 . S
C1571 H1561 0.930 . S
C1571 C1564 1.409 1_556 S
C1571 C1570 1.362 . S
C811 C22 1.640 . S
C816 C697 1.595 . S
C832 C702 1.739 . S
C827 C38 1.783 . S
C848 C640 1.578 1_565 S
C843 C75 1.697 . S
C859 C91 1.705 . S
C864 C664 1.648 . S
C875 C128 1.673 . S
C880 C802 1.645 . S
C891 C197 1.675 . S
C896 C769 1.643 . S
C912 C723 1.691 . S
C907 C144 1.823 . S
C923 C181 1.660 . S
C928 C757 1.549 . S
C944 C676 1.680 . S
C939 C234 1.730 . S
C960 C703 1.628 . S
C955 C303 1.740 . S
C971 C356 1.735 . S
C976 C694 1.617 . S
C987 C287 1.734 . S
C992 C760 1.615 . S
C1008 C781 1.584 . S
C1003 C393 1.603 . S
C1024 C799 1.740 1_565 S
C1019 C409 1.815 . S
C1035 C462 1.905 . S
C1040 C748 1.818 . S
C1056 C724 1.424 . S
C1051 C446 1.545 . S
C1067 C499 1.661 . S
C1072 C719 1.577 . S
C1083 C552 1.596 . S
C1088 C685 1.521 . S
C1104 C673 1.582 . S
C1099 C515 1.685 . S
C1115 C568 1.968 . S
C1120 C639 1.889 . S
C1136 C740 1.690 . S
C1131 C340 1.781 . S
C1152 C790 1.607 . S
C1147 C621 1.665 . S
C1163 C250 1.659 . S
C1168 C778 1.573 . S
C1179 C605 1.672 . S
C1184 C656 1.619 1_655 S
C1200 C655 1.249 . S
C1195 C39 1.467 . S
C1211 C29 1.162 . S
C1216 C677 0.961 . S
C1232 C682 1.166 . S
C1227 C92 1.476 . S
C1248 C715 1.004 . S
C1243 C82 1.236 . S
C1259 C145 1.492 . S
C1264 C652 1.284 . S
C1275 C188 1.253 . S
C1280 C660 1.035 . S
C1296 C698 1.082 . S
C1291 C135 1.276 . S
C1307 C198 1.432 . S
C1312 C706 1.278 . S
C1323 C251 1.367 . S
C1328 C643 1.163 . S
C1344 C681 1.014 . S
C1339 C294 1.231 . S
C1355 C347 1.273 . S
C1360 C718 1.184 . S
C1371 C304 1.458 . S
C1376 C727 1.285 . S
C1392 C761 1.262 . S
C1387 C410 1.409 . S
C1403 C400 1.239 . S
C1408 C739 1.132 . S
C1419 C453 1.181 . S
C1424 C766 1.098 . S
C1435 C463 1.569 . S
C1440 C786 1.251 . S
C1451 C516 1.456 . S
C1456 C744 1.337 . S
C1472 C736 1.257 . S
C1467 C569 1.484 . S
C1483 C506 1.143 . S
C1488 C782 1.078 . S
C1504 C787 1.075 . S
C1499 C559 1.264 . S
C1520 C745 1.308 . S
C1515 C357 1.394 . S
C1536 C765 1.029 . S
C1531 C612 1.215 . S
C1552 C803 1.085 . S
C1547 C241 1.146 . S
C1563 C622 1.432 . S
C1568 C661 1.272 . S
