# Generated by pormake.
# Topology gar, (4,6)-cn, num edge types: 1
# Building blocks:
#     Node 0, Type 0, BuildingBlock: QUQFOY_clean_sbu_3, # of connection points: 4
#     Node 1, Type 0, BuildingBlock: QUQFOY_clean_sbu_3, # of connection points: 4
#     Node 2, Type 0, BuildingBlock: QUQFOY_clean_sbu_3, # of connection points: 4
#     Node 3, Type 0, BuildingBlock: QUQFOY_clean_sbu_3, # of connection points: 4
#     Node 4, Type 0, BuildingBlock: QUQFOY_clean_sbu_3, # of connection points: 4
#     Node 5, Type 0, BuildingBlock: QUQFOY_clean_sbu_3, # of connection points: 4
#     Node 6, Type 0, BuildingBlock: QUQFOY_clean_sbu_3, # of connection points: 4
#     Node 7, Type 0, BuildingBlock: QUQFOY_clean_sbu_3, # of connection points: 4
#     Node 8, Type 0, BuildingBlock: QUQFOY_clean_sbu_3, # of connection points: 4
#     Node 9, Type 0, BuildingBlock: QUQFOY_clean_sbu_3, # of connection points: 4
#     Node 10, Type 0, BuildingBlock: QUQFOY_clean_sbu_3, # of connection points: 4
#     Node 11, Type 0, BuildingBlock: QUQFOY_clean_sbu_3, # of connection points: 4
#     Node 12, Type 0, BuildingBlock: QUQFOY_clean_sbu_3, # of connection points: 4
#     Node 13, Type 0, BuildingBlock: QUQFOY_clean_sbu_3, # of connection points: 4
#     Node 14, Type 0, BuildingBlock: QUQFOY_clean_sbu_3, # of connection points: 4
#     Node 15, Type 0, BuildingBlock: QUQFOY_clean_sbu_3, # of connection points: 4
#     Node 16, Type 0, BuildingBlock: QUQFOY_clean_sbu_3, # of connection points: 4
#     Node 17, Type 0, BuildingBlock: QUQFOY_clean_sbu_3, # of connection points: 4
#     Node 18, Type 0, BuildingBlock: QUQFOY_clean_sbu_3, # of connection points: 4
#     Node 19, Type 0, BuildingBlock: QUQFOY_clean_sbu_3, # of connection points: 4
#     Node 20, Type 0, BuildingBlock: QUQFOY_clean_sbu_3, # of connection points: 4
#     Node 21, Type 0, BuildingBlock: QUQFOY_clean_sbu_3, # of connection points: 4
#     Node 22, Type 0, BuildingBlock: QUQFOY_clean_sbu_3, # of connection points: 4
#     Node 23, Type 0, BuildingBlock: QUQFOY_clean_sbu_3, # of connection points: 4
#     Node 24, Type 1, BuildingBlock: KUMBUR_clean_sbu_0, # of connection points: 6
#     Node 25, Type 1, BuildingBlock: KUMBUR_clean_sbu_0, # of connection points: 6
#     Node 26, Type 1, BuildingBlock: KUMBUR_clean_sbu_0, # of connection points: 6
#     Node 27, Type 1, BuildingBlock: KUMBUR_clean_sbu_0, # of connection points: 6
#     Node 28, Type 1, BuildingBlock: KUMBUR_clean_sbu_0, # of connection points: 6
#     Node 29, Type 1, BuildingBlock: KUMBUR_clean_sbu_0, # of connection points: 6
#     Node 30, Type 1, BuildingBlock: KUMBUR_clean_sbu_0, # of connection points: 6
#     Node 31, Type 1, BuildingBlock: KUMBUR_clean_sbu_0, # of connection points: 6
#     Node 32, Type 1, BuildingBlock: KUMBUR_clean_sbu_0, # of connection points: 6
#     Node 33, Type 1, BuildingBlock: KUMBUR_clean_sbu_0, # of connection points: 6
#     Node 34, Type 1, BuildingBlock: KUMBUR_clean_sbu_0, # of connection points: 6
#     Node 35, Type 1, BuildingBlock: KUMBUR_clean_sbu_0, # of connection points: 6
#     Node 36, Type 1, BuildingBlock: KUMBUR_clean_sbu_0, # of connection points: 6
#     Node 37, Type 1, BuildingBlock: KUMBUR_clean_sbu_0, # of connection points: 6
#     Node 38, Type 1, BuildingBlock: KUMBUR_clean_sbu_0, # of connection points: 6
#     Node 39, Type 1, BuildingBlock: KUMBUR_clean_sbu_0, # of connection points: 6
#     Edge 40, Type (0, 1), BuildingBlock: CIFDUS_clean_linker_0, # of connection points: 2
#     Edge 41, Type (0, 1), BuildingBlock: CIFDUS_clean_linker_0, # of connection points: 2
#     Edge 42, Type (0, 1), BuildingBlock: CIFDUS_clean_linker_0, # of connection points: 2
#     Edge 43, Type (0, 1), BuildingBlock: CIFDUS_clean_linker_0, # of connection points: 2
#     Edge 44, Type (0, 1), BuildingBlock: CIFDUS_clean_linker_0, # of connection points: 2
#     Edge 45, Type (0, 1), BuildingBlock: CIFDUS_clean_linker_0, # of connection points: 2
#     Edge 46, Type (0, 1), BuildingBlock: CIFDUS_clean_linker_0, # of connection points: 2
#     Edge 47, Type (0, 1), BuildingBlock: CIFDUS_clean_linker_0, # of connection points: 2
#     Edge 48, Type (0, 1), BuildingBlock: CIFDUS_clean_linker_0, # of connection points: 2
#     Edge 49, Type (0, 1), BuildingBlock: CIFDUS_clean_linker_0, # of connection points: 2
#     Edge 50, Type (0, 1), BuildingBlock: CIFDUS_clean_linker_0, # of connection points: 2
#     Edge 51, Type (0, 1), BuildingBlock: CIFDUS_clean_linker_0, # of connection points: 2
#     Edge 52, Type (0, 1), BuildingBlock: CIFDUS_clean_linker_0, # of connection points: 2
#     Edge 53, Type (0, 1), BuildingBlock: CIFDUS_clean_linker_0, # of connection points: 2
#     Edge 54, Type (0, 1), BuildingBlock: CIFDUS_clean_linker_0, # of connection points: 2
#     Edge 55, Type (0, 1), BuildingBlock: CIFDUS_clean_linker_0, # of connection points: 2
#     Edge 56, Type (0, 1), BuildingBlock: CIFDUS_clean_linker_0, # of connection points: 2
#     Edge 57, Type (0, 1), BuildingBlock: CIFDUS_clean_linker_0, # of connection points: 2
#     Edge 58, Type (0, 1), BuildingBlock: CIFDUS_clean_linker_0, # of connection points: 2
#     Edge 59, Type (0, 1), BuildingBlock: CIFDUS_clean_linker_0, # of connection points: 2
#     Edge 60, Type (0, 1), BuildingBlock: CIFDUS_clean_linker_0, # of connection points: 2
#     Edge 61, Type (0, 1), BuildingBlock: CIFDUS_clean_linker_0, # of connection points: 2
#     Edge 62, Type (0, 1), BuildingBlock: CIFDUS_clean_linker_0, # of connection points: 2
#     Edge 63, Type (0, 1), BuildingBlock: CIFDUS_clean_linker_0, # of connection points: 2
#     Edge 64, Type (0, 1), BuildingBlock: CIFDUS_clean_linker_0, # of connection points: 2
#     Edge 65, Type (0, 1), BuildingBlock: CIFDUS_clean_linker_0, # of connection points: 2
#     Edge 66, Type (0, 1), BuildingBlock: CIFDUS_clean_linker_0, # of connection points: 2
#     Edge 67, Type (0, 1), BuildingBlock: CIFDUS_clean_linker_0, # of connection points: 2
#     Edge 68, Type (0, 1), BuildingBlock: CIFDUS_clean_linker_0, # of connection points: 2
#     Edge 69, Type (0, 1), BuildingBlock: CIFDUS_clean_linker_0, # of connection points: 2
#     Edge 70, Type (0, 1), BuildingBlock: CIFDUS_clean_linker_0, # of connection points: 2
#     Edge 71, Type (0, 1), BuildingBlock: CIFDUS_clean_linker_0, # of connection points: 2
#     Edge 72, Type (0, 1), BuildingBlock: CIFDUS_clean_linker_0, # of connection points: 2
#     Edge 73, Type (0, 1), BuildingBlock: CIFDUS_clean_linker_0, # of connection points: 2
#     Edge 74, Type (0, 1), BuildingBlock: CIFDUS_clean_linker_0, # of connection points: 2
#     Edge 75, Type (0, 1), BuildingBlock: CIFDUS_clean_linker_0, # of connection points: 2
#     Edge 76, Type (0, 1), BuildingBlock: CIFDUS_clean_linker_0, # of connection points: 2
#     Edge 77, Type (0, 1), BuildingBlock: CIFDUS_clean_linker_0, # of connection points: 2
#     Edge 78, Type (0, 1), BuildingBlock: CIFDUS_clean_linker_0, # of connection points: 2
#     Edge 79, Type (0, 1), BuildingBlock: CIFDUS_clean_linker_0, # of connection points: 2
#     Edge 80, Type (0, 1), BuildingBlock: CIFDUS_clean_linker_0, # of connection points: 2
#     Edge 81, Type (0, 1), BuildingBlock: CIFDUS_clean_linker_0, # of connection points: 2
#     Edge 82, Type (0, 1), BuildingBlock: CIFDUS_clean_linker_0, # of connection points: 2
#     Edge 83, Type (0, 1), BuildingBlock: CIFDUS_clean_linker_0, # of connection points: 2
#     Edge 84, Type (0, 1), BuildingBlock: CIFDUS_clean_linker_0, # of connection points: 2
#     Edge 85, Type (0, 1), BuildingBlock: CIFDUS_clean_linker_0, # of connection points: 2
#     Edge 86, Type (0, 1), BuildingBlock: CIFDUS_clean_linker_0, # of connection points: 2
#     Edge 87, Type (0, 1), BuildingBlock: CIFDUS_clean_linker_0, # of connection points: 2
#     Edge 88, Type (0, 1), BuildingBlock: CIFDUS_clean_linker_0, # of connection points: 2
#     Edge 89, Type (0, 1), BuildingBlock: CIFDUS_clean_linker_0, # of connection points: 2
#     Edge 90, Type (0, 1), BuildingBlock: CIFDUS_clean_linker_0, # of connection points: 2
#     Edge 91, Type (0, 1), BuildingBlock: CIFDUS_clean_linker_0, # of connection points: 2
#     Edge 92, Type (0, 1), BuildingBlock: CIFDUS_clean_linker_0, # of connection points: 2
#     Edge 93, Type (0, 1), BuildingBlock: CIFDUS_clean_linker_0, # of connection points: 2
#     Edge 94, Type (0, 1), BuildingBlock: CIFDUS_clean_linker_0, # of connection points: 2
#     Edge 95, Type (0, 1), BuildingBlock: CIFDUS_clean_linker_0, # of connection points: 2
#     Edge 96, Type (0, 1), BuildingBlock: CIFDUS_clean_linker_0, # of connection points: 2
#     Edge 97, Type (0, 1), BuildingBlock: CIFDUS_clean_linker_0, # of connection points: 2
#     Edge 98, Type (0, 1), BuildingBlock: CIFDUS_clean_linker_0, # of connection points: 2
#     Edge 99, Type (0, 1), BuildingBlock: CIFDUS_clean_linker_0, # of connection points: 2
#     Edge 100, Type (0, 1), BuildingBlock: CIFDUS_clean_linker_0, # of connection points: 2
#     Edge 101, Type (0, 1), BuildingBlock: CIFDUS_clean_linker_0, # of connection points: 2
#     Edge 102, Type (0, 1), BuildingBlock: CIFDUS_clean_linker_0, # of connection points: 2
#     Edge 103, Type (0, 1), BuildingBlock: CIFDUS_clean_linker_0, # of connection points: 2
#     Edge 104, Type (0, 1), BuildingBlock: CIFDUS_clean_linker_0, # of connection points: 2
#     Edge 105, Type (0, 1), BuildingBlock: CIFDUS_clean_linker_0, # of connection points: 2
#     Edge 106, Type (0, 1), BuildingBlock: CIFDUS_clean_linker_0, # of connection points: 2
#     Edge 107, Type (0, 1), BuildingBlock: CIFDUS_clean_linker_0, # of connection points: 2
#     Edge 108, Type (0, 1), BuildingBlock: CIFDUS_clean_linker_0, # of connection points: 2
#     Edge 109, Type (0, 1), BuildingBlock: CIFDUS_clean_linker_0, # of connection points: 2
#     Edge 110, Type (0, 1), BuildingBlock: CIFDUS_clean_linker_0, # of connection points: 2
#     Edge 111, Type (0, 1), BuildingBlock: CIFDUS_clean_linker_0, # of connection points: 2
#     Edge 112, Type (0, 1), BuildingBlock: CIFDUS_clean_linker_0, # of connection points: 2
#     Edge 113, Type (0, 1), BuildingBlock: CIFDUS_clean_linker_0, # of connection points: 2
#     Edge 114, Type (0, 1), BuildingBlock: CIFDUS_clean_linker_0, # of connection points: 2
#     Edge 115, Type (0, 1), BuildingBlock: CIFDUS_clean_linker_0, # of connection points: 2
#     Edge 116, Type (0, 1), BuildingBlock: CIFDUS_clean_linker_0, # of connection points: 2
#     Edge 117, Type (0, 1), BuildingBlock: CIFDUS_clean_linker_0, # of connection points: 2
#     Edge 118, Type (0, 1), BuildingBlock: CIFDUS_clean_linker_0, # of connection points: 2
#     Edge 119, Type (0, 1), BuildingBlock: CIFDUS_clean_linker_0, # of connection points: 2
#     Edge 120, Type (0, 1), BuildingBlock: CIFDUS_clean_linker_0, # of connection points: 2
#     Edge 121, Type (0, 1), BuildingBlock: CIFDUS_clean_linker_0, # of connection points: 2
#     Edge 122, Type (0, 1), BuildingBlock: CIFDUS_clean_linker_0, # of connection points: 2
#     Edge 123, Type (0, 1), BuildingBlock: CIFDUS_clean_linker_0, # of connection points: 2
#     Edge 124, Type (0, 1), BuildingBlock: CIFDUS_clean_linker_0, # of connection points: 2
#     Edge 125, Type (0, 1), BuildingBlock: CIFDUS_clean_linker_0, # of connection points: 2
#     Edge 126, Type (0, 1), BuildingBlock: CIFDUS_clean_linker_0, # of connection points: 2
#     Edge 127, Type (0, 1), BuildingBlock: CIFDUS_clean_linker_0, # of connection points: 2
#     Edge 128, Type (0, 1), BuildingBlock: CIFDUS_clean_linker_0, # of connection points: 2
#     Edge 129, Type (0, 1), BuildingBlock: CIFDUS_clean_linker_0, # of connection points: 2
#     Edge 130, Type (0, 1), BuildingBlock: CIFDUS_clean_linker_0, # of connection points: 2
#     Edge 131, Type (0, 1), BuildingBlock: CIFDUS_clean_linker_0, # of connection points: 2
#     Edge 132, Type (0, 1), BuildingBlock: CIFDUS_clean_linker_0, # of connection points: 2
#     Edge 133, Type (0, 1), BuildingBlock: CIFDUS_clean_linker_0, # of connection points: 2
#     Edge 134, Type (0, 1), BuildingBlock: CIFDUS_clean_linker_0, # of connection points: 2
#     Edge 135, Type (0, 1), BuildingBlock: CIFDUS_clean_linker_0, # of connection points: 2
# Relax obj value: 0.129
# Max RMSD: 0.337
# Mean RMSD: 0.150
data_MOF--net-gar--node1-QUQFOY_clean_sbu_3--node2-KUMBUR_clean_sbu_0--edge1-CIFDUS_clean_linker_0
_symmetry_space_group_name_H-M    P1
_symmetry_Int_Tables_number       1
_symmetry_cell_setting            triclinic
loop_
_symmetry_equiv_pos_as_xyz
'x, y, z'
_cell_length_a     54.938427
_cell_length_b     50.985598
_cell_length_c     50.326127
_cell_angle_alpha  101.575
_cell_angle_beta   93.653702
_cell_angle_gamma 102.79578
loop_
_atom_site_label
_atom_site_type_symbol
_atom_site_fract_x
_atom_site_fract_y
_atom_site_fract_z
_atom_type_partial_charge
C0 C 0.08286 0.35082 0.36552 0.0
O1 O 0.09938 0.36459 0.35378 0.0
Cd2 Cd 0.14275 0.36402 0.35337 0.0
O3 O 0.08835 0.33425 0.3794 0.0
Cd4 Cd 0.12711 0.32308 0.3942 0.0
C5 C 0.15084 0.39243 0.4195 0.0
O6 O 0.14171 0.31643 0.35028 0.0
O7 O 0.16735 0.31571 0.38434 0.0
O8 O 0.1016 0.27871 0.39667 0.0
C9 C 0.16241 0.31238 0.35876 0.0
O10 O 0.15897 0.39562 0.39697 0.0
C11 C 0.1115 0.27959 0.42045 0.0
O12 O 0.13898 0.36883 0.42213 0.0
O13 O 0.12859 0.30086 0.4318 0.0
C14 C 0.97003 0.76001 0.70481 0.0
O15 O 0.97896 0.74442 0.71745 0.0
Cd16 Cd 0.01522 0.72872 0.7062 0.0
O17 O 0.97918 0.76689 0.68401 0.0
Cd18 Cd 0.01116 0.7617 0.65532 0.0
C19 C 0.99446 0.69299 0.64005 0.0
O20 O 0.03921 0.76896 0.69482 0.0
O21 O 0.05609 0.7609 0.65768 0.0
O22 O 0.01036 0.80523 0.6436 0.0
C23 C 0.05851 0.7659 0.68356 0.0
O24 O 1.003 0.69303 0.66422 0.0
C25 C 0.00883 0.7954 0.61807 0.0
O26 O 0.99309 0.71522 0.63316 0.0
O27 O 0.00829 0.77 0.6104 0.0
C28 C 0.59755 0.85717 0.85413 0.0
O29 O 0.61733 0.86912 0.84546 0.0
Cd30 Cd 0.65915 0.86578 0.85716 0.0
O31 O 0.59834 0.84098 0.87025 0.0
Cd32 Cd 0.63071 0.82574 0.89426 0.0
C33 C 0.65507 0.89408 0.92202 0.0
O34 O 0.65336 0.81774 0.85714 0.0
O35 O 0.67204 0.81671 0.89579 0.0
O36 O 0.60138 0.78234 0.89432 0.0
C37 C 0.67173 0.81298 0.87011 0.0
O38 O 0.66691 0.89792 0.90167 0.0
C39 C 0.6084 0.78385 0.91928 0.0
O40 O 0.64159 0.87053 0.92245 0.0
O41 O 0.62471 0.80516 0.93203 0.0
C42 C 0.46845 0.24933 0.20298 0.0
O43 O 0.47684 0.23308 0.21514 0.0
Cd44 Cd 0.51193 0.21672 0.20139 0.0
O45 O 0.47744 0.25591 0.18189 0.0
Cd46 Cd 0.50911 0.2488 0.15226 0.0
C47 C 0.4884 0.1805 0.13572 0.0
O48 O 0.53739 0.25773 0.19251 0.0
O49 O 0.55235 0.24394 0.15529 0.0
O50 O 0.51039 0.29392 0.14139 0.0
C51 C 0.55616 0.25338 0.18084 0.0
O52 O 0.49721 0.18095 0.15989 0.0
C53 C 0.51722 0.28633 0.11801 0.0
O54 O 0.4883 0.20278 0.12815 0.0
O55 O 0.5181 0.26137 0.11046 0.0
C56 C 0.0723 0.80919 0.15751 0.0
O57 O 0.0876 0.80306 0.17388 0.0
Cd58 Cd 0.12855 0.79703 0.16675 0.0
O59 O 0.079 0.81537 0.13513 0.0
Cd60 Cd 0.11758 0.8233 0.10879 0.0
C61 C 0.11364 0.75183 0.10127 0.0
O62 O 0.14834 0.83454 0.14974 0.0
O63 O 0.16519 0.82763 0.11273 0.0
O64 O 0.1099 0.87105 0.10757 0.0
C65 C 0.16799 0.83199 0.13864 0.0
O66 O 0.12046 0.7593 0.12689 0.0
C67 C 0.10827 0.86908 0.0819 0.0
O68 O 0.1092 0.76962 0.08774 0.0
O69 O 0.11127 0.84626 0.0682 0.0
C70 C 0.47373 0.76958 0.39288 0.0
O71 O 0.49024 0.78121 0.37975 0.0
Cd72 Cd 0.53405 0.79371 0.38552 0.0
O73 O 0.48058 0.76084 0.41398 0.0
Cd74 Cd 0.52644 0.76204 0.43886 0.0
C75 C 0.54232 0.83421 0.45259 0.0
O76 O 0.54546 0.75583 0.39661 0.0
O77 O 0.57271 0.77236 0.43155 0.0
O78 O 0.52025 0.71171 0.43715 0.0
C79 C 0.5684 0.76337 0.40591 0.0
O80 O 0.54289 0.82913 0.42685 0.0
C81 C 0.52918 0.71234 0.46126 0.0
O82 O 0.53558 0.81421 0.46474 0.0
O83 O 0.53452 0.73616 0.47723 0.0
C84 C 0.57387 0.31269 0.66036 0.0
O85 O 0.58916 0.30654 0.67672 0.0
Cd86 Cd 0.62862 0.29763 0.66582 0.0
O87 O 0.58046 0.3183 0.63777 0.0
Cd88 Cd 0.61868 0.32546 0.6112 0.0
C89 C 0.60608 0.25348 0.60098 0.0
O90 O 0.65109 0.33624 0.65146 0.0
O91 O 0.6645 0.32248 0.61363 0.0
O92 O 0.61031 0.37276 0.60986 0.0
C93 C 0.66935 0.33031 0.63942 0.0
O94 O 0.61461 0.25917 0.62617 0.0
C95 C 0.61078 0.37156 0.58442 0.0
O96 O 0.60389 0.27294 0.58884 0.0
O97 O 0.61551 0.3495 0.57107 0.0
C98 C 0.97646 0.2676 0.88757 0.0
O99 O 0.99242 0.28076 0.87494 0.0
Cd100 Cd 0.03576 0.29727 0.88979 0.0
O101 O 0.98374 0.26011 0.90927 0.0
Cd102 Cd 0.02833 0.26376 0.93789 0.0
C103 C 0.03446 0.33527 0.95557 0.0
O104 O 0.0515 0.25935 0.89769 0.0
O105 O 0.07503 0.2797 0.93489 0.0
O106 O 0.01831 0.21288 0.93712 0.0
C107 C 0.07356 0.26896 0.90966 0.0
O108 O 0.03733 0.33313 0.93039 0.0
C109 C 0.02847 0.21297 0.96057 0.0
O110 O 0.03033 0.31357 0.96563 0.0
O111 O 0.03719 0.23698 0.97563 0.0
C112 C 0.47165 0.04604 0.34868 0.0
O113 O 0.47961 0.0333 0.32798 0.0
Cd114 Cd 0.46017 0.02131 0.28303 0.0
O115 O 0.45156 0.05429 0.34666 0.0
Cd116 Cd 0.41988 0.05393 0.31105 0.0
C117 C 0.40303 0.98554 0.29707 0.0
O118 O 0.44894 0.06278 0.27959 0.0
O119 O 0.41107 0.04897 0.26065 0.0
O120 O 0.41642 0.0999 0.32997 0.0
C121 C 0.43414 0.05718 0.25798 0.0
O122 O 0.42332 0.98562 0.28612 0.0
C123 C 0.39283 0.09269 0.3306 0.0
O124 O 0.39761 1.00772 0.30841 0.0
O125 O 0.38265 0.06705 0.32461 0.0
C126 C 0.33136 0.1503 0.51096 0.0
O127 O 0.31257 0.13261 0.51508 0.0
Cd128 Cd 0.27217 0.13923 0.52431 0.0
O129 O 0.32955 0.17432 0.50864 0.0
Cd130 Cd 0.29445 0.19903 0.50481 0.0
C131 C 0.28858 0.2032 0.57243 0.0
O132 O 0.25991 0.15888 0.48947 0.0
O133 O 0.2484 0.19655 0.50234 0.0
O134 O 0.30472 0.20082 0.45863 0.0
C135 C 0.24203 0.17056 0.49377 0.0
O136 O 0.27969 0.17733 0.56373 0.0
C137 C 0.30856 0.22669 0.46113 0.0
O138 O 0.29762 0.21821 0.55607 0.0
O139 O 0.30654 0.24061 0.48462 0.0
C140 C 0.15388 0.02028 0.82997 0.0
O141 O 0.14239 0.03185 0.81489 0.0
Cd142 Cd 0.16975 0.03318 0.77736 0.0
O143 O 0.17211 0.01066 0.81935 0.0
Cd144 Cd 0.19122 1.00602 0.76602 0.0
C145 C 0.21898 0.07956 0.77669 0.0
O146 O 0.15055 0.01114 0.73078 0.0
O147 O 0.18348 1.00525 0.71316 0.0
O148 O 0.19423 0.95388 0.76761 0.0
C149 C 0.16144 1.00892 0.70895 0.0
O150 O 0.19636 0.07977 0.78032 0.0
C151 C 0.21748 0.95444 0.76575 0.0
O152 O 0.22447 0.05579 0.77227 0.0
O153 O 0.22944 0.9781 0.76294 0.0
C154 C 0.38833 0.99591 0.00991 0.0
O155 O 0.37637 1.00802 0.99586 0.0
Cd156 Cd 0.3338 0.98935 0.97812 0.0
O157 O 0.37713 0.97478 0.01806 0.0
Cd158 Cd 0.33435 0.94577 0.01609 0.0
C159 C 0.34255 0.92549 0.95109 0.0
O160 O 0.31104 0.97979 0.01537 0.0
O161 O 0.28932 0.93769 1.00195 0.0
O162 O 0.33856 0.93894 0.06268 0.0
C163 C 0.28979 0.96317 0.00782 0.0
O164 O 0.33935 0.9483 0.94672 0.0
C165 C 0.33395 0.9128 0.05489 0.0
O166 O 0.34161 0.92003 0.97448 0.0
O167 O 0.32914 0.90264 0.02946 0.0
C168 C 0.38341 0.43591 0.04193 0.0
O169 O 0.37092 0.44963 0.03058 0.0
Cd170 Cd 0.32783 0.43661 0.01445 0.0
O171 O 0.37229 0.41346 0.04814 0.0
Cd172 Cd 0.32584 0.38863 0.04545 0.0
C173 C 0.32546 0.37071 0.97721 0.0
O174 O 0.30633 0.42762 0.05205 0.0
O175 O 0.28174 0.38919 0.03083 0.0
O176 O 0.32847 0.38783 0.09403 0.0
C177 C 0.28421 0.41425 0.04251 0.0
O178 O 0.32433 0.39561 0.97851 0.0
C179 C 0.31893 0.36221 0.09093 0.0
O180 O 0.32716 0.36162 0.99896 0.0
O181 O 0.31389 0.34821 0.06647 0.0
C182 C 0.82874 0.10513 0.04373 0.0
O183 O 0.81352 0.09313 0.05797 0.0
Cd184 Cd 0.77109 0.09812 0.06084 0.0
O185 O 0.82193 0.12025 0.02901 0.0
Cd186 Cd 0.78658 0.13722 0.01723 0.0
C187 C 0.78346 0.16835 0.08056 0.0
O188 O 0.7522 0.09868 0.01725 0.0
O189 O 0.74382 0.13857 0.01881 0.0
O190 O 0.78831 0.13156 0.96861 0.0
C191 C 0.73606 0.1132 0.01857 0.0
O192 O 0.77523 0.14478 0.08576 0.0
C193 C 0.79538 0.15734 0.97013 0.0
O194 O 0.79125 0.17144 0.05794 0.0
O195 O 0.79917 0.17316 0.99371 0.0
C196 C 0.17561 0.5481 0.28542 0.0
O197 O 0.15801 0.55163 0.26985 0.0
Cd198 Cd 0.15482 0.5499 0.22216 0.0
O199 O 0.19527 0.54207 0.27639 0.0
Cd200 Cd 0.20932 0.53198 0.23077 0.0
C201 C 0.21058 0.59732 0.22311 0.0
O202 O 0.1682 0.50875 0.21007 0.0
O203 O 0.1967 0.50978 0.18299 0.0
O204 O 0.22445 0.49578 0.2423 0.0
C205 C 0.17362 0.50248 0.18608 0.0
O206 O 0.18666 0.59102 0.21904 0.0
C207 C 0.2467 0.50406 0.2368 0.0
O208 O 0.22254 0.57983 0.22811 0.0
O209 O 0.25217 0.52666 0.22903 0.0
C210 C 0.88449 0.94607 0.54967 0.0
O211 O 0.86985 0.96031 0.54303 0.0
Cd212 Cd 0.82671 0.94395 0.52685 0.0
O213 O 0.87585 0.9208 0.55056 0.0
Cd214 Cd 0.83108 0.88976 0.54591 0.0
C215 C 0.82509 0.88241 0.47879 0.0
O216 O 0.8063 0.92355 0.55956 0.0
O217 O 0.78625 0.88616 0.53167 0.0
O218 O 0.83339 0.88592 0.59311 0.0
C219 C 0.78547 0.90871 0.54732 0.0
O220 O 0.8232 0.90715 0.48685 0.0
C221 C 0.82736 0.85986 0.58889 0.0
O222 O 0.83017 0.8687 0.49618 0.0
O223 O 0.82486 0.84676 0.56412 0.0
C224 C 0.98679 0.06168 0.33275 0.0
O225 O 0.99518 0.04668 0.31401 0.0
Cd226 Cd 0.97675 0.03705 0.26682 0.0
O227 O 0.96982 0.07414 0.3251 0.0
Cd228 Cd 0.94349 0.07671 0.27284 0.0
C229 C 0.91613 1.00207 0.26599 0.0
O230 O 0.98275 0.07488 0.2423 0.0
O231 O 0.94716 0.06558 0.21951 0.0
O232 O 0.93756 0.12946 0.28852 0.0
C233 C 0.97076 0.0695 0.21851 0.0
O234 O 0.93814 1.00004 0.26097 0.0
C235 C 0.91587 0.1279 0.27642 0.0
O236 O 0.91198 0.02654 0.27191 0.0
O237 O 0.906 0.10329 0.26312 0.0
C238 C 0.32504 0.59566 0.54979 0.0
O239 O 0.30758 0.58685 0.56346 0.0
Cd240 Cd 0.2708 0.60487 0.56726 0.0
O241 O 0.3239 0.61481 0.5374 0.0
Cd242 Cd 0.29848 0.6455 0.52933 0.0
C243 C 0.2978 0.67328 0.59373 0.0
O244 O 0.25923 0.61239 0.5237 0.0
O245 O 0.25693 0.65483 0.52985 0.0
O246 O 0.30553 0.64606 0.48254 0.0
C247 C 0.24564 0.6296 0.52559 0.0
O248 O 0.2822 0.65128 0.59549 0.0
C249 C 0.31453 0.67198 0.48734 0.0
O250 O 0.30938 0.67488 0.57291 0.0
O251 O 0.3177 0.685 0.51207 0.0
C252 C 0.48511 0.56534 0.83704 0.0
O253 O 0.49581 0.55172 0.81948 0.0
Cd254 Cd 0.47759 0.53986 0.77185 0.0
O255 O 0.4674 0.5759 0.82763 0.0
Cd256 Cd 0.44335 0.57839 0.7744 0.0
C257 C 0.41623 0.5048 0.76988 0.0
O258 O 0.48239 0.57494 0.74394 0.0
O259 O 0.44663 0.56538 0.72113 0.0
O260 O 0.43976 0.63109 0.77556 0.0
C261 C 0.47024 0.56897 0.72013 0.0
O262 O 0.43891 0.50328 0.76811 0.0
C263 C 0.41613 0.62924 0.77527 0.0
O264 O 0.41122 0.52876 0.77224 0.0
O265 O 0.40433 0.60468 0.77539 0.0
C266 C 0.66708 0.0352 0.76586 0.0
O267 O 0.65112 0.03732 0.74757 0.0
Cd268 Cd 0.66173 0.04784 0.70581 0.0
O269 O 0.68989 0.03615 0.76163 0.0
Cd270 Cd 0.71463 0.03633 0.72139 0.0
C271 C 0.71378 0.10264 0.72784 0.0
O272 O 0.68136 0.0117 0.68852 0.0
O273 O 0.71249 0.03299 0.67147 0.0
O274 O 0.72756 0.99691 0.72821 0.0
C275 C 0.69103 0.01633 0.6674 0.0
O276 O 0.69066 0.09427 0.71824 0.0
C277 C 0.75095 1.00765 0.73063 0.0
O278 O 0.72668 0.08559 0.73151 0.0
O279 O 0.75779 0.03259 0.72862 0.0
C280 C 0.83971 0.65125 0.0134 0.0
O281 O 0.82306 0.63276 0.01988 0.0
Cd282 Cd 0.78211 0.6358 0.02945 0.0
O283 O 0.8349 0.67349 0.00883 0.0
Cd284 Cd 0.79691 0.69402 1.00476 0.0
C285 C 0.8006 0.7018 0.07395 0.0
O286 O 0.76749 0.64974 0.99146 0.0
O287 O 0.74936 0.68295 1.00126 0.0
O288 O 0.80716 0.69834 0.95892 0.0
C289 C 0.74714 0.65714 0.99371 0.0
O290 O 0.79291 0.67562 0.06742 0.0
C291 C 0.80757 0.72372 0.96167 0.0
O292 O 0.8043 0.71584 0.05552 0.0
O293 O 0.80345 0.7361 0.98495 0.0
C294 C 0.98484 0.56407 0.84735 0.0
O295 O 0.99398 0.54823 0.83011 0.0
Cd296 Cd 0.97507 0.52401 0.7863 0.0
O297 O 0.96301 0.56799 0.84276 0.0
Cd298 Cd 0.9312 0.55486 0.80335 0.0
C299 C 0.9187 0.48647 0.79984 0.0
O300 O 0.96342 0.56299 0.77531 0.0
O301 O 0.9274 0.54762 0.75205 0.0
O302 O 0.91825 0.59774 0.81555 0.0
C303 C 0.9508 0.5571 0.75234 0.0
O304 O 0.93986 0.48616 0.79093 0.0
C305 C 0.89505 0.58559 0.812 0.0
O306 O 0.91217 0.50895 0.80681 0.0
O307 O 0.88945 0.55947 0.80646 0.0
C308 C 0.88149 0.47256 0.50549 0.0
O309 O 0.87316 0.49018 0.49534 0.0
Cd310 Cd 0.83106 0.48093 0.47718 0.0
O311 O 0.86682 0.45174 0.51102 0.0
Cd312 Cd 0.822 0.43084 0.51183 0.0
C313 C 0.83114 0.41327 0.44735 0.0
O314 O 0.81084 0.47303 0.51563 0.0
O315 O 0.77943 0.43764 0.50318 0.0
O316 O 0.83182 0.42874 0.55866 0.0
C317 C 0.78746 0.46369 0.50981 0.0
O318 O 0.83291 0.43834 0.44618 0.0
C319 C 0.82081 0.40344 0.5556 0.0
O320 O 0.82591 0.40467 0.46875 0.0
O321 O 0.80955 0.39099 0.53209 0.0
C322 C 0.65365 0.51988 0.33179 0.0
O323 O 0.63845 0.52425 0.31411 0.0
Cd324 Cd 0.66715 0.52822 0.2777 0.0
O325 O 0.6746 0.51556 0.32302 0.0
Cd326 Cd 0.6923 0.50916 0.26881 0.0
C327 C 0.71251 0.58199 0.27975 0.0
O328 O 0.65062 0.5073 0.23087 0.0
O329 O 0.68686 0.5186 0.21866 0.0
O330 O 0.69648 0.45715 0.27118 0.0
C331 C 0.66329 0.51448 0.21188 0.0
O332 O 0.68875 0.57653 0.27956 0.0
C333 C 0.71929 0.45726 0.26719 0.0
O334 O 0.72274 0.56133 0.2784 0.0
O335 O 0.73054 0.48056 0.26279 0.0
Tb336 Tb 0.04046 0.02528 0.01405 0.0
C337 C 0.11706 0.12876 0.06448 0.0
C338 C 0.1296 0.14824 0.02597 0.0
C339 C 0.13781 0.17759 0.07136 0.0
C340 C 0.11902 0.12521 0.03682 0.0
C341 C 0.12654 0.15509 0.08203 0.0
C342 C 0.13929 0.17419 0.04339 0.0
C343 C 0.11495 0.13513 0.12007 0.0
N344 N 0.10634 0.10647 0.0743 0.0
C345 C 0.10631 0.1095 0.10214 0.0
C346 C 0.12504 0.15809 0.10999 0.0
Tb347 Tb 0.09897 0.06388 0.04405 0.0
N348 N 0.10974 0.09963 0.02048 0.0
C349 C 0.10837 0.09719 0.9926 0.0
C350 C 0.12974 0.14483 0.99784 0.0
C351 C 0.11853 0.11934 0.98109 0.0
H352 H 0.10125 0.09213 0.11145 0.0
H353 H 0.11732 0.11675 0.95912 0.0
H354 H 0.14774 0.19185 0.03536 0.0
H355 H 0.11469 0.13692 0.14185 0.0
H356 H 0.09823 0.079 0.97835 0.0
H357 H 0.02752 0.954 0.08126 0.0
H358 H 0.1376 0.16198 0.9888 0.0
H359 H 0.02506 0.0149 0.94786 0.0
H360 H 0.03752 0.99935 0.06982 0.0
H361 H 0.01117 0.97563 0.90819 0.0
H362 H 0.14539 0.19776 0.0846 0.0
H363 H 0.01695 0.91167 0.04459 0.0
H364 H 0.00834 0.89019 0.99441 0.0
H365 H 0.13225 0.17787 0.12403 0.0
H366 H 0.00401 0.89607 0.9471 0.0
N367 N 0.03378 0.98356 0.02679 0.0
C368 C 0.03308 0.98133 0.05342 0.0
C369 C 0.02162 0.93166 0.03938 0.0
C370 C 0.02102 0.93399 0.01215 0.0
C371 C 0.02744 0.95548 0.0601 0.0
C372 C 0.02731 0.96054 0.00651 0.0
H373 H 0.00502 0.92787 0.9147 0.0
N374 N 0.02952 0.98983 0.97604 0.0
C375 C 0.01535 0.97197 0.92824 0.0
C376 C 0.02509 0.96381 0.9801 0.0
C377 C 0.02355 0.99417 0.95069 0.0
C378 C 0.01191 0.94506 0.932 0.0
C379 C 0.01624 0.94069 0.95827 0.0
O380 O 0.01092 0.03793 0.99576 0.0
O381 O 0.06241 0.06812 0.02928 0.0
O382 O 0.07287 0.06248 0.07752 0.0
O383 O 0.03283 0.0415 0.05662 0.0
O384 O 0.04564 0.05624 0.98962 0.0
O385 O 0.00472 0.01543 0.02754 0.0
O386 O 0.11666 0.05706 0.07954 0.0
O387 O 0.07296 0.02424 0.04005 0.0
O388 O 0.0668 0.01907 0.9814 0.0
O389 O 0.10648 0.04633 1.00091 0.0
O390 O 0.10839 0.0237 0.03133 0.0
O391 O 0.13801 0.07849 0.05234 0.0
C392 C 0.05737 0.07727 0.00815 0.0
C393 C 0.96917 0.01575 0.99874 0.0
C394 C 0.9262 0.01917 1.00016 0.0
C395 C 0.95079 0.02575 0.01247 0.0
C396 C 0.9196 1.0018 0.97412 0.0
C397 C 0.96269 0.99788 0.97291 0.0
C398 C 0.93783 0.99081 0.9607 0.0
C399 C 0.04817 0.05436 0.07911 0.0
C400 C 0.99495 0.02773 0.01099 0.0
C401 C 0.01083 0.9141 0.96357 0.0
C402 C 0.01327 0.91075 0.9905 0.0
C403 C 0.08734 1.00781 0.03403 0.0
C404 C 0.16021 0.05951 0.08248 0.0
C405 C 0.17438 0.04891 0.06269 0.0
C406 C 0.19702 0.04312 0.07086 0.0
C407 C 0.20523 0.04722 0.09869 0.0
C408 C 0.16835 0.06333 0.1103 0.0
C409 C 0.19077 0.05709 0.11836 0.0
C410 C 0.09115 0.02968 0.97919 0.0
C411 C 0.13869 0.06996 0.07505 0.0
H412 H 0.95592 0.04013 0.03217 0.0
H413 H 0.90061 0.99719 0.96412 0.0
H414 H 0.97669 0.98997 0.96196 0.0
H415 H 0.93286 0.97747 0.94055 0.0
H416 H 0.16835 0.04607 0.04114 0.0
H417 H 0.22283 0.04283 0.10511 0.0
H418 H 0.15769 0.07186 0.12578 0.0
H419 H 0.19716 0.06039 0.13982 0.0
Tb420 Tb 0.32348 0.77881 0.24407 0.0
C421 C 0.29079 0.86212 0.3221 0.0
C422 C 0.32979 0.89038 0.34758 0.0
C423 C 0.29473 0.911 0.34137 0.0
C424 C 0.31513 0.86441 0.33279 0.0
C425 C 0.28008 0.88527 0.32716 0.0
C426 C 0.31958 0.91358 0.35145 0.0
C427 C 0.23999 0.8553 0.30803 0.0
N428 N 0.27695 0.83691 0.30866 0.0
C429 C 0.25133 0.83311 0.30391 0.0
C430 C 0.25455 0.88167 0.31916 0.0
Tb431 Tb 0.29645 0.80057 0.30508 0.0
N432 N 0.32436 0.84136 0.32912 0.0
C433 C 0.34847 0.84373 0.34031 0.0
C434 C 0.35431 0.89245 0.35827 0.0
C435 C 0.36364 0.86901 0.35463 0.0
H436 H 0.23922 0.81278 0.29728 0.0
H437 H 0.38266 0.87032 0.3629 0.0
H438 H 0.33062 0.93353 0.36268 0.0
H439 H 0.21987 0.85186 0.30332 0.0
H440 H 0.35708 0.82687 0.33855 0.0
H441 H 0.23876 0.7152 0.17852 0.0
H442 H 0.36614 0.91199 0.36951 0.0
H443 H 0.3782 0.76177 0.26023 0.0
H444 H 0.26304 0.75575 0.20927 0.0
H445 H 0.39545 0.72158 0.25203 0.0
H446 H 0.28682 0.92889 0.34527 0.0
H447 H 0.25507 0.67357 0.16731 0.0
H448 H 0.28919 0.65 0.17362 0.0
H449 H 0.24566 0.89883 0.32288 0.0
H450 H 0.33106 0.65127 0.19455 0.0
N451 N 0.29546 0.73988 0.2169 0.0
C452 C 0.27188 0.73902 0.20516 0.0
C453 C 0.2665 0.69191 0.18111 0.0
C454 C 0.29015 0.69224 0.19308 0.0
C455 C 0.2573 0.71535 0.18733 0.0
C456 C 0.30435 0.71667 0.21115 0.0
H457 H 0.3703 0.6774 0.22403 0.0
N458 N 0.34097 0.74077 0.24059 0.0
C459 C 0.37615 0.71974 0.24435 0.0
C460 C 0.32767 0.71711 0.22346 0.0
C461 C 0.3657 0.74256 0.24952 0.0
C462 C 0.36198 0.69497 0.22844 0.0
C463 C 0.3377 0.69352 0.21729 0.0
O464 O 0.36114 0.79446 0.23955 0.0
O465 O 0.32544 0.81133 0.27979 0.0
O466 O 0.27286 0.80358 0.26811 0.0
O467 O 0.29255 0.79461 0.22837 0.0
O468 O 0.32621 0.82158 0.24235 0.0
O469 O 0.3334 0.77797 0.2042 0.0
O470 O 0.26039 0.7819 0.31255 0.0
O471 O 0.29477 0.768 0.26932 0.0
O472 O 0.34678 0.77794 0.28167 0.0
O473 O 0.3281 0.78648 0.32185 0.0
O474 O 0.29342 0.75739 0.30668 0.0
O475 O 0.28866 0.80546 0.34589 0.0
C476 C 0.32727 0.83129 0.26817 0.0
C477 C 0.37104 0.8103 0.20011 0.0
C478 C 0.37341 0.84447 0.17255 0.0
C479 C 0.35907 0.82551 0.18552 0.0
C480 C 0.39959 0.84838 0.17431 0.0
C481 C 0.39729 0.81441 0.20182 0.0
C482 C 0.41149 0.83342 0.189 0.0
C483 C 0.27398 0.80215 0.24138 0.0
C484 C 0.35702 0.7893 0.21309 0.0
C485 C 0.32361 0.66942 0.19946 0.0
C486 C 0.29986 0.66876 0.18744 0.0
C487 C 0.29324 0.74815 0.28096 0.0
C488 C 0.2546 0.77234 0.35559 0.0
C489 C 0.26851 0.75622 0.36634 0.0
C490 C 0.25708 0.73775 0.38158 0.0
C491 C 0.23186 0.73565 0.38626 0.0
C492 C 0.22945 0.77027 0.36045 0.0
C493 C 0.21815 0.752 0.3758 0.0
C494 C 0.34643 0.77923 0.30833 0.0
C495 C 0.26543 0.79123 0.33884 0.0
H496 H 0.3388 0.82232 0.18382 0.0
H497 H 0.41074 0.8627 0.16396 0.0
H498 H 0.40678 0.80268 0.21289 0.0
H499 H 0.43168 0.83631 0.19018 0.0
H500 H 0.28798 0.75782 0.36273 0.0
H501 H 0.22295 0.72166 0.39833 0.0
H502 H 0.21856 0.78276 0.35229 0.0
H503 H 0.19877 0.75052 0.3796 0.0
Tb504 Tb 0.60054 0.0461 0.52038 0.0
C505 C 0.50382 0.99997 0.56876 0.0
C506 C 0.4799 0.96149 0.53373 0.0
C507 C 0.47286 0.96369 0.58123 0.0
C508 C 0.49818 0.98671 0.5416 0.0
C509 C 0.49093 0.9889 0.58888 0.0
C510 C 0.4674 0.94997 0.5537 0.0
C511 C 0.5133 0.02949 0.62229 0.0
N512 N 0.52117 0.0244 0.57532 0.0
C513 C 0.52541 0.03974 0.60157 0.0
C514 C 0.49612 1.00385 0.61596 0.0
Tb515 Tb 0.53842 0.04041 0.5397 0.0
N516 N 0.51062 0.99853 0.52291 0.0
C517 C 0.50508 0.98629 0.4957 0.0
C518 C 0.47462 0.94869 0.50602 0.0
C519 C 0.48723 0.96119 0.48693 0.0
H520 H 0.53844 0.05974 0.60662 0.0
H521 H 0.48319 0.95154 0.46541 0.0
H522 H 0.4533 0.93063 0.54805 0.0
H523 H 0.51708 0.04148 0.64309 0.0
H524 H 0.51441 0.99543 0.48042 0.0
H525 H 0.65418 0.13948 0.58997 0.0
H526 H 0.46075 0.92929 0.49914 0.0
H527 H 0.60685 0.02047 0.45585 0.0
H528 H 0.6253 0.09386 0.5776 0.0
H529 H 0.62644 0.03698 0.41778 0.0
H530 H 0.4628 0.95481 0.59638 0.0
H531 H 0.67347 0.16121 0.55423 0.0
H532 H 0.67935 0.15778 0.50468 0.0
H533 H 0.48659 0.99607 0.63201 0.0
H534 H 0.67118 0.13017 0.45753 0.0
N535 N 0.62697 0.08933 0.53461 0.0
C536 C 0.63315 0.10279 0.56146 0.0
C537 C 0.66054 0.14108 0.54851 0.0
C538 C 0.65503 0.12685 0.52122 0.0
C539 C 0.64972 0.12886 0.56873 0.0
C540 C 0.63809 0.10067 0.51489 0.0
H541 H 0.65144 0.08506 0.42486 0.0
N542 N 0.61838 0.05953 0.48378 0.0
C543 C 0.6283 0.05094 0.43747 0.0
C544 C 0.63331 0.08538 0.48844 0.0
C545 C 0.61699 0.04173 0.45911 0.0
C546 C 0.64235 0.07809 0.44153 0.0
C547 C 0.64561 0.09547 0.46747 0.0
O548 O 0.61563 0.0113 0.51023 0.0
O549 O 0.56605 0.01752 0.52596 0.0
O550 O 0.55879 0.02432 0.56865 0.0
O551 O 0.59833 0.0498 0.56403 0.0
O552 O 0.58173 1.00827 0.4911 0.0
O553 O 0.63477 0.04562 0.54185 0.0
O554 O 0.52279 0.07342 0.55563 0.0
O555 O 0.57257 0.06869 0.53348 0.0
O556 O 0.58087 0.05879 0.48853 0.0
O557 O 0.53965 0.04017 0.4963 0.0
O558 O 0.55702 0.07893 0.56841 0.0
O559 O 0.50542 0.04459 0.51847 0.0
C560 C 0.56419 0.99849 0.50472 0.0
C561 C 0.6593 0.01919 0.51598 0.0
C562 C 0.69028 0.99213 0.50523 0.0
C563 C 0.66929 0.99658 0.51849 0.0
C564 C 0.70103 0.01031 0.48927 0.0
C565 C 0.67099 0.03774 0.50086 0.0
C566 C 0.69153 0.03313 0.48732 0.0
C567 C 0.58261 0.03557 0.57762 0.0
C568 C 0.63566 0.02178 0.52732 0.0
C569 C 0.66169 0.12197 0.47339 0.0
C570 C 0.6664 0.13765 0.50024 0.0
C571 C 0.57419 0.08826 0.55414 0.0
C572 C 0.4797 0.06877 0.54542 0.0
C573 C 0.46754 0.08773 0.53681 0.0
C574 C 0.44575 0.09266 0.54803 0.0
C575 C 0.43612 0.07842 0.56767 0.0
C576 C 0.46959 0.05455 0.56487 0.0
C577 C 0.44793 0.05937 0.57592 0.0
C578 C 0.55644 0.05083 0.48126 0.0
C579 C 0.50425 0.06656 0.53631 0.0
H580 H 0.66061 0.9823 0.53043 0.0
H581 H 0.71728 1.00732 0.479 0.0
H582 H 0.66427 0.05569 0.49938 0.0
H583 H 0.70021 0.04739 0.47542 0.0
H584 H 0.47525 0.09898 0.52192 0.0
H585 H 0.41929 0.08191 0.57644 0.0
H586 H 0.47863 0.04017 0.572 0.0
H587 H 0.44039 0.04846 0.59108 0.0
Tb588 Tb 0.28599 0.30039 0.77432 0.0
C589 C 0.36735 0.2579 0.82048 0.0
C590 C 0.38253 0.29389 0.86131 0.0
C591 C 0.38557 0.24707 0.8611 0.0
C592 C 0.37098 0.28514 0.83409 0.0
C593 C 0.37551 0.23882 0.83353 0.0
C594 C 0.38899 0.27455 0.87499 0.0
C595 C 0.36686 0.20612 0.79012 0.0
N596 N 0.35815 0.25079 0.79365 0.0
C597 C 0.35929 0.22585 0.77802 0.0
C598 C 0.37458 0.21246 0.81811 0.0
Tb599 Tb 0.34632 0.28475 0.77596 0.0
N600 N 0.36533 0.30346 0.81991 0.0
C601 C 0.37285 0.33116 0.83122 0.0
C602 C 0.38842 0.32201 0.87352 0.0
C603 C 0.38399 0.34075 0.85822 0.0
H604 H 0.35327 0.22077 0.75638 0.0
H605 H 0.38903 0.36264 0.86724 0.0
H606 H 0.39764 0.28087 0.89596 0.0
H607 H 0.36685 0.1861 0.77783 0.0
H608 H 0.36946 0.34627 0.82032 0.0
H609 H 0.22422 0.21363 0.70074 0.0
H610 H 0.39719 0.32954 0.89439 0.0
H611 H 0.28221 0.3666 0.77917 0.0
H612 H 0.24541 0.23747 0.74555 0.0
H613 H 0.27471 0.39593 0.74795 0.0
H614 H 0.39168 0.23263 0.87155 0.0
H615 H 0.2244 0.23812 0.66312 0.0
H616 H 0.23448 0.28284 0.64823 0.0
H617 H 0.38074 0.19726 0.82737 0.0
H618 H 0.24845 0.33336 0.66127 0.0
N619 N 0.26137 0.27553 0.73391 0.0
C620 C 0.24747 0.24873 0.72957 0.0
C621 C 0.2346 0.24882 0.68286 0.0
C622 C 0.24631 0.27686 0.68805 0.0
C623 C 0.2345 0.23495 0.70401 0.0
C624 C 0.25927 0.28988 0.71422 0.0
H625 H 0.26256 0.37578 0.69872 0.0
N626 N 0.2765 0.32987 0.74779 0.0
C627 C 0.27298 0.37415 0.74005 0.0
C628 C 0.26728 0.31816 0.72142 0.0
C629 C 0.2773 0.35727 0.75767 0.0
C630 C 0.26624 0.36274 0.7123 0.0
C631 C 0.26235 0.33427 0.70282 0.0
O632 O 0.27195 0.32803 0.80332 0.0
O633 O 0.32149 0.30541 0.79908 0.0
O634 O 0.31974 0.24621 0.78152 0.0
O635 O 0.2805 0.25587 0.77475 0.0
O636 O 0.28937 0.28862 0.81336 0.0
O637 O 0.24951 0.28743 0.78447 0.0
O638 O 0.36445 0.29293 0.74171 0.0
O639 O 0.31459 0.2883 0.75037 0.0
O640 O 0.3147 0.34088 0.77653 0.0
O641 O 0.35298 0.32859 0.77483 0.0
O642 O 0.32867 0.2538 0.73951 0.0
O643 O 0.38555 0.28854 0.77668 0.0
C644 C 0.31299 0.29795 0.81988 0.0
C645 C 0.22724 0.31906 0.80549 0.0
C646 C 0.18884 0.31803 0.82803 0.0
C647 C 0.21242 0.31162 0.82602 0.0
C648 C 0.1804 0.33223 0.80954 0.0
C649 C 0.2183 0.33298 0.7871 0.0
C650 C 0.19507 0.3397 0.7893 0.0
C651 C 0.29468 0.23866 0.77886 0.0
C652 C 0.25082 0.30996 0.80255 0.0
C653 C 0.25188 0.32132 0.67595 0.0
C654 C 0.2439 0.29257 0.66855 0.0
C655 C 0.31222 0.26637 0.73225 0.0
C656 C 0.40095 0.27661 0.73423 0.0
C657 C 0.42592 0.28902 0.73105 0.0
C658 C 0.43948 0.27475 0.71281 0.0
C659 C 0.42806 0.24778 0.69838 0.0
C660 C 0.38991 0.24969 0.71948 0.0
C661 C 0.40351 0.23531 0.70186 0.0
C662 C 0.33954 0.34728 0.77509 0.0
C663 C 0.38641 0.29235 0.75209 0.0
H664 H 0.21897 0.30037 0.84001 0.0
H665 H 0.16234 0.33738 0.81068 0.0
H666 H 0.22902 0.33826 0.77083 0.0
H667 H 0.18825 0.35045 0.77503 0.0
H668 H 0.43456 0.30987 0.74226 0.0
H669 H 0.43826 0.23629 0.68453 0.0
H670 H 0.3707 0.23992 0.72129 0.0
H671 H 0.3949 0.21449 0.69066 0.0
Tb672 Tb 0.06366 0.06741 0.53839 0.0
C673 C 0.08106 0.99828 0.44052 0.0
C674 C 0.03894 0.98053 0.41703 0.0
C675 C 0.07443 0.98608 0.39072 0.0
C676 C 0.05545 0.99082 0.44151 0.0
C677 C 0.09083 0.99513 0.415 0.0
C678 C 0.04852 0.97885 0.39174 0.0
C679 C 0.13225 1.00504 0.43887 0.0
N680 N 0.09643 1.00576 0.46439 0.0
C681 C 0.12173 1.00724 0.46348 0.0
C682 C 0.11678 0.99943 0.41449 0.0
Tb683 Tb 0.07674 1.00665 0.5041 0.0
N684 N 0.04681 0.99169 0.46631 0.0
C685 C 0.02172 0.98121 0.46759 0.0
C686 C 0.01333 0.97102 0.41855 0.0
C687 C 0.00476 0.97104 0.44394 0.0
H688 H 0.13395 1.00916 0.48178 0.0
H689 H 0.985 0.96328 0.44537 0.0
H690 H 0.0361 0.97102 0.37283 0.0
H691 H 0.15224 1.00677 0.43872 0.0
H692 H 0.01403 0.98072 0.48657 0.0
H693 H 0.14919 0.10277 0.60878 0.0
H694 H 1.00013 0.96295 0.40025 0.0
H695 H 0.00528 0.07128 0.54674 0.0
H696 H 0.12415 0.08104 0.56498 0.0
H697 H 0.98181 0.08869 0.58386 0.0
H698 H 0.08164 0.98357 0.37105 0.0
H699 H 0.1288 0.1197 0.64895 0.0
H700 H 0.08947 0.12737 0.66853 0.0
H701 H 0.12491 0.99697 0.39535 0.0
H702 H 0.04394 0.12344 0.66184 0.0
N703 N 0.08894 0.08421 0.5794 0.0
C704 C 0.11454 0.08798 0.58193 0.0
C705 C 0.11748 0.10983 0.62961 0.0
C706 C 0.0915 0.10693 0.62686 0.0
C707 C 0.12904 0.10037 0.607 0.0
C708 C 0.07762 0.09389 0.60121 0.0
H709 H 1.00366 0.10896 0.63042 0.0
N710 N 0.03978 0.07987 0.57232 0.0
C711 C 1.00156 0.08948 0.58807 0.0
C712 C 0.05212 0.09157 0.59754 0.0
C713 C 0.01491 0.07952 0.56713 0.0
C714 C 0.01394 0.10087 0.6143 0.0
C715 C 0.0396 0.10236 0.61926 0.0
O716 O 0.04452 0.09419 0.52442 0.0
O717 O 0.06288 0.04247 0.4964 0.0
O718 O 0.11139 0.03812 0.50696 0.0
O719 O 0.0996 0.07874 0.52239 0.0
O720 O 0.03096 0.05441 0.50734 0.0
O721 O 0.08408 0.10794 0.53949 0.0
O722 O 0.09723 0.97644 0.49632 0.0
O723 O 0.07757 0.03154 0.54533 0.0
O724 O 0.03503 0.03596 0.55032 0.0
O725 O 0.04263 0.99588 0.52439 0.0
O726 O 0.10507 0.0113 0.53929 0.0
O727 O 0.05905 0.96583 0.50499 0.0
C728 C 0.0407 0.04344 0.48661 0.0
C729 C 0.06154 0.14232 0.53662 0.0
C730 C 0.06964 0.18759 0.52624 0.0
C731 C 0.0746 0.16156 0.52321 0.0
C732 C 0.05188 0.19478 0.54332 0.0
C733 C 0.04383 0.14946 0.55386 0.0
C734 C 0.03916 0.17577 0.55729 0.0
C735 C 0.11584 0.06513 0.51234 0.0
C736 C 0.06457 0.1142 0.52863 0.0
C737 C 0.0532 0.11497 0.64493 0.0
C738 C 0.07912 0.11723 0.64874 0.0
C739 C 0.09677 0.02675 0.55839 0.0
C740 C 0.08651 0.93924 0.51755 0.0
C741 C 0.06914 0.92621 0.53285 0.0
C742 C 0.07528 0.90697 0.54659 0.0
C743 C 0.09894 0.90093 0.54558 0.0
C744 C 0.11026 0.93313 0.51665 0.0
C745 C 0.11646 0.91419 0.53079 0.0
C746 C 0.02899 1.00892 0.54073 0.0
C747 C 0.07926 0.95709 0.50051 0.0
H748 H 0.0878 0.15583 0.50928 0.0
H749 H 0.04756 0.21477 0.54539 0.0
H750 H 0.03323 0.13467 0.56402 0.0
H751 H 0.02522 0.18118 0.57022 0.0
H752 H 0.05055 0.93014 0.5333 0.0
H753 H 0.1037 0.88577 0.55598 0.0
H754 H 0.12385 0.94259 0.5046 0.0
H755 H 0.13466 0.90939 0.52985 0.0
Tb756 Tb 0.34478 0.81061 0.76569 0.0
C757 C 0.27691 0.73264 0.82174 0.0
C758 C 0.28001 0.68722 0.79859 0.0
C759 C 0.26695 0.69412 0.84417 0.0
C760 C 0.28238 0.7155 0.79919 0.0
C761 C 0.26846 0.722 0.84421 0.0
C762 C 0.27273 0.67676 0.82139 0.0
C763 C 0.2601 0.76608 0.86325 0.0
N764 N 0.27755 0.75914 0.82052 0.0
C765 C 0.26826 0.77556 0.84034 0.0
C766 C 0.2605 0.7393 0.86537 0.0
Tb767 Tb 0.28896 0.77205 0.78113 0.0
N768 N 0.28869 0.72621 0.77727 0.0
C769 C 0.29188 0.70921 0.75359 0.0
C770 C 0.28423 0.67012 0.77479 0.0
C771 C 0.29002 0.68115 0.75214 0.0
H772 H 0.26768 0.79623 0.83876 0.0
H773 H 0.29287 0.66801 0.73343 0.0
H774 H 0.27084 0.65513 0.82132 0.0
H775 H 0.25334 0.77939 0.87916 0.0
H776 H 0.29597 0.71701 0.73558 0.0
H777 H 0.34418 0.91214 0.82462 0.0
H778 H 0.28254 0.64831 0.7735 0.0
H779 H 0.36035 0.79004 0.70429 0.0
H780 H 0.33442 0.86204 0.81494 0.0
H781 H 0.37673 0.81124 0.66688 0.0
H782 H 0.26056 0.68558 0.86127 0.0
H783 H 0.36282 0.93727 0.79079 0.0
H784 H 0.37811 0.93558 0.74473 0.0
H785 H 0.25382 0.73188 0.88295 0.0
H786 H 0.38578 0.90817 0.70132 0.0
N787 N 0.34812 0.85743 0.77572 0.0
C788 C 0.34301 0.87208 0.79985 0.0
C789 C 0.35874 0.91495 0.78634 0.0
C790 C 0.36349 0.90005 0.76152 0.0
C791 C 0.34827 0.90086 0.80548 0.0
C792 C 0.35787 0.87099 0.75674 0.0
H793 H 0.38469 0.86179 0.67181 0.0
N794 N 0.35649 0.82777 0.72868 0.0
C795 C 0.37234 0.82395 0.68502 0.0
C796 C 0.36177 0.85561 0.73222 0.0
C797 C 0.36278 0.81198 0.70606 0.0
C798 C 0.37685 0.85249 0.68789 0.0
C799 C 0.37202 0.86876 0.71193 0.0
O800 O 0.37878 0.79966 0.75891 0.0
O801 O 0.32897 0.77176 0.77836 0.0
O802 O 0.3128 0.78411 0.81994 0.0
O803 O 0.34271 0.81892 0.80921 0.0
O804 O 0.35004 0.76916 0.74697 0.0
O805 O 0.37721 0.8328 0.79257 0.0
O806 O 0.25215 0.77717 0.78287 0.0
O807 O 0.30503 0.81133 0.76966 0.0
O808 O 0.31853 0.80285 0.72894 0.0
O809 O 0.29409 0.76351 0.73795 0.0
O810 O 0.27911 0.81228 0.79558 0.0
O811 O 0.2605 0.74575 0.75167 0.0
C812 C 0.3396 0.75471 0.76332 0.0
C813 C 0.41632 0.83353 0.77451 0.0
C814 C 0.46127 0.84787 0.78895 0.0
C815 C 0.43661 0.83771 0.79442 0.0
C816 C 0.46529 0.8544 0.76344 0.0
C817 C 0.42079 0.84037 0.74931 0.0
C818 C 0.4451 0.8509 0.74389 0.0
C819 C 0.33191 0.80583 0.82698 0.0
C820 C 0.39146 0.81867 0.77932 0.0
C821 C 0.3778 0.89768 0.71661 0.0
C822 C 0.37354 0.91329 0.74136 0.0
C823 C 0.2923 0.82796 0.78196 0.0
C824 C 0.21921 0.73829 0.76398 0.0
C825 C 0.19874 0.73771 0.74587 0.0
C826 C 0.17465 0.72312 0.74867 0.0
C827 C 0.17119 0.70822 0.76931 0.0
C828 C 0.21577 0.72314 0.7844 0.0
C829 C 0.19182 0.70795 0.78688 0.0
C830 C 0.30002 0.78049 0.72154 0.0
C831 C 0.24314 0.75685 0.76202 0.0
H832 H 0.4332 0.83218 0.8138 0.0
H833 H 0.48408 0.86135 0.75817 0.0
H834 H 0.40581 0.83684 0.73343 0.0
H835 H 0.44836 0.85557 0.72418 0.0
H836 H 0.20133 0.75 0.73051 0.0
H837 H 0.15257 0.69721 0.77201 0.0
H838 H 0.23122 0.72345 0.79873 0.0
H839 H 0.18917 0.69658 0.80289 0.0
Tb840 Tb 0.57366 0.02433 0.05599 0.0
C841 C 0.50933 0.06013 0.96541 0.0
C842 C 0.49007 0.01899 0.9311 0.0
C843 C 0.47193 0.05876 0.93602 0.0
C844 C 0.50882 0.03347 0.95283 0.0
C845 C 0.49124 0.07339 0.95681 0.0
C846 C 0.47136 0.03158 0.92315 0.0
C847 C 0.51415 0.11531 0.98791 0.0
N848 N 0.52845 0.07365 0.98508 0.0
C849 C 0.53165 0.10125 0.99563 0.0
C850 C 0.49364 0.10121 0.96868 0.0
Tb851 Tb 0.55724 0.04999 0.99581 0.0
N852 N 0.52737 0.02217 0.96105 0.0
C853 C 0.52856 0.99643 0.94709 0.0
C854 C 0.49082 0.99244 0.91774 0.0
C855 C 0.51028 0.98124 0.92564 0.0
H856 H 0.5474 0.11245 0.0105 0.0
H857 H 0.51124 0.9608 0.91522 0.0
H858 H 0.45666 0.02066 0.90676 0.0
H859 H 0.51652 0.13701 0.9968 0.0
H860 H 0.54304 0.98662 0.95221 0.0
H861 H 0.62008 0.12186 0.12372 0.0
H862 H 0.4767 0.98061 0.90109 0.0
H863 H 0.58963 0.96403 0.04433 0.0
H864 H 0.5842 0.08765 0.0958 0.0
H865 H 0.62788 0.9471 0.05156 0.0
H866 H 0.45773 0.06849 0.92929 0.0
H867 H 0.66141 0.11059 0.12897 0.0
H868 H 0.68733 0.07548 0.11959 0.0
H869 H 0.48017 0.11216 0.96261 0.0
H870 H 0.68952 0.0279 0.09982 0.0
N871 N 0.60494 0.05712 0.08459 0.0
C872 C 0.60199 0.0822 0.09796 0.0
C873 C 0.64566 0.09537 0.11671 0.0
C874 C 0.64818 0.06911 0.10434 0.0
C875 C 0.62235 0.10178 0.11384 0.0
C876 C 0.62713 0.05014 0.08846 0.0
H877 H 0.66734 0.97974 0.07473 0.0
N878 N 0.60761 1.00595 0.0624 0.0
C879 C 0.62838 0.96873 0.05863 0.0
C880 C 0.62851 0.02363 0.07699 0.0
C881 C 0.60676 0.97833 0.05472 0.0
C882 C 0.65062 0.98723 0.07166 0.0
C883 C 0.65076 0.01497 0.08153 0.0
O884 O 0.55929 0.98997 0.07238 0.0
O885 O 0.54745 0.02186 0.02206 0.0
O886 O 0.52989 0.05891 0.024 0.0
O887 O 0.55067 0.0549 0.06501 0.0
O888 O 0.54513 0.98711 0.03442 0.0
O889 O 0.56227 0.03237 0.0953 0.0
O890 O 0.58157 0.08304 0.98507 0.0
O891 O 0.58336 0.05283 0.03041 0.0
O892 O 0.5965 0.0115 0.02504 0.0
O893 O 0.5718 0.01288 0.98636 0.0
O894 O 0.57911 0.08881 0.02245 0.0
O895 O 0.57596 0.04185 0.96071 0.0
C896 C 0.53327 0.99818 0.01849 0.0
C897 C 0.54568 0.9952 0.11767 0.0
C898 C 0.5219 1.00021 0.15657 0.0
C899 C 0.53417 0.0113 0.13641 0.0
C900 C 0.5219 0.97318 0.15866 0.0
C901 C 0.54579 0.96822 0.11995 0.0
C902 C 0.53411 0.95738 0.14057 0.0
C903 C 0.53279 0.06233 0.05107 0.0
C904 C 0.55602 1.006 0.09486 0.0
C905 C 0.67212 0.03404 0.09641 0.0
C906 C 0.67086 0.06111 0.10772 0.0
C907 C 0.59235 0.07837 0.03756 0.0
C908 C 0.59022 0.07933 0.9395 0.0
C909 C 0.60691 0.07097 0.92156 0.0
C910 C 0.61343 0.08474 0.9007 0.0
C911 C 0.60292 0.10676 0.8975 0.0
C912 C 0.57935 0.10106 0.93584 0.0
C913 C 0.58574 0.11468 0.91488 0.0
C914 C 0.59017 1.00522 0.99857 0.0
C915 C 0.58742 0.06768 0.9638 0.0
H916 H 0.5338 0.03207 0.13469 0.0
H917 H 0.5125 0.96439 0.17425 0.0
H918 H 0.55469 0.95548 0.1057 0.0
H919 H 0.53418 0.93656 0.14225 0.0
H920 H 0.61543 0.05428 0.92433 0.0
H921 H 0.6077 0.11748 0.88131 0.0
H922 H 0.56651 0.10797 0.94956 0.0
H923 H 0.57757 0.1316 0.91227 0.0
Tb924 Tb 0.33602 0.32591 0.2929 0.0
C925 C 0.23881 0.24913 0.22964 0.0
C926 C 0.21256 0.24143 0.26549 0.0
C927 C 0.19342 0.23287 0.21879 0.0
C928 C 0.23652 0.24939 0.25679 0.0
C929 C 0.21733 0.23989 0.21014 0.0
C930 C 0.19103 0.23381 0.24646 0.0
C931 C 0.24484 0.24019 0.1747 0.0
N932 N 0.26225 0.25494 0.22195 0.0
C933 C 0.26544 0.24873 0.19478 0.0
C934 C 0.22062 0.23614 0.18242 0.0
Tb935 Tb 0.29506 0.26197 0.25517 0.0
N936 N 0.25784 0.25525 0.27426 0.0
C937 C 0.25629 0.25262 0.30068 0.0
C938 C 0.21101 0.24005 0.2928 0.0
C939 C 0.23301 0.24552 0.31042 0.0
H940 H 0.28406 0.25003 0.1886 0.0
H941 H 0.23207 0.2441 0.33152 0.0
H942 H 0.17253 0.22757 0.25277 0.0
H943 H 0.24769 0.23594 0.15333 0.0
H944 H 0.27281 0.25642 0.31474 0.0
H945 H 0.38594 0.36636 0.212 0.0
H946 H 0.193 0.23413 0.3003 0.0
H947 H 0.36053 0.32014 0.3534 0.0
H948 H 0.34996 0.34918 0.23196 0.0
H949 H 0.40113 0.32393 0.37716 0.0
H950 H 0.17675 0.22573 0.20413 0.0
H951 H 0.42817 0.37002 0.23377 0.0
H952 H 0.455 0.36473 0.27244 0.0
H953 H 0.20464 0.22877 0.16684 0.0
H954 H 0.45923 0.35228 0.31666 0.0
N955 N 0.36888 0.3395 0.26671 0.0
C956 C 0.36705 0.34896 0.24291 0.0
C957 C 0.41186 0.36135 0.24303 0.0
C958 C 0.41433 0.35261 0.2673 0.0
C959 C 0.38813 0.35942 0.2308 0.0
C960 C 0.39242 0.34132 0.27869 0.0
H961 H 0.43951 0.33667 0.3553 0.0
N962 N 0.3738 0.32438 0.31488 0.0
C963 C 0.39972 0.32578 0.35609 0.0
C964 C 0.39489 0.33348 0.30333 0.0
C965 C 0.37628 0.32243 0.34175 0.0
C966 C 0.42129 0.33313 0.34377 0.0
C967 C 0.41916 0.33786 0.31748 0.0
O968 O 0.33071 0.34555 0.33244 0.0
O969 O 0.29924 0.29834 0.28694 0.0
O970 O 0.29043 0.29295 0.23178 0.0
O971 O 0.31984 0.33353 0.2548 0.0
O972 O 0.30113 0.33926 0.28958 0.0
O973 O 0.35341 0.36774 0.30709 0.0
O974 O 0.30318 0.23101 0.22502 0.0
O975 O 0.3333 0.28516 0.26997 0.0
O976 O 0.32911 0.29643 0.31987 0.0
O977 O 0.31049 0.25282 0.29281 0.0
O978 O 0.32511 0.26733 0.22922 0.0
O979 O 0.28273 0.2206 0.2584 0.0
C980 C 0.28594 0.31558 0.28763 0.0
C981 C 0.33179 0.39256 0.33728 0.0
C982 C 0.30968 0.42437 0.32318 0.0
C983 C 0.31955 0.40133 0.31675 0.0
C984 C 0.3119 0.43895 0.35033 0.0
C985 C 0.33382 0.40686 0.36452 0.0
C986 C 0.32384 0.43004 0.37101 0.0
C987 C 0.30337 0.31865 0.2336 0.0
C988 C 0.34352 0.36945 0.33 0.0
C989 C 0.44064 0.34863 0.30592 0.0
C990 C 0.43823 0.35585 0.28084 0.0
C991 C 0.34274 0.28114 0.24807 0.0
C992 C 0.29329 0.18385 0.2271 0.0
C993 C 0.30794 0.17394 0.24437 0.0
C994 C 0.31267 0.14798 0.23564 0.0
C995 C 0.30241 0.13161 0.20982 0.0
C996 C 0.28286 0.16759 0.20124 0.0
C997 C 0.2873 0.14143 0.19269 0.0
C998 C 0.32106 0.26934 0.31653 0.0
C999 C 0.2897 0.21163 0.23469 0.0
H1000 H 0.31826 0.39077 0.29555 0.0
H1001 H 0.3043 0.45697 0.35546 0.0
H1002 H 0.34336 0.40033 0.38062 0.0
H1003 H 0.32553 0.44119 0.392 0.0
H1004 H 0.31646 0.1868 0.26411 0.0
H1005 H 0.30645 0.11165 0.20284 0.0
H1006 H 0.27161 0.17533 0.18755 0.0
H1007 H 0.27945 0.12904 0.17263 0.0
Tb1008 Tb 0.56352 0.57635 0.04397 0.0
C1009 C 0.59001 0.48986 0.95538 0.0
C1010 C 0.55258 0.47501 0.92299 0.0
C1011 C 0.59258 0.46934 0.90793 0.0
C1012 C 0.56461 0.48702 0.94971 0.0
C1013 C 0.60427 0.4806 0.93469 0.0
C1014 C 0.56676 0.46659 0.90208 0.0
C1015 C 0.64013 0.49228 0.96881 0.0
N1016 N 0.60054 0.50053 0.9815 0.0
C1017 C 0.62515 0.50095 0.98863 0.0
C1018 C 0.6297 0.48227 0.94166 0.0
Tb1019 Tb 0.57451 0.51345 0.01299 0.0
N1020 N 0.55154 0.49513 0.97057 0.0
C1021 C 0.52585 0.49021 0.96598 0.0
C1022 C 0.52659 0.47124 0.91818 0.0
C1023 C 0.51316 0.47867 0.93984 0.0
H1024 H 0.6334 0.50857 0.00961 0.0
H1025 H 0.49296 0.4755 0.93645 0.0
H1026 H 0.55786 0.45743 0.88145 0.0
H1027 H 0.65968 0.49321 0.97453 0.0
H1028 H 0.51464 0.49571 0.98198 0.0
H1029 H 0.65154 0.61192 0.11111 0.0
H1030 H 0.51667 0.46216 0.89797 0.0
H1031 H 0.50821 0.58877 0.05517 0.0
H1032 H 0.62574 0.59459 0.06738 0.0
H1033 H 0.48542 0.60166 0.09462 0.0
H1034 H 0.60322 0.46222 0.89173 0.0
H1035 H 0.63189 0.62123 0.15368 0.0
H1036 H 0.59291 0.62397 0.17623 0.0
H1037 H 0.64128 0.47536 0.92637 0.0
H1038 H 0.54743 0.62076 0.17186 0.0
N1039 N 0.59055 0.59309 0.08399 0.0
C1040 C 0.61628 0.59854 0.08529 0.0
C1041 C 0.62016 0.61341 0.13432 0.0
C1042 C 0.59407 0.60929 0.13293 0.0
C1043 C 0.63131 0.60834 0.11034 0.0
C1044 C 0.57964 0.59904 0.10717 0.0
H1045 H 0.50717 0.61262 0.1415 0.0
N1046 N 0.54141 0.58909 0.07946 0.0
C1047 C 0.50462 0.59996 0.09786 0.0
C1048 C 0.55414 0.59698 0.10481 0.0
C1049 C 0.51742 0.59218 0.07559 0.0
C1050 C 0.51696 0.60614 0.12426 0.0
C1051 C 0.54225 0.60546 0.12797 0.0
O1052 O 0.54482 0.60248 0.0285 0.0
O1053 O 0.56212 0.54905 1.00388 0.0
O1054 O 0.60315 0.54328 0.99865 0.0
O1055 O 0.5995 0.58368 0.02731 0.0
O1056 O 0.53192 0.56502 0.01083 0.0
O1057 O 0.58379 0.61727 0.04582 0.0
O1058 O 0.59092 0.48517 0.0281 0.0
O1059 O 0.57568 0.54038 0.05333 0.0
O1060 O 0.53376 0.54672 0.05595 0.0
O1061 O 0.53596 0.50711 0.02498 0.0
O1062 O 0.60632 0.52552 0.04579 0.0
O1063 O 0.55117 0.47521 0.0144 0.0
C1064 C 0.54135 0.55098 0.99164 0.0
C1065 C 0.56046 0.65061 0.04023 0.0
C1066 C 0.5661 0.69386 0.02594 0.0
C1067 C 0.57323 0.66933 0.02617 0.0
C1068 C 0.54666 0.70036 0.04073 0.0
C1069 C 0.5412 0.65719 0.0554 0.0
C1070 C 0.53451 0.68218 0.05582 0.0
C1071 C 0.61113 0.57 0.00928 0.0
C1072 C 0.56455 0.62287 0.03365 0.0
C1073 C 0.55626 0.61435 0.15381 0.0
C1074 C 0.58214 0.61621 0.15629 0.0
C1075 C 0.59675 0.53877 0.06529 0.0
C1076 C 0.57005 0.43818 0.01543 0.0
C1077 C 0.55773 0.41984 0.03012 0.0
C1078 C 0.55873 0.39218 0.02405 0.0
C1079 C 0.57224 0.3829 1.00272 0.0
C1080 C 0.58341 0.42895 0.99408 0.0
C1081 C 0.58441 0.40125 0.98774 0.0
C1082 C 0.52428 0.52084 0.04309 0.0
C1083 C 0.56967 0.46696 0.02474 0.0
H1084 H 0.58761 0.66395 0.01374 0.0
H1085 H 0.54079 0.71922 0.04034 0.0
H1086 H 0.53079 0.6428 0.06604 0.0
H1087 H 0.51937 0.68705 0.06711 0.0
H1088 H 0.54809 0.42747 0.04712 0.0
H1089 H 0.57339 0.36157 0.99768 0.0
H1090 H 0.59324 0.44306 0.9827 0.0
H1091 H 0.59485 0.39404 0.97141 0.0
Tb1092 Tb 0.84679 0.31336 0.26224 0.0
C1093 C 0.78106 0.24049 0.32581 0.0
C1094 C 0.78256 0.19333 0.30753 0.0
C1095 C 0.77325 0.20668 0.35413 0.0
C1096 C 0.78501 0.22076 0.30465 0.0
C1097 C 0.77448 0.23357 0.35061 0.0
C1098 C 0.77732 0.18658 0.3326 0.0
C1099 C 0.76815 0.27935 0.36541 0.0
N1100 N 0.78184 0.26602 0.32128 0.0
C1101 C 0.77472 0.2852 0.34045 0.0
C1102 C 0.76833 0.25355 0.37067 0.0
Tb1103 Tb 0.79126 0.27331 0.27895 0.0
N1104 N 0.789 0.22793 0.28049 0.0
C1105 C 0.78911 0.20788 0.25787 0.0
C1106 C 0.78418 0.17324 0.28477 0.0
C1107 C 0.78702 0.18049 0.25972 0.0
H1108 H 0.77455 0.30532 0.33694 0.0
H1109 H 0.78744 0.16496 0.24171 0.0
H1110 H 0.7755 0.16568 0.33523 0.0
H1111 H 0.76299 0.2948 0.38062 0.0
H1112 H 0.79051 0.21252 0.23801 0.0
H1113 H 0.84326 0.40882 0.33169 0.0
H1114 H 0.7823 0.15194 0.28608 0.0
H1115 H 0.85421 0.29962 0.19531 0.0
H1116 H 0.83548 0.35886 0.31722 0.0
H1117 H 0.86583 0.32626 0.16056 0.0
H1118 H 0.76839 0.20101 0.37308 0.0
H1119 H 0.85848 0.4385 0.30008 0.0
H1120 H 0.87045 0.44246 0.25372 0.0
H1121 H 0.76309 0.24903 0.38996 0.0
H1122 H 0.87545 0.42006 0.20711 0.0
N1123 N 0.84747 0.35915 0.2776 0.0
C1124 C 0.84288 0.37105 0.30314 0.0
C1125 C 0.85536 0.41632 0.29352 0.0
C1126 C 0.8591 0.40417 0.26712 0.0
C1127 C 0.84685 0.39965 0.31144 0.0
C1128 C 0.85472 0.37516 0.25951 0.0
H1129 H 0.87308 0.37699 0.17213 0.0
N1130 N 0.85196 0.33445 0.22592 0.0
C1131 C 0.86301 0.33669 0.18067 0.0
C1132 C 0.85687 0.36244 0.2329 0.0
C1133 C 0.85591 0.3216 0.20035 0.0
C1134 C 0.86721 0.3653 0.18733 0.0
C1135 C 0.86442 0.37856 0.21371 0.0
O1136 O 0.87733 0.30534 0.24295 0.0
O1137 O 0.82958 0.27287 0.27037 0.0
O1138 O 0.81794 0.28326 0.31548 0.0
O1139 O 0.849 0.31839 0.30611 0.0
O1140 O 0.86314 0.27638 0.25764 0.0
O1141 O 0.88262 0.33685 0.28172 0.0
O1142 O 0.75471 0.27929 0.27924 0.0
O1143 O 0.80647 0.31231 0.26535 0.0
O1144 O 0.81963 0.29937 0.22638 0.0
O1145 O 0.79995 0.2594 0.2377 0.0
O1146 O 0.78229 0.31404 0.2932 0.0
O1147 O 0.76303 0.24739 0.24887 0.0
C1148 C 0.8468 0.25894 0.26628 0.0
C1149 C 0.9198 0.32999 0.25895 0.0
C1150 C 0.96302 0.3476 0.27901 0.0
C1151 C 0.93737 0.34227 0.28192 0.0
C1152 C 0.97109 0.34042 0.25319 0.0
C1153 C 0.92805 0.32277 0.2332 0.0
C1154 C 0.95362 0.32797 0.23039 0.0
C1155 C 0.83815 0.30378 0.32288 0.0
C1156 C 0.89291 0.32426 0.26156 0.0
C1157 C 0.86946 0.40741 0.22152 0.0
C1158 C 0.86674 0.42017 0.2481 0.0
C1159 C 0.79424 0.3291 0.27834 0.0
C1160 C 0.72227 0.24006 0.26206 0.0
C1161 C 0.70123 0.23837 0.24434 0.0
C1162 C 0.67765 0.22363 0.24836 0.0
C1163 C 0.67518 0.20987 0.26989 0.0
C1164 C 0.71993 0.2261 0.28346 0.0
C1165 C 0.69642 0.21083 0.2872 0.0
C1166 C 0.80642 0.2739 0.21938 0.0
C1167 C 0.74567 0.2586 0.25886 0.0
H1168 H 0.93119 0.34744 0.30195 0.0
H1169 H 0.99094 0.34392 0.25082 0.0
H1170 H 0.91474 0.31314 0.2152 0.0
H1171 H 0.9599 0.3222 0.21058 0.0
H1172 H 0.70297 0.24981 0.22825 0.0
H1173 H 0.65689 0.19876 0.27345 0.0
H1174 H 0.73594 0.22747 0.29757 0.0
H1175 H 0.69459 0.20034 0.30392 0.0
Tb1176 Tb 0.07733 0.52923 0.5568 0.0
C1177 C 1.00029 0.54885 0.47314 0.0
C1178 C 0.98037 0.50239 0.44868 0.0
C1179 C 0.95822 0.53863 0.44902 0.0
C1180 C 1.00137 0.5218 0.46443 0.0
C1181 C 0.97871 0.55763 0.46544 0.0
C1182 C 0.95902 0.51102 0.44072 0.0
C1183 C 0.99931 0.60356 0.49006 0.0
N1184 N 0.02013 0.56647 0.48967 0.0
C1185 C 0.02023 0.59393 0.49693 0.0
C1186 C 0.97833 0.58528 0.47439 0.0
Tb1187 Tb 0.05553 0.55011 0.49629 0.0
N1188 N 0.02227 0.51418 0.47289 0.0
C1189 C 0.02183 0.48657 0.46812 0.0
C1190 C 0.98101 0.47468 0.44213 0.0
C1191 C 1.00165 0.4667 0.45234 0.0
H1192 H 0.03675 0.60893 0.50745 0.0
H1193 H 1.00183 0.44509 0.4486 0.0
H1194 H 0.94286 0.49642 0.4285 0.0
H1195 H 0.99964 0.62523 0.49638 0.0
H1196 H 0.03616 0.47894 0.47722 0.0
H1197 H 0.1267 0.63546 0.60484 0.0
H1198 H 0.96526 0.45918 0.4302 0.0
H1199 H 0.10037 0.47227 0.54062 0.0
H1200 H 0.09269 0.60025 0.57716 0.0
H1201 H 0.13926 0.45901 0.55044 0.0
H1202 H 0.94157 0.54502 0.44289 0.0
H1203 H 0.16533 0.62362 0.62106 0.0
H1204 H 0.19019 0.58826 0.62113 0.0
H1205 H 0.96217 0.5928 0.46889 0.0
H1206 H 0.19402 0.54072 0.60533 0.0
N1207 N 0.10963 0.56644 0.57901 0.0
C1208 C 0.10833 0.59357 0.58487 0.0
C1209 C 0.14994 0.60751 0.60927 0.0
C1210 C 0.15206 0.58031 0.6019 0.0
C1211 C 0.12815 0.61422 0.60027 0.0
C1212 C 0.13149 0.56005 0.58635 0.0
H1213 H 0.17558 0.49293 0.57836 0.0
N1214 N 0.11442 0.51504 0.56037 0.0
C1215 C 0.1382 0.48016 0.55768 0.0
C1216 C 0.13393 0.53352 0.57676 0.0
C1217 C 0.11615 0.48818 0.55172 0.0
C1218 C 0.15856 0.49928 0.57357 0.0
C1219 C 0.15659 0.52624 0.58347 0.0
O1220 O 0.06757 0.48985 0.56488 0.0
O1221 O 0.04817 0.52313 0.52361 0.0
O1222 O 0.04612 0.57487 0.5339 0.0
O1223 O 0.05943 0.56132 0.57354 0.0
O1224 O 0.03691 0.51691 0.56011 0.0
O1225 O 0.07648 0.52636 0.59788 0.0
O1226 O 0.0711 0.59055 0.49298 0.0
O1227 O 0.08475 0.55715 0.52995 0.0
O1228 O 0.08362 0.50251 0.51939 0.0
O1229 O 0.07132 0.51552 0.47904 0.0
O1230 O 0.09504 0.5556 0.49073 0.0
O1231 O 0.05648 0.5578 0.4569 0.0
C1232 C 0.02907 0.51607 0.53543 0.0
C1233 C 0.04637 0.48659 0.60337 0.0
C1234 C 0.00941 0.4889 0.6272 0.0
C1235 C 0.03104 0.50214 0.61725 0.0
C1236 C 1.00329 0.46003 0.62324 0.0
C1237 C 0.04011 0.45779 0.59993 0.0
C1238 C 0.01865 0.44462 0.60977 0.0
C1239 C 0.04791 0.57618 0.56072 0.0
C1240 C 0.06825 0.49946 0.59104 0.0
C1241 C 0.17661 0.54603 0.59987 0.0
C1242 C 0.17438 0.57304 0.60897 0.0
C1243 C 0.1031 0.55941 0.51603 0.0
C1244 C 0.08974 0.59533 0.45297 0.0
C1245 C 0.10117 0.57841 0.43487 0.0
C1246 C 0.12057 0.59011 0.42084 0.0
C1247 C 0.12909 0.619 0.42603 0.0
C1248 C 0.09838 0.62408 0.45776 0.0
C1249 C 0.11812 0.63582 0.44452 0.0
C1250 C 0.0815 0.49999 0.49259 0.0
C1251 C 0.06818 0.58373 0.46635 0.0
H1252 H 0.03571 0.52439 0.62013 0.0
H1253 H 0.98701 0.44944 0.63126 0.0
H1254 H 0.05172 0.44544 0.58933 0.0
H1255 H 0.01397 0.42241 0.60705 0.0
H1256 H 0.09459 0.55618 0.43118 0.0
H1257 H 0.14351 0.6287 0.41501 0.0
H1258 H 0.08965 0.63747 0.47155 0.0
H1259 H 0.12451 0.65802 0.44807 0.0
Tb1260 Tb 0.78805 0.79859 0.27241 0.0
C1261 C 0.8744 0.76505 0.32713 0.0
C1262 C 0.88952 0.80353 0.36585 0.0
C1263 C 0.89605 0.75843 0.36811 0.0
C1264 C 0.87691 0.79261 0.33919 0.0
C1265 C 0.8848 0.74798 0.34111 0.0
C1266 C 0.89835 0.78614 0.38047 0.0
C1267 C 0.87599 0.71289 0.29936 0.0
N1268 N 0.86413 0.75574 0.30072 0.0
C1269 C 0.86619 0.73066 0.28628 0.0
C1270 C 0.88487 0.72138 0.32705 0.0
Tb1271 Tb 0.84908 0.78646 0.28095 0.0
N1272 N 0.86868 0.80908 0.32419 0.0
C1273 C 0.87473 0.83715 0.33423 0.0
C1274 C 0.89385 0.83181 0.37669 0.0
C1275 C 0.88675 0.8487 0.36065 0.0
H1276 H 0.85962 0.72404 0.26477 0.0
H1277 H 0.89058 0.87075 0.3686 0.0
H1278 H 0.90786 0.79417 0.401 0.0
H1279 H 0.87681 0.69275 0.28803 0.0
H1280 H 0.86968 0.85128 0.32292 0.0
H1281 H 0.7424 0.71418 0.18775 0.0
H1282 H 0.90337 0.84092 0.39707 0.0
H1283 H 0.78483 0.86399 0.28656 0.0
H1284 H 0.76685 0.73503 0.23202 0.0
H1285 H 0.76804 0.89583 0.26373 0.0
H1286 H 0.90391 0.74555 0.37924 0.0
H1287 H 0.72657 0.74322 0.16025 0.0
H1288 H 0.72176 0.79009 0.15628 0.0
H1289 H 0.89274 0.7077 0.33707 0.0
H1290 H 0.72894 0.8396 0.1768 0.0
N1291 N 0.76628 0.77652 0.23026 0.0
C1292 C 0.76039 0.74845 0.22072 0.0
C1293 C 0.73757 0.75273 0.17984 0.0
C1294 C 0.74249 0.78118 0.19013 0.0
C1295 C 0.74641 0.73629 0.19532 0.0
C1296 C 0.75699 0.79255 0.21573 0.0
H1297 H 0.74614 0.87919 0.21684 0.0
N1298 N 0.77421 0.83003 0.25222 0.0
C1299 C 0.76619 0.8747 0.25305 0.0
C1300 C 0.76124 0.82032 0.22704 0.0
C1301 C 0.77578 0.85661 0.26587 0.0
C1302 C 0.75387 0.86525 0.22659 0.0
C1303 C 0.75084 0.83763 0.21343 0.0
O1304 O 0.76873 0.81404 0.30458 0.0
O1305 O 0.81805 0.79648 0.30208 0.0
O1306 O 0.82358 0.74754 0.28655 0.0
O1307 O 0.78374 0.75479 0.27693 0.0
O1308 O 0.80388 0.83103 0.30762 0.0
O1309 O 0.75165 0.776 0.27674 0.0
O1310 O 0.86731 0.79829 0.24789 0.0
O1311 O 0.81855 0.78668 0.25181 0.0
O1312 O 0.81432 0.8339 0.26024 0.0
O1313 O 0.85285 0.83047 0.2798 0.0
O1314 O 0.83397 0.7531 0.24572 0.0
O1315 O 0.88757 0.78692 0.27937 0.0
C1316 C 0.81859 0.8189 0.31877 0.0
C1317 C 0.7246 0.8014 0.30002 0.0
C1318 C 0.68616 0.80174 0.32245 0.0
C1319 C 0.70847 0.7925 0.31897 0.0
C1320 C 0.68092 0.82073 0.3074 0.0
C1321 C 0.71817 0.81941 0.28462 0.0
C1322 C 0.69669 0.82927 0.28857 0.0
C1323 C 0.79854 0.73868 0.28283 0.0
C1324 C 0.74901 0.79374 0.29821 0.0
C1325 C 0.737 0.82663 0.18763 0.0
C1326 C 0.73287 0.79844 0.17597 0.0
C1327 C 0.81811 0.76437 0.23501 0.0
C1328 C 0.90099 0.77802 0.23546 0.0
C1329 C 0.92591 0.78926 0.23113 0.0
C1330 C 0.93774 0.77471 0.21106 0.0
C1331 C 0.92455 0.74877 0.19563 0.0
C1332 C 0.88836 0.75185 0.22002 0.0
C1333 C 0.90008 0.73738 0.20023 0.0
C1334 C 0.83888 0.84445 0.26844 0.0
C1335 C 0.88856 0.79384 0.25605 0.0
H1336 H 0.71321 0.77836 0.33076 0.0
H1337 H 0.66453 0.82907 0.31017 0.0
H1338 H 0.72986 0.82624 0.26981 0.0
H1339 H 0.69225 0.8437 0.27701 0.0
H1340 H 0.936 0.80929 0.24317 0.0
H1341 H 0.93341 0.73709 0.18036 0.0
H1342 H 0.8695 0.74246 0.22312 0.0
H1343 H 0.89016 0.7172 0.18847 0.0
Tb1344 Tb 0.82841 0.27932 0.74532 0.0
C1345 C 0.79518 0.3702 0.82118 0.0
C1346 C 0.83331 0.39717 0.8495 0.0
C1347 C 0.7977 0.41746 0.84527 0.0
C1348 C 0.81926 0.37206 0.83255 0.0
C1349 C 0.78405 0.39287 0.82777 0.0
C1350 C 0.82232 0.41966 0.85598 0.0
C1351 C 0.74585 0.3649 0.80115 0.0
N1352 N 0.7824 0.34606 0.80438 0.0
C1353 C 0.75744 0.34298 0.7955 0.0
C1354 C 0.75924 0.39002 0.81725 0.0
Tb1355 Tb 0.80114 0.30931 0.80275 0.0
N1356 N 0.82921 0.34969 0.82634 0.0
C1357 C 0.85417 0.3525 0.83452 0.0
C1358 C 0.85819 0.39923 0.85911 0.0
C1359 C 0.86879 0.37697 0.85111 0.0
H1360 H 0.74602 0.32336 0.78408 0.0
H1361 H 0.88841 0.37873 0.85735 0.0
H1362 H 0.83276 0.43891 0.8692 0.0
H1363 H 0.72635 0.36213 0.79359 0.0
H1364 H 0.86382 0.33682 0.82732 0.0
H1365 H 0.73813 0.21425 0.69392 0.0
H1366 H 0.8696 0.41818 0.87196 0.0
H1367 H 0.88231 0.2617 0.76119 0.0
H1368 H 0.76495 0.25471 0.72446 0.0
H1369 H 0.89972 0.22138 0.75057 0.0
H1370 H 0.78937 0.43491 0.85065 0.0
H1371 H 0.75465 0.17354 0.67694 0.0
H1372 H 0.79011 0.15034 0.67753 0.0
H1373 H 0.75005 0.40687 0.82201 0.0
H1374 H 0.83344 0.15172 0.69432 0.0
N1375 N 0.79855 0.24003 0.7223 0.0
C1376 C 0.77358 0.23858 0.71569 0.0
C1377 C 0.76705 0.19196 0.68962 0.0
C1378 C 0.79191 0.19253 0.69794 0.0
C1379 C 0.75774 0.21494 0.69896 0.0
C1380 C 0.80728 0.21701 0.7147 0.0
H1381 H 0.87397 0.17766 0.72209 0.0
N1382 N 0.84516 0.24101 0.74174 0.0
C1383 C 0.8803 0.21977 0.74353 0.0
C1384 C 0.83131 0.21748 0.72487 0.0
C1385 C 0.86993 0.24259 0.74995 0.0
C1386 C 0.86578 0.19523 0.72737 0.0
C1387 C 0.8411 0.1939 0.71754 0.0
O1388 O 0.8659 0.29322 0.73903 0.0
O1389 O 0.83159 0.31483 0.77846 0.0
O1390 O 0.78296 0.31529 0.76414 0.0
O1391 O 0.79775 0.29278 0.72548 0.0
O1392 O 0.83511 0.32178 0.74032 0.0
O1393 O 0.8371 0.27523 0.70474 0.0
O1394 O 0.76365 0.29267 0.80755 0.0
O1395 O 0.79867 0.27335 0.77045 0.0
O1396 O 0.84922 0.27584 0.78437 0.0
O1397 O 0.83245 0.29711 0.82248 0.0
O1398 O 0.79573 0.26749 0.80953 0.0
O1399 O 0.79066 0.31564 0.84244 0.0
C1400 C 0.83578 0.33369 0.76541 0.0
C1401 C 0.87398 0.30732 0.6983 0.0
C1402 C 0.87491 0.34241 0.67174 0.0
C1403 C 0.86126 0.32242 0.68423 0.0
C1404 C 0.90119 0.34694 0.67316 0.0
C1405 C 0.90021 0.31198 0.69932 0.0
C1406 C 0.91372 0.33168 0.68678 0.0
C1407 C 0.78241 0.3073 0.73721 0.0
C1408 C 0.86089 0.28684 0.71256 0.0
C1409 C 0.82616 0.16988 0.70024 0.0
C1410 C 0.80158 0.16916 0.69054 0.0
C1411 C 0.79583 0.25537 0.78466 0.0
C1412 C 0.7556 0.28248 0.84996 0.0
C1413 C 0.7698 0.2694 0.86469 0.0
C1414 C 0.75782 0.25053 0.87916 0.0
C1415 C 0.73161 0.24495 0.87919 0.0
C1416 C 0.72944 0.27697 0.85018 0.0
C1417 C 0.71751 0.25829 0.86483 0.0
C1418 C 0.84908 0.28392 0.81145 0.0
C1419 C 0.76747 0.30174 0.834 0.0
H1420 H 0.841 0.31896 0.68328 0.0
H1421 H 0.91197 0.36199 0.66331 0.0
H1422 H 0.91028 0.3004 0.70995 0.0
H1423 H 0.93394 0.33511 0.6876 0.0
H1424 H 0.79003 0.27355 0.86464 0.0
H1425 H 0.72217 0.23055 0.89057 0.0
H1426 H 0.71827 0.28708 0.83896 0.0
H1427 H 0.69734 0.25412 0.86501 0.0
Tb1428 Tb 0.83249 0.82651 0.79379 0.0
C1429 C 0.74009 0.74074 0.72523 0.0
C1430 C 0.7115 0.73456 0.75928 0.0
C1431 C 0.69544 0.72113 0.7112 0.0
C1432 C 0.73598 0.74321 0.75216 0.0
C1433 C 0.71996 0.72914 0.70432 0.0
C1434 C 0.69121 0.72389 0.73866 0.0
C1435 C 0.75014 0.73092 0.67155 0.0
N1436 N 0.76411 0.74773 0.71951 0.0
C1437 C 0.76943 0.74181 0.69306 0.0
C1438 C 0.72523 0.72474 0.67718 0.0
Tb1439 Tb 0.79506 0.76051 0.75565 0.0
N1440 N 0.75622 0.75255 0.77131 0.0
C1441 C 0.7531 0.75295 0.79814 0.0
C1442 C 0.70826 0.73589 0.78679 0.0
C1443 C 0.72921 0.745 0.80629 0.0
H1444 H 0.78872 0.74527 0.68861 0.0
H1445 H 0.72701 0.74589 0.82765 0.0
H1446 H 0.6723 0.71705 0.74372 0.0
H1447 H 0.75454 0.72669 0.65069 0.0
H1448 H 0.76877 0.75989 0.81371 0.0
H1449 H 0.88338 0.88567 0.7265 0.0
H1450 H 0.6898 0.72947 0.79312 0.0
H1451 H 0.85841 0.81931 0.85335 0.0
H1452 H 0.84806 0.87131 0.75171 0.0
H1453 H 0.89864 0.81562 0.87307 0.0
H1454 H 0.67974 0.71211 0.69545 0.0
H1455 H 0.92367 0.87364 0.73613 0.0
H1456 H 0.95011 0.8552 0.76653 0.0
H1457 H 0.71033 0.71572 0.66054 0.0
H1458 H 0.95444 0.83606 0.80714 0.0
N1459 N 0.86571 0.8456 0.77151 0.0
C1460 C 0.86462 0.86361 0.75465 0.0
C1461 C 0.90769 0.866 0.74637 0.0
C1462 C 0.91006 0.8515 0.76677 0.0
C1463 C 0.885 0.87273 0.74082 0.0
C1464 C 0.88852 0.84153 0.77918 0.0
H1465 H 0.93554 0.82198 0.84745 0.0
N1466 N 0.87006 0.82241 0.81397 0.0
C1467 C 0.89658 0.8184 0.85234 0.0
C1468 C 0.8908 0.82971 0.8013 0.0
C1469 C 0.87327 0.81944 0.84041 0.0
C1470 C 0.91736 0.82219 0.83791 0.0
C1471 C 0.91486 0.82889 0.81246 0.0
O1472 O 0.82291 0.84434 0.83207 0.0
O1473 O 0.79613 0.79838 0.7841 0.0
O1474 O 0.79195 0.78874 0.72867 0.0
O1475 O 0.82177 0.82919 0.75118 0.0
O1476 O 0.79822 0.83888 0.78344 0.0
O1477 O 0.84841 0.86831 0.81061 0.0
O1478 O 0.80832 0.72947 0.73112 0.0
O1479 O 0.83206 0.78587 0.77254 0.0
O1480 O 0.82408 0.79887 0.82238 0.0
O1481 O 0.80795 0.75477 0.79557 0.0
O1482 O 0.82606 0.76693 0.73144 0.0
O1483 O 0.78772 0.72134 0.76504 0.0
C1484 C 0.78299 0.81501 0.7806 0.0
C1485 C 0.82371 0.89143 0.83817 0.0
C1486 C 0.8031 0.92393 0.82292 0.0
C1487 C 0.81294 0.90076 0.81706 0.0
C1488 C 0.80379 0.9379 0.85007 0.0
C1489 C 0.82413 0.90515 0.86535 0.0
C1490 C 0.81413 0.92834 0.87126 0.0
C1491 C 0.80608 0.81372 0.72962 0.0
C1492 C 0.83608 0.86873 0.83179 0.0
C1493 C 0.93595 0.83695 0.79906 0.0
C1494 C 0.93351 0.848 0.77605 0.0
C1495 C 0.84238 0.78202 0.75111 0.0
C1496 C 0.78961 0.68273 0.73055 0.0
C1497 C 0.79296 0.66361 0.74568 0.0
C1498 C 0.79528 0.63755 0.73271 0.0
C1499 C 0.78916 0.62871 0.70431 0.0
C1500 C 0.78389 0.67431 0.70207 0.0
C1501 C 0.78272 0.64693 0.68914 0.0
C1502 C 0.81696 0.77177 0.81932 0.0
C1503 C 0.79913 0.71145 0.74492 0.0
H1504 H 0.81307 0.89076 0.79594 0.0
H1505 H 0.79631 0.95605 0.85478 0.0
H1506 H 0.83258 0.89823 0.88189 0.0
H1507 H 0.81467 0.93908 0.89223 0.0
H1508 H 0.79761 0.67043 0.76768 0.0
H1509 H 0.79089 0.60859 0.69378 0.0
H1510 H 0.78156 0.68897 0.68984 0.0
H1511 H 0.77869 0.64045 0.66716 0.0
Tb1512 Tb 0.53904 0.52662 0.51437 0.0
C1513 C 0.60631 0.62832 0.56648 0.0
C1514 C 0.62155 0.64998 0.53011 0.0
C1515 C 0.61944 0.67856 0.57406 0.0
C1516 C 0.61241 0.62582 0.53997 0.0
C1517 C 0.61026 0.65487 0.58389 0.0
C1518 C 0.62499 0.67612 0.54723 0.0
C1519 C 0.59915 0.6333 0.62099 0.0
N1520 N 0.59795 0.60504 0.57581 0.0
C1521 C 0.59605 0.60765 0.60339 0.0
C1522 C 0.60597 0.65705 0.61114 0.0
Tb1523 Tb 0.59725 0.56345 0.54619 0.0
N1524 N 0.60966 0.60009 0.52396 0.0
C1525 C 0.61529 0.59816 0.49736 0.0
C1526 C 0.62725 0.64744 0.50333 0.0
C1527 C 0.62388 0.62144 0.48688 0.0
H1528 H 0.59355 0.59038 0.61304 0.0
H1529 H 0.628 0.61919 0.46589 0.0
H1530 H 0.63222 0.69465 0.53996 0.0
H1531 H 0.59722 0.6347 0.64247 0.0
H1532 H 0.61321 0.57936 0.48281 0.0
H1533 H 0.52221 0.44952 0.57483 0.0
H1534 H 0.63419 0.66543 0.49512 0.0
H1535 H 0.52176 0.52162 0.44933 0.0
H1536 H 0.53269 0.49653 0.567 0.0
H1537 H 0.50692 0.48477 0.40772 0.0
H1538 H 0.62271 0.69891 0.58724 0.0
H1539 H 0.51359 0.40945 0.53572 0.0
H1540 H 0.50661 0.39157 0.48492 0.0
H1541 H 0.609 0.67699 0.62504 0.0
H1542 H 0.50248 0.40122 0.4391 0.0
N1543 N 0.53201 0.48367 0.52394 0.0
C1544 C 0.52957 0.47941 0.54973 0.0
C1545 C 0.51876 0.43013 0.53217 0.0
C1546 C 0.51934 0.43459 0.50566 0.0
C1547 C 0.52348 0.45267 0.55428 0.0
C1548 C 0.52608 0.46196 0.50217 0.0
H1549 H 0.50227 0.43594 0.41009 0.0
N1550 N 0.52772 0.49409 0.47443 0.0
C1551 C 0.51191 0.47959 0.42685 0.0
C1552 C 0.52381 0.46737 0.47645 0.0
C1553 C 0.52051 0.50042 0.4504 0.0
C1554 C 0.5094 0.45206 0.42825 0.0
C1555 C 0.51466 0.44561 0.45341 0.0
O1556 O 0.51096 0.54654 0.50485 0.0
O1557 O 0.5619 0.56864 0.52984 0.0
O1558 O 0.57139 0.55626 0.57893 0.0
O1559 O 0.53122 0.54232 0.55708 0.0
O1560 O 0.54667 0.55734 0.48952 0.0
O1561 O 0.50173 0.5098 0.5203 0.0
O1562 O 0.61484 0.55927 0.58283 0.0
O1563 O 0.57076 0.52398 0.54114 0.0
O1564 O 0.5651 0.51994 0.4818 0.0
O1565 O 0.60494 0.54474 0.50321 0.0
O1566 O 0.60672 0.52355 0.53317 0.0
O1567 O 0.63614 0.57971 0.5552 0.0
C1568 C 0.55885 0.57793 0.5084 0.0
C1569 C 0.46967 0.52004 0.49358 0.0
C1570 C 0.42903 0.529 0.4841 0.0
C1571 C 0.45297 0.53688 0.49838 0.0
C1572 C 0.42201 0.5046 0.46384 0.0
C1573 C 0.46274 0.49542 0.4735 0.0
C1574 C 0.43907 0.48805 0.45829 0.0
C1575 C 0.54657 0.55158 0.58009 0.0
C1576 C 0.49325 0.52857 0.51145 0.0
C1577 C 0.50945 0.41822 0.45655 0.0
C1578 C 0.51179 0.41272 0.48265 0.0
C1579 C 0.58542 0.50772 0.53539 0.0
C1580 C 0.65766 0.56062 0.5855 0.0
C1581 C 0.6682 0.54497 0.5654 0.0
C1582 C 0.6896 0.53639 0.57262 0.0
C1583 C 0.70006 0.54274 0.60002 0.0
C1584 C 0.66793 0.5667 0.61291 0.0
C1585 C 0.68906 0.55765 0.62014 0.0
C1586 C 0.5898 0.52952 0.4806 0.0
C1587 C 0.63682 0.5721 0.57838 0.0
H1588 H 0.4581 0.55551 0.51448 0.0
H1589 H 0.40331 0.49818 0.45286 0.0
H1590 H 0.47517 0.48169 0.47002 0.0
H1591 H 0.43365 0.46908 0.44281 0.0
H1592 H 0.66039 0.54031 0.54417 0.0
H1593 H 0.71672 0.53617 0.60576 0.0
H1594 H 0.6598 0.57878 0.62861 0.0
H1595 H 0.69709 0.56252 0.64126 0.0
Tb1596 Tb 0.09511 0.54546 0.00847 0.0
C1597 C 0.01655 0.49795 0.07961 0.0
C1598 C 0.98923 0.45801 0.0492 0.0
C1599 C 0.99398 0.46013 0.09797 0.0
C1600 C 0.0063 0.48402 0.05361 0.0
C1601 C 0.01013 0.48653 0.10223 0.0
C1602 C 0.9836 0.44585 0.07146 0.0
C1603 C 0.03429 0.52908 0.13153 0.0
N1604 N 0.03169 0.52353 0.08282 0.0
C1605 C 0.04003 0.53953 0.1084 0.0
C1606 C 0.01947 0.50235 0.12844 0.0
Tb1607 Tb 0.03976 0.53923 0.04398 0.0
N1608 N 0.01166 0.4969 0.03288 0.0
C1609 C 0.99885 0.4857 0.00744 0.0
C1610 C 0.97757 0.44558 0.02276 0.0
C1611 C 0.9821 0.45973 1.00188 0.0
H1612 H 0.05149 0.5602 0.111 0.0
H1613 H 0.97265 0.45069 0.98149 0.0
H1614 H 0.97065 0.42582 0.06848 0.0
H1615 H 0.04124 0.54168 0.15172 0.0
H1616 H 1.00184 0.49632 0.991 0.0
H1617 H 0.16331 0.63463 0.06868 0.0
H1618 H 0.96443 0.42558 0.01847 0.0
H1619 H 0.08093 0.52382 0.94099 0.0
H1620 H 0.1324 0.59061 0.06099 0.0
H1621 H 0.09134 0.54081 0.89991 0.0
H1622 H 0.98891 0.4509 0.11506 0.0
H1623 H 0.17361 0.65696 0.03021 0.0
H1624 H 0.16788 0.65478 0.97988 0.0
H1625 H 0.01489 0.49439 0.14637 0.0
H1626 H 0.14849 0.62911 0.93388 0.0
N1627 N 0.12393 0.58742 0.01823 0.0
C1628 C 0.13624 0.59972 0.04374 0.0
C1629 C 0.15975 0.63749 0.02661 0.0
C1630 C 0.14802 0.62434 1.00038 0.0
C1631 C 0.15404 0.62492 0.04833 0.0
C1632 C 0.1301 0.59899 0.99684 0.0
H1633 H 0.1201 0.58653 0.90387 0.0
N1634 N 0.10311 0.55978 0.96874 0.0
C1635 C 0.09933 0.5534 0.91985 0.0
C1636 C 0.11935 0.58461 0.97114 0.0
C1637 C 0.09349 0.54381 0.94339 0.0
C1638 C 0.11551 0.57923 0.92215 0.0
C1639 C 0.12596 0.59509 0.948 0.0
O1640 O 0.10901 0.51182 0.98961 0.0
O1641 O 0.06331 0.5172 0.01969 0.0
O1642 O 0.06687 0.52348 0.06626 0.0
O1643 O 0.10204 0.54901 0.05219 0.0
O1644 O 0.07277 0.50784 0.98102 0.0
O1645 O 0.12983 0.54108 0.02475 0.0
O1646 O 0.02476 0.57101 0.06476 0.0
O1647 O 0.07133 0.56659 0.03268 0.0
O1648 O 0.06941 0.56406 0.98833 0.0
O1649 O 0.0325 0.53942 1.00063 0.0
O1650 O 0.0609 0.57929 0.06975 0.0
O1651 O 0.00514 0.54374 0.02756 0.0
C1652 C 0.05777 0.49899 0.99751 0.0
C1653 C 0.15264 0.51593 0.99552 0.0
C1654 C 0.18699 0.49273 0.99161 0.0
C1655 C 0.16539 0.49718 1.00346 0.0
C1656 C 0.19595 0.50745 0.97204 0.0
C1657 C 0.16191 0.53071 0.97615 0.0
C1658 C 0.18355 0.52648 0.96453 0.0
C1659 C 0.09148 0.53329 0.06813 0.0
C1660 C 0.12917 0.51866 0.00685 0.0
C1661 C 0.1432 0.62069 0.95139 0.0
C1662 C 0.15422 0.63531 0.97756 0.0
C1663 C 0.07625 0.58693 0.05295 0.0
C1664 C 0.98113 0.56644 0.05747 0.0
C1665 C 0.96824 0.58525 0.04997 0.0
C1666 C 0.94639 0.58899 0.06164 0.0
C1667 C 0.93728 0.57326 0.08045 0.0
C1668 C 0.9717 0.55066 0.076 0.0
C1669 C 0.94976 0.55405 0.08737 0.0
C1670 C 0.0446 0.55583 0.98594 0.0
C1671 C 0.00508 0.56494 0.04684 0.0
H1672 H 0.15825 0.48568 0.01841 0.0
H1673 H 0.21261 0.50429 0.96271 0.0
H1674 H 0.1523 0.54522 0.96985 0.0
H1675 H 0.19062 0.53783 0.9495 0.0
H1676 H 0.97558 0.59753 0.03568 0.0
H1677 H 0.92037 0.57571 0.08961 0.0
H1678 H 0.98144 0.53608 0.08192 0.0
H1679 H 0.94254 0.54196 0.10178 0.0
H1680 H 0.05017 0.20286 0.0094 0.0
H1681 H 0.01337 0.16149 0.92866 0.0
H1682 H 0.01996 0.118 0.93622 0.0
H1683 H 0.03715 0.09107 0.96405 0.0
H1684 H 0.0687 0.12813 0.04713 0.0
H1685 H 0.06414 0.17339 0.0401 0.0
C1686 C 0.04343 0.18432 0.99351 0.0
C1687 C 0.03136 0.18616 0.96815 0.0
C1688 C 0.04695 0.15841 0.99817 0.0
C1689 C 0.02278 0.16143 0.94821 0.0
C1690 C 0.02664 0.13625 0.95248 0.0
C1691 C 0.04313 0.10892 0.98087 0.0
C1692 C 0.05445 0.10588 0.00586 0.0
C1693 C 0.03892 0.13446 0.97713 0.0
C1694 C 0.06119 0.1296 0.02727 0.0
C1695 C 0.05811 0.15557 0.02329 0.0
H1696 H 0.17274 0.82391 0.19076 0.0
H1697 H 0.2146 0.83026 0.12183 0.0
H1698 H 0.25109 0.82239 0.14707 0.0
H1699 H 0.27136 0.81335 0.18932 0.0
H1700 H 0.2261 0.80042 0.25444 0.0
H1701 H 0.19149 0.81175 0.23075 0.0
C1702 C 0.18983 0.82372 0.18117 0.0
C1703 C 0.19075 0.82803 0.15434 0.0
C1704 C 0.21056 0.81837 0.19554 0.0
C1705 C 0.21319 0.82726 0.14243 0.0
C1706 C 0.23415 0.82269 0.15692 0.0
C1707 C 0.25399 0.81314 0.19843 0.0
C1708 C 0.25234 0.80775 0.22495 0.0
C1709 C 0.23312 0.81815 0.18358 0.0
C1710 C 0.22911 0.80669 0.23553 0.0
C1711 C 0.20884 0.81251 0.22148 0.0
H1712 H 0.52611 0.86773 0.49752 0.0
H1713 H 0.58071 0.86902 0.43929 0.0
H1714 H 0.59073 0.9187 0.44938 0.0
H1715 H 0.5811 0.96136 0.46972 0.0
H1716 H 0.53711 0.96522 0.53741 0.0
H1717 H 0.52495 0.91441 0.52799 0.0
C1718 C 0.54064 0.8789 0.48761 0.0
C1719 C 0.55191 0.86414 0.46673 0.0
C1720 C 0.5473 0.90848 0.49425 0.0
C1721 C 0.57105 0.8794 0.4547 0.0
C1722 C 0.57683 0.90803 0.46037 0.0
C1723 C 0.56882 0.95148 0.48273 0.0
C1724 C 0.55808 0.9676 0.50271 0.0
C1725 C 0.5644 0.9227 0.47919 0.0
C1726 C 0.54358 0.95369 0.52009 0.0
C1727 C 0.53729 0.92445 0.51516 0.0
H1728 H 0.55631 0.31156 0.70966 0.0
H1729 H 0.53206 0.30925 0.62576 0.0
H1730 H 0.48821 0.29934 0.63518 0.0
H1731 H 0.4566 0.28673 0.66623 0.0
H1732 H 0.4809 0.29017 0.75019 0.0
H1733 H 0.5249 0.30427 0.74186 0.0
C1734 C 0.54148 0.30922 0.69346 0.0
C1735 C 0.54756 0.31083 0.66691 0.0
C1736 C 0.51629 0.30348 0.69902 0.0
C1737 C 0.52802 0.30807 0.64634 0.0
C1738 C 0.5029 0.30225 0.65168 0.0
C1739 C 0.47159 0.29103 0.68273 0.0
C1740 C 0.46565 0.28735 0.70875 0.0
C1741 C 0.49679 0.29922 0.67776 0.0
C1742 C 0.4851 0.29303 0.73007 0.0
C1743 C 0.51022 0.30093 0.72524 0.0
H1744 H 0.01558 0.85089 0.62898 0.0
H1745 H 0.00821 0.77984 0.56304 0.0
H1746 H 0.02505 0.80966 0.53302 0.0
H1747 H 0.04982 0.85464 0.52882 0.0
H1748 H 0.05889 0.92551 0.5949 0.0
H1749 H 0.03322 0.89714 0.62172 0.0
C1750 C 0.01706 0.84202 0.60784 0.0
C1751 C 0.01155 0.81329 0.59844 0.0
C1752 C 0.02749 0.85919 0.59097 0.0
C1753 C 0.01292 0.80197 0.57088 0.0
C1754 C 0.02266 0.81895 0.55373 0.0
C1755 C 0.04564 0.86379 0.5489 0.0
C1756 C 0.05642 0.8916 0.56046 0.0
C1757 C 0.03134 0.84737 0.56409 0.0
C1758 C 0.05086 0.90384 0.5861 0.0
C1759 C 0.03629 0.88769 0.60132 0.0
H1760 H 0.55125 0.82628 0.85695 0.0
H1761 H 0.58954 0.89961 0.83227 0.0
H1762 H 0.54946 0.90586 0.81426 0.0
H1763 H 0.50451 0.88767 0.801 0.0
H1764 H 0.46693 0.81142 0.82089 0.0
H1765 H 0.50557 0.80989 0.84652 0.0
C1766 C 0.55079 0.84377 0.84786 0.0
C1767 C 0.57327 0.86213 0.84538 0.0
C1768 C 0.52781 0.84681 0.83688 0.0
C1769 C 0.57245 0.88486 0.83384 0.0
C1770 C 0.54957 0.88853 0.82367 0.0
C1771 C 0.50476 0.87073 0.81097 0.0
C1772 C 0.48305 0.84946 0.80856 0.0
C1773 C 0.52728 0.86913 0.8243 0.0
C1774 C 0.48337 0.82814 0.82243 0.0
C1775 C 0.50554 0.82705 0.83681 0.0
H1776 H 0.48924 0.12996 0.14402 0.0
H1777 H 0.47686 0.17265 0.08036 0.0
H1778 H 0.4843 0.13481 0.04621 0.0
H1779 H 0.50411 0.09574 0.03668 0.0
H1780 H 0.52166 0.05711 0.10176 0.0
H1781 H 0.50183 0.08661 0.13295 0.0
C1782 C 0.48748 0.13069 0.1226 0.0
C1783 C 0.4835 0.1545 0.11488 0.0
C1784 C 0.49324 0.10976 0.10337 0.0
C1785 C 0.48049 0.15478 0.08695 0.0
C1786 C 0.48494 0.13324 0.0674 0.0
C1787 C 0.50343 0.09365 0.05755 0.0
C1788 C 0.51559 0.07543 0.0673 0.0
C1789 C 0.49305 0.11163 0.0757 0.0
C1790 C 0.51341 0.07192 0.09411 0.0
C1791 C 0.50197 0.08869 0.11194 0.0
H1792 H 0.20982 0.31159 0.37353 0.0
H1793 H 0.15846 0.30768 0.30346 0.0
H1794 H 0.19266 0.30843 0.27453 0.0
H1795 H 0.23787 0.31262 0.27007 0.0
H1796 H 0.28808 0.31623 0.34085 0.0
H1797 H 0.25366 0.31416 0.36903 0.0
C1798 C 0.20604 0.31079 0.35192 0.0
C1799 C 0.18189 0.30989 0.34063 0.0
C1800 C 0.22564 0.31183 0.33576 0.0
C1801 C 0.17711 0.30859 0.31256 0.0
C1802 C 0.19661 0.30919 0.29609 0.0
C1803 C 0.241 0.31302 0.29167 0.0
C1804 C 0.26502 0.31451 0.30364 0.0
C1805 C 0.22104 0.31134 0.30762 0.0
C1806 C 0.26948 0.31516 0.33152 0.0
C1807 C 0.24987 0.31379 0.34753 0.0
H1808 H 0.02181 0.07218 0.20607 0.0
H1809 H 0.94709 0.06042 0.16642 0.0
H1810 H 0.96305 0.05502 0.12196 0.0
H1811 H 0.99824 0.05286 0.09243 0.0
H1812 H 0.07298 0.06408 0.13157 0.0
H1813 H 0.05731 0.07027 0.17624 0.0
C1814 C 0.00885 0.06852 0.18784 0.0
C1815 C 0.98269 0.06685 0.19079 0.0
C1816 C 0.01838 0.06527 0.16131 0.0
C1817 C 0.96702 0.06193 0.16594 0.0
C1818 C 0.97628 0.05876 0.14 0.0
C1819 C 0.01134 0.05678 0.11061 0.0
C1820 C 0.03742 0.05847 0.10745 0.0
C1821 C 1.00194 0.06027 0.13711 0.0
C1822 C 0.05323 0.06339 0.1322 0.0
C1823 C 0.04406 0.06671 0.15826 0.0
H1824 H 0.29363 0.65171 0.43536 0.0
H1825 H 0.33621 0.72633 0.4904 0.0
H1826 H 0.32497 0.75371 0.459 0.0
H1827 H 0.29623 0.75671 0.42072 0.0
H1828 H 0.24951 0.68228 0.36947 0.0
H1829 H 0.26907 0.65434 0.39448 0.0
C1830 C 0.30116 0.67387 0.44007 0.0
C1831 C 0.31539 0.68705 0.46526 0.0
C1832 C 0.29333 0.6895 0.42284 0.0
C1833 C 0.32505 0.71577 0.47114 0.0
C1834 C 0.31842 0.73144 0.45335 0.0
C1835 C 0.29091 0.73436 0.41476 0.0
C1836 C 0.27157 0.72129 0.3936 0.0
C1837 C 0.30148 0.71861 0.42991 0.0
C1838 C 0.26436 0.69247 0.38592 0.0
C1839 C 0.27551 0.67661 0.40016 0.0
H1840 H 0.67154 0.05757 0.66132 0.0
H1841 H 0.66967 0.973 0.62532 0.0
H1842 H 0.63024 0.96893 0.59701 0.0
H1843 H 0.59652 0.99021 0.58342 0.0
H1844 H 0.59666 0.07292 0.62447 0.0
H1845 H 0.63552 0.07623 0.65266 0.0
C1846 C 0.66259 0.0384 0.64693 0.0
C1847 C 0.67345 0.01584 0.64455 0.0
C1848 C 0.639 0.03543 0.63331 0.0
C1849 C 0.66178 0.99083 0.6265 0.0
C1850 C 0.63904 0.98832 0.61103 0.0
C1851 C 0.60442 1.00826 0.59965 0.0
C1852 C 0.59399 0.0312 0.60239 0.0
C1853 C 0.62722 0.01034 0.61482 0.0
C1854 C 0.60435 0.05489 0.62278 0.0
C1855 C 0.6269 0.05709 0.63814 0.0
H1856 H 0.32843 0.38655 0.92916 0.0
H1857 H 0.32213 0.31468 0.96364 0.0
H1858 H 0.31997 0.28579 0.91784 0.0
H1859 H 0.31715 0.28081 0.86738 0.0
H1860 H 0.32281 0.35339 0.83434 0.0
H1861 H 0.32803 0.3822 0.88022 0.0
C1862 C 0.32663 0.36457 0.92683 0.0
C1863 C 0.32515 0.35281 0.94988 0.0
C1864 C 0.32539 0.34823 0.90061 0.0
C1865 C 0.32314 0.32429 0.94628 0.0
C1866 C 0.3219 0.30777 0.92008 0.0
C1867 C 0.32007 0.30301 0.87045 0.0
C1868 C 0.32031 0.31514 0.84769 0.0
C1869 C 0.32269 0.31948 0.89704 0.0
C1870 C 0.3233 0.34377 0.85164 0.0
C1871 C 0.32607 0.3602 0.87784 0.0
H1872 H 0.96698 0.04348 0.37935 0.0
H1873 H 0.03626 0.08262 0.35339 0.0
H1874 H 0.05959 0.07893 0.39506 0.0
H1875 H 0.06154 0.06365 0.44028 0.0
H1876 H 0.99163 0.02643 0.4666 0.0
H1877 H 0.96866 0.02995 0.42492 0.0
C1878 C 0.98708 0.05208 0.38298 0.0
C1879 C 0.99917 0.06452 0.36254 0.0
C1880 C 1.00097 0.04946 0.40758 0.0
C1881 C 0.02568 0.07388 0.36828 0.0
C1882 C 0.03935 0.07139 0.39237 0.0
C1883 C 0.04134 0.05577 0.43685 0.0
C1884 C 0.02893 0.0436 0.45732 0.0
C1885 C 0.02746 0.05888 0.41235 0.0
C1886 C 1.00239 0.03507 0.45176 0.0
C1887 C 0.98891 0.03735 0.42761 0.0
H1888 H 0.26296 0.68511 0.62627 0.0
H1889 H 0.33675 0.7186 0.60536 0.0
H1890 H 0.3395 0.76173 0.63823 0.0
H1891 H 0.32283 0.78697 0.67617 0.0
H1892 H 0.25259 0.75057 0.70174 0.0
H1893 H 0.24467 0.71294 0.66139 0.0
C1894 C 0.27968 0.7018 0.62904 0.0
C1895 C 0.29993 0.69861 0.61417 0.0
C1896 C 0.28116 0.72632 0.64788 0.0
C1897 C 0.32115 0.72061 0.61711 0.0
C1898 C 0.32261 0.74531 0.63557 0.0
C1899 C 0.306 0.77083 0.67301 0.0
C1900 C 0.2896 0.76989 0.69297 0.0
C1901 C 0.303 0.74803 0.65153 0.0
C1902 C 0.26625 0.75065 0.68716 0.0
C1903 C 0.2619 0.72894 0.6644 0.0
H1904 H 0.68816 0.07026 0.81319 0.0
H1905 H 0.62712 1.0001 0.7781 0.0
H1906 H 0.60686 1.00688 0.81998 0.0
H1907 H 0.60299 0.03755 0.86289 0.0
H1908 H 0.66098 0.11133 0.89531 0.0
H1909 H 0.68627 0.0985 0.85855 0.0
C1910 C 0.67089 0.05597 0.81525 0.0
C1911 C 0.65911 0.03464 0.79297 0.0
C1912 C 0.65864 0.06109 0.83869 0.0
C1913 C 0.63647 0.01652 0.79528 0.0
C1914 C 0.62482 0.02055 0.81906 0.0
C1915 C 0.6214 0.05042 0.86206 0.0
C1916 C 0.63022 0.07532 0.88131 0.0
C1917 C 0.63515 0.0435 0.84033 0.0
C1918 C 0.65394 0.09215 0.88033 0.0
C1919 C 0.6683 0.08482 0.85939 0.0
H1920 H 0.32045 0.38888 0.14386 0.0
H1921 H 0.30328 0.30748 0.09142 0.0
H1922 H 0.29372 0.28701 0.13067 0.0
H1923 H 0.2939 0.29233 0.18008 0.0
H1924 H 0.30994 0.37333 0.23269 0.0
H1925 H 0.31626 0.39403 0.19302 0.0
C1926 C 0.31463 0.36664 0.14098 0.0
C1927 C 0.31302 0.34973 0.11474 0.0
C1928 C 0.30889 0.35502 0.16361 0.0
C1929 C 0.30501 0.32098 0.11138 0.0
C1930 C 0.29944 0.30927 0.13381 0.0
C1931 C 0.29772 0.3144 0.18293 0.0
C1932 C 0.30121 0.3311 0.20946 0.0
C1933 C 0.30162 0.32608 0.16006 0.0
C1934 C 0.30705 0.35991 0.21254 0.0
C1935 C 0.31089 0.37176 0.18987 0.0
H1936 H 0.2867 0.01567 0.01284 0.0
H1937 H 0.24142 0.9331 1.00472 0.0
H1938 H 0.20558 0.95158 0.01855 0.0
H1939 H 0.19078 0.99121 0.04257 0.0
H1940 H 0.23806 0.07319 0.05502 0.0
H1941 H 0.26958 0.05515 0.02964 0.0
C1942 C 0.26883 1.00171 0.01359 0.0
C1943 C 0.26679 0.97322 0.00876 0.0
C1944 C 0.24887 0.01246 0.02268 0.0
C1945 C 0.24345 0.95521 0.00892 0.0
C1946 C 0.22305 0.96575 0.01697 0.0
C1947 C 0.20772 1.00499 0.03892 0.0
C1948 C 0.21259 0.03322 0.05058 0.0
C1949 C 0.22606 0.99433 0.0254 0.0
C1950 C 0.23435 0.05131 0.04612 0.0
C1951 C 0.25229 0.04101 0.03177 0.0
H1952 H 0.69937 0.66461 0.99102 0.0
H1953 H 0.74122 0.60315 0.99601 0.0
H1954 H 0.70266 0.56963 0.99863 0.0
H1955 H 0.657 0.55841 1.00247 0.0
H1956 H 0.61542 0.62007 0.9977 0.0
H1957 H 0.65347 0.65236 0.99138 0.0
C1958 C 0.7 0.64383 0.99248 0.0
C1959 C 0.72321 0.63655 0.99347 0.0
C1960 C 0.67764 0.62447 0.99381 0.0
C1961 C 0.72364 0.60941 0.99518 0.0
C1962 C 0.70155 0.59014 0.9967 0.0
C1963 C 0.65624 0.57865 0.99935 0.0
C1964 C 0.63345 0.5868 1.00047 0.0
C1965 C 0.67842 0.59746 0.9963 0.0
C1966 C 0.6328 0.61334 0.99696 0.0
C1967 C 0.65458 0.6319 0.99348 0.0
H1968 H 0.76282 0.43865 0.24514 0.0
H1969 H 0.70434 0.41665 0.29553 0.0
H1970 H 0.72167 0.37842 0.3035 0.0
H1971 H 0.75399 0.3503 0.29803 0.0
H1972 H 0.80739 0.36486 0.24076 0.0
H1973 H 0.79269 0.40575 0.23487 0.0
C1974 C 0.75368 0.42569 0.25798 0.0
C1975 C 0.73176 0.43224 0.27003 0.0
C1976 C 0.76357 0.40194 0.26195 0.0
C1977 C 0.7209 0.41362 0.28594 0.0
C1978 C 0.73104 0.39124 0.29065 0.0
C1979 C 0.7628 0.36223 0.28418 0.0
C1980 C 0.78378 0.35423 0.2715 0.0
C1981 C 0.75251 0.38506 0.27907 0.0
C1982 C 0.79309 0.37045 0.25282 0.0
C1983 C 0.78395 0.394 0.24888 0.0
H1984 H 0.9166 0.52006 0.51614 0.0
H1985 H 0.90679 0.432 0.5038 0.0
H1986 H 0.95245 0.43778 0.50887 0.0
H1987 H 0.99507 0.46843 0.51853 0.0
H1988 H 1.00268 0.55628 0.53648 0.0
H1989 H 0.95833 0.55015 0.52711 0.0
C1990 C 0.92448 0.50214 0.51453 0.0
C1991 C 0.90863 0.47576 0.50973 0.0
C1992 C 0.9504 0.5056 0.51807 0.0
C1993 C 0.91887 0.45261 0.50786 0.0
C1994 C 0.94487 0.45587 0.51056 0.0
C1995 C 0.98692 0.48612 0.51975 0.0
C1996 C 1.00252 0.51279 0.52649 0.0
C1997 C 0.96081 0.48234 0.5158 0.0
C1998 C 0.99174 0.53557 0.52987 0.0
C1999 C 0.96602 0.53208 0.52483 0.0
H2000 H 0.40438 0.1329 0.30421 0.0
H2001 H 0.3458 0.09238 0.34554 0.0
H2002 H 0.31436 0.10681 0.31872 0.0
H2003 H 0.30333 0.12394 0.27799 0.0
H2004 H 0.36197 0.15643 0.23215 0.0
H2005 H 0.39385 0.15048 0.26511 0.0
C2006 C 0.38485 0.12814 0.30814 0.0
C2007 C 0.37723 0.11156 0.32658 0.0
C2008 C 0.3669 0.13354 0.2906 0.0
C2009 C 0.35194 0.10534 0.33145 0.0
C2010 C 0.33398 0.11294 0.31565 0.0
C2011 C 0.32312 0.1293 0.27528 0.0
C2012 C 0.33068 0.14 0.2528 0.0
C2013 C 0.34115 0.12556 0.2941 0.0
C2014 C 0.35612 0.14752 0.24923 0.0
C2015 C 0.37422 0.14459 0.26821 0.0
H2016 H 0.37642 0.1739 0.54186 0.0
H2017 H 0.33894 0.10671 0.47542 0.0
H2018 H 0.37431 0.08518 0.47772 0.0
H2019 H 0.41206 0.08129 0.50385 0.0
H2020 H 0.44781 0.14572 0.57322 0.0
H2021 H 0.41754 0.17279 0.56452 0.0
C2022 C 0.3765 0.15503 0.5274 0.0
C2023 C 0.35525 0.14184 0.50846 0.0
C2024 C 0.39649 0.14211 0.52968 0.0
C2025 C 0.3552 0.11716 0.4901 0.0
C2026 C 0.37533 0.10477 0.49152 0.0
C2027 C 0.41359 0.10165 0.51645 0.0
C2028 C 0.43202 0.1117 0.53897 0.0
C2029 C 0.39553 0.11642 0.51197 0.0
C2030 C 0.43377 0.13782 0.55562 0.0
C2031 C 0.41636 0.15314 0.55076 0.0
H2032 H 0.76507 0.60845 0.28504 0.0
H2033 H 0.69161 0.62495 0.2757 0.0
H2034 H 0.71048 0.67267 0.2758 0.0
H2035 H 0.7477 0.71127 0.27822 0.0
H2036 H 0.82146 0.69644 0.28901 0.0
H2037 H 0.80298 0.64819 0.2886 0.0
C2038 C 0.7531 0.62238 0.28307 0.0
C2039 C 0.72648 0.61203 0.2804 0.0
C2040 C 0.76429 0.65092 0.28337 0.0
C2041 C 0.71192 0.63133 0.27791 0.0
C2042 C 0.72279 0.6591 0.27792 0.0
C2043 C 0.75992 0.69768 0.28062 0.0
C2044 C 0.78641 0.7085 0.28363 0.0
C2045 C 0.74896 0.66936 0.28063 0.0
C2046 C 0.80127 0.68965 0.28663 0.0
C2047 C 0.79054 0.66159 0.28639 0.0
H2048 H 0.92758 0.43572 0.79651 0.0
H2049 H 0.8681 0.47882 0.80182 0.0
H2050 H 0.8367 0.43503 0.79276 0.0
H2051 H 0.82616 0.38424 0.77756 0.0
H2052 H 0.88565 0.34149 0.77532 0.0
H2053 H 0.91709 0.38535 0.78815 0.0
C2054 C 0.90777 0.43553 0.79594 0.0
C2055 C 0.90021 0.46038 0.79912 0.0
C2056 C 0.88981 0.41035 0.79071 0.0
C2057 C 0.87446 0.4599 0.79906 0.0
C2058 C 0.85644 0.43488 0.7937 0.0
C2059 C 0.84601 0.38474 0.78048 0.0
C2060 C 0.85381 0.36006 0.77582 0.0
C2061 C 0.8639 0.40998 0.78855 0.0
C2062 C 0.87946 0.36052 0.77902 0.0
C2063 C 0.89736 0.38549 0.7864 0.0
H2064 H 0.1019 0.92088 0.10644 0.0
H2065 H 0.10248 0.86981 0.02718 0.0
H2066 H 0.09482 0.90659 0.00547 0.0
H2067 H 0.08952 0.95472 0.00861 0.0
H2068 H 0.08882 1.00547 0.08788 0.0
H2069 H 0.09491 0.96804 0.10949 0.0
C2070 C 0.10035 0.91766 0.08439 0.0
C2071 C 0.10309 0.89215 0.06872 0.0
C2072 C 0.09588 0.93921 0.07181 0.0
C2073 C 0.10076 0.8889 0.04008 0.0
C2074 C 0.09631 0.91011 0.02753 0.0
C2075 C 0.09039 0.95748 0.0306 0.0
C2076 C 0.08821 0.9831 0.04643 0.0
C2077 C 0.09403 0.93555 0.0431 0.0
C2078 C 0.08993 0.98611 0.07499 0.0
C2079 C 0.09356 0.9646 0.08744 0.0
H2080 H 0.93949 0.29436 0.90269 0.0
H2081 H 0.95441 0.22887 0.84233 0.0
H2082 H 0.9161 0.22702 0.8136 0.0
H2083 H 0.8799 0.2467 0.80372 0.0
H2084 H 0.86497 0.31218 0.86437 0.0
H2085 H 0.90086 0.31093 0.8946 0.0
C2086 C 0.93381 0.27892 0.88378 0.0
C2087 C 0.94958 0.26109 0.87527 0.0
C2088 C 0.9118 0.27839 0.8669 0.0
C2089 C 0.94233 0.24216 0.84997 0.0
C2090 C 0.92052 0.24139 0.83326 0.0
C2091 C 0.88456 0.26095 0.82332 0.0
C2092 C 0.86987 0.2803 0.83082 0.0
C2093 C 0.9054 0.25992 0.84112 0.0
C2094 C 0.87588 0.29743 0.85728 0.0
C2095 C 0.89656 0.29672 0.87485 0.0
H2096 H 0.61394 0.21679 0.55362 0.0
H2097 H 0.57106 0.22234 0.62267 0.0
H2098 H 0.5584 0.1725 0.6146 0.0
H2099 H 0.56343 0.12771 0.59229 0.0
H2100 H 0.59637 0.11828 0.51679 0.0
H2101 H 0.61006 0.16882 0.52356 0.0
C2102 C 0.60129 0.20705 0.56639 0.0
C2103 C 0.5939 0.22361 0.58922 0.0
C2104 C 0.59341 0.17763 0.5613 0.0
C2105 C 0.57738 0.21035 0.60531 0.0
C2106 C 0.57023 0.18172 0.60085 0.0
C2107 C 0.5736 0.13645 0.5771 0.0
C2108 C 0.58096 0.11889 0.55532 0.0
C2109 C 0.57893 0.16521 0.57968 0.0
C2110 C 0.59266 0.13108 0.53517 0.0
C2111 C 0.59981 0.16013 0.5387 0.0
H2112 H 0.6199 0.772 0.41664 0.0
H2113 H 0.56108 0.76599 0.35295 0.0
H2114 H 0.59207 0.77605 0.32187 0.0
H2115 H 0.63546 0.78735 0.31244 0.0
H2116 H 0.69546 0.79353 0.37459 0.0
H2117 H 0.66454 0.78153 0.40606 0.0
C2118 C 0.61395 0.77281 0.39593 0.0
C2119 C 0.5881 0.76836 0.38729 0.0
C2120 C 0.63206 0.77832 0.3777 0.0
C2121 C 0.58072 0.76925 0.36027 0.0
C2122 C 0.59847 0.77503 0.34238 0.0
C2123 C 0.6419 0.78627 0.33293 0.0
C2124 C 0.66783 0.79184 0.34119 0.0
C2125 C 0.62412 0.77974 0.35087 0.0
C2126 C 0.67565 0.7894 0.3676 0.0
C2127 C 0.65794 0.78275 0.38569 0.0
H2128 H 0.13184 0.27438 0.46887 0.0
H2129 H 0.07102 0.23575 0.40464 0.0
H2130 H 0.05305 0.20304 0.4317 0.0
H2131 H 0.05288 0.18796 0.47523 0.0
H2132 H 0.11334 0.22671 0.53942 0.0
H2133 H 0.1334 0.25704 0.51077 0.0
C2134 C 0.11473 0.2587 0.46074 0.0
C2135 C 0.10248 0.25775 0.43509 0.0
C2136 C 0.10434 0.24031 0.47653 0.0
C2137 C 0.08063 0.23702 0.4245 0.0
C2138 C 0.07029 0.21841 0.43998 0.0
C2139 C 0.07037 0.20323 0.48282 0.0
C2140 C 0.08145 0.20599 0.5094 0.0
C2141 C 0.08163 0.22038 0.46629 0.0
C2142 C 0.10438 0.22504 0.51914 0.0
C2143 C 0.11582 0.24214 0.50277 0.0
H2144 H 0.59505 0.23379 0.1621 0.0
H2145 H 0.56821 0.27153 0.2356 0.0
H2146 H 0.60326 0.26447 0.26326 0.0
H2147 H 0.64027 0.24545 0.26655 0.0
H2148 H 0.66755 0.20845 0.19328 0.0
H2149 H 0.63315 0.21686 0.16528 0.0
C2150 C 0.59702 0.24066 0.18415 0.0
C2151 C 0.57901 0.2527 0.1969 0.0
C2152 C 0.61687 0.23612 0.19988 0.0
C2153 C 0.58181 0.26187 0.22542 0.0
C2154 C 0.60172 0.25773 0.24124 0.0
C2155 C 0.63828 0.23882 0.24447 0.0
C2156 C 0.65566 0.22572 0.23178 0.0
C2157 C 0.61897 0.24428 0.2287 0.0
C2158 C 0.6538 0.21804 0.20322 0.0
C2159 C 0.63439 0.22305 0.18732 0.0
H2160 H 0.61235 0.89456 0.94347 0.0
H2161 H 0.68495 0.947 0.94004 0.0
H2162 H 0.67119 0.98715 0.96452 0.0
H2163 H 0.63706 1.00699 0.98459 0.0
H2164 H 0.56351 0.95364 0.98078 0.0
H2165 H 0.57896 0.91367 0.96061 0.0
C2166 C 0.62552 0.91462 0.94852 0.0
C2167 C 0.64983 0.91781 0.94057 0.0
C2168 C 0.617 0.93733 0.96057 0.0
C2169 C 0.66627 0.9441 0.94646 0.0
C2170 C 0.65832 0.96697 0.96012 0.0
C2171 C 0.62458 0.98654 0.97894 0.0
C2172 C 0.59928 0.98277 0.9836 0.0
C2173 C 0.63351 0.96383 0.96676 0.0
C2174 C 0.58295 0.9566 0.97669 0.0
C2175 C 0.59182 0.93388 0.96552 0.0
H2176 H 0.94341 0.74778 0.746 0.0
H2177 H 0.94903 0.79601 0.68405 0.0
H2178 H 0.91052 0.80928 0.69511 0.0
H2179 H 0.87278 0.80235 0.71808 0.0
H2180 H 0.8677 0.75705 0.7819 0.0
H2181 H 0.90857 0.74685 0.77409 0.0
C2182 C 0.93632 0.7614 0.73513 0.0
C2183 C 0.9485 0.77022 0.71376 0.0
C2184 C 0.91429 0.76912 0.74163 0.0
C2185 C 0.93952 0.78833 0.70015 0.0
C2186 C 0.91757 0.79599 0.70641 0.0
C2187 C 0.8811 0.79084 0.73059 0.0
C2188 C 0.86811 0.7807 0.75059 0.0
C2189 C 0.90444 0.78571 0.72639 0.0
C2190 C 0.87822 0.76547 0.76678 0.0
C2191 C 0.90131 0.75956 0.76222 0.0
H2192 H 0.10687 0.01829 0.85003 0.0
H2193 H 0.18332 0.02191 0.8785 0.0
H2194 H 0.17214 0.02565 0.92553 0.0
H2195 H 0.14021 0.02923 0.96042 0.0
H2196 H 0.06354 0.02234 0.92966 0.0
H2197 H 0.07502 0.01827 0.88349 0.0
C2198 C 0.12127 0.01959 0.86631 0.0
C2199 C 0.14629 0.01965 0.8595 0.0
C2200 C 0.11445 0.02113 0.89385 0.0
C2201 C 0.16399 0.02142 0.88194 0.0
C2202 C 0.15749 0.02376 0.90932 0.0
C2203 C 0.12581 0.02657 0.94372 0.0
C2204 C 0.10035 0.02566 0.94988 0.0
C2205 C 0.13271 0.02381 0.91589 0.0
C2206 C 0.08283 0.02236 0.92685 0.0
C2207 C 0.08958 0.02032 0.89987 0.0
H2208 H 0.84546 0.42484 0.60622 0.0
H2209 H 0.80216 0.3487 0.55415 0.0
H2210 H 0.81244 0.32317 0.58784 0.0
H2211 H 0.83826 0.32199 0.62935 0.0
H2212 H 0.88361 0.39797 0.67946 0.0
H2213 H 0.86782 0.42419 0.64946 0.0
C2214 C 0.83792 0.40272 0.60241 0.0
C2215 C 0.82334 0.38864 0.57761 0.0
C2216 C 0.84444 0.38815 0.62147 0.0
C2217 C 0.81357 0.36 0.57305 0.0
C2218 C 0.81951 0.34537 0.59225 0.0
C2219 C 0.84416 0.34433 0.63393 0.0
C2220 C 0.86209 0.35815 0.65634 0.0
C2221 C 0.83559 0.35914 0.61613 0.0
C2222 C 0.86991 0.38703 0.66212 0.0
C2223 C 0.86094 0.40196 0.64498 0.0
H2224 H 0.51323 0.02896 0.36012 0.0
H2225 H 0.46199 0.07485 0.39711 0.0
H2226 H 0.48592 0.08287 0.4417 0.0
H2227 H 0.52011 0.07483 0.47013 0.0
H2228 H 0.56967 0.02714 0.43319 0.0
H2229 H 0.54797 0.02233 0.38808 0.0
C2230 C 0.50737 0.04092 0.37785 0.0
C2231 C 0.48598 0.05133 0.37543 0.0
C2232 C 0.52108 0.04543 0.40318 0.0
C2233 C 0.47846 0.0666 0.39858 0.0
C2234 C 0.49211 0.07127 0.424 0.0
C2235 C 0.52638 0.064 0.45199 0.0
C2236 C 0.54676 0.05212 0.45439 0.0
C2237 C 0.51332 0.06062 0.42648 0.0
C2238 C 0.55473 0.03752 0.43132 0.0
C2239 C 0.54202 0.03432 0.4057 0.0
H2240 H 0.79599 0.75204 0.10608 0.0
H2241 H 0.82314 0.67914 0.10863 0.0
H2242 H 0.82974 0.69182 0.15791 0.0
H2243 H 0.82423 0.72026 0.20025 0.0
H2244 H 0.80497 0.79776 0.20124 0.0
H2245 H 0.79753 0.78609 0.15096 0.0
C2246 C 0.80365 0.73924 0.1175 0.0
C2247 C 0.80826 0.71411 0.10356 0.0
C2248 C 0.80781 0.74685 0.1465 0.0
C2249 C 0.81863 0.69806 0.11872 0.0
C2250 C 0.82243 0.70524 0.147 0.0
C2251 C 0.81848 0.7348 0.18961 0.0
C2252 C 0.81371 0.7591 0.20462 0.0
C2253 C 0.81631 0.72898 0.16107 0.0
C2254 C 0.80722 0.77806 0.19027 0.0
C2255 C 0.80349 0.77161 0.16146 0.0
H2256 H 0.11695 0.02615 0.68971 0.0
H2257 H 0.18007 0.9965 0.65999 0.0
H2258 H 0.16667 1.00016 0.61415 0.0
H2259 H 0.13782 0.01188 0.58073 0.0
H2260 H 0.07309 0.03953 0.60731 0.0
H2261 H 0.08641 0.0373 0.65445 0.0
C2262 C 0.12785 0.02027 0.67333 0.0
C2263 C 0.15009 0.01076 0.67976 0.0
C2264 C 0.11982 0.02258 0.64566 0.0
C2265 C 0.16323 1.00378 0.65707 0.0
C2266 C 0.15547 1.00597 0.63029 0.0
C2267 C 0.12641 0.01768 0.59665 0.0
C2268 C 0.10445 0.02681 0.58925 0.0
C2269 C 0.13394 0.01544 0.62408 0.0
C2270 C 0.09036 0.0334 0.61125 0.0
C2271 C 0.09799 0.03171 0.63865 0.0
H2272 H 0.81903 0.35751 0.436 0.0
H2273 H 0.86177 0.42796 0.40998 0.0
H2274 H 0.87582 0.39752 0.37362 0.0
H2275 H 0.8711 0.35198 0.34592 0.0
H2276 H 0.82282 0.28179 0.36668 0.0
H2277 H 0.81782 0.31069 0.41011 0.0
C2278 C 0.83146 0.36613 0.42237 0.0
C2279 C 0.83881 0.3948 0.42505 0.0
C2280 C 0.83897 0.34856 0.40115 0.0
C2281 C 0.85523 0.40587 0.40767 0.0
C2282 C 0.8636 0.38854 0.3872 0.0
C2283 C 0.85968 0.34279 0.36002 0.0
C2284 C 0.84548 0.31545 0.35222 0.0
C2285 C 0.85493 0.35994 0.38329 0.0
C2286 C 0.83257 0.30336 0.37161 0.0
C2287 C 0.82951 0.31991 0.39625 0.0
H2288 H 0.4803 0.07774 0.2458 0.0
H2289 H 0.41096 0.01781 0.21276 0.0
H2290 H 0.43237 0.99531 0.17697 0.0
H2291 H 0.47206 0.98892 0.15946 0.0
H2292 H 0.54134 0.04845 0.19307 0.0
H2293 H 0.51881 0.07482 0.22473 0.0
C2294 C 0.46975 0.0602 0.23028 0.0
C2295 C 0.44422 0.04924 0.23199 0.0
C2296 C 0.48232 0.04691 0.21047 0.0
C2297 C 0.43063 0.02667 0.21176 0.0
C2298 C 0.44293 0.01356 0.19157 0.0
C2299 C 0.48206 1.00775 0.17371 0.0
C2300 C 0.5082 0.01661 0.17463 0.0
C2301 C 0.46896 0.02281 0.19152 0.0
C2302 C 0.52118 0.04126 0.19251 0.0
C2303 C 0.50832 0.05631 0.21043 0.0
H2304 H 0.80603 0.69936 0.90824 0.0
H2305 H 0.81858 0.77926 0.96257 0.0
H2306 H 0.82405 0.80146 0.92367 0.0
H2307 H 0.82302 0.79789 0.87375 0.0
H2308 H 0.81003 0.71734 0.8201 0.0
H2309 H 0.80663 0.69587 0.85909 0.0
C2310 C 0.8101 0.72166 0.91167 0.0
C2311 C 0.81179 0.73758 0.93836 0.0
C2312 C 0.81293 0.73423 0.88921 0.0
C2313 C 0.81698 0.76646 0.94227 0.0
C2314 C 0.82013 0.77917 0.92 0.0
C2315 C 0.8199 0.77569 0.87058 0.0
C2316 C 0.81693 0.75941 0.84382 0.0
C2317 C 0.81787 0.76325 0.89329 0.0
C2318 C 0.81239 0.73056 0.84029 0.0
C2319 C 0.81044 0.71815 0.86266 0.0
H2320 H 0.8474 0.06799 0.06537 0.0
H2321 H 0.86463 0.12646 0.01384 0.0
H2322 H 0.89738 0.10501 0.99624 0.0
H2323 H 0.91626 0.06522 0.99013 0.0
H2324 H 0.8997 1.00687 0.04142 0.0
H2325 H 0.87129 0.03259 0.06453 0.0
C2326 C 0.85868 0.07638 0.05074 0.0
C2327 C 0.85295 0.09796 0.04009 0.0
C2328 C 0.87701 0.0635 0.04011 0.0
C2329 C 0.86823 0.10929 0.0218 0.0
C2330 C 0.88685 0.09695 0.01154 0.0
C2331 C 0.90617 0.05817 0.00623 0.0
C2332 C 0.90871 0.03374 0.01341 0.0
C2333 C 0.89037 0.07316 0.01945 0.0
C2334 C 0.89683 0.02514 0.03505 0.0
C2335 C 0.88096 0.03995 0.04836 0.0
H2336 H 0.40822 0.48872 0.05057 0.0
H2337 H 0.42082 0.40729 0.0435 0.0
H2338 H 0.46628 0.42622 0.04418 0.0
H2339 H 0.50218 0.46642 0.0433 0.0
H2340 H 0.48621 0.54604 0.04759 0.0
H2341 H 0.44267 0.52755 0.05163 0.0
C2342 C 0.42088 0.47502 0.04943 0.0
C2343 C 0.41112 0.44664 0.0468 0.0
C2344 C 0.44657 0.48589 0.04934 0.0
C2345 C 0.42787 0.42929 0.04569 0.0
C2346 C 0.45383 0.4401 0.04581 0.0
C2347 C 0.48913 0.47965 0.04543 0.0
C2348 C 0.49787 0.5081 0.0463 0.0
C2349 C 0.46338 0.46842 0.04706 0.0
C2350 C 0.4806 0.52475 0.04854 0.0
C2351 C 0.45541 0.51397 0.05032 0.0
H2352 H 0.37658 0.65112 0.80153 0.0
H2353 H 0.42648 0.66427 0.74025 0.0
H2354 H 0.40762 0.70108 0.73076 0.0
H2355 H 0.37633 0.73041 0.73853 0.0
H2356 H 0.33238 0.72473 0.80572 0.0
H2357 H 0.34845 0.68519 0.81331 0.0
C2358 C 0.38348 0.66187 0.786 0.0
C2359 C 0.40335 0.65346 0.77139 0.0
C2360 C 0.37294 0.68478 0.78121 0.0
C2361 C 0.41155 0.6691 0.75194 0.0
C2362 C 0.40054 0.69055 0.74638 0.0
C2363 C 0.36996 0.72069 0.75493 0.0
C2364 C 0.35121 0.73061 0.77025 0.0
C2365 C 0.38109 0.69872 0.76066 0.0
C2366 C 0.34498 0.71745 0.79204 0.0
C2367 C 0.35481 0.69471 0.79678 0.0
H2368 H 0.21849 0.5778 0.5215 0.0
H2369 H 0.21287 0.66255 0.53636 0.0
H2370 H 0.16801 0.64791 0.54013 0.0
H2371 H 0.12989 0.61066 0.53444 0.0
H2372 H 0.13524 0.5262 0.51417 0.0
H2373 H 0.18095 0.54093 0.51813 0.0
C2374 C 0.20749 0.59309 0.5257 0.0
C2375 C 0.21879 0.62111 0.52831 0.0
C2376 C 0.18181 0.58455 0.52734 0.0
C2377 C 0.20442 0.64077 0.53395 0.0
C2378 C 0.17886 0.63246 0.53624 0.0
C2379 C 0.14131 0.59565 0.53195 0.0
C2380 C 0.1297 0.5675 0.52538 0.0
C2381 C 0.16732 0.60438 0.53248 0.0
C2382 C 0.14412 0.54796 0.52034 0.0
C2383 C 0.17015 0.5564 0.52226 0.0
H2384 H 0.74172 0.95354 0.72966 0.0
H2385 H 0.79968 0.02906 0.75306 0.0
H2386 H 0.8228 1.00807 0.78262 0.0
H2387 H 0.82175 0.97164 0.80845 0.0
H2388 H 0.76268 0.89719 0.78643 0.0
H2389 H 0.74419 0.91457 0.74997 0.0
C2390 C 0.75971 0.96518 0.74077 0.0
C2391 C 0.76865 0.99299 0.74011 0.0
C2392 C 0.77211 0.95351 0.7586 0.0
C2393 C 0.79229 1.0077 0.75374 0.0
C2394 C 0.80532 0.99584 0.77088 0.0
C2395 C 0.8049 0.95935 0.7955 0.0
C2396 C 0.79293 0.93379 0.80032 0.0
C2397 C 0.79456 0.96943 0.7747 0.0
C2398 C 0.77165 0.91729 0.78316 0.0
C2399 C 0.76126 0.9271 0.76233 0.0
H2400 H 0.7541 0.90361 0.50181 0.0
H2401 H 0.76925 0.94228 0.58749 0.0
H2402 H 0.73768 0.96867 0.58261 0.0
H2403 H 0.70979 0.98491 0.55291 0.0
H2404 H 0.69843 0.95036 0.46637 0.0
H2405 H 0.72423 0.91798 0.47246 0.0
C2406 C 0.75001 0.91735 0.51948 0.0
C2407 C 0.76378 0.92099 0.54501 0.0
C2408 C 0.73272 0.93338 0.51623 0.0
C2409 C 0.75878 0.93922 0.56768 0.0
C2410 C 0.74083 0.95434 0.56487 0.0
C2411 C 0.71255 0.96982 0.53555 0.0
C2412 C 0.70225 0.96978 0.5093 0.0
C2413 C 0.72825 0.95221 0.5391 0.0
C2414 C 0.70623 0.95059 0.48677 0.0
C2415 C 0.72101 0.9322 0.49025 0.0
H2416 H 0.42521 0.45662 0.77915 0.0
H2417 H 0.36301 0.49154 0.76204 0.0
H2418 H 0.33352 0.44729 0.76231 0.0
H2419 H 0.32536 0.39702 0.7672 0.0
H2420 H 0.39026 0.36556 0.78441 0.0
H2421 H 0.41768 0.40934 0.78459 0.0
C2422 C 0.40521 0.45489 0.77541 0.0
C2423 C 0.39682 0.47809 0.77047 0.0
C2424 C 0.38835 0.42939 0.77577 0.0
C2425 C 0.37051 0.4746 0.76601 0.0
C2426 C 0.3535 0.44901 0.76613 0.0
C2427 C 0.34543 0.39963 0.7711 0.0
C2428 C 0.355 0.37676 0.77578 0.0
C2429 C 0.36212 0.42594 0.771 0.0
C2430 C 0.38147 0.38168 0.78064 0.0
C2431 C 0.39761 0.40716 0.78075 0.0
H2432 H 0.25997 0.61974 0.2411 0.0
H2433 H 0.19213 0.64043 0.21301 0.0
H2434 H 0.21263 0.68941 0.22738 0.0
H2435 H 0.24807 0.72616 0.25261 0.0
H2436 H 0.31509 0.70575 0.2825 0.0
H2437 H 0.29653 0.65659 0.26317 0.0
C2438 C 0.24974 0.6349 0.23768 0.0
C2439 C 0.22439 0.62639 0.22639 0.0
C2440 C 0.26135 0.66299 0.24679 0.0
C2441 C 0.21155 0.64638 0.22193 0.0
C2442 C 0.22318 0.6744 0.23032 0.0
C2443 C 0.25865 0.71084 0.25437 0.0
C2444 C 0.28299 0.71914 0.26808 0.0
C2445 C 0.24774 0.68287 0.24357 0.0
C2446 C 0.2964 0.69946 0.2715 0.0
C2447 C 0.28582 0.67152 0.26045 0.0
H2448 H 0.53487 0.69659 0.51193 0.0
H2449 H 0.54048 0.67081 0.42588 0.0
H2450 H 0.55256 0.62971 0.43348 0.0
H2451 H 0.55948 0.599 0.4633 0.0
H2452 H 0.55198 0.62117 0.54894 0.0
H2453 H 0.54303 0.66504 0.54292 0.0
C2454 C 0.53867 0.68195 0.49486 0.0
C2455 C 0.53623 0.68707 0.46812 0.0
C2456 C 0.54537 0.65739 0.4993 0.0
C2457 C 0.54152 0.66759 0.44651 0.0
C2458 C 0.54865 0.64393 0.45085 0.0
C2459 C 0.55617 0.61355 0.4808 0.0
C2460 C 0.55684 0.60669 0.50663 0.0
C2461 C 0.55032 0.63834 0.47697 0.0
C2462 C 0.55221 0.6259 0.52891 0.0
C2463 C 0.5468 0.65099 0.52535 0.0
H2464 H 0.70587 0.36281 0.68029 0.0
H2465 H 0.6789 0.27954 0.63336 0.0
H2466 H 0.71128 0.26493 0.65851 0.0
H2467 H 0.74793 0.27576 0.69359 0.0
H2468 H 0.77435 0.35868 0.74168 0.0
H2469 H 0.74262 0.37359 0.71583 0.0
C2470 C 0.70728 0.34154 0.67542 0.0
C2471 C 0.69018 0.32242 0.65446 0.0
C2472 C 0.72627 0.33325 0.68996 0.0
C2473 C 0.69214 0.29485 0.64878 0.0
C2474 C 0.71065 0.28644 0.66329 0.0
C2475 C 0.7469 0.29711 0.69842 0.0
C2476 C 0.76377 0.31605 0.71972 0.0
C2477 C 0.72803 0.30546 0.6838 0.0
C2478 C 0.76169 0.34359 0.72556 0.0
C2479 C 0.74344 0.35215 0.71075 0.0
H2480 H 0.01826 0.3752 0.93733 0.0
H2481 H 0.05331 0.3603 0.01001 0.0
H2482 H 0.0608 0.40972 0.03188 0.0
H2483 H 0.06189 0.45883 0.02765 0.0
H2484 H 0.02789 0.4709 0.95279 0.0
H2485 H 0.01532 0.4214 0.93486 0.0
C2486 C 0.02725 0.38255 0.95816 0.0
C2487 C 0.03536 0.36383 0.97179 0.0
C2488 C 0.03174 0.41087 0.97031 0.0
C2489 C 0.04674 0.374 0.99891 0.0
C2490 C 0.05119 0.40242 0.01135 0.0
C2491 C 0.05096 0.45048 0.00785 0.0
C2492 C 0.04531 0.46882 0.99184 0.0
C2493 C 0.04436 0.42135 0.99698 0.0
C2494 C 0.03205 0.45747 0.96576 0.0
C2495 C 0.025 0.42906 0.95534 0.0
H2496 H 0.0545 0.8033 0.20575 0.0
H2497 H 0.03085 0.81098 0.12478 0.0
H2498 H 0.98713 0.80284 0.1349 0.0
H2499 H 0.95521 0.78961 0.1656 0.0
H2500 H 0.97934 0.78294 0.24659 0.0
H2501 H 0.02333 0.79445 0.23761 0.0
C2502 C 0.03987 0.80342 0.19029 0.0
C2503 C 0.04605 0.80741 0.16435 0.0
C2504 C 0.01482 0.79869 0.19624 0.0
C2505 C 0.02673 0.80783 0.14483 0.0
C2506 C 1.00168 0.80307 0.15059 0.0
C2507 C 0.97021 0.79117 0.18135 0.0
C2508 C 0.9642 0.78555 0.20675 0.0
C2509 C 0.99545 0.79791 0.17602 0.0
C2510 C 0.98364 0.7875 0.22705 0.0
C2511 C 0.00873 0.79391 0.22183 0.0
H2512 H 0.49672 0.3247 0.10035 0.0
H2513 H 0.56253 0.29179 0.1009 0.0
H2514 H 0.58164 0.32216 0.07228 0.0
H2515 H 0.57897 0.35646 0.04558 0.0
H2516 H 0.51241 0.38793 0.04215 0.0
H2517 H 0.49416 0.35978 0.07325 0.0
C2518 C 0.51524 0.32443 0.09418 0.0
C2519 C 0.52823 0.30608 0.10223 0.0
C2520 C 0.5258 0.34136 0.07699 0.0
C2521 C 0.5522 0.30565 0.09439 0.0
C2522 C 0.56311 0.32294 0.0781 0.0
C2523 C 0.5603 0.35678 0.05126 0.0
C2524 C 0.54693 0.37387 0.04135 0.0
C2525 C 0.54988 0.34045 0.06883 0.0
C2526 C 0.52304 0.37479 0.04954 0.0
C2527 C 0.5126 0.35875 0.06731 0.0
H2528 H 0.06603 0.39039 0.34702 0.0
H2529 H 0.04071 0.31449 0.37359 0.0
H2530 H 0.99787 0.31056 0.35409 0.0
H2531 H 0.97071 0.32285 0.32007 0.0
H2532 H 0.99768 0.39619 0.29008 0.0
H2533 H 0.03663 0.40749 0.32079 0.0
C2534 C 0.05103 0.37327 0.349 0.0
C2535 C 0.05657 0.35219 0.36063 0.0
C2536 C 0.02678 0.37065 0.33692 0.0
C2537 C 0.03693 0.33065 0.36406 0.0
C2538 C 0.01246 0.32833 0.35284 0.0
C2539 C 0.98481 0.3418 0.32115 0.0
C2540 C 0.98186 0.35859 0.30286 0.0
C2541 C 0.00756 0.3473 0.33777 0.0
C2542 C 0.99998 0.38304 0.30403 0.0
C2543 C 0.02221 0.38933 0.32138 0.0
H2544 H 0.99066 0.64024 0.64478 0.0
H2545 H 0.99702 0.69193 0.58601 0.0
H2546 H 0.01447 0.6594 0.55561 0.0
H2547 H 0.03642 0.62248 0.55112 0.0
H2548 H 0.02773 0.56828 0.60725 0.0
H2549 H 0.00388 0.5967 0.6344 0.0
C2550 C 0.99505 0.64385 0.62491 0.0
C2551 C 0.99356 0.66885 0.61816 0.0
C2552 C 0.00573 0.62545 0.60778 0.0
C2553 C 0.99847 0.67302 0.592 0.0
C2554 C 0.00885 0.65467 0.57471 0.0
C2555 C 0.02849 0.61618 0.56854 0.0
C2556 C 0.03397 0.59355 0.57721 0.0
C2557 C 0.01399 0.63182 0.58327 0.0
C2558 C 0.02441 0.58628 0.60066 0.0
C2559 C 0.01043 0.60218 0.61592 0.0
H2560 H 0.67547 0.80512 0.81629 0.0
H2561 H 0.71793 0.81529 0.89457 0.0
H2562 H 0.75651 0.81749 0.87285 0.0
H2563 H 0.77787 0.81849 0.83243 0.0
H2564 H 0.73652 0.80829 0.75392 0.0
H2565 H 0.69706 0.80456 0.77514 0.0
C2566 C 0.69317 0.80766 0.82854 0.0
C2567 C 0.69412 0.81039 0.85691 0.0
C2568 C 0.71515 0.80942 0.81607 0.0
C2569 C 0.71692 0.81324 0.87265 0.0
C2570 C 0.73892 0.81474 0.86035 0.0
C2571 C 0.76021 0.81584 0.82012 0.0
C2572 C 0.75953 0.81372 0.792 0.0
C2573 C 0.73819 0.81341 0.83227 0.0
C2574 C 0.73692 0.80998 0.77576 0.0
C2575 C 0.71462 0.80772 0.78782 0.0
H2576 H 0.51894 0.56193 0.70622 0.0
H2577 H 0.44906 0.57102 0.66966 0.0
H2578 H 0.46517 0.56691 0.62522 0.0
H2579 H 0.49895 0.55963 0.59474 0.0
H2580 H 0.56893 0.55049 0.63085 0.0
H2581 H 0.5531 0.55511 0.67557 0.0
C2582 C 0.50709 0.56313 0.68867 0.0
C2583 C 0.48223 0.56686 0.69245 0.0
C2584 C 0.51662 0.56039 0.66215 0.0
C2585 C 0.46791 0.56805 0.66846 0.0
C2586 C 0.47726 0.56566 0.64256 0.0
C2587 C 0.51093 0.55863 0.61228 0.0
C2588 C 0.53568 0.55475 0.60834 0.0
C2589 C 0.50155 0.56158 0.6388 0.0
C2590 C 0.55019 0.55374 0.63225 0.0
C2591 C 0.54096 0.55634 0.65828 0.0
H2592 H 0.81547 0.20969 0.96693 0.0
H2593 H 0.77273 0.13099 0.91915 0.0
H2594 H 0.75944 0.15338 0.88416 0.0
H2595 H 0.75355 0.19604 0.87198 0.0
H2596 H 0.79514 0.27474 0.92039 0.0
H2597 H 0.8154 0.25171 0.95054 0.0
C2598 C 0.80382 0.19739 0.94847 0.0
C2599 C 0.79455 0.16894 0.94581 0.0
C2600 C 0.79563 0.21047 0.92898 0.0
C2601 C 0.77991 0.15302 0.92168 0.0
C2602 C 0.77208 0.16583 0.90183 0.0
C2603 C 0.76737 0.20797 0.88892 0.0
C2604 C 0.77262 0.2368 0.89457 0.0
C2605 C 0.77872 0.19463 0.90606 0.0
C2606 C 0.7908 0.25241 0.91606 0.0
C2607 C 0.80231 0.23929 0.93322 0.0
H2608 H 0.18162 0.51796 0.13956 0.0
H2609 H 0.12283 0.48083 0.18275 0.0
H2610 H 0.09089 0.48557 0.14866 0.0
H2611 H 0.08046 0.5045 0.10847 0.0
H2612 H 0.14216 0.5502 0.07411 0.0
H2613 H 0.17195 0.53826 0.10305 0.0
C2614 C 0.16184 0.51028 0.14128 0.0
C2615 C 0.15449 0.49888 0.16328 0.0
C2616 C 0.14402 0.51511 0.12333 0.0
C2617 C 0.12879 0.48948 0.16558 0.0
C2618 C 0.11061 0.4925 0.14637 0.0
C2619 C 0.1004 0.51178 0.10743 0.0
C2620 C 0.10878 0.52743 0.08835 0.0
C2621 C 0.11808 0.5061 0.12553 0.0
C2622 C 0.13476 0.53727 0.08768 0.0
C2623 C 0.15212 0.53057 0.10441 0.0
H2624 H 0.833 0.83291 0.44843 0.0
H2625 H 0.80699 0.90559 0.44086 0.0
H2626 H 0.80429 0.89248 0.39203 0.0
H2627 H 0.81199 0.86351 0.35164 0.0
H2628 H 0.82924 0.78564 0.3543 0.0
H2629 H 0.83399 0.79825 0.40472 0.0
C2630 C 0.82668 0.84574 0.43603 0.0
C2631 C 0.82122 0.8709 0.44873 0.0
C2632 C 0.82442 0.83768 0.40709 0.0
C2633 C 0.81229 0.88673 0.43213 0.0
C2634 C 0.81063 0.87927 0.40397 0.0
C2635 C 0.81671 0.84901 0.36304 0.0
C2636 C 0.82157 0.82429 0.34916 0.0
C2637 C 0.81727 0.85533 0.39136 0.0
C2638 C 0.82681 0.80554 0.36449 0.0
C2639 C 0.82904 0.81258 0.39331 0.0
H2640 H 0.52763 0.55282 0.86156 0.0
H2641 H 0.46056 0.57827 0.88383 0.0
H2642 H 0.47122 0.575 0.9311 0.0
H2643 H 0.49937 0.56427 0.96729 0.0
H2644 H 0.56789 0.54211 0.94564 0.0
H2645 H 0.5568 0.5443 0.89818 0.0
C2646 C 0.51523 0.55799 0.87662 0.0
C2647 C 0.49297 0.56614 0.86791 0.0
C2648 C 0.52174 0.55621 0.90452 0.0
C2649 C 0.47776 0.57237 0.8888 0.0
C2650 C 0.48391 0.57027 0.91623 0.0
C2651 C 0.51204 0.55977 0.95232 0.0
C2652 C 0.53449 0.55205 0.96108 0.0
C2653 C 0.50579 0.56209 0.92454 0.0
C2654 C 0.5503 0.5471 0.94048 0.0
C2655 C 0.54394 0.54871 0.91296 0.0
H2656 H 0.82049 0.18713 0.12039 0.0
H2657 H 0.75165 0.20215 0.08815 0.0
H2658 H 0.75411 0.23988 0.12804 0.0
H2659 H 0.77406 0.26483 0.17434 0.0
H2660 H 0.84243 0.24819 0.20598 0.0
H2661 H 0.84239 0.21482 0.16389 0.0
C2662 C 0.80635 0.19909 0.1221 0.0
C2663 C 0.78597 0.19242 0.1021 0.0
C2664 C 0.80787 0.22019 0.14482 0.0
C2665 C 0.76747 0.20747 0.10383 0.0
C2666 C 0.76887 0.22881 0.12648 0.0
C2667 C 0.78911 0.25425 0.17147 0.0
C2668 C 0.80818 0.25847 0.19262 0.0
C2669 C 0.78871 0.23489 0.1474 0.0
C2670 C 0.82764 0.24483 0.18951 0.0
C2671 C 0.82759 0.22584 0.16563 0.0
H2672 H 0.13473 0.52626 0.30648 0.0
H2673 H 0.20991 0.5772 0.32874 0.0
H2674 H 0.20062 0.59126 0.37585 0.0
H2675 H 0.16856 0.59512 0.40765 0.0
H2676 H 0.09266 0.5459 0.38308 0.0
H2677 H 0.10505 0.52411 0.34035 0.0
C2678 C 0.1492 0.53993 0.3219 0.0
C2679 C 0.17268 0.55121 0.31444 0.0
C2680 C 0.14355 0.54821 0.34844 0.0
C2681 C 0.19162 0.56847 0.33432 0.0
C2682 C 0.18624 0.57661 0.36109 0.0
C2683 C 0.15486 0.57935 0.39307 0.0
C2684 C 0.12963 0.57264 0.39831 0.0
C2685 C 0.16186 0.56762 0.36796 0.0
C2686 C 0.11221 0.55154 0.37965 0.0
C2687 C 0.11919 0.53923 0.35502 0.0
H2688 H 0.81832 0.8832 0.63926 0.0
H2689 H 0.8235 0.80535 0.5901 0.0
H2690 H 0.81493 0.78345 0.62884 0.0
H2691 H 0.80853 0.7874 0.67764 0.0
H2692 H 0.80372 0.86555 0.72627 0.0
H2693 H 0.80923 0.8864 0.68662 0.0
C2694 C 0.81768 0.86143 0.63698 0.0
C2695 C 0.82201 0.84603 0.61193 0.0
C2696 C 0.8126 0.84905 0.6592 0.0
C2697 C 0.82051 0.81773 0.60921 0.0
C2698 C 0.81555 0.80521 0.63134 0.0
C2699 C 0.80805 0.80879 0.67932 0.0
C2700 C 0.80558 0.82493 0.70476 0.0
C2701 C 0.8118 0.82075 0.65653 0.0
C2702 C 0.80566 0.85281 0.70689 0.0
C2703 C 0.80891 0.86472 0.68427 0.0
H2704 H 0.73649 0.45043 0.50248 0.0
H2705 H 0.80126 0.51951 0.52378 0.0
H2706 H 0.77486 0.55001 0.54107 0.0
H2707 H 0.73538 0.55458 0.559 0.0
H2708 H 0.67064 0.48589 0.53937 0.0
H2709 H 0.69481 0.45768 0.51192 0.0
C2710 C 0.74465 0.47227 0.51029 0.0
C2711 C 0.77075 0.48255 0.51292 0.0
C2712 C 0.72945 0.48962 0.52078 0.0
C2713 C 0.78119 0.511 0.5223 0.0
C2714 C 0.76616 0.52848 0.53224 0.0
C2715 C 0.72657 0.5336 0.54815 0.0
C2716 C 0.70184 0.52173 0.55158 0.0
C2717 C 0.7406 0.51763 0.53306 0.0
C2718 C 0.68999 0.49495 0.53716 0.0
C2719 C 0.70377 0.47892 0.52164 0.0
H2720 H 0.2277 0.11627 0.4944 0.0
H2721 H 0.19877 0.18875 0.49753 0.0
H2722 H 0.157 0.16251 0.50308 0.0
H2723 H 0.12893 0.119 0.50803 0.0
H2724 H 0.1595 0.04805 0.50857 0.0
H2725 H 0.20024 0.07359 0.50047 0.0
C2726 C 0.21224 0.12633 0.49608 0.0
C2727 C 0.21635 0.15442 0.49539 0.0
C2728 C 0.1885 0.11133 0.49992 0.0
C2729 C 0.19611 0.16714 0.49792 0.0
C2730 C 0.17224 0.15215 0.50116 0.0
C2731 C 0.1445 0.1091 0.50636 0.0
C2732 C 0.14082 0.08124 0.50811 0.0
C2733 C 0.16825 0.12425 0.50241 0.0
C2734 C 0.16135 0.06897 0.50619 0.0
C2735 C 0.18484 0.08372 0.50189 0.0
H2736 H 0.26461 0.93988 0.75096 0.0
H2737 H 0.19777 0.9096 0.7869 0.0
H2738 H 0.21412 0.87077 0.79486 0.0
H2739 H 0.24796 0.84474 0.79401 0.0
H2740 H 0.31024 0.86757 0.7492 0.0
H2741 H 0.29628 0.90889 0.74386 0.0
C2742 C 0.25342 0.92494 0.7606 0.0
C2743 C 0.22945 0.92927 0.7687 0.0
C2744 C 0.26283 0.90094 0.76446 0.0
C2745 C 0.216 0.90827 0.78055 0.0
C2746 C 0.22555 0.88557 0.78525 0.0
C2747 C 0.25886 0.85856 0.78301 0.0
C2748 C 0.28206 0.85281 0.77416 0.0
C2749 C 0.24908 0.88158 0.77768 0.0
C2750 C 0.29405 0.87135 0.75871 0.0
C2751 C 0.28537 0.89517 0.75494 0.0
H2752 H 0.42499 1.00224 0.05149 0.0
H2753 H 0.41141 0.99695 0.96501 0.0
H2754 H 0.45397 0.99267 0.95922 0.0
H2755 H 0.49434 0.98834 0.97844 0.0
H2756 H 0.51116 1.00183 0.06529 0.0
H2757 H 0.46793 1.00381 0.07144 0.0
C2758 C 0.43177 1.00109 0.03161 0.0
C2759 C 0.4154 1.00027 0.00878 0.0
C2760 C 0.45669 0.99964 0.02848 0.0
C2761 C 0.42402 0.99832 0.98297 0.0
C2762 C 0.44829 0.99564 0.97957 0.0
C2763 C 0.48907 0.99302 0.99863 0.0
C2764 C 0.50631 0.99582 0.02116 0.0
C2765 C 0.46473 0.99608 1.00211 0.0
C2766 C 0.49823 0.99943 0.04739 0.0
C2767 C 0.47357 1.00097 0.05101 0.0
H2768 H 0.84669 0.56301 0.79158 0.0
H2769 H 0.90041 0.64122 0.82129 0.0
H2770 H 0.87301 0.6642 0.79931 0.0
H2771 H 0.83792 0.66058 0.76601 0.0
H2772 H 0.78458 0.58259 0.73431 0.0
H2773 H 0.80889 0.5603 0.76171 0.0
C2774 C 0.85212 0.5852 0.79387 0.0
C2775 C 0.87571 0.6004 0.80753 0.0
C2776 C 0.83698 0.59794 0.78 0.0
C2777 C 0.88241 0.62913 0.81065 0.0
C2778 C 0.86695 0.64217 0.7978 0.0
C2779 C 0.83115 0.63879 0.76558 0.0
C2780 C 0.80928 0.6232 0.74857 0.0
C2781 C 0.84487 0.62651 0.78144 0.0
C2782 C 0.80136 0.59487 0.74732 0.0
C2783 C 0.81508 0.5823 0.76313 0.0
H2784 H 0.87494 0.6682 0.05635 0.0
H2785 H 0.8601 0.62262 0.97291 0.0
H2786 H 0.89571 0.60197 0.97947 0.0
H2787 H 0.92552 0.59034 0.01161 0.0
H2788 H 0.93698 0.63277 0.09621 0.0
H2789 H 0.90871 0.66151 0.08672 0.0
C2790 C 0.88027 0.65465 0.03937 0.0
C2791 C 0.86534 0.64716 0.01411 0.0
C2792 C 0.89982 0.6418 0.0438 0.0
C2793 C 0.87176 0.62899 0.99236 0.0
C2794 C 0.89186 0.61692 0.99626 0.0
C2795 C 0.9222 0.60634 0.02774 0.0
C2796 C 0.93293 0.60928 0.05462 0.0
C2797 C 0.9052 0.62211 0.02227 0.0
C2798 C 0.92857 0.62997 0.07546 0.0
C2799 C 0.91243 0.64637 0.07003 0.0
H2800 H 0.218 0.13281 0.80157 0.0
H2801 H 0.26219 0.0886 0.75027 0.0
H2802 H 0.28983 0.13259 0.74669 0.0
H2803 H 0.30126 0.18498 0.75729 0.0
H2804 H 0.25581 0.22769 0.80847 0.0
H2805 H 0.22994 0.18381 0.81336 0.0
C2806 C 0.23381 0.1326 0.78977 0.0
C2807 C 0.23775 0.10675 0.77642 0.0
C2808 C 0.24984 0.15824 0.78787 0.0
C2809 C 0.25856 0.10765 0.76123 0.0
C2810 C 0.27443 0.13307 0.75905 0.0
C2811 C 0.28587 0.18472 0.76975 0.0
C2812 C 0.28079 0.21029 0.78252 0.0
C2813 C 0.27033 0.15872 0.77221 0.0
C2814 C 0.26036 0.20887 0.79822 0.0
C2815 C 0.24539 0.18354 0.80104 0.0
H2816 H 0.41414 0.93724 0.29895 0.0
H2817 H 0.35209 0.97564 0.29323 0.0
H2818 H 0.32228 0.93065 0.28553 0.0
H2819 H 0.31459 0.87991 0.27499 0.0
H2820 H 0.37654 0.84225 0.28407 0.0
H2821 H 0.40602 0.88751 0.29553 0.0
C2822 C 0.39408 0.93568 0.29617 0.0
C2823 C 0.38518 0.95929 0.29586 0.0
C2824 C 0.37722 0.91001 0.29215 0.0
C2825 C 0.35922 0.95745 0.29312 0.0
C2826 C 0.34224 0.93182 0.28862 0.0
C2827 C 0.33448 0.8819 0.28021 0.0
C2828 C 0.34362 0.85832 0.27943 0.0
C2829 C 0.35111 0.90792 0.28727 0.0
C2830 C 0.36935 0.86053 0.2854 0.0
C2831 C 0.38611 0.88627 0.29174 0.0
H2832 H 0.59606 0.41928 0.60719 0.0
H2833 H 0.6142 0.37616 0.53106 0.0
H2834 H 0.60678 0.41282 0.50906 0.0
H2835 H 0.59614 0.45843 0.51129 0.0
H2836 H 0.5789 0.50183 0.58762 0.0
H2837 H 0.58459 0.46424 0.60917 0.0
C2838 C 0.5984 0.41778 0.58576 0.0
C2839 C 0.6059 0.39455 0.57106 0.0
C2840 C 0.59397 0.4392 0.573 0.0
C2841 C 0.60858 0.39344 0.54318 0.0
C2842 C 0.60428 0.41456 0.53047 0.0
C2843 C 0.59321 0.45945 0.53254 0.0
C2844 C 0.58613 0.48282 0.54742 0.0
C2845 C 0.59703 0.43767 0.54511 0.0
C2846 C 0.58343 0.48394 0.57526 0.0
C2847 C 0.58694 0.46242 0.58772 0.0
H2848 H 0.45875 0.79765 0.35754 0.0
H2849 H 0.42748 0.73833 0.40396 0.0
H2850 H 0.38492 0.7362 0.38289 0.0
H2851 H 0.35648 0.75111 0.34947 0.0
H2852 H 0.39171 0.80788 0.30224 0.0
H2853 H 0.43254 0.81102 0.32547 0.0
C2854 C 0.44284 0.78398 0.36329 0.0
C2855 C 0.4468 0.76805 0.38248 0.0
C2856 C 0.41882 0.78245 0.35072 0.0
C2857 C 0.42538 0.75098 0.38947 0.0
C2858 C 0.40096 0.7497 0.37724 0.0
C2859 C 0.37315 0.7641 0.34435 0.0
C2860 C 0.3708 0.77927 0.32385 0.0
C2861 C 0.39737 0.76529 0.35757 0.0
C2862 C 0.39274 0.79584 0.31753 0.0
C2863 C 0.41623 0.79772 0.33093 0.0
H2864 H 0.08237 0.71392 0.05605 0.0
H2865 H 0.14271 0.72149 0.11867 0.0
H2866 H 0.13732 0.67209 0.1087 0.0
H2867 H 0.11211 0.62602 0.08716 0.0
H2868 H 0.05594 0.6156 0.01999 0.0
H2869 H 0.06251 0.66601 0.02706 0.0
C2870 C 0.09472 0.70483 0.06703 0.0
C2871 C 0.11249 0.72192 0.08882 0.0
C2872 C 0.09196 0.67557 0.06075 0.0
C2873 C 0.12835 0.70928 0.10243 0.0
C2874 C 0.12534 0.68078 0.09677 0.0
C2875 C 0.10209 0.63473 0.07321 0.0
C2876 C 0.08424 0.61689 0.05247 0.0
C2877 C 0.1067 0.66364 0.07672 0.0
C2878 C 0.07053 0.62874 0.0355 0.0
C2879 C 0.07414 0.65769 0.03975 0.0
H2880 H 0.11828 0.30823 0.92193 0.0
H2881 H 0.0782 0.23655 0.86141 0.0
H2882 H 0.11177 0.24352 0.83212 0.0
H2883 H 0.15046 0.27272 0.82141 0.0
H2884 H 0.18989 0.34548 0.88061 0.0
H2885 H 0.1589 0.33559 0.91257 0.0
C2886 C 0.11709 0.29396 0.90249 0.0
C2887 C 0.09559 0.27202 0.89376 0.0
C2888 C 0.1363 0.29851 0.88534 0.0
C2889 C 0.09435 0.25378 0.86847 0.0
C2890 C 0.11356 0.25776 0.85168 0.0
C2891 C 0.15245 0.28605 0.84153 0.0
C2892 C 0.17245 0.30968 0.84879 0.0
C2893 C 0.1343 0.28045 0.85954 0.0
C2894 C 0.17476 0.32704 0.87476 0.0
C2895 C 0.15696 0.32144 0.89294 0.0
H2896 H 0.63048 0.77366 0.96373 0.0
H2897 H 0.56351 0.7455 0.90623 0.0
H2898 H 0.5444 0.71416 0.93436 0.0
H2899 H 0.54565 0.69831 0.97765 0.0
H2900 H 0.61317 0.72605 0.03412 0.0
H2901 H 0.6334 0.75447 1.00406 0.0
C2902 C 0.61171 0.7606 0.95734 0.0
C2903 C 0.59803 0.76228 0.93352 0.0
C2904 C 0.60095 0.74306 0.9736 0.0
C2905 C 0.57414 0.74468 0.9248 0.0
C2906 C 0.56322 0.72696 0.94091 0.0
C2907 C 0.56469 0.71087 0.9833 0.0
C2908 C 0.5778 0.71125 0.00824 0.0
C2909 C 0.57617 0.72668 0.96578 0.0
C2910 C 0.60274 0.72641 0.01524 0.0
C2911 C 0.61426 0.74238 0.99806 0.0
H2912 H 0.09698 0.74533 0.66405 0.0
H2913 H 0.06722 0.77512 0.73861 0.0
H2914 H 0.09953 0.76234 0.7652 0.0
H2915 H 0.13599 0.74241 0.76731 0.0
H2916 H 0.16668 0.71365 0.69332 0.0
H2917 H 0.13395 0.72589 0.66626 0.0
C2918 C 0.09776 0.74925 0.68612 0.0
C2919 C 0.07981 0.76107 0.69936 0.0
C2920 C 0.11621 0.74159 0.70129 0.0
C2921 C 0.0809 0.766 0.72797 0.0
C2922 C 0.09924 0.75857 0.74319 0.0
C2923 C 0.1351 0.73833 0.74522 0.0
C2924 C 0.15318 0.72674 0.73212 0.0
C2925 C 0.11678 0.74607 0.73004 0.0
C2926 C 0.15255 0.72225 0.70361 0.0
C2927 C 0.13405 0.72943 0.68824 0.0
H2928 H 0.11577 0.39217 0.45413 0.0
H2929 H 0.17495 0.4472 0.42571 0.0
H2930 H 0.15745 0.48631 0.44485 0.0
H2931 H 0.12233 0.50355 0.46514 0.0
H2932 H 0.06227 0.44661 0.48979 0.0
H2933 H 0.08218 0.40881 0.47457 0.0
C2934 C 0.12531 0.41274 0.45251 0.0
C2935 C 0.14653 0.41672 0.43828 0.0
C2936 C 0.11414 0.43442 0.46146 0.0
C2937 C 0.15855 0.44361 0.43657 0.0
C2938 C 0.14829 0.46584 0.44702 0.0
C2939 C 0.11351 0.48268 0.46652 0.0
C2940 C 0.09067 0.47736 0.47771 0.0
C2941 C 0.12545 0.46122 0.45839 0.0
C2942 C 0.07954 0.45068 0.4804 0.0
C2943 C 0.09113 0.42929 0.47225 0.0
H2944 H 0.43664 0.23191 0.23848 0.0
H2945 H 0.45534 0.29381 0.19075 0.0
H2946 H 0.41813 0.31 0.20182 0.0
H2947 H 0.3774 0.30149 0.21873 0.0
H2948 H 0.36065 0.24544 0.27215 0.0
H2949 H 0.39933 0.23015 0.26352 0.0
C2950 C 0.43271 0.24918 0.23088 0.0
C2951 C 0.44803 0.26103 0.21305 0.0
C2952 C 0.4115 0.25875 0.23764 0.0
C2953 C 0.44318 0.28374 0.20371 0.0
C2954 C 0.42202 0.29308 0.21004 0.0
C2955 C 0.38306 0.2873 0.22979 0.0
C2956 C 0.3673 0.27556 0.24693 0.0
C2957 C 0.40567 0.28006 0.2261 0.0
C2958 C 0.37344 0.2554 0.25963 0.0
C2959 C 0.39534 0.24665 0.25464 0.0
H2960 H 0.60688 0.50327 0.35125 0.0
H2961 H 0.6843 0.54059 0.38197 0.0
H2962 H 0.67283 0.54726 0.42898 0.0
H2963 H 0.63987 0.54391 0.46298 0.0
H2964 H 0.56365 0.50191 0.43053 0.0
H2965 H 0.57544 0.49583 0.3846 0.0
C2966 C 0.62152 0.51264 0.36809 0.0
C2967 C 0.64683 0.52123 0.36187 0.0
C2968 C 0.61477 0.51586 0.39576 0.0
C2969 C 0.66485 0.53327 0.38501 0.0
C2970 C 0.65812 0.53729 0.41235 0.0
C2971 C 0.62568 0.53321 0.44605 0.0
C2972 C 0.60008 0.52401 0.45176 0.0
C2973 C 0.63301 0.52887 0.41833 0.0
C2974 C 0.583 0.51002 0.4283 0.0
C2975 C 0.58991 0.50634 0.40134 0.0
H2976 H 0.33877 0.92683 0.11033 0.0
H2977 H 0.33426 0.85854 0.04223 0.0
H2978 H 0.34368 0.83026 0.0733 0.0
H2979 H 0.35754 0.82651 0.11939 0.0
H2980 H 0.36292 0.89453 0.18756 0.0
H2981 H 0.34841 0.92134 0.15704 0.0
C2982 C 0.33954 0.90566 0.10238 0.0
C2983 C 0.33617 0.89492 0.07408 0.0
C2984 C 0.34515 0.88952 0.12035 0.0
C2985 C 0.33691 0.86735 0.06397 0.0
C2986 C 0.34236 0.85115 0.08169 0.0
C2987 C 0.35502 0.84702 0.12745 0.0
C2988 C 0.36117 0.85882 0.15533 0.0
C2989 C 0.34714 0.86226 0.10981 0.0
C2990 C 0.35815 0.88533 0.16597 0.0
C2991 C 0.35 0.90058 0.14857 0.0
H2992 H 0.96632 0.56275 0.89472 0.0
H2993 H 0.03439 0.58868 0.8591 0.0
H2994 H 0.05947 0.59427 0.90271 0.0
H2995 H 0.06192 0.58255 0.94717 0.0
H2996 H 0.99367 0.5481 0.97897 0.0
H2997 H 0.96866 0.55565 0.94108 0.0
C2998 C 0.98657 0.57057 0.89693 0.0
C2999 C 0.99875 0.57516 0.87421 0.0
C3000 C 1.00077 0.57162 0.92121 0.0
C3001 C 0.02492 0.58495 0.8767 0.0
C3002 C 0.03916 0.58793 0.90144 0.0
C3003 C 0.0416 0.57681 0.94589 0.0
C3004 C 0.02971 0.56393 0.96528 0.0
C3005 C 0.02732 0.57972 0.92326 0.0
C3006 C 1.00335 0.55748 0.96393 0.0
C3007 C 0.98897 0.56182 0.94228 0.0
H3008 H 0.31033 0.25586 0.60494 0.0
H3009 H 0.26414 0.17591 0.60735 0.0
H3010 H 0.26563 0.18942 0.6562 0.0
H3011 H 0.28404 0.22108 0.69911 0.0
H3012 H 0.32641 0.30283 0.69942 0.0
H3013 H 0.32279 0.29151 0.64915 0.0
C3014 C 0.30041 0.24155 0.61614 0.0
C3015 C 0.2879 0.21448 0.60216 0.0
C3016 C 0.30085 0.24962 0.64491 0.0
C3017 C 0.27469 0.19654 0.61722 0.0
C3018 C 0.27538 0.20422 0.64538 0.0
C3019 C 0.29166 0.23673 0.6881 0.0
C3020 C 0.3049 0.26282 0.70277 0.0
C3021 C 0.289 0.23027 0.65949 0.0
C3022 C 0.31545 0.28276 0.68841 0.0
C3023 C 0.31359 0.27616 0.65969 0.0
H3024 H 0.61215 0.50987 0.18669 0.0
H3025 H 0.68977 0.53314 0.17228 0.0
H3026 H 0.67696 0.5437 0.12925 0.0
H3027 H 0.64419 0.54536 0.09316 0.0
H3028 H 0.56634 0.52412 0.10614 0.0
H3029 H 0.57852 0.5139 0.15035 0.0
C3030 C 0.62644 0.5171 0.17425 0.0
C3031 C 0.65253 0.51997 0.18397 0.0
C3032 C 0.61874 0.52369 0.14836 0.0
C3033 C 0.66984 0.52993 0.16646 0.0
C3034 C 0.66241 0.53622 0.14133 0.0
C3035 C 0.62966 0.5389 0.10568 0.0
C3036 C 0.60399 0.53618 0.09534 0.0
C3037 C 0.63698 0.53309 0.13172 0.0
C3038 C 0.58612 0.52729 0.11276 0.0
C3039 C 0.59325 0.52112 0.13839 0.0
H3040 H 0.32469 0.87072 0.94253 0.0
H3041 H 0.37217 0.93426 0.9112 0.0
H3042 H 0.3793 0.89946 0.8733 0.0
H3043 H 0.36732 0.85291 0.84658 0.0
H3044 H 0.31379 0.79037 0.87301 0.0
H3045 H 0.31502 0.82247 0.91665 0.0
C3046 C 0.33673 0.87678 0.92744 0.0
C3047 C 0.34752 0.90479 0.929 0.0
C3048 C 0.33979 0.85689 0.90526 0.0
C3049 C 0.36324 0.91274 0.90974 0.0
C3050 C 0.3675 0.89291 0.88837 0.0
C3051 C 0.35588 0.84605 0.8618 0.0
C3052 C 0.33903 0.81994 0.85586 0.0
C3053 C 0.35513 0.86513 0.8855 0.0
C3054 C 0.32579 0.81091 0.87656 0.0
C3055 C 0.32646 0.82928 0.90142 0.0
H3056 H 0.93131 0.5289 0.70066 0.0
H3057 H 1.00009 0.57736 0.74935 0.0
H3058 H 0.02433 0.56338 0.71262 0.0
H3059 H 0.02657 0.53185 0.66991 0.0
H3060 H 0.95843 0.48152 0.62171 0.0
H3061 H 0.9333 0.50217 0.65465 0.0
C3062 C 0.95151 0.53695 0.70288 0.0
C3063 C 0.96392 0.55371 0.72776 0.0
C3064 C 0.96549 0.5283 0.68186 0.0
C3065 C 0.99012 0.56413 0.73042 0.0
C3066 C 0.00405 0.5561 0.70948 0.0
C3067 C 0.00621 0.526 0.66626 0.0
C3068 C 0.99428 0.50504 0.64375 0.0
C3069 C 0.99202 0.53735 0.68557 0.0
C3070 C 0.96792 0.49739 0.63925 0.0
C3071 C 0.9536 0.50914 0.65804 0.0
H3072 H 0.30844 0.2003 0.40839 0.0
H3073 H 0.3207 0.28168 0.45992 0.0
H3074 H 0.32705 0.30206 0.42002 0.0
H3075 H 0.32624 0.29651 0.37019 0.0
H3076 H 0.31418 0.21503 0.31879 0.0
H3077 H 0.31013 0.19496 0.35894 0.0
C3078 C 0.31268 0.22253 0.411 0.0
C3079 C 0.31395 0.23941 0.43724 0.0
C3080 C 0.31611 0.23408 0.38792 0.0
C3081 C 0.31945 0.26817 0.44006 0.0
C3082 C 0.32307 0.27983 0.4172 0.0
C3083 C 0.32349 0.27443 0.36771 0.0
C3084 C 0.32098 0.25741 0.34132 0.0
C3085 C 0.32114 0.26297 0.39098 0.0
C3086 C 0.31636 0.22871 0.33872 0.0
C3087 C 0.31401 0.21719 0.36173 0.0
H3088 H 0.36751 0.61421 0.52868 0.0
H3089 H 0.32782 0.54522 0.5591 0.0
H3090 H 0.35662 0.5179 0.54021 0.0
H3091 H 0.39043 0.51247 0.51126 0.0
H3092 H 0.42941 0.58136 0.48064 0.0
H3093 H 0.4027 0.60991 0.50264 0.0
C3094 C 0.36524 0.59325 0.5314 0.0
C3095 C 0.34528 0.58145 0.54464 0.0
C3096 C 0.38109 0.5775 0.51967 0.0
C3097 C 0.34298 0.55462 0.54875 0.0
C3098 C 0.3592 0.53891 0.53767 0.0
C3099 C 0.39256 0.53356 0.50901 0.0
C3100 C 0.41089 0.54473 0.49363 0.0
C3101 C 0.37765 0.54984 0.52222 0.0
C3102 C 0.41464 0.57235 0.49169 0.0
C3103 C 0.39971 0.58865 0.50454 0.0
H3104 H 0.92527 0.92387 0.53927 0.0
H3105 H 0.90476 0.99966 0.57288 0.0
H3106 H 0.94825 0.02533 0.5763 0.0
H3107 H 0.99108 0.02721 0.56543 0.0
H3108 H 0.01202 0.95248 0.52924 0.0
H3109 H 0.96988 0.92557 0.53176 0.0
C3110 C 0.93048 0.94587 0.5479 0.0
C3111 C 0.91171 0.95979 0.55571 0.0
C3112 C 0.95567 0.96084 0.54917 0.0
C3113 C 0.91876 0.98842 0.56656 0.0
C3114 C 0.94367 1.00318 0.5685 0.0
C3115 C 0.98668 1.00508 0.55837 0.0
C3116 C 0.00484 0.9922 0.54678 0.0
C3117 C 0.96215 0.98977 0.55916 0.0
C3118 C 0.99851 0.96322 0.53805 0.0
C3119 C 0.97428 0.94772 0.53939 0.0
H3120 H 0.87423 0.13745 0.24359 0.0
H3121 H 0.92808 0.17813 0.31386 0.0
H3122 H 0.9103 0.21859 0.31902 0.0
H3123 H 0.88039 0.24511 0.30314 0.0
H3124 H 0.8307 0.20755 0.2295 0.0
H3125 H 0.84491 0.16497 0.22684 0.0
C3126 C 0.88218 0.15496 0.26028 0.0
C3127 C 0.90308 0.15333 0.27847 0.0
C3128 C 0.87185 0.17945 0.26301 0.0
C3129 C 0.91241 0.17746 0.29935 0.0
C3130 C 0.902 0.20111 0.30242 0.0
C3131 C 0.87168 0.2273 0.28703 0.0
C3132 C 0.85172 0.22987 0.26827 0.0
C3133 C 0.88166 0.20269 0.28447 0.0
C3134 C 0.84354 0.20652 0.24623 0.0
C3135 C 0.85251 0.18189 0.24419 0.0
H3136 H 0.70323 0.14313 0.03725 0.0
H3137 H 0.7122 0.05969 0.01477 0.0
H3138 H 0.66891 0.04197 0.02275 0.0
H3139 H 0.62848 0.05033 0.03006 0.0
H3140 H 0.61771 0.13256 0.05283 0.0
H3141 H 0.66261 0.15121 0.05051 0.0
C3142 C 0.69569 0.12106 0.03408 0.0
C3143 C 0.71053 0.1026 0.0247 0.0
C3144 C 0.67086 0.11106 0.03862 0.0
C3145 C 0.7009 0.07417 0.02147 0.0
C3146 C 0.67626 0.06408 0.02604 0.0
C3147 C 0.63571 0.07219 0.03548 0.0
C3148 C 0.61973 0.0899 0.04199 0.0
C3149 C 0.66102 0.08236 0.03386 0.0
C3150 C 0.62977 0.11849 0.04807 0.0
C3151 C 0.6553 0.12907 0.04657 0.0
H3152 H 0.23842 0.45046 0.2366 0.0
H3153 H 0.29713 0.52516 0.25084 0.0
H3154 H 0.32403 0.50483 0.27716 0.0
H3155 H 0.32634 0.47009 0.30446 0.0
H3156 H 0.26638 0.39674 0.29195 0.0
H3157 H 0.24394 0.4124 0.2569 0.0
C3158 C 0.25738 0.46197 0.24492 0.0
C3159 C 0.26563 0.48945 0.24292 0.0
C3160 C 0.27197 0.45078 0.26107 0.0
C3161 C 0.29038 0.50405 0.25271 0.0
C3162 C 0.30556 0.4926 0.26804 0.0
C3163 C 0.30843 0.45765 0.29383 0.0
C3164 C 0.2973 0.43303 0.30111 0.0
C3165 C 0.29579 0.46679 0.27388 0.0
C3166 C 0.27466 0.41621 0.28687 0.0
C3167 C 0.26203 0.42502 0.26682 0.0
H3168 H 0.24568 0.4014 1.00168 0.0
H3169 H 0.27851 0.46065 0.0761 0.0
H3170 H 0.24924 0.48889 0.06844 0.0
H3171 H 0.2171 0.49908 0.03822 0.0
H3172 H 0.18683 0.442 0.96195 0.0
H3173 H 0.21203 0.41048 0.97256 0.0
C3174 C 0.24609 0.42025 0.01642 0.0
C3175 C 0.26423 0.429 0.0394 0.0
C3176 C 0.22981 0.43691 0.01134 0.0
C3177 C 0.26477 0.45361 0.0582 0.0
C3178 C 0.24809 0.46979 0.0538 0.0
C3179 C 0.21587 0.47955 0.02419 0.0
C3180 C 0.20028 0.4727 0.9994 0.0
C3181 C 0.23098 0.46203 0.03009 0.0
C3182 C 0.19883 0.44754 0.98114 0.0
C3183 C 0.21323 0.42961 0.9872 0.0
H3184 H 0.92068 0.94852 0.25082 0.0
H3185 H 0.86699 0.99372 0.28146 0.0
H3186 H 0.83768 0.95002 0.28344 0.0
H3187 H 0.82772 0.89771 0.27823 0.0
H3188 H 0.88356 0.855 0.24858 0.0
H3189 H 0.91079 0.89822 0.24441 0.0
C3190 C 0.90254 0.94916 0.25784 0.0
C3191 C 0.89653 0.9752 0.26593 0.0
C3192 C 0.88576 0.9238 0.25913 0.0
C3193 C 0.87259 0.97458 0.27491 0.0
C3194 C 0.8557 0.94931 0.27612 0.0
C3195 C 0.84564 0.89775 0.27041 0.0
C3196 C 0.85312 0.87227 0.26352 0.0
C3197 C 0.86203 0.92355 0.26846 0.0
C3198 C 0.87688 0.87362 0.25403 0.0
C3199 C 0.89269 0.89861 0.25167 0.0
H3200 H 0.76297 0.12668 0.74513 0.0
H3201 H 0.69121 0.14568 0.72991 0.0
H3202 H 0.71049 0.19474 0.74702 0.0
H3203 H 0.74755 0.23212 0.76704 0.0
H3204 H 0.81904 0.21334 0.78244 0.0
H3205 H 0.79997 0.16396 0.76496 0.0
C3206 C 0.7515 0.1415 0.74548 0.0
C3207 C 0.72564 0.13248 0.73634 0.0
C3208 C 0.76262 0.16958 0.75554 0.0
C3209 C 0.71114 0.15204 0.73678 0.0
C3210 C 0.7221 0.18007 0.74671 0.0
C3211 C 0.75883 0.21706 0.76636 0.0
C3212 C 0.78467 0.22594 0.77478 0.0
C3213 C 0.74774 0.189 0.75629 0.0
C3214 C 0.7992 0.20664 0.77512 0.0
C3215 C 0.78831 0.17857 0.7652 0.0
loop_
_geom_bond_atom_site_label_1
_geom_bond_atom_site_label_2
_geom_bond_distance
_geom_bond_site_symmetry_2
_ccdc_geom_bond_type
C0 O1 1.306 . S
C0 O3 1.160 . S
O1 C0 1.306 . S
O1 Cd2 2.228 . S
Cd2 O1 2.228 . S
Cd2 O6 2.273 . S
Cd2 O10 2.277 . S
O3 C0 1.160 . S
O3 Cd4 2.203 . S
Cd4 O3 2.203 . S
Cd4 O6 2.411 . S
Cd4 O7 2.333 . S
Cd4 O8 2.352 . S
Cd4 O12 2.277 . S
Cd4 O13 2.356 . S
C5 O10 1.209 . S
C5 O12 1.226 . S
O6 Cd2 2.273 . S
O6 Cd4 2.411 . S
O6 C9 1.320 . S
O7 Cd4 2.333 . S
O7 C9 1.214 . S
O8 Cd4 2.352 . S
O8 C11 1.258 . S
C9 O6 1.320 . S
C9 O7 1.214 . S
O10 Cd2 2.277 . S
O10 C5 1.209 . S
C11 O8 1.258 . S
C11 O13 1.282 . S
O12 Cd4 2.277 . S
O12 C5 1.226 . S
O13 Cd4 2.356 . S
O13 C11 1.282 . S
C14 O15 1.306 . S
C14 O17 1.160 . S
O15 C14 1.306 . S
O15 Cd16 2.228 1_655 S
Cd16 O15 2.228 1_455 S
Cd16 O20 2.273 . S
Cd16 O24 2.277 1_455 S
O17 C14 1.160 . S
O17 Cd18 2.203 1_655 S
Cd18 O17 2.203 1_455 S
Cd18 O20 2.411 . S
Cd18 O21 2.333 . S
Cd18 O22 2.352 . S
Cd18 O26 2.277 1_455 S
Cd18 O27 2.356 . S
C19 O24 1.209 . S
C19 O26 1.226 . S
O20 Cd16 2.273 . S
O20 Cd18 2.411 . S
O20 C23 1.320 . S
O21 Cd18 2.333 . S
O21 C23 1.214 . S
O22 Cd18 2.352 . S
O22 C25 1.258 . S
C23 O20 1.320 . S
C23 O21 1.214 . S
O24 Cd16 2.277 1_655 S
O24 C19 1.209 . S
C25 O22 1.258 . S
C25 O27 1.282 . S
O26 Cd18 2.277 1_655 S
O26 C19 1.226 . S
O27 Cd18 2.356 . S
O27 C25 1.282 . S
C28 O29 1.306 . S
C28 O31 1.160 . S
O29 C28 1.306 . S
O29 Cd30 2.228 . S
Cd30 O29 2.228 . S
Cd30 O34 2.273 . S
Cd30 O38 2.277 . S
O31 C28 1.160 . S
O31 Cd32 2.203 . S
Cd32 O31 2.203 . S
Cd32 O34 2.411 . S
Cd32 O35 2.333 . S
Cd32 O36 2.352 . S
Cd32 O40 2.277 . S
Cd32 O41 2.356 . S
C33 O38 1.209 . S
C33 O40 1.226 . S
O34 Cd30 2.273 . S
O34 Cd32 2.411 . S
O34 C37 1.320 . S
O35 Cd32 2.333 . S
O35 C37 1.214 . S
O36 Cd32 2.352 . S
O36 C39 1.258 . S
C37 O34 1.320 . S
C37 O35 1.214 . S
O38 Cd30 2.277 . S
O38 C33 1.209 . S
C39 O36 1.258 . S
C39 O41 1.282 . S
O40 Cd32 2.277 . S
O40 C33 1.226 . S
O41 Cd32 2.356 . S
O41 C39 1.282 . S
C42 O43 1.306 . S
C42 O45 1.160 . S
O43 C42 1.306 . S
O43 Cd44 2.228 . S
Cd44 O43 2.228 . S
Cd44 O48 2.273 . S
Cd44 O52 2.277 . S
O45 C42 1.160 . S
O45 Cd46 2.203 . S
Cd46 O45 2.203 . S
Cd46 O48 2.411 . S
Cd46 O49 2.333 . S
Cd46 O50 2.352 . S
Cd46 O54 2.277 . S
Cd46 O55 2.356 . S
C47 O52 1.209 . S
C47 O54 1.226 . S
O48 Cd44 2.273 . S
O48 Cd46 2.411 . S
O48 C51 1.320 . S
O49 Cd46 2.333 . S
O49 C51 1.214 . S
O50 Cd46 2.352 . S
O50 C53 1.258 . S
C51 O48 1.320 . S
C51 O49 1.214 . S
O52 Cd44 2.277 . S
O52 C47 1.209 . S
C53 O50 1.258 . S
C53 O55 1.282 . S
O54 Cd46 2.277 . S
O54 C47 1.226 . S
O55 Cd46 2.356 . S
O55 C53 1.282 . S
C56 O57 1.306 . S
C56 O59 1.160 . S
O57 C56 1.306 . S
O57 Cd58 2.228 . S
Cd58 O57 2.228 . S
Cd58 O62 2.273 . S
Cd58 O66 2.277 . S
O59 C56 1.160 . S
O59 Cd60 2.203 . S
Cd60 O59 2.203 . S
Cd60 O62 2.411 . S
Cd60 O63 2.333 . S
Cd60 O64 2.352 . S
Cd60 O68 2.277 . S
Cd60 O69 2.356 . S
C61 O66 1.209 . S
C61 O68 1.226 . S
O62 Cd58 2.273 . S
O62 Cd60 2.411 . S
O62 C65 1.320 . S
O63 Cd60 2.333 . S
O63 C65 1.214 . S
O64 Cd60 2.352 . S
O64 C67 1.258 . S
C65 O62 1.320 . S
C65 O63 1.214 . S
O66 Cd58 2.277 . S
O66 C61 1.209 . S
C67 O64 1.258 . S
C67 O69 1.282 . S
O68 Cd60 2.277 . S
O68 C61 1.226 . S
O69 Cd60 2.356 . S
O69 C67 1.282 . S
C70 O71 1.306 . S
C70 O73 1.160 . S
O71 C70 1.306 . S
O71 Cd72 2.228 . S
Cd72 O71 2.228 . S
Cd72 O76 2.273 . S
Cd72 O80 2.277 . S
O73 C70 1.160 . S
O73 Cd74 2.203 . S
Cd74 O73 2.203 . S
Cd74 O76 2.411 . S
Cd74 O77 2.333 . S
Cd74 O78 2.352 . S
Cd74 O82 2.277 . S
Cd74 O83 2.356 . S
C75 O80 1.209 . S
C75 O82 1.226 . S
O76 Cd72 2.273 . S
O76 Cd74 2.411 . S
O76 C79 1.320 . S
O77 Cd74 2.333 . S
O77 C79 1.214 . S
O78 Cd74 2.352 . S
O78 C81 1.258 . S
C79 O76 1.320 . S
C79 O77 1.214 . S
O80 Cd72 2.277 . S
O80 C75 1.209 . S
C81 O78 1.258 . S
C81 O83 1.282 . S
O82 Cd74 2.277 . S
O82 C75 1.226 . S
O83 Cd74 2.356 . S
O83 C81 1.282 . S
C84 O85 1.306 . S
C84 O87 1.160 . S
O85 C84 1.306 . S
O85 Cd86 2.228 . S
Cd86 O85 2.228 . S
Cd86 O90 2.273 . S
Cd86 O94 2.277 . S
O87 C84 1.160 . S
O87 Cd88 2.203 . S
Cd88 O87 2.203 . S
Cd88 O90 2.411 . S
Cd88 O91 2.333 . S
Cd88 O92 2.352 . S
Cd88 O96 2.277 . S
Cd88 O97 2.356 . S
C89 O94 1.209 . S
C89 O96 1.226 . S
O90 Cd86 2.273 . S
O90 Cd88 2.411 . S
O90 C93 1.320 . S
O91 Cd88 2.333 . S
O91 C93 1.214 . S
O92 Cd88 2.352 . S
O92 C95 1.258 . S
C93 O90 1.320 . S
C93 O91 1.214 . S
O94 Cd86 2.277 . S
O94 C89 1.209 . S
C95 O92 1.258 . S
C95 O97 1.282 . S
O96 Cd88 2.277 . S
O96 C89 1.226 . S
O97 Cd88 2.356 . S
O97 C95 1.282 . S
C98 O99 1.306 . S
C98 O101 1.160 . S
O99 C98 1.306 . S
O99 Cd100 2.228 1_655 S
Cd100 O99 2.228 1_455 S
Cd100 O104 2.273 . S
Cd100 O108 2.277 . S
O101 C98 1.160 . S
O101 Cd102 2.203 1_655 S
Cd102 O101 2.203 1_455 S
Cd102 O104 2.411 . S
Cd102 O105 2.333 . S
Cd102 O106 2.352 . S
Cd102 O110 2.277 . S
Cd102 O111 2.356 . S
C103 O108 1.209 . S
C103 O110 1.226 . S
O104 Cd100 2.273 . S
O104 Cd102 2.411 . S
O104 C107 1.320 . S
O105 Cd102 2.333 . S
O105 C107 1.214 . S
O106 Cd102 2.352 . S
O106 C109 1.258 . S
C107 O104 1.320 . S
C107 O105 1.214 . S
O108 Cd100 2.277 . S
O108 C103 1.209 . S
C109 O106 1.258 . S
C109 O111 1.282 . S
O110 Cd102 2.277 . S
O110 C103 1.226 . S
O111 Cd102 2.356 . S
O111 C109 1.282 . S
C112 O113 1.306 . S
C112 O115 1.160 . S
O113 C112 1.306 . S
O113 Cd114 2.228 1_545 S
Cd114 O113 2.228 1_565 S
Cd114 O118 2.273 1_565 S
Cd114 O122 2.277 . S
O115 C112 1.160 . S
O115 Cd116 2.203 . S
Cd116 O115 2.203 . S
Cd116 O118 2.411 . S
Cd116 O119 2.333 . S
Cd116 O120 2.352 . S
Cd116 O124 2.277 1_545 S
Cd116 O125 2.356 . S
C117 O122 1.209 . S
C117 O124 1.226 . S
O118 Cd114 2.273 1_545 S
O118 Cd116 2.411 . S
O118 C121 1.320 . S
O119 Cd116 2.333 . S
O119 C121 1.214 . S
O120 Cd116 2.352 . S
O120 C123 1.258 . S
C121 O118 1.320 . S
C121 O119 1.214 . S
O122 Cd114 2.277 . S
O122 C117 1.209 . S
C123 O120 1.258 . S
C123 O125 1.282 . S
O124 Cd116 2.277 1_565 S
O124 C117 1.226 . S
O125 Cd116 2.356 . S
O125 C123 1.282 . S
C126 O127 1.306 . S
C126 O129 1.160 . S
O127 C126 1.306 . S
O127 Cd128 2.228 . S
Cd128 O127 2.228 . S
Cd128 O132 2.273 . S
Cd128 O136 2.277 . S
O129 C126 1.160 . S
O129 Cd130 2.203 . S
Cd130 O129 2.203 . S
Cd130 O132 2.411 . S
Cd130 O133 2.333 . S
Cd130 O134 2.352 . S
Cd130 O138 2.277 . S
Cd130 O139 2.356 . S
C131 O136 1.209 . S
C131 O138 1.226 . S
O132 Cd128 2.273 . S
O132 Cd130 2.411 . S
O132 C135 1.320 . S
O133 Cd130 2.333 . S
O133 C135 1.214 . S
O134 Cd130 2.352 . S
O134 C137 1.258 . S
C135 O132 1.320 . S
C135 O133 1.214 . S
O136 Cd128 2.277 . S
O136 C131 1.209 . S
C137 O134 1.258 . S
C137 O139 1.282 . S
O138 Cd130 2.277 . S
O138 C131 1.226 . S
O139 Cd130 2.356 . S
O139 C137 1.282 . S
C140 O141 1.306 . S
C140 O143 1.160 . S
O141 C140 1.306 . S
O141 Cd142 2.228 . S
Cd142 O141 2.228 . S
Cd142 O146 2.273 1_545 S
Cd142 O150 2.277 . S
O143 C140 1.160 . S
O143 Cd144 2.203 1_545 S
Cd144 O143 2.203 1_565 S
Cd144 O146 2.411 . S
Cd144 O147 2.333 . S
Cd144 O148 2.352 . S
Cd144 O152 2.277 1_565 S
Cd144 O153 2.356 . S
C145 O150 1.209 . S
C145 O152 1.226 . S
O146 Cd142 2.273 1_565 S
O146 Cd144 2.411 . S
O146 C149 1.320 . S
O147 Cd144 2.333 . S
O147 C149 1.214 . S
O148 Cd144 2.352 . S
O148 C151 1.258 . S
C149 O146 1.320 . S
C149 O147 1.214 . S
O150 Cd142 2.277 . S
O150 C145 1.209 . S
C151 O148 1.258 . S
C151 O153 1.282 . S
O152 Cd144 2.277 1_545 S
O152 C145 1.226 . S
O153 Cd144 2.356 . S
O153 C151 1.282 . S
C154 O155 1.306 1_554 S
C154 O157 1.160 . S
O155 C154 1.306 1_556 S
O155 Cd156 2.228 . S
Cd156 O155 2.228 . S
Cd156 O160 2.273 1_556 S
Cd156 O164 2.277 . S
O157 C154 1.160 . S
O157 Cd158 2.203 . S
Cd158 O157 2.203 . S
Cd158 O160 2.411 . S
Cd158 O161 2.333 . S
Cd158 O162 2.352 . S
Cd158 O166 2.277 1_554 S
Cd158 O167 2.356 . S
C159 O164 1.209 . S
C159 O166 1.226 . S
O160 Cd156 2.273 1_554 S
O160 Cd158 2.411 . S
O160 C163 1.320 . S
O161 Cd158 2.333 . S
O161 C163 1.214 . S
O162 Cd158 2.352 . S
O162 C165 1.258 . S
C163 O160 1.320 . S
C163 O161 1.214 . S
O164 Cd156 2.277 . S
O164 C159 1.209 . S
C165 O162 1.258 . S
C165 O167 1.282 . S
O166 Cd158 2.277 1_556 S
O166 C159 1.226 . S
O167 Cd158 2.356 . S
O167 C165 1.282 . S
C168 O169 1.306 . S
C168 O171 1.160 . S
O169 C168 1.306 . S
O169 Cd170 2.228 . S
Cd170 O169 2.228 . S
Cd170 O174 2.273 . S
Cd170 O178 2.277 1_554 S
O171 C168 1.160 . S
O171 Cd172 2.203 . S
Cd172 O171 2.203 . S
Cd172 O174 2.411 . S
Cd172 O175 2.333 . S
Cd172 O176 2.352 . S
Cd172 O180 2.287 . S
Cd172 O181 2.356 . S
C173 O178 1.209 . S
C173 O180 1.215 1_556 S
O174 Cd170 2.273 . S
O174 Cd172 2.411 . S
O174 C177 1.320 . S
O175 Cd172 2.333 . S
O175 C177 1.214 . S
O176 Cd172 2.352 . S
O176 C179 1.258 . S
C177 O174 1.320 . S
C177 O175 1.214 . S
O178 Cd170 2.277 1_556 S
O178 C173 1.209 . S
C179 O176 1.258 . S
C179 O181 1.282 . S
O180 Cd172 2.287 . S
O180 C173 1.215 1_554 S
O181 Cd172 2.356 . S
O181 C179 1.282 . S
C182 O183 1.306 . S
C182 O185 1.160 . S
O183 C182 1.306 . S
O183 Cd184 2.228 . S
Cd184 O183 2.228 . S
Cd184 O188 2.273 . S
Cd184 O192 2.277 . S
O185 C182 1.160 . S
O185 Cd186 2.203 . S
Cd186 O185 2.203 . S
Cd186 O188 2.411 . S
Cd186 O189 2.333 . S
Cd186 O190 2.352 1_554 S
Cd186 O194 2.277 . S
Cd186 O195 2.356 . S
C187 O192 1.209 . S
C187 O194 1.226 . S
O188 Cd184 2.273 . S
O188 Cd186 2.411 . S
O188 C191 1.320 . S
O189 Cd186 2.333 . S
O189 C191 1.214 . S
O190 Cd186 2.352 1_556 S
O190 C193 1.258 . S
C191 O188 1.320 . S
C191 O189 1.214 . S
O192 Cd184 2.277 . S
O192 C187 1.209 . S
C193 O190 1.258 . S
C193 O195 1.282 1_556 S
O194 Cd186 2.277 . S
O194 C187 1.226 . S
O195 Cd186 2.356 . S
O195 C193 1.282 1_554 S
C196 O197 1.306 . S
C196 O199 1.160 . S
O197 C196 1.306 . S
O197 Cd198 2.228 . S
Cd198 O197 2.228 . S
Cd198 O202 2.273 . S
Cd198 O206 2.277 . S
O199 C196 1.160 . S
O199 Cd200 2.203 . S
Cd200 O199 2.203 . S
Cd200 O202 2.411 . S
Cd200 O203 2.333 . S
Cd200 O204 2.352 . S
Cd200 O208 2.277 . S
Cd200 O209 2.356 . S
C201 O206 1.209 . S
C201 O208 1.226 . S
O202 Cd198 2.273 . S
O202 Cd200 2.411 . S
O202 C205 1.320 . S
O203 Cd200 2.333 . S
O203 C205 1.214 . S
O204 Cd200 2.352 . S
O204 C207 1.258 . S
C205 O202 1.320 . S
C205 O203 1.214 . S
O206 Cd198 2.277 . S
O206 C201 1.209 . S
C207 O204 1.258 . S
C207 O209 1.282 . S
O208 Cd200 2.277 . S
O208 C201 1.226 . S
O209 Cd200 2.356 . S
O209 C207 1.282 . S
C210 O211 1.306 . S
C210 O213 1.160 . S
O211 C210 1.306 . S
O211 Cd212 2.228 . S
Cd212 O211 2.228 . S
Cd212 O216 2.273 . S
Cd212 O220 2.277 . S
O213 C210 1.160 . S
O213 Cd214 2.203 . S
Cd214 O213 2.203 . S
Cd214 O216 2.411 . S
Cd214 O217 2.333 . S
Cd214 O218 2.352 . S
Cd214 O222 2.277 . S
Cd214 O223 2.356 . S
C215 O220 1.209 . S
C215 O222 1.226 . S
O216 Cd212 2.273 . S
O216 Cd214 2.411 . S
O216 C219 1.320 . S
O217 Cd214 2.333 . S
O217 C219 1.214 . S
O218 Cd214 2.352 . S
O218 C221 1.258 . S
C219 O216 1.320 . S
C219 O217 1.214 . S
O220 Cd212 2.277 . S
O220 C215 1.209 . S
C221 O218 1.258 . S
C221 O223 1.282 . S
O222 Cd214 2.277 . S
O222 C215 1.226 . S
O223 Cd214 2.356 . S
O223 C221 1.282 . S
C224 O225 1.306 . S
C224 O227 1.160 . S
O225 C224 1.306 . S
O225 Cd226 2.228 . S
Cd226 O225 2.228 . S
Cd226 O230 2.273 . S
Cd226 O234 2.277 . S
O227 C224 1.160 . S
O227 Cd228 2.203 . S
Cd228 O227 2.203 . S
Cd228 O230 2.411 . S
Cd228 O231 2.333 . S
Cd228 O232 2.352 . S
Cd228 O236 2.277 . S
Cd228 O237 2.356 . S
C229 O234 1.209 . S
C229 O236 1.226 . S
O230 Cd226 2.273 . S
O230 Cd228 2.411 . S
O230 C233 1.320 . S
O231 Cd228 2.333 . S
O231 C233 1.214 . S
O232 Cd228 2.352 . S
O232 C235 1.258 . S
C233 O230 1.320 . S
C233 O231 1.214 . S
O234 Cd226 2.277 . S
O234 C229 1.209 . S
C235 O232 1.258 . S
C235 O237 1.282 . S
O236 Cd228 2.277 . S
O236 C229 1.226 . S
O237 Cd228 2.356 . S
O237 C235 1.282 . S
C238 O239 1.306 . S
C238 O241 1.160 . S
O239 C238 1.306 . S
O239 Cd240 2.228 . S
Cd240 O239 2.228 . S
Cd240 O244 2.273 . S
Cd240 O248 2.277 . S
O241 C238 1.160 . S
O241 Cd242 2.203 . S
Cd242 O241 2.203 . S
Cd242 O244 2.411 . S
Cd242 O245 2.333 . S
Cd242 O246 2.352 . S
Cd242 O250 2.277 . S
Cd242 O251 2.356 . S
C243 O248 1.209 . S
C243 O250 1.226 . S
O244 Cd240 2.273 . S
O244 Cd242 2.411 . S
O244 C247 1.320 . S
O245 Cd242 2.333 . S
O245 C247 1.214 . S
O246 Cd242 2.352 . S
O246 C249 1.258 . S
C247 O244 1.320 . S
C247 O245 1.214 . S
O248 Cd240 2.277 . S
O248 C243 1.209 . S
C249 O246 1.258 . S
C249 O251 1.282 . S
O250 Cd242 2.277 . S
O250 C243 1.226 . S
O251 Cd242 2.356 . S
O251 C249 1.282 . S
C252 O253 1.306 . S
C252 O255 1.160 . S
O253 C252 1.306 . S
O253 Cd254 2.228 . S
Cd254 O253 2.228 . S
Cd254 O258 2.273 . S
Cd254 O262 2.277 . S
O255 C252 1.160 . S
O255 Cd256 2.203 . S
Cd256 O255 2.203 . S
Cd256 O258 2.411 . S
Cd256 O259 2.333 . S
Cd256 O260 2.352 . S
Cd256 O264 2.277 . S
Cd256 O265 2.356 . S
C257 O262 1.209 . S
C257 O264 1.226 . S
O258 Cd254 2.273 . S
O258 Cd256 2.411 . S
O258 C261 1.320 . S
O259 Cd256 2.333 . S
O259 C261 1.214 . S
O260 Cd256 2.352 . S
O260 C263 1.258 . S
C261 O258 1.320 . S
C261 O259 1.214 . S
O262 Cd254 2.277 . S
O262 C257 1.209 . S
C263 O260 1.258 . S
C263 O265 1.282 . S
O264 Cd256 2.277 . S
O264 C257 1.226 . S
O265 Cd256 2.356 . S
O265 C263 1.282 . S
C266 O267 1.306 . S
C266 O269 1.160 . S
O267 C266 1.306 . S
O267 Cd268 2.228 . S
Cd268 O267 2.228 . S
Cd268 O272 2.273 . S
Cd268 O276 2.277 . S
O269 C266 1.160 . S
O269 Cd270 2.203 . S
Cd270 O269 2.203 . S
Cd270 O272 2.411 . S
Cd270 O273 2.333 . S
Cd270 O274 2.352 . S
Cd270 O278 2.277 . S
Cd270 O279 2.356 . S
C271 O276 1.209 . S
C271 O278 1.226 . S
O272 Cd268 2.273 . S
O272 Cd270 2.411 . S
O272 C275 1.320 . S
O273 Cd270 2.333 . S
O273 C275 1.214 . S
O274 Cd270 2.352 . S
O274 C277 1.258 . S
C275 O272 1.320 . S
C275 O273 1.214 . S
O276 Cd268 2.277 . S
O276 C271 1.209 . S
C277 O274 1.258 . S
C277 O279 1.282 . S
O278 Cd270 2.277 . S
O278 C271 1.226 . S
O279 Cd270 2.356 . S
O279 C277 1.282 . S
C280 O281 1.306 . S
C280 O283 1.160 1_554 S
O281 C280 1.306 . S
O281 Cd282 2.228 . S
Cd282 O281 2.228 . S
Cd282 O286 2.273 1_554 S
Cd282 O290 2.277 . S
O283 C280 1.160 1_556 S
O283 Cd284 2.203 . S
Cd284 O283 2.203 . S
Cd284 O286 2.411 . S
Cd284 O287 2.333 . S
Cd284 O288 2.352 . S
Cd284 O292 2.277 1_556 S
Cd284 O293 2.356 . S
C285 O290 1.209 . S
C285 O292 1.226 . S
O286 Cd282 2.273 1_556 S
O286 Cd284 2.411 . S
O286 C289 1.320 . S
O287 Cd284 2.333 . S
O287 C289 1.214 . S
O288 Cd284 2.352 . S
O288 C291 1.258 . S
C289 O286 1.320 . S
C289 O287 1.214 . S
O290 Cd282 2.277 . S
O290 C285 1.209 . S
C291 O288 1.258 . S
C291 O293 1.282 . S
O292 Cd284 2.277 1_554 S
O292 C285 1.226 . S
O293 Cd284 2.356 . S
O293 C291 1.282 . S
C294 O295 1.306 . S
C294 O297 1.160 . S
O295 C294 1.306 . S
O295 Cd296 2.228 . S
Cd296 O295 2.228 . S
Cd296 O300 2.273 . S
Cd296 O304 2.277 . S
O297 C294 1.160 . S
O297 Cd298 2.203 . S
Cd298 O297 2.203 . S
Cd298 O300 2.411 . S
Cd298 O301 2.333 . S
Cd298 O302 2.352 . S
Cd298 O306 2.277 . S
Cd298 O307 2.356 . S
C299 O304 1.209 . S
C299 O306 1.226 . S
O300 Cd296 2.273 . S
O300 Cd298 2.411 . S
O300 C303 1.320 . S
O301 Cd298 2.333 . S
O301 C303 1.214 . S
O302 Cd298 2.352 . S
O302 C305 1.258 . S
C303 O300 1.320 . S
C303 O301 1.214 . S
O304 Cd296 2.277 . S
O304 C299 1.209 . S
C305 O302 1.258 . S
C305 O307 1.282 . S
O306 Cd298 2.277 . S
O306 C299 1.226 . S
O307 Cd298 2.356 . S
O307 C305 1.282 . S
C308 O309 1.306 . S
C308 O311 1.160 . S
O309 C308 1.306 . S
O309 Cd310 2.228 . S
Cd310 O309 2.228 . S
Cd310 O314 2.273 . S
Cd310 O318 2.277 . S
O311 C308 1.160 . S
O311 Cd312 2.203 . S
Cd312 O311 2.203 . S
Cd312 O314 2.411 . S
Cd312 O315 2.333 . S
Cd312 O316 2.352 . S
Cd312 O320 2.277 . S
Cd312 O321 2.356 . S
C313 O318 1.209 . S
C313 O320 1.226 . S
O314 Cd310 2.273 . S
O314 Cd312 2.411 . S
O314 C317 1.320 . S
O315 Cd312 2.333 . S
O315 C317 1.214 . S
O316 Cd312 2.352 . S
O316 C319 1.258 . S
C317 O314 1.320 . S
C317 O315 1.214 . S
O318 Cd310 2.277 . S
O318 C313 1.209 . S
C319 O316 1.258 . S
C319 O321 1.282 . S
O320 Cd312 2.277 . S
O320 C313 1.226 . S
O321 Cd312 2.356 . S
O321 C319 1.282 . S
C322 O323 1.306 . S
C322 O325 1.160 . S
O323 C322 1.306 . S
O323 Cd324 2.228 . S
Cd324 O323 2.228 . S
Cd324 O328 2.273 . S
Cd324 O332 2.277 . S
O325 C322 1.160 . S
O325 Cd326 2.203 . S
Cd326 O325 2.203 . S
Cd326 O328 2.411 . S
Cd326 O329 2.333 . S
Cd326 O330 2.352 . S
Cd326 O334 2.277 . S
Cd326 O335 2.356 . S
C327 O332 1.209 . S
C327 O334 1.226 . S
O328 Cd324 2.273 . S
O328 Cd326 2.411 . S
O328 C331 1.320 . S
O329 Cd326 2.333 . S
O329 C331 1.214 . S
O330 Cd326 2.352 . S
O330 C333 1.258 . S
C331 O328 1.320 . S
C331 O329 1.214 . S
O332 Cd324 2.277 . S
O332 C327 1.209 . S
C333 O330 1.258 . S
C333 O335 1.282 . S
O334 Cd326 2.277 . S
O334 C327 1.226 . S
O335 Cd326 2.356 . S
O335 C333 1.282 . S
Tb336 N367 2.660 1_545 S
Tb336 N374 2.600 1_544 S
Tb336 O380 2.546 1_454 S
Tb336 O381 2.610 . S
Tb336 O383 2.320 . S
Tb336 O384 2.558 . S
Tb336 O385 2.413 1_455 S
Tb336 O387 2.362 . S
Tb336 O388 2.421 1_554 S
Tb336 C400 2.833 1_454 S
C337 C340 1.432 . S
C337 C341 1.414 . S
C337 N344 1.359 . S
C338 C340 1.417 . S
C338 C342 1.432 . S
C338 C350 1.386 1_554 S
C339 C341 1.444 . S
C339 C342 1.317 . S
C339 H362 0.929 . S
C340 C337 1.432 . S
C340 C338 1.417 . S
C340 N348 1.360 . S
C341 C337 1.414 . S
C341 C339 1.444 . S
C341 C346 1.385 . S
C342 C338 1.432 . S
C342 C339 1.317 . S
C342 H354 0.930 . S
C343 C345 1.392 . S
C343 C346 1.370 . S
C343 H355 0.931 . S
N344 C337 1.359 . S
N344 C345 1.327 . S
N344 Tb347 2.600 . S
C345 C343 1.392 . S
C345 N344 1.327 . S
C345 H352 0.930 . S
C346 C341 1.385 . S
C346 C343 1.370 . S
C346 H365 0.930 . S
Tb347 N344 2.600 . S
Tb347 N348 2.660 . S
Tb347 O381 2.362 . S
Tb347 O382 2.421 . S
Tb347 O386 2.546 . S
Tb347 O387 2.610 . S
Tb347 O389 2.320 1_554 S
Tb347 O390 2.537 1_545 S
Tb347 O391 2.413 . S
Tb347 C411 2.833 . S
N348 C340 1.360 . S
N348 Tb347 2.660 . S
N348 C349 1.305 1_554 S
C349 N348 1.305 1_556 S
C349 C351 1.407 . S
C349 H356 0.930 . S
C350 C338 1.386 1_556 S
C350 C351 1.356 . S
C350 H358 0.944 . S
C351 C349 1.407 . S
C351 C350 1.356 . S
C351 H353 0.930 . S
H352 C345 0.930 . S
H353 C351 0.930 . S
H354 C342 0.930 . S
H355 C343 0.931 . S
H356 C349 0.930 . S
H357 C371 0.930 . S
H358 C350 0.944 . S
H359 C377 0.930 . S
H360 C368 0.930 . S
H361 C375 0.931 . S
H362 C339 0.929 . S
H363 C369 0.930 . S
H364 C402 0.930 . S
H365 C346 0.930 . S
H366 C401 0.929 . S
N367 Tb336 2.660 1_565 S
N367 C368 1.305 . S
N367 C372 1.360 1_455 S
C368 H360 0.930 . S
C368 N367 1.305 . S
C368 C371 1.407 . S
C369 H363 0.930 . S
C369 C370 1.410 . S
C369 C371 1.345 1_655 S
C370 C369 1.410 . S
C370 C372 1.417 . S
C370 C402 1.432 1_554 S
C371 H357 0.930 . S
C371 C368 1.407 . S
C371 C369 1.345 1_455 S
C372 N367 1.360 1_655 S
C372 C370 1.417 . S
C372 C376 1.434 1_554 S
H373 C378 0.930 . S
N374 Tb336 2.600 1_566 S
N374 C376 1.350 1_455 S
N374 C377 1.327 . S
C375 H361 0.931 . S
C375 C377 1.392 1_655 S
C375 C378 1.370 . S
C376 C372 1.434 1_556 S
C376 N374 1.350 1_655 S
C376 C379 1.421 . S
C377 H359 0.930 . S
C377 N374 1.327 . S
C377 C375 1.392 1_455 S
C378 H373 0.930 . S
C378 C375 1.370 . S
C378 C379 1.385 . S
C379 C376 1.421 . S
C379 C378 1.385 . S
C379 C401 1.444 . S
O380 Tb336 2.546 1_656 S
O380 C400 1.251 . S
O381 Tb336 2.610 . S
O381 Tb347 2.362 . S
O381 C392 1.283 . S
O382 Tb347 2.421 . S
O382 C399 1.262 . S
O383 Tb336 2.320 . S
O383 C399 1.260 . S
O384 Tb336 2.558 . S
O384 C392 1.252 . S
O385 Tb336 2.413 1_655 S
O385 C400 1.256 1_554 S
O386 Tb347 2.546 . S
O386 C411 1.251 . S
O387 Tb336 2.362 . S
O387 Tb347 2.610 . S
O387 C403 1.283 1_545 S
O388 Tb336 2.421 1_556 S
O388 C410 1.262 . S
O389 Tb347 2.320 1_556 S
O389 C410 1.260 . S
O390 Tb347 2.537 1_565 S
O390 C403 1.244 . S
O391 Tb347 2.413 . S
O391 C411 1.256 . S
C392 O381 1.283 . S
C392 O384 1.252 . S
C393 C395 1.382 1_556 S
C393 C397 1.393 . S
C393 C400 1.500 . S
C394 C395 1.400 1_556 S
C394 C396 1.384 . S
C395 C393 1.382 1_554 S
C395 C394 1.400 1_554 S
C395 H412 0.930 . S
C396 C394 1.384 . S
C396 C398 1.392 . S
C396 H413 0.931 . S
C397 C393 1.393 . S
C397 C398 1.401 . S
C397 H414 0.930 . S
C398 C396 1.392 . S
C398 C397 1.401 . S
C398 H415 0.930 . S
C399 O382 1.262 . S
C399 O383 1.260 . S
C400 Tb336 2.833 1_656 S
C400 O380 1.251 . S
C400 O385 1.256 1_556 S
C400 C393 1.500 . S
C401 H366 0.929 . S
C401 C379 1.444 . S
C401 C402 1.317 . S
C402 H364 0.930 . S
C402 C370 1.432 1_556 S
C402 C401 1.317 . S
C403 O387 1.283 1_565 S
C403 O390 1.244 . S
C404 C405 1.382 . S
C404 C408 1.393 . S
C404 C411 1.500 . S
C405 C404 1.382 . S
C405 C406 1.400 . S
C405 H416 0.930 . S
C406 C405 1.400 . S
C406 C407 1.384 . S
C407 C406 1.384 . S
C407 C409 1.392 . S
C407 H417 0.931 . S
C408 C404 1.393 . S
C408 C409 1.401 . S
C408 H418 0.930 . S
C409 C407 1.392 . S
C409 C408 1.401 . S
C409 H419 0.930 . S
C410 O388 1.262 . S
C410 O389 1.260 . S
C411 Tb347 2.833 . S
C411 O386 1.251 . S
C411 O391 1.256 . S
C411 C404 1.500 . S
H412 C395 0.930 . S
H413 C396 0.931 . S
H414 C397 0.930 . S
H415 C398 0.930 . S
H416 C405 0.930 . S
H417 C407 0.931 . S
H418 C408 0.930 . S
H419 C409 0.930 . S
Tb420 N451 2.660 . S
Tb420 N458 2.600 . S
Tb420 O464 2.546 . S
Tb420 O465 2.610 . S
Tb420 O467 2.320 . S
Tb420 O468 2.552 . S
Tb420 O469 2.413 . S
Tb420 O471 2.362 . S
Tb420 O472 2.421 . S
Tb420 C484 2.833 . S
C421 C424 1.432 . S
C421 C425 1.414 . S
C421 N428 1.359 . S
C422 C424 1.417 . S
C422 C426 1.432 . S
C422 C434 1.410 . S
C423 C425 1.444 . S
C423 C426 1.317 . S
C423 H446 0.929 . S
C424 C421 1.432 . S
C424 C422 1.417 . S
C424 N432 1.360 . S
C425 C421 1.414 . S
C425 C423 1.444 . S
C425 C430 1.385 . S
C426 C422 1.432 . S
C426 C423 1.317 . S
C426 H438 0.930 . S
C427 C429 1.392 . S
C427 C430 1.370 . S
C427 H439 0.931 . S
N428 C421 1.359 . S
N428 C429 1.327 . S
N428 Tb431 2.600 . S
C429 C427 1.392 . S
C429 N428 1.327 . S
C429 H436 0.930 . S
C430 C425 1.385 . S
C430 C427 1.370 . S
C430 H449 0.930 . S
Tb431 N428 2.600 . S
Tb431 N432 2.660 . S
Tb431 O465 2.362 . S
Tb431 O466 2.421 . S
Tb431 O470 2.546 . S
Tb431 O471 2.610 . S
Tb431 O473 2.320 . S
Tb431 O474 2.552 . S
Tb431 O475 2.413 . S
Tb431 C495 2.833 . S
N432 C424 1.360 . S
N432 Tb431 2.660 . S
N432 C433 1.305 . S
C433 N432 1.305 . S
C433 C435 1.407 . S
C433 H440 0.930 . S
C434 C422 1.410 . S
C434 C435 1.345 . S
C434 H442 0.930 . S
C435 C433 1.407 . S
C435 C434 1.345 . S
C435 H437 0.930 . S
H436 C429 0.930 . S
H437 C435 0.930 . S
H438 C426 0.930 . S
H439 C427 0.931 . S
H440 C433 0.930 . S
H441 C455 0.930 . S
H442 C434 0.930 . S
H443 C461 0.930 . S
H444 C452 0.930 . S
H445 C459 0.931 . S
H446 C423 0.929 . S
H447 C453 0.930 . S
H448 C486 0.930 . S
H449 C430 0.930 . S
H450 C485 0.929 . S
N451 Tb420 2.660 . S
N451 C452 1.305 . S
N451 C456 1.360 . S
C452 H444 0.930 . S
C452 N451 1.305 . S
C452 C455 1.407 . S
C453 H447 0.930 . S
C453 C454 1.410 . S
C453 C455 1.345 . S
C454 C453 1.410 . S
C454 C456 1.417 . S
C454 C486 1.432 . S
C455 H441 0.930 . S
C455 C452 1.407 . S
C455 C453 1.345 . S
C456 N451 1.360 . S
C456 C454 1.417 . S
C456 C460 1.432 . S
H457 C462 0.930 . S
N458 Tb420 2.600 . S
N458 C460 1.359 . S
N458 C461 1.327 . S
C459 H445 0.931 . S
C459 C461 1.392 . S
C459 C462 1.370 . S
C460 C456 1.432 . S
C460 N458 1.359 . S
C460 C463 1.414 . S
C461 H443 0.930 . S
C461 N458 1.327 . S
C461 C459 1.392 . S
C462 H457 0.930 . S
C462 C459 1.370 . S
C462 C463 1.385 . S
C463 C460 1.414 . S
C463 C462 1.385 . S
C463 C485 1.444 . S
O464 Tb420 2.546 . S
O464 C484 1.251 . S
O465 Tb420 2.610 . S
O465 Tb431 2.362 . S
O465 C476 1.283 . S
O466 Tb431 2.421 . S
O466 C483 1.262 . S
O467 Tb420 2.320 . S
O467 C483 1.260 . S
O468 Tb420 2.552 . S
O468 C476 1.243 . S
O469 Tb420 2.413 . S
O469 C484 1.256 . S
O470 Tb431 2.546 . S
O470 C495 1.251 . S
O471 Tb420 2.362 . S
O471 Tb431 2.610 . S
O471 C487 1.283 . S
O472 Tb420 2.421 . S
O472 C494 1.262 . S
O473 Tb431 2.320 . S
O473 C494 1.260 . S
O474 Tb431 2.552 . S
O474 C487 1.243 . S
O475 Tb431 2.413 . S
O475 C495 1.256 . S
C476 O465 1.283 . S
C476 O468 1.243 . S
C477 C479 1.382 . S
C477 C481 1.393 . S
C477 C484 1.500 . S
C478 C479 1.400 . S
C478 C480 1.384 . S
C479 C477 1.382 . S
C479 C478 1.400 . S
C479 H496 0.930 . S
C480 C478 1.384 . S
C480 C482 1.392 . S
C480 H497 0.931 . S
C481 C477 1.393 . S
C481 C482 1.401 . S
C481 H498 0.930 . S
C482 C480 1.392 . S
C482 C481 1.401 . S
C482 H499 0.930 . S
C483 O466 1.262 . S
C483 O467 1.260 . S
C484 Tb420 2.833 . S
C484 O464 1.251 . S
C484 O469 1.256 . S
C484 C477 1.500 . S
C485 H450 0.929 . S
C485 C463 1.444 . S
C485 C486 1.317 . S
C486 H448 0.930 . S
C486 C454 1.432 . S
C486 C485 1.317 . S
C487 O471 1.283 . S
C487 O474 1.243 . S
C488 C489 1.382 . S
C488 C492 1.393 . S
C488 C495 1.500 . S
C489 C488 1.382 . S
C489 C490 1.400 . S
C489 H500 0.930 . S
C490 C489 1.400 . S
C490 C491 1.384 . S
C491 C490 1.384 . S
C491 C493 1.392 . S
C491 H501 0.931 . S
C492 C488 1.393 . S
C492 C493 1.401 . S
C492 H502 0.930 . S
C493 C491 1.392 . S
C493 C492 1.401 . S
C493 H503 0.930 . S
C494 O472 1.262 . S
C494 O473 1.260 . S
C495 Tb431 2.833 . S
C495 O470 1.251 . S
C495 O475 1.256 . S
C495 C488 1.500 . S
H496 C479 0.930 . S
H497 C480 0.931 . S
H498 C481 0.930 . S
H499 C482 0.930 . S
H500 C489 0.930 . S
H501 C491 0.931 . S
H502 C492 0.930 . S
H503 C493 0.930 . S
Tb504 N535 2.660 . S
Tb504 N542 2.600 . S
Tb504 O548 2.546 . S
Tb504 O549 2.610 . S
Tb504 O551 2.320 . S
Tb504 O552 2.552 1_545 S
Tb504 O553 2.413 . S
Tb504 O555 2.362 . S
Tb504 O556 2.421 . S
Tb504 C568 2.833 . S
C505 C508 1.432 . S
C505 C509 1.414 . S
C505 N512 1.343 1_565 S
C506 C508 1.417 . S
C506 C510 1.432 . S
C506 C518 1.410 . S
C507 C509 1.444 . S
C507 C510 1.317 . S
C507 H530 0.929 . S
C508 C505 1.432 . S
C508 C506 1.417 . S
C508 N516 1.360 . S
C509 C505 1.414 . S
C509 C507 1.444 . S
C509 C514 1.385 . S
C510 C506 1.432 . S
C510 C507 1.317 . S
C510 H522 0.930 . S
C511 C513 1.392 1_565 S
C511 C514 1.370 . S
C511 H523 0.931 1_565 S
N512 C505 1.343 1_545 S
N512 C513 1.330 . S
N512 Tb515 2.616 . S
C513 C511 1.392 1_545 S
C513 N512 1.330 . S
C513 H520 0.930 . S
C514 C509 1.385 . S
C514 C511 1.370 . S
C514 H533 0.930 . S
Tb515 N512 2.616 . S
Tb515 N516 2.660 1_545 S
Tb515 O549 2.362 . S
Tb515 O550 2.421 . S
Tb515 O554 2.546 . S
Tb515 O555 2.610 . S
Tb515 O557 2.320 . S
Tb515 O558 2.552 . S
Tb515 O559 2.413 . S
Tb515 C579 2.833 . S
N516 C508 1.360 . S
N516 Tb515 2.660 1_565 S
N516 C517 1.305 . S
C517 N516 1.305 . S
C517 C519 1.407 . S
C517 H524 0.930 . S
C518 C506 1.410 . S
C518 C519 1.345 . S
C518 H526 0.930 . S
C519 C517 1.407 . S
C519 C518 1.345 . S
C519 H521 0.930 . S
H520 C513 0.930 . S
H521 C519 0.930 . S
H522 C510 0.930 . S
H523 C511 0.931 1_545 S
H524 C517 0.930 . S
H525 C539 0.930 . S
H526 C518 0.930 . S
H527 C545 0.930 . S
H528 C536 0.930 . S
H529 C543 0.931 . S
H530 C507 0.929 . S
H531 C537 0.930 . S
H532 C570 0.930 . S
H533 C514 0.930 . S
H534 C569 0.929 . S
N535 Tb504 2.660 . S
N535 C536 1.305 . S
N535 C540 1.360 . S
C536 H528 0.930 . S
C536 N535 1.305 . S
C536 C539 1.407 . S
C537 H531 0.930 . S
C537 C538 1.410 . S
C537 C539 1.345 . S
C538 C537 1.410 . S
C538 C540 1.417 . S
C538 C570 1.432 . S
C539 H525 0.930 . S
C539 C536 1.407 . S
C539 C537 1.345 . S
C540 N535 1.360 . S
C540 C538 1.417 . S
C540 C544 1.432 . S
H541 C546 0.930 . S
N542 Tb504 2.600 . S
N542 C544 1.359 . S
N542 C545 1.327 . S
C543 H529 0.931 . S
C543 C545 1.392 . S
C543 C546 1.370 . S
C544 C540 1.432 . S
C544 N542 1.359 . S
C544 C547 1.414 . S
C545 H527 0.930 . S
C545 N542 1.327 . S
C545 C543 1.392 . S
C546 H541 0.930 . S
C546 C543 1.370 . S
C546 C547 1.385 . S
C547 C544 1.414 . S
C547 C546 1.385 . S
C547 C569 1.444 . S
O548 Tb504 2.546 . S
O548 C568 1.251 . S
O549 Tb504 2.610 . S
O549 Tb515 2.362 . S
O549 C560 1.283 1_545 S
O550 Tb515 2.421 . S
O550 C567 1.262 . S
O551 Tb504 2.320 . S
O551 C567 1.260 . S
O552 Tb504 2.552 1_565 S
O552 C560 1.243 . S
O553 Tb504 2.413 . S
O553 C568 1.256 . S
O554 Tb515 2.546 . S
O554 C579 1.251 . S
O555 Tb504 2.362 . S
O555 Tb515 2.610 . S
O555 C571 1.283 . S
O556 Tb504 2.421 . S
O556 C578 1.262 . S
O557 Tb515 2.320 . S
O557 C578 1.260 . S
O558 Tb515 2.552 . S
O558 C571 1.243 . S
O559 Tb515 2.413 . S
O559 C579 1.256 . S
C560 O549 1.283 1_565 S
C560 O552 1.243 . S
C561 C563 1.382 . S
C561 C565 1.393 . S
C561 C568 1.500 1_565 S
C562 C563 1.400 . S
C562 C564 1.384 . S
C563 C561 1.382 . S
C563 C562 1.400 . S
C563 H580 0.930 . S
C564 C562 1.384 . S
C564 C566 1.392 . S
C564 H581 0.931 . S
C565 C561 1.393 . S
C565 C566 1.401 . S
C565 H582 0.930 1_565 S
C566 C564 1.392 . S
C566 C565 1.401 . S
C566 H583 0.930 . S
C567 O550 1.262 . S
C567 O551 1.260 . S
C568 Tb504 2.833 . S
C568 O548 1.251 . S
C568 O553 1.256 . S
C568 C561 1.500 1_545 S
C569 H534 0.929 . S
C569 C547 1.444 . S
C569 C570 1.317 . S
C570 H532 0.930 . S
C570 C538 1.432 . S
C570 C569 1.317 . S
C571 O555 1.283 . S
C571 O558 1.243 . S
C572 C573 1.382 . S
C572 C576 1.393 . S
C572 C579 1.500 . S
C573 C572 1.382 . S
C573 C574 1.400 . S
C573 H584 0.930 . S
C574 C573 1.400 . S
C574 C575 1.384 . S
C575 C574 1.384 . S
C575 C577 1.392 . S
C575 H585 0.931 . S
C576 C572 1.393 . S
C576 C577 1.401 . S
C576 H586 0.930 . S
C577 C575 1.392 . S
C577 C576 1.401 . S
C577 H587 0.930 . S
C578 O556 1.262 . S
C578 O557 1.260 . S
C579 Tb515 2.833 . S
C579 O554 1.251 . S
C579 O559 1.256 . S
C579 C572 1.500 . S
H580 C563 0.930 . S
H581 C564 0.931 . S
H582 C565 0.930 1_545 S
H583 C566 0.930 . S
H584 C573 0.930 . S
H585 C575 0.931 . S
H586 C576 0.930 . S
H587 C577 0.930 . S
Tb588 N619 2.660 . S
Tb588 N626 2.600 . S
Tb588 O632 2.546 . S
Tb588 O633 2.610 . S
Tb588 O635 2.320 . S
Tb588 O636 2.552 . S
Tb588 O637 2.413 . S
Tb588 O639 2.362 . S
Tb588 O640 2.421 . S
Tb588 C652 2.833 . S
C589 C592 1.432 . S
C589 C593 1.414 . S
C589 N596 1.359 . S
C590 C592 1.417 . S
C590 C594 1.432 . S
C590 C602 1.410 . S
C591 C593 1.444 . S
C591 C594 1.317 . S
C591 H614 0.929 . S
C592 C589 1.432 . S
C592 C590 1.417 . S
C592 N600 1.360 . S
C593 C589 1.414 . S
C593 C591 1.444 . S
C593 C598 1.385 . S
C594 C590 1.432 . S
C594 C591 1.317 . S
C594 H606 0.930 . S
C595 C597 1.392 . S
C595 C598 1.370 . S
C595 H607 0.931 . S
N596 C589 1.359 . S
N596 C597 1.327 . S
N596 Tb599 2.600 . S
C597 C595 1.392 . S
C597 N596 1.327 . S
C597 H604 0.930 . S
C598 C593 1.385 . S
C598 C595 1.370 . S
C598 H617 0.930 . S
Tb599 N596 2.600 . S
Tb599 N600 2.660 . S
Tb599 O633 2.362 . S
Tb599 O634 2.421 . S
Tb599 O638 2.546 . S
Tb599 O639 2.610 . S
Tb599 O641 2.320 . S
Tb599 O642 2.552 . S
Tb599 O643 2.413 . S
Tb599 C663 2.833 . S
N600 C592 1.360 . S
N600 Tb599 2.660 . S
N600 C601 1.305 . S
C601 N600 1.305 . S
C601 C603 1.407 . S
C601 H608 0.930 . S
C602 C590 1.410 . S
C602 C603 1.345 . S
C602 H610 0.930 . S
C603 C601 1.407 . S
C603 C602 1.345 . S
C603 H605 0.930 . S
H604 C597 0.930 . S
H605 C603 0.930 . S
H606 C594 0.930 . S
H607 C595 0.931 . S
H608 C601 0.930 . S
H609 C623 0.930 . S
H610 C602 0.930 . S
H611 C629 0.930 . S
H612 C620 0.930 . S
H613 C627 0.931 . S
H614 C591 0.929 . S
H615 C621 0.930 . S
H616 C654 0.930 . S
H617 C598 0.930 . S
H618 C653 0.929 . S
N619 Tb588 2.660 . S
N619 C620 1.305 . S
N619 C624 1.360 . S
C620 H612 0.930 . S
C620 N619 1.305 . S
C620 C623 1.407 . S
C621 H615 0.930 . S
C621 C622 1.410 . S
C621 C623 1.345 . S
C622 C621 1.410 . S
C622 C624 1.417 . S
C622 C654 1.432 . S
C623 H609 0.930 . S
C623 C620 1.407 . S
C623 C621 1.345 . S
C624 N619 1.360 . S
C624 C622 1.417 . S
C624 C628 1.432 . S
H625 C630 0.930 . S
N626 Tb588 2.600 . S
N626 C628 1.359 . S
N626 C629 1.327 . S
C627 H613 0.931 . S
C627 C629 1.392 . S
C627 C630 1.370 . S
C628 C624 1.432 . S
C628 N626 1.359 . S
C628 C631 1.414 . S
C629 H611 0.930 . S
C629 N626 1.327 . S
C629 C627 1.392 . S
C630 H625 0.930 . S
C630 C627 1.370 . S
C630 C631 1.385 . S
C631 C628 1.414 . S
C631 C630 1.385 . S
C631 C653 1.444 . S
O632 Tb588 2.546 . S
O632 C652 1.251 . S
O633 Tb588 2.610 . S
O633 Tb599 2.362 . S
O633 C644 1.283 . S
O634 Tb599 2.421 . S
O634 C651 1.262 . S
O635 Tb588 2.320 . S
O635 C651 1.260 . S
O636 Tb588 2.552 . S
O636 C644 1.243 . S
O637 Tb588 2.413 . S
O637 C652 1.256 . S
O638 Tb599 2.546 . S
O638 C663 1.251 . S
O639 Tb588 2.362 . S
O639 Tb599 2.610 . S
O639 C655 1.283 . S
O640 Tb588 2.421 . S
O640 C662 1.262 . S
O641 Tb599 2.320 . S
O641 C662 1.260 . S
O642 Tb599 2.552 . S
O642 C655 1.243 . S
O643 Tb599 2.413 . S
O643 C663 1.256 . S
C644 O633 1.283 . S
C644 O636 1.243 . S
C645 C647 1.382 . S
C645 C649 1.393 . S
C645 C652 1.500 . S
C646 C647 1.400 . S
C646 C648 1.384 . S
C647 C645 1.382 . S
C647 C646 1.400 . S
C647 H664 0.930 . S
C648 C646 1.384 . S
C648 C650 1.392 . S
C648 H665 0.931 . S
C649 C645 1.393 . S
C649 C650 1.401 . S
C649 H666 0.930 . S
C650 C648 1.392 . S
C650 C649 1.401 . S
C650 H667 0.930 . S
C651 O634 1.262 . S
C651 O635 1.260 . S
C652 Tb588 2.833 . S
C652 O632 1.251 . S
C652 O637 1.256 . S
C652 C645 1.500 . S
C653 H618 0.929 . S
C653 C631 1.444 . S
C653 C654 1.317 . S
C654 H616 0.930 . S
C654 C622 1.432 . S
C654 C653 1.317 . S
C655 O639 1.283 . S
C655 O642 1.243 . S
C656 C657 1.382 . S
C656 C660 1.393 . S
C656 C663 1.500 . S
C657 C656 1.382 . S
C657 C658 1.400 . S
C657 H668 0.930 . S
C658 C657 1.400 . S
C658 C659 1.384 . S
C659 C658 1.384 . S
C659 C661 1.392 . S
C659 H669 0.931 . S
C660 C656 1.393 . S
C660 C661 1.401 . S
C660 H670 0.930 . S
C661 C659 1.392 . S
C661 C660 1.401 . S
C661 H671 0.930 . S
C662 O640 1.262 . S
C662 O641 1.260 . S
C663 Tb599 2.833 . S
C663 O638 1.251 . S
C663 O643 1.256 . S
C663 C656 1.500 . S
H664 C647 0.930 . S
H665 C648 0.931 . S
H666 C649 0.930 . S
H667 C650 0.930 . S
H668 C657 0.930 . S
H669 C659 0.931 . S
H670 C660 0.930 . S
H671 C661 0.930 . S
Tb672 N703 2.660 . S
Tb672 N710 2.600 . S
Tb672 O716 2.546 . S
Tb672 O717 2.610 . S
Tb672 O719 2.320 . S
Tb672 O720 2.552 . S
Tb672 O721 2.413 . S
Tb672 O723 2.362 . S
Tb672 O724 2.421 . S
Tb672 C736 2.833 . S
C673 C676 1.432 . S
C673 C677 1.414 . S
C673 N680 1.359 . S
C674 C676 1.417 . S
C674 C678 1.432 . S
C674 C686 1.410 . S
C675 C677 1.444 . S
C675 C678 1.317 . S
C675 H698 0.929 . S
C676 C673 1.432 . S
C676 C674 1.417 . S
C676 N684 1.360 . S
C677 C673 1.414 . S
C677 C675 1.444 . S
C677 C682 1.385 . S
C678 C674 1.432 . S
C678 C675 1.317 . S
C678 H690 0.930 . S
C679 C681 1.392 . S
C679 C682 1.370 . S
C679 H691 0.931 . S
N680 C673 1.359 . S
N680 C681 1.327 . S
N680 Tb683 2.600 . S
C681 C679 1.392 . S
C681 N680 1.327 . S
C681 H688 0.930 . S
C682 C677 1.385 . S
C682 C679 1.370 . S
C682 H701 0.930 . S
Tb683 N680 2.600 . S
Tb683 N684 2.660 . S
Tb683 O717 2.362 1_565 S
Tb683 O718 2.421 1_565 S
Tb683 O722 2.546 . S
Tb683 O723 2.610 1_565 S
Tb683 O725 2.320 . S
Tb683 O726 2.546 . S
Tb683 O727 2.413 . S
Tb683 C747 2.833 . S
N684 C676 1.360 . S
N684 Tb683 2.660 . S
N684 C685 1.305 . S
C685 N684 1.305 . S
C685 C687 1.400 1_455 S
C685 H692 0.930 . S
C686 C674 1.410 . S
C686 C687 1.338 1_455 S
C686 H694 0.930 1_455 S
C687 C685 1.400 1_655 S
C687 C686 1.338 1_655 S
C687 H689 0.944 . S
H688 C681 0.930 . S
H689 C687 0.944 . S
H690 C678 0.930 . S
H691 C679 0.931 . S
H692 C685 0.930 . S
H693 C707 0.930 . S
H694 C686 0.930 1_655 S
H695 C713 0.930 . S
H696 C704 0.930 . S
H697 C711 0.931 1_655 S
H698 C675 0.929 . S
H699 C705 0.930 . S
H700 C738 0.930 . S
H701 C682 0.930 . S
H702 C737 0.929 . S
N703 Tb672 2.660 . S
N703 C704 1.305 . S
N703 C708 1.360 . S
C704 H696 0.930 . S
C704 N703 1.305 . S
C704 C707 1.407 . S
C705 H699 0.930 . S
C705 C706 1.410 . S
C705 C707 1.345 . S
C706 C705 1.410 . S
C706 C708 1.417 . S
C706 C738 1.432 . S
C707 H693 0.930 . S
C707 C704 1.407 . S
C707 C705 1.345 . S
C708 N703 1.360 . S
C708 C706 1.417 . S
C708 C712 1.432 . S
H709 C714 0.930 . S
N710 Tb672 2.600 . S
N710 C712 1.359 . S
N710 C713 1.327 . S
C711 H697 0.931 1_455 S
C711 C713 1.392 . S
C711 C714 1.370 . S
C712 C708 1.432 . S
C712 N710 1.359 . S
C712 C715 1.414 . S
C713 H695 0.930 . S
C713 N710 1.327 . S
C713 C711 1.392 . S
C714 H709 0.930 . S
C714 C711 1.370 . S
C714 C715 1.385 . S
C715 C712 1.414 . S
C715 C714 1.385 . S
C715 C737 1.444 . S
O716 Tb672 2.546 . S
O716 C736 1.251 . S
O717 Tb672 2.610 . S
O717 Tb683 2.362 1_545 S
O717 C728 1.283 . S
O718 Tb683 2.421 1_545 S
O718 C735 1.262 . S
O719 Tb672 2.320 . S
O719 C735 1.260 . S
O720 Tb672 2.552 . S
O720 C728 1.243 . S
O721 Tb672 2.413 . S
O721 C736 1.256 . S
O722 Tb683 2.546 . S
O722 C747 1.251 . S
O723 Tb672 2.362 . S
O723 Tb683 2.610 1_545 S
O723 C739 1.283 . S
O724 Tb672 2.421 . S
O724 C746 1.262 . S
O725 Tb683 2.320 . S
O725 C746 1.260 1_565 S
O726 Tb683 2.546 . S
O726 C739 1.214 1_565 S
O727 Tb683 2.413 . S
O727 C747 1.256 . S
C728 O717 1.283 . S
C728 O720 1.243 . S
C729 C731 1.382 . S
C729 C733 1.393 . S
C729 C736 1.500 . S
C730 C731 1.400 . S
C730 C732 1.384 . S
C731 C729 1.382 . S
C731 C730 1.400 . S
C731 H748 0.930 . S
C732 C730 1.384 . S
C732 C734 1.392 . S
C732 H749 0.931 . S
C733 C729 1.393 . S
C733 C734 1.401 . S
C733 H750 0.930 . S
C734 C732 1.392 . S
C734 C733 1.401 . S
C734 H751 0.930 . S
C735 O718 1.262 . S
C735 O719 1.260 . S
C736 Tb672 2.833 . S
C736 O716 1.251 . S
C736 O721 1.256 . S
C736 C729 1.500 . S
C737 H702 0.929 . S
C737 C715 1.444 . S
C737 C738 1.317 . S
C738 H700 0.930 . S
C738 C706 1.432 . S
C738 C737 1.317 . S
C739 O723 1.283 . S
C739 O726 1.214 1_545 S
C740 C741 1.382 . S
C740 C744 1.393 . S
C740 C747 1.500 . S
C741 C740 1.382 . S
C741 C742 1.400 . S
C741 H752 0.930 . S
C742 C741 1.400 . S
C742 C743 1.384 . S
C743 C742 1.384 . S
C743 C745 1.392 . S
C743 H753 0.931 . S
C744 C740 1.393 . S
C744 C745 1.401 . S
C744 H754 0.930 . S
C745 C743 1.392 . S
C745 C744 1.401 . S
C745 H755 0.930 . S
C746 O724 1.262 . S
C746 O725 1.260 1_545 S
C747 Tb683 2.833 . S
C747 O722 1.251 . S
C747 O727 1.256 . S
C747 C740 1.500 . S
H748 C731 0.930 . S
H749 C732 0.931 . S
H750 C733 0.930 . S
H751 C734 0.930 . S
H752 C741 0.930 . S
H753 C743 0.931 . S
H754 C744 0.930 . S
H755 C745 0.930 . S
Tb756 N787 2.660 . S
Tb756 N794 2.600 . S
Tb756 O800 2.546 . S
Tb756 O801 2.610 . S
Tb756 O803 2.320 . S
Tb756 O804 2.552 . S
Tb756 O805 2.413 . S
Tb756 O807 2.362 . S
Tb756 O808 2.421 . S
Tb756 C820 2.833 . S
C757 C760 1.432 . S
C757 C761 1.414 . S
C757 N764 1.359 . S
C758 C760 1.417 . S
C758 C762 1.432 . S
C758 C770 1.410 . S
C759 C761 1.444 . S
C759 C762 1.317 . S
C759 H782 0.929 . S
C760 C757 1.432 . S
C760 C758 1.417 . S
C760 N768 1.360 . S
C761 C757 1.414 . S
C761 C759 1.444 . S
C761 C766 1.385 . S
C762 C758 1.432 . S
C762 C759 1.317 . S
C762 H774 0.930 . S
C763 C765 1.392 . S
C763 C766 1.370 . S
C763 H775 0.931 . S
N764 C757 1.359 . S
N764 C765 1.327 . S
N764 Tb767 2.600 . S
C765 C763 1.392 . S
C765 N764 1.327 . S
C765 H772 0.930 . S
C766 C761 1.385 . S
C766 C763 1.370 . S
C766 H785 0.930 . S
Tb767 N764 2.600 . S
Tb767 N768 2.660 . S
Tb767 O801 2.362 . S
Tb767 O802 2.421 . S
Tb767 O806 2.546 . S
Tb767 O807 2.610 . S
Tb767 O809 2.320 . S
Tb767 O810 2.552 . S
Tb767 O811 2.413 . S
Tb767 C831 2.833 . S
N768 C760 1.360 . S
N768 Tb767 2.660 . S
N768 C769 1.305 . S
C769 N768 1.305 . S
C769 C771 1.407 . S
C769 H776 0.930 . S
C770 C758 1.410 . S
C770 C771 1.345 . S
C770 H778 0.930 . S
C771 C769 1.407 . S
C771 C770 1.345 . S
C771 H773 0.930 . S
H772 C765 0.930 . S
H773 C771 0.930 . S
H774 C762 0.930 . S
H775 C763 0.931 . S
H776 C769 0.930 . S
H777 C791 0.930 . S
H778 C770 0.930 . S
H779 C797 0.930 . S
H780 C788 0.930 . S
H781 C795 0.931 . S
H782 C759 0.929 . S
H783 C789 0.930 . S
H784 C822 0.930 . S
H785 C766 0.930 . S
H786 C821 0.929 . S
N787 Tb756 2.660 . S
N787 C788 1.305 . S
N787 C792 1.360 . S
C788 H780 0.930 . S
C788 N787 1.305 . S
C788 C791 1.407 . S
C789 H783 0.930 . S
C789 C790 1.410 . S
C789 C791 1.345 . S
C790 C789 1.410 . S
C790 C792 1.417 . S
C790 C822 1.432 . S
C791 H777 0.930 . S
C791 C788 1.407 . S
C791 C789 1.345 . S
C792 N787 1.360 . S
C792 C790 1.417 . S
C792 C796 1.432 . S
H793 C798 0.930 . S
N794 Tb756 2.600 . S
N794 C796 1.359 . S
N794 C797 1.327 . S
C795 H781 0.931 . S
C795 C797 1.392 . S
C795 C798 1.370 . S
C796 C792 1.432 . S
C796 N794 1.359 . S
C796 C799 1.414 . S
C797 H779 0.930 . S
C797 N794 1.327 . S
C797 C795 1.392 . S
C798 H793 0.930 . S
C798 C795 1.370 . S
C798 C799 1.385 . S
C799 C796 1.414 . S
C799 C798 1.385 . S
C799 C821 1.444 . S
O800 Tb756 2.546 . S
O800 C820 1.251 . S
O801 Tb756 2.610 . S
O801 Tb767 2.362 . S
O801 C812 1.283 . S
O802 Tb767 2.421 . S
O802 C819 1.262 . S
O803 Tb756 2.320 . S
O803 C819 1.260 . S
O804 Tb756 2.552 . S
O804 C812 1.243 . S
O805 Tb756 2.413 . S
O805 C820 1.256 . S
O806 Tb767 2.546 . S
O806 C831 1.251 . S
O807 Tb756 2.362 . S
O807 Tb767 2.610 . S
O807 C823 1.283 . S
O808 Tb756 2.421 . S
O808 C830 1.262 . S
O809 Tb767 2.320 . S
O809 C830 1.260 . S
O810 Tb767 2.552 . S
O810 C823 1.243 . S
O811 Tb767 2.413 . S
O811 C831 1.256 . S
C812 O801 1.283 . S
C812 O804 1.243 . S
C813 C815 1.382 . S
C813 C817 1.393 . S
C813 C820 1.500 . S
C814 C815 1.400 . S
C814 C816 1.384 . S
C815 C813 1.382 . S
C815 C814 1.400 . S
C815 H832 0.930 . S
C816 C814 1.384 . S
C816 C818 1.392 . S
C816 H833 0.931 . S
C817 C813 1.393 . S
C817 C818 1.401 . S
C817 H834 0.930 . S
C818 C816 1.392 . S
C818 C817 1.401 . S
C818 H835 0.930 . S
C819 O802 1.262 . S
C819 O803 1.260 . S
C820 Tb756 2.833 . S
C820 O800 1.251 . S
C820 O805 1.256 . S
C820 C813 1.500 . S
C821 H786 0.929 . S
C821 C799 1.444 . S
C821 C822 1.317 . S
C822 H784 0.930 . S
C822 C790 1.432 . S
C822 C821 1.317 . S
C823 O807 1.283 . S
C823 O810 1.243 . S
C824 C825 1.382 . S
C824 C828 1.393 . S
C824 C831 1.500 . S
C825 C824 1.382 . S
C825 C826 1.400 . S
C825 H836 0.930 . S
C826 C825 1.400 . S
C826 C827 1.384 . S
C827 C826 1.384 . S
C827 C829 1.392 . S
C827 H837 0.931 . S
C828 C824 1.393 . S
C828 C829 1.401 . S
C828 H838 0.930 . S
C829 C827 1.392 . S
C829 C828 1.401 . S
C829 H839 0.930 . S
C830 O808 1.262 . S
C830 O809 1.260 . S
C831 Tb767 2.833 . S
C831 O806 1.251 . S
C831 O811 1.256 . S
C831 C824 1.500 . S
H832 C815 0.930 . S
H833 C816 0.931 . S
H834 C817 0.930 . S
H835 C818 0.930 . S
H836 C825 0.930 . S
H837 C827 0.931 . S
H838 C828 0.930 . S
H839 C829 0.930 . S
Tb840 N871 2.660 . S
Tb840 N878 2.600 . S
Tb840 O884 2.546 1_545 S
Tb840 O885 2.610 . S
Tb840 O887 2.320 . S
Tb840 O888 2.552 . S
Tb840 O889 2.413 . S
Tb840 O891 2.362 . S
Tb840 O892 2.421 1_545 S
Tb840 C904 2.833 . S
C841 C844 1.432 . S
C841 C845 1.414 . S
C841 N848 1.359 . S
C842 C844 1.417 . S
C842 C846 1.432 . S
C842 C854 1.410 1_545 S
C843 C845 1.444 . S
C843 C846 1.317 . S
C843 H866 0.929 . S
C844 C841 1.432 . S
C844 C842 1.417 . S
C844 N852 1.360 . S
C845 C841 1.414 . S
C845 C843 1.444 . S
C845 C850 1.385 . S
C846 C842 1.432 . S
C846 C843 1.317 . S
C846 H858 0.930 . S
C847 C849 1.392 . S
C847 C850 1.370 . S
C847 H859 0.931 . S
N848 C841 1.359 . S
N848 C849 1.327 . S
N848 Tb851 2.600 . S
C849 C847 1.392 . S
C849 N848 1.327 . S
C849 H856 0.930 . S
C850 C845 1.385 . S
C850 C847 1.370 . S
C850 H869 0.930 . S
Tb851 N848 2.600 . S
Tb851 N852 2.660 . S
Tb851 O885 2.362 1_556 S
Tb851 O886 2.421 1_556 S
Tb851 O890 2.546 . S
Tb851 O891 2.610 1_556 S
Tb851 O893 2.320 . S
Tb851 O894 2.552 . S
Tb851 O895 2.413 . S
Tb851 C915 2.833 . S
N852 C844 1.360 . S
N852 Tb851 2.660 . S
N852 C853 1.305 1_545 S
C853 N852 1.305 1_565 S
C853 C855 1.407 . S
C853 H860 0.930 . S
C854 C842 1.410 1_565 S
C854 C855 1.345 . S
C854 H862 0.930 . S
C855 C853 1.407 . S
C855 C854 1.345 . S
C855 H857 0.930 . S
H856 C849 0.930 . S
H857 C855 0.930 . S
H858 C846 0.930 . S
H859 C847 0.931 . S
H860 C853 0.930 . S
H861 C875 0.930 . S
H862 C854 0.930 . S
H863 C881 0.930 . S
H864 C872 0.930 . S
H865 C879 0.931 . S
H866 C843 0.929 . S
H867 C873 0.930 . S
H868 C906 0.930 . S
H869 C850 0.930 . S
H870 C905 0.929 . S
N871 Tb840 2.660 . S
N871 C872 1.305 . S
N871 C876 1.360 . S
C872 H864 0.930 . S
C872 N871 1.305 . S
C872 C875 1.407 . S
C873 H867 0.930 . S
C873 C874 1.410 . S
C873 C875 1.345 . S
C874 C873 1.410 . S
C874 C876 1.417 . S
C874 C906 1.432 . S
C875 H861 0.930 . S
C875 C872 1.407 . S
C875 C873 1.345 . S
C876 N871 1.360 . S
C876 C874 1.417 . S
C876 C880 1.432 . S
H877 C882 0.930 . S
N878 Tb840 2.600 . S
N878 C880 1.359 . S
N878 C881 1.327 1_545 S
C879 H865 0.931 . S
C879 C881 1.392 . S
C879 C882 1.370 . S
C880 C876 1.432 . S
C880 N878 1.359 . S
C880 C883 1.414 . S
C881 H863 0.930 . S
C881 N878 1.327 1_565 S
C881 C879 1.392 . S
C882 H877 0.930 . S
C882 C879 1.370 . S
C882 C883 1.385 1_565 S
C883 C880 1.414 . S
C883 C882 1.385 1_545 S
C883 C905 1.444 . S
O884 Tb840 2.546 1_565 S
O884 C904 1.251 1_565 S
O885 Tb840 2.610 . S
O885 Tb851 2.362 1_554 S
O885 C896 1.283 . S
O886 Tb851 2.421 1_554 S
O886 C903 1.262 . S
O887 Tb840 2.320 . S
O887 C903 1.260 . S
O888 Tb840 2.552 . S
O888 C896 1.243 . S
O889 Tb840 2.413 . S
O889 C904 1.256 . S
O890 Tb851 2.546 . S
O890 C915 1.251 . S
O891 Tb840 2.362 . S
O891 Tb851 2.610 1_554 S
O891 C907 1.283 . S
O892 Tb840 2.421 1_565 S
O892 C914 1.262 1_554 S
O893 Tb851 2.320 . S
O893 C914 1.260 1_545 S
O894 Tb851 2.552 . S
O894 C907 1.243 1_556 S
O895 Tb851 2.413 . S
O895 C915 1.256 . S
C896 O885 1.283 . S
C896 O888 1.243 . S
C897 C899 1.382 1_565 S
C897 C901 1.393 . S
C897 C904 1.500 1_565 S
C898 C899 1.400 . S
C898 C900 1.384 1_545 S
C899 C897 1.382 1_545 S
C899 C898 1.400 . S
C899 H916 0.930 . S
C900 C898 1.384 1_565 S
C900 C902 1.392 . S
C900 H917 0.931 . S
C901 C897 1.393 . S
C901 C902 1.401 . S
C901 H918 0.930 . S
C902 C900 1.392 . S
C902 C901 1.401 . S
C902 H919 0.930 . S
C903 O886 1.262 . S
C903 O887 1.260 . S
C904 Tb840 2.833 . S
C904 O884 1.251 1_545 S
C904 O889 1.256 . S
C904 C897 1.500 1_545 S
C905 H870 0.929 . S
C905 C883 1.444 . S
C905 C906 1.317 . S
C906 H868 0.930 . S
C906 C874 1.432 . S
C906 C905 1.317 . S
C907 O891 1.283 . S
C907 O894 1.243 1_554 S
C908 C909 1.382 . S
C908 C912 1.393 . S
C908 C915 1.500 . S
C909 C908 1.382 . S
C909 C910 1.400 . S
C909 H920 0.930 . S
C910 C909 1.400 . S
C910 C911 1.384 . S
C911 C910 1.384 . S
C911 C913 1.392 . S
C911 H921 0.931 . S
C912 C908 1.393 . S
C912 C913 1.401 . S
C912 H922 0.930 . S
C913 C911 1.392 . S
C913 C912 1.401 . S
C913 H923 0.930 . S
C914 O892 1.262 1_556 S
C914 O893 1.260 1_565 S
C915 Tb851 2.833 . S
C915 O890 1.251 . S
C915 O895 1.256 . S
C915 C908 1.500 . S
H916 C899 0.930 . S
H917 C900 0.931 . S
H918 C901 0.930 . S
H919 C902 0.930 . S
H920 C909 0.930 . S
H921 C911 0.931 . S
H922 C912 0.930 . S
H923 C913 0.930 . S
Tb924 N955 2.660 . S
Tb924 N962 2.600 . S
Tb924 O968 2.546 . S
Tb924 O969 2.610 . S
Tb924 O971 2.320 . S
Tb924 O972 2.552 . S
Tb924 O973 2.413 . S
Tb924 O975 2.362 . S
Tb924 O976 2.421 . S
Tb924 C988 2.833 . S
C925 C928 1.432 . S
C925 C929 1.414 . S
C925 N932 1.359 . S
C926 C928 1.417 . S
C926 C930 1.432 . S
C926 C938 1.410 . S
C927 C929 1.444 . S
C927 C930 1.317 . S
C927 H950 0.929 . S
C928 C925 1.432 . S
C928 C926 1.417 . S
C928 N936 1.360 . S
C929 C925 1.414 . S
C929 C927 1.444 . S
C929 C934 1.385 . S
C930 C926 1.432 . S
C930 C927 1.317 . S
C930 H942 0.930 . S
C931 C933 1.392 . S
C931 C934 1.370 . S
C931 H943 0.931 . S
N932 C925 1.359 . S
N932 C933 1.327 . S
N932 Tb935 2.600 . S
C933 C931 1.392 . S
C933 N932 1.327 . S
C933 H940 0.930 . S
C934 C929 1.385 . S
C934 C931 1.370 . S
C934 H953 0.930 . S
Tb935 N932 2.600 . S
Tb935 N936 2.660 . S
Tb935 O969 2.362 . S
Tb935 O970 2.421 . S
Tb935 O974 2.546 . S
Tb935 O975 2.610 . S
Tb935 O977 2.320 . S
Tb935 O978 2.552 . S
Tb935 O979 2.413 . S
Tb935 C999 2.833 . S
N936 C928 1.360 . S
N936 Tb935 2.660 . S
N936 C937 1.305 . S
C937 N936 1.305 . S
C937 C939 1.407 . S
C937 H944 0.930 . S
C938 C926 1.410 . S
C938 C939 1.345 . S
C938 H946 0.930 . S
C939 C937 1.407 . S
C939 C938 1.345 . S
C939 H941 0.930 . S
H940 C933 0.930 . S
H941 C939 0.930 . S
H942 C930 0.930 . S
H943 C931 0.931 . S
H944 C937 0.930 . S
H945 C959 0.930 . S
H946 C938 0.930 . S
H947 C965 0.930 . S
H948 C956 0.930 . S
H949 C963 0.931 . S
H950 C927 0.929 . S
H951 C957 0.930 . S
H952 C990 0.930 . S
H953 C934 0.930 . S
H954 C989 0.929 . S
N955 Tb924 2.660 . S
N955 C956 1.305 . S
N955 C960 1.360 . S
C956 H948 0.930 . S
C956 N955 1.305 . S
C956 C959 1.407 . S
C957 H951 0.930 . S
C957 C958 1.410 . S
C957 C959 1.345 . S
C958 C957 1.410 . S
C958 C960 1.417 . S
C958 C990 1.432 . S
C959 H945 0.930 . S
C959 C956 1.407 . S
C959 C957 1.345 . S
C960 N955 1.360 . S
C960 C958 1.417 . S
C960 C964 1.432 . S
H961 C966 0.930 . S
N962 Tb924 2.600 . S
N962 C964 1.359 . S
N962 C965 1.327 . S
C963 H949 0.931 . S
C963 C965 1.392 . S
C963 C966 1.370 . S
C964 C960 1.432 . S
C964 N962 1.359 . S
C964 C967 1.414 . S
C965 H947 0.930 . S
C965 N962 1.327 . S
C965 C963 1.392 . S
C966 H961 0.930 . S
C966 C963 1.370 . S
C966 C967 1.385 . S
C967 C964 1.414 . S
C967 C966 1.385 . S
C967 C989 1.444 . S
O968 Tb924 2.546 . S
O968 C988 1.251 . S
O969 Tb924 2.610 . S
O969 Tb935 2.362 . S
O969 C980 1.283 . S
O970 Tb935 2.421 . S
O970 C987 1.262 . S
O971 Tb924 2.320 . S
O971 C987 1.260 . S
O972 Tb924 2.552 . S
O972 C980 1.243 . S
O973 Tb924 2.413 . S
O973 C988 1.256 . S
O974 Tb935 2.546 . S
O974 C999 1.251 . S
O975 Tb924 2.362 . S
O975 Tb935 2.610 . S
O975 C991 1.283 . S
O976 Tb924 2.421 . S
O976 C998 1.262 . S
O977 Tb935 2.320 . S
O977 C998 1.260 . S
O978 Tb935 2.552 . S
O978 C991 1.243 . S
O979 Tb935 2.413 . S
O979 C999 1.256 . S
C980 O969 1.283 . S
C980 O972 1.243 . S
C981 C983 1.382 . S
C981 C985 1.393 . S
C981 C988 1.500 . S
C982 C983 1.400 . S
C982 C984 1.384 . S
C983 C981 1.382 . S
C983 C982 1.400 . S
C983 H1000 0.930 . S
C984 C982 1.384 . S
C984 C986 1.392 . S
C984 H1001 0.931 . S
C985 C981 1.393 . S
C985 C986 1.401 . S
C985 H1002 0.930 . S
C986 C984 1.392 . S
C986 C985 1.401 . S
C986 H1003 0.930 . S
C987 O970 1.262 . S
C987 O971 1.260 . S
C988 Tb924 2.833 . S
C988 O968 1.251 . S
C988 O973 1.256 . S
C988 C981 1.500 . S
C989 H954 0.929 . S
C989 C967 1.444 . S
C989 C990 1.317 . S
C990 H952 0.930 . S
C990 C958 1.432 . S
C990 C989 1.317 . S
C991 O975 1.283 . S
C991 O978 1.243 . S
C992 C993 1.382 . S
C992 C996 1.393 . S
C992 C999 1.500 . S
C993 C992 1.382 . S
C993 C994 1.400 . S
C993 H1004 0.930 . S
C994 C993 1.400 . S
C994 C995 1.384 . S
C995 C994 1.384 . S
C995 C997 1.392 . S
C995 H1005 0.931 . S
C996 C992 1.393 . S
C996 C997 1.401 . S
C996 H1006 0.930 . S
C997 C995 1.392 . S
C997 C996 1.401 . S
C997 H1007 0.930 . S
C998 O976 1.262 . S
C998 O977 1.260 . S
C999 Tb935 2.833 . S
C999 O974 1.251 . S
C999 O979 1.256 . S
C999 C992 1.500 . S
H1000 C983 0.930 . S
H1001 C984 0.931 . S
H1002 C985 0.930 . S
H1003 C986 0.930 . S
H1004 C993 0.930 . S
H1005 C995 0.931 . S
H1006 C996 0.930 . S
H1007 C997 0.930 . S
Tb1008 N1039 2.660 . S
Tb1008 N1046 2.600 . S
Tb1008 O1052 2.546 . S
Tb1008 O1053 2.610 1_554 S
Tb1008 O1055 2.320 . S
Tb1008 O1056 2.552 1_554 S
Tb1008 O1057 2.413 . S
Tb1008 O1059 2.362 . S
Tb1008 O1060 2.421 . S
Tb1008 C1072 2.833 . S
C1009 C1012 1.432 . S
C1009 C1013 1.414 . S
C1009 N1016 1.359 . S
C1010 C1012 1.417 . S
C1010 C1014 1.432 . S
C1010 C1022 1.410 . S
C1011 C1013 1.444 . S
C1011 C1014 1.317 . S
C1011 H1034 0.929 . S
C1012 C1009 1.432 . S
C1012 C1010 1.417 . S
C1012 N1020 1.360 . S
C1013 C1009 1.414 . S
C1013 C1011 1.444 . S
C1013 C1018 1.385 . S
C1014 C1010 1.432 . S
C1014 C1011 1.317 . S
C1014 H1026 0.930 . S
C1015 C1017 1.392 . S
C1015 C1018 1.370 . S
C1015 H1027 0.931 . S
N1016 C1009 1.359 . S
N1016 C1017 1.327 . S
N1016 Tb1019 2.600 1_556 S
C1017 C1015 1.392 . S
C1017 N1016 1.327 . S
C1017 H1024 0.930 . S
C1018 C1013 1.385 . S
C1018 C1015 1.370 . S
C1018 H1037 0.930 . S
Tb1019 N1016 2.600 1_554 S
Tb1019 N1020 2.660 1_554 S
Tb1019 O1053 2.362 1_554 S
Tb1019 O1054 2.421 . S
Tb1019 O1058 2.546 . S
Tb1019 O1059 2.610 . S
Tb1019 O1061 2.320 . S
Tb1019 O1062 2.552 . S
Tb1019 O1063 2.413 . S
Tb1019 C1083 2.833 . S
N1020 C1012 1.360 . S
N1020 Tb1019 2.660 1_556 S
N1020 C1021 1.305 . S
C1021 N1020 1.305 . S
C1021 C1023 1.407 . S
C1021 H1028 0.930 . S
C1022 C1010 1.410 . S
C1022 C1023 1.345 . S
C1022 H1030 0.930 . S
C1023 C1021 1.407 . S
C1023 C1022 1.345 . S
C1023 H1025 0.930 . S
H1024 C1017 0.930 . S
H1025 C1023 0.930 . S
H1026 C1014 0.930 . S
H1027 C1015 0.931 . S
H1028 C1021 0.930 . S
H1029 C1043 0.930 . S
H1030 C1022 0.930 . S
H1031 C1049 0.930 . S
H1032 C1040 0.930 . S
H1033 C1047 0.931 . S
H1034 C1011 0.929 . S
H1035 C1041 0.930 . S
H1036 C1074 0.930 . S
H1037 C1018 0.930 . S
H1038 C1073 0.929 . S
N1039 Tb1008 2.660 . S
N1039 C1040 1.305 . S
N1039 C1044 1.360 . S
C1040 H1032 0.930 . S
C1040 N1039 1.305 . S
C1040 C1043 1.407 . S
C1041 H1035 0.930 . S
C1041 C1042 1.410 . S
C1041 C1043 1.345 . S
C1042 C1041 1.410 . S
C1042 C1044 1.417 . S
C1042 C1074 1.432 . S
C1043 H1029 0.930 . S
C1043 C1040 1.407 . S
C1043 C1041 1.345 . S
C1044 N1039 1.360 . S
C1044 C1042 1.417 . S
C1044 C1048 1.432 . S
H1045 C1050 0.930 . S
N1046 Tb1008 2.600 . S
N1046 C1048 1.359 . S
N1046 C1049 1.327 . S
C1047 H1033 0.931 . S
C1047 C1049 1.392 . S
C1047 C1050 1.370 . S
C1048 C1044 1.432 . S
C1048 N1046 1.359 . S
C1048 C1051 1.414 . S
C1049 H1031 0.930 . S
C1049 N1046 1.327 . S
C1049 C1047 1.392 . S
C1050 H1045 0.930 . S
C1050 C1047 1.370 . S
C1050 C1051 1.385 . S
C1051 C1048 1.414 . S
C1051 C1050 1.385 . S
C1051 C1073 1.444 . S
O1052 Tb1008 2.546 . S
O1052 C1072 1.251 . S
O1053 Tb1008 2.610 1_556 S
O1053 Tb1019 2.362 1_556 S
O1053 C1064 1.283 . S
O1054 Tb1019 2.421 . S
O1054 C1071 1.262 . S
O1055 Tb1008 2.320 . S
O1055 C1071 1.260 . S
O1056 Tb1008 2.552 1_556 S
O1056 C1064 1.243 . S
O1057 Tb1008 2.413 . S
O1057 C1072 1.256 . S
O1058 Tb1019 2.546 . S
O1058 C1083 1.251 . S
O1059 Tb1008 2.362 . S
O1059 Tb1019 2.610 . S
O1059 C1075 1.283 . S
O1060 Tb1008 2.421 . S
O1060 C1082 1.262 . S
O1061 Tb1019 2.320 . S
O1061 C1082 1.260 . S
O1062 Tb1019 2.552 . S
O1062 C1075 1.243 . S
O1063 Tb1019 2.413 . S
O1063 C1083 1.256 . S
C1064 O1053 1.283 . S
C1064 O1056 1.243 . S
C1065 C1067 1.382 . S
C1065 C1069 1.393 . S
C1065 C1072 1.500 . S
C1066 C1067 1.400 1_556 S
C1066 C1068 1.384 1_556 S
C1067 C1065 1.382 . S
C1067 C1066 1.400 1_554 S
C1067 H1084 0.930 1_554 S
C1068 C1066 1.384 1_554 S
C1068 C1070 1.392 . S
C1068 H1085 0.931 . S
C1069 C1065 1.393 . S
C1069 C1070 1.401 . S
C1069 H1086 0.930 . S
C1070 C1068 1.392 . S
C1070 C1069 1.401 . S
C1070 H1087 0.930 . S
C1071 O1054 1.262 . S
C1071 O1055 1.260 . S
C1072 Tb1008 2.833 . S
C1072 O1052 1.251 . S
C1072 O1057 1.256 . S
C1072 C1065 1.500 . S
C1073 H1038 0.929 . S
C1073 C1051 1.444 . S
C1073 C1074 1.317 . S
C1074 H1036 0.930 . S
C1074 C1042 1.432 . S
C1074 C1073 1.317 . S
C1075 O1059 1.283 . S
C1075 O1062 1.243 . S
C1076 C1077 1.382 . S
C1076 C1080 1.393 . S
C1076 C1083 1.500 . S
C1077 C1076 1.382 . S
C1077 C1078 1.400 . S
C1077 H1088 0.930 . S
C1078 C1077 1.400 . S
C1078 C1079 1.384 . S
C1079 C1078 1.384 . S
C1079 C1081 1.392 . S
C1079 H1089 0.931 . S
C1080 C1076 1.393 . S
C1080 C1081 1.401 . S
C1080 H1090 0.938 . S
C1081 C1079 1.392 . S
C1081 C1080 1.401 . S
C1081 H1091 0.930 . S
C1082 O1060 1.262 . S
C1082 O1061 1.260 . S
C1083 Tb1019 2.833 . S
C1083 O1058 1.251 . S
C1083 O1063 1.256 . S
C1083 C1076 1.500 . S
H1084 C1067 0.930 1_556 S
H1085 C1068 0.931 . S
H1086 C1069 0.930 . S
H1087 C1070 0.930 . S
H1088 C1077 0.930 . S
H1089 C1079 0.931 . S
H1090 C1080 0.938 . S
H1091 C1081 0.930 . S
Tb1092 N1123 2.660 . S
Tb1092 N1130 2.600 . S
Tb1092 O1136 2.546 . S
Tb1092 O1137 2.610 . S
Tb1092 O1139 2.320 . S
Tb1092 O1140 2.552 . S
Tb1092 O1141 2.413 . S
Tb1092 O1143 2.362 . S
Tb1092 O1144 2.421 . S
Tb1092 C1156 2.833 . S
C1093 C1096 1.432 . S
C1093 C1097 1.414 . S
C1093 N1100 1.359 . S
C1094 C1096 1.417 . S
C1094 C1098 1.432 . S
C1094 C1106 1.410 . S
C1095 C1097 1.444 . S
C1095 C1098 1.317 . S
C1095 H1118 0.929 . S
C1096 C1093 1.432 . S
C1096 C1094 1.417 . S
C1096 N1104 1.360 . S
C1097 C1093 1.414 . S
C1097 C1095 1.444 . S
C1097 C1102 1.385 . S
C1098 C1094 1.432 . S
C1098 C1095 1.317 . S
C1098 H1110 0.930 . S
C1099 C1101 1.392 . S
C1099 C1102 1.370 . S
C1099 H1111 0.931 . S
N1100 C1093 1.359 . S
N1100 C1101 1.327 . S
N1100 Tb1103 2.600 . S
C1101 C1099 1.392 . S
C1101 N1100 1.327 . S
C1101 H1108 0.930 . S
C1102 C1097 1.385 . S
C1102 C1099 1.370 . S
C1102 H1121 0.930 . S
Tb1103 N1100 2.600 . S
Tb1103 N1104 2.660 . S
Tb1103 O1137 2.362 . S
Tb1103 O1138 2.421 . S
Tb1103 O1142 2.546 . S
Tb1103 O1143 2.610 . S
Tb1103 O1145 2.320 . S
Tb1103 O1146 2.552 . S
Tb1103 O1147 2.413 . S
Tb1103 C1167 2.833 . S
N1104 C1096 1.360 . S
N1104 Tb1103 2.660 . S
N1104 C1105 1.305 . S
C1105 N1104 1.305 . S
C1105 C1107 1.407 . S
C1105 H1112 0.930 . S
C1106 C1094 1.410 . S
C1106 C1107 1.345 . S
C1106 H1114 0.930 . S
C1107 C1105 1.407 . S
C1107 C1106 1.345 . S
C1107 H1109 0.930 . S
H1108 C1101 0.930 . S
H1109 C1107 0.930 . S
H1110 C1098 0.930 . S
H1111 C1099 0.931 . S
H1112 C1105 0.930 . S
H1113 C1127 0.930 . S
H1114 C1106 0.930 . S
H1115 C1133 0.930 . S
H1116 C1124 0.930 . S
H1117 C1131 0.931 . S
H1118 C1095 0.929 . S
H1119 C1125 0.930 . S
H1120 C1158 0.930 . S
H1121 C1102 0.930 . S
H1122 C1157 0.929 . S
N1123 Tb1092 2.660 . S
N1123 C1124 1.305 . S
N1123 C1128 1.360 . S
C1124 H1116 0.930 . S
C1124 N1123 1.305 . S
C1124 C1127 1.407 . S
C1125 H1119 0.930 . S
C1125 C1126 1.410 . S
C1125 C1127 1.345 . S
C1126 C1125 1.410 . S
C1126 C1128 1.417 . S
C1126 C1158 1.432 . S
C1127 H1113 0.930 . S
C1127 C1124 1.407 . S
C1127 C1125 1.345 . S
C1128 N1123 1.360 . S
C1128 C1126 1.417 . S
C1128 C1132 1.432 . S
H1129 C1134 0.930 . S
N1130 Tb1092 2.600 . S
N1130 C1132 1.359 . S
N1130 C1133 1.327 . S
C1131 H1117 0.931 . S
C1131 C1133 1.392 . S
C1131 C1134 1.370 . S
C1132 C1128 1.432 . S
C1132 N1130 1.359 . S
C1132 C1135 1.414 . S
C1133 H1115 0.930 . S
C1133 N1130 1.327 . S
C1133 C1131 1.392 . S
C1134 H1129 0.930 . S
C1134 C1131 1.370 . S
C1134 C1135 1.385 . S
C1135 C1132 1.414 . S
C1135 C1134 1.385 . S
C1135 C1157 1.444 . S
O1136 Tb1092 2.546 . S
O1136 C1156 1.251 . S
O1137 Tb1092 2.610 . S
O1137 Tb1103 2.362 . S
O1137 C1148 1.283 . S
O1138 Tb1103 2.421 . S
O1138 C1155 1.262 . S
O1139 Tb1092 2.320 . S
O1139 C1155 1.260 . S
O1140 Tb1092 2.552 . S
O1140 C1148 1.243 . S
O1141 Tb1092 2.413 . S
O1141 C1156 1.256 . S
O1142 Tb1103 2.546 . S
O1142 C1167 1.251 . S
O1143 Tb1092 2.362 . S
O1143 Tb1103 2.610 . S
O1143 C1159 1.283 . S
O1144 Tb1092 2.421 . S
O1144 C1166 1.262 . S
O1145 Tb1103 2.320 . S
O1145 C1166 1.260 . S
O1146 Tb1103 2.552 . S
O1146 C1159 1.243 . S
O1147 Tb1103 2.413 . S
O1147 C1167 1.256 . S
C1148 O1137 1.283 . S
C1148 O1140 1.243 . S
C1149 C1151 1.382 . S
C1149 C1153 1.393 . S
C1149 C1156 1.500 . S
C1150 C1151 1.400 . S
C1150 C1152 1.384 . S
C1151 C1149 1.382 . S
C1151 C1150 1.400 . S
C1151 H1168 0.930 . S
C1152 C1150 1.384 . S
C1152 C1154 1.392 . S
C1152 H1169 0.931 . S
C1153 C1149 1.393 . S
C1153 C1154 1.401 . S
C1153 H1170 0.930 . S
C1154 C1152 1.392 . S
C1154 C1153 1.401 . S
C1154 H1171 0.930 . S
C1155 O1138 1.262 . S
C1155 O1139 1.260 . S
C1156 Tb1092 2.833 . S
C1156 O1136 1.251 . S
C1156 O1141 1.256 . S
C1156 C1149 1.500 . S
C1157 H1122 0.929 . S
C1157 C1135 1.444 . S
C1157 C1158 1.317 . S
C1158 H1120 0.930 . S
C1158 C1126 1.432 . S
C1158 C1157 1.317 . S
C1159 O1143 1.283 . S
C1159 O1146 1.243 . S
C1160 C1161 1.382 . S
C1160 C1164 1.393 . S
C1160 C1167 1.500 . S
C1161 C1160 1.382 . S
C1161 C1162 1.400 . S
C1161 H1172 0.930 . S
C1162 C1161 1.400 . S
C1162 C1163 1.384 . S
C1163 C1162 1.384 . S
C1163 C1165 1.392 . S
C1163 H1173 0.931 . S
C1164 C1160 1.393 . S
C1164 C1165 1.401 . S
C1164 H1174 0.930 . S
C1165 C1163 1.392 . S
C1165 C1164 1.401 . S
C1165 H1175 0.930 . S
C1166 O1144 1.262 . S
C1166 O1145 1.260 . S
C1167 Tb1103 2.833 . S
C1167 O1142 1.251 . S
C1167 O1147 1.256 . S
C1167 C1160 1.500 . S
H1168 C1151 0.930 . S
H1169 C1152 0.931 . S
H1170 C1153 0.930 . S
H1171 C1154 0.930 . S
H1172 C1161 0.930 . S
H1173 C1163 0.931 . S
H1174 C1164 0.930 . S
H1175 C1165 0.930 . S
Tb1176 N1207 2.660 . S
Tb1176 N1214 2.600 . S
Tb1176 O1220 2.546 . S
Tb1176 O1221 2.610 . S
Tb1176 O1223 2.320 . S
Tb1176 O1224 2.552 . S
Tb1176 O1225 2.413 . S
Tb1176 O1227 2.362 . S
Tb1176 O1228 2.421 . S
Tb1176 C1240 2.833 . S
C1177 C1180 1.429 . S
C1177 C1181 1.414 1_455 S
C1177 N1184 1.359 . S
C1178 C1180 1.405 1_655 S
C1178 C1182 1.432 . S
C1178 C1190 1.410 . S
C1179 C1181 1.444 . S
C1179 C1182 1.317 . S
C1179 H1202 0.929 . S
C1180 C1177 1.429 . S
C1180 C1178 1.405 1_455 S
C1180 N1188 1.375 . S
C1181 C1177 1.414 1_655 S
C1181 C1179 1.444 . S
C1181 C1186 1.385 . S
C1182 C1178 1.432 . S
C1182 C1179 1.317 . S
C1182 H1194 0.930 . S
C1183 C1185 1.392 . S
C1183 C1186 1.370 1_455 S
C1183 H1195 0.931 . S
N1184 C1177 1.359 . S
N1184 C1185 1.327 . S
N1184 Tb1187 2.600 . S
C1185 C1183 1.392 . S
C1185 N1184 1.327 . S
C1185 H1192 0.930 . S
C1186 C1181 1.385 . S
C1186 C1183 1.370 1_655 S
C1186 H1205 0.930 . S
Tb1187 N1184 2.600 . S
Tb1187 N1188 2.660 . S
Tb1187 O1221 2.362 . S
Tb1187 O1222 2.421 . S
Tb1187 O1226 2.546 . S
Tb1187 O1227 2.610 . S
Tb1187 O1229 2.320 . S
Tb1187 O1230 2.552 . S
Tb1187 O1231 2.413 . S
Tb1187 C1251 2.833 . S
N1188 C1180 1.375 . S
N1188 Tb1187 2.660 . S
N1188 C1189 1.305 . S
C1189 N1188 1.305 . S
C1189 C1191 1.407 1_455 S
C1189 H1196 0.930 . S
C1190 C1178 1.410 . S
C1190 C1191 1.345 . S
C1190 H1198 0.930 . S
C1191 C1189 1.407 1_655 S
C1191 C1190 1.345 . S
C1191 H1193 0.930 . S
H1192 C1185 0.930 . S
H1193 C1191 0.930 . S
H1194 C1182 0.930 . S
H1195 C1183 0.931 . S
H1196 C1189 0.930 . S
H1197 C1211 0.930 . S
H1198 C1190 0.930 . S
H1199 C1217 0.930 . S
H1200 C1208 0.930 . S
H1201 C1215 0.931 . S
H1202 C1179 0.929 . S
H1203 C1209 0.930 . S
H1204 C1242 0.930 . S
H1205 C1186 0.930 . S
H1206 C1241 0.929 . S
N1207 Tb1176 2.660 . S
N1207 C1208 1.305 . S
N1207 C1212 1.360 . S
C1208 H1200 0.930 . S
C1208 N1207 1.305 . S
C1208 C1211 1.407 . S
C1209 H1203 0.930 . S
C1209 C1210 1.410 . S
C1209 C1211 1.345 . S
C1210 C1209 1.410 . S
C1210 C1212 1.417 . S
C1210 C1242 1.432 . S
C1211 H1197 0.930 . S
C1211 C1208 1.407 . S
C1211 C1209 1.345 . S
C1212 N1207 1.360 . S
C1212 C1210 1.417 . S
C1212 C1216 1.432 . S
H1213 C1218 0.930 . S
N1214 Tb1176 2.600 . S
N1214 C1216 1.359 . S
N1214 C1217 1.327 . S
C1215 H1201 0.931 . S
C1215 C1217 1.392 . S
C1215 C1218 1.370 . S
C1216 C1212 1.432 . S
C1216 N1214 1.359 . S
C1216 C1219 1.414 . S
C1217 H1199 0.930 . S
C1217 N1214 1.327 . S
C1217 C1215 1.392 . S
C1218 H1213 0.930 . S
C1218 C1215 1.370 . S
C1218 C1219 1.385 . S
C1219 C1216 1.414 . S
C1219 C1218 1.385 . S
C1219 C1241 1.444 . S
O1220 Tb1176 2.546 . S
O1220 C1240 1.251 . S
O1221 Tb1176 2.610 . S
O1221 Tb1187 2.362 . S
O1221 C1232 1.283 . S
O1222 Tb1187 2.421 . S
O1222 C1239 1.262 . S
O1223 Tb1176 2.320 . S
O1223 C1239 1.260 . S
O1224 Tb1176 2.552 . S
O1224 C1232 1.243 . S
O1225 Tb1176 2.413 . S
O1225 C1240 1.256 . S
O1226 Tb1187 2.546 . S
O1226 C1251 1.251 . S
O1227 Tb1176 2.362 . S
O1227 Tb1187 2.610 . S
O1227 C1243 1.283 . S
O1228 Tb1176 2.421 . S
O1228 C1250 1.262 . S
O1229 Tb1187 2.320 . S
O1229 C1250 1.260 . S
O1230 Tb1187 2.552 . S
O1230 C1243 1.243 . S
O1231 Tb1187 2.413 . S
O1231 C1251 1.256 . S
C1232 O1221 1.283 . S
C1232 O1224 1.243 . S
C1233 C1235 1.382 . S
C1233 C1237 1.393 . S
C1233 C1240 1.500 . S
C1234 C1235 1.400 . S
C1234 C1236 1.384 . S
C1235 C1233 1.382 . S
C1235 C1234 1.400 . S
C1235 H1252 0.930 . S
C1236 C1234 1.384 . S
C1236 C1238 1.392 . S
C1236 H1253 0.931 . S
C1237 C1233 1.393 . S
C1237 C1238 1.401 . S
C1237 H1254 0.930 . S
C1238 C1236 1.392 . S
C1238 C1237 1.401 . S
C1238 H1255 0.930 . S
C1239 O1222 1.262 . S
C1239 O1223 1.260 . S
C1240 Tb1176 2.833 . S
C1240 O1220 1.251 . S
C1240 O1225 1.256 . S
C1240 C1233 1.500 . S
C1241 H1206 0.929 . S
C1241 C1219 1.444 . S
C1241 C1242 1.317 . S
C1242 H1204 0.930 . S
C1242 C1210 1.432 . S
C1242 C1241 1.317 . S
C1243 O1227 1.283 . S
C1243 O1230 1.243 . S
C1244 C1245 1.382 . S
C1244 C1248 1.393 . S
C1244 C1251 1.500 . S
C1245 C1244 1.382 . S
C1245 C1246 1.400 . S
C1245 H1256 0.930 . S
C1246 C1245 1.400 . S
C1246 C1247 1.384 . S
C1247 C1246 1.384 . S
C1247 C1249 1.392 . S
C1247 H1257 0.931 . S
C1248 C1244 1.393 . S
C1248 C1249 1.401 . S
C1248 H1258 0.930 . S
C1249 C1247 1.392 . S
C1249 C1248 1.401 . S
C1249 H1259 0.930 . S
C1250 O1228 1.262 . S
C1250 O1229 1.260 . S
C1251 Tb1187 2.833 . S
C1251 O1226 1.251 . S
C1251 O1231 1.256 . S
C1251 C1244 1.500 . S
H1252 C1235 0.930 . S
H1253 C1236 0.931 . S
H1254 C1237 0.930 . S
H1255 C1238 0.930 . S
H1256 C1245 0.930 . S
H1257 C1247 0.931 . S
H1258 C1248 0.930 . S
H1259 C1249 0.930 . S
Tb1260 N1291 2.660 . S
Tb1260 N1298 2.600 . S
Tb1260 O1304 2.546 . S
Tb1260 O1305 2.610 . S
Tb1260 O1307 2.320 . S
Tb1260 O1308 2.552 . S
Tb1260 O1309 2.413 . S
Tb1260 O1311 2.362 . S
Tb1260 O1312 2.421 . S
Tb1260 C1324 2.833 . S
C1261 C1264 1.432 . S
C1261 C1265 1.414 . S
C1261 N1268 1.359 . S
C1262 C1264 1.417 . S
C1262 C1266 1.432 . S
C1262 C1274 1.410 . S
C1263 C1265 1.444 . S
C1263 C1266 1.317 . S
C1263 H1286 0.929 . S
C1264 C1261 1.432 . S
C1264 C1262 1.417 . S
C1264 N1272 1.360 . S
C1265 C1261 1.414 . S
C1265 C1263 1.444 . S
C1265 C1270 1.385 . S
C1266 C1262 1.432 . S
C1266 C1263 1.317 . S
C1266 H1278 0.930 . S
C1267 C1269 1.392 . S
C1267 C1270 1.370 . S
C1267 H1279 0.931 . S
N1268 C1261 1.359 . S
N1268 C1269 1.327 . S
N1268 Tb1271 2.600 . S
C1269 C1267 1.392 . S
C1269 N1268 1.327 . S
C1269 H1276 0.930 . S
C1270 C1265 1.385 . S
C1270 C1267 1.370 . S
C1270 H1289 0.930 . S
Tb1271 N1268 2.600 . S
Tb1271 N1272 2.660 . S
Tb1271 O1305 2.362 . S
Tb1271 O1306 2.421 . S
Tb1271 O1310 2.546 . S
Tb1271 O1311 2.610 . S
Tb1271 O1313 2.320 . S
Tb1271 O1314 2.552 . S
Tb1271 O1315 2.413 . S
Tb1271 C1335 2.833 . S
N1272 C1264 1.360 . S
N1272 Tb1271 2.660 . S
N1272 C1273 1.305 . S
C1273 N1272 1.305 . S
C1273 C1275 1.407 . S
C1273 H1280 0.930 . S
C1274 C1262 1.410 . S
C1274 C1275 1.345 . S
C1274 H1282 0.930 . S
C1275 C1273 1.407 . S
C1275 C1274 1.345 . S
C1275 H1277 0.930 . S
H1276 C1269 0.930 . S
H1277 C1275 0.930 . S
H1278 C1266 0.930 . S
H1279 C1267 0.931 . S
H1280 C1273 0.930 . S
H1281 C1295 0.930 . S
H1282 C1274 0.930 . S
H1283 C1301 0.930 . S
H1284 C1292 0.930 . S
H1285 C1299 0.931 . S
H1286 C1263 0.929 . S
H1287 C1293 0.930 . S
H1288 C1326 0.930 . S
H1289 C1270 0.930 . S
H1290 C1325 0.929 . S
N1291 Tb1260 2.660 . S
N1291 C1292 1.305 . S
N1291 C1296 1.360 . S
C1292 H1284 0.930 . S
C1292 N1291 1.305 . S
C1292 C1295 1.407 . S
C1293 H1287 0.930 . S
C1293 C1294 1.410 . S
C1293 C1295 1.345 . S
C1294 C1293 1.410 . S
C1294 C1296 1.417 . S
C1294 C1326 1.432 . S
C1295 H1281 0.930 . S
C1295 C1292 1.407 . S
C1295 C1293 1.345 . S
C1296 N1291 1.360 . S
C1296 C1294 1.417 . S
C1296 C1300 1.432 . S
H1297 C1302 0.930 . S
N1298 Tb1260 2.600 . S
N1298 C1300 1.359 . S
N1298 C1301 1.327 . S
C1299 H1285 0.931 . S
C1299 C1301 1.392 . S
C1299 C1302 1.370 . S
C1300 C1296 1.432 . S
C1300 N1298 1.359 . S
C1300 C1303 1.414 . S
C1301 H1283 0.930 . S
C1301 N1298 1.327 . S
C1301 C1299 1.392 . S
C1302 H1297 0.930 . S
C1302 C1299 1.370 . S
C1302 C1303 1.385 . S
C1303 C1300 1.414 . S
C1303 C1302 1.385 . S
C1303 C1325 1.444 . S
O1304 Tb1260 2.546 . S
O1304 C1324 1.251 . S
O1305 Tb1260 2.610 . S
O1305 Tb1271 2.362 . S
O1305 C1316 1.283 . S
O1306 Tb1271 2.421 . S
O1306 C1323 1.262 . S
O1307 Tb1260 2.320 . S
O1307 C1323 1.260 . S
O1308 Tb1260 2.552 . S
O1308 C1316 1.243 . S
O1309 Tb1260 2.413 . S
O1309 C1324 1.256 . S
O1310 Tb1271 2.546 . S
O1310 C1335 1.251 . S
O1311 Tb1260 2.362 . S
O1311 Tb1271 2.610 . S
O1311 C1327 1.283 . S
O1312 Tb1260 2.421 . S
O1312 C1334 1.262 . S
O1313 Tb1271 2.320 . S
O1313 C1334 1.260 . S
O1314 Tb1271 2.552 . S
O1314 C1327 1.243 . S
O1315 Tb1271 2.413 . S
O1315 C1335 1.256 . S
C1316 O1305 1.283 . S
C1316 O1308 1.243 . S
C1317 C1319 1.382 . S
C1317 C1321 1.393 . S
C1317 C1324 1.500 . S
C1318 C1319 1.400 . S
C1318 C1320 1.384 . S
C1319 C1317 1.382 . S
C1319 C1318 1.400 . S
C1319 H1336 0.930 . S
C1320 C1318 1.384 . S
C1320 C1322 1.392 . S
C1320 H1337 0.931 . S
C1321 C1317 1.393 . S
C1321 C1322 1.401 . S
C1321 H1338 0.930 . S
C1322 C1320 1.392 . S
C1322 C1321 1.401 . S
C1322 H1339 0.930 . S
C1323 O1306 1.262 . S
C1323 O1307 1.260 . S
C1324 Tb1260 2.833 . S
C1324 O1304 1.251 . S
C1324 O1309 1.256 . S
C1324 C1317 1.500 . S
C1325 H1290 0.929 . S
C1325 C1303 1.444 . S
C1325 C1326 1.317 . S
C1326 H1288 0.930 . S
C1326 C1294 1.432 . S
C1326 C1325 1.317 . S
C1327 O1311 1.283 . S
C1327 O1314 1.243 . S
C1328 C1329 1.382 . S
C1328 C1332 1.393 . S
C1328 C1335 1.500 . S
C1329 C1328 1.382 . S
C1329 C1330 1.400 . S
C1329 H1340 0.930 . S
C1330 C1329 1.400 . S
C1330 C1331 1.384 . S
C1331 C1330 1.384 . S
C1331 C1333 1.392 . S
C1331 H1341 0.931 . S
C1332 C1328 1.393 . S
C1332 C1333 1.401 . S
C1332 H1342 0.930 . S
C1333 C1331 1.392 . S
C1333 C1332 1.401 . S
C1333 H1343 0.930 . S
C1334 O1312 1.262 . S
C1334 O1313 1.260 . S
C1335 Tb1271 2.833 . S
C1335 O1310 1.251 . S
C1335 O1315 1.256 . S
C1335 C1328 1.500 . S
H1336 C1319 0.930 . S
H1337 C1320 0.931 . S
H1338 C1321 0.930 . S
H1339 C1322 0.930 . S
H1340 C1329 0.930 . S
H1341 C1331 0.931 . S
H1342 C1332 0.930 . S
H1343 C1333 0.930 . S
Tb1344 N1375 2.660 . S
Tb1344 N1382 2.600 . S
Tb1344 O1388 2.546 . S
Tb1344 O1389 2.610 . S
Tb1344 O1391 2.320 . S
Tb1344 O1392 2.552 . S
Tb1344 O1393 2.413 . S
Tb1344 O1395 2.362 . S
Tb1344 O1396 2.421 . S
Tb1344 C1408 2.833 . S
C1345 C1348 1.432 . S
C1345 C1349 1.414 . S
C1345 N1352 1.359 . S
C1346 C1348 1.417 . S
C1346 C1350 1.432 . S
C1346 C1358 1.410 . S
C1347 C1349 1.444 . S
C1347 C1350 1.317 . S
C1347 H1370 0.929 . S
C1348 C1345 1.432 . S
C1348 C1346 1.417 . S
C1348 N1356 1.360 . S
C1349 C1345 1.414 . S
C1349 C1347 1.444 . S
C1349 C1354 1.385 . S
C1350 C1346 1.432 . S
C1350 C1347 1.317 . S
C1350 H1362 0.930 . S
C1351 C1353 1.392 . S
C1351 C1354 1.370 . S
C1351 H1363 0.931 . S
N1352 C1345 1.359 . S
N1352 C1353 1.327 . S
N1352 Tb1355 2.600 . S
C1353 C1351 1.392 . S
C1353 N1352 1.327 . S
C1353 H1360 0.930 . S
C1354 C1349 1.385 . S
C1354 C1351 1.370 . S
C1354 H1373 0.930 . S
Tb1355 N1352 2.600 . S
Tb1355 N1356 2.660 . S
Tb1355 O1389 2.362 . S
Tb1355 O1390 2.421 . S
Tb1355 O1394 2.546 . S
Tb1355 O1395 2.610 . S
Tb1355 O1397 2.320 . S
Tb1355 O1398 2.552 . S
Tb1355 O1399 2.413 . S
Tb1355 C1419 2.833 . S
N1356 C1348 1.360 . S
N1356 Tb1355 2.660 . S
N1356 C1357 1.305 . S
C1357 N1356 1.305 . S
C1357 C1359 1.407 . S
C1357 H1364 0.930 . S
C1358 C1346 1.410 . S
C1358 C1359 1.345 . S
C1358 H1366 0.930 . S
C1359 C1357 1.407 . S
C1359 C1358 1.345 . S
C1359 H1361 0.930 . S
H1360 C1353 0.930 . S
H1361 C1359 0.930 . S
H1362 C1350 0.930 . S
H1363 C1351 0.931 . S
H1364 C1357 0.930 . S
H1365 C1379 0.930 . S
H1366 C1358 0.930 . S
H1367 C1385 0.930 . S
H1368 C1376 0.930 . S
H1369 C1383 0.931 . S
H1370 C1347 0.929 . S
H1371 C1377 0.930 . S
H1372 C1410 0.930 . S
H1373 C1354 0.930 . S
H1374 C1409 0.929 . S
N1375 Tb1344 2.660 . S
N1375 C1376 1.305 . S
N1375 C1380 1.360 . S
C1376 H1368 0.930 . S
C1376 N1375 1.305 . S
C1376 C1379 1.407 . S
C1377 H1371 0.930 . S
C1377 C1378 1.410 . S
C1377 C1379 1.345 . S
C1378 C1377 1.410 . S
C1378 C1380 1.417 . S
C1378 C1410 1.432 . S
C1379 H1365 0.930 . S
C1379 C1376 1.407 . S
C1379 C1377 1.345 . S
C1380 N1375 1.360 . S
C1380 C1378 1.417 . S
C1380 C1384 1.432 . S
H1381 C1386 0.930 . S
N1382 Tb1344 2.600 . S
N1382 C1384 1.359 . S
N1382 C1385 1.327 . S
C1383 H1369 0.931 . S
C1383 C1385 1.392 . S
C1383 C1386 1.370 . S
C1384 C1380 1.432 . S
C1384 N1382 1.359 . S
C1384 C1387 1.414 . S
C1385 H1367 0.930 . S
C1385 N1382 1.327 . S
C1385 C1383 1.392 . S
C1386 H1381 0.930 . S
C1386 C1383 1.370 . S
C1386 C1387 1.385 . S
C1387 C1384 1.414 . S
C1387 C1386 1.385 . S
C1387 C1409 1.444 . S
O1388 Tb1344 2.546 . S
O1388 C1408 1.251 . S
O1389 Tb1344 2.610 . S
O1389 Tb1355 2.362 . S
O1389 C1400 1.283 . S
O1390 Tb1355 2.421 . S
O1390 C1407 1.262 . S
O1391 Tb1344 2.320 . S
O1391 C1407 1.260 . S
O1392 Tb1344 2.552 . S
O1392 C1400 1.243 . S
O1393 Tb1344 2.413 . S
O1393 C1408 1.256 . S
O1394 Tb1355 2.546 . S
O1394 C1419 1.251 . S
O1395 Tb1344 2.362 . S
O1395 Tb1355 2.610 . S
O1395 C1411 1.283 . S
O1396 Tb1344 2.421 . S
O1396 C1418 1.262 . S
O1397 Tb1355 2.320 . S
O1397 C1418 1.260 . S
O1398 Tb1355 2.552 . S
O1398 C1411 1.243 . S
O1399 Tb1355 2.413 . S
O1399 C1419 1.256 . S
C1400 O1389 1.283 . S
C1400 O1392 1.243 . S
C1401 C1403 1.382 . S
C1401 C1405 1.393 . S
C1401 C1408 1.500 . S
C1402 C1403 1.400 . S
C1402 C1404 1.384 . S
C1403 C1401 1.382 . S
C1403 C1402 1.400 . S
C1403 H1420 0.930 . S
C1404 C1402 1.384 . S
C1404 C1406 1.392 . S
C1404 H1421 0.931 . S
C1405 C1401 1.393 . S
C1405 C1406 1.401 . S
C1405 H1422 0.930 . S
C1406 C1404 1.392 . S
C1406 C1405 1.401 . S
C1406 H1423 0.930 . S
C1407 O1390 1.262 . S
C1407 O1391 1.260 . S
C1408 Tb1344 2.833 . S
C1408 O1388 1.251 . S
C1408 O1393 1.256 . S
C1408 C1401 1.500 . S
C1409 H1374 0.929 . S
C1409 C1387 1.444 . S
C1409 C1410 1.317 . S
C1410 H1372 0.930 . S
C1410 C1378 1.432 . S
C1410 C1409 1.317 . S
C1411 O1395 1.283 . S
C1411 O1398 1.243 . S
C1412 C1413 1.382 . S
C1412 C1416 1.393 . S
C1412 C1419 1.500 . S
C1413 C1412 1.382 . S
C1413 C1414 1.400 . S
C1413 H1424 0.930 . S
C1414 C1413 1.400 . S
C1414 C1415 1.384 . S
C1415 C1414 1.384 . S
C1415 C1417 1.392 . S
C1415 H1425 0.931 . S
C1416 C1412 1.393 . S
C1416 C1417 1.401 . S
C1416 H1426 0.930 . S
C1417 C1415 1.392 . S
C1417 C1416 1.401 . S
C1417 H1427 0.930 . S
C1418 O1396 1.262 . S
C1418 O1397 1.260 . S
C1419 Tb1355 2.833 . S
C1419 O1394 1.251 . S
C1419 O1399 1.256 . S
C1419 C1412 1.500 . S
H1420 C1403 0.930 . S
H1421 C1404 0.931 . S
H1422 C1405 0.930 . S
H1423 C1406 0.930 . S
H1424 C1413 0.930 . S
H1425 C1415 0.931 . S
H1426 C1416 0.930 . S
H1427 C1417 0.930 . S
Tb1428 N1459 2.660 . S
Tb1428 N1466 2.600 . S
Tb1428 O1472 2.546 . S
Tb1428 O1473 2.610 . S
Tb1428 O1475 2.320 . S
Tb1428 O1476 2.552 . S
Tb1428 O1477 2.413 . S
Tb1428 O1479 2.362 . S
Tb1428 O1480 2.421 . S
Tb1428 C1492 2.833 . S
C1429 C1432 1.432 . S
C1429 C1433 1.414 . S
C1429 N1436 1.359 . S
C1430 C1432 1.417 . S
C1430 C1434 1.432 . S
C1430 C1442 1.410 . S
C1431 C1433 1.444 . S
C1431 C1434 1.317 . S
C1431 H1454 0.929 . S
C1432 C1429 1.432 . S
C1432 C1430 1.417 . S
C1432 N1440 1.360 . S
C1433 C1429 1.414 . S
C1433 C1431 1.444 . S
C1433 C1438 1.385 . S
C1434 C1430 1.432 . S
C1434 C1431 1.317 . S
C1434 H1446 0.930 . S
C1435 C1437 1.392 . S
C1435 C1438 1.370 . S
C1435 H1447 0.931 . S
N1436 C1429 1.359 . S
N1436 C1437 1.327 . S
N1436 Tb1439 2.600 . S
C1437 C1435 1.392 . S
C1437 N1436 1.327 . S
C1437 H1444 0.930 . S
C1438 C1433 1.385 . S
C1438 C1435 1.370 . S
C1438 H1457 0.930 . S
Tb1439 N1436 2.600 . S
Tb1439 N1440 2.660 . S
Tb1439 O1473 2.362 . S
Tb1439 O1474 2.421 . S
Tb1439 O1478 2.546 . S
Tb1439 O1479 2.610 . S
Tb1439 O1481 2.320 . S
Tb1439 O1482 2.552 . S
Tb1439 O1483 2.413 . S
Tb1439 C1503 2.833 . S
N1440 C1432 1.360 . S
N1440 Tb1439 2.660 . S
N1440 C1441 1.305 . S
C1441 N1440 1.305 . S
C1441 C1443 1.407 . S
C1441 H1448 0.930 . S
C1442 C1430 1.410 . S
C1442 C1443 1.345 . S
C1442 H1450 0.930 . S
C1443 C1441 1.407 . S
C1443 C1442 1.345 . S
C1443 H1445 0.930 . S
H1444 C1437 0.930 . S
H1445 C1443 0.930 . S
H1446 C1434 0.930 . S
H1447 C1435 0.931 . S
H1448 C1441 0.930 . S
H1449 C1463 0.930 . S
H1450 C1442 0.930 . S
H1451 C1469 0.930 . S
H1452 C1460 0.930 . S
H1453 C1467 0.931 . S
H1454 C1431 0.929 . S
H1455 C1461 0.930 . S
H1456 C1494 0.930 . S
H1457 C1438 0.930 . S
H1458 C1493 0.929 . S
N1459 Tb1428 2.660 . S
N1459 C1460 1.305 . S
N1459 C1464 1.360 . S
C1460 H1452 0.930 . S
C1460 N1459 1.305 . S
C1460 C1463 1.407 . S
C1461 H1455 0.930 . S
C1461 C1462 1.410 . S
C1461 C1463 1.345 . S
C1462 C1461 1.410 . S
C1462 C1464 1.417 . S
C1462 C1494 1.432 . S
C1463 H1449 0.930 . S
C1463 C1460 1.407 . S
C1463 C1461 1.345 . S
C1464 N1459 1.360 . S
C1464 C1462 1.417 . S
C1464 C1468 1.432 . S
H1465 C1470 0.930 . S
N1466 Tb1428 2.600 . S
N1466 C1468 1.359 . S
N1466 C1469 1.327 . S
C1467 H1453 0.931 . S
C1467 C1469 1.392 . S
C1467 C1470 1.370 . S
C1468 C1464 1.432 . S
C1468 N1466 1.359 . S
C1468 C1471 1.414 . S
C1469 H1451 0.930 . S
C1469 N1466 1.327 . S
C1469 C1467 1.392 . S
C1470 H1465 0.930 . S
C1470 C1467 1.370 . S
C1470 C1471 1.385 . S
C1471 C1468 1.414 . S
C1471 C1470 1.385 . S
C1471 C1493 1.444 . S
O1472 Tb1428 2.546 . S
O1472 C1492 1.251 . S
O1473 Tb1428 2.610 . S
O1473 Tb1439 2.362 . S
O1473 C1484 1.283 . S
O1474 Tb1439 2.421 . S
O1474 C1491 1.262 . S
O1475 Tb1428 2.320 . S
O1475 C1491 1.260 . S
O1476 Tb1428 2.552 . S
O1476 C1484 1.243 . S
O1477 Tb1428 2.413 . S
O1477 C1492 1.256 . S
O1478 Tb1439 2.546 . S
O1478 C1503 1.251 . S
O1479 Tb1428 2.362 . S
O1479 Tb1439 2.610 . S
O1479 C1495 1.283 . S
O1480 Tb1428 2.421 . S
O1480 C1502 1.262 . S
O1481 Tb1439 2.320 . S
O1481 C1502 1.260 . S
O1482 Tb1439 2.552 . S
O1482 C1495 1.243 . S
O1483 Tb1439 2.413 . S
O1483 C1503 1.256 . S
C1484 O1473 1.283 . S
C1484 O1476 1.243 . S
C1485 C1487 1.382 . S
C1485 C1489 1.393 . S
C1485 C1492 1.500 . S
C1486 C1487 1.400 . S
C1486 C1488 1.384 . S
C1487 C1485 1.382 . S
C1487 C1486 1.400 . S
C1487 H1504 0.930 . S
C1488 C1486 1.384 . S
C1488 C1490 1.392 . S
C1488 H1505 0.931 . S
C1489 C1485 1.393 . S
C1489 C1490 1.401 . S
C1489 H1506 0.930 . S
C1490 C1488 1.392 . S
C1490 C1489 1.401 . S
C1490 H1507 0.930 . S
C1491 O1474 1.262 . S
C1491 O1475 1.260 . S
C1492 Tb1428 2.833 . S
C1492 O1472 1.251 . S
C1492 O1477 1.256 . S
C1492 C1485 1.500 . S
C1493 H1458 0.929 . S
C1493 C1471 1.444 . S
C1493 C1494 1.317 . S
C1494 H1456 0.930 . S
C1494 C1462 1.432 . S
C1494 C1493 1.317 . S
C1495 O1479 1.283 . S
C1495 O1482 1.243 . S
C1496 C1497 1.382 . S
C1496 C1500 1.393 . S
C1496 C1503 1.500 . S
C1497 C1496 1.382 . S
C1497 C1498 1.400 . S
C1497 H1508 0.930 . S
C1498 C1497 1.400 . S
C1498 C1499 1.384 . S
C1499 C1498 1.384 . S
C1499 C1501 1.392 . S
C1499 H1509 0.931 . S
C1500 C1496 1.393 . S
C1500 C1501 1.401 . S
C1500 H1510 0.930 . S
C1501 C1499 1.392 . S
C1501 C1500 1.401 . S
C1501 H1511 0.930 . S
C1502 O1480 1.262 . S
C1502 O1481 1.260 . S
C1503 Tb1439 2.833 . S
C1503 O1478 1.251 . S
C1503 O1483 1.256 . S
C1503 C1496 1.500 . S
H1504 C1487 0.930 . S
H1505 C1488 0.931 . S
H1506 C1489 0.930 . S
H1507 C1490 0.930 . S
H1508 C1497 0.930 . S
H1509 C1499 0.931 . S
H1510 C1500 0.930 . S
H1511 C1501 0.930 . S
Tb1512 N1543 2.660 . S
Tb1512 N1550 2.600 . S
Tb1512 O1556 2.546 . S
Tb1512 O1557 2.610 . S
Tb1512 O1559 2.320 . S
Tb1512 O1560 2.552 . S
Tb1512 O1561 2.413 . S
Tb1512 O1563 2.362 . S
Tb1512 O1564 2.421 . S
Tb1512 C1576 2.833 . S
C1513 C1516 1.432 . S
C1513 C1517 1.414 . S
C1513 N1520 1.359 . S
C1514 C1516 1.417 . S
C1514 C1518 1.432 . S
C1514 C1526 1.410 . S
C1515 C1517 1.444 . S
C1515 C1518 1.317 . S
C1515 H1538 0.929 . S
C1516 C1513 1.432 . S
C1516 C1514 1.417 . S
C1516 N1524 1.360 . S
C1517 C1513 1.414 . S
C1517 C1515 1.444 . S
C1517 C1522 1.385 . S
C1518 C1514 1.432 . S
C1518 C1515 1.317 . S
C1518 H1530 0.930 . S
C1519 C1521 1.392 . S
C1519 C1522 1.370 . S
C1519 H1531 0.931 . S
N1520 C1513 1.359 . S
N1520 C1521 1.327 . S
N1520 Tb1523 2.600 . S
C1521 C1519 1.392 . S
C1521 N1520 1.327 . S
C1521 H1528 0.930 . S
C1522 C1517 1.385 . S
C1522 C1519 1.370 . S
C1522 H1541 0.930 . S
Tb1523 N1520 2.600 . S
Tb1523 N1524 2.660 . S
Tb1523 O1557 2.362 . S
Tb1523 O1558 2.421 . S
Tb1523 O1562 2.546 . S
Tb1523 O1563 2.610 . S
Tb1523 O1565 2.320 . S
Tb1523 O1566 2.552 . S
Tb1523 O1567 2.413 . S
Tb1523 C1587 2.833 . S
N1524 C1516 1.360 . S
N1524 Tb1523 2.660 . S
N1524 C1525 1.305 . S
C1525 N1524 1.305 . S
C1525 C1527 1.407 . S
C1525 H1532 0.930 . S
C1526 C1514 1.410 . S
C1526 C1527 1.345 . S
C1526 H1534 0.930 . S
C1527 C1525 1.407 . S
C1527 C1526 1.345 . S
C1527 H1529 0.930 . S
H1528 C1521 0.930 . S
H1529 C1527 0.930 . S
H1530 C1518 0.930 . S
H1531 C1519 0.931 . S
H1532 C1525 0.930 . S
H1533 C1547 0.930 . S
H1534 C1526 0.930 . S
H1535 C1553 0.930 . S
H1536 C1544 0.930 . S
H1537 C1551 0.931 . S
H1538 C1515 0.929 . S
H1539 C1545 0.930 . S
H1540 C1578 0.930 . S
H1541 C1522 0.930 . S
H1542 C1577 0.929 . S
N1543 Tb1512 2.660 . S
N1543 C1544 1.305 . S
N1543 C1548 1.360 . S
C1544 H1536 0.930 . S
C1544 N1543 1.305 . S
C1544 C1547 1.407 . S
C1545 H1539 0.930 . S
C1545 C1546 1.410 . S
C1545 C1547 1.345 . S
C1546 C1545 1.410 . S
C1546 C1548 1.417 . S
C1546 C1578 1.432 . S
C1547 H1533 0.930 . S
C1547 C1544 1.407 . S
C1547 C1545 1.345 . S
C1548 N1543 1.360 . S
C1548 C1546 1.417 . S
C1548 C1552 1.432 . S
H1549 C1554 0.930 . S
N1550 Tb1512 2.600 . S
N1550 C1552 1.359 . S
N1550 C1553 1.327 . S
C1551 H1537 0.931 . S
C1551 C1553 1.392 . S
C1551 C1554 1.370 . S
C1552 C1548 1.432 . S
C1552 N1550 1.359 . S
C1552 C1555 1.414 . S
C1553 H1535 0.930 . S
C1553 N1550 1.327 . S
C1553 C1551 1.392 . S
C1554 H1549 0.930 . S
C1554 C1551 1.370 . S
C1554 C1555 1.385 . S
C1555 C1552 1.414 . S
C1555 C1554 1.385 . S
C1555 C1577 1.444 . S
O1556 Tb1512 2.546 . S
O1556 C1576 1.251 . S
O1557 Tb1512 2.610 . S
O1557 Tb1523 2.362 . S
O1557 C1568 1.283 . S
O1558 Tb1523 2.421 . S
O1558 C1575 1.262 . S
O1559 Tb1512 2.320 . S
O1559 C1575 1.260 . S
O1560 Tb1512 2.552 . S
O1560 C1568 1.243 . S
O1561 Tb1512 2.413 . S
O1561 C1576 1.256 . S
O1562 Tb1523 2.546 . S
O1562 C1587 1.251 . S
O1563 Tb1512 2.362 . S
O1563 Tb1523 2.610 . S
O1563 C1579 1.283 . S
O1564 Tb1512 2.421 . S
O1564 C1586 1.262 . S
O1565 Tb1523 2.320 . S
O1565 C1586 1.260 . S
O1566 Tb1523 2.552 . S
O1566 C1579 1.243 . S
O1567 Tb1523 2.413 . S
O1567 C1587 1.256 . S
C1568 O1557 1.283 . S
C1568 O1560 1.243 . S
C1569 C1571 1.382 . S
C1569 C1573 1.393 . S
C1569 C1576 1.500 . S
C1570 C1571 1.400 . S
C1570 C1572 1.384 . S
C1571 C1569 1.382 . S
C1571 C1570 1.400 . S
C1571 H1588 0.930 . S
C1572 C1570 1.384 . S
C1572 C1574 1.392 . S
C1572 H1589 0.931 . S
C1573 C1569 1.393 . S
C1573 C1574 1.401 . S
C1573 H1590 0.930 . S
C1574 C1572 1.392 . S
C1574 C1573 1.401 . S
C1574 H1591 0.930 . S
C1575 O1558 1.262 . S
C1575 O1559 1.260 . S
C1576 Tb1512 2.833 . S
C1576 O1556 1.251 . S
C1576 O1561 1.256 . S
C1576 C1569 1.500 . S
C1577 H1542 0.929 . S
C1577 C1555 1.444 . S
C1577 C1578 1.317 . S
C1578 H1540 0.930 . S
C1578 C1546 1.432 . S
C1578 C1577 1.317 . S
C1579 O1563 1.283 . S
C1579 O1566 1.243 . S
C1580 C1581 1.382 . S
C1580 C1584 1.393 . S
C1580 C1587 1.500 . S
C1581 C1580 1.382 . S
C1581 C1582 1.400 . S
C1581 H1592 0.930 . S
C1582 C1581 1.400 . S
C1582 C1583 1.384 . S
C1583 C1582 1.384 . S
C1583 C1585 1.392 . S
C1583 H1593 0.931 . S
C1584 C1580 1.393 . S
C1584 C1585 1.401 . S
C1584 H1594 0.930 . S
C1585 C1583 1.392 . S
C1585 C1584 1.401 . S
C1585 H1595 0.930 . S
C1586 O1564 1.262 . S
C1586 O1565 1.260 . S
C1587 Tb1523 2.833 . S
C1587 O1562 1.251 . S
C1587 O1567 1.256 . S
C1587 C1580 1.500 . S
H1588 C1571 0.930 . S
H1589 C1572 0.931 . S
H1590 C1573 0.930 . S
H1591 C1574 0.930 . S
H1592 C1581 0.930 . S
H1593 C1583 0.931 . S
H1594 C1584 0.930 . S
H1595 C1585 0.930 . S
Tb1596 N1627 2.660 . S
Tb1596 N1634 2.600 1_554 S
Tb1596 O1640 2.546 1_554 S
Tb1596 O1641 2.610 . S
Tb1596 O1643 2.320 . S
Tb1596 O1644 2.552 1_554 S
Tb1596 O1645 2.413 . S
Tb1596 O1647 2.362 . S
Tb1596 O1648 2.421 1_554 S
Tb1596 C1660 2.833 1_554 S
C1597 C1600 1.432 . S
C1597 C1601 1.414 . S
C1597 N1604 1.359 1_655 S
C1598 C1600 1.417 . S
C1598 C1602 1.432 . S
C1598 C1610 1.410 1_554 S
C1599 C1601 1.444 . S
C1599 C1602 1.317 . S
C1599 H1622 0.929 . S
C1600 C1597 1.432 . S
C1600 C1598 1.417 . S
C1600 N1608 1.368 . S
C1601 C1597 1.414 . S
C1601 C1599 1.444 . S
C1601 C1606 1.385 . S
C1602 C1598 1.432 . S
C1602 C1599 1.317 . S
C1602 H1614 0.930 . S
C1603 C1605 1.392 . S
C1603 C1606 1.370 1_455 S
C1603 H1615 0.931 . S
N1604 C1597 1.359 1_455 S
N1604 C1605 1.327 . S
N1604 Tb1607 2.600 . S
C1605 C1603 1.392 . S
C1605 N1604 1.327 . S
C1605 H1612 0.930 . S
C1606 C1601 1.385 . S
C1606 C1603 1.370 1_655 S
C1606 H1625 0.930 . S
Tb1607 N1604 2.600 . S
Tb1607 N1608 2.650 1_455 S
Tb1607 O1641 2.362 . S
Tb1607 O1642 2.421 . S
Tb1607 O1646 2.546 . S
Tb1607 O1647 2.610 . S
Tb1607 O1649 2.320 1_554 S
Tb1607 O1650 2.552 . S
Tb1607 O1651 2.413 1_455 S
Tb1607 C1671 2.833 1_455 S
N1608 C1600 1.368 . S
N1608 Tb1607 2.650 1_655 S
N1608 C1609 1.306 1_554 S
C1609 N1608 1.306 1_556 S
C1609 C1611 1.407 . S
C1609 H1616 0.930 1_655 S
C1610 C1598 1.410 1_556 S
C1610 C1611 1.345 . S
C1610 H1618 0.930 . S
C1611 C1609 1.407 . S
C1611 C1610 1.345 . S
C1611 H1613 0.930 . S
H1612 C1605 0.930 . S
H1613 C1611 0.930 . S
H1614 C1602 0.930 . S
H1615 C1603 0.931 . S
H1616 C1609 0.930 1_455 S
H1617 C1631 0.930 . S
H1618 C1610 0.930 . S
H1619 C1637 0.930 . S
H1620 C1628 0.930 . S
H1621 C1635 0.931 . S
H1622 C1599 0.929 . S
H1623 C1629 0.930 . S
H1624 C1662 0.933 . S
H1625 C1606 0.930 . S
H1626 C1661 0.929 . S
N1627 Tb1596 2.660 . S
N1627 C1628 1.305 . S
N1627 C1632 1.360 . S
C1628 H1620 0.930 . S
C1628 N1627 1.305 . S
C1628 C1631 1.407 . S
C1629 H1623 0.930 . S
C1629 C1630 1.410 . S
C1629 C1631 1.345 . S
C1630 C1629 1.410 . S
C1630 C1632 1.417 . S
C1630 C1662 1.450 . S
C1631 H1617 0.930 . S
C1631 C1628 1.407 . S
C1631 C1629 1.345 . S
C1632 N1627 1.360 . S
C1632 C1630 1.417 . S
C1632 C1636 1.432 1_554 S
H1633 C1638 0.930 . S
N1634 Tb1596 2.600 1_556 S
N1634 C1636 1.359 . S
N1634 C1637 1.327 . S
C1635 H1621 0.931 . S
C1635 C1637 1.392 . S
C1635 C1638 1.370 . S
C1636 C1632 1.432 1_556 S
C1636 N1634 1.359 . S
C1636 C1639 1.414 . S
C1637 H1619 0.930 . S
C1637 N1634 1.327 . S
C1637 C1635 1.392 . S
C1638 H1633 0.930 . S
C1638 C1635 1.370 . S
C1638 C1639 1.385 . S
C1639 C1636 1.414 . S
C1639 C1638 1.385 . S
C1639 C1661 1.444 . S
O1640 Tb1596 2.546 1_556 S
O1640 C1660 1.251 . S
O1641 Tb1596 2.610 . S
O1641 Tb1607 2.362 . S
O1641 C1652 1.283 . S
O1642 Tb1607 2.421 . S
O1642 C1659 1.262 . S
O1643 Tb1596 2.320 . S
O1643 C1659 1.260 . S
O1644 Tb1596 2.552 1_556 S
O1644 C1652 1.243 1_556 S
O1645 Tb1596 2.413 . S
O1645 C1660 1.256 1_554 S
O1646 Tb1607 2.546 . S
O1646 C1671 1.251 1_455 S
O1647 Tb1596 2.362 . S
O1647 Tb1607 2.610 . S
O1647 C1663 1.283 . S
O1648 Tb1596 2.421 1_556 S
O1648 C1670 1.262 . S
O1649 Tb1607 2.320 1_556 S
O1649 C1670 1.260 . S
O1650 Tb1607 2.552 . S
O1650 C1663 1.243 . S
O1651 Tb1607 2.413 1_655 S
O1651 C1671 1.256 . S
C1652 O1641 1.283 . S
C1652 O1644 1.243 1_554 S
C1653 C1655 1.369 1_556 S
C1653 C1657 1.393 . S
C1653 C1660 1.500 . S
C1654 C1655 1.398 1_556 S
C1654 C1656 1.384 . S
C1655 C1653 1.369 1_554 S
C1655 C1654 1.398 1_554 S
C1655 H1672 0.946 . S
C1656 C1654 1.384 . S
C1656 C1658 1.392 . S
C1656 H1673 0.931 . S
C1657 C1653 1.393 . S
C1657 C1658 1.401 . S
C1657 H1674 0.930 . S
C1658 C1656 1.392 . S
C1658 C1657 1.401 . S
C1658 H1675 0.930 . S
C1659 O1642 1.262 . S
C1659 O1643 1.260 . S
C1660 Tb1596 2.833 1_556 S
C1660 O1640 1.251 . S
C1660 O1645 1.256 1_556 S
C1660 C1653 1.500 . S
C1661 H1626 0.929 . S
C1661 C1639 1.444 . S
C1661 C1662 1.297 1_556 S
C1662 H1624 0.933 . S
C1662 C1630 1.450 . S
C1662 C1661 1.297 1_554 S
C1663 O1647 1.283 . S
C1663 O1650 1.243 . S
C1664 C1665 1.382 . S
C1664 C1668 1.393 . S
C1664 C1671 1.500 . S
C1665 C1664 1.382 . S
C1665 C1666 1.400 . S
C1665 H1676 0.930 . S
C1666 C1665 1.400 . S
C1666 C1667 1.384 . S
C1667 C1666 1.384 . S
C1667 C1669 1.392 . S
C1667 H1677 0.931 . S
C1668 C1664 1.393 . S
C1668 C1669 1.401 . S
C1668 H1678 0.930 . S
C1669 C1667 1.392 . S
C1669 C1668 1.401 . S
C1669 H1679 0.930 . S
C1670 O1648 1.262 . S
C1670 O1649 1.260 . S
C1671 Tb1607 2.833 1_655 S
C1671 O1646 1.251 1_655 S
C1671 O1651 1.256 . S
C1671 C1664 1.500 . S
H1672 C1655 0.946 . S
H1673 C1656 0.931 . S
H1674 C1657 0.930 . S
H1675 C1658 0.930 . S
H1676 C1665 0.930 . S
H1677 C1667 0.931 . S
H1678 C1668 0.930 . S
H1679 C1669 0.930 . S
H1680 C1686 0.930 . S
H1681 C1689 0.930 1_655 S
H1682 C1690 0.930 1_655 S
H1683 C1691 0.939 . S
H1684 C1694 0.930 . S
H1685 C1695 0.930 . S
C1686 H1680 0.930 . S
C1686 C1687 1.355 . S
C1686 C1688 1.415 . S
C1687 C1686 1.355 . S
C1687 C1689 1.419 . S
C1688 C1686 1.415 . S
C1688 C1693 1.425 . S
C1688 C1695 1.409 1_556 S
C1689 H1681 0.930 1_455 S
C1689 C1687 1.419 . S
C1689 C1690 1.362 . S
C1690 H1682 0.930 1_455 S
C1690 C1689 1.362 . S
C1690 C1693 1.409 . S
C1691 H1683 0.939 . S
C1691 C1692 1.371 . S
C1691 C1693 1.392 1_554 S
C1692 C1691 1.371 . S
C1692 C1694 1.419 . S
C1693 C1688 1.425 . S
C1693 C1690 1.409 . S
C1693 C1691 1.392 1_556 S
C1694 H1684 0.930 . S
C1694 C1692 1.419 . S
C1694 C1695 1.362 . S
C1695 H1685 0.930 . S
C1695 C1688 1.409 1_554 S
C1695 C1694 1.362 . S
H1696 C1702 0.930 . S
H1697 C1705 0.930 . S
H1698 C1706 0.930 . S
H1699 C1707 0.930 . S
H1700 C1710 0.930 . S
H1701 C1711 0.930 . S
C1702 H1696 0.930 . S
C1702 C1703 1.355 . S
C1702 C1704 1.415 . S
C1703 C1702 1.355 . S
C1703 C1705 1.419 . S
C1704 C1702 1.415 . S
C1704 C1709 1.425 . S
C1704 C1711 1.409 . S
C1705 H1697 0.930 . S
C1705 C1703 1.419 . S
C1705 C1706 1.362 . S
C1706 H1698 0.930 . S
C1706 C1705 1.362 . S
C1706 C1709 1.409 . S
C1707 H1699 0.930 . S
C1707 C1708 1.355 . S
C1707 C1709 1.415 . S
C1708 C1707 1.355 . S
C1708 C1710 1.419 . S
C1709 C1704 1.425 . S
C1709 C1706 1.409 . S
C1709 C1707 1.415 . S
C1710 H1700 0.930 . S
C1710 C1708 1.419 . S
C1710 C1711 1.362 . S
C1711 H1701 0.930 . S
C1711 C1704 1.409 . S
C1711 C1710 1.362 . S
H1712 C1718 0.930 . S
H1713 C1721 0.930 . S
H1714 C1722 0.930 . S
H1715 C1723 0.930 . S
H1716 C1726 0.930 . S
H1717 C1727 0.930 . S
C1718 H1712 0.930 . S
C1718 C1719 1.355 . S
C1718 C1720 1.415 . S
C1719 C1718 1.355 . S
C1719 C1721 1.419 . S
C1720 C1718 1.415 . S
C1720 C1725 1.425 . S
C1720 C1727 1.409 . S
C1721 H1713 0.930 . S
C1721 C1719 1.419 . S
C1721 C1722 1.362 . S
C1722 H1714 0.930 . S
C1722 C1721 1.362 . S
C1722 C1725 1.409 . S
C1723 H1715 0.930 . S
C1723 C1724 1.355 . S
C1723 C1725 1.415 . S
C1724 C1723 1.355 . S
C1724 C1726 1.419 . S
C1725 C1720 1.425 . S
C1725 C1722 1.409 . S
C1725 C1723 1.415 . S
C1726 H1716 0.930 . S
C1726 C1724 1.419 . S
C1726 C1727 1.362 . S
C1727 H1717 0.930 . S
C1727 C1720 1.409 . S
C1727 C1726 1.362 . S
H1728 C1734 0.930 . S
H1729 C1737 0.930 . S
H1730 C1738 0.930 . S
H1731 C1739 0.930 . S
H1732 C1742 0.930 . S
H1733 C1743 0.930 . S
C1734 H1728 0.930 . S
C1734 C1735 1.355 . S
C1734 C1736 1.415 . S
C1735 C1734 1.355 . S
C1735 C1737 1.419 . S
C1736 C1734 1.415 . S
C1736 C1741 1.425 . S
C1736 C1743 1.409 . S
C1737 H1729 0.930 . S
C1737 C1735 1.419 . S
C1737 C1738 1.362 . S
C1738 H1730 0.930 . S
C1738 C1737 1.362 . S
C1738 C1741 1.409 . S
C1739 H1731 0.930 . S
C1739 C1740 1.355 . S
C1739 C1741 1.415 . S
C1740 C1739 1.355 . S
C1740 C1742 1.419 . S
C1741 C1736 1.425 . S
C1741 C1738 1.409 . S
C1741 C1739 1.415 . S
C1742 H1732 0.930 . S
C1742 C1740 1.419 . S
C1742 C1743 1.362 . S
C1743 H1733 0.930 . S
C1743 C1736 1.409 . S
C1743 C1742 1.362 . S
H1744 C1750 0.930 . S
H1745 C1753 0.930 . S
H1746 C1754 0.930 . S
H1747 C1755 0.930 . S
H1748 C1758 0.930 . S
H1749 C1759 0.930 . S
C1750 H1744 0.930 . S
C1750 C1751 1.355 . S
C1750 C1752 1.415 . S
C1751 C1750 1.355 . S
C1751 C1753 1.419 . S
C1752 C1750 1.415 . S
C1752 C1757 1.425 . S
C1752 C1759 1.409 . S
C1753 H1745 0.930 . S
C1753 C1751 1.419 . S
C1753 C1754 1.362 . S
C1754 H1746 0.930 . S
C1754 C1753 1.362 . S
C1754 C1757 1.409 . S
C1755 H1747 0.930 . S
C1755 C1756 1.355 . S
C1755 C1757 1.415 . S
C1756 C1755 1.355 . S
C1756 C1758 1.419 . S
C1757 C1752 1.425 . S
C1757 C1754 1.409 . S
C1757 C1755 1.415 . S
C1758 H1748 0.930 . S
C1758 C1756 1.419 . S
C1758 C1759 1.362 . S
C1759 H1749 0.930 . S
C1759 C1752 1.409 . S
C1759 C1758 1.362 . S
H1760 C1766 0.930 . S
H1761 C1769 0.930 . S
H1762 C1770 0.930 . S
H1763 C1771 0.930 . S
H1764 C1774 0.930 . S
H1765 C1775 0.930 . S
C1766 H1760 0.930 . S
C1766 C1767 1.355 . S
C1766 C1768 1.415 . S
C1767 C1766 1.355 . S
C1767 C1769 1.419 . S
C1768 C1766 1.415 . S
C1768 C1773 1.425 . S
C1768 C1775 1.409 . S
C1769 H1761 0.930 . S
C1769 C1767 1.419 . S
C1769 C1770 1.362 . S
C1770 H1762 0.930 . S
C1770 C1769 1.362 . S
C1770 C1773 1.409 . S
C1771 H1763 0.930 . S
C1771 C1772 1.355 . S
C1771 C1773 1.415 . S
C1772 C1771 1.355 . S
C1772 C1774 1.419 . S
C1773 C1768 1.425 . S
C1773 C1770 1.409 . S
C1773 C1771 1.415 . S
C1774 H1764 0.930 . S
C1774 C1772 1.419 . S
C1774 C1775 1.362 . S
C1775 H1765 0.930 . S
C1775 C1768 1.409 . S
C1775 C1774 1.362 . S
H1776 C1782 0.930 . S
H1777 C1785 0.930 . S
H1778 C1786 0.930 . S
H1779 C1787 0.930 . S
H1780 C1790 0.930 . S
H1781 C1791 0.930 . S
C1782 H1776 0.930 . S
C1782 C1783 1.355 . S
C1782 C1784 1.415 . S
C1783 C1782 1.355 . S
C1783 C1785 1.419 . S
C1784 C1782 1.415 . S
C1784 C1789 1.425 . S
C1784 C1791 1.409 . S
C1785 H1777 0.930 . S
C1785 C1783 1.419 . S
C1785 C1786 1.362 . S
C1786 H1778 0.930 . S
C1786 C1785 1.362 . S
C1786 C1789 1.409 . S
C1787 H1779 0.930 . S
C1787 C1788 1.355 . S
C1787 C1789 1.415 . S
C1788 C1787 1.355 . S
C1788 C1790 1.419 . S
C1789 C1784 1.425 . S
C1789 C1786 1.409 . S
C1789 C1787 1.415 . S
C1790 H1780 0.930 . S
C1790 C1788 1.419 . S
C1790 C1791 1.362 . S
C1791 H1781 0.930 . S
C1791 C1784 1.409 . S
C1791 C1790 1.362 . S
H1792 C1798 0.930 . S
H1793 C1801 0.930 . S
H1794 C1802 0.930 . S
H1795 C1803 0.930 . S
H1796 C1806 0.930 . S
H1797 C1807 0.930 . S
C1798 H1792 0.930 . S
C1798 C1799 1.355 . S
C1798 C1800 1.415 . S
C1799 C1798 1.355 . S
C1799 C1801 1.419 . S
C1800 C1798 1.415 . S
C1800 C1805 1.425 . S
C1800 C1807 1.409 . S
C1801 H1793 0.930 . S
C1801 C1799 1.419 . S
C1801 C1802 1.362 . S
C1802 H1794 0.930 . S
C1802 C1801 1.362 . S
C1802 C1805 1.409 . S
C1803 H1795 0.930 . S
C1803 C1804 1.355 . S
C1803 C1805 1.415 . S
C1804 C1803 1.355 . S
C1804 C1806 1.419 . S
C1805 C1800 1.425 . S
C1805 C1802 1.409 . S
C1805 C1803 1.415 . S
C1806 H1796 0.930 . S
C1806 C1804 1.419 . S
C1806 C1807 1.362 . S
C1807 H1797 0.930 . S
C1807 C1800 1.409 . S
C1807 C1806 1.362 . S
H1808 C1814 0.930 . S
H1809 C1817 0.930 . S
H1810 C1818 0.930 . S
H1811 C1819 0.930 1_655 S
H1812 C1822 0.930 . S
H1813 C1823 0.930 . S
C1814 H1808 0.930 . S
C1814 C1815 1.355 1_455 S
C1814 C1816 1.415 . S
C1815 C1814 1.355 1_655 S
C1815 C1817 1.419 . S
C1816 C1814 1.415 . S
C1816 C1821 1.425 . S
C1816 C1823 1.409 . S
C1817 H1809 0.930 . S
C1817 C1815 1.419 . S
C1817 C1818 1.362 . S
C1818 H1810 0.930 . S
C1818 C1817 1.362 . S
C1818 C1821 1.409 1_655 S
C1819 H1811 0.930 1_455 S
C1819 C1820 1.355 . S
C1819 C1821 1.415 . S
C1820 C1819 1.355 . S
C1820 C1822 1.419 . S
C1821 C1816 1.425 . S
C1821 C1818 1.409 1_455 S
C1821 C1819 1.415 . S
C1822 H1812 0.930 . S
C1822 C1820 1.419 . S
C1822 C1823 1.362 . S
C1823 H1813 0.930 . S
C1823 C1816 1.409 . S
C1823 C1822 1.362 . S
H1824 C1830 0.930 . S
H1825 C1833 0.930 . S
H1826 C1834 0.930 . S
H1827 C1835 0.930 . S
H1828 C1838 0.930 . S
H1829 C1839 0.930 . S
C1830 H1824 0.930 . S
C1830 C1831 1.355 . S
C1830 C1832 1.415 . S
C1831 C1830 1.355 . S
C1831 C1833 1.419 . S
C1832 C1830 1.415 . S
C1832 C1837 1.425 . S
C1832 C1839 1.409 . S
C1833 H1825 0.930 . S
C1833 C1831 1.419 . S
C1833 C1834 1.362 . S
C1834 H1826 0.930 . S
C1834 C1833 1.362 . S
C1834 C1837 1.409 . S
C1835 H1827 0.930 . S
C1835 C1836 1.355 . S
C1835 C1837 1.415 . S
C1836 C1835 1.355 . S
C1836 C1838 1.419 . S
C1837 C1832 1.425 . S
C1837 C1834 1.409 . S
C1837 C1835 1.415 . S
C1838 H1828 0.930 . S
C1838 C1836 1.419 . S
C1838 C1839 1.362 . S
C1839 H1829 0.930 . S
C1839 C1832 1.409 . S
C1839 C1838 1.362 . S
H1840 C1846 0.930 . S
H1841 C1849 0.930 1_565 S
H1842 C1850 0.930 1_565 S
H1843 C1851 0.930 1_565 S
H1844 C1854 0.930 . S
H1845 C1855 0.930 . S
C1846 H1840 0.930 . S
C1846 C1847 1.355 . S
C1846 C1848 1.415 . S
C1847 C1846 1.355 . S
C1847 C1849 1.419 . S
C1848 C1846 1.415 . S
C1848 C1853 1.425 . S
C1848 C1855 1.409 . S
C1849 H1841 0.930 1_545 S
C1849 C1847 1.419 . S
C1849 C1850 1.362 . S
C1850 H1842 0.930 1_545 S
C1850 C1849 1.362 . S
C1850 C1853 1.409 . S
C1851 H1843 0.930 1_545 S
C1851 C1852 1.355 . S
C1851 C1853 1.415 . S
C1852 C1851 1.355 . S
C1852 C1854 1.419 . S
C1853 C1848 1.425 . S
C1853 C1850 1.409 . S
C1853 C1851 1.415 . S
C1854 H1844 0.930 . S
C1854 C1852 1.419 . S
C1854 C1855 1.362 . S
C1855 H1845 0.930 . S
C1855 C1848 1.409 . S
C1855 C1854 1.362 . S
H1856 C1862 0.930 . S
H1857 C1865 0.930 . S
H1858 C1866 0.930 . S
H1859 C1867 0.930 . S
H1860 C1870 0.930 . S
H1861 C1871 0.930 . S
C1862 H1856 0.930 . S
C1862 C1863 1.355 . S
C1862 C1864 1.415 . S
C1863 C1862 1.355 . S
C1863 C1865 1.419 . S
C1864 C1862 1.415 . S
C1864 C1869 1.425 . S
C1864 C1871 1.409 . S
C1865 H1857 0.930 . S
C1865 C1863 1.419 . S
C1865 C1866 1.362 . S
C1866 H1858 0.930 . S
C1866 C1865 1.362 . S
C1866 C1869 1.409 . S
C1867 H1859 0.930 . S
C1867 C1868 1.355 . S
C1867 C1869 1.415 . S
C1868 C1867 1.355 . S
C1868 C1870 1.419 . S
C1869 C1864 1.425 . S
C1869 C1866 1.409 . S
C1869 C1867 1.415 . S
C1870 H1860 0.930 . S
C1870 C1868 1.419 . S
C1870 C1871 1.362 . S
C1871 H1861 0.930 . S
C1871 C1864 1.409 . S
C1871 C1870 1.362 . S
H1872 C1878 0.930 . S
H1873 C1881 0.930 . S
H1874 C1882 0.930 . S
H1875 C1883 0.930 . S
H1876 C1886 0.930 . S
H1877 C1887 0.930 . S
C1878 H1872 0.930 . S
C1878 C1879 1.355 . S
C1878 C1880 1.415 1_655 S
C1879 C1878 1.355 . S
C1879 C1881 1.419 1_655 S
C1880 C1878 1.415 1_455 S
C1880 C1885 1.425 . S
C1880 C1887 1.409 1_455 S
C1881 H1873 0.930 . S
C1881 C1879 1.419 1_455 S
C1881 C1882 1.362 . S
C1882 H1874 0.930 . S
C1882 C1881 1.362 . S
C1882 C1885 1.409 . S
C1883 H1875 0.930 . S
C1883 C1884 1.355 . S
C1883 C1885 1.415 . S
C1884 C1883 1.355 . S
C1884 C1886 1.419 . S
C1885 C1880 1.425 . S
C1885 C1882 1.409 . S
C1885 C1883 1.415 . S
C1886 H1876 0.930 . S
C1886 C1884 1.419 . S
C1886 C1887 1.362 1_455 S
C1887 H1877 0.930 . S
C1887 C1880 1.409 1_655 S
C1887 C1886 1.362 1_655 S
H1888 C1894 0.930 . S
H1889 C1897 0.930 . S
H1890 C1898 0.930 . S
H1891 C1899 0.930 . S
H1892 C1902 0.930 . S
H1893 C1903 0.930 . S
C1894 H1888 0.930 . S
C1894 C1895 1.355 . S
C1894 C1896 1.415 . S
C1895 C1894 1.355 . S
C1895 C1897 1.419 . S
C1896 C1894 1.415 . S
C1896 C1901 1.425 . S
C1896 C1903 1.409 . S
C1897 H1889 0.930 . S
C1897 C1895 1.419 . S
C1897 C1898 1.362 . S
C1898 H1890 0.930 . S
C1898 C1897 1.362 . S
C1898 C1901 1.409 . S
C1899 H1891 0.930 . S
C1899 C1900 1.355 . S
C1899 C1901 1.415 . S
C1900 C1899 1.355 . S
C1900 C1902 1.419 . S
C1901 C1896 1.425 . S
C1901 C1898 1.409 . S
C1901 C1899 1.415 . S
C1902 H1892 0.930 . S
C1902 C1900 1.419 . S
C1902 C1903 1.362 . S
C1903 H1893 0.930 . S
C1903 C1896 1.409 . S
C1903 C1902 1.362 . S
H1904 C1910 0.930 . S
H1905 C1913 0.930 . S
H1906 C1914 0.930 . S
H1907 C1915 0.930 . S
H1908 C1918 0.930 . S
H1909 C1919 0.930 . S
C1910 H1904 0.930 . S
C1910 C1911 1.355 . S
C1910 C1912 1.415 . S
C1911 C1910 1.355 . S
C1911 C1913 1.419 . S
C1912 C1910 1.415 . S
C1912 C1917 1.425 . S
C1912 C1919 1.409 . S
C1913 H1905 0.930 . S
C1913 C1911 1.419 . S
C1913 C1914 1.362 . S
C1914 H1906 0.930 . S
C1914 C1913 1.362 . S
C1914 C1917 1.409 . S
C1915 H1907 0.930 . S
C1915 C1916 1.355 . S
C1915 C1917 1.415 . S
C1916 C1915 1.355 . S
C1916 C1918 1.419 . S
C1917 C1912 1.425 . S
C1917 C1914 1.409 . S
C1917 C1915 1.415 . S
C1918 H1908 0.930 . S
C1918 C1916 1.419 . S
C1918 C1919 1.362 . S
C1919 H1909 0.930 . S
C1919 C1912 1.409 . S
C1919 C1918 1.362 . S
H1920 C1926 0.930 . S
H1921 C1929 0.930 . S
H1922 C1930 0.930 . S
H1923 C1931 0.930 . S
H1924 C1934 0.930 . S
H1925 C1935 0.930 . S
C1926 H1920 0.930 . S
C1926 C1927 1.355 . S
C1926 C1928 1.415 . S
C1927 C1926 1.355 . S
C1927 C1929 1.419 . S
C1928 C1926 1.415 . S
C1928 C1933 1.425 . S
C1928 C1935 1.409 . S
C1929 H1921 0.930 . S
C1929 C1927 1.419 . S
C1929 C1930 1.362 . S
C1930 H1922 0.930 . S
C1930 C1929 1.362 . S
C1930 C1933 1.409 . S
C1931 H1923 0.930 . S
C1931 C1932 1.355 . S
C1931 C1933 1.415 . S
C1932 C1931 1.355 . S
C1932 C1934 1.419 . S
C1933 C1928 1.425 . S
C1933 C1930 1.409 . S
C1933 C1931 1.415 . S
C1934 H1924 0.930 . S
C1934 C1932 1.419 . S
C1934 C1935 1.362 . S
C1935 H1925 0.930 . S
C1935 C1928 1.409 . S
C1935 C1934 1.362 . S
H1936 C1942 0.930 1_545 S
H1937 C1945 0.930 1_556 S
H1938 C1946 0.930 . S
H1939 C1947 0.930 . S
H1940 C1950 0.930 . S
H1941 C1951 0.930 . S
C1942 H1936 0.930 1_565 S
C1942 C1943 1.355 . S
C1942 C1944 1.415 . S
C1943 C1942 1.355 . S
C1943 C1945 1.419 . S
C1944 C1942 1.415 . S
C1944 C1949 1.425 . S
C1944 C1951 1.409 1_565 S
C1945 H1937 0.930 1_554 S
C1945 C1943 1.419 . S
C1945 C1946 1.362 . S
C1946 H1938 0.930 . S
C1946 C1945 1.362 . S
C1946 C1949 1.409 . S
C1947 H1939 0.930 . S
C1947 C1948 1.355 1_565 S
C1947 C1949 1.415 . S
C1948 C1947 1.355 1_545 S
C1948 C1950 1.419 . S
C1949 C1944 1.425 . S
C1949 C1946 1.409 . S
C1949 C1947 1.415 . S
C1950 H1940 0.930 . S
C1950 C1948 1.419 . S
C1950 C1951 1.362 . S
C1951 H1941 0.930 . S
C1951 C1944 1.409 1_545 S
C1951 C1950 1.362 . S
H1952 C1958 0.930 . S
H1953 C1961 0.930 . S
H1954 C1962 0.930 . S
H1955 C1963 0.930 . S
H1956 C1966 0.930 . S
H1957 C1967 0.930 . S
C1958 H1952 0.930 . S
C1958 C1959 1.355 . S
C1958 C1960 1.415 . S
C1959 C1958 1.355 . S
C1959 C1961 1.419 1_556 S
C1960 C1958 1.415 . S
C1960 C1965 1.425 1_556 S
C1960 C1967 1.409 . S
C1961 H1953 0.930 . S
C1961 C1959 1.419 1_554 S
C1961 C1962 1.362 . S
C1962 H1954 0.930 . S
C1962 C1961 1.362 . S
C1962 C1965 1.409 . S
C1963 H1955 0.930 . S
C1963 C1964 1.355 1_554 S
C1963 C1965 1.415 . S
C1964 C1963 1.355 1_556 S
C1964 C1966 1.419 . S
C1965 C1960 1.425 1_554 S
C1965 C1962 1.409 . S
C1965 C1963 1.415 . S
C1966 H1956 0.930 . S
C1966 C1964 1.419 . S
C1966 C1967 1.362 . S
C1967 H1957 0.930 . S
C1967 C1960 1.409 . S
C1967 C1966 1.362 . S
H1968 C1974 0.930 . S
H1969 C1977 0.930 . S
H1970 C1978 0.930 . S
H1971 C1979 0.930 . S
H1972 C1982 0.930 . S
H1973 C1983 0.930 . S
C1974 H1968 0.930 . S
C1974 C1975 1.355 . S
C1974 C1976 1.415 . S
C1975 C1974 1.355 . S
C1975 C1977 1.419 . S
C1976 C1974 1.415 . S
C1976 C1981 1.425 . S
C1976 C1983 1.409 . S
C1977 H1969 0.930 . S
C1977 C1975 1.419 . S
C1977 C1978 1.362 . S
C1978 H1970 0.930 . S
C1978 C1977 1.362 . S
C1978 C1981 1.409 . S
C1979 H1971 0.930 . S
C1979 C1980 1.355 . S
C1979 C1981 1.415 . S
C1980 C1979 1.355 . S
C1980 C1982 1.419 . S
C1981 C1976 1.425 . S
C1981 C1978 1.409 . S
C1981 C1979 1.415 . S
C1982 H1972 0.930 . S
C1982 C1980 1.419 . S
C1982 C1983 1.362 . S
C1983 H1973 0.930 . S
C1983 C1976 1.409 . S
C1983 C1982 1.362 . S
H1984 C1990 0.930 . S
H1985 C1993 0.930 . S
H1986 C1994 0.930 . S
H1987 C1995 0.930 1_455 S
H1988 C1998 0.924 1_455 S
H1989 C1999 0.930 . S
C1990 H1984 0.930 . S
C1990 C1991 1.355 . S
C1990 C1992 1.415 . S
C1991 C1990 1.355 . S
C1991 C1993 1.419 . S
C1992 C1990 1.415 . S
C1992 C1997 1.425 . S
C1992 C1999 1.409 . S
C1993 H1985 0.930 . S
C1993 C1991 1.419 . S
C1993 C1994 1.362 . S
C1994 H1986 0.930 . S
C1994 C1993 1.362 . S
C1994 C1997 1.409 . S
C1995 H1987 0.930 1_655 S
C1995 C1996 1.355 1_655 S
C1995 C1997 1.415 . S
C1996 C1995 1.355 1_455 S
C1996 C1998 1.419 1_455 S
C1997 C1992 1.425 . S
C1997 C1994 1.409 . S
C1997 C1995 1.415 . S
C1998 H1988 0.924 1_655 S
C1998 C1996 1.419 1_655 S
C1998 C1999 1.362 . S
C1999 H1989 0.930 . S
C1999 C1992 1.409 . S
C1999 C1998 1.362 . S
H2000 C2006 0.930 . S
H2001 C2009 0.930 . S
H2002 C2010 0.930 . S
H2003 C2011 0.930 . S
H2004 C2014 0.930 . S
H2005 C2015 0.930 . S
C2006 H2000 0.930 . S
C2006 C2007 1.355 . S
C2006 C2008 1.415 . S
C2007 C2006 1.355 . S
C2007 C2009 1.419 . S
C2008 C2006 1.415 . S
C2008 C2013 1.425 . S
C2008 C2015 1.409 . S
C2009 H2001 0.930 . S
C2009 C2007 1.419 . S
C2009 C2010 1.362 . S
C2010 H2002 0.930 . S
C2010 C2009 1.362 . S
C2010 C2013 1.409 . S
C2011 H2003 0.930 . S
C2011 C2012 1.355 . S
C2011 C2013 1.415 . S
C2012 C2011 1.355 . S
C2012 C2014 1.419 . S
C2013 C2008 1.425 . S
C2013 C2010 1.409 . S
C2013 C2011 1.415 . S
C2014 H2004 0.930 . S
C2014 C2012 1.419 . S
C2014 C2015 1.362 . S
C2015 H2005 0.930 . S
C2015 C2008 1.409 . S
C2015 C2014 1.362 . S
H2016 C2022 0.930 . S
H2017 C2025 0.930 . S
H2018 C2026 0.930 . S
H2019 C2027 0.930 . S
H2020 C2030 0.930 . S
H2021 C2031 0.930 . S
C2022 H2016 0.930 . S
C2022 C2023 1.355 . S
C2022 C2024 1.415 . S
C2023 C2022 1.355 . S
C2023 C2025 1.419 . S
C2024 C2022 1.415 . S
C2024 C2029 1.425 . S
C2024 C2031 1.409 . S
C2025 H2017 0.930 . S
C2025 C2023 1.419 . S
C2025 C2026 1.362 . S
C2026 H2018 0.930 . S
C2026 C2025 1.362 . S
C2026 C2029 1.409 . S
C2027 H2019 0.930 . S
C2027 C2028 1.355 . S
C2027 C2029 1.415 . S
C2028 C2027 1.355 . S
C2028 C2030 1.419 . S
C2029 C2024 1.425 . S
C2029 C2026 1.409 . S
C2029 C2027 1.415 . S
C2030 H2020 0.930 . S
C2030 C2028 1.419 . S
C2030 C2031 1.362 . S
C2031 H2021 0.930 . S
C2031 C2024 1.409 . S
C2031 C2030 1.362 . S
H2032 C2038 0.930 . S
H2033 C2041 0.930 . S
H2034 C2042 0.930 . S
H2035 C2043 0.930 . S
H2036 C2046 0.930 . S
H2037 C2047 0.930 . S
C2038 H2032 0.930 . S
C2038 C2039 1.355 . S
C2038 C2040 1.415 . S
C2039 C2038 1.355 . S
C2039 C2041 1.419 . S
C2040 C2038 1.415 . S
C2040 C2045 1.425 . S
C2040 C2047 1.409 . S
C2041 H2033 0.930 . S
C2041 C2039 1.419 . S
C2041 C2042 1.362 . S
C2042 H2034 0.930 . S
C2042 C2041 1.362 . S
C2042 C2045 1.409 . S
C2043 H2035 0.930 . S
C2043 C2044 1.355 . S
C2043 C2045 1.415 . S
C2044 C2043 1.355 . S
C2044 C2046 1.419 . S
C2045 C2040 1.425 . S
C2045 C2042 1.409 . S
C2045 C2043 1.415 . S
C2046 H2036 0.930 . S
C2046 C2044 1.419 . S
C2046 C2047 1.362 . S
C2047 H2037 0.930 . S
C2047 C2040 1.409 . S
C2047 C2046 1.362 . S
H2048 C2054 0.930 . S
H2049 C2057 0.930 . S
H2050 C2058 0.930 . S
H2051 C2059 0.930 . S
H2052 C2062 0.930 . S
H2053 C2063 0.930 . S
C2054 H2048 0.930 . S
C2054 C2055 1.355 . S
C2054 C2056 1.415 . S
C2055 C2054 1.355 . S
C2055 C2057 1.419 . S
C2056 C2054 1.415 . S
C2056 C2061 1.425 . S
C2056 C2063 1.409 . S
C2057 H2049 0.930 . S
C2057 C2055 1.419 . S
C2057 C2058 1.362 . S
C2058 H2050 0.930 . S
C2058 C2057 1.362 . S
C2058 C2061 1.409 . S
C2059 H2051 0.930 . S
C2059 C2060 1.355 . S
C2059 C2061 1.415 . S
C2060 C2059 1.355 . S
C2060 C2062 1.419 . S
C2061 C2056 1.425 . S
C2061 C2058 1.409 . S
C2061 C2059 1.415 . S
C2062 H2052 0.930 . S
C2062 C2060 1.419 . S
C2062 C2063 1.362 . S
C2063 H2053 0.930 . S
C2063 C2056 1.409 . S
C2063 C2062 1.362 . S
H2064 C2070 0.930 . S
H2065 C2073 0.930 . S
H2066 C2074 0.930 . S
H2067 C2075 0.930 . S
H2068 C2078 0.930 . S
H2069 C2079 0.930 . S
C2070 H2064 0.930 . S
C2070 C2071 1.355 . S
C2070 C2072 1.415 . S
C2071 C2070 1.355 . S
C2071 C2073 1.419 . S
C2072 C2070 1.415 . S
C2072 C2077 1.425 . S
C2072 C2079 1.409 . S
C2073 H2065 0.930 . S
C2073 C2071 1.419 . S
C2073 C2074 1.362 . S
C2074 H2066 0.930 . S
C2074 C2073 1.362 . S
C2074 C2077 1.409 . S
C2075 H2067 0.930 . S
C2075 C2076 1.355 . S
C2075 C2077 1.415 . S
C2076 C2075 1.355 . S
C2076 C2078 1.419 . S
C2077 C2072 1.425 . S
C2077 C2074 1.409 . S
C2077 C2075 1.415 . S
C2078 H2068 0.930 . S
C2078 C2076 1.419 . S
C2078 C2079 1.362 . S
C2079 H2069 0.930 . S
C2079 C2072 1.409 . S
C2079 C2078 1.362 . S
H2080 C2086 0.930 . S
H2081 C2089 0.930 . S
H2082 C2090 0.930 . S
H2083 C2091 0.930 . S
H2084 C2094 0.930 . S
H2085 C2095 0.930 . S
C2086 H2080 0.930 . S
C2086 C2087 1.355 . S
C2086 C2088 1.415 . S
C2087 C2086 1.355 . S
C2087 C2089 1.419 . S
C2088 C2086 1.415 . S
C2088 C2093 1.425 . S
C2088 C2095 1.409 . S
C2089 H2081 0.930 . S
C2089 C2087 1.419 . S
C2089 C2090 1.362 . S
C2090 H2082 0.930 . S
C2090 C2089 1.362 . S
C2090 C2093 1.409 . S
C2091 H2083 0.930 . S
C2091 C2092 1.355 . S
C2091 C2093 1.415 . S
C2092 C2091 1.355 . S
C2092 C2094 1.419 . S
C2093 C2088 1.425 . S
C2093 C2090 1.409 . S
C2093 C2091 1.415 . S
C2094 H2084 0.930 . S
C2094 C2092 1.419 . S
C2094 C2095 1.362 . S
C2095 H2085 0.930 . S
C2095 C2088 1.409 . S
C2095 C2094 1.362 . S
H2096 C2102 0.930 . S
H2097 C2105 0.930 . S
H2098 C2106 0.930 . S
H2099 C2107 0.930 . S
H2100 C2110 0.930 . S
H2101 C2111 0.930 . S
C2102 H2096 0.930 . S
C2102 C2103 1.355 . S
C2102 C2104 1.415 . S
C2103 C2102 1.355 . S
C2103 C2105 1.419 . S
C2104 C2102 1.415 . S
C2104 C2109 1.425 . S
C2104 C2111 1.409 . S
C2105 H2097 0.930 . S
C2105 C2103 1.419 . S
C2105 C2106 1.362 . S
C2106 H2098 0.930 . S
C2106 C2105 1.362 . S
C2106 C2109 1.409 . S
C2107 H2099 0.930 . S
C2107 C2108 1.355 . S
C2107 C2109 1.415 . S
C2108 C2107 1.355 . S
C2108 C2110 1.419 . S
C2109 C2104 1.425 . S
C2109 C2106 1.409 . S
C2109 C2107 1.415 . S
C2110 H2100 0.930 . S
C2110 C2108 1.419 . S
C2110 C2111 1.362 . S
C2111 H2101 0.930 . S
C2111 C2104 1.409 . S
C2111 C2110 1.362 . S
H2112 C2118 0.930 . S
H2113 C2121 0.930 . S
H2114 C2122 0.930 . S
H2115 C2123 0.930 . S
H2116 C2126 0.930 . S
H2117 C2127 0.930 . S
C2118 H2112 0.930 . S
C2118 C2119 1.355 . S
C2118 C2120 1.415 . S
C2119 C2118 1.355 . S
C2119 C2121 1.419 . S
C2120 C2118 1.415 . S
C2120 C2125 1.425 . S
C2120 C2127 1.409 . S
C2121 H2113 0.930 . S
C2121 C2119 1.419 . S
C2121 C2122 1.362 . S
C2122 H2114 0.930 . S
C2122 C2121 1.362 . S
C2122 C2125 1.409 . S
C2123 H2115 0.930 . S
C2123 C2124 1.355 . S
C2123 C2125 1.415 . S
C2124 C2123 1.355 . S
C2124 C2126 1.419 . S
C2125 C2120 1.425 . S
C2125 C2122 1.409 . S
C2125 C2123 1.415 . S
C2126 H2116 0.930 . S
C2126 C2124 1.419 . S
C2126 C2127 1.362 . S
C2127 H2117 0.930 . S
C2127 C2120 1.409 . S
C2127 C2126 1.362 . S
H2128 C2134 0.930 . S
H2129 C2137 0.930 . S
H2130 C2138 0.930 . S
H2131 C2139 0.930 . S
H2132 C2142 0.930 . S
H2133 C2143 0.930 . S
C2134 H2128 0.930 . S
C2134 C2135 1.355 . S
C2134 C2136 1.415 . S
C2135 C2134 1.355 . S
C2135 C2137 1.419 . S
C2136 C2134 1.415 . S
C2136 C2141 1.425 . S
C2136 C2143 1.409 . S
C2137 H2129 0.930 . S
C2137 C2135 1.419 . S
C2137 C2138 1.362 . S
C2138 H2130 0.930 . S
C2138 C2137 1.362 . S
C2138 C2141 1.409 . S
C2139 H2131 0.930 . S
C2139 C2140 1.355 . S
C2139 C2141 1.415 . S
C2140 C2139 1.355 . S
C2140 C2142 1.419 . S
C2141 C2136 1.425 . S
C2141 C2138 1.409 . S
C2141 C2139 1.415 . S
C2142 H2132 0.930 . S
C2142 C2140 1.419 . S
C2142 C2143 1.362 . S
C2143 H2133 0.930 . S
C2143 C2136 1.409 . S
C2143 C2142 1.362 . S
H2144 C2150 0.930 . S
H2145 C2153 0.930 . S
H2146 C2154 0.930 . S
H2147 C2155 0.930 . S
H2148 C2158 0.930 . S
H2149 C2159 0.930 . S
C2150 H2144 0.930 . S
C2150 C2151 1.355 . S
C2150 C2152 1.415 . S
C2151 C2150 1.355 . S
C2151 C2153 1.419 . S
C2152 C2150 1.415 . S
C2152 C2157 1.425 . S
C2152 C2159 1.409 . S
C2153 H2145 0.930 . S
C2153 C2151 1.419 . S
C2153 C2154 1.362 . S
C2154 H2146 0.930 . S
C2154 C2153 1.362 . S
C2154 C2157 1.409 . S
C2155 H2147 0.930 . S
C2155 C2156 1.355 . S
C2155 C2157 1.415 . S
C2156 C2155 1.355 . S
C2156 C2158 1.419 . S
C2157 C2152 1.425 . S
C2157 C2154 1.409 . S
C2157 C2155 1.415 . S
C2158 H2148 0.930 . S
C2158 C2156 1.419 . S
C2158 C2159 1.362 . S
C2159 H2149 0.930 . S
C2159 C2152 1.409 . S
C2159 C2158 1.362 . S
H2160 C2166 0.930 . S
H2161 C2169 0.930 . S
H2162 C2170 0.930 . S
H2163 C2171 0.930 . S
H2164 C2174 0.930 . S
H2165 C2175 0.930 . S
C2166 H2160 0.930 . S
C2166 C2167 1.355 . S
C2166 C2168 1.415 . S
C2167 C2166 1.355 . S
C2167 C2169 1.419 . S
C2168 C2166 1.415 . S
C2168 C2173 1.425 . S
C2168 C2175 1.409 . S
C2169 H2161 0.930 . S
C2169 C2167 1.419 . S
C2169 C2170 1.362 . S
C2170 H2162 0.930 . S
C2170 C2169 1.362 . S
C2170 C2173 1.409 . S
C2171 H2163 0.930 . S
C2171 C2172 1.355 . S
C2171 C2173 1.415 . S
C2172 C2171 1.355 . S
C2172 C2174 1.419 . S
C2173 C2168 1.425 . S
C2173 C2170 1.409 . S
C2173 C2171 1.415 . S
C2174 H2164 0.930 . S
C2174 C2172 1.419 . S
C2174 C2175 1.362 . S
C2175 H2165 0.930 . S
C2175 C2168 1.409 . S
C2175 C2174 1.362 . S
H2176 C2182 0.930 . S
H2177 C2185 0.930 . S
H2178 C2186 0.930 . S
H2179 C2187 0.930 . S
H2180 C2190 0.930 . S
H2181 C2191 0.930 . S
C2182 H2176 0.930 . S
C2182 C2183 1.355 . S
C2182 C2184 1.415 . S
C2183 C2182 1.355 . S
C2183 C2185 1.419 . S
C2184 C2182 1.415 . S
C2184 C2189 1.425 . S
C2184 C2191 1.409 . S
C2185 H2177 0.930 . S
C2185 C2183 1.419 . S
C2185 C2186 1.362 . S
C2186 H2178 0.930 . S
C2186 C2185 1.362 . S
C2186 C2189 1.409 . S
C2187 H2179 0.930 . S
C2187 C2188 1.355 . S
C2187 C2189 1.415 . S
C2188 C2187 1.355 . S
C2188 C2190 1.419 . S
C2189 C2184 1.425 . S
C2189 C2186 1.409 . S
C2189 C2187 1.415 . S
C2190 H2180 0.930 . S
C2190 C2188 1.419 . S
C2190 C2191 1.362 . S
C2191 H2181 0.930 . S
C2191 C2184 1.409 . S
C2191 C2190 1.362 . S
H2192 C2198 0.930 1_565 S
H2193 C2201 0.930 . S
H2194 C2202 0.930 . S
H2195 C2203 0.930 . S
H2196 C2206 0.930 . S
H2197 C2207 0.930 . S
C2198 H2192 0.930 1_545 S
C2198 C2199 1.356 . S
C2198 C2200 1.413 . S
C2199 C2198 1.356 . S
C2199 C2201 1.419 . S
C2200 C2198 1.413 . S
C2200 C2205 1.425 . S
C2200 C2207 1.409 1_545 S
C2201 H2193 0.930 . S
C2201 C2199 1.419 . S
C2201 C2202 1.362 . S
C2202 H2194 0.930 . S
C2202 C2201 1.362 . S
C2202 C2205 1.409 . S
C2203 H2195 0.930 . S
C2203 C2204 1.355 . S
C2203 C2205 1.415 . S
C2204 C2203 1.355 . S
C2204 C2206 1.419 1_545 S
C2205 C2200 1.425 . S
C2205 C2202 1.409 . S
C2205 C2203 1.415 . S
C2206 H2196 0.930 . S
C2206 C2204 1.419 1_565 S
C2206 C2207 1.362 . S
C2207 H2197 0.930 . S
C2207 C2200 1.409 1_565 S
C2207 C2206 1.362 . S
H2208 C2214 0.930 . S
H2209 C2217 0.930 . S
H2210 C2218 0.930 . S
H2211 C2219 0.930 . S
H2212 C2222 0.930 . S
H2213 C2223 0.930 . S
C2214 H2208 0.930 . S
C2214 C2215 1.355 . S
C2214 C2216 1.415 . S
C2215 C2214 1.355 . S
C2215 C2217 1.419 . S
C2216 C2214 1.415 . S
C2216 C2221 1.425 . S
C2216 C2223 1.409 . S
C2217 H2209 0.930 . S
C2217 C2215 1.419 . S
C2217 C2218 1.362 . S
C2218 H2210 0.930 . S
C2218 C2217 1.362 . S
C2218 C2221 1.409 . S
C2219 H2211 0.930 . S
C2219 C2220 1.355 . S
C2219 C2221 1.415 . S
C2220 C2219 1.355 . S
C2220 C2222 1.419 . S
C2221 C2216 1.425 . S
C2221 C2218 1.409 . S
C2221 C2219 1.415 . S
C2222 H2212 0.930 . S
C2222 C2220 1.419 . S
C2222 C2223 1.362 . S
C2223 H2213 0.930 . S
C2223 C2216 1.409 . S
C2223 C2222 1.362 . S
H2224 C2230 0.930 1_565 S
H2225 C2233 0.930 . S
H2226 C2234 0.930 . S
H2227 C2235 0.930 . S
H2228 C2238 0.930 . S
H2229 C2239 0.930 1_565 S
C2230 H2224 0.930 1_545 S
C2230 C2231 1.355 . S
C2230 C2232 1.415 . S
C2231 C2230 1.355 . S
C2231 C2233 1.419 . S
C2232 C2230 1.415 . S
C2232 C2237 1.425 . S
C2232 C2239 1.409 . S
C2233 H2225 0.930 . S
C2233 C2231 1.419 . S
C2233 C2234 1.362 . S
C2234 H2226 0.930 . S
C2234 C2233 1.362 . S
C2234 C2237 1.409 . S
C2235 H2227 0.930 . S
C2235 C2236 1.355 . S
C2235 C2237 1.415 . S
C2236 C2235 1.355 . S
C2236 C2238 1.419 . S
C2237 C2232 1.425 . S
C2237 C2234 1.409 . S
C2237 C2235 1.415 . S
C2238 H2228 0.930 . S
C2238 C2236 1.419 . S
C2238 C2239 1.362 . S
C2239 H2229 0.930 1_545 S
C2239 C2232 1.409 . S
C2239 C2238 1.362 . S
H2240 C2246 0.930 . S
H2241 C2249 0.930 . S
H2242 C2250 0.930 . S
H2243 C2251 0.930 . S
H2244 C2254 0.930 . S
H2245 C2255 0.930 . S
C2246 H2240 0.930 . S
C2246 C2247 1.355 . S
C2246 C2248 1.415 . S
C2247 C2246 1.355 . S
C2247 C2249 1.419 . S
C2248 C2246 1.415 . S
C2248 C2253 1.425 . S
C2248 C2255 1.409 . S
C2249 H2241 0.930 . S
C2249 C2247 1.419 . S
C2249 C2250 1.362 . S
C2250 H2242 0.930 . S
C2250 C2249 1.362 . S
C2250 C2253 1.409 . S
C2251 H2243 0.930 . S
C2251 C2252 1.355 . S
C2251 C2253 1.415 . S
C2252 C2251 1.355 . S
C2252 C2254 1.419 . S
C2253 C2248 1.425 . S
C2253 C2250 1.409 . S
C2253 C2251 1.415 . S
C2254 H2244 0.930 . S
C2254 C2252 1.419 . S
C2254 C2255 1.362 . S
C2255 H2245 0.930 . S
C2255 C2248 1.409 . S
C2255 C2254 1.362 . S
H2256 C2262 0.930 . S
H2257 C2265 0.930 . S
H2258 C2266 0.930 . S
H2259 C2267 0.927 . S
H2260 C2270 0.930 . S
H2261 C2271 0.930 . S
C2262 H2256 0.930 . S
C2262 C2263 1.355 1_545 S
C2262 C2264 1.415 . S
C2263 C2262 1.355 1_565 S
C2263 C2265 1.419 . S
C2264 C2262 1.415 . S
C2264 C2269 1.425 1_545 S
C2264 C2271 1.409 . S
C2265 H2257 0.930 . S
C2265 C2263 1.419 . S
C2265 C2266 1.362 . S
C2266 H2258 0.930 . S
C2266 C2265 1.362 . S
C2266 C2269 1.409 . S
C2267 H2259 0.927 . S
C2267 C2268 1.358 1_565 S
C2267 C2269 1.413 . S
C2268 C2267 1.358 1_545 S
C2268 C2270 1.419 . S
C2269 C2264 1.425 1_565 S
C2269 C2266 1.409 . S
C2269 C2267 1.413 . S
C2270 H2260 0.930 . S
C2270 C2268 1.419 . S
C2270 C2271 1.362 . S
C2271 H2261 0.930 . S
C2271 C2264 1.409 . S
C2271 C2270 1.362 . S
H2272 C2278 0.930 . S
H2273 C2281 0.930 . S
H2274 C2282 0.930 . S
H2275 C2283 0.930 . S
H2276 C2286 0.930 . S
H2277 C2287 0.930 . S
C2278 H2272 0.930 . S
C2278 C2279 1.355 . S
C2278 C2280 1.415 . S
C2279 C2278 1.355 . S
C2279 C2281 1.419 . S
C2280 C2278 1.415 . S
C2280 C2285 1.425 . S
C2280 C2287 1.409 . S
C2281 H2273 0.930 . S
C2281 C2279 1.419 . S
C2281 C2282 1.362 . S
C2282 H2274 0.930 . S
C2282 C2281 1.362 . S
C2282 C2285 1.409 . S
C2283 H2275 0.930 . S
C2283 C2284 1.355 . S
C2283 C2285 1.415 . S
C2284 C2283 1.355 . S
C2284 C2286 1.419 . S
C2285 C2280 1.425 . S
C2285 C2282 1.409 . S
C2285 C2283 1.415 . S
C2286 H2276 0.930 . S
C2286 C2284 1.419 . S
C2286 C2287 1.362 . S
C2287 H2277 0.930 . S
C2287 C2280 1.409 . S
C2287 C2286 1.362 . S
H2288 C2294 0.930 . S
H2289 C2297 0.930 . S
H2290 C2298 0.930 . S
H2291 C2299 0.930 1_565 S
H2292 C2302 0.930 . S
H2293 C2303 0.930 . S
C2294 H2288 0.930 . S
C2294 C2295 1.355 . S
C2294 C2296 1.415 . S
C2295 C2294 1.355 . S
C2295 C2297 1.419 1_545 S
C2296 C2294 1.415 . S
C2296 C2301 1.425 . S
C2296 C2303 1.409 . S
C2297 H2289 0.930 . S
C2297 C2295 1.419 1_565 S
C2297 C2298 1.362 . S
C2298 H2290 0.930 . S
C2298 C2297 1.362 . S
C2298 C2301 1.409 1_565 S
C2299 H2291 0.930 1_545 S
C2299 C2300 1.355 . S
C2299 C2301 1.415 . S
C2300 C2299 1.355 . S
C2300 C2302 1.419 . S
C2301 C2296 1.425 . S
C2301 C2298 1.409 1_545 S
C2301 C2299 1.415 . S
C2302 H2292 0.930 . S
C2302 C2300 1.419 . S
C2302 C2303 1.362 . S
C2303 H2293 0.930 . S
C2303 C2296 1.409 . S
C2303 C2302 1.362 . S
H2304 C2310 0.930 . S
H2305 C2313 0.930 . S
H2306 C2314 0.930 . S
H2307 C2315 0.930 . S
H2308 C2318 0.930 . S
H2309 C2319 0.930 . S
C2310 H2304 0.930 . S
C2310 C2311 1.355 . S
C2310 C2312 1.415 . S
C2311 C2310 1.355 . S
C2311 C2313 1.419 . S
C2312 C2310 1.415 . S
C2312 C2317 1.425 . S
C2312 C2319 1.409 . S
C2313 H2305 0.930 . S
C2313 C2311 1.419 . S
C2313 C2314 1.362 . S
C2314 H2306 0.930 . S
C2314 C2313 1.362 . S
C2314 C2317 1.409 . S
C2315 H2307 0.930 . S
C2315 C2316 1.355 . S
C2315 C2317 1.415 . S
C2316 C2315 1.355 . S
C2316 C2318 1.419 . S
C2317 C2312 1.425 . S
C2317 C2314 1.409 . S
C2317 C2315 1.415 . S
C2318 H2308 0.930 . S
C2318 C2316 1.419 . S
C2318 C2319 1.362 . S
C2319 H2309 0.930 . S
C2319 C2312 1.409 . S
C2319 C2318 1.362 . S
H2320 C2326 0.930 . S
H2321 C2329 0.901 1_556 S
H2322 C2330 0.930 . S
H2323 C2331 0.930 . S
H2324 C2334 0.930 . S
H2325 C2335 0.930 . S
C2326 H2320 0.930 . S
C2326 C2327 1.355 . S
C2326 C2328 1.415 . S
C2327 C2326 1.355 . S
C2327 C2329 1.464 . S
C2328 C2326 1.415 . S
C2328 C2333 1.425 . S
C2328 C2335 1.409 . S
C2329 H2321 0.901 1_554 S
C2329 C2327 1.464 . S
C2329 C2330 1.348 1_554 S
C2330 H2322 0.930 . S
C2330 C2329 1.348 1_556 S
C2330 C2333 1.409 1_556 S
C2331 H2323 0.930 . S
C2331 C2332 1.355 1_556 S
C2331 C2333 1.415 1_556 S
C2332 C2331 1.355 1_554 S
C2332 C2334 1.419 . S
C2333 C2328 1.425 . S
C2333 C2330 1.409 1_554 S
C2333 C2331 1.415 1_554 S
C2334 H2324 0.930 . S
C2334 C2332 1.419 . S
C2334 C2335 1.362 . S
C2335 H2325 0.930 . S
C2335 C2328 1.409 . S
C2335 C2334 1.362 . S
H2336 C2342 0.930 . S
H2337 C2345 0.930 . S
H2338 C2346 0.930 . S
H2339 C2347 0.930 . S
H2340 C2350 0.930 . S
H2341 C2351 0.930 . S
C2342 H2336 0.930 . S
C2342 C2343 1.355 . S
C2342 C2344 1.415 . S
C2343 C2342 1.355 . S
C2343 C2345 1.419 . S
C2344 C2342 1.415 . S
C2344 C2349 1.425 . S
C2344 C2351 1.409 . S
C2345 H2337 0.930 . S
C2345 C2343 1.419 . S
C2345 C2346 1.362 . S
C2346 H2338 0.930 . S
C2346 C2345 1.362 . S
C2346 C2349 1.409 . S
C2347 H2339 0.930 . S
C2347 C2348 1.355 . S
C2347 C2349 1.415 . S
C2348 C2347 1.355 . S
C2348 C2350 1.419 . S
C2349 C2344 1.425 . S
C2349 C2346 1.409 . S
C2349 C2347 1.415 . S
C2350 H2340 0.930 . S
C2350 C2348 1.419 . S
C2350 C2351 1.362 . S
C2351 H2341 0.930 . S
C2351 C2344 1.409 . S
C2351 C2350 1.362 . S
H2352 C2358 0.930 . S
H2353 C2361 0.930 . S
H2354 C2362 0.930 . S
H2355 C2363 0.930 . S
H2356 C2366 0.930 . S
H2357 C2367 0.930 . S
C2358 H2352 0.930 . S
C2358 C2359 1.355 . S
C2358 C2360 1.415 . S
C2359 C2358 1.355 . S
C2359 C2361 1.419 . S
C2360 C2358 1.415 . S
C2360 C2365 1.425 . S
C2360 C2367 1.409 . S
C2361 H2353 0.930 . S
C2361 C2359 1.419 . S
C2361 C2362 1.362 . S
C2362 H2354 0.930 . S
C2362 C2361 1.362 . S
C2362 C2365 1.409 . S
C2363 H2355 0.930 . S
C2363 C2364 1.355 . S
C2363 C2365 1.415 . S
C2364 C2363 1.355 . S
C2364 C2366 1.419 . S
C2365 C2360 1.425 . S
C2365 C2362 1.409 . S
C2365 C2363 1.415 . S
C2366 H2356 0.930 . S
C2366 C2364 1.419 . S
C2366 C2367 1.362 . S
C2367 H2357 0.930 . S
C2367 C2360 1.409 . S
C2367 C2366 1.362 . S
H2368 C2374 0.930 . S
H2369 C2377 0.930 . S
H2370 C2378 0.930 . S
H2371 C2379 0.930 . S
H2372 C2382 0.930 . S
H2373 C2383 0.930 . S
C2374 H2368 0.930 . S
C2374 C2375 1.355 . S
C2374 C2376 1.415 . S
C2375 C2374 1.355 . S
C2375 C2377 1.419 . S
C2376 C2374 1.415 . S
C2376 C2381 1.425 . S
C2376 C2383 1.409 . S
C2377 H2369 0.930 . S
C2377 C2375 1.419 . S
C2377 C2378 1.362 . S
C2378 H2370 0.930 . S
C2378 C2377 1.362 . S
C2378 C2381 1.409 . S
C2379 H2371 0.930 . S
C2379 C2380 1.355 . S
C2379 C2381 1.415 . S
C2380 C2379 1.355 . S
C2380 C2382 1.419 . S
C2381 C2376 1.425 . S
C2381 C2378 1.409 . S
C2381 C2379 1.415 . S
C2382 H2372 0.930 . S
C2382 C2380 1.419 . S
C2382 C2383 1.362 . S
C2383 H2373 0.930 . S
C2383 C2376 1.409 . S
C2383 C2382 1.362 . S
H2384 C2390 0.930 . S
H2385 C2393 0.930 . S
H2386 C2394 0.948 . S
H2387 C2395 0.930 . S
H2388 C2398 0.930 . S
H2389 C2399 0.930 . S
C2390 H2384 0.930 . S
C2390 C2391 1.355 . S
C2390 C2392 1.415 . S
C2391 C2390 1.355 . S
C2391 C2393 1.419 1_565 S
C2392 C2390 1.415 . S
C2392 C2397 1.425 . S
C2392 C2399 1.409 . S
C2393 H2385 0.930 . S
C2393 C2391 1.419 1_545 S
C2393 C2394 1.386 . S
C2394 H2386 0.948 . S
C2394 C2393 1.386 . S
C2394 C2397 1.369 1_545 S
C2395 H2387 0.930 . S
C2395 C2396 1.355 . S
C2395 C2397 1.415 . S
C2396 C2395 1.355 . S
C2396 C2398 1.419 . S
C2397 C2392 1.425 . S
C2397 C2394 1.369 1_565 S
C2397 C2395 1.415 . S
C2398 H2388 0.930 . S
C2398 C2396 1.419 . S
C2398 C2399 1.362 . S
C2399 H2389 0.930 . S
C2399 C2392 1.409 . S
C2399 C2398 1.362 . S
H2400 C2406 0.930 . S
H2401 C2409 0.930 . S
H2402 C2410 0.930 . S
H2403 C2411 0.930 . S
H2404 C2414 0.930 . S
H2405 C2415 0.930 . S
C2406 H2400 0.930 . S
C2406 C2407 1.355 . S
C2406 C2408 1.415 . S
C2407 C2406 1.355 . S
C2407 C2409 1.419 . S
C2408 C2406 1.415 . S
C2408 C2413 1.425 . S
C2408 C2415 1.409 . S
C2409 H2401 0.930 . S
C2409 C2407 1.419 . S
C2409 C2410 1.362 . S
C2410 H2402 0.930 . S
C2410 C2409 1.362 . S
C2410 C2413 1.409 . S
C2411 H2403 0.930 . S
C2411 C2412 1.355 . S
C2411 C2413 1.415 . S
C2412 C2411 1.355 . S
C2412 C2414 1.419 . S
C2413 C2408 1.425 . S
C2413 C2410 1.409 . S
C2413 C2411 1.415 . S
C2414 H2404 0.930 . S
C2414 C2412 1.419 . S
C2414 C2415 1.362 . S
C2415 H2405 0.930 . S
C2415 C2408 1.409 . S
C2415 C2414 1.362 . S
H2416 C2422 0.930 . S
H2417 C2425 0.930 . S
H2418 C2426 0.930 . S
H2419 C2427 0.930 . S
H2420 C2430 0.930 . S
H2421 C2431 0.930 . S
C2422 H2416 0.930 . S
C2422 C2423 1.355 . S
C2422 C2424 1.415 . S
C2423 C2422 1.355 . S
C2423 C2425 1.419 . S
C2424 C2422 1.415 . S
C2424 C2429 1.425 . S
C2424 C2431 1.409 . S
C2425 H2417 0.930 . S
C2425 C2423 1.419 . S
C2425 C2426 1.362 . S
C2426 H2418 0.930 . S
C2426 C2425 1.362 . S
C2426 C2429 1.409 . S
C2427 H2419 0.930 . S
C2427 C2428 1.355 . S
C2427 C2429 1.415 . S
C2428 C2427 1.355 . S
C2428 C2430 1.419 . S
C2429 C2424 1.425 . S
C2429 C2426 1.409 . S
C2429 C2427 1.415 . S
C2430 H2420 0.930 . S
C2430 C2428 1.419 . S
C2430 C2431 1.362 . S
C2431 H2421 0.930 . S
C2431 C2424 1.409 . S
C2431 C2430 1.362 . S
H2432 C2438 0.930 . S
H2433 C2441 0.930 . S
H2434 C2442 0.930 . S
H2435 C2443 0.930 . S
H2436 C2446 0.930 . S
H2437 C2447 0.930 . S
C2438 H2432 0.930 . S
C2438 C2439 1.355 . S
C2438 C2440 1.415 . S
C2439 C2438 1.355 . S
C2439 C2441 1.419 . S
C2440 C2438 1.415 . S
C2440 C2445 1.425 . S
C2440 C2447 1.409 . S
C2441 H2433 0.930 . S
C2441 C2439 1.419 . S
C2441 C2442 1.362 . S
C2442 H2434 0.930 . S
C2442 C2441 1.362 . S
C2442 C2445 1.409 . S
C2443 H2435 0.930 . S
C2443 C2444 1.355 . S
C2443 C2445 1.415 . S
C2444 C2443 1.355 . S
C2444 C2446 1.419 . S
C2445 C2440 1.425 . S
C2445 C2442 1.409 . S
C2445 C2443 1.415 . S
C2446 H2436 0.930 . S
C2446 C2444 1.419 . S
C2446 C2447 1.362 . S
C2447 H2437 0.930 . S
C2447 C2440 1.409 . S
C2447 C2446 1.362 . S
H2448 C2454 0.930 . S
H2449 C2457 0.930 . S
H2450 C2458 0.930 . S
H2451 C2459 0.930 . S
H2452 C2462 0.930 . S
H2453 C2463 0.930 . S
C2454 H2448 0.930 . S
C2454 C2455 1.355 . S
C2454 C2456 1.415 . S
C2455 C2454 1.355 . S
C2455 C2457 1.419 . S
C2456 C2454 1.415 . S
C2456 C2461 1.425 . S
C2456 C2463 1.409 . S
C2457 H2449 0.930 . S
C2457 C2455 1.419 . S
C2457 C2458 1.362 . S
C2458 H2450 0.930 . S
C2458 C2457 1.362 . S
C2458 C2461 1.409 . S
C2459 H2451 0.930 . S
C2459 C2460 1.355 . S
C2459 C2461 1.415 . S
C2460 C2459 1.355 . S
C2460 C2462 1.419 . S
C2461 C2456 1.425 . S
C2461 C2458 1.409 . S
C2461 C2459 1.415 . S
C2462 H2452 0.930 . S
C2462 C2460 1.419 . S
C2462 C2463 1.362 . S
C2463 H2453 0.930 . S
C2463 C2456 1.409 . S
C2463 C2462 1.362 . S
H2464 C2470 0.930 . S
H2465 C2473 0.930 . S
H2466 C2474 0.930 . S
H2467 C2475 0.930 . S
H2468 C2478 0.930 . S
H2469 C2479 0.930 . S
C2470 H2464 0.930 . S
C2470 C2471 1.355 . S
C2470 C2472 1.415 . S
C2471 C2470 1.355 . S
C2471 C2473 1.419 . S
C2472 C2470 1.415 . S
C2472 C2477 1.425 . S
C2472 C2479 1.409 . S
C2473 H2465 0.930 . S
C2473 C2471 1.419 . S
C2473 C2474 1.362 . S
C2474 H2466 0.930 . S
C2474 C2473 1.362 . S
C2474 C2477 1.409 . S
C2475 H2467 0.930 . S
C2475 C2476 1.355 . S
C2475 C2477 1.415 . S
C2476 C2475 1.355 . S
C2476 C2478 1.419 . S
C2477 C2472 1.425 . S
C2477 C2474 1.409 . S
C2477 C2475 1.415 . S
C2478 H2468 0.930 . S
C2478 C2476 1.419 . S
C2478 C2479 1.362 . S
C2479 H2469 0.930 . S
C2479 C2472 1.409 . S
C2479 C2478 1.362 . S
H2480 C2486 0.930 . S
H2481 C2489 0.930 . S
H2482 C2490 0.930 . S
H2483 C2491 0.930 . S
H2484 C2494 0.930 . S
H2485 C2495 0.930 . S
C2486 H2480 0.930 . S
C2486 C2487 1.355 . S
C2486 C2488 1.415 . S
C2487 C2486 1.355 . S
C2487 C2489 1.419 1_556 S
C2488 C2486 1.415 . S
C2488 C2493 1.425 1_556 S
C2488 C2495 1.409 . S
C2489 H2481 0.930 . S
C2489 C2487 1.419 1_554 S
C2489 C2490 1.362 . S
C2490 H2482 0.930 . S
C2490 C2489 1.362 . S
C2490 C2493 1.409 . S
C2491 H2483 0.930 . S
C2491 C2492 1.355 . S
C2491 C2493 1.415 . S
C2492 C2491 1.355 . S
C2492 C2494 1.419 1_554 S
C2493 C2488 1.425 1_554 S
C2493 C2490 1.409 . S
C2493 C2491 1.415 . S
C2494 H2484 0.930 . S
C2494 C2492 1.419 1_556 S
C2494 C2495 1.362 . S
C2495 H2485 0.930 . S
C2495 C2488 1.409 . S
C2495 C2494 1.362 . S
H2496 C2502 0.930 . S
H2497 C2505 0.930 . S
H2498 C2506 0.930 1_655 S
H2499 C2507 0.930 . S
H2500 C2510 0.930 . S
H2501 C2511 0.930 1_455 S
C2502 H2496 0.930 . S
C2502 C2503 1.355 . S
C2502 C2504 1.415 . S
C2503 C2502 1.355 . S
C2503 C2505 1.419 . S
C2504 C2502 1.415 . S
C2504 C2509 1.425 1_455 S
C2504 C2511 1.409 1_455 S
C2505 H2497 0.930 . S
C2505 C2503 1.419 . S
C2505 C2506 1.362 . S
C2506 H2498 0.930 1_455 S
C2506 C2505 1.362 . S
C2506 C2509 1.409 1_455 S
C2507 H2499 0.930 . S
C2507 C2508 1.355 . S
C2507 C2509 1.415 . S
C2508 C2507 1.355 . S
C2508 C2510 1.419 . S
C2509 C2504 1.425 1_655 S
C2509 C2506 1.409 1_655 S
C2509 C2507 1.415 . S
C2510 H2500 0.930 . S
C2510 C2508 1.419 . S
C2510 C2511 1.362 . S
C2511 H2501 0.930 1_655 S
C2511 C2504 1.409 1_655 S
C2511 C2510 1.362 . S
H2512 C2518 0.930 . S
H2513 C2521 0.930 . S
H2514 C2522 0.930 . S
H2515 C2523 0.930 . S
H2516 C2526 0.930 . S
H2517 C2527 0.930 . S
C2518 H2512 0.930 . S
C2518 C2519 1.355 . S
C2518 C2520 1.415 . S
C2519 C2518 1.355 . S
C2519 C2521 1.419 . S
C2520 C2518 1.415 . S
C2520 C2525 1.425 . S
C2520 C2527 1.409 . S
C2521 H2513 0.930 . S
C2521 C2519 1.419 . S
C2521 C2522 1.362 . S
C2522 H2514 0.930 . S
C2522 C2521 1.362 . S
C2522 C2525 1.409 . S
C2523 H2515 0.930 . S
C2523 C2524 1.355 . S
C2523 C2525 1.415 . S
C2524 C2523 1.355 . S
C2524 C2526 1.419 . S
C2525 C2520 1.425 . S
C2525 C2522 1.409 . S
C2525 C2523 1.415 . S
C2526 H2516 0.930 . S
C2526 C2524 1.419 . S
C2526 C2527 1.362 . S
C2527 H2517 0.930 . S
C2527 C2520 1.409 . S
C2527 C2526 1.362 . S
H2528 C2534 0.930 . S
H2529 C2537 0.930 . S
H2530 C2538 0.930 . S
H2531 C2539 0.930 . S
H2532 C2542 0.930 . S
H2533 C2543 0.930 . S
C2534 H2528 0.930 . S
C2534 C2535 1.355 . S
C2534 C2536 1.415 . S
C2535 C2534 1.355 . S
C2535 C2537 1.419 . S
C2536 C2534 1.415 . S
C2536 C2541 1.425 . S
C2536 C2543 1.409 . S
C2537 H2529 0.930 . S
C2537 C2535 1.419 . S
C2537 C2538 1.362 . S
C2538 H2530 0.930 . S
C2538 C2537 1.362 . S
C2538 C2541 1.409 . S
C2539 H2531 0.930 . S
C2539 C2540 1.355 . S
C2539 C2541 1.415 1_655 S
C2540 C2539 1.355 . S
C2540 C2542 1.419 . S
C2541 C2536 1.425 . S
C2541 C2538 1.409 . S
C2541 C2539 1.415 1_455 S
C2542 H2532 0.930 . S
C2542 C2540 1.419 . S
C2542 C2543 1.362 1_655 S
C2543 H2533 0.930 . S
C2543 C2536 1.409 . S
C2543 C2542 1.362 1_455 S
H2544 C2550 0.930 . S
H2545 C2553 0.930 . S
H2546 C2554 0.930 . S
H2547 C2555 0.930 . S
H2548 C2558 0.930 . S
H2549 C2559 0.930 . S
C2550 H2544 0.930 . S
C2550 C2551 1.355 . S
C2550 C2552 1.415 1_655 S
C2551 C2550 1.355 . S
C2551 C2553 1.419 1_655 S
C2552 C2550 1.415 1_455 S
C2552 C2557 1.425 . S
C2552 C2559 1.409 1_455 S
C2553 H2545 0.930 . S
C2553 C2551 1.419 1_455 S
C2553 C2554 1.362 . S
C2554 H2546 0.930 . S
C2554 C2553 1.362 . S
C2554 C2557 1.409 . S
C2555 H2547 0.930 . S
C2555 C2556 1.355 . S
C2555 C2557 1.415 . S
C2556 C2555 1.355 . S
C2556 C2558 1.419 . S
C2557 C2552 1.425 . S
C2557 C2554 1.409 . S
C2557 C2555 1.415 . S
C2558 H2548 0.930 . S
C2558 C2556 1.419 . S
C2558 C2559 1.362 1_455 S
C2559 H2549 0.930 . S
C2559 C2552 1.409 1_655 S
C2559 C2558 1.362 1_655 S
H2560 C2566 0.930 . S
H2561 C2569 0.930 . S
H2562 C2570 0.930 . S
H2563 C2571 0.930 . S
H2564 C2574 0.930 . S
H2565 C2575 0.930 . S
C2566 H2560 0.930 . S
C2566 C2567 1.355 . S
C2566 C2568 1.415 . S
C2567 C2566 1.355 . S
C2567 C2569 1.419 . S
C2568 C2566 1.415 . S
C2568 C2573 1.425 . S
C2568 C2575 1.409 . S
C2569 H2561 0.930 . S
C2569 C2567 1.419 . S
C2569 C2570 1.362 . S
C2570 H2562 0.930 . S
C2570 C2569 1.362 . S
C2570 C2573 1.409 . S
C2571 H2563 0.930 . S
C2571 C2572 1.355 . S
C2571 C2573 1.415 . S
C2572 C2571 1.355 . S
C2572 C2574 1.419 . S
C2573 C2568 1.425 . S
C2573 C2570 1.409 . S
C2573 C2571 1.415 . S
C2574 H2564 0.930 . S
C2574 C2572 1.419 . S
C2574 C2575 1.362 . S
C2575 H2565 0.930 . S
C2575 C2568 1.409 . S
C2575 C2574 1.362 . S
H2576 C2582 0.930 . S
H2577 C2585 0.930 . S
H2578 C2586 0.930 . S
H2579 C2587 0.930 . S
H2580 C2590 0.930 . S
H2581 C2591 0.930 . S
C2582 H2576 0.930 . S
C2582 C2583 1.355 . S
C2582 C2584 1.415 . S
C2583 C2582 1.355 . S
C2583 C2585 1.419 . S
C2584 C2582 1.415 . S
C2584 C2589 1.425 . S
C2584 C2591 1.409 . S
C2585 H2577 0.930 . S
C2585 C2583 1.419 . S
C2585 C2586 1.362 . S
C2586 H2578 0.930 . S
C2586 C2585 1.362 . S
C2586 C2589 1.409 . S
C2587 H2579 0.930 . S
C2587 C2588 1.355 . S
C2587 C2589 1.415 . S
C2588 C2587 1.355 . S
C2588 C2590 1.419 . S
C2589 C2584 1.425 . S
C2589 C2586 1.409 . S
C2589 C2587 1.415 . S
C2590 H2580 0.930 . S
C2590 C2588 1.419 . S
C2590 C2591 1.362 . S
C2591 H2581 0.930 . S
C2591 C2584 1.409 . S
C2591 C2590 1.362 . S
H2592 C2598 0.930 . S
H2593 C2601 0.930 . S
H2594 C2602 0.930 . S
H2595 C2603 0.930 . S
H2596 C2606 0.930 . S
H2597 C2607 0.930 . S
C2598 H2592 0.930 . S
C2598 C2599 1.355 . S
C2598 C2600 1.415 . S
C2599 C2598 1.355 . S
C2599 C2601 1.419 . S
C2600 C2598 1.415 . S
C2600 C2605 1.425 . S
C2600 C2607 1.409 . S
C2601 H2593 0.930 . S
C2601 C2599 1.419 . S
C2601 C2602 1.362 . S
C2602 H2594 0.930 . S
C2602 C2601 1.362 . S
C2602 C2605 1.409 . S
C2603 H2595 0.930 . S
C2603 C2604 1.355 . S
C2603 C2605 1.415 . S
C2604 C2603 1.355 . S
C2604 C2606 1.419 . S
C2605 C2600 1.425 . S
C2605 C2602 1.409 . S
C2605 C2603 1.415 . S
C2606 H2596 0.930 . S
C2606 C2604 1.419 . S
C2606 C2607 1.362 . S
C2607 H2597 0.930 . S
C2607 C2600 1.409 . S
C2607 C2606 1.362 . S
H2608 C2614 0.930 . S
H2609 C2617 0.930 . S
H2610 C2618 0.930 . S
H2611 C2619 0.930 . S
H2612 C2622 0.930 . S
H2613 C2623 0.930 . S
C2614 H2608 0.930 . S
C2614 C2615 1.355 . S
C2614 C2616 1.415 . S
C2615 C2614 1.355 . S
C2615 C2617 1.419 . S
C2616 C2614 1.415 . S
C2616 C2621 1.425 . S
C2616 C2623 1.409 . S
C2617 H2609 0.930 . S
C2617 C2615 1.419 . S
C2617 C2618 1.362 . S
C2618 H2610 0.930 . S
C2618 C2617 1.362 . S
C2618 C2621 1.409 . S
C2619 H2611 0.930 . S
C2619 C2620 1.355 . S
C2619 C2621 1.415 . S
C2620 C2619 1.355 . S
C2620 C2622 1.419 . S
C2621 C2616 1.425 . S
C2621 C2618 1.409 . S
C2621 C2619 1.415 . S
C2622 H2612 0.930 . S
C2622 C2620 1.419 . S
C2622 C2623 1.362 . S
C2623 H2613 0.930 . S
C2623 C2616 1.409 . S
C2623 C2622 1.362 . S
H2624 C2630 0.930 . S
H2625 C2633 0.930 . S
H2626 C2634 0.930 . S
H2627 C2635 0.930 . S
H2628 C2638 0.930 . S
H2629 C2639 0.930 . S
C2630 H2624 0.930 . S
C2630 C2631 1.355 . S
C2630 C2632 1.415 . S
C2631 C2630 1.355 . S
C2631 C2633 1.419 . S
C2632 C2630 1.415 . S
C2632 C2637 1.425 . S
C2632 C2639 1.409 . S
C2633 H2625 0.930 . S
C2633 C2631 1.419 . S
C2633 C2634 1.362 . S
C2634 H2626 0.930 . S
C2634 C2633 1.362 . S
C2634 C2637 1.409 . S
C2635 H2627 0.930 . S
C2635 C2636 1.355 . S
C2635 C2637 1.415 . S
C2636 C2635 1.355 . S
C2636 C2638 1.419 . S
C2637 C2632 1.425 . S
C2637 C2634 1.409 . S
C2637 C2635 1.415 . S
C2638 H2628 0.930 . S
C2638 C2636 1.419 . S
C2638 C2639 1.362 . S
C2639 H2629 0.930 . S
C2639 C2632 1.409 . S
C2639 C2638 1.362 . S
H2640 C2646 0.930 . S
H2641 C2649 0.930 . S
H2642 C2650 0.930 . S
H2643 C2651 0.930 . S
H2644 C2654 0.930 . S
H2645 C2655 0.930 . S
C2646 H2640 0.930 . S
C2646 C2647 1.355 . S
C2646 C2648 1.415 . S
C2647 C2646 1.355 . S
C2647 C2649 1.419 . S
C2648 C2646 1.415 . S
C2648 C2653 1.425 . S
C2648 C2655 1.409 . S
C2649 H2641 0.930 . S
C2649 C2647 1.419 . S
C2649 C2650 1.362 . S
C2650 H2642 0.930 . S
C2650 C2649 1.362 . S
C2650 C2653 1.409 . S
C2651 H2643 0.930 . S
C2651 C2652 1.355 . S
C2651 C2653 1.415 . S
C2652 C2651 1.355 . S
C2652 C2654 1.419 . S
C2653 C2648 1.425 . S
C2653 C2650 1.409 . S
C2653 C2651 1.415 . S
C2654 H2644 0.930 . S
C2654 C2652 1.419 . S
C2654 C2655 1.362 . S
C2655 H2645 0.930 . S
C2655 C2648 1.409 . S
C2655 C2654 1.362 . S
H2656 C2662 0.930 . S
H2657 C2665 0.930 . S
H2658 C2666 0.930 . S
H2659 C2667 0.930 . S
H2660 C2670 0.930 . S
H2661 C2671 0.930 . S
C2662 H2656 0.930 . S
C2662 C2663 1.355 . S
C2662 C2664 1.415 . S
C2663 C2662 1.355 . S
C2663 C2665 1.419 . S
C2664 C2662 1.415 . S
C2664 C2669 1.425 . S
C2664 C2671 1.409 . S
C2665 H2657 0.930 . S
C2665 C2663 1.419 . S
C2665 C2666 1.362 . S
C2666 H2658 0.930 . S
C2666 C2665 1.362 . S
C2666 C2669 1.409 . S
C2667 H2659 0.930 . S
C2667 C2668 1.355 . S
C2667 C2669 1.415 . S
C2668 C2667 1.355 . S
C2668 C2670 1.419 . S
C2669 C2664 1.425 . S
C2669 C2666 1.409 . S
C2669 C2667 1.415 . S
C2670 H2660 0.930 . S
C2670 C2668 1.419 . S
C2670 C2671 1.362 . S
C2671 H2661 0.930 . S
C2671 C2664 1.409 . S
C2671 C2670 1.362 . S
H2672 C2678 0.930 . S
H2673 C2681 0.930 . S
H2674 C2682 0.930 . S
H2675 C2683 0.930 . S
H2676 C2686 0.930 . S
H2677 C2687 0.930 . S
C2678 H2672 0.930 . S
C2678 C2679 1.355 . S
C2678 C2680 1.415 . S
C2679 C2678 1.355 . S
C2679 C2681 1.419 . S
C2680 C2678 1.415 . S
C2680 C2685 1.425 . S
C2680 C2687 1.409 . S
C2681 H2673 0.930 . S
C2681 C2679 1.419 . S
C2681 C2682 1.362 . S
C2682 H2674 0.930 . S
C2682 C2681 1.362 . S
C2682 C2685 1.409 . S
C2683 H2675 0.930 . S
C2683 C2684 1.355 . S
C2683 C2685 1.415 . S
C2684 C2683 1.355 . S
C2684 C2686 1.419 . S
C2685 C2680 1.425 . S
C2685 C2682 1.409 . S
C2685 C2683 1.415 . S
C2686 H2676 0.930 . S
C2686 C2684 1.419 . S
C2686 C2687 1.362 . S
C2687 H2677 0.930 . S
C2687 C2680 1.409 . S
C2687 C2686 1.362 . S
H2688 C2694 0.930 . S
H2689 C2697 0.930 . S
H2690 C2698 0.930 . S
H2691 C2699 0.930 . S
H2692 C2702 0.930 . S
H2693 C2703 0.930 . S
C2694 H2688 0.930 . S
C2694 C2695 1.355 . S
C2694 C2696 1.415 . S
C2695 C2694 1.355 . S
C2695 C2697 1.419 . S
C2696 C2694 1.415 . S
C2696 C2701 1.425 . S
C2696 C2703 1.409 . S
C2697 H2689 0.930 . S
C2697 C2695 1.419 . S
C2697 C2698 1.362 . S
C2698 H2690 0.930 . S
C2698 C2697 1.362 . S
C2698 C2701 1.409 . S
C2699 H2691 0.930 . S
C2699 C2700 1.355 . S
C2699 C2701 1.415 . S
C2700 C2699 1.355 . S
C2700 C2702 1.419 . S
C2701 C2696 1.425 . S
C2701 C2698 1.409 . S
C2701 C2699 1.415 . S
C2702 H2692 0.930 . S
C2702 C2700 1.419 . S
C2702 C2703 1.362 . S
C2703 H2693 0.930 . S
C2703 C2696 1.409 . S
C2703 C2702 1.362 . S
H2704 C2710 0.930 . S
H2705 C2713 0.930 . S
H2706 C2714 0.930 . S
H2707 C2715 0.930 . S
H2708 C2718 0.930 . S
H2709 C2719 0.930 . S
C2710 H2704 0.930 . S
C2710 C2711 1.355 . S
C2710 C2712 1.415 . S
C2711 C2710 1.355 . S
C2711 C2713 1.419 . S
C2712 C2710 1.415 . S
C2712 C2717 1.425 . S
C2712 C2719 1.409 . S
C2713 H2705 0.930 . S
C2713 C2711 1.419 . S
C2713 C2714 1.362 . S
C2714 H2706 0.930 . S
C2714 C2713 1.362 . S
C2714 C2717 1.409 . S
C2715 H2707 0.930 . S
C2715 C2716 1.355 . S
C2715 C2717 1.415 . S
C2716 C2715 1.355 . S
C2716 C2718 1.419 . S
C2717 C2712 1.425 . S
C2717 C2714 1.409 . S
C2717 C2715 1.415 . S
C2718 H2708 0.930 . S
C2718 C2716 1.419 . S
C2718 C2719 1.362 . S
C2719 H2709 0.930 . S
C2719 C2712 1.409 . S
C2719 C2718 1.362 . S
H2720 C2726 0.930 . S
H2721 C2729 0.930 . S
H2722 C2730 0.930 . S
H2723 C2731 0.930 . S
H2724 C2734 0.930 . S
H2725 C2735 0.930 . S
C2726 H2720 0.930 . S
C2726 C2727 1.355 . S
C2726 C2728 1.415 . S
C2727 C2726 1.355 . S
C2727 C2729 1.419 . S
C2728 C2726 1.415 . S
C2728 C2733 1.425 . S
C2728 C2735 1.409 . S
C2729 H2721 0.930 . S
C2729 C2727 1.419 . S
C2729 C2730 1.362 . S
C2730 H2722 0.930 . S
C2730 C2729 1.362 . S
C2730 C2733 1.409 . S
C2731 H2723 0.930 . S
C2731 C2732 1.355 . S
C2731 C2733 1.415 . S
C2732 C2731 1.355 . S
C2732 C2734 1.419 . S
C2733 C2728 1.425 . S
C2733 C2730 1.409 . S
C2733 C2731 1.415 . S
C2734 H2724 0.930 . S
C2734 C2732 1.419 . S
C2734 C2735 1.362 . S
C2735 H2725 0.930 . S
C2735 C2728 1.409 . S
C2735 C2734 1.362 . S
H2736 C2742 0.930 . S
H2737 C2745 0.930 . S
H2738 C2746 0.930 . S
H2739 C2747 0.930 . S
H2740 C2750 0.930 . S
H2741 C2751 0.930 . S
C2742 H2736 0.930 . S
C2742 C2743 1.355 . S
C2742 C2744 1.415 . S
C2743 C2742 1.355 . S
C2743 C2745 1.419 . S
C2744 C2742 1.415 . S
C2744 C2749 1.425 . S
C2744 C2751 1.409 . S
C2745 H2737 0.930 . S
C2745 C2743 1.419 . S
C2745 C2746 1.362 . S
C2746 H2738 0.930 . S
C2746 C2745 1.362 . S
C2746 C2749 1.409 . S
C2747 H2739 0.930 . S
C2747 C2748 1.355 . S
C2747 C2749 1.415 . S
C2748 C2747 1.355 . S
C2748 C2750 1.419 . S
C2749 C2744 1.425 . S
C2749 C2746 1.409 . S
C2749 C2747 1.415 . S
C2750 H2740 0.930 . S
C2750 C2748 1.419 . S
C2750 C2751 1.362 . S
C2751 H2741 0.930 . S
C2751 C2744 1.409 . S
C2751 C2750 1.362 . S
H2752 C2758 0.930 . S
H2753 C2761 0.930 . S
H2754 C2762 0.930 . S
H2755 C2763 0.930 . S
H2756 C2766 0.930 . S
H2757 C2767 0.930 . S
C2758 H2752 0.930 . S
C2758 C2759 1.355 . S
C2758 C2760 1.415 . S
C2759 C2758 1.355 . S
C2759 C2761 1.419 1_554 S
C2760 C2758 1.415 . S
C2760 C2765 1.440 . S
C2760 C2767 1.409 . S
C2761 H2753 0.930 . S
C2761 C2759 1.419 1_556 S
C2761 C2762 1.362 . S
C2762 H2754 0.930 . S
C2762 C2761 1.362 . S
C2762 C2765 1.399 1_556 S
C2763 H2755 0.930 . S
C2763 C2764 1.355 1_556 S
C2763 C2765 1.411 1_546 S
C2764 C2763 1.355 1_554 S
C2764 C2766 1.419 . S
C2765 C2760 1.440 . S
C2765 C2762 1.399 1_554 S
C2765 C2763 1.411 1_564 S
C2766 H2756 0.930 . S
C2766 C2764 1.419 . S
C2766 C2767 1.362 1_545 S
C2767 H2757 0.930 . S
C2767 C2760 1.409 . S
C2767 C2766 1.362 1_565 S
H2768 C2774 0.930 . S
H2769 C2777 0.930 . S
H2770 C2778 0.930 . S
H2771 C2779 0.930 . S
H2772 C2782 0.930 . S
H2773 C2783 0.930 . S
C2774 H2768 0.930 . S
C2774 C2775 1.355 . S
C2774 C2776 1.415 . S
C2775 C2774 1.355 . S
C2775 C2777 1.419 . S
C2776 C2774 1.415 . S
C2776 C2781 1.425 . S
C2776 C2783 1.409 . S
C2777 H2769 0.930 . S
C2777 C2775 1.419 . S
C2777 C2778 1.362 . S
C2778 H2770 0.930 . S
C2778 C2777 1.362 . S
C2778 C2781 1.409 . S
C2779 H2771 0.930 . S
C2779 C2780 1.355 . S
C2779 C2781 1.415 . S
C2780 C2779 1.355 . S
C2780 C2782 1.419 . S
C2781 C2776 1.425 . S
C2781 C2778 1.409 . S
C2781 C2779 1.415 . S
C2782 H2772 0.930 . S
C2782 C2780 1.419 . S
C2782 C2783 1.362 . S
C2783 H2773 0.930 . S
C2783 C2776 1.409 . S
C2783 C2782 1.362 . S
H2784 C2790 0.930 . S
H2785 C2793 0.930 . S
H2786 C2794 0.930 . S
H2787 C2795 0.930 1_556 S
H2788 C2798 0.930 . S
H2789 C2799 0.930 . S
C2790 H2784 0.930 . S
C2790 C2791 1.355 . S
C2790 C2792 1.415 . S
C2791 C2790 1.355 . S
C2791 C2793 1.419 1_554 S
C2792 C2790 1.415 . S
C2792 C2797 1.425 . S
C2792 C2799 1.409 . S
C2793 H2785 0.930 . S
C2793 C2791 1.419 1_556 S
C2793 C2794 1.362 . S
C2794 H2786 0.930 . S
C2794 C2793 1.362 . S
C2794 C2797 1.409 1_556 S
C2795 H2787 0.930 1_554 S
C2795 C2796 1.355 . S
C2795 C2797 1.415 . S
C2796 C2795 1.355 . S
C2796 C2798 1.419 . S
C2797 C2792 1.425 . S
C2797 C2794 1.409 1_554 S
C2797 C2795 1.415 . S
C2798 H2788 0.930 . S
C2798 C2796 1.419 . S
C2798 C2799 1.362 . S
C2799 H2789 0.930 . S
C2799 C2792 1.409 . S
C2799 C2798 1.362 . S
H2800 C2806 0.930 . S
H2801 C2809 0.930 . S
H2802 C2810 0.930 . S
H2803 C2811 0.930 . S
H2804 C2814 0.930 . S
H2805 C2815 0.930 . S
C2806 H2800 0.930 . S
C2806 C2807 1.355 . S
C2806 C2808 1.415 . S
C2807 C2806 1.355 . S
C2807 C2809 1.419 . S
C2808 C2806 1.415 . S
C2808 C2813 1.425 . S
C2808 C2815 1.409 . S
C2809 H2801 0.930 . S
C2809 C2807 1.419 . S
C2809 C2810 1.362 . S
C2810 H2802 0.930 . S
C2810 C2809 1.362 . S
C2810 C2813 1.409 . S
C2811 H2803 0.930 . S
C2811 C2812 1.355 . S
C2811 C2813 1.415 . S
C2812 C2811 1.355 . S
C2812 C2814 1.419 . S
C2813 C2808 1.425 . S
C2813 C2810 1.409 . S
C2813 C2811 1.415 . S
C2814 H2804 0.930 . S
C2814 C2812 1.419 . S
C2814 C2815 1.362 . S
C2815 H2805 0.930 . S
C2815 C2808 1.409 . S
C2815 C2814 1.362 . S
H2816 C2822 0.930 . S
H2817 C2825 0.930 . S
H2818 C2826 0.930 . S
H2819 C2827 0.930 . S
H2820 C2830 0.930 . S
H2821 C2831 0.930 . S
C2822 H2816 0.930 . S
C2822 C2823 1.355 . S
C2822 C2824 1.415 . S
C2823 C2822 1.355 . S
C2823 C2825 1.419 . S
C2824 C2822 1.415 . S
C2824 C2829 1.425 . S
C2824 C2831 1.409 . S
C2825 H2817 0.930 . S
C2825 C2823 1.419 . S
C2825 C2826 1.362 . S
C2826 H2818 0.930 . S
C2826 C2825 1.362 . S
C2826 C2829 1.409 . S
C2827 H2819 0.930 . S
C2827 C2828 1.355 . S
C2827 C2829 1.415 . S
C2828 C2827 1.355 . S
C2828 C2830 1.419 . S
C2829 C2824 1.425 . S
C2829 C2826 1.409 . S
C2829 C2827 1.415 . S
C2830 H2820 0.930 . S
C2830 C2828 1.419 . S
C2830 C2831 1.362 . S
C2831 H2821 0.930 . S
C2831 C2824 1.409 . S
C2831 C2830 1.362 . S
H2832 C2838 0.930 . S
H2833 C2841 0.930 . S
H2834 C2842 0.930 . S
H2835 C2843 0.930 . S
H2836 C2846 0.930 . S
H2837 C2847 0.930 . S
C2838 H2832 0.930 . S
C2838 C2839 1.355 . S
C2838 C2840 1.415 . S
C2839 C2838 1.355 . S
C2839 C2841 1.419 . S
C2840 C2838 1.415 . S
C2840 C2845 1.425 . S
C2840 C2847 1.409 . S
C2841 H2833 0.930 . S
C2841 C2839 1.419 . S
C2841 C2842 1.362 . S
C2842 H2834 0.930 . S
C2842 C2841 1.362 . S
C2842 C2845 1.409 . S
C2843 H2835 0.930 . S
C2843 C2844 1.355 . S
C2843 C2845 1.415 . S
C2844 C2843 1.355 . S
C2844 C2846 1.419 . S
C2845 C2840 1.425 . S
C2845 C2842 1.409 . S
C2845 C2843 1.415 . S
C2846 H2836 0.930 . S
C2846 C2844 1.419 . S
C2846 C2847 1.362 . S
C2847 H2837 0.930 . S
C2847 C2840 1.409 . S
C2847 C2846 1.362 . S
H2848 C2854 0.930 . S
H2849 C2857 0.930 . S
H2850 C2858 0.930 . S
H2851 C2859 0.930 . S
H2852 C2862 0.930 . S
H2853 C2863 0.930 . S
C2854 H2848 0.930 . S
C2854 C2855 1.355 . S
C2854 C2856 1.415 . S
C2855 C2854 1.355 . S
C2855 C2857 1.419 . S
C2856 C2854 1.415 . S
C2856 C2861 1.425 . S
C2856 C2863 1.409 . S
C2857 H2849 0.930 . S
C2857 C2855 1.419 . S
C2857 C2858 1.362 . S
C2858 H2850 0.930 . S
C2858 C2857 1.362 . S
C2858 C2861 1.409 . S
C2859 H2851 0.930 . S
C2859 C2860 1.355 . S
C2859 C2861 1.415 . S
C2860 C2859 1.355 . S
C2860 C2862 1.419 . S
C2861 C2856 1.425 . S
C2861 C2858 1.409 . S
C2861 C2859 1.415 . S
C2862 H2852 0.930 . S
C2862 C2860 1.419 . S
C2862 C2863 1.362 . S
C2863 H2853 0.930 . S
C2863 C2856 1.409 . S
C2863 C2862 1.362 . S
H2864 C2870 0.930 . S
H2865 C2873 0.930 . S
H2866 C2874 0.930 . S
H2867 C2875 0.930 . S
H2868 C2878 0.930 . S
H2869 C2879 0.930 . S
C2870 H2864 0.930 . S
C2870 C2871 1.355 . S
C2870 C2872 1.415 . S
C2871 C2870 1.355 . S
C2871 C2873 1.419 . S
C2872 C2870 1.415 . S
C2872 C2877 1.425 . S
C2872 C2879 1.409 . S
C2873 H2865 0.930 . S
C2873 C2871 1.419 . S
C2873 C2874 1.362 . S
C2874 H2866 0.930 . S
C2874 C2873 1.362 . S
C2874 C2877 1.409 . S
C2875 H2867 0.930 . S
C2875 C2876 1.355 . S
C2875 C2877 1.415 . S
C2876 C2875 1.355 . S
C2876 C2878 1.419 . S
C2877 C2872 1.425 . S
C2877 C2874 1.409 . S
C2877 C2875 1.415 . S
C2878 H2868 0.930 . S
C2878 C2876 1.419 . S
C2878 C2879 1.362 . S
C2879 H2869 0.930 . S
C2879 C2872 1.409 . S
C2879 C2878 1.362 . S
H2880 C2886 0.930 . S
H2881 C2889 0.930 . S
H2882 C2890 0.930 . S
H2883 C2891 0.930 . S
H2884 C2894 0.930 . S
H2885 C2895 0.930 . S
C2886 H2880 0.930 . S
C2886 C2887 1.355 . S
C2886 C2888 1.415 . S
C2887 C2886 1.355 . S
C2887 C2889 1.419 . S
C2888 C2886 1.415 . S
C2888 C2893 1.425 . S
C2888 C2895 1.409 . S
C2889 H2881 0.930 . S
C2889 C2887 1.419 . S
C2889 C2890 1.362 . S
C2890 H2882 0.930 . S
C2890 C2889 1.362 . S
C2890 C2893 1.409 . S
C2891 H2883 0.930 . S
C2891 C2892 1.355 . S
C2891 C2893 1.415 . S
C2892 C2891 1.355 . S
C2892 C2894 1.419 . S
C2893 C2888 1.425 . S
C2893 C2890 1.409 . S
C2893 C2891 1.415 . S
C2894 H2884 0.930 . S
C2894 C2892 1.419 . S
C2894 C2895 1.362 . S
C2895 H2885 0.930 . S
C2895 C2888 1.409 . S
C2895 C2894 1.362 . S
H2896 C2902 0.930 . S
H2897 C2905 0.930 . S
H2898 C2906 0.930 . S
H2899 C2907 0.930 . S
H2900 C2910 0.930 1_554 S
H2901 C2911 0.930 . S
C2902 H2896 0.930 . S
C2902 C2903 1.355 . S
C2902 C2904 1.415 . S
C2903 C2902 1.355 . S
C2903 C2905 1.419 . S
C2904 C2902 1.415 . S
C2904 C2909 1.425 . S
C2904 C2911 1.409 . S
C2905 H2897 0.930 . S
C2905 C2903 1.419 . S
C2905 C2906 1.362 . S
C2906 H2898 0.930 . S
C2906 C2905 1.362 . S
C2906 C2909 1.409 . S
C2907 H2899 0.930 . S
C2907 C2908 1.355 . S
C2907 C2909 1.415 . S
C2908 C2907 1.355 . S
C2908 C2910 1.419 . S
C2909 C2904 1.425 . S
C2909 C2906 1.409 . S
C2909 C2907 1.415 . S
C2910 H2900 0.930 1_556 S
C2910 C2908 1.419 . S
C2910 C2911 1.362 . S
C2911 H2901 0.930 . S
C2911 C2904 1.409 . S
C2911 C2910 1.362 . S
H2912 C2918 0.930 . S
H2913 C2921 0.930 . S
H2914 C2922 0.930 . S
H2915 C2923 0.930 . S
H2916 C2926 0.930 . S
H2917 C2927 0.930 . S
C2918 H2912 0.930 . S
C2918 C2919 1.355 . S
C2918 C2920 1.415 . S
C2919 C2918 1.355 . S
C2919 C2921 1.419 . S
C2920 C2918 1.415 . S
C2920 C2925 1.425 . S
C2920 C2927 1.409 . S
C2921 H2913 0.930 . S
C2921 C2919 1.419 . S
C2921 C2922 1.362 . S
C2922 H2914 0.930 . S
C2922 C2921 1.362 . S
C2922 C2925 1.409 . S
C2923 H2915 0.930 . S
C2923 C2924 1.355 . S
C2923 C2925 1.415 . S
C2924 C2923 1.355 . S
C2924 C2926 1.419 . S
C2925 C2920 1.425 . S
C2925 C2922 1.409 . S
C2925 C2923 1.415 . S
C2926 H2916 0.930 . S
C2926 C2924 1.419 . S
C2926 C2927 1.362 . S
C2927 H2917 0.930 . S
C2927 C2920 1.409 . S
C2927 C2926 1.362 . S
H2928 C2934 0.930 . S
H2929 C2937 0.930 . S
H2930 C2938 0.930 . S
H2931 C2939 0.930 . S
H2932 C2942 0.930 . S
H2933 C2943 0.930 . S
C2934 H2928 0.930 . S
C2934 C2935 1.355 . S
C2934 C2936 1.415 . S
C2935 C2934 1.355 . S
C2935 C2937 1.419 . S
C2936 C2934 1.415 . S
C2936 C2941 1.425 . S
C2936 C2943 1.409 . S
C2937 H2929 0.930 . S
C2937 C2935 1.419 . S
C2937 C2938 1.362 . S
C2938 H2930 0.930 . S
C2938 C2937 1.362 . S
C2938 C2941 1.409 . S
C2939 H2931 0.930 . S
C2939 C2940 1.355 . S
C2939 C2941 1.415 . S
C2940 C2939 1.355 . S
C2940 C2942 1.419 . S
C2941 C2936 1.425 . S
C2941 C2938 1.409 . S
C2941 C2939 1.415 . S
C2942 H2932 0.930 . S
C2942 C2940 1.419 . S
C2942 C2943 1.362 . S
C2943 H2933 0.930 . S
C2943 C2936 1.409 . S
C2943 C2942 1.362 . S
H2944 C2950 0.930 . S
H2945 C2953 0.930 . S
H2946 C2954 0.930 . S
H2947 C2955 0.930 . S
H2948 C2958 0.930 . S
H2949 C2959 0.930 . S
C2950 H2944 0.930 . S
C2950 C2951 1.355 . S
C2950 C2952 1.415 . S
C2951 C2950 1.355 . S
C2951 C2953 1.419 . S
C2952 C2950 1.415 . S
C2952 C2957 1.425 . S
C2952 C2959 1.409 . S
C2953 H2945 0.930 . S
C2953 C2951 1.419 . S
C2953 C2954 1.362 . S
C2954 H2946 0.930 . S
C2954 C2953 1.362 . S
C2954 C2957 1.409 . S
C2955 H2947 0.930 . S
C2955 C2956 1.355 . S
C2955 C2957 1.415 . S
C2956 C2955 1.355 . S
C2956 C2958 1.419 . S
C2957 C2952 1.425 . S
C2957 C2954 1.409 . S
C2957 C2955 1.415 . S
C2958 H2948 0.930 . S
C2958 C2956 1.419 . S
C2958 C2959 1.362 . S
C2959 H2949 0.930 . S
C2959 C2952 1.409 . S
C2959 C2958 1.362 . S
H2960 C2966 0.930 . S
H2961 C2969 0.930 . S
H2962 C2970 0.930 . S
H2963 C2971 0.930 . S
H2964 C2974 0.930 . S
H2965 C2975 0.930 . S
C2966 H2960 0.930 . S
C2966 C2967 1.355 . S
C2966 C2968 1.415 . S
C2967 C2966 1.355 . S
C2967 C2969 1.419 . S
C2968 C2966 1.415 . S
C2968 C2973 1.425 . S
C2968 C2975 1.409 . S
C2969 H2961 0.930 . S
C2969 C2967 1.419 . S
C2969 C2970 1.362 . S
C2970 H2962 0.930 . S
C2970 C2969 1.362 . S
C2970 C2973 1.409 . S
C2971 H2963 0.930 . S
C2971 C2972 1.355 . S
C2971 C2973 1.415 . S
C2972 C2971 1.355 . S
C2972 C2974 1.419 . S
C2973 C2968 1.425 . S
C2973 C2970 1.409 . S
C2973 C2971 1.415 . S
C2974 H2964 0.930 . S
C2974 C2972 1.419 . S
C2974 C2975 1.362 . S
C2975 H2965 0.930 . S
C2975 C2968 1.409 . S
C2975 C2974 1.362 . S
H2976 C2982 0.930 . S
H2977 C2985 0.930 . S
H2978 C2986 0.930 . S
H2979 C2987 0.930 . S
H2980 C2990 0.930 . S
H2981 C2991 0.930 . S
C2982 H2976 0.930 . S
C2982 C2983 1.355 . S
C2982 C2984 1.415 . S
C2983 C2982 1.355 . S
C2983 C2985 1.419 . S
C2984 C2982 1.415 . S
C2984 C2989 1.425 . S
C2984 C2991 1.409 . S
C2985 H2977 0.930 . S
C2985 C2983 1.419 . S
C2985 C2986 1.362 . S
C2986 H2978 0.930 . S
C2986 C2985 1.362 . S
C2986 C2989 1.409 . S
C2987 H2979 0.930 . S
C2987 C2988 1.355 . S
C2987 C2989 1.415 . S
C2988 C2987 1.355 . S
C2988 C2990 1.419 . S
C2989 C2984 1.425 . S
C2989 C2986 1.409 . S
C2989 C2987 1.415 . S
C2990 H2980 0.930 . S
C2990 C2988 1.419 . S
C2990 C2991 1.362 . S
C2991 H2981 0.930 . S
C2991 C2984 1.409 . S
C2991 C2990 1.362 . S
H2992 C2998 0.930 . S
H2993 C3001 0.930 . S
H2994 C3002 0.930 . S
H2995 C3003 0.930 . S
H2996 C3006 0.930 . S
H2997 C3007 0.930 . S
C2998 H2992 0.930 . S
C2998 C2999 1.355 . S
C2998 C3000 1.415 . S
C2999 C2998 1.355 . S
C2999 C3001 1.419 . S
C3000 C2998 1.415 . S
C3000 C3005 1.425 1_655 S
C3000 C3007 1.409 . S
C3001 H2993 0.930 . S
C3001 C2999 1.419 . S
C3001 C3002 1.362 1_655 S
C3002 H2994 0.930 . S
C3002 C3001 1.362 1_455 S
C3002 C3005 1.409 . S
C3003 H2995 0.930 . S
C3003 C3004 1.355 . S
C3003 C3005 1.415 . S
C3004 C3003 1.355 . S
C3004 C3006 1.419 . S
C3005 C3000 1.425 1_455 S
C3005 C3002 1.409 . S
C3005 C3003 1.415 . S
C3006 H2996 0.930 . S
C3006 C3004 1.419 . S
C3006 C3007 1.362 1_455 S
C3007 H2997 0.930 . S
C3007 C3000 1.409 . S
C3007 C3006 1.362 1_655 S
H3008 C3014 0.930 . S
H3009 C3017 0.930 . S
H3010 C3018 0.930 . S
H3011 C3019 0.930 . S
H3012 C3022 0.930 . S
H3013 C3023 0.930 . S
C3014 H3008 0.930 . S
C3014 C3015 1.355 . S
C3014 C3016 1.415 . S
C3015 C3014 1.355 . S
C3015 C3017 1.419 . S
C3016 C3014 1.415 . S
C3016 C3021 1.425 . S
C3016 C3023 1.409 . S
C3017 H3009 0.930 . S
C3017 C3015 1.419 . S
C3017 C3018 1.362 . S
C3018 H3010 0.930 . S
C3018 C3017 1.362 . S
C3018 C3021 1.409 . S
C3019 H3011 0.930 . S
C3019 C3020 1.355 . S
C3019 C3021 1.415 . S
C3020 C3019 1.355 . S
C3020 C3022 1.419 . S
C3021 C3016 1.425 . S
C3021 C3018 1.409 . S
C3021 C3019 1.415 . S
C3022 H3012 0.930 . S
C3022 C3020 1.419 . S
C3022 C3023 1.362 . S
C3023 H3013 0.930 . S
C3023 C3016 1.409 . S
C3023 C3022 1.362 . S
H3024 C3030 0.930 . S
H3025 C3033 0.930 . S
H3026 C3034 0.930 . S
H3027 C3035 0.930 . S
H3028 C3038 0.930 . S
H3029 C3039 0.930 . S
C3030 H3024 0.930 . S
C3030 C3031 1.355 . S
C3030 C3032 1.415 . S
C3031 C3030 1.355 . S
C3031 C3033 1.419 . S
C3032 C3030 1.415 . S
C3032 C3037 1.425 . S
C3032 C3039 1.409 . S
C3033 H3025 0.930 . S
C3033 C3031 1.419 . S
C3033 C3034 1.362 . S
C3034 H3026 0.930 . S
C3034 C3033 1.362 . S
C3034 C3037 1.409 . S
C3035 H3027 0.930 . S
C3035 C3036 1.355 . S
C3035 C3037 1.415 . S
C3036 C3035 1.355 . S
C3036 C3038 1.419 . S
C3037 C3032 1.425 . S
C3037 C3034 1.409 . S
C3037 C3035 1.415 . S
C3038 H3028 0.930 . S
C3038 C3036 1.419 . S
C3038 C3039 1.362 . S
C3039 H3029 0.930 . S
C3039 C3032 1.409 . S
C3039 C3038 1.362 . S
H3040 C3046 0.930 . S
H3041 C3049 0.930 . S
H3042 C3050 0.930 . S
H3043 C3051 0.930 . S
H3044 C3054 0.930 . S
H3045 C3055 0.930 . S
C3046 H3040 0.930 . S
C3046 C3047 1.355 . S
C3046 C3048 1.415 . S
C3047 C3046 1.355 . S
C3047 C3049 1.419 . S
C3048 C3046 1.415 . S
C3048 C3053 1.425 . S
C3048 C3055 1.409 . S
C3049 H3041 0.930 . S
C3049 C3047 1.419 . S
C3049 C3050 1.362 . S
C3050 H3042 0.930 . S
C3050 C3049 1.362 . S
C3050 C3053 1.409 . S
C3051 H3043 0.930 . S
C3051 C3052 1.355 . S
C3051 C3053 1.415 . S
C3052 C3051 1.355 . S
C3052 C3054 1.419 . S
C3053 C3048 1.425 . S
C3053 C3050 1.409 . S
C3053 C3051 1.415 . S
C3054 H3044 0.930 . S
C3054 C3052 1.419 . S
C3054 C3055 1.362 . S
C3055 H3045 0.930 . S
C3055 C3048 1.409 . S
C3055 C3054 1.362 . S
H3056 C3062 0.930 . S
H3057 C3065 0.930 . S
H3058 C3066 0.930 1_455 S
H3059 C3067 0.930 . S
H3060 C3070 0.930 . S
H3061 C3071 0.930 . S
C3062 H3056 0.930 . S
C3062 C3063 1.355 . S
C3062 C3064 1.415 . S
C3063 C3062 1.355 . S
C3063 C3065 1.419 . S
C3064 C3062 1.415 . S
C3064 C3069 1.425 . S
C3064 C3071 1.409 . S
C3065 H3057 0.930 . S
C3065 C3063 1.419 . S
C3065 C3066 1.362 . S
C3066 H3058 0.930 1_655 S
C3066 C3065 1.362 . S
C3066 C3069 1.409 . S
C3067 H3059 0.930 . S
C3067 C3068 1.355 1_455 S
C3067 C3069 1.415 1_455 S
C3068 C3067 1.355 1_655 S
C3068 C3070 1.419 . S
C3069 C3064 1.425 . S
C3069 C3066 1.409 . S
C3069 C3067 1.415 1_655 S
C3070 H3060 0.930 . S
C3070 C3068 1.419 . S
C3070 C3071 1.362 . S
C3071 H3061 0.930 . S
C3071 C3064 1.409 . S
C3071 C3070 1.362 . S
H3072 C3078 0.930 . S
H3073 C3081 0.930 . S
H3074 C3082 0.930 . S
H3075 C3083 0.930 . S
H3076 C3086 0.930 . S
H3077 C3087 0.930 . S
C3078 H3072 0.930 . S
C3078 C3079 1.355 . S
C3078 C3080 1.415 . S
C3079 C3078 1.355 . S
C3079 C3081 1.419 . S
C3080 C3078 1.415 . S
C3080 C3085 1.425 . S
C3080 C3087 1.409 . S
C3081 H3073 0.930 . S
C3081 C3079 1.419 . S
C3081 C3082 1.362 . S
C3082 H3074 0.930 . S
C3082 C3081 1.362 . S
C3082 C3085 1.409 . S
C3083 H3075 0.930 . S
C3083 C3084 1.355 . S
C3083 C3085 1.415 . S
C3084 C3083 1.355 . S
C3084 C3086 1.419 . S
C3085 C3080 1.425 . S
C3085 C3082 1.409 . S
C3085 C3083 1.415 . S
C3086 H3076 0.930 . S
C3086 C3084 1.419 . S
C3086 C3087 1.362 . S
C3087 H3077 0.930 . S
C3087 C3080 1.409 . S
C3087 C3086 1.362 . S
H3088 C3094 0.930 . S
H3089 C3097 0.930 . S
H3090 C3098 0.930 . S
H3091 C3099 0.930 . S
H3092 C3102 0.930 . S
H3093 C3103 0.930 . S
C3094 H3088 0.930 . S
C3094 C3095 1.355 . S
C3094 C3096 1.415 . S
C3095 C3094 1.355 . S
C3095 C3097 1.419 . S
C3096 C3094 1.415 . S
C3096 C3101 1.425 . S
C3096 C3103 1.409 . S
C3097 H3089 0.930 . S
C3097 C3095 1.419 . S
C3097 C3098 1.362 . S
C3098 H3090 0.930 . S
C3098 C3097 1.362 . S
C3098 C3101 1.409 . S
C3099 H3091 0.930 . S
C3099 C3100 1.355 . S
C3099 C3101 1.415 . S
C3100 C3099 1.355 . S
C3100 C3102 1.419 . S
C3101 C3096 1.425 . S
C3101 C3098 1.409 . S
C3101 C3099 1.415 . S
C3102 H3092 0.930 . S
C3102 C3100 1.419 . S
C3102 C3103 1.362 . S
C3103 H3093 0.930 . S
C3103 C3096 1.409 . S
C3103 C3102 1.362 . S
H3104 C3110 0.930 . S
H3105 C3113 0.930 . S
H3106 C3114 0.930 . S
H3107 C3115 0.930 1_545 S
H3108 C3118 0.930 1_455 S
H3109 C3119 0.930 . S
C3110 H3104 0.930 . S
C3110 C3111 1.355 . S
C3110 C3112 1.415 . S
C3111 C3110 1.355 . S
C3111 C3113 1.419 . S
C3112 C3110 1.415 . S
C3112 C3117 1.425 . S
C3112 C3119 1.409 . S
C3113 H3105 0.930 . S
C3113 C3111 1.419 . S
C3113 C3114 1.362 . S
C3114 H3106 0.930 . S
C3114 C3113 1.362 . S
C3114 C3117 1.409 . S
C3115 H3107 0.930 1_565 S
C3115 C3116 1.355 . S
C3115 C3117 1.415 . S
C3116 C3115 1.355 . S
C3116 C3118 1.419 . S
C3117 C3112 1.425 . S
C3117 C3114 1.409 . S
C3117 C3115 1.415 . S
C3118 H3108 0.930 1_655 S
C3118 C3116 1.419 . S
C3118 C3119 1.362 . S
C3119 H3109 0.930 . S
C3119 C3112 1.409 . S
C3119 C3118 1.362 . S
H3120 C3126 0.930 . S
H3121 C3129 0.930 . S
H3122 C3130 0.930 . S
H3123 C3131 0.930 . S
H3124 C3134 0.930 . S
H3125 C3135 0.930 . S
C3126 H3120 0.930 . S
C3126 C3127 1.355 . S
C3126 C3128 1.415 . S
C3127 C3126 1.355 . S
C3127 C3129 1.419 . S
C3128 C3126 1.415 . S
C3128 C3133 1.425 . S
C3128 C3135 1.409 . S
C3129 H3121 0.930 . S
C3129 C3127 1.419 . S
C3129 C3130 1.362 . S
C3130 H3122 0.930 . S
C3130 C3129 1.362 . S
C3130 C3133 1.409 . S
C3131 H3123 0.930 . S
C3131 C3132 1.355 . S
C3131 C3133 1.415 . S
C3132 C3131 1.355 . S
C3132 C3134 1.419 . S
C3133 C3128 1.425 . S
C3133 C3130 1.409 . S
C3133 C3131 1.415 . S
C3134 H3124 0.930 . S
C3134 C3132 1.419 . S
C3134 C3135 1.362 . S
C3135 H3125 0.930 . S
C3135 C3128 1.409 . S
C3135 C3134 1.362 . S
H3136 C3142 0.930 . S
H3137 C3145 0.930 . S
H3138 C3146 0.930 . S
H3139 C3147 0.930 . S
H3140 C3150 0.930 . S
H3141 C3151 0.930 . S
C3142 H3136 0.930 . S
C3142 C3143 1.355 . S
C3142 C3144 1.415 . S
C3143 C3142 1.355 . S
C3143 C3145 1.419 . S
C3144 C3142 1.415 . S
C3144 C3149 1.425 . S
C3144 C3151 1.409 . S
C3145 H3137 0.930 . S
C3145 C3143 1.419 . S
C3145 C3146 1.362 . S
C3146 H3138 0.930 . S
C3146 C3145 1.362 . S
C3146 C3149 1.409 . S
C3147 H3139 0.930 . S
C3147 C3148 1.355 . S
C3147 C3149 1.415 . S
C3148 C3147 1.355 . S
C3148 C3150 1.419 . S
C3149 C3144 1.425 . S
C3149 C3146 1.409 . S
C3149 C3147 1.415 . S
C3150 H3140 0.930 . S
C3150 C3148 1.419 . S
C3150 C3151 1.362 . S
C3151 H3141 0.930 . S
C3151 C3144 1.409 . S
C3151 C3150 1.362 . S
H3152 C3158 0.930 . S
H3153 C3161 0.930 . S
H3154 C3162 0.930 . S
H3155 C3163 0.930 . S
H3156 C3166 0.930 . S
H3157 C3167 0.930 . S
C3158 H3152 0.930 . S
C3158 C3159 1.355 . S
C3158 C3160 1.415 . S
C3159 C3158 1.355 . S
C3159 C3161 1.419 . S
C3160 C3158 1.415 . S
C3160 C3165 1.425 . S
C3160 C3167 1.409 . S
C3161 H3153 0.930 . S
C3161 C3159 1.419 . S
C3161 C3162 1.362 . S
C3162 H3154 0.930 . S
C3162 C3161 1.362 . S
C3162 C3165 1.409 . S
C3163 H3155 0.930 . S
C3163 C3164 1.355 . S
C3163 C3165 1.415 . S
C3164 C3163 1.355 . S
C3164 C3166 1.419 . S
C3165 C3160 1.425 . S
C3165 C3162 1.409 . S
C3165 C3163 1.415 . S
C3166 H3156 0.930 . S
C3166 C3164 1.419 . S
C3166 C3167 1.362 . S
C3167 H3157 0.930 . S
C3167 C3160 1.409 . S
C3167 C3166 1.362 . S
H3168 C3174 0.930 1_556 S
H3169 C3177 0.930 . S
H3170 C3178 0.930 . S
H3171 C3179 0.930 . S
H3172 C3182 0.930 . S
H3173 C3183 0.930 . S
C3174 H3168 0.930 1_554 S
C3174 C3175 1.355 . S
C3174 C3176 1.415 . S
C3175 C3174 1.355 . S
C3175 C3177 1.419 . S
C3176 C3174 1.415 . S
C3176 C3181 1.425 . S
C3176 C3183 1.409 1_554 S
C3177 H3169 0.930 . S
C3177 C3175 1.419 . S
C3177 C3178 1.362 . S
C3178 H3170 0.930 . S
C3178 C3177 1.362 . S
C3178 C3181 1.409 . S
C3179 H3171 0.930 . S
C3179 C3180 1.355 . S
C3179 C3181 1.415 . S
C3180 C3179 1.355 . S
C3180 C3182 1.419 1_554 S
C3181 C3176 1.425 . S
C3181 C3178 1.409 . S
C3181 C3179 1.415 . S
C3182 H3172 0.930 . S
C3182 C3180 1.419 1_556 S
C3182 C3183 1.362 . S
C3183 H3173 0.930 . S
C3183 C3176 1.409 1_556 S
C3183 C3182 1.362 . S
H3184 C3190 0.930 . S
H3185 C3193 0.930 . S
H3186 C3194 0.930 . S
H3187 C3195 0.930 . S
H3188 C3198 0.930 . S
H3189 C3199 0.930 . S
C3190 H3184 0.930 . S
C3190 C3191 1.355 . S
C3190 C3192 1.415 . S
C3191 C3190 1.355 . S
C3191 C3193 1.419 . S
C3192 C3190 1.415 . S
C3192 C3197 1.425 . S
C3192 C3199 1.409 . S
C3193 H3185 0.930 . S
C3193 C3191 1.419 . S
C3193 C3194 1.362 . S
C3194 H3186 0.930 . S
C3194 C3193 1.362 . S
C3194 C3197 1.409 . S
C3195 H3187 0.930 . S
C3195 C3196 1.355 . S
C3195 C3197 1.415 . S
C3196 C3195 1.355 . S
C3196 C3198 1.419 . S
C3197 C3192 1.425 . S
C3197 C3194 1.409 . S
C3197 C3195 1.415 . S
C3198 H3188 0.930 . S
C3198 C3196 1.419 . S
C3198 C3199 1.362 . S
C3199 H3189 0.930 . S
C3199 C3192 1.409 . S
C3199 C3198 1.362 . S
H3200 C3206 0.930 . S
H3201 C3209 0.930 . S
H3202 C3210 0.930 . S
H3203 C3211 0.930 . S
H3204 C3214 0.930 . S
H3205 C3215 0.930 . S
C3206 H3200 0.930 . S
C3206 C3207 1.355 . S
C3206 C3208 1.415 . S
C3207 C3206 1.355 . S
C3207 C3209 1.419 . S
C3208 C3206 1.415 . S
C3208 C3213 1.425 . S
C3208 C3215 1.409 . S
C3209 H3201 0.930 . S
C3209 C3207 1.419 . S
C3209 C3210 1.362 . S
C3210 H3202 0.930 . S
C3210 C3209 1.362 . S
C3210 C3213 1.409 . S
C3211 H3203 0.930 . S
C3211 C3212 1.355 . S
C3211 C3213 1.415 . S
C3212 C3211 1.355 . S
C3212 C3214 1.419 . S
C3213 C3208 1.425 . S
C3213 C3210 1.409 . S
C3213 C3211 1.415 . S
C3214 H3204 0.930 . S
C3214 C3212 1.419 . S
C3214 C3215 1.362 . S
C3215 H3205 0.930 . S
C3215 C3208 1.409 . S
C3215 C3214 1.362 . S
C1687 C109 1.893 . S
C1692 C392 1.775 . S
C1703 C65 2.247 . S
C1708 C483 2.169 . S
C1719 C75 1.614 . S
C1724 C560 1.580 . S
C1740 C658 1.377 . S
C1735 C84 1.555 . S
C1751 C25 1.509 . S
C1756 C742 1.567 . S
C1772 C814 1.026 . S
C1767 C28 0.999 . S
C1788 C903 1.091 . S
C1783 C47 1.022 . S
C1799 C9 1.607 . S
C1804 C980 1.366 . S
C1820 C399 2.087 . S
C1815 C233 2.215 . S
C1831 C249 0.719 . S
C1836 C490 0.738 . S
C1852 C567 1.185 . S
C1847 C275 1.285 . S
C1868 C644 1.533 . S
C1863 C173 1.674 . S
C1879 C224 2.177 . S
C1884 C728 2.026 . S
C1900 C830 1.158 . S
C1895 C243 1.255 . S
C1916 C910 0.798 . S
C1911 C266 0.801 . S
C1932 C987 1.519 . S
C1927 C179 1.668 . S
C1948 C406 1.417 . S
C1943 C163 1.481 . S
C1959 C289 1.923 . S
C1964 C1071 1.870 1_556 S
C1980 C1159 2.223 . S
C1975 C333 2.402 . S
C1996 C1232 0.624 . S
C1991 C308 0.530 . S
C2007 C123 1.124 . S
C2012 C994 1.186 . S
C2023 C126 1.480 . S
C2028 C574 1.461 . S
C2039 C327 2.242 . S
C2044 C1323 2.143 . S
C2060 C1400 0.730 . S
C2055 C299 0.820 . S
C2076 C403 1.707 . S
C2071 C67 1.884 . S
C2092 C1418 2.170 . S
C2087 C98 2.206 . S
C2103 C89 1.653 . S
C2108 C571 1.594 . S
C2119 C79 1.593 . S
C2124 C1318 1.509 . S
C2140 C730 1.548 . S
C2135 C11 1.560 . S
C2151 C51 1.055 . S
C2156 C1162 1.042 . S
C2172 C914 1.149 . S
C2167 C33 1.167 . S
C2188 C1495 1.392 . S
C2183 C14 1.595 . S
C2204 C410 2.109 . S
C2199 C140 2.211 . S
C2220 C1402 0.792 . S
C2215 C319 0.708 . S
C2231 C112 1.304 . S
C2236 C578 1.233 . S
C2247 C285 1.682 . S
C2252 C1327 1.617 . S
C2263 C149 2.257 . S
C2268 C739 2.085 . S
C2284 C1155 1.186 . S
C2279 C313 1.310 . S
C2295 C121 0.864 . S
C2300 C898 0.781 . S
C2311 C291 1.705 . S
C2316 C1502 1.528 . S
C2327 C182 1.498 . S
C2332 C394 1.437 1_554 S
C2343 C168 1.920 . S
C2348 C1082 1.865 . S
C2359 C263 2.446 . S
C2364 C812 2.293 . S
C2375 C247 0.552 . S
C2380 C1243 0.712 . S
C2396 C1486 1.146 . S
C2391 C277 1.026 1_565 S
C2407 C219 1.542 . S
C2412 C562 1.445 . S
C2428 C662 2.163 . S
C2423 C257 2.281 . S
C2444 C487 0.895 . S
C2439 C201 0.847 . S
C2455 C81 1.852 . S
C2460 C1568 1.702 . S
C2476 C1407 2.198 . S
C2471 C93 2.229 . S
C2487 C103 1.634 . S
C2492 C1652 1.530 . S
C2503 C56 1.555 . S
C2508 C1330 1.370 . S
C2519 C53 1.500 . S
C2524 C1078 1.578 . S
C2540 C1150 0.869 . S
C2535 C0 1.004 . S
C2556 C1239 1.116 . S
C2551 C19 0.989 . S
C2572 C1484 1.462 . S
C2567 C37 1.620 . S
C2588 C1575 2.081 . S
C2583 C261 2.216 . S
C2599 C193 0.789 . S
C2604 C1414 0.788 . S
C2620 C1659 1.209 . S
C2615 C205 1.275 . S
C2636 C1316 1.602 . S
C2631 C215 1.660 . S
C2652 C1064 2.031 . S
C2647 C252 2.160 . S
C2663 C187 1.258 . S
C2668 C1166 1.102 . S
C2684 C1246 0.767 . S
C2679 C196 0.841 . S
C2695 C221 1.685 . S
C2700 C1491 1.576 . S
C2716 C1582 1.467 . S
C2711 C317 1.493 . S
C2727 C135 1.930 . S
C2732 C735 1.828 . S
C2748 C823 2.215 . S
C2743 C151 2.404 . S
C2764 C896 0.487 . S
C2759 C154 0.503 . S
C2780 C1498 1.177 . S
C2775 C305 1.176 . S
C2791 C280 1.505 . S
C2796 C1666 1.436 . S
C2812 C651 2.178 . S
C2807 C145 2.231 . S
C2828 C476 0.743 . S
C2823 C117 0.818 . S
C2839 C95 1.895 . S
C2844 C1579 1.713 . S
C2860 C494 2.171 . S
C2855 C70 2.214 . S
C2871 C61 1.645 . S
C2876 C1663 1.578 . S
C2887 C107 1.590 . S
C2892 C646 1.420 . S
C2903 C39 1.555 . S
C2908 C1066 1.554 . S
C2924 C826 1.038 . S
C2919 C23 1.053 . S
C2935 C5 1.169 . S
C2940 C1250 1.147 . S
C2951 C42 1.595 . S
C2956 C991 1.394 . S
C2972 C1586 2.121 . S
C2967 C322 2.207 . S
C2983 C165 0.718 . S
C2988 C478 0.824 . S
C3004 C1670 1.194 . S
C2999 C294 1.264 . S
C3015 C131 1.673 . S
C3020 C655 1.587 . S
C3031 C331 2.231 . S
C3036 C1075 2.051 . S
C3052 C819 1.168 . S
C3047 C159 1.304 . S
C3063 C303 0.878 . S
C3068 C1234 0.914 1_655 S
C3084 C998 1.528 . S
C3079 C137 1.704 . S
C3100 C1570 1.440 . S
C3095 C238 1.491 . S
C3116 C746 1.847 1_665 S
C3111 C210 1.907 . S
C3127 C235 2.448 . S
C3132 C1148 2.270 . S
C3148 C907 0.532 . S
C3143 C191 0.623 . S
C3159 C207 1.029 . S
C3164 C982 1.144 . S
C3175 C177 1.537 . S
C3180 C1654 1.458 1_554 S
C3196 C1334 2.198 . S
C3191 C229 2.276 1_565 S
C3212 C1411 0.899 . S
C3207 C271 0.844 . S
