# Generated by pormake.
# Topology zzz, (3,6)-cn, num edge types: 1
# Building blocks:
#     Node 0, Type 0, BuildingBlock: OLANEW_clean_sbu_2, # of connection points: 3
#     Node 1, Type 0, BuildingBlock: OLANEW_clean_sbu_2, # of connection points: 3
#     Node 2, Type 0, BuildingBlock: OLANEW_clean_sbu_2, # of connection points: 3
#     Node 3, Type 0, BuildingBlock: OLANEW_clean_sbu_2, # of connection points: 3
#     Node 4, Type 0, BuildingBlock: OLANEW_clean_sbu_2, # of connection points: 3
#     Node 5, Type 0, BuildingBlock: OLANEW_clean_sbu_2, # of connection points: 3
#     Node 6, Type 0, BuildingBlock: OLANEW_clean_sbu_2, # of connection points: 3
#     Node 7, Type 0, BuildingBlock: OLANEW_clean_sbu_2, # of connection points: 3
#     Node 8, Type 1, BuildingBlock: BETFEN_clean_sbu_0, # of connection points: 6
#     Node 9, Type 1, BuildingBlock: BETFEN_clean_sbu_0, # of connection points: 6
#     Node 10, Type 1, BuildingBlock: BETFEN_clean_sbu_0, # of connection points: 6
#     Node 11, Type 1, BuildingBlock: BETFEN_clean_sbu_0, # of connection points: 6
#     Edge 12, Type (0, 1), BuildingBlock: EZIPEK_clean_linker_0, # of connection points: 2
#     Edge 13, Type (0, 1), BuildingBlock: EZIPEK_clean_linker_0, # of connection points: 2
#     Edge 14, Type (0, 1), BuildingBlock: EZIPEK_clean_linker_0, # of connection points: 2
#     Edge 15, Type (0, 1), BuildingBlock: EZIPEK_clean_linker_0, # of connection points: 2
#     Edge 16, Type (0, 1), BuildingBlock: EZIPEK_clean_linker_0, # of connection points: 2
#     Edge 17, Type (0, 1), BuildingBlock: EZIPEK_clean_linker_0, # of connection points: 2
#     Edge 18, Type (0, 1), BuildingBlock: EZIPEK_clean_linker_0, # of connection points: 2
#     Edge 19, Type (0, 1), BuildingBlock: EZIPEK_clean_linker_0, # of connection points: 2
#     Edge 20, Type (0, 1), BuildingBlock: EZIPEK_clean_linker_0, # of connection points: 2
#     Edge 21, Type (0, 1), BuildingBlock: EZIPEK_clean_linker_0, # of connection points: 2
#     Edge 22, Type (0, 1), BuildingBlock: EZIPEK_clean_linker_0, # of connection points: 2
#     Edge 23, Type (0, 1), BuildingBlock: EZIPEK_clean_linker_0, # of connection points: 2
#     Edge 24, Type (0, 1), BuildingBlock: EZIPEK_clean_linker_0, # of connection points: 2
#     Edge 25, Type (0, 1), BuildingBlock: EZIPEK_clean_linker_0, # of connection points: 2
#     Edge 26, Type (0, 1), BuildingBlock: EZIPEK_clean_linker_0, # of connection points: 2
#     Edge 27, Type (0, 1), BuildingBlock: EZIPEK_clean_linker_0, # of connection points: 2
#     Edge 28, Type (0, 1), BuildingBlock: EZIPEK_clean_linker_0, # of connection points: 2
#     Edge 29, Type (0, 1), BuildingBlock: EZIPEK_clean_linker_0, # of connection points: 2
#     Edge 30, Type (0, 1), BuildingBlock: EZIPEK_clean_linker_0, # of connection points: 2
#     Edge 31, Type (0, 1), BuildingBlock: EZIPEK_clean_linker_0, # of connection points: 2
#     Edge 32, Type (0, 1), BuildingBlock: EZIPEK_clean_linker_0, # of connection points: 2
#     Edge 33, Type (0, 1), BuildingBlock: EZIPEK_clean_linker_0, # of connection points: 2
#     Edge 34, Type (0, 1), BuildingBlock: EZIPEK_clean_linker_0, # of connection points: 2
#     Edge 35, Type (0, 1), BuildingBlock: EZIPEK_clean_linker_0, # of connection points: 2
# Relax obj value: 0.311
# Max RMSD: 0.211
# Mean RMSD: 0.173
data_MOF--net-zzz--node1-OLANEW_clean_sbu_2--node2-BETFEN_clean_sbu_0--edge1-EZIPEK_clean_linker_0
_symmetry_space_group_name_H-M    P1
_symmetry_Int_Tables_number       1
_symmetry_cell_setting            triclinic
loop_
_symmetry_equiv_pos_as_xyz
'x, y, z'
_cell_length_a     42.72679
_cell_length_b     42.725461
_cell_length_c     11.636105
_cell_angle_alpha  89.504605
_cell_angle_beta   89.864986
_cell_angle_gamma 90.005597
loop_
_atom_site_label
_atom_site_type_symbol
_atom_site_fract_x
_atom_site_fract_y
_atom_site_fract_z
_atom_type_partial_charge
O0 O 0.73934 0.54116 0.3291 0.0
Cd1 Cd 0.68782 0.55799 0.39377 0.0
O2 O 0.72309 0.49314 0.36143 0.0
Cd3 Cd 0.73665 0.44423 0.37335 0.0
O4 O 0.78088 0.43055 0.44965 0.0
C5 C 0.78814 0.44679 0.53659 0.0
O6 O 0.76819 0.46848 0.56803 0.0
C7 C 0.74441 0.51191 0.32807 0.0
C8 C 0.64518 0.54075 0.22631 0.0
O9 O 0.66025 0.56664 0.21979 0.0
O10 O 0.64927 0.52325 0.31501 0.0
O11 O 0.01549 0.70946 0.19422 0.0
Cd12 Cd 0.02139 0.65696 0.2753 0.0
O13 O 0.00651 0.72596 0.36924 0.0
Cd14 Cd 7e-05 0.76639 0.47887 0.0
O15 O 0.99828 0.81565 0.52244 0.0
C16 C 0.97611 0.82733 0.58084 0.0
O17 O 0.95341 0.8092 0.61862 0.0
C18 C 0.01085 0.73183 0.26321 0.0
C19 C 0.00611 0.60989 0.12121 0.0
O20 O 0.03109 0.6262 0.10954 0.0
O21 O 0.98795 0.61606 0.20585 0.0
O22 O 0.76619 0.9354 0.36694 0.0
Cd23 Cd 0.81688 0.91786 0.43947 0.0
O24 O 0.77402 0.98136 0.44469 0.0
Cd25 Cd 0.75429 0.02706 0.48109 0.0
O26 O 0.7047 0.0345 0.50605 0.0
C27 C 0.69363 0.02781 0.60443 0.0
O28 O 0.71283 0.0212 0.6893 0.0
C29 C 0.75678 0.96299 0.38714 0.0
C30 C 0.86332 0.94666 0.30861 0.0
O31 O 0.8485 0.92257 0.27295 0.0
O32 O 0.85713 0.95665 0.40965 0.0
O33 O 0.51851 0.77247 0.3005 0.0
Cd34 Cd 0.52182 0.8217 0.40627 0.0
O35 O 0.49627 0.74873 0.44858 0.0
Cd36 Cd 0.51282 0.78001 0.58194 0.0
O37 O 0.52934 0.73245 0.62007 0.0
C38 C 0.5113 0.71333 0.67198 0.0
O39 O 0.48502 0.72373 0.71644 0.0
C40 C 0.50436 0.74897 0.34357 0.0
C41 C 0.5216 0.87262 0.25361 0.0
O42 O 0.49636 0.85802 0.27986 0.0
O43 O 0.54705 0.86363 0.30167 0.0
O44 O 0.26519 0.56086 0.29307 0.0
Cd45 Cd 0.31699 0.57542 0.22295 0.0
O46 O 0.2577 0.53278 0.13814 0.0
Cd47 Cd 0.22469 0.50657 0.03389 0.0
O48 O 0.18021 0.49089 0.96413 0.0
C49 C 0.1759 0.46464 0.91625 0.0
O50 O 0.1993 0.44494 0.90548 0.0
C51 C 0.2476 0.54375 0.23232 0.0
C52 C 0.36675 0.5445 0.3272 0.0
O53 O 0.35361 0.56799 0.37517 0.0
O54 O 0.35588 0.53494 0.23113 0.0
O55 O 0.92667 0.26006 0.04141 0.0
Cd56 Cd 0.93782 0.31343 0.98333 0.0
O57 O 0.97713 0.25311 0.0195 0.0
Cd58 Cd 0.02028 0.22761 0.0551 0.0
O59 O 0.06841 0.21287 0.08528 0.0
C60 C 0.07815 0.18524 0.0677 0.0
O61 O 0.10772 0.1785 0.08572 0.0
C62 C 0.95079 0.24315 0.05473 0.0
C63 C 0.9569 0.34131 0.18676 0.0
O64 O 0.97695 0.32858 0.11979 0.0
O65 O 0.92817 0.3419 0.15548 0.0
O66 O 0.2102 0.94131 0.31657 0.0
Cd67 Cd 0.15704 0.94485 0.24263 0.0
O68 O 0.22065 0.98142 0.20406 0.0
Cd69 Cd 0.25585 0.01303 0.13427 0.0
O70 O 0.30368 0.02135 0.07893 0.0
C71 C 0.31451 0.04747 0.045 0.0
O72 O 0.29639 0.07229 0.04197 0.0
C73 C 0.2296 0.96134 0.27817 0.0
C74 C 0.12121 0.98267 0.38355 0.0
O75 O 0.12254 0.95304 0.40056 0.0
O76 O 0.13647 0.99464 0.29911 0.0
O77 O 0.50497 0.25268 0.19085 0.0
Cd78 Cd 0.49286 0.1997 0.12596 0.0
O79 O 0.54395 0.25815 0.06848 0.0
Cd80 Cd 0.51704 0.24849 0.91369 0.0
O81 O 0.50526 0.29001 0.80958 0.0
C82 C 0.52246 0.31331 0.83425 0.0
O83 O 0.54567 0.30917 0.90657 0.0
C84 C 0.52915 0.2674 0.15654 0.0
C85 C 0.49801 0.15781 0.31048 0.0
O86 O 0.52166 0.16404 0.24631 0.0
O87 O 0.47177 0.1708 0.28655 0.0
Pr88 Pr 0.01192 -1e-05 0.92856 0.0
Pr89 Pr 0.9672 0.02911 0.75659 0.0
C90 C 0.03506 0.96164 0.09227 0.0
C91 C 0.03009 0.92829 0.11818 0.0
C92 C 0.04919 0.91254 0.19751 0.0
C93 C 0.04493 0.88047 0.21806 0.0
C94 C 0.0217 0.86387 0.15861 0.0
C95 C 0.00257 0.87974 0.07977 0.0
C96 C 0.00659 0.91173 0.06056 0.0
C97 C 0.04307 0.02433 0.73607 0.0
C98 C 0.98121 0.95596 0.72269 0.0
C99 C 0.9323 0.06187 0.60448 0.0
C100 C 0.9353 0.0873 0.52035 0.0
C101 C 0.90916 0.09633 0.45556 0.0
C102 C 0.91149 0.12095 0.37627 0.0
C103 C 0.94012 0.13647 0.36004 0.0
C104 C 0.96631 0.12727 0.42489 0.0
C105 C 0.96393 0.10279 0.50463 0.0
C106 C 0.93829 0.00154 0.94775 0.0
C107 C 0.0118 0.07532 0.92099 0.0
O108 O 0.01088 0.97988 0.10882 0.0
O109 O 0.04986 0.96779 0.99626 0.0
O110 O 0.01717 0.00992 0.73422 0.0
O111 O 0.05444 0.02436 0.83983 0.0
O112 O 0.97368 0.98138 0.66467 0.0
O113 O 0.99201 0.95734 0.82823 0.0
O114 O 0.94652 0.03578 0.57931 0.0
O115 O 0.93507 0.06951 0.71248 0.0
O116 O 0.96225 0.01861 0.95052 0.0
O117 O 0.92759 0.99917 0.84442 0.0
O118 O 0.01776 0.05105 0.98815 0.0
O119 O 0.99594 0.07248 0.82394 0.0
H120 H 0.06747 0.92493 0.24272 0.0
H121 H 0.05991 0.86851 0.27922 0.0
H122 H 0.98455 0.86733 0.03319 0.0
H123 H 0.99146 0.92346 0.00014 0.0
H124 H 0.88692 0.08451 0.46703 0.0
H125 H 0.89099 0.128 0.32793 0.0
H126 H 0.98841 0.13939 0.41485 0.0
H127 H 0.98426 0.09616 0.5547 0.0
Pr128 Pr 0.51923 0.04056 0.91187 0.0
Pr129 Pr 0.48877 0.00018 0.70379 0.0
C130 C 0.5514 0.0509 0.10651 0.0
C131 C 0.5798 0.03643 0.15462 0.0
C132 C 0.59746 0.052 0.23796 0.0
C133 C 0.62575 0.03918 0.27673 0.0
C134 C 0.63659 0.01064 0.23274 0.0
C135 C 0.61869 0.99489 0.15048 0.0
C136 C 0.59052 0.00775 0.11162 0.0
C137 C 0.50813 0.07921 0.71949 0.0
C138 C 0.5633 0.01288 0.69836 0.0
C139 C 0.45442 0.97513 0.53384 0.0
C140 C 0.42159 0.97316 0.49662 0.0
C141 C 0.41003 0.94453 0.45663 0.0
C142 C 0.3788 0.94177 0.42297 0.0
C143 C 0.35872 0.96769 0.42821 0.0
C144 C 0.3702 0.99635 0.4687 0.0
C145 C 0.40139 0.99903 0.50337 0.0
C146 C 0.51158 0.96648 0.89247 0.0
C147 C 0.44281 0.03816 0.89813 0.0
O148 O 0.52655 0.03297 0.10265 0.0
O149 O 0.55563 0.06731 0.0123 0.0
O150 O 0.50277 0.05042 0.73073 0.0
O151 O 0.51776 0.09007 0.81767 0.0
O152 O 0.53875 0.00874 0.63175 0.0
O153 O 0.56103 0.01788 0.81022 0.0
O154 O 0.46847 0.0023 0.52434 0.0
O155 O 0.46141 0.96 0.62849 0.0
O156 O 0.49681 0.99197 0.89609 0.0
O157 O 0.51503 0.95725 0.78693 0.0
O158 O 0.46704 0.04868 0.95675 0.0
O159 O 0.44531 0.02125 0.8031 0.0
H160 H 0.58968 0.07429 0.2713 0.0
H161 H 0.63948 0.05175 0.33927 0.0
H162 H 0.62677 0.97294 0.11523 0.0
H163 H 0.57732 0.99563 0.04647 0.0
H164 H 0.42516 0.92423 0.45197 0.0
H165 H 0.37028 0.91947 0.3923 0.0
H166 H 0.35495 0.01654 0.4738 0.0
H167 H 0.40962 0.0212 0.53592 0.0
Pr168 Pr 0.49522 0.51563 0.80785 0.0
Pr169 Pr 0.546 0.50786 0.60042 0.0
C170 C 0.46604 0.53868 0.99216 0.0
C171 C 0.47122 0.56937 0.04485 0.0
C172 C 0.44643 0.58624 0.09333 0.0
C173 C 0.45156 0.61648 0.13518 0.0
C174 C 0.48144 0.63011 0.12776 0.0
C175 C 0.50586 0.61357 0.07557 0.0
C176 C 0.5008 0.58341 0.03533 0.0
C177 C 0.47008 0.50285 0.59153 0.0
C178 C 0.52594 0.57903 0.66556 0.0
C179 C 0.57152 0.4876 0.40408 0.0
C180 C 0.56472 0.45773 0.34808 0.0
C181 C 0.58809 0.44161 0.28794 0.0
C182 C 0.58298 0.41071 0.2532 0.0
C183 C 0.55473 0.39551 0.2811 0.0
C184 C 0.53124 0.41193 0.33929 0.0
C185 C 0.53605 0.44286 0.3713 0.0
C186 C 0.57586 0.51455 0.81433 0.0
C187 C 0.51605 0.44539 0.74003 0.0
O188 O 0.48938 0.5188 0.00052 0.0
O189 O 0.45375 0.53985 0.88931 0.0
O190 O 0.49331 0.52027 0.61192 0.0
O191 O 0.4585 0.49213 0.68799 0.0
O192 O 0.54086 0.56201 0.58837 0.0
O193 O 0.51029 0.56688 0.75394 0.0
O194 O 0.54862 0.50797 0.40572 0.0
O195 O 0.58545 0.48461 0.50343 0.0
O196 O 0.54724 0.51371 0.7926 0.0
O197 O 0.59144 0.51273 0.71872 0.0
O198 O 0.5068 0.46259 0.82772 0.0
O199 O 0.52546 0.45781 0.64139 0.0
H200 H 0.42322 0.5761 0.09845 0.0
H201 H 0.43239 0.62917 0.17409 0.0
H202 H 0.52892 0.6239 0.06765 0.0
H203 H 0.51992 0.57104 0.99554 0.0
H204 H 0.61055 0.4525 0.27145 0.0
H205 H 0.60126 0.39838 0.20749 0.0
H206 H 0.50925 0.40066 0.36085 0.0
H207 H 0.5177 0.45478 0.41808 0.0
Pr208 Pr 0.97314 0.43806 0.80909 0.0
Pr209 Pr 0.99252 0.47644 0.59757 0.0
C210 C 0.94446 0.42307 0.00877 0.0
C211 C 0.91633 0.43611 0.06389 0.0
C212 C 0.90223 0.42107 0.15833 0.0
C213 C 0.87475 0.43322 0.20651 0.0
C214 C 0.86144 0.46077 0.16181 0.0
C215 C 0.87584 0.47609 0.06881 0.0
C216 C 0.90307 0.46384 0.0203 0.0
C217 C 0.9841 0.40189 0.61468 0.0
C218 C 0.91881 0.46487 0.62993 0.0
C219 C 0.02166 0.49979 0.4107 0.0
C220 C 0.05418 0.50935 0.39011 0.0
C221 C 0.07552 0.51075 0.48164 0.0
C222 C 0.10714 0.51691 0.46048 0.0
C223 C 0.11772 0.52172 0.34753 0.0
C224 C 0.09629 0.52097 0.25647 0.0
C225 C 0.06463 0.5149 0.27786 0.0
C226 C 0.98058 0.51252 0.79052 0.0
C227 C 0.0479 0.4459 0.77428 0.0
O228 O 0.96834 0.44213 0.00192 0.0
O229 O 0.93977 0.4077 0.91355 0.0
O230 O 0.97057 0.42801 0.61642 0.0
O231 O 0.99048 0.39199 0.71837 0.0
O232 O 0.94024 0.46876 0.54949 0.0
O233 O 0.92664 0.46048 0.73846 0.0
O234 O 0.01766 0.46983 0.42875 0.0
O235 O 0.00546 0.51719 0.4811 0.0
O236 O 0.99526 0.48687 0.79011 0.0
O237 O 0.97116 0.52017 0.68794 0.0
O238 O 0.02628 0.43417 0.84295 0.0
O239 O 0.04083 0.46039 0.67689 0.0
H240 H 0.91225 0.3999 0.19411 0.0
H241 H 0.86352 0.42098 0.27715 0.0
H242 H 0.86579 0.4973 0.03298 0.0
H243 H 0.91373 0.47594 0.94828 0.0
H244 H 0.06783 0.50668 0.56914 0.0
H245 H 0.1234 0.51754 0.53172 0.0
H246 H 0.10426 0.52461 0.16899 0.0
H247 H 0.0483 0.51398 0.20698 0.0
C248 C 0.11595 0.01546 0.55965 0.0
C249 C 0.1022 0.00242 0.46007 0.0
C250 C 0.05055 0.02001 0.52321 0.0
C251 C 0.06344 0.02663 0.63205 0.0
N252 N 0.10838 0.04724 0.72963 0.0
N253 N 0.05721 0.99464 0.33937 0.0
C254 C 0.09629 0.0296 0.64314 0.0
C255 C 0.06976 0.006 0.43839 0.0
N256 N 0.14749 0.01291 0.57672 0.0
N257 N 0.02042 0.02857 0.5004 0.0
H258 H 0.07101 0.98574 0.27323 0.0
H259 H 0.03325 0.99284 0.32509 0.0
H260 H 0.00734 0.0414 0.55935 0.0
H261 H 0.00987 0.02649 0.42028 0.0
H262 H 0.15847 0.01853 0.6536 0.0
H263 H 0.16262 0.00369 0.51512 0.0
H264 H 0.13212 0.05209 0.73851 0.0
H265 H 0.09413 0.06042 0.7837 0.0
C266 C 0.52311 0.14405 0.49907 0.0
C267 C 0.50115 0.13686 0.41217 0.0
C268 C 0.48211 0.09251 0.52794 0.0
C269 C 0.50604 0.09799 0.61056 0.0
N270 N 0.55534 0.12367 0.65197 0.0
N271 N 0.46478 0.09999 0.33142 0.0
C272 C 0.52826 0.12227 0.58981 0.0
C273 C 0.48212 0.10983 0.42289 0.0
N274 N 0.53838 0.17217 0.49765 0.0
N275 N 0.4584 0.07199 0.55081 0.0
H276 H 0.46451 0.11178 0.25255 0.0
H277 H 0.45322 0.07851 0.33009 0.0
H278 H 0.45706 0.0586 0.62541 0.0
H279 H 0.43847 0.07035 0.49981 0.0
H280 H 0.55205 0.17987 0.56591 0.0
H281 H 0.53493 0.18917 0.4341 0.0
H282 H 0.57344 0.13919 0.63233 0.0
H283 H 0.56183 0.10673 0.71224 0.0
C284 C 0.39602 0.49893 0.4155 0.0
C285 C 0.39552 0.53063 0.37685 0.0
C286 C 0.45073 0.53595 0.42702 0.0
C287 C 0.44911 0.50761 0.4902 0.0
N288 N 0.42428 0.45782 0.51924 0.0
N289 N 0.42232 0.58018 0.35222 0.0
C290 C 0.42298 0.48755 0.47531 0.0
C291 C 0.42287 0.54933 0.38392 0.0
N292 N 0.37049 0.48026 0.39819 0.0
N293 N 0.47896 0.54932 0.40259 0.0
H294 H 0.40327 0.59086 0.31222 0.0
H295 H 0.44043 0.59558 0.37178 0.0
H296 H 0.49997 0.53845 0.42312 0.0
H297 H 0.48143 0.56857 0.34777 0.0
H298 H 0.3696 0.45654 0.41831 0.0
H299 H 0.34992 0.4884 0.36035 0.0
H300 H 0.40557 0.44229 0.52184 0.0
H301 H 0.44504 0.44845 0.55188 0.0
C302 C 0.95095 0.3436 0.40134 0.0
C303 C 0.96638 0.35407 0.29968 0.0
C304 C -1e-05 0.38772 0.41569 0.0
C305 C 0.98116 0.38134 0.51332 0.0
N306 N 0.9364 0.35528 0.59758 0.0
N307 N 0.00314 0.38941 0.20825 0.0
C308 C 0.95617 0.35957 0.50628 0.0
C309 C 0.99053 0.37678 0.30629 0.0
N310 N 0.93205 0.3178 0.39858 0.0
N311 N 0.02721 0.40399 0.42804 0.0
H312 H 0.99627 0.38284 0.12602 0.0
H313 H 0.01829 0.40852 0.20836 0.0
H314 H 0.03441 0.41241 0.5074 0.0
H315 H 0.04366 0.40671 0.36247 0.0
H316 H 0.92281 0.30725 0.47223 0.0
H317 H 0.92816 0.30498 0.32411 0.0
H318 H 0.91551 0.34281 0.59212 0.0
H319 H 0.93958 0.3661 0.67662 0.0
C320 C 0.90637 0.94286 0.16508 0.0
C321 C 0.88676 0.96213 0.23249 0.0
C322 C 0.90801 0.00826 0.13181 0.0
C323 C 0.92229 0.98825 0.05013 0.0
N324 N 0.92962 0.93568 0.97884 0.0
N325 N 0.86572 0.0139 0.2684 0.0
C326 C 0.91997 0.95531 0.06377 0.0
C327 C 0.88702 0.99516 0.2145 0.0
N328 N 0.91254 0.91279 0.19895 0.0
N329 N 0.91347 0.03978 0.12845 0.0
H330 H 0.84871 0.00559 0.32498 0.0
H331 H 0.86287 0.03754 0.24832 0.0
H332 H 0.92699 0.05068 0.06517 0.0
H333 H 0.90648 0.05475 0.19394 0.0
H334 H 0.92889 0.89869 0.15744 0.0
H335 H 0.90421 0.90339 0.27627 0.0
H336 H 0.92562 0.91161 0.98132 0.0
H337 H 0.93884 0.94363 0.90128 0.0
C338 C 0.54433 0.90157 0.08133 0.0
C339 C 0.52107 0.8989 0.16857 0.0
C340 C 0.49059 0.93993 0.07242 0.0
C341 C 0.51541 0.94496 0.99276 0.0
N342 N 0.56963 0.93642 0.94545 0.0
N343 N 0.47739 0.92335 0.26526 0.0
C344 C 0.54349 0.92762 0.00485 0.0
C345 C 0.49588 0.92057 0.17002 0.0
N346 N 0.56609 0.87855 0.06586 0.0
N347 N 0.46133 0.95158 0.05214 0.0
H348 H 0.48154 0.9109 0.3412 0.0
H349 H 0.46049 0.94082 0.27295 0.0
H350 H 0.45522 0.96357 0.97726 0.0
H351 H 0.44212 0.94599 0.10388 0.0
H352 H 0.58155 0.87848 0.99643 0.0
H353 H 0.56647 0.85782 0.1135 0.0
H354 H 0.59147 0.92613 0.95853 0.0
H355 H 0.57012 0.9566 0.89472 0.0
C356 C 0.60244 0.55422 0.08906 0.0
C357 C 0.6238 0.53168 0.13214 0.0
C358 C 0.60693 0.49526 0.98281 0.0
C359 C 0.59004 0.51978 0.92867 0.0
N360 N 0.5764 0.57451 0.92094 0.0
N361 N 0.64987 0.48179 0.10873 0.0
C362 C 0.58886 0.54977 0.97958 0.0
C363 C 0.62679 0.50224 0.07705 0.0
N364 N 0.59458 0.57959 0.15373 0.0
N365 N 0.60384 0.46527 0.94481 0.0
H366 H 0.66573 0.48616 0.17445 0.0
H367 H 0.65504 0.46159 0.06287 0.0
H368 H 0.58929 0.45948 0.87641 0.0
H369 H 0.61313 0.44599 0.9883 0.0
H370 H 0.57703 0.59529 0.13014 0.0
H371 H 0.60312 0.58295 0.23667 0.0
H372 H 0.57824 0.59759 0.94847 0.0
H373 H 0.56618 0.57206 0.84074 0.0
C374 C 0.96806 0.57988 0.99704 0.0
C375 C 0.99895 0.58424 0.03966 0.0
C376 C 0.01805 0.54449 0.90655 0.0
C377 C 0.98677 0.53693 0.87701 0.0
N378 N 0.93149 0.54424 0.9081 0.0
N379 N 0.05195 0.56444 0.05386 0.0
C380 C 0.96158 0.55361 0.92679 0.0
C381 C 0.02356 0.56469 0.0001 0.0
N382 N 0.94534 0.60171 0.01678 0.0
N383 N 0.04257 0.53383 0.84206 0.0
H384 H 0.05642 0.57672 0.12908 0.0
H385 H 0.06976 0.54893 0.03201 0.0
H386 H 0.03969 0.52081 0.76757 0.0
H387 H 0.06558 0.54115 0.85445 0.0
H388 H 0.92336 0.60092 0.97835 0.0
H389 H 0.94942 0.6225 0.06034 0.0
H390 H 0.91238 0.55349 0.9521 0.0
H391 H 0.92599 0.52525 0.85635 0.0
C392 C 0.95438 0.21907 0.24932 0.0
C393 C 0.94909 0.2153 0.13 0.0
C394 C 0.93945 0.15929 0.15928 0.0
C395 C 0.9424 0.16361 0.2799 0.0
N396 N 0.9457 0.19863 0.44118 0.0
N397 N 0.9336 0.1834 0.97053 0.0
C398 C 0.94804 0.19378 0.32539 0.0
C399 C 0.94074 0.18583 0.08459 0.0
N400 N 0.96579 0.24676 0.29 0.0
N401 N 0.9363 0.1298 0.11614 0.0
H402 H 0.93549 0.2022 0.91308 0.0
H403 H 0.92402 0.16345 0.93391 0.0
H404 H 0.93496 0.10984 0.16805 0.0
H405 H 0.93748 0.12467 0.02897 0.0
H406 H 0.9735 0.24968 0.37407 0.0
H407 H 0.96999 0.26626 0.23769 0.0
H408 H 0.94617 0.22073 0.47814 0.0
H409 H 0.94011 0.18092 0.49995 0.0
C410 C 0.26951 0.96618 0.43529 0.0
C411 C 0.26258 0.96119 0.31772 0.0
C412 C 0.31875 0.96129 0.27192 0.0
C413 C 0.32564 0.96482 0.39048 0.0
N414 N 0.30667 0.9676 0.58742 0.0
N415 N 0.28039 0.94705 0.12829 0.0
C416 C 0.30097 0.96621 0.47237 0.0
C417 C 0.28718 0.95676 0.23709 0.0
N418 N 0.24606 0.97128 0.51307 0.0
N419 N 0.3422 0.96361 0.19205 0.0
H420 H 0.25758 0.94305 0.10017 0.0
H421 H 0.29735 0.94023 0.0692 0.0
H422 H 0.36558 0.96727 0.21372 0.0
H423 H 0.33826 0.96468 0.10386 0.0
H424 H 0.25044 0.9751 0.60009 0.0
H425 H 0.2225 0.97267 0.49056 0.0
H426 H 0.32891 0.96692 0.62393 0.0
H427 H 0.32891 0.96692 0.62393 0.0
C428 C 0.51553 0.32422 0.1536 0.0
C429 C 0.53483 0.29969 0.19603 0.0
C430 C 0.56611 0.33779 0.30225 0.0
C431 C 0.54906 0.36245 0.24872 0.0
N432 N 0.51146 0.37935 0.10696 0.0
N433 N 0.58046 0.28282 0.30078 0.0
C434 C 0.52477 0.35571 0.17005 0.0
C435 C 0.56081 0.3064 0.26721 0.0
N436 N 0.48829 0.31755 0.09762 0.0
N437 N 0.58626 0.3442 0.39003 0.0
H438 H 0.57637 0.25938 0.28112 0.0
H439 H 0.60173 0.28668 0.34178 0.0
H440 H 0.59036 0.36681 0.41951 0.0
H441 H 0.59685 0.32694 0.4403 0.0
H442 H 0.4712 0.33438 0.08123 0.0
H443 H 0.48145 0.29496 0.0759 0.0
H444 H 0.49548 0.37557 0.04124 0.0
H445 H 0.51853 0.40266 0.11273 0.0
C446 C 0.20511 0.50804 0.30381 0.0
C447 C 0.2147 0.53831 0.26706 0.0
C448 C 0.16158 0.55835 0.29768 0.0
C449 C 0.15137 0.52752 0.32389 0.0
N450 N 0.16208 0.47227 0.34139 0.0
N451 N 0.20174 0.5914 0.2132 0.0
C452 C 0.1728 0.50213 0.32449 0.0
C453 C 0.19287 0.5633 0.26016 0.0
N454 N 0.22706 0.48524 0.32192 0.0
N455 N 0.14152 0.58299 0.31146 0.0
H456 H 0.22448 0.59604 0.18514 0.0
H457 H 0.18608 0.60932 0.19345 0.0
H458 H 0.11834 0.58023 0.33801 0.0
H459 H 0.14846 0.60632 0.30605 0.0
H460 H 0.22214 0.46371 0.36038 0.0
H461 H 0.25088 0.48875 0.30677 0.0
H462 H 0.17582 0.4524 0.33027 0.0
H463 H 0.13866 0.46705 0.35833 0.0
C464 C 0.04023 0.77692 0.17335 0.0
C465 C 0.01223 0.76484 0.22277 0.0
C466 C 0.99042 0.81786 0.23149 0.0
C467 C 0.0178 0.82964 0.17703 0.0
N468 N 0.06481 0.81953 0.06841 0.0
N469 N 0.95801 0.7725 0.27271 0.0
C470 C 0.04149 0.80888 0.13926 0.0
C471 C 0.98642 0.78495 0.24333 0.0
N472 N 0.06624 0.75844 0.16468 0.0
N473 N 0.96888 0.83807 0.27614 0.0
H474 H 0.95429 0.74844 0.28083 0.0
H475 H 0.93756 0.78566 0.27822 0.0
H476 H 0.97137 0.86234 0.27231 0.0
H477 H 0.94985 0.83082 0.32549 0.0
H478 H 0.08818 0.76711 0.14153 0.0
H479 H 0.06674 0.73501 0.19018 0.0
H480 H 0.0808 0.80477 0.02838 0.0
H481 H 0.06631 0.84275 0.04043 0.0
C482 C 0.72478 0.99964 0.2645 0.0
C483 C 0.72592 0.97396 0.34306 0.0
C484 C 0.66832 0.97221 0.34883 0.0
C485 C 0.66733 0.99767 0.26979 0.0
N486 N 0.69363 0.0321 0.13604 0.0
N487 N 0.69935 0.933 0.44915 0.0
C488 C 0.69531 0.01048 0.22332 0.0
C489 C 0.69782 0.95923 0.38118 0.0
N490 N 0.75197 0.01371 0.22926 0.0
N491 N 0.641 0.96125 0.39592 0.0
H492 H 0.72015 0.92438 0.48356 0.0
H493 H 0.68023 0.91882 0.46843 0.0
H494 H 0.6191 0.97048 0.37538 0.0
H495 H 0.63975 0.94434 0.4605 0.0
H496 H 0.75284 0.03504 0.18553 0.0
H497 H 0.7741 0.00478 0.24802 0.0
H498 H 0.71287 0.03994 0.08903 0.0
H499 H 0.6725 0.04067 0.1039 0.0
C500 C 0.51736 0.69288 0.31507 0.0
C501 C 0.50072 0.71978 0.27772 0.0
C502 C 0.47469 0.68871 0.13001 0.0
C503 C 0.48784 0.66114 0.17905 0.0
N504 N 0.51832 0.63644 0.32927 0.0
N505 N 0.46159 0.74346 0.15622 0.0
C506 C 0.5083 0.66307 0.27467 0.0
C507 C 0.47893 0.71783 0.18642 0.0
N508 N 0.54252 0.69601 0.38644 0.0
N509 N 0.45911 0.68722 0.02775 0.0
H510 H 0.4646 0.76528 0.19419 0.0
H511 H 0.44285 0.74258 0.09924 0.0
H512 H 0.45587 0.66635 0.98343 0.0
H513 H 0.45183 0.70695 0.98191 0.0
H514 H 0.55733 0.67758 0.40858 0.0
H515 H 0.55062 0.71776 0.41353 0.0
H516 H 0.53105 0.63656 0.4054 0.0
H517 H 0.5117 0.61405 0.30424 0.0
C518 C 0.7749 0.47991 0.18774 0.0
C519 C 0.77473 0.49941 0.28599 0.0
C520 C 0.83187 0.49425 0.30194 0.0
C521 C 0.83155 0.47308 0.20857 0.0
N522 N 0.80286 0.44185 0.07325 0.0
N523 N 0.80202 0.52297 0.44451 0.0
C524 C 0.80306 0.46474 0.15475 0.0
C525 C 0.803 0.50617 0.34501 0.0
N526 N 0.74844 0.47712 0.12258 0.0
N527 N 0.85986 0.50321 0.34809 0.0
H528 H 0.78132 0.53179 0.47903 0.0
H529 H 0.82119 0.52638 0.49785 0.0
H530 H 0.88127 0.49393 0.32172 0.0
H531 H 0.86228 0.52094 0.40808 0.0
H532 H 0.74793 0.46612 0.04313 0.0
H533 H 0.72745 0.48831 0.1424 0.0
H534 H 0.78246 0.43211 0.04031 0.0
H535 H 0.82311 0.43066 0.04483 0.0
C536 C 0.05565 0.15343 0.90923 0.0
C537 C 0.05668 0.16052 0.02763 0.0
C538 C 0.02202 0.1162 0.06987 0.0
C539 C 0.02491 0.10626 0.95397 0.0
N540 N 0.04913 0.11328 0.76664 0.0
N541 N 0.0425 0.1484 0.22328 0.0
C542 C 0.04256 0.12451 0.87374 0.0
C543 C 0.04014 0.14194 0.10875 0.0
N544 N 0.06733 0.17435 0.83062 0.0
N545 N 0.00139 0.10145 0.1421 0.0
H546 H 0.05418 0.16803 0.25421 0.0
H547 H 0.03469 0.13332 0.28795 0.0
H548 H 0.98644 0.08365 0.11545 0.0
H549 H 0.99669 0.10882 0.22518 0.0
H550 H 0.06427 0.17205 0.74229 0.0
H551 H 0.07741 0.19558 0.85425 0.0
H552 H 0.06485 0.12404 0.71032 0.0
H553 H 0.04162 0.09165 0.73724 0.0
C554 C 0.35649 0.05808 0.89821 0.0
C555 C 0.34785 0.04952 0.01189 0.0
C556 C 0.402 0.03479 0.05439 0.0
C557 C 0.41093 0.04474 0.94216 0.0
N558 N 0.39848 0.07472 0.77209 0.0
N559 N 0.36354 0.03812 0.20671 0.0
C560 C 0.38868 0.05907 0.86838 0.0
C561 C 0.371 0.0405 0.09272 0.0
N562 N 0.33406 0.06387 0.81721 0.0
N563 N 0.4224 0.01842 0.12242 0.0
H564 H 0.34106 0.0423 0.23829 0.0
H565 H 0.38034 0.03525 0.27064 0.0
H566 H 0.44534 0.01344 0.09843 0.0
H567 H 0.41574 0.00748 0.19905 0.0
H568 H 0.33917 0.06669 0.73012 0.0
H569 H 0.31015 0.06321 0.83512 0.0
H570 H 0.38355 0.08775 0.71961 0.0
H571 H 0.42212 0.07787 0.75332 0.0
C572 C 0.54378 0.3606 0.73625 0.0
C573 C 0.51752 0.34505 0.78425 0.0
C574 C 0.48798 0.39437 0.77778 0.0
C575 C 0.51606 0.41068 0.75068 0.0
N576 N 0.57168 0.40937 0.71099 0.0
N577 N 0.4639 0.34677 0.85025 0.0
C578 C 0.54417 0.39379 0.73018 0.0
C579 C 0.48918 0.36168 0.80295 0.0
N580 N 0.5682 0.34339 0.69453 0.0
N581 N 0.46003 0.40991 0.77621 0.0
H582 H 0.46316 0.32277 0.86588 0.0
H583 H 0.44422 0.35847 0.88074 0.0
H584 H 0.45823 0.43376 0.75827 0.0
H585 H 0.43841 0.39878 0.7823 0.0
H586 H 0.58685 0.35309 0.64876 0.0
H587 H 0.56805 0.31896 0.69494 0.0
H588 H 0.59341 0.39833 0.70923 0.0
H589 H 0.57341 0.43366 0.7065 0.0
C590 C 0.11948 0.45727 0.96428 0.0
C591 C 0.14383 0.45568 0.88182 0.0
C592 C 0.10574 0.43985 0.73664 0.0
C593 C 0.08095 0.4468 0.81397 0.0
N594 N 0.0652 0.46952 0.99548 0.0
N595 N 0.15971 0.44969 0.68389 0.0
C596 C 0.08798 0.45726 0.92669 0.0
C597 C 0.13694 0.44796 0.76633 0.0
N598 N 0.12639 0.45848 0.07879 0.0
N599 N 0.09964 0.42461 0.63662 0.0
H600 H 0.18281 0.45578 0.70183 0.0
H601 H 0.15504 0.44777 0.59637 0.0
H602 H 0.07736 0.41661 0.61626 0.0
H603 H 0.1171 0.41673 0.58129 0.0
H604 H 0.10941 0.45657 0.14296 0.0
H605 H 0.14928 0.4578 0.10964 0.0
H606 H 0.07011 0.47969 0.07416 0.0
H607 H 0.04218 0.47317 0.9695 0.0
C608 C 0.00486 0.87344 0.65931 0.0
C609 C 0.97709 0.8609 0.6114 0.0
C610 C 0.95142 0.91201 0.63001 0.0
C611 C 0.98006 0.92482 0.66908 0.0
N612 N 0.03602 0.91985 0.6889 0.0
N613 N 0.92596 0.86988 0.52854 0.0
C614 C 0.00743 0.90617 0.67327 0.0
C615 C 0.95091 0.88066 0.58988 0.0
N616 N 0.02808 0.85409 0.69827 0.0
N617 N 0.92445 0.92911 0.63629 0.0
H618 H 0.92455 0.84711 0.49769 0.0
H619 H 0.90793 0.88432 0.4996 0.0
H620 H 0.9238 0.95215 0.66485 0.0
H621 H 0.90236 0.91966 0.6215 0.0
H622 H 0.0473 0.86213 0.74444 0.0
H623 H 0.02651 0.82975 0.69651 0.0
H624 H 0.05702 0.90759 0.68215 0.0
H625 H 0.03889 0.94403 0.69573 0.0
C626 C 0.64828 0.9926 0.65142 0.0
C627 C 0.6596 0.02269 0.61775 0.0
C628 C 0.60586 0.04159 0.59649 0.0
C629 C 0.59496 0.01349 0.64737 0.0
N630 N 0.60336 0.96003 0.70153 0.0
N631 N 0.64962 0.07668 0.56687 0.0
C632 C 0.61556 0.98826 0.66848 0.0
C633 C 0.63851 0.04732 0.59092 0.0
N634 N 0.66871 0.9681 0.66302 0.0
N635 N 0.58494 0.06249 0.55157 0.0
H636 H 0.67341 0.08208 0.56418 0.0
H637 H 0.6353 0.09631 0.55915 0.0
H638 H 0.56087 0.05856 0.55301 0.0
H639 H 0.59147 0.08193 0.50254 0.0
H640 H 0.66222 0.94527 0.68325 0.0
H641 H 0.69256 0.96992 0.64568 0.0
H642 H 0.61643 0.94092 0.72944 0.0
H643 H 0.57933 0.95569 0.69933 0.0
C644 C 0.54536 0.66525 0.69392 0.0
C645 C 0.5165 0.67909 0.66074 0.0
C646 C 0.49487 0.62717 0.62132 0.0
C647 C 0.52405 0.61343 0.65035 0.0
N648 N 0.57932 0.61984 0.68354 0.0
N649 N 0.46807 0.67372 0.55556 0.0
C650 C 0.5501 0.63264 0.67635 0.0
C651 C 0.49243 0.66021 0.61367 0.0
N652 N 0.56763 0.68283 0.74735 0.0
N653 N 0.46933 0.60874 0.60149 0.0
H654 H 0.46614 0.69779 0.54228 0.0
H655 H 0.45181 0.66089 0.50882 0.0
H656 H 0.47034 0.58438 0.59999 0.0
H657 H 0.44672 0.61764 0.59373 0.0
H658 H 0.58766 0.67326 0.78446 0.0
H659 H 0.5648 0.70661 0.76385 0.0
H660 H 0.59959 0.63316 0.69212 0.0
H661 H 0.58361 0.59616 0.66941 0.0
C662 C 0.83119 0.47105 0.65507 0.0
C663 C 0.82103 0.44678 0.58161 0.0
C664 C 0.87577 0.4333 0.54078 0.0
C665 C 0.88543 0.46067 0.59999 0.0
N666 N 0.87212 0.50814 0.69841 0.0
N667 N 0.83383 0.3963 0.50491 0.0
C668 C 0.86305 0.48019 0.65322 0.0
C669 C 0.8434 0.42539 0.53799 0.0
N670 N 0.81118 0.48334 0.73441 0.0
N671 N 0.89743 0.41493 0.48698 0.0
H672 H 0.811 0.38842 0.51855 0.0
H673 H 0.84885 0.3785 0.47941 0.0
H674 H 0.92128 0.41959 0.48717 0.0
H675 H 0.89184 0.39614 0.43466 0.0
H676 H 0.8181 0.49947 0.79601 0.0
H677 H 0.78921 0.47365 0.75093 0.0
H678 H 0.85634 0.52473 0.72883 0.0
H679 H 0.89515 0.51614 0.69311 0.0
loop_
_geom_bond_atom_site_label_1
_geom_bond_atom_site_label_2
_geom_bond_distance
_geom_bond_site_symmetry_2
_ccdc_geom_bond_type
O0 Cd1 2.300 . S
O0 C7 1.275 . S
Cd1 O0 2.300 . S
Cd1 O9 2.381 . S
Cd1 O10 2.378 . S
O2 Cd3 2.385 . S
O2 C7 1.255 . S
Cd3 O2 2.385 . S
Cd3 O4 2.317 . S
O4 Cd3 2.317 . S
O4 C5 1.232 . S
C5 O4 1.232 . S
C5 O6 1.218 . S
O6 C5 1.218 . S
C7 O0 1.275 . S
C7 O2 1.255 . S
C8 O9 1.258 . S
C8 O10 1.256 . S
O9 Cd1 2.381 . S
O9 C8 1.258 . S
O10 Cd1 2.378 . S
O10 C8 1.256 . S
O11 Cd12 2.300 1_655 S
O11 C18 1.275 1_655 S
Cd12 O11 2.300 1_455 S
Cd12 O20 2.381 1_455 S
Cd12 O21 2.378 . S
O13 Cd14 2.385 . S
O13 C18 1.255 . S
Cd14 O13 2.385 . S
Cd14 O15 2.317 . S
O15 Cd14 2.317 . S
O15 C16 1.232 . S
C16 O15 1.232 . S
C16 O17 1.218 . S
O17 C16 1.218 . S
C18 O11 1.275 1_455 S
C18 O13 1.255 . S
C19 O20 1.258 1_455 S
C19 O21 1.256 . S
O20 Cd12 2.381 1_655 S
O20 C19 1.258 1_655 S
O21 Cd12 2.378 . S
O21 C19 1.256 . S
O22 Cd23 2.300 1_565 S
O22 C29 1.275 1_565 S
Cd23 O22 2.300 1_545 S
Cd23 O31 2.381 1_545 S
Cd23 O32 2.378 . S
O24 Cd25 2.385 . S
O24 C29 1.255 . S
Cd25 O24 2.385 . S
Cd25 O26 2.317 . S
O26 Cd25 2.317 . S
O26 C27 1.232 . S
C27 O26 1.232 . S
C27 O28 1.218 . S
O28 C27 1.218 . S
C29 O22 1.275 1_545 S
C29 O24 1.255 . S
C30 O31 1.258 1_545 S
C30 O32 1.256 . S
O31 Cd23 2.381 1_565 S
O31 C30 1.258 1_565 S
O32 Cd23 2.378 . S
O32 C30 1.256 . S
O33 Cd34 2.300 . S
O33 C40 1.275 . S
Cd34 O33 2.300 . S
Cd34 O42 2.381 . S
Cd34 O43 2.378 . S
O35 Cd36 2.385 . S
O35 C40 1.255 . S
Cd36 O35 2.385 . S
Cd36 O37 2.317 . S
O37 Cd36 2.317 . S
O37 C38 1.232 . S
C38 O37 1.232 . S
C38 O39 1.218 . S
O39 C38 1.218 . S
C40 O33 1.275 . S
C40 O35 1.255 . S
C41 O42 1.258 . S
C41 O43 1.256 . S
O42 Cd34 2.381 . S
O42 C41 1.258 . S
O43 Cd34 2.378 . S
O43 C41 1.256 . S
O44 Cd45 2.300 . S
O44 C51 1.275 . S
Cd45 O44 2.300 . S
Cd45 O53 2.381 . S
Cd45 O54 2.378 . S
O46 Cd47 2.385 1_554 S
O46 C51 1.255 . S
Cd47 O46 2.385 1_556 S
Cd47 O48 2.317 . S
O48 Cd47 2.317 . S
O48 C49 1.232 . S
C49 O48 1.232 . S
C49 O50 1.218 . S
O50 C49 1.218 . S
C51 O44 1.275 . S
C51 O46 1.255 . S
C52 O53 1.258 . S
C52 O54 1.256 . S
O53 Cd45 2.381 . S
O53 C52 1.258 . S
O54 Cd45 2.378 . S
O54 C52 1.256 . S
O55 Cd56 2.300 1_655 S
O55 C62 1.275 1_655 S
Cd56 O55 2.300 1_455 S
Cd56 O64 2.381 1_455 S
Cd56 O65 2.378 . S
O57 Cd58 2.385 1_554 S
O57 C62 1.255 . S
Cd58 O57 2.385 1_556 S
Cd58 O59 2.317 . S
O59 Cd58 2.317 . S
O59 C60 1.232 . S
C60 O59 1.232 . S
C60 O61 1.218 . S
O61 C60 1.218 . S
C62 O55 1.275 1_455 S
C62 O57 1.255 . S
C63 O64 1.258 1_455 S
C63 O65 1.256 . S
O64 Cd56 2.381 1_655 S
O64 C63 1.258 1_655 S
O65 Cd56 2.378 . S
O65 C63 1.256 . S
O66 Cd67 2.300 1_565 S
O66 C73 1.275 1_565 S
Cd67 O66 2.300 1_545 S
Cd67 O75 2.381 1_545 S
Cd67 O76 2.378 . S
O68 Cd69 2.385 1_554 S
O68 C73 1.255 . S
Cd69 O68 2.385 1_556 S
Cd69 O70 2.317 . S
O70 Cd69 2.317 . S
O70 C71 1.232 . S
C71 O70 1.232 . S
C71 O72 1.218 . S
O72 C71 1.218 . S
C73 O66 1.275 1_545 S
C73 O68 1.255 . S
C74 O75 1.258 1_545 S
C74 O76 1.256 . S
O75 Cd67 2.381 1_565 S
O75 C74 1.258 1_565 S
O76 Cd67 2.378 . S
O76 C74 1.256 . S
O77 Cd78 2.300 . S
O77 C84 1.275 . S
Cd78 O77 2.300 . S
Cd78 O86 2.381 . S
Cd78 O87 2.378 . S
O79 Cd80 2.385 1_554 S
O79 C84 1.255 . S
Cd80 O79 2.385 1_556 S
Cd80 O81 2.317 . S
O81 Cd80 2.317 . S
O81 C82 1.232 . S
C82 O81 1.232 . S
C82 O83 1.218 . S
O83 C82 1.218 . S
C84 O77 1.275 . S
C84 O79 1.255 . S
C85 O86 1.258 . S
C85 O87 1.256 . S
O86 Cd78 2.381 . S
O86 C85 1.258 . S
O87 Cd78 2.378 . S
O87 C85 1.256 . S
Pr88 C90 2.880 1_556 S
Pr88 O108 2.562 1_556 S
Pr88 O109 2.490 . S
Pr88 O110 2.695 1_565 S
Pr88 O111 2.512 . S
Pr88 O113 2.437 . S
Pr88 O116 2.436 1_455 S
Pr88 O118 2.438 1_565 S
Pr89 C99 2.880 . S
Pr89 O110 2.436 1_655 S
Pr89 O112 2.438 1_545 S
Pr89 O114 2.562 . S
Pr89 O115 2.490 . S
Pr89 O116 2.695 1_545 S
Pr89 O117 2.512 . S
Pr89 O119 2.437 . S
C90 Pr88 2.880 1_554 S
C90 C91 1.491 . S
C90 O108 1.254 . S
C90 O109 1.225 1_554 S
C91 C90 1.491 . S
C91 C92 1.392 . S
C91 C96 1.356 . S
C92 C91 1.392 . S
C92 C93 1.368 . S
C92 H120 0.929 . S
C93 C92 1.368 . S
C93 C94 1.386 . S
C93 H121 0.929 . S
C94 C93 1.386 . S
C94 C95 1.373 . S
C95 C94 1.373 . S
C95 C96 1.409 . S
C95 H122 0.929 1_455 S
C96 C91 1.356 . S
C96 C95 1.409 . S
C96 H123 0.930 1_455 S
C97 O110 1.270 1_565 S
C97 O111 1.248 . S
C98 O112 1.267 . S
C98 O113 1.278 1_655 S
C99 Pr89 2.880 . S
C99 C100 1.491 . S
C99 O114 1.254 . S
C99 O115 1.225 . S
C100 C99 1.491 . S
C100 C101 1.392 . S
C100 C105 1.356 . S
C101 C100 1.392 . S
C101 C102 1.368 . S
C101 H124 0.929 . S
C102 C101 1.368 . S
C102 C103 1.386 . S
C102 H125 0.929 . S
C103 C102 1.386 . S
C103 C104 1.373 . S
C104 C103 1.373 . S
C104 C105 1.409 . S
C104 H126 0.923 1_655 S
C105 C100 1.356 . S
C105 C104 1.409 . S
C105 H127 0.930 1_655 S
C106 O116 1.270 1_545 S
C106 O117 1.248 . S
C107 O118 1.267 . S
C107 O119 1.278 1_455 S
O108 Pr88 2.562 1_554 S
O108 C90 1.254 . S
O109 Pr88 2.490 . S
O109 C90 1.225 1_556 S
O110 Pr88 2.695 1_545 S
O110 Pr89 2.436 1_455 S
O110 C97 1.270 1_545 S
O111 Pr88 2.512 . S
O111 C97 1.248 . S
O112 Pr89 2.438 1_565 S
O112 C98 1.267 . S
O113 Pr88 2.437 . S
O113 C98 1.278 1_455 S
O114 Pr89 2.562 . S
O114 C99 1.254 . S
O115 Pr89 2.490 . S
O115 C99 1.225 . S
O116 Pr88 2.436 1_655 S
O116 Pr89 2.695 1_565 S
O116 C106 1.270 1_565 S
O117 Pr89 2.512 . S
O117 C106 1.248 . S
O118 Pr88 2.438 1_545 S
O118 C107 1.267 . S
O119 Pr89 2.437 . S
O119 C107 1.278 1_655 S
H120 C92 0.929 . S
H121 C93 0.929 . S
H122 C95 0.929 1_655 S
H123 C96 0.930 1_655 S
H124 C101 0.929 . S
H125 C102 0.929 . S
H126 C104 0.923 1_455 S
H127 C105 0.930 1_455 S
Pr128 C130 2.880 1_556 S
Pr128 O148 2.562 1_556 S
Pr128 O149 2.490 . S
Pr128 O150 2.695 . S
Pr128 O151 2.512 . S
Pr128 O153 2.437 . S
Pr128 O156 2.436 1_545 S
Pr128 O158 2.438 . S
Pr129 C139 2.880 . S
Pr129 O150 2.436 1_565 S
Pr129 O152 2.438 . S
Pr129 O154 2.562 . S
Pr129 O155 2.490 . S
Pr129 O156 2.695 . S
Pr129 O157 2.512 . S
Pr129 O159 2.437 . S
C130 Pr128 2.880 1_554 S
C130 C131 1.491 . S
C130 O148 1.254 . S
C130 O149 1.225 1_554 S
C131 C130 1.491 . S
C131 C132 1.392 . S
C131 C136 1.356 . S
C132 C131 1.392 . S
C132 C133 1.368 . S
C132 H160 0.929 . S
C133 C132 1.368 . S
C133 C134 1.386 . S
C133 H161 0.929 . S
C134 C133 1.386 . S
C134 C135 1.373 . S
C135 C134 1.373 . S
C135 C136 1.409 . S
C135 H162 0.931 1_545 S
C136 C131 1.356 . S
C136 C135 1.409 . S
C136 H163 0.930 1_545 S
C137 O150 1.270 . S
C137 O151 1.248 . S
C138 O152 1.267 . S
C138 O153 1.278 1_565 S
C139 Pr129 2.880 . S
C139 C140 1.491 . S
C139 O154 1.254 . S
C139 O155 1.225 . S
C140 C139 1.491 . S
C140 C141 1.392 . S
C140 C145 1.356 . S
C141 C140 1.392 . S
C141 C142 1.368 . S
C141 H164 0.929 . S
C142 C141 1.368 . S
C142 C143 1.386 . S
C142 H165 0.929 . S
C143 C142 1.386 . S
C143 C144 1.373 . S
C144 C143 1.373 . S
C144 C145 1.409 . S
C144 H166 0.931 1_565 S
C145 C140 1.356 . S
C145 C144 1.409 . S
C145 H167 0.930 1_565 S
C146 O156 1.270 . S
C146 O157 1.248 . S
C147 O158 1.267 . S
C147 O159 1.278 1_545 S
O148 Pr128 2.562 1_554 S
O148 C130 1.254 . S
O149 Pr128 2.490 . S
O149 C130 1.225 1_556 S
O150 Pr128 2.695 . S
O150 Pr129 2.436 1_545 S
O150 C137 1.270 . S
O151 Pr128 2.512 . S
O151 C137 1.248 . S
O152 Pr129 2.438 . S
O152 C138 1.267 . S
O153 Pr128 2.437 . S
O153 C138 1.278 1_545 S
O154 Pr129 2.562 . S
O154 C139 1.254 . S
O155 Pr129 2.490 . S
O155 C139 1.225 . S
O156 Pr128 2.436 1_565 S
O156 Pr129 2.695 . S
O156 C146 1.270 . S
O157 Pr129 2.512 . S
O157 C146 1.248 . S
O158 Pr128 2.438 . S
O158 C147 1.267 . S
O159 Pr129 2.437 . S
O159 C147 1.278 1_565 S
H160 C132 0.929 . S
H161 C133 0.929 . S
H162 C135 0.931 1_565 S
H163 C136 0.930 1_565 S
H164 C141 0.929 . S
H165 C142 0.929 . S
H166 C144 0.931 1_545 S
H167 C145 0.930 1_545 S
Pr168 C170 2.880 1_556 S
Pr168 O188 2.562 1_556 S
Pr168 O189 2.490 . S
Pr168 O190 2.695 . S
Pr168 O191 2.512 . S
Pr168 O193 2.437 . S
Pr168 O196 2.436 . S
Pr168 O198 2.438 . S
Pr169 C179 2.880 . S
Pr169 O190 2.436 . S
Pr169 O192 2.438 . S
Pr169 O194 2.562 . S
Pr169 O195 2.490 . S
Pr169 O196 2.695 . S
Pr169 O197 2.512 . S
Pr169 O199 2.437 . S
C170 Pr168 2.880 1_554 S
C170 C171 1.491 . S
C170 O188 1.254 . S
C170 O189 1.225 1_554 S
C171 C170 1.491 . S
C171 C172 1.392 . S
C171 C176 1.356 . S
C172 C171 1.392 . S
C172 C173 1.368 . S
C172 H200 0.929 . S
C173 C172 1.368 . S
C173 C174 1.386 . S
C173 H201 0.929 . S
C174 C173 1.386 . S
C174 C175 1.373 . S
C175 C174 1.373 . S
C175 C176 1.409 . S
C175 H202 0.931 . S
C176 C171 1.356 . S
C176 C175 1.409 . S
C176 H203 0.930 . S
C177 O190 1.270 . S
C177 O191 1.248 . S
C178 O192 1.267 . S
C178 O193 1.278 . S
C179 Pr169 2.880 . S
C179 C180 1.491 . S
C179 O194 1.254 . S
C179 O195 1.225 . S
C180 C179 1.491 . S
C180 C181 1.392 . S
C180 C185 1.356 . S
C181 C180 1.392 . S
C181 C182 1.368 . S
C181 H204 0.929 . S
C182 C181 1.368 . S
C182 C183 1.386 . S
C182 H205 0.929 . S
C183 C182 1.386 . S
C183 C184 1.373 . S
C184 C183 1.373 . S
C184 C185 1.409 . S
C184 H206 0.931 . S
C185 C180 1.356 . S
C185 C184 1.409 . S
C185 H207 0.930 . S
C186 O196 1.270 . S
C186 O197 1.248 . S
C187 O198 1.267 . S
C187 O199 1.278 . S
O188 Pr168 2.562 1_554 S
O188 C170 1.254 . S
O189 Pr168 2.490 . S
O189 C170 1.225 1_556 S
O190 Pr168 2.695 . S
O190 Pr169 2.436 . S
O190 C177 1.270 . S
O191 Pr168 2.512 . S
O191 C177 1.248 . S
O192 Pr169 2.438 . S
O192 C178 1.267 . S
O193 Pr168 2.437 . S
O193 C178 1.278 . S
O194 Pr169 2.562 . S
O194 C179 1.254 . S
O195 Pr169 2.490 . S
O195 C179 1.225 . S
O196 Pr168 2.436 . S
O196 Pr169 2.695 . S
O196 C186 1.270 . S
O197 Pr169 2.512 . S
O197 C186 1.248 . S
O198 Pr168 2.438 . S
O198 C187 1.267 . S
O199 Pr169 2.437 . S
O199 C187 1.278 . S
H200 C172 0.929 . S
H201 C173 0.929 . S
H202 C175 0.931 . S
H203 C176 0.930 . S
H204 C181 0.929 . S
H205 C182 0.929 . S
H206 C184 0.931 . S
H207 C185 0.930 . S
Pr208 C210 2.880 1_556 S
Pr208 O228 2.562 1_556 S
Pr208 O229 2.490 . S
Pr208 O230 2.695 1_655 S
Pr208 O231 2.512 . S
Pr208 O233 2.437 . S
Pr208 O236 2.436 . S
Pr208 O238 2.438 1_655 S
Pr209 C219 2.880 . S
Pr209 O230 2.436 . S
Pr209 O232 2.438 1_455 S
Pr209 O234 2.562 . S
Pr209 O235 2.490 . S
Pr209 O236 2.695 1_455 S
Pr209 O237 2.512 . S
Pr209 O239 2.437 . S
C210 Pr208 2.880 1_554 S
C210 C211 1.491 . S
C210 O228 1.254 . S
C210 O229 1.225 1_554 S
C211 C210 1.491 . S
C211 C212 1.392 . S
C211 C216 1.356 . S
C212 C211 1.392 . S
C212 C213 1.368 . S
C212 H240 0.929 . S
C213 C212 1.368 . S
C213 C214 1.386 . S
C213 H241 0.929 . S
C214 C213 1.386 . S
C214 C215 1.373 . S
C215 C214 1.373 . S
C215 C216 1.409 . S
C215 H242 0.931 . S
C216 C211 1.356 . S
C216 C215 1.409 . S
C216 H243 0.930 . S
C217 O230 1.263 1_655 S
C217 O231 1.261 . S
C218 O232 1.267 . S
C218 O233 1.278 . S
C219 Pr209 2.880 . S
C219 C220 1.491 . S
C219 O234 1.254 . S
C219 O235 1.225 . S
C220 C219 1.491 . S
C220 C221 1.392 . S
C220 C225 1.356 . S
C221 C220 1.392 . S
C221 C222 1.368 . S
C221 H244 0.929 . S
C222 C221 1.368 . S
C222 C223 1.386 . S
C222 H245 0.929 . S
C223 C222 1.386 . S
C223 C224 1.373 . S
C224 C223 1.373 . S
C224 C225 1.409 . S
C224 H246 0.931 . S
C225 C220 1.356 . S
C225 C224 1.409 . S
C225 H247 0.930 . S
C226 O236 1.260 1_455 S
C226 O237 1.265 . S
C227 O238 1.267 . S
C227 O239 1.278 . S
O228 Pr208 2.562 1_554 S
O228 C210 1.254 . S
O229 Pr208 2.490 . S
O229 C210 1.225 1_556 S
O230 Pr208 2.695 1_455 S
O230 Pr209 2.436 . S
O230 C217 1.263 1_455 S
O231 Pr208 2.512 . S
O231 C217 1.261 . S
O232 Pr209 2.438 1_655 S
O232 C218 1.267 . S
O233 Pr208 2.437 . S
O233 C218 1.278 . S
O234 Pr209 2.562 . S
O234 C219 1.254 . S
O235 Pr209 2.490 . S
O235 C219 1.225 . S
O236 Pr208 2.436 . S
O236 Pr209 2.695 1_655 S
O236 C226 1.260 1_655 S
O237 Pr209 2.512 . S
O237 C226 1.265 . S
O238 Pr208 2.438 1_455 S
O238 C227 1.267 . S
O239 Pr209 2.437 . S
O239 C227 1.278 . S
H240 C212 0.929 . S
H241 C213 0.929 . S
H242 C215 0.931 . S
H243 C216 0.930 . S
H244 C221 0.929 . S
H245 C222 0.929 . S
H246 C224 0.931 . S
H247 C225 0.930 . S
C248 C249 1.371 . S
C248 C254 1.379 . S
C248 N256 1.356 . S
C249 C248 1.371 . S
C249 C255 1.355 1_545 S
C250 C251 1.339 1_565 S
C250 C255 1.379 . S
C250 N257 1.356 . S
C251 C250 1.339 1_545 S
C251 C254 1.387 . S
N252 C254 1.356 . S
N252 H264 0.984 . S
N252 H265 0.985 . S
N253 C255 1.356 . S
N253 H258 0.984 . S
N253 H259 0.985 . S
C254 C248 1.379 . S
C254 C251 1.387 . S
C254 N252 1.356 . S
C255 C249 1.355 1_565 S
C255 C250 1.379 . S
C255 N253 1.356 . S
N256 C248 1.356 . S
N256 H262 0.984 . S
N256 H263 0.984 . S
N257 C250 1.356 . S
N257 H260 0.984 . S
N257 H261 0.985 . S
H258 N253 0.984 . S
H259 N253 0.985 . S
H260 N257 0.984 . S
H261 N257 0.985 . S
H262 N256 0.984 . S
H263 N256 0.984 . S
H264 N252 0.984 . S
H265 N252 0.985 . S
C266 C267 1.363 . S
C266 C272 1.379 . S
C266 N274 1.356 . S
C267 C266 1.363 . S
C267 C273 1.363 . S
C268 C269 1.363 . S
C268 C273 1.379 . S
C268 N275 1.356 . S
C269 C268 1.363 . S
C269 C272 1.363 . S
N270 C272 1.356 . S
N270 H282 0.984 . S
N270 H283 0.985 . S
N271 C273 1.356 . S
N271 H276 0.984 . S
N271 H277 0.985 . S
C272 C266 1.379 . S
C272 C269 1.363 . S
C272 N270 1.356 . S
C273 C267 1.363 . S
C273 C268 1.379 . S
C273 N271 1.356 . S
N274 C266 1.356 . S
N274 H280 0.984 . S
N274 H281 0.984 . S
N275 C268 1.356 . S
N275 H278 0.984 . S
N275 H279 0.985 . S
H276 N271 0.984 . S
H277 N271 0.985 . S
H278 N275 0.984 . S
H279 N275 0.985 . S
H280 N274 0.984 . S
H281 N274 0.984 . S
H282 N270 0.984 . S
H283 N270 0.985 . S
C284 C285 1.363 . S
C284 C290 1.379 . S
C284 N292 1.356 . S
C285 C284 1.363 . S
C285 C291 1.363 . S
C286 C287 1.363 . S
C286 C291 1.379 . S
C286 N293 1.356 . S
C287 C286 1.363 . S
C287 C290 1.363 . S
N288 C290 1.356 . S
N288 H300 0.984 . S
N288 H301 0.985 . S
N289 C291 1.356 . S
N289 H294 0.984 . S
N289 H295 0.985 . S
C290 C284 1.379 . S
C290 C287 1.363 . S
C290 N288 1.356 . S
C291 C285 1.363 . S
C291 C286 1.379 . S
C291 N289 1.356 . S
N292 C284 1.356 . S
N292 H298 0.984 . S
N292 H299 0.984 . S
N293 C286 1.356 . S
N293 H296 0.984 . S
N293 H297 0.985 . S
H294 N289 0.984 . S
H295 N289 0.985 . S
H296 N293 0.984 . S
H297 N293 0.985 . S
H298 N292 0.984 . S
H299 N292 0.984 . S
H300 N288 0.984 . S
H301 N288 0.985 . S
C302 C303 1.347 1_655 S
C302 C308 1.379 . S
C302 N310 1.356 . S
C303 C302 1.347 1_455 S
C303 C309 1.380 . S
C304 C305 1.363 . S
C304 C309 1.379 . S
C304 N311 1.356 . S
C305 C304 1.363 . S
C305 C308 1.363 1_455 S
N306 C308 1.356 . S
N306 H318 0.984 . S
N306 H319 0.985 . S
N307 C309 1.356 . S
N307 H312 0.984 . S
N307 H313 0.985 . S
C308 C302 1.379 . S
C308 C305 1.363 1_655 S
C308 N306 1.356 . S
C309 C303 1.380 . S
C309 C304 1.379 . S
C309 N307 1.356 . S
N310 C302 1.356 . S
N310 H316 0.984 . S
N310 H317 0.984 . S
N311 C304 1.356 . S
N311 H314 0.984 . S
N311 H315 0.985 . S
H312 N307 0.984 . S
H313 N307 0.985 . S
H314 N311 0.984 . S
H315 N311 0.985 . S
H316 N310 0.984 . S
H317 N310 0.984 . S
H318 N306 0.984 . S
H319 N306 0.985 . S
C320 C321 1.365 . S
C320 C326 1.379 . S
C320 N328 1.356 . S
C321 C320 1.365 . S
C321 C327 1.361 1_565 S
C322 C323 1.344 1_545 S
C322 C327 1.379 . S
C322 N329 1.356 1_554 S
C323 C322 1.344 1_565 S
C323 C326 1.382 . S
N324 C326 1.356 . S
N324 H336 0.984 . S
N324 H337 0.985 1_554 S
N325 C327 1.356 . S
N325 H330 0.984 . S
N325 H331 0.985 . S
C326 C320 1.379 . S
C326 C323 1.382 . S
C326 N324 1.356 . S
C327 C321 1.361 1_545 S
C327 C322 1.379 . S
C327 N325 1.356 . S
N328 C320 1.356 . S
N328 H334 0.984 . S
N328 H335 0.984 . S
N329 C322 1.356 1_556 S
N329 H332 0.984 . S
N329 H333 0.985 . S
H330 N325 0.984 . S
H331 N325 0.985 . S
H332 N329 0.984 . S
H333 N329 0.985 . S
H334 N328 0.984 . S
H335 N328 0.984 . S
H336 N324 0.984 . S
H337 N324 0.985 1_556 S
C338 C339 1.363 . S
C338 C344 1.379 . S
C338 N346 1.356 . S
C339 C338 1.363 . S
C339 C345 1.363 . S
C340 C341 1.363 . S
C340 C345 1.379 . S
C340 N347 1.356 . S
C341 C340 1.363 . S
C341 C344 1.363 . S
N342 C344 1.356 1_556 S
N342 H354 0.984 . S
N342 H355 0.985 . S
N343 C345 1.356 . S
N343 H348 0.984 . S
N343 H349 0.985 . S
C344 C338 1.379 . S
C344 C341 1.363 . S
C344 N342 1.356 1_554 S
C345 C339 1.363 . S
C345 C340 1.379 . S
C345 N343 1.356 . S
N346 C338 1.356 . S
N346 H352 0.984 . S
N346 H353 0.984 . S
N347 C340 1.356 . S
N347 H350 0.984 1_554 S
N347 H351 0.985 . S
H348 N343 0.984 . S
H349 N343 0.985 . S
H350 N347 0.984 1_556 S
H351 N347 0.985 . S
H352 N346 0.984 . S
H353 N346 0.984 . S
H354 N342 0.984 . S
H355 N342 0.985 . S
C356 C357 1.363 . S
C356 C362 1.379 . S
C356 N364 1.356 . S
C357 C356 1.363 . S
C357 C363 1.363 . S
C358 C359 1.363 . S
C358 C363 1.379 . S
C358 N365 1.356 1_554 S
C359 C358 1.363 . S
C359 C362 1.363 . S
N360 C362 1.356 . S
N360 H372 0.984 . S
N360 H373 0.985 1_554 S
N361 C363 1.356 . S
N361 H366 0.984 . S
N361 H367 0.985 . S
C362 C356 1.379 . S
C362 C359 1.363 . S
C362 N360 1.356 . S
C363 C357 1.363 . S
C363 C358 1.379 . S
C363 N361 1.356 . S
N364 C356 1.356 . S
N364 H370 0.984 . S
N364 H371 0.984 . S
N365 C358 1.356 1_556 S
N365 H368 0.984 . S
N365 H369 0.985 . S
H366 N361 0.984 . S
H367 N361 0.985 . S
H368 N365 0.984 . S
H369 N365 0.985 . S
H370 N364 0.984 . S
H371 N364 0.984 . S
H372 N360 0.984 . S
H373 N360 0.985 1_556 S
C374 C375 1.374 . S
C374 C380 1.379 . S
C374 N382 1.356 . S
C375 C374 1.374 . S
C375 C381 1.353 1_655 S
C376 C377 1.363 1_455 S
C376 C381 1.379 . S
C376 N383 1.356 . S
C377 C376 1.363 1_655 S
C377 C380 1.363 . S
N378 C380 1.356 1_556 S
N378 H390 0.984 . S
N378 H391 0.985 . S
N379 C381 1.356 . S
N379 H384 0.984 . S
N379 H385 0.985 . S
C380 C374 1.379 . S
C380 C377 1.363 . S
C380 N378 1.356 1_554 S
C381 C375 1.353 1_455 S
C381 C376 1.379 . S
C381 N379 1.356 . S
N382 C374 1.356 . S
N382 H388 0.984 . S
N382 H389 0.984 . S
N383 C376 1.356 . S
N383 H386 0.984 1_554 S
N383 H387 0.985 . S
H384 N379 0.984 . S
H385 N379 0.985 . S
H386 N383 0.984 1_556 S
H387 N383 0.985 . S
H388 N382 0.984 . S
H389 N382 0.984 . S
H390 N378 0.984 . S
H391 N378 0.985 . S
C392 C393 1.363 . S
C392 C398 1.379 . S
C392 N400 1.356 1_655 S
C393 C392 1.363 . S
C393 C399 1.363 . S
C394 C395 1.363 . S
C394 C399 1.379 . S
C394 N401 1.356 . S
C395 C394 1.363 . S
C395 C398 1.363 . S
N396 C398 1.356 . S
N396 H408 0.984 . S
N396 H409 0.985 . S
N397 C399 1.356 . S
N397 H402 0.984 1_655 S
N397 H403 0.985 1_554 S
C398 C392 1.379 . S
C398 C395 1.363 . S
C398 N396 1.356 . S
C399 C393 1.363 . S
C399 C394 1.379 . S
C399 N397 1.356 . S
N400 C392 1.356 1_455 S
N400 H406 0.984 . S
N400 H407 0.984 . S
N401 C394 1.356 . S
N401 H404 0.984 . S
N401 H405 0.985 . S
H402 N397 0.984 1_455 S
H403 N397 0.985 1_556 S
H404 N401 0.984 . S
H405 N401 0.985 . S
H406 N400 0.984 . S
H407 N400 0.984 . S
H408 N396 0.984 . S
H409 N396 0.985 . S
C410 C411 1.360 1_545 S
C410 C416 1.362 1_545 S
C410 N418 1.379 . S
C411 C410 1.360 1_565 S
C411 C417 1.363 . S
C412 C413 1.363 . S
C412 C417 1.379 . S
C412 N419 1.356 . S
C413 C412 1.363 . S
C413 C416 1.363 . S
N414 C416 1.356 . S
N414 H426 0.984 . S
N414 H427 0.985 . S
N415 C417 1.356 . S
N415 H420 0.984 . S
N415 H421 0.985 1_554 S
C416 C410 1.362 1_565 S
C416 C413 1.363 . S
C416 N414 1.356 . S
C417 C411 1.363 . S
C417 C412 1.379 . S
C417 N415 1.356 . S
N418 C410 1.379 . S
N418 H424 0.984 . S
N418 H425 0.984 . S
N419 C412 1.356 . S
N419 H422 0.984 . S
N419 H423 0.985 . S
H420 N415 0.984 . S
H421 N415 0.985 1_556 S
H422 N419 0.984 . S
H423 N419 0.985 . S
H424 N418 0.984 . S
H425 N418 0.984 . S
H426 N414 0.984 . S
H427 N414 0.985 . S
C428 C429 1.363 . S
C428 C434 1.379 . S
C428 N436 1.356 . S
C429 C428 1.363 . S
C429 C435 1.363 . S
C430 C431 1.363 . S
C430 C435 1.379 . S
C430 N437 1.356 . S
C431 C430 1.363 . S
C431 C434 1.363 . S
N432 C434 1.356 . S
N432 H444 0.984 . S
N432 H445 0.985 . S
N433 C435 1.356 . S
N433 H438 0.984 . S
N433 H439 0.985 . S
C434 C428 1.379 . S
C434 C431 1.363 . S
C434 N432 1.356 . S
C435 C429 1.363 . S
C435 C430 1.379 . S
C435 N433 1.356 . S
N436 C428 1.356 . S
N436 H442 0.984 . S
N436 H443 0.984 . S
N437 C430 1.356 . S
N437 H440 0.984 . S
N437 H441 0.985 . S
H438 N433 0.984 . S
H439 N433 0.985 . S
H440 N437 0.984 . S
H441 N437 0.985 . S
H442 N436 0.984 . S
H443 N436 0.984 . S
H444 N432 0.984 . S
H445 N432 0.985 . S
C446 C447 1.363 . S
C446 C452 1.379 . S
C446 N454 1.356 . S
C447 C446 1.363 . S
C447 C453 1.363 . S
C448 C449 1.363 . S
C448 C453 1.379 . S
C448 N455 1.356 . S
C449 C448 1.363 . S
C449 C452 1.363 . S
N450 C452 1.356 . S
N450 H462 0.984 . S
N450 H463 0.985 . S
N451 C453 1.356 . S
N451 H456 0.984 . S
N451 H457 0.985 . S
C452 C446 1.379 . S
C452 C449 1.363 . S
C452 N450 1.356 . S
C453 C447 1.363 . S
C453 C448 1.379 . S
C453 N451 1.356 . S
N454 C446 1.356 . S
N454 H460 0.984 . S
N454 H461 0.984 . S
N455 C448 1.356 . S
N455 H458 0.984 . S
N455 H459 0.985 . S
H456 N451 0.984 . S
H457 N451 0.985 . S
H458 N455 0.984 . S
H459 N455 0.985 . S
H460 N454 0.984 . S
H461 N454 0.984 . S
H462 N450 0.984 . S
H463 N450 0.985 . S
C464 C465 1.363 . S
C464 C470 1.379 . S
C464 N472 1.356 . S
C465 C464 1.363 . S
C465 C471 1.363 1_455 S
C466 C467 1.363 . S
C466 C471 1.379 1_455 S
C466 N473 1.356 . S
C467 C466 1.363 . S
C467 C470 1.363 . S
N468 C470 1.356 . S
N468 H480 0.984 . S
N468 H481 0.985 . S
N469 C471 1.356 . S
N469 H474 0.984 . S
N469 H475 0.985 . S
C470 C464 1.379 . S
C470 C467 1.363 . S
C470 N468 1.356 . S
C471 C465 1.363 1_655 S
C471 C466 1.379 1_655 S
C471 N469 1.356 . S
N472 C464 1.356 . S
N472 H478 0.984 . S
N472 H479 0.984 . S
N473 C466 1.356 . S
N473 H476 0.984 . S
N473 H477 0.985 . S
H474 N469 0.984 . S
H475 N469 0.985 . S
H476 N473 0.984 . S
H477 N473 0.985 . S
H478 N472 0.984 . S
H479 N472 0.984 . S
H480 N468 0.984 . S
H481 N468 0.985 . S
C482 C483 1.363 . S
C482 C488 1.379 . S
C482 N490 1.358 . S
C483 C482 1.363 . S
C483 C489 1.363 . S
C484 C485 1.363 . S
C484 C489 1.379 . S
C484 N491 1.356 . S
C485 C484 1.363 . S
C485 C488 1.363 . S
N486 C488 1.356 . S
N486 H498 0.984 1_554 S
N486 H499 0.985 . S
N487 C489 1.356 1_565 S
N487 H492 0.984 . S
N487 H493 0.985 . S
C488 C482 1.379 . S
C488 C485 1.363 . S
C488 N486 1.356 . S
C489 C483 1.363 . S
C489 C484 1.379 . S
C489 N487 1.356 1_545 S
N490 C482 1.358 . S
N490 H496 0.985 . S
N490 H497 0.982 1_545 S
N491 C484 1.356 . S
N491 H494 0.984 . S
N491 H495 0.985 . S
H492 N487 0.984 . S
H493 N487 0.985 . S
H494 N491 0.984 . S
H495 N491 0.985 . S
H496 N490 0.985 . S
H497 N490 0.982 1_565 S
H498 N486 0.984 1_556 S
H499 N486 0.985 . S
C500 C501 1.363 . S
C500 C506 1.379 . S
C500 N508 1.356 . S
C501 C500 1.363 . S
C501 C507 1.363 . S
C502 C503 1.363 . S
C502 C507 1.379 . S
C502 N509 1.356 . S
C503 C502 1.363 . S
C503 C506 1.363 . S
N504 C506 1.356 . S
N504 H516 0.984 . S
N504 H517 0.985 . S
N505 C507 1.356 . S
N505 H510 0.984 . S
N505 H511 0.985 . S
C506 C500 1.379 . S
C506 C503 1.363 . S
C506 N504 1.356 . S
C507 C501 1.363 . S
C507 C502 1.379 . S
C507 N505 1.356 . S
N508 C500 1.356 . S
N508 H514 0.984 . S
N508 H515 0.984 . S
N509 C502 1.356 . S
N509 H512 0.984 . S
N509 H513 0.985 . S
H510 N505 0.984 . S
H511 N505 0.985 . S
H512 N509 0.984 . S
H513 N509 0.985 . S
H514 N508 0.984 . S
H515 N508 0.984 . S
H516 N504 0.984 . S
H517 N504 0.985 . S
C518 C519 1.363 . S
C518 C524 1.379 . S
C518 N526 1.356 . S
C519 C518 1.363 . S
C519 C525 1.363 . S
C520 C521 1.363 . S
C520 C525 1.379 . S
C520 N527 1.356 . S
C521 C520 1.363 . S
C521 C524 1.363 . S
N522 C524 1.356 . S
N522 H534 0.984 1_554 S
N522 H535 0.985 . S
N523 C525 1.356 . S
N523 H528 0.984 . S
N523 H529 0.985 . S
C524 C518 1.379 . S
C524 C521 1.363 . S
C524 N522 1.356 . S
C525 C519 1.363 . S
C525 C520 1.379 . S
C525 N523 1.356 . S
N526 C518 1.356 . S
N526 H532 0.984 . S
N526 H533 0.984 . S
N527 C520 1.356 . S
N527 H530 0.984 . S
N527 H531 0.985 . S
H528 N523 0.984 . S
H529 N523 0.985 . S
H530 N527 0.984 . S
H531 N527 0.985 . S
H532 N526 0.984 . S
H533 N526 0.984 . S
H534 N522 0.984 1_556 S
H535 N522 0.985 . S
C536 C537 1.363 1_655 S
C536 C542 1.379 . S
C536 N544 1.356 . S
C537 C536 1.363 1_455 S
C537 C543 1.363 . S
C538 C539 1.363 . S
C538 C543 1.379 . S
C538 N545 1.356 . S
C539 C538 1.363 . S
C539 C542 1.363 1_455 S
N540 C542 1.356 . S
N540 H552 0.984 . S
N540 H553 0.985 . S
N541 C543 1.356 . S
N541 H546 0.984 . S
N541 H547 0.991 . S
C542 C536 1.379 . S
C542 C539 1.363 1_655 S
C542 N540 1.356 . S
C543 C537 1.363 . S
C543 C538 1.379 . S
C543 N541 1.356 . S
N544 C536 1.356 . S
N544 H550 0.984 . S
N544 H551 0.984 . S
N545 C538 1.356 . S
N545 H548 0.984 . S
N545 H549 0.985 1_556 S
H546 N541 0.984 . S
H547 N541 0.991 . S
H548 N545 0.984 . S
H549 N545 0.985 1_554 S
H550 N544 0.984 . S
H551 N544 0.984 . S
H552 N540 0.984 . S
H553 N540 0.985 . S
C554 C555 1.363 . S
C554 C560 1.379 . S
C554 N562 1.356 1_545 S
C555 C554 1.363 . S
C555 C561 1.363 . S
C556 C557 1.363 . S
C556 C561 1.379 . S
C556 N563 1.356 . S
C557 C556 1.363 . S
C557 C560 1.363 . S
N558 C560 1.356 . S
N558 H570 0.984 . S
N558 H571 0.985 . S
N559 C561 1.356 . S
N559 H564 0.984 . S
N559 H565 0.985 1_556 S
C560 C554 1.379 . S
C560 C557 1.363 . S
C560 N558 1.356 . S
C561 C555 1.363 . S
C561 C556 1.379 . S
C561 N559 1.356 . S
N562 C554 1.356 1_565 S
N562 H568 0.984 . S
N562 H569 0.984 . S
N563 C556 1.356 . S
N563 H566 0.984 . S
N563 H567 0.985 1_556 S
H564 N559 0.984 . S
H565 N559 0.985 1_554 S
H566 N563 0.984 . S
H567 N563 0.985 1_554 S
H568 N562 0.984 . S
H569 N562 0.984 . S
H570 N558 0.984 . S
H571 N558 0.985 . S
C572 C573 1.363 . S
C572 C578 1.379 . S
C572 N580 1.356 . S
C573 C572 1.363 . S
C573 C579 1.363 . S
C574 C575 1.363 . S
C574 C579 1.379 . S
C574 N581 1.356 . S
C575 C574 1.363 . S
C575 C578 1.363 . S
N576 C578 1.356 . S
N576 H588 0.984 . S
N576 H589 0.985 . S
N577 C579 1.356 . S
N577 H582 0.984 . S
N577 H583 0.985 . S
C578 C572 1.379 . S
C578 C575 1.363 . S
C578 N576 1.356 . S
C579 C573 1.363 . S
C579 C574 1.379 . S
C579 N577 1.356 . S
N580 C572 1.356 . S
N580 H586 0.984 . S
N580 H587 0.984 . S
N581 C574 1.356 . S
N581 H584 0.984 . S
N581 H585 0.985 . S
H582 N577 0.984 . S
H583 N577 0.985 . S
H584 N581 0.984 . S
H585 N581 0.985 . S
H586 N580 0.984 . S
H587 N580 0.984 . S
H588 N576 0.984 . S
H589 N576 0.985 . S
C590 C591 1.363 . S
C590 C596 1.379 . S
C590 N598 1.356 . S
C591 C590 1.363 . S
C591 C597 1.363 . S
C592 C593 1.363 . S
C592 C597 1.379 . S
C592 N599 1.356 . S
C593 C592 1.363 . S
C593 C596 1.363 . S
N594 C596 1.356 . S
N594 H606 0.984 1_556 S
N594 H607 0.985 . S
N595 C597 1.356 . S
N595 H600 0.984 . S
N595 H601 0.985 . S
C596 C590 1.379 . S
C596 C593 1.363 . S
C596 N594 1.356 . S
C597 C591 1.363 . S
C597 C592 1.379 . S
C597 N595 1.356 . S
N598 C590 1.356 . S
N598 H604 0.984 1_556 S
N598 H605 0.984 . S
N599 C592 1.356 . S
N599 H602 0.984 . S
N599 H603 0.985 . S
H600 N595 0.984 . S
H601 N595 0.985 . S
H602 N599 0.984 . S
H603 N599 0.985 . S
H604 N598 0.984 1_554 S
H605 N598 0.984 . S
H606 N594 0.984 1_554 S
H607 N594 0.985 . S
C608 C609 1.363 1_455 S
C608 C614 1.379 . S
C608 N616 1.356 . S
C609 C608 1.363 1_655 S
C609 C615 1.363 . S
C610 C611 1.363 . S
C610 C615 1.379 . S
C610 N617 1.356 . S
C611 C610 1.363 . S
C611 C614 1.363 1_655 S
N612 C614 1.356 . S
N612 H624 0.984 . S
N612 H625 0.985 . S
N613 C615 1.356 . S
N613 H618 0.984 . S
N613 H619 0.985 . S
C614 C608 1.379 . S
C614 C611 1.363 1_455 S
C614 N612 1.356 . S
C615 C609 1.363 . S
C615 C610 1.379 . S
C615 N613 1.356 . S
N616 C608 1.356 . S
N616 H622 0.984 . S
N616 H623 0.984 . S
N617 C610 1.356 . S
N617 H620 0.984 . S
N617 H621 0.985 . S
H618 N613 0.984 . S
H619 N613 0.985 . S
H620 N617 0.984 . S
H621 N617 0.985 . S
H622 N616 0.984 . S
H623 N616 0.984 . S
H624 N612 0.984 . S
H625 N612 0.985 . S
C626 C627 1.363 . S
C626 C632 1.379 . S
C626 N634 1.356 . S
C627 C626 1.363 . S
C627 C633 1.363 1_565 S
C628 C629 1.363 1_545 S
C628 C633 1.379 . S
C628 N635 1.356 . S
C629 C628 1.363 1_565 S
C629 C632 1.363 . S
N630 C632 1.356 . S
N630 H642 0.984 . S
N630 H643 0.985 . S
N631 C633 1.356 . S
N631 H636 0.984 . S
N631 H637 0.985 . S
C632 C626 1.379 . S
C632 C629 1.363 . S
C632 N630 1.356 . S
C633 C627 1.363 1_545 S
C633 C628 1.379 . S
C633 N631 1.356 . S
N634 C626 1.356 . S
N634 H640 0.984 . S
N634 H641 0.984 . S
N635 C628 1.356 . S
N635 H638 0.984 . S
N635 H639 0.985 . S
H636 N631 0.984 . S
H637 N631 0.985 . S
H638 N635 0.984 . S
H639 N635 0.985 . S
H640 N634 0.984 . S
H641 N634 0.984 . S
H642 N630 0.984 . S
H643 N630 0.985 . S
C644 C645 1.363 . S
C644 C650 1.379 . S
C644 N652 1.356 . S
C645 C644 1.363 . S
C645 C651 1.363 . S
C646 C647 1.363 . S
C646 C651 1.379 . S
C646 N653 1.356 . S
C647 C646 1.363 . S
C647 C650 1.363 . S
N648 C650 1.356 . S
N648 H660 0.984 . S
N648 H661 0.985 . S
N649 C651 1.356 . S
N649 H654 0.984 . S
N649 H655 0.985 . S
C650 C644 1.379 . S
C650 C647 1.363 . S
C650 N648 1.356 . S
C651 C645 1.363 . S
C651 C646 1.379 . S
C651 N649 1.356 . S
N652 C644 1.356 . S
N652 H658 0.984 . S
N652 H659 0.984 . S
N653 C646 1.356 . S
N653 H656 0.984 . S
N653 H657 0.985 . S
H654 N649 0.984 . S
H655 N649 0.985 . S
H656 N653 0.984 . S
H657 N653 0.985 . S
H658 N652 0.984 . S
H659 N652 0.984 . S
H660 N648 0.984 . S
H661 N648 0.985 . S
C662 C663 1.363 . S
C662 C668 1.379 . S
C662 N670 1.356 . S
C663 C662 1.363 . S
C663 C669 1.363 . S
C664 C665 1.363 . S
C664 C669 1.379 . S
C664 N671 1.356 . S
C665 C664 1.363 . S
C665 C668 1.363 . S
N666 C668 1.356 . S
N666 H678 0.984 . S
N666 H679 0.985 . S
N667 C669 1.356 . S
N667 H672 0.984 . S
N667 H673 0.985 . S
C668 C662 1.379 . S
C668 C665 1.363 . S
C668 N666 1.356 . S
C669 C663 1.363 . S
C669 C664 1.379 . S
C669 N667 1.356 . S
N670 C662 1.356 . S
N670 H676 0.984 . S
N670 H677 0.984 . S
N671 C664 1.356 . S
N671 H674 0.984 . S
N671 H675 0.985 . S
H672 N667 0.984 . S
H673 N667 0.985 . S
H674 N671 0.984 . S
H675 N671 0.985 . S
H676 N670 0.984 . S
H677 N670 0.984 . S
H678 N666 0.984 . S
H679 N666 0.985 . S
C249 C74 1.929 . S
C251 C97 2.129 1_545 S
C269 C137 2.145 . S
C267 C85 1.934 . S
C287 C177 2.152 . S
C285 C52 1.944 . S
C305 C217 2.138 1_455 S
C303 C63 1.938 . S
C323 C106 2.132 1_564 S
C321 C30 1.933 1_565 S
C339 C41 1.953 . S
C341 C146 2.148 1_554 S
C357 C8 1.962 . S
C359 C186 2.151 1_554 S
C375 C19 1.937 1_655 S
C377 C226 2.137 1_654 S
C395 C103 0.885 . S
C393 C62 0.930 1_655 S
C413 C143 0.885 . S
C411 C73 0.930 1_565 S
C431 C183 0.876 . S
C429 C84 0.916 . S
C447 C51 0.918 . S
C449 C223 0.872 . S
C465 C18 0.862 . S
C467 C94 0.888 . S
C485 C134 0.885 . S
C483 C29 0.861 . S
C503 C174 0.876 . S
C501 C40 0.860 . S
C519 C7 0.858 . S
C521 C214 0.877 . S
C537 C60 1.927 . S
C539 C107 2.569 . S
C555 C71 1.897 . S
C557 C147 2.544 . S
C575 C187 2.535 . S
C573 C82 1.862 . S
C593 C227 2.565 . S
C591 C49 1.889 . S
C609 C16 2.054 1_655 S
C611 C98 2.578 . S
C629 C138 2.545 . S
C627 C27 2.027 1_565 S
C647 C178 2.536 . S
C645 C38 2.053 . S
C663 C5 2.075 . S
C665 C218 2.567 . S
