# Generated by pormake.
# Topology pyr, (3,6)-cn, num edge types: 1
# Building blocks:
#     Node 0, Type 0, BuildingBlock: OLANEW_clean_sbu_2, # of connection points: 3
#     Node 1, Type 0, BuildingBlock: OLANEW_clean_sbu_2, # of connection points: 3
#     Node 2, Type 0, BuildingBlock: OLANEW_clean_sbu_2, # of connection points: 3
#     Node 3, Type 0, BuildingBlock: OLANEW_clean_sbu_2, # of connection points: 3
#     Node 4, Type 0, BuildingBlock: OLANEW_clean_sbu_2, # of connection points: 3
#     Node 5, Type 0, BuildingBlock: OLANEW_clean_sbu_2, # of connection points: 3
#     Node 6, Type 0, BuildingBlock: OLANEW_clean_sbu_2, # of connection points: 3
#     Node 7, Type 0, BuildingBlock: OLANEW_clean_sbu_2, # of connection points: 3
#     Node 8, Type 1, BuildingBlock: JUFBIX_clean_sbu_0, # of connection points: 6
#     Node 9, Type 1, BuildingBlock: JUFBIX_clean_sbu_0, # of connection points: 6
#     Node 10, Type 1, BuildingBlock: JUFBIX_clean_sbu_0, # of connection points: 6
#     Node 11, Type 1, BuildingBlock: JUFBIX_clean_sbu_0, # of connection points: 6
#     Edge 12, Type (0, 1), BuildingBlock: OJICUG_clean_linker_0, # of connection points: 2
#     Edge 13, Type (0, 1), BuildingBlock: OJICUG_clean_linker_0, # of connection points: 2
#     Edge 14, Type (0, 1), BuildingBlock: OJICUG_clean_linker_0, # of connection points: 2
#     Edge 15, Type (0, 1), BuildingBlock: OJICUG_clean_linker_0, # of connection points: 2
#     Edge 16, Type (0, 1), BuildingBlock: OJICUG_clean_linker_0, # of connection points: 2
#     Edge 17, Type (0, 1), BuildingBlock: OJICUG_clean_linker_0, # of connection points: 2
#     Edge 18, Type (0, 1), BuildingBlock: OJICUG_clean_linker_0, # of connection points: 2
#     Edge 19, Type (0, 1), BuildingBlock: OJICUG_clean_linker_0, # of connection points: 2
#     Edge 20, Type (0, 1), BuildingBlock: OJICUG_clean_linker_0, # of connection points: 2
#     Edge 21, Type (0, 1), BuildingBlock: OJICUG_clean_linker_0, # of connection points: 2
#     Edge 22, Type (0, 1), BuildingBlock: OJICUG_clean_linker_0, # of connection points: 2
#     Edge 23, Type (0, 1), BuildingBlock: OJICUG_clean_linker_0, # of connection points: 2
#     Edge 24, Type (0, 1), BuildingBlock: OJICUG_clean_linker_0, # of connection points: 2
#     Edge 25, Type (0, 1), BuildingBlock: OJICUG_clean_linker_0, # of connection points: 2
#     Edge 26, Type (0, 1), BuildingBlock: OJICUG_clean_linker_0, # of connection points: 2
#     Edge 27, Type (0, 1), BuildingBlock: OJICUG_clean_linker_0, # of connection points: 2
#     Edge 28, Type (0, 1), BuildingBlock: OJICUG_clean_linker_0, # of connection points: 2
#     Edge 29, Type (0, 1), BuildingBlock: OJICUG_clean_linker_0, # of connection points: 2
#     Edge 30, Type (0, 1), BuildingBlock: OJICUG_clean_linker_0, # of connection points: 2
#     Edge 31, Type (0, 1), BuildingBlock: OJICUG_clean_linker_0, # of connection points: 2
#     Edge 32, Type (0, 1), BuildingBlock: OJICUG_clean_linker_0, # of connection points: 2
#     Edge 33, Type (0, 1), BuildingBlock: OJICUG_clean_linker_0, # of connection points: 2
#     Edge 34, Type (0, 1), BuildingBlock: OJICUG_clean_linker_0, # of connection points: 2
#     Edge 35, Type (0, 1), BuildingBlock: OJICUG_clean_linker_0, # of connection points: 2
# Relax obj value: 0.163
# Max RMSD: 0.176
# Mean RMSD: 0.121
data_MOF--net-pry--node1-OLANEW_clean_sbu_2--node2-JUFBIX_clean_sbu_0--edge1-OJICUG_clean_linker_0
_symmetry_space_group_name_H-M    P1
_symmetry_Int_Tables_number       1
_symmetry_cell_setting            triclinic
loop_
_symmetry_equiv_pos_as_xyz
'x, y, z'
_cell_length_a     30.420062
_cell_length_b     27.923003
_cell_length_c     29.456919
_cell_angle_alpha  89.208592
_cell_angle_beta   89.679146
_cell_angle_gamma 95.533518
loop_
_atom_site_label
_atom_site_type_symbol
_atom_site_fract_x
_atom_site_fract_y
_atom_site_fract_z
_atom_type_partial_charge
O0 O 0.24548 0.17463 0.16442 0.0
Cd1 Cd 0.17069 0.19484 0.18885 0.0
O2 O 0.26167 0.13589 0.22739 0.0
Cd3 Cd 0.20185 0.14 0.26968 0.0
O4 O 0.15607 0.12233 0.32772 0.0
C5 C 0.17262 0.10991 0.36522 0.0
O6 O 0.21569 0.10925 0.36767 0.0
C7 C 0.27205 0.15115 0.18735 0.0
C8 C 0.13064 0.27247 0.14814 0.0
O9 O 0.15081 0.27729 0.18615 0.0
O10 O 0.13079 0.23188 0.12834 0.0
O11 O 0.49519 0.94635 0.71762 0.0
Cd12 Cd 0.50322 0.92302 0.63821 0.0
O13 O 0.43697 0.89428 0.72808 0.0
Cd14 Cd 0.41927 0.88954 0.65682 0.0
O15 O 0.35601 0.915 0.63929 0.0
C16 C 0.33232 0.91904 0.67449 0.0
O17 O 0.34736 0.90594 0.71402 0.0
C18 C 0.46611 0.92503 0.74398 0.0
C19 C 0.52145 0.82738 0.62762 0.0
O20 O 0.55298 0.86123 0.62957 0.0
O21 O 0.48183 0.83874 0.63101 0.0
O22 O 0.74363 0.45136 0.92776 0.0
Cd23 Cd 0.66716 0.44321 0.89888 0.0
O24 O 0.75892 0.37676 0.91728 0.0
Cd25 Cd 0.69125 0.35098 0.89911 0.0
O26 O 0.63549 0.29947 0.91907 0.0
C27 C 0.62847 0.29596 0.96162 0.0
O28 O 0.65255 0.32494 0.98848 0.0
C29 C 0.77065 0.41932 0.93012 0.0
C30 C 0.65022 0.46682 0.80786 0.0
O31 O 0.6607 0.49972 0.83683 0.0
O32 O 0.64945 0.42285 0.82119 0.0
O33 O 0.01439 0.71762 0.48848 0.0
Cd34 Cd 1.01213 0.63165 0.47053 0.0
O35 O 0.02556 0.70317 0.56094 0.0
Cd36 Cd 0.99882 0.6287 0.55192 0.0
O37 O 0.93359 0.59792 0.53071 0.0
C38 C 0.90398 0.5863 0.56051 0.0
O39 O 0.9148 0.58811 0.60362 0.0
C40 C 0.02334 0.73303 0.5282 0.0
C41 C 0.99941 0.60793 0.37952 0.0
O42 O 0.03838 0.61841 0.39506 0.0
O43 O 0.96662 0.60972 0.40679 0.0
O44 O 0.8916 0.88046 0.84622 0.0
Cd45 Cd 0.86261 0.82873 0.91033 0.0
O46 O 0.84455 0.93646 0.83977 0.0
Cd47 Cd 0.79993 0.92564 0.90004 0.0
O48 O 0.74825 0.94391 0.94944 0.0
C49 C 0.70809 0.94013 0.93678 0.0
O50 O 0.69897 0.92387 0.89591 0.0
C51 C 0.87829 0.91688 0.82566 0.0
C52 C 0.91327 0.75218 0.93365 0.0
O53 O 0.88604 0.74856 0.90056 0.0
O54 O 0.91734 0.79201 0.95505 0.0
O55 O 0.56944 0.02379 0.44139 0.0
Cd56 Cd 0.58569 1.01009 0.52131 0.0
O57 O 0.59152 0.09973 0.45107 0.0
Cd58 Cd 0.60432 0.17691 0.43615 0.0
O59 O 0.60581 0.25431 0.44722 0.0
C60 C 0.57079 0.26839 0.46401 0.0
O61 O 0.53681 0.23645 0.47158 0.0
C62 C 0.57759 0.06592 0.42472 0.0
C63 C 0.67692 0.01087 0.5293 0.0
O64 O 0.65271 0.9724 0.51928 0.0
O65 O 0.65786 0.04897 0.53694 0.0
O66 O 0.42536 0.75625 0.20943 0.0
Cd67 Cd 0.40589 0.67256 0.23526 0.0
O68 O 0.37349 0.75511 0.15704 0.0
Cd69 Cd 0.33544 0.68519 0.16739 0.0
O70 O 0.27372 0.64183 0.15044 0.0
C71 C 0.26459 0.63484 0.10879 0.0
O72 O 0.29355 0.65136 0.07773 0.0
C73 C 0.40648 0.77684 0.17704 0.0
C74 C 0.44721 0.64444 0.31527 0.0
O75 O 0.46672 0.64343 0.27666 0.0
O76 O 0.40879 0.65968 0.31622 0.0
O77 O 0.10192 0.56886 0.66874 0.0
Cd78 Cd 0.12642 0.58393 0.59054 0.0
O79 O 0.08866 0.4931 0.65082 0.0
Cd80 Cd 0.07432 0.41463 0.65894 0.0
O81 O 0.06231 0.33585 0.65811 0.0
C82 C 0.02821 0.31495 0.63938 0.0
O83 O 0.99927 0.34127 0.62103 0.0
C84 C 0.09015 0.52565 0.68085 0.0
C85 C 0.21384 0.56232 0.58591 0.0
O86 O 0.20455 0.60537 0.59316 0.0
O87 O 0.18181 0.52989 0.57944 0.0
Co88 Co 0.98825 0.02241 0.57409 0.0
C89 C 0.02434 0.93394 0.57207 0.0
Co90 Co 0.0495 0.01988 0.61315 0.0
C91 C 0.89569 0.02865 0.55387 0.0
C92 C 0.93258 1.00599 0.49725 0.0
N93 N 0.93701 0.02138 0.54035 0.0
N94 N 0.86573 0.01756 0.5211 0.0
C95 C 0.88884 1.00348 0.48539 0.0
H96 H 0.88737 0.03907 0.58789 0.0
H97 H 0.95918 0.99501 0.47648 0.0
C98 C 0.01423 0.10877 0.61442 0.0
N99 N 0.1006 0.01978 0.64625 0.0
C100 C 0.13713 0.9986 0.63534 0.0
C101 C 0.10878 0.03881 0.6875 0.0
N102 N 0.16772 1.0032 0.66833 0.0
C103 C 0.15003 0.02859 0.70123 0.0
C104 C 0.06461 0.04935 0.52323 0.0
O105 O 0.98396 0.08774 0.5901 0.0
O106 O 0.04545 0.08524 0.62824 0.0
O107 O 0.08325 0.04038 0.56049 0.0
O108 O 0.02265 0.04412 0.52144 0.0
O109 O 0.05329 0.95468 0.59784 0.0
H110 H 0.08589 0.05813 0.70666 0.0
H111 H 0.14055 0.97877 0.6044 0.0
O112 O 0.9931 0.95712 0.55784 0.0
O113 O 0.95443 1.00067 0.62755 0.0
O114 O 0.01592 0.99902 0.66562 0.0
C115 C 0.97405 0.9923 0.6645 0.0
H116 H 0.87489 0.99092 0.45347 0.0
H117 H 0.16565 0.03883 0.73303 0.0
Co118 Co 0.47945 0.04107 0.04442 0.0
C119 C 0.47058 0.96755 0.11065 0.0
Co120 Co 0.51808 0.05628 0.10637 0.0
C121 C 0.46566 0.01741 0.95092 0.0
C122 C 0.40538 1.00737 0.98917 0.0
N123 N 0.44831 0.02401 0.99238 0.0
N124 N 0.43569 0.99604 0.92227 0.0
C125 C 0.39752 0.99011 0.94611 0.0
H126 H 0.50038 0.02508 0.94283 0.0
H127 H 0.38195 1.00531 0.01705 0.0
C128 C 0.52754 0.12925 0.03983 0.0
N129 N 0.55 0.07277 0.15805 0.0
C130 C 0.53745 0.0667 0.20195 0.0
C131 C 0.59147 0.09456 0.15939 0.0
N132 N 0.56947 0.08394 0.23071 0.0
C133 C 0.60352 0.10146 0.2039 0.0
C134 C 0.56504 0.01094 0.04114 0.0
O135 O 0.5021 0.10037 0.01667 0.0
O136 O 0.5373 0.11728 0.08004 0.0
O137 O 0.56923 0.0297 0.08023 0.0
O138 O 0.52825 0.01134 0.02125 0.0
O139 O 0.49871 0.99491 0.13229 0.0
H140 H 0.61171 0.10463 0.12983 0.0
H141 H 0.50525 0.05031 0.21245 0.0
O142 O 0.45728 0.98161 0.07229 0.0
O143 O 0.43058 0.07107 0.06803 0.0
O144 O 0.46667 0.08267 0.13178 0.0
C145 C 0.43183 0.08632 0.10853 0.0
H146 H 0.36648 0.97295 0.93393 0.0
H147 H 0.63531 0.11719 0.21552 0.0
Co148 Co 0.59023 0.55887 0.54279 0.0
C149 C 0.5252 0.57406 0.47966 0.0
Co150 Co 0.52288 0.53596 0.56774 0.0
C151 C 0.68495 0.56053 0.53579 0.0
C152 C 0.66002 0.61418 0.49311 0.0
N153 N 0.64714 0.57813 0.52264 0.0
N154 N 0.72091 0.58426 0.51587 0.0
C155 C 0.7053 0.61793 0.48878 0.0
H156 H 0.68616 0.53116 0.55998 0.0
H157 H 0.63804 0.63714 0.4767 0.0
C158 C 0.58714 0.52138 0.63141 0.0
N159 N 0.46609 0.51654 0.58743 0.0
C160 C 0.42959 0.53959 0.58091 0.0
C161 C 0.45155 0.47467 0.60831 0.0
N162 N 0.39273 0.51359 0.59641 0.0
C163 C 0.40644 0.4727 0.61379 0.0
C164 C 0.56252 0.46368 0.52438 0.0
O165 O 0.61268 0.5412 0.60084 0.0
O166 O 0.54594 0.51475 0.6238 0.0
O167 O 0.52725 0.47452 0.54323 0.0
O168 O 0.59538 0.4954 0.52103 0.0
O169 O 0.50009 0.55719 0.51179 0.0
H170 H 0.47231 0.44693 0.61798 0.0
H171 H 0.42992 0.57406 0.56358 0.0
O172 O 0.56681 0.57675 0.48516 0.0
O173 O 0.58457 0.62204 0.56448 0.0
O174 O 0.51881 0.59784 0.59186 0.0
C175 C 0.5498 0.63122 0.58555 0.0
H176 H 0.72529 0.64474 0.46883 0.0
H177 H 0.38539 0.44337 0.62917 0.0
Co178 Co 0.03071 0.49709 0.99968 0.0
C179 C 0.94222 0.46547 1.01066 0.0
Co180 Co 1.00405 0.5155 0.06654 0.0
C181 C 0.06062 0.50394 0.90522 0.0
C182 C 0.05482 0.43195 0.93191 0.0
N183 N 0.05243 0.47813 0.94407 0.0
N184 N 0.06723 0.47549 0.86956 0.0
C185 C 0.06394 0.43027 0.88637 0.0
H186 H 0.05878 0.54237 0.90237 0.0
H187 H 0.04755 0.40088 0.95391 0.0
C188 C 0.09244 0.54819 0.05424 0.0
N189 N 0.98005 0.53355 0.12107 0.0
C190 C 0.99808 0.53785 0.16284 0.0
C191 C 0.93945 0.54853 0.12573 0.0
N192 N 0.97016 0.55484 0.19331 0.0
C193 C 0.93326 0.56148 0.16988 0.0
C194 C 0.04153 0.42919 0.0698 0.0
O195 O 0.08647 0.53037 0.01485 0.0
O196 O 0.06035 0.5456 0.08237 0.0
O197 O 0.01997 0.45669 0.0937 0.0
O198 O 0.04896 0.44005 0.02822 0.0
O199 O 0.94734 0.48528 0.04912 0.0
H200 H 0.91616 0.55113 0.09841 0.0
H201 H 0.03112 0.52901 0.17056 0.0
O202 O 0.97541 0.46436 0.98465 0.0
O203 O 1.01189 0.55495 0.9725 0.0
O204 O 0.98919 0.57428 0.0399 0.0
C205 C 0.9943 0.58439 0.99793 0.0
H206 H 0.06627 0.3981 0.86676 0.0
H207 H 0.90431 0.57626 0.18323 0.0
C208 C 0.164 0.0836 0.44682 0.0
C209 C 0.14438 0.09532 0.4055 0.0
H210 H 0.15454 0.06014 0.51591 0.0
C211 C 0.09798 0.09214 0.40325 0.0
H212 H 0.19958 0.0856 0.44994 0.0
C213 C 0.07195 0.07729 0.44137 0.0
C214 C 0.09173 0.06545 0.48262 0.0
H215 H 0.08174 0.10082 0.37199 0.0
H216 H 0.03633 0.07502 0.43846 0.0
C217 C 0.13809 0.06895 0.4848 0.0
C218 C 0.48815 0.98026 0.80828 0.0
C219 C 0.46171 0.94038 0.79159 0.0
H220 H 0.49994 0.02993 0.8626 0.0
C221 C 0.42746 0.91838 0.81923 0.0
H222 H 0.51456 0.9983 0.78775 0.0
C223 C 0.41896 0.93665 0.86189 0.0
C224 C 0.44454 0.97731 0.87813 0.0
H225 H 0.40641 0.88757 0.80754 0.0
H226 H 0.39238 0.91871 0.88219 0.0
C227 C 0.47966 0.9985 0.85112 0.0
C228 C 0.65523 0.52119 0.73898 0.0
C229 C 0.63642 0.47929 0.76136 0.0
H230 H 0.65519 0.5666 0.67947 0.0
C231 C 0.60228 0.45064 0.74 0.0
H232 H 0.68155 0.54393 0.75472 0.0
C233 C 0.5862 0.46448 0.69784 0.0
C234 C 0.60498 0.50634 0.67545 0.0
H235 H 0.58695 0.41837 0.75663 0.0
H236 H 0.55915 0.44232 0.68263 0.0
C237 C 0.6402 0.53411 0.696 0.0
C238 C 0.02816 0.59237 0.30143 0.0
C239 C 0.99234 0.59352 0.33169 0.0
H240 H 0.04925 0.57934 0.23355 0.0
C241 C 0.94947 0.58022 0.31597 0.0
H242 H 0.06165 0.60229 0.31253 0.0
C243 C 0.94245 0.56671 0.27095 0.0
C244 C 0.97809 0.56625 0.24038 0.0
H245 H 0.92116 0.58025 0.33844 0.0
H246 H 0.90897 0.55644 0.26017 0.0
C247 C 0.02111 0.57885 0.25624 0.0
C248 C 0.32037 0.13746 0.11957 0.0
C249 C 0.31453 0.13872 0.16693 0.0
H250 H 0.36148 0.11946 0.06408 0.0
C251 C 0.34875 0.12484 0.19483 0.0
H252 H 0.29473 0.14761 0.09702 0.0
C253 C 0.38734 0.10937 0.17595 0.0
C254 C 0.39246 0.10642 0.12863 0.0
H255 H 0.34551 0.12543 0.23145 0.0
H256 H 0.41262 0.09836 0.19852 0.0
C257 C 0.35862 0.12107 0.10068 0.0
C258 C 0.27205 0.95352 0.63042 0.0
C259 C 0.28968 0.94011 0.67215 0.0
H260 H 0.21933 0.98472 0.59654 0.0
C261 C 0.26657 0.94789 0.71242 0.0
H262 H 0.28917 0.9481 0.59884 0.0
C263 C 0.22685 0.96886 0.7111 0.0
C264 C 0.20913 0.98233 0.66948 0.0
H265 H 0.27919 0.93796 0.74519 0.0
H266 H 0.20967 0.97381 0.7427 0.0
C267 C 0.23204 0.97432 0.6291 0.0
C268 C 0.85037 0.40484 0.93909 0.0
C269 C 0.81459 0.43051 0.95104 0.0
H270 H 0.91907 0.39599 0.94849 0.0
C271 C 0.82056 0.46558 0.98483 0.0
H272 H 0.84668 0.37743 0.91335 0.0
C273 C 0.86148 0.47494 1.00608 0.0
C274 C 0.8976 0.45031 0.99316 0.0
H275 H 0.79344 0.48551 0.99518 0.0
H276 H 0.86525 0.50276 0.03143 0.0
C277 C 0.89166 0.41519 0.95942 0.0
C278 C 0.84402 0.59035 0.50296 0.0
C279 C 0.85693 0.57905 0.5473 0.0
H280 H 0.79035 0.60073 0.45821 0.0
C281 C 0.82412 0.56532 0.57999 0.0
H282 H 0.86843 0.60098 0.47691 0.0
C283 C 0.77941 0.56506 0.56915 0.0
C284 C 0.76658 0.57894 0.5255 0.0
H285 H 0.83294 0.55631 0.61442 0.0
H286 H 0.755 0.55622 0.59558 0.0
C287 C 0.79932 0.59056 0.49227 0.0
C288 C 0.09604 0.31255 0.08196 0.0
C289 C 0.10693 0.31207 0.1283 0.0
H290 H 0.06715 0.34983 0.02719 0.0
C291 C 0.09418 0.34938 0.15566 0.0
H292 H 0.10522 0.28437 0.05992 0.0
C293 C 0.0713 0.38631 0.13711 0.0
C294 C 0.06143 0.38741 0.09053 0.0
H295 H 0.10171 0.34995 0.19156 0.0
H296 H 0.0625 0.41478 0.15903 0.0
C297 C 0.07407 0.35003 0.06322 0.0
C298 C 0.59556 0.24944 0.02863 0.0
C299 C 0.59799 0.25635 0.98129 0.0
H300 H 0.57134 0.2041 0.0841 0.0
C301 C 0.5736 0.22318 0.9534 0.0
H302 H 0.6137 0.27437 0.05118 0.0
C303 C 0.54889 0.18282 0.97244 0.0
C304 C 0.54844 0.17475 0.01968 0.0
H305 H 0.57464 0.22758 0.91681 0.0
H306 H 0.53164 0.15701 0.95006 0.0
C307 C 0.57126 0.20905 0.04756 0.0
C308 C 1.00582 0.81659 0.50897 0.0
C309 C 0.02711 0.78522 0.53725 0.0
H310 H 0.9876 0.88812 0.49832 0.0
C311 C 0.04909 0.80363 0.57603 0.0
H312 H 0.98834 0.80338 0.47902 0.0
C313 C 0.04927 0.85231 0.58666 0.0
C314 C 0.02653 0.88323 0.55932 0.0
H315 H 0.06578 0.78029 0.59842 0.0
H316 H 0.06608 0.86541 0.61703 0.0
C317 C 1.00511 0.86501 0.52018 0.0
C318 C 0.49555 0.73981 0.62496 0.0
C319 C 0.53006 0.77682 0.62019 0.0
H320 H 0.47487 0.66492 0.61833 0.0
C321 C 0.572 0.76515 0.60647 0.0
H322 H 0.4629 0.74756 0.63571 0.0
C323 C 0.57885 0.71762 0.59617 0.0
C324 C 0.54398 0.68082 0.59988 0.0
H325 H 0.59924 0.7929 0.6025 0.0
H326 H 0.61124 0.70987 0.58459 0.0
C327 C 0.50247 0.69235 0.61513 0.0
C328 C 0.88135 0.9626 0.75097 0.0
C329 C 0.90253 0.93672 0.78441 0.0
H330 H 0.88697 0.99966 0.68639 0.0
C331 C 0.94722 0.92953 0.77791 0.0
H332 H 0.84688 0.96858 0.75481 0.0
C333 C 0.9703 0.94813 0.73931 0.0
C334 C 0.94908 0.97347 0.70558 0.0
H335 H 0.96459 0.90992 0.80298 0.0
H336 H 1.00477 0.94205 0.7356 0.0
C337 C 0.90423 0.98025 0.7117 0.0
C338 C 0.59844 0.11066 0.35217 0.0
C339 C 0.57212 0.07409 0.37542 0.0
H340 H 0.6177 0.14303 0.28802 0.0
C341 C 0.54329 0.04225 0.35044 0.0
H342 H 0.622 0.13481 0.3701 0.0
C343 C 0.54143 0.0463 0.30315 0.0
C344 C 0.56864 0.0821 0.2797 0.0
H345 H 0.52278 0.01346 0.3674 0.0
H346 H 0.51985 0.02026 0.28494 0.0
C347 C 0.59661 0.11473 0.30488 0.0
C348 C 0.44213 0.61762 0.39685 0.0
C349 C 0.46775 0.62721 0.35734 0.0
H350 H 0.43995 0.59283 0.46594 0.0
C351 C 0.5127 0.61913 0.35829 0.0
H352 H 0.40739 0.62324 0.39728 0.0
C353 C 0.5316 0.60208 0.39797 0.0
C354 C 0.50575 0.59197 0.43729 0.0
H355 H 0.53336 0.6262 0.32842 0.0
H356 H 0.56634 0.59645 0.39773 0.0
C357 C 0.46079 0.59991 0.43619 0.0
C358 C 0.10073 0.54471 0.76303 0.0
C359 C 0.08181 0.51389 0.72947 0.0
H360 H 0.111 0.55636 0.83424 0.0
C361 C 0.05596 0.47175 0.74304 0.0
H362 H 0.12062 0.57769 0.75369 0.0
C363 C 0.05109 0.45936 0.78899 0.0
C364 C 0.07122 0.48934 0.82241 0.0
H365 H 0.03894 0.4486 0.7184 0.0
H366 H 0.03112 0.4265 0.79845 0.0
C367 C 0.09533 0.53261 0.80909 0.0
C368 C 0.68033 0.97826 1.0081 0.0
C369 C 0.67197 0.95587 0.96597 0.0
H370 H 0.6533 0.01321 0.06525 0.0
C371 C 0.62816 0.94994 0.95056 0.0
H372 H 0.71367 0.98344 0.02106 0.0
C373 C 0.59391 0.96682 0.97567 0.0
C374 C 0.60212 0.99027 0.0172 0.0
H375 H 0.62018 0.93275 0.91851 0.0
H376 H 0.56083 0.96195 0.96195 0.0
C377 C 0.64574 0.99528 0.03347 0.0
C378 C 0.75201 0.04965 0.54975 0.0
C379 C 0.72557 0.01169 0.52964 0.0
H380 H 0.81795 0.08084 0.56319 0.0
C381 C 0.74608 0.97519 0.50797 0.0
H382 H 0.73708 0.07825 0.56674 0.0
C383 C 0.79201 0.97722 0.50533 0.0
C384 C 0.81846 0.01531 0.52496 0.0
H385 H 0.72666 0.94553 0.49209 0.0
H386 H 0.80694 0.9488 0.48808 0.0
C387 C 0.79814 0.05113 0.54785 0.0
C388 C 0.18661 0.60214 0.12709 0.0
C389 C 0.22094 0.61133 0.0951 0.0
H390 H 0.11914 0.57558 0.13924 0.0
C391 C 0.21267 0.59943 0.04948 0.0
H392 H 0.19177 0.61102 0.16247 0.0
C393 C 0.17102 0.57891 0.03613 0.0
C394 C 0.13656 0.57026 0.06803 0.0
H395 H 0.23838 0.60602 0.02394 0.0
H396 H 0.16579 0.57013 1.00074 0.0
C397 C 0.14486 0.58205 0.11369 0.0
C398 C 0.26932 0.50168 0.58581 0.0
C399 C 0.26006 0.55 0.58681 0.0
H400 H 0.31883 0.45225 0.58801 0.0
C401 C 0.29527 0.58621 0.59045 0.0
H402 H 0.24296 0.47291 0.58308 0.0
C403 C 0.33877 0.57429 0.5933 0.0
C404 C 0.34796 0.52593 0.59299 0.0
H405 H 0.28923 0.62378 0.59142 0.0
H406 H 0.36516 0.60291 0.59664 0.0
C407 C 0.31277 0.48978 0.58904 0.0
C408 C 0.95426 0.70883 0.99259 0.0
C409 C 0.9375 0.71083 0.94831 0.0
H410 H 0.98493 0.66728 0.0429 0.0
C411 C 0.9423 0.67199 0.91927 0.0
H412 H 0.95106 0.73799 0.01588 0.0
C413 C 0.9627 0.63172 0.93452 0.0
C414 C 0.97771 0.629 0.97946 0.0
H415 H 0.92985 0.67248 0.88491 0.0
H416 H 0.96514 0.60195 0.91174 0.0
C417 C 0.97362 0.66822 1.00811 0.0
C418 C 0.4044 0.8461 0.12254 0.0
C419 C 0.42284 0.82621 0.16135 0.0
H420 H 0.40486 0.90576 0.07635 0.0
C421 C 0.45681 0.85379 0.18414 0.0
H422 H 0.3782 0.82606 0.10402 0.0
C423 C 0.47206 0.90006 0.16822 0.0
C424 C 0.45385 0.91947 0.12902 0.0
H425 H 0.47167 0.83965 0.21419 0.0
H426 H 0.49841 0.92036 0.1863 0.0
C427 C 0.41975 0.89196 0.10655 0.0
C428 C 0.98694 0.23865 0.61178 0.0
C429 C 0.02254 0.26175 0.63591 0.0
H430 H 0.95614 0.17222 0.58622 0.0
C431 C 0.05364 0.23361 0.65528 0.0
H432 H 0.96229 0.25921 0.59655 0.0
C433 C 0.05003 0.1838 0.64947 0.0
C434 C 0.01527 0.16085 0.62408 0.0
H435 H 0.08134 0.25012 0.67428 0.0
H436 H 0.07516 0.16344 0.6641 0.0
C437 C 0.98335 0.18874 0.6059 0.0
C438 C 0.52966 0.33341 0.49621 0.0
C439 C 0.56873 0.31908 0.47734 0.0
H440 H 0.49712 0.38993 0.52571 0.0
C441 C 0.60575 0.35317 0.47286 0.0
H442 H 0.50049 0.30818 0.5001 0.0
C443 C 0.60384 0.40041 0.48768 0.0
C444 C 0.56486 0.41439 0.50722 0.0
H445 H 0.63637 0.34325 0.45845 0.0
H446 H 0.63298 0.42576 0.48424 0.0
C447 C 0.52775 0.38041 0.51097 0.0
loop_
_geom_bond_atom_site_label_1
_geom_bond_atom_site_label_2
_geom_bond_distance
_geom_bond_site_symmetry_2
_ccdc_geom_bond_type
O0 Cd1 2.300 . S
O0 C7 1.275 . S
Cd1 O0 2.300 . S
Cd1 O9 2.381 . S
Cd1 O10 2.378 . S
O2 Cd3 2.385 . S
O2 C7 1.255 . S
Cd3 O2 2.385 . S
Cd3 O4 2.317 . S
O4 Cd3 2.317 . S
O4 C5 1.232 . S
C5 O4 1.232 . S
C5 O6 1.218 . S
O6 C5 1.218 . S
C7 O0 1.275 . S
C7 O2 1.255 . S
C8 O9 1.258 . S
C8 O10 1.256 . S
O9 Cd1 2.381 . S
O9 C8 1.258 . S
O10 Cd1 2.378 . S
O10 C8 1.256 . S
O11 Cd12 2.300 . S
O11 C18 1.275 . S
Cd12 O11 2.300 . S
Cd12 O20 2.381 . S
Cd12 O21 2.378 . S
O13 Cd14 2.385 . S
O13 C18 1.255 . S
Cd14 O13 2.385 . S
Cd14 O15 2.317 . S
O15 Cd14 2.317 . S
O15 C16 1.232 . S
C16 O15 1.232 . S
C16 O17 1.218 . S
O17 C16 1.218 . S
C18 O11 1.275 . S
C18 O13 1.255 . S
C19 O20 1.258 . S
C19 O21 1.256 . S
O20 Cd12 2.381 . S
O20 C19 1.258 . S
O21 Cd12 2.378 . S
O21 C19 1.256 . S
O22 Cd23 2.300 . S
O22 C29 1.275 . S
Cd23 O22 2.300 . S
Cd23 O31 2.381 . S
Cd23 O32 2.378 . S
O24 Cd25 2.385 . S
O24 C29 1.255 . S
Cd25 O24 2.385 . S
Cd25 O26 2.317 . S
O26 Cd25 2.317 . S
O26 C27 1.232 . S
C27 O26 1.232 . S
C27 O28 1.218 . S
O28 C27 1.218 . S
C29 O22 1.275 . S
C29 O24 1.255 . S
C30 O31 1.258 . S
C30 O32 1.256 . S
O31 Cd23 2.381 . S
O31 C30 1.258 . S
O32 Cd23 2.378 . S
O32 C30 1.256 . S
O33 Cd34 2.300 . S
O33 C40 1.275 . S
Cd34 O33 2.300 . S
Cd34 O42 2.381 . S
Cd34 O43 2.378 . S
O35 Cd36 2.385 . S
O35 C40 1.255 . S
Cd36 O35 2.385 . S
Cd36 O37 2.317 . S
O37 Cd36 2.317 . S
O37 C38 1.232 . S
C38 O37 1.232 . S
C38 O39 1.218 . S
O39 C38 1.218 . S
C40 O33 1.275 . S
C40 O35 1.255 . S
C41 O42 1.258 . S
C41 O43 1.256 . S
O42 Cd34 2.381 . S
O42 C41 1.258 . S
O43 Cd34 2.378 . S
O43 C41 1.256 . S
O44 Cd45 2.300 . S
O44 C51 1.275 . S
Cd45 O44 2.300 . S
Cd45 O53 2.381 . S
Cd45 O54 2.378 1_556 S
O46 Cd47 2.385 1_565 S
O46 C51 1.255 . S
Cd47 O46 2.385 1_545 S
Cd47 O48 2.317 1_545 S
O48 Cd47 2.317 1_565 S
O48 C49 1.232 . S
C49 O48 1.232 . S
C49 O50 1.218 1_565 S
O50 C49 1.218 1_545 S
C51 O44 1.275 . S
C51 O46 1.255 . S
C52 O53 1.258 . S
C52 O54 1.256 1_556 S
O53 Cd45 2.381 . S
O53 C52 1.258 . S
O54 Cd45 2.378 1_554 S
O54 C52 1.256 1_554 S
O55 Cd56 2.300 . S
O55 C62 1.275 . S
Cd56 O55 2.300 . S
Cd56 O64 2.381 . S
Cd56 O65 2.378 . S
O57 Cd58 2.385 . S
O57 C62 1.255 . S
Cd58 O57 2.385 . S
Cd58 O59 2.317 . S
O59 Cd58 2.317 . S
O59 C60 1.232 . S
C60 O59 1.232 . S
C60 O61 1.218 . S
O61 C60 1.218 . S
C62 O55 1.275 . S
C62 O57 1.255 . S
C63 O64 1.258 . S
C63 O65 1.256 . S
O64 Cd56 2.381 . S
O64 C63 1.258 . S
O65 Cd56 2.378 . S
O65 C63 1.256 . S
O66 Cd67 2.300 . S
O66 C73 1.275 . S
Cd67 O66 2.300 . S
Cd67 O75 2.381 . S
Cd67 O76 2.378 . S
O68 Cd69 2.385 . S
O68 C73 1.255 . S
Cd69 O68 2.385 . S
Cd69 O70 2.317 . S
O70 Cd69 2.317 . S
O70 C71 1.232 . S
C71 O70 1.232 . S
C71 O72 1.218 . S
O72 C71 1.218 . S
C73 O66 1.275 . S
C73 O68 1.255 . S
C74 O75 1.258 . S
C74 O76 1.256 . S
O75 Cd67 2.381 . S
O75 C74 1.258 . S
O76 Cd67 2.378 . S
O76 C74 1.256 . S
O77 Cd78 2.300 . S
O77 C84 1.275 . S
Cd78 O77 2.300 . S
Cd78 O86 2.381 . S
Cd78 O87 2.378 . S
O79 Cd80 2.385 . S
O79 C84 1.255 . S
Cd80 O79 2.385 . S
Cd80 O81 2.317 . S
O81 Cd80 2.317 . S
O81 C82 1.232 . S
C82 O81 1.232 . S
C82 O83 1.218 . S
O83 C82 1.218 . S
C84 O77 1.275 . S
C84 O79 1.255 . S
C85 O86 1.258 . S
C85 O87 1.256 . S
O86 Cd78 2.381 . S
O86 C85 1.258 . S
O87 Cd78 2.378 . S
O87 C85 1.256 . S
Co88 N93 2.057 . S
Co88 O105 2.021 . S
Co88 O108 2.062 . S
Co88 O112 2.117 1_545 S
Co88 O113 2.020 1_545 S
C89 O109 1.259 1_655 S
C89 O112 1.258 . S
Co90 N99 2.057 . S
Co90 O106 2.117 1_565 S
Co90 O107 2.020 1_565 S
Co90 O109 2.021 . S
Co90 O114 2.062 . S
C91 N93 1.316 . S
C91 N94 1.347 . S
C91 H96 0.931 . S
C92 N93 1.375 1_565 S
C92 C95 1.350 . S
C92 H97 0.930 . S
N93 Co88 2.057 . S
N93 C91 1.316 . S
N93 C92 1.375 1_545 S
N94 C91 1.347 . S
N94 C95 1.373 1_545 S
C95 C92 1.350 . S
C95 N94 1.373 1_565 S
C95 H116 0.931 . S
H96 C91 0.931 . S
H97 C92 0.930 . S
C98 O105 1.259 1_455 S
C98 O106 1.258 . S
N99 Co90 2.057 . S
N99 C100 1.316 . S
N99 C101 1.375 1_565 S
C100 N99 1.316 . S
C100 N102 1.347 . S
C100 H111 0.931 . S
C101 N99 1.375 1_545 S
C101 C103 1.350 . S
C101 H110 0.930 . S
N102 C100 1.347 . S
N102 C103 1.373 1_565 S
C103 C101 1.350 . S
C103 N102 1.373 1_545 S
C103 H117 0.931 . S
C104 O107 1.256 . S
C104 O108 1.255 1_455 S
O105 Co88 2.021 . S
O105 C98 1.259 1_655 S
O106 Co90 2.117 1_545 S
O106 C98 1.258 . S
O107 Co90 2.020 1_545 S
O107 C104 1.256 . S
O108 Co88 2.062 . S
O108 C104 1.255 1_655 S
O109 C89 1.259 1_455 S
O109 Co90 2.021 . S
H110 C101 0.930 . S
H111 C100 0.931 . S
O112 Co88 2.117 1_565 S
O112 C89 1.258 . S
O113 Co88 2.020 1_565 S
O113 C115 1.256 . S
O114 Co90 2.062 . S
O114 C115 1.255 1_455 S
C115 O113 1.256 . S
C115 O114 1.255 1_655 S
H116 C95 0.931 . S
H117 C103 0.931 . S
Co118 N123 2.057 1_544 S
Co118 O135 2.021 1_554 S
Co118 O138 2.062 . S
Co118 O142 2.117 1_545 S
Co118 O143 2.020 . S
C119 O139 1.259 . S
C119 O142 1.258 . S
Co120 N129 2.057 . S
Co120 O136 2.117 . S
Co120 O137 2.020 . S
Co120 O139 2.021 1_545 S
Co120 O144 2.062 . S
C121 N123 1.316 . S
C121 N124 1.347 . S
C121 H126 0.931 1_565 S
C122 N123 1.375 . S
C122 C125 1.350 . S
C122 H127 0.930 . S
N123 Co118 2.057 1_566 S
N123 C121 1.316 . S
N123 C122 1.375 . S
N124 C121 1.347 . S
N124 C125 1.373 . S
C125 C122 1.350 . S
C125 N124 1.373 . S
C125 H146 0.931 . S
H126 C121 0.931 1_545 S
H127 C122 0.930 . S
C128 O135 1.259 1_554 S
C128 O136 1.258 . S
N129 Co120 2.057 . S
N129 C130 1.316 . S
N129 C131 1.375 . S
C130 N129 1.316 . S
C130 N132 1.347 . S
C130 H141 0.931 . S
C131 N129 1.375 . S
C131 C133 1.350 . S
C131 H140 0.930 . S
N132 C130 1.347 . S
N132 C133 1.373 . S
C133 C131 1.350 . S
C133 N132 1.373 . S
C133 H147 0.931 . S
C134 O137 1.256 . S
C134 O138 1.255 . S
O135 Co118 2.021 1_556 S
O135 C128 1.259 1_556 S
O136 Co120 2.117 . S
O136 C128 1.258 . S
O137 Co120 2.020 . S
O137 C134 1.256 . S
O138 Co118 2.062 . S
O138 C134 1.255 . S
O139 C119 1.259 . S
O139 Co120 2.021 1_565 S
H140 C131 0.930 . S
H141 C130 0.931 . S
O142 Co118 2.117 1_565 S
O142 C119 1.258 . S
O143 Co118 2.020 . S
O143 C145 1.256 . S
O144 Co120 2.062 . S
O144 C145 1.255 . S
C145 O143 1.256 . S
C145 O144 1.255 . S
H146 C125 0.931 . S
H147 C133 0.931 . S
Co148 N153 2.057 . S
Co148 O165 2.021 . S
Co148 O168 2.062 . S
Co148 O172 2.117 . S
Co148 O173 2.020 . S
C149 O169 1.259 . S
C149 O172 1.258 . S
Co150 N159 2.057 . S
Co150 O166 2.117 . S
Co150 O167 2.020 . S
Co150 O169 2.021 . S
Co150 O174 2.062 . S
C151 N153 1.316 . S
C151 N154 1.347 . S
C151 H156 0.931 . S
C152 N153 1.375 . S
C152 C155 1.350 . S
C152 H157 0.930 . S
N153 Co148 2.057 . S
N153 C151 1.316 . S
N153 C152 1.375 . S
N154 C151 1.347 . S
N154 C155 1.373 . S
C155 C152 1.350 . S
C155 N154 1.373 . S
C155 H176 0.931 . S
H156 C151 0.931 . S
H157 C152 0.930 . S
C158 O165 1.259 . S
C158 O166 1.258 . S
N159 Co150 2.057 . S
N159 C160 1.316 . S
N159 C161 1.375 . S
C160 N159 1.316 . S
C160 N162 1.347 . S
C160 H171 0.931 . S
C161 N159 1.375 . S
C161 C163 1.350 . S
C161 H170 0.930 . S
N162 C160 1.347 . S
N162 C163 1.373 . S
C163 C161 1.350 . S
C163 N162 1.373 . S
C163 H177 0.931 . S
C164 O167 1.256 . S
C164 O168 1.255 . S
O165 Co148 2.021 . S
O165 C158 1.259 . S
O166 Co150 2.117 . S
O166 C158 1.258 . S
O167 Co150 2.020 . S
O167 C164 1.256 . S
O168 Co148 2.062 . S
O168 C164 1.255 . S
O169 C149 1.259 . S
O169 Co150 2.021 . S
H170 C161 0.930 . S
H171 C160 0.931 . S
O172 Co148 2.117 . S
O172 C149 1.258 . S
O173 Co148 2.020 . S
O173 C175 1.256 . S
O174 Co150 2.062 . S
O174 C175 1.255 . S
C175 O173 1.256 . S
C175 O174 1.255 . S
H176 C155 0.931 . S
H177 C163 0.931 . S
Co178 N183 2.057 . S
Co178 O195 2.021 . S
Co178 O198 2.062 1_556 S
Co178 O202 2.117 1_455 S
Co178 O203 2.020 . S
C179 O199 1.259 . S
C179 O202 1.258 1_554 S
Co180 N189 2.058 . S
Co180 O196 2.117 . S
Co180 O197 2.020 . S
Co180 O199 2.021 1_455 S
Co180 O204 2.062 1_455 S
C181 N183 1.316 . S
C181 N184 1.347 . S
C181 H186 0.931 . S
C182 N183 1.375 . S
C182 C185 1.350 . S
C182 H187 0.930 1_455 S
N183 Co178 2.057 . S
N183 C181 1.316 . S
N183 C182 1.375 . S
N184 C181 1.347 . S
N184 C185 1.373 . S
C185 C182 1.350 . S
C185 N184 1.373 . S
C185 H206 0.931 . S
H186 C181 0.931 . S
H187 C182 0.930 1_655 S
C188 O195 1.259 1_554 S
C188 O196 1.258 . S
N189 Co180 2.058 . S
N189 C190 1.310 1_455 S
N189 C191 1.380 . S
C190 N189 1.310 1_655 S
C190 N192 1.347 . S
C190 H201 0.931 . S
C191 N189 1.380 . S
C191 C193 1.350 . S
C191 H200 0.930 . S
N192 C190 1.347 . S
N192 C193 1.373 1_655 S
C193 C191 1.350 . S
C193 N192 1.373 1_455 S
C193 H207 0.931 . S
C194 O197 1.256 . S
C194 O198 1.255 . S
O195 Co178 2.021 . S
O195 C188 1.259 1_556 S
O196 Co180 2.117 . S
O196 C188 1.258 . S
O197 Co180 2.020 . S
O197 C194 1.256 . S
O198 Co178 2.062 1_554 S
O198 C194 1.255 . S
O199 C179 1.259 . S
O199 Co180 2.021 1_655 S
H200 C191 0.930 . S
H201 C190 0.931 . S
O202 Co178 2.117 1_655 S
O202 C179 1.258 1_556 S
O203 Co178 2.020 . S
O203 C205 1.236 1_456 S
O204 Co180 2.062 1_655 S
O204 C205 1.276 . S
C205 O203 1.236 1_654 S
C205 O204 1.276 . S
H206 C185 0.931 . S
H207 C193 0.931 . S
C208 C209 1.387 . S
C208 H212 0.950 1_545 S
C208 C217 1.390 1_545 S
C209 C208 1.387 . S
C209 C211 1.387 . S
H210 C217 0.950 . S
C211 C209 1.387 . S
C211 C213 1.390 . S
C211 H215 0.950 . S
H212 C208 0.950 1_565 S
C213 C211 1.390 . S
C213 C214 1.387 . S
C213 H216 0.950 . S
C214 C213 1.387 . S
C214 C217 1.387 1_545 S
H215 C211 0.950 . S
H216 C213 0.950 . S
C217 C208 1.390 1_565 S
C217 H210 0.950 . S
C217 C214 1.387 1_565 S
C218 C219 1.387 . S
C218 H222 0.950 . S
C218 C227 1.390 . S
C219 C218 1.387 . S
C219 C221 1.387 . S
H220 C227 0.950 . S
C221 C219 1.387 . S
C221 C223 1.390 . S
C221 H225 0.950 . S
H222 C218 0.950 . S
C223 C221 1.390 . S
C223 C224 1.387 . S
C223 H226 0.950 . S
C224 C223 1.387 . S
C224 C227 1.387 . S
H225 C221 0.950 . S
H226 C223 0.950 . S
C227 C218 1.390 . S
C227 H220 0.950 . S
C227 C224 1.387 . S
C228 C229 1.387 . S
C228 H232 0.950 . S
C228 C237 1.390 . S
C229 C228 1.387 . S
C229 C231 1.387 . S
H230 C237 0.950 . S
C231 C229 1.387 . S
C231 C233 1.390 . S
C231 H235 0.950 . S
H232 C228 0.950 . S
C233 C231 1.390 . S
C233 C234 1.387 . S
C233 H236 0.950 . S
C234 C233 1.387 . S
C234 C237 1.387 . S
H235 C231 0.950 . S
H236 C233 0.950 . S
C237 C228 1.390 . S
C237 H230 0.950 . S
C237 C234 1.387 . S
C238 C239 1.387 1_455 S
C238 H242 0.950 . S
C238 C247 1.390 1_455 S
C239 C238 1.387 1_655 S
C239 C241 1.387 . S
H240 C247 0.949 . S
C241 C239 1.387 . S
C241 C243 1.390 . S
C241 H245 0.950 . S
H242 C238 0.950 . S
C243 C241 1.390 . S
C243 C244 1.387 . S
C243 H246 0.950 . S
C244 C243 1.387 . S
C244 C247 1.387 . S
H245 C241 0.950 . S
H246 C243 0.950 . S
C247 C238 1.390 1_655 S
C247 H240 0.949 . S
C247 C244 1.387 . S
C248 C249 1.387 . S
C248 H252 0.950 . S
C248 C257 1.390 . S
C249 C248 1.387 . S
C249 C251 1.387 . S
H250 C257 0.950 . S
C251 C249 1.387 . S
C251 C253 1.390 . S
C251 H255 0.950 . S
H252 C248 0.950 . S
C253 C251 1.390 . S
C253 C254 1.387 . S
C253 H256 0.950 . S
C254 C253 1.387 . S
C254 C257 1.387 . S
H255 C251 0.950 . S
H256 C253 0.950 . S
C257 C248 1.390 . S
C257 H250 0.950 . S
C257 C254 1.387 . S
C258 C259 1.387 . S
C258 H262 0.950 . S
C258 C267 1.390 . S
C259 C258 1.387 . S
C259 C261 1.387 . S
H260 C267 0.950 . S
C261 C259 1.387 . S
C261 C263 1.390 . S
C261 H265 0.950 . S
H262 C258 0.950 . S
C263 C261 1.390 . S
C263 C264 1.387 . S
C263 H266 0.950 . S
C264 C263 1.387 . S
C264 C267 1.387 . S
H265 C261 0.950 . S
H266 C263 0.950 . S
C267 C258 1.390 . S
C267 H260 0.950 . S
C267 C264 1.387 . S
C268 C269 1.387 . S
C268 H272 0.950 . S
C268 C277 1.390 . S
C269 C268 1.387 . S
C269 C271 1.387 . S
H270 C277 0.950 . S
C271 C269 1.387 . S
C271 C273 1.390 . S
C271 H275 0.950 . S
H272 C268 0.950 . S
C273 C271 1.390 . S
C273 C274 1.387 . S
C273 H276 0.950 1_556 S
C274 C273 1.387 . S
C274 C277 1.387 . S
H275 C271 0.950 . S
H276 C273 0.950 1_554 S
C277 C268 1.390 . S
C277 H270 0.950 . S
C277 C274 1.387 . S
C278 C279 1.387 . S
C278 H282 0.950 . S
C278 C287 1.390 . S
C279 C278 1.387 . S
C279 C281 1.387 . S
H280 C287 0.950 . S
C281 C279 1.387 . S
C281 C283 1.390 . S
C281 H285 0.950 . S
H282 C278 0.950 . S
C283 C281 1.390 . S
C283 C284 1.387 . S
C283 H286 0.950 . S
C284 C283 1.387 . S
C284 C287 1.387 . S
H285 C281 0.950 . S
H286 C283 0.950 . S
C287 C278 1.390 . S
C287 H280 0.950 . S
C287 C284 1.387 . S
C288 C289 1.387 . S
C288 H292 0.950 . S
C288 C297 1.390 . S
C289 C288 1.387 . S
C289 C291 1.387 . S
H290 C297 0.950 . S
C291 C289 1.387 . S
C291 C293 1.390 . S
C291 H295 0.950 . S
H292 C288 0.950 . S
C293 C291 1.390 . S
C293 C294 1.387 . S
C293 H296 0.950 . S
C294 C293 1.387 . S
C294 C297 1.387 . S
H295 C291 0.950 . S
H296 C293 0.950 . S
C297 C288 1.390 . S
C297 H290 0.950 . S
C297 C294 1.387 . S
C298 C299 1.387 . S
C298 H302 0.950 . S
C298 C307 1.390 . S
C299 C298 1.387 . S
C299 C301 1.387 1_554 S
H300 C307 0.950 . S
C301 C299 1.387 1_556 S
C301 C303 1.390 . S
C301 H305 0.950 . S
H302 C298 0.950 . S
C303 C301 1.390 . S
C303 C304 1.387 1_556 S
C303 H306 0.950 . S
C304 C303 1.387 1_554 S
C304 C307 1.387 . S
H305 C301 0.950 . S
H306 C303 0.950 . S
C307 C298 1.390 . S
C307 H300 0.950 . S
C307 C304 1.387 . S
C308 C309 1.387 . S
C308 H312 0.950 . S
C308 C317 1.390 . S
C309 C308 1.387 . S
C309 C311 1.387 . S
H310 C317 0.950 . S
C311 C309 1.387 . S
C311 C313 1.390 . S
C311 H315 0.950 . S
H312 C308 0.950 . S
C313 C311 1.390 . S
C313 C314 1.387 . S
C313 H316 0.950 . S
C314 C313 1.387 . S
C314 C317 1.387 . S
H315 C311 0.950 . S
H316 C313 0.950 . S
C317 C308 1.390 . S
C317 H310 0.950 . S
C317 C314 1.387 . S
C318 C319 1.387 . S
C318 H322 0.950 . S
C318 C327 1.390 . S
C319 C318 1.387 . S
C319 C321 1.387 . S
H320 C327 0.950 . S
C321 C319 1.387 . S
C321 C323 1.390 . S
C321 H325 0.950 . S
H322 C318 0.950 . S
C323 C321 1.390 . S
C323 C324 1.387 . S
C323 H326 0.950 . S
C324 C323 1.387 . S
C324 C327 1.387 . S
H325 C321 0.950 . S
H326 C323 0.950 . S
C327 C318 1.390 . S
C327 H320 0.950 . S
C327 C324 1.387 . S
C328 C329 1.387 . S
C328 H332 0.950 1_565 S
C328 C337 1.390 1_565 S
C329 C328 1.387 . S
C329 C331 1.387 . S
H330 C337 0.957 . S
C331 C329 1.387 . S
C331 C333 1.390 . S
C331 H335 0.950 . S
H332 C328 0.950 1_545 S
C333 C331 1.390 . S
C333 C334 1.387 . S
C333 H336 0.950 . S
C334 C333 1.387 . S
C334 C337 1.381 1_565 S
H335 C331 0.950 . S
H336 C333 0.950 . S
C337 C328 1.390 1_545 S
C337 H330 0.957 . S
C337 C334 1.381 1_545 S
C338 C339 1.387 . S
C338 H342 0.950 . S
C338 C347 1.390 . S
C339 C338 1.387 . S
C339 C341 1.387 . S
H340 C347 0.950 . S
C341 C339 1.387 . S
C341 C343 1.390 . S
C341 H345 0.950 . S
H342 C338 0.950 . S
C343 C341 1.390 . S
C343 C344 1.387 . S
C343 H346 0.950 . S
C344 C343 1.387 . S
C344 C347 1.387 . S
H345 C341 0.950 . S
H346 C343 0.950 . S
C347 C338 1.390 . S
C347 H340 0.950 . S
C347 C344 1.387 . S
C348 C349 1.387 . S
C348 H352 0.950 . S
C348 C357 1.390 . S
C349 C348 1.387 . S
C349 C351 1.387 . S
H350 C357 0.950 . S
C351 C349 1.387 . S
C351 C353 1.390 . S
C351 H355 0.950 . S
H352 C348 0.950 . S
C353 C351 1.390 . S
C353 C354 1.387 . S
C353 H356 0.950 . S
C354 C353 1.387 . S
C354 C357 1.387 . S
H355 C351 0.950 . S
H356 C353 0.950 . S
C357 C348 1.390 . S
C357 H350 0.950 . S
C357 C354 1.387 . S
C358 C359 1.387 . S
C358 H362 0.950 . S
C358 C367 1.390 . S
C359 C358 1.387 . S
C359 C361 1.387 . S
H360 C367 0.950 . S
C361 C359 1.387 . S
C361 C363 1.390 . S
C361 H365 0.950 . S
H362 C358 0.950 . S
C363 C361 1.390 . S
C363 C364 1.387 . S
C363 H366 0.950 . S
C364 C363 1.387 . S
C364 C367 1.387 . S
H365 C361 0.950 . S
H366 C363 0.950 . S
C367 C358 1.390 . S
C367 H360 0.950 . S
C367 C364 1.387 . S
C368 C369 1.387 1_554 S
C368 H372 0.950 . S
C368 C377 1.390 . S
C369 C368 1.387 1_556 S
C369 C371 1.387 1_565 S
H370 C377 0.950 . S
C371 C369 1.387 1_545 S
C371 C373 1.390 . S
C371 H375 0.950 . S
H372 C368 0.950 . S
C373 C371 1.390 . S
C373 C374 1.387 1_546 S
C373 H376 0.950 . S
C374 C373 1.387 1_564 S
C374 C377 1.387 . S
H375 C371 0.950 . S
H376 C373 0.950 . S
C377 C368 1.390 . S
C377 H370 0.950 . S
C377 C374 1.387 . S
C378 C379 1.387 . S
C378 H382 0.950 . S
C378 C387 1.390 . S
C379 C378 1.387 . S
C379 C381 1.387 . S
H380 C387 0.950 . S
C381 C379 1.387 . S
C381 C383 1.390 . S
C381 H385 0.950 . S
H382 C378 0.950 . S
C383 C381 1.390 . S
C383 C384 1.387 . S
C383 H386 0.950 . S
C384 C383 1.387 . S
C384 C387 1.387 . S
H385 C381 0.950 . S
H386 C383 0.950 . S
C387 C378 1.390 . S
C387 H380 0.950 . S
C387 C384 1.387 . S
C388 C389 1.387 . S
C388 H392 0.950 . S
C388 C397 1.390 . S
C389 C388 1.387 . S
C389 C391 1.387 . S
H390 C397 0.950 . S
C391 C389 1.387 . S
C391 C393 1.390 . S
C391 H395 0.950 . S
H392 C388 0.950 . S
C393 C391 1.390 . S
C393 C394 1.387 . S
C393 H396 0.950 1_554 S
C394 C393 1.387 . S
C394 C397 1.387 . S
H395 C391 0.950 . S
H396 C393 0.950 1_556 S
C397 C388 1.390 . S
C397 H390 0.950 . S
C397 C394 1.387 . S
C398 C399 1.387 . S
C398 H402 0.950 . S
C398 C407 1.390 . S
C399 C398 1.387 . S
C399 C401 1.387 . S
H400 C407 0.950 . S
C401 C399 1.387 . S
C401 C403 1.390 . S
C401 H405 0.950 . S
H402 C398 0.950 . S
C403 C401 1.390 . S
C403 C404 1.387 . S
C403 H406 0.950 . S
C404 C403 1.387 . S
C404 C407 1.387 . S
H405 C401 0.950 . S
H406 C403 0.950 . S
C407 C398 1.390 . S
C407 H400 0.950 . S
C407 C404 1.387 . S
C408 C409 1.387 1_554 S
C408 H412 0.950 . S
C408 C417 1.390 . S
C409 C408 1.387 1_556 S
C409 C411 1.387 . S
H410 C417 0.950 . S
C411 C409 1.387 . S
C411 C413 1.390 . S
C411 H415 0.950 . S
H412 C408 0.950 . S
C413 C411 1.390 . S
C413 C414 1.387 . S
C413 H416 0.950 . S
C414 C413 1.387 . S
C414 C417 1.387 1_556 S
H415 C411 0.950 . S
H416 C413 0.950 . S
C417 C408 1.390 . S
C417 H410 0.950 . S
C417 C414 1.387 1_554 S
C418 C419 1.387 . S
C418 H422 0.950 . S
C418 C427 1.390 . S
C419 C418 1.387 . S
C419 C421 1.387 . S
H420 C427 0.950 . S
C421 C419 1.387 . S
C421 C423 1.390 . S
C421 H425 0.950 . S
H422 C418 0.950 . S
C423 C421 1.390 . S
C423 C424 1.387 . S
C423 H426 0.950 . S
C424 C423 1.387 . S
C424 C427 1.387 . S
H425 C421 0.950 . S
H426 C423 0.950 . S
C427 C418 1.390 . S
C427 H420 0.950 . S
C427 C424 1.387 . S
C428 C429 1.387 . S
C428 H432 0.950 . S
C428 C437 1.390 . S
C429 C428 1.387 . S
C429 C431 1.387 . S
H430 C437 0.950 . S
C431 C429 1.387 . S
C431 C433 1.390 . S
C431 H435 0.950 . S
H432 C428 0.950 . S
C433 C431 1.390 . S
C433 C434 1.387 . S
C433 H436 0.950 . S
C434 C433 1.387 . S
C434 C437 1.387 . S
H435 C431 0.950 . S
H436 C433 0.950 . S
C437 C428 1.390 . S
C437 H430 0.950 . S
C437 C434 1.387 . S
C438 C439 1.387 . S
C438 H442 0.950 . S
C438 C447 1.390 . S
C439 C438 1.387 . S
C439 C441 1.387 . S
H440 C447 0.950 . S
C441 C439 1.387 . S
C441 C443 1.390 . S
C441 H445 0.950 . S
H442 C438 0.950 . S
C443 C441 1.390 . S
C443 C444 1.387 . S
C443 H446 0.950 . S
C444 C443 1.387 . S
C444 C447 1.387 . S
H445 C441 0.950 . S
H446 C443 0.950 . S
C447 C438 1.390 . S
C447 H440 0.950 . S
C447 C444 1.387 . S
C209 C5 2.346 . S
C214 C104 2.454 . S
C219 C18 1.113 . S
C224 N124 1.160 . S
C234 C158 1.813 . S
C229 C30 1.767 . S
C239 C41 1.303 . S
C244 N192 1.182 . S
C254 C145 2.572 . S
C249 C7 2.506 . S
C264 N102 1.295 . S
C259 C16 1.049 . S
C274 C179 2.120 1_556 S
C269 C29 1.996 . S
C284 N154 0.938 . S
C279 C38 0.929 . S
C289 C8 1.902 . S
C294 C194 1.904 . S
C304 C128 1.877 . S
C299 C27 1.558 1_554 S
C309 C40 1.417 . S
C314 C89 1.390 . S
C319 C19 1.075 . S
C324 C175 1.121 . S
C334 C115 2.241 . S
C329 C51 2.142 . S
C339 C62 1.169 . S
C344 N132 1.250 . S
C349 C74 1.844 . S
C354 C149 1.900 . S
C359 C84 1.114 . S
C364 N184 1.201 . S
C369 C49 2.426 . S
C374 C134 2.557 1_565 S
C384 N94 1.101 . S
C379 C63 1.094 . S
C394 C188 1.944 . S
C389 C71 1.621 . S
C404 N162 0.942 . S
C399 C85 0.905 . S
C409 C52 1.835 . S
C414 C205 1.835 1_556 S
C424 C119 1.940 . S
C419 C73 1.782 . S
C434 C98 1.334 . S
C429 C82 0.970 . S
C439 C60 1.252 . S
C444 C164 1.618 . S
