# Generated by pormake.
# Topology zzz, (3,6)-cn, num edge types: 1
# Building blocks:
#     Node 0, Type 0, BuildingBlock: OLANEW_clean_sbu_2, # of connection points: 3
#     Node 1, Type 0, BuildingBlock: OLANEW_clean_sbu_2, # of connection points: 3
#     Node 2, Type 0, BuildingBlock: OLANEW_clean_sbu_2, # of connection points: 3
#     Node 3, Type 0, BuildingBlock: OLANEW_clean_sbu_2, # of connection points: 3
#     Node 4, Type 0, BuildingBlock: OLANEW_clean_sbu_2, # of connection points: 3
#     Node 5, Type 0, BuildingBlock: OLANEW_clean_sbu_2, # of connection points: 3
#     Node 6, Type 0, BuildingBlock: OLANEW_clean_sbu_2, # of connection points: 3
#     Node 7, Type 0, BuildingBlock: OLANEW_clean_sbu_2, # of connection points: 3
#     Node 8, Type 1, BuildingBlock: CIFDUS_clean_sbu_1, # of connection points: 6
#     Node 9, Type 1, BuildingBlock: CIFDUS_clean_sbu_1, # of connection points: 6
#     Node 10, Type 1, BuildingBlock: CIFDUS_clean_sbu_1, # of connection points: 6
#     Node 11, Type 1, BuildingBlock: CIFDUS_clean_sbu_1, # of connection points: 6
#     Edge 12, Type (0, 1), BuildingBlock: OJICUG_clean_linker_0, # of connection points: 2
#     Edge 13, Type (0, 1), BuildingBlock: OJICUG_clean_linker_0, # of connection points: 2
#     Edge 14, Type (0, 1), BuildingBlock: OJICUG_clean_linker_0, # of connection points: 2
#     Edge 15, Type (0, 1), BuildingBlock: OJICUG_clean_linker_0, # of connection points: 2
#     Edge 16, Type (0, 1), BuildingBlock: OJICUG_clean_linker_0, # of connection points: 2
#     Edge 17, Type (0, 1), BuildingBlock: OJICUG_clean_linker_0, # of connection points: 2
#     Edge 18, Type (0, 1), BuildingBlock: OJICUG_clean_linker_0, # of connection points: 2
#     Edge 19, Type (0, 1), BuildingBlock: OJICUG_clean_linker_0, # of connection points: 2
#     Edge 20, Type (0, 1), BuildingBlock: OJICUG_clean_linker_0, # of connection points: 2
#     Edge 21, Type (0, 1), BuildingBlock: OJICUG_clean_linker_0, # of connection points: 2
#     Edge 22, Type (0, 1), BuildingBlock: OJICUG_clean_linker_0, # of connection points: 2
#     Edge 23, Type (0, 1), BuildingBlock: OJICUG_clean_linker_0, # of connection points: 2
#     Edge 24, Type (0, 1), BuildingBlock: OJICUG_clean_linker_0, # of connection points: 2
#     Edge 25, Type (0, 1), BuildingBlock: OJICUG_clean_linker_0, # of connection points: 2
#     Edge 26, Type (0, 1), BuildingBlock: OJICUG_clean_linker_0, # of connection points: 2
#     Edge 27, Type (0, 1), BuildingBlock: OJICUG_clean_linker_0, # of connection points: 2
#     Edge 28, Type (0, 1), BuildingBlock: OJICUG_clean_linker_0, # of connection points: 2
#     Edge 29, Type (0, 1), BuildingBlock: OJICUG_clean_linker_0, # of connection points: 2
#     Edge 30, Type (0, 1), BuildingBlock: OJICUG_clean_linker_0, # of connection points: 2
#     Edge 31, Type (0, 1), BuildingBlock: OJICUG_clean_linker_0, # of connection points: 2
#     Edge 32, Type (0, 1), BuildingBlock: OJICUG_clean_linker_0, # of connection points: 2
#     Edge 33, Type (0, 1), BuildingBlock: OJICUG_clean_linker_0, # of connection points: 2
#     Edge 34, Type (0, 1), BuildingBlock: OJICUG_clean_linker_0, # of connection points: 2
#     Edge 35, Type (0, 1), BuildingBlock: OJICUG_clean_linker_0, # of connection points: 2
# Relax obj value: 0.125
# Max RMSD: 0.179
# Mean RMSD: 0.110
data_MOF--net-zzz--node1-OLANEW_clean_sbu_2--node2-CIFDUS_clean_sbu_1--edge1-OJICUG_clean_linker_0
_symmetry_space_group_name_H-M    P1
_symmetry_Int_Tables_number       1
_symmetry_cell_setting            triclinic
loop_
_symmetry_equiv_pos_as_xyz
'x, y, z'
_cell_length_a     39.156264
_cell_length_b     39.16403
_cell_length_c     13.379817
_cell_angle_alpha  89.807774
_cell_angle_beta   90.08889
_cell_angle_gamma 90.09596
loop_
_atom_site_label
_atom_site_type_symbol
_atom_site_fract_x
_atom_site_fract_y
_atom_site_fract_z
_atom_type_partial_charge
O0 O 0.80541 0.60145 0.87155 0.0
Cd1 Cd 0.75046 0.63214 0.85502 0.0
O2 O 0.80186 0.59633 0.03482 0.0
Cd3 Cd 0.82454 0.58081 0.17669 0.0
O4 O 0.85413 0.55573 0.29336 0.0
C5 C 0.88601 0.56112 0.30232 0.0
O6 O 0.90109 0.58275 0.24139 0.0
C7 C 0.81812 0.5913 0.95409 0.0
C8 C 0.69243 0.59219 0.81451 0.0
O9 O 0.71207 0.60235 0.7438 0.0
O10 O 0.70051 0.60038 0.9042 0.0
O11 O 0.91713 0.80041 0.88289 0.0
Cd12 Cd 0.8813 0.74874 0.89143 0.0
O13 O 0.89179 0.82709 0.00685 0.0
Cd14 Cd 0.8937 0.86799 0.11734 0.0
O15 O 0.92466 0.89676 0.22303 0.0
C16 C 0.91972 0.92697 0.25409 0.0
O17 O 0.89288 0.94411 0.22312 0.0
C18 C 0.91468 0.82634 0.93959 0.0
C19 C 0.91983 0.68957 0.85703 0.0
O20 O 0.9058 0.70582 0.78454 0.0
O21 O 0.91533 0.70105 0.94565 0.0
O22 O 0.72106 0.9118 0.82632 0.0
Cd23 Cd 0.77543 0.88001 0.83476 0.0
O24 O 0.71415 0.90943 0.98941 0.0
Cd25 Cd 0.68225 0.9219 0.11787 0.0
O26 O 0.64936 0.94917 0.22164 0.0
C27 C 0.61952 0.9396 0.24665 0.0
O28 O 0.60707 0.911 0.21056 0.0
C29 C 0.70388 0.91924 0.90394 0.0
C30 C 0.83301 0.92271 0.82919 0.0
O31 O 0.81732 0.91607 0.91102 0.0
O32 O 0.8217 0.90898 0.74884 0.0
O33 O 0.60736 0.71671 0.81674 0.0
Cd34 Cd 0.64009 0.77056 0.81096 0.0
O35 O 0.61011 0.712 0.98049 0.0
Cd36 Cd 0.59814 0.68191 0.11334 0.0
O37 O 0.57103 0.65029 0.22129 0.0
C38 C 0.57913 0.61974 0.24309 0.0
O39 O 0.606 0.60585 0.20097 0.0
C40 C 0.60004 0.70061 0.89669 0.0
C41 C 0.59946 0.82898 0.78741 0.0
O42 O 0.60947 0.8119 0.71138 0.0
O43 O 0.60854 0.81842 0.87425 0.0
O44 O 0.21544 0.42149 0.56521 0.0
Cd45 Cd 0.27062 0.39495 0.52209 0.0
O46 O 0.19564 0.43255 0.41316 0.0
Cd47 Cd 0.22927 0.41481 0.29667 0.0
O48 O 0.19506 0.44252 0.19423 0.0
C49 C 0.16314 0.43599 0.1951 0.0
O50 O 0.15186 0.41044 0.24978 0.0
C51 C 0.19253 0.4336 0.50741 0.0
C52 C 0.32761 0.4321 0.59062 0.0
O53 O 0.31471 0.43706 0.50365 0.0
O54 O 0.31358 0.40944 0.64648 0.0
O55 O 0.10538 0.22518 0.64933 0.0
Cd56 Cd 0.1414 0.27678 0.64886 0.0
O57 O 0.13099 0.197 0.52841 0.0
Cd58 Cd 0.13224 0.15425 0.42257 0.0
O59 O 0.11445 0.11621 0.31464 0.0
C60 C 0.08302 0.10827 0.32016 0.0
O61 O 0.06438 0.12233 0.39038 0.0
C62 C 0.10774 0.19875 0.59457 0.0
C63 C 0.10438 0.33414 0.71181 0.0
O64 O 0.10803 0.32738 0.61876 0.0
O65 O 0.11855 0.31406 0.77527 0.0
O66 O 0.30033 0.10804 0.64102 0.0
Cd67 Cd 0.24759 0.14208 0.63054 0.0
O68 O 0.32646 0.1292 0.50858 0.0
Cd69 Cd 0.3676 0.12525 0.39802 0.0
O70 O 0.40441 0.10378 0.29262 0.0
C71 C 0.40956 0.07176 0.2972 0.0
O72 O 0.39352 0.05386 0.36589 0.0
C73 C 0.32593 0.10864 0.58237 0.0
C74 C 0.18999 0.10066 0.66219 0.0
O75 O 0.20323 0.10448 0.5753 0.0
O76 O 0.20356 0.11696 0.7351 0.0
O77 O 0.41202 0.29702 0.63217 0.0
Cd78 Cd 0.3791 0.24344 0.62143 0.0
O79 O 0.38857 0.3237 0.50394 0.0
Cd80 Cd 0.39078 0.36568 0.39525 0.0
O81 O 0.4123 0.40182 0.28732 0.0
C82 C 0.44442 0.4065 0.29059 0.0
O83 O 0.46224 0.39054 0.35966 0.0
C84 C 0.41008 0.3231 0.57524 0.0
C85 C 0.42124 0.18676 0.65791 0.0
O86 O 0.41833 0.20001 0.5706 0.0
O87 O 0.40371 0.19986 0.72888 0.0
O88 O 0.02736 0.0303 0.91668 0.0
Mn89 Mn 0.01209 0.01285 0.77549 0.0
O90 O 0.98974 0.07157 0.95831 0.0
Mn91 Mn 0.96576 0.07359 0.83871 0.0
O92 O 0.99666 0.99551 0.63544 0.0
O93 O 0.05911 0.99428 0.75206 0.0
Mn94 Mn 0.05737 0.95132 0.71472 0.0
O95 O 0.99543 0.96641 0.83815 0.0
O96 O 0.03128 0.9514 0.59834 0.0
O97 O 0.02843 0.05925 0.71275 0.0
O98 O 0.98734 0.09828 0.73864 0.0
O99 O 0.10274 0.96446 0.70714 0.0
O100 O 0.03726 0.92785 0.81937 0.0
C101 C 0.93253 0.03068 0.81154 0.0
C102 C 0.01546 0.05263 0.97795 0.0
C103 C 0.00636 0.97127 0.57744 0.0
C104 C 0.09131 0.99424 0.73183 0.0
C105 C 0.00806 0.93644 0.85293 0.0
C106 C 0.01596 0.08945 0.70132 0.0
O107 O 0.96504 0.03117 0.79712 0.0
O108 O 0.92036 0.05995 0.83824 0.0
O109 O 0.55654 0.99156 0.81935 0.0
Mn110 Mn 0.51093 0.0103 0.7583 0.0
O111 O 0.59372 0.03497 0.83218 0.0
Mn112 Mn 0.57313 0.05874 0.72829 0.0
O113 O 0.46506 0.02809 0.69593 0.0
O114 O 0.49299 0.9628 0.76226 0.0
Mn115 Mn 0.45056 0.95999 0.80263 0.0
O116 O 0.49108 0.01966 0.9004 0.0
O117 O 0.42632 0.98564 0.70994 0.0
O118 O 0.53133 1.00112 0.61741 0.0
O119 O 0.57678 0.03658 0.60566 0.0
O120 O 0.46615 0.91548 0.78315 0.0
O121 O 0.45127 0.97911 0.92993 0.0
C122 C 0.52841 0.09061 0.74237 0.0
C123 C 0.58541 0.00392 0.84763 0.0
C124 C 0.43502 0.01553 0.68084 0.0
C125 C 0.49483 0.93012 0.76174 0.0
C126 C 0.46867 0.0052 0.95681 0.0
C127 C 0.55761 0.0129 0.57082 0.0
O128 O 0.52918 0.05799 0.75426 0.0
O129 O 0.55839 0.1038 0.72933 0.0
O130 O 0.52717 0.55343 0.81655 0.0
Mn131 Mn 0.50798 0.50855 0.75252 0.0
O132 O 0.48402 0.59009 0.83712 0.0
Mn133 Mn 0.46062 0.5715 0.72982 0.0
O134 O 0.48991 0.46314 0.68737 0.0
O135 O 0.55557 0.49046 0.75676 0.0
Mn136 Mn 0.55751 0.44761 0.7944 0.0
O137 O 0.49805 0.48768 0.89306 0.0
O138 O 0.53226 0.42437 0.69925 0.0
O139 O 0.51746 0.53022 0.61321 0.0
O140 O 0.48348 0.57687 0.60848 0.0
O141 O 0.60233 0.46254 0.77755 0.0
O142 O 0.53787 0.44717 0.92122 0.0
C143 C 0.4277 0.52731 0.73485 0.0
C144 C 0.51515 0.58176 0.84941 0.0
C145 C 0.50241 0.43322 0.67061 0.0
C146 C 0.58838 0.49169 0.75806 0.0
C147 C 0.51195 0.46464 0.94844 0.0
C148 C 0.50645 0.55761 0.57047 0.0
O149 O 0.46029 0.52708 0.74875 0.0
O150 O 0.41529 0.55779 0.72713 0.0
O151 O 0.04288 0.50465 0.92713 0.0
Mn152 Mn 0.01244 0.5103 0.80037 0.0
O153 O 0.08588 0.54276 0.90797 0.0
Mn154 Mn 0.07212 0.56316 0.78818 0.0
O155 O 0.98302 0.51525 0.67181 0.0
O156 O 0.9972 0.46212 0.81509 0.0
Mn157 Mn 0.95282 0.45694 0.80669 0.0
O158 O 0.9701 0.52787 0.88116 0.0
O159 O 0.94236 0.47429 0.68011 0.0
O160 O 0.05405 0.49295 0.71732 0.0
O161 O 0.08625 0.53864 0.67773 0.0
O162 O 0.97198 0.4135 0.82154 0.0
O163 O 0.93502 0.48328 0.90912 0.0
C164 C 0.0246 0.59123 0.78609 0.0
C165 C 0.07176 0.51765 0.95377 0.0
C166 C 0.95678 0.49961 0.63616 0.0
C167 C 1.00079 0.42961 0.81915 0.0
C168 C 0.94258 0.51484 0.9179 0.0
C169 C 0.07897 0.50702 0.67021 0.0
O170 O 0.02761 0.55862 0.78689 0.0
O171 O 0.05359 0.607 0.78319 0.0
C172 C 0.15347 0.05257 0.60323 0.0
C173 C 0.16144 0.07631 0.67813 0.0
H174 H 0.12496 0.00812 0.5628 0.0
C175 C 0.14319 0.07505 0.76888 0.0
H176 H 0.16681 0.05285 0.53237 0.0
C177 C 0.1184 0.04963 0.78535 0.0
C178 C 0.11213 0.02487 0.71212 0.0
H179 H 0.14857 0.0932 0.82775 0.0
H180 H 0.10541 0.04835 0.85644 0.0
C181 C 0.12946 0.02695 0.62057 0.0
C182 C 0.44544 0.13959 0.76616 0.0
C183 C 0.44591 0.15875 0.67674 0.0
H184 H 0.47094 0.10168 0.8564 0.0
C185 C 0.4716 0.15225 0.60633 0.0
H186 H 0.42577 0.14384 0.82151 0.0
C187 C 0.49738 0.12877 0.62712 0.0
C188 C 0.49768 0.11055 0.71755 0.0
H189 H 0.4727 0.16636 0.53664 0.0
H190 H 0.51773 0.12546 0.57319 0.0
C191 C 0.47104 0.11534 0.786 0.0
C192 C 0.36972 0.45003 0.72434 0.0
C193 C 0.35688 0.45304 0.62609 0.0
H194 H 0.40325 0.47109 0.83656 0.0
C195 C 0.37121 0.47774 0.5623 0.0
H196 H 0.35936 0.43112 0.77519 0.0
C197 C 0.39615 0.50018 0.59726 0.0
C198 C 0.40776 0.4983 0.69635 0.0
H199 H 0.36229 0.48063 0.48608 0.0
H200 H 0.40546 0.52005 0.54767 0.0
C201 C 0.39501 0.4726 0.75935 0.0
C202 C 0.07104 0.38741 0.67569 0.0
C203 C 0.08245 0.3628 0.74479 0.0
H204 H 0.03657 0.42882 0.64694 0.0
C205 C 0.07026 0.36412 0.84359 0.0
H206 H 0.08005 0.38721 0.59919 0.0
C207 C 0.04528 0.3879 0.87054 0.0
C208 C 0.03285 0.41136 0.80007 0.0
H209 H 0.07848 0.34549 0.89857 0.0
H210 H 0.0345 0.38691 0.94503 0.0
C211 C 0.04651 0.41154 0.70325 0.0
C212 C 0.88369 0.9503 0.74422 0.0
C213 C 0.86176 0.94738 0.82734 0.0
H214 H 0.92457 0.97867 0.67487 0.0
C215 C 0.86619 0.9698 0.90792 0.0
H216 H 0.88107 0.93315 0.68134 0.0
C217 C 0.89033 0.9959 0.90305 0.0
C218 C 0.91133 0.9997 0.81887 0.0
H219 H 0.84995 0.96819 0.97325 0.0
H220 H 0.89209 0.01372 0.96466 0.0
C221 C 0.90867 0.97612 0.74055 0.0
C222 C 0.56089 0.86617 0.68359 0.0
C223 C 0.57664 0.85894 0.77594 0.0
H224 H 0.52234 0.89513 0.60641 0.0
C225 C 0.56852 0.87921 0.8591 0.0
H226 H 0.56659 0.85106 0.61809 0.0
C227 C 0.54377 0.90479 0.85151 0.0
C228 C 0.52672 0.91055 0.76082 0.0
H229 H 0.58038 0.87455 0.93104 0.0
H230 H 0.53661 0.91881 0.91793 0.0
C231 C 0.53581 0.89154 0.67645 0.0
C232 C 0.63823 0.56361 0.86982 0.0
C233 C 0.6621 0.57052 0.79391 0.0
H234 H 0.59496 0.53375 0.91566 0.0
C235 C 0.65774 0.55491 0.70012 0.0
H236 H 0.64064 0.57543 0.94257 0.0
C237 C 0.63154 0.53106 0.68503 0.0
C238 C 0.60876 0.52314 0.76247 0.0
H239 H 0.67564 0.5597 0.64005 0.0
H240 H 0.63014 0.51753 0.61464 0.0
C241 C 0.6118 0.54014 0.85413 0.0
C242 C 0.9586 0.64314 0.9189 0.0
C243 C 0.94247 0.65991 0.83858 0.0
H244 H 0.99711 0.60732 0.96421 0.0
C245 C 0.95037 0.64981 0.74039 0.0
H246 H 0.953 0.65012 -0.00461 0.0
C247 C 0.97551 0.62515 0.72293 0.0
C248 C 0.99273 0.60988 0.80329 0.0
H249 H 0.93836 0.66212 0.67686 0.0
H250 H 0.9827 0.61928 0.64673 0.0
C251 C 0.98363 0.61846 0.9013 0.0
C252 C 0.04934 0.17749 0.63584 0.0
C253 C 0.08318 0.17044 0.60867 0.0
H254 H 1.00124 0.15754 0.68319 0.0
C255 C 0.09374 0.13627 0.60222 0.0
H256 H 0.0405 0.20362 0.64129 0.0
C257 C 0.07112 0.10968 0.62523 0.0
C258 C 0.03768 0.11672 0.65705 0.0
H259 H 0.11987 0.13009 0.58359 0.0
H260 H 0.08024 0.0837 0.62173 0.0
C261 C 0.02679 0.15097 0.65917 0.0
C262 C 0.38833 0.09388 0.58418 0.0
C263 C 0.3541 0.08415 0.598 0.0
H264 H 0.44097 0.07944 0.59658 0.0
C265 C 0.3468 0.05091 0.63069 0.0
H266 H 0.39467 0.11955 0.56044 0.0
C267 C 0.37317 0.02803 0.65137 0.0
C268 C 0.40759 0.03802 0.6415 0.0
H269 H 0.32062 0.04271 0.64149 0.0
H270 H 0.36642 0.00291 0.67916 0.0
C271 C 0.41485 0.071 0.60553 0.0
C272 C 0.42355 0.38582 0.58023 0.0
C273 C 0.43422 0.3517 0.58937 0.0
H274 H 0.43713 0.4386 0.5956 0.0
C275 C 0.46815 0.34487 0.61582 0.0
H276 H 0.39735 0.39175 0.56113 0.0
C277 C 0.49082 0.37155 0.63538 0.0
C278 C 0.47994 0.40582 0.63078 0.0
H279 H 0.47709 0.3188 0.62272 0.0
H280 H 0.51654 0.36508 0.65839 0.0
C281 C 0.44624 0.41264 0.60053 0.0
C282 C 0.14908 0.44229 0.64274 0.0
C283 C 0.16194 0.45059 0.5479 0.0
H284 H 0.11149 0.45332 0.75451 0.0
C285 C 0.14521 0.47565 0.49012 0.0
H286 H 0.16127 0.4229 0.68833 0.0
C287 C 0.11712 0.49313 0.52812 0.0
C288 C 0.10458 0.48511 0.62314 0.0
H289 H 0.15455 0.4826 0.4166 0.0
H290 H 0.10561 0.51337 0.4842 0.0
C291 C 0.12039 0.45928 0.67977 0.0
C292 C 0.9289 0.88889 0.93907 0.0
C293 C 0.93938 0.85475 0.92939 0.0
H294 H 0.94273 0.94166 0.92618 0.0
C295 C 0.9735 0.84789 0.90518 0.0
H296 H 0.90255 0.89496 0.95566 0.0
C297 C 0.99648 0.87459 0.88796 0.0
C298 C 0.98573 0.90887 0.8929 0.0
H299 H 0.9823 0.82181 0.89772 0.0
H300 H 0.02229 0.86818 0.86604 0.0
C301 C 0.95189 0.91568 0.92154 0.0
C302 C 0.64726 0.93077 0.82479 0.0
C303 C 0.67226 0.93952 0.89528 0.0
H304 H 0.59961 0.94412 0.75667 0.0
C305 C 0.66723 0.96831 0.95603 0.0
H306 H 0.65061 0.90875 0.77701 0.0
C307 C 0.63806 0.98859 0.94451 0.0
C308 C 0.6131 0.97994 0.87356 0.0
H309 H 0.68646 0.97581 0.00998 0.0
H310 H 0.63538 0.01144 0.9892 0.0
C311 C 0.61783 0.95066 0.81457 0.0
C312 C 0.58843 0.64347 0.82224 0.0
C313 C 0.58 0.6687 0.89197 0.0
H314 H 0.57474 0.59574 0.75619 0.0
C315 C 0.55156 0.66371 0.95445 0.0
H316 H 0.61017 0.64678 0.77311 0.0
C317 C 0.53122 0.63442 0.94501 0.0
C318 C 0.53946 0.60934 0.87433 0.0
H319 H 0.54424 0.68312 0.00774 0.0
H320 H 0.50856 0.63182 -0.00925 0.0
C321 C 0.5685 0.614 0.81397 0.0
C322 C 0.85727 0.54493 0.01523 0.0
C323 C 0.85175 0.57406 0.95565 0.0
H324 H 0.89102 0.50364 0.05245 0.0
C325 C 0.87816 0.58565 0.89339 0.0
H326 H 0.83703 0.53484 0.06182 0.0
C327 C 0.90907 0.5679 0.88846 0.0
C328 C 0.91425 0.53804 0.94519 0.0
H329 H 0.87455 0.60791 0.84625 0.0
H330 H 0.92783 0.57611 0.83424 0.0
C331 C 0.88818 0.52705 0.0099 0.0
C332 C 0.0306 0.08545 0.23795 0.0
C333 C 0.06638 0.08779 0.24094 0.0
H334 H 0.9865 0.07204 0.15231 0.0
C335 C 0.08545 0.07305 0.16317 0.0
H336 H 0.01508 0.09605 0.29714 0.0
C337 C 0.06888 0.0586 0.08047 0.0
C338 C 0.0331 0.05928 0.07364 0.0
H339 H 0.11309 0.07404 0.164 0.0
H340 H 0.08407 0.04904 0.0193 0.0
C341 C 0.01416 0.07161 0.15494 0.0
C342 C 0.42718 0.01863 0.20824 0.0
C343 C 0.42961 0.05424 0.2189 0.0
H344 H 0.43787 0.97516 0.11732 0.0
C345 C 0.44923 0.07289 0.14965 0.0
H346 H 0.41256 0.00342 0.26073 0.0
C347 C 0.46433 0.0565 0.06804 0.0
C348 C 0.45951 0.02129 0.05317 0.0
H349 H 0.45194 0.10031 0.15655 0.0
H350 H 0.47809 0.07174 0.01377 0.0
C351 C 0.44173 0.00239 0.12595 0.0
C352 C 0.49775 0.42385 0.20124 0.0
C353 C 0.46208 0.42598 0.21082 0.0
H354 H 0.54153 0.43461 0.11091 0.0
C355 C 0.4435 0.44473 0.13933 0.0
H356 H 0.51289 0.40984 0.25532 0.0
C357 C 0.46007 0.45941 0.05704 0.0
C358 C 0.49544 0.45518 0.04405 0.0
H359 H 0.41602 0.44708 0.14509 0.0
H360 H 0.44489 0.47239 0.00086 0.0
C361 C 0.5142 0.43806 0.11841 0.0
C362 C 0.14893 0.49015 0.10428 0.0
C363 C 0.1387 0.45802 0.14013 0.0
H364 H 0.13552 0.53477 0.02134 0.0
C365 C 0.10477 0.44743 0.12432 0.0
H366 H 0.17468 0.49936 0.11676 0.0
C367 C 0.08209 0.46778 0.06921 0.0
C368 C 0.09276 0.49937 0.02962 0.0
H369 H 0.09598 0.4229 0.15185 0.0
H370 H 0.05669 0.45805 0.05422 0.0
C371 C 0.12622 0.51065 0.05038 0.0
C372 C 0.93459 0.97026 0.3859 0.0
C373 C 0.94343 0.94151 0.32892 0.0
H374 H 0.94771 0.00261 0.5092 0.0
C375 C 0.97474 0.92527 0.34752 0.0
H376 H 0.91071 0.98346 0.37278 0.0
C377 C 0.9959 0.93623 0.42477 0.0
C378 C 0.98624 0.96365 0.48613 0.0
H379 H 0.98262 0.90339 0.30392 0.0
H380 H 0.01931 0.92227 0.43843 0.0
C381 C 0.9558 0.98121 0.46403 0.0
C382 C 0.57212 0.94573 0.37195 0.0
C383 C 0.60009 0.95982 0.32032 0.0
H384 H 0.53638 0.95159 0.49199 0.0
C385 C 0.61078 0.99308 0.34358 0.0
H386 H 0.56318 0.92019 0.35522 0.0
C387 C 0.59531 0.01111 0.42073 0.0
C388 C 0.56887 0.99627 0.4772 0.0
H389 H 0.63185 0.00491 0.30401 0.0
H390 H 0.60511 0.03624 0.43864 0.0
C391 C 0.55667 0.96379 0.44998 0.0
C392 C 0.52697 0.61326 0.34773 0.0
C393 C 0.55904 0.60085 0.31868 0.0
H394 H 0.48489 0.60882 0.44766 0.0
C395 C 0.57207 0.57146 0.36579 0.0
H396 H 0.51594 0.6355 0.31182 0.0
C397 C 0.55419 0.55605 0.44467 0.0
C398 C 0.52291 0.56969 0.47717 0.0
H399 H 0.59667 0.56122 0.34456 0.0
H400 H 0.56561 0.53446 0.48284 0.0
C401 C 0.50909 0.59782 0.42563 0.0
C402 C 0.93824 0.55531 0.40982 0.0
C403 C 0.90552 0.54385 0.38243 0.0
H404 H 0.98025 0.55037 0.51153 0.0
C405 C 0.89104 0.51618 0.43427 0.0
H406 H 0.95011 0.57654 0.37103 0.0
C407 C 0.9084 0.50093 0.51374 0.0
C408 C 0.94056 0.5132 0.5441 0.0
H409 H 0.866 0.50652 0.41433 0.0
H410 H 0.89602 0.48016 0.55326 0.0
C411 C 0.95552 0.54027 0.49027 0.0
loop_
_geom_bond_atom_site_label_1
_geom_bond_atom_site_label_2
_geom_bond_distance
_geom_bond_site_symmetry_2
_ccdc_geom_bond_type
O0 Cd1 2.300 1_556 S
O0 C7 1.275 . S
Cd1 O0 2.300 1_554 S
Cd1 O9 2.381 1_554 S
Cd1 O10 2.378 . S
O2 Cd3 2.385 . S
O2 C7 1.255 1_554 S
Cd3 O2 2.385 . S
Cd3 O4 2.317 . S
O4 Cd3 2.317 . S
O4 C5 1.232 . S
C5 O4 1.232 . S
C5 O6 1.218 . S
O6 C5 1.218 . S
C7 O0 1.275 . S
C7 O2 1.255 1_556 S
C8 O9 1.258 1_554 S
C8 O10 1.256 . S
O9 Cd1 2.381 1_556 S
O9 C8 1.258 1_556 S
O10 Cd1 2.378 . S
O10 C8 1.256 . S
O11 Cd12 2.300 1_556 S
O11 C18 1.275 . S
Cd12 O11 2.300 1_554 S
Cd12 O20 2.381 1_554 S
Cd12 O21 2.378 . S
O13 Cd14 2.385 1_655 S
O13 C18 1.255 1_554 S
Cd14 O13 2.385 1_455 S
Cd14 O15 2.317 1_455 S
O15 Cd14 2.317 1_655 S
O15 C16 1.232 . S
C16 O15 1.232 . S
C16 O17 1.218 . S
O17 C16 1.218 . S
C18 O11 1.275 . S
C18 O13 1.255 1_556 S
C19 O20 1.258 1_554 S
C19 O21 1.256 . S
O20 Cd12 2.381 1_556 S
O20 C19 1.258 1_556 S
O21 Cd12 2.378 . S
O21 C19 1.256 . S
O22 Cd23 2.300 1_556 S
O22 C29 1.275 . S
Cd23 O22 2.300 1_554 S
Cd23 O31 2.381 1_554 S
Cd23 O32 2.378 . S
O24 Cd25 2.385 1_565 S
O24 C29 1.255 1_554 S
Cd25 O24 2.385 1_545 S
Cd25 O26 2.317 1_545 S
O26 Cd25 2.317 1_565 S
O26 C27 1.232 . S
C27 O26 1.232 . S
C27 O28 1.218 . S
O28 C27 1.218 . S
C29 O22 1.275 . S
C29 O24 1.255 1_556 S
C30 O31 1.258 1_554 S
C30 O32 1.256 . S
O31 Cd23 2.381 1_556 S
O31 C30 1.258 1_556 S
O32 Cd23 2.378 . S
O32 C30 1.256 . S
O33 Cd34 2.300 1_556 S
O33 C40 1.275 . S
Cd34 O33 2.300 1_554 S
Cd34 O42 2.381 1_554 S
Cd34 O43 2.378 . S
O35 Cd36 2.385 . S
O35 C40 1.255 1_554 S
Cd36 O35 2.385 . S
Cd36 O37 2.317 . S
O37 Cd36 2.317 . S
O37 C38 1.232 . S
C38 O37 1.232 . S
C38 O39 1.218 . S
O39 C38 1.218 . S
C40 O33 1.275 . S
C40 O35 1.255 1_556 S
C41 O42 1.258 1_554 S
C41 O43 1.256 . S
O42 Cd34 2.381 1_556 S
O42 C41 1.258 1_556 S
O43 Cd34 2.378 . S
O43 C41 1.256 . S
O44 Cd45 2.300 . S
O44 C51 1.275 . S
Cd45 O44 2.300 . S
Cd45 O53 2.381 . S
Cd45 O54 2.378 . S
O46 Cd47 2.385 . S
O46 C51 1.255 . S
Cd47 O46 2.385 . S
Cd47 O48 2.317 . S
O48 Cd47 2.317 . S
O48 C49 1.232 . S
C49 O48 1.232 . S
C49 O50 1.218 . S
O50 C49 1.218 . S
C51 O44 1.275 . S
C51 O46 1.255 . S
C52 O53 1.258 . S
C52 O54 1.256 . S
O53 Cd45 2.381 . S
O53 C52 1.258 . S
O54 Cd45 2.378 . S
O54 C52 1.256 . S
O55 Cd56 2.300 . S
O55 C62 1.275 . S
Cd56 O55 2.300 . S
Cd56 O64 2.381 . S
Cd56 O65 2.378 . S
O57 Cd58 2.385 . S
O57 C62 1.255 . S
Cd58 O57 2.385 . S
Cd58 O59 2.317 . S
O59 Cd58 2.317 . S
O59 C60 1.232 . S
C60 O59 1.232 . S
C60 O61 1.218 . S
O61 C60 1.218 . S
C62 O55 1.275 . S
C62 O57 1.255 . S
C63 O64 1.258 . S
C63 O65 1.256 . S
O64 Cd56 2.381 . S
O64 C63 1.258 . S
O65 Cd56 2.378 . S
O65 C63 1.256 . S
O66 Cd67 2.300 . S
O66 C73 1.275 . S
Cd67 O66 2.300 . S
Cd67 O75 2.381 . S
Cd67 O76 2.378 . S
O68 Cd69 2.385 . S
O68 C73 1.255 . S
Cd69 O68 2.385 . S
Cd69 O70 2.317 . S
O70 Cd69 2.317 . S
O70 C71 1.232 . S
C71 O70 1.232 . S
C71 O72 1.218 . S
O72 C71 1.218 . S
C73 O66 1.275 . S
C73 O68 1.255 . S
C74 O75 1.258 . S
C74 O76 1.256 . S
O75 Cd67 2.381 . S
O75 C74 1.258 . S
O76 Cd67 2.378 . S
O76 C74 1.256 . S
O77 Cd78 2.300 . S
O77 C84 1.275 . S
Cd78 O77 2.300 . S
Cd78 O86 2.381 . S
Cd78 O87 2.378 . S
O79 Cd80 2.385 . S
O79 C84 1.255 . S
Cd80 O79 2.385 . S
Cd80 O81 2.317 . S
O81 Cd80 2.317 . S
O81 C82 1.232 . S
C82 O81 1.232 . S
C82 O83 1.218 . S
O83 C82 1.218 . S
C84 O77 1.275 . S
C84 O79 1.255 . S
C85 O86 1.258 . S
C85 O87 1.256 . S
O86 Cd78 2.381 . S
O86 C85 1.258 . S
O87 Cd78 2.378 . S
O87 C85 1.256 . S
O88 Mn89 2.163 . S
O88 C102 1.244 . S
Mn89 O88 2.163 . S
Mn89 O92 2.160 1_445 S
Mn89 O93 2.221 1_545 S
Mn89 O95 2.163 1_545 S
Mn89 O97 2.160 . S
Mn89 O107 2.221 1_455 S
O90 Mn91 2.087 . S
O90 C102 1.256 1_655 S
Mn91 O90 2.087 . S
Mn91 O98 2.089 . S
Mn91 O107 2.290 . S
Mn91 O108 2.251 . S
O92 Mn89 2.160 1_665 S
O92 C103 1.239 . S
O93 Mn89 2.221 1_565 S
O93 Mn94 2.290 . S
O93 C104 1.278 . S
Mn94 O93 2.290 . S
Mn94 O96 2.089 . S
Mn94 O99 2.251 . S
Mn94 O100 2.087 . S
O95 Mn89 2.163 1_565 S
O95 C105 1.244 . S
O96 Mn94 2.089 . S
O96 C103 1.256 1_455 S
O97 Mn89 2.160 . S
O97 C106 1.239 . S
O98 Mn91 2.089 . S
O98 C106 1.256 1_655 S
O99 Mn94 2.251 . S
O99 C104 1.241 . S
O100 Mn94 2.087 . S
O100 C105 1.256 . S
C101 O107 1.278 . S
C101 O108 1.241 . S
C102 O88 1.244 . S
C102 O90 1.256 1_455 S
C103 O92 1.239 . S
C103 O96 1.256 1_655 S
C104 O93 1.278 . S
C104 O99 1.241 . S
C105 O95 1.244 . S
C105 O100 1.256 . S
C106 O97 1.239 . S
C106 O98 1.256 1_455 S
O107 Mn89 2.221 1_655 S
O107 Mn91 2.290 . S
O107 C101 1.278 . S
O108 Mn91 2.251 . S
O108 C101 1.241 . S
O109 Mn110 2.163 . S
O109 C123 1.244 . S
Mn110 O109 2.163 . S
Mn110 O113 2.160 . S
Mn110 O114 2.221 1_545 S
Mn110 O116 2.163 . S
Mn110 O118 2.160 1_545 S
Mn110 O128 2.221 . S
O111 Mn112 2.087 . S
O111 C123 1.256 . S
Mn112 O111 2.087 . S
Mn112 O119 2.089 . S
Mn112 O128 2.290 . S
Mn112 O129 2.251 . S
O113 Mn110 2.160 . S
O113 C124 1.246 . S
O114 Mn110 2.221 1_565 S
O114 Mn115 2.290 . S
O114 C125 1.278 . S
Mn115 O114 2.290 . S
Mn115 O117 2.089 . S
Mn115 O120 2.251 . S
Mn115 O121 2.087 . S
O116 Mn110 2.163 . S
O116 C126 1.244 . S
O117 Mn115 2.089 . S
O117 C124 1.240 1_565 S
O118 Mn110 2.160 1_565 S
O118 C127 1.239 . S
O119 Mn112 2.089 . S
O119 C127 1.256 1_545 S
O120 Mn115 2.251 . S
O120 C125 1.241 . S
O121 Mn115 2.087 . S
O121 C126 1.256 1_565 S
C122 O128 1.278 . S
C122 O129 1.241 . S
C123 O109 1.244 . S
C123 O111 1.256 . S
C124 O113 1.246 . S
C124 O117 1.240 1_545 S
C125 O114 1.278 . S
C125 O120 1.241 . S
C126 O116 1.244 . S
C126 O121 1.256 1_545 S
C127 O118 1.239 . S
C127 O119 1.256 1_565 S
O128 Mn110 2.221 . S
O128 Mn112 2.290 . S
O128 C122 1.278 . S
O129 Mn112 2.251 . S
O129 C122 1.241 . S
O130 Mn131 2.163 . S
O130 C144 1.244 . S
Mn131 O130 2.163 . S
Mn131 O134 2.160 . S
Mn131 O135 2.221 . S
Mn131 O137 2.163 . S
Mn131 O139 2.160 . S
Mn131 O149 2.221 . S
O132 Mn133 2.087 . S
O132 C144 1.256 . S
Mn133 O132 2.087 . S
Mn133 O140 2.089 . S
Mn133 O149 2.290 . S
Mn133 O150 2.251 . S
O134 Mn131 2.160 . S
O134 C145 1.239 . S
O135 Mn131 2.221 . S
O135 Mn136 2.290 . S
O135 C146 1.278 . S
Mn136 O135 2.290 . S
Mn136 O138 2.089 . S
Mn136 O141 2.251 . S
Mn136 O142 2.087 . S
O137 Mn131 2.163 . S
O137 C147 1.244 . S
O138 Mn136 2.089 . S
O138 C145 1.256 . S
O139 Mn131 2.160 . S
O139 C148 1.239 . S
O140 Mn133 2.089 . S
O140 C148 1.256 . S
O141 Mn136 2.251 . S
O141 C146 1.241 . S
O142 Mn136 2.087 . S
O142 C147 1.256 . S
C143 O149 1.278 . S
C143 O150 1.241 . S
C144 O130 1.244 . S
C144 O132 1.256 . S
C145 O134 1.239 . S
C145 O138 1.256 . S
C146 O135 1.278 . S
C146 O141 1.241 . S
C147 O137 1.244 . S
C147 O142 1.256 . S
C148 O139 1.239 . S
C148 O140 1.256 . S
O149 Mn131 2.221 . S
O149 Mn133 2.290 . S
O149 C143 1.278 . S
O150 Mn133 2.251 . S
O150 C143 1.241 . S
O151 Mn152 2.163 . S
O151 C165 1.244 . S
Mn152 O151 2.163 . S
Mn152 O155 2.160 1_455 S
Mn152 O156 2.221 1_455 S
Mn152 O158 2.163 1_455 S
Mn152 O160 2.160 . S
Mn152 O170 2.221 . S
O153 Mn154 2.087 . S
O153 C165 1.256 . S
Mn154 O153 2.087 . S
Mn154 O161 2.089 . S
Mn154 O170 2.290 . S
Mn154 O171 2.251 . S
O155 Mn152 2.160 1_655 S
O155 C166 1.239 . S
O156 Mn152 2.221 1_655 S
O156 Mn157 2.290 . S
O156 C167 1.278 . S
Mn157 O156 2.290 . S
Mn157 O159 2.089 . S
Mn157 O162 2.251 . S
Mn157 O163 2.087 . S
O158 Mn152 2.163 1_655 S
O158 C168 1.244 . S
O159 Mn157 2.089 . S
O159 C166 1.256 . S
O160 Mn152 2.160 . S
O160 C169 1.239 . S
O161 Mn154 2.089 . S
O161 C169 1.256 . S
O162 Mn157 2.251 . S
O162 C167 1.241 . S
O163 Mn157 2.087 . S
O163 C168 1.256 . S
C164 O170 1.278 . S
C164 O171 1.241 . S
C165 O151 1.244 . S
C165 O153 1.256 . S
C166 O155 1.239 . S
C166 O159 1.256 . S
C167 O156 1.278 . S
C167 O162 1.241 . S
C168 O158 1.244 . S
C168 O163 1.256 . S
C169 O160 1.239 . S
C169 O161 1.256 . S
O170 Mn152 2.221 . S
O170 Mn154 2.290 . S
O170 C164 1.278 . S
O171 Mn154 2.251 . S
O171 C164 1.241 . S
C172 C173 1.387 . S
C172 H176 0.932 1_545 S
C172 C181 1.401 . S
C173 C172 1.387 . S
C173 C175 1.387 . S
H174 C181 0.920 1_565 S
C175 C173 1.387 . S
C175 C177 1.390 . S
C175 H179 0.950 . S
H176 C172 0.932 1_565 S
C177 C175 1.390 . S
C177 C178 1.387 . S
C177 H180 0.950 . S
C178 C177 1.387 . S
C178 C181 1.406 . S
H179 C175 0.950 . S
H180 C177 0.950 . S
C181 C172 1.401 . S
C181 H174 0.920 1_545 S
C181 C178 1.406 . S
C182 C183 1.387 . S
C182 H186 0.950 . S
C182 C191 1.390 . S
C183 C182 1.387 . S
C183 C185 1.387 . S
H184 C191 0.950 . S
C185 C183 1.387 . S
C185 C187 1.390 . S
C185 H189 0.950 . S
H186 C182 0.950 . S
C187 C185 1.390 . S
C187 C188 1.387 . S
C187 H190 0.950 . S
C188 C187 1.387 . S
C188 C191 1.387 . S
H189 C185 0.950 . S
H190 C187 0.950 . S
C191 C182 1.390 . S
C191 H184 0.950 . S
C191 C188 1.387 . S
C192 C193 1.387 . S
C192 H196 0.950 . S
C192 C201 1.390 . S
C193 C192 1.387 . S
C193 C195 1.387 . S
H194 C201 0.950 . S
C195 C193 1.387 . S
C195 C197 1.390 . S
C195 H199 0.950 . S
H196 C192 0.950 . S
C197 C195 1.390 . S
C197 C198 1.387 . S
C197 H200 0.950 . S
C198 C197 1.387 . S
C198 C201 1.387 . S
H199 C195 0.950 . S
H200 C197 0.950 . S
C201 C192 1.390 . S
C201 H194 0.950 . S
C201 C198 1.387 . S
C202 C203 1.387 . S
C202 H206 0.950 . S
C202 C211 1.390 . S
C203 C202 1.387 . S
C203 C205 1.387 . S
H204 C211 0.950 1_655 S
C205 C203 1.387 . S
C205 C207 1.390 . S
C205 H209 0.950 . S
H206 C202 0.950 . S
C207 C205 1.390 . S
C207 C208 1.387 . S
C207 H210 0.950 . S
C208 C207 1.387 . S
C208 C211 1.387 . S
H209 C205 0.950 . S
H210 C207 0.950 . S
C211 C202 1.390 . S
C211 H204 0.950 1_455 S
C211 C208 1.387 . S
C212 C213 1.387 . S
C212 H216 0.950 . S
C212 C221 1.390 . S
C213 C212 1.387 . S
C213 C215 1.387 1_566 S
H214 C221 0.950 . S
C215 C213 1.387 1_544 S
C215 C217 1.390 1_554 S
C215 H219 0.950 . S
H216 C212 0.950 . S
C217 C215 1.390 1_556 S
C217 C218 1.387 1_545 S
C217 H220 0.950 . S
C218 C217 1.387 1_565 S
C218 C221 1.387 . S
H219 C215 0.950 . S
H220 C217 0.950 . S
C221 C212 1.390 . S
C221 H214 0.950 . S
C221 C218 1.387 . S
C222 C223 1.387 . S
C222 H226 0.950 . S
C222 C231 1.390 . S
C223 C222 1.387 . S
C223 C225 1.387 . S
H224 C231 0.950 . S
C225 C223 1.387 . S
C225 C227 1.390 . S
C225 H229 0.950 1_556 S
H226 C222 0.950 . S
C227 C225 1.390 . S
C227 C228 1.387 . S
C227 H230 0.950 . S
C228 C227 1.387 . S
C228 C231 1.387 . S
H229 C225 0.950 1_554 S
H230 C227 0.950 . S
C231 C222 1.390 . S
C231 H224 0.950 . S
C231 C228 1.387 . S
C232 C233 1.389 . S
C232 H236 0.944 1_556 S
C232 C241 1.394 . S
C233 C232 1.389 . S
C233 C235 1.387 . S
H234 C241 0.950 . S
C235 C233 1.387 . S
C235 C237 1.390 . S
C235 H239 0.950 . S
H236 C232 0.944 1_554 S
C237 C235 1.390 . S
C237 C238 1.387 . S
C237 H240 0.950 . S
C238 C237 1.387 . S
C238 C241 1.387 . S
H239 C235 0.950 . S
H240 C237 0.950 . S
C241 C232 1.394 . S
C241 H234 0.950 . S
C241 C238 1.387 . S
C242 C243 1.387 1_554 S
C242 H246 0.950 . S
C242 C251 1.390 1_554 S
C243 C242 1.387 1_556 S
C243 C245 1.387 . S
H244 C251 0.950 . S
C245 C243 1.387 . S
C245 C247 1.390 1_655 S
C245 H249 0.949 1_655 S
H246 C242 0.950 . S
C247 C245 1.390 1_455 S
C247 C248 1.387 1_455 S
C247 H250 0.950 . S
C248 C247 1.387 1_655 S
C248 C251 1.387 . S
H249 C245 0.949 1_455 S
H250 C247 0.950 . S
C251 C242 1.390 1_556 S
C251 H244 0.950 . S
C251 C248 1.387 . S
C252 C253 1.387 . S
C252 H256 0.950 . S
C252 C261 1.390 1_455 S
C253 C252 1.387 . S
C253 C255 1.387 . S
H254 C261 0.950 . S
C255 C253 1.387 . S
C255 C257 1.390 . S
C255 H259 0.950 . S
H256 C252 0.950 . S
C257 C255 1.390 . S
C257 C258 1.387 . S
C257 H260 0.950 . S
C258 C257 1.387 . S
C258 C261 1.387 1_455 S
H259 C255 0.950 . S
H260 C257 0.950 . S
C261 C252 1.390 1_655 S
C261 H254 0.950 . S
C261 C258 1.387 1_655 S
C262 C263 1.387 . S
C262 H266 0.950 . S
C262 C271 1.390 . S
C263 C262 1.387 . S
C263 C265 1.387 . S
H264 C271 0.950 . S
C265 C263 1.387 . S
C265 C267 1.390 . S
C265 H269 0.950 . S
H266 C262 0.950 . S
C267 C265 1.390 . S
C267 C268 1.387 . S
C267 H270 0.950 1_545 S
C268 C267 1.387 . S
C268 C271 1.387 . S
H269 C265 0.950 . S
H270 C267 0.950 1_565 S
C271 C262 1.390 . S
C271 H264 0.950 . S
C271 C268 1.387 . S
C272 C273 1.387 . S
C272 H276 0.950 . S
C272 C281 1.390 . S
C273 C272 1.387 . S
C273 C275 1.387 . S
H274 C281 0.950 . S
C275 C273 1.387 . S
C275 C277 1.390 . S
C275 H279 0.950 . S
H276 C272 0.950 . S
C277 C275 1.390 . S
C277 C278 1.387 . S
C277 H280 0.950 . S
C278 C277 1.387 . S
C278 C281 1.387 . S
H279 C275 0.950 . S
H280 C277 0.950 . S
C281 C272 1.390 . S
C281 H274 0.950 . S
C281 C278 1.387 . S
C282 C283 1.387 . S
C282 H286 0.950 . S
C282 C291 1.390 . S
C283 C282 1.387 . S
C283 C285 1.387 . S
H284 C291 0.950 . S
C285 C283 1.387 . S
C285 C287 1.390 . S
C285 H289 0.950 . S
H286 C282 0.950 . S
C287 C285 1.390 . S
C287 C288 1.387 . S
C287 H290 0.950 . S
C288 C287 1.387 . S
C288 C291 1.387 . S
H289 C285 0.950 . S
H290 C287 0.950 . S
C291 C282 1.390 . S
C291 H284 0.950 . S
C291 C288 1.387 . S
C292 C293 1.387 1_554 S
C292 H296 0.950 . S
C292 C301 1.390 1_655 S
C293 C292 1.387 1_556 S
C293 C295 1.387 . S
H294 C301 0.950 . S
C295 C293 1.387 . S
C295 C297 1.390 . S
C295 H299 0.950 . S
H296 C292 0.950 . S
C297 C295 1.390 . S
C297 C298 1.387 1_655 S
C297 H300 0.950 . S
C298 C297 1.387 1_455 S
C298 C301 1.387 1_556 S
H299 C295 0.950 . S
H300 C297 0.950 . S
C301 C292 1.390 1_455 S
C301 H294 0.950 . S
C301 C298 1.387 1_554 S
C302 C303 1.387 . S
C302 H306 0.950 . S
C302 C311 1.390 . S
C303 C302 1.387 . S
C303 C305 1.387 1_556 S
H304 C311 0.950 . S
C305 C303 1.387 1_554 S
C305 C307 1.390 1_564 S
C305 H309 0.950 1_565 S
H306 C302 0.950 . S
C307 C305 1.390 1_546 S
C307 C308 1.387 . S
C307 H310 0.950 1_556 S
C308 C307 1.387 . S
C308 C311 1.387 1_545 S
H309 C305 0.950 1_545 S
H310 C307 0.950 1_554 S
C311 C302 1.390 . S
C311 H304 0.950 . S
C311 C308 1.387 1_565 S
C312 C313 1.387 . S
C312 H316 0.950 . S
C312 C321 1.390 . S
C313 C312 1.387 . S
C313 C315 1.387 1_556 S
H314 C321 0.950 . S
C315 C313 1.387 1_554 S
C315 C317 1.390 . S
C315 H319 0.950 . S
H316 C312 0.950 . S
C317 C315 1.390 . S
C317 C318 1.387 1_554 S
C317 H320 0.950 . S
C318 C317 1.387 1_556 S
C318 C321 1.387 . S
H319 C315 0.950 . S
H320 C317 0.950 . S
C321 C312 1.390 . S
C321 H314 0.950 . S
C321 C318 1.387 . S
C322 C323 1.387 1_554 S
C322 H326 0.950 . S
C322 C331 1.390 . S
C323 C322 1.387 1_556 S
C323 C325 1.387 . S
H324 C331 0.950 . S
C325 C323 1.387 . S
C325 C327 1.390 . S
C325 H329 0.950 . S
H326 C322 0.950 . S
C327 C325 1.390 . S
C327 C328 1.387 . S
C327 H330 0.950 . S
C328 C327 1.387 . S
C328 C331 1.387 1_556 S
H329 C325 0.950 . S
H330 C327 0.950 . S
C331 C322 1.390 . S
C331 H324 0.950 . S
C331 C328 1.387 1_554 S
C332 C333 1.387 . S
C332 H336 0.950 . S
C332 C341 1.390 . S
C333 C332 1.387 . S
C333 C335 1.387 . S
H334 C341 0.950 . S
C335 C333 1.387 . S
C335 C337 1.390 1_554 S
C335 H339 0.950 . S
H336 C332 0.950 . S
C337 C335 1.390 1_556 S
C337 C338 1.387 1_556 S
C337 H340 0.950 . S
C338 C337 1.387 1_554 S
C338 C341 1.387 . S
H339 C335 0.950 . S
H340 C337 0.950 . S
C341 C332 1.390 . S
C341 H334 0.950 . S
C341 C338 1.387 . S
C342 C343 1.387 . S
C342 H346 0.950 . S
C342 C351 1.390 . S
C343 C342 1.387 . S
C343 C345 1.387 . S
H344 C351 0.950 1_565 S
C345 C343 1.387 . S
C345 C347 1.390 1_554 S
C345 H349 0.950 . S
H346 C342 0.950 . S
C347 C345 1.390 1_556 S
C347 C348 1.387 1_556 S
C347 H350 0.950 . S
C348 C347 1.387 1_554 S
C348 C351 1.387 . S
H349 C345 0.950 . S
H350 C347 0.950 . S
C351 C342 1.390 . S
C351 H344 0.950 1_545 S
C351 C348 1.387 . S
C352 C353 1.387 . S
C352 H356 0.950 . S
C352 C361 1.390 . S
C353 C352 1.387 . S
C353 C355 1.387 . S
H354 C361 0.950 . S
C355 C353 1.387 . S
C355 C357 1.390 . S
C355 H359 0.950 . S
H356 C352 0.950 . S
C357 C355 1.390 . S
C357 C358 1.387 . S
C357 H360 0.950 1_554 S
C358 C357 1.387 . S
C358 C361 1.387 . S
H359 C355 0.950 . S
H360 C357 0.950 1_556 S
C361 C352 1.390 . S
C361 H354 0.950 . S
C361 C358 1.387 . S
C362 C363 1.387 . S
C362 H366 0.950 . S
C362 C371 1.390 1_554 S
C363 C362 1.387 . S
C363 C365 1.387 . S
H364 C371 0.950 . S
C365 C363 1.387 . S
C365 C367 1.390 . S
C365 H369 0.950 . S
H366 C362 0.950 . S
C367 C365 1.390 . S
C367 C368 1.387 . S
C367 H370 0.950 . S
C368 C367 1.387 . S
C368 C371 1.387 1_554 S
H369 C365 0.950 . S
H370 C367 0.950 . S
C371 C362 1.390 1_556 S
C371 H364 0.950 . S
C371 C368 1.387 1_556 S
C372 C373 1.387 . S
C372 H376 0.950 . S
C372 C381 1.390 . S
C373 C372 1.387 . S
C373 C375 1.393 . S
H374 C381 0.950 . S
C375 C373 1.393 . S
C375 C377 1.389 1_655 S
C375 H379 0.945 1_655 S
H376 C372 0.950 . S
C377 C375 1.389 1_455 S
C377 C378 1.387 1_455 S
C377 H380 0.950 . S
C378 C377 1.387 1_655 S
C378 C381 1.387 . S
H379 C375 0.945 1_455 S
H380 C377 0.950 . S
C381 C372 1.390 . S
C381 H374 0.950 . S
C381 C378 1.387 . S
C382 C383 1.387 . S
C382 H386 0.950 . S
C382 C391 1.390 . S
C383 C382 1.387 . S
C383 C385 1.387 1_565 S
H384 C391 0.950 . S
C385 C383 1.387 1_545 S
C385 C387 1.390 . S
C385 H389 0.950 . S
H386 C382 0.950 . S
C387 C385 1.390 . S
C387 C388 1.387 1_545 S
C387 H390 0.950 . S
C388 C387 1.387 1_565 S
C388 C391 1.387 . S
H389 C385 0.950 . S
H390 C387 0.950 . S
C391 C382 1.390 . S
C391 H384 0.950 . S
C391 C388 1.387 . S
C392 C393 1.387 . S
C392 H396 0.950 . S
C392 C401 1.390 . S
C393 C392 1.387 . S
C393 C395 1.387 . S
H394 C401 0.950 . S
C395 C393 1.387 . S
C395 C397 1.390 . S
C395 H399 0.950 . S
H396 C392 0.950 . S
C397 C395 1.390 . S
C397 C398 1.387 . S
C397 H400 0.950 . S
C398 C397 1.387 . S
C398 C401 1.387 . S
H399 C395 0.950 . S
H400 C397 0.950 . S
C401 C392 1.390 . S
C401 H394 0.950 . S
C401 C398 1.387 . S
C402 C403 1.387 . S
C402 H406 0.950 . S
C402 C411 1.390 . S
C403 C402 1.387 . S
C403 C405 1.387 . S
H404 C411 0.950 . S
C405 C403 1.387 . S
C405 C407 1.390 . S
C405 H409 0.950 . S
H406 C402 0.950 . S
C407 C405 1.390 . S
C407 C408 1.387 . S
C407 H410 0.950 . S
C408 C407 1.387 . S
C408 C411 1.387 . S
H409 C405 0.950 . S
H410 C407 0.950 . S
C411 C402 1.390 . S
C411 H404 0.950 . S
C411 C408 1.387 . S
C173 C74 1.641 . S
C178 C104 1.506 1_545 S
C188 C122 1.509 . S
C183 C85 1.641 . S
C198 C143 1.506 . S
C193 C52 1.639 . S
C208 C167 1.506 1_455 S
C203 C63 1.641 . S
C218 C101 1.393 1_565 S
C213 C30 1.471 1_556 S
C223 C41 1.470 1_556 S
C228 C125 1.392 . S
C233 C8 1.469 1_556 S
C238 C146 1.393 . S
C243 C19 1.469 1_556 S
C248 C164 1.396 1_655 S
C258 C106 0.978 . S
C253 C62 1.011 . S
C268 C124 0.987 . S
C263 C73 1.011 . S
C278 C145 0.976 . S
C273 C84 1.011 . S
C283 C51 1.011 . S
C288 C169 0.975 . S
C293 C18 1.004 . S
C298 C105 1.057 . S
C308 C123 1.058 . S
C303 C29 0.998 . S
C318 C144 1.058 . S
C313 C40 0.997 . S
C323 C7 1.003 . S
C328 C168 1.056 . S
C333 C60 1.422 . S
C338 C102 1.571 1_554 S
C343 C71 1.422 . S
C348 C126 1.572 1_554 S
C358 C147 1.572 1_554 S
C353 C82 1.423 . S
C368 C165 1.573 1_554 S
C363 C49 1.425 . S
C373 C16 1.194 . S
C378 C103 1.450 . S
C388 C127 1.449 . S
C383 C27 1.196 . S
C398 C148 1.452 . S
C393 C38 1.200 . S
C403 C5 1.196 . S
C408 C166 1.449 . S
