# Generated by pormake.
# Topology rtl, (3,6)-cn, num edge types: 1
# Building blocks:
#     Node 0, Type 0, BuildingBlock: WUSLED_clean_sbu_0, # of connection points: 3
#     Node 1, Type 0, BuildingBlock: WUSLED_clean_sbu_0, # of connection points: 3
#     Node 2, Type 0, BuildingBlock: WUSLED_clean_sbu_0, # of connection points: 3
#     Node 3, Type 0, BuildingBlock: WUSLED_clean_sbu_0, # of connection points: 3
#     Node 4, Type 1, BuildingBlock: LEVNOQ01_clean_sbu_1, # of connection points: 6
#     Node 5, Type 1, BuildingBlock: LEVNOQ01_clean_sbu_1, # of connection points: 6
#     Edge 6, Type (0, 1), BuildingBlock: FUNLAD_clean_linker_0, # of connection points: 2
#     Edge 7, Type (0, 1), BuildingBlock: FUNLAD_clean_linker_0, # of connection points: 2
#     Edge 8, Type (0, 1), BuildingBlock: FUNLAD_clean_linker_0, # of connection points: 2
#     Edge 9, Type (0, 1), BuildingBlock: FUNLAD_clean_linker_0, # of connection points: 2
#     Edge 10, Type (0, 1), BuildingBlock: FUNLAD_clean_linker_0, # of connection points: 2
#     Edge 11, Type (0, 1), BuildingBlock: FUNLAD_clean_linker_0, # of connection points: 2
#     Edge 12, Type (0, 1), BuildingBlock: FUNLAD_clean_linker_0, # of connection points: 2
#     Edge 13, Type (0, 1), BuildingBlock: FUNLAD_clean_linker_0, # of connection points: 2
#     Edge 14, Type (0, 1), BuildingBlock: FUNLAD_clean_linker_0, # of connection points: 2
#     Edge 15, Type (0, 1), BuildingBlock: FUNLAD_clean_linker_0, # of connection points: 2
#     Edge 16, Type (0, 1), BuildingBlock: FUNLAD_clean_linker_0, # of connection points: 2
#     Edge 17, Type (0, 1), BuildingBlock: FUNLAD_clean_linker_0, # of connection points: 2
# Relax obj value: 0.023
# Max RMSD: 0.059
# Mean RMSD: 0.042
data_MOF--net-rtl--node1-WUSLED_clean_sbu_0--node2-LEVNOQ01_clean_sbu_1--edge1-FUNLAD_clean_linker_0
_symmetry_space_group_name_H-M    P1
_symmetry_Int_Tables_number       1
_symmetry_cell_setting            triclinic
loop_
_symmetry_equiv_pos_as_xyz
'x, y, z'
_cell_length_a     45.034658
_cell_length_b     50.738711
_cell_length_c     35.219282
_cell_angle_alpha  90.330189
_cell_angle_beta   98.614798
_cell_angle_gamma 90.010336
loop_
_atom_site_label
_atom_site_type_symbol
_atom_site_fract_x
_atom_site_fract_y
_atom_site_fract_z
_atom_type_partial_charge
C0 C 0.22085 0.88388 0.19403 0.0
C1 C 0.19796 0.90224 0.18297 0.0
C2 C 0.19556 0.91254 0.25015 0.0
C3 C 0.18543 0.91647 0.21079 0.0
C4 C 0.21922 0.89471 0.26095 0.0
C5 C 0.2317 0.88047 0.23309 0.0
U6 U 0.2212 0.86308 0.0901 0.0
O7 O 0.2585 0.85014 0.06048 0.0
O8 O 0.22057 0.82358 0.06427 0.0
C9 C 0.24725 0.82634 0.05396 0.0
C10 C 0.23231 0.86718 0.16525 0.0
C11 C 0.26796 0.80425 0.06404 0.0
C12 C 0.29505 0.77458 0.11104 0.0
C13 C 0.27754 0.79723 0.10243 0.0
C14 C 0.29411 0.76635 0.04302 0.0
C15 C 0.30296 0.7586 0.08134 0.0
C16 C 0.27677 0.78895 0.0345 0.0
C17 C 0.16968 0.89792 0.00993 0.0
C18 C 0.16144 0.88158 0.94414 0.0
C19 C 0.13912 0.92288 0.95998 0.0
C20 C 0.15207 0.92001 0.99836 0.0
C21 C 0.14346 0.90363 0.93238 0.0
C22 C 0.17445 0.87876 0.98259 0.0
C23 C 0.18237 0.89491 0.05064 0.0
O24 O 0.21261 0.8506 0.14708 0.0
O25 O 0.24829 0.87929 0.1423 0.0
O26 O 0.21106 0.90056 0.05962 0.0
O27 O 0.17461 0.87323 0.0669 0.0
H28 H 0.18937 0.90515 0.15287 0.0
H29 H 0.16753 0.93029 0.20148 0.0
H30 H 0.22731 0.89098 0.29096 0.0
H31 H 0.24931 0.8663 0.24209 0.0
H32 H 0.30143 0.76906 0.1408 0.0
H33 H 0.27083 0.80886 0.12561 0.0
H34 H 0.30027 0.75471 0.01953 0.0
H35 H 0.26963 0.79413 1.00472 0.0
H36 H 0.16507 0.86627 0.92379 0.0
H37 H 0.12591 0.94034 0.95189 0.0
H38 H 0.14825 0.93504 0.01907 0.0
H39 H 0.188 0.86153 0.99107 0.0
C40 C 0.71301 0.66838 0.69188 0.0
C41 C 0.68546 0.65509 0.68377 0.0
C42 C 0.6908 0.6394 0.7498 0.0
C43 C 0.67442 0.64074 0.7125 0.0
C44 C 0.71877 0.65227 0.75735 0.0
C45 C 0.72972 0.66665 0.72865 0.0
U46 U 0.71225 0.69029 0.58792 0.0
O47 O 0.71627 0.73007 0.56484 0.0
O48 O 0.75013 0.70009 0.55761 0.0
C49 C 0.74234 0.72501 0.55387 0.0
C50 C 0.72433 0.68462 0.66271 0.0
C51 C 0.76638 0.74417 0.56648 0.0
C52 C 0.79602 0.77042 0.61644 0.0
C53 C 0.77328 0.7519 0.60515 0.0
C54 C 0.80539 0.77332 0.55062 0.0
C55 C 0.81238 0.78133 0.58927 0.0
C56 C 0.78261 0.75493 0.53938 0.0
C57 C 0.65725 0.65822 0.50709 0.0
C58 C 0.64818 0.67416 0.44137 0.0
C59 C 0.62793 0.63203 0.45701 0.0
C60 C 0.64069 0.63547 0.4954 0.0
C61 C 0.63139 0.65135 0.42946 0.0
C62 C 0.66104 0.67754 0.47986 0.0
C63 C 0.67041 0.66126 0.54772 0.0
O64 O 0.73872 0.67186 0.63848 0.0
O65 O 0.70551 0.70233 0.64604 0.0
O66 O 0.66482 0.68368 0.56416 0.0
O67 O 0.69845 0.65359 0.55651 0.0
H68 H 0.67227 0.65617 0.65544 0.0
H69 H 0.65267 0.63134 0.70576 0.0
H70 H 0.73221 0.65132 0.78551 0.0
H71 H 0.75114 0.67667 0.73531 0.0
H72 H 0.80101 0.77599 0.64645 0.0
H73 H 0.76105 0.74365 0.62655 0.0
H74 H 0.81721 0.7816 0.52886 0.0
H75 H 0.77756 0.74922 0.50941 0.0
H76 H 0.65111 0.68954 0.42107 0.0
H77 H 0.6157 0.61399 0.44885 0.0
H78 H 0.6377 0.62027 0.51599 0.0
H79 H 0.67385 0.69523 0.48839 0.0
C80 C 0.82266 0.19051 0.12531 0.0
C81 C 0.82819 0.16331 0.12868 0.0
C82 C 0.85409 0.16963 0.19399 0.0
C83 C 0.84361 0.15297 0.16277 0.0
C84 C 0.84917 0.19691 0.19015 0.0
C85 C 0.83348 0.20722 0.15617 0.0
U86 U 0.80111 0.19309 0.01606 0.0
O87 O 0.75689 0.19826 0.98063 0.0
O88 O 0.79282 0.22705 0.97744 0.0
C89 C 0.76428 0.22112 0.96735 0.0
C90 C 0.80538 0.20177 0.09023 0.0
C91 C 0.74242 0.24263 0.96914 0.0
C92 C 0.72853 0.2854 0.99263 0.0
C93 C 0.7497 0.26531 0.99173 0.0
C94 C 0.69243 0.26037 0.94877 0.0
C95 C 0.69962 0.2831 0.97129 0.0
C96 C 0.71368 0.24041 0.9476 0.0
C97 C 0.83821 0.14659 0.95213 0.0
C98 C 0.82852 0.14998 0.88259 0.0
C99 C 0.86476 0.11831 0.91271 0.0
C100 C 0.85896 0.12646 0.94887 0.0
C101 C 0.84991 0.13021 0.87913 0.0
C102 C 0.82273 0.1581 0.91881 0.0
C103 C 0.83401 0.15625 0.99036 0.0
O104 O 0.8211 0.21487 0.06801 0.0
O105 O 0.78485 0.18636 0.07099 0.0
O106 O 0.80756 0.15161 1.00045 0.0
O107 O 0.84368 0.18035 0.9985 0.0
H108 H 0.82037 0.15002 0.10512 0.0
H109 H 0.84742 0.13191 0.16469 0.0
H110 H 0.85678 0.21022 0.21378 0.0
H111 H 0.82951 0.22827 0.15412 0.0
H112 H 0.73458 0.30251 0.01068 0.0
H113 H 0.77164 0.26749 1.00884 0.0
H114 H 0.67042 0.25811 0.93184 0.0
H115 H 0.70762 0.22313 0.92989 0.0
H116 H 0.81647 0.15935 0.85733 0.0
H117 H 0.88167 0.10333 0.91117 0.0
H118 H 0.87119 0.11745 0.97435 0.0
H119 H 0.80658 0.17368 0.92087 0.0
C120 C 0.31051 0.36481 0.4046 0.0
C121 C 0.33328 0.38261 0.41908 0.0
C122 C 0.34174 0.39286 0.354 0.0
C123 C 0.34876 0.39653 0.39401 0.0
C124 C 0.31852 0.37527 0.33969 0.0
C125 C 0.30307 0.36135 0.36482 0.0
U126 U 0.29817 0.34604 0.50561 0.0
O127 O 0.25612 0.33748 0.52812 0.0
O128 O 0.29118 0.30726 0.53017 0.0
C129 C 0.2635 0.31273 0.53518 0.0
C130 C 0.29486 0.34937 0.43071 0.0
C131 C 0.24085 0.29304 0.51967 0.0
C132 C 0.21823 0.26415 0.46796 0.0
C133 C 0.23862 0.28413 0.48153 0.0
C134 C 0.20148 0.26244 0.53015 0.0
C135 C 0.19963 0.25287 0.49226 0.0
C136 C 0.22192 0.28231 0.54369 0.0
C137 C 0.34594 0.3799 0.59162 0.0
C138 C 0.34113 0.37082 0.65814 0.0
C139 C 0.37776 0.40265 0.64331 0.0
C140 C 0.36881 0.39803 0.60411 0.0
C141 C 0.36399 0.38919 0.67087 0.0
C142 C 0.3322 0.3662 0.61881 0.0
C143 C 0.33672 0.37574 0.55018 0.0
O144 O 0.31151 0.33191 0.4515 0.0
O145 O 0.27757 0.36298 0.45052 0.0
O146 O 0.30937 0.38344 0.53639 0.0
O147 O 0.34369 0.35272 0.53671 0.0
H148 H 0.33923 0.38557 0.44978 0.0
H149 H 0.36623 0.41017 0.40596 0.0
H150 H 0.31278 0.37174 0.30912 0.0
H151 H 0.28557 0.34762 0.3532 0.0
H152 H 0.21718 0.2574 0.43856 0.0
H153 H 0.25298 0.29232 0.46248 0.0
H154 H 0.18783 0.25396 0.5498 0.0
H155 H 0.22339 0.28893 0.57322 0.0
H156 H 0.33023 0.35995 0.67856 0.0
H157 H 0.39503 0.41726 0.65196 0.0
H158 H 0.3796 0.40883 0.58348 0.0
H159 H 0.31453 0.35204 0.60961 0.0
O160 O 0.01077 0.065 0.63046 0.0
Mg161 Mg 0.04698 0.0508 0.60478 0.0
O162 O 0.97927 0.03866 0.59406 0.0
Mg163 Mg 0.00526 0.01763 0.54928 0.0
O164 O 0.03989 0.05197 0.546 0.0
O165 O 0.07266 0.07792 0.58357 0.0
O166 O 0.03141 0.99632 0.50445 0.0
O167 O 0.97532 0.04266 0.50122 0.0
Mg168 Mg 0.96346 0.98355 0.49395 0.0
O169 O 0.97045 0.98359 0.55265 0.0
O170 O 0.99999 0.96892 0.46981 0.0
O171 O 0.94082 0.01662 0.46935 0.0
O172 O 0.93785 0.95682 0.51639 0.0
C173 C 0.05843 0.99544 0.62241 0.0
C174 C 0.9846 0.05568 0.6211 0.0
C175 C 0.05989 0.07076 0.54983 0.0
C176 C 0.02608 0.97855 0.47843 0.0
C177 C 0.95209 0.0393 0.47594 0.0
C178 C 0.95052 0.96479 0.54977 0.0
O179 O 0.07035 0.01788 0.62859 0.0
O180 O 0.03486 0.99249 0.59755 0.0
O181 O 0.57552 0.53856 0.11114 0.0
Mg182 Mg 0.54543 0.50721 0.09992 0.0
O183 O 0.53072 0.55523 0.09665 0.0
Mg184 Mg 0.50611 0.52689 0.04661 0.0
O185 O 0.54019 0.49035 0.04628 0.0
O186 O 0.5686 0.47366 0.09865 0.0
O187 O 0.47943 0.50134 0.99621 0.0
O188 O 0.53525 0.54763 1.00507 0.0
Mg189 Mg 0.46639 0.5613 0.98582 0.0
O190 O 0.47112 0.56067 0.0443 0.0
O191 O 0.44683 0.52679 0.96016 0.0
O192 O 0.50599 0.57527 0.96791 0.0
O193 O 0.43953 0.58772 1.00817 0.0
C194 C 0.4855 0.50021 0.12294 0.0
C195 C 0.55783 0.5575 0.11327 0.0
C196 C 0.55883 0.47255 0.06238 0.0
C197 C 0.45796 0.50425 0.96834 0.0
C198 C 0.53164 0.56545 0.97925 0.0
C199 C 0.45141 0.57952 0.04162 0.0
O200 O 0.51302 0.50127 0.13695 0.0
O201 O 0.4773 0.50652 0.08799 0.0
C202 C 0.15094 0.22815 0.48993 0.0
C203 C 0.17969 0.23015 0.47918 0.0
C204 C 0.13377 0.20526 0.48196 0.0
C205 C 0.14493 0.18378 0.46285 0.0
C206 C 0.17306 0.18633 0.45054 0.0
C207 C 0.19019 0.20925 0.45845 0.0
C208 C 0.13025 0.15735 0.46047 0.0
C209 C 0.10154 0.15318 0.46568 0.0
C210 C 0.09005 0.12717 0.47678 0.0
C211 C 0.05902 0.12406 0.47719 0.0
C212 C 0.04818 0.10312 0.49705 0.0
C213 C 0.06831 0.08512 0.51697 0.0
H214 H 0.13371 0.1089 0.49467 0.0
C215 C 0.09884 0.08669 0.51351 0.0
C216 C 0.10966 0.10738 0.49353 0.0
H217 H 0.11479 0.07323 0.52927 0.0
H218 H 0.14206 0.24402 0.50559 0.0
H219 H 0.11257 0.20409 0.49277 0.0
H220 H 0.18241 0.17007 0.43614 0.0
H221 H 0.21235 0.20999 0.45006 0.0
H222 H 0.14457 0.14059 0.45699 0.0
H223 H 0.08639 0.16984 0.46536 0.0
H224 H 0.04336 0.13897 0.4647 0.0
H225 H 0.0246 0.1026 0.50007 0.0
C226 C 0.34411 0.7312 0.11862 0.0
C227 C 0.31901 0.73321 0.08972 0.0
C228 C 0.35978 0.70731 0.12471 0.0
C229 C 0.35046 0.68496 0.10206 0.0
C230 C 0.32469 0.68689 0.07434 0.0
C231 C 0.30926 0.71065 0.06813 0.0
C232 C 0.3671 0.65948 0.10474 0.0
C233 C 0.39619 0.65649 0.12022 0.0
C234 C 0.41361 0.63269 0.11187 0.0
C235 C 0.44379 0.63579 0.10686 0.0
C236 C 0.45827 0.61615 0.08842 0.0
C237 C 0.44284 0.59308 0.07519 0.0
H238 H 0.37699 0.60442 0.10841 0.0
C239 C 0.41415 0.58852 0.08463 0.0
C240 C 0.39975 0.60802 0.10334 0.0
H241 H 0.40177 0.57091 0.07438 0.0
H242 H 0.35203 0.74825 0.13586 0.0
H243 H 0.37911 0.70658 0.14696 0.0
H244 H 0.31675 0.67003 0.05664 0.0
H245 H 0.28963 0.71137 0.04624 0.0
H246 H 0.35564 0.64313 0.08876 0.0
H247 H 0.40873 0.67319 0.13368 0.0
H248 H 0.45521 0.6544 0.1137 0.0
H249 H 0.48029 0.6202 0.0809 0.0
C250 C 0.83215 0.822 0.6261 0.0
C251 C 0.83634 0.80129 0.60071 0.0
C252 C 0.85366 0.84205 0.63397 0.0
C253 C 0.87983 0.84182 0.61646 0.0
C254 C 0.88463 0.82032 0.5928 0.0
C255 C 0.86318 0.80038 0.58492 0.0
C256 C 0.9018 0.86405 0.61963 0.0
C257 C 0.89575 0.88884 0.63036 0.0
C258 C 0.91376 0.91188 0.62092 0.0
C259 C 0.89859 0.93547 0.61007 0.0
C260 C 0.91239 0.95499 0.59098 0.0
C261 C 0.9418 0.95152 0.58329 0.0
H262 H 0.95718 0.8924 0.62668 0.0
C263 C 0.95832 0.92957 0.59845 0.0
C264 C 0.94444 0.90988 0.61733 0.0
H265 H 0.98094 0.92639 0.59241 0.0
H266 H 0.81176 0.82324 0.63887 0.0
H267 H 0.84933 0.85776 0.65325 0.0
H268 H 0.90466 0.81934 0.5792 0.0
H269 H 0.86744 0.7844 0.56593 0.0
H270 H 0.92224 0.86055 0.60747 0.0
H271 H 0.87446 0.8931 0.63995 0.0
H272 H 0.8751 0.93772 0.61291 0.0
H273 H 0.89912 0.97161 0.57899 0.0
C274 C 0.68435 0.33076 0.972 0.0
C275 C 0.67675 0.30395 0.97354 0.0
C276 C 0.66327 0.35035 0.97657 0.0
C277 C 0.63414 0.34348 0.98299 0.0
C278 C 0.62645 0.3167 0.98378 0.0
C279 C 0.64741 0.29714 0.97881 0.0
C280 C 0.61263 0.36343 0.99368 0.0
C281 C 0.61303 0.38915 0.98428 0.0
C282 C 0.59561 0.40931 1.00243 0.0
C283 C 0.58637 0.43272 0.9829 0.0
C284 C 0.57279 0.45303 1.00146 0.0
C285 C 0.56908 0.45042 0.04016 0.0
H286 H 0.59822 0.38914 0.05711 0.0
C287 C 0.57769 0.42678 0.05924 0.0
C288 C 0.59071 0.40649 0.04068 0.0
H289 H 0.57505 0.42415 0.08907 0.0
H290 H 0.70676 0.33659 0.96776 0.0
H291 H 0.67031 0.37074 0.97673 0.0
H292 H 0.60432 0.31084 0.98917 0.0
H293 H 0.64096 0.27667 0.98055 0.0
H294 H 0.59624 0.35663 0.01115 0.0
H295 H 0.62716 0.39583 0.96382 0.0
H296 H 0.59017 0.43549 0.95354 0.0
H297 H 0.56651 0.47113 0.98618 0.0
C298 C 0.14863 0.92707 0.27452 0.0
C299 C 0.18014 0.92551 0.2798 0.0
C300 C 0.13376 0.93734 0.30333 0.0
C301 C 0.15 0.94617 0.33836 0.0
C302 C 0.1815 0.94573 0.34308 0.0
C303 C 0.19645 0.9353 0.31422 0.0
C304 C 0.13437 0.95562 0.37024 0.0
C305 C 0.1082 0.94481 0.37651 0.0
C306 C 0.09012 0.95324 0.40654 0.0
C307 C 0.06575 0.93726 0.41218 0.0
C308 C 0.04587 0.94514 0.43673 0.0
C309 C 0.04977 0.96928 0.45655 0.0
H310 H 0.11316 0.9901 0.42382 0.0
C311 C 0.0749 0.9849 0.45251 0.0
C312 C 0.09486 0.97703 0.42752 0.0
H313 H 0.0784 1.00367 0.46731 0.0
H314 H 0.13533 0.91963 0.24849 0.0
H315 H 0.10947 0.93821 0.2981 0.0
H316 H 0.19455 0.95278 0.36954 0.0
H317 H 0.22076 0.93476 0.31894 0.0
H318 H 0.14533 0.97059 0.38955 0.0
H319 H 0.09934 0.92829 0.35851 0.0
H320 H 0.06152 0.91879 0.39668 0.0
H321 H 0.02693 0.93248 0.43946 0.0
C322 C 0.68122 0.63669 0.81816 0.0
C323 C 0.6782 0.62562 0.78106 0.0
C324 C 0.66789 0.62473 0.84703 0.0
C325 C 0.65091 0.60149 0.83942 0.0
C326 C 0.64894 0.58983 0.80287 0.0
C327 C 0.66229 0.60181 0.77394 0.0
C328 C 0.63411 0.58952 0.86837 0.0
C329 C 0.6231 0.60406 0.8952 0.0
C330 C 0.60164 0.59365 0.91958 0.0
C331 C 0.57958 0.61077 0.92952 0.0
C332 C 0.55742 0.60159 0.94983 0.0
C333 C 0.55725 0.57521 0.96159 0.0
H334 H 0.61936 0.55385 0.92593 0.0
C335 C 0.58026 0.55829 0.95362 0.0
C336 C 0.60219 0.56738 0.93241 0.0
H337 H 0.58059 0.53785 0.96242 0.0
H338 H 0.69322 0.65504 0.8247 0.0
H339 H 0.67078 0.6339 0.87515 0.0
H340 H 0.6363 0.57178 0.79631 0.0
H341 H 0.65999 0.59248 0.74592 0.0
H342 H 0.62783 0.56888 0.86473 0.0
H343 H 0.62688 0.62521 0.89628 0.0
H344 H 0.57881 0.63114 0.92034 0.0
H345 H 0.54009 0.61512 0.95589 0.0
C346 C 0.85741 0.13613 0.24646 0.0
C347 C 0.8693 0.15848 0.23078 0.0
C348 C 0.87134 0.12564 0.2812 0.0
C349 C 0.89757 0.13727 0.30117 0.0
C350 C 0.90976 0.15933 0.28519 0.0
C351 C 0.8956 0.17003 0.25055 0.0
C352 C 0.91335 0.12571 0.33743 0.0
C353 C 0.89839 0.1134 0.36263 0.0
C354 C 0.91274 0.0973 0.39558 0.0
C355 C 0.89498 0.07813 0.40995 0.0
C356 C 0.90767 0.06023 0.43755 0.0
C357 C 0.93843 0.0613 0.45211 0.0
H358 H 0.95759 0.11435 0.40219 0.0
C359 C 0.95599 0.08158 0.43994 0.0
C360 C 0.94329 0.0994 0.41169 0.0
H361 H 0.97977 0.08282 0.45072 0.0
H362 H 0.83714 0.12683 0.23199 0.0
H363 H 0.86182 0.10808 0.29188 0.0
H364 H 0.93018 0.1684 0.29965 0.0
H365 H 0.90547 0.18709 0.23893 0.0
H366 H 0.93768 0.12679 0.3425 0.0
H367 H 0.87398 0.11334 0.35717 0.0
H368 H 0.87136 0.07617 0.39851 0.0
H369 H 0.89352 0.04495 0.44664 0.0
C370 C 0.40297 0.39993 0.72794 0.0
C371 C 0.37276 0.39517 0.71254 0.0
C372 C 0.41088 0.40812 0.76614 0.0
C373 C 0.38872 0.41162 0.79002 0.0
C374 C 0.3587 0.40593 0.77495 0.0
C375 C 0.3508 0.39776 0.73677 0.0
C376 C 0.39526 0.42389 0.82898 0.0
C377 C 0.42304 0.427 0.8491 0.0
C378 C 0.42951 0.44439 0.88369 0.0
C379 C 0.45675 0.44158 0.90874 0.0
C380 C 0.46538 0.46004 0.93817 0.0
C381 C 0.44706 0.48192 0.94265 0.0
H382 H 0.38982 0.46913 0.87063 0.0
C383 C 0.41924 0.48403 0.91874 0.0
C384 C 0.41059 0.46562 0.88964 0.0
H385 H 0.40456 0.50064 0.92143 0.0
H386 H 0.42052 0.39782 0.71022 0.0
H387 H 0.4342 0.41269 0.77605 0.0
H388 H 0.34107 0.40863 0.79244 0.0
H389 H 0.32729 0.39456 0.72584 0.0
H390 H 0.3761 0.43154 0.8409 0.0
H391 H 0.44207 0.41736 0.83939 0.0
H392 H 0.4719 0.42556 0.90471 0.0
H393 H 0.48705 0.45796 0.95596 0.0
C394 C 0.63346 0.65466 0.35845 0.0
C395 C 0.61785 0.64737 0.38851 0.0
C396 C 0.62149 0.64933 0.32014 0.0
C397 C 0.59365 0.63631 0.31095 0.0
C398 C 0.57757 0.63006 0.34093 0.0
C399 C 0.58947 0.63547 0.37915 0.0
C400 C 0.58097 0.62788 0.27108 0.0
C401 C 0.59727 0.62571 0.24202 0.0
C402 C 0.58618 0.61194 0.20513 0.0
C403 C 0.6073 0.59943 0.18563 0.0
C404 C 0.59799 0.58307 0.15411 0.0
C405 C 0.56729 0.5791 0.14091 0.0
H406 H 0.53852 0.61974 0.20351 0.0
C407 C 0.5461 0.59338 0.15823 0.0
C408 C 0.55544 0.60962 0.19015 0.0
H409 H 0.52228 0.59088 0.14852 0.0
H410 H 0.65537 0.66386 0.36453 0.0
H411 H 0.63437 0.65532 0.29812 0.0
H412 H 0.55593 0.62034 0.3349 0.0
H413 H 0.57644 0.63015 0.40142 0.0
H414 H 0.55804 0.62059 0.26679 0.0
H415 H 0.62084 0.6311 0.24681 0.0
H416 H 0.63111 0.60116 0.19608 0.0
H417 H 0.6149 0.57257 0.14112 0.0
C418 C 0.86436 0.09687 0.83189 0.0
C419 C 0.85817 0.12314 0.84098 0.0
C420 C 0.87517 0.09067 0.79768 0.0
C421 C 0.87995 0.11067 0.77166 0.0
C422 C 0.87277 0.13676 0.78022 0.0
C423 C 0.86193 0.14293 0.81434 0.0
C424 C 0.89542 0.10573 0.73778 0.0
C425 C 0.8986 0.08178 0.72207 0.0
C426 C 0.91893 0.07697 0.69307 0.0
C427 C 0.91404 0.05508 0.66826 0.0
C428 C 0.93462 0.04868 0.64345 0.0
C429 C 0.96078 0.06383 0.64355 0.0
H430 H 0.9499 0.10904 0.71163 0.0
C431 C 0.96528 0.08603 0.66778 0.0
C432 C 0.94471 0.0925 0.69223 0.0
H433 H 0.98521 0.09812 0.66865 0.0
H434 H 0.86144 0.08112 0.85163 0.0
H435 H 0.88094 0.07038 0.79275 0.0
H436 H 0.87644 0.15261 0.76095 0.0
H437 H 0.85778 0.16341 0.82059 0.0
H438 H 0.90531 0.12275 0.72589 0.0
H439 H 0.88651 0.06497 0.73102 0.0
H440 H 0.89456 0.0426 0.66859 0.0
H441 H 0.93061 0.03134 0.62531 0.0
C442 C 0.34508 0.41702 0.29241 0.0
C443 C 0.35928 0.40661 0.32742 0.0
C444 C 0.36186 0.4294 0.26716 0.0
C445 C 0.39331 0.4316 0.27641 0.0
C446 C 0.40734 0.42116 0.31144 0.0
C447 C 0.39061 0.40889 0.33661 0.0
C448 C 0.41275 0.44401 0.25071 0.0
C449 C 0.40289 0.45774 0.21853 0.0
C450 C 0.42382 0.46984 0.19453 0.0
C451 C 0.41428 0.47378 0.1551 0.0
C452 C 0.43397 0.48416 0.13168 0.0
C453 C 0.46357 0.49089 0.14738 0.0
H454 H 0.4609 0.47627 0.24086 0.0
C455 C 0.47266 0.48791 0.18708 0.0
C456 C 0.45303 0.47773 0.21038 0.0
H457 H 0.49511 0.49338 0.20031 0.0
H458 H 0.32093 0.41573 0.28459 0.0
H459 H 0.34995 0.43682 0.24047 0.0
H460 H 0.4315 0.4224 0.31941 0.0
H461 H 0.40236 0.40073 0.36301 0.0
H462 H 0.43676 0.44142 0.25902 0.0
H463 H 0.37905 0.45977 0.20858 0.0
H464 H 0.39175 0.46828 0.14221 0.0
H465 H 0.42621 0.48639 0.10125 0.0
C466 C 0.14508 0.90003 0.86126 0.0
C467 C 0.12935 0.90673 0.89156 0.0
C468 C 0.13234 0.90433 0.82303 0.0
C469 C 0.10358 0.91568 0.8142 0.0
C470 C 0.08745 0.92133 0.84444 0.0
C471 C 0.10014 0.91698 0.88259 0.0
C472 C 0.08999 0.92303 0.77438 0.0
C473 C 0.10614 0.92713 0.74564 0.0
C474 C 0.09369 0.94069 0.70936 0.0
C475 C 0.11298 0.95691 0.69207 0.0
C476 C 0.10163 0.97341 0.66182 0.0
C477 C 0.07079 0.97363 0.64753 0.0
H478 H 0.04776 0.92649 0.7051 0.0
C479 C 0.05178 0.95567 0.66234 0.0
C480 C 0.06311 0.9394 0.69323 0.0
H481 H 0.02791 0.95546 0.65181 0.0
H482 H 0.1676 0.89207 0.86707 0.0
H483 H 0.14528 0.89887 0.80073 0.0
H484 H 0.06515 0.92978 0.83865 0.0
H485 H 0.08706 0.92179 0.9051 0.0
H486 H 0.06633 0.92823 0.76998 0.0
H487 H 0.13024 0.92408 0.75067 0.0
H488 H 0.13666 0.95807 0.70352 0.0
H489 H 0.11681 0.98695 0.65075 0.0
loop_
_geom_bond_atom_site_label_1
_geom_bond_atom_site_label_2
_geom_bond_distance
_geom_bond_site_symmetry_2
_ccdc_geom_bond_type
C0 C1 1.264 . S
C0 C5 1.479 . S
C0 C10 1.465 . S
C1 C0 1.264 . S
C1 C3 1.339 . S
C1 H28 0.931 . S
C2 C3 1.395 . S
C2 C4 1.320 . S
C3 C1 1.339 . S
C3 C2 1.395 . S
C3 H29 0.929 . S
C4 C2 1.320 . S
C4 C5 1.405 . S
C4 H30 0.930 . S
C5 C0 1.479 . S
C5 C4 1.405 . S
C5 H31 0.931 . S
U6 O7 2.454 . S
U6 O8 2.458 . S
U6 C9 2.984 . S
U6 C10 2.847 . S
U6 C23 2.882 . S
U6 O24 2.441 . S
U6 O25 2.420 . S
U6 O26 2.455 . S
U6 O27 2.449 . S
O7 U6 2.454 . S
O7 C9 1.353 . S
O8 U6 2.458 . S
O8 C9 1.286 . S
C9 U6 2.984 . S
C9 O7 1.353 . S
C9 O8 1.286 . S
C9 C11 1.363 . S
C10 C0 1.465 . S
C10 U6 2.847 . S
C10 O24 1.249 . S
C10 O25 1.202 . S
C11 C9 1.363 . S
C11 C13 1.408 . S
C11 C16 1.342 . S
C12 C13 1.310 . S
C12 C15 1.461 . S
C12 H32 0.932 . S
C13 C11 1.408 . S
C13 C12 1.310 . S
C13 H33 0.930 . S
C14 C15 1.474 . S
C14 C16 1.285 . S
C14 H34 0.929 . S
C15 C12 1.461 . S
C15 C14 1.474 . S
C16 C11 1.342 . S
C16 C14 1.285 . S
C16 H35 0.930 . S
C17 C20 1.424 . S
C17 C22 1.245 . S
C17 C23 1.428 1_556 S
C18 C21 1.260 . S
C18 C22 1.477 . S
C18 H36 0.932 . S
C19 C20 1.384 . S
C19 C21 1.479 . S
C19 H37 0.929 . S
C20 C17 1.424 . S
C20 C19 1.384 . S
C20 H38 0.928 1_556 S
C21 C18 1.260 . S
C21 C19 1.479 . S
C22 C17 1.245 . S
C22 C18 1.477 . S
C22 H39 0.932 . S
C23 U6 2.882 . S
C23 C17 1.428 1_554 S
C23 O26 1.301 . S
C23 O27 1.282 . S
O24 U6 2.441 . S
O24 C10 1.249 . S
O25 U6 2.420 . S
O25 C10 1.202 . S
O26 U6 2.455 . S
O26 C23 1.301 . S
O27 U6 2.449 . S
O27 C23 1.282 . S
H28 C1 0.931 . S
H29 C3 0.929 . S
H30 C4 0.930 . S
H31 C5 0.931 . S
H32 C12 0.932 . S
H33 C13 0.930 . S
H34 C14 0.929 . S
H35 C16 0.930 . S
H36 C18 0.932 . S
H37 C19 0.929 . S
H38 C20 0.928 1_554 S
H39 C22 0.932 . S
C40 C41 1.264 . S
C40 C45 1.479 . S
C40 C50 1.465 . S
C41 C40 1.264 . S
C41 C43 1.339 . S
C41 H68 0.931 . S
C42 C43 1.395 . S
C42 C44 1.320 . S
C43 C41 1.339 . S
C43 C42 1.395 . S
C43 H69 0.929 . S
C44 C42 1.320 . S
C44 C45 1.405 . S
C44 H70 0.930 . S
C45 C40 1.479 . S
C45 C44 1.405 . S
C45 H71 0.931 . S
U46 O47 2.454 . S
U46 O48 2.458 . S
U46 C49 2.984 . S
U46 C50 2.847 . S
U46 C63 2.882 . S
U46 O64 2.441 . S
U46 O65 2.420 . S
U46 O66 2.455 . S
U46 O67 2.449 . S
O47 U46 2.454 . S
O47 C49 1.353 . S
O48 U46 2.458 . S
O48 C49 1.286 . S
C49 U46 2.984 . S
C49 O47 1.353 . S
C49 O48 1.286 . S
C49 C51 1.363 . S
C50 C40 1.465 . S
C50 U46 2.847 . S
C50 O64 1.249 . S
C50 O65 1.202 . S
C51 C49 1.363 . S
C51 C53 1.408 . S
C51 C56 1.342 . S
C52 C53 1.310 . S
C52 C55 1.461 . S
C52 H72 0.932 . S
C53 C51 1.408 . S
C53 C52 1.310 . S
C53 H73 0.930 . S
C54 C55 1.474 . S
C54 C56 1.285 . S
C54 H74 0.929 . S
C55 C52 1.461 . S
C55 C54 1.474 . S
C56 C51 1.342 . S
C56 C54 1.285 . S
C56 H75 0.930 . S
C57 C60 1.424 . S
C57 C62 1.245 . S
C57 C63 1.428 . S
C58 C61 1.260 . S
C58 C62 1.477 . S
C58 H76 0.932 . S
C59 C60 1.384 . S
C59 C61 1.479 . S
C59 H77 0.929 . S
C60 C57 1.424 . S
C60 C59 1.384 . S
C60 H78 0.928 . S
C61 C58 1.260 . S
C61 C59 1.479 . S
C62 C57 1.245 . S
C62 C58 1.477 . S
C62 H79 0.932 . S
C63 U46 2.882 . S
C63 C57 1.428 . S
C63 O66 1.301 . S
C63 O67 1.282 . S
O64 U46 2.441 . S
O64 C50 1.249 . S
O65 U46 2.420 . S
O65 C50 1.202 . S
O66 U46 2.455 . S
O66 C63 1.301 . S
O67 U46 2.449 . S
O67 C63 1.282 . S
H68 C41 0.931 . S
H69 C43 0.929 . S
H70 C44 0.930 . S
H71 C45 0.931 . S
H72 C52 0.932 . S
H73 C53 0.930 . S
H74 C54 0.929 . S
H75 C56 0.930 . S
H76 C58 0.932 . S
H77 C59 0.929 . S
H78 C60 0.928 . S
H79 C62 0.932 . S
C80 C81 1.264 . S
C80 C85 1.479 . S
C80 C90 1.465 . S
C81 C80 1.264 . S
C81 C83 1.339 . S
C81 H108 0.931 . S
C82 C83 1.395 . S
C82 C84 1.320 . S
C83 C81 1.339 . S
C83 C82 1.395 . S
C83 H109 0.929 . S
C84 C82 1.320 . S
C84 C85 1.405 . S
C84 H110 0.930 . S
C85 C80 1.479 . S
C85 C84 1.405 . S
C85 H111 0.931 . S
U86 O87 2.454 . S
U86 O88 2.458 1_554 S
U86 C89 2.984 1_554 S
U86 C90 2.847 . S
U86 C103 2.882 1_554 S
U86 O104 2.441 . S
U86 O105 2.420 . S
U86 O106 2.455 1_554 S
U86 O107 2.449 1_554 S
O87 U86 2.454 . S
O87 C89 1.353 1_554 S
O88 U86 2.458 1_556 S
O88 C89 1.286 . S
C89 U86 2.984 1_556 S
C89 O87 1.353 1_556 S
C89 O88 1.286 . S
C89 C91 1.363 . S
C90 C80 1.465 . S
C90 U86 2.847 . S
C90 O104 1.249 . S
C90 O105 1.202 . S
C91 C89 1.363 . S
C91 C93 1.408 1_556 S
C91 C96 1.342 . S
C92 C93 1.310 . S
C92 C95 1.461 1_554 S
C92 H112 0.932 . S
C93 C91 1.408 1_554 S
C93 C92 1.310 . S
C93 H113 0.930 . S
C94 C95 1.474 . S
C94 C96 1.285 . S
C94 H114 0.929 . S
C95 C92 1.461 1_556 S
C95 C94 1.474 . S
C96 C91 1.342 . S
C96 C94 1.285 . S
C96 H115 0.930 . S
C97 C100 1.424 . S
C97 C102 1.245 . S
C97 C103 1.428 . S
C98 C101 1.260 . S
C98 C102 1.477 . S
C98 H116 0.932 . S
C99 C100 1.384 . S
C99 C101 1.479 . S
C99 H117 0.929 . S
C100 C97 1.424 . S
C100 C99 1.384 . S
C100 H118 0.928 . S
C101 C98 1.260 . S
C101 C99 1.479 . S
C102 C97 1.245 . S
C102 C98 1.477 . S
C102 H119 0.932 . S
C103 U86 2.882 1_556 S
C103 C97 1.428 . S
C103 O106 1.301 . S
C103 O107 1.282 . S
O104 U86 2.441 . S
O104 C90 1.249 . S
O105 U86 2.420 . S
O105 C90 1.202 . S
O106 U86 2.455 1_556 S
O106 C103 1.301 . S
O107 U86 2.449 1_556 S
O107 C103 1.282 . S
H108 C81 0.931 . S
H109 C83 0.929 . S
H110 C84 0.930 . S
H111 C85 0.931 . S
H112 C92 0.932 . S
H113 C93 0.930 . S
H114 C94 0.929 . S
H115 C96 0.930 . S
H116 C98 0.932 . S
H117 C99 0.929 . S
H118 C100 0.928 . S
H119 C102 0.932 . S
C120 C121 1.264 . S
C120 C125 1.479 . S
C120 C130 1.465 . S
C121 C120 1.264 . S
C121 C123 1.339 . S
C121 H148 0.931 . S
C122 C123 1.395 . S
C122 C124 1.320 . S
C123 C121 1.339 . S
C123 C122 1.395 . S
C123 H149 0.929 . S
C124 C122 1.320 . S
C124 C125 1.405 . S
C124 H150 0.930 . S
C125 C120 1.479 . S
C125 C124 1.405 . S
C125 H151 0.931 . S
U126 O127 2.454 . S
U126 O128 2.458 . S
U126 C129 2.984 . S
U126 C130 2.847 . S
U126 C143 2.882 . S
U126 O144 2.441 . S
U126 O145 2.420 . S
U126 O146 2.455 . S
U126 O147 2.449 . S
O127 U126 2.454 . S
O127 C129 1.353 . S
O128 U126 2.458 . S
O128 C129 1.286 . S
C129 U126 2.984 . S
C129 O127 1.353 . S
C129 O128 1.286 . S
C129 C131 1.363 . S
C130 C120 1.465 . S
C130 U126 2.847 . S
C130 O144 1.249 . S
C130 O145 1.202 . S
C131 C129 1.363 . S
C131 C133 1.408 . S
C131 C136 1.342 . S
C132 C133 1.310 . S
C132 C135 1.461 . S
C132 H152 0.932 . S
C133 C131 1.408 . S
C133 C132 1.310 . S
C133 H153 0.930 . S
C134 C135 1.474 . S
C134 C136 1.285 . S
C134 H154 0.929 . S
C135 C132 1.461 . S
C135 C134 1.474 . S
C136 C131 1.342 . S
C136 C134 1.285 . S
C136 H155 0.930 . S
C137 C140 1.424 . S
C137 C142 1.245 . S
C137 C143 1.428 . S
C138 C141 1.260 . S
C138 C142 1.477 . S
C138 H156 0.932 . S
C139 C140 1.384 . S
C139 C141 1.479 . S
C139 H157 0.929 . S
C140 C137 1.424 . S
C140 C139 1.384 . S
C140 H158 0.928 . S
C141 C138 1.260 . S
C141 C139 1.479 . S
C142 C137 1.245 . S
C142 C138 1.477 . S
C142 H159 0.932 . S
C143 U126 2.882 . S
C143 C137 1.428 . S
C143 O146 1.301 . S
C143 O147 1.282 . S
O144 U126 2.441 . S
O144 C130 1.249 . S
O145 U126 2.420 . S
O145 C130 1.202 . S
O146 U126 2.455 . S
O146 C143 1.301 . S
O147 U126 2.449 . S
O147 C143 1.282 . S
H148 C121 0.931 . S
H149 C123 0.929 . S
H150 C124 0.930 . S
H151 C125 0.931 . S
H152 C132 0.932 . S
H153 C133 0.930 . S
H154 C134 0.929 . S
H155 C136 0.930 . S
H156 C138 0.932 . S
H157 C139 0.929 . S
H158 C140 0.928 . S
H159 C142 0.932 . S
O160 Mg161 1.990 1_655 S
O160 C174 1.253 . S
Mg161 O160 1.990 1_455 S
Mg161 O164 2.180 . S
Mg161 O165 2.117 . S
Mg161 O179 2.030 . S
O162 Mg163 2.072 1_655 S
O162 C174 1.260 . S
Mg163 O162 2.072 1_455 S
Mg163 O164 2.099 . S
Mg163 O166 2.079 1_545 S
Mg163 O167 2.072 1_455 S
Mg163 O169 2.099 1_445 S
Mg163 O180 2.079 1_545 S
O164 Mg161 2.180 . S
O164 Mg163 2.099 . S
O164 C175 1.279 . S
O165 Mg161 2.117 . S
O165 C175 1.250 . S
O166 Mg163 2.079 1_565 S
O166 C176 1.264 . S
O167 Mg163 2.072 1_655 S
O167 C177 1.260 . S
Mg168 O169 2.180 . S
Mg168 O170 2.030 1_655 S
Mg168 O171 1.990 1_565 S
Mg168 O172 2.117 . S
O169 Mg163 2.099 1_665 S
O169 Mg168 2.180 . S
O169 C178 1.279 . S
O170 Mg168 2.030 1_455 S
O170 C176 1.248 . S
O171 Mg168 1.990 1_545 S
O171 C177 1.253 . S
O172 Mg168 2.117 . S
O172 C178 1.250 . S
C173 O179 1.222 1_565 S
C173 O180 1.270 . S
C174 O160 1.253 . S
C174 O162 1.260 . S
C175 O164 1.279 . S
C175 O165 1.250 . S
C176 O166 1.264 . S
C176 O170 1.248 . S
C177 O167 1.260 . S
C177 O171 1.253 . S
C178 O169 1.279 . S
C178 O172 1.250 . S
O179 Mg161 2.030 . S
O179 C173 1.222 1_545 S
O180 Mg163 2.079 1_565 S
O180 C173 1.270 . S
O181 Mg182 1.990 . S
O181 C195 1.253 . S
Mg182 O181 1.990 . S
Mg182 O185 2.180 . S
Mg182 O186 2.117 . S
Mg182 O200 2.030 . S
O183 Mg184 2.072 . S
O183 C195 1.260 . S
Mg184 O183 2.072 . S
Mg184 O185 2.099 . S
Mg184 O187 2.079 1_554 S
Mg184 O188 2.072 . S
Mg184 O190 2.099 . S
Mg184 O201 2.079 . S
O185 Mg182 2.180 . S
O185 Mg184 2.099 . S
O185 C196 1.279 . S
O186 Mg182 2.117 . S
O186 C196 1.250 . S
O187 Mg184 2.079 1_556 S
O187 C197 1.264 . S
O188 Mg184 2.072 . S
O188 C198 1.260 1_554 S
Mg189 O190 2.180 1_556 S
Mg189 O191 2.030 . S
Mg189 O192 1.990 . S
Mg189 O193 2.117 1_556 S
O190 Mg184 2.099 . S
O190 Mg189 2.180 1_554 S
O190 C199 1.279 . S
O191 Mg189 2.030 . S
O191 C197 1.248 . S
O192 Mg189 1.990 . S
O192 C198 1.253 . S
O193 Mg189 2.117 1_554 S
O193 C199 1.250 . S
C194 O200 1.248 . S
C194 O201 1.264 . S
C195 O181 1.253 . S
C195 O183 1.260 . S
C196 O185 1.279 . S
C196 O186 1.250 . S
C197 O187 1.264 . S
C197 O191 1.248 . S
C198 O188 1.260 1_556 S
C198 O192 1.253 . S
C199 O190 1.279 . S
C199 O193 1.250 . S
O200 Mg182 2.030 . S
O200 C194 1.248 . S
O201 Mg184 2.079 . S
O201 C194 1.264 . S
C202 C203 1.386 . S
C202 C204 1.383 . S
C202 H218 0.951 . S
C203 C202 1.386 . S
C203 C207 1.383 . S
C204 C202 1.383 . S
C204 C205 1.402 . S
C204 H219 0.951 . S
C205 C204 1.402 . S
C205 C206 1.375 . S
C205 C208 1.481 . S
C206 C205 1.375 . S
C206 C207 1.367 . S
C206 H220 0.951 . S
C207 C203 1.383 . S
C207 C206 1.367 . S
C207 H221 0.950 . S
C208 C205 1.481 . S
C208 C209 1.297 . S
C208 H222 0.950 . S
C209 C208 1.297 . S
C209 C210 1.479 . S
C209 H223 0.950 . S
C210 C209 1.479 . S
C210 C211 1.375 . S
C210 C216 1.404 . S
C211 C210 1.375 . S
C211 C212 1.369 . S
C211 H224 0.950 . S
C212 C211 1.369 . S
C212 C213 1.392 . S
C212 H225 0.951 . S
C213 C212 1.392 . S
C213 C215 1.384 . S
H214 C216 0.949 . S
C215 C213 1.384 . S
C215 C216 1.385 . S
C215 H217 0.950 . S
C216 C210 1.404 . S
C216 H214 0.949 . S
C216 C215 1.385 . S
H217 C215 0.950 . S
H218 C202 0.951 . S
H219 C204 0.951 . S
H220 C206 0.951 . S
H221 C207 0.950 . S
H222 C208 0.950 . S
H223 C209 0.950 . S
H224 C211 0.950 . S
H225 C212 0.951 . S
C226 C227 1.386 . S
C226 C228 1.383 . S
C226 H242 0.951 . S
C227 C226 1.386 . S
C227 C231 1.383 . S
C228 C226 1.383 . S
C228 C229 1.402 . S
C228 H243 0.951 . S
C229 C228 1.402 . S
C229 C230 1.375 . S
C229 C232 1.481 . S
C230 C229 1.375 . S
C230 C231 1.367 . S
C230 H244 0.951 . S
C231 C227 1.383 . S
C231 C230 1.367 . S
C231 H245 0.950 . S
C232 C229 1.481 . S
C232 C233 1.297 . S
C232 H246 0.950 . S
C233 C232 1.297 . S
C233 C234 1.479 . S
C233 H247 0.950 . S
C234 C233 1.479 . S
C234 C235 1.375 . S
C234 C240 1.404 . S
C235 C234 1.375 . S
C235 C236 1.369 . S
C235 H248 0.950 . S
C236 C235 1.369 . S
C236 C237 1.392 . S
C236 H249 0.951 . S
C237 C236 1.392 . S
C237 C239 1.384 . S
H238 C240 0.949 . S
C239 C237 1.384 . S
C239 C240 1.385 . S
C239 H241 0.950 . S
C240 C234 1.404 . S
C240 H238 0.949 . S
C240 C239 1.385 . S
H241 C239 0.950 . S
H242 C226 0.951 . S
H243 C228 0.951 . S
H244 C230 0.951 . S
H245 C231 0.950 . S
H246 C232 0.950 . S
H247 C233 0.950 . S
H248 C235 0.950 . S
H249 C236 0.951 . S
C250 C251 1.386 . S
C250 C252 1.383 . S
C250 H266 0.951 . S
C251 C250 1.386 . S
C251 C255 1.383 . S
C252 C250 1.383 . S
C252 C253 1.402 . S
C252 H267 0.951 . S
C253 C252 1.402 . S
C253 C254 1.375 . S
C253 C256 1.481 . S
C254 C253 1.375 . S
C254 C255 1.367 . S
C254 H268 0.951 . S
C255 C251 1.383 . S
C255 C254 1.367 . S
C255 H269 0.950 . S
C256 C253 1.481 . S
C256 C257 1.297 . S
C256 H270 0.950 . S
C257 C256 1.297 . S
C257 C258 1.479 . S
C257 H271 0.950 . S
C258 C257 1.479 . S
C258 C259 1.375 . S
C258 C264 1.404 . S
C259 C258 1.375 . S
C259 C260 1.369 . S
C259 H272 0.950 . S
C260 C259 1.369 . S
C260 C261 1.392 . S
C260 H273 0.951 . S
C261 C260 1.392 . S
C261 C263 1.384 . S
H262 C264 0.949 . S
C263 C261 1.384 . S
C263 C264 1.385 . S
C263 H265 0.950 . S
C264 C258 1.404 . S
C264 H262 0.949 . S
C264 C263 1.385 . S
H265 C263 0.950 . S
H266 C250 0.951 . S
H267 C252 0.951 . S
H268 C254 0.951 . S
H269 C255 0.950 . S
H270 C256 0.950 . S
H271 C257 0.950 . S
H272 C259 0.950 . S
H273 C260 0.951 . S
C274 C275 1.386 1_554 S
C274 C276 1.383 . S
C274 H290 0.951 . S
C275 C274 1.386 1_556 S
C275 C279 1.383 . S
C276 C274 1.383 . S
C276 C277 1.402 1_554 S
C276 H291 0.951 . S
C277 C276 1.402 1_556 S
C277 C278 1.375 . S
C277 C280 1.481 . S
C278 C277 1.375 . S
C278 C279 1.367 . S
C278 H292 0.951 . S
C279 C275 1.383 . S
C279 C278 1.367 . S
C279 H293 0.950 . S
C280 C277 1.481 . S
C280 C281 1.297 . S
C280 H294 0.950 . S
C281 C280 1.297 . S
C281 C282 1.479 1_556 S
C281 H295 0.950 . S
C282 C281 1.479 1_554 S
C282 C283 1.375 . S
C282 C288 1.404 1_554 S
C283 C282 1.375 . S
C283 C284 1.369 . S
C283 H296 0.950 . S
C284 C283 1.369 . S
C284 C285 1.392 . S
C284 H297 0.951 . S
C285 C284 1.392 . S
C285 C287 1.384 . S
H286 C288 0.949 . S
C287 C285 1.384 . S
C287 C288 1.385 1_554 S
C287 H289 0.950 1_554 S
C288 C282 1.404 1_556 S
C288 H286 0.949 . S
C288 C287 1.385 1_556 S
H289 C287 0.950 1_556 S
H290 C274 0.951 . S
H291 C276 0.951 . S
H292 C278 0.951 . S
H293 C279 0.950 . S
H294 C280 0.950 . S
H295 C281 0.950 . S
H296 C283 0.950 . S
H297 C284 0.951 . S
C298 C299 1.386 . S
C298 C300 1.383 . S
C298 H314 0.951 . S
C299 C298 1.386 . S
C299 C303 1.383 . S
C300 C298 1.383 . S
C300 C301 1.402 . S
C300 H315 0.951 . S
C301 C300 1.402 . S
C301 C302 1.375 . S
C301 C304 1.481 . S
C302 C301 1.375 . S
C302 C303 1.367 . S
C302 H316 0.951 . S
C303 C299 1.383 . S
C303 C302 1.367 . S
C303 H317 0.950 . S
C304 C301 1.481 . S
C304 C305 1.297 . S
C304 H318 0.950 . S
C305 C304 1.297 . S
C305 C306 1.479 . S
C305 H319 0.950 . S
C306 C305 1.479 . S
C306 C307 1.375 . S
C306 C312 1.404 . S
C307 C306 1.375 . S
C307 C308 1.369 . S
C307 H320 0.950 . S
C308 C307 1.369 . S
C308 C309 1.392 . S
C308 H321 0.951 . S
C309 C308 1.392 . S
C309 C311 1.384 . S
H310 C312 0.949 . S
C311 C309 1.384 . S
C311 C312 1.385 . S
C311 H313 0.950 1_565 S
C312 C306 1.404 . S
C312 H310 0.949 . S
C312 C311 1.385 . S
H313 C311 0.950 1_545 S
H314 C298 0.951 . S
H315 C300 0.951 . S
H316 C302 0.951 . S
H317 C303 0.950 . S
H318 C304 0.950 . S
H319 C305 0.950 . S
H320 C307 0.950 . S
H321 C308 0.951 . S
C322 C323 1.386 . S
C322 C324 1.383 . S
C322 H338 0.951 . S
C323 C322 1.386 . S
C323 C327 1.383 . S
C324 C322 1.383 . S
C324 C325 1.402 . S
C324 H339 0.951 . S
C325 C324 1.402 . S
C325 C326 1.375 . S
C325 C328 1.481 . S
C326 C325 1.375 . S
C326 C327 1.367 . S
C326 H340 0.951 . S
C327 C323 1.383 . S
C327 C326 1.367 . S
C327 H341 0.950 . S
C328 C325 1.481 . S
C328 C329 1.297 . S
C328 H342 0.950 . S
C329 C328 1.297 . S
C329 C330 1.479 . S
C329 H343 0.950 . S
C330 C329 1.479 . S
C330 C331 1.375 . S
C330 C336 1.404 . S
C331 C330 1.375 . S
C331 C332 1.369 . S
C331 H344 0.950 . S
C332 C331 1.369 . S
C332 C333 1.392 . S
C332 H345 0.951 . S
C333 C332 1.392 . S
C333 C335 1.384 . S
H334 C336 0.949 . S
C335 C333 1.384 . S
C335 C336 1.385 . S
C335 H337 0.950 . S
C336 C330 1.404 . S
C336 H334 0.949 . S
C336 C335 1.385 . S
H337 C335 0.950 . S
H338 C322 0.951 . S
H339 C324 0.951 . S
H340 C326 0.951 . S
H341 C327 0.950 . S
H342 C328 0.950 . S
H343 C329 0.950 . S
H344 C331 0.950 . S
H345 C332 0.951 . S
C346 C347 1.386 . S
C346 C348 1.383 . S
C346 H362 0.951 . S
C347 C346 1.386 . S
C347 C351 1.383 . S
C348 C346 1.383 . S
C348 C349 1.402 . S
C348 H363 0.951 . S
C349 C348 1.402 . S
C349 C350 1.375 . S
C349 C352 1.481 . S
C350 C349 1.375 . S
C350 C351 1.367 . S
C350 H364 0.951 . S
C351 C347 1.383 . S
C351 C350 1.367 . S
C351 H365 0.950 . S
C352 C349 1.481 . S
C352 C353 1.297 . S
C352 H366 0.950 . S
C353 C352 1.297 . S
C353 C354 1.479 . S
C353 H367 0.950 . S
C354 C353 1.479 . S
C354 C355 1.375 . S
C354 C360 1.404 . S
C355 C354 1.375 . S
C355 C356 1.369 . S
C355 H368 0.950 . S
C356 C355 1.369 . S
C356 C357 1.392 . S
C356 H369 0.951 . S
C357 C356 1.392 . S
C357 C359 1.384 . S
H358 C360 0.949 . S
C359 C357 1.384 . S
C359 C360 1.385 . S
C359 H361 0.950 . S
C360 C354 1.404 . S
C360 H358 0.949 . S
C360 C359 1.385 . S
H361 C359 0.950 . S
H362 C346 0.951 . S
H363 C348 0.951 . S
H364 C350 0.951 . S
H365 C351 0.950 . S
H366 C352 0.950 . S
H367 C353 0.950 . S
H368 C355 0.950 . S
H369 C356 0.951 . S
C370 C371 1.386 . S
C370 C372 1.383 . S
C370 H386 0.951 . S
C371 C370 1.386 . S
C371 C375 1.383 . S
C372 C370 1.383 . S
C372 C373 1.402 . S
C372 H387 0.951 . S
C373 C372 1.402 . S
C373 C374 1.375 . S
C373 C376 1.481 . S
C374 C373 1.375 . S
C374 C375 1.367 . S
C374 H388 0.951 . S
C375 C371 1.383 . S
C375 C374 1.367 . S
C375 H389 0.950 . S
C376 C373 1.481 . S
C376 C377 1.297 . S
C376 H390 0.950 . S
C377 C376 1.297 . S
C377 C378 1.479 . S
C377 H391 0.950 . S
C378 C377 1.479 . S
C378 C379 1.375 . S
C378 C384 1.404 . S
C379 C378 1.375 . S
C379 C380 1.369 . S
C379 H392 0.950 . S
C380 C379 1.369 . S
C380 C381 1.392 . S
C380 H393 0.951 . S
C381 C380 1.392 . S
C381 C383 1.384 . S
H382 C384 0.949 . S
C383 C381 1.384 . S
C383 C384 1.385 . S
C383 H385 0.950 . S
C384 C378 1.404 . S
C384 H382 0.949 . S
C384 C383 1.385 . S
H385 C383 0.950 . S
H386 C370 0.951 . S
H387 C372 0.951 . S
H388 C374 0.951 . S
H389 C375 0.950 . S
H390 C376 0.950 . S
H391 C377 0.950 . S
H392 C379 0.950 . S
H393 C380 0.951 . S
C394 C395 1.386 . S
C394 C396 1.383 . S
C394 H410 0.951 . S
C395 C394 1.386 . S
C395 C399 1.383 . S
C396 C394 1.383 . S
C396 C397 1.402 . S
C396 H411 0.951 . S
C397 C396 1.402 . S
C397 C398 1.375 . S
C397 C400 1.481 . S
C398 C397 1.375 . S
C398 C399 1.367 . S
C398 H412 0.951 . S
C399 C395 1.383 . S
C399 C398 1.367 . S
C399 H413 0.950 . S
C400 C397 1.481 . S
C400 C401 1.297 . S
C400 H414 0.950 . S
C401 C400 1.297 . S
C401 C402 1.479 . S
C401 H415 0.950 . S
C402 C401 1.479 . S
C402 C403 1.375 . S
C402 C408 1.404 . S
C403 C402 1.375 . S
C403 C404 1.369 . S
C403 H416 0.950 . S
C404 C403 1.369 . S
C404 C405 1.392 . S
C404 H417 0.951 . S
C405 C404 1.392 . S
C405 C407 1.384 . S
H406 C408 0.949 . S
C407 C405 1.384 . S
C407 C408 1.385 . S
C407 H409 0.950 . S
C408 C402 1.404 . S
C408 H406 0.949 . S
C408 C407 1.385 . S
H409 C407 0.950 . S
H410 C394 0.951 . S
H411 C396 0.951 . S
H412 C398 0.951 . S
H413 C399 0.950 . S
H414 C400 0.950 . S
H415 C401 0.950 . S
H416 C403 0.950 . S
H417 C404 0.951 . S
C418 C419 1.386 . S
C418 C420 1.383 . S
C418 H434 0.951 . S
C419 C418 1.386 . S
C419 C423 1.383 . S
C420 C418 1.383 . S
C420 C421 1.402 . S
C420 H435 0.951 . S
C421 C420 1.402 . S
C421 C422 1.375 . S
C421 C424 1.481 . S
C422 C421 1.375 . S
C422 C423 1.367 . S
C422 H436 0.951 . S
C423 C419 1.383 . S
C423 C422 1.367 . S
C423 H437 0.950 . S
C424 C421 1.481 . S
C424 C425 1.297 . S
C424 H438 0.950 . S
C425 C424 1.297 . S
C425 C426 1.479 . S
C425 H439 0.950 . S
C426 C425 1.479 . S
C426 C427 1.375 . S
C426 C432 1.404 . S
C427 C426 1.375 . S
C427 C428 1.369 . S
C427 H440 0.950 . S
C428 C427 1.369 . S
C428 C429 1.392 . S
C428 H441 0.951 . S
C429 C428 1.392 . S
C429 C431 1.384 . S
H430 C432 0.949 . S
C431 C429 1.384 . S
C431 C432 1.385 . S
C431 H433 0.950 . S
C432 C426 1.404 . S
C432 H430 0.949 . S
C432 C431 1.385 . S
H433 C431 0.950 . S
H434 C418 0.951 . S
H435 C420 0.951 . S
H436 C422 0.951 . S
H437 C423 0.950 . S
H438 C424 0.950 . S
H439 C425 0.950 . S
H440 C427 0.950 . S
H441 C428 0.951 . S
C442 C443 1.386 . S
C442 C444 1.383 . S
C442 H458 0.951 . S
C443 C442 1.386 . S
C443 C447 1.383 . S
C444 C442 1.383 . S
C444 C445 1.402 . S
C444 H459 0.951 . S
C445 C444 1.402 . S
C445 C446 1.375 . S
C445 C448 1.481 . S
C446 C445 1.375 . S
C446 C447 1.367 . S
C446 H460 0.951 . S
C447 C443 1.383 . S
C447 C446 1.367 . S
C447 H461 0.950 . S
C448 C445 1.481 . S
C448 C449 1.297 . S
C448 H462 0.950 . S
C449 C448 1.297 . S
C449 C450 1.479 . S
C449 H463 0.950 . S
C450 C449 1.479 . S
C450 C451 1.375 . S
C450 C456 1.404 . S
C451 C450 1.375 . S
C451 C452 1.369 . S
C451 H464 0.950 . S
C452 C451 1.369 . S
C452 C453 1.392 . S
C452 H465 0.951 . S
C453 C452 1.392 . S
C453 C455 1.384 . S
H454 C456 0.949 . S
C455 C453 1.384 . S
C455 C456 1.385 . S
C455 H457 0.950 . S
C456 C450 1.404 . S
C456 H454 0.949 . S
C456 C455 1.385 . S
H457 C455 0.950 . S
H458 C442 0.951 . S
H459 C444 0.951 . S
H460 C446 0.951 . S
H461 C447 0.950 . S
H462 C448 0.950 . S
H463 C449 0.950 . S
H464 C451 0.950 . S
H465 C452 0.951 . S
C466 C467 1.386 . S
C466 C468 1.383 . S
C466 H482 0.951 . S
C467 C466 1.386 . S
C467 C471 1.383 . S
C468 C466 1.383 . S
C468 C469 1.402 . S
C468 H483 0.951 . S
C469 C468 1.402 . S
C469 C470 1.375 . S
C469 C472 1.481 . S
C470 C469 1.375 . S
C470 C471 1.367 . S
C470 H484 0.951 . S
C471 C467 1.383 . S
C471 C470 1.367 . S
C471 H485 0.950 . S
C472 C469 1.481 . S
C472 C473 1.297 . S
C472 H486 0.950 . S
C473 C472 1.297 . S
C473 C474 1.479 . S
C473 H487 0.950 . S
C474 C473 1.479 . S
C474 C475 1.375 . S
C474 C480 1.404 . S
C475 C474 1.375 . S
C475 C476 1.369 . S
C475 H488 0.950 . S
C476 C475 1.369 . S
C476 C477 1.392 . S
C476 H489 0.951 . S
C477 C476 1.392 . S
C477 C479 1.384 . S
H478 C480 0.949 . S
C479 C477 1.384 . S
C479 C480 1.385 . S
C479 H481 0.950 . S
C480 C474 1.404 . S
C480 H478 0.949 . S
C480 C479 1.385 . S
H481 C479 0.950 . S
H482 C466 0.951 . S
H483 C468 0.951 . S
H484 C470 0.951 . S
H485 C471 0.950 . S
H486 C472 0.950 . S
H487 C473 0.950 . S
H488 C475 0.950 . S
H489 C476 0.951 . S
C213 C175 1.399 . S
C203 C135 1.537 . S
C227 C15 1.510 . S
C237 C199 1.411 . S
C251 C55 1.694 . S
C261 C178 1.529 . S
C275 C95 1.708 . S
C285 C196 1.567 . S
C309 C176 1.610 . S
C299 C2 1.646 . S
C333 C198 1.559 . S
C323 C42 1.592 . S
C347 C82 1.585 . S
C357 C177 1.483 . S
C371 C141 1.631 . S
C381 C197 1.483 . S
C405 C195 1.475 . S
C395 C61 1.549 . S
C429 C174 1.630 . S
C419 C101 1.661 . S
C453 C194 1.659 . S
C443 C122 1.669 . S
C467 C21 1.647 . S
C477 C173 1.630 . S
