# Generated by pormake.
# Topology ssa, (4,4)-cn, num edge types: 1
# Building blocks:
#     Node 0, Type 0, BuildingBlock: KOZSID_clean_sbu_0, # of connection points: 4
#     Node 1, Type 0, BuildingBlock: KOZSID_clean_sbu_0, # of connection points: 4
#     Node 2, Type 0, BuildingBlock: KOZSID_clean_sbu_0, # of connection points: 4
#     Node 3, Type 0, BuildingBlock: KOZSID_clean_sbu_0, # of connection points: 4
#     Node 4, Type 0, BuildingBlock: KOZSID_clean_sbu_0, # of connection points: 4
#     Node 5, Type 0, BuildingBlock: KOZSID_clean_sbu_0, # of connection points: 4
#     Node 6, Type 1, BuildingBlock: MUDLON_clean_sbu_0, # of connection points: 4
#     Node 7, Type 1, BuildingBlock: MUDLON_clean_sbu_0, # of connection points: 4
#     Node 8, Type 1, BuildingBlock: MUDLON_clean_sbu_0, # of connection points: 4
#     Node 9, Type 1, BuildingBlock: MUDLON_clean_sbu_0, # of connection points: 4
#     Node 10, Type 1, BuildingBlock: MUDLON_clean_sbu_0, # of connection points: 4
#     Node 11, Type 1, BuildingBlock: MUDLON_clean_sbu_0, # of connection points: 4
#     Edge 12, Type (0, 1), BuildingBlock: KIFKEQ_clean_linker_1, # of connection points: 2
#     Edge 13, Type (0, 1), BuildingBlock: KIFKEQ_clean_linker_1, # of connection points: 2
#     Edge 14, Type (0, 1), BuildingBlock: KIFKEQ_clean_linker_1, # of connection points: 2
#     Edge 15, Type (0, 1), BuildingBlock: KIFKEQ_clean_linker_1, # of connection points: 2
#     Edge 16, Type (0, 1), BuildingBlock: KIFKEQ_clean_linker_1, # of connection points: 2
#     Edge 17, Type (0, 1), BuildingBlock: KIFKEQ_clean_linker_1, # of connection points: 2
#     Edge 18, Type (0, 1), BuildingBlock: KIFKEQ_clean_linker_1, # of connection points: 2
#     Edge 19, Type (0, 1), BuildingBlock: KIFKEQ_clean_linker_1, # of connection points: 2
#     Edge 20, Type (0, 1), BuildingBlock: KIFKEQ_clean_linker_1, # of connection points: 2
#     Edge 21, Type (0, 1), BuildingBlock: KIFKEQ_clean_linker_1, # of connection points: 2
#     Edge 22, Type (0, 1), BuildingBlock: KIFKEQ_clean_linker_1, # of connection points: 2
#     Edge 23, Type (0, 1), BuildingBlock: KIFKEQ_clean_linker_1, # of connection points: 2
#     Edge 24, Type (0, 1), BuildingBlock: KIFKEQ_clean_linker_1, # of connection points: 2
#     Edge 25, Type (0, 1), BuildingBlock: KIFKEQ_clean_linker_1, # of connection points: 2
#     Edge 26, Type (0, 1), BuildingBlock: KIFKEQ_clean_linker_1, # of connection points: 2
#     Edge 27, Type (0, 1), BuildingBlock: KIFKEQ_clean_linker_1, # of connection points: 2
#     Edge 28, Type (0, 1), BuildingBlock: KIFKEQ_clean_linker_1, # of connection points: 2
#     Edge 29, Type (0, 1), BuildingBlock: KIFKEQ_clean_linker_1, # of connection points: 2
#     Edge 30, Type (0, 1), BuildingBlock: KIFKEQ_clean_linker_1, # of connection points: 2
#     Edge 31, Type (0, 1), BuildingBlock: KIFKEQ_clean_linker_1, # of connection points: 2
#     Edge 32, Type (0, 1), BuildingBlock: KIFKEQ_clean_linker_1, # of connection points: 2
#     Edge 33, Type (0, 1), BuildingBlock: KIFKEQ_clean_linker_1, # of connection points: 2
#     Edge 34, Type (0, 1), BuildingBlock: KIFKEQ_clean_linker_1, # of connection points: 2
#     Edge 35, Type (0, 1), BuildingBlock: KIFKEQ_clean_linker_1, # of connection points: 2
# Relax obj value: 0.015
# Max RMSD: 0.034
# Mean RMSD: 0.022
data_MOF--net-ssa--node1-KOZSID_clean_sbu_0--node2-MUDLON_clean_sbu_0--edge1-KIFKEQ_clean_linker_1
_symmetry_space_group_name_H-M    P1
_symmetry_Int_Tables_number       1
_symmetry_cell_setting            triclinic
loop_
_symmetry_equiv_pos_as_xyz
'x, y, z'
_cell_length_a     48.379042
_cell_length_b     49.754933
_cell_length_c     45.88496
_cell_angle_alpha  87.354871
_cell_angle_beta   90.281871
_cell_angle_gamma 122.96393
loop_
_atom_site_label
_atom_site_type_symbol
_atom_site_fract_x
_atom_site_fract_y
_atom_site_fract_z
_atom_type_partial_charge
C0 C 0.96278 0.53343 0.99957 0.0
C1 C 0.93336 0.52853 0.00981 0.0
C2 C 0.92651 0.51208 0.0362 0.0
C3 C 0.95213 0.50808 0.0406 0.0
N4 N 0.97525 0.52147 0.01889 0.0
Co5 Co 0.01609 0.52058 0.01612 0.0
N6 N 1.00296 0.49117 0.05206 0.0
C7 C 0.97502 0.47893 0.06839 0.0
C8 C 0.97312 0.46055 0.09237 0.0
C9 C 1.0016 0.46115 0.0915 0.0
C10 C 0.01934 0.4798 0.06675 0.0
N11 N 0.05742 0.52043 0.01376 0.0
C12 C 0.06881 0.50645 0.03201 0.0
C13 C 0.09908 0.51289 0.02227 0.0
C14 C 0.10756 0.53233 0.99757 0.0
C15 C 0.08203 0.5365 0.99346 0.0
N16 N 0.02852 0.54907 0.97956 0.0
C17 C 0.05619 0.56118 0.96292 0.0
C18 C 0.0567 0.57757 0.93786 0.0
C19 C 0.02721 0.57516 0.9381 0.0
C20 C 0.01045 0.55751 0.96348 0.0
N21 N 0.03983 0.55874 0.04072 0.0
C22 C 0.07784 0.60939 0.0785 0.0
C23 C 0.08858 0.61076 0.04986 0.0
C24 C 0.06947 0.5855 0.03161 0.0
C25 C 0.04672 0.58295 0.08718 0.0
C26 C 0.02823 0.55834 0.06808 0.0
N27 N 0.9926 0.48261 0.99166 0.0
C28 C 0.99105 0.45506 0.94888 0.0
C29 C 0.95771 0.43142 0.95406 0.0
C30 C 0.94245 0.43341 0.97898 0.0
C31 C 0.96022 0.45886 0.99739 0.0
C32 C 0.00784 0.48017 0.96775 0.0
H33 H 0.94715 0.4591 0.01594 0.0
H34 H 0.03301 0.49768 0.96221 0.0
H35 H 0.07965 0.58797 0.01042 0.0
H36 H 0.00499 0.53888 0.07635 0.0
C37 C 0.95281 0.48807 0.06251 0.0
C38 C 0.97667 0.54759 0.97054 0.0
C39 C 0.0524 0.48759 0.0591 0.0
C40 C 0.08017 0.55482 0.97046 0.0
H41 H 0.91787 0.5351 0.99879 0.0
H42 H 0.90459 0.50268 0.04979 0.0
H43 H 0.95396 0.4492 0.10921 0.0
H44 H 0.00878 0.44994 0.10791 0.0
H45 H 0.11369 0.50461 0.03214 0.0
H46 H 0.12975 0.54232 0.98424 0.0
H47 H 0.07568 0.58882 0.92087 0.0
H48 H 0.01864 0.58448 0.92108 0.0
H49 H 0.11198 0.63107 0.04153 0.0
H50 H 0.037 0.58045 0.10904 0.0
H51 H 0.00401 0.45483 0.92981 0.0
H52 H 0.91683 0.41542 0.9843 0.0
C53 C 0.5742 0.02322 0.56894 0.0
C54 C 0.57153 0.00517 0.59406 0.0
C55 C 0.54137 0.9772 0.59381 0.0
C56 C 0.52717 0.97969 0.56882 0.0
N57 N 0.54667 0.00738 0.55275 0.0
Co58 Co 0.53427 0.02187 0.51627 0.0
N59 N 0.48828 0.98251 0.51817 0.0
C60 C 0.47505 0.95864 0.53924 0.0
C61 C 0.4434 0.93416 0.53407 0.0
C62 C 0.4362 0.94248 0.50772 0.0
C63 C 0.46407 0.97159 0.4983 0.0
N64 N 0.52181 0.03607 0.47959 0.0
C65 C 0.49462 0.01963 0.46303 0.0
C66 C 0.4969 0.03734 0.43789 0.0
C67 C 0.52679 0.06572 0.43824 0.0
C68 C 0.54109 0.06373 0.46344 0.0
N69 N 0.58016 0.06137 0.51445 0.0
C70 C 0.59299 0.08565 0.49373 0.0
C71 C 0.62471 0.11004 0.49878 0.0
C72 C 0.63237 0.10122 0.52464 0.0
C73 C 0.60467 0.07192 0.53401 0.0
N74 N 0.54878 0.99921 0.49221 0.0
C75 C 0.5673 0.96664 0.456 0.0
C76 C 0.58016 0.9994 0.45118 0.0
C77 C 0.57033 0.01486 0.46902 0.0
C78 C 0.54543 0.95071 0.47987 0.0
C79 C 0.53697 0.96738 0.49773 0.0
N80 N 0.52029 0.04485 0.54061 0.0
C81 C 0.53014 0.09549 0.55511 0.0
C82 C 0.51354 0.08168 0.58195 0.0
C83 C 0.49797 0.04837 0.58637 0.0
C84 C 0.50179 0.03067 0.56575 0.0
C85 C 0.53245 0.07669 0.53474 0.0
H86 H 0.49036 0.00573 0.5711 0.0
H87 H 0.54535 0.0888 0.51485 0.0
H88 H 0.58038 0.03948 0.46336 0.0
H89 H 0.52049 0.95389 0.51566 0.0
C90 C 0.4943 0.95829 0.56183 0.0
C91 C 0.60219 0.05611 0.56244 0.0
C92 C 0.46727 0.98651 0.46932 0.0
C93 C 0.5738 0.08563 0.47078 0.0
H94 H 0.58882 0.01182 0.61151 0.0
H95 H 0.5304 0.95805 0.61065 0.0
H96 H 0.428 0.91214 0.54717 0.0
H97 H 0.41353 0.92815 0.49613 0.0
H98 H 0.4793 0.03003 0.42058 0.0
H99 H 0.53753 0.08484 0.42138 0.0
H100 H 0.64005 0.1321 0.48572 0.0
H101 H 0.65538 0.11522 0.53583 0.0
H102 H 0.59786 0.01341 0.43366 0.0
H103 H 0.53421 0.92529 0.48464 0.0
H104 H 0.54257 0.12098 0.54995 0.0
H105 H 0.48329 0.0358 0.60591 0.0
C106 C 0.57872 0.55788 0.96782 0.0
C107 C 0.58609 0.57562 0.94157 0.0
C108 C 0.56165 0.58124 0.93745 0.0
C109 C 0.54093 0.56663 0.96137 0.0
N110 N 0.55134 0.55312 0.98102 0.0
Co111 Co 0.52724 0.52595 0.01698 0.0
N112 N 0.48808 0.52869 0.0085 0.0
C113 C 0.48463 0.54461 0.9855 0.0
C114 C 0.45639 0.54467 0.98691 0.0
C115 C 0.44131 0.52865 0.01274 0.0
C116 C 0.46123 0.51952 0.02558 0.0
N117 N 0.50287 0.49817 0.05262 0.0
C118 C 0.47437 0.49151 0.06521 0.0
C119 C 0.46661 0.4724 0.09069 0.0
C120 C 0.4917 0.46771 0.09483 0.0
C121 C 0.51318 0.48402 0.07167 0.0
N122 N 0.56673 0.52386 0.02573 0.0
C123 C 0.57118 0.50969 0.04953 0.0
C124 C 0.59948 0.50967 0.04792 0.0
C125 C 0.61331 0.52371 0.02113 0.0
C126 C 0.5926 0.53158 0.00796 0.0
N127 N 0.54551 0.56469 0.04032 0.0
C128 C 0.56447 0.61686 0.07571 0.0
C129 C 0.56445 0.59009 0.08639 0.0
C130 C 0.55515 0.56463 0.06847 0.0
C131 C 0.55621 0.6176 0.04657 0.0
C132 C 0.54698 0.59158 0.02943 0.0
N133 N 0.50938 0.48737 0.9935 0.0
C134 C 0.51153 0.44161 0.98179 0.0
C135 C 0.50087 0.44203 0.95343 0.0
C136 C 0.49118 0.4635 0.94678 0.0
C137 C 0.49571 0.48583 0.96691 0.0
C138 C 0.51482 0.46377 1.00146 0.0
H139 H 0.48932 0.50249 0.95998 0.0
H140 H 0.52353 0.46241 0.0225 0.0
H141 H 0.55519 0.54483 0.07819 0.0
H142 H 0.54053 0.59356 0.00761 0.0
C143 C 0.50976 0.56175 0.96434 0.0
C144 C 0.59569 0.54238 0.9774 0.0
C145 C 0.45526 0.50468 0.055 0.0
C146 C 0.54526 0.49078 0.06969 0.0
H147 H 0.60596 0.58203 0.92625 0.0
H148 H 0.55822 0.5927 0.91841 0.0
H149 H 0.44856 0.55641 0.97171 0.0
H150 H 0.41892 0.52533 0.02161 0.0
H151 H 0.44572 0.46396 0.10539 0.0
H152 H 0.49489 0.45555 0.11344 0.0
H153 H 0.60759 0.49831 0.06327 0.0
H154 H 0.63499 0.52599 0.01176 0.0
H155 H 0.57048 0.58815 0.10883 0.0
H156 H 0.55657 0.63809 0.03696 0.0
H157 H 0.51906 0.42545 0.98858 0.0
H158 H 0.48123 0.464 0.92573 0.0
C159 C 0.9439 0.43646 0.52752 0.0
C160 C 0.91411 0.41466 0.5152 0.0
C161 C 0.91341 0.4284 0.48894 0.0
C162 C 0.94267 0.45773 0.48678 0.0
N163 N 0.96252 0.46299 0.50962 0.0
Co164 Co 0.00524 0.5039 0.51765 0.0
N165 N 1.00043 0.52714 0.48328 0.0
C166 C 0.97463 0.51557 0.46521 0.0
C167 C 0.97969 0.53657 0.44225 0.0
C168 C 0.01096 0.56258 0.44536 0.0
C169 C 0.02322 0.55583 0.47004 0.0
N170 N 0.04826 0.54459 0.52544 0.0
C171 C 0.06671 0.5713 0.5077 0.0
C172 C 0.09707 0.59251 0.51959 0.0
C173 C 0.09818 0.57834 0.54537 0.0
C174 C 0.06868 0.54933 0.54769 0.0
N175 N 0.0096 0.4807 0.55242 0.0
C176 C 0.03488 0.49242 0.57106 0.0
C177 C 0.02896 0.47203 0.59481 0.0
C178 C 0.99753 0.44633 0.59173 0.0
C179 C 0.98616 0.45263 0.56621 0.0
N180 N 0.02975 0.49212 0.49209 0.0
C181 C 0.07264 0.4914 0.4511 0.0
C182 C 0.08098 0.49679 0.48044 0.0
C183 C 0.05915 0.49659 0.50047 0.0
C184 C 0.04125 0.48365 0.44329 0.0
C185 C 0.02029 0.48387 0.46399 0.0
N186 N 0.98084 0.51582 0.54312 0.0
C187 C 0.97269 0.52933 0.59088 0.0
C188 C 0.93941 0.51691 0.58547 0.0
C189 C 0.92842 0.50715 0.5573 0.0
C190 C 0.94961 0.50756 0.53648 0.0
C191 C 0.99275 0.52845 0.56963 0.0
H192 H 0.93956 0.49948 0.51562 0.0
H193 H 0.01738 0.53689 0.5756 0.0
H194 H 0.06718 0.50141 0.52235 0.0
H195 H 0.99704 0.47844 0.45645 0.0
C196 C 0.94898 0.48311 0.46731 0.0
C197 C 0.95187 0.43319 0.55764 0.0
C198 C 0.05769 0.57555 0.47819 0.0
C199 C 0.06138 0.52438 0.56806 0.0
H200 H 0.89409 0.39217 0.52497 0.0
H201 H 0.89279 0.41932 0.47446 0.0
H202 H 0.96359 0.53245 0.42418 0.0
H203 H 0.02405 0.5833 0.43026 0.0
H204 H 0.11716 0.61505 0.51004 0.0
H205 H 0.11894 0.58716 0.55965 0.0
H206 H 0.04466 0.4764 0.61326 0.0
H207 H 0.98376 0.42616 0.60729 0.0
H208 H 0.10475 0.50238 0.48785 0.0
H209 H 0.03295 0.47789 0.42115 0.0
H210 H 0.98312 0.53875 0.61176 0.0
H211 H 0.90313 0.49763 0.55149 0.0
C212 C 0.44295 0.97802 0.06516 0.0
C213 C 0.4386 0.99003 0.09019 0.0
C214 C 0.46259 0.022 0.08924 0.0
C215 C 0.48003 0.02758 0.06375 0.0
N216 N 0.46786 1.00137 0.04784 0.0
Co217 Co 0.48753 0.99734 0.01125 0.0
N218 N 0.52709 0.04232 0.0129 0.0
C219 C 0.53298 0.0635 0.03334 0.0
C220 C 0.56072 0.09336 0.02757 0.0
C221 C 0.57294 0.09144 1.00158 0.0
C222 C 0.55197 0.06027 0.99299 0.0
N223 N 0.50734 0.99309 0.97483 0.0
C224 C 0.5343 0.01555 0.95872 0.0
C225 C 0.53871 0.00277 0.93424 0.0
C226 C 0.51306 0.97145 0.93437 0.0
C227 C 0.49461 0.9668 0.95891 0.0
N228 N 0.44784 0.95242 0.00965 0.0
C229 C 0.44074 0.93169 0.98849 0.0
C230 C 0.4137 0.9015 0.99509 0.0
C231 C 0.40362 0.90275 0.02248 0.0
C232 C 0.4251 0.93378 0.03098 0.0
N233 N 0.46521 0.01407 0.98695 0.0
C234 C 0.44098 0.04275 0.94919 0.0
C235 C 0.44 0.0154 0.94159 0.0
C236 C 0.45176 1.00135 0.96076 0.0
C237 C 0.45282 0.05457 0.97659 0.0
C238 C 0.46473 0.04004 0.99492 0.0
N239 N 0.50932 0.98036 0.03567 0.0
C240 C 0.51017 0.93377 0.05128 0.0
C241 C 0.5199 0.94527 0.07918 0.0
C242 C 0.52841 0.97656 0.08353 0.0
C243 C 0.52329 0.99369 0.06149 0.0
C244 C 0.50551 0.95178 0.02988 0.0
H245 H 0.52879 0.01683 0.06647 0.0
H246 H 0.49693 0.94124 0.00939 0.0
H247 H 0.45031 0.98063 0.95357 0.0
H248 H 0.47419 0.05086 0.01507 0.0
C249 C 0.51043 0.05558 0.05625 0.0
C250 C 0.42559 0.94384 0.06045 0.0
C251 C 0.55529 0.04951 0.96481 0.0
C252 C 0.46352 0.93932 0.96585 0.0
H253 H 0.42115 0.9766 0.10804 0.0
H254 H 0.46809 0.03865 0.10608 0.0
H255 H 0.57007 0.11446 0.04006 0.0
H256 H 0.59416 0.11118 0.98981 0.0
H257 H 0.55788 0.01513 0.91749 0.0
H258 H 0.5077 0.95451 0.91785 0.0
H259 H 0.40415 0.88041 0.98255 0.0
H260 H 0.38396 0.88261 0.0353 0.0
H261 H 0.43046 0.005 0.92078 0.0
H262 H 0.45415 0.07578 0.98347 0.0
H263 H 0.50489 0.91039 0.04623 0.0
H264 H 0.53671 0.98703 0.10449 0.0
C265 C 0.50305 0.57099 0.50695 0.0
C266 C 0.49375 0.59076 0.51744 0.0
C267 C 0.47798 0.57719 0.54367 0.0
C268 C 0.47826 0.54989 0.5477 0.0
N269 N 0.49398 0.54561 0.52591 0.0
Co270 Co 0.49761 0.50768 0.52168 0.0
N271 N 0.46668 0.48367 0.55583 0.0
C272 C 0.45101 0.4937 0.57202 0.0
C273 C 0.43177 0.47234 0.59435 0.0
C274 C 0.4357 0.44731 0.59255 0.0
C275 C 0.45723 0.45492 0.56913 0.0
N276 N 0.50221 0.47031 0.51795 0.0
C277 C 0.49034 0.4434 0.53549 0.0
C278 C 0.50095 0.42429 0.52607 0.0
C279 C 0.5209 0.44006 0.5021 0.0
C280 C 0.52129 0.46775 0.49827 0.0
N281 N 0.52717 0.53109 0.48665 0.0
C282 C 0.54267 0.52116 0.47005 0.0
C283 C 0.5591 0.54117 0.44608 0.0
C284 C 0.55275 0.56472 0.44683 0.0
C285 C 0.53267 0.55757 0.47127 0.0
N286 N 0.53608 0.52669 0.5483 0.0
C287 C 0.58798 0.54515 0.58808 0.0
C288 C 0.59151 0.54076 0.55876 0.0
C289 C 0.56565 0.53166 0.53954 0.0
C290 C 0.5585 0.54186 0.59667 0.0
C291 C 0.53326 0.53297 0.5766 0.0
N292 N 0.45948 0.48863 0.4952 0.0
C293 C 0.43481 0.46332 0.45013 0.0
C294 C 0.40931 0.46833 0.45379 0.0
C295 C 0.40861 0.48241 0.47924 0.0
C296 C 0.43355 0.49203 0.49962 0.0
C297 C 0.45942 0.47358 0.47089 0.0
H298 H 0.43179 0.50283 0.5185 0.0
H299 H 0.47866 0.46985 0.46639 0.0
H300 H 0.57016 0.52825 0.51783 0.0
H301 H 0.51144 0.53064 0.58475 0.0
C302 C 0.45811 0.52484 0.56794 0.0
C303 C 0.51758 0.57531 0.47787 0.0
C304 C 0.47045 0.4357 0.56209 0.0
C305 C 0.53936 0.49181 0.47652 0.0
H306 H 0.4963 0.61182 0.50673 0.0
H307 H 0.46539 0.58491 0.55701 0.0
H308 H 0.41783 0.4753 0.61082 0.0
H309 H 0.42496 0.42645 0.60752 0.0
H310 H 0.49536 0.40162 0.53591 0.0
H311 H 0.534 0.4325 0.48931 0.0
H312 H 0.57283 0.53823 0.42937 0.0
H313 H 0.5609 0.58428 0.43066 0.0
H314 H 0.61415 0.54405 0.55051 0.0
H315 H 0.55433 0.54509 0.61904 0.0
H316 H 0.43656 0.45263 0.43075 0.0
H317 H 0.38903 0.48627 0.48335 0.0
Mg318 Mg 0.24262 0.4777 0.24274 0.0
C319 C 0.17378 0.44817 0.21592 0.0
O320 O 0.16586 0.45373 0.24123 0.0
C321 C 0.25566 0.433 0.2882 0.0
O322 O 0.22618 0.4069 0.28599 0.0
C323 C 0.20945 0.47968 0.29298 0.0
O324 O 0.2034 0.45067 0.29136 0.0
O325 O 0.22756 0.50068 0.27294 0.0
O326 O 0.20175 0.4517 0.21258 0.0
O327 O 0.28415 0.50281 0.21147 0.0
C328 C 0.285 0.48073 0.19924 0.0
O329 O 0.26247 0.45079 0.20725 0.0
O330 O 0.26356 0.45843 0.27316 0.0
Mg331 Mg 0.76607 0.24228 0.76031 0.0
C332 C 0.73735 0.17795 0.73175 0.0
O333 O 0.71763 0.16696 0.75485 0.0
C334 C 0.82652 0.26524 0.80505 0.0
O335 O 0.82432 0.23776 0.80475 0.0
C336 C 0.72576 0.1999 0.80975 0.0
O337 O 0.75293 0.19995 0.80919 0.0
O338 O 0.72261 0.21714 0.79024 0.0
O339 O 0.7621 0.20688 0.73068 0.0
O340 O 0.77321 0.27868 0.72665 0.0
C341 C 0.79714 0.30776 0.72838 0.0
O342 O 0.81164 0.31707 0.7535 0.0
O343 O 0.80761 0.26991 0.78932 0.0
Mg344 Mg 0.55537 0.78071 0.2741 0.0
C345 C 0.51907 0.81062 0.25123 0.0
O346 O 0.52924 0.82481 0.27601 0.0
C347 C 0.51589 0.71499 0.31069 0.0
O348 O 0.50077 0.70178 0.28659 0.0
C349 C 0.5942 0.82785 0.32078 0.0
O350 O 0.59122 0.80232 0.33385 0.0
O351 O 0.58546 0.82652 0.2944 0.0
O352 O 0.52224 0.78738 0.24661 0.0
O353 O 0.57982 0.76652 0.24454 0.0
C354 C 0.58122 0.77344 0.21731 0.0
O355 O 0.57219 0.79293 0.20826 0.0
O356 O 0.53605 0.74522 0.3107 0.0
Mg357 Mg 0.76875 0.53637 0.78246 0.0
C358 C 0.76089 0.57029 0.72938 0.0
O359 O 0.78159 0.56393 0.71834 0.0
C360 C 0.80807 0.53708 0.83184 0.0
O361 O 0.77973 0.50936 0.8343 0.0
C362 C 0.70007 0.50665 0.8091 0.0
O363 O 0.69504 0.51675 0.7839 0.0
O364 O 0.72695 0.50817 0.81269 0.0
O365 O 0.75516 0.56593 0.75684 0.0
O366 O 0.77677 0.51121 0.74938 0.0
C367 C 0.7943 0.49941 0.75249 0.0
O368 O 0.80424 0.497 0.7786 0.0
O369 O 0.81212 0.55672 0.81079 0.0
Mg370 Mg 0.26639 0.78359 0.28432 0.0
C371 C 0.22724 0.74649 0.23778 0.0
O372 O 0.2458 0.73638 0.24759 0.0
C373 C 0.30307 0.82196 0.33322 0.0
O374 O 0.30263 0.79531 0.33551 0.0
C375 C 0.21228 0.72396 0.31668 0.0
O376 O 0.19558 0.73088 0.29869 0.0
O377 O 0.2437 0.74133 0.31529 0.0
O378 O 0.22918 0.76991 0.25024 0.0
O379 O 0.30731 0.79407 0.25517 0.0
C380 C 0.33168 0.823 0.25143 0.0
O381 O 0.33522 0.84411 0.26973 0.0
O382 O 0.28726 0.82513 0.31239 0.0
Mg383 Mg 0.47265 0.24623 0.76362 0.0
C384 C 0.5043 0.21063 0.74272 0.0
O385 O 0.49444 0.19534 0.76843 0.0
C386 C 0.50824 0.31076 0.79417 0.0
O387 O 0.51276 0.32347 0.76752 0.0
C388 C 0.43124 0.19998 0.81348 0.0
O389 O 0.44064 0.22718 0.82523 0.0
O390 O 0.43738 0.20046 0.78645 0.0
O391 O 0.50166 0.2344 0.73704 0.0
O392 O 0.45473 0.26674 0.73139 0.0
C393 C 0.4768 0.28448 0.71197 0.0
O394 O 0.50543 0.28743 0.71361 0.0
O395 O 0.49569 0.28072 0.79794 0.0
H396 H 0.10949 0.52775 0.08681 0.0
H397 H 0.03603 0.42735 0.07803 0.0
H398 H 0.13859 0.51363 0.12193 0.0
H399 H 0.06428 0.41325 0.11441 0.0
H400 H 0.10793 0.42462 0.21414 0.0
H401 H 0.07824 0.43093 0.17368 0.0
H402 H 0.16652 0.47633 0.11961 0.0
H403 H 0.196 0.46909 0.1596 0.0
C404 C 0.09967 0.50268 0.09237 0.0
C405 C 0.07041 0.47864 0.07989 0.0
C406 C 0.11628 0.49461 0.1124 0.0
C407 C 0.10361 0.46237 0.12084 0.0
C408 C 0.07447 0.43827 0.10828 0.0
C409 C 0.05832 0.44633 0.08762 0.0
C410 C 0.12074 0.43512 0.19336 0.0
C411 C 0.15427 0.44622 0.19006 0.0
C412 C 0.10376 0.43875 0.17026 0.0
C413 C 0.1202 0.45429 0.14366 0.0
C414 C 0.15334 0.46432 0.13995 0.0
C415 C 0.1701 0.45993 0.16278 0.0
H416 H 0.64587 0.04458 0.58945 0.0
H417 H 0.61326 0.10987 0.58679 0.0
H418 H 0.68324 0.0739 0.62911 0.0
H419 H 0.65169 0.14006 0.62535 0.0
H420 H 0.74795 0.20207 0.67525 0.0
H421 H 0.71837 0.17298 0.63233 0.0
H422 H 0.66969 0.08393 0.68433 0.0
H423 H 0.69845 0.11304 0.72753 0.0
C424 C 0.64682 0.06525 0.59732 0.0
C425 C 0.62631 0.07467 0.58548 0.0
C426 C 0.66826 0.08206 0.61983 0.0
C427 C 0.67037 0.10925 0.6302 0.0
C428 C 0.65073 0.11933 0.6176 0.0
C429 C 0.62873 0.10206 0.59564 0.0
C430 C 0.73162 0.17619 0.67739 0.0
C431 C 0.72558 0.15982 0.7048 0.0
C432 C 0.71449 0.15962 0.65287 0.0
C433 C 0.69164 0.12627 0.65509 0.0
C434 C 0.68726 0.10962 0.68201 0.0
C435 C 0.70375 0.12627 0.70669 0.0
H436 H 0.53407 0.64979 0.0772 0.0
H437 H 0.61062 0.643 0.1186 0.0
H438 H 0.5435 0.69064 0.11024 0.0
H439 H 0.61985 0.68386 0.15197 0.0
H440 H 0.5911 0.72458 0.22812 0.0
H441 H 0.59091 0.68925 0.19284 0.0
H442 H 0.58342 0.74567 0.12262 0.0
H443 H 0.58309 0.78066 0.15783 0.0
C444 C 0.55333 0.65738 0.09301 0.0
C445 C 0.57161 0.64306 0.09512 0.0
C446 C 0.55873 0.68085 0.11202 0.0
C447 C 0.58252 0.69065 0.13374 0.0
C448 C 0.60111 0.67664 0.13569 0.0
C449 C 0.59576 0.65317 0.11658 0.0
C450 C 0.58999 0.72979 0.20512 0.0
C451 C 0.58677 0.7553 0.19586 0.0
C452 C 0.58996 0.70956 0.18486 0.0
C453 C 0.5867 0.71436 0.15491 0.0
C454 C 0.5853 0.74091 0.14557 0.0
C455 C 0.58535 0.76112 0.16578 0.0
H456 H 0.88351 0.51881 0.58135 0.0
H457 H 0.94137 0.50354 0.64401 0.0
H458 H 0.84398 0.50783 0.61955 0.0
H459 H 0.90402 0.49646 0.68275 0.0
H460 H 0.82282 0.46488 0.74814 0.0
H461 H 0.8544 0.46513 0.70674 0.0
H462 H 0.83462 0.52913 0.6577 0.0
H463 H 0.80117 0.5265 0.69791 0.0
C464 C 0.88807 0.51333 0.60326 0.0
C465 C 0.91604 0.51233 0.60932 0.0
C466 C 0.86549 0.50753 0.62545 0.0
C467 C 0.87061 0.50145 0.65462 0.0
C468 C 0.89864 0.50051 0.66067 0.0
C469 C 0.92074 0.50546 0.63836 0.0
C470 C 0.82471 0.47837 0.72819 0.0
C471 C 0.80954 0.4957 0.72636 0.0
C472 C 0.84322 0.47893 0.70451 0.0
C473 C 0.84778 0.49761 0.67871 0.0
C474 C 0.83151 0.51399 0.67674 0.0
C475 C 0.81232 0.51267 0.70005 0.0
H476 H 0.36162 0.89755 0.07638 0.0
H477 H 0.46179 0.93909 0.1031 0.0
H478 H 0.34183 0.86355 0.12155 0.0
H479 H 0.44247 0.90489 0.14793 0.0
H480 H 0.3901 0.87944 0.23967 0.0
H481 H 0.41433 0.90456 0.1919 0.0
H482 H 0.3392 0.81914 0.151 0.0
H483 H 0.3147 0.79397 0.19905 0.0
C484 C 0.37939 0.89871 0.0916 0.0
C485 C 0.41324 0.92053 0.08615 0.0
C486 C 0.36814 0.87924 0.11743 0.0
C487 C 0.39056 0.88144 0.13843 0.0
C488 C 0.4245 0.90272 0.13242 0.0
C489 C 0.43564 0.92212 0.10666 0.0
C490 C 0.3792 0.86568 0.22055 0.0
C491 C 0.35039 0.83477 0.22321 0.0
C492 C 0.39315 0.88007 0.1931 0.0
C493 C 0.37851 0.86402 0.16753 0.0
C494 C 0.35082 0.83232 0.17025 0.0
C495 C 0.33701 0.81776 0.19781 0.0
H496 H 0.41761 0.37588 0.57867 0.0
H497 H 0.52022 0.44344 0.59541 0.0
H498 H 0.41644 0.33729 0.61499 0.0
H499 H 0.51928 0.40537 0.63165 0.0
H500 H 0.51805 0.31871 0.66601 0.0
H501 H 0.51434 0.35372 0.63003 0.0
H502 H 0.42193 0.32925 0.66916 0.0
H503 H 0.42547 0.29347 0.70555 0.0
C504 C 0.43978 0.38239 0.59031 0.0
C505 C 0.46903 0.41237 0.5844 0.0
C506 C 0.43912 0.36049 0.61111 0.0
C507 C 0.46781 0.3682 0.62604 0.0
C508 C 0.4969 0.39849 0.62021 0.0
C509 C 0.49748 0.42032 0.5996 0.0
C510 C 0.49678 0.32056 0.66703 0.0
C511 C 0.47219 0.30349 0.68891 0.0
C512 C 0.49478 0.34083 0.64641 0.0
C513 C 0.46814 0.34468 0.64701 0.0
C514 C 0.44277 0.32673 0.66816 0.0
C515 C 0.44481 0.30632 0.689 0.0
H516 H 0.5713 0.91402 0.4688 0.0
H517 H 0.58348 0.97959 0.39722 0.0
H518 H 0.582 0.88414 0.43558 0.0
H519 H 0.59794 0.95202 0.36487 0.0
H520 H 0.57912 0.8723 0.3066 0.0
H521 H 0.57555 0.90724 0.33906 0.0
H522 H 0.61836 0.87959 0.40768 0.0
H523 H 0.61946 0.84258 0.37549 0.0
C524 C 0.57647 0.92234 0.44608 0.0
C525 C 0.57614 0.94931 0.43596 0.0
C526 C 0.58339 0.90548 0.42699 0.0
C527 C 0.59094 0.91543 0.39725 0.0
C528 C 0.59165 0.943 0.38737 0.0
C529 C 0.58392 0.95937 0.40627 0.0
C530 C 0.58817 0.87393 0.32849 0.0
C531 C 0.59916 0.85426 0.33853 0.0
C532 C 0.58632 0.89427 0.34725 0.0
C533 C 0.59622 0.8962 0.37642 0.0
C534 C 0.60948 0.87817 0.38576 0.0
C535 C 0.61059 0.85721 0.36714 0.0
H536 H 0.65983 0.56149 0.96759 0.0
H537 H 0.56161 0.49994 0.93615 0.0
H538 H 0.68154 0.54574 0.92841 0.0
H539 H 0.58286 0.48357 0.89722 0.0
H540 H 0.64293 0.50548 0.81026 0.0
H541 H 0.61566 0.50933 0.8528 0.0
H542 H 0.68283 0.50116 0.9091 0.0
H543 H 0.71047 0.49771 0.8665 0.0
C544 C 0.64285 0.54397 0.95268 0.0
C545 C 0.60902 0.53139 0.95509 0.0
C546 C 0.65518 0.53486 0.93029 0.0
C547 C 0.63388 0.51322 0.90976 0.0
C548 C 0.59993 0.50037 0.91255 0.0
C549 C 0.5877 0.50949 0.93491 0.0
C550 C 0.65148 0.50381 0.83172 0.0
C551 C 0.67917 0.50171 0.8349 0.0
C552 C 0.63576 0.50594 0.85617 0.0
C553 C 0.64742 0.50608 0.88434 0.0
C554 C 0.67369 0.50178 0.88765 0.0
C555 C 0.68933 0.4995 0.86321 0.0
H556 H 0.09944 0.64105 0.47486 0.0
H557 H 0.07303 0.55636 0.42977 0.0
H558 H 0.14085 0.6746 0.43652 0.0
H559 H 0.1137 0.58987 0.39092 0.0
H560 H 0.15177 0.66952 0.31324 0.0
H561 H 0.11704 0.63198 0.35312 0.0
H562 H 0.19555 0.68449 0.41324 0.0
H563 H 0.23077 0.72188 0.37296 0.0
C564 C 0.1029 0.62966 0.45693 0.0
C565 C 0.08347 0.59617 0.45541 0.0
C566 C 0.12656 0.64879 0.43504 0.0
C567 C 0.13068 0.63483 0.41085 0.0
C568 C 0.1111 0.60128 0.40932 0.0
C569 C 0.08785 0.58215 0.43146 0.0
C570 C 0.16189 0.67263 0.33485 0.0
C571 C 0.19398 0.69857 0.34 0.0
C572 C 0.14202 0.65111 0.35766 0.0
C573 C 0.15351 0.65542 0.38631 0.0
C574 C 0.18603 0.68073 0.39137 0.0
C575 C 0.20625 0.70192 0.36832 0.0
H576 H 0.45807 0.05773 0.8914 0.0
H577 H 0.40324 0.06715 0.95962 0.0
H578 H 0.44818 0.09099 0.85815 0.0
H579 H 0.39233 0.09971 0.92611 0.0
H580 H 0.42552 0.19417 0.87292 0.0
H581 H 0.42195 0.15212 0.90477 0.0
H582 H 0.41138 0.09799 0.8298 0.0
H583 H 0.41636 0.14097 0.79771 0.0
C584 C 0.44319 0.0663 0.89907 0.0
C585 C 0.43161 0.05998 0.92818 0.0
C586 C 0.43736 0.08531 0.87994 0.0
C587 C 0.41952 0.09829 0.88936 0.0
C588 C 0.40671 0.09073 0.91819 0.0
C589 C 0.41286 0.07198 0.93741 0.0
C590 C 0.42182 0.17306 0.86317 0.0
C591 C 0.42167 0.17121 0.83268 0.0
C592 C 0.41959 0.14873 0.88154 0.0
C593 C 0.41682 0.12168 0.86995 0.0
C594 C 0.41429 0.11878 0.83951 0.0
C595 C 0.41678 0.1433 0.82108 0.0
H596 H 0.38646 0.50481 0.43287 0.0
H597 H 0.37699 0.41447 0.42172 0.0
H598 H 0.34883 0.49396 0.393 0.0
H599 H 0.3395 0.40378 0.38136 0.0
H600 H 0.24658 0.38661 0.32969 0.0
H601 H 0.28269 0.39323 0.37028 0.0
H602 H 0.35232 0.49106 0.3393 0.0
H603 H 0.31678 0.48465 0.29911 0.0
C604 C 0.37605 0.48245 0.42213 0.0
C605 C 0.38476 0.46053 0.43052 0.0
C606 C 0.35474 0.47637 0.39905 0.0
C607 C 0.34136 0.4481 0.38384 0.0
C608 C 0.3493 0.42571 0.3927 0.0
C609 C 0.37096 0.43196 0.41566 0.0
C610 C 0.26976 0.40939 0.33138 0.0
C611 C 0.27855 0.43512 0.31118 0.0
C612 C 0.29044 0.41318 0.35462 0.0
C613 C 0.32014 0.44284 0.35826 0.0
C614 C 0.32933 0.46811 0.3375 0.0
C615 C 0.30893 0.4643 0.31428 0.0
H616 H 0.89493 0.40725 0.93539 0.0
H617 H 0.97763 0.3974 0.92491 0.0
H618 H 0.86458 0.36678 0.89986 0.0
H619 H 0.94749 0.35745 0.88859 0.0
H620 H 0.86734 0.26308 0.84599 0.0
H621 H 0.89938 0.30235 0.88247 0.0
H622 H 0.86697 0.36254 0.84751 0.0
H623 H 0.8349 0.32352 0.81158 0.0
C624 C 0.90658 0.39629 0.92568 0.0
C625 C 0.93879 0.40568 0.93308 0.0
C626 C 0.8893 0.37332 0.905 0.0
C627 C 0.90366 0.35899 0.89112 0.0
C628 C 0.93561 0.36786 0.89892 0.0
C629 C 0.953 0.391 0.91955 0.0
C630 C 0.86726 0.28481 0.84597 0.0
C631 C 0.84834 0.28995 0.82585 0.0
C632 C 0.88569 0.30736 0.86686 0.0
C633 C 0.88547 0.33548 0.86819 0.0
C634 C 0.86721 0.3409 0.84757 0.0
C635 C 0.84897 0.31853 0.82673 0.0
H636 H 0.9788 0.60014 0.94594 0.0
H637 H 0.92557 0.49715 0.94459 0.0
H638 H 0.93978 0.60049 0.91156 0.0
H639 H 0.88687 0.49723 0.91023 0.0
H640 H 0.80118 0.50302 0.88209 0.0
H641 H 0.84351 0.5077 0.91387 0.0
H642 H 0.91805 0.5888 0.86043 0.0
H643 H 0.87499 0.58425 0.82822 0.0
C644 C 0.959 0.57767 0.93789 0.0
C645 C 0.95509 0.5486 0.94775 0.0
C646 C 0.93673 0.57784 0.91821 0.0
C647 C 0.90996 0.54887 0.90832 0.0
C648 C 0.90681 0.51995 0.91775 0.0
C649 C 0.92903 0.51983 0.93727 0.0
C650 C 0.82653 0.52202 0.87699 0.0
C651 C 0.83463 0.54307 0.85233 0.0
C652 C 0.85091 0.52455 0.89522 0.0
C653 C 0.88431 0.54819 0.88945 0.0
C654 C 0.89253 0.57024 0.86547 0.0
C655 C 0.8679 0.56767 0.84703 0.0
H656 H 0.41664 0.98841 0.44395 0.0
H657 H 0.4668 0.93869 0.44301 0.0
H658 H 0.3758 0.95041 0.41012 0.0
H659 H 0.42665 0.90108 0.40918 0.0
H660 H 0.3295 0.81615 0.38342 0.0
H661 H 0.36905 0.85783 0.41404 0.0
H662 H 0.36574 0.92908 0.35958 0.0
H663 H 0.32529 0.88666 0.32854 0.0
C664 C 0.41921 0.96971 0.436 0.0
C665 C 0.44484 0.96645 0.44592 0.0
C666 C 0.3959 0.94797 0.41666 0.0
C667 C 0.39762 0.92238 0.40714 0.0
C668 C 0.4241 0.92006 0.41642 0.0
C669 C 0.4473 0.94172 0.4356 0.0
C670 C 0.33693 0.84063 0.37787 0.0
C671 C 0.3243 0.84797 0.35325 0.0
C672 C 0.35992 0.86467 0.39542 0.0
C673 C 0.37125 0.897 0.38901 0.0
C674 C 0.35764 0.90442 0.36512 0.0
C675 C 0.33442 0.88013 0.34736 0.0
H676 H 0.49226 0.38235 0.96037 0.0
H677 H 0.51302 0.45626 0.89434 0.0
H678 H 0.49885 0.35239 0.924 0.0
H679 H 0.51619 0.42478 0.85752 0.0
H680 H 0.5461 0.37602 0.79754 0.0
H681 H 0.5465 0.40758 0.83679 0.0
H682 H 0.47547 0.32003 0.88582 0.0
H683 H 0.47707 0.28887 0.84754 0.0
C684 C 0.49801 0.39226 0.93812 0.0
C685 C 0.50203 0.42198 0.93062 0.0
C686 C 0.50131 0.37467 0.91698 0.0
C687 C 0.50806 0.38586 0.88748 0.0
C688 C 0.51161 0.41537 0.87993 0.0
C689 C 0.50896 0.43324 0.90115 0.0
C690 C 0.53106 0.3636 0.81699 0.0
C691 C 0.5116 0.32993 0.81938 0.0
C692 C 0.5309 0.3817 0.83943 0.0
C693 C 0.5106 0.36661 0.86461 0.0
C694 C 0.49185 0.33281 0.8672 0.0
C695 C 0.49264 0.31478 0.84507 0.0
H696 H 0.11625 0.47256 0.45708 0.0
H697 H 0.08333 0.51644 0.39463 0.0
H698 H 0.1538 0.47522 0.42035 0.0
H699 H 0.11969 0.51743 0.35732 0.0
H700 H 0.20607 0.53281 0.30062 0.0
H701 H 0.17641 0.53964 0.33998 0.0
H702 H 0.14666 0.4464 0.37814 0.0
H703 H 0.17646 0.44006 0.33999 0.0
C704 C 0.1171 0.48294 0.43557 0.0
C705 C 0.09637 0.49389 0.4288 0.0
C706 C 0.13845 0.48418 0.41436 0.0
C707 C 0.13951 0.49616 0.38569 0.0
C708 C 0.11965 0.50817 0.37915 0.0
C709 C 0.09838 0.50709 0.40046 0.0
C710 C 0.19348 0.51405 0.31767 0.0
C711 C 0.19363 0.48591 0.31708 0.0
C712 C 0.17632 0.51783 0.34009 0.0
C713 C 0.15924 0.49362 0.36238 0.0
C714 C 0.15999 0.46584 0.3618 0.0
C715 C 0.17694 0.46209 0.33961 0.0
H716 H 0.62233 0.08298 0.96683 0.0
H717 H 0.54318 0.06834 0.91202 0.0
H718 H 0.66257 0.1209 0.92991 0.0
H719 H 0.58332 0.10538 0.8742 0.0
H720 H 0.66743 0.19559 0.82247 0.0
H721 H 0.6258 0.16051 0.86024 0.0
H722 H 0.68309 0.12026 0.88378 0.0
H723 H 0.72449 0.15547 0.84725 0.0
C724 C 0.61365 0.08797 0.94677 0.0
C725 C 0.57978 0.07295 0.94226 0.0
C726 C 0.63663 0.10949 0.92544 0.0
C727 C 0.62633 0.11617 0.8988 0.0
C728 C 0.59226 0.10119 0.89447 0.0
C729 C 0.56926 0.0798 0.91598 0.0
C730 C 0.67105 0.17928 0.83582 0.0
C731 C 0.69949 0.17863 0.83191 0.0
C732 C 0.64713 0.15903 0.85739 0.0
C733 C 0.65114 0.13768 0.87543 0.0
C734 C 0.67938 0.13684 0.87099 0.0
C735 C 0.70316 0.15703 0.84974 0.0
H736 H 0.54566 0.64028 0.47601 0.0
H737 H 0.48575 0.55661 0.42656 0.0
H738 H 0.54168 0.67354 0.43784 0.0
H739 H 0.48423 0.58999 0.38678 0.0
H740 H 0.46616 0.65308 0.32651 0.0
H741 H 0.46439 0.61966 0.36806 0.0
H742 H 0.56069 0.69754 0.39299 0.0
H743 H 0.56104 0.73115 0.35304 0.0
C744 C 0.53154 0.62907 0.45687 0.0
C745 C 0.51541 0.59586 0.45446 0.0
C746 C 0.5297 0.64818 0.43462 0.0
C747 C 0.5127 0.63476 0.40879 0.0
C748 C 0.49693 0.60138 0.40639 0.0
C749 C 0.49809 0.58218 0.42903 0.0
C750 C 0.48667 0.66304 0.3412 0.0
C751 C 0.51359 0.69481 0.33658 0.0
C752 C 0.48589 0.64379 0.36493 0.0
C753 C 0.51244 0.6556 0.38422 0.0
C754 C 0.5393 0.68752 0.37938 0.0
C755 C 0.53965 0.7069 0.35618 0.0
H756 H 0.50891 0.07008 0.64178 0.0
H757 H 0.5183 0.13979 0.57585 0.0
H758 H 0.50812 0.10199 0.67933 0.0
H759 H 0.5219 0.17367 0.61354 0.0
H760 H 0.49224 0.21356 0.68509 0.0
H761 H 0.49469 0.18308 0.64673 0.0
H762 H 0.53563 0.14491 0.70709 0.0
H763 H 0.53029 0.17357 0.74606 0.0
C764 C 0.51085 0.09218 0.63507 0.0
C765 C 0.51337 0.10182 0.60531 0.0
C766 C 0.51126 0.11111 0.65692 0.0
C767 C 0.51518 0.14089 0.64993 0.0
C768 C 0.51821 0.15077 0.62019 0.0
C769 C 0.51681 0.13139 0.5983 0.0
C770 C 0.50214 0.19893 0.69006 0.0
C771 C 0.51108 0.19598 0.71863 0.0
C772 C 0.50372 0.1814 0.6679 0.0
C773 C 0.51522 0.16103 0.67341 0.0
C774 C 0.52569 0.15941 0.70186 0.0
C775 C 0.52313 0.17624 0.72425 0.0
H776 H 0.38845 0.46777 0.05161 0.0
H777 H 0.46663 0.53923 0.10302 0.0
H778 H 0.34756 0.4652 0.08473 0.0
H779 H 0.42579 0.53622 0.13693 0.0
H780 H 0.3401 0.53882 0.17916 0.0
H781 H 0.38167 0.54695 0.14294 0.0
H782 H 0.32847 0.44461 0.13377 0.0
H783 H 0.28734 0.43663 0.16885 0.0
C784 C 0.39674 0.48296 0.07004 0.0
C785 C 0.43047 0.5037 0.07486 0.0
C786 C 0.37344 0.48145 0.08911 0.0
C787 C 0.38336 0.50042 0.11363 0.0
C788 C 0.41728 0.52157 0.11813 0.0
C789 C 0.44063 0.52311 0.09894 0.0
C790 C 0.33729 0.51819 0.16918 0.0
C791 C 0.31031 0.48712 0.17691 0.0
C792 C 0.36116 0.52279 0.14859 0.0
C793 C 0.35829 0.49642 0.13525 0.0
C794 C 0.33122 0.46553 0.14306 0.0
C795 C 0.30765 0.46097 0.16348 0.0
H796 H 0.91134 0.36807 0.56788 0.0
H797 H 0.93364 0.45782 0.59927 0.0
H798 H 0.87019 0.33904 0.60738 0.0
H799 H 0.89173 0.4293 0.63805 0.0
H800 H 0.84946 0.36999 0.72489 0.0
H801 H 0.88392 0.40036 0.68242 0.0
H802 H 0.81785 0.32314 0.62793 0.0
H803 H 0.78374 0.29216 0.6709 0.0
C804 C 0.9069 0.38149 0.58299 0.0
C805 C 0.92534 0.41512 0.58048 0.0
C806 C 0.88319 0.36494 0.60554 0.0
C807 C 0.8774 0.3817 0.62609 0.0
C808 C 0.89565 0.41546 0.62303 0.0
C809 C 0.91948 0.4319 0.60066 0.0
C810 C 0.84187 0.35961 0.70382 0.0
C811 C 0.81386 0.32844 0.70148 0.0
C812 C 0.86169 0.37718 0.67928 0.0
C813 C 0.85406 0.3642 0.65157 0.0
C814 C 0.82497 0.33372 0.64895 0.0
C815 C 0.80512 0.31606 0.67358 0.0
H816 H 0.56175 0.96133 0.1254 0.0
H817 H 0.47432 0.88097 0.08976 0.0
H818 H 0.55712 0.92696 0.16728 0.0
H819 H 0.47033 0.84654 0.13131 0.0
H820 H 0.51997 0.86595 0.25188 0.0
H821 H 0.51852 0.89731 0.21024 0.0
H822 H 0.502 0.82368 0.15304 0.0
H823 H 0.50353 0.79213 0.19477 0.0
C824 C 0.54155 0.93639 0.12642 0.0
C825 C 0.51858 0.92401 0.10397 0.0
C826 C 0.53887 0.91669 0.15048 0.0
C827 C 0.51328 0.88403 0.15265 0.0
C828 C 0.49052 0.8715 0.13012 0.0
C829 C 0.49301 0.89126 0.10618 0.0
C830 C 0.51548 0.8561 0.23054 0.0
C831 C 0.51208 0.82654 0.22672 0.0
C832 C 0.51496 0.87427 0.20662 0.0
C833 C 0.51069 0.86323 0.17829 0.0
C834 C 0.50534 0.83284 0.17461 0.0
C835 C 0.50617 0.81474 0.19855 0.0
H836 H 0.62778 0.52167 0.58971 0.0
H837 H 0.60806 0.58376 0.63539 0.0
H838 H 0.67103 0.53272 0.62356 0.0
H839 H 0.65128 0.59433 0.66984 0.0
H840 H 0.7053 0.57013 0.74311 0.0
H841 H 0.66445 0.56691 0.70925 0.0
H842 H 0.72597 0.57661 0.63646 0.0
H843 H 0.76644 0.57949 0.67006 0.0
C844 C 0.63289 0.53806 0.60671 0.0
C845 C 0.61444 0.55206 0.6094 0.0
C846 C 0.65778 0.54436 0.62625 0.0
C847 C 0.66499 0.56472 0.64932 0.0
C848 C 0.64632 0.57842 0.65241 0.0
C849 C 0.62144 0.57227 0.63266 0.0
C850 C 0.71043 0.57223 0.71988 0.0
C851 C 0.73911 0.57475 0.70939 0.0
C852 C 0.68696 0.57037 0.70044 0.0
C853 C 0.69158 0.57089 0.67008 0.0
C854 C 0.72119 0.57537 0.65968 0.0
C855 C 0.74459 0.5773 0.67902 0.0
H856 H 0.14504 0.64127 0.08199 0.0
H857 H 0.06074 0.63365 0.12324 0.0
H858 H 0.18057 0.67816 0.11795 0.0
H859 H 0.09652 0.66957 0.16045 0.0
H860 H 0.17955 0.75465 0.21258 0.0
H861 H 0.14324 0.72486 0.17232 0.0
H862 H 0.1882 0.67019 0.16846 0.0
H863 H 0.22409 0.69964 0.20741 0.0
C864 C 0.13399 0.64771 0.09845 0.0
C865 C 0.09976 0.63411 0.09956 0.0
C866 C 0.15445 0.66867 0.11942 0.0
C867 C 0.14142 0.67654 0.14246 0.0
C868 C 0.10743 0.66411 0.14302 0.0
C869 C 0.08685 0.64313 0.12186 0.0
C870 C 0.18169 0.73639 0.20291 0.0
C871 C 0.20491 0.72974 0.21325 0.0
C872 C 0.16081 0.71922 0.17998 0.0
C873 C 0.16303 0.69533 0.16684 0.0
C874 C 0.18618 0.68883 0.17743 0.0
C875 C 0.20673 0.70571 0.20012 0.0
loop_
_geom_bond_atom_site_label_1
_geom_bond_atom_site_label_2
_geom_bond_distance
_geom_bond_site_symmetry_2
_ccdc_geom_bond_type
C0 C1 1.443 . S
C0 N4 1.376 1_556 S
C0 C38 1.389 . S
C1 C0 1.443 . S
C1 C2 1.340 1_556 S
C1 H41 0.951 . S
C2 C1 1.340 1_554 S
C2 C3 1.439 . S
C2 H42 0.950 . S
C3 C2 1.439 . S
C3 N4 1.374 . S
C3 C37 1.395 . S
N4 C0 1.376 1_554 S
N4 C3 1.374 . S
N4 Co5 2.008 1_655 S
Co5 N4 2.008 1_455 S
Co5 N6 1.994 . S
Co5 N11 2.008 . S
Co5 N16 1.995 1_554 S
Co5 N21 2.282 . S
Co5 N27 2.282 1_454 S
N6 Co5 1.994 . S
N6 C7 1.357 1_455 S
N6 C10 1.404 . S
C7 N6 1.357 1_655 S
C7 C8 1.446 . S
C7 C37 1.391 . S
C8 C7 1.446 . S
C8 C9 1.339 1_655 S
C8 H43 0.949 . S
C9 C8 1.339 1_455 S
C9 C10 1.439 . S
C9 H44 0.950 . S
C10 N6 1.404 . S
C10 C9 1.439 . S
C10 C39 1.392 . S
N11 Co5 2.008 . S
N11 C12 1.376 . S
N11 C15 1.374 1_554 S
C12 N11 1.376 . S
C12 C13 1.443 . S
C12 C39 1.389 . S
C13 C12 1.443 . S
C13 C14 1.340 . S
C13 H45 0.951 . S
C14 C13 1.340 . S
C14 C15 1.439 1_554 S
C14 H46 0.950 1_554 S
C15 N11 1.374 1_556 S
C15 C14 1.439 1_556 S
C15 C40 1.395 . S
N16 Co5 1.995 1_556 S
N16 C17 1.376 . S
N16 C20 1.383 . S
C17 N16 1.376 . S
C17 C18 1.446 . S
C17 C40 1.391 . S
C18 C17 1.446 . S
C18 C19 1.339 . S
C18 H47 0.949 . S
C19 C18 1.339 . S
C19 C20 1.439 . S
C19 H48 0.950 . S
C20 N16 1.383 . S
C20 C19 1.439 . S
C20 C38 1.392 1_455 S
N21 Co5 2.282 . S
N21 C24 1.332 . S
N21 C26 1.332 . S
C22 C23 1.386 . S
C22 C25 1.388 . S
C23 C22 1.386 . S
C23 C24 1.382 . S
C23 H49 0.950 . S
C24 N21 1.332 . S
C24 C23 1.382 . S
C24 H35 0.952 . S
C25 C22 1.388 . S
C25 C26 1.382 . S
C25 H50 0.950 . S
C26 N21 1.332 . S
C26 C25 1.382 . S
C26 H36 0.948 . S
N27 Co5 2.282 1_656 S
N27 C31 1.332 . S
N27 C32 1.332 1_655 S
C28 C29 1.388 . S
C28 C32 1.382 1_655 S
C28 H51 0.950 . S
C29 C28 1.388 . S
C29 C30 1.386 . S
C30 C29 1.386 . S
C30 C31 1.382 . S
C30 H52 0.950 . S
C31 N27 1.332 . S
C31 C30 1.382 . S
C31 H33 0.952 1_556 S
C32 N27 1.332 1_455 S
C32 C28 1.382 1_455 S
C32 H34 0.948 . S
H33 C31 0.952 1_554 S
H34 C32 0.948 . S
H35 C24 0.952 . S
H36 C26 0.948 . S
C37 C3 1.395 . S
C37 C7 1.391 . S
C38 C0 1.389 . S
C38 C20 1.392 1_655 S
C39 C10 1.392 . S
C39 C12 1.389 . S
C40 C15 1.395 . S
C40 C17 1.391 . S
H41 C1 0.951 . S
H42 C2 0.950 . S
H43 C8 0.949 . S
H44 C9 0.950 . S
H45 C13 0.951 . S
H46 C14 0.950 1_556 S
H47 C18 0.949 . S
H48 C19 0.950 . S
H49 C23 0.950 . S
H50 C25 0.950 . S
H51 C28 0.950 . S
H52 C30 0.950 . S
C53 C54 1.443 . S
C53 N57 1.376 . S
C53 C91 1.389 . S
C54 C53 1.443 . S
C54 C55 1.340 1_545 S
C54 H94 0.951 . S
C55 C54 1.340 1_565 S
C55 C56 1.439 . S
C55 H95 0.950 . S
C56 C55 1.439 . S
C56 N57 1.374 1_565 S
C56 C90 1.395 . S
N57 C53 1.376 . S
N57 C56 1.374 1_545 S
N57 Co58 2.008 . S
Co58 N57 2.008 . S
Co58 N59 1.995 1_545 S
Co58 N64 2.008 . S
Co58 N69 1.995 . S
Co58 N74 2.282 1_545 S
Co58 N80 2.282 . S
N59 Co58 1.995 1_565 S
N59 C60 1.376 . S
N59 C63 1.383 . S
C60 N59 1.376 . S
C60 C61 1.446 . S
C60 C90 1.391 . S
C61 C60 1.446 . S
C61 C62 1.339 . S
C61 H96 0.949 . S
C62 C61 1.339 . S
C62 C63 1.439 . S
C62 H97 0.950 . S
C63 N59 1.383 . S
C63 C62 1.439 . S
C63 C92 1.392 . S
N64 Co58 2.008 . S
N64 C65 1.376 . S
N64 C68 1.374 . S
C65 N64 1.376 . S
C65 C66 1.443 . S
C65 C92 1.389 1_545 S
C66 C65 1.443 . S
C66 C67 1.340 . S
C66 H98 0.951 . S
C67 C66 1.340 . S
C67 C68 1.439 . S
C67 H99 0.950 . S
C68 N64 1.374 . S
C68 C67 1.439 . S
C68 C93 1.395 . S
N69 Co58 1.995 . S
N69 C70 1.376 . S
N69 C73 1.383 . S
C70 N69 1.376 . S
C70 C71 1.446 . S
C70 C93 1.391 . S
C71 C70 1.446 . S
C71 C72 1.339 . S
C71 H100 0.949 . S
C72 C71 1.339 . S
C72 C73 1.439 . S
C72 H101 0.950 . S
C73 N69 1.383 . S
C73 C72 1.439 . S
C73 C91 1.392 . S
N74 Co58 2.282 1_565 S
N74 C77 1.332 1_565 S
N74 C79 1.332 . S
C75 C76 1.386 . S
C75 C78 1.388 . S
C76 C75 1.386 . S
C76 C77 1.382 1_565 S
C76 H102 0.950 1_565 S
C77 N74 1.332 1_545 S
C77 C76 1.382 1_545 S
C77 H88 0.952 . S
C78 C75 1.388 . S
C78 C79 1.382 . S
C78 H103 0.950 . S
C79 N74 1.332 . S
C79 C78 1.382 . S
C79 H89 0.948 . S
N80 Co58 2.282 . S
N80 C84 1.332 . S
N80 C85 1.332 . S
C81 C82 1.388 . S
C81 C85 1.382 . S
C81 H104 0.950 . S
C82 C81 1.388 . S
C82 C83 1.386 . S
C83 C82 1.386 . S
C83 C84 1.382 . S
C83 H105 0.950 . S
C84 N80 1.332 . S
C84 C83 1.382 . S
C84 H86 0.944 1_545 S
C85 N80 1.332 . S
C85 C81 1.382 . S
C85 H87 0.948 . S
H86 C84 0.944 1_565 S
H87 C85 0.948 . S
H88 C77 0.952 . S
H89 C79 0.948 . S
C90 C56 1.395 . S
C90 C60 1.391 . S
C91 C53 1.389 . S
C91 C73 1.392 . S
C92 C63 1.392 . S
C92 C65 1.389 1_565 S
C93 C68 1.395 . S
C93 C70 1.391 . S
H94 C54 0.951 . S
H95 C55 0.950 . S
H96 C61 0.949 . S
H97 C62 0.950 . S
H98 C66 0.951 . S
H99 C67 0.950 . S
H100 C71 0.949 . S
H101 C72 0.950 . S
H102 C76 0.950 1_545 S
H103 C78 0.950 . S
H104 C81 0.950 . S
H105 C83 0.950 . S
C106 C107 1.443 . S
C106 N110 1.376 . S
C106 C144 1.389 . S
C107 C106 1.443 . S
C107 C108 1.340 . S
C107 H147 0.951 . S
C108 C107 1.340 . S
C108 C109 1.439 . S
C108 H148 0.950 . S
C109 C108 1.439 . S
C109 N110 1.374 . S
C109 C143 1.395 . S
N110 C106 1.376 . S
N110 C109 1.374 . S
N110 Co111 2.008 1_556 S
Co111 N110 2.008 1_554 S
Co111 N112 1.995 . S
Co111 N117 2.008 . S
Co111 N122 1.995 . S
Co111 N127 2.282 . S
Co111 N133 2.282 1_554 S
N112 Co111 1.995 . S
N112 C113 1.376 1_554 S
N112 C116 1.383 . S
C113 N112 1.376 1_556 S
C113 C114 1.446 . S
C113 C143 1.391 . S
C114 C113 1.446 . S
C114 C115 1.339 1_556 S
C114 H149 0.949 . S
C115 C114 1.339 1_554 S
C115 C116 1.439 . S
C115 H150 0.950 . S
C116 N112 1.383 . S
C116 C115 1.439 . S
C116 C145 1.392 . S
N117 Co111 2.008 . S
N117 C118 1.376 . S
N117 C121 1.374 . S
C118 N117 1.376 . S
C118 C119 1.443 . S
C118 C145 1.389 . S
C119 C118 1.443 . S
C119 C120 1.340 . S
C119 H151 0.951 . S
C120 C119 1.340 . S
C120 C121 1.439 . S
C120 H152 0.950 . S
C121 N117 1.374 . S
C121 C120 1.439 . S
C121 C146 1.395 . S
N122 Co111 1.995 . S
N122 C123 1.376 . S
N122 C126 1.383 1_554 S
C123 N122 1.376 . S
C123 C124 1.446 . S
C123 C146 1.391 . S
C124 C123 1.446 . S
C124 C125 1.324 1_554 S
C124 H153 0.949 . S
C125 C124 1.324 1_556 S
C125 C126 1.443 . S
C125 H154 0.958 . S
C126 N122 1.383 1_556 S
C126 C125 1.443 . S
C126 C144 1.392 . S
N127 Co111 2.282 . S
N127 C130 1.332 . S
N127 C132 1.332 . S
C128 C129 1.386 . S
C128 C131 1.388 . S
C129 C128 1.386 . S
C129 C130 1.382 . S
C129 H155 0.950 . S
C130 N127 1.332 . S
C130 C129 1.382 . S
C130 H141 0.952 . S
C131 C128 1.388 . S
C131 C132 1.382 . S
C131 H156 0.950 . S
C132 N127 1.332 . S
C132 C131 1.382 . S
C132 H142 0.948 . S
N133 Co111 2.282 1_556 S
N133 C137 1.332 . S
N133 C138 1.332 . S
C134 C135 1.388 . S
C134 C138 1.382 . S
C134 H157 0.950 . S
C135 C134 1.388 . S
C135 C136 1.386 . S
C136 C135 1.386 . S
C136 C137 1.382 . S
C136 H158 0.950 . S
C137 N133 1.332 . S
C137 C136 1.382 . S
C137 H139 0.952 . S
C138 N133 1.332 . S
C138 C134 1.382 . S
C138 H140 0.974 . S
H139 C137 0.952 . S
H140 C138 0.974 . S
H141 C130 0.952 . S
H142 C132 0.948 . S
C143 C109 1.395 . S
C143 C113 1.391 . S
C144 C106 1.389 . S
C144 C126 1.392 . S
C145 C116 1.392 . S
C145 C118 1.389 . S
C146 C121 1.395 . S
C146 C123 1.391 . S
H147 C107 0.951 . S
H148 C108 0.950 . S
H149 C114 0.949 . S
H150 C115 0.950 . S
H151 C119 0.951 . S
H152 C120 0.950 . S
H153 C124 0.949 . S
H154 C125 0.958 . S
H155 C129 0.950 . S
H156 C131 0.950 . S
H157 C134 0.950 . S
H158 C136 0.950 . S
C159 C160 1.443 . S
C159 N163 1.376 . S
C159 C197 1.389 . S
C160 C159 1.443 . S
C160 C161 1.340 . S
C160 H200 0.951 . S
C161 C160 1.340 . S
C161 C162 1.439 . S
C161 H201 0.950 . S
C162 C161 1.439 . S
C162 N163 1.374 . S
C162 C196 1.395 . S
N163 C159 1.376 . S
N163 C162 1.374 . S
N163 Co164 2.008 1_655 S
Co164 N163 2.008 1_455 S
Co164 N165 1.995 1_455 S
Co164 N170 2.008 . S
Co164 N175 1.995 . S
Co164 N180 2.282 . S
Co164 N186 2.282 1_455 S
N165 Co164 1.995 1_655 S
N165 C166 1.376 . S
N165 C169 1.383 1_655 S
C166 N165 1.376 . S
C166 C167 1.446 . S
C166 C196 1.391 . S
C167 C166 1.446 . S
C167 C168 1.339 . S
C167 H202 0.949 . S
C168 C167 1.339 . S
C168 C169 1.439 1_655 S
C168 H203 0.950 1_655 S
C169 N165 1.383 1_455 S
C169 C168 1.439 1_455 S
C169 C198 1.392 . S
N170 Co164 2.008 . S
N170 C171 1.376 . S
N170 C174 1.374 . S
C171 N170 1.376 . S
C171 C172 1.443 . S
C171 C198 1.389 . S
C172 C171 1.443 . S
C172 C173 1.340 . S
C172 H204 0.951 . S
C173 C172 1.340 . S
C173 C174 1.439 . S
C173 H205 0.950 . S
C174 N170 1.374 . S
C174 C173 1.439 . S
C174 C199 1.395 . S
N175 Co164 1.995 . S
N175 C176 1.376 . S
N175 C179 1.383 1_455 S
C176 N175 1.376 . S
C176 C177 1.446 . S
C176 C199 1.391 . S
C177 C176 1.446 . S
C177 C178 1.339 . S
C177 H206 0.949 . S
C178 C177 1.339 . S
C178 C179 1.439 1_455 S
C178 H207 0.950 . S
C179 N175 1.383 1_655 S
C179 C178 1.439 1_655 S
C179 C197 1.392 . S
N180 Co164 2.282 . S
N180 C183 1.332 . S
N180 C185 1.332 . S
C181 C182 1.386 . S
C181 C184 1.388 . S
C182 C181 1.386 . S
C182 C183 1.382 . S
C182 H208 0.950 . S
C183 N180 1.332 . S
C183 C182 1.382 . S
C183 H194 0.952 . S
C184 C181 1.388 . S
C184 C185 1.382 . S
C184 H209 0.950 . S
C185 N180 1.332 . S
C185 C184 1.382 . S
C185 H195 0.948 1_455 S
N186 Co164 2.282 1_655 S
N186 C190 1.332 . S
N186 C191 1.332 . S
C187 C188 1.388 . S
C187 C191 1.382 . S
C187 H210 0.950 . S
C188 C187 1.388 . S
C188 C189 1.386 . S
C189 C188 1.386 . S
C189 C190 1.382 . S
C189 H211 0.950 . S
C190 N186 1.332 . S
C190 C189 1.382 . S
C190 H192 0.952 . S
C191 N186 1.332 . S
C191 C187 1.382 . S
C191 H193 0.948 1_655 S
H192 C190 0.952 . S
H193 C191 0.948 1_455 S
H194 C183 0.952 . S
H195 C185 0.948 1_655 S
C196 C162 1.395 . S
C196 C166 1.391 . S
C197 C159 1.389 . S
C197 C179 1.392 . S
C198 C169 1.392 . S
C198 C171 1.389 . S
C199 C174 1.395 . S
C199 C176 1.391 . S
H200 C160 0.951 . S
H201 C161 0.950 . S
H202 C167 0.949 . S
H203 C168 0.950 1_455 S
H204 C172 0.951 . S
H205 C173 0.950 . S
H206 C177 0.949 . S
H207 C178 0.950 . S
H208 C182 0.950 . S
H209 C184 0.950 . S
H210 C187 0.950 . S
H211 C189 0.950 . S
C212 C213 1.443 1_565 S
C212 N216 1.376 1_565 S
C212 C250 1.389 . S
C213 C212 1.443 1_545 S
C213 C214 1.340 . S
C213 H253 0.951 1_545 S
C214 C213 1.340 . S
C214 C215 1.439 . S
C214 H254 0.950 . S
C215 C214 1.439 . S
C215 N216 1.374 . S
C215 C249 1.395 . S
N216 C212 1.376 1_545 S
N216 C215 1.374 . S
N216 Co217 2.027 . S
Co217 N216 2.027 . S
Co217 N218 2.014 . S
Co217 N223 1.990 1_544 S
Co217 N228 1.976 1_545 S
Co217 N233 2.312 1_554 S
Co217 N239 2.253 1_545 S
N218 Co217 2.014 . S
N218 C219 1.376 . S
N218 C222 1.383 1_554 S
C219 N218 1.376 . S
C219 C220 1.446 . S
C219 C249 1.391 . S
C220 C219 1.446 . S
C220 C221 1.339 1_554 S
C220 H255 0.949 . S
C221 C220 1.339 1_556 S
C221 C222 1.439 . S
C221 H256 0.950 . S
C222 N218 1.383 1_556 S
C222 C221 1.439 . S
C222 C251 1.392 . S
N223 Co217 1.990 1_566 S
N223 C224 1.376 1_565 S
N223 C227 1.374 . S
C224 N223 1.376 1_545 S
C224 C225 1.443 1_545 S
C224 C251 1.389 . S
C225 C224 1.443 1_565 S
C225 C226 1.340 . S
C225 H257 0.951 1_565 S
C226 C225 1.340 . S
C226 C227 1.439 . S
C226 H258 0.950 . S
C227 N223 1.374 . S
C227 C226 1.439 . S
C227 C252 1.395 . S
N228 Co217 1.976 1_565 S
N228 C229 1.376 1_554 S
N228 C232 1.383 . S
C229 N228 1.376 1_556 S
C229 C230 1.446 1_556 S
C229 C252 1.391 . S
C230 C229 1.446 1_554 S
C230 C231 1.339 . S
C230 H259 0.949 1_554 S
C231 C230 1.339 . S
C231 C232 1.439 . S
C231 H260 0.950 . S
C232 N228 1.383 . S
C232 C231 1.439 . S
C232 C250 1.392 . S
N233 Co217 2.312 1_556 S
N233 C236 1.332 . S
N233 C238 1.332 . S
C234 C235 1.386 . S
C234 C237 1.388 . S
C235 C234 1.386 . S
C235 C236 1.382 . S
C235 H261 0.950 . S
C236 N233 1.332 . S
C236 C235 1.382 . S
C236 H247 0.952 1_545 S
C237 C234 1.388 . S
C237 C238 1.382 . S
C237 H262 0.950 . S
C238 N233 1.332 . S
C238 C237 1.382 . S
C238 H248 0.948 . S
N239 Co217 2.253 1_565 S
N239 C243 1.332 . S
N239 C244 1.332 . S
C240 C241 1.388 . S
C240 C244 1.382 . S
C240 H263 0.950 . S
C241 C240 1.388 . S
C241 C242 1.386 . S
C242 C241 1.386 . S
C242 C243 1.382 . S
C242 H264 0.950 . S
C243 N239 1.332 . S
C243 C242 1.382 . S
C243 H245 0.952 1_565 S
C244 N239 1.332 . S
C244 C240 1.382 . S
C244 H246 0.948 . S
H245 C243 0.952 1_545 S
H246 C244 0.948 . S
H247 C236 0.952 1_565 S
H248 C238 0.948 . S
C249 C215 1.395 . S
C249 C219 1.391 . S
C250 C212 1.389 . S
C250 C232 1.392 . S
C251 C222 1.392 . S
C251 C224 1.389 . S
C252 C227 1.395 . S
C252 C229 1.391 . S
H253 C213 0.951 1_565 S
H254 C214 0.950 . S
H255 C220 0.949 . S
H256 C221 0.950 . S
H257 C225 0.951 1_545 S
H258 C226 0.950 . S
H259 C230 0.949 1_556 S
H260 C231 0.950 . S
H261 C235 0.950 . S
H262 C237 0.950 . S
H263 C240 0.950 . S
H264 C242 0.950 . S
C265 C266 1.443 . S
C265 N269 1.376 . S
C265 C303 1.389 . S
C266 C265 1.443 . S
C266 C267 1.340 . S
C266 H306 0.951 . S
C267 C266 1.340 . S
C267 C268 1.439 . S
C267 H307 0.950 . S
C268 C267 1.439 . S
C268 N269 1.374 . S
C268 C302 1.395 . S
N269 C265 1.376 . S
N269 C268 1.374 . S
N269 Co270 2.008 . S
Co270 N269 2.008 . S
Co270 N271 1.995 . S
Co270 N276 2.008 . S
Co270 N281 1.995 . S
Co270 N286 2.282 . S
Co270 N292 2.282 . S
N271 Co270 1.995 . S
N271 C272 1.376 . S
N271 C275 1.383 . S
C272 N271 1.376 . S
C272 C273 1.446 . S
C272 C302 1.391 . S
C273 C272 1.446 . S
C273 C274 1.339 . S
C273 H308 0.949 . S
C274 C273 1.339 . S
C274 C275 1.439 . S
C274 H309 0.950 . S
C275 N271 1.383 . S
C275 C274 1.439 . S
C275 C304 1.392 . S
N276 Co270 2.008 . S
N276 C277 1.376 . S
N276 C280 1.374 . S
C277 N276 1.376 . S
C277 C278 1.443 . S
C277 C304 1.389 . S
C278 C277 1.443 . S
C278 C279 1.340 . S
C278 H310 0.951 . S
C279 C278 1.340 . S
C279 C280 1.439 . S
C279 H311 0.950 . S
C280 N276 1.374 . S
C280 C279 1.439 . S
C280 C305 1.395 . S
N281 Co270 1.995 . S
N281 C282 1.376 . S
N281 C285 1.383 . S
C282 N281 1.376 . S
C282 C283 1.446 . S
C282 C305 1.391 . S
C283 C282 1.446 . S
C283 C284 1.339 . S
C283 H312 0.949 . S
C284 C283 1.339 . S
C284 C285 1.439 . S
C284 H313 0.950 . S
C285 N281 1.383 . S
C285 C284 1.439 . S
C285 C303 1.392 . S
N286 Co270 2.282 . S
N286 C289 1.332 . S
N286 C291 1.332 . S
C287 C288 1.386 . S
C287 C290 1.388 . S
C288 C287 1.386 . S
C288 C289 1.382 . S
C288 H314 0.950 . S
C289 N286 1.332 . S
C289 C288 1.382 . S
C289 H300 0.952 . S
C290 C287 1.388 . S
C290 C291 1.382 . S
C290 H315 0.950 . S
C291 N286 1.332 . S
C291 C290 1.382 . S
C291 H301 0.948 . S
N292 Co270 2.282 . S
N292 C296 1.332 . S
N292 C297 1.332 . S
C293 C294 1.388 . S
C293 C297 1.382 . S
C293 H316 0.950 . S
C294 C293 1.388 . S
C294 C295 1.386 . S
C295 C294 1.386 . S
C295 C296 1.382 . S
C295 H317 0.950 . S
C296 N292 1.332 . S
C296 C295 1.382 . S
C296 H298 0.952 . S
C297 N292 1.332 . S
C297 C293 1.382 . S
C297 H299 0.948 . S
H298 C296 0.952 . S
H299 C297 0.948 . S
H300 C289 0.952 . S
H301 C291 0.948 . S
C302 C268 1.395 . S
C302 C272 1.391 . S
C303 C265 1.389 . S
C303 C285 1.392 . S
C304 C275 1.392 . S
C304 C277 1.389 . S
C305 C280 1.395 . S
C305 C282 1.391 . S
H306 C266 0.951 . S
H307 C267 0.950 . S
H308 C273 0.949 . S
H309 C274 0.950 . S
H310 C278 0.951 . S
H311 C279 0.950 . S
H312 C283 0.949 . S
H313 C284 0.950 . S
H314 C288 0.950 . S
H315 C290 0.950 . S
H316 C293 0.950 . S
H317 C295 0.950 . S
Mg318 O325 2.141 . S
Mg318 O326 2.048 . S
Mg318 O327 2.048 . S
Mg318 O330 2.141 . S
C319 O320 1.313 . S
C319 O326 1.195 . S
O320 C319 1.313 . S
C321 O322 1.245 . S
C321 O330 1.289 . S
O322 C321 1.245 . S
C323 O324 1.245 . S
C323 O325 1.289 . S
O324 C323 1.245 . S
O325 Mg318 2.141 . S
O325 C323 1.289 . S
O326 Mg318 2.048 . S
O326 C319 1.195 . S
O327 Mg318 2.048 . S
O327 C328 1.195 . S
C328 O327 1.195 . S
C328 O329 1.313 . S
O329 C328 1.313 . S
O330 Mg318 2.141 . S
O330 C321 1.289 . S
Mg331 O338 2.141 . S
Mg331 O339 2.048 . S
Mg331 O340 2.048 . S
Mg331 O343 2.141 . S
C332 O333 1.313 . S
C332 O339 1.195 . S
O333 C332 1.313 . S
C334 O335 1.245 . S
C334 O343 1.289 . S
O335 C334 1.245 . S
C336 O337 1.245 . S
C336 O338 1.289 . S
O337 C336 1.245 . S
O338 Mg331 2.141 . S
O338 C336 1.289 . S
O339 Mg331 2.048 . S
O339 C332 1.195 . S
O340 Mg331 2.048 . S
O340 C341 1.195 . S
C341 O340 1.195 . S
C341 O342 1.313 . S
O342 C341 1.313 . S
O343 Mg331 2.141 . S
O343 C334 1.289 . S
Mg344 O351 2.141 . S
Mg344 O352 2.048 . S
Mg344 O353 2.048 . S
Mg344 O356 2.141 . S
C345 O346 1.313 . S
C345 O352 1.195 . S
O346 C345 1.313 . S
C347 O348 1.245 . S
C347 O356 1.289 . S
O348 C347 1.245 . S
C349 O350 1.245 . S
C349 O351 1.289 . S
O350 C349 1.245 . S
O351 Mg344 2.141 . S
O351 C349 1.289 . S
O352 Mg344 2.048 . S
O352 C345 1.195 . S
O353 Mg344 2.048 . S
O353 C354 1.195 . S
C354 O353 1.195 . S
C354 O355 1.313 . S
O355 C354 1.313 . S
O356 Mg344 2.141 . S
O356 C347 1.289 . S
Mg357 O364 2.141 . S
Mg357 O365 2.048 . S
Mg357 O366 2.048 . S
Mg357 O369 2.141 . S
C358 O359 1.313 . S
C358 O365 1.195 . S
O359 C358 1.313 . S
C360 O361 1.245 . S
C360 O369 1.289 . S
O361 C360 1.245 . S
C362 O363 1.245 . S
C362 O364 1.289 . S
O363 C362 1.245 . S
O364 Mg357 2.141 . S
O364 C362 1.289 . S
O365 Mg357 2.048 . S
O365 C358 1.195 . S
O366 Mg357 2.048 . S
O366 C367 1.195 . S
C367 O366 1.195 . S
C367 O368 1.313 . S
O368 C367 1.313 . S
O369 Mg357 2.141 . S
O369 C360 1.289 . S
Mg370 O377 2.141 . S
Mg370 O378 2.048 . S
Mg370 O379 2.048 . S
Mg370 O382 2.141 . S
C371 O372 1.313 . S
C371 O378 1.195 . S
O372 C371 1.313 . S
C373 O374 1.245 . S
C373 O382 1.289 . S
O374 C373 1.245 . S
C375 O376 1.245 . S
C375 O377 1.289 . S
O376 C375 1.245 . S
O377 Mg370 2.141 . S
O377 C375 1.289 . S
O378 Mg370 2.048 . S
O378 C371 1.195 . S
O379 Mg370 2.048 . S
O379 C380 1.195 . S
C380 O379 1.195 . S
C380 O381 1.313 . S
O381 C380 1.313 . S
O382 Mg370 2.141 . S
O382 C373 1.289 . S
Mg383 O390 2.141 . S
Mg383 O391 2.048 . S
Mg383 O392 2.048 . S
Mg383 O395 2.141 . S
C384 O385 1.313 . S
C384 O391 1.195 . S
O385 C384 1.313 . S
C386 O387 1.245 . S
C386 O395 1.289 . S
O387 C386 1.245 . S
C388 O389 1.245 . S
C388 O390 1.289 . S
O389 C388 1.245 . S
O390 Mg383 2.141 . S
O390 C388 1.289 . S
O391 Mg383 2.048 . S
O391 C384 1.195 . S
O392 Mg383 2.048 . S
O392 C393 1.195 . S
C393 O392 1.195 . S
C393 O394 1.313 . S
O394 C393 1.313 . S
O395 Mg383 2.141 . S
O395 C386 1.289 . S
H396 C404 0.950 . S
H397 C409 0.950 . S
H398 C406 0.950 . S
H399 C408 0.950 . S
H400 C410 0.950 . S
H401 C412 0.950 . S
H402 C414 0.950 . S
H403 C415 0.950 . S
C404 H396 0.950 . S
C404 C405 1.386 . S
C404 C406 1.391 . S
C405 C404 1.386 . S
C405 C409 1.393 . S
C406 H398 0.950 . S
C406 C404 1.391 . S
C406 C407 1.400 . S
C407 C406 1.400 . S
C407 C408 1.398 . S
C407 C413 1.491 . S
C408 H399 0.950 . S
C408 C407 1.398 . S
C408 C409 1.391 . S
C409 H397 0.950 . S
C409 C405 1.393 . S
C409 C408 1.391 . S
C410 H400 0.950 . S
C410 C411 1.386 . S
C410 C412 1.391 . S
C411 C410 1.386 . S
C411 C415 1.393 . S
C412 H401 0.950 . S
C412 C410 1.391 . S
C412 C413 1.400 . S
C413 C407 1.491 . S
C413 C412 1.400 . S
C413 C414 1.398 . S
C414 H402 0.950 . S
C414 C413 1.398 . S
C414 C415 1.391 . S
C415 H403 0.950 . S
C415 C411 1.393 . S
C415 C414 1.391 . S
H416 C424 0.950 . S
H417 C429 0.950 . S
H418 C426 0.950 . S
H419 C428 0.950 . S
H420 C430 0.950 . S
H421 C432 0.950 . S
H422 C434 0.950 . S
H423 C435 0.950 . S
C424 H416 0.950 . S
C424 C425 1.386 . S
C424 C426 1.391 . S
C425 C424 1.386 . S
C425 C429 1.393 . S
C426 H418 0.950 . S
C426 C424 1.391 . S
C426 C427 1.400 . S
C427 C426 1.400 . S
C427 C428 1.398 . S
C427 C433 1.491 . S
C428 H419 0.950 . S
C428 C427 1.398 . S
C428 C429 1.391 . S
C429 H417 0.950 . S
C429 C425 1.393 . S
C429 C428 1.391 . S
C430 H420 0.950 . S
C430 C431 1.386 . S
C430 C432 1.391 . S
C431 C430 1.386 . S
C431 C435 1.393 . S
C432 H421 0.950 . S
C432 C430 1.391 . S
C432 C433 1.400 . S
C433 C427 1.491 . S
C433 C432 1.400 . S
C433 C434 1.398 . S
C434 H422 0.950 . S
C434 C433 1.398 . S
C434 C435 1.391 . S
C435 H423 0.950 . S
C435 C431 1.393 . S
C435 C434 1.391 . S
H436 C444 0.950 . S
H437 C449 0.950 . S
H438 C446 0.950 . S
H439 C448 0.950 . S
H440 C450 0.950 . S
H441 C452 0.950 . S
H442 C454 0.950 . S
H443 C455 0.950 . S
C444 H436 0.950 . S
C444 C445 1.386 . S
C444 C446 1.391 . S
C445 C444 1.386 . S
C445 C449 1.393 . S
C446 H438 0.950 . S
C446 C444 1.391 . S
C446 C447 1.400 . S
C447 C446 1.400 . S
C447 C448 1.398 . S
C447 C453 1.491 . S
C448 H439 0.950 . S
C448 C447 1.398 . S
C448 C449 1.391 . S
C449 H437 0.950 . S
C449 C445 1.393 . S
C449 C448 1.391 . S
C450 H440 0.950 . S
C450 C451 1.386 . S
C450 C452 1.391 . S
C451 C450 1.386 . S
C451 C455 1.393 . S
C452 H441 0.950 . S
C452 C450 1.391 . S
C452 C453 1.400 . S
C453 C447 1.491 . S
C453 C452 1.400 . S
C453 C454 1.398 . S
C454 H442 0.950 . S
C454 C453 1.398 . S
C454 C455 1.391 . S
C455 H443 0.950 . S
C455 C451 1.393 . S
C455 C454 1.391 . S
H456 C464 0.950 . S
H457 C469 0.950 . S
H458 C466 0.950 . S
H459 C468 0.950 . S
H460 C470 0.950 . S
H461 C472 0.950 . S
H462 C474 0.950 . S
H463 C475 0.950 . S
C464 H456 0.950 . S
C464 C465 1.386 . S
C464 C466 1.391 . S
C465 C464 1.386 . S
C465 C469 1.393 . S
C466 H458 0.950 . S
C466 C464 1.391 . S
C466 C467 1.400 . S
C467 C466 1.400 . S
C467 C468 1.398 . S
C467 C473 1.491 . S
C468 H459 0.950 . S
C468 C467 1.398 . S
C468 C469 1.391 . S
C469 H457 0.950 . S
C469 C465 1.393 . S
C469 C468 1.391 . S
C470 H460 0.950 . S
C470 C471 1.386 . S
C470 C472 1.391 . S
C471 C470 1.386 . S
C471 C475 1.393 . S
C472 H461 0.950 . S
C472 C470 1.391 . S
C472 C473 1.400 . S
C473 C467 1.491 . S
C473 C472 1.400 . S
C473 C474 1.398 . S
C474 H462 0.950 . S
C474 C473 1.398 . S
C474 C475 1.391 . S
C475 H463 0.950 . S
C475 C471 1.393 . S
C475 C474 1.391 . S
H476 C484 0.950 . S
H477 C489 0.950 . S
H478 C486 0.950 . S
H479 C488 0.950 . S
H480 C490 0.950 . S
H481 C492 0.950 . S
H482 C494 0.950 . S
H483 C495 0.950 . S
C484 H476 0.950 . S
C484 C485 1.386 . S
C484 C486 1.391 . S
C485 C484 1.386 . S
C485 C489 1.393 . S
C486 H478 0.950 . S
C486 C484 1.391 . S
C486 C487 1.400 . S
C487 C486 1.400 . S
C487 C488 1.398 . S
C487 C493 1.491 . S
C488 H479 0.950 . S
C488 C487 1.398 . S
C488 C489 1.391 . S
C489 H477 0.950 . S
C489 C485 1.393 . S
C489 C488 1.391 . S
C490 H480 0.950 . S
C490 C491 1.386 . S
C490 C492 1.391 . S
C491 C490 1.386 . S
C491 C495 1.393 . S
C492 H481 0.950 . S
C492 C490 1.391 . S
C492 C493 1.400 . S
C493 C487 1.491 . S
C493 C492 1.400 . S
C493 C494 1.398 . S
C494 H482 0.950 . S
C494 C493 1.398 . S
C494 C495 1.391 . S
C495 H483 0.950 . S
C495 C491 1.393 . S
C495 C494 1.391 . S
H496 C504 0.950 . S
H497 C509 0.950 . S
H498 C506 0.950 . S
H499 C508 0.950 . S
H500 C510 0.950 . S
H501 C512 0.950 . S
H502 C514 0.950 . S
H503 C515 0.950 . S
C504 H496 0.950 . S
C504 C505 1.386 . S
C504 C506 1.391 . S
C505 C504 1.386 . S
C505 C509 1.393 . S
C506 H498 0.950 . S
C506 C504 1.391 . S
C506 C507 1.400 . S
C507 C506 1.400 . S
C507 C508 1.398 . S
C507 C513 1.491 . S
C508 H499 0.950 . S
C508 C507 1.398 . S
C508 C509 1.391 . S
C509 H497 0.950 . S
C509 C505 1.393 . S
C509 C508 1.391 . S
C510 H500 0.950 . S
C510 C511 1.386 . S
C510 C512 1.391 . S
C511 C510 1.386 . S
C511 C515 1.393 . S
C512 H501 0.950 . S
C512 C510 1.391 . S
C512 C513 1.400 . S
C513 C507 1.491 . S
C513 C512 1.400 . S
C513 C514 1.398 . S
C514 H502 0.950 . S
C514 C513 1.398 . S
C514 C515 1.391 . S
C515 H503 0.950 . S
C515 C511 1.393 . S
C515 C514 1.391 . S
H516 C524 0.950 . S
H517 C529 0.950 . S
H518 C526 0.950 . S
H519 C528 0.950 . S
H520 C530 0.950 . S
H521 C532 0.950 . S
H522 C534 0.950 . S
H523 C535 0.950 . S
C524 H516 0.950 . S
C524 C525 1.386 . S
C524 C526 1.391 . S
C525 C524 1.386 . S
C525 C529 1.393 . S
C526 H518 0.950 . S
C526 C524 1.391 . S
C526 C527 1.400 . S
C527 C526 1.400 . S
C527 C528 1.398 . S
C527 C533 1.491 . S
C528 H519 0.950 . S
C528 C527 1.398 . S
C528 C529 1.391 . S
C529 H517 0.950 . S
C529 C525 1.393 . S
C529 C528 1.391 . S
C530 H520 0.950 . S
C530 C531 1.386 . S
C530 C532 1.391 . S
C531 C530 1.386 . S
C531 C535 1.393 . S
C532 H521 0.950 . S
C532 C530 1.391 . S
C532 C533 1.400 . S
C533 C527 1.491 . S
C533 C532 1.400 . S
C533 C534 1.398 . S
C534 H522 0.950 . S
C534 C533 1.398 . S
C534 C535 1.391 . S
C535 H523 0.950 . S
C535 C531 1.393 . S
C535 C534 1.391 . S
H536 C544 0.950 . S
H537 C549 0.950 . S
H538 C546 0.950 . S
H539 C548 0.950 . S
H540 C550 0.950 . S
H541 C552 0.950 . S
H542 C554 0.950 . S
H543 C555 0.950 . S
C544 H536 0.950 . S
C544 C545 1.386 . S
C544 C546 1.391 . S
C545 C544 1.386 . S
C545 C549 1.393 . S
C546 H538 0.950 . S
C546 C544 1.391 . S
C546 C547 1.400 . S
C547 C546 1.400 . S
C547 C548 1.398 . S
C547 C553 1.491 . S
C548 H539 0.950 . S
C548 C547 1.398 . S
C548 C549 1.391 . S
C549 H537 0.950 . S
C549 C545 1.393 . S
C549 C548 1.391 . S
C550 H540 0.950 . S
C550 C551 1.386 . S
C550 C552 1.391 . S
C551 C550 1.386 . S
C551 C555 1.393 . S
C552 H541 0.950 . S
C552 C550 1.391 . S
C552 C553 1.400 . S
C553 C547 1.491 . S
C553 C552 1.400 . S
C553 C554 1.398 . S
C554 H542 0.950 . S
C554 C553 1.398 . S
C554 C555 1.391 . S
C555 H543 0.950 . S
C555 C551 1.393 . S
C555 C554 1.391 . S
H556 C564 0.950 . S
H557 C569 0.950 . S
H558 C566 0.950 . S
H559 C568 0.950 . S
H560 C570 0.950 . S
H561 C572 0.950 . S
H562 C574 0.950 . S
H563 C575 0.950 . S
C564 H556 0.950 . S
C564 C565 1.386 . S
C564 C566 1.391 . S
C565 C564 1.386 . S
C565 C569 1.393 . S
C566 H558 0.950 . S
C566 C564 1.391 . S
C566 C567 1.400 . S
C567 C566 1.400 . S
C567 C568 1.398 . S
C567 C573 1.491 . S
C568 H559 0.950 . S
C568 C567 1.398 . S
C568 C569 1.391 . S
C569 H557 0.950 . S
C569 C565 1.393 . S
C569 C568 1.391 . S
C570 H560 0.950 . S
C570 C571 1.386 . S
C570 C572 1.391 . S
C571 C570 1.386 . S
C571 C575 1.393 . S
C572 H561 0.950 . S
C572 C570 1.391 . S
C572 C573 1.400 . S
C573 C567 1.491 . S
C573 C572 1.400 . S
C573 C574 1.398 . S
C574 H562 0.950 . S
C574 C573 1.398 . S
C574 C575 1.391 . S
C575 H563 0.950 . S
C575 C571 1.393 . S
C575 C574 1.391 . S
H576 C584 0.950 . S
H577 C589 0.950 . S
H578 C586 0.950 . S
H579 C588 0.950 . S
H580 C590 0.950 . S
H581 C592 0.950 . S
H582 C594 0.950 . S
H583 C595 0.950 . S
C584 H576 0.950 . S
C584 C585 1.386 . S
C584 C586 1.391 . S
C585 C584 1.386 . S
C585 C589 1.393 . S
C586 H578 0.950 . S
C586 C584 1.391 . S
C586 C587 1.400 . S
C587 C586 1.400 . S
C587 C588 1.398 . S
C587 C593 1.491 . S
C588 H579 0.950 . S
C588 C587 1.398 . S
C588 C589 1.391 . S
C589 H577 0.950 . S
C589 C585 1.393 . S
C589 C588 1.391 . S
C590 H580 0.950 . S
C590 C591 1.386 . S
C590 C592 1.391 . S
C591 C590 1.386 . S
C591 C595 1.393 . S
C592 H581 0.950 . S
C592 C590 1.391 . S
C592 C593 1.400 . S
C593 C587 1.491 . S
C593 C592 1.400 . S
C593 C594 1.398 . S
C594 H582 0.950 . S
C594 C593 1.398 . S
C594 C595 1.391 . S
C595 H583 0.950 . S
C595 C591 1.393 . S
C595 C594 1.391 . S
H596 C604 0.950 . S
H597 C609 0.950 . S
H598 C606 0.950 . S
H599 C608 0.950 . S
H600 C610 0.950 . S
H601 C612 0.950 . S
H602 C614 0.950 . S
H603 C615 0.950 . S
C604 H596 0.950 . S
C604 C605 1.386 . S
C604 C606 1.391 . S
C605 C604 1.386 . S
C605 C609 1.393 . S
C606 H598 0.950 . S
C606 C604 1.391 . S
C606 C607 1.400 . S
C607 C606 1.400 . S
C607 C608 1.398 . S
C607 C613 1.491 . S
C608 H599 0.950 . S
C608 C607 1.398 . S
C608 C609 1.391 . S
C609 H597 0.950 . S
C609 C605 1.393 . S
C609 C608 1.391 . S
C610 H600 0.950 . S
C610 C611 1.386 . S
C610 C612 1.391 . S
C611 C610 1.386 . S
C611 C615 1.393 . S
C612 H601 0.950 . S
C612 C610 1.391 . S
C612 C613 1.400 . S
C613 C607 1.491 . S
C613 C612 1.400 . S
C613 C614 1.398 . S
C614 H602 0.950 . S
C614 C613 1.398 . S
C614 C615 1.391 . S
C615 H603 0.950 . S
C615 C611 1.393 . S
C615 C614 1.391 . S
H616 C624 0.950 . S
H617 C629 0.950 . S
H618 C626 0.950 . S
H619 C628 0.950 . S
H620 C630 0.950 . S
H621 C632 0.950 . S
H622 C634 0.950 . S
H623 C635 0.950 . S
C624 H616 0.950 . S
C624 C625 1.386 . S
C624 C626 1.391 . S
C625 C624 1.386 . S
C625 C629 1.393 . S
C626 H618 0.950 . S
C626 C624 1.391 . S
C626 C627 1.400 . S
C627 C626 1.400 . S
C627 C628 1.398 . S
C627 C633 1.491 . S
C628 H619 0.950 . S
C628 C627 1.398 . S
C628 C629 1.391 . S
C629 H617 0.950 . S
C629 C625 1.393 . S
C629 C628 1.391 . S
C630 H620 0.950 . S
C630 C631 1.386 . S
C630 C632 1.391 . S
C631 C630 1.386 . S
C631 C635 1.393 . S
C632 H621 0.950 . S
C632 C630 1.391 . S
C632 C633 1.400 . S
C633 C627 1.491 . S
C633 C632 1.400 . S
C633 C634 1.398 . S
C634 H622 0.950 . S
C634 C633 1.398 . S
C634 C635 1.391 . S
C635 H623 0.950 . S
C635 C631 1.393 . S
C635 C634 1.391 . S
H636 C644 0.978 . S
H637 C649 0.950 . S
H638 C646 0.950 . S
H639 C648 0.950 . S
H640 C650 0.950 . S
H641 C652 0.950 . S
H642 C654 0.950 . S
H643 C655 0.950 . S
C644 H636 0.978 . S
C644 C645 1.386 . S
C644 C646 1.391 . S
C645 C644 1.386 . S
C645 C649 1.393 . S
C646 H638 0.950 . S
C646 C644 1.391 . S
C646 C647 1.400 . S
C647 C646 1.400 . S
C647 C648 1.398 . S
C647 C653 1.491 . S
C648 H639 0.950 . S
C648 C647 1.398 . S
C648 C649 1.391 . S
C649 H637 0.950 . S
C649 C645 1.393 . S
C649 C648 1.391 . S
C650 H640 0.950 . S
C650 C651 1.386 . S
C650 C652 1.391 . S
C651 C650 1.386 . S
C651 C655 1.393 . S
C652 H641 0.950 . S
C652 C650 1.391 . S
C652 C653 1.400 . S
C653 C647 1.491 . S
C653 C652 1.400 . S
C653 C654 1.398 . S
C654 H642 0.950 . S
C654 C653 1.398 . S
C654 C655 1.391 . S
C655 H643 0.950 . S
C655 C651 1.393 . S
C655 C654 1.391 . S
H656 C664 0.950 . S
H657 C669 0.950 . S
H658 C666 0.950 . S
H659 C668 0.950 . S
H660 C670 0.950 . S
H661 C672 0.950 . S
H662 C674 0.950 . S
H663 C675 0.950 . S
C664 H656 0.950 . S
C664 C665 1.386 . S
C664 C666 1.391 . S
C665 C664 1.386 . S
C665 C669 1.393 . S
C666 H658 0.950 . S
C666 C664 1.391 . S
C666 C667 1.400 . S
C667 C666 1.400 . S
C667 C668 1.398 . S
C667 C673 1.491 . S
C668 H659 0.950 . S
C668 C667 1.398 . S
C668 C669 1.391 . S
C669 H657 0.950 . S
C669 C665 1.393 . S
C669 C668 1.391 . S
C670 H660 0.950 . S
C670 C671 1.386 . S
C670 C672 1.391 . S
C671 C670 1.386 . S
C671 C675 1.393 . S
C672 H661 0.950 . S
C672 C670 1.391 . S
C672 C673 1.400 . S
C673 C667 1.491 . S
C673 C672 1.400 . S
C673 C674 1.398 . S
C674 H662 0.950 . S
C674 C673 1.398 . S
C674 C675 1.391 . S
C675 H663 0.950 . S
C675 C671 1.393 . S
C675 C674 1.391 . S
H676 C684 0.950 . S
H677 C689 0.950 . S
H678 C686 0.950 . S
H679 C688 0.950 . S
H680 C690 0.950 . S
H681 C692 0.950 . S
H682 C694 0.950 . S
H683 C695 0.950 . S
C684 H676 0.950 . S
C684 C685 1.386 . S
C684 C686 1.391 . S
C685 C684 1.386 . S
C685 C689 1.393 . S
C686 H678 0.950 . S
C686 C684 1.391 . S
C686 C687 1.400 . S
C687 C686 1.400 . S
C687 C688 1.398 . S
C687 C693 1.491 . S
C688 H679 0.950 . S
C688 C687 1.398 . S
C688 C689 1.391 . S
C689 H677 0.950 . S
C689 C685 1.393 . S
C689 C688 1.391 . S
C690 H680 0.950 . S
C690 C691 1.386 . S
C690 C692 1.391 . S
C691 C690 1.386 . S
C691 C695 1.393 . S
C692 H681 0.950 . S
C692 C690 1.391 . S
C692 C693 1.400 . S
C693 C687 1.491 . S
C693 C692 1.400 . S
C693 C694 1.398 . S
C694 H682 0.950 . S
C694 C693 1.398 . S
C694 C695 1.391 . S
C695 H683 0.950 . S
C695 C691 1.393 . S
C695 C694 1.391 . S
H696 C704 0.950 . S
H697 C709 0.950 . S
H698 C706 0.950 . S
H699 C708 0.950 . S
H700 C710 0.950 . S
H701 C712 0.950 . S
H702 C714 0.950 . S
H703 C715 0.950 . S
C704 H696 0.950 . S
C704 C705 1.386 . S
C704 C706 1.391 . S
C705 C704 1.386 . S
C705 C709 1.393 . S
C706 H698 0.950 . S
C706 C704 1.391 . S
C706 C707 1.400 . S
C707 C706 1.400 . S
C707 C708 1.398 . S
C707 C713 1.491 . S
C708 H699 0.950 . S
C708 C707 1.398 . S
C708 C709 1.391 . S
C709 H697 0.950 . S
C709 C705 1.393 . S
C709 C708 1.391 . S
C710 H700 0.950 . S
C710 C711 1.386 . S
C710 C712 1.391 . S
C711 C710 1.386 . S
C711 C715 1.393 . S
C712 H701 0.950 . S
C712 C710 1.391 . S
C712 C713 1.400 . S
C713 C707 1.491 . S
C713 C712 1.400 . S
C713 C714 1.398 . S
C714 H702 0.950 . S
C714 C713 1.398 . S
C714 C715 1.391 . S
C715 H703 0.950 . S
C715 C711 1.393 . S
C715 C714 1.391 . S
H716 C724 0.950 . S
H717 C729 0.950 . S
H718 C726 0.950 . S
H719 C728 0.950 . S
H720 C730 0.950 . S
H721 C732 0.950 . S
H722 C734 0.950 . S
H723 C735 0.950 . S
C724 H716 0.950 . S
C724 C725 1.386 . S
C724 C726 1.391 . S
C725 C724 1.386 . S
C725 C729 1.393 . S
C726 H718 0.950 . S
C726 C724 1.391 . S
C726 C727 1.400 . S
C727 C726 1.400 . S
C727 C728 1.398 . S
C727 C733 1.491 . S
C728 H719 0.950 . S
C728 C727 1.398 . S
C728 C729 1.391 . S
C729 H717 0.950 . S
C729 C725 1.393 . S
C729 C728 1.391 . S
C730 H720 0.950 . S
C730 C731 1.386 . S
C730 C732 1.391 . S
C731 C730 1.386 . S
C731 C735 1.393 . S
C732 H721 0.950 . S
C732 C730 1.391 . S
C732 C733 1.400 . S
C733 C727 1.491 . S
C733 C732 1.400 . S
C733 C734 1.398 . S
C734 H722 0.950 . S
C734 C733 1.398 . S
C734 C735 1.391 . S
C735 H723 0.950 . S
C735 C731 1.393 . S
C735 C734 1.391 . S
H736 C744 0.950 . S
H737 C749 0.950 . S
H738 C746 0.950 . S
H739 C748 0.950 . S
H740 C750 0.950 . S
H741 C752 0.950 . S
H742 C754 0.950 . S
H743 C755 0.950 . S
C744 H736 0.950 . S
C744 C745 1.386 . S
C744 C746 1.391 . S
C745 C744 1.386 . S
C745 C749 1.393 . S
C746 H738 0.950 . S
C746 C744 1.391 . S
C746 C747 1.400 . S
C747 C746 1.400 . S
C747 C748 1.398 . S
C747 C753 1.491 . S
C748 H739 0.950 . S
C748 C747 1.398 . S
C748 C749 1.391 . S
C749 H737 0.950 . S
C749 C745 1.393 . S
C749 C748 1.391 . S
C750 H740 0.950 . S
C750 C751 1.386 . S
C750 C752 1.391 . S
C751 C750 1.386 . S
C751 C755 1.393 . S
C752 H741 0.950 . S
C752 C750 1.391 . S
C752 C753 1.400 . S
C753 C747 1.491 . S
C753 C752 1.400 . S
C753 C754 1.398 . S
C754 H742 0.950 . S
C754 C753 1.398 . S
C754 C755 1.391 . S
C755 H743 0.950 . S
C755 C751 1.393 . S
C755 C754 1.391 . S
H756 C764 0.950 . S
H757 C769 0.950 . S
H758 C766 0.950 . S
H759 C768 0.950 . S
H760 C770 0.950 . S
H761 C772 0.950 . S
H762 C774 0.950 . S
H763 C775 0.950 . S
C764 H756 0.950 . S
C764 C765 1.386 . S
C764 C766 1.391 . S
C765 C764 1.386 . S
C765 C769 1.393 . S
C766 H758 0.950 . S
C766 C764 1.391 . S
C766 C767 1.400 . S
C767 C766 1.400 . S
C767 C768 1.398 . S
C767 C773 1.491 . S
C768 H759 0.950 . S
C768 C767 1.398 . S
C768 C769 1.391 . S
C769 H757 0.950 . S
C769 C765 1.393 . S
C769 C768 1.391 . S
C770 H760 0.950 . S
C770 C771 1.386 . S
C770 C772 1.391 . S
C771 C770 1.386 . S
C771 C775 1.393 . S
C772 H761 0.950 . S
C772 C770 1.391 . S
C772 C773 1.400 . S
C773 C767 1.491 . S
C773 C772 1.400 . S
C773 C774 1.398 . S
C774 H762 0.950 . S
C774 C773 1.398 . S
C774 C775 1.391 . S
C775 H763 0.950 . S
C775 C771 1.393 . S
C775 C774 1.391 . S
H776 C784 0.950 . S
H777 C789 0.950 . S
H778 C786 0.950 . S
H779 C788 0.950 . S
H780 C790 0.950 . S
H781 C792 0.950 . S
H782 C794 0.950 . S
H783 C795 0.950 . S
C784 H776 0.950 . S
C784 C785 1.386 . S
C784 C786 1.391 . S
C785 C784 1.386 . S
C785 C789 1.393 . S
C786 H778 0.950 . S
C786 C784 1.391 . S
C786 C787 1.400 . S
C787 C786 1.400 . S
C787 C788 1.398 . S
C787 C793 1.491 . S
C788 H779 0.950 . S
C788 C787 1.398 . S
C788 C789 1.391 . S
C789 H777 0.950 . S
C789 C785 1.393 . S
C789 C788 1.391 . S
C790 H780 0.950 . S
C790 C791 1.386 . S
C790 C792 1.391 . S
C791 C790 1.386 . S
C791 C795 1.393 . S
C792 H781 0.950 . S
C792 C790 1.391 . S
C792 C793 1.400 . S
C793 C787 1.491 . S
C793 C792 1.400 . S
C793 C794 1.398 . S
C794 H782 0.950 . S
C794 C793 1.398 . S
C794 C795 1.391 . S
C795 H783 0.950 . S
C795 C791 1.393 . S
C795 C794 1.391 . S
H796 C804 0.950 . S
H797 C809 0.950 . S
H798 C806 0.950 . S
H799 C808 0.950 . S
H800 C810 0.950 . S
H801 C812 0.950 . S
H802 C814 0.950 . S
H803 C815 0.950 . S
C804 H796 0.950 . S
C804 C805 1.386 . S
C804 C806 1.391 . S
C805 C804 1.386 . S
C805 C809 1.393 . S
C806 H798 0.950 . S
C806 C804 1.391 . S
C806 C807 1.400 . S
C807 C806 1.400 . S
C807 C808 1.398 . S
C807 C813 1.491 . S
C808 H799 0.950 . S
C808 C807 1.398 . S
C808 C809 1.391 . S
C809 H797 0.950 . S
C809 C805 1.393 . S
C809 C808 1.391 . S
C810 H800 0.950 . S
C810 C811 1.386 . S
C810 C812 1.391 . S
C811 C810 1.386 . S
C811 C815 1.393 . S
C812 H801 0.950 . S
C812 C810 1.391 . S
C812 C813 1.400 . S
C813 C807 1.491 . S
C813 C812 1.400 . S
C813 C814 1.398 . S
C814 H802 0.950 . S
C814 C813 1.398 . S
C814 C815 1.391 . S
C815 H803 0.950 . S
C815 C811 1.393 . S
C815 C814 1.391 . S
H816 C824 0.950 . S
H817 C829 0.950 . S
H818 C826 0.950 . S
H819 C828 0.950 . S
H820 C830 0.950 . S
H821 C832 0.950 . S
H822 C834 0.950 . S
H823 C835 0.950 . S
C824 H816 0.950 . S
C824 C825 1.386 . S
C824 C826 1.391 . S
C825 C824 1.386 . S
C825 C829 1.393 . S
C826 H818 0.950 . S
C826 C824 1.391 . S
C826 C827 1.400 . S
C827 C826 1.400 . S
C827 C828 1.398 . S
C827 C833 1.491 . S
C828 H819 0.950 . S
C828 C827 1.398 . S
C828 C829 1.391 . S
C829 H817 0.950 . S
C829 C825 1.393 . S
C829 C828 1.391 . S
C830 H820 0.950 . S
C830 C831 1.386 . S
C830 C832 1.391 . S
C831 C830 1.386 . S
C831 C835 1.393 . S
C832 H821 0.950 . S
C832 C830 1.391 . S
C832 C833 1.400 . S
C833 C827 1.491 . S
C833 C832 1.400 . S
C833 C834 1.398 . S
C834 H822 0.950 . S
C834 C833 1.398 . S
C834 C835 1.391 . S
C835 H823 0.950 . S
C835 C831 1.393 . S
C835 C834 1.391 . S
H836 C844 0.950 . S
H837 C849 0.950 . S
H838 C846 0.950 . S
H839 C848 0.950 . S
H840 C850 0.950 . S
H841 C852 0.950 . S
H842 C854 0.950 . S
H843 C855 0.950 . S
C844 H836 0.950 . S
C844 C845 1.386 . S
C844 C846 1.391 . S
C845 C844 1.386 . S
C845 C849 1.393 . S
C846 H838 0.950 . S
C846 C844 1.391 . S
C846 C847 1.400 . S
C847 C846 1.400 . S
C847 C848 1.398 . S
C847 C853 1.491 . S
C848 H839 0.950 . S
C848 C847 1.398 . S
C848 C849 1.391 . S
C849 H837 0.950 . S
C849 C845 1.393 . S
C849 C848 1.391 . S
C850 H840 0.950 . S
C850 C851 1.386 . S
C850 C852 1.391 . S
C851 C850 1.386 . S
C851 C855 1.393 . S
C852 H841 0.950 . S
C852 C850 1.391 . S
C852 C853 1.400 . S
C853 C847 1.491 . S
C853 C852 1.400 . S
C853 C854 1.398 . S
C854 H842 0.950 . S
C854 C853 1.398 . S
C854 C855 1.391 . S
C855 H843 0.950 . S
C855 C851 1.393 . S
C855 C854 1.391 . S
H856 C864 0.950 . S
H857 C869 0.950 . S
H858 C866 0.950 . S
H859 C868 0.950 . S
H860 C870 0.950 . S
H861 C872 0.950 . S
H862 C874 0.950 . S
H863 C875 0.950 . S
C864 H856 0.950 . S
C864 C865 1.386 . S
C864 C866 1.391 . S
C865 C864 1.386 . S
C865 C869 1.393 . S
C866 H858 0.950 . S
C866 C864 1.391 . S
C866 C867 1.400 . S
C867 C866 1.400 . S
C867 C868 1.398 . S
C867 C873 1.491 . S
C868 H859 0.950 . S
C868 C867 1.398 . S
C868 C869 1.391 . S
C869 H857 0.950 . S
C869 C865 1.393 . S
C869 C868 1.391 . S
C870 H860 0.950 . S
C870 C871 1.386 . S
C870 C872 1.391 . S
C871 C870 1.386 . S
C871 C875 1.393 . S
C872 H861 0.950 . S
C872 C870 1.391 . S
C872 C873 1.400 . S
C873 C867 1.491 . S
C873 C872 1.400 . S
C873 C874 1.398 . S
C874 H862 0.950 . S
C874 C873 1.398 . S
C874 C875 1.391 . S
C875 H863 0.950 . S
C875 C871 1.393 . S
C875 C874 1.391 . S
C405 C39 1.728 . S
C411 C319 1.724 . S
C425 C91 1.745 . S
C431 C332 1.743 . S
C451 C354 1.534 . S
C445 C128 1.587 . S
C471 C367 1.514 . S
C465 C188 1.557 . S
C491 C380 1.637 . S
C485 C250 1.685 . S
C511 C393 1.632 . S
C505 C304 1.696 . S
C525 C75 1.586 . S
C531 C349 1.531 . S
C545 C144 1.712 . S
C551 C362 1.651 . S
C571 C375 1.613 . S
C565 C198 1.673 . S
C591 C388 1.438 . S
C585 C234 1.515 . S
C605 C294 1.540 . S
C611 C321 1.538 . S
C631 C334 1.570 . S
C625 C29 1.570 . S
C651 C360 1.655 . S
C645 C38 1.722 . S
C665 C92 1.744 . S
C671 C373 1.681 . S
C691 C386 1.504 . S
C685 C135 1.581 . S
C705 C181 1.549 . S
C711 C323 1.547 . S
C725 C251 1.676 . S
C731 C336 1.674 . S
C745 C303 1.685 . S
C751 C347 1.598 . S
C765 C82 1.593 . S
C771 C384 1.547 . S
C791 C328 1.712 . S
C785 C145 1.716 . S
C805 C197 1.680 . S
C811 C341 1.677 . S
C825 C241 1.526 . S
C831 C345 1.472 . S
C845 C287 1.541 . S
C851 C358 1.484 . S
C865 C22 1.572 . S
C871 C371 1.523 . S
