# Generated by pormake.
# Topology rtl, (3,6)-cn, num edge types: 1
# Building blocks:
#     Node 0, Type 0, BuildingBlock: OLANEW_clean_sbu_2, # of connection points: 3
#     Node 1, Type 0, BuildingBlock: OLANEW_clean_sbu_2, # of connection points: 3
#     Node 2, Type 0, BuildingBlock: OLANEW_clean_sbu_2, # of connection points: 3
#     Node 3, Type 0, BuildingBlock: OLANEW_clean_sbu_2, # of connection points: 3
#     Node 4, Type 1, BuildingBlock: KUMBOL_clean_sbu_1, # of connection points: 6
#     Node 5, Type 1, BuildingBlock: KUMBOL_clean_sbu_1, # of connection points: 6
#     Edge 6, Type (0, 1), BuildingBlock: UVAHIK_clean_linker_0, # of connection points: 2
#     Edge 7, Type (0, 1), BuildingBlock: UVAHIK_clean_linker_0, # of connection points: 2
#     Edge 8, Type (0, 1), BuildingBlock: UVAHIK_clean_linker_0, # of connection points: 2
#     Edge 9, Type (0, 1), BuildingBlock: UVAHIK_clean_linker_0, # of connection points: 2
#     Edge 10, Type (0, 1), BuildingBlock: UVAHIK_clean_linker_0, # of connection points: 2
#     Edge 11, Type (0, 1), BuildingBlock: UVAHIK_clean_linker_0, # of connection points: 2
#     Edge 12, Type (0, 1), BuildingBlock: UVAHIK_clean_linker_0, # of connection points: 2
#     Edge 13, Type (0, 1), BuildingBlock: UVAHIK_clean_linker_0, # of connection points: 2
#     Edge 14, Type (0, 1), BuildingBlock: UVAHIK_clean_linker_0, # of connection points: 2
#     Edge 15, Type (0, 1), BuildingBlock: UVAHIK_clean_linker_0, # of connection points: 2
#     Edge 16, Type (0, 1), BuildingBlock: UVAHIK_clean_linker_0, # of connection points: 2
#     Edge 17, Type (0, 1), BuildingBlock: UVAHIK_clean_linker_0, # of connection points: 2
# Relax obj value: 0.041
# Max RMSD: 0.158
# Mean RMSD: 0.127
data_MOF--net-rtl--node1-OLANEW_clean_sbu_2--node2-KUMBOL_clean_sbu_1--edge1-UVAHIK_clean_linker_0
_symmetry_space_group_name_H-M    P1
_symmetry_Int_Tables_number       1
_symmetry_cell_setting            triclinic
loop_
_symmetry_equiv_pos_as_xyz
'x, y, z'
_cell_length_a     47.618336
_cell_length_b     47.114759
_cell_length_c     36.641858
_cell_angle_alpha  77.894542
_cell_angle_beta   102.03536
_cell_angle_gamma 91.031225
loop_
_atom_site_label
_atom_site_type_symbol
_atom_site_fract_x
_atom_site_fract_y
_atom_site_fract_z
_atom_type_partial_charge
O0 O 0.218 0.84182 0.99161 0.0
Cd1 Cd 0.24485 0.82163 0.0562 0.0
O2 O 0.22412 0.88735 -0.00332 0.0
Cd3 Cd 0.23844 0.87682 0.05869 0.0
O4 O 0.22686 0.882 0.11167 0.0
C5 C 0.21311 0.90549 0.10895 0.0
O6 O 0.20854 0.92442 0.07625 0.0
C7 C 0.2151 0.86878 0.97658 0.0
C8 C 0.28425 0.77885 0.05459 0.0
O9 O 0.25858 0.77247 0.05834 0.0
O10 O 0.29141 0.80545 0.052 0.0
O11 O 0.65229 0.73648 0.66085 0.0
Cd12 Cd 0.65913 0.76867 0.60151 0.0
O13 O 0.62985 0.70521 0.62873 0.0
Cd14 Cd 0.63588 0.72561 0.57181 0.0
O15 O 0.63226 0.72041 0.51324 0.0
C16 C 0.60739 0.71664 0.49434 0.0
O17 O 0.58508 0.71832 0.50977 0.0
C18 C 0.63866 0.71305 0.66023 0.0
C19 C 0.71306 0.79333 0.60234 0.0
O20 O 0.69386 0.8046 0.61523 0.0
O21 O 0.70708 0.76993 0.59002 0.0
O22 O 0.77347 0.15121 0.1089 0.0
Cd23 Cd 0.74461 0.16897 0.04461 0.0
O24 O 0.80966 0.14136 0.08442 0.0
Cd25 Cd 0.78957 0.15467 0.02416 0.0
O26 O 0.79397 0.14799 0.96856 0.0
C27 C 0.80038 0.12195 0.96845 0.0
O28 O 0.80161 0.1021 -0.0001 0.0
C29 C 0.79902 0.14158 0.11342 0.0
C30 C 0.70853 0.21648 0.03853 0.0
O31 O 0.6999 0.19043 0.04672 0.0
O32 O 0.73434 0.22004 0.03364 0.0
O33 O 0.3432 0.28553 0.54327 0.0
Cd34 Cd 0.32683 0.26165 0.48957 0.0
O35 O 0.36668 0.31741 0.50865 0.0
Cd36 Cd 0.35515 0.30374 0.45419 0.0
O37 O 0.35918 0.31462 0.39454 0.0
C38 C 0.38261 0.30778 0.38676 0.0
O39 O 0.40214 0.29238 0.41413 0.0
C40 C 0.35936 0.30732 0.54023 0.0
C41 C 0.28154 0.22416 0.49902 0.0
O42 O 0.30774 0.21511 0.51105 0.0
O43 O 0.27677 0.25101 0.48282 0.0
C44 C 0.95995 0.0861 0.4984 0.0
C45 C 0.91161 0.07612 0.46759 0.0
C46 C 0.9372 0.06723 0.49482 0.0
C47 C 0.90936 0.10393 0.44385 0.0
C48 C 0.95774 0.11405 0.47464 0.0
C49 C 0.93235 0.12283 0.44736 0.0
N50 N 0.98459 0.07675 0.52426 0.0
C51 C 0.00742 0.0945 0.52879 0.0
C52 C 0.98127 0.13223 0.4787 0.0
C53 C 0.00617 0.12244 0.50601 0.0
Gd54 Gd 0.02329 0.96583 0.52839 0.0
Gd55 Gd 0.98488 0.02948 0.56053 0.0
N56 N 0.94029 0.04006 0.51744 0.0
C57 C 0.88901 0.05679 0.46498 0.0
C58 C 0.91759 0.02195 0.51665 0.0
C59 C 0.89189 0.02975 0.48999 0.0
H60 H 0.91869 1.00184 0.53706 0.0
H61 H 0.87415 0.01505 0.48913 0.0
H62 H 0.08974 0.99447 0.5456 0.0
H63 H 0.02645 0.08729 0.55042 0.0
H64 H 0.13512 0.98361 0.59244 0.0
H65 H 0.86905 0.06276 0.44435 0.0
H66 H 0.88993 0.11102 0.42265 0.0
H67 H 0.98419 0.90654 0.54187 0.0
H68 H 0.98041 0.15385 0.46098 0.0
H69 H 0.02437 0.13643 0.50961 0.0
H70 H 0.12253 0.88899 0.66544 0.0
H71 H 0.93031 0.14417 0.42875 0.0
H72 H 0.03324 0.84261 0.63212 0.0
H73 H 0.98832 0.85791 0.58434 0.0
N74 N 0.02584 0.91882 0.56611 0.0
C75 C 0.05098 0.91062 0.59145 0.0
C76 C 0.00363 0.90021 0.56304 0.0
C77 C 0.03148 0.86398 0.61362 0.0
C78 C 0.00605 0.87258 0.58679 0.0
C79 C 0.05438 0.88303 0.61618 0.0
H80 H 0.0832 0.85445 0.66229 0.0
N81 N 0.06895 0.95694 0.56953 0.0
C82 C 0.07308 0.93029 0.59341 0.0
C83 C 0.12143 0.94242 0.62028 0.0
C84 C 0.09927 0.92254 0.61987 0.0
C85 C 0.09139 0.97525 0.5677 0.0
C86 C 0.11764 0.96866 0.59359 0.0
O87 O 0.98816 0.03456 0.49875 0.0
O88 O 0.98397 0.9884 0.48794 0.0
O89 O 0.04958 0.96886 0.48596 0.0
O90 O 0.02149 0.9327 0.4948 0.0
O91 O 0.96729 0.98401 0.57187 0.0
O92 O 0.9755 0.96156 0.52434 0.0
O93 O 0.01996 0.96021 0.5903 0.0
O94 O 0.02368 0.00632 0.60155 0.0
O95 O 0.95731 0.02686 0.60135 0.0
O96 O 0.98651 0.0623 0.5945 0.0
O97 O 0.04047 0.01165 0.51725 0.0
O98 O 0.03273 0.03217 0.56649 0.0
C99 C 0.97924 0.01649 0.47633 0.0
C100 C 0.96135 0.9642 0.55086 0.0
C101 C 0.02901 0.94987 0.43243 0.0
C102 C 0.04029 0.95006 0.37039 0.0
C103 C 0.9921 0.96328 0.37476 0.0
C104 C 0.00063 0.95871 0.41441 0.0
C105 C 0.01177 0.95905 0.35281 0.0
C106 C 0.04872 0.94551 0.41039 0.0
C107 C 0.03868 0.9461 0.47399 0.0
C108 C 0.10264 0.89518 0.64476 0.0
C109 C 0.08027 0.87548 0.6429 0.0
H110 H 0.14184 0.93733 0.64022 0.0
C111 C 0.02862 0.97822 0.61292 0.0
C112 C 0.04672 0.03056 0.53957 0.0
C113 C 0.97683 0.04535 0.65564 0.0
C114 C 0.96456 0.04861 0.71598 0.0
C115 C 0.01109 0.02855 0.71518 0.0
C116 C 0.00379 0.03316 0.67543 0.0
C117 C 0.99158 0.03613 0.73544 0.0
C118 C 0.95735 0.05314 0.67595 0.0
C119 C 0.96832 0.04933 0.614 0.0
H120 H 0.97018 0.97013 0.36101 0.0
H121 H 0.98511 0.9621 0.43094 0.0
H122 H 0.00457 0.96246 0.32212 0.0
H123 H 0.07074 0.9391 0.42438 0.0
H124 H 0.03191 0.0191 0.73031 0.0
H125 H 0.01915 0.02721 0.66021 0.0
H126 H 0.99775 0.03258 0.76625 0.0
H127 H 0.93641 0.06226 0.66059 0.0
C128 C 0.59125 0.55187 0.02555 0.0
C129 C 0.58167 0.60389 0.00975 0.0
C130 C 0.57348 0.57544 0.02395 0.0
C131 C 0.6072 0.60818 -0.00393 0.0
C132 C 0.61708 0.55613 0.01231 0.0
C133 C 0.62487 0.58438 -0.00261 0.0
N134 N 0.58263 0.52464 0.03863 0.0
C135 C 0.5992 0.50081 0.04063 0.0
C136 C 0.63406 0.53176 0.01383 0.0
C137 C 0.62512 0.50401 0.02818 0.0
Gd138 Gd 0.47124 0.50429 0.98018 0.0
Gd139 Gd 0.5391 0.52136 0.05909 0.0
N140 N 0.54857 0.57063 0.03686 0.0
C141 C 0.56428 0.62728 0.01049 0.0
C142 C 0.53316 0.59352 0.04094 0.0
C143 C 0.54024 0.62206 0.02687 0.0
H144 H 0.51602 0.59018 0.05626 0.0
H145 H 0.52751 0.64006 0.02947 0.0
H146 H 0.49008 0.43365 0.98672 0.0
H147 H 0.59235 0.47937 0.0519 0.0
H148 H 0.47351 0.3853 0.01133 0.0
H149 H 0.56983 0.64944 -0.00011 0.0
H150 H 0.61365 0.62987 0.98479 0.0
H151 H 0.41881 0.55084 0.97849 0.0
H152 H 0.65405 0.53414 0.00389 0.0
H153 H 0.63816 0.48507 0.02957 0.0
H154 H 0.38423 0.40378 0.04402 0.0
H155 H 0.64453 0.58807 0.98681 0.0
H156 H 0.35094 0.50264 0.02056 0.0
H157 H 0.37138 0.54973 -0.00392 0.0
N158 N 0.42551 0.50516 0.99425 0.0
C159 C 0.41433 0.479 0.00649 0.0
C160 C 0.4103 0.53032 0.98991 0.0
C161 C 0.37181 0.50306 0.01305 0.0
C162 C 0.38332 0.52969 -0.0006 0.0
C163 C 0.38727 0.47727 0.01665 0.0
H164 H 0.35602 0.44824 0.03857 0.0
N165 N 0.45669 0.45637 0.00026 0.0
C166 C 0.43049 0.45393 0.00996 0.0
C167 C 0.43576 0.4016 0.02465 0.0
C168 C 0.4196 0.42648 0.02308 0.0
C169 C 0.47132 0.43209 -0.00111 0.0
C170 C 0.46148 0.40443 0.01186 0.0
O171 O 0.54318 0.52492 -0.00216 0.0
O172 O 0.49889 0.54239 0.96423 0.0
O173 O 0.46932 0.48883 0.92692 0.0
O174 O 0.4391 0.52228 0.93023 0.0
O175 O 0.49605 0.54305 0.05495 0.0
O176 O 0.47505 0.54976 0.99097 0.0
O177 O 0.46631 0.49633 0.04172 0.0
O178 O 0.51167 0.4839 0.07832 0.0
O179 O 0.54621 0.53783 0.11181 0.0
O180 O 0.57356 0.50273 0.10651 0.0
O181 O 0.51328 0.47894 0.9883 0.0
O182 O 0.53584 0.47521 0.05173 0.0
C183 C 0.52678 0.54087 0.96764 0.0
C184 C 0.47732 0.55636 0.02459 0.0
C185 C 0.43385 0.50996 0.86869 0.0
C186 C 0.42178 0.49147 0.81008 0.0
C187 C 0.40854 0.54108 0.80989 0.0
C188 C 0.42082 0.53684 0.84869 0.0
C189 C 0.40909 0.51862 0.79062 0.0
C190 C 0.43413 0.48717 0.84932 0.0
C191 C 0.44766 0.50649 0.90934 0.0
C192 C 0.3928 0.42468 0.03364 0.0
C193 C 0.37668 0.44999 0.03042 0.0
H194 H 0.42813 0.38012 0.03453 0.0
C195 C 0.4836 0.48163 0.07226 0.0
C196 C 0.53145 0.46592 0.0196 0.0
C197 C 0.58465 0.51843 0.16675 0.0
C198 C 0.59915 0.53982 0.22284 0.0
C199 C 0.62046 0.49376 0.22102 0.0
C200 C 0.60388 0.49494 0.18452 0.0
C201 C 0.61823 0.51607 0.24006 0.0
C202 C 0.58218 0.54074 0.18619 0.0
C203 C 0.56792 0.51989 0.12767 0.0
H204 H 0.39864 0.56188 0.79467 0.0
H205 H 0.42043 0.55474 0.86294 0.0
H206 H 0.39928 0.52236 0.76049 0.0
H207 H 0.44413 0.46636 0.8645 0.0
H208 H 0.63517 0.47554 0.23454 0.0
H209 H 0.60616 0.47745 0.17022 0.0
H210 H 0.63126 0.51461 0.26844 0.0
H211 H 0.56769 0.55914 0.17247 0.0
C212 C 0.22889 0.21406 0.48884 0.0
C213 C 0.25753 0.20414 0.50332 0.0
C214 C 0.20625 0.19508 0.49244 0.0
C215 C 0.18807 0.12532 0.54889 0.0
H216 H 0.12315 0.12903 0.46401 0.0
C217 C 0.08148 0.05533 0.50116 0.0
C218 C 0.07089 0.05029 0.53492 0.0
C219 C 0.10436 0.07392 0.49697 0.0
C220 C 0.14121 0.12758 0.48787 0.0
H221 H 0.2848 0.16645 0.53297 0.0
H222 H 0.2453 0.13333 0.5391 0.0
H223 H 0.16305 0.16159 0.45717 0.0
H224 H 0.07624 0.0605 0.59098 0.0
H225 H 0.1159 0.09309 0.58353 0.0
H226 H 0.16642 0.09109 0.57944 0.0
C227 C 0.24035 0.15586 0.52528 0.0
C228 C 0.16393 0.14645 0.48411 0.0
C229 C 0.263 0.17483 0.52159 0.0
C230 C 0.08377 0.06407 0.56449 0.0
C231 C 0.10667 0.08256 0.56036 0.0
C232 C 0.16532 0.10653 0.5527 0.0
C233 C 0.2117 0.16575 0.51069 0.0
C234 C 0.18761 0.14557 0.51459 0.0
C235 C 0.11724 0.08773 0.52656 0.0
C236 C 0.1416 0.10747 0.52227 0.0
H237 H 0.22392 0.23653 0.47465 0.0
H238 H 0.18443 0.20348 0.48132 0.0
H239 H 0.20586 0.12424 0.57303 0.0
H240 H 0.07204 0.04499 0.47789 0.0
H241 H 0.11221 0.0772 0.47074 0.0
C242 C 0.3332 0.76329 0.04963 0.0
C243 C 0.30488 0.75625 0.0528 0.0
C244 C 0.35249 0.74202 0.0473 0.0
C245 C 0.36482 0.6623 0.06732 0.0
H246 H 0.41661 0.68149 -0.00254 0.0
C247 C 0.45446 0.58245 0.06432 0.0
C248 C 0.45883 0.5801 0.02831 0.0
C249 C 0.43641 0.60436 0.06781 0.0
C250 C 0.40217 0.67571 0.01693 0.0
H251 H 0.27461 0.7213 0.056 0.0
H252 H 0.3081 0.68434 0.05147 0.0
H253 H 0.38326 0.71855 0.00219 0.0
H254 H 0.44828 0.59936 0.96779 0.0
H255 H 0.41641 0.63729 0.97376 0.0
H256 H 0.38318 0.61927 0.08134 0.0
C257 C 0.31558 0.7062 0.05135 0.0
C258 C 0.38328 0.69707 0.01999 0.0
C259 C 0.29631 0.72744 0.05374 0.0
C260 C 0.44518 0.60047 0.99592 0.0
C261 C 0.4271 0.62236 -0.00061 0.0
C262 C 0.38369 0.64095 0.06425 0.0
C263 C 0.34391 0.71322 0.04805 0.0
C264 C 0.36431 0.69061 0.04516 0.0
C265 C 0.42236 0.62449 0.03536 0.0
C266 C 0.40256 0.64737 0.03897 0.0
H267 H 0.34052 0.78526 0.04893 0.0
H268 H 0.37425 0.74811 0.0453 0.0
H269 H 0.35074 0.65664 0.08731 0.0
H270 H 0.46474 0.56715 0.08985 0.0
H271 H 0.4336 0.60563 0.09601 0.0
C272 C 0.74952 0.82982 0.62016 0.0
C273 C 0.74077 0.80769 0.60015 0.0
C274 C 0.77485 0.84456 0.61631 0.0
C275 C 0.82176 0.86616 0.54906 0.0
H276 H 0.87737 0.88003 0.63671 0.0
C277 C 0.92686 0.9261 0.53195 0.0
C278 C 0.93723 0.94457 0.55702 0.0
C279 C 0.90405 0.90778 0.53793 0.0
C280 C 0.8619 0.87676 0.61184 0.0
H281 H 0.75191 0.78346 0.56071 0.0
H282 H 0.79592 0.80964 0.55349 0.0
H283 H 0.83547 0.85118 0.64629 0.0
H284 H 0.93122 0.9586 0.60771 0.0
H285 H 0.89088 0.92778 0.61714 0.0
H286 H 0.84735 0.89254 0.51444 0.0
C287 C 0.78319 0.81543 0.57227 0.0
C288 C 0.83797 0.86006 0.61742 0.0
C289 C 0.7581 0.80036 0.57659 0.0
C290 C 0.92398 0.94453 0.58792 0.0
C291 C 0.90093 0.92657 0.59357 0.0
C292 C 0.84545 0.88322 0.54343 0.0
C293 C 0.79172 0.83779 0.59191 0.0
C294 C 0.81763 0.85466 0.5861 0.0
C295 C 0.89066 0.90783 0.56876 0.0
C296 C 0.86583 0.88888 0.57474 0.0
H297 H 0.73666 0.83595 0.63856 0.0
H298 H 0.78083 0.86183 0.63161 0.0
H299 H 0.80621 0.86262 0.52438 0.0
H300 H 0.9363 0.92578 0.50758 0.0
H301 H 0.89706 0.89346 0.51843 0.0
C302 C 0.66059 0.23755 0.03862 0.0
C303 C 0.68916 0.2417 0.03452 0.0
C304 C 0.64228 0.26134 0.03476 0.0
C305 C 0.63317 0.34061 0.99574 0.0
H306 H 0.58305 0.3367 0.06746 0.0
C307 C 0.5624 0.42214 0.05364 0.0
C308 C 0.54796 0.43969 0.01911 0.0
C309 C 0.57835 0.39759 0.05372 0.0
C310 C 0.59699 0.33819 0.04729 0.0
H311 H 0.72089 0.27413 0.02303 0.0
H312 H 0.68907 0.3156 0.01685 0.0
H313 H 0.61379 0.29499 0.07131 0.0
H314 H 0.53901 0.44518 0.95751 0.0
H315 H 0.56677 0.40195 0.95767 0.0
H316 H 0.61691 0.38418 0.97247 0.0
C317 C 0.68067 0.29397 0.02248 0.0
C318 C 0.61439 0.31415 0.04922 0.0
C319 C 0.69898 0.27017 0.02631 0.0
C320 C 0.54983 0.43207 0.98459 0.0
C321 C 0.56587 0.40743 0.98468 0.0
C322 C 0.61573 0.36469 0.99379 0.0
C323 C 0.65212 0.28984 0.02675 0.0
C324 C 0.63287 0.31513 0.02368 0.0
C325 C 0.5803 0.3899 0.01929 0.0
C326 C 0.59766 0.36385 0.01981 0.0
H327 H 0.65229 0.2159 0.04475 0.0
H328 H 0.62031 0.25739 0.03774 0.0
H329 H 0.6469 0.34195 0.97533 0.0
H330 H 0.56144 0.42733 0.0808 0.0
H331 H 0.58956 0.38486 0.08085 0.0
C332 C 0.18422 0.93633 0.13615 0.0
C333 C 0.20039 0.9107 0.14066 0.0
C334 C 0.17034 0.94062 0.16463 0.0
C335 C 0.14135 0.90002 0.24542 0.0
H336 H 0.13387 0.97661 0.26621 0.0
C337 C 0.08014 0.9213 0.35845 0.0
C338 C 0.06123 0.94562 0.34705 0.0
C339 C 0.09952 0.91692 0.33613 0.0
C340 C 0.13564 0.95512 0.26056 0.0
H341 H 0.2154 0.86983 0.17924 0.0
H342 H 0.19138 0.8775 0.22931 0.0
H343 H 0.16437 0.96923 0.22299 0.0
H344 H 0.04826 0.9847 0.30371 0.0
H345 H 0.08186 0.97693 0.26457 0.0
H346 H 0.11238 0.88601 0.28276 0.0
C347 C 0.18911 0.89409 0.2034 0.0
C348 C 0.15311 0.95088 0.23579 0.0
C349 C 0.20302 0.88977 0.17482 0.0
C350 C 0.06235 0.96561 0.31306 0.0
C351 C 0.08182 0.96132 0.29087 0.0
C352 C 0.12396 0.90425 0.27032 0.0
C353 C 0.17232 0.91944 0.19844 0.0
C354 C 0.15582 0.92338 0.22742 0.0
C355 C 0.10055 0.93687 0.30206 0.0
C356 C 0.12056 0.93195 0.2777 0.0
H357 H 0.18171 0.95291 0.1102 0.0
H358 H 0.15729 0.96021 0.15956 0.0
H359 H 0.14262 0.87864 0.23924 0.0
H360 H 0.07964 0.90539 0.38436 0.0
H361 H 0.11381 0.89798 0.34564 0.0
C362 C 0.63742 0.70468 0.73015 0.0
C363 C 0.63189 0.69507 0.69555 0.0
C364 C 0.62918 0.68812 0.76254 0.0
C365 C 0.60785 0.61387 0.80303 0.0
H366 H 0.56895 0.65271 0.86261 0.0
C367 C 0.56749 0.55042 0.93381 0.0
C368 C 0.54034 0.55858 0.93807 0.0
C369 C 0.58102 0.56764 0.90701 0.0
C370 C 0.57967 0.64153 0.84615 0.0
H371 H 0.61392 0.66018 0.66823 0.0
H372 H 0.59951 0.63172 0.72418 0.0
H373 H 0.58897 0.68145 0.81089 0.0
H374 H 0.5058 0.59096 0.91725 0.0
H375 H 0.529 0.62069 0.86948 0.0
H376 H 0.59766 0.57397 0.83713 0.0
C377 C 0.61044 0.65182 0.72659 0.0
C378 C 0.59148 0.65802 0.81684 0.0
C379 C 0.61855 0.66831 0.69435 0.0
C380 C 0.52673 0.58411 0.91454 0.0
C381 C 0.54021 0.60133 0.88755 0.0
C382 C 0.59604 0.59741 0.83224 0.0
C383 C 0.61542 0.66157 0.76102 0.0
C384 C 0.6053 0.64435 0.79453 0.0
C385 C 0.56753 0.59329 0.88345 0.0
C386 C 0.58146 0.61101 0.85384 0.0
H387 H 0.64766 0.72518 0.73205 0.0
H388 H 0.63355 0.69611 0.78876 0.0
H389 H 0.61869 0.60264 0.78673 0.0
H390 H 0.57832 0.53063 0.95122 0.0
H391 H 0.60216 0.56092 0.90494 0.0
C392 C 0.84307 0.11567 0.15576 0.0
C393 C 0.81633 0.12942 0.15199 0.0
C394 C 0.85919 0.10299 0.19165 0.0
C395 C 0.87141 0.10451 0.29303 0.0
H396 H 0.90692 0.02852 0.30617 0.0
C397 C 0.96287 0.0572 0.42039 0.0
C398 C 0.96092 0.02807 0.43849 0.0
C399 C 0.94387 0.06905 0.38627 0.0
C400 C 0.89696 0.04963 0.30305 0.0
H401 H 0.78582 0.14102 0.18324 0.0
H402 H 0.81436 0.11894 0.24638 0.0
H403 H 0.87545 0.05028 0.24544 0.0
H404 H 0.93809 0.98823 0.43468 0.0
H405 H 0.90522 0.00878 0.37443 0.0
H406 H 0.89318 0.1039 0.35065 0.0
C407 C 0.82266 0.11804 0.22127 0.0
C408 C 0.87915 0.06219 0.26821 0.0
C409 C 0.80632 0.13059 0.18516 0.0
C410 C 0.94024 0.0107 0.42117 0.0
C411 C 0.92136 0.02249 0.38682 0.0
C412 C 0.88944 0.09204 0.32784 0.0
C413 C 0.84913 0.10385 0.22478 0.0
C414 C 0.86644 0.08989 0.26268 0.0
C415 C 0.92277 0.05188 0.36927 0.0
C416 C 0.90261 0.06458 0.33305 0.0
H417 H 0.85153 0.11438 0.13089 0.0
H418 H 0.87972 0.09264 0.19348 0.0
H419 H 0.862 0.12593 0.28951 0.0
H420 H 0.97892 0.07096 0.43285 0.0
H421 H 0.94581 0.09163 0.37306 0.0
C422 C 0.35987 0.31327 0.60725 0.0
C423 C 0.36916 0.32192 0.57263 0.0
C424 C 0.36792 0.3287 0.63648 0.0
C425 C 0.38927 0.40179 0.64861 0.0
H426 H 0.41541 0.36704 0.75598 0.0
C427 C 0.43115 0.47351 0.7543 0.0
C428 C 0.42167 0.46798 0.78882 0.0
C429 C 0.42735 0.45318 0.7311 0.0
C430 C 0.4079 0.37703 0.72614 0.0
H431 H 0.39529 0.35279 0.54244 0.0
H432 H 0.40915 0.37939 0.59307 0.0
H433 H 0.40301 0.33582 0.70944 0.0
H434 H 0.40207 0.43638 0.82722 0.0
H435 H 0.39477 0.40082 0.78614 0.0
H436 H 0.3935 0.44281 0.66476 0.0
C437 C 0.39533 0.36101 0.59747 0.0
C438 C 0.40081 0.35916 0.69954 0.0
C439 C 0.38742 0.34565 0.56847 0.0
C440 C 0.40965 0.44106 0.80073 0.0
C441 C 0.40551 0.42074 0.77723 0.0
C442 C 0.39616 0.41953 0.67502 0.0
C443 C 0.38525 0.35311 0.63149 0.0
C444 C 0.39178 0.37144 0.66044 0.0
C445 C 0.41356 0.42698 0.74158 0.0
C446 C 0.40593 0.40747 0.71406 0.0
H447 H 0.34589 0.29501 0.61143 0.0
H448 H 0.35978 0.32216 0.6624 0.0
H449 H 0.38172 0.41189 0.61879 0.0
H450 H 0.44086 0.49396 0.74478 0.0
H451 H 0.43457 0.45835 0.70439 0.0
C452 C 0.57648 0.70114 0.43808 0.0
C453 C 0.60393 0.7066 0.45801 0.0
C454 C 0.57336 0.68828 0.40643 0.0
C455 C 0.61262 0.6688 0.33684 0.0
H456 H 0.55963 0.60532 0.33648 0.0
C457 C 0.62252 0.57485 0.26186 0.0
C458 C 0.59733 0.56364 0.24314 0.0
C459 C 0.62102 0.59619 0.28271 0.0
C460 C 0.57416 0.62329 0.33573 0.0
H461 H 0.64957 0.70405 0.45922 0.0
H462 H 0.64417 0.68127 0.40449 0.0
H463 H 0.56114 0.63624 0.38235 0.0
H464 H 0.55081 0.5664 0.23092 0.0
H465 H 0.54816 0.60382 0.26754 0.0
H466 H 0.62629 0.65507 0.29102 0.0
C467 C 0.62499 0.68721 0.41296 0.0
C468 C 0.57502 0.64108 0.36201 0.0
C469 C 0.62811 0.70014 0.44453 0.0
C470 C 0.57057 0.57472 0.24496 0.0
C471 C 0.56906 0.59596 0.26611 0.0
C472 C 0.61184 0.65092 0.31067 0.0
C473 C 0.59761 0.68053 0.39404 0.0
C474 C 0.59463 0.66372 0.36336 0.0
C475 C 0.59429 0.60673 0.28549 0.0
C476 C 0.59297 0.62764 0.31031 0.0
H477 H 0.55738 0.70605 0.44754 0.0
H478 H 0.55194 0.68391 0.3921 0.0
H479 H 0.62761 0.68636 0.33666 0.0
H480 H 0.64344 0.56695 0.2606 0.0
H481 H 0.64083 0.60381 0.29764 0.0
C482 C 0.81986 0.08628 0.93777 0.0
C483 C 0.80987 0.1146 0.93553 0.0
C484 C 0.832 0.07982 0.90887 0.0
C485 C 0.86905 0.11533 0.83352 0.0
H486 H 0.8631 0.03959 0.80714 0.0
C487 C 0.92893 0.08367 0.7251 0.0
C488 C 0.94382 0.05672 0.73735 0.0
C489 C 0.90957 0.09142 0.74546 0.0
C490 C 0.865 0.06081 0.81432 0.0
H491 H 0.80342 0.15804 0.90018 0.0
H492 H 0.8242 0.1466 0.84924 0.0
H493 H 0.83299 0.0521 0.84809 0.0
H494 H 0.94973 0.01657 0.78 0.0
H495 H 0.91597 0.03013 0.81567 0.0
H496 H 0.90126 0.12387 0.79994 0.0
C497 C 0.82317 0.12953 0.87381 0.0
C498 C 0.84779 0.06798 0.83778 0.0
C499 C 0.81109 0.13604 0.90287 0.0
C500 C 0.93874 0.03757 0.77011 0.0
C501 C 0.91921 0.0452 0.79026 0.0
C502 C 0.88611 0.10822 0.80982 0.0
C503 C 0.83431 0.10148 0.87686 0.0
C504 C 0.85004 0.0951 0.84833 0.0
C505 C 0.90452 0.07225 0.77824 0.0
C506 C 0.88466 0.08068 0.80061 0.0
H507 H 0.81925 0.06923 0.96252 0.0
H508 H 0.84068 0.05808 0.91248 0.0
H509 H 0.87167 0.13624 0.84148 0.0
H510 H 0.93257 0.09893 0.70008 0.0
H511 H 0.89845 0.11235 0.73547 0.0
C512 C 0.41617 0.31386 0.34161 0.0
C513 C 0.3896 0.32046 0.34925 0.0
C514 C 0.42459 0.32864 0.30857 0.0
C515 C 0.3992 0.3768 0.21354 0.0
H516 H 0.4773 0.40378 0.23117 0.0
C517 C 0.44284 0.46528 0.1047 0.0
C518 C 0.47126 0.46149 0.10112 0.0
C519 C 0.43161 0.44634 0.13264 0.0
C520 C 0.45558 0.39609 0.22553 0.0
H521 H 0.35035 0.34669 0.32707 0.0
H522 H 0.36521 0.37266 0.26949 0.0
H523 H 0.45979 0.37305 0.28325 0.0
H524 H 0.50995 0.43446 0.12318 0.0
H525 H 0.49045 0.40149 0.17177 0.0
H526 H 0.39505 0.40025 0.1557 0.0
C527 C 0.37946 0.35594 0.289 0.0
C528 C 0.44552 0.37842 0.25544 0.0
C529 C 0.371 0.34112 0.32209 0.0
C530 C 0.48809 0.43819 0.1256 0.0
C531 C 0.47691 0.41931 0.15346 0.0
C532 C 0.40931 0.39451 0.18348 0.0
C533 C 0.40668 0.3504 0.28239 0.0
C534 C 0.41725 0.36852 0.24986 0.0
C535 C 0.44867 0.42335 0.15768 0.0
C536 C 0.43766 0.40432 0.18917 0.0
H537 H 0.43091 0.29788 0.36172 0.0
H538 H 0.44546 0.32343 0.30393 0.0
H539 H 0.37736 0.36938 0.20828 0.0
H540 H 0.42951 0.4833 0.08658 0.0
H541 H 0.40987 0.45025 0.13537 0.0
C542 C 0.19853 0.90823 0.91863 0.0
C543 C 0.19942 0.87869 0.93657 0.0
C544 C 0.18157 0.91803 0.88219 0.0
C545 C 0.11659 0.90003 0.81962 0.0
H546 H 0.14257 0.956 0.74066 0.0
C547 C 0.04582 0.93765 0.66893 0.0
C548 C 0.04716 0.96682 0.65068 0.0
C549 C 0.06494 0.92625 0.70317 0.0
C550 C 0.13485 0.94066 0.76257 0.0
H551 H 0.18384 0.83614 0.92975 0.0
H552 H 0.15408 0.85336 0.86621 0.0
H553 H 0.17592 0.93705 0.80093 0.0
H554 H 0.06893 0.00723 0.65445 0.0
H555 H 0.10152 0.98772 0.71499 0.0
H556 H 0.07537 0.9041 0.78193 0.0
C557 C 0.16644 0.8689 0.8805 0.0
C558 C 0.15401 0.92972 0.797 0.0
C559 C 0.18363 0.85904 0.91678 0.0
C560 C 0.06735 0.98465 0.66793 0.0
C561 C 0.08631 0.97334 0.70235 0.0
C562 C 0.09735 0.91116 0.78536 0.0
C563 C 0.16493 0.89854 0.86307 0.0
C564 C 0.14505 0.90934 0.8259 0.0
C565 C 0.08557 0.9439 0.72021 0.0
C566 C 0.1062 0.93171 0.75645 0.0
H567 H 0.21048 0.92393 0.93304 0.0
H568 H 0.18069 0.94102 0.86955 0.0
H569 H 0.10896 0.88467 0.84162 0.0
H570 H 0.03022 0.92351 0.65647 0.0
H571 H 0.06389 0.90343 0.71584 0.0
loop_
_geom_bond_atom_site_label_1
_geom_bond_atom_site_label_2
_geom_bond_distance
_geom_bond_site_symmetry_2
_ccdc_geom_bond_type
O0 Cd1 2.300 1_556 S
O0 C7 1.275 . S
Cd1 O0 2.300 1_554 S
Cd1 O9 2.381 . S
Cd1 O10 2.378 . S
O2 Cd3 2.385 . S
O2 C7 1.255 1_554 S
Cd3 O2 2.385 . S
Cd3 O4 2.317 . S
O4 Cd3 2.317 . S
O4 C5 1.232 . S
C5 O4 1.232 . S
C5 O6 1.218 . S
O6 C5 1.218 . S
C7 O0 1.275 . S
C7 O2 1.255 1_556 S
C8 O9 1.258 . S
C8 O10 1.256 . S
O9 Cd1 2.381 . S
O9 C8 1.258 . S
O10 Cd1 2.378 . S
O10 C8 1.256 . S
O11 Cd12 2.300 . S
O11 C18 1.275 . S
Cd12 O11 2.300 . S
Cd12 O20 2.381 . S
Cd12 O21 2.378 . S
O13 Cd14 2.385 . S
O13 C18 1.255 . S
Cd14 O13 2.385 . S
Cd14 O15 2.317 . S
O15 Cd14 2.317 . S
O15 C16 1.232 . S
C16 O15 1.232 . S
C16 O17 1.218 . S
O17 C16 1.218 . S
C18 O11 1.275 . S
C18 O13 1.255 . S
C19 O20 1.258 . S
C19 O21 1.256 . S
O20 Cd12 2.381 . S
O20 C19 1.258 . S
O21 Cd12 2.378 . S
O21 C19 1.256 . S
O22 Cd23 2.300 . S
O22 C29 1.275 . S
Cd23 O22 2.300 . S
Cd23 O31 2.381 . S
Cd23 O32 2.378 . S
O24 Cd25 2.385 . S
O24 C29 1.255 . S
Cd25 O24 2.385 . S
Cd25 O26 2.317 1_554 S
O26 Cd25 2.317 1_556 S
O26 C27 1.232 . S
C27 O26 1.232 . S
C27 O28 1.218 1_556 S
O28 C27 1.218 1_554 S
C29 O22 1.275 . S
C29 O24 1.255 . S
C30 O31 1.258 . S
C30 O32 1.256 . S
O31 Cd23 2.381 . S
O31 C30 1.258 . S
O32 Cd23 2.378 . S
O32 C30 1.256 . S
O33 Cd34 2.300 . S
O33 C40 1.275 . S
Cd34 O33 2.300 . S
Cd34 O42 2.381 . S
Cd34 O43 2.378 . S
O35 Cd36 2.385 . S
O35 C40 1.255 . S
Cd36 O35 2.385 . S
Cd36 O37 2.317 . S
O37 Cd36 2.317 . S
O37 C38 1.232 . S
C38 O37 1.232 . S
C38 O39 1.218 . S
O39 C38 1.218 . S
C40 O33 1.275 . S
C40 O35 1.255 . S
C41 O42 1.258 . S
C41 O43 1.256 . S
O42 Cd34 2.381 . S
O42 C41 1.258 . S
O43 Cd34 2.378 . S
O43 C41 1.256 . S
C44 C46 1.422 . S
C44 C48 1.415 . S
C44 N50 1.369 . S
C45 C46 1.421 . S
C45 C47 1.417 . S
C45 C57 1.422 . S
C46 C44 1.422 . S
C46 C45 1.421 . S
C46 N56 1.359 . S
C47 C45 1.417 . S
C47 C49 1.329 . S
C47 H66 0.930 . S
C48 C44 1.415 . S
C48 C49 1.437 . S
C48 C52 1.413 . S
C49 C47 1.329 . S
C49 C48 1.437 . S
C49 H71 0.929 . S
N50 C44 1.369 . S
N50 C51 1.338 1_655 S
N50 Gd55 2.622 . S
C51 N50 1.338 1_455 S
C51 C53 1.378 . S
C51 H63 0.929 . S
C52 C48 1.413 . S
C52 C53 1.348 1_655 S
C52 H68 0.931 . S
C53 C51 1.378 . S
C53 C52 1.348 1_455 S
C53 H69 0.930 . S
Gd54 N74 2.622 . S
Gd54 N81 2.570 . S
Gd54 O88 2.353 1_465 S
Gd54 O89 2.468 . S
Gd54 O90 2.427 . S
Gd54 O92 2.388 1_455 S
Gd54 O93 2.386 . S
Gd54 O97 2.307 1_565 S
Gd54 C107 2.805 . S
Gd55 N50 2.622 . S
Gd55 N56 2.570 . S
Gd55 O87 2.386 . S
Gd55 O91 2.307 1_545 S
Gd55 O94 2.353 1_655 S
Gd55 O95 2.468 . S
Gd55 O96 2.427 . S
Gd55 O98 2.388 1_655 S
Gd55 C119 2.805 . S
N56 C46 1.359 . S
N56 Gd55 2.570 . S
N56 C58 1.343 . S
C57 C45 1.422 . S
C57 C59 1.321 . S
C57 H65 0.931 . S
C58 N56 1.343 . S
C58 C59 1.390 . S
C58 H60 0.931 . S
C59 C57 1.321 . S
C59 C58 1.390 . S
C59 H61 0.930 . S
H60 C58 0.931 . S
H61 C59 0.930 . S
H62 C85 0.931 . S
H63 C51 0.929 . S
H64 C86 0.930 . S
H65 C57 0.931 . S
H66 C47 0.930 . S
H67 C76 0.929 1_655 S
H68 C52 0.931 . S
H69 C53 0.930 . S
H70 C108 0.930 . S
H71 C49 0.929 . S
H72 C77 0.931 . S
H73 C78 0.930 1_655 S
N74 Gd54 2.622 . S
N74 C75 1.369 . S
N74 C76 1.338 . S
C75 N74 1.369 . S
C75 C79 1.415 . S
C75 C82 1.422 . S
C76 H67 0.929 1_455 S
C76 N74 1.338 . S
C76 C78 1.378 . S
C77 H72 0.931 . S
C77 C78 1.348 . S
C77 C79 1.413 . S
C78 H73 0.930 1_455 S
C78 C76 1.378 . S
C78 C77 1.348 . S
C79 C75 1.415 . S
C79 C77 1.413 . S
C79 C109 1.437 . S
H80 C109 0.929 . S
N81 Gd54 2.570 . S
N81 C82 1.359 . S
N81 C85 1.343 . S
C82 C75 1.422 . S
C82 N81 1.359 . S
C82 C84 1.421 . S
C83 C84 1.422 . S
C83 C86 1.321 . S
C83 H110 0.931 . S
C84 C82 1.421 . S
C84 C83 1.422 . S
C84 C108 1.417 . S
C85 H62 0.931 . S
C85 N81 1.343 . S
C85 C86 1.390 . S
C86 H64 0.930 . S
C86 C83 1.321 . S
C86 C85 1.390 . S
O87 Gd55 2.386 . S
O87 C99 1.265 . S
O88 Gd54 2.353 1_645 S
O88 C99 1.242 . S
O89 Gd54 2.468 . S
O89 C107 1.263 . S
O90 Gd54 2.427 . S
O90 C107 1.252 . S
O91 Gd55 2.307 1_565 S
O91 C100 1.261 . S
O92 Gd54 2.388 1_655 S
O92 C100 1.252 . S
O93 Gd54 2.386 . S
O93 C111 1.265 . S
O94 Gd55 2.353 1_455 S
O94 C111 1.242 1_545 S
O95 Gd55 2.468 . S
O95 C119 1.263 . S
O96 Gd55 2.427 . S
O96 C119 1.252 . S
O97 Gd54 2.307 1_545 S
O97 C112 1.261 . S
O98 Gd55 2.388 1_455 S
O98 C112 1.252 . S
C99 O87 1.265 . S
C99 O88 1.242 . S
C100 O91 1.261 . S
C100 O92 1.252 . S
C101 C104 1.394 . S
C101 C106 1.370 . S
C101 C107 1.500 . S
C102 C105 1.383 . S
C102 C106 1.395 . S
C103 C104 1.396 . S
C103 C105 1.365 . S
C103 H120 0.929 . S
C104 C101 1.394 . S
C104 C103 1.396 . S
C104 H121 0.930 . S
C105 C102 1.383 . S
C105 C103 1.365 . S
C105 H122 0.931 . S
C106 C101 1.370 . S
C106 C102 1.395 . S
C106 H123 0.930 . S
C107 Gd54 2.805 . S
C107 O89 1.263 . S
C107 O90 1.252 . S
C107 C101 1.500 . S
C108 H70 0.930 . S
C108 C84 1.417 . S
C108 C109 1.329 . S
C109 C79 1.437 . S
C109 H80 0.929 . S
C109 C108 1.329 . S
H110 C83 0.931 . S
C111 O93 1.265 . S
C111 O94 1.242 1_565 S
C112 O97 1.261 . S
C112 O98 1.252 . S
C113 C116 1.394 . S
C113 C118 1.370 . S
C113 C119 1.500 . S
C114 C117 1.383 . S
C114 C118 1.395 . S
C115 C116 1.396 . S
C115 C117 1.365 . S
C115 H124 0.929 . S
C116 C113 1.394 . S
C116 C115 1.396 . S
C116 H125 0.930 . S
C117 C114 1.383 . S
C117 C115 1.365 . S
C117 H126 0.931 . S
C118 C113 1.370 . S
C118 C114 1.395 . S
C118 H127 0.930 . S
C119 Gd55 2.805 . S
C119 O95 1.263 . S
C119 O96 1.252 . S
C119 C113 1.500 . S
H120 C103 0.929 . S
H121 C104 0.930 . S
H122 C105 0.931 . S
H123 C106 0.930 . S
H124 C115 0.929 . S
H125 C116 0.930 . S
H126 C117 0.931 . S
H127 C118 0.930 . S
C128 C130 1.422 . S
C128 C132 1.415 . S
C128 N134 1.369 . S
C129 C130 1.421 . S
C129 C131 1.417 . S
C129 C141 1.422 . S
C130 C128 1.422 . S
C130 C129 1.421 . S
C130 N140 1.359 . S
C131 C129 1.417 . S
C131 C133 1.329 . S
C131 H150 0.930 . S
C132 C128 1.415 . S
C132 C133 1.437 . S
C132 C136 1.413 . S
C133 C131 1.329 . S
C133 C132 1.437 . S
C133 H155 0.929 . S
N134 C128 1.369 . S
N134 C135 1.338 . S
N134 Gd139 2.622 . S
C135 N134 1.338 . S
C135 C137 1.378 . S
C135 H147 0.929 . S
C136 C132 1.413 . S
C136 C137 1.348 . S
C136 H152 0.931 . S
C137 C135 1.378 . S
C137 C136 1.348 . S
C137 H153 0.930 . S
Gd138 N158 2.622 . S
Gd138 N165 2.570 1_556 S
Gd138 O172 2.353 . S
Gd138 O173 2.468 . S
Gd138 O174 2.427 . S
Gd138 O176 2.388 . S
Gd138 O177 2.386 1_556 S
Gd138 O181 2.307 1_556 S
Gd138 C191 2.805 . S
Gd139 N134 2.622 . S
Gd139 N140 2.570 . S
Gd139 O171 2.386 1_554 S
Gd139 O175 2.307 . S
Gd139 O178 2.353 . S
Gd139 O179 2.468 . S
Gd139 O180 2.427 . S
Gd139 O182 2.388 . S
Gd139 C203 2.805 . S
N140 C130 1.359 . S
N140 Gd139 2.570 . S
N140 C142 1.343 . S
C141 C129 1.422 . S
C141 C143 1.321 . S
C141 H149 0.937 . S
C142 N140 1.343 . S
C142 C143 1.390 . S
C142 H144 0.931 . S
C143 C141 1.321 . S
C143 C142 1.390 . S
C143 H145 0.930 . S
H144 C142 0.931 . S
H145 C143 0.930 . S
H146 C169 0.931 . S
H147 C135 0.929 . S
H148 C170 0.930 . S
H149 C141 0.937 . S
H150 C131 0.930 . S
H151 C160 0.929 . S
H152 C136 0.931 . S
H153 C137 0.930 . S
H154 C192 0.930 . S
H155 C133 0.929 . S
H156 C161 0.935 . S
H157 C162 0.930 . S
N158 Gd138 2.622 . S
N158 C159 1.369 1_556 S
N158 C160 1.338 . S
C159 N158 1.369 1_554 S
C159 C163 1.415 . S
C159 C166 1.422 . S
C160 H151 0.929 . S
C160 N158 1.338 . S
C160 C162 1.378 . S
C161 H156 0.935 . S
C161 C162 1.344 1_554 S
C161 C163 1.412 . S
C162 H157 0.930 . S
C162 C160 1.378 . S
C162 C161 1.344 1_556 S
C163 C159 1.415 . S
C163 C161 1.412 . S
C163 C193 1.437 . S
H164 C193 0.929 . S
N165 Gd138 2.570 1_554 S
N165 C166 1.359 . S
N165 C169 1.343 . S
C166 C159 1.422 . S
C166 N165 1.359 . S
C166 C168 1.421 . S
C167 C168 1.422 . S
C167 C170 1.321 . S
C167 H194 0.931 . S
C168 C166 1.421 . S
C168 C167 1.422 . S
C168 C192 1.417 . S
C169 H146 0.931 . S
C169 N165 1.343 . S
C169 C170 1.390 . S
C170 H148 0.930 . S
C170 C167 1.321 . S
C170 C169 1.390 . S
O171 Gd139 2.386 1_556 S
O171 C183 1.265 . S
O172 Gd138 2.353 . S
O172 C183 1.242 . S
O173 Gd138 2.468 . S
O173 C191 1.263 . S
O174 Gd138 2.427 . S
O174 C191 1.252 . S
O175 Gd139 2.307 . S
O175 C184 1.261 . S
O176 Gd138 2.388 . S
O176 C184 1.252 1_556 S
O177 Gd138 2.386 1_554 S
O177 C195 1.265 . S
O178 Gd139 2.353 . S
O178 C195 1.242 . S
O179 Gd139 2.468 . S
O179 C203 1.263 . S
O180 Gd139 2.427 . S
O180 C203 1.252 . S
O181 Gd138 2.307 1_554 S
O181 C196 1.261 . S
O182 Gd139 2.388 . S
O182 C196 1.252 . S
C183 O171 1.265 . S
C183 O172 1.242 . S
C184 O175 1.261 . S
C184 O176 1.252 1_554 S
C185 C188 1.394 . S
C185 C190 1.370 . S
C185 C191 1.500 . S
C186 C189 1.383 . S
C186 C190 1.395 . S
C187 C188 1.396 . S
C187 C189 1.365 . S
C187 H204 0.929 . S
C188 C185 1.394 . S
C188 C187 1.396 . S
C188 H205 0.930 . S
C189 C186 1.383 . S
C189 C187 1.365 . S
C189 H206 0.931 . S
C190 C185 1.370 . S
C190 C186 1.395 . S
C190 H207 0.930 . S
C191 Gd138 2.805 . S
C191 O173 1.263 . S
C191 O174 1.252 . S
C191 C185 1.500 . S
C192 H154 0.930 . S
C192 C168 1.417 . S
C192 C193 1.329 . S
C193 C163 1.437 . S
C193 H164 0.929 . S
C193 C192 1.329 . S
H194 C167 0.931 . S
C195 O177 1.265 . S
C195 O178 1.242 . S
C196 O181 1.261 . S
C196 O182 1.252 . S
C197 C200 1.394 . S
C197 C202 1.370 . S
C197 C203 1.500 . S
C198 C201 1.383 . S
C198 C202 1.395 . S
C199 C200 1.396 . S
C199 C201 1.365 . S
C199 H208 0.929 . S
C200 C197 1.394 . S
C200 C199 1.396 . S
C200 H209 0.930 . S
C201 C198 1.383 . S
C201 C199 1.365 . S
C201 H210 0.931 . S
C202 C197 1.370 . S
C202 C198 1.395 . S
C202 H211 0.930 . S
C203 Gd139 2.805 . S
C203 O179 1.263 . S
C203 O180 1.252 . S
C203 C197 1.500 . S
H204 C187 0.929 . S
H205 C188 0.930 . S
H206 C189 0.931 . S
H207 C190 0.930 . S
H208 C199 0.929 . S
H209 C200 0.930 . S
H210 C201 0.931 . S
H211 C202 0.930 . S
C212 C213 1.349 . S
C212 C214 1.327 . S
C212 H237 0.950 . S
C213 C212 1.349 . S
C213 C229 1.349 . S
C214 C212 1.327 . S
C214 C233 1.429 . S
C214 H238 0.950 . S
C215 C232 1.574 . S
C215 C234 1.368 . S
C215 H239 0.949 . S
H216 C220 0.949 . S
C217 C218 1.349 . S
C217 C219 1.327 . S
C217 H240 0.950 . S
C218 C217 1.349 . S
C218 C230 1.349 . S
C219 C217 1.327 . S
C219 C235 1.429 . S
C219 H241 0.950 . S
C220 H216 0.949 . S
C220 C228 1.574 . S
C220 C236 1.368 . S
H221 C229 0.950 . S
H222 C227 0.950 . S
H223 C228 0.949 . S
H224 C230 0.950 . S
H225 C231 0.950 . S
H226 C232 0.949 . S
C227 H222 0.950 . S
C227 C229 1.327 . S
C227 C233 1.429 . S
C228 C220 1.574 . S
C228 H223 0.949 . S
C228 C234 1.368 . S
C229 C213 1.349 . S
C229 H221 0.950 . S
C229 C227 1.327 . S
C230 C218 1.349 . S
C230 H224 0.950 . S
C230 C231 1.327 . S
C231 H225 0.950 . S
C231 C230 1.327 . S
C231 C235 1.429 . S
C232 C215 1.574 . S
C232 H226 0.949 . S
C232 C236 1.368 . S
C233 C214 1.429 . S
C233 C227 1.429 . S
C233 C234 1.523 . S
C234 C215 1.368 . S
C234 C228 1.368 . S
C234 C233 1.523 . S
C235 C219 1.429 . S
C235 C231 1.429 . S
C235 C236 1.523 . S
C236 C220 1.368 . S
C236 C232 1.368 . S
C236 C235 1.523 . S
H237 C212 0.950 . S
H238 C214 0.950 . S
H239 C215 0.949 . S
H240 C217 0.950 . S
H241 C219 0.950 . S
C242 C243 1.349 . S
C242 C244 1.327 . S
C242 H267 0.950 . S
C243 C242 1.349 . S
C243 C259 1.349 . S
C244 C242 1.327 . S
C244 C263 1.429 . S
C244 H268 0.950 . S
C245 C262 1.574 . S
C245 C264 1.368 . S
C245 H269 0.949 . S
H246 C250 0.949 . S
C247 C248 1.349 . S
C247 C249 1.327 . S
C247 H270 0.950 . S
C248 C247 1.349 . S
C248 C260 1.349 . S
C249 C247 1.327 . S
C249 C265 1.429 . S
C249 H271 0.950 . S
C250 H246 0.949 . S
C250 C258 1.574 . S
C250 C266 1.368 . S
H251 C259 0.950 . S
H252 C257 0.950 . S
H253 C258 0.949 . S
H254 C260 0.950 . S
H255 C261 0.950 . S
H256 C262 0.949 . S
C257 H252 0.950 . S
C257 C259 1.327 . S
C257 C263 1.429 . S
C258 C250 1.574 . S
C258 H253 0.949 . S
C258 C264 1.368 . S
C259 C243 1.349 . S
C259 H251 0.950 . S
C259 C257 1.327 . S
C260 C248 1.349 . S
C260 H254 0.950 . S
C260 C261 1.327 . S
C261 H255 0.950 . S
C261 C260 1.327 . S
C261 C265 1.429 . S
C262 C245 1.574 . S
C262 H256 0.949 . S
C262 C266 1.368 . S
C263 C244 1.429 . S
C263 C257 1.429 . S
C263 C264 1.523 . S
C264 C245 1.368 . S
C264 C258 1.368 . S
C264 C263 1.523 . S
C265 C249 1.429 . S
C265 C261 1.429 . S
C265 C266 1.523 . S
C266 C250 1.368 . S
C266 C262 1.368 . S
C266 C265 1.523 . S
H267 C242 0.950 . S
H268 C244 0.950 . S
H269 C245 0.949 . S
H270 C247 0.950 . S
H271 C249 0.950 . S
C272 C273 1.349 . S
C272 C274 1.327 . S
C272 H297 0.950 . S
C273 C272 1.349 . S
C273 C289 1.349 . S
C274 C272 1.327 . S
C274 C293 1.429 . S
C274 H298 0.950 . S
C275 C292 1.574 . S
C275 C294 1.368 . S
C275 H299 0.949 . S
H276 C280 0.949 . S
C277 C278 1.349 . S
C277 C279 1.327 . S
C277 H300 0.950 . S
C278 C277 1.349 . S
C278 C290 1.349 . S
C279 C277 1.327 . S
C279 C295 1.429 . S
C279 H301 0.950 . S
C280 H276 0.949 . S
C280 C288 1.574 . S
C280 C296 1.368 . S
H281 C289 0.950 . S
H282 C287 0.950 . S
H283 C288 0.949 . S
H284 C290 0.950 . S
H285 C291 0.950 . S
H286 C292 0.949 . S
C287 H282 0.950 . S
C287 C289 1.327 . S
C287 C293 1.429 . S
C288 C280 1.574 . S
C288 H283 0.949 . S
C288 C294 1.368 . S
C289 C273 1.349 . S
C289 H281 0.950 . S
C289 C287 1.327 . S
C290 C278 1.349 . S
C290 H284 0.950 . S
C290 C291 1.327 . S
C291 H285 0.950 . S
C291 C290 1.327 . S
C291 C295 1.429 . S
C292 C275 1.574 . S
C292 H286 0.949 . S
C292 C296 1.368 . S
C293 C274 1.429 . S
C293 C287 1.429 . S
C293 C294 1.523 . S
C294 C275 1.368 . S
C294 C288 1.368 . S
C294 C293 1.523 . S
C295 C279 1.429 . S
C295 C291 1.429 . S
C295 C296 1.523 . S
C296 C280 1.368 . S
C296 C292 1.368 . S
C296 C295 1.523 . S
H297 C272 0.950 . S
H298 C274 0.950 . S
H299 C275 0.949 . S
H300 C277 0.950 . S
H301 C279 0.950 . S
C302 C303 1.349 . S
C302 C304 1.327 . S
C302 H327 0.950 1_554 S
C303 C302 1.349 . S
C303 C319 1.349 . S
C304 C302 1.327 . S
C304 C323 1.429 . S
C304 H328 0.950 1_554 S
C305 C322 1.574 . S
C305 C324 1.368 . S
C305 H329 0.949 . S
H306 C310 0.949 1_556 S
C307 C308 1.349 . S
C307 C309 1.327 . S
C307 H330 0.950 . S
C308 C307 1.349 . S
C308 C320 1.352 . S
C309 C307 1.327 . S
C309 C325 1.429 . S
C309 H331 0.950 . S
C310 H306 0.949 1_554 S
C310 C318 1.574 . S
C310 C326 1.368 . S
H311 C319 0.950 . S
H312 C317 0.950 . S
H313 C318 0.949 1_556 S
H314 C320 0.948 1_556 S
H315 C321 0.950 1_556 S
H316 C322 0.949 . S
C317 H312 0.950 . S
C317 C319 1.327 . S
C317 C323 1.429 . S
C318 C310 1.574 . S
C318 H313 0.949 1_554 S
C318 C324 1.368 . S
C319 C303 1.349 . S
C319 H311 0.950 . S
C319 C317 1.327 . S
C320 C308 1.352 . S
C320 H314 0.948 1_554 S
C320 C321 1.326 . S
C321 H315 0.950 1_554 S
C321 C320 1.326 . S
C321 C325 1.429 . S
C322 C305 1.574 . S
C322 H316 0.949 . S
C322 C326 1.368 . S
C323 C304 1.429 . S
C323 C317 1.429 . S
C323 C324 1.523 . S
C324 C305 1.368 . S
C324 C318 1.368 . S
C324 C323 1.523 . S
C325 C309 1.429 . S
C325 C321 1.429 . S
C325 C326 1.523 . S
C326 C310 1.368 . S
C326 C322 1.368 . S
C326 C325 1.523 . S
H327 C302 0.950 1_556 S
H328 C304 0.950 1_556 S
H329 C305 0.949 . S
H330 C307 0.950 . S
H331 C309 0.950 . S
C332 C333 1.349 . S
C332 C334 1.327 . S
C332 H357 0.950 . S
C333 C332 1.349 . S
C333 C349 1.349 . S
C334 C332 1.327 . S
C334 C353 1.429 . S
C334 H358 0.950 . S
C335 C352 1.574 . S
C335 C354 1.368 . S
C335 H359 0.949 . S
H336 C340 0.949 . S
C337 C338 1.349 . S
C337 C339 1.327 . S
C337 H360 0.950 . S
C338 C337 1.349 . S
C338 C350 1.349 . S
C339 C337 1.327 . S
C339 C355 1.429 . S
C339 H361 0.950 . S
C340 H336 0.949 . S
C340 C348 1.574 . S
C340 C356 1.368 . S
H341 C349 0.950 . S
H342 C347 0.950 . S
H343 C348 0.949 . S
H344 C350 0.950 . S
H345 C351 0.950 . S
H346 C352 0.949 . S
C347 H342 0.950 . S
C347 C349 1.327 . S
C347 C353 1.429 . S
C348 C340 1.574 . S
C348 H343 0.949 . S
C348 C354 1.368 . S
C349 C333 1.349 . S
C349 H341 0.950 . S
C349 C347 1.327 . S
C350 C338 1.349 . S
C350 H344 0.950 . S
C350 C351 1.327 . S
C351 H345 0.950 . S
C351 C350 1.327 . S
C351 C355 1.429 . S
C352 C335 1.574 . S
C352 H346 0.949 . S
C352 C356 1.368 . S
C353 C334 1.429 . S
C353 C347 1.429 . S
C353 C354 1.523 . S
C354 C335 1.368 . S
C354 C348 1.368 . S
C354 C353 1.523 . S
C355 C339 1.429 . S
C355 C351 1.429 . S
C355 C356 1.523 . S
C356 C340 1.368 . S
C356 C352 1.368 . S
C356 C355 1.523 . S
H357 C332 0.950 . S
H358 C334 0.950 . S
H359 C335 0.949 . S
H360 C337 0.950 . S
H361 C339 0.950 . S
C362 C363 1.349 . S
C362 C364 1.327 . S
C362 H387 0.950 . S
C363 C362 1.349 . S
C363 C379 1.349 . S
C364 C362 1.327 . S
C364 C383 1.429 . S
C364 H388 0.950 . S
C365 C382 1.574 . S
C365 C384 1.368 . S
C365 H389 0.949 . S
H366 C370 0.949 . S
C367 C368 1.349 . S
C367 C369 1.327 . S
C367 H390 0.950 . S
C368 C367 1.349 . S
C368 C380 1.349 . S
C369 C367 1.327 . S
C369 C385 1.429 . S
C369 H391 0.950 . S
C370 H366 0.949 . S
C370 C378 1.574 . S
C370 C386 1.368 . S
H371 C379 0.950 . S
H372 C377 0.950 . S
H373 C378 0.949 . S
H374 C380 0.950 . S
H375 C381 0.950 . S
H376 C382 0.949 . S
C377 H372 0.950 . S
C377 C379 1.327 . S
C377 C383 1.429 . S
C378 C370 1.574 . S
C378 H373 0.949 . S
C378 C384 1.368 . S
C379 C363 1.349 . S
C379 H371 0.950 . S
C379 C377 1.327 . S
C380 C368 1.349 . S
C380 H374 0.950 . S
C380 C381 1.327 . S
C381 H375 0.950 . S
C381 C380 1.327 . S
C381 C385 1.429 . S
C382 C365 1.574 . S
C382 H376 0.949 . S
C382 C386 1.368 . S
C383 C364 1.429 . S
C383 C377 1.429 . S
C383 C384 1.523 . S
C384 C365 1.368 . S
C384 C378 1.368 . S
C384 C383 1.523 . S
C385 C369 1.429 . S
C385 C381 1.429 . S
C385 C386 1.523 . S
C386 C370 1.368 . S
C386 C382 1.368 . S
C386 C385 1.523 . S
H387 C362 0.950 . S
H388 C364 0.950 . S
H389 C365 0.949 . S
H390 C367 0.950 . S
H391 C369 0.950 . S
C392 C393 1.349 . S
C392 C394 1.327 . S
C392 H417 0.950 . S
C393 C392 1.349 . S
C393 C409 1.349 . S
C394 C392 1.327 . S
C394 C413 1.429 . S
C394 H418 0.950 . S
C395 C412 1.574 . S
C395 C414 1.368 . S
C395 H419 0.949 . S
H396 C400 0.949 . S
C397 C398 1.349 . S
C397 C399 1.327 . S
C397 H420 0.950 . S
C398 C397 1.349 . S
C398 C410 1.349 . S
C399 C397 1.327 . S
C399 C415 1.429 . S
C399 H421 0.950 . S
C400 H396 0.949 . S
C400 C408 1.574 . S
C400 C416 1.368 . S
H401 C409 0.950 . S
H402 C407 0.950 . S
H403 C408 0.949 . S
H404 C410 0.950 . S
H405 C411 0.950 . S
H406 C412 0.949 . S
C407 H402 0.950 . S
C407 C409 1.327 . S
C407 C413 1.429 . S
C408 C400 1.574 . S
C408 H403 0.949 . S
C408 C414 1.368 . S
C409 C393 1.349 . S
C409 H401 0.950 . S
C409 C407 1.327 . S
C410 C398 1.349 . S
C410 H404 0.950 . S
C410 C411 1.327 . S
C411 H405 0.950 . S
C411 C410 1.327 . S
C411 C415 1.429 . S
C412 C395 1.574 . S
C412 H406 0.949 . S
C412 C416 1.368 . S
C413 C394 1.429 . S
C413 C407 1.429 . S
C413 C414 1.523 . S
C414 C395 1.368 . S
C414 C408 1.368 . S
C414 C413 1.523 . S
C415 C399 1.429 . S
C415 C411 1.429 . S
C415 C416 1.523 . S
C416 C400 1.368 . S
C416 C412 1.368 . S
C416 C415 1.523 . S
H417 C392 0.950 . S
H418 C394 0.950 . S
H419 C395 0.949 . S
H420 C397 0.950 . S
H421 C399 0.950 . S
C422 C423 1.349 . S
C422 C424 1.327 . S
C422 H447 0.950 . S
C423 C422 1.349 . S
C423 C439 1.349 . S
C424 C422 1.327 . S
C424 C443 1.429 . S
C424 H448 0.950 . S
C425 C442 1.574 . S
C425 C444 1.368 . S
C425 H449 0.949 . S
H426 C430 0.949 . S
C427 C428 1.349 . S
C427 C429 1.327 . S
C427 H450 0.950 . S
C428 C427 1.349 . S
C428 C440 1.349 . S
C429 C427 1.327 . S
C429 C445 1.429 . S
C429 H451 0.950 . S
C430 H426 0.949 . S
C430 C438 1.574 . S
C430 C446 1.368 . S
H431 C439 0.950 . S
H432 C437 0.950 . S
H433 C438 0.949 . S
H434 C440 0.950 . S
H435 C441 0.950 . S
H436 C442 0.949 . S
C437 H432 0.950 . S
C437 C439 1.327 . S
C437 C443 1.429 . S
C438 C430 1.574 . S
C438 H433 0.949 . S
C438 C444 1.368 . S
C439 C423 1.349 . S
C439 H431 0.950 . S
C439 C437 1.327 . S
C440 C428 1.349 . S
C440 H434 0.950 . S
C440 C441 1.327 . S
C441 H435 0.950 . S
C441 C440 1.327 . S
C441 C445 1.429 . S
C442 C425 1.574 . S
C442 H436 0.949 . S
C442 C446 1.368 . S
C443 C424 1.429 . S
C443 C437 1.429 . S
C443 C444 1.523 . S
C444 C425 1.368 . S
C444 C438 1.368 . S
C444 C443 1.523 . S
C445 C429 1.429 . S
C445 C441 1.429 . S
C445 C446 1.523 . S
C446 C430 1.368 . S
C446 C442 1.368 . S
C446 C445 1.523 . S
H447 C422 0.950 . S
H448 C424 0.950 . S
H449 C425 0.949 . S
H450 C427 0.950 . S
H451 C429 0.950 . S
C452 C453 1.349 . S
C452 C454 1.327 . S
C452 H477 0.950 . S
C453 C452 1.349 . S
C453 C469 1.349 . S
C454 C452 1.327 . S
C454 C473 1.429 . S
C454 H478 0.950 . S
C455 C472 1.574 . S
C455 C474 1.368 . S
C455 H479 0.949 . S
H456 C460 0.949 . S
C457 C458 1.349 . S
C457 C459 1.327 . S
C457 H480 0.950 . S
C458 C457 1.349 . S
C458 C470 1.349 . S
C459 C457 1.327 . S
C459 C475 1.429 . S
C459 H481 0.950 . S
C460 H456 0.949 . S
C460 C468 1.574 . S
C460 C476 1.368 . S
H461 C469 0.950 . S
H462 C467 0.950 . S
H463 C468 0.949 . S
H464 C470 0.950 . S
H465 C471 0.950 . S
H466 C472 0.949 . S
C467 H462 0.950 . S
C467 C469 1.327 . S
C467 C473 1.429 . S
C468 C460 1.574 . S
C468 H463 0.949 . S
C468 C474 1.368 . S
C469 C453 1.349 . S
C469 H461 0.950 . S
C469 C467 1.327 . S
C470 C458 1.349 . S
C470 H464 0.950 . S
C470 C471 1.327 . S
C471 H465 0.950 . S
C471 C470 1.327 . S
C471 C475 1.429 . S
C472 C455 1.574 . S
C472 H466 0.949 . S
C472 C476 1.368 . S
C473 C454 1.429 . S
C473 C467 1.429 . S
C473 C474 1.523 . S
C474 C455 1.368 . S
C474 C468 1.368 . S
C474 C473 1.523 . S
C475 C459 1.429 . S
C475 C471 1.429 . S
C475 C476 1.523 . S
C476 C460 1.368 . S
C476 C472 1.368 . S
C476 C475 1.523 . S
H477 C452 0.950 . S
H478 C454 0.950 . S
H479 C455 0.949 . S
H480 C457 0.950 . S
H481 C459 0.950 . S
C482 C483 1.349 . S
C482 C484 1.327 . S
C482 H507 0.950 . S
C483 C482 1.349 . S
C483 C499 1.349 . S
C484 C482 1.327 . S
C484 C503 1.429 . S
C484 H508 0.950 . S
C485 C502 1.574 . S
C485 C504 1.368 . S
C485 H509 0.949 . S
H486 C490 0.949 . S
C487 C488 1.349 . S
C487 C489 1.327 . S
C487 H510 0.950 . S
C488 C487 1.349 . S
C488 C500 1.349 . S
C489 C487 1.327 . S
C489 C505 1.429 . S
C489 H511 0.950 . S
C490 H486 0.949 . S
C490 C498 1.574 . S
C490 C506 1.368 . S
H491 C499 0.950 . S
H492 C497 0.950 . S
H493 C498 0.949 . S
H494 C500 0.950 . S
H495 C501 0.950 . S
H496 C502 0.949 . S
C497 H492 0.950 . S
C497 C499 1.327 . S
C497 C503 1.429 . S
C498 C490 1.574 . S
C498 H493 0.949 . S
C498 C504 1.368 . S
C499 C483 1.349 . S
C499 H491 0.950 . S
C499 C497 1.327 . S
C500 C488 1.349 . S
C500 H494 0.950 . S
C500 C501 1.327 . S
C501 H495 0.950 . S
C501 C500 1.327 . S
C501 C505 1.429 . S
C502 C485 1.574 . S
C502 H496 0.949 . S
C502 C506 1.368 . S
C503 C484 1.429 . S
C503 C497 1.429 . S
C503 C504 1.523 . S
C504 C485 1.368 . S
C504 C498 1.368 . S
C504 C503 1.523 . S
C505 C489 1.429 . S
C505 C501 1.429 . S
C505 C506 1.523 . S
C506 C490 1.368 . S
C506 C502 1.368 . S
C506 C505 1.523 . S
H507 C482 0.950 . S
H508 C484 0.950 . S
H509 C485 0.949 . S
H510 C487 0.950 . S
H511 C489 0.950 . S
C512 C513 1.349 . S
C512 C514 1.327 . S
C512 H537 0.950 . S
C513 C512 1.349 . S
C513 C529 1.349 . S
C514 C512 1.327 . S
C514 C533 1.429 . S
C514 H538 0.950 . S
C515 C532 1.574 . S
C515 C534 1.368 . S
C515 H539 0.949 . S
H516 C520 0.949 . S
C517 C518 1.349 . S
C517 C519 1.327 . S
C517 H540 0.950 . S
C518 C517 1.349 . S
C518 C530 1.349 . S
C519 C517 1.327 . S
C519 C535 1.429 . S
C519 H541 0.950 . S
C520 H516 0.949 . S
C520 C528 1.574 . S
C520 C536 1.368 . S
H521 C529 0.950 . S
H522 C527 0.950 . S
H523 C528 0.949 . S
H524 C530 0.950 . S
H525 C531 0.950 . S
H526 C532 0.949 . S
C527 H522 0.950 . S
C527 C529 1.327 . S
C527 C533 1.429 . S
C528 C520 1.574 . S
C528 H523 0.949 . S
C528 C534 1.368 . S
C529 C513 1.349 . S
C529 H521 0.950 . S
C529 C527 1.327 . S
C530 C518 1.349 . S
C530 H524 0.950 . S
C530 C531 1.327 . S
C531 H525 0.950 . S
C531 C530 1.327 . S
C531 C535 1.429 . S
C532 C515 1.574 . S
C532 H526 0.949 . S
C532 C536 1.368 . S
C533 C514 1.429 . S
C533 C527 1.429 . S
C533 C534 1.523 . S
C534 C515 1.368 . S
C534 C528 1.368 . S
C534 C533 1.523 . S
C535 C519 1.429 . S
C535 C531 1.429 . S
C535 C536 1.523 . S
C536 C520 1.368 . S
C536 C532 1.368 . S
C536 C535 1.523 . S
H537 C512 0.950 . S
H538 C514 0.950 . S
H539 C515 0.949 . S
H540 C517 0.950 . S
H541 C519 0.950 . S
C542 C543 1.349 . S
C542 C544 1.327 . S
C542 H567 0.950 . S
C543 C542 1.349 . S
C543 C559 1.349 . S
C544 C542 1.327 . S
C544 C563 1.429 . S
C544 H568 0.950 . S
C545 C562 1.574 . S
C545 C564 1.368 . S
C545 H569 0.949 . S
H546 C550 0.949 . S
C547 C548 1.349 . S
C547 C549 1.327 . S
C547 H570 0.950 . S
C548 C547 1.349 . S
C548 C560 1.349 . S
C549 C547 1.327 . S
C549 C565 1.429 . S
C549 H571 0.950 . S
C550 H546 0.949 . S
C550 C558 1.574 . S
C550 C566 1.368 . S
H551 C559 0.950 . S
H552 C557 0.950 . S
H553 C558 0.949 . S
H554 C560 0.950 1_545 S
H555 C561 0.950 . S
H556 C562 0.949 . S
C557 H552 0.950 . S
C557 C559 1.327 . S
C557 C563 1.429 . S
C558 C550 1.574 . S
C558 H553 0.949 . S
C558 C564 1.368 . S
C559 C543 1.349 . S
C559 H551 0.950 . S
C559 C557 1.327 . S
C560 C548 1.349 . S
C560 H554 0.950 1_565 S
C560 C561 1.327 . S
C561 H555 0.950 . S
C561 C560 1.327 . S
C561 C565 1.429 . S
C562 C545 1.574 . S
C562 H556 0.949 . S
C562 C566 1.368 . S
C563 C544 1.429 . S
C563 C557 1.429 . S
C563 C564 1.523 . S
C564 C545 1.368 . S
C564 C558 1.368 . S
C564 C563 1.523 . S
C565 C549 1.429 . S
C565 C561 1.429 . S
C565 C566 1.523 . S
C566 C550 1.368 . S
C566 C562 1.368 . S
C566 C565 1.523 . S
H567 C542 0.950 . S
H568 C544 0.950 . S
H569 C545 0.949 . S
H570 C547 0.950 . S
H571 C549 0.950 . S
C218 C112 1.650 . S
C213 C41 1.650 . S
C243 C8 1.664 . S
C248 C184 1.654 . S
C273 C19 1.744 . S
C278 C100 1.753 . S
C303 C30 1.631 . S
C308 C196 1.634 . S
C338 C102 1.501 . S
C333 C5 1.513 . S
C368 C183 1.816 . S
C363 C18 1.760 . S
C393 C29 1.629 . S
C398 C99 1.721 . S
C423 C40 1.616 . S
C428 C186 1.527 . S
C458 C198 1.383 . S
C453 C16 1.316 . S
C488 C114 1.363 . S
C483 C27 1.298 . S
C518 C195 1.552 . S
C513 C38 1.304 . S
C543 C7 1.470 . S
C548 C111 1.508 . S
