# Generated by pormake.
# Topology iac, (4,6)-cn, num edge types: 1
# Building blocks:
#     Node 0, Type 0, BuildingBlock: QUQFOY_clean_sbu_3, # of connection points: 4
#     Node 1, Type 0, BuildingBlock: QUQFOY_clean_sbu_3, # of connection points: 4
#     Node 2, Type 0, BuildingBlock: QUQFOY_clean_sbu_3, # of connection points: 4
#     Node 3, Type 0, BuildingBlock: QUQFOY_clean_sbu_3, # of connection points: 4
#     Node 4, Type 0, BuildingBlock: QUQFOY_clean_sbu_3, # of connection points: 4
#     Node 5, Type 0, BuildingBlock: QUQFOY_clean_sbu_3, # of connection points: 4
#     Node 6, Type 0, BuildingBlock: QUQFOY_clean_sbu_3, # of connection points: 4
#     Node 7, Type 0, BuildingBlock: QUQFOY_clean_sbu_3, # of connection points: 4
#     Node 8, Type 0, BuildingBlock: QUQFOY_clean_sbu_3, # of connection points: 4
#     Node 9, Type 0, BuildingBlock: QUQFOY_clean_sbu_3, # of connection points: 4
#     Node 10, Type 0, BuildingBlock: QUQFOY_clean_sbu_3, # of connection points: 4
#     Node 11, Type 0, BuildingBlock: QUQFOY_clean_sbu_3, # of connection points: 4
#     Node 12, Type 0, BuildingBlock: QUQFOY_clean_sbu_3, # of connection points: 4
#     Node 13, Type 0, BuildingBlock: QUQFOY_clean_sbu_3, # of connection points: 4
#     Node 14, Type 0, BuildingBlock: QUQFOY_clean_sbu_3, # of connection points: 4
#     Node 15, Type 0, BuildingBlock: QUQFOY_clean_sbu_3, # of connection points: 4
#     Node 16, Type 0, BuildingBlock: QUQFOY_clean_sbu_3, # of connection points: 4
#     Node 17, Type 0, BuildingBlock: QUQFOY_clean_sbu_3, # of connection points: 4
#     Node 18, Type 0, BuildingBlock: QUQFOY_clean_sbu_3, # of connection points: 4
#     Node 19, Type 0, BuildingBlock: QUQFOY_clean_sbu_3, # of connection points: 4
#     Node 20, Type 0, BuildingBlock: QUQFOY_clean_sbu_3, # of connection points: 4
#     Node 21, Type 0, BuildingBlock: QUQFOY_clean_sbu_3, # of connection points: 4
#     Node 22, Type 0, BuildingBlock: QUQFOY_clean_sbu_3, # of connection points: 4
#     Node 23, Type 0, BuildingBlock: QUQFOY_clean_sbu_3, # of connection points: 4
#     Node 24, Type 1, BuildingBlock: FUNLAD_clean_sbu_0, # of connection points: 6
#     Node 25, Type 1, BuildingBlock: FUNLAD_clean_sbu_0, # of connection points: 6
#     Node 26, Type 1, BuildingBlock: FUNLAD_clean_sbu_0, # of connection points: 6
#     Node 27, Type 1, BuildingBlock: FUNLAD_clean_sbu_0, # of connection points: 6
#     Node 28, Type 1, BuildingBlock: FUNLAD_clean_sbu_0, # of connection points: 6
#     Node 29, Type 1, BuildingBlock: FUNLAD_clean_sbu_0, # of connection points: 6
#     Node 30, Type 1, BuildingBlock: FUNLAD_clean_sbu_0, # of connection points: 6
#     Node 31, Type 1, BuildingBlock: FUNLAD_clean_sbu_0, # of connection points: 6
#     Node 32, Type 1, BuildingBlock: FUNLAD_clean_sbu_0, # of connection points: 6
#     Node 33, Type 1, BuildingBlock: FUNLAD_clean_sbu_0, # of connection points: 6
#     Node 34, Type 1, BuildingBlock: FUNLAD_clean_sbu_0, # of connection points: 6
#     Node 35, Type 1, BuildingBlock: FUNLAD_clean_sbu_0, # of connection points: 6
#     Node 36, Type 1, BuildingBlock: FUNLAD_clean_sbu_0, # of connection points: 6
#     Node 37, Type 1, BuildingBlock: FUNLAD_clean_sbu_0, # of connection points: 6
#     Node 38, Type 1, BuildingBlock: FUNLAD_clean_sbu_0, # of connection points: 6
#     Node 39, Type 1, BuildingBlock: FUNLAD_clean_sbu_0, # of connection points: 6
#     Edge 40, Type (0, 1), BuildingBlock: TEMPAE_clean_linker_10, # of connection points: 2
#     Edge 41, Type (0, 1), BuildingBlock: TEMPAE_clean_linker_10, # of connection points: 2
#     Edge 42, Type (0, 1), BuildingBlock: TEMPAE_clean_linker_10, # of connection points: 2
#     Edge 43, Type (0, 1), BuildingBlock: TEMPAE_clean_linker_10, # of connection points: 2
#     Edge 44, Type (0, 1), BuildingBlock: TEMPAE_clean_linker_10, # of connection points: 2
#     Edge 45, Type (0, 1), BuildingBlock: TEMPAE_clean_linker_10, # of connection points: 2
#     Edge 46, Type (0, 1), BuildingBlock: TEMPAE_clean_linker_10, # of connection points: 2
#     Edge 47, Type (0, 1), BuildingBlock: TEMPAE_clean_linker_10, # of connection points: 2
#     Edge 48, Type (0, 1), BuildingBlock: TEMPAE_clean_linker_10, # of connection points: 2
#     Edge 49, Type (0, 1), BuildingBlock: TEMPAE_clean_linker_10, # of connection points: 2
#     Edge 50, Type (0, 1), BuildingBlock: TEMPAE_clean_linker_10, # of connection points: 2
#     Edge 51, Type (0, 1), BuildingBlock: TEMPAE_clean_linker_10, # of connection points: 2
#     Edge 52, Type (0, 1), BuildingBlock: TEMPAE_clean_linker_10, # of connection points: 2
#     Edge 53, Type (0, 1), BuildingBlock: TEMPAE_clean_linker_10, # of connection points: 2
#     Edge 54, Type (0, 1), BuildingBlock: TEMPAE_clean_linker_10, # of connection points: 2
#     Edge 55, Type (0, 1), BuildingBlock: TEMPAE_clean_linker_10, # of connection points: 2
#     Edge 56, Type (0, 1), BuildingBlock: TEMPAE_clean_linker_10, # of connection points: 2
#     Edge 57, Type (0, 1), BuildingBlock: TEMPAE_clean_linker_10, # of connection points: 2
#     Edge 58, Type (0, 1), BuildingBlock: TEMPAE_clean_linker_10, # of connection points: 2
#     Edge 59, Type (0, 1), BuildingBlock: TEMPAE_clean_linker_10, # of connection points: 2
#     Edge 60, Type (0, 1), BuildingBlock: TEMPAE_clean_linker_10, # of connection points: 2
#     Edge 61, Type (0, 1), BuildingBlock: TEMPAE_clean_linker_10, # of connection points: 2
#     Edge 62, Type (0, 1), BuildingBlock: TEMPAE_clean_linker_10, # of connection points: 2
#     Edge 63, Type (0, 1), BuildingBlock: TEMPAE_clean_linker_10, # of connection points: 2
#     Edge 64, Type (0, 1), BuildingBlock: TEMPAE_clean_linker_10, # of connection points: 2
#     Edge 65, Type (0, 1), BuildingBlock: TEMPAE_clean_linker_10, # of connection points: 2
#     Edge 66, Type (0, 1), BuildingBlock: TEMPAE_clean_linker_10, # of connection points: 2
#     Edge 67, Type (0, 1), BuildingBlock: TEMPAE_clean_linker_10, # of connection points: 2
#     Edge 68, Type (0, 1), BuildingBlock: TEMPAE_clean_linker_10, # of connection points: 2
#     Edge 69, Type (0, 1), BuildingBlock: TEMPAE_clean_linker_10, # of connection points: 2
#     Edge 70, Type (0, 1), BuildingBlock: TEMPAE_clean_linker_10, # of connection points: 2
#     Edge 71, Type (0, 1), BuildingBlock: TEMPAE_clean_linker_10, # of connection points: 2
#     Edge 72, Type (0, 1), BuildingBlock: TEMPAE_clean_linker_10, # of connection points: 2
#     Edge 73, Type (0, 1), BuildingBlock: TEMPAE_clean_linker_10, # of connection points: 2
#     Edge 74, Type (0, 1), BuildingBlock: TEMPAE_clean_linker_10, # of connection points: 2
#     Edge 75, Type (0, 1), BuildingBlock: TEMPAE_clean_linker_10, # of connection points: 2
#     Edge 76, Type (0, 1), BuildingBlock: TEMPAE_clean_linker_10, # of connection points: 2
#     Edge 77, Type (0, 1), BuildingBlock: TEMPAE_clean_linker_10, # of connection points: 2
#     Edge 78, Type (0, 1), BuildingBlock: TEMPAE_clean_linker_10, # of connection points: 2
#     Edge 79, Type (0, 1), BuildingBlock: TEMPAE_clean_linker_10, # of connection points: 2
#     Edge 80, Type (0, 1), BuildingBlock: TEMPAE_clean_linker_10, # of connection points: 2
#     Edge 81, Type (0, 1), BuildingBlock: TEMPAE_clean_linker_10, # of connection points: 2
#     Edge 82, Type (0, 1), BuildingBlock: TEMPAE_clean_linker_10, # of connection points: 2
#     Edge 83, Type (0, 1), BuildingBlock: TEMPAE_clean_linker_10, # of connection points: 2
#     Edge 84, Type (0, 1), BuildingBlock: TEMPAE_clean_linker_10, # of connection points: 2
#     Edge 85, Type (0, 1), BuildingBlock: TEMPAE_clean_linker_10, # of connection points: 2
#     Edge 86, Type (0, 1), BuildingBlock: TEMPAE_clean_linker_10, # of connection points: 2
#     Edge 87, Type (0, 1), BuildingBlock: TEMPAE_clean_linker_10, # of connection points: 2
#     Edge 88, Type (0, 1), BuildingBlock: TEMPAE_clean_linker_10, # of connection points: 2
#     Edge 89, Type (0, 1), BuildingBlock: TEMPAE_clean_linker_10, # of connection points: 2
#     Edge 90, Type (0, 1), BuildingBlock: TEMPAE_clean_linker_10, # of connection points: 2
#     Edge 91, Type (0, 1), BuildingBlock: TEMPAE_clean_linker_10, # of connection points: 2
#     Edge 92, Type (0, 1), BuildingBlock: TEMPAE_clean_linker_10, # of connection points: 2
#     Edge 93, Type (0, 1), BuildingBlock: TEMPAE_clean_linker_10, # of connection points: 2
#     Edge 94, Type (0, 1), BuildingBlock: TEMPAE_clean_linker_10, # of connection points: 2
#     Edge 95, Type (0, 1), BuildingBlock: TEMPAE_clean_linker_10, # of connection points: 2
#     Edge 96, Type (0, 1), BuildingBlock: TEMPAE_clean_linker_10, # of connection points: 2
#     Edge 97, Type (0, 1), BuildingBlock: TEMPAE_clean_linker_10, # of connection points: 2
#     Edge 98, Type (0, 1), BuildingBlock: TEMPAE_clean_linker_10, # of connection points: 2
#     Edge 99, Type (0, 1), BuildingBlock: TEMPAE_clean_linker_10, # of connection points: 2
#     Edge 100, Type (0, 1), BuildingBlock: TEMPAE_clean_linker_10, # of connection points: 2
#     Edge 101, Type (0, 1), BuildingBlock: TEMPAE_clean_linker_10, # of connection points: 2
#     Edge 102, Type (0, 1), BuildingBlock: TEMPAE_clean_linker_10, # of connection points: 2
#     Edge 103, Type (0, 1), BuildingBlock: TEMPAE_clean_linker_10, # of connection points: 2
#     Edge 104, Type (0, 1), BuildingBlock: TEMPAE_clean_linker_10, # of connection points: 2
#     Edge 105, Type (0, 1), BuildingBlock: TEMPAE_clean_linker_10, # of connection points: 2
#     Edge 106, Type (0, 1), BuildingBlock: TEMPAE_clean_linker_10, # of connection points: 2
#     Edge 107, Type (0, 1), BuildingBlock: TEMPAE_clean_linker_10, # of connection points: 2
#     Edge 108, Type (0, 1), BuildingBlock: TEMPAE_clean_linker_10, # of connection points: 2
#     Edge 109, Type (0, 1), BuildingBlock: TEMPAE_clean_linker_10, # of connection points: 2
#     Edge 110, Type (0, 1), BuildingBlock: TEMPAE_clean_linker_10, # of connection points: 2
#     Edge 111, Type (0, 1), BuildingBlock: TEMPAE_clean_linker_10, # of connection points: 2
#     Edge 112, Type (0, 1), BuildingBlock: TEMPAE_clean_linker_10, # of connection points: 2
#     Edge 113, Type (0, 1), BuildingBlock: TEMPAE_clean_linker_10, # of connection points: 2
#     Edge 114, Type (0, 1), BuildingBlock: TEMPAE_clean_linker_10, # of connection points: 2
#     Edge 115, Type (0, 1), BuildingBlock: TEMPAE_clean_linker_10, # of connection points: 2
#     Edge 116, Type (0, 1), BuildingBlock: TEMPAE_clean_linker_10, # of connection points: 2
#     Edge 117, Type (0, 1), BuildingBlock: TEMPAE_clean_linker_10, # of connection points: 2
#     Edge 118, Type (0, 1), BuildingBlock: TEMPAE_clean_linker_10, # of connection points: 2
#     Edge 119, Type (0, 1), BuildingBlock: TEMPAE_clean_linker_10, # of connection points: 2
#     Edge 120, Type (0, 1), BuildingBlock: TEMPAE_clean_linker_10, # of connection points: 2
#     Edge 121, Type (0, 1), BuildingBlock: TEMPAE_clean_linker_10, # of connection points: 2
#     Edge 122, Type (0, 1), BuildingBlock: TEMPAE_clean_linker_10, # of connection points: 2
#     Edge 123, Type (0, 1), BuildingBlock: TEMPAE_clean_linker_10, # of connection points: 2
#     Edge 124, Type (0, 1), BuildingBlock: TEMPAE_clean_linker_10, # of connection points: 2
#     Edge 125, Type (0, 1), BuildingBlock: TEMPAE_clean_linker_10, # of connection points: 2
#     Edge 126, Type (0, 1), BuildingBlock: TEMPAE_clean_linker_10, # of connection points: 2
#     Edge 127, Type (0, 1), BuildingBlock: TEMPAE_clean_linker_10, # of connection points: 2
#     Edge 128, Type (0, 1), BuildingBlock: TEMPAE_clean_linker_10, # of connection points: 2
#     Edge 129, Type (0, 1), BuildingBlock: TEMPAE_clean_linker_10, # of connection points: 2
#     Edge 130, Type (0, 1), BuildingBlock: TEMPAE_clean_linker_10, # of connection points: 2
#     Edge 131, Type (0, 1), BuildingBlock: TEMPAE_clean_linker_10, # of connection points: 2
#     Edge 132, Type (0, 1), BuildingBlock: TEMPAE_clean_linker_10, # of connection points: 2
#     Edge 133, Type (0, 1), BuildingBlock: TEMPAE_clean_linker_10, # of connection points: 2
#     Edge 134, Type (0, 1), BuildingBlock: TEMPAE_clean_linker_10, # of connection points: 2
#     Edge 135, Type (0, 1), BuildingBlock: TEMPAE_clean_linker_10, # of connection points: 2
# Relax obj value: 0.323
# Max RMSD: 0.273
# Mean RMSD: 0.129
data_MOF--net-iac--node1-QUQFOY_clean_sbu_3--node2-FUNLAD_clean_sbu_0--edge1-TEMPAE_clean_linker_10
_symmetry_space_group_name_H-M    P1
_symmetry_Int_Tables_number       1
_symmetry_cell_setting            triclinic
loop_
_symmetry_equiv_pos_as_xyz
'x, y, z'
_cell_length_a     56.234791
_cell_length_b     55.263965
_cell_length_c     60.983839
_cell_angle_alpha  90.757956
_cell_angle_beta   92.018082
_cell_angle_gamma 90.623726
loop_
_atom_site_label
_atom_site_type_symbol
_atom_site_fract_x
_atom_site_fract_y
_atom_site_fract_z
_atom_type_partial_charge
C0 C 0.04988 0.20631 0.2267 0.0
O1 O 0.06248 0.1874 0.22734 0.0
Cd2 Cd 0.08945 0.17685 0.19915 0.0
O3 O 0.05113 0.22078 0.2107 0.0
Cd4 Cd 0.07183 0.22326 0.17602 0.0
C5 C 0.04863 0.17012 0.15744 0.0
O6 O 0.11149 0.2122 0.18889 0.0
O7 O 0.10561 0.21356 0.15366 0.0
O8 O 0.07673 0.26737 0.17719 0.0
C9 C 0.12017 0.21244 0.16995 0.0
O10 O 0.06434 0.15972 0.16939 0.0
C11 C 0.06484 0.27072 0.15941 0.0
O12 O 0.04657 0.19298 0.15797 0.0
O13 O 0.05539 0.25217 0.15005 0.0
C14 C 0.97605 0.75294 0.35553 0.0
O15 O -0.01088 0.76436 0.34252 0.0
Cd16 Cd 0.02961 0.77526 0.35102 0.0
O17 O 0.98471 0.74441 0.37344 0.0
Cd18 Cd 0.02482 0.73988 0.39296 0.0
C19 C 0.02416 0.8008 0.40282 0.0
O20 O 0.04734 0.73721 0.35925 0.0
O21 O 0.06868 0.73702 0.38915 0.0
O22 O 0.00876 0.69957 0.40138 0.0
C23 C 0.06787 0.73624 0.36836 0.0
O24 O 0.02673 0.80332 0.38231 0.0
C25 C 0.01734 0.69906 0.42091 0.0
O26 O 0.02308 0.77984 0.41121 0.0
O27 O 0.02942 0.71747 0.42752 0.0
C28 C 0.53076 0.72782 0.71422 0.0
O29 O 0.54939 0.71802 0.7222 0.0
Cd30 Cd 0.5832 0.71134 0.70047 0.0
O31 O 0.52993 0.73517 0.6945 0.0
Cd32 Cd 0.55581 0.73668 0.66304 0.0
C33 C 0.55503 0.67611 0.66159 0.0
O34 O 0.59082 0.74966 0.68312 0.0
O35 O 0.59711 0.73427 0.65116 0.0
O36 O 0.53998 0.77544 0.65183 0.0
C37 C 0.60472 0.74693 0.66746 0.0
O38 O 0.57135 0.6765 0.67661 0.0
C39 C 0.5379 0.76961 0.63162 0.0
O40 O 0.54571 0.69558 0.65491 0.0
O41 O 0.54281 0.74798 0.62641 0.0
C42 C 0.48749 0.26245 0.85334 0.0
O43 O 0.50121 0.27525 0.84199 0.0
Cd44 Cd 0.54098 0.28571 0.85316 0.0
O45 O 0.49493 0.25253 0.87107 0.0
Cd46 Cd 0.53341 0.24709 0.89302 0.0
C47 C 0.53191 0.30744 0.90593 0.0
O48 O 0.55633 0.24633 0.85982 0.0
O49 O 0.57735 0.24244 0.88957 0.0
O50 O 0.51496 0.20725 0.89937 0.0
C51 C 0.57667 0.2435 0.86882 0.0
O52 O 0.53554 0.31129 0.88577 0.0
C53 C 0.52416 0.20469 0.9185 0.0
O54 O 0.53074 0.28595 0.91319 0.0
O55 O 0.53753 0.2218 0.92589 0.0
C56 C 0.10809 0.03155 0.26859 0.0
O57 O 0.09817 0.04483 0.25417 0.0
Cd58 Cd 0.10657 0.04516 0.21583 0.0
O59 O 0.12451 0.01694 0.26363 0.0
Cd60 Cd 0.14717 0.00649 0.23064 0.0
C61 C 0.16379 0.06529 0.22378 0.0
O62 O 0.11361 0.00455 0.20467 0.0
O63 O 0.14813 0.00221 0.19065 0.0
O64 O 0.15037 0.96508 0.24364 0.0
C65 C 0.12573 0.00203 0.1877 0.0
O66 O 0.14304 0.06882 0.21548 0.0
C67 C 0.17265 0.96361 0.24115 0.0
O68 O 0.16938 0.04493 0.23199 0.0
O69 O 0.1832 0.98245 0.23451 0.0
C70 C 0.30831 0.93029 0.54577 0.0
O71 O 0.29356 0.94555 0.53822 0.0
Cd72 Cd 0.25367 0.93498 0.52754 0.0
O73 O 0.30171 0.909 0.55084 0.0
Cd74 Cd 0.26419 0.8852 0.55368 0.0
C75 C 0.2656 0.88243 0.49846 0.0
O76 O 0.23756 0.91835 0.55955 0.0
O77 O 0.2203 0.88504 0.54924 0.0
O78 O 0.27453 0.87291 0.59103 0.0
C79 C 0.2183 0.90696 0.55525 0.0
O80 O 0.2588 0.90438 0.49836 0.0
C81 C 0.27219 0.85033 0.58717 0.0
O82 O 0.26945 0.87147 0.51643 0.0
O83 O 0.26636 0.84396 0.5676 0.0
C84 C 0.42877 0.96481 0.76906 0.0
O85 O 0.43655 0.95052 0.75457 0.0
Cd86 Cd 0.42797 0.95437 0.71616 0.0
O87 O 0.41488 0.98204 0.76383 0.0
Cd88 Cd 0.39463 -0.00336 0.72998 0.0
C89 C 0.36956 0.94139 0.71968 0.0
O90 O 0.43082 -0.00273 0.71015 0.0
O91 O 0.39902 0.00335 0.69036 0.0
O92 O 0.39181 0.03686 0.74697 0.0
C93 C 0.42156 0.00347 0.69194 0.0
O94 O 0.38897 0.93462 0.71155 0.0
C95 C 0.36996 0.03935 0.74145 0.0
O96 O 0.36793 0.96228 0.72833 0.0
O97 O 0.3599 0.02198 0.73081 0.0
C98 C 0.30986 0.0703 0.04793 0.0
O99 O 0.29036 0.06593 0.05702 0.0
Cd100 Cd 0.26191 0.09843 0.0566 0.0
O101 O 0.3128 0.08969 0.03737 0.0
Cd102 Cd 0.29499 0.12662 0.02475 0.0
C103 C 0.29787 0.1447 0.07712 0.0
O104 O 0.25529 0.11022 0.0188 0.0
O105 O 0.25905 0.14923 0.01687 0.0
O106 O 0.31209 0.11979 0.9893 0.0
C107 C 0.24609 0.13046 0.01411 0.0
O108 O 0.28096 0.12979 0.0804 0.0
C109 C 0.32029 0.14122 0.98794 0.0
O110 O 0.30655 0.14656 0.0583 0.0
O111 O 0.31797 0.15512 0.00446 0.0
C112 C 0.81095 0.42408 0.03944 0.0
O113 O 0.79767 0.43993 0.03063 0.0
Cd114 Cd 0.75699 0.43164 0.02039 0.0
O115 O 0.80241 0.40397 0.04566 0.0
Cd116 Cd 0.76346 0.38333 0.04868 0.0
C117 C 0.76507 0.37726 -0.00646 0.0
O118 O 0.73904 0.41869 0.05327 0.0
O119 O 0.7197 0.3858 0.04513 0.0
O120 O 0.77338 0.37125 0.08617 0.0
C121 C 0.7191 0.40817 0.05004 0.0
O122 O 0.75997 0.39962 -0.0079 0.0
C123 C 0.77105 0.34868 0.08227 0.0
O124 O 0.76773 0.3674 0.01216 0.0
O125 O 0.76475 0.34233 0.06281 0.0
C126 C 0.93538 0.48988 0.27405 0.0
O127 O 0.94849 0.48199 0.25908 0.0
Cd128 Cd 0.93631 0.48086 0.2215 0.0
O129 O 0.91545 0.49969 0.26924 0.0
Cd130 Cd 0.89125 0.51113 0.23598 0.0
C131 C 0.88241 0.45157 0.22769 0.0
O132 O 0.92442 0.52144 0.21392 0.0
O133 O 0.89103 0.5163 0.19599 0.0
O134 O 0.88305 0.54993 0.25326 0.0
C135 C 0.91267 0.52293 0.19593 0.0
O136 O 0.90398 0.45076 0.22203 0.0
C137 C 0.86089 0.54937 0.24847 0.0
O138 O 0.87319 0.47133 0.23377 0.0
O139 O 0.85277 0.5306 0.23843 0.0
C140 C 0.8124 0.58518 0.52558 0.0
O141 O 0.79038 0.58328 0.52913 0.0
Cd142 Cd 0.76715 0.61706 0.51774 0.0
O143 O 0.82033 0.60245 0.51421 0.0
Cd144 Cd 0.81049 0.63748 0.49175 0.0
C145 C 0.80272 0.66481 0.5391 0.0
O146 O 0.77337 0.62067 0.47919 0.0
O147 O 0.77564 0.65936 0.47575 0.0
O148 O 0.83406 0.61719 0.465 0.0
C149 C 0.7645 0.63972 0.47133 0.0
O150 O 0.7847 0.65066 0.53991 0.0
C151 C 0.84268 0.63631 0.45702 0.0
O152 O 0.81635 0.664 0.52294 0.0
O153 O 0.83831 0.65605 0.46702 0.0
C154 C 0.60824 0.51803 0.77294 0.0
O155 O 0.59733 0.52777 0.75677 0.0
Cd156 Cd 0.60661 0.52294 0.71859 0.0
O157 O 0.62559 0.50386 0.76989 0.0
Cd158 Cd 0.64762 0.48761 0.73868 0.0
C159 C 0.66371 0.54375 0.72135 0.0
O160 O 0.61377 0.48062 0.71338 0.0
O161 O 0.64843 0.47322 0.70093 0.0
O162 O 0.65568 0.44931 0.75672 0.0
C163 C 0.62611 0.47349 0.69758 0.0
O164 O 0.64255 0.54733 0.71408 0.0
C165 C 0.67808 0.45091 0.75472 0.0
O166 O 0.66902 0.5245 0.7315 0.0
O167 O 0.68607 0.47009 0.74628 0.0
C168 C 0.95459 0.79585 0.85483 0.0
O169 O 0.95824 0.8117 0.84045 0.0
Cd170 Cd 0.00135 0.81715 0.84642 0.0
O171 O 0.97105 0.79211 0.86894 0.0
Cd172 Cd 0.00058 0.78311 0.89609 0.0
C173 C 0.01101 0.84295 0.89952 0.0
O174 O 0.01209 0.77761 0.86006 0.0
O175 O 0.03959 0.76867 0.88402 0.0
O176 O 0.96831 0.7566 0.90666 0.0
C177 C 0.03317 0.77088 0.86393 0.0
O178 O 0.01006 0.84353 0.87859 0.0
C179 C 0.98077 0.74486 0.92049 0.0
O180 O 0.00726 0.82367 0.91018 0.0
O181 O 0.00223 0.75183 0.92383 0.0
C182 C 0.97993 0.23515 0.68453 0.0
O183 O -0.00661 0.21938 0.69321 0.0
Cd184 Cd 0.03386 0.21323 0.68353 0.0
O185 O 0.9874 0.24822 0.66903 0.0
Cd186 Cd 0.02515 0.25151 0.64806 0.0
C187 C 0.02683 0.19324 0.63047 0.0
O188 O 0.05269 0.25217 0.68054 0.0
O189 O 0.06883 0.24666 0.64948 0.0
O190 O 0.01384 0.29413 0.64299 0.0
C191 C 0.07156 0.25036 0.66995 0.0
O192 O 0.0348 0.18888 0.6498 0.0
C193 C 0.01997 0.2953 0.62319 0.0
O194 O 0.0192 0.21421 0.62567 0.0
O195 O 0.02843 0.2762 0.61491 0.0
C196 C 0.44184 0.31019 0.34469 0.0
O197 O 0.44979 0.3214 0.32838 0.0
Cd198 Cd 0.4923 0.32469 0.32293 0.0
O199 O 0.45595 0.2993 0.35778 0.0
Cd200 Cd 0.49739 0.29014 0.36457 0.0
C201 C 0.51274 0.34918 0.37166 0.0
O202 O 0.50983 0.28512 0.32676 0.0
O203 O 0.53692 0.28431 0.35292 0.0
O204 O 0.48729 0.24896 0.37407 0.0
C205 C 0.53163 0.2828 0.33256 0.0
O206 O 0.50862 0.35246 0.35125 0.0
C207 C 0.49313 0.25155 0.39428 0.0
O208 O 0.50904 0.32873 0.38029 0.0
O209 O 0.50156 0.27201 0.40054 0.0
C210 C 0.46962 0.74314 0.18286 0.0
O211 O 0.48222 0.7266 0.19154 0.0
Cd212 Cd 0.52352 0.7186 0.18525 0.0
O213 O 0.47811 0.75657 0.16804 0.0
Cd214 Cd 0.51669 0.75923 0.14818 0.0
C215 C 0.52123 0.6996 0.13183 0.0
O216 O 0.54103 0.75782 0.18245 0.0
O217 O 0.56057 0.76274 0.15318 0.0
O218 O 0.50521 0.80137 0.1402 0.0
C219 C 0.56097 0.76053 0.1738 0.0
O220 O 0.52696 0.69485 0.15167 0.0
C221 C 0.51246 0.80102 0.12069 0.0
O222 O 0.51452 0.72077 0.1265 0.0
O223 O 0.52105 0.78125 0.11395 0.0
C224 C 0.92805 -0.00232 0.82296 0.0
O225 O 0.94268 0.9835 0.81418 0.0
Cd226 Cd 0.93266 0.96138 0.78112 0.0
O227 O 0.90791 0.00164 0.81365 0.0
Cd228 Cd 0.88406 -0.00792 0.78019 0.0
C229 C 0.88033 0.93395 0.79614 0.0
O230 O 0.91656 0.98956 0.75535 0.0
O231 O 0.88196 0.9786 0.74185 0.0
O232 O 0.87821 0.03494 0.77797 0.0
C233 C 0.90396 0.98203 0.73895 0.0
O234 O 0.90232 0.93276 0.79201 0.0
C235 C 0.85571 0.03435 0.77871 0.0
O236 O 0.86895 0.95362 0.79375 0.0
O237 O 0.84584 0.01361 0.77998 0.0
C238 C 0.8065 0.07852 0.48476 0.0
O239 O 0.79148 0.06475 0.4936 0.0
Cd240 Cd 0.75253 0.07647 0.50355 0.0
O241 O 0.80096 0.09994 0.47915 0.0
Cd242 Cd 0.76458 0.12539 0.47784 0.0
C243 C 0.76317 0.12968 0.53303 0.0
O244 O 0.73455 0.09379 0.4717 0.0
O245 O 0.72164 0.12852 0.48195 0.0
O246 O 0.77005 0.13604 0.43988 0.0
C247 C 0.71694 0.10685 0.47612 0.0
O248 O 0.7566 0.10752 0.53256 0.0
C249 C 0.77143 0.15874 0.4432 0.0
O250 O 0.7686 0.14047 0.51552 0.0
O251 O 0.77004 0.16612 0.46293 0.0
C252 C 0.59963 0.01798 0.3251 0.0
O253 O 0.59076 0.03266 0.3113 0.0
Cd254 Cd 0.60721 0.04315 0.27737 0.0
O255 O 0.61879 0.00667 0.32149 0.0
Cd256 Cd 0.64711 0.00139 0.29144 0.0
C257 C 0.66528 0.06008 0.2916 0.0
O258 O 0.61634 0.00413 0.26397 0.0
O259 O 0.6512 0.00145 0.25092 0.0
O260 O 0.64832 0.95801 0.29696 0.0
C261 C 0.62896 0.00336 0.24729 0.0
O262 O 0.64435 0.06572 0.28495 0.0
C263 C 0.67055 0.95724 0.30123 0.0
O264 O 0.67071 0.03827 0.29573 0.0
O265 O 0.68196 0.9772 0.30122 0.0
C266 C 0.78716 0.89108 0.98115 0.0
O267 O 0.77568 0.90315 0.96679 0.0
Cd268 Cd 0.73285 0.90257 0.96594 0.0
O269 O 0.77621 0.87948 -0.00438 0.0
Cd270 Cd 0.73745 0.87018 0.00994 0.0
C271 C 0.72135 0.84088 0.96318 0.0
O272 O 0.72323 0.91061 0.00333 0.0
O273 O 0.69799 0.88522 0.01627 0.0
O274 O 0.7618 0.87463 0.04304 0.0
C275 C 0.70251 0.90651 0.00999 0.0
O276 O 0.72167 0.86153 0.95416 0.0
C277 C 0.75334 0.85625 0.05236 0.0
O278 O 0.72701 0.83859 0.9834 0.0
O279 O 0.73684 0.84444 0.04205 0.0
C280 C 0.30319 0.57525 0.98964 0.0
O281 O 0.28767 0.56118 -0.00261 0.0
Cd282 Cd 0.24797 0.57233 0.00656 0.0
O283 O 0.29796 0.5969 0.98457 0.0
Cd284 Cd 0.2619 0.62255 0.98337 0.0
C285 C 0.25903 0.62408 0.03819 0.0
O286 O 0.22993 0.59273 0.9766 0.0
O287 O 0.22 0.62766 0.9893 0.0
O288 O 0.26702 0.63395 0.94563 0.0
C289 C 0.21356 0.60672 0.98262 0.0
O290 O 0.25068 0.60259 0.03618 0.0
C291 C 0.2676 0.65663 0.94926 0.0
O292 O 0.26705 0.63525 0.02178 0.0
O293 O 0.26654 0.66361 0.96915 0.0
C294 C 0.11051 0.49667 0.83647 0.0
O295 O 0.09844 0.51317 0.82721 0.0
Cd296 Cd 0.1064 0.53213 0.79344 0.0
O297 O 0.12893 0.48797 0.82783 0.0
Cd298 Cd 0.14939 0.49281 0.79255 0.0
C299 C 0.16453 0.55213 0.79948 0.0
O300 O 0.11318 0.49772 0.77101 0.0
O301 O 0.14511 0.5015 0.75293 0.0
O302 O 0.15526 0.44945 0.78927 0.0
C303 C 0.12257 0.50148 0.75285 0.0
O304 O 0.1425 0.55711 0.79746 0.0
C305 C 0.17782 0.45071 0.78947 0.0
O306 O 0.17154 0.53032 0.79922 0.0
O307 O 0.18722 0.47166 0.79134 0.0
C308 C 0.27478 0.41458 0.49086 0.0
O309 O 0.26201 0.43096 0.48212 0.0
Cd310 Cd 0.21961 0.4317 0.48758 0.0
O311 O 0.26528 0.39755 0.50143 0.0
Cd312 Cd 0.22929 0.37851 0.51427 0.0
C313 C 0.20025 0.37658 0.46455 0.0
O314 O 0.22034 0.4187 0.52457 0.0
O315 O 0.1967 0.39211 0.53732 0.0
O316 O 0.22855 0.34438 0.53902 0.0
C317 C 0.20179 0.4143 0.53494 0.0
O318 O 0.20082 0.39966 0.46439 0.0
C319 C 0.25099 0.34405 0.54209 0.0
O320 O 0.2102 0.36478 0.48008 0.0
O321 O 0.26319 0.35935 0.5319 0.0
C322 C 0.44454 0.51315 0.33642 0.0
O323 O 0.4565 0.49649 0.32763 0.0
Cd324 Cd 0.44548 0.47694 0.29339 0.0
O325 O 0.4258 0.52105 0.32681 0.0
Cd326 Cd 0.40217 0.51414 0.2926 0.0
C327 C 0.39004 0.45602 0.30534 0.0
O328 O 0.43448 0.50761 0.26755 0.0
O329 O 0.39873 0.50085 0.25452 0.0
O330 O 0.39532 0.55729 0.28905 0.0
C331 C 0.42085 0.50179 0.25125 0.0
O332 O 0.41155 0.45113 0.30137 0.0
C333 C 0.37288 0.5557 0.29047 0.0
O334 O 0.38245 0.47758 0.30423 0.0
O335 O 0.36407 0.53467 0.29278 0.0
C336 C 0.98074 0.04441 0.97321 0.0
N337 N 0.97318 -0.00019 0.02704 0.0
C338 C 0.9501 0.00684 0.02622 0.0
C339 C 0.93196 0.98975 0.02809 0.0
C340 C 0.93773 0.96527 0.03067 0.0
C341 C 0.96169 0.95889 0.03353 0.0
C342 C 0.97929 0.97663 0.03172 0.0
Zn343 Zn -0.00198 0.02247 0.01526 0.0
C344 C 0.02765 -0.00425 0.98364 0.0
N345 N 0.04982 0.06755 0.98716 0.0
C346 C 0.04448 0.09083 0.98204 0.0
C347 C 0.07188 0.05853 0.98428 0.0
C348 C 0.08982 0.07325 0.97651 0.0
C349 C 0.08512 0.0976 0.972 0.0
C350 C 0.06209 0.10638 0.97458 0.0
Zn351 Zn 0.02501 0.04548 -9e-05 0.0
O352 O 0.97464 0.03052 0.9885 0.0
C353 C -0.00415 0.07194 0.03229 0.0
O354 O 0.00124 0.05424 0.9742 0.0
H355 H 0.0758 0.04006 0.98865 0.0
H356 H 0.94571 0.02533 0.02235 0.0
H357 H 0.02673 0.09753 0.98433 0.0
O358 O 0.98525 0.05164 0.03378 0.0
O359 O 0.01271 0.0741 0.01911 0.0
H360 H -0.0022 0.97149 0.03236 0.0
O361 O 0.04909 0.03639 0.02636 0.0
O362 O 0.02138 0.01423 0.04116 0.0
O363 O 0.037 0.01633 0.9806 0.0
O364 O 0.01127 -0.00651 -0.00281 0.0
C365 C 0.04244 0.02271 0.04166 0.0
H366 H 0.91368 -0.00464 0.02558 0.0
H367 H 0.96676 0.9402 0.03572 0.0
H368 H 0.10758 0.06603 0.9753 0.0
H369 H 0.058 0.12517 0.97152 0.0
C370 C 0.30847 0.76279 0.24924 0.0
N371 N 0.24423 0.73571 0.22223 0.0
C372 C 0.24939 0.74858 0.20408 0.0
C373 C 0.2472 0.73776 0.18329 0.0
C374 C 0.24001 0.71344 0.18133 0.0
C375 C 0.23325 0.70111 0.20011 0.0
C376 C 0.23531 0.71275 0.22054 0.0
Zn377 Zn 0.25617 0.74845 0.25219 0.0
C378 C 0.27958 0.70884 0.27773 0.0
N379 N 0.28514 0.77369 0.31369 0.0
C380 C 0.29513 0.79615 0.31617 0.0
C381 C 0.27906 0.7605 0.33135 0.0
C382 C 0.28127 0.7705 0.3524 0.0
C383 C 0.28966 0.79436 0.3553 0.0
C384 C 0.29759 0.80691 0.33701 0.0
Zn385 Zn 0.27322 0.76132 0.28363 0.0
O386 O 0.28987 0.75565 0.23847 0.0
C387 C 0.25005 0.80112 0.25825 0.0
O388 O 0.30711 0.76733 0.26968 0.0
H389 H 0.27098 0.74277 0.32904 0.0
H390 H 0.25677 0.76668 0.20583 0.0
H391 H 0.29974 0.80634 0.30188 0.0
O392 O 0.24448 0.78401 0.24482 0.0
O393 O 0.26247 0.79653 0.27545 0.0
H394 H 0.23131 0.70286 0.23516 0.0
O395 O 0.23911 0.75529 0.29707 0.0
O396 O 0.22271 0.74087 0.26638 0.0
O397 O 0.28389 0.72584 0.29154 0.0
O398 O 0.26818 0.7134 0.25997 0.0
C399 C 0.22101 0.74656 0.28654 0.0
H400 H 0.2527 0.74771 0.16911 0.0
H401 H 0.2275 0.68235 0.1991 0.0
H402 H 0.27532 0.7601 0.36616 0.0
H403 H 0.30409 0.82539 0.33857 0.0
C404 C 0.51298 0.01585 0.55583 0.0
N405 N 0.5369 0.95762 0.51905 0.0
C406 C 0.55161 0.95306 0.53663 0.0
C407 C 0.55489 0.92934 0.54353 0.0
C408 C 0.54292 0.9103 0.53214 0.0
C409 C 0.52969 0.91541 0.51287 0.0
C410 C 0.5268 0.93936 0.50664 0.0
Zn411 Zn 0.52452 -0.00851 0.51415 0.0
C412 C 0.47091 0.9896 0.51243 0.0
N413 N 0.49427 0.06036 0.5036 0.0
C414 C 0.50491 0.07919 0.51485 0.0
C415 C 0.47769 0.06404 0.48725 0.0
C416 C 0.47262 0.08748 0.48047 0.0
C417 C 0.48489 0.10711 0.49058 0.0
C418 C 0.50046 0.10288 0.50855 0.0
Zn419 Zn 0.50712 0.02672 0.50864 0.0
O420 O 0.52262 -0.003 0.54823 0.0
C421 C 0.56079 0.02864 0.51041 0.0
O422 O 0.50565 0.03202 0.54273 0.0
H423 H 0.46954 0.04875 0.47852 0.0
H424 H 0.55939 0.9679 0.54626 0.0
H425 H 0.51801 0.0758 0.52782 0.0
O426 O 0.55933 0.00615 0.51423 0.0
O427 O 0.54196 0.04096 0.50816 0.0
H428 H 0.51504 0.94342 0.4928 0.0
O429 O 0.5088 0.02134 0.47479 0.0
O430 O 0.52615 0.98641 0.47979 0.0
O431 O 0.47249 0.01207 0.5087 0.0
O432 O 0.48963 0.97714 0.5146 0.0
C433 C 0.51859 0.00273 0.46694 0.0
H434 H 0.56512 0.92618 0.55858 0.0
H435 H 0.52046 0.90118 0.50349 0.0
H436 H 0.46064 0.09008 0.46641 0.0
H437 H 0.51012 0.11764 0.51679 0.0
C438 C 0.29016 0.19945 0.76107 0.0
N439 N 0.25852 0.23404 0.81253 0.0
C440 C 0.2507 0.21131 0.81704 0.0
C441 C 0.25546 0.20167 0.83776 0.0
C442 C 0.26812 0.21582 0.85351 0.0
C443 C 0.27272 0.24022 0.84943 0.0
C444 C 0.26759 0.24911 0.82864 0.0
Zn445 Zn 0.26922 0.24162 0.78196 0.0
C446 C 0.32194 0.25514 0.78603 0.0
N447 N 0.29843 0.25944 0.72057 0.0
C448 C 0.29948 0.24096 0.70565 0.0
C449 C 0.30427 0.28244 0.715 0.0
C450 C 0.30931 0.28783 0.69337 0.0
C451 C 0.3094 0.26921 0.67734 0.0
C452 C 0.30573 0.24534 0.68419 0.0
Zn453 Zn 0.28579 0.25255 0.75109 0.0
O454 O 0.27755 0.20493 0.77715 0.0
C455 C 0.23299 0.23934 0.7469 0.0
O456 O 0.29603 0.21588 0.74795 0.0
H457 H 0.30396 0.29695 0.72701 0.0
H458 H 0.24358 0.19966 0.80396 0.0
H459 H 0.2946 0.22275 0.70988 0.0
O460 O 0.2348 0.23591 0.76749 0.0
O461 O 0.25142 0.24514 0.73651 0.0
H462 H 0.27403 0.26696 0.8247 0.0
O463 O 0.27542 0.28884 0.75531 0.0
O464 O 0.26094 0.27854 0.78677 0.0
O465 O 0.31961 0.26055 0.7659 0.0
O466 O 0.30415 0.247 0.79595 0.0
C467 C 0.26506 0.29466 0.77273 0.0
H468 H 0.25172 0.18272 0.84058 0.0
H469 H 0.28247 0.2515 0.8614 0.0
H470 H 0.31171 0.30665 0.68926 0.0
H471 H 0.30649 0.23011 0.67293 0.0
C472 C 0.06404 0.99101 0.52163 0.0
N473 N 0.0359 0.02363 0.46474 0.0
C474 C 0.055 0.03869 0.46286 0.0
C475 C 0.06294 0.04471 0.44209 0.0
C476 C 0.05129 0.03483 0.42313 0.0
C477 C 0.03134 0.01976 0.42577 0.0
C478 C 0.0238 0.01464 0.44668 0.0
Zn479 Zn 0.02504 0.01119 0.49418 0.0
C480 C 0.01411 0.95699 0.48935 0.0
N481 N -0.00014 0.98116 0.5528 0.0
C482 C 0.01175 0.98929 0.57131 0.0
C483 C 0.97952 0.96771 0.55381 0.0
C484 C 0.96963 0.96318 0.57407 0.0
C485 C 0.98076 0.97285 0.59323 0.0
C486 C 0.00241 0.98541 0.5918 0.0
Zn487 Zn 0.01113 -0.00638 0.52371 0.0
O488 O 0.0606 0.0028 0.50404 0.0
C489 C 0.02227 0.0476 0.529 0.0
O490 O 0.04638 0.98519 0.53293 0.0
H491 H 0.97033 0.96156 0.53885 0.0
H492 H 0.06435 0.04563 0.47746 0.0
H493 H 0.0279 -8e-05 0.57014 0.0
O494 O 0.02866 0.04633 0.50921 0.0
O495 O 0.01498 0.02856 0.5382 0.0
H496 H 0.00862 0.00275 0.44847 0.0
O497 O 0.97625 0.00233 0.51449 0.0
O498 O 0.98891 0.01942 0.48477 0.0
O499 O 0.00702 0.95878 0.50885 0.0
O500 O 0.02188 0.97573 0.47996 0.0
C501 C 0.97189 0.01388 0.49701 0.0
H502 H 0.07818 0.0567 0.44095 0.0
H503 H 0.022 0.01117 0.41187 0.0
H504 H 0.95282 0.9535 0.57466 0.0
H505 H 0.01152 -0.00705 0.60632 0.0
C506 C 0.26955 0.75055 0.721 0.0
N507 N 0.32146 0.73586 0.7701 0.0
C508 C 0.33106 0.71986 0.75592 0.0
C509 C 0.35542 0.71549 0.75703 0.0
C510 C 0.36993 0.72749 0.77309 0.0
C511 C 0.35928 0.74303 0.78814 0.0
C512 C 0.33497 0.74719 0.78618 0.0
Zn513 Zn 0.28662 0.74414 0.76717 0.0
C514 C 0.28036 0.79747 0.76578 0.0
N515 N 0.21428 0.76333 0.76268 0.0
C516 C 0.19919 0.7508 0.74868 0.0
C517 C 0.2063 0.7805 0.77665 0.0
C518 C 0.18205 0.78446 0.77803 0.0
C519 C 0.16589 0.77057 0.76489 0.0
C520 C 0.17471 0.75418 0.74949 0.0
Zn521 Zn 0.24895 0.75471 0.76501 0.0
O522 O 0.28799 0.74446 0.7322 0.0
C523 C 0.25514 0.70133 0.76623 0.0
O524 O 0.25049 0.75489 0.73079 0.0
H525 H 0.21869 0.79022 0.7876 0.0
H526 H 0.31991 0.71102 0.74334 0.0
H527 H 0.20606 0.73732 0.73762 0.0
O528 O 0.2771 0.70697 0.76735 0.0
O529 O 0.23966 0.71777 0.76447 0.0
H530 H 0.32699 0.75995 0.79723 0.0
O531 O 0.24752 0.75436 0.80007 0.0
O532 O 0.28505 0.74435 0.80133 0.0
O533 O 0.25845 0.79172 0.76504 0.0
O534 O 0.29589 0.78105 0.76742 0.0
C535 C 0.26617 0.74892 0.81122 0.0
H536 H 0.36289 0.70369 0.74481 0.0
H537 H 0.36972 0.75242 0.80094 0.0
H538 H 0.17604 0.79697 0.79042 0.0
H539 H 0.16279 0.74325 0.73902 0.0
C540 C 0.51257 0.95449 0.03248 0.0
N541 N 0.52273 0.0226 0.06094 0.0
C542 C 0.51283 0.01157 0.07826 0.0
C543 C 0.52334 0.01408 0.09915 0.0
C544 C 0.54429 0.0279 0.10213 0.0
C545 C 0.55273 0.0411 0.08447 0.0
C546 C 0.54156 0.03815 0.06378 0.0
Zn547 Zn 0.5136 0.00933 0.03061 0.0
C548 C 0.55621 -0.00064 0.00535 0.0
N549 N 0.49628 0.97723 0.96864 0.0
C550 C 0.48005 0.95897 0.96554 0.0
C551 C 0.50711 0.98754 0.95145 0.0
C552 C 0.50111 0.9802 0.93008 0.0
C553 C 0.48401 0.96178 0.92623 0.0
C554 C 0.47368 0.95083 0.94433 0.0
Zn555 Zn 0.5043 0.99119 -0.00107 0.0
O556 O 0.51774 0.97381 0.04318 0.0
C557 C 0.46189 -0.00034 0.0247 0.0
O558 O 0.50563 0.95587 0.01248 0.0
H559 H 0.52003 0.00197 0.95428 0.0
H560 H 0.49798 -0.00084 0.07565 0.0
H561 H 0.47172 0.95101 0.97949 0.0
O562 O 0.47757 0.00804 0.03832 0.0
O563 O 0.46793 -0.00746 0.00583 0.0
H564 H 0.54911 0.04671 0.04975 0.0
O565 O 0.50316 0.02692 0.98584 0.0
O566 O 0.50963 0.04479 0.01786 0.0
O567 O 0.54072 0.98947 -0.00757 0.0
O568 O 0.5496 0.00979 0.0227 0.0
C569 C 0.50588 0.04625 -0.00276 0.0
H570 H 0.51611 0.00397 0.11253 0.0
H571 H 0.56886 0.05196 0.08621 0.0
H572 H 0.50921 0.98958 0.91671 0.0
H573 H 0.46061 0.9364 0.94213 0.0
C574 C 0.25261 0.21902 0.26094 0.0
N575 N 0.31885 0.24891 0.24652 0.0
C576 C 0.32451 0.2251 0.24526 0.0
C577 C 0.33792 0.21669 0.22802 0.0
C578 C 0.34572 0.23314 0.21233 0.0
C579 C 0.34352 0.258 0.21664 0.0
C580 C 0.32942 0.26554 0.23367 0.0
Zn581 Zn 0.28869 0.25865 0.26164 0.0
C582 C 0.25386 0.278 0.22957 0.0
N583 N 0.22555 0.28005 0.29224 0.0
C584 C 0.21707 0.2667 0.30889 0.0
C585 C 0.2167 0.30226 0.28753 0.0
C586 C 0.20056 0.31302 0.30136 0.0
C587 C 0.19374 0.3008 0.3202 0.0
C588 C 0.20095 0.27679 0.32317 0.0
Zn589 Zn 0.25569 0.26953 0.27766 0.0
O590 O 0.27321 0.22446 0.2546 0.0
C591 C 0.29156 0.25084 0.30936 0.0
O592 O 0.24118 0.23442 0.27193 0.0
H593 H 0.22368 0.3125 0.27416 0.0
H594 H 0.31636 0.21223 0.25597 0.0
H595 H 0.22435 0.24905 0.31224 0.0
O596 O 0.30235 0.24689 0.29174 0.0
O597 O 0.27077 0.25961 0.3084 0.0
H598 H 0.32479 0.28442 0.23484 0.0
O599 O 0.27044 0.30439 0.2837 0.0
O600 O 0.30343 0.29285 0.26877 0.0
O601 O 0.2416 0.27986 0.24664 0.0
O602 O 0.27497 0.27037 0.23136 0.0
C603 C 0.29166 0.30888 0.27853 0.0
H604 H 0.33933 0.19733 0.22554 0.0
H605 H 0.34988 0.2713 0.20528 0.0
H606 H 0.19526 0.33154 0.29853 0.0
H607 H 0.19625 0.26687 0.33762 0.0
C608 C 0.56509 0.4957 0.02507 0.0
N609 N 0.53385 0.52673 0.96888 0.0
C610 C 0.55522 0.53773 0.96577 0.0
C611 C 0.56313 0.54115 0.9445 0.0
C612 C 0.5488 0.53325 0.92638 0.0
C613 C 0.5262 0.52348 0.93016 0.0
C614 C 0.51918 0.52013 0.95157 0.0
Zn615 Zn 0.52443 0.51501 -0.00092 0.0
C616 C 0.51451 0.46049 -0.00463 0.0
N617 N 0.50296 0.4858 0.05948 0.0
C618 C 0.51652 0.4944 0.07685 0.0
C619 C 0.48251 0.47302 0.06246 0.0
C620 C 0.47427 0.4698 0.08362 0.0
C621 C 0.48718 0.48006 0.10161 0.0
C622 C 0.50891 0.49174 0.09813 0.0
Zn623 Zn 0.51221 0.49747 0.02937 0.0
O624 O 0.56051 0.50713 0.00749 0.0
C625 C 0.52249 0.55197 0.03322 0.0
O626 O 0.54816 0.48994 0.03727 0.0
H627 H 0.47195 0.4665 0.04839 0.0
H628 H 0.56667 0.54275 0.97974 0.0
H629 H 0.53262 0.50463 0.07417 0.0
O630 O 0.52834 0.55044 0.01329 0.0
O631 O 0.51584 0.53298 0.04292 0.0
H632 H 0.50243 0.51108 0.95427 0.0
O633 O 0.47657 0.50508 0.02137 0.0
O634 O 0.48773 0.52254 -0.00873 0.0
O635 O 0.50839 0.46213 0.01522 0.0
O636 O 0.52102 0.47943 0.9855 0.0
C637 C 0.47129 0.51646 0.00396 0.0
H638 H 0.58074 0.54866 0.94236 0.0
H639 H 0.51435 0.5176 0.9167 0.0
H640 H 0.45734 0.46077 0.08578 0.0
H641 H 0.51939 0.49971 0.11168 0.0
C642 C 0.78304 0.24829 0.21451 0.0
N643 N 0.83568 0.23205 0.26213 0.0
C644 C 0.8431 0.21221 0.25099 0.0
C645 C 0.86697 0.20559 0.2523 0.0
C646 C 0.8834 0.21971 0.26499 0.0
C647 C 0.87507 0.23977 0.27668 0.0
C648 C 0.85103 0.24556 0.27509 0.0
Zn649 Zn 0.80116 0.24231 0.25977 0.0
C650 C 0.79781 0.29618 0.2576 0.0
N651 N 0.72966 0.26585 0.25694 0.0
C652 C 0.71506 0.25467 0.24159 0.0
C653 C 0.72127 0.28257 0.27117 0.0
C654 C 0.69705 0.28774 0.27098 0.0
C655 C 0.68138 0.27568 0.25591 0.0
C656 C 0.69077 0.25944 0.2407 0.0
Zn657 Zn 0.76423 0.2557 0.25936 0.0
O658 O 0.80129 0.24023 0.2248 0.0
C659 C 0.76738 0.20181 0.26102 0.0
O660 O 0.76548 0.25552 0.22522 0.0
H661 H 0.73324 0.29124 0.2832 0.0
H662 H 0.83052 0.20167 0.24089 0.0
H663 H 0.72211 0.24141 0.23043 0.0
O664 O 0.78963 0.20594 0.26214 0.0
O665 O 0.75302 0.21923 0.25889 0.0
H666 H 0.8447 0.26114 0.28396 0.0
O667 O 0.76338 0.25554 0.29397 0.0
O668 O 0.80078 0.24478 0.29443 0.0
O669 O 0.77571 0.29232 0.25958 0.0
O670 O 0.81209 0.27859 0.25729 0.0
C671 C 0.78219 0.24983 0.30474 0.0
H672 H 0.87254 0.18976 0.24327 0.0
H673 H 0.88708 0.25141 0.28638 0.0
H674 H 0.69056 0.30009 0.28327 0.0
H675 H 0.67937 0.24992 0.2287 0.0
C676 C 0.0064 0.45299 0.54182 0.0
N677 N 0.00948 0.52138 0.57179 0.0
C678 C -0.0023 0.50972 0.58771 0.0
C679 C 0.00479 0.51298 0.60964 0.0
C680 C 0.02435 0.52811 0.61513 0.0
C681 C 0.03457 0.54183 0.59861 0.0
C682 C 0.02675 0.53816 0.57684 0.0
Zn683 Zn 0.0056 0.50822 0.54066 0.0
C684 C 0.05233 0.49941 0.5221 0.0
N685 N -0.00114 0.47707 0.47688 0.0
C686 C 0.97973 0.4634 0.46986 0.0
C687 C 0.01429 0.48639 0.46243 0.0
C688 C 0.00987 0.48361 0.43996 0.0
C689 C -0.01091 0.47157 0.43221 0.0
C690 C 0.97443 0.46046 0.44742 0.0
Zn691 Zn 0.002 0.48973 0.50839 0.0
O692 O 0.00934 0.4724 0.55308 0.0
C693 C 0.95545 0.49745 0.52813 0.0
O694 O 0.00174 0.45427 0.52131 0.0
H695 H 0.02922 0.49749 0.46822 0.0
H696 H 0.98408 0.49639 0.58333 0.0
H697 H 0.96768 0.45615 0.48161 0.0
O698 O 0.96885 0.50561 0.54373 0.0
O699 O 0.9645 0.49079 0.51028 0.0
H700 H 0.03584 0.54723 0.56389 0.0
O701 O 0.00257 0.52541 0.49569 0.0
O702 O 0.00226 0.54385 0.52771 0.0
O703 O 0.03948 0.48855 0.50744 0.0
O704 O 0.04245 0.51024 0.53772 0.0
C705 C 0.00236 0.54494 0.5069 0.0
H706 H -0.00377 0.50239 0.62201 0.0
H707 H 0.04976 0.55362 0.60218 0.0
H708 H 0.02193 0.492 0.42879 0.0
H709 H 0.95819 0.45104 0.44213 0.0
C710 C 0.77387 0.7051 0.26678 0.0
N711 N 0.73937 0.72836 0.3217 0.0
C712 C 0.73025 0.70565 0.31822 0.0
C713 C 0.73654 0.68731 0.33268 0.0
C714 C 0.751 0.69314 0.35116 0.0
C715 C 0.75554 0.71751 0.35666 0.0
C716 C 0.74955 0.73514 0.34139 0.0
Zn717 Zn 0.75267 0.74428 0.29491 0.0
C718 C 0.80518 0.75462 0.30188 0.0
N719 N 0.78339 0.77178 0.23812 0.0
C720 C 0.77941 0.75975 0.21873 0.0
C721 C 0.79449 0.79379 0.23913 0.0
C722 C 0.80076 0.80523 0.21988 0.0
C723 C 0.79576 0.79368 0.1996 0.0
C724 C 0.78563 0.77037 0.19918 0.0
Zn725 Zn 0.76984 0.75737 0.26537 0.0
O726 O 0.76091 0.70929 0.28293 0.0
C727 C 0.71751 0.74697 0.25822 0.0
O728 O 0.78106 0.72271 0.25558 0.0
H729 H 0.79756 0.80292 0.25478 0.0
H730 H 0.72198 0.7008 0.30247 0.0
H731 H 0.77037 0.74238 0.21832 0.0
O732 O 0.71877 0.74316 0.27871 0.0
O733 O 0.73634 0.75199 0.24818 0.0
H734 H 0.75672 0.75327 0.34372 0.0
O735 O 0.75863 0.79194 0.27557 0.0
O736 O 0.74494 0.77926 0.30671 0.0
O737 O 0.80292 0.76269 0.28254 0.0
O738 O 0.78723 0.74547 0.31091 0.0
C739 C 0.74901 0.79648 0.2937 0.0
H740 H 0.73279 0.66861 0.32809 0.0
H741 H 0.76675 0.72248 0.37086 0.0
H742 H 0.80854 0.82325 0.22076 0.0
H743 H 0.78109 0.76109 0.18381 0.0
C744 C 0.81859 0.25103 0.75127 0.0
N745 N 0.75291 0.23409 0.72066 0.0
C746 C 0.76185 0.24768 0.70436 0.0
C747 C 0.75993 0.23959 0.68264 0.0
C748 C 0.74853 0.21742 0.67765 0.0
C749 C 0.7377 0.20473 0.69449 0.0
C750 C 0.74024 0.2134 0.7161 0.0
Zn751 Zn 0.76471 0.24225 0.75193 0.0
C752 C 0.78196 0.1981 0.77485 0.0
N753 N 0.79432 0.25946 0.8153 0.0
C754 C 0.80665 0.28053 0.81894 0.0
C755 C 0.78525 0.24683 0.83214 0.0
C756 C 0.78635 0.25654 0.85335 0.0
C757 C 0.79679 0.27947 0.85718 0.0
C758 C 0.80811 0.29095 0.83993 0.0
Zn759 Zn 0.78238 0.25067 0.7843 0.0
O760 O 0.79973 0.24646 0.73979 0.0
C761 C 0.76455 0.29469 0.76169 0.0
O762 O 0.81713 0.25409 0.77189 0.0
H763 H 0.77542 0.23018 0.82885 0.0
H764 H 0.77195 0.26401 0.70833 0.0
H765 H 0.81362 0.2903 0.80528 0.0
O766 O 0.75764 0.27935 0.74706 0.0
O767 O 0.77598 0.28749 0.77862 0.0
H768 H 0.73348 0.20279 0.72934 0.0
O769 O 0.74744 0.24764 0.7963 0.0
O770 O 0.72997 0.2378 0.76464 0.0
O771 O 0.78836 0.21339 0.78973 0.0
O772 O 0.77174 0.20545 0.75731 0.0
C773 C 0.72863 0.24218 0.7851 0.0
H774 H 0.76831 0.24994 0.67001 0.0
H775 H 0.72886 0.18748 0.69122 0.0
H776 H 0.77778 0.24694 0.86634 0.0
H777 H 0.81628 0.30869 0.84219 0.0
C778 C 0.77279 0.68151 0.75618 0.0
N779 N 0.82245 0.72767 0.72821 0.0
C780 C 0.83064 0.70706 0.71889 0.0
C781 C 0.83895 0.70739 0.69764 0.0
C782 C 0.83912 0.72922 0.686 0.0
C783 C 0.83296 0.75061 0.69699 0.0
C784 C 0.82432 0.74937 0.71808 0.0
Zn785 Zn 0.80258 0.72562 0.75535 0.0
C786 C 0.75547 0.7473 0.74681 0.0
N787 N 0.75987 0.72347 0.81136 0.0
C788 C 0.76146 0.70431 0.82515 0.0
C789 C 0.74552 0.74248 0.81558 0.0
C790 C 0.73273 0.74316 0.83468 0.0
C791 C 0.7351 0.72433 0.84978 0.0
C792 C 0.74936 0.70452 0.84476 0.0
Zn793 Zn 0.78034 0.725 0.78458 0.0
O794 O 0.78762 0.6922 0.74432 0.0
C795 C 0.82774 0.70381 0.79307 0.0
O796 O 0.7673 0.69105 0.77433 0.0
H797 H 0.74472 0.75765 0.80458 0.0
H798 H 0.82912 0.69004 0.7273 0.0
H799 H 0.77283 0.68928 0.82137 0.0
O800 O 0.82992 0.70788 0.77277 0.0
O801 O 0.8084 0.70906 0.80204 0.0
H802 H 0.81761 0.76557 0.7257 0.0
O803 O 0.79366 0.75962 0.79487 0.0
O804 O 0.81676 0.75889 0.76667 0.0
O805 O 0.75256 0.74101 0.76647 0.0
O806 O 0.77523 0.74352 0.73809 0.0
C807 C 0.80962 0.76959 0.78372 0.0
H808 H 0.84326 0.69034 0.68988 0.0
H809 H 0.83326 0.76791 0.68886 0.0
H810 H 0.72238 0.75905 0.83833 0.0
H811 H 0.75182 0.6899 0.85625 0.0
C812 C 0.50023 0.53658 0.48838 0.0
N813 N 0.48451 0.48479 0.53407 0.0
C814 C 0.46422 0.49725 0.53743 0.0
C815 C 0.4424 0.4851 0.53731 0.0
C816 C 0.44158 0.46 0.5335 0.0
C817 C 0.46296 0.44734 0.53214 0.0
C818 C 0.48444 0.4602 0.53258 0.0
Zn819 Zn 0.51349 0.50345 0.52453 0.0
C820 C 0.53441 0.47806 0.48603 0.0
N821 N 0.57291 0.54101 0.50055 0.0
C822 C 0.57011 0.56506 0.49681 0.0
C823 C 0.59378 0.52978 0.4968 0.0
C824 C 0.61304 0.54294 0.48922 0.0
C825 C 0.61065 0.56782 0.48537 0.0
C826 C 0.58883 0.57886 0.48908 0.0
Zn827 Zn 0.54482 0.52192 0.51138 0.0
O828 O 0.49126 0.52304 0.50262 0.0
C829 C 0.52415 0.54725 0.54992 0.0
O830 O 0.5226 0.53967 0.48856 0.0
H831 H 0.5955 0.51061 0.49976 0.0
H832 H 0.46472 0.5168 0.53836 0.0
H833 H 0.55335 0.57362 0.49996 0.0
O834 O 0.50975 0.52939 0.54967 0.0
O835 O 0.53951 0.54881 0.53522 0.0
H836 H 0.50083 0.45069 0.52996 0.0
O837 O 0.56679 0.50378 0.53454 0.0
O838 O 0.53568 0.48382 0.54595 0.0
O839 O 0.55008 0.49474 0.48753 0.0
O840 O 0.5177 0.47779 0.49945 0.0
C841 C 0.55787 0.48837 0.5473 0.0
H842 H 0.42624 0.4955 0.53825 0.0
H843 H 0.46296 0.42794 0.5294 0.0
H844 H 0.62963 0.53381 0.4864 0.0
H845 H 0.58645 0.59806 0.48655 0.0
C846 C 0.00361 0.51646 0.05906 0.0
N847 N 0.04664 0.45893 0.04239 0.0
C848 C 0.05768 0.46377 0.06221 0.0
C849 C 0.06478 0.44488 0.07582 0.0
C850 C 0.06078 0.42088 0.06878 0.0
C851 C 0.05106 0.41641 0.04758 0.0
C852 C 0.0439 0.43584 0.03462 0.0
Zn853 Zn 0.02901 0.48614 0.02675 0.0
C854 C 0.97858 0.4719 0.01627 0.0
N855 N -0.01037 0.54287 -0.00344 0.0
C856 C -0.00966 0.56484 0.00687 0.0
C857 C 0.97755 0.53943 0.977 0.0
C858 C 0.96614 0.55883 0.96675 0.0
C859 C 0.9669 0.58173 0.977 0.0
C860 C 0.97889 0.58452 -0.00256 0.0
Zn861 Zn 0.00796 0.51548 0.01117 0.0
O862 O 0.01798 0.49905 0.05744 0.0
C863 C 0.05834 0.52995 0.02124 0.0
O864 O -0.00355 0.52721 0.04188 0.0
H865 H 0.97717 0.52177 0.96913 0.0
H866 H 0.05972 0.48226 0.06805 0.0
H867 H 0.00029 0.5673 0.02224 0.0
O868 O 0.0597 0.50858 0.02861 0.0
O869 O 0.03845 0.53773 0.01398 0.0
H870 H 0.03484 0.43242 0.01894 0.0
O871 O 0.01981 0.50367 0.98094 0.0
O872 O 0.03989 0.47363 -0.00449 0.0
O873 O 0.97785 0.49289 0.0081 0.0
O874 O -0.0021 0.46426 0.02491 0.0
C875 C 0.03368 0.48589 0.9788 0.0
H876 H 0.07239 0.44896 0.09203 0.0
H877 H 0.04755 0.3981 0.04168 0.0
H878 H 0.9572 0.5561 0.95088 0.0
H879 H 0.98037 0.60204 0.00559 0.0
C880 C 0.04105 0.13291 0.13475 0.0
C881 C 0.03369 0.15582 0.14161 0.0
C882 C 0.02902 0.12062 0.11742 0.0
C883 C 0.00887 0.13137 0.10706 0.0
C884 C 0.00022 0.15357 0.11508 0.0
C885 C 0.01293 0.16573 0.13214 0.0
C886 C 0.03887 0.09691 0.10927 0.0
C887 C 0.97838 0.16517 0.10491 0.0
C888 C 0.00595 0.11258 0.04776 0.0
C889 C -0.00763 0.09123 0.04873 0.0
C890 C 0.0097 0.12732 0.06638 0.0
C891 C -0.00084 0.12074 0.08619 0.0
C892 C 0.98271 0.10121 0.08637 0.0
C893 C 0.97956 0.08651 0.06756 0.0
C894 C 0.02723 0.14817 0.06544 0.0
C895 C 0.97037 0.09431 0.10699 0.0
H896 H 0.05701 0.12514 0.1421 0.0
H897 H 0.00694 0.18329 0.13768 0.0
H898 H 0.02478 0.0827 0.10868 0.0
H899 H 0.04513 0.09905 0.09234 0.0
H900 H 0.054 0.09053 0.11981 0.0
H901 H 0.9709 0.179 0.11603 0.0
H902 H 0.98314 0.17421 0.08951 0.0
H903 H 0.96439 0.15141 0.10067 0.0
H904 H 0.01547 0.11663 0.03307 0.0
H905 H 0.96866 0.07025 0.06828 0.0
H906 H 0.04396 0.14337 0.07448 0.0
H907 H 0.02013 0.16457 0.07343 0.0
H908 H 0.03158 0.15263 0.04831 0.0
H909 H 0.98273 0.08379 0.11765 0.0
H910 H 0.95428 0.08295 0.10323 0.0
H911 H 0.96514 0.11062 0.11638 0.0
C912 C 0.09008 0.74729 0.33501 0.0
C913 C 0.08976 0.73608 0.35549 0.0
C914 C 0.11108 0.74854 0.32317 0.0
C915 C 0.13208 0.73757 0.33165 0.0
C916 C 0.13157 0.72549 0.352 0.0
C917 C 0.11055 0.72528 0.36385 0.0
C918 C 0.111 0.7623 0.30194 0.0
C919 C 0.15331 0.71294 0.36133 0.0
C920 C 0.18181 0.72556 0.29191 0.0
C921 C 0.19813 0.7441 0.29771 0.0
C922 C 0.1604 0.72293 0.30303 0.0
C923 C 0.15483 0.73977 0.3198 0.0
C924 C 0.1711 0.75882 0.32534 0.0
C925 C 0.19268 0.76049 0.31451 0.0
C926 C 0.14393 0.70193 0.2971 0.0
C927 C 0.16563 0.77761 0.34259 0.0
H928 H 0.07409 0.75584 0.32857 0.0
H929 H 0.11031 0.71645 0.37961 0.0
H930 H 0.12398 0.77756 0.30339 0.0
H931 H 0.11665 0.75038 0.28836 0.0
H932 H 0.09319 0.76965 0.29749 0.0
H933 H 0.14945 0.70264 0.37635 0.0
H934 H 0.16038 0.70029 0.34893 0.0
H935 H 0.16752 0.72646 0.36549 0.0
H936 H 0.18605 0.71276 0.27904 0.0
H937 H 0.20516 0.77499 0.31892 0.0
H938 H 0.12637 0.70869 0.29123 0.0
H939 H 0.14089 0.69094 0.31186 0.0
H940 H 0.15114 0.69004 0.28415 0.0
H941 H 0.14838 0.78629 0.33842 0.0
H942 H 0.17964 0.79191 0.34425 0.0
H943 H 0.16389 0.76889 0.35874 0.0
C944 C 0.52913 0.81197 0.62088 0.0
C945 C 0.53319 0.78791 0.6147 0.0
C946 C 0.52903 0.83037 0.60533 0.0
C947 C 0.53312 0.8245 0.58312 0.0
C948 C 0.53576 0.80008 0.57655 0.0
C949 C 0.53571 0.78201 0.59246 0.0
C950 C 0.52583 0.85625 0.61288 0.0
C951 C 0.53996 0.79318 0.55298 0.0
C952 C 0.51905 0.87457 0.54332 0.0
C953 C 0.54132 0.88611 0.54212 0.0
C954 C 0.51629 0.85366 0.55571 0.0
C955 C 0.53627 0.84419 0.56723 0.0
C956 C 0.55903 0.85495 0.56511 0.0
C957 C 0.56129 0.87585 0.55257 0.0
C958 C 0.49177 0.84263 0.55757 0.0
C959 C 0.58079 0.84515 0.57704 0.0
H960 H 0.52704 0.8166 0.63803 0.0
H961 H 0.53881 0.76341 0.58757 0.0
H962 H 0.5426 0.86662 0.61082 0.0
H963 H 0.51175 0.86504 0.6027 0.0
H964 H 0.52104 0.85754 0.63037 0.0
H965 H 0.53896 0.77329 0.55016 0.0
H966 H 0.52675 0.80194 0.54181 0.0
H967 H 0.55785 0.7997 0.54847 0.0
H968 H 0.50347 0.88262 0.53556 0.0
H969 H 0.57854 0.88461 0.55147 0.0
H970 H 0.48529 0.84618 0.57427 0.0
H971 H 0.49229 0.82271 0.55518 0.0
H972 H 0.47877 0.8502 0.54543 0.0
H973 H 0.57904 0.84765 0.59499 0.0
H974 H 0.59743 0.85434 0.57218 0.0
H975 H 0.58236 0.82545 0.57375 0.0
C976 C 0.45781 0.25056 0.82404 0.0
C977 C 0.46265 0.25906 0.84546 0.0
C978 C 0.43438 0.24897 0.81545 0.0
C979 C 0.41548 0.25708 0.82831 0.0
C980 C 0.42031 0.26557 0.85007 0.0
C981 C 0.4439 0.26604 0.85855 0.0
C982 C 0.42992 0.23893 0.7925 0.0
C983 C 0.40074 0.27506 0.86404 0.0
C984 C 0.36079 0.27604 0.79466 0.0
C985 C 0.34538 0.25641 0.79754 0.0
C986 C 0.38327 0.27702 0.80547 0.0
C987 C 0.39082 0.25736 0.8186 0.0
C988 C 0.37525 0.23743 0.82145 0.0
C989 C 0.3525 0.23745 0.81124 0.0
C990 C 0.399 0.299 0.8027 0.0
C991 C 0.38291 0.21568 0.83455 0.0
H992 H 0.47244 0.24515 0.814 0.0
H993 H 0.44781 0.2729 0.87504 0.0
H994 H 0.41605 0.22449 0.79251 0.0
H995 H 0.42322 0.25342 0.78157 0.0
H996 H 0.44627 0.23136 0.78549 0.0
H997 H 0.40741 0.28066 0.88072 0.0
H998 H 0.39236 0.29088 0.85598 0.0
H999 H 0.38663 0.26109 0.86564 0.0
H1000 H 0.35512 0.29077 0.7842 0.0
H1001 H 0.34055 0.22217 0.81331 0.0
H1002 H 0.41487 0.29395 0.79343 0.0
H1003 H 0.40544 0.3061 0.81898 0.0
H1004 H 0.3896 0.31369 0.79379 0.0
H1005 H 0.39844 0.20719 0.8269 0.0
H1006 H 0.36849 0.20188 0.8355 0.0
H1007 H 0.38865 0.22127 0.85146 0.0
C1008 C 0.00979 0.8429 0.40834 0.0
C1009 C 0.0216 0.82266 0.4168 0.0
C1010 C 0.0073 0.86397 0.42111 0.0
C1011 C 0.01758 0.86517 0.44264 0.0
C1012 C 0.0295 0.84473 0.4513 0.0
C1013 C 0.031 0.82354 0.43839 0.0
C1014 C -0.00612 0.88506 0.41145 0.0
C1015 C 0.04134 0.84554 0.4739 0.0
C1016 C 0.03304 0.92874 0.46328 0.0
C1017 C 0.01491 0.93325 0.47794 0.0
C1018 C 0.03454 0.90637 0.4523 0.0
C1019 C 0.017 0.8883 0.45549 0.0
C1020 C -0.00144 0.89279 0.47024 0.0
C1021 C -0.00203 0.91511 0.48161 0.0
C1022 C 0.05488 0.90214 0.43724 0.0
C1023 C 0.97914 0.87428 0.47357 0.0
H1024 H 0.00224 0.84215 0.39173 0.0
H1025 H 0.04022 0.80794 0.44491 0.0
H1026 H 0.98005 0.89112 0.42278 0.0
H1027 H 0.00624 0.90056 0.40933 0.0
H1028 H 0.98519 0.88048 0.39527 0.0
H1029 H 0.0494 0.82796 0.47844 0.0
H1030 H 0.05552 0.85969 0.47457 0.0
H1031 H 0.02828 0.85051 0.48635 0.0
H1032 H 0.04636 0.94264 0.46064 0.0
H1033 H 0.98391 0.91861 0.4929 0.0
H1034 H 0.04793 0.89981 0.42009 0.0
H1035 H 0.06425 0.88525 0.44177 0.0
H1036 H 0.06798 0.91735 0.43783 0.0
H1037 H 0.96942 0.87043 0.45773 0.0
H1038 H 0.96618 0.88046 0.48573 0.0
H1039 H 0.98695 0.85701 0.47922 0.0
C1040 C 0.50988 0.72311 0.74952 0.0
C1041 C 0.50916 0.72894 0.72718 0.0
C1042 C 0.48896 0.72238 0.76139 0.0
C1043 C 0.46697 0.72726 0.75049 0.0
C1044 C 0.46623 0.73354 0.72805 0.0
C1045 C 0.48735 0.73447 0.71673 0.0
C1046 C 0.49032 0.71606 0.7854 0.0
C1047 C 0.44303 0.73877 0.71582 0.0
C1048 C 0.40694 0.70422 0.76629 0.0
C1049 C 0.39617 0.72592 0.77245 0.0
C1050 C 0.43093 0.70385 0.76091 0.0
C1051 C 0.4444 0.72563 0.76208 0.0
C1052 C 0.43434 0.74695 0.77059 0.0
C1053 C 0.41024 0.74691 0.77547 0.0
C1054 C 0.44109 0.68073 0.75192 0.0
C1055 C 0.44832 0.77042 0.77244 0.0
H1056 H 0.52673 0.71889 0.75769 0.0
H1057 H 0.48663 0.73891 0.69946 0.0
H1058 H 0.48139 0.7301 0.79523 0.0
H1059 H 0.48079 0.69869 0.78794 0.0
H1060 H 0.50897 0.71432 0.79176 0.0
H1061 H 0.4456 0.74323 0.69834 0.0
H1062 H 0.43091 0.72282 0.71642 0.0
H1063 H 0.43403 0.75418 0.72374 0.0
H1064 H 0.3963 0.68779 0.76452 0.0
H1065 H 0.40213 0.76383 0.78012 0.0
H1066 H 0.4593 0.67774 0.75884 0.0
H1067 H 0.44235 0.68214 0.73385 0.0
H1068 H 0.4298 0.66472 0.75544 0.0
H1069 H 0.46672 0.7673 0.77886 0.0
H1070 H 0.43971 0.78376 0.78331 0.0
H1071 H 0.44955 0.77844 0.75592 0.0
C1072 C 0.49881 0.16913 0.92821 0.0
C1073 C 0.51999 0.18254 0.93132 0.0
C1074 C 0.49492 0.14775 0.93988 0.0
C1075 C 0.51302 0.13909 0.95442 0.0
C1076 C 0.53443 0.15264 0.95764 0.0
C1077 C 0.53748 0.17441 0.94634 0.0
C1078 C 0.47155 0.13429 0.93649 0.0
C1079 C 0.55447 0.14374 0.97245 0.0
C1080 C 0.50025 0.0913 -0.0028 0.0
C1081 C 0.50649 0.06998 0.98621 0.0
C1082 C 0.50158 0.11388 0.98685 0.0
C1083 C 0.51015 0.11522 0.9653 0.0
C1084 C 0.51655 0.0937 0.95422 0.0
C1085 C 0.51427 0.07135 0.96466 0.0
C1086 C 0.49384 0.13629 -0.00105 0.0
C1087 C 0.52641 0.09431 0.9315 0.0
H1088 H 0.48515 0.17549 0.91675 0.0
H1089 H 0.55395 0.18465 0.94868 0.0
H1090 H 0.47455 0.11654 0.92842 0.0
H1091 H 0.46364 0.13064 0.95255 0.0
H1092 H 0.45854 0.14451 0.92619 0.0
H1093 H 0.56989 0.1565 0.97336 0.0
H1094 H 0.54815 0.14102 0.98927 0.0
H1095 H 0.56061 0.12594 0.96635 0.0
H1096 H 0.49411 0.09029 0.01383 0.0
H1097 H 0.51936 0.05494 0.95617 0.0
H1098 H 0.48039 0.1461 0.98884 0.0
H1099 H 0.50926 0.14874 0.0019 0.0
H1100 H 0.48615 0.13201 0.015 0.0
H1101 H 0.51328 0.10239 0.91983 0.0
H1102 H 0.53095 0.07601 0.9253 0.0
H1103 H 0.54266 0.10589 0.93165 0.0
C1104 C 0.16149 0.21234 0.18507 0.0
C1105 C 0.14566 0.21756 0.16765 0.0
C1106 C 0.18391 0.22348 0.18676 0.0
C1107 C 0.19038 0.2404 0.17063 0.0
C1108 C 0.17581 0.24305 0.15147 0.0
C1109 C 0.15344 0.23151 0.15017 0.0
C1110 C 0.19941 0.2192 0.20711 0.0
C1111 C 0.18251 0.25985 0.13336 0.0
C1112 C 0.21887 0.28787 0.20579 0.0
C1113 C 0.24164 0.27806 0.20785 0.0
C1114 C 0.20237 0.27843 0.19017 0.0
C1115 C 0.209 0.25863 0.17678 0.0
C1116 C 0.23323 0.25242 0.17572 0.0
C1117 C 0.2495 0.26239 0.19135 0.0
C1118 C 0.1769 0.28669 0.19084 0.0
C1119 C 0.24133 0.23261 0.16056 0.0
H1120 H 0.15562 0.20104 0.19828 0.0
H1121 H 0.14133 0.23526 0.13644 0.0
H1122 H 0.21757 0.21399 0.20248 0.0
H1123 H 0.20102 0.23605 0.21717 0.0
H1124 H 0.19215 0.20476 0.21754 0.0
H1125 H 0.17617 0.25241 0.11716 0.0
H1126 H 0.17371 0.27752 0.13574 0.0
H1127 H 0.20201 0.26304 0.13307 0.0
H1128 H 0.21306 0.30068 0.21807 0.0
H1129 H 0.26742 0.25533 0.19237 0.0
H1130 H 0.16625 0.27323 0.19978 0.0
H1131 H 0.16898 0.28811 0.17401 0.0
H1132 H 0.17549 0.30451 0.19932 0.0
H1133 H 0.24036 0.21499 0.16902 0.0
H1134 H 0.26011 0.23567 0.15612 0.0
H1135 H 0.22993 0.23138 0.14536 0.0
C1136 C 0.12726 -0.00428 0.14721 0.0
C1137 C 0.11468 0.00323 0.16548 0.0
C1138 C 0.11733 -0.00221 0.1259 0.0
C1139 C 0.09452 0.00804 0.1229 0.0
C1140 C 0.08178 0.01569 0.14131 0.0
C1141 C 0.09192 0.01294 0.16243 0.0
C1142 C 0.13119 0.98903 0.10664 0.0
C1143 C 0.05752 0.02702 0.1387 0.0
C1144 C 0.07471 0.0352 0.06861 0.0
C1145 C 0.05828 0.01769 0.0607 0.0
C1146 C 0.08729 0.03198 0.08861 0.0
C1147 C 0.08366 0.01052 0.10056 0.0
C1148 C 0.06812 -0.0078 0.09193 0.0
C1149 C 0.05539 -0.00386 0.07219 0.0
C1150 C 0.10338 0.05211 0.09754 0.0
C1151 C 0.06415 0.96888 0.10399 0.0
H1152 H 0.14486 0.98815 0.14958 0.0
H1153 H 0.08224 0.01896 0.17653 0.0
H1154 H 0.12064 0.97517 0.0971 0.0
H1155 H 0.13457 0.00426 0.09545 0.0
H1156 H 0.14853 0.98109 0.11182 0.0
H1157 H 0.05039 0.03287 0.15466 0.0
H1158 H 0.05845 0.04298 0.1279 0.0
H1159 H 0.04477 0.0139 0.13073 0.0
H1160 H 0.07676 0.05195 0.05978 0.0
H1161 H 0.04277 0.98252 0.06594 0.0
H1162 H 0.12106 0.04493 0.10256 0.0
H1163 H 0.09558 0.0602 0.11237 0.0
H1164 H 0.10588 0.06664 0.08539 0.0
H1165 H 0.08144 0.96066 0.10881 0.0
H1166 H 0.05349 0.9555 0.09394 0.0
H1167 H 0.05464 0.97268 0.11927 0.0
C1168 C 0.26429 0.88068 0.45735 0.0
C1169 C 0.26987 0.86969 0.47746 0.0
C1170 C 0.26847 0.8688 0.4374 0.0
C1171 C 0.27857 0.84545 0.4376 0.0
C1172 C 0.2845 0.83437 0.45781 0.0
C1173 C 0.28001 0.84659 0.47749 0.0
C1174 C 0.26178 0.88108 0.41612 0.0
C1175 C 0.29534 0.8095 0.45863 0.0
C1176 C 0.26637 0.80457 0.3881 0.0
C1177 C 0.28754 0.80687 0.37677 0.0
C1178 C 0.26329 0.817 0.40792 0.0
C1179 C 0.28185 0.83209 0.41667 0.0
C1180 C 0.30335 0.83441 0.40541 0.0
C1181 C 0.30591 0.82182 0.38549 0.0
C1182 C 0.24004 0.81419 0.41936 0.0
C1183 C 0.32357 0.85024 0.41438 0.0
H1184 H 0.25649 0.89852 0.45716 0.0
H1185 H 0.28454 0.838 0.49294 0.0
H1186 H 0.27749 0.88238 0.40568 0.0
H1187 H 0.24804 0.87013 0.40687 0.0
H1188 H 0.25475 0.89956 0.41879 0.0
H1189 H 0.29985 0.80385 0.47568 0.0
H1190 H 0.28273 0.796 0.45101 0.0
H1191 H 0.31174 0.80912 0.44905 0.0
H1192 H 0.25191 0.79344 0.38118 0.0
H1193 H 0.32229 0.82357 0.37677 0.0
H1194 H 0.23143 0.83207 0.42099 0.0
H1195 H 0.24335 0.80728 0.43617 0.0
H1196 H 0.22744 0.80162 0.41041 0.0
H1197 H 0.31756 0.86921 0.41595 0.0
H1198 H 0.33922 0.84984 0.40377 0.0
H1199 H 0.3292 0.84424 0.43104 0.0
C1200 C 0.46076 0.01345 0.6766 0.0
C1201 C 0.43652 0.00796 0.67306 0.0
C1202 C 0.47568 0.01665 0.65894 0.0
C1203 C 0.46615 0.01385 0.6373 0.0
C1204 C 0.4416 0.0086 0.6336 0.0
C1205 C 0.42698 0.00596 0.65159 0.0
C1206 C 0.50169 0.02258 0.66344 0.0
C1207 C 0.43091 0.00512 0.61067 0.0
C1208 C 0.49653 0.03798 0.58764 0.0
C1209 C 0.506 0.01674 0.57888 0.0
C1210 C 0.48461 0.03763 0.60743 0.0
C1211 C 0.48193 0.01545 0.61845 0.0
C1212 C 0.49286 -0.00568 0.61045 0.0
C1213 C 0.50498 -0.00473 0.59082 0.0
C1214 C 0.4736 0.06063 0.61577 0.0
C1215 C 0.49026 0.97029 0.62171 0.0
H1216 H 0.46812 0.0152 0.69323 0.0
H1217 H 0.40826 0.00162 0.64886 0.0
H1218 H 0.51277 0.00754 0.65747 0.0
H1219 H 0.50682 0.03903 0.6544 0.0
H1220 H 0.50596 0.02563 0.68119 0.0
H1221 H 0.41143 0.00151 0.61062 0.0
H1222 H 0.43417 0.02147 0.60079 0.0
H1223 H 0.43956 0.98972 0.60239 0.0
H1224 H 0.4974 0.05465 0.57851 0.0
H1225 H 0.51219 0.97875 0.58409 0.0
H1226 H 0.47782 0.06326 0.63356 0.0
H1227 H 0.45396 0.0593 0.61363 0.0
H1228 H 0.47984 0.07681 0.60691 0.0
H1229 H 0.49485 0.97218 0.63949 0.0
H1230 H 0.50168 0.95615 0.61458 0.0
H1231 H 0.47145 0.96403 0.62009 0.0
C1232 C 0.32885 0.17628 0.96448 0.0
C1233 C 0.32672 0.15113 0.96664 0.0
C1234 C 0.32497 0.18701 0.94405 0.0
C1235 C 0.31934 0.17208 0.92554 0.0
C1236 C 0.32145 0.14669 0.92704 0.0
C1237 C 0.32501 0.1364 0.94774 0.0
C1238 C 0.32376 0.21424 0.94286 0.0
C1239 C 0.31708 0.13034 0.90728 0.0
C1240 C 0.26863 0.19408 0.88893 0.0
C1241 C 0.28092 0.20424 0.87181 0.0
C1242 C 0.2811 0.18341 0.9065 0.0
C1243 C 0.30635 0.18255 0.9065 0.0
C1244 C 0.31875 0.19238 0.88888 0.0
C1245 C 0.30581 0.20321 0.87172 0.0
C1246 C 0.26726 0.17341 0.92522 0.0
C1247 C 0.3455 0.19116 0.88781 0.0
H1248 H 0.33088 0.18776 0.979 0.0
H1249 H 0.32409 0.11689 0.94927 0.0
H1250 H 0.33262 0.22089 0.9281 0.0
H1251 H 0.30484 0.21974 0.94157 0.0
H1252 H 0.33219 0.22319 0.95764 0.0
H1253 H 0.32406 0.11188 0.91015 0.0
H1254 H 0.29765 0.12882 0.90356 0.0
H1255 H 0.32549 0.13798 0.89266 0.0
H1256 H 0.24937 0.19489 0.88872 0.0
H1257 H 0.31513 0.21076 0.85806 0.0
H1258 H 0.27321 0.18243 0.94087 0.0
H1259 H 0.27067 0.15378 0.92691 0.0
H1260 H 0.24778 0.17598 0.92284 0.0
H1261 H 0.35438 0.19359 0.90424 0.0
H1262 H 0.35259 0.20503 0.87668 0.0
H1263 H 0.3504 0.17308 0.88139 0.0
C1264 C 0.09555 0.05642 0.30041 0.0
C1265 C 0.10092 0.03369 0.29153 0.0
C1266 C 0.08882 0.05886 0.32226 0.0
C1267 C 0.08654 0.03794 0.33519 0.0
C1268 C 0.09188 0.01492 0.32622 0.0
C1269 C 0.09945 0.01313 0.30458 0.0
C1270 C 0.08416 0.08378 0.33148 0.0
C1271 C 0.08897 -0.00789 0.33928 0.0
C1272 C 0.08496 0.04028 0.39739 0.0
C1273 C 0.0604 0.03882 0.40076 0.0
C1274 C 0.09372 0.04123 0.37612 0.0
C1275 C 0.0776 0.03991 0.35778 0.0
C1276 C 0.05283 0.03925 0.36103 0.0
C1277 C 0.04455 0.03924 0.38243 0.0
C1278 C 0.12025 0.0428 0.3733 0.0
C1279 C 0.03504 0.03746 0.3419 0.0
H1280 H 0.09702 0.07236 0.29035 0.0
H1281 H 0.10354 -0.00444 0.29764 0.0
H1282 H 0.06518 0.0853 0.33562 0.0
H1283 H 0.09492 0.08686 0.34689 0.0
H1284 H 0.08842 0.09831 0.31978 0.0
H1285 H 0.09361 0.97562 0.32982 0.0
H1286 H 0.10042 -0.00692 0.35446 0.0
H1287 H 0.07028 0.99031 0.34437 0.0
H1288 H 0.09747 0.03979 0.41129 0.0
H1289 H 0.02554 0.03894 0.38475 0.0
H1290 H 0.12454 0.05707 0.36138 0.0
H1291 H 0.12668 0.0254 0.36661 0.0
H1292 H 0.13014 0.04681 0.38904 0.0
H1293 H 0.03746 0.05283 0.33067 0.0
H1294 H 0.01635 0.03734 0.34724 0.0
H1295 H 0.03806 0.0206 0.33235 0.0
C1296 C 0.27342 0.80749 0.60015 0.0
C1297 C 0.27507 0.8324 0.60486 0.0
C1298 C 0.27436 0.79044 0.61703 0.0
C1299 C 0.27676 0.79854 0.63912 0.0
C1300 C 0.27928 0.82361 0.6439 0.0
C1301 C 0.27848 0.84021 0.62672 0.0
C1302 C 0.27198 0.76385 0.6113 0.0
C1303 C 0.28176 0.83304 0.66725 0.0
C1304 C 0.25052 0.76459 0.68603 0.0
C1305 C 0.27106 0.75703 0.69761 0.0
C1306 C 0.25204 0.77678 0.66613 0.0
C1307 C 0.27464 0.78125 0.65744 0.0
C1308 C 0.29525 0.77167 0.66796 0.0
C1309 C 0.29323 0.75968 0.68801 0.0
C1310 C 0.22959 0.78664 0.65543 0.0
C1311 C 0.31963 0.77574 0.65901 0.0
H1312 H 0.27096 0.80131 0.58327 0.0
H1313 H 0.27983 0.85941 0.6305 0.0
H1314 H 0.28617 0.75348 0.61994 0.0
H1315 H 0.25467 0.75682 0.61682 0.0
H1316 H 0.27294 0.76036 0.59337 0.0
H1317 H 0.28609 0.8527 0.66806 0.0
H1318 H 0.26485 0.82993 0.67568 0.0
H1319 H 0.29588 0.82319 0.67647 0.0
H1320 H 0.23327 0.7624 0.6932 0.0
H1321 H 0.3092 0.75383 0.69679 0.0
H1322 H 0.22875 0.78228 0.63762 0.0
H1323 H 0.22964 0.80666 0.65724 0.0
H1324 H 0.21329 0.77936 0.66287 0.0
H1325 H 0.31929 0.77274 0.64098 0.0
H1326 H 0.33309 0.76367 0.66673 0.0
H1327 H 0.32532 0.79478 0.66228 0.0
C1328 C 0.4421 0.9384 0.79986 0.0
C1329 C 0.43596 0.96141 0.79224 0.0
C1330 C 0.44916 0.935 0.82187 0.0
C1331 C 0.45069 0.95522 0.83632 0.0
C1332 C 0.44447 0.97848 0.8287 0.0
C1333 C 0.43687 0.98124 0.80678 0.0
C1334 C 0.45502 0.90985 0.82963 0.0
C1335 C 0.44635 0.00056 0.84357 0.0
C1336 C 0.45166 0.95167 0.89819 0.0
C1337 C 0.47592 0.95561 0.90339 0.0
C1338 C 0.44334 0.94978 0.87629 0.0
C1339 C 0.45959 0.95244 0.85928 0.0
C1340 C 0.48422 0.95495 0.8644 0.0
C1341 C 0.49212 0.95615 0.88641 0.0
C1342 C 0.41699 0.94642 0.8714 0.0
C1343 C 0.50208 0.95806 0.84669 0.0
H1344 H 0.44113 0.923 0.78865 0.0
H1345 H 0.43222 -0.00095 0.80086 0.0
H1346 H 0.474 0.90908 0.83512 0.0
H1347 H 0.44427 0.90531 0.84396 0.0
H1348 H 0.45163 0.89589 0.8166 0.0
H1349 H 0.44099 0.01737 0.83499 0.0
H1350 H 0.4349 -0.00181 0.85784 0.0
H1351 H 0.46493 0.00289 0.85005 0.0
H1352 H 0.43896 0.95135 0.91114 0.0
H1353 H 0.51096 0.9585 0.89031 0.0
H1354 H 0.41375 0.93259 0.85824 0.0
H1355 H 0.40938 0.96368 0.86545 0.0
H1356 H 0.40735 0.94088 0.88614 0.0
H1357 H 0.49986 0.9435 0.83409 0.0
H1358 H 0.52073 0.95794 0.85335 0.0
H1359 H 0.49899 0.97553 0.83834 0.0
C1360 C 0.32994 0.17195 0.09285 0.0
C1361 C 0.30849 0.15921 0.09549 0.0
C1362 C 0.34075 0.18519 0.11028 0.0
C1363 C 0.32973 0.18581 0.13071 0.0
C1364 C 0.30803 0.17311 0.13349 0.0
C1365 C 0.29772 0.15986 0.11583 0.0
C1366 C 0.36385 0.19856 0.10682 0.0
C1367 C 0.29555 0.17373 0.15505 0.0
C1368 C 0.35922 0.2019 0.18546 0.0
C1369 C 0.34891 0.22443 0.18954 0.0
C1370 C 0.35488 0.18977 0.16536 0.0
C1371 C 0.34005 0.20059 0.14911 0.0
C1372 C 0.33202 0.22448 0.15215 0.0
C1373 C 0.33657 0.23613 0.17234 0.0
C1374 C 0.36407 0.16442 0.16244 0.0
C1375 C 0.31633 0.23671 0.13509 0.0
H1376 H 0.33846 0.17142 0.07718 0.0
H1377 H 0.28115 0.1501 0.11794 0.0
H1378 H 0.36149 0.21824 0.10966 0.0
H1379 H 0.37772 0.19249 0.11885 0.0
H1380 H 0.37039 0.19575 0.09001 0.0
H1381 H 0.27913 0.16235 0.15462 0.0
H1382 H 0.30766 0.16732 0.16845 0.0
H1383 H 0.29066 0.19261 0.15919 0.0
H1384 H 0.36911 0.19296 0.19854 0.0
H1385 H 0.32828 0.25344 0.17524 0.0
H1386 H 0.37067 0.16164 0.14568 0.0
H1387 H 0.34932 0.15125 0.16461 0.0
H1388 H 0.37862 0.16037 0.1746 0.0
H1389 H 0.32377 0.23473 0.11857 0.0
H1390 H 0.31413 0.25628 0.13879 0.0
H1391 H 0.29847 0.22794 0.13445 0.0
C1392 C 0.20546 0.11341 0.00861 0.0
C1393 C 0.22188 0.13176 0.00441 0.0
C1394 C 0.18252 0.11369 -0.00091 0.0
C1395 C 0.17606 0.13254 0.98454 0.0
C1396 C 0.19274 0.15095 0.97991 0.0
C1397 C 0.21543 0.15058 -0.00974 0.0
C1398 C 0.16523 0.09371 0.00465 0.0
C1399 C 0.18678 0.17106 0.9642 0.0
C1400 C 0.12291 0.10744 0.95395 0.0
C1401 C 0.10535 0.11411 0.96852 0.0
C1402 C 0.14611 0.1167 0.95673 0.0
C1403 C 0.15161 0.13243 0.97472 0.0
C1404 C 0.13307 0.14226 0.987 0.0
C1405 C 0.10995 0.13296 0.98369 0.0
C1406 C 0.16528 0.10688 0.94251 0.0
C1407 C 0.13816 0.15965 0.0059 0.0
H1408 H 0.21052 0.09889 0.01956 0.0
H1409 H 0.2283 0.16466 0.98684 0.0
H1410 H 0.1489 0.10154 0.01139 0.0
H1411 H 0.15987 0.08324 0.9896 0.0
H1412 H 0.17293 0.08096 0.01684 0.0
H1413 H 0.2031 0.17905 0.95735 0.0
H1414 H 0.17482 0.16463 0.95043 0.0
H1415 H 0.17753 0.18562 0.97309 0.0
H1416 H 0.11913 0.0932 0.94188 0.0
H1417 H 0.09627 0.1383 -0.00518 0.0
H1418 H 0.1743 0.09173 0.95105 0.0
H1419 H 0.17889 0.121 0.93943 0.0
H1420 H 0.15774 0.09991 0.92653 0.0
H1421 H 0.14544 0.1495 0.02017 0.0
H1422 H 0.12181 0.16903 0.01093 0.0
H1423 H 0.15164 0.17339 0.00154 0.0
C1424 C 0.67565 0.41103 0.04036 0.0
C1425 C 0.69683 0.42212 0.04831 0.0
C1426 C 0.6548 0.42448 0.03724 0.0
C1427 C 0.65512 0.44955 0.04238 0.0
C1428 C 0.67631 0.46075 0.05084 0.0
C1429 C 0.69694 0.4469 0.05364 0.0
C1430 C 0.63252 0.41191 0.02814 0.0
C1431 C 0.67725 0.48738 0.0567 0.0
C1432 C 0.60657 0.4864 0.01431 0.0
C1433 C 0.58935 0.48696 0.03038 0.0
C1434 C 0.62843 0.47493 0.01824 0.0
C1435 C 0.63321 0.46398 0.03878 0.0
C1436 C 0.61639 0.46559 0.05543 0.0
C1437 C 0.59462 0.47698 0.051 0.0
C1438 C 0.64594 0.47354 7e-05 0.0
C1439 C 0.62096 0.45442 0.07763 0.0
H1440 H 0.67545 0.39191 0.03617 0.0
H1441 H 0.71325 0.45558 0.05984 0.0
H1442 H 0.61791 0.41403 0.03975 0.0
H1443 H 0.62664 0.42038 0.0125 0.0
H1444 H 0.63522 0.39229 0.02506 0.0
H1445 H 0.69495 0.49319 0.06366 0.0
H1446 H 0.6731 0.49821 0.04189 0.0
H1447 H 0.66359 0.49163 0.06882 0.0
H1448 H 0.60258 0.49402 -0.00167 0.0
H1449 H 0.58145 0.47749 0.06356 0.0
H1450 H 0.64783 0.45442 -0.00532 0.0
H1451 H 0.66376 0.48005 0.00608 0.0
H1452 H 0.64027 0.48439 0.98563 0.0
H1453 H 0.62158 0.43443 0.07581 0.0
H1454 H 0.60698 0.45903 0.08936 0.0
H1455 H 0.63847 0.46055 0.08473 0.0
C1456 C 0.84393 0.42861 0.2259 0.0
C1457 C 0.86867 0.42892 0.22949 0.0
C1458 C 0.83055 0.40748 0.22926 0.0
C1459 C 0.84219 0.38659 0.23715 0.0
C1460 C 0.86721 0.38683 0.24072 0.0
C1461 C 0.8802 0.40792 0.23649 0.0
C1462 C 0.80402 0.40755 0.22453 0.0
C1463 C 0.8802 0.36498 0.24942 0.0
C1464 C 0.808 0.33887 0.26771 0.0
C1465 C 0.80666 0.32019 0.25207 0.0
C1466 C 0.81904 0.36098 0.26288 0.0
C1467 C 0.82837 0.36435 0.24181 0.0
C1468 C 0.82605 0.34572 0.22571 0.0
C1469 C 0.81536 0.32373 0.23114 0.0
C1470 C 0.82174 0.38025 0.2806 0.0
C1471 C 0.8352 0.34883 0.20291 0.0
H1472 H 0.83506 0.4449 0.22041 0.0
H1473 H 0.89932 0.40826 0.23953 0.0
H1474 H 0.79896 0.39267 0.21282 0.0
H1475 H 0.79448 0.40424 0.23983 0.0
H1476 H 0.79788 0.42495 0.21752 0.0
H1477 H 0.89963 0.36838 0.25183 0.0
H1478 H 0.87291 0.35964 0.26535 0.0
H1479 H 0.87746 0.34942 0.2379 0.0
H1480 H 0.80131 0.33582 0.28392 0.0
H1481 H 0.81402 0.3091 0.21909 0.0
H1482 H 0.81448 0.39764 0.27465 0.0
H1483 H 0.84091 0.38332 0.2848 0.0
H1484 H 0.81258 0.3752 0.29575 0.0
H1485 H 0.8248 0.36302 0.1943 0.0
H1486 H 0.83384 0.33183 0.193 0.0
H1487 H 0.85407 0.35491 0.20368 0.0
C1488 C 0.82221 0.54227 0.53443 0.0
C1489 C 0.82921 0.56659 0.5329 0.0
C1490 C 0.83935 0.5241 0.5368 0.0
C1491 C 0.86376 0.53069 0.53749 0.0
C1492 C 0.87064 0.55544 0.53791 0.0
C1493 C 0.85323 0.57304 0.53569 0.0
C1494 C 0.83126 0.498 0.53702 0.0
C1495 C 0.8965 0.56342 0.53906 0.0
C1496 C 0.92003 0.4991 0.55126 0.0
C1497 C 0.92955 0.49793 0.53033 0.0
C1498 C 0.89642 0.50597 0.55385 0.0
C1499 C 0.88258 0.51248 0.53513 0.0
C1500 C 0.89101 0.50776 0.51389 0.0
C1501 C 0.91455 0.50038 0.51173 0.0
C1502 C 0.88744 0.50937 0.57669 0.0
C1503 C 0.87645 0.51384 0.49348 0.0
H1504 H 0.80354 0.5373 0.53242 0.0
H1505 H 0.85855 0.59194 0.535 0.0
H1506 H 0.82949 0.491 0.51991 0.0
H1507 H 0.84412 0.48649 0.54619 0.0
H1508 H 0.81356 0.49626 0.54443 0.0
H1509 H 0.89861 0.58343 0.53991 0.0
H1510 H 0.90573 0.55574 0.5537 0.0
H1511 H 0.90559 0.55671 0.52435 0.0
H1512 H 0.93145 0.49628 0.56568 0.0
H1513 H 0.92177 0.49888 0.49552 0.0
H1514 H 0.8681 0.50525 0.5771 0.0
H1515 H 0.89026 0.52849 0.58202 0.0
H1516 H 0.89712 0.49768 0.58862 0.0
H1517 H 0.85773 0.50777 0.49493 0.0
H1518 H 0.88373 0.50538 0.47855 0.0
H1519 H 0.87648 0.53376 0.49139 0.0
C1520 C 0.20008 0.08556 0.2407 0.0
C1521 C 0.18061 0.086 0.22571 0.0
C1522 C 0.21384 0.10648 0.24518 0.0
C1523 C 0.20806 0.12821 0.23427 0.0
C1524 C 0.18948 0.1283 0.21803 0.0
C1525 C 0.17589 0.10722 0.21403 0.0
C1526 C 0.23362 0.10571 0.26255 0.0
C1527 C 0.18287 0.15102 0.20586 0.0
C1528 C 0.22087 0.18755 0.2644 0.0
C1529 C 0.24168 0.19544 0.25461 0.0
C1530 C 0.20991 0.16556 0.25802 0.0
C1531 C 0.21989 0.15128 0.2413 0.0
C1532 C 0.24082 0.1592 0.23126 0.0
C1533 C 0.25157 0.18115 0.23814 0.0
C1534 C 0.18756 0.15767 0.2691 0.0
C1535 C 0.25163 0.1447 0.21304 0.0
H1536 H 0.20386 0.06921 0.24975 0.0
H1537 H 0.16103 0.10764 0.20222 0.0
H1538 H 0.2502 0.11372 0.25632 0.0
H1539 H 0.22865 0.11668 0.27702 0.0
H1540 H 0.23732 0.08697 0.26799 0.0
H1541 H 0.17111 0.14711 0.1912 0.0
H1542 H 0.17329 0.16327 0.21698 0.0
H1543 H 0.19898 0.16079 0.20057 0.0
H1544 H 0.21313 0.19856 0.27708 0.0
H1545 H 0.26751 0.18732 0.23031 0.0
H1546 H 0.1901 0.13957 0.27643 0.0
H1547 H 0.17259 0.15606 0.2568 0.0
H1548 H 0.18246 0.17056 0.28221 0.0
H1549 H 0.25593 0.12625 0.21879 0.0
H1550 H 0.26809 0.15331 0.20707 0.0
H1551 H 0.2386 0.14266 0.19903 0.0
C1552 C 0.34914 0.92059 0.535 0.0
C1553 C 0.33374 0.93636 0.54547 0.0
C1554 C 0.37234 0.92797 0.53042 0.0
C1555 C 0.38041 0.95132 0.53723 0.0
C1556 C 0.36543 0.9666 0.54928 0.0
C1557 C 0.34199 0.95913 0.55282 0.0
C1558 C 0.3876 0.91144 0.51707 0.0
C1559 C 0.37381 0.9912 0.55763 0.0
C1560 C 0.44657 0.96456 0.5365 0.0
C1561 C 0.44798 0.97874 0.51771 0.0
C1562 C 0.42463 0.95572 0.54326 0.0
C1563 C 0.40384 0.96046 0.53039 0.0
C1564 C 0.40532 0.97425 0.51103 0.0
C1565 C 0.4274 0.98371 0.50516 0.0
C1566 C 0.42362 0.94201 0.56448 0.0
C1567 C 0.38357 0.9791 0.49659 0.0
H1568 H 0.34251 0.90311 0.52905 0.0
H1569 H 0.32995 0.97124 0.56093 0.0
H1570 H 0.39086 0.91981 0.50099 0.0
H1571 H 0.40518 0.90893 0.52549 0.0
H1572 H 0.37914 0.89338 0.51407 0.0
H1573 H 0.36113 -0.00057 0.56905 0.0
H1574 H 0.39146 0.98985 0.56623 0.0
H1575 H 0.37589 0.00353 0.54361 0.0
H1576 H 0.46257 0.96122 0.54642 0.0
H1577 H 0.42866 -0.0052 0.4907 0.0
H1578 H 0.41554 0.92382 0.56145 0.0
H1579 H 0.41215 0.95175 0.57603 0.0
H1580 H 0.4415 0.93982 0.5725 0.0
H1581 H 0.37441 0.9618 0.49193 0.0
H1582 H 0.38804 0.98877 0.48139 0.0
H1583 H 0.37081 0.99021 0.50572 0.0
C1584 C 0.85485 0.5903 0.26497 0.0
C1585 C 0.84561 0.57029 0.25302 0.0
C1586 C 0.84135 0.61124 0.26762 0.0
C1587 C 0.81814 0.6122 0.25793 0.0
C1588 C 0.8084 0.59177 0.24648 0.0
C1589 C 0.82225 0.57099 0.24421 0.0
C1590 C 0.85222 0.6326 0.2802 0.0
C1591 C 0.7837 0.59218 0.23594 0.0
C1592 C 0.77871 0.66226 0.2783 0.0
C1593 C 0.78264 0.68038 0.26287 0.0
C1594 C 0.78971 0.63972 0.27665 0.0
C1595 C 0.80462 0.63506 0.25892 0.0
C1596 C 0.80772 0.65282 0.24271 0.0
C1597 C 0.79677 0.67536 0.24494 0.0
C1598 C 0.78609 0.62125 0.2943 0.0
C1599 C 0.82335 0.64839 0.22346 0.0
H1600 H 0.87285 0.58982 0.27191 0.0
H1601 H 0.81501 0.55556 0.23495 0.0
H1602 H 0.85467 0.64794 0.26892 0.0
H1603 H 0.84012 0.63874 0.29307 0.0
H1604 H 0.86974 0.62829 0.28809 0.0
H1605 H 0.77818 0.57428 0.22885 0.0
H1606 H 0.77057 0.59775 0.24814 0.0
H1607 H 0.7831 0.60572 0.22267 0.0
H1608 H 0.76772 0.66598 0.29217 0.0
H1609 H 0.79981 0.68925 0.23294 0.0
H1610 H 0.80346 0.61662 0.30225 0.0
H1611 H 0.77843 0.60432 0.28692 0.0
H1612 H 0.77411 0.62783 0.30715 0.0
H1613 H 0.84209 0.64636 0.22942 0.0
H1614 H 0.82256 0.66338 0.21151 0.0
H1615 H 0.81797 0.6313 0.21482 0.0
C1616 C 0.68472 0.40905 0.76833 0.0
C1617 C 0.69391 0.43041 0.75964 0.0
C1618 C 0.69865 0.38823 0.76988 0.0
C1619 C 0.72223 0.38883 0.76245 0.0
C1620 C 0.73201 0.41068 0.7548 0.0
C1621 C 0.71773 0.43127 0.75355 0.0
C1622 C 0.68775 0.36528 0.77845 0.0
C1623 C 0.7571 0.41199 0.7468 0.0
C1624 C 0.76063 0.3357 0.77868 0.0
C1625 C 0.75689 0.32012 0.76048 0.0
C1626 C 0.7502 0.3586 0.77926 0.0
C1627 C 0.73586 0.36609 0.76115 0.0
C1628 C 0.73318 0.35105 0.74222 0.0
C1629 C 0.7437 0.32818 0.74213 0.0
C1630 C 0.75348 0.37419 0.79969 0.0
C1631 C 0.71825 0.35862 0.72246 0.0
H1632 H 0.66637 0.40833 0.77318 0.0
H1633 H 0.72497 0.44776 0.74688 0.0
H1634 H 0.68581 0.35164 0.76497 0.0
H1635 H 0.69953 0.35746 0.79143 0.0
H1636 H 0.66995 0.36836 0.78527 0.0
H1637 H 0.76286 0.43087 0.7436 0.0
H1638 H 0.76976 0.40401 0.75897 0.0
H1639 H 0.7582 0.40127 0.73136 0.0
H1640 H 0.77086 0.32962 0.79293 0.0
H1641 H 0.74088 0.3163 0.72797 0.0
H1642 H 0.73636 0.3753 0.80813 0.0
H1643 H 0.75873 0.39289 0.79539 0.0
H1644 H 0.76713 0.36688 0.81135 0.0
H1645 H 0.69934 0.35983 0.72691 0.0
H1646 H 0.71949 0.34569 0.70845 0.0
H1647 H 0.72391 0.37682 0.71704 0.0
C1648 C -8e-05 0.87617 0.92443 0.0
C1649 C 0.01695 0.86522 0.91163 0.0
C1650 C 0.00506 0.8981 0.9354 0.0
C1651 C 0.02805 0.90863 0.93403 0.0
C1652 C 0.04549 0.8972 0.92149 0.0
C1653 C 0.03955 0.87571 0.91005 0.0
C1654 C 0.98579 0.91014 0.94818 0.0
C1655 C 0.07032 0.90762 0.92022 0.0
C1656 C 0.02976 0.97543 0.94758 0.0
C1657 C 0.03374 0.97481 0.9703 0.0
C1658 C 0.02934 0.95395 0.93511 0.0
C1659 C 0.03353 0.9317 0.94576 0.0
C1660 C 0.03985 0.93143 0.96842 0.0
C1661 C 0.03936 0.95305 0.98056 0.0
C1662 C 0.02206 0.95502 0.91109 0.0
C1663 C 0.04541 0.90816 0.98012 0.0
H1664 H 0.98243 0.86787 0.92539 0.0
H1665 H 0.05262 0.86691 0.9001 0.0
H1666 H -0.00868 0.91157 0.96579 0.0
H1667 H 0.98296 0.92881 0.94219 0.0
H1668 H 0.9686 0.90006 0.94675 0.0
H1669 H 0.08207 0.8959 0.9105 0.0
H1670 H 0.06963 0.92574 0.91262 0.0
H1671 H 0.07839 0.91008 0.93698 0.0
H1672 H 0.02503 -0.00763 0.93985 0.0
H1673 H 0.04237 0.95283 -0.00177 0.0
H1674 H 0.00273 0.95091 0.90914 0.0
H1675 H 0.03161 0.94152 0.90121 0.0
H1676 H 0.02542 0.97327 0.90437 0.0
H1677 H 0.02869 0.89777 0.98233 0.0
H1678 H 0.05406 0.91155 -0.00344 0.0
H1679 H 0.05725 0.8967 0.97028 0.0
C1680 C 0.94548 0.22065 0.70593 0.0
C1681 C 0.95572 0.23859 0.69305 0.0
C1682 C 0.92304 0.22376 0.71488 0.0
C1683 C 0.91055 0.24553 0.7112 0.0
C1684 C 0.92073 0.26373 0.6982 0.0
C1685 C 0.9431 0.25997 0.68912 0.0
C1686 C 0.91268 0.2037 0.7283 0.0
C1687 C 0.90812 0.2873 0.69412 0.0
C1688 C 0.84373 0.24295 0.71895 0.0
C1689 C 0.84199 0.25141 0.74065 0.0
C1690 C 0.86583 0.24149 0.709 0.0
C1691 C 0.88677 0.24897 0.7209 0.0
C1692 C 0.88505 0.25832 0.74254 0.0
C1693 C 0.86272 0.25926 0.75222 0.0
C1694 C 0.86684 0.23113 0.68602 0.0
C1695 C 0.9069 0.26681 0.75566 0.0
H1696 H 0.95501 0.20401 0.70897 0.0
H1697 H 0.95093 0.274 0.67933 0.0
H1698 H 0.90973 0.21035 0.74522 0.0
H1699 H 0.89512 0.19789 0.72107 0.0
H1700 H 0.92442 0.18768 0.72925 0.0
H1701 H 0.91845 0.29969 0.68375 0.0
H1702 H 0.89048 0.28378 0.68592 0.0
H1703 H 0.90493 0.29657 0.70998 0.0
H1704 H 0.82784 0.2368 0.70985 0.0
H1705 H 0.86154 0.26595 0.76893 0.0
H1706 H 0.87708 0.21408 0.6863 0.0
H1707 H 0.87623 0.24387 0.6753 0.0
H1708 H 0.84886 0.22722 0.67859 0.0
H1709 H 0.91871 0.25125 0.75903 0.0
H1710 H 0.90239 0.27534 0.77156 0.0
H1711 H 0.91714 0.28006 0.74613 0.0
C1712 C 0.48737 0.20783 0.40204 0.0
C1713 C 0.49003 0.23169 0.40981 0.0
C1714 C 0.48502 0.18865 0.41661 0.0
C1715 C 0.48485 0.19359 0.43944 0.0
C1716 C 0.48672 0.21774 0.44735 0.0
C1717 C 0.48957 0.23653 0.43242 0.0
C1718 C 0.48348 0.16306 0.40761 0.0
C1719 C 0.48613 0.22365 0.47157 0.0
C1720 C 0.46284 0.1415 0.47336 0.0
C1721 C 0.48439 0.13108 0.48023 0.0
C1722 C 0.46264 0.16271 0.46097 0.0
C1723 C 0.4845 0.17326 0.455 0.0
C1724 C 0.50627 0.16321 0.46253 0.0
C1725 C 0.50593 0.14231 0.47519 0.0
C1726 C 0.4391 0.17327 0.45354 0.0
C1727 C 0.52995 0.17371 0.45621 0.0
H1728 H 0.48771 0.20407 0.38456 0.0
H1729 H 0.49132 0.25504 0.43843 0.0
H1730 H 0.49897 0.15261 0.41387 0.0
H1731 H 0.46722 0.15388 0.41327 0.0
H1732 H 0.48317 0.16239 0.38938 0.0
H1733 H 0.48576 0.24346 0.47486 0.0
H1734 H 0.47027 0.21513 0.47872 0.0
H1735 H 0.50206 0.21613 0.48017 0.0
H1736 H 0.4462 0.13279 0.47733 0.0
H1737 H 0.52262 0.13401 0.48017 0.0
H1738 H 0.43649 0.1707 0.43555 0.0
H1739 H 0.43895 0.19303 0.457 0.0
H1740 H 0.42388 0.16464 0.46169 0.0
H1741 H 0.53172 0.17197 0.43819 0.0
H1742 H 0.54522 0.16449 0.46443 0.0
H1743 H 0.53103 0.19327 0.46047 0.0
C1744 C 0.60313 0.77329 0.18176 0.0
C1745 C 0.58356 0.75872 0.1867 0.0
C1746 C 0.62479 0.77155 0.19382 0.0
C1747 C 0.6272 0.75407 0.21053 0.0
C1748 C 0.60753 0.73901 0.21526 0.0
C1749 C 0.58579 0.74187 0.20358 0.0
C1750 C 0.64501 0.78859 0.18883 0.0
C1751 C 0.6096 0.71956 0.23236 0.0
C1752 C 0.69054 0.73572 0.22625 0.0
C1753 C 0.6942 0.74767 0.24648 0.0
C1754 C 0.66854 0.73704 0.21467 0.0
C1755 C 0.65025 0.75159 0.22308 0.0
C1756 C 0.65411 0.76398 0.2434 0.0
C1757 C 0.67588 0.76144 0.25509 0.0
C1758 C 0.66485 0.72282 0.1935 0.0
C1759 C 0.6355 0.78045 0.25252 0.0
H1760 H 0.60132 0.78639 0.16874 0.0
H1761 H 0.5707 0.73039 0.20719 0.0
H1762 H 0.65116 0.79844 0.204 0.0
H1763 H 0.66033 0.77819 0.18292 0.0
H1764 H 0.63982 0.80202 0.17619 0.0
H1765 H 0.59295 0.70869 0.23341 0.0
H1766 H 0.62435 0.70721 0.22846 0.0
H1767 H 0.61393 0.72781 0.24871 0.0
H1768 H 0.70479 0.72508 0.21967 0.0
H1769 H 0.67895 0.77097 0.27061 0.0
H1770 H 0.66213 0.73536 0.17961 0.0
H1771 H 0.6486 0.71132 0.1942 0.0
H1772 H 0.68021 0.71107 0.19002 0.0
H1773 H 0.63084 0.79461 0.24041 0.0
H1774 H 0.64162 0.78944 0.26815 0.0
H1775 H 0.619 0.77001 0.25547 0.0
C1776 C 0.04201 0.15386 0.61634 0.0
C1777 C 0.02689 0.1737 0.61353 0.0
C1778 C 0.04202 0.1348 0.6009 0.0
C1779 C 0.0262 0.13528 0.58234 0.0
C1780 C 0.01118 0.15546 0.57916 0.0
C1781 C 0.01186 0.17455 0.5947 0.0
C1782 C 0.0586 0.11384 0.60477 0.0
C1783 C -0.00623 0.15646 0.5598 0.0
C1784 C 0.0371 0.09033 0.53577 0.0
C1785 C 0.02256 0.0708 0.54151 0.0
C1786 C 0.03819 0.11171 0.54864 0.0
C1787 C 0.02408 0.1137 0.5674 0.0
C1788 C 0.00876 0.09433 0.57274 0.0
C1789 C 0.00836 0.07311 0.55988 0.0
C1790 C 0.055 0.13183 0.54262 0.0
C1791 C -0.00687 0.09578 0.59235 0.0
H1792 H 0.05391 0.1532 0.63069 0.0
H1793 H 0.00013 0.18981 0.59241 0.0
H1794 H 0.04809 0.09723 0.60797 0.0
H1795 H 0.06895 0.11025 0.58994 0.0
H1796 H 0.07123 0.11719 0.61893 0.0
H1797 H 0.98445 0.17406 0.55888 0.0
H1798 H 0.00306 0.15339 0.54428 0.0
H1799 H 0.98026 0.1418 0.56103 0.0
H1800 H 0.04813 0.08863 0.52162 0.0
H1801 H -0.00315 0.05821 0.5643 0.0
H1802 H 0.06896 0.13431 0.55579 0.0
H1803 H 0.04532 0.14915 0.54121 0.0
H1804 H 0.06376 0.12807 0.52691 0.0
H1805 H 0.00436 0.0969 0.60766 0.0
H1806 H 0.98101 0.07984 0.59335 0.0
H1807 H 0.98224 0.11238 0.59163 0.0
C1808 C 0.57375 0.27545 0.32425 0.0
C1809 C 0.55052 0.28018 0.31658 0.0
C1810 C 0.59257 0.27478 0.30995 0.0
C1811 C 0.58808 0.27887 0.28733 0.0
C1812 C 0.56456 0.28289 0.27927 0.0
C1813 C 0.54595 0.28353 0.29407 0.0
C1814 C 0.6174 0.27021 0.31923 0.0
C1815 C 0.55917 0.28716 0.25523 0.0
C1816 C 0.64532 0.30003 0.26379 0.0
C1817 C 0.65531 0.2778 0.25805 0.0
C1818 C 0.62203 0.30114 0.27115 0.0
C1819 C 0.60852 0.2795 0.27267 0.0
C1820 C 0.61749 0.25753 0.2644 0.0
C1821 C 0.64089 0.25689 0.2573 0.0
C1822 C 0.61295 0.325 0.27955 0.0
C1823 C 0.60347 0.23414 0.26539 0.0
H1824 H 0.57736 0.27264 0.34161 0.0
H1825 H 0.52799 0.28721 0.2881 0.0
H1826 H 0.62508 0.25424 0.31098 0.0
H1827 H 0.62912 0.28599 0.31614 0.0
H1828 H 0.61771 0.26697 0.33718 0.0
H1829 H 0.53975 0.28663 0.2512 0.0
H1830 H 0.56626 0.30516 0.25073 0.0
H1831 H 0.56802 0.27345 0.24497 0.0
H1832 H 0.65619 0.31635 0.26382 0.0
H1833 H 0.64841 0.2396 0.25289 0.0
H1834 H 0.61417 0.32526 0.29776 0.0
H1835 H 0.594 0.32742 0.2745 0.0
H1836 H 0.62348 0.34055 0.27358 0.0
H1837 H 0.60464 0.22718 0.28238 0.0
H1838 H 0.61048 0.22009 0.25421 0.0
H1839 H 0.5844 0.23701 0.26105 0.0
C1840 C 0.49678 0.84209 0.11141 0.0
C1841 C 0.51178 0.82275 0.10669 0.0
C1842 C 0.49648 0.86298 0.09848 0.0
C1843 C 0.51199 0.86481 0.08073 0.0
C1844 C 0.52717 0.84533 0.07591 0.0
C1845 C 0.52667 0.82443 0.08877 0.0
C1846 C 0.47969 0.88315 0.10389 0.0
C1847 C 0.54436 0.84677 0.05748 0.0
C1848 C 0.49925 0.91137 0.03638 0.0
C1849 C 0.51357 0.93095 0.04379 0.0
C1850 C 0.49852 0.88972 0.04824 0.0
C1851 C 0.51287 0.88743 0.06767 0.0
C1852 C 0.5279 0.90691 0.07481 0.0
C1853 C 0.52786 0.92851 0.06294 0.0
C1854 C 0.48192 0.86955 0.04031 0.0
C1855 C 0.5439 0.90505 0.09513 0.0
H1856 H 0.48514 0.84084 0.12516 0.0
H1857 H 0.53844 0.80962 0.08513 0.0
H1858 H 0.48999 0.8997 0.1088 0.0
H1859 H 0.46852 0.88765 0.08918 0.0
H1860 H 0.46784 0.87837 0.11741 0.0
H1861 H 0.55484 0.82998 0.05573 0.0
H1862 H 0.53458 0.8501 0.04171 0.0
H1863 H 0.55686 0.86223 0.06049 0.0
H1864 H 0.488 0.91325 0.02172 0.0
H1865 H 0.53904 0.94356 0.0687 0.0
H1866 H 0.46886 0.86561 0.05305 0.0
H1867 H 0.49207 0.85275 0.03756 0.0
H1868 H 0.47206 0.8741 0.02483 0.0
H1869 H 0.53299 0.9025 0.10974 0.0
H1870 H 0.55532 0.92142 0.09789 0.0
H1871 H 0.5555 0.88903 0.09377 0.0
C1872 C 0.91439 0.78315 0.84014 0.0
C1873 C 0.93544 0.77773 0.85177 0.0
C1874 C 0.89785 0.76479 0.83448 0.0
C1875 C 0.90288 0.74053 0.84036 0.0
C1876 C 0.92362 0.73517 0.85291 0.0
C1877 C 0.9397 0.75388 0.85841 0.0
C1878 C 0.87556 0.77119 0.8213 0.0
C1879 C 0.92953 0.70956 0.8594 0.0
C1880 C 0.84755 0.70393 0.82991 0.0
C1881 C 0.84919 0.70047 0.80717 0.0
C1882 C 0.86651 0.71447 0.84218 0.0
C1883 C 0.88742 0.72081 0.83136 0.0
C1884 C 0.8908 0.71245 0.80966 0.0
C1885 C 0.87151 0.70207 0.79776 0.0
C1886 C 0.86257 0.72227 0.86557 0.0
C1887 C 0.91332 0.718 0.79784 0.0
H1888 H 0.91121 0.80156 0.83496 0.0
H1889 H 0.95638 0.74945 0.86671 0.0
H1890 H 0.87599 0.76274 0.80471 0.0
H1891 H 0.85959 0.76402 0.82931 0.0
H1892 H 0.87359 0.79104 0.8194 0.0
H1893 H 0.94583 0.70872 0.87019 0.0
H1894 H 0.91453 0.70128 0.86805 0.0
H1895 H 0.9323 0.69834 0.84451 0.0
H1896 H 0.83052 0.70174 0.83751 0.0
H1897 H 0.87312 0.69846 0.78036 0.0
H1898 H 0.8559 0.7411 0.86569 0.0
H1899 H 0.87931 0.72198 0.87571 0.0
H1900 H 0.84911 0.71053 0.87322 0.0
H1901 H 0.9129 0.73705 0.79228 0.0
H1902 H 0.9151 0.70607 0.78319 0.0
H1903 H 0.92927 0.71597 0.80883 0.0
C1904 C 0.91908 0.02676 0.85325 0.0
C1905 C 0.93394 0.00905 0.84454 0.0
C1906 C 0.92372 0.03664 0.87428 0.0
C1907 C 0.94351 0.02841 0.88687 0.0
C1908 C 0.95885 0.01095 0.87799 0.0
C1909 C 0.95393 0.00156 0.85688 0.0
C1910 C 0.90719 0.05544 0.88318 0.0
C1911 C 0.98016 0.00168 0.89099 0.0
C1912 C 0.97344 0.06016 0.93554 0.0
C1913 C 0.96628 0.0453 0.95261 0.0
C1914 C 0.9644 0.05635 0.91406 0.0
C1915 C 0.948 0.03715 0.9097 0.0
C1916 C 0.93886 0.02381 0.92723 0.0
C1917 C 0.94802 0.02818 0.94858 0.0
C1918 C 0.97418 0.07129 0.89582 0.0
C1919 C 0.92127 0.00324 0.92324 0.0
H1920 H 0.90366 0.03276 0.84373 0.0
H1921 H 0.96546 0.98789 0.85027 0.0
H1922 H 0.89773 0.04797 0.89729 0.0
H1923 H 0.91749 0.07153 0.88932 0.0
H1924 H 0.89375 0.06134 0.87063 0.0
H1925 H -0.00932 0.98872 0.88132 0.0
H1926 H -0.00803 0.01696 0.89645 0.0
H1927 H 0.97419 -0.00754 0.90593 0.0
H1928 H 0.98731 0.07368 0.93863 0.0
H1929 H 0.94224 0.01676 0.96174 0.0
H1930 H 0.95984 0.07621 0.88379 0.0
H1931 H 0.98741 0.06051 0.88694 0.0
H1932 H 0.98309 0.08813 0.90219 0.0
H1933 H 0.90682 0.00855 0.91149 0.0
H1934 H 0.91322 -0.00276 0.93866 0.0
H1935 H 0.93052 0.98762 0.9159 0.0
C1936 C 0.76026 0.16865 0.554 0.0
C1937 C 0.76274 0.14342 0.55398 0.0
C1938 C 0.75768 0.18168 0.57367 0.0
C1939 C 0.75807 0.16921 0.5938 0.0
C1940 C 0.76121 0.14383 0.59393 0.0
C1941 C 0.76328 0.13121 0.574 0.0
C1942 C 0.75403 0.20869 0.57288 0.0
C1943 C 0.76224 0.12998 0.61513 0.0
C1944 C 0.77288 0.20431 0.64643 0.0
C1945 C 0.75045 0.2063 0.6556 0.0
C1946 C 0.77558 0.19246 0.62624 0.0
C1947 C 0.7553 0.18267 0.61479 0.0
C1948 C 0.73251 0.1851 0.62374 0.0
C1949 C 0.73038 0.19668 0.64421 0.0
C1950 C 0.80022 0.18984 0.61746 0.0
C1951 C 0.71043 0.17525 0.6118 0.0
H1952 H 0.75958 0.17816 0.53856 0.0
H1953 H 0.76528 0.11172 0.57408 0.0
H1954 H 0.7368 0.2133 0.58013 0.0
H1955 H 0.76821 0.21822 0.58283 0.0
H1956 H 0.7541 0.21566 0.55588 0.0
H1957 H 0.76558 0.11041 0.61244 0.0
H1958 H 0.77655 0.13756 0.62628 0.0
H1959 H 0.74523 0.13191 0.62362 0.0
H1960 H 0.78846 0.21142 0.65543 0.0
H1961 H 0.71306 0.19828 0.65131 0.0
H1962 H 0.8009 0.19767 0.60084 0.0
H1963 H 0.8046 0.17038 0.61589 0.0
H1964 H 0.81409 0.19887 0.62822 0.0
H1965 H 0.70911 0.1826 0.59496 0.0
H1966 H 0.69394 0.17978 0.62041 0.0
H1967 H 0.71152 0.15528 0.61019 0.0
C1968 C 0.59871 0.01034 0.36519 0.0
C1969 C 0.58658 0.01293 0.34497 0.0
C1970 C 0.58611 0.0069 0.38436 0.0
C1971 C 0.56094 0.00515 0.38294 0.0
C1972 C 0.54875 0.00656 0.36234 0.0
C1973 C 0.56173 0.01089 0.3436 0.0
C1974 C 0.59964 0.00617 0.40618 0.0
C1975 C 0.52199 0.00406 0.36016 0.0
C1976 C 0.53207 0.98097 0.43354 0.0
C1977 C 0.5254 0.00251 0.44388 0.0
C1978 C 0.54266 0.98139 0.41307 0.0
C1979 C 0.54729 0.00392 0.40321 0.0
C1980 C 0.53983 0.02563 0.41325 0.0
C1981 C 0.52862 0.02462 0.43331 0.0
C1982 C 0.54973 0.95785 0.40241 0.0
C1983 C 0.54493 0.05007 0.40348 0.0
H1984 H 0.61796 0.01195 0.36612 0.0
H1985 H 0.55245 0.01253 0.32781 0.0
H1986 H 0.59434 0.02164 0.41666 0.0
H1987 H 0.59517 0.98936 0.41495 0.0
H1988 H 0.61921 0.00707 0.40436 0.0
H1989 H 0.51554 0.003 0.34274 0.0
H1990 H 0.51592 0.9876 0.36866 0.0
H1991 H 0.51358 0.01981 0.3681 0.0
H1992 H 0.52958 0.96387 0.44173 0.0
H1993 H 0.52377 0.04136 0.44137 0.0
H1994 H 0.5694 0.95652 0.40273 0.0
H1995 H 0.54347 0.9572 0.38495 0.0
H1996 H 0.54239 0.94189 0.41087 0.0
H1997 H 0.56445 0.05295 0.40281 0.0
H1998 H 0.53737 0.06517 0.41312 0.0
H1999 H 0.53751 0.05082 0.38642 0.0
C2000 C 0.78439 0.85832 0.0825 0.0
C2001 C 0.76267 0.84879 0.07405 0.0
C2002 C 0.79371 0.85115 0.10298 0.0
C2003 C 0.78077 0.83439 0.11532 0.0
C2004 C 0.75879 0.82479 0.10689 0.0
C2005 C 0.75008 0.832 0.08624 0.0
C2006 C 0.81735 0.86145 0.11138 0.0
C2007 C 0.74437 0.80703 0.11976 0.0
C2008 C 0.80646 0.79546 0.16033 0.0
C2009 C 0.79751 0.80691 0.17888 0.0
C2010 C 0.80286 0.80534 0.13946 0.0
C2011 C 0.78979 0.82695 0.13726 0.0
C2012 C 0.78251 0.83962 0.15614 0.0
C2013 C 0.78656 0.82945 0.1768 0.0
C2014 C 0.81131 0.7916 0.1197 0.0
C2015 C 0.76847 0.8627 0.15442 0.0
H2016 H 0.79427 0.87118 0.07299 0.0
H2017 H 0.73328 0.82467 0.07974 0.0
H2018 H 0.81503 0.87152 0.127 0.0
H2019 H 0.82993 0.84656 0.11494 0.0
H2020 H 0.82545 0.87383 0.09947 0.0
H2021 H 0.72754 0.80149 0.11092 0.0
H2022 H 0.75495 0.79059 0.12316 0.0
H2023 H 0.73996 0.81519 0.13581 0.0
H2024 H 0.81515 0.77813 0.16202 0.0
H2025 H 0.77945 0.83822 0.19113 0.0
H2026 H 0.81952 0.80409 0.10797 0.0
H2027 H 0.79586 0.78262 0.11104 0.0
H2028 H 0.82442 0.7775 0.12435 0.0
H2029 H 0.77671 0.87535 0.14285 0.0
H2030 H 0.76711 0.87201 0.17058 0.0
H2031 H 0.75021 0.85842 0.1479 0.0
C2032 C 0.90006 0.97673 0.69829 0.0
C2033 C 0.91449 0.97761 0.7175 0.0
C2034 C 0.91009 0.97412 0.67768 0.0
C2035 C 0.93506 0.97188 0.67639 0.0
C2036 C 0.94958 0.97172 0.69581 0.0
C2037 C 0.93913 0.97484 0.71615 0.0
C2038 C 0.89411 0.97481 0.65728 0.0
C2039 C 0.97624 0.96899 0.69507 0.0
C2040 C 0.96092 0.95026 0.62296 0.0
C2041 C 0.96878 0.97217 0.61433 0.0
C2042 C 0.94986 0.9498 0.64324 0.0
C2043 C 0.94623 0.97182 0.65473 0.0
C2044 C 0.95371 -0.006 0.64577 0.0
C2045 C 0.96507 -0.00613 0.62575 0.0
C2046 C 0.94241 0.92581 0.65252 0.0
C2047 C 0.94979 0.0179 0.65735 0.0
H2048 H 0.88099 0.9789 0.69932 0.0
H2049 H 0.95029 0.97523 0.73102 0.0
H2050 H 0.89829 0.99121 0.64777 0.0
H2051 H 0.89732 0.95889 0.64655 0.0
H2052 H 0.87496 0.97508 0.66115 0.0
H2053 H 0.98468 0.96695 0.71168 0.0
H2054 H 0.98066 0.95301 0.68485 0.0
H2055 H 0.98414 0.98513 0.68737 0.0
H2056 H 0.96386 0.93352 0.61404 0.0
H2057 H 0.97086 0.01084 0.61882 0.0
H2058 H 0.92308 0.92576 0.65554 0.0
H2059 H 0.95185 0.92302 0.66856 0.0
H2060 H 0.9463 0.91037 0.64141 0.0
H2061 H 0.93062 0.02009 0.66052 0.0
H2062 H 0.95586 0.03357 0.6477 0.0
H2063 H 0.95953 0.01827 0.67349 0.0
C2064 C 0.77632 0.20067 0.42856 0.0
C2065 C 0.77392 0.17564 0.42478 0.0
C2066 C 0.77813 0.21673 0.41099 0.0
C2067 C 0.7774 0.20749 0.38922 0.0
C2068 C 0.77502 0.18225 0.38535 0.0
C2069 C 0.77338 0.16666 0.40317 0.0
C2070 C 0.78075 0.24353 0.41569 0.0
C2071 C 0.77407 0.17164 0.36235 0.0
C2072 C 0.75962 0.2428 0.33868 0.0
C2073 C 0.78152 0.24492 0.3285 0.0
C2074 C 0.75818 0.23228 0.35941 0.0
C2075 C 0.77915 0.2239 0.37022 0.0
C2076 C 0.80151 0.22814 0.36096 0.0
C2077 C 0.80243 0.23858 0.34017 0.0
C2078 C 0.73399 0.22819 0.36878 0.0
C2079 C 0.82431 0.21975 0.37208 0.0
H2080 H 0.77674 0.20773 0.44524 0.0
H2081 H 0.77146 0.14736 0.4001 0.0
H2082 H 0.79731 0.25055 0.40857 0.0
H2083 H 0.76569 0.25333 0.40779 0.0
H2084 H 0.78129 0.24779 0.43356 0.0
H2085 H 0.77216 0.15161 0.36222 0.0
H2086 H 0.75884 0.17927 0.35277 0.0
H2087 H 0.79051 0.17652 0.35382 0.0
H2088 H 0.74338 0.24776 0.32983 0.0
H2089 H 0.81946 0.24042 0.33252 0.0
H2090 H 0.7343 0.23274 0.38655 0.0
H2091 H 0.72898 0.20877 0.36692 0.0
H2092 H 0.72004 0.23907 0.3603 0.0
H2093 H 0.82472 0.22445 0.38983 0.0
H2094 H 0.84027 0.22779 0.36463 0.0
H2095 H 0.82537 0.19976 0.37059 0.0
C2096 C 0.59398 0.0126 0.22301 0.0
C2097 C 0.61844 0.00818 0.22533 0.0
C2098 C 0.58336 0.01743 0.2025 0.0
C2099 C 0.59754 0.01774 0.18381 0.0
C2100 C 0.62231 0.01365 0.18602 0.0
C2101 C 0.63252 0.00889 0.20683 0.0
C2102 C 0.55685 0.02164 0.20077 0.0
C2103 C 0.63788 0.01382 0.16635 0.0
C2104 C 0.56319 0.00271 0.1311 0.0
C2105 C 0.5588 0.02576 0.12265 0.0
C2106 C 0.57663 -0.00016 0.15057 0.0
C2107 C 0.58589 0.02056 0.16187 0.0
C2108 C 0.58218 0.04388 0.15309 0.0
C2109 C 0.56869 0.04621 0.13344 0.0
C2110 C 0.5803 0.97466 0.15936 0.0
C2111 C 0.5918 0.06633 0.1648 0.0
H2112 H 0.58301 0.01221 0.23726 0.0
H2113 H 0.65145 0.0056 0.2086 0.0
H2114 H 0.55315 0.03899 0.19245 0.0
H2115 H 0.54809 0.00702 0.19067 0.0
H2116 H 0.54863 0.02208 0.21707 0.0
H2117 H 0.65703 0.01185 0.17104 0.0
H2118 H 0.63251 -0.00124 0.15496 0.0
H2119 H 0.63554 0.03091 0.15723 0.0
H2120 H 0.55609 0.98682 0.12242 0.0
H2121 H 0.56541 0.064 0.12678 0.0
H2122 H 0.57117 0.97282 0.17511 0.0
H2123 H 0.5995 0.97145 0.16276 0.0
H2124 H 0.57328 0.96039 0.14779 0.0
H2125 H 0.58279 0.06874 0.18057 0.0
H2126 H 0.58909 0.08287 0.1549 0.0
H2127 H 0.6111 0.06444 0.16876 0.0
C2128 C 0.71006 0.79704 0.95869 0.0
C2129 C 0.71665 0.81911 0.9494 0.0
C2130 C 0.70797 0.77583 0.94577 0.0
C2131 C 0.71349 0.77674 0.92334 0.0
C2132 C 0.71932 0.7992 0.91379 0.0
C2133 C 0.72046 0.82012 0.92689 0.0
C2134 C 0.7008 0.75253 0.95647 0.0
C2135 C 0.72561 0.80107 0.88994 0.0
C2136 C 0.7433 0.73037 0.88947 0.0
C2137 C 0.72649 0.72822 0.87206 0.0
C2138 C 0.73812 0.7436 0.9084 0.0
C2139 C 0.71552 0.75442 0.90983 0.0
C2140 C 0.69727 0.74848 0.89407 0.0
C2141 C 0.70311 0.73575 0.875 0.0
C2142 C 0.75795 0.74908 0.92511 0.0
C2143 C 0.67251 0.75832 0.89589 0.0
H2144 H 0.70683 0.79625 0.97609 0.0
H2145 H 0.72557 0.83713 0.91964 0.0
H2146 H 0.69191 0.7397 0.94458 0.0
H2147 H 0.71689 0.74373 0.96357 0.0
H2148 H 0.68865 0.75608 0.9701 0.0
H2149 H 0.73011 0.81989 0.88527 0.0
H2150 H 0.74108 0.78945 0.8866 0.0
H2151 H 0.71049 0.79459 0.87918 0.0
H2152 H 0.76137 0.72437 0.8872 0.0
H2153 H 0.69001 0.73366 0.86162 0.0
H2154 H 0.75143 0.74775 0.94199 0.0
H2155 H 0.76452 0.76788 0.9229 0.0
H2156 H 0.77315 0.73659 0.92339 0.0
H2157 H 0.66719 0.75876 0.91325 0.0
H2158 H 0.65932 0.74731 0.88598 0.0
H2159 H 0.67208 0.77712 0.88974 0.0
C2160 C 0.82558 0.87975 -0.00044 0.0
C2161 C 0.81323 0.89381 0.98398 0.0
C2162 C 0.84862 0.88622 0.00705 0.0
C2163 C 0.85942 0.90722 -0.00126 0.0
C2164 C 0.84807 0.91993 0.98134 0.0
C2165 C 0.82506 0.91298 0.97408 0.0
C2166 C 0.86037 0.87191 0.02527 0.0
C2167 C 0.85924 0.94226 0.97184 0.0
C2168 C 0.89658 0.94946 0.03522 0.0
C2169 C 0.9191 0.94655 0.02658 0.0
C2170 C 0.87719 0.93547 0.02726 0.0
C2171 C 0.88054 0.9182 0.0103 0.0
C2172 C 0.90364 0.91368 0.00293 0.0
C2173 C 0.92272 0.92801 0.01115 0.0
C2174 C 0.85282 0.94053 0.0358 0.0
C2175 C 0.90794 0.89512 0.98517 0.0
H2176 H 0.81669 0.86458 0.00701 0.0
H2177 H 0.81571 0.92377 0.96189 0.0
H2178 H 0.85228 0.85357 0.02651 0.0
H2179 H 0.87972 0.87006 0.02278 0.0
H2180 H 0.85825 0.88158 0.04113 0.0
H2181 H 0.8495 0.94829 0.95675 0.0
H2182 H 0.85923 0.95722 0.98416 0.0
H2183 H 0.87802 0.93888 0.96787 0.0
H2184 H 0.89389 0.96359 0.04735 0.0
H2185 H 0.9401 0.92583 0.00429 0.0
H2186 H 0.84395 0.92344 0.0405 0.0
H2187 H 0.84156 0.94883 0.02268 0.0
H2188 H 0.85361 0.953 0.05026 0.0
H2189 H 0.89757 0.87829 0.98784 0.0
H2190 H 0.92709 0.89054 0.98437 0.0
H2191 H 0.902 0.90239 0.96905 0.0
C2192 C 0.33236 0.54187 0.9854 0.0
C2193 C 0.32785 0.56667 0.98765 0.0
C2194 C 0.35574 0.53324 0.98547 0.0
C2195 C 0.37504 0.54975 0.98846 0.0
C2196 C 0.3706 0.57489 0.99007 0.0
C2197 C 0.34703 0.58307 0.98937 0.0
C2198 C 0.35975 0.50637 0.98315 0.0
C2199 C 0.39067 0.59303 -0.00627 0.0
C2200 C 0.43088 0.52587 0.01686 0.0
C2201 C 0.44647 0.524 -0.0005 0.0
C2202 C 0.40768 0.53435 0.01345 0.0
C2203 C 0.39963 0.54059 -0.00797 0.0
C2204 C 0.4151 0.53823 0.9743 0.0
C2205 C 0.43849 0.53025 0.9783 0.0
C2206 C 0.39192 0.53705 0.03288 0.0
C2207 C 0.40693 0.54415 0.95117 0.0
H2208 H 0.31756 0.52915 0.98383 0.0
H2209 H 0.34362 0.60225 -0.00879 0.0
H2210 H 0.37324 0.50275 0.97071 0.0
H2211 H 0.36674 0.49917 -0.00102 0.0
H2212 H 0.34312 0.49632 0.97834 0.0
H2213 H 0.38436 0.612 -0.00684 0.0
H2214 H 0.39953 0.59004 0.01 0.0
H2215 H 0.40428 0.59057 0.9812 0.0
H2216 H 0.43703 0.5213 0.03333 0.0
H2217 H 0.45049 0.52875 0.96482 0.0
H2218 H 0.37572 0.52558 0.03042 0.0
H2219 H 0.38603 0.55608 0.03439 0.0
H2220 H 0.40109 0.5319 0.04854 0.0
H2221 H 0.39073 0.53339 0.94644 0.0
H2222 H 0.42082 0.54044 0.93909 0.0
H2223 H 0.4021 0.56352 0.9502 0.0
C2224 C 0.1766 0.59516 0.80656 0.0
C2225 C 0.18223 0.57198 0.79895 0.0
C2226 C 0.19163 0.61499 0.80284 0.0
C2227 C 0.21231 0.61159 0.79061 0.0
C2228 C 0.21868 0.58802 0.78385 0.0
C2229 C 0.20368 0.56841 0.78837 0.0
C2230 C 0.18468 0.63977 0.81097 0.0
C2231 C 0.24035 0.58374 0.77045 0.0
C2232 C 0.22804 0.66662 0.75763 0.0
C2233 C 0.24718 0.67646 0.77011 0.0
C2234 C 0.21743 0.64471 0.76349 0.0
C2235 C 0.22562 0.63297 0.78281 0.0
C2236 C 0.2454 0.64257 0.79517 0.0
C2237 C 0.25621 0.66411 0.78845 0.0
C2238 C 0.19679 0.63471 0.74953 0.0
C2239 C 0.25413 0.63107 0.81623 0.0
H2240 H 0.16011 0.5979 0.81489 0.0
H2241 H 0.208 0.5505 0.78232 0.0
H2242 H 0.2002 0.64917 0.81913 0.0
H2243 H 0.17874 0.65093 0.79685 0.0
H2244 H 0.17003 0.63885 0.82269 0.0
H2245 H 0.24416 0.56417 0.76841 0.0
H2246 H 0.23746 0.59164 0.75395 0.0
H2247 H 0.25623 0.59287 0.77822 0.0
H2248 H 0.22103 0.6764 0.74356 0.0
H2249 H 0.2707 0.67215 0.79836 0.0
H2250 H 0.18016 0.63603 0.7587 0.0
H2251 H 0.19957 0.61528 0.74567 0.0
H2252 H 0.19431 0.64461 0.73389 0.0
H2253 H 0.24085 0.63396 0.82902 0.0
H2254 H 0.27145 0.63889 0.82232 0.0
H2255 H 0.25607 0.61125 0.814 0.0
C2256 C 0.16209 0.42698 0.54712 0.0
C2257 C 0.18398 0.43315 0.53839 0.0
C2258 C 0.14307 0.44304 0.54601 0.0
C2259 C 0.1462 0.46578 0.536 0.0
C2260 C 0.16891 0.47305 0.52917 0.0
C2261 C 0.18763 0.45656 0.53043 0.0
C2262 C 0.11913 0.43481 0.55383 0.0
C2263 C 0.173 0.49736 0.51888 0.0
C2264 C 0.08904 0.48249 0.50671 0.0
C2265 C 0.0783 0.49632 0.52293 0.0
C2266 C 0.11227 0.47418 0.50996 0.0
C2267 C 0.12492 0.47996 0.52986 0.0
C2268 C 0.11516 0.49613 0.54517 0.0
C2269 C 0.09185 0.50416 0.54151 0.0
C2270 C 0.12232 0.45728 0.49304 0.0
C2271 C 0.12836 0.50313 0.56632 0.0
H2272 H 0.15935 0.40904 0.55363 0.0
H2273 H 0.20468 0.46154 0.52395 0.0
H2274 H 0.11135 0.44893 0.5644 0.0
H2275 H 0.1067 0.4318 0.53948 0.0
H2276 H 0.12029 0.41773 0.56319 0.0
H2277 H 0.1922 0.50237 0.51917 0.0
H2278 H 0.16639 0.49668 0.50153 0.0
H2279 H 0.16313 0.51177 0.5274 0.0
H2280 H 0.07879 0.47676 0.49214 0.0
H2281 H 0.08376 0.51521 0.55398 0.0
H2282 H 0.12276 0.43863 0.49956 0.0
H2283 H 0.14084 0.46261 0.48949 0.0
H2284 H 0.11153 0.45701 0.47743 0.0
H2285 H 0.12667 0.48827 0.57824 0.0
H2286 H 0.12103 0.51981 0.57374 0.0
H2287 H 0.14759 0.50604 0.56367 0.0
C2288 C 0.84341 0.90849 0.79659 0.0
C2289 C 0.86771 0.91149 0.8019 0.0
C2290 C 0.83245 0.88563 0.79767 0.0
C2291 C 0.84611 0.86553 0.80452 0.0
C2292 C 0.87001 0.86902 0.81202 0.0
C2293 C 0.88059 0.89195 0.81044 0.0
C2294 C 0.80694 0.88262 0.78945 0.0
C2295 C 0.88498 0.84814 0.81994 0.0
C2296 C 0.81508 0.80453 0.81019 0.0
C2297 C 0.81934 0.79378 0.78975 0.0
C2298 C 0.82394 0.82784 0.81551 0.0
C2299 C 0.83701 0.84063 0.79989 0.0
C2300 C 0.84146 0.82973 0.77933 0.0
C2301 C 0.83272 0.80642 0.7746 0.0
C2302 C 0.81928 0.83879 0.83773 0.0
C2303 C 0.85526 0.8428 0.76214 0.0
H2304 H 0.83336 0.92358 0.79007 0.0
H2305 H 0.8993 0.89433 0.81497 0.0
H2306 H 0.80656 0.87381 0.77297 0.0
H2307 H 0.79686 0.87078 0.80044 0.0
H2308 H 0.79776 0.90026 0.78808 0.0
H2309 H 0.9019 0.8544 0.82823 0.0
H2310 H 0.87502 0.83686 0.83149 0.0
H2311 H 0.88937 0.83641 0.80578 0.0
H2312 H 0.80488 0.79473 0.82202 0.0
H2313 H 0.83606 0.79825 0.75876 0.0
H2314 H 0.80891 0.85562 0.83575 0.0
H2315 H 0.83636 0.84384 0.84633 0.0
H2316 H 0.80934 0.82621 0.84823 0.0
H2317 H 0.84641 0.86006 0.75793 0.0
H2318 H 0.8568 0.83186 0.74686 0.0
H2319 H 0.87344 0.84733 0.76868 0.0
C2320 C 0.67792 0.10703 0.49416 0.0
C2321 C 0.69341 0.09592 0.4797 0.0
C2322 C 0.65645 0.0958 0.49941 0.0
C2323 C 0.65011 0.07322 0.48954 0.0
C2324 C 0.66535 0.06224 0.47443 0.0
C2325 C 0.68702 0.07361 0.4699 0.0
C2326 C 0.64078 0.10787 0.51584 0.0
C2327 C 0.6588 0.0385 0.46312 0.0
C2328 C 0.60469 0.03348 0.51699 0.0
C2329 C 0.58373 0.03999 0.50565 0.0
C2330 C 0.62652 0.04433 0.51204 0.0
C2331 C 0.62731 0.06131 0.49485 0.0
C2332 C 0.6062 0.06739 0.483 0.0
C2333 C 0.5846 0.05694 0.4888 0.0
C2334 C 0.64864 0.03789 0.52535 0.0
C2335 C 0.60644 0.0848 0.46411 0.0
H2336 H 0.68291 0.12418 0.50194 0.0
H2337 H 0.69898 0.06505 0.45868 0.0
H2338 H 0.6231 0.11167 0.50809 0.0
H2339 H 0.63783 0.09555 0.52973 0.0
H2340 H 0.6486 0.12513 0.52244 0.0
H2341 H 0.67227 0.03279 0.45126 0.0
H2342 H 0.65695 0.0241 0.47546 0.0
H2343 H 0.64133 0.04002 0.45422 0.0
H2344 H 0.60391 0.0203 0.52997 0.0
H2345 H 0.56837 0.06158 0.47974 0.0
H2346 H 0.65661 0.05446 0.53318 0.0
H2347 H 0.6621 0.03017 0.51448 0.0
H2348 H 0.64492 0.02462 0.53836 0.0
H2349 H 0.61253 0.10295 0.47008 0.0
H2350 H 0.58862 0.08657 0.45587 0.0
H2351 H 0.61918 0.07862 0.45178 0.0
C2352 C 0.18151 0.40659 0.78155 0.0
C2353 C 0.19238 0.4288 0.78737 0.0
C2354 C 0.19501 0.38563 0.77923 0.0
C2355 C 0.21997 0.38688 0.78308 0.0
C2356 C 0.23108 0.40922 0.78904 0.0
C2357 C 0.21714 0.42999 0.791 0.0
C2358 C 0.18257 0.36213 0.77265 0.0
C2359 C 0.25762 0.41111 0.7935 0.0
C2360 C 0.24796 0.32666 0.79647 0.0
C2361 C 0.25624 0.31946 0.776 0.0
C2362 C 0.2371 0.34914 0.79927 0.0
C2363 C 0.23425 0.36461 0.78109 0.0
C2364 C 0.24344 0.35787 0.7606 0.0
C2365 C 0.25447 0.33539 0.75833 0.0
C2366 C 0.22779 0.35586 0.82144 0.0
C2367 C 0.24057 0.37386 0.74082 0.0
H2368 H 0.16239 0.4056 0.77861 0.0
H2369 H 0.22561 0.44713 0.79555 0.0
H2370 H 0.19015 0.35473 0.75744 0.0
H2371 H 0.18548 0.34854 0.78566 0.0
H2372 H 0.1631 0.36437 0.76978 0.0
H2373 H 0.2635 0.42986 0.79791 0.0
H2374 H 0.26296 0.39898 0.80711 0.0
H2375 H 0.26718 0.40509 0.77882 0.0
H2376 H 0.24948 0.3145 0.81024 0.0
H2377 H 0.26083 0.32989 0.74246 0.0
H2378 H 0.20806 0.3562 0.82045 0.0
H2379 H 0.23409 0.37427 0.82649 0.0
H2380 H 0.23343 0.34291 0.83434 0.0
H2381 H 0.22144 0.37504 0.73591 0.0
H2382 H 0.25038 0.3669 0.72659 0.0
H2383 H 0.24699 0.3925 0.74485 0.0
C2384 C 0.33374 0.57585 0.29489 0.0
C2385 C 0.35775 0.57734 0.2895 0.0
C2386 C 0.31924 0.59635 0.29409 0.0
C2387 C 0.32896 0.61871 0.2875 0.0
C2388 C 0.35317 0.62029 0.28199 0.0
C2389 C 0.36732 0.5996 0.28319 0.0
C2390 C 0.29356 0.59409 0.30029 0.0
C2391 C 0.36409 0.64379 0.27463 0.0
C2392 C 0.28948 0.66764 0.26388 0.0
C2393 C 0.28962 0.68456 0.28124 0.0
C2394 C 0.30157 0.64572 0.26594 0.0
C2395 C 0.31384 0.64048 0.28594 0.0
C2396 C 0.31302 0.6569 0.30391 0.0
C2397 C 0.30101 0.67885 0.3013 0.0
C2398 C 0.30219 0.62872 0.24637 0.0
C2399 C 0.32562 0.65173 0.32558 0.0
H2400 H 0.32629 0.5587 0.29988 0.0
H2401 H 0.38584 0.60082 0.27895 0.0
H2402 H 0.28992 0.607 0.31382 0.0
H2403 H 0.28168 0.59886 0.28613 0.0
H2404 H 0.28889 0.57553 0.30557 0.0
H2405 H 0.38318 0.64193 0.27087 0.0
H2406 H 0.35433 0.65029 0.25975 0.0
H2407 H 0.36253 0.65791 0.28759 0.0
H2408 H 0.28072 0.67192 0.24831 0.0
H2409 H 0.30105 0.69178 0.31483 0.0
H2410 H 0.29671 0.6102 0.25103 0.0
H2411 H 0.32065 0.62764 0.2406 0.0
H2412 H 0.29039 0.63468 0.23252 0.0
H2413 H 0.32068 0.63343 0.33129 0.0
H2414 H 0.32139 0.66522 0.3385 0.0
H2415 H 0.34515 0.65196 0.32351 0.0
C2416 C 0.56225 0.63326 0.65004 0.0
C2417 C 0.54723 0.65328 0.65071 0.0
C2418 C 0.55647 0.61334 0.63627 0.0
C2419 C 0.53521 0.61365 0.6231 0.0
C2420 C 0.51902 0.63281 0.62533 0.0
C2421 C 0.52526 0.65243 0.63909 0.0
C2422 C 0.574 0.59298 0.63447 0.0
C2423 C 0.49607 0.63369 0.61173 0.0
C2424 C 0.53759 0.58664 0.5661 0.0
C2425 C 0.52499 0.56486 0.56823 0.0
C2426 C 0.54107 0.60254 0.58394 0.0
C2427 C 0.53179 0.59644 0.60444 0.0
C2428 C 0.51873 0.57465 0.60668 0.0
C2429 C 0.51538 0.55908 0.58844 0.0
C2430 C 0.55484 0.62582 0.58083 0.0
C2431 C 0.50877 0.56758 0.62838 0.0
H2432 H 0.57915 0.63378 0.65917 0.0
H2433 H 0.51333 0.66767 0.63997 0.0
H2434 H 0.56469 0.57518 0.63411 0.0
H2435 H 0.58346 0.59462 0.61888 0.0
H2436 H 0.58745 0.59335 0.64827 0.0
H2437 H 0.48395 0.64787 0.61773 0.0
H2438 H 0.50012 0.63766 0.59445 0.0
H2439 H 0.48663 0.61597 0.61179 0.0
H2440 H 0.54503 0.59115 0.55048 0.0
H2441 H 0.5059 0.54207 0.59019 0.0
H2442 H 0.57063 0.62659 0.59225 0.0
H2443 H 0.54357 0.64156 0.58472 0.0
H2444 H 0.56096 0.62772 0.56381 0.0
H2445 H 0.52355 0.56509 0.64065 0.0
H2446 H 0.4981 0.55054 0.6271 0.0
H2447 H 0.4974 0.58219 0.6347 0.0
C2448 C 0.59931 0.25466 0.83581 0.0
C2449 C 0.59841 0.24254 0.85583 0.0
C2450 C 0.62001 0.25451 0.82353 0.0
C2451 C 0.64002 0.24122 0.83106 0.0
C2452 C 0.63894 0.2284 0.85099 0.0
C2453 C 0.6183 0.22957 0.86333 0.0
C2454 C 0.62068 0.26912 0.80281 0.0
C2455 C 0.65962 0.21349 0.85932 0.0
C2456 C 0.68735 0.22565 0.78986 0.0
C2457 C 0.70554 0.24214 0.79603 0.0
C2458 C 0.66598 0.22493 0.80125 0.0
C2459 C 0.66247 0.24166 0.81866 0.0
C2460 C 0.68059 0.25881 0.82444 0.0
C2461 C 0.70201 0.25855 0.81332 0.0
C2462 C 0.6474 0.20593 0.795 0.0
C2463 C 0.67737 0.27749 0.84237 0.0
H2464 H 0.58401 0.26484 0.83004 0.0
H2465 H 0.61757 0.22002 0.87871 0.0
H2466 H 0.63511 0.28296 0.80441 0.0
H2467 H 0.62471 0.25726 0.78864 0.0
H2468 H 0.6036 0.27842 0.79915 0.0
H2469 H 0.65529 0.20312 0.87418 0.0
H2470 H 0.66503 0.2006 0.84636 0.0
H2471 H 0.67515 0.22546 0.86339 0.0
H2472 H 0.69013 0.21284 0.7766 0.0
H2473 H 0.71598 0.27149 0.81799 0.0
H2474 H 0.63041 0.21465 0.79007 0.0
H2475 H 0.64386 0.19451 0.80939 0.0
H2476 H 0.65295 0.19405 0.7813 0.0
H2477 H 0.66089 0.28787 0.83896 0.0
H2478 H 0.69263 0.2904 0.84401 0.0
H2479 H 0.67534 0.26842 0.85832 0.0
C2480 C 0.08121 0.3123 0.15396 0.0
C2481 C 0.06365 0.29467 0.14902 0.0
C2482 C 0.08198 0.33397 0.14221 0.0
C2483 C 0.06448 0.33822 0.1255 0.0
C2484 C 0.04612 0.3209 0.12112 0.0
C2485 C 0.04608 0.29921 0.13278 0.0
C2486 C 0.10201 0.35186 0.14711 0.0
C2487 C 0.02684 0.32501 0.10374 0.0
C2488 C 0.05352 0.40163 0.10468 0.0
C2489 C 0.06413 0.40069 0.08422 0.0
C2490 C 0.05401 0.38163 0.11858 0.0
C2491 C 0.0657 0.36034 0.11197 0.0
C2492 C 0.07731 0.35967 0.09173 0.0
C2493 C 0.07616 0.3798 0.07796 0.0
C2494 C 0.04107 0.3829 0.13984 0.0
C2495 C 0.09034 0.33743 0.08431 0.0
H2496 H 0.09496 0.30874 0.16637 0.0
H2497 H 0.03243 0.28564 0.129 0.0
H2498 H 0.11307 0.3536 0.13249 0.0
H2499 H 0.09478 0.37002 0.15071 0.0
H2500 H 0.11362 0.34632 0.16124 0.0
H2501 H 0.01299 0.3105 0.10337 0.0
H2502 H 0.01815 0.34264 0.10665 0.0
H2503 H 0.03476 0.32576 0.08736 0.0
H2504 H 0.04391 0.41769 0.10938 0.0
H2505 H 0.08442 0.37914 0.06217 0.0
H2506 H 0.05303 0.37762 0.15377 0.0
H2507 H 0.02587 0.36989 0.13913 0.0
H2508 H 0.03416 0.40128 0.14323 0.0
H2509 H 0.10318 0.33159 0.09738 0.0
H2510 H 0.10012 0.34057 0.06908 0.0
H2511 H 0.07746 0.32231 0.08121 0.0
C2512 C 0.94298 0.74603 0.32786 0.0
C2513 C 0.9504 0.75015 0.34977 0.0
C2514 C 0.91873 0.74528 0.32159 0.0
C2515 C 0.90148 0.7497 0.3375 0.0
C2516 C 0.90887 0.75349 0.35976 0.0
C2517 C 0.93329 0.75326 0.3657 0.0
C2518 C 0.91162 0.74025 0.29784 0.0
C2519 C 0.8911 0.75888 0.3771 0.0
C2520 C 0.84386 0.77447 0.31286 0.0
C2521 C 0.82886 0.75411 0.31299 0.0
C2522 C 0.86711 0.77363 0.32199 0.0
C2523 C 0.8759 0.75156 0.33046 0.0
C2524 C 0.86069 0.73096 0.3307 0.0
C2525 C 0.83713 0.73265 0.3224 0.0
C2526 C 0.88246 0.79622 0.32207 0.0
C2527 C 0.86965 0.70686 0.33866 0.0
H2528 H 0.95622 0.74343 0.31556 0.0
H2529 H 0.93905 0.75667 0.38262 0.0
H2530 H 0.89783 0.72573 0.2966 0.0
H2531 H 0.9038 0.75671 0.29044 0.0
H2532 H 0.92698 0.73471 0.28804 0.0
H2533 H 0.89964 0.7607 0.39375 0.0
H2534 H 0.8818 0.77598 0.37314 0.0
H2535 H 0.87736 0.74435 0.37734 0.0
H2536 H 0.83735 0.79106 0.30562 0.0
H2537 H 0.82554 0.71683 0.32224 0.0
H2538 H 0.89704 0.79387 0.31047 0.0
H2539 H 0.89079 0.79949 0.33863 0.0
H2540 H 0.87216 0.81246 0.31724 0.0
H2541 H 0.88473 0.70098 0.32868 0.0
H2542 H 0.8556 0.69259 0.33759 0.0
H2543 H 0.87642 0.70849 0.35591 0.0
C2544 C 0.53675 0.32862 0.9425 0.0
C2545 C 0.52794 0.32836 0.92072 0.0
C2546 C 0.53405 0.34912 0.95612 0.0
C2547 C 0.52149 0.36941 0.94796 0.0
C2548 C 0.51168 0.36871 0.92625 0.0
C2549 C 0.51539 0.34839 0.91279 0.0
C2550 C 0.54545 0.34945 0.9789 0.0
C2551 C 0.49761 0.38963 0.91706 0.0
C2552 C 0.4999 0.41798 0.98748 0.0
C2553 C 0.51627 0.43674 0.98412 0.0
C2554 C 0.50138 0.39582 0.97593 0.0
C2555 C 0.52016 0.39214 0.96134 0.0
C2556 C 0.53721 0.4108 0.95861 0.0
C2557 C 0.53482 0.43296 0.96973 0.0
C2558 C 0.48246 0.37666 0.97878 0.0
C2559 C 0.55791 0.40748 0.94376 0.0
H2560 H 0.54652 0.31316 0.94862 0.0
H2561 H 0.50826 0.34809 0.89603 0.0
H2562 H 0.55946 0.36376 0.98009 0.0
H2563 H 0.53211 0.35391 -0.00875 0.0
H2564 H 0.55365 0.33185 0.98316 0.0
H2565 H 0.48909 0.38522 0.90076 0.0
H2566 H 0.48358 0.39492 0.92847 0.0
H2567 H 0.50952 0.40556 0.91529 0.0
H2568 H 0.48555 0.42092 -0.00142 0.0
H2569 H 0.54772 0.44733 0.96735 0.0
H2570 H 0.49072 0.35939 0.98384 0.0
H2571 H 0.47276 0.37318 0.96287 0.0
H2572 H 0.46943 0.38203 -0.00883 0.0
H2573 H 0.56753 0.39065 0.94796 0.0
H2574 H 0.57071 0.42294 0.94495 0.0
H2575 H 0.55127 0.40561 0.92647 0.0
C2576 C 0.02104 0.18908 0.2526 0.0
C2577 C 0.03043 0.20932 0.24211 0.0
C2578 C -0.00158 0.18988 0.26155 0.0
C2579 C 0.9852 0.21146 0.26011 0.0
C2580 C -0.00406 0.23274 0.25215 0.0
C2581 C 0.01844 0.23138 0.24312 0.0
C2582 C 0.98771 0.16689 0.27019 0.0
C2583 C 0.98264 0.2563 0.25087 0.0
C2584 C 0.91958 0.20805 0.24498 0.0
C2585 C 0.90929 0.21479 0.2647 0.0
C2586 C 0.94423 0.2058 0.24366 0.0
C2587 C 0.95906 0.21072 0.26248 0.0
C2588 C 0.94882 0.21658 0.28269 0.0
C2589 C 0.924 0.21848 0.28358 0.0
C2590 C 0.95445 0.19924 0.22179 0.0
C2591 C 0.96406 0.2219 0.30309 0.0
H2592 H 0.03032 0.172 0.25207 0.0
H2593 H 0.02585 0.24721 0.23542 0.0
H2594 H 0.97708 0.17065 0.28481 0.0
H2595 H 0.97557 0.15867 0.25735 0.0
H2596 H 0.0016 0.15348 0.27459 0.0
H2597 H -0.00528 0.27187 0.24791 0.0
H2598 H 0.96912 0.25518 0.23718 0.0
H2599 H 0.97315 0.2598 0.2662 0.0
H2600 H 0.90847 0.20552 0.23023 0.0
H2601 H 0.91615 0.22332 0.29899 0.0
H2602 H 0.96678 0.1838 0.22363 0.0
H2603 H 0.96483 0.2148 0.21569 0.0
H2604 H 0.94042 0.19428 0.2092 0.0
H2605 H 0.97837 0.20836 0.30507 0.0
H2606 H 0.95344 0.22212 0.3181 0.0
H2607 H 0.97278 0.23988 0.30159 0.0
C2608 C 0.03047 0.67262 0.45199 0.0
C2609 C 0.01381 0.67784 0.43511 0.0
C2610 C 0.02811 0.65173 0.46471 0.0
C2611 C 0.00823 0.63607 0.4609 0.0
C2612 C -0.00915 0.64183 0.44445 0.0
C2613 C -0.00595 0.66242 0.43153 0.0
C2614 C 0.04739 0.64595 0.48163 0.0
C2615 C 0.96907 0.626 0.44023 0.0
C2616 C 0.01393 0.56951 0.47492 0.0
C2617 C 0.00356 0.56843 0.49548 0.0
C2618 C 0.01581 0.59142 0.46372 0.0
C2619 C 0.0065 0.6128 0.47298 0.0
C2620 C -0.00431 0.6118 0.49362 0.0
C2621 C -0.00533 0.58967 0.5048 0.0
C2622 C 0.02801 0.59171 0.44204 0.0
C2623 C 0.98496 0.63403 0.50374 0.0
H2624 H 0.04583 0.68443 0.45475 0.0
H2625 H 0.981 0.66652 0.41864 0.0
H2626 H 0.03962 0.64341 0.49792 0.0
H2627 H 0.05598 0.62869 0.4771 0.0
H2628 H 0.06129 0.66037 0.48312 0.0
H2629 H 0.95612 0.63422 0.42843 0.0
H2630 H 0.9744 0.60819 0.43353 0.0
H2631 H 0.96008 0.62261 0.45582 0.0
H2632 H 0.02104 0.5532 0.4677 0.0
H2633 H 0.98653 0.58889 0.52063 0.0
H2634 H 0.04297 0.605 0.44281 0.0
H2635 H 0.01536 0.59748 0.42882 0.0
H2636 H 0.03507 0.5737 0.43748 0.0
H2637 H -0.00115 0.64822 0.50662 0.0
H2638 H 0.97661 0.63012 0.51958 0.0
H2639 H 0.97127 0.64157 0.49228 0.0
C2640 C 0.64727 0.73624 0.66778 0.0
C2641 C 0.62978 0.75362 0.67069 0.0
C2642 C 0.67024 0.73999 0.67687 0.0
C2643 C 0.67562 0.76187 0.68848 0.0
C2644 C 0.65884 0.78071 0.6887 0.0
C2645 C 0.6358 0.77613 0.68019 0.0
C2646 C 0.68766 0.71941 0.67641 0.0
C2647 C 0.66439 0.8047 0.69995 0.0
C2648 C 0.71206 0.75136 0.74028 0.0
C2649 C 0.73513 0.75568 0.73331 0.0
C2650 C 0.69242 0.75437 0.726 0.0
C2651 C 0.69598 0.76258 0.70444 0.0
C2652 C 0.71903 0.7691 0.69796 0.0
C2653 C 0.73849 0.76522 0.71242 0.0
C2654 C 0.66805 0.7471 0.73356 0.0
C2655 C 0.72338 0.77884 0.67543 0.0
H2656 H 0.6424 0.71885 0.66037 0.0
H2657 H 0.62214 0.78964 0.68208 0.0
H2658 H 0.70558 0.72605 0.67222 0.0
H2659 H 0.68921 0.71128 0.69295 0.0
H2660 H 0.68194 0.705 0.66442 0.0
H2661 H 0.65204 0.81899 0.69414 0.0
H2662 H 0.66256 0.80284 0.7179 0.0
H2663 H 0.68295 0.81057 0.69709 0.0
H2664 H 0.70939 0.74409 0.75645 0.0
H2665 H 0.75636 0.76887 0.7071 0.0
H2666 H 0.66082 0.73187 0.72322 0.0
H2667 H 0.65557 0.76239 0.73176 0.0
H2668 H 0.66842 0.74138 0.75097 0.0
H2669 H 0.72434 0.76355 0.66355 0.0
H2670 H 0.74045 0.78913 0.67518 0.0
H2671 H 0.70872 0.79077 0.66977 0.0
C2672 C 0.62761 0.45569 0.65999 0.0
C2673 C 0.61569 0.46973 0.67533 0.0
C2674 C 0.61941 0.45419 0.63804 0.0
C2675 C 0.59926 0.46765 0.6313 0.0
C2676 C 0.58672 0.48124 0.64691 0.0
C2677 C 0.59493 0.48184 0.66886 0.0
C2678 C 0.6328 0.43899 0.62195 0.0
C2679 C 0.56537 0.49619 0.64026 0.0
C2680 C 0.59193 0.49243 0.57415 0.0
C2681 C 0.57209 0.47914 0.56606 0.0
C2682 C 0.60196 0.48788 0.59501 0.0
C2683 C 0.59221 0.46923 0.60774 0.0
C2684 C 0.57375 0.45419 0.59872 0.0
C2685 C 0.56368 0.45951 0.57801 0.0
C2686 C 0.62152 0.50448 0.60415 0.0
C2687 C 0.56344 0.43366 0.61156 0.0
H2688 H 0.64359 0.44618 0.66508 0.0
H2689 H 0.58582 0.49283 0.68072 0.0
H2690 H 0.62026 0.42751 0.6118 0.0
H2691 H 0.64232 0.45095 0.61064 0.0
H2692 H 0.64603 0.42716 0.63032 0.0
H2693 H 0.55719 0.50509 0.65454 0.0
H2694 H 0.57077 0.5104 0.62868 0.0
H2695 H 0.55168 0.48465 0.6316 0.0
H2696 H 0.59846 0.50765 0.56498 0.0
H2697 H 0.54847 0.44904 0.57167 0.0
H2698 H 0.63635 0.49386 0.61143 0.0
H2699 H 0.61445 0.51599 0.61742 0.0
H2700 H 0.62869 0.51647 0.59142 0.0
H2701 H 0.5778 0.42314 0.61979 0.0
H2702 H 0.55234 0.4212 0.60093 0.0
H2703 H 0.55214 0.4411 0.62452 0.0
C2704 C 0.7667 0.37293 0.95263 0.0
C2705 C 0.76925 0.36272 0.97351 0.0
C2706 C 0.77163 0.35946 0.93369 0.0
C2707 C 0.77935 0.33526 0.93571 0.0
C2708 C 0.78191 0.32484 0.95669 0.0
C2709 C 0.77678 0.33866 0.97532 0.0
C2710 C 0.76857 0.37109 0.91151 0.0
C2711 C 0.79009 0.29908 0.95947 0.0
C2712 C 0.77029 0.29282 0.88682 0.0
C2713 C 0.79303 0.29268 0.87805 0.0
C2714 C 0.76563 0.3066 0.90558 0.0
C2715 C 0.78417 0.32058 0.91585 0.0
C2716 C 0.80723 0.32037 0.90724 0.0
C2717 C 0.81138 0.30646 0.88835 0.0
C2718 C 0.74077 0.30646 0.91421 0.0
C2719 C 0.82745 0.33497 0.91789 0.0
H2720 H 0.76095 0.3915 0.95107 0.0
H2721 H 0.7789 0.33059 -0.00864 0.0
H2722 H 0.78564 0.37079 0.90293 0.0
H2723 H 0.75535 0.36066 0.90117 0.0
H2724 H 0.76257 0.39013 0.91276 0.0
H2725 H 0.79156 0.29381 0.97698 0.0
H2726 H 0.77743 0.28647 0.95071 0.0
H2727 H 0.80769 0.29673 0.9521 0.0
H2728 H 0.75589 0.28266 0.87862 0.0
H2729 H 0.82896 0.30637 0.88161 0.0
H2730 H 0.7336 0.32508 0.91415 0.0
H2731 H 0.74117 0.30028 0.93145 0.0
H2732 H 0.72839 0.2945 0.90433 0.0
H2733 H 0.8229 0.35445 0.91806 0.0
H2734 H 0.84437 0.33268 0.90926 0.0
H2735 H 0.83029 0.32949 0.93521 0.0
C2736 C 0.91546 0.51834 0.1554 0.0
C2737 C 0.92492 0.52744 0.17543 0.0
C2738 C 0.92863 0.51953 0.13636 0.0
C2739 C 0.95152 0.53054 0.13742 0.0
C2740 C 0.96043 0.54119 0.15729 0.0
C2741 C 0.9471 0.53928 0.17617 0.0
C2742 C 0.91868 0.50773 0.11545 0.0
C2743 C 0.98453 0.55355 0.15888 0.0
C2744 C -0.00498 0.50549 0.09739 0.0
C2745 C -0.00699 0.52207 0.08026 0.0
C2746 C 0.98202 0.50843 0.11636 0.0
C2747 C 0.96701 0.52867 0.11836 0.0
C2748 C 0.96594 0.54621 0.10169 0.0
C2749 C 0.97885 0.5426 0.08269 0.0
C2750 C 0.98347 0.48923 0.13375 0.0
C2751 C 0.95048 0.56826 0.10354 0.0
H2752 H 0.8983 0.50917 0.15483 0.0
H2753 H 0.95429 0.54658 0.19164 0.0
H2754 H 0.92965 0.49189 0.11119 0.0
H2755 H 0.89997 0.5015 0.11696 0.0
H2756 H 0.91945 0.52052 0.10162 0.0
H2757 H 0.98748 0.56358 0.17467 0.0
H2758 H -0.00132 0.53983 0.15749 0.0
H2759 H 0.98648 0.56636 0.14519 0.0
H2760 H 0.00588 0.48955 0.09556 0.0
H2761 H 0.97735 0.55553 0.06951 0.0
H2762 H 0.96579 0.48038 0.13517 0.0
H2763 H 0.98838 0.49754 0.14996 0.0
H2764 H -0.00332 0.47508 0.13003 0.0
H2765 H 0.93146 0.56267 0.10252 0.0
H2766 H 0.95367 0.58144 0.09033 0.0
H2767 H 0.95376 0.57744 0.11967 0.0
C2768 C 0.85258 0.65892 0.42386 0.0
C2769 C 0.84911 0.6365 0.43377 0.0
C2770 C 0.84205 0.66325 0.40314 0.0
C2771 C 0.8281 0.64464 0.39274 0.0
C2772 C 0.83053 0.62061 0.39997 0.0
C2773 C 0.84169 0.61665 0.4205 0.0
C2774 C 0.84177 0.6888 0.39478 0.0
C2775 C 0.81749 0.59995 0.38834 0.0
C2776 C 0.7669 0.67022 0.38296 0.0
C2777 C 0.76702 0.67497 0.36061 0.0
C2778 C 0.78595 0.65822 0.3932 0.0
C2779 C 0.80591 0.65168 0.38077 0.0
C2780 C 0.8053 0.65503 0.35783 0.0
C2781 C 0.78561 0.66644 0.34796 0.0
C2782 C 0.78534 0.65421 0.41764 0.0
C2783 C 0.82568 0.64772 0.3438 0.0
H2784 H 0.85969 0.67408 0.43358 0.0
H2785 H 0.84041 0.59881 0.42759 0.0
H2786 H 0.84001 0.68905 0.37662 0.0
H2787 H 0.82632 0.6984 0.40148 0.0
H2788 H 0.85822 0.69885 0.40019 0.0
H2789 H 0.82546 0.58227 0.3927 0.0
H2790 H 0.79866 0.59974 0.39325 0.0
H2791 H 0.81764 0.60211 0.3703 0.0
H2792 H 0.75249 0.67702 0.39259 0.0
H2793 H 0.78563 0.67042 0.33059 0.0
H2794 H 0.79873 0.66612 0.4263 0.0
H2795 H 0.78974 0.63519 0.42153 0.0
H2796 H 0.76763 0.65825 0.42423 0.0
H2797 H 0.84316 0.65091 0.35242 0.0
H2798 H 0.82543 0.65761 0.32805 0.0
H2799 H 0.82409 0.62811 0.33989 0.0
C2800 C 0.57937 0.53526 0.79918 0.0
C2801 C 0.60065 0.52305 0.79557 0.0
C2802 C 0.57144 0.53906 0.82051 0.0
C2803 C 0.58522 0.53061 0.83865 0.0
C2804 C 0.60714 0.51908 0.83517 0.0
C2805 C 0.61454 0.51533 0.81367 0.0
C2806 C 0.54788 0.55129 0.82357 0.0
C2807 C 0.62242 0.50999 0.85412 0.0
C2808 C 0.57164 0.55255 0.89625 0.0
C2809 C 0.55795 0.53319 0.90379 0.0
C2810 C 0.58062 0.55208 0.87503 0.0
C2811 C 0.57571 0.53182 0.86107 0.0
C2812 C 0.56188 0.51229 0.86858 0.0
C2813 C 0.55332 0.51315 0.88984 0.0
C2814 C 0.59544 0.57317 0.86757 0.0
C2815 C 0.55625 0.49034 0.85421 0.0
H2816 H 0.56855 0.54136 0.78531 0.0
H2817 H 0.63114 0.50611 0.81107 0.0
H2818 H 0.53502 0.53817 0.83025 0.0
H2819 H 0.54998 0.56643 0.83563 0.0
H2820 H 0.5402 0.55843 0.80796 0.0
H2821 H 0.63989 0.5033 0.84878 0.0
H2822 H 0.6256 0.5246 0.86656 0.0
H2823 H 0.61304 0.495 0.86226 0.0
H2824 H 0.57518 0.56813 0.90689 0.0
H2825 H 0.54329 0.49782 0.89569 0.0
H2826 H 0.58706 0.58112 0.85262 0.0
H2827 H 0.61333 0.56683 0.86315 0.0
H2828 H 0.59761 0.58757 0.88039 0.0
H2829 H 0.54717 0.49592 0.83867 0.0
H2830 H 0.54471 0.47698 0.86235 0.0
H2831 H 0.57298 0.48128 0.84983 0.0
C2832 C 0.77772 0.33805 0.12163 0.0
C2833 C 0.77533 0.33063 0.0996 0.0
C2834 C 0.78082 0.32111 0.13835 0.0
C2835 C 0.7818 0.29615 0.13289 0.0
C2836 C 0.78024 0.28859 0.11063 0.0
C2837 C 0.77683 0.30593 0.09423 0.0
C2838 C 0.78204 0.32992 0.16194 0.0
C2839 C 0.7816 0.26218 0.10421 0.0
C2840 C 0.80466 0.25935 0.18097 0.0
C2841 C 0.78325 0.25363 0.19089 0.0
C2842 C 0.80456 0.27158 0.16091 0.0
C2843 C 0.78256 0.27811 0.15074 0.0
C2844 C 0.76098 0.27017 0.15964 0.0
C2845 C 0.76161 0.25795 0.17959 0.0
C2846 C 0.82794 0.27953 0.15179 0.0
C2847 C 0.73712 0.27662 0.14928 0.0
H2848 H 0.77658 0.35711 0.12587 0.0
H2849 H 0.77524 0.30012 0.07719 0.0
H2850 H 0.76561 0.32425 0.17014 0.0
H2851 H 0.79728 0.3217 0.17101 0.0
H2852 H 0.7838 0.34993 0.16332 0.0
H2853 H 0.78237 0.2595 0.08616 0.0
H2854 H 0.79753 0.2539 0.11216 0.0
H2855 H 0.76578 0.25233 0.11003 0.0
H2856 H 0.82144 0.25612 0.18969 0.0
H2857 H 0.74501 0.25334 0.18715 0.0
H2858 H 0.83099 0.29903 0.15561 0.0
H2859 H 0.82766 0.27724 0.13368 0.0
H2860 H 0.84311 0.26925 0.159 0.0
H2861 H 0.73406 0.29627 0.15164 0.0
H2862 H 0.72225 0.2665 0.1566 0.0
H2863 H 0.73674 0.27286 0.13137 0.0
C2864 C 0.96598 0.47837 0.30258 0.0
C2865 C 0.94308 0.48682 0.29727 0.0
C2866 C 0.97345 0.47484 0.32444 0.0
C2867 C 0.9576 0.47976 0.34138 0.0
C2868 C 0.93441 0.48811 0.33618 0.0
C2869 C 0.92744 0.49164 0.31416 0.0
C2870 C -0.00158 0.46615 0.32942 0.0
C2871 C 0.91703 0.49348 0.35389 0.0
C2872 C 0.97095 0.45319 0.39753 0.0
C2873 C 0.98155 0.47306 0.40873 0.0
C2874 C 0.96297 0.45508 0.37555 0.0
C2875 C 0.96575 0.47733 0.36462 0.0
C2876 C 0.97649 0.49739 0.37582 0.0
C2877 C 0.98413 0.49505 0.39775 0.0
C2878 C 0.95152 0.43334 0.36404 0.0
C2879 C 0.97979 0.52141 0.36469 0.0
H2880 H 0.97819 0.4746 0.28964 0.0
H2881 H 0.90966 0.49802 0.31019 0.0
H2882 H 0.00847 0.47999 0.33944 0.0
H2883 H -0.00211 0.44938 0.33919 0.0
H2884 H 0.0083 0.46246 0.3143 0.0
H2885 H 0.89935 0.49895 0.34705 0.0
H2886 H 0.91462 0.4773 0.3642 0.0
H2887 H 0.92418 0.50824 0.36481 0.0
H2888 H 0.96899 0.43615 0.40592 0.0
H2889 H -0.00827 0.51068 0.40645 0.0
H2890 H 0.96177 0.42828 0.34949 0.0
H2891 H 0.93326 0.43784 0.35804 0.0
H2892 H 0.95049 0.41743 0.37492 0.0
H2893 H -0.0095 0.51899 0.3499 0.0
H2894 H 0.9888 0.53513 0.37567 0.0
H2895 H 0.96225 0.52854 0.35914 0.0
C2896 C 0.79873 0.67617 0.57836 0.0
C2897 C 0.80916 0.68048 0.55824 0.0
C2898 C 0.80665 0.68852 0.59742 0.0
C2899 C 0.82516 0.706 0.59627 0.0
C2900 C 0.8349 0.71145 0.57583 0.0
C2901 C 0.82696 0.69838 0.55702 0.0
C2902 C 0.79577 0.68215 0.61896 0.0
C2903 C 0.85417 0.73044 0.57389 0.0
C2904 C 0.82571 0.74238 0.64854 0.0
C2905 C 0.84134 0.72871 0.66179 0.0
C2906 C 0.82243 0.73716 0.62611 0.0
C2907 C 0.83464 0.7175 0.6169 0.0
C2908 C 0.8525 0.70562 0.6295 0.0
C2909 C 0.85583 0.71159 0.65181 0.0
C2910 C 0.80386 0.75085 0.61297 0.0
C2911 C 0.86609 0.68468 0.62018 0.0
H2912 H 0.78499 0.66237 0.57944 0.0
H2913 H 0.83498 0.7019 0.54146 0.0
H2914 H 0.80972 0.67532 0.63055 0.0
H2915 H 0.78808 0.69849 0.62657 0.0
H2916 H 0.78151 0.66813 0.61696 0.0
H2917 H 0.85635 0.73587 0.5566 0.0
H2918 H 0.85025 0.74677 0.58385 0.0
H2919 H 0.87135 0.72317 0.58023 0.0
H2920 H 0.81438 0.75573 0.65591 0.0
H2921 H 0.86852 0.70152 0.66177 0.0
H2922 H 0.78703 0.74016 0.61202 0.0
H2923 H 0.80955 0.75375 0.59595 0.0
H2924 H 0.80016 0.76869 0.62066 0.0
H2925 H 0.85417 0.66855 0.61869 0.0
H2926 H 0.88178 0.68001 0.63081 0.0
H2927 H 0.87219 0.68884 0.60355 0.0
C2928 C 0.73258 0.61998 0.44889 0.0
C2929 C 0.73978 0.63897 0.46306 0.0
C2930 C 0.70872 0.61259 0.44724 0.0
C2931 C 0.69206 0.6242 0.46055 0.0
C2932 C 0.69874 0.6456 0.47238 0.0
C2933 C 0.72273 0.65288 0.47341 0.0
C2934 C 0.7022 0.59017 0.43386 0.0
C2935 C 0.68143 0.65869 0.48654 0.0
C2936 C 0.62897 0.59899 0.46151 0.0
C2937 C 0.63122 0.58242 0.47867 0.0
C2938 C 0.64857 0.61295 0.45529 0.0
C2939 C 0.67066 0.61044 0.46681 0.0
C2940 C 0.67285 0.5939 0.48433 0.0
C2941 C 0.65312 0.58004 0.48995 0.0
C2942 C 0.64568 0.63027 0.43648 0.0
C2943 C 0.6961 0.59068 0.49714 0.0
H2944 H 0.74592 0.60947 0.4407 0.0
H2945 H 0.72844 0.66761 0.48436 0.0
H2946 H 0.70225 0.57426 0.44479 0.0
H2947 H 0.68412 0.59158 0.42616 0.0
H2948 H 0.71513 0.58685 0.42082 0.0
H2949 H 0.68749 0.67753 0.49035 0.0
H2950 H 0.66346 0.65914 0.47849 0.0
H2951 H 0.67993 0.64897 0.50225 0.0
H2952 H 0.61197 0.60076 0.45276 0.0
H2953 H 0.65472 0.56752 0.50346 0.0
H2954 H 0.65965 0.62723 0.42438 0.0
H2955 H 0.64786 0.64914 0.4427 0.0
H2956 H 0.62796 0.62842 0.42796 0.0
H2957 H 0.70992 0.58408 0.48605 0.0
H2958 H 0.69451 0.57759 0.5107 0.0
H2959 H 0.70242 0.60828 0.50424 0.0
C2960 C 0.17539 0.90829 0.54317 0.0
C2961 C 0.19559 0.91999 0.55254 0.0
C2962 C 0.15436 0.92106 0.5388 0.0
C2963 C 0.15352 0.94607 0.54406 0.0
C2964 C 0.17367 0.95785 0.554 0.0
C2965 C 0.19449 0.94466 0.5581 0.0
C2966 C 0.13318 0.90789 0.52818 0.0
C2967 C 0.17334 0.98444 0.56002 0.0
C2968 C 0.10632 0.98211 0.51323 0.0
C2969 C 0.08795 0.98222 0.52817 0.0
C2970 C 0.12807 0.97094 0.51841 0.0
C2971 C 0.1315 0.95984 0.53907 0.0
C2972 C 0.11342 0.96089 0.55458 0.0
C2973 C 0.09183 0.97201 0.54892 0.0
C2974 C 0.14699 0.97016 0.50146 0.0
C2975 C 0.11654 0.94952 0.57687 0.0
H2976 H 0.17614 0.88924 0.53881 0.0
H2977 H 0.21004 0.95381 0.56538 0.0
H2978 H 0.11756 0.90953 0.5387 0.0
H2979 H 0.12835 0.91627 0.51222 0.0
H2980 H 0.13667 0.88838 0.5253 0.0
H2981 H 0.19029 0.99072 0.56823 0.0
H2982 H 0.17013 -0.00473 0.54504 0.0
H2983 H 0.15855 0.98815 0.5711 0.0
H2984 H 0.10341 0.98992 0.49716 0.0
H2985 H 0.07776 0.97219 0.56062 0.0
H2986 H 0.14986 0.95114 0.49623 0.0
H2987 H 0.16415 0.9772 0.5086 0.0
H2988 H 0.14211 0.98088 0.48672 0.0
H2989 H 0.118 0.9296 0.57493 0.0
H2990 H 0.10145 0.95344 0.5876 0.0
H2991 H 0.13325 0.95616 0.58522 0.0
C2992 C 0.3506 0.90093 0.7119 0.0
C2993 C 0.3501 0.92362 0.72238 0.0
C2994 C 0.33522 0.88224 0.71794 0.0
C2995 C 0.31935 0.88629 0.7351 0.0
C2996 C 0.31741 0.90968 0.74446 0.0
C2997 C 0.3327 0.92816 0.73784 0.0
C2998 C 0.33732 0.85765 0.70713 0.0
C2999 C 0.30081 0.91469 0.76287 0.0
C3000 C 0.27495 0.83616 0.74604 0.0
C3001 C 0.28805 0.8223 0.76119 0.0
C3002 C 0.2846 0.85752 0.7377 0.0
C3003 C 0.3075 0.86538 0.74526 0.0
C3004 C 0.32005 0.85225 0.76166 0.0
C3005 C 0.31028 0.83066 0.76923 0.0
C3006 C 0.27085 0.87096 0.72007 0.0
C3007 C 0.34436 0.86033 0.77044 0.0
H3008 H 0.36378 0.8974 0.69974 0.0
H3009 H 0.33207 0.9457 0.74595 0.0
H3010 H 0.34744 0.84553 0.71832 0.0
H3011 H 0.3195 0.84931 0.70386 0.0
H3012 H 0.34672 0.85865 0.69144 0.0
H3013 H 0.29857 0.9344 0.76584 0.0
H3014 H 0.28306 0.90632 0.75932 0.0
H3015 H 0.30814 0.90657 0.77819 0.0
H3016 H 0.25785 0.82948 0.73962 0.0
H3017 H 0.32037 0.81988 0.78093 0.0
H3018 H 0.28192 0.8734 0.70554 0.0
H3019 H 0.26638 0.88927 0.72621 0.0
H3020 H 0.2541 0.86139 0.71478 0.0
H3021 H 0.3574 0.85882 0.75726 0.0
H3022 H 0.35073 0.8493 0.78452 0.0
H3023 H 0.34401 0.87959 0.77577 0.0
C3024 C 0.35293 0.06341 0.04789 0.0
C3025 C 0.33002 0.05369 0.04968 0.0
C3026 C 0.37259 0.0485 0.04641 0.0
C3027 C 0.36929 0.02309 0.04689 0.0
C3028 C 0.34642 0.01309 0.05027 0.0
C3029 C 0.32686 0.02864 0.05159 0.0
C3030 C 0.39672 0.0601 0.04321 0.0
C3031 C 0.3423 0.98614 0.0514 0.0
C3032 C 0.41873 -0.00072 0.01426 0.0
C3033 C 0.4368 -0.00094 0.03063 0.0
C3034 C 0.39519 0.00373 0.01968 0.0
C3035 C 0.38984 0.00778 0.04194 0.0
C3036 C 0.40739 0.00387 0.05863 0.0
C3037 C 0.43088 -7e-05 0.05276 0.0
C3038 C 0.37679 0.00729 0.00143 0.0
C3039 C 0.40201 0.00678 0.08257 0.0
H3040 H 0.35546 0.08285 0.04699 0.0
H3041 H 0.30911 0.02115 0.05315 0.0
H3042 H 0.40956 0.05436 0.05628 0.0
H3043 H 0.4037 0.05422 0.02722 0.0
H3044 H 0.39607 0.08019 0.04351 0.0
H3045 H 0.32645 0.98185 0.06107 0.0
H3046 H 0.339 0.97875 0.03455 0.0
H3047 H 0.35797 0.97681 0.05876 0.0
H3048 H 0.42322 -0.00202 -0.00286 0.0
H3049 H 0.44476 -0.0012 0.06549 0.0
H3050 H 0.3739 0.02696 -0.00082 0.0
H3051 H 0.35953 -0.00105 0.00559 0.0
H3052 H 0.38248 -0.00058 0.98562 0.0
H3053 H 0.40269 0.02628 0.08717 0.0
H3054 H 0.4152 -0.00279 0.09321 0.0
H3055 H 0.38391 -0.00019 0.08584 0.0
C3056 C 0.70598 0.55755 0.72478 0.0
C3057 C 0.68209 0.56282 0.71967 0.0
C3058 C 0.72311 0.57605 0.7271 0.0
C3059 C 0.71607 0.60032 0.72439 0.0
C3060 C 0.69244 0.60559 0.71738 0.0
C3061 C 0.67568 0.58669 0.71503 0.0
C3062 C 0.74823 0.56973 0.73427 0.0
C3063 C 0.68436 0.63131 0.71421 0.0
C3064 C 0.74537 0.64699 0.76241 0.0
C3065 C 0.76034 0.65929 0.74833 0.0
C3066 C 0.73121 0.62753 0.7548 0.0
C3067 C 0.73208 0.62013 0.73254 0.0
C3068 C 0.74773 0.63189 0.71836 0.0
C3069 C 0.76175 0.65142 0.72645 0.0
C3070 C 0.71483 0.6153 0.77049 0.0
C3071 C 0.74913 0.62435 0.69456 0.0
H3072 H 0.71116 0.53905 0.72796 0.0
H3073 H 0.65729 0.59085 0.71087 0.0
H3074 H 0.76133 0.58022 0.72497 0.0
H3075 H 0.75116 0.57449 0.7519 0.0
H3076 H 0.75177 0.55012 0.73206 0.0
H3077 H 0.66664 0.63213 0.70562 0.0
H3078 H 0.68317 0.64041 0.73047 0.0
H3079 H 0.69738 0.64168 0.70471 0.0
H3080 H 0.7443 0.65292 0.77937 0.0
H3081 H 0.77325 0.66094 0.71548 0.0
H3082 H 0.71861 0.59566 0.77117 0.0
H3083 H 0.69606 0.61723 0.7646 0.0
H3084 H 0.71669 0.62301 0.78739 0.0
H3085 H 0.75184 0.60455 0.69312 0.0
H3086 H 0.76375 0.63385 0.68628 0.0
H3087 H 0.73208 0.62843 0.68575 0.0
C3088 C 0.84652 0.45109 0.04361 0.0
C3089 C 0.83686 0.4279 0.03997 0.0
C3090 C 0.87088 0.45551 0.0413 0.0
C3091 C 0.88559 0.43644 0.03434 0.0
C3092 C 0.87603 0.4128 0.03134 0.0
C3093 C 0.85176 0.40873 0.03454 0.0
C3094 C 0.88067 0.48078 0.04546 0.0
C3095 C 0.89106 0.39217 0.02348 0.0
C3096 C 0.93788 0.45962 0.00317 0.0
C3097 C 0.95624 0.45857 0.01917 0.0
C3098 C 0.91506 0.45089 0.00746 0.0
C3099 C 0.91044 0.44182 0.02854 0.0
C3100 C 0.92921 0.43988 0.04446 0.0
C3101 C 0.95206 0.44796 0.03943 0.0
C3102 C 0.89563 0.45253 0.98983 0.0
C3103 C 0.92485 0.43104 0.06732 0.0
H3104 H 0.83494 0.46584 0.04794 0.0
H3105 H 0.84416 0.39083 0.0315 0.0
H3106 H 0.89687 0.48025 0.05636 0.0
H3107 H 0.88587 0.48882 0.02973 0.0
H3108 H 0.8675 0.49281 0.05309 0.0
H3109 H 0.88142 0.37452 0.02368 0.0
H3110 H 0.89639 0.39565 0.00644 0.0
H3111 H 0.90763 0.39083 0.03378 0.0
H3112 H 0.94122 0.46791 0.98754 0.0
H3113 H 0.96625 0.4476 0.05194 0.0
H3114 H 0.8828 0.46667 -0.00557 0.0
H3115 H 0.88566 0.43513 0.98818 0.0
H3116 H 0.90277 0.45715 0.97363 0.0
H3117 H 0.91465 0.44486 0.07629 0.0
H3118 H 0.94172 0.42772 0.07677 0.0
H3119 H 0.91404 0.41413 0.06673 0.0
C3120 C 0.36845 0.0812 0.75741 0.0
C3121 C 0.35692 0.06169 0.74646 0.0
C3122 C 0.35657 0.10301 0.76095 0.0
C3123 C 0.33264 0.1053 0.75332 0.0
C3124 C 0.32068 0.08543 0.74287 0.0
C3125 C 0.33297 0.06384 0.73957 0.0
C3126 C 0.36983 0.12385 0.77225 0.0
C3127 C 0.29515 0.08721 0.73455 0.0
C3128 C 0.29693 0.15771 0.77513 0.0
C3129 C 0.29941 0.17472 0.75847 0.0
C3130 C 0.30747 0.13487 0.77361 0.0
C3131 C 0.32062 0.12897 0.75496 0.0
C3132 C 0.32266 0.14585 0.73786 0.0
C3133 C 0.31206 0.16854 0.73984 0.0
C3134 C 0.30497 0.11729 0.79216 0.0
C3135 C 0.33642 0.14011 0.71764 0.0
H3136 H 0.38692 0.0796 0.76285 0.0
H3137 H 0.32391 0.04879 0.73119 0.0
H3138 H 0.37175 0.13896 0.76062 0.0
H3139 H 0.35965 0.13077 0.78622 0.0
H3140 H 0.38784 0.11864 0.77846 0.0
H3141 H 0.28797 0.06963 0.72807 0.0
H3142 H 0.28374 0.09359 0.74788 0.0
H3143 H 0.29388 0.1007 0.72126 0.0
H3144 H 0.28726 0.16242 0.78961 0.0
H3145 H 0.31399 0.18158 0.72689 0.0
H3146 H 0.32276 0.11341 0.79964 0.0
H3147 H 0.29734 0.09987 0.78581 0.0
H3148 H 0.29345 0.12436 0.80517 0.0
H3149 H 0.35532 0.13674 0.72236 0.0
H3150 H 0.33576 0.155 0.70558 0.0
H3151 H 0.32921 0.12338 0.70952 0.0
C3152 C 0.17383 0.92079 0.25377 0.0
C3153 C 0.18542 0.94064 0.24462 0.0
C3154 C 0.18521 0.89844 0.25592 0.0
C3155 C 0.20866 0.89584 0.24856 0.0
C3156 C 0.22056 0.91588 0.23955 0.0
C3157 C 0.20883 0.9381 0.23778 0.0
C3158 C 0.17206 0.87754 0.26588 0.0
C3159 C 0.24553 0.91374 0.23145 0.0
C3160 C 0.24435 0.84353 0.27148 0.0
C3161 C 0.24096 0.82587 0.25487 0.0
C3162 C 0.23428 0.86652 0.26948 0.0
C3163 C 0.22065 0.87208 0.25031 0.0
C3164 C 0.21775 0.85462 0.23318 0.0
C3165 C 0.22787 0.83166 0.2357 0.0
C3166 C 0.23766 0.8846 0.28815 0.0
C3167 C 0.20352 0.86002 0.2124 0.0
H3168 H 0.15575 0.92265 0.25912 0.0
H3169 H 0.21785 0.95334 0.23061 0.0
H3170 H 0.17002 0.86245 0.25376 0.0
H3171 H 0.18243 0.87061 0.28023 0.0
H3172 H 0.15412 0.88271 0.27127 0.0
H3173 H 0.25239 0.93112 0.22508 0.0
H3174 H 0.25775 0.9077 0.24492 0.0
H3175 H 0.24592 0.89984 0.21818 0.0
H3176 H 0.25442 0.83923 0.28639 0.0
H3177 H 0.22524 0.81815 0.22277 0.0
H3178 H 0.22017 0.88888 0.29502 0.0
H3179 H 0.24528 0.90176 0.28211 0.0
H3180 H 0.24955 0.87777 0.30157 0.0
H3181 H 0.18469 0.86329 0.21631 0.0
H3182 H 0.20403 0.84498 0.20016 0.0
H3183 H 0.21041 0.87674 0.20486 0.0
C3184 C 0.533 0.3646 0.40596 0.0
C3185 C 0.52126 0.36941 0.38587 0.0
C3186 C 0.5387 0.38327 0.42098 0.0
C3187 C 0.53213 0.40721 0.41586 0.0
C3188 C 0.5216 0.41241 0.39505 0.0
C3189 C 0.51642 0.39338 0.38017 0.0
C3190 C 0.55023 0.37709 0.44291 0.0
C3191 C 0.51418 0.43774 0.38916 0.0
C3192 C 0.51442 0.44484 0.4645 0.0
C3193 C 0.53442 0.45989 0.46815 0.0
C3194 C 0.51338 0.42797 0.44725 0.0
C3195 C 0.53295 0.42591 0.43343 0.0
C3196 C 0.55325 0.44101 0.43696 0.0
C3197 C 0.55371 0.45799 0.45429 0.0
C3198 C 0.49132 0.41227 0.4439 0.0
C3199 C 0.57446 0.43905 0.42258 0.0
H3200 H 0.53715 0.34609 0.41023 0.0
H3201 H 0.50741 0.39713 0.36459 0.0
H3202 H 0.56502 0.38992 0.44722 0.0
H3203 H 0.53695 0.3787 0.45587 0.0
H3204 H 0.55726 0.35838 0.44308 0.0
H3205 H 0.50928 0.43931 0.37143 0.0
H3206 H 0.49855 0.44285 0.39875 0.0
H3207 H 0.52866 0.45093 0.39343 0.0
H3208 H 0.49935 0.44636 0.47502 0.0
H3209 H 0.56917 0.46967 0.45705 0.0
H3210 H 0.49599 0.39295 0.44585 0.0
H3211 H 0.48374 0.4144 0.427 0.0
H3212 H 0.47737 0.41677 0.4557 0.0
H3213 H 0.58197 0.42061 0.42368 0.0
H3214 H 0.58868 0.45244 0.42727 0.0
H3215 H 0.5689 0.44185 0.40517 0.0
C3216 C 0.43325 0.76895 0.18665 0.0
C3217 C 0.44528 0.74729 0.19094 0.0
C3218 C 0.4109 0.7735 0.19553 0.0
C3219 C 0.40015 0.75586 0.20877 0.0
C3220 C 0.41202 0.7338 0.21278 0.0
C3221 C 0.43441 0.72986 0.20395 0.0
C3222 C 0.39893 0.79731 0.19099 0.0
C3223 C 0.40109 0.71432 0.22651 0.0
C3224 C 0.35256 0.77153 0.24957 0.0
C3225 C 0.33169 0.76361 0.23824 0.0
C3226 C 0.37486 0.77006 0.23984 0.0
C3227 C 0.37642 0.76018 0.21836 0.0
C3228 C 0.35533 0.75287 0.20662 0.0
C3229 C 0.33329 0.75479 0.21663 0.0
C3230 C 0.39687 0.77832 0.25285 0.0
C3231 C 0.35612 0.74205 0.18379 0.0
H3232 H 0.44152 0.7826 0.17675 0.0
H3233 H 0.44345 0.71301 0.20731 0.0
H3234 H 0.38117 0.79409 0.18292 0.0
H3235 H 0.39606 0.80708 0.20668 0.0
H3236 H 0.40955 0.80912 0.18035 0.0
H3237 H 0.4124 0.69801 0.22777 0.0
H3238 H 0.39825 0.72143 0.24331 0.0
H3239 H 0.38341 0.70884 0.21932 0.0
H3240 H 0.35155 0.77844 0.26623 0.0
H3241 H 0.31732 0.74858 0.20768 0.0
H3242 H 0.40753 0.79095 0.24304 0.0
H3243 H 0.40821 0.76251 0.25665 0.0
H3244 H 0.39253 0.78747 0.26851 0.0
H3245 H 0.36603 0.75422 0.17295 0.0
H3246 H 0.33806 0.73868 0.17633 0.0
H3247 H 0.36573 0.72463 0.18439 0.0
C3248 C 0.98575 0.71015 0.9457 0.0
C3249 C 0.97158 0.72253 0.93034 0.0
C3250 C 0.97922 0.68705 0.9526 0.0
C3251 C 0.95796 0.67606 0.94392 0.0
C3252 C 0.9428 0.68906 0.92942 0.0
C3253 C 0.94982 0.71222 0.92278 0.0
C3254 C -0.00421 0.67389 0.96832 0.0
C3255 C 0.91991 0.67815 0.91992 0.0
C3256 C 0.96601 0.60869 0.94469 0.0
C3257 C 0.95802 0.60345 0.96561 0.0
C3258 C 0.96375 0.63201 0.93618 0.0
C3259 C 0.95312 0.6503 0.9489 0.0
C3260 C 0.94234 0.64424 0.96873 0.0
C3261 C 0.94512 0.62084 0.97699 0.0
C3262 C 0.97515 0.63768 0.91477 0.0
C3263 C 0.93 0.66301 0.9823 0.0
H3264 H 0.00247 0.71812 0.95172 0.0
H3265 H 0.93872 0.72177 0.91094 0.0
H3266 H 0.98601 0.66768 0.98272 0.0
H3267 H 0.00289 0.65761 0.96007 0.0
H3268 H 0.01105 0.68542 0.97427 0.0
H3269 H 0.90754 0.69232 0.91386 0.0
H3270 H 0.92396 0.66616 0.90584 0.0
H3271 H 0.9108 0.66704 0.93218 0.0
H3272 H 0.97596 0.59524 0.93585 0.0
H3273 H 0.93855 0.61661 -0.00698 0.0
H3274 H -0.0081 0.64809 0.91818 0.0
H3275 H 0.96329 0.64903 0.90438 0.0
H3276 H 0.97945 0.62101 0.90541 0.0
H3277 H 0.94355 0.67451 -0.00879 0.0
H3278 H 0.91847 0.65455 -0.00544 0.0
H3279 H 0.91901 0.67498 0.97167 0.0
C3280 C 0.11252 0.23337 0.67262 0.0
C3281 C 0.09512 0.24834 0.68131 0.0
C3282 C 0.13469 0.23053 0.68358 0.0
C3283 C 0.13988 0.24364 0.70332 0.0
C3284 C 0.12244 0.25902 0.71203 0.0
C3285 C 0.10009 0.26084 0.70111 0.0
C3286 C 0.15251 0.21342 0.67409 0.0
C3287 C 0.12754 0.27392 0.73262 0.0
C3288 C 0.19074 0.22451 0.74213 0.0
C3289 C 0.20941 0.23932 0.73536 0.0
C3290 C 0.16811 0.22531 0.73155 0.0
C3291 C 0.16389 0.24196 0.71438 0.0
C3292 C 0.18267 0.25713 0.70771 0.0
C3293 C 0.20527 0.25533 0.71802 0.0
C3294 C 0.14875 0.20831 0.73867 0.0
C3295 C 0.1788 0.27565 0.68997 0.0
H3296 H 0.1086 0.22343 0.65745 0.0
H3297 H 0.08666 0.27246 0.70781 0.0
H3298 H 0.16858 0.22364 0.66937 0.0
H3299 H 0.15829 0.20013 0.68662 0.0
H3300 H 0.14516 0.20342 0.65941 0.0
H3301 H 0.11218 0.28523 0.73708 0.0
H3302 H 0.13207 0.26192 0.74655 0.0
H3303 H 0.14316 0.28595 0.73033 0.0
H3304 H 0.19392 0.21212 0.75553 0.0
H3305 H 0.21957 0.26709 0.71297 0.0
H3306 H 0.1416 0.19757 0.72436 0.0
H3307 H 0.13379 0.2188 0.74516 0.0
H3308 H 0.15521 0.19567 0.75153 0.0
H3309 H 0.17317 0.26653 0.67431 0.0
H3310 H 0.19508 0.2866 0.6872 0.0
H3311 H 0.16432 0.28805 0.69448 0.0
C3312 C 0.50831 0.68034 0.09569 0.0
C3313 C 0.5227 0.68014 0.11495 0.0
C3314 C 0.50857 0.66096 0.08048 0.0
C3315 C 0.52397 0.64121 0.0844 0.0
C3316 C 0.53931 0.64153 0.10332 0.0
C3317 C 0.53829 0.66081 0.11845 0.0
C3318 C 0.49162 0.66109 0.06074 0.0
C3319 C 0.55633 0.62112 0.10795 0.0
C3320 C 0.50782 0.57803 0.06338 0.0
C3321 C 0.52231 0.57546 0.04525 0.0
C3322 C 0.50757 0.59964 0.07566 0.0
C3323 C 0.52256 0.61915 0.07 0.0
C3324 C 0.53704 0.61686 0.05152 0.0
C3325 C 0.53655 0.59509 0.03918 0.0
C3326 C 0.49154 0.60137 0.09498 0.0
C3327 C 0.55359 0.63708 0.04522 0.0
H3328 H 0.49622 0.69522 0.09291 0.0
H3329 H 0.54971 0.66069 0.13314 0.0
H3330 H 0.5013 0.65755 0.04551 0.0
H3331 H 0.47821 0.64636 0.06216 0.0
H3332 H 0.48215 0.67855 0.05911 0.0
H3333 H 0.56873 0.62526 0.12213 0.0
H3334 H 0.54616 0.60441 0.11156 0.0
H3335 H 0.56693 0.61724 0.09334 0.0
H3336 H 0.49653 0.56304 0.06803 0.0
H3337 H 0.5478 0.59318 0.02521 0.0
H3338 H 0.48035 0.61774 0.09366 0.0
H3339 H 0.50248 0.60316 0.11042 0.0
H3340 H 0.4797 0.58526 0.0962 0.0
H3341 H 0.54361 0.65416 0.04321 0.0
H3342 H 0.56272 0.633 0.02976 0.0
H3343 H 0.56727 0.64023 0.05855 0.0
C3344 C 0.04122 0.76948 0.82413 0.0
C3345 C 0.04978 0.76841 0.846 0.0
C3346 C 0.05685 0.76877 0.80678 0.0
C3347 C 0.08152 0.76723 0.81154 0.0
C3348 C 0.0902 0.76545 0.83356 0.0
C3349 C 0.07415 0.76594 0.85057 0.0
C3350 C 0.04702 0.7703 0.78348 0.0
C3351 C 0.1165 0.76374 0.83922 0.0
C3352 C 0.12888 0.7481 0.77335 0.0
C3353 C 0.14049 0.77033 0.77027 0.0
C3354 C 0.1079 0.74697 0.78497 0.0
C3355 C 0.09866 0.76853 0.7938 0.0
C3356 C 0.10871 0.7912 0.78849 0.0
C3357 C 0.12949 0.79183 0.77658 0.0
C3358 C 0.09726 0.72251 0.78984 0.0
C3359 C 0.09915 0.81462 0.79746 0.0
H3360 H 0.0223 0.7712 0.82054 0.0
H3361 H 0.08075 0.76504 0.86745 0.0
H3362 H 0.0523 0.78786 0.77639 0.0
H3363 H 0.05453 0.7558 0.77313 0.0
H3364 H 0.0273 0.76875 0.78249 0.0
H3365 H 0.12022 0.76203 0.85714 0.0
H3366 H 0.12409 0.74786 0.83074 0.0
H3367 H 0.1259 0.7801 0.83347 0.0
H3368 H 0.13726 0.73138 0.76851 0.0
H3369 H 0.1382 0.80905 0.77374 0.0
H3370 H 0.07754 0.72306 0.78902 0.0
H3371 H 0.10286 0.71721 0.80672 0.0
H3372 H 0.10323 0.70833 0.77824 0.0
H3373 H 0.07947 0.81497 0.79565 0.0
H3374 H 0.10659 0.83064 0.78915 0.0
H3375 H 0.10392 0.81617 0.81524 0.0
C3376 C 0.00098 0.33537 0.61625 0.0
C3377 C 0.01759 0.31786 0.61047 0.0
C3378 C -0.00141 0.35688 0.60436 0.0
C3379 C 0.01364 0.36132 0.58667 0.0
C3380 C 0.03054 0.34374 0.58085 0.0
C3381 C 0.03207 0.32207 0.59263 0.0
C3382 C 0.97997 0.37488 0.61077 0.0
C3383 C 0.04736 0.34804 0.5625 0.0
C3384 C -0.00379 0.40885 0.54446 0.0
C3385 C 0.00863 0.42931 0.55274 0.0
C3386 C -0.00247 0.38662 0.5554 0.0
C3387 C 0.01217 0.38466 0.57469 0.0
C3388 C 0.02521 0.40517 0.58276 0.0
C3389 C 0.02301 0.4273 0.57188 0.0
C3390 C 0.9829 0.36535 0.54657 0.0
C3391 C 0.04151 0.40375 0.60291 0.0
H3392 H -0.01037 0.33211 0.62993 0.0
H3393 H 0.04503 0.30865 0.58819 0.0
H3394 H 0.98866 0.39208 0.61639 0.0
H3395 H 0.96824 0.37907 0.59633 0.0
H3396 H 0.96877 0.36811 0.62408 0.0
H3397 H 0.05951 0.3326 0.56005 0.0
H3398 H 0.03716 0.35115 0.54692 0.0
H3399 H 0.05824 0.36458 0.56614 0.0
H3400 H 0.98496 0.41039 0.52976 0.0
H3401 H 0.03282 0.44303 0.57823 0.0
H3402 H 0.97061 0.3591 0.55922 0.0
H3403 H -0.00534 0.35 0.54274 0.0
H3404 H 0.97226 0.36988 0.53151 0.0
H3405 H 0.03107 0.39912 0.6174 0.0
H3406 H 0.05126 0.42104 0.60645 0.0
H3407 H 0.05467 0.38917 0.60074 0.0
C3408 C 0.39998 0.30977 0.32973 0.0
C3409 C 0.41605 0.30705 0.34752 0.0
C3410 C 0.37649 0.3013 0.33082 0.0
C3411 C 0.36901 0.29005 0.35026 0.0
C3412 C 0.38438 0.28982 0.36905 0.0
C3413 C 0.40783 0.29819 0.36741 0.0
C3414 C 0.36034 0.30251 0.31052 0.0
C3415 C 0.37692 0.27893 0.39034 0.0
C3416 C 0.3043 0.27517 0.34177 0.0
C3417 C 0.30633 0.2536 0.32958 0.0
C3418 C 0.32462 0.28633 0.35151 0.0
C3419 C 0.34691 0.2752 0.34927 0.0
C3420 C 0.34798 0.25119 0.34096 0.0
C3421 C 0.32746 0.24054 0.33125 0.0
C3422 C 0.32272 0.31142 0.3613 0.0
C3423 C 0.37135 0.23826 0.33906 0.0
H3424 H 0.40617 0.31692 0.31444 0.0
H3425 H 0.42007 0.29658 0.38145 0.0
H3426 H 0.36826 0.31336 0.29736 0.0
H3427 H 0.35662 0.28396 0.30399 0.0
H3428 H 0.34307 0.3106 0.3146 0.0
H3429 H 0.38131 0.2594 0.39035 0.0
H3430 H 0.38666 0.28764 0.40457 0.0
H3431 H 0.35752 0.28063 0.3926 0.0
H3432 H 0.28781 0.28516 0.34086 0.0
H3433 H 0.32883 0.22361 0.3222 0.0
H3434 H 0.3286 0.32492 0.34927 0.0
H3435 H 0.33448 0.31347 0.37621 0.0
H3436 H 0.30414 0.31561 0.36556 0.0
H3437 H 0.38153 0.24646 0.32571 0.0
H3438 H 0.3687 0.21868 0.33524 0.0
H3439 H 0.38226 0.2402 0.35448 0.0
C3440 C 0.46934 0.51076 0.37102 0.0
C3441 C 0.45156 0.52241 0.35859 0.0
C3442 C 0.47485 0.51794 0.39271 0.0
C3443 C 0.46237 0.53738 0.40217 0.0
C3444 C 0.44498 0.5498 0.38952 0.0
C3445 C 0.43967 0.54207 0.36787 0.0
C3446 C 0.49351 0.50414 0.40572 0.0
C3447 C 0.43157 0.57077 0.39901 0.0
C3448 C 0.4646 0.53124 0.46349 0.0
C3449 C 0.48589 0.54372 0.46886 0.0
C3450 C 0.45518 0.53091 0.44192 0.0
C3451 C 0.46718 0.54374 0.4256 0.0
C3452 C 0.4867 0.55906 0.43163 0.0
C3453 C 0.49594 0.55879 0.45326 0.0
C3454 C 0.43418 0.51448 0.43619 0.0
C3455 C 0.49959 0.5735 0.41479 0.0
H3456 H 0.47856 0.49553 0.36402 0.0
H3457 H 0.42597 0.55125 0.35832 0.0
H3458 H 0.50705 0.51675 0.41321 0.0
H3459 H 0.48504 0.49442 0.41927 0.0
H3460 H 0.50275 0.49072 0.39543 0.0
H3461 H 0.42057 0.58016 0.38633 0.0
H3462 H 0.4197 0.56414 0.41183 0.0
H3463 H 0.44412 0.58407 0.40701 0.0
H3464 H 0.45658 0.51973 0.47553 0.0
H3465 H 0.5122 0.56881 0.45745 0.0
H3466 H 0.4406 0.49772 0.42822 0.0
H3467 H 0.42162 0.52324 0.42442 0.0
H3468 H 0.42442 0.50929 0.45097 0.0
H3469 H 0.51122 0.56127 0.40549 0.0
H3470 H 0.5109 0.58805 0.42259 0.0
H3471 H 0.48683 0.58174 0.40286 0.0
C3472 C 0.27235 0.65654 0.06508 0.0
C3473 C 0.25733 0.63686 0.05949 0.0
C3474 C 0.26999 0.66928 0.08496 0.0
C3475 C 0.25179 0.6625 0.09921 0.0
C3476 C 0.23649 0.64274 0.09355 0.0
C3477 C 0.23963 0.62999 0.07389 0.0
C3478 C 0.28699 0.68991 0.09074 0.0
C3479 C 0.21657 0.63528 0.10811 0.0
C3480 C 0.25655 0.67964 0.15959 0.0
C3481 C 0.24228 0.70024 0.16033 0.0
C3482 C 0.26016 0.66746 0.13972 0.0
C3483 C 0.24882 0.67584 0.12022 0.0
C3484 C 0.2342 0.69654 0.12092 0.0
C3485 C 0.23135 0.70872 0.14099 0.0
C3486 C 0.27625 0.64576 0.13956 0.0
C3487 C 0.22141 0.70566 0.10053 0.0
H3488 H 0.28606 0.66187 0.05399 0.0
H3489 H 0.22774 0.61499 0.0695 0.0
H3490 H 0.277 0.70697 0.09254 0.0
H3491 H 0.29625 0.6865 0.10675 0.0
H3492 H 0.30055 0.69249 0.07814 0.0
H3493 H 0.20583 0.61991 0.10101 0.0
H3494 H 0.22395 0.62994 0.12442 0.0
H3495 H 0.20461 0.6508 0.1108 0.0
H3496 H 0.26532 0.67338 0.17456 0.0
H3497 H 0.22038 0.72471 0.14166 0.0
H3498 H 0.29067 0.64862 0.12787 0.0
H3499 H 0.26604 0.62944 0.13388 0.0
H3500 H 0.28443 0.64215 0.15603 0.0
H3501 H 0.23446 0.71038 0.08801 0.0
H3502 H 0.2105 0.72184 0.10392 0.0
H3503 H 0.20961 0.6912 0.09332 0.0
C3504 C 0.07826 0.47923 0.85787 0.0
C3505 C 0.102 0.48685 0.857 0.0
C3506 C 0.06832 0.47356 0.87789 0.0
C3507 C 0.08231 0.47647 0.8975 0.0
C3508 C 0.10682 0.48253 0.89652 0.0
C3509 C 0.1165 0.4874 0.8761 0.0
C3510 C 0.04229 0.46661 0.87817 0.0
C3511 C 0.12221 0.48626 0.91709 0.0
C3512 C 0.04775 0.50233 0.94404 0.0
C3513 C 0.04526 0.48236 0.95772 0.0
C3514 C 0.06035 0.50065 0.92479 0.0
C3515 C 0.07019 0.47821 0.91865 0.0
C3516 C 0.06753 0.4578 0.9322 0.0
C3517 C 0.05534 0.46021 0.95186 0.0
C3518 C 0.06317 0.52303 0.91105 0.0
C3519 C 0.07735 0.43351 0.92583 0.0
H3520 H 0.06721 0.47859 0.84292 0.0
H3521 H 0.13489 0.49334 0.87527 0.0
H3522 H 0.03935 0.45187 0.88997 0.0
H3523 H 0.03189 0.48244 0.88352 0.0
H3524 H 0.03527 0.46066 0.86169 0.0
H3525 H 0.14145 0.4866 0.91353 0.0
H3526 H 0.11772 0.5038 0.92493 0.0
H3527 H 0.11889 0.47184 0.92911 0.0
H3528 H 0.04042 0.51964 0.94871 0.0
H3529 H 0.05353 0.44481 0.96252 0.0
H3530 H 0.05409 0.52021 0.89477 0.0
H3531 H 0.08228 0.52657 0.90825 0.0
H3532 H 0.05564 0.53938 0.91888 0.0
H3533 H 0.06907 0.42736 0.90991 0.0
H3534 H 0.07406 0.41952 0.93832 0.0
H3535 H 0.09679 0.43504 0.92355 0.0
C3536 C 0.28468 0.31859 0.55517 0.0
C3537 C 0.26231 0.32858 0.5586 0.0
C3538 C 0.29655 0.30569 0.57183 0.0
C3539 C 0.28621 0.30399 0.59257 0.0
C3540 C 0.26352 0.31403 0.59598 0.0
C3541 C 0.25161 0.32575 0.57874 0.0
C3542 C 0.32011 0.29414 0.56732 0.0
C3543 C 0.25209 0.31309 0.61804 0.0
C3544 C 0.29705 0.26034 0.63798 0.0
C3545 C 0.30971 0.27504 0.65351 0.0
C3546 C 0.29208 0.26838 0.61669 0.0
C3547 C 0.29883 0.29212 0.61111 0.0
C3548 C 0.31372 0.30604 0.62571 0.0
C3549 C 0.31957 0.29698 0.64653 0.0
C3550 C 0.27731 0.25245 0.60106 0.0
C3551 C 0.3211 0.33162 0.62049 0.0
H3552 H 0.29284 0.32086 0.53947 0.0
H3553 H 0.23442 0.33382 0.58135 0.0
H3554 H 0.33463 0.30383 0.57668 0.0
H3555 H 0.32015 0.27508 0.57283 0.0
H3556 H 0.32414 0.29449 0.54963 0.0
H3557 H 0.23507 0.3231 0.61822 0.0
H3558 H 0.24846 0.29403 0.62242 0.0
H3559 H 0.26436 0.32095 0.63096 0.0
H3560 H 0.28923 0.2433 0.64266 0.0
H3561 H 0.33048 0.308 0.65782 0.0
H3562 H 0.28281 0.25472 0.5839 0.0
H3563 H 0.25832 0.25756 0.6018 0.0
H3564 H 0.27877 0.23304 0.6054 0.0
H3565 H 0.32674 0.33299 0.60333 0.0
H3566 H 0.33583 0.33835 0.63165 0.0
H3567 H 0.30563 0.34369 0.62234 0.0
C3568 C 0.45453 0.49159 0.22728 0.0
C3569 C 0.43022 0.49591 0.22954 0.0
C3570 C 0.46369 0.48663 0.20661 0.0
C3571 C 0.4482 0.48641 0.1878 0.0
C3572 C 0.42356 0.49025 0.19005 0.0
C3573 C 0.41484 0.49478 0.21095 0.0
C3574 C 0.49002 0.48229 0.20484 0.0
C3575 C 0.40657 0.49053 0.17033 0.0
C3576 C 0.47531 0.50366 0.13425 0.0
C3577 C 0.47699 0.48117 0.12358 0.0
C3578 C 0.4658 0.50556 0.15507 0.0
C3579 C 0.45806 0.48438 0.16561 0.0
C3580 C 0.45968 0.46156 0.15491 0.0
C3581 C 0.46895 0.46025 0.13383 0.0
C3582 C 0.46397 0.53027 0.16574 0.0
C3583 C 0.45185 0.4386 0.16582 0.0
H3584 H 0.46643 0.49218 0.24165 0.0
H3585 H 0.39602 0.49809 0.21263 0.0
H3586 H 0.49302 0.46544 0.19528 0.0
H3587 H 0.49828 0.4974 0.19593 0.0
H3588 H 0.49923 0.48083 0.22118 0.0
H3589 H 0.38774 0.49225 0.17501 0.0
H3590 H 0.41107 0.50595 0.1597 0.0
H3591 H 0.40829 0.47373 0.16038 0.0
H3592 H 0.48121 0.51988 0.12611 0.0
H3593 H 0.47031 0.44289 0.12551 0.0
H3594 H 0.47459 0.53091 0.18142 0.0
H3595 H 0.44521 0.53389 0.16968 0.0
H3596 H 0.47037 0.54497 0.1551 0.0
H3597 H 0.46203 0.4364 0.18158 0.0
H3598 H 0.45446 0.4223 0.15536 0.0
H3599 H 0.43277 0.43967 0.16972 0.0
C3600 C 0.26658 0.69893 0.93487 0.0
C3601 C 0.26809 0.67392 0.93097 0.0
C3602 C 0.26561 0.71525 0.91738 0.0
C3603 C 0.26619 0.70627 0.89557 0.0
C3604 C 0.26789 0.68106 0.89157 0.0
C3605 C 0.26884 0.66522 0.90931 0.0
C3606 C 0.26378 0.74201 0.9222 0.0
C3607 C 0.26862 0.67073 0.86852 0.0
C3608 C 0.24392 0.73851 0.84465 0.0
C3609 C 0.26548 0.74416 0.83496 0.0
C3610 C 0.24373 0.72787 0.86543 0.0
C3611 C 0.2656 0.72296 0.87667 0.0
C3612 C 0.28723 0.73086 0.86787 0.0
C3613 C 0.28691 0.74137 0.8471 0.0
C3614 C 0.22026 0.71992 0.87439 0.0
C3615 C 0.31092 0.72617 0.87939 0.0
H3616 H 0.26586 0.70576 0.95158 0.0
H3617 H 0.26994 0.64593 0.90615 0.0
H3618 H 0.27893 0.75186 0.91511 0.0
H3619 H 0.24725 0.74914 0.91434 0.0
H3620 H 0.26368 0.74609 0.94008 0.0
H3621 H 0.26989 0.65069 0.86826 0.0
H3622 H 0.25238 0.67589 0.85891 0.0
H3623 H 0.28413 0.67833 0.86008 0.0
H3624 H 0.2273 0.74069 0.83537 0.0
H3625 H 0.30363 0.74602 0.83979 0.0
H3626 H 0.21967 0.72408 0.8922 0.0
H3627 H 0.21818 0.70003 0.87223 0.0
H3628 H 0.20496 0.72872 0.86582 0.0
H3629 H 0.31031 0.73076 0.89711 0.0
H3630 H 0.3256 0.73669 0.87219 0.0
H3631 H 0.31507 0.70664 0.87796 0.0
C3632 C 0.11827 0.51007 0.71281 0.0
C3633 C 0.10797 0.50785 0.73327 0.0
C3634 C 0.10428 0.51542 0.69405 0.0
C3635 C 0.0795 0.51876 0.69594 0.0
C3636 C 0.06915 0.51729 0.71667 0.0
C3637 C 0.0835 0.51173 0.7351 0.0
C3638 C 0.11587 0.51671 0.67212 0.0
C3639 C 0.0428 0.52085 0.71928 0.0
C3640 C 0.04568 0.54703 0.64799 0.0
C3641 C 0.03649 0.52639 0.63694 0.0
C3642 C 0.05939 0.54493 0.66754 0.0
C3643 C 0.06412 0.52166 0.67597 0.0
C3644 C 0.05451 0.50083 0.66508 0.0
C3645 C 0.04082 0.50346 0.64572 0.0
C3646 C 0.06922 0.56751 0.67891 0.0
C3647 C 0.05928 0.47568 0.67351 0.0
H3648 H 0.13719 0.50716 0.71137 0.0
H3649 H 0.07548 0.51027 0.75094 0.0
H3650 H 0.10889 0.50183 0.66123 0.0
H3651 H 0.11143 0.53399 0.66398 0.0
H3652 H 0.13554 0.51521 0.67367 0.0
H3653 H 0.0379 0.52111 0.73677 0.0
H3654 H 0.0371 0.53807 0.71169 0.0
H3655 H 0.03269 0.506 0.71065 0.0
H3656 H 0.04234 0.56476 0.64121 0.0
H3657 H 0.03425 0.48741 0.63696 0.0
H3658 H 0.08895 0.56737 0.67901 0.0
H3659 H 0.06395 0.56798 0.69627 0.0
H3660 H 0.06295 0.58427 0.67081 0.0
H3661 H 0.07867 0.47214 0.67367 0.0
H3662 H 0.04998 0.46142 0.66333 0.0
H3663 H 0.05347 0.47416 0.69063 0.0
C3664 C 0.1729 0.37405 0.43139 0.0
C3665 C 0.19011 0.36335 0.44522 0.0
C3666 C 0.16625 0.36336 0.41106 0.0
C3667 C 0.17779 0.34208 0.40422 0.0
C3668 C 0.19374 0.33023 0.4189 0.0
C3669 C 0.19945 0.34087 0.43938 0.0
C3670 C 0.14824 0.37579 0.39629 0.0
C3671 C 0.20665 0.30762 0.41218 0.0
C3672 C 0.16696 0.30513 0.35207 0.0
C3673 C 0.18482 0.31458 0.33909 0.0
C3674 C 0.16267 0.31541 0.37274 0.0
C3675 C 0.17721 0.33492 0.3807 0.0
C3676 C 0.1941 0.3455 0.36695 0.0
C3677 C 0.19747 0.33536 0.34623 0.0
C3678 C 0.14378 0.30431 0.38653 0.0
C3679 C 0.21031 0.36607 0.37488 0.0
H3680 H 0.16525 0.39119 0.4361 0.0
H3681 H 0.21265 0.33248 0.45011 0.0
H3682 H 0.15762 0.38642 0.38387 0.0
H3683 H 0.13657 0.36233 0.38739 0.0
H3684 H 0.13701 0.38836 0.40569 0.0
H3685 H 0.21691 0.29957 0.42612 0.0
H3686 H 0.19388 0.29383 0.40536 0.0
H3687 H 0.21919 0.31205 0.39912 0.0
H3688 H 0.1571 0.28909 0.3465 0.0
H3689 H 0.21156 0.3425 0.33639 0.0
H3690 H 0.13514 0.31824 0.39672 0.0
H3691 H 0.15205 0.29092 0.39774 0.0
H3692 H 0.12993 0.29475 0.37616 0.0
H3693 H 0.19975 0.38128 0.38124 0.0
H3694 H 0.22161 0.373 0.3617 0.0
H3695 H 0.22214 0.35979 0.38855 0.0
C3696 C 0.31456 0.39927 0.50293 0.0
C3697 C 0.30101 0.41693 0.492 0.0
C3698 C 0.3386 0.40336 0.50861 0.0
C3699 C 0.3494 0.4255 0.50297 0.0
C3700 C 0.33641 0.44255 0.49036 0.0
C3701 C 0.31228 0.43808 0.48505 0.0
C3702 C 0.3519 0.38472 0.52199 0.0
C3703 C 0.34757 0.4662 0.48374 0.0
C3704 C 0.3985 0.4527 0.53978 0.0
C3705 C 0.4186 0.44804 0.52758 0.0
C3706 C 0.37592 0.44466 0.53228 0.0
C3707 C 0.37347 0.43188 0.51202 0.0
C3708 C 0.39383 0.42623 0.5001 0.0
C3709 C 0.41622 0.43435 0.50808 0.0
C3710 C 0.35458 0.45064 0.54563 0.0
C3711 C 0.39187 0.4127 0.47843 0.0
H3712 H 0.30609 0.38271 0.50816 0.0
H3713 H 0.302 0.45173 0.47648 0.0
H3714 H 0.3695 0.38111 0.51504 0.0
H3715 H 0.35517 0.39177 0.53897 0.0
H3716 H 0.34184 0.36735 0.52281 0.0
H3717 H 0.33594 0.47625 0.47199 0.0
H3718 H 0.35106 0.47778 0.49853 0.0
H3719 H 0.36491 0.46299 0.47614 0.0
H3720 H 0.4004 0.4632 0.5549 0.0
H3721 H 0.43173 0.43108 0.49843 0.0
H3722 H 0.34415 0.43396 0.54876 0.0
H3723 H 0.34274 0.46304 0.53629 0.0
H3724 H 0.35971 0.4594 0.56163 0.0
H3725 H 0.38106 0.39594 0.47996 0.0
H3726 H 0.40956 0.40779 0.47227 0.0
H3727 H 0.38265 0.42411 0.46602 0.0
C3728 C 0.8347 0.04482 0.4788 0.0
C3729 C 0.83084 0.06965 0.48174 0.0
C3730 C 0.85782 0.03568 0.4781 0.0
C3731 C 0.87751 0.05169 0.48104 0.0
C3732 C 0.87371 0.07691 0.48312 0.0
C3733 C 0.85035 0.08563 0.48316 0.0
C3734 C 0.86113 0.00875 0.4753 0.0
C3735 C 0.89424 0.09451 0.48675 0.0
C3736 C 0.93193 0.02522 0.50956 0.0
C3737 C 0.94756 0.02267 0.49229 0.0
C3738 C 0.90927 0.03495 0.50608 0.0
C3739 C 0.90176 0.04177 0.48467 0.0
C3740 C 0.91727 0.03884 0.46704 0.0
C3741 C 0.94018 0.0296 0.47111 0.0
C3742 C 0.89348 0.0382 0.52543 0.0
C3743 C 0.9096 0.04538 0.44392 0.0
H3744 H 0.81961 0.03245 0.4774 0.0
H3745 H 0.84738 0.10484 0.48549 0.0
H3746 H 0.87464 0.005 0.46291 0.0
H3747 H 0.86773 0.00103 0.49105 0.0
H3748 H 0.84427 -0.00073 0.4702 0.0
H3749 H 0.88845 0.11364 0.48594 0.0
H3750 H 0.90282 0.09148 0.50314 0.0
H3751 H 0.90793 0.09149 0.47438 0.0
H3752 H 0.93765 0.02018 0.52602 0.0
H3753 H 0.95224 0.02762 0.45774 0.0
H3754 H 0.87697 0.02719 0.52289 0.0
H3755 H 0.88812 0.0574 0.52689 0.0
H3756 H 0.90237 0.03281 0.54114 0.0
H3757 H 0.89322 0.03508 0.43885 0.0
H3758 H 0.92358 0.04152 0.43197 0.0
H3759 H 0.90523 0.06488 0.44318 0.0
C3760 C 0.67922 0.1026 0.29765 0.0
C3761 C 0.68415 0.0787 0.29165 0.0
C3762 C 0.69587 0.12118 0.2945 0.0
C3763 C 0.71746 0.11576 0.28429 0.0
C3764 C 0.72293 0.09147 0.27909 0.0
C3765 C 0.70631 0.07312 0.28318 0.0
C3766 C 0.68982 0.14677 0.30105 0.0
C3767 C 0.74552 0.08507 0.26779 0.0
C3768 C 0.7394 0.16828 0.25119 0.0
C3769 C 0.75779 0.17759 0.2649 0.0
C3770 C 0.72715 0.14716 0.2567 0.0
C3771 C 0.73285 0.13579 0.27688 0.0
C3772 C 0.75198 0.14477 0.29047 0.0
C3773 C 0.76449 0.16549 0.28413 0.0
C3774 C 0.70738 0.13768 0.24141 0.0
C3775 C 0.75812 0.13368 0.31241 0.0
H3776 H 0.66212 0.10682 0.30434 0.0
H3777 H 0.70999 0.05462 0.27835 0.0
H3778 H 0.7051 0.15552 0.31016 0.0
H3779 H 0.68607 0.15755 0.28613 0.0
H3780 H 0.67399 0.14744 0.31143 0.0
H3781 H 0.74819 0.0652 0.26679 0.0
H3782 H 0.74477 0.09228 0.25088 0.0
H3783 H 0.7612 0.09353 0.2765 0.0
H3784 H 0.73424 0.17789 0.2364 0.0
H3785 H 0.77843 0.17315 0.29493 0.0
H3786 H 0.68995 0.14058 0.24896 0.0
H3787 H 0.70927 0.11792 0.2386 0.0
H3788 H 0.70715 0.14683 0.22529 0.0
H3789 H 0.74452 0.13895 0.32428 0.0
H3790 H 0.77583 0.13991 0.31903 0.0
H3791 H 0.75799 0.11364 0.31124 0.0
C3792 C 0.68836 0.94756 -0.00061 0.0
C3793 C 0.68404 0.92516 0.00915 0.0
C3794 C 0.67032 0.96479 -0.00263 0.0
C3795 C 0.64758 0.95932 0.00526 0.0
C3796 C 0.64339 0.93704 0.01575 0.0
C3797 C 0.66169 0.92022 0.01754 0.0
C3798 C 0.67538 0.98842 0.9862 0.0
C3799 C 0.61936 0.93063 0.02458 0.0
C3800 C 0.59851 0.00175 0.01876 0.0
C3801 C 0.5817 -0.00459 0.00207 0.0
C3802 C 0.62144 -0.00783 0.01882 0.0
C3803 C 0.62749 0.97601 0.00178 0.0
C3804 C 0.61164 0.97214 0.98352 0.0
C3805 C 0.58883 0.98193 0.98388 0.0
C3806 C 0.6381 -0.00287 0.03835 0.0
C3807 C 0.61765 0.95536 0.96483 0.0
H3808 H 0.70567 0.95145 -0.00709 0.0
H3809 H 0.65835 0.90301 0.02526 0.0
H3810 H 0.6662 0.98842 0.9698 0.0
H3811 H 0.66841 0.00387 -0.00427 0.0
H3812 H 0.69472 -0.00862 0.984 0.0
H3813 H 0.61935 0.91289 0.03293 0.0
H3814 H 0.61387 0.94474 0.03642 0.0
H3815 H 0.60575 0.92991 0.01095 0.0
H3816 H 0.59324 0.01259 0.03268 0.0
H3817 H 0.57605 0.97744 0.97068 0.0
H3818 H 0.65675 -0.0009 0.03324 0.0
H3819 H 0.63736 0.98164 0.04972 0.0
H3820 H 0.63309 0.01374 0.04747 0.0
H3821 H 0.63622 0.95837 0.95988 0.0
H3822 H 0.60549 0.95774 0.95028 0.0
H3823 H 0.61609 0.93633 0.97025 0.0
C3824 C 0.38101 0.41352 0.31584 0.0
C3825 C 0.37302 0.43602 0.30846 0.0
C3826 C 0.36585 0.39321 0.31492 0.0
C3827 C 0.34252 0.39545 0.30575 0.0
C3828 C 0.33385 0.41848 0.29983 0.0
C3829 C 0.34916 0.4386 0.30153 0.0
C3830 C 0.37547 0.36905 0.32206 0.0
C3831 C 0.3092 0.42153 0.28967 0.0
C3832 C 0.32042 0.34177 0.27164 0.0
C3833 C 0.30329 0.33181 0.28501 0.0
C3834 C 0.33302 0.36273 0.27815 0.0
C3835 C 0.32883 0.37348 0.29885 0.0
C3836 C 0.31168 0.36332 0.31256 0.0
C3837 C 0.29878 0.3427 0.30529 0.0
C3838 C 0.3509 0.37327 0.26289 0.0
C3839 C 0.30742 0.37384 0.33503 0.0
H3840 H 0.39937 0.41158 0.32152 0.0
H3841 H 0.34292 0.45599 0.29582 0.0
H3842 H 0.36181 0.35841 0.33058 0.0
H3843 H 0.38051 0.35846 0.3074 0.0
H3844 H 0.3915 0.37117 0.33313 0.0
H3845 H 0.30406 0.44086 0.28879 0.0
H3846 H 0.30864 0.41381 0.27276 0.0
H3847 H 0.29578 0.41161 0.29907 0.0
H3848 H 0.3239 0.33316 0.256 0.0
H3849 H 0.28587 0.33454 0.31581 0.0
H3850 H 0.36902 0.37256 0.27064 0.0
H3851 H 0.3469 0.39256 0.25975 0.0
H3852 H 0.35102 0.36341 0.2469 0.0
H3853 H 0.32423 0.37384 0.34512 0.0
H3854 H 0.29365 0.36354 0.34376 0.0
H3855 H 0.30175 0.39294 0.33366 0.0
C3856 C 0.17576 0.60946 0.00251 0.0
C3857 C 0.18964 0.59732 0.98728 0.0
C3858 C 0.15401 0.59971 0.00885 0.0
C3859 C 0.14573 0.57757 -0.00062 0.0
C3860 C 0.15928 0.56561 0.98344 0.0
C3861 C 0.18126 0.57552 0.97775 0.0
C3862 C 0.1402 0.61278 0.02612 0.0
C3863 C 0.15068 0.54222 0.97262 0.0
C3864 C 0.10159 0.53843 0.02889 0.0
C3865 C 0.08018 0.54423 0.01786 0.0
C3866 C 0.12302 0.54973 0.02349 0.0
C3867 C 0.12301 0.56676 0.00633 0.0
C3868 C 0.10136 0.57308 -0.00449 0.0
C3869 C 0.08016 0.56193 0.00158 0.0
C3870 C 0.14575 0.54298 0.03572 0.0
C3871 C 0.10072 0.59087 0.9769 0.0
H3872 H 0.18225 0.62624 0.01007 0.0
H3873 H 0.19195 0.56615 0.96594 0.0
H3874 H 0.12207 0.61695 0.01961 0.0
H3875 H 0.13815 0.60096 0.04052 0.0
H3876 H 0.14905 0.62995 0.03175 0.0
H3877 H 0.16277 0.53584 0.95979 0.0
H3878 H 0.14924 0.52793 0.98512 0.0
H3879 H 0.13265 0.5446 0.96499 0.0
H3880 H 0.10165 0.52475 0.04147 0.0
H3881 H 0.06369 0.56627 -0.00721 0.0
H3882 H 0.15505 0.5595 0.04226 0.0
H3883 H 0.15789 0.53393 0.02434 0.0
H3884 H 0.14248 0.53065 0.04957 0.0
H3885 H 0.10913 0.60829 0.98228 0.0
H3886 H 0.08229 0.59441 0.97067 0.0
H3887 H 0.11109 0.58371 0.96314 0.0
C3888 C 0.67083 0.91221 0.29924 0.0
C3889 C 0.68271 0.934 0.30473 0.0
C3890 C 0.68274 0.89011 0.30017 0.0
C3891 C 0.70702 0.88979 0.30712 0.0
C3892 C 0.71876 0.91156 0.31386 0.0
C3893 C 0.7065 0.93349 0.31239 0.0
C3894 C 0.66969 0.8673 0.29259 0.0
C3895 C 0.74451 0.9118 0.32176 0.0
C3896 C 0.73095 0.82712 0.31861 0.0
C3897 C 0.7409 0.82127 0.29848 0.0
C3898 C 0.72091 0.84994 0.32218 0.0
C3899 C 0.72055 0.86702 0.30508 0.0
C3900 C 0.73146 0.86155 0.28509 0.0
C3901 C 0.74165 0.83882 0.2821 0.0
C3902 C 0.70986 0.85539 0.34387 0.0
C3903 C 0.73127 0.87921 0.26637 0.0
H3904 H 0.65242 0.9125 0.29333 0.0
H3905 H 0.71568 0.95029 0.31685 0.0
H3906 H 0.67774 0.86012 0.2775 0.0
H3907 H 0.67139 0.85314 0.30525 0.0
H3908 H 0.65047 0.87043 0.28896 0.0
H3909 H 0.75007 0.92958 0.32906 0.0
H3910 H 0.74765 0.89755 0.33415 0.0
H3911 H 0.75601 0.90778 0.30779 0.0
H3912 H 0.73048 0.8137 0.3314 0.0
H3913 H 0.74938 0.8345 0.26651 0.0
H3914 H 0.69023 0.85601 0.34154 0.0
H3915 H 0.71592 0.87339 0.35028 0.0
H3916 H 0.71429 0.84153 0.35635 0.0
H3917 H 0.71267 0.88221 0.26043 0.0
H3918 H 0.74166 0.87266 0.25235 0.0
H3919 H 0.73871 0.89697 0.27203 0.0
C3920 C 0.81807 0.05736 0.78398 0.0
C3921 C 0.84204 0.05702 0.77838 0.0
C3922 C 0.80552 0.07921 0.78449 0.0
C3923 C 0.81721 0.10102 0.77903 0.0
C3924 C 0.8413 0.10067 0.77309 0.0
C3925 C 0.85343 0.07871 0.77296 0.0
C3926 C 0.7799 0.07902 0.79107 0.0
C3927 C 0.85433 0.12351 0.76689 0.0
C3928 C 0.78476 0.15647 0.75893 0.0
C3929 C 0.78787 0.17224 0.77706 0.0
C3930 C 0.79305 0.13267 0.75975 0.0
C3931 C 0.80449 0.1244 0.77923 0.0
C3932 C 0.8063 0.13972 0.79802 0.0
C3933 C 0.79807 0.16355 0.79668 0.0
C3934 C 0.79095 0.11696 0.7393 0.0
C3935 C 0.81813 0.1314 0.81917 0.0
H3936 H 0.80925 0.04063 0.78829 0.0
H3937 H 0.87193 0.07856 0.76853 0.0
H3938 H 0.77791 0.09082 0.80575 0.0
H3939 H 0.76839 0.08649 0.77772 0.0
H3940 H 0.77339 0.06054 0.79484 0.0
H3941 H 0.87296 0.12003 0.76236 0.0
H3942 H 0.84488 0.13214 0.7528 0.0
H3943 H 0.85463 0.13668 0.78079 0.0
H3944 H 0.77678 0.163 0.74372 0.0
H3945 H 0.80029 0.17556 0.81082 0.0
H3946 H 0.78383 0.09878 0.74318 0.0
H3947 H 0.80886 0.11442 0.73261 0.0
H3948 H 0.77925 0.12505 0.72637 0.0
H3949 H 0.81128 0.11327 0.82359 0.0
H3950 H 0.81528 0.14421 0.83301 0.0
H3951 H 0.83756 0.12978 0.81702 0.0
loop_
_geom_bond_atom_site_label_1
_geom_bond_atom_site_label_2
_geom_bond_distance
_geom_bond_site_symmetry_2
_ccdc_geom_bond_type
C0 O1 1.306 . S
C0 O3 1.160 . S
O1 C0 1.306 . S
O1 Cd2 2.228 . S
Cd2 O1 2.228 . S
Cd2 O6 2.273 . S
Cd2 O10 2.277 . S
O3 C0 1.160 . S
O3 Cd4 2.203 . S
Cd4 O3 2.203 . S
Cd4 O6 2.411 . S
Cd4 O7 2.333 . S
Cd4 O8 2.352 . S
Cd4 O12 2.277 . S
Cd4 O13 2.356 . S
C5 O10 1.209 . S
C5 O12 1.226 . S
O6 Cd2 2.273 . S
O6 Cd4 2.411 . S
O6 C9 1.320 . S
O7 Cd4 2.333 . S
O7 C9 1.214 . S
O8 Cd4 2.352 . S
O8 C11 1.258 . S
C9 O6 1.320 . S
C9 O7 1.214 . S
O10 Cd2 2.277 . S
O10 C5 1.209 . S
C11 O8 1.258 . S
C11 O13 1.282 . S
O12 Cd4 2.277 . S
O12 C5 1.226 . S
O13 Cd4 2.356 . S
O13 C11 1.282 . S
C14 O15 1.287 1_655 S
C14 O17 1.160 . S
O15 C14 1.287 1_455 S
O15 Cd16 2.256 . S
Cd16 O15 2.256 . S
Cd16 O20 2.273 . S
Cd16 O24 2.277 . S
O17 C14 1.160 . S
O17 Cd18 2.203 1_655 S
Cd18 O17 2.203 1_455 S
Cd18 O20 2.411 . S
Cd18 O21 2.333 . S
Cd18 O22 2.352 . S
Cd18 O26 2.277 . S
Cd18 O27 2.356 . S
C19 O24 1.209 . S
C19 O26 1.226 . S
O20 Cd16 2.273 . S
O20 Cd18 2.411 . S
O20 C23 1.320 . S
O21 Cd18 2.333 . S
O21 C23 1.214 . S
O22 Cd18 2.352 . S
O22 C25 1.258 . S
C23 O20 1.320 . S
C23 O21 1.214 . S
O24 Cd16 2.277 . S
O24 C19 1.209 . S
C25 O22 1.258 . S
C25 O27 1.282 . S
O26 Cd18 2.277 . S
O26 C19 1.226 . S
O27 Cd18 2.356 . S
O27 C25 1.282 . S
C28 O29 1.306 . S
C28 O31 1.160 . S
O29 C28 1.306 . S
O29 Cd30 2.228 . S
Cd30 O29 2.228 . S
Cd30 O34 2.273 . S
Cd30 O38 2.277 . S
O31 C28 1.160 . S
O31 Cd32 2.203 . S
Cd32 O31 2.203 . S
Cd32 O34 2.411 . S
Cd32 O35 2.333 . S
Cd32 O36 2.352 . S
Cd32 O40 2.277 . S
Cd32 O41 2.356 . S
C33 O38 1.209 . S
C33 O40 1.226 . S
O34 Cd30 2.273 . S
O34 Cd32 2.411 . S
O34 C37 1.320 . S
O35 Cd32 2.333 . S
O35 C37 1.214 . S
O36 Cd32 2.352 . S
O36 C39 1.258 . S
C37 O34 1.320 . S
C37 O35 1.214 . S
O38 Cd30 2.277 . S
O38 C33 1.209 . S
C39 O36 1.258 . S
C39 O41 1.282 . S
O40 Cd32 2.277 . S
O40 C33 1.226 . S
O41 Cd32 2.356 . S
O41 C39 1.282 . S
C42 O43 1.306 . S
C42 O45 1.160 . S
O43 C42 1.306 . S
O43 Cd44 2.228 . S
Cd44 O43 2.228 . S
Cd44 O48 2.273 . S
Cd44 O52 2.277 . S
O45 C42 1.160 . S
O45 Cd46 2.203 . S
Cd46 O45 2.203 . S
Cd46 O48 2.411 . S
Cd46 O49 2.333 . S
Cd46 O50 2.352 . S
Cd46 O54 2.277 . S
Cd46 O55 2.356 . S
C47 O52 1.209 . S
C47 O54 1.226 . S
O48 Cd44 2.273 . S
O48 Cd46 2.411 . S
O48 C51 1.320 . S
O49 Cd46 2.333 . S
O49 C51 1.214 . S
O50 Cd46 2.352 . S
O50 C53 1.258 . S
C51 O48 1.320 . S
C51 O49 1.214 . S
O52 Cd44 2.277 . S
O52 C47 1.209 . S
C53 O50 1.258 . S
C53 O55 1.282 . S
O54 Cd46 2.277 . S
O54 C47 1.226 . S
O55 Cd46 2.356 . S
O55 C53 1.282 . S
C56 O57 1.306 . S
C56 O59 1.160 . S
O57 C56 1.306 . S
O57 Cd58 2.228 . S
Cd58 O57 2.228 . S
Cd58 O62 2.273 . S
Cd58 O66 2.277 . S
O59 C56 1.160 . S
O59 Cd60 2.203 . S
Cd60 O59 2.203 . S
Cd60 O62 2.411 . S
Cd60 O63 2.333 . S
Cd60 O64 2.352 1_545 S
Cd60 O68 2.277 . S
Cd60 O69 2.356 1_545 S
C61 O66 1.209 . S
C61 O68 1.226 . S
O62 Cd58 2.273 . S
O62 Cd60 2.411 . S
O62 C65 1.320 . S
O63 Cd60 2.333 . S
O63 C65 1.214 . S
O64 Cd60 2.352 1_565 S
O64 C67 1.258 . S
C65 O62 1.320 . S
C65 O63 1.214 . S
O66 Cd58 2.277 . S
O66 C61 1.209 . S
C67 O64 1.258 . S
C67 O69 1.282 . S
O68 Cd60 2.277 . S
O68 C61 1.226 . S
O69 Cd60 2.356 1_565 S
O69 C67 1.282 . S
C70 O71 1.306 . S
C70 O73 1.160 . S
O71 C70 1.306 . S
O71 Cd72 2.228 . S
Cd72 O71 2.228 . S
Cd72 O76 2.273 . S
Cd72 O80 2.277 . S
O73 C70 1.160 . S
O73 Cd74 2.203 . S
Cd74 O73 2.203 . S
Cd74 O76 2.411 . S
Cd74 O77 2.333 . S
Cd74 O78 2.352 . S
Cd74 O82 2.277 . S
Cd74 O83 2.356 . S
C75 O80 1.209 . S
C75 O82 1.226 . S
O76 Cd72 2.273 . S
O76 Cd74 2.411 . S
O76 C79 1.320 . S
O77 Cd74 2.333 . S
O77 C79 1.214 . S
O78 Cd74 2.352 . S
O78 C81 1.258 . S
C79 O76 1.320 . S
C79 O77 1.214 . S
O80 Cd72 2.277 . S
O80 C75 1.209 . S
C81 O78 1.258 . S
C81 O83 1.282 . S
O82 Cd74 2.277 . S
O82 C75 1.226 . S
O83 Cd74 2.356 . S
O83 C81 1.282 . S
C84 O85 1.306 1_545 S
C84 O87 1.160 . S
O85 C84 1.306 1_565 S
O85 Cd86 2.228 . S
Cd86 O85 2.228 . S
Cd86 O90 2.273 1_565 S
Cd86 O94 2.277 . S
O87 C84 1.160 . S
O87 Cd88 2.203 . S
Cd88 O87 2.203 . S
Cd88 O90 2.411 . S
Cd88 O91 2.333 . S
Cd88 O92 2.352 . S
Cd88 O96 2.277 1_545 S
Cd88 O97 2.356 . S
C89 O94 1.209 . S
C89 O96 1.226 . S
O90 Cd86 2.273 1_545 S
O90 Cd88 2.411 . S
O90 C93 1.320 . S
O91 Cd88 2.333 . S
O91 C93 1.214 . S
O92 Cd88 2.352 . S
O92 C95 1.258 . S
C93 O90 1.320 . S
C93 O91 1.214 . S
O94 Cd86 2.277 . S
O94 C89 1.209 . S
C95 O92 1.258 . S
C95 O97 1.282 . S
O96 Cd88 2.277 1_565 S
O96 C89 1.226 . S
O97 Cd88 2.356 . S
O97 C95 1.282 . S
C98 O99 1.306 . S
C98 O101 1.160 . S
O99 C98 1.306 . S
O99 Cd100 2.228 . S
Cd100 O99 2.228 . S
Cd100 O104 2.273 . S
Cd100 O108 2.277 . S
O101 C98 1.160 . S
O101 Cd102 2.203 . S
Cd102 O101 2.203 . S
Cd102 O104 2.411 . S
Cd102 O105 2.333 . S
Cd102 O106 2.352 1_554 S
Cd102 O110 2.277 . S
Cd102 O111 2.356 1_554 S
C103 O108 1.209 . S
C103 O110 1.226 . S
O104 Cd100 2.273 . S
O104 Cd102 2.411 . S
O104 C107 1.320 . S
O105 Cd102 2.333 . S
O105 C107 1.214 . S
O106 Cd102 2.352 1_556 S
O106 C109 1.258 . S
C107 O104 1.320 . S
C107 O105 1.214 . S
O108 Cd100 2.277 . S
O108 C103 1.209 . S
C109 O106 1.258 . S
C109 O111 1.282 . S
O110 Cd102 2.277 . S
O110 C103 1.226 . S
O111 Cd102 2.356 1_556 S
O111 C109 1.282 . S
C112 O113 1.306 . S
C112 O115 1.160 . S
O113 C112 1.306 . S
O113 Cd114 2.228 . S
Cd114 O113 2.228 . S
Cd114 O118 2.273 . S
Cd114 O122 2.277 . S
O115 C112 1.160 . S
O115 Cd116 2.203 . S
Cd116 O115 2.203 . S
Cd116 O118 2.411 . S
Cd116 O119 2.333 . S
Cd116 O120 2.352 . S
Cd116 O124 2.277 . S
Cd116 O125 2.356 . S
C117 O122 1.209 . S
C117 O124 1.226 . S
O118 Cd114 2.273 . S
O118 Cd116 2.411 . S
O118 C121 1.320 . S
O119 Cd116 2.333 . S
O119 C121 1.214 . S
O120 Cd116 2.352 . S
O120 C123 1.258 . S
C121 O118 1.320 . S
C121 O119 1.214 . S
O122 Cd114 2.277 . S
O122 C117 1.209 . S
C123 O120 1.258 . S
C123 O125 1.282 . S
O124 Cd116 2.277 . S
O124 C117 1.226 . S
O125 Cd116 2.356 . S
O125 C123 1.282 . S
C126 O127 1.306 . S
C126 O129 1.160 . S
O127 C126 1.306 . S
O127 Cd128 2.228 . S
Cd128 O127 2.228 . S
Cd128 O132 2.273 . S
Cd128 O136 2.277 . S
O129 C126 1.160 . S
O129 Cd130 2.203 . S
Cd130 O129 2.203 . S
Cd130 O132 2.411 . S
Cd130 O133 2.333 . S
Cd130 O134 2.352 . S
Cd130 O138 2.277 . S
Cd130 O139 2.356 . S
C131 O136 1.209 . S
C131 O138 1.226 . S
O132 Cd128 2.273 . S
O132 Cd130 2.411 . S
O132 C135 1.320 . S
O133 Cd130 2.333 . S
O133 C135 1.214 . S
O134 Cd130 2.352 . S
O134 C137 1.258 . S
C135 O132 1.320 . S
C135 O133 1.214 . S
O136 Cd128 2.277 . S
O136 C131 1.209 . S
C137 O134 1.258 . S
C137 O139 1.282 . S
O138 Cd130 2.277 . S
O138 C131 1.226 . S
O139 Cd130 2.356 . S
O139 C137 1.282 . S
C140 O141 1.306 . S
C140 O143 1.160 . S
O141 C140 1.306 . S
O141 Cd142 2.228 . S
Cd142 O141 2.228 . S
Cd142 O146 2.273 . S
Cd142 O150 2.277 . S
O143 C140 1.160 . S
O143 Cd144 2.203 . S
Cd144 O143 2.203 . S
Cd144 O146 2.411 . S
Cd144 O147 2.333 . S
Cd144 O148 2.352 . S
Cd144 O152 2.277 . S
Cd144 O153 2.356 . S
C145 O150 1.209 . S
C145 O152 1.226 . S
O146 Cd142 2.273 . S
O146 Cd144 2.411 . S
O146 C149 1.320 . S
O147 Cd144 2.333 . S
O147 C149 1.214 . S
O148 Cd144 2.352 . S
O148 C151 1.258 . S
C149 O146 1.320 . S
C149 O147 1.214 . S
O150 Cd142 2.277 . S
O150 C145 1.209 . S
C151 O148 1.258 . S
C151 O153 1.282 . S
O152 Cd144 2.277 . S
O152 C145 1.226 . S
O153 Cd144 2.356 . S
O153 C151 1.282 . S
C154 O155 1.306 . S
C154 O157 1.160 . S
O155 C154 1.306 . S
O155 Cd156 2.228 . S
Cd156 O155 2.228 . S
Cd156 O160 2.273 . S
Cd156 O164 2.277 . S
O157 C154 1.160 . S
O157 Cd158 2.203 . S
Cd158 O157 2.203 . S
Cd158 O160 2.411 . S
Cd158 O161 2.333 . S
Cd158 O162 2.352 . S
Cd158 O166 2.277 . S
Cd158 O167 2.356 . S
C159 O164 1.209 . S
C159 O166 1.226 . S
O160 Cd156 2.273 . S
O160 Cd158 2.411 . S
O160 C163 1.320 . S
O161 Cd158 2.333 . S
O161 C163 1.214 . S
O162 Cd158 2.352 . S
O162 C165 1.258 . S
C163 O160 1.320 . S
C163 O161 1.214 . S
O164 Cd156 2.277 . S
O164 C159 1.209 . S
C165 O162 1.258 . S
C165 O167 1.282 . S
O166 Cd158 2.277 . S
O166 C159 1.226 . S
O167 Cd158 2.356 . S
O167 C165 1.282 . S
C168 O169 1.306 . S
C168 O171 1.160 . S
O169 C168 1.306 . S
O169 Cd170 2.228 1_655 S
Cd170 O169 2.228 1_455 S
Cd170 O174 2.273 . S
Cd170 O178 2.277 . S
O171 C168 1.160 . S
O171 Cd172 2.203 1_655 S
Cd172 O171 2.203 1_455 S
Cd172 O174 2.411 . S
Cd172 O175 2.333 . S
Cd172 O176 2.350 1_455 S
Cd172 O180 2.277 1_455 S
Cd172 O181 2.356 . S
C173 O178 1.215 . S
C173 O180 1.224 1_455 S
O174 Cd170 2.273 . S
O174 Cd172 2.411 . S
O174 C177 1.320 . S
O175 Cd172 2.333 . S
O175 C177 1.214 . S
O176 Cd172 2.350 1_655 S
O176 C179 1.255 1_655 S
C177 O174 1.320 . S
C177 O175 1.214 . S
O178 Cd170 2.277 . S
O178 C173 1.215 . S
C179 O176 1.255 1_455 S
C179 O181 1.282 . S
O180 Cd172 2.277 1_655 S
O180 C173 1.224 1_655 S
O181 Cd172 2.356 . S
O181 C179 1.282 . S
C182 O183 1.306 1_655 S
C182 O185 1.160 . S
O183 C182 1.306 1_455 S
O183 Cd184 2.228 . S
Cd184 O183 2.228 . S
Cd184 O188 2.273 . S
Cd184 O192 2.277 . S
O185 C182 1.160 . S
O185 Cd186 2.203 1_655 S
Cd186 O185 2.203 1_455 S
Cd186 O188 2.411 . S
Cd186 O189 2.333 . S
Cd186 O190 2.352 . S
Cd186 O194 2.277 . S
Cd186 O195 2.356 . S
C187 O192 1.209 . S
C187 O194 1.226 . S
O188 Cd184 2.273 . S
O188 Cd186 2.411 . S
O188 C191 1.320 . S
O189 Cd186 2.333 . S
O189 C191 1.214 . S
O190 Cd186 2.352 . S
O190 C193 1.258 . S
C191 O188 1.320 . S
C191 O189 1.214 . S
O192 Cd184 2.277 . S
O192 C187 1.209 . S
C193 O190 1.258 . S
C193 O195 1.282 . S
O194 Cd186 2.277 . S
O194 C187 1.226 . S
O195 Cd186 2.356 . S
O195 C193 1.282 . S
C196 O197 1.306 . S
C196 O199 1.160 . S
O197 C196 1.306 . S
O197 Cd198 2.228 . S
Cd198 O197 2.228 . S
Cd198 O202 2.273 . S
Cd198 O206 2.277 . S
O199 C196 1.160 . S
O199 Cd200 2.203 . S
Cd200 O199 2.203 . S
Cd200 O202 2.411 . S
Cd200 O203 2.333 . S
Cd200 O204 2.352 . S
Cd200 O208 2.277 . S
Cd200 O209 2.356 . S
C201 O206 1.209 . S
C201 O208 1.226 . S
O202 Cd198 2.273 . S
O202 Cd200 2.411 . S
O202 C205 1.320 . S
O203 Cd200 2.333 . S
O203 C205 1.214 . S
O204 Cd200 2.352 . S
O204 C207 1.258 . S
C205 O202 1.320 . S
C205 O203 1.214 . S
O206 Cd198 2.277 . S
O206 C201 1.209 . S
C207 O204 1.258 . S
C207 O209 1.282 . S
O208 Cd200 2.277 . S
O208 C201 1.226 . S
O209 Cd200 2.356 . S
O209 C207 1.282 . S
C210 O211 1.306 . S
C210 O213 1.160 . S
O211 C210 1.306 . S
O211 Cd212 2.228 . S
Cd212 O211 2.228 . S
Cd212 O216 2.273 . S
Cd212 O220 2.277 . S
O213 C210 1.160 . S
O213 Cd214 2.203 . S
Cd214 O213 2.203 . S
Cd214 O216 2.411 . S
Cd214 O217 2.333 . S
Cd214 O218 2.352 . S
Cd214 O222 2.277 . S
Cd214 O223 2.356 . S
C215 O220 1.209 . S
C215 O222 1.226 . S
O216 Cd212 2.273 . S
O216 Cd214 2.411 . S
O216 C219 1.320 . S
O217 Cd214 2.333 . S
O217 C219 1.214 . S
O218 Cd214 2.352 . S
O218 C221 1.258 . S
C219 O216 1.320 . S
C219 O217 1.214 . S
O220 Cd212 2.277 . S
O220 C215 1.209 . S
C221 O218 1.258 . S
C221 O223 1.282 . S
O222 Cd214 2.277 . S
O222 C215 1.226 . S
O223 Cd214 2.356 . S
O223 C221 1.282 . S
C224 O225 1.306 1_545 S
C224 O227 1.160 . S
O225 C224 1.306 1_565 S
O225 Cd226 2.228 . S
Cd226 O225 2.228 . S
Cd226 O230 2.273 1_565 S
Cd226 O234 2.277 . S
O227 C224 1.160 . S
O227 Cd228 2.203 . S
Cd228 O227 2.203 . S
Cd228 O230 2.411 . S
Cd228 O231 2.333 . S
Cd228 O232 2.352 . S
Cd228 O236 2.277 1_545 S
Cd228 O237 2.356 . S
C229 O234 1.209 . S
C229 O236 1.226 . S
O230 Cd226 2.273 1_545 S
O230 Cd228 2.411 . S
O230 C233 1.320 . S
O231 Cd228 2.333 . S
O231 C233 1.214 . S
O232 Cd228 2.352 . S
O232 C235 1.258 . S
C233 O230 1.320 . S
C233 O231 1.214 . S
O234 Cd226 2.277 . S
O234 C229 1.209 . S
C235 O232 1.258 . S
C235 O237 1.282 . S
O236 Cd228 2.277 1_565 S
O236 C229 1.226 . S
O237 Cd228 2.356 . S
O237 C235 1.282 . S
C238 O239 1.306 . S
C238 O241 1.160 . S
O239 C238 1.306 . S
O239 Cd240 2.228 . S
Cd240 O239 2.228 . S
Cd240 O244 2.273 . S
Cd240 O248 2.277 . S
O241 C238 1.160 . S
O241 Cd242 2.203 . S
Cd242 O241 2.203 . S
Cd242 O244 2.411 . S
Cd242 O245 2.333 . S
Cd242 O246 2.352 . S
Cd242 O250 2.277 . S
Cd242 O251 2.356 . S
C243 O248 1.209 . S
C243 O250 1.226 . S
O244 Cd240 2.273 . S
O244 Cd242 2.411 . S
O244 C247 1.320 . S
O245 Cd242 2.333 . S
O245 C247 1.214 . S
O246 Cd242 2.352 . S
O246 C249 1.258 . S
C247 O244 1.320 . S
C247 O245 1.214 . S
O248 Cd240 2.277 . S
O248 C243 1.209 . S
C249 O246 1.258 . S
C249 O251 1.282 . S
O250 Cd242 2.277 . S
O250 C243 1.226 . S
O251 Cd242 2.356 . S
O251 C249 1.282 . S
C252 O253 1.306 . S
C252 O255 1.160 . S
O253 C252 1.306 . S
O253 Cd254 2.228 . S
Cd254 O253 2.228 . S
Cd254 O258 2.273 . S
Cd254 O262 2.277 . S
O255 C252 1.160 . S
O255 Cd256 2.203 . S
Cd256 O255 2.203 . S
Cd256 O258 2.411 . S
Cd256 O259 2.333 . S
Cd256 O260 2.352 1_545 S
Cd256 O264 2.277 . S
Cd256 O265 2.356 1_545 S
C257 O262 1.209 . S
C257 O264 1.226 . S
O258 Cd254 2.273 . S
O258 Cd256 2.411 . S
O258 C261 1.320 . S
O259 Cd256 2.333 . S
O259 C261 1.214 . S
O260 Cd256 2.352 1_565 S
O260 C263 1.258 . S
C261 O258 1.320 . S
C261 O259 1.214 . S
O262 Cd254 2.277 . S
O262 C257 1.209 . S
C263 O260 1.258 . S
C263 O265 1.282 . S
O264 Cd256 2.277 . S
O264 C257 1.226 . S
O265 Cd256 2.356 1_565 S
O265 C263 1.282 . S
C266 O267 1.306 . S
C266 O269 1.160 . S
O267 C266 1.306 . S
O267 Cd268 2.228 1_554 S
Cd268 O267 2.228 1_556 S
Cd268 O272 2.273 1_556 S
Cd268 O276 2.277 . S
O269 C266 1.160 . S
O269 Cd270 2.203 . S
Cd270 O269 2.203 . S
Cd270 O272 2.411 . S
Cd270 O273 2.333 . S
Cd270 O274 2.352 . S
Cd270 O278 2.249 1_554 S
Cd270 O279 2.356 . S
C271 O276 1.209 . S
C271 O278 1.255 . S
O272 Cd268 2.273 1_554 S
O272 Cd270 2.411 . S
O272 C275 1.320 . S
O273 Cd270 2.333 . S
O273 C275 1.214 . S
O274 Cd270 2.352 . S
O274 C277 1.258 . S
C275 O272 1.320 . S
C275 O273 1.214 . S
O276 Cd268 2.277 . S
O276 C271 1.209 . S
C277 O274 1.258 . S
C277 O279 1.282 . S
O278 Cd270 2.249 1_556 S
O278 C271 1.255 . S
O279 Cd270 2.356 . S
O279 C277 1.282 . S
C280 O281 1.306 . S
C280 O283 1.160 1_554 S
O281 C280 1.306 . S
O281 Cd282 2.228 . S
Cd282 O281 2.228 . S
Cd282 O286 2.273 . S
Cd282 O290 2.277 . S
O283 C280 1.160 1_556 S
O283 Cd284 2.203 . S
Cd284 O283 2.203 . S
Cd284 O286 2.411 1_556 S
Cd284 O287 2.333 . S
Cd284 O288 2.352 . S
Cd284 O292 2.277 1_556 S
Cd284 O293 2.356 . S
C285 O290 1.209 . S
C285 O292 1.226 . S
O286 Cd282 2.273 . S
O286 Cd284 2.411 1_554 S
O286 C289 1.320 1_554 S
O287 Cd284 2.333 . S
O287 C289 1.214 . S
O288 Cd284 2.352 . S
O288 C291 1.258 . S
C289 O286 1.320 1_556 S
C289 O287 1.214 . S
O290 Cd282 2.277 . S
O290 C285 1.209 . S
C291 O288 1.258 . S
C291 O293 1.282 . S
O292 Cd284 2.277 1_554 S
O292 C285 1.226 . S
O293 Cd284 2.356 . S
O293 C291 1.282 . S
C294 O295 1.306 . S
C294 O297 1.160 . S
O295 C294 1.306 . S
O295 Cd296 2.228 . S
Cd296 O295 2.228 . S
Cd296 O300 2.273 . S
Cd296 O304 2.277 . S
O297 C294 1.160 . S
O297 Cd298 2.203 . S
Cd298 O297 2.203 . S
Cd298 O300 2.411 . S
Cd298 O301 2.333 . S
Cd298 O302 2.352 . S
Cd298 O306 2.277 . S
Cd298 O307 2.356 . S
C299 O304 1.209 . S
C299 O306 1.226 . S
O300 Cd296 2.273 . S
O300 Cd298 2.411 . S
O300 C303 1.320 . S
O301 Cd298 2.333 . S
O301 C303 1.214 . S
O302 Cd298 2.352 . S
O302 C305 1.258 . S
C303 O300 1.320 . S
C303 O301 1.214 . S
O304 Cd296 2.277 . S
O304 C299 1.209 . S
C305 O302 1.258 . S
C305 O307 1.282 . S
O306 Cd298 2.277 . S
O306 C299 1.226 . S
O307 Cd298 2.356 . S
O307 C305 1.282 . S
C308 O309 1.306 . S
C308 O311 1.160 . S
O309 C308 1.306 . S
O309 Cd310 2.228 . S
Cd310 O309 2.228 . S
Cd310 O314 2.273 . S
Cd310 O318 2.277 . S
O311 C308 1.160 . S
O311 Cd312 2.203 . S
Cd312 O311 2.203 . S
Cd312 O314 2.411 . S
Cd312 O315 2.333 . S
Cd312 O316 2.352 . S
Cd312 O320 2.277 . S
Cd312 O321 2.356 . S
C313 O318 1.209 . S
C313 O320 1.226 . S
O314 Cd310 2.273 . S
O314 Cd312 2.411 . S
O314 C317 1.320 . S
O315 Cd312 2.333 . S
O315 C317 1.214 . S
O316 Cd312 2.352 . S
O316 C319 1.258 . S
C317 O314 1.320 . S
C317 O315 1.214 . S
O318 Cd310 2.277 . S
O318 C313 1.209 . S
C319 O316 1.258 . S
C319 O321 1.282 . S
O320 Cd312 2.277 . S
O320 C313 1.226 . S
O321 Cd312 2.356 . S
O321 C319 1.282 . S
C322 O323 1.306 . S
C322 O325 1.160 . S
O323 C322 1.306 . S
O323 Cd324 2.228 . S
Cd324 O323 2.228 . S
Cd324 O328 2.273 . S
Cd324 O332 2.277 . S
O325 C322 1.160 . S
O325 Cd326 2.203 . S
Cd326 O325 2.203 . S
Cd326 O328 2.411 . S
Cd326 O329 2.333 . S
Cd326 O330 2.352 . S
Cd326 O334 2.277 . S
Cd326 O335 2.356 . S
C327 O332 1.209 . S
C327 O334 1.226 . S
O328 Cd324 2.273 . S
O328 Cd326 2.411 . S
O328 C331 1.320 . S
O329 Cd326 2.333 . S
O329 C331 1.214 . S
O330 Cd326 2.352 . S
O330 C333 1.258 . S
C331 O328 1.320 . S
C331 O329 1.214 . S
O332 Cd324 2.277 . S
O332 C327 1.209 . S
C333 O330 1.258 . S
C333 O335 1.282 . S
O334 Cd326 2.277 . S
O334 C327 1.226 . S
O335 Cd326 2.356 . S
O335 C333 1.282 . S
C336 O352 1.269 1_556 S
C336 O354 1.254 . S
N337 C338 1.333 1_565 S
N337 C342 1.307 . S
N337 Zn343 2.020 1_665 S
C338 N337 1.333 1_545 S
C338 C339 1.382 . S
C338 H356 0.952 . S
C339 C338 1.382 . S
C339 C340 1.379 1_545 S
C339 H366 0.957 . S
C340 C339 1.379 1_565 S
C340 C341 1.357 . S
C341 C340 1.357 . S
C341 C342 1.370 . S
C341 H367 0.950 . S
C342 N337 1.307 . S
C342 C341 1.370 . S
C342 H360 0.948 . S
Zn343 N337 2.020 1_445 S
Zn343 O352 2.041 . S
Zn343 O358 2.034 . S
Zn343 O362 2.025 1_545 S
Zn343 O364 2.024 1_545 S
C344 O363 1.246 . S
C344 O364 1.249 . S
N345 C346 1.307 1_554 S
N345 C347 1.333 . S
N345 Zn351 2.020 . S
C346 N345 1.307 1_556 S
C346 C350 1.370 . S
C346 H357 0.948 . S
C347 N345 1.333 . S
C347 C348 1.379 . S
C347 H355 0.952 . S
C348 C347 1.379 . S
C348 C349 1.426 . S
C348 H368 0.949 . S
C349 C348 1.426 . S
C349 C350 1.337 1_554 S
C350 C346 1.370 . S
C350 C349 1.337 1_556 S
C350 H369 0.950 . S
Zn351 N345 2.020 . S
Zn351 O354 2.025 1_554 S
Zn351 O359 2.024 . S
Zn351 O361 2.039 . S
Zn351 O363 2.034 1_545 S
O352 C336 1.269 1_554 S
O352 Zn343 2.041 . S
C353 O358 1.246 . S
C353 O359 1.249 . S
O354 C336 1.254 . S
O354 Zn351 2.025 1_556 S
H355 C347 0.952 . S
H356 C338 0.952 . S
H357 C346 0.948 . S
O358 Zn343 2.034 . S
O358 C353 1.246 . S
O359 Zn351 2.024 . S
O359 C353 1.249 . S
H360 C342 0.948 . S
O361 Zn351 2.039 . S
O361 C365 1.236 1_545 S
O362 Zn343 2.025 1_565 S
O362 C365 1.261 . S
O363 C344 1.246 . S
O363 Zn351 2.034 1_565 S
O364 Zn343 2.024 1_565 S
O364 C344 1.249 . S
C365 O361 1.236 1_565 S
C365 O362 1.261 . S
H366 C339 0.957 . S
H367 C341 0.950 . S
H368 C348 0.949 . S
H369 C350 0.950 . S
C370 O386 1.251 . S
C370 O388 1.254 . S
N371 C372 1.333 . S
N371 C376 1.307 . S
N371 Zn377 2.020 . S
C372 N371 1.333 . S
C372 C373 1.379 . S
C372 H390 0.952 . S
C373 C372 1.379 . S
C373 C374 1.390 . S
C373 H400 0.949 . S
C374 C373 1.390 . S
C374 C375 1.357 . S
C375 C374 1.357 . S
C375 C376 1.370 . S
C375 H401 0.950 . S
C376 N371 1.307 . S
C376 C375 1.370 . S
C376 H394 0.948 . S
Zn377 N371 2.020 . S
Zn377 O386 2.039 . S
Zn377 O392 2.034 . S
Zn377 O396 2.025 . S
Zn377 O398 2.024 . S
C378 O397 1.246 . S
C378 O398 1.249 . S
N379 C380 1.307 . S
N379 C381 1.333 . S
N379 Zn385 2.020 . S
C380 N379 1.307 . S
C380 C384 1.370 . S
C380 H391 0.948 . S
C381 N379 1.333 . S
C381 C382 1.379 . S
C381 H389 0.952 . S
C382 C381 1.379 . S
C382 C383 1.390 . S
C382 H402 0.949 . S
C383 C382 1.390 . S
C383 C384 1.357 . S
C384 C380 1.370 . S
C384 C383 1.357 . S
C384 H403 0.950 . S
Zn385 N379 2.020 . S
Zn385 O388 2.025 . S
Zn385 O393 2.024 . S
Zn385 O395 2.039 . S
Zn385 O397 2.034 . S
O386 C370 1.251 . S
O386 Zn377 2.039 . S
C387 O392 1.246 . S
C387 O393 1.249 . S
O388 C370 1.254 . S
O388 Zn385 2.025 . S
H389 C381 0.952 . S
H390 C372 0.952 . S
H391 C380 0.948 . S
O392 Zn377 2.034 . S
O392 C387 1.246 . S
O393 Zn385 2.024 . S
O393 C387 1.249 . S
H394 C376 0.948 . S
O395 Zn385 2.039 . S
O395 C399 1.251 . S
O396 Zn377 2.025 . S
O396 C399 1.254 . S
O397 C378 1.246 . S
O397 Zn385 2.034 . S
O398 Zn377 2.024 . S
O398 C378 1.249 . S
C399 O395 1.251 . S
C399 O396 1.254 . S
H400 C373 0.949 . S
H401 C375 0.950 . S
H402 C382 0.949 . S
H403 C384 0.950 . S
C404 O420 1.251 . S
C404 O422 1.254 . S
N405 C406 1.333 . S
N405 C410 1.307 . S
N405 Zn411 2.020 . S
C406 N405 1.333 . S
C406 C407 1.379 . S
C406 H424 0.952 . S
C407 C406 1.379 . S
C407 C408 1.390 . S
C407 H434 0.949 . S
C408 C407 1.390 . S
C408 C409 1.357 . S
C409 C408 1.357 . S
C409 C410 1.370 . S
C409 H435 0.950 . S
C410 N405 1.307 . S
C410 C409 1.370 . S
C410 H428 0.948 . S
Zn411 N405 2.020 . S
Zn411 O420 2.039 1_565 S
Zn411 O426 2.034 1_565 S
Zn411 O430 2.025 . S
Zn411 O432 2.024 . S
C412 O431 1.246 1_565 S
C412 O432 1.249 . S
N413 C414 1.307 . S
N413 C415 1.333 . S
N413 Zn419 2.020 . S
C414 N413 1.307 . S
C414 C418 1.370 . S
C414 H425 0.948 . S
C415 N413 1.333 . S
C415 C416 1.379 . S
C415 H423 0.952 . S
C416 C415 1.379 . S
C416 C417 1.390 . S
C416 H436 0.949 . S
C417 C416 1.390 . S
C417 C418 1.357 . S
C418 C414 1.370 . S
C418 C417 1.357 . S
C418 H437 0.950 . S
Zn419 N413 2.020 . S
Zn419 O422 2.025 . S
Zn419 O427 2.024 . S
Zn419 O429 2.039 . S
Zn419 O431 2.034 . S
O420 C404 1.251 . S
O420 Zn411 2.039 1_545 S
C421 O426 1.246 . S
C421 O427 1.249 . S
O422 C404 1.254 . S
O422 Zn419 2.025 . S
H423 C415 0.952 . S
H424 C406 0.952 . S
H425 C414 0.948 . S
O426 Zn411 2.034 1_545 S
O426 C421 1.246 . S
O427 Zn419 2.024 . S
O427 C421 1.249 . S
H428 C410 0.948 . S
O429 Zn419 2.039 . S
O429 C433 1.251 . S
O430 Zn411 2.025 . S
O430 C433 1.254 1_565 S
O431 C412 1.246 1_545 S
O431 Zn419 2.034 . S
O432 Zn411 2.024 . S
O432 C412 1.249 . S
C433 O429 1.251 . S
C433 O430 1.254 1_545 S
H434 C407 0.949 . S
H435 C409 0.950 . S
H436 C416 0.949 . S
H437 C418 0.950 . S
C438 O454 1.251 . S
C438 O456 1.254 . S
N439 C440 1.333 . S
N439 C444 1.307 . S
N439 Zn445 2.020 . S
C440 N439 1.333 . S
C440 C441 1.379 . S
C440 H458 0.952 . S
C441 C440 1.379 . S
C441 C442 1.390 . S
C441 H468 0.949 . S
C442 C441 1.390 . S
C442 C443 1.357 . S
C443 C442 1.357 . S
C443 C444 1.370 . S
C443 H469 0.950 . S
C444 N439 1.307 . S
C444 C443 1.370 . S
C444 H462 0.948 . S
Zn445 N439 2.020 . S
Zn445 O454 2.039 . S
Zn445 O460 2.034 . S
Zn445 O464 2.025 . S
Zn445 O466 2.024 . S
C446 O465 1.246 . S
C446 O466 1.249 . S
N447 C448 1.307 . S
N447 C449 1.333 . S
N447 Zn453 2.020 . S
C448 N447 1.307 . S
C448 C452 1.370 . S
C448 H459 0.948 . S
C449 N447 1.333 . S
C449 C450 1.379 . S
C449 H457 0.952 . S
C450 C449 1.379 . S
C450 C451 1.390 . S
C450 H470 0.949 . S
C451 C450 1.390 . S
C451 C452 1.357 . S
C452 C448 1.370 . S
C452 C451 1.357 . S
C452 H471 0.950 . S
Zn453 N447 2.020 . S
Zn453 O456 2.025 . S
Zn453 O461 2.024 . S
Zn453 O463 2.039 . S
Zn453 O465 2.034 . S
O454 C438 1.251 . S
O454 Zn445 2.039 . S
C455 O460 1.246 . S
C455 O461 1.249 . S
O456 C438 1.254 . S
O456 Zn453 2.025 . S
H457 C449 0.952 . S
H458 C440 0.952 . S
H459 C448 0.948 . S
O460 Zn445 2.034 . S
O460 C455 1.246 . S
O461 Zn453 2.024 . S
O461 C455 1.249 . S
H462 C444 0.948 . S
O463 Zn453 2.039 . S
O463 C467 1.251 . S
O464 Zn445 2.025 . S
O464 C467 1.254 . S
O465 C446 1.246 . S
O465 Zn453 2.034 . S
O466 Zn445 2.024 . S
O466 C446 1.249 . S
C467 O463 1.251 . S
C467 O464 1.254 . S
H468 C441 0.949 . S
H469 C443 0.950 . S
H470 C450 0.949 . S
H471 C452 0.950 . S
C472 O488 1.251 1_565 S
C472 O490 1.254 . S
N473 C474 1.333 . S
N473 C478 1.307 . S
N473 Zn479 2.020 . S
C474 N473 1.333 . S
C474 C475 1.379 . S
C474 H492 0.952 . S
C475 C474 1.379 . S
C475 C476 1.390 . S
C475 H502 0.949 . S
C476 C475 1.390 . S
C476 C477 1.357 . S
C477 C476 1.357 . S
C477 C478 1.370 . S
C477 H503 0.950 . S
C478 N473 1.307 . S
C478 C477 1.370 . S
C478 H496 0.948 . S
Zn479 N473 2.020 . S
Zn479 O488 2.039 . S
Zn479 O494 2.034 . S
Zn479 O498 2.025 . S
Zn479 O500 2.024 1_545 S
C480 O499 1.246 . S
C480 O500 1.249 . S
N481 C482 1.307 . S
N481 C483 1.333 1_455 S
N481 Zn487 2.020 1_565 S
C482 N481 1.307 . S
C482 C486 1.370 . S
C482 H493 0.948 1_565 S
C483 N481 1.333 1_655 S
C483 C484 1.379 . S
C483 H491 0.952 . S
C484 C483 1.379 . S
C484 C485 1.390 . S
C484 H504 0.949 . S
C485 C484 1.390 . S
C485 C486 1.357 1_655 S
C486 C482 1.370 . S
C486 C485 1.357 1_455 S
C486 H505 0.950 . S
Zn487 N481 2.020 1_545 S
Zn487 O490 2.025 1_545 S
Zn487 O495 2.024 . S
Zn487 O497 2.039 1_455 S
Zn487 O499 2.034 1_545 S
O488 C472 1.251 1_545 S
O488 Zn479 2.039 . S
C489 O494 1.246 . S
C489 O495 1.249 . S
O490 C472 1.254 . S
O490 Zn487 2.025 1_565 S
H491 C483 0.952 . S
H492 C474 0.952 . S
H493 C482 0.948 1_545 S
O494 Zn479 2.034 . S
O494 C489 1.246 . S
O495 Zn487 2.024 . S
O495 C489 1.249 . S
H496 C478 0.948 . S
O497 Zn487 2.039 1_655 S
O497 C501 1.251 . S
O498 Zn479 2.025 . S
O498 C501 1.254 1_455 S
O499 C480 1.246 . S
O499 Zn487 2.034 1_565 S
O500 Zn479 2.024 1_565 S
O500 C480 1.249 . S
C501 O497 1.251 . S
C501 O498 1.254 1_655 S
H502 C475 0.949 . S
H503 C477 0.950 . S
H504 C484 0.949 . S
H505 C486 0.950 . S
C506 O522 1.251 . S
C506 O524 1.254 . S
N507 C508 1.333 . S
N507 C512 1.307 . S
N507 Zn513 2.020 . S
C508 N507 1.333 . S
C508 C509 1.379 . S
C508 H526 0.952 . S
C509 C508 1.379 . S
C509 C510 1.390 . S
C509 H536 0.949 . S
C510 C509 1.390 . S
C510 C511 1.357 . S
C511 C510 1.357 . S
C511 C512 1.370 . S
C511 H537 0.950 . S
C512 N507 1.307 . S
C512 C511 1.370 . S
C512 H530 0.948 . S
Zn513 N507 2.020 . S
Zn513 O522 2.039 . S
Zn513 O528 2.034 . S
Zn513 O532 2.025 . S
Zn513 O534 2.024 . S
C514 O533 1.246 . S
C514 O534 1.249 . S
N515 C516 1.307 . S
N515 C517 1.333 . S
N515 Zn521 2.020 . S
C516 N515 1.307 . S
C516 C520 1.370 . S
C516 H527 0.948 . S
C517 N515 1.333 . S
C517 C518 1.379 . S
C517 H525 0.952 . S
C518 C517 1.379 . S
C518 C519 1.390 . S
C518 H538 0.949 . S
C519 C518 1.390 . S
C519 C520 1.357 . S
C520 C516 1.370 . S
C520 C519 1.357 . S
C520 H539 0.950 . S
Zn521 N515 2.020 . S
Zn521 O524 2.025 . S
Zn521 O529 2.024 . S
Zn521 O531 2.039 . S
Zn521 O533 2.034 . S
O522 C506 1.251 . S
O522 Zn513 2.039 . S
C523 O528 1.246 . S
C523 O529 1.249 . S
O524 C506 1.254 . S
O524 Zn521 2.025 . S
H525 C517 0.952 . S
H526 C508 0.952 . S
H527 C516 0.948 . S
O528 Zn513 2.034 . S
O528 C523 1.246 . S
O529 Zn521 2.024 . S
O529 C523 1.249 . S
H530 C512 0.948 . S
O531 Zn521 2.039 . S
O531 C535 1.251 . S
O532 Zn513 2.025 . S
O532 C535 1.254 . S
O533 C514 1.246 . S
O533 Zn521 2.034 . S
O534 Zn513 2.024 . S
O534 C514 1.249 . S
C535 O531 1.251 . S
C535 O532 1.254 . S
H536 C509 0.949 . S
H537 C511 0.950 . S
H538 C518 0.949 . S
H539 C520 0.950 . S
C540 O556 1.251 . S
C540 O558 1.254 . S
N541 C542 1.333 . S
N541 C546 1.307 . S
N541 Zn547 2.020 . S
C542 N541 1.333 . S
C542 C543 1.379 . S
C542 H560 0.952 . S
C543 C542 1.379 . S
C543 C544 1.390 . S
C543 H570 0.949 . S
C544 C543 1.390 . S
C544 C545 1.357 . S
C545 C544 1.357 . S
C545 C546 1.370 . S
C545 H571 0.950 . S
C546 N541 1.307 . S
C546 C545 1.370 . S
C546 H564 0.948 . S
Zn547 N541 2.020 . S
Zn547 O556 2.039 1_545 S
Zn547 O562 2.034 . S
Zn547 O566 2.025 . S
Zn547 O568 2.024 . S
C548 O567 1.246 . S
C548 O568 1.249 1_565 S
N549 C550 1.307 . S
N549 C551 1.333 1_565 S
N549 Zn555 2.020 1_566 S
C550 N549 1.307 . S
C550 C554 1.370 . S
C550 H561 0.948 . S
C551 N549 1.333 1_545 S
C551 C552 1.373 1_545 S
C551 H559 0.952 . S
C552 C551 1.373 1_565 S
C552 C553 1.416 . S
C552 H572 0.931 1_565 S
C553 C552 1.416 . S
C553 C554 1.357 . S
C554 C550 1.370 . S
C554 C553 1.357 . S
C554 H573 0.950 . S
Zn555 N549 2.020 1_544 S
Zn555 O558 2.025 1_545 S
Zn555 O563 2.024 . S
Zn555 O565 2.039 1_554 S
Zn555 O567 2.034 1_545 S
O556 C540 1.251 . S
O556 Zn547 2.039 1_565 S
C557 O562 1.246 . S
C557 O563 1.249 . S
O558 C540 1.254 . S
O558 Zn555 2.025 1_565 S
H559 C551 0.952 . S
H560 C542 0.952 . S
H561 C550 0.948 . S
O562 Zn547 2.034 . S
O562 C557 1.246 . S
O563 Zn555 2.024 . S
O563 C557 1.249 . S
H564 C546 0.948 . S
O565 Zn555 2.039 1_556 S
O565 C569 1.251 1_556 S
O566 Zn547 2.025 . S
O566 C569 1.254 . S
O567 C548 1.246 . S
O567 Zn555 2.034 1_565 S
O568 Zn547 2.024 . S
O568 C548 1.249 1_545 S
C569 O565 1.251 1_554 S
C569 O566 1.254 . S
H570 C543 0.949 . S
H571 C545 0.950 . S
H572 C552 0.931 1_545 S
H573 C554 0.950 . S
C574 O590 1.251 . S
C574 O592 1.254 . S
N575 C576 1.333 . S
N575 C580 1.307 . S
N575 Zn581 2.020 . S
C576 N575 1.333 . S
C576 C577 1.379 . S
C576 H594 0.952 . S
C577 C576 1.379 . S
C577 C578 1.390 . S
C577 H604 0.949 . S
C578 C577 1.390 . S
C578 C579 1.357 . S
C579 C578 1.357 . S
C579 C580 1.370 . S
C579 H605 0.950 . S
C580 N575 1.307 . S
C580 C579 1.370 . S
C580 H598 0.948 . S
Zn581 N575 2.020 . S
Zn581 O590 2.039 . S
Zn581 O596 2.034 . S
Zn581 O600 2.025 . S
Zn581 O602 2.024 . S
C582 O601 1.246 . S
C582 O602 1.249 . S
N583 C584 1.307 . S
N583 C585 1.333 . S
N583 Zn589 2.020 . S
C584 N583 1.307 . S
C584 C588 1.370 . S
C584 H595 0.948 . S
C585 N583 1.333 . S
C585 C586 1.379 . S
C585 H593 0.952 . S
C586 C585 1.379 . S
C586 C587 1.390 . S
C586 H606 0.949 . S
C587 C586 1.390 . S
C587 C588 1.357 . S
C588 C584 1.370 . S
C588 C587 1.357 . S
C588 H607 0.950 . S
Zn589 N583 2.020 . S
Zn589 O592 2.025 . S
Zn589 O597 2.024 . S
Zn589 O599 2.039 . S
Zn589 O601 2.034 . S
O590 C574 1.251 . S
O590 Zn581 2.039 . S
C591 O596 1.246 . S
C591 O597 1.249 . S
O592 C574 1.254 . S
O592 Zn589 2.025 . S
H593 C585 0.952 . S
H594 C576 0.952 . S
H595 C584 0.948 . S
O596 Zn581 2.034 . S
O596 C591 1.246 . S
O597 Zn589 2.024 . S
O597 C591 1.249 . S
H598 C580 0.948 . S
O599 Zn589 2.039 . S
O599 C603 1.251 . S
O600 Zn581 2.025 . S
O600 C603 1.254 . S
O601 C582 1.246 . S
O601 Zn589 2.034 . S
O602 Zn581 2.024 . S
O602 C582 1.249 . S
C603 O599 1.251 . S
C603 O600 1.254 . S
H604 C577 0.949 . S
H605 C579 0.950 . S
H606 C586 0.949 . S
H607 C588 0.950 . S
C608 O624 1.251 . S
C608 O626 1.254 . S
N609 C610 1.333 . S
N609 C614 1.307 . S
N609 Zn615 2.020 1_556 S
C610 N609 1.333 . S
C610 C611 1.379 . S
C610 H628 0.952 . S
C611 C610 1.379 . S
C611 C612 1.390 . S
C611 H638 0.949 . S
C612 C611 1.390 . S
C612 C613 1.357 . S
C613 C612 1.357 . S
C613 C614 1.370 . S
C613 H639 0.950 . S
C614 N609 1.307 . S
C614 C613 1.370 . S
C614 H632 0.948 . S
Zn615 N609 2.020 1_554 S
Zn615 O624 2.039 . S
Zn615 O630 2.034 . S
Zn615 O634 2.025 . S
Zn615 O636 2.024 1_554 S
C616 O635 1.246 . S
C616 O636 1.249 1_554 S
N617 C618 1.307 . S
N617 C619 1.333 . S
N617 Zn623 2.020 . S
C618 N617 1.307 . S
C618 C622 1.370 . S
C618 H629 0.948 . S
C619 N617 1.333 . S
C619 C620 1.379 . S
C619 H627 0.952 . S
C620 C619 1.379 . S
C620 C621 1.390 . S
C620 H640 0.949 . S
C621 C620 1.390 . S
C621 C622 1.357 . S
C622 C618 1.370 . S
C622 C621 1.357 . S
C622 H641 0.950 . S
Zn623 N617 2.020 . S
Zn623 O626 2.025 . S
Zn623 O631 2.024 . S
Zn623 O633 2.039 . S
Zn623 O635 2.034 . S
O624 C608 1.251 . S
O624 Zn615 2.039 . S
C625 O630 1.246 . S
C625 O631 1.249 . S
O626 C608 1.254 . S
O626 Zn623 2.025 . S
H627 C619 0.952 . S
H628 C610 0.952 . S
H629 C618 0.948 . S
O630 Zn615 2.034 . S
O630 C625 1.246 . S
O631 Zn623 2.024 . S
O631 C625 1.249 . S
H632 C614 0.948 . S
O633 Zn623 2.039 . S
O633 C637 1.251 . S
O634 Zn615 2.025 . S
O634 C637 1.254 . S
O635 C616 1.246 . S
O635 Zn623 2.034 . S
O636 Zn615 2.024 1_556 S
O636 C616 1.249 1_556 S
C637 O633 1.251 . S
C637 O634 1.254 . S
H638 C611 0.949 . S
H639 C613 0.950 . S
H640 C620 0.949 . S
H641 C622 0.950 . S
C642 O658 1.251 . S
C642 O660 1.254 . S
N643 C644 1.333 . S
N643 C648 1.307 . S
N643 Zn649 2.020 . S
C644 N643 1.333 . S
C644 C645 1.379 . S
C644 H662 0.952 . S
C645 C644 1.379 . S
C645 C646 1.390 . S
C645 H672 0.949 . S
C646 C645 1.390 . S
C646 C647 1.357 . S
C647 C646 1.357 . S
C647 C648 1.370 . S
C647 H673 0.950 . S
C648 N643 1.307 . S
C648 C647 1.370 . S
C648 H666 0.948 . S
Zn649 N643 2.020 . S
Zn649 O658 2.039 . S
Zn649 O664 2.034 . S
Zn649 O668 2.025 . S
Zn649 O670 2.024 . S
C650 O669 1.246 . S
C650 O670 1.249 . S
N651 C652 1.307 . S
N651 C653 1.333 . S
N651 Zn657 2.020 . S
C652 N651 1.307 . S
C652 C656 1.370 . S
C652 H663 0.948 . S
C653 N651 1.333 . S
C653 C654 1.379 . S
C653 H661 0.952 . S
C654 C653 1.379 . S
C654 C655 1.390 . S
C654 H674 0.949 . S
C655 C654 1.390 . S
C655 C656 1.357 . S
C656 C652 1.370 . S
C656 C655 1.357 . S
C656 H675 0.950 . S
Zn657 N651 2.020 . S
Zn657 O660 2.025 . S
Zn657 O665 2.024 . S
Zn657 O667 2.039 . S
Zn657 O669 2.034 . S
O658 C642 1.251 . S
O658 Zn649 2.039 . S
C659 O664 1.246 . S
C659 O665 1.249 . S
O660 C642 1.254 . S
O660 Zn657 2.025 . S
H661 C653 0.952 . S
H662 C644 0.952 . S
H663 C652 0.948 . S
O664 Zn649 2.034 . S
O664 C659 1.246 . S
O665 Zn657 2.024 . S
O665 C659 1.249 . S
H666 C648 0.948 . S
O667 Zn657 2.039 . S
O667 C671 1.251 . S
O668 Zn649 2.025 . S
O668 C671 1.254 . S
O669 C650 1.246 . S
O669 Zn657 2.034 . S
O670 Zn649 2.024 . S
O670 C650 1.249 . S
C671 O667 1.251 . S
C671 O668 1.254 . S
H672 C645 0.949 . S
H673 C647 0.950 . S
H674 C654 0.949 . S
H675 C656 0.950 . S
C676 O692 1.251 . S
C676 O694 1.254 . S
N677 C678 1.333 . S
N677 C682 1.307 . S
N677 Zn683 2.020 . S
C678 N677 1.333 . S
C678 C679 1.379 . S
C678 H696 0.952 . S
C679 C678 1.379 . S
C679 C680 1.390 . S
C679 H706 0.949 . S
C680 C679 1.390 . S
C680 C681 1.357 . S
C681 C680 1.357 . S
C681 C682 1.370 . S
C681 H707 0.950 . S
C682 N677 1.307 . S
C682 C681 1.370 . S
C682 H700 0.948 . S
Zn683 N677 2.020 . S
Zn683 O692 2.039 . S
Zn683 O698 2.034 . S
Zn683 O702 2.025 . S
Zn683 O704 2.024 . S
C684 O703 1.246 . S
C684 O704 1.249 . S
N685 C686 1.307 1_455 S
N685 C687 1.333 . S
N685 Zn691 2.020 . S
C686 N685 1.307 1_655 S
C686 C690 1.370 . S
C686 H697 0.948 . S
C687 N685 1.333 . S
C687 C688 1.379 . S
C687 H695 0.952 . S
C688 C687 1.379 . S
C688 C689 1.390 1_455 S
C688 H708 0.949 . S
C689 C688 1.390 1_655 S
C689 C690 1.357 . S
C690 C686 1.370 . S
C690 C689 1.357 . S
C690 H709 0.950 . S
Zn691 N685 2.020 . S
Zn691 O694 2.025 . S
Zn691 O699 2.024 1_455 S
Zn691 O701 2.039 . S
Zn691 O703 2.034 . S
O692 C676 1.251 . S
O692 Zn683 2.039 . S
C693 O698 1.246 1_655 S
C693 O699 1.249 . S
O694 C676 1.254 . S
O694 Zn691 2.025 . S
H695 C687 0.952 . S
H696 C678 0.952 . S
H697 C686 0.948 . S
O698 Zn683 2.034 . S
O698 C693 1.246 1_455 S
O699 Zn691 2.024 1_655 S
O699 C693 1.249 . S
H700 C682 0.948 . S
O701 Zn691 2.039 . S
O701 C705 1.251 . S
O702 Zn683 2.025 . S
O702 C705 1.254 . S
O703 C684 1.246 . S
O703 Zn691 2.034 . S
O704 Zn683 2.024 . S
O704 C684 1.249 . S
C705 O701 1.251 . S
C705 O702 1.254 . S
H706 C679 0.949 . S
H707 C681 0.950 . S
H708 C688 0.949 . S
H709 C690 0.950 . S
C710 O726 1.251 . S
C710 O728 1.254 . S
N711 C712 1.333 . S
N711 C716 1.307 . S
N711 Zn717 2.020 . S
C712 N711 1.333 . S
C712 C713 1.379 . S
C712 H730 0.952 . S
C713 C712 1.379 . S
C713 C714 1.390 . S
C713 H740 0.949 . S
C714 C713 1.390 . S
C714 C715 1.357 . S
C715 C714 1.357 . S
C715 C716 1.370 . S
C715 H741 0.950 . S
C716 N711 1.307 . S
C716 C715 1.370 . S
C716 H734 0.948 . S
Zn717 N711 2.020 . S
Zn717 O726 2.039 . S
Zn717 O732 2.034 . S
Zn717 O736 2.025 . S
Zn717 O738 2.024 . S
C718 O737 1.246 . S
C718 O738 1.249 . S
N719 C720 1.307 . S
N719 C721 1.333 . S
N719 Zn725 2.020 . S
C720 N719 1.307 . S
C720 C724 1.370 . S
C720 H731 0.948 . S
C721 N719 1.333 . S
C721 C722 1.379 . S
C721 H729 0.952 . S
C722 C721 1.379 . S
C722 C723 1.390 . S
C722 H742 0.949 . S
C723 C722 1.390 . S
C723 C724 1.357 . S
C724 C720 1.370 . S
C724 C723 1.357 . S
C724 H743 0.950 . S
Zn725 N719 2.020 . S
Zn725 O728 2.025 . S
Zn725 O733 2.024 . S
Zn725 O735 2.039 . S
Zn725 O737 2.034 . S
O726 C710 1.251 . S
O726 Zn717 2.039 . S
C727 O732 1.246 . S
C727 O733 1.249 . S
O728 C710 1.254 . S
O728 Zn725 2.025 . S
H729 C721 0.952 . S
H730 C712 0.952 . S
H731 C720 0.948 . S
O732 Zn717 2.034 . S
O732 C727 1.246 . S
O733 Zn725 2.024 . S
O733 C727 1.249 . S
H734 C716 0.948 . S
O735 Zn725 2.039 . S
O735 C739 1.251 . S
O736 Zn717 2.025 . S
O736 C739 1.254 . S
O737 C718 1.246 . S
O737 Zn725 2.034 . S
O738 Zn717 2.024 . S
O738 C718 1.249 . S
C739 O735 1.251 . S
C739 O736 1.254 . S
H740 C713 0.949 . S
H741 C715 0.950 . S
H742 C722 0.949 . S
H743 C724 0.950 . S
C744 O760 1.251 . S
C744 O762 1.254 . S
N745 C746 1.333 . S
N745 C750 1.307 . S
N745 Zn751 2.020 . S
C746 N745 1.333 . S
C746 C747 1.379 . S
C746 H764 0.952 . S
C747 C746 1.379 . S
C747 C748 1.390 . S
C747 H774 0.949 . S
C748 C747 1.390 . S
C748 C749 1.357 . S
C749 C748 1.357 . S
C749 C750 1.370 . S
C749 H775 0.950 . S
C750 N745 1.307 . S
C750 C749 1.370 . S
C750 H768 0.948 . S
Zn751 N745 2.020 . S
Zn751 O760 2.039 . S
Zn751 O766 2.034 . S
Zn751 O770 2.025 . S
Zn751 O772 2.024 . S
C752 O771 1.246 . S
C752 O772 1.249 . S
N753 C754 1.307 . S
N753 C755 1.333 . S
N753 Zn759 2.020 . S
C754 N753 1.307 . S
C754 C758 1.370 . S
C754 H765 0.948 . S
C755 N753 1.333 . S
C755 C756 1.379 . S
C755 H763 0.952 . S
C756 C755 1.379 . S
C756 C757 1.390 . S
C756 H776 0.949 . S
C757 C756 1.390 . S
C757 C758 1.357 . S
C758 C754 1.370 . S
C758 C757 1.357 . S
C758 H777 0.950 . S
Zn759 N753 2.020 . S
Zn759 O762 2.025 . S
Zn759 O767 2.024 . S
Zn759 O769 2.039 . S
Zn759 O771 2.034 . S
O760 C744 1.251 . S
O760 Zn751 2.039 . S
C761 O766 1.246 . S
C761 O767 1.249 . S
O762 C744 1.254 . S
O762 Zn759 2.025 . S
H763 C755 0.952 . S
H764 C746 0.952 . S
H765 C754 0.948 . S
O766 Zn751 2.034 . S
O766 C761 1.246 . S
O767 Zn759 2.024 . S
O767 C761 1.249 . S
H768 C750 0.948 . S
O769 Zn759 2.039 . S
O769 C773 1.251 . S
O770 Zn751 2.025 . S
O770 C773 1.254 . S
O771 C752 1.246 . S
O771 Zn759 2.034 . S
O772 Zn751 2.024 . S
O772 C752 1.249 . S
C773 O769 1.251 . S
C773 O770 1.254 . S
H774 C747 0.949 . S
H775 C749 0.950 . S
H776 C756 0.949 . S
H777 C758 0.950 . S
C778 O794 1.251 . S
C778 O796 1.254 . S
N779 C780 1.333 . S
N779 C784 1.307 . S
N779 Zn785 2.020 . S
C780 N779 1.333 . S
C780 C781 1.379 . S
C780 H798 0.952 . S
C781 C780 1.379 . S
C781 C782 1.390 . S
C781 H808 0.949 . S
C782 C781 1.390 . S
C782 C783 1.357 . S
C783 C782 1.357 . S
C783 C784 1.370 . S
C783 H809 0.950 . S
C784 N779 1.307 . S
C784 C783 1.370 . S
C784 H802 0.948 . S
Zn785 N779 2.020 . S
Zn785 O794 2.039 . S
Zn785 O800 2.034 . S
Zn785 O804 2.025 . S
Zn785 O806 2.024 . S
C786 O805 1.246 . S
C786 O806 1.249 . S
N787 C788 1.307 . S
N787 C789 1.333 . S
N787 Zn793 2.020 . S
C788 N787 1.307 . S
C788 C792 1.370 . S
C788 H799 0.948 . S
C789 N787 1.333 . S
C789 C790 1.379 . S
C789 H797 0.952 . S
C790 C789 1.379 . S
C790 C791 1.390 . S
C790 H810 0.949 . S
C791 C790 1.390 . S
C791 C792 1.357 . S
C792 C788 1.370 . S
C792 C791 1.357 . S
C792 H811 0.950 . S
Zn793 N787 2.020 . S
Zn793 O796 2.025 . S
Zn793 O801 2.024 . S
Zn793 O803 2.039 . S
Zn793 O805 2.034 . S
O794 C778 1.251 . S
O794 Zn785 2.039 . S
C795 O800 1.246 . S
C795 O801 1.249 . S
O796 C778 1.254 . S
O796 Zn793 2.025 . S
H797 C789 0.952 . S
H798 C780 0.952 . S
H799 C788 0.948 . S
O800 Zn785 2.034 . S
O800 C795 1.246 . S
O801 Zn793 2.024 . S
O801 C795 1.249 . S
H802 C784 0.948 . S
O803 Zn793 2.039 . S
O803 C807 1.251 . S
O804 Zn785 2.025 . S
O804 C807 1.254 . S
O805 C786 1.246 . S
O805 Zn793 2.034 . S
O806 Zn785 2.024 . S
O806 C786 1.249 . S
C807 O803 1.251 . S
C807 O804 1.254 . S
H808 C781 0.949 . S
H809 C783 0.950 . S
H810 C790 0.949 . S
H811 C792 0.950 . S
C812 O828 1.251 . S
C812 O830 1.254 . S
N813 C814 1.333 . S
N813 C818 1.307 . S
N813 Zn819 2.020 . S
C814 N813 1.333 . S
C814 C815 1.379 . S
C814 H832 0.952 . S
C815 C814 1.379 . S
C815 C816 1.390 . S
C815 H842 0.949 . S
C816 C815 1.390 . S
C816 C817 1.357 . S
C817 C816 1.357 . S
C817 C818 1.370 . S
C817 H843 0.950 . S
C818 N813 1.307 . S
C818 C817 1.370 . S
C818 H836 0.948 . S
Zn819 N813 2.020 . S
Zn819 O828 2.039 . S
Zn819 O834 2.034 . S
Zn819 O838 2.025 . S
Zn819 O840 2.024 . S
C820 O839 1.246 . S
C820 O840 1.249 . S
N821 C822 1.307 . S
N821 C823 1.333 . S
N821 Zn827 2.020 . S
C822 N821 1.307 . S
C822 C826 1.370 . S
C822 H833 0.948 . S
C823 N821 1.333 . S
C823 C824 1.379 . S
C823 H831 0.952 . S
C824 C823 1.379 . S
C824 C825 1.390 . S
C824 H844 0.949 . S
C825 C824 1.390 . S
C825 C826 1.357 . S
C826 C822 1.370 . S
C826 C825 1.357 . S
C826 H845 0.950 . S
Zn827 N821 2.020 . S
Zn827 O830 2.025 . S
Zn827 O835 2.024 . S
Zn827 O837 2.039 . S
Zn827 O839 2.034 . S
O828 C812 1.251 . S
O828 Zn819 2.039 . S
C829 O834 1.246 . S
C829 O835 1.249 . S
O830 C812 1.254 . S
O830 Zn827 2.025 . S
H831 C823 0.952 . S
H832 C814 0.952 . S
H833 C822 0.948 . S
O834 Zn819 2.034 . S
O834 C829 1.246 . S
O835 Zn827 2.024 . S
O835 C829 1.249 . S
H836 C818 0.948 . S
O837 Zn827 2.039 . S
O837 C841 1.251 . S
O838 Zn819 2.025 . S
O838 C841 1.254 . S
O839 C820 1.246 . S
O839 Zn827 2.034 . S
O840 Zn819 2.024 . S
O840 C820 1.249 . S
C841 O837 1.251 . S
C841 O838 1.254 . S
H842 C815 0.949 . S
H843 C817 0.950 . S
H844 C824 0.949 . S
H845 C826 0.950 . S
C846 O862 1.251 . S
C846 O864 1.254 . S
N847 C848 1.333 . S
N847 C852 1.307 . S
N847 Zn853 2.020 . S
C848 N847 1.333 . S
C848 C849 1.379 . S
C848 H866 0.952 . S
C849 C848 1.379 . S
C849 C850 1.390 . S
C849 H876 0.949 . S
C850 C849 1.390 . S
C850 C851 1.357 . S
C851 C850 1.357 . S
C851 C852 1.370 . S
C851 H877 0.950 . S
C852 N847 1.307 . S
C852 C851 1.370 . S
C852 H870 0.948 . S
Zn853 N847 2.020 . S
Zn853 O862 2.039 . S
Zn853 O868 2.034 . S
Zn853 O872 2.064 . S
Zn853 O874 2.024 . S
C854 O873 1.246 . S
C854 O874 1.249 1_655 S
N855 C856 1.307 . S
N855 C857 1.333 1_554 S
N855 Zn861 2.020 . S
C856 N855 1.307 . S
C856 C860 1.370 . S
C856 H867 0.948 . S
C857 N855 1.333 1_556 S
C857 C858 1.394 . S
C857 H865 0.952 . S
C858 C857 1.394 . S
C858 C859 1.383 1_455 S
C858 H878 0.941 1_455 S
C859 C858 1.383 1_655 S
C859 C860 1.346 1_656 S
C860 C856 1.370 . S
C860 C859 1.346 1_454 S
C860 H879 0.950 . S
Zn861 N855 2.020 . S
Zn861 O864 2.025 . S
Zn861 O869 2.024 . S
Zn861 O871 2.039 1_554 S
Zn861 O873 2.034 1_455 S
O862 C846 1.251 . S
O862 Zn853 2.039 . S
C863 O868 1.246 . S
C863 O869 1.249 . S
O864 C846 1.254 . S
O864 Zn861 2.025 . S
H865 C857 0.952 . S
H866 C848 0.952 . S
H867 C856 0.948 . S
O868 Zn853 2.034 . S
O868 C863 1.246 . S
O869 Zn861 2.024 . S
O869 C863 1.249 . S
H870 C852 0.948 . S
O871 Zn861 2.039 1_556 S
O871 C875 1.251 . S
O872 Zn853 2.064 . S
O872 C875 1.227 1_554 S
O873 C854 1.246 . S
O873 Zn861 2.034 1_655 S
O874 Zn853 2.024 . S
O874 C854 1.249 1_455 S
C875 O871 1.251 . S
C875 O872 1.227 1_556 S
H876 C849 0.949 . S
H877 C851 0.950 . S
H878 C858 0.941 1_655 S
H879 C860 0.950 . S
C880 C881 1.391 . S
C880 C882 1.394 . S
C880 H896 0.931 . S
C881 C880 1.391 . S
C881 C885 1.376 . S
C882 C880 1.394 . S
C882 C883 1.369 . S
C882 C886 1.531 . S
C883 C882 1.369 . S
C883 C884 1.410 . S
C883 C891 1.503 . S
C884 C883 1.410 . S
C884 C885 1.392 . S
C884 C887 1.511 . S
C885 C881 1.376 . S
C885 C884 1.392 . S
C885 H897 0.929 . S
C886 C882 1.531 . S
C886 H898 0.960 . S
C886 H899 0.962 . S
C886 H900 0.960 . S
C887 C884 1.511 . S
C887 H901 0.961 . S
C887 H902 0.961 . S
C887 H903 0.961 1_455 S
C888 C889 1.370 . S
C888 C890 1.363 . S
C888 H904 0.931 . S
C889 C888 1.370 . S
C889 C893 1.408 . S
C890 C888 1.363 . S
C890 C891 1.370 . S
C890 C894 1.524 . S
C891 C883 1.503 . S
C891 C890 1.370 . S
C891 C892 1.403 . S
C892 C891 1.403 . S
C892 C893 1.404 . S
C892 C895 1.539 . S
C893 C889 1.408 . S
C893 C892 1.404 . S
C893 H905 0.957 . S
C894 C890 1.524 . S
C894 H906 0.956 . S
C894 H907 0.961 . S
C894 H908 0.961 . S
C895 C892 1.539 . S
C895 H909 0.958 . S
C895 H910 0.961 1_455 S
C895 H911 0.960 . S
H896 C880 0.931 . S
H897 C885 0.929 . S
H898 C886 0.960 . S
H899 C886 0.962 . S
H900 C886 0.960 . S
H901 C887 0.961 . S
H902 C887 0.961 . S
H903 C887 0.961 1_655 S
H904 C888 0.931 . S
H905 C893 0.957 . S
H906 C894 0.956 . S
H907 C894 0.961 . S
H908 C894 0.961 . S
H909 C895 0.958 . S
H910 C895 0.961 1_655 S
H911 C895 0.960 . S
C912 C913 1.391 . S
C912 C914 1.394 . S
C912 H928 0.931 . S
C913 C912 1.391 . S
C913 C917 1.376 . S
C914 C912 1.394 . S
C914 C915 1.369 . S
C914 C918 1.531 . S
C915 C914 1.369 . S
C915 C916 1.410 . S
C915 C923 1.503 . S
C916 C915 1.410 . S
C916 C917 1.392 . S
C916 C919 1.511 . S
C917 C913 1.376 . S
C917 C916 1.392 . S
C917 H929 0.929 . S
C918 C914 1.531 . S
C918 H930 0.960 . S
C918 H931 0.962 . S
C918 H932 0.960 . S
C919 C916 1.511 . S
C919 H933 0.961 . S
C919 H934 0.961 . S
C919 H935 0.961 . S
C920 C921 1.370 . S
C920 C922 1.363 . S
C920 H936 0.931 . S
C921 C920 1.370 . S
C921 C925 1.408 . S
C922 C920 1.363 . S
C922 C923 1.370 . S
C922 C926 1.524 . S
C923 C915 1.503 . S
C923 C922 1.370 . S
C923 C924 1.403 . S
C924 C923 1.403 . S
C924 C925 1.404 . S
C924 C927 1.539 . S
C925 C921 1.408 . S
C925 C924 1.404 . S
C925 H937 0.930 . S
C926 C922 1.524 . S
C926 H938 0.956 . S
C926 H939 0.961 . S
C926 H940 0.961 . S
C927 C924 1.539 . S
C927 H941 0.958 . S
C927 H942 0.961 . S
C927 H943 0.960 . S
H928 C912 0.931 . S
H929 C917 0.929 . S
H930 C918 0.960 . S
H931 C918 0.962 . S
H932 C918 0.960 . S
H933 C919 0.961 . S
H934 C919 0.961 . S
H935 C919 0.961 . S
H936 C920 0.931 . S
H937 C925 0.930 . S
H938 C926 0.956 . S
H939 C926 0.961 . S
H940 C926 0.961 . S
H941 C927 0.958 . S
H942 C927 0.961 . S
H943 C927 0.960 . S
C944 C945 1.391 . S
C944 C946 1.394 . S
C944 H960 0.931 . S
C945 C944 1.391 . S
C945 C949 1.376 . S
C946 C944 1.394 . S
C946 C947 1.369 . S
C946 C950 1.531 . S
C947 C946 1.369 . S
C947 C948 1.410 . S
C947 C955 1.503 . S
C948 C947 1.410 . S
C948 C949 1.392 . S
C948 C951 1.511 . S
C949 C945 1.376 . S
C949 C948 1.392 . S
C949 H961 0.929 . S
C950 C946 1.531 . S
C950 H962 0.960 . S
C950 H963 0.962 . S
C950 H964 0.960 . S
C951 C948 1.511 . S
C951 H965 0.961 . S
C951 H966 0.961 . S
C951 H967 0.961 . S
C952 C953 1.370 . S
C952 C954 1.363 . S
C952 H968 0.931 . S
C953 C952 1.370 . S
C953 C957 1.408 . S
C954 C952 1.363 . S
C954 C955 1.370 . S
C954 C958 1.524 . S
C955 C947 1.503 . S
C955 C954 1.370 . S
C955 C956 1.403 . S
C956 C955 1.403 . S
C956 C957 1.404 . S
C956 C959 1.539 . S
C957 C953 1.408 . S
C957 C956 1.404 . S
C957 H969 0.930 . S
C958 C954 1.524 . S
C958 H970 0.956 . S
C958 H971 0.961 . S
C958 H972 0.961 . S
C959 C956 1.539 . S
C959 H973 0.958 . S
C959 H974 0.961 . S
C959 H975 0.960 . S
H960 C944 0.931 . S
H961 C949 0.929 . S
H962 C950 0.960 . S
H963 C950 0.962 . S
H964 C950 0.960 . S
H965 C951 0.961 . S
H966 C951 0.961 . S
H967 C951 0.961 . S
H968 C952 0.931 . S
H969 C957 0.930 . S
H970 C958 0.956 . S
H971 C958 0.961 . S
H972 C958 0.961 . S
H973 C959 0.958 . S
H974 C959 0.961 . S
H975 C959 0.960 . S
C976 C977 1.391 . S
C976 C978 1.394 . S
C976 H992 0.931 . S
C977 C976 1.391 . S
C977 C981 1.376 . S
C978 C976 1.394 . S
C978 C979 1.369 . S
C978 C982 1.531 . S
C979 C978 1.369 . S
C979 C980 1.410 . S
C979 C987 1.503 . S
C980 C979 1.410 . S
C980 C981 1.392 . S
C980 C983 1.511 . S
C981 C977 1.376 . S
C981 C980 1.392 . S
C981 H993 0.929 . S
C982 C978 1.531 . S
C982 H994 0.960 . S
C982 H995 0.962 . S
C982 H996 0.960 . S
C983 C980 1.511 . S
C983 H997 0.961 . S
C983 H998 0.961 . S
C983 H999 0.961 . S
C984 C985 1.370 . S
C984 C986 1.363 . S
C984 H1000 0.931 . S
C985 C984 1.370 . S
C985 C989 1.408 . S
C986 C984 1.363 . S
C986 C987 1.370 . S
C986 C990 1.524 . S
C987 C979 1.503 . S
C987 C986 1.370 . S
C987 C988 1.403 . S
C988 C987 1.403 . S
C988 C989 1.404 . S
C988 C991 1.539 . S
C989 C985 1.408 . S
C989 C988 1.404 . S
C989 H1001 0.930 . S
C990 C986 1.524 . S
C990 H1002 0.956 . S
C990 H1003 0.961 . S
C990 H1004 0.961 . S
C991 C988 1.539 . S
C991 H1005 0.958 . S
C991 H1006 0.961 . S
C991 H1007 0.960 . S
H992 C976 0.931 . S
H993 C981 0.929 . S
H994 C982 0.960 . S
H995 C982 0.962 . S
H996 C982 0.960 . S
H997 C983 0.961 . S
H998 C983 0.961 . S
H999 C983 0.961 . S
H1000 C984 0.931 . S
H1001 C989 0.930 . S
H1002 C990 0.956 . S
H1003 C990 0.961 . S
H1004 C990 0.961 . S
H1005 C991 0.958 . S
H1006 C991 0.961 . S
H1007 C991 0.960 . S
C1008 C1009 1.391 . S
C1008 C1010 1.394 . S
C1008 H1024 0.931 . S
C1009 C1008 1.391 . S
C1009 C1013 1.376 . S
C1010 C1008 1.394 . S
C1010 C1011 1.369 . S
C1010 C1014 1.531 1_455 S
C1011 C1010 1.369 . S
C1011 C1012 1.410 . S
C1011 C1019 1.503 . S
C1012 C1011 1.410 . S
C1012 C1013 1.392 . S
C1012 C1015 1.511 . S
C1013 C1009 1.376 . S
C1013 C1012 1.392 . S
C1013 H1025 0.929 . S
C1014 C1010 1.531 1_655 S
C1014 H1026 0.960 . S
C1014 H1027 0.962 . S
C1014 H1028 0.960 . S
C1015 C1012 1.511 . S
C1015 H1029 0.961 . S
C1015 H1030 0.961 . S
C1015 H1031 0.961 . S
C1016 C1017 1.370 . S
C1016 C1018 1.363 . S
C1016 H1032 0.931 . S
C1017 C1016 1.370 . S
C1017 C1021 1.408 . S
C1018 C1016 1.363 . S
C1018 C1019 1.370 . S
C1018 C1022 1.524 . S
C1019 C1011 1.503 . S
C1019 C1018 1.370 . S
C1019 C1020 1.403 . S
C1020 C1019 1.403 . S
C1020 C1021 1.404 . S
C1020 C1023 1.539 1_455 S
C1021 C1017 1.408 . S
C1021 C1020 1.404 . S
C1021 H1033 0.930 1_455 S
C1022 C1018 1.524 . S
C1022 H1034 0.956 . S
C1022 H1035 0.961 . S
C1022 H1036 0.961 . S
C1023 C1020 1.539 1_655 S
C1023 H1037 0.958 . S
C1023 H1038 0.961 . S
C1023 H1039 0.960 . S
H1024 C1008 0.931 . S
H1025 C1013 0.929 . S
H1026 C1014 0.960 . S
H1027 C1014 0.962 . S
H1028 C1014 0.960 . S
H1029 C1015 0.961 . S
H1030 C1015 0.961 . S
H1031 C1015 0.961 . S
H1032 C1016 0.931 . S
H1033 C1021 0.930 1_655 S
H1034 C1022 0.956 . S
H1035 C1022 0.961 . S
H1036 C1022 0.961 . S
H1037 C1023 0.958 . S
H1038 C1023 0.961 . S
H1039 C1023 0.960 . S
C1040 C1041 1.391 . S
C1040 C1042 1.394 . S
C1040 H1056 0.931 . S
C1041 C1040 1.391 . S
C1041 C1045 1.376 . S
C1042 C1040 1.394 . S
C1042 C1043 1.369 . S
C1042 C1046 1.531 . S
C1043 C1042 1.369 . S
C1043 C1044 1.410 . S
C1043 C1051 1.503 . S
C1044 C1043 1.410 . S
C1044 C1045 1.392 . S
C1044 C1047 1.511 . S
C1045 C1041 1.376 . S
C1045 C1044 1.392 . S
C1045 H1057 0.929 . S
C1046 C1042 1.531 . S
C1046 H1058 0.960 . S
C1046 H1059 0.962 . S
C1046 H1060 0.960 . S
C1047 C1044 1.511 . S
C1047 H1061 0.961 . S
C1047 H1062 0.961 . S
C1047 H1063 0.961 . S
C1048 C1049 1.370 . S
C1048 C1050 1.363 . S
C1048 H1064 0.931 . S
C1049 C1048 1.370 . S
C1049 C1053 1.408 . S
C1050 C1048 1.363 . S
C1050 C1051 1.370 . S
C1050 C1054 1.524 . S
C1051 C1043 1.503 . S
C1051 C1050 1.370 . S
C1051 C1052 1.403 . S
C1052 C1051 1.403 . S
C1052 C1053 1.404 . S
C1052 C1055 1.539 . S
C1053 C1049 1.408 . S
C1053 C1052 1.404 . S
C1053 H1065 0.930 . S
C1054 C1050 1.524 . S
C1054 H1066 0.956 . S
C1054 H1067 0.961 . S
C1054 H1068 0.961 . S
C1055 C1052 1.539 . S
C1055 H1069 0.958 . S
C1055 H1070 0.961 . S
C1055 H1071 0.960 . S
H1056 C1040 0.931 . S
H1057 C1045 0.929 . S
H1058 C1046 0.960 . S
H1059 C1046 0.962 . S
H1060 C1046 0.960 . S
H1061 C1047 0.961 . S
H1062 C1047 0.961 . S
H1063 C1047 0.961 . S
H1064 C1048 0.931 . S
H1065 C1053 0.930 . S
H1066 C1054 0.956 . S
H1067 C1054 0.961 . S
H1068 C1054 0.961 . S
H1069 C1055 0.958 . S
H1070 C1055 0.961 . S
H1071 C1055 0.960 . S
C1072 C1073 1.391 . S
C1072 C1074 1.394 . S
C1072 H1088 0.931 . S
C1073 C1072 1.391 . S
C1073 C1077 1.376 . S
C1074 C1072 1.394 . S
C1074 C1075 1.369 . S
C1074 C1078 1.531 . S
C1075 C1074 1.369 . S
C1075 C1076 1.410 . S
C1075 C1083 1.503 . S
C1076 C1075 1.410 . S
C1076 C1077 1.392 . S
C1076 C1079 1.511 . S
C1077 C1073 1.376 . S
C1077 C1076 1.392 . S
C1077 H1089 0.929 . S
C1078 C1074 1.531 . S
C1078 H1090 0.960 . S
C1078 H1091 0.962 . S
C1078 H1092 0.960 . S
C1079 C1076 1.511 . S
C1079 H1093 0.961 . S
C1079 H1094 0.961 . S
C1079 H1095 0.961 . S
C1080 C1081 1.370 1_554 S
C1080 C1082 1.363 1_554 S
C1080 H1096 0.931 . S
C1081 C1080 1.370 1_556 S
C1081 C1085 1.408 . S
C1082 C1080 1.363 1_556 S
C1082 C1083 1.370 . S
C1082 C1086 1.524 . S
C1083 C1075 1.503 . S
C1083 C1082 1.370 . S
C1083 C1084 1.403 . S
C1084 C1083 1.403 . S
C1084 C1085 1.404 . S
C1084 C1087 1.539 . S
C1085 C1081 1.408 . S
C1085 C1084 1.404 . S
C1085 H1097 0.930 . S
C1086 C1082 1.524 . S
C1086 H1098 0.956 . S
C1086 H1099 0.961 . S
C1086 H1100 0.961 1_556 S
C1087 C1084 1.539 . S
C1087 H1101 0.958 . S
C1087 H1102 0.961 . S
C1087 H1103 0.960 . S
H1088 C1072 0.931 . S
H1089 C1077 0.929 . S
H1090 C1078 0.960 . S
H1091 C1078 0.962 . S
H1092 C1078 0.960 . S
H1093 C1079 0.961 . S
H1094 C1079 0.961 . S
H1095 C1079 0.961 . S
H1096 C1080 0.931 . S
H1097 C1085 0.930 . S
H1098 C1086 0.956 . S
H1099 C1086 0.961 . S
H1100 C1086 0.961 1_554 S
H1101 C1087 0.958 . S
H1102 C1087 0.961 . S
H1103 C1087 0.960 . S
C1104 C1105 1.391 . S
C1104 C1106 1.394 . S
C1104 H1120 0.931 . S
C1105 C1104 1.391 . S
C1105 C1109 1.376 . S
C1106 C1104 1.394 . S
C1106 C1107 1.369 . S
C1106 C1110 1.531 . S
C1107 C1106 1.369 . S
C1107 C1108 1.410 . S
C1107 C1115 1.503 . S
C1108 C1107 1.410 . S
C1108 C1109 1.392 . S
C1108 C1111 1.511 . S
C1109 C1105 1.376 . S
C1109 C1108 1.392 . S
C1109 H1121 0.929 . S
C1110 C1106 1.531 . S
C1110 H1122 0.960 . S
C1110 H1123 0.962 . S
C1110 H1124 0.960 . S
C1111 C1108 1.511 . S
C1111 H1125 0.961 . S
C1111 H1126 0.961 . S
C1111 H1127 0.961 . S
C1112 C1113 1.370 . S
C1112 C1114 1.363 . S
C1112 H1128 0.931 . S
C1113 C1112 1.370 . S
C1113 C1117 1.408 . S
C1114 C1112 1.363 . S
C1114 C1115 1.370 . S
C1114 C1118 1.524 . S
C1115 C1107 1.503 . S
C1115 C1114 1.370 . S
C1115 C1116 1.403 . S
C1116 C1115 1.403 . S
C1116 C1117 1.404 . S
C1116 C1119 1.539 . S
C1117 C1113 1.408 . S
C1117 C1116 1.404 . S
C1117 H1129 0.930 . S
C1118 C1114 1.524 . S
C1118 H1130 0.956 . S
C1118 H1131 0.961 . S
C1118 H1132 0.961 . S
C1119 C1116 1.539 . S
C1119 H1133 0.958 . S
C1119 H1134 0.961 . S
C1119 H1135 0.960 . S
H1120 C1104 0.931 . S
H1121 C1109 0.929 . S
H1122 C1110 0.960 . S
H1123 C1110 0.962 . S
H1124 C1110 0.960 . S
H1125 C1111 0.961 . S
H1126 C1111 0.961 . S
H1127 C1111 0.961 . S
H1128 C1112 0.931 . S
H1129 C1117 0.930 . S
H1130 C1118 0.956 . S
H1131 C1118 0.961 . S
H1132 C1118 0.961 . S
H1133 C1119 0.958 . S
H1134 C1119 0.961 . S
H1135 C1119 0.960 . S
C1136 C1137 1.391 1_565 S
C1136 C1138 1.394 . S
C1136 H1152 0.931 . S
C1137 C1136 1.391 1_545 S
C1137 C1141 1.376 . S
C1138 C1136 1.394 . S
C1138 C1139 1.369 1_565 S
C1138 C1142 1.531 . S
C1139 C1138 1.369 1_545 S
C1139 C1140 1.410 . S
C1139 C1147 1.503 . S
C1140 C1139 1.410 . S
C1140 C1141 1.392 . S
C1140 C1143 1.511 . S
C1141 C1137 1.376 . S
C1141 C1140 1.392 . S
C1141 H1153 0.929 . S
C1142 C1138 1.531 . S
C1142 H1154 0.960 . S
C1142 H1155 0.962 . S
C1142 H1156 0.960 . S
C1143 C1140 1.511 . S
C1143 H1157 0.961 . S
C1143 H1158 0.961 . S
C1143 H1159 0.961 . S
C1144 C1145 1.370 1_545 S
C1144 C1146 1.363 . S
C1144 H1160 0.931 . S
C1145 C1144 1.370 1_565 S
C1145 C1149 1.408 . S
C1146 C1144 1.363 . S
C1146 C1147 1.370 . S
C1146 C1150 1.524 . S
C1147 C1139 1.503 . S
C1147 C1146 1.370 . S
C1147 C1148 1.403 1_545 S
C1148 C1147 1.403 1_565 S
C1148 C1149 1.404 . S
C1148 C1151 1.539 . S
C1149 C1145 1.408 . S
C1149 C1148 1.404 . S
C1149 H1161 0.930 . S
C1150 C1146 1.524 . S
C1150 H1162 0.956 . S
C1150 H1163 0.961 . S
C1150 H1164 0.961 . S
C1151 C1148 1.539 . S
C1151 H1165 0.958 . S
C1151 H1166 0.961 . S
C1151 H1167 0.960 . S
H1152 C1136 0.931 . S
H1153 C1141 0.929 . S
H1154 C1142 0.960 . S
H1155 C1142 0.962 . S
H1156 C1142 0.960 . S
H1157 C1143 0.961 . S
H1158 C1143 0.961 . S
H1159 C1143 0.961 . S
H1160 C1144 0.931 . S
H1161 C1149 0.930 . S
H1162 C1150 0.956 . S
H1163 C1150 0.961 . S
H1164 C1150 0.961 . S
H1165 C1151 0.958 . S
H1166 C1151 0.961 . S
H1167 C1151 0.960 . S
C1168 C1169 1.391 . S
C1168 C1170 1.394 . S
C1168 H1184 0.931 . S
C1169 C1168 1.391 . S
C1169 C1173 1.376 . S
C1170 C1168 1.394 . S
C1170 C1171 1.369 . S
C1170 C1174 1.531 . S
C1171 C1170 1.369 . S
C1171 C1172 1.410 . S
C1171 C1179 1.503 . S
C1172 C1171 1.410 . S
C1172 C1173 1.392 . S
C1172 C1175 1.511 . S
C1173 C1169 1.376 . S
C1173 C1172 1.392 . S
C1173 H1185 0.929 . S
C1174 C1170 1.531 . S
C1174 H1186 0.960 . S
C1174 H1187 0.962 . S
C1174 H1188 0.960 . S
C1175 C1172 1.511 . S
C1175 H1189 0.961 . S
C1175 H1190 0.961 . S
C1175 H1191 0.961 . S
C1176 C1177 1.370 . S
C1176 C1178 1.363 . S
C1176 H1192 0.931 . S
C1177 C1176 1.370 . S
C1177 C1181 1.408 . S
C1178 C1176 1.363 . S
C1178 C1179 1.370 . S
C1178 C1182 1.524 . S
C1179 C1171 1.503 . S
C1179 C1178 1.370 . S
C1179 C1180 1.403 . S
C1180 C1179 1.403 . S
C1180 C1181 1.404 . S
C1180 C1183 1.539 . S
C1181 C1177 1.408 . S
C1181 C1180 1.404 . S
C1181 H1193 0.930 . S
C1182 C1178 1.524 . S
C1182 H1194 0.956 . S
C1182 H1195 0.961 . S
C1182 H1196 0.961 . S
C1183 C1180 1.539 . S
C1183 H1197 0.958 . S
C1183 H1198 0.961 . S
C1183 H1199 0.960 . S
H1184 C1168 0.931 . S
H1185 C1173 0.929 . S
H1186 C1174 0.960 . S
H1187 C1174 0.962 . S
H1188 C1174 0.960 . S
H1189 C1175 0.961 . S
H1190 C1175 0.961 . S
H1191 C1175 0.961 . S
H1192 C1176 0.931 . S
H1193 C1181 0.930 . S
H1194 C1182 0.956 . S
H1195 C1182 0.961 . S
H1196 C1182 0.961 . S
H1197 C1183 0.958 . S
H1198 C1183 0.961 . S
H1199 C1183 0.960 . S
C1200 C1201 1.391 . S
C1200 C1202 1.394 . S
C1200 H1216 0.931 . S
C1201 C1200 1.391 . S
C1201 C1205 1.376 1_545 S
C1202 C1200 1.394 . S
C1202 C1203 1.369 . S
C1202 C1206 1.531 . S
C1203 C1202 1.369 . S
C1203 C1204 1.410 1_545 S
C1203 C1211 1.503 . S
C1204 C1203 1.410 1_565 S
C1204 C1205 1.392 . S
C1204 C1207 1.511 . S
C1205 C1201 1.376 1_565 S
C1205 C1204 1.392 . S
C1205 H1217 0.929 . S
C1206 C1202 1.531 . S
C1206 H1218 0.960 . S
C1206 H1219 0.962 . S
C1206 H1220 0.960 . S
C1207 C1204 1.511 . S
C1207 H1221 0.961 . S
C1207 H1222 0.961 . S
C1207 H1223 0.961 . S
C1208 C1209 1.370 . S
C1208 C1210 1.363 . S
C1208 H1224 0.931 . S
C1209 C1208 1.370 . S
C1209 C1213 1.408 . S
C1210 C1208 1.363 . S
C1210 C1211 1.370 . S
C1210 C1214 1.524 . S
C1211 C1203 1.503 . S
C1211 C1210 1.370 . S
C1211 C1212 1.395 1_545 S
C1212 C1211 1.395 1_565 S
C1212 C1213 1.402 1_565 S
C1212 C1215 1.549 . S
C1213 C1209 1.408 . S
C1213 C1212 1.402 1_545 S
C1213 H1225 0.930 1_545 S
C1214 C1210 1.524 . S
C1214 H1226 0.956 . S
C1214 H1227 0.961 . S
C1214 H1228 0.961 . S
C1215 C1212 1.549 . S
C1215 H1229 0.958 . S
C1215 H1230 0.961 . S
C1215 H1231 0.960 . S
H1216 C1200 0.931 . S
H1217 C1205 0.929 . S
H1218 C1206 0.960 . S
H1219 C1206 0.962 . S
H1220 C1206 0.960 . S
H1221 C1207 0.961 . S
H1222 C1207 0.961 . S
H1223 C1207 0.961 . S
H1224 C1208 0.931 . S
H1225 C1213 0.930 1_565 S
H1226 C1214 0.956 . S
H1227 C1214 0.961 . S
H1228 C1214 0.961 . S
H1229 C1215 0.958 . S
H1230 C1215 0.961 . S
H1231 C1215 0.960 . S
C1232 C1233 1.391 . S
C1232 C1234 1.394 . S
C1232 H1248 0.931 . S
C1233 C1232 1.391 . S
C1233 C1237 1.376 . S
C1234 C1232 1.394 . S
C1234 C1235 1.369 . S
C1234 C1238 1.531 . S
C1235 C1234 1.369 . S
C1235 C1236 1.410 . S
C1235 C1243 1.503 . S
C1236 C1235 1.410 . S
C1236 C1237 1.392 . S
C1236 C1239 1.511 . S
C1237 C1233 1.376 . S
C1237 C1236 1.392 . S
C1237 H1249 0.929 . S
C1238 C1234 1.531 . S
C1238 H1250 0.960 . S
C1238 H1251 0.962 . S
C1238 H1252 0.960 . S
C1239 C1236 1.511 . S
C1239 H1253 0.961 . S
C1239 H1254 0.961 . S
C1239 H1255 0.961 . S
C1240 C1241 1.370 . S
C1240 C1242 1.363 . S
C1240 H1256 0.931 . S
C1241 C1240 1.370 . S
C1241 C1245 1.408 . S
C1242 C1240 1.363 . S
C1242 C1243 1.370 . S
C1242 C1246 1.524 . S
C1243 C1235 1.503 . S
C1243 C1242 1.370 . S
C1243 C1244 1.403 . S
C1244 C1243 1.403 . S
C1244 C1245 1.404 . S
C1244 C1247 1.539 . S
C1245 C1241 1.408 . S
C1245 C1244 1.404 . S
C1245 H1257 0.930 . S
C1246 C1242 1.524 . S
C1246 H1258 0.956 . S
C1246 H1259 0.961 . S
C1246 H1260 0.961 . S
C1247 C1244 1.539 . S
C1247 H1261 0.958 . S
C1247 H1262 0.961 . S
C1247 H1263 0.960 . S
H1248 C1232 0.931 . S
H1249 C1237 0.929 . S
H1250 C1238 0.960 . S
H1251 C1238 0.962 . S
H1252 C1238 0.960 . S
H1253 C1239 0.961 . S
H1254 C1239 0.961 . S
H1255 C1239 0.961 . S
H1256 C1240 0.931 . S
H1257 C1245 0.930 . S
H1258 C1246 0.956 . S
H1259 C1246 0.961 . S
H1260 C1246 0.961 . S
H1261 C1247 0.958 . S
H1262 C1247 0.961 . S
H1263 C1247 0.960 . S
C1264 C1265 1.391 . S
C1264 C1266 1.394 . S
C1264 H1280 0.931 . S
C1265 C1264 1.391 . S
C1265 C1269 1.376 . S
C1266 C1264 1.394 . S
C1266 C1267 1.369 . S
C1266 C1270 1.531 . S
C1267 C1266 1.369 . S
C1267 C1268 1.410 . S
C1267 C1275 1.503 . S
C1268 C1267 1.410 . S
C1268 C1269 1.392 . S
C1268 C1271 1.511 . S
C1269 C1265 1.376 . S
C1269 C1268 1.392 . S
C1269 H1281 0.929 1_545 S
C1270 C1266 1.531 . S
C1270 H1282 0.960 . S
C1270 H1283 0.962 . S
C1270 H1284 0.960 . S
C1271 C1268 1.511 . S
C1271 H1285 0.961 1_545 S
C1271 H1286 0.964 . S
C1271 H1287 0.961 . S
C1272 C1273 1.370 . S
C1272 C1274 1.363 . S
C1272 H1288 0.931 . S
C1273 C1272 1.370 . S
C1273 C1277 1.408 . S
C1274 C1272 1.363 . S
C1274 C1275 1.370 . S
C1274 C1278 1.524 . S
C1275 C1267 1.503 . S
C1275 C1274 1.370 . S
C1275 C1276 1.403 . S
C1276 C1275 1.403 . S
C1276 C1277 1.404 . S
C1276 C1279 1.539 . S
C1277 C1273 1.408 . S
C1277 C1276 1.404 . S
C1277 H1289 0.930 . S
C1278 C1274 1.524 . S
C1278 H1290 0.956 . S
C1278 H1291 0.961 1_545 S
C1278 H1292 0.961 1_545 S
C1279 C1276 1.539 . S
C1279 H1293 0.958 . S
C1279 H1294 0.961 . S
C1279 H1295 0.960 . S
H1280 C1264 0.931 . S
H1281 C1269 0.929 1_565 S
H1282 C1270 0.960 . S
H1283 C1270 0.962 . S
H1284 C1270 0.960 . S
H1285 C1271 0.961 1_565 S
H1286 C1271 0.964 . S
H1287 C1271 0.961 . S
H1288 C1272 0.931 . S
H1289 C1277 0.930 . S
H1290 C1278 0.956 . S
H1291 C1278 0.961 1_565 S
H1292 C1278 0.961 1_565 S
H1293 C1279 0.958 . S
H1294 C1279 0.961 . S
H1295 C1279 0.960 . S
C1296 C1297 1.391 . S
C1296 C1298 1.394 . S
C1296 H1312 0.931 . S
C1297 C1296 1.391 . S
C1297 C1301 1.376 . S
C1298 C1296 1.394 . S
C1298 C1299 1.369 . S
C1298 C1302 1.531 . S
C1299 C1298 1.369 . S
C1299 C1300 1.410 . S
C1299 C1307 1.503 . S
C1300 C1299 1.410 . S
C1300 C1301 1.392 . S
C1300 C1303 1.511 . S
C1301 C1297 1.376 . S
C1301 C1300 1.392 . S
C1301 H1313 0.929 . S
C1302 C1298 1.531 . S
C1302 H1314 0.960 . S
C1302 H1315 0.962 . S
C1302 H1316 0.960 . S
C1303 C1300 1.511 . S
C1303 H1317 0.961 . S
C1303 H1318 0.961 . S
C1303 H1319 0.961 . S
C1304 C1305 1.370 . S
C1304 C1306 1.363 . S
C1304 H1320 0.931 . S
C1305 C1304 1.370 . S
C1305 C1309 1.408 . S
C1306 C1304 1.363 . S
C1306 C1307 1.370 . S
C1306 C1310 1.524 . S
C1307 C1299 1.503 . S
C1307 C1306 1.370 . S
C1307 C1308 1.403 . S
C1308 C1307 1.403 . S
C1308 C1309 1.404 . S
C1308 C1311 1.539 . S
C1309 C1305 1.408 . S
C1309 C1308 1.404 . S
C1309 H1321 0.930 . S
C1310 C1306 1.524 . S
C1310 H1322 0.956 . S
C1310 H1323 0.961 . S
C1310 H1324 0.961 . S
C1311 C1308 1.539 . S
C1311 H1325 0.958 . S
C1311 H1326 0.961 . S
C1311 H1327 0.960 . S
H1312 C1296 0.931 . S
H1313 C1301 0.929 . S
H1314 C1302 0.960 . S
H1315 C1302 0.962 . S
H1316 C1302 0.960 . S
H1317 C1303 0.961 . S
H1318 C1303 0.961 . S
H1319 C1303 0.961 . S
H1320 C1304 0.931 . S
H1321 C1309 0.930 . S
H1322 C1310 0.956 . S
H1323 C1310 0.961 . S
H1324 C1310 0.961 . S
H1325 C1311 0.958 . S
H1326 C1311 0.961 . S
H1327 C1311 0.960 . S
C1328 C1329 1.391 1_565 S
C1328 C1330 1.394 . S
C1328 H1344 0.931 . S
C1329 C1328 1.391 1_545 S
C1329 C1333 1.376 . S
C1330 C1328 1.394 . S
C1330 C1331 1.369 . S
C1330 C1334 1.531 . S
C1331 C1330 1.369 . S
C1331 C1332 1.410 1_565 S
C1331 C1339 1.503 . S
C1332 C1331 1.410 1_545 S
C1332 C1333 1.392 . S
C1332 C1335 1.511 . S
C1333 C1329 1.376 . S
C1333 C1332 1.392 . S
C1333 H1345 0.929 . S
C1334 C1330 1.531 . S
C1334 H1346 0.960 . S
C1334 H1347 0.962 . S
C1334 H1348 0.960 . S
C1335 C1332 1.511 . S
C1335 H1349 0.961 . S
C1335 H1350 0.961 . S
C1335 H1351 0.961 . S
C1336 C1337 1.370 . S
C1336 C1338 1.363 . S
C1336 H1352 0.931 . S
C1337 C1336 1.370 . S
C1337 C1341 1.408 . S
C1338 C1336 1.363 . S
C1338 C1339 1.370 . S
C1338 C1342 1.524 1_565 S
C1339 C1331 1.503 . S
C1339 C1338 1.370 . S
C1339 C1340 1.403 . S
C1340 C1339 1.403 . S
C1340 C1341 1.404 . S
C1340 C1343 1.539 . S
C1341 C1337 1.408 . S
C1341 C1340 1.404 . S
C1341 H1353 0.930 . S
C1342 C1338 1.524 1_545 S
C1342 H1354 0.956 1_545 S
C1342 H1355 0.961 . S
C1342 H1356 0.961 . S
C1343 C1340 1.539 . S
C1343 H1357 0.958 . S
C1343 H1358 0.961 . S
C1343 H1359 0.960 . S
H1344 C1328 0.931 . S
H1345 C1333 0.929 . S
H1346 C1334 0.960 . S
H1347 C1334 0.962 . S
H1348 C1334 0.960 . S
H1349 C1335 0.961 . S
H1350 C1335 0.961 . S
H1351 C1335 0.961 . S
H1352 C1336 0.931 . S
H1353 C1341 0.930 . S
H1354 C1342 0.956 1_565 S
H1355 C1342 0.961 . S
H1356 C1342 0.961 . S
H1357 C1343 0.958 . S
H1358 C1343 0.961 . S
H1359 C1343 0.960 . S
C1360 C1361 1.391 . S
C1360 C1362 1.394 . S
C1360 H1376 0.931 . S
C1361 C1360 1.391 . S
C1361 C1365 1.376 . S
C1362 C1360 1.394 . S
C1362 C1363 1.369 . S
C1362 C1366 1.531 . S
C1363 C1362 1.369 . S
C1363 C1364 1.410 . S
C1363 C1371 1.503 . S
C1364 C1363 1.410 . S
C1364 C1365 1.392 . S
C1364 C1367 1.511 . S
C1365 C1361 1.376 . S
C1365 C1364 1.392 . S
C1365 H1377 0.929 . S
C1366 C1362 1.531 . S
C1366 H1378 0.960 . S
C1366 H1379 0.962 . S
C1366 H1380 0.960 . S
C1367 C1364 1.511 . S
C1367 H1381 0.961 . S
C1367 H1382 0.961 . S
C1367 H1383 0.961 . S
C1368 C1369 1.370 . S
C1368 C1370 1.363 . S
C1368 H1384 0.931 . S
C1369 C1368 1.370 . S
C1369 C1373 1.408 . S
C1370 C1368 1.363 . S
C1370 C1371 1.370 . S
C1370 C1374 1.524 . S
C1371 C1363 1.503 . S
C1371 C1370 1.370 . S
C1371 C1372 1.403 . S
C1372 C1371 1.403 . S
C1372 C1373 1.404 . S
C1372 C1375 1.539 . S
C1373 C1369 1.408 . S
C1373 C1372 1.404 . S
C1373 H1385 0.930 . S
C1374 C1370 1.524 . S
C1374 H1386 0.956 . S
C1374 H1387 0.961 . S
C1374 H1388 0.961 . S
C1375 C1372 1.539 . S
C1375 H1389 0.958 . S
C1375 H1390 0.961 . S
C1375 H1391 0.960 . S
H1376 C1360 0.931 . S
H1377 C1365 0.929 . S
H1378 C1366 0.960 . S
H1379 C1366 0.962 . S
H1380 C1366 0.960 . S
H1381 C1367 0.961 . S
H1382 C1367 0.961 . S
H1383 C1367 0.961 . S
H1384 C1368 0.931 . S
H1385 C1373 0.930 . S
H1386 C1374 0.956 . S
H1387 C1374 0.961 . S
H1388 C1374 0.961 . S
H1389 C1375 0.958 . S
H1390 C1375 0.961 . S
H1391 C1375 0.960 . S
C1392 C1393 1.391 . S
C1392 C1394 1.394 . S
C1392 H1408 0.931 . S
C1393 C1392 1.391 . S
C1393 C1397 1.376 . S
C1394 C1392 1.394 . S
C1394 C1395 1.369 . S
C1394 C1398 1.531 . S
C1395 C1394 1.369 . S
C1395 C1396 1.410 . S
C1395 C1403 1.503 . S
C1396 C1395 1.410 . S
C1396 C1397 1.392 . S
C1396 C1399 1.511 . S
C1397 C1393 1.376 . S
C1397 C1396 1.392 . S
C1397 H1409 0.929 . S
C1398 C1394 1.531 . S
C1398 H1410 0.960 . S
C1398 H1411 0.962 . S
C1398 H1412 0.960 . S
C1399 C1396 1.511 . S
C1399 H1413 0.961 1_554 S
C1399 H1414 0.961 1_554 S
C1399 H1415 0.961 . S
C1400 C1401 1.377 . S
C1400 C1402 1.363 . S
C1400 H1416 0.931 . S
C1401 C1400 1.377 . S
C1401 C1405 1.398 1_556 S
C1402 C1400 1.363 . S
C1402 C1403 1.370 1_556 S
C1402 C1406 1.524 . S
C1403 C1395 1.503 . S
C1403 C1402 1.370 1_554 S
C1403 C1404 1.403 . S
C1404 C1403 1.403 . S
C1404 C1405 1.404 . S
C1404 C1407 1.539 . S
C1405 C1401 1.398 1_554 S
C1405 C1404 1.404 . S
C1405 H1417 0.930 . S
C1406 C1402 1.524 . S
C1406 H1418 0.956 . S
C1406 H1419 0.961 . S
C1406 H1420 0.961 . S
C1407 C1404 1.539 . S
C1407 H1421 0.958 . S
C1407 H1422 0.961 . S
C1407 H1423 0.960 . S
H1408 C1392 0.931 . S
H1409 C1397 0.929 . S
H1410 C1398 0.960 . S
H1411 C1398 0.962 . S
H1412 C1398 0.960 . S
H1413 C1399 0.961 1_556 S
H1414 C1399 0.961 1_556 S
H1415 C1399 0.961 . S
H1416 C1400 0.931 . S
H1417 C1405 0.930 . S
H1418 C1406 0.956 . S
H1419 C1406 0.961 . S
H1420 C1406 0.961 . S
H1421 C1407 0.958 . S
H1422 C1407 0.961 . S
H1423 C1407 0.960 . S
C1424 C1425 1.391 . S
C1424 C1426 1.394 . S
C1424 H1440 0.931 . S
C1425 C1424 1.391 . S
C1425 C1429 1.376 . S
C1426 C1424 1.394 . S
C1426 C1427 1.369 . S
C1426 C1430 1.531 . S
C1427 C1426 1.369 . S
C1427 C1428 1.410 . S
C1427 C1435 1.503 . S
C1428 C1427 1.410 . S
C1428 C1429 1.392 . S
C1428 C1431 1.511 . S
C1429 C1425 1.376 . S
C1429 C1428 1.392 . S
C1429 H1441 0.929 . S
C1430 C1426 1.531 . S
C1430 H1442 0.960 . S
C1430 H1443 0.962 . S
C1430 H1444 0.960 . S
C1431 C1428 1.511 . S
C1431 H1445 0.961 . S
C1431 H1446 0.961 . S
C1431 H1447 0.961 . S
C1432 C1433 1.370 . S
C1432 C1434 1.363 . S
C1432 H1448 0.931 . S
C1433 C1432 1.370 . S
C1433 C1437 1.408 . S
C1434 C1432 1.363 . S
C1434 C1435 1.370 . S
C1434 C1438 1.524 . S
C1435 C1427 1.503 . S
C1435 C1434 1.370 . S
C1435 C1436 1.403 . S
C1436 C1435 1.403 . S
C1436 C1437 1.404 . S
C1436 C1439 1.539 . S
C1437 C1433 1.408 . S
C1437 C1436 1.404 . S
C1437 H1449 0.930 . S
C1438 C1434 1.524 . S
C1438 H1450 0.956 . S
C1438 H1451 0.961 . S
C1438 H1452 0.961 1_554 S
C1439 C1436 1.539 . S
C1439 H1453 0.958 . S
C1439 H1454 0.961 . S
C1439 H1455 0.960 . S
H1440 C1424 0.931 . S
H1441 C1429 0.929 . S
H1442 C1430 0.960 . S
H1443 C1430 0.962 . S
H1444 C1430 0.960 . S
H1445 C1431 0.961 . S
H1446 C1431 0.961 . S
H1447 C1431 0.961 . S
H1448 C1432 0.931 . S
H1449 C1437 0.930 . S
H1450 C1438 0.956 . S
H1451 C1438 0.961 . S
H1452 C1438 0.961 1_556 S
H1453 C1439 0.958 . S
H1454 C1439 0.961 . S
H1455 C1439 0.960 . S
C1456 C1457 1.391 . S
C1456 C1458 1.394 . S
C1456 H1472 0.931 . S
C1457 C1456 1.391 . S
C1457 C1461 1.376 . S
C1458 C1456 1.394 . S
C1458 C1459 1.369 . S
C1458 C1462 1.531 . S
C1459 C1458 1.369 . S
C1459 C1460 1.410 . S
C1459 C1467 1.503 . S
C1460 C1459 1.410 . S
C1460 C1461 1.392 . S
C1460 C1463 1.511 . S
C1461 C1457 1.376 . S
C1461 C1460 1.392 . S
C1461 H1473 0.929 . S
C1462 C1458 1.531 . S
C1462 H1474 0.960 . S
C1462 H1475 0.962 . S
C1462 H1476 0.960 . S
C1463 C1460 1.511 . S
C1463 H1477 0.961 . S
C1463 H1478 0.961 . S
C1463 H1479 0.961 . S
C1464 C1465 1.370 . S
C1464 C1466 1.363 . S
C1464 H1480 0.931 . S
C1465 C1464 1.370 . S
C1465 C1469 1.408 . S
C1466 C1464 1.363 . S
C1466 C1467 1.370 . S
C1466 C1470 1.524 . S
C1467 C1459 1.503 . S
C1467 C1466 1.370 . S
C1467 C1468 1.403 . S
C1468 C1467 1.403 . S
C1468 C1469 1.404 . S
C1468 C1471 1.539 . S
C1469 C1465 1.408 . S
C1469 C1468 1.404 . S
C1469 H1481 0.930 . S
C1470 C1466 1.524 . S
C1470 H1482 0.956 . S
C1470 H1483 0.961 . S
C1470 H1484 0.961 . S
C1471 C1468 1.539 . S
C1471 H1485 0.958 . S
C1471 H1486 0.961 . S
C1471 H1487 0.960 . S
H1472 C1456 0.931 . S
H1473 C1461 0.929 . S
H1474 C1462 0.960 . S
H1475 C1462 0.962 . S
H1476 C1462 0.960 . S
H1477 C1463 0.961 . S
H1478 C1463 0.961 . S
H1479 C1463 0.961 . S
H1480 C1464 0.931 . S
H1481 C1469 0.930 . S
H1482 C1470 0.956 . S
H1483 C1470 0.961 . S
H1484 C1470 0.961 . S
H1485 C1471 0.958 . S
H1486 C1471 0.961 . S
H1487 C1471 0.960 . S
C1488 C1489 1.391 . S
C1488 C1490 1.394 . S
C1488 H1504 0.931 . S
C1489 C1488 1.391 . S
C1489 C1493 1.376 . S
C1490 C1488 1.394 . S
C1490 C1491 1.369 . S
C1490 C1494 1.531 . S
C1491 C1490 1.369 . S
C1491 C1492 1.410 . S
C1491 C1499 1.503 . S
C1492 C1491 1.410 . S
C1492 C1493 1.392 . S
C1492 C1495 1.511 . S
C1493 C1489 1.376 . S
C1493 C1492 1.392 . S
C1493 H1505 0.929 . S
C1494 C1490 1.531 . S
C1494 H1506 0.960 . S
C1494 H1507 0.962 . S
C1494 H1508 0.960 . S
C1495 C1492 1.511 . S
C1495 H1509 0.961 . S
C1495 H1510 0.961 . S
C1495 H1511 0.961 . S
C1496 C1497 1.370 . S
C1496 C1498 1.363 . S
C1496 H1512 0.931 . S
C1497 C1496 1.370 . S
C1497 C1501 1.408 . S
C1498 C1496 1.363 . S
C1498 C1499 1.370 . S
C1498 C1502 1.524 . S
C1499 C1491 1.503 . S
C1499 C1498 1.370 . S
C1499 C1500 1.403 . S
C1500 C1499 1.403 . S
C1500 C1501 1.404 . S
C1500 C1503 1.539 . S
C1501 C1497 1.408 . S
C1501 C1500 1.404 . S
C1501 H1513 0.930 . S
C1502 C1498 1.524 . S
C1502 H1514 0.956 . S
C1502 H1515 0.961 . S
C1502 H1516 0.961 . S
C1503 C1500 1.539 . S
C1503 H1517 0.958 . S
C1503 H1518 0.961 . S
C1503 H1519 0.960 . S
H1504 C1488 0.931 . S
H1505 C1493 0.929 . S
H1506 C1494 0.960 . S
H1507 C1494 0.962 . S
H1508 C1494 0.960 . S
H1509 C1495 0.961 . S
H1510 C1495 0.961 . S
H1511 C1495 0.961 . S
H1512 C1496 0.931 . S
H1513 C1501 0.930 . S
H1514 C1502 0.956 . S
H1515 C1502 0.961 . S
H1516 C1502 0.961 . S
H1517 C1503 0.958 . S
H1518 C1503 0.961 . S
H1519 C1503 0.960 . S
C1520 C1521 1.391 . S
C1520 C1522 1.394 . S
C1520 H1536 0.931 . S
C1521 C1520 1.391 . S
C1521 C1525 1.376 . S
C1522 C1520 1.394 . S
C1522 C1523 1.369 . S
C1522 C1526 1.531 . S
C1523 C1522 1.369 . S
C1523 C1524 1.410 . S
C1523 C1531 1.503 . S
C1524 C1523 1.410 . S
C1524 C1525 1.392 . S
C1524 C1527 1.511 . S
C1525 C1521 1.376 . S
C1525 C1524 1.392 . S
C1525 H1537 0.929 . S
C1526 C1522 1.531 . S
C1526 H1538 0.960 . S
C1526 H1539 0.962 . S
C1526 H1540 0.960 . S
C1527 C1524 1.511 . S
C1527 H1541 0.961 . S
C1527 H1542 0.961 . S
C1527 H1543 0.961 . S
C1528 C1529 1.370 . S
C1528 C1530 1.363 . S
C1528 H1544 0.931 . S
C1529 C1528 1.370 . S
C1529 C1533 1.408 . S
C1530 C1528 1.363 . S
C1530 C1531 1.370 . S
C1530 C1534 1.524 . S
C1531 C1523 1.503 . S
C1531 C1530 1.370 . S
C1531 C1532 1.403 . S
C1532 C1531 1.403 . S
C1532 C1533 1.404 . S
C1532 C1535 1.539 . S
C1533 C1529 1.408 . S
C1533 C1532 1.404 . S
C1533 H1545 0.930 . S
C1534 C1530 1.524 . S
C1534 H1546 0.956 . S
C1534 H1547 0.961 . S
C1534 H1548 0.961 . S
C1535 C1532 1.539 . S
C1535 H1549 0.958 . S
C1535 H1550 0.961 . S
C1535 H1551 0.960 . S
H1536 C1520 0.931 . S
H1537 C1525 0.929 . S
H1538 C1526 0.960 . S
H1539 C1526 0.962 . S
H1540 C1526 0.960 . S
H1541 C1527 0.961 . S
H1542 C1527 0.961 . S
H1543 C1527 0.961 . S
H1544 C1528 0.931 . S
H1545 C1533 0.930 . S
H1546 C1534 0.956 . S
H1547 C1534 0.961 . S
H1548 C1534 0.961 . S
H1549 C1535 0.958 . S
H1550 C1535 0.961 . S
H1551 C1535 0.960 . S
C1552 C1553 1.391 . S
C1552 C1554 1.394 . S
C1552 H1568 0.931 . S
C1553 C1552 1.391 . S
C1553 C1557 1.376 . S
C1554 C1552 1.394 . S
C1554 C1555 1.369 . S
C1554 C1558 1.531 . S
C1555 C1554 1.369 . S
C1555 C1556 1.410 . S
C1555 C1563 1.503 . S
C1556 C1555 1.410 . S
C1556 C1557 1.392 . S
C1556 C1559 1.511 . S
C1557 C1553 1.376 . S
C1557 C1556 1.392 . S
C1557 H1569 0.929 . S
C1558 C1554 1.531 . S
C1558 H1570 0.960 . S
C1558 H1571 0.962 . S
C1558 H1572 0.960 . S
C1559 C1556 1.511 . S
C1559 H1573 0.961 . S
C1559 H1574 0.961 . S
C1559 H1575 0.986 . S
C1560 C1561 1.370 . S
C1560 C1562 1.363 . S
C1560 H1576 0.931 . S
C1561 C1560 1.370 . S
C1561 C1565 1.420 . S
C1562 C1560 1.363 . S
C1562 C1563 1.370 . S
C1562 C1566 1.524 . S
C1563 C1555 1.503 . S
C1563 C1562 1.370 . S
C1563 C1564 1.403 . S
C1564 C1563 1.403 . S
C1564 C1565 1.412 . S
C1564 C1567 1.539 1_565 S
C1565 C1561 1.420 . S
C1565 C1564 1.412 . S
C1565 H1577 0.910 1_565 S
C1566 C1562 1.524 . S
C1566 H1578 0.956 . S
C1566 H1579 0.961 . S
C1566 H1580 0.961 . S
C1567 C1564 1.539 1_545 S
C1567 H1581 0.967 . S
C1567 H1582 0.961 . S
C1567 H1583 0.960 . S
H1568 C1552 0.931 . S
H1569 C1557 0.929 . S
H1570 C1558 0.960 . S
H1571 C1558 0.962 . S
H1572 C1558 0.960 . S
H1573 C1559 0.961 . S
H1574 C1559 0.961 . S
H1575 C1559 0.986 . S
H1576 C1560 0.931 . S
H1577 C1565 0.910 1_545 S
H1578 C1566 0.956 . S
H1579 C1566 0.961 . S
H1580 C1566 0.961 . S
H1581 C1567 0.967 . S
H1582 C1567 0.961 . S
H1583 C1567 0.960 . S
C1584 C1585 1.391 . S
C1584 C1586 1.394 . S
C1584 H1600 0.931 . S
C1585 C1584 1.391 . S
C1585 C1589 1.376 . S
C1586 C1584 1.394 . S
C1586 C1587 1.369 . S
C1586 C1590 1.531 . S
C1587 C1586 1.369 . S
C1587 C1588 1.410 . S
C1587 C1595 1.503 . S
C1588 C1587 1.410 . S
C1588 C1589 1.392 . S
C1588 C1591 1.511 . S
C1589 C1585 1.376 . S
C1589 C1588 1.392 . S
C1589 H1601 0.929 . S
C1590 C1586 1.531 . S
C1590 H1602 0.960 . S
C1590 H1603 0.962 . S
C1590 H1604 0.960 . S
C1591 C1588 1.511 . S
C1591 H1605 0.961 . S
C1591 H1606 0.961 . S
C1591 H1607 0.961 . S
C1592 C1593 1.370 . S
C1592 C1594 1.363 . S
C1592 H1608 0.931 . S
C1593 C1592 1.370 . S
C1593 C1597 1.408 . S
C1594 C1592 1.363 . S
C1594 C1595 1.370 . S
C1594 C1598 1.524 . S
C1595 C1587 1.503 . S
C1595 C1594 1.370 . S
C1595 C1596 1.403 . S
C1596 C1595 1.403 . S
C1596 C1597 1.404 . S
C1596 C1599 1.539 . S
C1597 C1593 1.408 . S
C1597 C1596 1.404 . S
C1597 H1609 0.930 . S
C1598 C1594 1.524 . S
C1598 H1610 0.956 . S
C1598 H1611 0.961 . S
C1598 H1612 0.961 . S
C1599 C1596 1.539 . S
C1599 H1613 0.958 . S
C1599 H1614 0.961 . S
C1599 H1615 0.960 . S
H1600 C1584 0.931 . S
H1601 C1589 0.929 . S
H1602 C1590 0.960 . S
H1603 C1590 0.962 . S
H1604 C1590 0.960 . S
H1605 C1591 0.961 . S
H1606 C1591 0.961 . S
H1607 C1591 0.961 . S
H1608 C1592 0.931 . S
H1609 C1597 0.930 . S
H1610 C1598 0.956 . S
H1611 C1598 0.961 . S
H1612 C1598 0.961 . S
H1613 C1599 0.958 . S
H1614 C1599 0.961 . S
H1615 C1599 0.960 . S
C1616 C1617 1.391 . S
C1616 C1618 1.394 . S
C1616 H1632 0.931 . S
C1617 C1616 1.391 . S
C1617 C1621 1.376 . S
C1618 C1616 1.394 . S
C1618 C1619 1.369 . S
C1618 C1622 1.531 . S
C1619 C1618 1.369 . S
C1619 C1620 1.410 . S
C1619 C1627 1.503 . S
C1620 C1619 1.410 . S
C1620 C1621 1.392 . S
C1620 C1623 1.511 . S
C1621 C1617 1.376 . S
C1621 C1620 1.392 . S
C1621 H1633 0.929 . S
C1622 C1618 1.531 . S
C1622 H1634 0.960 . S
C1622 H1635 0.962 . S
C1622 H1636 0.960 . S
C1623 C1620 1.511 . S
C1623 H1637 0.961 . S
C1623 H1638 0.961 . S
C1623 H1639 0.961 . S
C1624 C1625 1.370 . S
C1624 C1626 1.363 . S
C1624 H1640 0.931 . S
C1625 C1624 1.370 . S
C1625 C1629 1.408 . S
C1626 C1624 1.363 . S
C1626 C1627 1.370 . S
C1626 C1630 1.524 . S
C1627 C1619 1.503 . S
C1627 C1626 1.370 . S
C1627 C1628 1.403 . S
C1628 C1627 1.403 . S
C1628 C1629 1.404 . S
C1628 C1631 1.539 . S
C1629 C1625 1.408 . S
C1629 C1628 1.404 . S
C1629 H1641 0.930 . S
C1630 C1626 1.524 . S
C1630 H1642 0.956 . S
C1630 H1643 0.961 . S
C1630 H1644 0.961 . S
C1631 C1628 1.539 . S
C1631 H1645 0.958 . S
C1631 H1646 0.961 . S
C1631 H1647 0.960 . S
H1632 C1616 0.931 . S
H1633 C1621 0.929 . S
H1634 C1622 0.960 . S
H1635 C1622 0.962 . S
H1636 C1622 0.960 . S
H1637 C1623 0.961 . S
H1638 C1623 0.961 . S
H1639 C1623 0.961 . S
H1640 C1624 0.931 . S
H1641 C1629 0.930 . S
H1642 C1630 0.956 . S
H1643 C1630 0.961 . S
H1644 C1630 0.961 . S
H1645 C1631 0.958 . S
H1646 C1631 0.961 . S
H1647 C1631 0.960 . S
C1648 C1649 1.391 1_655 S
C1648 C1650 1.394 . S
C1648 H1664 0.931 . S
C1649 C1648 1.391 1_455 S
C1649 C1653 1.376 . S
C1650 C1648 1.394 . S
C1650 C1651 1.369 1_655 S
C1650 C1654 1.531 . S
C1651 C1650 1.369 1_455 S
C1651 C1652 1.410 . S
C1651 C1659 1.503 . S
C1652 C1651 1.410 . S
C1652 C1653 1.392 . S
C1652 C1655 1.511 . S
C1653 C1649 1.376 . S
C1653 C1652 1.392 . S
C1653 H1665 0.929 . S
C1654 C1650 1.531 . S
C1654 H1666 0.960 . S
C1654 H1667 0.962 . S
C1654 H1668 0.960 . S
C1655 C1652 1.511 . S
C1655 H1669 0.961 . S
C1655 H1670 0.961 . S
C1655 H1671 0.961 . S
C1656 C1657 1.370 . S
C1656 C1658 1.363 . S
C1656 H1672 0.931 . S
C1657 C1656 1.370 . S
C1657 C1661 1.408 1_556 S
C1658 C1656 1.363 . S
C1658 C1659 1.370 . S
C1658 C1662 1.524 . S
C1659 C1651 1.503 . S
C1659 C1658 1.370 . S
C1659 C1660 1.403 . S
C1660 C1659 1.403 . S
C1660 C1661 1.404 1_556 S
C1660 C1663 1.539 . S
C1661 C1657 1.408 1_554 S
C1661 C1660 1.404 1_554 S
C1661 H1673 0.930 . S
C1662 C1658 1.524 . S
C1662 H1674 0.956 1_455 S
C1662 H1675 0.961 . S
C1662 H1676 0.961 . S
C1663 C1660 1.539 . S
C1663 H1677 0.958 1_556 S
C1663 H1678 0.961 1_556 S
C1663 H1679 0.960 . S
H1664 C1648 0.931 . S
H1665 C1653 0.929 . S
H1666 C1654 0.960 . S
H1667 C1654 0.962 . S
H1668 C1654 0.960 . S
H1669 C1655 0.961 . S
H1670 C1655 0.961 . S
H1671 C1655 0.961 . S
H1672 C1656 0.931 . S
H1673 C1661 0.930 . S
H1674 C1662 0.956 1_655 S
H1675 C1662 0.961 . S
H1676 C1662 0.961 . S
H1677 C1663 0.958 1_554 S
H1678 C1663 0.961 1_554 S
H1679 C1663 0.960 . S
C1680 C1681 1.391 . S
C1680 C1682 1.394 . S
C1680 H1696 0.931 . S
C1681 C1680 1.391 . S
C1681 C1685 1.376 . S
C1682 C1680 1.394 . S
C1682 C1683 1.369 . S
C1682 C1686 1.531 . S
C1683 C1682 1.369 . S
C1683 C1684 1.410 . S
C1683 C1691 1.503 . S
C1684 C1683 1.410 . S
C1684 C1685 1.392 . S
C1684 C1687 1.511 . S
C1685 C1681 1.376 . S
C1685 C1684 1.392 . S
C1685 H1697 0.929 . S
C1686 C1682 1.531 . S
C1686 H1698 0.960 . S
C1686 H1699 0.962 . S
C1686 H1700 0.960 . S
C1687 C1684 1.511 . S
C1687 H1701 0.961 . S
C1687 H1702 0.961 . S
C1687 H1703 0.961 . S
C1688 C1689 1.370 . S
C1688 C1690 1.363 . S
C1688 H1704 0.931 . S
C1689 C1688 1.370 . S
C1689 C1693 1.408 . S
C1690 C1688 1.363 . S
C1690 C1691 1.370 . S
C1690 C1694 1.524 . S
C1691 C1683 1.503 . S
C1691 C1690 1.370 . S
C1691 C1692 1.403 . S
C1692 C1691 1.403 . S
C1692 C1693 1.404 . S
C1692 C1695 1.539 . S
C1693 C1689 1.408 . S
C1693 C1692 1.404 . S
C1693 H1705 0.930 . S
C1694 C1690 1.524 . S
C1694 H1706 0.956 . S
C1694 H1707 0.961 . S
C1694 H1708 0.961 . S
C1695 C1692 1.539 . S
C1695 H1709 0.958 . S
C1695 H1710 0.961 . S
C1695 H1711 0.960 . S
H1696 C1680 0.931 . S
H1697 C1685 0.929 . S
H1698 C1686 0.960 . S
H1699 C1686 0.962 . S
H1700 C1686 0.960 . S
H1701 C1687 0.961 . S
H1702 C1687 0.961 . S
H1703 C1687 0.961 . S
H1704 C1688 0.931 . S
H1705 C1693 0.930 . S
H1706 C1694 0.956 . S
H1707 C1694 0.961 . S
H1708 C1694 0.961 . S
H1709 C1695 0.958 . S
H1710 C1695 0.961 . S
H1711 C1695 0.960 . S
C1712 C1713 1.391 . S
C1712 C1714 1.394 . S
C1712 H1728 0.931 . S
C1713 C1712 1.391 . S
C1713 C1717 1.376 . S
C1714 C1712 1.394 . S
C1714 C1715 1.369 . S
C1714 C1718 1.531 . S
C1715 C1714 1.369 . S
C1715 C1716 1.410 . S
C1715 C1723 1.503 . S
C1716 C1715 1.410 . S
C1716 C1717 1.392 . S
C1716 C1719 1.511 . S
C1717 C1713 1.376 . S
C1717 C1716 1.392 . S
C1717 H1729 0.929 . S
C1718 C1714 1.531 . S
C1718 H1730 0.960 . S
C1718 H1731 0.962 . S
C1718 H1732 0.960 . S
C1719 C1716 1.511 . S
C1719 H1733 0.961 . S
C1719 H1734 0.961 . S
C1719 H1735 0.961 . S
C1720 C1721 1.370 . S
C1720 C1722 1.363 . S
C1720 H1736 0.931 . S
C1721 C1720 1.370 . S
C1721 C1725 1.408 . S
C1722 C1720 1.363 . S
C1722 C1723 1.370 . S
C1722 C1726 1.524 . S
C1723 C1715 1.503 . S
C1723 C1722 1.370 . S
C1723 C1724 1.403 . S
C1724 C1723 1.403 . S
C1724 C1725 1.404 . S
C1724 C1727 1.539 . S
C1725 C1721 1.408 . S
C1725 C1724 1.404 . S
C1725 H1737 0.930 . S
C1726 C1722 1.524 . S
C1726 H1738 0.956 . S
C1726 H1739 0.961 . S
C1726 H1740 0.961 . S
C1727 C1724 1.539 . S
C1727 H1741 0.958 . S
C1727 H1742 0.961 . S
C1727 H1743 0.960 . S
H1728 C1712 0.931 . S
H1729 C1717 0.929 . S
H1730 C1718 0.960 . S
H1731 C1718 0.962 . S
H1732 C1718 0.960 . S
H1733 C1719 0.961 . S
H1734 C1719 0.961 . S
H1735 C1719 0.961 . S
H1736 C1720 0.931 . S
H1737 C1725 0.930 . S
H1738 C1726 0.956 . S
H1739 C1726 0.961 . S
H1740 C1726 0.961 . S
H1741 C1727 0.958 . S
H1742 C1727 0.961 . S
H1743 C1727 0.960 . S
C1744 C1745 1.391 . S
C1744 C1746 1.394 . S
C1744 H1760 0.931 . S
C1745 C1744 1.391 . S
C1745 C1749 1.376 . S
C1746 C1744 1.394 . S
C1746 C1747 1.369 . S
C1746 C1750 1.531 . S
C1747 C1746 1.369 . S
C1747 C1748 1.410 . S
C1747 C1755 1.503 . S
C1748 C1747 1.410 . S
C1748 C1749 1.392 . S
C1748 C1751 1.511 . S
C1749 C1745 1.376 . S
C1749 C1748 1.392 . S
C1749 H1761 0.929 . S
C1750 C1746 1.531 . S
C1750 H1762 0.960 . S
C1750 H1763 0.962 . S
C1750 H1764 0.960 . S
C1751 C1748 1.511 . S
C1751 H1765 0.961 . S
C1751 H1766 0.961 . S
C1751 H1767 0.961 . S
C1752 C1753 1.370 . S
C1752 C1754 1.363 . S
C1752 H1768 0.931 . S
C1753 C1752 1.370 . S
C1753 C1757 1.408 . S
C1754 C1752 1.363 . S
C1754 C1755 1.370 . S
C1754 C1758 1.524 . S
C1755 C1747 1.503 . S
C1755 C1754 1.370 . S
C1755 C1756 1.403 . S
C1756 C1755 1.403 . S
C1756 C1757 1.404 . S
C1756 C1759 1.539 . S
C1757 C1753 1.408 . S
C1757 C1756 1.404 . S
C1757 H1769 0.930 . S
C1758 C1754 1.524 . S
C1758 H1770 0.956 . S
C1758 H1771 0.961 . S
C1758 H1772 0.961 . S
C1759 C1756 1.539 . S
C1759 H1773 0.958 . S
C1759 H1774 0.961 . S
C1759 H1775 0.960 . S
H1760 C1744 0.931 . S
H1761 C1749 0.929 . S
H1762 C1750 0.960 . S
H1763 C1750 0.962 . S
H1764 C1750 0.960 . S
H1765 C1751 0.961 . S
H1766 C1751 0.961 . S
H1767 C1751 0.961 . S
H1768 C1752 0.931 . S
H1769 C1757 0.930 . S
H1770 C1758 0.956 . S
H1771 C1758 0.961 . S
H1772 C1758 0.961 . S
H1773 C1759 0.958 . S
H1774 C1759 0.961 . S
H1775 C1759 0.960 . S
C1776 C1777 1.391 . S
C1776 C1778 1.394 . S
C1776 H1792 0.931 . S
C1777 C1776 1.391 . S
C1777 C1781 1.376 . S
C1778 C1776 1.394 . S
C1778 C1779 1.369 . S
C1778 C1782 1.531 . S
C1779 C1778 1.369 . S
C1779 C1780 1.410 . S
C1779 C1787 1.503 . S
C1780 C1779 1.410 . S
C1780 C1781 1.392 . S
C1780 C1783 1.511 1_455 S
C1781 C1777 1.376 . S
C1781 C1780 1.392 . S
C1781 H1793 0.929 1_455 S
C1782 C1778 1.531 . S
C1782 H1794 0.960 . S
C1782 H1795 0.962 . S
C1782 H1796 0.960 . S
C1783 C1780 1.511 1_655 S
C1783 H1797 0.961 . S
C1783 H1798 0.961 . S
C1783 H1799 0.961 . S
C1784 C1785 1.370 . S
C1784 C1786 1.363 . S
C1784 H1800 0.931 . S
C1785 C1784 1.370 . S
C1785 C1789 1.408 . S
C1786 C1784 1.363 . S
C1786 C1787 1.370 . S
C1786 C1790 1.524 . S
C1787 C1779 1.503 . S
C1787 C1786 1.370 . S
C1787 C1788 1.403 . S
C1788 C1787 1.403 . S
C1788 C1789 1.404 . S
C1788 C1791 1.539 . S
C1789 C1785 1.408 . S
C1789 C1788 1.404 . S
C1789 H1801 0.930 . S
C1790 C1786 1.524 . S
C1790 H1802 0.956 . S
C1790 H1803 0.961 . S
C1790 H1804 0.961 . S
C1791 C1788 1.539 . S
C1791 H1805 0.958 . S
C1791 H1806 0.961 . S
C1791 H1807 0.960 . S
H1792 C1776 0.931 . S
H1793 C1781 0.929 1_655 S
H1794 C1782 0.960 . S
H1795 C1782 0.962 . S
H1796 C1782 0.960 . S
H1797 C1783 0.961 . S
H1798 C1783 0.961 . S
H1799 C1783 0.961 . S
H1800 C1784 0.931 . S
H1801 C1789 0.930 . S
H1802 C1790 0.956 . S
H1803 C1790 0.961 . S
H1804 C1790 0.961 . S
H1805 C1791 0.958 . S
H1806 C1791 0.961 . S
H1807 C1791 0.960 . S
C1808 C1809 1.391 . S
C1808 C1810 1.394 . S
C1808 H1824 0.931 . S
C1809 C1808 1.391 . S
C1809 C1813 1.376 . S
C1810 C1808 1.394 . S
C1810 C1811 1.369 . S
C1810 C1814 1.531 . S
C1811 C1810 1.369 . S
C1811 C1812 1.410 . S
C1811 C1819 1.503 . S
C1812 C1811 1.410 . S
C1812 C1813 1.392 . S
C1812 C1815 1.511 . S
C1813 C1809 1.376 . S
C1813 C1812 1.392 . S
C1813 H1825 0.929 . S
C1814 C1810 1.531 . S
C1814 H1826 0.960 . S
C1814 H1827 0.962 . S
C1814 H1828 0.960 . S
C1815 C1812 1.511 . S
C1815 H1829 0.961 . S
C1815 H1830 0.961 . S
C1815 H1831 0.961 . S
C1816 C1817 1.370 . S
C1816 C1818 1.363 . S
C1816 H1832 0.931 . S
C1817 C1816 1.370 . S
C1817 C1821 1.408 . S
C1818 C1816 1.363 . S
C1818 C1819 1.370 . S
C1818 C1822 1.524 . S
C1819 C1811 1.503 . S
C1819 C1818 1.370 . S
C1819 C1820 1.403 . S
C1820 C1819 1.403 . S
C1820 C1821 1.404 . S
C1820 C1823 1.539 . S
C1821 C1817 1.408 . S
C1821 C1820 1.404 . S
C1821 H1833 0.930 . S
C1822 C1818 1.524 . S
C1822 H1834 0.956 . S
C1822 H1835 0.961 . S
C1822 H1836 0.961 . S
C1823 C1820 1.539 . S
C1823 H1837 0.958 . S
C1823 H1838 0.961 . S
C1823 H1839 0.960 . S
H1824 C1808 0.931 . S
H1825 C1813 0.929 . S
H1826 C1814 0.960 . S
H1827 C1814 0.962 . S
H1828 C1814 0.960 . S
H1829 C1815 0.961 . S
H1830 C1815 0.961 . S
H1831 C1815 0.961 . S
H1832 C1816 0.931 . S
H1833 C1821 0.930 . S
H1834 C1822 0.956 . S
H1835 C1822 0.961 . S
H1836 C1822 0.961 . S
H1837 C1823 0.958 . S
H1838 C1823 0.961 . S
H1839 C1823 0.960 . S
C1840 C1841 1.391 . S
C1840 C1842 1.394 . S
C1840 H1856 0.931 . S
C1841 C1840 1.391 . S
C1841 C1845 1.376 . S
C1842 C1840 1.394 . S
C1842 C1843 1.369 . S
C1842 C1846 1.531 . S
C1843 C1842 1.369 . S
C1843 C1844 1.410 . S
C1843 C1851 1.503 . S
C1844 C1843 1.410 . S
C1844 C1845 1.392 . S
C1844 C1847 1.511 . S
C1845 C1841 1.376 . S
C1845 C1844 1.392 . S
C1845 H1857 0.929 . S
C1846 C1842 1.531 . S
C1846 H1858 0.960 . S
C1846 H1859 0.962 . S
C1846 H1860 0.960 . S
C1847 C1844 1.511 . S
C1847 H1861 0.961 . S
C1847 H1862 0.961 . S
C1847 H1863 0.961 . S
C1848 C1849 1.370 . S
C1848 C1850 1.363 . S
C1848 H1864 0.931 . S
C1849 C1848 1.370 . S
C1849 C1853 1.408 . S
C1850 C1848 1.363 . S
C1850 C1851 1.370 . S
C1850 C1854 1.524 . S
C1851 C1843 1.503 . S
C1851 C1850 1.370 . S
C1851 C1852 1.403 . S
C1852 C1851 1.403 . S
C1852 C1853 1.404 . S
C1852 C1855 1.539 . S
C1853 C1849 1.408 . S
C1853 C1852 1.404 . S
C1853 H1865 0.930 . S
C1854 C1850 1.524 . S
C1854 H1866 0.956 . S
C1854 H1867 0.961 . S
C1854 H1868 0.961 . S
C1855 C1852 1.539 . S
C1855 H1869 0.958 . S
C1855 H1870 0.961 . S
C1855 H1871 0.960 . S
H1856 C1840 0.931 . S
H1857 C1845 0.929 . S
H1858 C1846 0.960 . S
H1859 C1846 0.962 . S
H1860 C1846 0.960 . S
H1861 C1847 0.961 . S
H1862 C1847 0.961 . S
H1863 C1847 0.961 . S
H1864 C1848 0.931 . S
H1865 C1853 0.930 . S
H1866 C1854 0.956 . S
H1867 C1854 0.961 . S
H1868 C1854 0.961 . S
H1869 C1855 0.958 . S
H1870 C1855 0.961 . S
H1871 C1855 0.960 . S
C1872 C1873 1.391 . S
C1872 C1874 1.394 . S
C1872 H1888 0.931 . S
C1873 C1872 1.391 . S
C1873 C1877 1.376 . S
C1874 C1872 1.394 . S
C1874 C1875 1.369 . S
C1874 C1878 1.531 . S
C1875 C1874 1.369 . S
C1875 C1876 1.410 . S
C1875 C1883 1.503 . S
C1876 C1875 1.410 . S
C1876 C1877 1.392 . S
C1876 C1879 1.511 . S
C1877 C1873 1.376 . S
C1877 C1876 1.392 . S
C1877 H1889 0.929 . S
C1878 C1874 1.531 . S
C1878 H1890 0.960 . S
C1878 H1891 0.962 . S
C1878 H1892 0.960 . S
C1879 C1876 1.511 . S
C1879 H1893 0.961 . S
C1879 H1894 0.961 . S
C1879 H1895 0.961 . S
C1880 C1881 1.370 . S
C1880 C1882 1.363 . S
C1880 H1896 0.931 . S
C1881 C1880 1.370 . S
C1881 C1885 1.408 . S
C1882 C1880 1.363 . S
C1882 C1883 1.370 . S
C1882 C1886 1.524 . S
C1883 C1875 1.503 . S
C1883 C1882 1.370 . S
C1883 C1884 1.403 . S
C1884 C1883 1.403 . S
C1884 C1885 1.404 . S
C1884 C1887 1.539 . S
C1885 C1881 1.408 . S
C1885 C1884 1.404 . S
C1885 H1897 0.930 . S
C1886 C1882 1.524 . S
C1886 H1898 0.956 . S
C1886 H1899 0.961 . S
C1886 H1900 0.961 . S
C1887 C1884 1.539 . S
C1887 H1901 0.958 . S
C1887 H1902 0.961 . S
C1887 H1903 0.960 . S
H1888 C1872 0.931 . S
H1889 C1877 0.929 . S
H1890 C1878 0.960 . S
H1891 C1878 0.962 . S
H1892 C1878 0.960 . S
H1893 C1879 0.961 . S
H1894 C1879 0.961 . S
H1895 C1879 0.961 . S
H1896 C1880 0.931 . S
H1897 C1885 0.930 . S
H1898 C1886 0.956 . S
H1899 C1886 0.961 . S
H1900 C1886 0.961 . S
H1901 C1887 0.958 . S
H1902 C1887 0.961 . S
H1903 C1887 0.960 . S
C1904 C1905 1.391 . S
C1904 C1906 1.394 . S
C1904 H1920 0.931 . S
C1905 C1904 1.391 . S
C1905 C1909 1.376 1_545 S
C1906 C1904 1.394 . S
C1906 C1907 1.369 . S
C1906 C1910 1.531 . S
C1907 C1906 1.369 . S
C1907 C1908 1.410 1_545 S
C1907 C1915 1.503 . S
C1908 C1907 1.410 1_565 S
C1908 C1909 1.392 . S
C1908 C1911 1.511 . S
C1909 C1905 1.376 1_565 S
C1909 C1908 1.392 . S
C1909 H1921 0.929 . S
C1910 C1906 1.531 . S
C1910 H1922 0.960 . S
C1910 H1923 0.962 . S
C1910 H1924 0.960 . S
C1911 C1908 1.511 . S
C1911 H1925 0.961 . S
C1911 H1926 0.961 . S
C1911 H1927 0.961 . S
C1912 C1913 1.370 . S
C1912 C1914 1.363 1_455 S
C1912 H1928 0.931 . S
C1913 C1912 1.370 . S
C1913 C1917 1.408 1_455 S
C1914 C1912 1.363 1_655 S
C1914 C1915 1.370 . S
C1914 C1918 1.524 1_655 S
C1915 C1907 1.503 . S
C1915 C1914 1.370 . S
C1915 C1916 1.403 . S
C1916 C1915 1.403 . S
C1916 C1917 1.404 . S
C1916 C1919 1.539 . S
C1917 C1913 1.408 1_655 S
C1917 C1916 1.404 . S
C1917 H1929 0.930 . S
C1918 C1914 1.524 1_455 S
C1918 H1930 0.956 . S
C1918 H1931 0.967 1_545 S
C1918 H1932 0.961 1_545 S
C1919 C1916 1.539 . S
C1919 H1933 0.958 . S
C1919 H1934 0.961 . S
C1919 H1935 0.960 . S
H1920 C1904 0.931 . S
H1921 C1909 0.929 . S
H1922 C1910 0.960 . S
H1923 C1910 0.962 . S
H1924 C1910 0.960 . S
H1925 C1911 0.961 . S
H1926 C1911 0.961 . S
H1927 C1911 0.961 . S
H1928 C1912 0.931 . S
H1929 C1917 0.930 . S
H1930 C1918 0.956 . S
H1931 C1918 0.967 1_565 S
H1932 C1918 0.961 1_565 S
H1933 C1919 0.958 . S
H1934 C1919 0.961 . S
H1935 C1919 0.960 . S
C1936 C1937 1.391 . S
C1936 C1938 1.394 . S
C1936 H1952 0.931 . S
C1937 C1936 1.391 . S
C1937 C1941 1.376 . S
C1938 C1936 1.394 . S
C1938 C1939 1.369 . S
C1938 C1942 1.531 . S
C1939 C1938 1.369 . S
C1939 C1940 1.410 . S
C1939 C1947 1.503 . S
C1940 C1939 1.410 . S
C1940 C1941 1.392 . S
C1940 C1943 1.511 . S
C1941 C1937 1.376 . S
C1941 C1940 1.392 . S
C1941 H1953 0.929 . S
C1942 C1938 1.531 . S
C1942 H1954 0.960 . S
C1942 H1955 0.962 . S
C1942 H1956 0.960 . S
C1943 C1940 1.511 . S
C1943 H1957 0.961 . S
C1943 H1958 0.961 . S
C1943 H1959 0.961 . S
C1944 C1945 1.370 . S
C1944 C1946 1.363 . S
C1944 H1960 0.931 . S
C1945 C1944 1.370 . S
C1945 C1949 1.408 . S
C1946 C1944 1.363 . S
C1946 C1947 1.370 . S
C1946 C1950 1.524 . S
C1947 C1939 1.503 . S
C1947 C1946 1.370 . S
C1947 C1948 1.403 . S
C1948 C1947 1.403 . S
C1948 C1949 1.404 . S
C1948 C1951 1.539 . S
C1949 C1945 1.408 . S
C1949 C1948 1.404 . S
C1949 H1961 0.930 . S
C1950 C1946 1.524 . S
C1950 H1962 0.956 . S
C1950 H1963 0.961 . S
C1950 H1964 0.961 . S
C1951 C1948 1.539 . S
C1951 H1965 0.958 . S
C1951 H1966 0.961 . S
C1951 H1967 0.960 . S
H1952 C1936 0.931 . S
H1953 C1941 0.929 . S
H1954 C1942 0.960 . S
H1955 C1942 0.962 . S
H1956 C1942 0.960 . S
H1957 C1943 0.961 . S
H1958 C1943 0.961 . S
H1959 C1943 0.961 . S
H1960 C1944 0.931 . S
H1961 C1949 0.930 . S
H1962 C1950 0.956 . S
H1963 C1950 0.961 . S
H1964 C1950 0.961 . S
H1965 C1951 0.958 . S
H1966 C1951 0.961 . S
H1967 C1951 0.960 . S
C1968 C1969 1.391 . S
C1968 C1970 1.394 . S
C1968 H1984 0.931 . S
C1969 C1968 1.391 . S
C1969 C1973 1.376 . S
C1970 C1968 1.394 . S
C1970 C1971 1.369 . S
C1970 C1974 1.531 . S
C1971 C1970 1.369 . S
C1971 C1972 1.410 . S
C1971 C1979 1.503 . S
C1972 C1971 1.410 . S
C1972 C1973 1.392 . S
C1972 C1975 1.511 1_545 S
C1973 C1969 1.376 . S
C1973 C1972 1.392 . S
C1973 H1985 0.942 . S
C1974 C1970 1.531 . S
C1974 H1986 0.960 . S
C1974 H1987 0.962 . S
C1974 H1988 0.960 . S
C1975 C1972 1.511 1_565 S
C1975 H1989 0.961 . S
C1975 H1990 0.961 . S
C1975 H1991 0.961 1_565 S
C1976 C1977 1.370 1_565 S
C1976 C1978 1.363 . S
C1976 H1992 0.931 . S
C1977 C1976 1.370 1_545 S
C1977 C1981 1.408 . S
C1978 C1976 1.363 . S
C1978 C1979 1.370 1_565 S
C1978 C1982 1.524 . S
C1979 C1971 1.503 . S
C1979 C1978 1.370 1_545 S
C1979 C1980 1.403 . S
C1980 C1979 1.403 . S
C1980 C1981 1.404 . S
C1980 C1983 1.539 . S
C1981 C1977 1.408 . S
C1981 C1980 1.404 . S
C1981 H1993 0.930 . S
C1982 C1978 1.524 . S
C1982 H1994 0.956 . S
C1982 H1995 0.961 . S
C1982 H1996 0.961 . S
C1983 C1980 1.539 . S
C1983 H1997 0.958 . S
C1983 H1998 0.961 . S
C1983 H1999 0.960 . S
H1984 C1968 0.931 . S
H1985 C1973 0.942 . S
H1986 C1974 0.960 . S
H1987 C1974 0.962 . S
H1988 C1974 0.960 . S
H1989 C1975 0.961 . S
H1990 C1975 0.961 . S
H1991 C1975 0.961 1_545 S
H1992 C1976 0.931 . S
H1993 C1981 0.930 . S
H1994 C1982 0.956 . S
H1995 C1982 0.961 . S
H1996 C1982 0.961 . S
H1997 C1983 0.958 . S
H1998 C1983 0.961 . S
H1999 C1983 0.960 . S
C2000 C2001 1.391 . S
C2000 C2002 1.394 . S
C2000 H2016 0.931 . S
C2001 C2000 1.391 . S
C2001 C2005 1.376 . S
C2002 C2000 1.394 . S
C2002 C2003 1.369 . S
C2002 C2006 1.531 . S
C2003 C2002 1.369 . S
C2003 C2004 1.410 . S
C2003 C2011 1.503 . S
C2004 C2003 1.410 . S
C2004 C2005 1.392 . S
C2004 C2007 1.511 . S
C2005 C2001 1.376 . S
C2005 C2004 1.392 . S
C2005 H2017 0.929 . S
C2006 C2002 1.531 . S
C2006 H2018 0.960 . S
C2006 H2019 0.962 . S
C2006 H2020 0.960 . S
C2007 C2004 1.511 . S
C2007 H2021 0.961 . S
C2007 H2022 0.961 . S
C2007 H2023 0.961 . S
C2008 C2009 1.370 . S
C2008 C2010 1.363 . S
C2008 H2024 0.931 . S
C2009 C2008 1.370 . S
C2009 C2013 1.408 . S
C2010 C2008 1.363 . S
C2010 C2011 1.370 . S
C2010 C2014 1.524 . S
C2011 C2003 1.503 . S
C2011 C2010 1.370 . S
C2011 C2012 1.403 . S
C2012 C2011 1.403 . S
C2012 C2013 1.404 . S
C2012 C2015 1.539 . S
C2013 C2009 1.408 . S
C2013 C2012 1.404 . S
C2013 H2025 0.930 . S
C2014 C2010 1.524 . S
C2014 H2026 0.956 . S
C2014 H2027 0.961 . S
C2014 H2028 0.961 . S
C2015 C2012 1.539 . S
C2015 H2029 0.958 . S
C2015 H2030 0.961 . S
C2015 H2031 0.960 . S
H2016 C2000 0.931 . S
H2017 C2005 0.929 . S
H2018 C2006 0.960 . S
H2019 C2006 0.962 . S
H2020 C2006 0.960 . S
H2021 C2007 0.961 . S
H2022 C2007 0.961 . S
H2023 C2007 0.961 . S
H2024 C2008 0.931 . S
H2025 C2013 0.930 . S
H2026 C2014 0.956 . S
H2027 C2014 0.961 . S
H2028 C2014 0.961 . S
H2029 C2015 0.958 . S
H2030 C2015 0.961 . S
H2031 C2015 0.960 . S
C2032 C2033 1.391 . S
C2032 C2034 1.394 . S
C2032 H2048 0.931 . S
C2033 C2032 1.391 . S
C2033 C2037 1.376 1_545 S
C2034 C2032 1.394 . S
C2034 C2035 1.367 1_545 S
C2034 C2038 1.531 . S
C2035 C2034 1.367 1_565 S
C2035 C2036 1.410 . S
C2035 C2043 1.504 . S
C2036 C2035 1.410 . S
C2036 C2037 1.392 . S
C2036 C2039 1.511 . S
C2037 C2033 1.376 1_565 S
C2037 C2036 1.392 . S
C2037 H2049 0.929 . S
C2038 C2034 1.531 . S
C2038 H2050 0.960 . S
C2038 H2051 0.962 1_545 S
C2038 H2052 0.960 . S
C2039 C2036 1.511 . S
C2039 H2053 0.961 . S
C2039 H2054 0.961 . S
C2039 H2055 0.961 1_665 S
C2040 C2041 1.370 . S
C2040 C2042 1.363 . S
C2040 H2056 0.931 . S
C2041 C2040 1.370 . S
C2041 C2045 1.408 1_565 S
C2042 C2040 1.363 . S
C2042 C2043 1.370 . S
C2042 C2046 1.524 . S
C2043 C2035 1.504 . S
C2043 C2042 1.370 . S
C2043 C2044 1.403 1_565 S
C2044 C2043 1.403 1_545 S
C2044 C2045 1.404 . S
C2044 C2047 1.539 . S
C2045 C2041 1.408 1_545 S
C2045 C2044 1.404 . S
C2045 H2057 0.930 . S
C2046 C2042 1.524 . S
C2046 H2058 0.956 . S
C2046 H2059 0.961 . S
C2046 H2060 0.961 . S
C2047 C2044 1.539 . S
C2047 H2061 0.958 . S
C2047 H2062 0.961 . S
C2047 H2063 0.960 . S
H2048 C2032 0.931 . S
H2049 C2037 0.929 . S
H2050 C2038 0.960 . S
H2051 C2038 0.962 1_565 S
H2052 C2038 0.960 . S
H2053 C2039 0.961 . S
H2054 C2039 0.961 . S
H2055 C2039 0.961 1_445 S
H2056 C2040 0.931 . S
H2057 C2045 0.930 . S
H2058 C2046 0.956 . S
H2059 C2046 0.961 . S
H2060 C2046 0.961 . S
H2061 C2047 0.958 . S
H2062 C2047 0.961 . S
H2063 C2047 0.960 . S
C2064 C2065 1.391 . S
C2064 C2066 1.394 . S
C2064 H2080 0.931 . S
C2065 C2064 1.391 . S
C2065 C2069 1.376 . S
C2066 C2064 1.394 . S
C2066 C2067 1.369 . S
C2066 C2070 1.531 . S
C2067 C2066 1.369 . S
C2067 C2068 1.410 . S
C2067 C2075 1.503 . S
C2068 C2067 1.410 . S
C2068 C2069 1.392 . S
C2068 C2071 1.511 . S
C2069 C2065 1.376 . S
C2069 C2068 1.392 . S
C2069 H2081 0.929 . S
C2070 C2066 1.531 . S
C2070 H2082 0.960 . S
C2070 H2083 0.962 . S
C2070 H2084 0.960 . S
C2071 C2068 1.511 . S
C2071 H2085 0.961 . S
C2071 H2086 0.961 . S
C2071 H2087 0.961 . S
C2072 C2073 1.370 . S
C2072 C2074 1.363 . S
C2072 H2088 0.931 . S
C2073 C2072 1.370 . S
C2073 C2077 1.408 . S
C2074 C2072 1.363 . S
C2074 C2075 1.370 . S
C2074 C2078 1.524 . S
C2075 C2067 1.503 . S
C2075 C2074 1.370 . S
C2075 C2076 1.403 . S
C2076 C2075 1.403 . S
C2076 C2077 1.404 . S
C2076 C2079 1.539 . S
C2077 C2073 1.408 . S
C2077 C2076 1.404 . S
C2077 H2089 0.930 . S
C2078 C2074 1.524 . S
C2078 H2090 0.956 . S
C2078 H2091 0.961 . S
C2078 H2092 0.961 . S
C2079 C2076 1.539 . S
C2079 H2093 0.958 . S
C2079 H2094 0.961 . S
C2079 H2095 0.960 . S
H2080 C2064 0.931 . S
H2081 C2069 0.929 . S
H2082 C2070 0.960 . S
H2083 C2070 0.962 . S
H2084 C2070 0.960 . S
H2085 C2071 0.961 . S
H2086 C2071 0.961 . S
H2087 C2071 0.961 . S
H2088 C2072 0.931 . S
H2089 C2077 0.930 . S
H2090 C2078 0.956 . S
H2091 C2078 0.961 . S
H2092 C2078 0.961 . S
H2093 C2079 0.958 . S
H2094 C2079 0.961 . S
H2095 C2079 0.960 . S
C2096 C2097 1.391 . S
C2096 C2098 1.394 . S
C2096 H2112 0.931 . S
C2097 C2096 1.391 . S
C2097 C2101 1.376 . S
C2098 C2096 1.394 . S
C2098 C2099 1.369 . S
C2098 C2102 1.531 . S
C2099 C2098 1.369 . S
C2099 C2100 1.410 . S
C2099 C2107 1.503 . S
C2100 C2099 1.410 . S
C2100 C2101 1.392 . S
C2100 C2103 1.511 . S
C2101 C2097 1.376 . S
C2101 C2100 1.392 . S
C2101 H2113 0.929 . S
C2102 C2098 1.531 . S
C2102 H2114 0.960 . S
C2102 H2115 0.962 . S
C2102 H2116 0.960 . S
C2103 C2100 1.511 . S
C2103 H2117 0.961 1_545 S
C2103 H2118 0.961 . S
C2103 H2119 0.961 . S
C2104 C2105 1.370 . S
C2104 C2106 1.363 . S
C2104 H2120 0.931 . S
C2105 C2104 1.370 . S
C2105 C2109 1.408 . S
C2106 C2104 1.363 . S
C2106 C2107 1.370 . S
C2106 C2110 1.524 1_545 S
C2107 C2099 1.503 . S
C2107 C2106 1.370 . S
C2107 C2108 1.403 . S
C2108 C2107 1.403 . S
C2108 C2109 1.404 . S
C2108 C2111 1.539 . S
C2109 C2105 1.408 . S
C2109 C2108 1.404 . S
C2109 H2121 0.930 . S
C2110 C2106 1.524 1_565 S
C2110 H2122 0.956 . S
C2110 H2123 0.961 . S
C2110 H2124 0.961 . S
C2111 C2108 1.539 . S
C2111 H2125 0.958 . S
C2111 H2126 0.961 . S
C2111 H2127 0.960 . S
H2112 C2096 0.931 . S
H2113 C2101 0.929 . S
H2114 C2102 0.960 . S
H2115 C2102 0.962 . S
H2116 C2102 0.960 . S
H2117 C2103 0.961 1_565 S
H2118 C2103 0.961 . S
H2119 C2103 0.961 . S
H2120 C2104 0.931 . S
H2121 C2109 0.930 . S
H2122 C2110 0.956 . S
H2123 C2110 0.961 . S
H2124 C2110 0.961 . S
H2125 C2111 0.958 . S
H2126 C2111 0.961 . S
H2127 C2111 0.960 . S
C2128 C2129 1.391 . S
C2128 C2130 1.394 . S
C2128 H2144 0.931 . S
C2129 C2128 1.391 . S
C2129 C2133 1.376 . S
C2130 C2128 1.394 . S
C2130 C2131 1.369 . S
C2130 C2134 1.531 . S
C2131 C2130 1.369 . S
C2131 C2132 1.410 . S
C2131 C2139 1.503 . S
C2132 C2131 1.410 . S
C2132 C2133 1.392 . S
C2132 C2135 1.511 . S
C2133 C2129 1.376 . S
C2133 C2132 1.392 . S
C2133 H2145 0.929 . S
C2134 C2130 1.531 . S
C2134 H2146 0.960 . S
C2134 H2147 0.962 . S
C2134 H2148 0.960 . S
C2135 C2132 1.511 . S
C2135 H2149 0.961 . S
C2135 H2150 0.961 . S
C2135 H2151 0.961 . S
C2136 C2137 1.370 . S
C2136 C2138 1.363 . S
C2136 H2152 0.931 . S
C2137 C2136 1.370 . S
C2137 C2141 1.408 . S
C2138 C2136 1.363 . S
C2138 C2139 1.370 . S
C2138 C2142 1.524 . S
C2139 C2131 1.503 . S
C2139 C2138 1.370 . S
C2139 C2140 1.403 . S
C2140 C2139 1.403 . S
C2140 C2141 1.404 . S
C2140 C2143 1.539 . S
C2141 C2137 1.408 . S
C2141 C2140 1.404 . S
C2141 H2153 0.930 . S
C2142 C2138 1.524 . S
C2142 H2154 0.956 . S
C2142 H2155 0.961 . S
C2142 H2156 0.961 . S
C2143 C2140 1.539 . S
C2143 H2157 0.958 . S
C2143 H2158 0.961 . S
C2143 H2159 0.960 . S
H2144 C2128 0.931 . S
H2145 C2133 0.929 . S
H2146 C2134 0.960 . S
H2147 C2134 0.962 . S
H2148 C2134 0.960 . S
H2149 C2135 0.961 . S
H2150 C2135 0.961 . S
H2151 C2135 0.961 . S
H2152 C2136 0.931 . S
H2153 C2141 0.930 . S
H2154 C2142 0.956 . S
H2155 C2142 0.961 . S
H2156 C2142 0.961 . S
H2157 C2143 0.958 . S
H2158 C2143 0.961 . S
H2159 C2143 0.960 . S
C2160 C2161 1.391 . S
C2160 C2162 1.394 . S
C2160 H2176 0.931 . S
C2161 C2160 1.391 . S
C2161 C2165 1.376 . S
C2162 C2160 1.394 . S
C2162 C2163 1.369 . S
C2162 C2166 1.531 . S
C2163 C2162 1.369 . S
C2163 C2164 1.410 . S
C2163 C2171 1.503 . S
C2164 C2163 1.410 . S
C2164 C2165 1.392 . S
C2164 C2167 1.511 1_554 S
C2165 C2161 1.376 . S
C2165 C2164 1.392 . S
C2165 H2177 0.929 1_554 S
C2166 C2162 1.531 . S
C2166 H2178 0.960 . S
C2166 H2179 0.962 . S
C2166 H2180 0.960 . S
C2167 C2164 1.511 1_556 S
C2167 H2181 0.961 . S
C2167 H2182 0.961 . S
C2167 H2183 0.961 . S
C2168 C2169 1.370 . S
C2168 C2170 1.363 . S
C2168 H2184 0.931 1_565 S
C2169 C2168 1.370 . S
C2169 C2173 1.408 . S
C2170 C2168 1.363 . S
C2170 C2171 1.370 . S
C2170 C2174 1.524 . S
C2171 C2163 1.503 . S
C2171 C2170 1.370 . S
C2171 C2172 1.403 . S
C2172 C2171 1.403 . S
C2172 C2173 1.404 . S
C2172 C2175 1.539 . S
C2173 C2169 1.408 . S
C2173 C2172 1.404 . S
C2173 H2185 0.930 . S
C2174 C2170 1.524 . S
C2174 H2186 0.956 . S
C2174 H2187 0.961 . S
C2174 H2188 0.961 1_565 S
C2175 C2172 1.539 . S
C2175 H2189 0.958 . S
C2175 H2190 0.961 . S
C2175 H2191 0.960 . S
H2176 C2160 0.931 . S
H2177 C2165 0.929 1_556 S
H2178 C2166 0.960 . S
H2179 C2166 0.962 . S
H2180 C2166 0.960 . S
H2181 C2167 0.961 . S
H2182 C2167 0.961 . S
H2183 C2167 0.961 . S
H2184 C2168 0.931 1_545 S
H2185 C2173 0.930 . S
H2186 C2174 0.956 . S
H2187 C2174 0.961 . S
H2188 C2174 0.961 1_545 S
H2189 C2175 0.958 . S
H2190 C2175 0.961 . S
H2191 C2175 0.960 . S
C2192 C2193 1.391 . S
C2192 C2194 1.394 . S
C2192 H2208 0.931 . S
C2193 C2192 1.391 . S
C2193 C2197 1.376 1_554 S
C2194 C2192 1.394 . S
C2194 C2195 1.369 . S
C2194 C2198 1.531 . S
C2195 C2194 1.369 . S
C2195 C2196 1.410 1_554 S
C2195 C2203 1.503 . S
C2196 C2195 1.410 1_556 S
C2196 C2197 1.392 . S
C2196 C2199 1.511 . S
C2197 C2193 1.376 1_556 S
C2197 C2196 1.392 . S
C2197 H2209 0.929 . S
C2198 C2194 1.531 . S
C2198 H2210 0.960 . S
C2198 H2211 0.962 . S
C2198 H2212 0.960 . S
C2199 C2196 1.511 . S
C2199 H2213 0.961 . S
C2199 H2214 0.961 . S
C2199 H2215 0.961 . S
C2200 C2201 1.370 . S
C2200 C2202 1.363 . S
C2200 H2216 0.931 . S
C2201 C2200 1.370 . S
C2201 C2205 1.408 1_554 S
C2202 C2200 1.363 . S
C2202 C2203 1.370 . S
C2202 C2206 1.524 . S
C2203 C2195 1.503 . S
C2203 C2202 1.370 . S
C2203 C2204 1.403 1_554 S
C2204 C2203 1.403 1_556 S
C2204 C2205 1.404 . S
C2204 C2207 1.539 . S
C2205 C2201 1.408 1_556 S
C2205 C2204 1.404 . S
C2205 H2217 0.930 . S
C2206 C2202 1.524 . S
C2206 H2218 0.956 . S
C2206 H2219 0.961 . S
C2206 H2220 0.961 . S
C2207 C2204 1.539 . S
C2207 H2221 0.958 . S
C2207 H2222 0.961 . S
C2207 H2223 0.960 . S
H2208 C2192 0.931 . S
H2209 C2197 0.929 . S
H2210 C2198 0.960 . S
H2211 C2198 0.962 . S
H2212 C2198 0.960 . S
H2213 C2199 0.961 . S
H2214 C2199 0.961 . S
H2215 C2199 0.961 . S
H2216 C2200 0.931 . S
H2217 C2205 0.930 . S
H2218 C2206 0.956 . S
H2219 C2206 0.961 . S
H2220 C2206 0.961 . S
H2221 C2207 0.958 . S
H2222 C2207 0.961 . S
H2223 C2207 0.960 . S
C2224 C2225 1.391 . S
C2224 C2226 1.394 . S
C2224 H2240 0.931 . S
C2225 C2224 1.391 . S
C2225 C2229 1.376 . S
C2226 C2224 1.394 . S
C2226 C2227 1.369 . S
C2226 C2230 1.531 . S
C2227 C2226 1.369 . S
C2227 C2228 1.410 . S
C2227 C2235 1.503 . S
C2228 C2227 1.410 . S
C2228 C2229 1.392 . S
C2228 C2231 1.511 . S
C2229 C2225 1.376 . S
C2229 C2228 1.392 . S
C2229 H2241 0.929 . S
C2230 C2226 1.531 . S
C2230 H2242 0.960 . S
C2230 H2243 0.962 . S
C2230 H2244 0.960 . S
C2231 C2228 1.511 . S
C2231 H2245 0.961 . S
C2231 H2246 0.961 . S
C2231 H2247 0.961 . S
C2232 C2233 1.370 . S
C2232 C2234 1.363 . S
C2232 H2248 0.931 . S
C2233 C2232 1.370 . S
C2233 C2237 1.408 . S
C2234 C2232 1.363 . S
C2234 C2235 1.370 . S
C2234 C2238 1.524 . S
C2235 C2227 1.503 . S
C2235 C2234 1.370 . S
C2235 C2236 1.403 . S
C2236 C2235 1.403 . S
C2236 C2237 1.404 . S
C2236 C2239 1.539 . S
C2237 C2233 1.408 . S
C2237 C2236 1.404 . S
C2237 H2249 0.930 . S
C2238 C2234 1.524 . S
C2238 H2250 0.956 . S
C2238 H2251 0.961 . S
C2238 H2252 0.961 . S
C2239 C2236 1.539 . S
C2239 H2253 0.958 . S
C2239 H2254 0.961 . S
C2239 H2255 0.960 . S
H2240 C2224 0.931 . S
H2241 C2229 0.929 . S
H2242 C2230 0.960 . S
H2243 C2230 0.962 . S
H2244 C2230 0.960 . S
H2245 C2231 0.961 . S
H2246 C2231 0.961 . S
H2247 C2231 0.961 . S
H2248 C2232 0.931 . S
H2249 C2237 0.930 . S
H2250 C2238 0.956 . S
H2251 C2238 0.961 . S
H2252 C2238 0.961 . S
H2253 C2239 0.958 . S
H2254 C2239 0.961 . S
H2255 C2239 0.960 . S
C2256 C2257 1.391 . S
C2256 C2258 1.394 . S
C2256 H2272 0.931 . S
C2257 C2256 1.391 . S
C2257 C2261 1.376 . S
C2258 C2256 1.394 . S
C2258 C2259 1.369 . S
C2258 C2262 1.531 . S
C2259 C2258 1.369 . S
C2259 C2260 1.410 . S
C2259 C2267 1.503 . S
C2260 C2259 1.410 . S
C2260 C2261 1.392 . S
C2260 C2263 1.511 . S
C2261 C2257 1.376 . S
C2261 C2260 1.392 . S
C2261 H2273 0.929 . S
C2262 C2258 1.531 . S
C2262 H2274 0.960 . S
C2262 H2275 0.962 . S
C2262 H2276 0.960 . S
C2263 C2260 1.511 . S
C2263 H2277 0.961 . S
C2263 H2278 0.961 . S
C2263 H2279 0.961 . S
C2264 C2265 1.370 . S
C2264 C2266 1.363 . S
C2264 H2280 0.931 . S
C2265 C2264 1.370 . S
C2265 C2269 1.408 . S
C2266 C2264 1.363 . S
C2266 C2267 1.370 . S
C2266 C2270 1.524 . S
C2267 C2259 1.503 . S
C2267 C2266 1.370 . S
C2267 C2268 1.403 . S
C2268 C2267 1.403 . S
C2268 C2269 1.404 . S
C2268 C2271 1.539 . S
C2269 C2265 1.408 . S
C2269 C2268 1.404 . S
C2269 H2281 0.930 . S
C2270 C2266 1.524 . S
C2270 H2282 0.956 . S
C2270 H2283 0.961 . S
C2270 H2284 0.961 . S
C2271 C2268 1.539 . S
C2271 H2285 0.958 . S
C2271 H2286 0.961 . S
C2271 H2287 0.960 . S
H2272 C2256 0.931 . S
H2273 C2261 0.929 . S
H2274 C2262 0.960 . S
H2275 C2262 0.962 . S
H2276 C2262 0.960 . S
H2277 C2263 0.961 . S
H2278 C2263 0.961 . S
H2279 C2263 0.961 . S
H2280 C2264 0.931 . S
H2281 C2269 0.930 . S
H2282 C2270 0.956 . S
H2283 C2270 0.961 . S
H2284 C2270 0.961 . S
H2285 C2271 0.958 . S
H2286 C2271 0.961 . S
H2287 C2271 0.960 . S
C2288 C2289 1.391 . S
C2288 C2290 1.394 . S
C2288 H2304 0.931 . S
C2289 C2288 1.391 . S
C2289 C2293 1.376 . S
C2290 C2288 1.394 . S
C2290 C2291 1.369 . S
C2290 C2294 1.531 . S
C2291 C2290 1.369 . S
C2291 C2292 1.410 . S
C2291 C2299 1.503 . S
C2292 C2291 1.410 . S
C2292 C2293 1.392 . S
C2292 C2295 1.511 . S
C2293 C2289 1.376 . S
C2293 C2292 1.392 . S
C2293 H2305 0.929 . S
C2294 C2290 1.531 . S
C2294 H2306 0.960 . S
C2294 H2307 0.962 . S
C2294 H2308 0.960 . S
C2295 C2292 1.511 . S
C2295 H2309 0.961 . S
C2295 H2310 0.961 . S
C2295 H2311 0.961 . S
C2296 C2297 1.370 . S
C2296 C2298 1.363 . S
C2296 H2312 0.931 . S
C2297 C2296 1.370 . S
C2297 C2301 1.408 . S
C2298 C2296 1.363 . S
C2298 C2299 1.370 . S
C2298 C2302 1.524 . S
C2299 C2291 1.503 . S
C2299 C2298 1.370 . S
C2299 C2300 1.403 . S
C2300 C2299 1.403 . S
C2300 C2301 1.404 . S
C2300 C2303 1.539 . S
C2301 C2297 1.408 . S
C2301 C2300 1.404 . S
C2301 H2313 0.930 . S
C2302 C2298 1.524 . S
C2302 H2314 0.956 . S
C2302 H2315 0.961 . S
C2302 H2316 0.961 . S
C2303 C2300 1.539 . S
C2303 H2317 0.958 . S
C2303 H2318 0.961 . S
C2303 H2319 0.960 . S
H2304 C2288 0.931 . S
H2305 C2293 0.929 . S
H2306 C2294 0.960 . S
H2307 C2294 0.962 . S
H2308 C2294 0.960 . S
H2309 C2295 0.961 . S
H2310 C2295 0.961 . S
H2311 C2295 0.961 . S
H2312 C2296 0.931 . S
H2313 C2301 0.930 . S
H2314 C2302 0.956 . S
H2315 C2302 0.961 . S
H2316 C2302 0.961 . S
H2317 C2303 0.958 . S
H2318 C2303 0.961 . S
H2319 C2303 0.960 . S
C2320 C2321 1.391 . S
C2320 C2322 1.394 . S
C2320 H2336 0.931 . S
C2321 C2320 1.391 . S
C2321 C2325 1.376 . S
C2322 C2320 1.394 . S
C2322 C2323 1.369 . S
C2322 C2326 1.531 . S
C2323 C2322 1.369 . S
C2323 C2324 1.410 . S
C2323 C2331 1.503 . S
C2324 C2323 1.410 . S
C2324 C2325 1.392 . S
C2324 C2327 1.511 . S
C2325 C2321 1.376 . S
C2325 C2324 1.392 . S
C2325 H2337 0.929 . S
C2326 C2322 1.531 . S
C2326 H2338 0.960 . S
C2326 H2339 0.962 . S
C2326 H2340 0.960 . S
C2327 C2324 1.511 . S
C2327 H2341 0.961 . S
C2327 H2342 0.961 . S
C2327 H2343 0.961 . S
C2328 C2329 1.370 . S
C2328 C2330 1.363 . S
C2328 H2344 0.931 . S
C2329 C2328 1.370 . S
C2329 C2333 1.408 . S
C2330 C2328 1.363 . S
C2330 C2331 1.370 . S
C2330 C2334 1.524 . S
C2331 C2323 1.503 . S
C2331 C2330 1.370 . S
C2331 C2332 1.403 . S
C2332 C2331 1.403 . S
C2332 C2333 1.404 . S
C2332 C2335 1.539 . S
C2333 C2329 1.408 . S
C2333 C2332 1.404 . S
C2333 H2345 0.930 . S
C2334 C2330 1.524 . S
C2334 H2346 0.956 . S
C2334 H2347 0.961 . S
C2334 H2348 0.961 . S
C2335 C2332 1.539 . S
C2335 H2349 0.958 . S
C2335 H2350 0.961 . S
C2335 H2351 0.960 . S
H2336 C2320 0.931 . S
H2337 C2325 0.929 . S
H2338 C2326 0.960 . S
H2339 C2326 0.962 . S
H2340 C2326 0.960 . S
H2341 C2327 0.961 . S
H2342 C2327 0.961 . S
H2343 C2327 0.961 . S
H2344 C2328 0.931 . S
H2345 C2333 0.930 . S
H2346 C2334 0.956 . S
H2347 C2334 0.961 . S
H2348 C2334 0.961 . S
H2349 C2335 0.958 . S
H2350 C2335 0.961 . S
H2351 C2335 0.960 . S
C2352 C2353 1.391 . S
C2352 C2354 1.394 . S
C2352 H2368 0.931 . S
C2353 C2352 1.391 . S
C2353 C2357 1.376 . S
C2354 C2352 1.394 . S
C2354 C2355 1.369 . S
C2354 C2358 1.531 . S
C2355 C2354 1.369 . S
C2355 C2356 1.410 . S
C2355 C2363 1.503 . S
C2356 C2355 1.410 . S
C2356 C2357 1.392 . S
C2356 C2359 1.511 . S
C2357 C2353 1.376 . S
C2357 C2356 1.392 . S
C2357 H2369 0.929 . S
C2358 C2354 1.531 . S
C2358 H2370 0.960 . S
C2358 H2371 0.962 . S
C2358 H2372 0.960 . S
C2359 C2356 1.511 . S
C2359 H2373 0.961 . S
C2359 H2374 0.961 . S
C2359 H2375 0.961 . S
C2360 C2361 1.370 . S
C2360 C2362 1.363 . S
C2360 H2376 0.931 . S
C2361 C2360 1.370 . S
C2361 C2365 1.408 . S
C2362 C2360 1.363 . S
C2362 C2363 1.370 . S
C2362 C2366 1.524 . S
C2363 C2355 1.503 . S
C2363 C2362 1.370 . S
C2363 C2364 1.403 . S
C2364 C2363 1.403 . S
C2364 C2365 1.404 . S
C2364 C2367 1.539 . S
C2365 C2361 1.408 . S
C2365 C2364 1.404 . S
C2365 H2377 0.930 . S
C2366 C2362 1.524 . S
C2366 H2378 0.956 . S
C2366 H2379 0.961 . S
C2366 H2380 0.961 . S
C2367 C2364 1.539 . S
C2367 H2381 0.958 . S
C2367 H2382 0.961 . S
C2367 H2383 0.960 . S
H2368 C2352 0.931 . S
H2369 C2357 0.929 . S
H2370 C2358 0.960 . S
H2371 C2358 0.962 . S
H2372 C2358 0.960 . S
H2373 C2359 0.961 . S
H2374 C2359 0.961 . S
H2375 C2359 0.961 . S
H2376 C2360 0.931 . S
H2377 C2365 0.930 . S
H2378 C2366 0.956 . S
H2379 C2366 0.961 . S
H2380 C2366 0.961 . S
H2381 C2367 0.958 . S
H2382 C2367 0.961 . S
H2383 C2367 0.960 . S
C2384 C2385 1.391 . S
C2384 C2386 1.394 . S
C2384 H2400 0.931 . S
C2385 C2384 1.391 . S
C2385 C2389 1.376 . S
C2386 C2384 1.394 . S
C2386 C2387 1.369 . S
C2386 C2390 1.531 . S
C2387 C2386 1.369 . S
C2387 C2388 1.410 . S
C2387 C2395 1.503 . S
C2388 C2387 1.410 . S
C2388 C2389 1.392 . S
C2388 C2391 1.511 . S
C2389 C2385 1.376 . S
C2389 C2388 1.392 . S
C2389 H2401 0.929 . S
C2390 C2386 1.531 . S
C2390 H2402 0.960 . S
C2390 H2403 0.962 . S
C2390 H2404 0.960 . S
C2391 C2388 1.511 . S
C2391 H2405 0.961 . S
C2391 H2406 0.961 . S
C2391 H2407 0.961 . S
C2392 C2393 1.370 . S
C2392 C2394 1.363 . S
C2392 H2408 0.931 . S
C2393 C2392 1.370 . S
C2393 C2397 1.408 . S
C2394 C2392 1.363 . S
C2394 C2395 1.370 . S
C2394 C2398 1.524 . S
C2395 C2387 1.503 . S
C2395 C2394 1.370 . S
C2395 C2396 1.403 . S
C2396 C2395 1.403 . S
C2396 C2397 1.404 . S
C2396 C2399 1.539 . S
C2397 C2393 1.408 . S
C2397 C2396 1.404 . S
C2397 H2409 0.930 . S
C2398 C2394 1.524 . S
C2398 H2410 0.956 . S
C2398 H2411 0.961 . S
C2398 H2412 0.961 . S
C2399 C2396 1.539 . S
C2399 H2413 0.958 . S
C2399 H2414 0.961 . S
C2399 H2415 0.960 . S
H2400 C2384 0.931 . S
H2401 C2389 0.929 . S
H2402 C2390 0.960 . S
H2403 C2390 0.962 . S
H2404 C2390 0.960 . S
H2405 C2391 0.961 . S
H2406 C2391 0.961 . S
H2407 C2391 0.961 . S
H2408 C2392 0.931 . S
H2409 C2397 0.930 . S
H2410 C2398 0.956 . S
H2411 C2398 0.961 . S
H2412 C2398 0.961 . S
H2413 C2399 0.958 . S
H2414 C2399 0.961 . S
H2415 C2399 0.960 . S
C2416 C2417 1.391 . S
C2416 C2418 1.394 . S
C2416 H2432 0.931 . S
C2417 C2416 1.391 . S
C2417 C2421 1.376 . S
C2418 C2416 1.394 . S
C2418 C2419 1.369 . S
C2418 C2422 1.531 . S
C2419 C2418 1.369 . S
C2419 C2420 1.410 . S
C2419 C2427 1.503 . S
C2420 C2419 1.410 . S
C2420 C2421 1.392 . S
C2420 C2423 1.511 . S
C2421 C2417 1.376 . S
C2421 C2420 1.392 . S
C2421 H2433 0.929 . S
C2422 C2418 1.531 . S
C2422 H2434 0.960 . S
C2422 H2435 0.962 . S
C2422 H2436 0.960 . S
C2423 C2420 1.511 . S
C2423 H2437 0.961 . S
C2423 H2438 0.961 . S
C2423 H2439 0.961 . S
C2424 C2425 1.370 . S
C2424 C2426 1.363 . S
C2424 H2440 0.931 . S
C2425 C2424 1.370 . S
C2425 C2429 1.408 . S
C2426 C2424 1.363 . S
C2426 C2427 1.370 . S
C2426 C2430 1.524 . S
C2427 C2419 1.503 . S
C2427 C2426 1.370 . S
C2427 C2428 1.403 . S
C2428 C2427 1.403 . S
C2428 C2429 1.404 . S
C2428 C2431 1.539 . S
C2429 C2425 1.408 . S
C2429 C2428 1.404 . S
C2429 H2441 0.930 . S
C2430 C2426 1.524 . S
C2430 H2442 0.956 . S
C2430 H2443 0.961 . S
C2430 H2444 0.961 . S
C2431 C2428 1.539 . S
C2431 H2445 0.958 . S
C2431 H2446 0.961 . S
C2431 H2447 0.960 . S
H2432 C2416 0.931 . S
H2433 C2421 0.929 . S
H2434 C2422 0.960 . S
H2435 C2422 0.962 . S
H2436 C2422 0.960 . S
H2437 C2423 0.961 . S
H2438 C2423 0.961 . S
H2439 C2423 0.961 . S
H2440 C2424 0.931 . S
H2441 C2429 0.930 . S
H2442 C2430 0.956 . S
H2443 C2430 0.961 . S
H2444 C2430 0.961 . S
H2445 C2431 0.958 . S
H2446 C2431 0.961 . S
H2447 C2431 0.960 . S
C2448 C2449 1.391 . S
C2448 C2450 1.394 . S
C2448 H2464 0.931 . S
C2449 C2448 1.391 . S
C2449 C2453 1.376 . S
C2450 C2448 1.394 . S
C2450 C2451 1.369 . S
C2450 C2454 1.531 . S
C2451 C2450 1.369 . S
C2451 C2452 1.410 . S
C2451 C2459 1.503 . S
C2452 C2451 1.410 . S
C2452 C2453 1.392 . S
C2452 C2455 1.511 . S
C2453 C2449 1.376 . S
C2453 C2452 1.392 . S
C2453 H2465 0.929 . S
C2454 C2450 1.531 . S
C2454 H2466 0.960 . S
C2454 H2467 0.962 . S
C2454 H2468 0.960 . S
C2455 C2452 1.511 . S
C2455 H2469 0.961 . S
C2455 H2470 0.961 . S
C2455 H2471 0.961 . S
C2456 C2457 1.370 . S
C2456 C2458 1.363 . S
C2456 H2472 0.931 . S
C2457 C2456 1.370 . S
C2457 C2461 1.408 . S
C2458 C2456 1.363 . S
C2458 C2459 1.370 . S
C2458 C2462 1.524 . S
C2459 C2451 1.503 . S
C2459 C2458 1.370 . S
C2459 C2460 1.403 . S
C2460 C2459 1.403 . S
C2460 C2461 1.404 . S
C2460 C2463 1.539 . S
C2461 C2457 1.408 . S
C2461 C2460 1.404 . S
C2461 H2473 0.930 . S
C2462 C2458 1.524 . S
C2462 H2474 0.956 . S
C2462 H2475 0.961 . S
C2462 H2476 0.961 . S
C2463 C2460 1.539 . S
C2463 H2477 0.958 . S
C2463 H2478 0.961 . S
C2463 H2479 0.960 . S
H2464 C2448 0.931 . S
H2465 C2453 0.929 . S
H2466 C2454 0.960 . S
H2467 C2454 0.962 . S
H2468 C2454 0.960 . S
H2469 C2455 0.961 . S
H2470 C2455 0.961 . S
H2471 C2455 0.961 . S
H2472 C2456 0.931 . S
H2473 C2461 0.930 . S
H2474 C2462 0.956 . S
H2475 C2462 0.961 . S
H2476 C2462 0.961 . S
H2477 C2463 0.958 . S
H2478 C2463 0.961 . S
H2479 C2463 0.960 . S
C2480 C2481 1.391 . S
C2480 C2482 1.394 . S
C2480 H2496 0.931 . S
C2481 C2480 1.391 . S
C2481 C2485 1.376 . S
C2482 C2480 1.394 . S
C2482 C2483 1.369 . S
C2482 C2486 1.531 . S
C2483 C2482 1.369 . S
C2483 C2484 1.410 . S
C2483 C2491 1.503 . S
C2484 C2483 1.410 . S
C2484 C2485 1.392 . S
C2484 C2487 1.511 . S
C2485 C2481 1.376 . S
C2485 C2484 1.392 . S
C2485 H2497 0.929 . S
C2486 C2482 1.531 . S
C2486 H2498 0.960 . S
C2486 H2499 0.962 . S
C2486 H2500 0.960 . S
C2487 C2484 1.511 . S
C2487 H2501 0.961 . S
C2487 H2502 0.961 . S
C2487 H2503 0.961 . S
C2488 C2489 1.370 . S
C2488 C2490 1.363 . S
C2488 H2504 0.931 . S
C2489 C2488 1.370 . S
C2489 C2493 1.408 . S
C2490 C2488 1.363 . S
C2490 C2491 1.370 . S
C2490 C2494 1.524 . S
C2491 C2483 1.503 . S
C2491 C2490 1.370 . S
C2491 C2492 1.403 . S
C2492 C2491 1.403 . S
C2492 C2493 1.404 . S
C2492 C2495 1.539 . S
C2493 C2489 1.408 . S
C2493 C2492 1.404 . S
C2493 H2505 0.930 . S
C2494 C2490 1.524 . S
C2494 H2506 0.956 . S
C2494 H2507 0.961 . S
C2494 H2508 0.961 . S
C2495 C2492 1.539 . S
C2495 H2509 0.958 . S
C2495 H2510 0.961 . S
C2495 H2511 0.960 . S
H2496 C2480 0.931 . S
H2497 C2485 0.929 . S
H2498 C2486 0.960 . S
H2499 C2486 0.962 . S
H2500 C2486 0.960 . S
H2501 C2487 0.961 . S
H2502 C2487 0.961 . S
H2503 C2487 0.961 . S
H2504 C2488 0.931 . S
H2505 C2493 0.930 . S
H2506 C2494 0.956 . S
H2507 C2494 0.961 . S
H2508 C2494 0.961 . S
H2509 C2495 0.958 . S
H2510 C2495 0.961 . S
H2511 C2495 0.960 . S
C2512 C2513 1.391 . S
C2512 C2514 1.394 . S
C2512 H2528 0.931 . S
C2513 C2512 1.391 . S
C2513 C2517 1.376 . S
C2514 C2512 1.394 . S
C2514 C2515 1.369 . S
C2514 C2518 1.531 . S
C2515 C2514 1.369 . S
C2515 C2516 1.410 . S
C2515 C2523 1.503 . S
C2516 C2515 1.410 . S
C2516 C2517 1.392 . S
C2516 C2519 1.511 . S
C2517 C2513 1.376 . S
C2517 C2516 1.392 . S
C2517 H2529 0.929 . S
C2518 C2514 1.531 . S
C2518 H2530 0.960 . S
C2518 H2531 0.962 . S
C2518 H2532 0.960 . S
C2519 C2516 1.511 . S
C2519 H2533 0.961 . S
C2519 H2534 0.961 . S
C2519 H2535 0.961 . S
C2520 C2521 1.370 . S
C2520 C2522 1.363 . S
C2520 H2536 0.931 . S
C2521 C2520 1.370 . S
C2521 C2525 1.408 . S
C2522 C2520 1.363 . S
C2522 C2523 1.370 . S
C2522 C2526 1.524 . S
C2523 C2515 1.503 . S
C2523 C2522 1.370 . S
C2523 C2524 1.403 . S
C2524 C2523 1.403 . S
C2524 C2525 1.404 . S
C2524 C2527 1.539 . S
C2525 C2521 1.408 . S
C2525 C2524 1.404 . S
C2525 H2537 0.930 . S
C2526 C2522 1.524 . S
C2526 H2538 0.956 . S
C2526 H2539 0.961 . S
C2526 H2540 0.961 . S
C2527 C2524 1.539 . S
C2527 H2541 0.958 . S
C2527 H2542 0.961 . S
C2527 H2543 0.960 . S
H2528 C2512 0.931 . S
H2529 C2517 0.929 . S
H2530 C2518 0.960 . S
H2531 C2518 0.962 . S
H2532 C2518 0.960 . S
H2533 C2519 0.961 . S
H2534 C2519 0.961 . S
H2535 C2519 0.961 . S
H2536 C2520 0.931 . S
H2537 C2525 0.930 . S
H2538 C2526 0.956 . S
H2539 C2526 0.961 . S
H2540 C2526 0.961 . S
H2541 C2527 0.958 . S
H2542 C2527 0.961 . S
H2543 C2527 0.960 . S
C2544 C2545 1.391 . S
C2544 C2546 1.394 . S
C2544 H2560 0.931 . S
C2545 C2544 1.391 . S
C2545 C2549 1.376 . S
C2546 C2544 1.394 . S
C2546 C2547 1.369 . S
C2546 C2550 1.531 . S
C2547 C2546 1.369 . S
C2547 C2548 1.410 . S
C2547 C2555 1.503 . S
C2548 C2547 1.410 . S
C2548 C2549 1.392 . S
C2548 C2551 1.511 . S
C2549 C2545 1.376 . S
C2549 C2548 1.392 . S
C2549 H2561 0.929 . S
C2550 C2546 1.531 . S
C2550 H2562 0.960 . S
C2550 H2563 0.962 . S
C2550 H2564 0.960 . S
C2551 C2548 1.511 . S
C2551 H2565 0.961 . S
C2551 H2566 0.961 . S
C2551 H2567 0.961 . S
C2552 C2553 1.370 1_554 S
C2552 C2554 1.363 1_554 S
C2552 H2568 0.931 . S
C2553 C2552 1.370 1_556 S
C2553 C2557 1.408 . S
C2554 C2552 1.363 1_556 S
C2554 C2555 1.370 . S
C2554 C2558 1.526 1_556 S
C2555 C2547 1.503 . S
C2555 C2554 1.370 . S
C2555 C2556 1.403 . S
C2556 C2555 1.403 . S
C2556 C2557 1.404 . S
C2556 C2559 1.539 . S
C2557 C2553 1.408 . S
C2557 C2556 1.404 . S
C2557 H2569 0.930 . S
C2558 C2554 1.526 1_554 S
C2558 H2570 0.956 1_554 S
C2558 H2571 0.964 1_554 S
C2558 H2572 0.955 . S
C2559 C2556 1.539 . S
C2559 H2573 0.958 . S
C2559 H2574 0.961 . S
C2559 H2575 0.960 . S
H2560 C2544 0.931 . S
H2561 C2549 0.929 . S
H2562 C2550 0.960 . S
H2563 C2550 0.962 . S
H2564 C2550 0.960 . S
H2565 C2551 0.961 . S
H2566 C2551 0.961 . S
H2567 C2551 0.961 . S
H2568 C2552 0.931 . S
H2569 C2557 0.930 . S
H2570 C2558 0.956 1_556 S
H2571 C2558 0.964 1_556 S
H2572 C2558 0.955 . S
H2573 C2559 0.958 . S
H2574 C2559 0.961 . S
H2575 C2559 0.960 . S
C2576 C2577 1.391 1_655 S
C2576 C2578 1.394 . S
C2576 H2592 0.931 . S
C2577 C2576 1.391 1_455 S
C2577 C2581 1.376 . S
C2578 C2576 1.394 . S
C2578 C2579 1.369 . S
C2578 C2582 1.531 . S
C2579 C2578 1.369 . S
C2579 C2580 1.410 . S
C2579 C2587 1.503 . S
C2580 C2579 1.410 . S
C2580 C2581 1.392 1_655 S
C2580 C2583 1.511 . S
C2581 C2577 1.376 . S
C2581 C2580 1.392 1_455 S
C2581 H2593 0.929 . S
C2582 C2578 1.531 . S
C2582 H2594 0.960 . S
C2582 H2595 0.962 . S
C2582 H2596 0.960 . S
C2583 C2580 1.511 . S
C2583 H2597 0.961 . S
C2583 H2598 0.961 . S
C2583 H2599 0.961 . S
C2584 C2585 1.370 . S
C2584 C2586 1.363 . S
C2584 H2600 0.931 . S
C2585 C2584 1.370 . S
C2585 C2589 1.408 . S
C2586 C2584 1.363 . S
C2586 C2587 1.370 . S
C2586 C2590 1.524 . S
C2587 C2579 1.503 . S
C2587 C2586 1.370 . S
C2587 C2588 1.403 . S
C2588 C2587 1.403 . S
C2588 C2589 1.404 . S
C2588 C2591 1.539 . S
C2589 C2585 1.408 . S
C2589 C2588 1.404 . S
C2589 H2601 0.930 . S
C2590 C2586 1.524 . S
C2590 H2602 0.956 . S
C2590 H2603 0.961 . S
C2590 H2604 0.961 . S
C2591 C2588 1.539 . S
C2591 H2605 0.958 . S
C2591 H2606 0.961 . S
C2591 H2607 0.960 . S
H2592 C2576 0.931 . S
H2593 C2581 0.929 . S
H2594 C2582 0.960 . S
H2595 C2582 0.962 . S
H2596 C2582 0.960 . S
H2597 C2583 0.961 . S
H2598 C2583 0.961 . S
H2599 C2583 0.961 . S
H2600 C2584 0.931 . S
H2601 C2589 0.930 . S
H2602 C2590 0.956 . S
H2603 C2590 0.961 . S
H2604 C2590 0.961 . S
H2605 C2591 0.958 . S
H2606 C2591 0.961 . S
H2607 C2591 0.960 . S
C2608 C2609 1.391 . S
C2608 C2610 1.394 . S
C2608 H2624 0.931 . S
C2609 C2608 1.391 . S
C2609 C2613 1.376 . S
C2610 C2608 1.394 . S
C2610 C2611 1.369 . S
C2610 C2614 1.531 . S
C2611 C2610 1.369 . S
C2611 C2612 1.410 . S
C2611 C2619 1.503 . S
C2612 C2611 1.410 . S
C2612 C2613 1.392 . S
C2612 C2615 1.511 1_455 S
C2613 C2609 1.376 . S
C2613 C2612 1.392 . S
C2613 H2625 0.929 1_455 S
C2614 C2610 1.531 . S
C2614 H2626 0.960 . S
C2614 H2627 0.962 . S
C2614 H2628 0.960 . S
C2615 C2612 1.511 1_655 S
C2615 H2629 0.961 . S
C2615 H2630 0.961 . S
C2615 H2631 0.961 . S
C2616 C2617 1.370 . S
C2616 C2618 1.363 . S
C2616 H2632 0.931 . S
C2617 C2616 1.370 . S
C2617 C2621 1.408 . S
C2618 C2616 1.363 . S
C2618 C2619 1.370 . S
C2618 C2622 1.524 . S
C2619 C2611 1.503 . S
C2619 C2618 1.370 . S
C2619 C2620 1.403 . S
C2620 C2619 1.403 . S
C2620 C2621 1.404 . S
C2620 C2623 1.539 . S
C2621 C2617 1.408 . S
C2621 C2620 1.404 . S
C2621 H2633 0.930 . S
C2622 C2618 1.524 . S
C2622 H2634 0.956 . S
C2622 H2635 0.961 . S
C2622 H2636 0.961 . S
C2623 C2620 1.539 . S
C2623 H2637 0.958 . S
C2623 H2638 0.961 . S
C2623 H2639 0.960 . S
H2624 C2608 0.931 . S
H2625 C2613 0.929 1_655 S
H2626 C2614 0.960 . S
H2627 C2614 0.962 . S
H2628 C2614 0.960 . S
H2629 C2615 0.961 . S
H2630 C2615 0.961 . S
H2631 C2615 0.961 . S
H2632 C2616 0.931 . S
H2633 C2621 0.930 . S
H2634 C2622 0.956 . S
H2635 C2622 0.961 . S
H2636 C2622 0.961 . S
H2637 C2623 0.958 . S
H2638 C2623 0.961 . S
H2639 C2623 0.960 . S
C2640 C2641 1.391 . S
C2640 C2642 1.394 . S
C2640 H2656 0.931 . S
C2641 C2640 1.391 . S
C2641 C2645 1.376 . S
C2642 C2640 1.394 . S
C2642 C2643 1.369 . S
C2642 C2646 1.531 . S
C2643 C2642 1.369 . S
C2643 C2644 1.410 . S
C2643 C2651 1.503 . S
C2644 C2643 1.410 . S
C2644 C2645 1.392 . S
C2644 C2647 1.511 . S
C2645 C2641 1.376 . S
C2645 C2644 1.392 . S
C2645 H2657 0.929 . S
C2646 C2642 1.531 . S
C2646 H2658 0.960 . S
C2646 H2659 0.962 . S
C2646 H2660 0.960 . S
C2647 C2644 1.511 . S
C2647 H2661 0.961 . S
C2647 H2662 0.961 . S
C2647 H2663 0.961 . S
C2648 C2649 1.370 . S
C2648 C2650 1.363 . S
C2648 H2664 0.931 . S
C2649 C2648 1.370 . S
C2649 C2653 1.408 . S
C2650 C2648 1.363 . S
C2650 C2651 1.370 . S
C2650 C2654 1.524 . S
C2651 C2643 1.503 . S
C2651 C2650 1.370 . S
C2651 C2652 1.403 . S
C2652 C2651 1.403 . S
C2652 C2653 1.404 . S
C2652 C2655 1.539 . S
C2653 C2649 1.408 . S
C2653 C2652 1.404 . S
C2653 H2665 0.930 . S
C2654 C2650 1.524 . S
C2654 H2666 0.956 . S
C2654 H2667 0.961 . S
C2654 H2668 0.961 . S
C2655 C2652 1.539 . S
C2655 H2669 0.958 . S
C2655 H2670 0.961 . S
C2655 H2671 0.960 . S
H2656 C2640 0.931 . S
H2657 C2645 0.929 . S
H2658 C2646 0.960 . S
H2659 C2646 0.962 . S
H2660 C2646 0.960 . S
H2661 C2647 0.961 . S
H2662 C2647 0.961 . S
H2663 C2647 0.961 . S
H2664 C2648 0.931 . S
H2665 C2653 0.930 . S
H2666 C2654 0.956 . S
H2667 C2654 0.961 . S
H2668 C2654 0.961 . S
H2669 C2655 0.958 . S
H2670 C2655 0.961 . S
H2671 C2655 0.960 . S
C2672 C2673 1.391 . S
C2672 C2674 1.394 . S
C2672 H2688 0.931 . S
C2673 C2672 1.391 . S
C2673 C2677 1.376 . S
C2674 C2672 1.394 . S
C2674 C2675 1.369 . S
C2674 C2678 1.531 . S
C2675 C2674 1.369 . S
C2675 C2676 1.410 . S
C2675 C2683 1.503 . S
C2676 C2675 1.410 . S
C2676 C2677 1.392 . S
C2676 C2679 1.511 . S
C2677 C2673 1.376 . S
C2677 C2676 1.392 . S
C2677 H2689 0.929 . S
C2678 C2674 1.531 . S
C2678 H2690 0.960 . S
C2678 H2691 0.962 . S
C2678 H2692 0.960 . S
C2679 C2676 1.511 . S
C2679 H2693 0.961 . S
C2679 H2694 0.961 . S
C2679 H2695 0.961 . S
C2680 C2681 1.370 . S
C2680 C2682 1.363 . S
C2680 H2696 0.931 . S
C2681 C2680 1.370 . S
C2681 C2685 1.408 . S
C2682 C2680 1.363 . S
C2682 C2683 1.370 . S
C2682 C2686 1.524 . S
C2683 C2675 1.503 . S
C2683 C2682 1.370 . S
C2683 C2684 1.403 . S
C2684 C2683 1.403 . S
C2684 C2685 1.404 . S
C2684 C2687 1.539 . S
C2685 C2681 1.408 . S
C2685 C2684 1.404 . S
C2685 H2697 0.930 . S
C2686 C2682 1.524 . S
C2686 H2698 0.956 . S
C2686 H2699 0.961 . S
C2686 H2700 0.961 . S
C2687 C2684 1.539 . S
C2687 H2701 0.958 . S
C2687 H2702 0.961 . S
C2687 H2703 0.960 . S
H2688 C2672 0.931 . S
H2689 C2677 0.929 . S
H2690 C2678 0.960 . S
H2691 C2678 0.962 . S
H2692 C2678 0.960 . S
H2693 C2679 0.961 . S
H2694 C2679 0.961 . S
H2695 C2679 0.961 . S
H2696 C2680 0.931 . S
H2697 C2685 0.930 . S
H2698 C2686 0.956 . S
H2699 C2686 0.961 . S
H2700 C2686 0.961 . S
H2701 C2687 0.958 . S
H2702 C2687 0.961 . S
H2703 C2687 0.960 . S
C2704 C2705 1.391 . S
C2704 C2706 1.394 . S
C2704 H2720 0.931 . S
C2705 C2704 1.391 . S
C2705 C2709 1.376 . S
C2706 C2704 1.394 . S
C2706 C2707 1.369 . S
C2706 C2710 1.531 . S
C2707 C2706 1.369 . S
C2707 C2708 1.410 . S
C2707 C2715 1.503 . S
C2708 C2707 1.410 . S
C2708 C2709 1.392 . S
C2708 C2711 1.511 . S
C2709 C2705 1.376 . S
C2709 C2708 1.392 . S
C2709 H2721 0.929 1_556 S
C2710 C2706 1.531 . S
C2710 H2722 0.960 . S
C2710 H2723 0.962 . S
C2710 H2724 0.960 . S
C2711 C2708 1.511 . S
C2711 H2725 0.961 . S
C2711 H2726 0.961 . S
C2711 H2727 0.961 . S
C2712 C2713 1.370 . S
C2712 C2714 1.363 . S
C2712 H2728 0.931 . S
C2713 C2712 1.370 . S
C2713 C2717 1.408 . S
C2714 C2712 1.363 . S
C2714 C2715 1.370 . S
C2714 C2718 1.524 . S
C2715 C2707 1.503 . S
C2715 C2714 1.370 . S
C2715 C2716 1.403 . S
C2716 C2715 1.403 . S
C2716 C2717 1.404 . S
C2716 C2719 1.539 . S
C2717 C2713 1.408 . S
C2717 C2716 1.404 . S
C2717 H2729 0.930 . S
C2718 C2714 1.524 . S
C2718 H2730 0.956 . S
C2718 H2731 0.961 . S
C2718 H2732 0.961 . S
C2719 C2716 1.539 . S
C2719 H2733 0.958 . S
C2719 H2734 0.961 . S
C2719 H2735 0.960 . S
H2720 C2704 0.931 . S
H2721 C2709 0.929 1_554 S
H2722 C2710 0.960 . S
H2723 C2710 0.962 . S
H2724 C2710 0.960 . S
H2725 C2711 0.961 . S
H2726 C2711 0.961 . S
H2727 C2711 0.961 . S
H2728 C2712 0.931 . S
H2729 C2717 0.930 . S
H2730 C2718 0.956 . S
H2731 C2718 0.961 . S
H2732 C2718 0.961 . S
H2733 C2719 0.958 . S
H2734 C2719 0.961 . S
H2735 C2719 0.960 . S
C2736 C2737 1.391 . S
C2736 C2738 1.394 . S
C2736 H2752 0.931 . S
C2737 C2736 1.391 . S
C2737 C2741 1.376 . S
C2738 C2736 1.394 . S
C2738 C2739 1.369 . S
C2738 C2742 1.531 . S
C2739 C2738 1.369 . S
C2739 C2740 1.410 . S
C2739 C2747 1.503 . S
C2740 C2739 1.410 . S
C2740 C2741 1.392 . S
C2740 C2743 1.511 . S
C2741 C2737 1.376 . S
C2741 C2740 1.392 . S
C2741 H2753 0.929 . S
C2742 C2738 1.531 . S
C2742 H2754 0.960 . S
C2742 H2755 0.962 . S
C2742 H2756 0.960 . S
C2743 C2740 1.511 . S
C2743 H2757 0.961 . S
C2743 H2758 0.961 . S
C2743 H2759 0.961 . S
C2744 C2745 1.370 . S
C2744 C2746 1.363 1_455 S
C2744 H2760 0.931 . S
C2745 C2744 1.370 . S
C2745 C2749 1.408 1_455 S
C2746 C2744 1.363 1_655 S
C2746 C2747 1.370 . S
C2746 C2750 1.524 1_655 S
C2747 C2739 1.503 . S
C2747 C2746 1.370 . S
C2747 C2748 1.403 . S
C2748 C2747 1.403 . S
C2748 C2749 1.404 . S
C2748 C2751 1.539 . S
C2749 C2745 1.408 1_655 S
C2749 C2748 1.404 . S
C2749 H2761 0.930 . S
C2750 C2746 1.524 1_455 S
C2750 H2762 0.956 . S
C2750 H2763 0.956 1_455 S
C2750 H2764 0.961 . S
C2751 C2748 1.539 . S
C2751 H2765 0.958 . S
C2751 H2766 0.961 . S
C2751 H2767 0.960 . S
H2752 C2736 0.931 . S
H2753 C2741 0.929 . S
H2754 C2742 0.960 . S
H2755 C2742 0.962 . S
H2756 C2742 0.960 . S
H2757 C2743 0.961 . S
H2758 C2743 0.961 . S
H2759 C2743 0.961 . S
H2760 C2744 0.931 . S
H2761 C2749 0.930 . S
H2762 C2750 0.956 . S
H2763 C2750 0.956 1_655 S
H2764 C2750 0.961 . S
H2765 C2751 0.958 . S
H2766 C2751 0.961 . S
H2767 C2751 0.960 . S
C2768 C2769 1.391 . S
C2768 C2770 1.394 . S
C2768 H2784 0.931 . S
C2769 C2768 1.391 . S
C2769 C2773 1.376 . S
C2770 C2768 1.394 . S
C2770 C2771 1.369 . S
C2770 C2774 1.531 . S
C2771 C2770 1.369 . S
C2771 C2772 1.410 . S
C2771 C2779 1.503 . S
C2772 C2771 1.410 . S
C2772 C2773 1.392 . S
C2772 C2775 1.511 . S
C2773 C2769 1.376 . S
C2773 C2772 1.392 . S
C2773 H2785 0.929 . S
C2774 C2770 1.531 . S
C2774 H2786 0.960 . S
C2774 H2787 0.962 . S
C2774 H2788 0.960 . S
C2775 C2772 1.511 . S
C2775 H2789 0.961 . S
C2775 H2790 0.961 . S
C2775 H2791 0.961 . S
C2776 C2777 1.370 . S
C2776 C2778 1.363 . S
C2776 H2792 0.931 . S
C2777 C2776 1.370 . S
C2777 C2781 1.408 . S
C2778 C2776 1.363 . S
C2778 C2779 1.370 . S
C2778 C2782 1.524 . S
C2779 C2771 1.503 . S
C2779 C2778 1.370 . S
C2779 C2780 1.403 . S
C2780 C2779 1.403 . S
C2780 C2781 1.404 . S
C2780 C2783 1.539 . S
C2781 C2777 1.408 . S
C2781 C2780 1.404 . S
C2781 H2793 0.930 . S
C2782 C2778 1.524 . S
C2782 H2794 0.956 . S
C2782 H2795 0.961 . S
C2782 H2796 0.961 . S
C2783 C2780 1.539 . S
C2783 H2797 0.958 . S
C2783 H2798 0.961 . S
C2783 H2799 0.960 . S
H2784 C2768 0.931 . S
H2785 C2773 0.929 . S
H2786 C2774 0.960 . S
H2787 C2774 0.962 . S
H2788 C2774 0.960 . S
H2789 C2775 0.961 . S
H2790 C2775 0.961 . S
H2791 C2775 0.961 . S
H2792 C2776 0.931 . S
H2793 C2781 0.930 . S
H2794 C2782 0.956 . S
H2795 C2782 0.961 . S
H2796 C2782 0.961 . S
H2797 C2783 0.958 . S
H2798 C2783 0.961 . S
H2799 C2783 0.960 . S
C2800 C2801 1.391 . S
C2800 C2802 1.394 . S
C2800 H2816 0.931 . S
C2801 C2800 1.391 . S
C2801 C2805 1.376 . S
C2802 C2800 1.394 . S
C2802 C2803 1.369 . S
C2802 C2806 1.531 . S
C2803 C2802 1.369 . S
C2803 C2804 1.410 . S
C2803 C2811 1.503 . S
C2804 C2803 1.410 . S
C2804 C2805 1.392 . S
C2804 C2807 1.511 . S
C2805 C2801 1.376 . S
C2805 C2804 1.392 . S
C2805 H2817 0.929 . S
C2806 C2802 1.531 . S
C2806 H2818 0.960 . S
C2806 H2819 0.962 . S
C2806 H2820 0.960 . S
C2807 C2804 1.511 . S
C2807 H2821 0.961 . S
C2807 H2822 0.961 . S
C2807 H2823 0.961 . S
C2808 C2809 1.370 . S
C2808 C2810 1.363 . S
C2808 H2824 0.931 . S
C2809 C2808 1.370 . S
C2809 C2813 1.408 . S
C2810 C2808 1.363 . S
C2810 C2811 1.370 . S
C2810 C2814 1.524 . S
C2811 C2803 1.503 . S
C2811 C2810 1.370 . S
C2811 C2812 1.403 . S
C2812 C2811 1.403 . S
C2812 C2813 1.404 . S
C2812 C2815 1.539 . S
C2813 C2809 1.408 . S
C2813 C2812 1.404 . S
C2813 H2825 0.930 . S
C2814 C2810 1.524 . S
C2814 H2826 0.956 . S
C2814 H2827 0.961 . S
C2814 H2828 0.961 . S
C2815 C2812 1.539 . S
C2815 H2829 0.958 . S
C2815 H2830 0.961 . S
C2815 H2831 0.960 . S
H2816 C2800 0.931 . S
H2817 C2805 0.929 . S
H2818 C2806 0.960 . S
H2819 C2806 0.962 . S
H2820 C2806 0.960 . S
H2821 C2807 0.961 . S
H2822 C2807 0.961 . S
H2823 C2807 0.961 . S
H2824 C2808 0.931 . S
H2825 C2813 0.930 . S
H2826 C2814 0.956 . S
H2827 C2814 0.961 . S
H2828 C2814 0.961 . S
H2829 C2815 0.958 . S
H2830 C2815 0.961 . S
H2831 C2815 0.960 . S
C2832 C2833 1.391 . S
C2832 C2834 1.394 . S
C2832 H2848 0.931 . S
C2833 C2832 1.391 . S
C2833 C2837 1.376 . S
C2834 C2832 1.394 . S
C2834 C2835 1.369 . S
C2834 C2838 1.531 . S
C2835 C2834 1.369 . S
C2835 C2836 1.410 . S
C2835 C2843 1.503 . S
C2836 C2835 1.410 . S
C2836 C2837 1.392 . S
C2836 C2839 1.511 . S
C2837 C2833 1.376 . S
C2837 C2836 1.392 . S
C2837 H2849 0.929 . S
C2838 C2834 1.531 . S
C2838 H2850 0.960 . S
C2838 H2851 0.962 . S
C2838 H2852 0.960 . S
C2839 C2836 1.511 . S
C2839 H2853 0.961 . S
C2839 H2854 0.961 . S
C2839 H2855 0.961 . S
C2840 C2841 1.370 . S
C2840 C2842 1.363 . S
C2840 H2856 0.931 . S
C2841 C2840 1.370 . S
C2841 C2845 1.408 . S
C2842 C2840 1.363 . S
C2842 C2843 1.370 . S
C2842 C2846 1.524 . S
C2843 C2835 1.503 . S
C2843 C2842 1.370 . S
C2843 C2844 1.403 . S
C2844 C2843 1.403 . S
C2844 C2845 1.404 . S
C2844 C2847 1.539 . S
C2845 C2841 1.408 . S
C2845 C2844 1.404 . S
C2845 H2857 0.930 . S
C2846 C2842 1.524 . S
C2846 H2858 0.956 . S
C2846 H2859 0.961 . S
C2846 H2860 0.961 . S
C2847 C2844 1.539 . S
C2847 H2861 0.958 . S
C2847 H2862 0.961 . S
C2847 H2863 0.960 . S
H2848 C2832 0.931 . S
H2849 C2837 0.929 . S
H2850 C2838 0.960 . S
H2851 C2838 0.962 . S
H2852 C2838 0.960 . S
H2853 C2839 0.961 . S
H2854 C2839 0.961 . S
H2855 C2839 0.961 . S
H2856 C2840 0.931 . S
H2857 C2845 0.930 . S
H2858 C2846 0.956 . S
H2859 C2846 0.961 . S
H2860 C2846 0.961 . S
H2861 C2847 0.958 . S
H2862 C2847 0.961 . S
H2863 C2847 0.960 . S
C2864 C2865 1.391 . S
C2864 C2866 1.394 . S
C2864 H2880 0.931 . S
C2865 C2864 1.391 . S
C2865 C2869 1.376 . S
C2866 C2864 1.394 . S
C2866 C2867 1.369 . S
C2866 C2870 1.531 . S
C2867 C2866 1.369 . S
C2867 C2868 1.410 . S
C2867 C2875 1.503 . S
C2868 C2867 1.410 . S
C2868 C2869 1.392 . S
C2868 C2871 1.511 . S
C2869 C2865 1.376 . S
C2869 C2868 1.392 . S
C2869 H2881 0.929 . S
C2870 C2866 1.531 . S
C2870 H2882 0.960 . S
C2870 H2883 0.962 . S
C2870 H2884 0.960 . S
C2871 C2868 1.511 . S
C2871 H2885 0.961 . S
C2871 H2886 0.961 . S
C2871 H2887 0.961 . S
C2872 C2873 1.370 . S
C2872 C2874 1.363 . S
C2872 H2888 0.931 . S
C2873 C2872 1.370 . S
C2873 C2877 1.408 . S
C2874 C2872 1.363 . S
C2874 C2875 1.370 . S
C2874 C2878 1.524 . S
C2875 C2867 1.503 . S
C2875 C2874 1.370 . S
C2875 C2876 1.403 . S
C2876 C2875 1.403 . S
C2876 C2877 1.404 . S
C2876 C2879 1.539 . S
C2877 C2873 1.408 . S
C2877 C2876 1.404 . S
C2877 H2889 0.930 . S
C2878 C2874 1.524 . S
C2878 H2890 0.956 . S
C2878 H2891 0.961 . S
C2878 H2892 0.961 . S
C2879 C2876 1.539 . S
C2879 H2893 0.958 . S
C2879 H2894 0.961 . S
C2879 H2895 0.960 . S
H2880 C2864 0.931 . S
H2881 C2869 0.929 . S
H2882 C2870 0.960 . S
H2883 C2870 0.962 . S
H2884 C2870 0.960 . S
H2885 C2871 0.961 . S
H2886 C2871 0.961 . S
H2887 C2871 0.961 . S
H2888 C2872 0.931 . S
H2889 C2877 0.930 . S
H2890 C2878 0.956 . S
H2891 C2878 0.961 . S
H2892 C2878 0.961 . S
H2893 C2879 0.958 . S
H2894 C2879 0.961 . S
H2895 C2879 0.960 . S
C2896 C2897 1.391 . S
C2896 C2898 1.394 . S
C2896 H2912 0.931 . S
C2897 C2896 1.391 . S
C2897 C2901 1.376 . S
C2898 C2896 1.394 . S
C2898 C2899 1.369 . S
C2898 C2902 1.531 . S
C2899 C2898 1.369 . S
C2899 C2900 1.410 . S
C2899 C2907 1.503 . S
C2900 C2899 1.410 . S
C2900 C2901 1.392 . S
C2900 C2903 1.511 . S
C2901 C2897 1.376 . S
C2901 C2900 1.392 . S
C2901 H2913 0.929 . S
C2902 C2898 1.531 . S
C2902 H2914 0.960 . S
C2902 H2915 0.962 . S
C2902 H2916 0.960 . S
C2903 C2900 1.511 . S
C2903 H2917 0.961 . S
C2903 H2918 0.961 . S
C2903 H2919 0.961 . S
C2904 C2905 1.370 . S
C2904 C2906 1.363 . S
C2904 H2920 0.931 . S
C2905 C2904 1.370 . S
C2905 C2909 1.408 . S
C2906 C2904 1.363 . S
C2906 C2907 1.370 . S
C2906 C2910 1.524 . S
C2907 C2899 1.503 . S
C2907 C2906 1.370 . S
C2907 C2908 1.403 . S
C2908 C2907 1.403 . S
C2908 C2909 1.404 . S
C2908 C2911 1.539 . S
C2909 C2905 1.408 . S
C2909 C2908 1.404 . S
C2909 H2921 0.930 . S
C2910 C2906 1.524 . S
C2910 H2922 0.956 . S
C2910 H2923 0.961 . S
C2910 H2924 0.961 . S
C2911 C2908 1.539 . S
C2911 H2925 0.958 . S
C2911 H2926 0.961 . S
C2911 H2927 0.960 . S
H2912 C2896 0.931 . S
H2913 C2901 0.929 . S
H2914 C2902 0.960 . S
H2915 C2902 0.962 . S
H2916 C2902 0.960 . S
H2917 C2903 0.961 . S
H2918 C2903 0.961 . S
H2919 C2903 0.961 . S
H2920 C2904 0.931 . S
H2921 C2909 0.930 . S
H2922 C2910 0.956 . S
H2923 C2910 0.961 . S
H2924 C2910 0.961 . S
H2925 C2911 0.958 . S
H2926 C2911 0.961 . S
H2927 C2911 0.960 . S
C2928 C2929 1.391 . S
C2928 C2930 1.394 . S
C2928 H2944 0.931 . S
C2929 C2928 1.391 . S
C2929 C2933 1.376 . S
C2930 C2928 1.394 . S
C2930 C2931 1.369 . S
C2930 C2934 1.531 . S
C2931 C2930 1.369 . S
C2931 C2932 1.410 . S
C2931 C2939 1.503 . S
C2932 C2931 1.410 . S
C2932 C2933 1.392 . S
C2932 C2935 1.511 . S
C2933 C2929 1.376 . S
C2933 C2932 1.392 . S
C2933 H2945 0.929 . S
C2934 C2930 1.531 . S
C2934 H2946 0.960 . S
C2934 H2947 0.962 . S
C2934 H2948 0.960 . S
C2935 C2932 1.511 . S
C2935 H2949 0.961 . S
C2935 H2950 0.961 . S
C2935 H2951 0.961 . S
C2936 C2937 1.370 . S
C2936 C2938 1.363 . S
C2936 H2952 0.931 . S
C2937 C2936 1.370 . S
C2937 C2941 1.408 . S
C2938 C2936 1.363 . S
C2938 C2939 1.370 . S
C2938 C2942 1.524 . S
C2939 C2931 1.503 . S
C2939 C2938 1.370 . S
C2939 C2940 1.403 . S
C2940 C2939 1.403 . S
C2940 C2941 1.404 . S
C2940 C2943 1.539 . S
C2941 C2937 1.408 . S
C2941 C2940 1.404 . S
C2941 H2953 0.930 . S
C2942 C2938 1.524 . S
C2942 H2954 0.956 . S
C2942 H2955 0.961 . S
C2942 H2956 0.961 . S
C2943 C2940 1.539 . S
C2943 H2957 0.958 . S
C2943 H2958 0.961 . S
C2943 H2959 0.960 . S
H2944 C2928 0.931 . S
H2945 C2933 0.929 . S
H2946 C2934 0.960 . S
H2947 C2934 0.962 . S
H2948 C2934 0.960 . S
H2949 C2935 0.961 . S
H2950 C2935 0.961 . S
H2951 C2935 0.961 . S
H2952 C2936 0.931 . S
H2953 C2941 0.930 . S
H2954 C2942 0.956 . S
H2955 C2942 0.961 . S
H2956 C2942 0.961 . S
H2957 C2943 0.958 . S
H2958 C2943 0.961 . S
H2959 C2943 0.960 . S
C2960 C2961 1.391 . S
C2960 C2962 1.394 . S
C2960 H2976 0.931 . S
C2961 C2960 1.391 . S
C2961 C2965 1.376 . S
C2962 C2960 1.394 . S
C2962 C2963 1.369 . S
C2962 C2966 1.531 . S
C2963 C2962 1.369 . S
C2963 C2964 1.410 . S
C2963 C2971 1.503 . S
C2964 C2963 1.410 . S
C2964 C2965 1.392 . S
C2964 C2967 1.511 . S
C2965 C2961 1.376 . S
C2965 C2964 1.392 . S
C2965 H2977 0.929 . S
C2966 C2962 1.531 . S
C2966 H2978 0.960 . S
C2966 H2979 0.962 . S
C2966 H2980 0.960 . S
C2967 C2964 1.511 . S
C2967 H2981 0.961 1_565 S
C2967 H2982 0.949 1_565 S
C2967 H2983 0.961 . S
C2968 C2969 1.370 . S
C2968 C2970 1.363 . S
C2968 H2984 0.931 . S
C2969 C2968 1.370 . S
C2969 C2973 1.408 . S
C2970 C2968 1.363 . S
C2970 C2971 1.370 . S
C2970 C2974 1.524 . S
C2971 C2963 1.503 . S
C2971 C2970 1.370 . S
C2971 C2972 1.403 . S
C2972 C2971 1.403 . S
C2972 C2973 1.404 . S
C2972 C2975 1.539 . S
C2973 C2969 1.408 . S
C2973 C2972 1.404 . S
C2973 H2985 0.930 . S
C2974 C2970 1.524 . S
C2974 H2986 0.956 . S
C2974 H2987 0.961 . S
C2974 H2988 0.961 . S
C2975 C2972 1.539 . S
C2975 H2989 0.958 . S
C2975 H2990 0.961 . S
C2975 H2991 0.960 . S
H2976 C2960 0.931 . S
H2977 C2965 0.929 . S
H2978 C2966 0.960 . S
H2979 C2966 0.962 . S
H2980 C2966 0.960 . S
H2981 C2967 0.961 1_545 S
H2982 C2967 0.949 1_545 S
H2983 C2967 0.961 . S
H2984 C2968 0.931 . S
H2985 C2973 0.930 . S
H2986 C2974 0.956 . S
H2987 C2974 0.961 . S
H2988 C2974 0.961 . S
H2989 C2975 0.958 . S
H2990 C2975 0.961 . S
H2991 C2975 0.960 . S
C2992 C2993 1.391 . S
C2992 C2994 1.394 . S
C2992 H3008 0.931 . S
C2993 C2992 1.391 . S
C2993 C2997 1.376 . S
C2994 C2992 1.394 . S
C2994 C2995 1.369 . S
C2994 C2998 1.531 . S
C2995 C2994 1.369 . S
C2995 C2996 1.410 . S
C2995 C3003 1.503 . S
C2996 C2995 1.410 . S
C2996 C2997 1.392 . S
C2996 C2999 1.511 . S
C2997 C2993 1.376 . S
C2997 C2996 1.392 . S
C2997 H3009 0.929 . S
C2998 C2994 1.531 . S
C2998 H3010 0.960 . S
C2998 H3011 0.962 . S
C2998 H3012 0.960 . S
C2999 C2996 1.511 . S
C2999 H3013 0.961 . S
C2999 H3014 0.961 . S
C2999 H3015 0.961 . S
C3000 C3001 1.370 . S
C3000 C3002 1.363 . S
C3000 H3016 0.931 . S
C3001 C3000 1.370 . S
C3001 C3005 1.408 . S
C3002 C3000 1.363 . S
C3002 C3003 1.370 . S
C3002 C3006 1.524 . S
C3003 C2995 1.503 . S
C3003 C3002 1.370 . S
C3003 C3004 1.403 . S
C3004 C3003 1.403 . S
C3004 C3005 1.404 . S
C3004 C3007 1.539 . S
C3005 C3001 1.408 . S
C3005 C3004 1.404 . S
C3005 H3017 0.930 . S
C3006 C3002 1.524 . S
C3006 H3018 0.956 . S
C3006 H3019 0.961 . S
C3006 H3020 0.961 . S
C3007 C3004 1.539 . S
C3007 H3021 0.958 . S
C3007 H3022 0.961 . S
C3007 H3023 0.960 . S
H3008 C2992 0.931 . S
H3009 C2997 0.929 . S
H3010 C2998 0.960 . S
H3011 C2998 0.962 . S
H3012 C2998 0.960 . S
H3013 C2999 0.961 . S
H3014 C2999 0.961 . S
H3015 C2999 0.961 . S
H3016 C3000 0.931 . S
H3017 C3005 0.930 . S
H3018 C3006 0.956 . S
H3019 C3006 0.961 . S
H3020 C3006 0.961 . S
H3021 C3007 0.958 . S
H3022 C3007 0.961 . S
H3023 C3007 0.960 . S
C3024 C3025 1.391 . S
C3024 C3026 1.394 . S
C3024 H3040 0.931 . S
C3025 C3024 1.391 . S
C3025 C3029 1.376 . S
C3026 C3024 1.394 . S
C3026 C3027 1.369 . S
C3026 C3030 1.531 . S
C3027 C3026 1.369 . S
C3027 C3028 1.410 . S
C3027 C3035 1.503 . S
C3028 C3027 1.410 . S
C3028 C3029 1.392 . S
C3028 C3031 1.511 . S
C3029 C3025 1.376 . S
C3029 C3028 1.392 . S
C3029 H3041 0.929 . S
C3030 C3026 1.531 . S
C3030 H3042 0.960 . S
C3030 H3043 0.962 . S
C3030 H3044 0.960 . S
C3031 C3028 1.511 . S
C3031 H3045 0.961 . S
C3031 H3046 0.961 . S
C3031 H3047 0.961 . S
C3032 C3033 1.370 . S
C3032 C3034 1.363 . S
C3032 H3048 0.931 . S
C3033 C3032 1.370 . S
C3033 C3037 1.408 . S
C3034 C3032 1.363 . S
C3034 C3035 1.370 . S
C3034 C3038 1.565 . S
C3035 C3027 1.503 . S
C3035 C3034 1.370 . S
C3035 C3036 1.403 . S
C3036 C3035 1.403 . S
C3036 C3037 1.404 . S
C3036 C3039 1.539 . S
C3037 C3033 1.408 . S
C3037 C3036 1.404 . S
C3037 H3049 0.930 . S
C3038 C3034 1.565 . S
C3038 H3050 0.974 . S
C3038 H3051 0.942 1_554 S
C3038 H3052 0.925 1_554 S
C3039 C3036 1.539 . S
C3039 H3053 0.958 . S
C3039 H3054 0.961 . S
C3039 H3055 0.960 . S
H3040 C3024 0.931 . S
H3041 C3029 0.929 . S
H3042 C3030 0.960 . S
H3043 C3030 0.962 . S
H3044 C3030 0.960 . S
H3045 C3031 0.961 . S
H3046 C3031 0.961 . S
H3047 C3031 0.961 . S
H3048 C3032 0.931 . S
H3049 C3037 0.930 . S
H3050 C3038 0.974 . S
H3051 C3038 0.942 1_556 S
H3052 C3038 0.925 1_556 S
H3053 C3039 0.958 . S
H3054 C3039 0.961 . S
H3055 C3039 0.960 . S
C3056 C3057 1.391 . S
C3056 C3058 1.394 . S
C3056 H3072 0.931 . S
C3057 C3056 1.391 . S
C3057 C3061 1.376 . S
C3058 C3056 1.394 . S
C3058 C3059 1.369 . S
C3058 C3062 1.531 . S
C3059 C3058 1.369 . S
C3059 C3060 1.410 . S
C3059 C3067 1.503 . S
C3060 C3059 1.410 . S
C3060 C3061 1.392 . S
C3060 C3063 1.511 . S
C3061 C3057 1.376 . S
C3061 C3060 1.392 . S
C3061 H3073 0.929 . S
C3062 C3058 1.531 . S
C3062 H3074 0.960 . S
C3062 H3075 0.962 . S
C3062 H3076 0.960 . S
C3063 C3060 1.511 . S
C3063 H3077 0.961 . S
C3063 H3078 0.961 . S
C3063 H3079 0.961 . S
C3064 C3065 1.370 . S
C3064 C3066 1.363 . S
C3064 H3080 0.931 . S
C3065 C3064 1.370 . S
C3065 C3069 1.408 . S
C3066 C3064 1.363 . S
C3066 C3067 1.370 . S
C3066 C3070 1.524 . S
C3067 C3059 1.503 . S
C3067 C3066 1.370 . S
C3067 C3068 1.403 . S
C3068 C3067 1.403 . S
C3068 C3069 1.404 . S
C3068 C3071 1.539 . S
C3069 C3065 1.408 . S
C3069 C3068 1.404 . S
C3069 H3081 0.930 . S
C3070 C3066 1.524 . S
C3070 H3082 0.956 . S
C3070 H3083 0.961 . S
C3070 H3084 0.961 . S
C3071 C3068 1.539 . S
C3071 H3085 0.958 . S
C3071 H3086 0.961 . S
C3071 H3087 0.960 . S
H3072 C3056 0.931 . S
H3073 C3061 0.929 . S
H3074 C3062 0.960 . S
H3075 C3062 0.962 . S
H3076 C3062 0.960 . S
H3077 C3063 0.961 . S
H3078 C3063 0.961 . S
H3079 C3063 0.961 . S
H3080 C3064 0.931 . S
H3081 C3069 0.930 . S
H3082 C3070 0.956 . S
H3083 C3070 0.961 . S
H3084 C3070 0.961 . S
H3085 C3071 0.958 . S
H3086 C3071 0.961 . S
H3087 C3071 0.960 . S
C3088 C3089 1.391 . S
C3088 C3090 1.394 . S
C3088 H3104 0.931 . S
C3089 C3088 1.391 . S
C3089 C3093 1.376 . S
C3090 C3088 1.394 . S
C3090 C3091 1.369 . S
C3090 C3094 1.531 . S
C3091 C3090 1.369 . S
C3091 C3092 1.410 . S
C3091 C3099 1.503 . S
C3092 C3091 1.410 . S
C3092 C3093 1.392 . S
C3092 C3095 1.511 . S
C3093 C3089 1.376 . S
C3093 C3092 1.392 . S
C3093 H3105 0.929 . S
C3094 C3090 1.531 . S
C3094 H3106 0.960 . S
C3094 H3107 0.962 . S
C3094 H3108 0.960 . S
C3095 C3092 1.511 . S
C3095 H3109 0.961 . S
C3095 H3110 0.961 . S
C3095 H3111 0.961 . S
C3096 C3097 1.370 . S
C3096 C3098 1.363 . S
C3096 H3112 0.931 1_554 S
C3097 C3096 1.370 . S
C3097 C3101 1.408 . S
C3098 C3096 1.363 . S
C3098 C3099 1.370 . S
C3098 C3102 1.524 1_554 S
C3099 C3091 1.503 . S
C3099 C3098 1.370 . S
C3099 C3100 1.403 . S
C3100 C3099 1.403 . S
C3100 C3101 1.404 . S
C3100 C3103 1.539 . S
C3101 C3097 1.408 . S
C3101 C3100 1.404 . S
C3101 H3113 0.930 . S
C3102 C3098 1.524 1_556 S
C3102 H3114 0.956 . S
C3102 H3115 0.961 . S
C3102 H3116 0.961 . S
C3103 C3100 1.539 . S
C3103 H3117 0.958 . S
C3103 H3118 0.961 . S
C3103 H3119 0.960 . S
H3104 C3088 0.931 . S
H3105 C3093 0.929 . S
H3106 C3094 0.960 . S
H3107 C3094 0.962 . S
H3108 C3094 0.960 . S
H3109 C3095 0.961 . S
H3110 C3095 0.961 . S
H3111 C3095 0.961 . S
H3112 C3096 0.931 1_556 S
H3113 C3101 0.930 . S
H3114 C3102 0.956 . S
H3115 C3102 0.961 . S
H3116 C3102 0.961 . S
H3117 C3103 0.958 . S
H3118 C3103 0.961 . S
H3119 C3103 0.960 . S
C3120 C3121 1.391 . S
C3120 C3122 1.394 . S
C3120 H3136 0.931 . S
C3121 C3120 1.391 . S
C3121 C3125 1.376 . S
C3122 C3120 1.394 . S
C3122 C3123 1.369 . S
C3122 C3126 1.531 . S
C3123 C3122 1.369 . S
C3123 C3124 1.410 . S
C3123 C3131 1.503 . S
C3124 C3123 1.410 . S
C3124 C3125 1.392 . S
C3124 C3127 1.511 . S
C3125 C3121 1.376 . S
C3125 C3124 1.392 . S
C3125 H3137 0.929 . S
C3126 C3122 1.531 . S
C3126 H3138 0.960 . S
C3126 H3139 0.962 . S
C3126 H3140 0.960 . S
C3127 C3124 1.511 . S
C3127 H3141 0.961 . S
C3127 H3142 0.961 . S
C3127 H3143 0.961 . S
C3128 C3129 1.370 . S
C3128 C3130 1.363 . S
C3128 H3144 0.931 . S
C3129 C3128 1.370 . S
C3129 C3133 1.408 . S
C3130 C3128 1.363 . S
C3130 C3131 1.370 . S
C3130 C3134 1.524 . S
C3131 C3123 1.503 . S
C3131 C3130 1.370 . S
C3131 C3132 1.403 . S
C3132 C3131 1.403 . S
C3132 C3133 1.404 . S
C3132 C3135 1.539 . S
C3133 C3129 1.408 . S
C3133 C3132 1.404 . S
C3133 H3145 0.930 . S
C3134 C3130 1.524 . S
C3134 H3146 0.956 . S
C3134 H3147 0.961 . S
C3134 H3148 0.961 . S
C3135 C3132 1.539 . S
C3135 H3149 0.958 . S
C3135 H3150 0.961 . S
C3135 H3151 0.960 . S
H3136 C3120 0.931 . S
H3137 C3125 0.929 . S
H3138 C3126 0.960 . S
H3139 C3126 0.962 . S
H3140 C3126 0.960 . S
H3141 C3127 0.961 . S
H3142 C3127 0.961 . S
H3143 C3127 0.961 . S
H3144 C3128 0.931 . S
H3145 C3133 0.930 . S
H3146 C3134 0.956 . S
H3147 C3134 0.961 . S
H3148 C3134 0.961 . S
H3149 C3135 0.958 . S
H3150 C3135 0.961 . S
H3151 C3135 0.960 . S
C3152 C3153 1.391 . S
C3152 C3154 1.394 . S
C3152 H3168 0.931 . S
C3153 C3152 1.391 . S
C3153 C3157 1.376 . S
C3154 C3152 1.394 . S
C3154 C3155 1.369 . S
C3154 C3158 1.531 . S
C3155 C3154 1.369 . S
C3155 C3156 1.410 . S
C3155 C3163 1.503 . S
C3156 C3155 1.410 . S
C3156 C3157 1.392 . S
C3156 C3159 1.511 . S
C3157 C3153 1.376 . S
C3157 C3156 1.392 . S
C3157 H3169 0.929 . S
C3158 C3154 1.531 . S
C3158 H3170 0.960 . S
C3158 H3171 0.962 . S
C3158 H3172 0.960 . S
C3159 C3156 1.511 . S
C3159 H3173 0.961 . S
C3159 H3174 0.961 . S
C3159 H3175 0.961 . S
C3160 C3161 1.370 . S
C3160 C3162 1.363 . S
C3160 H3176 0.931 . S
C3161 C3160 1.370 . S
C3161 C3165 1.408 . S
C3162 C3160 1.363 . S
C3162 C3163 1.370 . S
C3162 C3166 1.524 . S
C3163 C3155 1.503 . S
C3163 C3162 1.370 . S
C3163 C3164 1.403 . S
C3164 C3163 1.403 . S
C3164 C3165 1.404 . S
C3164 C3167 1.539 . S
C3165 C3161 1.408 . S
C3165 C3164 1.404 . S
C3165 H3177 0.930 . S
C3166 C3162 1.524 . S
C3166 H3178 0.956 . S
C3166 H3179 0.961 . S
C3166 H3180 0.961 . S
C3167 C3164 1.539 . S
C3167 H3181 0.958 . S
C3167 H3182 0.961 . S
C3167 H3183 0.960 . S
H3168 C3152 0.931 . S
H3169 C3157 0.929 . S
H3170 C3158 0.960 . S
H3171 C3158 0.962 . S
H3172 C3158 0.960 . S
H3173 C3159 0.961 . S
H3174 C3159 0.961 . S
H3175 C3159 0.961 . S
H3176 C3160 0.931 . S
H3177 C3165 0.930 . S
H3178 C3166 0.956 . S
H3179 C3166 0.961 . S
H3180 C3166 0.961 . S
H3181 C3167 0.958 . S
H3182 C3167 0.961 . S
H3183 C3167 0.960 . S
C3184 C3185 1.391 . S
C3184 C3186 1.394 . S
C3184 H3200 0.931 . S
C3185 C3184 1.391 . S
C3185 C3189 1.376 . S
C3186 C3184 1.394 . S
C3186 C3187 1.369 . S
C3186 C3190 1.531 . S
C3187 C3186 1.369 . S
C3187 C3188 1.410 . S
C3187 C3195 1.503 . S
C3188 C3187 1.410 . S
C3188 C3189 1.392 . S
C3188 C3191 1.511 . S
C3189 C3185 1.376 . S
C3189 C3188 1.392 . S
C3189 H3201 0.929 . S
C3190 C3186 1.531 . S
C3190 H3202 0.960 . S
C3190 H3203 0.962 . S
C3190 H3204 0.960 . S
C3191 C3188 1.511 . S
C3191 H3205 0.961 . S
C3191 H3206 0.961 . S
C3191 H3207 0.961 . S
C3192 C3193 1.370 . S
C3192 C3194 1.363 . S
C3192 H3208 0.931 . S
C3193 C3192 1.370 . S
C3193 C3197 1.408 . S
C3194 C3192 1.363 . S
C3194 C3195 1.370 . S
C3194 C3198 1.524 . S
C3195 C3187 1.503 . S
C3195 C3194 1.370 . S
C3195 C3196 1.403 . S
C3196 C3195 1.403 . S
C3196 C3197 1.404 . S
C3196 C3199 1.539 . S
C3197 C3193 1.408 . S
C3197 C3196 1.404 . S
C3197 H3209 0.930 . S
C3198 C3194 1.524 . S
C3198 H3210 0.956 . S
C3198 H3211 0.961 . S
C3198 H3212 0.961 . S
C3199 C3196 1.539 . S
C3199 H3213 0.958 . S
C3199 H3214 0.961 . S
C3199 H3215 0.960 . S
H3200 C3184 0.931 . S
H3201 C3189 0.929 . S
H3202 C3190 0.960 . S
H3203 C3190 0.962 . S
H3204 C3190 0.960 . S
H3205 C3191 0.961 . S
H3206 C3191 0.961 . S
H3207 C3191 0.961 . S
H3208 C3192 0.931 . S
H3209 C3197 0.930 . S
H3210 C3198 0.956 . S
H3211 C3198 0.961 . S
H3212 C3198 0.961 . S
H3213 C3199 0.958 . S
H3214 C3199 0.961 . S
H3215 C3199 0.960 . S
C3216 C3217 1.391 . S
C3216 C3218 1.394 . S
C3216 H3232 0.931 . S
C3217 C3216 1.391 . S
C3217 C3221 1.376 . S
C3218 C3216 1.394 . S
C3218 C3219 1.369 . S
C3218 C3222 1.531 . S
C3219 C3218 1.369 . S
C3219 C3220 1.410 . S
C3219 C3227 1.503 . S
C3220 C3219 1.410 . S
C3220 C3221 1.392 . S
C3220 C3223 1.511 . S
C3221 C3217 1.376 . S
C3221 C3220 1.392 . S
C3221 H3233 0.929 . S
C3222 C3218 1.531 . S
C3222 H3234 0.960 . S
C3222 H3235 0.962 . S
C3222 H3236 0.960 . S
C3223 C3220 1.511 . S
C3223 H3237 0.961 . S
C3223 H3238 0.961 . S
C3223 H3239 0.961 . S
C3224 C3225 1.370 . S
C3224 C3226 1.363 . S
C3224 H3240 0.931 . S
C3225 C3224 1.370 . S
C3225 C3229 1.408 . S
C3226 C3224 1.363 . S
C3226 C3227 1.370 . S
C3226 C3230 1.524 . S
C3227 C3219 1.503 . S
C3227 C3226 1.370 . S
C3227 C3228 1.403 . S
C3228 C3227 1.403 . S
C3228 C3229 1.404 . S
C3228 C3231 1.539 . S
C3229 C3225 1.408 . S
C3229 C3228 1.404 . S
C3229 H3241 0.930 . S
C3230 C3226 1.524 . S
C3230 H3242 0.956 . S
C3230 H3243 0.961 . S
C3230 H3244 0.961 . S
C3231 C3228 1.539 . S
C3231 H3245 0.958 . S
C3231 H3246 0.961 . S
C3231 H3247 0.960 . S
H3232 C3216 0.931 . S
H3233 C3221 0.929 . S
H3234 C3222 0.960 . S
H3235 C3222 0.962 . S
H3236 C3222 0.960 . S
H3237 C3223 0.961 . S
H3238 C3223 0.961 . S
H3239 C3223 0.961 . S
H3240 C3224 0.931 . S
H3241 C3229 0.930 . S
H3242 C3230 0.956 . S
H3243 C3230 0.961 . S
H3244 C3230 0.961 . S
H3245 C3231 0.958 . S
H3246 C3231 0.961 . S
H3247 C3231 0.960 . S
C3248 C3249 1.385 1_455 S
C3248 C3250 1.394 . S
C3248 H3264 0.931 . S
C3249 C3248 1.385 1_655 S
C3249 C3253 1.387 . S
C3250 C3248 1.394 . S
C3250 C3251 1.369 1_455 S
C3250 C3254 1.531 . S
C3251 C3250 1.369 1_655 S
C3251 C3252 1.410 . S
C3251 C3259 1.503 . S
C3252 C3251 1.410 . S
C3252 C3253 1.392 . S
C3252 C3255 1.511 . S
C3253 C3249 1.387 . S
C3253 C3252 1.392 . S
C3253 H3265 0.929 . S
C3254 C3250 1.531 . S
C3254 H3266 0.960 . S
C3254 H3267 0.962 . S
C3254 H3268 0.960 . S
C3255 C3252 1.511 . S
C3255 H3269 0.961 . S
C3255 H3270 0.961 . S
C3255 H3271 0.961 . S
C3256 C3257 1.370 1_455 S
C3256 C3258 1.363 . S
C3256 H3272 0.931 . S
C3257 C3256 1.370 1_655 S
C3257 C3261 1.408 . S
C3258 C3256 1.363 . S
C3258 C3259 1.370 1_455 S
C3258 C3262 1.524 . S
C3259 C3251 1.503 . S
C3259 C3258 1.370 1_655 S
C3259 C3260 1.403 . S
C3260 C3259 1.403 . S
C3260 C3261 1.404 . S
C3260 C3263 1.539 . S
C3261 C3257 1.408 . S
C3261 C3260 1.404 . S
C3261 H3273 0.930 . S
C3262 C3258 1.524 . S
C3262 H3274 0.956 . S
C3262 H3275 0.961 . S
C3262 H3276 0.961 . S
C3263 C3260 1.539 . S
C3263 H3277 0.958 . S
C3263 H3278 0.961 . S
C3263 H3279 0.960 . S
H3264 C3248 0.931 . S
H3265 C3253 0.929 . S
H3266 C3254 0.960 . S
H3267 C3254 0.962 . S
H3268 C3254 0.960 . S
H3269 C3255 0.961 . S
H3270 C3255 0.961 . S
H3271 C3255 0.961 . S
H3272 C3256 0.931 . S
H3273 C3261 0.930 . S
H3274 C3262 0.956 . S
H3275 C3262 0.961 . S
H3276 C3262 0.961 . S
H3277 C3263 0.958 . S
H3278 C3263 0.961 . S
H3279 C3263 0.960 . S
C3280 C3281 1.391 . S
C3280 C3282 1.394 . S
C3280 H3296 0.931 . S
C3281 C3280 1.391 . S
C3281 C3285 1.376 . S
C3282 C3280 1.394 . S
C3282 C3283 1.369 . S
C3282 C3286 1.531 . S
C3283 C3282 1.369 . S
C3283 C3284 1.410 . S
C3283 C3291 1.503 . S
C3284 C3283 1.410 . S
C3284 C3285 1.392 . S
C3284 C3287 1.511 . S
C3285 C3281 1.376 . S
C3285 C3284 1.392 . S
C3285 H3297 0.929 . S
C3286 C3282 1.531 . S
C3286 H3298 0.960 . S
C3286 H3299 0.962 . S
C3286 H3300 0.960 . S
C3287 C3284 1.511 . S
C3287 H3301 0.961 . S
C3287 H3302 0.961 . S
C3287 H3303 0.961 . S
C3288 C3289 1.370 . S
C3288 C3290 1.363 . S
C3288 H3304 0.931 . S
C3289 C3288 1.370 . S
C3289 C3293 1.408 . S
C3290 C3288 1.363 . S
C3290 C3291 1.370 . S
C3290 C3294 1.524 . S
C3291 C3283 1.503 . S
C3291 C3290 1.370 . S
C3291 C3292 1.403 . S
C3292 C3291 1.403 . S
C3292 C3293 1.404 . S
C3292 C3295 1.539 . S
C3293 C3289 1.408 . S
C3293 C3292 1.404 . S
C3293 H3305 0.930 . S
C3294 C3290 1.524 . S
C3294 H3306 0.956 . S
C3294 H3307 0.961 . S
C3294 H3308 0.961 . S
C3295 C3292 1.539 . S
C3295 H3309 0.958 . S
C3295 H3310 0.961 . S
C3295 H3311 0.960 . S
H3296 C3280 0.931 . S
H3297 C3285 0.929 . S
H3298 C3286 0.960 . S
H3299 C3286 0.962 . S
H3300 C3286 0.960 . S
H3301 C3287 0.961 . S
H3302 C3287 0.961 . S
H3303 C3287 0.961 . S
H3304 C3288 0.931 . S
H3305 C3293 0.930 . S
H3306 C3294 0.956 . S
H3307 C3294 0.961 . S
H3308 C3294 0.961 . S
H3309 C3295 0.958 . S
H3310 C3295 0.961 . S
H3311 C3295 0.960 . S
C3312 C3313 1.391 . S
C3312 C3314 1.394 . S
C3312 H3328 0.931 . S
C3313 C3312 1.391 . S
C3313 C3317 1.376 . S
C3314 C3312 1.394 . S
C3314 C3315 1.369 . S
C3314 C3318 1.531 . S
C3315 C3314 1.369 . S
C3315 C3316 1.410 . S
C3315 C3323 1.503 . S
C3316 C3315 1.410 . S
C3316 C3317 1.392 . S
C3316 C3319 1.511 . S
C3317 C3313 1.376 . S
C3317 C3316 1.392 . S
C3317 H3329 0.929 . S
C3318 C3314 1.531 . S
C3318 H3330 0.960 . S
C3318 H3331 0.962 . S
C3318 H3332 0.960 . S
C3319 C3316 1.511 . S
C3319 H3333 0.961 . S
C3319 H3334 0.961 . S
C3319 H3335 0.961 . S
C3320 C3321 1.370 . S
C3320 C3322 1.363 . S
C3320 H3336 0.931 . S
C3321 C3320 1.370 . S
C3321 C3325 1.408 . S
C3322 C3320 1.363 . S
C3322 C3323 1.370 . S
C3322 C3326 1.524 . S
C3323 C3315 1.503 . S
C3323 C3322 1.370 . S
C3323 C3324 1.403 . S
C3324 C3323 1.403 . S
C3324 C3325 1.404 . S
C3324 C3327 1.539 . S
C3325 C3321 1.408 . S
C3325 C3324 1.404 . S
C3325 H3337 0.930 . S
C3326 C3322 1.524 . S
C3326 H3338 0.956 . S
C3326 H3339 0.961 . S
C3326 H3340 0.961 . S
C3327 C3324 1.539 . S
C3327 H3341 0.958 . S
C3327 H3342 0.961 . S
C3327 H3343 0.960 . S
H3328 C3312 0.931 . S
H3329 C3317 0.929 . S
H3330 C3318 0.960 . S
H3331 C3318 0.962 . S
H3332 C3318 0.960 . S
H3333 C3319 0.961 . S
H3334 C3319 0.961 . S
H3335 C3319 0.961 . S
H3336 C3320 0.931 . S
H3337 C3325 0.930 . S
H3338 C3326 0.956 . S
H3339 C3326 0.961 . S
H3340 C3326 0.961 . S
H3341 C3327 0.958 . S
H3342 C3327 0.961 . S
H3343 C3327 0.960 . S
C3344 C3345 1.391 . S
C3344 C3346 1.394 . S
C3344 H3360 0.931 . S
C3345 C3344 1.391 . S
C3345 C3349 1.376 . S
C3346 C3344 1.394 . S
C3346 C3347 1.369 . S
C3346 C3350 1.531 . S
C3347 C3346 1.369 . S
C3347 C3348 1.410 . S
C3347 C3355 1.503 . S
C3348 C3347 1.410 . S
C3348 C3349 1.392 . S
C3348 C3351 1.511 . S
C3349 C3345 1.376 . S
C3349 C3348 1.392 . S
C3349 H3361 0.929 . S
C3350 C3346 1.531 . S
C3350 H3362 0.960 . S
C3350 H3363 0.962 . S
C3350 H3364 0.960 . S
C3351 C3348 1.511 . S
C3351 H3365 0.961 . S
C3351 H3366 0.961 . S
C3351 H3367 0.961 . S
C3352 C3353 1.370 . S
C3352 C3354 1.363 . S
C3352 H3368 0.931 . S
C3353 C3352 1.370 . S
C3353 C3357 1.408 . S
C3354 C3352 1.363 . S
C3354 C3355 1.370 . S
C3354 C3358 1.524 . S
C3355 C3347 1.503 . S
C3355 C3354 1.370 . S
C3355 C3356 1.403 . S
C3356 C3355 1.403 . S
C3356 C3357 1.404 . S
C3356 C3359 1.539 . S
C3357 C3353 1.408 . S
C3357 C3356 1.404 . S
C3357 H3369 0.930 . S
C3358 C3354 1.524 . S
C3358 H3370 0.956 . S
C3358 H3371 0.961 . S
C3358 H3372 0.961 . S
C3359 C3356 1.539 . S
C3359 H3373 0.958 . S
C3359 H3374 0.961 . S
C3359 H3375 0.960 . S
H3360 C3344 0.931 . S
H3361 C3349 0.929 . S
H3362 C3350 0.960 . S
H3363 C3350 0.962 . S
H3364 C3350 0.960 . S
H3365 C3351 0.961 . S
H3366 C3351 0.961 . S
H3367 C3351 0.961 . S
H3368 C3352 0.931 . S
H3369 C3357 0.930 . S
H3370 C3358 0.956 . S
H3371 C3358 0.961 . S
H3372 C3358 0.961 . S
H3373 C3359 0.958 . S
H3374 C3359 0.961 . S
H3375 C3359 0.960 . S
C3376 C3377 1.391 . S
C3376 C3378 1.394 . S
C3376 H3392 0.931 1_455 S
C3377 C3376 1.391 . S
C3377 C3381 1.376 . S
C3378 C3376 1.394 . S
C3378 C3379 1.369 . S
C3378 C3382 1.531 1_455 S
C3379 C3378 1.369 . S
C3379 C3380 1.410 . S
C3379 C3387 1.503 . S
C3380 C3379 1.410 . S
C3380 C3381 1.392 . S
C3380 C3383 1.511 . S
C3381 C3377 1.376 . S
C3381 C3380 1.392 . S
C3381 H3393 0.929 . S
C3382 C3378 1.531 1_655 S
C3382 H3394 0.960 . S
C3382 H3395 0.962 . S
C3382 H3396 0.960 . S
C3383 C3380 1.511 . S
C3383 H3397 0.961 . S
C3383 H3398 0.961 . S
C3383 H3399 0.961 . S
C3384 C3385 1.370 . S
C3384 C3386 1.363 . S
C3384 H3400 0.931 . S
C3385 C3384 1.370 . S
C3385 C3389 1.408 . S
C3386 C3384 1.363 . S
C3386 C3387 1.370 . S
C3386 C3390 1.524 . S
C3387 C3379 1.503 . S
C3387 C3386 1.370 . S
C3387 C3388 1.403 . S
C3388 C3387 1.403 . S
C3388 C3389 1.404 . S
C3388 C3391 1.539 . S
C3389 C3385 1.408 . S
C3389 C3388 1.404 . S
C3389 H3401 0.930 . S
C3390 C3386 1.524 . S
C3390 H3402 0.956 1_455 S
C3390 H3403 0.961 . S
C3390 H3404 0.961 . S
C3391 C3388 1.539 . S
C3391 H3405 0.958 . S
C3391 H3406 0.961 . S
C3391 H3407 0.960 . S
H3392 C3376 0.931 1_655 S
H3393 C3381 0.929 . S
H3394 C3382 0.960 . S
H3395 C3382 0.962 . S
H3396 C3382 0.960 . S
H3397 C3383 0.961 . S
H3398 C3383 0.961 . S
H3399 C3383 0.961 . S
H3400 C3384 0.931 . S
H3401 C3389 0.930 . S
H3402 C3390 0.956 1_655 S
H3403 C3390 0.961 . S
H3404 C3390 0.961 . S
H3405 C3391 0.958 . S
H3406 C3391 0.961 . S
H3407 C3391 0.960 . S
C3408 C3409 1.391 . S
C3408 C3410 1.394 . S
C3408 H3424 0.931 . S
C3409 C3408 1.391 . S
C3409 C3413 1.376 . S
C3410 C3408 1.394 . S
C3410 C3411 1.369 . S
C3410 C3414 1.531 . S
C3411 C3410 1.369 . S
C3411 C3412 1.410 . S
C3411 C3419 1.503 . S
C3412 C3411 1.410 . S
C3412 C3413 1.392 . S
C3412 C3415 1.511 . S
C3413 C3409 1.376 . S
C3413 C3412 1.392 . S
C3413 H3425 0.929 . S
C3414 C3410 1.531 . S
C3414 H3426 0.960 . S
C3414 H3427 0.962 . S
C3414 H3428 0.960 . S
C3415 C3412 1.511 . S
C3415 H3429 0.961 . S
C3415 H3430 0.961 . S
C3415 H3431 0.961 . S
C3416 C3417 1.370 . S
C3416 C3418 1.363 . S
C3416 H3432 0.931 . S
C3417 C3416 1.370 . S
C3417 C3421 1.408 . S
C3418 C3416 1.363 . S
C3418 C3419 1.370 . S
C3418 C3422 1.524 . S
C3419 C3411 1.503 . S
C3419 C3418 1.370 . S
C3419 C3420 1.403 . S
C3420 C3419 1.403 . S
C3420 C3421 1.404 . S
C3420 C3423 1.539 . S
C3421 C3417 1.408 . S
C3421 C3420 1.404 . S
C3421 H3433 0.930 . S
C3422 C3418 1.524 . S
C3422 H3434 0.956 . S
C3422 H3435 0.961 . S
C3422 H3436 0.961 . S
C3423 C3420 1.539 . S
C3423 H3437 0.958 . S
C3423 H3438 0.961 . S
C3423 H3439 0.960 . S
H3424 C3408 0.931 . S
H3425 C3413 0.929 . S
H3426 C3414 0.960 . S
H3427 C3414 0.962 . S
H3428 C3414 0.960 . S
H3429 C3415 0.961 . S
H3430 C3415 0.961 . S
H3431 C3415 0.961 . S
H3432 C3416 0.931 . S
H3433 C3421 0.930 . S
H3434 C3422 0.956 . S
H3435 C3422 0.961 . S
H3436 C3422 0.961 . S
H3437 C3423 0.958 . S
H3438 C3423 0.961 . S
H3439 C3423 0.960 . S
C3440 C3441 1.391 . S
C3440 C3442 1.394 . S
C3440 H3456 0.931 . S
C3441 C3440 1.391 . S
C3441 C3445 1.376 . S
C3442 C3440 1.394 . S
C3442 C3443 1.369 . S
C3442 C3446 1.531 . S
C3443 C3442 1.369 . S
C3443 C3444 1.410 . S
C3443 C3451 1.503 . S
C3444 C3443 1.410 . S
C3444 C3445 1.392 . S
C3444 C3447 1.511 . S
C3445 C3441 1.376 . S
C3445 C3444 1.392 . S
C3445 H3457 0.929 . S
C3446 C3442 1.531 . S
C3446 H3458 0.960 . S
C3446 H3459 0.962 . S
C3446 H3460 0.960 . S
C3447 C3444 1.511 . S
C3447 H3461 0.961 . S
C3447 H3462 0.961 . S
C3447 H3463 0.961 . S
C3448 C3449 1.370 . S
C3448 C3450 1.363 . S
C3448 H3464 0.931 . S
C3449 C3448 1.370 . S
C3449 C3453 1.408 . S
C3450 C3448 1.363 . S
C3450 C3451 1.370 . S
C3450 C3454 1.524 . S
C3451 C3443 1.503 . S
C3451 C3450 1.370 . S
C3451 C3452 1.403 . S
C3452 C3451 1.403 . S
C3452 C3453 1.404 . S
C3452 C3455 1.539 . S
C3453 C3449 1.408 . S
C3453 C3452 1.404 . S
C3453 H3465 0.930 . S
C3454 C3450 1.524 . S
C3454 H3466 0.956 . S
C3454 H3467 0.961 . S
C3454 H3468 0.961 . S
C3455 C3452 1.539 . S
C3455 H3469 0.958 . S
C3455 H3470 0.961 . S
C3455 H3471 0.960 . S
H3456 C3440 0.931 . S
H3457 C3445 0.929 . S
H3458 C3446 0.960 . S
H3459 C3446 0.962 . S
H3460 C3446 0.960 . S
H3461 C3447 0.961 . S
H3462 C3447 0.961 . S
H3463 C3447 0.961 . S
H3464 C3448 0.931 . S
H3465 C3453 0.930 . S
H3466 C3454 0.956 . S
H3467 C3454 0.961 . S
H3468 C3454 0.961 . S
H3469 C3455 0.958 . S
H3470 C3455 0.961 . S
H3471 C3455 0.960 . S
C3472 C3473 1.391 . S
C3472 C3474 1.394 . S
C3472 H3488 0.931 . S
C3473 C3472 1.391 . S
C3473 C3477 1.376 . S
C3474 C3472 1.394 . S
C3474 C3475 1.369 . S
C3474 C3478 1.531 . S
C3475 C3474 1.369 . S
C3475 C3476 1.410 . S
C3475 C3483 1.503 . S
C3476 C3475 1.410 . S
C3476 C3477 1.392 . S
C3476 C3479 1.511 . S
C3477 C3473 1.376 . S
C3477 C3476 1.392 . S
C3477 H3489 0.929 . S
C3478 C3474 1.531 . S
C3478 H3490 0.960 . S
C3478 H3491 0.962 . S
C3478 H3492 0.960 . S
C3479 C3476 1.511 . S
C3479 H3493 0.961 . S
C3479 H3494 0.961 . S
C3479 H3495 0.961 . S
C3480 C3481 1.370 . S
C3480 C3482 1.363 . S
C3480 H3496 0.931 . S
C3481 C3480 1.370 . S
C3481 C3485 1.408 . S
C3482 C3480 1.363 . S
C3482 C3483 1.370 . S
C3482 C3486 1.524 . S
C3483 C3475 1.503 . S
C3483 C3482 1.370 . S
C3483 C3484 1.403 . S
C3484 C3483 1.403 . S
C3484 C3485 1.404 . S
C3484 C3487 1.539 . S
C3485 C3481 1.408 . S
C3485 C3484 1.404 . S
C3485 H3497 0.930 . S
C3486 C3482 1.524 . S
C3486 H3498 0.956 . S
C3486 H3499 0.961 . S
C3486 H3500 0.961 . S
C3487 C3484 1.539 . S
C3487 H3501 0.958 . S
C3487 H3502 0.961 . S
C3487 H3503 0.960 . S
H3488 C3472 0.931 . S
H3489 C3477 0.929 . S
H3490 C3478 0.960 . S
H3491 C3478 0.962 . S
H3492 C3478 0.960 . S
H3493 C3479 0.961 . S
H3494 C3479 0.961 . S
H3495 C3479 0.961 . S
H3496 C3480 0.931 . S
H3497 C3485 0.930 . S
H3498 C3486 0.956 . S
H3499 C3486 0.961 . S
H3500 C3486 0.961 . S
H3501 C3487 0.958 . S
H3502 C3487 0.961 . S
H3503 C3487 0.960 . S
C3504 C3505 1.391 . S
C3504 C3506 1.394 . S
C3504 H3520 0.931 . S
C3505 C3504 1.391 . S
C3505 C3509 1.376 . S
C3506 C3504 1.394 . S
C3506 C3507 1.369 . S
C3506 C3510 1.531 . S
C3507 C3506 1.369 . S
C3507 C3508 1.410 . S
C3507 C3515 1.503 . S
C3508 C3507 1.410 . S
C3508 C3509 1.392 . S
C3508 C3511 1.511 . S
C3509 C3505 1.376 . S
C3509 C3508 1.392 . S
C3509 H3521 0.929 . S
C3510 C3506 1.531 . S
C3510 H3522 0.960 . S
C3510 H3523 0.962 . S
C3510 H3524 0.960 . S
C3511 C3508 1.511 . S
C3511 H3525 0.961 . S
C3511 H3526 0.961 . S
C3511 H3527 0.961 . S
C3512 C3513 1.370 . S
C3512 C3514 1.363 . S
C3512 H3528 0.931 . S
C3513 C3512 1.370 . S
C3513 C3517 1.408 . S
C3514 C3512 1.363 . S
C3514 C3515 1.370 . S
C3514 C3518 1.524 . S
C3515 C3507 1.503 . S
C3515 C3514 1.370 . S
C3515 C3516 1.403 . S
C3516 C3515 1.403 . S
C3516 C3517 1.404 . S
C3516 C3519 1.539 . S
C3517 C3513 1.408 . S
C3517 C3516 1.404 . S
C3517 H3529 0.930 . S
C3518 C3514 1.524 . S
C3518 H3530 0.956 . S
C3518 H3531 0.961 . S
C3518 H3532 0.961 . S
C3519 C3516 1.539 . S
C3519 H3533 0.958 . S
C3519 H3534 0.961 . S
C3519 H3535 0.960 . S
H3520 C3504 0.931 . S
H3521 C3509 0.929 . S
H3522 C3510 0.960 . S
H3523 C3510 0.962 . S
H3524 C3510 0.960 . S
H3525 C3511 0.961 . S
H3526 C3511 0.961 . S
H3527 C3511 0.961 . S
H3528 C3512 0.931 . S
H3529 C3517 0.930 . S
H3530 C3518 0.956 . S
H3531 C3518 0.961 . S
H3532 C3518 0.961 . S
H3533 C3519 0.958 . S
H3534 C3519 0.961 . S
H3535 C3519 0.960 . S
C3536 C3537 1.391 . S
C3536 C3538 1.394 . S
C3536 H3552 0.931 . S
C3537 C3536 1.391 . S
C3537 C3541 1.376 . S
C3538 C3536 1.394 . S
C3538 C3539 1.369 . S
C3538 C3542 1.531 . S
C3539 C3538 1.369 . S
C3539 C3540 1.410 . S
C3539 C3547 1.503 . S
C3540 C3539 1.410 . S
C3540 C3541 1.392 . S
C3540 C3543 1.511 . S
C3541 C3537 1.376 . S
C3541 C3540 1.392 . S
C3541 H3553 0.929 . S
C3542 C3538 1.531 . S
C3542 H3554 0.960 . S
C3542 H3555 0.962 . S
C3542 H3556 0.960 . S
C3543 C3540 1.511 . S
C3543 H3557 0.961 . S
C3543 H3558 0.961 . S
C3543 H3559 0.961 . S
C3544 C3545 1.370 . S
C3544 C3546 1.363 . S
C3544 H3560 0.931 . S
C3545 C3544 1.370 . S
C3545 C3549 1.408 . S
C3546 C3544 1.363 . S
C3546 C3547 1.370 . S
C3546 C3550 1.524 . S
C3547 C3539 1.503 . S
C3547 C3546 1.370 . S
C3547 C3548 1.403 . S
C3548 C3547 1.403 . S
C3548 C3549 1.404 . S
C3548 C3551 1.539 . S
C3549 C3545 1.408 . S
C3549 C3548 1.404 . S
C3549 H3561 0.930 . S
C3550 C3546 1.524 . S
C3550 H3562 0.956 . S
C3550 H3563 0.961 . S
C3550 H3564 0.961 . S
C3551 C3548 1.539 . S
C3551 H3565 0.958 . S
C3551 H3566 0.961 . S
C3551 H3567 0.960 . S
H3552 C3536 0.931 . S
H3553 C3541 0.929 . S
H3554 C3542 0.960 . S
H3555 C3542 0.962 . S
H3556 C3542 0.960 . S
H3557 C3543 0.961 . S
H3558 C3543 0.961 . S
H3559 C3543 0.961 . S
H3560 C3544 0.931 . S
H3561 C3549 0.930 . S
H3562 C3550 0.956 . S
H3563 C3550 0.961 . S
H3564 C3550 0.961 . S
H3565 C3551 0.958 . S
H3566 C3551 0.961 . S
H3567 C3551 0.960 . S
C3568 C3569 1.391 . S
C3568 C3570 1.394 . S
C3568 H3584 0.931 . S
C3569 C3568 1.391 . S
C3569 C3573 1.376 . S
C3570 C3568 1.394 . S
C3570 C3571 1.369 . S
C3570 C3574 1.531 . S
C3571 C3570 1.369 . S
C3571 C3572 1.410 . S
C3571 C3579 1.503 . S
C3572 C3571 1.410 . S
C3572 C3573 1.392 . S
C3572 C3575 1.511 . S
C3573 C3569 1.376 . S
C3573 C3572 1.392 . S
C3573 H3585 0.929 . S
C3574 C3570 1.531 . S
C3574 H3586 0.960 . S
C3574 H3587 0.962 . S
C3574 H3588 0.960 . S
C3575 C3572 1.511 . S
C3575 H3589 0.961 . S
C3575 H3590 0.961 . S
C3575 H3591 0.961 . S
C3576 C3577 1.370 . S
C3576 C3578 1.363 . S
C3576 H3592 0.931 . S
C3577 C3576 1.370 . S
C3577 C3581 1.408 . S
C3578 C3576 1.363 . S
C3578 C3579 1.370 . S
C3578 C3582 1.524 . S
C3579 C3571 1.503 . S
C3579 C3578 1.370 . S
C3579 C3580 1.403 . S
C3580 C3579 1.403 . S
C3580 C3581 1.404 . S
C3580 C3583 1.539 . S
C3581 C3577 1.408 . S
C3581 C3580 1.404 . S
C3581 H3593 0.930 . S
C3582 C3578 1.524 . S
C3582 H3594 0.956 . S
C3582 H3595 0.961 . S
C3582 H3596 0.961 . S
C3583 C3580 1.539 . S
C3583 H3597 0.958 . S
C3583 H3598 0.961 . S
C3583 H3599 0.960 . S
H3584 C3568 0.931 . S
H3585 C3573 0.929 . S
H3586 C3574 0.960 . S
H3587 C3574 0.962 . S
H3588 C3574 0.960 . S
H3589 C3575 0.961 . S
H3590 C3575 0.961 . S
H3591 C3575 0.961 . S
H3592 C3576 0.931 . S
H3593 C3581 0.930 . S
H3594 C3582 0.956 . S
H3595 C3582 0.961 . S
H3596 C3582 0.961 . S
H3597 C3583 0.958 . S
H3598 C3583 0.961 . S
H3599 C3583 0.960 . S
C3600 C3601 1.391 . S
C3600 C3602 1.394 . S
C3600 H3616 0.931 . S
C3601 C3600 1.391 . S
C3601 C3605 1.376 . S
C3602 C3600 1.394 . S
C3602 C3603 1.369 . S
C3602 C3606 1.531 . S
C3603 C3602 1.369 . S
C3603 C3604 1.410 . S
C3603 C3611 1.503 . S
C3604 C3603 1.410 . S
C3604 C3605 1.392 . S
C3604 C3607 1.511 . S
C3605 C3601 1.376 . S
C3605 C3604 1.392 . S
C3605 H3617 0.929 . S
C3606 C3602 1.531 . S
C3606 H3618 0.960 . S
C3606 H3619 0.962 . S
C3606 H3620 0.960 . S
C3607 C3604 1.511 . S
C3607 H3621 0.961 . S
C3607 H3622 0.961 . S
C3607 H3623 0.961 . S
C3608 C3609 1.370 . S
C3608 C3610 1.363 . S
C3608 H3624 0.931 . S
C3609 C3608 1.370 . S
C3609 C3613 1.408 . S
C3610 C3608 1.363 . S
C3610 C3611 1.370 . S
C3610 C3614 1.524 . S
C3611 C3603 1.503 . S
C3611 C3610 1.370 . S
C3611 C3612 1.403 . S
C3612 C3611 1.403 . S
C3612 C3613 1.404 . S
C3612 C3615 1.539 . S
C3613 C3609 1.408 . S
C3613 C3612 1.404 . S
C3613 H3625 0.930 . S
C3614 C3610 1.524 . S
C3614 H3626 0.956 . S
C3614 H3627 0.961 . S
C3614 H3628 0.961 . S
C3615 C3612 1.539 . S
C3615 H3629 0.958 . S
C3615 H3630 0.961 . S
C3615 H3631 0.960 . S
H3616 C3600 0.931 . S
H3617 C3605 0.929 . S
H3618 C3606 0.960 . S
H3619 C3606 0.962 . S
H3620 C3606 0.960 . S
H3621 C3607 0.961 . S
H3622 C3607 0.961 . S
H3623 C3607 0.961 . S
H3624 C3608 0.931 . S
H3625 C3613 0.930 . S
H3626 C3614 0.956 . S
H3627 C3614 0.961 . S
H3628 C3614 0.961 . S
H3629 C3615 0.958 . S
H3630 C3615 0.961 . S
H3631 C3615 0.960 . S
C3632 C3633 1.391 . S
C3632 C3634 1.394 . S
C3632 H3648 0.931 . S
C3633 C3632 1.391 . S
C3633 C3637 1.376 . S
C3634 C3632 1.394 . S
C3634 C3635 1.369 . S
C3634 C3638 1.531 . S
C3635 C3634 1.369 . S
C3635 C3636 1.410 . S
C3635 C3643 1.503 . S
C3636 C3635 1.410 . S
C3636 C3637 1.392 . S
C3636 C3639 1.511 . S
C3637 C3633 1.376 . S
C3637 C3636 1.392 . S
C3637 H3649 0.929 . S
C3638 C3634 1.531 . S
C3638 H3650 0.960 . S
C3638 H3651 0.962 . S
C3638 H3652 0.960 . S
C3639 C3636 1.511 . S
C3639 H3653 0.961 . S
C3639 H3654 0.961 . S
C3639 H3655 0.961 . S
C3640 C3641 1.370 . S
C3640 C3642 1.363 . S
C3640 H3656 0.931 . S
C3641 C3640 1.370 . S
C3641 C3645 1.408 . S
C3642 C3640 1.363 . S
C3642 C3643 1.370 . S
C3642 C3646 1.524 . S
C3643 C3635 1.503 . S
C3643 C3642 1.370 . S
C3643 C3644 1.403 . S
C3644 C3643 1.403 . S
C3644 C3645 1.404 . S
C3644 C3647 1.539 . S
C3645 C3641 1.408 . S
C3645 C3644 1.404 . S
C3645 H3657 0.930 . S
C3646 C3642 1.524 . S
C3646 H3658 0.956 . S
C3646 H3659 0.961 . S
C3646 H3660 0.961 . S
C3647 C3644 1.539 . S
C3647 H3661 0.958 . S
C3647 H3662 0.961 . S
C3647 H3663 0.960 . S
H3648 C3632 0.931 . S
H3649 C3637 0.929 . S
H3650 C3638 0.960 . S
H3651 C3638 0.962 . S
H3652 C3638 0.960 . S
H3653 C3639 0.961 . S
H3654 C3639 0.961 . S
H3655 C3639 0.961 . S
H3656 C3640 0.931 . S
H3657 C3645 0.930 . S
H3658 C3646 0.956 . S
H3659 C3646 0.961 . S
H3660 C3646 0.961 . S
H3661 C3647 0.958 . S
H3662 C3647 0.961 . S
H3663 C3647 0.960 . S
C3664 C3665 1.391 . S
C3664 C3666 1.394 . S
C3664 H3680 0.931 . S
C3665 C3664 1.391 . S
C3665 C3669 1.376 . S
C3666 C3664 1.394 . S
C3666 C3667 1.369 . S
C3666 C3670 1.531 . S
C3667 C3666 1.369 . S
C3667 C3668 1.410 . S
C3667 C3675 1.503 . S
C3668 C3667 1.410 . S
C3668 C3669 1.392 . S
C3668 C3671 1.511 . S
C3669 C3665 1.376 . S
C3669 C3668 1.392 . S
C3669 H3681 0.929 . S
C3670 C3666 1.531 . S
C3670 H3682 0.960 . S
C3670 H3683 0.962 . S
C3670 H3684 0.960 . S
C3671 C3668 1.511 . S
C3671 H3685 0.961 . S
C3671 H3686 0.961 . S
C3671 H3687 0.961 . S
C3672 C3673 1.370 . S
C3672 C3674 1.363 . S
C3672 H3688 0.931 . S
C3673 C3672 1.370 . S
C3673 C3677 1.408 . S
C3674 C3672 1.363 . S
C3674 C3675 1.370 . S
C3674 C3678 1.524 . S
C3675 C3667 1.503 . S
C3675 C3674 1.370 . S
C3675 C3676 1.403 . S
C3676 C3675 1.403 . S
C3676 C3677 1.404 . S
C3676 C3679 1.539 . S
C3677 C3673 1.408 . S
C3677 C3676 1.404 . S
C3677 H3689 0.930 . S
C3678 C3674 1.524 . S
C3678 H3690 0.956 . S
C3678 H3691 0.961 . S
C3678 H3692 0.961 . S
C3679 C3676 1.539 . S
C3679 H3693 0.958 . S
C3679 H3694 0.961 . S
C3679 H3695 0.960 . S
H3680 C3664 0.931 . S
H3681 C3669 0.929 . S
H3682 C3670 0.960 . S
H3683 C3670 0.962 . S
H3684 C3670 0.960 . S
H3685 C3671 0.961 . S
H3686 C3671 0.961 . S
H3687 C3671 0.961 . S
H3688 C3672 0.931 . S
H3689 C3677 0.930 . S
H3690 C3678 0.956 . S
H3691 C3678 0.961 . S
H3692 C3678 0.961 . S
H3693 C3679 0.958 . S
H3694 C3679 0.961 . S
H3695 C3679 0.960 . S
C3696 C3697 1.391 . S
C3696 C3698 1.394 . S
C3696 H3712 0.931 . S
C3697 C3696 1.391 . S
C3697 C3701 1.376 . S
C3698 C3696 1.394 . S
C3698 C3699 1.369 . S
C3698 C3702 1.531 . S
C3699 C3698 1.369 . S
C3699 C3700 1.410 . S
C3699 C3707 1.503 . S
C3700 C3699 1.410 . S
C3700 C3701 1.392 . S
C3700 C3703 1.511 . S
C3701 C3697 1.376 . S
C3701 C3700 1.392 . S
C3701 H3713 0.929 . S
C3702 C3698 1.531 . S
C3702 H3714 0.960 . S
C3702 H3715 0.962 . S
C3702 H3716 0.960 . S
C3703 C3700 1.511 . S
C3703 H3717 0.961 . S
C3703 H3718 0.961 . S
C3703 H3719 0.961 . S
C3704 C3705 1.370 . S
C3704 C3706 1.363 . S
C3704 H3720 0.931 . S
C3705 C3704 1.370 . S
C3705 C3709 1.408 . S
C3706 C3704 1.363 . S
C3706 C3707 1.370 . S
C3706 C3710 1.524 . S
C3707 C3699 1.503 . S
C3707 C3706 1.370 . S
C3707 C3708 1.403 . S
C3708 C3707 1.403 . S
C3708 C3709 1.404 . S
C3708 C3711 1.539 . S
C3709 C3705 1.408 . S
C3709 C3708 1.404 . S
C3709 H3721 0.930 . S
C3710 C3706 1.524 . S
C3710 H3722 0.956 . S
C3710 H3723 0.961 . S
C3710 H3724 0.961 . S
C3711 C3708 1.539 . S
C3711 H3725 0.958 . S
C3711 H3726 0.961 . S
C3711 H3727 0.960 . S
H3712 C3696 0.931 . S
H3713 C3701 0.929 . S
H3714 C3702 0.960 . S
H3715 C3702 0.962 . S
H3716 C3702 0.960 . S
H3717 C3703 0.961 . S
H3718 C3703 0.961 . S
H3719 C3703 0.961 . S
H3720 C3704 0.931 . S
H3721 C3709 0.930 . S
H3722 C3710 0.956 . S
H3723 C3710 0.961 . S
H3724 C3710 0.961 . S
H3725 C3711 0.958 . S
H3726 C3711 0.961 . S
H3727 C3711 0.960 . S
C3728 C3729 1.391 . S
C3728 C3730 1.394 . S
C3728 H3744 0.931 . S
C3729 C3728 1.391 . S
C3729 C3733 1.376 . S
C3730 C3728 1.394 . S
C3730 C3731 1.369 . S
C3730 C3734 1.531 . S
C3731 C3730 1.369 . S
C3731 C3732 1.410 . S
C3731 C3739 1.503 . S
C3732 C3731 1.410 . S
C3732 C3733 1.392 . S
C3732 C3735 1.511 . S
C3733 C3729 1.376 . S
C3733 C3732 1.392 . S
C3733 H3745 0.929 . S
C3734 C3730 1.531 . S
C3734 H3746 0.960 . S
C3734 H3747 0.962 . S
C3734 H3748 0.960 . S
C3735 C3732 1.511 . S
C3735 H3749 0.961 . S
C3735 H3750 0.961 . S
C3735 H3751 0.961 . S
C3736 C3737 1.370 . S
C3736 C3738 1.363 . S
C3736 H3752 0.931 . S
C3737 C3736 1.370 . S
C3737 C3741 1.408 . S
C3738 C3736 1.363 . S
C3738 C3739 1.370 . S
C3738 C3742 1.524 . S
C3739 C3731 1.503 . S
C3739 C3738 1.370 . S
C3739 C3740 1.403 . S
C3740 C3739 1.403 . S
C3740 C3741 1.404 . S
C3740 C3743 1.539 . S
C3741 C3737 1.408 . S
C3741 C3740 1.404 . S
C3741 H3753 0.930 . S
C3742 C3738 1.524 . S
C3742 H3754 0.956 . S
C3742 H3755 0.961 . S
C3742 H3756 0.961 . S
C3743 C3740 1.539 . S
C3743 H3757 0.958 . S
C3743 H3758 0.961 . S
C3743 H3759 0.960 . S
H3744 C3728 0.931 . S
H3745 C3733 0.929 . S
H3746 C3734 0.960 . S
H3747 C3734 0.962 . S
H3748 C3734 0.960 . S
H3749 C3735 0.961 . S
H3750 C3735 0.961 . S
H3751 C3735 0.961 . S
H3752 C3736 0.931 . S
H3753 C3741 0.930 . S
H3754 C3742 0.956 . S
H3755 C3742 0.961 . S
H3756 C3742 0.961 . S
H3757 C3743 0.958 . S
H3758 C3743 0.961 . S
H3759 C3743 0.960 . S
C3760 C3761 1.391 . S
C3760 C3762 1.394 . S
C3760 H3776 0.931 . S
C3761 C3760 1.391 . S
C3761 C3765 1.376 . S
C3762 C3760 1.394 . S
C3762 C3763 1.369 . S
C3762 C3766 1.531 . S
C3763 C3762 1.369 . S
C3763 C3764 1.410 . S
C3763 C3771 1.503 . S
C3764 C3763 1.410 . S
C3764 C3765 1.392 . S
C3764 C3767 1.511 . S
C3765 C3761 1.376 . S
C3765 C3764 1.392 . S
C3765 H3777 0.929 . S
C3766 C3762 1.531 . S
C3766 H3778 0.960 . S
C3766 H3779 0.962 . S
C3766 H3780 0.960 . S
C3767 C3764 1.511 . S
C3767 H3781 0.961 . S
C3767 H3782 0.961 . S
C3767 H3783 0.961 . S
C3768 C3769 1.370 . S
C3768 C3770 1.363 . S
C3768 H3784 0.931 . S
C3769 C3768 1.370 . S
C3769 C3773 1.408 . S
C3770 C3768 1.363 . S
C3770 C3771 1.370 . S
C3770 C3774 1.524 . S
C3771 C3763 1.503 . S
C3771 C3770 1.370 . S
C3771 C3772 1.403 . S
C3772 C3771 1.403 . S
C3772 C3773 1.404 . S
C3772 C3775 1.539 . S
C3773 C3769 1.408 . S
C3773 C3772 1.404 . S
C3773 H3785 0.930 . S
C3774 C3770 1.524 . S
C3774 H3786 0.956 . S
C3774 H3787 0.961 . S
C3774 H3788 0.961 . S
C3775 C3772 1.539 . S
C3775 H3789 0.958 . S
C3775 H3790 0.961 . S
C3775 H3791 0.960 . S
H3776 C3760 0.931 . S
H3777 C3765 0.929 . S
H3778 C3766 0.960 . S
H3779 C3766 0.962 . S
H3780 C3766 0.960 . S
H3781 C3767 0.961 . S
H3782 C3767 0.961 . S
H3783 C3767 0.961 . S
H3784 C3768 0.931 . S
H3785 C3773 0.930 . S
H3786 C3774 0.956 . S
H3787 C3774 0.961 . S
H3788 C3774 0.961 . S
H3789 C3775 0.958 . S
H3790 C3775 0.961 . S
H3791 C3775 0.960 . S
C3792 C3793 1.391 . S
C3792 C3794 1.394 . S
C3792 H3808 0.931 . S
C3793 C3792 1.391 . S
C3793 C3797 1.376 . S
C3794 C3792 1.394 . S
C3794 C3795 1.369 . S
C3794 C3798 1.531 . S
C3795 C3794 1.369 . S
C3795 C3796 1.410 . S
C3795 C3803 1.503 . S
C3796 C3795 1.410 . S
C3796 C3797 1.392 . S
C3796 C3799 1.511 1_554 S
C3797 C3793 1.376 . S
C3797 C3796 1.392 . S
C3797 H3809 0.929 . S
C3798 C3794 1.531 . S
C3798 H3810 0.960 1_565 S
C3798 H3811 0.962 . S
C3798 H3812 0.953 1_565 S
C3799 C3796 1.511 1_556 S
C3799 H3813 0.961 . S
C3799 H3814 0.963 . S
C3799 H3815 0.961 . S
C3800 C3801 1.370 . S
C3800 C3802 1.363 . S
C3800 H3816 0.931 . S
C3801 C3800 1.370 . S
C3801 C3805 1.408 1_554 S
C3802 C3800 1.363 . S
C3802 C3803 1.370 . S
C3802 C3806 1.524 . S
C3803 C3795 1.503 . S
C3803 C3802 1.370 . S
C3803 C3804 1.403 1_554 S
C3804 C3803 1.403 1_556 S
C3804 C3805 1.404 . S
C3804 C3807 1.539 . S
C3805 C3801 1.408 1_556 S
C3805 C3804 1.404 . S
C3805 H3817 0.930 1_565 S
C3806 C3802 1.524 . S
C3806 H3818 0.956 . S
C3806 H3819 0.961 . S
C3806 H3820 0.961 . S
C3807 C3804 1.539 . S
C3807 H3821 0.952 1_565 S
C3807 H3822 0.961 . S
C3807 H3823 0.960 . S
H3808 C3792 0.931 . S
H3809 C3797 0.929 . S
H3810 C3798 0.960 1_545 S
H3811 C3798 0.962 . S
H3812 C3798 0.953 1_545 S
H3813 C3799 0.961 . S
H3814 C3799 0.963 . S
H3815 C3799 0.961 . S
H3816 C3800 0.931 . S
H3817 C3805 0.930 1_545 S
H3818 C3806 0.956 . S
H3819 C3806 0.961 . S
H3820 C3806 0.961 . S
H3821 C3807 0.952 1_545 S
H3822 C3807 0.961 . S
H3823 C3807 0.960 . S
C3824 C3825 1.391 . S
C3824 C3826 1.394 . S
C3824 H3840 0.931 . S
C3825 C3824 1.391 . S
C3825 C3829 1.376 . S
C3826 C3824 1.394 . S
C3826 C3827 1.369 . S
C3826 C3830 1.531 . S
C3827 C3826 1.369 . S
C3827 C3828 1.410 . S
C3827 C3835 1.503 . S
C3828 C3827 1.410 . S
C3828 C3829 1.392 . S
C3828 C3831 1.511 . S
C3829 C3825 1.376 . S
C3829 C3828 1.392 . S
C3829 H3841 0.929 . S
C3830 C3826 1.531 . S
C3830 H3842 0.960 . S
C3830 H3843 0.962 . S
C3830 H3844 0.960 . S
C3831 C3828 1.511 . S
C3831 H3845 0.961 . S
C3831 H3846 0.961 . S
C3831 H3847 0.961 . S
C3832 C3833 1.370 . S
C3832 C3834 1.363 . S
C3832 H3848 0.931 . S
C3833 C3832 1.370 . S
C3833 C3837 1.408 . S
C3834 C3832 1.363 . S
C3834 C3835 1.370 . S
C3834 C3838 1.524 . S
C3835 C3827 1.503 . S
C3835 C3834 1.370 . S
C3835 C3836 1.403 . S
C3836 C3835 1.403 . S
C3836 C3837 1.404 . S
C3836 C3839 1.539 . S
C3837 C3833 1.408 . S
C3837 C3836 1.404 . S
C3837 H3849 0.930 . S
C3838 C3834 1.524 . S
C3838 H3850 0.956 . S
C3838 H3851 0.961 . S
C3838 H3852 0.961 . S
C3839 C3836 1.539 . S
C3839 H3853 0.958 . S
C3839 H3854 0.961 . S
C3839 H3855 0.960 . S
H3840 C3824 0.931 . S
H3841 C3829 0.929 . S
H3842 C3830 0.960 . S
H3843 C3830 0.962 . S
H3844 C3830 0.960 . S
H3845 C3831 0.961 . S
H3846 C3831 0.961 . S
H3847 C3831 0.961 . S
H3848 C3832 0.931 . S
H3849 C3837 0.930 . S
H3850 C3838 0.956 . S
H3851 C3838 0.961 . S
H3852 C3838 0.961 . S
H3853 C3839 0.958 . S
H3854 C3839 0.961 . S
H3855 C3839 0.960 . S
C3856 C3857 1.391 1_556 S
C3856 C3858 1.394 1_556 S
C3856 H3872 0.931 . S
C3857 C3856 1.391 1_554 S
C3857 C3861 1.376 . S
C3858 C3856 1.394 1_554 S
C3858 C3859 1.369 . S
C3858 C3862 1.529 1_554 S
C3859 C3858 1.369 . S
C3859 C3860 1.410 . S
C3859 C3867 1.503 . S
C3860 C3859 1.410 . S
C3860 C3861 1.392 . S
C3860 C3863 1.511 . S
C3861 C3857 1.376 . S
C3861 C3860 1.392 . S
C3861 H3873 0.929 . S
C3862 C3858 1.529 1_556 S
C3862 H3874 0.963 . S
C3862 H3875 0.950 1_556 S
C3862 H3876 0.971 . S
C3863 C3860 1.511 . S
C3863 H3877 0.961 . S
C3863 H3878 0.961 . S
C3863 H3879 0.961 . S
C3864 C3865 1.370 . S
C3864 C3866 1.363 . S
C3864 H3880 0.931 . S
C3865 C3864 1.370 . S
C3865 C3869 1.408 . S
C3866 C3864 1.363 . S
C3866 C3867 1.370 . S
C3866 C3870 1.524 . S
C3867 C3859 1.503 . S
C3867 C3866 1.370 . S
C3867 C3868 1.403 . S
C3868 C3867 1.403 . S
C3868 C3869 1.404 . S
C3868 C3871 1.539 1_554 S
C3869 C3865 1.408 . S
C3869 C3868 1.404 . S
C3869 H3881 0.938 . S
C3870 C3866 1.524 . S
C3870 H3882 0.956 . S
C3870 H3883 0.961 . S
C3870 H3884 0.961 . S
C3871 C3868 1.539 1_556 S
C3871 H3885 0.958 . S
C3871 H3886 0.961 . S
C3871 H3887 0.960 . S
H3872 C3856 0.931 . S
H3873 C3861 0.929 . S
H3874 C3862 0.963 . S
H3875 C3862 0.950 1_554 S
H3876 C3862 0.971 . S
H3877 C3863 0.961 . S
H3878 C3863 0.961 . S
H3879 C3863 0.961 . S
H3880 C3864 0.931 . S
H3881 C3869 0.938 . S
H3882 C3870 0.956 . S
H3883 C3870 0.961 . S
H3884 C3870 0.961 . S
H3885 C3871 0.958 . S
H3886 C3871 0.961 . S
H3887 C3871 0.960 . S
C3888 C3889 1.391 . S
C3888 C3890 1.394 . S
C3888 H3904 0.931 . S
C3889 C3888 1.391 . S
C3889 C3893 1.376 . S
C3890 C3888 1.394 . S
C3890 C3891 1.369 . S
C3890 C3894 1.531 . S
C3891 C3890 1.369 . S
C3891 C3892 1.410 . S
C3891 C3899 1.503 . S
C3892 C3891 1.410 . S
C3892 C3893 1.392 . S
C3892 C3895 1.511 . S
C3893 C3889 1.376 . S
C3893 C3892 1.392 . S
C3893 H3905 0.929 . S
C3894 C3890 1.531 . S
C3894 H3906 0.960 . S
C3894 H3907 0.962 . S
C3894 H3908 0.960 . S
C3895 C3892 1.511 . S
C3895 H3909 0.961 . S
C3895 H3910 0.961 . S
C3895 H3911 0.961 . S
C3896 C3897 1.370 . S
C3896 C3898 1.363 . S
C3896 H3912 0.931 . S
C3897 C3896 1.370 . S
C3897 C3901 1.408 . S
C3898 C3896 1.363 . S
C3898 C3899 1.370 . S
C3898 C3902 1.524 . S
C3899 C3891 1.503 . S
C3899 C3898 1.370 . S
C3899 C3900 1.403 . S
C3900 C3899 1.403 . S
C3900 C3901 1.404 . S
C3900 C3903 1.539 . S
C3901 C3897 1.408 . S
C3901 C3900 1.404 . S
C3901 H3913 0.930 . S
C3902 C3898 1.524 . S
C3902 H3914 0.956 . S
C3902 H3915 0.961 . S
C3902 H3916 0.961 . S
C3903 C3900 1.539 . S
C3903 H3917 0.958 . S
C3903 H3918 0.961 . S
C3903 H3919 0.960 . S
H3904 C3888 0.931 . S
H3905 C3893 0.929 . S
H3906 C3894 0.960 . S
H3907 C3894 0.962 . S
H3908 C3894 0.960 . S
H3909 C3895 0.961 . S
H3910 C3895 0.961 . S
H3911 C3895 0.961 . S
H3912 C3896 0.931 . S
H3913 C3901 0.930 . S
H3914 C3902 0.956 . S
H3915 C3902 0.961 . S
H3916 C3902 0.961 . S
H3917 C3903 0.958 . S
H3918 C3903 0.961 . S
H3919 C3903 0.960 . S
C3920 C3921 1.391 . S
C3920 C3922 1.394 . S
C3920 H3936 0.931 . S
C3921 C3920 1.391 . S
C3921 C3925 1.376 . S
C3922 C3920 1.394 . S
C3922 C3923 1.369 . S
C3922 C3926 1.531 . S
C3923 C3922 1.369 . S
C3923 C3924 1.410 . S
C3923 C3931 1.503 . S
C3924 C3923 1.410 . S
C3924 C3925 1.392 . S
C3924 C3927 1.511 . S
C3925 C3921 1.376 . S
C3925 C3924 1.392 . S
C3925 H3937 0.929 . S
C3926 C3922 1.531 . S
C3926 H3938 0.960 . S
C3926 H3939 0.962 . S
C3926 H3940 0.960 . S
C3927 C3924 1.511 . S
C3927 H3941 0.961 . S
C3927 H3942 0.961 . S
C3927 H3943 0.961 . S
C3928 C3929 1.370 . S
C3928 C3930 1.363 . S
C3928 H3944 0.931 . S
C3929 C3928 1.370 . S
C3929 C3933 1.408 . S
C3930 C3928 1.363 . S
C3930 C3931 1.370 . S
C3930 C3934 1.524 . S
C3931 C3923 1.503 . S
C3931 C3930 1.370 . S
C3931 C3932 1.403 . S
C3932 C3931 1.403 . S
C3932 C3933 1.404 . S
C3932 C3935 1.539 . S
C3933 C3929 1.408 . S
C3933 C3932 1.404 . S
C3933 H3945 0.930 . S
C3934 C3930 1.524 . S
C3934 H3946 0.956 . S
C3934 H3947 0.961 . S
C3934 H3948 0.961 . S
C3935 C3932 1.539 . S
C3935 H3949 0.958 . S
C3935 H3950 0.961 . S
C3935 H3951 0.960 . S
H3936 C3920 0.931 . S
H3937 C3925 0.929 . S
H3938 C3926 0.960 . S
H3939 C3926 0.962 . S
H3940 C3926 0.960 . S
H3941 C3927 0.961 . S
H3942 C3927 0.961 . S
H3943 C3927 0.961 . S
H3944 C3928 0.931 . S
H3945 C3933 0.930 . S
H3946 C3934 0.956 . S
H3947 C3934 0.961 . S
H3948 C3934 0.961 . S
H3949 C3935 0.958 . S
H3950 C3935 0.961 . S
H3951 C3935 0.960 . S
C889 C353 1.058 . S
C881 C5 1.058 . S
C913 C23 1.905 . S
C921 C399 1.886 . S
C945 C39 0.864 . S
C953 C408 0.879 . S
C985 C446 1.653 . S
C977 C42 1.687 . S
C1009 C19 1.660 . S
C1017 C480 1.657 . S
C1049 C510 0.825 . S
C1041 C28 0.851 . S
C1081 C569 1.613 1_556 S
C1073 C53 1.618 . S
C1105 C9 0.993 . S
C1113 C582 0.957 . S
C1137 C65 1.443 . S
C1145 C365 1.452 . S
C1169 C75 1.190 . S
C1177 C383 1.197 . S
C1209 C404 1.739 . S
C1201 C93 1.765 . S
C1241 C442 0.765 . S
C1233 C109 0.819 . S
C1265 C56 1.262 . S
C1273 C476 1.275 . S
C1305 C506 1.557 . S
C1297 C81 1.558 . S
C1337 C553 1.268 . S
C1329 C84 1.248 . S
C1369 C578 0.682 . S
C1361 C103 0.665 . S
C1401 C349 0.636 1_556 S
C1393 C107 0.689 . S
C1433 C608 1.619 . S
C1425 C121 1.611 . S
C1457 C131 1.485 . S
C1465 C650 1.455 . S
C1497 C693 0.542 . S
C1489 C140 0.586 . S
C1521 C61 1.406 . S
C1529 C574 1.406 . S
C1561 C412 1.451 . S
C1553 C70 1.424 . S
C1585 C137 1.334 . S
C1593 C710 1.344 . S
C1625 C761 1.535 . S
C1617 C165 1.528 . S
C1649 C173 1.000 . S
C1657 C344 1.039 1_556 S
C1689 C744 1.838 . S
C1681 C182 1.833 . S
C1713 C207 0.860 . S
C1721 C417 0.848 . S
C1745 C219 1.652 . S
C1753 C727 1.625 . S
C1785 C489 1.603 . S
C1777 C187 1.636 . S
C1817 C655 0.818 . S
C1809 C205 0.817 . S
C1849 C540 1.573 . S
C1841 C221 1.594 . S
C1881 C795 0.951 . S
C1873 C168 0.936 . S
C1913 C336 1.395 . S
C1905 C224 1.423 . S
C1937 C243 1.153 . S
C1945 C748 1.172 . S
C1977 C433 1.679 . S
C1969 C252 1.688 . S
C2001 C277 0.793 . S
C2009 C723 0.751 . S
C2033 C233 1.298 . S
C2041 C485 1.262 . S
C2065 C249 1.527 . S
C2073 C671 1.543 . S
C2105 C544 1.251 . S
C2097 C261 1.253 . S
C2129 C271 0.672 . S
C2137 C791 0.683 . S
C2161 C266 0.639 . S
C2169 C340 0.628 . S
C2193 C280 1.572 . S
C2201 C637 1.573 . S
C2225 C299 1.440 . S
C2233 C523 1.409 . S
C2257 C317 0.513 . S
C2265 C684 0.507 . S
C2297 C807 1.365 . S
C2289 C229 1.378 . S
C2329 C421 1.420 . S
C2321 C247 1.454 . S
C2361 C467 1.319 . S
C2353 C305 1.303 . S
C2393 C378 1.521 . S
C2385 C333 1.527 . S
C2417 C33 1.075 . S
C2425 C829 1.049 . S
C2457 C773 1.884 . S
C2449 C51 1.905 . S
C2489 C850 0.868 . S
C2481 C11 0.843 . S
C2513 C14 1.683 . S
C2521 C718 1.655 . S
C2545 C47 1.679 . S
C2553 C616 1.640 1_556 S
C2585 C646 0.843 . S
C2577 C0 0.820 . S
C2617 C705 1.615 . S
C2609 C25 1.600 . S
C2649 C786 0.980 . S
C2641 C37 0.940 . S
C2681 C841 1.449 . S
C2673 C163 1.439 . S
C2705 C117 1.191 1_556 S
C2713 C757 1.197 . S
C2737 C135 1.759 . S
C2745 C846 1.738 . S
C2777 C714 0.766 . S
C2769 C151 0.848 . S
C2809 C612 1.263 . S
C2801 C154 1.297 . S
C2833 C123 1.547 . S
C2841 C642 1.567 . S
C2873 C689 1.250 . S
C2865 C126 1.287 . S
C2897 C145 0.670 . S
C2905 C782 0.704 . S
C2937 C825 0.645 . S
C2929 C149 0.707 . S
C2969 C472 1.619 . S
C2961 C79 1.606 . S
C3001 C514 1.461 . S
C2993 C89 1.473 . S
C3025 C98 0.522 . S
C3033 C557 0.575 . S
C3065 C778 1.397 . S
C3057 C159 1.417 . S
C3089 C112 1.462 . S
C3097 C854 1.436 . S
C3129 C438 1.345 . S
C3121 C95 1.340 . S
C3161 C387 1.533 . S
C3153 C67 1.539 . S
C3185 C201 1.012 . S
C3193 C820 1.036 . S
C3225 C370 1.833 . S
C3217 C210 1.851 . S
C3257 C859 0.884 . S
C3249 C179 0.848 1_655 S
C3281 C191 1.652 . S
C3289 C455 1.623 . S
C3313 C215 1.620 . S
C3321 C625 1.618 . S
C3345 C177 0.843 . S
C3353 C519 0.835 . S
C3377 C193 1.594 . S
C3385 C676 1.572 . S
C3409 C196 0.941 . S
C3417 C591 0.945 . S
C3449 C812 1.405 . S
C3441 C322 1.414 . S
C3473 C285 1.159 . S
C3481 C374 1.169 . S
C3513 C875 1.684 . S
C3505 C294 1.700 . S
C3537 C319 0.768 . S
C3545 C451 0.766 . S
C3569 C331 1.280 . S
C3577 C621 1.282 . S
C3609 C535 1.543 . S
C3601 C291 1.529 . S
C3633 C303 1.272 . S
C3641 C680 1.241 . S
C3673 C587 0.653 . S
C3665 C313 0.685 . S
C3705 C816 0.625 . S
C3697 C308 0.642 . S
C3737 C501 1.572 . S
C3729 C238 1.573 . S
C3761 C257 1.437 . S
C3769 C659 1.412 . S
C3801 C548 0.546 . S
C3793 C275 0.529 . S
C3833 C603 1.357 . S
C3825 C327 1.396 . S
C3857 C289 1.453 1_554 S
C3865 C863 1.419 . S
C3897 C739 1.317 . S
C3889 C263 1.302 . S
C3929 C752 1.524 . S
C3921 C235 1.522 . S
