# Generated by pormake.
# Topology gar, (4,6)-cn, num edge types: 1
# Building blocks:
#     Node 0, Type 0, BuildingBlock: TATPOV_clean_sbu_0, # of connection points: 4
#     Node 1, Type 0, BuildingBlock: TATPOV_clean_sbu_0, # of connection points: 4
#     Node 2, Type 0, BuildingBlock: TATPOV_clean_sbu_0, # of connection points: 4
#     Node 3, Type 0, BuildingBlock: TATPOV_clean_sbu_0, # of connection points: 4
#     Node 4, Type 0, BuildingBlock: TATPOV_clean_sbu_0, # of connection points: 4
#     Node 5, Type 0, BuildingBlock: TATPOV_clean_sbu_0, # of connection points: 4
#     Node 6, Type 0, BuildingBlock: TATPOV_clean_sbu_0, # of connection points: 4
#     Node 7, Type 0, BuildingBlock: TATPOV_clean_sbu_0, # of connection points: 4
#     Node 8, Type 0, BuildingBlock: TATPOV_clean_sbu_0, # of connection points: 4
#     Node 9, Type 0, BuildingBlock: TATPOV_clean_sbu_0, # of connection points: 4
#     Node 10, Type 0, BuildingBlock: TATPOV_clean_sbu_0, # of connection points: 4
#     Node 11, Type 0, BuildingBlock: TATPOV_clean_sbu_0, # of connection points: 4
#     Node 12, Type 0, BuildingBlock: TATPOV_clean_sbu_0, # of connection points: 4
#     Node 13, Type 0, BuildingBlock: TATPOV_clean_sbu_0, # of connection points: 4
#     Node 14, Type 0, BuildingBlock: TATPOV_clean_sbu_0, # of connection points: 4
#     Node 15, Type 0, BuildingBlock: TATPOV_clean_sbu_0, # of connection points: 4
#     Node 16, Type 0, BuildingBlock: TATPOV_clean_sbu_0, # of connection points: 4
#     Node 17, Type 0, BuildingBlock: TATPOV_clean_sbu_0, # of connection points: 4
#     Node 18, Type 0, BuildingBlock: TATPOV_clean_sbu_0, # of connection points: 4
#     Node 19, Type 0, BuildingBlock: TATPOV_clean_sbu_0, # of connection points: 4
#     Node 20, Type 0, BuildingBlock: TATPOV_clean_sbu_0, # of connection points: 4
#     Node 21, Type 0, BuildingBlock: TATPOV_clean_sbu_0, # of connection points: 4
#     Node 22, Type 0, BuildingBlock: TATPOV_clean_sbu_0, # of connection points: 4
#     Node 23, Type 0, BuildingBlock: TATPOV_clean_sbu_0, # of connection points: 4
#     Node 24, Type 1, BuildingBlock: MIFKUJ_clean_sbu_0, # of connection points: 6
#     Node 25, Type 1, BuildingBlock: MIFKUJ_clean_sbu_0, # of connection points: 6
#     Node 26, Type 1, BuildingBlock: MIFKUJ_clean_sbu_0, # of connection points: 6
#     Node 27, Type 1, BuildingBlock: MIFKUJ_clean_sbu_0, # of connection points: 6
#     Node 28, Type 1, BuildingBlock: MIFKUJ_clean_sbu_0, # of connection points: 6
#     Node 29, Type 1, BuildingBlock: MIFKUJ_clean_sbu_0, # of connection points: 6
#     Node 30, Type 1, BuildingBlock: MIFKUJ_clean_sbu_0, # of connection points: 6
#     Node 31, Type 1, BuildingBlock: MIFKUJ_clean_sbu_0, # of connection points: 6
#     Node 32, Type 1, BuildingBlock: MIFKUJ_clean_sbu_0, # of connection points: 6
#     Node 33, Type 1, BuildingBlock: MIFKUJ_clean_sbu_0, # of connection points: 6
#     Node 34, Type 1, BuildingBlock: MIFKUJ_clean_sbu_0, # of connection points: 6
#     Node 35, Type 1, BuildingBlock: MIFKUJ_clean_sbu_0, # of connection points: 6
#     Node 36, Type 1, BuildingBlock: MIFKUJ_clean_sbu_0, # of connection points: 6
#     Node 37, Type 1, BuildingBlock: MIFKUJ_clean_sbu_0, # of connection points: 6
#     Node 38, Type 1, BuildingBlock: MIFKUJ_clean_sbu_0, # of connection points: 6
#     Node 39, Type 1, BuildingBlock: MIFKUJ_clean_sbu_0, # of connection points: 6
#     Edge 40, Type (0, 1), BuildingBlock: KIFKEQ_clean_linker_1, # of connection points: 2
#     Edge 41, Type (0, 1), BuildingBlock: KIFKEQ_clean_linker_1, # of connection points: 2
#     Edge 42, Type (0, 1), BuildingBlock: KIFKEQ_clean_linker_1, # of connection points: 2
#     Edge 43, Type (0, 1), BuildingBlock: KIFKEQ_clean_linker_1, # of connection points: 2
#     Edge 44, Type (0, 1), BuildingBlock: KIFKEQ_clean_linker_1, # of connection points: 2
#     Edge 45, Type (0, 1), BuildingBlock: KIFKEQ_clean_linker_1, # of connection points: 2
#     Edge 46, Type (0, 1), BuildingBlock: KIFKEQ_clean_linker_1, # of connection points: 2
#     Edge 47, Type (0, 1), BuildingBlock: KIFKEQ_clean_linker_1, # of connection points: 2
#     Edge 48, Type (0, 1), BuildingBlock: KIFKEQ_clean_linker_1, # of connection points: 2
#     Edge 49, Type (0, 1), BuildingBlock: KIFKEQ_clean_linker_1, # of connection points: 2
#     Edge 50, Type (0, 1), BuildingBlock: KIFKEQ_clean_linker_1, # of connection points: 2
#     Edge 51, Type (0, 1), BuildingBlock: KIFKEQ_clean_linker_1, # of connection points: 2
#     Edge 52, Type (0, 1), BuildingBlock: KIFKEQ_clean_linker_1, # of connection points: 2
#     Edge 53, Type (0, 1), BuildingBlock: KIFKEQ_clean_linker_1, # of connection points: 2
#     Edge 54, Type (0, 1), BuildingBlock: KIFKEQ_clean_linker_1, # of connection points: 2
#     Edge 55, Type (0, 1), BuildingBlock: KIFKEQ_clean_linker_1, # of connection points: 2
#     Edge 56, Type (0, 1), BuildingBlock: KIFKEQ_clean_linker_1, # of connection points: 2
#     Edge 57, Type (0, 1), BuildingBlock: KIFKEQ_clean_linker_1, # of connection points: 2
#     Edge 58, Type (0, 1), BuildingBlock: KIFKEQ_clean_linker_1, # of connection points: 2
#     Edge 59, Type (0, 1), BuildingBlock: KIFKEQ_clean_linker_1, # of connection points: 2
#     Edge 60, Type (0, 1), BuildingBlock: KIFKEQ_clean_linker_1, # of connection points: 2
#     Edge 61, Type (0, 1), BuildingBlock: KIFKEQ_clean_linker_1, # of connection points: 2
#     Edge 62, Type (0, 1), BuildingBlock: KIFKEQ_clean_linker_1, # of connection points: 2
#     Edge 63, Type (0, 1), BuildingBlock: KIFKEQ_clean_linker_1, # of connection points: 2
#     Edge 64, Type (0, 1), BuildingBlock: KIFKEQ_clean_linker_1, # of connection points: 2
#     Edge 65, Type (0, 1), BuildingBlock: KIFKEQ_clean_linker_1, # of connection points: 2
#     Edge 66, Type (0, 1), BuildingBlock: KIFKEQ_clean_linker_1, # of connection points: 2
#     Edge 67, Type (0, 1), BuildingBlock: KIFKEQ_clean_linker_1, # of connection points: 2
#     Edge 68, Type (0, 1), BuildingBlock: KIFKEQ_clean_linker_1, # of connection points: 2
#     Edge 69, Type (0, 1), BuildingBlock: KIFKEQ_clean_linker_1, # of connection points: 2
#     Edge 70, Type (0, 1), BuildingBlock: KIFKEQ_clean_linker_1, # of connection points: 2
#     Edge 71, Type (0, 1), BuildingBlock: KIFKEQ_clean_linker_1, # of connection points: 2
#     Edge 72, Type (0, 1), BuildingBlock: KIFKEQ_clean_linker_1, # of connection points: 2
#     Edge 73, Type (0, 1), BuildingBlock: KIFKEQ_clean_linker_1, # of connection points: 2
#     Edge 74, Type (0, 1), BuildingBlock: KIFKEQ_clean_linker_1, # of connection points: 2
#     Edge 75, Type (0, 1), BuildingBlock: KIFKEQ_clean_linker_1, # of connection points: 2
#     Edge 76, Type (0, 1), BuildingBlock: KIFKEQ_clean_linker_1, # of connection points: 2
#     Edge 77, Type (0, 1), BuildingBlock: KIFKEQ_clean_linker_1, # of connection points: 2
#     Edge 78, Type (0, 1), BuildingBlock: KIFKEQ_clean_linker_1, # of connection points: 2
#     Edge 79, Type (0, 1), BuildingBlock: KIFKEQ_clean_linker_1, # of connection points: 2
#     Edge 80, Type (0, 1), BuildingBlock: KIFKEQ_clean_linker_1, # of connection points: 2
#     Edge 81, Type (0, 1), BuildingBlock: KIFKEQ_clean_linker_1, # of connection points: 2
#     Edge 82, Type (0, 1), BuildingBlock: KIFKEQ_clean_linker_1, # of connection points: 2
#     Edge 83, Type (0, 1), BuildingBlock: KIFKEQ_clean_linker_1, # of connection points: 2
#     Edge 84, Type (0, 1), BuildingBlock: KIFKEQ_clean_linker_1, # of connection points: 2
#     Edge 85, Type (0, 1), BuildingBlock: KIFKEQ_clean_linker_1, # of connection points: 2
#     Edge 86, Type (0, 1), BuildingBlock: KIFKEQ_clean_linker_1, # of connection points: 2
#     Edge 87, Type (0, 1), BuildingBlock: KIFKEQ_clean_linker_1, # of connection points: 2
#     Edge 88, Type (0, 1), BuildingBlock: KIFKEQ_clean_linker_1, # of connection points: 2
#     Edge 89, Type (0, 1), BuildingBlock: KIFKEQ_clean_linker_1, # of connection points: 2
#     Edge 90, Type (0, 1), BuildingBlock: KIFKEQ_clean_linker_1, # of connection points: 2
#     Edge 91, Type (0, 1), BuildingBlock: KIFKEQ_clean_linker_1, # of connection points: 2
#     Edge 92, Type (0, 1), BuildingBlock: KIFKEQ_clean_linker_1, # of connection points: 2
#     Edge 93, Type (0, 1), BuildingBlock: KIFKEQ_clean_linker_1, # of connection points: 2
#     Edge 94, Type (0, 1), BuildingBlock: KIFKEQ_clean_linker_1, # of connection points: 2
#     Edge 95, Type (0, 1), BuildingBlock: KIFKEQ_clean_linker_1, # of connection points: 2
#     Edge 96, Type (0, 1), BuildingBlock: KIFKEQ_clean_linker_1, # of connection points: 2
#     Edge 97, Type (0, 1), BuildingBlock: KIFKEQ_clean_linker_1, # of connection points: 2
#     Edge 98, Type (0, 1), BuildingBlock: KIFKEQ_clean_linker_1, # of connection points: 2
#     Edge 99, Type (0, 1), BuildingBlock: KIFKEQ_clean_linker_1, # of connection points: 2
#     Edge 100, Type (0, 1), BuildingBlock: KIFKEQ_clean_linker_1, # of connection points: 2
#     Edge 101, Type (0, 1), BuildingBlock: KIFKEQ_clean_linker_1, # of connection points: 2
#     Edge 102, Type (0, 1), BuildingBlock: KIFKEQ_clean_linker_1, # of connection points: 2
#     Edge 103, Type (0, 1), BuildingBlock: KIFKEQ_clean_linker_1, # of connection points: 2
#     Edge 104, Type (0, 1), BuildingBlock: KIFKEQ_clean_linker_1, # of connection points: 2
#     Edge 105, Type (0, 1), BuildingBlock: KIFKEQ_clean_linker_1, # of connection points: 2
#     Edge 106, Type (0, 1), BuildingBlock: KIFKEQ_clean_linker_1, # of connection points: 2
#     Edge 107, Type (0, 1), BuildingBlock: KIFKEQ_clean_linker_1, # of connection points: 2
#     Edge 108, Type (0, 1), BuildingBlock: KIFKEQ_clean_linker_1, # of connection points: 2
#     Edge 109, Type (0, 1), BuildingBlock: KIFKEQ_clean_linker_1, # of connection points: 2
#     Edge 110, Type (0, 1), BuildingBlock: KIFKEQ_clean_linker_1, # of connection points: 2
#     Edge 111, Type (0, 1), BuildingBlock: KIFKEQ_clean_linker_1, # of connection points: 2
#     Edge 112, Type (0, 1), BuildingBlock: KIFKEQ_clean_linker_1, # of connection points: 2
#     Edge 113, Type (0, 1), BuildingBlock: KIFKEQ_clean_linker_1, # of connection points: 2
#     Edge 114, Type (0, 1), BuildingBlock: KIFKEQ_clean_linker_1, # of connection points: 2
#     Edge 115, Type (0, 1), BuildingBlock: KIFKEQ_clean_linker_1, # of connection points: 2
#     Edge 116, Type (0, 1), BuildingBlock: KIFKEQ_clean_linker_1, # of connection points: 2
#     Edge 117, Type (0, 1), BuildingBlock: KIFKEQ_clean_linker_1, # of connection points: 2
#     Edge 118, Type (0, 1), BuildingBlock: KIFKEQ_clean_linker_1, # of connection points: 2
#     Edge 119, Type (0, 1), BuildingBlock: KIFKEQ_clean_linker_1, # of connection points: 2
#     Edge 120, Type (0, 1), BuildingBlock: KIFKEQ_clean_linker_1, # of connection points: 2
#     Edge 121, Type (0, 1), BuildingBlock: KIFKEQ_clean_linker_1, # of connection points: 2
#     Edge 122, Type (0, 1), BuildingBlock: KIFKEQ_clean_linker_1, # of connection points: 2
#     Edge 123, Type (0, 1), BuildingBlock: KIFKEQ_clean_linker_1, # of connection points: 2
#     Edge 124, Type (0, 1), BuildingBlock: KIFKEQ_clean_linker_1, # of connection points: 2
#     Edge 125, Type (0, 1), BuildingBlock: KIFKEQ_clean_linker_1, # of connection points: 2
#     Edge 126, Type (0, 1), BuildingBlock: KIFKEQ_clean_linker_1, # of connection points: 2
#     Edge 127, Type (0, 1), BuildingBlock: KIFKEQ_clean_linker_1, # of connection points: 2
#     Edge 128, Type (0, 1), BuildingBlock: KIFKEQ_clean_linker_1, # of connection points: 2
#     Edge 129, Type (0, 1), BuildingBlock: KIFKEQ_clean_linker_1, # of connection points: 2
#     Edge 130, Type (0, 1), BuildingBlock: KIFKEQ_clean_linker_1, # of connection points: 2
#     Edge 131, Type (0, 1), BuildingBlock: KIFKEQ_clean_linker_1, # of connection points: 2
#     Edge 132, Type (0, 1), BuildingBlock: KIFKEQ_clean_linker_1, # of connection points: 2
#     Edge 133, Type (0, 1), BuildingBlock: KIFKEQ_clean_linker_1, # of connection points: 2
#     Edge 134, Type (0, 1), BuildingBlock: KIFKEQ_clean_linker_1, # of connection points: 2
#     Edge 135, Type (0, 1), BuildingBlock: KIFKEQ_clean_linker_1, # of connection points: 2
# Relax obj value: 0.110
# Max RMSD: 0.289
# Mean RMSD: 0.155
data_MOF--net-gar--node1-TATPOV_clean_sbu_0--node2-MIFKUJ_clean_sbu_0--edge1-KIFKEQ_clean_linker_1
_symmetry_space_group_name_H-M    P1
_symmetry_Int_Tables_number       1
_symmetry_cell_setting            triclinic
loop_
_symmetry_equiv_pos_as_xyz
'x, y, z'
_cell_length_a     56.628669
_cell_length_b     56.908361
_cell_length_c     55.319147
_cell_angle_alpha  94.939201
_cell_angle_beta   95.260496
_cell_angle_gamma 100.83484
loop_
_atom_site_label
_atom_site_type_symbol
_atom_site_fract_x
_atom_site_fract_y
_atom_site_fract_z
_atom_type_partial_charge
Zn0 Zn 0.99552 0.26596 0.47121 0.0
Zn1 Zn 0.02508 0.26642 0.4362 0.0
O2 O 0.03525 0.30069 0.45423 0.0
O3 O 0.01217 0.29941 0.48427 0.0
O4 O 0.05051 0.26419 0.41312 0.0
O5 O 0.00606 0.23853 0.48603 0.0
O6 O 0.02946 0.23822 0.45644 0.0
C7 C 0.0286 0.31076 0.47325 0.0
C8 C 0.97103 0.25991 0.42162 0.0
O9 O 0.99227 0.26219 0.41501 0.0
O10 O 0.96799 0.26035 0.44406 0.0
C11 C 0.05206 0.27181 0.39228 0.0
O12 O 0.03549 0.28298 0.38325 0.0
C13 C 0.02153 0.22952 0.4753 0.0
Zn14 Zn 0.98312 0.70137 0.66687 0.0
Zn15 Zn 0.98632 0.73869 0.63905 0.0
O16 O 0.9608 0.74404 0.66173 0.0
O17 O 0.96012 0.716 0.68686 0.0
O18 O 0.98759 0.76676 0.61931 0.0
O19 O 0.01936 0.71133 0.67619 0.0
O20 O 0.02086 0.74269 0.65522 0.0
C21 C 0.95285 0.73436 0.68005 0.0
C22 C 0.97152 0.68693 0.615 0.0
O23 O 0.97729 0.70946 0.6137 0.0
O24 O 0.97119 0.67883 0.63565 0.0
C25 C 0.99678 0.76807 0.59924 0.0
O26 O 0.00638 0.75028 0.59049 0.0
C27 C 0.03137 0.73001 0.66892 0.0
Zn28 Zn 0.48924 0.77561 0.96772 0.0
Zn29 Zn 0.52382 0.77734 0.93718 0.0
O30 O 0.53359 0.80934 0.95933 0.0
O31 O 0.50707 0.80678 0.9862 0.0
O32 O 0.55108 0.77823 0.91606 0.0
O33 O 0.4959 0.74451 0.97853 0.0
O34 O 0.52442 0.74641 0.95385 0.0
C35 C 0.52556 0.81825 0.97811 0.0
C36 C 0.47203 0.77712 0.91671 0.0
O37 O 0.49389 0.77682 0.91318 0.0
O38 O 0.46565 0.7766 0.93807 0.0
C39 C 0.55168 0.76118 0.89981 0.0
O40 O 0.53366 0.74252 0.89616 0.0
C41 C 0.51259 0.73579 0.96965 0.0
Zn42 Zn 0.49343 0.20761 0.17194 0.0
Zn43 Zn 0.49884 0.24654 0.14635 0.0
O44 O 0.47237 0.25122 0.16834 0.0
O45 O 0.46856 0.22069 0.19047 0.0
O46 O 0.50115 0.27559 0.12769 0.0
O47 O 0.52939 0.21719 0.18385 0.0
O48 O 0.53296 0.24919 0.16369 0.0
C49 C 0.46241 0.23998 0.18488 0.0
C50 C 0.4834 0.19564 0.11966 0.0
O51 O 0.48956 0.21832 0.11956 0.0
O52 O 0.48279 0.18647 0.13974 0.0
C53 C 0.50932 0.27676 0.10708 0.0
O54 O 0.5176 0.25848 0.09734 0.0
C55 C 0.54236 0.23592 0.17764 0.0
Zn56 Zn 0.07311 0.78308 0.13035 0.0
Zn57 Zn 0.03486 0.77605 0.15635 0.0
O58 O 0.02846 0.8014 0.1335 0.0
O59 O 0.05808 0.80534 0.11016 0.0
O60 O 0.00491 0.77248 0.17389 0.0
O61 O 0.06622 0.74737 0.1196 0.0
O62 O 0.03392 0.74225 0.13941 0.0
C63 C 0.03855 0.81078 0.11601 0.0
C64 C 0.08574 0.79527 0.18234 0.0
O65 O 0.06331 0.7872 0.18322 0.0
O66 O 0.09419 0.79628 0.16194 0.0
C67 C 0.00362 0.77041 0.19646 0.0
O68 O 0.02324 0.76955 0.21071 0.0
C69 C 0.0479 0.73368 0.12575 0.0
Zn70 Zn 0.47796 0.73286 0.409 0.0
Zn71 Zn 0.50723 0.73589 0.37381 0.0
O72 O 0.51404 0.77055 0.39058 0.0
O73 O 0.4879 0.7685 0.4178 0.0
O74 O 0.53052 0.73623 0.34836 0.0
O75 O 0.49616 0.71129 0.42644 0.0
O76 O 0.51695 0.71015 0.39475 0.0
C77 C 0.50431 0.78071 0.40739 0.0
C78 C 0.4528 0.7205 0.36054 0.0
O79 O 0.47383 0.72718 0.3541 0.0
O80 O 0.44998 0.71972 0.38294 0.0
C81 C 0.54058 0.75488 0.33934 0.0
O82 O 0.53532 0.77581 0.34613 0.0
C83 C 0.512 0.70328 0.41534 0.0
Zn84 Zn 0.57094 0.27951 0.63071 0.0
Zn85 Zn 0.5337 0.27455 0.65827 0.0
O86 O 0.52893 0.30127 0.63636 0.0
O87 O 0.55801 0.30406 0.61236 0.0
O88 O 0.50386 0.27235 0.67595 0.0
O89 O 0.56068 0.24443 0.61786 0.0
O90 O 0.53023 0.24074 0.6403 0.0
C91 C 0.53926 0.31065 0.61898 0.0
C92 C 0.58539 0.28923 0.68298 0.0
O93 O 0.56283 0.28306 0.68472 0.0
O94 O 0.59308 0.28984 0.66219 0.0
C95 C 0.5018 0.27004 0.69837 0.0
O96 O 0.52082 0.26818 0.71303 0.0
C97 C 0.54231 0.23162 0.62492 0.0
Zn98 Zn 0.97047 0.24133 0.91173 0.0
Zn99 Zn 0.00794 0.24894 0.88506 0.0
O100 O 0.01032 0.28239 0.90329 0.0
O101 O 0.97846 0.27679 0.92372 0.0
O102 O 0.03681 0.25204 0.86595 0.0
O103 O 0.98503 0.21777 0.93033 0.0
O104 O 0.01422 0.22234 0.9065 0.0
C105 C 0.99669 0.29063 0.91759 0.0
C106 C 0.95612 0.23297 0.86005 0.0
O107 O 0.9786 0.24055 0.85898 0.0
O108 O 0.94815 0.23024 0.88051 0.0
C109 C 0.03785 0.2588 0.84469 0.0
O110 O 0.019 0.26538 0.83359 0.0
C111 C 0.0043 0.21231 0.92376 0.0
Zn112 Zn 0.44493 0.01499 0.27865 0.0
Zn113 Zn 0.41008 0.04002 0.2762 0.0
O114 O 0.42663 0.05141 0.31148 0.0
O115 O 0.45521 0.02987 0.3128 0.0
O116 O 0.38402 0.05945 0.27068 0.0
O117 O 0.4615 0.0306 0.25256 0.0
O118 O 0.43127 0.04978 0.2484 0.0
C119 C 0.44484 0.04536 0.32285 0.0
C120 C 0.39788 0.98486 0.26935 0.0
O121 O 0.39095 0.00489 0.27199 0.0
O122 O 0.42019 0.98431 0.27056 0.0
C123 C 0.3689 0.06316 0.2855 0.0
O124 O 0.36991 0.0542 0.3066 0.0
C125 C 0.45111 0.04521 0.24184 0.0
Zn126 Zn 0.22055 0.15973 0.49376 0.0
Zn127 Zn 0.25776 0.1373 0.4951 0.0
O128 O 0.26301 0.15919 0.46685 0.0
O129 O 0.23406 0.18004 0.4686 0.0
O130 O 0.28676 0.1208 0.49579 0.0
O131 O 0.22897 0.17164 0.5294 0.0
O132 O 0.2614 0.15551 0.52982 0.0
C133 C 0.2525 0.17559 0.45923 0.0
C134 C 0.20522 0.10888 0.48379 0.0
O135 O 0.22777 0.10947 0.48884 0.0
O136 O 0.1974 0.12827 0.48339 0.0
C137 C 0.2857 0.09819 0.4953 0.0
O138 O 0.26454 0.08374 0.4943 0.0
C139 C 0.24811 0.16782 0.54074 0.0
Zn140 Zn 0.10788 0.04579 0.78581 0.0
Zn141 Zn 0.13712 0.01434 0.78567 0.0
O142 O 0.11725 0.00763 0.81493 0.0
O143 O 0.08917 0.02953 0.81106 0.0
O144 O 0.15795 0.98913 0.78654 0.0
O145 O 0.09697 0.03566 0.7501 0.0
O146 O 0.11812 0.00698 0.75126 0.0
C147 C 0.0983 0.01406 0.82177 0.0
C148 C 0.15845 0.06813 0.79468 0.0
O149 O 0.16139 0.04663 0.78982 0.0
O150 O 0.13738 0.0724 0.79578 0.0
C151 C 0.17008 0.98397 0.76928 0.0
O152 O 0.16974 0.99586 0.74995 0.0
C153 C 0.10355 0.01769 0.7396 0.0
Zn154 Zn 0.28465 0.83895 0.00746 0.0
Zn155 Zn 0.25745 0.87188 0.0132 0.0
O156 O 0.24528 0.85597 0.97791 0.0
O157 O 0.26614 0.82695 0.97505 0.0
O158 O 0.23518 0.89492 0.02019 0.0
O159 O 0.2741 0.82269 0.03612 0.0
O160 O 0.25128 0.84972 0.04077 0.0
C161 C 0.25032 0.83765 0.96606 0.0
C162 C 0.31224 0.88769 0.01465 0.0
O163 O 0.2916 0.89324 0.01627 0.0
O164 O 0.31388 0.86581 0.01087 0.0
C165 C 0.23245 0.91211 0.00767 0.0
O166 O 0.24487 0.9157 0.98895 0.0
C167 C 0.25876 0.83127 0.04751 0.0
Zn168 Zn 0.29649 0.35253 0.03549 0.0
Zn169 Zn 0.26283 0.37907 0.03422 0.0
O170 O 0.25899 0.36203 -0.001 0.0
O171 O 0.2872 0.34014 0.0001 0.0
O172 O 0.23541 0.39772 0.03327 0.0
O173 O 0.28219 0.33362 0.06097 0.0
O174 O 0.25495 0.35652 0.06193 0.0
C175 C 0.2701 0.34728 0.98836 0.0
C176 C 0.31657 0.40296 0.04552 0.0
O177 O 0.29456 0.40497 0.04103 0.0
O178 O 0.322 0.38236 0.04529 0.0
C179 C 0.23622 0.41818 0.02529 0.0
O180 O 0.25623 0.42891 0.01738 0.0
C181 C 0.26402 0.33932 0.06989 0.0
Zn182 Zn 0.75809 0.18125 0.04057 0.0
Zn183 Zn 0.78736 0.15188 0.034 0.0
O184 O 0.79116 0.17195 0.00475 0.0
O185 O 0.76336 0.19395 0.00879 0.0
O186 O 0.81065 0.12947 0.03005 0.0
O187 O 0.77905 0.19925 0.06925 0.0
O188 O 0.80168 0.17181 0.0671 0.0
C189 C 0.77993 0.18785 -0.00268 0.0
C190 C 0.73348 0.13306 0.03836 0.0
O191 O 0.75391 0.12918 0.0329 0.0
O192 O 0.73077 0.15432 0.04404 0.0
C193 C 0.81337 0.11803 0.01004 0.0
O194 O 0.79983 0.1201 0.99004 0.0
C195 C 0.79699 0.19099 0.07755 0.0
Zn196 Zn 0.11546 0.54398 0.25283 0.0
Zn197 Zn 0.14236 0.51254 0.25552 0.0
O198 O 0.12403 0.50901 0.2858 0.0
O199 O 0.10723 0.54089 0.28671 0.0
O200 O 0.16336 0.48772 0.25718 0.0
O201 O 0.09318 0.52388 0.22585 0.0
O202 O 0.11961 0.50019 0.22376 0.0
C203 C 0.11161 0.52254 0.29623 0.0
C204 C 0.16373 0.56563 0.25099 0.0
O205 O 0.16669 0.54488 0.25618 0.0
O206 O 0.14261 0.5695 0.24634 0.0
C207 C 0.17424 0.48316 0.27685 0.0
O208 O 0.17251 0.49559 0.29753 0.0
C209 C 0.09983 0.50584 0.21569 0.0
Zn210 Zn 0.79472 0.85109 0.53878 0.0
Zn211 Zn 0.76146 0.87773 0.53827 0.0
O212 O 0.75657 0.86115 0.50266 0.0
O213 O 0.78462 0.83907 0.50345 0.0
O214 O 0.73481 0.89727 0.53939 0.0
O215 O 0.78113 0.83191 0.56434 0.0
O216 O 0.75388 0.85474 0.5657 0.0
C217 C 0.76751 0.84631 0.49187 0.0
C218 C 0.81554 0.9011 0.54864 0.0
O219 O 0.79354 0.90327 0.54454 0.0
O220 O 0.82081 0.88044 0.54831 0.0
C221 C 0.73491 0.91645 0.52908 0.0
O222 O 0.75311 0.92441 0.5169 0.0
C223 C 0.76303 0.83751 0.57346 0.0
Zn224 Zn 0.92512 0.98233 0.24727 0.0
Zn225 Zn 0.90005 0.01647 0.25187 0.0
O226 O 0.91909 0.01873 0.28629 0.0
O227 O 0.93658 0.98737 0.28302 0.0
O228 O 0.88244 0.0446 0.25468 0.0
O229 O 0.94585 -0.00106 0.22403 0.0
O230 O 0.92074 0.02418 0.22289 0.0
C231 C 0.93203 0.00511 0.29589 0.0
C232 C 0.87419 0.96402 0.23772 0.0
O233 O 0.87319 0.98563 0.24517 0.0
O234 O 0.89444 0.95832 0.23509 0.0
C235 C 0.86106 0.04378 0.26048 0.0
O236 O 0.84835 0.02319 0.26512 0.0
C237 C 0.93877 0.01647 0.21516 0.0
Zn238 Zn 0.25127 0.66796 0.53608 0.0
Zn239 Zn 0.28208 0.64231 0.53187 0.0
O240 O 0.28704 0.66371 0.50353 0.0
O241 O 0.25315 0.67734 0.50231 0.0
O242 O 0.30658 0.621 0.52871 0.0
O243 O 0.27141 0.68946 0.56365 0.0
O244 O 0.29331 0.66155 0.56605 0.0
C245 C 0.2724 0.67522 0.4932 0.0
C246 C 0.22855 0.6205 0.53481 0.0
O247 O 0.24902 0.61806 0.52815 0.0
O248 O 0.2253 0.64111 0.5424 0.0
C249 C 0.30953 0.60971 0.50869 0.0
O250 O 0.29587 0.61156 0.4887 0.0
C251 C 0.28817 0.68128 0.57464 0.0
Zn252 Zn 0.42553 0.4758 0.74647 0.0
Zn253 Zn 0.40245 0.51186 0.74946 0.0
O254 O 0.42016 0.51417 0.78432 0.0
O255 O 0.43668 0.4821 0.78241 0.0
O256 O 0.38579 0.54046 0.75068 0.0
O257 O 0.44661 0.49064 0.72257 0.0
O258 O 0.42451 0.51853 0.72155 0.0
C259 C 0.43242 0.5004 0.79463 0.0
C260 C 0.37439 0.46009 0.73567 0.0
O261 O 0.37446 0.48216 0.74216 0.0
O262 O 0.39414 0.45293 0.73451 0.0
C263 C 0.36518 0.54057 0.75809 0.0
O264 O 0.35331 0.52101 0.76581 0.0
C265 C 0.4415 0.50907 0.71376 0.0
Zn266 Zn 0.61036 0.03991 0.74184 0.0
Zn267 Zn 0.63701 0.00773 0.74744 0.0
O268 O 0.61827 0.00612 0.77769 0.0
O269 O 0.60106 0.03761 0.77566 0.0
O270 O 0.65769 0.98278 0.75075 0.0
O271 O 0.58904 0.01866 0.71471 0.0
O272 O 0.61536 0.99465 0.71509 0.0
C273 C 0.60554 0.02016 0.78679 0.0
C274 C 0.65973 0.06013 0.74169 0.0
O275 O 0.6618 0.03945 0.74778 0.0
O276 O 0.63899 0.06451 0.73581 0.0
C277 C 0.66889 0.97923 0.77068 0.0
O278 O 0.66754 0.99271 0.79082 0.0
C279 C 0.59604 0.00029 0.70578 0.0
Zn280 Zn 0.72907 0.65993 -0.00165 0.0
Zn281 Zn 0.76568 0.63762 -8e-05 0.0
O282 O 0.7704 0.65883 0.97084 0.0
O283 O 0.74231 0.68063 0.97352 0.0
O284 O 0.79504 0.62158 0.00122 0.0
O285 O 0.73646 0.67196 0.0339 0.0
O286 O 0.76916 0.65631 0.03452 0.0
C287 C 0.76017 0.67554 0.96351 0.0
C288 C 0.71347 0.60906 0.98855 0.0
O289 O 0.73591 0.60938 0.99412 0.0
O290 O 0.70597 0.62859 0.9876 0.0
C291 C 0.79516 0.60067 0.00778 0.0
O292 O 0.77518 0.588 0.01397 0.0
C293 C 0.75566 0.66844 0.04535 0.0
Zn294 Zn 0.94079 0.50106 0.77451 0.0
Zn295 Zn 0.91033 0.5309 0.77087 0.0
O296 O 0.93005 0.54288 0.80448 0.0
O297 O 0.95664 0.51917 0.80585 0.0
O298 O 0.88836 0.55486 0.76763 0.0
O299 O 0.95523 0.51086 0.74476 0.0
O300 O 0.93081 0.53666 0.74203 0.0
C301 C 0.94852 0.5367 0.81513 0.0
C302 C 0.89155 0.47643 0.77091 0.0
O303 O 0.88743 0.49755 0.76923 0.0
O304 O 0.91311 0.4732 0.77349 0.0
C305 C 0.86598 0.55037 0.75974 0.0
O306 O 0.85494 0.52804 0.75287 0.0
C307 C 0.94804 0.52757 0.73438 0.0
Zn308 Zn 0.78471 0.34417 0.50382 0.0
Zn309 Zn 0.75407 0.37337 0.51143 0.0
O310 O 0.73951 0.35571 0.47761 0.0
O311 O 0.76359 0.32969 0.47345 0.0
O312 O 0.73137 0.39545 0.51949 0.0
O313 O 0.77787 0.32846 0.53381 0.0
O314 O 0.75085 0.35117 0.53893 0.0
C315 C 0.74525 0.33776 0.46582 0.0
C316 C 0.80808 0.39349 0.50834 0.0
O317 O 0.78694 0.39658 0.51207 0.0
O318 O 0.81193 0.37243 0.50387 0.0
C319 C 0.73165 0.41501 0.50995 0.0
O320 O 0.74704 0.42099 0.49408 0.0
C321 C 0.76128 0.33436 0.54538 0.0
Zn322 Zn 0.61565 0.54858 0.28817 0.0
Zn323 Zn 0.64144 0.51413 0.28712 0.0
O324 O 0.61928 0.50699 0.31493 0.0
O325 O 0.59568 0.53353 0.31286 0.0
O326 O 0.65936 0.48624 0.28617 0.0
O327 O 0.60428 0.5402 0.25235 0.0
O328 O 0.62328 0.50984 0.25239 0.0
C329 C 0.60163 0.5157 0.32224 0.0
C330 C 0.66654 0.56739 0.29849 0.0
O331 O 0.66794 0.54542 0.29335 0.0
O332 O 0.64609 0.57324 0.29898 0.0
C333 C 0.68099 0.48696 0.28119 0.0
O334 O 0.69397 0.50744 0.27663 0.0
C335 C 0.60978 0.52195 0.2412 0.0
Zn336 Zn 0.04554 0.00221 0.03303 0.0
Zn337 Zn 1.00003 0.02254 0.00752 0.0
C338 C 0.02401 0.96494 0.05815 0.0
O339 O 0.0357 0.98089 0.07586 0.0
C340 C 0.02201 0.05871 0.98153 0.0
O341 O 0.00907 0.04294 0.96435 0.0
O342 O 0.07957 0.99647 0.04116 0.0
O343 O 0.04585 0.00823 -0.00239 0.0
O344 O 0.00737 0.99656 0.98377 0.0
C345 C 0.08309 0.97904 0.02679 0.0
O346 O 0.0649 0.96709 0.01139 0.0
O347 O 0.0242 0.97027 0.03632 0.0
C348 C 0.96428 0.04889 0.00983 0.0
O349 O 0.98244 0.06091 0.02523 0.0
O350 O 0.96692 0.0296 -0.00215 0.0
O351 O 0.99861 0.01776 0.04299 0.0
O352 O 0.03708 0.02685 0.05794 0.0
O353 O 0.02269 0.05358 0.00347 0.0
C354 C 0.02955 0.99856 0.98046 0.0
C355 C 0.01486 0.02606 0.06061 0.0
Zn356 Zn 0.26883 0.77715 0.31184 0.0
Zn357 Zn 0.26562 0.77501 0.25834 0.0
C358 C 0.2624 0.72494 0.31014 0.0
O359 O 0.2767 0.72942 0.33077 0.0
C360 C 0.29972 0.81675 0.2562 0.0
O361 O 0.30888 0.80019 0.24435 0.0
O362 O 0.2713 0.77793 0.34824 0.0
O363 O 0.30234 0.78346 0.30174 0.0
O364 O 0.29126 0.75681 0.26954 0.0
C365 C 0.29093 0.78439 0.36229 0.0
O366 O 0.31058 0.7949 0.35363 0.0
O367 O 0.25609 0.74222 0.29977 0.0
C368 C 0.24171 0.77839 0.21235 0.0
O369 O 0.22832 0.7885 0.22663 0.0
O370 O 0.25908 0.76981 0.22194 0.0
O371 O 0.23302 0.76749 0.27087 0.0
O372 O 0.24411 0.79661 0.30057 0.0
O373 O 0.27987 0.81051 0.26511 0.0
C374 C 0.30691 0.76671 0.2872 0.0
C375 C 0.22768 0.78385 0.28517 0.0
Zn376 Zn 0.48171 0.01744 0.51992 0.0
Zn377 Zn 0.54096 0.99441 0.50191 0.0
C378 C 0.48868 0.05901 0.55193 0.0
O379 O 0.46974 0.04545 0.55918 0.0
C380 C 0.54369 0.95707 0.46472 0.0
O381 O 0.56457 0.97101 0.46274 0.0
O382 O 0.44618 0.01887 0.51186 0.0
O383 O 0.49702 0.006 0.49153 0.0
O384 O 0.5328 0.02098 0.48243 0.0
C385 C 0.44261 0.03779 0.50254 0.0
O386 O 0.46142 0.05348 0.49798 0.0
O387 O 0.49848 0.05074 0.53413 0.0
C388 C 0.58711 0.99201 0.53001 0.0
O389 O 0.5742 0.98976 0.5485 0.0
O390 O 0.57724 0.99636 0.5097 0.0
O391 O 0.52232 0.98942 0.53187 0.0
O392 O 0.48858 0.99679 0.546 0.0
O393 O 0.53009 0.96381 0.47984 0.0
C394 C 0.5104 0.02138 0.481 0.0
C395 C 0.50774 0.98805 0.54825 0.0
Zn396 Zn 0.2913 0.26414 0.76274 0.0
Zn397 Zn 0.23903 0.26632 0.76191 0.0
C398 C 0.28764 0.23381 0.71859 0.0
O399 O 0.29981 0.22259 0.73362 0.0
C400 C 0.23932 0.29371 0.8073 0.0
O401 O 0.22414 0.30291 0.79334 0.0
O402 O 0.32742 0.26581 0.76557 0.0
O403 O 0.2862 0.29813 0.77009 0.0
O404 O 0.25439 0.2928 0.74282 0.0
C405 C 0.33853 0.28043 0.75232 0.0
O406 O 0.32622 0.29385 0.74012 0.0
O407 O 0.28103 0.25285 0.72687 0.0
C408 C 0.19173 0.24786 0.77106 0.0
O409 O 0.20401 0.2332 0.78127 0.0
O410 O 0.20279 0.26396 0.75927 0.0
O411 O 0.2445 0.2325 0.75425 0.0
O412 O 0.27559 0.23822 0.78235 0.0
O413 O 0.24925 0.27737 0.79785 0.0
C414 C 0.27283 0.30658 0.75472 0.0
C415 C 0.25727 0.22434 0.77039 0.0
Zn416 Zn 0.01606 0.96781 0.51506 0.0
Zn417 Zn 0.01948 0.01956 0.51996 0.0
C418 C 0.04462 0.96968 0.56093 0.0
O419 O 0.05618 0.9567 0.5472 0.0
C420 C 0.99136 0.02379 0.47585 0.0
O421 O 0.98062 0.03547 0.49166 0.0
O422 O 0.01202 0.93175 0.51234 0.0
O423 O 0.98295 0.97563 0.50713 0.0
O424 O 0.99123 0.00463 0.53722 0.0
C425 C 0.99449 0.92115 0.5227 0.0
O426 O 0.97966 0.93388 0.53176 0.0
O427 O 0.02652 0.97708 0.55118 0.0
C428 C 0.04203 0.06745 0.51735 0.0
O429 O 0.05601 0.05604 0.50506 0.0
O430 O 0.02495 0.05531 0.52715 0.0
O431 O 0.05222 0.01082 0.52641 0.0
O432 O 0.04347 0.98201 0.49619 0.0
O433 O 0.00891 0.01439 0.48362 0.0
C434 C 0.97584 0.98842 0.52392 0.0
C435 C 0.05894 0.99849 0.50904 0.0
Zn436 Zn 0.25303 0.79011 0.75005 0.0
Zn437 Zn 0.29053 0.73864 0.77401 0.0
C438 C 0.2113 0.77745 0.71487 0.0
O439 O 0.2247 0.79233 0.70236 0.0
C440 C 0.33355 0.77454 0.79225 0.0
O441 O 0.31812 0.78867 0.79615 0.0
O442 O 0.25107 0.82541 0.75547 0.0
O443 O 0.25903 0.77595 0.78262 0.0
O444 O 0.27456 0.74961 0.80307 0.0
C445 C 0.23188 0.82918 0.76413 0.0
O446 O 0.21628 0.81068 0.76946 0.0
O447 O 0.2201 0.77306 0.73554 0.0
C448 C 0.30518 0.69628 0.75708 0.0
O449 O 0.32066 0.713 0.74871 0.0
O450 O 0.28848 0.70249 0.7686 0.0
O451 O 0.275 0.75354 0.7475 0.0
O452 O 0.27605 0.7829 0.72534 0.0
O453 O 0.32577 0.75345 0.78164 0.0
C454 C 0.26298 0.76687 0.80255 0.0
C455 C 0.28333 0.76384 0.7299 0.0
Zn456 Zn 0.51604 0.02529 0.9841 0.0
Zn457 Zn 0.51553 0.03297 0.03679 0.0
C458 C 0.56648 0.04843 0.98449 0.0
O459 O 0.55901 0.05334 0.96265 0.0
C460 C 0.47247 0.00302 0.04301 0.0
O461 O 0.48826 0.99791 0.05968 0.0
O462 O 0.5166 0.01742 0.94815 0.0
O463 O 0.50555 0.99397 -0.00269 0.0
O464 O 0.53232 0.00504 0.02951 0.0
C465 C 0.53028 0.00282 0.9428 0.0
O466 O 0.54088 0.99324 0.96052 0.0
O467 O 0.55131 0.03736 -0.00279 0.0
C468 C 0.50793 0.05921 0.07955 0.0
O469 O 0.49615 0.06901 0.06285 0.0
O470 O 0.5195 0.04313 0.07279 0.0
O471 O 0.52483 0.06361 0.02109 0.0
O472 O 0.49661 0.05117 0.99069 0.0
O473 O 0.47965 0.01913 0.02929 0.0
C474 C 0.52078 0.98869 0.01325 0.0
C475 C 0.50849 0.06812 0.00596 0.0
Zn476 Zn 0.26104 0.2314 0.2509 0.0
Zn477 Zn 0.23803 0.28047 0.27786 0.0
C478 C 0.30177 0.25598 0.2313 0.0
O479 O 0.28651 0.24912 0.2115 0.0
C480 C 0.20479 0.27123 0.31227 0.0
O481 O 0.22459 0.28211 0.32611 0.0
O482 O 0.2684 0.19836 0.24317 0.0
O483 O 0.2497 0.23138 0.28429 0.0
O484 O 0.26397 0.269 0.29903 0.0
C485 C 0.25944 0.17989 0.25314 0.0
O486 O 0.24155 0.18093 0.26647 0.0
O487 O 0.29439 0.25216 0.25192 0.0
C488 C 0.22224 0.32228 0.27255 0.0
O489 O 0.20619 0.30529 0.25924 0.0
O490 O 0.24024 0.31639 0.28434 0.0
O491 O 0.23586 0.27522 0.24099 0.0
O492 O 0.23973 0.24004 0.22322 0.0
O493 O 0.2058 0.26681 0.28948 0.0
C494 C 0.26091 0.24666 0.30157 0.0
C495 C 0.23494 0.26086 0.22187 0.0
Zn496 Zn 0.51924 0.47405 0.01737 0.0
Zn497 Zn 0.51918 0.52541 0.01965 0.0
C498 C 0.54839 0.47817 0.06258 0.0
O499 O 0.55998 0.46551 0.04855 0.0
C500 C 0.49036 0.52578 0.97502 0.0
O501 O 0.47892 0.53739 0.99021 0.0
O502 O 0.51693 0.43815 0.01614 0.0
O503 O 0.48538 0.47972 0.00868 0.0
O504 O 0.49192 0.50967 0.03771 0.0
C505 C 0.50028 0.42754 0.02761 0.0
O506 O 0.48521 0.44 0.03666 0.0
O507 O 0.52963 0.48476 0.05325 0.0
C508 C 0.53754 0.57411 0.01442 0.0
O509 O 0.55315 0.56398 0.00325 0.0
O510 O 0.52147 0.56106 0.02468 0.0
O511 O 0.55306 0.51951 0.02676 0.0
O512 O 0.54642 0.48877 -0.0015 0.0
O513 O 0.50868 0.51785 0.98344 0.0
C514 C 0.47737 0.49249 0.0248 0.0
C515 C 0.56088 0.50653 0.01069 0.0
Zn516 Zn 0.76456 0.29183 0.26208 0.0
Zn517 Zn 0.77793 0.23888 0.27974 0.0
C518 C 0.72252 0.27693 0.22811 0.0
O519 O 0.736 0.2915 0.21539 0.0
C520 C 0.81473 0.25565 0.31839 0.0
O521 O 0.79632 0.24747 0.33021 0.0
O522 O 0.76111 0.32691 0.26177 0.0
O523 O 0.77111 0.28658 0.29713 0.0
O524 O 0.75272 0.24939 0.29955 0.0
C525 C 0.74333 0.33119 0.27282 0.0
O526 O 0.73022 0.31346 0.28228 0.0
O527 O 0.7315 0.27273 0.24883 0.0
C528 C 0.79749 0.19879 0.26871 0.0
O529 O 0.81127 0.21652 0.25987 0.0
O530 O 0.77964 0.20331 0.27951 0.0
O531 O 0.77265 0.24479 0.24466 0.0
O532 O 0.78961 0.28228 0.24158 0.0
O533 O 0.81126 0.25562 0.29536 0.0
C534 C 0.7556 0.2718 0.30629 0.0
C535 C 0.78764 0.2599 0.23529 0.0
Zn536 Zn 0.01071 0.51605 0.48043 0.0
Zn537 Zn 0.01325 0.52497 0.53229 0.0
C538 C 0.06195 0.53629 0.47803 0.0
O539 O 0.05453 0.5401 0.45576 0.0
C540 C 0.96024 0.51811 0.53496 0.0
O541 O 0.96525 0.53391 0.55436 0.0
O542 O 0.00905 0.50769 0.44446 0.0
O543 O 0.99998 0.48505 0.49438 0.0
O544 O 0.02908 0.49651 0.52432 0.0
C545 C 0.02036 0.49112 0.43862 0.0
O546 O 0.02941 0.47999 0.45597 0.0
O547 O 0.04658 0.52707 0.49162 0.0
C548 C 0.01603 0.55356 0.57848 0.0
O549 O 0.01245 0.57058 0.5648 0.0
O550 O 0.01808 0.5332 0.56841 0.0
O551 O 0.02276 0.55572 0.51687 0.0
O552 O 0.9929 0.5429 0.48813 0.0
O553 O 0.9773 0.51266 0.52359 0.0
C554 C 0.01614 0.47984 0.5093 0.0
C555 C 0.00537 0.56 0.50289 0.0
Zn556 Zn 0.79631 0.7644 0.26758 0.0
Zn557 Zn 0.74428 0.76588 0.26559 0.0
C558 C 0.79295 0.73416 0.22341 0.0
O559 O 0.80532 0.72313 0.23847 0.0
C560 C 0.7421 0.79341 0.31058 0.0
O561 O 0.72708 0.80217 0.29599 0.0
O562 O 0.83241 0.76649 0.27 0.0
O563 O 0.791 0.79834 0.27505 0.0
O564 O 0.76007 0.7925 0.24676 0.0
C565 C 0.84293 0.781 0.25629 0.0
O566 O 0.83011 0.79408 0.24422 0.0
O567 O 0.78602 0.75301 0.23169 0.0
C568 C 0.69683 0.74707 0.27306 0.0
O569 O 0.70927 0.73382 0.28533 0.0
O570 O 0.70803 0.7627 0.26087 0.0
O571 O 0.75022 0.73198 0.25901 0.0
O572 O 0.78116 0.73827 0.2873 0.0
O573 O 0.75276 0.77737 0.30172 0.0
C574 C 0.77806 0.80656 0.2591 0.0
C575 C 0.76308 0.72407 0.27528 0.0
Zn576 Zn 0.77729 0.27067 0.79877 0.0
Zn577 Zn 0.76802 0.26801 0.74813 0.0
C578 C 0.75905 0.21891 0.80138 0.0
O579 O 0.7575 0.22512 0.82451 0.0
C580 C 0.772 0.32075 0.74755 0.0
O581 O 0.75433 0.31558 0.72967 0.0
O582 O 0.78491 0.27267 0.83481 0.0
O583 O 0.8088 0.28168 0.78501 0.0
O584 O 0.79648 0.25216 0.75594 0.0
C585 C 0.80275 0.26409 0.84325 0.0
O586 O 0.81704 0.25666 0.82813 0.0
O587 O 0.76661 0.23499 0.78781 0.0
C588 C 0.73984 0.26452 0.70134 0.0
O589 O 0.72191 0.26643 0.71438 0.0
O590 O 0.76053 0.26392 0.71202 0.0
O591 O 0.7368 0.25721 0.76231 0.0
O592 O 0.7487 0.28681 0.79134 0.0
O593 O 0.77964 0.30383 0.75743 0.0
C594 C 0.81365 0.26537 0.77019 0.0
C595 C 0.73167 0.27319 0.77725 0.0
Zn596 Zn 0.75944 0.729 0.75551 0.0
Zn597 Zn 0.73528 0.7785 0.78043 0.0
C598 C 0.80254 0.76306 0.74495 0.0
O599 O 0.78812 0.77022 0.7284 0.0
C600 C 0.70329 0.77082 0.81559 0.0
O601 O 0.7233 0.7829 0.82827 0.0
O602 O 0.76567 0.69516 0.74963 0.0
O603 O 0.74485 0.73024 0.7873 0.0
O604 O 0.76107 0.76732 0.80208 0.0
C605 C 0.78113 0.69114 0.7662 0.0
O606 O 0.7894 0.70799 0.78435 0.0
O607 O 0.79356 0.74846 0.75937 0.0
C608 C 0.71929 0.81979 0.77321 0.0
O609 O 0.70329 0.80226 0.76059 0.0
O610 O 0.73741 0.81451 0.7854 0.0
O611 O 0.73295 0.77146 0.74367 0.0
O612 O 0.74115 0.73806 0.72598 0.0
O613 O 0.70348 0.76518 0.79286 0.0
C614 C 0.75699 0.74496 0.80456 0.0
C615 C 0.73384 0.75774 0.72454 0.0
Zn616 Zn 0.54354 0.50165 0.52988 0.0
Zn617 Zn 0.49631 0.51435 0.50379 0.0
C618 C 0.52557 0.4649 0.55747 0.0
O619 O 0.53663 0.48213 0.57431 0.0
C620 C 0.52077 0.55155 0.47925 0.0
O621 O 0.51073 0.53587 0.46064 0.0
O622 O 0.57835 0.49929 0.53906 0.0
O623 O 0.54333 0.50584 0.49413 0.0
O624 O 0.50579 0.48954 0.47989 0.0
C625 C 0.58372 0.48291 0.52463 0.0
O626 O 0.56673 0.47009 0.50844 0.0
O627 O 0.52484 0.46904 0.53521 0.0
C628 C 0.45957 0.5388 0.50796 0.0
O629 O 0.47739 0.54992 0.52426 0.0
O630 O 0.46274 0.5206 0.49446 0.0
O631 O 0.49546 0.50833 0.53907 0.0
O632 O 0.5327 0.52634 0.55261 0.0
O633 O 0.51799 0.54627 0.50082 0.0
C634 C 0.52818 0.49387 0.47705 0.0
C635 C 0.51047 0.52097 0.55588 0.0
Zn636 Zn 0.9923 0.51924 0.02384 0.0
Zn637 Zn 0.0442 0.50827 0.00853 0.0
C638 C 0.00725 0.5585 0.05968 0.0
O639 O 0.99377 0.5431 0.07161 0.0
C640 C 0.02914 0.46809 0.97372 0.0
O641 O 0.04281 0.48282 0.9613 0.0
O642 O 0.95701 0.52213 0.02477 0.0
O643 O 0.99669 0.51392 0.98841 0.0
O644 O 0.03421 0.53282 0.9877 0.0
C645 C 0.95209 0.53931 0.01313 0.0
O646 O 0.96937 0.55203 0.00268 0.0
O647 O 0.01071 0.55199 0.03794 0.0
C648 C 0.0837 0.48708 0.01886 0.0
O649 O 0.06606 0.47447 0.02893 0.0
O650 O 0.07934 0.50461 0.00745 0.0
O651 O 0.04015 0.51403 0.04389 0.0
O652 O 0.00269 0.49504 0.04505 0.0
O653 O 0.0253 0.47559 0.99503 0.0
C654 C 0.01204 0.52879 0.97915 0.0
C655 C 0.02489 0.4995 0.05362 0.0
H656 H 0.04073 0.19024 0.90978 0.0
H657 H 0.99101 0.19181 0.96443 0.0
H658 H 0.05402 0.15598 0.92672 0.0
H659 H 0.00401 0.15764 0.98102 0.0
H660 H 0.03307 0.10008 0.01297 0.0
H661 H 0.03655 0.14105 0.00161 0.0
H662 H 0.03268 0.11403 0.92564 0.0
H663 H 0.0296 0.07334 0.93698 0.0
C664 C 0.0329 0.18353 0.9256 0.0
C665 C 0.01455 0.1935 0.93553 0.0
C666 C 0.04051 0.16392 0.93527 0.0
C667 C 0.03004 0.15406 0.95517 0.0
C668 C 0.0127 0.16497 0.96591 0.0
C669 C 0.00503 0.18442 0.95619 0.0
C670 C 0.0338 0.10302 0.99394 0.0
C671 C 0.03061 0.08351 0.9758 0.0
C672 C 0.03562 0.12645 0.98742 0.0
C673 C 0.03444 0.13071 0.9627 0.0
C674 C 0.03372 0.11141 0.94484 0.0
C675 C 0.03178 0.08804 0.95133 0.0
H676 H 0.1305 0.82398 0.18854 0.0
H677 H 0.07948 0.77912 0.22694 0.0
H678 H 0.16186 0.82605 0.22225 0.0
H679 H 0.1111 0.78109 0.26076 0.0
H680 H 0.18543 0.75224 0.27394 0.0
H681 H 0.14724 0.76071 0.25657 0.0
H682 H 0.17751 0.83687 0.2676 0.0
H683 H 0.21588 0.82826 0.28551 0.0
C684 C 0.12582 0.81511 0.2045 0.0
C685 C 0.10268 0.80103 0.20494 0.0
C686 C 0.14374 0.81649 0.22393 0.0
C687 C 0.13894 0.80359 0.24404 0.0
C688 C 0.11526 0.79113 0.2454 0.0
C689 C 0.09719 0.79003 0.22607 0.0
C690 C 0.18361 0.77082 0.27347 0.0
C691 C 0.20351 0.78961 0.28087 0.0
C692 C 0.16171 0.7757 0.26367 0.0
C693 C 0.15946 0.79946 0.26063 0.0
C694 C 0.17883 0.81841 0.26975 0.0
C695 C 0.20068 0.81351 0.28006 0.0
H696 H 0.49175 0.80604 0.44642 0.0
H697 H 0.53257 0.81461 0.38434 0.0
H698 H 0.50117 0.84917 0.45738 0.0
H699 H 0.54156 0.85823 0.39508 0.0
H700 H 0.57346 0.93181 0.44202 0.0
H701 H 0.5643 0.88931 0.42635 0.0
H702 H 0.49043 0.88466 0.44251 0.0
H703 H 0.49975 0.92683 0.45883 0.0
C704 C 0.50268 0.81716 0.43502 0.0
C705 C 0.51131 0.8069 0.41442 0.0
C706 C 0.50791 0.84194 0.4412 0.0
C707 C 0.52176 0.85716 0.42686 0.0
C708 C 0.53087 0.84694 0.40651 0.0
C709 C 0.5257 0.82199 0.40035 0.0
C710 C 0.55518 0.92177 0.4419 0.0
C711 C 0.53739 0.93252 0.45196 0.0
C712 C 0.54993 0.89744 0.43285 0.0
C713 C 0.52676 0.88354 0.43358 0.0
C714 C 0.50863 0.89475 0.44229 0.0
C715 C 0.51392 0.91894 0.4515 0.0
H716 H 0.45986 0.27485 0.67271 0.0
H717 H 0.49032 0.26685 0.7454 0.0
H718 H 0.42157 0.2778 0.688 0.0
H719 H 0.45171 0.27008 0.76079 0.0
H720 H 0.36808 0.25074 0.76914 0.0
H721 H 0.40832 0.24809 0.7576 0.0
H722 H 0.4065 0.30749 0.71432 0.0
H723 H 0.36651 0.31002 0.72555 0.0
C724 C 0.45842 0.27371 0.69199 0.0
C725 C 0.47825 0.27075 0.70785 0.0
C726 C 0.43647 0.27556 0.70078 0.0
C727 C 0.4337 0.27448 0.72566 0.0
C728 C 0.4533 0.27093 0.74151 0.0
C729 C 0.47541 0.26916 0.7327 0.0
C730 C 0.37643 0.26341 0.75742 0.0
C731 C 0.36398 0.28043 0.74807 0.0
C732 C 0.39948 0.26192 0.75085 0.0
C733 C 0.4104 0.27735 0.73475 0.0
C734 C 0.39835 0.29501 0.72634 0.0
C735 C 0.37545 0.29654 0.73291 0.0
H736 H 0.01224 0.77616 0.55452 0.0
H737 H 0.98003 0.80829 0.61366 0.0
H738 H 0.01032 0.8113 0.53239 0.0
H739 H 0.97856 0.84329 0.59188 0.0
H740 H 0.95707 0.89268 0.54002 0.0
H741 H 0.95688 0.85413 0.55593 0.0
H742 H 0.02867 0.85458 0.53519 0.0
H743 H 0.02869 0.8931 0.51875 0.0
C744 C 0.00482 0.7907 0.56282 0.0
C745 C 0.99618 0.78938 0.58581 0.0
C746 C 0.00379 0.81083 0.55017 0.0
C747 C 0.99405 0.82995 0.56025 0.0
C748 C 0.98566 0.82864 0.58333 0.0
C749 C 0.98668 0.80861 0.59592 0.0
C750 C 0.97268 0.88439 0.53848 0.0
C751 C 0.99301 0.89605 0.52838 0.0
C752 C 0.97262 0.86237 0.54774 0.0
C753 C 0.99295 0.85154 0.54726 0.0
C754 C 0.01272 0.86245 0.53579 0.0
C755 C 0.01274 0.88452 0.5264 0.0
H756 H 0.42666 0.78582 0.91945 0.0
H757 H 0.47687 0.77356 0.8676 0.0
H758 H 0.39699 0.78966 0.88625 0.0
H759 H 0.44686 0.77752 0.83412 0.0
H760 H 0.3699 0.74953 0.78774 0.0
H761 H 0.40641 0.75339 0.81592 0.0
H762 H 0.38976 0.81654 0.85435 0.0
H763 H 0.35303 0.81258 0.82635 0.0
C764 C 0.43142 0.78399 0.90095 0.0
C765 C 0.45411 0.77923 0.89618 0.0
C766 C 0.41448 0.7865 0.88192 0.0
C767 C 0.4197 0.78417 0.8576 0.0
C768 C 0.44238 0.77943 0.85272 0.0
C769 C 0.45951 0.77714 0.87186 0.0
C770 C 0.37432 0.7646 0.80184 0.0
C771 C 0.35831 0.78046 0.80514 0.0
C772 C 0.39531 0.76685 0.81792 0.0
C773 C 0.40065 0.78497 0.83761 0.0
C774 C 0.3858 0.80211 0.83958 0.0
C775 C 0.36485 0.79993 0.82344 0.0
H776 H 0.46175 0.14812 0.11181 0.0
H777 H 0.49663 0.20709 0.07517 0.0
H778 H 0.46225 0.12033 0.07588 0.0
H779 H 0.49741 0.17908 0.03932 0.0
H780 H 0.53599 0.11247 0.0178 0.0
H781 H 0.52367 0.1467 0.03909 0.0
H782 H 0.44957 0.10807 0.02961 0.0
H783 H 0.46196 0.07385 0.0077 0.0
C784 C 0.46901 0.15524 0.09589 0.0
C785 C 0.47947 0.17974 0.09646 0.0
C786 C 0.46911 0.13934 0.07523 0.0
C787 C 0.47998 0.14757 0.05489 0.0
C788 C 0.48896 0.1723 0.05481 0.0
C789 C 0.48851 0.18829 0.07534 0.0
C790 C 0.51693 0.11176 0.01929 0.0
C791 C 0.49991 0.09065 0.01118 0.0
C792 C 0.50984 0.13134 0.03145 0.0
C793 C 0.48569 0.12993 0.03615 0.0
C794 C 0.4683 0.10955 0.02621 0.0
C795 C 0.47534 0.09011 0.01353 0.0
H796 H 0.08792 0.24775 0.40519 0.0
H797 H 0.06361 0.28865 0.3489 0.0
H798 H 0.12341 0.24418 0.38457 0.0
H799 H 0.09951 0.28541 0.32844 0.0
H800 H 0.1588 0.25997 0.2882 0.0
H801 H 0.12062 0.25749 0.30627 0.0
H802 H 0.16014 0.27145 0.37828 0.0
H803 H 0.19799 0.27356 0.36038 0.0
C804 C 0.0901 0.25597 0.38838 0.0
C805 C 0.07297 0.26869 0.37883 0.0
C806 C 0.11053 0.25397 0.37659 0.0
C807 C 0.11443 0.26466 0.35495 0.0
C808 C 0.09695 0.27677 0.34497 0.0
C809 C 0.07645 0.27877 0.35679 0.0
C810 C 0.15926 0.26213 0.3079 0.0
C811 C 0.18144 0.26702 0.32285 0.0
C812 C 0.13741 0.26093 0.31823 0.0
C813 C 0.13731 0.26436 0.34372 0.0
C814 C 0.15949 0.26845 0.35861 0.0
C815 C 0.18124 0.2698 0.34832 0.0
H816 H 0.98676 0.03227 0.21358 0.0
H817 H 0.91764 0.02159 0.17035 0.0
H818 H 0.00732 0.04152 0.17776 0.0
H819 H 0.93778 0.02858 0.13395 0.0
H820 H 0.97586 0.04529 0.06988 0.0
H821 H 0.95931 0.05034 0.10846 0.0
H822 H 0.01829 0.02296 0.14416 0.0
H823 H 0.03592 0.02038 0.10585 0.0
C824 C 0.97601 0.0322 0.19632 0.0
C825 C 0.95068 0.02638 0.19464 0.0
C826 C 0.98776 0.03711 0.17563 0.0
C827 C 0.97445 0.03537 0.1525 0.0
C828 C 0.94892 0.03056 0.15124 0.0
C829 C 0.93721 0.02644 0.17214 0.0
C830 C 0.98555 0.0409 0.08615 0.0
C831 C 0.00704 0.03216 0.08478 0.0
C832 C 0.97586 0.04347 0.10834 0.0
C833 C 0.98692 0.0365 0.1297 0.0
C834 C 0.00914 0.02882 0.12842 0.0
C835 C 0.01927 0.02707 0.10631 0.0
H836 H 0.31651 0.70018 0.48476 0.0
H837 H 0.2415 0.68065 0.455 0.0
H838 H 0.32387 0.72955 0.45502 0.0
H839 H 0.24888 0.70885 0.4247 0.0
H840 H 0.25711 0.77791 0.39388 0.0
H841 H 0.2553 0.75125 0.42606 0.0
H842 H 0.32576 0.73724 0.41296 0.0
H843 H 0.32798 0.76504 0.38158 0.0
C844 C 0.30183 0.70167 0.47135 0.0
C845 C 0.27841 0.68842 0.47219 0.0
C846 C 0.30598 0.71853 0.45442 0.0
C847 C 0.28678 0.7221 0.43799 0.0
C848 C 0.26386 0.7073 0.43773 0.0
C849 C 0.25967 0.69087 0.45481 0.0
C850 C 0.27248 0.76968 0.39844 0.0
C851 C 0.29262 0.77345 0.38533 0.0
C852 C 0.27134 0.7541 0.41657 0.0
C853 C 0.29005 0.74147 0.42152 0.0
C854 C 0.31101 0.74661 0.40958 0.0
C855 C 0.31234 0.76263 0.3917 0.0
H856 H 0.54804 0.98279 0.70073 0.0
H857 H 0.61143 0.98677 0.66247 0.0
H858 H 0.52221 0.96851 0.66261 0.0
H859 H 0.58573 0.97395 0.62393 0.0
H860 H 0.53705 0.95558 0.55567 0.0
H861 H 0.55609 0.94814 0.59501 0.0
H862 H 0.51299 0.9922 0.63181 0.0
H863 H 0.49402 -0.00081 0.59284 0.0
C864 C 0.55639 0.98005 0.68412 0.0
C865 C 0.58157 0.9861 0.68426 0.0
C866 C 0.54164 0.97205 0.66228 0.0
C867 C 0.55181 0.97076 0.64008 0.0
C868 C 0.57721 0.97463 0.64065 0.0
C869 C 0.59201 0.98209 0.66268 0.0
C870 C 0.53141 0.96324 0.57227 0.0
C871 C 0.51462 0.97853 0.57127 0.0
C872 C 0.54228 0.95898 0.59477 0.0
C873 C 0.53645 0.96991 0.61662 0.0
C874 C 0.51788 0.98326 0.61547 0.0
C875 C 0.50699 0.98741 0.59304 0.0
H876 H 0.27885 0.30666 0.96419 0.0
H877 H 0.24763 0.36905 0.95315 0.0
H878 H 0.27081 0.29354 0.92077 0.0
H879 H 0.24067 0.35667 0.90934 0.0
H880 H 0.21149 0.31695 0.83467 0.0
H881 H 0.21774 0.32921 0.87833 0.0
H882 H 0.28408 0.30177 0.88323 0.0
H883 H 0.27701 0.28839 0.83966 0.0
C884 C 0.27034 0.31765 0.95241 0.0
C885 C 0.26387 0.33889 0.96208 0.0
C886 C 0.26593 0.31024 0.92741 0.0
C887 C 0.25531 0.32412 0.91132 0.0
C888 C 0.24857 0.34528 0.92111 0.0
C889 C 0.25262 0.35247 0.94624 0.0
C890 C 0.22743 0.31356 0.8451 0.0
C891 C 0.24375 0.30167 0.83376 0.0
C892 C 0.23111 0.32073 0.87017 0.0
C893 C 0.25143 0.31654 0.88451 0.0
C894 C 0.26794 0.30489 0.87299 0.0
C895 C 0.26402 0.29735 0.84795 0.0
H896 H 0.95527 0.97615 0.32196 0.0
H897 H 0.92983 0.04314 0.32941 0.0
H898 H 0.96971 0.98152 0.36502 0.0
H899 H 0.94515 0.04896 0.37276 0.0
H900 H 0.95099 0.03651 0.45416 0.0
H901 H 0.93726 0.03318 0.41075 0.0
H902 H 1.00024 0.00471 0.39429 0.0
H903 H 0.01351 0.00729 0.43776 0.0
C904 C 0.95297 0.99222 0.33274 0.0
C905 C 0.94138 0.00924 0.32216 0.0
C906 C 0.96145 0.99537 0.3575 0.0
C907 C 0.95878 0.01575 0.37243 0.0
C908 C 0.94729 0.03291 0.36186 0.0
C909 C 0.93863 0.02967 0.33699 0.0
C910 C 0.96191 0.02953 0.44127 0.0
C911 C 0.98326 0.02199 0.44942 0.0
C912 C 0.95412 0.02781 0.41633 0.0
C913 C 0.96759 0.01863 0.39894 0.0
C914 C 0.98916 0.01146 0.40715 0.0
C915 C 0.99684 0.01301 0.43209 0.0
H916 H 0.30833 0.66298 0.6142 0.0
H917 H 0.29459 0.72896 0.58801 0.0
H918 H 0.31886 0.68368 0.65564 0.0
H919 H 0.3045 0.74936 0.62885 0.0
H920 H 0.31672 0.78472 0.70151 0.0
H921 H 0.32998 0.76485 0.66563 0.0
H922 H 0.29127 0.69627 0.68252 0.0
H923 H 0.27854 0.71607 0.7182 0.0
C924 C 0.30827 0.68203 0.61718 0.0
C925 C 0.30015 0.69428 0.59809 0.0
C926 C 0.31417 0.69386 0.64087 0.0
C927 C 0.3122 0.71811 0.64569 0.0
C928 C 0.30645 0.73079 0.62597 0.0
C929 C 0.30045 0.71899 0.60249 0.0
C930 C 0.3119 0.7653 0.69796 0.0
C931 C 0.29677 0.75189 0.71265 0.0
C932 C 0.31938 0.75391 0.67741 0.0
C933 C 0.31139 0.72899 0.67095 0.0
C934 C 0.29806 0.7154 0.68699 0.0
C935 C 0.29072 0.72678 0.70753 0.0
H936 H 0.60073 0.97927 0.81029 0.0
H937 H 0.58587 0.0512 0.8149 0.0
H938 H 0.57983 0.97154 0.84646 0.0
H939 H 0.5658 0.0438 0.85114 0.0
H940 H 0.5122 0.01973 0.90169 0.0
H941 H 0.52931 0.02122 0.86288 0.0
H942 H 0.58383 0.98314 0.88988 0.0
H943 H 0.56622 0.98087 0.92828 0.0
C944 C 0.59324 0.99348 0.81916 0.0
C945 C 0.5948 0.01577 0.80969 0.0
C946 C 0.58127 0.98906 0.83984 0.0
C947 C 0.57081 0.00693 0.85144 0.0
C948 C 0.573 0.0294 0.84225 0.0
C949 C 0.58475 0.03372 0.82159 0.0
C950 C 0.52756 0.0113 0.89916 0.0
C951 C 0.53804 0.00047 0.91813 0.0
C952 C 0.53749 0.01231 0.87702 0.0
C953 C 0.55824 0.00272 0.87349 0.0
C954 C 0.56781 0.99063 0.89196 0.0
C955 C 0.55775 0.98943 0.91403 0.0
H956 H 0.22833 0.34826 0.09836 0.0
H957 H 0.27763 0.29993 0.08685 0.0
H958 H 0.2149 0.32707 0.13299 0.0
H959 H 0.26491 0.27951 0.1213 0.0
H960 H 0.23267 0.23656 0.17632 0.0
H961 H 0.23376 0.25368 0.13745 0.0
H962 H 0.23104 0.32322 0.17395 0.0
H963 H 0.22904 0.30598 0.21253 0.0
C964 C 0.23616 0.33307 0.10306 0.0
C965 C 0.25418 0.32596 0.08989 0.0
C966 C 0.22856 0.32098 0.12295 0.0
C967 C 0.23876 0.30148 0.12998 0.0
C968 C 0.25624 0.29407 0.11627 0.0
C969 C 0.26377 0.30605 0.09655 0.0
C970 C 0.23175 0.25537 0.17598 0.0
C971 C 0.23113 0.26991 0.19767 0.0
C972 C 0.23256 0.26527 0.15369 0.0
C973 C 0.233 0.28999 0.15257 0.0
C974 C 0.23063 0.30412 0.174 0.0
C975 C 0.22964 0.2942 0.19624 0.0
H976 H 0.21571 0.94419 0.9798 0.0
H977 H 0.20718 0.91262 0.04757 0.0
H978 H 0.18197 0.96428 0.98624 0.0
H979 H 0.17346 0.93286 0.05395 0.0
H980 H 0.12186 0.98747 0.06258 0.0
H981 H 0.16096 0.97494 0.05987 0.0
H982 H 0.13744 0.94471 0.98535 0.0
H983 H 0.09877 0.95671 0.98809 0.0
C984 C 0.2069 0.94181 -0.00376 0.0
C985 C 0.21392 0.92653 0.01299 0.0
C986 C 0.18757 0.9533 -0.0001 0.0
C987 C 0.17503 0.94999 0.02052 0.0
C988 C 0.1829 0.93584 0.03799 0.0
C989 C 0.20209 0.92412 0.0342 0.0
C990 C 0.12522 0.9783 0.04563 0.0
C991 C 0.10724 0.97294 0.02561 0.0
C992 C 0.14749 0.9711 0.0441 0.0
C993 C 0.15224 0.959 0.02234 0.0
C994 C 0.13443 0.95427 0.00224 0.0
C995 C 0.11218 0.96098 0.00391 0.0
H996 H 0.71406 0.56964 0.01336 0.0
H997 H 0.67159 0.59801 0.9583 0.0
H998 H 0.67925 0.53745 0.01636 0.0
H999 H 0.63716 0.56574 0.96091 0.0
H1000 H 0.57912 0.50143 0.96682 0.0
H1001 H 0.61966 0.5197 0.95746 0.0
H1002 H 0.63994 0.54554 0.03361 0.0
H1003 H 0.59954 0.5278 0.04282 0.0
C1004 C 0.69762 0.56844 0.00125 0.0
C1005 C 0.69537 0.58639 0.98578 0.0
C1006 C 0.67771 0.55013 0.00305 0.0
C1007 C 0.6555 0.54922 0.98897 0.0
C1008 C 0.65408 0.56587 0.97184 0.0
C1009 C 0.67375 0.58441 0.97044 0.0
C1010 C 0.59248 0.51051 0.98158 0.0
C1011 C 0.58621 0.51345 0.00549 0.0
C1012 C 0.6156 0.52096 0.97624 0.0
C1013 C 0.63292 0.53398 0.99483 0.0
C1014 C 0.62708 0.53537 0.01897 0.0
C1015 C 0.6039 0.52541 0.02421 0.0
H1016 H 0.72768 0.48244 0.27554 0.0
H1017 H 0.65733 0.44094 0.28397 0.0
H1018 H 0.74423 0.44571 0.27396 0.0
H1019 H 0.6736 0.40434 0.28167 0.0
H1020 H 0.71302 0.34669 0.303 0.0
H1021 H 0.69938 0.38463 0.30537 0.0
H1022 H 0.74404 0.40821 0.24936 0.0
H1023 H 0.75831 0.37005 0.24746 0.0
C1024 C 0.71571 0.46549 0.27695 0.0
C1025 C 0.69119 0.4647 0.28005 0.0
C1026 C 0.72518 0.4444 0.27589 0.0
C1027 C 0.71034 0.422 0.27783 0.0
C1028 C 0.68575 0.42127 0.28063 0.0
C1029 C 0.67634 0.4423 0.28182 0.0
C1030 C 0.72004 0.35994 0.29118 0.0
C1031 C 0.73661 0.35522 0.27486 0.0
C1032 C 0.71207 0.38172 0.29245 0.0
C1033 C 0.72025 0.39943 0.27728 0.0
C1034 C 0.73741 0.39504 0.2614 0.0
C1035 C 0.74555 0.37316 0.26024 0.0
H1036 H 0.80885 0.44113 0.52286 0.0
H1037 H 0.85351 0.39277 0.49655 0.0
H1038 H 0.84359 0.47468 0.52647 0.0
H1039 H 0.8879 0.42587 0.5005 0.0
H1040 H 0.94274 0.48975 0.49255 0.0
H1041 H 0.90369 0.4625 0.48332 0.0
H1042 H 0.88255 0.48765 0.55249 0.0
H1043 H 0.92148 0.51545 0.56148 0.0
C1044 C 0.82598 0.43768 0.51772 0.0
C1045 C 0.82844 0.41426 0.50953 0.0
C1046 C 0.84586 0.45685 0.51988 0.0
C1047 C 0.86846 0.45296 0.51367 0.0
C1048 C 0.87067 0.42962 0.50502 0.0
C1049 C 0.85095 0.41054 0.50298 0.0
C1050 C 0.92962 0.48975 0.50563 0.0
C1051 C 0.93532 0.50444 0.52792 0.0
C1052 C 0.90728 0.47407 0.50038 0.0
C1053 C 0.89021 0.47259 0.51737 0.0
C1054 C 0.89528 0.48843 0.53898 0.0
C1055 C 0.91763 0.50427 0.54418 0.0
H1056 H 0.33791 0.07998 0.31477 0.0
H1057 H 0.35841 0.07934 0.24143 0.0
H1058 H 0.30938 0.10572 0.30453 0.0
H1059 H 0.32937 0.1044 0.23095 0.0
H1060 H 0.3006 0.17498 0.23265 0.0
H1061 H 0.32522 0.145 0.23919 0.0
H1062 H 0.27209 0.10826 0.28154 0.0
H1063 H 0.24773 0.13882 0.2756 0.0
C1064 C 0.33614 0.08511 0.29639 0.0
C1065 C 0.35061 0.07777 0.27901 0.0
C1066 C 0.31962 0.09973 0.29043 0.0
C1067 C 0.31706 0.10724 0.2669 0.0
C1068 C 0.33112 0.09934 0.24936 0.0
C1069 C 0.34773 0.08487 0.25536 0.0
C1070 C 0.29394 0.16032 0.24305 0.0
C1071 C 0.27223 0.15943 0.25373 0.0
C1072 C 0.30806 0.14302 0.24675 0.0
C1073 C 0.30079 0.12426 0.26109 0.0
C1074 C 0.27849 0.12271 0.27079 0.0
C1075 C 0.26439 0.14011 0.26718 0.0
H1076 H 0.33248 0.12295 0.4998 0.0
H1077 H 0.28976 0.05079 0.49185 0.0
H1078 H 0.36929 0.10668 0.50049 0.0
H1079 H 0.32668 0.03446 0.49198 0.0
H1080 H 0.40095 0.01708 0.52078 0.0
H1081 H 0.36239 0.03078 0.51849 0.0
H1082 H 0.39086 0.08542 0.47343 0.0
H1083 H 0.42926 0.07213 0.47613 0.0
C1084 C 0.33092 0.1036 0.49806 0.0
C1085 C 0.30813 0.08821 0.49572 0.0
C1086 C 0.35204 0.09424 0.4983 0.0
C1087 C 0.35098 0.06922 0.49609 0.0
C1088 C 0.32819 0.0538 0.49392 0.0
C1089 C 0.30702 0.06319 0.49372 0.0
C1090 C 0.39881 0.03182 0.51016 0.0
C1091 C 0.41823 0.04368 0.49887 0.0
C1092 C 0.37672 0.03967 0.50882 0.0
C1093 C 0.37364 0.05947 0.49609 0.0
C1094 C 0.39278 0.07054 0.48391 0.0
C1095 C 0.41477 0.06279 0.48533 0.0
H1096 H 0.67498 0.60921 0.32828 0.0
H1097 H 0.70611 0.56998 0.27334 0.0
H1098 H 0.70505 0.64537 0.32516 0.0
H1099 H 0.73595 0.60649 0.26976 0.0
H1100 H 0.76885 0.7057 0.3191 0.0
H1101 H 0.75155 0.66501 0.32847 0.0
H1102 H 0.72426 0.64513 0.25259 0.0
H1103 H 0.74093 0.68572 0.24336 0.0
C1104 C 0.68874 0.60817 0.31606 0.0
C1105 C 0.68819 0.58686 0.30098 0.0
C1106 C 0.70598 0.62884 0.31433 0.0
C1107 C 0.72269 0.62875 0.29709 0.0
C1108 C 0.72321 0.60701 0.28316 0.0
C1109 C 0.70626 0.58612 0.28531 0.0
C1110 C 0.75957 0.69245 0.3044 0.0
C1111 C 0.75604 0.69885 0.28055 0.0
C1112 C 0.74968 0.66924 0.30976 0.0
C1113 C 0.73668 0.65193 0.29123 0.0
C1114 C 0.73445 0.658 0.26716 0.0
C1115 C 0.74381 0.68128 0.26193 0.0
H1116 H 0.8953 0.43095 0.77947 0.0
H1117 H 0.84254 0.474 0.76009 0.0
H1118 H 0.86352 0.39561 0.77643 0.0
H1119 H 0.81025 0.43813 0.75739 0.0
H1120 H 0.76997 0.36 0.72254 0.0
H1121 H 0.79651 0.39962 0.73073 0.0
H1122 H 0.82945 0.37789 0.79654 0.0
H1123 H 0.8035 0.33822 0.78805 0.0
C1124 C 0.87685 0.43295 0.77473 0.0
C1125 C 0.87151 0.45535 0.76992 0.0
C1126 C 0.85854 0.41264 0.77323 0.0
C1127 C 0.8343 0.41406 0.76689 0.0
C1128 C 0.82879 0.43647 0.76225 0.0
C1129 C 0.84724 0.45699 0.76387 0.0
C1130 C 0.78261 0.36384 0.73897 0.0
C1131 C 0.78499 0.34585 0.7544 0.0
C1132 C 0.79773 0.38659 0.74371 0.0
C1133 C 0.81538 0.39175 0.76405 0.0
C1134 C 0.81644 0.37428 0.7804 0.0
C1135 C 0.80152 0.35156 0.77557 0.0
H1136 H 0.05275 0.83062 0.07526 0.0
H1137 H 0.00155 0.83273 0.12838 0.0
H1138 H 0.04059 0.86496 0.05819 0.0
H1139 H 0.9891 0.8671 0.11094 0.0
H1140 H 0.01541 0.94966 0.10225 0.0
H1141 H 0.01136 0.90872 0.11302 0.0
H1142 H 0.00925 0.88265 0.037 0.0
H1143 H 0.01372 0.92389 0.02621 0.0
C1144 C 0.03855 0.83812 0.08301 0.0
C1145 C 0.02843 0.82921 0.10347 0.0
C1146 C 0.03137 0.85768 0.07302 0.0
C1147 C 0.01396 0.86884 0.08329 0.0
C1148 C 0.00274 0.85901 0.1028 0.0
C1149 C 0.00985 0.83931 0.11275 0.0
C1150 C 0.01347 0.93514 0.08775 0.0
C1151 C 0.01538 0.94 0.06346 0.0
C1152 C 0.01094 0.91162 0.0939 0.0
C1153 C 0.01035 0.89248 0.07589 0.0
C1154 C 0.01004 0.89711 0.0513 0.0
C1155 C 0.01245 0.9207 0.04511 0.0
H1156 H 0.91062 0.20575 0.85173 0.0
H1157 H 0.96179 0.25674 0.81955 0.0
H1158 H 0.87844 0.21083 0.82138 0.0
H1159 H 0.92938 0.2621 0.78936 0.0
H1160 H 0.85639 0.29472 0.78793 0.0
H1161 H 0.894 0.28252 0.80172 0.0
H1162 H 0.86224 0.2087 0.77535 0.0
H1163 H 0.8246 0.22097 0.7611 0.0
C1164 C 0.91512 0.21747 0.83769 0.0
C1165 C 0.93861 0.23107 0.83817 0.0
C1166 C 0.89673 0.22028 0.82024 0.0
C1167 C 0.90144 0.23701 0.8032 0.0
C1168 C 0.92532 0.24914 0.80239 0.0
C1169 C 0.94385 0.24599 0.8196 0.0
C1170 C 0.8577 0.27601 0.78441 0.0
C1171 C 0.83759 0.25878 0.77363 0.0
C1172 C 0.87926 0.26904 0.79215 0.0
C1173 C 0.88095 0.24466 0.78961 0.0
C1174 C 0.86135 0.2276 0.77746 0.0
C1175 C 0.83989 0.23465 0.76927 0.0
H1176 H 0.51416 0.19524 0.64455 0.0
H1177 H 0.55384 0.21042 0.58279 0.0
H1178 H 0.50255 0.15305 0.62818 0.0
H1179 H 0.54125 0.16867 0.56572 0.0
H1180 H 0.53265 0.08821 0.55041 0.0
H1181 H 0.54652 0.12938 0.56944 0.0
H1182 H 0.4773 0.12729 0.59732 0.0
H1183 H 0.4641 0.08588 0.57944 0.0
C1184 C 0.5202 0.18957 0.62735 0.0
C1185 C 0.53491 0.2061 0.61496 0.0
C1186 C 0.51346 0.16541 0.61787 0.0
C1187 C 0.52091 0.15734 0.59555 0.0
C1188 C 0.53556 0.17402 0.58317 0.0
C1189 C 0.54264 0.19804 0.59287 0.0
C1190 C 0.52051 0.09658 0.56073 0.0
C1191 C 0.49734 0.08386 0.56347 0.0
C1192 C 0.52836 0.12024 0.57152 0.0
C1193 C 0.51303 0.1318 0.58491 0.0
C1194 C 0.48983 0.11892 0.5876 0.0
C1195 C 0.48217 0.09518 0.57718 0.0
H1196 H 0.55133 0.71432 0.31666 0.0
H1197 H 0.57385 0.79172 0.32634 0.0
H1198 H 0.58627 0.71113 0.29492 0.0
H1199 H 0.60925 0.7885 0.30531 0.0
H1200 H 0.66714 0.77708 0.25751 0.0
H1201 H 0.62637 0.77804 0.26829 0.0
H1202 H 0.62834 0.71626 0.30819 0.0
H1203 H 0.66844 0.7149 0.29692 0.0
C1204 C 0.56365 0.73068 0.31398 0.0
C1205 C 0.56001 0.75326 0.32351 0.0
C1206 C 0.58373 0.72885 0.3016 0.0
C1207 C 0.60078 0.74953 0.29867 0.0
C1208 C 0.59641 0.77221 0.30704 0.0
C1209 C 0.57617 0.77405 0.31925 0.0
C1210 C 0.65861 0.76344 0.26817 0.0
C1211 C 0.67108 0.74601 0.2765 0.0
C1212 C 0.63535 0.7641 0.2745 0.0
C1213 C 0.62411 0.74732 0.28922 0.0
C1214 C 0.63623 0.72927 0.29656 0.0
C1215 C 0.65938 0.72861 0.29024 0.0
H1216 H 0.01798 0.2143 0.52034 0.0
H1217 H 0.04339 0.19715 0.45091 0.0
H1218 H 0.02762 0.17753 0.53438 0.0
H1219 H 0.0522 0.1598 0.46461 0.0
H1220 H 0.07671 0.09876 0.49872 0.0
H1221 H 0.07611 0.14037 0.49165 0.0
H1222 H 0.00975 0.13608 0.52542 0.0
H1223 H 0.01077 0.09495 0.53314 0.0
C1224 C 0.0257 0.20267 0.50809 0.0
C1225 C 0.02963 0.20841 0.4844 0.0
C1226 C 0.03115 0.18156 0.51612 0.0
C1227 C 0.04037 0.16554 0.50053 0.0
C1228 C 0.04534 0.17184 0.4772 0.0
C1229 C 0.04015 0.19316 0.46926 0.0
C1230 C 0.06224 0.10689 0.50501 0.0
C1231 C 0.04366 0.09352 0.5163 0.0
C1232 C 0.06182 0.13067 0.50081 0.0
C1233 C 0.04277 0.1415 0.50773 0.0
C1234 C 0.02487 0.12845 0.5201 0.0
C1235 C 0.02537 0.10476 0.52443 0.0
H1236 H 0.56902 0.20928 0.20366 0.0
H1237 H 0.57539 0.27551 0.16977 0.0
H1238 H 0.61256 0.21764 0.21509 0.0
H1239 H 0.61887 0.28419 0.1818 0.0
H1240 H 0.69829 0.28104 0.18418 0.0
H1241 H 0.65486 0.27049 0.17209 0.0
H1242 H 0.64412 0.24396 0.24195 0.0
H1243 H 0.68765 0.25393 0.25378 0.0
C1244 C 0.57966 0.22575 0.19884 0.0
C1245 C 0.56868 0.24171 0.18575 0.0
C1246 C 0.60465 0.23058 0.20549 0.0
C1247 C 0.61928 0.25153 0.19928 0.0
C1248 C 0.60823 0.26765 0.18649 0.0
C1249 C 0.58325 0.26278 0.17976 0.0
C1250 C 0.68669 0.27273 0.19687 0.0
C1251 C 0.69644 0.26837 0.21996 0.0
C1252 C 0.66175 0.26687 0.19002 0.0
C1253 C 0.64593 0.25661 0.20614 0.0
C1254 C 0.65576 0.25164 0.22899 0.0
C1255 C 0.68074 0.2574 0.2358 0.0
H1256 H 0.51968 0.83987 0.02254 0.0
H1257 H 0.55227 0.85376 0.95621 0.0
H1258 H 0.5251 0.8831 0.03405 0.0
H1259 H 0.55742 0.89696 0.96774 0.0
H1260 H 0.54671 0.96748 0.04666 0.0
H1261 H 0.55585 0.92683 0.04154 0.0
H1262 H 0.51745 0.91523 0.96912 0.0
H1263 H 0.50774 0.95491 0.97429 0.0
C1264 C 0.52871 0.85214 0.01082 0.0
C1265 C 0.53511 0.84347 0.98823 0.0
C1266 C 0.53194 0.87686 0.01751 0.0
C1267 C 0.54136 0.8932 0.0016 0.0
C1268 C 0.54998 0.88459 0.98022 0.0
C1269 C 0.54706 0.85988 0.97366 0.0
C1270 C 0.54031 0.95619 0.02968 0.0
C1271 C 0.5265 0.96438 0.0109 0.0
C1272 C 0.54562 0.93309 0.02674 0.0
C1273 C 0.53773 0.91823 0.00477 0.0
C1274 C 0.5242 0.92657 0.98602 0.0
C1275 C 0.51844 0.94924 0.98913 0.0
H1276 H 0.94552 0.73289 0.72796 0.0
H1277 H 0.91895 0.75784 0.66118 0.0
H1278 H 0.91357 0.74656 0.74855 0.0
H1279 H 0.88595 0.76991 0.68098 0.0
H1280 H 0.82982 0.79548 0.71972 0.0
H1281 H 0.87005 0.79412 0.70797 0.0
H1282 H 0.87312 0.73407 0.75036 0.0
H1283 H 0.83406 0.73661 0.76324 0.0
C1284 C 0.93274 0.74125 0.71769 0.0
C1285 C 0.93451 0.74408 0.69293 0.0
C1286 C 0.91431 0.749 0.72942 0.0
C1287 C 0.89677 0.75909 0.71646 0.0
C1288 C 0.89919 0.76264 0.69184 0.0
C1289 C 0.91801 0.75548 0.68031 0.0
C1290 C 0.8395 0.7825 0.72706 0.0
C1291 C 0.82863 0.76601 0.74218 0.0
C1292 C 0.86246 0.78148 0.72009 0.0
C1293 C 0.87479 0.76359 0.72766 0.0
C1294 C 0.86453 0.74828 0.74423 0.0
C1295 C 0.84188 0.74966 0.75159 0.0
H1296 H 0.05095 0.99647 0.82569 0.0
H1297 H 0.12172 0.01191 0.86624 0.0
H1298 H 0.03269 0.98588 0.86244 0.0
H1299 H 0.10378 0.00386 0.90356 0.0
H1300 H 0.0707 0.9843 0.96927 0.0
H1301 H 0.08572 0.98098 0.92983 0.0
H1302 H 0.0212 0.0015 0.8969 0.0
H1303 H 0.00514 0.00175 0.93606 0.0
C1304 C 0.06256 0.99752 0.84261 0.0
C1305 C 0.08768 0.00492 0.84327 0.0
C1306 C 0.05211 0.99178 0.86384 0.0
C1307 C 0.06649 0.9943 0.88647 0.0
C1308 C 0.09184 0.00109 0.88671 0.0
C1309 C 0.1023 0.00594 0.86529 0.0
C1310 C 0.05947 0.98744 0.95344 0.0
C1311 C 0.03686 0.99356 0.95584 0.0
C1312 C 0.06828 0.98597 0.93072 0.0
C1313 C 0.05521 0.9917 0.90986 0.0
C1314 C 0.03197 0.99672 0.91219 0.0
C1315 C 0.02273 0.99716 0.93482 0.0
H1316 H 0.73686 0.34829 0.58285 0.0
H1317 H 0.76766 0.28953 0.5533 0.0
H1318 H 0.72691 0.32653 0.61793 0.0
H1319 H 0.75688 0.26743 0.58763 0.0
H1320 H 0.7724 0.25892 0.66932 0.0
H1321 H 0.77342 0.27277 0.62923 0.0
H1322 H 0.7035 0.29197 0.63378 0.0
H1323 H 0.70282 0.27867 0.6746 0.0
C1324 C 0.74115 0.3306 0.5837 0.0
C1325 C 0.75352 0.32082 0.56571 0.0
C1326 C 0.73523 0.31801 0.60362 0.0
C1327 C 0.74132 0.29534 0.60564 0.0
C1328 C 0.75242 0.28507 0.58686 0.0
C1329 C 0.75864 0.29776 0.56722 0.0
C1330 C 0.75702 0.26568 0.66164 0.0
C1331 C 0.73772 0.26806 0.67525 0.0
C1332 C 0.75751 0.27348 0.63852 0.0
C1333 C 0.73863 0.2837 0.62841 0.0
C1334 C 0.71849 0.28454 0.64131 0.0
C1335 C 0.71801 0.27673 0.66456 0.0
H1336 H 0.49143 0.05627 0.34203 0.0
H1337 H 0.41904 0.05581 0.36071 0.0
H1338 H 0.50653 0.06053 0.38481 0.0
H1339 H 0.43427 0.0606 0.4042 0.0
H1340 H 0.46366 0.01266 0.46092 0.0
H1341 H 0.44692 0.0297 0.4263 0.0
H1342 H 0.5152 0.07866 0.42587 0.0
H1343 H 0.5322 0.06106 0.46067 0.0
C1344 C 0.47888 0.05796 0.35544 0.0
C1345 C 0.45403 0.0552 0.34816 0.0
C1346 C 0.48758 0.06065 0.38007 0.0
C1347 C 0.47157 0.06047 0.39804 0.0
C1348 C 0.44701 0.06037 0.39076 0.0
C1349 C 0.43828 0.05781 0.36592 0.0
C1350 C 0.47495 0.02755 0.45395 0.0
C1351 C 0.49935 0.03535 0.46336 0.0
C1352 C 0.46524 0.03752 0.43413 0.0
C1353 C 0.47976 0.05541 0.42305 0.0
C1354 C 0.50363 0.06463 0.43376 0.0
C1355 C 0.51339 0.05457 0.45365 0.0
H1356 H 0.72885 0.69216 0.07371 0.0
H1357 H 0.79645 0.66717 0.07593 0.0
H1358 H 0.73817 0.70801 0.11635 0.0
H1359 H 0.80613 0.68374 0.11873 0.0
H1360 H 0.80208 0.69249 0.20147 0.0
H1361 H 0.79373 0.67698 0.15853 0.0
H1362 H 0.76433 0.73953 0.14297 0.0
H1363 H 0.77211 0.75475 0.18613 0.0
C1364 C 0.74584 0.69019 0.08324 0.0
C1365 C 0.76192 0.67836 0.07133 0.0
C1366 C 0.75125 0.69947 0.10772 0.0
C1367 C 0.77295 0.69729 0.12101 0.0
C1368 C 0.78912 0.6855 0.10912 0.0
C1369 C 0.78365 0.67611 0.08455 0.0
C1370 C 0.79381 0.70295 0.18891 0.0
C1371 C 0.78768 0.72484 0.19725 0.0
C1372 C 0.78919 0.69412 0.16422 0.0
C1373 C 0.7784 0.70699 0.14723 0.0
C1374 C 0.77236 0.72896 0.15559 0.0
C1375 C 0.77689 0.73775 0.18033 0.0
H1376 H 0.10902 0.97699 0.71194 0.0
H1377 H 0.07794 0.04056 0.70834 0.0
H1378 H 0.09408 0.96437 0.66907 0.0
H1379 H 0.06386 0.02848 0.66555 0.0
H1380 H 0.02123 0.98997 0.5958 0.0
H1381 H 0.03481 0.00012 0.63914 0.0
H1382 H 0.10061 0.97425 0.62878 0.0
H1383 H 0.08659 0.9633 0.58561 0.0
C1384 C 0.09909 0.9883 0.702 0.0
C1385 C 0.09459 0.00972 0.71362 0.0
C1386 C 0.09064 0.98115 0.67738 0.0
C1387 C 0.07767 0.99536 0.66381 0.0
C1388 C 0.07332 0.01681 0.67549 0.0
C1389 C 0.08157 0.02383 0.70006 0.0
C1390 C 0.03858 0.98641 0.60279 0.0
C1391 C 0.05285 0.97588 0.58726 0.0
C1392 C 0.04644 0.99234 0.62764 0.0
C1393 C 0.06889 0.98812 0.63751 0.0
C1394 C 0.08308 0.97745 0.62193 0.0
C1395 C 0.07511 0.97132 0.59712 0.0
H1396 H 0.73605 0.29059 0.44995 0.0
H1397 H 0.72457 0.35927 0.42914 0.0
H1398 H 0.72679 0.27326 0.40792 0.0
H1399 H 0.7146 0.34172 0.38655 0.0
H1400 H 0.76141 0.31801 0.32644 0.0
H1401 H 0.74564 0.33278 0.3625 0.0
H1402 H 0.70541 0.2613 0.36814 0.0
H1403 H 0.72176 0.24623 0.33174 0.0
C1404 C 0.73058 0.30173 0.43637 0.0
C1405 C 0.73173 0.32638 0.44251 0.0
C1406 C 0.72499 0.29172 0.41223 0.0
C1407 C 0.72062 0.30627 0.39373 0.0
C1408 C 0.71847 0.3302 0.40039 0.0
C1409 C 0.72402 0.34024 0.42473 0.0
C1410 C 0.74889 0.3054 0.33505 0.0
C1411 C 0.74334 0.28079 0.32659 0.0
C1412 C 0.73947 0.31402 0.35561 0.0
C1413 C 0.72433 0.29822 0.36837 0.0
C1414 C 0.71727 0.27388 0.35885 0.0
C1415 C 0.72673 0.26521 0.33813 0.0
H1416 H 0.49848 0.05401 0.2347 0.0
H1417 H 0.42789 0.05964 0.20179 0.0
H1418 H 0.51577 0.06411 0.19737 0.0
H1419 H 0.44502 0.06892 0.16393 0.0
H1420 H 0.48329 0.09155 0.09968 0.0
H1421 H 0.47209 0.09484 0.14122 0.0
H1422 H 0.51247 0.04013 0.15908 0.0
H1423 H 0.52404 0.03725 0.11794 0.0
C1424 C 0.48672 0.05771 0.21951 0.0
C1425 C 0.46179 0.05566 0.22092 0.0
C1426 C 0.4966 0.0634 0.19812 0.0
C1427 C 0.4817 0.06679 0.17751 0.0
C1428 C 0.45703 0.06651 0.17951 0.0
C1429 C 0.44717 0.06111 0.20114 0.0
C1430 C 0.49012 0.08055 0.11264 0.0
C1431 C 0.50434 0.06394 0.10548 0.0
C1432 C 0.48359 0.08237 0.13639 0.0
C1433 C 0.49122 0.06765 0.15342 0.0
C1434 C 0.50652 0.052 0.14655 0.0
C1435 C 0.51306 0.05022 0.12287 0.0
H1436 H 0.75243 0.71937 0.9531 0.0
H1437 H 0.78407 0.66037 0.92581 0.0
H1438 H 0.75742 0.73749 0.91528 0.0
H1439 H 0.78932 0.67877 0.88765 0.0
H1440 H 0.7518 0.69834 0.81476 0.0
H1441 H 0.75926 0.68344 0.85402 0.0
H1442 H 0.78478 0.75632 0.88749 0.0
H1443 H 0.77718 0.77139 0.84798 0.0
C1444 C 0.76092 0.7105 0.93916 0.0
C1445 C 0.76757 0.68827 0.94232 0.0
C1446 C 0.76397 0.72102 0.9175 0.0
C1447 C 0.77359 0.70951 0.89833 0.0
C1448 C 0.78159 0.68795 0.902 0.0
C1449 C 0.77875 0.67749 0.92389 0.0
C1450 C 0.7593 0.71125 0.83039 0.0
C1451 C 0.76366 0.73612 0.82823 0.0
C1452 C 0.7638 0.70264 0.8529 0.0
C1453 C 0.77259 0.71867 0.87392 0.0
C1454 C 0.77781 0.74351 0.87165 0.0
C1455 C 0.77348 0.75215 0.84902 0.0
H1456 H 0.84314 0.10932 0.04836 0.0
H1457 H 0.82828 0.09557 0.96983 0.0
H1458 H 0.87813 0.09042 0.04702 0.0
H1459 H 0.86375 0.07682 0.96855 0.0
H1460 H 0.92109 0.02779 0.98244 0.0
H1461 H 0.88269 0.04203 0.98169 0.0
H1462 H 0.91747 0.10384 0.03179 0.0
H1463 H 0.95527 0.08977 0.03276 0.0
C1464 C 0.84723 0.10214 0.0308 0.0
C1465 C 0.83309 0.10427 0.00917 0.0
C1466 C 0.86735 0.09137 0.03004 0.0
C1467 C 0.8739 0.08249 0.00764 0.0
C1468 C 0.85912 0.08348 0.98607 0.0
C1469 C 0.83888 0.09432 0.98682 0.0
C1470 C 0.92046 0.04445 0.99319 0.0
C1471 C 0.94118 0.05753 0.0078 0.0
C1472 C 0.89854 0.0526 0.99272 0.0
C1473 C 0.89701 0.07386 0.00698 0.0
C1474 C 0.91791 0.08712 0.02105 0.0
C1475 C 0.93966 0.07908 0.02146 0.0
H1476 H 0.3211 0.44152 0.01903 0.0
H1477 H 0.35755 0.411 0.07689 0.0
H1478 H 0.35887 0.46977 0.01559 0.0
H1479 H 0.39495 0.43952 0.07395 0.0
H1480 H 0.43915 0.47022 0.9923 0.0
H1481 H 0.39759 0.45564 0.00056 0.0
H1482 H 0.41621 0.48527 0.07587 0.0
H1483 H 0.45784 0.50041 0.06747 0.0
C1484 C 0.3369 0.44155 0.03168 0.0
C1485 C 0.33653 0.42409 0.04816 0.0
C1486 C 0.3585 0.45756 0.0296 0.0
C1487 C 0.37981 0.45669 0.04442 0.0
C1488 C 0.37876 0.4407 0.06243 0.0
C1489 C 0.35739 0.42437 0.06409 0.0
C1490 C 0.43426 0.474 0.01051 0.0
C1491 C 0.45173 0.48626 0.0293 0.0
C1492 C 0.41043 0.46587 0.01518 0.0
C1493 C 0.4037 0.46941 0.03883 0.0
C1494 C 0.42095 0.48241 0.05746 0.0
C1495 C 0.44471 0.49104 0.05265 0.0
H1496 H 0.38641 0.5847 0.74649 0.0
H1497 H 0.32006 0.54623 0.76885 0.0
H1498 H 0.36933 0.6207 0.74544 0.0
H1499 H 0.30259 0.58228 0.76712 0.0
H1500 H 0.29213 0.66109 0.78704 0.0
H1501 H 0.30519 0.62244 0.78697 0.0
H1502 H 0.33998 0.63656 0.72191 0.0
H1503 H 0.32768 0.67528 0.72256 0.0
C1504 C 0.36809 0.58386 0.75103 0.0
C1505 C 0.3546 0.56251 0.75767 0.0
C1506 C 0.35818 0.6045 0.75025 0.0
C1507 C 0.33442 0.60438 0.7559 0.0
C1508 C 0.32097 0.58308 0.76278 0.0
C1509 C 0.33096 0.56238 0.76368 0.0
C1510 C 0.30222 0.65567 0.77253 0.0
C1511 C 0.30914 0.67128 0.75497 0.0
C1512 C 0.30972 0.63353 0.77247 0.0
C1513 C 0.32408 0.62655 0.7547 0.0
C1514 C 0.32959 0.64162 0.7363 0.0
C1515 C 0.32237 0.66375 0.73654 0.0
H1516 H 0.18957 0.61462 0.56022 0.0
H1517 H 0.21935 0.58202 0.49968 0.0
H1518 H 0.15046 0.58851 0.54753 0.0
H1519 H 0.17994 0.5556 0.48689 0.0
H1520 H 0.09979 0.55306 0.45281 0.0
H1521 H 0.14214 0.5668 0.46878 0.0
H1522 H 0.12539 0.54773 0.54005 0.0
H1523 H 0.08288 0.5342 0.52416 0.0
C1524 C 0.18789 0.60133 0.54459 0.0
C1525 C 0.20738 0.60051 0.53077 0.0
C1526 C 0.16549 0.58628 0.53736 0.0
C1527 C 0.16203 0.57022 0.51602 0.0
C1528 C 0.18204 0.56804 0.50326 0.0
C1529 C 0.20463 0.58298 0.51069 0.0
C1530 C 0.10515 0.55159 0.47184 0.0
C1531 C 0.08791 0.54291 0.4873 0.0
C1532 C 0.12949 0.55919 0.48092 0.0
C1533 C 0.13711 0.55836 0.50569 0.0
C1534 C 0.12002 0.54875 0.52093 0.0
C1535 C 0.09568 0.54104 0.51182 0.0
H1536 H 0.67888 0.95128 0.73191 0.0
H1537 H 0.68749 0.96074 0.8108 0.0
H1538 H 0.69525 0.91475 0.73256 0.0
H1539 H 0.70345 0.92371 0.8114 0.0
H1540 H 0.74434 0.86082 0.80142 0.0
H1541 H 0.73625 0.90172 0.80085 0.0
H1542 H 0.67746 0.87547 0.74381 0.0
H1543 H 0.68561 0.83529 0.7441 0.0
C1544 C 0.68443 0.94566 0.74941 0.0
C1545 C 0.68151 0.95871 0.7713 0.0
C1546 C 0.69377 0.92469 0.74978 0.0
C1547 C 0.70027 0.91613 0.77203 0.0
C1548 C 0.69868 0.92989 0.79397 0.0
C1549 C 0.6894 0.95102 0.79361 0.0
C1550 C 0.72985 0.86394 0.78867 0.0
C1551 C 0.71561 0.84482 0.77284 0.0
C1552 C 0.72516 0.88728 0.78841 0.0
C1553 C 0.70634 0.89185 0.77215 0.0
C1554 C 0.69238 0.8727 0.75623 0.0
C1555 C 0.69695 0.84955 0.75657 0.0
H1556 H 0.69437 0.90485 0.55252 0.0
H1557 H 0.72928 0.95765 0.50886 0.0
H1558 H 0.66047 0.92554 0.55383 0.0
H1559 H 0.69555 0.97861 0.51056 0.0
H1560 H 0.61675 0.98974 0.49371 0.0
H1561 H 0.65339 0.97307 0.49453 0.0
H1562 H 0.64883 0.96193 0.57036 0.0
H1563 H 0.61191 0.97818 0.56943 0.0
C1564 C 0.69492 0.92097 0.54334 0.0
C1565 C 0.71456 0.92949 0.5305 0.0
C1566 C 0.67552 0.93296 0.54424 0.0
C1567 C 0.67523 0.95381 0.53233 0.0
C1568 C 0.69501 0.96247 0.51971 0.0
C1569 C 0.71443 0.95049 0.51883 0.0
C1570 C 0.62373 0.98407 0.51068 0.0
C1571 C 0.61126 0.98522 0.53147 0.0
C1572 C 0.64483 0.97454 0.51117 0.0
C1573 C 0.654 0.96591 0.53245 0.0
C1574 C 0.64206 0.96799 0.55352 0.0
C1575 C 0.62098 0.97753 0.55304 0.0
H1576 H 0.33478 0.45951 0.76042 0.0
H1577 H 0.36356 0.41921 0.70437 0.0
H1578 H 0.30282 0.42438 0.76274 0.0
H1579 H 0.33142 0.38446 0.70627 0.0
H1580 H 0.26656 0.32605 0.71162 0.0
H1581 H 0.2845 0.36684 0.70302 0.0
H1582 H 0.31276 0.38473 0.77889 0.0
H1583 H 0.29545 0.34407 0.78731 0.0
C1584 C 0.33369 0.44349 0.74793 0.0
C1585 C 0.35173 0.44191 0.7324 0.0
C1586 C 0.31549 0.42341 0.74933 0.0
C1587 C 0.31478 0.40171 0.73478 0.0
C1588 C 0.33143 0.40099 0.71757 0.0
C1589 C 0.34989 0.42083 0.71656 0.0
C1590 C 0.27614 0.33893 0.7265 0.0
C1591 C 0.27987 0.33194 0.75007 0.0
C1592 C 0.28638 0.36218 0.72158 0.0
C1593 C 0.2999 0.37891 0.74032 0.0
C1594 C 0.30216 0.37231 0.76418 0.0
C1595 C 0.29246 0.34899 0.76895 0.0
H1596 H 0.20899 0.57008 0.27566 0.0
H1597 H 0.16444 0.60813 0.23224 0.0
H1598 H 0.23876 0.60751 0.28687 0.0
H1599 H 0.19331 0.64524 0.24394 0.0
H1600 H 0.24851 0.71039 0.26208 0.0
H1601 H 0.23129 0.6698 0.24328 0.0
H1602 H 0.23908 0.64294 0.31379 0.0
H1603 H 0.25754 0.68348 0.33228 0.0
C1604 C 0.20584 0.58628 0.26805 0.0
C1605 C 0.18424 0.58627 0.25337 0.0
C1606 C 0.22274 0.60776 0.27467 0.0
C1607 C 0.2183 0.6295 0.26663 0.0
C1608 C 0.19757 0.62892 0.25037 0.0
C1609 C 0.18081 0.60758 0.24378 0.0
C1610 C 0.24678 0.69573 0.27348 0.0
C1611 C 0.25387 0.70008 0.2987 0.0
C1612 C 0.23691 0.67247 0.26273 0.0
C1613 C 0.23338 0.65311 0.27705 0.0
C1614 C 0.24171 0.65733 0.30212 0.0
C1615 C 0.25205 0.6806 0.3128 0.0
H1616 H 0.52126 0.66291 0.39143 0.0
H1617 H 0.52782 0.70189 0.46287 0.0
H1618 H 0.53161 0.62838 0.40966 0.0
H1619 H 0.54031 0.6682 0.48132 0.0
H1620 H 0.51488 0.59253 0.50463 0.0
H1621 H 0.52057 0.63212 0.4906 0.0
H1622 H 0.55518 0.60634 0.42974 0.0
H1623 H 0.54745 0.56611 0.44301 0.0
C1624 C 0.52584 0.66432 0.41102 0.0
C1625 C 0.52337 0.68474 0.42583 0.0
C1626 C 0.53199 0.64457 0.42159 0.0
C1627 C 0.53644 0.64513 0.44718 0.0
C1628 C 0.5362 0.66665 0.46169 0.0
C1629 C 0.52927 0.68607 0.45115 0.0
C1630 C 0.52429 0.59556 0.48864 0.0
C1631 C 0.53045 0.57635 0.47468 0.0
C1632 C 0.5277 0.61838 0.48053 0.0
C1633 C 0.53792 0.62256 0.4586 0.0
C1634 C 0.54646 0.60372 0.44618 0.0
C1635 C 0.54234 0.58072 0.4539 0.0
H1636 H 0.58115 0.2696 0.72618 0.0
H1637 H 0.63011 0.31772 0.68874 0.0
H1638 H 0.6142 0.26925 0.75797 0.0
H1639 H 0.66284 0.31762 0.72048 0.0
H1640 H 0.71881 0.31714 0.78125 0.0
H1641 H 0.67975 0.3259 0.76579 0.0
H1642 H 0.6507 0.24975 0.7502 0.0
H1643 H 0.68963 0.24109 0.76523 0.0
C1644 C 0.59873 0.28074 0.7252 0.0
C1645 C 0.60321 0.29342 0.70487 0.0
C1646 C 0.61761 0.28049 0.74333 0.0
C1647 C 0.64107 0.29332 0.74161 0.0
C1648 C 0.64491 0.30774 0.72243 0.0
C1649 C 0.62621 0.30764 0.70414 0.0
C1650 C 0.70378 0.30232 0.77535 0.0
C1651 C 0.70716 0.27845 0.77424 0.0
C1652 C 0.68151 0.30733 0.76642 0.0
C1653 C 0.66225 0.2885 0.75674 0.0
C1654 C 0.6651 0.26461 0.75779 0.0
C1655 C 0.68742 0.25964 0.76625 0.0
H1656 H 0.96879 0.31436 0.94463 0.0
H1657 H 0.03479 0.32571 0.90993 0.0
H1658 H 0.97499 0.35725 0.95722 0.0
H1659 H 0.04135 0.36865 0.92317 0.0
H1660 H 0.03328 0.44665 0.92867 0.0
H1661 H 0.02487 0.40375 0.91502 0.0
H1662 H 1.00077 0.38835 0.98491 0.0
H1663 H 0.00856 0.43124 -0.00168 0.0
C1664 C 0.98477 0.32597 0.93987 0.0
C1665 C 1.00131 0.31658 0.92625 0.0
C1666 C 0.98835 0.35058 0.94718 0.0
C1667 C 0.00862 0.36641 0.94116 0.0
C1668 C 0.02532 0.357 0.92776 0.0
C1669 C 0.02168 0.33236 0.92035 0.0
C1670 C 0.02592 0.43411 0.94102 0.0
C1671 C 0.02162 0.44234 0.96459 0.0
C1672 C 0.02132 0.40952 0.93327 0.0
C1673 C 0.0124 0.3926 0.94895 0.0
C1674 C 0.00744 0.40089 0.97228 0.0
C1675 C 0.01194 0.4255 0.97999 0.0
H1676 H 0.96048 0.77334 0.17188 0.0
H1677 H 0.99407 0.76827 0.24414 0.0
H1678 H 0.92281 0.7763 0.18855 0.0
H1679 H 0.9561 0.77147 0.26089 0.0
H1680 H 0.87331 0.75198 0.27282 0.0
H1681 H 0.91291 0.74903 0.25971 0.0
H1682 H 0.9088 0.80697 0.21496 0.0
H1683 H 0.86945 0.80984 0.22777 0.0
C1684 C 0.95984 0.7728 0.19133 0.0
C1685 C 0.98038 0.77072 0.20669 0.0
C1686 C 0.93826 0.77466 0.20091 0.0
C1687 C 0.93659 0.77444 0.22608 0.0
C1688 C 0.95686 0.77165 0.24141 0.0
C1689 C 0.97859 0.76989 0.23182 0.0
C1690 C 0.88104 0.76428 0.26044 0.0
C1691 C 0.86812 0.78098 0.25115 0.0
C1692 C 0.90371 0.76261 0.25297 0.0
C1693 C 0.91376 0.77752 0.23602 0.0
C1694 C 0.90129 0.79489 0.22764 0.0
C1695 C 0.87878 0.79662 0.23513 0.0
H1696 H 0.52307 0.28463 0.06169 0.0
H1697 H 0.49333 0.31725 0.12236 0.0
H1698 H 0.51981 0.31939 0.03938 0.0
H1699 H 0.49047 0.3519 0.10033 0.0
H1700 H 0.46484 0.39913 0.04776 0.0
H1701 H 0.46671 0.36151 0.06491 0.0
H1702 H 0.53735 0.36285 0.04083 0.0
H1703 H 0.53531 0.40048 0.0232 0.0
C1704 C 0.51596 0.29923 0.07032 0.0
C1705 C 0.50837 0.29812 0.09378 0.0
C1706 C 0.51416 0.31915 0.05755 0.0
C1707 C 0.50464 0.33827 0.06797 0.0
C1708 C 0.4974 0.33724 0.09156 0.0
C1709 C 0.49922 0.31743 0.10428 0.0
C1710 C 0.48064 0.39126 0.04579 0.0
C1711 C 0.50004 0.40292 0.03435 0.0
C1712 C 0.48178 0.36977 0.05577 0.0
C1713 C 0.50238 0.35945 0.05465 0.0
C1714 C 0.52122 0.37035 0.04196 0.0
C1715 C 0.52005 0.3919 0.03188 0.0
H1716 H 0.96877 0.27543 0.37582 0.0
H1717 H 0.92467 0.24036 0.42705 0.0
H1718 H 0.93205 0.27711 0.34928 0.0
H1719 H 0.88843 0.24129 0.40052 0.0
H1720 H 0.8275 0.26951 0.36662 0.0
H1721 H 0.86657 0.27144 0.38971 0.0
H1722 H 0.89667 0.25394 0.32298 0.0
H1723 H 0.85748 0.25289 0.29969 0.0
C1724 C 0.95129 0.2677 0.38117 0.0
C1725 C 0.94956 0.25803 0.40365 0.0
C1726 C 0.93028 0.26869 0.36602 0.0
C1727 C 0.90726 0.25988 0.37306 0.0
C1728 C 0.90578 0.24902 0.3949 0.0
C1729 C 0.92661 0.24827 0.41004 0.0
C1730 C 0.84256 0.26648 0.35683 0.0
C1731 C 0.8394 0.26085 0.33142 0.0
C1732 C 0.86492 0.26735 0.37007 0.0
C1733 C 0.88462 0.26218 0.35828 0.0
C1734 C 0.88188 0.25797 0.33264 0.0
C1735 C 0.85945 0.2574 0.3193 0.0
H1736 H 0.98373 0.69712 0.56988 0.0
H1737 H 0.9536 0.63845 0.6096 0.0
H1738 H 0.98732 0.66829 0.53574 0.0
H1739 H 0.95699 0.60977 0.57529 0.0
H1740 H 0.95837 0.56317 0.50599 0.0
H1741 H 0.9442 0.59599 0.52831 0.0
H1742 H 0.01695 0.63797 0.53829 0.0
H1743 H 0.03116 0.60499 0.51663 0.0
C1744 C 0.9772 0.67815 0.57107 0.0
C1745 C 0.96865 0.67004 0.59258 0.0
C1746 C 0.97931 0.6617 0.55152 0.0
C1747 C 0.97249 0.63689 0.55296 0.0
C1748 C 0.96213 0.62884 0.57363 0.0
C1749 C 0.96035 0.64526 0.59333 0.0
C1750 C 0.97111 0.57978 0.51217 0.0
C1751 C 0.99584 0.58168 0.50964 0.0
C1752 C 0.96304 0.59843 0.52506 0.0
C1753 C 0.97951 0.61941 0.53501 0.0
C1754 C 0.00385 0.62207 0.53057 0.0
C1755 C 0.01199 0.60325 0.51821 0.0
H1756 H 0.55955 0.72748 0.86449 0.0
H1757 H 0.5922 0.7965 0.90405 0.0
H1758 H 0.59583 0.72798 0.84355 0.0
H1759 H 0.62811 0.79709 0.88297 0.0
H1760 H 0.69847 0.77865 0.8639 0.0
H1761 H 0.66137 0.7752 0.8833 0.0
H1762 H 0.61951 0.74974 0.8136 0.0
H1763 H 0.65692 0.75292 0.79405 0.0
C1764 C 0.57437 0.74282 0.86861 0.0
C1765 C 0.57303 0.76188 0.88607 0.0
C1766 C 0.5951 0.74312 0.85654 0.0
C1767 C 0.61494 0.76244 0.86179 0.0
C1768 C 0.61333 0.78171 0.87886 0.0
C1769 C 0.59266 0.78144 0.89084 0.0
C1770 C 0.6814 0.77215 0.85266 0.0
C1771 C 0.68065 0.76627 0.82737 0.0
C1772 C 0.66011 0.77032 0.86379 0.0
C1773 C 0.63748 0.76257 0.84994 0.0
C1774 C 0.63669 0.75573 0.82477 0.0
C1775 C 0.65809 0.75759 0.81358 0.0
H1776 H 0.42795 0.53849 0.68035 0.0
H1777 H 0.48442 0.50017 0.70093 0.0
H1778 H 0.44674 0.54805 0.6433 0.0
H1779 H 0.50287 0.5094 0.6641 0.0
H1780 H 0.53798 0.53576 0.60005 0.0
H1781 H 0.52339 0.53976 0.64021 0.0
H1782 H 0.44964 0.52226 0.6061 0.0
H1783 H 0.46412 0.51862 0.56621 0.0
C1784 C 0.44458 0.53251 0.67722 0.0
C1785 C 0.4545 0.51829 0.69339 0.0
C1786 C 0.45527 0.53788 0.65596 0.0
C1787 C 0.47621 0.52933 0.65065 0.0
C1788 C 0.48692 0.51647 0.66768 0.0
C1789 C 0.47617 0.51097 0.68873 0.0
C1790 C 0.51868 0.53321 0.60114 0.0
C1791 C 0.50221 0.5265 0.57999 0.0
C1792 C 0.51032 0.53542 0.62413 0.0
C1793 C 0.48534 0.53117 0.62637 0.0
C1794 C 0.46897 0.52589 0.60507 0.0
C1795 C 0.4773 0.52353 0.58218 0.0
H1796 H 0.77532 0.23308 0.98996 0.0
H1797 H 0.80118 0.17204 0.95804 0.0
H1798 H 0.78547 0.25477 0.95532 0.0
H1799 H 0.81029 0.19341 0.92238 0.0
H1800 H 0.83669 0.24311 0.86686 0.0
H1801 H 0.83468 0.22652 0.90607 0.0
H1802 H 0.76847 0.25228 0.91466 0.0
H1803 H 0.771 0.26953 0.87634 0.0
C1804 C 0.78302 0.22423 0.97535 0.0
C1805 C 0.78708 0.20073 0.9764 0.0
C1806 C 0.78881 0.23666 0.95547 0.0
C1807 C 0.79832 0.22571 0.93588 0.0
C1808 C 0.80317 0.20244 0.93728 0.0
C1809 C 0.79777 0.19011 0.95753 0.0
C1810 C 0.82201 0.24564 0.87743 0.0
C1811 C 0.80394 0.25753 0.86847 0.0
C1812 C 0.82074 0.23593 0.89975 0.0
C1813 C 0.80134 0.2379 0.91342 0.0
C1814 C 0.78389 0.25071 0.90485 0.0
C1815 C 0.78527 0.26056 0.88274 0.0
H1816 H 0.05282 0.50612 0.20137 0.0
H1817 H 0.11319 0.47554 0.18045 0.0
H1818 H 0.03135 0.49308 0.16117 0.0
H1819 H 0.09128 0.46188 0.13998 0.0
H1820 H 0.07131 0.50144 0.07184 0.0
H1821 H 0.08606 0.49068 0.11071 0.0
H1822 H 0.01265 0.46469 0.12569 0.0
H1823 H 0.9976 0.4755 0.08599 0.0
C1824 C 0.06124 0.496 0.18833 0.0
C1825 C 0.08504 0.49262 0.19367 0.0
C1826 C 0.04872 0.48816 0.16536 0.0
C1827 C 0.05982 0.47688 0.14724 0.0
C1828 C 0.08248 0.47093 0.15353 0.0
C1829 C 0.09503 0.47876 0.17664 0.0
C1830 C 0.0582 0.49287 0.08303 0.0
C1831 C 0.03323 0.4897 0.07599 0.0
C1832 C 0.06674 0.48638 0.10531 0.0
C1833 C 0.05054 0.47685 0.12134 0.0
C1834 C 0.02554 0.47211 0.11369 0.0
C1835 C 0.01693 0.47839 0.09107 0.0
H1836 H 0.74621 0.8687 0.45625 0.0
H1837 H 0.77511 0.80512 0.46807 0.0
H1838 H 0.74028 0.85653 0.41231 0.0
H1839 H 0.76815 0.7923 0.42459 0.0
H1840 H 0.77834 0.78774 0.34453 0.0
H1841 H 0.78368 0.80098 0.38809 0.0
H1842 H 0.7181 0.8295 0.38013 0.0
H1843 H 0.71354 0.8173 0.33645 0.0
C1844 C 0.75086 0.8519 0.44948 0.0
C1845 C 0.76126 0.83795 0.46557 0.0
C1846 C 0.74743 0.84486 0.42428 0.0
C1847 C 0.75399 0.82351 0.41471 0.0
C1848 C 0.76352 0.80918 0.43107 0.0
C1849 C 0.76729 0.81641 0.4561 0.0
C1850 C 0.76513 0.7969 0.35212 0.0
C1851 C 0.74554 0.80147 0.33705 0.0
C1852 C 0.76805 0.80436 0.37716 0.0
C1853 C 0.75121 0.81621 0.38784 0.0
C1854 C 0.73165 0.82079 0.37264 0.0
C1855 C 0.72895 0.81366 0.34755 0.0
H1856 H 0.42997 0.5393 0.82679 0.0
H1857 H 0.4551 0.47205 0.82219 0.0
H1858 H 0.44473 0.54636 0.87025 0.0
H1859 H 0.46909 0.47873 0.86542 0.0
H1860 H 0.51282 0.50778 0.93793 0.0
H1861 H 0.49965 0.50318 0.8943 0.0
H1862 H 0.43607 0.53151 0.90865 0.0
H1863 H 0.44961 0.53676 0.9522 0.0
C1864 C 0.43857 0.52602 0.83503 0.0
C1865 C 0.4414 0.50516 0.82096 0.0
C1866 C 0.44692 0.52999 0.85996 0.0
C1867 C 0.45818 0.51314 0.87135 0.0
C1868 C 0.46095 0.49232 0.85722 0.0
C1869 C 0.45275 0.48842 0.83238 0.0
C1870 C 0.49603 0.51301 0.93177 0.0
C1871 C 0.48223 0.52255 0.94854 0.0
C1872 C 0.48842 0.5103 0.90675 0.0
C1873 C 0.46674 0.51691 0.89792 0.0
C1874 C 0.45301 0.52655 0.91474 0.0
C1875 C 0.46069 0.52938 0.93975 0.0
H1876 H 0.80564 0.23858 0.09175 0.0
H1877 H 0.81969 0.17139 0.11451 0.0
H1878 H 0.81573 0.25733 0.13322 0.0
H1879 H 0.83063 0.19044 0.15647 0.0
H1880 H 0.78317 0.21364 0.21595 0.0
H1881 H 0.79934 0.19882 0.1803 0.0
H1882 H 0.8371 0.27084 0.17281 0.0
H1883 H 0.82042 0.28597 0.20901 0.0
C1884 C 0.81183 0.22808 0.1056 0.0
C1885 C 0.81102 0.20336 0.10026 0.0
C1886 C 0.81794 0.23893 0.12941 0.0
C1887 C 0.82324 0.22517 0.14833 0.0
C1888 C 0.82598 0.20132 0.1423 0.0
C1889 C 0.81983 0.19041 0.11832 0.0
C1890 C 0.79529 0.22639 0.2071 0.0
C1891 C 0.80006 0.25112 0.21503 0.0
C1892 C 0.80495 0.21775 0.18674 0.0
C1893 C 0.8195 0.23363 0.17355 0.0
C1894 C 0.82575 0.25819 0.18247 0.0
C1895 C 0.81608 0.26688 0.20306 0.0
H1896 H 0.09407 0.55165 0.32839 0.0
H1897 H 0.10185 0.47798 0.31234 0.0
H1898 H 0.06917 0.53983 0.36039 0.0
H1899 H 0.07622 0.46594 0.34421 0.0
H1900 H 0.0534 0.46536 0.42387 0.0
H1901 H 0.07536 0.47065 0.38836 0.0
H1902 H 0.02867 0.51739 0.36276 0.0
H1903 H 0.00719 0.51281 0.39877 0.0
C1904 C 0.09052 0.53292 0.33181 0.0
C1905 C 0.09976 0.5157 0.31783 0.0
C1906 C 0.07599 0.52609 0.34991 0.0
C1907 C 0.0702 0.50185 0.35432 0.0
C1908 C 0.0803 0.48473 0.34109 0.0
C1909 C 0.09505 0.49163 0.32299 0.0
C1910 C 0.04746 0.47635 0.41041 0.0
C1911 C 0.02897 0.48917 0.41437 0.0
C1912 C 0.06003 0.47932 0.39002 0.0
C1913 C 0.05414 0.49495 0.37319 0.0
C1914 C 0.03405 0.5058 0.3759 0.0
C1915 C 0.02161 0.50301 0.39638 0.0
H1916 H 0.72652 0.84537 0.60131 0.0
H1917 H 0.77771 0.79883 0.5909 0.0
H1918 H 0.71298 0.82372 0.6356 0.0
H1919 H 0.76488 0.77798 0.62504 0.0
H1920 H 0.73284 0.73385 0.67905 0.0
H1921 H 0.73397 0.75123 0.64032 0.0
H1922 H 0.72829 0.81988 0.6768 0.0
H1923 H 0.7262 0.80233 0.71521 0.0
C1924 C 0.73477 0.83049 0.60619 0.0
C1925 C 0.75331 0.82398 0.5934 0.0
C1926 C 0.72709 0.81813 0.62589 0.0
C1927 C 0.73775 0.79897 0.63311 0.0
C1928 C 0.75582 0.79222 0.61982 0.0
C1929 C 0.76342 0.80447 0.60029 0.0
C1930 C 0.73126 0.7525 0.67871 0.0
C1931 C 0.72979 0.76673 0.70036 0.0
C1932 C 0.7321 0.76255 0.65651 0.0
C1933 C 0.73178 0.78715 0.65546 0.0
C1934 C 0.7285 0.8009 0.67679 0.0
C1935 C 0.72742 0.79079 0.69894 0.0
H1936 H 0.70124 0.41089 0.54568 0.0
H1937 H 0.72152 0.45305 0.48678 0.0
H1938 H 0.66862 0.43266 0.55178 0.0
H1939 H 0.68883 0.4747 0.49293 0.0
H1940 H 0.60439 0.4687 0.48546 0.0
H1941 H 0.64352 0.45716 0.48458 0.0
H1942 H 0.65824 0.47499 0.56267 0.0
H1943 H 0.61874 0.48709 0.56348 0.0
C1944 C 0.69896 0.42502 0.53426 0.0
C1945 C 0.71373 0.43 0.51549 0.0
C1946 C 0.68044 0.43763 0.53794 0.0
C1947 C 0.67619 0.45528 0.52277 0.0
C1948 C 0.69168 0.46107 0.50479 0.0
C1949 C 0.71036 0.44865 0.50127 0.0
C1950 C 0.6161 0.47051 0.50242 0.0
C1951 C 0.60856 0.47864 0.52457 0.0
C1952 C 0.63858 0.46408 0.50188 0.0
C1953 C 0.6539 0.46523 0.52354 0.0
C1954 C 0.6467 0.47396 0.54572 0.0
C1955 C 0.62425 0.48094 0.54619 0.0
H1956 H 0.20924 0.06756 0.50432 0.0
H1957 H 0.16104 0.09865 0.45732 0.0
H1958 H 0.1763 0.03344 0.507 0.0
H1959 H 0.12842 0.06453 0.45968 0.0
H1960 H 0.07373 0.99773 0.46335 0.0
H1961 H 0.11274 0.01842 0.45238 0.0
H1962 H 0.13841 0.03708 0.52882 0.0
H1963 H 0.09952 0.01688 0.53969 0.0
C1964 C 0.19187 0.0667 0.49392 0.0
C1965 C 0.18756 0.08587 0.48088 0.0
C1966 C 0.17305 0.04723 0.49551 0.0
C1967 C 0.14981 0.04642 0.48365 0.0
C1968 C 0.14618 0.06456 0.46885 0.0
C1969 C 0.16481 0.08418 0.46764 0.0
C1970 C 0.08801 0.00563 0.47775 0.0
C1971 C 0.08365 0.00592 0.50235 0.0
C1972 C 0.11024 0.01752 0.47148 0.0
C1973 C 0.12855 0.02936 0.48975 0.0
C1974 C 0.12476 0.02789 0.51436 0.0
C1975 C 0.10245 0.01648 0.52058 0.0
H1976 H 0.19361 0.96477 0.73361 0.0
H1977 H 0.17578 0.95703 0.80719 0.0
H1978 H 0.2114 0.92889 0.73401 0.0
H1979 H 0.19399 0.92157 0.80775 0.0
H1980 H 0.1944 0.84222 0.78564 0.0
H1981 H 0.18243 0.88099 0.78804 0.0
H1982 H 0.24407 0.91047 0.75184 0.0
H1983 H 0.25593 0.87114 0.74899 0.0
C1984 C 0.19378 0.95563 0.74999 0.0
C1985 C 0.18299 0.96362 0.77026 0.0
C1986 C 0.20412 0.93514 0.75026 0.0
C1987 C 0.20392 0.92221 0.77082 0.0
C1988 C 0.19405 0.93084 0.79144 0.0
C1989 C 0.18368 0.95125 0.79115 0.0
C1990 C 0.20557 0.85695 0.77831 0.0
C1991 C 0.2261 0.85353 0.76704 0.0
C1992 C 0.19877 0.8793 0.77986 0.0
C1993 C 0.21231 0.89891 0.77021 0.0
C1994 C 0.23314 0.89567 0.75928 0.0
C1995 C 0.24002 0.8732 0.75779 0.0
H1996 H 0.35842 0.88059 0.01578 0.0
H1997 H 0.31699 0.93709 0.0202 0.0
H1998 H 0.39566 0.91046 0.02238 0.0
H1999 H 0.35487 0.96727 0.02683 0.0
H2000 H 0.43412 0.0082 0.01077 0.0
H2001 H 0.39382 0.98196 0.00352 0.0
H2002 H 0.41448 0.93969 0.06007 0.0
H2003 H 0.45425 0.96554 0.06739 0.0
C2004 C 0.3572 0.8994 0.01807 0.0
C2005 C 0.33466 0.90641 0.01768 0.0
C2006 C 0.3786 0.91651 0.02192 0.0
C2007 C 0.37811 0.94111 0.02535 0.0
C2008 C 0.35567 0.94836 0.02421 0.0
C2009 C 0.33407 0.93111 0.02054 0.0
C2010 C 0.42991 0.99342 0.02177 0.0
C2011 C 0.44747 0.9888 0.03947 0.0
C2012 C 0.40687 0.97853 0.0177 0.0
C2013 C 0.40122 0.95871 0.03108 0.0
C2014 C 0.41849 0.95467 0.04928 0.0
C2015 C 0.44128 0.96955 0.05348 0.0
H2016 H 0.88451 0.59846 0.76854 0.0
H2017 H 0.81716 0.54753 0.74858 0.0
H2018 H 0.86273 0.6314 0.76866 0.0
H2019 H 0.79524 0.58076 0.74908 0.0
H2020 H 0.77023 0.65233 0.73079 0.0
H2021 H 0.78994 0.61743 0.72782 0.0
H2022 H 0.83476 0.64548 0.79533 0.0
H2023 H 0.81547 0.68001 0.79826 0.0
C2024 C 0.86504 0.59426 0.7642 0.0
C2025 C 0.85257 0.57032 0.75877 0.0
C2026 C 0.85254 0.61317 0.76434 0.0
C2027 C 0.82724 0.60866 0.75915 0.0
C2028 C 0.81475 0.58478 0.75304 0.0
C2029 C 0.8273 0.56577 0.75288 0.0
C2030 C 0.78419 0.6509 0.74503 0.0
C2031 C 0.79138 0.66904 0.76466 0.0
C2032 C 0.79542 0.63092 0.74336 0.0
C2033 C 0.81412 0.62889 0.76118 0.0
C2034 C 0.82076 0.64674 0.78105 0.0
C2035 C 0.80955 0.6665 0.78278 0.0
H2036 H 0.8007 0.55505 0.01599 0.0
H2037 H 0.84075 0.62394 0.0017 0.0
H2038 H 0.83769 0.53879 0.01687 0.0
H2039 H 0.87773 0.60799 0.00333 0.0
H2040 H 0.93477 0.56775 0.98179 0.0
H2041 H 0.8966 0.58129 0.98026 0.0
H2042 H 0.87638 0.54011 0.03984 0.0
H2043 H 0.91469 0.52589 0.04086 0.0
C2044 C 0.81741 0.56678 0.01316 0.0
C2045 C 0.8177 0.59079 0.00863 0.0
C2046 C 0.83867 0.55748 0.01382 0.0
C2047 C 0.86076 0.57198 0.01004 0.0
C2048 C 0.86102 0.59609 0.00582 0.0
C2049 C 0.83978 0.60532 0.00501 0.0
C2050 C 0.92219 0.56146 0.99456 0.0
C2051 C 0.92789 0.54588 0.01161 0.0
C2052 C 0.90029 0.56939 0.99378 0.0
C2053 C 0.88346 0.56216 0.01018 0.0
C2054 C 0.88883 0.54598 0.02683 0.0
C2055 C 0.9108 0.53786 0.02749 0.0
H2056 H 0.19954 0.07088 0.77194 0.0
H2057 H 0.16349 0.11183 0.8209 0.0
H2058 H 0.22932 0.10738 0.76839 0.0
H2059 H 0.19359 0.14804 0.81783 0.0
H2060 H 0.23587 0.18576 0.73855 0.0
H2061 H 0.21769 0.14567 0.74811 0.0
H2062 H 0.24165 0.16683 0.82455 0.0
H2063 H 0.26055 0.20695 0.81486 0.0
C2064 C 0.19844 0.08748 0.78253 0.0
C2065 C 0.17911 0.08861 0.79652 0.0
C2066 C 0.21541 0.10832 0.78044 0.0
C2067 C 0.21366 0.13044 0.79281 0.0
C2068 C 0.19543 0.13116 0.80827 0.0
C2069 C 0.17816 0.11048 0.80991 0.0
C2070 C 0.23771 0.18167 0.75732 0.0
C2071 C 0.2495 0.19938 0.77599 0.0
C2072 C 0.22747 0.15872 0.76276 0.0
C2073 C 0.22835 0.15322 0.78704 0.0
C2074 C 0.24085 0.17067 0.80568 0.0
C2075 C 0.25167 0.19351 0.80014 0.0
H2076 H 0.40023 0.94627 0.23845 0.0
H2077 H 0.35622 0.97178 0.29061 0.0
H2078 H 0.3744 0.90661 0.23412 0.0
H2079 H 0.331 0.9314 0.28766 0.0
H2080 H 0.28098 0.85753 0.26401 0.0
H2081 H 0.30244 0.89929 0.26531 0.0
H2082 H 0.36909 0.87425 0.25694 0.0
H2083 H 0.34748 0.833 0.25433 0.0
C2084 C 0.38494 0.94328 0.24901 0.0
C2085 C 0.38029 0.96192 0.26501 0.0
C2086 C 0.37025 0.92047 0.24677 0.0
C2087 C 0.35095 0.91548 0.26107 0.0
C2088 C 0.34563 0.93452 0.27632 0.0
C2089 C 0.36007 0.95763 0.27808 0.0
C2090 C 0.30023 0.86111 0.26248 0.0
C2091 C 0.31255 0.84207 0.25882 0.0
C2092 C 0.31256 0.88502 0.26329 0.0
C2093 C 0.33749 0.89027 0.26081 0.0
C2094 C 0.34978 0.87104 0.25805 0.0
C2095 C 0.33744 0.8473 0.25679 0.0
H2096 H 0.50475 0.33536 0.63312 0.0
H2097 H 0.5531 0.3296 0.57775 0.0
H2098 H 0.49336 0.37024 0.61568 0.0
H2099 H 0.542 0.36437 0.56067 0.0
H2100 H 0.51429 0.42259 0.52744 0.0
H2101 H 0.51031 0.38203 0.54002 0.0
H2102 H 0.51657 0.41138 0.61553 0.0
H2103 H 0.52013 0.45168 0.603 0.0
C2104 C 0.51268 0.3413 0.61706 0.0
C2105 C 0.53011 0.32995 0.60704 0.0
C2106 C 0.50618 0.36127 0.60711 0.0
C2107 C 0.51683 0.3701 0.58686 0.0
C2108 C 0.53321 0.35787 0.57607 0.0
C2109 C 0.5398 0.33807 0.58607 0.0
C2110 C 0.51414 0.42028 0.54666 0.0
C2111 C 0.51798 0.44032 0.56428 0.0
C2112 C 0.51199 0.39709 0.55387 0.0
C2113 C 0.51349 0.39356 0.57878 0.0
C2114 C 0.51522 0.41345 0.5962 0.0
C2115 C 0.51747 0.43659 0.58902 0.0
H2116 H 0.44936 0.73826 0.31621 0.0
H2117 H 0.40721 0.69682 0.3649 0.0
H2118 H 0.41214 0.74418 0.29367 0.0
H2119 H 0.37013 0.70231 0.34206 0.0
H2120 H 0.32442 0.76039 0.33258 0.0
H2121 H 0.35844 0.74245 0.34494 0.0
H2122 H 0.37008 0.72835 0.26939 0.0
H2123 H 0.33549 0.74692 0.25695 0.0
C2124 C 0.43216 0.7296 0.3215 0.0
C2125 C 0.43115 0.71761 0.34269 0.0
C2126 C 0.41085 0.73295 0.30853 0.0
C2127 C 0.38833 0.72421 0.31654 0.0
C2128 C 0.38732 0.70969 0.33586 0.0
C2129 C 0.40853 0.70652 0.3489 0.0
C2130 C 0.33439 0.75386 0.3186 0.0
C2131 C 0.32778 0.75568 0.29391 0.0
C2132 C 0.35359 0.74305 0.32562 0.0
C2133 C 0.36678 0.73375 0.3081 0.0
C2134 C 0.36014 0.73533 0.28324 0.0
C2135 C 0.3405 0.74596 0.27617 0.0
H2136 H 0.00905 0.69916 0.13273 0.0
H2137 H 0.07553 0.70943 0.09882 0.0
H2138 H 1.00069 0.65663 0.1174 0.0
H2139 H 0.06744 0.66688 0.08404 0.0
H2140 H 0.02961 0.59655 0.03766 0.0
H2141 H 0.04002 0.63871 0.05426 0.0
H2142 H 0.01485 0.61957 0.12272 0.0
H2143 H 0.00392 0.57749 0.10594 0.0
C2144 C 0.02195 0.69234 0.12215 0.0
C2145 C 0.0429 0.70773 0.11694 0.0
C2146 C 0.01724 0.66792 0.1135 0.0
C2147 C 0.03341 0.65835 0.09949 0.0
C2148 C 0.05445 0.67372 0.09448 0.0
C2149 C 0.05913 0.69812 0.10307 0.0
C2150 C 0.02651 0.6013 0.05633 0.0
C2151 C 0.01584 0.58369 0.07044 0.0
C2152 C 0.03255 0.62547 0.06588 0.0
C2153 C 0.02812 0.63253 0.08978 0.0
C2154 C 0.01809 0.61479 0.1041 0.0
C2155 C 0.012 0.59064 0.09454 0.0
H2156 H 0.07883 0.2445 0.86228 0.0
H2157 H 0.04653 0.2709 0.79882 0.0
H2158 H 0.11427 0.2413 0.84161 0.0
H2159 H 0.08221 0.26738 0.77792 0.0
H2160 H 0.16471 0.28258 0.76415 0.0
H2161 H 0.12636 0.28526 0.78028 0.0
H2162 H 0.12426 0.21606 0.80743 0.0
H2163 H 0.16252 0.21351 0.79172 0.0
C2164 C 0.07926 0.24962 0.84389 0.0
C2165 C 0.05976 0.25787 0.83218 0.0
C2166 C 0.09954 0.2476 0.83196 0.0
C2167 C 0.10091 0.25378 0.808 0.0
C2168 C 0.08167 0.26251 0.7964 0.0
C2169 C 0.06124 0.26447 0.80835 0.0
C2170 C 0.15581 0.26776 0.77317 0.0
C2171 C 0.16677 0.24795 0.7769 0.0
C2172 C 0.13385 0.2693 0.78239 0.0
C2173 C 0.12252 0.25106 0.7955 0.0
C2174 C 0.13283 0.23066 0.79792 0.0
C2175 C 0.15469 0.22914 0.78876 0.0
H2176 H 0.5005 0.71582 0.01087 0.0
H2177 H 0.5378 0.70517 0.94732 0.0
H2178 H 0.50907 0.67852 0.02448 0.0
H2179 H 0.54548 0.66718 0.96034 0.0
H2180 H 0.57136 0.60823 -0.00179 0.0
H2181 H 0.56733 0.64862 0.98938 0.0
H2182 H 0.4962 0.63685 0.01413 0.0
H2183 H 0.50069 0.59702 0.02383 0.0
C2184 C 0.51042 0.7054 -0.00028 0.0
C2185 C 0.51835 0.71333 0.97794 0.0
C2186 C 0.51525 0.68394 0.00747 0.0
C2187 C 0.52782 0.66969 0.99345 0.0
C2188 C 0.53607 0.67784 0.97181 0.0
C2189 C 0.53152 0.69953 0.96422 0.0
C2190 C 0.55503 0.61446 0.00209 0.0
C2191 C 0.53633 0.59945 0.01169 0.0
C2192 C 0.55262 0.63752 -0.00317 0.0
C2193 C 0.53136 0.64597 0.00083 0.0
C2194 C 0.51298 0.63114 0.01112 0.0
C2195 C 0.51551 0.60822 0.01663 0.0
H2196 H 0.06047 0.70327 0.69124 0.0
H2197 H 0.06219 0.77105 0.66097 0.0
H2198 H 0.10423 0.71298 0.7005 0.0
H2199 H 0.10595 0.78111 0.67098 0.0
H2200 H 0.18629 0.78278 0.67162 0.0
H2201 H 0.14288 0.77021 0.65961 0.0
H2202 H 0.13452 0.73962 0.72793 0.0
H2203 H 0.17779 0.75145 0.73953 0.0
C2204 C 0.07016 0.72036 0.68678 0.0
C2205 C 0.05784 0.73643 0.67544 0.0
C2206 C 0.09526 0.72594 0.69213 0.0
C2207 C 0.1086 0.74781 0.68646 0.0
C2208 C 0.09626 0.76393 0.6752 0.0
C2209 C 0.07115 0.75826 0.66968 0.0
C2210 C 0.17519 0.77314 0.68392 0.0
C2211 C 0.18545 0.76818 0.70654 0.0
C2212 C 0.1503 0.76611 0.67714 0.0
C2213 C 0.1352 0.75407 0.69289 0.0
C2214 C 0.14563 0.7486 0.71523 0.0
C2215 C 0.17047 0.75549 0.72193 0.0
H2216 H 0.03172 0.33385 0.51887 0.0
H2217 H 0.04382 0.34602 0.44459 0.0
H2218 H 0.03451 0.37696 0.52918 0.0
H2219 H 0.04625 0.38915 0.45491 0.0
H2220 H 0.9954 0.44321 0.47462 0.0
H2221 H 0.00665 0.4044 0.46695 0.0
H2222 H 0.06099 0.42195 0.52915 0.0
H2223 H 0.05024 0.46164 0.53664 0.0
C2224 C 0.03576 0.34585 0.50497 0.0
C2225 C 0.03721 0.33664 0.48085 0.0
C2226 C 0.03746 0.37049 0.51092 0.0
C2227 C 0.04026 0.38617 0.49274 0.0
C2228 C 0.04395 0.37727 0.46917 0.0
C2229 C 0.04267 0.35265 0.46331 0.0
C2230 C 0.00984 0.43899 0.4867 0.0
C2231 C 0.02201 0.4556 0.5062 0.0
C2232 C 0.01643 0.41683 0.4821 0.0
C2233 C 0.035 0.4105 0.49716 0.0
C2234 C 0.04682 0.42668 0.51712 0.0
C2235 C 0.04054 0.44922 0.52147 0.0
H2236 H 0.44258 0.27911 0.17552 0.0
H2237 H 0.43698 0.2201 0.22027 0.0
H2238 H 0.40665 0.29004 0.1909 0.0
H2239 H 0.40092 0.23072 0.2352 0.0
H2240 H 0.34017 0.25724 0.26582 0.0
H2241 H 0.38239 0.25935 0.25845 0.0
H2242 H 0.36427 0.27102 0.18342 0.0
H2243 H 0.32244 0.2694 0.19088 0.0
C2244 C 0.43389 0.26864 0.18885 0.0
C2245 C 0.44249 0.24852 0.1964 0.0
C2246 C 0.41326 0.27489 0.19762 0.0
C2247 C 0.40079 0.26117 0.21415 0.0
C2248 C 0.4102 0.24187 0.22271 0.0
C2249 C 0.4308 0.23563 0.21395 0.0
C2250 C 0.34537 0.26096 0.24796 0.0
C2251 C 0.32791 0.26279 0.22883 0.0
C2252 C 0.36952 0.26197 0.24368 0.0
C2253 C 0.37664 0.26497 0.22025 0.0
C2254 C 0.3595 0.26881 0.20172 0.0
C2255 C 0.33543 0.26773 0.20596 0.0
H2256 H 0.55913 0.52524 0.33586 0.0
H2257 H 0.61386 0.48403 0.35389 0.0
H2258 H 0.53941 0.5135 0.3713 0.0
H2259 H 0.59373 0.47189 0.38947 0.0
H2260 H 0.57453 0.49522 0.46748 0.0
H2261 H 0.5901 0.49435 0.42814 0.0
H2262 H 0.51719 0.48148 0.39208 0.0
H2263 H 0.50145 0.48257 0.43189 0.0
C2264 C 0.56679 0.51335 0.34721 0.0
C2265 C 0.58833 0.50588 0.34222 0.0
C2266 C 0.55527 0.50639 0.36743 0.0
C2267 C 0.565 0.49182 0.38331 0.0
C2268 C 0.58591 0.48334 0.3777 0.0
C2269 C 0.59741 0.49023 0.3573 0.0
C2270 C 0.5617 0.49173 0.45121 0.0
C2271 C 0.53672 0.48925 0.45286 0.0
C2272 C 0.57068 0.49105 0.42857 0.0
C2273 C 0.55494 0.48801 0.40692 0.0
C2274 C 0.52982 0.48413 0.40847 0.0
C2275 C 0.52078 0.48462 0.43124 0.0
H2276 H 0.2606 0.78605 0.05874 0.0
H2277 H 0.23799 0.85118 0.08489 0.0
H2278 H 0.25118 0.76885 0.09629 0.0
H2279 H 0.22938 0.83432 0.12295 0.0
H2280 H 0.20638 0.79533 0.18617 0.0
H2281 H 0.20548 0.80455 0.1439 0.0
H2282 H 0.27063 0.77643 0.13699 0.0
H2283 H 0.27112 0.76662 0.17882 0.0
C2284 C 0.2535 0.79666 0.07251 0.0
C2285 C 0.25038 0.8201 0.06908 0.0
C2286 C 0.24817 0.78682 0.09405 0.0
C2287 C 0.23989 0.80032 0.11278 0.0
C2288 C 0.23554 0.82332 0.10881 0.0
C2289 C 0.24061 0.83308 0.08708 0.0
C2290 C 0.22025 0.79072 0.17545 0.0
C2291 C 0.239 0.7805 0.1859 0.0
C2292 C 0.2198 0.79615 0.15129 0.0
C2293 C 0.23812 0.7915 0.13714 0.0
C2294 C 0.25607 0.78004 0.14724 0.0
C2295 C 0.25645 0.77451 0.17132 0.0
H2296 H 0.99546 0.54143 0.83245 0.0
H2297 H 0.92807 0.55885 0.85154 0.0
H2298 H 0.01258 0.55032 0.87468 0.0
H2299 H 0.94548 0.56836 0.89427 0.0
H2300 H 0.96599 0.52348 0.95774 0.0
H2301 H 0.9524 0.53743 0.91996 0.0
H2302 H 0.02545 0.57383 0.91367 0.0
H2303 H 0.03933 0.55938 0.95185 0.0
C2304 C 0.98456 0.54793 0.84567 0.0
C2305 C 0.96023 0.54872 0.83899 0.0
C2306 C 0.99449 0.55335 0.8699 0.0
C2307 C 0.98021 0.55953 0.88795 0.0
C2308 C 0.95675 0.56317 0.88076 0.0
C2309 C 0.9468 0.55782 0.85636 0.0
C2310 C 0.97921 0.53477 0.94859 0.0
C2311 C 0.00388 0.53982 0.9575 0.0
C2312 C 0.97128 0.54314 0.92703 0.0
C2313 C 0.98784 0.55669 0.9137 0.0
C2314 C 0.0123 0.56321 0.92345 0.0
C2315 C 0.02027 0.55484 0.9452 0.0
H2316 H 0.28901 0.16615 0.57095 0.0
H2317 H 0.22178 0.1918 0.56946 0.0
H2318 H 0.29922 0.18273 0.61368 0.0
H2319 H 0.23164 0.2077 0.61206 0.0
H2320 H 0.26675 0.25452 0.68143 0.0
H2321 H 0.25836 0.23915 0.63834 0.0
H2322 H 0.28722 0.17624 0.6537 0.0
H2323 H 0.29617 0.1919 0.69658 0.0
C2324 C 0.27639 0.17523 0.57972 0.0
C2325 C 0.25461 0.17767 0.56672 0.0
C2326 C 0.28217 0.18464 0.60426 0.0
C2327 C 0.26628 0.19663 0.61633 0.0
C2328 C 0.24452 0.19898 0.60328 0.0
C2329 C 0.23879 0.18968 0.57882 0.0
C2330 C 0.2713 0.23742 0.6756 0.0
C2331 C 0.2821 0.22444 0.69245 0.0
C2332 C 0.26641 0.22854 0.6509 0.0
C2333 C 0.2721 0.20641 0.64251 0.0
C2334 C 0.28293 0.19349 0.65942 0.0
C2335 C 0.2879 0.20241 0.68407 0.0
H2336 H 0.58528 0.54691 0.21109 0.0
H2337 H 0.61352 0.48149 0.2122 0.0
H2338 H 0.57057 0.53625 0.16817 0.0
H2339 H 0.59807 0.47042 0.16926 0.0
H2340 H 0.52604 0.4991 0.09806 0.0
H2341 H 0.54037 0.50876 0.14135 0.0
H2342 H 0.60523 0.48173 0.12942 0.0
H2343 H 0.59056 0.47142 0.08636 0.0
C2344 C 0.58819 0.53013 0.20223 0.0
C2345 C 0.60059 0.51505 0.21511 0.0
C2346 C 0.57959 0.52394 0.1776 0.0
C2347 C 0.58303 0.50243 0.16523 0.0
C2348 C 0.59538 0.48728 0.17813 0.0
C2349 C 0.60412 0.49356 0.20278 0.0
C2350 C 0.54335 0.49523 0.1047 0.0
C2351 C 0.55715 0.48449 0.08878 0.0
C2352 C 0.55164 0.50086 0.1295 0.0
C2353 C 0.57398 0.49603 0.13892 0.0
C2354 C 0.58777 0.48534 0.12291 0.0
C2355 C 0.57943 0.47958 0.09816 0.0
H2356 H 0.2255 0.79322 0.9493 0.0
H2357 H 0.25308 0.86274 0.92654 0.0
H2358 H 0.22099 0.77514 0.90713 0.0
H2359 H 0.24981 0.84466 0.88441 0.0
H2360 H 0.24222 0.8063 0.80921 0.0
H2361 H 0.22965 0.82326 0.84674 0.0
H2362 H 0.2527 0.7667 0.88463 0.0
H2363 H 0.26414 0.74926 0.84694 0.0
C2364 C 0.22975 0.80473 0.93503 0.0
C2365 C 0.23962 0.82928 0.94096 0.0
C2366 C 0.22753 0.79437 0.91096 0.0
C2367 C 0.23577 0.80829 0.89249 0.0
C2368 C 0.24327 0.83337 0.89813 0.0
C2369 C 0.24507 0.84382 0.92224 0.0
C2370 C 0.24402 0.79716 0.8254 0.0
C2371 C 0.25406 0.77634 0.82501 0.0
C2372 C 0.237 0.80702 0.84699 0.0
C2373 C 0.24003 0.79634 0.86874 0.0
C2374 C 0.24955 0.77516 0.86815 0.0
C2375 C 0.25642 0.76527 0.84656 0.0
H2376 H 0.99456 0.52724 0.72744 0.0
H2377 H 0.93068 0.54976 0.69639 0.0
H2378 H 0.01559 0.53976 0.69299 0.0
H2379 H 0.95149 0.56141 0.66107 0.0
H2380 H 0.99752 0.58836 0.60346 0.0
H2381 H 0.98406 0.58723 0.64416 0.0
H2382 H 0.01137 0.52195 0.65201 0.0
H2383 H 0.02531 0.52345 0.61202 0.0
C2384 C 0.985 0.53485 0.71315 0.0
C2385 C 0.96082 0.53705 0.71423 0.0
C2386 C 0.99707 0.54205 0.69344 0.0
C2387 C 0.9851 0.55118 0.6741 0.0
C2388 C 0.96128 0.55459 0.67578 0.0
C2389 C 0.94927 0.54773 0.69583 0.0
C2390 C 1.00121 0.57416 0.61421 0.0
C2391 C 0.01225 0.55583 0.60449 0.0
C2392 C 0.99328 0.57339 0.63738 0.0
C2393 C 0.99642 0.55439 0.65121 0.0
C2394 C 0.00887 0.537 0.64201 0.0
C2395 C 0.01675 0.53776 0.61896 0.0
H2396 H 0.24026 0.21695 0.44589 0.0
H2397 H 0.28294 0.16435 0.42585 0.0
H2398 H 0.24839 0.23604 0.40921 0.0
H2399 H 0.29147 0.18388 0.38895 0.0
H2400 H 0.26215 0.20085 0.31154 0.0
H2401 H 0.26621 0.18597 0.35124 0.0
H2402 H 0.27767 0.25869 0.38618 0.0
H2403 H 0.27309 0.27362 0.34622 0.0
C2404 C 0.25175 0.20967 0.43382 0.0
C2405 C 0.26066 0.18889 0.43863 0.0
C2406 C 0.25662 0.22081 0.41285 0.0
C2407 C 0.27048 0.21145 0.39603 0.0
C2408 C 0.28049 0.19138 0.40143 0.0
C2409 C 0.27571 0.18026 0.4226 0.0
C2410 C 0.26574 0.21374 0.32764 0.0
C2411 C 0.26676 0.23838 0.3257 0.0
C2412 C 0.26837 0.2052 0.35045 0.0
C2413 C 0.27206 0.22109 0.37194 0.0
C2414 C 0.27449 0.24593 0.36997 0.0
C2415 C 0.27195 0.2545 0.34708 0.0
H2416 H 0.32536 0.58851 0.46836 0.0
H2417 H 0.33825 0.59954 0.54711 0.0
H2418 H 0.36044 0.56922 0.46718 0.0
H2419 H 0.37278 0.57993 0.54591 0.0
H2420 H 0.45012 0.57803 0.53364 0.0
H2421 H 0.41263 0.59254 0.53291 0.0
H2422 H 0.37859 0.53408 0.47845 0.0
H2423 H 0.4168 0.51947 0.47889 0.0
C2424 C 0.33546 0.58655 0.48542 0.0
C2425 C 0.32923 0.5959 0.50782 0.0
C2426 C 0.35547 0.57537 0.48472 0.0
C2427 C 0.36959 0.57336 0.50642 0.0
C2428 C 0.36259 0.58168 0.52883 0.0
C2429 C 0.34272 0.59286 0.52952 0.0
C2430 C 0.43473 0.56814 0.52145 0.0
C2431 C 0.43646 0.54747 0.50641 0.0
C2432 C 0.41312 0.57641 0.52118 0.0
C2433 C 0.39251 0.56427 0.50591 0.0
C2434 C 0.39421 0.54382 0.49042 0.0
C2435 C 0.41602 0.53544 0.49071 0.0
H2436 H 0.81964 0.93969 0.52217 0.0
H2437 H 0.85719 0.90883 0.579 0.0
H2438 H 0.85735 0.96763 0.51783 0.0
H2439 H 0.89453 0.93702 0.57514 0.0
H2440 H 0.95768 0.99661 0.56732 0.0
H2441 H 0.91629 0.98222 0.57678 0.0
H2442 H 0.89523 0.9535 0.50149 0.0
H2443 H 0.93654 0.96739 0.49213 0.0
C2444 C 0.83569 0.93958 0.53441 0.0
C2445 C 0.83562 0.9221 0.55085 0.0
C2446 C 0.85725 0.95542 0.53181 0.0
C2447 C 0.87884 0.95435 0.54605 0.0
C2448 C 0.87814 0.93836 0.56405 0.0
C2449 C 0.8568 0.92221 0.56624 0.0
C2450 C 0.94407 0.98764 0.55272 0.0
C2451 C 0.95034 0.98288 0.52904 0.0
C2452 C 0.92045 0.97942 0.55815 0.0
C2453 C 0.90258 0.96685 0.53985 0.0
C2454 C 0.90856 0.96341 0.51588 0.0
C2455 C 0.93225 0.97115 0.51058 0.0
H2456 H 0.81477 0.048 0.26842 0.0
H2457 H 0.88374 0.0898 0.25602 0.0
H2458 H 0.79762 0.08437 0.26988 0.0
H2459 H 0.86689 0.12607 0.25816 0.0
H2460 H 0.8258 0.18235 0.23695 0.0
H2461 H 0.83965 0.1445 0.23474 0.0
H2462 H 0.7981 0.12251 0.29353 0.0
H2463 H 0.78358 0.16056 0.29524 0.0
C2464 C 0.82632 0.06495 0.26613 0.0
C2465 C 0.85062 0.06591 0.26193 0.0
C2466 C 0.81651 0.08584 0.26711 0.0
C2467 C 0.83076 0.10821 0.26395 0.0
C2468 C 0.85516 0.10913 0.26014 0.0
C2469 C 0.86491 0.0883 0.25906 0.0
C2470 C 0.81948 0.16943 0.24937 0.0
C2471 C 0.80377 0.17459 0.26646 0.0
C2472 C 0.82758 0.14772 0.24821 0.0
C2473 C 0.82042 0.13054 0.26426 0.0
C2474 C 0.80396 0.13528 0.28082 0.0
C2475 C 0.79565 0.15708 0.28186 0.0
H2476 H 0.69425 0.1305 0.06336 0.0
H2477 H 0.72377 0.09221 0.00634 0.0
H2478 H 0.65487 0.10426 0.05214 0.0
H2479 H 0.68408 0.06585 0.99495 0.0
H2480 H 0.60443 0.06414 0.95918 0.0
H2481 H 0.64674 0.07813 0.97517 0.0
H2482 H 0.62949 0.06246 0.04726 0.0
H2483 H 0.58697 0.04839 0.03125 0.0
C2484 C 0.69243 0.11601 0.04884 0.0
C2485 C 0.71192 0.11355 0.0355 0.0
C2486 C 0.66991 0.1009 0.0425 0.0
C2487 C 0.66636 0.08323 0.02247 0.0
C2488 C 0.68632 0.07953 0.01032 0.0
C2489 C 0.70903 0.09447 0.01693 0.0
C2490 C 0.60966 0.06347 0.9784 0.0
C2491 C 0.59232 0.05549 0.99402 0.0
C2492 C 0.63396 0.0712 0.9875 0.0
C2493 C 0.64141 0.07131 0.01245 0.0
C2494 C 0.62421 0.0626 0.02795 0.0
C2495 C 0.59991 0.05461 0.0188 0.0
H2496 H 0.19249 0.46297 0.31595 0.0
H2497 H 0.18395 0.45638 0.23706 0.0
H2498 H 0.20779 0.42553 0.315 0.0
H2499 H 0.19963 0.4194 0.23619 0.0
H2500 H 0.18861 0.33921 0.24476 0.0
H2501 H 0.18106 0.3797 0.24618 0.0
H2502 H 0.24028 0.40344 0.30326 0.0
H2503 H 0.24779 0.36223 0.30207 0.0
C2504 C 0.19429 0.4538 0.29843 0.0
C2505 C 0.18661 0.46243 0.27657 0.0
C2506 C 0.20318 0.43242 0.29791 0.0
C2507 C 0.20458 0.41934 0.27552 0.0
C2508 C 0.1983 0.42882 0.25373 0.0
C2509 C 0.18936 0.45006 0.25424 0.0
C2510 C 0.20017 0.35298 0.2576 0.0
C2511 C 0.2188 0.34746 0.27335 0.0
C2512 C 0.19594 0.37631 0.25825 0.0
C2513 C 0.21021 0.39485 0.27466 0.0
C2514 C 0.22896 0.38948 0.29045 0.0
C2515 C 0.23331 0.36596 0.2897 0.0
H2516 H 0.23272 0.4635 0.0138 0.0
H2517 H 0.19058 0.39846 0.03472 0.0
H2518 H 0.19709 0.48201 0.01281 0.0
H2519 H 0.15496 0.41654 0.03295 0.0
H2520 H 0.10105 0.46098 0.05249 0.0
H2521 H 0.13846 0.44601 0.0545 0.0
H2522 H 0.15799 0.48136 0.99105 0.0
H2523 H 0.1205 0.49714 0.9896 0.0
C2524 C 0.21585 0.45311 0.01809 0.0
C2525 C 0.21459 0.42953 0.0245 0.0
C2526 C 0.19535 0.46368 0.01736 0.0
C2527 C 0.17308 0.4509 0.02296 0.0
C2528 C 0.17186 0.4272 0.02906 0.0
C2529 C 0.19232 0.41673 0.02994 0.0
C2530 C 0.11335 0.4657 0.039 0.0
C2531 C 0.10768 0.48007 0.02073 0.0
C2532 C 0.1348 0.45695 0.04006 0.0
C2533 C 0.15115 0.46202 0.02267 0.0
C2534 C 0.1459 0.47713 0.00482 0.0
C2535 C 0.12441 0.48615 0.00393 0.0
H2536 H 0.83537 0.96075 0.26403 0.0
H2537 H 0.86481 0.92288 0.20667 0.0
H2538 H 0.8056 0.92415 0.26726 0.0
H2539 H 0.83483 0.8866 0.20954 0.0
H2540 H 0.77157 0.82587 0.21588 0.0
H2541 H 0.78865 0.86683 0.20715 0.0
H2542 H 0.81739 0.88517 0.28284 0.0
H2543 H 0.80091 0.84433 0.29142 0.0
C2544 C 0.83489 0.94491 0.2515 0.0
C2545 C 0.85251 0.94455 0.23525 0.0
C2546 C 0.81796 0.92396 0.25345 0.0
C2547 C 0.81806 0.90253 0.23877 0.0
C2548 C 0.83424 0.90288 0.22098 0.0
C2549 C 0.85146 0.92362 0.2194 0.0
C2550 C 0.78113 0.83884 0.2307 0.0
C2551 C 0.78511 0.83193 0.25428 0.0
C2552 C 0.7909 0.8622 0.2257 0.0
C2553 C 0.80424 0.87916 0.24435 0.0
C2554 C 0.80694 0.87257 0.26818 0.0
C2555 C 0.79769 0.84915 0.27304 0.0
H2556 H 0.70223 0.06445 0.77104 0.0
H2557 H 0.66438 0.10156 0.71995 0.0
H2558 H 0.73219 0.10151 0.7834 0.0
H2559 H 0.69412 0.13839 0.73227 0.0
H2560 H 0.74418 0.17966 0.82531 0.0
H2561 H 0.72608 0.13894 0.80732 0.0
H2562 H 0.73679 0.16021 0.7354 0.0
H2563 H 0.75477 0.20107 0.75334 0.0
C2564 C 0.70072 0.08029 0.76193 0.0
C2565 C 0.68081 0.08024 0.74477 0.0
C2566 C 0.71776 0.10152 0.76913 0.0
C2567 C 0.71531 0.12289 0.75903 0.0
C2568 C 0.69658 0.12221 0.74032 0.0
C2569 C 0.67945 0.10112 0.73335 0.0
C2570 C 0.74298 0.1756 0.80569 0.0
C2571 C 0.75056 0.19367 0.79073 0.0
C2572 C 0.73284 0.15219 0.7954 0.0
C2573 C 0.72997 0.14641 0.76994 0.0
C2574 C 0.73862 0.16421 0.75507 0.0
C2575 C 0.7489 0.18759 0.76536 0.0
loop_
_geom_bond_atom_site_label_1
_geom_bond_atom_site_label_2
_geom_bond_distance
_geom_bond_site_symmetry_2
_ccdc_geom_bond_type
Zn0 O3 2.031 1_655 S
Zn0 O5 2.049 . S
Zn0 O10 2.067 . S
Zn1 O2 1.962 . S
Zn1 O4 1.986 . S
Zn1 O6 1.996 . S
Zn1 O9 1.943 . S
O2 Zn1 1.962 . S
O2 C7 1.254 . S
O3 Zn0 2.031 1_455 S
O3 C7 1.269 . S
O4 Zn1 1.986 . S
O4 C11 1.262 . S
O5 Zn0 2.049 . S
O5 C13 1.260 1_655 S
O6 Zn1 1.996 . S
O6 C13 1.257 . S
C7 O2 1.254 . S
C7 O3 1.269 . S
C8 O9 1.249 1_655 S
C8 O10 1.270 . S
O9 Zn1 1.943 . S
O9 C8 1.249 1_455 S
O10 Zn0 2.067 . S
O10 C8 1.270 . S
C11 O4 1.262 . S
C11 O12 1.232 . S
O12 C11 1.232 . S
C13 O5 1.260 1_455 S
C13 O6 1.257 . S
Zn14 O17 2.031 1_455 S
Zn14 O19 2.049 . S
Zn14 O24 2.067 . S
Zn15 O16 1.962 1_455 S
Zn15 O18 1.986 . S
Zn15 O20 1.996 . S
Zn15 O23 1.943 . S
O16 Zn15 1.962 1_655 S
O16 C21 1.254 . S
O17 Zn14 2.031 1_655 S
O17 C21 1.269 . S
O18 Zn15 1.986 . S
O18 C25 1.262 . S
O19 Zn14 2.049 . S
O19 C27 1.260 . S
O20 Zn15 1.996 . S
O20 C27 1.257 . S
C21 O16 1.254 . S
C21 O17 1.269 . S
C22 O23 1.249 . S
C22 O24 1.270 . S
O23 Zn15 1.943 . S
O23 C22 1.249 . S
O24 Zn14 2.067 . S
O24 C22 1.270 . S
C25 O18 1.262 . S
C25 O26 1.232 1_455 S
O26 C25 1.232 1_655 S
C27 O19 1.260 . S
C27 O20 1.257 . S
Zn28 O31 2.031 . S
Zn28 O33 2.049 . S
Zn28 O38 2.067 . S
Zn29 O30 1.962 . S
Zn29 O32 1.986 . S
Zn29 O34 1.996 . S
Zn29 O37 1.943 . S
O30 Zn29 1.962 . S
O30 C35 1.254 . S
O31 Zn28 2.031 . S
O31 C35 1.269 . S
O32 Zn29 1.986 . S
O32 C39 1.262 . S
O33 Zn28 2.049 . S
O33 C41 1.260 . S
O34 Zn29 1.996 . S
O34 C41 1.257 . S
C35 O30 1.254 . S
C35 O31 1.269 . S
C36 O37 1.249 . S
C36 O38 1.270 . S
O37 Zn29 1.943 . S
O37 C36 1.249 . S
O38 Zn28 2.067 . S
O38 C36 1.270 . S
C39 O32 1.262 . S
C39 O40 1.232 . S
O40 C39 1.232 . S
C41 O33 1.260 . S
C41 O34 1.257 . S
Zn42 O45 2.031 . S
Zn42 O47 2.049 . S
Zn42 O52 2.067 . S
Zn43 O44 1.962 . S
Zn43 O46 1.986 . S
Zn43 O48 1.996 . S
Zn43 O51 1.943 . S
O44 Zn43 1.962 . S
O44 C49 1.254 . S
O45 Zn42 2.031 . S
O45 C49 1.269 . S
O46 Zn43 1.986 . S
O46 C53 1.262 . S
O47 Zn42 2.049 . S
O47 C55 1.260 . S
O48 Zn43 1.996 . S
O48 C55 1.257 . S
C49 O44 1.254 . S
C49 O45 1.269 . S
C50 O51 1.249 . S
C50 O52 1.270 . S
O51 Zn43 1.943 . S
O51 C50 1.249 . S
O52 Zn42 2.067 . S
O52 C50 1.270 . S
C53 O46 1.262 . S
C53 O54 1.232 . S
O54 C53 1.232 . S
C55 O47 1.260 . S
C55 O48 1.257 . S
Zn56 O59 2.031 . S
Zn56 O61 2.049 . S
Zn56 O66 2.067 . S
Zn57 O58 1.962 . S
Zn57 O60 1.986 1_455 S
Zn57 O62 1.996 . S
Zn57 O65 1.943 . S
O58 Zn57 1.962 . S
O58 C63 1.254 . S
O59 Zn56 2.031 . S
O59 C63 1.269 . S
O60 Zn57 1.986 1_655 S
O60 C67 1.262 . S
O61 Zn56 2.049 . S
O61 C69 1.260 . S
O62 Zn57 1.996 . S
O62 C69 1.257 . S
C63 O58 1.254 . S
C63 O59 1.269 . S
C64 O65 1.249 . S
C64 O66 1.270 . S
O65 Zn57 1.943 . S
O65 C64 1.249 . S
O66 Zn56 2.067 . S
O66 C64 1.270 . S
C67 O60 1.262 . S
C67 O68 1.232 1_655 S
O68 C67 1.232 1_455 S
C69 O61 1.260 . S
C69 O62 1.257 . S
Zn70 O73 2.031 . S
Zn70 O75 2.049 . S
Zn70 O80 2.067 . S
Zn71 O72 1.962 . S
Zn71 O74 1.986 . S
Zn71 O76 1.996 . S
Zn71 O79 1.943 . S
O72 Zn71 1.962 . S
O72 C77 1.254 . S
O73 Zn70 2.031 . S
O73 C77 1.269 . S
O74 Zn71 1.986 . S
O74 C81 1.262 . S
O75 Zn70 2.049 . S
O75 C83 1.260 . S
O76 Zn71 1.996 . S
O76 C83 1.257 . S
C77 O72 1.254 . S
C77 O73 1.269 . S
C78 O79 1.249 . S
C78 O80 1.270 . S
O79 Zn71 1.943 . S
O79 C78 1.249 . S
O80 Zn70 2.067 . S
O80 C78 1.270 . S
C81 O74 1.262 . S
C81 O82 1.232 . S
O82 C81 1.232 . S
C83 O75 1.260 . S
C83 O76 1.257 . S
Zn84 O87 2.031 . S
Zn84 O89 2.049 . S
Zn84 O94 2.067 . S
Zn85 O86 1.962 . S
Zn85 O88 1.986 . S
Zn85 O90 1.996 . S
Zn85 O93 1.943 . S
O86 Zn85 1.962 . S
O86 C91 1.254 . S
O87 Zn84 2.031 . S
O87 C91 1.269 . S
O88 Zn85 1.986 . S
O88 C95 1.262 . S
O89 Zn84 2.049 . S
O89 C97 1.260 . S
O90 Zn85 1.996 . S
O90 C97 1.257 . S
C91 O86 1.254 . S
C91 O87 1.269 . S
C92 O93 1.249 . S
C92 O94 1.270 . S
O93 Zn85 1.943 . S
O93 C92 1.249 . S
O94 Zn84 2.067 . S
O94 C92 1.270 . S
C95 O88 1.262 . S
C95 O96 1.232 . S
O96 C95 1.232 . S
C97 O89 1.260 . S
C97 O90 1.257 . S
Zn98 O101 2.031 . S
Zn98 O103 2.049 . S
Zn98 O108 2.067 . S
Zn99 O100 1.962 . S
Zn99 O102 1.986 . S
Zn99 O104 1.996 . S
Zn99 O107 1.943 1_455 S
O100 Zn99 1.962 . S
O100 C105 1.237 1_455 S
O101 Zn98 2.031 . S
O101 C105 1.285 . S
O102 Zn99 1.986 . S
O102 C109 1.262 . S
O103 Zn98 2.049 . S
O103 C111 1.260 . S
O104 Zn99 1.996 . S
O104 C111 1.257 1_455 S
C105 O100 1.237 1_655 S
C105 O101 1.285 . S
C106 O107 1.249 . S
C106 O108 1.270 . S
O107 Zn99 1.943 1_655 S
O107 C106 1.249 . S
O108 Zn98 2.067 . S
O108 C106 1.270 . S
C109 O102 1.262 . S
C109 O110 1.232 . S
O110 C109 1.232 . S
C111 O103 1.260 . S
C111 O104 1.257 1_655 S
Zn112 O115 2.031 1_565 S
Zn112 O117 2.047 1_565 S
Zn112 O122 2.067 . S
Zn113 O114 1.962 . S
Zn113 O116 1.986 . S
Zn113 O118 1.996 . S
Zn113 O121 1.943 . S
O114 Zn113 1.962 . S
O114 C119 1.254 . S
O115 Zn112 2.031 1_545 S
O115 C119 1.269 . S
O116 Zn113 1.986 . S
O116 C123 1.262 . S
O117 Zn112 2.047 1_545 S
O117 C125 1.269 . S
O118 Zn113 1.996 . S
O118 C125 1.257 . S
C119 O114 1.254 . S
C119 O115 1.269 . S
C120 O121 1.249 1_565 S
C120 O122 1.270 . S
O121 Zn113 1.943 . S
O121 C120 1.249 1_545 S
O122 Zn112 2.067 . S
O122 C120 1.270 . S
C123 O116 1.262 . S
C123 O124 1.232 . S
O124 C123 1.232 . S
C125 O117 1.269 . S
C125 O118 1.257 . S
Zn126 O129 2.031 . S
Zn126 O131 2.049 . S
Zn126 O136 2.067 . S
Zn127 O128 1.962 . S
Zn127 O130 1.986 . S
Zn127 O132 1.996 . S
Zn127 O135 1.943 . S
O128 Zn127 1.962 . S
O128 C133 1.254 . S
O129 Zn126 2.031 . S
O129 C133 1.269 . S
O130 Zn127 1.986 . S
O130 C137 1.262 . S
O131 Zn126 2.049 . S
O131 C139 1.260 . S
O132 Zn127 1.996 . S
O132 C139 1.257 . S
C133 O128 1.254 . S
C133 O129 1.269 . S
C134 O135 1.249 . S
C134 O136 1.270 . S
O135 Zn127 1.943 . S
O135 C134 1.249 . S
O136 Zn126 2.067 . S
O136 C134 1.270 . S
C137 O130 1.262 . S
C137 O138 1.232 . S
O138 C137 1.232 . S
C139 O131 1.260 . S
C139 O132 1.257 . S
Zn140 O143 2.031 . S
Zn140 O145 2.049 . S
Zn140 O150 2.067 . S
Zn141 O142 1.962 1_545 S
Zn141 O144 1.986 1_545 S
Zn141 O146 1.996 . S
Zn141 O149 1.943 . S
O142 Zn141 1.962 1_565 S
O142 C147 1.254 1_565 S
O143 Zn140 2.031 . S
O143 C147 1.269 . S
O144 Zn141 1.986 1_565 S
O144 C151 1.262 . S
O145 Zn140 2.049 . S
O145 C153 1.260 . S
O146 Zn141 1.996 . S
O146 C153 1.257 . S
C147 O142 1.254 1_545 S
C147 O143 1.269 . S
C148 O149 1.249 . S
C148 O150 1.270 . S
O149 Zn141 1.943 . S
O149 C148 1.249 . S
O150 Zn140 2.067 . S
O150 C148 1.270 . S
C151 O144 1.262 . S
C151 O152 1.232 . S
O152 C151 1.232 . S
C153 O145 1.260 . S
C153 O146 1.257 . S
Zn154 O157 2.031 1_554 S
Zn154 O159 2.049 . S
Zn154 O164 2.067 . S
Zn155 O156 1.962 1_554 S
Zn155 O158 1.986 . S
Zn155 O160 1.996 . S
Zn155 O163 1.943 . S
O156 Zn155 1.962 1_556 S
O156 C161 1.254 . S
O157 Zn154 2.031 1_556 S
O157 C161 1.269 . S
O158 Zn155 1.986 . S
O158 C165 1.262 . S
O159 Zn154 2.049 . S
O159 C167 1.260 . S
O160 Zn155 1.996 . S
O160 C167 1.257 . S
C161 O156 1.254 . S
C161 O157 1.269 . S
C162 O163 1.249 . S
C162 O164 1.270 . S
O163 Zn155 1.943 . S
O163 C162 1.249 . S
O164 Zn154 2.067 . S
O164 C162 1.270 . S
C165 O158 1.262 . S
C165 O166 1.232 1_554 S
O166 C165 1.232 1_556 S
C167 O159 1.260 . S
C167 O160 1.257 . S
Zn168 O171 2.031 . S
Zn168 O173 2.049 . S
Zn168 O178 2.067 . S
Zn169 O170 1.962 . S
Zn169 O172 1.986 . S
Zn169 O174 1.996 . S
Zn169 O177 1.943 . S
O170 Zn169 1.962 . S
O170 C175 1.254 . S
O171 Zn168 2.031 . S
O171 C175 1.269 . S
O172 Zn169 1.986 . S
O172 C179 1.262 . S
O173 Zn168 2.049 . S
O173 C181 1.260 . S
O174 Zn169 1.996 . S
O174 C181 1.257 . S
C175 O170 1.254 . S
C175 O171 1.269 . S
C176 O177 1.249 . S
C176 O178 1.270 . S
O177 Zn169 1.943 . S
O177 C176 1.249 . S
O178 Zn168 2.067 . S
O178 C176 1.270 . S
C179 O172 1.262 . S
C179 O180 1.232 . S
O180 C179 1.232 . S
C181 O173 1.260 . S
C181 O174 1.257 . S
Zn182 O185 2.031 . S
Zn182 O187 2.049 . S
Zn182 O192 2.067 . S
Zn183 O184 1.962 . S
Zn183 O186 1.986 . S
Zn183 O188 1.996 . S
Zn183 O191 1.943 . S
O184 Zn183 1.962 . S
O184 C189 1.254 1_554 S
O185 Zn182 2.031 . S
O185 C189 1.269 1_554 S
O186 Zn183 1.986 . S
O186 C193 1.262 . S
O187 Zn182 2.049 . S
O187 C195 1.260 . S
O188 Zn183 1.996 . S
O188 C195 1.257 . S
C189 O184 1.254 1_556 S
C189 O185 1.269 1_556 S
C190 O191 1.249 . S
C190 O192 1.270 . S
O191 Zn183 1.943 . S
O191 C190 1.249 . S
O192 Zn182 2.067 . S
O192 C190 1.270 . S
C193 O186 1.262 . S
C193 O194 1.232 . S
O194 C193 1.232 . S
C195 O187 1.260 . S
C195 O188 1.257 . S
Zn196 O199 2.031 . S
Zn196 O201 2.049 . S
Zn196 O206 2.067 . S
Zn197 O198 1.962 . S
Zn197 O200 1.986 . S
Zn197 O202 1.996 . S
Zn197 O205 1.943 . S
O198 Zn197 1.962 . S
O198 C203 1.254 . S
O199 Zn196 2.031 . S
O199 C203 1.269 . S
O200 Zn197 1.986 . S
O200 C207 1.262 . S
O201 Zn196 2.049 . S
O201 C209 1.260 . S
O202 Zn197 1.996 . S
O202 C209 1.257 . S
C203 O198 1.254 . S
C203 O199 1.269 . S
C204 O205 1.249 . S
C204 O206 1.270 . S
O205 Zn197 1.943 . S
O205 C204 1.249 . S
O206 Zn196 2.067 . S
O206 C204 1.270 . S
C207 O200 1.262 . S
C207 O208 1.232 . S
O208 C207 1.232 . S
C209 O201 1.260 . S
C209 O202 1.257 . S
Zn210 O213 2.031 . S
Zn210 O215 2.049 . S
Zn210 O220 2.067 . S
Zn211 O212 1.962 . S
Zn211 O214 1.986 . S
Zn211 O216 1.996 . S
Zn211 O219 1.943 . S
O212 Zn211 1.962 . S
O212 C217 1.254 . S
O213 Zn210 2.031 . S
O213 C217 1.269 . S
O214 Zn211 1.986 . S
O214 C221 1.262 . S
O215 Zn210 2.049 . S
O215 C223 1.260 . S
O216 Zn211 1.996 . S
O216 C223 1.257 . S
C217 O212 1.254 . S
C217 O213 1.269 . S
C218 O219 1.249 . S
C218 O220 1.270 . S
O219 Zn211 1.943 . S
O219 C218 1.249 . S
O220 Zn210 2.067 . S
O220 C218 1.270 . S
C221 O214 1.262 . S
C221 O222 1.232 . S
O222 C221 1.232 . S
C223 O215 1.260 . S
C223 O216 1.257 . S
Zn224 O227 2.031 . S
Zn224 O229 2.049 . S
Zn224 O234 2.067 . S
Zn225 O226 1.962 . S
Zn225 O228 1.986 . S
Zn225 O230 1.996 . S
Zn225 O233 1.943 1_545 S
O226 Zn225 1.962 . S
O226 C231 1.254 . S
O227 Zn224 2.031 . S
O227 C231 1.269 1_565 S
O228 Zn225 1.986 . S
O228 C235 1.262 . S
O229 Zn224 2.049 . S
O229 C237 1.260 1_565 S
O230 Zn225 1.996 . S
O230 C237 1.257 . S
C231 O226 1.254 . S
C231 O227 1.269 1_545 S
C232 O233 1.249 . S
C232 O234 1.270 . S
O233 Zn225 1.943 1_565 S
O233 C232 1.249 . S
O234 Zn224 2.067 . S
O234 C232 1.270 . S
C235 O228 1.262 . S
C235 O236 1.232 . S
O236 C235 1.232 . S
C237 O229 1.260 1_545 S
C237 O230 1.257 . S
Zn238 O241 2.031 . S
Zn238 O243 2.049 . S
Zn238 O248 2.067 . S
Zn239 O240 1.962 . S
Zn239 O242 1.986 . S
Zn239 O244 1.996 . S
Zn239 O247 1.943 . S
O240 Zn239 1.962 . S
O240 C245 1.254 . S
O241 Zn238 2.031 . S
O241 C245 1.269 . S
O242 Zn239 1.986 . S
O242 C249 1.262 . S
O243 Zn238 2.049 . S
O243 C251 1.260 . S
O244 Zn239 1.996 . S
O244 C251 1.257 . S
C245 O240 1.254 . S
C245 O241 1.269 . S
C246 O247 1.249 . S
C246 O248 1.270 . S
O247 Zn239 1.943 . S
O247 C246 1.249 . S
O248 Zn238 2.067 . S
O248 C246 1.270 . S
C249 O242 1.262 . S
C249 O250 1.232 . S
O250 C249 1.232 . S
C251 O243 1.260 . S
C251 O244 1.257 . S
Zn252 O255 2.031 . S
Zn252 O257 2.049 . S
Zn252 O262 2.067 . S
Zn253 O254 1.962 . S
Zn253 O256 1.986 . S
Zn253 O258 1.996 . S
Zn253 O261 1.943 . S
O254 Zn253 1.962 . S
O254 C259 1.254 . S
O255 Zn252 2.031 . S
O255 C259 1.269 . S
O256 Zn253 1.986 . S
O256 C263 1.262 . S
O257 Zn252 2.049 . S
O257 C265 1.260 . S
O258 Zn253 1.996 . S
O258 C265 1.257 . S
C259 O254 1.254 . S
C259 O255 1.269 . S
C260 O261 1.249 . S
C260 O262 1.270 . S
O261 Zn253 1.943 . S
O261 C260 1.249 . S
O262 Zn252 2.067 . S
O262 C260 1.270 . S
C263 O256 1.262 . S
C263 O264 1.232 . S
O264 C263 1.232 . S
C265 O257 1.260 . S
C265 O258 1.257 . S
Zn266 O269 2.031 . S
Zn266 O271 2.049 . S
Zn266 O276 2.067 . S
Zn267 O268 1.962 . S
Zn267 O270 1.986 . S
Zn267 O272 1.996 . S
Zn267 O275 1.943 1_565 S
O268 Zn267 1.962 . S
O268 C273 1.254 1_565 S
O269 Zn266 2.031 . S
O269 C273 1.269 . S
O270 Zn267 1.986 . S
O270 C277 1.262 . S
O271 Zn266 2.049 . S
O271 C279 1.260 . S
O272 Zn267 1.996 . S
O272 C279 1.257 1_565 S
C273 O268 1.254 1_545 S
C273 O269 1.269 . S
C274 O275 1.249 . S
C274 O276 1.270 . S
O275 Zn267 1.943 1_545 S
O275 C274 1.249 . S
O276 Zn266 2.067 . S
O276 C274 1.270 . S
C277 O270 1.262 . S
C277 O278 1.232 . S
O278 C277 1.232 . S
C279 O271 1.260 . S
C279 O272 1.257 1_545 S
Zn280 O283 2.031 1_554 S
Zn280 O285 2.049 . S
Zn280 O290 2.067 . S
Zn281 O282 1.985 . S
Zn281 O284 1.974 1_556 S
Zn281 O286 1.978 1_556 S
Zn281 O289 1.940 . S
O282 Zn281 1.985 . S
O282 C287 1.254 . S
O283 Zn280 2.031 1_556 S
O283 C287 1.269 . S
O284 Zn281 1.974 1_554 S
O284 C291 1.236 1_554 S
O285 Zn280 2.049 . S
O285 C293 1.260 . S
O286 Zn281 1.978 1_554 S
O286 C293 1.257 . S
C287 O282 1.254 . S
C287 O283 1.269 . S
C288 O289 1.249 . S
C288 O290 1.270 1_556 S
O289 Zn281 1.940 . S
O289 C288 1.249 . S
O290 Zn280 2.067 . S
O290 C288 1.270 1_554 S
C291 O284 1.236 1_556 S
C291 O292 1.264 . S
O292 C291 1.264 . S
C293 O285 1.260 . S
C293 O286 1.257 . S
Zn294 O297 2.031 . S
Zn294 O299 2.049 . S
Zn294 O304 2.067 . S
Zn295 O296 1.962 . S
Zn295 O298 1.986 . S
Zn295 O300 1.996 . S
Zn295 O303 1.943 . S
O296 Zn295 1.962 . S
O296 C301 1.254 . S
O297 Zn294 2.031 . S
O297 C301 1.269 . S
O298 Zn295 1.986 . S
O298 C305 1.262 . S
O299 Zn294 2.049 . S
O299 C307 1.260 . S
O300 Zn295 1.996 . S
O300 C307 1.257 . S
C301 O296 1.254 . S
C301 O297 1.269 . S
C302 O303 1.249 . S
C302 O304 1.270 . S
O303 Zn295 1.943 . S
O303 C302 1.249 . S
O304 Zn294 2.067 . S
O304 C302 1.270 . S
C305 O298 1.262 . S
C305 O306 1.232 . S
O306 C305 1.232 . S
C307 O299 1.260 . S
C307 O300 1.257 . S
Zn308 O311 2.031 . S
Zn308 O313 2.049 . S
Zn308 O318 2.067 . S
Zn309 O310 1.962 . S
Zn309 O312 1.986 . S
Zn309 O314 1.996 . S
Zn309 O317 1.943 . S
O310 Zn309 1.962 . S
O310 C315 1.254 . S
O311 Zn308 2.031 . S
O311 C315 1.269 . S
O312 Zn309 1.986 . S
O312 C319 1.262 . S
O313 Zn308 2.049 . S
O313 C321 1.260 . S
O314 Zn309 1.996 . S
O314 C321 1.257 . S
C315 O310 1.254 . S
C315 O311 1.269 . S
C316 O317 1.249 . S
C316 O318 1.270 . S
O317 Zn309 1.943 . S
O317 C316 1.249 . S
O318 Zn308 2.067 . S
O318 C316 1.270 . S
C319 O312 1.262 . S
C319 O320 1.232 . S
O320 C319 1.232 . S
C321 O313 1.260 . S
C321 O314 1.257 . S
Zn322 O325 2.031 . S
Zn322 O327 2.049 . S
Zn322 O332 2.067 . S
Zn323 O324 1.962 . S
Zn323 O326 1.986 . S
Zn323 O328 1.996 . S
Zn323 O331 1.943 . S
O324 Zn323 1.962 . S
O324 C329 1.254 . S
O325 Zn322 2.031 . S
O325 C329 1.269 . S
O326 Zn323 1.986 . S
O326 C333 1.262 . S
O327 Zn322 2.049 . S
O327 C335 1.260 . S
O328 Zn323 1.996 . S
O328 C335 1.257 . S
C329 O324 1.254 . S
C329 O325 1.269 . S
C330 O331 1.249 . S
C330 O332 1.270 . S
O331 Zn323 1.943 . S
O331 C330 1.249 . S
O332 Zn322 2.067 . S
O332 C330 1.270 . S
C333 O326 1.262 . S
C333 O334 1.232 . S
O334 C333 1.232 . S
C335 O327 1.260 . S
C335 O328 1.257 . S
Zn336 O342 1.969 1_565 S
Zn336 O343 1.965 1_565 S
Zn336 O347 2.024 . S
Zn336 O352 1.969 1_565 S
Zn337 O344 1.969 1_654 S
Zn337 O350 1.960 1_554 S
Zn337 O351 1.968 . S
Zn337 O353 2.024 1_655 S
C338 O339 1.229 . S
C338 O347 1.058 . S
O339 C338 1.229 . S
C340 O341 1.229 1_554 S
C340 O353 1.058 . S
O341 C340 1.229 1_556 S
O342 Zn336 1.969 1_545 S
O342 C345 1.267 1_545 S
O343 Zn336 1.965 1_545 S
O343 C354 1.260 1_554 S
O344 Zn337 1.969 1_456 S
O344 C354 1.258 . S
C345 O342 1.267 1_565 S
C345 O346 1.228 . S
O346 C345 1.228 . S
O347 Zn336 2.024 . S
O347 C338 1.058 . S
C348 O349 1.228 . S
C348 O350 1.253 1_554 S
O349 C348 1.228 . S
O350 Zn337 1.960 1_556 S
O350 C348 1.253 1_556 S
O351 Zn337 1.968 . S
O351 C355 1.240 1_655 S
O352 Zn336 1.969 1_545 S
O352 C355 1.258 . S
O353 Zn337 2.024 1_455 S
O353 C340 1.058 . S
C354 O343 1.260 1_556 S
C354 O344 1.258 . S
C355 O351 1.240 1_455 S
C355 O352 1.258 . S
Zn356 O362 1.969 . S
Zn356 O363 1.965 . S
Zn356 O367 2.024 . S
Zn356 O372 1.969 . S
Zn357 O364 1.969 . S
Zn357 O370 1.969 . S
Zn357 O371 1.965 . S
Zn357 O373 2.024 . S
C358 O359 1.229 . S
C358 O367 1.058 . S
O359 C358 1.229 . S
C360 O361 1.229 . S
C360 O373 1.058 . S
O361 C360 1.229 . S
O362 Zn356 1.969 . S
O362 C365 1.267 . S
O363 Zn356 1.965 . S
O363 C374 1.260 . S
O364 Zn357 1.969 . S
O364 C374 1.258 . S
C365 O362 1.267 . S
C365 O366 1.228 . S
O366 C365 1.228 . S
O367 Zn356 2.024 . S
O367 C358 1.058 . S
C368 O369 1.228 . S
C368 O370 1.267 . S
O369 C368 1.228 . S
O370 Zn357 1.969 . S
O370 C368 1.267 . S
O371 Zn357 1.965 . S
O371 C375 1.260 . S
O372 Zn356 1.969 . S
O372 C375 1.258 . S
O373 Zn357 2.024 . S
O373 C360 1.058 . S
C374 O363 1.260 . S
C374 O364 1.258 . S
C375 O371 1.260 . S
C375 O372 1.258 . S
Zn376 O382 1.969 . S
Zn376 O383 1.965 . S
Zn376 O387 2.024 . S
Zn376 O392 1.969 . S
Zn377 O384 1.969 . S
Zn377 O390 1.969 . S
Zn377 O391 1.965 1_565 S
Zn377 O393 2.024 . S
C378 O379 1.229 . S
C378 O387 1.058 . S
O379 C378 1.229 . S
C380 O381 1.229 . S
C380 O393 1.058 . S
O381 C380 1.229 . S
O382 Zn376 1.969 . S
O382 C385 1.267 . S
O383 Zn376 1.965 . S
O383 C394 1.260 . S
O384 Zn377 1.969 . S
O384 C394 1.258 1_565 S
C385 O382 1.267 . S
C385 O386 1.228 . S
O386 C385 1.228 . S
O387 Zn376 2.024 . S
O387 C378 1.058 . S
C388 O389 1.228 . S
C388 O390 1.267 . S
O389 C388 1.228 . S
O390 Zn377 1.969 . S
O390 C388 1.267 . S
O391 Zn377 1.965 1_545 S
O391 C395 1.260 . S
O392 Zn376 1.969 . S
O392 C395 1.258 . S
O393 Zn377 2.024 . S
O393 C380 1.058 . S
C394 O383 1.260 . S
C394 O384 1.258 1_545 S
C395 O391 1.260 . S
C395 O392 1.258 . S
Zn396 O402 1.969 . S
Zn396 O403 1.965 . S
Zn396 O407 2.024 . S
Zn396 O412 1.969 . S
Zn397 O404 1.969 . S
Zn397 O410 1.969 . S
Zn397 O411 1.965 . S
Zn397 O413 2.024 . S
C398 O399 1.229 . S
C398 O407 1.058 . S
O399 C398 1.229 . S
C400 O401 1.229 . S
C400 O413 1.058 . S
O401 C400 1.229 . S
O402 Zn396 1.969 . S
O402 C405 1.267 . S
O403 Zn396 1.965 . S
O403 C414 1.260 . S
O404 Zn397 1.969 . S
O404 C414 1.258 . S
C405 O402 1.267 . S
C405 O406 1.228 . S
O406 C405 1.228 . S
O407 Zn396 2.024 . S
O407 C398 1.058 . S
C408 O409 1.228 . S
C408 O410 1.267 . S
O409 C408 1.228 . S
O410 Zn397 1.969 . S
O410 C408 1.267 . S
O411 Zn397 1.965 . S
O411 C415 1.260 . S
O412 Zn396 1.969 . S
O412 C415 1.258 . S
O413 Zn397 2.024 . S
O413 C400 1.058 . S
C414 O403 1.260 . S
C414 O404 1.258 . S
C415 O411 1.260 . S
C415 O412 1.258 . S
Zn416 O422 1.969 . S
Zn416 O423 1.965 1_455 S
Zn416 O427 2.024 1_565 S
Zn416 O432 1.969 1_565 S
Zn417 O424 1.969 1_455 S
Zn417 O430 1.969 1_455 S
Zn417 O431 1.965 . S
Zn417 O433 2.024 . S
C418 O419 1.229 1_545 S
C418 O427 1.058 . S
O419 C418 1.229 1_565 S
C420 O421 1.229 . S
C420 O433 1.058 1_655 S
O421 C420 1.229 . S
O422 Zn416 1.969 . S
O422 C425 1.267 . S
O423 Zn416 1.965 1_655 S
O423 C434 1.286 . S
O424 Zn417 1.969 1_655 S
O424 C434 1.224 1_545 S
C425 O422 1.267 . S
C425 O426 1.228 . S
O426 C425 1.228 . S
O427 Zn416 2.024 1_545 S
O427 C418 1.058 . S
C428 O429 1.228 . S
C428 O430 1.267 1_455 S
O429 C428 1.228 . S
O430 Zn417 1.969 1_655 S
O430 C428 1.267 1_655 S
O431 Zn417 1.965 . S
O431 C435 1.260 . S
O432 Zn416 1.969 1_545 S
O432 C435 1.258 . S
O433 Zn417 2.024 . S
O433 C420 1.058 1_455 S
C434 O423 1.286 . S
C434 O424 1.224 1_565 S
C435 O431 1.260 . S
C435 O432 1.258 . S
Zn436 O442 1.969 . S
Zn436 O443 1.965 . S
Zn436 O447 2.024 . S
Zn436 O452 1.969 . S
Zn437 O444 1.969 . S
Zn437 O450 1.969 . S
Zn437 O451 1.965 . S
Zn437 O453 2.024 . S
C438 O439 1.229 . S
C438 O447 1.058 . S
O439 C438 1.229 . S
C440 O441 1.229 . S
C440 O453 1.058 . S
O441 C440 1.229 . S
O442 Zn436 1.969 . S
O442 C445 1.267 . S
O443 Zn436 1.965 . S
O443 C454 1.260 . S
O444 Zn437 1.969 . S
O444 C454 1.258 . S
C445 O442 1.267 . S
C445 O446 1.228 . S
O446 C445 1.228 . S
O447 Zn436 2.024 . S
O447 C438 1.058 . S
C448 O449 1.228 . S
C448 O450 1.267 . S
O449 C448 1.228 . S
O450 Zn437 1.969 . S
O450 C448 1.267 . S
O451 Zn437 1.965 . S
O451 C455 1.260 . S
O452 Zn436 1.969 . S
O452 C455 1.258 . S
O453 Zn437 2.024 . S
O453 C440 1.058 . S
C454 O443 1.260 . S
C454 O444 1.258 . S
C455 O451 1.260 . S
C455 O452 1.258 . S
Zn456 O462 1.969 . S
Zn456 O463 1.965 . S
Zn456 O467 2.024 1_556 S
Zn456 O472 1.969 1_556 S
Zn457 O464 1.969 1_545 S
Zn457 O470 1.969 1_545 S
Zn457 O471 1.965 . S
Zn457 O473 2.024 . S
C458 O459 1.212 1_554 S
C458 O467 1.058 . S
O459 C458 1.212 1_556 S
C460 O461 1.229 . S
C460 O473 1.058 1_565 S
O461 C460 1.229 . S
O462 Zn456 1.969 . S
O462 C465 1.267 . S
O463 Zn456 1.965 . S
O463 C474 1.260 1_546 S
O464 Zn457 1.969 1_565 S
O464 C474 1.258 . S
C465 O462 1.267 . S
C465 O466 1.228 . S
O466 C465 1.228 . S
O467 Zn456 2.024 1_554 S
O467 C458 1.058 . S
C468 O469 1.228 . S
C468 O470 1.267 1_545 S
O469 C468 1.228 . S
O470 Zn457 1.969 1_565 S
O470 C468 1.267 1_565 S
O471 Zn457 1.965 . S
O471 C475 1.260 . S
O472 Zn456 1.969 1_554 S
O472 C475 1.258 . S
O473 Zn457 2.024 . S
O473 C460 1.058 1_545 S
C474 O463 1.260 1_564 S
C474 O464 1.258 . S
C475 O471 1.260 . S
C475 O472 1.258 . S
Zn476 O482 1.969 . S
Zn476 O483 1.965 . S
Zn476 O487 2.024 . S
Zn476 O492 1.969 . S
Zn477 O484 1.969 . S
Zn477 O490 1.969 . S
Zn477 O491 1.965 . S
Zn477 O493 2.024 . S
C478 O479 1.229 . S
C478 O487 1.058 . S
O479 C478 1.229 . S
C480 O481 1.229 . S
C480 O493 1.058 . S
O481 C480 1.229 . S
O482 Zn476 1.969 . S
O482 C485 1.267 . S
O483 Zn476 1.965 . S
O483 C494 1.260 . S
O484 Zn477 1.969 . S
O484 C494 1.258 . S
C485 O482 1.267 . S
C485 O486 1.228 . S
O486 C485 1.228 . S
O487 Zn476 2.024 . S
O487 C478 1.058 . S
C488 O489 1.228 . S
C488 O490 1.267 . S
O489 C488 1.228 . S
O490 Zn477 1.969 . S
O490 C488 1.267 . S
O491 Zn477 1.965 . S
O491 C495 1.260 . S
O492 Zn476 1.969 . S
O492 C495 1.258 . S
O493 Zn477 2.024 . S
O493 C480 1.058 . S
C494 O483 1.260 . S
C494 O484 1.258 . S
C495 O491 1.260 . S
C495 O492 1.258 . S
Zn496 O502 1.969 . S
Zn496 O503 1.965 . S
Zn496 O507 2.024 . S
Zn496 O512 1.969 . S
Zn497 O504 1.969 1_556 S
Zn497 O510 1.965 1_556 S
Zn497 O511 1.965 1_556 S
Zn497 O513 2.024 . S
C498 O499 1.229 . S
C498 O507 1.058 . S
O499 C498 1.229 . S
C500 O501 1.229 . S
C500 O513 1.058 . S
O501 C500 1.229 . S
O502 Zn496 1.969 . S
O502 C505 1.267 . S
O503 Zn496 1.965 . S
O503 C514 1.260 . S
O504 Zn497 1.969 1_554 S
O504 C514 1.258 . S
C505 O502 1.267 . S
C505 O506 1.228 . S
O506 C505 1.228 . S
O507 Zn496 2.024 . S
O507 C498 1.058 . S
C508 O509 1.228 . S
C508 O510 1.253 1_556 S
O509 C508 1.228 . S
O510 Zn497 1.965 1_554 S
O510 C508 1.253 1_554 S
O511 Zn497 1.965 1_554 S
O511 C515 1.260 . S
O512 Zn496 1.969 . S
O512 C515 1.258 . S
O513 Zn497 2.024 . S
O513 C500 1.058 . S
C514 O503 1.260 . S
C514 O504 1.258 . S
C515 O511 1.260 . S
C515 O512 1.258 . S
Zn516 O522 1.969 . S
Zn516 O523 1.965 . S
Zn516 O527 2.024 . S
Zn516 O532 1.969 . S
Zn517 O524 1.969 . S
Zn517 O530 1.969 . S
Zn517 O531 1.965 . S
Zn517 O533 2.024 . S
C518 O519 1.229 . S
C518 O527 1.058 . S
O519 C518 1.229 . S
C520 O521 1.229 . S
C520 O533 1.058 . S
O521 C520 1.229 . S
O522 Zn516 1.969 . S
O522 C525 1.267 . S
O523 Zn516 1.965 . S
O523 C534 1.260 . S
O524 Zn517 1.969 . S
O524 C534 1.258 . S
C525 O522 1.267 . S
C525 O526 1.228 . S
O526 C525 1.228 . S
O527 Zn516 2.024 . S
O527 C518 1.058 . S
C528 O529 1.228 . S
C528 O530 1.267 . S
O529 C528 1.228 . S
O530 Zn517 1.969 . S
O530 C528 1.267 . S
O531 Zn517 1.965 . S
O531 C535 1.260 . S
O532 Zn516 1.969 . S
O532 C535 1.258 . S
O533 Zn517 2.024 . S
O533 C520 1.058 . S
C534 O523 1.260 . S
C534 O524 1.258 . S
C535 O531 1.260 . S
C535 O532 1.258 . S
Zn536 O542 1.969 . S
Zn536 O543 1.965 . S
Zn536 O547 2.024 . S
Zn536 O552 1.969 . S
Zn537 O544 1.969 . S
Zn537 O550 1.969 . S
Zn537 O551 1.965 1_655 S
Zn537 O553 2.024 . S
C538 O539 1.229 . S
C538 O547 1.058 . S
O539 C538 1.229 . S
C540 O541 1.229 . S
C540 O553 1.058 . S
O541 C540 1.229 . S
O542 Zn536 1.969 . S
O542 C545 1.267 . S
O543 Zn536 1.965 . S
O543 C554 1.260 . S
O544 Zn537 1.969 . S
O544 C554 1.258 1_655 S
C545 O542 1.267 . S
C545 O546 1.228 . S
O546 C545 1.228 . S
O547 Zn536 2.024 . S
O547 C538 1.058 . S
C548 O549 1.228 . S
C548 O550 1.267 . S
O549 C548 1.228 . S
O550 Zn537 1.969 . S
O550 C548 1.267 . S
O551 Zn537 1.965 1_455 S
O551 C555 1.260 . S
O552 Zn536 1.969 . S
O552 C555 1.258 . S
O553 Zn537 2.024 . S
O553 C540 1.058 . S
C554 O543 1.260 . S
C554 O544 1.258 1_455 S
C555 O551 1.260 . S
C555 O552 1.258 . S
Zn556 O562 1.969 . S
Zn556 O563 1.965 . S
Zn556 O567 2.024 . S
Zn556 O572 1.969 . S
Zn557 O564 1.969 . S
Zn557 O570 1.969 . S
Zn557 O571 1.965 . S
Zn557 O573 2.024 . S
C558 O559 1.229 . S
C558 O567 1.058 . S
O559 C558 1.229 . S
C560 O561 1.229 . S
C560 O573 1.058 . S
O561 C560 1.229 . S
O562 Zn556 1.969 . S
O562 C565 1.267 . S
O563 Zn556 1.965 . S
O563 C574 1.260 . S
O564 Zn557 1.969 . S
O564 C574 1.258 . S
C565 O562 1.267 . S
C565 O566 1.228 . S
O566 C565 1.228 . S
O567 Zn556 2.024 . S
O567 C558 1.058 . S
C568 O569 1.228 . S
C568 O570 1.267 . S
O569 C568 1.228 . S
O570 Zn557 1.969 . S
O570 C568 1.267 . S
O571 Zn557 1.965 . S
O571 C575 1.260 . S
O572 Zn556 1.969 . S
O572 C575 1.258 . S
O573 Zn557 2.024 . S
O573 C560 1.058 . S
C574 O563 1.260 . S
C574 O564 1.258 . S
C575 O571 1.260 . S
C575 O572 1.258 . S
Zn576 O582 1.969 . S
Zn576 O583 1.965 . S
Zn576 O587 2.024 . S
Zn576 O592 1.969 . S
Zn577 O584 1.969 . S
Zn577 O590 1.969 . S
Zn577 O591 1.965 . S
Zn577 O593 2.024 . S
C578 O579 1.229 . S
C578 O587 1.058 . S
O579 C578 1.229 . S
C580 O581 1.229 . S
C580 O593 1.058 . S
O581 C580 1.229 . S
O582 Zn576 1.969 . S
O582 C585 1.267 . S
O583 Zn576 1.965 . S
O583 C594 1.260 . S
O584 Zn577 1.969 . S
O584 C594 1.258 . S
C585 O582 1.267 . S
C585 O586 1.228 . S
O586 C585 1.228 . S
O587 Zn576 2.024 . S
O587 C578 1.058 . S
C588 O589 1.228 . S
C588 O590 1.267 . S
O589 C588 1.228 . S
O590 Zn577 1.969 . S
O590 C588 1.267 . S
O591 Zn577 1.965 . S
O591 C595 1.260 . S
O592 Zn576 1.969 . S
O592 C595 1.258 . S
O593 Zn577 2.024 . S
O593 C580 1.058 . S
C594 O583 1.260 . S
C594 O584 1.258 . S
C595 O591 1.260 . S
C595 O592 1.258 . S
Zn596 O602 1.969 . S
Zn596 O603 1.965 . S
Zn596 O607 2.024 . S
Zn596 O612 1.969 . S
Zn597 O604 1.969 . S
Zn597 O610 1.969 . S
Zn597 O611 1.965 . S
Zn597 O613 2.024 . S
C598 O599 1.229 . S
C598 O607 1.058 . S
O599 C598 1.229 . S
C600 O601 1.229 . S
C600 O613 1.058 . S
O601 C600 1.229 . S
O602 Zn596 1.969 . S
O602 C605 1.267 . S
O603 Zn596 1.965 . S
O603 C614 1.260 . S
O604 Zn597 1.969 . S
O604 C614 1.258 . S
C605 O602 1.267 . S
C605 O606 1.228 . S
O606 C605 1.228 . S
O607 Zn596 2.024 . S
O607 C598 1.058 . S
C608 O609 1.228 . S
C608 O610 1.267 . S
O609 C608 1.228 . S
O610 Zn597 1.969 . S
O610 C608 1.267 . S
O611 Zn597 1.965 . S
O611 C615 1.260 . S
O612 Zn596 1.969 . S
O612 C615 1.258 . S
O613 Zn597 2.024 . S
O613 C600 1.058 . S
C614 O603 1.260 . S
C614 O604 1.258 . S
C615 O611 1.260 . S
C615 O612 1.258 . S
Zn616 O622 1.969 . S
Zn616 O623 1.965 . S
Zn616 O627 2.024 . S
Zn616 O632 1.969 . S
Zn617 O624 1.969 . S
Zn617 O630 1.969 . S
Zn617 O631 1.965 . S
Zn617 O633 2.024 . S
C618 O619 1.229 . S
C618 O627 1.058 . S
O619 C618 1.229 . S
C620 O621 1.229 . S
C620 O633 1.058 . S
O621 C620 1.229 . S
O622 Zn616 1.969 . S
O622 C625 1.267 . S
O623 Zn616 1.965 . S
O623 C634 1.260 . S
O624 Zn617 1.969 . S
O624 C634 1.258 . S
C625 O622 1.267 . S
C625 O626 1.228 . S
O626 C625 1.228 . S
O627 Zn616 2.024 . S
O627 C618 1.058 . S
C628 O629 1.228 . S
C628 O630 1.267 . S
O629 C628 1.228 . S
O630 Zn617 1.969 . S
O630 C628 1.267 . S
O631 Zn617 1.965 . S
O631 C635 1.260 . S
O632 Zn616 1.969 . S
O632 C635 1.258 . S
O633 Zn617 2.024 . S
O633 C620 1.058 . S
C634 O623 1.260 . S
C634 O624 1.258 . S
C635 O631 1.260 . S
C635 O632 1.258 . S
Zn636 O642 1.969 . S
Zn636 O643 1.965 . S
Zn636 O647 2.024 1_655 S
Zn636 O652 1.969 1_655 S
Zn637 O644 1.969 1_554 S
Zn637 O650 1.969 . S
Zn637 O651 1.965 . S
Zn637 O653 2.024 . S
C638 O639 1.229 1_455 S
C638 O647 1.058 . S
O639 C638 1.229 1_655 S
C640 O641 1.254 . S
C640 O653 1.034 1_556 S
O641 C640 1.254 . S
O642 Zn636 1.969 . S
O642 C645 1.267 . S
O643 Zn636 1.965 . S
O643 C654 1.260 1_654 S
O644 Zn637 1.969 1_556 S
O644 C654 1.258 . S
C645 O642 1.267 . S
C645 O646 1.228 . S
O646 C645 1.228 . S
O647 Zn636 2.024 1_455 S
O647 C638 1.058 . S
C648 O649 1.228 . S
C648 O650 1.267 . S
O649 C648 1.228 . S
O650 Zn637 1.969 . S
O650 C648 1.267 . S
O651 Zn637 1.965 . S
O651 C655 1.260 . S
O652 Zn636 1.969 1_455 S
O652 C655 1.258 . S
O653 Zn637 2.024 . S
O653 C640 1.034 1_554 S
C654 O643 1.260 1_456 S
C654 O644 1.258 . S
C655 O651 1.260 . S
C655 O652 1.258 . S
H656 C664 0.950 . S
H657 C669 0.950 . S
H658 C666 0.950 . S
H659 C668 0.950 . S
H660 C670 0.950 . S
H661 C672 0.950 . S
H662 C674 0.950 . S
H663 C675 0.950 1_655 S
C664 H656 0.950 . S
C664 C665 1.386 . S
C664 C666 1.391 . S
C665 C664 1.386 . S
C665 C669 1.393 1_655 S
C666 H658 0.950 . S
C666 C664 1.391 . S
C666 C667 1.400 1_655 S
C667 C666 1.400 1_455 S
C667 C668 1.398 . S
C667 C673 1.491 . S
C668 H659 0.950 . S
C668 C667 1.398 . S
C668 C669 1.391 . S
C669 H657 0.950 . S
C669 C665 1.393 1_455 S
C669 C668 1.391 . S
C670 H660 0.950 . S
C670 C671 1.386 . S
C670 C672 1.391 1_554 S
C671 C670 1.386 . S
C671 C675 1.393 1_554 S
C672 H661 0.950 . S
C672 C670 1.391 1_556 S
C672 C673 1.400 . S
C673 C667 1.491 . S
C673 C672 1.400 . S
C673 C674 1.398 1_455 S
C674 H662 0.950 . S
C674 C673 1.398 1_655 S
C674 C675 1.391 1_655 S
C675 H663 0.950 1_455 S
C675 C671 1.393 1_556 S
C675 C674 1.391 1_455 S
H676 C684 0.950 . S
H677 C689 0.950 . S
H678 C686 0.950 . S
H679 C688 0.950 . S
H680 C690 0.950 . S
H681 C692 0.950 . S
H682 C694 0.950 . S
H683 C695 0.950 . S
C684 H676 0.950 . S
C684 C685 1.386 . S
C684 C686 1.391 . S
C685 C684 1.386 . S
C685 C689 1.393 . S
C686 H678 0.950 . S
C686 C684 1.391 . S
C686 C687 1.400 . S
C687 C686 1.400 . S
C687 C688 1.398 . S
C687 C693 1.491 . S
C688 H679 0.950 . S
C688 C687 1.398 . S
C688 C689 1.391 . S
C689 H677 0.950 . S
C689 C685 1.393 . S
C689 C688 1.391 . S
C690 H680 0.950 . S
C690 C691 1.386 . S
C690 C692 1.391 . S
C691 C690 1.386 . S
C691 C695 1.393 . S
C692 H681 0.950 . S
C692 C690 1.391 . S
C692 C693 1.400 . S
C693 C687 1.491 . S
C693 C692 1.400 . S
C693 C694 1.398 . S
C694 H682 0.950 . S
C694 C693 1.398 . S
C694 C695 1.391 . S
C695 H683 0.950 . S
C695 C691 1.393 . S
C695 C694 1.391 . S
H696 C704 0.950 . S
H697 C709 0.950 . S
H698 C706 0.950 . S
H699 C708 0.950 . S
H700 C710 0.950 . S
H701 C712 0.950 . S
H702 C714 0.950 . S
H703 C715 0.950 . S
C704 H696 0.950 . S
C704 C705 1.386 . S
C704 C706 1.391 . S
C705 C704 1.386 . S
C705 C709 1.393 . S
C706 H698 0.950 . S
C706 C704 1.391 . S
C706 C707 1.400 . S
C707 C706 1.400 . S
C707 C708 1.398 . S
C707 C713 1.491 . S
C708 H699 0.950 . S
C708 C707 1.398 . S
C708 C709 1.391 . S
C709 H697 0.950 . S
C709 C705 1.393 . S
C709 C708 1.391 . S
C710 H700 0.950 . S
C710 C711 1.386 . S
C710 C712 1.391 . S
C711 C710 1.386 . S
C711 C715 1.393 . S
C712 H701 0.950 . S
C712 C710 1.391 . S
C712 C713 1.400 . S
C713 C707 1.491 . S
C713 C712 1.400 . S
C713 C714 1.398 . S
C714 H702 0.950 . S
C714 C713 1.398 . S
C714 C715 1.391 . S
C715 H703 0.950 . S
C715 C711 1.393 . S
C715 C714 1.391 . S
H716 C724 0.950 . S
H717 C729 0.950 . S
H718 C726 0.950 . S
H719 C728 0.950 . S
H720 C730 0.950 . S
H721 C732 0.950 . S
H722 C734 0.950 . S
H723 C735 0.950 . S
C724 H716 0.950 . S
C724 C725 1.386 . S
C724 C726 1.391 . S
C725 C724 1.386 . S
C725 C729 1.393 . S
C726 H718 0.950 . S
C726 C724 1.391 . S
C726 C727 1.400 . S
C727 C726 1.400 . S
C727 C728 1.398 . S
C727 C733 1.491 . S
C728 H719 0.950 . S
C728 C727 1.398 . S
C728 C729 1.391 . S
C729 H717 0.950 . S
C729 C725 1.393 . S
C729 C728 1.391 . S
C730 H720 0.950 . S
C730 C731 1.386 . S
C730 C732 1.391 . S
C731 C730 1.386 . S
C731 C735 1.393 . S
C732 H721 0.950 . S
C732 C730 1.391 . S
C732 C733 1.400 . S
C733 C727 1.491 . S
C733 C732 1.400 . S
C733 C734 1.398 . S
C734 H722 0.950 . S
C734 C733 1.398 . S
C734 C735 1.391 . S
C735 H723 0.950 . S
C735 C731 1.393 . S
C735 C734 1.391 . S
H736 C744 0.950 . S
H737 C749 0.950 . S
H738 C746 0.950 1_655 S
H739 C748 0.950 . S
H740 C750 0.950 . S
H741 C752 0.950 . S
H742 C754 0.950 1_655 S
H743 C755 0.951 1_655 S
C744 H736 0.950 . S
C744 C745 1.386 1_655 S
C744 C746 1.391 1_655 S
C745 C744 1.386 1_455 S
C745 C749 1.393 . S
C746 H738 0.950 1_455 S
C746 C744 1.391 1_455 S
C746 C747 1.400 . S
C747 C746 1.400 . S
C747 C748 1.398 . S
C747 C753 1.491 . S
C748 H739 0.950 . S
C748 C747 1.398 . S
C748 C749 1.391 . S
C749 H737 0.950 . S
C749 C745 1.393 . S
C749 C748 1.391 . S
C750 H740 0.950 . S
C750 C751 1.386 . S
C750 C752 1.391 . S
C751 C750 1.386 . S
C751 C755 1.393 . S
C752 H741 0.950 . S
C752 C750 1.391 . S
C752 C753 1.400 . S
C753 C747 1.491 . S
C753 C752 1.400 . S
C753 C754 1.398 . S
C754 H742 0.950 1_455 S
C754 C753 1.398 . S
C754 C755 1.391 . S
C755 H743 0.951 1_455 S
C755 C751 1.393 . S
C755 C754 1.391 . S
H756 C764 0.950 . S
H757 C769 0.950 . S
H758 C766 0.950 . S
H759 C768 0.950 . S
H760 C770 0.950 . S
H761 C772 0.950 . S
H762 C774 0.950 . S
H763 C775 0.950 . S
C764 H756 0.950 . S
C764 C765 1.386 . S
C764 C766 1.391 . S
C765 C764 1.386 . S
C765 C769 1.393 . S
C766 H758 0.950 . S
C766 C764 1.391 . S
C766 C767 1.400 . S
C767 C766 1.400 . S
C767 C768 1.398 . S
C767 C773 1.491 . S
C768 H759 0.950 . S
C768 C767 1.398 . S
C768 C769 1.391 . S
C769 H757 0.950 . S
C769 C765 1.393 . S
C769 C768 1.391 . S
C770 H760 0.950 . S
C770 C771 1.386 . S
C770 C772 1.391 . S
C771 C770 1.386 . S
C771 C775 1.393 . S
C772 H761 0.950 . S
C772 C770 1.391 . S
C772 C773 1.400 . S
C773 C767 1.491 . S
C773 C772 1.400 . S
C773 C774 1.398 . S
C774 H762 0.950 . S
C774 C773 1.398 . S
C774 C775 1.391 . S
C775 H763 0.950 . S
C775 C771 1.393 . S
C775 C774 1.391 . S
H776 C784 0.950 . S
H777 C789 0.950 . S
H778 C786 0.950 . S
H779 C788 0.950 . S
H780 C790 0.950 . S
H781 C792 0.950 . S
H782 C794 0.950 . S
H783 C795 0.950 . S
C784 H776 0.950 . S
C784 C785 1.386 . S
C784 C786 1.391 . S
C785 C784 1.386 . S
C785 C789 1.393 . S
C786 H778 0.950 . S
C786 C784 1.391 . S
C786 C787 1.400 . S
C787 C786 1.400 . S
C787 C788 1.398 . S
C787 C793 1.491 . S
C788 H779 0.950 . S
C788 C787 1.398 . S
C788 C789 1.391 . S
C789 H777 0.950 . S
C789 C785 1.393 . S
C789 C788 1.391 . S
C790 H780 0.950 . S
C790 C791 1.386 . S
C790 C792 1.391 . S
C791 C790 1.386 . S
C791 C795 1.393 . S
C792 H781 0.950 . S
C792 C790 1.391 . S
C792 C793 1.400 . S
C793 C787 1.491 . S
C793 C792 1.400 . S
C793 C794 1.398 . S
C794 H782 0.950 . S
C794 C793 1.398 . S
C794 C795 1.391 . S
C795 H783 0.950 . S
C795 C791 1.393 . S
C795 C794 1.391 . S
H796 C804 0.950 . S
H797 C809 0.950 . S
H798 C806 0.950 . S
H799 C808 0.950 . S
H800 C810 0.950 . S
H801 C812 0.950 . S
H802 C814 0.950 . S
H803 C815 0.950 . S
C804 H796 0.950 . S
C804 C805 1.386 . S
C804 C806 1.391 . S
C805 C804 1.386 . S
C805 C809 1.393 . S
C806 H798 0.950 . S
C806 C804 1.391 . S
C806 C807 1.400 . S
C807 C806 1.400 . S
C807 C808 1.398 . S
C807 C813 1.491 . S
C808 H799 0.950 . S
C808 C807 1.398 . S
C808 C809 1.391 . S
C809 H797 0.950 . S
C809 C805 1.393 . S
C809 C808 1.391 . S
C810 H800 0.950 . S
C810 C811 1.386 . S
C810 C812 1.391 . S
C811 C810 1.386 . S
C811 C815 1.393 . S
C812 H801 0.950 . S
C812 C810 1.391 . S
C812 C813 1.400 . S
C813 C807 1.491 . S
C813 C812 1.400 . S
C813 C814 1.398 . S
C814 H802 0.950 . S
C814 C813 1.398 . S
C814 C815 1.391 . S
C815 H803 0.950 . S
C815 C811 1.393 . S
C815 C814 1.391 . S
H816 C824 0.934 1_565 S
H817 C829 0.950 . S
H818 C826 0.950 . S
H819 C828 0.950 . S
H820 C830 0.950 . S
H821 C832 0.950 . S
H822 C834 0.950 1_455 S
H823 C835 0.950 . S
C824 H816 0.934 1_545 S
C824 C825 1.386 . S
C824 C826 1.391 . S
C825 C824 1.386 . S
C825 C829 1.393 . S
C826 H818 0.950 . S
C826 C824 1.391 . S
C826 C827 1.400 . S
C827 C826 1.400 . S
C827 C828 1.398 . S
C827 C833 1.491 . S
C828 H819 0.950 . S
C828 C827 1.398 . S
C828 C829 1.391 . S
C829 H817 0.950 . S
C829 C825 1.393 . S
C829 C828 1.391 . S
C830 H820 0.950 . S
C830 C831 1.386 1_655 S
C830 C832 1.391 . S
C831 C830 1.386 1_455 S
C831 C835 1.393 . S
C832 H821 0.950 . S
C832 C830 1.391 . S
C832 C833 1.400 . S
C833 C827 1.491 . S
C833 C832 1.400 . S
C833 C834 1.398 . S
C834 H822 0.950 1_655 S
C834 C833 1.398 . S
C834 C835 1.391 1_655 S
C835 H823 0.950 . S
C835 C831 1.393 . S
C835 C834 1.391 1_455 S
H836 C844 0.950 . S
H837 C849 0.950 . S
H838 C846 0.950 . S
H839 C848 0.950 . S
H840 C850 0.950 . S
H841 C852 0.950 . S
H842 C854 0.950 . S
H843 C855 0.950 . S
C844 H836 0.950 . S
C844 C845 1.386 . S
C844 C846 1.391 . S
C845 C844 1.386 . S
C845 C849 1.393 . S
C846 H838 0.950 . S
C846 C844 1.391 . S
C846 C847 1.400 . S
C847 C846 1.400 . S
C847 C848 1.398 . S
C847 C853 1.491 . S
C848 H839 0.950 . S
C848 C847 1.398 . S
C848 C849 1.391 . S
C849 H837 0.950 . S
C849 C845 1.393 . S
C849 C848 1.391 . S
C850 H840 0.950 . S
C850 C851 1.386 . S
C850 C852 1.391 . S
C851 C850 1.386 . S
C851 C855 1.393 . S
C852 H841 0.950 . S
C852 C850 1.391 . S
C852 C853 1.400 . S
C853 C847 1.491 . S
C853 C852 1.400 . S
C853 C854 1.398 . S
C854 H842 0.950 . S
C854 C853 1.398 . S
C854 C855 1.391 . S
C855 H843 0.950 . S
C855 C851 1.393 . S
C855 C854 1.391 . S
H856 C864 0.950 . S
H857 C869 0.950 . S
H858 C866 0.966 . S
H859 C868 0.950 . S
H860 C870 0.950 . S
H861 C872 0.950 . S
H862 C874 0.950 . S
H863 C875 0.950 . S
C864 H856 0.950 . S
C864 C865 1.385 1_545 S
C864 C866 1.383 . S
C865 C864 1.385 1_565 S
C865 C869 1.393 . S
C866 H858 0.966 . S
C866 C864 1.383 . S
C866 C867 1.395 1_545 S
C867 C866 1.395 1_565 S
C867 C868 1.398 . S
C867 C873 1.491 . S
C868 H859 0.950 . S
C868 C867 1.398 . S
C868 C869 1.391 . S
C869 H857 0.950 . S
C869 C865 1.393 . S
C869 C868 1.391 . S
C870 H860 0.950 . S
C870 C871 1.387 1_565 S
C870 C872 1.391 . S
C871 C870 1.387 1_545 S
C871 C875 1.392 . S
C872 H861 0.950 . S
C872 C870 1.391 . S
C872 C873 1.400 . S
C873 C867 1.491 . S
C873 C872 1.400 . S
C873 C874 1.398 1_565 S
C874 H862 0.950 . S
C874 C873 1.398 1_545 S
C874 C875 1.391 . S
C875 H863 0.950 . S
C875 C871 1.392 . S
C875 C874 1.391 . S
H876 C884 0.950 . S
H877 C889 0.950 . S
H878 C886 0.950 . S
H879 C888 0.950 . S
H880 C890 0.950 . S
H881 C892 0.950 . S
H882 C894 0.950 . S
H883 C895 0.950 . S
C884 H876 0.950 . S
C884 C885 1.386 . S
C884 C886 1.391 . S
C885 C884 1.386 . S
C885 C889 1.393 . S
C886 H878 0.950 . S
C886 C884 1.391 . S
C886 C887 1.400 . S
C887 C886 1.400 . S
C887 C888 1.398 . S
C887 C893 1.491 . S
C888 H879 0.950 . S
C888 C887 1.398 . S
C888 C889 1.391 . S
C889 H877 0.950 . S
C889 C885 1.393 . S
C889 C888 1.391 . S
C890 H880 0.950 . S
C890 C891 1.386 . S
C890 C892 1.391 . S
C891 C890 1.386 . S
C891 C895 1.393 . S
C892 H881 0.950 . S
C892 C890 1.391 . S
C892 C893 1.400 . S
C893 C887 1.491 . S
C893 C892 1.400 . S
C893 C894 1.398 . S
C894 H882 0.950 . S
C894 C893 1.398 . S
C894 C895 1.391 . S
C895 H883 0.950 . S
C895 C891 1.393 . S
C895 C894 1.391 . S
H896 C904 0.950 . S
H897 C909 0.950 . S
H898 C906 0.950 . S
H899 C908 0.950 . S
H900 C910 0.950 1_455 S
H901 C912 0.950 . S
H902 C914 0.950 . S
H903 C915 0.950 . S
C904 H896 0.950 . S
C904 C905 1.386 1_565 S
C904 C906 1.391 . S
C905 C904 1.386 1_545 S
C905 C909 1.393 . S
C906 H898 0.950 . S
C906 C904 1.391 . S
C906 C907 1.400 1_565 S
C907 C906 1.400 1_545 S
C907 C908 1.398 . S
C907 C913 1.491 . S
C908 H899 0.950 . S
C908 C907 1.398 . S
C908 C909 1.391 . S
C909 H897 0.950 . S
C909 C905 1.393 . S
C909 C908 1.391 . S
C910 H900 0.950 1_655 S
C910 C911 1.386 . S
C910 C912 1.391 . S
C911 C910 1.386 . S
C911 C915 1.393 1_545 S
C912 H901 0.950 . S
C912 C910 1.391 . S
C912 C913 1.400 . S
C913 C907 1.491 . S
C913 C912 1.400 . S
C913 C914 1.398 1_545 S
C914 H902 0.950 . S
C914 C913 1.398 1_565 S
C914 C915 1.391 . S
C915 H903 0.950 . S
C915 C911 1.393 1_565 S
C915 C914 1.391 . S
H916 C924 0.950 . S
H917 C929 0.950 . S
H918 C926 0.950 . S
H919 C928 0.950 . S
H920 C930 0.950 . S
H921 C932 0.950 . S
H922 C934 0.950 . S
H923 C935 0.950 . S
C924 H916 0.950 . S
C924 C925 1.386 . S
C924 C926 1.391 . S
C925 C924 1.386 . S
C925 C929 1.393 . S
C926 H918 0.950 . S
C926 C924 1.391 . S
C926 C927 1.400 . S
C927 C926 1.400 . S
C927 C928 1.398 . S
C927 C933 1.491 . S
C928 H919 0.950 . S
C928 C927 1.398 . S
C928 C929 1.391 . S
C929 H917 0.950 . S
C929 C925 1.393 . S
C929 C928 1.391 . S
C930 H920 0.950 . S
C930 C931 1.386 . S
C930 C932 1.391 . S
C931 C930 1.386 . S
C931 C935 1.393 . S
C932 H921 0.950 . S
C932 C930 1.391 . S
C932 C933 1.400 . S
C933 C927 1.491 . S
C933 C932 1.400 . S
C933 C934 1.398 . S
C934 H922 0.950 . S
C934 C933 1.398 . S
C934 C935 1.391 . S
C935 H923 0.950 . S
C935 C931 1.393 . S
C935 C934 1.391 . S
H936 C944 0.950 . S
H937 C949 0.950 . S
H938 C946 0.950 . S
H939 C948 0.950 . S
H940 C950 0.950 . S
H941 C952 0.950 . S
H942 C954 0.950 1_565 S
H943 C955 0.950 . S
C944 H936 0.950 . S
C944 C945 1.386 1_565 S
C944 C946 1.391 . S
C945 C944 1.386 1_545 S
C945 C949 1.393 . S
C946 H938 0.950 . S
C946 C944 1.391 . S
C946 C947 1.400 1_565 S
C947 C946 1.400 1_545 S
C947 C948 1.398 . S
C947 C953 1.491 . S
C948 H939 0.950 . S
C948 C947 1.398 . S
C948 C949 1.391 . S
C949 H937 0.950 . S
C949 C945 1.393 . S
C949 C948 1.391 . S
C950 H940 0.950 . S
C950 C951 1.386 . S
C950 C952 1.391 . S
C951 C950 1.386 . S
C951 C955 1.393 . S
C952 H941 0.950 . S
C952 C950 1.391 . S
C952 C953 1.400 . S
C953 C947 1.491 . S
C953 C952 1.400 . S
C953 C954 1.398 . S
C954 H942 0.950 1_545 S
C954 C953 1.398 . S
C954 C955 1.391 . S
C955 H943 0.950 . S
C955 C951 1.393 . S
C955 C954 1.391 . S
H956 C964 0.950 . S
H957 C969 0.950 . S
H958 C966 0.950 . S
H959 C968 0.950 . S
H960 C970 0.950 . S
H961 C972 0.950 . S
H962 C974 0.950 . S
H963 C975 0.950 . S
C964 H956 0.950 . S
C964 C965 1.386 . S
C964 C966 1.391 . S
C965 C964 1.386 . S
C965 C969 1.393 . S
C966 H958 0.950 . S
C966 C964 1.391 . S
C966 C967 1.400 . S
C967 C966 1.400 . S
C967 C968 1.398 . S
C967 C973 1.491 . S
C968 H959 0.950 . S
C968 C967 1.398 . S
C968 C969 1.391 . S
C969 H957 0.950 . S
C969 C965 1.393 . S
C969 C968 1.391 . S
C970 H960 0.950 . S
C970 C971 1.386 . S
C970 C972 1.391 . S
C971 C970 1.386 . S
C971 C975 1.393 . S
C972 H961 0.950 . S
C972 C970 1.391 . S
C972 C973 1.400 . S
C973 C967 1.491 . S
C973 C972 1.400 . S
C973 C974 1.398 . S
C974 H962 0.950 . S
C974 C973 1.398 . S
C974 C975 1.391 . S
C975 H963 0.950 . S
C975 C971 1.393 . S
C975 C974 1.391 . S
H976 C984 0.950 . S
H977 C989 0.950 . S
H978 C986 0.950 . S
H979 C988 0.950 . S
H980 C990 0.950 . S
H981 C992 0.950 . S
H982 C994 0.950 . S
H983 C995 0.950 1_545 S
C984 H976 0.950 . S
C984 C985 1.386 . S
C984 C986 1.391 . S
C985 C984 1.386 . S
C985 C989 1.393 . S
C986 H978 0.950 . S
C986 C984 1.391 . S
C986 C987 1.400 . S
C987 C986 1.400 . S
C987 C988 1.398 . S
C987 C993 1.491 . S
C988 H979 0.950 . S
C988 C987 1.398 . S
C988 C989 1.391 . S
C989 H977 0.950 . S
C989 C985 1.393 . S
C989 C988 1.391 . S
C990 H980 0.950 . S
C990 C991 1.386 . S
C990 C992 1.391 . S
C991 C990 1.386 . S
C991 C995 1.393 . S
C992 H981 0.950 . S
C992 C990 1.391 . S
C992 C993 1.400 . S
C993 C987 1.491 . S
C993 C992 1.400 . S
C993 C994 1.398 . S
C994 H982 0.950 . S
C994 C993 1.398 . S
C994 C995 1.391 . S
C995 H983 0.950 1_565 S
C995 C991 1.393 . S
C995 C994 1.391 . S
H996 C1004 0.950 . S
H997 C1009 0.950 . S
H998 C1006 0.950 . S
H999 C1008 0.950 . S
H1000 C1010 0.950 . S
H1001 C1012 0.950 . S
H1002 C1014 0.950 . S
H1003 C1015 0.950 . S
C1004 H996 0.950 . S
C1004 C1005 1.386 1_554 S
C1004 C1006 1.391 . S
C1005 C1004 1.386 1_556 S
C1005 C1009 1.393 . S
C1006 H998 0.950 . S
C1006 C1004 1.391 . S
C1006 C1007 1.415 . S
C1007 C1006 1.415 . S
C1007 C1008 1.378 1_554 S
C1007 C1013 1.496 . S
C1008 H999 0.950 . S
C1008 C1007 1.378 1_556 S
C1008 C1009 1.391 . S
C1009 H997 0.950 . S
C1009 C1005 1.393 . S
C1009 C1008 1.391 . S
C1010 H1000 0.950 . S
C1010 C1011 1.386 1_556 S
C1010 C1012 1.391 . S
C1011 C1010 1.386 1_554 S
C1011 C1015 1.393 . S
C1012 H1001 0.950 . S
C1012 C1010 1.391 . S
C1012 C1013 1.400 1_556 S
C1013 C1007 1.496 . S
C1013 C1012 1.400 1_554 S
C1013 C1014 1.398 . S
C1014 H1002 0.950 . S
C1014 C1013 1.398 . S
C1014 C1015 1.391 . S
C1015 H1003 0.950 . S
C1015 C1011 1.393 . S
C1015 C1014 1.391 . S
H1016 C1024 0.950 . S
H1017 C1029 0.950 . S
H1018 C1026 0.950 . S
H1019 C1028 0.950 . S
H1020 C1030 0.950 . S
H1021 C1032 0.950 . S
H1022 C1034 0.950 . S
H1023 C1035 0.950 . S
C1024 H1016 0.950 . S
C1024 C1025 1.386 . S
C1024 C1026 1.391 . S
C1025 C1024 1.386 . S
C1025 C1029 1.393 . S
C1026 H1018 0.950 . S
C1026 C1024 1.391 . S
C1026 C1027 1.400 . S
C1027 C1026 1.400 . S
C1027 C1028 1.398 . S
C1027 C1033 1.491 . S
C1028 H1019 0.950 . S
C1028 C1027 1.398 . S
C1028 C1029 1.391 . S
C1029 H1017 0.950 . S
C1029 C1025 1.393 . S
C1029 C1028 1.391 . S
C1030 H1020 0.950 . S
C1030 C1031 1.386 . S
C1030 C1032 1.391 . S
C1031 C1030 1.386 . S
C1031 C1035 1.393 . S
C1032 H1021 0.950 . S
C1032 C1030 1.391 . S
C1032 C1033 1.400 . S
C1033 C1027 1.491 . S
C1033 C1032 1.400 . S
C1033 C1034 1.398 . S
C1034 H1022 0.950 . S
C1034 C1033 1.398 . S
C1034 C1035 1.391 . S
C1035 H1023 0.950 . S
C1035 C1031 1.393 . S
C1035 C1034 1.391 . S
H1036 C1044 0.950 . S
H1037 C1049 0.950 . S
H1038 C1046 0.950 . S
H1039 C1048 0.950 . S
H1040 C1050 0.950 . S
H1041 C1052 0.950 . S
H1042 C1054 0.950 . S
H1043 C1055 0.950 . S
C1044 H1036 0.950 . S
C1044 C1045 1.386 . S
C1044 C1046 1.391 . S
C1045 C1044 1.386 . S
C1045 C1049 1.393 . S
C1046 H1038 0.950 . S
C1046 C1044 1.391 . S
C1046 C1047 1.400 . S
C1047 C1046 1.400 . S
C1047 C1048 1.398 . S
C1047 C1053 1.491 . S
C1048 H1039 0.950 . S
C1048 C1047 1.398 . S
C1048 C1049 1.391 . S
C1049 H1037 0.950 . S
C1049 C1045 1.393 . S
C1049 C1048 1.391 . S
C1050 H1040 0.950 . S
C1050 C1051 1.386 . S
C1050 C1052 1.391 . S
C1051 C1050 1.386 . S
C1051 C1055 1.393 . S
C1052 H1041 0.950 . S
C1052 C1050 1.391 . S
C1052 C1053 1.400 . S
C1053 C1047 1.491 . S
C1053 C1052 1.400 . S
C1053 C1054 1.398 . S
C1054 H1042 0.950 . S
C1054 C1053 1.398 . S
C1054 C1055 1.391 . S
C1055 H1043 0.950 . S
C1055 C1051 1.393 . S
C1055 C1054 1.391 . S
H1056 C1064 0.950 . S
H1057 C1069 0.950 . S
H1058 C1066 0.950 . S
H1059 C1068 0.950 . S
H1060 C1070 0.950 . S
H1061 C1072 0.950 . S
H1062 C1074 0.950 . S
H1063 C1075 0.950 . S
C1064 H1056 0.950 . S
C1064 C1065 1.386 . S
C1064 C1066 1.391 . S
C1065 C1064 1.386 . S
C1065 C1069 1.393 . S
C1066 H1058 0.950 . S
C1066 C1064 1.391 . S
C1066 C1067 1.400 . S
C1067 C1066 1.400 . S
C1067 C1068 1.398 . S
C1067 C1073 1.491 . S
C1068 H1059 0.950 . S
C1068 C1067 1.398 . S
C1068 C1069 1.391 . S
C1069 H1057 0.950 . S
C1069 C1065 1.393 . S
C1069 C1068 1.391 . S
C1070 H1060 0.950 . S
C1070 C1071 1.386 . S
C1070 C1072 1.391 . S
C1071 C1070 1.386 . S
C1071 C1075 1.393 . S
C1072 H1061 0.950 . S
C1072 C1070 1.391 . S
C1072 C1073 1.400 . S
C1073 C1067 1.491 . S
C1073 C1072 1.400 . S
C1073 C1074 1.398 . S
C1074 H1062 0.950 . S
C1074 C1073 1.398 . S
C1074 C1075 1.391 . S
C1075 H1063 0.950 . S
C1075 C1071 1.393 . S
C1075 C1074 1.391 . S
H1076 C1084 0.950 . S
H1077 C1089 0.950 . S
H1078 C1086 0.950 . S
H1079 C1088 0.950 . S
H1080 C1090 0.950 . S
H1081 C1092 0.950 . S
H1082 C1094 0.950 . S
H1083 C1095 0.950 . S
C1084 H1076 0.950 . S
C1084 C1085 1.386 . S
C1084 C1086 1.391 . S
C1085 C1084 1.386 . S
C1085 C1089 1.393 . S
C1086 H1078 0.950 . S
C1086 C1084 1.391 . S
C1086 C1087 1.400 . S
C1087 C1086 1.400 . S
C1087 C1088 1.398 . S
C1087 C1093 1.491 . S
C1088 H1079 0.950 . S
C1088 C1087 1.398 . S
C1088 C1089 1.391 . S
C1089 H1077 0.950 . S
C1089 C1085 1.393 . S
C1089 C1088 1.391 . S
C1090 H1080 0.950 . S
C1090 C1091 1.386 . S
C1090 C1092 1.391 . S
C1091 C1090 1.386 . S
C1091 C1095 1.393 . S
C1092 H1081 0.950 . S
C1092 C1090 1.391 . S
C1092 C1093 1.400 . S
C1093 C1087 1.491 . S
C1093 C1092 1.400 . S
C1093 C1094 1.398 . S
C1094 H1082 0.950 . S
C1094 C1093 1.398 . S
C1094 C1095 1.391 . S
C1095 H1083 0.950 . S
C1095 C1091 1.393 . S
C1095 C1094 1.391 . S
H1096 C1104 0.950 . S
H1097 C1109 0.950 . S
H1098 C1106 0.950 . S
H1099 C1108 0.950 . S
H1100 C1110 0.950 . S
H1101 C1112 0.950 . S
H1102 C1114 0.950 . S
H1103 C1115 0.950 . S
C1104 H1096 0.950 . S
C1104 C1105 1.386 . S
C1104 C1106 1.391 . S
C1105 C1104 1.386 . S
C1105 C1109 1.393 . S
C1106 H1098 0.950 . S
C1106 C1104 1.391 . S
C1106 C1107 1.400 . S
C1107 C1106 1.400 . S
C1107 C1108 1.398 . S
C1107 C1113 1.491 . S
C1108 H1099 0.950 . S
C1108 C1107 1.398 . S
C1108 C1109 1.391 . S
C1109 H1097 0.950 . S
C1109 C1105 1.393 . S
C1109 C1108 1.391 . S
C1110 H1100 0.950 . S
C1110 C1111 1.386 . S
C1110 C1112 1.391 . S
C1111 C1110 1.386 . S
C1111 C1115 1.393 . S
C1112 H1101 0.950 . S
C1112 C1110 1.391 . S
C1112 C1113 1.400 . S
C1113 C1107 1.491 . S
C1113 C1112 1.400 . S
C1113 C1114 1.398 . S
C1114 H1102 0.950 . S
C1114 C1113 1.398 . S
C1114 C1115 1.391 . S
C1115 H1103 0.950 . S
C1115 C1111 1.393 . S
C1115 C1114 1.391 . S
H1116 C1124 0.950 . S
H1117 C1129 0.950 . S
H1118 C1126 0.950 . S
H1119 C1128 0.950 . S
H1120 C1130 0.950 . S
H1121 C1132 0.950 . S
H1122 C1134 0.950 . S
H1123 C1135 0.950 . S
C1124 H1116 0.950 . S
C1124 C1125 1.386 . S
C1124 C1126 1.391 . S
C1125 C1124 1.386 . S
C1125 C1129 1.393 . S
C1126 H1118 0.950 . S
C1126 C1124 1.391 . S
C1126 C1127 1.400 . S
C1127 C1126 1.400 . S
C1127 C1128 1.398 . S
C1127 C1133 1.491 . S
C1128 H1119 0.950 . S
C1128 C1127 1.398 . S
C1128 C1129 1.391 . S
C1129 H1117 0.950 . S
C1129 C1125 1.393 . S
C1129 C1128 1.391 . S
C1130 H1120 0.950 . S
C1130 C1131 1.386 . S
C1130 C1132 1.391 . S
C1131 C1130 1.386 . S
C1131 C1135 1.393 . S
C1132 H1121 0.950 . S
C1132 C1130 1.391 . S
C1132 C1133 1.400 . S
C1133 C1127 1.491 . S
C1133 C1132 1.400 . S
C1133 C1134 1.398 . S
C1134 H1122 0.950 . S
C1134 C1133 1.398 . S
C1134 C1135 1.391 . S
C1135 H1123 0.950 . S
C1135 C1131 1.393 . S
C1135 C1134 1.391 . S
H1136 C1144 0.950 . S
H1137 C1149 0.950 . S
H1138 C1146 0.950 . S
H1139 C1148 0.950 1_655 S
H1140 C1150 0.950 . S
H1141 C1152 0.950 1_655 S
H1142 C1154 0.950 . S
H1143 C1155 0.950 . S
C1144 H1136 0.950 . S
C1144 C1145 1.386 . S
C1144 C1146 1.391 . S
C1145 C1144 1.386 . S
C1145 C1149 1.393 . S
C1146 H1138 0.950 . S
C1146 C1144 1.391 . S
C1146 C1147 1.400 . S
C1147 C1146 1.400 . S
C1147 C1148 1.398 . S
C1147 C1153 1.491 . S
C1148 H1139 0.950 1_455 S
C1148 C1147 1.398 . S
C1148 C1149 1.391 . S
C1149 H1137 0.950 . S
C1149 C1145 1.393 . S
C1149 C1148 1.391 . S
C1150 H1140 0.950 . S
C1150 C1151 1.386 1_655 S
C1150 C1152 1.391 1_655 S
C1151 C1150 1.386 1_455 S
C1151 C1155 1.393 . S
C1152 H1141 0.950 1_455 S
C1152 C1150 1.391 1_455 S
C1152 C1153 1.400 . S
C1153 C1147 1.491 . S
C1153 C1152 1.400 . S
C1153 C1154 1.398 . S
C1154 H1142 0.950 . S
C1154 C1153 1.398 . S
C1154 C1155 1.391 . S
C1155 H1143 0.950 . S
C1155 C1151 1.393 . S
C1155 C1154 1.391 . S
H1156 C1164 0.950 . S
H1157 C1169 0.950 . S
H1158 C1166 0.950 . S
H1159 C1168 0.950 . S
H1160 C1170 0.950 . S
H1161 C1172 0.950 . S
H1162 C1174 0.950 . S
H1163 C1175 0.950 . S
C1164 H1156 0.950 . S
C1164 C1165 1.386 . S
C1164 C1166 1.391 . S
C1165 C1164 1.386 . S
C1165 C1169 1.393 . S
C1166 H1158 0.950 . S
C1166 C1164 1.391 . S
C1166 C1167 1.400 . S
C1167 C1166 1.400 . S
C1167 C1168 1.398 . S
C1167 C1173 1.491 . S
C1168 H1159 0.950 . S
C1168 C1167 1.398 . S
C1168 C1169 1.391 . S
C1169 H1157 0.950 . S
C1169 C1165 1.393 . S
C1169 C1168 1.391 . S
C1170 H1160 0.950 . S
C1170 C1171 1.386 . S
C1170 C1172 1.391 . S
C1171 C1170 1.386 . S
C1171 C1175 1.393 . S
C1172 H1161 0.950 . S
C1172 C1170 1.391 . S
C1172 C1173 1.400 . S
C1173 C1167 1.491 . S
C1173 C1172 1.400 . S
C1173 C1174 1.398 . S
C1174 H1162 0.950 . S
C1174 C1173 1.398 . S
C1174 C1175 1.391 . S
C1175 H1163 0.950 . S
C1175 C1171 1.393 . S
C1175 C1174 1.391 . S
H1176 C1184 0.950 . S
H1177 C1189 0.950 . S
H1178 C1186 0.950 . S
H1179 C1188 0.950 . S
H1180 C1190 0.950 . S
H1181 C1192 0.950 . S
H1182 C1194 0.950 . S
H1183 C1195 0.950 . S
C1184 H1176 0.950 . S
C1184 C1185 1.386 . S
C1184 C1186 1.391 . S
C1185 C1184 1.386 . S
C1185 C1189 1.393 . S
C1186 H1178 0.950 . S
C1186 C1184 1.391 . S
C1186 C1187 1.400 . S
C1187 C1186 1.400 . S
C1187 C1188 1.398 . S
C1187 C1193 1.491 . S
C1188 H1179 0.950 . S
C1188 C1187 1.398 . S
C1188 C1189 1.391 . S
C1189 H1177 0.950 . S
C1189 C1185 1.393 . S
C1189 C1188 1.391 . S
C1190 H1180 0.950 . S
C1190 C1191 1.386 . S
C1190 C1192 1.391 . S
C1191 C1190 1.386 . S
C1191 C1195 1.393 . S
C1192 H1181 0.950 . S
C1192 C1190 1.391 . S
C1192 C1193 1.400 . S
C1193 C1187 1.491 . S
C1193 C1192 1.400 . S
C1193 C1194 1.398 . S
C1194 H1182 0.950 . S
C1194 C1193 1.398 . S
C1194 C1195 1.391 . S
C1195 H1183 0.950 . S
C1195 C1191 1.393 . S
C1195 C1194 1.391 . S
H1196 C1204 0.950 . S
H1197 C1209 0.950 . S
H1198 C1206 0.950 . S
H1199 C1208 0.950 . S
H1200 C1210 0.950 . S
H1201 C1212 0.950 . S
H1202 C1214 0.950 . S
H1203 C1215 0.950 . S
C1204 H1196 0.950 . S
C1204 C1205 1.386 . S
C1204 C1206 1.391 . S
C1205 C1204 1.386 . S
C1205 C1209 1.393 . S
C1206 H1198 0.950 . S
C1206 C1204 1.391 . S
C1206 C1207 1.400 . S
C1207 C1206 1.400 . S
C1207 C1208 1.398 . S
C1207 C1213 1.491 . S
C1208 H1199 0.950 . S
C1208 C1207 1.398 . S
C1208 C1209 1.391 . S
C1209 H1197 0.950 . S
C1209 C1205 1.393 . S
C1209 C1208 1.391 . S
C1210 H1200 0.950 . S
C1210 C1211 1.386 . S
C1210 C1212 1.391 . S
C1211 C1210 1.386 . S
C1211 C1215 1.393 . S
C1212 H1201 0.950 . S
C1212 C1210 1.391 . S
C1212 C1213 1.400 . S
C1213 C1207 1.491 . S
C1213 C1212 1.400 . S
C1213 C1214 1.398 . S
C1214 H1202 0.950 . S
C1214 C1213 1.398 . S
C1214 C1215 1.391 . S
C1215 H1203 0.950 . S
C1215 C1211 1.393 . S
C1215 C1214 1.391 . S
H1216 C1224 0.992 . S
H1217 C1229 0.950 . S
H1218 C1226 0.950 . S
H1219 C1228 0.950 . S
H1220 C1230 0.950 . S
H1221 C1232 0.950 . S
H1222 C1234 0.950 . S
H1223 C1235 0.950 . S
C1224 H1216 0.992 . S
C1224 C1225 1.347 1_655 S
C1224 C1226 1.389 . S
C1225 C1224 1.347 1_455 S
C1225 C1229 1.393 . S
C1226 H1218 0.950 . S
C1226 C1224 1.389 . S
C1226 C1227 1.400 1_655 S
C1227 C1226 1.400 1_455 S
C1227 C1228 1.398 . S
C1227 C1233 1.491 . S
C1228 H1219 0.950 . S
C1228 C1227 1.398 . S
C1228 C1229 1.391 . S
C1229 H1217 0.950 . S
C1229 C1225 1.393 . S
C1229 C1228 1.391 . S
C1230 H1220 0.950 . S
C1230 C1231 1.386 . S
C1230 C1232 1.391 . S
C1231 C1230 1.386 . S
C1231 C1235 1.393 1_455 S
C1232 H1221 0.950 . S
C1232 C1230 1.391 . S
C1232 C1233 1.400 . S
C1233 C1227 1.491 . S
C1233 C1232 1.400 . S
C1233 C1234 1.398 1_455 S
C1234 H1222 0.950 . S
C1234 C1233 1.398 1_655 S
C1234 C1235 1.391 . S
C1235 H1223 0.950 . S
C1235 C1231 1.393 1_655 S
C1235 C1234 1.391 . S
H1236 C1244 0.950 . S
H1237 C1249 0.950 . S
H1238 C1246 0.950 . S
H1239 C1248 0.950 . S
H1240 C1250 0.950 . S
H1241 C1252 0.950 . S
H1242 C1254 0.950 . S
H1243 C1255 0.950 . S
C1244 H1236 0.950 . S
C1244 C1245 1.386 . S
C1244 C1246 1.391 . S
C1245 C1244 1.386 . S
C1245 C1249 1.393 . S
C1246 H1238 0.950 . S
C1246 C1244 1.391 . S
C1246 C1247 1.400 . S
C1247 C1246 1.400 . S
C1247 C1248 1.398 . S
C1247 C1253 1.491 . S
C1248 H1239 0.950 . S
C1248 C1247 1.398 . S
C1248 C1249 1.391 . S
C1249 H1237 0.950 . S
C1249 C1245 1.393 . S
C1249 C1248 1.391 . S
C1250 H1240 0.950 . S
C1250 C1251 1.386 . S
C1250 C1252 1.391 . S
C1251 C1250 1.386 . S
C1251 C1255 1.393 . S
C1252 H1241 0.950 . S
C1252 C1250 1.391 . S
C1252 C1253 1.400 . S
C1253 C1247 1.491 . S
C1253 C1252 1.400 . S
C1253 C1254 1.398 . S
C1254 H1242 0.950 . S
C1254 C1253 1.398 . S
C1254 C1255 1.391 . S
C1255 H1243 0.950 . S
C1255 C1251 1.393 . S
C1255 C1254 1.391 . S
H1256 C1264 0.950 . S
H1257 C1269 0.950 . S
H1258 C1266 0.950 . S
H1259 C1268 0.950 . S
H1260 C1270 0.950 . S
H1261 C1272 0.950 1_554 S
H1262 C1274 0.950 . S
H1263 C1275 0.950 . S
C1264 H1256 0.950 . S
C1264 C1265 1.386 . S
C1264 C1266 1.391 . S
C1265 C1264 1.386 . S
C1265 C1269 1.393 . S
C1266 H1258 0.950 . S
C1266 C1264 1.391 . S
C1266 C1267 1.400 . S
C1267 C1266 1.400 . S
C1267 C1268 1.398 . S
C1267 C1273 1.491 . S
C1268 H1259 0.950 . S
C1268 C1267 1.398 . S
C1268 C1269 1.391 . S
C1269 H1257 0.950 . S
C1269 C1265 1.393 . S
C1269 C1268 1.391 . S
C1270 H1260 0.950 . S
C1270 C1271 1.386 1_554 S
C1270 C1272 1.391 1_554 S
C1271 C1270 1.386 1_556 S
C1271 C1275 1.393 . S
C1272 H1261 0.950 1_556 S
C1272 C1270 1.391 1_556 S
C1272 C1273 1.400 . S
C1273 C1267 1.491 . S
C1273 C1272 1.400 . S
C1273 C1274 1.398 . S
C1274 H1262 0.950 . S
C1274 C1273 1.398 . S
C1274 C1275 1.391 . S
C1275 H1263 0.950 . S
C1275 C1271 1.393 . S
C1275 C1274 1.391 . S
H1276 C1284 0.950 . S
H1277 C1289 0.950 . S
H1278 C1286 0.950 . S
H1279 C1288 0.950 . S
H1280 C1290 0.950 . S
H1281 C1292 0.950 . S
H1282 C1294 0.950 . S
H1283 C1295 0.950 . S
C1284 H1276 0.950 . S
C1284 C1285 1.386 . S
C1284 C1286 1.391 . S
C1285 C1284 1.386 . S
C1285 C1289 1.393 . S
C1286 H1278 0.950 . S
C1286 C1284 1.391 . S
C1286 C1287 1.400 . S
C1287 C1286 1.400 . S
C1287 C1288 1.398 . S
C1287 C1293 1.491 . S
C1288 H1279 0.950 . S
C1288 C1287 1.398 . S
C1288 C1289 1.391 . S
C1289 H1277 0.950 . S
C1289 C1285 1.393 . S
C1289 C1288 1.391 . S
C1290 H1280 0.950 . S
C1290 C1291 1.386 . S
C1290 C1292 1.391 . S
C1291 C1290 1.386 . S
C1291 C1295 1.393 . S
C1292 H1281 0.950 . S
C1292 C1290 1.391 . S
C1292 C1293 1.400 . S
C1293 C1287 1.491 . S
C1293 C1292 1.400 . S
C1293 C1294 1.398 . S
C1294 H1282 0.950 . S
C1294 C1293 1.398 . S
C1294 C1295 1.391 . S
C1295 H1283 0.950 . S
C1295 C1291 1.393 . S
C1295 C1294 1.391 . S
H1296 C1304 0.950 1_565 S
H1297 C1309 0.950 . S
H1298 C1306 0.950 1_565 S
H1299 C1308 0.950 . S
H1300 C1310 0.950 . S
H1301 C1312 0.950 . S
H1302 C1314 0.950 1_565 S
H1303 C1315 0.952 . S
C1304 H1296 0.950 1_545 S
C1304 C1305 1.386 . S
C1304 C1306 1.391 . S
C1305 C1304 1.386 . S
C1305 C1309 1.393 . S
C1306 H1298 0.950 1_545 S
C1306 C1304 1.391 . S
C1306 C1307 1.400 . S
C1307 C1306 1.400 . S
C1307 C1308 1.398 . S
C1307 C1313 1.491 . S
C1308 H1299 0.950 . S
C1308 C1307 1.398 . S
C1308 C1309 1.391 . S
C1309 H1297 0.950 . S
C1309 C1305 1.393 . S
C1309 C1308 1.391 . S
C1310 H1300 0.950 . S
C1310 C1311 1.386 . S
C1310 C1312 1.391 . S
C1311 C1310 1.386 . S
C1311 C1315 1.391 1_545 S
C1312 H1301 0.950 . S
C1312 C1310 1.391 . S
C1312 C1313 1.400 . S
C1313 C1307 1.491 . S
C1313 C1312 1.400 . S
C1313 C1314 1.398 . S
C1314 H1302 0.950 1_545 S
C1314 C1313 1.398 . S
C1314 C1315 1.390 1_545 S
C1315 H1303 0.952 . S
C1315 C1311 1.391 1_565 S
C1315 C1314 1.390 1_565 S
H1316 C1324 0.950 . S
H1317 C1329 0.950 . S
H1318 C1326 0.950 . S
H1319 C1328 0.950 . S
H1320 C1330 0.950 . S
H1321 C1332 0.950 . S
H1322 C1334 0.950 . S
H1323 C1335 0.950 . S
C1324 H1316 0.950 . S
C1324 C1325 1.386 . S
C1324 C1326 1.391 . S
C1325 C1324 1.386 . S
C1325 C1329 1.393 . S
C1326 H1318 0.950 . S
C1326 C1324 1.391 . S
C1326 C1327 1.400 . S
C1327 C1326 1.400 . S
C1327 C1328 1.398 . S
C1327 C1333 1.491 . S
C1328 H1319 0.950 . S
C1328 C1327 1.398 . S
C1328 C1329 1.391 . S
C1329 H1317 0.950 . S
C1329 C1325 1.393 . S
C1329 C1328 1.391 . S
C1330 H1320 0.950 . S
C1330 C1331 1.386 . S
C1330 C1332 1.391 . S
C1331 C1330 1.386 . S
C1331 C1335 1.393 . S
C1332 H1321 0.950 . S
C1332 C1330 1.391 . S
C1332 C1333 1.400 . S
C1333 C1327 1.491 . S
C1333 C1332 1.400 . S
C1333 C1334 1.398 . S
C1334 H1322 0.950 . S
C1334 C1333 1.398 . S
C1334 C1335 1.391 . S
C1335 H1323 0.950 . S
C1335 C1331 1.393 . S
C1335 C1334 1.391 . S
H1336 C1344 0.950 . S
H1337 C1349 0.950 1_565 S
H1338 C1346 0.950 . S
H1339 C1348 0.950 1_565 S
H1340 C1350 0.950 . S
H1341 C1352 0.972 . S
H1342 C1354 0.950 . S
H1343 C1355 0.950 . S
C1344 H1336 0.950 . S
C1344 C1345 1.386 . S
C1344 C1346 1.391 . S
C1345 C1344 1.386 . S
C1345 C1349 1.393 . S
C1346 H1338 0.950 . S
C1346 C1344 1.391 . S
C1346 C1347 1.400 . S
C1347 C1346 1.400 . S
C1347 C1348 1.398 . S
C1347 C1353 1.491 . S
C1348 H1339 0.950 1_545 S
C1348 C1347 1.398 . S
C1348 C1349 1.391 . S
C1349 H1337 0.950 1_545 S
C1349 C1345 1.393 . S
C1349 C1348 1.391 . S
C1350 H1340 0.950 . S
C1350 C1351 1.386 1_565 S
C1350 C1352 1.399 . S
C1351 C1350 1.386 1_545 S
C1351 C1355 1.393 . S
C1352 H1341 0.972 . S
C1352 C1350 1.399 . S
C1352 C1353 1.372 1_565 S
C1353 C1347 1.491 . S
C1353 C1352 1.372 1_545 S
C1353 C1354 1.398 . S
C1354 H1342 0.950 . S
C1354 C1353 1.398 . S
C1354 C1355 1.391 . S
C1355 H1343 0.950 . S
C1355 C1351 1.393 . S
C1355 C1354 1.391 . S
H1356 C1364 0.950 . S
H1357 C1369 0.950 . S
H1358 C1366 0.950 . S
H1359 C1368 0.950 . S
H1360 C1370 0.950 . S
H1361 C1372 0.950 . S
H1362 C1374 0.950 . S
H1363 C1375 0.950 . S
C1364 H1356 0.950 . S
C1364 C1365 1.386 . S
C1364 C1366 1.391 . S
C1365 C1364 1.386 . S
C1365 C1369 1.393 . S
C1366 H1358 0.950 . S
C1366 C1364 1.391 . S
C1366 C1367 1.400 . S
C1367 C1366 1.400 . S
C1367 C1368 1.398 . S
C1367 C1373 1.491 . S
C1368 H1359 0.950 . S
C1368 C1367 1.398 . S
C1368 C1369 1.391 . S
C1369 H1357 0.950 . S
C1369 C1365 1.393 . S
C1369 C1368 1.391 . S
C1370 H1360 0.950 . S
C1370 C1371 1.386 . S
C1370 C1372 1.391 . S
C1371 C1370 1.386 . S
C1371 C1375 1.393 . S
C1372 H1361 0.950 . S
C1372 C1370 1.391 . S
C1372 C1373 1.400 . S
C1373 C1367 1.491 . S
C1373 C1372 1.400 . S
C1373 C1374 1.398 . S
C1374 H1362 0.950 . S
C1374 C1373 1.398 . S
C1374 C1375 1.391 . S
C1375 H1363 0.950 . S
C1375 C1371 1.393 . S
C1375 C1374 1.391 . S
H1376 C1384 0.950 . S
H1377 C1389 0.954 . S
H1378 C1386 0.950 . S
H1379 C1388 0.950 . S
H1380 C1390 0.950 . S
H1381 C1392 0.950 . S
H1382 C1394 0.950 . S
H1383 C1395 0.950 . S
C1384 H1376 0.950 . S
C1384 C1385 1.386 . S
C1384 C1386 1.391 . S
C1385 C1384 1.386 . S
C1385 C1389 1.393 . S
C1386 H1378 0.950 . S
C1386 C1384 1.391 . S
C1386 C1387 1.400 . S
C1387 C1386 1.400 . S
C1387 C1388 1.398 . S
C1387 C1393 1.491 . S
C1388 H1379 0.950 . S
C1388 C1387 1.398 . S
C1388 C1389 1.391 . S
C1389 H1377 0.954 . S
C1389 C1385 1.393 . S
C1389 C1388 1.391 . S
C1390 H1380 0.950 . S
C1390 C1391 1.386 . S
C1390 C1392 1.391 . S
C1391 C1390 1.386 . S
C1391 C1395 1.393 . S
C1392 H1381 0.950 . S
C1392 C1390 1.391 . S
C1392 C1393 1.400 . S
C1393 C1387 1.491 . S
C1393 C1392 1.400 . S
C1393 C1394 1.398 . S
C1394 H1382 0.950 . S
C1394 C1393 1.398 . S
C1394 C1395 1.391 . S
C1395 H1383 0.950 . S
C1395 C1391 1.393 . S
C1395 C1394 1.391 . S
H1396 C1404 0.950 . S
H1397 C1409 0.950 . S
H1398 C1406 0.950 . S
H1399 C1408 0.950 . S
H1400 C1410 0.950 . S
H1401 C1412 0.950 . S
H1402 C1414 0.950 . S
H1403 C1415 0.950 . S
C1404 H1396 0.950 . S
C1404 C1405 1.386 . S
C1404 C1406 1.391 . S
C1405 C1404 1.386 . S
C1405 C1409 1.393 . S
C1406 H1398 0.950 . S
C1406 C1404 1.391 . S
C1406 C1407 1.400 . S
C1407 C1406 1.400 . S
C1407 C1408 1.398 . S
C1407 C1413 1.491 . S
C1408 H1399 0.950 . S
C1408 C1407 1.398 . S
C1408 C1409 1.391 . S
C1409 H1397 0.950 . S
C1409 C1405 1.393 . S
C1409 C1408 1.391 . S
C1410 H1400 0.950 . S
C1410 C1411 1.386 . S
C1410 C1412 1.391 . S
C1411 C1410 1.386 . S
C1411 C1415 1.393 . S
C1412 H1401 0.950 . S
C1412 C1410 1.391 . S
C1412 C1413 1.400 . S
C1413 C1407 1.491 . S
C1413 C1412 1.400 . S
C1413 C1414 1.398 . S
C1414 H1402 0.950 . S
C1414 C1413 1.398 . S
C1414 C1415 1.391 . S
C1415 H1403 0.950 . S
C1415 C1411 1.393 . S
C1415 C1414 1.391 . S
H1416 C1424 0.950 . S
H1417 C1429 0.950 . S
H1418 C1426 0.950 . S
H1419 C1428 0.950 . S
H1420 C1430 0.950 . S
H1421 C1432 0.950 . S
H1422 C1434 0.950 . S
H1423 C1435 0.950 . S
C1424 H1416 0.950 . S
C1424 C1425 1.386 . S
C1424 C1426 1.391 . S
C1425 C1424 1.386 . S
C1425 C1429 1.393 . S
C1426 H1418 0.950 . S
C1426 C1424 1.391 . S
C1426 C1427 1.400 . S
C1427 C1426 1.400 . S
C1427 C1428 1.398 . S
C1427 C1433 1.491 . S
C1428 H1419 0.950 . S
C1428 C1427 1.398 . S
C1428 C1429 1.391 . S
C1429 H1417 0.950 . S
C1429 C1425 1.393 . S
C1429 C1428 1.391 . S
C1430 H1420 0.950 . S
C1430 C1431 1.386 . S
C1430 C1432 1.391 . S
C1431 C1430 1.386 . S
C1431 C1435 1.393 . S
C1432 H1421 0.950 . S
C1432 C1430 1.391 . S
C1432 C1433 1.400 . S
C1433 C1427 1.491 . S
C1433 C1432 1.400 . S
C1433 C1434 1.398 . S
C1434 H1422 0.950 . S
C1434 C1433 1.398 . S
C1434 C1435 1.391 . S
C1435 H1423 0.950 . S
C1435 C1431 1.393 . S
C1435 C1434 1.391 . S
H1436 C1444 0.950 . S
H1437 C1449 0.950 . S
H1438 C1446 0.950 . S
H1439 C1448 0.950 . S
H1440 C1450 0.950 . S
H1441 C1452 0.950 . S
H1442 C1454 0.950 . S
H1443 C1455 0.950 . S
C1444 H1436 0.950 . S
C1444 C1445 1.386 . S
C1444 C1446 1.391 . S
C1445 C1444 1.386 . S
C1445 C1449 1.393 . S
C1446 H1438 0.950 . S
C1446 C1444 1.391 . S
C1446 C1447 1.400 . S
C1447 C1446 1.400 . S
C1447 C1448 1.398 . S
C1447 C1453 1.491 . S
C1448 H1439 0.950 . S
C1448 C1447 1.398 . S
C1448 C1449 1.391 . S
C1449 H1437 0.950 . S
C1449 C1445 1.393 . S
C1449 C1448 1.391 . S
C1450 H1440 0.950 . S
C1450 C1451 1.386 . S
C1450 C1452 1.391 . S
C1451 C1450 1.386 . S
C1451 C1455 1.393 . S
C1452 H1441 0.950 . S
C1452 C1450 1.391 . S
C1452 C1453 1.400 . S
C1453 C1447 1.491 . S
C1453 C1452 1.400 . S
C1453 C1454 1.398 . S
C1454 H1442 0.950 . S
C1454 C1453 1.398 . S
C1454 C1455 1.391 . S
C1455 H1443 0.950 . S
C1455 C1451 1.393 . S
C1455 C1454 1.391 . S
H1456 C1464 0.950 . S
H1457 C1469 0.950 . S
H1458 C1466 0.950 . S
H1459 C1468 0.950 . S
H1460 C1470 0.950 1_556 S
H1461 C1472 0.950 . S
H1462 C1474 0.950 . S
H1463 C1475 0.950 . S
C1464 H1456 0.950 . S
C1464 C1465 1.386 . S
C1464 C1466 1.391 . S
C1465 C1464 1.386 . S
C1465 C1469 1.393 . S
C1466 H1458 0.950 . S
C1466 C1464 1.391 . S
C1466 C1467 1.400 . S
C1467 C1466 1.400 . S
C1467 C1468 1.398 . S
C1467 C1473 1.491 . S
C1468 H1459 0.950 . S
C1468 C1467 1.398 . S
C1468 C1469 1.391 . S
C1469 H1457 0.950 . S
C1469 C1465 1.393 . S
C1469 C1468 1.391 . S
C1470 H1460 0.950 1_554 S
C1470 C1471 1.386 . S
C1470 C1472 1.391 . S
C1471 C1470 1.386 . S
C1471 C1475 1.393 . S
C1472 H1461 0.950 . S
C1472 C1470 1.391 . S
C1472 C1473 1.400 . S
C1473 C1467 1.491 . S
C1473 C1472 1.400 . S
C1473 C1474 1.398 . S
C1474 H1462 0.950 . S
C1474 C1473 1.398 . S
C1474 C1475 1.391 . S
C1475 H1463 0.950 . S
C1475 C1471 1.393 . S
C1475 C1474 1.391 . S
H1476 C1484 0.950 . S
H1477 C1489 0.950 . S
H1478 C1486 0.950 . S
H1479 C1488 0.950 . S
H1480 C1490 0.950 . S
H1481 C1492 0.950 . S
H1482 C1494 0.950 . S
H1483 C1495 0.950 . S
C1484 H1476 0.950 . S
C1484 C1485 1.386 . S
C1484 C1486 1.391 . S
C1485 C1484 1.386 . S
C1485 C1489 1.393 . S
C1486 H1478 0.950 . S
C1486 C1484 1.391 . S
C1486 C1487 1.400 . S
C1487 C1486 1.400 . S
C1487 C1488 1.398 . S
C1487 C1493 1.491 . S
C1488 H1479 0.950 . S
C1488 C1487 1.398 . S
C1488 C1489 1.391 . S
C1489 H1477 0.950 . S
C1489 C1485 1.393 . S
C1489 C1488 1.391 . S
C1490 H1480 0.950 . S
C1490 C1491 1.386 . S
C1490 C1492 1.391 . S
C1491 C1490 1.386 . S
C1491 C1495 1.393 . S
C1492 H1481 0.950 . S
C1492 C1490 1.391 . S
C1492 C1493 1.400 . S
C1493 C1487 1.491 . S
C1493 C1492 1.400 . S
C1493 C1494 1.398 . S
C1494 H1482 0.950 . S
C1494 C1493 1.398 . S
C1494 C1495 1.391 . S
C1495 H1483 0.950 . S
C1495 C1491 1.393 . S
C1495 C1494 1.391 . S
H1496 C1504 0.950 . S
H1497 C1509 0.950 . S
H1498 C1506 0.950 . S
H1499 C1508 0.950 . S
H1500 C1510 0.950 . S
H1501 C1512 0.950 . S
H1502 C1514 0.950 . S
H1503 C1515 0.950 . S
C1504 H1496 0.950 . S
C1504 C1505 1.386 . S
C1504 C1506 1.391 . S
C1505 C1504 1.386 . S
C1505 C1509 1.393 . S
C1506 H1498 0.950 . S
C1506 C1504 1.391 . S
C1506 C1507 1.400 . S
C1507 C1506 1.400 . S
C1507 C1508 1.398 . S
C1507 C1513 1.491 . S
C1508 H1499 0.950 . S
C1508 C1507 1.398 . S
C1508 C1509 1.391 . S
C1509 H1497 0.950 . S
C1509 C1505 1.393 . S
C1509 C1508 1.391 . S
C1510 H1500 0.950 . S
C1510 C1511 1.386 . S
C1510 C1512 1.391 . S
C1511 C1510 1.386 . S
C1511 C1515 1.393 . S
C1512 H1501 0.950 . S
C1512 C1510 1.391 . S
C1512 C1513 1.400 . S
C1513 C1507 1.491 . S
C1513 C1512 1.400 . S
C1513 C1514 1.398 . S
C1514 H1502 0.950 . S
C1514 C1513 1.398 . S
C1514 C1515 1.391 . S
C1515 H1503 0.950 . S
C1515 C1511 1.393 . S
C1515 C1514 1.391 . S
H1516 C1524 0.950 . S
H1517 C1529 0.950 . S
H1518 C1526 0.950 . S
H1519 C1528 0.950 . S
H1520 C1530 0.950 . S
H1521 C1532 0.950 . S
H1522 C1534 0.950 . S
H1523 C1535 0.950 . S
C1524 H1516 0.950 . S
C1524 C1525 1.386 . S
C1524 C1526 1.391 . S
C1525 C1524 1.386 . S
C1525 C1529 1.393 . S
C1526 H1518 0.950 . S
C1526 C1524 1.391 . S
C1526 C1527 1.400 . S
C1527 C1526 1.400 . S
C1527 C1528 1.398 . S
C1527 C1533 1.491 . S
C1528 H1519 0.950 . S
C1528 C1527 1.398 . S
C1528 C1529 1.391 . S
C1529 H1517 0.950 . S
C1529 C1525 1.393 . S
C1529 C1528 1.391 . S
C1530 H1520 0.950 . S
C1530 C1531 1.386 . S
C1530 C1532 1.391 . S
C1531 C1530 1.386 . S
C1531 C1535 1.393 . S
C1532 H1521 0.950 . S
C1532 C1530 1.391 . S
C1532 C1533 1.400 . S
C1533 C1527 1.491 . S
C1533 C1532 1.400 . S
C1533 C1534 1.398 . S
C1534 H1522 0.950 . S
C1534 C1533 1.398 . S
C1534 C1535 1.391 . S
C1535 H1523 0.950 . S
C1535 C1531 1.393 . S
C1535 C1534 1.391 . S
H1536 C1544 0.950 . S
H1537 C1549 0.950 . S
H1538 C1546 0.950 . S
H1539 C1548 0.950 . S
H1540 C1550 0.950 . S
H1541 C1552 0.950 . S
H1542 C1554 0.950 . S
H1543 C1555 0.950 . S
C1544 H1536 0.950 . S
C1544 C1545 1.386 . S
C1544 C1546 1.391 . S
C1545 C1544 1.386 . S
C1545 C1549 1.393 . S
C1546 H1538 0.950 . S
C1546 C1544 1.391 . S
C1546 C1547 1.400 . S
C1547 C1546 1.400 . S
C1547 C1548 1.398 . S
C1547 C1553 1.491 . S
C1548 H1539 0.950 . S
C1548 C1547 1.398 . S
C1548 C1549 1.391 . S
C1549 H1537 0.950 . S
C1549 C1545 1.393 . S
C1549 C1548 1.391 . S
C1550 H1540 0.950 . S
C1550 C1551 1.386 . S
C1550 C1552 1.391 . S
C1551 C1550 1.386 . S
C1551 C1555 1.393 . S
C1552 H1541 0.950 . S
C1552 C1550 1.391 . S
C1552 C1553 1.400 . S
C1553 C1547 1.491 . S
C1553 C1552 1.400 . S
C1553 C1554 1.398 . S
C1554 H1542 0.950 . S
C1554 C1553 1.398 . S
C1554 C1555 1.391 . S
C1555 H1543 0.950 . S
C1555 C1551 1.393 . S
C1555 C1554 1.391 . S
H1556 C1564 0.950 . S
H1557 C1569 0.950 . S
H1558 C1566 0.950 . S
H1559 C1568 0.950 . S
H1560 C1570 0.950 . S
H1561 C1572 0.950 . S
H1562 C1574 0.950 . S
H1563 C1575 0.950 . S
C1564 H1556 0.950 . S
C1564 C1565 1.386 . S
C1564 C1566 1.391 . S
C1565 C1564 1.386 . S
C1565 C1569 1.393 . S
C1566 H1558 0.950 . S
C1566 C1564 1.391 . S
C1566 C1567 1.400 . S
C1567 C1566 1.400 . S
C1567 C1568 1.398 . S
C1567 C1573 1.491 . S
C1568 H1559 0.950 . S
C1568 C1567 1.398 . S
C1568 C1569 1.391 . S
C1569 H1557 0.950 . S
C1569 C1565 1.393 . S
C1569 C1568 1.391 . S
C1570 H1560 0.950 . S
C1570 C1571 1.386 . S
C1570 C1572 1.391 . S
C1571 C1570 1.386 . S
C1571 C1575 1.393 . S
C1572 H1561 0.950 . S
C1572 C1570 1.391 . S
C1572 C1573 1.400 . S
C1573 C1567 1.491 . S
C1573 C1572 1.400 . S
C1573 C1574 1.398 . S
C1574 H1562 0.950 . S
C1574 C1573 1.398 . S
C1574 C1575 1.391 . S
C1575 H1563 0.950 . S
C1575 C1571 1.393 . S
C1575 C1574 1.391 . S
H1576 C1584 0.950 . S
H1577 C1589 0.950 . S
H1578 C1586 0.950 . S
H1579 C1588 0.950 . S
H1580 C1590 0.950 . S
H1581 C1592 0.950 . S
H1582 C1594 0.950 . S
H1583 C1595 0.950 . S
C1584 H1576 0.950 . S
C1584 C1585 1.386 . S
C1584 C1586 1.391 . S
C1585 C1584 1.386 . S
C1585 C1589 1.393 . S
C1586 H1578 0.950 . S
C1586 C1584 1.391 . S
C1586 C1587 1.400 . S
C1587 C1586 1.400 . S
C1587 C1588 1.398 . S
C1587 C1593 1.491 . S
C1588 H1579 0.950 . S
C1588 C1587 1.398 . S
C1588 C1589 1.391 . S
C1589 H1577 0.950 . S
C1589 C1585 1.393 . S
C1589 C1588 1.391 . S
C1590 H1580 0.950 . S
C1590 C1591 1.386 . S
C1590 C1592 1.391 . S
C1591 C1590 1.386 . S
C1591 C1595 1.393 . S
C1592 H1581 0.950 . S
C1592 C1590 1.391 . S
C1592 C1593 1.400 . S
C1593 C1587 1.491 . S
C1593 C1592 1.400 . S
C1593 C1594 1.398 . S
C1594 H1582 0.950 . S
C1594 C1593 1.398 . S
C1594 C1595 1.391 . S
C1595 H1583 0.950 . S
C1595 C1591 1.393 . S
C1595 C1594 1.391 . S
H1596 C1604 0.950 . S
H1597 C1609 0.950 . S
H1598 C1606 0.950 . S
H1599 C1608 0.950 . S
H1600 C1610 0.950 . S
H1601 C1612 0.950 . S
H1602 C1614 0.950 . S
H1603 C1615 0.950 . S
C1604 H1596 0.950 . S
C1604 C1605 1.386 . S
C1604 C1606 1.391 . S
C1605 C1604 1.386 . S
C1605 C1609 1.393 . S
C1606 H1598 0.950 . S
C1606 C1604 1.391 . S
C1606 C1607 1.400 . S
C1607 C1606 1.400 . S
C1607 C1608 1.398 . S
C1607 C1613 1.491 . S
C1608 H1599 0.950 . S
C1608 C1607 1.398 . S
C1608 C1609 1.391 . S
C1609 H1597 0.950 . S
C1609 C1605 1.393 . S
C1609 C1608 1.391 . S
C1610 H1600 0.950 . S
C1610 C1611 1.386 . S
C1610 C1612 1.391 . S
C1611 C1610 1.386 . S
C1611 C1615 1.393 . S
C1612 H1601 0.950 . S
C1612 C1610 1.391 . S
C1612 C1613 1.400 . S
C1613 C1607 1.491 . S
C1613 C1612 1.400 . S
C1613 C1614 1.398 . S
C1614 H1602 0.950 . S
C1614 C1613 1.398 . S
C1614 C1615 1.391 . S
C1615 H1603 0.950 . S
C1615 C1611 1.393 . S
C1615 C1614 1.391 . S
H1616 C1624 0.950 . S
H1617 C1629 0.950 . S
H1618 C1626 0.950 . S
H1619 C1628 0.950 . S
H1620 C1630 0.950 . S
H1621 C1632 0.950 . S
H1622 C1634 0.950 . S
H1623 C1635 0.950 . S
C1624 H1616 0.950 . S
C1624 C1625 1.386 . S
C1624 C1626 1.391 . S
C1625 C1624 1.386 . S
C1625 C1629 1.393 . S
C1626 H1618 0.950 . S
C1626 C1624 1.391 . S
C1626 C1627 1.400 . S
C1627 C1626 1.400 . S
C1627 C1628 1.398 . S
C1627 C1633 1.491 . S
C1628 H1619 0.950 . S
C1628 C1627 1.398 . S
C1628 C1629 1.391 . S
C1629 H1617 0.950 . S
C1629 C1625 1.393 . S
C1629 C1628 1.391 . S
C1630 H1620 0.950 . S
C1630 C1631 1.386 . S
C1630 C1632 1.391 . S
C1631 C1630 1.386 . S
C1631 C1635 1.393 . S
C1632 H1621 0.950 . S
C1632 C1630 1.391 . S
C1632 C1633 1.400 . S
C1633 C1627 1.491 . S
C1633 C1632 1.400 . S
C1633 C1634 1.398 . S
C1634 H1622 0.950 . S
C1634 C1633 1.398 . S
C1634 C1635 1.391 . S
C1635 H1623 0.950 . S
C1635 C1631 1.393 . S
C1635 C1634 1.391 . S
H1636 C1644 0.950 . S
H1637 C1649 0.950 . S
H1638 C1646 0.950 . S
H1639 C1648 0.950 . S
H1640 C1650 0.950 . S
H1641 C1652 0.950 . S
H1642 C1654 0.950 . S
H1643 C1655 0.950 . S
C1644 H1636 0.950 . S
C1644 C1645 1.386 . S
C1644 C1646 1.391 . S
C1645 C1644 1.386 . S
C1645 C1649 1.393 . S
C1646 H1638 0.950 . S
C1646 C1644 1.391 . S
C1646 C1647 1.400 . S
C1647 C1646 1.400 . S
C1647 C1648 1.398 . S
C1647 C1653 1.491 . S
C1648 H1639 0.950 . S
C1648 C1647 1.398 . S
C1648 C1649 1.391 . S
C1649 H1637 0.950 . S
C1649 C1645 1.393 . S
C1649 C1648 1.391 . S
C1650 H1640 0.950 . S
C1650 C1651 1.386 . S
C1650 C1652 1.391 . S
C1651 C1650 1.386 . S
C1651 C1655 1.393 . S
C1652 H1641 0.950 . S
C1652 C1650 1.391 . S
C1652 C1653 1.400 . S
C1653 C1647 1.491 . S
C1653 C1652 1.400 . S
C1653 C1654 1.398 . S
C1654 H1642 0.950 . S
C1654 C1653 1.398 . S
C1654 C1655 1.391 . S
C1655 H1643 0.950 . S
C1655 C1651 1.393 . S
C1655 C1654 1.391 . S
H1656 C1664 0.950 . S
H1657 C1669 0.950 . S
H1658 C1666 0.950 . S
H1659 C1668 0.950 . S
H1660 C1670 0.950 . S
H1661 C1672 0.950 . S
H1662 C1674 0.950 . S
H1663 C1675 0.954 . S
C1664 H1656 0.950 . S
C1664 C1665 1.386 1_655 S
C1664 C1666 1.391 . S
C1665 C1664 1.386 1_455 S
C1665 C1669 1.393 . S
C1666 H1658 0.950 . S
C1666 C1664 1.391 . S
C1666 C1667 1.400 1_655 S
C1667 C1666 1.400 1_455 S
C1667 C1668 1.398 . S
C1667 C1673 1.491 . S
C1668 H1659 0.950 . S
C1668 C1667 1.398 . S
C1668 C1669 1.391 . S
C1669 H1657 0.950 . S
C1669 C1665 1.393 . S
C1669 C1668 1.391 . S
C1670 H1660 0.950 . S
C1670 C1671 1.386 . S
C1670 C1672 1.391 . S
C1671 C1670 1.386 . S
C1671 C1675 1.391 1_456 S
C1672 H1661 0.950 . S
C1672 C1670 1.391 . S
C1672 C1673 1.400 . S
C1673 C1667 1.491 . S
C1673 C1672 1.400 . S
C1673 C1674 1.398 1_455 S
C1674 H1662 0.950 . S
C1674 C1673 1.398 1_655 S
C1674 C1675 1.388 1_556 S
C1675 H1663 0.954 . S
C1675 C1671 1.391 1_654 S
C1675 C1674 1.388 1_554 S
H1676 C1684 0.950 . S
H1677 C1689 0.950 . S
H1678 C1686 0.950 . S
H1679 C1688 0.950 . S
H1680 C1690 0.950 . S
H1681 C1692 0.950 . S
H1682 C1694 0.950 . S
H1683 C1695 0.950 . S
C1684 H1676 0.950 . S
C1684 C1685 1.386 . S
C1684 C1686 1.391 . S
C1685 C1684 1.386 . S
C1685 C1689 1.393 . S
C1686 H1678 0.950 . S
C1686 C1684 1.391 . S
C1686 C1687 1.400 . S
C1687 C1686 1.400 . S
C1687 C1688 1.398 . S
C1687 C1693 1.491 . S
C1688 H1679 0.950 . S
C1688 C1687 1.398 . S
C1688 C1689 1.391 . S
C1689 H1677 0.950 . S
C1689 C1685 1.393 . S
C1689 C1688 1.391 . S
C1690 H1680 0.950 . S
C1690 C1691 1.386 . S
C1690 C1692 1.391 . S
C1691 C1690 1.386 . S
C1691 C1695 1.393 . S
C1692 H1681 0.950 . S
C1692 C1690 1.391 . S
C1692 C1693 1.400 . S
C1693 C1687 1.491 . S
C1693 C1692 1.400 . S
C1693 C1694 1.398 . S
C1694 H1682 0.950 . S
C1694 C1693 1.398 . S
C1694 C1695 1.391 . S
C1695 H1683 0.950 . S
C1695 C1691 1.393 . S
C1695 C1694 1.391 . S
H1696 C1704 0.950 . S
H1697 C1709 0.950 . S
H1698 C1706 0.950 . S
H1699 C1708 0.950 . S
H1700 C1710 0.950 . S
H1701 C1712 0.950 . S
H1702 C1714 0.950 . S
H1703 C1715 0.950 . S
C1704 H1696 0.950 . S
C1704 C1705 1.386 . S
C1704 C1706 1.391 . S
C1705 C1704 1.386 . S
C1705 C1709 1.393 . S
C1706 H1698 0.950 . S
C1706 C1704 1.391 . S
C1706 C1707 1.400 . S
C1707 C1706 1.400 . S
C1707 C1708 1.398 . S
C1707 C1713 1.491 . S
C1708 H1699 0.950 . S
C1708 C1707 1.398 . S
C1708 C1709 1.391 . S
C1709 H1697 0.950 . S
C1709 C1705 1.393 . S
C1709 C1708 1.391 . S
C1710 H1700 0.950 . S
C1710 C1711 1.386 . S
C1710 C1712 1.391 . S
C1711 C1710 1.386 . S
C1711 C1715 1.393 . S
C1712 H1701 0.950 . S
C1712 C1710 1.391 . S
C1712 C1713 1.400 . S
C1713 C1707 1.491 . S
C1713 C1712 1.400 . S
C1713 C1714 1.398 . S
C1714 H1702 0.950 . S
C1714 C1713 1.398 . S
C1714 C1715 1.391 . S
C1715 H1703 0.950 . S
C1715 C1711 1.393 . S
C1715 C1714 1.391 . S
H1716 C1724 0.950 . S
H1717 C1729 0.950 . S
H1718 C1726 0.950 . S
H1719 C1728 0.950 . S
H1720 C1730 0.950 . S
H1721 C1732 0.950 . S
H1722 C1734 0.950 . S
H1723 C1735 0.950 . S
C1724 H1716 0.950 . S
C1724 C1725 1.386 . S
C1724 C1726 1.391 . S
C1725 C1724 1.386 . S
C1725 C1729 1.393 . S
C1726 H1718 0.950 . S
C1726 C1724 1.391 . S
C1726 C1727 1.400 . S
C1727 C1726 1.400 . S
C1727 C1728 1.398 . S
C1727 C1733 1.491 . S
C1728 H1719 0.950 . S
C1728 C1727 1.398 . S
C1728 C1729 1.391 . S
C1729 H1717 0.950 . S
C1729 C1725 1.393 . S
C1729 C1728 1.391 . S
C1730 H1720 0.950 . S
C1730 C1731 1.386 . S
C1730 C1732 1.391 . S
C1731 C1730 1.386 . S
C1731 C1735 1.393 . S
C1732 H1721 0.950 . S
C1732 C1730 1.391 . S
C1732 C1733 1.400 . S
C1733 C1727 1.491 . S
C1733 C1732 1.400 . S
C1733 C1734 1.398 . S
C1734 H1722 0.950 . S
C1734 C1733 1.398 . S
C1734 C1735 1.391 . S
C1735 H1723 0.950 . S
C1735 C1731 1.393 . S
C1735 C1734 1.391 . S
H1736 C1744 0.950 . S
H1737 C1749 0.950 . S
H1738 C1746 0.950 . S
H1739 C1748 0.950 . S
H1740 C1750 0.950 . S
H1741 C1752 0.950 . S
H1742 C1754 0.950 . S
H1743 C1755 0.950 . S
C1744 H1736 0.950 . S
C1744 C1745 1.386 1_455 S
C1744 C1746 1.391 . S
C1745 C1744 1.386 1_655 S
C1745 C1749 1.393 . S
C1746 H1738 0.950 . S
C1746 C1744 1.391 . S
C1746 C1747 1.431 . S
C1747 C1746 1.431 . S
C1747 C1748 1.353 1_455 S
C1747 C1753 1.505 . S
C1748 H1739 0.950 . S
C1748 C1747 1.353 1_655 S
C1748 C1749 1.391 . S
C1749 H1737 0.950 . S
C1749 C1745 1.393 . S
C1749 C1748 1.391 . S
C1750 H1740 0.950 . S
C1750 C1751 1.386 1_655 S
C1750 C1752 1.391 . S
C1751 C1750 1.386 1_455 S
C1751 C1755 1.393 . S
C1752 H1741 0.950 . S
C1752 C1750 1.391 . S
C1752 C1753 1.400 1_655 S
C1753 C1747 1.505 . S
C1753 C1752 1.400 1_455 S
C1753 C1754 1.398 . S
C1754 H1742 0.950 . S
C1754 C1753 1.398 . S
C1754 C1755 1.391 . S
C1755 H1743 0.950 . S
C1755 C1751 1.393 . S
C1755 C1754 1.391 . S
H1756 C1764 0.950 . S
H1757 C1769 0.950 . S
H1758 C1766 0.950 . S
H1759 C1768 0.950 . S
H1760 C1770 0.950 . S
H1761 C1772 0.950 . S
H1762 C1774 0.950 . S
H1763 C1775 0.950 . S
C1764 H1756 0.950 . S
C1764 C1765 1.386 . S
C1764 C1766 1.391 . S
C1765 C1764 1.386 . S
C1765 C1769 1.393 . S
C1766 H1758 0.950 . S
C1766 C1764 1.391 . S
C1766 C1767 1.400 . S
C1767 C1766 1.400 . S
C1767 C1768 1.398 . S
C1767 C1773 1.491 . S
C1768 H1759 0.950 . S
C1768 C1767 1.398 . S
C1768 C1769 1.391 . S
C1769 H1757 0.950 . S
C1769 C1765 1.393 . S
C1769 C1768 1.391 . S
C1770 H1760 0.950 . S
C1770 C1771 1.386 . S
C1770 C1772 1.391 . S
C1771 C1770 1.386 . S
C1771 C1775 1.393 . S
C1772 H1761 0.950 . S
C1772 C1770 1.391 . S
C1772 C1773 1.400 . S
C1773 C1767 1.491 . S
C1773 C1772 1.400 . S
C1773 C1774 1.398 . S
C1774 H1762 0.950 . S
C1774 C1773 1.398 . S
C1774 C1775 1.391 . S
C1775 H1763 0.950 . S
C1775 C1771 1.393 . S
C1775 C1774 1.391 . S
H1776 C1784 0.950 . S
H1777 C1789 0.950 . S
H1778 C1786 0.950 . S
H1779 C1788 0.950 . S
H1780 C1790 0.950 . S
H1781 C1792 0.950 . S
H1782 C1794 0.950 . S
H1783 C1795 0.950 . S
C1784 H1776 0.950 . S
C1784 C1785 1.386 . S
C1784 C1786 1.391 . S
C1785 C1784 1.386 . S
C1785 C1789 1.393 . S
C1786 H1778 0.950 . S
C1786 C1784 1.391 . S
C1786 C1787 1.400 . S
C1787 C1786 1.400 . S
C1787 C1788 1.398 . S
C1787 C1793 1.491 . S
C1788 H1779 0.950 . S
C1788 C1787 1.398 . S
C1788 C1789 1.391 . S
C1789 H1777 0.950 . S
C1789 C1785 1.393 . S
C1789 C1788 1.391 . S
C1790 H1780 0.950 . S
C1790 C1791 1.386 . S
C1790 C1792 1.391 . S
C1791 C1790 1.386 . S
C1791 C1795 1.393 . S
C1792 H1781 0.950 . S
C1792 C1790 1.391 . S
C1792 C1793 1.400 . S
C1793 C1787 1.491 . S
C1793 C1792 1.400 . S
C1793 C1794 1.398 . S
C1794 H1782 0.950 . S
C1794 C1793 1.398 . S
C1794 C1795 1.391 . S
C1795 H1783 0.950 . S
C1795 C1791 1.393 . S
C1795 C1794 1.391 . S
H1796 C1804 0.950 . S
H1797 C1809 0.950 . S
H1798 C1806 0.950 . S
H1799 C1808 0.950 . S
H1800 C1810 0.950 . S
H1801 C1812 0.950 . S
H1802 C1814 0.950 . S
H1803 C1815 0.950 . S
C1804 H1796 0.950 . S
C1804 C1805 1.386 . S
C1804 C1806 1.391 . S
C1805 C1804 1.386 . S
C1805 C1809 1.393 . S
C1806 H1798 0.950 . S
C1806 C1804 1.391 . S
C1806 C1807 1.400 . S
C1807 C1806 1.400 . S
C1807 C1808 1.398 . S
C1807 C1813 1.491 . S
C1808 H1799 0.950 . S
C1808 C1807 1.398 . S
C1808 C1809 1.391 . S
C1809 H1797 0.950 . S
C1809 C1805 1.393 . S
C1809 C1808 1.391 . S
C1810 H1800 0.950 . S
C1810 C1811 1.386 . S
C1810 C1812 1.391 . S
C1811 C1810 1.386 . S
C1811 C1815 1.393 . S
C1812 H1801 0.950 . S
C1812 C1810 1.391 . S
C1812 C1813 1.400 . S
C1813 C1807 1.491 . S
C1813 C1812 1.400 . S
C1813 C1814 1.398 . S
C1814 H1802 0.950 . S
C1814 C1813 1.398 . S
C1814 C1815 1.391 . S
C1815 H1803 0.950 . S
C1815 C1811 1.393 . S
C1815 C1814 1.391 . S
H1816 C1824 0.950 . S
H1817 C1829 0.950 . S
H1818 C1826 0.950 . S
H1819 C1828 0.950 . S
H1820 C1830 0.950 . S
H1821 C1832 0.950 . S
H1822 C1834 0.950 . S
H1823 C1835 0.950 . S
C1824 H1816 0.950 . S
C1824 C1825 1.386 . S
C1824 C1826 1.391 . S
C1825 C1824 1.386 . S
C1825 C1829 1.393 . S
C1826 H1818 0.950 . S
C1826 C1824 1.391 . S
C1826 C1827 1.400 . S
C1827 C1826 1.400 . S
C1827 C1828 1.398 . S
C1827 C1833 1.491 . S
C1828 H1819 0.950 . S
C1828 C1827 1.398 . S
C1828 C1829 1.391 . S
C1829 H1817 0.950 . S
C1829 C1825 1.393 . S
C1829 C1828 1.391 . S
C1830 H1820 0.950 . S
C1830 C1831 1.386 . S
C1830 C1832 1.391 . S
C1831 C1830 1.386 . S
C1831 C1835 1.393 . S
C1832 H1821 0.950 . S
C1832 C1830 1.391 . S
C1832 C1833 1.400 . S
C1833 C1827 1.491 . S
C1833 C1832 1.400 . S
C1833 C1834 1.398 . S
C1834 H1822 0.950 . S
C1834 C1833 1.398 . S
C1834 C1835 1.391 . S
C1835 H1823 0.950 . S
C1835 C1831 1.393 . S
C1835 C1834 1.391 . S
H1836 C1844 0.950 . S
H1837 C1849 0.950 . S
H1838 C1846 0.950 . S
H1839 C1848 0.950 . S
H1840 C1850 0.950 . S
H1841 C1852 0.950 . S
H1842 C1854 0.950 . S
H1843 C1855 0.950 . S
C1844 H1836 0.950 . S
C1844 C1845 1.386 . S
C1844 C1846 1.391 . S
C1845 C1844 1.386 . S
C1845 C1849 1.393 . S
C1846 H1838 0.950 . S
C1846 C1844 1.391 . S
C1846 C1847 1.400 . S
C1847 C1846 1.400 . S
C1847 C1848 1.398 . S
C1847 C1853 1.491 . S
C1848 H1839 0.950 . S
C1848 C1847 1.398 . S
C1848 C1849 1.391 . S
C1849 H1837 0.950 . S
C1849 C1845 1.393 . S
C1849 C1848 1.391 . S
C1850 H1840 0.950 . S
C1850 C1851 1.386 . S
C1850 C1852 1.391 . S
C1851 C1850 1.386 . S
C1851 C1855 1.393 . S
C1852 H1841 0.950 . S
C1852 C1850 1.391 . S
C1852 C1853 1.400 . S
C1853 C1847 1.491 . S
C1853 C1852 1.400 . S
C1853 C1854 1.398 . S
C1854 H1842 0.950 . S
C1854 C1853 1.398 . S
C1854 C1855 1.391 . S
C1855 H1843 0.950 . S
C1855 C1851 1.393 . S
C1855 C1854 1.391 . S
H1856 C1864 0.950 . S
H1857 C1869 0.950 . S
H1858 C1866 0.950 . S
H1859 C1868 0.950 . S
H1860 C1870 0.950 . S
H1861 C1872 0.950 . S
H1862 C1874 0.950 . S
H1863 C1875 0.950 . S
C1864 H1856 0.950 . S
C1864 C1865 1.386 . S
C1864 C1866 1.391 . S
C1865 C1864 1.386 . S
C1865 C1869 1.393 . S
C1866 H1858 0.950 . S
C1866 C1864 1.391 . S
C1866 C1867 1.400 . S
C1867 C1866 1.400 . S
C1867 C1868 1.398 . S
C1867 C1873 1.491 . S
C1868 H1859 0.950 . S
C1868 C1867 1.398 . S
C1868 C1869 1.391 . S
C1869 H1857 0.950 . S
C1869 C1865 1.393 . S
C1869 C1868 1.391 . S
C1870 H1860 0.950 . S
C1870 C1871 1.386 . S
C1870 C1872 1.391 . S
C1871 C1870 1.386 . S
C1871 C1875 1.393 . S
C1872 H1861 0.950 . S
C1872 C1870 1.391 . S
C1872 C1873 1.400 . S
C1873 C1867 1.491 . S
C1873 C1872 1.400 . S
C1873 C1874 1.398 . S
C1874 H1862 0.950 . S
C1874 C1873 1.398 . S
C1874 C1875 1.391 . S
C1875 H1863 0.950 . S
C1875 C1871 1.393 . S
C1875 C1874 1.391 . S
H1876 C1884 0.950 . S
H1877 C1889 0.950 . S
H1878 C1886 0.950 . S
H1879 C1888 0.950 . S
H1880 C1890 0.950 . S
H1881 C1892 0.950 . S
H1882 C1894 0.950 . S
H1883 C1895 0.950 . S
C1884 H1876 0.950 . S
C1884 C1885 1.386 . S
C1884 C1886 1.391 . S
C1885 C1884 1.386 . S
C1885 C1889 1.393 . S
C1886 H1878 0.950 . S
C1886 C1884 1.391 . S
C1886 C1887 1.400 . S
C1887 C1886 1.400 . S
C1887 C1888 1.398 . S
C1887 C1893 1.491 . S
C1888 H1879 0.950 . S
C1888 C1887 1.398 . S
C1888 C1889 1.391 . S
C1889 H1877 0.950 . S
C1889 C1885 1.393 . S
C1889 C1888 1.391 . S
C1890 H1880 0.950 . S
C1890 C1891 1.386 . S
C1890 C1892 1.391 . S
C1891 C1890 1.386 . S
C1891 C1895 1.393 . S
C1892 H1881 0.950 . S
C1892 C1890 1.391 . S
C1892 C1893 1.400 . S
C1893 C1887 1.491 . S
C1893 C1892 1.400 . S
C1893 C1894 1.398 . S
C1894 H1882 0.950 . S
C1894 C1893 1.398 . S
C1894 C1895 1.391 . S
C1895 H1883 0.950 . S
C1895 C1891 1.393 . S
C1895 C1894 1.391 . S
H1896 C1904 0.950 . S
H1897 C1909 0.950 . S
H1898 C1906 0.950 . S
H1899 C1908 0.950 . S
H1900 C1910 0.950 . S
H1901 C1912 0.950 . S
H1902 C1914 0.950 . S
H1903 C1915 0.950 . S
C1904 H1896 0.950 . S
C1904 C1905 1.386 . S
C1904 C1906 1.391 . S
C1905 C1904 1.386 . S
C1905 C1909 1.393 . S
C1906 H1898 0.950 . S
C1906 C1904 1.391 . S
C1906 C1907 1.400 . S
C1907 C1906 1.400 . S
C1907 C1908 1.398 . S
C1907 C1913 1.491 . S
C1908 H1899 0.950 . S
C1908 C1907 1.398 . S
C1908 C1909 1.391 . S
C1909 H1897 0.950 . S
C1909 C1905 1.393 . S
C1909 C1908 1.391 . S
C1910 H1900 0.950 . S
C1910 C1911 1.386 . S
C1910 C1912 1.391 . S
C1911 C1910 1.386 . S
C1911 C1915 1.393 . S
C1912 H1901 0.950 . S
C1912 C1910 1.391 . S
C1912 C1913 1.400 . S
C1913 C1907 1.491 . S
C1913 C1912 1.400 . S
C1913 C1914 1.398 . S
C1914 H1902 0.950 . S
C1914 C1913 1.398 . S
C1914 C1915 1.391 . S
C1915 H1903 0.950 . S
C1915 C1911 1.393 . S
C1915 C1914 1.391 . S
H1916 C1924 0.950 . S
H1917 C1929 0.950 . S
H1918 C1926 0.950 . S
H1919 C1928 0.950 . S
H1920 C1930 0.950 . S
H1921 C1932 0.950 . S
H1922 C1934 0.950 . S
H1923 C1935 0.950 . S
C1924 H1916 0.950 . S
C1924 C1925 1.386 . S
C1924 C1926 1.391 . S
C1925 C1924 1.386 . S
C1925 C1929 1.393 . S
C1926 H1918 0.950 . S
C1926 C1924 1.391 . S
C1926 C1927 1.400 . S
C1927 C1926 1.400 . S
C1927 C1928 1.398 . S
C1927 C1933 1.491 . S
C1928 H1919 0.950 . S
C1928 C1927 1.398 . S
C1928 C1929 1.391 . S
C1929 H1917 0.950 . S
C1929 C1925 1.393 . S
C1929 C1928 1.391 . S
C1930 H1920 0.950 . S
C1930 C1931 1.386 . S
C1930 C1932 1.391 . S
C1931 C1930 1.386 . S
C1931 C1935 1.393 . S
C1932 H1921 0.950 . S
C1932 C1930 1.391 . S
C1932 C1933 1.400 . S
C1933 C1927 1.491 . S
C1933 C1932 1.400 . S
C1933 C1934 1.398 . S
C1934 H1922 0.950 . S
C1934 C1933 1.398 . S
C1934 C1935 1.391 . S
C1935 H1923 0.950 . S
C1935 C1931 1.393 . S
C1935 C1934 1.391 . S
H1936 C1944 0.950 . S
H1937 C1949 0.950 . S
H1938 C1946 0.950 . S
H1939 C1948 0.950 . S
H1940 C1950 0.950 . S
H1941 C1952 0.950 . S
H1942 C1954 0.950 . S
H1943 C1955 0.950 . S
C1944 H1936 0.950 . S
C1944 C1945 1.386 . S
C1944 C1946 1.391 . S
C1945 C1944 1.386 . S
C1945 C1949 1.393 . S
C1946 H1938 0.950 . S
C1946 C1944 1.391 . S
C1946 C1947 1.400 . S
C1947 C1946 1.400 . S
C1947 C1948 1.398 . S
C1947 C1953 1.491 . S
C1948 H1939 0.950 . S
C1948 C1947 1.398 . S
C1948 C1949 1.391 . S
C1949 H1937 0.950 . S
C1949 C1945 1.393 . S
C1949 C1948 1.391 . S
C1950 H1940 0.950 . S
C1950 C1951 1.386 . S
C1950 C1952 1.391 . S
C1951 C1950 1.386 . S
C1951 C1955 1.393 . S
C1952 H1941 0.950 . S
C1952 C1950 1.391 . S
C1952 C1953 1.400 . S
C1953 C1947 1.491 . S
C1953 C1952 1.400 . S
C1953 C1954 1.398 . S
C1954 H1942 0.950 . S
C1954 C1953 1.398 . S
C1954 C1955 1.391 . S
C1955 H1943 0.950 . S
C1955 C1951 1.393 . S
C1955 C1954 1.391 . S
H1956 C1964 0.950 . S
H1957 C1969 0.950 . S
H1958 C1966 0.950 . S
H1959 C1968 0.950 . S
H1960 C1970 0.950 . S
H1961 C1972 0.950 . S
H1962 C1974 0.950 . S
H1963 C1975 0.950 . S
C1964 H1956 0.950 . S
C1964 C1965 1.386 . S
C1964 C1966 1.391 . S
C1965 C1964 1.386 . S
C1965 C1969 1.393 . S
C1966 H1958 0.950 . S
C1966 C1964 1.391 . S
C1966 C1967 1.400 . S
C1967 C1966 1.400 . S
C1967 C1968 1.398 . S
C1967 C1973 1.491 . S
C1968 H1959 0.950 . S
C1968 C1967 1.398 . S
C1968 C1969 1.391 . S
C1969 H1957 0.950 . S
C1969 C1965 1.393 . S
C1969 C1968 1.391 . S
C1970 H1960 0.950 . S
C1970 C1971 1.386 . S
C1970 C1972 1.391 . S
C1971 C1970 1.386 . S
C1971 C1975 1.393 . S
C1972 H1961 0.950 . S
C1972 C1970 1.391 . S
C1972 C1973 1.400 . S
C1973 C1967 1.491 . S
C1973 C1972 1.400 . S
C1973 C1974 1.398 . S
C1974 H1962 0.950 . S
C1974 C1973 1.398 . S
C1974 C1975 1.391 . S
C1975 H1963 0.950 . S
C1975 C1971 1.393 . S
C1975 C1974 1.391 . S
H1976 C1984 0.950 . S
H1977 C1989 0.950 . S
H1978 C1986 0.950 . S
H1979 C1988 0.950 . S
H1980 C1990 0.950 . S
H1981 C1992 0.950 . S
H1982 C1994 0.950 . S
H1983 C1995 0.950 . S
C1984 H1976 0.950 . S
C1984 C1985 1.386 . S
C1984 C1986 1.391 . S
C1985 C1984 1.386 . S
C1985 C1989 1.393 . S
C1986 H1978 0.950 . S
C1986 C1984 1.391 . S
C1986 C1987 1.400 . S
C1987 C1986 1.400 . S
C1987 C1988 1.398 . S
C1987 C1993 1.491 . S
C1988 H1979 0.950 . S
C1988 C1987 1.398 . S
C1988 C1989 1.391 . S
C1989 H1977 0.950 . S
C1989 C1985 1.393 . S
C1989 C1988 1.391 . S
C1990 H1980 0.950 . S
C1990 C1991 1.386 . S
C1990 C1992 1.391 . S
C1991 C1990 1.386 . S
C1991 C1995 1.393 . S
C1992 H1981 0.950 . S
C1992 C1990 1.391 . S
C1992 C1993 1.400 . S
C1993 C1987 1.491 . S
C1993 C1992 1.400 . S
C1993 C1994 1.398 . S
C1994 H1982 0.950 . S
C1994 C1993 1.398 . S
C1994 C1995 1.391 . S
C1995 H1983 0.950 . S
C1995 C1991 1.393 . S
C1995 C1994 1.391 . S
H1996 C2004 0.950 1_556 S
H1997 C2009 0.950 . S
H1998 C2006 0.948 1_556 S
H1999 C2008 0.950 . S
H2000 C2010 0.950 1_545 S
H2001 C2012 0.950 . S
H2002 C2014 0.950 . S
H2003 C2015 0.950 . S
C2004 H1996 0.950 1_554 S
C2004 C2005 1.386 . S
C2004 C2006 1.392 . S
C2005 C2004 1.386 . S
C2005 C2009 1.393 . S
C2006 H1998 0.948 1_554 S
C2006 C2004 1.392 . S
C2006 C2007 1.401 . S
C2007 C2006 1.401 . S
C2007 C2008 1.398 . S
C2007 C2013 1.491 . S
C2008 H1999 0.950 . S
C2008 C2007 1.398 . S
C2008 C2009 1.391 . S
C2009 H1997 0.950 . S
C2009 C2005 1.393 . S
C2009 C2008 1.391 . S
C2010 H2000 0.950 1_565 S
C2010 C2011 1.386 . S
C2010 C2012 1.391 . S
C2011 C2010 1.386 . S
C2011 C2015 1.393 1_554 S
C2012 H2001 0.950 . S
C2012 C2010 1.391 . S
C2012 C2013 1.400 . S
C2013 C2007 1.491 . S
C2013 C2012 1.400 . S
C2013 C2014 1.398 1_554 S
C2014 H2002 0.950 . S
C2014 C2013 1.398 1_556 S
C2014 C2015 1.391 . S
C2015 H2003 0.950 . S
C2015 C2011 1.393 1_556 S
C2015 C2014 1.391 . S
H2016 C2024 0.950 . S
H2017 C2029 0.950 . S
H2018 C2026 0.950 . S
H2019 C2028 0.950 . S
H2020 C2030 0.950 . S
H2021 C2032 0.950 . S
H2022 C2034 0.950 . S
H2023 C2035 0.950 . S
C2024 H2016 0.950 . S
C2024 C2025 1.386 . S
C2024 C2026 1.391 . S
C2025 C2024 1.386 . S
C2025 C2029 1.393 . S
C2026 H2018 0.950 . S
C2026 C2024 1.391 . S
C2026 C2027 1.400 . S
C2027 C2026 1.400 . S
C2027 C2028 1.398 . S
C2027 C2033 1.491 . S
C2028 H2019 0.950 . S
C2028 C2027 1.398 . S
C2028 C2029 1.391 . S
C2029 H2017 0.950 . S
C2029 C2025 1.393 . S
C2029 C2028 1.391 . S
C2030 H2020 0.950 . S
C2030 C2031 1.386 . S
C2030 C2032 1.391 . S
C2031 C2030 1.386 . S
C2031 C2035 1.393 . S
C2032 H2021 0.950 . S
C2032 C2030 1.391 . S
C2032 C2033 1.400 . S
C2033 C2027 1.491 . S
C2033 C2032 1.400 . S
C2033 C2034 1.398 . S
C2034 H2022 0.950 . S
C2034 C2033 1.398 . S
C2034 C2035 1.391 . S
C2035 H2023 0.950 . S
C2035 C2031 1.393 . S
C2035 C2034 1.391 . S
H2036 C2044 0.950 . S
H2037 C2049 0.950 . S
H2038 C2046 0.950 1_556 S
H2039 C2048 0.950 . S
H2040 C2050 0.950 . S
H2041 C2052 0.950 . S
H2042 C2054 0.950 . S
H2043 C2055 0.950 . S
C2044 H2036 0.950 . S
C2044 C2045 1.386 1_556 S
C2044 C2046 1.391 1_556 S
C2045 C2044 1.386 1_554 S
C2045 C2049 1.393 . S
C2046 H2038 0.950 1_554 S
C2046 C2044 1.391 1_554 S
C2046 C2047 1.400 . S
C2047 C2046 1.400 . S
C2047 C2048 1.398 . S
C2047 C2053 1.491 . S
C2048 H2039 0.950 . S
C2048 C2047 1.398 . S
C2048 C2049 1.391 . S
C2049 H2037 0.950 . S
C2049 C2045 1.393 . S
C2049 C2048 1.391 . S
C2050 H2040 0.950 . S
C2050 C2051 1.386 . S
C2050 C2052 1.391 . S
C2051 C2050 1.386 . S
C2051 C2055 1.393 . S
C2052 H2041 0.950 . S
C2052 C2050 1.391 . S
C2052 C2053 1.400 . S
C2053 C2047 1.491 . S
C2053 C2052 1.400 . S
C2053 C2054 1.398 . S
C2054 H2042 0.950 . S
C2054 C2053 1.398 . S
C2054 C2055 1.391 . S
C2055 H2043 0.950 . S
C2055 C2051 1.393 . S
C2055 C2054 1.391 . S
H2056 C2064 0.950 . S
H2057 C2069 0.950 . S
H2058 C2066 0.950 . S
H2059 C2068 0.950 . S
H2060 C2070 0.950 . S
H2061 C2072 0.950 . S
H2062 C2074 0.950 . S
H2063 C2075 0.950 . S
C2064 H2056 0.950 . S
C2064 C2065 1.386 . S
C2064 C2066 1.391 . S
C2065 C2064 1.386 . S
C2065 C2069 1.393 . S
C2066 H2058 0.950 . S
C2066 C2064 1.391 . S
C2066 C2067 1.400 . S
C2067 C2066 1.400 . S
C2067 C2068 1.398 . S
C2067 C2073 1.491 . S
C2068 H2059 0.950 . S
C2068 C2067 1.398 . S
C2068 C2069 1.391 . S
C2069 H2057 0.950 . S
C2069 C2065 1.393 . S
C2069 C2068 1.391 . S
C2070 H2060 0.950 . S
C2070 C2071 1.386 . S
C2070 C2072 1.391 . S
C2071 C2070 1.386 . S
C2071 C2075 1.393 . S
C2072 H2061 0.950 . S
C2072 C2070 1.391 . S
C2072 C2073 1.400 . S
C2073 C2067 1.491 . S
C2073 C2072 1.400 . S
C2073 C2074 1.398 . S
C2074 H2062 0.950 . S
C2074 C2073 1.398 . S
C2074 C2075 1.391 . S
C2075 H2063 0.950 . S
C2075 C2071 1.393 . S
C2075 C2074 1.391 . S
H2076 C2084 0.950 . S
H2077 C2089 0.950 . S
H2078 C2086 0.950 . S
H2079 C2088 0.950 . S
H2080 C2090 0.950 . S
H2081 C2092 0.950 . S
H2082 C2094 0.950 . S
H2083 C2095 0.950 . S
C2084 H2076 0.950 . S
C2084 C2085 1.386 . S
C2084 C2086 1.391 . S
C2085 C2084 1.386 . S
C2085 C2089 1.393 . S
C2086 H2078 0.950 . S
C2086 C2084 1.391 . S
C2086 C2087 1.400 . S
C2087 C2086 1.400 . S
C2087 C2088 1.398 . S
C2087 C2093 1.491 . S
C2088 H2079 0.950 . S
C2088 C2087 1.398 . S
C2088 C2089 1.391 . S
C2089 H2077 0.950 . S
C2089 C2085 1.393 . S
C2089 C2088 1.391 . S
C2090 H2080 0.950 . S
C2090 C2091 1.386 . S
C2090 C2092 1.391 . S
C2091 C2090 1.386 . S
C2091 C2095 1.393 . S
C2092 H2081 0.950 . S
C2092 C2090 1.391 . S
C2092 C2093 1.400 . S
C2093 C2087 1.491 . S
C2093 C2092 1.400 . S
C2093 C2094 1.398 . S
C2094 H2082 0.950 . S
C2094 C2093 1.398 . S
C2094 C2095 1.391 . S
C2095 H2083 0.950 . S
C2095 C2091 1.393 . S
C2095 C2094 1.391 . S
H2096 C2104 0.950 . S
H2097 C2109 0.950 . S
H2098 C2106 0.950 . S
H2099 C2108 0.950 . S
H2100 C2110 0.950 . S
H2101 C2112 0.950 . S
H2102 C2114 0.950 . S
H2103 C2115 0.950 . S
C2104 H2096 0.950 . S
C2104 C2105 1.386 . S
C2104 C2106 1.391 . S
C2105 C2104 1.386 . S
C2105 C2109 1.393 . S
C2106 H2098 0.950 . S
C2106 C2104 1.391 . S
C2106 C2107 1.400 . S
C2107 C2106 1.400 . S
C2107 C2108 1.398 . S
C2107 C2113 1.491 . S
C2108 H2099 0.950 . S
C2108 C2107 1.398 . S
C2108 C2109 1.391 . S
C2109 H2097 0.950 . S
C2109 C2105 1.393 . S
C2109 C2108 1.391 . S
C2110 H2100 0.950 . S
C2110 C2111 1.386 . S
C2110 C2112 1.391 . S
C2111 C2110 1.386 . S
C2111 C2115 1.393 . S
C2112 H2101 0.950 . S
C2112 C2110 1.391 . S
C2112 C2113 1.400 . S
C2113 C2107 1.491 . S
C2113 C2112 1.400 . S
C2113 C2114 1.398 . S
C2114 H2102 0.950 . S
C2114 C2113 1.398 . S
C2114 C2115 1.391 . S
C2115 H2103 0.950 . S
C2115 C2111 1.393 . S
C2115 C2114 1.391 . S
H2116 C2124 0.950 . S
H2117 C2129 0.950 . S
H2118 C2126 0.950 . S
H2119 C2128 0.950 . S
H2120 C2130 0.950 . S
H2121 C2132 0.950 . S
H2122 C2134 0.950 . S
H2123 C2135 0.950 . S
C2124 H2116 0.950 . S
C2124 C2125 1.386 . S
C2124 C2126 1.391 . S
C2125 C2124 1.386 . S
C2125 C2129 1.393 . S
C2126 H2118 0.950 . S
C2126 C2124 1.391 . S
C2126 C2127 1.400 . S
C2127 C2126 1.400 . S
C2127 C2128 1.398 . S
C2127 C2133 1.491 . S
C2128 H2119 0.950 . S
C2128 C2127 1.398 . S
C2128 C2129 1.391 . S
C2129 H2117 0.950 . S
C2129 C2125 1.393 . S
C2129 C2128 1.391 . S
C2130 H2120 0.950 . S
C2130 C2131 1.386 . S
C2130 C2132 1.391 . S
C2131 C2130 1.386 . S
C2131 C2135 1.393 . S
C2132 H2121 0.950 . S
C2132 C2130 1.391 . S
C2132 C2133 1.400 . S
C2133 C2127 1.491 . S
C2133 C2132 1.400 . S
C2133 C2134 1.398 . S
C2134 H2122 0.950 . S
C2134 C2133 1.398 . S
C2134 C2135 1.391 . S
C2135 H2123 0.950 . S
C2135 C2131 1.393 . S
C2135 C2134 1.391 . S
H2136 C2144 0.950 . S
H2137 C2149 0.950 . S
H2138 C2146 0.950 . S
H2139 C2148 0.950 . S
H2140 C2150 0.950 . S
H2141 C2152 0.950 . S
H2142 C2154 0.950 . S
H2143 C2155 0.950 . S
C2144 H2136 0.950 . S
C2144 C2145 1.386 . S
C2144 C2146 1.391 . S
C2145 C2144 1.386 . S
C2145 C2149 1.393 . S
C2146 H2138 0.950 . S
C2146 C2144 1.391 . S
C2146 C2147 1.400 . S
C2147 C2146 1.400 . S
C2147 C2148 1.398 . S
C2147 C2153 1.491 . S
C2148 H2139 0.950 . S
C2148 C2147 1.398 . S
C2148 C2149 1.391 . S
C2149 H2137 0.950 . S
C2149 C2145 1.393 . S
C2149 C2148 1.391 . S
C2150 H2140 0.950 . S
C2150 C2151 1.386 . S
C2150 C2152 1.391 . S
C2151 C2150 1.386 . S
C2151 C2155 1.393 . S
C2152 H2141 0.950 . S
C2152 C2150 1.391 . S
C2152 C2153 1.400 . S
C2153 C2147 1.491 . S
C2153 C2152 1.400 . S
C2153 C2154 1.398 . S
C2154 H2142 0.950 . S
C2154 C2153 1.398 . S
C2154 C2155 1.391 . S
C2155 H2143 0.950 . S
C2155 C2151 1.393 . S
C2155 C2154 1.391 . S
H2156 C2164 0.950 . S
H2157 C2169 0.950 . S
H2158 C2166 0.950 . S
H2159 C2168 0.950 . S
H2160 C2170 0.950 . S
H2161 C2172 0.950 . S
H2162 C2174 0.950 . S
H2163 C2175 0.950 . S
C2164 H2156 0.950 . S
C2164 C2165 1.386 . S
C2164 C2166 1.391 . S
C2165 C2164 1.386 . S
C2165 C2169 1.393 . S
C2166 H2158 0.950 . S
C2166 C2164 1.391 . S
C2166 C2167 1.400 . S
C2167 C2166 1.400 . S
C2167 C2168 1.398 . S
C2167 C2173 1.491 . S
C2168 H2159 0.950 . S
C2168 C2167 1.398 . S
C2168 C2169 1.391 . S
C2169 H2157 0.950 . S
C2169 C2165 1.393 . S
C2169 C2168 1.391 . S
C2170 H2160 0.950 . S
C2170 C2171 1.386 . S
C2170 C2172 1.391 . S
C2171 C2170 1.386 . S
C2171 C2175 1.393 . S
C2172 H2161 0.950 . S
C2172 C2170 1.391 . S
C2172 C2173 1.400 . S
C2173 C2167 1.491 . S
C2173 C2172 1.400 . S
C2173 C2174 1.398 . S
C2174 H2162 0.950 . S
C2174 C2173 1.398 . S
C2174 C2175 1.391 . S
C2175 H2163 0.950 . S
C2175 C2171 1.393 . S
C2175 C2174 1.391 . S
H2176 C2184 0.950 . S
H2177 C2189 0.950 . S
H2178 C2186 0.950 . S
H2179 C2188 0.950 . S
H2180 C2190 0.950 . S
H2181 C2192 0.950 . S
H2182 C2194 0.950 . S
H2183 C2195 0.950 . S
C2184 H2176 0.950 . S
C2184 C2185 1.386 . S
C2184 C2186 1.391 . S
C2185 C2184 1.386 . S
C2185 C2189 1.393 . S
C2186 H2178 0.950 . S
C2186 C2184 1.391 . S
C2186 C2187 1.400 . S
C2187 C2186 1.400 . S
C2187 C2188 1.398 . S
C2187 C2193 1.491 . S
C2188 H2179 0.950 . S
C2188 C2187 1.398 . S
C2188 C2189 1.391 . S
C2189 H2177 0.950 . S
C2189 C2185 1.393 . S
C2189 C2188 1.391 . S
C2190 H2180 0.950 . S
C2190 C2191 1.386 . S
C2190 C2192 1.391 . S
C2191 C2190 1.386 . S
C2191 C2195 1.393 . S
C2192 H2181 0.950 . S
C2192 C2190 1.391 . S
C2192 C2193 1.400 . S
C2193 C2187 1.491 . S
C2193 C2192 1.400 . S
C2193 C2194 1.398 . S
C2194 H2182 0.950 . S
C2194 C2193 1.398 . S
C2194 C2195 1.391 . S
C2195 H2183 0.950 . S
C2195 C2191 1.393 . S
C2195 C2194 1.391 . S
H2196 C2204 0.950 . S
H2197 C2209 0.950 . S
H2198 C2206 0.950 . S
H2199 C2208 0.950 . S
H2200 C2210 0.950 . S
H2201 C2212 0.950 . S
H2202 C2214 0.950 . S
H2203 C2215 0.950 . S
C2204 H2196 0.950 . S
C2204 C2205 1.386 . S
C2204 C2206 1.391 . S
C2205 C2204 1.386 . S
C2205 C2209 1.393 . S
C2206 H2198 0.950 . S
C2206 C2204 1.391 . S
C2206 C2207 1.400 . S
C2207 C2206 1.400 . S
C2207 C2208 1.398 . S
C2207 C2213 1.491 . S
C2208 H2199 0.950 . S
C2208 C2207 1.398 . S
C2208 C2209 1.391 . S
C2209 H2197 0.950 . S
C2209 C2205 1.393 . S
C2209 C2208 1.391 . S
C2210 H2200 0.950 . S
C2210 C2211 1.386 . S
C2210 C2212 1.391 . S
C2211 C2210 1.386 . S
C2211 C2215 1.393 . S
C2212 H2201 0.950 . S
C2212 C2210 1.391 . S
C2212 C2213 1.400 . S
C2213 C2207 1.491 . S
C2213 C2212 1.400 . S
C2213 C2214 1.398 . S
C2214 H2202 0.950 . S
C2214 C2213 1.398 . S
C2214 C2215 1.391 . S
C2215 H2203 0.950 . S
C2215 C2211 1.393 . S
C2215 C2214 1.391 . S
H2216 C2224 0.950 . S
H2217 C2229 0.950 1_655 S
H2218 C2226 0.950 . S
H2219 C2228 0.950 1_655 S
H2220 C2230 0.950 . S
H2221 C2232 0.932 1_655 S
H2222 C2234 0.950 . S
H2223 C2235 0.950 . S
C2224 H2216 0.950 . S
C2224 C2225 1.386 . S
C2224 C2226 1.391 . S
C2225 C2224 1.386 . S
C2225 C2229 1.393 . S
C2226 H2218 0.950 . S
C2226 C2224 1.391 . S
C2226 C2227 1.400 . S
C2227 C2226 1.400 . S
C2227 C2228 1.398 . S
C2227 C2233 1.491 . S
C2228 H2219 0.950 1_455 S
C2228 C2227 1.398 . S
C2228 C2229 1.391 . S
C2229 H2217 0.950 1_455 S
C2229 C2225 1.393 . S
C2229 C2228 1.391 . S
C2230 H2220 0.950 . S
C2230 C2231 1.386 1_655 S
C2230 C2232 1.383 1_655 S
C2231 C2230 1.386 1_455 S
C2231 C2235 1.393 . S
C2232 H2221 0.932 1_455 S
C2232 C2230 1.383 1_455 S
C2232 C2233 1.426 . S
C2233 C2227 1.491 . S
C2233 C2232 1.426 . S
C2233 C2234 1.398 . S
C2234 H2222 0.950 . S
C2234 C2233 1.398 . S
C2234 C2235 1.391 . S
C2235 H2223 0.950 . S
C2235 C2231 1.393 . S
C2235 C2234 1.391 . S
H2236 C2244 0.950 . S
H2237 C2249 0.950 . S
H2238 C2246 0.950 . S
H2239 C2248 0.950 . S
H2240 C2250 0.950 . S
H2241 C2252 0.950 . S
H2242 C2254 0.950 . S
H2243 C2255 0.950 . S
C2244 H2236 0.950 . S
C2244 C2245 1.386 . S
C2244 C2246 1.391 . S
C2245 C2244 1.386 . S
C2245 C2249 1.393 . S
C2246 H2238 0.950 . S
C2246 C2244 1.391 . S
C2246 C2247 1.400 . S
C2247 C2246 1.400 . S
C2247 C2248 1.398 . S
C2247 C2253 1.491 . S
C2248 H2239 0.950 . S
C2248 C2247 1.398 . S
C2248 C2249 1.391 . S
C2249 H2237 0.950 . S
C2249 C2245 1.393 . S
C2249 C2248 1.391 . S
C2250 H2240 0.950 . S
C2250 C2251 1.386 . S
C2250 C2252 1.391 . S
C2251 C2250 1.386 . S
C2251 C2255 1.393 . S
C2252 H2241 0.950 . S
C2252 C2250 1.391 . S
C2252 C2253 1.400 . S
C2253 C2247 1.491 . S
C2253 C2252 1.400 . S
C2253 C2254 1.398 . S
C2254 H2242 0.950 . S
C2254 C2253 1.398 . S
C2254 C2255 1.391 . S
C2255 H2243 0.950 . S
C2255 C2251 1.393 . S
C2255 C2254 1.391 . S
H2256 C2264 0.950 . S
H2257 C2269 0.950 . S
H2258 C2266 0.950 . S
H2259 C2268 0.950 . S
H2260 C2270 0.950 . S
H2261 C2272 0.950 . S
H2262 C2274 0.950 . S
H2263 C2275 0.950 . S
C2264 H2256 0.950 . S
C2264 C2265 1.386 . S
C2264 C2266 1.391 . S
C2265 C2264 1.386 . S
C2265 C2269 1.393 . S
C2266 H2258 0.950 . S
C2266 C2264 1.391 . S
C2266 C2267 1.400 . S
C2267 C2266 1.400 . S
C2267 C2268 1.398 . S
C2267 C2273 1.491 . S
C2268 H2259 0.950 . S
C2268 C2267 1.398 . S
C2268 C2269 1.391 . S
C2269 H2257 0.950 . S
C2269 C2265 1.393 . S
C2269 C2268 1.391 . S
C2270 H2260 0.950 . S
C2270 C2271 1.386 . S
C2270 C2272 1.391 . S
C2271 C2270 1.386 . S
C2271 C2275 1.393 . S
C2272 H2261 0.950 . S
C2272 C2270 1.391 . S
C2272 C2273 1.400 . S
C2273 C2267 1.491 . S
C2273 C2272 1.400 . S
C2273 C2274 1.398 . S
C2274 H2262 0.950 . S
C2274 C2273 1.398 . S
C2274 C2275 1.391 . S
C2275 H2263 0.950 . S
C2275 C2271 1.393 . S
C2275 C2274 1.391 . S
H2276 C2284 0.950 . S
H2277 C2289 0.950 . S
H2278 C2286 0.950 . S
H2279 C2288 0.950 . S
H2280 C2290 0.950 . S
H2281 C2292 0.950 . S
H2282 C2294 0.950 . S
H2283 C2295 0.950 . S
C2284 H2276 0.950 . S
C2284 C2285 1.386 . S
C2284 C2286 1.391 . S
C2285 C2284 1.386 . S
C2285 C2289 1.393 . S
C2286 H2278 0.950 . S
C2286 C2284 1.391 . S
C2286 C2287 1.400 . S
C2287 C2286 1.400 . S
C2287 C2288 1.398 . S
C2287 C2293 1.491 . S
C2288 H2279 0.950 . S
C2288 C2287 1.398 . S
C2288 C2289 1.391 . S
C2289 H2277 0.950 . S
C2289 C2285 1.393 . S
C2289 C2288 1.391 . S
C2290 H2280 0.950 . S
C2290 C2291 1.386 . S
C2290 C2292 1.391 . S
C2291 C2290 1.386 . S
C2291 C2295 1.393 . S
C2292 H2281 0.950 . S
C2292 C2290 1.391 . S
C2292 C2293 1.400 . S
C2293 C2287 1.491 . S
C2293 C2292 1.400 . S
C2293 C2294 1.398 . S
C2294 H2282 0.950 . S
C2294 C2293 1.398 . S
C2294 C2295 1.391 . S
C2295 H2283 0.950 . S
C2295 C2291 1.393 . S
C2295 C2294 1.391 . S
H2296 C2304 0.950 . S
H2297 C2309 0.950 . S
H2298 C2306 0.950 . S
H2299 C2308 0.950 . S
H2300 C2310 0.950 . S
H2301 C2312 0.950 . S
H2302 C2314 0.958 . S
H2303 C2315 0.950 . S
C2304 H2296 0.950 . S
C2304 C2305 1.386 . S
C2304 C2306 1.391 . S
C2305 C2304 1.386 . S
C2305 C2309 1.393 . S
C2306 H2298 0.950 . S
C2306 C2304 1.391 . S
C2306 C2307 1.400 . S
C2307 C2306 1.400 . S
C2307 C2308 1.398 . S
C2307 C2313 1.491 . S
C2308 H2299 0.950 . S
C2308 C2307 1.398 . S
C2308 C2309 1.391 . S
C2309 H2297 0.950 . S
C2309 C2305 1.393 . S
C2309 C2308 1.391 . S
C2310 H2300 0.950 . S
C2310 C2311 1.386 . S
C2310 C2312 1.391 . S
C2311 C2310 1.386 . S
C2311 C2315 1.393 1_655 S
C2312 H2301 0.950 . S
C2312 C2310 1.391 . S
C2312 C2313 1.400 . S
C2313 C2307 1.491 . S
C2313 C2312 1.400 . S
C2313 C2314 1.398 . S
C2314 H2302 0.958 . S
C2314 C2313 1.398 . S
C2314 C2315 1.391 1_655 S
C2315 H2303 0.950 . S
C2315 C2311 1.393 1_455 S
C2315 C2314 1.391 1_455 S
H2316 C2324 0.950 . S
H2317 C2329 0.950 . S
H2318 C2326 0.950 . S
H2319 C2328 0.950 . S
H2320 C2330 0.950 . S
H2321 C2332 0.950 . S
H2322 C2334 0.950 . S
H2323 C2335 0.950 . S
C2324 H2316 0.950 . S
C2324 C2325 1.386 . S
C2324 C2326 1.391 . S
C2325 C2324 1.386 . S
C2325 C2329 1.393 . S
C2326 H2318 0.950 . S
C2326 C2324 1.391 . S
C2326 C2327 1.400 . S
C2327 C2326 1.400 . S
C2327 C2328 1.398 . S
C2327 C2333 1.491 . S
C2328 H2319 0.950 . S
C2328 C2327 1.398 . S
C2328 C2329 1.391 . S
C2329 H2317 0.950 . S
C2329 C2325 1.393 . S
C2329 C2328 1.391 . S
C2330 H2320 0.950 . S
C2330 C2331 1.386 . S
C2330 C2332 1.391 . S
C2331 C2330 1.386 . S
C2331 C2335 1.393 . S
C2332 H2321 0.950 . S
C2332 C2330 1.391 . S
C2332 C2333 1.400 . S
C2333 C2327 1.491 . S
C2333 C2332 1.400 . S
C2333 C2334 1.398 . S
C2334 H2322 0.950 . S
C2334 C2333 1.398 . S
C2334 C2335 1.391 . S
C2335 H2323 0.950 . S
C2335 C2331 1.393 . S
C2335 C2334 1.391 . S
H2336 C2344 0.950 . S
H2337 C2349 0.950 . S
H2338 C2346 0.950 . S
H2339 C2348 0.950 . S
H2340 C2350 0.950 . S
H2341 C2352 0.950 . S
H2342 C2354 0.950 . S
H2343 C2355 0.950 . S
C2344 H2336 0.950 . S
C2344 C2345 1.386 . S
C2344 C2346 1.391 . S
C2345 C2344 1.386 . S
C2345 C2349 1.393 . S
C2346 H2338 0.950 . S
C2346 C2344 1.391 . S
C2346 C2347 1.400 . S
C2347 C2346 1.400 . S
C2347 C2348 1.398 . S
C2347 C2353 1.491 . S
C2348 H2339 0.950 . S
C2348 C2347 1.398 . S
C2348 C2349 1.391 . S
C2349 H2337 0.950 . S
C2349 C2345 1.393 . S
C2349 C2348 1.391 . S
C2350 H2340 0.950 . S
C2350 C2351 1.386 . S
C2350 C2352 1.391 . S
C2351 C2350 1.386 . S
C2351 C2355 1.393 . S
C2352 H2341 0.950 . S
C2352 C2350 1.391 . S
C2352 C2353 1.400 . S
C2353 C2347 1.491 . S
C2353 C2352 1.400 . S
C2353 C2354 1.398 . S
C2354 H2342 0.950 . S
C2354 C2353 1.398 . S
C2354 C2355 1.391 . S
C2355 H2343 0.950 . S
C2355 C2351 1.393 . S
C2355 C2354 1.391 . S
H2356 C2364 0.950 . S
H2357 C2369 0.950 . S
H2358 C2366 0.950 . S
H2359 C2368 0.950 . S
H2360 C2370 0.950 . S
H2361 C2372 0.950 . S
H2362 C2374 0.950 . S
H2363 C2375 0.950 . S
C2364 H2356 0.950 . S
C2364 C2365 1.386 . S
C2364 C2366 1.391 . S
C2365 C2364 1.386 . S
C2365 C2369 1.393 . S
C2366 H2358 0.950 . S
C2366 C2364 1.391 . S
C2366 C2367 1.400 . S
C2367 C2366 1.400 . S
C2367 C2368 1.398 . S
C2367 C2373 1.491 . S
C2368 H2359 0.950 . S
C2368 C2367 1.398 . S
C2368 C2369 1.391 . S
C2369 H2357 0.950 . S
C2369 C2365 1.393 . S
C2369 C2368 1.391 . S
C2370 H2360 0.950 . S
C2370 C2371 1.386 . S
C2370 C2372 1.391 . S
C2371 C2370 1.386 . S
C2371 C2375 1.393 . S
C2372 H2361 0.950 . S
C2372 C2370 1.391 . S
C2372 C2373 1.400 . S
C2373 C2367 1.491 . S
C2373 C2372 1.400 . S
C2373 C2374 1.398 . S
C2374 H2362 0.950 . S
C2374 C2373 1.398 . S
C2374 C2375 1.391 . S
C2375 H2363 0.950 . S
C2375 C2371 1.393 . S
C2375 C2374 1.391 . S
H2376 C2384 0.950 . S
H2377 C2389 0.950 . S
H2378 C2386 0.950 . S
H2379 C2388 0.950 . S
H2380 C2390 0.950 . S
H2381 C2392 0.950 . S
H2382 C2394 0.950 . S
H2383 C2395 0.950 1_455 S
C2384 H2376 0.950 . S
C2384 C2385 1.386 . S
C2384 C2386 1.391 . S
C2385 C2384 1.386 . S
C2385 C2389 1.393 . S
C2386 H2378 0.950 . S
C2386 C2384 1.391 . S
C2386 C2387 1.400 . S
C2387 C2386 1.400 . S
C2387 C2388 1.398 . S
C2387 C2393 1.491 . S
C2388 H2379 0.950 . S
C2388 C2387 1.398 . S
C2388 C2389 1.391 . S
C2389 H2377 0.950 . S
C2389 C2385 1.393 . S
C2389 C2388 1.391 . S
C2390 H2380 0.950 . S
C2390 C2391 1.386 . S
C2390 C2392 1.391 . S
C2391 C2390 1.386 . S
C2391 C2395 1.393 . S
C2392 H2381 0.950 . S
C2392 C2390 1.391 . S
C2392 C2393 1.400 . S
C2393 C2387 1.491 . S
C2393 C2392 1.400 . S
C2393 C2394 1.398 . S
C2394 H2382 0.950 . S
C2394 C2393 1.398 . S
C2394 C2395 1.391 . S
C2395 H2383 0.950 1_655 S
C2395 C2391 1.393 . S
C2395 C2394 1.391 . S
H2396 C2404 0.950 . S
H2397 C2409 0.950 . S
H2398 C2406 0.950 . S
H2399 C2408 0.950 . S
H2400 C2410 0.950 . S
H2401 C2412 0.950 . S
H2402 C2414 0.950 . S
H2403 C2415 0.950 . S
C2404 H2396 0.950 . S
C2404 C2405 1.386 . S
C2404 C2406 1.391 . S
C2405 C2404 1.386 . S
C2405 C2409 1.393 . S
C2406 H2398 0.950 . S
C2406 C2404 1.391 . S
C2406 C2407 1.400 . S
C2407 C2406 1.400 . S
C2407 C2408 1.398 . S
C2407 C2413 1.491 . S
C2408 H2399 0.950 . S
C2408 C2407 1.398 . S
C2408 C2409 1.391 . S
C2409 H2397 0.950 . S
C2409 C2405 1.393 . S
C2409 C2408 1.391 . S
C2410 H2400 0.950 . S
C2410 C2411 1.386 . S
C2410 C2412 1.391 . S
C2411 C2410 1.386 . S
C2411 C2415 1.393 . S
C2412 H2401 0.950 . S
C2412 C2410 1.391 . S
C2412 C2413 1.400 . S
C2413 C2407 1.491 . S
C2413 C2412 1.400 . S
C2413 C2414 1.398 . S
C2414 H2402 0.950 . S
C2414 C2413 1.398 . S
C2414 C2415 1.391 . S
C2415 H2403 0.950 . S
C2415 C2411 1.393 . S
C2415 C2414 1.391 . S
H2416 C2424 0.950 . S
H2417 C2429 0.950 . S
H2418 C2426 0.950 . S
H2419 C2428 0.950 . S
H2420 C2430 0.950 . S
H2421 C2432 0.950 . S
H2422 C2434 0.950 . S
H2423 C2435 0.950 . S
C2424 H2416 0.950 . S
C2424 C2425 1.386 . S
C2424 C2426 1.391 . S
C2425 C2424 1.386 . S
C2425 C2429 1.393 . S
C2426 H2418 0.950 . S
C2426 C2424 1.391 . S
C2426 C2427 1.400 . S
C2427 C2426 1.400 . S
C2427 C2428 1.398 . S
C2427 C2433 1.491 . S
C2428 H2419 0.950 . S
C2428 C2427 1.398 . S
C2428 C2429 1.391 . S
C2429 H2417 0.950 . S
C2429 C2425 1.393 . S
C2429 C2428 1.391 . S
C2430 H2420 0.950 . S
C2430 C2431 1.386 . S
C2430 C2432 1.391 . S
C2431 C2430 1.386 . S
C2431 C2435 1.393 . S
C2432 H2421 0.950 . S
C2432 C2430 1.391 . S
C2432 C2433 1.400 . S
C2433 C2427 1.491 . S
C2433 C2432 1.400 . S
C2433 C2434 1.398 . S
C2434 H2422 0.950 . S
C2434 C2433 1.398 . S
C2434 C2435 1.391 . S
C2435 H2423 0.950 . S
C2435 C2431 1.393 . S
C2435 C2434 1.391 . S
H2436 C2444 0.950 . S
H2437 C2449 0.950 . S
H2438 C2446 0.950 . S
H2439 C2448 0.950 . S
H2440 C2450 0.950 1_545 S
H2441 C2452 0.950 . S
H2442 C2454 0.950 . S
H2443 C2455 0.950 . S
C2444 H2436 0.950 . S
C2444 C2445 1.386 . S
C2444 C2446 1.391 . S
C2445 C2444 1.386 . S
C2445 C2449 1.393 . S
C2446 H2438 0.950 . S
C2446 C2444 1.391 . S
C2446 C2447 1.400 . S
C2447 C2446 1.400 . S
C2447 C2448 1.398 . S
C2447 C2453 1.491 . S
C2448 H2439 0.950 . S
C2448 C2447 1.398 . S
C2448 C2449 1.391 . S
C2449 H2437 0.950 . S
C2449 C2445 1.393 . S
C2449 C2448 1.391 . S
C2450 H2440 0.950 1_565 S
C2450 C2451 1.386 . S
C2450 C2452 1.391 . S
C2451 C2450 1.386 . S
C2451 C2455 1.393 . S
C2452 H2441 0.950 . S
C2452 C2450 1.391 . S
C2452 C2453 1.400 . S
C2453 C2447 1.491 . S
C2453 C2452 1.400 . S
C2453 C2454 1.398 . S
C2454 H2442 0.950 . S
C2454 C2453 1.398 . S
C2454 C2455 1.391 . S
C2455 H2443 0.950 . S
C2455 C2451 1.393 . S
C2455 C2454 1.391 . S
H2456 C2464 0.950 . S
H2457 C2469 0.950 . S
H2458 C2466 0.950 . S
H2459 C2468 0.950 . S
H2460 C2470 0.950 . S
H2461 C2472 0.950 . S
H2462 C2474 0.950 . S
H2463 C2475 0.950 . S
C2464 H2456 0.950 . S
C2464 C2465 1.386 . S
C2464 C2466 1.391 . S
C2465 C2464 1.386 . S
C2465 C2469 1.393 . S
C2466 H2458 0.950 . S
C2466 C2464 1.391 . S
C2466 C2467 1.400 . S
C2467 C2466 1.400 . S
C2467 C2468 1.398 . S
C2467 C2473 1.491 . S
C2468 H2459 0.950 . S
C2468 C2467 1.398 . S
C2468 C2469 1.391 . S
C2469 H2457 0.950 . S
C2469 C2465 1.393 . S
C2469 C2468 1.391 . S
C2470 H2460 0.950 . S
C2470 C2471 1.386 . S
C2470 C2472 1.391 . S
C2471 C2470 1.386 . S
C2471 C2475 1.393 . S
C2472 H2461 0.950 . S
C2472 C2470 1.391 . S
C2472 C2473 1.400 . S
C2473 C2467 1.491 . S
C2473 C2472 1.400 . S
C2473 C2474 1.398 . S
C2474 H2462 0.950 . S
C2474 C2473 1.398 . S
C2474 C2475 1.391 . S
C2475 H2463 0.950 . S
C2475 C2471 1.393 . S
C2475 C2474 1.391 . S
H2476 C2484 0.950 . S
H2477 C2489 0.950 . S
H2478 C2486 0.950 . S
H2479 C2488 0.950 . S
H2480 C2490 0.950 . S
H2481 C2492 0.950 . S
H2482 C2494 0.950 . S
H2483 C2495 0.950 . S
C2484 H2476 0.950 . S
C2484 C2485 1.386 . S
C2484 C2486 1.391 . S
C2485 C2484 1.386 . S
C2485 C2489 1.393 . S
C2486 H2478 0.950 . S
C2486 C2484 1.391 . S
C2486 C2487 1.400 . S
C2487 C2486 1.400 . S
C2487 C2488 1.398 . S
C2487 C2493 1.491 . S
C2488 H2479 0.950 . S
C2488 C2487 1.398 . S
C2488 C2489 1.391 . S
C2489 H2477 0.950 . S
C2489 C2485 1.393 . S
C2489 C2488 1.391 . S
C2490 H2480 0.950 . S
C2490 C2491 1.386 . S
C2490 C2492 1.391 . S
C2491 C2490 1.386 . S
C2491 C2495 1.393 . S
C2492 H2481 0.950 . S
C2492 C2490 1.391 . S
C2492 C2493 1.400 . S
C2493 C2487 1.491 . S
C2493 C2492 1.400 . S
C2493 C2494 1.398 . S
C2494 H2482 0.950 . S
C2494 C2493 1.398 . S
C2494 C2495 1.391 . S
C2495 H2483 0.950 . S
C2495 C2491 1.393 . S
C2495 C2494 1.391 . S
H2496 C2504 0.950 . S
H2497 C2509 0.950 . S
H2498 C2506 0.950 . S
H2499 C2508 0.950 . S
H2500 C2510 0.950 . S
H2501 C2512 0.950 . S
H2502 C2514 0.950 . S
H2503 C2515 0.950 . S
C2504 H2496 0.950 . S
C2504 C2505 1.386 . S
C2504 C2506 1.391 . S
C2505 C2504 1.386 . S
C2505 C2509 1.393 . S
C2506 H2498 0.950 . S
C2506 C2504 1.391 . S
C2506 C2507 1.400 . S
C2507 C2506 1.400 . S
C2507 C2508 1.398 . S
C2507 C2513 1.491 . S
C2508 H2499 0.950 . S
C2508 C2507 1.398 . S
C2508 C2509 1.391 . S
C2509 H2497 0.950 . S
C2509 C2505 1.393 . S
C2509 C2508 1.391 . S
C2510 H2500 0.950 . S
C2510 C2511 1.386 . S
C2510 C2512 1.391 . S
C2511 C2510 1.386 . S
C2511 C2515 1.393 . S
C2512 H2501 0.950 . S
C2512 C2510 1.391 . S
C2512 C2513 1.400 . S
C2513 C2507 1.491 . S
C2513 C2512 1.400 . S
C2513 C2514 1.398 . S
C2514 H2502 0.950 . S
C2514 C2513 1.398 . S
C2514 C2515 1.391 . S
C2515 H2503 0.950 . S
C2515 C2511 1.393 . S
C2515 C2514 1.391 . S
H2516 C2524 0.950 . S
H2517 C2529 0.950 . S
H2518 C2526 0.950 1_556 S
H2519 C2528 0.950 . S
H2520 C2530 0.950 . S
H2521 C2532 0.950 . S
H2522 C2534 0.950 1_556 S
H2523 C2535 0.950 . S
C2524 H2516 0.950 . S
C2524 C2525 1.386 . S
C2524 C2526 1.391 . S
C2525 C2524 1.386 . S
C2525 C2529 1.393 . S
C2526 H2518 0.950 1_554 S
C2526 C2524 1.391 . S
C2526 C2527 1.400 . S
C2527 C2526 1.400 . S
C2527 C2528 1.398 . S
C2527 C2533 1.491 . S
C2528 H2519 0.950 . S
C2528 C2527 1.398 . S
C2528 C2529 1.391 . S
C2529 H2517 0.950 . S
C2529 C2525 1.393 . S
C2529 C2528 1.391 . S
C2530 H2520 0.950 . S
C2530 C2531 1.386 . S
C2530 C2532 1.391 . S
C2531 C2530 1.386 . S
C2531 C2535 1.393 1_554 S
C2532 H2521 0.950 . S
C2532 C2530 1.391 . S
C2532 C2533 1.400 . S
C2533 C2527 1.491 . S
C2533 C2532 1.400 . S
C2533 C2534 1.398 . S
C2534 H2522 0.950 1_554 S
C2534 C2533 1.398 . S
C2534 C2535 1.391 1_554 S
C2535 H2523 0.950 . S
C2535 C2531 1.393 1_556 S
C2535 C2534 1.391 1_556 S
H2536 C2544 0.950 . S
H2537 C2549 0.950 . S
H2538 C2546 0.950 . S
H2539 C2548 0.950 . S
H2540 C2550 0.950 . S
H2541 C2552 0.950 . S
H2542 C2554 0.950 . S
H2543 C2555 0.950 . S
C2544 H2536 0.950 . S
C2544 C2545 1.386 . S
C2544 C2546 1.391 . S
C2545 C2544 1.386 . S
C2545 C2549 1.393 . S
C2546 H2538 0.950 . S
C2546 C2544 1.391 . S
C2546 C2547 1.400 . S
C2547 C2546 1.400 . S
C2547 C2548 1.398 . S
C2547 C2553 1.491 . S
C2548 H2539 0.950 . S
C2548 C2547 1.398 . S
C2548 C2549 1.391 . S
C2549 H2537 0.950 . S
C2549 C2545 1.393 . S
C2549 C2548 1.391 . S
C2550 H2540 0.950 . S
C2550 C2551 1.386 . S
C2550 C2552 1.391 . S
C2551 C2550 1.386 . S
C2551 C2555 1.393 . S
C2552 H2541 0.950 . S
C2552 C2550 1.391 . S
C2552 C2553 1.400 . S
C2553 C2547 1.491 . S
C2553 C2552 1.400 . S
C2553 C2554 1.398 . S
C2554 H2542 0.950 . S
C2554 C2553 1.398 . S
C2554 C2555 1.391 . S
C2555 H2543 0.950 . S
C2555 C2551 1.393 . S
C2555 C2554 1.391 . S
H2556 C2564 0.950 . S
H2557 C2569 0.950 . S
H2558 C2566 0.950 . S
H2559 C2568 0.950 . S
H2560 C2570 0.950 . S
H2561 C2572 0.950 . S
H2562 C2574 0.950 . S
H2563 C2575 0.950 . S
C2564 H2556 0.950 . S
C2564 C2565 1.386 . S
C2564 C2566 1.391 . S
C2565 C2564 1.386 . S
C2565 C2569 1.393 . S
C2566 H2558 0.950 . S
C2566 C2564 1.391 . S
C2566 C2567 1.400 . S
C2567 C2566 1.400 . S
C2567 C2568 1.398 . S
C2567 C2573 1.491 . S
C2568 H2559 0.950 . S
C2568 C2567 1.398 . S
C2568 C2569 1.391 . S
C2569 H2557 0.950 . S
C2569 C2565 1.393 . S
C2569 C2568 1.391 . S
C2570 H2560 0.950 . S
C2570 C2571 1.386 . S
C2570 C2572 1.391 . S
C2571 C2570 1.386 . S
C2571 C2575 1.393 . S
C2572 H2561 0.950 . S
C2572 C2570 1.391 . S
C2572 C2573 1.400 . S
C2573 C2567 1.491 . S
C2573 C2572 1.400 . S
C2573 C2574 1.398 . S
C2574 H2562 0.950 . S
C2574 C2573 1.398 . S
C2574 C2575 1.391 . S
C2575 H2563 0.950 . S
C2575 C2571 1.393 . S
C2575 C2574 1.391 . S
C665 C111 1.331 . S
C671 C340 1.176 . S
C685 C64 1.460 . S
C691 C375 1.490 . S
C705 C77 1.007 . S
C711 C380 0.946 . S
C731 C405 1.194 . S
C725 C95 1.272 . S
C745 C25 1.268 . S
C751 C425 1.238 . S
C771 C440 0.974 . S
C765 C36 1.081 . S
C791 C475 1.472 . S
C785 C50 1.440 . S
C805 C11 1.310 . S
C811 C480 1.106 . S
C831 C355 1.455 . S
C825 C237 1.430 . S
C845 C245 0.970 . S
C851 C365 0.951 . S
C871 C395 1.333 . S
C865 C279 1.255 1_565 S
C891 C400 1.036 . S
C885 C175 1.128 1_556 S
C905 C231 1.084 . S
C911 C420 0.995 . S
C931 C455 1.326 . S
C925 C251 1.283 . S
C951 C465 0.986 . S
C945 C273 1.015 . S
C971 C495 1.427 . S
C965 C181 1.425 . S
C991 C345 1.225 . S
C985 C165 1.341 . S
C1005 C288 1.672 . S
C1011 C515 1.732 . S
C1031 C525 1.374 . S
C1025 C333 1.457 . S
C1051 C540 1.005 . S
C1045 C316 1.029 . S
C1065 C123 1.315 . S
C1071 C485 1.194 . S
C1085 C137 1.422 . S
C1091 C385 1.299 . S
C1105 C330 1.685 . S
C1111 C575 1.719 . S
C1131 C580 0.952 . S
C1125 C302 1.050 . S
C1151 C338 1.263 . S
C1145 C63 1.453 . S
C1171 C594 1.526 . S
C1165 C106 1.517 . S
C1185 C97 1.017 . S
C1191 C378 0.997 . S
C1205 C81 1.342 . S
C1211 C568 1.292 . S
C1231 C428 1.362 . S
C1225 C13 1.353 . S
C1245 C55 1.020 . S
C1251 C518 0.994 . S
C1271 C474 1.454 1_556 S
C1265 C35 1.467 . S
C1291 C598 1.273 . S
C1285 C21 1.453 . S
C1311 C354 1.544 . S
C1305 C147 1.627 . S
C1331 C588 0.956 . S
C1325 C321 0.954 . S
C1345 C119 1.409 . S
C1351 C394 1.385 . S
C1365 C293 1.164 . S
C1371 C558 1.145 . S
C1385 C153 1.179 . S
C1391 C418 1.164 . S
C1411 C534 1.382 . S
C1405 C315 1.426 . S
C1425 C125 0.939 . S
C1431 C468 0.962 . S
C1445 C287 1.613 . S
C1451 C614 1.538 . S
C1465 C193 1.381 . S
C1471 C348 1.269 . S
C1485 C176 1.747 . S
C1491 C514 1.753 . S
C1505 C263 1.437 . S
C1511 C448 1.356 . S
C1525 C246 1.105 . S
C1531 C538 1.073 . S
C1551 C608 1.279 . S
C1545 C277 1.390 . S
C1565 C221 1.447 . S
C1571 C388 1.362 . S
C1591 C414 1.784 . S
C1585 C260 1.773 . S
C1611 C358 1.094 . S
C1605 C204 1.125 . S
C1625 C83 1.310 . S
C1631 C620 1.156 . S
C1651 C595 1.495 . S
C1645 C92 1.446 . S
C1665 C105 1.010 1_455 S
C1671 C640 0.953 . S
C1685 C67 1.271 . S
C1691 C565 1.196 . S
C1705 C53 1.269 . S
C1711 C505 1.234 . S
C1731 C520 1.018 . S
C1725 C8 1.067 . S
C1751 C555 1.469 . S
C1745 C22 1.438 1_655 S
C1771 C600 1.153 . S
C1765 C39 1.310 . S
C1791 C635 1.425 . S
C1785 C265 1.437 . S
C1805 C189 0.959 . S
C1811 C585 0.904 . S
C1831 C655 1.332 . S
C1825 C209 1.270 . S
C1851 C560 1.046 . S
C1845 C217 1.129 . S
C1871 C500 0.990 . S
C1865 C259 1.082 . S
C1885 C195 1.251 . S
C1891 C535 1.324 . S
C1911 C545 0.973 . S
C1905 C203 1.014 . S
C1925 C223 1.419 . S
C1931 C615 1.433 . S
C1951 C625 1.180 . S
C1945 C319 1.339 . S
C1965 C134 1.672 . S
C1971 C435 1.732 . S
C1991 C445 1.364 . S
C1985 C151 1.459 . S
C2011 C460 0.951 . S
C2005 C162 1.054 . S
C2031 C605 1.153 . S
C2025 C305 1.314 . S
C2045 C291 1.415 1_554 S
C2051 C645 1.335 . S
C2071 C415 1.735 . S
C2065 C148 1.662 . S
C2091 C360 0.952 . S
C2085 C120 1.051 . S
C2105 C91 1.465 . S
C2111 C618 1.302 . S
C2131 C374 1.526 . S
C2125 C78 1.532 . S
C2145 C69 1.038 . S
C2151 C638 1.021 . S
C2165 C109 1.342 . S
C2171 C408 1.282 . S
C2185 C41 1.359 . S
C2191 C508 1.366 . S
C2211 C438 0.987 . S
C2205 C27 1.014 . S
C2225 C7 1.475 . S
C2231 C554 1.451 . S
C2245 C49 1.459 . S
C2251 C478 1.295 . S
C2271 C634 1.541 . S
C2265 C329 1.625 . S
C2285 C167 0.927 . S
C2291 C368 0.950 . S
C2311 C654 1.379 1_655 S
C2305 C301 1.412 . S
C2325 C139 1.177 . S
C2331 C398 1.163 . S
C2345 C335 1.181 . S
C2351 C498 1.165 . S
C2371 C454 1.387 . S
C2365 C161 1.425 . S
C2385 C307 0.932 . S
C2391 C548 0.954 . S
C2411 C494 1.544 . S
C2405 C133 1.613 . S
C2431 C628 1.260 . S
C2425 C249 1.363 . S
C2451 C434 1.778 . S
C2445 C218 1.758 . S
C2465 C235 1.433 . S
C2471 C528 1.384 . S
C2491 C458 1.066 . S
C2485 C190 1.108 . S
C2505 C207 1.368 . S
C2511 C488 1.270 . S
C2525 C179 1.446 . S
C2531 C648 1.396 . S
C2551 C574 1.781 . S
C2545 C232 1.774 . S
C2571 C578 1.053 . S
C2565 C274 1.112 . S
