# Generated by pormake.
# Topology myd, (4,6)-cn, num edge types: 1
# Building blocks:
#     Node 0, Type 0, BuildingBlock: KOZSID_clean_sbu_0, # of connection points: 4
#     Node 1, Type 0, BuildingBlock: KOZSID_clean_sbu_0, # of connection points: 4
#     Node 2, Type 0, BuildingBlock: KOZSID_clean_sbu_0, # of connection points: 4
#     Node 3, Type 0, BuildingBlock: KOZSID_clean_sbu_0, # of connection points: 4
#     Node 4, Type 0, BuildingBlock: KOZSID_clean_sbu_0, # of connection points: 4
#     Node 5, Type 0, BuildingBlock: KOZSID_clean_sbu_0, # of connection points: 4
#     Node 6, Type 0, BuildingBlock: KOZSID_clean_sbu_0, # of connection points: 4
#     Node 7, Type 0, BuildingBlock: KOZSID_clean_sbu_0, # of connection points: 4
#     Node 8, Type 0, BuildingBlock: KOZSID_clean_sbu_0, # of connection points: 4
#     Node 9, Type 0, BuildingBlock: KOZSID_clean_sbu_0, # of connection points: 4
#     Node 10, Type 0, BuildingBlock: KOZSID_clean_sbu_0, # of connection points: 4
#     Node 11, Type 0, BuildingBlock: KOZSID_clean_sbu_0, # of connection points: 4
#     Node 12, Type 1, BuildingBlock: VOLQOD_clean_sbu_1, # of connection points: 6
#     Node 13, Type 1, BuildingBlock: VOLQOD_clean_sbu_1, # of connection points: 6
#     Node 14, Type 1, BuildingBlock: VOLQOD_clean_sbu_1, # of connection points: 6
#     Node 15, Type 1, BuildingBlock: VOLQOD_clean_sbu_1, # of connection points: 6
#     Node 16, Type 1, BuildingBlock: VOLQOD_clean_sbu_1, # of connection points: 6
#     Node 17, Type 1, BuildingBlock: VOLQOD_clean_sbu_1, # of connection points: 6
#     Node 18, Type 1, BuildingBlock: VOLQOD_clean_sbu_1, # of connection points: 6
#     Node 19, Type 1, BuildingBlock: VOLQOD_clean_sbu_1, # of connection points: 6
#     Edge 20, Type (0, 1), BuildingBlock: TEMPAE_clean_linker_10, # of connection points: 2
#     Edge 21, Type (0, 1), BuildingBlock: TEMPAE_clean_linker_10, # of connection points: 2
#     Edge 22, Type (0, 1), BuildingBlock: TEMPAE_clean_linker_10, # of connection points: 2
#     Edge 23, Type (0, 1), BuildingBlock: TEMPAE_clean_linker_10, # of connection points: 2
#     Edge 24, Type (0, 1), BuildingBlock: TEMPAE_clean_linker_10, # of connection points: 2
#     Edge 25, Type (0, 1), BuildingBlock: TEMPAE_clean_linker_10, # of connection points: 2
#     Edge 26, Type (0, 1), BuildingBlock: TEMPAE_clean_linker_10, # of connection points: 2
#     Edge 27, Type (0, 1), BuildingBlock: TEMPAE_clean_linker_10, # of connection points: 2
#     Edge 28, Type (0, 1), BuildingBlock: TEMPAE_clean_linker_10, # of connection points: 2
#     Edge 29, Type (0, 1), BuildingBlock: TEMPAE_clean_linker_10, # of connection points: 2
#     Edge 30, Type (0, 1), BuildingBlock: TEMPAE_clean_linker_10, # of connection points: 2
#     Edge 31, Type (0, 1), BuildingBlock: TEMPAE_clean_linker_10, # of connection points: 2
#     Edge 32, Type (0, 1), BuildingBlock: TEMPAE_clean_linker_10, # of connection points: 2
#     Edge 33, Type (0, 1), BuildingBlock: TEMPAE_clean_linker_10, # of connection points: 2
#     Edge 34, Type (0, 1), BuildingBlock: TEMPAE_clean_linker_10, # of connection points: 2
#     Edge 35, Type (0, 1), BuildingBlock: TEMPAE_clean_linker_10, # of connection points: 2
#     Edge 36, Type (0, 1), BuildingBlock: TEMPAE_clean_linker_10, # of connection points: 2
#     Edge 37, Type (0, 1), BuildingBlock: TEMPAE_clean_linker_10, # of connection points: 2
#     Edge 38, Type (0, 1), BuildingBlock: TEMPAE_clean_linker_10, # of connection points: 2
#     Edge 39, Type (0, 1), BuildingBlock: TEMPAE_clean_linker_10, # of connection points: 2
#     Edge 40, Type (0, 1), BuildingBlock: TEMPAE_clean_linker_10, # of connection points: 2
#     Edge 41, Type (0, 1), BuildingBlock: TEMPAE_clean_linker_10, # of connection points: 2
#     Edge 42, Type (0, 1), BuildingBlock: TEMPAE_clean_linker_10, # of connection points: 2
#     Edge 43, Type (0, 1), BuildingBlock: TEMPAE_clean_linker_10, # of connection points: 2
#     Edge 44, Type (0, 1), BuildingBlock: TEMPAE_clean_linker_10, # of connection points: 2
#     Edge 45, Type (0, 1), BuildingBlock: TEMPAE_clean_linker_10, # of connection points: 2
#     Edge 46, Type (0, 1), BuildingBlock: TEMPAE_clean_linker_10, # of connection points: 2
#     Edge 47, Type (0, 1), BuildingBlock: TEMPAE_clean_linker_10, # of connection points: 2
#     Edge 48, Type (0, 1), BuildingBlock: TEMPAE_clean_linker_10, # of connection points: 2
#     Edge 49, Type (0, 1), BuildingBlock: TEMPAE_clean_linker_10, # of connection points: 2
#     Edge 50, Type (0, 1), BuildingBlock: TEMPAE_clean_linker_10, # of connection points: 2
#     Edge 51, Type (0, 1), BuildingBlock: TEMPAE_clean_linker_10, # of connection points: 2
#     Edge 52, Type (0, 1), BuildingBlock: TEMPAE_clean_linker_10, # of connection points: 2
#     Edge 53, Type (0, 1), BuildingBlock: TEMPAE_clean_linker_10, # of connection points: 2
#     Edge 54, Type (0, 1), BuildingBlock: TEMPAE_clean_linker_10, # of connection points: 2
#     Edge 55, Type (0, 1), BuildingBlock: TEMPAE_clean_linker_10, # of connection points: 2
#     Edge 56, Type (0, 1), BuildingBlock: TEMPAE_clean_linker_10, # of connection points: 2
#     Edge 57, Type (0, 1), BuildingBlock: TEMPAE_clean_linker_10, # of connection points: 2
#     Edge 58, Type (0, 1), BuildingBlock: TEMPAE_clean_linker_10, # of connection points: 2
#     Edge 59, Type (0, 1), BuildingBlock: TEMPAE_clean_linker_10, # of connection points: 2
#     Edge 60, Type (0, 1), BuildingBlock: TEMPAE_clean_linker_10, # of connection points: 2
#     Edge 61, Type (0, 1), BuildingBlock: TEMPAE_clean_linker_10, # of connection points: 2
#     Edge 62, Type (0, 1), BuildingBlock: TEMPAE_clean_linker_10, # of connection points: 2
#     Edge 63, Type (0, 1), BuildingBlock: TEMPAE_clean_linker_10, # of connection points: 2
#     Edge 64, Type (0, 1), BuildingBlock: TEMPAE_clean_linker_10, # of connection points: 2
#     Edge 65, Type (0, 1), BuildingBlock: TEMPAE_clean_linker_10, # of connection points: 2
#     Edge 66, Type (0, 1), BuildingBlock: TEMPAE_clean_linker_10, # of connection points: 2
#     Edge 67, Type (0, 1), BuildingBlock: TEMPAE_clean_linker_10, # of connection points: 2
# Relax obj value: 0.174
# Max RMSD: 0.167
# Mean RMSD: 0.128
data_MOF--net-myd--node1-KOZSID_clean_sbu_0--node2-VOLQOD_clean_sbu_1--edge1-TEMPAE_clean_linker_10
_symmetry_space_group_name_H-M    P1
_symmetry_Int_Tables_number       1
_symmetry_cell_setting            triclinic
loop_
_symmetry_equiv_pos_as_xyz
'x, y, z'
_cell_length_a     52.511091
_cell_length_b     52.598947
_cell_length_c     52.607547
_cell_angle_alpha  92.680988
_cell_angle_beta   90.474969
_cell_angle_gamma 93.186075
loop_
_atom_site_label
_atom_site_type_symbol
_atom_site_fract_x
_atom_site_fract_y
_atom_site_fract_z
_atom_type_partial_charge
C0 C 0.97544 0.28321 0.35303 0.0
C1 C 0.9502 0.28776 0.35833 0.0
C2 C 0.93559 0.26921 0.34518 0.0
C3 C 0.95261 0.25459 0.33244 0.0
N4 N 0.97727 0.26221 0.33723 0.0
Co5 Co 0.00805 0.24941 0.31939 0.0
N6 N 0.98643 0.22629 0.29551 0.0
C7 C 0.96082 0.2218 0.29649 0.0
C8 C 0.9514 0.20383 0.27866 0.0
C9 C 0.9722 0.19634 0.26551 0.0
C10 C 0.99322 0.21047 0.27592 0.0
N11 N 0.03886 0.23769 0.301 0.0
C12 C 0.04065 0.22227 0.27975 0.0
C13 C 0.06581 0.22109 0.27197 0.0
C14 C 0.08042 0.23564 0.28924 0.0
C15 C 0.06347 0.24521 0.30632 0.0
N16 N 0.02961 0.27195 0.34369 0.0
C17 C 0.0553 0.2733 0.34588 0.0
C18 C 0.06456 0.29109 0.36402 0.0
C19 C 0.04353 0.30223 0.37348 0.0
C20 C 0.02267 0.29063 0.36033 0.0
N21 N 0.00984 0.22066 0.34284 0.0
C22 C 0.01257 0.17464 0.36866 0.0
C23 C 0.03451 0.19012 0.36413 0.0
C24 C 0.03274 0.21266 0.35119 0.0
C25 C 0.98914 0.18373 0.36149 0.0
C26 C 0.98823 0.20673 0.34934 0.0
N27 N 0.00618 0.27761 0.29589 0.0
C28 C 0.02523 0.3144 0.27576 0.0
C29 C 0.00258 0.31759 0.26228 0.0
C30 C 0.98188 0.30035 0.26608 0.0
C31 C 0.98399 0.2809 0.28292 0.0
C32 C 0.02664 0.29434 0.29226 0.0
H33 H 0.96739 0.26864 0.28507 0.0
H34 H 0.04442 0.29267 0.30195 0.0
H35 H 0.05028 0.22294 0.34775 0.0
H36 H 0.96972 0.21236 0.34486 0.0
C37 C 0.94604 0.23569 0.31357 0.0
C38 C 0.99714 0.30005 0.36192 0.0
C39 C 0.01921 0.20812 0.26661 0.0
C40 C 0.07011 0.26118 0.32758 0.0
H41 H 0.9429 0.30337 0.36961 0.0
H42 H 0.91498 0.26753 0.34386 0.0
H43 H 0.93173 0.19708 0.2755 0.0
H44 H 0.97184 0.18206 0.25001 0.0
H45 H 0.07302 0.21083 0.2555 0.0
H46 H 0.10095 0.23896 0.28927 0.0
H47 H 0.08431 0.29661 0.36851 0.0
H48 H 0.04359 0.31813 0.38732 0.0
H49 H 0.05316 0.18484 0.37015 0.0
H50 H 0.97137 0.17289 0.36434 0.0
H51 H 0.04178 0.32733 0.27374 0.0
H52 H 0.96408 0.30144 0.25576 0.0
C53 C 0.98273 0.72135 0.12416 0.0
C54 C 0.95853 0.71712 0.11344 0.0
C55 C 0.94447 0.73689 0.12228 0.0
C56 C 0.96073 0.75189 0.13801 0.0
N57 N 0.98403 0.74269 0.13951 0.0
Co58 Co 0.01289 0.75681 0.16112 0.0
N59 N 0.98974 0.77575 0.1836 0.0
C60 C 0.96593 0.78184 0.17751 0.0
C61 C 0.95486 0.79614 0.19642 0.0
C62 C 0.97294 0.79948 0.2154 0.0
C63 C 0.99413 0.78687 0.20702 0.0
N64 N 0.04194 0.77083 0.18256 0.0
C65 C 0.04197 0.78151 0.20643 0.0
C66 C 0.06678 0.78767 0.21496 0.0
C67 C 0.0826 0.78147 0.1953 0.0
C68 C 0.06674 0.77155 0.17603 0.0
N69 N 0.03585 0.73816 0.13836 0.0
C70 C 0.06104 0.74303 0.13559 0.0
C71 C 0.07153 0.72623 0.11837 0.0
C72 C 0.0516 0.70984 0.10996 0.0
C73 C 0.03016 0.71767 0.12263 0.0
N74 N 0.01656 0.78628 0.1399 0.0
C75 C 0.01927 0.82912 0.11053 0.0
C76 C 0.02074 0.83174 0.13703 0.0
C77 C 0.01964 0.81016 0.15131 0.0
C78 C 0.01699 0.80467 0.09881 0.0
C79 C 0.01541 0.78341 0.11391 0.0
N80 N 0.00911 0.72747 0.18258 0.0
C81 C 0.02767 0.6948 0.20611 0.0
C82 C 0.00393 0.68806 0.21674 0.0
C83 C 0.98273 0.70102 0.20902 0.0
C84 C 0.98568 0.72035 0.1918 0.0
C85 C 0.02988 0.71462 0.18928 0.0
H86 H 0.96902 0.73 0.18645 0.0
H87 H 0.04849 0.71982 0.18202 0.0
H88 H 0.02102 0.81291 0.17168 0.0
H89 H 0.01304 0.76469 0.10461 0.0
C90 C 0.95349 0.77084 0.15566 0.0
C91 C 0.00455 0.70569 0.11929 0.0
C92 C 0.01894 0.78847 0.22031 0.0
C93 C 0.07458 0.75925 0.15342 0.0
H94 H 0.95146 0.70141 0.10092 0.0
H95 H 0.92438 0.73912 0.1189 0.0
H96 H 0.93576 0.8029 0.19663 0.0
H97 H 0.9709 0.81049 0.23308 0.0
H98 H 0.07288 0.7961 0.23331 0.0
H99 H 0.10324 0.78321 0.19539 0.0
H100 H 0.09147 0.72501 0.11368 0.0
H101 H 0.0527 0.69379 0.09644 0.0
H102 H 0.02293 0.85042 0.14665 0.0
H103 H 0.01599 0.80207 0.07827 0.0
H104 H 0.04458 0.68508 0.21089 0.0
H105 H 0.96401 0.69695 0.21679 0.0
C106 C 0.36186 0.96598 0.28567 0.0
C107 C 0.36967 0.94142 0.28821 0.0
C108 C 0.3615 0.92748 0.26667 0.0
C109 C 0.34892 0.94408 0.25232 0.0
N110 N 0.34881 0.96757 0.26356 0.0
Co111 Co 0.33086 0.99675 0.251 0.0
N112 N 0.30793 0.97405 0.22874 0.0
C113 C 0.3117 0.94958 0.22177 0.0
C114 C 0.29214 0.93835 0.20703 0.0
C115 C 0.27527 0.95702 0.20422 0.0
C116 C 0.28569 0.97887 0.21714 0.0
N117 N 0.31348 0.02623 0.23832 0.0
C118 C 0.29143 0.02696 0.22491 0.0
C119 C 0.28746 0.05175 0.21827 0.0
C120 C 0.30777 0.06684 0.22778 0.0
C121 C 0.32308 0.05059 0.23955 0.0
N122 N 0.3536 0.01919 0.27343 0.0
C123 C 0.35913 0.0442 0.27111 0.0
C124 C 0.37526 0.05452 0.29007 0.0
C125 C 0.38003 0.03466 0.30519 0.0
C126 C 0.36643 0.01338 0.29455 0.0
N127 N 0.35519 0.99964 0.22322 0.0
C128 C 0.3888 0.00384 0.18266 0.0
C129 C 0.39816 0.00164 0.2074 0.0
C130 C 0.38092 0.99922 0.22748 0.0
C131 C 0.36255 0.00404 0.17862 0.0
C132 C 0.34616 0.00217 0.19907 0.0
N133 N 0.30633 0.99377 0.27845 0.0
C134 C 0.2791 0.0131 0.30946 0.0
C135 C 0.26813 0.98907 0.31498 0.0
C136 C 0.27762 0.96747 0.30258 0.0
C137 C 0.29641 0.97023 0.28428 0.0
C138 C 0.29832 0.015 0.29129 0.0
H139 H 0.30257 0.95325 0.27452 0.0
H140 H 0.30628 0.03369 0.28718 0.0
H141 H 0.38834 0.99708 0.24642 0.0
H142 H 0.3261 0.00288 0.19518 0.0
C143 C 0.33165 0.9369 0.2325 0.0
C144 C 0.36694 0.98767 0.30403 0.0
C145 C 0.27566 0.00439 0.21544 0.0
C146 C 0.34482 0.05785 0.2544 0.0
H147 H 0.37949 0.93392 0.30409 0.0
H148 H 0.3628 0.90718 0.26295 0.0
H149 H 0.28998 0.91873 0.19982 0.0
H150 H 0.25758 0.95487 0.19346 0.0
H151 H 0.27197 0.05828 0.20707 0.0
H152 H 0.31081 0.08726 0.2265 0.0
H153 H 0.38171 0.07432 0.29332 0.0
H154 H 0.39199 0.03569 0.32211 0.0
H155 H 0.41848 0.00153 0.21109 0.0
H156 H 0.35474 0.00608 0.15973 0.0
H157 H 0.27239 0.03039 0.31844 0.0
H158 H 0.27034 0.94844 0.30666 0.0
C159 C 0.63879 0.47315 0.23089 0.0
C160 C 0.62375 0.45127 0.22419 0.0
C161 C 0.63084 0.43284 0.24008 0.0
C162 C 0.64986 0.44435 0.2554 0.0
N163 N 0.65502 0.46883 0.25005 0.0
Co164 Co 0.68185 0.49229 0.26608 0.0
N165 N 0.70075 0.46353 0.27807 0.0
C166 C 0.69135 0.43934 0.27991 0.0
C167 C 0.70929 0.42347 0.28808 0.0
C168 C 0.73117 0.43872 0.2919 0.0
C169 C 0.72526 0.46323 0.28611 0.0
N170 N 0.70817 0.51605 0.28244 0.0
C171 C 0.73167 0.51146 0.29111 0.0
C172 C 0.74319 0.53341 0.30303 0.0
C173 C 0.72621 0.55216 0.30163 0.0
C174 C 0.70525 0.54076 0.28916 0.0
N175 N 0.66297 0.52086 0.25393 0.0
C176 C 0.66461 0.54512 0.26324 0.0
C177 C 0.64926 0.56051 0.25017 0.0
C178 C 0.63732 0.54479 0.23156 0.0
C179 C 0.64616 0.52076 0.23444 0.0
N180 N 0.66268 0.49306 0.29783 0.0
C181 C 0.63653 0.4941 0.34394 0.0
C182 C 0.62365 0.4975 0.32101 0.0
C183 C 0.63705 0.49662 0.29805 0.0
C184 C 0.66262 0.49031 0.34331 0.0
C185 C 0.67531 0.49006 0.32024 0.0
N186 N 0.70147 0.49132 0.2346 0.0
C187 C 0.73118 0.5118 0.20635 0.0
C188 C 0.73594 0.48821 0.19422 0.0
C189 C 0.72167 0.46655 0.20171 0.0
C190 C 0.70471 0.46848 0.22191 0.0
C191 C 0.71375 0.51296 0.22634 0.0
H192 H 0.69495 0.45125 0.22787 0.0
H193 H 0.71101 0.53122 0.23582 0.0
H194 H 0.62677 0.49888 0.28052 0.0
H195 H 0.69549 0.48754 0.32068 0.0
C196 C 0.66712 0.43161 0.26999 0.0
C197 C 0.63757 0.49789 0.2193 0.0
C198 C 0.7423 0.48613 0.29096 0.0
C199 C 0.68423 0.55333 0.2804 0.0
H200 H 0.60956 0.4485 0.2092 0.0
H201 H 0.62415 0.41298 0.23928 0.0
H202 H 0.70703 0.4031 0.29017 0.0
H203 H 0.74927 0.43253 0.29855 0.0
H204 H 0.76167 0.53564 0.31236 0.0
H205 H 0.72904 0.57186 0.30846 0.0
H206 H 0.64789 0.5809 0.25296 0.0
H207 H 0.6238 0.55029 0.21746 0.0
H208 H 0.60341 0.50054 0.32081 0.0
H209 H 0.67334 0.48806 0.36068 0.0
H210 H 0.74166 0.52912 0.20132 0.0
H211 H 0.72405 0.448 0.1925 0.0
C212 C 0.31086 0.38164 0.97973 0.0
C213 C 0.31706 0.39025 0.95589 0.0
C214 C 0.30013 0.37805 0.93898 0.0
C215 C 0.28469 0.36261 0.95328 0.0
N216 N 0.29045 0.3646 0.97842 0.0
Co217 Co 0.2743 0.34408 0.0058 0.0
N218 N 0.25484 0.32089 0.98022 0.0
C219 C 0.25517 0.3224 0.95461 0.0
C220 C 0.24004 0.30384 0.94191 0.0
C221 C 0.22961 0.28942 0.96048 0.0
C222 C 0.23912 0.29999 0.98357 0.0
N223 N 0.25765 0.32421 0.03334 0.0
C224 C 0.24168 0.30301 0.03181 0.0
C225 C 0.23537 0.29489 0.05587 0.0
C226 C 0.24719 0.31189 0.07307 0.0
C227 C 0.26026 0.32919 0.05873 0.0
N228 N 0.29484 0.36639 0.03123 0.0
C229 C 0.29391 0.36586 0.05686 0.0
C230 C 0.31142 0.38246 0.06923 0.0
C231 C 0.32491 0.39372 0.05031 0.0
C232 C 0.31478 0.3832 0.02749 0.0
N233 N 0.24551 0.36743 0.00754 0.0
C234 C 0.19977 0.39344 0.01156 0.0
C235 C 0.21667 0.393 0.03223 0.0
C236 C 0.23915 0.37999 0.02985 0.0
C237 C 0.20715 0.38207 0.98845 0.0
C238 C 0.22999 0.36979 0.98679 0.0
N239 N 0.3024 0.32057 0.004 0.0
C240 C 0.32876 0.29077 0.0239 0.0
C241 C 0.33795 0.28246 1.00019 0.0
C242 C 0.33015 0.29476 0.9787 0.0
C243 C 0.31243 0.31346 0.98098 0.0
C244 C 0.31132 0.30994 0.02538 0.0
H245 H 0.30668 0.32153 0.96376 0.0
H246 H 0.30477 0.31548 0.04391 0.0
H247 H 0.2507 0.38003 0.04653 0.0
H248 H 0.23412 0.36179 0.96854 0.0
C249 C 0.26874 0.34239 0.94322 0.0
C250 C 0.32589 0.38838 0.00285 0.0
C251 C 0.23226 0.28982 0.00816 0.0
C252 C 0.27736 0.34849 0.06857 0.0
H253 H 0.33286 0.403 0.95085 0.0
H254 H 0.30037 0.37885 0.91845 0.0
H255 H 0.23668 0.30132 0.9216 0.0
H256 H 0.21627 0.27313 0.95731 0.0
H257 H 0.22381 0.27818 0.06067 0.0
H258 H 0.247 0.31118 0.0936 0.0
H259 H 0.31465 0.38531 0.08953 0.0
H260 H 0.34097 0.40744 0.05294 0.0
H261 H 0.21249 0.40229 0.0504 0.0
H262 H 0.195 0.38167 0.9717 0.0
H263 H 0.33425 0.28199 0.04118 0.0
H264 H 0.33734 0.28973 0.96 0.0
C265 C 0.22012 0.62352 0.47398 0.0
C266 C 0.21529 0.6118 0.45008 0.0
C267 C 0.23241 0.62266 0.43392 0.0
C268 C 0.24659 0.64039 0.44873 0.0
N269 N 0.23994 0.64111 0.47352 0.0
Co270 Co 0.25428 0.66512 0.50144 0.0
N271 N 0.27522 0.68498 0.47669 0.0
C272 C 0.27622 0.68044 0.45119 0.0
C273 C 0.291 0.6982 0.43897 0.0
C274 C 0.30005 0.71513 0.45775 0.0
C275 C 0.29047 0.70647 0.48053 0.0
N276 N 0.2689 0.68874 0.52952 0.0
C277 C 0.28599 0.70891 0.52857 0.0
C278 C 0.29245 0.71905 0.5528 0.0
C279 C 0.27853 0.70516 0.56957 0.0
C280 C 0.26467 0.6872 0.55478 0.0
N281 N 0.23275 0.64567 0.526 0.0
C282 C 0.23208 0.64945 0.55158 0.0
C283 C 0.21411 0.63401 0.563 0.0
C284 C 0.20209 0.62002 0.54346 0.0
C285 C 0.21352 0.62784 0.52126 0.0
N286 N 0.28312 0.64252 0.5064 0.0
C287 C 0.32872 0.61757 0.51464 0.0
C288 C 0.31269 0.62386 0.53479 0.0
C289 C 0.29011 0.63583 0.53024 0.0
C290 C 0.32059 0.62259 0.49007 0.0
C291 C 0.29799 0.63493 0.48643 0.0
N292 N 0.22597 0.68798 0.49657 0.0
C293 C 0.19667 0.71802 0.51393 0.0
C294 C 0.18872 0.72388 0.48952 0.0
C295 C 0.19907 0.71052 0.46877 0.0
C296 C 0.21754 0.6929 0.47267 0.0
C297 C 0.21496 0.70002 0.517 0.0
H298 H 0.225 0.68369 0.45606 0.0
H299 H 0.2203 0.69645 0.53607 0.0
H300 H 0.27907 0.64003 0.54653 0.0
H301 H 0.29332 0.63856 0.46731 0.0
C302 C 0.26302 0.65936 0.43925 0.0
C303 C 0.20401 0.61944 0.49604 0.0
C304 C 0.29654 0.71915 0.5053 0.0
C305 C 0.24721 0.66894 0.56403 0.0
H306 H 0.20028 0.59776 0.44443 0.0
H307 H 0.23326 0.61926 0.4135 0.0
H308 H 0.29464 0.69886 0.41878 0.0
H309 H 0.31228 0.73196 0.45487 0.0
H310 H 0.30586 0.73485 0.55795 0.0
H311 H 0.27855 0.70782 0.59009 0.0
H312 H 0.20954 0.63376 0.58302 0.0
H313 H 0.18609 0.60634 0.54516 0.0
H314 H 0.31787 0.6205 0.55426 0.0
H315 H 0.33176 0.61737 0.47362 0.0
H316 H 0.18945 0.72779 0.53072 0.0
H317 H 0.19313 0.71371 0.44948 0.0
C318 C 0.7804 0.84672 0.46544 0.0
C319 C 0.78116 0.85446 0.44059 0.0
C320 C 0.75915 0.84437 0.4288 0.0
C321 C 0.74633 0.83088 0.44694 0.0
N322 N 0.75895 0.83199 0.46932 0.0
Co323 Co 0.74904 0.81348 0.49997 0.0
N324 N 0.72666 0.78841 0.47976 0.0
C325 C 0.71731 0.79178 0.4563 0.0
C326 C 0.70119 0.77185 0.44745 0.0
C327 C 0.70006 0.7551 0.46667 0.0
C328 C 0.71571 0.76573 0.48628 0.0
N329 N 0.73934 0.79532 0.53089 0.0
C330 C 0.72842 0.77162 0.53307 0.0
C331 C 0.72632 0.76591 0.55855 0.0
C332 C 0.73517 0.7872 0.57261 0.0
C333 C 0.74259 0.80457 0.55511 0.0
N334 N 0.7713 0.83863 0.51993 0.0
C335 C 0.77028 0.84419 0.54507 0.0
C336 C 0.78881 0.86231 0.55324 0.0
C337 C 0.80229 0.86831 0.53185 0.0
C338 C 0.79118 0.85338 0.51189 0.0
N339 N 0.72007 0.83501 0.5049 0.0
C340 C 0.67669 0.86353 0.50616 0.0
C341 C 0.67496 0.83761 0.51092 0.0
C342 C 0.69677 0.82382 0.51045 0.0
C343 C 0.70078 0.87533 0.50198 0.0
C344 C 0.7223 0.86064 0.50128 0.0
N345 N 0.77764 0.79166 0.49476 0.0
C346 C 0.81137 0.76782 0.51136 0.0
C347 C 0.81572 0.75683 0.48704 0.0
C348 C 0.80129 0.76472 0.46659 0.0
C349 C 0.78225 0.78177 0.47088 0.0
C350 C 0.79244 0.78536 0.51475 0.0
H351 H 0.77094 0.7866 0.45482 0.0
H352 H 0.78934 0.79333 0.53366 0.0
H353 H 0.69452 0.80383 0.51387 0.0
H354 H 0.74061 0.86982 0.49716 0.0
C355 C 0.72648 0.81228 0.44216 0.0
C356 C 0.79954 0.85371 0.48546 0.0
C357 C 0.71702 0.75549 0.51181 0.0
C358 C 0.75615 0.82793 0.56064 0.0
H359 H 0.79609 0.86566 0.4316 0.0
H360 H 0.75409 0.84526 0.40889 0.0
H361 H 0.69164 0.76958 0.42911 0.0
H362 H 0.68843 0.73746 0.46648 0.0
H363 H 0.71871 0.74838 0.56626 0.0
H364 H 0.73673 0.78942 0.59314 0.0
H365 H 0.7931 0.86912 0.57262 0.0
H366 H 0.81865 0.8817 0.53104 0.0
H367 H 0.65672 0.82794 0.51476 0.0
H368 H 0.70282 0.89546 0.49844 0.0
H369 H 0.82186 0.76237 0.52785 0.0
H370 H 0.80435 0.75753 0.4473 0.0
C371 C 0.4892 0.80432 0.87088 0.0
C372 C 0.46591 0.80958 0.88162 0.0
C373 C 0.4487 0.79082 0.8726 0.0
C374 C 0.46245 0.77527 0.85697 0.0
N375 N 0.48753 0.78248 0.85606 0.0
Co376 Co 0.51391 0.76675 0.83397 0.0
N377 N 0.48805 0.74131 0.81782 0.0
C378 C 0.46344 0.73751 0.82478 0.0
C379 C 0.45077 0.71737 0.81183 0.0
C380 C 0.46838 0.70752 0.79578 0.0
C381 C 0.49084 0.72247 0.79967 0.0
N382 N 0.54003 0.75226 0.8107 0.0
C383 C 0.53748 0.734 0.79167 0.0
C384 C 0.56019 0.73154 0.7786 0.0
C385 C 0.57786 0.74817 0.79035 0.0
C386 C 0.56493 0.76013 0.80951 0.0
N387 N 0.53997 0.79131 0.85103 0.0
C388 C 0.56548 0.79192 0.8476 0.0
C389 C 0.57843 0.8116 0.86097 0.0
C390 C 0.56011 0.82458 0.87335 0.0
C391 C 0.53684 0.81192 0.86696 0.0
N392 N 0.52087 0.74129 0.85978 0.0
C393 C 0.52808 0.69896 0.88967 0.0
C394 C 0.54812 0.70981 0.87576 0.0
C395 C 0.54421 0.73092 0.86128 0.0
C396 C 0.50498 0.71088 0.88985 0.0
C397 C 0.50186 0.73188 0.87507 0.0
N398 N 0.50687 0.79173 0.80816 0.0
C399 C 0.52129 0.82527 0.78095 0.0
C400 C 0.49678 0.82646 0.77057 0.0
C401 C 0.47736 0.81016 0.77978 0.0
C402 C 0.48272 0.79328 0.79855 0.0
C403 C 0.52592 0.8078 0.79943 0.0
H404 H 0.46706 0.78146 0.80488 0.0
H405 H 0.54508 0.80757 0.80634 0.0
H406 H 0.56022 0.73796 0.85091 0.0
H407 H 0.48365 0.73967 0.87599 0.0
C408 C 0.45245 0.75399 0.84258 0.0
C409 C 0.51212 0.8212 0.87446 0.0
C410 C 0.51441 0.71775 0.78606 0.0
C411 C 0.57587 0.77769 0.82765 0.0
H412 H 0.46172 0.82563 0.89422 0.0
H413 H 0.42848 0.78909 0.87647 0.0
H414 H 0.43105 0.71066 0.81379 0.0
H415 H 0.46503 0.69108 0.78281 0.0
H416 H 0.56381 0.71878 0.76247 0.0
H417 H 0.59783 0.75096 0.78568 0.0
H418 H 0.59858 0.81709 0.86018 0.0
H419 H 0.56368 0.84214 0.88459 0.0
H420 H 0.56651 0.70146 0.87511 0.0
H421 H 0.48911 0.70376 0.90101 0.0
H422 H 0.53696 0.83774 0.77489 0.0
H423 H 0.45811 0.80994 0.7722 0.0
C424 C 0.53135 0.28961 0.65338 0.0
C425 C 0.55315 0.2938 0.63912 0.0
C426 C 0.56753 0.27299 0.6418 0.0
C427 C 0.55366 0.25732 0.65741 0.0
N428 N 0.53157 0.26705 0.66459 0.0
Co429 Co 0.50592 0.25138 0.68721 0.0
N430 N 0.53134 0.22951 0.70182 0.0
C431 C 0.55362 0.22374 0.69104 0.0
C432 C 0.56684 0.20719 0.70481 0.0
C433 C 0.5518 0.20198 0.72532 0.0
C434 C 0.53015 0.21576 0.72297 0.0
N435 N 0.48006 0.23571 0.70982 0.0
C436 C 0.48323 0.22224 0.73082 0.0
C437 C 0.45979 0.21586 0.74162 0.0
C438 C 0.44145 0.22474 0.72621 0.0
C439 C 0.45457 0.23638 0.70712 0.0
N440 N 0.48064 0.27318 0.67235 0.0
C441 C 0.45512 0.26954 0.67317 0.0
C442 C 0.44274 0.289 0.66287 0.0
C443 C 0.46168 0.30585 0.65515 0.0
C444 C 0.4847 0.29551 0.66087 0.0
N445 N 0.49746 0.22483 0.66097 0.0
C446 C 0.48947 0.18603 0.62359 0.0
C447 C 0.49209 0.21137 0.6168 0.0
C448 C 0.49587 0.23062 0.63591 0.0
C449 C 0.49018 0.18043 0.64921 0.0
C450 C 0.49424 0.20006 0.6676 0.0
N451 N 0.51453 0.27795 0.7133 0.0
C452 C 0.50147 0.30974 0.74395 0.0
C453 C 0.527 0.31747 0.74928 0.0
C454 C 0.54614 0.30491 0.73621 0.0
C455 C 0.53951 0.28512 0.71846 0.0
C456 C 0.49566 0.29002 0.72587 0.0
H457 H 0.55461 0.27575 0.70871 0.0
H458 H 0.47588 0.28459 0.72203 0.0
H459 H 0.49805 0.25012 0.63042 0.0
H460 H 0.49532 0.19505 0.68716 0.0
C461 C 0.56277 0.2366 0.66986 0.0
C462 C 0.51018 0.30662 0.65502 0.0
C463 C 0.50769 0.21292 0.73935 0.0
C464 C 0.44398 0.25163 0.68914 0.0
H465 H 0.55815 0.31018 0.62811 0.0
H466 H 0.58639 0.27031 0.63434 0.0
H467 H 0.58538 0.20006 0.70068 0.0
H468 H 0.55603 0.189 0.73995 0.0
H469 H 0.45617 0.2056 0.75869 0.0
H470 H 0.42104 0.22366 0.72913 0.0
H471 H 0.42244 0.29163 0.66274 0.0
H472 H 0.45857 0.32389 0.64699 0.0
H473 H 0.49152 0.21617 0.59701 0.0
H474 H 0.48819 0.16089 0.65494 0.0
H475 H 0.48605 0.31854 0.75394 0.0
H476 H 0.56612 0.31039 0.73953 0.0
C477 C 0.88068 0.47453 0.78829 0.0
C478 C 0.88791 0.45006 0.79237 0.0
C479 C 0.87466 0.43415 0.77505 0.0
C480 C 0.85998 0.44965 0.76152 0.0
N481 N 0.86366 0.47459 0.76873 0.0
Co482 Co 0.84428 0.50345 0.75638 0.0
N483 N 0.81836 0.47949 0.73825 0.0
C484 C 0.81845 0.45373 0.73663 0.0
C485 C 0.79836 0.44229 0.72286 0.0
C486 C 0.78443 0.46186 0.71549 0.0
C487 C 0.79679 0.48429 0.72535 0.0
N488 N 0.82537 0.53246 0.74369 0.0
C489 C 0.80306 0.53245 0.73045 0.0
C490 C 0.79635 0.55716 0.72644 0.0
C491 C 0.81534 0.57318 0.73685 0.0
C492 C 0.83242 0.55756 0.74691 0.0
N493 N 0.86937 0.52722 0.77575 0.0
C494 C 0.8709 0.55295 0.776 0.0
C495 C 0.88849 0.56401 0.79313 0.0
C496 C 0.89809 0.54414 0.80522 0.0
C497 C 0.88571 0.52212 0.79467 0.0
N498 N 0.86568 0.50436 0.725 0.0
C499 C 0.88889 0.50785 0.67667 0.0
C500 C 0.89102 0.52818 0.69482 0.0
C501 C 0.87941 0.52606 0.71857 0.0
C502 C 0.87635 0.48525 0.68388 0.0
C503 C 0.86547 0.48382 0.70792 0.0
N504 N 0.82293 0.50256 0.78703 0.0
C505 C 0.79966 0.52414 0.82017 0.0
C506 C 0.79055 0.50078 0.82922 0.0
C507 C 0.79882 0.47842 0.81737 0.0
C508 C 0.81472 0.47972 0.79638 0.0
C509 C 0.81586 0.52459 0.79924 0.0
H510 H 0.81996 0.462 0.78779 0.0
H511 H 0.82216 0.5429 0.79291 0.0
H512 H 0.88158 0.54247 0.73109 0.0
H513 H 0.85651 0.46591 0.71174 0.0
C514 C 0.83845 0.441 0.74712 0.0
C515 C 0.88839 0.49698 0.80462 0.0
C516 C 0.78761 0.50964 0.72145 0.0
C517 C 0.8535 0.56599 0.76204 0.0
H518 H 0.90026 0.44394 0.80713 0.0
H519 H 0.87402 0.41352 0.77411 0.0
H520 H 0.7945 0.42214 0.7184 0.0
H521 H 0.76729 0.45978 0.70386 0.0
H522 H 0.7793 0.56317 0.71734 0.0
H523 H 0.81613 0.59382 0.73779 0.0
H524 H 0.8927 0.58415 0.7974 0.0
H525 H 0.91173 0.54565 0.82084 0.0
H526 H 0.90134 0.54589 0.69073 0.0
H527 H 0.87403 0.46876 0.67079 0.0
H528 H 0.79371 0.54199 0.82863 0.0
H529 H 0.79278 0.45988 0.82402 0.0
C530 C 0.16156 0.03197 0.79168 0.0
C531 C 0.15578 0.0564 0.8 0.0
C532 C 0.16525 0.0725 0.78232 0.0
C533 C 0.17606 0.05702 0.76422 0.0
N534 N 0.17353 0.03195 0.76898 0.0
Co535 Co 0.18708 0.00284 0.74823 0.0
N536 N 0.20556 0.02667 0.725 0.0
C537 C 0.20517 0.05242 0.72584 0.0
C538 C 0.22104 0.06375 0.70865 0.0
C539 C 0.2324 0.04416 0.69617 0.0
C540 C 0.22257 0.02179 0.7063 0.0
N541 N 0.20065 0.9737 0.72749 0.0
C542 C 0.21718 0.97377 0.70782 0.0
C543 C 0.22088 0.94919 0.69825 0.0
C544 C 0.20681 0.93303 0.71285 0.0
C545 C 0.19514 0.94855 0.73026 0.0
N546 N 0.16904 0.97905 0.77177 0.0
C547 C 0.16771 0.95327 0.76981 0.0
C548 C 0.15623 0.94211 0.79008 0.0
C549 C 0.15032 0.96189 0.80624 0.0
C550 C 0.15833 0.98415 0.79473 0.0
N551 N 0.15644 0.00174 0.72552 0.0
C552 C 0.11935 0.99946 0.68633 0.0
C553 C 0.12611 0.9774 0.6979 0.0
C554 C 0.14419 0.97904 0.71757 0.0
C555 C 0.12958 0.02284 0.69646 0.0
C556 C 0.14795 0.02352 0.7158 0.0
N557 N 0.21745 0.00399 0.77056 0.0
C558 C 0.2483 0.98275 0.79497 0.0
C559 C 0.26017 0.00619 0.80313 0.0
C560 C 0.25023 0.02844 0.79471 0.0
C561 C 0.22918 0.02691 0.77842 0.0
C562 C 0.22703 0.98209 0.77881 0.0
H563 H 0.22261 0.04452 0.77251 0.0
H564 H 0.21859 0.96373 0.7732 0.0
H565 H 0.14848 0.96152 0.72532 0.0
H566 H 0.15543 0.04191 0.72185 0.0
C567 C 0.19118 0.06554 0.74423 0.0
C568 C 0.15688 0.00964 0.8068 0.0
C569 C 0.23038 0.99643 0.69804 0.0
C570 C 0.18009 0.9401 0.75029 0.0
H571 H 0.14651 0.06207 0.81751 0.0
H572 H 0.16533 0.0931 0.78319 0.0
H573 H 0.22457 0.08394 0.70607 0.0
H574 H 0.2467 0.0463 0.68165 0.0
H575 H 0.23283 0.94348 0.68256 0.0
H576 H 0.20561 0.9124 0.71127 0.0
H577 H 0.15372 0.92197 0.79337 0.0
H578 H 0.14198 0.95992 0.8248 0.0
H579 H 0.11862 0.95872 0.69102 0.0
H580 H 0.12423 0.0406 0.68887 0.0
H581 H 0.2555 0.96499 0.80079 0.0
H582 H 0.25845 0.04708 0.80086 0.0
C583 C 0.73487 0.13989 0.96468 0.0
C584 C 0.72757 0.13062 0.94041 0.0
C585 C 0.74211 0.14409 0.92378 0.0
C586 C 0.75724 0.16085 0.93876 0.0
N587 N 0.75372 0.15849 0.964 0.0
Co588 Co 0.7696 0.18063 0.9926 0.0
N589 N 0.78815 0.20295 0.96812 0.0
C590 C 0.78823 0.19983 0.94243 0.0
C591 C 0.80256 0.21832 0.93072 0.0
C592 C 0.81247 0.23406 0.95006 0.0
C593 C 0.80373 0.22408 0.9726 0.0
N594 N 0.78468 0.20315 0.02129 0.0
C595 C 0.8007 0.22418 0.02076 0.0
C596 C 0.80712 0.2338 0.04519 0.0
C597 C 0.79434 0.21859 0.06166 0.0
C598 C 0.78107 0.20049 0.04652 0.0
N599 N 0.75175 0.15781 0.017 0.0
C600 C 0.75369 0.15901 0.04267 0.0
C601 C 0.73889 0.14058 0.05405 0.0
C602 C 0.72637 0.12712 0.03447 0.0
C603 C 0.73429 0.1383 0.01231 0.0
N604 N 0.79971 0.15923 0.99331 0.0
C605 C 0.84649 0.13531 0.9944 0.0
C606 C 0.83451 0.14289 0.01688 0.0
C607 C 0.8113 0.15448 0.01591 0.0
C608 C 0.83392 0.13863 0.97138 0.0
C609 C 0.8107 0.15041 0.97129 0.0
N610 N 0.73988 0.20235 0.99193 0.0
C611 C 0.70761 0.22573 0.01399 0.0
C612 C 0.70171 0.23823 0.99191 0.0
C613 C 0.71442 0.23123 0.96958 0.0
C614 C 0.73291 0.21316 0.96993 0.0
C615 C 0.72668 0.20813 0.01362 0.0
H616 H 0.74178 0.20869 0.95226 0.0
H617 H 0.73075 0.19973 0.03118 0.0
H618 H 0.80356 0.16003 0.03375 0.0
H619 H 0.80237 0.15261 0.9531 0.0
C620 C 0.77349 0.18021 0.92975 0.0
C621 C 0.7221 0.13218 0.98778 0.0
C622 C 0.81082 0.23528 0.99773 0.0
C623 C 0.76689 0.17957 0.05549 0.0
H624 H 0.71277 0.11623 0.93508 0.0
H625 H 0.74101 0.1426 0.90321 0.0
H626 H 0.80519 0.22032 0.91051 0.0
H627 H 0.82468 0.25104 0.94775 0.0
H628 H 0.82006 0.24986 0.0507 0.0
H629 H 0.7952 0.22011 0.08225 0.0
H630 H 0.73639 0.13814 0.07422 0.0
H631 H 0.71198 0.11177 0.03625 0.0
H632 H 0.84341 0.14084 0.03526 0.0
H633 H 0.8421 0.13248 0.95344 0.0
H634 H 0.69786 0.22969 0.03167 0.0
H635 H 0.71092 0.24022 0.95189 0.0
O636 O 0.11716 0.04758 0.09882 0.0
Zn637 Zn 0.08317 0.0554 0.08425 0.0
O638 O 0.0878 0.07059 0.05155 0.0
Zn639 Zn 0.07577 0.10482 0.05376 0.0
Zn640 Zn 0.12376 0.0721 0.04217 0.0
Zn641 Zn 0.06758 0.05029 0.02606 0.0
O642 O 0.0416 0.10582 0.03626 0.0
O643 O 0.03504 0.0671 0.01798 0.0
O644 O 0.06659 0.07913 0.10989 0.0
O645 O 0.07027 0.11579 0.09041 0.0
O646 O 0.10112 0.13026 0.0391 0.0
O647 O 0.13644 0.10869 0.03856 0.0
O648 O 0.12816 0.0544 0.00727 0.0
O649 O 0.06404 0.0214 0.0803 0.0
O650 O 0.08791 0.04624 0.99408 0.0
O651 O 0.05785 0.01528 0.0386 0.0
C652 C 0.14003 0.04902 0.09098 0.0
C653 C 0.02759 0.08936 0.02326 0.0
C654 C 0.12507 0.1292 0.03599 0.0
C655 C 0.06507 0.10325 0.11002 0.0
C656 C 0.11181 0.04704 0.98999 0.0
C657 C 0.05664 0.00721 0.06106 0.0
O658 O 0.1457 0.05764 0.06936 0.0
O659 O 0.9119 0.4722 0.09612 0.0
Zn660 Zn 0.94893 0.46902 0.0877 0.0
O661 O 0.95249 0.45424 0.05321 0.0
Zn662 Zn 0.9684 0.42177 0.05539 0.0
Zn663 Zn 0.91873 0.44908 0.03723 0.0
Zn664 Zn 0.97399 0.4768 0.03263 0.0
O665 O 0.0032 0.42283 0.03955 0.0
O666 O 0.0088 0.46262 0.02731 0.0
O667 O 0.9642 0.44778 0.1148 0.0
O668 O 0.97348 0.41319 0.09173 0.0
O669 O 0.94637 0.393 0.03948 0.0
O670 O 0.91125 0.41201 0.02889 0.0
O671 O 0.91791 0.46479 0.00307 0.0
O672 O 0.96442 0.50466 0.08984 0.0
O673 O 0.95724 0.48162 0.99802 0.0
O674 O 0.97981 0.511 0.05117 0.0
C675 C 0.89092 0.46918 0.08373 0.0
C676 C 0.01713 0.44063 0.03028 0.0
C677 C 0.9239 0.39219 0.03018 0.0
C678 C 0.97198 0.42523 0.11316 0.0
C679 C 0.93465 0.47606 0.98952 0.0
C680 C 0.97538 0.51895 0.07387 0.0
O681 O 0.89039 0.46118 0.06043 0.0
O682 O 0.09176 0.8952 0.46528 0.0
Zn683 Zn 0.08218 0.93122 0.4601 0.0
O684 O 0.04937 0.93224 0.44268 0.0
Zn685 Zn 0.05353 0.94779 0.40981 0.0
Zn686 Zn 0.0355 0.89721 0.43774 0.0
Zn687 Zn 0.02611 0.95258 0.46286 0.0
O688 O 0.03537 0.98044 0.40794 0.0
O689 O 0.02159 0.98688 0.44741 0.0
O690 O 0.11051 0.94802 0.44009 0.0
O691 O 0.09058 0.95784 0.40472 0.0
O692 O 0.04242 0.92318 0.3807 0.0
O693 O 0.03495 0.88723 0.40081 0.0
O694 O 0.999 0.89438 0.44926 0.0
O695 O 0.08023 0.94791 0.49498 0.0
O696 O 0.99171 0.93318 0.46543 0.0
O697 O 0.0404 0.95993 0.49818 0.0
C698 C 0.07981 0.87348 0.46281 0.0
C699 C 0.02518 0.99444 0.42496 0.0
C700 C 0.03693 0.89929 0.38049 0.0
C701 C 0.11083 0.95728 0.41814 0.0
C702 C 0.98409 0.9102 0.45937 0.0
C703 C 0.06242 0.95759 0.50784 0.0
O704 O 0.05712 0.87128 0.45386 0.0
O705 O 0.97564 0.5936 0.39045 0.0
Zn706 Zn 0.97173 0.58474 0.42701 0.0
O707 O 0.95676 0.55018 0.42959 0.0
Zn708 Zn 0.92279 0.55159 0.4445 0.0
Zn709 Zn 0.95503 0.53404 0.39541 0.0
Zn710 Zn 0.97776 0.53011 0.45105 0.0
O711 O 0.92107 0.53504 0.47848 0.0
O712 O 0.96109 0.52516 0.48508 0.0
O713 O 0.94949 0.61121 0.44312 0.0
O714 O 0.91446 0.58798 0.45242 0.0
O715 O 0.8958 0.5356 0.42016 0.0
O716 O 0.91875 0.52498 0.38627 0.0
O717 O 0.97048 0.50006 0.3943 0.0
O718 O 0.00698 0.58731 0.44271 0.0
O719 O 0.98335 0.49512 0.43404 0.0
O720 O 0.01153 0.54906 0.45823 0.0
C721 C 0.97515 0.58083 0.36928 0.0
C722 C 0.93829 0.52701 0.49279 0.0
C723 C 0.89752 0.52604 0.39756 0.0
C724 C 0.92684 0.60944 0.45164 0.0
C725 C 0.97972 0.48648 0.41113 0.0
C726 C 0.02017 0.5716 0.45411 0.0
O727 O 0.96931 0.55694 0.36809 0.0
O728 O 0.39985 0.96866 0.59224 0.0
Zn729 Zn 0.43615 0.96178 0.5833 0.0
O730 O 0.43702 0.9427 0.5505 0.0
Zn731 Zn 0.4515 0.91021 0.55616 0.0
Zn732 Zn 0.40257 0.93693 0.53623 0.0
Zn733 Zn 0.45837 0.96148 0.52653 0.0
O734 O 0.48665 0.90928 0.54158 0.0
O735 O 0.49209 0.94492 0.52078 0.0
O736 O 0.45015 0.94242 0.61255 0.0
O737 O 0.45528 0.90469 0.59325 0.0
O738 O 0.42911 0.88078 0.54186 0.0
O739 O 0.39433 0.89957 0.52991 0.0
O740 O 0.39996 0.95141 0.50145 0.0
O741 O 0.45487 0.99589 0.58115 0.0
O742 O 0.43984 0.96467 0.49301 0.0
O743 O 0.46649 0.99713 0.54064 0.0
C744 C 0.37812 0.96306 0.58188 0.0
C745 C 0.50045 0.92421 0.52835 0.0
C746 C 0.40664 0.8797 0.5325 0.0
C747 C 0.45535 0.91908 0.61335 0.0
C748 C 0.41651 0.96071 0.48635 0.0
C749 C 0.46483 0.00773 0.56278 0.0
O750 O 0.37598 0.95074 0.56041 0.0
O751 O 0.60383 0.5377 0.6358 0.0
Zn752 Zn 0.56742 0.54074 0.62335 0.0
O753 O 0.56759 0.55098 0.58824 0.0
Zn754 Zn 0.55572 0.5851 0.58669 0.0
Zn755 Zn 0.60207 0.55027 0.5753 0.0
Zn756 Zn 0.54545 0.5277 0.56719 0.0
O757 O 0.52067 0.58418 0.57036 0.0
O758 O 0.51169 0.54317 0.56012 0.0
O759 O 0.55132 0.5669 0.64683 0.0
O760 O 0.5516 0.60023 0.62222 0.0
O761 O 0.58092 0.60824 0.56842 0.0
O762 O 0.61573 0.58597 0.56963 0.0
O763 O 0.60236 0.53236 0.54048 0.0
O764 O 0.54984 0.50557 0.62544 0.0
O765 O 0.56171 0.52011 0.53332 0.0
O766 O 0.53987 0.49474 0.58492 0.0
C767 C 0.62455 0.53383 0.62411 0.0
C768 C 0.50525 0.56623 0.56164 0.0
C769 C 0.60481 0.60636 0.56526 0.0
C770 C 0.5484 0.59048 0.64377 0.0
C771 C 0.58468 0.52249 0.52579 0.0
C772 C 0.54145 0.48929 0.60822 0.0
O773 O 0.62616 0.53527 0.60005 0.0
O774 O 0.61843 0.41877 0.98457 0.0
Zn775 Zn 0.61111 0.45585 0.98392 0.0
O776 O 0.57823 0.46046 0.96786 0.0
Zn777 Zn 0.58408 0.47642 0.93561 0.0
Zn778 Zn 0.56119 0.42676 0.96203 0.0
Zn779 Zn 0.55702 0.48223 0.98941 0.0
O780 O 0.56793 0.50989 0.93494 0.0
O781 O 0.5525 0.51655 0.97367 0.0
O782 O 0.64052 0.47278 0.96537 0.0
O783 O 0.62125 0.48452 0.93048 0.0
O784 O 0.57136 0.45375 0.90581 0.0
O785 O 0.55649 0.4192 0.92472 0.0
O786 O 0.52579 0.42606 0.97584 0.0
O787 O 0.61045 0.46937 0.02007 0.0
O788 O 0.52163 0.46479 0.99367 0.0
O789 O 0.57371 0.48839 0.0242 0.0
C790 C 0.60479 0.39804 0.98182 0.0
C791 C 0.55716 0.52407 0.95137 0.0
C792 C 0.56095 0.43129 0.90471 0.0
C793 C 0.64135 0.48273 0.94378 0.0
C794 C 0.51239 0.44242 0.98723 0.0
C795 C 0.59477 0.48178 0.0334 0.0
O796 O 0.58138 0.39802 0.97517 0.0
O797 O 0.48698 0.11318 0.9096 0.0
Zn798 Zn 0.48493 0.10318 0.94581 0.0
O799 O 0.47049 0.06866 0.94787 0.0
Zn800 Zn 0.43686 0.07006 0.96298 0.0
Zn801 Zn 0.4697 0.05256 0.91359 0.0
Zn802 Zn 0.49132 0.04866 0.96909 0.0
O803 O 0.43582 0.0541 0.99715 0.0
O804 O 0.47564 0.04353 0.00325 0.0
O805 O 0.46361 0.12921 0.96351 0.0
O806 O 0.42765 0.10638 0.97012 0.0
O807 O 0.41056 0.05264 0.93916 0.0
O808 O 0.43331 0.04187 0.90513 0.0
O809 O 0.48803 0.01974 0.91161 0.0
O810 O 0.52072 0.10506 0.95936 0.0
O811 O 0.49525 0.01366 0.95253 0.0
O812 O 0.52577 0.06669 0.97439 0.0
C813 C 0.487 0.10075 0.88829 0.0
C814 C 0.45299 0.04558 0.0112 0.0
C815 C 0.41215 0.04254 0.91676 0.0
C816 C 0.44049 0.12767 0.9707 0.0
C817 C 0.49484 0.00575 0.92927 0.0
C818 C 0.53442 0.08908 0.9697 0.0
O819 O 0.48255 0.07665 0.8866 0.0
C820 C 0.03542 0.13436 0.37536 0.0
C821 C 0.01406 0.14891 0.37971 0.0
C822 C 0.03656 0.10972 0.38441 0.0
C823 C 0.01545 0.09875 0.39736 0.0
C824 C 0.99388 0.11319 0.40196 0.0
C825 C 0.99366 0.13819 0.3936 0.0
C826 C 0.06026 0.09526 0.3797 0.0
C827 C 0.97071 0.102 0.41515 0.0
C828 C 0.01112 0.02619 0.39464 0.0
C829 C 0.01984 0.02085 0.41896 0.0
C830 C 0.0085 0.05143 0.38778 0.0
C831 C 0.01572 0.07187 0.40534 0.0
C832 C 0.02425 0.06654 0.43006 0.0
C833 C 0.02579 0.04107 0.43671 0.0
C834 C 0.99849 0.05621 0.36154 0.0
C835 C 0.03295 0.08772 0.44905 0.0
H836 H 0.05117 0.14187 0.36431 0.0
H837 H 0.97728 0.14918 0.39785 0.0
H838 H 0.06719 0.0878 0.39774 0.0
H839 H 0.05575 0.07864 0.36635 0.0
H840 H 0.07589 0.10729 0.37151 0.0
H841 H 0.95534 0.11562 0.4171 0.0
H842 H 0.96304 0.08463 0.40425 0.0
H843 H 0.97602 0.09614 0.43437 0.0
H844 H 0.00649 0.01058 0.3809 0.0
H845 H 0.03292 0.037 0.4554 0.0
H846 H 0.01383 0.06547 0.35026 0.0
H847 H 0.98272 0.06939 0.36289 0.0
H848 H 0.99143 0.03833 0.35109 0.0
H849 H 0.04982 0.09848 0.44154 0.0
H850 H 0.03814 0.08045 0.46778 0.0
H851 H 0.01779 0.10139 0.45193 0.0
C852 C 0.0068 0.34633 0.35556 0.0
C853 C 0.99427 0.3274 0.3695 0.0
C854 C 0.00577 0.37224 0.36294 0.0
C855 C 0.99132 0.37947 0.38446 0.0
C856 C 0.97858 0.36038 0.39858 0.0
C857 C 0.98065 0.33453 0.39122 0.0
C858 C 0.02015 0.39188 0.34771 0.0
C859 C 0.96248 0.36727 0.42125 0.0
C860 C 0.0023 0.44601 0.41616 0.0
C861 C 0.98353 0.45932 0.40422 0.0
C862 C 0.00537 0.42008 0.40966 0.0
C863 C 0.98868 0.40701 0.39148 0.0
C864 C 0.96944 0.42033 0.37974 0.0
C865 C 0.96736 0.44634 0.38596 0.0
C866 C 0.02661 0.40674 0.42204 0.0
C867 C 0.95078 0.40702 0.36082 0.0
H868 H 0.01763 0.34075 0.33894 0.0
H869 H 0.97167 0.31987 0.40247 0.0
H870 H 0.00655 0.40422 0.33872 0.0
H871 H 0.0329 0.40436 0.36045 0.0
H872 H 0.03181 0.38302 0.33253 0.0
H873 H 0.95343 0.35019 0.42989 0.0
H874 H 0.97435 0.37821 0.43597 0.0
H875 H 0.94727 0.3797 0.41542 0.0
H876 H 0.01483 0.45599 0.43026 0.0
H877 H 0.95252 0.45643 0.37695 0.0
H878 H 0.0391 0.39857 0.40721 0.0
H879 H 0.01856 0.39066 0.4329 0.0
H880 H 0.03845 0.41977 0.43517 0.0
H881 H 0.96112 0.39956 0.344 0.0
H882 H 0.93625 0.41986 0.3542 0.0
H883 H 0.94083 0.39046 0.36952 0.0
C884 C 0.00208 0.87019 0.09934 0.0
C885 C 0.02058 0.85224 0.09573 0.0
C886 C 0.00554 0.89455 0.08979 0.0
C887 C 0.02833 0.90119 0.07688 0.0
C888 C 0.04628 0.8825 0.07176 0.0
C889 C 0.04208 0.85809 0.08116 0.0
C890 C 0.98574 0.91375 0.09529 0.0
C891 C 0.07092 0.88888 0.05829 0.0
C892 C 0.03596 0.96497 0.04556 0.0
C893 C 0.04832 0.98031 0.06499 0.0
C894 C 0.02909 0.93915 0.0491 0.0
C895 C 0.03512 0.92843 0.07244 0.0
C896 C 0.0476 0.94383 0.09207 0.0
C897 C 0.05385 0.96956 0.08817 0.0
C898 C 0.01543 0.92335 0.02795 0.0
C899 C 0.05462 0.93309 0.11718 0.0
H900 H 0.98545 0.8655 0.11066 0.0
H901 H 0.05644 0.84416 0.07864 0.0
H902 H 0.99299 0.92774 0.11045 0.0
H903 H 0.98189 0.92448 0.07815 0.0
H904 H 0.96752 0.90456 0.10176 0.0
H905 H 0.08108 0.87154 0.0527 0.0
H906 H 0.06734 0.89953 0.04104 0.0
H907 H 0.08362 0.90134 0.07112 0.0
H908 H 0.0316 0.97314 0.0276 0.0
H909 H 0.0636 0.98115 0.10323 0.0
H910 H 0.99696 0.9152 0.03487 0.0
H911 H 0.02693 0.90711 0.02191 0.0
H912 H 0.01173 0.93464 0.01111 0.0
H913 H 0.03716 0.92577 0.12679 0.0
H914 H 0.06485 0.9475 0.13023 0.0
H915 H 0.06694 0.91681 0.11389 0.0
C916 C 0.01152 0.66082 0.12851 0.0
C917 C 0.00141 0.67819 0.11237 0.0
C918 C 0.00913 0.63458 0.12245 0.0
C919 C 0.99588 0.62568 0.09995 0.0
C920 C 0.986 0.64326 0.08338 0.0
C921 C 0.98941 0.66943 0.08955 0.0
C922 C 0.02057 0.61644 0.14018 0.0
C923 C 0.97141 0.63443 0.05942 0.0
C924 C 0.00294 0.55891 0.07154 0.0
C925 C 0.98158 0.54584 0.08145 0.0
C926 C 0.00837 0.58481 0.0781 0.0
C927 C 0.99149 0.59796 0.09417 0.0
C928 C 0.9699 0.58478 0.10421 0.0
C929 C 0.96543 0.55874 0.09804 0.0
C930 C 0.03203 0.59812 0.06774 0.0
C931 C 0.95112 0.59835 0.12087 0.0
H932 H 0.02123 0.66782 0.14595 0.0
H933 H 0.9827 0.68303 0.07655 0.0
H934 H 0.00522 0.6042 0.1485 0.0
H935 H 0.03323 0.60366 0.12947 0.0
H936 H 0.03173 0.62659 0.15597 0.0
H937 H 0.96458 0.65059 0.04886 0.0
H938 H 0.98363 0.62312 0.04665 0.0
H939 H 0.95468 0.62181 0.06427 0.0
H940 H 0.0155 0.54881 0.05886 0.0
H941 H 0.94876 0.54864 0.10549 0.0
H942 H 0.04359 0.60768 0.08355 0.0
H943 H 0.0266 0.61312 0.05493 0.0
H944 H 0.04407 0.58474 0.05697 0.0
H945 H 0.96094 0.60724 0.13807 0.0
H946 H 0.93521 0.5853 0.127 0.0
H947 H 0.943 0.6139 0.11039 0.0
C948 C 0.42017 0.02964 0.15805 0.0
C949 C 0.40573 0.00677 0.16068 0.0
C950 C 0.43112 0.03538 0.13459 0.0
C951 C 0.42761 0.01767 0.11354 0.0
C952 C 0.4147 0.99371 0.11679 0.0
C953 C 0.40369 0.98865 0.14032 0.0
C954 C 0.44464 0.06117 0.13184 0.0
C955 C 0.41085 0.97417 0.09495 0.0
C956 C 0.42259 0.04301 0.04749 0.0
C957 C 0.44664 0.03842 0.03743 0.0
C958 C 0.41637 0.03665 0.07235 0.0
C959 C 0.43458 0.02528 0.08753 0.0
C960 C 0.45891 0.02062 0.07758 0.0
C961 C 0.46468 0.0273 0.05265 0.0
C962 C 0.3902 0.042 0.08233 0.0
C963 C 0.47871 0.00837 0.09317 0.0
H964 H 0.42136 0.04373 0.1738 0.0
H965 H 0.39233 0.97104 0.14247 0.0
H966 H 0.46287 0.05926 0.12162 0.0
H967 H 0.43256 0.07307 0.12036 0.0
H968 H 0.44865 0.07131 0.15056 0.0
H969 H 0.4035 0.95537 0.10143 0.0
H970 H 0.39695 0.98091 0.08112 0.0
H971 H 0.429 0.97164 0.08475 0.0
H972 H 0.40856 0.05169 0.03596 0.0
H973 H 0.48333 0.02367 0.04508 0.0
H974 H 0.39197 0.05427 0.10006 0.0
H975 H 0.37989 0.0239 0.08712 0.0
H976 H 0.3785 0.05159 0.06835 0.0
H977 H 0.48266 0.01979 0.11118 0.0
H978 H 0.49692 0.00649 0.08282 0.0
H979 H 0.47137 0.98914 0.09838 0.0
C980 C 0.605 0.49193 0.18424 0.0
C981 C 0.62966 0.49991 0.19249 0.0
C982 C 0.59843 0.49132 0.15833 0.0
C983 C 0.61672 0.49992 0.14057 0.0
C984 C 0.64102 0.50994 0.14919 0.0
C985 C 0.64729 0.50958 0.17511 0.0
C986 C 0.57246 0.48015 0.14986 0.0
C987 C 0.66077 0.51998 0.13095 0.0
C988 C 0.61359 0.46929 0.07404 0.0
C989 C 0.60064 0.48707 0.06062 0.0
C990 C 0.61871 0.47322 0.10012 0.0
C991 C 0.61139 0.4959 0.11289 0.0
C992 C 0.59881 0.51425 0.09932 0.0
C993 C 0.59315 0.5094 0.07333 0.0
C994 C 0.63157 0.45288 0.11406 0.0
C995 C 0.59151 0.53901 0.1122 0.0
H996 H 0.59106 0.48557 0.19798 0.0
H997 H 0.66624 0.51619 0.18174 0.0
H998 H 0.56284 0.49348 0.13774 0.0
H999 H 0.57465 0.4623 0.13818 0.0
H1000 H 0.55995 0.47574 0.16619 0.0
H1001 H 0.67726 0.53021 0.14103 0.0
H1002 H 0.66795 0.5039 0.11919 0.0
H1003 H 0.65219 0.53309 0.1178 0.0
H1004 H 0.61915 0.45189 0.06425 0.0
H1005 H 0.58329 0.52322 0.06285 0.0
H1006 H 0.61946 0.44652 0.13001 0.0
H1007 H 0.64999 0.46074 0.12239 0.0
H1008 H 0.63529 0.436 0.10143 0.0
H1009 H 0.57785 0.53515 0.12769 0.0
H1010 H 0.58271 0.55169 0.09872 0.0
H1011 H 0.60864 0.54925 0.12105 0.0
C1012 C 0.35969 0.99461 0.35059 0.0
C1013 C 0.37435 0.98428 0.33096 0.0
C1014 C 0.3664 0.99211 0.37623 0.0
C1015 C 0.38799 0.97848 0.38231 0.0
C1016 C 0.40301 0.96828 0.36247 0.0
C1017 C 0.39637 0.9719 0.33704 0.0
C1018 C 0.3504 0.00405 0.39677 0.0
C1019 C 0.4259 0.95324 0.36808 0.0
C1020 C 0.41989 0.98659 0.44768 0.0
C1021 C 0.40862 0.96592 0.46014 0.0
C1022 C 0.41279 0.99139 0.4226 0.0
C1023 C 0.3947 0.97454 0.40939 0.0
C1024 C 0.38341 0.95353 0.42188 0.0
C1025 C 0.39018 0.94974 0.44725 0.0
C1026 C 0.42461 0.01449 0.41026 0.0
C1027 C 0.36465 0.93468 0.40825 0.0
H1028 H 0.34295 0.00467 0.34582 0.0
H1029 H 0.40842 0.96502 0.32188 0.0
H1030 H 0.34145 0.98903 0.40842 0.0
H1031 H 0.36265 0.01684 0.40971 0.0
H1032 H 0.33509 0.01521 0.38884 0.0
H1033 H 0.43492 0.94568 0.35047 0.0
H1034 H 0.44037 0.96541 0.37914 0.0
H1035 H 0.42015 0.937 0.3799 0.0
H1036 H 0.43403 0.99922 0.45769 0.0
H1037 H 0.38163 0.93358 0.45678 0.0
H1038 H 0.40944 0.02618 0.40294 0.0
H1039 H 0.43618 0.00843 0.39376 0.0
H1040 H 0.43704 0.02661 0.42367 0.0
H1041 H 0.34786 0.94454 0.40166 0.0
H1042 H 0.35792 0.91911 0.42054 0.0
H1043 H 0.37367 0.92611 0.39112 0.0
C1044 C 0.61053 0.51678 0.37651 0.0
C1045 C 0.62354 0.49525 0.3688 0.0
C1046 C 0.60204 0.52002 0.40166 0.0
C1047 C 0.60642 0.5011 0.41929 0.0
C1048 C 0.61815 0.47862 0.41107 0.0
C1049 C 0.62672 0.47605 0.38596 0.0
C1050 C 0.58975 0.54433 0.40974 0.0
C1051 C 0.62283 0.45784 0.42912 0.0
C1052 C 0.61464 0.52227 0.48901 0.0
C1053 C 0.59059 0.51551 0.49889 0.0
C1054 C 0.61996 0.51767 0.46316 0.0
C1055 C 0.60086 0.5058 0.44676 0.0
C1056 C 0.57673 0.49843 0.45665 0.0
C1057 C 0.57184 0.50346 0.48258 0.0
C1058 C 0.64594 0.52589 0.45333 0.0
C1059 C 0.55601 0.48549 0.43979 0.0
H1060 H 0.60828 0.53171 0.36329 0.0
H1061 H 0.63666 0.45931 0.3799 0.0
H1062 H 0.57166 0.53999 0.41981 0.0
H1063 H 0.6026 0.5558 0.42325 0.0
H1064 H 0.58568 0.55607 0.39332 0.0
H1065 H 0.62964 0.44046 0.41912 0.0
H1066 H 0.63739 0.46487 0.44356 0.0
H1067 H 0.60512 0.45256 0.43945 0.0
H1068 H 0.62923 0.53169 0.50136 0.0
H1069 H 0.5532 0.49814 0.49 0.0
H1070 H 0.6439 0.53964 0.43817 0.0
H1071 H 0.65528 0.5092 0.44474 0.0
H1072 H 0.65864 0.53497 0.46855 0.0
H1073 H 0.55094 0.49823 0.42453 0.0
H1074 H 0.5385 0.48034 0.45055 0.0
H1075 H 0.56297 0.46792 0.43037 0.0
C1076 C 0.16052 0.40223 0.03702 0.0
C1077 C 0.17412 0.40427 0.01424 0.0
C1078 C 0.13553 0.41024 0.03912 0.0
C1079 C 0.12344 0.41989 0.01774 0.0
C1080 C 0.13712 0.42257 0.99488 0.0
C1081 C 0.16238 0.41515 0.99355 0.0
C1082 C 0.12178 0.4076 0.06405 0.0
C1083 C 0.12478 0.4324 0.97152 0.0
C1084 C 0.05112 0.41143 0.01733 0.0
C1085 C 0.04409 0.436 0.02467 0.0
C1086 C 0.07684 0.4062 0.01403 0.0
C1087 C 0.09605 0.42585 0.01896 0.0
C1088 C 0.08904 0.4508 0.02604 0.0
C1089 C 0.06309 0.45566 0.02846 0.0
C1090 C 0.08347 0.37951 0.00577 0.0
C1091 C 0.10895 0.47208 0.0321 0.0
H1092 H 0.16902 0.39356 0.05308 0.0
H1093 H 0.17276 0.41751 0.97604 0.0
H1094 H 0.11329 0.42579 0.06994 0.0
H1095 H 0.10593 0.39281 0.06171 0.0
H1096 H 0.13462 0.40219 0.07954 0.0
H1097 H 0.13826 0.4341 0.95545 0.0
H1098 H 0.10839 0.41929 0.9653 0.0
H1099 H 0.11719 0.45133 0.97597 0.0
H1100 H 0.03646 0.39623 0.01426 0.0
H1101 H 0.05773 0.47461 0.03443 0.0
H1102 H 0.09396 0.37092 0.02131 0.0
H1103 H 0.09619 0.38001 0.98905 0.0
H1104 H 0.06627 0.36696 0.00076 0.0
H1105 H 0.12038 0.46741 0.04892 0.0
H1106 H 0.10037 0.49065 0.03622 0.0
H1107 H 0.1223 0.47415 0.01602 0.0
C1108 C 0.16893 0.5873 0.48256 0.0
C1109 C 0.17661 0.61165 0.49253 0.0
C1110 C 0.14313 0.58073 0.47725 0.0
C1111 C 0.12462 0.59861 0.48321 0.0
C1112 C 0.13224 0.62271 0.49476 0.0
C1113 C 0.15824 0.62908 0.49897 0.0
C1114 C 0.1358 0.55505 0.46443 0.0
C1115 C 0.113 0.64194 0.5022 0.0
C1116 C 0.06225 0.59356 0.44603 0.0
C1117 C 0.04646 0.5794 0.46209 0.0
C1118 C 0.08783 0.59981 0.45264 0.0
C1119 C 0.09745 0.5925 0.47628 0.0
C1120 C 0.08126 0.57893 0.49296 0.0
C1121 C 0.05603 0.57208 0.48541 0.0
C1122 C 0.10471 0.61363 0.43403 0.0
C1123 C 0.09059 0.57167 0.51871 0.0
H1124 H 0.18321 0.57365 0.47832 0.0
H1125 H 0.16432 0.64783 0.50699 0.0
H1126 H 0.12191 0.54431 0.47619 0.0
H1127 H 0.12637 0.55769 0.44585 0.0
H1128 H 0.15255 0.54336 0.46108 0.0
H1129 H 0.12187 0.65878 0.51314 0.0
H1130 H 0.10375 0.64862 0.48489 0.0
H1131 H 0.09776 0.63299 0.51386 0.0
H1132 H 0.05481 0.59899 0.4279 0.0
H1133 H 0.04365 0.56129 0.49788 0.0
H1134 H 0.12121 0.60212 0.42908 0.0
H1135 H 0.11246 0.63204 0.44284 0.0
H1136 H 0.09438 0.61745 0.41622 0.0
H1137 H 0.10597 0.55815 0.51637 0.0
H1138 H 0.07511 0.56266 0.53007 0.0
H1139 H 0.09883 0.58881 0.52959 0.0
C1140 C 0.83279 0.88334 0.46666 0.0
C1141 C 0.82648 0.86147 0.47997 0.0
C1142 C 0.8584 0.89121 0.46267 0.0
C1143 C 0.87809 0.87748 0.47321 0.0
C1144 C 0.87173 0.85567 0.48716 0.0
C1145 C 0.84599 0.84782 0.49018 0.0
C1146 C 0.86437 0.9143 0.44732 0.0
C1147 C 0.89207 0.84087 0.49925 0.0
C1148 C 0.94506 0.88329 0.44642 0.0
C1149 C 0.95707 0.90182 0.46318 0.0
C1150 C 0.91927 0.87551 0.44922 0.0
C1151 C 0.90534 0.88596 0.46974 0.0
C1152 C 0.91749 0.90441 0.48696 0.0
C1153 C 0.94312 0.91243 0.48323 0.0
C1154 C 0.90684 0.85633 0.43006 0.0
C1155 C 0.9035 0.91547 0.50949 0.0
H1156 H 0.81773 0.89459 0.4598 0.0
H1157 H 0.84102 0.83115 0.50087 0.0
H1158 H 0.87434 0.92958 0.45949 0.0
H1159 H 0.87739 0.90938 0.43154 0.0
H1160 H 0.84693 0.92191 0.43915 0.0
H1161 H 0.88389 0.82462 0.50987 0.0
H1162 H 0.90496 0.83337 0.48445 0.0
H1163 H 0.90389 0.85366 0.51257 0.0
H1164 H 0.95571 0.87524 0.43072 0.0
H1165 H 0.9524 0.92666 0.49629 0.0
H1166 H 0.89 0.86442 0.42124 0.0
H1167 H 0.89992 0.839 0.43969 0.0
H1168 H 0.92011 0.85064 0.41473 0.0
H1169 H 0.8869 0.92561 0.50286 0.0
H1170 H 0.91591 0.929 0.52157 0.0
H1171 H 0.89599 0.89991 0.52137 0.0
C1172 C 0.35763 0.59088 0.53952 0.0
C1173 C 0.35413 0.60708 0.51943 0.0
C1174 C 0.38192 0.58292 0.54577 0.0
C1175 C 0.40326 0.59088 0.53128 0.0
C1176 C 0.39975 0.60628 0.51031 0.0
C1177 C 0.37534 0.61439 0.5048 0.0
C1178 C 0.38485 0.5667 0.56843 0.0
C1179 C 0.42194 0.61489 0.49414 0.0
C1180 C 0.46897 0.59516 0.56262 0.0
C1181 C 0.47918 0.57236 0.55367 0.0
C1182 C 0.44424 0.60123 0.55567 0.0
C1183 C 0.42944 0.58435 0.53895 0.0
C1184 C 0.43969 0.56141 0.52964 0.0
C1185 C 0.46434 0.55556 0.53731 0.0
C1186 C 0.43389 0.62568 0.56639 0.0
C1187 C 0.42469 0.54316 0.5114 0.0
H1188 H 0.3414 0.58459 0.55065 0.0
H1189 H 0.37311 0.62717 0.48949 0.0
H1190 H 0.39428 0.549 0.56271 0.0
H1191 H 0.39726 0.5772 0.58304 0.0
H1192 H 0.36626 0.5614 0.57723 0.0
H1193 H 0.41572 0.62483 0.47718 0.0
H1194 H 0.43522 0.62806 0.50561 0.0
H1195 H 0.43278 0.5983 0.48766 0.0
H1196 H 0.48019 0.60816 0.57544 0.0
H1197 H 0.47213 0.53797 0.5302 0.0
H1198 H 0.41594 0.62141 0.57674 0.0
H1199 H 0.42924 0.63807 0.5507 0.0
H1200 H 0.44761 0.63646 0.57962 0.0
H1201 H 0.40658 0.53648 0.52026 0.0
H1202 H 0.43547 0.52628 0.50565 0.0
H1203 H 0.41959 0.55307 0.49406 0.0
C1204 C 0.55351 0.66974 0.91518 0.0
C1205 C 0.53075 0.67462 0.9026 0.0
C1206 C 0.55694 0.64595 0.92542 0.0
C1207 C 0.53713 0.62654 0.92304 0.0
C1208 C 0.51376 0.63167 0.91125 0.0
C1209 C 0.51088 0.65558 0.90114 0.0
C1210 C 0.58214 0.64125 0.93789 0.0
C1211 C 0.4922 0.6115 0.90825 0.0
C1212 C 0.55639 0.55803 0.91968 0.0
C1213 C 0.55105 0.55013 0.94431 0.0
C1214 C 0.5519 0.58276 0.91262 0.0
C1215 C 0.54173 0.60021 0.93058 0.0
C1216 C 0.53601 0.5924 0.95541 0.0
C1217 C 0.54075 0.56744 0.962 0.0
C1218 C 0.55822 0.59026 0.88592 0.0
C1219 C 0.52505 0.61048 0.97501 0.0
H1220 H 0.56881 0.68445 0.91675 0.0
H1221 H 0.49335 0.65899 0.89116 0.0
H1222 H 0.57899 0.6334 0.95689 0.0
H1223 H 0.59214 0.62689 0.92619 0.0
H1224 H 0.59476 0.65889 0.94015 0.0
H1225 H 0.47444 0.61924 0.90092 0.0
H1226 H 0.49784 0.59598 0.89479 0.0
H1227 H 0.48808 0.60289 0.92672 0.0
H1228 H 0.56433 0.5449 0.90578 0.0
H1229 H 0.53658 0.56159 0.98108 0.0
H1230 H 0.57249 0.60665 0.8866 0.0
H1231 H 0.5409 0.59643 0.87629 0.0
H1232 H 0.56596 0.5744 0.87421 0.0
H1233 H 0.53837 0.62743 0.97848 0.0
H1234 H 0.5214 0.60143 0.99339 0.0
H1235 H 0.50688 0.61737 0.96781 0.0
C1236 C 0.49515 0.86421 0.86957 0.0
C1237 C 0.50978 0.84822 0.88359 0.0
C1238 C 0.49271 0.88977 0.87764 0.0
C1239 C 0.50594 0.89978 0.8998 0.0
C1240 C 0.52072 0.88365 0.91404 0.0
C1241 C 0.52184 0.85785 0.90615 0.0
C1242 C 0.47587 0.906 0.86251 0.0
C1243 C 0.53567 0.8937 0.93737 0.0
C1244 C 0.51723 0.97198 0.90484 0.0
C1245 C 0.49912 0.97879 0.9229 0.0
C1246 C 0.5203 0.94622 0.8978 0.0
C1247 C 0.50403 0.92705 0.90823 0.0
C1248 C 0.48553 0.934 0.92633 0.0
C1249 C 0.48366 0.95979 0.93382 0.0
C1250 C 0.54087 0.93952 0.87917 0.0
C1251 C 0.46712 0.91432 0.93712 0.0
H1252 H 0.48556 0.85662 0.85228 0.0
H1253 H 0.53253 0.84527 0.91738 0.0
H1254 H 0.46149 0.91456 0.87514 0.0
H1255 H 0.48747 0.92191 0.85451 0.0
H1256 H 0.46575 0.89491 0.84661 0.0
H1257 H 0.54739 0.87902 0.94544 0.0
H1258 H 0.54847 0.91025 0.93254 0.0
H1259 H 0.52251 0.90051 0.95225 0.0
H1260 H 0.5291 0.9868 0.89641 0.0
H1261 H 0.46938 0.96523 0.94751 0.0
H1262 H 0.5321 0.93083 0.86135 0.0
H1263 H 0.55304 0.9252 0.88719 0.0
H1264 H 0.55317 0.95646 0.87438 0.0
H1265 H 0.45603 0.90396 0.92143 0.0
H1266 H 0.45358 0.92294 0.95068 0.0
H1267 H 0.4777 0.90001 0.9471 0.0
C1268 C 0.53182 0.34979 0.66228 0.0
C1269 C 0.51435 0.3336 0.64819 0.0
C1270 C 0.53649 0.37526 0.65597 0.0
C1271 C 0.52282 0.38484 0.63549 0.0
C1272 C 0.50519 0.36846 0.62118 0.0
C1273 C 0.50177 0.34282 0.62723 0.0
C1274 C 0.55628 0.39178 0.67096 0.0
C1275 C 0.48983 0.37802 0.59956 0.0
C1276 C 0.51892 0.45682 0.63437 0.0
C1277 C 0.536 0.46273 0.61497 0.0
C1278 C 0.51403 0.43142 0.64094 0.0
C1279 C 0.52744 0.4118 0.62855 0.0
C1280 C 0.54515 0.41791 0.60931 0.0
C1281 C 0.5488 0.44327 0.60238 0.0
C1282 C 0.49434 0.42553 0.66088 0.0
C1283 C 0.56057 0.39775 0.59635 0.0
H1284 H 0.54193 0.34241 0.67816 0.0
H1285 H 0.4892 0.32996 0.61557 0.0
H1286 H 0.57097 0.39955 0.65793 0.0
H1287 H 0.54729 0.40824 0.68042 0.0
H1288 H 0.56586 0.38114 0.68572 0.0
H1289 H 0.47545 0.36336 0.59173 0.0
H1290 H 0.47984 0.39513 0.60614 0.0
H1291 H 0.50268 0.38378 0.58397 0.0
H1292 H 0.50906 0.47199 0.64402 0.0
H1293 H 0.56228 0.44804 0.5876 0.0
H1294 H 0.50341 0.41696 0.6773 0.0
H1295 H 0.47962 0.41133 0.65292 0.0
H1296 H 0.4848 0.4428 0.66789 0.0
H1297 H 0.5711 0.38761 0.6108 0.0
H1298 H 0.5745 0.40589 0.58274 0.0
H1299 H 0.54774 0.38335 0.58588 0.0
C1300 C 0.46299 0.15257 0.5998 0.0
C1301 C 0.48695 0.16484 0.60451 0.0
C1302 C 0.46084 0.12816 0.58792 0.0
C1303 C 0.48327 0.11582 0.58109 0.0
C1304 C 0.50736 0.12918 0.58378 0.0
C1305 C 0.50892 0.15367 0.59559 0.0
C1306 C 0.43477 0.11464 0.58509 0.0
C1307 C 0.53167 0.11672 0.57666 0.0
C1308 C 0.47732 0.04525 0.59165 0.0
C1309 C 0.47276 0.03496 0.5669 0.0
C1310 C 0.48197 0.07151 0.59628 0.0
C1311 C 0.48172 0.08788 0.57567 0.0
C1312 C 0.4782 0.07755 0.55051 0.0
C1313 C 0.4739 0.05111 0.54639 0.0
C1314 C 0.4861 0.08179 0.6234 0.0
C1315 C 0.47771 0.09447 0.52813 0.0
H1316 H 0.44612 0.16132 0.60706 0.0
H1317 H 0.52743 0.16325 0.59963 0.0
H1318 H 0.43258 0.10449 0.56618 0.0
H1319 H 0.4325 0.1002 0.59974 0.0
H1320 H 0.41925 0.12805 0.58746 0.0
H1321 H 0.54798 0.13096 0.57529 0.0
H1322 H 0.53636 0.10324 0.59139 0.0
H1323 H 0.52939 0.10562 0.55825 0.0
H1324 H 0.47673 0.0328 0.60751 0.0
H1325 H 0.47031 0.04323 0.5272 0.0
H1326 H 0.47003 0.09353 0.62921 0.0
H1327 H 0.50383 0.09429 0.62495 0.0
H1328 H 0.48751 0.06637 0.63699 0.0
H1329 H 0.46015 0.10527 0.5288 0.0
H1330 H 0.47798 0.08336 0.50966 0.0
H1331 H 0.49421 0.10861 0.52902 0.0
C1332 C 0.89757 0.53356 0.63812 0.0
C1333 C 0.89861 0.51036 0.65019 0.0
C1334 C 0.9051 0.5358 0.61272 0.0
C1335 C 0.91332 0.51417 0.59871 0.0
C1336 C 0.91469 0.49078 0.61074 0.0
C1337 C 0.9077 0.48925 0.63637 0.0
C1338 C 0.90382 0.56124 0.60073 0.0
C1339 C 0.92304 0.46719 0.59637 0.0
C1340 C 0.90698 0.51556 0.52668 0.0
C1341 C 0.93216 0.52174 0.51957 0.0
C1342 C 0.90072 0.5123 0.55229 0.0
C1343 C 0.91999 0.51596 0.57132 0.0
C1344 C 0.94549 0.52199 0.56423 0.0
C1345 C 0.95131 0.5245 0.53842 0.0
C1346 C 0.87341 0.50525 0.559 0.0
C1347 C 0.96648 0.52663 0.58397 0.0
H1348 H 0.89023 0.54994 0.64827 0.0
H1349 H 0.9092 0.47135 0.64549 0.0
H1350 H 0.92248 0.5668 0.59227 0.0
H1351 H 0.88944 0.55978 0.5851 0.0
H1352 H 0.89868 0.57659 0.61466 0.0
H1353 H 0.92301 0.45042 0.60845 0.0
H1354 H 0.91012 0.4625 0.57981 0.0
H1355 H 0.94251 0.47069 0.58883 0.0
H1356 H 0.89211 0.51332 0.51219 0.0
H1357 H 0.97078 0.52957 0.5331 0.0
H1358 H 0.8656 0.52088 0.57091 0.0
H1359 H 0.87252 0.48797 0.57037 0.0
H1360 H 0.86102 0.50155 0.54186 0.0
H1361 H 0.96216 0.54306 0.59691 0.0
H1362 H 0.98541 0.53065 0.5753 0.0
H1363 H 0.96761 0.50981 0.5958 0.0
C1364 C 0.1115 0.01372 0.64244 0.0
C1365 C 0.10436 0.99781 0.66217 0.0
C1366 C 0.10101 0.00951 0.61797 0.0
C1367 C 0.08327 0.98863 0.61299 0.0
C1368 C 0.07452 0.97366 0.63316 0.0
C1369 C 0.08506 0.97855 0.6576 0.0
C1370 C 0.11058 0.02613 0.59701 0.0
C1371 C 0.05557 0.95124 0.62856 0.0
C1372 C 0.05094 0.98157 0.54802 0.0
C1373 C 0.06732 0.96554 0.53481 0.0
C1374 C 0.05567 0.98916 0.57364 0.0
C1375 C 0.07706 0.98022 0.58628 0.0
C1376 C 0.0934 0.96373 0.57313 0.0
C1377 C 0.08842 0.95674 0.54753 0.0
C1378 C 0.0381 0.00705 0.58704 0.0
C1379 C 0.11631 0.95358 0.58606 0.0
H1380 H 0.12656 0.0285 0.64558 0.0
H1381 H 0.07897 0.96656 0.67286 0.0
H1382 H 0.1237 0.01539 0.58468 0.0
H1383 H 0.09453 0.03144 0.58488 0.0
H1384 H 0.12103 0.04383 0.60466 0.0
H1385 H 0.04791 0.94397 0.64662 0.0
H1386 H 0.03943 0.95646 0.6165 0.0
H1387 H 0.06505 0.93557 0.61821 0.0
H1388 H 0.03463 0.98848 0.53825 0.0
H1389 H 0.10102 0.94414 0.53752 0.0
H1390 H 0.04886 0.02515 0.59289 0.0
H1391 H 0.03063 0.99862 0.60462 0.0
H1392 H 0.02172 0.01146 0.57481 0.0
H1393 H 0.1299 0.96961 0.59227 0.0
H1394 H 0.12649 0.94014 0.57339 0.0
H1395 H 0.11029 0.9436 0.60332 0.0
C1396 C 0.91817 0.48306 0.83848 0.0
C1397 C 0.89594 0.49482 0.83182 0.0
C1398 C 0.92494 0.48065 0.86416 0.0
C1399 C 0.90968 0.49124 0.88363 0.0
C1400 C 0.88777 0.50411 0.87689 0.0
C1401 C 0.88104 0.5055 0.8511 0.0
C1402 C 0.94811 0.4663 0.87044 0.0
C1403 C 0.87133 0.51627 0.89693 0.0
C1404 C 0.91049 0.46386 0.94932 0.0
C1405 C 0.92806 0.4807 0.96269 0.0
C1406 C 0.90462 0.46694 0.92359 0.0
C1407 C 0.91597 0.48785 0.911 0.0
C1408 C 0.93335 0.50525 0.92454 0.0
C1409 C 0.93953 0.50121 0.95011 0.0
C1410 C 0.88658 0.44751 0.90975 0.0
C1411 C 0.94525 0.52821 0.91207 0.0
H1412 H 0.93021 0.47561 0.82358 0.0
H1413 H 0.86402 0.51492 0.84591 0.0
H1414 H 0.96198 0.47884 0.88187 0.0
H1415 H 0.94245 0.44995 0.88215 0.0
H1416 H 0.95778 0.45897 0.85311 0.0
H1417 H 0.85601 0.52706 0.88851 0.0
H1418 H 0.86235 0.50139 0.90874 0.0
H1419 H 0.88324 0.52943 0.90983 0.0
H1420 H 0.9018 0.44776 0.95882 0.0
H1421 H 0.95304 0.51431 0.96038 0.0
H1422 H 0.89612 0.43905 0.89288 0.0
H1423 H 0.86964 0.45687 0.90275 0.0
H1424 H 0.88 0.4319 0.92205 0.0
H1425 H 0.95701 0.52202 0.89574 0.0
H1426 H 0.9575 0.54052 0.92548 0.0
H1427 H 0.93011 0.53973 0.90444 0.0
C1428 C 0.12796 0.00501 0.84428 0.0
C1429 C 0.15153 0.01326 0.83444 0.0
C1430 C 0.12254 0.00919 0.87018 0.0
C1431 C 0.14072 0.02293 0.88634 0.0
C1432 C 0.16448 0.03154 0.87637 0.0
C1433 C 0.1697 0.02632 0.85057 0.0
C1434 C 0.0972 0.99925 0.88016 0.0
C1435 C 0.18404 0.04695 0.89272 0.0
C1436 C 0.11368 0.05693 0.94449 0.0
C1437 C 0.12042 0.04128 0.96395 0.0
C1438 C 0.12084 0.05156 0.91927 0.0
C1439 C 0.13429 0.02948 0.9133 0.0
C1440 C 0.14106 0.01353 0.933 0.0
C1441 C 0.13435 0.01987 0.95825 0.0
C1442 C 0.11391 0.06946 0.899 0.0
C1443 C 0.15476 0.98948 0.92728 0.0
H1444 H 0.11371 0.99543 0.83164 0.0
H1445 H 0.18782 0.03292 0.8428 0.0
H1446 H 0.10017 0.98811 0.89723 0.0
H1447 H 0.08557 0.01544 0.88604 0.0
H1448 H 0.08621 0.98696 0.86571 0.0
H1449 H 0.20174 0.05181 0.88215 0.0
H1450 H 0.17589 0.0649 0.8999 0.0
H1451 H 0.1891 0.03626 0.90955 0.0
H1452 H 0.10293 0.07352 0.94909 0.0
H1453 H 0.13931 0.00772 0.97342 0.0
H1454 H 0.10044 0.05947 0.88504 0.0
H1455 H 0.1312 0.07566 0.88844 0.0
H1456 H 0.10493 0.08665 0.90708 0.0
H1457 H 0.1431 0.97659 0.9139 0.0
H1458 H 0.15862 0.97914 0.94472 0.0
H1459 H 0.17313 0.99406 0.91783 0.0
C1460 C 0.64957 0.89858 0.52183 0.0
C1461 C 0.65303 0.8775 0.50522 0.0
C1462 C 0.62555 0.90903 0.52402 0.0
C1463 C 0.60475 0.89827 0.50901 0.0
C1464 C 0.60873 0.87811 0.49097 0.0
C1465 C 0.63278 0.86787 0.48943 0.0
C1466 C 0.62205 0.93041 0.5436 0.0
C1467 C 0.58722 0.86627 0.47437 0.0
C1468 C 0.53798 0.89825 0.53595 0.0
C1469 C 0.52715 0.91781 0.523 0.0
C1470 C 0.56333 0.89218 0.53192 0.0
C1471 C 0.57829 0.90577 0.51425 0.0
C1472 C 0.56757 0.92555 0.50108 0.0
C1473 C 0.54214 0.93145 0.50571 0.0
C1474 C 0.57405 0.87104 0.54651 0.0
C1475 C 0.58285 0.94024 0.48189 0.0
H1476 H 0.66523 0.90592 0.53411 0.0
H1477 H 0.63557 0.85166 0.47643 0.0
H1478 H 0.61153 0.94578 0.53524 0.0
H1479 H 0.61049 0.92308 0.55952 0.0
H1480 H 0.64056 0.9387 0.55145 0.0
H1481 H 0.59414 0.853 0.45923 0.0
H1482 H 0.57344 0.85549 0.48625 0.0
H1483 H 0.57675 0.88126 0.4653 0.0
H1484 H 0.52671 0.88773 0.54953 0.0
H1485 H 0.53397 0.94661 0.49564 0.0
H1486 H 0.5916 0.87823 0.55703 0.0
H1487 H 0.57943 0.8554 0.53309 0.0
H1488 H 0.56024 0.86304 0.56033 0.0
H1489 H 0.60062 0.94898 0.49089 0.0
H1490 H 0.57199 0.95552 0.47374 0.0
H1491 H 0.58859 0.92706 0.46614 0.0
C1492 C 0.68534 0.10164 0.97566 0.0
C1493 C 0.69452 0.12489 0.98713 0.0
C1494 C 0.65907 0.09547 0.97395 0.0
C1495 C 0.64189 0.11259 0.98489 0.0
C1496 C 0.65126 0.13553 0.99764 0.0
C1497 C 0.67753 0.14156 0.99832 0.0
C1498 C 0.64968 0.07108 0.95975 0.0
C1499 C 0.63355 0.1539 0.01011 0.0
C1500 C 0.57496 0.11162 0.95779 0.0
C1501 C 0.56153 0.09608 0.97459 0.0
C1502 C 0.60122 0.11699 0.96087 0.0
C1503 C 0.61408 0.10721 0.98171 0.0
C1504 C 0.60044 0.09216 0.99922 0.0
C1505 C 0.5743 0.08639 0.99518 0.0
C1506 C 0.6153 0.13258 0.94147 0.0
C1507 C 0.61346 0.08216 0.0221 0.0
H1508 H 0.6987 0.08855 0.96766 0.0
H1509 H 0.68487 0.15945 0.00741 0.0
H1510 H 0.6376 0.05917 0.97226 0.0
H1511 H 0.63764 0.0756 0.9433 0.0
H1512 H 0.66559 0.05974 0.95261 0.0
H1513 H 0.64408 0.16972 0.02117 0.0
H1514 H 0.62173 0.16222 0.99539 0.0
H1515 H 0.62033 0.14372 0.02304 0.0
H1516 H 0.56508 0.11885 0.94169 0.0
H1517 H 0.56378 0.07448 0.00821 0.0
H1518 H 0.63061 0.12146 0.93276 0.0
H1519 H 0.62459 0.15005 0.95087 0.0
H1520 H 0.6025 0.1383 0.92608 0.0
H1521 H 0.62815 0.06893 0.01583 0.0
H1522 H 0.59982 0.07191 0.03461 0.0
H1523 H 0.62339 0.09813 0.03342 0.0
C1524 C 0.36016 0.42127 0.99177 0.0
C1525 C 0.35315 0.39766 0.00165 0.0
C1526 C 0.38596 0.42969 0.99028 0.0
C1527 C 0.40505 0.41459 0.99988 0.0
C1528 C 0.39789 0.39127 0.01099 0.0
C1529 C 0.37204 0.38296 0.01145 0.0
C1530 C 0.39281 0.45437 0.97778 0.0
C1531 C 0.41754 0.37491 0.02205 0.0
C1532 C 0.47183 0.41933 0.97284 0.0
C1533 C 0.48499 0.43564 0.99094 0.0
C1534 C 0.44574 0.41285 0.97529 0.0
C1535 C 0.43257 0.42226 0.9968 0.0
C1536 C 0.4458 0.43856 0.01533 0.0
C1537 C 0.47182 0.44543 0.01194 0.0
C1538 C 0.43224 0.39601 0.95474 0.0
C1539 C 0.4326 0.44836 0.03889 0.0
H1540 H 0.34545 0.43301 0.98497 0.0
H1541 H 0.36652 0.36485 0.01944 0.0
H1542 H 0.4042 0.46755 0.99107 0.0
H1543 H 0.4048 0.45057 0.96089 0.0
H1544 H 0.37568 0.46404 0.97159 0.0
H1545 H 0.40867 0.35858 0.03206 0.0
H1546 H 0.4297 0.36733 0.00664 0.0
H1547 H 0.43021 0.3865 0.03563 0.0
H1548 H 0.48187 0.41199 0.95638 0.0
H1549 H 0.48199 0.45798 0.02598 0.0
H1550 H 0.41559 0.40557 0.94731 0.0
H1551 H 0.4249 0.37793 0.96275 0.0
H1552 H 0.44495 0.39135 0.9386 0.0
H1553 H 0.41629 0.45958 0.03352 0.0
H1554 H 0.44565 0.46054 0.05165 0.0
H1555 H 0.42475 0.43208 0.04962 0.0
C1556 C 0.87938 0.10945 0.01436 0.0
C1557 C 0.87248 0.12542 0.99511 0.0
C1558 C 0.9046 0.10241 0.01706 0.0
C1559 C 0.92335 0.11132 0.99993 0.0
C1560 C 0.9163 0.12641 0.97972 0.0
C1561 C 0.89098 0.13339 0.97763 0.0
C1562 C 0.91137 0.0863 0.03889 0.0
C1563 C 0.93571 0.13608 0.96095 0.0
C1564 C 0.99132 0.11826 0.02532 0.0
C1565 C 0.00154 0.09575 0.0156 0.0
C1566 C 0.96605 0.12371 0.02 0.0
C1567 C 0.95061 0.10636 0.00435 0.0
C1568 C 0.96098 0.08399 0.99381 0.0
C1569 C 0.98629 0.07888 0.99966 0.0
C1570 C 0.95564 0.14771 0.03173 0.0
C1571 C 0.94516 0.06522 0.97679 0.0
H1572 H 0.86512 0.10281 0.02765 0.0
H1573 H 0.88593 0.14596 0.96286 0.0
H1574 H 0.92127 0.06934 0.03174 0.0
H1575 H 0.9247 0.09746 0.05218 0.0
H1576 H 0.89431 0.07976 0.04968 0.0
H1577 H 0.92672 0.14538 0.94489 0.0
H1578 H 0.94944 0.15012 0.97076 0.0
H1579 H 0.94678 0.12018 0.95314 0.0
H1580 H 0.00288 0.13141 0.0377 0.0
H1581 H 0.99402 0.06149 0.99196 0.0
H1582 H 0.93961 0.14267 0.04449 0.0
H1583 H 0.94801 0.15935 0.01667 0.0
H1584 H 0.97034 0.15956 0.04291 0.0
H1585 H 0.92904 0.05681 0.98767 0.0
H1586 H 0.95648 0.04952 0.9689 0.0
H1587 H 0.93685 0.07511 0.96078 0.0
C1588 C 0.03964 0.17033 0.2464 0.0
C1589 C 0.02399 0.19083 0.2441 0.0
C1590 C 0.04591 0.15509 0.225 0.0
C1591 C 0.03535 0.15982 0.20093 0.0
C1592 C 0.01848 0.17974 0.19877 0.0
C1593 C 0.01338 0.19532 0.22032 0.0
C1594 C 0.06457 0.13458 0.228 0.0
C1595 C 0.00616 0.18487 0.17363 0.0
C1596 C 0.0702 0.1407 0.14065 0.0
C1597 C 0.05764 0.11724 0.13351 0.0
C1598 C 0.0635 0.15443 0.16287 0.0
C1599 C 0.04308 0.14491 0.17777 0.0
C1600 C 0.03009 0.12133 0.17044 0.0
C1601 C 0.03788 0.10751 0.14861 0.0
C1602 C 0.0784 0.17904 0.17048 0.0
C1603 C 0.00767 0.11101 0.18533 0.0
H1604 H 0.04762 0.16677 0.26489 0.0
H1605 H 0.00121 0.21116 0.21861 0.0
H1606 H 0.05593 0.11582 0.22099 0.0
H1607 H 0.08168 0.13871 0.2163 0.0
H1608 H 0.07078 0.13313 0.24809 0.0
H1609 H 0.99151 0.19925 0.17572 0.0
H1610 H 0.02089 0.19192 0.16029 0.0
H1611 H 0.99707 0.16698 0.16486 0.0
H1612 H 0.08563 0.1481 0.12905 0.0
H1613 H 0.02804 0.08944 0.14292 0.0
H1614 H 0.08586 0.17828 0.19022 0.0
H1615 H 0.06571 0.19519 0.1702 0.0
H1616 H 0.09467 0.18302 0.15763 0.0
H1617 H 0.01362 0.10798 0.20518 0.0
H1618 H 0.99926 0.09269 0.17677 0.0
H1619 H 0.99267 0.12507 0.18622 0.0
C1620 C 0.97726 0.34953 0.24038 0.0
C1621 C 0.00049 0.33798 0.24366 0.0
C1622 C 0.97372 0.36601 0.2206 0.0
C1623 C 0.9941 0.37172 0.20401 0.0
C1624 C 0.01814 0.36164 0.20829 0.0
C1625 C 0.02099 0.3447 0.22788 0.0
C1626 C 0.94767 0.37607 0.21656 0.0
C1627 C 0.04052 0.36772 0.19136 0.0
C1628 C 0.97665 0.38527 0.13603 0.0
C1629 C 0.97834 0.412 0.13648 0.0
C1630 C 0.98178 0.37206 0.15785 0.0
C1631 C 0.9894 0.38584 0.18066 0.0
C1632 C 0.99167 0.41284 0.18117 0.0
C1633 C 0.98578 0.42564 0.15913 0.0
C1634 C 0.97855 0.34329 0.15658 0.0
C1635 C 0.00033 0.42814 0.20497 0.0
H1636 H 0.9615 0.34514 0.2529 0.0
H1637 H 0.03899 0.33589 0.23006 0.0
H1638 H 0.94918 0.39706 0.21507 0.0
H1639 H 0.93931 0.36774 0.19838 0.0
H1640 H 0.93437 0.37136 0.23219 0.0
H1641 H 0.05868 0.36149 0.19935 0.0
H1642 H 0.03722 0.35795 0.17238 0.0
H1643 H 0.04258 0.3885 0.18851 0.0
H1644 H 0.97069 0.37459 0.11866 0.0
H1645 H 0.98728 0.44629 0.15954 0.0
H1646 H 0.96427 0.33693 0.17072 0.0
H1647 H 0.99682 0.335 0.16149 0.0
H1648 H 0.97224 0.33547 0.13744 0.0
H1649 H 0.98648 0.42486 0.22044 0.0
H1650 H 0.00229 0.44891 0.20192 0.0
H1651 H 0.01896 0.42178 0.21158 0.0
C1652 C 0.03464 0.82884 0.24338 0.0
C1653 C 0.02168 0.80488 0.24392 0.0
C1654 C 0.03713 0.84484 0.26535 0.0
C1655 C 0.02533 0.83712 0.28801 0.0
C1656 C 0.01136 0.8133 0.28838 0.0
C1657 C 0.00997 0.79726 0.2663 0.0
C1658 C 0.05274 0.86978 0.26441 0.0
C1659 C 0.99787 0.80483 0.31203 0.0
C1660 C 0.05096 0.86501 0.35126 0.0
C1661 C 0.03448 0.88457 0.35627 0.0
C1662 C 0.04846 0.84972 0.32881 0.0
C1663 C 0.0284 0.85359 0.31155 0.0
C1664 C 0.01154 0.87327 0.31669 0.0
C1665 C 0.01507 0.88891 0.33894 0.0
C1666 C 0.0673 0.82947 0.32356 0.0
C1667 C 0.98951 0.87742 0.29902 0.0
H1668 H 0.04302 0.83493 0.22574 0.0
H1669 H 0.99949 0.7789 0.26636 0.0
H1670 H 0.04072 0.88593 0.26934 0.0
H1671 H 0.06846 0.87038 0.27869 0.0
H1672 H 0.0611 0.87265 0.24536 0.0
H1673 H 0.98651 0.78652 0.30865 0.0
H1674 H 0.01202 0.80249 0.32739 0.0
H1675 H 0.98498 0.81961 0.31897 0.0
H1676 H 0.06595 0.86185 0.36488 0.0
H1677 H 0.00222 0.90394 0.34321 0.0
H1678 H 0.07643 0.83226 0.30487 0.0
H1679 H 0.05725 0.81034 0.32254 0.0
H1680 H 0.08247 0.82975 0.33844 0.0
H1681 H 0.9967 0.88194 0.2799 0.0
H1682 H 0.97778 0.89314 0.30613 0.0
H1683 H 0.97709 0.85968 0.29668 0.0
C1684 C 0.021 0.66657 0.25471 0.0
C1685 C 0.00139 0.66872 0.23671 0.0
C1686 C 0.01799 0.65013 0.27491 0.0
C1687 C 0.99458 0.6359 0.27767 0.0
C1688 C 0.97501 0.63731 0.2592 0.0
C1689 C 0.97878 0.65339 0.2388 0.0
C1690 C 0.03954 0.64881 0.2939 0.0
C1691 C 0.94961 0.62275 0.26161 0.0
C1692 C 0.98932 0.58191 0.32373 0.0
C1693 C 0.98037 0.59453 0.34569 0.0
C1694 C 0.99439 0.59515 0.30149 0.0
C1695 C 0.98973 0.62141 0.30104 0.0
C1696 C 0.98034 0.63409 0.32307 0.0
C1697 C 0.97609 0.6206 0.34515 0.0
C1698 C 0.005 0.58113 0.2786 0.0
C1699 C 0.97455 0.66192 0.32328 0.0
H1700 H 0.03845 0.67844 0.25367 0.0
H1701 H 0.96371 0.65426 0.22474 0.0
H1702 H 0.03425 0.65809 0.31233 0.0
H1703 H 0.0431 0.62867 0.29743 0.0
H1704 H 0.05752 0.65845 0.28738 0.0
H1705 H 0.93689 0.62475 0.24492 0.0
H1706 H 0.9524 0.60221 0.26374 0.0
H1707 H 0.93986 0.62983 0.27897 0.0
H1708 H 0.99278 0.5618 0.32407 0.0
H1709 H 0.96891 0.63043 0.36196 0.0
H1710 H 0.02351 0.59054 0.27329 0.0
H1711 H 0.99188 0.58191 0.26206 0.0
H1712 H 0.00794 0.56084 0.28212 0.0
H1713 H 0.99218 0.67372 0.31959 0.0
H1714 H 0.96657 0.66874 0.3417 0.0
H1715 H 0.96069 0.66509 0.30787 0.0
C1716 C 0.25693 0.00143 0.17137 0.0
C1717 C 0.25447 0.00828 0.19728 0.0
C1718 C 0.23801 0.00658 0.15366 0.0
C1719 C 0.21677 0.0201 0.16185 0.0
C1720 C 0.21435 0.02737 0.18798 0.0
C1721 C 0.23307 0.02099 0.20546 0.0
C1722 C 0.24093 0.9978 0.12615 0.0
C1723 C 0.19246 0.04259 0.19733 0.0
C1724 C 0.18287 0.05615 0.11176 0.0
C1725 C 0.16032 0.04095 0.10786 0.0
C1726 C 0.20127 0.04978 0.12956 0.0
C1727 C 0.1974 0.02715 0.14298 0.0
C1728 C 0.17499 0.0113 0.13839 0.0
C1729 C 0.15646 0.01869 0.12126 0.0
C1730 C 0.22453 0.06758 0.1345 0.0
C1731 C 0.17059 0.98656 0.15156 0.0
H1732 H 0.27385 0.99225 0.16492 0.0
H1733 H 0.23148 0.02669 0.22543 0.0
H1734 H 0.2233 0.987 0.11915 0.0
H1735 H 0.24384 0.01454 0.11424 0.0
H1736 H 0.25732 0.98552 0.12336 0.0
H1737 H 0.19354 0.047 0.21818 0.0
H1738 H 0.19243 0.06077 0.18744 0.0
H1739 H 0.17404 0.03195 0.19276 0.0
H1740 H 0.18564 0.07354 0.1016 0.0
H1741 H 0.13901 0.0069 0.11811 0.0
H1742 H 0.24208 0.05758 0.1299 0.0
H1743 H 0.22572 0.07366 0.15499 0.0
H1744 H 0.22426 0.08483 0.12312 0.0
H1745 H 0.18697 0.97441 0.14824 0.0
H1746 H 0.15285 0.97575 0.1448 0.0
H1747 H 0.16929 0.99042 0.1724 0.0
C1748 C 0.76211 0.50472 0.15774 0.0
C1749 C 0.75682 0.48581 0.17524 0.0
C1750 C 0.78275 0.50314 0.14092 0.0
C1751 C 0.79844 0.4821 0.14149 0.0
C1752 C 0.79283 0.46269 0.15867 0.0
C1753 C 0.77227 0.46485 0.17537 0.0
C1754 C 0.78816 0.52429 0.12297 0.0
C1755 C 0.80902 0.43991 0.15995 0.0
C1756 C 0.84303 0.46525 0.08711 0.0
C1757 C 0.86682 0.47435 0.09724 0.0
C1758 C 0.82046 0.46831 0.10093 0.0
C1759 C 0.82165 0.48095 0.12534 0.0
C1760 C 0.84548 0.49103 0.13519 0.0
C1761 C 0.86771 0.48752 0.12111 0.0
C1762 C 0.79546 0.45717 0.08983 0.0
C1763 C 0.84764 0.50484 0.16101 0.0
H1764 H 0.75016 0.52084 0.15722 0.0
H1765 H 0.7688 0.45036 0.1891 0.0
H1766 H 0.80699 0.53405 0.12771 0.0
H1767 H 0.78913 0.51634 0.10312 0.0
H1768 H 0.77343 0.53867 0.1239 0.0
H1769 H 0.80115 0.42567 0.17316 0.0
H1770 H 0.81057 0.43045 0.14077 0.0
H1771 H 0.8286 0.44625 0.16643 0.0
H1772 H 0.84211 0.45504 0.06873 0.0
H1773 H 0.88592 0.49486 0.12904 0.0
H1774 H 0.78101 0.47178 0.09028 0.0
H1775 H 0.78809 0.4414 0.10152 0.0
H1776 H 0.7974 0.44963 0.0699 0.0
H1777 H 0.83421 0.5204 0.16225 0.0
H1778 H 0.86724 0.51312 0.16515 0.0
H1779 H 0.84232 0.49145 0.17601 0.0
C1780 C 0.24438 0.00248 0.35441 0.0
C1781 C 0.24612 0.98638 0.3325 0.0
C1782 C 0.22331 1.00015 0.37063 0.0
C1783 C 0.20378 0.98103 0.36499 0.0
C1784 C 0.20555 0.9646 0.34308 0.0
C1785 C 0.22647 0.96769 0.32699 0.0
C1786 C 0.22183 0.01825 0.39362 0.0
C1787 C 0.18522 0.94381 0.33649 0.0
C1788 C 0.15816 0.95577 0.41453 0.0
C1789 C 0.13537 0.96616 0.40715 0.0
C1790 C 0.181 0.96141 0.40175 0.0
C1791 C 0.18107 0.97824 0.3815 0.0
C1792 C 0.15848 0.99009 0.37515 0.0
C1793 C 0.13582 0.98368 0.38786 0.0
C1794 C 0.2046 0.94806 0.4088 0.0
C1795 C 0.15791 0.00856 0.35405 0.0
H1796 H 0.25955 0.01681 0.359 0.0
H1797 H 0.22719 0.95558 0.30981 0.0
H1798 H 0.20422 0.0289 0.39254 0.0
H1799 H 0.2207 0.00741 0.4112 0.0
H1800 H 0.23853 0.03217 0.39528 0.0
H1801 H 0.19011 0.93186 0.31944 0.0
H1802 H 0.18236 0.93129 0.35274 0.0
H1803 H 0.16679 0.95236 0.33277 0.0
H1804 H 0.15788 0.94216 0.4294 0.0
H1805 H 0.1183 0.99201 0.38232 0.0
H1806 H 0.22124 0.96192 0.41118 0.0
H1807 H 0.20909 0.93413 0.3932 0.0
H1808 H 0.20213 0.93771 0.42662 0.0
H1809 H 0.17417 0.02293 0.3561 0.0
H1810 H 0.13987 0.01863 0.35375 0.0
H1811 H 0.15985 0.9981 0.33542 0.0
C1812 C 0.7672 0.47517 0.32901 0.0
C1813 C 0.76695 0.48421 0.30439 0.0
C1814 C 0.78921 0.47825 0.34425 0.0
C1815 C 0.811 0.49172 0.33499 0.0
C1816 C 0.81118 0.49991 0.30971 0.0
C1817 C 0.78916 0.49569 0.29453 0.0
C1818 C 0.78858 0.46852 0.3708 0.0
C1819 C 0.83385 0.51489 0.29938 0.0
C1820 C 0.85271 0.5302 0.38356 0.0
C1821 C 0.87451 0.51613 0.3836 0.0
C1822 C 0.83181 0.52238 0.36778 0.0
C1823 C 0.83256 0.49951 0.3525 0.0
C1824 C 0.85411 0.48462 0.35347 0.0
C1825 C 0.87509 0.49339 0.36869 0.0
C1826 C 0.80934 0.53906 0.36676 0.0
C1827 C 0.85516 0.45968 0.33819 0.0
H1828 H 0.74978 0.46683 0.33681 0.0
H1829 H 0.78864 0.50301 0.27561 0.0
H1830 H 0.80631 0.45889 0.37499 0.0
H1831 H 0.78739 0.48477 0.38487 0.0
H1832 H 0.77195 0.45494 0.37349 0.0
H1833 H 0.83164 0.51815 0.27878 0.0
H1834 H 0.83624 0.53367 0.3099 0.0
H1835 H 0.85159 0.50485 0.30226 0.0
H1836 H 0.8525 0.54791 0.39495 0.0
H1837 H 0.89202 0.48249 0.36894 0.0
H1838 H 0.79167 0.52823 0.37221 0.0
H1839 H 0.80649 0.54501 0.34701 0.0
H1840 H 0.81195 0.55642 0.37958 0.0
H1841 H 0.83801 0.44715 0.34188 0.0
H1842 H 0.87244 0.44942 0.34271 0.0
H1843 H 0.85511 0.46321 0.31757 0.0
C1844 C 0.2227 0.24309 0.9988 0.0
C1845 C 0.21507 0.2664 0.00923 0.0
C1846 C 0.20727 0.22063 0.00089 0.0
C1847 C 0.18421 0.22144 0.01461 0.0
C1848 C 0.17626 0.24507 0.02481 0.0
C1849 C 0.19153 0.26737 0.02144 0.0
C1850 C 0.21591 0.19599 0.98887 0.0
C1851 C 0.15224 0.24666 0.04026 0.0
C1852 C 0.1336 0.16676 0.00955 0.0
C1853 C 0.14023 0.1525 0.03016 0.0
C1854 C 0.14821 0.18889 0.00374 0.0
C1855 C 0.16917 0.19742 0.01965 0.0
C1856 C 0.17561 0.18318 0.04076 0.0
C1857 C 0.16135 0.16057 0.04543 0.0
C1858 C 0.14139 0.20297 0.9805 0.0
C1859 C 0.19724 0.19208 0.05869 0.0
H1860 H 0.24088 0.24244 0.98923 0.0
H1861 H 0.18557 0.28552 0.02923 0.0
H1862 H 0.22123 0.18314 0.00393 0.0
H1863 H 0.20014 0.18605 0.97749 0.0
H1864 H 0.23262 0.19913 0.97635 0.0
H1865 H 0.14861 0.26656 0.04661 0.0
H1866 H 0.13554 0.23856 0.02898 0.0
H1867 H 0.15378 0.23516 0.05731 0.0
H1868 H 0.11732 0.16027 0.99768 0.0
H1869 H 0.16627 0.14951 0.06148 0.0
H1870 H 0.15824 0.20511 0.96803 0.0
H1871 H 0.13581 0.22242 0.98622 0.0
H1872 H 0.12545 0.19302 0.96933 0.0
H1873 H 0.21553 0.19285 0.04829 0.0
H1874 H 0.19903 0.17939 0.07484 0.0
H1875 H 0.19425 0.21167 0.06645 0.0
C1876 C 0.1507 0.74854 0.50286 0.0
C1877 C 0.1706 0.74439 0.4857 0.0
C1878 C 0.13449 0.76868 0.50015 0.0
C1879 C 0.13794 0.78493 0.47959 0.0
C1880 C 0.15753 0.78049 0.46187 0.0
C1881 C 0.1737 0.76049 0.46524 0.0
C1882 C 0.11395 0.77288 0.51958 0.0
C1883 C 0.16177 0.79722 0.43954 0.0
C1884 C 0.08467 0.82617 0.45902 0.0
C1885 C 0.09329 0.85037 0.46899 0.0
C1886 C 0.09871 0.80459 0.46271 0.0
C1887 C 0.12176 0.80718 0.47704 0.0
C1888 C 0.13005 0.83139 0.48794 0.0
C1889 C 0.11585 0.85267 0.48365 0.0
C1890 C 0.08937 0.77919 0.45051 0.0
C1891 C 0.1543 0.83495 0.50365 0.0
H1892 H 0.14777 0.73605 0.51849 0.0
H1893 H 0.18921 0.75789 0.45209 0.0
H1894 H 0.11726 0.79196 0.52931 0.0
H1895 H 0.09502 0.77251 0.51003 0.0
H1896 H 0.11338 0.75826 0.53417 0.0
H1897 H 0.17683 0.79035 0.42665 0.0
H1898 H 0.1438 0.79797 0.42841 0.0
H1899 H 0.1674 0.81698 0.44651 0.0
H1900 H 0.06736 0.8242 0.44754 0.0
H1901 H 0.12261 0.87124 0.49158 0.0
H1902 H 0.08799 0.7645 0.46496 0.0
H1903 H 0.10325 0.77288 0.43607 0.0
H1904 H 0.07044 0.78004 0.4411 0.0
H1905 H 0.15391 0.82135 0.51916 0.0
H1906 H 0.15724 0.85462 0.51218 0.0
H1907 H 0.17092 0.83081 0.49156 0.0
C1908 C 0.82891 0.71647 0.46475 0.0
C1909 C 0.83422 0.73649 0.48298 0.0
C1910 C 0.84585 0.69709 0.46051 0.0
C1911 C 0.86843 0.69713 0.47538 0.0
C1912 C 0.8739 0.71704 0.494 0.0
C1913 C 0.85689 0.73663 0.49739 0.0
C1914 C 0.83941 0.67637 0.44022 0.0
C1915 C 0.89755 0.71745 0.51055 0.0
C1916 C 0.89464 0.63154 0.47796 0.0
C1917 C 0.91402 0.63277 0.45981 0.0
C1918 C 0.88067 0.65287 0.48432 0.0
C1919 C 0.88573 0.67579 0.47173 0.0
C1920 C 0.90582 0.67738 0.45395 0.0
C1921 C 0.91995 0.65591 0.44843 0.0
C1922 C 0.85984 0.65056 0.50384 0.0
C1923 C 0.91144 0.70127 0.4397 0.0
H1924 H 0.81122 0.71562 0.45393 0.0
H1925 H 0.86142 0.75208 0.51131 0.0
H1926 H 0.85549 0.67473 0.4268 0.0
H1927 H 0.83641 0.65774 0.4491 0.0
H1928 H 0.82194 0.68001 0.42921 0.0
H1929 H 0.89906 0.73426 0.52419 0.0
H1930 H 0.89743 0.69988 0.52145 0.0
H1931 H 0.91482 0.71767 0.49855 0.0
H1932 H 0.89018 0.61375 0.487 0.0
H1933 H 0.93483 0.65689 0.4343 0.0
H1934 H 0.84095 0.65116 0.49435 0.0
H1935 H 0.86164 0.66683 0.51806 0.0
H1936 H 0.86027 0.63252 0.51396 0.0
H1937 H 0.89511 0.70442 0.42693 0.0
H1938 H 0.92892 0.70014 0.42803 0.0
H1939 H 0.91379 0.71813 0.45315 0.0
C1940 C 0.33923 0.74142 0.4993 0.0
C1941 C 0.31384 0.74242 0.50701 0.0
C1942 C 0.35583 0.76323 0.5013 0.0
C1943 C 0.34699 0.78614 0.51228 0.0
C1944 C 0.32136 0.78713 0.52025 0.0
C1945 C 0.30492 0.76532 0.51702 0.0
C1946 C 0.38277 0.76176 0.49176 0.0
C1947 C 0.31144 0.81102 0.53273 0.0
C1948 C 0.39438 0.83529 0.54306 0.0
C1949 C 0.3938 0.85479 0.52591 0.0
C1950 C 0.37951 0.81254 0.53864 0.0
C1951 C 0.36459 0.80902 0.51607 0.0
C1952 C 0.36518 0.82814 0.49799 0.0
C1953 C 0.37939 0.85111 0.50342 0.0
C1954 C 0.37871 0.79291 0.55872 0.0
C1955 C 0.35026 0.82463 0.4733 0.0
H1956 H 0.34601 0.72355 0.49165 0.0
H1957 H 0.28521 0.76592 0.5229 0.0
H1958 H 0.38705 0.77704 0.47832 0.0
H1959 H 0.39649 0.76487 0.50789 0.0
H1960 H 0.38601 0.74305 0.482 0.0
H1961 H 0.29124 0.80829 0.53859 0.0
H1962 H 0.32323 0.81705 0.5498 0.0
H1963 H 0.31294 0.8268 0.51946 0.0
H1964 H 0.40539 0.8384 0.56057 0.0
H1965 H 0.37918 0.86628 0.49015 0.0
H1966 H 0.38364 0.77411 0.55035 0.0
H1967 H 0.35908 0.79061 0.56624 0.0
H1968 H 0.39201 0.7983 0.57486 0.0
H1969 H 0.35387 0.80594 0.46373 0.0
H1970 H 0.35522 0.83994 0.46005 0.0
H1971 H 0.32954 0.82469 0.47719 0.0
C1972 C 0.5011 0.69514 0.74463 0.0
C1973 C 0.51553 0.69585 0.76716 0.0
C1974 C 0.50408 0.676 0.72552 0.0
C1975 C 0.52258 0.65777 0.72874 0.0
C1976 C 0.53659 0.65797 0.75188 0.0
C1977 C 0.53254 0.67676 0.771 0.0
C1978 C 0.48817 0.67595 0.70149 0.0
C1979 C 0.55697 0.63935 0.75584 0.0
C1980 C 0.5245 0.59878 0.68405 0.0
C1981 C 0.54182 0.60727 0.66574 0.0
C1982 C 0.51761 0.61513 0.70447 0.0
C1983 C 0.52906 0.64017 0.70704 0.0
C1984 C 0.54699 0.64856 0.68884 0.0
C1985 C 0.55279 0.63216 0.66818 0.0
C1986 C 0.49781 0.60581 0.72301 0.0
C1987 C 0.56024 0.67482 0.69129 0.0
H1988 H 0.48795 0.70994 0.74171 0.0
H1989 H 0.54358 0.67732 0.78855 0.0
H1990 H 0.50034 0.68208 0.68552 0.0
H1991 H 0.48009 0.65642 0.69635 0.0
H1992 H 0.47228 0.68898 0.70344 0.0
H1993 H 0.56496 0.64098 0.77551 0.0
H1994 H 0.54925 0.61951 0.75186 0.0
H1995 H 0.57274 0.64294 0.74232 0.0
H1996 H 0.51586 0.57958 0.68201 0.0
H1997 H 0.56635 0.63866 0.65412 0.0
H1998 H 0.48165 0.61854 0.72339 0.0
H1999 H 0.50605 0.60645 0.74252 0.0
H2000 H 0.49032 0.58602 0.71803 0.0
H2001 H 0.54603 0.68956 0.69008 0.0
H2002 H 0.57466 0.6779 0.67625 0.0
H2003 H 0.56986 0.67772 0.71015 0.0
C2004 C 0.46809 0.85512 0.74798 0.0
C2005 C 0.49162 0.84379 0.74968 0.0
C2006 C 0.46211 0.8695 0.72713 0.0
C2007 C 0.48026 0.87311 0.70771 0.0
C2008 C 0.5045 0.86286 0.70991 0.0
C2009 C 0.50979 0.84813 0.73069 0.0
C2010 C 0.43594 0.87986 0.72534 0.0
C2011 C 0.52451 0.86654 0.68976 0.0
C2012 C 0.45732 0.88151 0.64028 0.0
C2013 C 0.46107 0.90792 0.63795 0.0
C2014 C 0.46297 0.87013 0.66304 0.0
C2015 C 0.47312 0.88543 0.68396 0.0
C2016 C 0.47687 0.91214 0.68185 0.0
C2017 C 0.47053 0.92314 0.65891 0.0
C2018 C 0.45822 0.84165 0.66462 0.0
C2019 C 0.48806 0.92897 0.70363 0.0
H2020 H 0.4541 0.85244 0.76278 0.0
H2021 H 0.52789 0.83928 0.73151 0.0
H2022 H 0.43751 0.90053 0.72193 0.0
H2023 H 0.42532 0.87025 0.70893 0.0
H2024 H 0.42464 0.87692 0.74283 0.0
H2025 H 0.54328 0.85987 0.69567 0.0
H2026 H 0.51827 0.85577 0.67194 0.0
H2027 H 0.52696 0.88695 0.68535 0.0
H2028 H 0.44973 0.86966 0.62426 0.0
H2029 H 0.47356 0.94353 0.65718 0.0
H2030 H 0.44567 0.83742 0.68094 0.0
H2031 H 0.4765 0.83267 0.66796 0.0
H2032 H 0.44919 0.83266 0.64701 0.0
H2033 H 0.47637 0.92664 0.72092 0.0
H2034 H 0.48925 0.94944 0.69917 0.0
H2035 H 0.5075 0.92318 0.70825 0.0
C2036 C 0.55378 0.33515 0.78618 0.0
C2037 C 0.53355 0.3378 0.76911 0.0
C2038 C 0.55884 0.35304 0.80639 0.0
C2039 C 0.5431 0.37388 0.80978 0.0
C2040 C 0.52334 0.37729 0.79205 0.0
C2041 C 0.51887 0.35924 0.77182 0.0
C2042 C 0.58024 0.34889 0.82486 0.0
C2043 C 0.50617 0.39929 0.79511 0.0
C2044 C 0.53745 0.39695 0.87844 0.0
C2045 C 0.55462 0.41836 0.87979 0.0
C2046 C 0.53275 0.38297 0.85546 0.0
C2047 C 0.54576 0.39044 0.83333 0.0
C2048 C 0.56242 0.41256 0.83431 0.0
C2049 C 0.56657 0.42639 0.85758 0.0
C2050 C 0.51455 0.35966 0.85508 0.0
C2051 C 0.5767 0.42095 0.81108 0.0
H2052 H 0.56506 0.31854 0.7844 0.0
H2053 H 0.50354 0.36167 0.75837 0.0
H2054 H 0.59253 0.36662 0.82801 0.0
H2055 H 0.57216 0.34393 0.84353 0.0
H2056 H 0.59231 0.33332 0.81807 0.0
H2057 H 0.49346 0.40071 0.7783 0.0
H2058 H 0.49413 0.39681 0.81215 0.0
H2059 H 0.51765 0.41754 0.79819 0.0
H2060 H 0.52791 0.39085 0.8955 0.0
H2061 H 0.57988 0.44292 0.85855 0.0
H2062 H 0.52517 0.34232 0.85093 0.0
H2063 H 0.50002 0.36063 0.83978 0.0
H2064 H 0.5046 0.35756 0.87348 0.0
H2065 H 0.59078 0.40674 0.80566 0.0
H2066 H 0.587 0.43985 0.81441 0.0
H2067 H 0.56341 0.42191 0.7947 0.0
C2068 C 0.49306 0.17134 0.75718 0.0
C2069 C 0.50778 0.19438 0.75989 0.0
C2070 C 0.49091 0.15472 0.77722 0.0
C2071 C 0.50482 0.16072 0.80009 0.0
C2072 C 0.52126 0.18306 0.80215 0.0
C2073 C 0.5223 0.19983 0.78209 0.0
C2074 C 0.4727 0.13148 0.7744 0.0
C2075 C 0.53712 0.18966 0.82584 0.0
C2076 C 0.47783 0.13711 0.86196 0.0
C2077 C 0.49117 0.11515 0.86517 0.0
C2078 C 0.48181 0.15178 0.84063 0.0
C2079 C 0.50035 0.14488 0.82256 0.0
C2080 C 0.51415 0.12283 0.82589 0.0
C2081 C 0.50903 0.10789 0.84698 0.0
C2082 C 0.46604 0.1746 0.83738 0.0
C2083 C 0.53468 0.11537 0.80753 0.0
H2084 H 0.48239 0.16686 0.73965 0.0
H2085 H 0.53411 0.21741 0.78389 0.0
H2086 H 0.48258 0.11407 0.77868 0.0
H2087 H 0.45703 0.13329 0.78828 0.0
H2088 H 0.46423 0.12893 0.75496 0.0
H2089 H 0.5513 0.20575 0.82315 0.0
H2090 H 0.52451 0.19505 0.84179 0.0
H2091 H 0.54734 0.17287 0.83151 0.0
H2092 H 0.46395 0.14261 0.87604 0.0
H2093 H 0.51955 0.09105 0.84971 0.0
H2094 H 0.45616 0.17297 0.81859 0.0
H2095 H 0.4786 0.19227 0.83784 0.0
H2096 H 0.45151 0.17658 0.85247 0.0
H2097 H 0.52652 0.11195 0.78808 0.0
H2098 H 0.54397 0.09795 0.81305 0.0
H2099 H 0.54947 0.13122 0.80666 0.0
C2100 C 0.74017 0.50172 0.7161 0.0
C2101 C 0.76329 0.5122 0.70705 0.0
C2102 C 0.71722 0.50371 0.70258 0.0
C2103 C 0.71724 0.51747 0.68005 0.0
C2104 C 0.74056 0.52829 0.67099 0.0
C2105 C 0.76337 0.52495 0.68425 0.0
C2106 C 0.69298 0.49101 0.71234 0.0
C2107 C 0.74138 0.54385 0.64757 0.0
C2108 C 0.66287 0.50891 0.63144 0.0
C2109 C 0.64761 0.52887 0.63892 0.0
C2110 C 0.68513 0.5044 0.64519 0.0
C2111 C 0.69286 0.521 0.66619 0.0
C2112 C 0.67756 0.54138 0.67359 0.0
C2113 C 0.65483 0.54473 0.66019 0.0
C2114 C 0.70032 0.48186 0.6373 0.0
C2115 C 0.68556 0.56009 0.69522 0.0
H2116 H 0.74014 0.49174 0.73367 0.0
H2117 H 0.7813 0.53276 0.67707 0.0
H2118 H 0.67941 0.50561 0.71798 0.0
H2119 H 0.68361 0.47847 0.69705 0.0
H2120 H 0.69653 0.47942 0.729 0.0
H2121 H 0.76089 0.5519 0.6437 0.0
H2122 H 0.73453 0.53188 0.63071 0.0
H2123 H 0.72845 0.55977 0.64992 0.0
H2124 H 0.65716 0.49658 0.61504 0.0
H2125 H 0.64311 0.56035 0.66577 0.0
H2126 H 0.70342 0.47005 0.65388 0.0
H2127 H 0.71937 0.48855 0.63056 0.0
H2128 H 0.69068 0.46967 0.62188 0.0
H2129 H 0.68718 0.55002 0.71316 0.0
H2130 H 0.67189 0.57532 0.69812 0.0
H2131 H 0.70466 0.56912 0.69136 0.0
C2132 C 0.25017 0.00138 0.655 0.0
C2133 C 0.25185 0.99331 0.67994 0.0
C2134 C 0.2701 0.99781 0.63772 0.0
C2135 C 0.29174 0.98498 0.64531 0.0
C2136 C 0.29324 0.97641 0.67039 0.0
C2137 C 0.27345 0.98101 0.68749 0.0
C2138 C 0.26805 0.00784 0.61141 0.0
C2139 C 0.31561 0.96207 0.6791 0.0
C2140 C 0.33303 0.95348 0.59506 0.0
C2141 C 0.35501 0.96991 0.596 0.0
C2142 C 0.31211 0.95831 0.61075 0.0
C2143 C 0.31291 0.98051 0.62717 0.0
C2144 C 0.33459 0.99777 0.62723 0.0
C2145 C 0.35554 0.99204 0.61197 0.0
C2146 C 0.28966 0.93908 0.61061 0.0
C2147 C 0.33592 0.02202 0.64384 0.0
H2148 H 0.23325 0.01051 0.64905 0.0
H2149 H 0.2746 0.9746 0.70674 0.0
H2150 H 0.28493 0.02072 0.60767 0.0
H2151 H 0.26788 0.99183 0.59691 0.0
H2152 H 0.25054 0.01842 0.60889 0.0
H2153 H 0.31338 0.95581 0.69887 0.0
H2154 H 0.31787 0.94502 0.66624 0.0
H2155 H 0.33345 0.97429 0.67816 0.0
H2156 H 0.33267 0.93622 0.58293 0.0
H2157 H 0.37246 0.00486 0.61262 0.0
H2158 H 0.27173 0.94844 0.60668 0.0
H2159 H 0.28781 0.93098 0.62966 0.0
H2160 H 0.29162 0.92321 0.5962 0.0
H2161 H 0.31861 0.03276 0.64093 0.0
H2162 H 0.35301 0.03456 0.63987 0.0
H2163 H 0.33651 0.01733 0.66416 0.0
C2164 C 0.77262 0.5171 0.87072 0.0
C2165 C 0.77132 0.49955 0.84974 0.0
C2166 C 0.75361 0.51669 0.88937 0.0
C2167 C 0.73296 0.49823 0.88698 0.0
C2168 C 0.73192 0.4801 0.86621 0.0
C2169 C 0.75098 0.4811 0.8478 0.0
C2170 C 0.75526 0.53636 0.91123 0.0
C2171 C 0.71024 0.46004 0.86297 0.0
C2172 C 0.68853 0.4793 0.94004 0.0
C2173 C 0.66617 0.4905 0.93266 0.0
C2174 C 0.71117 0.48303 0.92635 0.0
C2175 C 0.7114 0.49855 0.90505 0.0
C2176 C 0.68947 0.51156 0.89889 0.0
C2177 C 0.66707 0.50724 0.91268 0.0
C2178 C 0.73416 0.46879 0.93344 0.0
C2179 C 0.68905 0.52857 0.87657 0.0
H2180 H 0.78845 0.53122 0.87251 0.0
H2181 H 0.7495 0.46778 0.83143 0.0
H2182 H 0.73918 0.54908 0.90994 0.0
H2183 H 0.7535 0.52696 0.92963 0.0
H2184 H 0.77344 0.54823 0.91135 0.0
H2185 H 0.71314 0.44637 0.84664 0.0
H2186 H 0.7081 0.44919 0.88048 0.0
H2187 H 0.69208 0.46933 0.85984 0.0
H2188 H 0.68795 0.46637 0.9555 0.0
H2189 H 0.64993 0.51626 0.90715 0.0
H2190 H 0.75179 0.4814 0.93315 0.0
H2191 H 0.73644 0.4528 0.91926 0.0
H2192 H 0.7323 0.46083 0.95257 0.0
H2193 H 0.70627 0.54179 0.87681 0.0
H2194 H 0.67185 0.53995 0.87648 0.0
H2195 H 0.68919 0.51671 0.85856 0.0
C2196 C 0.28402 0.99172 0.84086 0.0
C2197 C 0.28273 0.00773 0.82034 0.0
C2198 C 0.3047 0.99418 0.85802 0.0
C2199 C 0.32423 0.01332 0.8547 0.0
C2200 C 0.32327 0.02918 0.83377 0.0
C2201 C 0.30267 0.026 0.8167 0.0
C2202 C 0.30543 0.97667 0.87991 0.0
C2203 C 0.34375 0.04988 0.82963 0.0
C2204 C 0.36523 0.04222 0.90914 0.0
C2205 C 0.38882 0.03236 0.90328 0.0
C2206 C 0.34355 0.03514 0.89419 0.0
C2207 C 0.34555 0.01745 0.87328 0.0
C2208 C 0.36891 0.00608 0.86842 0.0
C2209 C 0.39038 0.0139 0.88333 0.0
C2210 C 0.319 0.0479 0.89972 0.0
C2211 C 0.37158 0.9867 0.84664 0.0
H2212 H 0.26857 0.97769 0.84388 0.0
H2213 H 0.3021 0.03801 0.80054 0.0
H2214 H 0.32393 0.96749 0.88037 0.0
H2215 H 0.3038 0.98786 0.89817 0.0
H2216 H 0.28976 0.96156 0.87869 0.0
H2217 H 0.33999 0.06069 0.81248 0.0
H2218 H 0.3451 0.06347 0.84644 0.0
H2219 H 0.36256 0.04146 0.82752 0.0
H2220 H 0.36399 0.05649 0.92457 0.0
H2221 H 0.40855 0.00594 0.87903 0.0
H2222 H 0.30278 0.03351 0.90028 0.0
H2223 H 0.31495 0.06077 0.88424 0.0
H2224 H 0.31992 0.05929 0.91806 0.0
H2225 H 0.35554 0.97204 0.84644 0.0
H2226 H 0.38983 0.97706 0.8477 0.0
H2227 H 0.37091 0.9963 0.82833 0.0
C2228 C 0.67847 0.73692 0.53325 0.0
C2229 C 0.69961 0.7333 0.51767 0.0
C2230 C 0.66262 0.7162 0.54031 0.0
C2231 C 0.66724 0.69141 0.53044 0.0
C2232 C 0.6877 0.68785 0.51346 0.0
C2233 C 0.70393 0.70887 0.50756 0.0
C2234 C 0.64148 0.72076 0.559 0.0
C2235 C 0.69261 0.66185 0.50178 0.0
C2236 C 0.64405 0.635 0.56808 0.0
C2237 C 0.62045 0.62822 0.55639 0.0
C2238 C 0.65937 0.65567 0.55992 0.0
C2239 C 0.65132 0.66916 0.53888 0.0
C2240 C 0.62772 0.66194 0.52661 0.0
C2241 C 0.61228 0.64182 0.53588 0.0
C2242 C 0.68394 0.66335 0.57409 0.0
C2243 C 0.61893 0.67529 0.50359 0.0
H2244 H 0.67479 0.75599 0.54049 0.0
H2245 H 0.72003 0.70625 0.49512 0.0
H2246 H 0.62279 0.71402 0.55046 0.0
H2247 H 0.64435 0.70969 0.57615 0.0
H2248 H 0.64063 0.74121 0.56505 0.0
H2249 H 0.7077 0.66272 0.48712 0.0
H2250 H 0.69859 0.64925 0.51679 0.0
H2251 H 0.67484 0.65293 0.49291 0.0
H2252 H 0.65024 0.62445 0.58403 0.0
H2253 H 0.59413 0.63628 0.52668 0.0
H2254 H 0.68373 0.68354 0.5812 0.0
H2255 H 0.70036 0.66188 0.56109 0.0
H2256 H 0.68707 0.65131 0.59052 0.0
H2257 H 0.61589 0.69555 0.50883 0.0
H2258 H 0.60089 0.6663 0.4953 0.0
H2259 H 0.63385 0.67503 0.48878 0.0
C2260 C 0.68192 0.27592 0.01387 0.0
C2261 C 0.68359 0.25929 0.9923 0.0
C2262 C 0.66688 0.2972 0.01366 0.0
C2263 C 0.65369 0.30254 0.99111 0.0
C2264 C 0.65458 0.28549 0.96955 0.0
C2265 C 0.66912 0.26391 0.97054 0.0
C2266 C 0.66595 0.31455 0.03728 0.0
C2267 C 0.64116 0.29067 0.94498 0.0
C2268 C 0.60277 0.35162 0.99167 0.0
C2269 C 0.617 0.3736 0.98494 0.0
C2270 C 0.61449 0.32843 0.99431 0.0
C2271 C 0.64089 0.32705 0.98935 0.0
C2272 C 0.65524 0.34916 0.98233 0.0
C2273 C 0.64322 0.37219 0.98056 0.0
C2274 C 0.59871 0.30546 0.00256 0.0
C2275 C 0.68327 0.34845 0.97625 0.0
H2276 H 0.69312 0.27295 0.03075 0.0
H2277 H 0.66953 0.25095 0.95396 0.0
H2278 H 0.67671 0.33286 0.03409 0.0
H2279 H 0.64598 0.31897 0.04157 0.0
H2280 H 0.67434 0.30602 0.05414 0.0
H2281 H 0.64271 0.27495 0.93031 0.0
H2282 H 0.62069 0.2935 0.9484 0.0
H2283 H 0.64958 0.30852 0.93731 0.0
H2284 H 0.58253 0.35264 0.9952 0.0
H2285 H 0.6543 0.38903 0.97509 0.0
H2286 H 0.60727 0.29808 0.01991 0.0
H2287 H 0.59865 0.28997 0.98752 0.0
H2288 H 0.57867 0.3099 0.00661 0.0
H2289 H 0.69404 0.34276 0.9931 0.0
H2290 H 0.69154 0.36717 0.97043 0.0
H2291 H 0.68611 0.33397 0.96065 0.0
C2292 C 0.35132 0.24299 0.97657 0.0
C2293 C 0.35455 0.26043 0.99755 0.0
C2294 C 0.36656 0.22205 0.97357 0.0
C2295 C 0.38522 0.21801 0.99228 0.0
C2296 C 0.38851 0.23531 0.01365 0.0
C2297 C 0.37325 0.25642 0.01595 0.0
C2298 C 0.36256 0.20416 0.95039 0.0
C2299 C 0.40802 0.23141 0.03414 0.0
C2300 C 0.40511 0.14978 0.99243 0.0
C2301 C 0.4278 0.1512 0.97855 0.0
C2302 C 0.39172 0.17165 0.99816 0.0
C2303 C 0.40099 0.19543 0.98939 0.0
C2304 C 0.42428 0.19713 0.97604 0.0
C2305 C 0.43752 0.17502 0.97097 0.0
C2306 C 0.36717 0.16913 0.01281 0.0
C2307 C 0.43457 0.22207 0.96604 0.0
H2308 H 0.33654 0.24546 0.96255 0.0
H2309 H 0.37612 0.26987 0.03209 0.0
H2310 H 0.38074 0.20261 0.93997 0.0
H2311 H 0.35651 0.1848 0.9563 0.0
H2312 H 0.34791 0.21055 0.93712 0.0
H2313 H 0.40801 0.24642 0.04971 0.0
H2314 H 0.40416 0.21256 0.04238 0.0
H2315 H 0.42736 0.23141 0.02583 0.0
H2316 H 0.39761 0.13147 0.99856 0.0
H2317 H 0.45499 0.17626 0.96014 0.0
H2318 H 0.35085 0.17276 1.00022 0.0
H2319 H 0.36735 0.18355 0.02891 0.0
H2320 H 0.36389 0.14988 0.02041 0.0
H2321 H 0.42141 0.22823 0.9512 0.0
H2322 H 0.4538 0.22058 0.95764 0.0
H2323 H 0.43566 0.23718 0.98149 0.0
C2324 C 0.85399 0.25628 0.99174 0.0
C2325 C 0.82883 0.25792 0.99996 0.0
C2326 C 0.87133 0.27749 0.9942 0.0
C2327 C 0.86341 0.30036 0.00609 0.0
C2328 C 0.83797 0.30202 0.01447 0.0
C2329 C 0.8208 0.28086 0.01078 0.0
C2330 C 0.89804 0.27541 0.98422 0.0
C2331 C 0.82904 0.3259 0.02786 0.0
C2332 C 0.91182 0.34723 0.03843 0.0
C2333 C 0.91137 0.36754 0.02225 0.0
C2334 C 0.89676 0.3248 0.03304 0.0
C2335 C 0.88176 0.32251 0.01046 0.0
C2336 C 0.88266 0.34238 0.99322 0.0
C2337 C 0.89709 0.36499 0.99963 0.0
C2338 C 0.89563 0.30431 0.05224 0.0
C2339 C 0.86766 0.34017 0.96853 0.0
H2340 H 0.86001 0.2384 0.98334 0.0
H2341 H 0.80122 0.28194 0.01695 0.0
H2342 H 0.90268 0.29102 0.97125 0.0
H2343 H 0.912 0.27752 1.00021 0.0
H2344 H 0.90051 0.25686 0.9738 0.0
H2345 H 0.80886 0.32367 0.03394 0.0
H2346 H 0.84119 0.33098 0.04492 0.0
H2347 H 0.83093 0.34209 0.01512 0.0
H2348 H 0.92277 0.34949 0.05605 0.0
H2349 H 0.89699 0.38081 0.98712 0.0
H2350 H 0.89968 0.28561 0.043 0.0
H2351 H 0.87612 0.30243 0.06014 0.0
H2352 H 0.90939 0.30856 0.06824 0.0
H2353 H 0.87048 0.32157 0.95839 0.0
H2354 H 0.87322 0.35572 0.95575 0.0
H2355 H 0.84701 0.34097 0.97253 0.0
loop_
_geom_bond_atom_site_label_1
_geom_bond_atom_site_label_2
_geom_bond_distance
_geom_bond_site_symmetry_2
_ccdc_geom_bond_type
C0 C1 1.443 . S
C0 N4 1.376 . S
C0 C38 1.389 . S
C1 C0 1.443 . S
C1 C2 1.340 . S
C1 H41 0.951 . S
C2 C1 1.340 . S
C2 C3 1.439 . S
C2 H42 0.950 . S
C3 C2 1.439 . S
C3 N4 1.374 . S
C3 C37 1.395 . S
N4 C0 1.376 . S
N4 C3 1.374 . S
N4 Co5 2.008 1_655 S
Co5 N4 2.008 1_455 S
Co5 N6 1.995 1_455 S
Co5 N11 2.008 . S
Co5 N16 1.995 . S
Co5 N21 2.282 . S
Co5 N27 2.282 1_455 S
N6 Co5 1.995 1_655 S
N6 C7 1.376 . S
N6 C10 1.383 . S
C7 N6 1.376 . S
C7 C8 1.446 . S
C7 C37 1.391 . S
C8 C7 1.446 . S
C8 C9 1.339 . S
C8 H43 0.949 . S
C9 C8 1.339 . S
C9 C10 1.439 . S
C9 H44 0.950 . S
C10 N6 1.383 . S
C10 C9 1.439 . S
C10 C39 1.392 1_655 S
N11 Co5 2.008 . S
N11 C12 1.376 . S
N11 C15 1.374 . S
C12 N11 1.376 . S
C12 C13 1.443 . S
C12 C39 1.389 . S
C13 C12 1.443 . S
C13 C14 1.340 . S
C13 H45 0.951 . S
C14 C13 1.340 . S
C14 C15 1.439 . S
C14 H46 0.950 . S
C15 N11 1.374 . S
C15 C14 1.439 . S
C15 C40 1.395 . S
N16 Co5 1.995 . S
N16 C17 1.376 . S
N16 C20 1.383 . S
C17 N16 1.376 . S
C17 C18 1.446 . S
C17 C40 1.391 . S
C18 C17 1.446 . S
C18 C19 1.339 . S
C18 H47 0.949 . S
C19 C18 1.339 . S
C19 C20 1.439 . S
C19 H48 0.950 . S
C20 N16 1.383 . S
C20 C19 1.439 . S
C20 C38 1.392 1_455 S
N21 Co5 2.282 . S
N21 C24 1.332 . S
N21 C26 1.332 1_455 S
C22 C23 1.386 . S
C22 C25 1.388 1_455 S
C23 C22 1.386 . S
C23 C24 1.382 . S
C23 H49 0.950 . S
C24 N21 1.332 . S
C24 C23 1.382 . S
C24 H35 0.952 . S
C25 C22 1.388 1_655 S
C25 C26 1.382 . S
C25 H50 0.950 . S
C26 N21 1.332 1_655 S
C26 C25 1.382 . S
C26 H36 0.948 . S
N27 Co5 2.282 1_655 S
N27 C31 1.332 . S
N27 C32 1.332 1_655 S
C28 C29 1.388 1_455 S
C28 C32 1.382 . S
C28 H51 0.950 . S
C29 C28 1.388 1_655 S
C29 C30 1.386 . S
C30 C29 1.386 . S
C30 C31 1.382 . S
C30 H52 0.950 . S
C31 N27 1.332 . S
C31 C30 1.382 . S
C31 H33 0.952 . S
C32 N27 1.332 1_455 S
C32 C28 1.382 . S
C32 H34 0.948 . S
H33 C31 0.952 . S
H34 C32 0.948 . S
H35 C24 0.952 . S
H36 C26 0.948 . S
C37 C3 1.395 . S
C37 C7 1.391 . S
C38 C0 1.389 . S
C38 C20 1.392 1_655 S
C39 C10 1.392 1_455 S
C39 C12 1.389 . S
C40 C15 1.395 . S
C40 C17 1.391 . S
H41 C1 0.951 . S
H42 C2 0.950 . S
H43 C8 0.949 . S
H44 C9 0.950 . S
H45 C13 0.951 . S
H46 C14 0.950 . S
H47 C18 0.949 . S
H48 C19 0.950 . S
H49 C23 0.950 . S
H50 C25 0.950 . S
H51 C28 0.950 . S
H52 C30 0.950 . S
C53 C54 1.443 . S
C53 N57 1.376 . S
C53 C91 1.389 1_655 S
C54 C53 1.443 . S
C54 C55 1.340 . S
C54 H94 0.951 . S
C55 C54 1.340 . S
C55 C56 1.439 . S
C55 H95 0.950 . S
C56 C55 1.439 . S
C56 N57 1.374 . S
C56 C90 1.395 . S
N57 C53 1.376 . S
N57 C56 1.374 . S
N57 Co58 2.008 1_655 S
Co58 N57 2.008 1_455 S
Co58 N59 1.993 1_455 S
Co58 N64 2.008 . S
Co58 N69 1.995 . S
Co58 N74 2.282 . S
Co58 N80 2.282 . S
N59 Co58 1.993 1_655 S
N59 C60 1.379 . S
N59 C63 1.382 1_655 S
C60 N59 1.379 . S
C60 C61 1.446 . S
C60 C90 1.391 . S
C61 C60 1.446 . S
C61 C62 1.339 . S
C61 H96 0.949 . S
C62 C61 1.339 . S
C62 C63 1.439 1_655 S
C62 H97 0.950 . S
C63 N59 1.382 1_455 S
C63 C62 1.439 1_455 S
C63 C92 1.392 . S
N64 Co58 2.008 . S
N64 C65 1.376 . S
N64 C68 1.374 . S
C65 N64 1.376 . S
C65 C66 1.443 . S
C65 C92 1.389 . S
C66 C65 1.443 . S
C66 C67 1.340 . S
C66 H98 0.951 . S
C67 C66 1.340 . S
C67 C68 1.439 . S
C67 H99 0.950 . S
C68 N64 1.374 . S
C68 C67 1.439 . S
C68 C93 1.395 . S
N69 Co58 1.995 . S
N69 C70 1.376 . S
N69 C73 1.383 . S
C70 N69 1.376 . S
C70 C71 1.446 . S
C70 C93 1.391 . S
C71 C70 1.446 . S
C71 C72 1.339 . S
C71 H100 0.949 . S
C72 C71 1.339 . S
C72 C73 1.439 . S
C72 H101 0.950 . S
C73 N69 1.383 . S
C73 C72 1.439 . S
C73 C91 1.392 . S
N74 Co58 2.282 . S
N74 C77 1.332 . S
N74 C79 1.332 . S
C75 C76 1.386 . S
C75 C78 1.388 . S
C76 C75 1.386 . S
C76 C77 1.382 . S
C76 H102 0.950 . S
C77 N74 1.332 . S
C77 C76 1.382 . S
C77 H88 0.952 . S
C78 C75 1.388 . S
C78 C79 1.382 . S
C78 H103 0.950 . S
C79 N74 1.332 . S
C79 C78 1.382 . S
C79 H89 0.948 1_455 S
N80 Co58 2.282 . S
N80 C84 1.332 1_455 S
N80 C85 1.332 . S
C81 C82 1.388 . S
C81 C85 1.382 . S
C81 H104 0.950 . S
C82 C81 1.388 . S
C82 C83 1.386 1_455 S
C83 C82 1.386 1_655 S
C83 C84 1.382 . S
C83 H105 0.950 . S
C84 N80 1.332 1_655 S
C84 C83 1.382 . S
C84 H86 0.952 . S
C85 N80 1.332 . S
C85 C81 1.382 . S
C85 H87 0.948 . S
H86 C84 0.952 . S
H87 C85 0.948 . S
H88 C77 0.952 . S
H89 C79 0.948 1_655 S
C90 C56 1.395 . S
C90 C60 1.391 . S
C91 C53 1.389 1_455 S
C91 C73 1.392 . S
C92 C63 1.392 . S
C92 C65 1.389 . S
C93 C68 1.395 . S
C93 C70 1.391 . S
H94 C54 0.951 . S
H95 C55 0.950 . S
H96 C61 0.949 . S
H97 C62 0.950 . S
H98 C66 0.951 . S
H99 C67 0.950 . S
H100 C71 0.949 . S
H101 C72 0.950 . S
H102 C76 0.950 . S
H103 C78 0.950 . S
H104 C81 0.950 . S
H105 C83 0.950 . S
C106 C107 1.443 . S
C106 N110 1.376 . S
C106 C144 1.389 . S
C107 C106 1.443 . S
C107 C108 1.340 . S
C107 H147 0.951 . S
C108 C107 1.340 . S
C108 C109 1.439 . S
C108 H148 0.950 . S
C109 C108 1.439 . S
C109 N110 1.374 . S
C109 C143 1.395 . S
N110 C106 1.376 . S
N110 C109 1.374 . S
N110 Co111 2.008 1_565 S
Co111 N110 2.008 1_545 S
Co111 N112 1.995 1_545 S
Co111 N117 2.008 . S
Co111 N122 1.995 . S
Co111 N127 2.282 . S
Co111 N133 2.278 1_545 S
N112 Co111 1.995 1_565 S
N112 C113 1.376 . S
N112 C116 1.383 . S
C113 N112 1.376 . S
C113 C114 1.446 . S
C113 C143 1.391 . S
C114 C113 1.446 . S
C114 C115 1.339 . S
C114 H149 0.949 . S
C115 C114 1.339 . S
C115 C116 1.439 . S
C115 H150 0.950 . S
C116 N112 1.383 . S
C116 C115 1.439 . S
C116 C145 1.392 1_565 S
N117 Co111 2.008 . S
N117 C118 1.376 . S
N117 C121 1.374 . S
C118 N117 1.376 . S
C118 C119 1.443 . S
C118 C145 1.389 . S
C119 C118 1.443 . S
C119 C120 1.340 . S
C119 H151 0.951 . S
C120 C119 1.340 . S
C120 C121 1.439 . S
C120 H152 0.950 . S
C121 N117 1.374 . S
C121 C120 1.439 . S
C121 C146 1.395 . S
N122 Co111 1.995 . S
N122 C123 1.376 . S
N122 C126 1.383 . S
C123 N122 1.376 . S
C123 C124 1.446 . S
C123 C146 1.391 . S
C124 C123 1.446 . S
C124 C125 1.339 . S
C124 H153 0.949 . S
C125 C124 1.339 . S
C125 C126 1.439 . S
C125 H154 0.950 . S
C126 N122 1.383 . S
C126 C125 1.439 . S
C126 C144 1.392 1_545 S
N127 Co111 2.282 . S
N127 C130 1.332 . S
N127 C132 1.332 1_545 S
C128 C129 1.386 . S
C128 C131 1.388 . S
C129 C128 1.386 . S
C129 C130 1.382 . S
C129 H155 0.950 . S
C130 N127 1.332 . S
C130 C129 1.382 . S
C130 H141 0.952 . S
C131 C128 1.388 . S
C131 C132 1.382 1_545 S
C131 H156 0.950 1_545 S
C132 N127 1.332 1_565 S
C132 C131 1.382 1_565 S
C132 H142 0.948 . S
N133 Co111 2.278 1_565 S
N133 C137 1.359 . S
N133 C138 1.314 1_565 S
C134 C135 1.388 1_545 S
C134 C138 1.382 . S
C134 H157 0.950 . S
C135 C134 1.388 1_565 S
C135 C136 1.386 . S
C136 C135 1.386 . S
C136 C137 1.382 . S
C136 H158 0.950 . S
C137 N133 1.359 . S
C137 C136 1.382 . S
C137 H139 0.952 . S
C138 N133 1.314 1_545 S
C138 C134 1.382 . S
C138 H140 0.948 . S
H139 C137 0.952 . S
H140 C138 0.948 . S
H141 C130 0.952 . S
H142 C132 0.948 . S
C143 C109 1.395 . S
C143 C113 1.391 . S
C144 C106 1.389 . S
C144 C126 1.392 1_565 S
C145 C116 1.392 1_545 S
C145 C118 1.389 . S
C146 C121 1.395 . S
C146 C123 1.391 . S
H147 C107 0.951 . S
H148 C108 0.950 . S
H149 C114 0.949 . S
H150 C115 0.950 . S
H151 C119 0.951 . S
H152 C120 0.950 . S
H153 C124 0.949 . S
H154 C125 0.950 . S
H155 C129 0.950 . S
H156 C131 0.950 1_565 S
H157 C134 0.950 . S
H158 C136 0.950 . S
C159 C160 1.443 . S
C159 N163 1.376 . S
C159 C197 1.389 . S
C160 C159 1.443 . S
C160 C161 1.340 . S
C160 H200 0.951 . S
C161 C160 1.340 . S
C161 C162 1.439 . S
C161 H201 0.950 . S
C162 C161 1.439 . S
C162 N163 1.374 . S
C162 C196 1.395 . S
N163 C159 1.376 . S
N163 C162 1.374 . S
N163 Co164 2.008 . S
Co164 N163 2.008 . S
Co164 N165 1.995 . S
Co164 N170 2.008 . S
Co164 N175 1.995 . S
Co164 N180 2.282 . S
Co164 N186 2.282 . S
N165 Co164 1.995 . S
N165 C166 1.376 . S
N165 C169 1.383 . S
C166 N165 1.376 . S
C166 C167 1.446 . S
C166 C196 1.391 . S
C167 C166 1.446 . S
C167 C168 1.339 . S
C167 H202 0.949 . S
C168 C167 1.339 . S
C168 C169 1.439 . S
C168 H203 0.950 . S
C169 N165 1.383 . S
C169 C168 1.439 . S
C169 C198 1.392 . S
N170 Co164 2.008 . S
N170 C171 1.376 . S
N170 C174 1.374 . S
C171 N170 1.376 . S
C171 C172 1.443 . S
C171 C198 1.389 . S
C172 C171 1.443 . S
C172 C173 1.340 . S
C172 H204 0.951 . S
C173 C172 1.340 . S
C173 C174 1.439 . S
C173 H205 0.950 . S
C174 N170 1.374 . S
C174 C173 1.439 . S
C174 C199 1.395 . S
N175 Co164 1.995 . S
N175 C176 1.376 . S
N175 C179 1.383 . S
C176 N175 1.376 . S
C176 C177 1.446 . S
C176 C199 1.391 . S
C177 C176 1.446 . S
C177 C178 1.339 . S
C177 H206 0.949 . S
C178 C177 1.339 . S
C178 C179 1.439 . S
C178 H207 0.950 . S
C179 N175 1.383 . S
C179 C178 1.439 . S
C179 C197 1.392 . S
N180 Co164 2.282 . S
N180 C183 1.332 . S
N180 C185 1.332 . S
C181 C182 1.386 . S
C181 C184 1.388 . S
C182 C181 1.386 . S
C182 C183 1.382 . S
C182 H208 0.950 . S
C183 N180 1.332 . S
C183 C182 1.382 . S
C183 H194 0.952 . S
C184 C181 1.388 . S
C184 C185 1.382 . S
C184 H209 0.950 . S
C185 N180 1.332 . S
C185 C184 1.382 . S
C185 H195 0.948 . S
N186 Co164 2.282 . S
N186 C190 1.332 . S
N186 C191 1.332 . S
C187 C188 1.388 . S
C187 C191 1.382 . S
C187 H210 0.950 . S
C188 C187 1.388 . S
C188 C189 1.386 . S
C189 C188 1.386 . S
C189 C190 1.382 . S
C189 H211 0.950 . S
C190 N186 1.332 . S
C190 C189 1.382 . S
C190 H192 0.952 . S
C191 N186 1.332 . S
C191 C187 1.382 . S
C191 H193 0.948 . S
H192 C190 0.952 . S
H193 C191 0.948 . S
H194 C183 0.952 . S
H195 C185 0.948 . S
C196 C162 1.395 . S
C196 C166 1.391 . S
C197 C159 1.389 . S
C197 C179 1.392 . S
C198 C169 1.392 . S
C198 C171 1.389 . S
C199 C174 1.395 . S
C199 C176 1.391 . S
H200 C160 0.951 . S
H201 C161 0.950 . S
H202 C167 0.949 . S
H203 C168 0.950 . S
H204 C172 0.951 . S
H205 C173 0.950 . S
H206 C177 0.949 . S
H207 C178 0.950 . S
H208 C182 0.950 . S
H209 C184 0.950 . S
H210 C187 0.950 . S
H211 C189 0.950 . S
C212 C213 1.443 . S
C212 N216 1.376 . S
C212 C250 1.389 1_556 S
C213 C212 1.443 . S
C213 C214 1.340 . S
C213 H253 0.951 . S
C214 C213 1.340 . S
C214 C215 1.439 . S
C214 H254 0.950 . S
C215 C214 1.439 . S
C215 N216 1.374 . S
C215 C249 1.395 . S
N216 C212 1.376 . S
N216 C215 1.374 . S
N216 Co217 2.008 1_556 S
Co217 N216 2.008 1_554 S
Co217 N218 1.995 1_554 S
Co217 N223 2.008 . S
Co217 N228 1.995 . S
Co217 N233 2.282 . S
Co217 N239 2.282 . S
N218 Co217 1.995 1_556 S
N218 C219 1.376 . S
N218 C222 1.383 1_556 S
C219 N218 1.376 . S
C219 C220 1.446 . S
C219 C249 1.391 . S
C220 C219 1.446 . S
C220 C221 1.339 . S
C220 H255 0.949 . S
C221 C220 1.339 . S
C221 C222 1.439 1_556 S
C221 H256 0.950 . S
C222 N218 1.383 1_554 S
C222 C221 1.439 1_554 S
C222 C251 1.392 . S
N223 Co217 2.008 . S
N223 C224 1.376 . S
N223 C227 1.374 . S
C224 N223 1.376 . S
C224 C225 1.443 . S
C224 C251 1.389 . S
C225 C224 1.443 . S
C225 C226 1.340 . S
C225 H257 0.951 . S
C226 C225 1.340 . S
C226 C227 1.439 . S
C226 H258 0.950 . S
C227 N223 1.374 . S
C227 C226 1.439 . S
C227 C252 1.395 . S
N228 Co217 1.995 . S
N228 C229 1.376 . S
N228 C232 1.383 . S
C229 N228 1.376 . S
C229 C230 1.446 . S
C229 C252 1.391 . S
C230 C229 1.446 . S
C230 C231 1.339 . S
C230 H259 0.949 . S
C231 C230 1.339 . S
C231 C232 1.439 . S
C231 H260 0.950 . S
C232 N228 1.383 . S
C232 C231 1.439 . S
C232 C250 1.392 . S
N233 Co217 2.282 . S
N233 C236 1.332 . S
N233 C238 1.332 . S
C234 C235 1.386 . S
C234 C237 1.388 . S
C235 C234 1.386 . S
C235 C236 1.382 . S
C235 H261 0.950 . S
C236 N233 1.332 . S
C236 C235 1.382 . S
C236 H247 0.952 . S
C237 C234 1.388 . S
C237 C238 1.382 . S
C237 H262 0.948 1_554 S
C238 N233 1.332 . S
C238 C237 1.382 . S
C238 H248 0.948 1_554 S
N239 Co217 2.282 . S
N239 C243 1.332 1_554 S
N239 C244 1.332 . S
C240 C241 1.388 . S
C240 C244 1.382 . S
C240 H263 0.950 . S
C241 C240 1.388 . S
C241 C242 1.386 1_554 S
C242 C241 1.386 1_556 S
C242 C243 1.382 . S
C242 H264 0.950 . S
C243 N239 1.332 1_556 S
C243 C242 1.382 . S
C243 H245 0.952 . S
C244 N239 1.332 . S
C244 C240 1.382 . S
C244 H246 0.948 . S
H245 C243 0.952 . S
H246 C244 0.948 . S
H247 C236 0.952 . S
H248 C238 0.948 1_556 S
C249 C215 1.395 . S
C249 C219 1.391 . S
C250 C212 1.389 1_554 S
C250 C232 1.392 . S
C251 C222 1.392 . S
C251 C224 1.389 . S
C252 C227 1.395 . S
C252 C229 1.391 . S
H253 C213 0.951 . S
H254 C214 0.950 . S
H255 C220 0.949 . S
H256 C221 0.950 . S
H257 C225 0.951 . S
H258 C226 0.950 . S
H259 C230 0.949 . S
H260 C231 0.950 . S
H261 C235 0.950 . S
H262 C237 0.948 1_556 S
H263 C240 0.950 . S
H264 C242 0.950 . S
C265 C266 1.443 . S
C265 N269 1.376 . S
C265 C303 1.389 . S
C266 C265 1.443 . S
C266 C267 1.340 . S
C266 H306 0.951 . S
C267 C266 1.340 . S
C267 C268 1.439 . S
C267 H307 0.950 . S
C268 C267 1.439 . S
C268 N269 1.374 . S
C268 C302 1.395 . S
N269 C265 1.376 . S
N269 C268 1.374 . S
N269 Co270 2.008 . S
Co270 N269 2.008 . S
Co270 N271 1.995 . S
Co270 N276 2.008 . S
Co270 N281 1.995 . S
Co270 N286 2.282 . S
Co270 N292 2.282 . S
N271 Co270 1.995 . S
N271 C272 1.376 . S
N271 C275 1.383 . S
C272 N271 1.376 . S
C272 C273 1.446 . S
C272 C302 1.391 . S
C273 C272 1.446 . S
C273 C274 1.339 . S
C273 H308 0.949 . S
C274 C273 1.339 . S
C274 C275 1.439 . S
C274 H309 0.950 . S
C275 N271 1.383 . S
C275 C274 1.439 . S
C275 C304 1.392 . S
N276 Co270 2.008 . S
N276 C277 1.376 . S
N276 C280 1.374 . S
C277 N276 1.376 . S
C277 C278 1.443 . S
C277 C304 1.389 . S
C278 C277 1.443 . S
C278 C279 1.340 . S
C278 H310 0.951 . S
C279 C278 1.340 . S
C279 C280 1.439 . S
C279 H311 0.950 . S
C280 N276 1.374 . S
C280 C279 1.439 . S
C280 C305 1.395 . S
N281 Co270 1.995 . S
N281 C282 1.376 . S
N281 C285 1.383 . S
C282 N281 1.376 . S
C282 C283 1.446 . S
C282 C305 1.391 . S
C283 C282 1.446 . S
C283 C284 1.339 . S
C283 H312 0.949 . S
C284 C283 1.339 . S
C284 C285 1.439 . S
C284 H313 0.950 . S
C285 N281 1.383 . S
C285 C284 1.439 . S
C285 C303 1.392 . S
N286 Co270 2.282 . S
N286 C289 1.332 . S
N286 C291 1.332 . S
C287 C288 1.386 . S
C287 C290 1.388 . S
C288 C287 1.386 . S
C288 C289 1.382 . S
C288 H314 0.950 . S
C289 N286 1.332 . S
C289 C288 1.382 . S
C289 H300 0.952 . S
C290 C287 1.388 . S
C290 C291 1.382 . S
C290 H315 0.950 . S
C291 N286 1.332 . S
C291 C290 1.382 . S
C291 H301 0.948 . S
N292 Co270 2.282 . S
N292 C296 1.332 . S
N292 C297 1.332 . S
C293 C294 1.388 . S
C293 C297 1.382 . S
C293 H316 0.950 . S
C294 C293 1.388 . S
C294 C295 1.386 . S
C295 C294 1.386 . S
C295 C296 1.382 . S
C295 H317 0.950 . S
C296 N292 1.332 . S
C296 C295 1.382 . S
C296 H298 0.952 . S
C297 N292 1.332 . S
C297 C293 1.382 . S
C297 H299 0.948 . S
H298 C296 0.952 . S
H299 C297 0.948 . S
H300 C289 0.952 . S
H301 C291 0.948 . S
C302 C268 1.395 . S
C302 C272 1.391 . S
C303 C265 1.389 . S
C303 C285 1.392 . S
C304 C275 1.392 . S
C304 C277 1.389 . S
C305 C280 1.395 . S
C305 C282 1.391 . S
H306 C266 0.951 . S
H307 C267 0.950 . S
H308 C273 0.949 . S
H309 C274 0.950 . S
H310 C278 0.951 . S
H311 C279 0.950 . S
H312 C283 0.949 . S
H313 C284 0.950 . S
H314 C288 0.950 . S
H315 C290 0.950 . S
H316 C293 0.950 . S
H317 C295 0.950 . S
C318 C319 1.443 . S
C318 N322 1.376 . S
C318 C356 1.389 . S
C319 C318 1.443 . S
C319 C320 1.340 . S
C319 H359 0.951 . S
C320 C319 1.340 . S
C320 C321 1.439 . S
C320 H360 0.950 . S
C321 C320 1.439 . S
C321 N322 1.374 . S
C321 C355 1.395 . S
N322 C318 1.376 . S
N322 C321 1.374 . S
N322 Co323 2.008 . S
Co323 N322 2.008 . S
Co323 N324 1.995 . S
Co323 N329 2.008 . S
Co323 N334 1.995 . S
Co323 N339 2.282 . S
Co323 N345 2.282 . S
N324 Co323 1.995 . S
N324 C325 1.376 . S
N324 C328 1.383 . S
C325 N324 1.376 . S
C325 C326 1.446 . S
C325 C355 1.391 . S
C326 C325 1.446 . S
C326 C327 1.339 . S
C326 H361 0.949 . S
C327 C326 1.339 . S
C327 C328 1.439 . S
C327 H362 0.950 . S
C328 N324 1.383 . S
C328 C327 1.439 . S
C328 C357 1.392 . S
N329 Co323 2.008 . S
N329 C330 1.376 . S
N329 C333 1.374 . S
C330 N329 1.376 . S
C330 C331 1.443 . S
C330 C357 1.389 . S
C331 C330 1.443 . S
C331 C332 1.340 . S
C331 H363 0.951 . S
C332 C331 1.340 . S
C332 C333 1.439 . S
C332 H364 0.950 . S
C333 N329 1.374 . S
C333 C332 1.439 . S
C333 C358 1.395 . S
N334 Co323 1.995 . S
N334 C335 1.376 . S
N334 C338 1.383 . S
C335 N334 1.376 . S
C335 C336 1.446 . S
C335 C358 1.391 . S
C336 C335 1.446 . S
C336 C337 1.339 . S
C336 H365 0.949 . S
C337 C336 1.339 . S
C337 C338 1.439 . S
C337 H366 0.950 . S
C338 N334 1.383 . S
C338 C337 1.439 . S
C338 C356 1.392 . S
N339 Co323 2.282 . S
N339 C342 1.332 . S
N339 C344 1.332 . S
C340 C341 1.386 . S
C340 C343 1.388 . S
C341 C340 1.386 . S
C341 C342 1.382 . S
C341 H367 0.950 . S
C342 N339 1.332 . S
C342 C341 1.382 . S
C342 H353 0.952 . S
C343 C340 1.388 . S
C343 C344 1.382 . S
C343 H368 0.950 . S
C344 N339 1.332 . S
C344 C343 1.382 . S
C344 H354 0.948 . S
N345 Co323 2.282 . S
N345 C349 1.332 . S
N345 C350 1.332 . S
C346 C347 1.388 . S
C346 C350 1.382 . S
C346 H369 0.950 . S
C347 C346 1.388 . S
C347 C348 1.386 . S
C348 C347 1.386 . S
C348 C349 1.382 . S
C348 H370 0.950 . S
C349 N345 1.332 . S
C349 C348 1.382 . S
C349 H351 0.952 . S
C350 N345 1.332 . S
C350 C346 1.382 . S
C350 H352 0.948 . S
H351 C349 0.952 . S
H352 C350 0.948 . S
H353 C342 0.952 . S
H354 C344 0.948 . S
C355 C321 1.395 . S
C355 C325 1.391 . S
C356 C318 1.389 . S
C356 C338 1.392 . S
C357 C328 1.392 . S
C357 C330 1.389 . S
C358 C333 1.395 . S
C358 C335 1.391 . S
H359 C319 0.951 . S
H360 C320 0.950 . S
H361 C326 0.949 . S
H362 C327 0.950 . S
H363 C331 0.951 . S
H364 C332 0.950 . S
H365 C336 0.949 . S
H366 C337 0.950 . S
H367 C341 0.950 . S
H368 C343 0.950 . S
H369 C346 0.950 . S
H370 C348 0.950 . S
C371 C372 1.443 . S
C371 N375 1.376 . S
C371 C409 1.389 . S
C372 C371 1.443 . S
C372 C373 1.340 . S
C372 H412 0.951 . S
C373 C372 1.340 . S
C373 C374 1.439 . S
C373 H413 0.950 . S
C374 C373 1.439 . S
C374 N375 1.374 . S
C374 C408 1.395 . S
N375 C371 1.376 . S
N375 C374 1.374 . S
N375 Co376 2.008 . S
Co376 N375 2.008 . S
Co376 N377 1.995 . S
Co376 N382 2.008 . S
Co376 N387 1.995 . S
Co376 N392 2.282 . S
Co376 N398 2.282 . S
N377 Co376 1.995 . S
N377 C378 1.376 . S
N377 C381 1.383 . S
C378 N377 1.376 . S
C378 C379 1.446 . S
C378 C408 1.391 . S
C379 C378 1.446 . S
C379 C380 1.339 . S
C379 H414 0.949 . S
C380 C379 1.339 . S
C380 C381 1.439 . S
C380 H415 0.950 . S
C381 N377 1.383 . S
C381 C380 1.439 . S
C381 C410 1.392 . S
N382 Co376 2.008 . S
N382 C383 1.376 . S
N382 C386 1.374 . S
C383 N382 1.376 . S
C383 C384 1.443 . S
C383 C410 1.389 . S
C384 C383 1.443 . S
C384 C385 1.340 . S
C384 H416 0.951 . S
C385 C384 1.340 . S
C385 C386 1.439 . S
C385 H417 0.950 . S
C386 N382 1.374 . S
C386 C385 1.439 . S
C386 C411 1.395 . S
N387 Co376 1.995 . S
N387 C388 1.376 . S
N387 C391 1.383 . S
C388 N387 1.376 . S
C388 C389 1.446 . S
C388 C411 1.391 . S
C389 C388 1.446 . S
C389 C390 1.339 . S
C389 H418 0.949 . S
C390 C389 1.339 . S
C390 C391 1.439 . S
C390 H419 0.950 . S
C391 N387 1.383 . S
C391 C390 1.439 . S
C391 C409 1.392 . S
N392 Co376 2.282 . S
N392 C395 1.332 . S
N392 C397 1.332 . S
C393 C394 1.386 . S
C393 C396 1.388 . S
C394 C393 1.386 . S
C394 C395 1.382 . S
C394 H420 0.950 . S
C395 N392 1.332 . S
C395 C394 1.382 . S
C395 H406 0.952 . S
C396 C393 1.388 . S
C396 C397 1.382 . S
C396 H421 0.950 . S
C397 N392 1.332 . S
C397 C396 1.382 . S
C397 H407 0.948 . S
N398 Co376 2.282 . S
N398 C402 1.332 . S
N398 C403 1.332 . S
C399 C400 1.388 . S
C399 C403 1.382 . S
C399 H422 0.950 . S
C400 C399 1.388 . S
C400 C401 1.386 . S
C401 C400 1.386 . S
C401 C402 1.382 . S
C401 H423 0.950 . S
C402 N398 1.332 . S
C402 C401 1.382 . S
C402 H404 0.952 . S
C403 N398 1.332 . S
C403 C399 1.382 . S
C403 H405 0.948 . S
H404 C402 0.952 . S
H405 C403 0.948 . S
H406 C395 0.952 . S
H407 C397 0.948 . S
C408 C374 1.395 . S
C408 C378 1.391 . S
C409 C371 1.389 . S
C409 C391 1.392 . S
C410 C381 1.392 . S
C410 C383 1.389 . S
C411 C386 1.395 . S
C411 C388 1.391 . S
H412 C372 0.951 . S
H413 C373 0.950 . S
H414 C379 0.949 . S
H415 C380 0.950 . S
H416 C384 0.951 . S
H417 C385 0.950 . S
H418 C389 0.949 . S
H419 C390 0.950 . S
H420 C394 0.950 . S
H421 C396 0.950 . S
H422 C399 0.950 . S
H423 C401 0.950 . S
C424 C425 1.443 . S
C424 N428 1.376 . S
C424 C462 1.389 . S
C425 C424 1.443 . S
C425 C426 1.340 . S
C425 H465 0.951 . S
C426 C425 1.340 . S
C426 C427 1.439 . S
C426 H466 0.950 . S
C427 C426 1.439 . S
C427 N428 1.374 . S
C427 C461 1.395 . S
N428 C424 1.376 . S
N428 C427 1.374 . S
N428 Co429 2.008 . S
Co429 N428 2.008 . S
Co429 N430 1.995 . S
Co429 N435 2.008 . S
Co429 N440 1.995 . S
Co429 N445 2.282 . S
Co429 N451 2.282 . S
N430 Co429 1.995 . S
N430 C431 1.376 . S
N430 C434 1.383 . S
C431 N430 1.376 . S
C431 C432 1.446 . S
C431 C461 1.391 . S
C432 C431 1.446 . S
C432 C433 1.339 . S
C432 H467 0.949 . S
C433 C432 1.339 . S
C433 C434 1.439 . S
C433 H468 0.950 . S
C434 N430 1.383 . S
C434 C433 1.439 . S
C434 C463 1.392 . S
N435 Co429 2.008 . S
N435 C436 1.376 . S
N435 C439 1.374 . S
C436 N435 1.376 . S
C436 C437 1.443 . S
C436 C463 1.389 . S
C437 C436 1.443 . S
C437 C438 1.340 . S
C437 H469 0.951 . S
C438 C437 1.340 . S
C438 C439 1.439 . S
C438 H470 0.950 . S
C439 N435 1.374 . S
C439 C438 1.439 . S
C439 C464 1.395 . S
N440 Co429 1.995 . S
N440 C441 1.376 . S
N440 C444 1.383 . S
C441 N440 1.376 . S
C441 C442 1.446 . S
C441 C464 1.391 . S
C442 C441 1.446 . S
C442 C443 1.339 . S
C442 H471 0.949 . S
C443 C442 1.339 . S
C443 C444 1.439 . S
C443 H472 0.950 . S
C444 N440 1.383 . S
C444 C443 1.439 . S
C444 C462 1.392 . S
N445 Co429 2.282 . S
N445 C448 1.332 . S
N445 C450 1.332 . S
C446 C447 1.386 . S
C446 C449 1.388 . S
C447 C446 1.386 . S
C447 C448 1.382 . S
C447 H473 0.950 . S
C448 N445 1.332 . S
C448 C447 1.382 . S
C448 H459 0.952 . S
C449 C446 1.388 . S
C449 C450 1.382 . S
C449 H474 0.950 . S
C450 N445 1.332 . S
C450 C449 1.382 . S
C450 H460 0.948 . S
N451 Co429 2.282 . S
N451 C455 1.332 . S
N451 C456 1.332 . S
C452 C453 1.388 . S
C452 C456 1.382 . S
C452 H475 0.950 . S
C453 C452 1.388 . S
C453 C454 1.386 . S
C454 C453 1.386 . S
C454 C455 1.382 . S
C454 H476 0.950 . S
C455 N451 1.332 . S
C455 C454 1.382 . S
C455 H457 0.952 . S
C456 N451 1.332 . S
C456 C452 1.382 . S
C456 H458 0.948 . S
H457 C455 0.952 . S
H458 C456 0.948 . S
H459 C448 0.952 . S
H460 C450 0.948 . S
C461 C427 1.395 . S
C461 C431 1.391 . S
C462 C424 1.389 . S
C462 C444 1.392 . S
C463 C434 1.392 . S
C463 C436 1.389 . S
C464 C439 1.395 . S
C464 C441 1.391 . S
H465 C425 0.951 . S
H466 C426 0.950 . S
H467 C432 0.949 . S
H468 C433 0.950 . S
H469 C437 0.951 . S
H470 C438 0.950 . S
H471 C442 0.949 . S
H472 C443 0.950 . S
H473 C447 0.950 . S
H474 C449 0.950 . S
H475 C452 0.950 . S
H476 C454 0.950 . S
C477 C478 1.443 . S
C477 N481 1.376 . S
C477 C515 1.389 . S
C478 C477 1.443 . S
C478 C479 1.340 . S
C478 H518 0.951 . S
C479 C478 1.340 . S
C479 C480 1.439 . S
C479 H519 0.950 . S
C480 C479 1.439 . S
C480 N481 1.374 . S
C480 C514 1.395 . S
N481 C477 1.376 . S
N481 C480 1.374 . S
N481 Co482 2.008 . S
Co482 N481 2.008 . S
Co482 N483 1.995 . S
Co482 N488 2.008 . S
Co482 N493 1.995 . S
Co482 N498 2.282 . S
Co482 N504 2.282 . S
N483 Co482 1.995 . S
N483 C484 1.376 . S
N483 C487 1.383 . S
C484 N483 1.376 . S
C484 C485 1.446 . S
C484 C514 1.391 . S
C485 C484 1.446 . S
C485 C486 1.339 . S
C485 H520 0.949 . S
C486 C485 1.339 . S
C486 C487 1.439 . S
C486 H521 0.950 . S
C487 N483 1.383 . S
C487 C486 1.439 . S
C487 C516 1.392 . S
N488 Co482 2.008 . S
N488 C489 1.376 . S
N488 C492 1.374 . S
C489 N488 1.376 . S
C489 C490 1.443 . S
C489 C516 1.389 . S
C490 C489 1.443 . S
C490 C491 1.340 . S
C490 H522 0.951 . S
C491 C490 1.340 . S
C491 C492 1.439 . S
C491 H523 0.950 . S
C492 N488 1.374 . S
C492 C491 1.439 . S
C492 C517 1.395 . S
N493 Co482 1.995 . S
N493 C494 1.376 . S
N493 C497 1.383 . S
C494 N493 1.376 . S
C494 C495 1.446 . S
C494 C517 1.391 . S
C495 C494 1.446 . S
C495 C496 1.339 . S
C495 H524 0.949 . S
C496 C495 1.339 . S
C496 C497 1.439 . S
C496 H525 0.950 . S
C497 N493 1.383 . S
C497 C496 1.439 . S
C497 C515 1.392 . S
N498 Co482 2.282 . S
N498 C501 1.332 . S
N498 C503 1.332 . S
C499 C500 1.386 . S
C499 C502 1.388 . S
C500 C499 1.386 . S
C500 C501 1.382 . S
C500 H526 0.950 . S
C501 N498 1.332 . S
C501 C500 1.382 . S
C501 H512 0.952 . S
C502 C499 1.388 . S
C502 C503 1.382 . S
C502 H527 0.950 . S
C503 N498 1.332 . S
C503 C502 1.382 . S
C503 H513 0.948 . S
N504 Co482 2.282 . S
N504 C508 1.332 . S
N504 C509 1.332 . S
C505 C506 1.388 . S
C505 C509 1.382 . S
C505 H528 0.950 . S
C506 C505 1.388 . S
C506 C507 1.386 . S
C507 C506 1.386 . S
C507 C508 1.382 . S
C507 H529 0.950 . S
C508 N504 1.332 . S
C508 C507 1.382 . S
C508 H510 0.952 . S
C509 N504 1.332 . S
C509 C505 1.382 . S
C509 H511 0.948 . S
H510 C508 0.952 . S
H511 C509 0.948 . S
H512 C501 0.952 . S
H513 C503 0.948 . S
C514 C480 1.395 . S
C514 C484 1.391 . S
C515 C477 1.389 . S
C515 C497 1.392 . S
C516 C487 1.392 . S
C516 C489 1.389 . S
C517 C492 1.395 . S
C517 C494 1.391 . S
H518 C478 0.951 . S
H519 C479 0.950 . S
H520 C485 0.949 . S
H521 C486 0.950 . S
H522 C490 0.951 . S
H523 C491 0.950 . S
H524 C495 0.949 . S
H525 C496 0.950 . S
H526 C500 0.950 . S
H527 C502 0.950 . S
H528 C505 0.950 . S
H529 C507 0.950 . S
C530 C531 1.443 . S
C530 N534 1.376 . S
C530 C568 1.389 . S
C531 C530 1.443 . S
C531 C532 1.340 . S
C531 H571 0.951 . S
C532 C531 1.340 . S
C532 C533 1.439 . S
C532 H572 0.950 . S
C533 C532 1.439 . S
C533 N534 1.374 . S
C533 C567 1.395 . S
N534 C530 1.376 . S
N534 C533 1.374 . S
N534 Co535 2.008 . S
Co535 N534 2.008 . S
Co535 N536 1.995 . S
Co535 N541 2.008 1_545 S
Co535 N546 1.995 1_545 S
Co535 N551 2.282 . S
Co535 N557 2.282 . S
N536 Co535 1.995 . S
N536 C537 1.376 . S
N536 C540 1.383 . S
C537 N536 1.376 . S
C537 C538 1.446 . S
C537 C567 1.391 . S
C538 C537 1.446 . S
C538 C539 1.339 . S
C538 H573 0.949 . S
C539 C538 1.339 . S
C539 C540 1.439 . S
C539 H574 0.950 . S
C540 N536 1.383 . S
C540 C539 1.439 . S
C540 C569 1.372 1_545 S
N541 Co535 2.008 1_565 S
N541 C542 1.376 . S
N541 C545 1.374 . S
C542 N541 1.376 . S
C542 C543 1.443 . S
C542 C569 1.405 . S
C543 C542 1.443 . S
C543 C544 1.340 . S
C543 H575 0.951 . S
C544 C543 1.340 . S
C544 C545 1.439 . S
C544 H576 0.950 . S
C545 N541 1.374 . S
C545 C544 1.439 . S
C545 C570 1.395 . S
N546 Co535 1.995 1_565 S
N546 C547 1.376 . S
N546 C550 1.383 1_565 S
C547 N546 1.376 . S
C547 C548 1.446 . S
C547 C570 1.391 . S
C548 C547 1.446 . S
C548 C549 1.339 . S
C548 H577 0.949 . S
C549 C548 1.339 . S
C549 C550 1.439 1_565 S
C549 H578 0.950 . S
C550 N546 1.383 1_545 S
C550 C549 1.439 1_545 S
C550 C568 1.392 . S
N551 Co535 2.282 . S
N551 C554 1.332 1_545 S
N551 C556 1.332 . S
C552 C553 1.386 . S
C552 C555 1.388 1_565 S
C553 C552 1.386 . S
C553 C554 1.382 . S
C553 H579 0.950 . S
C554 N551 1.332 1_565 S
C554 C553 1.382 . S
C554 H565 0.952 . S
C555 C552 1.388 1_545 S
C555 C556 1.382 . S
C555 H580 0.950 . S
C556 N551 1.332 . S
C556 C555 1.382 . S
C556 H566 0.948 . S
N557 Co535 2.282 . S
N557 C561 1.332 . S
N557 C562 1.332 . S
C558 C559 1.388 . S
C558 C562 1.382 . S
C558 H581 0.950 1_545 S
C559 C558 1.388 . S
C559 C560 1.386 . S
C560 C559 1.386 . S
C560 C561 1.382 . S
C560 H582 0.950 . S
C561 N557 1.332 . S
C561 C560 1.382 . S
C561 H563 0.952 . S
C562 N557 1.332 . S
C562 C558 1.382 . S
C562 H564 0.948 1_545 S
H563 C561 0.952 . S
H564 C562 0.948 1_565 S
H565 C554 0.952 . S
H566 C556 0.948 . S
C567 C533 1.395 . S
C567 C537 1.391 . S
C568 C530 1.389 . S
C568 C550 1.392 . S
C569 C540 1.372 1_565 S
C569 C542 1.405 . S
C570 C545 1.395 . S
C570 C547 1.391 . S
H571 C531 0.951 . S
H572 C532 0.950 . S
H573 C538 0.949 . S
H574 C539 0.950 . S
H575 C543 0.951 . S
H576 C544 0.950 . S
H577 C548 0.949 . S
H578 C549 0.950 . S
H579 C553 0.950 . S
H580 C555 0.950 . S
H581 C558 0.950 1_565 S
H582 C560 0.950 . S
C583 C584 1.443 . S
C583 N587 1.376 . S
C583 C621 1.389 . S
C584 C583 1.443 . S
C584 C585 1.340 . S
C584 H624 0.951 . S
C585 C584 1.340 . S
C585 C586 1.439 . S
C585 H625 0.950 . S
C586 C585 1.439 . S
C586 N587 1.374 . S
C586 C620 1.395 . S
N587 C583 1.376 . S
N587 C586 1.374 . S
N587 Co588 2.008 1_556 S
Co588 N587 2.008 1_554 S
Co588 N589 1.995 1_554 S
Co588 N594 2.008 . S
Co588 N599 1.995 . S
Co588 N604 2.282 . S
Co588 N610 2.282 1_554 S
N589 Co588 1.995 1_556 S
N589 C590 1.376 . S
N589 C593 1.383 . S
C590 N589 1.376 . S
C590 C591 1.446 . S
C590 C620 1.391 . S
C591 C590 1.446 . S
C591 C592 1.339 . S
C591 H626 0.949 . S
C592 C591 1.339 . S
C592 C593 1.439 . S
C592 H627 0.950 . S
C593 N589 1.383 . S
C593 C592 1.439 . S
C593 C622 1.392 1_556 S
N594 Co588 2.008 . S
N594 C595 1.376 . S
N594 C598 1.374 . S
C595 N594 1.376 . S
C595 C596 1.443 . S
C595 C622 1.389 . S
C596 C595 1.443 . S
C596 C597 1.340 . S
C596 H628 0.951 . S
C597 C596 1.340 . S
C597 C598 1.439 . S
C597 H629 0.950 . S
C598 N594 1.374 . S
C598 C597 1.439 . S
C598 C623 1.395 . S
N599 Co588 1.995 . S
N599 C600 1.376 . S
N599 C603 1.383 . S
C600 N599 1.376 . S
C600 C601 1.446 . S
C600 C623 1.391 . S
C601 C600 1.446 . S
C601 C602 1.339 . S
C601 H630 0.949 . S
C602 C601 1.339 . S
C602 C603 1.439 . S
C602 H631 0.950 . S
C603 N599 1.383 . S
C603 C602 1.439 . S
C603 C621 1.392 1_554 S
N604 Co588 2.282 . S
N604 C607 1.332 . S
N604 C609 1.332 1_554 S
C605 C606 1.386 . S
C605 C608 1.388 1_554 S
C606 C605 1.386 . S
C606 C607 1.382 . S
C606 H632 0.950 . S
C607 N604 1.332 . S
C607 C606 1.382 . S
C607 H618 0.952 . S
C608 C605 1.388 1_556 S
C608 C609 1.382 . S
C608 H633 0.950 . S
C609 N604 1.332 1_556 S
C609 C608 1.382 . S
C609 H619 0.948 . S
N610 Co588 2.282 1_556 S
N610 C614 1.332 . S
N610 C615 1.332 1_556 S
C611 C612 1.388 1_554 S
C611 C615 1.382 . S
C611 H634 0.950 . S
C612 C611 1.388 1_556 S
C612 C613 1.386 . S
C613 C612 1.386 . S
C613 C614 1.382 . S
C613 H635 0.950 . S
C614 N610 1.332 . S
C614 C613 1.382 . S
C614 H616 0.952 . S
C615 N610 1.332 1_554 S
C615 C611 1.382 . S
C615 H617 0.948 . S
H616 C614 0.952 . S
H617 C615 0.948 . S
H618 C607 0.952 . S
H619 C609 0.948 . S
C620 C586 1.395 . S
C620 C590 1.391 . S
C621 C583 1.389 . S
C621 C603 1.392 1_556 S
C622 C593 1.392 1_554 S
C622 C595 1.389 . S
C623 C598 1.395 . S
C623 C600 1.391 . S
H624 C584 0.951 . S
H625 C585 0.950 . S
H626 C591 0.949 . S
H627 C592 0.950 . S
H628 C596 0.951 . S
H629 C597 0.950 . S
H630 C601 0.949 . S
H631 C602 0.950 . S
H632 C606 0.950 . S
H633 C608 0.950 . S
H634 C611 0.950 . S
H635 C613 0.950 . S
O636 Zn637 1.953 . S
O636 C652 1.225 . S
Zn637 O636 1.953 . S
Zn637 O638 1.949 . S
Zn637 O644 1.919 . S
Zn637 O649 1.924 . S
O638 Zn637 1.949 . S
O638 Zn639 1.923 . S
O638 Zn640 1.950 . S
O638 Zn641 1.945 . S
Zn639 O638 1.923 . S
Zn639 O642 1.933 . S
Zn639 O645 1.941 . S
Zn639 O646 1.965 . S
Zn640 O638 1.950 . S
Zn640 O647 1.938 . S
Zn640 O648 1.906 . S
Zn640 O658 1.953 . S
Zn641 O638 1.945 . S
Zn641 O643 1.932 . S
Zn641 O650 1.977 . S
Zn641 O651 1.910 . S
O642 Zn639 1.933 . S
O642 C653 1.226 . S
O643 Zn641 1.932 . S
O643 C653 1.307 . S
O644 Zn637 1.919 . S
O644 C655 1.253 . S
O645 Zn639 1.941 . S
O645 C655 1.283 . S
O646 Zn639 1.965 . S
O646 C654 1.303 . S
O647 Zn640 1.938 . S
O647 C654 1.247 . S
O648 Zn640 1.906 . S
O648 C656 1.304 1_554 S
O649 Zn637 1.924 . S
O649 C657 1.311 . S
O650 Zn641 1.977 . S
O650 C656 1.272 1_554 S
O651 Zn641 1.910 . S
O651 C657 1.231 . S
C652 O636 1.225 . S
C652 O658 1.298 . S
C653 O642 1.226 . S
C653 O643 1.307 . S
C654 O646 1.303 . S
C654 O647 1.247 . S
C655 O644 1.253 . S
C655 O645 1.283 . S
C656 O648 1.304 1_556 S
C656 O650 1.272 1_556 S
C657 O649 1.311 . S
C657 O651 1.231 . S
O658 Zn640 1.953 . S
O658 C652 1.298 . S
O659 Zn660 1.953 . S
O659 C675 1.225 . S
Zn660 O659 1.953 . S
Zn660 O661 1.949 . S
Zn660 O667 1.919 . S
Zn660 O672 1.924 . S
O661 Zn660 1.949 . S
O661 Zn662 1.923 . S
O661 Zn663 1.950 . S
O661 Zn664 1.945 . S
Zn662 O661 1.923 . S
Zn662 O665 1.933 . S
Zn662 O668 1.941 . S
Zn662 O669 1.965 . S
Zn663 O661 1.950 . S
Zn663 O670 1.938 . S
Zn663 O671 1.906 1_554 S
Zn663 O681 1.953 . S
Zn664 O661 1.945 . S
Zn664 O666 1.932 1_655 S
Zn664 O673 1.977 . S
Zn664 O674 1.910 . S
O665 Zn662 1.933 . S
O665 C676 1.226 1_655 S
O666 Zn664 1.932 1_455 S
O666 C676 1.307 . S
O667 Zn660 1.919 . S
O667 C678 1.253 . S
O668 Zn662 1.941 . S
O668 C678 1.283 . S
O669 Zn662 1.965 . S
O669 C677 1.303 . S
O670 Zn663 1.938 . S
O670 C677 1.247 . S
O671 Zn663 1.906 1_556 S
O671 C679 1.304 . S
O672 Zn660 1.924 . S
O672 C680 1.311 . S
O673 Zn664 1.977 . S
O673 C679 1.272 1_554 S
O674 Zn664 1.910 . S
O674 C680 1.231 . S
C675 O659 1.225 . S
C675 O681 1.298 . S
C676 O665 1.226 1_455 S
C676 O666 1.307 . S
C677 O669 1.303 . S
C677 O670 1.247 . S
C678 O667 1.253 . S
C678 O668 1.283 . S
C679 O671 1.304 . S
C679 O673 1.272 1_556 S
C680 O672 1.311 . S
C680 O674 1.231 . S
O681 Zn663 1.953 . S
O681 C675 1.298 . S
O682 Zn683 1.953 . S
O682 C698 1.225 . S
Zn683 O682 1.953 . S
Zn683 O684 1.949 . S
Zn683 O690 1.919 . S
Zn683 O695 1.924 . S
O684 Zn683 1.949 . S
O684 Zn685 1.923 . S
O684 Zn686 1.950 . S
O684 Zn687 1.945 . S
Zn685 O684 1.923 . S
Zn685 O688 1.933 . S
Zn685 O691 1.941 . S
Zn685 O692 1.965 . S
Zn686 O684 1.950 . S
Zn686 O693 1.938 . S
Zn686 O694 1.906 . S
Zn686 O704 1.953 . S
Zn687 O684 1.945 . S
Zn687 O689 1.932 . S
Zn687 O696 1.977 . S
Zn687 O697 1.910 . S
O688 Zn685 1.933 . S
O688 C699 1.226 . S
O689 Zn687 1.932 . S
O689 C699 1.307 . S
O690 Zn683 1.919 . S
O690 C701 1.253 . S
O691 Zn685 1.941 . S
O691 C701 1.283 . S
O692 Zn685 1.965 . S
O692 C700 1.303 . S
O693 Zn686 1.938 . S
O693 C700 1.247 . S
O694 Zn686 1.906 . S
O694 C702 1.304 1_455 S
O695 Zn683 1.924 . S
O695 C703 1.311 . S
O696 Zn687 1.977 . S
O696 C702 1.272 1_455 S
O697 Zn687 1.910 . S
O697 C703 1.231 . S
C698 O682 1.225 . S
C698 O704 1.298 . S
C699 O688 1.226 . S
C699 O689 1.307 . S
C700 O692 1.303 . S
C700 O693 1.247 . S
C701 O690 1.253 . S
C701 O691 1.283 . S
C702 O694 1.304 1_655 S
C702 O696 1.272 1_655 S
C703 O695 1.311 . S
C703 O697 1.231 . S
O704 Zn686 1.953 . S
O704 C698 1.298 . S
O705 Zn706 1.953 . S
O705 C721 1.225 . S
Zn706 O705 1.953 . S
Zn706 O707 1.949 . S
Zn706 O713 1.919 . S
Zn706 O718 1.963 . S
O707 Zn706 1.949 . S
O707 Zn708 1.923 . S
O707 Zn709 1.950 . S
O707 Zn710 1.945 . S
Zn708 O707 1.923 . S
Zn708 O711 1.933 . S
Zn708 O714 1.941 . S
Zn708 O715 1.965 . S
Zn709 O707 1.950 . S
Zn709 O716 1.938 . S
Zn709 O717 1.906 . S
Zn709 O727 1.953 . S
Zn710 O707 1.945 . S
Zn710 O712 1.932 . S
Zn710 O719 1.977 . S
Zn710 O720 1.910 1_655 S
O711 Zn708 1.933 . S
O711 C722 1.226 . S
O712 Zn710 1.932 . S
O712 C722 1.307 . S
O713 Zn706 1.919 . S
O713 C724 1.253 . S
O714 Zn708 1.941 . S
O714 C724 1.283 . S
O715 Zn708 1.965 . S
O715 C723 1.303 . S
O716 Zn709 1.938 . S
O716 C723 1.247 . S
O717 Zn709 1.906 . S
O717 C725 1.304 . S
O718 Zn706 1.963 . S
O718 C726 1.286 1_655 S
O719 Zn710 1.977 . S
O719 C725 1.272 . S
O720 Zn710 1.910 1_455 S
O720 C726 1.231 . S
C721 O705 1.225 . S
C721 O727 1.298 . S
C722 O711 1.226 . S
C722 O712 1.307 . S
C723 O715 1.303 . S
C723 O716 1.247 . S
C724 O713 1.253 . S
C724 O714 1.283 . S
C725 O717 1.304 . S
C725 O719 1.272 . S
C726 O718 1.286 1_455 S
C726 O720 1.231 . S
O727 Zn709 1.953 . S
O727 C721 1.298 . S
O728 Zn729 1.953 . S
O728 C744 1.225 . S
Zn729 O728 1.953 . S
Zn729 O730 1.949 . S
Zn729 O736 1.919 . S
Zn729 O741 1.924 . S
O730 Zn729 1.949 . S
O730 Zn731 1.923 . S
O730 Zn732 1.950 . S
O730 Zn733 1.945 . S
Zn731 O730 1.923 . S
Zn731 O734 1.933 . S
Zn731 O737 1.941 . S
Zn731 O738 1.965 . S
Zn732 O730 1.950 . S
Zn732 O739 1.938 . S
Zn732 O740 1.906 . S
Zn732 O750 1.953 . S
Zn733 O730 1.945 . S
Zn733 O735 1.932 . S
Zn733 O742 1.977 . S
Zn733 O743 1.910 . S
O734 Zn731 1.933 . S
O734 C745 1.226 . S
O735 Zn733 1.932 . S
O735 C745 1.307 . S
O736 Zn729 1.919 . S
O736 C747 1.253 . S
O737 Zn731 1.941 . S
O737 C747 1.283 . S
O738 Zn731 1.965 . S
O738 C746 1.303 . S
O739 Zn732 1.938 . S
O739 C746 1.247 . S
O740 Zn732 1.906 . S
O740 C748 1.304 . S
O741 Zn729 1.924 . S
O741 C749 1.311 . S
O742 Zn733 1.977 . S
O742 C748 1.272 . S
O743 Zn733 1.910 . S
O743 C749 1.231 . S
C744 O728 1.225 . S
C744 O750 1.298 . S
C745 O734 1.226 . S
C745 O735 1.307 . S
C746 O738 1.303 . S
C746 O739 1.247 . S
C747 O736 1.253 . S
C747 O737 1.283 . S
C748 O740 1.304 . S
C748 O742 1.272 . S
C749 O741 1.311 . S
C749 O743 1.231 . S
O750 Zn732 1.953 . S
O750 C744 1.298 . S
O751 Zn752 1.953 . S
O751 C767 1.225 . S
Zn752 O751 1.953 . S
Zn752 O753 1.949 . S
Zn752 O759 1.919 . S
Zn752 O764 1.924 . S
O753 Zn752 1.949 . S
O753 Zn754 1.923 . S
O753 Zn755 1.950 . S
O753 Zn756 1.945 . S
Zn754 O753 1.923 . S
Zn754 O757 1.933 . S
Zn754 O760 1.941 . S
Zn754 O761 1.965 . S
Zn755 O753 1.950 . S
Zn755 O762 1.938 . S
Zn755 O763 1.906 . S
Zn755 O773 1.953 . S
Zn756 O753 1.945 . S
Zn756 O758 1.932 . S
Zn756 O765 1.977 . S
Zn756 O766 1.910 . S
O757 Zn754 1.933 . S
O757 C768 1.226 . S
O758 Zn756 1.932 . S
O758 C768 1.307 . S
O759 Zn752 1.919 . S
O759 C770 1.253 . S
O760 Zn754 1.941 . S
O760 C770 1.283 . S
O761 Zn754 1.965 . S
O761 C769 1.303 . S
O762 Zn755 1.938 . S
O762 C769 1.247 . S
O763 Zn755 1.906 . S
O763 C771 1.304 . S
O764 Zn752 1.924 . S
O764 C772 1.311 . S
O765 Zn756 1.977 . S
O765 C771 1.272 . S
O766 Zn756 1.910 . S
O766 C772 1.231 . S
C767 O751 1.225 . S
C767 O773 1.298 . S
C768 O757 1.226 . S
C768 O758 1.307 . S
C769 O761 1.303 . S
C769 O762 1.247 . S
C770 O759 1.253 . S
C770 O760 1.283 . S
C771 O763 1.304 . S
C771 O765 1.272 . S
C772 O764 1.311 . S
C772 O766 1.231 . S
O773 Zn755 1.953 . S
O773 C767 1.298 . S
O774 Zn775 1.953 . S
O774 C790 1.225 . S
Zn775 O774 1.953 . S
Zn775 O776 1.949 . S
Zn775 O782 1.919 . S
Zn775 O787 1.924 1_556 S
O776 Zn775 1.949 . S
O776 Zn777 1.923 . S
O776 Zn778 1.950 . S
O776 Zn779 1.945 . S
Zn777 O776 1.923 . S
Zn777 O780 1.933 . S
Zn777 O783 1.941 . S
Zn777 O784 1.965 . S
Zn778 O776 1.950 . S
Zn778 O785 1.938 . S
Zn778 O786 1.906 . S
Zn778 O796 1.953 . S
Zn779 O776 1.945 . S
Zn779 O781 1.932 . S
Zn779 O788 1.977 . S
Zn779 O789 1.910 1_556 S
O780 Zn777 1.933 . S
O780 C791 1.226 . S
O781 Zn779 1.932 . S
O781 C791 1.307 . S
O782 Zn775 1.919 . S
O782 C793 1.253 . S
O783 Zn777 1.941 . S
O783 C793 1.283 . S
O784 Zn777 1.965 . S
O784 C792 1.303 . S
O785 Zn778 1.938 . S
O785 C792 1.247 . S
O786 Zn778 1.906 . S
O786 C794 1.304 . S
O787 Zn775 1.924 1_554 S
O787 C795 1.311 . S
O788 Zn779 1.977 . S
O788 C794 1.272 . S
O789 Zn779 1.910 1_554 S
O789 C795 1.231 . S
C790 O774 1.225 . S
C790 O796 1.298 . S
C791 O780 1.226 . S
C791 O781 1.307 . S
C792 O784 1.303 . S
C792 O785 1.247 . S
C793 O782 1.253 . S
C793 O783 1.283 . S
C794 O786 1.304 . S
C794 O788 1.272 . S
C795 O787 1.311 . S
C795 O789 1.231 . S
O796 Zn778 1.953 . S
O796 C790 1.298 . S
O797 Zn798 1.953 . S
O797 C813 1.225 . S
Zn798 O797 1.953 . S
Zn798 O799 1.949 . S
Zn798 O805 1.919 . S
Zn798 O810 1.924 . S
O799 Zn798 1.949 . S
O799 Zn800 1.923 . S
O799 Zn801 1.950 . S
O799 Zn802 1.945 . S
Zn800 O799 1.923 . S
Zn800 O803 1.933 . S
Zn800 O806 1.941 . S
Zn800 O807 1.965 . S
Zn801 O799 1.950 . S
Zn801 O808 1.938 . S
Zn801 O809 1.906 . S
Zn801 O819 1.953 . S
Zn802 O799 1.945 . S
Zn802 O804 1.932 . S
Zn802 O811 1.977 . S
Zn802 O812 1.910 . S
O803 Zn800 1.933 . S
O803 C814 1.226 . S
O804 Zn802 1.932 . S
O804 C814 1.307 . S
O805 Zn798 1.919 . S
O805 C816 1.253 . S
O806 Zn800 1.941 . S
O806 C816 1.283 . S
O807 Zn800 1.965 . S
O807 C815 1.303 . S
O808 Zn801 1.938 . S
O808 C815 1.247 . S
O809 Zn801 1.906 . S
O809 C817 1.304 . S
O810 Zn798 1.924 . S
O810 C818 1.311 . S
O811 Zn802 1.977 . S
O811 C817 1.272 . S
O812 Zn802 1.910 . S
O812 C818 1.231 . S
C813 O797 1.225 . S
C813 O819 1.298 . S
C814 O803 1.226 . S
C814 O804 1.307 . S
C815 O807 1.303 . S
C815 O808 1.247 . S
C816 O805 1.253 . S
C816 O806 1.283 . S
C817 O809 1.304 . S
C817 O811 1.272 . S
C818 O810 1.311 . S
C818 O812 1.231 . S
O819 Zn801 1.953 . S
O819 C813 1.298 . S
C820 C821 1.391 . S
C820 C822 1.394 . S
C820 H836 0.931 . S
C821 C820 1.391 . S
C821 C825 1.376 1_455 S
C822 C820 1.394 . S
C822 C823 1.369 . S
C822 C826 1.531 . S
C823 C822 1.369 . S
C823 C824 1.410 1_455 S
C823 C831 1.503 . S
C824 C823 1.410 1_655 S
C824 C825 1.392 . S
C824 C827 1.511 . S
C825 C821 1.376 1_655 S
C825 C824 1.392 . S
C825 H837 0.929 . S
C826 C822 1.531 . S
C826 H838 0.960 . S
C826 H839 0.962 . S
C826 H840 0.960 . S
C827 C824 1.511 . S
C827 H841 0.961 . S
C827 H842 0.961 . S
C827 H843 0.961 . S
C828 C829 1.370 . S
C828 C830 1.363 . S
C828 H844 0.931 . S
C829 C828 1.370 . S
C829 C833 1.408 . S
C830 C828 1.363 . S
C830 C831 1.370 . S
C830 C834 1.524 . S
C831 C823 1.503 . S
C831 C830 1.370 . S
C831 C832 1.403 . S
C832 C831 1.403 . S
C832 C833 1.404 . S
C832 C835 1.539 . S
C833 C829 1.408 . S
C833 C832 1.404 . S
C833 H845 0.930 . S
C834 C830 1.524 . S
C834 H846 0.956 . S
C834 H847 0.961 . S
C834 H848 0.961 . S
C835 C832 1.539 . S
C835 H849 0.958 . S
C835 H850 0.961 . S
C835 H851 0.960 . S
H836 C820 0.931 . S
H837 C825 0.929 . S
H838 C826 0.960 . S
H839 C826 0.962 . S
H840 C826 0.960 . S
H841 C827 0.961 . S
H842 C827 0.961 . S
H843 C827 0.961 . S
H844 C828 0.931 . S
H845 C833 0.930 . S
H846 C834 0.956 . S
H847 C834 0.961 . S
H848 C834 0.961 . S
H849 C835 0.958 . S
H850 C835 0.961 . S
H851 C835 0.960 . S
C852 C853 1.391 1_455 S
C852 C854 1.394 . S
C852 H868 0.931 . S
C853 C852 1.391 1_655 S
C853 C857 1.376 . S
C854 C852 1.394 . S
C854 C855 1.369 1_455 S
C854 C858 1.531 . S
C855 C854 1.369 1_655 S
C855 C856 1.410 . S
C855 C863 1.503 . S
C856 C855 1.410 . S
C856 C857 1.392 . S
C856 C859 1.511 . S
C857 C853 1.376 . S
C857 C856 1.392 . S
C857 H869 0.929 . S
C858 C854 1.531 . S
C858 H870 0.960 . S
C858 H871 0.962 . S
C858 H872 0.960 . S
C859 C856 1.511 . S
C859 H873 0.961 . S
C859 H874 0.961 . S
C859 H875 0.961 . S
C860 C861 1.370 . S
C860 C862 1.363 . S
C860 H876 0.931 . S
C861 C860 1.370 . S
C861 C865 1.408 . S
C862 C860 1.363 . S
C862 C863 1.370 . S
C862 C866 1.524 . S
C863 C855 1.503 . S
C863 C862 1.370 . S
C863 C864 1.403 . S
C864 C863 1.403 . S
C864 C865 1.404 . S
C864 C867 1.539 . S
C865 C861 1.408 . S
C865 C864 1.404 . S
C865 H877 0.930 . S
C866 C862 1.524 . S
C866 H878 0.956 1_655 S
C866 H879 0.961 . S
C866 H880 0.961 . S
C867 C864 1.539 . S
C867 H881 0.958 . S
C867 H882 0.961 . S
C867 H883 0.960 . S
H868 C852 0.931 . S
H869 C857 0.929 . S
H870 C858 0.960 . S
H871 C858 0.962 . S
H872 C858 0.960 . S
H873 C859 0.961 . S
H874 C859 0.961 . S
H875 C859 0.961 . S
H876 C860 0.931 . S
H877 C865 0.930 . S
H878 C866 0.956 1_455 S
H879 C866 0.961 . S
H880 C866 0.961 . S
H881 C867 0.958 . S
H882 C867 0.961 . S
H883 C867 0.960 . S
C884 C885 1.391 . S
C884 C886 1.394 . S
C884 H900 0.931 . S
C885 C884 1.391 . S
C885 C889 1.376 . S
C886 C884 1.394 . S
C886 C887 1.369 . S
C886 C890 1.531 . S
C887 C886 1.369 . S
C887 C888 1.410 . S
C887 C895 1.503 . S
C888 C887 1.410 . S
C888 C889 1.392 . S
C888 C891 1.511 . S
C889 C885 1.376 . S
C889 C888 1.392 . S
C889 H901 0.929 . S
C890 C886 1.531 . S
C890 H902 0.960 . S
C890 H903 0.962 1_455 S
C890 H904 0.978 . S
C891 C888 1.511 . S
C891 H905 0.961 . S
C891 H906 0.961 . S
C891 H907 0.961 . S
C892 C893 1.370 . S
C892 C894 1.363 . S
C892 H908 0.931 . S
C893 C892 1.370 . S
C893 C897 1.408 . S
C894 C892 1.363 . S
C894 C895 1.370 . S
C894 C898 1.524 . S
C895 C887 1.503 . S
C895 C894 1.370 . S
C895 C896 1.403 . S
C896 C895 1.403 . S
C896 C897 1.404 . S
C896 C899 1.539 . S
C897 C893 1.408 . S
C897 C896 1.404 . S
C897 H909 0.930 . S
C898 C894 1.524 . S
C898 H910 0.956 . S
C898 H911 0.961 . S
C898 H912 0.961 . S
C899 C896 1.539 . S
C899 H913 0.958 . S
C899 H914 0.961 . S
C899 H915 0.960 . S
H900 C884 0.931 . S
H901 C889 0.929 . S
H902 C890 0.960 . S
H903 C890 0.962 1_655 S
H904 C890 0.978 . S
H905 C891 0.961 . S
H906 C891 0.961 . S
H907 C891 0.961 . S
H908 C892 0.931 . S
H909 C897 0.930 . S
H910 C898 0.956 . S
H911 C898 0.961 . S
H912 C898 0.961 . S
H913 C899 0.958 . S
H914 C899 0.961 . S
H915 C899 0.960 . S
C916 C917 1.391 . S
C916 C918 1.394 . S
C916 H932 0.931 . S
C917 C916 1.391 . S
C917 C921 1.376 1_455 S
C918 C916 1.394 . S
C918 C919 1.369 1_455 S
C918 C922 1.531 . S
C919 C918 1.369 1_655 S
C919 C920 1.410 . S
C919 C927 1.503 . S
C920 C919 1.410 . S
C920 C921 1.392 . S
C920 C923 1.511 . S
C921 C917 1.376 1_655 S
C921 C920 1.392 . S
C921 H933 0.929 . S
C922 C918 1.531 . S
C922 H934 0.960 . S
C922 H935 0.962 . S
C922 H936 0.960 . S
C923 C920 1.511 . S
C923 H937 0.961 . S
C923 H938 0.961 . S
C923 H939 0.961 . S
C924 C925 1.370 . S
C924 C926 1.363 1_655 S
C924 H940 0.931 1_655 S
C925 C924 1.370 . S
C925 C929 1.408 . S
C926 C924 1.363 1_455 S
C926 C927 1.369 1_455 S
C926 C930 1.526 . S
C927 C919 1.503 . S
C927 C926 1.369 1_655 S
C927 C928 1.403 . S
C928 C927 1.403 . S
C928 C929 1.404 . S
C928 C931 1.539 . S
C929 C925 1.408 . S
C929 C928 1.404 . S
C929 H941 0.930 . S
C930 C926 1.526 . S
C930 H942 0.956 . S
C930 H943 0.961 . S
C930 H944 0.961 . S
C931 C928 1.539 . S
C931 H945 0.958 . S
C931 H946 0.961 . S
C931 H947 0.960 . S
H932 C916 0.931 . S
H933 C921 0.929 . S
H934 C922 0.960 . S
H935 C922 0.962 . S
H936 C922 0.960 . S
H937 C923 0.961 . S
H938 C923 0.961 . S
H939 C923 0.961 . S
H940 C924 0.931 1_455 S
H941 C929 0.930 . S
H942 C930 0.956 . S
H943 C930 0.961 . S
H944 C930 0.961 . S
H945 C931 0.958 . S
H946 C931 0.961 . S
H947 C931 0.960 . S
C948 C949 1.391 . S
C948 C950 1.394 . S
C948 H964 0.931 . S
C949 C948 1.391 . S
C949 C953 1.376 . S
C950 C948 1.394 . S
C950 C951 1.369 . S
C950 C954 1.531 . S
C951 C950 1.369 . S
C951 C952 1.410 . S
C951 C959 1.503 . S
C952 C951 1.410 . S
C952 C953 1.392 . S
C952 C955 1.511 . S
C953 C949 1.376 . S
C953 C952 1.392 . S
C953 H965 0.929 . S
C954 C950 1.531 . S
C954 H966 0.960 . S
C954 H967 0.962 . S
C954 H968 0.960 . S
C955 C952 1.511 . S
C955 H969 0.961 1_545 S
C955 H970 0.961 1_545 S
C955 H971 0.961 . S
C956 C957 1.370 . S
C956 C958 1.363 . S
C956 H972 0.931 . S
C957 C956 1.370 . S
C957 C961 1.408 . S
C958 C956 1.363 . S
C958 C959 1.370 . S
C958 C962 1.524 1_545 S
C959 C951 1.503 . S
C959 C958 1.370 . S
C959 C960 1.403 . S
C960 C959 1.403 . S
C960 C961 1.404 . S
C960 C963 1.539 . S
C961 C957 1.408 . S
C961 C960 1.404 . S
C961 H973 0.930 . S
C962 C958 1.524 1_565 S
C962 H974 0.956 1_565 S
C962 H975 0.961 . S
C962 H976 0.961 . S
C963 C960 1.539 . S
C963 H977 0.958 . S
C963 H978 0.961 . S
C963 H979 0.960 . S
H964 C948 0.931 . S
H965 C953 0.929 . S
H966 C954 0.960 . S
H967 C954 0.962 . S
H968 C954 0.960 . S
H969 C955 0.961 1_565 S
H970 C955 0.961 1_565 S
H971 C955 0.961 . S
H972 C956 0.931 . S
H973 C961 0.930 . S
H974 C962 0.956 1_545 S
H975 C962 0.961 . S
H976 C962 0.961 . S
H977 C963 0.958 . S
H978 C963 0.961 . S
H979 C963 0.960 . S
C980 C981 1.391 . S
C980 C982 1.394 . S
C980 H996 0.931 . S
C981 C980 1.391 . S
C981 C985 1.376 . S
C982 C980 1.394 . S
C982 C983 1.369 . S
C982 C986 1.531 . S
C983 C982 1.369 . S
C983 C984 1.410 . S
C983 C991 1.503 . S
C984 C983 1.410 . S
C984 C985 1.392 . S
C984 C987 1.511 . S
C985 C981 1.376 . S
C985 C984 1.392 . S
C985 H997 0.929 . S
C986 C982 1.531 . S
C986 H998 0.960 . S
C986 H999 0.962 . S
C986 H1000 0.960 . S
C987 C984 1.511 . S
C987 H1001 0.961 . S
C987 H1002 0.961 . S
C987 H1003 0.961 . S
C988 C989 1.370 . S
C988 C990 1.363 . S
C988 H1004 0.931 . S
C989 C988 1.370 . S
C989 C993 1.408 . S
C990 C988 1.363 . S
C990 C991 1.370 . S
C990 C994 1.524 . S
C991 C983 1.503 . S
C991 C990 1.370 . S
C991 C992 1.403 . S
C992 C991 1.403 . S
C992 C993 1.404 . S
C992 C995 1.539 . S
C993 C989 1.408 . S
C993 C992 1.404 . S
C993 H1005 0.930 . S
C994 C990 1.524 . S
C994 H1006 0.956 . S
C994 H1007 0.961 . S
C994 H1008 0.961 . S
C995 C992 1.539 . S
C995 H1009 0.958 . S
C995 H1010 0.961 . S
C995 H1011 0.960 . S
H996 C980 0.931 . S
H997 C985 0.929 . S
H998 C986 0.960 . S
H999 C986 0.962 . S
H1000 C986 0.960 . S
H1001 C987 0.961 . S
H1002 C987 0.961 . S
H1003 C987 0.961 . S
H1004 C988 0.931 . S
H1005 C993 0.930 . S
H1006 C994 0.956 . S
H1007 C994 0.961 . S
H1008 C994 0.961 . S
H1009 C995 0.958 . S
H1010 C995 0.961 . S
H1011 C995 0.960 . S
C1012 C1013 1.391 1_545 S
C1012 C1014 1.394 . S
C1012 H1028 0.931 . S
C1013 C1012 1.391 1_565 S
C1013 C1017 1.376 . S
C1014 C1012 1.394 . S
C1014 C1015 1.369 1_545 S
C1014 C1018 1.531 . S
C1015 C1014 1.369 1_565 S
C1015 C1016 1.410 . S
C1015 C1023 1.503 . S
C1016 C1015 1.410 . S
C1016 C1017 1.392 . S
C1016 C1019 1.511 . S
C1017 C1013 1.376 . S
C1017 C1016 1.392 . S
C1017 H1029 0.929 . S
C1018 C1014 1.531 . S
C1018 H1030 0.960 . S
C1018 H1031 0.962 . S
C1018 H1032 0.960 . S
C1019 C1016 1.511 . S
C1019 H1033 0.961 . S
C1019 H1034 0.961 . S
C1019 H1035 0.961 . S
C1020 C1021 1.370 . S
C1020 C1022 1.363 . S
C1020 H1036 0.931 . S
C1021 C1020 1.370 . S
C1021 C1025 1.408 . S
C1022 C1020 1.363 . S
C1022 C1023 1.370 . S
C1022 C1026 1.524 . S
C1023 C1015 1.503 . S
C1023 C1022 1.370 . S
C1023 C1024 1.403 . S
C1024 C1023 1.403 . S
C1024 C1025 1.404 . S
C1024 C1027 1.539 . S
C1025 C1021 1.408 . S
C1025 C1024 1.404 . S
C1025 H1037 0.930 . S
C1026 C1022 1.524 . S
C1026 H1038 0.992 . S
C1026 H1039 0.961 . S
C1026 H1040 0.961 . S
C1027 C1024 1.539 . S
C1027 H1041 0.958 . S
C1027 H1042 0.961 . S
C1027 H1043 0.960 . S
H1028 C1012 0.931 . S
H1029 C1017 0.929 . S
H1030 C1018 0.960 . S
H1031 C1018 0.962 . S
H1032 C1018 0.960 . S
H1033 C1019 0.961 . S
H1034 C1019 0.961 . S
H1035 C1019 0.961 . S
H1036 C1020 0.931 . S
H1037 C1025 0.930 . S
H1038 C1026 0.992 . S
H1039 C1026 0.961 . S
H1040 C1026 0.961 . S
H1041 C1027 0.958 . S
H1042 C1027 0.961 . S
H1043 C1027 0.960 . S
C1044 C1045 1.391 . S
C1044 C1046 1.394 . S
C1044 H1060 0.931 . S
C1045 C1044 1.391 . S
C1045 C1049 1.376 . S
C1046 C1044 1.394 . S
C1046 C1047 1.369 . S
C1046 C1050 1.531 . S
C1047 C1046 1.369 . S
C1047 C1048 1.410 . S
C1047 C1055 1.503 . S
C1048 C1047 1.410 . S
C1048 C1049 1.392 . S
C1048 C1051 1.511 . S
C1049 C1045 1.376 . S
C1049 C1048 1.392 . S
C1049 H1061 0.929 . S
C1050 C1046 1.531 . S
C1050 H1062 0.960 . S
C1050 H1063 0.962 . S
C1050 H1064 0.960 . S
C1051 C1048 1.511 . S
C1051 H1065 0.961 . S
C1051 H1066 0.961 . S
C1051 H1067 0.961 . S
C1052 C1053 1.370 . S
C1052 C1054 1.363 . S
C1052 H1068 0.931 . S
C1053 C1052 1.370 . S
C1053 C1057 1.408 . S
C1054 C1052 1.363 . S
C1054 C1055 1.370 . S
C1054 C1058 1.524 . S
C1055 C1047 1.503 . S
C1055 C1054 1.370 . S
C1055 C1056 1.403 . S
C1056 C1055 1.403 . S
C1056 C1057 1.404 . S
C1056 C1059 1.539 . S
C1057 C1053 1.408 . S
C1057 C1056 1.404 . S
C1057 H1069 0.930 . S
C1058 C1054 1.524 . S
C1058 H1070 0.956 . S
C1058 H1071 0.961 . S
C1058 H1072 0.961 . S
C1059 C1056 1.539 . S
C1059 H1073 0.958 . S
C1059 H1074 0.961 . S
C1059 H1075 0.960 . S
H1060 C1044 0.931 . S
H1061 C1049 0.929 . S
H1062 C1050 0.960 . S
H1063 C1050 0.962 . S
H1064 C1050 0.960 . S
H1065 C1051 0.961 . S
H1066 C1051 0.961 . S
H1067 C1051 0.961 . S
H1068 C1052 0.931 . S
H1069 C1057 0.930 . S
H1070 C1058 0.956 . S
H1071 C1058 0.961 . S
H1072 C1058 0.961 . S
H1073 C1059 0.958 . S
H1074 C1059 0.961 . S
H1075 C1059 0.960 . S
C1076 C1077 1.391 . S
C1076 C1078 1.394 . S
C1076 H1092 0.931 . S
C1077 C1076 1.391 . S
C1077 C1081 1.376 . S
C1078 C1076 1.394 . S
C1078 C1079 1.369 . S
C1078 C1082 1.531 . S
C1079 C1078 1.369 . S
C1079 C1080 1.410 . S
C1079 C1087 1.503 . S
C1080 C1079 1.410 . S
C1080 C1081 1.392 . S
C1080 C1083 1.511 1_554 S
C1081 C1077 1.376 . S
C1081 C1080 1.392 . S
C1081 H1093 0.929 1_554 S
C1082 C1078 1.531 . S
C1082 H1094 0.960 . S
C1082 H1095 0.962 . S
C1082 H1096 0.960 . S
C1083 C1080 1.511 1_556 S
C1083 H1097 0.961 . S
C1083 H1098 0.961 . S
C1083 H1099 0.961 . S
C1084 C1085 1.370 . S
C1084 C1086 1.363 . S
C1084 H1100 0.931 . S
C1085 C1084 1.370 . S
C1085 C1089 1.408 . S
C1086 C1084 1.363 . S
C1086 C1087 1.370 . S
C1086 C1090 1.524 . S
C1087 C1079 1.503 . S
C1087 C1086 1.370 . S
C1087 C1088 1.403 . S
C1088 C1087 1.403 . S
C1088 C1089 1.404 . S
C1088 C1091 1.539 . S
C1089 C1085 1.408 . S
C1089 C1088 1.404 . S
C1089 H1101 0.930 . S
C1090 C1086 1.524 . S
C1090 H1102 0.956 . S
C1090 H1103 0.961 . S
C1090 H1104 0.961 . S
C1091 C1088 1.539 . S
C1091 H1105 0.958 . S
C1091 H1106 0.961 . S
C1091 H1107 0.960 . S
H1092 C1076 0.931 . S
H1093 C1081 0.929 1_556 S
H1094 C1082 0.960 . S
H1095 C1082 0.962 . S
H1096 C1082 0.960 . S
H1097 C1083 0.961 . S
H1098 C1083 0.961 . S
H1099 C1083 0.961 . S
H1100 C1084 0.931 . S
H1101 C1089 0.930 . S
H1102 C1090 0.956 . S
H1103 C1090 0.961 . S
H1104 C1090 0.961 . S
H1105 C1091 0.958 . S
H1106 C1091 0.961 . S
H1107 C1091 0.960 . S
C1108 C1109 1.391 . S
C1108 C1110 1.394 . S
C1108 H1124 0.931 . S
C1109 C1108 1.391 . S
C1109 C1113 1.376 . S
C1110 C1108 1.394 . S
C1110 C1111 1.369 . S
C1110 C1114 1.531 . S
C1111 C1110 1.369 . S
C1111 C1112 1.410 . S
C1111 C1119 1.503 . S
C1112 C1111 1.410 . S
C1112 C1113 1.392 . S
C1112 C1115 1.511 . S
C1113 C1109 1.376 . S
C1113 C1112 1.392 . S
C1113 H1125 0.929 . S
C1114 C1110 1.531 . S
C1114 H1126 0.960 . S
C1114 H1127 0.962 . S
C1114 H1128 0.960 . S
C1115 C1112 1.511 . S
C1115 H1129 0.961 . S
C1115 H1130 0.961 . S
C1115 H1131 0.961 . S
C1116 C1117 1.370 . S
C1116 C1118 1.363 . S
C1116 H1132 0.931 . S
C1117 C1116 1.370 . S
C1117 C1121 1.408 . S
C1118 C1116 1.363 . S
C1118 C1119 1.370 . S
C1118 C1122 1.524 . S
C1119 C1111 1.503 . S
C1119 C1118 1.370 . S
C1119 C1120 1.403 . S
C1120 C1119 1.403 . S
C1120 C1121 1.404 . S
C1120 C1123 1.539 . S
C1121 C1117 1.408 . S
C1121 C1120 1.404 . S
C1121 H1133 0.930 . S
C1122 C1118 1.524 . S
C1122 H1134 0.956 . S
C1122 H1135 0.961 . S
C1122 H1136 0.961 . S
C1123 C1120 1.539 . S
C1123 H1137 0.958 . S
C1123 H1138 0.961 . S
C1123 H1139 0.960 . S
H1124 C1108 0.931 . S
H1125 C1113 0.929 . S
H1126 C1114 0.960 . S
H1127 C1114 0.962 . S
H1128 C1114 0.960 . S
H1129 C1115 0.961 . S
H1130 C1115 0.961 . S
H1131 C1115 0.961 . S
H1132 C1116 0.931 . S
H1133 C1121 0.930 . S
H1134 C1122 0.956 . S
H1135 C1122 0.961 . S
H1136 C1122 0.961 . S
H1137 C1123 0.958 . S
H1138 C1123 0.961 . S
H1139 C1123 0.960 . S
C1140 C1141 1.391 . S
C1140 C1142 1.394 . S
C1140 H1156 0.931 . S
C1141 C1140 1.391 . S
C1141 C1145 1.376 . S
C1142 C1140 1.394 . S
C1142 C1143 1.369 . S
C1142 C1146 1.531 . S
C1143 C1142 1.369 . S
C1143 C1144 1.410 . S
C1143 C1151 1.503 . S
C1144 C1143 1.410 . S
C1144 C1145 1.392 . S
C1144 C1147 1.511 . S
C1145 C1141 1.376 . S
C1145 C1144 1.392 . S
C1145 H1157 0.929 . S
C1146 C1142 1.531 . S
C1146 H1158 0.960 . S
C1146 H1159 0.962 . S
C1146 H1160 0.960 . S
C1147 C1144 1.511 . S
C1147 H1161 0.961 . S
C1147 H1162 0.961 . S
C1147 H1163 0.961 . S
C1148 C1149 1.370 . S
C1148 C1150 1.363 . S
C1148 H1164 0.931 . S
C1149 C1148 1.370 . S
C1149 C1153 1.408 . S
C1150 C1148 1.363 . S
C1150 C1151 1.370 . S
C1150 C1154 1.524 . S
C1151 C1143 1.503 . S
C1151 C1150 1.370 . S
C1151 C1152 1.403 . S
C1152 C1151 1.403 . S
C1152 C1153 1.404 . S
C1152 C1155 1.539 . S
C1153 C1149 1.408 . S
C1153 C1152 1.404 . S
C1153 H1165 0.930 . S
C1154 C1150 1.524 . S
C1154 H1166 0.956 . S
C1154 H1167 0.961 . S
C1154 H1168 0.961 . S
C1155 C1152 1.539 . S
C1155 H1169 0.958 . S
C1155 H1170 0.961 . S
C1155 H1171 0.960 . S
H1156 C1140 0.931 . S
H1157 C1145 0.929 . S
H1158 C1146 0.960 . S
H1159 C1146 0.962 . S
H1160 C1146 0.960 . S
H1161 C1147 0.961 . S
H1162 C1147 0.961 . S
H1163 C1147 0.961 . S
H1164 C1148 0.931 . S
H1165 C1153 0.930 . S
H1166 C1154 0.956 . S
H1167 C1154 0.961 . S
H1168 C1154 0.961 . S
H1169 C1155 0.958 . S
H1170 C1155 0.961 . S
H1171 C1155 0.960 . S
C1172 C1173 1.391 . S
C1172 C1174 1.394 . S
C1172 H1188 0.931 . S
C1173 C1172 1.391 . S
C1173 C1177 1.376 . S
C1174 C1172 1.394 . S
C1174 C1175 1.369 . S
C1174 C1178 1.531 . S
C1175 C1174 1.369 . S
C1175 C1176 1.410 . S
C1175 C1183 1.503 . S
C1176 C1175 1.410 . S
C1176 C1177 1.392 . S
C1176 C1179 1.511 . S
C1177 C1173 1.376 . S
C1177 C1176 1.392 . S
C1177 H1189 0.929 . S
C1178 C1174 1.531 . S
C1178 H1190 0.960 . S
C1178 H1191 0.962 . S
C1178 H1192 0.960 . S
C1179 C1176 1.511 . S
C1179 H1193 0.961 . S
C1179 H1194 0.961 . S
C1179 H1195 0.961 . S
C1180 C1181 1.370 . S
C1180 C1182 1.363 . S
C1180 H1196 0.931 . S
C1181 C1180 1.370 . S
C1181 C1185 1.408 . S
C1182 C1180 1.363 . S
C1182 C1183 1.370 . S
C1182 C1186 1.524 . S
C1183 C1175 1.503 . S
C1183 C1182 1.370 . S
C1183 C1184 1.403 . S
C1184 C1183 1.403 . S
C1184 C1185 1.404 . S
C1184 C1187 1.539 . S
C1185 C1181 1.408 . S
C1185 C1184 1.404 . S
C1185 H1197 0.930 . S
C1186 C1182 1.524 . S
C1186 H1198 0.956 . S
C1186 H1199 0.961 . S
C1186 H1200 0.961 . S
C1187 C1184 1.539 . S
C1187 H1201 0.958 . S
C1187 H1202 0.961 . S
C1187 H1203 0.960 . S
H1188 C1172 0.931 . S
H1189 C1177 0.929 . S
H1190 C1178 0.960 . S
H1191 C1178 0.962 . S
H1192 C1178 0.960 . S
H1193 C1179 0.961 . S
H1194 C1179 0.961 . S
H1195 C1179 0.961 . S
H1196 C1180 0.931 . S
H1197 C1185 0.930 . S
H1198 C1186 0.956 . S
H1199 C1186 0.961 . S
H1200 C1186 0.961 . S
H1201 C1187 0.958 . S
H1202 C1187 0.961 . S
H1203 C1187 0.960 . S
C1204 C1205 1.391 . S
C1204 C1206 1.394 . S
C1204 H1220 0.931 . S
C1205 C1204 1.391 . S
C1205 C1209 1.376 . S
C1206 C1204 1.394 . S
C1206 C1207 1.369 . S
C1206 C1210 1.531 . S
C1207 C1206 1.369 . S
C1207 C1208 1.410 . S
C1207 C1215 1.503 . S
C1208 C1207 1.410 . S
C1208 C1209 1.392 . S
C1208 C1211 1.511 . S
C1209 C1205 1.376 . S
C1209 C1208 1.392 . S
C1209 H1221 0.929 . S
C1210 C1206 1.531 . S
C1210 H1222 0.960 . S
C1210 H1223 0.962 . S
C1210 H1224 0.960 . S
C1211 C1208 1.511 . S
C1211 H1225 0.961 . S
C1211 H1226 0.961 . S
C1211 H1227 0.961 . S
C1212 C1213 1.370 . S
C1212 C1214 1.363 . S
C1212 H1228 0.931 . S
C1213 C1212 1.370 . S
C1213 C1217 1.408 . S
C1214 C1212 1.363 . S
C1214 C1215 1.370 . S
C1214 C1218 1.524 . S
C1215 C1207 1.503 . S
C1215 C1214 1.370 . S
C1215 C1216 1.403 . S
C1216 C1215 1.403 . S
C1216 C1217 1.404 . S
C1216 C1219 1.539 . S
C1217 C1213 1.408 . S
C1217 C1216 1.404 . S
C1217 H1229 0.930 . S
C1218 C1214 1.524 . S
C1218 H1230 0.956 . S
C1218 H1231 0.961 . S
C1218 H1232 0.961 . S
C1219 C1216 1.539 . S
C1219 H1233 0.958 . S
C1219 H1234 0.961 . S
C1219 H1235 0.960 . S
H1220 C1204 0.931 . S
H1221 C1209 0.929 . S
H1222 C1210 0.960 . S
H1223 C1210 0.962 . S
H1224 C1210 0.960 . S
H1225 C1211 0.961 . S
H1226 C1211 0.961 . S
H1227 C1211 0.961 . S
H1228 C1212 0.931 . S
H1229 C1217 0.930 . S
H1230 C1218 0.956 . S
H1231 C1218 0.961 . S
H1232 C1218 0.961 . S
H1233 C1219 0.958 . S
H1234 C1219 0.961 . S
H1235 C1219 0.960 . S
C1236 C1237 1.391 . S
C1236 C1238 1.394 . S
C1236 H1252 0.931 . S
C1237 C1236 1.391 . S
C1237 C1241 1.376 . S
C1238 C1236 1.394 . S
C1238 C1239 1.369 . S
C1238 C1242 1.531 . S
C1239 C1238 1.369 . S
C1239 C1240 1.410 . S
C1239 C1247 1.503 . S
C1240 C1239 1.410 . S
C1240 C1241 1.392 . S
C1240 C1243 1.511 . S
C1241 C1237 1.376 . S
C1241 C1240 1.392 . S
C1241 H1253 0.929 . S
C1242 C1238 1.531 . S
C1242 H1254 0.960 . S
C1242 H1255 0.962 . S
C1242 H1256 0.960 . S
C1243 C1240 1.511 . S
C1243 H1257 0.961 . S
C1243 H1258 0.961 . S
C1243 H1259 0.961 . S
C1244 C1245 1.370 . S
C1244 C1246 1.363 . S
C1244 H1260 0.931 . S
C1245 C1244 1.370 . S
C1245 C1249 1.408 . S
C1246 C1244 1.363 . S
C1246 C1247 1.370 . S
C1246 C1250 1.524 . S
C1247 C1239 1.503 . S
C1247 C1246 1.370 . S
C1247 C1248 1.403 . S
C1248 C1247 1.403 . S
C1248 C1249 1.404 . S
C1248 C1251 1.539 . S
C1249 C1245 1.408 . S
C1249 C1248 1.404 . S
C1249 H1261 0.930 . S
C1250 C1246 1.524 . S
C1250 H1262 0.956 . S
C1250 H1263 0.961 . S
C1250 H1264 0.961 . S
C1251 C1248 1.539 . S
C1251 H1265 0.958 . S
C1251 H1266 0.961 . S
C1251 H1267 0.960 . S
H1252 C1236 0.931 . S
H1253 C1241 0.929 . S
H1254 C1242 0.960 . S
H1255 C1242 0.962 . S
H1256 C1242 0.960 . S
H1257 C1243 0.961 . S
H1258 C1243 0.961 . S
H1259 C1243 0.961 . S
H1260 C1244 0.931 . S
H1261 C1249 0.930 . S
H1262 C1250 0.956 . S
H1263 C1250 0.961 . S
H1264 C1250 0.961 . S
H1265 C1251 0.958 . S
H1266 C1251 0.961 . S
H1267 C1251 0.960 . S
C1268 C1269 1.391 . S
C1268 C1270 1.394 . S
C1268 H1284 0.931 . S
C1269 C1268 1.391 . S
C1269 C1273 1.376 . S
C1270 C1268 1.394 . S
C1270 C1271 1.369 . S
C1270 C1274 1.531 . S
C1271 C1270 1.369 . S
C1271 C1272 1.410 . S
C1271 C1279 1.503 . S
C1272 C1271 1.410 . S
C1272 C1273 1.392 . S
C1272 C1275 1.511 . S
C1273 C1269 1.376 . S
C1273 C1272 1.392 . S
C1273 H1285 0.929 . S
C1274 C1270 1.531 . S
C1274 H1286 0.960 . S
C1274 H1287 0.962 . S
C1274 H1288 0.960 . S
C1275 C1272 1.511 . S
C1275 H1289 0.961 . S
C1275 H1290 0.961 . S
C1275 H1291 0.961 . S
C1276 C1277 1.370 . S
C1276 C1278 1.363 . S
C1276 H1292 0.931 . S
C1277 C1276 1.370 . S
C1277 C1281 1.408 . S
C1278 C1276 1.363 . S
C1278 C1279 1.370 . S
C1278 C1282 1.524 . S
C1279 C1271 1.503 . S
C1279 C1278 1.370 . S
C1279 C1280 1.403 . S
C1280 C1279 1.403 . S
C1280 C1281 1.404 . S
C1280 C1283 1.539 . S
C1281 C1277 1.408 . S
C1281 C1280 1.404 . S
C1281 H1293 0.930 . S
C1282 C1278 1.524 . S
C1282 H1294 0.956 . S
C1282 H1295 0.961 . S
C1282 H1296 0.961 . S
C1283 C1280 1.539 . S
C1283 H1297 0.958 . S
C1283 H1298 0.961 . S
C1283 H1299 0.960 . S
H1284 C1268 0.931 . S
H1285 C1273 0.929 . S
H1286 C1274 0.960 . S
H1287 C1274 0.962 . S
H1288 C1274 0.960 . S
H1289 C1275 0.961 . S
H1290 C1275 0.961 . S
H1291 C1275 0.961 . S
H1292 C1276 0.931 . S
H1293 C1281 0.930 . S
H1294 C1282 0.956 . S
H1295 C1282 0.961 . S
H1296 C1282 0.961 . S
H1297 C1283 0.958 . S
H1298 C1283 0.961 . S
H1299 C1283 0.960 . S
C1300 C1301 1.391 . S
C1300 C1302 1.394 . S
C1300 H1316 0.931 . S
C1301 C1300 1.391 . S
C1301 C1305 1.376 . S
C1302 C1300 1.394 . S
C1302 C1303 1.369 . S
C1302 C1306 1.531 . S
C1303 C1302 1.369 . S
C1303 C1304 1.410 . S
C1303 C1311 1.503 . S
C1304 C1303 1.410 . S
C1304 C1305 1.392 . S
C1304 C1307 1.511 . S
C1305 C1301 1.376 . S
C1305 C1304 1.392 . S
C1305 H1317 0.929 . S
C1306 C1302 1.531 . S
C1306 H1318 0.960 . S
C1306 H1319 0.962 . S
C1306 H1320 0.960 . S
C1307 C1304 1.511 . S
C1307 H1321 0.961 . S
C1307 H1322 0.961 . S
C1307 H1323 0.961 . S
C1308 C1309 1.370 . S
C1308 C1310 1.363 . S
C1308 H1324 0.931 . S
C1309 C1308 1.370 . S
C1309 C1313 1.408 . S
C1310 C1308 1.363 . S
C1310 C1311 1.370 . S
C1310 C1314 1.524 . S
C1311 C1303 1.503 . S
C1311 C1310 1.370 . S
C1311 C1312 1.403 . S
C1312 C1311 1.403 . S
C1312 C1313 1.404 . S
C1312 C1315 1.539 . S
C1313 C1309 1.408 . S
C1313 C1312 1.404 . S
C1313 H1325 0.930 . S
C1314 C1310 1.524 . S
C1314 H1326 0.956 . S
C1314 H1327 0.961 . S
C1314 H1328 0.961 . S
C1315 C1312 1.539 . S
C1315 H1329 0.958 . S
C1315 H1330 0.961 . S
C1315 H1331 0.960 . S
H1316 C1300 0.931 . S
H1317 C1305 0.929 . S
H1318 C1306 0.960 . S
H1319 C1306 0.962 . S
H1320 C1306 0.960 . S
H1321 C1307 0.961 . S
H1322 C1307 0.961 . S
H1323 C1307 0.961 . S
H1324 C1308 0.931 . S
H1325 C1313 0.930 . S
H1326 C1314 0.956 . S
H1327 C1314 0.961 . S
H1328 C1314 0.961 . S
H1329 C1315 0.958 . S
H1330 C1315 0.961 . S
H1331 C1315 0.960 . S
C1332 C1333 1.391 . S
C1332 C1334 1.394 . S
C1332 H1348 0.931 . S
C1333 C1332 1.391 . S
C1333 C1337 1.376 . S
C1334 C1332 1.394 . S
C1334 C1335 1.369 . S
C1334 C1338 1.531 . S
C1335 C1334 1.369 . S
C1335 C1336 1.410 . S
C1335 C1343 1.503 . S
C1336 C1335 1.410 . S
C1336 C1337 1.392 . S
C1336 C1339 1.511 . S
C1337 C1333 1.376 . S
C1337 C1336 1.392 . S
C1337 H1349 0.929 . S
C1338 C1334 1.531 . S
C1338 H1350 0.960 . S
C1338 H1351 0.962 . S
C1338 H1352 0.960 . S
C1339 C1336 1.511 . S
C1339 H1353 0.961 . S
C1339 H1354 0.961 . S
C1339 H1355 0.961 . S
C1340 C1341 1.370 . S
C1340 C1342 1.363 . S
C1340 H1356 0.931 . S
C1341 C1340 1.370 . S
C1341 C1345 1.408 . S
C1342 C1340 1.363 . S
C1342 C1343 1.370 . S
C1342 C1346 1.524 . S
C1343 C1335 1.503 . S
C1343 C1342 1.370 . S
C1343 C1344 1.403 . S
C1344 C1343 1.403 . S
C1344 C1345 1.404 . S
C1344 C1347 1.539 . S
C1345 C1341 1.408 . S
C1345 C1344 1.404 . S
C1345 H1357 0.930 . S
C1346 C1342 1.524 . S
C1346 H1358 0.956 . S
C1346 H1359 0.961 . S
C1346 H1360 0.961 . S
C1347 C1344 1.539 . S
C1347 H1361 0.958 . S
C1347 H1362 0.961 . S
C1347 H1363 0.960 . S
H1348 C1332 0.931 . S
H1349 C1337 0.929 . S
H1350 C1338 0.960 . S
H1351 C1338 0.962 . S
H1352 C1338 0.960 . S
H1353 C1339 0.961 . S
H1354 C1339 0.961 . S
H1355 C1339 0.961 . S
H1356 C1340 0.931 . S
H1357 C1345 0.930 . S
H1358 C1346 0.956 . S
H1359 C1346 0.961 . S
H1360 C1346 0.961 . S
H1361 C1347 0.958 . S
H1362 C1347 0.961 . S
H1363 C1347 0.960 . S
C1364 C1365 1.391 . S
C1364 C1366 1.394 . S
C1364 H1380 0.931 . S
C1365 C1364 1.391 . S
C1365 C1369 1.376 . S
C1366 C1364 1.394 . S
C1366 C1367 1.369 . S
C1366 C1370 1.531 . S
C1367 C1366 1.369 . S
C1367 C1368 1.410 . S
C1367 C1375 1.503 . S
C1368 C1367 1.410 . S
C1368 C1369 1.392 . S
C1368 C1371 1.511 . S
C1369 C1365 1.376 . S
C1369 C1368 1.392 . S
C1369 H1381 0.929 . S
C1370 C1366 1.531 . S
C1370 H1382 0.960 . S
C1370 H1383 0.962 . S
C1370 H1384 0.960 . S
C1371 C1368 1.511 . S
C1371 H1385 0.961 . S
C1371 H1386 0.961 . S
C1371 H1387 0.961 . S
C1372 C1373 1.370 . S
C1372 C1374 1.363 . S
C1372 H1388 0.931 . S
C1373 C1372 1.370 . S
C1373 C1377 1.408 . S
C1374 C1372 1.363 . S
C1374 C1375 1.370 . S
C1374 C1378 1.524 1_565 S
C1375 C1367 1.503 . S
C1375 C1374 1.370 . S
C1375 C1376 1.403 . S
C1376 C1375 1.403 . S
C1376 C1377 1.404 . S
C1376 C1379 1.539 . S
C1377 C1373 1.408 . S
C1377 C1376 1.404 . S
C1377 H1389 0.930 . S
C1378 C1374 1.524 1_545 S
C1378 H1390 0.956 . S
C1378 H1391 0.961 . S
C1378 H1392 0.961 . S
C1379 C1376 1.539 . S
C1379 H1393 0.958 . S
C1379 H1394 0.961 . S
C1379 H1395 0.960 . S
H1380 C1364 0.931 . S
H1381 C1369 0.929 . S
H1382 C1370 0.960 . S
H1383 C1370 0.962 . S
H1384 C1370 0.960 . S
H1385 C1371 0.961 . S
H1386 C1371 0.961 . S
H1387 C1371 0.961 . S
H1388 C1372 0.931 . S
H1389 C1377 0.930 . S
H1390 C1378 0.956 . S
H1391 C1378 0.961 . S
H1392 C1378 0.961 . S
H1393 C1379 0.958 . S
H1394 C1379 0.961 . S
H1395 C1379 0.960 . S
C1396 C1397 1.391 . S
C1396 C1398 1.394 . S
C1396 H1412 0.931 . S
C1397 C1396 1.391 . S
C1397 C1401 1.376 . S
C1398 C1396 1.394 . S
C1398 C1399 1.369 . S
C1398 C1402 1.531 . S
C1399 C1398 1.369 . S
C1399 C1400 1.410 . S
C1399 C1407 1.503 . S
C1400 C1399 1.410 . S
C1400 C1401 1.392 . S
C1400 C1403 1.511 . S
C1401 C1397 1.376 . S
C1401 C1400 1.392 . S
C1401 H1413 0.929 . S
C1402 C1398 1.531 . S
C1402 H1414 0.960 . S
C1402 H1415 0.962 . S
C1402 H1416 0.960 . S
C1403 C1400 1.511 . S
C1403 H1417 0.961 . S
C1403 H1418 0.961 . S
C1403 H1419 0.961 . S
C1404 C1405 1.370 . S
C1404 C1406 1.363 . S
C1404 H1420 0.931 . S
C1405 C1404 1.370 . S
C1405 C1409 1.408 . S
C1406 C1404 1.363 . S
C1406 C1407 1.370 . S
C1406 C1410 1.524 . S
C1407 C1399 1.503 . S
C1407 C1406 1.370 . S
C1407 C1408 1.403 . S
C1408 C1407 1.403 . S
C1408 C1409 1.404 . S
C1408 C1411 1.539 . S
C1409 C1405 1.408 . S
C1409 C1408 1.404 . S
C1409 H1421 0.930 . S
C1410 C1406 1.524 . S
C1410 H1422 0.956 . S
C1410 H1423 0.961 . S
C1410 H1424 0.961 . S
C1411 C1408 1.539 . S
C1411 H1425 0.958 . S
C1411 H1426 0.961 . S
C1411 H1427 0.960 . S
H1412 C1396 0.931 . S
H1413 C1401 0.929 . S
H1414 C1402 0.960 . S
H1415 C1402 0.962 . S
H1416 C1402 0.960 . S
H1417 C1403 0.961 . S
H1418 C1403 0.961 . S
H1419 C1403 0.961 . S
H1420 C1404 0.931 . S
H1421 C1409 0.930 . S
H1422 C1410 0.956 . S
H1423 C1410 0.961 . S
H1424 C1410 0.961 . S
H1425 C1411 0.958 . S
H1426 C1411 0.961 . S
H1427 C1411 0.960 . S
C1428 C1429 1.391 . S
C1428 C1430 1.394 . S
C1428 H1444 0.931 1_545 S
C1429 C1428 1.391 . S
C1429 C1433 1.376 . S
C1430 C1428 1.394 . S
C1430 C1431 1.369 . S
C1430 C1434 1.531 1_545 S
C1431 C1430 1.369 . S
C1431 C1432 1.410 . S
C1431 C1439 1.503 . S
C1432 C1431 1.410 . S
C1432 C1433 1.392 . S
C1432 C1435 1.511 . S
C1433 C1429 1.376 . S
C1433 C1432 1.392 . S
C1433 H1445 0.929 . S
C1434 C1430 1.531 1_565 S
C1434 H1446 0.960 . S
C1434 H1447 0.962 . S
C1434 H1448 0.960 . S
C1435 C1432 1.511 . S
C1435 H1449 0.961 . S
C1435 H1450 0.961 . S
C1435 H1451 0.961 . S
C1436 C1437 1.370 . S
C1436 C1438 1.363 . S
C1436 H1452 0.931 . S
C1437 C1436 1.370 . S
C1437 C1441 1.408 . S
C1438 C1436 1.363 . S
C1438 C1439 1.370 . S
C1438 C1442 1.524 . S
C1439 C1431 1.503 . S
C1439 C1438 1.370 . S
C1439 C1440 1.403 . S
C1440 C1439 1.403 . S
C1440 C1441 1.404 . S
C1440 C1443 1.539 . S
C1441 C1437 1.408 . S
C1441 C1440 1.404 . S
C1441 H1453 0.930 . S
C1442 C1438 1.524 . S
C1442 H1454 0.956 . S
C1442 H1455 0.961 . S
C1442 H1456 0.961 . S
C1443 C1440 1.539 . S
C1443 H1457 0.958 . S
C1443 H1458 0.961 . S
C1443 H1459 0.960 . S
H1444 C1428 0.931 1_565 S
H1445 C1433 0.929 . S
H1446 C1434 0.960 . S
H1447 C1434 0.962 . S
H1448 C1434 0.960 . S
H1449 C1435 0.961 . S
H1450 C1435 0.961 . S
H1451 C1435 0.961 . S
H1452 C1436 0.931 . S
H1453 C1441 0.930 . S
H1454 C1442 0.956 . S
H1455 C1442 0.961 . S
H1456 C1442 0.961 . S
H1457 C1443 0.958 . S
H1458 C1443 0.961 . S
H1459 C1443 0.960 . S
C1460 C1461 1.391 . S
C1460 C1462 1.394 . S
C1460 H1476 0.931 . S
C1461 C1460 1.391 . S
C1461 C1465 1.376 . S
C1462 C1460 1.394 . S
C1462 C1463 1.369 . S
C1462 C1466 1.531 . S
C1463 C1462 1.369 . S
C1463 C1464 1.410 . S
C1463 C1471 1.503 . S
C1464 C1463 1.410 . S
C1464 C1465 1.392 . S
C1464 C1467 1.511 . S
C1465 C1461 1.376 . S
C1465 C1464 1.392 . S
C1465 H1477 0.929 . S
C1466 C1462 1.531 . S
C1466 H1478 0.960 . S
C1466 H1479 0.962 . S
C1466 H1480 0.960 . S
C1467 C1464 1.511 . S
C1467 H1481 0.961 . S
C1467 H1482 0.961 . S
C1467 H1483 0.961 . S
C1468 C1469 1.370 . S
C1468 C1470 1.363 . S
C1468 H1484 0.931 . S
C1469 C1468 1.370 . S
C1469 C1473 1.408 . S
C1470 C1468 1.363 . S
C1470 C1471 1.370 . S
C1470 C1474 1.524 . S
C1471 C1463 1.503 . S
C1471 C1470 1.370 . S
C1471 C1472 1.403 . S
C1472 C1471 1.403 . S
C1472 C1473 1.404 . S
C1472 C1475 1.539 . S
C1473 C1469 1.408 . S
C1473 C1472 1.404 . S
C1473 H1485 0.930 . S
C1474 C1470 1.524 . S
C1474 H1486 0.956 . S
C1474 H1487 0.961 . S
C1474 H1488 0.961 . S
C1475 C1472 1.539 . S
C1475 H1489 0.958 . S
C1475 H1490 0.961 . S
C1475 H1491 0.960 . S
H1476 C1460 0.931 . S
H1477 C1465 0.929 . S
H1478 C1466 0.960 . S
H1479 C1466 0.962 . S
H1480 C1466 0.960 . S
H1481 C1467 0.961 . S
H1482 C1467 0.961 . S
H1483 C1467 0.961 . S
H1484 C1468 0.931 . S
H1485 C1473 0.930 . S
H1486 C1474 0.956 . S
H1487 C1474 0.961 . S
H1488 C1474 0.961 . S
H1489 C1475 0.958 . S
H1490 C1475 0.961 . S
H1491 C1475 0.960 . S
C1492 C1493 1.391 . S
C1492 C1494 1.394 . S
C1492 H1508 0.931 . S
C1493 C1492 1.391 . S
C1493 C1497 1.376 . S
C1494 C1492 1.394 . S
C1494 C1495 1.369 . S
C1494 C1498 1.531 . S
C1495 C1494 1.369 . S
C1495 C1496 1.410 . S
C1495 C1503 1.503 . S
C1496 C1495 1.410 . S
C1496 C1497 1.392 . S
C1496 C1499 1.511 . S
C1497 C1493 1.376 . S
C1497 C1496 1.392 . S
C1497 H1509 0.929 . S
C1498 C1494 1.531 . S
C1498 H1510 0.960 . S
C1498 H1511 0.962 . S
C1498 H1512 0.960 . S
C1499 C1496 1.511 . S
C1499 H1513 0.961 . S
C1499 H1514 0.961 . S
C1499 H1515 0.961 . S
C1500 C1501 1.370 . S
C1500 C1502 1.363 . S
C1500 H1516 0.931 . S
C1501 C1500 1.370 . S
C1501 C1505 1.408 . S
C1502 C1500 1.363 . S
C1502 C1503 1.370 . S
C1502 C1506 1.524 . S
C1503 C1495 1.503 . S
C1503 C1502 1.370 . S
C1503 C1504 1.403 . S
C1504 C1503 1.403 . S
C1504 C1505 1.404 . S
C1504 C1507 1.539 1_556 S
C1505 C1501 1.408 . S
C1505 C1504 1.404 . S
C1505 H1517 0.930 1_556 S
C1506 C1502 1.524 . S
C1506 H1518 0.956 . S
C1506 H1519 0.961 . S
C1506 H1520 0.961 . S
C1507 C1504 1.539 1_554 S
C1507 H1521 0.958 . S
C1507 H1522 0.961 . S
C1507 H1523 0.960 . S
H1508 C1492 0.931 . S
H1509 C1497 0.929 . S
H1510 C1498 0.960 . S
H1511 C1498 0.962 . S
H1512 C1498 0.960 . S
H1513 C1499 0.961 . S
H1514 C1499 0.961 . S
H1515 C1499 0.961 . S
H1516 C1500 0.931 . S
H1517 C1505 0.930 1_554 S
H1518 C1506 0.956 . S
H1519 C1506 0.961 . S
H1520 C1506 0.961 . S
H1521 C1507 0.958 . S
H1522 C1507 0.961 . S
H1523 C1507 0.960 . S
C1524 C1525 1.391 . S
C1524 C1526 1.394 . S
C1524 H1540 0.931 . S
C1525 C1524 1.391 . S
C1525 C1529 1.376 1_554 S
C1526 C1524 1.394 . S
C1526 C1527 1.369 . S
C1526 C1530 1.531 . S
C1527 C1526 1.369 . S
C1527 C1528 1.410 1_554 S
C1527 C1535 1.503 . S
C1528 C1527 1.410 1_556 S
C1528 C1529 1.392 . S
C1528 C1531 1.511 . S
C1529 C1525 1.376 1_556 S
C1529 C1528 1.392 . S
C1529 H1541 0.929 . S
C1530 C1526 1.531 . S
C1530 H1542 0.960 . S
C1530 H1543 0.962 . S
C1530 H1544 0.960 . S
C1531 C1528 1.511 . S
C1531 H1545 0.961 . S
C1531 H1546 0.961 . S
C1531 H1547 0.961 1_556 S
C1532 C1533 1.370 . S
C1532 C1534 1.363 . S
C1532 H1548 0.931 . S
C1533 C1532 1.370 . S
C1533 C1537 1.408 1_556 S
C1534 C1532 1.363 . S
C1534 C1535 1.370 1_556 S
C1534 C1538 1.524 . S
C1535 C1527 1.503 . S
C1535 C1534 1.370 1_554 S
C1535 C1536 1.403 . S
C1536 C1535 1.403 . S
C1536 C1537 1.404 . S
C1536 C1539 1.539 . S
C1537 C1533 1.408 1_554 S
C1537 C1536 1.404 . S
C1537 H1549 0.930 . S
C1538 C1534 1.524 . S
C1538 H1550 0.956 . S
C1538 H1551 0.961 . S
C1538 H1552 0.961 . S
C1539 C1536 1.539 . S
C1539 H1553 0.958 . S
C1539 H1554 0.961 . S
C1539 H1555 0.960 . S
H1540 C1524 0.931 . S
H1541 C1529 0.929 . S
H1542 C1530 0.960 . S
H1543 C1530 0.962 . S
H1544 C1530 0.960 . S
H1545 C1531 0.961 . S
H1546 C1531 0.961 . S
H1547 C1531 0.961 1_554 S
H1548 C1532 0.931 . S
H1549 C1537 0.930 . S
H1550 C1538 0.956 . S
H1551 C1538 0.961 . S
H1552 C1538 0.961 . S
H1553 C1539 0.958 . S
H1554 C1539 0.961 . S
H1555 C1539 0.960 . S
C1556 C1557 1.391 . S
C1556 C1558 1.394 . S
C1556 H1572 0.931 . S
C1557 C1556 1.391 . S
C1557 C1561 1.376 1_554 S
C1558 C1556 1.394 . S
C1558 C1559 1.369 . S
C1558 C1562 1.531 . S
C1559 C1558 1.369 . S
C1559 C1560 1.410 1_554 S
C1559 C1567 1.503 . S
C1560 C1559 1.410 1_556 S
C1560 C1561 1.392 . S
C1560 C1563 1.511 . S
C1561 C1557 1.376 1_556 S
C1561 C1560 1.392 . S
C1561 H1573 0.929 . S
C1562 C1558 1.531 . S
C1562 H1574 0.960 . S
C1562 H1575 0.962 . S
C1562 H1576 0.960 . S
C1563 C1560 1.511 . S
C1563 H1577 0.961 . S
C1563 H1578 0.961 . S
C1563 H1579 0.961 . S
C1564 C1565 1.370 . S
C1564 C1566 1.363 . S
C1564 H1580 0.931 . S
C1565 C1564 1.370 . S
C1565 C1569 1.408 . S
C1566 C1564 1.363 . S
C1566 C1567 1.370 . S
C1566 C1570 1.524 . S
C1567 C1559 1.503 . S
C1567 C1566 1.370 . S
C1567 C1568 1.403 . S
C1568 C1567 1.403 . S
C1568 C1569 1.404 . S
C1568 C1571 1.539 1_554 S
C1569 C1565 1.408 . S
C1569 C1568 1.404 . S
C1569 H1581 0.930 1_554 S
C1570 C1566 1.524 . S
C1570 H1582 0.956 . S
C1570 H1583 0.961 . S
C1570 H1584 0.961 . S
C1571 C1568 1.539 1_556 S
C1571 H1585 0.958 . S
C1571 H1586 0.961 . S
C1571 H1587 0.960 . S
H1572 C1556 0.931 . S
H1573 C1561 0.929 . S
H1574 C1562 0.960 . S
H1575 C1562 0.962 . S
H1576 C1562 0.960 . S
H1577 C1563 0.961 . S
H1578 C1563 0.961 . S
H1579 C1563 0.961 . S
H1580 C1564 0.931 . S
H1581 C1569 0.930 1_556 S
H1582 C1570 0.956 . S
H1583 C1570 0.961 . S
H1584 C1570 0.961 . S
H1585 C1571 0.958 . S
H1586 C1571 0.961 . S
H1587 C1571 0.960 . S
C1588 C1589 1.391 . S
C1588 C1590 1.394 . S
C1588 H1604 0.931 . S
C1589 C1588 1.391 . S
C1589 C1593 1.376 . S
C1590 C1588 1.394 . S
C1590 C1591 1.369 . S
C1590 C1594 1.531 . S
C1591 C1590 1.369 . S
C1591 C1592 1.410 . S
C1591 C1599 1.503 . S
C1592 C1591 1.410 . S
C1592 C1593 1.392 . S
C1592 C1595 1.511 1_455 S
C1593 C1589 1.376 . S
C1593 C1592 1.392 . S
C1593 H1605 0.929 1_455 S
C1594 C1590 1.531 . S
C1594 H1606 0.960 . S
C1594 H1607 0.962 . S
C1594 H1608 0.960 . S
C1595 C1592 1.511 1_655 S
C1595 H1609 0.961 . S
C1595 H1610 0.961 . S
C1595 H1611 0.961 . S
C1596 C1597 1.370 . S
C1596 C1598 1.363 . S
C1596 H1612 0.931 . S
C1597 C1596 1.370 . S
C1597 C1601 1.408 . S
C1598 C1596 1.363 . S
C1598 C1599 1.370 . S
C1598 C1602 1.524 . S
C1599 C1591 1.503 . S
C1599 C1598 1.370 . S
C1599 C1600 1.403 . S
C1600 C1599 1.403 . S
C1600 C1601 1.404 . S
C1600 C1603 1.539 . S
C1601 C1597 1.408 . S
C1601 C1600 1.404 . S
C1601 H1613 0.930 . S
C1602 C1598 1.524 . S
C1602 H1614 0.956 . S
C1602 H1615 0.961 . S
C1602 H1616 0.961 . S
C1603 C1600 1.539 . S
C1603 H1617 0.958 . S
C1603 H1618 0.961 . S
C1603 H1619 0.960 . S
H1604 C1588 0.931 . S
H1605 C1593 0.929 1_655 S
H1606 C1594 0.960 . S
H1607 C1594 0.962 . S
H1608 C1594 0.960 . S
H1609 C1595 0.961 . S
H1610 C1595 0.961 . S
H1611 C1595 0.961 . S
H1612 C1596 0.931 . S
H1613 C1601 0.930 . S
H1614 C1602 0.956 . S
H1615 C1602 0.961 . S
H1616 C1602 0.961 . S
H1617 C1603 0.958 . S
H1618 C1603 0.961 . S
H1619 C1603 0.960 . S
C1620 C1621 1.391 . S
C1620 C1622 1.394 . S
C1620 H1636 0.931 . S
C1621 C1620 1.391 . S
C1621 C1625 1.376 . S
C1622 C1620 1.394 . S
C1622 C1623 1.369 . S
C1622 C1626 1.531 . S
C1623 C1622 1.369 . S
C1623 C1624 1.410 . S
C1623 C1631 1.503 . S
C1624 C1623 1.410 . S
C1624 C1625 1.392 . S
C1624 C1627 1.511 1_655 S
C1625 C1621 1.376 . S
C1625 C1624 1.392 . S
C1625 H1637 0.929 1_655 S
C1626 C1622 1.531 . S
C1626 H1638 0.960 . S
C1626 H1639 0.962 . S
C1626 H1640 0.960 . S
C1627 C1624 1.511 1_455 S
C1627 H1641 0.961 . S
C1627 H1642 0.961 . S
C1627 H1643 0.961 . S
C1628 C1629 1.370 . S
C1628 C1630 1.363 . S
C1628 H1644 0.931 . S
C1629 C1628 1.370 . S
C1629 C1633 1.408 1_655 S
C1630 C1628 1.363 . S
C1630 C1631 1.370 . S
C1630 C1634 1.524 . S
C1631 C1623 1.503 . S
C1631 C1630 1.370 . S
C1631 C1632 1.403 1_655 S
C1632 C1631 1.403 1_455 S
C1632 C1633 1.404 . S
C1632 C1635 1.539 . S
C1633 C1629 1.408 1_455 S
C1633 C1632 1.404 . S
C1633 H1645 0.930 . S
C1634 C1630 1.524 . S
C1634 H1646 0.956 . S
C1634 H1647 0.961 . S
C1634 H1648 0.961 . S
C1635 C1632 1.539 . S
C1635 H1649 0.958 . S
C1635 H1650 0.961 . S
C1635 H1651 0.960 . S
H1636 C1620 0.931 . S
H1637 C1625 0.929 1_455 S
H1638 C1626 0.960 . S
H1639 C1626 0.962 . S
H1640 C1626 0.960 . S
H1641 C1627 0.961 . S
H1642 C1627 0.961 . S
H1643 C1627 0.961 . S
H1644 C1628 0.931 . S
H1645 C1633 0.930 . S
H1646 C1634 0.956 . S
H1647 C1634 0.961 . S
H1648 C1634 0.961 . S
H1649 C1635 0.958 . S
H1650 C1635 0.961 . S
H1651 C1635 0.960 . S
C1652 C1653 1.391 . S
C1652 C1654 1.394 . S
C1652 H1668 0.931 . S
C1653 C1652 1.391 . S
C1653 C1657 1.376 . S
C1654 C1652 1.394 . S
C1654 C1655 1.369 . S
C1654 C1658 1.531 . S
C1655 C1654 1.369 . S
C1655 C1656 1.410 . S
C1655 C1663 1.503 . S
C1656 C1655 1.410 . S
C1656 C1657 1.392 . S
C1656 C1659 1.511 1_455 S
C1657 C1653 1.376 . S
C1657 C1656 1.392 . S
C1657 H1669 0.946 . S
C1658 C1654 1.531 . S
C1658 H1670 0.960 . S
C1658 H1671 0.962 . S
C1658 H1672 0.960 . S
C1659 C1656 1.511 1_655 S
C1659 H1673 0.961 . S
C1659 H1674 0.961 . S
C1659 H1675 0.961 . S
C1660 C1661 1.370 . S
C1660 C1662 1.363 . S
C1660 H1676 0.931 . S
C1661 C1660 1.370 . S
C1661 C1665 1.408 . S
C1662 C1660 1.363 . S
C1662 C1663 1.370 . S
C1662 C1666 1.524 . S
C1663 C1655 1.503 . S
C1663 C1662 1.370 . S
C1663 C1664 1.403 . S
C1664 C1663 1.403 . S
C1664 C1665 1.404 . S
C1664 C1667 1.539 . S
C1665 C1661 1.408 . S
C1665 C1664 1.404 . S
C1665 H1677 0.930 . S
C1666 C1662 1.524 . S
C1666 H1678 0.956 . S
C1666 H1679 0.961 . S
C1666 H1680 0.961 . S
C1667 C1664 1.539 . S
C1667 H1681 0.958 . S
C1667 H1682 0.961 1_455 S
C1667 H1683 0.960 . S
H1668 C1652 0.931 . S
H1669 C1657 0.946 . S
H1670 C1658 0.960 . S
H1671 C1658 0.962 . S
H1672 C1658 0.960 . S
H1673 C1659 0.961 . S
H1674 C1659 0.961 . S
H1675 C1659 0.961 . S
H1676 C1660 0.931 . S
H1677 C1665 0.930 . S
H1678 C1666 0.956 . S
H1679 C1666 0.961 . S
H1680 C1666 0.961 . S
H1681 C1667 0.958 . S
H1682 C1667 0.961 1_655 S
H1683 C1667 0.960 . S
C1684 C1685 1.391 1_455 S
C1684 C1686 1.399 . S
C1684 H1700 0.931 . S
C1685 C1684 1.391 1_655 S
C1685 C1689 1.376 . S
C1686 C1684 1.399 . S
C1686 C1687 1.354 1_455 S
C1686 C1690 1.540 . S
C1687 C1686 1.354 1_655 S
C1687 C1688 1.410 . S
C1687 C1695 1.503 . S
C1688 C1687 1.410 . S
C1688 C1689 1.392 . S
C1688 C1691 1.511 . S
C1689 C1685 1.376 . S
C1689 C1688 1.392 . S
C1689 H1701 0.929 . S
C1690 C1686 1.540 . S
C1690 H1702 0.953 1_455 S
C1690 H1703 0.962 . S
C1690 H1704 0.960 . S
C1691 C1688 1.511 . S
C1691 H1705 0.961 . S
C1691 H1706 0.961 . S
C1691 H1707 0.961 . S
C1692 C1693 1.370 . S
C1692 C1694 1.362 1_655 S
C1692 H1708 0.931 1_655 S
C1693 C1692 1.370 . S
C1693 C1697 1.408 . S
C1694 C1692 1.362 1_455 S
C1694 C1695 1.356 1_455 S
C1694 C1698 1.540 . S
C1695 C1687 1.503 . S
C1695 C1694 1.356 1_655 S
C1695 C1696 1.403 . S
C1696 C1695 1.403 . S
C1696 C1697 1.404 . S
C1696 C1699 1.539 . S
C1697 C1693 1.408 . S
C1697 C1696 1.404 . S
C1697 H1709 0.930 . S
C1698 C1694 1.540 . S
C1698 H1710 0.956 . S
C1698 H1711 0.961 . S
C1698 H1712 0.961 . S
C1699 C1696 1.539 . S
C1699 H1713 0.958 . S
C1699 H1714 0.961 . S
C1699 H1715 0.960 . S
H1700 C1684 0.931 . S
H1701 C1689 0.929 . S
H1702 C1690 0.953 1_655 S
H1703 C1690 0.962 . S
H1704 C1690 0.960 . S
H1705 C1691 0.961 . S
H1706 C1691 0.961 . S
H1707 C1691 0.961 . S
H1708 C1692 0.931 1_455 S
H1709 C1697 0.930 . S
H1710 C1698 0.956 . S
H1711 C1698 0.961 . S
H1712 C1698 0.961 . S
H1713 C1699 0.958 . S
H1714 C1699 0.961 . S
H1715 C1699 0.960 . S
C1716 C1717 1.391 . S
C1716 C1718 1.394 . S
C1716 H1732 0.931 1_545 S
C1717 C1716 1.391 . S
C1717 C1721 1.376 . S
C1718 C1716 1.394 . S
C1718 C1719 1.369 . S
C1718 C1722 1.531 1_545 S
C1719 C1718 1.369 . S
C1719 C1720 1.410 . S
C1719 C1727 1.503 . S
C1720 C1719 1.410 . S
C1720 C1721 1.392 . S
C1720 C1723 1.511 . S
C1721 C1717 1.376 . S
C1721 C1720 1.392 . S
C1721 H1733 0.929 . S
C1722 C1718 1.531 1_565 S
C1722 H1734 0.960 . S
C1722 H1735 0.962 1_565 S
C1722 H1736 0.960 . S
C1723 C1720 1.511 . S
C1723 H1737 0.961 . S
C1723 H1738 0.961 . S
C1723 H1739 0.961 . S
C1724 C1725 1.370 . S
C1724 C1726 1.363 . S
C1724 H1740 0.931 . S
C1725 C1724 1.370 . S
C1725 C1729 1.408 . S
C1726 C1724 1.363 . S
C1726 C1727 1.370 . S
C1726 C1730 1.524 . S
C1727 C1719 1.503 . S
C1727 C1726 1.370 . S
C1727 C1728 1.403 . S
C1728 C1727 1.403 . S
C1728 C1729 1.404 . S
C1728 C1731 1.539 1_545 S
C1729 C1725 1.408 . S
C1729 C1728 1.404 . S
C1729 H1741 0.930 . S
C1730 C1726 1.524 . S
C1730 H1742 0.956 . S
C1730 H1743 0.961 . S
C1730 H1744 0.961 . S
C1731 C1728 1.539 1_565 S
C1731 H1745 0.958 . S
C1731 H1746 0.961 . S
C1731 H1747 0.954 1_565 S
H1732 C1716 0.931 1_565 S
H1733 C1721 0.929 . S
H1734 C1722 0.960 . S
H1735 C1722 0.962 1_545 S
H1736 C1722 0.960 . S
H1737 C1723 0.961 . S
H1738 C1723 0.961 . S
H1739 C1723 0.961 . S
H1740 C1724 0.931 . S
H1741 C1729 0.930 . S
H1742 C1730 0.956 . S
H1743 C1730 0.961 . S
H1744 C1730 0.961 . S
H1745 C1731 0.958 . S
H1746 C1731 0.961 . S
H1747 C1731 0.954 1_545 S
C1748 C1749 1.391 . S
C1748 C1750 1.394 . S
C1748 H1764 0.931 . S
C1749 C1748 1.391 . S
C1749 C1753 1.376 . S
C1750 C1748 1.394 . S
C1750 C1751 1.369 . S
C1750 C1754 1.531 . S
C1751 C1750 1.369 . S
C1751 C1752 1.410 . S
C1751 C1759 1.503 . S
C1752 C1751 1.410 . S
C1752 C1753 1.392 . S
C1752 C1755 1.511 . S
C1753 C1749 1.376 . S
C1753 C1752 1.392 . S
C1753 H1765 0.929 . S
C1754 C1750 1.531 . S
C1754 H1766 0.960 . S
C1754 H1767 0.962 . S
C1754 H1768 0.960 . S
C1755 C1752 1.511 . S
C1755 H1769 0.961 . S
C1755 H1770 0.961 . S
C1755 H1771 0.961 . S
C1756 C1757 1.370 . S
C1756 C1758 1.363 . S
C1756 H1772 0.931 . S
C1757 C1756 1.370 . S
C1757 C1761 1.408 . S
C1758 C1756 1.363 . S
C1758 C1759 1.370 . S
C1758 C1762 1.524 . S
C1759 C1751 1.503 . S
C1759 C1758 1.370 . S
C1759 C1760 1.403 . S
C1760 C1759 1.403 . S
C1760 C1761 1.404 . S
C1760 C1763 1.539 . S
C1761 C1757 1.408 . S
C1761 C1760 1.404 . S
C1761 H1773 0.930 . S
C1762 C1758 1.524 . S
C1762 H1774 0.956 . S
C1762 H1775 0.961 . S
C1762 H1776 0.961 . S
C1763 C1760 1.539 . S
C1763 H1777 0.958 . S
C1763 H1778 0.961 . S
C1763 H1779 0.960 . S
H1764 C1748 0.931 . S
H1765 C1753 0.929 . S
H1766 C1754 0.960 . S
H1767 C1754 0.962 . S
H1768 C1754 0.960 . S
H1769 C1755 0.961 . S
H1770 C1755 0.961 . S
H1771 C1755 0.961 . S
H1772 C1756 0.931 . S
H1773 C1761 0.930 . S
H1774 C1762 0.956 . S
H1775 C1762 0.961 . S
H1776 C1762 0.961 . S
H1777 C1763 0.958 . S
H1778 C1763 0.961 . S
H1779 C1763 0.960 . S
C1780 C1781 1.391 . S
C1780 C1782 1.394 . S
C1780 H1796 0.931 . S
C1781 C1780 1.391 . S
C1781 C1785 1.376 . S
C1782 C1780 1.394 . S
C1782 C1783 1.369 . S
C1782 C1786 1.531 . S
C1783 C1782 1.369 . S
C1783 C1784 1.410 . S
C1783 C1791 1.503 . S
C1784 C1783 1.410 . S
C1784 C1785 1.392 . S
C1784 C1787 1.511 . S
C1785 C1781 1.376 . S
C1785 C1784 1.392 . S
C1785 H1797 0.929 . S
C1786 C1782 1.531 . S
C1786 H1798 0.960 1_565 S
C1786 H1799 0.962 . S
C1786 H1800 0.960 1_565 S
C1787 C1784 1.511 . S
C1787 H1801 0.961 . S
C1787 H1802 0.961 . S
C1787 H1803 0.961 . S
C1788 C1789 1.370 . S
C1788 C1790 1.363 . S
C1788 H1804 0.931 . S
C1789 C1788 1.370 . S
C1789 C1793 1.408 . S
C1790 C1788 1.363 . S
C1790 C1791 1.370 . S
C1790 C1794 1.524 . S
C1791 C1783 1.503 . S
C1791 C1790 1.370 . S
C1791 C1792 1.403 . S
C1792 C1791 1.403 . S
C1792 C1793 1.404 . S
C1792 C1795 1.539 1_565 S
C1793 C1789 1.408 . S
C1793 C1792 1.404 . S
C1793 H1805 0.930 1_565 S
C1794 C1790 1.524 . S
C1794 H1806 0.956 . S
C1794 H1807 0.961 . S
C1794 H1808 0.961 . S
C1795 C1792 1.539 1_545 S
C1795 H1809 0.958 . S
C1795 H1810 0.961 . S
C1795 H1811 0.960 . S
H1796 C1780 0.931 . S
H1797 C1785 0.929 . S
H1798 C1786 0.960 1_545 S
H1799 C1786 0.962 . S
H1800 C1786 0.960 1_545 S
H1801 C1787 0.961 . S
H1802 C1787 0.961 . S
H1803 C1787 0.961 . S
H1804 C1788 0.931 . S
H1805 C1793 0.930 1_545 S
H1806 C1794 0.956 . S
H1807 C1794 0.961 . S
H1808 C1794 0.961 . S
H1809 C1795 0.958 . S
H1810 C1795 0.961 . S
H1811 C1795 0.960 . S
C1812 C1813 1.391 . S
C1812 C1814 1.394 . S
C1812 H1828 0.931 . S
C1813 C1812 1.391 . S
C1813 C1817 1.376 . S
C1814 C1812 1.394 . S
C1814 C1815 1.369 . S
C1814 C1818 1.531 . S
C1815 C1814 1.369 . S
C1815 C1816 1.410 . S
C1815 C1823 1.503 . S
C1816 C1815 1.410 . S
C1816 C1817 1.392 . S
C1816 C1819 1.511 . S
C1817 C1813 1.376 . S
C1817 C1816 1.392 . S
C1817 H1829 0.929 . S
C1818 C1814 1.531 . S
C1818 H1830 0.960 . S
C1818 H1831 0.962 . S
C1818 H1832 0.960 . S
C1819 C1816 1.511 . S
C1819 H1833 0.961 . S
C1819 H1834 0.961 . S
C1819 H1835 0.961 . S
C1820 C1821 1.370 . S
C1820 C1822 1.363 . S
C1820 H1836 0.931 . S
C1821 C1820 1.370 . S
C1821 C1825 1.408 . S
C1822 C1820 1.363 . S
C1822 C1823 1.370 . S
C1822 C1826 1.524 . S
C1823 C1815 1.503 . S
C1823 C1822 1.370 . S
C1823 C1824 1.403 . S
C1824 C1823 1.403 . S
C1824 C1825 1.404 . S
C1824 C1827 1.539 . S
C1825 C1821 1.408 . S
C1825 C1824 1.404 . S
C1825 H1837 0.930 . S
C1826 C1822 1.524 . S
C1826 H1838 0.956 . S
C1826 H1839 0.961 . S
C1826 H1840 0.961 . S
C1827 C1824 1.539 . S
C1827 H1841 0.958 . S
C1827 H1842 0.961 . S
C1827 H1843 0.960 . S
H1828 C1812 0.931 . S
H1829 C1817 0.929 . S
H1830 C1818 0.960 . S
H1831 C1818 0.962 . S
H1832 C1818 0.960 . S
H1833 C1819 0.961 . S
H1834 C1819 0.961 . S
H1835 C1819 0.961 . S
H1836 C1820 0.931 . S
H1837 C1825 0.930 . S
H1838 C1826 0.956 . S
H1839 C1826 0.961 . S
H1840 C1826 0.961 . S
H1841 C1827 0.958 . S
H1842 C1827 0.961 . S
H1843 C1827 0.960 . S
C1844 C1845 1.391 . S
C1844 C1846 1.394 . S
C1844 H1860 0.931 . S
C1845 C1844 1.391 . S
C1845 C1849 1.376 . S
C1846 C1844 1.394 . S
C1846 C1847 1.369 . S
C1846 C1850 1.531 . S
C1847 C1846 1.369 . S
C1847 C1848 1.410 . S
C1847 C1855 1.503 . S
C1848 C1847 1.410 . S
C1848 C1849 1.392 . S
C1848 C1851 1.511 . S
C1849 C1845 1.376 . S
C1849 C1848 1.392 . S
C1849 H1861 0.929 . S
C1850 C1846 1.531 . S
C1850 H1862 0.960 . S
C1850 H1863 0.962 . S
C1850 H1864 0.960 . S
C1851 C1848 1.511 . S
C1851 H1865 0.961 . S
C1851 H1866 0.961 . S
C1851 H1867 0.961 . S
C1852 C1853 1.370 . S
C1852 C1854 1.363 . S
C1852 H1868 0.931 . S
C1853 C1852 1.370 . S
C1853 C1857 1.408 . S
C1854 C1852 1.363 . S
C1854 C1855 1.370 . S
C1854 C1858 1.524 1_554 S
C1855 C1847 1.503 . S
C1855 C1854 1.370 . S
C1855 C1856 1.403 . S
C1856 C1855 1.403 . S
C1856 C1857 1.404 . S
C1856 C1859 1.539 . S
C1857 C1853 1.408 . S
C1857 C1856 1.404 . S
C1857 H1869 0.930 . S
C1858 C1854 1.524 1_556 S
C1858 H1870 0.956 . S
C1858 H1871 0.961 1_556 S
C1858 H1872 0.961 . S
C1859 C1856 1.539 . S
C1859 H1873 0.958 . S
C1859 H1874 0.961 . S
C1859 H1875 0.960 . S
H1860 C1844 0.931 . S
H1861 C1849 0.929 . S
H1862 C1850 0.960 . S
H1863 C1850 0.962 . S
H1864 C1850 0.960 . S
H1865 C1851 0.961 . S
H1866 C1851 0.961 . S
H1867 C1851 0.961 . S
H1868 C1852 0.931 . S
H1869 C1857 0.930 . S
H1870 C1858 0.956 . S
H1871 C1858 0.961 1_554 S
H1872 C1858 0.961 . S
H1873 C1859 0.958 . S
H1874 C1859 0.961 . S
H1875 C1859 0.960 . S
C1876 C1877 1.391 . S
C1876 C1878 1.394 . S
C1876 H1892 0.931 . S
C1877 C1876 1.391 . S
C1877 C1881 1.376 . S
C1878 C1876 1.394 . S
C1878 C1879 1.369 . S
C1878 C1882 1.531 . S
C1879 C1878 1.369 . S
C1879 C1880 1.410 . S
C1879 C1887 1.503 . S
C1880 C1879 1.410 . S
C1880 C1881 1.392 . S
C1880 C1883 1.511 . S
C1881 C1877 1.376 . S
C1881 C1880 1.392 . S
C1881 H1893 0.929 . S
C1882 C1878 1.531 . S
C1882 H1894 0.960 . S
C1882 H1895 0.962 . S
C1882 H1896 0.960 . S
C1883 C1880 1.511 . S
C1883 H1897 0.961 . S
C1883 H1898 0.961 . S
C1883 H1899 0.961 . S
C1884 C1885 1.370 . S
C1884 C1886 1.363 . S
C1884 H1900 0.931 . S
C1885 C1884 1.370 . S
C1885 C1889 1.408 . S
C1886 C1884 1.363 . S
C1886 C1887 1.370 . S
C1886 C1890 1.524 . S
C1887 C1879 1.503 . S
C1887 C1886 1.370 . S
C1887 C1888 1.403 . S
C1888 C1887 1.403 . S
C1888 C1889 1.404 . S
C1888 C1891 1.539 . S
C1889 C1885 1.408 . S
C1889 C1888 1.404 . S
C1889 H1901 0.930 . S
C1890 C1886 1.524 . S
C1890 H1902 0.956 . S
C1890 H1903 0.961 . S
C1890 H1904 0.961 . S
C1891 C1888 1.539 . S
C1891 H1905 0.958 . S
C1891 H1906 0.961 . S
C1891 H1907 0.960 . S
H1892 C1876 0.931 . S
H1893 C1881 0.929 . S
H1894 C1882 0.960 . S
H1895 C1882 0.962 . S
H1896 C1882 0.960 . S
H1897 C1883 0.961 . S
H1898 C1883 0.961 . S
H1899 C1883 0.961 . S
H1900 C1884 0.931 . S
H1901 C1889 0.930 . S
H1902 C1890 0.956 . S
H1903 C1890 0.961 . S
H1904 C1890 0.961 . S
H1905 C1891 0.958 . S
H1906 C1891 0.961 . S
H1907 C1891 0.960 . S
C1908 C1909 1.391 . S
C1908 C1910 1.394 . S
C1908 H1924 0.931 . S
C1909 C1908 1.391 . S
C1909 C1913 1.376 . S
C1910 C1908 1.394 . S
C1910 C1911 1.369 . S
C1910 C1914 1.531 . S
C1911 C1910 1.369 . S
C1911 C1912 1.410 . S
C1911 C1919 1.503 . S
C1912 C1911 1.410 . S
C1912 C1913 1.392 . S
C1912 C1915 1.511 . S
C1913 C1909 1.376 . S
C1913 C1912 1.392 . S
C1913 H1925 0.929 . S
C1914 C1910 1.531 . S
C1914 H1926 0.960 . S
C1914 H1927 0.962 . S
C1914 H1928 0.960 . S
C1915 C1912 1.511 . S
C1915 H1929 0.961 . S
C1915 H1930 0.961 . S
C1915 H1931 0.961 . S
C1916 C1917 1.370 . S
C1916 C1918 1.363 . S
C1916 H1932 0.931 . S
C1917 C1916 1.370 . S
C1917 C1921 1.408 . S
C1918 C1916 1.363 . S
C1918 C1919 1.370 . S
C1918 C1922 1.524 . S
C1919 C1911 1.503 . S
C1919 C1918 1.370 . S
C1919 C1920 1.403 . S
C1920 C1919 1.403 . S
C1920 C1921 1.404 . S
C1920 C1923 1.539 . S
C1921 C1917 1.408 . S
C1921 C1920 1.404 . S
C1921 H1933 0.930 . S
C1922 C1918 1.524 . S
C1922 H1934 0.956 . S
C1922 H1935 0.961 . S
C1922 H1936 0.961 . S
C1923 C1920 1.539 . S
C1923 H1937 0.958 . S
C1923 H1938 0.961 . S
C1923 H1939 0.960 . S
H1924 C1908 0.931 . S
H1925 C1913 0.929 . S
H1926 C1914 0.960 . S
H1927 C1914 0.962 . S
H1928 C1914 0.960 . S
H1929 C1915 0.961 . S
H1930 C1915 0.961 . S
H1931 C1915 0.961 . S
H1932 C1916 0.931 . S
H1933 C1921 0.930 . S
H1934 C1922 0.956 . S
H1935 C1922 0.961 . S
H1936 C1922 0.961 . S
H1937 C1923 0.958 . S
H1938 C1923 0.961 . S
H1939 C1923 0.960 . S
C1940 C1941 1.391 . S
C1940 C1942 1.394 . S
C1940 H1956 0.931 . S
C1941 C1940 1.391 . S
C1941 C1945 1.376 . S
C1942 C1940 1.394 . S
C1942 C1943 1.369 . S
C1942 C1946 1.531 . S
C1943 C1942 1.369 . S
C1943 C1944 1.410 . S
C1943 C1951 1.503 . S
C1944 C1943 1.410 . S
C1944 C1945 1.392 . S
C1944 C1947 1.511 . S
C1945 C1941 1.376 . S
C1945 C1944 1.392 . S
C1945 H1957 0.929 . S
C1946 C1942 1.531 . S
C1946 H1958 0.960 . S
C1946 H1959 0.962 . S
C1946 H1960 0.960 . S
C1947 C1944 1.511 . S
C1947 H1961 0.961 . S
C1947 H1962 0.961 . S
C1947 H1963 0.961 . S
C1948 C1949 1.370 . S
C1948 C1950 1.363 . S
C1948 H1964 0.931 . S
C1949 C1948 1.370 . S
C1949 C1953 1.408 . S
C1950 C1948 1.363 . S
C1950 C1951 1.370 . S
C1950 C1954 1.524 . S
C1951 C1943 1.503 . S
C1951 C1950 1.370 . S
C1951 C1952 1.403 . S
C1952 C1951 1.403 . S
C1952 C1953 1.404 . S
C1952 C1955 1.539 . S
C1953 C1949 1.408 . S
C1953 C1952 1.404 . S
C1953 H1965 0.930 . S
C1954 C1950 1.524 . S
C1954 H1966 0.956 . S
C1954 H1967 0.961 . S
C1954 H1968 0.961 . S
C1955 C1952 1.539 . S
C1955 H1969 0.958 . S
C1955 H1970 0.961 . S
C1955 H1971 0.960 . S
H1956 C1940 0.931 . S
H1957 C1945 0.929 . S
H1958 C1946 0.960 . S
H1959 C1946 0.962 . S
H1960 C1946 0.960 . S
H1961 C1947 0.961 . S
H1962 C1947 0.961 . S
H1963 C1947 0.961 . S
H1964 C1948 0.931 . S
H1965 C1953 0.930 . S
H1966 C1954 0.956 . S
H1967 C1954 0.961 . S
H1968 C1954 0.961 . S
H1969 C1955 0.958 . S
H1970 C1955 0.961 . S
H1971 C1955 0.960 . S
C1972 C1973 1.391 . S
C1972 C1974 1.394 . S
C1972 H1988 0.931 . S
C1973 C1972 1.391 . S
C1973 C1977 1.376 . S
C1974 C1972 1.394 . S
C1974 C1975 1.369 . S
C1974 C1978 1.531 . S
C1975 C1974 1.369 . S
C1975 C1976 1.410 . S
C1975 C1983 1.503 . S
C1976 C1975 1.410 . S
C1976 C1977 1.392 . S
C1976 C1979 1.511 . S
C1977 C1973 1.376 . S
C1977 C1976 1.392 . S
C1977 H1989 0.929 . S
C1978 C1974 1.531 . S
C1978 H1990 0.960 . S
C1978 H1991 0.962 . S
C1978 H1992 0.960 . S
C1979 C1976 1.511 . S
C1979 H1993 0.961 . S
C1979 H1994 0.961 . S
C1979 H1995 0.961 . S
C1980 C1981 1.370 . S
C1980 C1982 1.363 . S
C1980 H1996 0.931 . S
C1981 C1980 1.370 . S
C1981 C1985 1.408 . S
C1982 C1980 1.363 . S
C1982 C1983 1.370 . S
C1982 C1986 1.524 . S
C1983 C1975 1.503 . S
C1983 C1982 1.370 . S
C1983 C1984 1.403 . S
C1984 C1983 1.403 . S
C1984 C1985 1.404 . S
C1984 C1987 1.539 . S
C1985 C1981 1.408 . S
C1985 C1984 1.404 . S
C1985 H1997 0.930 . S
C1986 C1982 1.524 . S
C1986 H1998 0.956 . S
C1986 H1999 0.961 . S
C1986 H2000 0.961 . S
C1987 C1984 1.539 . S
C1987 H2001 0.958 . S
C1987 H2002 0.961 . S
C1987 H2003 0.960 . S
H1988 C1972 0.931 . S
H1989 C1977 0.929 . S
H1990 C1978 0.960 . S
H1991 C1978 0.962 . S
H1992 C1978 0.960 . S
H1993 C1979 0.961 . S
H1994 C1979 0.961 . S
H1995 C1979 0.961 . S
H1996 C1980 0.931 . S
H1997 C1985 0.930 . S
H1998 C1986 0.956 . S
H1999 C1986 0.961 . S
H2000 C1986 0.961 . S
H2001 C1987 0.958 . S
H2002 C1987 0.961 . S
H2003 C1987 0.960 . S
C2004 C2005 1.391 . S
C2004 C2006 1.394 . S
C2004 H2020 0.931 . S
C2005 C2004 1.391 . S
C2005 C2009 1.376 . S
C2006 C2004 1.394 . S
C2006 C2007 1.369 . S
C2006 C2010 1.531 . S
C2007 C2006 1.369 . S
C2007 C2008 1.410 . S
C2007 C2015 1.503 . S
C2008 C2007 1.410 . S
C2008 C2009 1.392 . S
C2008 C2011 1.511 . S
C2009 C2005 1.376 . S
C2009 C2008 1.392 . S
C2009 H2021 0.929 . S
C2010 C2006 1.531 . S
C2010 H2022 0.960 . S
C2010 H2023 0.962 . S
C2010 H2024 0.960 . S
C2011 C2008 1.511 . S
C2011 H2025 0.961 . S
C2011 H2026 0.961 . S
C2011 H2027 0.961 . S
C2012 C2013 1.370 . S
C2012 C2014 1.363 . S
C2012 H2028 0.931 . S
C2013 C2012 1.370 . S
C2013 C2017 1.408 . S
C2014 C2012 1.363 . S
C2014 C2015 1.370 . S
C2014 C2018 1.524 . S
C2015 C2007 1.503 . S
C2015 C2014 1.370 . S
C2015 C2016 1.403 . S
C2016 C2015 1.403 . S
C2016 C2017 1.404 . S
C2016 C2019 1.539 . S
C2017 C2013 1.408 . S
C2017 C2016 1.404 . S
C2017 H2029 0.930 . S
C2018 C2014 1.524 . S
C2018 H2030 0.956 . S
C2018 H2031 0.961 . S
C2018 H2032 0.961 . S
C2019 C2016 1.539 . S
C2019 H2033 0.958 . S
C2019 H2034 0.961 . S
C2019 H2035 0.960 . S
H2020 C2004 0.931 . S
H2021 C2009 0.929 . S
H2022 C2010 0.960 . S
H2023 C2010 0.962 . S
H2024 C2010 0.960 . S
H2025 C2011 0.961 . S
H2026 C2011 0.961 . S
H2027 C2011 0.961 . S
H2028 C2012 0.931 . S
H2029 C2017 0.930 . S
H2030 C2018 0.956 . S
H2031 C2018 0.961 . S
H2032 C2018 0.961 . S
H2033 C2019 0.958 . S
H2034 C2019 0.961 . S
H2035 C2019 0.960 . S
C2036 C2037 1.391 . S
C2036 C2038 1.394 . S
C2036 H2052 0.931 . S
C2037 C2036 1.391 . S
C2037 C2041 1.376 . S
C2038 C2036 1.394 . S
C2038 C2039 1.369 . S
C2038 C2042 1.531 . S
C2039 C2038 1.369 . S
C2039 C2040 1.410 . S
C2039 C2047 1.503 . S
C2040 C2039 1.410 . S
C2040 C2041 1.392 . S
C2040 C2043 1.511 . S
C2041 C2037 1.376 . S
C2041 C2040 1.392 . S
C2041 H2053 0.929 . S
C2042 C2038 1.531 . S
C2042 H2054 0.960 . S
C2042 H2055 0.962 . S
C2042 H2056 0.960 . S
C2043 C2040 1.511 . S
C2043 H2057 0.961 . S
C2043 H2058 0.961 . S
C2043 H2059 0.961 . S
C2044 C2045 1.370 . S
C2044 C2046 1.363 . S
C2044 H2060 0.931 . S
C2045 C2044 1.370 . S
C2045 C2049 1.408 . S
C2046 C2044 1.363 . S
C2046 C2047 1.370 . S
C2046 C2050 1.524 . S
C2047 C2039 1.503 . S
C2047 C2046 1.370 . S
C2047 C2048 1.403 . S
C2048 C2047 1.403 . S
C2048 C2049 1.404 . S
C2048 C2051 1.539 . S
C2049 C2045 1.408 . S
C2049 C2048 1.404 . S
C2049 H2061 0.930 . S
C2050 C2046 1.524 . S
C2050 H2062 0.956 . S
C2050 H2063 0.961 . S
C2050 H2064 0.961 . S
C2051 C2048 1.539 . S
C2051 H2065 0.958 . S
C2051 H2066 0.961 . S
C2051 H2067 0.960 . S
H2052 C2036 0.931 . S
H2053 C2041 0.929 . S
H2054 C2042 0.960 . S
H2055 C2042 0.962 . S
H2056 C2042 0.960 . S
H2057 C2043 0.961 . S
H2058 C2043 0.961 . S
H2059 C2043 0.961 . S
H2060 C2044 0.931 . S
H2061 C2049 0.930 . S
H2062 C2050 0.956 . S
H2063 C2050 0.961 . S
H2064 C2050 0.961 . S
H2065 C2051 0.958 . S
H2066 C2051 0.961 . S
H2067 C2051 0.960 . S
C2068 C2069 1.391 . S
C2068 C2070 1.394 . S
C2068 H2084 0.931 . S
C2069 C2068 1.391 . S
C2069 C2073 1.376 . S
C2070 C2068 1.394 . S
C2070 C2071 1.369 . S
C2070 C2074 1.531 . S
C2071 C2070 1.369 . S
C2071 C2072 1.410 . S
C2071 C2079 1.503 . S
C2072 C2071 1.410 . S
C2072 C2073 1.392 . S
C2072 C2075 1.511 . S
C2073 C2069 1.376 . S
C2073 C2072 1.392 . S
C2073 H2085 0.929 . S
C2074 C2070 1.531 . S
C2074 H2086 0.960 . S
C2074 H2087 0.962 . S
C2074 H2088 0.960 . S
C2075 C2072 1.511 . S
C2075 H2089 0.961 . S
C2075 H2090 0.961 . S
C2075 H2091 0.961 . S
C2076 C2077 1.370 . S
C2076 C2078 1.363 . S
C2076 H2092 0.931 . S
C2077 C2076 1.370 . S
C2077 C2081 1.408 . S
C2078 C2076 1.363 . S
C2078 C2079 1.370 . S
C2078 C2082 1.524 . S
C2079 C2071 1.503 . S
C2079 C2078 1.370 . S
C2079 C2080 1.403 . S
C2080 C2079 1.403 . S
C2080 C2081 1.404 . S
C2080 C2083 1.539 . S
C2081 C2077 1.408 . S
C2081 C2080 1.404 . S
C2081 H2093 0.930 . S
C2082 C2078 1.524 . S
C2082 H2094 0.956 . S
C2082 H2095 0.961 . S
C2082 H2096 0.961 . S
C2083 C2080 1.539 . S
C2083 H2097 0.958 . S
C2083 H2098 0.961 . S
C2083 H2099 0.960 . S
H2084 C2068 0.931 . S
H2085 C2073 0.929 . S
H2086 C2074 0.960 . S
H2087 C2074 0.962 . S
H2088 C2074 0.960 . S
H2089 C2075 0.961 . S
H2090 C2075 0.961 . S
H2091 C2075 0.961 . S
H2092 C2076 0.931 . S
H2093 C2081 0.930 . S
H2094 C2082 0.956 . S
H2095 C2082 0.961 . S
H2096 C2082 0.961 . S
H2097 C2083 0.958 . S
H2098 C2083 0.961 . S
H2099 C2083 0.960 . S
C2100 C2101 1.391 . S
C2100 C2102 1.394 . S
C2100 H2116 0.931 . S
C2101 C2100 1.391 . S
C2101 C2105 1.376 . S
C2102 C2100 1.394 . S
C2102 C2103 1.369 . S
C2102 C2106 1.531 . S
C2103 C2102 1.369 . S
C2103 C2104 1.410 . S
C2103 C2111 1.503 . S
C2104 C2103 1.410 . S
C2104 C2105 1.392 . S
C2104 C2107 1.511 . S
C2105 C2101 1.376 . S
C2105 C2104 1.392 . S
C2105 H2117 0.929 . S
C2106 C2102 1.531 . S
C2106 H2118 0.960 . S
C2106 H2119 0.962 . S
C2106 H2120 0.960 . S
C2107 C2104 1.511 . S
C2107 H2121 0.961 . S
C2107 H2122 0.961 . S
C2107 H2123 0.961 . S
C2108 C2109 1.370 . S
C2108 C2110 1.363 . S
C2108 H2124 0.931 . S
C2109 C2108 1.370 . S
C2109 C2113 1.408 . S
C2110 C2108 1.363 . S
C2110 C2111 1.370 . S
C2110 C2114 1.524 . S
C2111 C2103 1.503 . S
C2111 C2110 1.370 . S
C2111 C2112 1.403 . S
C2112 C2111 1.403 . S
C2112 C2113 1.404 . S
C2112 C2115 1.539 . S
C2113 C2109 1.408 . S
C2113 C2112 1.404 . S
C2113 H2125 0.930 . S
C2114 C2110 1.524 . S
C2114 H2126 0.956 . S
C2114 H2127 0.961 . S
C2114 H2128 0.961 . S
C2115 C2112 1.539 . S
C2115 H2129 0.958 . S
C2115 H2130 0.961 . S
C2115 H2131 0.960 . S
H2116 C2100 0.931 . S
H2117 C2105 0.929 . S
H2118 C2106 0.960 . S
H2119 C2106 0.962 . S
H2120 C2106 0.960 . S
H2121 C2107 0.961 . S
H2122 C2107 0.961 . S
H2123 C2107 0.961 . S
H2124 C2108 0.931 . S
H2125 C2113 0.930 . S
H2126 C2114 0.956 . S
H2127 C2114 0.961 . S
H2128 C2114 0.961 . S
H2129 C2115 0.958 . S
H2130 C2115 0.961 . S
H2131 C2115 0.960 . S
C2132 C2133 1.391 . S
C2132 C2134 1.394 . S
C2132 H2148 0.930 1_565 S
C2133 C2132 1.391 . S
C2133 C2137 1.376 . S
C2134 C2132 1.394 . S
C2134 C2135 1.369 . S
C2134 C2138 1.529 1_565 S
C2135 C2134 1.369 . S
C2135 C2136 1.410 . S
C2135 C2143 1.503 . S
C2136 C2135 1.410 . S
C2136 C2137 1.392 . S
C2136 C2139 1.511 . S
C2137 C2133 1.376 . S
C2137 C2136 1.392 . S
C2137 H2149 0.929 . S
C2138 C2134 1.529 1_545 S
C2138 H2150 0.962 . S
C2138 H2151 0.954 1_545 S
C2138 H2152 0.967 . S
C2139 C2136 1.511 . S
C2139 H2153 0.961 . S
C2139 H2154 0.961 . S
C2139 H2155 0.961 . S
C2140 C2141 1.370 . S
C2140 C2142 1.363 . S
C2140 H2156 0.931 . S
C2141 C2140 1.370 . S
C2141 C2145 1.408 . S
C2142 C2140 1.363 . S
C2142 C2143 1.370 . S
C2142 C2146 1.524 . S
C2143 C2135 1.503 . S
C2143 C2142 1.370 . S
C2143 C2144 1.431 . S
C2144 C2143 1.431 . S
C2144 C2145 1.416 . S
C2144 C2147 1.500 1_565 S
C2145 C2141 1.408 . S
C2145 C2144 1.416 . S
C2145 H2157 0.930 1_565 S
C2146 C2142 1.524 . S
C2146 H2158 0.956 . S
C2146 H2159 0.961 . S
C2146 H2160 0.961 . S
C2147 C2144 1.500 1_545 S
C2147 H2161 0.958 . S
C2147 H2162 0.961 . S
C2147 H2163 0.960 . S
H2148 C2132 0.930 1_545 S
H2149 C2137 0.929 . S
H2150 C2138 0.962 . S
H2151 C2138 0.954 1_565 S
H2152 C2138 0.967 . S
H2153 C2139 0.961 . S
H2154 C2139 0.961 . S
H2155 C2139 0.961 . S
H2156 C2140 0.931 . S
H2157 C2145 0.930 1_545 S
H2158 C2146 0.956 . S
H2159 C2146 0.961 . S
H2160 C2146 0.961 . S
H2161 C2147 0.958 . S
H2162 C2147 0.961 . S
H2163 C2147 0.960 . S
C2164 C2165 1.391 . S
C2164 C2166 1.394 . S
C2164 H2180 0.931 . S
C2165 C2164 1.391 . S
C2165 C2169 1.376 . S
C2166 C2164 1.394 . S
C2166 C2167 1.369 . S
C2166 C2170 1.531 . S
C2167 C2166 1.369 . S
C2167 C2168 1.410 . S
C2167 C2175 1.503 . S
C2168 C2167 1.410 . S
C2168 C2169 1.392 . S
C2168 C2171 1.511 . S
C2169 C2165 1.376 . S
C2169 C2168 1.392 . S
C2169 H2181 0.929 . S
C2170 C2166 1.531 . S
C2170 H2182 0.960 . S
C2170 H2183 0.962 . S
C2170 H2184 0.960 . S
C2171 C2168 1.511 . S
C2171 H2185 0.961 . S
C2171 H2186 0.961 . S
C2171 H2187 0.961 . S
C2172 C2173 1.370 . S
C2172 C2174 1.363 . S
C2172 H2188 0.931 . S
C2173 C2172 1.370 . S
C2173 C2177 1.408 . S
C2174 C2172 1.363 . S
C2174 C2175 1.370 . S
C2174 C2178 1.524 . S
C2175 C2167 1.503 . S
C2175 C2174 1.370 . S
C2175 C2176 1.403 . S
C2176 C2175 1.403 . S
C2176 C2177 1.404 . S
C2176 C2179 1.539 . S
C2177 C2173 1.408 . S
C2177 C2176 1.404 . S
C2177 H2189 0.930 . S
C2178 C2174 1.524 . S
C2178 H2190 0.956 . S
C2178 H2191 0.961 . S
C2178 H2192 0.961 . S
C2179 C2176 1.539 . S
C2179 H2193 0.958 . S
C2179 H2194 0.961 . S
C2179 H2195 0.960 . S
H2180 C2164 0.931 . S
H2181 C2169 0.929 . S
H2182 C2170 0.960 . S
H2183 C2170 0.962 . S
H2184 C2170 0.960 . S
H2185 C2171 0.961 . S
H2186 C2171 0.961 . S
H2187 C2171 0.961 . S
H2188 C2172 0.931 . S
H2189 C2177 0.930 . S
H2190 C2178 0.956 . S
H2191 C2178 0.961 . S
H2192 C2178 0.961 . S
H2193 C2179 0.958 . S
H2194 C2179 0.961 . S
H2195 C2179 0.960 . S
C2196 C2197 1.391 . S
C2196 C2198 1.394 . S
C2196 H2212 0.931 . S
C2197 C2196 1.391 . S
C2197 C2201 1.376 . S
C2198 C2196 1.394 . S
C2198 C2199 1.369 . S
C2198 C2202 1.531 . S
C2199 C2198 1.369 . S
C2199 C2200 1.410 . S
C2199 C2207 1.503 . S
C2200 C2199 1.410 . S
C2200 C2201 1.392 . S
C2200 C2203 1.511 . S
C2201 C2197 1.376 . S
C2201 C2200 1.392 . S
C2201 H2213 0.929 . S
C2202 C2198 1.531 . S
C2202 H2214 0.960 . S
C2202 H2215 0.962 . S
C2202 H2216 0.960 . S
C2203 C2200 1.511 . S
C2203 H2217 0.961 . S
C2203 H2218 0.961 . S
C2203 H2219 0.961 . S
C2204 C2205 1.370 . S
C2204 C2206 1.363 . S
C2204 H2220 0.931 . S
C2205 C2204 1.370 . S
C2205 C2209 1.408 . S
C2206 C2204 1.363 . S
C2206 C2207 1.370 . S
C2206 C2210 1.524 . S
C2207 C2199 1.503 . S
C2207 C2206 1.370 . S
C2207 C2208 1.403 . S
C2208 C2207 1.403 . S
C2208 C2209 1.404 . S
C2208 C2211 1.539 1_545 S
C2209 C2205 1.408 . S
C2209 C2208 1.404 . S
C2209 H2221 0.930 . S
C2210 C2206 1.524 . S
C2210 H2222 0.956 . S
C2210 H2223 0.961 . S
C2210 H2224 0.961 . S
C2211 C2208 1.539 1_565 S
C2211 H2225 0.958 . S
C2211 H2226 0.961 . S
C2211 H2227 0.960 . S
H2212 C2196 0.931 . S
H2213 C2201 0.929 . S
H2214 C2202 0.960 . S
H2215 C2202 0.962 . S
H2216 C2202 0.960 . S
H2217 C2203 0.961 . S
H2218 C2203 0.961 . S
H2219 C2203 0.961 . S
H2220 C2204 0.931 . S
H2221 C2209 0.930 . S
H2222 C2210 0.956 . S
H2223 C2210 0.961 . S
H2224 C2210 0.961 . S
H2225 C2211 0.958 . S
H2226 C2211 0.961 . S
H2227 C2211 0.960 . S
C2228 C2229 1.391 . S
C2228 C2230 1.394 . S
C2228 H2244 0.931 . S
C2229 C2228 1.391 . S
C2229 C2233 1.376 . S
C2230 C2228 1.394 . S
C2230 C2231 1.369 . S
C2230 C2234 1.531 . S
C2231 C2230 1.369 . S
C2231 C2232 1.410 . S
C2231 C2239 1.503 . S
C2232 C2231 1.410 . S
C2232 C2233 1.392 . S
C2232 C2235 1.511 . S
C2233 C2229 1.376 . S
C2233 C2232 1.392 . S
C2233 H2245 0.929 . S
C2234 C2230 1.531 . S
C2234 H2246 0.960 . S
C2234 H2247 0.962 . S
C2234 H2248 0.960 . S
C2235 C2232 1.511 . S
C2235 H2249 0.961 . S
C2235 H2250 0.961 . S
C2235 H2251 0.961 . S
C2236 C2237 1.370 . S
C2236 C2238 1.363 . S
C2236 H2252 0.931 . S
C2237 C2236 1.370 . S
C2237 C2241 1.408 . S
C2238 C2236 1.363 . S
C2238 C2239 1.370 . S
C2238 C2242 1.524 . S
C2239 C2231 1.503 . S
C2239 C2238 1.370 . S
C2239 C2240 1.403 . S
C2240 C2239 1.403 . S
C2240 C2241 1.404 . S
C2240 C2243 1.539 . S
C2241 C2237 1.408 . S
C2241 C2240 1.404 . S
C2241 H2253 0.930 . S
C2242 C2238 1.524 . S
C2242 H2254 0.956 . S
C2242 H2255 0.961 . S
C2242 H2256 0.961 . S
C2243 C2240 1.539 . S
C2243 H2257 0.958 . S
C2243 H2258 0.961 . S
C2243 H2259 0.960 . S
H2244 C2228 0.931 . S
H2245 C2233 0.929 . S
H2246 C2234 0.960 . S
H2247 C2234 0.962 . S
H2248 C2234 0.960 . S
H2249 C2235 0.961 . S
H2250 C2235 0.961 . S
H2251 C2235 0.961 . S
H2252 C2236 0.931 . S
H2253 C2241 0.930 . S
H2254 C2242 0.956 . S
H2255 C2242 0.961 . S
H2256 C2242 0.961 . S
H2257 C2243 0.958 . S
H2258 C2243 0.961 . S
H2259 C2243 0.960 . S
C2260 C2261 1.391 1_554 S
C2260 C2262 1.394 . S
C2260 H2276 0.931 . S
C2261 C2260 1.391 1_556 S
C2261 C2265 1.376 . S
C2262 C2260 1.394 . S
C2262 C2263 1.369 1_554 S
C2262 C2266 1.531 . S
C2263 C2262 1.369 1_556 S
C2263 C2264 1.410 . S
C2263 C2271 1.503 . S
C2264 C2263 1.410 . S
C2264 C2265 1.392 . S
C2264 C2267 1.511 . S
C2265 C2261 1.376 . S
C2265 C2264 1.392 . S
C2265 H2277 0.929 . S
C2266 C2262 1.531 . S
C2266 H2278 0.960 . S
C2266 H2279 0.962 . S
C2266 H2280 0.960 . S
C2267 C2264 1.511 . S
C2267 H2281 0.961 . S
C2267 H2282 0.961 . S
C2267 H2283 0.961 . S
C2268 C2269 1.370 . S
C2268 C2270 1.363 . S
C2268 H2284 0.931 . S
C2269 C2268 1.370 . S
C2269 C2273 1.408 . S
C2270 C2268 1.363 . S
C2270 C2271 1.370 . S
C2270 C2274 1.524 . S
C2271 C2263 1.503 . S
C2271 C2270 1.370 . S
C2271 C2272 1.403 . S
C2272 C2271 1.403 . S
C2272 C2273 1.404 . S
C2272 C2275 1.539 . S
C2273 C2269 1.408 . S
C2273 C2272 1.404 . S
C2273 H2285 0.930 . S
C2274 C2270 1.524 . S
C2274 H2286 0.956 1_556 S
C2274 H2287 0.961 . S
C2274 H2288 0.961 . S
C2275 C2272 1.539 . S
C2275 H2289 0.958 . S
C2275 H2290 0.961 . S
C2275 H2291 0.960 . S
H2276 C2260 0.931 . S
H2277 C2265 0.929 . S
H2278 C2266 0.960 . S
H2279 C2266 0.962 . S
H2280 C2266 0.960 . S
H2281 C2267 0.961 . S
H2282 C2267 0.961 . S
H2283 C2267 0.961 . S
H2284 C2268 0.931 . S
H2285 C2273 0.930 . S
H2286 C2274 0.956 1_554 S
H2287 C2274 0.961 . S
H2288 C2274 0.961 . S
H2289 C2275 0.958 . S
H2290 C2275 0.961 . S
H2291 C2275 0.960 . S
C2292 C2293 1.391 . S
C2292 C2294 1.394 . S
C2292 H2308 0.931 . S
C2293 C2292 1.391 . S
C2293 C2297 1.376 . S
C2294 C2292 1.394 . S
C2294 C2295 1.369 . S
C2294 C2298 1.531 . S
C2295 C2294 1.369 . S
C2295 C2296 1.410 . S
C2295 C2303 1.503 . S
C2296 C2295 1.410 . S
C2296 C2297 1.392 . S
C2296 C2299 1.511 . S
C2297 C2293 1.376 . S
C2297 C2296 1.392 . S
C2297 H2309 0.929 . S
C2298 C2294 1.531 . S
C2298 H2310 0.960 . S
C2298 H2311 0.962 . S
C2298 H2312 0.960 . S
C2299 C2296 1.511 . S
C2299 H2313 0.961 . S
C2299 H2314 0.961 . S
C2299 H2315 0.961 . S
C2300 C2301 1.370 . S
C2300 C2302 1.362 1_556 S
C2300 H2316 0.931 1_556 S
C2301 C2300 1.370 . S
C2301 C2305 1.408 . S
C2302 C2300 1.362 1_554 S
C2302 C2303 1.361 1_554 S
C2302 C2306 1.534 . S
C2303 C2295 1.503 . S
C2303 C2302 1.361 1_556 S
C2303 C2304 1.403 . S
C2304 C2303 1.403 . S
C2304 C2305 1.404 . S
C2304 C2307 1.539 . S
C2305 C2301 1.408 . S
C2305 C2304 1.404 . S
C2305 H2317 0.930 . S
C2306 C2302 1.534 . S
C2306 H2318 0.956 . S
C2306 H2319 0.961 . S
C2306 H2320 0.961 . S
C2307 C2304 1.539 . S
C2307 H2321 0.958 . S
C2307 H2322 0.961 . S
C2307 H2323 0.960 . S
H2308 C2292 0.931 . S
H2309 C2297 0.929 . S
H2310 C2298 0.960 . S
H2311 C2298 0.962 . S
H2312 C2298 0.960 . S
H2313 C2299 0.961 . S
H2314 C2299 0.961 . S
H2315 C2299 0.961 . S
H2316 C2300 0.931 1_554 S
H2317 C2305 0.930 . S
H2318 C2306 0.956 . S
H2319 C2306 0.961 . S
H2320 C2306 0.961 . S
H2321 C2307 0.958 . S
H2322 C2307 0.961 . S
H2323 C2307 0.960 . S
C2324 C2325 1.391 1_556 S
C2324 C2326 1.395 . S
C2324 H2340 0.931 . S
C2325 C2324 1.391 1_554 S
C2325 C2329 1.376 . S
C2326 C2324 1.395 . S
C2326 C2327 1.349 1_556 S
C2326 C2330 1.551 . S
C2327 C2326 1.349 1_554 S
C2327 C2328 1.410 . S
C2327 C2335 1.503 . S
C2328 C2327 1.410 . S
C2328 C2329 1.392 . S
C2328 C2331 1.511 . S
C2329 C2325 1.376 . S
C2329 C2328 1.392 . S
C2329 H2341 0.929 . S
C2330 C2326 1.551 . S
C2330 H2342 0.960 . S
C2330 H2343 0.962 . S
C2330 H2344 0.960 . S
C2331 C2328 1.511 . S
C2331 H2345 0.961 . S
C2331 H2346 0.961 . S
C2331 H2347 0.961 . S
C2332 C2333 1.370 . S
C2332 C2334 1.363 . S
C2332 H2348 0.931 . S
C2333 C2332 1.370 . S
C2333 C2337 1.408 . S
C2334 C2332 1.363 . S
C2334 C2335 1.370 . S
C2334 C2338 1.524 . S
C2335 C2327 1.503 . S
C2335 C2334 1.370 . S
C2335 C2336 1.403 . S
C2336 C2335 1.403 . S
C2336 C2337 1.404 . S
C2336 C2339 1.539 1_554 S
C2337 C2333 1.408 . S
C2337 C2336 1.404 . S
C2337 H2349 0.930 . S
C2338 C2334 1.524 . S
C2338 H2350 0.956 . S
C2338 H2351 0.961 . S
C2338 H2352 0.961 . S
C2339 C2336 1.539 1_556 S
C2339 H2353 0.958 . S
C2339 H2354 0.961 . S
C2339 H2355 0.960 . S
H2340 C2324 0.931 . S
H2341 C2329 0.929 . S
H2342 C2330 0.960 . S
H2343 C2330 0.962 . S
H2344 C2330 0.960 . S
H2345 C2331 0.961 . S
H2346 C2331 0.961 . S
H2347 C2331 0.961 . S
H2348 C2332 0.931 . S
H2349 C2337 0.930 . S
H2350 C2338 0.956 . S
H2351 C2338 0.961 . S
H2352 C2338 0.961 . S
H2353 C2339 0.958 . S
H2354 C2339 0.961 . S
H2355 C2339 0.960 . S
C821 C22 1.676 . S
C829 C699 1.665 1_545 S
C861 C725 1.774 . S
C853 C38 1.791 . S
C893 C657 1.756 1_565 S
C885 C75 1.715 . S
C917 C91 1.505 . S
C925 C680 1.536 . S
C949 C128 1.628 . S
C957 C814 1.617 1_554 S
C981 C197 1.424 . S
C989 C795 1.453 . S
C1021 C748 1.828 . S
C1013 C144 1.838 . S
C1045 C181 1.755 . S
C1053 C771 1.749 . S
C1085 C676 1.803 . S
C1077 C234 1.821 . S
C1117 C726 1.578 . S
C1109 C303 1.559 . S
C1141 C356 1.710 . S
C1149 C702 1.687 . S
C1173 C287 1.823 . S
C1181 C768 1.838 . S
C1213 C791 1.620 . S
C1205 C393 1.613 . S
C1245 C817 1.840 1_565 S
C1237 C409 1.845 . S
C1269 C462 1.936 . S
C1277 C772 1.947 . S
C1309 C749 1.437 1_545 S
C1301 C446 1.426 . S
C1333 C499 1.637 . S
C1341 C722 1.612 . S
C1365 C552 1.420 . S
C1373 C703 1.441 . S
C1405 C679 1.698 . S
C1397 C515 1.724 . S
C1429 C568 1.979 . S
C1437 C656 1.989 . S
C1469 C745 1.888 . S
C1461 C340 1.857 . S
C1501 C818 1.473 . S
C1493 C621 1.462 . S
C1525 C250 1.598 . S
C1533 C794 1.582 . S
C1557 C605 1.772 . S
C1565 C653 1.771 1_655 S
C1597 C655 1.436 . S
C1589 C39 1.469 . S
C1621 C29 1.265 . S
C1629 C678 1.242 . S
C1661 C700 1.345 . S
C1653 C92 1.342 . S
C1693 C721 1.198 . S
C1685 C82 1.171 1_655 S
C1717 C145 1.525 . S
C1725 C652 1.555 . S
C1749 C188 1.232 . S
C1757 C675 1.267 . S
C1789 C701 1.314 . S
C1781 C135 1.309 . S
C1813 C198 1.420 . S
C1821 C723 1.484 . S
C1845 C251 1.353 . S
C1853 C654 1.379 . S
C1885 C698 1.216 . S
C1877 C294 1.167 . S
C1909 C347 1.338 . S
C1917 C724 1.283 . S
C1941 C304 1.351 . S
C1949 C746 1.386 . S
C1981 C770 1.425 . S
C1973 C410 1.442 . S
C2005 C400 1.303 . S
C2013 C747 1.257 . S
C2037 C453 1.076 . S
C2045 C792 1.078 . S
C2069 C463 1.507 . S
C2077 C813 1.504 . S
C2101 C516 1.503 . S
C2109 C767 1.539 . S
C2141 C744 1.566 . S
C2133 C569 1.552 . S
C2165 C506 1.242 . S
C2173 C793 1.236 . S
C2205 C815 1.240 . S
C2197 C559 1.215 . S
C2237 C769 1.346 . S
C2229 C357 1.373 . S
C2269 C790 1.223 . S
C2261 C612 1.180 . S
C2301 C816 1.238 . S
C2293 C241 1.282 1_556 S
C2325 C622 1.233 . S
C2333 C677 1.287 . S
