# Generated by pormake.
# Topology ctn, (3,4)-cn, num edge types: 1
# Building blocks:
#     Node 0, Type 0, BuildingBlock: OLANEW_clean_sbu_2, # of connection points: 3
#     Node 1, Type 0, BuildingBlock: OLANEW_clean_sbu_2, # of connection points: 3
#     Node 2, Type 0, BuildingBlock: OLANEW_clean_sbu_2, # of connection points: 3
#     Node 3, Type 0, BuildingBlock: OLANEW_clean_sbu_2, # of connection points: 3
#     Node 4, Type 0, BuildingBlock: OLANEW_clean_sbu_2, # of connection points: 3
#     Node 5, Type 0, BuildingBlock: OLANEW_clean_sbu_2, # of connection points: 3
#     Node 6, Type 0, BuildingBlock: OLANEW_clean_sbu_2, # of connection points: 3
#     Node 7, Type 0, BuildingBlock: OLANEW_clean_sbu_2, # of connection points: 3
#     Node 8, Type 0, BuildingBlock: OLANEW_clean_sbu_2, # of connection points: 3
#     Node 9, Type 0, BuildingBlock: OLANEW_clean_sbu_2, # of connection points: 3
#     Node 10, Type 0, BuildingBlock: OLANEW_clean_sbu_2, # of connection points: 3
#     Node 11, Type 0, BuildingBlock: OLANEW_clean_sbu_2, # of connection points: 3
#     Node 12, Type 0, BuildingBlock: OLANEW_clean_sbu_2, # of connection points: 3
#     Node 13, Type 0, BuildingBlock: OLANEW_clean_sbu_2, # of connection points: 3
#     Node 14, Type 0, BuildingBlock: OLANEW_clean_sbu_2, # of connection points: 3
#     Node 15, Type 0, BuildingBlock: OLANEW_clean_sbu_2, # of connection points: 3
#     Node 16, Type 1, BuildingBlock: QUQFOY_clean_sbu_1, # of connection points: 4
#     Node 17, Type 1, BuildingBlock: QUQFOY_clean_sbu_1, # of connection points: 4
#     Node 18, Type 1, BuildingBlock: QUQFOY_clean_sbu_1, # of connection points: 4
#     Node 19, Type 1, BuildingBlock: QUQFOY_clean_sbu_1, # of connection points: 4
#     Node 20, Type 1, BuildingBlock: QUQFOY_clean_sbu_1, # of connection points: 4
#     Node 21, Type 1, BuildingBlock: QUQFOY_clean_sbu_1, # of connection points: 4
#     Node 22, Type 1, BuildingBlock: QUQFOY_clean_sbu_1, # of connection points: 4
#     Node 23, Type 1, BuildingBlock: QUQFOY_clean_sbu_1, # of connection points: 4
#     Node 24, Type 1, BuildingBlock: QUQFOY_clean_sbu_1, # of connection points: 4
#     Node 25, Type 1, BuildingBlock: QUQFOY_clean_sbu_1, # of connection points: 4
#     Node 26, Type 1, BuildingBlock: QUQFOY_clean_sbu_1, # of connection points: 4
#     Node 27, Type 1, BuildingBlock: QUQFOY_clean_sbu_1, # of connection points: 4
#     Edge 28, Type (0, 1), BuildingBlock: TEMPAE_clean_linker_10, # of connection points: 2
#     Edge 29, Type (0, 1), BuildingBlock: TEMPAE_clean_linker_10, # of connection points: 2
#     Edge 30, Type (0, 1), BuildingBlock: TEMPAE_clean_linker_10, # of connection points: 2
#     Edge 31, Type (0, 1), BuildingBlock: TEMPAE_clean_linker_10, # of connection points: 2
#     Edge 32, Type (0, 1), BuildingBlock: TEMPAE_clean_linker_10, # of connection points: 2
#     Edge 33, Type (0, 1), BuildingBlock: TEMPAE_clean_linker_10, # of connection points: 2
#     Edge 34, Type (0, 1), BuildingBlock: TEMPAE_clean_linker_10, # of connection points: 2
#     Edge 35, Type (0, 1), BuildingBlock: TEMPAE_clean_linker_10, # of connection points: 2
#     Edge 36, Type (0, 1), BuildingBlock: TEMPAE_clean_linker_10, # of connection points: 2
#     Edge 37, Type (0, 1), BuildingBlock: TEMPAE_clean_linker_10, # of connection points: 2
#     Edge 38, Type (0, 1), BuildingBlock: TEMPAE_clean_linker_10, # of connection points: 2
#     Edge 39, Type (0, 1), BuildingBlock: TEMPAE_clean_linker_10, # of connection points: 2
#     Edge 40, Type (0, 1), BuildingBlock: TEMPAE_clean_linker_10, # of connection points: 2
#     Edge 41, Type (0, 1), BuildingBlock: TEMPAE_clean_linker_10, # of connection points: 2
#     Edge 42, Type (0, 1), BuildingBlock: TEMPAE_clean_linker_10, # of connection points: 2
#     Edge 43, Type (0, 1), BuildingBlock: TEMPAE_clean_linker_10, # of connection points: 2
#     Edge 44, Type (0, 1), BuildingBlock: TEMPAE_clean_linker_10, # of connection points: 2
#     Edge 45, Type (0, 1), BuildingBlock: TEMPAE_clean_linker_10, # of connection points: 2
#     Edge 46, Type (0, 1), BuildingBlock: TEMPAE_clean_linker_10, # of connection points: 2
#     Edge 47, Type (0, 1), BuildingBlock: TEMPAE_clean_linker_10, # of connection points: 2
#     Edge 48, Type (0, 1), BuildingBlock: TEMPAE_clean_linker_10, # of connection points: 2
#     Edge 49, Type (0, 1), BuildingBlock: TEMPAE_clean_linker_10, # of connection points: 2
#     Edge 50, Type (0, 1), BuildingBlock: TEMPAE_clean_linker_10, # of connection points: 2
#     Edge 51, Type (0, 1), BuildingBlock: TEMPAE_clean_linker_10, # of connection points: 2
#     Edge 52, Type (0, 1), BuildingBlock: TEMPAE_clean_linker_10, # of connection points: 2
#     Edge 53, Type (0, 1), BuildingBlock: TEMPAE_clean_linker_10, # of connection points: 2
#     Edge 54, Type (0, 1), BuildingBlock: TEMPAE_clean_linker_10, # of connection points: 2
#     Edge 55, Type (0, 1), BuildingBlock: TEMPAE_clean_linker_10, # of connection points: 2
#     Edge 56, Type (0, 1), BuildingBlock: TEMPAE_clean_linker_10, # of connection points: 2
#     Edge 57, Type (0, 1), BuildingBlock: TEMPAE_clean_linker_10, # of connection points: 2
#     Edge 58, Type (0, 1), BuildingBlock: TEMPAE_clean_linker_10, # of connection points: 2
#     Edge 59, Type (0, 1), BuildingBlock: TEMPAE_clean_linker_10, # of connection points: 2
#     Edge 60, Type (0, 1), BuildingBlock: TEMPAE_clean_linker_10, # of connection points: 2
#     Edge 61, Type (0, 1), BuildingBlock: TEMPAE_clean_linker_10, # of connection points: 2
#     Edge 62, Type (0, 1), BuildingBlock: TEMPAE_clean_linker_10, # of connection points: 2
#     Edge 63, Type (0, 1), BuildingBlock: TEMPAE_clean_linker_10, # of connection points: 2
#     Edge 64, Type (0, 1), BuildingBlock: TEMPAE_clean_linker_10, # of connection points: 2
#     Edge 65, Type (0, 1), BuildingBlock: TEMPAE_clean_linker_10, # of connection points: 2
#     Edge 66, Type (0, 1), BuildingBlock: TEMPAE_clean_linker_10, # of connection points: 2
#     Edge 67, Type (0, 1), BuildingBlock: TEMPAE_clean_linker_10, # of connection points: 2
#     Edge 68, Type (0, 1), BuildingBlock: TEMPAE_clean_linker_10, # of connection points: 2
#     Edge 69, Type (0, 1), BuildingBlock: TEMPAE_clean_linker_10, # of connection points: 2
#     Edge 70, Type (0, 1), BuildingBlock: TEMPAE_clean_linker_10, # of connection points: 2
#     Edge 71, Type (0, 1), BuildingBlock: TEMPAE_clean_linker_10, # of connection points: 2
#     Edge 72, Type (0, 1), BuildingBlock: TEMPAE_clean_linker_10, # of connection points: 2
#     Edge 73, Type (0, 1), BuildingBlock: TEMPAE_clean_linker_10, # of connection points: 2
#     Edge 74, Type (0, 1), BuildingBlock: TEMPAE_clean_linker_10, # of connection points: 2
#     Edge 75, Type (0, 1), BuildingBlock: TEMPAE_clean_linker_10, # of connection points: 2
# Relax obj value: 0.082
# Max RMSD: 0.185
# Mean RMSD: 0.126
data_MOF--net-ctn--node1-OLANEW_clean_sbu_2--node2-QUQFOY_clean_sbu_1--edge1-TEMPAE_clean_linker_10
_symmetry_space_group_name_H-M    P1
_symmetry_Int_Tables_number       1
_symmetry_cell_setting            triclinic
loop_
_symmetry_equiv_pos_as_xyz
'x, y, z'
_cell_length_a     58.325444
_cell_length_b     60.056978
_cell_length_c     56.568234
_cell_angle_alpha  94.117804
_cell_angle_beta   94.918375
_cell_angle_gamma 100.35314
loop_
_atom_site_label
_atom_site_type_symbol
_atom_site_fract_x
_atom_site_fract_y
_atom_site_fract_z
_atom_type_partial_charge
O0 O 0.05811 0.11223 0.04842 0.0
Cd1 Cd 0.06032 0.0854 0.07908 0.0
O2 O 0.0695 0.14176 0.07482 0.0
Cd3 Cd 0.06743 0.1219 0.10552 0.0
O4 O 0.04821 0.10908 0.13462 0.0
C5 C 0.02609 0.10723 0.13134 0.0
O6 O 0.01674 0.11245 0.11098 0.0
C7 C 0.06356 0.13367 0.05332 0.0
C8 C 0.08329 0.04957 0.06759 0.0
O9 O 0.06099 0.04719 0.06346 0.0
O10 O 0.0947 0.06896 0.07677 0.0
O11 O 0.32016 0.77476 0.26867 0.0
Cd12 Cd 0.28019 0.76891 0.24879 0.0
O13 O 0.30967 0.78886 0.30218 0.0
Cd14 Cd 0.27274 0.77703 0.29044 0.0
O15 O 0.24667 0.74577 0.28619 0.0
C16 C 0.25453 0.72774 0.28132 0.0
O17 O 0.27684 0.72946 0.27823 0.0
C18 C 0.32562 0.78389 0.2899 0.0
C19 C 0.27436 0.79835 0.21362 0.0
O20 O 0.27274 0.8043 0.23554 0.0
O21 O 0.27899 0.7786 0.20842 0.0
O22 O 0.90669 0.51386 0.16058 0.0
Cd23 Cd 0.86506 0.51261 0.14934 0.0
O24 O 0.91061 0.48748 0.13307 0.0
Cd25 Cd 0.92932 0.46345 0.11561 0.0
O26 O 0.94679 0.44041 0.09515 0.0
C27 C 0.93796 0.43333 0.07404 0.0
O28 O 0.91892 0.44013 0.06566 0.0
C29 C 0.91943 0.50151 0.15083 0.0
C30 C 0.85489 0.54731 0.12229 0.0
O31 O 0.86007 0.55097 0.14488 0.0
O32 O 0.85501 0.52744 0.11243 0.0
O33 O 0.76146 0.83354 0.26321 0.0
Cd34 Cd 0.7418 0.79377 0.26245 0.0
O35 O 0.73194 0.84692 0.24649 0.0
Cd36 Cd 0.70775 0.8158 0.25088 0.0
O37 O 0.68164 0.79904 0.27226 0.0
C38 C 0.68766 0.79929 0.29443 0.0
O39 O 0.70949 0.80777 0.30262 0.0
C40 C 0.75328 0.84997 0.25491 0.0
C41 C 0.73382 0.77162 0.21656 0.0
O42 O 0.71703 0.778 0.22678 0.0
O43 O 0.75429 0.77564 0.22795 0.0
O44 O 0.1534 0.95339 0.49746 0.0
Cd45 Cd 0.13396 0.91394 0.48776 0.0
O46 O 0.11955 0.96115 0.48457 0.0
Cd47 Cd 0.09407 0.98265 0.47579 0.0
O48 O 0.06653 0.99837 0.45941 0.0
C49 C 0.0461 0.98639 0.45514 0.0
O50 O 0.04239 0.96554 0.46155 0.0
C51 C 0.14087 0.96805 0.49266 0.0
C52 C 0.11208 0.89442 0.52509 0.0
O53 O 0.1323 0.89076 0.52054 0.0
O54 O 0.10238 0.90755 0.51224 0.0
O55 O 0.3061 0.7906 0.8636 0.0
Cd56 Cd 0.32473 0.77588 0.83012 0.0
O57 O 0.27251 0.78243 0.84147 0.0
Cd58 Cd 0.23573 0.78396 0.83213 0.0
O59 O 0.20091 0.78335 0.8143 0.0
C60 C 0.19695 0.77499 0.79274 0.0
O61 O 0.21379 0.7673 0.78261 0.0
C62 C 0.28426 0.79073 0.86107 0.0
C63 C 0.33808 0.73393 0.83506 0.0
O64 O 0.35188 0.75255 0.84302 0.0
O65 O 0.31777 0.73514 0.82516 0.0
O66 O 0.91861 0.55073 0.38095 0.0
Cd67 Cd 0.88036 0.55872 0.3888 0.0
O68 O 0.93046 0.56278 0.41808 0.0
Cd69 Cd 0.9535 0.57203 0.45113 0.0
O70 O 0.96164 0.58895 0.48705 0.0
C71 C 0.97928 0.60484 0.49236 0.0
O72 O 0.99373 0.61019 0.47619 0.0
C73 C 0.93501 0.5551 0.39782 0.0
C74 C 0.86203 0.53448 0.42519 0.0
O75 O 0.85822 0.52619 0.40339 0.0
O76 O 0.87467 0.55436 0.42986 0.0
O77 O 0.79718 0.81174 0.84666 0.0
Cd78 Cd 0.8078 0.83538 0.81444 0.0
O79 O 0.76296 0.82187 0.8429 0.0
Cd80 Cd 0.72829 0.82623 0.85221 0.0
O81 O 0.70227 0.84827 0.85422 0.0
C82 C 0.70749 0.86666 0.8444 0.0
O83 O 0.72704 0.87029 0.83413 0.0
C84 C 0.77676 0.81065 0.85325 0.0
C85 C 0.8404 0.81951 0.78757 0.0
O86 O 0.84699 0.83412 0.80563 0.0
O87 O 0.81837 0.81234 0.78231 0.0
O88 O 0.28574 0.32729 0.36791 0.0
Cd89 Cd 0.28748 0.35416 0.33731 0.0
O90 O 0.25313 0.30581 0.35083 0.0
Cd91 Cd 0.24639 0.33114 0.32652 0.0
O92 O 0.23145 0.35967 0.31417 0.0
C93 C 0.20993 0.35933 0.31661 0.0
O94 O 0.19789 0.34166 0.3253 0.0
C95 C 0.27017 0.30937 0.36709 0.0
C96 C 0.32019 0.34565 0.30616 0.0
O97 O 0.32616 0.35978 0.32468 0.0
O98 O 0.29866 0.33578 0.3022 0.0
O99 O 0.40345 0.98264 0.66514 0.0
Cd100 Cd 0.37303 0.98037 0.63218 0.0
O101 O 0.42147 0.96621 0.63863 0.0
Cd102 Cd 0.44929 0.95278 0.622 0.0
O103 O 0.46864 0.93307 0.59984 0.0
C104 C 0.46049 0.92839 0.57815 0.0
O105 O 0.44176 0.93615 0.57054 0.0
C106 C 0.42128 0.9746 0.65992 0.0
C107 C 0.36453 0.02252 0.61987 0.0
O108 O 0.35123 0.01063 0.63304 0.0
O109 O 0.38207 0.0147 0.61285 0.0
O110 O 0.26671 0.34221 0.78074 0.0
Cd111 Cd 0.23757 0.30698 0.77389 0.0
O112 O 0.24255 0.36191 0.76377 0.0
Cd113 Cd 0.21232 0.33478 0.76421 0.0
O114 O 0.18314 0.32018 0.78335 0.0
C115 C 0.18717 0.32156 0.80591 0.0
O116 O 0.20847 0.3302 0.81567 0.0
C117 C 0.26282 0.36084 0.77335 0.0
C118 C 0.24173 0.28242 0.73115 0.0
O119 O 0.2308 0.29912 0.73149 0.0
O120 O 0.25072 0.27726 0.75103 0.0
O121 O 0.80374 0.27561 0.78756 0.0
Cd122 Cd 0.7632 0.26908 0.76931 0.0
O123 O 0.81469 0.24913 0.76459 0.0
Cd124 Cd 0.77867 0.2344 0.75128 0.0
O125 O 0.75036 0.20689 0.75691 0.0
C126 C 0.75658 0.18832 0.76161 0.0
O127 O 0.77878 0.18685 0.76145 0.0
C128 C 0.81972 0.26537 0.78096 0.0
C129 C 0.75797 0.29494 0.73075 0.0
O130 O 0.75723 0.30326 0.75212 0.0
O131 O 0.76119 0.27442 0.72763 0.0
O132 O 0.55709 0.6071 0.55338 0.0
Cd133 Cd 0.55959 0.58175 0.58539 0.0
O134 O 0.56721 0.63765 0.57861 0.0
Cd135 Cd 0.5664 0.61929 0.61044 0.0
O136 O 0.55167 0.60742 0.64243 0.0
C137 C 0.52948 0.60212 0.64121 0.0
O138 O 0.51716 0.60338 0.62095 0.0
C139 C 0.56175 0.62866 0.55736 0.0
C140 C 0.58386 0.54654 0.5756 0.0
O141 O 0.56156 0.54358 0.57089 0.0
O142 O 0.59465 0.5662 0.58465 0.0
O143 O 0.65642 0.45496 0.00691 0.0
Cd144 Cd 0.65684 0.4173 0.02027 0.0
O145 O 0.62127 0.45545 0.01801 0.0
Cd146 Cd 0.59141 0.47271 0.01832 0.0
O147 O 0.56275 0.48677 0.00166 0.0
C148 C 0.56693 0.50582 0.99289 0.0
O149 O 0.58847 0.51746 0.99542 0.0
C150 C 0.63933 0.46514 0.00913 0.0
C151 C 0.62113 0.40334 0.04866 0.0
O152 O 0.64034 0.41616 0.05762 0.0
O153 O 0.61873 0.39732 0.02625 0.0
O154 O 0.78788 0.28622 0.35943 0.0
Cd155 Cd 0.80393 0.27335 0.32336 0.0
O156 O 0.75308 0.2799 0.33959 0.0
Cd157 Cd 0.71625 0.28276 0.33348 0.0
O158 O 0.68102 0.28517 0.31883 0.0
C159 C 0.67458 0.27682 0.29751 0.0
O160 O 0.6892 0.26714 0.28575 0.0
C161 C 0.76616 0.28681 0.35881 0.0
C162 C 0.81791 0.23136 0.32472 0.0
O163 O 0.832 0.24982 0.33265 0.0
O164 O 0.79709 0.23275 0.3165 0.0
O165 O 0.40649 0.08682 0.8871 0.0
Cd166 Cd 0.36826 0.09578 0.89322 0.0
O167 O 0.41679 0.10057 0.92401 0.0
Cd168 Cd 0.43776 0.11006 0.95825 0.0
O169 O 0.44306 0.12746 0.99401 0.0
C170 C 0.45935 0.14459 0.99959 0.0
O171 O 0.47408 0.1509 0.98394 0.0
C172 C 0.42203 0.09134 0.90478 0.0
C173 C 0.34789 0.06754 0.92563 0.0
O174 O 0.345 0.0616 0.9032 0.0
O175 O 0.36016 0.08716 0.93279 0.0
O176 O 0.24542 0.88303 0.01124 0.0
Cd177 Cd 0.25111 0.90766 0.0395 0.0
Cd178 Cd 0.21382 0.92072 0.01415 0.0
O179 O 0.21377 0.89148 0.99235 0.0
O180 O 0.27204 0.89631 0.06362 0.0
O181 O 0.23601 0.90052 0.0695 0.0
C182 C 0.25519 0.89423 0.07708 0.0
C183 C 0.17967 0.93305 0.02381 0.0
C184 C 0.22926 0.87906 0.99409 0.0
C185 C 0.26084 0.95274 0.01992 0.0
O186 O 0.23982 0.94777 0.01049 0.0
O187 O 0.26907 0.93937 0.03333 0.0
O188 O 0.18554 0.9325 0.00236 0.0
O189 O 0.19231 0.92481 0.03962 0.0
O190 O 0.15071 0.56565 0.30753 0.0
Cd191 Cd 0.12847 0.53606 0.31337 0.0
Cd192 Cd 0.10095 0.5487 0.27681 0.0
O193 O 0.13137 0.57118 0.2739 0.0
O194 O 0.14774 0.51641 0.32955 0.0
O195 O 0.12922 0.50723 0.29335 0.0
C196 C 0.14263 0.5022 0.3108 0.0
C197 C 0.07618 0.53565 0.24191 0.0
C198 C 0.14904 0.57669 0.2893 0.0
C199 C 0.0837 0.54784 0.32602 0.0
O200 O 0.08201 0.5542 0.30511 0.0
O201 O 0.10062 0.53846 0.333 0.0
O202 O 0.0801 0.55658 0.25034 0.0
O203 O 0.08724 0.52194 0.25277 0.0
O204 O 0.71969 0.69829 0.98608 0.0
Cd205 Cd 0.70914 0.67696 0.01176 0.0
Cd206 Cd 0.74855 0.65982 0.00128 0.0
O207 O 0.75194 0.68561 0.97877 0.0
O208 O 0.69335 0.69374 0.03544 0.0
O209 O 0.7272 0.68269 0.0438 0.0
C210 C 0.7109 0.69283 0.05068 0.0
C211 C 0.7793 0.65254 0.02688 0.0
C212 C 0.73789 0.69921 0.97505 0.0
C213 C 0.70122 0.62779 0.9953 0.0
O214 O 0.72303 0.63132 0.99301 0.0
O215 O 0.69136 0.64394 0.00242 0.0
O216 O 0.77854 0.64795 0.00416 0.0
O217 O 0.76361 0.66293 0.03483 0.0
O218 O 0.92734 0.02691 0.31812 0.0
Cd219 Cd 0.90606 0.0312 0.28842 0.0
Cd220 Cd 0.8799 0.04384 0.32244 0.0
O221 O 0.90723 0.03907 0.346 0.0
O222 O 0.92562 0.02646 0.26208 0.0
O223 O 0.91443 0.05907 0.27072 0.0
C224 C 0.92582 0.04722 0.25771 0.0
C225 C 0.86931 0.07936 0.32264 0.0
C226 C 0.92501 0.03138 0.33999 0.0
C227 C 0.8579 0.00307 0.28957 0.0
O228 O 0.85591 0.01547 0.30818 0.0
O229 O 0.87614 0.00719 0.27866 0.0
O230 O 0.86293 0.06562 0.33841 0.0
O231 O 0.88184 0.07283 0.30665 0.0
O232 O 0.24952 0.19824 0.50728 0.0
Cd233 Cd 0.24302 0.17734 0.53453 0.0
Cd234 Cd 0.27619 0.15837 0.51581 0.0
O235 O 0.28091 0.18618 0.49629 0.0
O236 O 0.22611 0.19304 0.55777 0.0
O237 O 0.26203 0.18667 0.56616 0.0
C238 C 0.24439 0.19491 0.57284 0.0
C239 C 0.30588 0.14532 0.53758 0.0
C240 C 0.26657 0.19976 0.49448 0.0
C241 C 0.22876 0.12937 0.5131 0.0
O242 O 0.24849 0.13246 0.50477 0.0
O243 O 0.22342 0.14485 0.52692 0.0
O244 O 0.30354 0.14299 0.5146 0.0
O245 O 0.29257 0.15699 0.54821 0.0
O246 O 0.45139 0.53291 0.84589 0.0
Cd247 Cd 0.4301 0.53365 0.81504 0.0
Cd248 Cd 0.40233 0.54814 0.84665 0.0
O249 O 0.42952 0.54578 0.87165 0.0
O250 O 0.4502 0.52858 0.78926 0.0
O251 O 0.43616 0.56013 0.79501 0.0
C252 C 0.44843 0.54842 0.78294 0.0
C253 C 0.39053 0.58298 0.84395 0.0
C254 C 0.44811 0.5387 0.86721 0.0
C255 C 0.38234 0.50482 0.81668 0.0
O256 O 0.37919 0.51871 0.8336 0.0
O257 O 0.4012 0.50814 0.80669 0.0
O258 O 0.38415 0.57009 0.86043 0.0
O259 O 0.40371 0.57598 0.82887 0.0
O260 O 0.73911 0.37164 0.51917 0.0
Cd261 Cd 0.74796 0.3957 0.5479 0.0
Cd262 Cd 0.71419 0.41454 0.52415 0.0
O263 O 0.7103 0.38543 0.50114 0.0
O264 O 0.76602 0.38135 0.57202 0.0
O265 O 0.73198 0.39105 0.57786 0.0
C266 C 0.74942 0.38207 0.58553 0.0
C267 C 0.68198 0.43046 0.53382 0.0
C268 C 0.72323 0.37049 0.50203 0.0
C269 C 0.76426 0.4404 0.52943 0.0
O270 O 0.74311 0.43882 0.52092 0.0
O271 O 0.7702 0.42522 0.54192 0.0
O272 O 0.68846 0.43006 0.51263 0.0
O273 O 0.69301 0.42051 0.54945 0.0
O274 O 0.63752 0.05919 0.83663 0.0
Cd275 Cd 0.61293 0.03401 0.8482 0.0
Cd276 Cd 0.58813 0.03876 0.80779 0.0
O277 O 0.62034 0.05494 0.79999 0.0
O278 O 0.62946 0.01425 0.86759 0.0
O279 O 0.60982 0.00263 0.83224 0.0
C280 C 0.62282 0.99838 0.85044 0.0
C281 C 0.56288 0.0178 0.77655 0.0
C282 C 0.63762 0.06363 0.815 0.0
C283 C 0.57079 0.0534 0.85411 0.0
O284 O 0.5707 0.05508 0.83184 0.0
O285 O 0.58543 0.04329 0.8648 0.0
O286 O 0.56883 0.03954 0.77731 0.0
O287 O 0.57184 0.00756 0.79332 0.0
O288 O 0.98857 0.30197 0.96334 0.0
Cd289 Cd 0.9911 0.27619 0.93805 0.0
Cd290 Cd 0.01294 0.31063 0.91652 0.0
O291 O 0.0097 0.33003 0.94725 0.0
O292 O 0.9851 0.24781 0.95453 0.0
O293 O 0.01887 0.26055 0.94068 0.0
C294 C 0.00633 0.24556 0.95185 0.0
C295 C 0.04895 0.31167 0.90144 0.0
C296 C 0.99786 0.32287 0.96394 0.0
C297 C 0.96749 0.28504 0.89156 0.0
O298 O 0.98388 0.3022 0.89203 0.0
O299 O 0.96752 0.27157 0.90791 0.0
O300 O 0.03778 0.32828 0.89975 0.0
O301 O 0.03992 0.29464 0.9125 0.0
O302 O 0.49804 0.79585 0.46079 0.0
Cd303 Cd 0.49813 0.76986 0.43485 0.0
Cd304 Cd 0.52314 0.80308 0.41463 0.0
O305 O 0.5228 0.82227 0.44624 0.0
O306 O 0.48963 0.74137 0.45071 0.0
O307 O 0.52408 0.75189 0.43728 0.0
C308 C 0.51043 0.73764 0.44825 0.0
C309 C 0.55797 0.80029 0.39852 0.0
C310 C 0.50994 0.81593 0.46245 0.0
C311 C 0.47602 0.78253 0.38948 0.0
O312 O 0.4936 0.79865 0.39084 0.0
O313 O 0.47489 0.76786 0.40469 0.0
O314 O 0.54925 0.81854 0.39787 0.0
O315 O 0.54717 0.78373 0.40909 0.0
O316 O 0.9721 0.75403 0.69526 0.0
Cd317 Cd 0.00022 0.74426 0.6802 0.0
Cd318 Cd 0.98793 0.77 0.64569 0.0
O319 O 0.96415 0.77737 0.66863 0.0
O320 O 0.02115 0.7354 0.70609 0.0
O321 O 0.03142 0.76515 0.68574 0.0
C322 C 0.03673 0.75255 0.70219 0.0
C323 C 0.01117 0.79908 0.6288 0.0
C324 C 0.96017 0.76838 0.68791 0.0
C325 C 0.98672 0.72033 0.63164 0.0
O326 O 0.98188 0.73908 0.6257 0.0
O327 O 0.99486 0.71863 0.65286 0.0
O328 O 0.98938 0.79223 0.62119 0.0
O329 O 0.01963 0.79001 0.64681 0.0
O330 O 0.45214 0.28789 0.20843 0.0
Cd331 Cd 0.47895 0.27663 0.19221 0.0
Cd332 Cd 0.4676 0.30474 0.15925 0.0
O333 O 0.44559 0.31333 0.18366 0.0
O334 O 0.49753 0.26309 0.21678 0.0
O335 O 0.51177 0.294 0.19985 0.0
C336 C 0.51496 0.27915 0.2146 0.0
C337 C 0.49701 0.33113 0.1463 0.0
C338 C 0.44132 0.30355 0.20243 0.0
C339 C 0.46265 0.25578 0.14213 0.0
O340 O 0.458 0.27496 0.13742 0.0
O341 O 0.47168 0.25312 0.16276 0.0
O342 O 0.47535 0.3299 0.13836 0.0
O343 O 0.50172 0.3181 0.16252 0.0
C344 C 0.25048 0.79267 0.88521 0.0
C345 C 0.27323 0.8017 0.88015 0.0
C346 C 0.24011 0.80303 0.90354 0.0
C347 C 0.2527 0.82306 0.91678 0.0
C348 C 0.27562 0.8323 0.91154 0.0
C349 C 0.2857 0.82134 0.8935 0.0
C350 C 0.2159 0.79236 0.90902 0.0
C351 C 0.28952 0.85384 0.92495 0.0
C352 C 0.22356 0.8651 0.95095 0.0
C353 C 0.23065 0.86178 0.97454 0.0
C354 C 0.2295 0.85174 0.93181 0.0
C355 C 0.24235 0.83436 0.93646 0.0
C356 C 0.24777 0.82972 0.96028 0.0
C357 C 0.24212 0.84368 0.97904 0.0
C358 C 0.22367 0.85746 0.90671 0.0
C359 C 0.26087 0.81095 0.96601 0.0
H360 H 0.24102 0.77719 0.87523 0.0
H361 H 0.30326 0.82837 0.88953 0.0
H362 H 0.21664 0.78745 0.92757 0.0
H363 H 0.20401 0.8048 0.90774 0.0
H364 H 0.20826 0.77704 0.89676 0.0
H365 H 0.30668 0.85933 0.91797 0.0
H366 H 0.27941 0.86778 0.92378 0.0
H367 H 0.29273 0.85124 0.94407 0.0
H368 H 0.21483 0.87917 0.94737 0.0
H369 H 0.24747 0.84095 0.99728 0.0
H370 H 0.21591 0.84186 0.89497 0.0
H371 H 0.24 0.86529 0.89944 0.0
H372 H 0.21129 0.86951 0.90593 0.0
H373 H 0.25329 0.79512 0.95455 0.0
H374 H 0.26055 0.80731 0.98497 0.0
H375 H 0.2794 0.81595 0.96239 0.0
C376 C 0.97869 0.56683 0.40454 0.0
C377 C 0.95883 0.55204 0.39316 0.0
C378 C 0.00107 0.56606 0.39744 0.0
C379 C 0.00351 0.55016 0.37851 0.0
C380 C 0.98366 0.53431 0.36799 0.0
C381 C 0.96156 0.53555 0.37535 0.0
C382 C 0.02179 0.58325 0.40908 0.0
C383 C 0.9855 0.51695 0.34789 0.0
C384 C 0.04886 0.5643 0.33529 0.0
C385 C 0.06497 0.55045 0.34154 0.0
C386 C 0.02945 0.56522 0.34802 0.0
C387 C 0.02592 0.55184 0.36747 0.0
C388 C 0.04269 0.53866 0.37464 0.0
C389 C 0.06211 0.53816 0.36161 0.0
C390 C 0.0121 0.57969 0.3399 0.0
C391 C 0.03953 0.52423 0.39531 0.0
H392 H 0.97664 0.57993 0.41796 0.0
H393 H 0.94624 0.524 0.36662 0.0
H394 H 0.0371 0.57505 0.41304 0.0
H395 H 0.02688 0.59636 0.39667 0.0
H396 H 0.01776 0.59186 0.42586 0.0
H397 H 0.96898 0.50433 0.34346 0.0
H398 H 0.98966 0.52569 0.33173 0.0
H399 H -9e-05 0.50777 0.35259 0.0
H400 H 0.05108 0.57408 0.31999 0.0
H401 H 0.07452 0.52745 0.36658 0.0
H402 H 0.00858 0.59084 0.35513 0.0
H403 H 0.99522 0.5686 0.33283 0.0
H404 H 0.01839 0.59049 0.32576 0.0
H405 H 0.03521 0.53426 0.411 0.0
H406 H 0.05543 0.51722 0.40047 0.0
H407 H 0.02465 0.50985 0.39039 0.0
C408 C 0.74705 0.7832 0.87095 0.0
C409 C 0.76954 0.79653 0.87257 0.0
C410 C 0.74095 0.76774 0.88788 0.0
C411 C 0.75754 0.76612 0.9072 0.0
C412 C 0.77993 0.78033 0.90944 0.0
C413 C 0.7858 0.79507 0.89184 0.0
C414 C 0.71714 0.75244 0.88452 0.0
C415 C 0.79786 0.77964 0.93015 0.0
C416 C 0.73581 0.73735 0.96096 0.0
C417 C 0.74269 0.71624 0.95764 0.0
C418 C 0.74067 0.75385 0.94478 0.0
C419 C 0.75199 0.7488 0.92444 0.0
C420 C 0.75852 0.7273 0.92078 0.0
C421 C 0.75413 0.71141 0.93764 0.0
C422 C 0.7341 0.77682 0.9497 0.0
C423 C 0.77007 0.72103 0.89899 0.0
H424 H 0.73461 0.78409 0.85582 0.0
H425 H 0.80318 0.80547 0.89311 0.0
H426 H 0.71924 0.73446 0.88175 0.0
H427 H 0.70791 0.75404 0.90072 0.0
H428 H 0.70597 0.75636 0.86903 0.0
H429 H 0.81358 0.79323 0.93043 0.0
H430 H 0.79005 0.78149 0.94722 0.0
H431 H 0.80354 0.76296 0.92912 0.0
H432 H 0.7271 0.74117 0.97653 0.0
H433 H 0.75928 0.69501 0.93494 0.0
H434 H 0.72201 0.78025 0.93474 0.0
H435 H 0.75 0.79032 0.95105 0.0
H436 H 0.72556 0.77811 0.96643 0.0
H437 H 0.75917 0.72337 0.88262 0.0
H438 H 0.77283 0.70317 0.89812 0.0
H439 H 0.7873 0.73241 0.89901 0.0
C440 C 0.00564 0.9807 0.43432 0.0
C441 C 0.02731 0.995 0.44133 0.0
C442 C 0.98842 0.98782 0.41937 0.0
C443 C 0.99294 0.00981 0.41132 0.0
C444 C 0.01437 0.0247 0.41915 0.0
C445 C 0.03134 0.01709 0.43402 0.0
C446 C 0.96579 0.97144 0.41138 0.0
C447 C 0.01974 0.04833 0.41107 0.0
C448 C 0.96154 0.01686 0.35164 0.0
C449 C 0.94287 0.0269 0.3584 0.0
C450 C 0.97809 0.01154 0.36871 0.0
C451 C 0.97606 0.01647 0.39319 0.0
C452 C 0.95757 0.02702 0.4002 0.0
C453 C 0.94114 0.03207 0.38271 0.0
C454 C 0.99754 0.00024 0.36052 0.0
C455 C 0.95496 0.03264 0.42616 0.0
H456 H 0.00232 0.96364 0.43995 0.0
H457 H 0.04798 0.02831 0.43948 0.0
H458 H 0.95058 0.97953 0.41474 0.0
H459 H 0.96471 0.96685 0.39191 0.0
H460 H 0.96429 0.95558 0.42058 0.0
H461 H 0.03621 0.0585 0.42047 0.0
H462 H 0.02145 0.04724 0.39165 0.0
H463 H 0.00517 0.05746 0.41409 0.0
H464 H 0.96308 0.01281 0.33293 0.0
H465 H 0.92682 0.03989 0.38811 0.0
H466 H 0.99627 0.98328 0.36745 0.0
H467 H 0.01482 0.01047 0.36773 0.0
H468 H 0.99695 0.99803 0.34079 0.0
H469 H 0.95183 0.01678 0.43528 0.0
H470 H 0.94026 0.04178 0.42863 0.0
H471 H 0.97138 0.04331 0.43506 0.0
C472 C 0.24171 0.27932 0.68688 0.0
C473 C 0.24368 0.26937 0.70845 0.0
C474 C 0.24312 0.26706 0.66514 0.0
C475 C 0.24593 0.24411 0.66492 0.0
C476 C 0.24799 0.23399 0.68667 0.0
C477 C 0.24714 0.24685 0.70822 0.0
C478 C 0.2414 0.27863 0.64238 0.0
C479 C 0.25043 0.20942 0.68712 0.0
C480 C 0.22408 0.20786 0.60685 0.0
C481 C 0.24504 0.20649 0.59691 0.0
C482 C 0.2242 0.21946 0.6293 0.0
C483 C 0.24578 0.2305 0.64182 0.0
C484 C 0.26703 0.22908 0.63191 0.0
C485 C 0.26642 0.21682 0.60968 0.0
C486 C 0.2012 0.22009 0.6395 0.0
C487 C 0.29033 0.24105 0.64448 0.0
H488 H 0.23924 0.29679 0.68701 0.0
H489 H 0.24855 0.23907 0.72487 0.0
H490 H 0.25661 0.27698 0.63231 0.0
H491 H 0.22538 0.27026 0.63086 0.0
H492 H 0.24079 0.29696 0.64575 0.0
H493 H 0.25219 0.2042 0.70554 0.0
H494 H 0.23487 0.19833 0.67705 0.0
H495 H 0.26597 0.20643 0.67824 0.0
H496 H 0.20753 0.19973 0.5971 0.0
H497 H 0.28264 0.2159 0.60195 0.0
H498 H 0.19817 0.23782 0.64125 0.0
H499 H 0.20175 0.21409 0.6576 0.0
H500 H 0.18612 0.20942 0.62821 0.0
H501 H 0.29068 0.25963 0.64667 0.0
H502 H 0.30527 0.23797 0.63458 0.0
H503 H 0.29281 0.23532 0.66256 0.0
C504 C 0.53028 0.59682 0.68479 0.0
C505 C 0.51757 0.59514 0.66232 0.0
C506 C 0.51909 0.59034 0.7049 0.0
C507 C 0.49467 0.58178 0.70242 0.0
C508 C 0.48173 0.58019 0.67983 0.0
C509 C 0.49332 0.58696 0.66007 0.0
C510 C 0.53343 0.59242 0.72875 0.0
C511 C 0.4557 0.57094 0.67644 0.0
C512 C 0.47042 0.54274 0.74776 0.0
C513 C 0.46014 0.55721 0.7624 0.0
C514 C 0.48164 0.55055 0.72819 0.0
C515 C 0.48283 0.57345 0.72321 0.0
C516 C 0.47258 0.58821 0.73795 0.0
C517 C 0.46124 0.57987 0.75734 0.0
C518 C 0.49214 0.53422 0.71275 0.0
C519 C 0.47368 0.61279 0.73327 0.0
H520 H 0.54899 0.60326 0.6867 0.0
H521 H 0.48337 0.58561 0.64278 0.0
H522 H 0.52591 0.60272 0.74208 0.0
H523 H 0.53286 0.57534 0.73523 0.0
H524 H 0.55203 0.60038 0.72789 0.0
H525 H 0.44808 0.57143 0.65785 0.0
H526 H 0.45222 0.5531 0.68111 0.0
H527 H 0.44652 0.58086 0.68856 0.0
H528 H 0.46957 0.52517 0.75149 0.0
H529 H 0.45339 0.59114 0.76862 0.0
H530 H 0.5112 0.54059 0.71264 0.0
H531 H 0.48411 0.53303 0.69409 0.0
H532 H 0.48957 0.5169 0.71897 0.0
H533 H 0.49221 0.62144 0.73364 0.0
H534 H 0.46508 0.6221 0.74655 0.0
H535 H 0.46504 0.61388 0.71525 0.0
C536 C 0.75128 0.29819 0.68696 0.0
C537 C 0.75536 0.30867 0.71028 0.0
C538 C 0.74923 0.311 0.66734 0.0
C539 C 0.75168 0.33492 0.6711 0.0
C540 C 0.75559 0.34559 0.69461 0.0
C541 C 0.75721 0.33231 0.71394 0.0
C542 C 0.74475 0.29895 0.64256 0.0
C543 C 0.75864 0.37107 0.69932 0.0
C544 C 0.77129 0.36715 0.61885 0.0
C545 C 0.75015 0.37191 0.6086 0.0
C546 C 0.77214 0.35584 0.63966 0.0
C547 C 0.75126 0.34877 0.65031 0.0
C548 C 0.72992 0.354 0.64039 0.0
C549 C 0.72966 0.36569 0.61973 0.0
C550 C 0.79531 0.35094 0.64991 0.0
C551 C 0.70726 0.34652 0.65108 0.0
H552 H 0.74965 0.27992 0.68401 0.0
H553 H 0.76043 0.34053 0.73192 0.0
H554 H 0.72911 0.30353 0.63292 0.0
H555 H 0.75986 0.30446 0.63234 0.0
H556 H 0.74194 0.28018 0.64274 0.0
H557 H 0.76076 0.37667 0.71866 0.0
H558 H 0.7743 0.37938 0.69126 0.0
H559 H 0.74331 0.37713 0.69085 0.0
H560 H 0.78723 0.37206 0.61044 0.0
H561 H 0.71325 0.36924 0.61182 0.0
H562 H 0.79472 0.33233 0.64866 0.0
H563 H 0.79874 0.35718 0.66905 0.0
H564 H 0.81017 0.35897 0.64048 0.0
H565 H 0.70291 0.32768 0.64979 0.0
H566 H 0.69241 0.35293 0.64199 0.0
H567 H 0.70913 0.35256 0.67027 0.0
C568 C 0.44503 0.99308 0.69723 0.0
C569 C 0.4417 0.97646 0.67791 0.0
C570 C 0.46508 0.99643 0.71356 0.0
C571 C 0.48238 0.98299 0.71036 0.0
C572 C 0.47865 0.96548 0.69157 0.0
C573 C 0.45814 0.96219 0.67579 0.0
C574 C 0.46816 0.01498 0.7337 0.0
C575 C 0.49668 0.95081 0.68759 0.0
C576 C 0.54237 0.01448 0.73584 0.0
C577 C 0.5448 0.00568 0.75798 0.0
C578 C 0.52285 0.00601 0.71941 0.0
C579 C 0.50507 0.9887 0.72557 0.0
C580 C 0.50809 0.97884 0.74737 0.0
C581 C 0.52814 0.98733 0.76328 0.0
C582 C 0.5206 0.01659 0.6961 0.0
C583 C 0.48939 0.96059 0.75473 0.0
H584 H 0.43225 0.00398 0.69923 0.0
H585 H 0.45506 0.94842 0.66186 0.0
H586 H 0.47265 0.00826 0.75091 0.0
H587 H 0.48286 0.02876 0.73093 0.0
H588 H 0.45215 0.02243 0.73501 0.0
H589 H 0.49049 0.93701 0.67309 0.0
H590 H 0.51297 0.96147 0.68289 0.0
H591 H 0.5013 0.94311 0.70417 0.0
H592 H 0.55538 0.02858 0.73169 0.0
H593 H 0.52994 0.98064 0.78051 0.0
H594 H 0.50658 0.02686 0.69627 0.0
H595 H 0.51555 0.00321 0.68105 0.0
H596 H 0.53714 0.0278 0.6928 0.0
H597 H 0.47434 0.96828 0.75969 0.0
H598 H 0.49589 0.95229 0.77023 0.0
H599 H 0.48277 0.94741 0.73977 0.0
C600 C 0.86098 0.25891 0.78729 0.0
C601 C 0.84349 0.27069 0.79396 0.0
C602 C 0.88253 0.26159 0.80129 0.0
C603 C 0.88662 0.27633 0.8225 0.0
C604 C 0.86948 0.28903 0.82876 0.0
C605 C 0.84815 0.28612 0.81438 0.0
C606 C 0.90051 0.24795 0.79391 0.0
C607 C 0.87322 0.30496 0.85124 0.0
C608 C 0.92783 0.26466 0.8738 0.0
C609 C 0.94762 0.28156 0.87268 0.0
C610 C 0.90807 0.26245 0.85722 0.0
C611 C 0.90814 0.27743 0.83898 0.0
C612 C 0.92833 0.29402 0.83724 0.0
C613 C 0.94781 0.29593 0.85414 0.0
C614 C 0.88684 0.24454 0.85966 0.0
C615 C 0.92911 0.31014 0.81791 0.0
H616 H 0.85761 0.24703 0.77149 0.0
H617 H 0.83479 0.29534 0.81967 0.0
H618 H 0.91786 0.25917 0.79406 0.0
H619 H 0.90248 0.23521 0.80684 0.0
H620 H 0.89555 0.23888 0.77587 0.0
H621 H 0.85881 0.31464 0.8528 0.0
H622 H 0.87443 0.29509 0.86701 0.0
H623 H 0.88998 0.3172 0.85177 0.0
H624 H 0.92751 0.25347 0.88802 0.0
H625 H 0.96306 0.30898 0.85305 0.0
H626 H 0.88174 0.23353 0.84275 0.0
H627 H 0.87181 0.2528 0.86334 0.0
H628 H 0.88995 0.23365 0.87423 0.0
H629 H 0.92432 0.3005 0.80016 0.0
H630 H 0.94667 0.32102 0.81801 0.0
H631 H 0.91609 0.32129 0.82029 0.0
C632 C 0.49047 0.90433 0.57012 0.0
C633 C 0.47091 0.91333 0.56201 0.0
C634 C 0.49955 0.88901 0.55526 0.0
C635 C 0.48875 0.88251 0.5318 0.0
C636 C 0.46936 0.89194 0.52336 0.0
C637 C 0.46072 0.90725 0.53854 0.0
C638 C 0.52033 0.8794 0.5648 0.0
C639 C 0.45734 0.88543 0.49845 0.0
C640 C 0.51836 0.85529 0.48318 0.0
C641 C 0.50711 0.83248 0.48224 0.0
C642 C 0.51343 0.87166 0.50004 0.0
C643 C 0.49684 0.86505 0.51628 0.0
C644 C 0.48637 0.84188 0.51622 0.0
C645 C 0.49166 0.82588 0.49925 0.0
C646 C 0.5251 0.89619 0.49969 0.0
C647 C 0.46864 0.83414 0.5333 0.0
H648 H 0.4985 0.909 0.58822 0.0
H649 H 0.44566 0.91415 0.53208 0.0
H650 H 0.51506 0.8608 0.56567 0.0
H651 H 0.53434 0.882 0.55264 0.0
H652 H 0.52766 0.88728 0.58287 0.0
H653 H 0.443 0.8949 0.49435 0.0
H654 H 0.4702 0.88872 0.48518 0.0
H655 H 0.44988 0.86697 0.49628 0.0
H656 H 0.53043 0.86055 0.47022 0.0
H657 H 0.48299 0.80828 0.49879 0.0
H658 H 0.53236 0.90356 0.51792 0.0
H659 H 0.51193 0.90621 0.49333 0.0
H660 H 0.53944 0.89816 0.48785 0.0
H661 H 0.47567 0.84055 0.55186 0.0
H662 H 0.46362 0.81533 0.53232 0.0
H663 H 0.45261 0.84125 0.52912 0.0
C664 C 0.172 0.32052 0.84592 0.0
C665 C 0.16778 0.31613 0.82107 0.0
C666 C 0.15349 0.31804 0.8604 0.0
C667 C 0.13021 0.3109 0.84977 0.0
C668 C 0.12593 0.30531 0.82484 0.0
C669 C 0.14477 0.30803 0.81077 0.0
C670 C 0.15876 0.32414 0.88692 0.0
C671 C 0.10135 0.29747 0.81288 0.0
C672 C 0.08077 0.29224 0.88791 0.0
C673 C 0.07079 0.3118 0.88989 0.0
C674 C 0.10038 0.29173 0.8752 0.0
C675 C 0.11023 0.31127 0.86436 0.0
C676 C 0.10061 0.33124 0.8669 0.0
C677 C 0.081 0.33124 0.87957 0.0
C678 C 0.11016 0.27015 0.87284 0.0
C679 C 0.11074 0.35251 0.85579 0.0
H680 H 0.18972 0.32667 0.85408 0.0
H681 H 0.14136 0.30444 0.79161 0.0
H682 H 0.15192 0.33972 0.89197 0.0
H683 H 0.14986 0.31038 0.89684 0.0
H684 H 0.17785 0.32727 0.89266 0.0
H685 H 0.10115 0.29182 0.79371 0.0
H686 H 0.09197 0.28324 0.82188 0.0
H687 H 0.09147 0.31157 0.81437 0.0
H688 H 0.07294 0.27714 0.8958 0.0
H689 H 0.07345 0.34644 0.8811 0.0
H690 H 0.12917 0.27368 0.87886 0.0
H691 H 0.10816 0.26339 0.85385 0.0
H692 H 0.10125 0.25682 0.88334 0.0
H693 H 0.12964 0.35783 0.86199 0.0
H694 H 0.10173 0.36685 0.86015 0.0
H695 H 0.10927 0.34903 0.83613 0.0
C696 C 0.55031 0.6341 0.51456 0.0
C697 C 0.55867 0.64344 0.53783 0.0
C698 C 0.54426 0.64794 0.49689 0.0
C699 C 0.54644 0.67161 0.50273 0.0
C700 C 0.5561 0.68125 0.52579 0.0
C701 C 0.56218 0.66709 0.54299 0.0
C702 C 0.5344 0.63709 0.47237 0.0
C703 C 0.55872 0.70641 0.53278 0.0
C704 C 0.54176 0.71497 0.45762 0.0
C705 C 0.51883 0.71859 0.45938 0.0
C706 C 0.55068 0.69874 0.4706 0.0
C707 C 0.53639 0.68606 0.48583 0.0
C708 C 0.51289 0.68889 0.48673 0.0
C709 C 0.50439 0.70503 0.47343 0.0
C710 C 0.5757 0.69595 0.46887 0.0
C711 C 0.49707 0.67578 0.5028 0.0
H712 H 0.54768 0.61587 0.51033 0.0
H713 H 0.5688 0.67455 0.56083 0.0
H714 H 0.51534 0.63716 0.46986 0.0
H715 H 0.54268 0.64692 0.45845 0.0
H716 H 0.53701 0.61925 0.46965 0.0
H717 H 0.56817 0.71147 0.55081 0.0
H718 H 0.56832 0.71639 0.51975 0.0
H719 H 0.54114 0.71107 0.53264 0.0
H720 H 0.553 0.72528 0.44668 0.0
H721 H 0.48662 0.70762 0.47483 0.0
H722 H 0.57681 0.67769 0.46659 0.0
H723 H 0.58653 0.70333 0.48564 0.0
H724 H 0.58335 0.70455 0.45383 0.0
H725 H 0.49679 0.6573 0.49952 0.0
H726 H 0.47881 0.67877 0.50018 0.0
H727 H 0.50392 0.6809 0.52169 0.0
C728 C 0.85041 0.79421 0.75437 0.0
C729 C 0.85772 0.81134 0.77308 0.0
C730 C 0.86662 0.78654 0.74032 0.0
C731 C 0.89069 0.79631 0.745 0.0
C732 C 0.89819 0.81355 0.7639 0.0
C733 C 0.88163 0.82082 0.77775 0.0
C734 C 0.85797 0.76803 0.7204 0.0
C735 C 0.92371 0.82446 0.76937 0.0
C736 C 0.93622 0.76423 0.72262 0.0
C737 C 0.94188 0.77504 0.70213 0.0
C738 C 0.91939 0.7708 0.73659 0.0
C739 C 0.90803 0.78869 0.73 0.0
C740 C 0.91351 0.79956 0.70926 0.0
C741 C 0.93032 0.79257 0.69555 0.0
C742 C 0.9139 0.75871 0.75851 0.0
C743 C 0.90183 0.81877 0.70172 0.0
H744 H 0.83198 0.78677 0.75068 0.0
H745 H 0.88743 0.83408 0.79214 0.0
H746 H 0.86239 0.77439 0.7031 0.0
H747 H 0.86686 0.7534 0.72297 0.0
H748 H 0.83874 0.76192 0.71934 0.0
H749 H 0.92669 0.83756 0.78476 0.0
H750 H 0.93431 0.81133 0.77333 0.0
H751 H 0.93025 0.83253 0.75359 0.0
H752 H 0.94499 0.75063 0.72783 0.0
H753 H 0.93458 0.80107 0.67979 0.0
H754 H 0.8949 0.75151 0.7574 0.0
H755 H 0.91814 0.77098 0.77458 0.0
H756 H 0.92384 0.74476 0.76086 0.0
H757 H 0.88255 0.81303 0.69911 0.0
H758 H 0.90782 0.82525 0.68495 0.0
H759 H 0.9056 0.83302 0.71594 0.0
C760 C 0.08273 0.89245 0.55488 0.0
C761 C 0.09964 0.88283 0.54373 0.0
C762 C 0.06945 0.88071 0.57122 0.0
C763 C 0.07266 0.85856 0.57584 0.0
C764 C 0.09015 0.84903 0.56506 0.0
C765 C 0.10369 0.86145 0.5494 0.0
C766 C 0.05148 0.89172 0.58292 0.0
C767 C 0.09369 0.82522 0.56902 0.0
C768 C 0.04727 0.82852 0.62736 0.0
C769 C 0.02628 0.8156 0.61603 0.0
C770 C 0.06222 0.84328 0.61473 0.0
C771 C 0.05633 0.8445 0.5901 0.0
C772 C 0.03506 0.83156 0.57867 0.0
C773 C 0.02015 0.81753 0.59187 0.0
C774 C 0.0844 0.85736 0.62764 0.0
C775 C 0.02839 0.83194 0.55232 0.0
H776 H 0.07975 0.9091 0.55068 0.0
H777 H 0.11668 0.85394 0.54068 0.0
H778 H 0.03361 0.88288 0.57574 0.0
H779 H 0.05315 0.89018 0.6024 0.0
H780 H 0.05323 0.90998 0.57984 0.0
H781 H 0.10879 0.82074 0.56025 0.0
H782 H 0.09659 0.8233 0.58833 0.0
H783 H 0.07768 0.81286 0.56182 0.0
H784 H 0.05198 0.82711 0.64608 0.0
H785 H 0.00403 0.80739 0.583 0.0
H786 H 0.08538 0.87553 0.62452 0.0
H787 H 0.09988 0.85193 0.62059 0.0
H788 H 0.08551 0.8558 0.64714 0.0
H789 H 0.02735 0.84949 0.54807 0.0
H790 H 0.01129 0.82073 0.54615 0.0
H791 H 0.04206 0.82634 0.54207 0.0
C792 C 0.16888 0.76215 0.75638 0.0
C793 C 0.17367 0.77342 0.77934 0.0
C794 C 0.14671 0.75981 0.74369 0.0
C795 C 0.12893 0.76909 0.75416 0.0
C796 C 0.13377 0.78091 0.77713 0.0
C797 C 0.15607 0.78288 0.78949 0.0
C798 C 0.14219 0.74698 0.71928 0.0
C799 C 0.11527 0.79116 0.78879 0.0
C800 C 0.07652 0.77673 0.71284 0.0
C801 C 0.06008 0.75732 0.71598 0.0
C802 C 0.0989 0.78103 0.72547 0.0
C803 C 0.10498 0.76547 0.74147 0.0
C804 C 0.08837 0.74597 0.74488 0.0
C805 C 0.06611 0.74218 0.73215 0.0
C806 C 0.11612 0.80208 0.7215 0.0
C807 C 0.09424 0.72891 0.76169 0.0
H808 H 0.18237 0.75481 0.74838 0.0
H809 H 0.15967 0.79172 0.80718 0.0
H810 H 0.1283 0.73172 0.71943 0.0
H811 H 0.13577 0.75775 0.70602 0.0
H812 H 0.15811 0.74145 0.71334 0.0
H813 H 0.12218 0.8008 0.8062 0.0
H814 H 0.10812 0.80275 0.77694 0.0
H815 H 0.10049 0.77752 0.79169 0.0
H816 H 0.07195 0.78855 0.70042 0.0
H817 H 0.05352 0.72713 0.73468 0.0
H818 H 0.13167 0.79718 0.71406 0.0
H819 H 0.12236 0.8123 0.73872 0.0
H820 H 0.10837 0.81291 0.70912 0.0
H821 H 0.10915 0.72151 0.7558 0.0
H822 H 0.0792 0.71485 0.76267 0.0
H823 H 0.09978 0.73743 0.77985 0.0
C824 C 0.00068 0.63711 0.52097 0.0
C825 C 0.98182 0.61888 0.51541 0.0
C826 C 0.00188 0.65209 0.54146 0.0
C827 C 0.98374 0.64879 0.55668 0.0
C828 C 0.96521 0.62984 0.55174 0.0
C829 C 0.9645 0.61508 0.53119 0.0
C830 C 0.02204 0.67201 0.54624 0.0
C831 C 0.94554 0.62576 0.56754 0.0
C832 C 0.99444 0.68201 0.61766 0.0
C833 C 0.98428 0.70098 0.61324 0.0
C834 C 0.99408 0.66463 0.59955 0.0
C835 C 0.98317 0.66622 0.57655 0.0
C836 C 0.97222 0.68495 0.57221 0.0
C837 C 0.97297 0.70211 0.59056 0.0
C838 C 0.00597 0.64493 0.6048 0.0
C839 C 0.96019 0.68715 0.54798 0.0
H840 H 0.01422 0.64009 0.50898 0.0
H841 H 0.94989 0.60098 0.52711 0.0
H842 H 0.01546 0.68806 0.54422 0.0
H843 H 0.0302 0.67283 0.56481 0.0
H844 H 0.03573 0.67107 0.53389 0.0
H845 H 0.93361 0.60918 0.56248 0.0
H846 H 0.95267 0.62626 0.58643 0.0
H847 H 0.93514 0.63947 0.5663 0.0
H848 H 0.00328 0.68103 0.63511 0.0
H849 H 0.96495 0.71663 0.58699 0.0
H850 H 0.02096 0.64504 0.59397 0.0
H851 H 0.99365 0.6286 0.59977 0.0
H852 H 0.01254 0.64557 0.62391 0.0
H853 H 0.97314 0.68853 0.53464 0.0
H854 H 0.95167 0.70227 0.54782 0.0
H855 H 0.9467 0.67176 0.54225 0.0
C856 C 0.7908 0.8768 0.2686 0.0
C857 C 0.76817 0.87291 0.25665 0.0
C858 C 0.80442 0.89873 0.27231 0.0
C859 C 0.79527 0.91725 0.26371 0.0
C860 C 0.77275 0.91339 0.25098 0.0
C861 C 0.75942 0.89126 0.24766 0.0
C862 C 0.82838 0.90216 0.286 0.0
C863 C 0.76254 0.9327 0.24134 0.0
C864 C 0.82254 0.97461 0.29618 0.0
C865 C 0.83986 0.98262 0.2815 0.0
C866 C 0.80723 0.95373 0.2901 0.0
C867 C 0.80918 0.94067 0.26876 0.0
C868 C 0.82577 0.94923 0.25325 0.0
C869 C 0.84097 0.97006 0.25986 0.0
C870 C 0.78977 0.94513 0.30712 0.0
C871 C 0.82817 0.93593 0.2302 0.0
H872 H 0.79774 0.86277 0.27562 0.0
H873 H 0.74197 0.88842 0.23834 0.0
H874 H 0.84186 0.91057 0.2752 0.0
H875 H 0.8289 0.9135 0.30249 0.0
H876 H 0.83314 0.88591 0.29101 0.0
H877 H 0.74538 0.92668 0.23063 0.0
H878 H 0.76011 0.94477 0.2563 0.0
H879 H 0.77479 0.94226 0.23006 0.0
H880 H 0.82151 0.9842 0.31291 0.0
H881 H 0.85416 0.97621 0.24829 0.0
H882 H 0.79447 0.92983 0.31471 0.0
H883 H 0.77197 0.94003 0.29756 0.0
H884 H 0.78922 0.95807 0.32201 0.0
H885 H 0.83509 0.92041 0.23413 0.0
H886 H 0.84018 0.94598 0.219 0.0
H887 H 0.81082 0.93036 0.2198 0.0
C888 C 0.81083 0.18938 0.3137 0.0
C889 C 0.8256 0.20913 0.32465 0.0
C890 C 0.81805 0.16829 0.31306 0.0
C891 C 0.84054 0.16688 0.32375 0.0
C892 C 0.8555 0.18672 0.33491 0.0
C893 C 0.84788 0.20762 0.33517 0.0
C894 C 0.80163 0.14752 0.3009 0.0
C895 C 0.87954 0.18586 0.34666 0.0
C896 C 0.85032 0.10929 0.34162 0.0
C897 C 0.86229 0.10189 0.32297 0.0
C898 C 0.84331 0.13046 0.34217 0.0
C899 C 0.84826 0.14456 0.32355 0.0
C900 C 0.86039 0.13724 0.30468 0.0
C901 C 0.86732 0.11601 0.30465 0.0
C902 C 0.83054 0.13772 0.36267 0.0
C903 C 0.86588 0.15177 0.28445 0.0
H904 H 0.79362 0.1904 0.30545 0.0
H905 H 0.8594 0.22279 0.34369 0.0
H906 H 0.8101 0.13967 0.28646 0.0
H907 H 0.7977 0.13465 0.31383 0.0
H908 H 0.78486 0.15154 0.29315 0.0
H909 H 0.88906 0.20283 0.35454 0.0
H910 H 0.87801 0.1741 0.36094 0.0
H911 H 0.89017 0.17915 0.33346 0.0
H912 H 0.84641 0.09853 0.35589 0.0
H913 H 0.87654 0.11041 0.29016 0.0
H914 H 0.81295 0.14052 0.35589 0.0
H915 H 0.84025 0.15409 0.37181 0.0
H916 H 0.82836 0.12493 0.37595 0.0
H917 H 0.84941 0.15507 0.27524 0.0
H918 H 0.87553 0.14367 0.27118 0.0
H919 H 0.87658 0.16848 0.29149 0.0
C920 C 0.32577 0.03003 0.93453 0.0
C921 C 0.33737 0.05211 0.94268 0.0
C922 C 0.31527 0.01524 0.95021 0.0
C923 C 0.31627 0.02271 0.97465 0.0
C924 C 0.32833 0.04482 0.98313 0.0
C925 C 0.3388 0.05928 0.96702 0.0
C926 C 0.30265 0.99173 0.94047 0.0
C927 C 0.32969 0.05337 0.00906 0.0
C928 C 0.2659 0.99034 0.00326 0.0
C929 C 0.27607 0.97317 0.01301 0.0
C930 C 0.27925 0.00766 0.99225 0.0
C931 C 0.30335 0.00767 0.99078 0.0
C932 C 0.31411 0.99138 0.00216 0.0
C933 C 0.30032 0.97432 0.01328 0.0
C934 C 0.26716 0.02491 0.98066 0.0
C935 C 0.33977 0.9909 0.00103 0.0
H936 H 0.32474 0.0243 0.91579 0.0
H937 H 0.34781 0.0763 0.97346 0.0
H938 H 0.30955 0.9787 0.95045 0.0
H939 H 0.28373 0.98987 0.94282 0.0
H940 H 0.30449 0.98816 0.92125 0.0
H941 H 0.34113 0.07036 0.0131 0.0
H942 H 0.31188 0.05455 0.01391 0.0
H943 H 0.33644 0.04126 0.0205 0.0
H944 H 0.2472 0.98971 0.0033 0.0
H945 H 0.30828 0.96109 0.0208 0.0
H946 H 0.26587 0.02147 0.96101 0.0
H947 H 0.27744 0.04232 0.98528 0.0
H948 H 0.24921 0.02438 0.98606 0.0
H949 H 0.34258 0.98467 0.98275 0.0
H950 H 0.34619 0.97956 0.01371 0.0
H951 H 0.35047 0.00822 0.00493 0.0
C952 C 0.21206 0.39869 0.30364 0.0
C953 C 0.19907 0.3793 0.31187 0.0
C954 C 0.20254 0.41839 0.30119 0.0
C955 C 0.17952 0.41873 0.30722 0.0
C956 C 0.16601 0.39893 0.31463 0.0
C957 C 0.17592 0.37945 0.31682 0.0
C958 C 0.21744 0.43913 0.29306 0.0
C959 C 0.14141 0.3986 0.32124 0.0
C960 C 0.16521 0.47527 0.32946 0.0
C961 C 0.15204 0.48085 0.30955 0.0
C962 C 0.17431 0.45519 0.32882 0.0
C963 C 0.17027 0.44029 0.30772 0.0
C964 C 0.15711 0.44584 0.28748 0.0
C965 C 0.14809 0.46605 0.28866 0.0
C966 C 0.18814 0.44984 0.35084 0.0
C967 C 0.15253 0.4304 0.26465 0.0
H968 H 0.22991 0.39869 0.29965 0.0
H969 H 0.16568 0.36453 0.32308 0.0
H970 H 0.20769 0.4458 0.27828 0.0
H971 H 0.22165 0.45275 0.30794 0.0
H972 H 0.23411 0.43549 0.287 0.0
H973 H 0.13261 0.38138 0.32491 0.0
H974 H 0.14192 0.4104 0.33738 0.0
H975 H 0.13068 0.40458 0.30673 0.0
H976 H 0.16835 0.48658 0.34569 0.0
H977 H 0.13799 0.47027 0.27318 0.0
H978 H 0.20595 0.44784 0.3467 0.0
H979 H 0.1795 0.4335 0.35683 0.0
H980 H 0.18985 0.46329 0.36577 0.0
H981 H 0.16937 0.42775 0.25824 0.0
H982 H 0.14237 0.43736 0.25037 0.0
H983 H 0.1427 0.41349 0.26793 0.0
C984 C 0.16936 0.00063 0.51415 0.0
C985 C 0.15123 0.99251 0.49604 0.0
C986 C 0.18033 0.02358 0.51684 0.0
C987 C 0.17308 0.03871 0.50091 0.0
C988 C 0.15458 0.03066 0.48277 0.0
C989 C 0.144 0.00759 0.48044 0.0
C990 C 0.20005 0.03151 0.53638 0.0
C991 C 0.1465 0.04622 0.46533 0.0
C992 C 0.19264 0.10177 0.51977 0.0
C993 C 0.21298 0.10694 0.50812 0.0
C994 C 0.17903 0.07976 0.51706 0.0
C995 C 0.18594 0.06257 0.50236 0.0
C996 C 0.20592 0.06789 0.48985 0.0
C997 C 0.21917 0.08999 0.49287 0.0
C998 C 0.15772 0.07471 0.53055 0.0
C999 C 0.21381 0.05005 0.47391 0.0
H1000 H 0.17506 0.98897 0.52615 0.0
H1001 H 0.13072 0.00124 0.46579 0.0
H1002 H 0.21658 0.03742 0.52843 0.0
H1003 H 0.19639 0.04614 0.54759 0.0
H1004 H 0.20279 0.01787 0.54799 0.0
H1005 H 0.13056 0.0378 0.45365 0.0
H1006 H 0.14272 0.06169 0.47497 0.0
H1007 H 0.16064 0.05182 0.45394 0.0
H1008 H 0.18769 0.11475 0.53157 0.0
H1009 H 0.23478 0.0938 0.48368 0.0
H1010 H 0.16056 0.06253 0.54387 0.0
H1011 H 0.14219 0.06657 0.5182 0.0
H1012 H 0.1538 0.09025 0.53996 0.0
H1013 H 0.2189 0.03668 0.4847 0.0
H1014 H 0.22897 0.05725 0.46441 0.0
H1015 H 0.19923 0.04171 0.46051 0.0
C1016 C 0.71688 0.17194 0.77296 0.0
C1017 C 0.73956 0.16915 0.76864 0.0
C1018 C 0.701 0.1542 0.78074 0.0
C1019 C 0.7079 0.13312 0.78408 0.0
C1020 C 0.73066 0.1301 0.77947 0.0
C1021 C 0.74624 0.14818 0.77189 0.0
C1022 C 0.67688 0.15807 0.78555 0.0
C1023 C 0.73854 0.10777 0.78258 0.0
C1024 C 0.6731 0.09451 0.824 0.0
C1025 C 0.65704 0.08005 0.80725 0.0
C1026 C 0.69008 0.11163 0.8167 0.0
C1027 C 0.69113 0.11415 0.79209 0.0
C1028 C 0.67555 0.09906 0.7751 0.0
C1029 C 0.65865 0.08226 0.78288 0.0
C1030 C 0.7064 0.12747 0.83533 0.0
C1031 C 0.67632 0.10102 0.7487 0.0
H1032 H 0.71161 0.18812 0.77059 0.0
H1033 H 0.76372 0.14587 0.76854 0.0
H1034 H 0.66335 0.14574 0.774 0.0
H1035 H 0.67394 0.15516 0.8043 0.0
H1036 H 0.67434 0.17554 0.78234 0.0
H1037 H 0.75677 0.10814 0.77808 0.0
H1038 H 0.73752 0.10353 0.80127 0.0
H1039 H 0.72672 0.09391 0.77108 0.0
H1040 H 0.67194 0.09295 0.84285 0.0
H1041 H 0.64642 0.07105 0.7698 0.0
H1042 H 0.70325 0.14507 0.83426 0.0
H1043 H 0.72488 0.12761 0.83198 0.0
H1044 H 0.70401 0.12262 0.85367 0.0
H1045 H 0.67192 0.11752 0.74412 0.0
H1046 H 0.66388 0.08713 0.73779 0.0
H1047 H 0.69425 0.10069 0.74372 0.0
C1048 C 0.37656 0.06077 0.60511 0.0
C1049 C 0.35893 0.04393 0.6117 0.0
C1050 C 0.37106 0.08028 0.5954 0.0
C1051 C 0.34732 0.08252 0.5914 0.0
C1052 C 0.32953 0.06583 0.59867 0.0
C1053 C 0.33561 0.04692 0.60908 0.0
C1054 C 0.39057 0.0981 0.58869 0.0
C1055 C 0.30394 0.06726 0.59422 0.0
C1056 C 0.32565 0.1362 0.5759 0.0
C1057 C 0.32068 0.13203 0.55111 0.0
C1058 C 0.33597 0.12102 0.58922 0.0
C1059 C 0.34068 0.10092 0.57751 0.0
C1060 C 0.33678 0.09727 0.55237 0.0
C1061 C 0.32716 0.11304 0.53947 0.0
C1062 C 0.3407 0.12593 0.6159 0.0
C1063 C 0.34111 0.07588 0.53917 0.0
H1064 H 0.39466 0.0586 0.60737 0.0
H1065 H 0.32193 0.03387 0.61406 0.0
H1066 H 0.39027 0.09744 0.56902 0.0
H1067 H 0.38812 0.11534 0.59508 0.0
H1068 H 0.40807 0.09557 0.59616 0.0
H1069 H 0.29235 0.05329 0.60167 0.0
H1070 H 0.30081 0.08371 0.60221 0.0
H1071 H 0.29889 0.06644 0.57477 0.0
H1072 H 0.32079 0.15092 0.58498 0.0
H1073 H 0.32329 0.10963 0.52033 0.0
H1074 H 0.35817 0.12248 0.62219 0.0
H1075 H 0.32745 0.11461 0.62466 0.0
H1076 H 0.33994 0.14382 0.62173 0.0
H1077 H 0.35925 0.0734 0.54396 0.0
H1078 H 0.33833 0.07619 0.51953 0.0
H1079 H 0.32908 0.06095 0.54441 0.0
C1080 C 0.58469 0.50561 0.56395 0.0
C1081 C 0.59679 0.52785 0.5707 0.0
C1082 C 0.59679 0.48786 0.55894 0.0
C1083 C 0.62157 0.49253 0.56043 0.0
C1084 C 0.63388 0.51489 0.56752 0.0
C1085 C 0.62135 0.53224 0.57268 0.0
C1086 C 0.58307 0.4642 0.55168 0.0
C1087 C 0.66029 0.52063 0.56912 0.0
C1088 C 0.65829 0.44623 0.56377 0.0
C1089 C 0.66402 0.44384 0.54025 0.0
C1090 C 0.64364 0.46133 0.57046 0.0
C1091 C 0.6347 0.47444 0.55326 0.0
C1092 C 0.63964 0.47136 0.52931 0.0
C1093 C 0.65413 0.45605 0.5231 0.0
C1094 C 0.6385 0.46393 0.5961 0.0
C1095 C 0.63055 0.48503 0.51042 0.0
H1096 H 0.56571 0.50203 0.56255 0.0
H1097 H 0.63085 0.54936 0.57789 0.0
H1098 H 0.5858 0.45893 0.53309 0.0
H1099 H 0.58942 0.4519 0.56317 0.0
H1100 H 0.56399 0.46308 0.55286 0.0
H1101 H 0.66725 0.53868 0.57562 0.0
H1102 H 0.66801 0.50964 0.58128 0.0
H1103 H 0.66625 0.51729 0.55132 0.0
H1104 H 0.66581 0.43684 0.57712 0.0
H1105 H 0.65839 0.4543 0.50486 0.0
H1106 H 0.6194 0.46262 0.59715 0.0
H1107 H 0.64721 0.48101 0.60433 0.0
H1108 H 0.64474 0.45093 0.60672 0.0
H1109 H 0.61127 0.48337 0.51007 0.0
H1110 H 0.63481 0.47964 0.49237 0.0
H1111 H 0.63831 0.50329 0.5147 0.0
C1112 C 0.73433 0.28809 0.3857 0.0
C1113 C 0.75681 0.29684 0.3797 0.0
C1114 C 0.72551 0.29767 0.40561 0.0
C1115 C 0.73943 0.3166 0.41958 0.0
C1116 C 0.76214 0.32548 0.4135 0.0
C1117 C 0.77064 0.31532 0.39381 0.0
C1118 C 0.70146 0.28742 0.41187 0.0
C1119 C 0.77746 0.34585 0.42771 0.0
C1120 C 0.71454 0.35857 0.45848 0.0
C1121 C 0.72244 0.35372 0.48133 0.0
C1122 C 0.71869 0.34571 0.43809 0.0
C1123 C 0.7306 0.32731 0.44067 0.0
C1124 C 0.7367 0.32111 0.46373 0.0
C1125 C 0.73277 0.33454 0.48379 0.0
C1126 C 0.71208 0.35303 0.41384 0.0
C1127 C 0.74887 0.30126 0.46726 0.0
H1128 H 0.72384 0.27344 0.37513 0.0
H1129 H 0.78801 0.32213 0.38915 0.0
H1130 H 0.70279 0.28152 0.42999 0.0
H1131 H 0.69017 0.30044 0.41217 0.0
H1132 H 0.69277 0.27283 0.39908 0.0
H1133 H 0.79439 0.35106 0.4202 0.0
H1134 H 0.76818 0.36045 0.4282 0.0
H1135 H 0.78117 0.34196 0.44638 0.0
H1136 H 0.70662 0.37341 0.45642 0.0
H1137 H 0.73872 0.33057 0.50142 0.0
H1138 H 0.70319 0.3382 0.40154 0.0
H1139 H 0.72821 0.36069 0.4061 0.0
H1140 H 0.70042 0.36573 0.41472 0.0
H1141 H 0.74022 0.28625 0.45506 0.0
H1142 H 0.74904 0.29649 0.48588 0.0
H1143 H 0.76726 0.30577 0.463 0.0
C1144 C 0.46565 0.09917 0.91478 0.0
C1145 C 0.44541 0.08567 0.90256 0.0
C1146 C 0.48799 0.09493 0.91071 0.0
C1147 C 0.48999 0.07674 0.8941 0.0
C1148 C 0.46951 0.06248 0.88256 0.0
C1149 C 0.44751 0.06722 0.8868 0.0
C1150 C 0.5094 0.1106 0.92322 0.0
C1151 C 0.47083 0.04275 0.8649 0.0
C1152 C 0.54079 0.07795 0.85674 0.0
C1153 C 0.5526 0.06202 0.86686 0.0
C1154 C 0.52129 0.08406 0.8665 0.0
C1155 C 0.5132 0.07379 0.88673 0.0
C1156 C 0.52586 0.05871 0.89789 0.0
C1157 C 0.54555 0.05308 0.88787 0.0
C1158 C 0.50851 0.10047 0.85422 0.0
C1159 C 0.51775 0.0474 0.91947 0.0
H1160 H 0.46412 0.1137 0.92664 0.0
H1161 H 0.43187 0.05665 0.87746 0.0
H1162 H 0.52223 0.1007 0.93062 0.0
H1163 H 0.51811 0.12136 0.91021 0.0
H1164 H 0.50496 0.1219 0.93787 0.0
H1165 H 0.45333 0.03215 0.85908 0.0
H1166 H 0.47861 0.04924 0.84893 0.0
H1167 H 0.48233 0.0318 0.87278 0.0
H1168 H 0.54636 0.08518 0.84068 0.0
H1169 H 0.55463 0.04077 0.89579 0.0
H1170 H 0.50503 0.11376 0.86738 0.0
H1171 H 0.49132 0.09122 0.84553 0.0
H1172 H 0.51852 0.10889 0.84043 0.0
H1173 H 0.5134 0.06002 0.93285 0.0
H1174 H 0.53117 0.03872 0.92797 0.0
H1175 H 0.50157 0.03459 0.91408 0.0
C1176 C 0.28749 0.29881 0.40587 0.0
C1177 C 0.27143 0.29309 0.38547 0.0
C1178 C 0.288 0.28405 0.42399 0.0
C1179 C 0.27222 0.26296 0.42155 0.0
C1180 C 0.25635 0.25685 0.40076 0.0
C1181 C 0.25606 0.27203 0.38303 0.0
C1182 C 0.30508 0.29122 0.44598 0.0
C1183 C 0.23941 0.23441 0.39738 0.0
C1184 C 0.28461 0.21568 0.45916 0.0
C1185 C 0.26908 0.21677 0.47666 0.0
C1186 C 0.28605 0.23078 0.44127 0.0
C1187 C 0.27179 0.24753 0.44102 0.0
C1188 C 0.25653 0.24911 0.45898 0.0
C1189 C 0.25528 0.23365 0.47651 0.0
C1190 C 0.30241 0.22848 0.42233 0.0
C1191 C 0.24123 0.26689 0.45945 0.0
H1192 H 0.2994 0.31507 0.40795 0.0
H1193 H 0.24368 0.2674 0.36728 0.0
H1194 H 0.29534 0.29244 0.46189 0.0
H1195 H 0.31618 0.27826 0.44875 0.0
H1196 H 0.31663 0.30788 0.44485 0.0
H1197 H 0.22887 0.23181 0.37976 0.0
H1198 H 0.24909 0.2202 0.39906 0.0
H1199 H 0.22729 0.23355 0.41151 0.0
H1200 H 0.29529 0.20266 0.45908 0.0
H1201 H 0.24333 0.23472 0.49002 0.0
H1202 H 0.31458 0.24484 0.42162 0.0
H1203 H 0.29218 0.22429 0.40461 0.0
H1204 H 0.31288 0.21505 0.42549 0.0
H1205 H 0.25212 0.28407 0.45958 0.0
H1206 H 0.2311 0.26651 0.47523 0.0
H1207 H 0.22873 0.26417 0.44313 0.0
C1208 C 0.5265 0.49915 0.97182 0.0
C1209 C 0.54841 0.5134 0.97762 0.0
C1210 C 0.50972 0.50485 0.95521 0.0
C1211 C 0.51489 0.5254 0.94428 0.0
C1212 C 0.53651 0.5404 0.95093 0.0
C1213 C 0.55306 0.53418 0.96747 0.0
C1214 C 0.48691 0.48835 0.94851 0.0
C1215 C 0.54254 0.56258 0.93986 0.0
C1216 C 0.4845 0.52557 0.88233 0.0
C1217 C 0.46578 0.53646 0.88693 0.0
C1218 C 0.5008 0.52224 0.90081 0.0
C1219 C 0.49848 0.53017 0.9245 0.0
C1220 C 0.48 0.54169 0.92925 0.0
C1221 C 0.46378 0.54461 0.91041 0.0
C1222 C 0.52019 0.50974 0.89503 0.0
C1223 C 0.47713 0.55057 0.95426 0.0
H1224 H 0.52271 0.48309 0.97961 0.0
H1225 H 0.56989 0.54537 0.97197 0.0
H1226 H 0.47186 0.49713 0.9501 0.0
H1227 H 0.48605 0.48149 0.92964 0.0
H1228 H 0.48491 0.47388 0.95982 0.0
H1229 H 0.55902 0.57331 0.94862 0.0
H1230 H 0.54461 0.55912 0.92071 0.0
H1231 H 0.52814 0.57232 0.94095 0.0
H1232 H 0.48622 0.5192 0.86427 0.0
H1233 H 0.44945 0.55315 0.91411 0.0
H1234 H 0.51852 0.49391 0.90423 0.0
H1235 H 0.53748 0.52032 0.90157 0.0
H1236 H 0.5199 0.50519 0.8756 0.0
H1237 H 0.47343 0.53618 0.96547 0.0
H1238 H 0.46269 0.56034 0.95478 0.0
H1239 H 0.49363 0.56168 0.96237 0.0
C1240 C 0.74722 0.76325 0.17677 0.0
C1241 C 0.72972 0.75994 0.19232 0.0
C1242 C 0.7435 0.75248 0.15355 0.0
C1243 C 0.72209 0.73741 0.14605 0.0
C1244 C 0.70449 0.73375 0.16186 0.0
C1245 C 0.70836 0.74541 0.18469 0.0
C1246 C 0.76239 0.7574 0.13697 0.0
C1247 C 0.68175 0.71725 0.15481 0.0
C1248 C 0.70391 0.72354 0.07972 0.0
C1249 C 0.71268 0.70359 0.07519 0.0
C1250 C 0.70692 0.7348 0.10271 0.0
C1251 C 0.71822 0.7254 0.12171 0.0
C1252 C 0.7264 0.70481 0.1173 0.0
C1253 C 0.72392 0.69438 0.09399 0.0
C1254 C 0.69864 0.75709 0.10654 0.0
C1255 C 0.73785 0.69386 0.1372 0.0
H1256 H 0.76367 0.77465 0.18263 0.0
H1257 H 0.6949 0.74273 0.19681 0.0
H1258 H 0.76882 0.74162 0.13185 0.0
H1259 H 0.75513 0.76347 0.12036 0.0
H1260 H 0.77753 0.77041 0.14517 0.0
H1261 H 0.67016 0.71584 0.16943 0.0
H1262 H 0.6722 0.72267 0.13908 0.0
H1263 H 0.68542 0.70016 0.14963 0.0
H1264 H 0.69542 0.73077 0.06511 0.0
H1265 H 0.73058 0.67885 0.09047 0.0
H1266 H 0.71369 0.7707 0.11355 0.0
H1267 H 0.68584 0.75592 0.12001 0.0
H1268 H 0.69031 0.76216 0.08987 0.0
H1269 H 0.75448 0.70506 0.14479 0.0
H1270 H 0.74174 0.67706 0.13107 0.0
H1271 H 0.7263 0.69155 0.15178 0.0
C1272 C 0.02094 0.09688 0.17293 0.0
C1273 C 0.01102 0.09963 0.1501 0.0
C1274 C 0.00675 0.08957 0.19076 0.0
C1275 C 0.98209 0.0847 0.18555 0.0
C1276 C 0.97197 0.08767 0.16263 0.0
C1277 C 0.98655 0.09517 0.1452 0.0
C1278 C 0.01817 0.08674 0.21507 0.0
C1279 C 0.94575 0.08244 0.15634 0.0
C1280 C 0.94814 0.04267 0.2226 0.0
C1281 C 0.93925 0.05701 0.23869 0.0
C1282 C 0.96183 0.05148 0.20505 0.0
C1283 C 0.96696 0.07526 0.20367 0.0
C1284 C 0.95784 0.08985 0.21967 0.0
C1285 C 0.94396 0.08053 0.23695 0.0
C1286 C 0.97098 0.03533 0.18813 0.0
C1287 C 0.96309 0.11531 0.21879 0.0
H1288 H 0.03982 0.10044 0.1769 0.0
H1289 H 0.97874 0.09726 0.12761 0.0
H1290 H 0.01091 0.09657 0.22903 0.0
H1291 H 0.01426 0.06862 0.21873 0.0
H1292 H 0.03749 0.09242 0.21664 0.0
H1293 H 0.94062 0.0865 0.13801 0.0
H1294 H 0.93901 0.06415 0.15778 0.0
H1295 H 0.93706 0.09222 0.16908 0.0
H1296 H 0.94447 0.02445 0.22375 0.0
H1297 H 0.9372 0.09169 0.2494 0.0
H1298 H 0.99042 0.03893 0.19022 0.0
H1299 H 0.96529 0.03783 0.16944 0.0
H1300 H 0.96484 0.01725 0.19116 0.0
H1301 H 0.98227 0.12162 0.222 0.0
H1302 H 0.95435 0.12428 0.23223 0.0
H1303 H 0.9573 0.1198 0.20084 0.0
C1304 C 0.27009 0.83663 0.20079 0.0
C1305 C 0.27081 0.8137 0.19481 0.0
C1306 C 0.26704 0.85136 0.18304 0.0
C1307 C 0.26434 0.84287 0.15876 0.0
C1308 C 0.26467 0.81965 0.15265 0.0
C1309 C 0.26806 0.8054 0.17073 0.0
C1310 C 0.26709 0.87607 0.19024 0.0
C1311 C 0.26162 0.80987 0.12698 0.0
C1312 C 0.23763 0.87412 0.11044 0.0
C1313 C 0.25752 0.88353 0.09973 0.0
C1314 C 0.23961 0.86139 0.13019 0.0
C1315 C 0.26202 0.85831 0.13959 0.0
C1316 C 0.28222 0.86876 0.12957 0.0
C1317 C 0.27971 0.88109 0.10967 0.0
C1318 C 0.21765 0.85036 0.14026 0.0
C1319 C 0.30646 0.86621 0.1393 0.0
H1320 H 0.27225 0.84318 0.21937 0.0
H1321 H 0.26843 0.78767 0.16596 0.0
H1322 H 0.28182 0.88691 0.18293 0.0
H1323 H 0.25068 0.88087 0.18266 0.0
H1324 H 0.26884 0.87989 0.20989 0.0
H1325 H 0.2613 0.79128 0.12526 0.0
H1326 H 0.24506 0.81315 0.11794 0.0
H1327 H 0.27616 0.81832 0.11743 0.0
H1328 H 0.22043 0.87587 0.10279 0.0
H1329 H 0.29517 0.88847 0.10159 0.0
H1330 H 0.21911 0.85452 0.15982 0.0
H1331 H 0.21539 0.83161 0.13703 0.0
H1332 H 0.20174 0.85577 0.13214 0.0
H1333 H 0.30912 0.87074 0.15883 0.0
H1334 H 0.32042 0.87702 0.13086 0.0
H1335 H 0.30841 0.84823 0.13615 0.0
C1336 C 0.94948 0.50838 0.18569 0.0
C1337 C 0.94389 0.50305 0.16112 0.0
C1338 C 0.97261 0.51117 0.19603 0.0
C1339 C 0.99069 0.50865 0.18143 0.0
C1340 C 0.98512 0.5027 0.15666 0.0
C1341 C 0.96175 0.50017 0.14674 0.0
C1342 C 0.97777 0.51757 0.22254 0.0
C1343 C 0.00389 0.49988 0.14052 0.0
C1344 C 0.04816 0.54356 0.20933 0.0
C1345 C 0.05756 0.52761 0.22216 0.0
C1346 C 0.02726 0.5372 0.19434 0.0
C1347 C 0.01545 0.5143 0.19213 0.0
C1348 C 0.02595 0.49774 0.2033 0.0
C1349 C 0.04697 0.5046 0.21824 0.0
C1350 C 0.0168 0.5554 0.18259 0.0
C1351 C 0.01407 0.47309 0.20104 0.0
H1352 H 0.93571 0.51057 0.19687 0.0
H1353 H 0.95767 0.49684 0.12764 0.0
H1354 H 0.98758 0.50547 0.23087 0.0
H1355 H 0.98897 0.53472 0.22583 0.0
H1356 H 0.96159 0.51772 0.23152 0.0
H1357 H 0.99636 0.49178 0.12258 0.0
H1358 H 0.01447 0.51677 0.13838 0.0
H1359 H 0.01595 0.48945 0.14842 0.0
H1360 H 0.05646 0.56134 0.21201 0.0
H1361 H 0.05422 0.49216 0.22802 0.0
H1362 H 0.00139 0.55854 0.19163 0.0
H1363 H 0.01064 0.54982 0.16364 0.0
H1364 H 0.02952 0.57168 0.18349 0.0
H1365 H 0.99904 0.47104 0.21197 0.0
H1366 H 0.02617 0.4619 0.20721 0.0
H1367 H 0.00707 0.46737 0.1823 0.0
C1368 C 0.36646 0.77609 0.29027 0.0
C1369 C 0.34991 0.78646 0.30128 0.0
C1370 C 0.38841 0.77564 0.30238 0.0
C1371 C 0.39394 0.7859 0.32599 0.0
C1372 C 0.37778 0.79737 0.33674 0.0
C1373 C 0.35597 0.79748 0.32428 0.0
C1374 C 0.40524 0.76333 0.29032 0.0
C1375 C 0.38312 0.80873 0.3618 0.0
C1376 C 0.43609 0.76473 0.36998 0.0
C1377 C 0.45603 0.78192 0.37123 0.0
C1378 C 0.41608 0.76535 0.35458 0.0
C1379 C 0.41598 0.78362 0.3401 0.0
C1380 C 0.43636 0.80049 0.34049 0.0
C1381 C 0.45616 0.79943 0.35603 0.0
C1382 C 0.39471 0.74692 0.35452 0.0
C1383 C 0.43694 0.82021 0.32529 0.0
H1384 H 0.36193 0.76751 0.27252 0.0
H1385 H 0.34337 0.80566 0.33288 0.0
H1386 H 0.42285 0.77427 0.29158 0.0
H1387 H 0.40713 0.74795 0.29951 0.0
H1388 H 0.39922 0.75803 0.27125 0.0
H1389 H 0.36933 0.81815 0.36701 0.0
H1390 H 0.38469 0.79573 0.37454 0.0
H1391 H 0.40013 0.82075 0.36358 0.0
H1392 H 0.43585 0.75107 0.38154 0.0
H1393 H 0.47149 0.81277 0.35677 0.0
H1394 H 0.38847 0.73955 0.33605 0.0
H1395 H 0.38031 0.75431 0.36166 0.0
H1396 H 0.3982 0.73303 0.36546 0.0
H1397 H 0.43079 0.814 0.30647 0.0
H1398 H 0.45476 0.83073 0.326 0.0
H1399 H 0.42486 0.8312 0.33149 0.0
C1400 C 0.96954 0.41076 0.06764 0.0
C1401 C 0.94876 0.41754 0.05914 0.0
C1402 C 0.97971 0.39562 0.05364 0.0
C1403 C 0.96879 0.38704 0.03067 0.0
C1404 C 0.94789 0.39392 0.02198 0.0
C1405 C 0.93817 0.40908 0.03629 0.0
C1406 C 0.00203 0.38871 0.06346 0.0
C1407 C 0.93568 0.3851 0.99758 0.0
C1408 C 0.00139 0.36258 0.98283 0.0
C1409 C 0.99304 0.33917 0.98303 0.0
C1410 C 0.99448 0.37836 0.99899 0.0
C1411 C 0.97883 0.37055 0.0157 0.0
C1412 C 0.97127 0.34693 0.01677 0.0
C1413 C 0.97849 0.33153 0.00045 0.0
C1414 C 0.00305 0.40342 0.99742 0.0
C1415 C 0.95463 0.33793 0.03438 0.0
H1416 H 0.97787 0.41724 0.08526 0.0
H1417 H 0.92212 0.41421 0.02957 0.0
H1418 H 0.99904 0.37006 0.06455 0.0
H1419 H 0.01584 0.39287 0.05131 0.0
H1420 H 0.00859 0.39727 0.08145 0.0
H1421 H 0.91969 0.39229 0.99338 0.0
H1422 H 0.94776 0.38934 0.98376 0.0
H1423 H 0.93063 0.36631 0.99646 0.0
H1424 H 0.01273 0.36866 0.96954 0.0
H1425 H 0.97203 0.31349 0.00086 0.0
H1426 H 0.0101 0.41195 0.01527 0.0
H1427 H 0.98818 0.41138 0.99102 0.0
H1428 H 0.01687 0.40665 0.98508 0.0
H1429 H 0.96126 0.34561 0.05266 0.0
H1430 H 0.95202 0.31914 0.03431 0.0
H1431 H 0.93736 0.34273 0.02997 0.0
C1432 C 0.64598 0.78704 0.30255 0.0
C1433 C 0.66968 0.79379 0.31115 0.0
C1434 C 0.62842 0.7854 0.31814 0.0
C1435 C 0.63473 0.79064 0.34291 0.0
C1436 C 0.65867 0.79594 0.35184 0.0
C1437 C 0.67588 0.79743 0.33584 0.0
C1438 C 0.60307 0.77951 0.30794 0.0
C1439 C 0.6661 0.80148 0.37815 0.0
C1440 C 0.5907 0.81672 0.3757 0.0
C1441 C 0.57897 0.79811 0.38627 0.0
C1442 C 0.60928 0.81459 0.36211 0.0
C1443 C 0.61634 0.7933 0.35896 0.0
C1444 C 0.60513 0.77461 0.37023 0.0
C1445 C 0.58654 0.77724 0.38379 0.0
C1446 C 0.6209 0.83499 0.35052 0.0
C1447 C 0.61226 0.7517 0.36733 0.0
H1448 H 0.64103 0.78398 0.28352 0.0
H1449 H 0.69416 0.80247 0.34268 0.0
H1450 H 0.59321 0.76621 0.31774 0.0
H1451 H 0.5949 0.79477 0.31001 0.0
H1452 H 0.60113 0.77342 0.28873 0.0
H1453 H 0.68516 0.80216 0.38249 0.0
H1454 H 0.66199 0.81824 0.38392 0.0
H1455 H 0.65629 0.78871 0.38861 0.0
H1456 H 0.58504 0.83293 0.37763 0.0
H1457 H 0.57756 0.76279 0.39192 0.0
H1458 H 0.61807 0.8315 0.33085 0.0
H1459 H 0.64008 0.83837 0.3556 0.0
H1460 H 0.614 0.85055 0.35558 0.0
H1461 H 0.60809 0.74454 0.34851 0.0
H1462 H 0.60317 0.73945 0.37884 0.0
H1463 H 0.63145 0.75345 0.37167 0.0
C1464 C 0.06448 0.17294 0.04102 0.0
C1465 C 0.06044 0.14942 0.03473 0.0
C1466 C 0.05786 0.18795 0.02501 0.0
C1467 C 0.04713 0.17931 0.00199 0.0
C1468 C 0.0446 0.15583 0.99488 0.0
C1469 C 0.05119 0.14112 0.01138 0.0
C1470 C 0.06088 0.21287 0.03336 0.0
C1471 C 0.03364 0.14604 0.97033 0.0
C1472 C 0.003 0.21296 0.97709 0.0
C1473 C 0.01621 0.22707 0.96251 0.0
C1474 C 0.01265 0.19679 0.98931 0.0
C1475 C 0.03605 0.19445 0.98674 0.0
C1476 C 0.04916 0.20788 0.97118 0.0
C1477 C 0.03913 0.22416 0.95934 0.0
C1478 C 0.99808 0.18292 0.00583 0.0
C1479 C 0.07404 0.20562 0.96769 0.0
H1480 H 0.07181 0.1796 0.05893 0.0
H1481 H 0.04817 0.12301 0.00625 0.0
H1482 H 0.06944 0.2235 0.02019 0.0
H1483 H 0.04342 0.21741 0.03498 0.0
H1484 H 0.07148 0.21719 0.0509 0.0
H1485 H 0.03628 0.12835 0.9663 0.0
H1486 H 0.01454 0.14596 0.96906 0.0
H1487 H 0.04105 0.15665 0.95655 0.0
H1488 H 0.98526 0.21503 0.97962 0.0
H1489 H 0.0494 0.2349 0.94798 0.0
H1490 H 0.00617 0.18721 0.02447 0.0
H1491 H 0.99757 0.16453 0.00139 0.0
H1492 H 0.9798 0.18597 0.00492 0.0
H1493 H 0.08557 0.2122 0.98427 0.0
H1494 H 0.0808 0.21518 0.95286 0.0
H1495 H 0.07523 0.18749 0.96401 0.0
C1496 C 0.33121 0.32414 0.27059 0.0
C1497 C 0.33775 0.3405 0.29013 0.0
C1498 C 0.34783 0.31846 0.25581 0.0
C1499 C 0.37156 0.32942 0.26066 0.0
C1500 C 0.37821 0.34618 0.28012 0.0
C1501 C 0.36123 0.35151 0.29464 0.0
C1502 C 0.34007 0.30048 0.23522 0.0
C1503 C 0.40333 0.35828 0.28582 0.0
C1504 C 0.41826 0.29919 0.23778 0.0
C1505 C 0.42356 0.31031 0.21738 0.0
C1506 C 0.4014 0.30526 0.252 0.0
C1507 C 0.38953 0.3229 0.24573 0.0
C1508 C 0.39481 0.33425 0.22523 0.0
C1509 C 0.41174 0.32782 0.21129 0.0
C1510 C 0.39624 0.29273 0.27372 0.0
C1511 C 0.38254 0.35318 0.218 0.0
H1512 H 0.31311 0.31556 0.26696 0.0
H1513 H 0.36644 0.36419 0.30967 0.0
H1514 H 0.34491 0.30745 0.21832 0.0
H1515 H 0.34919 0.28599 0.23765 0.0
H1516 H 0.32087 0.294 0.23347 0.0
H1517 H 0.40551 0.37138 0.30115 0.0
H1518 H 0.41465 0.34581 0.29004 0.0
H1519 H 0.40967 0.36659 0.2701 0.0
H1520 H 0.42727 0.28563 0.24266 0.0
H1521 H 0.41569 0.33653 0.1956 0.0
H1522 H 0.37747 0.28458 0.27222 0.0
H1523 H 0.39961 0.30487 0.28991 0.0
H1524 H 0.40702 0.27943 0.27617 0.0
H1525 H 0.36337 0.34681 0.21482 0.0
H1526 H 0.38873 0.36038 0.20162 0.0
H1527 H 0.38548 0.36704 0.23262 0.0
C1528 C 0.58539 0.37596 0.05591 0.0
C1529 C 0.60256 0.39512 0.06388 0.0
C1530 C 0.5684 0.36714 0.07059 0.0
C1531 C 0.56828 0.37804 0.09361 0.0
C1532 C 0.58516 0.39778 0.10151 0.0
C1533 C 0.60228 0.40595 0.08664 0.0
C1534 C 0.55092 0.34584 0.06164 0.0
C1535 C 0.58525 0.41014 0.12574 0.0
C1536 C 0.51097 0.36221 0.12087 0.0
C1537 C 0.51598 0.34544 0.13548 0.0
C1538 C 0.52823 0.37387 0.10807 0.0
C1539 C 0.55083 0.36825 0.10956 0.0
C1540 C 0.55622 0.35196 0.12499 0.0
C1541 C 0.53878 0.34091 0.13795 0.0
C1542 C 0.52198 0.39153 0.09224 0.0
C1543 C 0.58002 0.34527 0.12683 0.0
H1544 H 0.5856 0.36745 0.03839 0.0
H1545 H 0.61542 0.42088 0.0928 0.0
H1546 H 0.55259 0.33228 0.07367 0.0
H1547 H 0.53282 0.34915 0.06176 0.0
H1548 H 0.55339 0.33944 0.04329 0.0
H1549 H 0.59873 0.42595 0.12867 0.0
H1550 H 0.56782 0.41457 0.1278 0.0
H1551 H 0.58867 0.39891 0.13985 0.0
H1552 H 0.49341 0.36589 0.11902 0.0
H1553 H 0.54273 0.32789 0.14914 0.0
H1554 H 0.52163 0.38516 0.07329 0.0
H1555 H 0.53543 0.40733 0.09546 0.0
H1556 H 0.5046 0.39576 0.09514 0.0
H1557 H 0.58291 0.33694 0.10946 0.0
H1558 H 0.58186 0.33339 0.14075 0.0
H1559 H 0.59402 0.36054 0.13095 0.0
C1560 C 0.63591 0.2895 0.29788 0.0
C1561 C 0.6511 0.27801 0.28597 0.0
C1562 C 0.61363 0.29068 0.28703 0.0
C1563 C 0.60635 0.28003 0.26378 0.0
C1564 C 0.62162 0.26848 0.25166 0.0
C1565 C 0.64381 0.26764 0.26288 0.0
C1566 C 0.59784 0.30323 0.30046 0.0
C1567 C 0.61445 0.25685 0.22688 0.0
C1568 C 0.5415 0.26305 0.24303 0.0
C1569 C 0.53805 0.28009 0.22811 0.0
C1570 C 0.56355 0.26307 0.25508 0.0
C1571 C 0.58261 0.28058 0.2522 0.0
C1572 C 0.57915 0.29808 0.23756 0.0
C1573 C 0.55691 0.29761 0.22564 0.0
C1574 C 0.56656 0.24407 0.27049 0.0
C1575 C 0.59905 0.31708 0.23413 0.0
H1576 H 0.64143 0.29762 0.3157 0.0
H1577 H 0.65541 0.25873 0.25354 0.0
H1578 H 0.59284 0.31687 0.29002 0.0
H1579 H 0.58144 0.29142 0.30294 0.0
H1580 H 0.60629 0.31095 0.31823 0.0
H1581 H 0.62846 0.24876 0.21981 0.0
H1582 H 0.59854 0.24359 0.22697 0.0
H1583 H 0.60997 0.26931 0.21452 0.0
H1584 H 0.52702 0.24946 0.24504 0.0
H1585 H 0.55438 0.31086 0.21418 0.0
H1586 H 0.57384 0.25116 0.2888 0.0
H1587 H 0.57925 0.23432 0.26327 0.0
H1588 H 0.54981 0.23217 0.27152 0.0
H1589 H 0.60711 0.32571 0.25165 0.0
H1590 H 0.59324 0.32992 0.22298 0.0
H1591 H 0.61288 0.31002 0.22548 0.0
C1592 C 0.44205 0.15412 0.0372 0.0
C1593 C 0.46019 0.15859 0.02242 0.0
C1594 C 0.4415 0.16845 0.05778 0.0
C1595 C 0.4596 0.18763 0.06381 0.0
C1596 C 0.47837 0.19179 0.04944 0.0
C1597 C 0.4784 0.17726 0.02887 0.0
C1598 C 0.42117 0.1635 0.07263 0.0
C1599 C 0.49812 0.21196 0.05543 0.0
C1600 C 0.44842 0.23935 0.10041 0.0
C1601 C 0.45956 0.23709 0.12286 0.0
C1602 C 0.44768 0.22299 0.08123 0.0
C1603 C 0.45845 0.20396 0.08453 0.0
C1604 C 0.46901 0.20114 0.10732 0.0
C1605 C 0.46936 0.2177 0.12624 0.0
C1606 C 0.436 0.22644 0.05724 0.0
C1607 C 0.48072 0.1811 0.1115 0.0
H1608 H 0.42789 0.13973 0.03236 0.0
H1609 H 0.49253 0.18078 0.01764 0.0
H1610 H 0.42766 0.16276 0.09152 0.0
H1611 H 0.41101 0.17743 0.07209 0.0
H1612 H 0.40919 0.14722 0.06627 0.0
H1613 H 0.51204 0.21211 0.04318 0.0
H1614 H 0.49118 0.22794 0.05442 0.0
H1615 H 0.50609 0.21188 0.07394 0.0
H1616 H 0.44071 0.25421 0.09764 0.0
H1617 H 0.47804 0.2158 0.1435 0.0
H1618 H 0.42283 0.21112 0.05038 0.0
H1619 H 0.44926 0.22896 0.04426 0.0
H1620 H 0.42719 0.24138 0.05799 0.0
H1621 H 0.46849 0.16497 0.10531 0.0
H1622 H 0.48683 0.18063 0.13058 0.0
H1623 H 0.49603 0.18192 0.10101 0.0
C1624 C 0.30209 0.38179 0.79168 0.0
C1625 C 0.2812 0.38164 0.77734 0.0
C1626 C 0.31871 0.40189 0.79733 0.0
C1627 C 0.31441 0.4223 0.78828 0.0
C1628 C 0.29371 0.42213 0.77322 0.0
C1629 C 0.27732 0.40182 0.76799 0.0
C1630 C 0.34059 0.40142 0.81349 0.0
C1631 C 0.28864 0.44351 0.76303 0.0
C1632 C 0.34535 0.47799 0.82217 0.0
C1633 C 0.36434 0.48425 0.80889 0.0
C1634 C 0.32887 0.45794 0.81556 0.0
C1635 C 0.33134 0.44392 0.79506 0.0
C1636 C 0.35019 0.45037 0.78131 0.0
C1637 C 0.36651 0.4704 0.78843 0.0
C1638 C 0.30902 0.45157 0.83072 0.0
C1639 C 0.35326 0.43598 0.7592 0.0
H1640 H 0.30523 0.3663 0.79902 0.0
H1641 H 0.26128 0.40187 0.75682 0.0
H1642 H 0.35637 0.40797 0.80463 0.0
H1643 H 0.34104 0.41272 0.82999 0.0
H1644 H 0.34162 0.38406 0.8185 0.0
H1645 H 0.27227 0.44029 0.75072 0.0
H1646 H 0.28697 0.45623 0.77768 0.0
H1647 H 0.30338 0.45113 0.75325 0.0
H1648 H 0.34355 0.48855 0.83802 0.0
H1649 H 0.38105 0.47514 0.77796 0.0
H1650 H 0.30998 0.43499 0.83785 0.0
H1651 H 0.29196 0.44954 0.81974 0.0
H1652 H 0.30938 0.46446 0.84591 0.0
H1653 H 0.35589 0.41895 0.76396 0.0
H1654 H 0.36843 0.44375 0.75004 0.0
H1655 H 0.33722 0.4334 0.74653 0.0
C1656 C 0.33118 0.69167 0.82598 0.0
C1657 C 0.34558 0.71173 0.83672 0.0
C1658 C 0.33836 0.67061 0.82683 0.0
C1659 C 0.36042 0.66956 0.83881 0.0
C1660 C 0.37497 0.68971 0.84982 0.0
C1661 C 0.3674 0.71055 0.8486 0.0
C1662 C 0.32238 0.6495 0.81482 0.0
C1663 C 0.39854 0.68925 0.8629 0.0
C1664 C 0.36988 0.61299 0.86003 0.0
C1665 C 0.3829 0.60514 0.84252 0.0
C1666 C 0.36251 0.63393 0.85905 0.0
C1667 C 0.36818 0.64733 0.84004 0.0
C1668 C 0.38126 0.6395 0.82227 0.0
C1669 C 0.38851 0.61851 0.82375 0.0
C1670 C 0.34868 0.64173 0.8784 0.0
C1671 C 0.38755 0.65328 0.80167 0.0
H1672 H 0.31433 0.69242 0.8167 0.0
H1673 H 0.37864 0.72595 0.85696 0.0
H1674 H 0.33146 0.64126 0.80117 0.0
H1675 H 0.31793 0.63708 0.82807 0.0
H1676 H 0.30586 0.65323 0.80609 0.0
H1677 H 0.40773 0.7064 0.87056 0.0
H1678 H 0.39635 0.67794 0.87754 0.0
H1679 H 0.40982 0.6822 0.85062 0.0
H1680 H 0.36549 0.60279 0.87462 0.0
H1681 H 0.39853 0.61256 0.81013 0.0
H1682 H 0.33139 0.64432 0.8705 0.0
H1683 H 0.35802 0.6583 0.88739 0.0
H1684 H 0.3458 0.62935 0.89202 0.0
H1685 H 0.37139 0.65627 0.79156 0.0
H1686 H 0.39771 0.64475 0.78926 0.0
H1687 H 0.39806 0.67016 0.80844 0.0
C1688 C 0.83747 0.50013 0.43851 0.0
C1689 C 0.85144 0.52171 0.44423 0.0
C1690 C 0.82589 0.48837 0.45587 0.0
C1691 C 0.82836 0.4984 0.47961 0.0
C1692 C 0.84315 0.5198 0.48575 0.0
C1693 C 0.85451 0.53125 0.46795 0.0
C1694 C 0.81031 0.46552 0.44859 0.0
C1695 C 0.84633 0.53093 0.51089 0.0
C1696 C 0.77519 0.47659 0.51068 0.0
C1697 C 0.7822 0.45844 0.52183 0.0
C1698 C 0.79073 0.49096 0.4984 0.0
C1699 C 0.81384 0.48708 0.49724 0.0
C1700 C 0.82166 0.47012 0.51027 0.0
C1701 C 0.80571 0.45597 0.52248 0.0
C1702 C 0.78175 0.50903 0.485 0.0
C1703 C 0.84627 0.46567 0.50972 0.0
H1704 H 0.83512 0.49256 0.42028 0.0
H1705 H 0.8654 0.54788 0.47254 0.0
H1706 H 0.81528 0.45261 0.4601 0.0
H1707 H 0.79185 0.46663 0.45095 0.0
H1708 H 0.81131 0.45954 0.42972 0.0
H1709 H 0.86052 0.5462 0.51336 0.0
H1710 H 0.82977 0.53614 0.51529 0.0
H1711 H 0.85041 0.51876 0.52377 0.0
H1712 H 0.75713 0.47882 0.5104 0.0
H1713 H 0.8113 0.44206 0.53116 0.0
H1714 H 0.77984 0.50383 0.46559 0.0
H1715 H 0.79435 0.52539 0.48813 0.0
H1716 H 0.76447 0.51182 0.4902 0.0
H1717 H 0.84786 0.45673 0.49225 0.0
H1718 H 0.85084 0.45495 0.52396 0.0
H1719 H 0.85918 0.48185 0.51171 0.0
C1720 C 0.67139 0.88062 0.85566 0.0
C1721 C 0.69249 0.88415 0.84506 0.0
C1722 C 0.65761 0.89757 0.8569 0.0
C1723 C 0.6652 0.91854 0.84742 0.0
C1724 C 0.6863 0.92203 0.83641 0.0
C1725 C 0.69962 0.90482 0.83532 0.0
C1726 C 0.63514 0.89319 0.86864 0.0
C1727 C 0.69507 0.94417 0.82614 0.0
C1728 C 0.62495 0.95969 0.83187 0.0
C1729 C 0.63125 0.97653 0.85099 0.0
C1730 C 0.63497 0.94008 0.83103 0.0
C1731 C 0.65174 0.93731 0.84969 0.0
C1732 C 0.65733 0.95374 0.86955 0.0
C1733 C 0.64698 0.97311 0.86998 0.0
C1734 C 0.62841 0.92285 0.80965 0.0
C1735 C 0.67515 0.95146 0.8898 0.0
H1736 H 0.66571 0.86468 0.86317 0.0
H1737 H 0.71586 0.90773 0.82705 0.0
H1738 H 0.63645 0.9053 0.88467 0.0
H1739 H 0.62031 0.89607 0.85633 0.0
H1740 H 0.63108 0.87561 0.87406 0.0
H1741 H 0.71154 0.94398 0.81768 0.0
H1742 H 0.68161 0.94779 0.81263 0.0
H1743 H 0.69829 0.95835 0.84043 0.0
H1744 H 0.61271 0.96213 0.81718 0.0
H1745 H 0.65188 0.98597 0.88489 0.0
H1746 H 0.62405 0.90544 0.81539 0.0
H1747 H 0.64355 0.92332 0.79897 0.0
H1748 H 0.61326 0.92615 0.79802 0.0
H1749 H 0.67094 0.93446 0.89655 0.0
H1750 H 0.67603 0.96463 0.90485 0.0
H1751 H 0.69274 0.95302 0.8833 0.0
C1752 C 0.63796 0.50556 0.01997 0.0
C1753 C 0.64128 0.48871 0.00289 0.0
C1754 C 0.64399 0.52864 0.01628 0.0
C1755 C 0.65289 0.53486 0.99467 0.0
C1756 C 0.65416 0.51776 0.97649 0.0
C1757 C 0.64887 0.49482 0.98105 0.0
C1758 C 0.64282 0.54625 0.03634 0.0
C1759 C 0.6626 0.5237 0.95285 0.0
C1760 C 0.66434 0.59822 0.98617 0.0
C1761 C 0.68847 0.60402 0.99311 0.0
C1762 C 0.65249 0.57552 0.98551 0.0
C1763 C 0.66496 0.55864 0.99302 0.0
C1764 C 0.68932 0.56455 1.00003 0.0
C1765 C 0.70078 0.58701 0.99956 0.0
C1766 C 0.62667 0.56972 0.97716 0.0
C1767 C 0.70324 0.5473 0.00883 0.0
H1768 H 0.6322 0.50073 0.03691 0.0
H1769 H 0.65124 0.48168 0.96779 0.0
H1770 H 0.66087 0.55433 0.0438 0.0
H1771 H 0.63408 0.55984 0.02971 0.0
H1772 H 0.63328 0.53878 0.05093 0.0
H1773 H 0.65826 0.50892 0.93922 0.0
H1774 H 0.65474 0.53788 0.94622 0.0
H1775 H 0.6819 0.52941 0.95506 0.0
H1776 H 0.6548 0.61135 0.98116 0.0
H1777 H 0.71939 0.59146 0.00527 0.0
H1778 H 0.61646 0.56717 0.99272 0.0
H1779 H 0.62251 0.55366 0.96532 0.0
H1780 H 0.62074 0.58345 0.96748 0.0
H1781 H 0.69547 0.53953 0.02423 0.0
H1782 H 0.7219 0.55491 0.01441 0.0
H1783 H 0.70261 0.53342 0.99462 0.0
C1784 C 0.21673 0.70291 0.28795 0.0
C1785 C 0.23938 0.70508 0.28075 0.0
C1786 C 0.20274 0.68143 0.28877 0.0
C1787 C 0.21155 0.66167 0.28205 0.0
C1788 C 0.23422 0.66373 0.27435 0.0
C1789 C 0.2479 0.68542 0.27386 0.0
C1790 C 0.17865 0.67988 0.29714 0.0
C1791 C 0.2441 0.64304 0.26683 0.0
C1792 C 0.18314 0.60696 0.30587 0.0
C1793 C 0.16672 0.59717 0.2867 0.0
C1794 C 0.19824 0.62773 0.30441 0.0
C1795 C 0.197 0.63884 0.28322 0.0
C1796 C 0.18114 0.6286 0.26348 0.0
C1797 C 0.16614 0.60793 0.26548 0.0
C1798 C 0.21494 0.63817 0.32585 0.0
C1799 C 0.17951 0.6398 0.24049 0.0
H1800 H 0.21004 0.718 0.29335 0.0
H1801 H 0.26536 0.68694 0.2682 0.0
H1802 H 0.16521 0.6705 0.28313 0.0
H1803 H 0.17747 0.67021 0.31313 0.0
H1804 H 0.17435 0.69687 0.30164 0.0
H1805 H 0.26182 0.64759 0.26075 0.0
H1806 H 0.24521 0.63235 0.28193 0.0
H1807 H 0.23229 0.63254 0.25218 0.0
H1808 H 0.18369 0.59879 0.32233 0.0
H1809 H 0.15361 0.60042 0.25051 0.0
H1810 H 0.2103 0.65445 0.33254 0.0
H1811 H 0.2331 0.64211 0.32081 0.0
H1812 H 0.21457 0.62685 0.34055 0.0
H1813 H 0.17328 0.65606 0.24363 0.0
H1814 H 0.16735 0.62891 0.22631 0.0
H1815 H 0.19706 0.64389 0.23398 0.0
C1816 C 0.83131 0.55895 0.08814 0.0
C1817 C 0.84762 0.5651 0.10823 0.0
C1818 C 0.82249 0.57551 0.07575 0.0
C1819 C 0.83079 0.59883 0.08316 0.0
C1820 C 0.84806 0.60516 0.10282 0.0
C1821 C 0.85596 0.58818 0.11542 0.0
C1822 C 0.80364 0.56799 0.05527 0.0
C1823 C 0.85794 0.62981 0.11071 0.0
C1824 C 0.81569 0.6368 0.03568 0.0
C1825 C 0.79532 0.64304 0.04332 0.0
C1826 C 0.82858 0.62385 0.04946 0.0
C1827 C 0.82038 0.61633 0.07092 0.0
C1828 C 0.8005 0.62361 0.07928 0.0
C1829 C 0.78842 0.63719 0.06554 0.0
C1830 C 0.8502 0.61718 0.04039 0.0
C1831 C 0.79082 0.61559 0.10177 0.0
H1832 H 0.82471 0.54111 0.08267 0.0
H1833 H 0.86871 0.59296 0.13087 0.0
H1834 H 0.78762 0.5746 0.05909 0.0
H1835 H 0.8095 0.57507 0.03877 0.0
H1836 H 0.79897 0.5492 0.0519 0.0
H1837 H 0.87286 0.63186 0.12477 0.0
H1838 H 0.86392 0.63892 0.09531 0.0
H1839 H 0.84411 0.63812 0.11776 0.0
H1840 H 0.82114 0.64141 0.01856 0.0
H1841 H 0.77257 0.64182 0.07144 0.0
H1842 H 0.84628 0.59899 0.03351 0.0
H1843 H 0.86456 0.61928 0.05504 0.0
H1844 H 0.85643 0.6274 0.0258 0.0
H1845 H 0.78399 0.59701 0.0991 0.0
H1846 H 0.7764 0.62422 0.10681 0.0
H1847 H 0.80481 0.61856 0.11681 0.0
C1848 C 0.12003 0.03449 0.06252 0.0
C1849 C 0.09555 0.03052 0.06202 0.0
C1850 C 0.13193 0.01676 0.05693 0.0
C1851 C 0.11908 0.99441 0.05099 0.0
C1852 C 0.0944 0.99018 0.05094 0.0
C1853 C 0.08291 0.00831 0.05628 0.0
C1854 C 0.15825 0.02206 0.05693 0.0
C1855 C 0.08014 0.96654 0.04501 0.0
C1856 C 0.14981 0.95662 0.01311 0.0
C1857 C 0.16096 0.94542 0.03037 0.0
C1858 C 0.13529 0.97185 0.01947 0.0
C1859 C 0.13156 0.97583 0.04368 0.0
C1860 C 0.14148 0.96345 0.06099 0.0
C1861 C 0.15618 0.94846 0.05415 0.0
C1862 C 0.12514 0.98472 0.00045 0.0
C1863 C 0.13758 0.96693 0.08693 0.0
H1864 H 0.12993 0.05159 0.06692 0.0
H1865 H 0.064 0.00507 0.05605 0.0
H1866 H 0.16648 0.01153 0.06923 0.0
H1867 H 0.16312 0.01778 0.03885 0.0
H1868 H 0.16568 0.04025 0.06237 0.0
H1869 H 0.06127 0.96585 0.0471 0.0
H1870 H 0.08188 0.96049 0.02637 0.0
H1871 H 0.08685 0.95456 0.05668 0.0
H1872 H 0.15332 0.95435 0.99467 0.0
H1873 H 0.16466 0.93984 0.0676 0.0
H1874 H 0.1333 0.003 0.0035 0.0
H1875 H 0.10603 0.98346 0.00133 0.0
H1876 H 0.12812 0.97836 0.98225 0.0
H1877 H 0.14698 0.98404 0.09443 0.0
H1878 H 0.14396 0.95404 0.09759 0.0
H1879 H 0.11869 0.96618 0.08887 0.0
loop_
_geom_bond_atom_site_label_1
_geom_bond_atom_site_label_2
_geom_bond_distance
_geom_bond_site_symmetry_2
_ccdc_geom_bond_type
O0 Cd1 2.300 . S
O0 C7 1.275 . S
Cd1 O0 2.300 . S
Cd1 O9 2.381 . S
Cd1 O10 2.378 . S
O2 Cd3 2.385 . S
O2 C7 1.255 . S
Cd3 O2 2.385 . S
Cd3 O4 2.317 . S
O4 Cd3 2.317 . S
O4 C5 1.232 . S
C5 O4 1.232 . S
C5 O6 1.218 . S
O6 C5 1.218 . S
C7 O0 1.275 . S
C7 O2 1.255 . S
C8 O9 1.258 . S
C8 O10 1.256 . S
O9 Cd1 2.381 . S
O9 C8 1.258 . S
O10 Cd1 2.378 . S
O10 C8 1.256 . S
O11 Cd12 2.300 . S
O11 C18 1.275 . S
Cd12 O11 2.300 . S
Cd12 O20 2.381 . S
Cd12 O21 2.378 . S
O13 Cd14 2.385 . S
O13 C18 1.255 . S
Cd14 O13 2.385 . S
Cd14 O15 2.317 . S
O15 Cd14 2.317 . S
O15 C16 1.232 . S
C16 O15 1.232 . S
C16 O17 1.218 . S
O17 C16 1.218 . S
C18 O11 1.275 . S
C18 O13 1.255 . S
C19 O20 1.258 . S
C19 O21 1.256 . S
O20 Cd12 2.381 . S
O20 C19 1.258 . S
O21 Cd12 2.378 . S
O21 C19 1.256 . S
O22 Cd23 2.300 . S
O22 C29 1.275 . S
Cd23 O22 2.300 . S
Cd23 O31 2.381 . S
Cd23 O32 2.378 . S
O24 Cd25 2.385 . S
O24 C29 1.255 . S
Cd25 O24 2.385 . S
Cd25 O26 2.317 . S
O26 Cd25 2.317 . S
O26 C27 1.232 . S
C27 O26 1.232 . S
C27 O28 1.218 . S
O28 C27 1.218 . S
C29 O22 1.275 . S
C29 O24 1.255 . S
C30 O31 1.258 . S
C30 O32 1.256 . S
O31 Cd23 2.381 . S
O31 C30 1.258 . S
O32 Cd23 2.378 . S
O32 C30 1.256 . S
O33 Cd34 2.300 . S
O33 C40 1.275 . S
Cd34 O33 2.300 . S
Cd34 O42 2.381 . S
Cd34 O43 2.378 . S
O35 Cd36 2.385 . S
O35 C40 1.255 . S
Cd36 O35 2.385 . S
Cd36 O37 2.317 . S
O37 Cd36 2.317 . S
O37 C38 1.232 . S
C38 O37 1.232 . S
C38 O39 1.218 . S
O39 C38 1.218 . S
C40 O33 1.275 . S
C40 O35 1.255 . S
C41 O42 1.258 . S
C41 O43 1.256 . S
O42 Cd34 2.381 . S
O42 C41 1.258 . S
O43 Cd34 2.378 . S
O43 C41 1.256 . S
O44 Cd45 2.300 . S
O44 C51 1.275 . S
Cd45 O44 2.300 . S
Cd45 O53 2.381 . S
Cd45 O54 2.378 . S
O46 Cd47 2.385 1_565 S
O46 C51 1.255 . S
Cd47 O46 2.385 1_545 S
Cd47 O48 2.317 1_545 S
O48 Cd47 2.317 1_565 S
O48 C49 1.232 . S
C49 O48 1.232 . S
C49 O50 1.218 1_565 S
O50 C49 1.218 1_545 S
C51 O44 1.275 . S
C51 O46 1.255 . S
C52 O53 1.258 . S
C52 O54 1.256 . S
O53 Cd45 2.381 . S
O53 C52 1.258 . S
O54 Cd45 2.378 . S
O54 C52 1.256 . S
O55 Cd56 2.300 . S
O55 C62 1.275 . S
Cd56 O55 2.300 . S
Cd56 O64 2.381 . S
Cd56 O65 2.378 . S
O57 Cd58 2.385 . S
O57 C62 1.255 . S
Cd58 O57 2.385 . S
Cd58 O59 2.317 . S
O59 Cd58 2.317 . S
O59 C60 1.232 . S
C60 O59 1.232 . S
C60 O61 1.218 . S
O61 C60 1.218 . S
C62 O55 1.275 . S
C62 O57 1.255 . S
C63 O64 1.258 . S
C63 O65 1.256 . S
O64 Cd56 2.381 . S
O64 C63 1.258 . S
O65 Cd56 2.378 . S
O65 C63 1.256 . S
O66 Cd67 2.300 . S
O66 C73 1.275 . S
Cd67 O66 2.300 . S
Cd67 O75 2.381 . S
Cd67 O76 2.378 . S
O68 Cd69 2.385 . S
O68 C73 1.255 . S
Cd69 O68 2.385 . S
Cd69 O70 2.317 . S
O70 Cd69 2.317 . S
O70 C71 1.232 . S
C71 O70 1.232 . S
C71 O72 1.218 . S
O72 C71 1.218 . S
C73 O66 1.275 . S
C73 O68 1.255 . S
C74 O75 1.258 . S
C74 O76 1.256 . S
O75 Cd67 2.381 . S
O75 C74 1.258 . S
O76 Cd67 2.378 . S
O76 C74 1.256 . S
O77 Cd78 2.300 . S
O77 C84 1.275 . S
Cd78 O77 2.300 . S
Cd78 O86 2.381 . S
Cd78 O87 2.378 . S
O79 Cd80 2.385 . S
O79 C84 1.255 . S
Cd80 O79 2.385 . S
Cd80 O81 2.317 . S
O81 Cd80 2.317 . S
O81 C82 1.232 . S
C82 O81 1.232 . S
C82 O83 1.218 . S
O83 C82 1.218 . S
C84 O77 1.275 . S
C84 O79 1.255 . S
C85 O86 1.258 . S
C85 O87 1.256 . S
O86 Cd78 2.381 . S
O86 C85 1.258 . S
O87 Cd78 2.378 . S
O87 C85 1.256 . S
O88 Cd89 2.300 . S
O88 C95 1.275 . S
Cd89 O88 2.300 . S
Cd89 O97 2.381 . S
Cd89 O98 2.378 . S
O90 Cd91 2.385 . S
O90 C95 1.255 . S
Cd91 O90 2.385 . S
Cd91 O92 2.317 . S
O92 Cd91 2.317 . S
O92 C93 1.232 . S
C93 O92 1.232 . S
C93 O94 1.218 . S
O94 C93 1.218 . S
C95 O88 1.275 . S
C95 O90 1.255 . S
C96 O97 1.258 . S
C96 O98 1.256 . S
O97 Cd89 2.381 . S
O97 C96 1.258 . S
O98 Cd89 2.378 . S
O98 C96 1.256 . S
O99 Cd100 2.300 . S
O99 C106 1.275 . S
Cd100 O99 2.300 . S
Cd100 O108 2.381 . S
Cd100 O109 2.378 . S
O101 Cd102 2.385 . S
O101 C106 1.255 . S
Cd102 O101 2.385 . S
Cd102 O103 2.317 . S
O103 Cd102 2.317 . S
O103 C104 1.232 . S
C104 O103 1.232 . S
C104 O105 1.218 . S
O105 C104 1.218 . S
C106 O99 1.275 . S
C106 O101 1.255 . S
C107 O108 1.258 . S
C107 O109 1.256 . S
O108 Cd100 2.381 . S
O108 C107 1.258 . S
O109 Cd100 2.378 . S
O109 C107 1.256 . S
O110 Cd111 2.300 . S
O110 C117 1.275 . S
Cd111 O110 2.300 . S
Cd111 O119 2.381 . S
Cd111 O120 2.378 . S
O112 Cd113 2.385 . S
O112 C117 1.255 . S
Cd113 O112 2.385 . S
Cd113 O114 2.317 . S
O114 Cd113 2.317 . S
O114 C115 1.232 . S
C115 O114 1.232 . S
C115 O116 1.218 . S
O116 C115 1.218 . S
C117 O110 1.275 . S
C117 O112 1.255 . S
C118 O119 1.258 . S
C118 O120 1.256 . S
O119 Cd111 2.381 . S
O119 C118 1.258 . S
O120 Cd111 2.378 . S
O120 C118 1.256 . S
O121 Cd122 2.300 . S
O121 C128 1.275 . S
Cd122 O121 2.300 . S
Cd122 O130 2.381 . S
Cd122 O131 2.378 . S
O123 Cd124 2.385 . S
O123 C128 1.255 . S
Cd124 O123 2.385 . S
Cd124 O125 2.317 . S
O125 Cd124 2.317 . S
O125 C126 1.232 . S
C126 O125 1.232 . S
C126 O127 1.218 . S
O127 C126 1.218 . S
C128 O121 1.275 . S
C128 O123 1.255 . S
C129 O130 1.258 . S
C129 O131 1.256 . S
O130 Cd122 2.381 . S
O130 C129 1.258 . S
O131 Cd122 2.378 . S
O131 C129 1.256 . S
O132 Cd133 2.300 . S
O132 C139 1.275 . S
Cd133 O132 2.300 . S
Cd133 O141 2.381 . S
Cd133 O142 2.378 . S
O134 Cd135 2.385 . S
O134 C139 1.255 . S
Cd135 O134 2.385 . S
Cd135 O136 2.317 . S
O136 Cd135 2.317 . S
O136 C137 1.232 . S
C137 O136 1.232 . S
C137 O138 1.218 . S
O138 C137 1.218 . S
C139 O132 1.275 . S
C139 O134 1.255 . S
C140 O141 1.258 . S
C140 O142 1.256 . S
O141 Cd133 2.381 . S
O141 C140 1.258 . S
O142 Cd133 2.378 . S
O142 C140 1.256 . S
O143 Cd144 2.300 . S
O143 C150 1.275 . S
Cd144 O143 2.300 . S
Cd144 O152 2.381 . S
Cd144 O153 2.378 . S
O145 Cd146 2.385 . S
O145 C150 1.255 . S
Cd146 O145 2.385 . S
Cd146 O147 2.317 . S
O147 Cd146 2.317 . S
O147 C148 1.232 . S
C148 O147 1.232 . S
C148 O149 1.218 . S
O149 C148 1.218 . S
C150 O143 1.275 . S
C150 O145 1.255 . S
C151 O152 1.258 . S
C151 O153 1.256 . S
O152 Cd144 2.381 . S
O152 C151 1.258 . S
O153 Cd144 2.378 . S
O153 C151 1.256 . S
O154 Cd155 2.300 . S
O154 C161 1.275 . S
Cd155 O154 2.300 . S
Cd155 O163 2.381 . S
Cd155 O164 2.378 . S
O156 Cd157 2.385 . S
O156 C161 1.255 . S
Cd157 O156 2.385 . S
Cd157 O158 2.317 . S
O158 Cd157 2.317 . S
O158 C159 1.232 . S
C159 O158 1.232 . S
C159 O160 1.218 . S
O160 C159 1.218 . S
C161 O154 1.275 . S
C161 O156 1.255 . S
C162 O163 1.258 . S
C162 O164 1.256 . S
O163 Cd155 2.381 . S
O163 C162 1.258 . S
O164 Cd155 2.378 . S
O164 C162 1.256 . S
O165 Cd166 2.300 . S
O165 C172 1.275 . S
Cd166 O165 2.300 . S
Cd166 O174 2.381 . S
Cd166 O175 2.378 . S
O167 Cd168 2.385 . S
O167 C172 1.255 . S
Cd168 O167 2.385 . S
Cd168 O169 2.317 . S
O169 Cd168 2.317 . S
O169 C170 1.232 . S
C170 O169 1.232 . S
C170 O171 1.218 . S
O171 C170 1.218 . S
C172 O165 1.275 . S
C172 O167 1.255 . S
C173 O174 1.258 . S
C173 O175 1.256 . S
O174 Cd166 2.381 . S
O174 C173 1.258 . S
O175 Cd166 2.378 . S
O175 C173 1.256 . S
O176 Cd177 2.223 . S
O176 C184 1.315 . S
Cd177 O176 2.223 . S
Cd177 O180 2.297 . S
Cd177 O181 2.439 . S
Cd177 O187 2.240 . S
Cd178 O179 2.240 . S
Cd178 O186 2.223 . S
Cd178 O188 2.297 . S
Cd178 O189 2.439 . S
O179 Cd178 2.240 . S
O179 C184 1.279 . S
O180 Cd177 2.297 . S
O180 C182 1.247 . S
O181 Cd177 2.439 . S
O181 C182 1.208 . S
C182 O180 1.247 . S
C182 O181 1.208 . S
C183 O188 1.247 . S
C183 O189 1.208 . S
C184 O176 1.315 . S
C184 O179 1.279 . S
C185 O186 1.315 . S
C185 O187 1.279 . S
O186 Cd178 2.223 . S
O186 C185 1.315 . S
O187 Cd177 2.240 . S
O187 C185 1.279 . S
O188 Cd178 2.297 . S
O188 C183 1.247 . S
O189 Cd178 2.439 . S
O189 C183 1.208 . S
O190 Cd191 2.223 . S
O190 C198 1.315 . S
Cd191 O190 2.223 . S
Cd191 O194 2.297 . S
Cd191 O195 2.439 . S
Cd191 O201 2.240 . S
Cd192 O193 2.240 . S
Cd192 O200 2.223 . S
Cd192 O202 2.297 . S
Cd192 O203 2.439 . S
O193 Cd192 2.240 . S
O193 C198 1.279 . S
O194 Cd191 2.297 . S
O194 C196 1.247 . S
O195 Cd191 2.439 . S
O195 C196 1.208 . S
C196 O194 1.247 . S
C196 O195 1.208 . S
C197 O202 1.247 . S
C197 O203 1.208 . S
C198 O190 1.315 . S
C198 O193 1.279 . S
C199 O200 1.315 . S
C199 O201 1.279 . S
O200 Cd192 2.223 . S
O200 C199 1.315 . S
O201 Cd191 2.240 . S
O201 C199 1.279 . S
O202 Cd192 2.297 . S
O202 C197 1.247 . S
O203 Cd192 2.439 . S
O203 C197 1.208 . S
O204 Cd205 2.223 1_556 S
O204 C212 1.315 . S
Cd205 O204 2.223 1_554 S
Cd205 O208 2.297 . S
Cd205 O209 2.439 . S
Cd205 O215 2.240 . S
Cd206 O207 2.242 . S
Cd206 O214 2.233 . S
Cd206 O216 2.290 1_556 S
Cd206 O217 2.418 1_556 S
O207 Cd206 2.242 . S
O207 C212 1.279 . S
O208 Cd205 2.297 . S
O208 C210 1.247 . S
O209 Cd205 2.439 . S
O209 C210 1.208 . S
C210 O208 1.247 . S
C210 O209 1.208 . S
C211 O216 1.247 . S
C211 O217 1.208 . S
C212 O204 1.315 . S
C212 O207 1.279 . S
C213 O214 1.315 . S
C213 O215 1.279 1_556 S
O214 Cd206 2.233 . S
O214 C213 1.315 . S
O215 Cd205 2.240 . S
O215 C213 1.279 1_554 S
O216 Cd206 2.290 1_554 S
O216 C211 1.247 . S
O217 Cd206 2.418 1_554 S
O217 C211 1.208 . S
O218 Cd219 2.223 . S
O218 C226 1.315 . S
Cd219 O218 2.223 . S
Cd219 O222 2.297 . S
Cd219 O223 2.439 . S
Cd219 O229 2.240 . S
Cd220 O221 2.240 . S
Cd220 O228 2.223 . S
Cd220 O230 2.297 . S
Cd220 O231 2.439 . S
O221 Cd220 2.240 . S
O221 C226 1.279 . S
O222 Cd219 2.297 . S
O222 C224 1.247 . S
O223 Cd219 2.439 . S
O223 C224 1.208 . S
C224 O222 1.247 . S
C224 O223 1.208 . S
C225 O230 1.247 . S
C225 O231 1.208 . S
C226 O218 1.315 . S
C226 O221 1.279 . S
C227 O228 1.315 . S
C227 O229 1.279 . S
O228 Cd220 2.223 . S
O228 C227 1.315 . S
O229 Cd219 2.240 . S
O229 C227 1.279 . S
O230 Cd220 2.297 . S
O230 C225 1.247 . S
O231 Cd220 2.439 . S
O231 C225 1.208 . S
O232 Cd233 2.223 . S
O232 C240 1.315 . S
Cd233 O232 2.223 . S
Cd233 O236 2.297 . S
Cd233 O237 2.439 . S
Cd233 O243 2.240 . S
Cd234 O235 2.240 . S
Cd234 O242 2.223 . S
Cd234 O244 2.297 . S
Cd234 O245 2.439 . S
O235 Cd234 2.240 . S
O235 C240 1.279 . S
O236 Cd233 2.297 . S
O236 C238 1.247 . S
O237 Cd233 2.439 . S
O237 C238 1.208 . S
C238 O236 1.247 . S
C238 O237 1.208 . S
C239 O244 1.247 . S
C239 O245 1.208 . S
C240 O232 1.315 . S
C240 O235 1.279 . S
C241 O242 1.315 . S
C241 O243 1.279 . S
O242 Cd234 2.223 . S
O242 C241 1.315 . S
O243 Cd233 2.240 . S
O243 C241 1.279 . S
O244 Cd234 2.297 . S
O244 C239 1.247 . S
O245 Cd234 2.439 . S
O245 C239 1.208 . S
O246 Cd247 2.223 . S
O246 C254 1.315 . S
Cd247 O246 2.223 . S
Cd247 O250 2.297 . S
Cd247 O251 2.439 . S
Cd247 O257 2.240 . S
Cd248 O249 2.240 . S
Cd248 O256 2.223 . S
Cd248 O258 2.297 . S
Cd248 O259 2.439 . S
O249 Cd248 2.240 . S
O249 C254 1.279 . S
O250 Cd247 2.297 . S
O250 C252 1.247 . S
O251 Cd247 2.439 . S
O251 C252 1.208 . S
C252 O250 1.247 . S
C252 O251 1.208 . S
C253 O258 1.247 . S
C253 O259 1.208 . S
C254 O246 1.315 . S
C254 O249 1.279 . S
C255 O256 1.315 . S
C255 O257 1.279 . S
O256 Cd248 2.223 . S
O256 C255 1.315 . S
O257 Cd247 2.240 . S
O257 C255 1.279 . S
O258 Cd248 2.297 . S
O258 C253 1.247 . S
O259 Cd248 2.439 . S
O259 C253 1.208 . S
O260 Cd261 2.223 . S
O260 C268 1.315 . S
Cd261 O260 2.223 . S
Cd261 O264 2.297 . S
Cd261 O265 2.439 . S
Cd261 O271 2.240 . S
Cd262 O263 2.240 . S
Cd262 O270 2.223 . S
Cd262 O272 2.297 . S
Cd262 O273 2.439 . S
O263 Cd262 2.240 . S
O263 C268 1.279 . S
O264 Cd261 2.297 . S
O264 C266 1.247 . S
O265 Cd261 2.439 . S
O265 C266 1.208 . S
C266 O264 1.247 . S
C266 O265 1.208 . S
C267 O272 1.247 . S
C267 O273 1.208 . S
C268 O260 1.315 . S
C268 O263 1.279 . S
C269 O270 1.315 . S
C269 O271 1.279 . S
O270 Cd262 2.223 . S
O270 C269 1.315 . S
O271 Cd261 2.240 . S
O271 C269 1.279 . S
O272 Cd262 2.297 . S
O272 C267 1.247 . S
O273 Cd262 2.439 . S
O273 C267 1.208 . S
O274 Cd275 2.223 1_545 S
O274 C282 1.315 . S
Cd275 O274 2.223 1_565 S
Cd275 O278 2.297 . S
Cd275 O279 2.439 . S
Cd275 O285 2.240 1_565 S
Cd276 O277 2.240 . S
Cd276 O284 2.223 . S
Cd276 O286 2.297 . S
Cd276 O287 2.439 1_545 S
O277 Cd276 2.240 . S
O277 C282 1.279 . S
O278 Cd275 2.297 . S
O278 C280 1.247 . S
O279 Cd275 2.439 . S
O279 C280 1.208 . S
C280 O278 1.247 . S
C280 O279 1.208 . S
C281 O286 1.247 1_565 S
C281 O287 1.208 . S
C282 O274 1.315 . S
C282 O277 1.279 . S
C283 O284 1.315 . S
C283 O285 1.279 . S
O284 Cd276 2.223 . S
O284 C283 1.315 . S
O285 Cd275 2.240 1_545 S
O285 C283 1.279 . S
O286 Cd276 2.297 . S
O286 C281 1.247 1_545 S
O287 Cd276 2.439 1_565 S
O287 C281 1.208 . S
O288 Cd289 2.223 . S
O288 C296 1.315 . S
Cd289 O288 2.223 . S
Cd289 O292 2.297 1_656 S
Cd289 O293 2.439 1_655 S
Cd289 O299 2.240 . S
Cd290 O291 2.240 . S
Cd290 O298 2.223 1_455 S
Cd290 O300 2.297 . S
Cd290 O301 2.439 . S
O291 Cd290 2.240 . S
O291 C296 1.279 1_455 S
O292 Cd289 2.297 1_454 S
O292 C294 1.247 1_554 S
O293 Cd289 2.439 1_455 S
O293 C294 1.208 . S
C294 O292 1.247 1_556 S
C294 O293 1.208 . S
C295 O300 1.247 . S
C295 O301 1.208 . S
C296 O288 1.315 . S
C296 O291 1.279 1_655 S
C297 O298 1.315 . S
C297 O299 1.279 . S
O298 Cd290 2.223 1_655 S
O298 C297 1.315 . S
O299 Cd289 2.240 . S
O299 C297 1.279 . S
O300 Cd290 2.297 . S
O300 C295 1.247 . S
O301 Cd290 2.439 . S
O301 C295 1.208 . S
O302 Cd303 2.223 . S
O302 C310 1.315 . S
Cd303 O302 2.223 . S
Cd303 O306 2.297 . S
Cd303 O307 2.439 . S
Cd303 O313 2.240 . S
Cd304 O305 2.240 . S
Cd304 O312 2.223 . S
Cd304 O314 2.297 . S
Cd304 O315 2.439 . S
O305 Cd304 2.240 . S
O305 C310 1.279 . S
O306 Cd303 2.297 . S
O306 C308 1.247 . S
O307 Cd303 2.439 . S
O307 C308 1.208 . S
C308 O306 1.247 . S
C308 O307 1.208 . S
C309 O314 1.247 . S
C309 O315 1.208 . S
C310 O302 1.315 . S
C310 O305 1.279 . S
C311 O312 1.315 . S
C311 O313 1.279 . S
O312 Cd304 2.223 . S
O312 C311 1.315 . S
O313 Cd303 2.240 . S
O313 C311 1.279 . S
O314 Cd304 2.297 . S
O314 C309 1.247 . S
O315 Cd304 2.439 . S
O315 C309 1.208 . S
O316 Cd317 2.223 1_655 S
O316 C324 1.315 . S
Cd317 O316 2.223 1_455 S
Cd317 O320 2.297 . S
Cd317 O321 2.439 . S
Cd317 O327 2.240 . S
Cd318 O319 2.240 . S
Cd318 O326 2.223 1_455 S
Cd318 O328 2.297 . S
Cd318 O329 2.439 . S
O319 Cd318 2.240 . S
O319 C324 1.279 1_455 S
O320 Cd317 2.297 . S
O320 C322 1.247 . S
O321 Cd317 2.439 . S
O321 C322 1.208 . S
C322 O320 1.247 . S
C322 O321 1.208 . S
C323 O328 1.247 . S
C323 O329 1.208 . S
C324 O316 1.315 . S
C324 O319 1.279 1_655 S
C325 O326 1.315 . S
C325 O327 1.279 1_655 S
O326 Cd318 2.223 1_655 S
O326 C325 1.315 . S
O327 Cd317 2.240 . S
O327 C325 1.279 1_455 S
O328 Cd318 2.297 . S
O328 C323 1.247 . S
O329 Cd318 2.439 . S
O329 C323 1.208 . S
O330 Cd331 2.223 . S
O330 C338 1.315 . S
Cd331 O330 2.223 . S
Cd331 O334 2.297 . S
Cd331 O335 2.439 . S
Cd331 O341 2.240 . S
Cd332 O333 2.240 . S
Cd332 O340 2.223 . S
Cd332 O342 2.297 . S
Cd332 O343 2.439 . S
O333 Cd332 2.240 . S
O333 C338 1.279 . S
O334 Cd331 2.297 . S
O334 C336 1.247 . S
O335 Cd331 2.439 . S
O335 C336 1.208 . S
C336 O334 1.247 . S
C336 O335 1.208 . S
C337 O342 1.247 . S
C337 O343 1.208 . S
C338 O330 1.315 . S
C338 O333 1.279 . S
C339 O340 1.315 . S
C339 O341 1.279 . S
O340 Cd332 2.223 . S
O340 C339 1.315 . S
O341 Cd331 2.240 . S
O341 C339 1.279 . S
O342 Cd332 2.297 . S
O342 C337 1.247 . S
O343 Cd332 2.439 . S
O343 C337 1.208 . S
C344 C345 1.391 . S
C344 C346 1.394 . S
C344 H360 0.931 . S
C345 C344 1.391 . S
C345 C349 1.376 . S
C346 C344 1.394 . S
C346 C347 1.369 . S
C346 C350 1.531 . S
C347 C346 1.369 . S
C347 C348 1.410 . S
C347 C355 1.503 . S
C348 C347 1.410 . S
C348 C349 1.392 . S
C348 C351 1.511 . S
C349 C345 1.376 . S
C349 C348 1.392 . S
C349 H361 0.929 . S
C350 C346 1.531 . S
C350 H362 0.960 . S
C350 H363 0.962 . S
C350 H364 0.960 . S
C351 C348 1.511 . S
C351 H365 0.961 . S
C351 H366 0.961 . S
C351 H367 0.961 . S
C352 C353 1.370 . S
C352 C354 1.363 . S
C352 H368 0.931 . S
C353 C352 1.370 . S
C353 C357 1.401 1_556 S
C354 C352 1.363 . S
C354 C355 1.370 . S
C354 C358 1.524 . S
C355 C347 1.503 . S
C355 C354 1.370 . S
C355 C356 1.403 . S
C356 C355 1.403 . S
C356 C357 1.374 1_556 S
C356 C359 1.539 . S
C357 C353 1.401 1_554 S
C357 C356 1.374 1_554 S
C357 H369 0.966 . S
C358 C354 1.524 . S
C358 H370 0.956 . S
C358 H371 0.961 . S
C358 H372 0.961 . S
C359 C356 1.539 . S
C359 H373 0.958 . S
C359 H374 0.961 . S
C359 H375 0.960 . S
H360 C344 0.931 . S
H361 C349 0.929 . S
H362 C350 0.960 . S
H363 C350 0.962 . S
H364 C350 0.960 . S
H365 C351 0.961 . S
H366 C351 0.961 . S
H367 C351 0.961 . S
H368 C352 0.931 . S
H369 C357 0.966 . S
H370 C358 0.956 . S
H371 C358 0.961 . S
H372 C358 0.961 . S
H373 C359 0.958 . S
H374 C359 0.961 . S
H375 C359 0.960 . S
C376 C377 1.391 . S
C376 C378 1.394 . S
C376 H392 0.931 . S
C377 C376 1.391 . S
C377 C381 1.376 . S
C378 C376 1.394 . S
C378 C379 1.369 1_655 S
C378 C382 1.531 1_655 S
C379 C378 1.369 1_455 S
C379 C380 1.410 1_455 S
C379 C387 1.503 . S
C380 C379 1.410 1_655 S
C380 C381 1.392 . S
C380 C383 1.511 . S
C381 C377 1.376 . S
C381 C380 1.392 . S
C381 H393 0.929 . S
C382 C378 1.531 1_455 S
C382 H394 0.960 . S
C382 H395 0.962 . S
C382 H396 0.949 1_455 S
C383 C380 1.511 . S
C383 H397 0.961 . S
C383 H398 0.961 1_655 S
C383 H399 0.961 . S
C384 C385 1.370 . S
C384 C386 1.363 . S
C384 H400 0.931 . S
C385 C384 1.370 . S
C385 C389 1.408 . S
C386 C384 1.363 . S
C386 C387 1.370 . S
C386 C390 1.524 . S
C387 C379 1.503 . S
C387 C386 1.370 . S
C387 C388 1.403 . S
C388 C387 1.403 . S
C388 C389 1.404 . S
C388 C391 1.539 1_455 S
C389 C385 1.408 . S
C389 C388 1.404 . S
C389 H401 0.930 . S
C390 C386 1.524 . S
C390 H402 0.956 . S
C390 H403 0.961 . S
C390 H404 0.961 . S
C391 C388 1.539 1_655 S
C391 H405 0.958 . S
C391 H406 0.961 . S
C391 H407 0.960 . S
H392 C376 0.931 . S
H393 C381 0.929 . S
H394 C382 0.960 . S
H395 C382 0.962 . S
H396 C382 0.949 1_655 S
H397 C383 0.961 . S
H398 C383 0.961 1_455 S
H399 C383 0.961 . S
H400 C384 0.931 . S
H401 C389 0.930 . S
H402 C390 0.956 . S
H403 C390 0.961 . S
H404 C390 0.961 . S
H405 C391 0.958 . S
H406 C391 0.961 . S
H407 C391 0.960 . S
C408 C409 1.391 . S
C408 C410 1.394 . S
C408 H424 0.931 . S
C409 C408 1.391 . S
C409 C413 1.376 . S
C410 C408 1.394 . S
C410 C411 1.369 . S
C410 C414 1.531 . S
C411 C410 1.369 . S
C411 C412 1.410 . S
C411 C419 1.503 . S
C412 C411 1.410 . S
C412 C413 1.392 . S
C412 C415 1.511 . S
C413 C409 1.376 . S
C413 C412 1.392 . S
C413 H425 0.929 . S
C414 C410 1.531 . S
C414 H426 0.960 . S
C414 H427 0.962 . S
C414 H428 0.960 . S
C415 C412 1.511 . S
C415 H429 0.961 . S
C415 H430 0.961 . S
C415 H431 0.961 . S
C416 C417 1.370 . S
C416 C418 1.363 . S
C416 H432 0.931 . S
C417 C416 1.370 . S
C417 C421 1.408 . S
C418 C416 1.363 . S
C418 C419 1.370 . S
C418 C422 1.524 . S
C419 C411 1.503 . S
C419 C418 1.370 . S
C419 C420 1.403 . S
C420 C419 1.403 . S
C420 C421 1.404 . S
C420 C423 1.539 . S
C421 C417 1.408 . S
C421 C420 1.404 . S
C421 H433 0.930 . S
C422 C418 1.524 . S
C422 H434 0.956 . S
C422 H435 0.961 . S
C422 H436 0.961 . S
C423 C420 1.539 . S
C423 H437 0.958 . S
C423 H438 0.961 . S
C423 H439 0.960 . S
H424 C408 0.931 . S
H425 C413 0.929 . S
H426 C414 0.960 . S
H427 C414 0.962 . S
H428 C414 0.960 . S
H429 C415 0.961 . S
H430 C415 0.961 . S
H431 C415 0.961 . S
H432 C416 0.931 . S
H433 C421 0.930 . S
H434 C422 0.956 . S
H435 C422 0.961 . S
H436 C422 0.961 . S
H437 C423 0.958 . S
H438 C423 0.961 . S
H439 C423 0.960 . S
C440 C441 1.391 . S
C440 C442 1.394 1_455 S
C440 H456 0.931 . S
C441 C440 1.391 . S
C441 C445 1.376 1_565 S
C442 C440 1.394 1_655 S
C442 C443 1.369 1_565 S
C442 C446 1.531 . S
C443 C442 1.369 1_545 S
C443 C444 1.410 1_655 S
C443 C451 1.503 . S
C444 C443 1.410 1_455 S
C444 C445 1.392 . S
C444 C447 1.511 . S
C445 C441 1.376 1_545 S
C445 C444 1.392 . S
C445 H457 0.929 . S
C446 C442 1.531 . S
C446 H458 0.960 . S
C446 H459 0.962 . S
C446 H460 0.960 . S
C447 C444 1.511 . S
C447 H461 0.961 . S
C447 H462 0.961 . S
C447 H463 0.961 . S
C448 C449 1.370 . S
C448 C450 1.363 . S
C448 H464 0.931 . S
C449 C448 1.370 . S
C449 C453 1.408 . S
C450 C448 1.363 . S
C450 C451 1.370 . S
C450 C454 1.524 . S
C451 C443 1.503 . S
C451 C450 1.370 . S
C451 C452 1.403 . S
C452 C451 1.403 . S
C452 C453 1.404 . S
C452 C455 1.539 . S
C453 C449 1.408 . S
C453 C452 1.404 . S
C453 H465 0.930 . S
C454 C450 1.524 . S
C454 H466 0.956 1_545 S
C454 H467 0.961 . S
C454 H468 0.961 . S
C455 C452 1.539 . S
C455 H469 0.958 . S
C455 H470 0.961 . S
C455 H471 0.960 . S
H456 C440 0.931 . S
H457 C445 0.929 . S
H458 C446 0.960 . S
H459 C446 0.962 . S
H460 C446 0.960 . S
H461 C447 0.961 . S
H462 C447 0.961 . S
H463 C447 0.961 . S
H464 C448 0.931 . S
H465 C453 0.930 . S
H466 C454 0.956 1_565 S
H467 C454 0.961 . S
H468 C454 0.961 . S
H469 C455 0.958 . S
H470 C455 0.961 . S
H471 C455 0.960 . S
C472 C473 1.391 . S
C472 C474 1.394 . S
C472 H488 0.931 . S
C473 C472 1.391 . S
C473 C477 1.376 . S
C474 C472 1.394 . S
C474 C475 1.369 . S
C474 C478 1.531 . S
C475 C474 1.369 . S
C475 C476 1.410 . S
C475 C483 1.503 . S
C476 C475 1.410 . S
C476 C477 1.392 . S
C476 C479 1.511 . S
C477 C473 1.376 . S
C477 C476 1.392 . S
C477 H489 0.929 . S
C478 C474 1.531 . S
C478 H490 0.960 . S
C478 H491 0.962 . S
C478 H492 0.960 . S
C479 C476 1.511 . S
C479 H493 0.961 . S
C479 H494 0.961 . S
C479 H495 0.961 . S
C480 C481 1.370 . S
C480 C482 1.363 . S
C480 H496 0.931 . S
C481 C480 1.370 . S
C481 C485 1.408 . S
C482 C480 1.363 . S
C482 C483 1.370 . S
C482 C486 1.524 . S
C483 C475 1.503 . S
C483 C482 1.370 . S
C483 C484 1.403 . S
C484 C483 1.403 . S
C484 C485 1.404 . S
C484 C487 1.539 . S
C485 C481 1.408 . S
C485 C484 1.404 . S
C485 H497 0.930 . S
C486 C482 1.524 . S
C486 H498 0.956 . S
C486 H499 0.961 . S
C486 H500 0.961 . S
C487 C484 1.539 . S
C487 H501 0.958 . S
C487 H502 0.961 . S
C487 H503 0.960 . S
H488 C472 0.931 . S
H489 C477 0.929 . S
H490 C478 0.960 . S
H491 C478 0.962 . S
H492 C478 0.960 . S
H493 C479 0.961 . S
H494 C479 0.961 . S
H495 C479 0.961 . S
H496 C480 0.931 . S
H497 C485 0.930 . S
H498 C486 0.956 . S
H499 C486 0.961 . S
H500 C486 0.961 . S
H501 C487 0.958 . S
H502 C487 0.961 . S
H503 C487 0.960 . S
C504 C505 1.391 . S
C504 C506 1.394 . S
C504 H520 0.931 . S
C505 C504 1.391 . S
C505 C509 1.376 . S
C506 C504 1.394 . S
C506 C507 1.369 . S
C506 C510 1.531 . S
C507 C506 1.369 . S
C507 C508 1.410 . S
C507 C515 1.503 . S
C508 C507 1.410 . S
C508 C509 1.392 . S
C508 C511 1.511 . S
C509 C505 1.376 . S
C509 C508 1.392 . S
C509 H521 0.929 . S
C510 C506 1.531 . S
C510 H522 0.960 . S
C510 H523 0.962 . S
C510 H524 0.960 . S
C511 C508 1.511 . S
C511 H525 0.961 . S
C511 H526 0.961 . S
C511 H527 0.961 . S
C512 C513 1.370 . S
C512 C514 1.363 . S
C512 H528 0.931 . S
C513 C512 1.370 . S
C513 C517 1.408 . S
C514 C512 1.363 . S
C514 C515 1.370 . S
C514 C518 1.524 . S
C515 C507 1.503 . S
C515 C514 1.370 . S
C515 C516 1.403 . S
C516 C515 1.403 . S
C516 C517 1.404 . S
C516 C519 1.539 . S
C517 C513 1.408 . S
C517 C516 1.404 . S
C517 H529 0.930 . S
C518 C514 1.524 . S
C518 H530 0.956 . S
C518 H531 0.961 . S
C518 H532 0.961 . S
C519 C516 1.539 . S
C519 H533 0.958 . S
C519 H534 0.961 . S
C519 H535 0.960 . S
H520 C504 0.931 . S
H521 C509 0.929 . S
H522 C510 0.960 . S
H523 C510 0.962 . S
H524 C510 0.960 . S
H525 C511 0.961 . S
H526 C511 0.961 . S
H527 C511 0.961 . S
H528 C512 0.931 . S
H529 C517 0.930 . S
H530 C518 0.956 . S
H531 C518 0.961 . S
H532 C518 0.961 . S
H533 C519 0.958 . S
H534 C519 0.961 . S
H535 C519 0.960 . S
C536 C537 1.391 . S
C536 C538 1.394 . S
C536 H552 0.931 . S
C537 C536 1.391 . S
C537 C541 1.376 . S
C538 C536 1.394 . S
C538 C539 1.369 . S
C538 C542 1.531 . S
C539 C538 1.369 . S
C539 C540 1.410 . S
C539 C547 1.503 . S
C540 C539 1.410 . S
C540 C541 1.392 . S
C540 C543 1.511 . S
C541 C537 1.376 . S
C541 C540 1.392 . S
C541 H553 0.929 . S
C542 C538 1.531 . S
C542 H554 0.960 . S
C542 H555 0.962 . S
C542 H556 0.960 . S
C543 C540 1.511 . S
C543 H557 0.961 . S
C543 H558 0.961 . S
C543 H559 0.961 . S
C544 C545 1.370 . S
C544 C546 1.363 . S
C544 H560 0.931 . S
C545 C544 1.370 . S
C545 C549 1.408 . S
C546 C544 1.363 . S
C546 C547 1.370 . S
C546 C550 1.524 . S
C547 C539 1.503 . S
C547 C546 1.370 . S
C547 C548 1.403 . S
C548 C547 1.403 . S
C548 C549 1.404 . S
C548 C551 1.539 . S
C549 C545 1.408 . S
C549 C548 1.404 . S
C549 H561 0.930 . S
C550 C546 1.524 . S
C550 H562 0.956 . S
C550 H563 0.961 . S
C550 H564 0.961 . S
C551 C548 1.539 . S
C551 H565 0.958 . S
C551 H566 0.961 . S
C551 H567 0.960 . S
H552 C536 0.931 . S
H553 C541 0.929 . S
H554 C542 0.960 . S
H555 C542 0.962 . S
H556 C542 0.960 . S
H557 C543 0.961 . S
H558 C543 0.961 . S
H559 C543 0.961 . S
H560 C544 0.931 . S
H561 C549 0.930 . S
H562 C550 0.956 . S
H563 C550 0.961 . S
H564 C550 0.961 . S
H565 C551 0.958 . S
H566 C551 0.961 . S
H567 C551 0.960 . S
C568 C569 1.391 . S
C568 C570 1.394 . S
C568 H584 0.931 . S
C569 C568 1.391 . S
C569 C573 1.376 . S
C570 C568 1.394 . S
C570 C571 1.369 . S
C570 C574 1.531 . S
C571 C570 1.369 . S
C571 C572 1.410 . S
C571 C579 1.503 . S
C572 C571 1.410 . S
C572 C573 1.392 . S
C572 C575 1.511 . S
C573 C569 1.376 . S
C573 C572 1.392 . S
C573 H585 0.929 . S
C574 C570 1.531 . S
C574 H586 0.960 . S
C574 H587 0.962 1_565 S
C574 H588 0.960 1_565 S
C575 C572 1.511 . S
C575 H589 0.961 . S
C575 H590 0.961 . S
C575 H591 0.961 . S
C576 C577 1.370 . S
C576 C578 1.363 . S
C576 H592 0.931 . S
C577 C576 1.370 . S
C577 C581 1.408 . S
C578 C576 1.363 . S
C578 C579 1.370 . S
C578 C582 1.524 . S
C579 C571 1.503 . S
C579 C578 1.370 . S
C579 C580 1.403 . S
C580 C579 1.403 . S
C580 C581 1.404 . S
C580 C583 1.539 . S
C581 C577 1.408 . S
C581 C580 1.404 . S
C581 H593 0.930 . S
C582 C578 1.524 . S
C582 H594 0.956 . S
C582 H595 0.961 . S
C582 H596 0.961 . S
C583 C580 1.539 . S
C583 H597 0.958 . S
C583 H598 0.961 . S
C583 H599 0.960 . S
H584 C568 0.931 . S
H585 C573 0.929 . S
H586 C574 0.960 . S
H587 C574 0.962 1_545 S
H588 C574 0.960 1_545 S
H589 C575 0.961 . S
H590 C575 0.961 . S
H591 C575 0.961 . S
H592 C576 0.931 . S
H593 C581 0.930 . S
H594 C582 0.956 . S
H595 C582 0.961 . S
H596 C582 0.961 . S
H597 C583 0.958 . S
H598 C583 0.961 . S
H599 C583 0.960 . S
C600 C601 1.391 . S
C600 C602 1.394 . S
C600 H616 0.931 . S
C601 C600 1.391 . S
C601 C605 1.376 . S
C602 C600 1.394 . S
C602 C603 1.369 . S
C602 C606 1.531 . S
C603 C602 1.369 . S
C603 C604 1.410 . S
C603 C611 1.503 . S
C604 C603 1.410 . S
C604 C605 1.392 . S
C604 C607 1.511 . S
C605 C601 1.376 . S
C605 C604 1.392 . S
C605 H617 0.929 . S
C606 C602 1.531 . S
C606 H618 0.960 . S
C606 H619 0.962 . S
C606 H620 0.960 . S
C607 C604 1.511 . S
C607 H621 0.961 . S
C607 H622 0.961 . S
C607 H623 0.961 . S
C608 C609 1.370 . S
C608 C610 1.363 . S
C608 H624 0.931 . S
C609 C608 1.370 . S
C609 C613 1.408 . S
C610 C608 1.363 . S
C610 C611 1.370 . S
C610 C614 1.524 . S
C611 C603 1.503 . S
C611 C610 1.370 . S
C611 C612 1.403 . S
C612 C611 1.403 . S
C612 C613 1.404 . S
C612 C615 1.539 . S
C613 C609 1.408 . S
C613 C612 1.404 . S
C613 H625 0.930 . S
C614 C610 1.524 . S
C614 H626 0.956 . S
C614 H627 0.961 . S
C614 H628 0.961 . S
C615 C612 1.539 . S
C615 H629 0.958 . S
C615 H630 0.961 . S
C615 H631 0.960 . S
H616 C600 0.931 . S
H617 C605 0.929 . S
H618 C606 0.960 . S
H619 C606 0.962 . S
H620 C606 0.960 . S
H621 C607 0.961 . S
H622 C607 0.961 . S
H623 C607 0.961 . S
H624 C608 0.931 . S
H625 C613 0.930 . S
H626 C614 0.956 . S
H627 C614 0.961 . S
H628 C614 0.961 . S
H629 C615 0.958 . S
H630 C615 0.961 . S
H631 C615 0.960 . S
C632 C633 1.391 . S
C632 C634 1.394 . S
C632 H648 0.931 . S
C633 C632 1.391 . S
C633 C637 1.376 . S
C634 C632 1.394 . S
C634 C635 1.369 . S
C634 C638 1.531 . S
C635 C634 1.369 . S
C635 C636 1.410 . S
C635 C643 1.503 . S
C636 C635 1.410 . S
C636 C637 1.392 . S
C636 C639 1.511 . S
C637 C633 1.376 . S
C637 C636 1.392 . S
C637 H649 0.929 . S
C638 C634 1.531 . S
C638 H650 0.960 . S
C638 H651 0.962 . S
C638 H652 0.960 . S
C639 C636 1.511 . S
C639 H653 0.961 . S
C639 H654 0.961 . S
C639 H655 0.961 . S
C640 C641 1.370 . S
C640 C642 1.363 . S
C640 H656 0.931 . S
C641 C640 1.370 . S
C641 C645 1.408 . S
C642 C640 1.363 . S
C642 C643 1.370 . S
C642 C646 1.524 . S
C643 C635 1.503 . S
C643 C642 1.370 . S
C643 C644 1.403 . S
C644 C643 1.403 . S
C644 C645 1.404 . S
C644 C647 1.539 . S
C645 C641 1.408 . S
C645 C644 1.404 . S
C645 H657 0.930 . S
C646 C642 1.524 . S
C646 H658 0.956 . S
C646 H659 0.961 . S
C646 H660 0.961 . S
C647 C644 1.539 . S
C647 H661 0.958 . S
C647 H662 0.961 . S
C647 H663 0.960 . S
H648 C632 0.931 . S
H649 C637 0.929 . S
H650 C638 0.960 . S
H651 C638 0.962 . S
H652 C638 0.960 . S
H653 C639 0.961 . S
H654 C639 0.961 . S
H655 C639 0.961 . S
H656 C640 0.931 . S
H657 C645 0.930 . S
H658 C646 0.956 . S
H659 C646 0.961 . S
H660 C646 0.961 . S
H661 C647 0.958 . S
H662 C647 0.961 . S
H663 C647 0.960 . S
C664 C665 1.391 . S
C664 C666 1.394 . S
C664 H680 0.931 . S
C665 C664 1.391 . S
C665 C669 1.376 . S
C666 C664 1.394 . S
C666 C667 1.369 . S
C666 C670 1.531 . S
C667 C666 1.369 . S
C667 C668 1.410 . S
C667 C675 1.503 . S
C668 C667 1.410 . S
C668 C669 1.392 . S
C668 C671 1.511 . S
C669 C665 1.376 . S
C669 C668 1.392 . S
C669 H681 0.929 . S
C670 C666 1.531 . S
C670 H682 0.960 . S
C670 H683 0.962 . S
C670 H684 0.960 . S
C671 C668 1.511 . S
C671 H685 0.961 . S
C671 H686 0.961 . S
C671 H687 0.961 . S
C672 C673 1.370 . S
C672 C674 1.363 . S
C672 H688 0.931 . S
C673 C672 1.370 . S
C673 C677 1.408 . S
C674 C672 1.363 . S
C674 C675 1.370 . S
C674 C678 1.524 . S
C675 C667 1.503 . S
C675 C674 1.370 . S
C675 C676 1.403 . S
C676 C675 1.403 . S
C676 C677 1.404 . S
C676 C679 1.539 . S
C677 C673 1.408 . S
C677 C676 1.404 . S
C677 H689 0.930 . S
C678 C674 1.524 . S
C678 H690 0.956 . S
C678 H691 0.961 . S
C678 H692 0.961 . S
C679 C676 1.539 . S
C679 H693 0.958 . S
C679 H694 0.961 . S
C679 H695 0.960 . S
H680 C664 0.931 . S
H681 C669 0.929 . S
H682 C670 0.960 . S
H683 C670 0.962 . S
H684 C670 0.960 . S
H685 C671 0.961 . S
H686 C671 0.961 . S
H687 C671 0.961 . S
H688 C672 0.931 . S
H689 C677 0.930 . S
H690 C678 0.956 . S
H691 C678 0.961 . S
H692 C678 0.961 . S
H693 C679 0.958 . S
H694 C679 0.961 . S
H695 C679 0.960 . S
C696 C697 1.391 . S
C696 C698 1.394 . S
C696 H712 0.931 . S
C697 C696 1.391 . S
C697 C701 1.376 . S
C698 C696 1.394 . S
C698 C699 1.369 . S
C698 C702 1.531 . S
C699 C698 1.369 . S
C699 C700 1.410 . S
C699 C707 1.503 . S
C700 C699 1.410 . S
C700 C701 1.392 . S
C700 C703 1.511 . S
C701 C697 1.376 . S
C701 C700 1.392 . S
C701 H713 0.929 . S
C702 C698 1.531 . S
C702 H714 0.960 . S
C702 H715 0.962 . S
C702 H716 0.960 . S
C703 C700 1.511 . S
C703 H717 0.961 . S
C703 H718 0.961 . S
C703 H719 0.961 . S
C704 C705 1.370 . S
C704 C706 1.363 . S
C704 H720 0.931 . S
C705 C704 1.370 . S
C705 C709 1.408 . S
C706 C704 1.363 . S
C706 C707 1.370 . S
C706 C710 1.524 . S
C707 C699 1.503 . S
C707 C706 1.370 . S
C707 C708 1.403 . S
C708 C707 1.403 . S
C708 C709 1.404 . S
C708 C711 1.539 . S
C709 C705 1.408 . S
C709 C708 1.404 . S
C709 H721 0.930 . S
C710 C706 1.524 . S
C710 H722 0.956 . S
C710 H723 0.961 . S
C710 H724 0.961 . S
C711 C708 1.539 . S
C711 H725 0.958 . S
C711 H726 0.961 . S
C711 H727 0.960 . S
H712 C696 0.931 . S
H713 C701 0.929 . S
H714 C702 0.960 . S
H715 C702 0.962 . S
H716 C702 0.960 . S
H717 C703 0.961 . S
H718 C703 0.961 . S
H719 C703 0.961 . S
H720 C704 0.931 . S
H721 C709 0.930 . S
H722 C710 0.956 . S
H723 C710 0.961 . S
H724 C710 0.961 . S
H725 C711 0.958 . S
H726 C711 0.961 . S
H727 C711 0.960 . S
C728 C729 1.391 . S
C728 C730 1.394 . S
C728 H744 0.931 . S
C729 C728 1.391 . S
C729 C733 1.376 . S
C730 C728 1.394 . S
C730 C731 1.369 . S
C730 C734 1.531 . S
C731 C730 1.369 . S
C731 C732 1.410 . S
C731 C739 1.503 . S
C732 C731 1.410 . S
C732 C733 1.392 . S
C732 C735 1.511 . S
C733 C729 1.376 . S
C733 C732 1.392 . S
C733 H745 0.929 . S
C734 C730 1.531 . S
C734 H746 0.960 . S
C734 H747 0.962 . S
C734 H748 0.960 . S
C735 C732 1.511 . S
C735 H749 0.961 . S
C735 H750 0.961 . S
C735 H751 0.961 . S
C736 C737 1.370 . S
C736 C738 1.363 . S
C736 H752 0.931 . S
C737 C736 1.370 . S
C737 C741 1.408 . S
C738 C736 1.363 . S
C738 C739 1.370 . S
C738 C742 1.524 . S
C739 C731 1.503 . S
C739 C738 1.370 . S
C739 C740 1.403 . S
C740 C739 1.403 . S
C740 C741 1.404 . S
C740 C743 1.539 . S
C741 C737 1.408 . S
C741 C740 1.404 . S
C741 H753 0.930 . S
C742 C738 1.524 . S
C742 H754 0.956 . S
C742 H755 0.961 . S
C742 H756 0.961 . S
C743 C740 1.539 . S
C743 H757 0.958 . S
C743 H758 0.961 . S
C743 H759 0.960 . S
H744 C728 0.931 . S
H745 C733 0.929 . S
H746 C734 0.960 . S
H747 C734 0.962 . S
H748 C734 0.960 . S
H749 C735 0.961 . S
H750 C735 0.961 . S
H751 C735 0.961 . S
H752 C736 0.931 . S
H753 C741 0.930 . S
H754 C742 0.956 . S
H755 C742 0.961 . S
H756 C742 0.961 . S
H757 C743 0.958 . S
H758 C743 0.961 . S
H759 C743 0.960 . S
C760 C761 1.391 . S
C760 C762 1.394 . S
C760 H776 0.931 . S
C761 C760 1.391 . S
C761 C765 1.376 . S
C762 C760 1.394 . S
C762 C763 1.369 . S
C762 C766 1.531 . S
C763 C762 1.369 . S
C763 C764 1.410 . S
C763 C771 1.503 . S
C764 C763 1.410 . S
C764 C765 1.392 . S
C764 C767 1.511 . S
C765 C761 1.376 . S
C765 C764 1.392 . S
C765 H777 0.929 . S
C766 C762 1.531 . S
C766 H778 0.960 . S
C766 H779 0.962 . S
C766 H780 0.960 . S
C767 C764 1.511 . S
C767 H781 0.961 . S
C767 H782 0.961 . S
C767 H783 0.961 . S
C768 C769 1.370 . S
C768 C770 1.363 . S
C768 H784 0.931 . S
C769 C768 1.370 . S
C769 C773 1.408 . S
C770 C768 1.363 . S
C770 C771 1.370 . S
C770 C774 1.524 . S
C771 C763 1.503 . S
C771 C770 1.370 . S
C771 C772 1.403 . S
C772 C771 1.403 . S
C772 C773 1.404 . S
C772 C775 1.539 . S
C773 C769 1.408 . S
C773 C772 1.404 . S
C773 H785 0.930 . S
C774 C770 1.524 . S
C774 H786 0.956 . S
C774 H787 0.961 . S
C774 H788 0.961 . S
C775 C772 1.539 . S
C775 H789 0.983 . S
C775 H790 0.961 . S
C775 H791 0.960 . S
H776 C760 0.931 . S
H777 C765 0.929 . S
H778 C766 0.960 . S
H779 C766 0.962 . S
H780 C766 0.960 . S
H781 C767 0.961 . S
H782 C767 0.961 . S
H783 C767 0.961 . S
H784 C768 0.931 . S
H785 C773 0.930 . S
H786 C774 0.956 . S
H787 C774 0.961 . S
H788 C774 0.961 . S
H789 C775 0.983 . S
H790 C775 0.961 . S
H791 C775 0.960 . S
C792 C793 1.391 . S
C792 C794 1.394 . S
C792 H808 0.931 . S
C793 C792 1.391 . S
C793 C797 1.376 . S
C794 C792 1.394 . S
C794 C795 1.369 . S
C794 C798 1.531 . S
C795 C794 1.369 . S
C795 C796 1.410 . S
C795 C803 1.503 . S
C796 C795 1.410 . S
C796 C797 1.392 . S
C796 C799 1.511 . S
C797 C793 1.376 . S
C797 C796 1.392 . S
C797 H809 0.929 . S
C798 C794 1.531 . S
C798 H810 0.960 . S
C798 H811 0.962 . S
C798 H812 0.960 . S
C799 C796 1.511 . S
C799 H813 0.961 . S
C799 H814 0.961 . S
C799 H815 0.961 . S
C800 C801 1.370 . S
C800 C802 1.363 . S
C800 H816 0.931 . S
C801 C800 1.370 . S
C801 C805 1.408 . S
C802 C800 1.363 . S
C802 C803 1.370 . S
C802 C806 1.524 . S
C803 C795 1.503 . S
C803 C802 1.370 . S
C803 C804 1.403 . S
C804 C803 1.403 . S
C804 C805 1.404 . S
C804 C807 1.539 . S
C805 C801 1.408 . S
C805 C804 1.404 . S
C805 H817 0.930 . S
C806 C802 1.524 . S
C806 H818 0.956 . S
C806 H819 0.961 . S
C806 H820 0.961 . S
C807 C804 1.539 . S
C807 H821 0.958 . S
C807 H822 0.961 . S
C807 H823 0.960 . S
H808 C792 0.931 . S
H809 C797 0.929 . S
H810 C798 0.960 . S
H811 C798 0.962 . S
H812 C798 0.960 . S
H813 C799 0.961 . S
H814 C799 0.961 . S
H815 C799 0.961 . S
H816 C800 0.931 . S
H817 C805 0.930 . S
H818 C806 0.956 . S
H819 C806 0.961 . S
H820 C806 0.961 . S
H821 C807 0.958 . S
H822 C807 0.961 . S
H823 C807 0.960 . S
C824 C825 1.391 . S
C824 C826 1.394 . S
C824 H840 0.931 . S
C825 C824 1.391 . S
C825 C829 1.376 . S
C826 C824 1.394 . S
C826 C827 1.369 . S
C826 C830 1.531 . S
C827 C826 1.369 . S
C827 C828 1.410 . S
C827 C835 1.503 . S
C828 C827 1.410 . S
C828 C829 1.392 . S
C828 C831 1.511 . S
C829 C825 1.376 . S
C829 C828 1.392 . S
C829 H841 0.929 . S
C830 C826 1.531 . S
C830 H842 0.960 . S
C830 H843 0.962 . S
C830 H844 0.960 . S
C831 C828 1.511 . S
C831 H845 0.961 . S
C831 H846 0.961 . S
C831 H847 0.961 . S
C832 C833 1.346 1_455 S
C832 C834 1.360 1_455 S
C832 H848 0.959 . S
C833 C832 1.346 1_655 S
C833 C837 1.408 . S
C834 C832 1.360 1_655 S
C834 C835 1.370 . S
C834 C838 1.524 1_655 S
C835 C827 1.503 . S
C835 C834 1.370 . S
C835 C836 1.403 . S
C836 C835 1.403 . S
C836 C837 1.404 . S
C836 C839 1.539 . S
C837 C833 1.408 . S
C837 C836 1.404 . S
C837 H849 0.930 . S
C838 C834 1.524 1_455 S
C838 H850 0.956 . S
C838 H851 0.961 . S
C838 H852 0.961 . S
C839 C836 1.539 . S
C839 H853 0.958 . S
C839 H854 0.961 . S
C839 H855 0.960 . S
H840 C824 0.931 . S
H841 C829 0.929 . S
H842 C830 0.960 . S
H843 C830 0.962 . S
H844 C830 0.960 . S
H845 C831 0.961 . S
H846 C831 0.961 . S
H847 C831 0.961 . S
H848 C832 0.959 . S
H849 C837 0.930 . S
H850 C838 0.956 . S
H851 C838 0.961 . S
H852 C838 0.961 . S
H853 C839 0.958 . S
H854 C839 0.961 . S
H855 C839 0.960 . S
C856 C857 1.391 . S
C856 C858 1.394 . S
C856 H872 0.931 . S
C857 C856 1.391 . S
C857 C861 1.376 . S
C858 C856 1.394 . S
C858 C859 1.369 . S
C858 C862 1.531 . S
C859 C858 1.369 . S
C859 C860 1.410 . S
C859 C867 1.503 . S
C860 C859 1.410 . S
C860 C861 1.392 . S
C860 C863 1.511 . S
C861 C857 1.376 . S
C861 C860 1.392 . S
C861 H873 0.929 . S
C862 C858 1.531 . S
C862 H874 0.960 . S
C862 H875 0.962 . S
C862 H876 0.960 . S
C863 C860 1.511 . S
C863 H877 0.961 . S
C863 H878 0.961 . S
C863 H879 0.961 . S
C864 C865 1.370 1_565 S
C864 C866 1.363 . S
C864 H880 0.931 . S
C865 C864 1.370 1_545 S
C865 C869 1.408 . S
C866 C864 1.363 . S
C866 C867 1.370 . S
C866 C870 1.524 . S
C867 C859 1.503 . S
C867 C866 1.370 . S
C867 C868 1.403 . S
C868 C867 1.403 . S
C868 C869 1.404 1_565 S
C868 C871 1.539 . S
C869 C865 1.408 . S
C869 C868 1.404 1_545 S
C869 H881 0.930 . S
C870 C866 1.524 . S
C870 H882 0.956 . S
C870 H883 0.961 . S
C870 H884 0.961 . S
C871 C868 1.539 . S
C871 H885 0.958 . S
C871 H886 0.961 1_565 S
C871 H887 0.960 . S
H872 C856 0.931 . S
H873 C861 0.929 . S
H874 C862 0.960 . S
H875 C862 0.962 . S
H876 C862 0.960 . S
H877 C863 0.961 . S
H878 C863 0.961 . S
H879 C863 0.961 . S
H880 C864 0.931 . S
H881 C869 0.930 . S
H882 C870 0.956 . S
H883 C870 0.961 . S
H884 C870 0.961 . S
H885 C871 0.958 . S
H886 C871 0.961 1_545 S
H887 C871 0.960 . S
C888 C889 1.391 . S
C888 C890 1.394 . S
C888 H904 0.931 . S
C889 C888 1.391 . S
C889 C893 1.376 . S
C890 C888 1.394 . S
C890 C891 1.369 . S
C890 C894 1.531 . S
C891 C890 1.369 . S
C891 C892 1.410 . S
C891 C899 1.503 . S
C892 C891 1.410 . S
C892 C893 1.392 . S
C892 C895 1.511 . S
C893 C889 1.376 . S
C893 C892 1.392 . S
C893 H905 0.929 . S
C894 C890 1.531 . S
C894 H906 0.960 . S
C894 H907 0.962 . S
C894 H908 0.960 . S
C895 C892 1.511 . S
C895 H909 0.961 . S
C895 H910 0.961 . S
C895 H911 0.961 . S
C896 C897 1.370 . S
C896 C898 1.363 . S
C896 H912 0.931 . S
C897 C896 1.370 . S
C897 C901 1.408 . S
C898 C896 1.363 . S
C898 C899 1.370 . S
C898 C902 1.524 . S
C899 C891 1.503 . S
C899 C898 1.370 . S
C899 C900 1.403 . S
C900 C899 1.403 . S
C900 C901 1.404 . S
C900 C903 1.539 . S
C901 C897 1.408 . S
C901 C900 1.404 . S
C901 H913 0.930 . S
C902 C898 1.524 . S
C902 H914 0.956 . S
C902 H915 0.961 . S
C902 H916 0.961 . S
C903 C900 1.539 . S
C903 H917 0.958 . S
C903 H918 0.961 . S
C903 H919 0.960 . S
H904 C888 0.931 . S
H905 C893 0.929 . S
H906 C894 0.960 . S
H907 C894 0.962 . S
H908 C894 0.960 . S
H909 C895 0.961 . S
H910 C895 0.961 . S
H911 C895 0.961 . S
H912 C896 0.931 . S
H913 C901 0.930 . S
H914 C902 0.956 . S
H915 C902 0.961 . S
H916 C902 0.961 . S
H917 C903 0.958 . S
H918 C903 0.961 . S
H919 C903 0.960 . S
C920 C921 1.391 . S
C920 C922 1.394 . S
C920 H936 0.931 . S
C921 C920 1.391 . S
C921 C925 1.376 . S
C922 C920 1.394 . S
C922 C923 1.350 1_545 S
C922 C926 1.531 . S
C923 C922 1.350 1_565 S
C923 C924 1.411 1_565 S
C923 C931 1.519 . S
C924 C923 1.411 1_545 S
C924 C925 1.392 . S
C924 C927 1.511 1_546 S
C925 C921 1.376 . S
C925 C924 1.392 . S
C925 H937 0.929 . S
C926 C922 1.531 . S
C926 H938 0.960 1_545 S
C926 H939 0.962 . S
C926 H940 0.960 . S
C927 C924 1.511 1_564 S
C927 H941 0.961 . S
C927 H942 0.961 . S
C927 H943 0.961 1_554 S
C928 C929 1.370 . S
C928 C930 1.363 . S
C928 H944 0.931 . S
C929 C928 1.370 . S
C929 C933 1.408 1_554 S
C930 C928 1.363 . S
C930 C931 1.370 1_554 S
C930 C934 1.524 1_565 S
C931 C923 1.519 . S
C931 C930 1.370 1_556 S
C931 C932 1.403 . S
C932 C931 1.403 . S
C932 C933 1.404 . S
C932 C935 1.539 . S
C933 C929 1.408 1_556 S
C933 C932 1.404 . S
C933 H945 0.930 . S
C934 C930 1.524 1_545 S
C934 H946 0.956 . S
C934 H947 0.961 . S
C934 H948 0.961 . S
C935 C932 1.539 . S
C935 H949 0.958 . S
C935 H950 0.961 . S
C935 H951 0.960 . S
H936 C920 0.931 . S
H937 C925 0.929 . S
H938 C926 0.960 1_565 S
H939 C926 0.962 . S
H940 C926 0.960 . S
H941 C927 0.961 . S
H942 C927 0.961 . S
H943 C927 0.961 1_556 S
H944 C928 0.931 . S
H945 C933 0.930 . S
H946 C934 0.956 . S
H947 C934 0.961 . S
H948 C934 0.961 . S
H949 C935 0.958 . S
H950 C935 0.961 . S
H951 C935 0.960 . S
C952 C953 1.391 . S
C952 C954 1.394 . S
C952 H968 0.931 . S
C953 C952 1.391 . S
C953 C957 1.376 . S
C954 C952 1.394 . S
C954 C955 1.369 . S
C954 C958 1.531 . S
C955 C954 1.369 . S
C955 C956 1.410 . S
C955 C963 1.503 . S
C956 C955 1.410 . S
C956 C957 1.392 . S
C956 C959 1.511 . S
C957 C953 1.376 . S
C957 C956 1.392 . S
C957 H969 0.929 . S
C958 C954 1.531 . S
C958 H970 0.960 . S
C958 H971 0.962 . S
C958 H972 0.960 . S
C959 C956 1.511 . S
C959 H973 0.961 . S
C959 H974 0.961 . S
C959 H975 0.961 . S
C960 C961 1.370 . S
C960 C962 1.363 . S
C960 H976 0.931 . S
C961 C960 1.370 . S
C961 C965 1.408 . S
C962 C960 1.363 . S
C962 C963 1.370 . S
C962 C966 1.524 . S
C963 C955 1.503 . S
C963 C962 1.370 . S
C963 C964 1.403 . S
C964 C963 1.403 . S
C964 C965 1.404 . S
C964 C967 1.539 . S
C965 C961 1.408 . S
C965 C964 1.404 . S
C965 H977 0.930 . S
C966 C962 1.524 . S
C966 H978 0.956 . S
C966 H979 0.961 . S
C966 H980 0.961 . S
C967 C964 1.539 . S
C967 H981 0.958 . S
C967 H982 0.961 . S
C967 H983 0.960 . S
H968 C952 0.931 . S
H969 C957 0.929 . S
H970 C958 0.960 . S
H971 C958 0.962 . S
H972 C958 0.960 . S
H973 C959 0.961 . S
H974 C959 0.961 . S
H975 C959 0.961 . S
H976 C960 0.931 . S
H977 C965 0.930 . S
H978 C966 0.956 . S
H979 C966 0.961 . S
H980 C966 0.961 . S
H981 C967 0.958 . S
H982 C967 0.961 . S
H983 C967 0.960 . S
C984 C985 1.391 . S
C984 C986 1.394 . S
C984 H1000 0.931 1_545 S
C985 C984 1.391 . S
C985 C989 1.376 . S
C986 C984 1.394 . S
C986 C987 1.369 . S
C986 C990 1.531 . S
C987 C986 1.369 . S
C987 C988 1.410 . S
C987 C995 1.503 . S
C988 C987 1.410 . S
C988 C989 1.392 . S
C988 C991 1.511 . S
C989 C985 1.376 . S
C989 C988 1.392 . S
C989 H1001 0.929 . S
C990 C986 1.531 . S
C990 H1002 0.960 . S
C990 H1003 0.962 . S
C990 H1004 0.960 . S
C991 C988 1.511 . S
C991 H1005 0.961 . S
C991 H1006 0.961 . S
C991 H1007 0.961 . S
C992 C993 1.370 . S
C992 C994 1.363 . S
C992 H1008 0.931 . S
C993 C992 1.370 . S
C993 C997 1.408 . S
C994 C992 1.363 . S
C994 C995 1.370 . S
C994 C998 1.524 . S
C995 C987 1.503 . S
C995 C994 1.370 . S
C995 C996 1.403 . S
C996 C995 1.403 . S
C996 C997 1.404 . S
C996 C999 1.539 . S
C997 C993 1.408 . S
C997 C996 1.404 . S
C997 H1009 0.930 . S
C998 C994 1.524 . S
C998 H1010 0.956 . S
C998 H1011 0.961 . S
C998 H1012 0.961 . S
C999 C996 1.539 . S
C999 H1013 0.958 . S
C999 H1014 0.961 . S
C999 H1015 0.960 . S
H1000 C984 0.931 1_565 S
H1001 C989 0.929 . S
H1002 C990 0.960 . S
H1003 C990 0.962 . S
H1004 C990 0.960 . S
H1005 C991 0.961 . S
H1006 C991 0.961 . S
H1007 C991 0.961 . S
H1008 C992 0.931 . S
H1009 C997 0.930 . S
H1010 C998 0.956 . S
H1011 C998 0.961 . S
H1012 C998 0.961 . S
H1013 C999 0.958 . S
H1014 C999 0.961 . S
H1015 C999 0.960 . S
C1016 C1017 1.391 . S
C1016 C1018 1.394 . S
C1016 H1032 0.931 . S
C1017 C1016 1.391 . S
C1017 C1021 1.376 . S
C1018 C1016 1.394 . S
C1018 C1019 1.369 . S
C1018 C1022 1.531 . S
C1019 C1018 1.369 . S
C1019 C1020 1.410 . S
C1019 C1027 1.503 . S
C1020 C1019 1.410 . S
C1020 C1021 1.392 . S
C1020 C1023 1.511 . S
C1021 C1017 1.376 . S
C1021 C1020 1.392 . S
C1021 H1033 0.929 . S
C1022 C1018 1.531 . S
C1022 H1034 0.960 . S
C1022 H1035 0.962 . S
C1022 H1036 0.960 . S
C1023 C1020 1.511 . S
C1023 H1037 0.961 . S
C1023 H1038 0.961 . S
C1023 H1039 0.961 . S
C1024 C1025 1.370 . S
C1024 C1026 1.363 . S
C1024 H1040 0.931 . S
C1025 C1024 1.370 . S
C1025 C1029 1.408 . S
C1026 C1024 1.363 . S
C1026 C1027 1.370 . S
C1026 C1030 1.524 . S
C1027 C1019 1.503 . S
C1027 C1026 1.370 . S
C1027 C1028 1.403 . S
C1028 C1027 1.403 . S
C1028 C1029 1.404 . S
C1028 C1031 1.539 . S
C1029 C1025 1.408 . S
C1029 C1028 1.404 . S
C1029 H1041 0.930 . S
C1030 C1026 1.524 . S
C1030 H1042 0.956 . S
C1030 H1043 0.961 . S
C1030 H1044 0.961 . S
C1031 C1028 1.539 . S
C1031 H1045 0.958 . S
C1031 H1046 0.961 . S
C1031 H1047 0.960 . S
H1032 C1016 0.931 . S
H1033 C1021 0.929 . S
H1034 C1022 0.960 . S
H1035 C1022 0.962 . S
H1036 C1022 0.960 . S
H1037 C1023 0.961 . S
H1038 C1023 0.961 . S
H1039 C1023 0.961 . S
H1040 C1024 0.931 . S
H1041 C1029 0.930 . S
H1042 C1030 0.956 . S
H1043 C1030 0.961 . S
H1044 C1030 0.961 . S
H1045 C1031 0.958 . S
H1046 C1031 0.961 . S
H1047 C1031 0.960 . S
C1048 C1049 1.391 . S
C1048 C1050 1.394 . S
C1048 H1064 0.931 . S
C1049 C1048 1.391 . S
C1049 C1053 1.376 . S
C1050 C1048 1.394 . S
C1050 C1051 1.369 . S
C1050 C1054 1.531 . S
C1051 C1050 1.369 . S
C1051 C1052 1.410 . S
C1051 C1059 1.503 . S
C1052 C1051 1.410 . S
C1052 C1053 1.392 . S
C1052 C1055 1.511 . S
C1053 C1049 1.376 . S
C1053 C1052 1.392 . S
C1053 H1065 0.929 1_545 S
C1054 C1050 1.531 . S
C1054 H1066 0.960 . S
C1054 H1067 0.962 . S
C1054 H1068 0.960 . S
C1055 C1052 1.511 . S
C1055 H1069 0.961 . S
C1055 H1070 0.961 . S
C1055 H1071 0.961 . S
C1056 C1057 1.370 . S
C1056 C1058 1.363 . S
C1056 H1072 0.931 . S
C1057 C1056 1.370 . S
C1057 C1061 1.408 . S
C1058 C1056 1.363 . S
C1058 C1059 1.370 . S
C1058 C1062 1.524 . S
C1059 C1051 1.503 . S
C1059 C1058 1.370 . S
C1059 C1060 1.403 . S
C1060 C1059 1.403 . S
C1060 C1061 1.404 . S
C1060 C1063 1.539 . S
C1061 C1057 1.408 . S
C1061 C1060 1.404 . S
C1061 H1073 0.930 . S
C1062 C1058 1.524 . S
C1062 H1074 0.956 . S
C1062 H1075 0.961 . S
C1062 H1076 0.961 . S
C1063 C1060 1.539 . S
C1063 H1077 0.958 . S
C1063 H1078 0.961 . S
C1063 H1079 0.960 . S
H1064 C1048 0.931 . S
H1065 C1053 0.929 1_565 S
H1066 C1054 0.960 . S
H1067 C1054 0.962 . S
H1068 C1054 0.960 . S
H1069 C1055 0.961 . S
H1070 C1055 0.961 . S
H1071 C1055 0.961 . S
H1072 C1056 0.931 . S
H1073 C1061 0.930 . S
H1074 C1062 0.956 . S
H1075 C1062 0.961 . S
H1076 C1062 0.961 . S
H1077 C1063 0.958 . S
H1078 C1063 0.961 . S
H1079 C1063 0.960 . S
C1080 C1081 1.391 . S
C1080 C1082 1.394 . S
C1080 H1096 0.931 . S
C1081 C1080 1.391 . S
C1081 C1085 1.376 . S
C1082 C1080 1.394 . S
C1082 C1083 1.369 . S
C1082 C1086 1.531 . S
C1083 C1082 1.369 . S
C1083 C1084 1.410 . S
C1083 C1091 1.503 . S
C1084 C1083 1.410 . S
C1084 C1085 1.392 . S
C1084 C1087 1.511 . S
C1085 C1081 1.376 . S
C1085 C1084 1.392 . S
C1085 H1097 0.929 . S
C1086 C1082 1.531 . S
C1086 H1098 0.960 . S
C1086 H1099 0.962 . S
C1086 H1100 0.960 . S
C1087 C1084 1.511 . S
C1087 H1101 0.961 . S
C1087 H1102 0.961 . S
C1087 H1103 0.961 . S
C1088 C1089 1.370 . S
C1088 C1090 1.363 . S
C1088 H1104 0.931 . S
C1089 C1088 1.370 . S
C1089 C1093 1.408 . S
C1090 C1088 1.363 . S
C1090 C1091 1.370 . S
C1090 C1094 1.524 . S
C1091 C1083 1.503 . S
C1091 C1090 1.370 . S
C1091 C1092 1.403 . S
C1092 C1091 1.403 . S
C1092 C1093 1.404 . S
C1092 C1095 1.539 . S
C1093 C1089 1.408 . S
C1093 C1092 1.404 . S
C1093 H1105 0.930 . S
C1094 C1090 1.524 . S
C1094 H1106 0.956 . S
C1094 H1107 0.961 . S
C1094 H1108 0.961 . S
C1095 C1092 1.539 . S
C1095 H1109 0.958 . S
C1095 H1110 0.961 . S
C1095 H1111 0.960 . S
H1096 C1080 0.931 . S
H1097 C1085 0.929 . S
H1098 C1086 0.960 . S
H1099 C1086 0.962 . S
H1100 C1086 0.960 . S
H1101 C1087 0.961 . S
H1102 C1087 0.961 . S
H1103 C1087 0.961 . S
H1104 C1088 0.931 . S
H1105 C1093 0.930 . S
H1106 C1094 0.956 . S
H1107 C1094 0.961 . S
H1108 C1094 0.961 . S
H1109 C1095 0.958 . S
H1110 C1095 0.961 . S
H1111 C1095 0.960 . S
C1112 C1113 1.391 . S
C1112 C1114 1.394 . S
C1112 H1128 0.931 . S
C1113 C1112 1.391 . S
C1113 C1117 1.376 . S
C1114 C1112 1.394 . S
C1114 C1115 1.369 . S
C1114 C1118 1.531 . S
C1115 C1114 1.369 . S
C1115 C1116 1.410 . S
C1115 C1123 1.503 . S
C1116 C1115 1.410 . S
C1116 C1117 1.392 . S
C1116 C1119 1.511 . S
C1117 C1113 1.376 . S
C1117 C1116 1.392 . S
C1117 H1129 0.929 . S
C1118 C1114 1.531 . S
C1118 H1130 0.960 . S
C1118 H1131 0.962 . S
C1118 H1132 0.960 . S
C1119 C1116 1.511 . S
C1119 H1133 0.961 . S
C1119 H1134 0.961 . S
C1119 H1135 0.961 . S
C1120 C1121 1.370 . S
C1120 C1122 1.363 . S
C1120 H1136 0.931 . S
C1121 C1120 1.370 . S
C1121 C1125 1.408 . S
C1122 C1120 1.363 . S
C1122 C1123 1.370 . S
C1122 C1126 1.524 . S
C1123 C1115 1.503 . S
C1123 C1122 1.370 . S
C1123 C1124 1.403 . S
C1124 C1123 1.403 . S
C1124 C1125 1.404 . S
C1124 C1127 1.539 . S
C1125 C1121 1.408 . S
C1125 C1124 1.404 . S
C1125 H1137 0.930 . S
C1126 C1122 1.524 . S
C1126 H1138 0.956 . S
C1126 H1139 0.961 . S
C1126 H1140 0.961 . S
C1127 C1124 1.539 . S
C1127 H1141 0.958 . S
C1127 H1142 0.961 . S
C1127 H1143 0.960 . S
H1128 C1112 0.931 . S
H1129 C1117 0.929 . S
H1130 C1118 0.960 . S
H1131 C1118 0.962 . S
H1132 C1118 0.960 . S
H1133 C1119 0.961 . S
H1134 C1119 0.961 . S
H1135 C1119 0.961 . S
H1136 C1120 0.931 . S
H1137 C1125 0.930 . S
H1138 C1126 0.956 . S
H1139 C1126 0.961 . S
H1140 C1126 0.961 . S
H1141 C1127 0.958 . S
H1142 C1127 0.961 . S
H1143 C1127 0.960 . S
C1144 C1145 1.391 . S
C1144 C1146 1.394 . S
C1144 H1160 0.931 . S
C1145 C1144 1.391 . S
C1145 C1149 1.376 . S
C1146 C1144 1.394 . S
C1146 C1147 1.369 . S
C1146 C1150 1.531 . S
C1147 C1146 1.369 . S
C1147 C1148 1.410 . S
C1147 C1155 1.503 . S
C1148 C1147 1.410 . S
C1148 C1149 1.392 . S
C1148 C1151 1.511 . S
C1149 C1145 1.376 . S
C1149 C1148 1.392 . S
C1149 H1161 0.929 . S
C1150 C1146 1.531 . S
C1150 H1162 0.960 . S
C1150 H1163 0.962 . S
C1150 H1164 0.960 . S
C1151 C1148 1.511 . S
C1151 H1165 0.961 . S
C1151 H1166 0.961 . S
C1151 H1167 0.961 . S
C1152 C1153 1.370 . S
C1152 C1154 1.363 . S
C1152 H1168 0.931 . S
C1153 C1152 1.370 . S
C1153 C1157 1.408 . S
C1154 C1152 1.363 . S
C1154 C1155 1.370 . S
C1154 C1158 1.524 . S
C1155 C1147 1.503 . S
C1155 C1154 1.370 . S
C1155 C1156 1.403 . S
C1156 C1155 1.403 . S
C1156 C1157 1.404 . S
C1156 C1159 1.539 . S
C1157 C1153 1.408 . S
C1157 C1156 1.404 . S
C1157 H1169 0.930 . S
C1158 C1154 1.524 . S
C1158 H1170 0.956 . S
C1158 H1171 0.961 . S
C1158 H1172 0.961 . S
C1159 C1156 1.539 . S
C1159 H1173 0.958 . S
C1159 H1174 0.961 . S
C1159 H1175 0.960 . S
H1160 C1144 0.931 . S
H1161 C1149 0.929 . S
H1162 C1150 0.960 . S
H1163 C1150 0.962 . S
H1164 C1150 0.960 . S
H1165 C1151 0.961 . S
H1166 C1151 0.961 . S
H1167 C1151 0.961 . S
H1168 C1152 0.931 . S
H1169 C1157 0.930 . S
H1170 C1158 0.956 . S
H1171 C1158 0.961 . S
H1172 C1158 0.961 . S
H1173 C1159 0.958 . S
H1174 C1159 0.961 . S
H1175 C1159 0.960 . S
C1176 C1177 1.391 . S
C1176 C1178 1.394 . S
C1176 H1192 0.931 . S
C1177 C1176 1.391 . S
C1177 C1181 1.376 . S
C1178 C1176 1.394 . S
C1178 C1179 1.369 . S
C1178 C1182 1.531 . S
C1179 C1178 1.369 . S
C1179 C1180 1.410 . S
C1179 C1187 1.503 . S
C1180 C1179 1.410 . S
C1180 C1181 1.392 . S
C1180 C1183 1.511 . S
C1181 C1177 1.376 . S
C1181 C1180 1.392 . S
C1181 H1193 0.929 . S
C1182 C1178 1.531 . S
C1182 H1194 0.960 . S
C1182 H1195 0.962 . S
C1182 H1196 0.960 . S
C1183 C1180 1.511 . S
C1183 H1197 0.961 . S
C1183 H1198 0.961 . S
C1183 H1199 0.961 . S
C1184 C1185 1.370 . S
C1184 C1186 1.363 . S
C1184 H1200 0.931 . S
C1185 C1184 1.370 . S
C1185 C1189 1.408 . S
C1186 C1184 1.363 . S
C1186 C1187 1.370 . S
C1186 C1190 1.524 . S
C1187 C1179 1.503 . S
C1187 C1186 1.370 . S
C1187 C1188 1.403 . S
C1188 C1187 1.403 . S
C1188 C1189 1.404 . S
C1188 C1191 1.539 . S
C1189 C1185 1.408 . S
C1189 C1188 1.404 . S
C1189 H1201 0.930 . S
C1190 C1186 1.524 . S
C1190 H1202 0.956 . S
C1190 H1203 0.961 . S
C1190 H1204 0.961 . S
C1191 C1188 1.539 . S
C1191 H1205 0.958 . S
C1191 H1206 0.961 . S
C1191 H1207 0.960 . S
H1192 C1176 0.931 . S
H1193 C1181 0.929 . S
H1194 C1182 0.960 . S
H1195 C1182 0.962 . S
H1196 C1182 0.960 . S
H1197 C1183 0.961 . S
H1198 C1183 0.961 . S
H1199 C1183 0.961 . S
H1200 C1184 0.931 . S
H1201 C1189 0.930 . S
H1202 C1190 0.956 . S
H1203 C1190 0.961 . S
H1204 C1190 0.961 . S
H1205 C1191 0.958 . S
H1206 C1191 0.961 . S
H1207 C1191 0.960 . S
C1208 C1209 1.391 . S
C1208 C1210 1.394 . S
C1208 H1224 0.931 . S
C1209 C1208 1.391 . S
C1209 C1213 1.376 . S
C1210 C1208 1.394 . S
C1210 C1211 1.369 . S
C1210 C1214 1.531 . S
C1211 C1210 1.369 . S
C1211 C1212 1.410 . S
C1211 C1219 1.503 . S
C1212 C1211 1.410 . S
C1212 C1213 1.392 . S
C1212 C1215 1.511 . S
C1213 C1209 1.376 . S
C1213 C1212 1.392 . S
C1213 H1225 0.929 . S
C1214 C1210 1.531 . S
C1214 H1226 0.960 . S
C1214 H1227 0.962 . S
C1214 H1228 0.960 . S
C1215 C1212 1.511 . S
C1215 H1229 0.961 . S
C1215 H1230 0.961 . S
C1215 H1231 0.961 . S
C1216 C1217 1.370 . S
C1216 C1218 1.363 . S
C1216 H1232 0.931 . S
C1217 C1216 1.370 . S
C1217 C1221 1.408 . S
C1218 C1216 1.363 . S
C1218 C1219 1.370 . S
C1218 C1222 1.524 . S
C1219 C1211 1.503 . S
C1219 C1218 1.370 . S
C1219 C1220 1.403 . S
C1220 C1219 1.403 . S
C1220 C1221 1.404 . S
C1220 C1223 1.539 . S
C1221 C1217 1.408 . S
C1221 C1220 1.404 . S
C1221 H1233 0.930 . S
C1222 C1218 1.524 . S
C1222 H1234 0.956 . S
C1222 H1235 0.961 . S
C1222 H1236 0.961 . S
C1223 C1220 1.539 . S
C1223 H1237 0.958 . S
C1223 H1238 0.961 . S
C1223 H1239 0.960 . S
H1224 C1208 0.931 . S
H1225 C1213 0.929 . S
H1226 C1214 0.960 . S
H1227 C1214 0.962 . S
H1228 C1214 0.960 . S
H1229 C1215 0.961 . S
H1230 C1215 0.961 . S
H1231 C1215 0.961 . S
H1232 C1216 0.931 . S
H1233 C1221 0.930 . S
H1234 C1222 0.956 . S
H1235 C1222 0.961 . S
H1236 C1222 0.961 . S
H1237 C1223 0.958 . S
H1238 C1223 0.961 . S
H1239 C1223 0.960 . S
C1240 C1241 1.391 . S
C1240 C1242 1.394 . S
C1240 H1256 0.931 . S
C1241 C1240 1.391 . S
C1241 C1245 1.376 . S
C1242 C1240 1.394 . S
C1242 C1243 1.369 . S
C1242 C1246 1.531 . S
C1243 C1242 1.369 . S
C1243 C1244 1.410 . S
C1243 C1251 1.503 . S
C1244 C1243 1.410 . S
C1244 C1245 1.392 . S
C1244 C1247 1.511 . S
C1245 C1241 1.376 . S
C1245 C1244 1.392 . S
C1245 H1257 0.929 . S
C1246 C1242 1.531 . S
C1246 H1258 0.960 . S
C1246 H1259 0.962 . S
C1246 H1260 0.960 . S
C1247 C1244 1.511 . S
C1247 H1261 0.961 . S
C1247 H1262 0.961 . S
C1247 H1263 0.961 . S
C1248 C1249 1.370 . S
C1248 C1250 1.363 . S
C1248 H1264 0.931 . S
C1249 C1248 1.370 . S
C1249 C1253 1.408 . S
C1250 C1248 1.363 . S
C1250 C1251 1.370 . S
C1250 C1254 1.524 . S
C1251 C1243 1.503 . S
C1251 C1250 1.370 . S
C1251 C1252 1.403 . S
C1252 C1251 1.403 . S
C1252 C1253 1.404 . S
C1252 C1255 1.539 . S
C1253 C1249 1.408 . S
C1253 C1252 1.404 . S
C1253 H1265 0.930 . S
C1254 C1250 1.524 . S
C1254 H1266 0.956 . S
C1254 H1267 0.961 . S
C1254 H1268 0.961 . S
C1255 C1252 1.539 . S
C1255 H1269 0.958 . S
C1255 H1270 0.961 . S
C1255 H1271 0.960 . S
H1256 C1240 0.931 . S
H1257 C1245 0.929 . S
H1258 C1246 0.960 . S
H1259 C1246 0.962 . S
H1260 C1246 0.960 . S
H1261 C1247 0.961 . S
H1262 C1247 0.961 . S
H1263 C1247 0.961 . S
H1264 C1248 0.931 . S
H1265 C1253 0.930 . S
H1266 C1254 0.956 . S
H1267 C1254 0.961 . S
H1268 C1254 0.961 . S
H1269 C1255 0.958 . S
H1270 C1255 0.961 . S
H1271 C1255 0.960 . S
C1272 C1273 1.391 . S
C1272 C1274 1.394 . S
C1272 H1288 0.931 . S
C1273 C1272 1.391 . S
C1273 C1277 1.376 . S
C1274 C1272 1.394 . S
C1274 C1275 1.369 . S
C1274 C1278 1.531 . S
C1275 C1274 1.369 . S
C1275 C1276 1.410 . S
C1275 C1283 1.503 1_455 S
C1276 C1275 1.410 . S
C1276 C1277 1.392 . S
C1276 C1279 1.511 . S
C1277 C1273 1.376 . S
C1277 C1276 1.392 . S
C1277 H1289 0.929 . S
C1278 C1274 1.531 . S
C1278 H1290 0.960 . S
C1278 H1291 0.962 . S
C1278 H1292 0.960 . S
C1279 C1276 1.511 . S
C1279 H1293 0.961 . S
C1279 H1294 0.961 1_455 S
C1279 H1295 0.961 . S
C1280 C1281 1.370 . S
C1280 C1282 1.363 . S
C1280 H1296 0.931 . S
C1281 C1280 1.370 . S
C1281 C1285 1.408 . S
C1282 C1280 1.363 . S
C1282 C1283 1.370 . S
C1282 C1286 1.524 . S
C1283 C1275 1.503 1_655 S
C1283 C1282 1.370 . S
C1283 C1284 1.403 . S
C1284 C1283 1.403 . S
C1284 C1285 1.404 . S
C1284 C1287 1.539 1_655 S
C1285 C1281 1.408 . S
C1285 C1284 1.404 . S
C1285 H1297 0.930 . S
C1286 C1282 1.524 . S
C1286 H1298 0.956 . S
C1286 H1299 0.961 . S
C1286 H1300 0.961 . S
C1287 C1284 1.539 1_455 S
C1287 H1301 0.958 . S
C1287 H1302 0.961 . S
C1287 H1303 0.960 . S
H1288 C1272 0.931 . S
H1289 C1277 0.929 . S
H1290 C1278 0.960 . S
H1291 C1278 0.962 . S
H1292 C1278 0.960 . S
H1293 C1279 0.961 . S
H1294 C1279 0.961 1_655 S
H1295 C1279 0.961 . S
H1296 C1280 0.931 . S
H1297 C1285 0.930 . S
H1298 C1286 0.956 . S
H1299 C1286 0.961 . S
H1300 C1286 0.961 . S
H1301 C1287 0.958 . S
H1302 C1287 0.961 . S
H1303 C1287 0.960 . S
C1304 C1305 1.391 . S
C1304 C1306 1.394 . S
C1304 H1320 0.931 . S
C1305 C1304 1.391 . S
C1305 C1309 1.376 . S
C1306 C1304 1.394 . S
C1306 C1307 1.369 . S
C1306 C1310 1.531 . S
C1307 C1306 1.369 . S
C1307 C1308 1.410 . S
C1307 C1315 1.503 . S
C1308 C1307 1.410 . S
C1308 C1309 1.392 . S
C1308 C1311 1.511 . S
C1309 C1305 1.376 . S
C1309 C1308 1.392 . S
C1309 H1321 0.929 . S
C1310 C1306 1.531 . S
C1310 H1322 0.960 . S
C1310 H1323 0.962 . S
C1310 H1324 0.960 . S
C1311 C1308 1.511 . S
C1311 H1325 0.961 . S
C1311 H1326 0.961 . S
C1311 H1327 0.961 . S
C1312 C1313 1.370 . S
C1312 C1314 1.363 . S
C1312 H1328 0.931 . S
C1313 C1312 1.370 . S
C1313 C1317 1.408 . S
C1314 C1312 1.363 . S
C1314 C1315 1.370 . S
C1314 C1318 1.524 . S
C1315 C1307 1.503 . S
C1315 C1314 1.370 . S
C1315 C1316 1.403 . S
C1316 C1315 1.403 . S
C1316 C1317 1.404 . S
C1316 C1319 1.539 . S
C1317 C1313 1.408 . S
C1317 C1316 1.404 . S
C1317 H1329 0.930 . S
C1318 C1314 1.524 . S
C1318 H1330 0.956 . S
C1318 H1331 0.961 . S
C1318 H1332 0.961 . S
C1319 C1316 1.539 . S
C1319 H1333 0.958 . S
C1319 H1334 0.961 . S
C1319 H1335 0.960 . S
H1320 C1304 0.931 . S
H1321 C1309 0.929 . S
H1322 C1310 0.960 . S
H1323 C1310 0.962 . S
H1324 C1310 0.960 . S
H1325 C1311 0.961 . S
H1326 C1311 0.961 . S
H1327 C1311 0.961 . S
H1328 C1312 0.931 . S
H1329 C1317 0.930 . S
H1330 C1318 0.956 . S
H1331 C1318 0.961 . S
H1332 C1318 0.961 . S
H1333 C1319 0.958 . S
H1334 C1319 0.961 . S
H1335 C1319 0.960 . S
C1336 C1337 1.391 . S
C1336 C1338 1.394 . S
C1336 H1352 0.931 . S
C1337 C1336 1.391 . S
C1337 C1341 1.376 . S
C1338 C1336 1.394 . S
C1338 C1339 1.369 . S
C1338 C1342 1.531 . S
C1339 C1338 1.369 . S
C1339 C1340 1.410 . S
C1339 C1347 1.503 . S
C1340 C1339 1.410 . S
C1340 C1341 1.392 . S
C1340 C1343 1.511 1_655 S
C1341 C1337 1.376 . S
C1341 C1340 1.392 . S
C1341 H1353 0.929 . S
C1342 C1338 1.531 . S
C1342 H1354 0.960 . S
C1342 H1355 0.962 . S
C1342 H1356 0.960 . S
C1343 C1340 1.511 1_455 S
C1343 H1357 0.961 . S
C1343 H1358 0.961 . S
C1343 H1359 0.961 . S
C1344 C1345 1.370 . S
C1344 C1346 1.363 . S
C1344 H1360 0.931 . S
C1345 C1344 1.370 . S
C1345 C1349 1.408 . S
C1346 C1344 1.363 . S
C1346 C1347 1.370 1_455 S
C1346 C1350 1.524 1_455 S
C1347 C1339 1.503 . S
C1347 C1346 1.370 1_655 S
C1347 C1348 1.403 1_655 S
C1348 C1347 1.403 1_455 S
C1348 C1349 1.404 . S
C1348 C1351 1.539 . S
C1349 C1345 1.408 . S
C1349 C1348 1.404 . S
C1349 H1361 0.930 . S
C1350 C1346 1.524 1_655 S
C1350 H1362 0.956 . S
C1350 H1363 0.961 . S
C1350 H1364 0.961 . S
C1351 C1348 1.539 . S
C1351 H1365 0.958 1_455 S
C1351 H1366 0.961 . S
C1351 H1367 0.960 1_455 S
H1352 C1336 0.931 . S
H1353 C1341 0.929 . S
H1354 C1342 0.960 . S
H1355 C1342 0.962 . S
H1356 C1342 0.960 . S
H1357 C1343 0.961 . S
H1358 C1343 0.961 . S
H1359 C1343 0.961 . S
H1360 C1344 0.931 . S
H1361 C1349 0.930 . S
H1362 C1350 0.956 . S
H1363 C1350 0.961 . S
H1364 C1350 0.961 . S
H1365 C1351 0.958 1_655 S
H1366 C1351 0.961 . S
H1367 C1351 0.960 1_655 S
C1368 C1369 1.391 . S
C1368 C1370 1.394 . S
C1368 H1384 0.931 . S
C1369 C1368 1.391 . S
C1369 C1373 1.376 . S
C1370 C1368 1.394 . S
C1370 C1371 1.369 . S
C1370 C1374 1.531 . S
C1371 C1370 1.369 . S
C1371 C1372 1.410 . S
C1371 C1379 1.503 . S
C1372 C1371 1.410 . S
C1372 C1373 1.392 . S
C1372 C1375 1.511 . S
C1373 C1369 1.376 . S
C1373 C1372 1.392 . S
C1373 H1385 0.929 . S
C1374 C1370 1.531 . S
C1374 H1386 0.960 . S
C1374 H1387 0.962 . S
C1374 H1388 0.960 . S
C1375 C1372 1.511 . S
C1375 H1389 0.961 . S
C1375 H1390 0.961 . S
C1375 H1391 0.961 . S
C1376 C1377 1.370 . S
C1376 C1378 1.363 . S
C1376 H1392 0.931 . S
C1377 C1376 1.370 . S
C1377 C1381 1.408 . S
C1378 C1376 1.363 . S
C1378 C1379 1.370 . S
C1378 C1382 1.524 . S
C1379 C1371 1.503 . S
C1379 C1378 1.370 . S
C1379 C1380 1.403 . S
C1380 C1379 1.403 . S
C1380 C1381 1.404 . S
C1380 C1383 1.539 . S
C1381 C1377 1.408 . S
C1381 C1380 1.404 . S
C1381 H1393 0.930 . S
C1382 C1378 1.524 . S
C1382 H1394 0.956 . S
C1382 H1395 0.961 . S
C1382 H1396 0.961 . S
C1383 C1380 1.539 . S
C1383 H1397 0.958 . S
C1383 H1398 0.961 . S
C1383 H1399 0.960 . S
H1384 C1368 0.931 . S
H1385 C1373 0.929 . S
H1386 C1374 0.960 . S
H1387 C1374 0.962 . S
H1388 C1374 0.960 . S
H1389 C1375 0.961 . S
H1390 C1375 0.961 . S
H1391 C1375 0.961 . S
H1392 C1376 0.931 . S
H1393 C1381 0.930 . S
H1394 C1382 0.956 . S
H1395 C1382 0.961 . S
H1396 C1382 0.961 . S
H1397 C1383 0.958 . S
H1398 C1383 0.961 . S
H1399 C1383 0.960 . S
C1400 C1401 1.391 . S
C1400 C1402 1.394 . S
C1400 H1416 0.931 . S
C1401 C1400 1.391 . S
C1401 C1405 1.376 . S
C1402 C1400 1.394 . S
C1402 C1403 1.369 . S
C1402 C1406 1.531 . S
C1403 C1402 1.369 . S
C1403 C1404 1.410 . S
C1403 C1411 1.503 . S
C1404 C1403 1.410 . S
C1404 C1405 1.392 . S
C1404 C1407 1.511 . S
C1405 C1401 1.376 . S
C1405 C1404 1.392 . S
C1405 H1417 0.929 . S
C1406 C1402 1.531 . S
C1406 H1418 0.960 . S
C1406 H1419 0.962 . S
C1406 H1420 0.960 . S
C1407 C1404 1.511 . S
C1407 H1421 0.961 . S
C1407 H1422 0.961 . S
C1407 H1423 0.961 . S
C1408 C1409 1.370 . S
C1408 C1410 1.363 1_556 S
C1408 H1424 0.931 . S
C1409 C1408 1.370 . S
C1409 C1413 1.408 1_556 S
C1410 C1408 1.363 1_554 S
C1410 C1411 1.370 . S
C1410 C1414 1.524 . S
C1411 C1403 1.503 . S
C1411 C1410 1.370 . S
C1411 C1412 1.403 . S
C1412 C1411 1.403 . S
C1412 C1413 1.404 . S
C1412 C1415 1.539 . S
C1413 C1409 1.408 1_554 S
C1413 C1412 1.404 . S
C1413 H1425 0.930 1_655 S
C1414 C1410 1.524 . S
C1414 H1426 0.956 . S
C1414 H1427 0.961 . S
C1414 H1428 0.961 1_554 S
C1415 C1412 1.539 . S
C1415 H1429 0.958 1_655 S
C1415 H1430 0.961 1_655 S
C1415 H1431 0.960 . S
H1416 C1400 0.931 . S
H1417 C1405 0.929 . S
H1418 C1406 0.960 . S
H1419 C1406 0.962 . S
H1420 C1406 0.960 . S
H1421 C1407 0.961 . S
H1422 C1407 0.961 . S
H1423 C1407 0.961 . S
H1424 C1408 0.931 . S
H1425 C1413 0.930 1_455 S
H1426 C1414 0.956 . S
H1427 C1414 0.961 . S
H1428 C1414 0.961 1_556 S
H1429 C1415 0.958 1_455 S
H1430 C1415 0.961 1_455 S
H1431 C1415 0.960 . S
C1432 C1433 1.391 . S
C1432 C1434 1.394 . S
C1432 H1448 0.931 . S
C1433 C1432 1.391 . S
C1433 C1437 1.376 . S
C1434 C1432 1.394 . S
C1434 C1435 1.369 . S
C1434 C1438 1.531 . S
C1435 C1434 1.369 . S
C1435 C1436 1.410 . S
C1435 C1443 1.503 . S
C1436 C1435 1.410 . S
C1436 C1437 1.392 . S
C1436 C1439 1.511 . S
C1437 C1433 1.376 . S
C1437 C1436 1.392 . S
C1437 H1449 0.929 . S
C1438 C1434 1.531 . S
C1438 H1450 0.960 . S
C1438 H1451 0.962 . S
C1438 H1452 0.960 . S
C1439 C1436 1.511 . S
C1439 H1453 0.961 . S
C1439 H1454 0.961 . S
C1439 H1455 0.961 . S
C1440 C1441 1.370 . S
C1440 C1442 1.363 . S
C1440 H1456 0.931 . S
C1441 C1440 1.370 . S
C1441 C1445 1.408 . S
C1442 C1440 1.363 . S
C1442 C1443 1.370 . S
C1442 C1446 1.524 . S
C1443 C1435 1.503 . S
C1443 C1442 1.370 . S
C1443 C1444 1.403 . S
C1444 C1443 1.403 . S
C1444 C1445 1.404 . S
C1444 C1447 1.539 . S
C1445 C1441 1.408 . S
C1445 C1444 1.404 . S
C1445 H1457 0.930 . S
C1446 C1442 1.524 . S
C1446 H1458 0.956 . S
C1446 H1459 0.961 . S
C1446 H1460 0.961 . S
C1447 C1444 1.539 . S
C1447 H1461 0.958 . S
C1447 H1462 0.961 . S
C1447 H1463 0.960 . S
H1448 C1432 0.931 . S
H1449 C1437 0.929 . S
H1450 C1438 0.960 . S
H1451 C1438 0.962 . S
H1452 C1438 0.960 . S
H1453 C1439 0.961 . S
H1454 C1439 0.961 . S
H1455 C1439 0.961 . S
H1456 C1440 0.931 . S
H1457 C1445 0.930 . S
H1458 C1446 0.956 . S
H1459 C1446 0.961 . S
H1460 C1446 0.961 . S
H1461 C1447 0.958 . S
H1462 C1447 0.961 . S
H1463 C1447 0.960 . S
C1464 C1465 1.391 . S
C1464 C1466 1.394 . S
C1464 H1480 0.931 . S
C1465 C1464 1.391 . S
C1465 C1469 1.376 . S
C1466 C1464 1.394 . S
C1466 C1467 1.369 . S
C1466 C1470 1.531 . S
C1467 C1466 1.369 . S
C1467 C1468 1.410 . S
C1467 C1475 1.503 . S
C1468 C1467 1.410 . S
C1468 C1469 1.392 . S
C1468 C1471 1.511 . S
C1469 C1465 1.376 . S
C1469 C1468 1.392 . S
C1469 H1481 0.929 . S
C1470 C1466 1.531 . S
C1470 H1482 0.960 . S
C1470 H1483 0.962 . S
C1470 H1484 0.960 . S
C1471 C1468 1.511 . S
C1471 H1485 0.961 . S
C1471 H1486 0.961 . S
C1471 H1487 0.961 . S
C1472 C1473 1.370 . S
C1472 C1474 1.363 . S
C1472 H1488 0.931 . S
C1473 C1472 1.370 . S
C1473 C1477 1.408 . S
C1474 C1472 1.363 . S
C1474 C1475 1.370 . S
C1474 C1478 1.524 . S
C1475 C1467 1.503 . S
C1475 C1474 1.370 . S
C1475 C1476 1.403 . S
C1476 C1475 1.403 . S
C1476 C1477 1.404 . S
C1476 C1479 1.539 . S
C1477 C1473 1.408 . S
C1477 C1476 1.404 . S
C1477 H1489 0.930 . S
C1478 C1474 1.524 . S
C1478 H1490 0.956 . S
C1478 H1491 0.961 . S
C1478 H1492 0.961 . S
C1479 C1476 1.539 . S
C1479 H1493 0.958 . S
C1479 H1494 0.961 . S
C1479 H1495 0.960 . S
H1480 C1464 0.931 . S
H1481 C1469 0.929 . S
H1482 C1470 0.960 . S
H1483 C1470 0.962 . S
H1484 C1470 0.960 . S
H1485 C1471 0.961 . S
H1486 C1471 0.961 . S
H1487 C1471 0.961 . S
H1488 C1472 0.931 . S
H1489 C1477 0.930 . S
H1490 C1478 0.956 . S
H1491 C1478 0.961 . S
H1492 C1478 0.961 . S
H1493 C1479 0.958 . S
H1494 C1479 0.961 . S
H1495 C1479 0.960 . S
C1496 C1497 1.391 . S
C1496 C1498 1.394 . S
C1496 H1512 0.931 . S
C1497 C1496 1.391 . S
C1497 C1501 1.376 . S
C1498 C1496 1.394 . S
C1498 C1499 1.369 . S
C1498 C1502 1.531 . S
C1499 C1498 1.369 . S
C1499 C1500 1.410 . S
C1499 C1507 1.503 . S
C1500 C1499 1.410 . S
C1500 C1501 1.392 . S
C1500 C1503 1.511 . S
C1501 C1497 1.376 . S
C1501 C1500 1.392 . S
C1501 H1513 0.929 . S
C1502 C1498 1.531 . S
C1502 H1514 0.960 . S
C1502 H1515 0.962 . S
C1502 H1516 0.960 . S
C1503 C1500 1.511 . S
C1503 H1517 0.961 . S
C1503 H1518 0.961 . S
C1503 H1519 0.961 . S
C1504 C1505 1.370 . S
C1504 C1506 1.363 . S
C1504 H1520 0.931 . S
C1505 C1504 1.370 . S
C1505 C1509 1.408 . S
C1506 C1504 1.363 . S
C1506 C1507 1.370 . S
C1506 C1510 1.524 . S
C1507 C1499 1.503 . S
C1507 C1506 1.370 . S
C1507 C1508 1.403 . S
C1508 C1507 1.403 . S
C1508 C1509 1.404 . S
C1508 C1511 1.539 . S
C1509 C1505 1.408 . S
C1509 C1508 1.404 . S
C1509 H1521 0.930 . S
C1510 C1506 1.524 . S
C1510 H1522 0.956 . S
C1510 H1523 0.961 . S
C1510 H1524 0.961 . S
C1511 C1508 1.539 . S
C1511 H1525 0.958 . S
C1511 H1526 0.961 . S
C1511 H1527 0.960 . S
H1512 C1496 0.931 . S
H1513 C1501 0.929 . S
H1514 C1502 0.960 . S
H1515 C1502 0.962 . S
H1516 C1502 0.960 . S
H1517 C1503 0.961 . S
H1518 C1503 0.961 . S
H1519 C1503 0.961 . S
H1520 C1504 0.931 . S
H1521 C1509 0.930 . S
H1522 C1510 0.956 . S
H1523 C1510 0.961 . S
H1524 C1510 0.961 . S
H1525 C1511 0.958 . S
H1526 C1511 0.961 . S
H1527 C1511 0.960 . S
C1528 C1529 1.391 . S
C1528 C1530 1.394 . S
C1528 H1544 0.931 . S
C1529 C1528 1.391 . S
C1529 C1533 1.376 . S
C1530 C1528 1.394 . S
C1530 C1531 1.369 1_556 S
C1530 C1534 1.531 . S
C1531 C1530 1.369 1_554 S
C1531 C1532 1.410 . S
C1531 C1539 1.503 . S
C1532 C1531 1.410 . S
C1532 C1533 1.392 1_554 S
C1532 C1535 1.511 . S
C1533 C1529 1.376 . S
C1533 C1532 1.392 1_556 S
C1533 H1545 0.929 . S
C1534 C1530 1.531 . S
C1534 H1546 0.960 1_556 S
C1534 H1547 0.962 1_556 S
C1534 H1548 0.960 . S
C1535 C1532 1.511 . S
C1535 H1549 0.961 . S
C1535 H1550 0.961 . S
C1535 H1551 0.961 . S
C1536 C1537 1.370 . S
C1536 C1538 1.363 . S
C1536 H1552 0.931 . S
C1537 C1536 1.370 . S
C1537 C1541 1.408 . S
C1538 C1536 1.363 . S
C1538 C1539 1.370 . S
C1538 C1542 1.524 . S
C1539 C1531 1.503 . S
C1539 C1538 1.370 . S
C1539 C1540 1.403 . S
C1540 C1539 1.403 . S
C1540 C1541 1.404 . S
C1540 C1543 1.539 . S
C1541 C1537 1.408 . S
C1541 C1540 1.404 . S
C1541 H1553 0.930 . S
C1542 C1538 1.524 . S
C1542 H1554 0.956 . S
C1542 H1555 0.961 . S
C1542 H1556 0.961 . S
C1543 C1540 1.539 . S
C1543 H1557 0.958 . S
C1543 H1558 0.961 . S
C1543 H1559 0.960 . S
H1544 C1528 0.931 . S
H1545 C1533 0.929 . S
H1546 C1534 0.960 1_554 S
H1547 C1534 0.962 1_554 S
H1548 C1534 0.960 . S
H1549 C1535 0.961 . S
H1550 C1535 0.961 . S
H1551 C1535 0.961 . S
H1552 C1536 0.931 . S
H1553 C1541 0.930 . S
H1554 C1542 0.956 . S
H1555 C1542 0.961 . S
H1556 C1542 0.961 . S
H1557 C1543 0.958 . S
H1558 C1543 0.961 . S
H1559 C1543 0.960 . S
C1560 C1561 1.391 . S
C1560 C1562 1.394 . S
C1560 H1576 0.931 . S
C1561 C1560 1.391 . S
C1561 C1565 1.376 . S
C1562 C1560 1.394 . S
C1562 C1563 1.369 . S
C1562 C1566 1.531 . S
C1563 C1562 1.369 . S
C1563 C1564 1.410 . S
C1563 C1571 1.503 . S
C1564 C1563 1.410 . S
C1564 C1565 1.392 . S
C1564 C1567 1.511 . S
C1565 C1561 1.376 . S
C1565 C1564 1.392 . S
C1565 H1577 0.929 . S
C1566 C1562 1.531 . S
C1566 H1578 0.960 . S
C1566 H1579 0.962 . S
C1566 H1580 0.960 . S
C1567 C1564 1.511 . S
C1567 H1581 0.961 . S
C1567 H1582 0.961 . S
C1567 H1583 0.961 . S
C1568 C1569 1.370 . S
C1568 C1570 1.363 . S
C1568 H1584 0.931 . S
C1569 C1568 1.370 . S
C1569 C1573 1.408 . S
C1570 C1568 1.363 . S
C1570 C1571 1.370 . S
C1570 C1574 1.524 . S
C1571 C1563 1.503 . S
C1571 C1570 1.370 . S
C1571 C1572 1.403 . S
C1572 C1571 1.403 . S
C1572 C1573 1.404 . S
C1572 C1575 1.539 . S
C1573 C1569 1.408 . S
C1573 C1572 1.404 . S
C1573 H1585 0.930 . S
C1574 C1570 1.524 . S
C1574 H1586 0.956 . S
C1574 H1587 0.961 . S
C1574 H1588 0.961 . S
C1575 C1572 1.539 . S
C1575 H1589 0.958 . S
C1575 H1590 0.961 . S
C1575 H1591 0.960 . S
H1576 C1560 0.931 . S
H1577 C1565 0.929 . S
H1578 C1566 0.960 . S
H1579 C1566 0.962 . S
H1580 C1566 0.960 . S
H1581 C1567 0.961 . S
H1582 C1567 0.961 . S
H1583 C1567 0.961 . S
H1584 C1568 0.931 . S
H1585 C1573 0.930 . S
H1586 C1574 0.956 . S
H1587 C1574 0.961 . S
H1588 C1574 0.961 . S
H1589 C1575 0.958 . S
H1590 C1575 0.961 . S
H1591 C1575 0.960 . S
C1592 C1593 1.391 1_554 S
C1592 C1594 1.394 . S
C1592 H1608 0.931 . S
C1593 C1592 1.391 1_556 S
C1593 C1597 1.376 . S
C1594 C1592 1.394 . S
C1594 C1595 1.369 . S
C1594 C1598 1.531 . S
C1595 C1594 1.369 . S
C1595 C1596 1.410 . S
C1595 C1603 1.503 . S
C1596 C1595 1.410 . S
C1596 C1597 1.392 1_554 S
C1596 C1599 1.511 . S
C1597 C1593 1.376 . S
C1597 C1596 1.392 1_556 S
C1597 H1609 0.929 . S
C1598 C1594 1.531 . S
C1598 H1610 0.960 . S
C1598 H1611 0.962 . S
C1598 H1612 0.960 . S
C1599 C1596 1.511 . S
C1599 H1613 0.961 1_554 S
C1599 H1614 0.961 . S
C1599 H1615 0.961 . S
C1600 C1601 1.370 . S
C1600 C1602 1.363 . S
C1600 H1616 0.931 . S
C1601 C1600 1.370 . S
C1601 C1605 1.408 . S
C1602 C1600 1.363 . S
C1602 C1603 1.370 . S
C1602 C1606 1.524 . S
C1603 C1595 1.503 . S
C1603 C1602 1.370 . S
C1603 C1604 1.403 . S
C1604 C1603 1.403 . S
C1604 C1605 1.404 . S
C1604 C1607 1.539 . S
C1605 C1601 1.408 . S
C1605 C1604 1.404 . S
C1605 H1617 0.930 . S
C1606 C1602 1.524 . S
C1606 H1618 0.956 . S
C1606 H1619 0.961 . S
C1606 H1620 0.961 . S
C1607 C1604 1.539 . S
C1607 H1621 0.958 . S
C1607 H1622 0.961 . S
C1607 H1623 0.960 . S
H1608 C1592 0.931 . S
H1609 C1597 0.929 . S
H1610 C1598 0.960 . S
H1611 C1598 0.962 . S
H1612 C1598 0.960 . S
H1613 C1599 0.961 1_556 S
H1614 C1599 0.961 . S
H1615 C1599 0.961 . S
H1616 C1600 0.931 . S
H1617 C1605 0.930 . S
H1618 C1606 0.956 . S
H1619 C1606 0.961 . S
H1620 C1606 0.961 . S
H1621 C1607 0.958 . S
H1622 C1607 0.961 . S
H1623 C1607 0.960 . S
C1624 C1625 1.391 . S
C1624 C1626 1.394 . S
C1624 H1640 0.931 . S
C1625 C1624 1.391 . S
C1625 C1629 1.376 . S
C1626 C1624 1.394 . S
C1626 C1627 1.369 . S
C1626 C1630 1.531 . S
C1627 C1626 1.369 . S
C1627 C1628 1.410 . S
C1627 C1635 1.503 . S
C1628 C1627 1.410 . S
C1628 C1629 1.392 . S
C1628 C1631 1.511 . S
C1629 C1625 1.376 . S
C1629 C1628 1.392 . S
C1629 H1641 0.929 . S
C1630 C1626 1.531 . S
C1630 H1642 0.960 . S
C1630 H1643 0.962 . S
C1630 H1644 0.960 . S
C1631 C1628 1.511 . S
C1631 H1645 0.961 . S
C1631 H1646 0.961 . S
C1631 H1647 0.961 . S
C1632 C1633 1.370 . S
C1632 C1634 1.363 . S
C1632 H1648 0.931 . S
C1633 C1632 1.370 . S
C1633 C1637 1.408 . S
C1634 C1632 1.363 . S
C1634 C1635 1.370 . S
C1634 C1638 1.524 . S
C1635 C1627 1.503 . S
C1635 C1634 1.370 . S
C1635 C1636 1.403 . S
C1636 C1635 1.403 . S
C1636 C1637 1.404 . S
C1636 C1639 1.539 . S
C1637 C1633 1.408 . S
C1637 C1636 1.404 . S
C1637 H1649 0.930 . S
C1638 C1634 1.524 . S
C1638 H1650 0.956 . S
C1638 H1651 0.961 . S
C1638 H1652 0.961 . S
C1639 C1636 1.539 . S
C1639 H1653 0.958 . S
C1639 H1654 0.961 . S
C1639 H1655 0.960 . S
H1640 C1624 0.931 . S
H1641 C1629 0.929 . S
H1642 C1630 0.960 . S
H1643 C1630 0.962 . S
H1644 C1630 0.960 . S
H1645 C1631 0.961 . S
H1646 C1631 0.961 . S
H1647 C1631 0.961 . S
H1648 C1632 0.931 . S
H1649 C1637 0.930 . S
H1650 C1638 0.956 . S
H1651 C1638 0.961 . S
H1652 C1638 0.961 . S
H1653 C1639 0.958 . S
H1654 C1639 0.961 . S
H1655 C1639 0.960 . S
C1656 C1657 1.391 . S
C1656 C1658 1.394 . S
C1656 H1672 0.931 . S
C1657 C1656 1.391 . S
C1657 C1661 1.376 . S
C1658 C1656 1.394 . S
C1658 C1659 1.369 . S
C1658 C1662 1.531 . S
C1659 C1658 1.369 . S
C1659 C1660 1.410 . S
C1659 C1667 1.503 . S
C1660 C1659 1.410 . S
C1660 C1661 1.392 . S
C1660 C1663 1.511 . S
C1661 C1657 1.376 . S
C1661 C1660 1.392 . S
C1661 H1673 0.929 . S
C1662 C1658 1.531 . S
C1662 H1674 0.960 . S
C1662 H1675 0.962 . S
C1662 H1676 0.960 . S
C1663 C1660 1.511 . S
C1663 H1677 0.961 . S
C1663 H1678 0.961 . S
C1663 H1679 0.961 . S
C1664 C1665 1.370 . S
C1664 C1666 1.363 . S
C1664 H1680 0.931 . S
C1665 C1664 1.370 . S
C1665 C1669 1.408 . S
C1666 C1664 1.363 . S
C1666 C1667 1.370 . S
C1666 C1670 1.524 . S
C1667 C1659 1.503 . S
C1667 C1666 1.370 . S
C1667 C1668 1.403 . S
C1668 C1667 1.403 . S
C1668 C1669 1.404 . S
C1668 C1671 1.539 . S
C1669 C1665 1.408 . S
C1669 C1668 1.404 . S
C1669 H1681 0.930 . S
C1670 C1666 1.524 . S
C1670 H1682 0.956 . S
C1670 H1683 0.961 . S
C1670 H1684 0.961 . S
C1671 C1668 1.539 . S
C1671 H1685 0.958 . S
C1671 H1686 0.961 . S
C1671 H1687 0.960 . S
H1672 C1656 0.931 . S
H1673 C1661 0.929 . S
H1674 C1662 0.960 . S
H1675 C1662 0.962 . S
H1676 C1662 0.960 . S
H1677 C1663 0.961 . S
H1678 C1663 0.961 . S
H1679 C1663 0.961 . S
H1680 C1664 0.931 . S
H1681 C1669 0.930 . S
H1682 C1670 0.956 . S
H1683 C1670 0.961 . S
H1684 C1670 0.961 . S
H1685 C1671 0.958 . S
H1686 C1671 0.961 . S
H1687 C1671 0.960 . S
C1688 C1689 1.391 . S
C1688 C1690 1.394 . S
C1688 H1704 0.931 . S
C1689 C1688 1.391 . S
C1689 C1693 1.376 . S
C1690 C1688 1.394 . S
C1690 C1691 1.369 . S
C1690 C1694 1.531 . S
C1691 C1690 1.369 . S
C1691 C1692 1.410 . S
C1691 C1699 1.503 . S
C1692 C1691 1.410 . S
C1692 C1693 1.392 . S
C1692 C1695 1.511 . S
C1693 C1689 1.376 . S
C1693 C1692 1.392 . S
C1693 H1705 0.929 . S
C1694 C1690 1.531 . S
C1694 H1706 0.960 . S
C1694 H1707 0.962 . S
C1694 H1708 0.960 . S
C1695 C1692 1.511 . S
C1695 H1709 0.961 . S
C1695 H1710 0.961 . S
C1695 H1711 0.961 . S
C1696 C1697 1.370 . S
C1696 C1698 1.363 . S
C1696 H1712 0.931 . S
C1697 C1696 1.370 . S
C1697 C1701 1.408 . S
C1698 C1696 1.363 . S
C1698 C1699 1.370 . S
C1698 C1702 1.524 . S
C1699 C1691 1.503 . S
C1699 C1698 1.370 . S
C1699 C1700 1.403 . S
C1700 C1699 1.403 . S
C1700 C1701 1.404 . S
C1700 C1703 1.539 . S
C1701 C1697 1.408 . S
C1701 C1700 1.404 . S
C1701 H1713 0.930 . S
C1702 C1698 1.524 . S
C1702 H1714 0.956 . S
C1702 H1715 0.961 . S
C1702 H1716 0.961 . S
C1703 C1700 1.539 . S
C1703 H1717 0.958 . S
C1703 H1718 0.961 . S
C1703 H1719 0.960 . S
H1704 C1688 0.931 . S
H1705 C1693 0.929 . S
H1706 C1694 0.960 . S
H1707 C1694 0.962 . S
H1708 C1694 0.960 . S
H1709 C1695 0.961 . S
H1710 C1695 0.961 . S
H1711 C1695 0.961 . S
H1712 C1696 0.931 . S
H1713 C1701 0.930 . S
H1714 C1702 0.956 . S
H1715 C1702 0.961 . S
H1716 C1702 0.961 . S
H1717 C1703 0.958 . S
H1718 C1703 0.961 . S
H1719 C1703 0.960 . S
C1720 C1721 1.391 . S
C1720 C1722 1.394 . S
C1720 H1736 0.931 . S
C1721 C1720 1.391 . S
C1721 C1725 1.376 . S
C1722 C1720 1.394 . S
C1722 C1723 1.369 . S
C1722 C1726 1.531 . S
C1723 C1722 1.369 . S
C1723 C1724 1.410 . S
C1723 C1731 1.503 . S
C1724 C1723 1.410 . S
C1724 C1725 1.392 . S
C1724 C1727 1.511 . S
C1725 C1721 1.376 . S
C1725 C1724 1.392 . S
C1725 H1737 0.929 . S
C1726 C1722 1.531 . S
C1726 H1738 0.960 . S
C1726 H1739 0.962 . S
C1726 H1740 0.960 . S
C1727 C1724 1.511 . S
C1727 H1741 0.961 . S
C1727 H1742 0.961 . S
C1727 H1743 0.961 . S
C1728 C1729 1.370 . S
C1728 C1730 1.363 . S
C1728 H1744 0.931 . S
C1729 C1728 1.370 . S
C1729 C1733 1.408 . S
C1730 C1728 1.363 . S
C1730 C1731 1.370 . S
C1730 C1734 1.524 . S
C1731 C1723 1.503 . S
C1731 C1730 1.370 . S
C1731 C1732 1.403 . S
C1732 C1731 1.403 . S
C1732 C1733 1.404 . S
C1732 C1735 1.539 . S
C1733 C1729 1.408 . S
C1733 C1732 1.404 . S
C1733 H1745 0.930 . S
C1734 C1730 1.524 . S
C1734 H1746 0.956 . S
C1734 H1747 0.961 . S
C1734 H1748 0.961 . S
C1735 C1732 1.539 . S
C1735 H1749 0.958 . S
C1735 H1750 0.961 . S
C1735 H1751 0.960 . S
H1736 C1720 0.931 . S
H1737 C1725 0.929 . S
H1738 C1726 0.960 . S
H1739 C1726 0.962 . S
H1740 C1726 0.960 . S
H1741 C1727 0.961 . S
H1742 C1727 0.961 . S
H1743 C1727 0.961 . S
H1744 C1728 0.931 . S
H1745 C1733 0.930 . S
H1746 C1734 0.956 . S
H1747 C1734 0.961 . S
H1748 C1734 0.961 . S
H1749 C1735 0.958 . S
H1750 C1735 0.961 . S
H1751 C1735 0.960 . S
C1752 C1753 1.391 . S
C1752 C1754 1.394 . S
C1752 H1768 0.931 . S
C1753 C1752 1.391 . S
C1753 C1757 1.376 . S
C1754 C1752 1.394 . S
C1754 C1755 1.369 . S
C1754 C1758 1.531 . S
C1755 C1754 1.369 . S
C1755 C1756 1.410 . S
C1755 C1763 1.503 . S
C1756 C1755 1.410 . S
C1756 C1757 1.392 . S
C1756 C1759 1.511 . S
C1757 C1753 1.376 . S
C1757 C1756 1.392 . S
C1757 H1769 0.929 . S
C1758 C1754 1.531 . S
C1758 H1770 0.960 . S
C1758 H1771 0.962 . S
C1758 H1772 0.960 . S
C1759 C1756 1.511 . S
C1759 H1773 0.961 . S
C1759 H1774 0.961 . S
C1759 H1775 0.961 . S
C1760 C1761 1.370 . S
C1760 C1762 1.363 . S
C1760 H1776 0.931 . S
C1761 C1760 1.370 . S
C1761 C1765 1.408 . S
C1762 C1760 1.363 . S
C1762 C1763 1.370 . S
C1762 C1766 1.524 . S
C1763 C1755 1.503 . S
C1763 C1762 1.370 . S
C1763 C1764 1.403 . S
C1764 C1763 1.403 . S
C1764 C1765 1.404 . S
C1764 C1767 1.539 . S
C1765 C1761 1.408 . S
C1765 C1764 1.404 . S
C1765 H1777 0.930 1_556 S
C1766 C1762 1.524 . S
C1766 H1778 0.956 . S
C1766 H1779 0.961 . S
C1766 H1780 0.961 . S
C1767 C1764 1.539 . S
C1767 H1781 0.958 1_556 S
C1767 H1782 0.961 1_556 S
C1767 H1783 0.960 . S
H1768 C1752 0.931 . S
H1769 C1757 0.929 . S
H1770 C1758 0.960 . S
H1771 C1758 0.962 . S
H1772 C1758 0.960 . S
H1773 C1759 0.961 . S
H1774 C1759 0.961 . S
H1775 C1759 0.961 . S
H1776 C1760 0.931 . S
H1777 C1765 0.930 1_554 S
H1778 C1766 0.956 . S
H1779 C1766 0.961 . S
H1780 C1766 0.961 . S
H1781 C1767 0.958 1_554 S
H1782 C1767 0.961 1_554 S
H1783 C1767 0.960 . S
C1784 C1785 1.391 . S
C1784 C1786 1.394 . S
C1784 H1800 0.931 . S
C1785 C1784 1.391 . S
C1785 C1789 1.376 . S
C1786 C1784 1.394 . S
C1786 C1787 1.369 . S
C1786 C1790 1.531 . S
C1787 C1786 1.369 . S
C1787 C1788 1.410 . S
C1787 C1795 1.503 . S
C1788 C1787 1.410 . S
C1788 C1789 1.392 . S
C1788 C1791 1.511 . S
C1789 C1785 1.376 . S
C1789 C1788 1.392 . S
C1789 H1801 0.929 . S
C1790 C1786 1.531 . S
C1790 H1802 0.960 . S
C1790 H1803 0.962 . S
C1790 H1804 0.960 . S
C1791 C1788 1.511 . S
C1791 H1805 0.961 . S
C1791 H1806 0.961 . S
C1791 H1807 0.961 . S
C1792 C1793 1.370 . S
C1792 C1794 1.363 . S
C1792 H1808 0.931 . S
C1793 C1792 1.370 . S
C1793 C1797 1.408 . S
C1794 C1792 1.363 . S
C1794 C1795 1.370 . S
C1794 C1798 1.524 . S
C1795 C1787 1.503 . S
C1795 C1794 1.370 . S
C1795 C1796 1.403 . S
C1796 C1795 1.403 . S
C1796 C1797 1.404 . S
C1796 C1799 1.539 . S
C1797 C1793 1.408 . S
C1797 C1796 1.404 . S
C1797 H1809 0.930 . S
C1798 C1794 1.524 . S
C1798 H1810 0.956 . S
C1798 H1811 0.961 . S
C1798 H1812 0.961 . S
C1799 C1796 1.539 . S
C1799 H1813 0.958 . S
C1799 H1814 0.961 . S
C1799 H1815 0.960 . S
H1800 C1784 0.931 . S
H1801 C1789 0.929 . S
H1802 C1790 0.960 . S
H1803 C1790 0.962 . S
H1804 C1790 0.960 . S
H1805 C1791 0.961 . S
H1806 C1791 0.961 . S
H1807 C1791 0.961 . S
H1808 C1792 0.931 . S
H1809 C1797 0.930 . S
H1810 C1798 0.956 . S
H1811 C1798 0.961 . S
H1812 C1798 0.961 . S
H1813 C1799 0.958 . S
H1814 C1799 0.961 . S
H1815 C1799 0.960 . S
C1816 C1817 1.391 . S
C1816 C1818 1.394 . S
C1816 H1832 0.931 . S
C1817 C1816 1.391 . S
C1817 C1821 1.376 . S
C1818 C1816 1.394 . S
C1818 C1819 1.369 . S
C1818 C1822 1.531 . S
C1819 C1818 1.369 . S
C1819 C1820 1.410 . S
C1819 C1827 1.503 . S
C1820 C1819 1.410 . S
C1820 C1821 1.392 . S
C1820 C1823 1.511 . S
C1821 C1817 1.376 . S
C1821 C1820 1.392 . S
C1821 H1833 0.929 . S
C1822 C1818 1.531 . S
C1822 H1834 0.960 . S
C1822 H1835 0.962 . S
C1822 H1836 0.960 . S
C1823 C1820 1.511 . S
C1823 H1837 0.961 . S
C1823 H1838 0.961 . S
C1823 H1839 0.961 . S
C1824 C1825 1.370 . S
C1824 C1826 1.363 . S
C1824 H1840 0.931 . S
C1825 C1824 1.370 . S
C1825 C1829 1.408 . S
C1826 C1824 1.363 . S
C1826 C1827 1.370 . S
C1826 C1830 1.524 . S
C1827 C1819 1.503 . S
C1827 C1826 1.370 . S
C1827 C1828 1.403 . S
C1828 C1827 1.403 . S
C1828 C1829 1.404 . S
C1828 C1831 1.539 . S
C1829 C1825 1.408 . S
C1829 C1828 1.404 . S
C1829 H1841 0.930 . S
C1830 C1826 1.524 . S
C1830 H1842 0.956 . S
C1830 H1843 0.961 . S
C1830 H1844 0.961 . S
C1831 C1828 1.539 . S
C1831 H1845 0.958 . S
C1831 H1846 0.961 . S
C1831 H1847 0.960 . S
H1832 C1816 0.931 . S
H1833 C1821 0.929 . S
H1834 C1822 0.960 . S
H1835 C1822 0.962 . S
H1836 C1822 0.960 . S
H1837 C1823 0.961 . S
H1838 C1823 0.961 . S
H1839 C1823 0.961 . S
H1840 C1824 0.931 . S
H1841 C1829 0.930 . S
H1842 C1830 0.956 . S
H1843 C1830 0.961 . S
H1844 C1830 0.961 . S
H1845 C1831 0.958 . S
H1846 C1831 0.961 . S
H1847 C1831 0.960 . S
C1848 C1849 1.391 . S
C1848 C1850 1.394 . S
C1848 H1864 0.931 . S
C1849 C1848 1.391 . S
C1849 C1853 1.376 . S
C1850 C1848 1.394 . S
C1850 C1851 1.369 . S
C1850 C1854 1.531 . S
C1851 C1850 1.369 . S
C1851 C1852 1.410 . S
C1851 C1859 1.503 . S
C1852 C1851 1.410 . S
C1852 C1853 1.392 . S
C1852 C1855 1.511 . S
C1853 C1849 1.376 . S
C1853 C1852 1.392 . S
C1853 H1865 0.929 . S
C1854 C1850 1.531 . S
C1854 H1866 0.960 . S
C1854 H1867 0.962 . S
C1854 H1868 0.960 . S
C1855 C1852 1.511 . S
C1855 H1869 0.961 . S
C1855 H1870 0.961 . S
C1855 H1871 0.961 . S
C1856 C1857 1.370 . S
C1856 C1858 1.363 1_565 S
C1856 H1872 0.931 . S
C1857 C1856 1.370 . S
C1857 C1861 1.408 . S
C1858 C1856 1.363 1_545 S
C1858 C1859 1.370 . S
C1858 C1862 1.524 . S
C1859 C1851 1.503 . S
C1859 C1858 1.370 . S
C1859 C1860 1.403 1_545 S
C1860 C1859 1.403 1_565 S
C1860 C1861 1.404 . S
C1860 C1863 1.539 . S
C1861 C1857 1.408 . S
C1861 C1860 1.404 . S
C1861 H1873 0.930 . S
C1862 C1858 1.524 . S
C1862 H1874 0.956 . S
C1862 H1875 0.961 . S
C1862 H1876 0.961 . S
C1863 C1860 1.539 . S
C1863 H1877 0.958 . S
C1863 H1878 0.961 . S
C1863 H1879 0.955 . S
H1864 C1848 0.931 . S
H1865 C1853 0.929 . S
H1866 C1854 0.960 . S
H1867 C1854 0.962 . S
H1868 C1854 0.960 . S
H1869 C1855 0.961 . S
H1870 C1855 0.961 . S
H1871 C1855 0.961 . S
H1872 C1856 0.931 . S
H1873 C1861 0.930 . S
H1874 C1862 0.956 . S
H1875 C1862 0.961 . S
H1876 C1862 0.961 . S
H1877 C1863 0.958 . S
H1878 C1863 0.961 . S
H1879 C1863 0.955 . S
C353 C184 1.253 1_556 S
C345 C62 1.190 . S
C385 C199 1.759 . S
C377 C73 1.691 . S
C409 C84 1.754 . S
C417 C212 1.811 . S
C449 C226 1.358 . S
C441 C49 0.985 . S
C481 C238 1.533 . S
C473 C118 1.549 . S
C513 C252 1.332 . S
C505 C137 1.235 . S
C537 C129 1.750 . S
C545 C266 1.728 . S
C577 C281 1.706 . S
C569 C106 1.691 . S
C601 C128 1.810 . S
C609 C297 1.903 . S
C641 C310 1.579 . S
C633 C104 1.328 . S
C665 C115 1.646 . S
C673 C295 1.790 . S
C705 C308 1.600 . S
C697 C139 1.592 . S
C729 C85 1.941 . S
C737 C324 1.941 . S
C761 C52 1.298 . S
C769 C323 1.316 . S
C793 C60 1.244 . S
C801 C322 1.306 . S
C825 C71 1.407 . S
C833 C325 1.675 . S
C857 C40 1.894 . S
C865 C227 1.960 . S
C889 C162 1.142 . S
C897 C225 1.129 . S
C929 C185 1.227 . S
C921 C173 1.207 . S
C961 C196 1.969 . S
C953 C93 1.789 . S
C985 C51 1.535 1_545 S
C993 C241 1.591 . S
C1025 C282 1.894 . S
C1017 C126 1.638 . S
C1057 C239 1.763 . S
C1049 C107 1.705 1_545 S
C1089 C267 1.546 . S
C1081 C140 1.582 . S
C1121 C268 1.257 . S
C1113 C161 1.196 . S
C1145 C172 1.676 . S
C1153 C283 1.779 . S
C1177 C95 1.797 . S
C1185 C240 1.800 . S
C1217 C254 1.340 . S
C1209 C148 0.997 . S
C1241 C41 1.550 . S
C1249 C210 1.514 . S
C1281 C224 1.324 . S
C1273 C5 1.250 . S
C1313 C182 1.710 . S
C1305 C19 1.763 . S
C1345 C197 1.708 . S
C1337 C29 1.693 . S
C1369 C18 1.835 . S
C1377 C311 1.905 . S
C1401 C27 1.235 . S
C1409 C296 1.584 . S
C1433 C38 1.579 . S
C1441 C309 1.808 . S
C1465 C7 1.591 . S
C1473 C294 1.612 1_554 S
C1505 C338 1.937 . S
C1497 C96 1.945 . S
C1537 C337 1.335 . S
C1529 C151 1.330 . S
C1569 C336 1.332 . S
C1561 C159 1.232 . S
C1593 C170 1.351 . S
C1601 C339 1.663 . S
C1625 C117 1.895 . S
C1633 C255 1.960 . S
C1665 C253 1.133 . S
C1657 C63 1.131 . S
C1697 C269 1.221 . S
C1689 C74 1.223 . S
C1729 C280 1.967 . S
C1721 C82 1.836 . S
C1753 C150 1.467 . S
C1761 C213 1.580 . S
C1793 C198 1.896 . S
C1785 C16 1.661 . S
C1817 C30 1.743 . S
C1825 C211 1.769 . S
C1857 C183 1.557 . S
C1849 C8 1.557 . S
