# Generated by pormake.
# Topology the, (3,8)-cn, num edge types: 1
# Building blocks:
#     Node 0, Type 0, BuildingBlock: OLANEW_clean_sbu_2, # of connection points: 3
#     Node 1, Type 0, BuildingBlock: OLANEW_clean_sbu_2, # of connection points: 3
#     Node 2, Type 0, BuildingBlock: OLANEW_clean_sbu_2, # of connection points: 3
#     Node 3, Type 0, BuildingBlock: OLANEW_clean_sbu_2, # of connection points: 3
#     Node 4, Type 0, BuildingBlock: OLANEW_clean_sbu_2, # of connection points: 3
#     Node 5, Type 0, BuildingBlock: OLANEW_clean_sbu_2, # of connection points: 3
#     Node 6, Type 0, BuildingBlock: OLANEW_clean_sbu_2, # of connection points: 3
#     Node 7, Type 0, BuildingBlock: OLANEW_clean_sbu_2, # of connection points: 3
#     Node 8, Type 1, BuildingBlock: GIZVER_clean_sbu_0, # of connection points: 8
#     Node 9, Type 1, BuildingBlock: GIZVER_clean_sbu_0, # of connection points: 8
#     Node 10, Type 1, BuildingBlock: GIZVER_clean_sbu_0, # of connection points: 8
#     Edge 11, Type (0, 1), BuildingBlock: KIFKEQ_clean_linker_1, # of connection points: 2
#     Edge 12, Type (0, 1), BuildingBlock: KIFKEQ_clean_linker_1, # of connection points: 2
#     Edge 13, Type (0, 1), BuildingBlock: KIFKEQ_clean_linker_1, # of connection points: 2
#     Edge 14, Type (0, 1), BuildingBlock: KIFKEQ_clean_linker_1, # of connection points: 2
#     Edge 15, Type (0, 1), BuildingBlock: KIFKEQ_clean_linker_1, # of connection points: 2
#     Edge 16, Type (0, 1), BuildingBlock: KIFKEQ_clean_linker_1, # of connection points: 2
#     Edge 17, Type (0, 1), BuildingBlock: KIFKEQ_clean_linker_1, # of connection points: 2
#     Edge 18, Type (0, 1), BuildingBlock: KIFKEQ_clean_linker_1, # of connection points: 2
#     Edge 19, Type (0, 1), BuildingBlock: KIFKEQ_clean_linker_1, # of connection points: 2
#     Edge 20, Type (0, 1), BuildingBlock: KIFKEQ_clean_linker_1, # of connection points: 2
#     Edge 21, Type (0, 1), BuildingBlock: KIFKEQ_clean_linker_1, # of connection points: 2
#     Edge 22, Type (0, 1), BuildingBlock: KIFKEQ_clean_linker_1, # of connection points: 2
#     Edge 23, Type (0, 1), BuildingBlock: KIFKEQ_clean_linker_1, # of connection points: 2
#     Edge 24, Type (0, 1), BuildingBlock: KIFKEQ_clean_linker_1, # of connection points: 2
#     Edge 25, Type (0, 1), BuildingBlock: KIFKEQ_clean_linker_1, # of connection points: 2
#     Edge 26, Type (0, 1), BuildingBlock: KIFKEQ_clean_linker_1, # of connection points: 2
#     Edge 27, Type (0, 1), BuildingBlock: KIFKEQ_clean_linker_1, # of connection points: 2
#     Edge 28, Type (0, 1), BuildingBlock: KIFKEQ_clean_linker_1, # of connection points: 2
#     Edge 29, Type (0, 1), BuildingBlock: KIFKEQ_clean_linker_1, # of connection points: 2
#     Edge 30, Type (0, 1), BuildingBlock: KIFKEQ_clean_linker_1, # of connection points: 2
#     Edge 31, Type (0, 1), BuildingBlock: KIFKEQ_clean_linker_1, # of connection points: 2
#     Edge 32, Type (0, 1), BuildingBlock: KIFKEQ_clean_linker_1, # of connection points: 2
#     Edge 33, Type (0, 1), BuildingBlock: KIFKEQ_clean_linker_1, # of connection points: 2
#     Edge 34, Type (0, 1), BuildingBlock: KIFKEQ_clean_linker_1, # of connection points: 2
# Relax obj value: 0.076
# Max RMSD: 0.209
# Mean RMSD: 0.134
data_MOF--net-the--node1-OLANEW_clean_sbu_2--node2-GIZVER_clean_sbu_0--edge1-KIFKEQ_clean_linker_1
_symmetry_space_group_name_H-M    P1
_symmetry_Int_Tables_number       1
_symmetry_cell_setting            triclinic
loop_
_symmetry_equiv_pos_as_xyz
'x, y, z'
_cell_length_a     44.63681
_cell_length_b     42.726475
_cell_length_c     38.260134
_cell_angle_alpha  90.947086
_cell_angle_beta   93.171878
_cell_angle_gamma 107.61456
loop_
_atom_site_label
_atom_site_type_symbol
_atom_site_fract_x
_atom_site_fract_y
_atom_site_fract_z
_atom_type_partial_charge
O0 O 0.34587 0.34855 0.33116 0.0
Cd1 Cd 0.32617 0.32659 0.38727 0.0
O2 O 0.32976 0.39173 0.33997 0.0
Cd3 Cd 0.30267 0.37411 0.38529 0.0
O4 O 0.26319 0.37638 0.41534 0.0
C5 C 0.26242 0.40538 0.42178 0.0
O6 O 0.28565 0.4302 0.41207 0.0
C7 C 0.34407 0.37638 0.32168 0.0
C8 C 0.34769 0.2754 0.41177 0.0
O9 O 0.32093 0.2695 0.39467 0.0
O10 O 0.36453 0.30545 0.41679 0.0
O11 O 0.73964 0.37958 0.30298 0.0
Cd12 Cd 0.68679 0.34808 0.27819 0.0
O13 O 0.74951 0.33665 0.32641 0.0
Cd14 Cd 0.70381 0.3002 0.31225 0.0
O15 O 0.66538 0.25628 0.3238 0.0
C16 C 0.66815 0.24519 0.35406 0.0
O17 O 0.69283 0.2606 0.37487 0.0
C18 C 0.75811 0.36723 0.32054 0.0
C19 C 0.66061 0.37824 0.22501 0.0
O20 O 0.65972 0.38581 0.25741 0.0
O21 O 0.67447 0.35694 0.21756 0.0
O22 O 0.72931 0.72838 0.25583 0.0
Cd23 Cd 0.76396 0.76664 0.30007 0.0
O24 O 0.68661 0.733 0.27878 0.0
Cd25 Cd 0.70844 0.77181 0.31854 0.0
O26 O 0.69902 0.81036 0.35056 0.0
C27 C 0.68118 0.82465 0.33497 0.0
O28 O 0.67212 0.81651 0.30191 0.0
C29 C 0.69945 0.72014 0.25602 0.0
C30 C 0.80081 0.73669 0.34085 0.0
O31 O 0.77355 0.73665 0.34981 0.0
O32 O 0.81068 0.75093 0.31262 0.0
O33 O 0.35575 0.80327 0.27454 0.0
Cd34 Cd 0.33064 0.77329 0.22016 0.0
O35 O 0.31077 0.78722 0.29903 0.0
Cd36 Cd 0.27675 0.77772 0.33956 0.0
O37 O 0.23428 0.74719 0.36254 0.0
C38 C 0.21439 0.7264 0.34197 0.0
O39 O 0.22012 0.72521 0.30873 0.0
C40 C 0.33987 0.8035 0.30107 0.0
C41 C 0.355 0.72292 0.20094 0.0
O42 O 0.36865 0.75285 0.19369 0.0
O43 O 0.32983 0.71666 0.2176 0.0
O44 O 0.37678 0.78425 0.76151 0.0
Cd45 Cd 0.34903 0.73593 0.79459 0.0
O46 O 0.33728 0.77818 0.72198 0.0
Cd47 Cd 0.30286 0.73387 0.73915 0.0
O48 O 0.2581 0.69741 0.72183 0.0
C49 C 0.23525 0.70785 0.71201 0.0
O50 O 0.23887 0.73948 0.71521 0.0
C51 C 0.36492 0.79392 0.73423 0.0
C52 C 0.38659 0.70567 0.83485 0.0
O53 O 0.37631 0.69538 0.80348 0.0
O54 O 0.37985 0.73072 0.84693 0.0
O55 O 0.33224 0.32565 0.7668 0.0
Cd56 Cd 0.29641 0.28934 0.72165 0.0
O57 O 0.31283 0.36699 0.75913 0.0
Cd58 Cd 0.27472 0.34543 0.71893 0.0
O59 O 0.23464 0.3515 0.68665 0.0
C60 C 0.21864 0.36728 0.70167 0.0
O61 O 0.2263 0.37681 0.73467 0.0
C62 C 0.33248 0.35482 0.77465 0.0
C63 C 0.3234 0.24659 0.68781 0.0
O64 O 0.32588 0.27525 0.6764 0.0
O65 O 0.3083 0.23809 0.71539 0.0
O66 O 0.70881 0.37579 0.75498 0.0
Cd67 Cd 0.72227 0.33939 0.71277 0.0
O68 O 0.71066 0.3464 0.80118 0.0
Cd69 Cd 0.71552 0.30693 0.76723 0.0
O70 O 0.69797 0.26907 0.72571 0.0
C71 C 0.68246 0.24019 0.73368 0.0
O72 O 0.67934 0.23343 0.76691 0.0
C73 C 0.70695 0.37212 0.78779 0.0
C74 C 0.77813 0.37336 0.68366 0.0
O75 O 0.75151 0.37545 0.67145 0.0
O76 O 0.77838 0.35453 0.70934 0.0
O77 O 0.7867 0.76036 0.58345 0.0
Cd78 Cd 0.76114 0.79406 0.61525 0.0
O79 O 0.76633 0.72379 0.62144 0.0
Cd80 Cd 0.75557 0.68112 0.65486 0.0
O81 O 0.72966 0.65197 0.69621 0.0
C82 C 0.74308 0.64775 0.72515 0.0
O83 O 0.77388 0.65964 0.72979 0.0
C84 C 0.78406 0.73242 0.59611 0.0
C85 C 0.71943 0.81986 0.57773 0.0
O86 O 0.74914 0.83466 0.5797 0.0
O87 O 0.70959 0.79208 0.59228 0.0
Co88 Co 0.05828 0.50329 0.53698 0.0
Co89 Co 0.03354 0.48826 0.47282 0.0
Co90 Co 1.00114 0.53658 0.51117 0.0
O91 O 0.01708 0.49737 0.51456 0.0
H92 H 1.00137 0.47811 0.52213 0.0
O93 O 0.986 0.57595 0.50756 0.0
Co94 Co 0.94437 0.5725 0.48927 0.0
Co95 Co 0.97429 0.58601 0.55118 0.0
H96 H 1.00167 0.59482 0.49917 0.0
O97 O 0.04228 0.44846 0.46316 0.0
O98 O 0.0738 0.49311 0.49248 0.0
O99 O 0.03941 0.52151 0.43819 0.0
O100 O 0.03109 0.5587 0.47484 0.0
O101 O 0.96878 0.51219 0.47361 0.0
O102 O 0.90705 0.57307 0.47124 0.0
O103 O 0.95217 0.61497 0.47763 0.0
O104 O 0.93135 0.52728 0.49757 0.0
O105 O 0.9711 0.5148 0.54763 0.0
O106 O 0.97209 0.55424 0.58669 0.0
O107 O 0.93303 0.58265 0.53657 0.0
O108 O 0.96927 0.62661 0.56247 0.0
C109 C 0.08024 0.47467 0.56434 0.0
C110 C 0.06198 0.56586 0.54714 0.0
C111 C 0.04175 0.55107 0.44661 0.0
C112 C 0.06949 0.46413 0.47846 0.0
C113 C 0.92241 0.60379 0.46705 0.0
C114 C 0.93955 0.50911 0.47578 0.0
C115 C 0.96506 0.52405 0.57772 0.0
C116 C 0.94046 0.61212 0.55068 0.0
O117 O 0.09458 0.50544 0.55924 0.0
O118 O 0.0515 0.4613 0.55087 0.0
O119 O 0.03265 0.56136 0.54914 0.0
O120 O 0.0708 0.54772 0.52618 0.0
Co121 Co 0.53235 0.96496 0.49707 0.0
Co122 Co 0.54988 0.99042 0.55982 0.0
Co123 Co 0.49827 0.02051 0.52753 0.0
O124 O 0.53588 0.00597 0.51978 0.0
H125 H 0.55305 0.02346 0.51154 0.0
O126 O 0.46139 0.03697 0.53426 0.0
Co127 Co 0.46724 0.08102 0.55305 0.0
Co128 Co 0.44968 0.05199 0.49138 0.0
H129 H 0.44387 0.02058 0.54349 0.0
O130 O 0.59067 0.98887 0.56618 0.0
O131 O 0.54873 0.94984 0.54089 0.0
O132 O 0.52297 0.98369 0.59768 0.0
O133 O 0.48121 0.98769 0.56542 0.0
O134 O 0.52437 0.05244 0.56382 0.0
O135 O 0.46902 0.11974 0.57162 0.0
O136 O 0.42721 0.07416 0.56612 0.0
O137 O 0.5106 0.0944 0.54355 0.0
O138 O 0.51598 0.05303 0.49045 0.0
O139 O 0.47683 0.05494 0.45316 0.0
O140 O 0.45543 0.09515 0.50626 0.0
O141 O 0.41106 0.05886 0.48204 0.0
C142 C 0.56068 0.9464 0.4681 0.0
C143 C 0.46983 0.95714 0.49222 0.0
C144 C 0.49349 0.97846 0.59304 0.0
C145 C 0.57832 0.95956 0.55211 0.0
C146 C 0.43958 0.10495 0.57647 0.0
C147 C 0.52942 0.08327 0.56203 0.0
C148 C 0.506 0.06077 0.46092 0.0
C149 C 0.42691 0.08878 0.492 0.0
O150 O 0.53237 0.92848 0.47428 0.0
O151 O 0.57136 0.97653 0.48083 0.0
O152 O 0.47206 0.98764 0.49132 0.0
O153 O 0.49044 0.94806 0.51007 0.0
Co154 Co 0.48441 0.53992 0.08481 0.0
Co155 Co 0.47075 0.48081 0.05898 0.0
Co156 Co 0.52374 0.52967 0.01491 0.0
O157 O 0.48372 0.5215 0.03905 0.0
H158 H 0.46693 0.52442 0.02366 0.0
O159 O 0.56369 0.53739 0.99114 0.0
Co160 Co 0.56404 0.51851 0.94588 0.0
Co161 Co 0.57771 0.57815 0.9717 0.0
H162 H 0.58029 0.53456 0.00689 0.0
O163 O 0.42955 0.46058 0.07023 0.0
O164 O 0.46839 0.49563 0.10447 0.0
O165 O 0.50063 0.45643 0.06097 0.0
O166 O 0.5401 0.49825 0.04414 0.0
O167 O 0.5006 0.49333 0.98045 0.0
O168 O 0.56813 0.50026 0.9052 0.0
O169 O 0.60313 0.51483 0.95184 0.0
O170 O 0.52232 0.51868 0.93419 0.0
O171 O 0.50761 0.5616 0.98572 0.0
O172 O 0.54831 0.60283 0.96979 0.0
O173 O 0.58047 0.56281 0.9267 0.0
O174 O 0.61955 0.59705 0.96103 0.0
C175 C 0.45486 0.55874 0.11112 0.0
C176 C 0.548 0.56129 0.08217 0.0
C177 C 0.52979 0.47023 0.05799 0.0
C178 C 0.44037 0.47443 0.10074 0.0
C179 C 0.59535 0.5016 0.92037 0.0
C180 C 0.49979 0.49745 0.94752 0.0
C181 C 0.51898 0.58999 0.97275 0.0
C182 C 0.60938 0.5819 0.93098 0.0
O183 O 0.48183 0.55858 0.12575 0.0
O184 O 0.44545 0.54426 0.08039 0.0
O185 O 0.54698 0.56595 0.04936 0.0
O186 O 0.52593 0.53914 0.09496 0.0
H187 H 0.20772 0.36 0.43976 0.0
H188 H 0.25408 0.46449 0.43675 0.0
H189 H 0.16042 0.37087 0.45934 0.0
H190 H 0.207 0.47524 0.45525 0.0
H191 H 0.12832 0.49013 0.51013 0.0
H192 H 0.17439 0.47244 0.50313 0.0
H193 H 0.11901 0.39185 0.43462 0.0
H194 H 0.07221 0.40872 0.44307 0.0
C195 C 0.20792 0.38525 0.44354 0.0
C196 C 0.23464 0.41139 0.4366 0.0
C197 C 0.18078 0.39146 0.45454 0.0
C198 C 0.17989 0.42391 0.45888 0.0
C199 C 0.20696 0.44994 0.4528 0.0
C200 C 0.23397 0.44376 0.4419 0.0
C201 C 0.12566 0.46821 0.49416 0.0
C202 C 0.09653 0.45098 0.47696 0.0
C203 C 0.15225 0.45823 0.4899 0.0
C204 C 0.15057 0.43108 0.46781 0.0
C205 C 0.12111 0.41279 0.45197 0.0
C206 C 0.09432 0.42259 0.45661 0.0
H207 H 0.66715 0.21834 0.41815 0.0
H208 H 0.61502 0.20529 0.31763 0.0
H209 H 0.62808 0.1709 0.43928 0.0
H210 H 0.57597 0.15687 0.33868 0.0
H211 H 0.56941 0.07083 0.46306 0.0
H212 H 0.60859 0.11243 0.43331 0.0
H213 H 0.53456 0.14219 0.3794 0.0
H214 H 0.49524 0.09984 0.40844 0.0
C215 C 0.64746 0.20516 0.40039 0.0
C216 C 0.64425 0.21569 0.36617 0.0
C217 C 0.62512 0.17768 0.41245 0.0
C218 C 0.59895 0.15977 0.39061 0.0
C219 C 0.59572 0.1702 0.35628 0.0
C220 C 0.61815 0.19787 0.34417 0.0
C221 C 0.56143 0.08586 0.44441 0.0
C222 C 0.52918 0.08219 0.43842 0.0
C223 C 0.58393 0.10991 0.42753 0.0
C224 C 0.57481 0.13116 0.40446 0.0
C225 C 0.54246 0.12622 0.39687 0.0
C226 C 0.51989 0.10192 0.41359 0.0
H227 H 0.78567 0.70333 0.40098 0.0
H228 H 0.85949 0.73279 0.32884 0.0
H229 H 0.81621 0.67409 0.43444 0.0
H230 H 0.88981 0.70311 0.36205 0.0
H231 H 0.94722 0.6673 0.44666 0.0
H232 H 0.91881 0.70214 0.41888 0.0
H233 H 0.83116 0.62432 0.42463 0.0
H234 H 0.85926 0.58987 0.45252 0.0
C235 C 0.80845 0.70366 0.3923 0.0
C236 C 0.82003 0.72021 0.36209 0.0
C237 C 0.8259 0.68679 0.41142 0.0
C238 C 0.85537 0.68612 0.40081 0.0
C239 C 0.86734 0.70341 0.37113 0.0
C240 C 0.84984 0.72023 0.35195 0.0
C241 C 0.92188 0.65776 0.44212 0.0
C242 C 0.90556 0.62571 0.45148 0.0
C243 C 0.90563 0.67764 0.4261 0.0
C244 C 0.87273 0.66597 0.41947 0.0
C245 C 0.85643 0.63422 0.42966 0.0
C246 C 0.87263 0.61434 0.4454 0.0
H247 H 0.31482 0.83494 0.34954 0.0
H248 H 0.40097 0.81607 0.32423 0.0
H249 H 0.34312 0.87071 0.39934 0.0
H250 H 0.42903 0.85148 0.37371 0.0
H251 H 0.46413 0.89211 0.48271 0.0
H252 H 0.42978 0.85289 0.43995 0.0
H253 H 0.3877 0.92659 0.40552 0.0
H254 H 0.42236 0.96632 0.44844 0.0
C255 C 0.33959 0.83787 0.35505 0.0
C256 C 0.35564 0.82247 0.33321 0.0
C257 C 0.35583 0.85861 0.38326 0.0
C258 C 0.38825 0.86381 0.39044 0.0
C259 C 0.40399 0.84769 0.36908 0.0
C260 C 0.38795 0.8275 0.34067 0.0
C261 C 0.44739 0.90003 0.46635 0.0
C262 C 0.4463 0.93257 0.46879 0.0
C263 C 0.42774 0.87749 0.44178 0.0
C264 C 0.40625 0.88674 0.41922 0.0
C265 C 0.40396 0.91875 0.42271 0.0
C266 C 0.42391 0.94152 0.44716 0.0
H267 H 0.22294 0.64267 0.69428 0.0
H268 H 0.18292 0.72281 0.68643 0.0
H269 H 0.179 0.60814 0.65686 0.0
H270 H 0.13914 0.68827 0.64863 0.0
H271 H 0.05244 0.60446 0.60124 0.0
H272 H 0.09214 0.63771 0.64491 0.0
H273 H 0.16449 0.60958 0.59391 0.0
H274 H 0.12534 0.57665 0.55076 0.0
C275 C 0.20462 0.65283 0.68492 0.0
C276 C 0.20665 0.68562 0.69306 0.0
C277 C 0.17952 0.63309 0.6633 0.0
C278 C 0.15583 0.64564 0.64941 0.0
C279 C 0.15697 0.67787 0.65901 0.0
C280 C 0.18216 0.69768 0.68055 0.0
C281 C 0.07685 0.60554 0.59934 0.0
C282 C 0.08565 0.58774 0.57261 0.0
C283 C 0.09955 0.62455 0.62432 0.0
C284 C 0.13137 0.62587 0.62313 0.0
C285 C 0.1401 0.6085 0.59604 0.0
C286 C 0.1176 0.5898 0.5711 0.0
H287 H 0.35782 0.25848 0.62992 0.0
H288 H 0.32163 0.18393 0.70482 0.0
H289 H 0.38324 0.22274 0.60149 0.0
H290 H 0.34752 0.14826 0.67652 0.0
H291 H 0.37823 0.08306 0.59587 0.0
H292 H 0.34785 0.11605 0.6213 0.0
H293 H 0.42793 0.20301 0.61723 0.0
H294 H 0.45787 0.17057 0.59189 0.0
C295 C 0.35523 0.23444 0.64032 0.0
C296 C 0.33788 0.22421 0.66984 0.0
C297 C 0.36991 0.21398 0.62407 0.0
C298 C 0.36761 0.18271 0.63688 0.0
C299 C 0.34955 0.17208 0.66583 0.0
C300 C 0.33491 0.19263 0.68219 0.0
C301 C 0.38925 0.10921 0.60043 0.0
C302 C 0.42052 0.12409 0.59195 0.0
C303 C 0.37192 0.12808 0.61508 0.0
C304 C 0.38543 0.16221 0.62114 0.0
C305 C 0.41661 0.17692 0.61245 0.0
C306 C 0.43389 0.15816 0.59815 0.0
H307 H 0.78687 0.4282 0.64571 0.0
H308 H 0.83616 0.36372 0.68973 0.0
H309 H 0.836 0.46305 0.62441 0.0
H310 H 0.88542 0.39851 0.66741 0.0
H311 H 0.94621 0.45674 0.57028 0.0
H312 H 0.90296 0.41809 0.59884 0.0
H313 H 0.89129 0.49797 0.66139 0.0
H314 H 0.93459 0.53651 0.63375 0.0
C315 C 0.80814 0.42131 0.65056 0.0
C316 C 0.80771 0.39328 0.66942 0.0
C317 C 0.83622 0.44134 0.63855 0.0
C318 C 0.86433 0.43344 0.64455 0.0
C319 C 0.86394 0.40501 0.66259 0.0
C320 C 0.83586 0.38525 0.67533 0.0
C321 C 0.93496 0.46594 0.59075 0.0
C322 C 0.94366 0.49978 0.59943 0.0
C323 C 0.91029 0.44382 0.60706 0.0
C324 C 0.89377 0.4553 0.63189 0.0
C325 C 0.90364 0.48869 0.64208 0.0
C326 C 0.92852 0.51068 0.62629 0.0
H327 H 0.73275 0.876 0.54059 0.0
H328 H 0.65547 0.80072 0.58097 0.0
H329 H 0.69734 0.90808 0.52555 0.0
H330 H 0.62034 0.83321 0.56694 0.0
H331 H 0.5602 0.89505 0.52869 0.0
H332 H 0.59332 0.85899 0.52468 0.0
H333 H 0.67427 0.93885 0.56344 0.0
H334 H 0.64161 0.97484 0.56653 0.0
C335 C 0.70811 0.86606 0.54577 0.0
C336 C 0.69702 0.83609 0.56252 0.0
C337 C 0.68786 0.88452 0.53731 0.0
C338 C 0.65617 0.87354 0.54571 0.0
C339 C 0.64457 0.84237 0.55998 0.0
C340 C 0.66478 0.82379 0.56821 0.0
C341 C 0.58513 0.90492 0.53605 0.0
C342 C 0.5982 0.93772 0.54831 0.0
C343 C 0.60408 0.88426 0.53378 0.0
C344 C 0.63644 0.896 0.54375 0.0
C345 C 0.64956 0.92907 0.55499 0.0
C346 C 0.6307 0.94965 0.55722 0.0
H347 H 0.40772 0.27733 0.43293 0.0
H348 H 0.31228 0.21238 0.42229 0.0
H349 H 0.42587 0.23244 0.45441 0.0
H350 H 0.32995 0.16788 0.4456 0.0
H351 H 0.3757 0.0862 0.4485 0.0
H352 H 0.35651 0.13122 0.43069 0.0
H353 H 0.42797 0.19784 0.50046 0.0
H354 H 0.44841 0.1529 0.51654 0.0
C355 C 0.39057 0.2535 0.43556 0.0
C356 C 0.35863 0.24832 0.42563 0.0
C357 C 0.40091 0.22775 0.44821 0.0
C358 C 0.37946 0.19629 0.45181 0.0
C359 C 0.34735 0.19144 0.44253 0.0
C360 C 0.33713 0.21704 0.4293 0.0
C361 C 0.38723 0.11041 0.46025 0.0
C362 C 0.41364 0.11591 0.48394 0.0
C363 C 0.37605 0.13633 0.45018 0.0
C364 C 0.39062 0.16843 0.464 0.0
C365 C 0.41648 0.17368 0.48862 0.0
C366 C 0.42803 0.14781 0.49819 0.0
H367 H 0.80631 0.34851 0.35207 0.0
H368 H 0.77851 0.43444 0.3271 0.0
H369 H 0.85259 0.38306 0.38649 0.0
H370 H 0.82477 0.46884 0.36158 0.0
H371 H 0.87747 0.50514 0.4688 0.0
H372 H 0.83705 0.47209 0.427 0.0
H373 H 0.90446 0.43039 0.38404 0.0
H374 H 0.9457 0.46419 0.42605 0.0
C375 C 0.8103 0.37481 0.35345 0.0
C376 C 0.78848 0.38865 0.33707 0.0
C377 C 0.83693 0.39459 0.37305 0.0
C378 C 0.84213 0.42859 0.37703 0.0
C379 C 0.82115 0.44262 0.35931 0.0
C380 C 0.79472 0.42292 0.3394 0.0
C381 C 0.88396 0.4891 0.45046 0.0
C382 C 0.91502 0.48751 0.45076 0.0
C383 C 0.8607 0.47028 0.42628 0.0
C384 C 0.86763 0.44895 0.40193 0.0
C385 C 0.89849 0.44672 0.40249 0.0
C386 C 0.92205 0.46604 0.42651 0.0
H387 H 0.63848 0.85378 0.30947 0.0
H388 H 0.69342 0.84651 0.40395 0.0
H389 H 0.61194 0.88598 0.34174 0.0
H390 H 0.66662 0.87912 0.43631 0.0
H391 H 0.62526 0.96419 0.47025 0.0
H392 H 0.65772 0.93745 0.43836 0.0
H393 H 0.5734 0.86839 0.38988 0.0
H394 H 0.54121 0.89459 0.42174 0.0
C395 C 0.64519 0.85933 0.33705 0.0
C396 C 0.66787 0.84725 0.35419 0.0
C397 C 0.62988 0.87773 0.35553 0.0
C398 C 0.63703 0.88475 0.39154 0.0
C399 C 0.66077 0.87411 0.4085 0.0
C400 C 0.67598 0.85537 0.39 0.0
C401 C 0.61378 0.94347 0.45252 0.0
C402 C 0.58074 0.93164 0.44817 0.0
C403 C 0.63231 0.92806 0.43455 0.0
C404 C 0.61803 0.90108 0.41145 0.0
C405 C 0.58503 0.88942 0.40716 0.0
C406 C 0.56661 0.90436 0.42549 0.0
H407 H 0.16845 0.67856 0.30463 0.0
H408 H 0.19619 0.72047 0.40939 0.0
H409 H 0.12319 0.63778 0.32671 0.0
H410 H 0.15121 0.67929 0.43154 0.0
H411 H 0.05489 0.6174 0.45827 0.0
H412 H 0.09385 0.66123 0.43085 0.0
H413 H 0.11393 0.58961 0.36252 0.0
H414 H 0.07462 0.54575 0.38944 0.0
C415 C 0.16486 0.67917 0.33237 0.0
C416 C 0.18604 0.70274 0.35528 0.0
C417 C 0.13896 0.65567 0.34502 0.0
C418 C 0.13359 0.6552 0.38088 0.0
C419 C 0.1544 0.67922 0.40368 0.0
C420 C 0.18033 0.70271 0.39103 0.0
C421 C 0.06721 0.61096 0.437 0.0
C422 C 0.06172 0.57793 0.42628 0.0
C423 C 0.08975 0.63613 0.42149 0.0
C424 C 0.1073 0.62891 0.39481 0.0
C425 C 0.10069 0.59607 0.38285 0.0
C426 C 0.07816 0.57087 0.39838 0.0
H427 H 0.35355 0.81106 0.66767 0.0
H428 H 0.41683 0.84385 0.75956 0.0
H429 H 0.38301 0.85858 0.63679 0.0
H430 H 0.44561 0.89257 0.72923 0.0
H431 H 0.51247 0.95035 0.65023 0.0
H432 H 0.48075 0.90836 0.68568 0.0
H433 H 0.39636 0.9153 0.62952 0.0
H434 H 0.4286 0.95658 0.59241 0.0
C435 C 0.3736 0.82869 0.68147 0.0
C436 C 0.38297 0.8235 0.71605 0.0
C437 C 0.39036 0.85625 0.66381 0.0
C438 C 0.41678 0.87974 0.68036 0.0
C439 C 0.42576 0.87483 0.71528 0.0
C440 C 0.40922 0.84692 0.7328 0.0
C441 C 0.48712 0.9433 0.6455 0.0
C442 C 0.47318 0.95674 0.61804 0.0
C443 C 0.46879 0.91919 0.66621 0.0
C444 C 0.43584 0.90799 0.6605 0.0
C445 C 0.42171 0.9227 0.63425 0.0
C446 C 0.44016 0.94666 0.61314 0.0
H447 H 0.19613 0.35256 0.63289 0.0
H448 H 0.18527 0.40605 0.72578 0.0
H449 H 0.15927 0.37516 0.59964 0.0
H450 H 0.14889 0.42845 0.69266 0.0
H451 H 0.13036 0.49896 0.61059 0.0
H452 H 0.16046 0.46926 0.64346 0.0
H453 H 0.10027 0.37753 0.59681 0.0
H454 H 0.06952 0.40757 0.56362 0.0
C455 C 0.18563 0.36875 0.64631 0.0
C456 C 0.19394 0.37777 0.68192 0.0
C457 C 0.16444 0.38152 0.62732 0.0
C458 C 0.15147 0.40376 0.64353 0.0
C459 C 0.1588 0.41164 0.6794 0.0
C460 C 0.17965 0.39872 0.69838 0.0
C461 C 0.12334 0.47244 0.60733 0.0
C462 C 0.0974 0.45558 0.58468 0.0
C463 C 0.14054 0.45542 0.62633 0.0
C464 C 0.13257 0.42108 0.62291 0.0
C465 C 0.10687 0.40403 0.59993 0.0
C466 C 0.0892 0.42115 0.58118 0.0
H467 H 0.64744 0.1765 0.74187 0.0
H468 H 0.67766 0.24874 0.66303 0.0
H469 H 0.61388 0.13831 0.69757 0.0
H470 H 0.64431 0.21024 0.61858 0.0
H471 H 0.54625 0.15044 0.56645 0.0
H472 H 0.58702 0.18746 0.60562 0.0
H473 H 0.61385 0.10489 0.6448 0.0
H474 H 0.57283 0.06774 0.60598 0.0
C475 C 0.64729 0.18407 0.715 0.0
C476 C 0.66504 0.21576 0.70606 0.0
C477 C 0.62817 0.16209 0.68955 0.0
C478 C 0.62631 0.17132 0.65459 0.0
C479 C 0.64493 0.20259 0.64539 0.0
C480 C 0.66418 0.22455 0.67083 0.0
C481 C 0.56104 0.14019 0.58314 0.0
C482 C 0.55606 0.10609 0.58329 0.0
C483 C 0.58455 0.16144 0.60546 0.0
C484 C 0.60356 0.14908 0.62845 0.0
C485 C 0.5993 0.11511 0.62773 0.0
C486 C 0.57586 0.09386 0.60536 0.0
H487 H 0.77653 0.66645 0.60427 0.0
H488 H 0.836 0.7535 0.55875 0.0
H489 H 0.8134 0.63679 0.5899 0.0
H490 H 0.87211 0.72355 0.5433 0.0
H491 H 0.9492 0.67553 0.57244 0.0
H492 H 0.90939 0.70309 0.57891 0.0
H493 H 0.83695 0.61506 0.54089 0.0
H494 H 0.87688 0.58714 0.53481 0.0
C495 C 0.79739 0.67928 0.59129 0.0
C496 C 0.80376 0.71264 0.58369 0.0
C497 C 0.81829 0.66212 0.58253 0.0
C498 C 0.84591 0.67801 0.56595 0.0
C499 C 0.85135 0.71083 0.55669 0.0
C500 C 0.8305 0.72791 0.56537 0.0
C501 C 0.92482 0.66201 0.56535 0.0
C502 C 0.91622 0.62908 0.55333 0.0
C503 C 0.90201 0.67791 0.5688 0.0
C504 C 0.87002 0.66125 0.56038 0.0
C505 C 0.86138 0.62842 0.5479 0.0
C506 C 0.88428 0.61251 0.54431 0.0
H507 H 0.36574 0.34684 0.2685 0.0
H508 H 0.35371 0.43935 0.30131 0.0
H509 H 0.3873 0.37142 0.2144 0.0
H510 H 0.37521 0.4637 0.24746 0.0
H511 H 0.45123 0.50228 0.16684 0.0
H512 H 0.42746 0.47866 0.2201 0.0
H513 H 0.36799 0.39434 0.15961 0.0
H514 H 0.39165 0.41794 0.10622 0.0
C515 C 0.36777 0.37238 0.26425 0.0
C516 C 0.35801 0.39111 0.28923 0.0
C517 C 0.37988 0.38637 0.23318 0.0
C518 C 0.38284 0.41946 0.2267 0.0
C519 C 0.3734 0.43822 0.25184 0.0
C520 C 0.36097 0.42418 0.28263 0.0
C521 C 0.43283 0.47889 0.16481 0.0
C522 C 0.42338 0.46198 0.13228 0.0
C523 C 0.4192 0.46539 0.19532 0.0
C524 C 0.39609 0.43451 0.19403 0.0
C525 C 0.38607 0.41797 0.16143 0.0
C526 C 0.39941 0.43166 0.13083 0.0
H527 H 0.41947 0.72683 0.89779 0.0
H528 H 0.39534 0.64595 0.82165 0.0
H529 H 0.44952 0.69872 0.93393 0.0
H530 H 0.42526 0.61783 0.85793 0.0
H531 H 0.4571 0.56357 0.94885 0.0
H532 H 0.42388 0.59136 0.91703 0.0
H533 H 0.49912 0.68301 0.92885 0.0
H534 H 0.53229 0.65538 0.96038 0.0
C535 C 0.42054 0.70306 0.88876 0.0
C536 C 0.4051 0.68873 0.85672 0.0
C537 C 0.43781 0.68698 0.90946 0.0
C538 C 0.43969 0.65599 0.89886 0.0
C539 C 0.42397 0.6415 0.86702 0.0
C540 C 0.40704 0.65776 0.8461 0.0
C541 C 0.46636 0.58975 0.94512 0.0
C542 C 0.49738 0.60724 0.95715 0.0
C543 C 0.44744 0.60559 0.92662 0.0
C544 C 0.45892 0.63936 0.92027 0.0
C545 C 0.48949 0.65704 0.93347 0.0
C546 C 0.50854 0.64115 0.95145 0.0
H547 H 0.3725 0.33546 0.82069 0.0
H548 H 0.34524 0.42037 0.79 0.0
H549 H 0.41139 0.36977 0.86428 0.0
H550 H 0.38396 0.45437 0.83332 0.0
H551 H 0.48418 0.50898 0.88017 0.0
H552 H 0.44291 0.47404 0.84001 0.0
H553 H 0.41445 0.4038 0.92091 0.0
H554 H 0.45591 0.439 0.96147 0.0
C555 C 0.37472 0.36136 0.82325 0.0
C556 C 0.35581 0.37514 0.80168 0.0
C557 C 0.39684 0.38094 0.84837 0.0
C558 C 0.40078 0.41478 0.85215 0.0
C559 C 0.38169 0.42845 0.83081 0.0
C560 C 0.35941 0.40888 0.80604 0.0
C561 C 0.46906 0.48618 0.88954 0.0
C562 C 0.47338 0.47678 0.92405 0.0
C563 C 0.44531 0.46622 0.86653 0.0
C564 C 0.42545 0.43614 0.87727 0.0
C565 C 0.42957 0.42673 0.91183 0.0
C566 C 0.45314 0.44699 0.9351 0.0
H567 H 0.69489 0.36942 0.85736 0.0
H568 H 0.69836 0.42988 0.76726 0.0
H569 H 0.67287 0.40564 0.8904 0.0
H570 H 0.67682 0.46624 0.80048 0.0
H571 H 0.64825 0.48824 0.94713 0.0
H572 H 0.68118 0.46161 0.91637 0.0
H573 H 0.62397 0.45807 0.82066 0.0
H574 H 0.5915 0.48476 0.85106 0.0
C575 C 0.69153 0.39075 0.8448 0.0
C576 C 0.69796 0.39647 0.80951 0.0
C577 C 0.67907 0.41162 0.86381 0.0
C578 C 0.67279 0.43859 0.8479 0.0
C579 C 0.6809 0.44532 0.81326 0.0
C580 C 0.69335 0.42452 0.79428 0.0
C581 C 0.64301 0.48211 0.91942 0.0
C582 C 0.6171 0.48827 0.90159 0.0
C583 C 0.66175 0.46675 0.90189 0.0
C584 C 0.65512 0.45766 0.86613 0.0
C585 C 0.62995 0.46506 0.84811 0.0
C586 C 0.61113 0.48011 0.86563 0.0
H587 H 0.76379 0.63426 0.79025 0.0
H588 H 0.67893 0.62757 0.72652 0.0
H589 H 0.73229 0.61414 0.83996 0.0
H590 H 0.64762 0.60847 0.77631 0.0
H591 H 0.5958 0.55385 0.86485 0.0
H592 H 0.62895 0.56473 0.81532 0.0
H593 H 0.7024 0.6347 0.87968 0.0
H594 H 0.66974 0.62278 0.92959 0.0
C595 C 0.73842 0.62834 0.78677 0.0
C596 C 0.72392 0.63273 0.75445 0.0
C597 C 0.72036 0.617 0.81534 0.0
C598 C 0.6874 0.6099 0.81228 0.0
C599 C 0.67288 0.61328 0.77959 0.0
C600 C 0.6909 0.62446 0.75102 0.0
C601 C 0.61916 0.57127 0.86859 0.0
C602 C 0.63005 0.58751 0.90122 0.0
C603 C 0.63811 0.57768 0.84007 0.0
C604 C 0.66831 0.60077 0.84336 0.0
C605 C 0.67945 0.61645 0.87624 0.0
C606 C 0.66059 0.60983 0.90484 0.0
H607 H 0.636 0.69154 0.25539 0.0
H608 H 0.71676 0.69402 0.19689 0.0
H609 H 0.60198 0.65256 0.21234 0.0
H610 H 0.68229 0.65454 0.15352 0.0
H611 H 0.59835 0.61381 0.06631 0.0
H612 H 0.63714 0.65144 0.10772 0.0
H613 H 0.59364 0.59444 0.19371 0.0
H614 H 0.55511 0.55724 0.1529 0.0
C615 C 0.64657 0.68371 0.23338 0.0
C616 C 0.67918 0.69587 0.22971 0.0
C617 C 0.62702 0.66121 0.20876 0.0
C618 C 0.63948 0.65033 0.17965 0.0
C619 C 0.67204 0.66261 0.17564 0.0
C620 C 0.69176 0.68503 0.20057 0.0
C621 C 0.59728 0.6092 0.09403 0.0
C622 C 0.57337 0.58273 0.10627 0.0
C623 C 0.61956 0.63065 0.1177 0.0
C624 C 0.61817 0.62609 0.15398 0.0
C625 C 0.59499 0.59893 0.16597 0.0
C626 C 0.57295 0.57753 0.14247 0.0
H627 H 0.41464 0.72937 0.1829 0.0
H628 H 0.32457 0.65679 0.19434 0.0
H629 H 0.43617 0.68613 0.16421 0.0
H630 H 0.34618 0.61345 0.17491 0.0
H631 H 0.39592 0.56245 0.0911 0.0
H632 H 0.36968 0.59993 0.11551 0.0
H633 H 0.4464 0.63529 0.194 0.0
H634 H 0.4724 0.59785 0.17025 0.0
C635 C 0.39944 0.70418 0.1814 0.0
C636 C 0.36794 0.69646 0.19014 0.0
C637 C 0.41181 0.67943 0.17087 0.0
C638 C 0.39283 0.64649 0.16825 0.0
C639 C 0.36124 0.63869 0.17668 0.0
C640 C 0.34899 0.66344 0.18791 0.0
C641 C 0.40687 0.57777 0.11396 0.0
C642 C 0.43638 0.57735 0.12851 0.0
C643 C 0.39183 0.59914 0.12793 0.0
C644 C 0.40626 0.62071 0.15634 0.0
C645 C 0.43498 0.61917 0.17183 0.0
C646 C 0.44976 0.59758 0.15826 0.0
H647 H 0.64143 0.35436 0.15801 0.0
H648 H 0.64416 0.43472 0.22935 0.0
H649 H 0.61229 0.37636 0.11363 0.0
H650 H 0.61568 0.45698 0.18472 0.0
H651 H 0.58972 0.50235 0.08386 0.0
H652 H 0.6241 0.48059 0.12171 0.0
H653 H 0.55575 0.38426 0.11179 0.0
H654 H 0.52096 0.40604 0.07442 0.0
C655 C 0.63618 0.37692 0.16405 0.0
C656 C 0.64503 0.39277 0.19722 0.0
C657 C 0.61941 0.3894 0.1387 0.0
C658 C 0.6118 0.41838 0.14573 0.0
C659 C 0.62147 0.43475 0.1785 0.0
C660 C 0.63764 0.42191 0.20408 0.0
C661 C 0.58225 0.47638 0.08914 0.0
C662 C 0.55257 0.4559 0.07611 0.0
C663 C 0.60186 0.46403 0.11104 0.0
C664 C 0.59251 0.4308 0.11978 0.0
C665 C 0.56359 0.40994 0.10532 0.0
C666 C 0.54368 0.42243 0.084 0.0
loop_
_geom_bond_atom_site_label_1
_geom_bond_atom_site_label_2
_geom_bond_distance
_geom_bond_site_symmetry_2
_ccdc_geom_bond_type
O0 Cd1 2.300 . S
O0 C7 1.275 . S
Cd1 O0 2.300 . S
Cd1 O9 2.381 . S
Cd1 O10 2.378 . S
O2 Cd3 2.385 . S
O2 C7 1.255 . S
Cd3 O2 2.385 . S
Cd3 O4 2.317 . S
O4 Cd3 2.317 . S
O4 C5 1.232 . S
C5 O4 1.232 . S
C5 O6 1.218 . S
O6 C5 1.218 . S
C7 O0 1.275 . S
C7 O2 1.255 . S
C8 O9 1.258 . S
C8 O10 1.256 . S
O9 Cd1 2.381 . S
O9 C8 1.258 . S
O10 Cd1 2.378 . S
O10 C8 1.256 . S
O11 Cd12 2.300 . S
O11 C18 1.275 . S
Cd12 O11 2.300 . S
Cd12 O20 2.381 . S
Cd12 O21 2.378 . S
O13 Cd14 2.385 . S
O13 C18 1.255 . S
Cd14 O13 2.385 . S
Cd14 O15 2.317 . S
O15 Cd14 2.317 . S
O15 C16 1.232 . S
C16 O15 1.232 . S
C16 O17 1.218 . S
O17 C16 1.218 . S
C18 O11 1.275 . S
C18 O13 1.255 . S
C19 O20 1.258 . S
C19 O21 1.256 . S
O20 Cd12 2.381 . S
O20 C19 1.258 . S
O21 Cd12 2.378 . S
O21 C19 1.256 . S
O22 Cd23 2.300 . S
O22 C29 1.275 . S
Cd23 O22 2.300 . S
Cd23 O31 2.381 . S
Cd23 O32 2.378 . S
O24 Cd25 2.385 . S
O24 C29 1.255 . S
Cd25 O24 2.385 . S
Cd25 O26 2.317 . S
O26 Cd25 2.317 . S
O26 C27 1.232 . S
C27 O26 1.232 . S
C27 O28 1.218 . S
O28 C27 1.218 . S
C29 O22 1.275 . S
C29 O24 1.255 . S
C30 O31 1.258 . S
C30 O32 1.256 . S
O31 Cd23 2.381 . S
O31 C30 1.258 . S
O32 Cd23 2.378 . S
O32 C30 1.256 . S
O33 Cd34 2.300 . S
O33 C40 1.275 . S
Cd34 O33 2.300 . S
Cd34 O42 2.381 . S
Cd34 O43 2.378 . S
O35 Cd36 2.385 . S
O35 C40 1.255 . S
Cd36 O35 2.385 . S
Cd36 O37 2.317 . S
O37 Cd36 2.317 . S
O37 C38 1.232 . S
C38 O37 1.232 . S
C38 O39 1.218 . S
O39 C38 1.218 . S
C40 O33 1.275 . S
C40 O35 1.255 . S
C41 O42 1.258 . S
C41 O43 1.256 . S
O42 Cd34 2.381 . S
O42 C41 1.258 . S
O43 Cd34 2.378 . S
O43 C41 1.256 . S
O44 Cd45 2.300 . S
O44 C51 1.275 . S
Cd45 O44 2.300 . S
Cd45 O53 2.381 . S
Cd45 O54 2.378 . S
O46 Cd47 2.385 . S
O46 C51 1.255 . S
Cd47 O46 2.385 . S
Cd47 O48 2.317 . S
O48 Cd47 2.317 . S
O48 C49 1.232 . S
C49 O48 1.232 . S
C49 O50 1.218 . S
O50 C49 1.218 . S
C51 O44 1.275 . S
C51 O46 1.255 . S
C52 O53 1.258 . S
C52 O54 1.256 . S
O53 Cd45 2.381 . S
O53 C52 1.258 . S
O54 Cd45 2.378 . S
O54 C52 1.256 . S
O55 Cd56 2.300 . S
O55 C62 1.275 . S
Cd56 O55 2.300 . S
Cd56 O64 2.381 . S
Cd56 O65 2.378 . S
O57 Cd58 2.385 . S
O57 C62 1.255 . S
Cd58 O57 2.385 . S
Cd58 O59 2.317 . S
O59 Cd58 2.317 . S
O59 C60 1.232 . S
C60 O59 1.232 . S
C60 O61 1.218 . S
O61 C60 1.218 . S
C62 O55 1.275 . S
C62 O57 1.255 . S
C63 O64 1.258 . S
C63 O65 1.256 . S
O64 Cd56 2.381 . S
O64 C63 1.258 . S
O65 Cd56 2.378 . S
O65 C63 1.256 . S
O66 Cd67 2.300 . S
O66 C73 1.275 . S
Cd67 O66 2.300 . S
Cd67 O75 2.381 . S
Cd67 O76 2.378 . S
O68 Cd69 2.385 . S
O68 C73 1.255 . S
Cd69 O68 2.385 . S
Cd69 O70 2.317 . S
O70 Cd69 2.317 . S
O70 C71 1.232 . S
C71 O70 1.232 . S
C71 O72 1.218 . S
O72 C71 1.218 . S
C73 O66 1.275 . S
C73 O68 1.255 . S
C74 O75 1.258 . S
C74 O76 1.256 . S
O75 Cd67 2.381 . S
O75 C74 1.258 . S
O76 Cd67 2.378 . S
O76 C74 1.256 . S
O77 Cd78 2.300 . S
O77 C84 1.275 . S
Cd78 O77 2.300 . S
Cd78 O86 2.381 . S
Cd78 O87 2.378 . S
O79 Cd80 2.385 . S
O79 C84 1.255 . S
Cd80 O79 2.385 . S
Cd80 O81 2.317 . S
O81 Cd80 2.317 . S
O81 C82 1.232 . S
C82 O81 1.232 . S
C82 O83 1.218 . S
O83 C82 1.218 . S
C84 O77 1.275 . S
C84 O79 1.255 . S
C85 O86 1.258 . S
C85 O87 1.256 . S
O86 Cd78 2.381 . S
O86 C85 1.258 . S
O87 Cd78 2.378 . S
O87 C85 1.256 . S
Co88 O91 2.042 . S
Co88 O98 2.264 . S
Co88 O117 2.286 . S
Co88 O118 2.069 . S
Co88 O120 2.015 . S
Co89 O91 2.122 . S
Co89 O97 2.073 . S
Co89 O98 2.327 . S
Co89 O99 1.976 . S
Co90 O91 2.087 . S
Co90 O93 2.087 1_455 S
Co90 O100 2.111 . S
Co90 O101 2.143 1_455 S
Co90 O105 2.111 1_455 S
Co90 O119 2.143 . S
O91 Co88 2.042 . S
O91 Co89 2.122 . S
O91 Co90 2.087 . S
O91 H92 0.980 . S
H92 O91 0.980 . S
O93 Co90 2.087 1_655 S
O93 Co94 2.042 . S
O93 Co95 2.122 . S
O93 H96 0.980 1_655 S
Co94 O93 2.042 . S
Co94 O102 2.286 . S
Co94 O103 2.069 . S
Co94 O104 2.015 . S
Co94 O107 2.264 . S
Co95 O93 2.122 . S
Co95 O106 1.976 . S
Co95 O107 2.327 . S
Co95 O108 2.073 . S
H96 O93 0.980 1_455 S
O97 Co89 2.073 . S
O97 C112 1.245 . S
O98 Co88 2.264 . S
O98 Co89 2.327 . S
O98 C112 1.257 . S
O99 Co89 1.976 . S
O99 C111 1.251 . S
O100 Co90 2.111 . S
O100 C111 1.274 . S
O101 Co90 2.143 1_655 S
O101 C114 1.246 . S
O102 Co94 2.286 . S
O102 C113 1.259 . S
O103 Co94 2.069 . S
O103 C113 1.289 . S
O104 Co94 2.015 . S
O104 C114 1.257 . S
O105 Co90 2.111 1_655 S
O105 C115 1.274 . S
O106 Co95 1.976 . S
O106 C115 1.251 . S
O107 Co94 2.264 . S
O107 Co95 2.327 . S
O107 C116 1.257 . S
O108 Co95 2.073 . S
O108 C116 1.245 . S
C109 O117 1.259 . S
C109 O118 1.289 . S
C110 O119 1.246 . S
C110 O120 1.257 . S
C111 O99 1.251 . S
C111 O100 1.274 . S
C112 O97 1.245 . S
C112 O98 1.257 . S
C113 O102 1.259 . S
C113 O103 1.289 . S
C114 O101 1.246 . S
C114 O104 1.257 . S
C115 O105 1.274 . S
C115 O106 1.251 . S
C116 O107 1.257 . S
C116 O108 1.245 . S
O117 Co88 2.286 . S
O117 C109 1.259 . S
O118 Co88 2.069 . S
O118 C109 1.289 . S
O119 Co90 2.143 . S
O119 C110 1.246 . S
O120 Co88 2.015 . S
O120 C110 1.257 . S
Co121 O124 2.042 . S
Co121 O131 2.264 . S
Co121 O150 2.286 . S
Co121 O151 2.069 . S
Co121 O153 2.015 . S
Co122 O124 2.122 . S
Co122 O130 2.073 . S
Co122 O131 2.327 . S
Co122 O132 1.976 . S
Co123 O124 2.087 1_545 S
Co123 O126 2.087 . S
Co123 O133 2.111 1_545 S
Co123 O134 2.143 . S
Co123 O138 2.111 . S
Co123 O152 2.143 1_545 S
O124 Co121 2.042 . S
O124 Co122 2.122 . S
O124 Co123 2.087 1_565 S
O124 H125 0.980 1_565 S
H125 O124 0.980 1_545 S
O126 Co123 2.087 . S
O126 Co127 2.042 . S
O126 Co128 2.122 . S
O126 H129 0.980 . S
Co127 O126 2.042 . S
Co127 O135 2.286 . S
Co127 O136 2.069 . S
Co127 O137 2.015 . S
Co127 O140 2.264 . S
Co128 O126 2.122 . S
Co128 O139 1.976 . S
Co128 O140 2.327 . S
Co128 O141 2.073 . S
H129 O126 0.980 . S
O130 Co122 2.073 . S
O130 C145 1.245 . S
O131 Co121 2.264 . S
O131 Co122 2.327 . S
O131 C145 1.257 . S
O132 Co122 1.976 . S
O132 C144 1.251 . S
O133 Co123 2.111 1_565 S
O133 C144 1.274 . S
O134 Co123 2.143 . S
O134 C147 1.246 . S
O135 Co127 2.286 . S
O135 C146 1.259 . S
O136 Co127 2.069 . S
O136 C146 1.289 . S
O137 Co127 2.015 . S
O137 C147 1.257 . S
O138 Co123 2.111 . S
O138 C148 1.274 . S
O139 Co128 1.976 . S
O139 C148 1.251 . S
O140 Co127 2.264 . S
O140 Co128 2.327 . S
O140 C149 1.257 . S
O141 Co128 2.073 . S
O141 C149 1.245 . S
C142 O150 1.259 . S
C142 O151 1.289 . S
C143 O152 1.246 . S
C143 O153 1.257 . S
C144 O132 1.251 . S
C144 O133 1.274 . S
C145 O130 1.245 . S
C145 O131 1.257 . S
C146 O135 1.259 . S
C146 O136 1.289 . S
C147 O134 1.246 . S
C147 O137 1.257 . S
C148 O138 1.274 . S
C148 O139 1.251 . S
C149 O140 1.257 . S
C149 O141 1.245 . S
O150 Co121 2.286 . S
O150 C142 1.259 . S
O151 Co121 2.069 . S
O151 C142 1.289 . S
O152 Co123 2.143 1_565 S
O152 C143 1.246 . S
O153 Co121 2.015 . S
O153 C143 1.257 . S
Co154 O157 2.042 . S
Co154 O164 2.264 . S
Co154 O183 2.286 . S
Co154 O184 2.069 . S
Co154 O186 2.015 . S
Co155 O157 2.122 . S
Co155 O163 2.073 . S
Co155 O164 2.327 . S
Co155 O165 1.976 . S
Co156 O157 2.087 . S
Co156 O159 2.087 1_554 S
Co156 O166 2.111 . S
Co156 O167 2.143 1_554 S
Co156 O171 2.111 1_554 S
Co156 O185 2.143 . S
O157 Co154 2.042 . S
O157 Co155 2.122 . S
O157 Co156 2.087 . S
O157 H158 0.980 . S
H158 O157 0.980 . S
O159 Co156 2.087 1_556 S
O159 Co160 2.042 . S
O159 Co161 2.122 . S
O159 H162 0.980 . S
Co160 O159 2.042 . S
Co160 O168 2.286 . S
Co160 O169 2.069 . S
Co160 O170 2.015 . S
Co160 O173 2.264 . S
Co161 O159 2.122 . S
Co161 O172 1.976 . S
Co161 O173 2.327 . S
Co161 O174 2.073 . S
H162 O159 0.980 . S
O163 Co155 2.073 . S
O163 C178 1.245 . S
O164 Co154 2.264 . S
O164 Co155 2.327 . S
O164 C178 1.257 . S
O165 Co155 1.976 . S
O165 C177 1.251 . S
O166 Co156 2.111 . S
O166 C177 1.274 . S
O167 Co156 2.143 1_556 S
O167 C180 1.246 . S
O168 Co160 2.286 . S
O168 C179 1.259 . S
O169 Co160 2.069 . S
O169 C179 1.289 . S
O170 Co160 2.015 . S
O170 C180 1.257 . S
O171 Co156 2.111 1_556 S
O171 C181 1.274 . S
O172 Co161 1.976 . S
O172 C181 1.251 . S
O173 Co160 2.264 . S
O173 Co161 2.327 . S
O173 C182 1.257 . S
O174 Co161 2.073 . S
O174 C182 1.245 . S
C175 O183 1.259 . S
C175 O184 1.289 . S
C176 O185 1.246 . S
C176 O186 1.257 . S
C177 O165 1.251 . S
C177 O166 1.274 . S
C178 O163 1.245 . S
C178 O164 1.257 . S
C179 O168 1.259 . S
C179 O169 1.289 . S
C180 O167 1.246 . S
C180 O170 1.257 . S
C181 O171 1.274 . S
C181 O172 1.251 . S
C182 O173 1.257 . S
C182 O174 1.245 . S
O183 Co154 2.286 . S
O183 C175 1.259 . S
O184 Co154 2.069 . S
O184 C175 1.289 . S
O185 Co156 2.143 . S
O185 C176 1.246 . S
O186 Co154 2.015 . S
O186 C176 1.257 . S
H187 C195 0.950 . S
H188 C200 0.950 . S
H189 C197 0.950 . S
H190 C199 0.950 . S
H191 C201 0.950 . S
H192 C203 0.950 . S
H193 C205 0.950 . S
H194 C206 0.950 . S
C195 H187 0.950 . S
C195 C196 1.386 . S
C195 C197 1.391 . S
C196 C195 1.386 . S
C196 C200 1.393 . S
C197 H189 0.950 . S
C197 C195 1.391 . S
C197 C198 1.400 . S
C198 C197 1.400 . S
C198 C199 1.398 . S
C198 C204 1.491 . S
C199 H190 0.950 . S
C199 C198 1.398 . S
C199 C200 1.391 . S
C200 H188 0.950 . S
C200 C196 1.393 . S
C200 C199 1.391 . S
C201 H191 0.950 . S
C201 C202 1.386 . S
C201 C203 1.391 . S
C202 C201 1.386 . S
C202 C206 1.393 . S
C203 H192 0.950 . S
C203 C201 1.391 . S
C203 C204 1.400 . S
C204 C198 1.491 . S
C204 C203 1.400 . S
C204 C205 1.398 . S
C205 H193 0.950 . S
C205 C204 1.398 . S
C205 C206 1.391 . S
C206 H194 0.950 . S
C206 C202 1.393 . S
C206 C205 1.391 . S
H207 C215 0.950 . S
H208 C220 0.950 . S
H209 C217 0.950 . S
H210 C219 0.950 . S
H211 C221 0.950 . S
H212 C223 0.950 . S
H213 C225 0.950 . S
H214 C226 0.950 . S
C215 H207 0.950 . S
C215 C216 1.386 . S
C215 C217 1.391 . S
C216 C215 1.386 . S
C216 C220 1.393 . S
C217 H209 0.950 . S
C217 C215 1.391 . S
C217 C218 1.400 . S
C218 C217 1.400 . S
C218 C219 1.398 . S
C218 C224 1.491 . S
C219 H210 0.950 . S
C219 C218 1.398 . S
C219 C220 1.391 . S
C220 H208 0.950 . S
C220 C216 1.393 . S
C220 C219 1.391 . S
C221 H211 0.950 . S
C221 C222 1.386 . S
C221 C223 1.391 . S
C222 C221 1.386 . S
C222 C226 1.393 . S
C223 H212 0.950 . S
C223 C221 1.391 . S
C223 C224 1.400 . S
C224 C218 1.491 . S
C224 C223 1.400 . S
C224 C225 1.398 . S
C225 H213 0.950 . S
C225 C224 1.398 . S
C225 C226 1.391 . S
C226 H214 0.950 . S
C226 C222 1.393 . S
C226 C225 1.391 . S
H227 C235 0.950 . S
H228 C240 0.950 . S
H229 C237 0.950 . S
H230 C239 0.950 . S
H231 C241 0.950 . S
H232 C243 0.950 . S
H233 C245 0.950 . S
H234 C246 0.950 . S
C235 H227 0.950 . S
C235 C236 1.386 . S
C235 C237 1.391 . S
C236 C235 1.386 . S
C236 C240 1.393 . S
C237 H229 0.950 . S
C237 C235 1.391 . S
C237 C238 1.400 . S
C238 C237 1.400 . S
C238 C239 1.398 . S
C238 C244 1.491 . S
C239 H230 0.950 . S
C239 C238 1.398 . S
C239 C240 1.391 . S
C240 H228 0.950 . S
C240 C236 1.393 . S
C240 C239 1.391 . S
C241 H231 0.950 . S
C241 C242 1.386 . S
C241 C243 1.391 . S
C242 C241 1.386 . S
C242 C246 1.393 . S
C243 H232 0.950 . S
C243 C241 1.391 . S
C243 C244 1.400 . S
C244 C238 1.491 . S
C244 C243 1.400 . S
C244 C245 1.398 . S
C245 H233 0.950 . S
C245 C244 1.398 . S
C245 C246 1.391 . S
C246 H234 0.950 . S
C246 C242 1.393 . S
C246 C245 1.391 . S
H247 C255 0.950 . S
H248 C260 0.950 . S
H249 C257 0.950 . S
H250 C259 0.950 . S
H251 C261 0.950 . S
H252 C263 0.950 . S
H253 C265 0.950 . S
H254 C266 0.950 . S
C255 H247 0.950 . S
C255 C256 1.386 . S
C255 C257 1.391 . S
C256 C255 1.386 . S
C256 C260 1.393 . S
C257 H249 0.950 . S
C257 C255 1.391 . S
C257 C258 1.400 . S
C258 C257 1.400 . S
C258 C259 1.398 . S
C258 C264 1.491 . S
C259 H250 0.950 . S
C259 C258 1.398 . S
C259 C260 1.391 . S
C260 H248 0.950 . S
C260 C256 1.393 . S
C260 C259 1.391 . S
C261 H251 0.950 . S
C261 C262 1.386 . S
C261 C263 1.391 . S
C262 C261 1.386 . S
C262 C266 1.393 . S
C263 H252 0.950 . S
C263 C261 1.391 . S
C263 C264 1.400 . S
C264 C258 1.491 . S
C264 C263 1.400 . S
C264 C265 1.398 . S
C265 H253 0.950 . S
C265 C264 1.398 . S
C265 C266 1.391 . S
C266 H254 0.950 . S
C266 C262 1.393 . S
C266 C265 1.391 . S
H267 C275 0.950 . S
H268 C280 0.950 . S
H269 C277 0.950 . S
H270 C279 0.950 . S
H271 C281 0.950 . S
H272 C283 0.950 . S
H273 C285 0.950 . S
H274 C286 0.950 . S
C275 H267 0.950 . S
C275 C276 1.386 . S
C275 C277 1.391 . S
C276 C275 1.386 . S
C276 C280 1.393 . S
C277 H269 0.950 . S
C277 C275 1.391 . S
C277 C278 1.400 . S
C278 C277 1.400 . S
C278 C279 1.398 . S
C278 C284 1.491 . S
C279 H270 0.950 . S
C279 C278 1.398 . S
C279 C280 1.391 . S
C280 H268 0.950 . S
C280 C276 1.393 . S
C280 C279 1.391 . S
C281 H271 0.950 . S
C281 C282 1.386 . S
C281 C283 1.391 . S
C282 C281 1.386 . S
C282 C286 1.393 . S
C283 H272 0.950 . S
C283 C281 1.391 . S
C283 C284 1.400 . S
C284 C278 1.491 . S
C284 C283 1.400 . S
C284 C285 1.398 . S
C285 H273 0.950 . S
C285 C284 1.398 . S
C285 C286 1.391 . S
C286 H274 0.950 . S
C286 C282 1.393 . S
C286 C285 1.391 . S
H287 C295 0.950 . S
H288 C300 0.950 . S
H289 C297 0.950 . S
H290 C299 0.950 . S
H291 C301 0.950 . S
H292 C303 0.950 . S
H293 C305 0.950 . S
H294 C306 0.950 . S
C295 H287 0.950 . S
C295 C296 1.386 . S
C295 C297 1.391 . S
C296 C295 1.386 . S
C296 C300 1.393 . S
C297 H289 0.950 . S
C297 C295 1.391 . S
C297 C298 1.400 . S
C298 C297 1.400 . S
C298 C299 1.398 . S
C298 C304 1.491 . S
C299 H290 0.950 . S
C299 C298 1.398 . S
C299 C300 1.391 . S
C300 H288 0.950 . S
C300 C296 1.393 . S
C300 C299 1.391 . S
C301 H291 0.950 . S
C301 C302 1.386 . S
C301 C303 1.391 . S
C302 C301 1.386 . S
C302 C306 1.393 . S
C303 H292 0.950 . S
C303 C301 1.391 . S
C303 C304 1.400 . S
C304 C298 1.491 . S
C304 C303 1.400 . S
C304 C305 1.398 . S
C305 H293 0.950 . S
C305 C304 1.398 . S
C305 C306 1.391 . S
C306 H294 0.950 . S
C306 C302 1.393 . S
C306 C305 1.391 . S
H307 C315 0.950 . S
H308 C320 0.950 . S
H309 C317 0.950 . S
H310 C319 0.950 . S
H311 C321 0.950 . S
H312 C323 0.950 . S
H313 C325 0.950 . S
H314 C326 0.950 . S
C315 H307 0.950 . S
C315 C316 1.386 . S
C315 C317 1.391 . S
C316 C315 1.386 . S
C316 C320 1.393 . S
C317 H309 0.950 . S
C317 C315 1.391 . S
C317 C318 1.400 . S
C318 C317 1.400 . S
C318 C319 1.398 . S
C318 C324 1.491 . S
C319 H310 0.950 . S
C319 C318 1.398 . S
C319 C320 1.391 . S
C320 H308 0.950 . S
C320 C316 1.393 . S
C320 C319 1.391 . S
C321 H311 0.950 . S
C321 C322 1.386 . S
C321 C323 1.391 . S
C322 C321 1.386 . S
C322 C326 1.393 . S
C323 H312 0.950 . S
C323 C321 1.391 . S
C323 C324 1.400 . S
C324 C318 1.491 . S
C324 C323 1.400 . S
C324 C325 1.398 . S
C325 H313 0.950 . S
C325 C324 1.398 . S
C325 C326 1.391 . S
C326 H314 0.950 . S
C326 C322 1.393 . S
C326 C325 1.391 . S
H327 C335 0.950 . S
H328 C340 0.950 . S
H329 C337 0.950 . S
H330 C339 0.950 . S
H331 C341 0.950 . S
H332 C343 0.950 . S
H333 C345 0.950 . S
H334 C346 0.950 . S
C335 H327 0.950 . S
C335 C336 1.386 . S
C335 C337 1.391 . S
C336 C335 1.386 . S
C336 C340 1.393 . S
C337 H329 0.950 . S
C337 C335 1.391 . S
C337 C338 1.400 . S
C338 C337 1.400 . S
C338 C339 1.398 . S
C338 C344 1.491 . S
C339 H330 0.950 . S
C339 C338 1.398 . S
C339 C340 1.391 . S
C340 H328 0.950 . S
C340 C336 1.393 . S
C340 C339 1.391 . S
C341 H331 0.950 . S
C341 C342 1.386 . S
C341 C343 1.391 . S
C342 C341 1.386 . S
C342 C346 1.393 . S
C343 H332 0.950 . S
C343 C341 1.391 . S
C343 C344 1.400 . S
C344 C338 1.491 . S
C344 C343 1.400 . S
C344 C345 1.398 . S
C345 H333 0.950 . S
C345 C344 1.398 . S
C345 C346 1.391 . S
C346 H334 0.950 . S
C346 C342 1.393 . S
C346 C345 1.391 . S
H347 C355 0.950 . S
H348 C360 0.950 . S
H349 C357 0.950 . S
H350 C359 0.950 . S
H351 C361 0.950 . S
H352 C363 0.950 . S
H353 C365 0.950 . S
H354 C366 0.950 . S
C355 H347 0.950 . S
C355 C356 1.386 . S
C355 C357 1.391 . S
C356 C355 1.386 . S
C356 C360 1.393 . S
C357 H349 0.950 . S
C357 C355 1.391 . S
C357 C358 1.400 . S
C358 C357 1.400 . S
C358 C359 1.398 . S
C358 C364 1.491 . S
C359 H350 0.950 . S
C359 C358 1.398 . S
C359 C360 1.391 . S
C360 H348 0.950 . S
C360 C356 1.393 . S
C360 C359 1.391 . S
C361 H351 0.950 . S
C361 C362 1.386 . S
C361 C363 1.391 . S
C362 C361 1.386 . S
C362 C366 1.393 . S
C363 H352 0.950 . S
C363 C361 1.391 . S
C363 C364 1.400 . S
C364 C358 1.491 . S
C364 C363 1.400 . S
C364 C365 1.398 . S
C365 H353 0.950 . S
C365 C364 1.398 . S
C365 C366 1.391 . S
C366 H354 0.950 . S
C366 C362 1.393 . S
C366 C365 1.391 . S
H367 C375 0.950 . S
H368 C380 0.950 . S
H369 C377 0.950 . S
H370 C379 0.950 . S
H371 C381 0.950 . S
H372 C383 0.950 . S
H373 C385 0.950 . S
H374 C386 0.950 . S
C375 H367 0.950 . S
C375 C376 1.386 . S
C375 C377 1.391 . S
C376 C375 1.386 . S
C376 C380 1.393 . S
C377 H369 0.950 . S
C377 C375 1.391 . S
C377 C378 1.400 . S
C378 C377 1.400 . S
C378 C379 1.398 . S
C378 C384 1.491 . S
C379 H370 0.950 . S
C379 C378 1.398 . S
C379 C380 1.391 . S
C380 H368 0.950 . S
C380 C376 1.393 . S
C380 C379 1.391 . S
C381 H371 0.950 . S
C381 C382 1.386 . S
C381 C383 1.391 . S
C382 C381 1.386 . S
C382 C386 1.393 . S
C383 H372 0.950 . S
C383 C381 1.391 . S
C383 C384 1.400 . S
C384 C378 1.491 . S
C384 C383 1.400 . S
C384 C385 1.398 . S
C385 H373 0.950 . S
C385 C384 1.398 . S
C385 C386 1.391 . S
C386 H374 0.950 . S
C386 C382 1.393 . S
C386 C385 1.391 . S
H387 C395 0.950 . S
H388 C400 0.950 . S
H389 C397 0.950 . S
H390 C399 0.950 . S
H391 C401 0.950 . S
H392 C403 0.950 . S
H393 C405 0.950 . S
H394 C406 0.950 . S
C395 H387 0.950 . S
C395 C396 1.386 . S
C395 C397 1.391 . S
C396 C395 1.386 . S
C396 C400 1.393 . S
C397 H389 0.950 . S
C397 C395 1.391 . S
C397 C398 1.400 . S
C398 C397 1.400 . S
C398 C399 1.398 . S
C398 C404 1.491 . S
C399 H390 0.950 . S
C399 C398 1.398 . S
C399 C400 1.391 . S
C400 H388 0.950 . S
C400 C396 1.393 . S
C400 C399 1.391 . S
C401 H391 0.950 . S
C401 C402 1.386 . S
C401 C403 1.391 . S
C402 C401 1.386 . S
C402 C406 1.393 . S
C403 H392 0.950 . S
C403 C401 1.391 . S
C403 C404 1.400 . S
C404 C398 1.491 . S
C404 C403 1.400 . S
C404 C405 1.398 . S
C405 H393 0.950 . S
C405 C404 1.398 . S
C405 C406 1.391 . S
C406 H394 0.950 . S
C406 C402 1.393 . S
C406 C405 1.391 . S
H407 C415 0.950 . S
H408 C420 0.950 . S
H409 C417 0.950 . S
H410 C419 0.950 . S
H411 C421 0.950 . S
H412 C423 0.950 . S
H413 C425 0.950 . S
H414 C426 0.950 . S
C415 H407 0.950 . S
C415 C416 1.386 . S
C415 C417 1.391 . S
C416 C415 1.386 . S
C416 C420 1.393 . S
C417 H409 0.950 . S
C417 C415 1.391 . S
C417 C418 1.400 . S
C418 C417 1.400 . S
C418 C419 1.398 . S
C418 C424 1.491 . S
C419 H410 0.950 . S
C419 C418 1.398 . S
C419 C420 1.391 . S
C420 H408 0.950 . S
C420 C416 1.393 . S
C420 C419 1.391 . S
C421 H411 0.950 . S
C421 C422 1.386 . S
C421 C423 1.391 . S
C422 C421 1.386 . S
C422 C426 1.393 . S
C423 H412 0.950 . S
C423 C421 1.391 . S
C423 C424 1.400 . S
C424 C418 1.491 . S
C424 C423 1.400 . S
C424 C425 1.398 . S
C425 H413 0.950 . S
C425 C424 1.398 . S
C425 C426 1.391 . S
C426 H414 0.950 . S
C426 C422 1.393 . S
C426 C425 1.391 . S
H427 C435 0.950 . S
H428 C440 0.950 . S
H429 C437 0.950 . S
H430 C439 0.950 . S
H431 C441 0.950 . S
H432 C443 0.950 . S
H433 C445 0.950 . S
H434 C446 0.950 . S
C435 H427 0.950 . S
C435 C436 1.386 . S
C435 C437 1.391 . S
C436 C435 1.386 . S
C436 C440 1.393 . S
C437 H429 0.950 . S
C437 C435 1.391 . S
C437 C438 1.400 . S
C438 C437 1.400 . S
C438 C439 1.398 . S
C438 C444 1.491 . S
C439 H430 0.950 . S
C439 C438 1.398 . S
C439 C440 1.391 . S
C440 H428 0.950 . S
C440 C436 1.393 . S
C440 C439 1.391 . S
C441 H431 0.950 . S
C441 C442 1.386 . S
C441 C443 1.391 . S
C442 C441 1.386 . S
C442 C446 1.393 . S
C443 H432 0.950 . S
C443 C441 1.391 . S
C443 C444 1.400 . S
C444 C438 1.491 . S
C444 C443 1.400 . S
C444 C445 1.398 . S
C445 H433 0.950 . S
C445 C444 1.398 . S
C445 C446 1.391 . S
C446 H434 0.950 . S
C446 C442 1.393 . S
C446 C445 1.391 . S
H447 C455 0.950 . S
H448 C460 0.950 . S
H449 C457 0.950 . S
H450 C459 0.950 . S
H451 C461 0.950 . S
H452 C463 0.950 . S
H453 C465 0.950 . S
H454 C466 0.950 . S
C455 H447 0.950 . S
C455 C456 1.386 . S
C455 C457 1.391 . S
C456 C455 1.386 . S
C456 C460 1.393 . S
C457 H449 0.950 . S
C457 C455 1.391 . S
C457 C458 1.400 . S
C458 C457 1.400 . S
C458 C459 1.398 . S
C458 C464 1.491 . S
C459 H450 0.950 . S
C459 C458 1.398 . S
C459 C460 1.391 . S
C460 H448 0.950 . S
C460 C456 1.393 . S
C460 C459 1.391 . S
C461 H451 0.950 . S
C461 C462 1.386 . S
C461 C463 1.391 . S
C462 C461 1.386 . S
C462 C466 1.393 . S
C463 H452 0.950 . S
C463 C461 1.391 . S
C463 C464 1.400 . S
C464 C458 1.491 . S
C464 C463 1.400 . S
C464 C465 1.398 . S
C465 H453 0.950 . S
C465 C464 1.398 . S
C465 C466 1.391 . S
C466 H454 0.950 . S
C466 C462 1.393 . S
C466 C465 1.391 . S
H467 C475 0.950 . S
H468 C480 0.950 . S
H469 C477 0.950 . S
H470 C479 0.950 . S
H471 C481 0.950 . S
H472 C483 0.950 . S
H473 C485 0.950 . S
H474 C486 0.950 . S
C475 H467 0.950 . S
C475 C476 1.386 . S
C475 C477 1.391 . S
C476 C475 1.386 . S
C476 C480 1.393 . S
C477 H469 0.950 . S
C477 C475 1.391 . S
C477 C478 1.400 . S
C478 C477 1.400 . S
C478 C479 1.398 . S
C478 C484 1.491 . S
C479 H470 0.950 . S
C479 C478 1.398 . S
C479 C480 1.391 . S
C480 H468 0.950 . S
C480 C476 1.393 . S
C480 C479 1.391 . S
C481 H471 0.950 . S
C481 C482 1.386 . S
C481 C483 1.391 . S
C482 C481 1.386 . S
C482 C486 1.393 . S
C483 H472 0.950 . S
C483 C481 1.391 . S
C483 C484 1.400 . S
C484 C478 1.491 . S
C484 C483 1.400 . S
C484 C485 1.398 . S
C485 H473 0.950 . S
C485 C484 1.398 . S
C485 C486 1.391 . S
C486 H474 0.950 . S
C486 C482 1.393 . S
C486 C485 1.391 . S
H487 C495 0.950 . S
H488 C500 0.950 . S
H489 C497 0.950 . S
H490 C499 0.950 . S
H491 C501 0.950 . S
H492 C503 0.950 . S
H493 C505 0.950 . S
H494 C506 0.950 . S
C495 H487 0.950 . S
C495 C496 1.386 . S
C495 C497 1.391 . S
C496 C495 1.386 . S
C496 C500 1.393 . S
C497 H489 0.950 . S
C497 C495 1.391 . S
C497 C498 1.400 . S
C498 C497 1.400 . S
C498 C499 1.398 . S
C498 C504 1.491 . S
C499 H490 0.950 . S
C499 C498 1.398 . S
C499 C500 1.391 . S
C500 H488 0.950 . S
C500 C496 1.393 . S
C500 C499 1.391 . S
C501 H491 0.950 . S
C501 C502 1.386 . S
C501 C503 1.391 . S
C502 C501 1.386 . S
C502 C506 1.393 . S
C503 H492 0.950 . S
C503 C501 1.391 . S
C503 C504 1.400 . S
C504 C498 1.491 . S
C504 C503 1.400 . S
C504 C505 1.398 . S
C505 H493 0.950 . S
C505 C504 1.398 . S
C505 C506 1.391 . S
C506 H494 0.950 . S
C506 C502 1.393 . S
C506 C505 1.391 . S
H507 C515 0.950 . S
H508 C520 0.950 . S
H509 C517 0.950 . S
H510 C519 0.950 . S
H511 C521 0.950 . S
H512 C523 0.950 . S
H513 C525 0.950 . S
H514 C526 0.950 . S
C515 H507 0.950 . S
C515 C516 1.386 . S
C515 C517 1.391 . S
C516 C515 1.386 . S
C516 C520 1.393 . S
C517 H509 0.950 . S
C517 C515 1.391 . S
C517 C518 1.400 . S
C518 C517 1.400 . S
C518 C519 1.398 . S
C518 C524 1.491 . S
C519 H510 0.950 . S
C519 C518 1.398 . S
C519 C520 1.391 . S
C520 H508 0.950 . S
C520 C516 1.393 . S
C520 C519 1.391 . S
C521 H511 0.950 . S
C521 C522 1.386 . S
C521 C523 1.391 . S
C522 C521 1.386 . S
C522 C526 1.393 . S
C523 H512 0.950 . S
C523 C521 1.391 . S
C523 C524 1.400 . S
C524 C518 1.491 . S
C524 C523 1.400 . S
C524 C525 1.398 . S
C525 H513 0.950 . S
C525 C524 1.398 . S
C525 C526 1.391 . S
C526 H514 0.950 . S
C526 C522 1.393 . S
C526 C525 1.391 . S
H527 C535 0.950 . S
H528 C540 0.950 . S
H529 C537 0.950 . S
H530 C539 0.950 . S
H531 C541 0.950 . S
H532 C543 0.950 . S
H533 C545 0.950 . S
H534 C546 0.950 . S
C535 H527 0.950 . S
C535 C536 1.386 . S
C535 C537 1.391 . S
C536 C535 1.386 . S
C536 C540 1.393 . S
C537 H529 0.950 . S
C537 C535 1.391 . S
C537 C538 1.400 . S
C538 C537 1.400 . S
C538 C539 1.398 . S
C538 C544 1.491 . S
C539 H530 0.950 . S
C539 C538 1.398 . S
C539 C540 1.391 . S
C540 H528 0.950 . S
C540 C536 1.393 . S
C540 C539 1.391 . S
C541 H531 0.950 . S
C541 C542 1.386 . S
C541 C543 1.391 . S
C542 C541 1.386 . S
C542 C546 1.393 . S
C543 H532 0.950 . S
C543 C541 1.391 . S
C543 C544 1.400 . S
C544 C538 1.491 . S
C544 C543 1.400 . S
C544 C545 1.398 . S
C545 H533 0.950 . S
C545 C544 1.398 . S
C545 C546 1.391 . S
C546 H534 0.950 . S
C546 C542 1.393 . S
C546 C545 1.391 . S
H547 C555 0.950 . S
H548 C560 0.950 . S
H549 C557 0.950 . S
H550 C559 0.950 . S
H551 C561 0.950 . S
H552 C563 0.950 . S
H553 C565 0.950 . S
H554 C566 0.950 . S
C555 H547 0.950 . S
C555 C556 1.386 . S
C555 C557 1.391 . S
C556 C555 1.386 . S
C556 C560 1.393 . S
C557 H549 0.950 . S
C557 C555 1.391 . S
C557 C558 1.400 . S
C558 C557 1.400 . S
C558 C559 1.398 . S
C558 C564 1.491 . S
C559 H550 0.950 . S
C559 C558 1.398 . S
C559 C560 1.391 . S
C560 H548 0.950 . S
C560 C556 1.393 . S
C560 C559 1.391 . S
C561 H551 0.950 . S
C561 C562 1.386 . S
C561 C563 1.391 . S
C562 C561 1.386 . S
C562 C566 1.393 . S
C563 H552 0.950 . S
C563 C561 1.391 . S
C563 C564 1.400 . S
C564 C558 1.491 . S
C564 C563 1.400 . S
C564 C565 1.398 . S
C565 H553 0.950 . S
C565 C564 1.398 . S
C565 C566 1.391 . S
C566 H554 0.950 . S
C566 C562 1.393 . S
C566 C565 1.391 . S
H567 C575 0.950 . S
H568 C580 0.950 . S
H569 C577 0.950 . S
H570 C579 0.950 . S
H571 C581 0.950 . S
H572 C583 0.950 . S
H573 C585 0.950 . S
H574 C586 0.950 . S
C575 H567 0.950 . S
C575 C576 1.386 . S
C575 C577 1.391 . S
C576 C575 1.386 . S
C576 C580 1.393 . S
C577 H569 0.950 . S
C577 C575 1.391 . S
C577 C578 1.400 . S
C578 C577 1.400 . S
C578 C579 1.398 . S
C578 C584 1.491 . S
C579 H570 0.950 . S
C579 C578 1.398 . S
C579 C580 1.391 . S
C580 H568 0.950 . S
C580 C576 1.393 . S
C580 C579 1.391 . S
C581 H571 0.950 . S
C581 C582 1.386 . S
C581 C583 1.391 . S
C582 C581 1.386 . S
C582 C586 1.393 . S
C583 H572 0.950 . S
C583 C581 1.391 . S
C583 C584 1.400 . S
C584 C578 1.491 . S
C584 C583 1.400 . S
C584 C585 1.398 . S
C585 H573 0.950 . S
C585 C584 1.398 . S
C585 C586 1.391 . S
C586 H574 0.950 . S
C586 C582 1.393 . S
C586 C585 1.391 . S
H587 C595 0.950 . S
H588 C600 0.950 . S
H589 C597 0.950 . S
H590 C599 0.950 . S
H591 C601 0.950 . S
H592 C603 0.950 . S
H593 C605 0.950 . S
H594 C606 0.950 . S
C595 H587 0.950 . S
C595 C596 1.386 . S
C595 C597 1.391 . S
C596 C595 1.386 . S
C596 C600 1.393 . S
C597 H589 0.950 . S
C597 C595 1.391 . S
C597 C598 1.400 . S
C598 C597 1.400 . S
C598 C599 1.398 . S
C598 C604 1.491 . S
C599 H590 0.950 . S
C599 C598 1.398 . S
C599 C600 1.391 . S
C600 H588 0.950 . S
C600 C596 1.393 . S
C600 C599 1.391 . S
C601 H591 0.950 . S
C601 C602 1.386 . S
C601 C603 1.391 . S
C602 C601 1.386 . S
C602 C606 1.393 . S
C603 H592 0.950 . S
C603 C601 1.391 . S
C603 C604 1.400 . S
C604 C598 1.491 . S
C604 C603 1.400 . S
C604 C605 1.398 . S
C605 H593 0.950 . S
C605 C604 1.398 . S
C605 C606 1.391 . S
C606 H594 0.950 . S
C606 C602 1.393 . S
C606 C605 1.391 . S
H607 C615 0.950 . S
H608 C620 0.950 . S
H609 C617 0.950 . S
H610 C619 0.950 . S
H611 C621 0.950 . S
H612 C623 0.950 . S
H613 C625 0.950 . S
H614 C626 0.950 . S
C615 H607 0.950 . S
C615 C616 1.386 . S
C615 C617 1.391 . S
C616 C615 1.386 . S
C616 C620 1.393 . S
C617 H609 0.950 . S
C617 C615 1.391 . S
C617 C618 1.400 . S
C618 C617 1.400 . S
C618 C619 1.398 . S
C618 C624 1.491 . S
C619 H610 0.950 . S
C619 C618 1.398 . S
C619 C620 1.391 . S
C620 H608 0.950 . S
C620 C616 1.393 . S
C620 C619 1.391 . S
C621 H611 0.950 . S
C621 C622 1.386 . S
C621 C623 1.391 . S
C622 C621 1.386 . S
C622 C626 1.393 . S
C623 H612 0.950 . S
C623 C621 1.391 . S
C623 C624 1.400 . S
C624 C618 1.491 . S
C624 C623 1.400 . S
C624 C625 1.398 . S
C625 H613 0.950 . S
C625 C624 1.398 . S
C625 C626 1.391 . S
C626 H614 0.950 . S
C626 C622 1.393 . S
C626 C625 1.391 . S
H627 C635 0.950 . S
H628 C640 0.950 . S
H629 C637 0.950 . S
H630 C639 0.950 . S
H631 C641 0.950 . S
H632 C643 0.950 . S
H633 C645 0.950 . S
H634 C646 0.950 . S
C635 H627 0.950 . S
C635 C636 1.386 . S
C635 C637 1.391 . S
C636 C635 1.386 . S
C636 C640 1.393 . S
C637 H629 0.950 . S
C637 C635 1.391 . S
C637 C638 1.400 . S
C638 C637 1.400 . S
C638 C639 1.398 . S
C638 C644 1.491 . S
C639 H630 0.950 . S
C639 C638 1.398 . S
C639 C640 1.391 . S
C640 H628 0.950 . S
C640 C636 1.393 . S
C640 C639 1.391 . S
C641 H631 0.950 . S
C641 C642 1.386 . S
C641 C643 1.391 . S
C642 C641 1.386 . S
C642 C646 1.393 . S
C643 H632 0.950 . S
C643 C641 1.391 . S
C643 C644 1.400 . S
C644 C638 1.491 . S
C644 C643 1.400 . S
C644 C645 1.398 . S
C645 H633 0.950 . S
C645 C644 1.398 . S
C645 C646 1.391 . S
C646 H634 0.950 . S
C646 C642 1.393 . S
C646 C645 1.391 . S
H647 C655 0.950 . S
H648 C660 0.950 . S
H649 C657 0.950 . S
H650 C659 0.950 . S
H651 C661 0.950 . S
H652 C663 0.950 . S
H653 C665 0.950 . S
H654 C666 0.950 . S
C655 H647 0.950 . S
C655 C656 1.386 . S
C655 C657 1.391 . S
C656 C655 1.386 . S
C656 C660 1.393 . S
C657 H649 0.950 . S
C657 C655 1.391 . S
C657 C658 1.400 . S
C658 C657 1.400 . S
C658 C659 1.398 . S
C658 C664 1.491 . S
C659 H650 0.950 . S
C659 C658 1.398 . S
C659 C660 1.391 . S
C660 H648 0.950 . S
C660 C656 1.393 . S
C660 C659 1.391 . S
C661 H651 0.950 . S
C661 C662 1.386 . S
C661 C663 1.391 . S
C662 C661 1.386 . S
C662 C666 1.393 . S
C663 H652 0.950 . S
C663 C661 1.391 . S
C663 C664 1.400 . S
C664 C658 1.491 . S
C664 C663 1.400 . S
C664 C665 1.398 . S
C665 H653 0.950 . S
C665 C664 1.398 . S
C665 C666 1.391 . S
C666 H654 0.950 . S
C666 C662 1.393 . S
C666 C665 1.391 . S
C202 C112 1.512 . S
C196 C5 1.332 . S
C222 C148 1.845 . S
C216 C16 1.823 . S
C242 C113 1.167 . S
C236 C30 1.178 . S
C262 C143 1.155 . S
C256 C40 1.145 . S
C282 C110 1.148 . S
C276 C49 1.117 . S
C296 C63 1.461 . S
C302 C146 1.464 . S
C316 C74 0.588 . S
C322 C115 0.671 . S
C342 C145 1.620 . S
C336 C85 1.598 . S
C362 C149 1.505 . S
C356 C8 1.554 . S
C382 C114 1.845 . S
C376 C18 1.866 . S
C402 C142 1.635 . S
C396 C27 1.563 . S
C422 C111 0.763 . S
C416 C38 0.716 . S
C442 C144 1.806 . S
C436 C51 1.917 . S
C456 C60 1.507 . S
C462 C109 1.611 . S
C476 C71 1.160 . S
C482 C147 1.196 . S
C502 C116 1.462 . S
C496 C84 1.490 . S
C522 C178 2.161 . S
C516 C7 2.192 . S
C536 C52 1.912 . S
C542 C181 1.726 . S
C562 C180 1.900 . S
C556 C62 1.908 . S
C576 C73 1.954 . S
C582 C179 1.984 . S
C602 C182 1.761 . S
C596 C82 1.589 . S
C616 C29 1.891 . S
C622 C176 1.847 . S
C642 C175 1.445 . S
C636 C41 1.423 . S
C656 C19 1.943 . S
C662 C177 1.828 . S
