# Generated by pormake.
# Topology zzz, (3,6)-cn, num edge types: 1
# Building blocks:
#     Node 0, Type 0, BuildingBlock: WUSLED_clean_sbu_0, # of connection points: 3
#     Node 1, Type 0, BuildingBlock: WUSLED_clean_sbu_0, # of connection points: 3
#     Node 2, Type 0, BuildingBlock: WUSLED_clean_sbu_0, # of connection points: 3
#     Node 3, Type 0, BuildingBlock: WUSLED_clean_sbu_0, # of connection points: 3
#     Node 4, Type 0, BuildingBlock: WUSLED_clean_sbu_0, # of connection points: 3
#     Node 5, Type 0, BuildingBlock: WUSLED_clean_sbu_0, # of connection points: 3
#     Node 6, Type 0, BuildingBlock: WUSLED_clean_sbu_0, # of connection points: 3
#     Node 7, Type 0, BuildingBlock: WUSLED_clean_sbu_0, # of connection points: 3
#     Node 8, Type 1, BuildingBlock: KUMBUR_clean_sbu_0, # of connection points: 6
#     Node 9, Type 1, BuildingBlock: KUMBUR_clean_sbu_0, # of connection points: 6
#     Node 10, Type 1, BuildingBlock: KUMBUR_clean_sbu_0, # of connection points: 6
#     Node 11, Type 1, BuildingBlock: KUMBUR_clean_sbu_0, # of connection points: 6
#     Edge 12, Type (0, 1), BuildingBlock: UVAHIK_clean_linker_0, # of connection points: 2
#     Edge 13, Type (0, 1), BuildingBlock: UVAHIK_clean_linker_0, # of connection points: 2
#     Edge 14, Type (0, 1), BuildingBlock: UVAHIK_clean_linker_0, # of connection points: 2
#     Edge 15, Type (0, 1), BuildingBlock: UVAHIK_clean_linker_0, # of connection points: 2
#     Edge 16, Type (0, 1), BuildingBlock: UVAHIK_clean_linker_0, # of connection points: 2
#     Edge 17, Type (0, 1), BuildingBlock: UVAHIK_clean_linker_0, # of connection points: 2
#     Edge 18, Type (0, 1), BuildingBlock: UVAHIK_clean_linker_0, # of connection points: 2
#     Edge 19, Type (0, 1), BuildingBlock: UVAHIK_clean_linker_0, # of connection points: 2
#     Edge 20, Type (0, 1), BuildingBlock: UVAHIK_clean_linker_0, # of connection points: 2
#     Edge 21, Type (0, 1), BuildingBlock: UVAHIK_clean_linker_0, # of connection points: 2
#     Edge 22, Type (0, 1), BuildingBlock: UVAHIK_clean_linker_0, # of connection points: 2
#     Edge 23, Type (0, 1), BuildingBlock: UVAHIK_clean_linker_0, # of connection points: 2
#     Edge 24, Type (0, 1), BuildingBlock: UVAHIK_clean_linker_0, # of connection points: 2
#     Edge 25, Type (0, 1), BuildingBlock: UVAHIK_clean_linker_0, # of connection points: 2
#     Edge 26, Type (0, 1), BuildingBlock: UVAHIK_clean_linker_0, # of connection points: 2
#     Edge 27, Type (0, 1), BuildingBlock: UVAHIK_clean_linker_0, # of connection points: 2
#     Edge 28, Type (0, 1), BuildingBlock: UVAHIK_clean_linker_0, # of connection points: 2
#     Edge 29, Type (0, 1), BuildingBlock: UVAHIK_clean_linker_0, # of connection points: 2
#     Edge 30, Type (0, 1), BuildingBlock: UVAHIK_clean_linker_0, # of connection points: 2
#     Edge 31, Type (0, 1), BuildingBlock: UVAHIK_clean_linker_0, # of connection points: 2
#     Edge 32, Type (0, 1), BuildingBlock: UVAHIK_clean_linker_0, # of connection points: 2
#     Edge 33, Type (0, 1), BuildingBlock: UVAHIK_clean_linker_0, # of connection points: 2
#     Edge 34, Type (0, 1), BuildingBlock: UVAHIK_clean_linker_0, # of connection points: 2
#     Edge 35, Type (0, 1), BuildingBlock: UVAHIK_clean_linker_0, # of connection points: 2
# Relax obj value: 0.256
# Max RMSD: 0.219
# Mean RMSD: 0.204
data_MOF--net-zzz--node1-WUSLED_clean_sbu_0--node2-KUMBUR_clean_sbu_0--edge1-UVAHIK_clean_linker_0
_symmetry_space_group_name_H-M    P1
_symmetry_Int_Tables_number       1
_symmetry_cell_setting            triclinic
loop_
_symmetry_equiv_pos_as_xyz
'x, y, z'
_cell_length_a     74.951486
_cell_length_b     74.968661
_cell_length_c     26.065594
_cell_angle_alpha  90.57978
_cell_angle_beta   90.084801
_cell_angle_gamma 89.940321
loop_
_atom_site_label
_atom_site_type_symbol
_atom_site_fract_x
_atom_site_fract_y
_atom_site_fract_z
_atom_type_partial_charge
C0 C 0.77671 0.5498 0.26469 0.0
C1 C 0.79184 0.55753 0.24235 0.0
C2 C 0.80998 0.5492 0.31644 0.0
C3 C 0.8083 0.55727 0.26803 0.0
C4 C 0.79471 0.54146 0.3384 0.0
C5 C 0.77829 0.54179 0.31282 0.0
U6 U 0.74771 0.55176 0.14313 0.0
O7 O 0.72437 0.53524 0.12388 0.0
O8 O 0.7214 0.5643 0.13138 0.0
C9 C 0.71358 0.54902 0.12062 0.0
C10 C 0.75927 0.54958 0.23823 0.0
C11 C 0.70074 0.54879 0.07774 0.0
C12 C 0.66979 0.5466 0.05062 0.0
C13 C 0.68254 0.54806 0.08953 0.0
C14 C 0.69325 0.54708 0.98684 0.0
C15 C 0.67495 0.54581 0.9988 0.0
C16 C 0.70608 0.54848 0.0261 0.0
C17 C 0.77349 0.55733 0.01425 0.0
C18 C 0.76892 0.54552 0.92802 0.0
C19 C 0.79247 0.56692 0.94454 0.0
C20 C 0.78735 0.56798 0.99588 0.0
C21 C 0.78378 0.55516 0.91028 0.0
C22 C 0.76385 0.54654 0.97969 0.0
C23 C 0.77132 0.55597 0.07015 0.0
O24 O 0.75414 0.56462 0.21723 0.0
O25 O 0.75627 0.53558 0.20882 0.0
O26 O 0.76664 0.5403 0.08788 0.0
O27 O 0.76367 0.56946 0.09408 0.0
H28 H 0.79094 0.56373 0.20506 0.0
H29 H 0.81967 0.56354 0.25009 0.0
H30 H 0.79548 0.53483 0.37506 0.0
H31 H 0.7668 0.53563 0.33053 0.0
H32 H 0.65584 0.54597 0.06119 0.0
H33 H 0.67815 0.54835 0.12913 0.0
H34 H 0.69766 0.54645 0.94732 0.0
H35 H 0.7201 0.54902 0.01628 0.0
H36 H 0.76174 0.53656 0.90256 0.0
H37 H 0.80411 0.57439 0.93285 0.0
H38 H 0.795 0.57634 0.02201 0.0
H39 H 0.75301 0.53825 0.99307 0.0
C40 C 0.99578 0.78244 0.25902 0.0
C41 C 0.99675 0.79769 0.22826 0.0
C42 C 0.99607 0.81703 0.30429 0.0
C43 C 0.99699 0.81476 0.25061 0.0
C44 C 0.99463 0.80167 0.3348 0.0
C45 C 0.99454 0.78458 0.31239 0.0
U46 U 0.98749 0.75091 0.14615 0.0
O47 O 0.97932 0.72262 0.14247 0.0
O48 O 1.00542 0.73078 0.11243 0.0
C49 C 0.99399 0.71768 0.11862 0.0
C50 C 0.99663 0.76434 0.23594 0.0
C51 C 0.99214 0.7047 0.07577 0.0
C52 C 0.99024 0.67355 0.04925 0.0
C53 C 0.98979 0.68667 0.08771 0.0
C54 C 0.99464 0.69632 0.98535 0.0
C55 C 0.99307 0.67813 0.99769 0.0
C56 C 0.99427 0.70951 0.02411 0.0
C57 C 0.9655 0.77513 0.02974 0.0
C58 C 0.96978 0.7717 0.93792 0.0
C59 C 0.95093 0.79537 0.97121 0.0
C60 C 0.95379 0.7893 0.02088 0.0
C61 C 0.95972 0.7873 0.92928 0.0
C62 C 0.9728 0.76574 0.98794 0.0
C63 C 0.97225 0.77293 0.0821 0.0
O64 O 0.98125 0.75637 0.22769 0.0
O65 O 1.00777 0.76251 0.19738 0.0
O66 O 0.98963 0.77122 0.08682 0.0
O67 O 0.96308 0.76282 0.1134 0.0
H68 H 0.99765 0.79641 0.18691 0.0
H69 H 0.99835 0.82615 0.22571 0.0
H70 H 0.99355 0.80281 0.37612 0.0
H71 H 0.99367 0.77301 0.33684 0.0
H72 H 0.98865 0.65973 0.06005 0.0
H73 H 0.98813 0.68264 0.12723 0.0
H74 H 0.99687 0.70031 0.94606 0.0
H75 H 0.99616 0.72334 0.0139 0.0
H76 H 0.97637 0.76484 0.90648 0.0
H77 H 0.94319 0.80745 0.96666 0.0
H78 H 0.94804 0.79669 0.05278 0.0
H79 H 0.98179 0.75465 0.99413 0.0
C80 C 0.74811 0.98984 0.27897 0.0
C81 C 0.73332 0.99019 0.2458 0.0
C82 C 0.71301 0.99178 0.31869 0.0
C83 C 0.71598 0.99124 0.26542 0.0
C84 C 0.72783 0.99088 0.35187 0.0
C85 C 0.74523 0.99 0.33214 0.0
U86 U 0.77882 0.98203 0.16639 0.0
O87 O 0.79988 0.99942 0.13656 0.0
O88 O 0.80641 0.972 0.15853 0.0
C89 C 0.81206 0.98678 0.13707 0.0
C90 C 0.76642 0.99002 0.25798 0.0
C91 C 0.82356 0.98508 0.09068 0.0
C92 C 0.83816 0.99895 0.01756 0.0
C93 C 0.82579 0.99965 0.0577 0.0
C94 C 0.84633 0.96898 0.04168 0.0
C95 C 0.84878 0.98369 0.00928 0.0
C96 C 0.83393 0.96968 0.08195 0.0
C97 C 0.75245 0.96453 0.04663 0.0
C98 C 0.75575 0.97005 0.95558 0.0
C99 C 0.73163 0.95146 0.98594 0.0
C100 C 0.73787 0.95347 0.03602 0.0
C101 C 0.73994 0.96047 0.94533 0.0
C102 C 0.7619 0.97218 1.00602 0.0
C103 C 0.75531 0.97004 0.10011 0.0
O104 O 0.77337 0.97436 0.24652 0.0
O105 O 0.7691 1.00191 0.22215 0.0
O106 O 0.75839 0.9871 0.10824 0.0
O107 O 0.76481 0.95945 0.12932 0.0
H108 H 0.73521 0.98993 0.20459 0.0
H109 H 0.70487 0.99164 0.23883 0.0
H110 H 0.726 0.99136 0.39307 0.0
H111 H 0.75644 0.98974 0.3584 0.0
H112 H 0.83984 0.01068 0.99415 0.0
H113 H 0.81834 0.01188 0.06373 0.0
H114 H 0.8541 0.95693 0.03623 0.0
H115 H 0.83277 0.95829 0.10695 0.0
H116 H 0.76273 0.97683 0.92512 0.0
H117 H 0.71935 0.94411 0.98011 0.0
H118 H 0.73041 0.94747 0.067 0.0
H119 H 0.77332 0.98068 0.01357 0.0
C120 C 0.55475 0.75416 0.27801 0.0
C121 C 0.56197 0.73871 0.25528 0.0
C122 C 0.55196 0.72094 0.32764 0.0
C123 C 0.56066 0.72226 0.28 0.0
C124 C 0.54473 0.73648 0.35013 0.0
C125 C 0.54616 0.75293 0.32556 0.0
U126 U 0.55821 0.78202 0.15659 0.0
O127 O 0.54381 0.80661 0.137 0.0
O128 O 0.57304 0.80688 0.14302 0.0
C129 C 0.55852 0.81595 0.13211 0.0
C130 C 0.55566 0.77155 0.2522 0.0
C131 C 0.55946 0.82772 0.08735 0.0
C132 C 0.56108 0.8579 0.05475 0.0
C133 C 0.56074 0.84614 0.09592 0.0
C134 C 0.55903 0.83291 0.99539 0.0
C135 C 0.56018 0.85148 1.0039 0.0
C136 C 0.5587 0.8211 0.03684 0.0
C137 C 0.56094 0.75438 0.02894 0.0
C138 C 0.54935 0.75878 0.94279 0.0
C139 C 0.56925 0.73407 0.95998 0.0
C140 C 0.57064 0.73963 0.01103 0.0
C141 C 0.55812 0.74321 0.9255 0.0
C142 C 0.5507 0.7643 0.9942 0.0
C143 C 0.55997 0.75735 0.08475 0.0
O144 O 0.57093 0.7754 0.23014 0.0
O145 O 0.54176 0.77555 0.22383 0.0
O146 O 0.54486 0.76368 0.10298 0.0
O147 O 0.57419 0.76398 0.10751 0.0
H148 H 0.5685 0.73933 0.21829 0.0
H149 H 0.56616 0.71051 0.26136 0.0
H150 H 0.5381 0.73596 0.38697 0.0
H151 H 0.54047 0.7647 0.34364 0.0
H152 H 0.56164 0.87208 0.06292 0.0
H153 H 0.56125 0.85148 0.13469 0.0
H154 H 0.55847 0.82749 0.95675 0.0
H155 H 0.55775 0.80688 0.02955 0.0
H156 H 0.54088 0.7663 0.91716 0.0
H157 H 0.576 0.72189 0.94864 0.0
H158 H 0.57853 0.73174 0.03732 0.0
H159 H 0.54312 0.77579 1.00721 0.0
C160 C 0.25495 0.48141 0.88554 0.0
C161 C 0.23959 0.47395 0.90745 0.0
C162 C 0.22187 0.48263 0.83292 0.0
C163 C 0.22322 0.47449 0.88129 0.0
C164 C 0.23735 0.49003 0.81126 0.0
C165 C 0.25369 0.48941 0.83729 0.0
U166 U 0.28339 0.47756 1.0077 0.0
O167 O 0.30973 0.46493 0.01819 0.0
O168 O 0.30652 0.49374 0.03131 0.0
C169 C 0.31736 0.47995 0.03263 0.0
C170 C 0.27229 0.48134 0.91257 0.0
C171 C 0.32992 0.47907 0.07628 0.0
C172 C 0.36062 0.47592 0.10515 0.0
C173 C 0.34795 0.47577 0.06577 0.0
C174 C 0.33736 0.48239 0.16694 0.0
C175 C 0.35557 0.47931 0.15634 0.0
C176 C 0.32463 0.48226 0.12723 0.0
C177 C 0.25692 0.46954 0.13412 0.0
C178 C 0.26152 0.47974 0.22195 0.0
C179 C 0.23731 0.45946 0.20178 0.0
C180 C 0.24263 0.45907 0.15054 0.0
C181 C 0.24625 0.47035 0.23786 0.0
C182 C 0.26677 0.47941 0.17039 0.0
C183 C 0.25936 0.47181 0.07861 0.0
O184 O 0.27506 0.49483 0.94409 0.0
O185 O 0.27745 0.46599 0.93154 0.0
O186 O 0.26734 0.45882 0.05328 0.0
O187 O 0.26397 0.48782 0.06338 0.0
H188 H 0.24024 0.46783 0.94487 0.0
H189 H 0.21156 0.46884 0.89938 0.0
H190 H 0.23688 0.49619 0.77388 0.0
H191 H 0.26537 0.49524 0.81972 0.0
H192 H 0.37448 0.47385 0.09509 0.0
H193 H 0.35233 0.47342 0.02668 0.0
H194 H 0.33292 0.48488 0.20587 0.0
H195 H 0.31076 0.48484 0.1362 0.0
H196 H 0.26891 0.48802 0.24881 0.0
H197 H 0.22536 0.45223 0.21205 0.0
H198 H 0.23481 0.45143 0.12306 0.0
H199 H 0.27791 0.48756 0.15848 0.0
C200 C 0.03972 0.24826 0.88778 0.0
C201 C 0.03675 0.23336 0.91888 0.0
C202 C 0.0383 0.21351 0.84419 0.0
C203 C 0.03596 0.21619 0.89729 0.0
C204 C 0.04182 0.22842 0.81341 0.0
C205 C 0.04244 0.24563 0.835 0.0
U206 U 0.04529 0.28033 1.00122 0.0
O207 O 0.05521 0.30803 1.00631 0.0
O208 O 0.02743 0.302 0.0262 0.0
C209 C 0.03992 0.31425 0.02359 0.0
C210 C 0.03923 0.26656 0.90964 0.0
C211 C 0.04062 0.32733 0.06638 0.0
C212 C 0.03874 0.35836 0.09402 0.0
C213 C 0.03981 0.34553 0.05485 0.0
C214 C 0.03988 0.33503 0.15746 0.0
C215 C 0.03846 0.35331 0.14586 0.0
C216 C 0.04088 0.32214 0.11801 0.0
C217 C 0.06034 0.25657 0.12687 0.0
C218 C 0.05289 0.26201 0.21626 0.0
C219 C 0.07227 0.23738 0.19285 0.0
C220 C 0.07129 0.24239 0.14157 0.0
C221 C 0.06235 0.24657 0.23061 0.0
C222 C 0.05172 0.26685 0.16464 0.0
C223 C 0.05599 0.25822 0.07221 0.0
O224 O 0.02666 0.26948 0.94379 0.0
O225 O 0.05466 0.27352 0.92302 0.0
O226 O 0.06713 0.26717 0.04336 0.0
O227 O 0.03911 0.26102 0.06106 0.0
H228 H 0.03475 0.23502 0.95982 0.0
H229 H 0.03348 0.20499 0.92221 0.0
H230 H 0.04356 0.22685 0.77237 0.0
H231 H 0.04475 0.25693 0.81029 0.0
H232 H 0.03798 0.3723 0.08363 0.0
H233 H 0.03961 0.34983 0.01528 0.0
H234 H 0.03962 0.33066 0.19692 0.0
H235 H 0.04144 0.30817 0.12773 0.0
H236 H 0.04542 0.26967 0.24438 0.0
H237 H 0.07957 0.22534 0.20181 0.0
H238 H 0.07802 0.23429 0.11284 0.0
H239 H 0.04318 0.27786 0.15401 0.0
C240 C 0.27965 0.04241 0.86185 0.0
C241 C 0.29333 0.05467 0.87312 0.0
C242 C 0.31388 0.03826 0.81742 0.0
C243 C 0.31025 0.05268 0.85083 0.0
C244 C 0.30008 0.02615 0.80592 0.0
C245 C 0.28316 0.02824 0.8278 0.0
U246 U 0.2508 0.05251 0.97928 0.0
O247 O 0.22378 0.06405 0.9864 0.0
O248 O 0.22887 0.03652 0.0105 0.0
C249 C 0.21722 0.0496 1.00745 0.0
C250 C 0.26201 0.04351 0.88709 0.0
C251 C 0.2052 0.05215 0.05182 0.0
C252 C 0.17485 0.05599 0.0831 0.0
C253 C 0.18703 0.05513 0.04253 0.0
C254 C 0.19895 0.05137 0.14346 0.0
C255 C 0.18057 0.05393 0.13419 0.0
C256 C 0.21113 0.05045 0.10266 0.0
C257 C 0.27817 0.06865 0.09865 0.0
C258 C 0.27392 0.06336 0.18952 0.0
C259 C 0.29972 0.07983 0.16044 0.0
C260 C 0.29361 0.0784 0.11002 0.0
C261 C 0.29042 0.07156 0.20062 0.0
C262 C 0.26792 0.06178 0.1388 0.0
C263 C 0.27507 0.0634 0.04499 0.0
O264 O 0.2595 0.03194 0.92385 0.0
O265 O 0.25604 0.05956 0.89878 0.0
O266 O 0.26601 0.07443 0.01593 0.0
O267 O 0.27116 0.04652 0.03684 0.0
H268 H 0.29103 0.06562 0.89977 0.0
H269 H 0.32063 0.06214 0.86085 0.0
H270 H 0.30236 0.01502 0.77993 0.0
H271 H 0.27284 0.0186 0.81868 0.0
H272 H 0.16085 0.05767 0.07412 0.0
H273 H 0.18213 0.05632 1.00357 0.0
H274 H 0.20392 0.04996 0.18223 0.0
H275 H 0.22509 0.04807 0.11073 0.0
H276 H 0.2662 0.05718 0.21958 0.0
H277 H 0.31253 0.0861 0.16696 0.0
H278 H 0.30172 0.08376 0.07943 0.0
H279 H 0.25593 0.05422 0.13071 0.0
C280 C 0.46684 0.28141 0.903 0.0
C281 C 0.47588 0.29494 0.93026 0.0
C282 C 0.47079 0.31573 0.86033 0.0
C283 C 0.47786 0.31191 0.90907 0.0
C284 C 0.46118 0.30235 0.83411 0.0
C285 C 0.45928 0.28538 0.85518 0.0
U286 U 0.45957 0.24471 1.00462 0.0
O287 O 0.44834 0.21769 0.995 0.0
O288 O 0.47653 0.22114 0.01538 0.0
C289 C 0.46331 0.20988 0.00861 0.0
C290 C 0.46645 0.26279 0.92112 0.0
C291 C 0.46194 0.19593 0.0477 0.0
C292 C 0.46708 0.16517 0.07203 0.0
C293 C 0.46663 0.17839 0.03461 0.0
C294 C 0.45759 0.1868 0.13609 0.0
C295 C 0.46285 0.16926 0.1234 0.0
C296 C 0.45721 0.20006 0.09854 0.0
C297 C 0.44667 0.28157 0.10061 0.0
C298 C 0.43026 0.30357 0.1508 0.0
C299 C 0.45622 0.31254 0.1022 0.0
C300 C 0.45829 0.29503 0.08423 0.0
C301 C 0.44239 0.31697 0.13658 0.0
C302 C 0.43245 0.28604 0.13313 0.0
C303 C 0.44963 0.26274 0.08642 0.0
O304 O 0.4787 0.25828 0.95475 0.0
O305 O 0.45067 0.25596 0.93089 0.0
O306 O 0.43822 0.25581 0.05349 0.0
O307 O 0.46626 0.25805 0.07742 0.0
H308 H 0.48182 0.29229 0.9673 0.0
H309 H 0.48512 0.32199 0.93058 0.0
H310 H 0.45571 0.30478 0.79633 0.0
H311 H 0.45235 0.27514 0.83331 0.0
H312 H 0.47093 0.15176 0.06082 0.0
H313 H 0.47033 0.17497 0.99556 0.0
H314 H 0.45441 0.19043 0.17535 0.0
H315 H 0.45366 0.21359 0.10937 0.0
H316 H 0.41927 0.30655 0.17643 0.0
H317 H 0.46595 0.3224 0.09083 0.0
H318 H 0.46932 0.29193 0.05886 0.0
H319 H 0.42324 0.27587 0.14585 0.0
Tb320 Tb 0.03194 1.00883 0.61886 0.0
C321 C 0.97161 0.99624 0.47357 0.0
C322 C 0.98626 0.98003 0.40523 0.0
C323 C 0.95592 0.97237 0.42862 0.0
C324 C 0.98655 0.99318 0.44447 0.0
C325 C 0.95581 0.98647 0.46446 0.0
C326 C 0.97117 0.96913 0.39901 0.0
C327 C 0.94033 1.00722 0.51993 0.0
N328 N 0.972 0.01016 0.50687 0.0
C329 C 0.95632 0.01653 0.52715 0.0
C330 C 0.94018 0.99181 0.48949 0.0
Tb331 Tb 0.99948 0.02287 0.52372 0.0
N332 N 1.00076 1.00416 0.45166 0.0
C333 C 0.01421 1.00394 0.41578 0.0
C334 C 1.00077 0.97877 0.37196 0.0
C335 C 0.01455 0.99112 0.37637 0.0
H336 H 0.95635 0.02851 0.55063 0.0
H337 H 0.02549 0.99082 0.34933 0.0
H338 H 0.97087 0.95872 0.36986 0.0
H339 H 0.92817 0.01196 0.5378 0.0
H340 H 0.02493 0.01342 0.41594 0.0
H341 H 1.00541 0.04283 0.78904 0.0
H342 H 1.00109 0.96887 0.34141 0.0
H343 H 0.07463 1.00267 0.58869 0.0
H344 H 1.00509 0.02099 0.72036 0.0
H345 H 0.10347 0.01762 0.60412 0.0
H346 H 0.94404 0.96446 0.42179 0.0
H347 H 0.03156 0.06233 0.80245 0.0
H348 H 0.0629 0.07025 0.77846 0.0
H349 H 0.92776 0.98468 0.48353 0.0
H350 H 0.08978 0.06345 0.72774 0.0
N351 N 0.03102 0.0276 0.69071 0.0
C352 C 0.01685 0.02902 0.72398 0.0
C353 C 0.03162 0.05256 0.77151 0.0
C354 C 0.04654 0.05032 0.74018 0.0
C355 C 0.01689 0.04157 0.76407 0.0
C356 C 0.04588 0.03744 0.70023 0.0
H357 H 0.10516 0.04355 0.66339 0.0
N358 N 0.05983 0.02045 0.63672 0.0
C359 C 0.09156 0.02244 0.62316 0.0
C360 C 0.06083 0.03378 0.67186 0.0
C361 C 0.07517 0.01402 0.61453 0.0
C362 C 0.09245 0.03709 0.65646 0.0
C363 C 0.07706 0.04266 0.68233 0.0
O364 O 0.04996 0.98852 0.63864 0.0
O365 O 0.0147 1.00119 0.55542 0.0
O366 O 0.98415 0.01027 0.5855 0.0
O367 O 1.00513 1.00379 0.64917 0.0
O368 O 0.04022 0.9917 0.55466 0.0
O369 O 0.0234 0.98825 0.6679 0.0
O370 O 0.98102 0.04065 0.49071 0.0
O371 O 0.01643 0.03036 0.5874 0.0
O372 O 0.04683 0.02372 0.56072 0.0
O373 O 0.02648 0.02657 0.49312 0.0
O374 O 0.99103 0.04018 0.58742 0.0
O375 O 1.0089 0.04598 0.48702 0.0
C376 C 0.02511 0.99089 0.53145 0.0
C377 C 0.03551 0.96053 0.6408 0.0
C378 C 0.01966 0.93203 0.64199 0.0
C379 C 0.02254 0.9493 0.6622 0.0
C380 C 0.02967 0.92629 0.59929 0.0
C381 C 0.04577 0.95416 0.5992 0.0
C382 C 0.04264 0.93729 0.57823 0.0
C383 C 0.98855 1.00447 0.63168 0.0
C384 C 0.03785 0.97899 0.66064 0.0
C385 C 0.07753 0.05627 0.71968 0.0
C386 C 0.06225 0.06012 0.74858 0.0
C387 C 1.00611 0.04087 0.61097 0.0
C388 C 0.99022 0.07063 0.50298 0.0
C389 C 1.00148 0.0846 0.48813 0.0
C390 C 0.99968 0.10176 0.5101 0.0
C391 C 0.98672 0.10461 0.54828 0.0
C392 C 0.97702 0.07395 0.54022 0.0
C393 C 0.97548 0.09078 0.5631 0.0
C394 C 0.04276 0.0278 0.51276 0.0
C395 C 0.99304 0.05255 0.48127 0.0
H396 H 0.01469 0.95403 0.6945 0.0
H397 H 0.02797 0.91302 0.58321 0.0
H398 H 0.0561 0.96225 0.58221 0.0
H399 H 0.05044 0.93264 0.54583 0.0
H400 H 0.0117 0.08207 0.45956 0.0
H401 H 0.98485 0.11768 0.56553 0.0
H402 H 0.96801 0.06353 0.55227 0.0
H403 H 0.96541 0.09316 0.59209 0.0
Tb404 Tb 0.5196 0.02895 0.61479 0.0
C405 C 0.53372 0.96832 0.46748 0.0
C406 C 0.54829 0.98376 0.3985 0.0
C407 C 0.55757 0.9537 0.41975 0.0
C408 C 0.53567 0.98337 0.43871 0.0
C409 C 0.54412 0.953 0.45712 0.0
C410 C 0.55967 0.9691 0.39046 0.0
C411 C 0.52548 0.93681 0.51577 0.0
N412 N 0.52048 0.96819 0.50256 0.0
C413 C 0.51551 0.95234 0.52424 0.0
C414 C 0.54014 0.93724 0.48291 0.0
Tb415 Tb 0.50648 0.99503 0.52068 0.0
N416 N 0.52434 0.99716 0.44789 0.0
C417 C 0.5239 0.01108 0.41395 0.0
C418 C 0.54865 0.99854 0.36647 0.0
C419 C 0.53611 0.01205 0.3735 0.0
H420 H 0.50419 0.95185 0.54982 0.0
H421 H 0.53587 0.02332 0.34788 0.0
H422 H 0.56965 0.9693 0.36045 0.0
H423 H 0.52184 0.92454 0.5346 0.0
H424 H 0.51448 0.02181 0.41704 0.0
H425 H 0.48757 1.00004 0.78283 0.0
H426 H 0.55813 0.99938 0.33523 0.0
H427 H 0.5231 0.0718 0.58494 0.0
H428 H 0.50875 1.00082 0.71319 0.0
H429 H 0.50724 0.09997 0.60315 0.0
H430 H 0.56591 0.94219 0.41184 0.0
H431 H 0.46759 0.02561 0.79977 0.0
H432 H 0.45846 0.05686 0.77884 0.0
H433 H 0.54779 0.92518 0.47607 0.0
H434 H 0.46372 0.08419 0.72959 0.0
N435 N 0.50143 0.02697 0.68705 0.0
C436 C 0.50059 0.01243 0.7187 0.0
C437 C 0.47709 0.0262 0.76855 0.0
C438 C 0.47864 0.04143 0.7386 0.0
C439 C 0.48837 0.01179 0.75915 0.0
C440 C 0.49121 0.04146 0.69822 0.0
H441 H 0.48214 0.10052 0.66471 0.0
N442 N 0.50679 0.05622 0.63418 0.0
C443 C 0.50322 0.08785 0.62214 0.0
C444 C 0.49394 0.05663 0.67049 0.0
C445 C 0.51218 0.07183 0.61202 0.0
C446 C 0.48905 0.0881 0.65674 0.0
C447 C 0.4845 0.07245 0.68231 0.0
O448 O 0.53952 0.04786 0.63096 0.0
O449 O 0.5273 0.01174 0.5515 0.0
O450 O 0.52183 0.98113 0.57959 0.0
O451 O 0.5267 1.00253 0.64417 0.0
O452 O 0.53586 0.03748 0.54966 0.0
O453 O 0.54054 0.02218 0.66549 0.0
O454 O 0.48732 0.97549 0.50271 0.0
O455 O 0.49878 0.01229 0.58364 0.0
O456 O 0.50345 0.04291 0.55747 0.0
O457 O 0.4996 0.02162 0.49196 0.0
O458 O 0.48979 0.9867 0.5851 0.0
O459 O 0.4851 1.00159 0.47141 0.0
C460 C 0.53705 0.02226 0.52685 0.0
C461 C 0.56791 0.03432 0.63648 0.0
C462 C 0.59691 0.0194 0.64105 0.0
C463 C 0.57951 0.02215 0.66013 0.0
C464 C 0.60241 0.02876 0.59733 0.0
C465 C 0.57401 0.04392 0.59376 0.0
C466 C 0.59103 0.04094 0.57403 0.0
C467 C 0.52739 0.986 0.62583 0.0
C468 C 0.54941 0.03663 0.65549 0.0
C469 C 0.47131 0.07227 0.72047 0.0
C470 C 0.46835 0.05674 0.74856 0.0
C471 C 0.48866 1.00196 0.60775 0.0
C472 C 0.45841 0.98806 0.50025 0.0
C473 C 0.44658 1.00091 0.48085 0.0
C474 C 0.42926 1.0028 0.50122 0.0
C475 C 0.42406 0.9919 0.54215 0.0
C476 C 0.45262 0.97696 0.54022 0.0
C477 C 0.43567 0.97906 0.5613 0.0
C478 C 0.49827 0.03807 0.51072 0.0
C479 C 0.47686 0.98669 0.48008 0.0
H480 H 0.575 0.01483 0.69333 0.0
H481 H 0.61575 0.02718 0.5821 0.0
H482 H 0.56563 0.05365 0.57501 0.0
H483 H 0.59548 0.04825 0.54083 0.0
H484 H 0.45088 0.00944 0.4499 0.0
H485 H 0.41077 0.99283 0.55824 0.0
H486 H 0.46126 0.96678 0.55588 0.0
H487 H 0.43145 0.97059 0.59239 0.0
Tb488 Tb 0.53638 0.50559 0.54266 0.0
C489 C 0.45714 0.50702 0.60643 0.0
C490 C 0.44116 0.51919 0.53424 0.0
C491 C 0.4264 0.49821 0.59055 0.0
C492 C 0.45683 0.51772 0.56395 0.0
C493 C 0.44186 0.49738 0.62099 0.0
C494 C 0.42605 0.50912 0.54719 0.0
C495 C 0.45785 0.48794 0.6965 0.0
N496 N 0.47228 0.50664 0.6347 0.0
C497 C 0.47262 0.49782 0.6805 0.0
C498 C 0.44246 0.48753 0.66628 0.0
Tb499 Tb 0.49623 0.52242 0.60453 0.0
N500 N 0.47178 0.52708 0.55262 0.0
C501 C 0.47139 0.53922 0.51368 0.0
C502 C 0.44106 0.53092 0.49292 0.0
C503 C 0.45617 0.54114 0.48305 0.0
H504 H 0.48453 0.4979 0.70386 0.0
H505 H 0.45617 0.55046 0.4516 0.0
H506 H 0.41396 0.50991 0.52452 0.0
H507 H 0.45838 0.48061 0.73203 0.0
H508 H 0.48281 0.54724 0.50465 0.0
H509 H 0.58245 0.48641 0.69262 0.0
H510 H 0.42933 0.53238 0.46897 0.0
H511 H 0.54354 0.52658 0.43189 0.0
H512 H 0.55393 0.48615 0.64569 0.0
H513 H 0.56775 0.54334 0.39146 0.0
H514 H 0.41456 0.49078 0.60076 0.0
H515 H 0.60739 0.50515 0.66259 0.0
H516 H 0.6196 0.5258 0.5959 0.0
H517 H 0.43101 0.47991 0.67877 0.0
H518 H 0.61566 0.54116 0.51361 0.0
N519 N 0.56228 0.505 0.58993 0.0
C520 C 0.56465 0.49443 0.63198 0.0
C521 C 0.59488 0.50508 0.6417 0.0
C522 C 0.59277 0.51506 0.59704 0.0
C523 C 0.58085 0.49447 0.6587 0.0
C524 C 0.57618 0.51452 0.57137 0.0
H525 H 0.59648 0.54752 0.43671 0.0
N526 N 0.55811 0.52133 0.50062 0.0
C527 C 0.56968 0.53772 0.42914 0.0
C528 C 0.57405 0.52295 0.52502 0.0
C529 C 0.55595 0.5281 0.45235 0.0
C530 C 0.58587 0.54008 0.45483 0.0
C531 C 0.5883 0.53248 0.50312 0.0
O532 O 0.53644 0.48926 0.47606 0.0
O533 O 0.50781 0.5087 0.54043 0.0
O534 O 0.49494 0.4932 0.6008 0.0
O535 O 0.52527 0.48651 0.59827 0.0
O536 O 0.52078 0.50989 0.47215 0.0
O537 O 0.54878 0.4806 0.54601 0.0
O538 O 0.48947 0.53343 0.67624 0.0
O539 O 0.5247 0.51901 0.60805 0.0
O540 O 0.5386 0.53466 0.54403 0.0
O541 O 0.50844 0.54209 0.55247 0.0
O542 O 0.51108 0.51608 0.67487 0.0
O543 O 0.49253 0.55027 0.61037 0.0
C544 C 0.50529 0.51055 0.49305 0.0
C545 C 0.53321 0.45871 0.49915 0.0
C546 C 0.50932 0.43972 0.4652 0.0
C547 C 0.51876 0.45597 0.46535 0.0
C548 C 0.51435 0.4264 0.50016 0.0
C549 C 0.53806 0.44505 0.53301 0.0
C550 C 0.52855 0.42912 0.53382 0.0
C551 C 0.50844 0.48201 0.60737 0.0
C552 C 0.54308 0.47579 0.50091 0.0
C553 C 0.60459 0.53378 0.52959 0.0
C554 C 0.60683 0.52507 0.57648 0.0
C555 C 0.52676 0.51652 0.65537 0.0
C556 C 0.5044 0.56095 0.68924 0.0
C557 C 0.50789 0.57858 0.67396 0.0
C558 C 0.52085 0.58892 0.69976 0.0
C559 C 0.53044 0.58132 0.74053 0.0
C560 C 0.51381 0.55396 0.73135 0.0
C561 C 0.52689 0.56399 0.75616 0.0
C562 C 0.52526 0.54628 0.54173 0.0
C563 C 0.49152 0.54971 0.66027 0.0
H564 H 0.51484 0.46645 0.4393 0.0
H565 H 0.50769 0.4136 0.50053 0.0
H566 H 0.54914 0.44675 0.55936 0.0
H567 H 0.53235 0.41873 0.56026 0.0
H568 H 0.50058 0.5842 0.64203 0.0
H569 H 0.54029 0.589 0.7617 0.0
H570 H 0.51123 0.54065 0.74517 0.0
H571 H 0.53418 0.55838 0.78806 0.0
Tb572 Tb 0.02393 0.53334 0.53602 0.0
C573 C 0.02127 0.45703 0.62286 0.0
C574 C 1.00701 0.43923 0.55687 0.0
C575 C 0.0283 0.42546 0.61474 0.0
C576 C 0.00982 0.45578 0.5818 0.0
C577 C 0.03038 0.44184 0.64073 0.0
C578 C 0.01663 0.42416 0.57278 0.0
C579 C 0.04168 0.45986 0.71085 0.0
N580 N 0.02282 0.47305 0.64684 0.0
C581 C 0.03237 0.47453 0.69154 0.0
C582 C 0.04088 0.44348 0.68493 0.0
Tb583 Tb 1.00764 0.49657 0.61173 0.0
N584 N 1.00078 0.47064 0.56793 0.0
C585 C 0.98754 0.46942 0.5318 0.0
C586 C 0.99428 0.43822 0.51772 0.0
C587 C 0.9843 0.45333 0.50572 0.0
H588 H 0.03328 0.48716 0.71161 0.0
H589 H 0.97417 0.45264 0.47615 0.0
H590 H 0.0148 0.41137 0.55378 0.0
H591 H 0.04954 0.46122 0.74553 0.0
H592 H 0.97972 0.48087 0.52134 0.0
H593 H 0.05756 0.57687 0.67238 0.0
H594 H 0.99176 0.42579 0.49742 0.0
H595 H 0.99802 0.54299 0.43692 0.0
H596 H 0.05199 0.54879 0.62657 0.0
H597 H 0.98169 0.56902 0.40381 0.0
H598 H 0.0353 0.41366 0.62751 0.0
H599 H 0.03999 0.60381 0.65173 0.0
H600 H 0.01692 0.6184 0.59588 0.0
H601 H 0.0481 0.43214 0.69994 0.0
H602 H 0.9963 0.61631 0.52237 0.0
N603 N 0.03097 0.55917 0.58007 0.0
C604 C 0.04419 0.56028 0.61629 0.0
C605 C 0.03748 0.59144 0.63111 0.0
C606 C 0.02475 0.59056 0.59193 0.0
C607 C 0.04744 0.57628 0.64276 0.0
C608 C 0.02193 0.57409 0.56658 0.0
H609 H 0.98332 0.59801 0.44984 0.0
N610 N 1.00873 0.55697 0.50156 0.0
C611 C 0.98967 0.57031 0.43829 0.0
C612 C 0.01038 0.57294 0.52574 0.0
C613 C 0.99902 0.55559 0.45712 0.0
C614 C 0.99057 0.58663 0.46445 0.0
C615 C 1.00122 0.58817 0.5084 0.0
O616 O 0.03323 0.53541 0.46039 0.0
O617 O 0.01912 0.50505 0.54067 0.0
O618 O 0.03644 0.49251 0.60172 0.0
O619 O 0.04507 0.52176 0.58479 0.0
O620 O 0.01378 0.51674 0.47234 0.0
O621 O 0.0515 0.53689 0.52418 0.0
O622 O 0.99804 0.49486 0.68717 0.0
O623 O 0.01246 0.52485 0.60702 0.0
O624 O 0.99516 0.53739 0.5465 0.0
O625 O 0.98652 0.50811 0.56275 0.0
O626 O 0.01768 0.51321 0.67541 0.0
O627 O 0.98008 0.49262 0.62283 0.0
C628 C 0.01418 0.50173 0.49543 0.0
C629 C 0.06067 0.51996 0.45175 0.0
C630 C 0.08863 0.50312 0.44707 0.0
C631 C 0.07847 0.51737 0.46728 0.0
C632 C 0.08057 0.4913 0.41171 0.0
C633 C 0.05311 0.5081 0.4156 0.0
C634 C 0.06295 0.49378 0.3963 0.0
C635 C 0.04878 0.50514 0.59864 0.0
C636 C 0.04986 0.53452 0.47479 0.0
C637 C 1.00335 0.60448 0.53472 0.0
C638 C 0.01509 0.60567 0.57653 0.0
C639 C 0.01736 0.52822 0.65227 0.0
C640 C 0.97019 0.5097 0.69408 0.0
C641 C 0.95224 0.51139 0.67894 0.0
C642 C 0.94159 0.52545 0.69814 0.0
C643 C 0.94931 0.538 0.73204 0.0
C644 C 0.97741 0.52227 0.72881 0.0
C645 C 0.96708 0.5364 0.74706 0.0
C646 C 0.98281 0.52477 0.54935 0.0
C647 C 0.98146 0.49529 0.67215 0.0
H648 H 0.08435 0.52643 0.4952 0.0
H649 H 0.08803 0.48041 0.39448 0.0
H650 H 0.03953 0.50973 0.40228 0.0
H651 H 0.05694 0.48468 0.36878 0.0
H652 H 0.94661 0.50177 0.65215 0.0
H653 H 0.94149 0.54877 0.74847 0.0
H654 H 0.99108 0.5213 0.74188 0.0
H655 H 0.97282 0.54604 0.77353 0.0
C656 C 0.15208 0.06481 0.17583 0.0
C657 C 0.16727 0.05374 0.17699 0.0
C658 C 0.13897 0.06371 0.21391 0.0
C659 C 0.13059 0.04785 0.34594 0.0
H660 H 0.08112 0.04642 0.30245 0.0
C661 C 0.07426 0.02507 0.48125 0.0
C662 C 0.05736 0.03304 0.47756 0.0
C663 C 0.08776 0.02909 0.44624 0.0
C664 C 0.09482 0.0471 0.31554 0.0
H665 H 0.18052 0.03295 0.22015 0.0
H666 H 0.15783 0.03126 0.28682 0.0
H667 H 0.10455 0.05083 0.23913 0.0
H668 H 0.04134 0.0515 0.43367 0.0
H669 H 0.06497 0.05885 0.37292 0.0
H670 H 0.12093 0.04416 0.42232 0.0
C671 C 0.15612 0.04088 0.25647 0.0
C672 C 0.10829 0.04959 0.27909 0.0
C673 C 0.16919 0.04189 0.21821 0.0
C674 C 0.05425 0.04518 0.43776 0.0
C675 C 0.0678 0.0493 0.40274 0.0
C676 C 0.11712 0.04548 0.38244 0.0
C677 C 0.14073 0.05161 0.25447 0.0
C678 C 0.12636 0.04981 0.29372 0.0
C679 C 0.08474 0.04122 0.40629 0.0
C680 C 0.09904 0.04486 0.36773 0.0
H681 H 0.15026 0.07436 0.14537 0.0
H682 H 0.12744 0.07238 0.21162 0.0
H683 H 0.14435 0.04823 0.35869 0.0
H684 H 0.0769 0.0151 0.50974 0.0
H685 H 0.1004 0.0222 0.44959 0.0
C686 C 0.45209 0.15368 0.20298 0.0
C687 C 0.46482 0.15547 0.16378 0.0
C688 C 0.45432 0.14089 0.24132 0.0
C689 C 0.48936 0.11481 0.30552 0.0
H690 H 0.45048 0.08497 0.3521 0.0
C691 C 0.49748 0.06972 0.48059 0.0
C692 C 0.49159 0.05203 0.47549 0.0
C693 C 0.49276 0.08255 0.44455 0.0
C694 C 0.46147 0.09318 0.33935 0.0
H695 H 0.48997 0.14529 0.13451 0.0
H696 H 0.49378 0.123 0.20092 0.0
H697 H 0.44519 0.10678 0.28428 0.0
H698 H 0.47564 0.03405 0.42861 0.0
H699 H 0.4674 0.05649 0.36532 0.0
H700 H 0.5057 0.10119 0.35983 0.0
C701 C 0.48208 0.13148 0.20216 0.0
C702 C 0.45841 0.10577 0.30087 0.0
C703 C 0.47979 0.14415 0.16376 0.0
C704 C 0.48041 0.04757 0.43386 0.0
C705 C 0.4756 0.06045 0.39773 0.0
C706 C 0.49237 0.10237 0.3441 0.0
C707 C 0.46944 0.12975 0.24158 0.0
C708 C 0.47237 0.11664 0.2833 0.0
C709 C 0.48203 0.07802 0.40216 0.0
C710 C 0.47849 0.09138 0.36148 0.0
H711 H 0.44035 0.16212 0.20389 0.0
H712 H 0.4444 0.13996 0.27135 0.0
H713 H 0.50036 0.12309 0.29327 0.0
H714 H 0.50644 0.07359 0.51099 0.0
H715 H 0.49781 0.096 0.44942 0.0
C716 C 0.38435 0.4687 0.19619 0.0
C717 C 0.36948 0.4802 0.19761 0.0
C718 C 0.39829 0.47061 0.23157 0.0
C719 C 0.41105 0.49038 0.35724 0.0
H720 H 0.4587 0.49012 0.29937 0.0
C721 C 0.48658 0.51456 0.41523 0.0
C722 C 0.48886 0.5067 0.46342 0.0
C723 C 0.47174 0.51042 0.38482 0.0
C724 C 0.44548 0.49024 0.31614 0.0
H725 H 0.35751 0.50238 0.23917 0.0
H726 H 0.38175 0.50551 0.30141 0.0
H727 H 0.43304 0.48438 0.24395 0.0
H728 H 0.47811 0.48723 0.51584 0.0
H729 H 0.45182 0.4803 0.46328 0.0
H730 H 0.42364 0.49639 0.42949 0.0
C731 C 0.38255 0.49499 0.27272 0.0
C732 C 0.43077 0.48679 0.28447 0.0
C733 C 0.36862 0.49316 0.23702 0.0
C734 C 0.47632 0.49408 0.47988 0.0
C735 C 0.46134 0.49002 0.44961 0.0
C736 C 0.42583 0.49362 0.38913 0.0
C737 C 0.39774 0.48398 0.26975 0.0
C738 C 0.41335 0.48696 0.30445 0.0
C739 C 0.45889 0.49815 0.40169 0.0
C740 C 0.44319 0.49379 0.36877 0.0
H741 H 0.38533 0.45827 0.16729 0.0
H742 H 0.40962 0.46167 0.22878 0.0
H743 H 0.39782 0.4905 0.37392 0.0
H744 H 0.49628 0.52405 0.40118 0.0
H745 H 0.47024 0.51694 0.34818 0.0
C746 C 0.02355 0.38096 0.18051 0.0
C747 C 0.03598 0.3671 0.18708 0.0
C748 C 0.02123 0.39412 0.21833 0.0
C749 C 0.0436 0.41627 0.32794 0.0
H750 H 0.99586 0.43334 0.35796 0.0
C751 C 0.02928 0.47206 0.48023 0.0
C752 C 0.01635 0.48476 0.46658 0.0
C753 C 0.03177 0.45662 0.45017 0.0
C754 C 1.00931 0.42886 0.34977 0.0
H755 H 0.05571 0.35626 0.23907 0.0
H756 H 0.05164 0.37933 0.30541 0.0
H757 H 0.99998 0.40844 0.29838 0.0
H758 H 0.9966 0.49177 0.40968 0.0
H759 H 1.00091 0.46502 0.35719 0.0
H760 H 0.05293 0.43698 0.37865 0.0
C761 C 0.04374 0.37999 0.27066 0.0
C762 C 0.01167 0.41454 0.3156 0.0
C763 C 0.04596 0.36669 0.23285 0.0
C764 C 1.00636 0.48198 0.42168 0.0
C765 C 1.00878 0.46659 0.3918 0.0
C766 C 0.04124 0.43068 0.36207 0.0
C767 C 0.0313 0.39388 0.26389 0.0
C768 C 0.02885 0.40823 0.30351 0.0
C769 C 0.02148 0.45364 0.40562 0.0
C770 C 0.02406 0.43737 0.37274 0.0
H771 H 0.01547 0.3816 0.1461 0.0
H772 H 0.01168 0.40469 0.21145 0.0
H773 H 0.05703 0.41184 0.31927 0.0
H774 H 0.03758 0.47414 0.51377 0.0
H775 H 0.04166 0.44696 0.46205 0.0
C776 C 0.85972 0.99191 0.92106 0.0
C777 C 0.86278 0.98353 0.96836 0.0
C778 C 0.87321 0.99286 0.88409 0.0
C779 C 0.91655 0.97324 0.84346 0.0
H780 H 0.92228 0.01851 0.77494 0.0
C781 C 0.97726 0.98939 0.71154 0.0
C782 C 0.97394 0.99987 0.668 0.0
C783 C 0.96376 0.98632 0.74772 0.0
C784 C 0.92076 1.00567 0.79305 0.0
H785 H 0.88257 0.96932 0.01308 0.0
H786 H 0.906 0.97085 0.94836 0.0
H787 H 0.89864 0.01497 0.8377 0.0
H788 H 0.95373 0.01553 0.62974 0.0
H789 H 0.93023 0.0096 0.69056 0.0
H790 H 0.93872 0.96395 0.7985 0.0
C791 C 0.89308 0.97659 0.93981 0.0
C792 C 0.90716 1.00365 0.82921 0.0
C793 C 0.87959 0.97568 0.97694 0.0
C794 C 0.95674 1.00697 0.66148 0.0
C795 C 0.94328 1.00386 0.69732 0.0
C796 C 0.93016 0.97524 0.80701 0.0
C797 C 0.89015 0.98542 0.89318 0.0
C798 C 0.90479 0.9874 0.85476 0.0
C799 C 0.94662 0.99372 0.7414 0.0
C800 C 0.93238 0.99147 0.78104 0.0
H801 H 0.84686 0.99779 0.91253 0.0
H802 H 0.87034 0.99945 0.84822 0.0
H803 H 0.91504 0.96049 0.86211 0.0
H804 H 0.99036 0.98375 0.71811 0.0
H805 H 0.96692 0.97856 0.78136 0.0
C806 C 0.54843 0.86167 0.91837 0.0
C807 C 0.55993 0.86429 0.96046 0.0
C808 C 0.54717 0.87445 0.87971 0.0
C809 C 0.5543 0.92244 0.8577 0.0
H810 H 0.5489 0.90921 0.71439 0.0
C811 C 0.54658 0.97557 0.6989 0.0
C812 C 0.53382 0.97186 0.6607 0.0
C813 C 0.5518 0.96234 0.73351 0.0
C814 C 0.55026 0.91315 0.75429 0.0
H815 H 0.5798 0.88209 0.99331 0.0
H816 H 0.57752 0.90438 0.92617 0.0
H817 H 0.55415 0.88613 0.77795 0.0
H818 H 0.51597 0.95161 0.63079 0.0
H819 H 0.52504 0.92865 0.69013 0.0
H820 H 0.55001 0.9494 0.83434 0.0
C821 C 0.56924 0.89257 0.92352 0.0
C822 C 0.55328 0.89989 0.79072 0.0
C823 C 0.57053 0.87978 0.96204 0.0
C824 C 0.52638 0.95471 0.65806 0.0
C825 C 0.53153 0.94153 0.69254 0.0
C826 C 0.55121 0.9357 0.82129 0.0
C827 C 0.55737 0.89019 0.88222 0.0
C828 C 0.55514 0.90435 0.84297 0.0
C829 C 0.54425 0.94515 0.73092 0.0
C830 C 0.54893 0.93121 0.76916 0.0
H831 H 0.5399 0.85003 0.91614 0.0
H832 H 0.53775 0.87228 0.84874 0.0
H833 H 0.55544 0.92633 0.89769 0.0
H834 H 0.55252 0.9887 0.70209 0.0
H835 H 0.56174 0.96559 0.76229 0.0
C836 C 0.64743 0.53056 0.96556 0.0
C837 C 0.66117 0.54303 0.95814 0.0
C838 C 0.63401 0.52821 0.92888 0.0
C839 C 0.61085 0.55052 0.82238 0.0
H840 H 0.5935 0.50274 0.79367 0.0
C841 C 0.55486 0.534 0.67248 0.0
C842 C 0.54262 0.52077 0.68685 0.0
C843 C 0.56985 0.53764 0.70314 0.0
C844 C 0.59806 0.5162 0.8016 0.0
H845 H 0.67162 0.5627 0.90582 0.0
H846 H 0.64807 0.55853 0.84127 0.0
H847 H 0.61912 0.50693 0.85 0.0
H848 H 0.53544 0.5022 0.74629 0.0
H849 H 0.56152 0.50844 0.79971 0.0
H850 H 0.58954 0.55974 0.77423 0.0
C851 C 0.6477 0.55066 0.87586 0.0
C852 C 0.61279 0.5186 0.83385 0.0
C853 C 0.66127 0.55294 0.91258 0.0
C854 C 0.54499 0.51208 0.73373 0.0
C855 C 0.55996 0.51562 0.76412 0.0
C856 C 0.59604 0.54811 0.79003 0.0
C857 C 0.63389 0.53826 0.88363 0.0
C858 C 0.61919 0.5358 0.84548 0.0
C859 C 0.57278 0.52817 0.74879 0.0
C860 C 0.58925 0.53092 0.7801 0.0
H861 H 0.64704 0.52255 0.99989 0.0
H862 H 0.62351 0.51869 0.9365 0.0
H863 H 0.61537 0.56395 0.83075 0.0
H864 H 0.55297 0.54135 0.63735 0.0
H865 H 0.5794 0.54746 0.69032 0.0
C866 C 0.98706 0.66493 0.90944 0.0
C867 C 0.99524 0.6638 0.95793 0.0
C868 C 0.98877 0.65097 0.87335 0.0
C869 C 1.00064 0.60265 0.86564 0.0
H870 H 1.00583 0.61108 0.71987 0.0
C871 C 0.02449 0.54762 0.72723 0.0
C872 C 0.01505 0.54516 0.68121 0.0
C873 C 0.02147 0.56263 0.7582 0.0
C874 C 1.00421 0.60853 0.76044 0.0
H875 H 0.01243 0.64748 1.00524 0.0
H876 H 0.01564 0.62349 0.9427 0.0
H877 H 1.00179 0.63639 0.77906 0.0
H878 H 0.99442 0.55617 0.63253 0.0
H879 H 0.98944 0.58281 0.68615 0.0
H880 H 1.00341 0.57489 0.84731 0.0
C881 C 1.00737 0.6348 0.93283 0.0
C882 C 1.00187 0.62303 0.7944 0.0
C883 C 1.00557 0.64863 0.96881 0.0
C884 C 1.00234 0.558 0.66691 0.0
C885 C 0.99942 0.57319 0.69775 0.0
C886 C 1.00311 0.58826 0.8319 0.0
C887 C 0.99881 0.6356 0.88481 0.0
C888 C 1.00031 0.62029 0.84765 0.0
C889 C 1.00882 0.57555 0.74411 0.0
C890 C 1.00517 0.591 0.779 0.0
H891 H 0.97897 0.67641 0.89987 0.0
H892 H 0.98189 0.65206 0.83697 0.0
H893 H 0.99898 0.59989 0.90605 0.0
H894 H 0.03417 0.53779 0.73951 0.0
H895 H 0.02904 0.56411 0.79342 0.0
C896 C 0.07223 0.22697 0.30356 0.0
C897 C 0.0592 0.23803 0.28121 0.0
C898 C 0.0675 0.2147 0.34128 0.0
C899 C 0.02789 0.18877 0.36844 0.0
H900 H 0.05561 0.1683 0.479 0.0
C901 C 0.01305 0.11881 0.4377 0.0
C902 C 0.01035 0.11695 0.4907 0.0
C903 C 0.02103 0.13412 0.41844 0.0
C904 C 0.04773 0.17398 0.44836 0.0
H905 H 0.03146 0.24639 0.28654 0.0
H906 H 0.02359 0.22575 0.35345 0.0
H907 H 0.06535 0.19636 0.43977 0.0
H908 H 0.01498 0.12923 0.56525 0.0
H909 H 0.02885 0.15619 0.53125 0.0
H910 H 0.01043 0.16651 0.37613 0.0
C911 C 0.0373 0.22609 0.34042 0.0
C912 C 0.0533 0.18996 0.42589 0.0
C913 C 0.04194 0.23815 0.30236 0.0
C914 C 0.01669 0.13037 0.52419 0.0
C915 C 0.02476 0.14572 0.50482 0.0
C916 C 0.02245 0.17286 0.39044 0.0
C917 C 0.04971 0.21346 0.35776 0.0
C918 C 0.04343 0.19747 0.38555 0.0
C919 C 0.02648 0.14795 0.45165 0.0
C920 C 0.03239 0.16517 0.43014 0.0
H921 H 0.0858 0.22688 0.28935 0.0
H922 H 0.07743 0.20526 0.35428 0.0
H923 H 0.02016 0.19396 0.33676 0.0
H924 H 1.00822 0.10883 0.41076 0.0
H925 H 0.02243 0.1354 0.37727 0.0
C926 C 0.29849 0.05199 0.27441 0.0
C927 C 0.29957 0.06873 0.2507 0.0
C928 C 0.3106 0.04729 0.31262 0.0
C929 C 0.34808 0.06277 0.39555 0.0
H930 H 0.36783 0.01674 0.35678 0.0
C931 C 0.40353 0.02435 0.50736 0.0
C932 C 0.41606 0.01495 0.47725 0.0
C933 C 0.38936 0.0334 0.48421 0.0
C934 C 0.36256 0.02967 0.36793 0.0
H935 H 0.31275 0.09449 0.25381 0.0
H936 H 0.33436 0.08599 0.31923 0.0
H937 H 0.34138 0.0276 0.31364 0.0
H938 H 0.4241 1.00866 0.39919 0.0
H939 H 0.3997 0.02473 0.35906 0.0
H940 H 0.36976 0.0648 0.44935 0.0
C941 C 0.32412 0.07651 0.30815 0.0
C942 C 0.34719 0.03578 0.3438 0.0
C943 C 0.31184 0.08131 0.27021 0.0
C944 C 0.41477 0.0158 0.42357 0.0
C945 C 0.40066 0.02484 0.40054 0.0
C946 C 0.36351 0.05656 0.42009 0.0
C947 C 0.32422 0.05911 0.32764 0.0
C948 C 0.33978 0.05241 0.35707 0.0
C949 C 0.38745 0.03317 0.43059 0.0
C950 C 0.37101 0.04003 0.40594 0.0
H951 H 0.28931 0.04187 0.26069 0.0
H952 H 0.31005 0.03392 0.32794 0.0
H953 H 0.34267 0.07565 0.40654 0.0
H954 H 0.40435 0.02421 0.54885 0.0
H955 H 0.3794 0.03975 0.50832 0.0
C956 C 0.44647 0.35031 0.13317 0.0
C957 C 0.44162 0.33504 0.1608 0.0
C958 C 0.44832 0.36682 0.15812 0.0
C959 C 0.43982 0.39151 0.28006 0.0
H960 H 0.48748 0.40998 0.25887 0.0
C961 C 0.48056 0.42506 0.43883 0.0
C962 C 0.4952 0.43589 0.42639 0.0
C963 C 0.46952 0.41813 0.40036 0.0
C964 C 0.47391 0.40549 0.26459 0.0
H965 H 0.43402 0.32547 0.23604 0.0
H966 H 0.437 0.35417 0.27905 0.0
H967 H 0.47578 0.38746 0.20083 0.0
H968 H 0.50836 0.44965 0.36409 0.0
H969 H 0.48858 0.4383 0.29743 0.0
H970 H 0.43818 0.40918 0.34492 0.0
C971 C 0.43925 0.35344 0.23804 0.0
C972 C 0.46721 0.39247 0.23118 0.0
C973 C 0.43754 0.33693 0.21325 0.0
C974 C 0.49731 0.44124 0.3752 0.0
C975 C 0.48608 0.43452 0.33676 0.0
C976 C 0.44645 0.40473 0.31324 0.0
C977 C 0.4452 0.36843 0.21112 0.0
C978 C 0.4504 0.38482 0.23975 0.0
C979 C 0.47266 0.4221 0.34851 0.0
C980 C 0.46389 0.41133 0.30722 0.0
H981 H 0.44934 0.34944 0.09252 0.0
H982 H 0.45275 0.3782 0.13631 0.0
H983 H 0.4267 0.38602 0.28713 0.0
H984 H 0.47819 0.42113 0.4781 0.0
H985 H 0.45935 0.40865 0.41122 0.0
C986 C 0.22805 0.46055 0.31372 0.0
C987 C 0.23791 0.47388 0.28887 0.0
C988 C 0.21625 0.46499 0.35336 0.0
C989 C 0.18863 0.50347 0.38608 0.0
H990 H 0.16981 0.4721 0.49012 0.0
C991 C 0.11901 0.51636 0.46195 0.0
C992 C 0.10797 0.50124 0.45914 0.0
C993 C 0.13757 0.51452 0.4621 0.0
C994 C 0.17494 0.48105 0.46136 0.0
H995 H 0.24464 0.50206 0.29089 0.0
H996 H 0.22477 0.50958 0.36121 0.0
H997 H 0.19897 0.46579 0.45195 0.0
H998 H 0.10778 0.47231 0.4612 0.0
H999 H 0.14001 0.46909 0.45876 0.0
H1000 H 0.1644 0.51812 0.39273 0.0
C1001 C 0.22566 0.49578 0.34881 0.0
C1002 C 0.19166 0.47744 0.43953 0.0
C1003 C 0.23728 0.49139 0.30878 0.0
C1004 C 0.1159 0.48425 0.46169 0.0
C1005 C 0.13445 0.48241 0.46116 0.0
C1006 C 0.172 0.50703 0.40769 0.0
C1007 C 0.21423 0.48284 0.36943 0.0
C1008 C 0.19843 0.48831 0.40042 0.0
C1009 C 0.1455 0.49752 0.45874 0.0
C1010 C 0.16464 0.49556 0.44437 0.0
H1011 H 0.22856 0.44683 0.30033 0.0
H1012 H 0.20773 0.45463 0.3684 0.0
H1013 H 0.19317 0.51197 0.35542 0.0
H1014 H 0.11342 0.52967 0.46034 0.0
H1015 H 0.14568 0.52646 0.4617 0.0
C1016 C 0.97791 0.79804 0.85534 0.0
C1017 C 0.9613 0.79725 0.88026 0.0
C1018 C 0.98138 0.81132 0.81971 0.0
C1019 C 0.96254 0.84948 0.74715 0.0
H1020 H 1.00761 0.87113 0.78612 0.0
C1021 C 0.99714 0.90723 0.63856 0.0
C1022 C 1.00746 0.91932 0.66759 0.0
C1023 C 0.98847 0.89302 0.66219 0.0
C1024 C 0.99488 0.86541 0.77516 0.0
H1025 H 0.93447 0.80821 0.88106 0.0
H1026 H 0.94081 0.83191 0.82042 0.0
H1027 H 0.99865 0.84338 0.82495 0.0
H1028 H 0.01544 0.92687 0.74483 0.0
H1029 H 0.99988 0.90246 0.78619 0.0
H1030 H 0.95877 0.87196 0.69788 0.0
C1031 C 0.95117 0.82226 0.82866 0.0
C1032 C 0.98989 0.84927 0.79668 0.0
C1033 C 0.9476 0.80876 0.86388 0.0
C1034 C 1.00764 0.91781 0.72125 0.0
C1035 C 0.9989 0.90367 0.74491 0.0
C1036 C 0.96759 0.86573 0.72535 0.0
C1037 C 0.96842 0.82429 0.80863 0.0
C1038 C 0.97372 0.84104 0.78286 0.0
C1039 C 0.98988 0.8907 0.71542 0.0
C1040 C 0.9838 0.87389 0.73939 0.0
H1041 H 0.98886 0.78948 0.8665 0.0
H1042 H 0.99466 0.81222 0.80361 0.0
H1043 H 0.94997 0.84348 0.73588 0.0
H1044 H 0.99639 0.9083 0.59729 0.0
H1045 H 0.98158 0.8833 0.63839 0.0
C1046 C 0.71879 0.94899 0.87735 0.0
C1047 C 0.73019 0.96253 0.89588 0.0
C1048 C 0.70567 0.95281 0.84087 0.0
C1049 C 0.67922 0.99183 0.806 0.0
H1050 H 0.65753 0.96032 0.70498 0.0
C1051 C 0.61121 1.00895 0.72231 0.0
C1052 C 0.6099 1.00798 0.6686 0.0
C1053 C 0.62537 1.00073 0.74769 0.0
C1054 C 0.66349 0.96927 0.73298 0.0
H1055 H 0.73812 0.99013 0.8852 0.0
H1056 H 0.71603 0.99639 0.82003 0.0
H1057 H 0.68555 0.95163 0.74638 0.0
H1058 H 0.62145 0.99618 0.60004 0.0
H1059 H 0.64648 0.98232 0.64408 0.0
H1060 H 0.65755 0.0096 0.79241 0.0
C1061 C 0.71671 0.98303 0.83536 0.0
C1062 C 0.67948 0.96427 0.75679 0.0
C1063 C 0.72963 0.97931 0.87227 0.0
C1064 C 0.62233 0.99752 0.64129 0.0
C1065 C 0.63656 0.98939 0.66663 0.0
C1066 C 0.66335 0.9968 0.78234 0.0
C1067 C 0.70389 0.97016 0.82169 0.0
C1068 C 0.68753 0.97554 0.79352 0.0
C1069 C 0.6386 0.99147 0.71991 0.0
C1070 C 0.65522 0.98558 0.74577 0.0
H1071 H 0.71918 0.93576 0.89359 0.0
H1072 H 0.69612 0.94252 0.83078 0.0
H1073 H 0.68479 1.00068 0.83493 0.0
H1074 H 0.6019 0.0169 0.7446 0.0
H1075 H 0.62634 1.00223 0.78898 0.0
C1076 C 0.56697 0.72508 0.84772 0.0
C1077 C 0.55398 0.73501 0.87449 0.0
C1078 C 0.56211 0.71376 0.80712 0.0
C1079 C 0.52277 0.68766 0.77031 0.0
H1080 H 0.55444 0.66935 0.66475 0.0
C1081 C 0.50881 0.61953 0.68305 0.0
C1082 C 0.52355 0.60807 0.6879 0.0
C1083 C 0.51115 0.63803 0.68499 0.0
C1084 C 0.54537 0.67439 0.6938 0.0
H1085 H 0.52592 0.74225 0.87543 0.0
H1086 H 0.51765 0.72323 0.80332 0.0
H1087 H 0.5612 0.69778 0.70721 0.0
H1088 H 0.55241 0.60694 0.6918 0.0
H1089 H 0.55648 0.63909 0.6965 0.0
H1090 H 0.50743 0.66403 0.75904 0.0
C1091 C 0.53152 0.72368 0.81494 0.0
C1092 C 0.54926 0.69066 0.71822 0.0
C1093 C 0.53633 0.73482 0.85598 0.0
C1094 C 0.54077 0.61546 0.68912 0.0
C1095 C 0.54311 0.63393 0.69121 0.0
C1096 C 0.51887 0.6715 0.74587 0.0
C1097 C 0.54416 0.71228 0.79184 0.0
C1098 C 0.53835 0.69717 0.75816 0.0
C1099 C 0.52826 0.64541 0.69192 0.0
C1100 C 0.53045 0.66432 0.70866 0.0
H1101 H 0.58078 0.72524 0.86004 0.0
H1102 H 0.57227 0.70525 0.79037 0.0
H1103 H 0.51417 0.69199 0.80137 0.0
H1104 H 0.49537 0.61425 0.68182 0.0
H1105 H 0.49946 0.64653 0.68436 0.0
C1106 C 0.80119 0.56446 0.83239 0.0
C1107 C 0.79201 0.55115 0.85941 0.0
C1108 C 0.81297 0.55987 0.79283 0.0
C1109 C 0.84199 0.52207 0.7637 0.0
H1110 H 0.85901 0.55257 0.65508 0.0
C1111 C 0.9117 0.51083 0.68621 0.0
C1112 C 0.92214 0.5264 0.68671 0.0
C1113 C 0.89308 0.51194 0.68674 0.0
C1114 C 0.85439 0.54386 0.68514 0.0
H1115 H 0.78643 0.52274 0.86138 0.0
H1116 H 0.80627 0.51491 0.79118 0.0
H1117 H 0.8298 0.55826 0.69372 0.0
H1118 H 0.92115 0.55524 0.68129 0.0
H1119 H 0.88883 0.55723 0.6848 0.0
H1120 H 0.86676 0.50831 0.75776 0.0
C1121 C 0.80487 0.52885 0.80182 0.0
C1122 C 0.83764 0.54711 0.70725 0.0
C1123 C 0.79327 0.5334 0.84177 0.0
C1124 C 0.91351 0.543 0.68255 0.0
C1125 C 0.89491 0.54412 0.68372 0.0
C1126 C 0.85865 0.51885 0.74181 0.0
C1127 C 0.81566 0.54189 0.77899 0.0
C1128 C 0.83151 0.53659 0.74797 0.0
C1129 C 0.88449 0.52864 0.68845 0.0
C1130 C 0.86535 0.53004 0.70343 0.0
H1131 H 0.80018 0.57833 0.84401 0.0
H1132 H 0.82097 0.57032 0.77607 0.0
H1133 H 0.83795 0.51386 0.79558 0.0
H1134 H 0.91783 0.4978 0.68911 0.0
H1135 H 0.88546 0.49971 0.68895 0.0
C1136 C 0.0485 0.18914 0.7833 0.0
C1137 C 0.0365 0.1953 0.82095 0.0
C1138 C 0.04666 0.17204 0.76154 0.0
C1139 C 0.02392 0.12823 0.78249 0.0
H1140 H 0.03445 0.12035 0.63845 0.0
C1141 C 0.99943 0.06612 0.6706 0.0
C1142 C 0.01156 0.05748 0.63779 0.0
C1143 C 1.00379 0.08244 0.6938 0.0
C1144 C 0.03159 0.12231 0.67883 0.0
H1145 H 0.01286 0.18843 0.86421 0.0
H1146 H 1.00938 0.15894 0.82577 0.0
H1147 H 0.03923 0.1498 0.67679 0.0
H1148 H 0.0373 0.05962 0.60073 0.0
H1149 H 0.04497 0.0883 0.64128 0.0
H1150 H 0.01577 0.10084 0.78391 0.0
C1151 C 0.02059 0.16701 0.81396 0.0
C1152 C 0.0344 0.1392 0.70099 0.0
C1153 C 0.02254 0.184 0.83599 0.0
C1154 C 0.02792 0.06578 0.62707 0.0
C1155 C 0.03222 0.08226 0.64985 0.0
C1156 C 0.02091 0.11144 0.76017 0.0
C1157 C 0.03265 0.1607 0.77651 0.0
C1158 C 0.03043 0.14248 0.75309 0.0
C1159 C 0.02022 0.09073 0.68374 0.0
C1160 C 0.02452 0.10832 0.70796 0.0
H1161 H 0.0595 0.19744 0.77117 0.0
H1162 H 0.05638 0.16765 0.73346 0.0
H1163 H 0.02113 0.13 0.82296 0.0
H1164 H 0.98655 0.06019 0.6784 0.0
H1165 H 0.99411 0.08876 0.71889 0.0
C1166 C 0.33978 0.01839 0.79481 0.0
C1167 C 0.33209 0.03549 0.79567 0.0
C1168 C 0.3568 0.01561 0.77425 0.0
C1169 C 0.39843 0.03935 0.73622 0.0
H1170 H 0.40798 0.99478 0.66457 0.0
C1171 C 0.46374 0.02394 0.62199 0.0
C1172 C 0.47171 1.00739 0.63248 0.0
C1173 C 0.44691 0.0282 0.64198 0.0
C1174 C 0.40554 1.00724 0.68475 0.0
H1175 H 0.33629 0.06311 0.7753 0.0
H1176 H 0.36586 0.05825 0.73833 0.0
H1177 H 0.37819 1.00072 0.69784 0.0
H1178 H 0.46813 0.98211 0.67036 0.0
H1179 H 0.43864 0.98943 0.70488 0.0
H1180 H 0.42587 0.04589 0.7219 0.0
C1181 C 0.3589 0.04699 0.75454 0.0
C1182 C 0.38846 0.01065 0.70409 0.0
C1183 C 0.3419 0.04979 0.77561 0.0
C1184 C 0.4624 0.99507 0.66249 0.0
C1185 C 0.44551 0.99923 0.68194 0.0
C1186 C 0.4155 0.03601 0.7163 0.0
C1187 C 0.36659 0.02983 0.75341 0.0
C1188 C 0.38468 0.02665 0.73076 0.0
C1189 C 0.43753 0.01579 0.6717 0.0
C1190 C 0.41928 0.01981 0.69097 0.0
H1191 H 0.33273 1.00713 0.8108 0.0
H1192 H 0.36236 1.00228 0.77537 0.0
H1193 H 0.39616 0.05173 0.75695 0.0
H1194 H 0.47039 0.03349 0.59774 0.0
H1195 H 0.441 0.04099 0.63302 0.0
C1196 C 0.46071 0.34197 0.80799 0.0
C1197 C 0.4742 0.33324 0.83567 0.0
C1198 C 0.46423 0.35799 0.78281 0.0
C1199 C 0.49676 0.39541 0.77824 0.0
H1200 H 0.47573 0.40361 0.6445 0.0
C1201 C 0.51841 0.45425 0.65186 0.0
C1202 C 0.5047 0.46422 0.62902 0.0
C1203 C 0.51471 0.43796 0.67522 0.0
C1204 C 0.48159 0.40157 0.68199 0.0
H1205 H 0.50204 0.33448 0.85811 0.0
H1206 H 0.50823 0.36225 0.81398 0.0
H1207 H 0.46909 0.37609 0.68991 0.0
H1208 H 0.47646 0.46448 0.61075 0.0
H1209 H 0.46997 0.43612 0.65195 0.0
H1210 H 0.50939 0.42082 0.77005 0.0
C1211 C 0.4948 0.35696 0.81252 0.0
C1212 C 0.47774 0.38582 0.70816 0.0
C1213 C 0.49125 0.341 0.83789 0.0
C1214 C 0.48729 0.45724 0.62859 0.0
C1215 C 0.4836 0.44091 0.65181 0.0
C1216 C 0.50068 0.4111 0.75197 0.0
C1217 C 0.48136 0.36565 0.78443 0.0
C1218 C 0.48528 0.38252 0.75667 0.0
C1219 C 0.49722 0.43121 0.67609 0.0
C1220 C 0.49315 0.41437 0.70353 0.0
H1221 H 0.44737 0.33645 0.806 0.0
H1222 H 0.45346 0.36444 0.76237 0.0
H1223 H 0.50257 0.39352 0.81586 0.0
H1224 H 0.53199 0.45917 0.65262 0.0
H1225 H 0.52556 0.43067 0.69281 0.0
C1226 C 0.19265 0.469 0.80422 0.0
C1227 C 0.20441 0.48362 0.80531 0.0
C1228 C 0.17635 0.46996 0.77791 0.0
C1229 C 0.15223 0.49638 0.67859 0.0
H1230 H 0.11011 0.47498 0.73818 0.0
C1231 C 0.08038 0.51457 0.61674 0.0
C1232 C 0.06744 0.50098 0.61433 0.0
C1233 C 0.09757 0.5111 0.63508 0.0
C1234 C 0.12179 0.48081 0.7206 0.0
H1235 H 0.20794 0.51088 0.78027 0.0
H1236 H 0.17956 0.51265 0.73511 0.0
H1237 H 0.1389 0.47169 0.78073 0.0
H1238 H 0.06311 0.4727 0.62559 0.0
H1239 H 0.09296 0.46677 0.65918 0.0
H1240 H 0.13496 0.50585 0.6191 0.0
C1241 C 0.18307 0.50024 0.75347 0.0
C1242 C 0.13834 0.47892 0.74502 0.0
C1243 C 0.19938 0.49924 0.77956 0.0
C1244 C 0.07247 0.48363 0.6286 0.0
C1245 C 0.08963 0.48021 0.64763 0.0
C1246 C 0.13566 0.49835 0.65435 0.0
C1247 C 0.17131 0.48561 0.75214 0.0
C1248 C 0.15379 0.48685 0.7247 0.0
C1249 C 0.10232 0.49397 0.65178 0.0
C1250 C 0.12019 0.49076 0.67535 0.0
H1251 H 0.19618 0.45667 0.82305 0.0
H1252 H 0.16781 0.45833 0.77722 0.0
H1253 H 0.16384 0.50235 0.66108 0.0
H1254 H 0.07718 0.52805 0.60545 0.0
H1255 H 0.10697 0.52204 0.63784 0.0
C1256 C 0.9894 0.85014 0.304 0.0
C1257 C 0.99709 0.83526 0.32822 0.0
C1258 C 0.99101 0.86729 0.3254 0.0
C1259 C 1.00019 0.89149 0.44698 0.0
H1260 H 0.01363 0.93056 0.35866 0.0
C1261 C 1.00423 0.9651 0.51858 0.0
C1262 C 0.01979 0.97427 0.50463 0.0
C1263 C 1.00026 0.94846 0.49638 0.0
C1264 C 0.00986 0.91978 0.38378 0.0
H1265 H 0.01257 0.82708 0.39443 0.0
H1266 H 0.015 0.85685 0.43207 0.0
H1267 H 1.00893 0.90079 0.32178 0.0
H1268 H 0.04375 0.97303 0.45864 0.0
H1269 H 0.03663 0.94419 0.41876 0.0
H1270 H 1.00134 0.91048 0.50891 0.0
C1271 C 1.00763 0.85518 0.39658 0.0
C1272 C 1.00703 0.90276 0.36263 0.0
C1273 C 1.00617 0.83806 0.37497 0.0
C1274 C 0.03144 0.9664 0.46892 0.0
C1275 C 0.02735 0.94994 0.44612 0.0
C1276 C 1.00283 0.90856 0.468 0.0
C1277 C 1.00019 0.87004 0.37188 0.0
C1278 C 1.00235 0.88835 0.39405 0.0
C1279 C 0.01175 0.94072 0.45971 0.0
C1280 C 1.00789 0.92285 0.43678 0.0
H1281 H 0.982 0.84856 0.26853 0.0
H1282 H 0.98491 0.8784 0.30573 0.0
H1283 H 0.99644 0.88074 0.47222 0.0
H1284 H 0.99529 0.97066 0.54721 0.0
H1285 H 0.98817 0.94166 0.50775 0.0
C1286 C 0.68266 1.00609 0.31759 0.0
C1287 C 0.69454 0.99374 0.33927 0.0
C1288 C 0.66534 1.00811 0.33678 0.0
C1289 C 0.63723 0.99835 0.45129 0.0
H1290 H 0.59853 0.01022 0.35872 0.0
C1291 C 0.56318 1.00168 0.51587 0.0
C1292 C 0.55388 0.01709 0.50116 0.0
C1293 C 0.57997 0.9978 0.49501 0.0
C1294 C 0.60923 1.00697 0.38504 0.0
H1295 H 0.6974 0.97365 0.39782 0.0
H1296 H 0.66705 0.9768 0.43063 0.0
H1297 H 0.62843 1.00513 0.32458 0.0
H1298 H 0.555 0.04082 0.45482 0.0
H1299 H 0.58415 0.03383 0.41716 0.0
H1300 H 0.61781 0.99997 0.51143 0.0
C1301 C 0.67122 0.98528 0.3995 0.0
C1302 C 0.62643 1.00413 0.36557 0.0
C1303 C 0.68864 0.98341 0.3806 0.0
C1304 C 0.56174 0.02864 0.46576 0.0
C1305 C 0.57838 0.02463 0.44423 0.0
C1306 C 0.61999 1.00098 0.47059 0.0
C1307 C 0.6593 0.99769 0.37793 0.0
C1308 C 0.64076 0.99997 0.39847 0.0
C1309 C 0.58775 1.00923 0.45889 0.0
C1310 C 0.60584 1.00551 0.43781 0.0
H1311 H 0.68687 0.01447 0.28624 0.0
H1312 H 0.6568 0.01809 0.31977 0.0
H1313 H 0.64787 0.99547 0.47812 0.0
H1314 H 0.55762 0.99279 0.54418 0.0
H1315 H 0.58687 0.98586 0.5071 0.0
C1316 C 0.56466 0.69146 0.35532 0.0
C1317 C 0.5502 0.7034 0.35348 0.0
C1318 C 0.56294 0.67492 0.37926 0.0
C1319 C 0.53414 0.6499 0.47028 0.0
H1320 H 0.5565 0.60846 0.40744 0.0
C1321 C 0.51527 0.57737 0.52079 0.0
C1322 C 0.52912 0.56479 0.5251 0.0
C1323 C 0.51874 0.59466 0.50382 0.0
C1324 C 0.55036 0.61994 0.42584 0.0
H1325 H 0.52252 0.70719 0.37488 0.0
H1326 H 0.51939 0.6783 0.41584 0.0
H1327 H 0.56072 0.63776 0.36973 0.0
H1328 H 0.5577 0.561 0.51744 0.0
H1329 H 0.56365 0.59099 0.4864 0.0
H1330 H 0.52343 0.63189 0.52569 0.0
C1331 C 0.53222 0.68184 0.3999 0.0
C1332 C 0.5528 0.63677 0.40427 0.0
C1333 C 0.53399 0.69841 0.37626 0.0
C1334 C 0.54662 0.57012 0.51328 0.0
C1335 C 0.55006 0.58735 0.49566 0.0
C1336 C 0.5316 0.63304 0.49164 0.0
C1337 C 0.54666 0.66983 0.4017 0.0
C1338 C 0.54461 0.65198 0.42594 0.0
C1339 C 0.53613 0.59978 0.49038 0.0
C1340 C 0.53957 0.61784 0.46943 0.0
H1341 H 0.57741 0.69499 0.33876 0.0
H1342 H 0.57444 0.66618 0.38059 0.0
H1343 H 0.52791 0.66132 0.48869 0.0
H1344 H 0.50165 0.5739 0.53004 0.0
H1345 H 0.5077 0.60388 0.49993 0.0
C1346 C 0.84352 0.54584 0.31634 0.0
C1347 C 0.82756 0.54858 0.34369 0.0
C1348 C 0.85991 0.54474 0.34203 0.0
C1349 C 0.87953 0.53455 0.46856 0.0
H1350 H 0.92197 0.55616 0.41143 0.0
C1351 C 0.95124 0.51548 0.53039 0.0
C1352 C 0.96417 0.52904 0.53387 0.0
C1353 C 0.93407 0.51912 0.5121 0.0
C1354 C 0.91022 0.55019 0.42821 0.0
H1355 H 0.81658 0.55283 0.41987 0.0
H1356 H 0.84509 0.55068 0.46455 0.0
H1357 H 0.8932 0.56036 0.36919 0.0
H1358 H 0.96854 0.55742 0.52475 0.0
H1359 H 0.93876 0.56367 0.49134 0.0
H1360 H 0.8966 0.5243 0.52747 0.0
C1361 C 0.84488 0.54917 0.42318 0.0
C1362 C 0.89375 0.55243 0.40365 0.0
C1363 C 0.8285 0.55037 0.39748 0.0
C1364 C 0.95919 0.54651 0.52087 0.0
C1365 C 0.94206 0.55012 0.50194 0.0
C1366 C 0.89603 0.5322 0.49293 0.0
C1367 C 0.8608 0.54627 0.39583 0.0
C1368 C 0.87821 0.54451 0.42323 0.0
C1369 C 0.92938 0.53641 0.49658 0.0
C1370 C 0.91161 0.53986 0.4728 0.0
H1371 H 0.84335 0.54411 0.27505 0.0
H1372 H 0.87186 0.54224 0.31977 0.0
H1373 H 0.86787 0.52816 0.48456 0.0
H1374 H 0.95443 0.50189 0.5407 0.0
H1375 H 0.92467 0.50822 0.50839 0.0
loop_
_geom_bond_atom_site_label_1
_geom_bond_atom_site_label_2
_geom_bond_distance
_geom_bond_site_symmetry_2
_ccdc_geom_bond_type
C0 C1 1.264 . S
C0 C5 1.479 . S
C0 C10 1.465 . S
C1 C0 1.264 . S
C1 C3 1.339 . S
C1 H28 0.931 . S
C2 C3 1.395 . S
C2 C4 1.320 . S
C3 C1 1.339 . S
C3 C2 1.395 . S
C3 H29 0.929 . S
C4 C2 1.320 . S
C4 C5 1.405 . S
C4 H30 0.930 . S
C5 C0 1.479 . S
C5 C4 1.405 . S
C5 H31 0.931 . S
U6 O7 2.454 . S
U6 O8 2.458 . S
U6 C9 2.984 . S
U6 C10 2.847 . S
U6 C23 2.882 . S
U6 O24 2.441 . S
U6 O25 2.420 . S
U6 O26 2.455 . S
U6 O27 2.449 . S
O7 U6 2.454 . S
O7 C9 1.353 . S
O8 U6 2.458 . S
O8 C9 1.286 . S
C9 U6 2.984 . S
C9 O7 1.353 . S
C9 O8 1.286 . S
C9 C11 1.363 . S
C10 C0 1.465 . S
C10 U6 2.847 . S
C10 O24 1.249 . S
C10 O25 1.202 . S
C11 C9 1.363 . S
C11 C13 1.408 . S
C11 C16 1.342 . S
C12 C13 1.310 . S
C12 C15 1.461 . S
C12 H32 0.932 . S
C13 C11 1.408 . S
C13 C12 1.310 . S
C13 H33 0.930 . S
C14 C15 1.474 . S
C14 C16 1.285 . S
C14 H34 0.929 1_554 S
C15 C12 1.461 . S
C15 C14 1.474 . S
C16 C11 1.342 . S
C16 C14 1.285 . S
C16 H35 0.930 . S
C17 C20 1.424 . S
C17 C22 1.243 1_554 S
C17 C23 1.429 . S
C18 C21 1.260 . S
C18 C22 1.477 . S
C18 H36 0.932 . S
C19 C20 1.384 1_556 S
C19 C21 1.479 . S
C19 H37 0.929 . S
C20 C17 1.424 . S
C20 C19 1.384 1_554 S
C20 H38 0.928 . S
C21 C18 1.260 . S
C21 C19 1.479 . S
C22 C17 1.243 1_556 S
C22 C18 1.477 . S
C22 H39 0.932 . S
C23 U6 2.882 . S
C23 C17 1.429 . S
C23 O26 1.301 . S
C23 O27 1.282 . S
O24 U6 2.441 . S
O24 C10 1.249 . S
O25 U6 2.420 . S
O25 C10 1.202 . S
O26 U6 2.455 . S
O26 C23 1.301 . S
O27 U6 2.449 . S
O27 C23 1.282 . S
H28 C1 0.931 . S
H29 C3 0.929 . S
H30 C4 0.930 . S
H31 C5 0.931 . S
H32 C12 0.932 . S
H33 C13 0.930 . S
H34 C14 0.929 1_556 S
H35 C16 0.930 . S
H36 C18 0.932 . S
H37 C19 0.929 . S
H38 C20 0.928 . S
H39 C22 0.932 . S
C40 C41 1.264 . S
C40 C45 1.479 . S
C40 C50 1.465 . S
C41 C40 1.264 . S
C41 C43 1.339 . S
C41 H68 0.931 . S
C42 C43 1.395 . S
C42 C44 1.320 . S
C43 C41 1.339 . S
C43 C42 1.395 . S
C43 H69 0.929 . S
C44 C42 1.320 . S
C44 C45 1.405 . S
C44 H70 0.930 . S
C45 C40 1.479 . S
C45 C44 1.405 . S
C45 H71 0.931 . S
U46 O47 2.454 . S
U46 O48 2.458 . S
U46 C49 2.984 . S
U46 C50 2.847 . S
U46 C63 2.882 . S
U46 O64 2.441 . S
U46 O65 2.420 . S
U46 O66 2.455 . S
U46 O67 2.449 . S
O47 U46 2.454 . S
O47 C49 1.353 . S
O48 U46 2.458 . S
O48 C49 1.286 . S
C49 U46 2.984 . S
C49 O47 1.353 . S
C49 O48 1.286 . S
C49 C51 1.363 . S
C50 C40 1.465 . S
C50 U46 2.847 . S
C50 O64 1.249 . S
C50 O65 1.202 . S
C51 C49 1.363 . S
C51 C53 1.408 . S
C51 C56 1.342 . S
C52 C53 1.310 . S
C52 C55 1.461 . S
C52 H72 0.932 . S
C53 C51 1.408 . S
C53 C52 1.310 . S
C53 H73 0.930 . S
C54 C55 1.474 . S
C54 C56 1.285 . S
C54 H74 0.929 1_554 S
C55 C52 1.461 . S
C55 C54 1.474 . S
C56 C51 1.342 . S
C56 C54 1.285 . S
C56 H75 0.930 . S
C57 C60 1.424 . S
C57 C62 1.245 1_554 S
C57 C63 1.428 . S
C58 C61 1.260 . S
C58 C62 1.477 . S
C58 H76 0.932 . S
C59 C60 1.384 1_556 S
C59 C61 1.479 . S
C59 H77 0.929 . S
C60 C57 1.424 . S
C60 C59 1.384 1_554 S
C60 H78 0.928 . S
C61 C58 1.260 . S
C61 C59 1.479 . S
C62 C57 1.245 1_556 S
C62 C58 1.477 . S
C62 H79 0.932 . S
C63 U46 2.882 . S
C63 C57 1.428 . S
C63 O66 1.301 . S
C63 O67 1.282 . S
O64 U46 2.441 . S
O64 C50 1.249 . S
O65 U46 2.420 . S
O65 C50 1.202 . S
O66 U46 2.455 . S
O66 C63 1.301 . S
O67 U46 2.449 . S
O67 C63 1.282 . S
H68 C41 0.931 . S
H69 C43 0.929 . S
H70 C44 0.930 . S
H71 C45 0.931 . S
H72 C52 0.932 . S
H73 C53 0.930 . S
H74 C54 0.929 1_556 S
H75 C56 0.930 . S
H76 C58 0.932 . S
H77 C59 0.929 . S
H78 C60 0.928 . S
H79 C62 0.932 . S
C80 C81 1.264 . S
C80 C85 1.479 . S
C80 C90 1.465 . S
C81 C80 1.264 . S
C81 C83 1.339 . S
C81 H108 0.931 . S
C82 C83 1.395 . S
C82 C84 1.320 . S
C83 C81 1.339 . S
C83 C82 1.395 . S
C83 H109 0.929 . S
C84 C82 1.320 . S
C84 C85 1.405 . S
C84 H110 0.930 . S
C85 C80 1.479 . S
C85 C84 1.405 . S
C85 H111 0.931 . S
U86 O87 2.454 . S
U86 O88 2.458 . S
U86 C89 2.984 . S
U86 C90 2.847 . S
U86 C103 2.882 . S
U86 O104 2.441 . S
U86 O105 2.420 . S
U86 O106 2.455 . S
U86 O107 2.449 . S
O87 U86 2.454 . S
O87 C89 1.353 . S
O88 U86 2.458 . S
O88 C89 1.286 . S
C89 U86 2.984 . S
C89 O87 1.353 . S
C89 O88 1.286 . S
C89 C91 1.363 . S
C90 C80 1.465 . S
C90 U86 2.847 . S
C90 O104 1.249 . S
C90 O105 1.202 . S
C91 C89 1.363 . S
C91 C93 1.408 . S
C91 C96 1.342 . S
C92 C93 1.310 . S
C92 C95 1.461 . S
C92 H112 0.932 . S
C93 C91 1.408 . S
C93 C92 1.310 . S
C93 H113 0.930 . S
C94 C95 1.474 . S
C94 C96 1.285 . S
C94 H114 0.929 1_554 S
C95 C92 1.461 . S
C95 C94 1.474 . S
C96 C91 1.342 . S
C96 C94 1.285 . S
C96 H115 0.930 . S
C97 C100 1.424 . S
C97 C102 1.245 1_554 S
C97 C103 1.428 . S
C98 C101 1.260 . S
C98 C102 1.477 . S
C98 H116 0.932 . S
C99 C100 1.384 1_556 S
C99 C101 1.479 . S
C99 H117 0.929 . S
C100 C97 1.424 . S
C100 C99 1.384 1_554 S
C100 H118 0.928 . S
C101 C98 1.260 . S
C101 C99 1.479 . S
C102 C97 1.245 1_556 S
C102 C98 1.477 . S
C102 H119 0.932 . S
C103 U86 2.882 . S
C103 C97 1.428 . S
C103 O106 1.301 . S
C103 O107 1.282 . S
O104 U86 2.441 . S
O104 C90 1.249 . S
O105 U86 2.420 . S
O105 C90 1.202 . S
O106 U86 2.455 . S
O106 C103 1.301 . S
O107 U86 2.449 . S
O107 C103 1.282 . S
H108 C81 0.931 . S
H109 C83 0.929 . S
H110 C84 0.930 . S
H111 C85 0.931 . S
H112 C92 0.932 . S
H113 C93 0.930 . S
H114 C94 0.929 1_556 S
H115 C96 0.930 . S
H116 C98 0.932 . S
H117 C99 0.929 . S
H118 C100 0.928 . S
H119 C102 0.932 . S
C120 C121 1.264 . S
C120 C125 1.479 . S
C120 C130 1.465 . S
C121 C120 1.264 . S
C121 C123 1.339 . S
C121 H148 0.931 . S
C122 C123 1.395 . S
C122 C124 1.320 . S
C123 C121 1.339 . S
C123 C122 1.395 . S
C123 H149 0.929 . S
C124 C122 1.320 . S
C124 C125 1.405 . S
C124 H150 0.930 . S
C125 C120 1.479 . S
C125 C124 1.405 . S
C125 H151 0.931 . S
U126 O127 2.454 . S
U126 O128 2.458 . S
U126 C129 2.984 . S
U126 C130 2.847 . S
U126 C143 2.882 . S
U126 O144 2.441 . S
U126 O145 2.420 . S
U126 O146 2.455 . S
U126 O147 2.449 . S
O127 U126 2.454 . S
O127 C129 1.353 . S
O128 U126 2.458 . S
O128 C129 1.286 . S
C129 U126 2.984 . S
C129 O127 1.353 . S
C129 O128 1.286 . S
C129 C131 1.363 . S
C130 C120 1.465 . S
C130 U126 2.847 . S
C130 O144 1.249 . S
C130 O145 1.202 . S
C131 C129 1.363 . S
C131 C133 1.408 . S
C131 C136 1.342 . S
C132 C133 1.310 . S
C132 C135 1.461 . S
C132 H152 0.932 . S
C133 C131 1.408 . S
C133 C132 1.310 . S
C133 H153 0.930 . S
C134 C135 1.474 . S
C134 C136 1.285 . S
C134 H154 0.929 1_554 S
C135 C132 1.461 . S
C135 C134 1.474 . S
C136 C131 1.342 . S
C136 C134 1.285 . S
C136 H155 0.930 . S
C137 C140 1.424 1_556 S
C137 C142 1.245 . S
C137 C143 1.428 1_556 S
C138 C141 1.260 . S
C138 C142 1.477 . S
C138 H156 0.932 . S
C139 C140 1.384 1_556 S
C139 C141 1.479 . S
C139 H157 0.929 . S
C140 C137 1.424 1_554 S
C140 C139 1.384 1_554 S
C140 H158 0.928 . S
C141 C138 1.260 . S
C141 C139 1.479 . S
C142 C137 1.245 . S
C142 C138 1.477 . S
C142 H159 0.932 . S
C143 U126 2.882 . S
C143 C137 1.428 1_554 S
C143 O146 1.301 . S
C143 O147 1.282 . S
O144 U126 2.441 . S
O144 C130 1.249 . S
O145 U126 2.420 . S
O145 C130 1.202 . S
O146 U126 2.455 . S
O146 C143 1.301 . S
O147 U126 2.449 . S
O147 C143 1.282 . S
H148 C121 0.931 . S
H149 C123 0.929 . S
H150 C124 0.930 . S
H151 C125 0.931 . S
H152 C132 0.932 . S
H153 C133 0.930 . S
H154 C134 0.929 1_556 S
H155 C136 0.930 . S
H156 C138 0.932 . S
H157 C139 0.929 . S
H158 C140 0.928 . S
H159 C142 0.932 . S
C160 C161 1.264 . S
C160 C165 1.479 . S
C160 C170 1.465 . S
C161 C160 1.264 . S
C161 C163 1.339 . S
C161 H188 0.931 . S
C162 C163 1.395 . S
C162 C164 1.320 . S
C163 C161 1.339 . S
C163 C162 1.395 . S
C163 H189 0.929 . S
C164 C162 1.320 . S
C164 C165 1.405 . S
C164 H190 0.930 . S
C165 C160 1.479 . S
C165 C164 1.405 . S
C165 H191 0.931 . S
U166 O167 2.454 1_554 S
U166 O168 2.458 . S
U166 C169 2.984 . S
U166 C170 2.847 1_554 S
U166 C183 2.882 . S
U166 O184 2.441 1_554 S
U166 O185 2.420 1_554 S
U166 O186 2.455 . S
U166 O187 2.449 . S
O167 U166 2.454 1_556 S
O167 C169 1.353 1_556 S
O168 U166 2.458 . S
O168 C169 1.286 . S
C169 U166 2.984 . S
C169 O167 1.353 1_554 S
C169 O168 1.286 . S
C169 C171 1.363 . S
C170 C160 1.465 . S
C170 U166 2.847 1_556 S
C170 O184 1.249 . S
C170 O185 1.202 . S
C171 C169 1.363 . S
C171 C173 1.408 . S
C171 C176 1.342 . S
C172 C173 1.310 . S
C172 C175 1.461 . S
C172 H192 0.932 1_554 S
C173 C171 1.408 . S
C173 C172 1.310 . S
C173 H193 0.930 1_554 S
C174 C175 1.474 . S
C174 C176 1.285 . S
C174 H194 0.929 . S
C175 C172 1.461 . S
C175 C174 1.474 . S
C176 C171 1.342 . S
C176 C174 1.285 . S
C176 H195 0.930 . S
C177 C180 1.424 . S
C177 C182 1.245 . S
C177 C183 1.428 . S
C178 C181 1.260 . S
C178 C182 1.477 . S
C178 H196 0.932 . S
C179 C180 1.384 . S
C179 C181 1.479 . S
C179 H197 0.929 . S
C180 C177 1.424 . S
C180 C179 1.384 . S
C180 H198 0.928 . S
C181 C178 1.260 . S
C181 C179 1.479 . S
C182 C177 1.245 . S
C182 C178 1.477 . S
C182 H199 0.932 . S
C183 U166 2.882 . S
C183 C177 1.428 . S
C183 O186 1.301 . S
C183 O187 1.282 . S
O184 U166 2.441 1_556 S
O184 C170 1.249 . S
O185 U166 2.420 1_556 S
O185 C170 1.202 . S
O186 U166 2.455 . S
O186 C183 1.301 . S
O187 U166 2.449 . S
O187 C183 1.282 . S
H188 C161 0.931 . S
H189 C163 0.929 . S
H190 C164 0.930 . S
H191 C165 0.931 . S
H192 C172 0.932 1_556 S
H193 C173 0.930 1_556 S
H194 C174 0.929 . S
H195 C176 0.930 . S
H196 C178 0.932 . S
H197 C179 0.929 . S
H198 C180 0.928 . S
H199 C182 0.932 . S
C200 C201 1.264 . S
C200 C205 1.479 . S
C200 C210 1.465 . S
C201 C200 1.264 . S
C201 C203 1.339 . S
C201 H228 0.931 . S
C202 C203 1.395 . S
C202 C204 1.320 . S
C203 C201 1.339 . S
C203 C202 1.395 . S
C203 H229 0.929 . S
C204 C202 1.320 . S
C204 C205 1.405 . S
C204 H230 0.930 . S
C205 C200 1.479 . S
C205 C204 1.405 . S
C205 H231 0.931 . S
U206 O207 2.451 1_554 S
U206 O208 2.468 . S
U206 C209 2.989 . S
U206 C210 2.831 1_554 S
U206 C223 2.894 . S
U206 O224 2.425 1_554 S
U206 O225 2.408 1_554 S
U206 O226 2.471 . S
U206 O227 2.455 . S
O207 U206 2.451 1_556 S
O207 C209 1.353 1_556 S
O208 U206 2.468 . S
O208 C209 1.286 . S
C209 U206 2.989 . S
C209 O207 1.353 1_554 S
C209 O208 1.286 . S
C209 C211 1.363 . S
C210 C200 1.465 . S
C210 U206 2.831 1_556 S
C210 O224 1.249 . S
C210 O225 1.202 . S
C211 C209 1.363 . S
C211 C213 1.408 . S
C211 C216 1.342 . S
C212 C213 1.310 . S
C212 C215 1.461 . S
C212 H232 0.932 1_554 S
C213 C211 1.408 . S
C213 C212 1.310 . S
C213 H233 0.930 1_554 S
C214 C215 1.474 . S
C214 C216 1.285 . S
C214 H234 0.929 . S
C215 C212 1.461 . S
C215 C214 1.474 . S
C216 C211 1.342 . S
C216 C214 1.285 . S
C216 H235 0.930 . S
C217 C220 1.424 . S
C217 C222 1.245 . S
C217 C223 1.428 . S
C218 C221 1.260 . S
C218 C222 1.477 . S
C218 H236 0.932 . S
C219 C220 1.384 . S
C219 C221 1.479 . S
C219 H237 0.929 . S
C220 C217 1.424 . S
C220 C219 1.384 . S
C220 H238 0.928 . S
C221 C218 1.260 . S
C221 C219 1.479 . S
C222 C217 1.245 . S
C222 C218 1.477 . S
C222 H239 0.932 . S
C223 U206 2.894 . S
C223 C217 1.428 . S
C223 O226 1.301 . S
C223 O227 1.282 . S
O224 U206 2.425 1_556 S
O224 C210 1.249 . S
O225 U206 2.408 1_556 S
O225 C210 1.202 . S
O226 U206 2.471 . S
O226 C223 1.301 . S
O227 U206 2.455 . S
O227 C223 1.282 . S
H228 C201 0.931 . S
H229 C203 0.929 . S
H230 C204 0.930 . S
H231 C205 0.931 . S
H232 C212 0.932 1_556 S
H233 C213 0.930 1_556 S
H234 C214 0.929 . S
H235 C216 0.930 . S
H236 C218 0.932 . S
H237 C219 0.929 . S
H238 C220 0.928 . S
H239 C222 0.932 . S
C240 C241 1.264 . S
C240 C245 1.479 . S
C240 C250 1.465 . S
C241 C240 1.264 . S
C241 C243 1.339 . S
C241 H268 0.931 . S
C242 C243 1.395 . S
C242 C244 1.320 . S
C243 C241 1.339 . S
C243 C242 1.395 . S
C243 H269 0.929 . S
C244 C242 1.320 . S
C244 C245 1.405 . S
C244 H270 0.930 . S
C245 C240 1.479 . S
C245 C244 1.405 . S
C245 H271 0.931 . S
U246 O247 2.456 . S
U246 O248 2.450 1_556 S
U246 C249 2.981 1_556 S
U246 C250 2.858 . S
U246 C263 2.874 1_556 S
U246 O264 2.452 . S
U246 O265 2.429 . S
U246 O266 2.444 1_556 S
U246 O267 2.445 1_556 S
O247 U246 2.456 . S
O247 C249 1.353 1_556 S
O248 U246 2.450 1_554 S
O248 C249 1.286 . S
C249 U246 2.981 1_554 S
C249 O247 1.353 1_554 S
C249 O248 1.286 . S
C249 C251 1.363 . S
C250 C240 1.465 . S
C250 U246 2.858 . S
C250 O264 1.249 . S
C250 O265 1.202 . S
C251 C249 1.363 . S
C251 C253 1.408 . S
C251 C256 1.342 . S
C252 C253 1.310 . S
C252 C255 1.461 . S
C252 H272 0.932 1_554 S
C253 C251 1.408 . S
C253 C252 1.310 . S
C253 H273 0.930 1_554 S
C254 C255 1.474 . S
C254 C256 1.285 . S
C254 H274 0.929 . S
C255 C252 1.461 . S
C255 C254 1.474 . S
C256 C251 1.342 . S
C256 C254 1.285 . S
C256 H275 0.930 . S
C257 C260 1.424 . S
C257 C262 1.245 . S
C257 C263 1.428 . S
C258 C261 1.260 . S
C258 C262 1.477 . S
C258 H276 0.932 . S
C259 C260 1.384 . S
C259 C261 1.479 . S
C259 H277 0.929 . S
C260 C257 1.424 . S
C260 C259 1.384 . S
C260 H278 0.928 . S
C261 C258 1.260 . S
C261 C259 1.479 . S
C262 C257 1.245 . S
C262 C258 1.477 . S
C262 H279 0.932 . S
C263 U246 2.874 1_554 S
C263 C257 1.428 . S
C263 O266 1.301 . S
C263 O267 1.282 . S
O264 U246 2.452 . S
O264 C250 1.249 . S
O265 U246 2.429 . S
O265 C250 1.202 . S
O266 U246 2.444 1_554 S
O266 C263 1.301 . S
O267 U246 2.445 1_554 S
O267 C263 1.282 . S
H268 C241 0.931 . S
H269 C243 0.929 . S
H270 C244 0.930 . S
H271 C245 0.931 . S
H272 C252 0.932 1_556 S
H273 C253 0.930 1_556 S
H274 C254 0.929 . S
H275 C256 0.930 . S
H276 C258 0.932 . S
H277 C259 0.929 . S
H278 C260 0.928 . S
H279 C262 0.932 . S
C280 C281 1.264 . S
C280 C285 1.479 . S
C280 C290 1.465 . S
C281 C280 1.264 . S
C281 C283 1.339 . S
C281 H308 0.931 . S
C282 C283 1.395 . S
C282 C284 1.320 . S
C283 C281 1.339 . S
C283 C282 1.395 . S
C283 H309 0.929 . S
C284 C282 1.320 . S
C284 C285 1.405 . S
C284 H310 0.930 . S
C285 C280 1.479 . S
C285 C284 1.405 . S
C285 H311 0.931 . S
U286 O287 2.454 1_554 S
U286 O288 2.458 . S
U286 C289 2.984 . S
U286 C290 2.847 1_554 S
U286 C303 2.882 . S
U286 O304 2.441 1_554 S
U286 O305 2.420 1_554 S
U286 O306 2.455 . S
U286 O307 2.449 . S
O287 U286 2.454 1_556 S
O287 C289 1.353 1_556 S
O288 U286 2.458 . S
O288 C289 1.286 . S
C289 U286 2.984 . S
C289 O287 1.353 1_554 S
C289 O288 1.286 . S
C289 C291 1.363 . S
C290 C280 1.465 . S
C290 U286 2.847 1_556 S
C290 O304 1.249 . S
C290 O305 1.202 . S
C291 C289 1.363 . S
C291 C293 1.408 . S
C291 C296 1.342 . S
C292 C293 1.310 . S
C292 C295 1.461 . S
C292 H312 0.932 1_554 S
C293 C291 1.408 . S
C293 C292 1.310 . S
C293 H313 0.930 1_554 S
C294 C295 1.474 . S
C294 C296 1.285 . S
C294 H314 0.929 . S
C295 C292 1.461 . S
C295 C294 1.474 . S
C296 C291 1.342 . S
C296 C294 1.285 . S
C296 H315 0.930 . S
C297 C300 1.424 . S
C297 C302 1.245 . S
C297 C303 1.428 . S
C298 C301 1.260 . S
C298 C302 1.477 . S
C298 H316 0.932 . S
C299 C300 1.384 . S
C299 C301 1.479 . S
C299 H317 0.929 . S
C300 C297 1.424 . S
C300 C299 1.384 . S
C300 H318 0.928 . S
C301 C298 1.260 . S
C301 C299 1.479 . S
C302 C297 1.245 . S
C302 C298 1.477 . S
C302 H319 0.932 . S
C303 U286 2.882 . S
C303 C297 1.428 . S
C303 O306 1.301 . S
C303 O307 1.282 . S
O304 U286 2.441 1_556 S
O304 C290 1.249 . S
O305 U286 2.420 1_556 S
O305 C290 1.202 . S
O306 U286 2.455 . S
O306 C303 1.301 . S
O307 U286 2.449 . S
O307 C303 1.282 . S
H308 C281 0.931 . S
H309 C283 0.929 . S
H310 C284 0.930 . S
H311 C285 0.931 . S
H312 C292 0.932 1_556 S
H313 C293 0.930 1_556 S
H314 C294 0.929 . S
H315 C296 0.930 . S
H316 C298 0.932 . S
H317 C299 0.929 . S
H318 C300 0.928 . S
H319 C302 0.932 . S
Tb320 N351 2.660 1_565 S
Tb320 N358 2.600 . S
Tb320 O364 2.546 . S
Tb320 O365 2.610 1_455 S
Tb320 O367 2.320 1_455 S
Tb320 O368 2.552 . S
Tb320 O369 2.413 . S
Tb320 O371 2.362 1_565 S
Tb320 O372 2.421 . S
Tb320 C384 2.833 . S
C321 C324 1.432 . S
C321 C325 1.414 . S
C321 N328 1.359 . S
C322 C324 1.417 1_565 S
C322 C326 1.432 . S
C322 C334 1.410 . S
C323 C325 1.444 1_565 S
C323 C326 1.317 . S
C323 H346 0.929 . S
C324 C321 1.432 . S
C324 C322 1.417 1_545 S
C324 N332 1.360 . S
C325 C321 1.414 . S
C325 C323 1.444 1_545 S
C325 C330 1.385 . S
C326 C322 1.432 . S
C326 C323 1.317 . S
C326 H338 0.930 . S
C327 C329 1.392 . S
C327 C330 1.370 . S
C327 H339 0.931 . S
N328 C321 1.359 . S
N328 C329 1.327 . S
N328 Tb331 2.600 . S
C329 C327 1.392 . S
C329 N328 1.327 . S
C329 H336 0.930 . S
C330 C325 1.385 . S
C330 C327 1.370 . S
C330 H349 0.930 . S
Tb331 N328 2.600 . S
Tb331 N332 2.660 . S
Tb331 O365 2.362 1_545 S
Tb331 O366 2.421 . S
Tb331 O370 2.546 . S
Tb331 O371 2.610 1_655 S
Tb331 O373 2.320 1_655 S
Tb331 O374 2.552 1_655 S
Tb331 O375 2.413 . S
Tb331 C395 2.833 . S
N332 C324 1.360 . S
N332 Tb331 2.660 . S
N332 C333 1.305 1_645 S
C333 N332 1.305 1_465 S
C333 C335 1.407 . S
C333 H340 0.930 . S
C334 C322 1.410 . S
C334 C335 1.345 1_655 S
C334 H342 0.930 . S
C335 C333 1.407 . S
C335 C334 1.345 1_455 S
C335 H337 0.930 . S
H336 C329 0.930 . S
H337 C335 0.930 . S
H338 C326 0.930 . S
H339 C327 0.931 . S
H340 C333 0.930 . S
H341 C355 0.930 1_655 S
H342 C334 0.930 . S
H343 C361 0.930 . S
H344 C352 0.930 1_655 S
H345 C359 0.931 . S
H346 C323 0.929 . S
H347 C353 0.930 . S
H348 C386 0.930 . S
H349 C330 0.930 . S
H350 C385 0.929 . S
N351 Tb320 2.660 1_545 S
N351 C352 1.305 . S
N351 C356 1.360 . S
C352 H344 0.930 1_455 S
C352 N351 1.305 . S
C352 C355 1.407 . S
C353 H347 0.930 . S
C353 C354 1.410 . S
C353 C355 1.345 . S
C354 C353 1.410 . S
C354 C356 1.417 . S
C354 C386 1.432 . S
C355 H341 0.930 1_455 S
C355 C352 1.407 . S
C355 C353 1.345 . S
C356 N351 1.360 . S
C356 C354 1.417 . S
C356 C360 1.432 . S
H357 C362 0.930 . S
N358 Tb320 2.600 . S
N358 C360 1.359 1_565 S
N358 C361 1.327 . S
C359 H345 0.931 . S
C359 C361 1.392 . S
C359 C362 1.370 . S
C360 C356 1.432 . S
C360 N358 1.359 1_545 S
C360 C363 1.414 . S
C361 H343 0.930 . S
C361 N358 1.327 . S
C361 C359 1.392 . S
C362 H357 0.930 . S
C362 C359 1.370 . S
C362 C363 1.385 1_565 S
C363 C360 1.414 . S
C363 C362 1.385 1_545 S
C363 C385 1.444 . S
O364 Tb320 2.546 . S
O364 C384 1.251 . S
O365 Tb320 2.610 1_655 S
O365 Tb331 2.362 1_565 S
O365 C376 1.283 . S
O366 Tb331 2.421 . S
O366 C383 1.262 . S
O367 Tb320 2.320 1_655 S
O367 C383 1.260 1_565 S
O368 Tb320 2.552 . S
O368 C376 1.243 1_455 S
O369 Tb320 2.413 . S
O369 C384 1.256 . S
O370 Tb331 2.546 . S
O370 C395 1.251 . S
O371 Tb320 2.362 1_545 S
O371 Tb331 2.610 1_455 S
O371 C387 1.283 . S
O372 Tb320 2.421 . S
O372 C394 1.262 1_565 S
O373 Tb331 2.320 1_455 S
O373 C394 1.260 . S
O374 Tb331 2.552 1_455 S
O374 C387 1.243 . S
O375 Tb331 2.413 . S
O375 C395 1.256 . S
C376 O365 1.283 . S
C376 O368 1.243 1_655 S
C377 C379 1.382 . S
C377 C381 1.393 . S
C377 C384 1.500 . S
C378 C379 1.400 . S
C378 C380 1.384 . S
C379 C377 1.382 . S
C379 C378 1.400 . S
C379 H396 0.930 1_455 S
C380 C378 1.384 . S
C380 C382 1.392 . S
C380 H397 0.931 . S
C381 C377 1.393 . S
C381 C382 1.401 . S
C381 H398 0.930 . S
C382 C380 1.392 . S
C382 C381 1.401 . S
C382 H399 0.930 . S
C383 O366 1.262 . S
C383 O367 1.260 1_545 S
C384 Tb320 2.833 . S
C384 O364 1.251 . S
C384 O369 1.256 . S
C384 C377 1.500 . S
C385 H350 0.929 . S
C385 C363 1.444 . S
C385 C386 1.317 . S
C386 H348 0.930 . S
C386 C354 1.432 . S
C386 C385 1.317 . S
C387 O371 1.283 . S
C387 O374 1.243 . S
C388 C389 1.385 1_655 S
C388 C392 1.393 . S
C388 C395 1.500 . S
C389 C388 1.385 1_455 S
C389 C390 1.399 1_455 S
C389 H400 0.927 . S
C390 C389 1.399 1_655 S
C390 C391 1.423 . S
C391 C390 1.423 . S
C391 C393 1.392 . S
C391 H401 0.931 . S
C392 C388 1.393 . S
C392 C393 1.401 . S
C392 H402 0.930 . S
C393 C391 1.392 . S
C393 C392 1.401 . S
C393 H403 0.930 . S
C394 O372 1.262 1_545 S
C394 O373 1.260 . S
C395 Tb331 2.833 . S
C395 O370 1.251 . S
C395 O375 1.256 . S
C395 C388 1.500 . S
H396 C379 0.930 1_655 S
H397 C380 0.931 . S
H398 C381 0.930 . S
H399 C382 0.930 . S
H400 C389 0.927 . S
H401 C391 0.931 . S
H402 C392 0.930 . S
H403 C393 0.930 . S
Tb404 N435 2.660 . S
Tb404 N442 2.600 . S
Tb404 O448 2.546 . S
Tb404 O449 2.610 1_545 S
Tb404 O451 2.320 1_545 S
Tb404 O452 2.552 . S
Tb404 O453 2.413 . S
Tb404 O455 2.362 . S
Tb404 O456 2.421 . S
Tb404 C468 2.833 . S
C405 C408 1.432 . S
C405 C409 1.414 . S
C405 N412 1.359 . S
C406 C408 1.417 . S
C406 C410 1.432 . S
C406 C418 1.410 . S
C407 C409 1.444 . S
C407 C410 1.317 . S
C407 H430 0.929 . S
C408 C405 1.432 . S
C408 C406 1.417 . S
C408 N416 1.360 . S
C409 C405 1.414 . S
C409 C407 1.444 . S
C409 C414 1.385 . S
C410 C406 1.432 . S
C410 C407 1.317 . S
C410 H422 0.930 . S
C411 C413 1.392 . S
C411 C414 1.370 . S
C411 H423 0.931 . S
N412 C405 1.359 . S
N412 C413 1.327 . S
N412 Tb415 2.600 . S
C413 C411 1.392 . S
C413 N412 1.327 . S
C413 H420 0.930 . S
C414 C409 1.385 . S
C414 C411 1.370 . S
C414 H433 0.930 . S
Tb415 N412 2.600 . S
Tb415 N416 2.660 . S
Tb415 O449 2.362 . S
Tb415 O450 2.421 . S
Tb415 O454 2.546 . S
Tb415 O455 2.610 1_565 S
Tb415 O457 2.320 1_565 S
Tb415 O458 2.552 1_565 S
Tb415 O459 2.407 1_565 S
Tb415 C479 2.833 . S
N416 C408 1.360 . S
N416 Tb415 2.660 . S
N416 C417 1.305 1_565 S
C417 N416 1.305 1_545 S
C417 C419 1.407 . S
C417 H424 0.930 . S
C418 C406 1.410 . S
C418 C419 1.345 1_565 S
C418 H426 0.930 . S
C419 C417 1.407 . S
C419 C418 1.345 1_545 S
C419 H421 0.930 . S
H420 C413 0.930 . S
H421 C419 0.930 . S
H422 C410 0.930 . S
H423 C411 0.931 . S
H424 C417 0.930 . S
H425 C439 0.930 1_565 S
H426 C418 0.930 . S
H427 C445 0.930 . S
H428 C436 0.930 1_565 S
H429 C443 0.931 . S
H430 C407 0.929 . S
H431 C437 0.930 . S
H432 C470 0.930 . S
H433 C414 0.930 . S
H434 C469 0.929 . S
N435 Tb404 2.660 . S
N435 C436 1.305 . S
N435 C440 1.360 . S
C436 H428 0.930 1_545 S
C436 N435 1.305 . S
C436 C439 1.407 . S
C437 H431 0.930 . S
C437 C438 1.410 . S
C437 C439 1.345 . S
C438 C437 1.410 . S
C438 C440 1.417 . S
C438 C470 1.432 . S
C439 H425 0.930 1_545 S
C439 C436 1.407 . S
C439 C437 1.345 . S
C440 N435 1.360 . S
C440 C438 1.417 . S
C440 C444 1.432 . S
H441 C446 0.930 . S
N442 Tb404 2.600 . S
N442 C444 1.359 . S
N442 C445 1.327 . S
C443 H429 0.931 . S
C443 C445 1.392 . S
C443 C446 1.370 . S
C444 C440 1.432 . S
C444 N442 1.359 . S
C444 C447 1.414 . S
C445 H427 0.930 . S
C445 N442 1.327 . S
C445 C443 1.392 . S
C446 H441 0.930 . S
C446 C443 1.370 . S
C446 C447 1.385 . S
C447 C444 1.414 . S
C447 C446 1.385 . S
C447 C469 1.444 . S
O448 Tb404 2.546 . S
O448 C468 1.251 . S
O449 Tb404 2.610 1_565 S
O449 Tb415 2.362 . S
O449 C460 1.283 . S
O450 Tb415 2.421 . S
O450 C467 1.262 . S
O451 Tb404 2.320 1_565 S
O451 C467 1.260 . S
O452 Tb404 2.552 . S
O452 C460 1.243 1_545 S
O453 Tb404 2.413 . S
O453 C468 1.256 . S
O454 Tb415 2.546 . S
O454 C479 1.251 . S
O455 Tb404 2.362 . S
O455 Tb415 2.610 1_545 S
O455 C471 1.283 . S
O456 Tb404 2.421 . S
O456 C478 1.262 . S
O457 Tb415 2.320 1_545 S
O457 C478 1.260 . S
O458 Tb415 2.552 1_545 S
O458 C471 1.243 . S
O459 Tb415 2.407 1_545 S
O459 C479 1.232 1_545 S
C460 O449 1.283 . S
C460 O452 1.243 1_565 S
C461 C463 1.382 . S
C461 C465 1.393 . S
C461 C468 1.500 . S
C462 C463 1.400 . S
C462 C464 1.384 . S
C463 C461 1.382 . S
C463 C462 1.400 . S
C463 H480 0.952 . S
C464 C462 1.384 . S
C464 C466 1.392 . S
C464 H481 0.931 . S
C465 C461 1.393 . S
C465 C466 1.401 . S
C465 H482 0.930 . S
C466 C464 1.392 . S
C466 C465 1.401 . S
C466 H483 0.930 . S
C467 O450 1.262 . S
C467 O451 1.260 . S
C468 Tb404 2.833 . S
C468 O448 1.251 . S
C468 O453 1.256 . S
C468 C461 1.500 . S
C469 H434 0.929 . S
C469 C447 1.444 . S
C469 C470 1.317 . S
C470 H432 0.930 . S
C470 C438 1.432 . S
C470 C469 1.317 . S
C471 O455 1.283 . S
C471 O458 1.243 . S
C472 C473 1.382 1_565 S
C472 C476 1.393 . S
C472 C479 1.500 . S
C473 C472 1.382 1_545 S
C473 C474 1.401 . S
C473 H484 0.930 . S
C474 C473 1.401 . S
C474 C475 1.376 1_545 S
C475 C474 1.376 1_565 S
C475 C477 1.392 . S
C475 H485 0.931 . S
C476 C472 1.393 . S
C476 C477 1.401 . S
C476 H486 0.930 . S
C477 C475 1.392 . S
C477 C476 1.401 . S
C477 H487 0.930 . S
C478 O456 1.262 . S
C478 O457 1.260 . S
C479 Tb415 2.833 . S
C479 O454 1.251 . S
C479 O459 1.232 1_565 S
C479 C472 1.500 . S
H480 C463 0.952 . S
H481 C464 0.931 . S
H482 C465 0.930 . S
H483 C466 0.930 . S
H484 C473 0.930 . S
H485 C475 0.931 . S
H486 C476 0.930 . S
H487 C477 0.930 . S
Tb488 N519 2.660 . S
Tb488 N526 2.600 . S
Tb488 O532 2.546 . S
Tb488 O533 2.610 . S
Tb488 O535 2.320 . S
Tb488 O536 2.552 . S
Tb488 O537 2.413 . S
Tb488 O539 2.362 . S
Tb488 O540 2.421 . S
Tb488 C552 2.833 . S
C489 C492 1.432 . S
C489 C493 1.414 . S
C489 N496 1.359 . S
C490 C492 1.417 . S
C490 C494 1.432 . S
C490 C502 1.410 . S
C491 C493 1.444 . S
C491 C494 1.317 . S
C491 H514 0.929 . S
C492 C489 1.432 . S
C492 C490 1.417 . S
C492 N500 1.360 . S
C493 C489 1.414 . S
C493 C491 1.444 . S
C493 C498 1.385 . S
C494 C490 1.432 . S
C494 C491 1.317 . S
C494 H506 0.930 . S
C495 C497 1.392 . S
C495 C498 1.370 . S
C495 H507 0.931 . S
N496 C489 1.359 . S
N496 C497 1.327 . S
N496 Tb499 2.600 . S
C497 C495 1.392 . S
C497 N496 1.327 . S
C497 H504 0.930 . S
C498 C493 1.385 . S
C498 C495 1.370 . S
C498 H517 0.930 . S
Tb499 N496 2.600 . S
Tb499 N500 2.660 . S
Tb499 O533 2.362 . S
Tb499 O534 2.421 . S
Tb499 O538 2.546 . S
Tb499 O539 2.610 . S
Tb499 O541 2.320 . S
Tb499 O542 2.552 . S
Tb499 O543 2.413 . S
Tb499 C563 2.833 . S
N500 C492 1.360 . S
N500 Tb499 2.660 . S
N500 C501 1.305 . S
C501 N500 1.305 . S
C501 C503 1.407 . S
C501 H508 0.930 . S
C502 C490 1.410 . S
C502 C503 1.345 . S
C502 H510 0.930 . S
C503 C501 1.407 . S
C503 C502 1.345 . S
C503 H505 0.930 . S
H504 C497 0.930 . S
H505 C503 0.930 . S
H506 C494 0.930 . S
H507 C495 0.931 . S
H508 C501 0.930 . S
H509 C523 0.930 . S
H510 C502 0.930 . S
H511 C529 0.930 . S
H512 C520 0.930 . S
H513 C527 0.931 . S
H514 C491 0.929 . S
H515 C521 0.930 . S
H516 C554 0.930 . S
H517 C498 0.930 . S
H518 C553 0.929 . S
N519 Tb488 2.660 . S
N519 C520 1.305 . S
N519 C524 1.360 . S
C520 H512 0.930 . S
C520 N519 1.305 . S
C520 C523 1.407 . S
C521 H515 0.930 . S
C521 C522 1.410 . S
C521 C523 1.345 . S
C522 C521 1.410 . S
C522 C524 1.417 . S
C522 C554 1.432 . S
C523 H509 0.930 . S
C523 C520 1.407 . S
C523 C521 1.345 . S
C524 N519 1.360 . S
C524 C522 1.417 . S
C524 C528 1.432 . S
H525 C530 0.930 . S
N526 Tb488 2.600 . S
N526 C528 1.359 . S
N526 C529 1.327 . S
C527 H513 0.931 . S
C527 C529 1.392 . S
C527 C530 1.370 . S
C528 C524 1.432 . S
C528 N526 1.359 . S
C528 C531 1.414 . S
C529 H511 0.930 . S
C529 N526 1.327 . S
C529 C527 1.392 . S
C530 H525 0.930 . S
C530 C527 1.370 . S
C530 C531 1.385 . S
C531 C528 1.414 . S
C531 C530 1.385 . S
C531 C553 1.444 . S
O532 Tb488 2.546 . S
O532 C552 1.251 . S
O533 Tb488 2.610 . S
O533 Tb499 2.362 . S
O533 C544 1.283 . S
O534 Tb499 2.421 . S
O534 C551 1.262 . S
O535 Tb488 2.320 . S
O535 C551 1.260 . S
O536 Tb488 2.552 . S
O536 C544 1.243 . S
O537 Tb488 2.413 . S
O537 C552 1.256 . S
O538 Tb499 2.546 . S
O538 C563 1.251 . S
O539 Tb488 2.362 . S
O539 Tb499 2.610 . S
O539 C555 1.283 . S
O540 Tb488 2.421 . S
O540 C562 1.262 . S
O541 Tb499 2.320 . S
O541 C562 1.260 . S
O542 Tb499 2.552 . S
O542 C555 1.243 . S
O543 Tb499 2.413 . S
O543 C563 1.256 . S
C544 O533 1.283 . S
C544 O536 1.243 . S
C545 C547 1.382 . S
C545 C549 1.393 . S
C545 C552 1.500 . S
C546 C547 1.400 . S
C546 C548 1.384 . S
C547 C545 1.382 . S
C547 C546 1.400 . S
C547 H564 0.930 . S
C548 C546 1.384 . S
C548 C550 1.392 . S
C548 H565 0.931 . S
C549 C545 1.393 . S
C549 C550 1.401 . S
C549 H566 0.930 . S
C550 C548 1.392 . S
C550 C549 1.401 . S
C550 H567 0.930 . S
C551 O534 1.262 . S
C551 O535 1.260 . S
C552 Tb488 2.833 . S
C552 O532 1.251 . S
C552 O537 1.256 . S
C552 C545 1.500 . S
C553 H518 0.929 . S
C553 C531 1.444 . S
C553 C554 1.317 . S
C554 H516 0.930 . S
C554 C522 1.432 . S
C554 C553 1.317 . S
C555 O539 1.283 . S
C555 O542 1.243 . S
C556 C557 1.382 . S
C556 C560 1.393 . S
C556 C563 1.500 . S
C557 C556 1.382 . S
C557 C558 1.400 . S
C557 H568 0.930 . S
C558 C557 1.400 . S
C558 C559 1.384 . S
C559 C558 1.384 . S
C559 C561 1.392 . S
C559 H569 0.931 . S
C560 C556 1.393 . S
C560 C561 1.401 . S
C560 H570 0.930 . S
C561 C559 1.392 . S
C561 C560 1.401 . S
C561 H571 0.930 . S
C562 O540 1.262 . S
C562 O541 1.260 . S
C563 Tb499 2.833 . S
C563 O538 1.251 . S
C563 O543 1.256 . S
C563 C556 1.500 . S
H564 C547 0.930 . S
H565 C548 0.931 . S
H566 C549 0.930 . S
H567 C550 0.930 . S
H568 C557 0.930 . S
H569 C559 0.931 . S
H570 C560 0.930 . S
H571 C561 0.930 . S
Tb572 N603 2.660 . S
Tb572 N610 2.600 . S
Tb572 O616 2.546 . S
Tb572 O617 2.610 . S
Tb572 O619 2.320 . S
Tb572 O620 2.552 . S
Tb572 O621 2.413 . S
Tb572 O623 2.362 . S
Tb572 O624 2.421 1_455 S
Tb572 C636 2.833 . S
C573 C576 1.432 . S
C573 C577 1.414 . S
C573 N580 1.359 . S
C574 C576 1.417 . S
C574 C578 1.432 . S
C574 C586 1.410 . S
C575 C577 1.444 . S
C575 C578 1.317 . S
C575 H598 0.929 . S
C576 C573 1.432 . S
C576 C574 1.417 . S
C576 N584 1.360 . S
C577 C573 1.414 . S
C577 C575 1.444 . S
C577 C582 1.385 . S
C578 C574 1.432 . S
C578 C575 1.317 . S
C578 H590 0.930 . S
C579 C581 1.392 . S
C579 C582 1.370 1_455 S
C579 H591 0.931 . S
N580 C573 1.359 . S
N580 C581 1.327 1_655 S
N580 Tb583 2.600 . S
C581 C579 1.392 . S
C581 N580 1.327 1_455 S
C581 H588 0.930 . S
C582 C577 1.385 . S
C582 C579 1.370 1_655 S
C582 H601 0.930 . S
Tb583 N580 2.600 . S
Tb583 N584 2.660 . S
Tb583 O617 2.362 1_655 S
Tb583 O618 2.421 1_655 S
Tb583 O622 2.546 . S
Tb583 O623 2.610 1_655 S
Tb583 O625 2.320 . S
Tb583 O626 2.552 . S
Tb583 O627 2.413 . S
Tb583 C647 2.833 . S
N584 C576 1.360 . S
N584 Tb583 2.660 . S
N584 C585 1.305 . S
C585 N584 1.305 . S
C585 C587 1.407 . S
C585 H592 0.930 . S
C586 C574 1.410 . S
C586 C587 1.345 . S
C586 H594 0.930 . S
C587 C585 1.407 . S
C587 C586 1.345 . S
C587 H589 0.930 . S
H588 C581 0.930 . S
H589 C587 0.930 . S
H590 C578 0.930 . S
H591 C579 0.931 . S
H592 C585 0.930 . S
H593 C607 0.930 . S
H594 C586 0.930 . S
H595 C613 0.920 1_655 S
H596 C604 0.930 . S
H597 C611 0.931 1_655 S
H598 C575 0.929 . S
H599 C605 0.930 . S
H600 C638 0.930 . S
H601 C582 0.930 . S
H602 C637 0.929 . S
N603 Tb572 2.660 . S
N603 C604 1.305 . S
N603 C608 1.360 . S
C604 H596 0.930 . S
C604 N603 1.305 . S
C604 C607 1.407 . S
C605 H599 0.930 . S
C605 C606 1.410 . S
C605 C607 1.345 . S
C606 C605 1.410 . S
C606 C608 1.417 . S
C606 C638 1.432 . S
C607 H593 0.930 . S
C607 C604 1.407 . S
C607 C605 1.345 . S
C608 N603 1.360 . S
C608 C606 1.417 . S
C608 C612 1.432 . S
H609 C614 0.930 . S
N610 Tb572 2.600 . S
N610 C612 1.359 . S
N610 C613 1.327 . S
C611 H597 0.931 1_455 S
C611 C613 1.392 . S
C611 C614 1.370 . S
C612 C608 1.432 . S
C612 N610 1.359 . S
C612 C615 1.414 . S
C613 H595 0.920 1_455 S
C613 N610 1.327 . S
C613 C611 1.392 . S
C614 H609 0.930 . S
C614 C611 1.370 . S
C614 C615 1.385 . S
C615 C612 1.414 . S
C615 C614 1.385 . S
C615 C637 1.444 . S
O616 Tb572 2.546 . S
O616 C636 1.251 . S
O617 Tb572 2.610 . S
O617 Tb583 2.362 1_455 S
O617 C628 1.283 . S
O618 Tb583 2.421 1_455 S
O618 C635 1.262 . S
O619 Tb572 2.320 . S
O619 C635 1.260 . S
O620 Tb572 2.552 . S
O620 C628 1.243 . S
O621 Tb572 2.413 . S
O621 C636 1.256 . S
O622 Tb583 2.546 . S
O622 C647 1.251 . S
O623 Tb572 2.362 . S
O623 Tb583 2.610 1_455 S
O623 C639 1.283 1_455 S
O624 Tb572 2.421 1_655 S
O624 C646 1.262 . S
O625 Tb583 2.320 . S
O625 C646 1.260 . S
O626 Tb583 2.552 . S
O626 C639 1.243 . S
O627 Tb583 2.413 . S
O627 C647 1.256 . S
C628 O617 1.283 . S
C628 O620 1.243 . S
C629 C631 1.382 . S
C629 C633 1.393 . S
C629 C636 1.500 . S
C630 C631 1.400 . S
C630 C632 1.384 . S
C631 C629 1.382 . S
C631 C630 1.400 . S
C631 H648 0.930 . S
C632 C630 1.384 . S
C632 C634 1.392 . S
C632 H649 0.931 . S
C633 C629 1.393 . S
C633 C634 1.401 . S
C633 H650 0.930 . S
C634 C632 1.392 . S
C634 C633 1.401 . S
C634 H651 0.930 . S
C635 O618 1.262 . S
C635 O619 1.260 . S
C636 Tb572 2.833 . S
C636 O616 1.251 . S
C636 O621 1.256 . S
C636 C629 1.500 . S
C637 H602 0.929 . S
C637 C615 1.444 . S
C637 C638 1.317 . S
C638 H600 0.930 . S
C638 C606 1.432 . S
C638 C637 1.317 . S
C639 O623 1.283 1_655 S
C639 O626 1.243 . S
C640 C641 1.382 . S
C640 C644 1.393 . S
C640 C647 1.500 . S
C641 C640 1.382 . S
C641 C642 1.400 . S
C641 H652 0.930 . S
C642 C641 1.400 . S
C642 C643 1.384 . S
C643 C642 1.384 . S
C643 C645 1.392 . S
C643 H653 0.931 . S
C644 C640 1.393 . S
C644 C645 1.401 . S
C644 H654 0.930 . S
C645 C643 1.392 . S
C645 C644 1.401 . S
C645 H655 0.930 . S
C646 O624 1.262 . S
C646 O625 1.260 . S
C647 Tb583 2.833 . S
C647 O622 1.251 . S
C647 O627 1.256 . S
C647 C640 1.500 . S
H648 C631 0.930 . S
H649 C632 0.931 . S
H650 C633 0.930 . S
H651 C634 0.930 . S
H652 C641 0.930 . S
H653 C643 0.931 . S
H654 C644 0.930 . S
H655 C645 0.930 . S
C656 C657 1.349 . S
C656 C658 1.327 . S
C656 H681 0.950 . S
C657 C656 1.349 . S
C657 C673 1.349 . S
C658 C656 1.327 . S
C658 C677 1.429 . S
C658 H682 0.950 . S
C659 C676 1.574 . S
C659 C678 1.368 . S
C659 H683 0.949 . S
H660 C664 0.949 . S
C661 C662 1.349 . S
C661 C663 1.327 . S
C661 H684 0.950 . S
C662 C661 1.349 . S
C662 C674 1.349 . S
C663 C661 1.327 . S
C663 C679 1.429 . S
C663 H685 0.950 . S
C664 H660 0.949 . S
C664 C672 1.574 . S
C664 C680 1.368 . S
H665 C673 0.950 . S
H666 C671 0.950 . S
H667 C672 0.949 . S
H668 C674 0.950 . S
H669 C675 0.950 . S
H670 C676 0.949 . S
C671 H666 0.950 . S
C671 C673 1.327 . S
C671 C677 1.429 . S
C672 C664 1.574 . S
C672 H667 0.949 . S
C672 C678 1.368 . S
C673 C657 1.349 . S
C673 H665 0.950 . S
C673 C671 1.327 . S
C674 C662 1.349 . S
C674 H668 0.950 . S
C674 C675 1.327 . S
C675 H669 0.950 . S
C675 C674 1.327 . S
C675 C679 1.429 . S
C676 C659 1.574 . S
C676 H670 0.949 . S
C676 C680 1.368 . S
C677 C658 1.429 . S
C677 C671 1.429 . S
C677 C678 1.523 . S
C678 C659 1.368 . S
C678 C672 1.368 . S
C678 C677 1.523 . S
C679 C663 1.429 . S
C679 C675 1.429 . S
C679 C680 1.523 . S
C680 C664 1.368 . S
C680 C676 1.368 . S
C680 C679 1.523 . S
H681 C656 0.950 . S
H682 C658 0.950 . S
H683 C659 0.949 . S
H684 C661 0.950 . S
H685 C663 0.950 . S
C686 C687 1.349 . S
C686 C688 1.327 . S
C686 H711 0.950 . S
C687 C686 1.349 . S
C687 C703 1.349 . S
C688 C686 1.327 . S
C688 C707 1.429 . S
C688 H712 0.950 . S
C689 C706 1.574 . S
C689 C708 1.368 . S
C689 H713 0.949 . S
H690 C694 0.949 . S
C691 C692 1.349 . S
C691 C693 1.327 . S
C691 H714 0.950 . S
C692 C691 1.349 . S
C692 C704 1.349 . S
C693 C691 1.327 . S
C693 C709 1.429 . S
C693 H715 0.950 . S
C694 H690 0.949 . S
C694 C702 1.574 . S
C694 C710 1.368 . S
H695 C703 0.950 . S
H696 C701 0.950 . S
H697 C702 0.949 . S
H698 C704 0.950 . S
H699 C705 0.950 . S
H700 C706 0.949 . S
C701 H696 0.950 . S
C701 C703 1.327 . S
C701 C707 1.429 . S
C702 C694 1.574 . S
C702 H697 0.949 . S
C702 C708 1.368 . S
C703 C687 1.349 . S
C703 H695 0.950 . S
C703 C701 1.327 . S
C704 C692 1.349 . S
C704 H698 0.950 . S
C704 C705 1.327 . S
C705 H699 0.950 . S
C705 C704 1.327 . S
C705 C709 1.429 . S
C706 C689 1.574 . S
C706 H700 0.949 . S
C706 C710 1.368 . S
C707 C688 1.429 . S
C707 C701 1.429 . S
C707 C708 1.523 . S
C708 C689 1.368 . S
C708 C702 1.368 . S
C708 C707 1.523 . S
C709 C693 1.429 . S
C709 C705 1.429 . S
C709 C710 1.523 . S
C710 C694 1.368 . S
C710 C706 1.368 . S
C710 C709 1.523 . S
H711 C686 0.950 . S
H712 C688 0.950 . S
H713 C689 0.949 . S
H714 C691 0.950 . S
H715 C693 0.950 . S
C716 C717 1.349 . S
C716 C718 1.327 . S
C716 H741 0.950 . S
C717 C716 1.349 . S
C717 C733 1.349 . S
C718 C716 1.327 . S
C718 C737 1.429 . S
C718 H742 0.950 . S
C719 C736 1.574 . S
C719 C738 1.368 . S
C719 H743 0.949 . S
H720 C724 0.949 . S
C721 C722 1.349 . S
C721 C723 1.327 . S
C721 H744 0.950 . S
C722 C721 1.349 . S
C722 C734 1.349 . S
C723 C721 1.327 . S
C723 C739 1.429 . S
C723 H745 0.950 . S
C724 H720 0.949 . S
C724 C732 1.574 . S
C724 C740 1.368 . S
H725 C733 0.950 . S
H726 C731 0.950 . S
H727 C732 0.949 . S
H728 C734 0.950 . S
H729 C735 0.950 . S
H730 C736 0.949 . S
C731 H726 0.950 . S
C731 C733 1.327 . S
C731 C737 1.429 . S
C732 C724 1.574 . S
C732 H727 0.949 . S
C732 C738 1.368 . S
C733 C717 1.349 . S
C733 H725 0.950 . S
C733 C731 1.327 . S
C734 C722 1.349 . S
C734 H728 0.950 . S
C734 C735 1.327 . S
C735 H729 0.950 . S
C735 C734 1.327 . S
C735 C739 1.429 . S
C736 C719 1.574 . S
C736 H730 0.949 . S
C736 C740 1.368 . S
C737 C718 1.429 . S
C737 C731 1.429 . S
C737 C738 1.523 . S
C738 C719 1.368 . S
C738 C732 1.368 . S
C738 C737 1.523 . S
C739 C723 1.429 . S
C739 C735 1.429 . S
C739 C740 1.523 . S
C740 C724 1.368 . S
C740 C736 1.368 . S
C740 C739 1.523 . S
H741 C716 0.950 . S
H742 C718 0.950 . S
H743 C719 0.949 . S
H744 C721 0.950 . S
H745 C723 0.950 . S
C746 C747 1.349 . S
C746 C748 1.327 . S
C746 H771 0.950 . S
C747 C746 1.349 . S
C747 C763 1.349 . S
C748 C746 1.327 . S
C748 C767 1.429 . S
C748 H772 0.950 . S
C749 C766 1.574 . S
C749 C768 1.368 . S
C749 H773 0.949 . S
H750 C754 0.949 . S
C751 C752 1.349 . S
C751 C753 1.327 . S
C751 H774 0.950 . S
C752 C751 1.349 . S
C752 C764 1.349 . S
C753 C751 1.327 . S
C753 C769 1.429 . S
C753 H775 0.950 . S
C754 H750 0.949 . S
C754 C762 1.574 . S
C754 C770 1.368 . S
H755 C763 0.950 . S
H756 C761 0.950 . S
H757 C762 0.949 . S
H758 C764 0.939 1_655 S
H759 C765 0.950 . S
H760 C766 0.949 . S
C761 H756 0.950 . S
C761 C763 1.327 . S
C761 C767 1.429 . S
C762 C754 1.574 . S
C762 H757 0.949 . S
C762 C768 1.368 . S
C763 C747 1.349 . S
C763 H755 0.950 . S
C763 C761 1.327 . S
C764 C752 1.349 . S
C764 H758 0.939 1_455 S
C764 C765 1.327 . S
C765 H759 0.950 . S
C765 C764 1.327 . S
C765 C769 1.429 . S
C766 C749 1.574 . S
C766 H760 0.949 . S
C766 C770 1.368 . S
C767 C748 1.429 . S
C767 C761 1.429 . S
C767 C768 1.523 . S
C768 C749 1.368 . S
C768 C762 1.368 . S
C768 C767 1.523 . S
C769 C753 1.429 . S
C769 C765 1.429 . S
C769 C770 1.523 . S
C770 C754 1.368 . S
C770 C766 1.368 . S
C770 C769 1.523 . S
H771 C746 0.950 . S
H772 C748 0.950 . S
H773 C749 0.949 . S
H774 C751 0.950 . S
H775 C753 0.950 . S
C776 C777 1.349 . S
C776 C778 1.327 1_554 S
C776 H801 0.950 . S
C777 C776 1.349 . S
C777 C793 1.349 1_554 S
C778 C776 1.327 1_556 S
C778 C797 1.429 . S
C778 H802 0.950 . S
C779 C796 1.574 . S
C779 C798 1.368 . S
C779 H803 0.949 . S
H780 C784 0.949 . S
C781 C782 1.349 . S
C781 C783 1.327 . S
C781 H804 0.950 . S
C782 C781 1.349 . S
C782 C794 1.356 . S
C783 C781 1.327 . S
C783 C799 1.429 . S
C783 H805 0.950 . S
C784 H780 0.949 . S
C784 C792 1.574 . S
C784 C800 1.368 . S
H785 C793 0.950 . S
H786 C791 0.950 . S
H787 C792 0.949 . S
H788 C794 0.939 1_545 S
H789 C795 0.935 1_545 S
H790 C796 0.949 . S
C791 H786 0.950 . S
C791 C793 1.327 . S
C791 C797 1.429 . S
C792 C784 1.574 . S
C792 H787 0.949 . S
C792 C798 1.368 . S
C793 C777 1.349 1_556 S
C793 H785 0.950 . S
C793 C791 1.327 . S
C794 C782 1.356 . S
C794 H788 0.939 1_565 S
C794 C795 1.332 . S
C795 H789 0.935 1_565 S
C795 C794 1.332 . S
C795 C799 1.429 . S
C796 C779 1.574 . S
C796 H790 0.949 . S
C796 C800 1.368 . S
C797 C778 1.429 . S
C797 C791 1.429 . S
C797 C798 1.523 . S
C798 C779 1.368 . S
C798 C792 1.368 . S
C798 C797 1.523 . S
C799 C783 1.429 . S
C799 C795 1.429 . S
C799 C800 1.523 . S
C800 C784 1.368 . S
C800 C796 1.368 . S
C800 C799 1.523 . S
H801 C776 0.950 . S
H802 C778 0.950 . S
H803 C779 0.949 . S
H804 C781 0.950 . S
H805 C783 0.950 . S
C806 C807 1.349 . S
C806 C808 1.327 . S
C806 H831 0.950 . S
C807 C806 1.349 . S
C807 C823 1.349 . S
C808 C806 1.327 . S
C808 C827 1.429 . S
C808 H832 0.950 . S
C809 C826 1.574 . S
C809 C828 1.368 . S
C809 H833 0.949 . S
H810 C814 0.949 . S
C811 C812 1.349 . S
C811 C813 1.327 . S
C811 H834 0.950 . S
C812 C811 1.349 . S
C812 C824 1.349 . S
C813 C811 1.327 . S
C813 C829 1.429 . S
C813 H835 0.950 . S
C814 H810 0.949 . S
C814 C822 1.574 . S
C814 C830 1.368 . S
H815 C823 0.950 1_554 S
H816 C821 0.950 . S
H817 C822 0.949 . S
H818 C824 0.950 . S
H819 C825 0.950 . S
H820 C826 0.949 . S
C821 H816 0.950 . S
C821 C823 1.327 . S
C821 C827 1.429 . S
C822 C814 1.574 . S
C822 H817 0.949 . S
C822 C828 1.368 . S
C823 C807 1.349 . S
C823 H815 0.950 1_556 S
C823 C821 1.327 . S
C824 C812 1.349 . S
C824 H818 0.950 . S
C824 C825 1.327 . S
C825 H819 0.950 . S
C825 C824 1.327 . S
C825 C829 1.429 . S
C826 C809 1.574 . S
C826 H820 0.949 . S
C826 C830 1.368 . S
C827 C808 1.429 . S
C827 C821 1.429 . S
C827 C828 1.523 . S
C828 C809 1.368 . S
C828 C822 1.368 . S
C828 C827 1.523 . S
C829 C813 1.429 . S
C829 C825 1.429 . S
C829 C830 1.523 . S
C830 C814 1.368 . S
C830 C826 1.368 . S
C830 C829 1.523 . S
H831 C806 0.950 . S
H832 C808 0.950 . S
H833 C809 0.949 . S
H834 C811 0.950 . S
H835 C813 0.950 . S
C836 C837 1.349 . S
C836 C838 1.327 . S
C836 H861 0.950 1_556 S
C837 C836 1.349 . S
C837 C853 1.349 . S
C838 C836 1.327 . S
C838 C857 1.429 . S
C838 H862 0.950 . S
C839 C856 1.574 . S
C839 C858 1.368 . S
C839 H863 0.949 . S
H840 C844 0.949 . S
C841 C842 1.349 . S
C841 C843 1.327 . S
C841 H864 0.950 . S
C842 C841 1.349 . S
C842 C854 1.349 . S
C843 C841 1.327 . S
C843 C859 1.429 . S
C843 H865 0.950 . S
C844 H840 0.949 . S
C844 C852 1.574 . S
C844 C860 1.368 . S
H845 C853 0.950 . S
H846 C851 0.950 . S
H847 C852 0.949 . S
H848 C854 0.950 . S
H849 C855 0.950 . S
H850 C856 0.949 . S
C851 H846 0.950 . S
C851 C853 1.327 . S
C851 C857 1.429 . S
C852 C844 1.574 . S
C852 H847 0.949 . S
C852 C858 1.368 . S
C853 C837 1.349 . S
C853 H845 0.950 . S
C853 C851 1.327 . S
C854 C842 1.349 . S
C854 H848 0.950 . S
C854 C855 1.327 . S
C855 H849 0.950 . S
C855 C854 1.327 . S
C855 C859 1.429 . S
C856 C839 1.574 . S
C856 H850 0.949 . S
C856 C860 1.368 . S
C857 C838 1.429 . S
C857 C851 1.429 . S
C857 C858 1.523 . S
C858 C839 1.368 . S
C858 C852 1.368 . S
C858 C857 1.523 . S
C859 C843 1.429 . S
C859 C855 1.429 . S
C859 C860 1.523 . S
C860 C844 1.368 . S
C860 C856 1.368 . S
C860 C859 1.523 . S
H861 C836 0.950 1_554 S
H862 C838 0.950 . S
H863 C839 0.949 . S
H864 C841 0.950 . S
H865 C843 0.950 . S
C866 C867 1.349 1_556 S
C866 C868 1.327 . S
C866 H891 0.950 . S
C867 C866 1.349 1_554 S
C867 C883 1.349 . S
C868 C866 1.327 . S
C868 C887 1.429 . S
C868 H892 0.950 . S
C869 C886 1.574 . S
C869 C888 1.368 . S
C869 H893 0.949 . S
H870 C874 0.949 . S
C871 C872 1.349 . S
C871 C873 1.327 . S
C871 H894 0.950 . S
C872 C871 1.349 . S
C872 C884 1.349 . S
C873 C871 1.327 . S
C873 C889 1.429 . S
C873 H895 0.950 . S
C874 H870 0.949 . S
C874 C882 1.574 . S
C874 C890 1.368 . S
H875 C883 0.950 . S
H876 C881 0.950 . S
H877 C882 0.949 . S
H878 C884 0.950 . S
H879 C885 0.950 . S
H880 C886 0.949 . S
C881 H876 0.950 . S
C881 C883 1.327 1_556 S
C881 C887 1.429 . S
C882 C874 1.574 . S
C882 H877 0.949 . S
C882 C888 1.368 . S
C883 C867 1.349 . S
C883 H875 0.950 . S
C883 C881 1.327 1_554 S
C884 C872 1.349 . S
C884 H878 0.950 . S
C884 C885 1.327 . S
C885 H879 0.950 . S
C885 C884 1.327 . S
C885 C889 1.429 . S
C886 C869 1.574 . S
C886 H880 0.949 . S
C886 C890 1.368 . S
C887 C868 1.429 . S
C887 C881 1.429 . S
C887 C888 1.523 . S
C888 C869 1.368 . S
C888 C882 1.368 . S
C888 C887 1.523 . S
C889 C873 1.429 . S
C889 C885 1.429 . S
C889 C890 1.523 . S
C890 C874 1.368 . S
C890 C886 1.368 . S
C890 C889 1.523 . S
H891 C866 0.950 . S
H892 C868 0.950 . S
H893 C869 0.949 . S
H894 C871 0.950 . S
H895 C873 0.950 . S
C896 C897 1.349 . S
C896 C898 1.327 . S
C896 H921 0.950 . S
C897 C896 1.349 . S
C897 C913 1.349 . S
C898 C896 1.327 . S
C898 C917 1.429 . S
C898 H922 0.950 . S
C899 C916 1.574 . S
C899 C918 1.368 . S
C899 H923 0.949 . S
H900 C904 0.949 . S
C901 C902 1.349 1_655 S
C901 C903 1.327 1_655 S
C901 H924 0.950 . S
C902 C901 1.349 1_455 S
C902 C914 1.349 . S
C903 C901 1.327 1_455 S
C903 C919 1.429 . S
C903 H925 0.962 . S
C904 H900 0.949 . S
C904 C912 1.574 . S
C904 C920 1.368 . S
H905 C913 0.950 . S
H906 C911 0.950 . S
H907 C912 0.949 . S
H908 C914 0.950 . S
H909 C915 0.950 . S
H910 C916 0.949 . S
C911 H906 0.950 . S
C911 C913 1.327 . S
C911 C917 1.429 . S
C912 C904 1.574 . S
C912 H907 0.949 . S
C912 C918 1.368 . S
C913 C897 1.349 . S
C913 H905 0.950 . S
C913 C911 1.327 . S
C914 C902 1.349 . S
C914 H908 0.950 . S
C914 C915 1.327 . S
C915 H909 0.950 . S
C915 C914 1.327 . S
C915 C919 1.429 . S
C916 C899 1.574 . S
C916 H910 0.949 . S
C916 C920 1.368 . S
C917 C898 1.429 . S
C917 C911 1.429 . S
C917 C918 1.523 . S
C918 C899 1.368 . S
C918 C912 1.368 . S
C918 C917 1.523 . S
C919 C903 1.429 . S
C919 C915 1.429 . S
C919 C920 1.523 . S
C920 C904 1.368 . S
C920 C916 1.368 . S
C920 C919 1.523 . S
H921 C896 0.950 . S
H922 C898 0.950 . S
H923 C899 0.949 . S
H924 C901 0.950 . S
H925 C903 0.962 . S
C926 C927 1.349 . S
C926 C928 1.327 . S
C926 H951 0.950 . S
C927 C926 1.349 . S
C927 C943 1.349 . S
C928 C926 1.327 . S
C928 C947 1.429 . S
C928 H952 0.950 . S
C929 C946 1.574 . S
C929 C948 1.368 . S
C929 H953 0.949 . S
H930 C934 0.949 . S
C931 C932 1.349 . S
C931 C933 1.327 . S
C931 H954 0.950 . S
C932 C931 1.349 . S
C932 C944 1.344 1_545 S
C933 C931 1.327 . S
C933 C949 1.429 . S
C933 H955 0.950 . S
C934 H930 0.949 . S
C934 C942 1.574 . S
C934 C950 1.368 . S
H935 C943 0.950 . S
H936 C941 0.950 . S
H937 C942 0.949 . S
H938 C944 0.961 . S
H939 C945 0.950 . S
H940 C946 0.949 . S
C941 H936 0.950 . S
C941 C943 1.327 . S
C941 C947 1.429 . S
C942 C934 1.574 . S
C942 H937 0.949 . S
C942 C948 1.368 . S
C943 C927 1.349 . S
C943 H935 0.950 . S
C943 C941 1.327 . S
C944 C932 1.344 1_565 S
C944 H938 0.961 . S
C944 C945 1.321 1_565 S
C945 H939 0.950 . S
C945 C944 1.321 1_545 S
C945 C949 1.429 . S
C946 C929 1.574 . S
C946 H940 0.949 . S
C946 C950 1.368 . S
C947 C928 1.429 . S
C947 C941 1.429 . S
C947 C948 1.523 . S
C948 C929 1.368 . S
C948 C942 1.368 . S
C948 C947 1.523 . S
C949 C933 1.429 . S
C949 C945 1.429 . S
C949 C950 1.523 . S
C950 C934 1.368 . S
C950 C946 1.368 . S
C950 C949 1.523 . S
H951 C926 0.950 . S
H952 C928 0.950 . S
H953 C929 0.949 . S
H954 C931 0.950 . S
H955 C933 0.950 . S
C956 C957 1.349 . S
C956 C958 1.327 . S
C956 H981 0.950 . S
C957 C956 1.349 . S
C957 C973 1.349 . S
C958 C956 1.327 . S
C958 C977 1.429 . S
C958 H982 0.950 . S
C959 C976 1.574 . S
C959 C978 1.368 . S
C959 H983 0.949 . S
H960 C964 0.949 . S
C961 C962 1.349 . S
C961 C963 1.327 . S
C961 H984 0.950 . S
C962 C961 1.349 . S
C962 C974 1.349 . S
C963 C961 1.327 . S
C963 C979 1.429 . S
C963 H985 0.950 . S
C964 H960 0.949 . S
C964 C972 1.574 . S
C964 C980 1.368 . S
H965 C973 0.950 . S
H966 C971 0.950 . S
H967 C972 0.949 . S
H968 C974 0.950 . S
H969 C975 0.950 . S
H970 C976 0.949 . S
C971 H966 0.950 . S
C971 C973 1.327 . S
C971 C977 1.429 . S
C972 C964 1.574 . S
C972 H967 0.949 . S
C972 C978 1.368 . S
C973 C957 1.349 . S
C973 H965 0.950 . S
C973 C971 1.327 . S
C974 C962 1.349 . S
C974 H968 0.950 . S
C974 C975 1.327 . S
C975 H969 0.950 . S
C975 C974 1.327 . S
C975 C979 1.429 . S
C976 C959 1.574 . S
C976 H970 0.949 . S
C976 C980 1.368 . S
C977 C958 1.429 . S
C977 C971 1.429 . S
C977 C978 1.523 . S
C978 C959 1.368 . S
C978 C972 1.368 . S
C978 C977 1.523 . S
C979 C963 1.429 . S
C979 C975 1.429 . S
C979 C980 1.523 . S
C980 C964 1.368 . S
C980 C976 1.368 . S
C980 C979 1.523 . S
H981 C956 0.950 . S
H982 C958 0.950 . S
H983 C959 0.949 . S
H984 C961 0.950 . S
H985 C963 0.950 . S
C986 C987 1.349 . S
C986 C988 1.327 . S
C986 H1011 0.950 . S
C987 C986 1.349 . S
C987 C1003 1.349 . S
C988 C986 1.327 . S
C988 C1007 1.429 . S
C988 H1012 0.950 . S
C989 C1006 1.574 . S
C989 C1008 1.368 . S
C989 H1013 0.949 . S
H990 C994 0.949 . S
C991 C992 1.349 . S
C991 C993 1.327 . S
C991 H1014 0.950 . S
C992 C991 1.349 . S
C992 C1004 1.349 . S
C993 C991 1.327 . S
C993 C1009 1.429 . S
C993 H1015 0.950 . S
C994 H990 0.949 . S
C994 C1002 1.574 . S
C994 C1010 1.368 . S
H995 C1003 0.950 . S
H996 C1001 0.950 . S
H997 C1002 0.949 . S
H998 C1004 0.950 . S
H999 C1005 0.950 . S
H1000 C1006 0.949 . S
C1001 H996 0.950 . S
C1001 C1003 1.327 . S
C1001 C1007 1.429 . S
C1002 C994 1.574 . S
C1002 H997 0.949 . S
C1002 C1008 1.368 . S
C1003 C987 1.349 . S
C1003 H995 0.950 . S
C1003 C1001 1.327 . S
C1004 C992 1.349 . S
C1004 H998 0.950 . S
C1004 C1005 1.327 . S
C1005 H999 0.950 . S
C1005 C1004 1.327 . S
C1005 C1009 1.429 . S
C1006 C989 1.574 . S
C1006 H1000 0.949 . S
C1006 C1010 1.368 . S
C1007 C988 1.429 . S
C1007 C1001 1.429 . S
C1007 C1008 1.523 . S
C1008 C989 1.368 . S
C1008 C1002 1.368 . S
C1008 C1007 1.523 . S
C1009 C993 1.429 . S
C1009 C1005 1.429 . S
C1009 C1010 1.523 . S
C1010 C994 1.368 . S
C1010 C1006 1.368 . S
C1010 C1009 1.523 . S
H1011 C986 0.950 . S
H1012 C988 0.950 . S
H1013 C989 0.949 . S
H1014 C991 0.950 . S
H1015 C993 0.950 . S
C1016 C1017 1.349 . S
C1016 C1018 1.327 . S
C1016 H1041 0.950 . S
C1017 C1016 1.349 . S
C1017 C1033 1.349 . S
C1018 C1016 1.327 . S
C1018 C1037 1.429 . S
C1018 H1042 0.950 . S
C1019 C1036 1.574 . S
C1019 C1038 1.368 . S
C1019 H1043 0.949 . S
H1020 C1024 0.949 . S
C1021 C1022 1.349 1_655 S
C1021 C1023 1.327 . S
C1021 H1044 0.950 . S
C1022 C1021 1.349 1_455 S
C1022 C1034 1.349 . S
C1023 C1021 1.327 . S
C1023 C1039 1.429 . S
C1023 H1045 0.950 . S
C1024 H1020 0.949 . S
C1024 C1032 1.574 . S
C1024 C1040 1.368 . S
H1025 C1033 0.950 . S
H1026 C1031 0.950 . S
H1027 C1032 0.949 . S
H1028 C1034 0.950 . S
H1029 C1035 0.934 1_455 S
H1030 C1036 0.949 . S
C1031 H1026 0.950 . S
C1031 C1033 1.327 . S
C1031 C1037 1.429 . S
C1032 C1024 1.574 . S
C1032 H1027 0.949 . S
C1032 C1038 1.368 . S
C1033 C1017 1.349 . S
C1033 H1025 0.950 . S
C1033 C1031 1.327 . S
C1034 C1022 1.349 . S
C1034 H1028 0.950 . S
C1034 C1035 1.298 1_455 S
C1035 H1029 0.934 1_655 S
C1035 C1034 1.298 1_655 S
C1035 C1039 1.477 . S
C1036 C1019 1.574 . S
C1036 H1030 0.949 . S
C1036 C1040 1.368 . S
C1037 C1018 1.429 . S
C1037 C1031 1.429 . S
C1037 C1038 1.523 . S
C1038 C1019 1.368 . S
C1038 C1032 1.368 . S
C1038 C1037 1.523 . S
C1039 C1023 1.429 . S
C1039 C1035 1.477 . S
C1039 C1040 1.523 . S
C1040 C1024 1.368 . S
C1040 C1036 1.368 . S
C1040 C1039 1.523 . S
H1041 C1016 0.950 . S
H1042 C1018 0.950 . S
H1043 C1019 0.949 . S
H1044 C1021 0.950 . S
H1045 C1023 0.950 . S
C1046 C1047 1.349 . S
C1046 C1048 1.327 . S
C1046 H1071 0.950 . S
C1047 C1046 1.349 . S
C1047 C1063 1.349 . S
C1048 C1046 1.327 . S
C1048 C1067 1.429 . S
C1048 H1072 0.950 . S
C1049 C1066 1.574 . S
C1049 C1068 1.368 . S
C1049 H1073 0.949 . S
H1050 C1054 0.949 . S
C1051 C1052 1.349 . S
C1051 C1053 1.327 . S
C1051 H1074 0.950 . S
C1052 C1051 1.349 . S
C1052 C1064 1.349 1_545 S
C1053 C1051 1.327 . S
C1053 C1069 1.429 1_545 S
C1053 H1075 0.950 . S
C1054 H1050 0.949 . S
C1054 C1062 1.574 . S
C1054 C1070 1.368 . S
H1055 C1063 0.950 . S
H1056 C1061 0.950 . S
H1057 C1062 0.949 . S
H1058 C1064 0.950 . S
H1059 C1065 0.950 . S
H1060 C1066 0.949 1_545 S
C1061 H1056 0.950 . S
C1061 C1063 1.327 . S
C1061 C1067 1.429 . S
C1062 C1054 1.574 . S
C1062 H1057 0.949 . S
C1062 C1068 1.368 . S
C1063 C1047 1.349 . S
C1063 H1055 0.950 . S
C1063 C1061 1.327 . S
C1064 C1052 1.349 1_565 S
C1064 H1058 0.950 . S
C1064 C1065 1.327 . S
C1065 H1059 0.950 . S
C1065 C1064 1.327 . S
C1065 C1069 1.429 . S
C1066 C1049 1.574 . S
C1066 H1060 0.949 1_565 S
C1066 C1070 1.368 . S
C1067 C1048 1.429 . S
C1067 C1061 1.429 . S
C1067 C1068 1.523 . S
C1068 C1049 1.368 . S
C1068 C1062 1.368 . S
C1068 C1067 1.523 . S
C1069 C1053 1.429 1_565 S
C1069 C1065 1.429 . S
C1069 C1070 1.523 . S
C1070 C1054 1.368 . S
C1070 C1066 1.368 . S
C1070 C1069 1.523 . S
H1071 C1046 0.950 . S
H1072 C1048 0.950 . S
H1073 C1049 0.949 . S
H1074 C1051 0.950 . S
H1075 C1053 0.950 . S
C1076 C1077 1.349 . S
C1076 C1078 1.327 . S
C1076 H1101 0.950 . S
C1077 C1076 1.349 . S
C1077 C1093 1.349 . S
C1078 C1076 1.327 . S
C1078 C1097 1.429 . S
C1078 H1102 0.950 . S
C1079 C1096 1.574 . S
C1079 C1098 1.368 . S
C1079 H1103 0.949 . S
H1080 C1084 0.949 . S
C1081 C1082 1.349 . S
C1081 C1083 1.327 . S
C1081 H1104 0.950 . S
C1082 C1081 1.349 . S
C1082 C1094 1.349 . S
C1083 C1081 1.327 . S
C1083 C1099 1.429 . S
C1083 H1105 0.950 . S
C1084 H1080 0.949 . S
C1084 C1092 1.574 . S
C1084 C1100 1.368 . S
H1085 C1093 0.950 . S
H1086 C1091 0.950 . S
H1087 C1092 0.949 . S
H1088 C1094 0.950 . S
H1089 C1095 0.950 . S
H1090 C1096 0.949 . S
C1091 H1086 0.950 . S
C1091 C1093 1.327 . S
C1091 C1097 1.429 . S
C1092 C1084 1.574 . S
C1092 H1087 0.949 . S
C1092 C1098 1.368 . S
C1093 C1077 1.349 . S
C1093 H1085 0.950 . S
C1093 C1091 1.327 . S
C1094 C1082 1.349 . S
C1094 H1088 0.950 . S
C1094 C1095 1.327 . S
C1095 H1089 0.950 . S
C1095 C1094 1.327 . S
C1095 C1099 1.429 . S
C1096 C1079 1.574 . S
C1096 H1090 0.949 . S
C1096 C1100 1.368 . S
C1097 C1078 1.429 . S
C1097 C1091 1.429 . S
C1097 C1098 1.523 . S
C1098 C1079 1.368 . S
C1098 C1092 1.368 . S
C1098 C1097 1.523 . S
C1099 C1083 1.429 . S
C1099 C1095 1.429 . S
C1099 C1100 1.523 . S
C1100 C1084 1.368 . S
C1100 C1096 1.368 . S
C1100 C1099 1.523 . S
H1101 C1076 0.950 . S
H1102 C1078 0.950 . S
H1103 C1079 0.949 . S
H1104 C1081 0.950 . S
H1105 C1083 0.950 . S
C1106 C1107 1.349 . S
C1106 C1108 1.327 . S
C1106 H1131 0.950 . S
C1107 C1106 1.349 . S
C1107 C1123 1.349 . S
C1108 C1106 1.327 . S
C1108 C1127 1.429 . S
C1108 H1132 0.950 . S
C1109 C1126 1.574 . S
C1109 C1128 1.368 . S
C1109 H1133 0.949 . S
H1110 C1114 0.949 . S
C1111 C1112 1.349 . S
C1111 C1113 1.327 . S
C1111 H1134 0.950 . S
C1112 C1111 1.349 . S
C1112 C1124 1.349 . S
C1113 C1111 1.327 . S
C1113 C1129 1.429 . S
C1113 H1135 0.950 . S
C1114 H1110 0.949 . S
C1114 C1122 1.574 . S
C1114 C1130 1.368 . S
H1115 C1123 0.950 . S
H1116 C1121 0.950 . S
H1117 C1122 0.949 . S
H1118 C1124 0.950 . S
H1119 C1125 0.950 . S
H1120 C1126 0.949 . S
C1121 H1116 0.950 . S
C1121 C1123 1.327 . S
C1121 C1127 1.429 . S
C1122 C1114 1.574 . S
C1122 H1117 0.949 . S
C1122 C1128 1.368 . S
C1123 C1107 1.349 . S
C1123 H1115 0.950 . S
C1123 C1121 1.327 . S
C1124 C1112 1.349 . S
C1124 H1118 0.950 . S
C1124 C1125 1.327 . S
C1125 H1119 0.950 . S
C1125 C1124 1.327 . S
C1125 C1129 1.429 . S
C1126 C1109 1.574 . S
C1126 H1120 0.949 . S
C1126 C1130 1.368 . S
C1127 C1108 1.429 . S
C1127 C1121 1.429 . S
C1127 C1128 1.523 . S
C1128 C1109 1.368 . S
C1128 C1122 1.368 . S
C1128 C1127 1.523 . S
C1129 C1113 1.429 . S
C1129 C1125 1.429 . S
C1129 C1130 1.523 . S
C1130 C1114 1.368 . S
C1130 C1126 1.368 . S
C1130 C1129 1.523 . S
H1131 C1106 0.950 . S
H1132 C1108 0.950 . S
H1133 C1109 0.949 . S
H1134 C1111 0.950 . S
H1135 C1113 0.950 . S
C1136 C1137 1.349 . S
C1136 C1138 1.327 . S
C1136 H1161 0.950 . S
C1137 C1136 1.349 . S
C1137 C1153 1.349 . S
C1138 C1136 1.327 . S
C1138 C1157 1.429 . S
C1138 H1162 0.950 . S
C1139 C1156 1.574 . S
C1139 C1158 1.368 . S
C1139 H1163 0.949 . S
H1140 C1144 0.949 . S
C1141 C1142 1.349 . S
C1141 C1143 1.327 . S
C1141 H1164 0.950 . S
C1142 C1141 1.349 . S
C1142 C1154 1.349 . S
C1143 C1141 1.327 . S
C1143 C1159 1.429 . S
C1143 H1165 0.950 . S
C1144 H1140 0.949 . S
C1144 C1152 1.574 . S
C1144 C1160 1.368 . S
H1145 C1153 0.950 . S
H1146 C1151 0.950 . S
H1147 C1152 0.949 . S
H1148 C1154 0.950 . S
H1149 C1155 0.950 . S
H1150 C1156 0.949 . S
C1151 H1146 0.950 . S
C1151 C1153 1.327 . S
C1151 C1157 1.429 . S
C1152 C1144 1.574 . S
C1152 H1147 0.949 . S
C1152 C1158 1.368 . S
C1153 C1137 1.349 . S
C1153 H1145 0.950 . S
C1153 C1151 1.327 . S
C1154 C1142 1.349 . S
C1154 H1148 0.950 . S
C1154 C1155 1.327 . S
C1155 H1149 0.950 . S
C1155 C1154 1.327 . S
C1155 C1159 1.429 . S
C1156 C1139 1.574 . S
C1156 H1150 0.949 . S
C1156 C1160 1.368 . S
C1157 C1138 1.429 . S
C1157 C1151 1.429 . S
C1157 C1158 1.523 . S
C1158 C1139 1.368 . S
C1158 C1152 1.368 . S
C1158 C1157 1.523 . S
C1159 C1143 1.429 . S
C1159 C1155 1.429 . S
C1159 C1160 1.523 . S
C1160 C1144 1.368 . S
C1160 C1156 1.368 . S
C1160 C1159 1.523 . S
H1161 C1136 0.950 . S
H1162 C1138 0.950 . S
H1163 C1139 0.949 . S
H1164 C1141 0.950 . S
H1165 C1143 0.950 . S
C1166 C1167 1.349 . S
C1166 C1168 1.327 . S
C1166 H1191 0.950 . S
C1167 C1166 1.349 . S
C1167 C1183 1.349 . S
C1168 C1166 1.327 . S
C1168 C1187 1.429 . S
C1168 H1192 0.950 . S
C1169 C1186 1.574 . S
C1169 C1188 1.368 . S
C1169 H1193 0.949 . S
H1170 C1174 0.949 . S
C1171 C1172 1.349 . S
C1171 C1173 1.327 . S
C1171 H1194 0.950 . S
C1172 C1171 1.349 . S
C1172 C1184 1.349 . S
C1173 C1171 1.327 . S
C1173 C1189 1.429 . S
C1173 H1195 0.950 . S
C1174 H1170 0.949 . S
C1174 C1182 1.574 . S
C1174 C1190 1.368 . S
H1175 C1183 0.950 . S
H1176 C1181 0.950 . S
H1177 C1182 0.949 . S
H1178 C1184 0.950 . S
H1179 C1185 0.950 . S
H1180 C1186 0.949 . S
C1181 H1176 0.950 . S
C1181 C1183 1.327 . S
C1181 C1187 1.429 . S
C1182 C1174 1.574 . S
C1182 H1177 0.949 . S
C1182 C1188 1.368 . S
C1183 C1167 1.349 . S
C1183 H1175 0.950 . S
C1183 C1181 1.327 . S
C1184 C1172 1.349 . S
C1184 H1178 0.950 . S
C1184 C1185 1.327 . S
C1185 H1179 0.950 . S
C1185 C1184 1.327 . S
C1185 C1189 1.429 . S
C1186 C1169 1.574 . S
C1186 H1180 0.949 . S
C1186 C1190 1.368 . S
C1187 C1168 1.429 . S
C1187 C1181 1.429 . S
C1187 C1188 1.523 . S
C1188 C1169 1.368 . S
C1188 C1182 1.368 . S
C1188 C1187 1.523 . S
C1189 C1173 1.429 . S
C1189 C1185 1.429 . S
C1189 C1190 1.523 . S
C1190 C1174 1.368 . S
C1190 C1186 1.368 . S
C1190 C1189 1.523 . S
H1191 C1166 0.950 . S
H1192 C1168 0.950 . S
H1193 C1169 0.949 . S
H1194 C1171 0.950 . S
H1195 C1173 0.950 . S
C1196 C1197 1.349 . S
C1196 C1198 1.327 . S
C1196 H1221 0.950 . S
C1197 C1196 1.349 . S
C1197 C1213 1.349 . S
C1198 C1196 1.327 . S
C1198 C1217 1.429 . S
C1198 H1222 0.950 . S
C1199 C1216 1.574 . S
C1199 C1218 1.368 . S
C1199 H1223 0.949 . S
H1200 C1204 0.949 . S
C1201 C1202 1.349 . S
C1201 C1203 1.327 . S
C1201 H1224 0.950 . S
C1202 C1201 1.349 . S
C1202 C1214 1.349 . S
C1203 C1201 1.327 . S
C1203 C1219 1.429 . S
C1203 H1225 0.950 . S
C1204 H1200 0.949 . S
C1204 C1212 1.574 . S
C1204 C1220 1.368 . S
H1205 C1213 0.950 . S
H1206 C1211 0.950 . S
H1207 C1212 0.949 . S
H1208 C1214 0.950 . S
H1209 C1215 0.950 . S
H1210 C1216 0.949 . S
C1211 H1206 0.950 . S
C1211 C1213 1.327 . S
C1211 C1217 1.429 . S
C1212 C1204 1.574 . S
C1212 H1207 0.949 . S
C1212 C1218 1.368 . S
C1213 C1197 1.349 . S
C1213 H1205 0.950 . S
C1213 C1211 1.327 . S
C1214 C1202 1.349 . S
C1214 H1208 0.950 . S
C1214 C1215 1.327 . S
C1215 H1209 0.950 . S
C1215 C1214 1.327 . S
C1215 C1219 1.429 . S
C1216 C1199 1.574 . S
C1216 H1210 0.949 . S
C1216 C1220 1.368 . S
C1217 C1198 1.429 . S
C1217 C1211 1.429 . S
C1217 C1218 1.523 . S
C1218 C1199 1.368 . S
C1218 C1212 1.368 . S
C1218 C1217 1.523 . S
C1219 C1203 1.429 . S
C1219 C1215 1.429 . S
C1219 C1220 1.523 . S
C1220 C1204 1.368 . S
C1220 C1216 1.368 . S
C1220 C1219 1.523 . S
H1221 C1196 0.950 . S
H1222 C1198 0.950 . S
H1223 C1199 0.949 . S
H1224 C1201 0.950 . S
H1225 C1203 0.950 . S
C1226 C1227 1.349 . S
C1226 C1228 1.327 . S
C1226 H1251 0.950 . S
C1227 C1226 1.349 . S
C1227 C1243 1.349 . S
C1228 C1226 1.327 . S
C1228 C1247 1.429 . S
C1228 H1252 0.950 . S
C1229 C1246 1.574 . S
C1229 C1248 1.368 . S
C1229 H1253 0.949 . S
H1230 C1234 0.949 . S
C1231 C1232 1.349 . S
C1231 C1233 1.327 . S
C1231 H1254 0.950 . S
C1232 C1231 1.349 . S
C1232 C1244 1.349 . S
C1233 C1231 1.327 . S
C1233 C1249 1.429 . S
C1233 H1255 0.950 . S
C1234 H1230 0.949 . S
C1234 C1242 1.574 . S
C1234 C1250 1.368 . S
H1235 C1243 0.950 . S
H1236 C1241 0.950 . S
H1237 C1242 0.949 . S
H1238 C1244 0.950 . S
H1239 C1245 0.950 . S
H1240 C1246 0.949 . S
C1241 H1236 0.950 . S
C1241 C1243 1.327 . S
C1241 C1247 1.429 . S
C1242 C1234 1.574 . S
C1242 H1237 0.949 . S
C1242 C1248 1.368 . S
C1243 C1227 1.349 . S
C1243 H1235 0.950 . S
C1243 C1241 1.327 . S
C1244 C1232 1.349 . S
C1244 H1238 0.950 . S
C1244 C1245 1.327 . S
C1245 H1239 0.950 . S
C1245 C1244 1.327 . S
C1245 C1249 1.429 . S
C1246 C1229 1.574 . S
C1246 H1240 0.949 . S
C1246 C1250 1.368 . S
C1247 C1228 1.429 . S
C1247 C1241 1.429 . S
C1247 C1248 1.523 . S
C1248 C1229 1.368 . S
C1248 C1242 1.368 . S
C1248 C1247 1.523 . S
C1249 C1233 1.429 . S
C1249 C1245 1.429 . S
C1249 C1250 1.523 . S
C1250 C1234 1.368 . S
C1250 C1246 1.368 . S
C1250 C1249 1.523 . S
H1251 C1226 0.950 . S
H1252 C1228 0.950 . S
H1253 C1229 0.949 . S
H1254 C1231 0.950 . S
H1255 C1233 0.950 . S
C1256 C1257 1.349 . S
C1256 C1258 1.327 . S
C1256 H1281 0.950 . S
C1257 C1256 1.349 . S
C1257 C1273 1.349 . S
C1258 C1256 1.327 . S
C1258 C1277 1.429 . S
C1258 H1282 0.950 . S
C1259 C1276 1.574 . S
C1259 C1278 1.368 . S
C1259 H1283 0.949 . S
H1260 C1264 0.949 . S
C1261 C1262 1.349 . S
C1261 C1263 1.327 . S
C1261 H1284 0.950 . S
C1262 C1261 1.349 . S
C1262 C1274 1.349 . S
C1263 C1261 1.327 . S
C1263 C1279 1.429 . S
C1263 H1285 0.950 . S
C1264 H1260 0.949 . S
C1264 C1272 1.574 . S
C1264 C1280 1.368 . S
H1265 C1273 0.950 . S
H1266 C1271 0.950 . S
H1267 C1272 0.949 . S
H1268 C1274 0.950 . S
H1269 C1275 0.950 . S
H1270 C1276 0.949 . S
C1271 H1266 0.950 . S
C1271 C1273 1.327 . S
C1271 C1277 1.429 . S
C1272 C1264 1.574 . S
C1272 H1267 0.949 . S
C1272 C1278 1.368 . S
C1273 C1257 1.349 . S
C1273 H1265 0.950 . S
C1273 C1271 1.327 . S
C1274 C1262 1.349 . S
C1274 H1268 0.950 . S
C1274 C1275 1.327 . S
C1275 H1269 0.950 . S
C1275 C1274 1.327 . S
C1275 C1279 1.429 . S
C1276 C1259 1.574 . S
C1276 H1270 0.949 . S
C1276 C1280 1.368 . S
C1277 C1258 1.429 . S
C1277 C1271 1.429 . S
C1277 C1278 1.523 . S
C1278 C1259 1.368 . S
C1278 C1272 1.368 . S
C1278 C1277 1.523 . S
C1279 C1263 1.429 . S
C1279 C1275 1.429 . S
C1279 C1280 1.523 . S
C1280 C1264 1.368 . S
C1280 C1276 1.368 . S
C1280 C1279 1.523 . S
H1281 C1256 0.950 . S
H1282 C1258 0.950 . S
H1283 C1259 0.949 . S
H1284 C1261 0.950 . S
H1285 C1263 0.950 . S
C1286 C1287 1.349 . S
C1286 C1288 1.327 . S
C1286 H1311 0.950 . S
C1287 C1286 1.349 . S
C1287 C1303 1.349 . S
C1288 C1286 1.327 . S
C1288 C1307 1.429 . S
C1288 H1312 0.950 . S
C1289 C1306 1.574 . S
C1289 C1308 1.368 . S
C1289 H1313 0.949 . S
H1290 C1294 0.949 . S
C1291 C1292 1.349 . S
C1291 C1293 1.327 . S
C1291 H1314 0.950 . S
C1292 C1291 1.349 . S
C1292 C1304 1.349 . S
C1293 C1291 1.327 . S
C1293 C1309 1.429 . S
C1293 H1315 0.950 . S
C1294 H1290 0.949 . S
C1294 C1302 1.574 . S
C1294 C1310 1.368 . S
H1295 C1303 0.950 . S
H1296 C1301 0.950 . S
H1297 C1302 0.949 . S
H1298 C1304 0.950 1_545 S
H1299 C1305 0.950 . S
H1300 C1306 0.949 . S
C1301 H1296 0.950 . S
C1301 C1303 1.327 . S
C1301 C1307 1.429 . S
C1302 C1294 1.574 . S
C1302 H1297 0.949 . S
C1302 C1308 1.368 . S
C1303 C1287 1.349 . S
C1303 H1295 0.950 . S
C1303 C1301 1.327 . S
C1304 C1292 1.349 . S
C1304 H1298 0.950 1_565 S
C1304 C1305 1.327 . S
C1305 H1299 0.950 . S
C1305 C1304 1.327 . S
C1305 C1309 1.429 . S
C1306 C1289 1.574 . S
C1306 H1300 0.949 . S
C1306 C1310 1.368 . S
C1307 C1288 1.429 . S
C1307 C1301 1.429 . S
C1307 C1308 1.523 . S
C1308 C1289 1.368 . S
C1308 C1302 1.368 . S
C1308 C1307 1.523 . S
C1309 C1293 1.429 . S
C1309 C1305 1.429 . S
C1309 C1310 1.523 . S
C1310 C1294 1.368 . S
C1310 C1306 1.368 . S
C1310 C1309 1.523 . S
H1311 C1286 0.950 . S
H1312 C1288 0.950 . S
H1313 C1289 0.949 . S
H1314 C1291 0.950 . S
H1315 C1293 0.950 . S
C1316 C1317 1.349 . S
C1316 C1318 1.327 . S
C1316 H1341 0.950 . S
C1317 C1316 1.349 . S
C1317 C1333 1.349 . S
C1318 C1316 1.327 . S
C1318 C1337 1.429 . S
C1318 H1342 0.950 . S
C1319 C1336 1.574 . S
C1319 C1338 1.368 . S
C1319 H1343 0.949 . S
H1320 C1324 0.949 . S
C1321 C1322 1.349 . S
C1321 C1323 1.327 . S
C1321 H1344 0.950 . S
C1322 C1321 1.349 . S
C1322 C1334 1.349 . S
C1323 C1321 1.327 . S
C1323 C1339 1.429 . S
C1323 H1345 0.950 . S
C1324 H1320 0.949 . S
C1324 C1332 1.574 . S
C1324 C1340 1.368 . S
H1325 C1333 0.950 . S
H1326 C1331 0.950 . S
H1327 C1332 0.949 . S
H1328 C1334 0.950 . S
H1329 C1335 0.950 . S
H1330 C1336 0.949 . S
C1331 H1326 0.950 . S
C1331 C1333 1.327 . S
C1331 C1337 1.429 . S
C1332 C1324 1.574 . S
C1332 H1327 0.949 . S
C1332 C1338 1.368 . S
C1333 C1317 1.349 . S
C1333 H1325 0.950 . S
C1333 C1331 1.327 . S
C1334 C1322 1.349 . S
C1334 H1328 0.950 . S
C1334 C1335 1.327 . S
C1335 H1329 0.950 . S
C1335 C1334 1.327 . S
C1335 C1339 1.429 . S
C1336 C1319 1.574 . S
C1336 H1330 0.949 . S
C1336 C1340 1.368 . S
C1337 C1318 1.429 . S
C1337 C1331 1.429 . S
C1337 C1338 1.523 . S
C1338 C1319 1.368 . S
C1338 C1332 1.368 . S
C1338 C1337 1.523 . S
C1339 C1323 1.429 . S
C1339 C1335 1.429 . S
C1339 C1340 1.523 . S
C1340 C1324 1.368 . S
C1340 C1336 1.368 . S
C1340 C1339 1.523 . S
H1341 C1316 0.950 . S
H1342 C1318 0.950 . S
H1343 C1319 0.949 . S
H1344 C1321 0.950 . S
H1345 C1323 0.950 . S
C1346 C1347 1.349 . S
C1346 C1348 1.327 . S
C1346 H1371 0.950 . S
C1347 C1346 1.349 . S
C1347 C1363 1.349 . S
C1348 C1346 1.327 . S
C1348 C1367 1.429 . S
C1348 H1372 0.950 . S
C1349 C1366 1.574 . S
C1349 C1368 1.368 . S
C1349 H1373 0.949 . S
H1350 C1354 0.949 . S
C1351 C1352 1.349 . S
C1351 C1353 1.327 . S
C1351 H1374 0.950 . S
C1352 C1351 1.349 . S
C1352 C1364 1.349 . S
C1353 C1351 1.327 . S
C1353 C1369 1.429 . S
C1353 H1375 0.950 . S
C1354 H1350 0.949 . S
C1354 C1362 1.574 . S
C1354 C1370 1.368 . S
H1355 C1363 0.950 . S
H1356 C1361 0.950 . S
H1357 C1362 0.949 . S
H1358 C1364 0.950 . S
H1359 C1365 0.950 . S
H1360 C1366 0.949 . S
C1361 H1356 0.950 . S
C1361 C1363 1.327 . S
C1361 C1367 1.429 . S
C1362 C1354 1.574 . S
C1362 H1357 0.949 . S
C1362 C1368 1.368 . S
C1363 C1347 1.349 . S
C1363 H1355 0.950 . S
C1363 C1361 1.327 . S
C1364 C1352 1.349 . S
C1364 H1358 0.950 . S
C1364 C1365 1.327 . S
C1365 H1359 0.950 . S
C1365 C1364 1.327 . S
C1365 C1369 1.429 . S
C1366 C1349 1.574 . S
C1366 H1360 0.949 . S
C1366 C1370 1.368 . S
C1367 C1348 1.429 . S
C1367 C1361 1.429 . S
C1367 C1368 1.523 . S
C1368 C1349 1.368 . S
C1368 C1362 1.368 . S
C1368 C1367 1.523 . S
C1369 C1353 1.429 . S
C1369 C1365 1.429 . S
C1369 C1370 1.523 . S
C1370 C1354 1.368 . S
C1370 C1366 1.368 . S
C1370 C1369 1.523 . S
H1371 C1346 0.950 . S
H1372 C1348 0.950 . S
H1373 C1349 0.949 . S
H1374 C1351 0.950 . S
H1375 C1353 0.950 . S
C657 C255 2.164 . S
C662 C394 2.216 . S
C692 C478 2.257 . S
C687 C295 2.201 . S
C722 C544 2.220 . S
C717 C175 2.346 . S
C752 C628 2.193 . S
C747 C215 2.320 . S
C782 C383 2.216 1_565 S
C777 C95 2.156 . S
C807 C135 2.192 1_556 S
C812 C467 2.257 . S
C837 C15 2.337 1_556 S
C842 C555 2.220 . S
C867 C55 2.312 . S
C872 C639 2.193 . S
C902 C390 0.413 1_455 S
C897 C221 0.440 . S
C932 C474 0.425 . S
C927 C261 0.380 . S
C962 C546 0.443 . S
C957 C301 0.368 . S
C987 C181 0.412 . S
C992 C630 0.463 . S
C1017 C61 0.576 . S
C1022 C378 0.456 . S
C1052 C462 0.416 . S
C1047 C101 0.551 . S
C1082 C558 0.443 . S
C1077 C141 0.567 . S
C1107 C21 0.578 . S
C1112 C642 0.463 . S
C1137 C202 2.909 . S
C1142 C387 2.937 . S
C1167 C242 2.851 . S
C1172 C471 2.880 . S
C1202 C551 2.897 . S
C1197 C282 2.716 . S
C1232 C635 2.945 . S
C1227 C162 2.764 . S
C1257 C42 2.830 . S
C1262 C376 2.937 . S
C1292 C460 2.880 . S
C1287 C82 2.778 . S
C1322 C562 2.896 . S
C1317 C122 2.636 . S
C1347 C2 2.680 . S
C1352 C646 2.945 . S
