# Generated by pormake.
# Topology apo, (3,6)-cn, num edge types: 1
# Building blocks:
#     Node 0, Type 0, BuildingBlock: WUSLED_clean_sbu_0, # of connection points: 3
#     Node 1, Type 0, BuildingBlock: WUSLED_clean_sbu_0, # of connection points: 3
#     Node 2, Type 0, BuildingBlock: WUSLED_clean_sbu_0, # of connection points: 3
#     Node 3, Type 0, BuildingBlock: WUSLED_clean_sbu_0, # of connection points: 3
#     Node 4, Type 0, BuildingBlock: WUSLED_clean_sbu_0, # of connection points: 3
#     Node 5, Type 0, BuildingBlock: WUSLED_clean_sbu_0, # of connection points: 3
#     Node 6, Type 0, BuildingBlock: WUSLED_clean_sbu_0, # of connection points: 3
#     Node 7, Type 0, BuildingBlock: WUSLED_clean_sbu_0, # of connection points: 3
#     Node 8, Type 1, BuildingBlock: KUMJIN_clean_sbu_1, # of connection points: 6
#     Node 9, Type 1, BuildingBlock: KUMJIN_clean_sbu_1, # of connection points: 6
#     Node 10, Type 1, BuildingBlock: KUMJIN_clean_sbu_1, # of connection points: 6
#     Node 11, Type 1, BuildingBlock: KUMJIN_clean_sbu_1, # of connection points: 6
#     Edge 12, Type (0, 1), BuildingBlock: KIFKEQ_clean_linker_1, # of connection points: 2
#     Edge 13, Type (0, 1), BuildingBlock: KIFKEQ_clean_linker_1, # of connection points: 2
#     Edge 14, Type (0, 1), BuildingBlock: KIFKEQ_clean_linker_1, # of connection points: 2
#     Edge 15, Type (0, 1), BuildingBlock: KIFKEQ_clean_linker_1, # of connection points: 2
#     Edge 16, Type (0, 1), BuildingBlock: KIFKEQ_clean_linker_1, # of connection points: 2
#     Edge 17, Type (0, 1), BuildingBlock: KIFKEQ_clean_linker_1, # of connection points: 2
#     Edge 18, Type (0, 1), BuildingBlock: KIFKEQ_clean_linker_1, # of connection points: 2
#     Edge 19, Type (0, 1), BuildingBlock: KIFKEQ_clean_linker_1, # of connection points: 2
#     Edge 20, Type (0, 1), BuildingBlock: KIFKEQ_clean_linker_1, # of connection points: 2
#     Edge 21, Type (0, 1), BuildingBlock: KIFKEQ_clean_linker_1, # of connection points: 2
#     Edge 22, Type (0, 1), BuildingBlock: KIFKEQ_clean_linker_1, # of connection points: 2
#     Edge 23, Type (0, 1), BuildingBlock: KIFKEQ_clean_linker_1, # of connection points: 2
#     Edge 24, Type (0, 1), BuildingBlock: KIFKEQ_clean_linker_1, # of connection points: 2
#     Edge 25, Type (0, 1), BuildingBlock: KIFKEQ_clean_linker_1, # of connection points: 2
#     Edge 26, Type (0, 1), BuildingBlock: KIFKEQ_clean_linker_1, # of connection points: 2
#     Edge 27, Type (0, 1), BuildingBlock: KIFKEQ_clean_linker_1, # of connection points: 2
#     Edge 28, Type (0, 1), BuildingBlock: KIFKEQ_clean_linker_1, # of connection points: 2
#     Edge 29, Type (0, 1), BuildingBlock: KIFKEQ_clean_linker_1, # of connection points: 2
#     Edge 30, Type (0, 1), BuildingBlock: KIFKEQ_clean_linker_1, # of connection points: 2
#     Edge 31, Type (0, 1), BuildingBlock: KIFKEQ_clean_linker_1, # of connection points: 2
#     Edge 32, Type (0, 1), BuildingBlock: KIFKEQ_clean_linker_1, # of connection points: 2
#     Edge 33, Type (0, 1), BuildingBlock: KIFKEQ_clean_linker_1, # of connection points: 2
#     Edge 34, Type (0, 1), BuildingBlock: KIFKEQ_clean_linker_1, # of connection points: 2
#     Edge 35, Type (0, 1), BuildingBlock: KIFKEQ_clean_linker_1, # of connection points: 2
# Relax obj value: 0.010
# Max RMSD: 0.097
# Mean RMSD: 0.074
data_MOF--net-apo--node1-WUSLED_clean_sbu_0--node2-KUMJIN_clean_sbu_1--edge1-KIFKEQ_clean_linker_1
_symmetry_space_group_name_H-M    P1
_symmetry_Int_Tables_number       1
_symmetry_cell_setting            triclinic
loop_
_symmetry_equiv_pos_as_xyz
'x, y, z'
_cell_length_a     31.873633
_cell_length_b     55.978695
_cell_length_c     66.384421
_cell_angle_alpha  90.298195
_cell_angle_beta   89.954849
_cell_angle_gamma 89.882863
loop_
_atom_site_label
_atom_site_type_symbol
_atom_site_fract_x
_atom_site_fract_y
_atom_site_fract_z
_atom_type_partial_charge
C0 C 0.31334 0.42791 0.38196 0.0
C1 C 0.33399 0.44479 0.39408 0.0
C2 C 0.34576 0.47012 0.36477 0.0
C3 C 0.35007 0.46572 0.38555 0.0
C4 C 0.32488 0.45308 0.35278 0.0
C5 C 0.30885 0.43221 0.36131 0.0
U6 U 0.29596 0.38388 0.42545 0.0
O7 O 0.24016 0.36247 0.43266 0.0
O8 O 0.29935 0.34459 0.42494 0.0
C9 C 0.25905 0.34212 0.42854 0.0
C10 C 0.29671 0.40559 0.39042 0.0
C11 C 0.23653 0.32592 0.41474 0.0
C12 C 0.2011 0.31803 0.38295 0.0
C13 C 0.22238 0.33374 0.39586 0.0
C14 C 0.20832 0.28649 0.40755 0.0
C15 C 0.19386 0.29418 0.38862 0.0
C16 C 0.2294 0.30222 0.42046 0.0
C17 C 0.34075 0.39873 0.47831 0.0
C18 C 0.31773 0.38666 0.51176 0.0
C19 C 0.38822 0.40158 0.50689 0.0
C20 C 0.38011 0.40451 0.48636 0.0
C21 C 0.35704 0.39284 0.51993 0.0
C22 C 0.30968 0.38951 0.49113 0.0
C23 C 0.33267 0.40368 0.45679 0.0
O24 O 0.32494 0.38972 0.39579 0.0
O25 O 0.26616 0.40798 0.40359 0.0
O26 O 0.29359 0.4081 0.45163 0.0
O27 O 0.35268 0.3901 0.44373 0.0
H28 H 0.33771 0.44174 0.41008 0.0
H29 H 0.36556 0.47855 0.39527 0.0
H30 H 0.32156 0.45564 0.3367 0.0
H31 H 0.29316 0.41932 0.35171 0.0
H32 H 0.19084 0.32447 0.3684 0.0
H33 H 0.22786 0.35196 0.39112 0.0
H34 H 0.20285 0.26836 0.41251 0.0
H35 H 0.2401 0.29587 0.43497 0.0
H36 H 0.29316 0.37965 0.52131 0.0
H37 H 0.41862 0.40686 0.51265 0.0
H38 H 0.40447 0.41177 0.47679 0.0
H39 H 0.27906 0.38481 0.48529 0.0
C40 C 0.20743 0.15684 0.98281 0.0
C41 C 0.17527 0.1405 0.98696 0.0
C42 C 0.18088 0.14911 1.02295 0.0
C43 C 0.16202 0.13673 1.0068 0.0
C44 C 0.21333 0.16537 1.01865 0.0
C45 C 0.2264 0.1692 0.99878 0.0
U46 U 0.21502 0.1368 0.92812 0.0
O47 O 0.20591 0.1567 0.89989 0.0
O48 O 0.26634 0.13931 0.90607 0.0
C49 C 0.24479 0.15321 0.89395 0.0
C50 C 0.22143 0.16105 0.96195 0.0
C51 C 0.26679 0.17423 0.88583 0.0
C52 C 0.31751 0.20653 0.88867 0.0
C53 C 0.29579 0.18736 0.89731 0.0
C54 C 0.28089 0.19989 0.85719 0.0
C55 C 0.3104 0.21297 0.86847 0.0
C56 C 0.2594 0.18074 0.86579 0.0
C57 C 0.16589 0.07651 0.91389 0.0
C58 C 0.16446 0.0608 0.87967 0.0
C59 C 0.13156 0.03876 0.90672 0.0
C60 C 0.14364 0.05646 0.92044 0.0
C61 C 0.14147 0.04078 0.88614 0.0
C62 C 0.1765 0.07856 0.89345 0.0
C63 C 0.17694 0.09522 0.92857 0.0
O64 O 0.25095 0.1466 0.95529 0.0
O65 O 0.19132 0.16455 0.94875 0.0
O66 O 0.15705 0.11563 0.92648 0.0
O67 O 0.21718 0.09782 0.93223 0.0
H68 H 0.16025 0.13071 0.97483 0.0
H69 H 0.1366 0.12433 1.00943 0.0
H70 H 0.22907 0.17494 0.03067 0.0
H71 H 0.25145 0.18178 0.99589 0.0
H72 H 0.33967 0.21638 0.89784 0.0
H73 H 0.30186 0.18269 0.91285 0.0
H74 H 0.27504 0.2041 0.84154 0.0
H75 H 0.23729 0.17077 0.85665 0.0
H76 H 0.17228 0.06301 0.86392 0.0
H77 H 0.1145 0.02342 0.91227 0.0
H78 H 0.13535 0.05456 0.93618 0.0
H79 H 0.19365 0.094 0.88815 0.0
C80 C 0.81369 0.09868 0.66506 0.0
C81 C 0.83316 0.08086 0.6534 0.0
C82 C 0.84324 0.05643 0.6834 0.0
C83 C 0.84785 0.0599 0.6625 0.0
C84 C 0.82366 0.07444 0.69493 0.0
C85 C 0.80906 0.09532 0.68584 0.0
U86 U 0.79643 0.142 0.62074 0.0
O87 O 0.74111 0.16424 0.61427 0.0
O88 O 0.80152 0.18121 0.62088 0.0
C89 C 0.76106 0.18429 0.61809 0.0
C90 C 0.7982 0.12097 0.65606 0.0
C91 C 0.74025 0.2004 0.63259 0.0
C92 C 0.71503 0.20917 0.66643 0.0
C93 C 0.7351 0.19375 0.65279 0.0
C94 C 0.70525 0.23808 0.63981 0.0
C95 C 0.69983 0.23155 0.66011 0.0
C96 C 0.72526 0.22264 0.6262 0.0
C97 C 0.8358 0.12619 0.56737 0.0
C98 C 0.83861 0.1538 0.53919 0.0
C99 C 0.85613 0.11209 0.53406 0.0
C100 C 0.84818 0.10763 0.55442 0.0
C101 C 0.85193 0.13528 0.5262 0.0
C102 C 0.83064 0.14929 0.55961 0.0
C103 C 0.82962 0.12108 0.58893 0.0
O104 O 0.8271 0.136 0.64997 0.0
O105 O 0.76686 0.11881 0.64333 0.0
O106 O 0.79068 0.1176 0.59473 0.0
O107 O 0.85119 0.13439 0.60157 0.0
H108 H 0.83696 0.08318 0.6373 0.0
H109 H 0.8624 0.04632 0.65313 0.0
H110 H 0.8202 0.0726 0.71108 0.0
H111 H 0.79427 0.10896 0.69508 0.0
H112 H 0.71187 0.20366 0.68197 0.0
H113 H 0.74662 0.17664 0.658 0.0
H114 H 0.69344 0.25501 0.63434 0.0
H115 H 0.72887 0.22804 0.61064 0.0
H116 H 0.8354 0.1719 0.53372 0.0
H117 H 0.8656 0.09733 0.52447 0.0
H118 H 0.85212 0.08966 0.56011 0.0
H119 H 0.82107 0.16387 0.56939 0.0
C120 C 0.69335 0.35539 0.06863 0.0
C121 C 0.67145 0.37542 0.06153 0.0
C122 C 0.66819 0.35778 0.02783 0.0
C123 C 0.65894 0.3766 0.04131 0.0
C124 C 0.6904 0.33783 0.0351 0.0
C125 C 0.70282 0.33668 0.05528 0.0
U126 U 0.70076 0.38061 0.12225 0.0
O127 O 0.69066 0.36283 0.15141 0.0
O128 O 0.75192 0.37862 0.14437 0.0
C129 C 0.72967 0.36605 0.15718 0.0
C130 C 0.70601 0.3535 0.0899 0.0
C131 C 0.75072 0.34531 0.16632 0.0
C132 C 0.79901 0.31163 0.16479 0.0
C133 C 0.77753 0.33028 0.15522 0.0
C134 C 0.76632 0.32255 0.19648 0.0
C135 C 0.79403 0.30772 0.18561 0.0
C136 C 0.74499 0.34114 0.18693 0.0
C137 C 0.65769 0.44229 0.135 0.0
C138 C 0.65709 0.45732 0.16944 0.0
C139 C 0.63398 0.4827 0.14214 0.0
C140 C 0.64209 0.46427 0.12836 0.0
C141 C 0.64132 0.47945 0.16286 0.0
C142 C 0.66529 0.43891 0.15562 0.0
C143 C 0.66585 0.42306 0.12032 0.0
O144 O 0.73611 0.36799 0.09573 0.0
O145 O 0.67509 0.35213 0.10296 0.0
O146 O 0.64439 0.40332 0.12309 0.0
O147 O 0.7056 0.41913 0.11618 0.0
H148 H 0.66393 0.39008 0.07163 0.0
H149 H 0.64229 0.39233 0.03621 0.0
H150 H 0.6975 0.32285 0.02529 0.0
H151 H 0.71956 0.32103 0.06052 0.0
H152 H 0.82031 0.30068 0.15598 0.0
H153 H 0.78236 0.33319 0.13927 0.0
H154 H 0.76108 0.31981 0.21242 0.0
H155 H 0.72431 0.3525 0.19574 0.0
H156 H 0.66349 0.4543 0.18524 0.0
H157 H 0.62129 0.49936 0.13658 0.0
H158 H 0.63598 0.46716 0.1125 0.0
H159 H 0.67753 0.42203 0.16099 0.0
C160 C 0.69505 0.59481 0.66732 0.0
C161 C 0.68044 0.57585 0.65534 0.0
C162 C 0.66039 0.55379 0.68547 0.0
C163 C 0.66334 0.55547 0.66434 0.0
C164 C 0.67513 0.57291 0.69732 0.0
C165 C 0.69228 0.59319 0.68832 0.0
U166 U 0.71875 0.6367 0.62285 0.0
O167 O 0.71862 0.67597 0.62224 0.0
O168 O 0.77703 0.65635 0.6164 0.0
C169 C 0.75945 0.67727 0.61968 0.0
C170 C 0.71353 0.61637 0.65838 0.0
C171 C 0.78188 0.69311 0.63382 0.0
C172 C 0.79644 0.70697 0.6679 0.0
C173 C 0.77539 0.69152 0.65469 0.0
C174 C 0.83131 0.72544 0.63955 0.0
C175 C 0.82462 0.72417 0.66048 0.0
C176 C 0.81009 0.71008 0.62636 0.0
C177 C 0.67871 0.62131 0.56953 0.0
C178 C 0.67915 0.64824 0.54087 0.0
C179 C 0.66145 0.60655 0.53605 0.0
C180 C 0.66705 0.60256 0.55665 0.0
C181 C 0.66736 0.62944 0.52786 0.0
C182 C 0.68488 0.64419 0.56152 0.0
C183 C 0.68364 0.61654 0.59123 0.0
O184 O 0.74495 0.61283 0.64587 0.0
O185 O 0.68674 0.63254 0.65204 0.0
O186 O 0.66359 0.6311 0.60352 0.0
O187 O 0.72187 0.61148 0.59729 0.0
H188 H 0.68222 0.57684 0.63906 0.0
H189 H 0.65188 0.54118 0.65477 0.0
H190 H 0.67391 0.5721 0.71361 0.0
H191 H 0.70354 0.60763 0.69781 0.0
H192 H 0.79095 0.70532 0.68393 0.0
H193 H 0.75396 0.67839 0.66076 0.0
H194 H 0.8524 0.73863 0.63331 0.0
H195 H 0.81551 0.71156 0.6103 0.0
H196 H 0.68446 0.66602 0.53506 0.0
H197 H 0.65186 0.59173 0.52657 0.0
H198 H 0.66201 0.58479 0.56257 0.0
H199 H 0.69406 0.6589 0.57123 0.0
C200 C 0.80183 0.86665 0.06553 0.0
C201 C 0.83952 0.87865 0.06139 0.0
C202 C 0.82901 0.87282 0.02527 0.0
C203 C 0.85305 0.8816 0.04147 0.0
C204 C 0.79104 0.86106 0.02951 0.0
C205 C 0.77769 0.85796 0.04944 0.0
U206 U 0.79466 0.88636 0.12068 0.0
O207 O 0.74215 0.88485 0.1422 0.0
O208 O 0.80071 0.86566 0.14864 0.0
C209 C 0.76222 0.87049 0.1545 0.0
C210 C 0.78734 0.86297 0.08644 0.0
C211 C 0.73804 0.85044 0.16284 0.0
C212 C 0.69829 0.81358 0.15933 0.0
C213 C 0.72139 0.83223 0.15065 0.0
C214 C 0.7086 0.8312 0.19235 0.0
C215 C 0.69144 0.81291 0.18032 0.0
C216 C 0.73155 0.84973 0.18369 0.0
C217 C 0.84782 0.94518 0.13709 0.0
C218 C 0.83338 0.98236 0.15519 0.0
C219 C 0.8997 0.9621 0.16001 0.0
C220 C 0.88732 0.94424 0.14647 0.0
C221 C 0.87306 0.98151 0.16443 0.0
C222 C 0.82098 0.96447 0.14163 0.0
C223 C 0.83599 0.92694 0.12177 0.0
O224 O 0.81675 0.85844 0.09979 0.0
O225 O 0.75894 0.87817 0.09305 0.0
O226 O 0.79599 0.92543 0.11709 0.0
O227 O 0.85425 0.90593 0.12325 0.0
H228 H 0.85852 0.88572 0.07355 0.0
H229 H 0.88213 0.89104 0.03875 0.0
H230 H 0.77194 0.8539 1.01743 0.0
H231 H 0.74851 0.84867 0.05229 0.0
H232 H 0.68532 0.79989 0.14959 0.0
H233 H 0.72612 0.83251 0.13449 0.0
H234 H 0.70475 0.83108 0.20856 0.0
H235 H 0.74435 0.86356 0.19336 0.0
H236 H 0.81229 0.9972 0.158 0.0
H237 H 0.93026 0.96069 0.16703 0.0
H238 H 0.909 0.92981 0.14319 0.0
H239 H 0.79058 0.966 0.13447 0.0
C240 C 0.19578 0.92597 0.3795 0.0
C241 C 0.18567 0.94586 0.39153 0.0
C242 C 0.16825 0.96887 0.36152 0.0
C243 C 0.17208 0.96714 0.38261 0.0
C244 C 0.17813 0.94874 0.34963 0.0
C245 C 0.19179 0.92755 0.35854 0.0
U246 U 0.20927 0.88215 0.42353 0.0
O247 O 0.20376 0.84298 0.42323 0.0
O248 O 0.26377 0.8597 0.43106 0.0
C249 C 0.24393 0.83975 0.42678 0.0
C250 C 0.21065 0.90346 0.38836 0.0
C251 C 0.2657 0.82364 0.41261 0.0
C252 C 0.29043 0.81414 0.37883 0.0
C253 C 0.26979 0.82963 0.3922 0.0
C254 C 0.30318 0.78656 0.40616 0.0
C255 C 0.30735 0.79237 0.38564 0.0
C256 C 0.28255 0.80206 0.4195 0.0
C257 C 0.16459 0.89793 0.47591 0.0
C258 C 0.16979 0.8723 0.50529 0.0
C259 C 0.13152 0.90966 0.50744 0.0
C260 C 0.14094 0.91426 0.48726 0.0
C261 C 0.14559 0.88856 0.51671 0.0
C262 C 0.17914 0.87693 0.48503 0.0
C263 C 0.17304 0.90308 0.45456 0.0
O264 O 0.24103 0.9053 0.40166 0.0
O265 O 0.18128 0.88831 0.39368 0.0
O266 O 0.15267 0.8898 0.44145 0.0
O267 O 0.21257 0.90641 0.44969 0.0
H268 H 0.18849 0.94495 0.40777 0.0
H269 H 0.16513 0.98233 0.39223 0.0
H270 H 0.17482 0.94922 0.3334 0.0
H271 H 0.19922 0.91232 0.34903 0.0
H272 H 0.29262 0.81907 0.36311 0.0
H273 H 0.25688 0.84624 0.38661 0.0
H274 H 0.31635 0.77015 0.412 0.0
H275 H 0.27981 0.7972 0.43522 0.0
H276 H 0.18078 0.85578 0.51189 0.0
H277 H 0.11339 0.92274 0.51582 0.0
H278 H 0.12956 0.93061 0.48047 0.0
H279 H 0.19738 0.86407 0.47646 0.0
C280 C 0.31035 0.66597 0.9794 0.0
C281 C 0.28081 0.6681 0.99501 0.0
C282 C 0.33572 0.66302 1.02027 0.0
C283 C 0.29327 0.66655 1.01519 0.0
C284 C 0.3652 0.66068 1.00456 0.0
C285 C 0.35267 0.66205 0.98439 0.0
U286 U 0.30315 0.64309 0.92497 0.0
O287 O 0.25128 0.64459 0.90313 0.0
O288 O 0.31129 0.66191 0.89622 0.0
C289 C 0.27252 0.65788 0.89044 0.0
C290 C 0.29656 0.6685 0.95819 0.0
C291 C 0.25004 0.67835 0.88176 0.0
C292 C 0.21455 0.71673 0.88472 0.0
C293 C 0.23561 0.69747 0.89367 0.0
C294 C 0.22232 0.69784 0.85201 0.0
C295 C 0.20783 0.71717 0.86374 0.0
C296 C 0.2432 0.67868 0.86094 0.0
C297 C 0.35266 0.58291 0.91127 0.0
C298 C 0.35337 0.56724 0.87701 0.0
C299 C 0.38488 0.5445 0.90405 0.0
C300 C 0.37378 0.56242 0.91778 0.0
C301 C 0.37511 0.54673 0.88346 0.0
C302 C 0.3423 0.58522 0.89082 0.0
C303 C 0.34211 0.60173 0.92597 0.0
O304 O 0.32622 0.67183 0.9447 0.0
O305 O 0.26735 0.65356 0.95209 0.0
O306 O 0.30198 0.60427 0.93002 0.0
O307 O 0.36157 0.62217 0.92348 0.0
H308 H 0.24799 0.67107 0.99158 0.0
H309 H 0.26952 0.66806 0.0268 0.0
H310 H 0.39822 0.65831 1.0078 0.0
H311 H 0.3763 0.66031 0.97274 0.0
H312 H 0.20408 0.7314 0.89417 0.0
H313 H 0.24075 0.69751 0.9098 0.0
H314 H 0.21706 0.69734 0.83589 0.0
H315 H 0.25401 0.66403 0.85153 0.0
H316 H 0.34565 0.56961 0.86127 0.0
H317 H 0.40091 0.52878 0.9096 0.0
H318 H 0.38182 0.5603 0.93353 0.0
H319 H 0.32596 0.60098 0.88553 0.0
Eu320 Eu 0.05267 0.15264 0.25537 0.0
C321 C 0.88883 0.10523 0.28341 0.0
N322 N 0.89721 0.12889 0.28161 0.0
C323 C 0.83313 0.13477 0.26345 0.0
C324 C 0.85282 0.09517 0.27448 0.0
C325 C 0.86944 0.14389 0.27244 0.0
C326 C 0.82502 0.11025 0.26426 0.0
C327 C 0.90797 0.06666 0.29702 0.0
C328 C 0.91616 0.09121 0.29447 0.0
C329 C 0.87314 0.05629 0.28743 0.0
C330 C 0.84558 0.07052 0.27621 0.0
Eu331 Eu 0.9598 0.14285 0.29647 0.0
N332 N 0.94931 0.10185 0.30372 0.0
C333 C 0.93423 0.05346 0.3097 0.0
C334 C 0.97246 0.08955 0.31749 0.0
C335 C 0.96611 0.06508 0.32029 0.0
H336 H 0.87573 0.16282 0.27184 0.0
H337 H 0.98535 0.0553 0.33087 0.0
H338 H 0.12869 0.11382 0.27073 0.0
H339 H 0.06702 0.24815 0.24229 0.0
H340 H 0.99531 0.09866 0.32667 0.0
H341 H 0.92905 0.03455 0.31205 0.0
H342 H 0.03489 0.20794 0.23946 0.0
H343 H 0.81149 0.14662 0.25586 0.0
H344 H 0.86662 0.03741 0.28904 0.0
H345 H 0.81837 0.06238 0.26924 0.0
H346 H 0.19534 0.11533 0.28928 0.0
H347 H 0.79698 0.10321 0.2572 0.0
H348 H 0.13271 0.2535 0.26167 0.0
N349 N 0.11952 0.15156 0.27116 0.0
C350 C 0.13785 0.17312 0.27459 0.0
C351 C 0.17916 0.13173 0.28555 0.0
C352 C 0.17687 0.17482 0.28451 0.0
C353 C 0.14076 0.13096 0.2754 0.0
C354 C 0.19694 0.15377 0.29047 0.0
N355 N 0.0816 0.19126 0.25732 0.0
C356 C 0.06361 0.21029 0.24788 0.0
C357 C 0.13808 0.21601 0.26922 0.0
C358 C 0.11879 0.1935 0.26708 0.0
C359 C 0.11885 0.2359 0.26038 0.0
C360 C 0.08173 0.23296 0.24944 0.0
H361 H 0.22692 0.1543 0.29814 0.0
H362 H 0.22498 0.199 0.29534 0.0
H363 H 0.19099 0.23507 0.28193 0.0
O364 O 0.04032 0.15644 0.22314 0.0
O365 O 0.03703 0.18104 0.279 0.0
O366 O 0.02192 0.15843 0.30642 0.0
O367 O 0.10113 0.14457 0.23299 0.0
O368 O 0.98863 0.16767 0.24726 0.0
O369 O 0.95448 0.17648 0.2774 0.0
O370 O 0.93155 0.13841 0.32636 0.0
O371 O 0.95229 0.13009 0.26389 0.0
O372 O 0.01825 0.11739 0.25562 0.0
O373 O 0.92583 0.1721 0.31108 0.0
O374 O 0.025 0.12858 0.30422 0.0
O375 O 0.0545 0.11812 0.27359 0.0
C376 C 0.03871 0.17752 0.29849 0.0
C377 C 0.07664 0.12979 0.20183 0.0
C378 C 0.08745 0.11792 0.16666 0.0
C379 C 0.07529 0.09451 0.17171 0.0
C380 C 0.06471 0.10637 0.20647 0.0
C381 C 0.06395 0.08886 0.19145 0.0
C382 C 0.08794 0.13553 0.18196 0.0
C383 C 0.96087 0.17986 0.25794 0.0
C384 C 0.07685 0.14837 0.21759 0.0
C385 C 0.19526 0.19735 0.28755 0.0
C386 C 0.17597 0.21789 0.27987 0.0
C387 C 0.97741 0.11496 0.25467 0.0
C388 C 0.93545 0.1732 0.34652 0.0
C389 C 0.93685 0.17666 0.38334 0.0
C390 C 0.96625 0.19526 0.38159 0.0
C391 C 0.96492 0.1918 0.34529 0.0
C392 C 0.92129 0.16579 0.36562 0.0
C393 C 0.98007 0.20274 0.36272 0.0
C394 C 0.05 0.11504 0.29318 0.0
C395 C 0.92104 0.16078 0.32804 0.0
H396 H 0.07516 0.08042 0.16048 0.0
H397 H 0.05615 0.10165 0.2217 0.0
H398 H 0.05474 0.0708 0.19514 0.0
H399 H 0.09658 0.15374 0.17842 0.0
H400 H 0.9784 0.20419 0.39487 0.0
H401 H 0.97651 0.19783 0.33085 0.0
H402 H 0.89908 0.15122 0.36668 0.0
H403 H 0.00279 0.21702 0.36159 0.0
Eu404 Eu 0.45292 0.37443 0.75548 0.0
C405 C 0.64607 0.38678 0.78025 0.0
N406 N 0.62155 0.36712 0.78243 0.0
C407 C 0.67846 0.34184 0.7721 0.0
C408 C 0.68788 0.38468 0.7735 0.0
C409 C 0.63724 0.34481 0.77889 0.0
C410 C 0.70384 0.36187 0.76928 0.0
C411 C 0.65393 0.42986 0.78268 0.0
C412 C 0.62933 0.40912 0.78482 0.0
C413 C 0.69548 0.42784 0.7758 0.0
C414 C 0.7124 0.40533 0.77123 0.0
Eu415 Eu 0.55209 0.37403 0.79325 0.0
N416 N 0.58856 0.41062 0.79082 0.0
C417 C 0.63594 0.45203 0.78743 0.0
C418 C 0.57142 0.43203 0.79627 0.0
C419 C 0.59463 0.45308 0.79442 0.0
H420 H 0.61815 0.32927 0.78167 0.0
H421 H 0.58067 0.4701 0.79842 0.0
H422 H 0.37748 0.40778 0.77661 0.0
H423 H 0.457 0.27813 0.73971 0.0
H424 H 0.53988 0.43298 0.80198 0.0
H425 H 0.65377 0.46838 0.78593 0.0
H426 H 0.48098 0.31964 0.73723 0.0
H427 H 0.69072 0.32411 0.76918 0.0
H428 H 0.7148 0.44359 0.77399 0.0
H429 H 0.74454 0.40406 0.766 0.0
H430 H 0.30819 0.40207 0.79264 0.0
H431 H 0.7358 0.35952 0.76405 0.0
H432 H 0.39056 0.26895 0.75727 0.0
N433 N 0.38616 0.37086 0.77031 0.0
C434 C 0.36985 0.34845 0.77116 0.0
C435 C 0.32527 0.38685 0.78671 0.0
C436 C 0.33058 0.34437 0.7803 0.0
C437 C 0.36453 0.39002 0.77773 0.0
C438 C 0.30827 0.36393 0.78807 0.0
N439 N 0.43179 0.33381 0.75535 0.0
C440 C 0.45347 0.31589 0.74599 0.0
C441 C 0.37771 0.30591 0.76485 0.0
C442 C 0.39343 0.32941 0.76364 0.0
C443 C 0.40153 0.28724 0.75664 0.0
C444 C 0.43922 0.29232 0.74687 0.0
H445 H 0.27799 0.36152 0.7952 0.0
H446 H 0.28523 0.31745 0.78882 0.0
H447 H 0.32636 0.28383 0.77525 0.0
O448 O 0.44741 0.36767 0.72309 0.0
O449 O 0.44658 0.36018 0.78747 0.0
O450 O 0.50945 0.34171 0.79266 0.0
O451 O 0.4055 0.39275 0.73741 0.0
O452 O 0.51557 0.35908 0.74473 0.0
O453 O 0.54395 0.34184 0.77298 0.0
O454 O 0.54513 0.38238 0.82529 0.0
O455 O 0.55965 0.39483 0.76387 0.0
O456 O 0.49359 0.40739 0.75401 0.0
O457 O 0.59324 0.35769 0.81566 0.0
O458 O 0.4936 0.39481 0.80265 0.0
O459 O 0.45713 0.40814 0.77453 0.0
C460 C 0.46887 0.3431 0.79568 0.0
C461 C 0.42597 0.40067 0.70383 0.0
C462 C 0.42529 0.41002 0.66783 0.0
C463 C 0.44403 0.43218 0.67227 0.0
C464 C 0.44455 0.42289 0.70781 0.0
C465 C 0.4535 0.43852 0.69211 0.0
C466 C 0.41617 0.39432 0.68381 0.0
C467 C 0.54134 0.34376 0.75331 0.0
C468 C 0.41841 0.38373 0.72038 0.0
C469 C 0.31521 0.32095 0.78173 0.0
C470 C 0.33871 0.30179 0.77405 0.0
C471 C 0.53464 0.40946 0.75405 0.0
C472 C 0.56373 0.35182 0.84789 0.0
C473 C 0.56626 0.3427 0.88391 0.0
C474 C 0.54205 0.32213 0.88015 0.0
C475 C 0.5399 0.33118 0.84456 0.0
C476 C 0.57694 0.35753 0.86756 0.0
C477 C 0.52901 0.31647 0.86062 0.0
C478 C 0.46798 0.40994 0.79368 0.0
C479 C 0.57442 0.36761 0.83099 0.0
H480 H 0.45095 0.44477 0.6604 0.0
H481 H 0.45218 0.42813 0.72306 0.0
H482 H 0.46786 0.45563 0.69533 0.0
H483 H 0.40227 0.37704 0.68068 0.0
H484 H 0.53379 0.31013 0.89226 0.0
H485 H 0.52993 0.32643 0.82953 0.0
H486 H 0.59509 0.37362 0.87011 0.0
H487 H 0.51061 0.30054 0.85791 0.0
Eu488 Eu 0.05023 0.87933 0.75238 0.0
C489 C 0.86901 0.85011 0.77672 0.0
N490 N 0.88552 0.87236 0.77885 0.0
C491 C 0.82265 0.88984 0.76572 0.0
C492 C 0.82855 0.8469 0.76857 0.0
C493 C 0.86303 0.89215 0.77369 0.0
C494 C 0.80537 0.86712 0.76308 0.0
C495 C 0.87725 0.80713 0.77955 0.0
C496 C 0.89329 0.83043 0.78205 0.0
C497 C 0.83705 0.80388 0.77135 0.0
C498 C 0.81277 0.8237 0.76588 0.0
Eu499 Eu 0.95416 0.87449 0.79181 0.0
N500 N 0.93271 0.83404 0.7894 0.0
C501 C 0.90202 0.78775 0.78548 0.0
C502 C 0.95566 0.8153 0.79647 0.0
C503 C 0.94112 0.79189 0.79426 0.0
H504 H 0.87605 0.90975 0.77592 0.0
H505 H 0.95983 0.77706 0.79961 0.0
H506 H 0.12281 0.83764 0.76271 0.0
H507 H 0.0644 0.97667 0.75021 0.0
H508 H 0.98455 0.8182 0.80438 0.0
H509 H 0.89084 0.76958 0.78381 0.0
H510 H 0.02952 0.93792 0.74521 0.0
H511 H 0.80488 0.90557 0.76162 0.0
H512 H 0.82438 0.7861 0.76921 0.0
H513 H 0.78184 0.82089 0.75955 0.0
H514 H 0.19588 0.83567 0.77501 0.0
H515 H 0.77417 0.86539 0.75677 0.0
H516 H 0.13738 0.97808 0.7628 0.0
N517 N 0.12052 0.87552 0.76296 0.0
C518 C 0.14202 0.89624 0.76569 0.0
C519 C 0.18101 0.85282 0.77259 0.0
C520 C 0.18398 0.89599 0.77241 0.0
C521 C 0.13948 0.85396 0.76591 0.0
C522 C 0.2033 0.87392 0.77597 0.0
N523 N 0.08103 0.91754 0.7559 0.0
C524 C 0.06084 0.93824 0.75114 0.0
C525 C 0.14329 0.93962 0.76475 0.0
C526 C 0.12191 0.91784 0.76187 0.0
C527 C 0.12206 0.96098 0.76075 0.0
C528 C 0.08079 0.96027 0.75373 0.0
H529 H 0.2355 0.87298 0.78115 0.0
H530 H 0.23746 0.91781 0.78061 0.0
H531 H 0.20185 0.95597 0.77393 0.0
O532 O 0.04262 0.88836 0.72054 0.0
O533 O 0.05839 0.89688 0.78335 0.0
O534 O 0.99224 0.90842 0.79361 0.0
O535 O 0.09351 0.8654 0.72961 0.0
O536 O 0.98902 0.89853 0.74472 0.0
O537 O 0.95521 0.90929 0.77444 0.0
O538 O 0.95457 0.86561 0.82389 0.0
O539 O 0.94596 0.86129 0.75948 0.0
O540 O 0.01031 0.84585 0.75147 0.0
O541 O 0.90791 0.88989 0.8125 0.0
O542 O 0.01805 0.85881 0.80027 0.0
O543 O 0.04612 0.84524 0.77033 0.0
C544 C 0.03317 0.91089 0.79375 0.0
C545 C 0.06477 0.85885 0.69734 0.0
C546 C 0.06665 0.85059 0.66111 0.0
C547 C 0.04688 0.82855 0.6647 0.0
C548 C 0.04541 0.83673 0.70051 0.0
C549 C 0.0364 0.82172 0.68426 0.0
C550 C 0.0755 0.86572 0.67764 0.0
C551 C 0.96283 0.91221 0.75505 0.0
C552 C 0.07357 0.87483 0.71451 0.0
C553 C 0.20527 0.91767 0.77538 0.0
C554 C 0.18499 0.93941 0.77157 0.0
C555 C 0.96934 0.84582 0.74967 0.0
C556 C 0.93129 0.89605 0.84591 0.0
C557 C 0.92649 0.90409 0.88218 0.0
C558 C 0.94647 0.92619 0.87899 0.0
C559 C 0.9511 0.91813 0.84323 0.0
C560 C 0.91902 0.88906 0.8654 0.0
C561 C 0.9587 0.93307 0.85968 0.0
C562 C 0.04382 0.84477 0.79011 0.0
C563 C 0.92402 0.88013 0.82848 0.0
H564 H 0.04011 0.81637 0.6524 0.0
H565 H 0.03755 0.83107 0.71556 0.0
H566 H 0.02143 0.80466 0.68685 0.0
H567 H 0.09024 0.88289 0.6752 0.0
H568 H 0.95209 0.9384 0.8914 0.0
H569 H 0.96048 0.92382 0.82838 0.0
H570 H 0.90416 0.87185 0.86747 0.0
H571 H 0.97394 0.95012 0.85745 0.0
Eu572 Eu 0.45796 0.64686 0.25451 0.0
C573 C 0.64173 0.67052 0.27926 0.0
N574 N 0.62371 0.64855 0.28022 0.0
C575 C 0.68522 0.6306 0.26592 0.0
C576 C 0.68238 0.67336 0.27125 0.0
C577 C 0.64477 0.62866 0.2739 0.0
C578 C 0.70406 0.65304 0.26452 0.0
C579 C 0.63693 0.71331 0.28508 0.0
C580 C 0.61908 0.69031 0.28603 0.0
C581 C 0.67729 0.7162 0.27695 0.0
C582 C 0.69994 0.69629 0.27007 0.0
Eu583 Eu 0.55519 0.64712 0.29343 0.0
N584 N 0.57962 0.68706 0.29345 0.0
C585 C 0.61378 0.73274 0.29245 0.0
C586 C 0.5581 0.70573 0.30178 0.0
C587 C 0.57445 0.72887 0.30108 0.0
H588 H 0.63056 0.61124 0.2752 0.0
H589 H 0.55692 0.74367 0.30745 0.0
H590 H 0.38806 0.68981 0.26583 0.0
H591 H 0.43796 0.55004 0.24978 0.0
H592 H 0.52886 0.70291 0.30944 0.0
H593 H 0.62637 0.75069 0.29197 0.0
H594 H 0.47567 0.5882 0.24642 0.0
H595 H 0.70185 0.61478 0.26088 0.0
H596 H 0.69136 0.73376 0.276 0.0
H597 H 0.73107 0.69882 0.26387 0.0
H598 H 0.31456 0.69299 0.27743 0.0
H599 H 0.73537 0.65448 0.25827 0.0
H600 H 0.36416 0.54984 0.26135 0.0
N601 N 0.38767 0.6519 0.26476 0.0
C602 C 0.36467 0.6316 0.26663 0.0
C603 C 0.32835 0.67561 0.27457 0.0
C604 C 0.32245 0.63257 0.27293 0.0
C605 C 0.37009 0.67376 0.26826 0.0
C606 C 0.30446 0.65493 0.27702 0.0
N607 N 0.42468 0.60929 0.25689 0.0
C608 C 0.44388 0.58832 0.25181 0.0
C609 C 0.36057 0.58834 0.26431 0.0
C610 C 0.3835 0.60971 0.26234 0.0
C611 C 0.38066 0.56665 0.25996 0.0
C612 C 0.42238 0.56668 0.25352 0.0
H613 H 0.27212 0.65642 0.28191 0.0
H614 H 0.26713 0.6117 0.27987 0.0
H615 H 0.30052 0.573 0.27238 0.0
O616 O 0.46235 0.63657 0.22281 0.0
O617 O 0.4495 0.6273 0.28448 0.0
O618 O 0.51526 0.61384 0.29337 0.0
O619 O 0.4185 0.66402 0.23175 0.0
O620 O 0.51936 0.62887 0.24537 0.0
O621 O 0.55156 0.61383 0.27387 0.0
O622 O 0.55285 0.65232 0.32612 0.0
O623 O 0.56306 0.66372 0.26228 0.0
O624 O 0.4988 0.67998 0.25516 0.0
O625 O 0.60047 0.62952 0.31323 0.0
O626 O 0.4926 0.66351 0.30313 0.0
O627 O 0.46298 0.67956 0.27452 0.0
C628 C 0.4742 0.61261 0.29441 0.0
C629 C 0.44813 0.66664 0.19918 0.0
C630 C 0.44501 0.67478 0.16303 0.0
C631 C 0.47611 0.69234 0.16561 0.0
C632 C 0.47897 0.68425 0.20132 0.0
C633 C 0.49282 0.69706 0.18464 0.0
C634 C 0.43095 0.66202 0.18002 0.0
C635 C 0.54378 0.61318 0.25436 0.0
C636 C 0.43522 0.6524 0.2167 0.0
C637 C 0.29957 0.6113 0.27499 0.0
C638 C 0.31857 0.58925 0.27069 0.0
C639 C 0.53984 0.68006 0.25356 0.0
C640 C 0.61759 0.65039 0.34331 0.0
C641 C 0.6438 0.65744 0.37753 0.0
C642 C 0.67599 0.67164 0.36942 0.0
C643 C 0.65009 0.66457 0.33569 0.0
C644 C 0.61458 0.6468 0.36426 0.0
C645 C 0.67902 0.67514 0.34868 0.0
C646 C 0.46683 0.67857 0.29422 0.0
C647 C 0.58634 0.63964 0.3296 0.0
H648 H 0.48722 0.70263 0.15291 0.0
H649 H 0.49245 0.68794 0.21589 0.0
H650 H 0.51669 0.71063 0.18647 0.0
H651 H 0.40741 0.64821 0.17829 0.0
H652 H 0.69938 0.67975 0.3791 0.0
H653 H 0.65328 0.66743 0.31973 0.0
H654 H 0.5893 0.63599 0.37019 0.0
H655 H 0.70405 0.68601 0.34264 0.0
H656 H 0.19706 0.98925 0.32667 0.0
H657 H 0.10661 0.99965 0.37446 0.0
H658 H 0.17157 0.02528 0.31017 0.0
H659 H 0.0815 0.03583 0.35803 0.0
H660 H 0.07296 0.11129 0.33265 0.0
H661 H 0.10383 0.07673 0.34943 0.0
H662 H 0.10784 0.03887 0.29259 0.0
H663 H 0.07692 0.07342 0.27585 0.0
C664 C 0.17162 0.99914 0.33363 0.0
C665 C 0.15379 0.99143 0.35188 0.0
C666 C 0.15707 0.01982 0.32417 0.0
C667 C 0.12449 0.03342 0.33277 0.0
C668 C 0.10707 0.02595 0.35116 0.0
C669 C 0.1215 1.0052 0.36059 0.0
C670 C 0.08061 0.0956 0.32375 0.0
C671 C 0.07215 0.09496 0.30298 0.0
C672 C 0.09811 0.07578 0.33336 0.0
C673 C 0.10798 0.05497 0.32238 0.0
C674 C 0.1009 0.05468 0.30146 0.0
C675 C 0.08318 0.07447 0.29187 0.0
H676 H 0.33023 0.52795 0.85173 0.0
H677 H 0.44971 0.52273 0.88207 0.0
H678 H 0.35088 0.49527 0.82913 0.0
H679 H 0.47016 0.49026 0.85965 0.0
H680 H 0.47328 0.41542 0.83441 0.0
H681 H 0.44976 0.44882 0.85488 0.0
H682 H 0.40087 0.48357 0.8019 0.0
H683 H 0.4242 0.44971 0.78117 0.0
C684 C 0.36103 0.52002 0.85345 0.0
C685 C 0.3881 0.52777 0.86889 0.0
C686 C 0.37284 0.50131 0.8405 0.0
C687 C 0.41194 0.48994 0.84275 0.0
C688 C 0.43941 0.49822 0.8578 0.0
C689 C 0.42766 0.51685 0.87068 0.0
C690 C 0.45745 0.43009 0.82701 0.0
C691 C 0.45093 0.42989 0.80606 0.0
C692 C 0.44414 0.44935 0.83879 0.0
C693 C 0.42395 0.46904 0.83001 0.0
C694 C 0.41624 0.46863 0.80913 0.0
C695 C 0.42966 0.44925 0.79726 0.0
H696 H 0.60675 0.55237 0.71763 0.0
H697 H 0.67216 0.50659 0.67543 0.0
H698 H 0.57775 0.51739 0.73423 0.0
H699 H 0.64196 0.47151 0.69169 0.0
H700 H 0.61498 0.4143 0.73993 0.0
H701 H 0.64585 0.44906 0.72346 0.0
H702 H 0.52703 0.48601 0.72782 0.0
H703 H 0.49686 0.45179 0.74498 0.0
C704 C 0.615 0.53483 0.7119 0.0
C705 C 0.64188 0.53232 0.69521 0.0
C706 C 0.598 0.51476 0.7213 0.0
C707 C 0.60744 0.49162 0.71428 0.0
C708 C 0.63435 0.48907 0.69759 0.0
C709 C 0.65127 0.50918 0.68813 0.0
C710 C 0.59556 0.4299 0.73743 0.0
C711 C 0.55338 0.43021 0.74363 0.0
C712 C 0.61312 0.44973 0.72783 0.0
C713 C 0.5889 0.47033 0.72427 0.0
C714 C 0.54672 0.47056 0.73049 0.0
C715 C 0.52924 0.45079 0.74009 0.0
H716 H 0.8273 1.00548 0.19333 0.0
H717 H 0.95073 1.0021 0.16651 0.0
H718 H 0.85098 0.0375 0.21575 0.0
H719 H 0.97428 0.03392 0.18887 0.0
H720 H 0.0156 0.07287 0.24545 0.0
H721 H 0.98931 0.04056 0.22429 0.0
H722 H 0.87377 0.07955 0.21527 0.0
H723 H 0.90051 0.11209 0.23637 0.0
C724 C 0.85938 1.01165 0.19211 0.0
C725 C 0.88716 1.00107 0.17817 0.0
C726 C 0.87294 0.03 0.20497 0.0
C727 C 0.91461 0.03818 0.20421 0.0
C728 C 0.94222 0.02772 0.19016 0.0
C729 C 0.9287 1.00944 0.17733 0.0
C730 C 0.9846 0.07458 0.23892 0.0
C731 C 0.96009 0.09503 0.24256 0.0
C732 C 0.96955 0.05607 0.22676 0.0
C733 C 0.92953 0.0575 0.21795 0.0
C734 C 0.90458 0.07776 0.22197 0.0
C735 C 0.91982 0.09638 0.23408 0.0
H736 H 0.80577 0.03041 0.7133 0.0
H737 H 0.91681 0.03242 0.676 0.0
H738 H 0.83292 0.99517 0.73039 0.0
H739 H 0.94392 0.99716 0.69307 0.0
H740 H 0.96189 0.92073 0.71451 0.0
H741 H 0.93164 0.9547 0.69696 0.0
H742 H 0.88838 0.98384 0.75368 0.0
H743 H 0.91825 0.94966 0.77129 0.0
C744 C 0.83609 0.02342 0.70881 0.0
C745 C 0.85914 0.03433 0.69329 0.0
C746 C 0.85166 1.0032 0.71862 0.0
C747 C 0.89066 0.99333 0.71316 0.0
C748 C 0.91349 1.00407 0.69748 0.0
C749 C 0.89793 0.0243 0.68767 0.0
C750 C 0.94578 0.93431 0.72328 0.0
C751 C 0.94249 0.9324 0.74435 0.0
C752 C 0.92863 0.95388 0.71319 0.0
C753 C 0.90771 0.97209 0.72389 0.0
C754 C 0.90385 0.97001 0.74493 0.0
C755 C 0.92106 0.95041 0.75504 0.0
H756 H 0.60419 0.47605 0.20004 0.0
H757 H 0.65728 0.52722 0.1588 0.0
H758 H 0.58485 0.5085 0.22297 0.0
H759 H 0.63799 0.55961 0.18169 0.0
H760 H 0.54609 0.6106 0.21335 0.0
H761 H 0.57298 0.57842 0.19236 0.0
H762 H 0.61178 0.54004 0.24548 0.0
H763 H 0.58394 0.57226 0.2667 0.0
C764 C 0.6123 0.49418 0.196 0.0
C765 C 0.63194 0.49903 0.17748 0.0
C766 C 0.60125 0.51279 0.20916 0.0
C767 C 0.60958 0.53668 0.20411 0.0
C768 C 0.63038 0.54145 0.18588 0.0
C769 C 0.6414 0.52287 0.17274 0.0
C770 C 0.56051 0.59539 0.22064 0.0
C771 C 0.56281 0.59405 0.24175 0.0
C772 C 0.57625 0.57698 0.20854 0.0
C773 C 0.59467 0.55665 0.21721 0.0
C774 C 0.59747 0.55537 0.23834 0.0
C775 C 0.58181 0.57392 0.25049 0.0
H776 H 0.4209 0.4919 0.37302 0.0
H777 H 0.31102 0.49818 0.33535 0.0
H778 H 0.4509 0.52708 0.35708 0.0
H779 H 0.3418 0.53276 0.31882 0.0
H780 H 0.39247 0.60784 0.30666 0.0
H781 H 0.36076 0.5742 0.32418 0.0
H782 H 0.48086 0.5383 0.3251 0.0
H783 H 0.51251 0.57189 0.30765 0.0
C784 C 0.403 0.50084 0.36143 0.0
C785 C 0.36354 0.49211 0.35547 0.0
C786 C 0.42045 0.52087 0.35209 0.0
C787 C 0.39891 0.53272 0.33656 0.0
C788 C 0.35915 0.52423 0.33083 0.0
C789 C 0.3417 0.5042 0.34016 0.0
C790 C 0.41207 0.59271 0.31051 0.0
C791 C 0.45499 0.59253 0.30562 0.0
C792 C 0.39386 0.5734 0.32055 0.0
C793 C 0.41823 0.5535 0.3261 0.0
C794 C 0.46125 0.55346 0.32136 0.0
C795 C 0.4794 0.57272 0.31128 0.0
H796 H 0.18475 0.02084 0.85436 0.0
H797 H 0.06498 0.01898 0.8848 0.0
H798 H 0.16011 0.99037 0.83058 0.0
H799 H 0.04099 0.98817 0.86158 0.0
H800 H 0.99421 0.95212 0.80509 0.0
H801 H 0.0216 0.98405 0.82628 0.0
H802 H 0.14086 0.94749 0.82973 0.0
H803 H 0.11317 0.9153 0.80853 0.0
C804 C 0.15317 0.01399 0.85595 0.0
C805 C 0.12687 0.02232 0.87152 0.0
C806 C 0.13922 0.99638 0.84245 0.0
C807 C 0.09855 0.98688 0.84415 0.0
C808 C 0.0723 0.99531 0.85967 0.0
C809 C 0.08625 0.01278 0.87316 0.0
C810 C 0.0262 0.95078 0.81047 0.0
C811 C 0.05122 0.93092 0.80551 0.0
C812 C 0.04193 0.96912 0.8226 0.0
C813 C 0.08322 0.96817 0.82996 0.0
C814 C 0.10893 0.94879 0.82428 0.0
C815 C 0.09305 0.93033 0.81218 0.0
H816 H 0.1725 0.18205 0.05359 0.0
H817 H 0.15739 0.10686 0.04048 0.0
H818 H 0.14961 0.17525 0.08816 0.0
H819 H 0.13392 0.10021 0.07491 0.0
H820 H 0.05195 0.10177 0.1315 0.0
H821 H 0.0742 0.10963 0.09706 0.0
H822 H 0.17305 0.15529 0.11931 0.0
H823 H 0.15118 0.14719 0.15385 0.0
C824 C 0.16464 0.16404 0.05807 0.0
C825 C 0.16682 0.14502 0.04413 0.0
C826 C 0.15141 0.16016 0.07791 0.0
C827 C 0.1398 0.1372 0.08431 0.0
C828 C 0.14197 0.11819 0.07041 0.0
C829 C 0.15539 0.12204 0.05062 0.0
C830 C 0.07866 0.11334 0.12911 0.0
C831 C 0.09989 0.12371 0.14554 0.0
C832 C 0.09139 0.11786 0.10932 0.0
C833 C 0.12556 0.13299 0.1054 0.0
C834 C 0.14632 0.14375 0.12178 0.0
C835 C 0.1337 0.13913 0.1416 0.0
H836 H 0.30443 0.40474 0.55119 0.0
H837 H 0.42855 0.37728 0.53875 0.0
H838 H 0.32048 0.40564 0.58712 0.0
H839 H 0.44458 0.37818 0.57465 0.0
H840 H 0.47506 0.41605 0.63475 0.0
H841 H 0.45743 0.40909 0.59955 0.0
H842 H 0.33612 0.38205 0.61726 0.0
H843 H 0.35352 0.38965 0.65264 0.0
C844 C 0.33488 0.39848 0.55613 0.0
C845 C 0.36532 0.39116 0.54201 0.0
C846 C 0.34409 0.39898 0.57676 0.0
C847 C 0.38398 0.39219 0.58381 0.0
C848 C 0.41383 0.384 0.56974 0.0
C849 C 0.40463 0.38349 0.54914 0.0
C850 C 0.44461 0.4086 0.63116 0.0
C851 C 0.41557 0.4036 0.64652 0.0
C852 C 0.43465 0.40435 0.61095 0.0
C853 C 0.39529 0.39503 0.60551 0.0
C854 C 0.36655 0.38947 0.6209 0.0
C855 C 0.37666 0.3936 0.64118 0.0
H856 H 0.59308 0.37401 1.0129 0.0
H857 H 0.71131 0.34328 0.99412 0.0
H858 H 0.56891 0.37349 0.97805 0.0
H859 H 0.68653 0.34186 0.95944 0.0
H860 H 0.64335 0.35915 0.89611 0.0
H861 H 0.6681 0.3657 0.93049 0.0
H862 H 0.54706 0.3443 0.95341 0.0
H863 H 0.52192 0.33867 0.9191 0.0
C864 C 0.61408 0.36731 1.00134 0.0
C865 C 0.65411 0.35858 1.00639 0.0
C866 C 0.60002 0.36676 0.98135 0.0
C867 C 0.62563 0.3575 0.96588 0.0
C868 C 0.66605 0.34932 0.97088 0.0
C869 C 0.68008 0.34985 0.99085 0.0
C870 C 0.6218 0.35624 0.90847 0.0
C871 C 0.5807 0.34823 0.9048 0.0
C872 C 0.63615 0.35973 0.92822 0.0
C873 C 0.60971 0.35539 0.94479 0.0
C874 C 0.56825 0.34803 0.94107 0.0
C875 C 0.55395 0.34451 0.92136 0.0
H876 H 0.91765 0.11722 0.50431 0.0
H877 H 0.81084 0.16443 0.49937 0.0
H878 H 0.93615 0.1253 0.46943 0.0
H879 H 0.83027 0.17317 0.46454 0.0
H880 H 0.85712 0.16635 0.39648 0.0
H881 H 0.83518 0.15518 0.43053 0.0
H882 H 0.96414 0.15842 0.45028 0.0
H883 H 0.98599 0.16893 0.41634 0.0
C884 C 0.89791 0.12922 0.49575 0.0
C885 C 0.86269 0.14015 0.50471 0.0
C886 C 0.90881 0.13406 0.47578 0.0
C887 C 0.88483 0.14997 0.46416 0.0
C888 C 0.84925 0.16067 0.47299 0.0
C889 C 0.83839 0.15588 0.49304 0.0
C890 C 0.88076 0.16438 0.40806 0.0
C891 C 0.92327 0.16864 0.4037 0.0
C892 C 0.86817 0.15822 0.42762 0.0
C893 C 0.89787 0.15595 0.44319 0.0
C894 C 0.94043 0.15978 0.43866 0.0
C895 C 0.95293 0.16604 0.41922 0.0
H896 H 0.78236 0.88579 0.99239 0.0
H897 H 0.90835 0.86685 1.0101 0.0
H898 H 0.80622 0.89168 0.95787 0.0
H899 H 0.93219 0.87233 0.97553 0.0
H900 H 0.96894 0.91108 0.91763 0.0
H901 H 0.94526 0.90289 0.9517 0.0
H902 H 0.83113 0.87211 0.92806 0.0
H903 H 0.854 0.88146 0.89391 0.0
C904 C 0.81508 0.8826 0.98886 0.0
C905 C 0.84345 0.87594 1.00406 0.0
C906 C 0.82879 0.88591 0.96902 0.0
C907 C 0.87122 0.88252 0.9638 0.0
C908 C 0.89945 0.87554 0.97899 0.0
C909 C 0.88578 0.87238 0.99885 0.0
C910 C 0.93864 0.90271 0.91966 0.0
C911 C 0.91326 0.89716 0.90294 0.0
C912 C 0.92525 0.89771 0.93926 0.0
C913 C 0.88614 0.88687 0.94276 0.0
C914 C 0.86116 0.88079 0.92602 0.0
C915 C 0.87454 0.88586 0.90637 0.0
H916 H 0.69158 0.60065 0.49639 0.0
H917 H 0.62928 0.66755 0.50943 0.0
H918 H 0.68185 0.6073 0.46046 0.0
H919 H 0.61935 0.67418 0.47344 0.0
H920 H 0.65565 0.69035 0.40764 0.0
H921 H 0.65939 0.68347 0.44377 0.0
H922 H 0.62968 0.60903 0.43408 0.0
H923 H 0.62751 0.61578 0.39776 0.0
C924 C 0.67538 0.61667 0.49161 0.0
C925 C 0.66128 0.63358 0.50586 0.0
C926 C 0.66969 0.62047 0.47097 0.0
C927 C 0.64971 0.64126 0.46398 0.0
C928 C 0.63539 0.65812 0.47823 0.0
C929 C 0.64114 0.65434 0.49889 0.0
C930 C 0.64997 0.67249 0.41319 0.0
C931 C 0.6417 0.65357 0.39974 0.0
C932 C 0.65167 0.66859 0.43397 0.0
C933 C 0.6451 0.64565 0.44191 0.0
C934 C 0.63553 0.62686 0.4285 0.0
C935 C 0.63377 0.63078 0.40767 0.0
H936 H 0.30579 0.68965 0.05213 0.0
H937 H 0.39691 0.63497 0.03741 0.0
H938 H 0.33024 0.68984 0.0869 0.0
H939 H 0.4219 0.63566 0.07212 0.0
H940 H 0.48836 0.66916 0.12784 0.0
H941 H 0.46026 0.66445 0.09388 0.0
H942 H 0.33433 0.66476 0.11792 0.0
H943 H 0.36259 0.66976 0.15199 0.0
C944 C 0.33062 0.67742 0.05631 0.0
C945 C 0.34942 0.66236 0.04181 0.0
C946 C 0.34468 0.67758 0.07628 0.0
C947 C 0.37812 0.66283 0.08228 0.0
C948 C 0.39646 0.64748 0.06792 0.0
C949 C 0.38219 0.64717 0.04798 0.0
C950 C 0.45467 0.66815 0.12588 0.0
C951 C 0.42768 0.66998 0.14259 0.0
C952 C 0.43857 0.66525 0.10644 0.0
C953 C 0.39504 0.66429 0.10317 0.0
C954 C 0.36801 0.66565 0.11992 0.0
C955 C 0.38418 0.6683 0.13944 0.0
H956 H 0.07018 0.89603 0.5355 0.0
H957 H 0.1955 0.86959 0.54637 0.0
H958 H 0.05171 0.8883 0.57047 0.0
H959 H 0.17654 0.86111 0.58129 0.0
H960 H 0.13944 0.87142 0.64779 0.0
H961 H 0.15875 0.8813 0.61316 0.0
H962 H 0.03935 0.85447 0.59236 0.0
H963 H 0.01965 0.84529 0.62692 0.0
C964 C 0.09388 0.88863 0.54537 0.0
C965 C 0.13439 0.88348 0.53809 0.0
C966 C 0.08313 0.88396 0.56539 0.0
C967 C 0.11259 0.87404 0.57872 0.0
C968 C 0.15319 0.86898 0.57149 0.0
C969 C 0.16391 0.87357 0.55141 0.0
C970 C 0.11714 0.86791 0.63584 0.0
C971 C 0.07802 0.85752 0.64015 0.0
C972 C 0.12839 0.87332 0.61597 0.0
C973 C 0.10067 0.86862 0.59994 0.0
C974 C 0.06134 0.85854 0.60432 0.0
C975 C 0.0502 0.85305 0.62414 0.0
H976 H 0.21271 0.24734 0.38051 0.0
H977 H 0.12389 0.30289 0.36575 0.0
H978 H 0.17514 0.21954 0.3587 0.0
H979 H 0.086 0.27502 0.34405 0.0
H980 H 0.05232 0.22496 0.2917 0.0
H981 H 0.09097 0.25315 0.3128 0.0
H982 H 0.11014 0.1978 0.35702 0.0
H983 H 0.07331 0.16943 0.33538 0.0
C984 C 0.18495 0.25358 0.37273 0.0
C985 C 0.17128 0.27735 0.37495 0.0
C986 C 0.16333 0.23761 0.36023 0.0
C987 C 0.12736 0.24496 0.34965 0.0
C988 C 0.11388 0.2688 0.35174 0.0
C989 C 0.13561 0.2848 0.3642 0.0
C990 C 0.06537 0.21878 0.30579 0.0
C991 C 0.06055 0.19489 0.31167 0.0
C992 C 0.08702 0.235 0.31804 0.0
C993 C 0.10395 0.22777 0.33661 0.0
C994 C 0.09829 0.20392 0.34265 0.0
C995 C 0.07682 0.1877 0.33034 0.0
H996 H 0.39402 0.22372 0.87221 0.0
H997 H 0.28031 0.24732 0.843 0.0
H998 H 0.43301 0.25559 0.85556 0.0
H999 H 0.31946 0.27862 0.82591 0.0
H1000 H 0.39388 0.34701 0.81512 0.0
H1001 H 0.35592 0.31608 0.83328 0.0
H1002 H 0.45667 0.26625 0.82133 0.0
H1003 H 0.49448 0.29724 0.80293 0.0
C1004 C 0.37728 0.23579 0.86235 0.0
C1005 C 0.33401 0.23293 0.85895 0.0
C1006 C 0.39972 0.25387 0.85262 0.0
C1007 C 0.37939 0.26962 0.83936 0.0
C1008 C 0.33604 0.26695 0.83617 0.0
C1009 C 0.31366 0.24884 0.84582 0.0
C1010 C 0.40787 0.32943 0.81631 0.0
C1011 C 0.44709 0.32453 0.80753 0.0
C1012 C 0.3861 0.31169 0.82671 0.0
C1013 C 0.4032 0.28866 0.82874 0.0
C1014 C 0.44282 0.28387 0.82024 0.0
C1015 C 0.46446 0.3016 0.80968 0.0
H1016 H 0.70763 0.28018 0.66338 0.0
H1017 H 0.64288 0.22013 0.68953 0.0
H1018 H 0.67081 0.30716 0.68631 0.0
H1019 H 0.60599 0.24712 0.71245 0.0
H1020 H 0.57549 0.30033 0.763 0.0
H1021 H 0.61576 0.27348 0.74121 0.0
H1022 H 0.60092 0.32279 0.69186 0.0
H1023 H 0.56201 0.34993 0.71383 0.0
C1024 C 0.68534 0.27273 0.67393 0.0
C1025 C 0.67814 0.24796 0.67453 0.0
C1026 C 0.66421 0.28821 0.6871 0.0
C1027 C 0.63528 0.27936 0.70121 0.0
C1028 C 0.62846 0.25455 0.70198 0.0
C1029 C 0.64963 0.23906 0.68882 0.0
C1030 C 0.58139 0.30558 0.74758 0.0
C1031 C 0.56603 0.3274 0.74022 0.0
C1032 C 0.60404 0.29006 0.73502 0.0
C1033 C 0.61173 0.29597 0.71477 0.0
C1034 C 0.59621 0.31781 0.70744 0.0
C1035 C 0.57357 0.33329 0.71999 0.0
H1036 H 0.8314 0.31008 0.2227 0.0
H1037 H 0.81159 0.26219 0.17238 0.0
H1038 H 0.8705 0.27902 0.24013 0.0
H1039 H 0.85091 0.23108 0.18984 0.0
H1040 H 0.96252 0.19124 0.21786 0.0
H1041 H 0.92209 0.22174 0.20054 0.0
H1042 H 0.86078 0.24059 0.25646 0.0
H1043 H 0.90182 0.21032 0.27397 0.0
C1044 C 0.83499 0.29283 0.21542 0.0
C1045 C 0.81815 0.28864 0.19614 0.0
C1046 C 0.85744 0.27501 0.22544 0.0
C1047 C 0.86378 0.25251 0.21643 0.0
C1048 C 0.84708 0.24831 0.19712 0.0
C1049 C 0.82455 0.26615 0.18709 0.0
C1050 C 0.94042 0.20183 0.22653 0.0
C1051 C 0.93557 0.19827 0.24738 0.0
C1052 C 0.91701 0.21926 0.21652 0.0
C1053 C 0.88813 0.23363 0.22707 0.0
C1054 C 0.88312 0.23003 0.2479 0.0
C1055 C 0.90652 0.21256 0.25793 0.0
H1056 H 0.79184 0.74804 0.69304 0.0
H1057 H 0.90684 0.73841 0.65949 0.0
H1058 H 0.82712 0.77643 0.71534 0.0
H1059 H 0.94182 0.76723 0.6815 0.0
H1060 H 1.00041 0.80232 0.73779 0.0
H1061 H 0.96585 0.77216 0.71687 0.0
H1062 H 0.85611 0.81726 0.71281 0.0
H1063 H 0.89099 0.84756 0.73325 0.0
C1064 C 0.82471 0.75185 0.6905 0.0
C1065 C 0.84647 0.74097 0.67444 0.0
C1066 C 0.84481 0.7683 0.70316 0.0
C1067 C 0.88724 0.77416 0.70015 0.0
C1068 C 0.90921 0.76297 0.68432 0.0
C1069 C 0.88904 0.74665 0.67158 0.0
C1070 C 0.96908 0.80588 0.73224 0.0
C1071 C 0.94856 0.8274 0.73707 0.0
C1072 C 0.94924 0.78858 0.72031 0.0
C1073 C 0.90822 0.7923 0.71316 0.0
C1074 C 0.88753 0.8137 0.71824 0.0
C1075 C 0.90755 0.83109 0.72995 0.0
H1076 H 0.69259 0.76493 0.17118 0.0
H1077 H 0.63446 0.8164 0.21113 0.0
H1078 H 0.65441 0.73284 0.18785 0.0
H1079 H 0.59793 0.78432 0.22835 0.0
H1080 H 0.50835 0.72395 0.24364 0.0
H1081 H 0.54294 0.75558 0.22474 0.0
H1082 H 0.65402 0.71162 0.21929 0.0
H1083 H 0.6186 0.67963 0.23727 0.0
C1084 C 0.67153 0.76944 0.18343 0.0
C1085 C 0.66683 0.79329 0.18984 0.0
C1086 C 0.65001 0.75099 0.19318 0.0
C1087 C 0.6232 0.75591 0.20956 0.0
C1088 C 0.61795 0.77981 0.2157 0.0
C1089 C 0.63938 0.79823 0.20595 0.0
C1090 C 0.54005 0.721 0.23827 0.0
C1091 C 0.56079 0.69932 0.24205 0.0
C1092 C 0.56006 0.73921 0.22757 0.0
C1093 C 0.6014 0.73624 0.22048 0.0
C1094 C 0.62202 0.71447 0.22424 0.0
C1095 C 0.6019 0.69622 0.23481 0.0
H1096 H 0.30254 0.74352 0.38403 0.0
H1097 H 0.36183 0.80358 0.35506 0.0
H1098 H 0.33979 0.71627 0.36152 0.0
H1099 H 0.39906 0.77628 0.33249 0.0
H1100 H 0.42919 0.72072 0.28332 0.0
H1101 H 0.3889 0.74804 0.30471 0.0
H1102 H 0.41084 0.70216 0.35577 0.0
H1103 H 0.44986 0.67458 0.33432 0.0
C1104 C 0.32374 0.75093 0.37295 0.0
C1105 C 0.3293 0.77577 0.37146 0.0
C1106 C 0.34509 0.73528 0.36002 0.0
C1107 C 0.3726 0.74405 0.34523 0.0
C1108 C 0.37773 0.76891 0.34353 0.0
C1109 C 0.35636 0.78458 0.35648 0.0
C1110 C 0.42493 0.71633 0.29905 0.0
C1111 C 0.44232 0.69532 0.30705 0.0
C1112 C 0.40223 0.73213 0.31137 0.0
C1113 C 0.39646 0.72727 0.33197 0.0
C1114 C 0.41406 0.70629 0.33993 0.0
C1115 C 0.43675 0.69056 0.32764 0.0
H1116 H 0.13799 0.74139 0.87709 0.0
H1117 H 0.22731 0.73899 0.82815 0.0
H1118 H 0.09922 0.7729 0.85979 0.0
H1119 H 0.18857 0.77032 0.81088 0.0
H1120 H 0.0806 0.80411 0.77533 0.0
H1121 H 0.1213 0.7745 0.7937 0.0
H1122 H 0.10329 0.81468 0.84877 0.0
H1123 H 0.06252 0.8444 0.83033 0.0
C1124 C 0.14968 0.74778 0.86278 0.0
C1125 C 0.18558 0.73748 0.85394 0.0
C1126 C 0.12743 0.76583 0.85284 0.0
C1127 C 0.14056 0.77399 0.83384 0.0
C1128 C 0.17707 0.76412 0.82528 0.0
C1129 C 0.1993 0.74614 0.8352 0.0
C1130 C 0.08576 0.80682 0.79131 0.0
C1131 C 0.06881 0.82681 0.8013 0.0
C1132 C 0.10911 0.78982 0.80185 0.0
C1133 C 0.11582 0.79227 0.8227 0.0
C1134 C 0.09846 0.81215 0.83275 0.0
C1135 C 0.07522 0.82922 0.82217 0.0
loop_
_geom_bond_atom_site_label_1
_geom_bond_atom_site_label_2
_geom_bond_distance
_geom_bond_site_symmetry_2
_ccdc_geom_bond_type
C0 C1 1.264 . S
C0 C5 1.479 . S
C0 C10 1.465 . S
C1 C0 1.264 . S
C1 C3 1.339 . S
C1 H28 0.931 . S
C2 C3 1.395 . S
C2 C4 1.320 . S
C3 C1 1.339 . S
C3 C2 1.395 . S
C3 H29 0.929 . S
C4 C2 1.320 . S
C4 C5 1.405 . S
C4 H30 0.930 . S
C5 C0 1.479 . S
C5 C4 1.405 . S
C5 H31 0.931 . S
U6 O7 2.454 . S
U6 O8 2.458 . S
U6 C9 2.984 . S
U6 C10 2.847 . S
U6 C23 2.882 . S
U6 O24 2.441 . S
U6 O25 2.420 . S
U6 O26 2.455 . S
U6 O27 2.449 . S
O7 U6 2.454 . S
O7 C9 1.353 . S
O8 U6 2.458 . S
O8 C9 1.286 . S
C9 U6 2.984 . S
C9 O7 1.353 . S
C9 O8 1.286 . S
C9 C11 1.363 . S
C10 C0 1.465 . S
C10 U6 2.847 . S
C10 O24 1.249 . S
C10 O25 1.202 . S
C11 C9 1.363 . S
C11 C13 1.408 . S
C11 C16 1.342 . S
C12 C13 1.310 . S
C12 C15 1.461 . S
C12 H32 0.932 . S
C13 C11 1.408 . S
C13 C12 1.310 . S
C13 H33 0.930 . S
C14 C15 1.474 . S
C14 C16 1.285 . S
C14 H34 0.929 . S
C15 C12 1.461 . S
C15 C14 1.474 . S
C16 C11 1.342 . S
C16 C14 1.285 . S
C16 H35 0.930 . S
C17 C20 1.424 . S
C17 C22 1.245 . S
C17 C23 1.428 . S
C18 C21 1.260 . S
C18 C22 1.477 . S
C18 H36 0.932 . S
C19 C20 1.384 . S
C19 C21 1.479 . S
C19 H37 0.929 . S
C20 C17 1.424 . S
C20 C19 1.384 . S
C20 H38 0.928 . S
C21 C18 1.260 . S
C21 C19 1.479 . S
C22 C17 1.245 . S
C22 C18 1.477 . S
C22 H39 0.932 . S
C23 U6 2.882 . S
C23 C17 1.428 . S
C23 O26 1.301 . S
C23 O27 1.282 . S
O24 U6 2.441 . S
O24 C10 1.249 . S
O25 U6 2.420 . S
O25 C10 1.202 . S
O26 U6 2.455 . S
O26 C23 1.301 . S
O27 U6 2.449 . S
O27 C23 1.282 . S
H28 C1 0.931 . S
H29 C3 0.929 . S
H30 C4 0.930 . S
H31 C5 0.931 . S
H32 C12 0.932 . S
H33 C13 0.930 . S
H34 C14 0.929 . S
H35 C16 0.930 . S
H36 C18 0.932 . S
H37 C19 0.929 . S
H38 C20 0.928 . S
H39 C22 0.932 . S
C40 C41 1.264 . S
C40 C45 1.479 . S
C40 C50 1.465 . S
C41 C40 1.264 . S
C41 C43 1.339 . S
C41 H68 0.931 . S
C42 C43 1.395 1_554 S
C42 C44 1.340 . S
C43 C41 1.339 . S
C43 C42 1.395 1_556 S
C43 H69 0.929 1_556 S
C44 C42 1.340 . S
C44 C45 1.357 1_554 S
C44 H70 0.961 . S
C45 C40 1.479 . S
C45 C44 1.357 1_556 S
C45 H71 0.931 . S
U46 O47 2.454 . S
U46 O48 2.458 . S
U46 C49 2.984 . S
U46 C50 2.847 . S
U46 C63 2.882 . S
U46 O64 2.441 . S
U46 O65 2.420 . S
U46 O66 2.455 . S
U46 O67 2.449 . S
O47 U46 2.454 . S
O47 C49 1.353 . S
O48 U46 2.458 . S
O48 C49 1.286 . S
C49 U46 2.984 . S
C49 O47 1.353 . S
C49 O48 1.286 . S
C49 C51 1.363 . S
C50 C40 1.465 . S
C50 U46 2.847 . S
C50 O64 1.249 . S
C50 O65 1.202 . S
C51 C49 1.363 . S
C51 C53 1.408 . S
C51 C56 1.342 . S
C52 C53 1.310 . S
C52 C55 1.461 . S
C52 H72 0.932 . S
C53 C51 1.408 . S
C53 C52 1.310 . S
C53 H73 0.930 . S
C54 C55 1.474 . S
C54 C56 1.285 . S
C54 H74 0.929 . S
C55 C52 1.461 . S
C55 C54 1.474 . S
C56 C51 1.342 . S
C56 C54 1.285 . S
C56 H75 0.930 . S
C57 C60 1.424 . S
C57 C62 1.245 . S
C57 C63 1.428 . S
C58 C61 1.260 . S
C58 C62 1.477 . S
C58 H76 0.932 . S
C59 C60 1.384 . S
C59 C61 1.479 . S
C59 H77 0.929 . S
C60 C57 1.424 . S
C60 C59 1.384 . S
C60 H78 0.928 . S
C61 C58 1.260 . S
C61 C59 1.479 . S
C62 C57 1.245 . S
C62 C58 1.477 . S
C62 H79 0.932 . S
C63 U46 2.882 . S
C63 C57 1.428 . S
C63 O66 1.301 . S
C63 O67 1.282 . S
O64 U46 2.441 . S
O64 C50 1.249 . S
O65 U46 2.420 . S
O65 C50 1.202 . S
O66 U46 2.455 . S
O66 C63 1.301 . S
O67 U46 2.449 . S
O67 C63 1.282 . S
H68 C41 0.931 . S
H69 C43 0.929 1_554 S
H70 C44 0.961 . S
H71 C45 0.931 . S
H72 C52 0.932 . S
H73 C53 0.930 . S
H74 C54 0.929 . S
H75 C56 0.930 . S
H76 C58 0.932 . S
H77 C59 0.929 . S
H78 C60 0.928 . S
H79 C62 0.932 . S
C80 C81 1.264 . S
C80 C85 1.479 . S
C80 C90 1.465 . S
C81 C80 1.264 . S
C81 C83 1.339 . S
C81 H108 0.931 . S
C82 C83 1.395 . S
C82 C84 1.320 . S
C83 C81 1.339 . S
C83 C82 1.395 . S
C83 H109 0.929 . S
C84 C82 1.320 . S
C84 C85 1.405 . S
C84 H110 0.930 . S
C85 C80 1.479 . S
C85 C84 1.405 . S
C85 H111 0.931 . S
U86 O87 2.454 . S
U86 O88 2.458 . S
U86 C89 2.984 . S
U86 C90 2.847 . S
U86 C103 2.882 . S
U86 O104 2.441 . S
U86 O105 2.420 . S
U86 O106 2.455 . S
U86 O107 2.449 . S
O87 U86 2.454 . S
O87 C89 1.353 . S
O88 U86 2.458 . S
O88 C89 1.286 . S
C89 U86 2.984 . S
C89 O87 1.353 . S
C89 O88 1.286 . S
C89 C91 1.363 . S
C90 C80 1.465 . S
C90 U86 2.847 . S
C90 O104 1.249 . S
C90 O105 1.202 . S
C91 C89 1.363 . S
C91 C93 1.408 . S
C91 C96 1.342 . S
C92 C93 1.310 . S
C92 C95 1.461 . S
C92 H112 0.932 . S
C93 C91 1.408 . S
C93 C92 1.310 . S
C93 H113 0.930 . S
C94 C95 1.474 . S
C94 C96 1.285 . S
C94 H114 0.929 . S
C95 C92 1.461 . S
C95 C94 1.474 . S
C96 C91 1.342 . S
C96 C94 1.285 . S
C96 H115 0.930 . S
C97 C100 1.424 . S
C97 C102 1.245 . S
C97 C103 1.428 . S
C98 C101 1.260 . S
C98 C102 1.477 . S
C98 H116 0.932 . S
C99 C100 1.384 . S
C99 C101 1.479 . S
C99 H117 0.929 . S
C100 C97 1.424 . S
C100 C99 1.384 . S
C100 H118 0.928 . S
C101 C98 1.260 . S
C101 C99 1.479 . S
C102 C97 1.245 . S
C102 C98 1.477 . S
C102 H119 0.932 . S
C103 U86 2.882 . S
C103 C97 1.428 . S
C103 O106 1.301 . S
C103 O107 1.282 . S
O104 U86 2.441 . S
O104 C90 1.249 . S
O105 U86 2.420 . S
O105 C90 1.202 . S
O106 U86 2.455 . S
O106 C103 1.301 . S
O107 U86 2.449 . S
O107 C103 1.282 . S
H108 C81 0.931 . S
H109 C83 0.929 . S
H110 C84 0.930 . S
H111 C85 0.931 . S
H112 C92 0.932 . S
H113 C93 0.930 . S
H114 C94 0.929 . S
H115 C96 0.930 . S
H116 C98 0.932 . S
H117 C99 0.929 . S
H118 C100 0.928 . S
H119 C102 0.932 . S
C120 C121 1.264 . S
C120 C125 1.479 . S
C120 C130 1.465 . S
C121 C120 1.264 . S
C121 C123 1.339 . S
C121 H148 0.931 . S
C122 C123 1.395 1_556 S
C122 C124 1.320 1_556 S
C123 C121 1.339 . S
C123 C122 1.395 1_554 S
C123 H149 0.929 . S
C124 C122 1.320 1_554 S
C124 C125 1.405 . S
C124 H150 0.930 1_554 S
C125 C120 1.479 . S
C125 C124 1.405 . S
C125 H151 0.931 . S
U126 O127 2.454 . S
U126 O128 2.458 . S
U126 C129 2.984 . S
U126 C130 2.847 . S
U126 C143 2.882 . S
U126 O144 2.441 . S
U126 O145 2.420 . S
U126 O146 2.455 . S
U126 O147 2.449 . S
O127 U126 2.454 . S
O127 C129 1.353 . S
O128 U126 2.458 . S
O128 C129 1.286 . S
C129 U126 2.984 . S
C129 O127 1.353 . S
C129 O128 1.286 . S
C129 C131 1.363 . S
C130 C120 1.465 . S
C130 U126 2.847 . S
C130 O144 1.249 . S
C130 O145 1.202 . S
C131 C129 1.363 . S
C131 C133 1.408 . S
C131 C136 1.342 . S
C132 C133 1.310 . S
C132 C135 1.461 . S
C132 H152 0.932 . S
C133 C131 1.408 . S
C133 C132 1.310 . S
C133 H153 0.930 . S
C134 C135 1.474 . S
C134 C136 1.285 . S
C134 H154 0.929 . S
C135 C132 1.461 . S
C135 C134 1.474 . S
C136 C131 1.342 . S
C136 C134 1.285 . S
C136 H155 0.930 . S
C137 C140 1.424 . S
C137 C142 1.245 . S
C137 C143 1.428 . S
C138 C141 1.260 . S
C138 C142 1.477 . S
C138 H156 0.932 . S
C139 C140 1.384 . S
C139 C141 1.479 . S
C139 H157 0.929 . S
C140 C137 1.424 . S
C140 C139 1.384 . S
C140 H158 0.928 . S
C141 C138 1.260 . S
C141 C139 1.479 . S
C142 C137 1.245 . S
C142 C138 1.477 . S
C142 H159 0.932 . S
C143 U126 2.882 . S
C143 C137 1.428 . S
C143 O146 1.301 . S
C143 O147 1.282 . S
O144 U126 2.441 . S
O144 C130 1.249 . S
O145 U126 2.420 . S
O145 C130 1.202 . S
O146 U126 2.455 . S
O146 C143 1.301 . S
O147 U126 2.449 . S
O147 C143 1.282 . S
H148 C121 0.931 . S
H149 C123 0.929 . S
H150 C124 0.930 1_556 S
H151 C125 0.931 . S
H152 C132 0.932 . S
H153 C133 0.930 . S
H154 C134 0.929 . S
H155 C136 0.930 . S
H156 C138 0.932 . S
H157 C139 0.929 . S
H158 C140 0.928 . S
H159 C142 0.932 . S
C160 C161 1.264 . S
C160 C165 1.479 . S
C160 C170 1.465 . S
C161 C160 1.264 . S
C161 C163 1.339 . S
C161 H188 0.931 . S
C162 C163 1.395 . S
C162 C164 1.320 . S
C163 C161 1.339 . S
C163 C162 1.395 . S
C163 H189 0.929 . S
C164 C162 1.320 . S
C164 C165 1.405 . S
C164 H190 0.930 . S
C165 C160 1.479 . S
C165 C164 1.405 . S
C165 H191 0.931 . S
U166 O167 2.454 . S
U166 O168 2.458 . S
U166 C169 2.984 . S
U166 C170 2.847 . S
U166 C183 2.882 . S
U166 O184 2.441 . S
U166 O185 2.420 . S
U166 O186 2.455 . S
U166 O187 2.449 . S
O167 U166 2.454 . S
O167 C169 1.353 . S
O168 U166 2.458 . S
O168 C169 1.286 . S
C169 U166 2.984 . S
C169 O167 1.353 . S
C169 O168 1.286 . S
C169 C171 1.363 . S
C170 C160 1.465 . S
C170 U166 2.847 . S
C170 O184 1.249 . S
C170 O185 1.202 . S
C171 C169 1.363 . S
C171 C173 1.408 . S
C171 C176 1.342 . S
C172 C173 1.310 . S
C172 C175 1.461 . S
C172 H192 0.932 . S
C173 C171 1.408 . S
C173 C172 1.310 . S
C173 H193 0.930 . S
C174 C175 1.474 . S
C174 C176 1.285 . S
C174 H194 0.929 . S
C175 C172 1.461 . S
C175 C174 1.474 . S
C176 C171 1.342 . S
C176 C174 1.285 . S
C176 H195 0.930 . S
C177 C180 1.424 . S
C177 C182 1.245 . S
C177 C183 1.428 . S
C178 C181 1.260 . S
C178 C182 1.477 . S
C178 H196 0.932 . S
C179 C180 1.384 . S
C179 C181 1.479 . S
C179 H197 0.929 . S
C180 C177 1.424 . S
C180 C179 1.384 . S
C180 H198 0.928 . S
C181 C178 1.260 . S
C181 C179 1.479 . S
C182 C177 1.245 . S
C182 C178 1.477 . S
C182 H199 0.932 . S
C183 U166 2.882 . S
C183 C177 1.428 . S
C183 O186 1.301 . S
C183 O187 1.282 . S
O184 U166 2.441 . S
O184 C170 1.249 . S
O185 U166 2.420 . S
O185 C170 1.202 . S
O186 U166 2.455 . S
O186 C183 1.301 . S
O187 U166 2.449 . S
O187 C183 1.282 . S
H188 C161 0.931 . S
H189 C163 0.929 . S
H190 C164 0.930 . S
H191 C165 0.931 . S
H192 C172 0.932 . S
H193 C173 0.930 . S
H194 C174 0.929 . S
H195 C176 0.930 . S
H196 C178 0.932 . S
H197 C179 0.929 . S
H198 C180 0.928 . S
H199 C182 0.932 . S
C200 C201 1.264 . S
C200 C205 1.479 . S
C200 C210 1.465 . S
C201 C200 1.264 . S
C201 C203 1.339 . S
C201 H228 0.931 . S
C202 C203 1.395 1_556 S
C202 C204 1.320 . S
C203 C201 1.339 . S
C203 C202 1.395 1_554 S
C203 H229 0.929 1_554 S
C204 C202 1.320 . S
C204 C205 1.405 1_556 S
C204 H230 0.930 . S
C205 C200 1.479 . S
C205 C204 1.405 1_554 S
C205 H231 0.931 . S
U206 O207 2.454 . S
U206 O208 2.458 . S
U206 C209 2.984 . S
U206 C210 2.847 . S
U206 C223 2.882 . S
U206 O224 2.441 . S
U206 O225 2.420 . S
U206 O226 2.455 . S
U206 O227 2.449 . S
O207 U206 2.454 . S
O207 C209 1.353 . S
O208 U206 2.458 . S
O208 C209 1.286 . S
C209 U206 2.984 . S
C209 O207 1.353 . S
C209 O208 1.286 . S
C209 C211 1.363 . S
C210 C200 1.465 . S
C210 U206 2.847 . S
C210 O224 1.249 . S
C210 O225 1.202 . S
C211 C209 1.363 . S
C211 C213 1.408 . S
C211 C216 1.342 . S
C212 C213 1.310 . S
C212 C215 1.461 . S
C212 H232 0.932 . S
C213 C211 1.408 . S
C213 C212 1.310 . S
C213 H233 0.930 . S
C214 C215 1.474 . S
C214 C216 1.285 . S
C214 H234 0.929 . S
C215 C212 1.461 . S
C215 C214 1.474 . S
C216 C211 1.342 . S
C216 C214 1.285 . S
C216 H235 0.930 . S
C217 C220 1.424 . S
C217 C222 1.245 . S
C217 C223 1.428 . S
C218 C221 1.260 . S
C218 C222 1.477 . S
C218 H236 0.932 . S
C219 C220 1.384 . S
C219 C221 1.479 . S
C219 H237 0.929 . S
C220 C217 1.424 . S
C220 C219 1.384 . S
C220 H238 0.928 . S
C221 C218 1.260 . S
C221 C219 1.479 . S
C222 C217 1.245 . S
C222 C218 1.477 . S
C222 H239 0.932 . S
C223 U206 2.882 . S
C223 C217 1.428 . S
C223 O226 1.301 . S
C223 O227 1.282 . S
O224 U206 2.441 . S
O224 C210 1.249 . S
O225 U206 2.420 . S
O225 C210 1.202 . S
O226 U206 2.455 . S
O226 C223 1.301 . S
O227 U206 2.449 . S
O227 C223 1.282 . S
H228 C201 0.931 . S
H229 C203 0.929 1_556 S
H230 C204 0.930 . S
H231 C205 0.931 . S
H232 C212 0.932 . S
H233 C213 0.930 . S
H234 C214 0.929 . S
H235 C216 0.930 . S
H236 C218 0.932 . S
H237 C219 0.929 . S
H238 C220 0.928 . S
H239 C222 0.932 . S
C240 C241 1.264 . S
C240 C245 1.479 . S
C240 C250 1.465 . S
C241 C240 1.264 . S
C241 C243 1.339 . S
C241 H268 0.931 . S
C242 C243 1.395 . S
C242 C244 1.320 . S
C243 C241 1.339 . S
C243 C242 1.395 . S
C243 H269 0.929 . S
C244 C242 1.320 . S
C244 C245 1.405 . S
C244 H270 0.930 . S
C245 C240 1.479 . S
C245 C244 1.405 . S
C245 H271 0.931 . S
U246 O247 2.454 . S
U246 O248 2.458 . S
U246 C249 2.984 . S
U246 C250 2.847 . S
U246 C263 2.882 . S
U246 O264 2.441 . S
U246 O265 2.420 . S
U246 O266 2.455 . S
U246 O267 2.449 . S
O247 U246 2.454 . S
O247 C249 1.353 . S
O248 U246 2.458 . S
O248 C249 1.286 . S
C249 U246 2.984 . S
C249 O247 1.353 . S
C249 O248 1.286 . S
C249 C251 1.363 . S
C250 C240 1.465 . S
C250 U246 2.847 . S
C250 O264 1.249 . S
C250 O265 1.202 . S
C251 C249 1.363 . S
C251 C253 1.408 . S
C251 C256 1.342 . S
C252 C253 1.310 . S
C252 C255 1.461 . S
C252 H272 0.932 . S
C253 C251 1.408 . S
C253 C252 1.310 . S
C253 H273 0.930 . S
C254 C255 1.474 . S
C254 C256 1.285 . S
C254 H274 0.929 . S
C255 C252 1.461 . S
C255 C254 1.474 . S
C256 C251 1.342 . S
C256 C254 1.285 . S
C256 H275 0.930 . S
C257 C260 1.424 . S
C257 C262 1.245 . S
C257 C263 1.428 . S
C258 C261 1.260 . S
C258 C262 1.477 . S
C258 H276 0.932 . S
C259 C260 1.384 . S
C259 C261 1.479 . S
C259 H277 0.929 . S
C260 C257 1.424 . S
C260 C259 1.384 . S
C260 H278 0.928 . S
C261 C258 1.260 . S
C261 C259 1.479 . S
C262 C257 1.245 . S
C262 C258 1.477 . S
C262 H279 0.932 . S
C263 U246 2.882 . S
C263 C257 1.428 . S
C263 O266 1.301 . S
C263 O267 1.282 . S
O264 U246 2.441 . S
O264 C250 1.249 . S
O265 U246 2.420 . S
O265 C250 1.202 . S
O266 U246 2.455 . S
O266 C263 1.301 . S
O267 U246 2.449 . S
O267 C263 1.282 . S
H268 C241 0.931 . S
H269 C243 0.929 . S
H270 C244 0.930 . S
H271 C245 0.931 . S
H272 C252 0.932 . S
H273 C253 0.930 . S
H274 C254 0.929 . S
H275 C256 0.930 . S
H276 C258 0.932 . S
H277 C259 0.929 . S
H278 C260 0.928 . S
H279 C262 0.932 . S
C280 C281 1.264 . S
C280 C285 1.479 . S
C280 C290 1.465 . S
C281 C280 1.264 . S
C281 C283 1.339 . S
C281 H308 0.931 . S
C282 C283 1.395 1_554 S
C282 C284 1.298 1_554 S
C283 C281 1.339 . S
C283 C282 1.395 1_556 S
C283 H309 0.910 1_556 S
C284 C282 1.298 1_556 S
C284 C285 1.459 . S
C284 H310 0.900 1_556 S
C285 C280 1.479 . S
C285 C284 1.459 . S
C285 H311 0.931 . S
U286 O287 2.454 . S
U286 O288 2.458 . S
U286 C289 2.984 . S
U286 C290 2.847 . S
U286 C303 2.882 . S
U286 O304 2.441 . S
U286 O305 2.420 . S
U286 O306 2.455 . S
U286 O307 2.449 . S
O287 U286 2.454 . S
O287 C289 1.353 . S
O288 U286 2.458 . S
O288 C289 1.286 . S
C289 U286 2.984 . S
C289 O287 1.353 . S
C289 O288 1.286 . S
C289 C291 1.363 . S
C290 C280 1.465 . S
C290 U286 2.847 . S
C290 O304 1.249 . S
C290 O305 1.202 . S
C291 C289 1.363 . S
C291 C293 1.408 . S
C291 C296 1.342 . S
C292 C293 1.310 . S
C292 C295 1.461 . S
C292 H312 0.932 . S
C293 C291 1.408 . S
C293 C292 1.310 . S
C293 H313 0.930 . S
C294 C295 1.474 . S
C294 C296 1.285 . S
C294 H314 0.929 . S
C295 C292 1.461 . S
C295 C294 1.474 . S
C296 C291 1.342 . S
C296 C294 1.285 . S
C296 H315 0.930 . S
C297 C300 1.424 . S
C297 C302 1.245 . S
C297 C303 1.428 . S
C298 C301 1.260 . S
C298 C302 1.477 . S
C298 H316 0.932 . S
C299 C300 1.384 . S
C299 C301 1.479 . S
C299 H317 0.929 . S
C300 C297 1.424 . S
C300 C299 1.384 . S
C300 H318 0.928 . S
C301 C298 1.260 . S
C301 C299 1.479 . S
C302 C297 1.245 . S
C302 C298 1.477 . S
C302 H319 0.932 . S
C303 U286 2.882 . S
C303 C297 1.428 . S
C303 O306 1.301 . S
C303 O307 1.282 . S
O304 U286 2.441 . S
O304 C290 1.249 . S
O305 U286 2.420 . S
O305 C290 1.202 . S
O306 U286 2.455 . S
O306 C303 1.301 . S
O307 U286 2.449 . S
O307 C303 1.282 . S
H308 C281 0.931 . S
H309 C283 0.910 1_554 S
H310 C284 0.900 1_554 S
H311 C285 0.931 . S
H312 C292 0.932 . S
H313 C293 0.930 . S
H314 C294 0.929 . S
H315 C296 0.930 . S
H316 C298 0.932 . S
H317 C299 0.929 . S
H318 C300 0.928 . S
H319 C302 0.932 . S
Eu320 N349 2.600 . S
Eu320 N355 2.562 . S
Eu320 O364 2.462 . S
Eu320 O365 2.373 . S
Eu320 O367 2.432 . S
Eu320 O368 2.291 . S
Eu320 O372 2.335 . S
Eu320 O375 2.372 . S
Eu320 C384 2.787 . S
C321 N322 1.365 . S
C321 C324 1.405 . S
C321 C328 1.448 . S
N322 C321 1.365 . S
N322 C325 1.319 . S
N322 Eu331 2.600 . S
C323 C325 1.397 . S
C323 C326 1.367 . S
C323 H343 0.931 . S
C324 C321 1.405 . S
C324 C326 1.403 . S
C324 C330 1.439 . S
C325 N322 1.319 . S
C325 C323 1.397 . S
C325 H336 0.930 . S
C326 C323 1.367 . S
C326 C324 1.403 . S
C326 H347 0.929 . S
C327 C328 1.430 . S
C327 C329 1.387 . S
C327 C333 1.404 . S
C328 C321 1.448 . S
C328 C327 1.430 . S
C328 N332 1.351 . S
C329 C327 1.387 . S
C329 C330 1.374 . S
C329 H344 0.931 . S
C330 C324 1.439 . S
C330 C329 1.374 . S
C330 H345 0.931 . S
Eu331 N322 2.600 . S
Eu331 N332 2.562 . S
Eu331 O366 2.326 1_655 S
Eu331 O369 2.372 . S
Eu331 O370 2.462 . S
Eu331 O371 2.373 . S
Eu331 O373 2.432 . S
Eu331 O374 2.291 1_655 S
Eu331 C395 2.787 . S
N332 C328 1.351 . S
N332 Eu331 2.562 . S
N332 C334 1.325 . S
C333 C327 1.404 . S
C333 C335 1.366 . S
C333 H341 0.930 . S
C334 N332 1.325 . S
C334 C335 1.416 . S
C334 H340 0.929 . S
C335 C333 1.366 . S
C335 C334 1.416 . S
C335 H337 0.930 . S
H336 C325 0.930 . S
H337 C335 0.930 . S
H338 C353 0.930 . S
H339 C360 0.930 . S
H340 C334 0.929 . S
H341 C333 0.930 . S
H342 C356 0.929 . S
H343 C323 0.931 . S
H344 C329 0.931 . S
H345 C330 0.931 . S
H346 C351 0.931 . S
H347 C326 0.929 . S
H348 C359 0.930 . S
N349 Eu320 2.600 . S
N349 C350 1.365 . S
N349 C353 1.319 . S
C350 N349 1.365 . S
C350 C352 1.405 . S
C350 C358 1.448 . S
C351 H346 0.931 . S
C351 C353 1.397 . S
C351 C354 1.367 . S
C352 C350 1.405 . S
C352 C354 1.403 . S
C352 C385 1.439 . S
C353 H338 0.930 . S
C353 N349 1.319 . S
C353 C351 1.397 . S
C354 C351 1.367 . S
C354 C352 1.403 . S
C354 H361 0.929 . S
N355 Eu320 2.562 . S
N355 C356 1.325 . S
N355 C358 1.351 . S
C356 H342 0.929 . S
C356 N355 1.325 . S
C356 C360 1.416 . S
C357 C358 1.430 . S
C357 C359 1.404 . S
C357 C386 1.387 . S
C358 C350 1.448 . S
C358 N355 1.351 . S
C358 C357 1.430 . S
C359 H348 0.930 . S
C359 C357 1.404 . S
C359 C360 1.366 . S
C360 H339 0.930 . S
C360 C356 1.416 . S
C360 C359 1.366 . S
H361 C354 0.929 . S
H362 C385 0.931 . S
H363 C386 0.931 . S
O364 Eu320 2.462 . S
O364 C384 1.252 . S
O365 Eu320 2.373 . S
O365 C376 1.249 . S
O366 Eu331 2.326 1_455 S
O366 C376 1.275 . S
O367 Eu320 2.432 . S
O367 C384 1.268 . S
O368 Eu320 2.291 . S
O368 C383 1.255 1_455 S
O369 Eu331 2.372 . S
O369 C383 1.257 . S
O370 Eu331 2.462 . S
O370 C395 1.252 . S
O371 Eu331 2.373 . S
O371 C387 1.249 . S
O372 Eu320 2.335 . S
O372 C387 1.264 1_455 S
O373 Eu331 2.432 . S
O373 C395 1.268 . S
O374 Eu331 2.291 1_455 S
O374 C394 1.255 . S
O375 Eu320 2.372 . S
O375 C394 1.257 . S
C376 O365 1.249 . S
C376 O366 1.275 . S
C377 C380 1.382 . S
C377 C382 1.390 . S
C377 C384 1.506 . S
C378 C379 1.398 . S
C378 C382 1.392 . S
C379 C378 1.398 . S
C379 C381 1.372 . S
C379 H396 0.931 . S
C380 C377 1.382 . S
C380 C381 1.390 . S
C380 H397 0.931 . S
C381 C379 1.372 . S
C381 C380 1.390 . S
C381 H398 0.929 . S
C382 C377 1.390 . S
C382 C378 1.392 . S
C382 H399 0.930 . S
C383 O368 1.255 1_655 S
C383 O369 1.257 . S
C384 Eu320 2.787 . S
C384 O364 1.252 . S
C384 O367 1.268 . S
C384 C377 1.506 . S
C385 C352 1.439 . S
C385 H362 0.931 . S
C385 C386 1.374 . S
C386 C357 1.387 . S
C386 H363 0.931 . S
C386 C385 1.374 . S
C387 O371 1.249 . S
C387 O372 1.264 1_655 S
C388 C391 1.382 . S
C388 C392 1.390 . S
C388 C395 1.506 . S
C389 C390 1.398 . S
C389 C392 1.392 . S
C390 C389 1.398 . S
C390 C393 1.372 . S
C390 H400 0.931 . S
C391 C388 1.382 . S
C391 C393 1.390 . S
C391 H401 0.931 . S
C392 C388 1.390 . S
C392 C389 1.392 . S
C392 H402 0.930 . S
C393 C390 1.372 . S
C393 C391 1.390 . S
C393 H403 0.929 . S
C394 O374 1.255 . S
C394 O375 1.257 . S
C395 Eu331 2.787 . S
C395 O370 1.252 . S
C395 O373 1.268 . S
C395 C388 1.506 . S
H396 C379 0.931 . S
H397 C380 0.931 . S
H398 C381 0.929 . S
H399 C382 0.930 . S
H400 C390 0.931 . S
H401 C391 0.931 . S
H402 C392 0.930 . S
H403 C393 0.929 . S
Eu404 N433 2.600 . S
Eu404 N439 2.562 . S
Eu404 O448 2.462 . S
Eu404 O449 2.373 . S
Eu404 O451 2.432 . S
Eu404 O452 2.291 . S
Eu404 O456 2.335 . S
Eu404 O459 2.372 . S
Eu404 C468 2.787 . S
C405 N406 1.365 . S
C405 C408 1.405 . S
C405 C412 1.448 . S
N406 C405 1.365 . S
N406 C409 1.319 . S
N406 Eu415 2.600 . S
C407 C409 1.397 . S
C407 C410 1.367 . S
C407 H427 0.931 . S
C408 C405 1.405 . S
C408 C410 1.403 . S
C408 C414 1.439 . S
C409 N406 1.319 . S
C409 C407 1.397 . S
C409 H420 0.930 . S
C410 C407 1.367 . S
C410 C408 1.403 . S
C410 H431 0.929 . S
C411 C412 1.430 . S
C411 C413 1.387 . S
C411 C417 1.404 . S
C412 C405 1.448 . S
C412 C411 1.430 . S
C412 N416 1.351 . S
C413 C411 1.387 . S
C413 C414 1.374 . S
C413 H428 0.931 . S
C414 C408 1.439 . S
C414 C413 1.374 . S
C414 H429 0.931 . S
Eu415 N406 2.600 . S
Eu415 N416 2.562 . S
Eu415 O450 2.335 . S
Eu415 O453 2.372 . S
Eu415 O454 2.462 . S
Eu415 O455 2.373 . S
Eu415 O457 2.432 . S
Eu415 O458 2.291 . S
Eu415 C479 2.787 . S
N416 C412 1.351 . S
N416 Eu415 2.562 . S
N416 C418 1.325 . S
C417 C411 1.404 . S
C417 C419 1.366 . S
C417 H425 0.930 . S
C418 N416 1.325 . S
C418 C419 1.416 . S
C418 H424 0.929 . S
C419 C417 1.366 . S
C419 C418 1.416 . S
C419 H421 0.930 . S
H420 C409 0.930 . S
H421 C419 0.930 . S
H422 C437 0.930 . S
H423 C444 0.930 . S
H424 C418 0.929 . S
H425 C417 0.930 . S
H426 C440 0.929 . S
H427 C407 0.931 . S
H428 C413 0.931 . S
H429 C414 0.931 . S
H430 C435 0.931 . S
H431 C410 0.929 . S
H432 C443 0.930 . S
N433 Eu404 2.600 . S
N433 C434 1.365 . S
N433 C437 1.319 . S
C434 N433 1.365 . S
C434 C436 1.405 . S
C434 C442 1.448 . S
C435 H430 0.931 . S
C435 C437 1.397 . S
C435 C438 1.367 . S
C436 C434 1.405 . S
C436 C438 1.403 . S
C436 C469 1.439 . S
C437 H422 0.930 . S
C437 N433 1.319 . S
C437 C435 1.397 . S
C438 C435 1.367 . S
C438 C436 1.403 . S
C438 H445 0.929 . S
N439 Eu404 2.562 . S
N439 C440 1.325 . S
N439 C442 1.351 . S
C440 H426 0.929 . S
C440 N439 1.325 . S
C440 C444 1.416 . S
C441 C442 1.430 . S
C441 C443 1.404 . S
C441 C470 1.387 . S
C442 C434 1.448 . S
C442 N439 1.351 . S
C442 C441 1.430 . S
C443 H432 0.930 . S
C443 C441 1.404 . S
C443 C444 1.366 . S
C444 H423 0.930 . S
C444 C440 1.416 . S
C444 C443 1.366 . S
H445 C438 0.929 . S
H446 C469 0.931 . S
H447 C470 0.931 . S
O448 Eu404 2.462 . S
O448 C468 1.252 . S
O449 Eu404 2.373 . S
O449 C460 1.249 . S
O450 Eu415 2.335 . S
O450 C460 1.264 . S
O451 Eu404 2.432 . S
O451 C468 1.268 . S
O452 Eu404 2.291 . S
O452 C467 1.255 . S
O453 Eu415 2.372 . S
O453 C467 1.257 . S
O454 Eu415 2.462 . S
O454 C479 1.252 . S
O455 Eu415 2.373 . S
O455 C471 1.249 . S
O456 Eu404 2.335 . S
O456 C471 1.264 . S
O457 Eu415 2.432 . S
O457 C479 1.268 . S
O458 Eu415 2.291 . S
O458 C478 1.255 . S
O459 Eu404 2.372 . S
O459 C478 1.257 . S
C460 O449 1.249 . S
C460 O450 1.264 . S
C461 C464 1.382 . S
C461 C466 1.390 . S
C461 C468 1.506 . S
C462 C463 1.398 . S
C462 C466 1.392 . S
C463 C462 1.398 . S
C463 C465 1.372 . S
C463 H480 0.931 . S
C464 C461 1.382 . S
C464 C465 1.390 . S
C464 H481 0.931 . S
C465 C463 1.372 . S
C465 C464 1.390 . S
C465 H482 0.929 . S
C466 C461 1.390 . S
C466 C462 1.392 . S
C466 H483 0.930 . S
C467 O452 1.255 . S
C467 O453 1.257 . S
C468 Eu404 2.787 . S
C468 O448 1.252 . S
C468 O451 1.268 . S
C468 C461 1.506 . S
C469 C436 1.439 . S
C469 H446 0.931 . S
C469 C470 1.374 . S
C470 C441 1.387 . S
C470 H447 0.931 . S
C470 C469 1.374 . S
C471 O455 1.249 . S
C471 O456 1.264 . S
C472 C475 1.382 . S
C472 C476 1.390 . S
C472 C479 1.506 . S
C473 C474 1.398 . S
C473 C476 1.392 . S
C474 C473 1.398 . S
C474 C477 1.372 . S
C474 H484 0.931 . S
C475 C472 1.382 . S
C475 C477 1.390 . S
C475 H485 0.931 . S
C476 C472 1.390 . S
C476 C473 1.392 . S
C476 H486 0.930 . S
C477 C474 1.372 . S
C477 C475 1.390 . S
C477 H487 0.929 . S
C478 O458 1.255 . S
C478 O459 1.257 . S
C479 Eu415 2.787 . S
C479 O454 1.252 . S
C479 O457 1.268 . S
C479 C472 1.506 . S
H480 C463 0.931 . S
H481 C464 0.931 . S
H482 C465 0.929 . S
H483 C466 0.930 . S
H484 C474 0.931 . S
H485 C475 0.931 . S
H486 C476 0.930 . S
H487 C477 0.929 . S
Eu488 N517 2.600 . S
Eu488 N523 2.562 . S
Eu488 O532 2.462 . S
Eu488 O533 2.373 . S
Eu488 O535 2.432 . S
Eu488 O536 2.291 . S
Eu488 O540 2.335 . S
Eu488 O543 2.372 . S
Eu488 C552 2.787 . S
C489 N490 1.365 . S
C489 C492 1.405 . S
C489 C496 1.448 . S
N490 C489 1.365 . S
N490 C493 1.319 . S
N490 Eu499 2.600 . S
C491 C493 1.397 . S
C491 C494 1.367 . S
C491 H511 0.931 . S
C492 C489 1.405 . S
C492 C494 1.403 . S
C492 C498 1.439 . S
C493 N490 1.319 . S
C493 C491 1.397 . S
C493 H504 0.930 . S
C494 C491 1.367 . S
C494 C492 1.403 . S
C494 H515 0.929 . S
C495 C496 1.430 . S
C495 C497 1.387 . S
C495 C501 1.404 . S
C496 C489 1.448 . S
C496 C495 1.430 . S
C496 N500 1.351 . S
C497 C495 1.387 . S
C497 C498 1.374 . S
C497 H512 0.931 . S
C498 C492 1.439 . S
C498 C497 1.374 . S
C498 H513 0.931 . S
Eu499 N490 2.600 . S
Eu499 N500 2.562 . S
Eu499 O534 2.335 1_655 S
Eu499 O537 2.372 . S
Eu499 O538 2.462 . S
Eu499 O539 2.373 . S
Eu499 O541 2.432 . S
Eu499 O542 2.291 1_655 S
Eu499 C563 2.787 . S
N500 C496 1.351 . S
N500 Eu499 2.562 . S
N500 C502 1.325 . S
C501 C495 1.404 . S
C501 C503 1.366 . S
C501 H509 0.930 . S
C502 N500 1.325 . S
C502 C503 1.416 . S
C502 H508 0.929 . S
C503 C501 1.366 . S
C503 C502 1.416 . S
C503 H505 0.930 . S
H504 C493 0.930 . S
H505 C503 0.930 . S
H506 C521 0.930 . S
H507 C528 0.930 . S
H508 C502 0.929 . S
H509 C501 0.930 . S
H510 C524 0.929 . S
H511 C491 0.931 . S
H512 C497 0.931 . S
H513 C498 0.931 . S
H514 C519 0.931 . S
H515 C494 0.929 . S
H516 C527 0.930 . S
N517 Eu488 2.600 . S
N517 C518 1.365 . S
N517 C521 1.319 . S
C518 N517 1.365 . S
C518 C520 1.405 . S
C518 C526 1.448 . S
C519 H514 0.931 . S
C519 C521 1.397 . S
C519 C522 1.367 . S
C520 C518 1.405 . S
C520 C522 1.403 . S
C520 C553 1.439 . S
C521 H506 0.930 . S
C521 N517 1.319 . S
C521 C519 1.397 . S
C522 C519 1.367 . S
C522 C520 1.403 . S
C522 H529 0.929 . S
N523 Eu488 2.562 . S
N523 C524 1.325 . S
N523 C526 1.351 . S
C524 H510 0.929 . S
C524 N523 1.325 . S
C524 C528 1.416 . S
C525 C526 1.430 . S
C525 C527 1.404 . S
C525 C554 1.387 . S
C526 C518 1.448 . S
C526 N523 1.351 . S
C526 C525 1.430 . S
C527 H516 0.930 . S
C527 C525 1.404 . S
C527 C528 1.366 . S
C528 H507 0.930 . S
C528 C524 1.416 . S
C528 C527 1.366 . S
H529 C522 0.929 . S
H530 C553 0.931 . S
H531 C554 0.931 . S
O532 Eu488 2.462 . S
O532 C552 1.252 . S
O533 Eu488 2.373 . S
O533 C544 1.249 . S
O534 Eu499 2.335 1_455 S
O534 C544 1.264 . S
O535 Eu488 2.432 . S
O535 C552 1.268 . S
O536 Eu488 2.291 . S
O536 C551 1.255 1_455 S
O537 Eu499 2.372 . S
O537 C551 1.257 . S
O538 Eu499 2.462 . S
O538 C563 1.252 . S
O539 Eu499 2.373 . S
O539 C555 1.249 . S
O540 Eu488 2.335 . S
O540 C555 1.264 1_455 S
O541 Eu499 2.432 . S
O541 C563 1.268 . S
O542 Eu499 2.291 1_455 S
O542 C562 1.255 . S
O543 Eu488 2.372 . S
O543 C562 1.257 . S
C544 O533 1.249 . S
C544 O534 1.264 . S
C545 C548 1.382 . S
C545 C550 1.390 . S
C545 C552 1.506 . S
C546 C547 1.398 . S
C546 C550 1.392 . S
C547 C546 1.398 . S
C547 C549 1.372 . S
C547 H564 0.931 . S
C548 C545 1.382 . S
C548 C549 1.390 . S
C548 H565 0.931 . S
C549 C547 1.372 . S
C549 C548 1.390 . S
C549 H566 0.929 . S
C550 C545 1.390 . S
C550 C546 1.392 . S
C550 H567 0.930 . S
C551 O536 1.255 1_655 S
C551 O537 1.257 . S
C552 Eu488 2.787 . S
C552 O532 1.252 . S
C552 O535 1.268 . S
C552 C545 1.506 . S
C553 C520 1.439 . S
C553 H530 0.931 . S
C553 C554 1.374 . S
C554 C525 1.387 . S
C554 H531 0.931 . S
C554 C553 1.374 . S
C555 O539 1.249 . S
C555 O540 1.264 1_655 S
C556 C559 1.382 . S
C556 C560 1.390 . S
C556 C563 1.506 . S
C557 C558 1.398 . S
C557 C560 1.392 . S
C558 C557 1.398 . S
C558 C561 1.372 . S
C558 H568 0.931 . S
C559 C556 1.382 . S
C559 C561 1.390 . S
C559 H569 0.931 . S
C560 C556 1.390 . S
C560 C557 1.392 . S
C560 H570 0.930 . S
C561 C558 1.372 . S
C561 C559 1.390 . S
C561 H571 0.929 . S
C562 O542 1.255 . S
C562 O543 1.257 . S
C563 Eu499 2.787 . S
C563 O538 1.252 . S
C563 O541 1.268 . S
C563 C556 1.506 . S
H564 C547 0.931 . S
H565 C548 0.931 . S
H566 C549 0.929 . S
H567 C550 0.930 . S
H568 C558 0.931 . S
H569 C559 0.931 . S
H570 C560 0.930 . S
H571 C561 0.929 . S
Eu572 N601 2.600 . S
Eu572 N607 2.562 . S
Eu572 O616 2.462 . S
Eu572 O617 2.373 . S
Eu572 O619 2.432 . S
Eu572 O620 2.291 . S
Eu572 O624 2.335 . S
Eu572 O627 2.372 . S
Eu572 C636 2.787 . S
C573 N574 1.365 . S
C573 C576 1.405 . S
C573 C580 1.448 . S
N574 C573 1.365 . S
N574 C577 1.319 . S
N574 Eu583 2.600 . S
C575 C577 1.397 . S
C575 C578 1.367 . S
C575 H595 0.931 . S
C576 C573 1.405 . S
C576 C578 1.403 . S
C576 C582 1.439 . S
C577 N574 1.319 . S
C577 C575 1.397 . S
C577 H588 0.930 . S
C578 C575 1.367 . S
C578 C576 1.403 . S
C578 H599 0.929 . S
C579 C580 1.430 . S
C579 C581 1.387 . S
C579 C585 1.404 . S
C580 C573 1.448 . S
C580 C579 1.430 . S
C580 N584 1.351 . S
C581 C579 1.387 . S
C581 C582 1.374 . S
C581 H596 0.931 . S
C582 C576 1.439 . S
C582 C581 1.374 . S
C582 H597 0.931 . S
Eu583 N574 2.600 . S
Eu583 N584 2.562 . S
Eu583 O618 2.335 . S
Eu583 O621 2.372 . S
Eu583 O622 2.462 . S
Eu583 O623 2.373 . S
Eu583 O625 2.432 . S
Eu583 O626 2.291 . S
Eu583 C647 2.787 . S
N584 C580 1.351 . S
N584 Eu583 2.562 . S
N584 C586 1.325 . S
C585 C579 1.404 . S
C585 C587 1.366 . S
C585 H593 0.930 . S
C586 N584 1.325 . S
C586 C587 1.416 . S
C586 H592 0.929 . S
C587 C585 1.366 . S
C587 C586 1.416 . S
C587 H589 0.930 . S
H588 C577 0.930 . S
H589 C587 0.930 . S
H590 C605 0.930 . S
H591 C612 0.930 . S
H592 C586 0.929 . S
H593 C585 0.930 . S
H594 C608 0.929 . S
H595 C575 0.931 . S
H596 C581 0.931 . S
H597 C582 0.931 . S
H598 C603 0.931 . S
H599 C578 0.929 . S
H600 C611 0.930 . S
N601 Eu572 2.600 . S
N601 C602 1.365 . S
N601 C605 1.319 . S
C602 N601 1.365 . S
C602 C604 1.405 . S
C602 C610 1.448 . S
C603 H598 0.931 . S
C603 C605 1.397 . S
C603 C606 1.367 . S
C604 C602 1.405 . S
C604 C606 1.403 . S
C604 C637 1.439 . S
C605 H590 0.930 . S
C605 N601 1.319 . S
C605 C603 1.397 . S
C606 C603 1.367 . S
C606 C604 1.403 . S
C606 H613 0.929 . S
N607 Eu572 2.562 . S
N607 C608 1.325 . S
N607 C610 1.351 . S
C608 H594 0.929 . S
C608 N607 1.325 . S
C608 C612 1.416 . S
C609 C610 1.430 . S
C609 C611 1.404 . S
C609 C638 1.387 . S
C610 C602 1.448 . S
C610 N607 1.351 . S
C610 C609 1.430 . S
C611 H600 0.930 . S
C611 C609 1.404 . S
C611 C612 1.366 . S
C612 H591 0.930 . S
C612 C608 1.416 . S
C612 C611 1.366 . S
H613 C606 0.929 . S
H614 C637 0.931 . S
H615 C638 0.931 . S
O616 Eu572 2.462 . S
O616 C636 1.252 . S
O617 Eu572 2.373 . S
O617 C628 1.249 . S
O618 Eu583 2.335 . S
O618 C628 1.264 . S
O619 Eu572 2.432 . S
O619 C636 1.268 . S
O620 Eu572 2.291 . S
O620 C635 1.255 . S
O621 Eu583 2.372 . S
O621 C635 1.257 . S
O622 Eu583 2.462 . S
O622 C647 1.252 . S
O623 Eu583 2.373 . S
O623 C639 1.249 . S
O624 Eu572 2.335 . S
O624 C639 1.264 . S
O625 Eu583 2.432 . S
O625 C647 1.268 . S
O626 Eu583 2.291 . S
O626 C646 1.255 . S
O627 Eu572 2.372 . S
O627 C646 1.257 . S
C628 O617 1.249 . S
C628 O618 1.264 . S
C629 C632 1.382 . S
C629 C634 1.390 . S
C629 C636 1.506 . S
C630 C631 1.398 . S
C630 C634 1.392 . S
C631 C630 1.398 . S
C631 C633 1.372 . S
C631 H648 0.931 . S
C632 C629 1.382 . S
C632 C633 1.390 . S
C632 H649 0.931 . S
C633 C631 1.372 . S
C633 C632 1.390 . S
C633 H650 0.929 . S
C634 C629 1.390 . S
C634 C630 1.392 . S
C634 H651 0.930 . S
C635 O620 1.255 . S
C635 O621 1.257 . S
C636 Eu572 2.787 . S
C636 O616 1.252 . S
C636 O619 1.268 . S
C636 C629 1.506 . S
C637 C604 1.439 . S
C637 H614 0.931 . S
C637 C638 1.374 . S
C638 C609 1.387 . S
C638 H615 0.931 . S
C638 C637 1.374 . S
C639 O623 1.249 . S
C639 O624 1.264 . S
C640 C643 1.382 . S
C640 C644 1.390 . S
C640 C647 1.506 . S
C641 C642 1.398 . S
C641 C644 1.392 . S
C642 C641 1.398 . S
C642 C645 1.372 . S
C642 H652 0.931 . S
C643 C640 1.382 . S
C643 C645 1.390 . S
C643 H653 0.931 . S
C644 C640 1.390 . S
C644 C641 1.392 . S
C644 H654 0.930 . S
C645 C642 1.372 . S
C645 C643 1.390 . S
C645 H655 0.929 . S
C646 O626 1.255 . S
C646 O627 1.257 . S
C647 Eu583 2.787 . S
C647 O622 1.252 . S
C647 O625 1.268 . S
C647 C640 1.506 . S
H648 C631 0.931 . S
H649 C632 0.931 . S
H650 C633 0.929 . S
H651 C634 0.930 . S
H652 C642 0.931 . S
H653 C643 0.931 . S
H654 C644 0.930 . S
H655 C645 0.929 . S
H656 C664 0.950 . S
H657 C669 0.950 1_565 S
H658 C666 0.950 . S
H659 C668 0.950 . S
H660 C670 0.950 . S
H661 C672 0.950 . S
H662 C674 0.950 . S
H663 C675 0.950 . S
C664 H656 0.950 . S
C664 C665 1.403 . S
C664 C666 1.391 . S
C665 C664 1.403 . S
C665 C669 1.399 . S
C666 H658 0.950 . S
C666 C664 1.391 . S
C666 C667 1.400 . S
C667 C666 1.400 . S
C667 C668 1.398 . S
C667 C673 1.491 . S
C668 H659 0.950 . S
C668 C667 1.398 . S
C668 C669 1.391 . S
C669 H657 0.950 1_545 S
C669 C665 1.399 . S
C669 C668 1.391 . S
C670 H660 0.950 . S
C670 C671 1.386 . S
C670 C672 1.391 . S
C671 C670 1.386 . S
C671 C675 1.393 . S
C672 H661 0.950 . S
C672 C670 1.391 . S
C672 C673 1.400 . S
C673 C667 1.491 . S
C673 C672 1.400 . S
C673 C674 1.398 . S
C674 H662 0.950 . S
C674 C673 1.398 . S
C674 C675 1.391 . S
C675 H663 0.950 . S
C675 C671 1.393 . S
C675 C674 1.391 . S
H676 C684 0.950 . S
H677 C689 0.950 . S
H678 C686 0.950 . S
H679 C688 0.950 . S
H680 C690 0.950 . S
H681 C692 0.950 . S
H682 C694 0.950 . S
H683 C695 0.950 . S
C684 H676 0.950 . S
C684 C685 1.386 . S
C684 C686 1.391 . S
C685 C684 1.386 . S
C685 C689 1.393 . S
C686 H678 0.950 . S
C686 C684 1.391 . S
C686 C687 1.400 . S
C687 C686 1.400 . S
C687 C688 1.398 . S
C687 C693 1.491 . S
C688 H679 0.950 . S
C688 C687 1.398 . S
C688 C689 1.391 . S
C689 H677 0.950 . S
C689 C685 1.393 . S
C689 C688 1.391 . S
C690 H680 0.950 . S
C690 C691 1.386 . S
C690 C692 1.391 . S
C691 C690 1.386 . S
C691 C695 1.393 . S
C692 H681 0.950 . S
C692 C690 1.391 . S
C692 C693 1.400 . S
C693 C687 1.491 . S
C693 C692 1.400 . S
C693 C694 1.398 . S
C694 H682 0.950 . S
C694 C693 1.398 . S
C694 C695 1.391 . S
C695 H683 0.950 . S
C695 C691 1.393 . S
C695 C694 1.391 . S
H696 C704 0.950 . S
H697 C709 0.950 . S
H698 C706 0.950 . S
H699 C708 0.950 . S
H700 C710 0.950 . S
H701 C712 0.950 . S
H702 C714 0.950 . S
H703 C715 0.950 . S
C704 H696 0.950 . S
C704 C705 1.386 . S
C704 C706 1.391 . S
C705 C704 1.386 . S
C705 C709 1.393 . S
C706 H698 0.950 . S
C706 C704 1.391 . S
C706 C707 1.400 . S
C707 C706 1.400 . S
C707 C708 1.398 . S
C707 C713 1.491 . S
C708 H699 0.950 . S
C708 C707 1.398 . S
C708 C709 1.391 . S
C709 H697 0.950 . S
C709 C705 1.393 . S
C709 C708 1.391 . S
C710 H700 0.950 . S
C710 C711 1.386 . S
C710 C712 1.391 . S
C711 C710 1.386 . S
C711 C715 1.393 . S
C712 H701 0.950 . S
C712 C710 1.391 . S
C712 C713 1.400 . S
C713 C707 1.491 . S
C713 C712 1.400 . S
C713 C714 1.398 . S
C714 H702 0.950 . S
C714 C713 1.398 . S
C714 C715 1.391 . S
C715 H703 0.950 . S
C715 C711 1.393 . S
C715 C714 1.391 . S
H716 C724 0.950 . S
H717 C729 0.950 . S
H718 C726 0.950 . S
H719 C728 0.950 . S
H720 C730 0.950 . S
H721 C732 0.950 . S
H722 C734 0.950 . S
H723 C735 0.950 . S
C724 H716 0.950 . S
C724 C725 1.386 . S
C724 C726 1.391 1_565 S
C725 C724 1.386 . S
C725 C729 1.393 1_565 S
C726 H718 0.950 . S
C726 C724 1.391 1_545 S
C726 C727 1.400 . S
C727 C726 1.400 . S
C727 C728 1.398 . S
C727 C733 1.491 . S
C728 H719 0.950 . S
C728 C727 1.398 . S
C728 C729 1.391 . S
C729 H717 0.950 . S
C729 C725 1.393 1_545 S
C729 C728 1.391 . S
C730 H720 0.950 . S
C730 C731 1.386 . S
C730 C732 1.391 . S
C731 C730 1.386 . S
C731 C735 1.393 . S
C732 H721 0.950 . S
C732 C730 1.391 . S
C732 C733 1.400 . S
C733 C727 1.491 . S
C733 C732 1.400 . S
C733 C734 1.398 . S
C734 H722 0.950 . S
C734 C733 1.398 . S
C734 C735 1.391 . S
C735 H723 0.950 . S
C735 C731 1.393 . S
C735 C734 1.391 . S
H736 C744 0.930 1_545 S
H737 C749 0.950 . S
H738 C746 0.950 . S
H739 C748 0.950 . S
H740 C750 0.950 . S
H741 C752 0.950 . S
H742 C754 0.950 . S
H743 C755 0.950 . S
C744 H736 0.930 1_565 S
C744 C745 1.387 . S
C744 C746 1.409 . S
C745 C744 1.387 . S
C745 C749 1.393 . S
C746 H738 0.950 . S
C746 C744 1.409 . S
C746 C747 1.400 . S
C747 C746 1.400 . S
C747 C748 1.398 . S
C747 C753 1.491 . S
C748 H739 0.950 . S
C748 C747 1.398 . S
C748 C749 1.391 . S
C749 H737 0.950 . S
C749 C745 1.393 . S
C749 C748 1.391 . S
C750 H740 0.950 . S
C750 C751 1.386 . S
C750 C752 1.391 . S
C751 C750 1.386 . S
C751 C755 1.393 . S
C752 H741 0.950 . S
C752 C750 1.391 . S
C752 C753 1.400 . S
C753 C747 1.491 . S
C753 C752 1.400 . S
C753 C754 1.398 . S
C754 H742 0.950 . S
C754 C753 1.398 . S
C754 C755 1.391 . S
C755 H743 0.950 . S
C755 C751 1.393 . S
C755 C754 1.391 . S
H756 C764 0.950 . S
H757 C769 0.950 . S
H758 C766 0.950 . S
H759 C768 0.950 . S
H760 C770 0.950 . S
H761 C772 0.950 . S
H762 C774 0.950 . S
H763 C775 0.950 . S
C764 H756 0.950 . S
C764 C765 1.386 . S
C764 C766 1.391 . S
C765 C764 1.386 . S
C765 C769 1.393 . S
C766 H758 0.950 . S
C766 C764 1.391 . S
C766 C767 1.400 . S
C767 C766 1.400 . S
C767 C768 1.398 . S
C767 C773 1.491 . S
C768 H759 0.950 . S
C768 C767 1.398 . S
C768 C769 1.391 . S
C769 H757 0.950 . S
C769 C765 1.393 . S
C769 C768 1.391 . S
C770 H760 0.950 . S
C770 C771 1.386 . S
C770 C772 1.391 . S
C771 C770 1.386 . S
C771 C775 1.393 . S
C772 H761 0.950 . S
C772 C770 1.391 . S
C772 C773 1.400 . S
C773 C767 1.491 . S
C773 C772 1.400 . S
C773 C774 1.398 . S
C774 H762 0.950 . S
C774 C773 1.398 . S
C774 C775 1.391 . S
C775 H763 0.950 . S
C775 C771 1.393 . S
C775 C774 1.391 . S
H776 C784 0.950 . S
H777 C789 0.950 . S
H778 C786 0.950 . S
H779 C788 0.950 . S
H780 C790 0.950 . S
H781 C792 0.950 . S
H782 C794 0.950 . S
H783 C795 0.950 . S
C784 H776 0.950 . S
C784 C785 1.386 . S
C784 C786 1.391 . S
C785 C784 1.386 . S
C785 C789 1.393 . S
C786 H778 0.950 . S
C786 C784 1.391 . S
C786 C787 1.400 . S
C787 C786 1.400 . S
C787 C788 1.398 . S
C787 C793 1.491 . S
C788 H779 0.950 . S
C788 C787 1.398 . S
C788 C789 1.391 . S
C789 H777 0.950 . S
C789 C785 1.393 . S
C789 C788 1.391 . S
C790 H780 0.950 . S
C790 C791 1.386 . S
C790 C792 1.391 . S
C791 C790 1.386 . S
C791 C795 1.393 . S
C792 H781 0.950 . S
C792 C790 1.391 . S
C792 C793 1.400 . S
C793 C787 1.491 . S
C793 C792 1.400 . S
C793 C794 1.398 . S
C794 H782 0.950 . S
C794 C793 1.398 . S
C794 C795 1.391 . S
C795 H783 0.950 . S
C795 C791 1.393 . S
C795 C794 1.391 . S
H796 C804 0.950 . S
H797 C809 0.950 . S
H798 C806 0.950 . S
H799 C808 0.950 . S
H800 C810 0.950 . S
H801 C812 0.950 . S
H802 C814 0.950 . S
H803 C815 0.950 . S
C804 H796 0.950 . S
C804 C805 1.373 1_565 S
C804 C806 1.391 . S
C805 C804 1.373 1_545 S
C805 C809 1.394 . S
C806 H798 0.950 . S
C806 C804 1.391 . S
C806 C807 1.400 . S
C807 C806 1.400 . S
C807 C808 1.398 . S
C807 C813 1.491 . S
C808 H799 0.950 . S
C808 C807 1.398 . S
C808 C809 1.391 1_565 S
C809 H797 0.950 . S
C809 C805 1.394 . S
C809 C808 1.391 1_545 S
C810 H800 0.950 . S
C810 C811 1.386 . S
C810 C812 1.391 . S
C811 C810 1.386 . S
C811 C815 1.393 . S
C812 H801 0.950 . S
C812 C810 1.391 . S
C812 C813 1.400 . S
C813 C807 1.491 . S
C813 C812 1.400 . S
C813 C814 1.398 . S
C814 H802 0.950 . S
C814 C813 1.398 . S
C814 C815 1.391 . S
C815 H803 0.950 . S
C815 C811 1.393 . S
C815 C814 1.391 . S
H816 C824 0.950 . S
H817 C829 0.950 . S
H818 C826 0.950 . S
H819 C828 0.950 . S
H820 C830 0.950 . S
H821 C832 0.950 . S
H822 C834 0.950 . S
H823 C835 0.950 . S
C824 H816 0.950 . S
C824 C825 1.386 . S
C824 C826 1.391 . S
C825 C824 1.386 . S
C825 C829 1.393 . S
C826 H818 0.950 . S
C826 C824 1.391 . S
C826 C827 1.400 . S
C827 C826 1.400 . S
C827 C828 1.398 . S
C827 C833 1.491 . S
C828 H819 0.950 . S
C828 C827 1.398 . S
C828 C829 1.391 . S
C829 H817 0.950 . S
C829 C825 1.393 . S
C829 C828 1.391 . S
C830 H820 0.950 . S
C830 C831 1.386 . S
C830 C832 1.391 . S
C831 C830 1.386 . S
C831 C835 1.393 . S
C832 H821 0.950 . S
C832 C830 1.391 . S
C832 C833 1.400 . S
C833 C827 1.491 . S
C833 C832 1.400 . S
C833 C834 1.398 . S
C834 H822 0.950 . S
C834 C833 1.398 . S
C834 C835 1.391 . S
C835 H823 0.950 . S
C835 C831 1.393 . S
C835 C834 1.391 . S
H836 C844 0.950 . S
H837 C849 0.950 . S
H838 C846 0.950 . S
H839 C848 0.950 . S
H840 C850 0.950 . S
H841 C852 0.950 . S
H842 C854 0.950 . S
H843 C855 0.950 . S
C844 H836 0.950 . S
C844 C845 1.386 . S
C844 C846 1.391 . S
C845 C844 1.386 . S
C845 C849 1.393 . S
C846 H838 0.950 . S
C846 C844 1.391 . S
C846 C847 1.400 . S
C847 C846 1.400 . S
C847 C848 1.398 . S
C847 C853 1.491 . S
C848 H839 0.950 . S
C848 C847 1.398 . S
C848 C849 1.391 . S
C849 H837 0.950 . S
C849 C845 1.393 . S
C849 C848 1.391 . S
C850 H840 0.950 . S
C850 C851 1.386 . S
C850 C852 1.391 . S
C851 C850 1.386 . S
C851 C855 1.393 . S
C852 H841 0.950 . S
C852 C850 1.391 . S
C852 C853 1.400 . S
C853 C847 1.491 . S
C853 C852 1.400 . S
C853 C854 1.398 . S
C854 H842 0.950 . S
C854 C853 1.398 . S
C854 C855 1.391 . S
C855 H843 0.950 . S
C855 C851 1.393 . S
C855 C854 1.391 . S
H856 C864 0.950 . S
H857 C869 0.950 . S
H858 C866 0.950 . S
H859 C868 0.950 . S
H860 C870 0.950 . S
H861 C872 0.950 . S
H862 C874 0.950 . S
H863 C875 0.950 . S
C864 H856 0.950 . S
C864 C865 1.386 . S
C864 C866 1.391 . S
C865 C864 1.386 . S
C865 C869 1.393 . S
C866 H858 0.950 . S
C866 C864 1.391 . S
C866 C867 1.400 . S
C867 C866 1.400 . S
C867 C868 1.398 . S
C867 C873 1.491 . S
C868 H859 0.950 . S
C868 C867 1.398 . S
C868 C869 1.391 . S
C869 H857 0.950 . S
C869 C865 1.393 . S
C869 C868 1.391 . S
C870 H860 0.950 . S
C870 C871 1.386 . S
C870 C872 1.391 . S
C871 C870 1.386 . S
C871 C875 1.393 . S
C872 H861 0.950 . S
C872 C870 1.391 . S
C872 C873 1.400 . S
C873 C867 1.491 . S
C873 C872 1.400 . S
C873 C874 1.398 . S
C874 H862 0.950 . S
C874 C873 1.398 . S
C874 C875 1.391 . S
C875 H863 0.950 . S
C875 C871 1.393 . S
C875 C874 1.391 . S
H876 C884 0.950 . S
H877 C889 0.950 . S
H878 C886 0.950 . S
H879 C888 0.950 . S
H880 C890 0.950 . S
H881 C892 0.950 . S
H882 C894 0.950 . S
H883 C895 0.950 . S
C884 H876 0.950 . S
C884 C885 1.386 . S
C884 C886 1.391 . S
C885 C884 1.386 . S
C885 C889 1.393 . S
C886 H878 0.950 . S
C886 C884 1.391 . S
C886 C887 1.400 . S
C887 C886 1.400 . S
C887 C888 1.398 . S
C887 C893 1.491 . S
C888 H879 0.950 . S
C888 C887 1.398 . S
C888 C889 1.391 . S
C889 H877 0.950 . S
C889 C885 1.393 . S
C889 C888 1.391 . S
C890 H880 0.950 . S
C890 C891 1.386 . S
C890 C892 1.391 . S
C891 C890 1.386 . S
C891 C895 1.393 . S
C892 H881 0.950 . S
C892 C890 1.391 . S
C892 C893 1.400 . S
C893 C887 1.491 . S
C893 C892 1.400 . S
C893 C894 1.398 . S
C894 H882 0.950 . S
C894 C893 1.398 . S
C894 C895 1.391 . S
C895 H883 0.950 . S
C895 C891 1.393 . S
C895 C894 1.391 . S
H896 C904 0.950 . S
H897 C909 0.950 . S
H898 C906 0.950 . S
H899 C908 0.950 . S
H900 C910 0.950 . S
H901 C912 0.950 . S
H902 C914 0.950 . S
H903 C915 0.950 . S
C904 H896 0.950 . S
C904 C905 1.386 . S
C904 C906 1.391 . S
C905 C904 1.386 . S
C905 C909 1.393 . S
C906 H898 0.950 . S
C906 C904 1.391 . S
C906 C907 1.400 . S
C907 C906 1.400 . S
C907 C908 1.398 . S
C907 C913 1.491 . S
C908 H899 0.950 . S
C908 C907 1.398 . S
C908 C909 1.391 . S
C909 H897 0.950 . S
C909 C905 1.393 . S
C909 C908 1.391 . S
C910 H900 0.950 . S
C910 C911 1.386 . S
C910 C912 1.391 . S
C911 C910 1.386 . S
C911 C915 1.393 . S
C912 H901 0.950 . S
C912 C910 1.391 . S
C912 C913 1.400 . S
C913 C907 1.491 . S
C913 C912 1.400 . S
C913 C914 1.398 . S
C914 H902 0.950 . S
C914 C913 1.398 . S
C914 C915 1.391 . S
C915 H903 0.950 . S
C915 C911 1.393 . S
C915 C914 1.391 . S
H916 C924 0.950 . S
H917 C929 0.950 . S
H918 C926 0.950 . S
H919 C928 0.950 . S
H920 C930 0.950 . S
H921 C932 0.950 . S
H922 C934 0.950 . S
H923 C935 0.950 . S
C924 H916 0.950 . S
C924 C925 1.386 . S
C924 C926 1.391 . S
C925 C924 1.386 . S
C925 C929 1.393 . S
C926 H918 0.950 . S
C926 C924 1.391 . S
C926 C927 1.400 . S
C927 C926 1.400 . S
C927 C928 1.398 . S
C927 C933 1.491 . S
C928 H919 0.950 . S
C928 C927 1.398 . S
C928 C929 1.391 . S
C929 H917 0.950 . S
C929 C925 1.393 . S
C929 C928 1.391 . S
C930 H920 0.950 . S
C930 C931 1.386 . S
C930 C932 1.391 . S
C931 C930 1.386 . S
C931 C935 1.393 . S
C932 H921 0.950 . S
C932 C930 1.391 . S
C932 C933 1.400 . S
C933 C927 1.491 . S
C933 C932 1.400 . S
C933 C934 1.398 . S
C934 H922 0.950 . S
C934 C933 1.398 . S
C934 C935 1.391 . S
C935 H923 0.950 . S
C935 C931 1.393 . S
C935 C934 1.391 . S
H936 C944 0.950 . S
H937 C949 0.950 . S
H938 C946 0.950 . S
H939 C948 0.950 . S
H940 C950 0.950 . S
H941 C952 0.950 . S
H942 C954 0.950 . S
H943 C955 0.950 . S
C944 H936 0.950 . S
C944 C945 1.386 . S
C944 C946 1.391 . S
C945 C944 1.386 . S
C945 C949 1.393 . S
C946 H938 0.950 . S
C946 C944 1.391 . S
C946 C947 1.400 . S
C947 C946 1.400 . S
C947 C948 1.398 . S
C947 C953 1.491 . S
C948 H939 0.950 . S
C948 C947 1.398 . S
C948 C949 1.391 . S
C949 H937 0.950 . S
C949 C945 1.393 . S
C949 C948 1.391 . S
C950 H940 0.950 . S
C950 C951 1.386 . S
C950 C952 1.391 . S
C951 C950 1.386 . S
C951 C955 1.393 . S
C952 H941 0.950 . S
C952 C950 1.391 . S
C952 C953 1.400 . S
C953 C947 1.491 . S
C953 C952 1.400 . S
C953 C954 1.398 . S
C954 H942 0.950 . S
C954 C953 1.398 . S
C954 C955 1.391 . S
C955 H943 0.950 . S
C955 C951 1.393 . S
C955 C954 1.391 . S
H956 C964 0.950 . S
H957 C969 0.950 . S
H958 C966 0.950 . S
H959 C968 0.950 . S
H960 C970 0.950 . S
H961 C972 0.950 . S
H962 C974 0.950 . S
H963 C975 0.950 . S
C964 H956 0.950 . S
C964 C965 1.386 . S
C964 C966 1.391 . S
C965 C964 1.386 . S
C965 C969 1.393 . S
C966 H958 0.950 . S
C966 C964 1.391 . S
C966 C967 1.400 . S
C967 C966 1.400 . S
C967 C968 1.398 . S
C967 C973 1.491 . S
C968 H959 0.950 . S
C968 C967 1.398 . S
C968 C969 1.391 . S
C969 H957 0.950 . S
C969 C965 1.393 . S
C969 C968 1.391 . S
C970 H960 0.950 . S
C970 C971 1.386 . S
C970 C972 1.391 . S
C971 C970 1.386 . S
C971 C975 1.393 . S
C972 H961 0.950 . S
C972 C970 1.391 . S
C972 C973 1.400 . S
C973 C967 1.491 . S
C973 C972 1.400 . S
C973 C974 1.398 . S
C974 H962 0.950 . S
C974 C973 1.398 . S
C974 C975 1.391 . S
C975 H963 0.950 . S
C975 C971 1.393 . S
C975 C974 1.391 . S
H976 C984 0.950 . S
H977 C989 0.950 . S
H978 C986 0.950 . S
H979 C988 0.950 . S
H980 C990 0.950 . S
H981 C992 0.950 . S
H982 C994 0.950 . S
H983 C995 0.950 . S
C984 H976 0.950 . S
C984 C985 1.386 . S
C984 C986 1.391 . S
C985 C984 1.386 . S
C985 C989 1.393 . S
C986 H978 0.950 . S
C986 C984 1.391 . S
C986 C987 1.400 . S
C987 C986 1.400 . S
C987 C988 1.398 . S
C987 C993 1.491 . S
C988 H979 0.950 . S
C988 C987 1.398 . S
C988 C989 1.391 . S
C989 H977 0.950 . S
C989 C985 1.393 . S
C989 C988 1.391 . S
C990 H980 0.950 . S
C990 C991 1.386 . S
C990 C992 1.391 . S
C991 C990 1.386 . S
C991 C995 1.393 . S
C992 H981 0.950 . S
C992 C990 1.391 . S
C992 C993 1.400 . S
C993 C987 1.491 . S
C993 C992 1.400 . S
C993 C994 1.398 . S
C994 H982 0.950 . S
C994 C993 1.398 . S
C994 C995 1.391 . S
C995 H983 0.950 . S
C995 C991 1.393 . S
C995 C994 1.391 . S
H996 C1004 0.950 . S
H997 C1009 0.950 . S
H998 C1006 0.950 . S
H999 C1008 0.950 . S
H1000 C1010 0.950 . S
H1001 C1012 0.950 . S
H1002 C1014 0.950 . S
H1003 C1015 0.950 . S
C1004 H996 0.950 . S
C1004 C1005 1.386 . S
C1004 C1006 1.391 . S
C1005 C1004 1.386 . S
C1005 C1009 1.393 . S
C1006 H998 0.950 . S
C1006 C1004 1.391 . S
C1006 C1007 1.400 . S
C1007 C1006 1.400 . S
C1007 C1008 1.398 . S
C1007 C1013 1.491 . S
C1008 H999 0.950 . S
C1008 C1007 1.398 . S
C1008 C1009 1.391 . S
C1009 H997 0.950 . S
C1009 C1005 1.393 . S
C1009 C1008 1.391 . S
C1010 H1000 0.950 . S
C1010 C1011 1.386 . S
C1010 C1012 1.391 . S
C1011 C1010 1.386 . S
C1011 C1015 1.393 . S
C1012 H1001 0.950 . S
C1012 C1010 1.391 . S
C1012 C1013 1.400 . S
C1013 C1007 1.491 . S
C1013 C1012 1.400 . S
C1013 C1014 1.398 . S
C1014 H1002 0.950 . S
C1014 C1013 1.398 . S
C1014 C1015 1.391 . S
C1015 H1003 0.950 . S
C1015 C1011 1.393 . S
C1015 C1014 1.391 . S
H1016 C1024 0.950 . S
H1017 C1029 0.950 . S
H1018 C1026 0.950 . S
H1019 C1028 0.950 . S
H1020 C1030 0.950 . S
H1021 C1032 0.950 . S
H1022 C1034 0.950 . S
H1023 C1035 0.950 . S
C1024 H1016 0.950 . S
C1024 C1025 1.386 . S
C1024 C1026 1.391 . S
C1025 C1024 1.386 . S
C1025 C1029 1.393 . S
C1026 H1018 0.950 . S
C1026 C1024 1.391 . S
C1026 C1027 1.400 . S
C1027 C1026 1.400 . S
C1027 C1028 1.398 . S
C1027 C1033 1.491 . S
C1028 H1019 0.950 . S
C1028 C1027 1.398 . S
C1028 C1029 1.391 . S
C1029 H1017 0.950 . S
C1029 C1025 1.393 . S
C1029 C1028 1.391 . S
C1030 H1020 0.950 . S
C1030 C1031 1.386 . S
C1030 C1032 1.391 . S
C1031 C1030 1.386 . S
C1031 C1035 1.393 . S
C1032 H1021 0.950 . S
C1032 C1030 1.391 . S
C1032 C1033 1.400 . S
C1033 C1027 1.491 . S
C1033 C1032 1.400 . S
C1033 C1034 1.398 . S
C1034 H1022 0.950 . S
C1034 C1033 1.398 . S
C1034 C1035 1.391 . S
C1035 H1023 0.950 . S
C1035 C1031 1.393 . S
C1035 C1034 1.391 . S
H1036 C1044 0.950 . S
H1037 C1049 0.950 . S
H1038 C1046 0.950 . S
H1039 C1048 0.950 . S
H1040 C1050 0.950 . S
H1041 C1052 0.950 . S
H1042 C1054 0.950 . S
H1043 C1055 0.950 . S
C1044 H1036 0.950 . S
C1044 C1045 1.386 . S
C1044 C1046 1.391 . S
C1045 C1044 1.386 . S
C1045 C1049 1.393 . S
C1046 H1038 0.950 . S
C1046 C1044 1.391 . S
C1046 C1047 1.400 . S
C1047 C1046 1.400 . S
C1047 C1048 1.398 . S
C1047 C1053 1.491 . S
C1048 H1039 0.950 . S
C1048 C1047 1.398 . S
C1048 C1049 1.391 . S
C1049 H1037 0.950 . S
C1049 C1045 1.393 . S
C1049 C1048 1.391 . S
C1050 H1040 0.950 . S
C1050 C1051 1.386 . S
C1050 C1052 1.391 . S
C1051 C1050 1.386 . S
C1051 C1055 1.393 . S
C1052 H1041 0.950 . S
C1052 C1050 1.391 . S
C1052 C1053 1.400 . S
C1053 C1047 1.491 . S
C1053 C1052 1.400 . S
C1053 C1054 1.398 . S
C1054 H1042 0.950 . S
C1054 C1053 1.398 . S
C1054 C1055 1.391 . S
C1055 H1043 0.950 . S
C1055 C1051 1.393 . S
C1055 C1054 1.391 . S
H1056 C1064 0.950 . S
H1057 C1069 0.950 . S
H1058 C1066 0.950 . S
H1059 C1068 0.950 . S
H1060 C1070 0.950 1_455 S
H1061 C1072 0.950 . S
H1062 C1074 0.950 . S
H1063 C1075 0.950 . S
C1064 H1056 0.950 . S
C1064 C1065 1.386 . S
C1064 C1066 1.391 . S
C1065 C1064 1.386 . S
C1065 C1069 1.393 . S
C1066 H1058 0.950 . S
C1066 C1064 1.391 . S
C1066 C1067 1.400 . S
C1067 C1066 1.400 . S
C1067 C1068 1.398 . S
C1067 C1073 1.491 . S
C1068 H1059 0.950 . S
C1068 C1067 1.398 . S
C1068 C1069 1.391 . S
C1069 H1057 0.950 . S
C1069 C1065 1.393 . S
C1069 C1068 1.391 . S
C1070 H1060 0.950 1_655 S
C1070 C1071 1.386 . S
C1070 C1072 1.391 . S
C1071 C1070 1.386 . S
C1071 C1075 1.393 . S
C1072 H1061 0.950 . S
C1072 C1070 1.391 . S
C1072 C1073 1.400 . S
C1073 C1067 1.491 . S
C1073 C1072 1.400 . S
C1073 C1074 1.398 . S
C1074 H1062 0.950 . S
C1074 C1073 1.398 . S
C1074 C1075 1.391 . S
C1075 H1063 0.950 . S
C1075 C1071 1.393 . S
C1075 C1074 1.391 . S
H1076 C1084 0.950 . S
H1077 C1089 0.950 . S
H1078 C1086 0.950 . S
H1079 C1088 0.950 . S
H1080 C1090 0.950 . S
H1081 C1092 0.950 . S
H1082 C1094 0.950 . S
H1083 C1095 0.950 . S
C1084 H1076 0.950 . S
C1084 C1085 1.386 . S
C1084 C1086 1.391 . S
C1085 C1084 1.386 . S
C1085 C1089 1.393 . S
C1086 H1078 0.950 . S
C1086 C1084 1.391 . S
C1086 C1087 1.400 . S
C1087 C1086 1.400 . S
C1087 C1088 1.398 . S
C1087 C1093 1.491 . S
C1088 H1079 0.950 . S
C1088 C1087 1.398 . S
C1088 C1089 1.391 . S
C1089 H1077 0.950 . S
C1089 C1085 1.393 . S
C1089 C1088 1.391 . S
C1090 H1080 0.950 . S
C1090 C1091 1.386 . S
C1090 C1092 1.391 . S
C1091 C1090 1.386 . S
C1091 C1095 1.393 . S
C1092 H1081 0.950 . S
C1092 C1090 1.391 . S
C1092 C1093 1.400 . S
C1093 C1087 1.491 . S
C1093 C1092 1.400 . S
C1093 C1094 1.398 . S
C1094 H1082 0.950 . S
C1094 C1093 1.398 . S
C1094 C1095 1.391 . S
C1095 H1083 0.950 . S
C1095 C1091 1.393 . S
C1095 C1094 1.391 . S
H1096 C1104 0.950 . S
H1097 C1109 0.950 . S
H1098 C1106 0.950 . S
H1099 C1108 0.950 . S
H1100 C1110 0.950 . S
H1101 C1112 0.950 . S
H1102 C1114 0.950 . S
H1103 C1115 0.950 . S
C1104 H1096 0.950 . S
C1104 C1105 1.386 . S
C1104 C1106 1.391 . S
C1105 C1104 1.386 . S
C1105 C1109 1.393 . S
C1106 H1098 0.950 . S
C1106 C1104 1.391 . S
C1106 C1107 1.400 . S
C1107 C1106 1.400 . S
C1107 C1108 1.398 . S
C1107 C1113 1.491 . S
C1108 H1099 0.950 . S
C1108 C1107 1.398 . S
C1108 C1109 1.391 . S
C1109 H1097 0.950 . S
C1109 C1105 1.393 . S
C1109 C1108 1.391 . S
C1110 H1100 0.950 . S
C1110 C1111 1.386 . S
C1110 C1112 1.391 . S
C1111 C1110 1.386 . S
C1111 C1115 1.393 . S
C1112 H1101 0.950 . S
C1112 C1110 1.391 . S
C1112 C1113 1.400 . S
C1113 C1107 1.491 . S
C1113 C1112 1.400 . S
C1113 C1114 1.398 . S
C1114 H1102 0.950 . S
C1114 C1113 1.398 . S
C1114 C1115 1.391 . S
C1115 H1103 0.950 . S
C1115 C1111 1.393 . S
C1115 C1114 1.391 . S
H1116 C1124 0.950 . S
H1117 C1129 0.950 . S
H1118 C1126 0.950 . S
H1119 C1128 0.950 . S
H1120 C1130 0.950 . S
H1121 C1132 0.950 . S
H1122 C1134 0.950 . S
H1123 C1135 0.950 . S
C1124 H1116 0.950 . S
C1124 C1125 1.386 . S
C1124 C1126 1.391 . S
C1125 C1124 1.386 . S
C1125 C1129 1.393 . S
C1126 H1118 0.950 . S
C1126 C1124 1.391 . S
C1126 C1127 1.400 . S
C1127 C1126 1.400 . S
C1127 C1128 1.398 . S
C1127 C1133 1.491 . S
C1128 H1119 0.950 . S
C1128 C1127 1.398 . S
C1128 C1129 1.391 . S
C1129 H1117 0.950 . S
C1129 C1125 1.393 . S
C1129 C1128 1.391 . S
C1130 H1120 0.950 . S
C1130 C1131 1.386 . S
C1130 C1132 1.391 . S
C1131 C1130 1.386 . S
C1131 C1135 1.393 . S
C1132 H1121 0.950 . S
C1132 C1130 1.391 . S
C1132 C1133 1.400 . S
C1133 C1127 1.491 . S
C1133 C1132 1.400 . S
C1133 C1134 1.398 . S
C1134 H1122 0.950 . S
C1134 C1133 1.398 . S
C1134 C1135 1.391 . S
C1135 H1123 0.950 . S
C1135 C1131 1.393 . S
C1135 C1134 1.391 . S
C665 C242 1.426 1_545 S
C671 C394 1.487 . S
C691 C478 1.480 . S
C685 C301 1.496 . S
C711 C471 1.489 . S
C705 C162 1.457 . S
C725 C221 1.491 . S
C731 C387 1.480 . S
C751 C551 1.480 . S
C745 C82 1.489 1_565 S
C771 C635 1.480 . S
C765 C141 1.477 . S
C785 C2 1.483 . S
C791 C628 1.483 . S
C805 C61 1.475 . S
C811 C544 1.487 . S
C831 C378 1.323 . S
C825 C42 1.491 . S
C851 C462 1.321 . S
C845 C21 1.535 . S
C871 C473 1.384 . S
C865 C122 1.521 . S
C891 C389 1.396 . S
C885 C101 1.546 . S
C911 C557 1.368 . S
C905 C202 1.529 . S
C925 C181 1.491 . S
C931 C641 1.336 . S
C951 C630 1.382 . S
C945 C282 1.547 . S
C965 C261 1.519 . S
C971 C546 1.421 . S
C991 C376 1.610 . S
C985 C15 1.608 . S
C1011 C460 1.592 . S
C1005 C55 1.585 . S
C1025 C95 1.598 . S
C1031 C467 1.585 . S
C1051 C383 1.576 . S
C1045 C135 1.575 . S
C1071 C555 1.607 . S
C1065 C175 1.599 . S
C1085 C215 1.587 . S
C1091 C639 1.592 . S
C1105 C255 1.584 . S
C1111 C646 1.596 . S
C1125 C295 1.582 . S
C1131 C562 1.572 . S
