# Generated by pormake.
# Topology iac, (4,6)-cn, num edge types: 1
# Building blocks:
#     Node 0, Type 0, BuildingBlock: AZAVOO_clean_sbu_0, # of connection points: 4
#     Node 1, Type 0, BuildingBlock: AZAVOO_clean_sbu_0, # of connection points: 4
#     Node 2, Type 0, BuildingBlock: AZAVOO_clean_sbu_0, # of connection points: 4
#     Node 3, Type 0, BuildingBlock: AZAVOO_clean_sbu_0, # of connection points: 4
#     Node 4, Type 0, BuildingBlock: AZAVOO_clean_sbu_0, # of connection points: 4
#     Node 5, Type 0, BuildingBlock: AZAVOO_clean_sbu_0, # of connection points: 4
#     Node 6, Type 0, BuildingBlock: AZAVOO_clean_sbu_0, # of connection points: 4
#     Node 7, Type 0, BuildingBlock: AZAVOO_clean_sbu_0, # of connection points: 4
#     Node 8, Type 0, BuildingBlock: AZAVOO_clean_sbu_0, # of connection points: 4
#     Node 9, Type 0, BuildingBlock: AZAVOO_clean_sbu_0, # of connection points: 4
#     Node 10, Type 0, BuildingBlock: AZAVOO_clean_sbu_0, # of connection points: 4
#     Node 11, Type 0, BuildingBlock: AZAVOO_clean_sbu_0, # of connection points: 4
#     Node 12, Type 0, BuildingBlock: AZAVOO_clean_sbu_0, # of connection points: 4
#     Node 13, Type 0, BuildingBlock: AZAVOO_clean_sbu_0, # of connection points: 4
#     Node 14, Type 0, BuildingBlock: AZAVOO_clean_sbu_0, # of connection points: 4
#     Node 15, Type 0, BuildingBlock: AZAVOO_clean_sbu_0, # of connection points: 4
#     Node 16, Type 0, BuildingBlock: AZAVOO_clean_sbu_0, # of connection points: 4
#     Node 17, Type 0, BuildingBlock: AZAVOO_clean_sbu_0, # of connection points: 4
#     Node 18, Type 0, BuildingBlock: AZAVOO_clean_sbu_0, # of connection points: 4
#     Node 19, Type 0, BuildingBlock: AZAVOO_clean_sbu_0, # of connection points: 4
#     Node 20, Type 0, BuildingBlock: AZAVOO_clean_sbu_0, # of connection points: 4
#     Node 21, Type 0, BuildingBlock: AZAVOO_clean_sbu_0, # of connection points: 4
#     Node 22, Type 0, BuildingBlock: AZAVOO_clean_sbu_0, # of connection points: 4
#     Node 23, Type 0, BuildingBlock: AZAVOO_clean_sbu_0, # of connection points: 4
#     Node 24, Type 1, BuildingBlock: LEVNOQ01_clean_sbu_1, # of connection points: 6
#     Node 25, Type 1, BuildingBlock: LEVNOQ01_clean_sbu_1, # of connection points: 6
#     Node 26, Type 1, BuildingBlock: LEVNOQ01_clean_sbu_1, # of connection points: 6
#     Node 27, Type 1, BuildingBlock: LEVNOQ01_clean_sbu_1, # of connection points: 6
#     Node 28, Type 1, BuildingBlock: LEVNOQ01_clean_sbu_1, # of connection points: 6
#     Node 29, Type 1, BuildingBlock: LEVNOQ01_clean_sbu_1, # of connection points: 6
#     Node 30, Type 1, BuildingBlock: LEVNOQ01_clean_sbu_1, # of connection points: 6
#     Node 31, Type 1, BuildingBlock: LEVNOQ01_clean_sbu_1, # of connection points: 6
#     Node 32, Type 1, BuildingBlock: LEVNOQ01_clean_sbu_1, # of connection points: 6
#     Node 33, Type 1, BuildingBlock: LEVNOQ01_clean_sbu_1, # of connection points: 6
#     Node 34, Type 1, BuildingBlock: LEVNOQ01_clean_sbu_1, # of connection points: 6
#     Node 35, Type 1, BuildingBlock: LEVNOQ01_clean_sbu_1, # of connection points: 6
#     Node 36, Type 1, BuildingBlock: LEVNOQ01_clean_sbu_1, # of connection points: 6
#     Node 37, Type 1, BuildingBlock: LEVNOQ01_clean_sbu_1, # of connection points: 6
#     Node 38, Type 1, BuildingBlock: LEVNOQ01_clean_sbu_1, # of connection points: 6
#     Node 39, Type 1, BuildingBlock: LEVNOQ01_clean_sbu_1, # of connection points: 6
#     Edge 40, Type (0, 1), BuildingBlock: UVAHIK_clean_linker_0, # of connection points: 2
#     Edge 41, Type (0, 1), BuildingBlock: UVAHIK_clean_linker_0, # of connection points: 2
#     Edge 42, Type (0, 1), BuildingBlock: UVAHIK_clean_linker_0, # of connection points: 2
#     Edge 43, Type (0, 1), BuildingBlock: UVAHIK_clean_linker_0, # of connection points: 2
#     Edge 44, Type (0, 1), BuildingBlock: UVAHIK_clean_linker_0, # of connection points: 2
#     Edge 45, Type (0, 1), BuildingBlock: UVAHIK_clean_linker_0, # of connection points: 2
#     Edge 46, Type (0, 1), BuildingBlock: UVAHIK_clean_linker_0, # of connection points: 2
#     Edge 47, Type (0, 1), BuildingBlock: UVAHIK_clean_linker_0, # of connection points: 2
#     Edge 48, Type (0, 1), BuildingBlock: UVAHIK_clean_linker_0, # of connection points: 2
#     Edge 49, Type (0, 1), BuildingBlock: UVAHIK_clean_linker_0, # of connection points: 2
#     Edge 50, Type (0, 1), BuildingBlock: UVAHIK_clean_linker_0, # of connection points: 2
#     Edge 51, Type (0, 1), BuildingBlock: UVAHIK_clean_linker_0, # of connection points: 2
#     Edge 52, Type (0, 1), BuildingBlock: UVAHIK_clean_linker_0, # of connection points: 2
#     Edge 53, Type (0, 1), BuildingBlock: UVAHIK_clean_linker_0, # of connection points: 2
#     Edge 54, Type (0, 1), BuildingBlock: UVAHIK_clean_linker_0, # of connection points: 2
#     Edge 55, Type (0, 1), BuildingBlock: UVAHIK_clean_linker_0, # of connection points: 2
#     Edge 56, Type (0, 1), BuildingBlock: UVAHIK_clean_linker_0, # of connection points: 2
#     Edge 57, Type (0, 1), BuildingBlock: UVAHIK_clean_linker_0, # of connection points: 2
#     Edge 58, Type (0, 1), BuildingBlock: UVAHIK_clean_linker_0, # of connection points: 2
#     Edge 59, Type (0, 1), BuildingBlock: UVAHIK_clean_linker_0, # of connection points: 2
#     Edge 60, Type (0, 1), BuildingBlock: UVAHIK_clean_linker_0, # of connection points: 2
#     Edge 61, Type (0, 1), BuildingBlock: UVAHIK_clean_linker_0, # of connection points: 2
#     Edge 62, Type (0, 1), BuildingBlock: UVAHIK_clean_linker_0, # of connection points: 2
#     Edge 63, Type (0, 1), BuildingBlock: UVAHIK_clean_linker_0, # of connection points: 2
#     Edge 64, Type (0, 1), BuildingBlock: UVAHIK_clean_linker_0, # of connection points: 2
#     Edge 65, Type (0, 1), BuildingBlock: UVAHIK_clean_linker_0, # of connection points: 2
#     Edge 66, Type (0, 1), BuildingBlock: UVAHIK_clean_linker_0, # of connection points: 2
#     Edge 67, Type (0, 1), BuildingBlock: UVAHIK_clean_linker_0, # of connection points: 2
#     Edge 68, Type (0, 1), BuildingBlock: UVAHIK_clean_linker_0, # of connection points: 2
#     Edge 69, Type (0, 1), BuildingBlock: UVAHIK_clean_linker_0, # of connection points: 2
#     Edge 70, Type (0, 1), BuildingBlock: UVAHIK_clean_linker_0, # of connection points: 2
#     Edge 71, Type (0, 1), BuildingBlock: UVAHIK_clean_linker_0, # of connection points: 2
#     Edge 72, Type (0, 1), BuildingBlock: UVAHIK_clean_linker_0, # of connection points: 2
#     Edge 73, Type (0, 1), BuildingBlock: UVAHIK_clean_linker_0, # of connection points: 2
#     Edge 74, Type (0, 1), BuildingBlock: UVAHIK_clean_linker_0, # of connection points: 2
#     Edge 75, Type (0, 1), BuildingBlock: UVAHIK_clean_linker_0, # of connection points: 2
#     Edge 76, Type (0, 1), BuildingBlock: UVAHIK_clean_linker_0, # of connection points: 2
#     Edge 77, Type (0, 1), BuildingBlock: UVAHIK_clean_linker_0, # of connection points: 2
#     Edge 78, Type (0, 1), BuildingBlock: UVAHIK_clean_linker_0, # of connection points: 2
#     Edge 79, Type (0, 1), BuildingBlock: UVAHIK_clean_linker_0, # of connection points: 2
#     Edge 80, Type (0, 1), BuildingBlock: UVAHIK_clean_linker_0, # of connection points: 2
#     Edge 81, Type (0, 1), BuildingBlock: UVAHIK_clean_linker_0, # of connection points: 2
#     Edge 82, Type (0, 1), BuildingBlock: UVAHIK_clean_linker_0, # of connection points: 2
#     Edge 83, Type (0, 1), BuildingBlock: UVAHIK_clean_linker_0, # of connection points: 2
#     Edge 84, Type (0, 1), BuildingBlock: UVAHIK_clean_linker_0, # of connection points: 2
#     Edge 85, Type (0, 1), BuildingBlock: UVAHIK_clean_linker_0, # of connection points: 2
#     Edge 86, Type (0, 1), BuildingBlock: UVAHIK_clean_linker_0, # of connection points: 2
#     Edge 87, Type (0, 1), BuildingBlock: UVAHIK_clean_linker_0, # of connection points: 2
#     Edge 88, Type (0, 1), BuildingBlock: UVAHIK_clean_linker_0, # of connection points: 2
#     Edge 89, Type (0, 1), BuildingBlock: UVAHIK_clean_linker_0, # of connection points: 2
#     Edge 90, Type (0, 1), BuildingBlock: UVAHIK_clean_linker_0, # of connection points: 2
#     Edge 91, Type (0, 1), BuildingBlock: UVAHIK_clean_linker_0, # of connection points: 2
#     Edge 92, Type (0, 1), BuildingBlock: UVAHIK_clean_linker_0, # of connection points: 2
#     Edge 93, Type (0, 1), BuildingBlock: UVAHIK_clean_linker_0, # of connection points: 2
#     Edge 94, Type (0, 1), BuildingBlock: UVAHIK_clean_linker_0, # of connection points: 2
#     Edge 95, Type (0, 1), BuildingBlock: UVAHIK_clean_linker_0, # of connection points: 2
#     Edge 96, Type (0, 1), BuildingBlock: UVAHIK_clean_linker_0, # of connection points: 2
#     Edge 97, Type (0, 1), BuildingBlock: UVAHIK_clean_linker_0, # of connection points: 2
#     Edge 98, Type (0, 1), BuildingBlock: UVAHIK_clean_linker_0, # of connection points: 2
#     Edge 99, Type (0, 1), BuildingBlock: UVAHIK_clean_linker_0, # of connection points: 2
#     Edge 100, Type (0, 1), BuildingBlock: UVAHIK_clean_linker_0, # of connection points: 2
#     Edge 101, Type (0, 1), BuildingBlock: UVAHIK_clean_linker_0, # of connection points: 2
#     Edge 102, Type (0, 1), BuildingBlock: UVAHIK_clean_linker_0, # of connection points: 2
#     Edge 103, Type (0, 1), BuildingBlock: UVAHIK_clean_linker_0, # of connection points: 2
#     Edge 104, Type (0, 1), BuildingBlock: UVAHIK_clean_linker_0, # of connection points: 2
#     Edge 105, Type (0, 1), BuildingBlock: UVAHIK_clean_linker_0, # of connection points: 2
#     Edge 106, Type (0, 1), BuildingBlock: UVAHIK_clean_linker_0, # of connection points: 2
#     Edge 107, Type (0, 1), BuildingBlock: UVAHIK_clean_linker_0, # of connection points: 2
#     Edge 108, Type (0, 1), BuildingBlock: UVAHIK_clean_linker_0, # of connection points: 2
#     Edge 109, Type (0, 1), BuildingBlock: UVAHIK_clean_linker_0, # of connection points: 2
#     Edge 110, Type (0, 1), BuildingBlock: UVAHIK_clean_linker_0, # of connection points: 2
#     Edge 111, Type (0, 1), BuildingBlock: UVAHIK_clean_linker_0, # of connection points: 2
#     Edge 112, Type (0, 1), BuildingBlock: UVAHIK_clean_linker_0, # of connection points: 2
#     Edge 113, Type (0, 1), BuildingBlock: UVAHIK_clean_linker_0, # of connection points: 2
#     Edge 114, Type (0, 1), BuildingBlock: UVAHIK_clean_linker_0, # of connection points: 2
#     Edge 115, Type (0, 1), BuildingBlock: UVAHIK_clean_linker_0, # of connection points: 2
#     Edge 116, Type (0, 1), BuildingBlock: UVAHIK_clean_linker_0, # of connection points: 2
#     Edge 117, Type (0, 1), BuildingBlock: UVAHIK_clean_linker_0, # of connection points: 2
#     Edge 118, Type (0, 1), BuildingBlock: UVAHIK_clean_linker_0, # of connection points: 2
#     Edge 119, Type (0, 1), BuildingBlock: UVAHIK_clean_linker_0, # of connection points: 2
#     Edge 120, Type (0, 1), BuildingBlock: UVAHIK_clean_linker_0, # of connection points: 2
#     Edge 121, Type (0, 1), BuildingBlock: UVAHIK_clean_linker_0, # of connection points: 2
#     Edge 122, Type (0, 1), BuildingBlock: UVAHIK_clean_linker_0, # of connection points: 2
#     Edge 123, Type (0, 1), BuildingBlock: UVAHIK_clean_linker_0, # of connection points: 2
#     Edge 124, Type (0, 1), BuildingBlock: UVAHIK_clean_linker_0, # of connection points: 2
#     Edge 125, Type (0, 1), BuildingBlock: UVAHIK_clean_linker_0, # of connection points: 2
#     Edge 126, Type (0, 1), BuildingBlock: UVAHIK_clean_linker_0, # of connection points: 2
#     Edge 127, Type (0, 1), BuildingBlock: UVAHIK_clean_linker_0, # of connection points: 2
#     Edge 128, Type (0, 1), BuildingBlock: UVAHIK_clean_linker_0, # of connection points: 2
#     Edge 129, Type (0, 1), BuildingBlock: UVAHIK_clean_linker_0, # of connection points: 2
#     Edge 130, Type (0, 1), BuildingBlock: UVAHIK_clean_linker_0, # of connection points: 2
#     Edge 131, Type (0, 1), BuildingBlock: UVAHIK_clean_linker_0, # of connection points: 2
#     Edge 132, Type (0, 1), BuildingBlock: UVAHIK_clean_linker_0, # of connection points: 2
#     Edge 133, Type (0, 1), BuildingBlock: UVAHIK_clean_linker_0, # of connection points: 2
#     Edge 134, Type (0, 1), BuildingBlock: UVAHIK_clean_linker_0, # of connection points: 2
#     Edge 135, Type (0, 1), BuildingBlock: UVAHIK_clean_linker_0, # of connection points: 2
# Relax obj value: 0.123
# Max RMSD: 0.174
# Mean RMSD: 0.149
data_MOF--net-iac--node1-AZAVOO_clean_sbu_0--node2-LEVNOQ01_clean_sbu_1--edge1-UVAHIK_clean_linker_0
_symmetry_space_group_name_H-M    P1
_symmetry_Int_Tables_number       1
_symmetry_cell_setting            triclinic
loop_
_symmetry_equiv_pos_as_xyz
'x, y, z'
_cell_length_a     71.061003
_cell_length_b     67.891121
_cell_length_c     69.424734
_cell_angle_alpha  92.403308
_cell_angle_beta   90.01108
_cell_angle_gamma 91.283308
loop_
_atom_site_label
_atom_site_type_symbol
_atom_site_fract_x
_atom_site_fract_y
_atom_site_fract_z
_atom_type_partial_charge
Mg0 Mg -0.00783 0.25839 0.12443 0.0
O1 O -0.0081 0.22952 0.10692 0.0
O2 O 0.96599 0.22711 0.08879 0.0
Mg3 Mg 0.94911 0.25477 0.09551 0.0
C4 C 0.98157 0.22032 0.09438 0.0
C5 C 0.03013 0.26645 0.14338 0.0
O6 O 0.02123 0.28294 0.14705 0.0
O7 O 0.00016 0.27455 0.09773 0.0
O8 O 0.9727 0.27297 0.08186 0.0
O9 O 0.97605 0.24494 0.14793 0.0
O10 O 0.9631 0.2598 0.12358 0.0
C11 C -0.01009 0.27869 0.08341 0.0
C12 C 0.96106 0.25044 0.1392 0.0
O13 O 0.02225 0.25312 0.13266 0.0
Mg14 Mg -0.00697 0.72968 0.35439 0.0
O15 O 0.98528 0.75996 0.36702 0.0
O16 O 0.95718 0.75748 0.38131 0.0
Mg17 Mg 0.94687 0.72553 0.37748 0.0
C18 C 0.97166 0.76756 0.37646 0.0
C19 C 0.03511 0.72764 0.34649 0.0
O20 O 0.03018 0.70906 0.3485 0.0
O21 O -0.00033 0.7199 0.38457 0.0
O22 O 0.97084 0.71672 0.39717 0.0
O23 O 0.97796 0.73647 0.32742 0.0
O24 O 0.96503 0.72154 0.35211 0.0
C25 C 0.98872 0.71562 0.39847 0.0
C26 C 0.9631 0.72944 0.33574 0.0
O27 O 0.02285 0.74073 0.34937 0.0
Mg28 Mg 0.4933 0.75996 0.62111 0.0
O29 O 0.49583 0.73016 0.6055 0.0
O30 O 0.47141 0.72509 0.58556 0.0
Mg31 Mg 0.45181 0.75112 0.59042 0.0
C32 C 0.48693 0.71973 0.59271 0.0
C33 C 0.5283 0.74281 0.6393 0.0
O34 O 0.51596 0.72818 0.64025 0.0
O35 O 0.50071 0.77531 0.59371 0.0
O36 O 0.4738 0.77162 0.57706 0.0
O37 O 0.47756 0.74658 0.64476 0.0
O38 O 0.46414 0.75851 0.61905 0.0
C39 C 0.49053 0.77873 0.5791 0.0
C40 C 0.46241 0.74997 0.63519 0.0
O41 O 0.52365 0.75837 0.63107 0.0
Mg42 Mg 0.49405 0.22805 0.85292 0.0
O43 O 0.48786 0.25898 0.86502 0.0
O44 O 0.45801 0.25973 0.87514 0.0
Mg45 Mg 0.44596 0.22829 0.87184 0.0
C46 C 0.4739 0.26821 0.87219 0.0
C47 C 0.53084 0.25192 0.84305 0.0
O48 O 0.51852 0.26516 0.83866 0.0
O49 O 0.49724 0.21813 0.88358 0.0
O50 O 0.4674 0.2181 0.89387 0.0
O51 O 0.4816 0.23598 0.82474 0.0
O52 O 0.4659 0.22219 0.84844 0.0
C53 C 0.4849 0.21529 0.89664 0.0
C54 C 0.46576 0.22997 0.8319 0.0
O55 O 0.5251 0.23598 0.85028 0.0
Mg56 Mg 0.12384 0.98294 0.25265 0.0
O57 O 0.14017 0.01198 0.2503 0.0
O58 O 0.16041 0.01469 0.27495 0.0
Mg59 Mg 0.15285 0.99052 0.29592 0.0
C60 C 0.15373 0.0208 0.25929 0.0
C61 C 0.10808 -0.00045 0.21577 0.0
O62 O 0.10743 0.0149 0.2279 0.0
O63 O 0.15006 0.96553 0.24609 0.0
O64 O 0.16433 0.967 0.27488 0.0
O65 O 0.10021 -0.00285 0.26845 0.0
O66 O 0.12516 0.98499 0.28227 0.0
C67 C 0.16271 0.9599 0.2576 0.0
C68 C 0.10917 -0.00665 0.28407 0.0
O69 O 0.11523 0.98375 0.2213 0.0
Mg70 Mg 0.24378 0.87725 0.51067 0.0
O71 O 0.24686 0.86678 0.47911 0.0
O72 O 0.2734 0.84994 0.47584 0.0
Mg73 Mg 0.28805 0.85067 0.50512 0.0
C74 C 0.25855 0.85704 0.46888 0.0
C75 C 0.20898 0.8934 0.48962 0.0
O76 O 0.22195 0.8963 0.4765 0.0
O77 O 0.23594 0.84603 0.51956 0.0
O78 O 0.26447 0.83269 0.51865 0.0
O79 O 0.26074 0.90494 0.50549 0.0
O80 O 0.27255 0.87699 0.51447 0.0
C81 C 0.24698 0.83192 0.52284 0.0
C82 C 0.27532 0.89486 0.50973 0.0
O83 O 0.21342 0.88518 0.50506 0.0
Mg84 Mg 0.38241 0.02161 0.75231 0.0
O85 O 0.3717 0.9901 0.75556 0.0
O86 O 0.35619 0.98799 0.78345 0.0
Mg87 Mg 0.35836 0.0184 0.79867 0.0
C88 C 0.36232 0.98033 0.76765 0.0
C89 C 0.38652 -0.00078 0.71099 0.0
O90 O 0.38012 0.98343 0.71932 0.0
O91 O 0.35275 0.03037 0.74656 0.0
O92 O 0.33878 0.03014 0.77542 0.0
O93 O 0.40897 0.01403 0.76607 0.0
O94 O 0.3839 0.02519 0.78184 0.0
C95 C 0.33842 0.03301 0.75733 0.0
C96 C 0.40033 0.01751 0.78225 0.0
O97 O 0.38795 0.0156 0.7205 0.0
Mg98 Mg 0.2496 0.11722 0.98365 0.0
O99 O 0.25111 0.13111 0.01387 0.0
O100 O 0.27712 0.15006 0.01663 0.0
Mg101 Mg 0.29293 0.14695 0.98808 0.0
C102 C 0.26199 0.14286 0.02361 0.0
C103 C 0.21431 0.09116 0.98497 0.0
O104 O 0.22618 0.07921 0.97623 0.0
O105 O 0.2417 0.14622 0.97126 0.0
O106 O 0.26929 0.16267 0.97281 0.0
O107 O 0.26501 0.09203 -0.00623 0.0
O108 O 0.27867 0.11831 0.98125 0.0
C109 C 0.25194 0.16139 0.96797 0.0
C110 C 0.28021 0.1017 0.98937 0.0
O111 O 0.21952 0.10874 0.98946 0.0
Mg112 Mg 0.74689 0.37846 0.01002 0.0
O113 O 0.75279 0.36807 0.97898 0.0
O114 O 0.78019 0.35248 0.97866 0.0
Mg115 Mg 0.79263 0.3548 0.00901 0.0
C116 C 0.76566 0.35855 0.97012 0.0
C117 C 0.7064 0.39119 0.01514 0.0
O118 O 0.71281 0.39169 0.03292 0.0
O119 O 0.74028 0.3469 0.01848 0.0
O120 O 0.7691 0.3344 0.01962 0.0
O121 O 0.76199 0.40671 0.00441 0.0
O122 O 0.77523 0.38044 0.016 0.0
C123 C 0.75131 0.33283 0.02199 0.0
C124 C 0.77702 0.39789 0.00964 0.0
O125 O 0.71685 0.38444 0.00172 0.0
Mg126 Mg 0.88673 0.51665 0.25004 0.0
O127 O 0.87562 0.4852 0.25344 0.0
O128 O 0.85669 0.48551 0.27913 0.0
Mg129 Mg 0.85975 0.51582 0.29454 0.0
C130 C 0.86408 0.47667 0.26454 0.0
C131 C 0.8861 0.4955 0.20829 0.0
O132 O 0.87345 0.48319 0.215 0.0
O133 O 0.85799 0.52653 0.24192 0.0
O134 O 0.8427 0.52855 0.27007 0.0
O135 O 0.91239 0.50979 0.26631 0.0
O136 O 0.88628 0.52198 0.27914 0.0
C137 C 0.84352 0.5309 0.25191 0.0
C138 C 0.90286 0.51522 0.28148 0.0
O139 O 0.89323 0.50931 0.21904 0.0
Mg140 Mg 0.74761 0.61576 0.48224 0.0
O141 O 0.7519 0.62938 0.51246 0.0
O142 O 0.78057 0.64358 0.51435 0.0
Mg143 Mg 0.79334 0.64143 0.48413 0.0
C144 C 0.76495 0.63854 0.52195 0.0
C145 C 0.71105 0.59235 0.48562 0.0
O146 O 0.72193 0.57977 0.47632 0.0
O147 O 0.74125 0.64546 0.47071 0.0
O148 O 0.76991 0.65974 0.47108 0.0
O149 O 0.76193 0.58915 0.49108 0.0
O150 O 0.77643 0.61444 0.47773 0.0
C151 C 0.75232 0.65991 0.46715 0.0
C152 C 0.7774 0.59769 0.48564 0.0
O153 O 0.71737 0.6096 0.48991 0.0
Mg154 Mg 0.62287 0.48569 0.75411 0.0
O155 O 0.63769 0.51556 0.75291 0.0
O156 O 0.65496 0.52034 0.77968 0.0
Mg157 Mg 0.64678 0.49587 0.80016 0.0
C158 C 0.64962 0.52553 0.76314 0.0
C159 C 0.60946 0.50093 0.71603 0.0
O160 O 0.60689 0.516 0.72816 0.0
O161 O 0.65084 0.47063 0.75081 0.0
O162 O 0.66262 0.4738 0.78077 0.0
O163 O 0.59704 0.49859 0.76696 0.0
O164 O 0.62108 0.48802 0.7836 0.0
C165 C 0.66314 0.46669 0.76344 0.0
C166 C 0.60459 0.49544 0.78349 0.0
O167 O 0.61726 0.48569 0.72203 0.0
Mg168 Mg -8e-05 0.73687 0.85561 0.0
O169 O -0.00332 0.76465 0.87541 0.0
O170 O 0.97052 0.75973 0.89278 0.0
Mg171 Mg 0.95675 0.73031 0.88325 0.0
C172 C 0.98482 0.77025 0.88825 0.0
C173 C 0.03699 0.7356 0.83449 0.0
O174 O 0.02537 0.72513 0.82321 0.0
O175 O 0.00859 0.71858 0.88061 0.0
O176 O 0.98153 0.71384 0.89625 0.0
O177 O 0.98387 0.75139 0.83305 0.0
O178 O 0.97094 0.73281 0.85515 0.0
C179 C -0.00084 0.71108 0.8942 0.0
C180 C 0.96883 0.74433 0.84103 0.0
O181 O 0.03056 0.74402 0.84972 0.0
Mg182 Mg -0.0048 0.26347 0.6361 0.0
O183 O -0.00581 0.23294 0.62185 0.0
O184 O 0.96596 0.22681 0.60826 0.0
Mg185 Mg 0.94992 0.25547 0.6114 0.0
C186 C 0.98245 0.22158 0.61278 0.0
C187 C 0.03225 0.25821 0.658 0.0
O188 O 0.02036 0.26074 0.67233 0.0
O189 O 6e-05 0.27565 0.60684 0.0
O190 O 0.97218 0.27072 0.59231 0.0
O191 O 0.98239 0.25126 0.66191 0.0
O192 O 0.96591 0.26301 0.63797 0.0
C193 C -0.01064 0.2768 0.59221 0.0
C194 C 0.96628 0.25364 0.65375 0.0
O195 O 0.02641 0.25952 0.64082 0.0
Mg196 Mg 0.50068 0.24009 0.35547 0.0
O197 O 0.49982 0.26737 0.37665 0.0
O198 O 0.47368 0.26312 0.39422 0.0
Mg199 Mg 0.4579 0.23513 0.3841 0.0
C200 C 0.48852 0.273 0.39005 0.0
C201 C 0.5385 0.22925 0.3404 0.0
O202 O 0.52773 0.21336 0.33784 0.0
O203 O 0.50885 0.2202 0.37952 0.0
O204 O 0.482 0.21697 0.39594 0.0
O205 O 0.48485 0.25631 0.33372 0.0
O206 O 0.47169 0.23814 0.35595 0.0
C207 C 0.49933 0.21309 0.39325 0.0
C208 C 0.46971 0.24978 0.34193 0.0
O209 O 0.53141 0.24473 0.34805 0.0
Mg210 Mg 0.49621 0.76125 0.13266 0.0
O211 O 0.49413 0.72986 0.12004 0.0
O212 O 0.46678 0.72575 0.10423 0.0
Mg213 Mg 0.45108 0.75455 0.10769 0.0
C214 C 0.48243 0.71927 0.11003 0.0
C215 C 0.53411 0.76214 0.15409 0.0
O216 O 0.52368 0.77143 0.16702 0.0
O217 O 0.50166 0.77263 0.10304 0.0
O218 O 0.47344 0.76957 0.08892 0.0
O219 O 0.4833 0.75056 0.15892 0.0
O220 O 0.46721 0.76168 0.13431 0.0
C221 C 0.49083 0.77476 0.08865 0.0
C222 C 0.46732 0.75282 0.15041 0.0
O223 O 0.52701 0.75689 0.13785 0.0
Mg224 Mg 0.88293 -0.00013 0.74618 0.0
O225 O 0.86261 0.97336 0.74842 0.0
O226 O 0.84775 0.97698 0.77674 0.0
Mg227 Mg 0.85867 0.00526 0.79226 0.0
C228 C 0.85087 0.96729 0.76094 0.0
C229 C 0.89783 0.00817 0.70775 0.0
O230 O 0.90485 0.0217 0.71997 0.0
O231 O 0.85904 0.02012 0.74053 0.0
O232 O 0.84568 0.02469 0.76939 0.0
O233 O 0.90513 0.98272 0.75949 0.0
O234 O 0.88501 0.00153 0.77578 0.0
C235 C 0.84691 0.02833 0.75151 0.0
C236 C 0.89836 0.98895 0.77591 0.0
O237 O 0.88708 -0.00524 0.71415 0.0
Mg238 Mg 0.75597 0.11366 0.47964 0.0
O239 O 0.75548 0.12667 0.51015 0.0
O240 O 0.78163 0.14499 0.51554 0.0
Mg241 Mg 0.79942 0.14256 0.48825 0.0
C242 C 0.76584 0.13789 0.52105 0.0
C243 C 0.72013 0.08942 0.48835 0.0
O244 O 0.733 0.076 0.4899 0.0
O245 O 0.74989 0.14359 0.46831 0.0
O246 O 0.77716 0.16025 0.47235 0.0
O247 O 0.7694 0.08768 0.49039 0.0
O248 O 0.78539 0.11381 0.48065 0.0
C249 C 0.76005 0.15914 0.4666 0.0
C250 C 0.78531 0.09708 0.48888 0.0
O251 O 0.72494 0.10648 0.48302 0.0
Mg252 Mg 0.61038 -0.00741 0.24862 0.0
O253 O 0.62984 0.01938 0.24698 0.0
O254 O 0.64755 0.02288 0.27358 0.0
Mg255 Mg 0.6397 -0.00304 0.29184 0.0
C256 C 0.64243 0.02857 0.25715 0.0
C257 C 0.59287 0.98365 0.20796 0.0
O258 O 0.58661 0.96746 0.21576 0.0
O259 O 0.63448 0.97275 0.24108 0.0
O260 O 0.6518 0.9768 0.26789 0.0
O261 O 0.58952 0.01139 0.26294 0.0
O262 O 0.61156 -0.00449 0.27835 0.0
C263 C 0.64912 0.96942 0.25087 0.0
C264 C 0.59815 0.00807 0.27886 0.0
O265 O 0.60337 -0.00431 0.21765 0.0
Mg266 Mg 0.73891 0.8826 0.01833 0.0
O267 O 0.7393 0.86497 0.98931 0.0
O268 O 0.76339 0.84438 0.98996 0.0
Mg269 Mg 0.77813 0.84869 0.0191 0.0
C270 C 0.7495 0.85171 0.9813 0.0
C271 C 0.70247 0.90561 0.02391 0.0
O272 O 0.71318 0.91339 0.03779 0.0
O273 O 0.72734 0.85644 0.0345 0.0
O274 O 0.75214 0.83675 0.03502 0.0
O275 O 0.75846 0.90459 0.00544 0.0
O276 O 0.76751 0.87891 0.02146 0.0
C277 C 0.73513 0.84066 0.03946 0.0
C278 C 0.77192 0.89377 0.01136 0.0
O279 O 0.70925 0.89254 0.01243 0.0
Mg280 Mg 0.25354 0.61489 0.97917 0.0
O281 O 0.25522 0.62782 0.00977 0.0
O282 O 0.28245 0.64482 0.0134 0.0
Mg283 Mg 0.29892 0.6408 0.98536 0.0
C284 C 0.26671 0.63856 0.01985 0.0
C285 C 0.21649 0.59197 0.98507 0.0
O286 O 0.22844 0.57766 0.98221 0.0
O287 O 0.24881 0.64527 0.96815 0.0
O288 O 0.27717 0.66004 0.97052 0.0
O289 O 0.26594 0.588 0.98938 0.0
O290 O 0.28285 0.61304 0.97857 0.0
C291 C 0.25977 0.66011 0.96578 0.0
C292 C 0.28224 0.59636 0.98688 0.0
O293 O 0.22226 0.60969 0.98374 0.0
Mg294 Mg 0.11142 0.4914 0.74951 0.0
O295 O 0.12958 0.51917 0.74852 0.0
O296 O 0.14592 0.52295 0.77595 0.0
Mg297 Mg 0.13763 0.49715 0.79453 0.0
C298 C 0.14139 0.5287 0.75933 0.0
C299 C 0.09298 0.48336 0.70983 0.0
O300 O 0.08327 0.4705 0.71966 0.0
O301 O 0.13675 0.47289 0.74432 0.0
O302 O 0.15165 0.47556 0.77267 0.0
O303 O 0.08886 0.50904 0.76188 0.0
O304 O 0.11038 0.49449 0.77923 0.0
C305 C 0.15022 0.46854 0.75533 0.0
C306 C 0.09634 0.50622 0.77852 0.0
O307 O 0.10625 0.4933 0.71799 0.0
Mg308 Mg 0.23972 0.38186 0.51723 0.0
O309 O 0.24089 0.36238 0.48946 0.0
O310 O 0.2668 0.34436 0.49062 0.0
Mg311 Mg 0.27996 0.34962 0.52045 0.0
C312 C 0.25225 0.35003 0.48182 0.0
C313 C 0.2044 0.40731 0.51424 0.0
O314 O 0.21643 0.42047 0.52174 0.0
O315 O 0.22852 0.35656 0.53451 0.0
O316 O 0.25365 0.33742 0.5358 0.0
O317 O 0.25909 0.40353 0.50339 0.0
O318 O 0.26833 0.37936 0.52135 0.0
C319 C 0.23652 0.3411 0.53991 0.0
C320 C 0.27265 0.39361 0.51046 0.0
O321 O 0.21 0.39008 0.50989 0.0
Mg322 Mg 0.37958 0.49762 0.24633 0.0
O323 O 0.35796 0.4723 0.24711 0.0
O324 O 0.34233 0.47607 0.27495 0.0
Mg325 Mg 0.35493 0.50247 0.29236 0.0
C326 C 0.34537 0.4667 0.25895 0.0
C327 C 0.39484 0.50718 0.20823 0.0
O328 O 0.40125 0.52089 0.22062 0.0
O329 O 0.3571 0.51985 0.24094 0.0
O330 O 0.34548 0.52473 0.2706 0.0
O331 O 0.40085 0.47897 0.25984 0.0
O332 O 0.38108 0.49815 0.27599 0.0
C333 C 0.34669 0.52917 0.25295 0.0
C334 C 0.3942 0.48539 0.27624 0.0
O335 O 0.38431 0.49344 0.21436 0.0
O336 O 0.95446 0.02004 0.96803 0.0
Mg337 Mg 0.94818 0.01985 -0.00173 0.0
O338 O 0.98077 0.00274 0.96819 0.0
Mg339 Mg -0.00965 -0.0023 -0.00111 0.0
O340 O 0.97382 0.02288 0.01022 0.0
O341 O 0.95249 0.04469 0.01757 0.0
O342 O 0.00012 -0.00712 0.03006 0.0
O343 O 0.01515 0.01995 -0.00526 0.0
Mg344 Mg 0.03214 0.9759 -0.00111 0.0
O345 O 0.00647 0.97197 0.98725 0.0
O346 O 0.02664 0.9758 0.02909 0.0
O347 O 0.04136 0.00331 0.98861 0.0
O348 O 0.02849 0.95048 0.98075 0.0
C349 C 0.9477 0.97585 0.00583 0.0
C350 C 0.96789 0.01137 0.95919 0.0
C351 C 0.96953 0.03897 0.01924 0.0
C352 C 0.01339 0.98416 0.03844 0.0
C353 C 0.03242 0.01931 0.9898 0.0
C354 C 0.01134 0.95575 0.97871 0.0
O355 O 0.93855 0.99174 0.00703 0.0
O356 O 0.96532 0.97561 0.00221 0.0
O357 O 0.24841 0.73221 0.29934 0.0
Mg358 Mg 0.23727 0.70899 0.2802 0.0
O359 O 0.25512 0.75483 0.27778 0.0
Mg360 Mg 0.25187 0.74177 0.24679 0.0
O361 O 0.25291 0.71217 0.25679 0.0
O362 O 0.25211 0.68342 0.26929 0.0
O363 O 0.24855 0.72935 0.21571 0.0
O364 O 0.28392 0.74035 0.24356 0.0
Mg365 Mg 0.27088 0.77412 0.21582 0.0
O366 O 0.2515 0.77153 0.23645 0.0
O367 O 0.26063 0.75143 0.19577 0.0
O368 O 0.29631 0.76677 0.22991 0.0
O369 O 0.25396 0.79924 0.22183 0.0
C370 C 0.20682 0.73124 0.25821 0.0
C371 C 0.25363 0.74966 0.29521 0.0
C372 C 0.25826 0.69444 0.25597 0.0
C373 C 0.25236 0.73494 0.19877 0.0
C374 C 0.29807 0.75072 0.2385 0.0
C375 C 0.2451 0.78857 0.2339 0.0
O376 O 0.21085 0.71695 0.26874 0.0
O377 O 0.21941 0.74208 0.2504 0.0
O378 O 0.53089 0.97172 0.46254 0.0
Mg379 Mg 0.53678 0.97564 0.49252 0.0
O380 O 0.50671 0.99201 0.46187 0.0
Mg381 Mg 0.49551 -0.00076 0.49205 0.0
O382 O 0.51109 0.97499 0.50439 0.0
O383 O 0.53207 0.95376 0.51275 0.0
O384 O 0.48372 0.00557 0.52183 0.0
O385 O 0.47061 0.97725 0.48568 0.0
Mg386 Mg 0.45369 0.02169 0.48965 0.0
O387 O 0.48031 0.02413 0.48035 0.0
O388 O 0.45698 0.02211 0.52061 0.0
O389 O 0.44513 -0.00631 0.4775 0.0
O390 O 0.46001 0.04604 0.47222 0.0
C391 C 0.53795 0.02029 0.502 0.0
C392 C 0.51874 0.98111 0.4533 0.0
C393 C 0.51532 0.96042 0.51452 0.0
C394 C 0.46986 0.01394 0.53007 0.0
C395 C 0.45377 0.97766 0.47928 0.0
C396 C 0.47701 0.03992 0.47163 0.0
O397 O 0.54677 0.00419 0.50117 0.0
O398 O 0.52037 0.02122 0.4985 0.0
O399 O 0.29982 0.26982 0.75582 0.0
Mg400 Mg 0.29338 0.25661 0.72834 0.0
O401 O 0.27442 0.25962 0.77187 0.0
Mg402 Mg 0.25097 0.24902 0.74976 0.0
O403 O 0.26614 0.26266 0.72565 0.0
O404 O 0.28617 0.27377 0.70456 0.0
O405 O 0.22724 0.23888 0.72766 0.0
O406 O 0.23662 0.27803 0.75469 0.0
Mg407 Mg 0.20882 0.24394 0.76994 0.0
O408 O 0.23559 0.23577 0.77446 0.0
O409 O 0.20138 0.22974 0.74348 0.0
O410 O 0.20923 0.27557 0.76986 0.0
O411 O 0.21271 0.22737 0.7942 0.0
C412 C 0.27994 0.21341 0.73424 0.0
C413 C 0.29073 0.268 0.77145 0.0
C414 C 0.26901 0.27189 0.7102 0.0
C415 C 0.21059 0.23124 0.72794 0.0
C416 C 0.222 0.28585 0.76188 0.0
C417 C 0.23029 0.22704 0.78967 0.0
O418 O 0.29203 0.22486 0.7266 0.0
O419 O 0.26564 0.21989 0.74345 0.0
O420 O 0.00827 0.94206 0.49678 0.0
Mg421 Mg 0.01266 0.95746 0.52397 0.0
O422 O -0.00346 0.9656 0.47892 0.0
Mg423 Mg -0.00268 -0.00528 0.49752 0.0
O424 O -0.00698 0.97792 0.52362 0.0
O425 O -0.00782 0.95693 0.54654 0.0
O426 O -0.0007 0.02386 0.51621 0.0
O427 O 0.96482 -0.00395 0.49606 0.0
Mg428 Mg 0.98246 0.03269 0.47268 0.0
O429 O 0.00122 0.01108 0.47061 0.0
O430 O -0.00796 0.0488 0.49773 0.0
O431 O 0.95617 0.0176 0.4746 0.0
O432 O -0.00093 0.03233 0.4477 0.0
C433 C 0.04196 0.98739 0.51165 0.0
C434 C 0.0017 0.94787 0.48094 0.0
C435 C 0.98488 0.97181 0.53872 0.0
C436 C -0.0023 0.04225 0.51357 0.0
C437 C 0.95219 0.00419 0.48627 0.0
C438 C 0.00714 0.0173 0.45447 0.0
O439 O 0.03745 0.97546 0.52464 0.0
O440 O 0.02986 -0.00647 0.4998 0.0
O441 O 0.25191 0.71213 0.77386 0.0
Mg442 Mg 0.26236 0.71191 0.74474 0.0
O443 O 0.25258 0.74465 0.77785 0.0
Mg444 Mg 0.25042 0.75209 0.74609 0.0
O445 O 0.27816 0.73605 0.73924 0.0
O446 O 0.28984 0.70569 0.7399 0.0
O447 O 0.24658 0.75996 0.71402 0.0
O448 O 0.27097 0.77902 0.75144 0.0
Mg449 Mg 0.2287 0.79634 0.74384 0.0
O450 O 0.22615 0.76959 0.75443 0.0
O451 O 0.23073 0.78821 0.71394 0.0
O452 O 0.25482 0.80676 0.75558 0.0
O453 O 0.20448 0.7909 0.76143 0.0
C454 C 0.22879 0.71152 0.72811 0.0
C455 C 0.25065 0.72762 0.7847 0.0
C456 C 0.29207 0.72419 0.73666 0.0
C457 C 0.23856 0.77369 0.70516 0.0
C458 C 0.27018 0.79749 0.7556 0.0
C459 C 0.21087 0.77351 0.76322 0.0
O460 O 0.2445 0.70724 0.72096 0.0
O461 O 0.22822 0.72576 0.74065 0.0
O462 O 0.4932 0.97163 0.03438 0.0
Mg463 Mg 0.48296 0.00094 0.03184 0.0
O464 O 0.49268 0.96496 0.00286 0.0
Mg465 Mg 0.49352 -0.00415 0.99164 0.0
O466 O 0.46633 0.00378 0.00836 0.0
O467 O 0.4557 0.00584 0.03878 0.0
O468 O 0.49502 0.02777 0.98084 0.0
O469 O 0.47291 0.9846 0.96753 0.0
Mg470 Mg 0.51447 -0.00229 0.94821 0.0
O471 O 0.51828 0.98597 0.97386 0.0
O472 O 0.51432 0.02846 0.9555 0.0
O473 O 0.48873 0.98368 0.93967 0.0
O474 O 0.53852 0.98025 0.95055 0.0
C475 C 0.51635 0.0197 0.02853 0.0
C476 C 0.49436 0.95949 0.02003 0.0
C477 C 0.45283 0.00728 0.02054 0.0
C478 C 0.50457 0.0372 0.9685 0.0
C479 C 0.47406 0.9801 0.94954 0.0
C480 C 0.53317 0.9772 0.96792 0.0
O481 O 0.50098 0.02574 0.03523 0.0
O482 O 0.51598 0.00642 0.01498 0.0
O483 O 0.24951 0.23865 0.1994 0.0
Mg484 Mg 0.24221 0.26686 0.21117 0.0
O485 O 0.24857 0.22157 0.22625 0.0
Mg486 Mg 0.24431 0.24301 0.25278 0.0
O487 O 0.25543 0.26823 0.23678 0.0
O488 O 0.26234 0.2901 0.21542 0.0
O489 O 0.23935 0.26477 0.27947 0.0
O490 O 0.27454 0.23817 0.26298 0.0
Mg491 Mg 0.24425 0.22004 0.29504 0.0
O492 O 0.23369 0.21737 0.2683 0.0
O493 O 0.23321 0.24725 0.30538 0.0
O494 O 0.27414 0.22128 0.28988 0.0
O495 O 0.22663 0.19473 0.28871 0.0
C496 C 0.2049 0.25803 0.23102 0.0
C497 C 0.25051 0.22254 0.20802 0.0
C498 C 0.26514 0.28343 0.23223 0.0
C499 C 0.23422 0.2636 0.29709 0.0
C500 C 0.28307 0.22989 0.27655 0.0
C501 C 0.22522 0.20103 0.27156 0.0
O502 O 0.21319 0.26862 0.21876 0.0
O503 O 0.21392 0.24775 0.24274 0.0
O504 O 0.45971 0.52739 0.98977 0.0
Mg505 Mg 0.48771 0.53535 0.98302 0.0
O506 O 0.46453 0.49683 -0.00103 0.0
Mg507 Mg 0.49705 0.4938 -0.0021 0.0
O508 O 0.49924 0.51124 0.9702 0.0
O509 O 0.49466 0.53898 0.9549 0.0
O510 O 0.52973 0.49147 -0.00264 0.0
O511 O 0.49441 0.4654 0.97785 0.0
Mg512 Mg 0.5137 0.45536 0.02172 0.0
O513 O 0.49396 0.47567 0.02342 0.0
O514 O 0.53856 0.4733 0.02171 0.0
O515 O 0.50776 0.4415 -0.00588 0.0
O516 O 0.49466 0.45377 0.04551 0.0
C517 C 0.50642 0.53871 0.01974 0.0
C518 C 0.45359 0.51094 -0.00445 0.0
C519 C 0.50046 0.52108 0.95462 0.0
C520 C 0.54242 0.48514 0.00845 0.0
C521 C 0.50007 0.44767 0.97897 0.0
C522 C 0.48688 0.46899 0.03883 0.0
O523 O 0.50541 0.54804 0.00444 0.0
O524 O 0.50144 0.52058 0.02002 0.0
O525 O 0.74812 0.20999 0.27298 0.0
Mg526 Mg 0.756 0.20956 0.24307 0.0
O527 O 0.74977 0.24246 0.27758 0.0
Mg528 Mg 0.74727 0.25179 0.24639 0.0
O529 O 0.77261 0.23307 0.23719 0.0
O530 O 0.7826 0.20207 0.23507 0.0
O531 O 0.74337 0.26167 0.21506 0.0
O532 O 0.76999 0.27656 0.25185 0.0
Mg533 Mg 0.7281 0.29775 0.24644 0.0
O534 O 0.72501 0.27105 0.25665 0.0
O535 O 0.72735 0.28978 0.21627 0.0
O536 O 0.75584 0.30555 0.25627 0.0
O537 O 0.70432 0.29285 0.26508 0.0
C538 C 0.72095 0.21419 0.22816 0.0
C539 C 0.74779 0.22532 0.28416 0.0
C540 C 0.78563 0.22063 0.23271 0.0
C541 C 0.73489 0.27548 0.20679 0.0
C542 C 0.77051 0.2951 0.25592 0.0
C543 C 0.71006 0.2751 0.26593 0.0
O544 O 0.73562 0.20655 0.22133 0.0
O545 O 0.72261 0.22833 0.24076 0.0
O546 O -0.00782 0.47253 0.53766 0.0
Mg547 Mg 0.98365 0.50246 0.53436 0.0
O548 O -0.00978 0.4649 0.5064 0.0
Mg549 Mg -0.0073 0.49521 0.49422 0.0
O550 O 0.96649 0.50577 0.51126 0.0
O551 O 0.95705 0.50984 0.54195 0.0
O552 O -0.00374 0.52603 0.4814 0.0
O553 O 0.97121 0.48458 0.4708 0.0
Mg554 Mg 0.01339 0.49143 0.44983 0.0
O555 O 0.01617 0.48382 0.47691 0.0
O556 O 0.01312 0.52278 0.45427 0.0
O557 O 0.98695 0.47757 0.44356 0.0
O558 O 0.0372 0.47403 0.45594 0.0
C559 C 0.01822 0.51803 0.52954 0.0
C560 C -0.00776 0.45986 0.52366 0.0
C561 C 0.95366 0.51074 0.52374 0.0
C562 C 0.00504 0.53345 0.46723 0.0
C563 C 0.97193 0.47727 0.45356 0.0
C564 C 0.03108 0.47424 0.47337 0.0
O565 O 0.00362 0.52573 0.53645 0.0
O566 O 0.0164 0.50443 0.51644 0.0
O567 O 0.70844 0.777 0.27394 0.0
Mg568 Mg 0.70697 0.7455 0.27032 0.0
O569 O 0.73501 0.7797 0.25736 0.0
Mg570 Mg 0.74894 0.75091 0.25002 0.0
O571 O 0.73355 0.73596 0.27382 0.0
O572 O 0.71045 0.72657 0.29285 0.0
O573 O 0.7636 0.72252 0.24243 0.0
O574 O 0.77248 0.76028 0.27228 0.0
Mg575 Mg 0.79125 0.75964 0.22866 0.0
O576 O 0.76389 0.76534 0.22641 0.0
O577 O 0.79052 0.72771 0.22661 0.0
O578 O 0.7974 0.77218 0.25655 0.0
O579 O 0.7832 0.77659 0.20484 0.0
C580 C 0.70878 0.73501 0.22749 0.0
C581 C 0.72124 0.78747 0.26628 0.0
C582 C 0.72802 0.7262 0.28834 0.0
C583 C 0.77815 0.71615 0.23367 0.0
C584 C 0.7886 0.76909 0.27214 0.0
C585 C 0.76616 0.77423 0.21068 0.0
O586 O 0.69918 0.73401 0.24284 0.0
O587 O 0.72571 0.74173 0.22744 0.0
O588 O 0.7497 0.23639 0.80032 0.0
Mg589 Mg 0.74191 0.2097 0.78505 0.0
O590 O 0.75346 0.25756 0.77669 0.0
Mg591 Mg 0.75119 0.23914 0.74736 0.0
O592 O 0.75739 0.21182 0.76144 0.0
O593 O 0.76061 0.18597 0.77858 0.0
O594 O 0.7476 0.21979 0.71943 0.0
O595 O 0.78388 0.24174 0.74402 0.0
Mg596 Mg 0.76562 0.26118 0.7136 0.0
O597 O 0.74363 0.26741 0.73188 0.0
O598 O 0.76114 0.23563 0.69571 0.0
O599 O 0.79216 0.2663 0.72597 0.0
O600 O 0.75147 0.28521 0.70643 0.0
C601 C 0.70815 0.22354 0.76162 0.0
C602 C 0.75269 0.2538 0.79465 0.0
C603 C 0.76507 0.19522 0.76341 0.0
C604 C 0.75264 0.22061 0.70191 0.0
C605 C 0.79659 0.25304 0.73724 0.0
C606 C 0.7411 0.28254 0.7214 0.0
O607 O 0.71417 0.21118 0.77339 0.0
O608 O 0.71927 0.23489 0.75247 0.0
O609 O 0.73861 0.74598 0.69665 0.0
Mg610 Mg 0.73417 0.77354 0.7115 0.0
O611 O 0.74607 0.72659 0.72065 0.0
Mg612 Mg 0.74359 0.74594 0.74921 0.0
O613 O 0.75169 0.77272 0.73402 0.0
O614 O 0.75484 0.79654 0.71387 0.0
O615 O 0.74027 0.7659 0.77743 0.0
O616 O 0.77541 0.74248 0.75593 0.0
Mg617 Mg 0.74953 0.72077 0.78942 0.0
O618 O 0.73585 0.7186 0.76412 0.0
O619 O 0.73911 0.74689 0.80293 0.0
O620 O 0.77832 0.72306 0.78088 0.0
O621 O 0.73258 0.69501 0.78457 0.0
C622 C 0.70072 0.76157 0.73503 0.0
C623 C 0.74301 0.72926 0.70276 0.0
C624 C 0.76044 0.78843 0.72923 0.0
C625 C 0.73788 0.7636 0.79548 0.0
C626 C 0.78555 0.73331 0.76769 0.0
C627 C 0.72871 0.70172 0.768 0.0
O628 O 0.70718 0.77491 0.72436 0.0
O629 O 0.71154 0.74954 0.74308 0.0
O630 O 0.53927 0.50799 0.48733 0.0
Mg631 Mg 0.53135 0.47983 0.49676 0.0
O632 O 0.51284 0.52344 0.49522 0.0
Mg633 Mg 0.48904 0.50007 0.49979 0.0
O634 O 0.50531 0.47529 0.48625 0.0
O635 O 0.52803 0.45531 0.47754 0.0
O636 O 0.46467 0.47738 0.50408 0.0
O637 O 0.47775 0.5056 0.46989 0.0
Mg638 Mg 0.44607 0.52141 0.50191 0.0
O639 O 0.4724 0.52447 0.51199 0.0
O640 O 0.43824 0.49314 0.51189 0.0
O641 O 0.4504 0.5211 0.4712 0.0
O642 O 0.45233 0.54735 0.51953 0.0
C643 C 0.51447 0.48554 0.53744 0.0
C644 C 0.52989 0.52364 0.4895 0.0
C645 C 0.51055 0.45978 0.47665 0.0
C646 C 0.44746 0.47734 0.50943 0.0
C647 C 0.46393 0.51345 0.46164 0.0
C648 C 0.46928 0.54119 0.52032 0.0
O649 O 0.52736 0.47789 0.52703 0.0
O650 O 0.50064 0.49446 0.53023 0.0
O651 O 0.02869 0.4767 0.95782 0.0
Mg652 Mg 0.03674 0.47465 0.98721 0.0
O653 O 0.00414 0.49641 0.96196 0.0
Mg654 Mg -0.0048 0.49813 -0.00643 0.0
O655 O 0.01164 0.47198 -0.00025 0.0
O656 O 0.03247 0.44911 0.00328 0.0
O657 O 0.98658 0.49879 0.0253 0.0
O658 O 0.97 0.47664 0.98486 0.0
Mg659 Mg 0.95446 0.51862 -4e-05 0.0
O660 O 0.97925 0.52588 0.98755 0.0
O661 O 0.96028 0.51557 0.02963 0.0
O662 O 0.94373 0.49383 0.98402 0.0
O663 O 0.95519 0.54596 0.98794 0.0
C664 C 0.03833 0.51699 0.00521 0.0
C665 C 0.01573 0.48713 0.95111 0.0
C666 C 0.016 0.45574 0.00706 0.0
C667 C 0.97399 0.5062 0.03622 0.0
C668 C 0.95254 0.47799 0.98078 0.0
C669 C 0.97237 0.54255 0.98311 0.0
O670 O 0.04691 0.5011 0.00115 0.0
O671 O 0.0207 0.51883 0.00224 0.0
C672 C 0.97759 0.19107 0.07146 0.0
C673 C 0.98823 0.20148 0.08574 0.0
C674 C 0.98388 0.17323 0.06344 0.0
C675 C 0.01131 0.13128 0.0755 0.0
H676 H 0.00228 0.11625 0.02175 0.0
C677 C -0.00153 0.0599 0.01914 0.0
C678 C 0.98349 0.05164 0.02944 0.0
C679 C 0.00823 0.07654 0.02675 0.0
C680 C 0.00546 0.12025 0.03669 0.0
H681 H 0.01413 0.20154 0.10244 0.0
H682 H 0.02492 0.17022 0.08852 0.0
H683 H 0.00091 0.1508 0.03238 0.0
H684 H 0.96793 0.05276 0.05618 0.0
H685 H 0.98509 0.08156 0.06971 0.0
H686 H 0.01458 0.10052 0.08 0.0
C687 C 0.01172 0.17592 0.08361 0.0
C688 C 0.00442 0.14001 0.0428 0.0
C689 C 0.00548 0.19382 0.09157 0.0
C690 C 0.97958 0.05888 0.04814 0.0
C691 C -0.01051 0.0753 0.05588 0.0
C692 C 0.01222 0.11146 0.0694 0.0
C693 C 0.00092 0.16541 0.06956 0.0
C694 C 0.00641 0.14555 0.0624 0.0
C695 C 0.00312 0.08498 0.04478 0.0
C696 C 0.00837 0.10568 0.05012 0.0
H697 H 0.96428 0.19656 0.06659 0.0
H698 H 0.9751 0.16524 0.05287 0.0
H699 H 0.01295 0.13517 0.09071 0.0
H700 H 0.00138 0.05477 0.00449 0.0
H701 H 0.01868 0.08373 0.01793 0.0
C702 C 0.05861 0.75259 0.3348 0.0
C703 C 0.05324 0.73277 0.33735 0.0
C704 C 0.07418 0.75723 0.32337 0.0
C705 C 0.0994 0.73695 0.28203 0.0
H706 H 0.14311 0.76807 0.29918 0.0
C707 C 0.17315 0.72136 0.25762 0.0
C708 C 0.18691 0.73644 0.25721 0.0
C709 C 0.15461 0.72574 0.26215 0.0
C710 C 0.13077 0.75987 0.29391 0.0
H711 H 0.06074 0.70237 0.33099 0.0
H712 H 0.08767 0.71051 0.31096 0.0
H713 H 0.11531 0.76633 0.3199 0.0
H714 H 0.19202 0.76803 0.25959 0.0
H715 H 0.15935 0.77577 0.2678 0.0
H716 H 0.115 0.72977 0.25645 0.0
C717 C 0.07969 0.7224 0.3176 0.0
C718 C 0.11496 0.75876 0.30585 0.0
C719 C 0.06436 0.71776 0.32919 0.0
C720 C 0.18157 0.75617 0.2597 0.0
C721 C 0.16296 0.76057 0.26456 0.0
C722 C 0.11509 0.73818 0.27006 0.0
C723 C 0.08439 0.74212 0.31414 0.0
C724 C 0.09954 0.74654 0.30034 0.0
C725 C 0.14951 0.74528 0.2666 0.0
C726 C 0.13128 0.74884 0.2763 0.0
H727 H 0.05039 0.76448 0.34106 0.0
H728 H 0.07771 0.77255 0.32104 0.0
H729 H 0.08747 0.72775 0.27734 0.0
H730 H 0.17698 0.70603 0.25573 0.0
H731 H 0.14467 0.71359 0.26378 0.0
C732 C 0.48484 0.79965 0.55111 0.0
C733 C 0.49635 0.79484 0.56663 0.0
C734 C 0.48578 0.81855 0.54397 0.0
C735 C 0.51154 0.86682 0.54838 0.0
H736 H 0.46125 0.8879 0.54574 0.0
C737 C 0.50732 0.9467 0.54556 0.0
C738 C 0.50178 0.95049 0.52675 0.0
C739 C 0.50093 0.92957 0.554 0.0
C740 C 0.47531 0.88215 0.54663 0.0
H741 H 0.52003 0.80483 0.58453 0.0
H742 H 0.52149 0.83767 0.57238 0.0
H743 H 0.46521 0.85243 0.54867 0.0
H744 H 0.4829 0.9419 0.50331 0.0
H745 H 0.4719 0.91169 0.51791 0.0
H746 H 0.52163 0.89649 0.54667 0.0
C747 C 0.51155 0.8271 0.5658 0.0
C748 C 0.47765 0.86187 0.54794 0.0
C749 C 0.51071 0.80818 0.57282 0.0
C750 C 0.48726 0.93914 0.51789 0.0
C751 C 0.48102 0.92182 0.52623 0.0
C752 C 0.50919 0.88702 0.54738 0.0
C753 C 0.49824 0.83284 0.55226 0.0
C754 C 0.49582 0.85402 0.54888 0.0
C755 C 0.48936 0.91605 0.54339 0.0
C756 C 0.49108 0.89488 0.54663 0.0
H757 H 0.47396 0.78947 0.54564 0.0
H758 H 0.47587 0.82235 0.53295 0.0
H759 H 0.52569 0.86126 0.54877 0.0
H760 H 0.51843 0.95549 0.55263 0.0
H761 H 0.50718 0.92555 0.56748 0.0
C762 C 0.44436 0.25348 0.8167 0.0
C763 C 0.44755 0.23474 0.82366 0.0
C764 C 0.42591 0.25952 0.81371 0.0
C765 C 0.37692 0.2404 0.8087 0.0
H766 H 0.3632 0.29236 0.82868 0.0
C767 C 0.3024 0.25812 0.80317 0.0
C768 C 0.30129 0.27256 0.78937 0.0
C769 C 0.31841 0.25733 0.81473 0.0
C770 C 0.36687 0.27774 0.8233 0.0
H771 H 0.43452 0.20718 0.83176 0.0
H772 H 0.40257 0.21747 0.82637 0.0
H773 H 0.39619 0.28238 0.82986 0.0
H774 H 0.31393 0.29959 0.77939 0.0
H775 H 0.34197 0.29805 0.79933 0.0
H776 H 0.34792 0.23563 0.80198 0.0
C777 C 0.41404 0.22761 0.82321 0.0
C778 C 0.38573 0.27215 0.82367 0.0
C779 C 0.43233 0.22168 0.82629 0.0
C780 C 0.31466 0.28814 0.78977 0.0
C781 C 0.3307 0.28731 0.80127 0.0
C782 C 0.3582 0.24585 0.80856 0.0
C783 C 0.41056 0.24679 0.81747 0.0
C784 C 0.3909 0.2534 0.8163 0.0
C785 C 0.33348 0.2708 0.81233 0.0
C786 C 0.35294 0.26455 0.81581 0.0
H787 H 0.45596 0.26385 0.81482 0.0
H788 H 0.42363 0.27428 0.80898 0.0
H789 H 0.38047 0.22602 0.80257 0.0
H790 H 0.29243 0.24585 0.80306 0.0
H791 H 0.32012 0.24466 0.82351 0.0
C792 C 0.98507 0.80158 0.37312 0.0
C793 C 0.97318 0.78851 0.38283 0.0
C794 C 0.98748 0.82111 0.37995 0.0
C795 C 0.96743 0.85896 0.41384 0.0
H796 H 0.01855 0.88021 0.41492 0.0
C797 C 0.98545 0.93435 0.45105 0.0
C798 C -3e-05 0.93333 0.46466 0.0
C799 C 0.98253 0.91896 0.43724 0.0
C800 C 0.00419 0.87451 0.4146 0.0
H801 H 0.95434 0.78562 0.40716 0.0
H802 H 0.95898 0.81946 0.41945 0.0
H803 H 0.01187 0.84831 0.39868 0.0
H804 H 0.02376 0.91644 0.47359 0.0
H805 H 0.01878 0.88979 0.44952 0.0
H806 H 0.95997 0.88469 0.43071 0.0
C807 C 0.96605 0.81486 0.40625 0.0
C808 C 0.00031 0.85632 0.40516 0.0
C809 C 0.96345 0.79542 0.39927 0.0
C810 C 0.01227 0.91743 0.46343 0.0
C811 C 0.00953 0.90226 0.44952 0.0
C812 C 0.97131 0.87714 0.4233 0.0
C813 C 0.97822 0.82789 0.39677 0.0
C814 C 0.98195 0.84813 0.40502 0.0
C815 C -0.0057 0.90256 0.43666 0.0
C816 C -0.0102 0.88489 0.42413 0.0
H817 H -0.00739 0.79668 0.36029 0.0
H818 H -0.00329 0.83085 0.37214 0.0
H819 H 0.95309 0.85321 0.41377 0.0
H820 H 0.97584 0.94652 0.45165 0.0
H821 H 0.97078 0.91963 0.42736 0.0
C822 C 0.42842 0.75753 0.63815 0.0
C823 C 0.44379 0.74642 0.64369 0.0
C824 C 0.41178 0.75721 0.64881 0.0
C825 C 0.39525 0.74588 0.69769 0.0
H826 H 0.34563 0.74865 0.67488 0.0
C827 C 0.32648 0.72025 0.73226 0.0
C828 C 0.31044 0.73166 0.73016 0.0
C829 C 0.34346 0.72594 0.72396 0.0
C830 C 0.35945 0.74829 0.68144 0.0
H831 H 0.45344 0.72505 0.66357 0.0
H832 H 0.4241 0.7237 0.68162 0.0
H833 H 0.37331 0.74869 0.65415 0.0
H834 H 0.29974 0.75861 0.719 0.0
H835 H 0.32952 0.76828 0.70392 0.0
H836 H 0.38117 0.7444 0.72488 0.0
C837 C 0.42513 0.73335 0.66962 0.0
C838 C 0.37529 0.74823 0.66959 0.0
C839 C 0.44184 0.73392 0.65915 0.0
C840 C 0.3119 0.74948 0.72066 0.0
C841 C 0.32886 0.75501 0.71205 0.0
C842 C 0.3794 0.74567 0.70949 0.0
C843 C 0.41018 0.74555 0.66501 0.0
C844 C 0.39334 0.74662 0.67756 0.0
C845 C 0.34458 0.74297 0.71323 0.0
C846 C 0.36139 0.74653 0.7014 0.0
H847 H 0.42961 0.76738 0.62631 0.0
H848 H 0.40056 0.76681 0.64489 0.0
H849 H 0.40899 0.74522 0.70434 0.0
H850 H 0.32579 0.70658 0.73976 0.0
H851 H 0.3554 0.71639 0.72497 0.0
C852 C 0.50957 0.2021 0.91804 0.0
C853 C 0.49057 0.20598 0.91456 0.0
C854 C 0.51443 0.18893 0.93202 0.0
C855 C 0.4955 0.15481 0.96865 0.0
H856 H 0.52411 0.11691 0.93814 0.0
C857 C 0.48964 0.06996 0.97508 0.0
C858 C 0.50544 0.05889 0.96987 0.0
C859 C 0.49038 0.09055 0.97426 0.0
C860 C 0.51653 0.12737 0.94723 0.0
H861 H 0.46203 0.20144 0.92498 0.0
H862 H 0.47046 0.178 0.94878 0.0
H863 H 0.52184 0.15008 0.92768 0.0
H864 H 0.53486 0.06051 0.96179 0.0
H865 H 0.53642 0.09624 0.96116 0.0
H866 H 0.48959 0.1314 0.98779 0.0
C867 C 0.48164 0.18511 0.94083 0.0
C868 C 0.51527 0.14654 0.94122 0.0
C869 C 0.47679 0.19843 0.92699 0.0
C870 C 0.52233 0.06871 0.96535 0.0
C871 C 0.5232 0.08918 0.965 0.0
C872 C 0.49687 0.13548 0.9748 0.0
C873 C 0.50036 0.17923 0.94255 0.0
C874 C 0.50443 0.16039 0.95157 0.0
C875 C 0.50705 0.10031 0.96858 0.0
C876 C 0.50712 0.12145 0.96389 0.0
H877 H 0.52059 0.20809 0.90907 0.0
H878 H 0.52906 0.18506 0.93344 0.0
H879 H 0.48703 0.16519 0.9769 0.0
H880 H 0.4765 0.06266 0.97879 0.0
H881 H 0.47765 0.09867 0.97705 0.0
C882 C 0.05458 0.24308 0.1538 0.0
C883 C 0.04748 0.26227 0.154 0.0
C884 C 0.06972 0.23873 0.16563 0.0
C885 C 0.09557 0.25849 0.209 0.0
H886 H 0.13697 0.22793 0.18843 0.0
C887 C 0.17341 0.27181 0.22531 0.0
C888 C 0.18435 0.25575 0.22989 0.0
C889 C 0.15439 0.26897 0.22093 0.0
C890 C 0.12529 0.23607 0.19452 0.0
H891 H 0.05115 0.29207 0.16609 0.0
H892 H 0.07782 0.28467 0.1862 0.0
H893 H 0.10809 0.22996 0.1696 0.0
H894 H 0.18414 0.22427 0.23415 0.0
H895 H 0.15081 0.21919 0.22554 0.0
H896 H 0.11349 0.26587 0.23319 0.0
C897 C 0.07134 0.2728 0.17745 0.0
C898 C 0.10878 0.23727 0.18376 0.0
C899 C 0.05619 0.27712 0.16572 0.0
C900 C 0.17585 0.23691 0.23085 0.0
C901 C 0.15691 0.23397 0.2259 0.0
C902 C 0.11215 0.25751 0.21959 0.0
C903 C 0.07805 0.2535 0.17782 0.0
C904 C 0.09407 0.2492 0.19054 0.0
C905 C 0.14619 0.24996 0.22056 0.0
C906 C 0.12734 0.24688 0.21209 0.0
H907 H 0.04812 0.23128 0.14493 0.0
H908 H 0.0746 0.22372 0.16556 0.0
H909 H 0.08424 0.2673 0.21487 0.0
H910 H 0.17972 0.28642 0.22444 0.0
H911 H 0.14636 0.28145 0.21663 0.0
C912 C 0.09447 0.98203 0.18643 0.0
C913 C 0.09786 -0.00032 0.19728 0.0
C914 C 0.08249 0.98165 0.1705 0.0
C915 C 0.06041 0.01257 0.13506 0.0
H916 H 0.025 0.9683 0.12987 0.0
C917 C 0.01123 0.00328 0.06975 0.0
C918 C 0.01481 0.98545 0.05956 0.0
C919 C 0.017 0.00604 0.08896 0.0
C920 C 0.0347 0.98082 0.13126 0.0
H921 H 0.09235 0.03101 0.19922 0.0
H922 H 0.07148 0.03034 0.1713 0.0
H923 H 0.0457 0.97149 0.15797 0.0
H924 H 0.02543 0.95598 0.06165 0.0
H925 H 0.035 0.96055 0.09526 0.0
H926 H 0.04972 0.02159 0.10807 0.0
C927 C 0.07795 0.01678 0.17523 0.0
C928 C 0.04665 0.98256 0.1472 0.0
C929 C 0.08988 0.01715 0.19123 0.0
C930 C 0.02261 0.96986 0.06925 0.0
C931 C 0.02799 0.97247 0.08849 0.0
C932 C 0.04839 0.01087 0.11914 0.0
C933 C 0.07374 -0.00107 0.16504 0.0
C934 C 0.06 -0.00186 0.14898 0.0
C935 C 0.02601 0.99084 0.09824 0.0
C936 C 0.03579 -0.00531 0.11685 0.0
H937 H 0.10051 0.96834 0.19063 0.0
H938 H 0.07986 0.96776 0.1626 0.0
H939 H 0.0706 0.02468 0.13601 0.0
H940 H 0.00531 0.01555 0.0625 0.0
H941 H 0.01525 0.0203 0.09625 0.0
C942 C 0.24502 0.83487 0.4432 0.0
C943 C 0.25418 0.85268 0.44854 0.0
C944 C 0.24217 0.82963 0.42379 0.0
C945 C 0.26427 0.83538 0.37751 0.0
H946 H 0.22114 0.80321 0.36055 0.0
C947 C 0.26115 0.78447 0.30709 0.0
C948 C 0.25534 0.76504 0.31093 0.0
C949 C 0.25991 0.79959 0.32136 0.0
C950 C 0.2332 0.81232 0.365 0.0
H951 H 0.26705 0.87948 0.43832 0.0
H952 H 0.26227 0.87017 0.40397 0.0
H953 H 0.21918 0.82356 0.39025 0.0
H954 H 0.24439 0.74622 0.33305 0.0
H955 H 0.24222 0.77249 0.35773 0.0
H956 H 0.27854 0.82333 0.3526 0.0
C957 C 0.25725 0.86029 0.41479 0.0
C958 C 0.23208 0.82397 0.38195 0.0
C959 C 0.25997 0.8656 0.43433 0.0
C960 C 0.24897 0.76096 0.32953 0.0
C961 C 0.24751 0.77605 0.34363 0.0
C962 C 0.26536 0.82376 0.36043 0.0
C963 C 0.24857 0.84208 0.40935 0.0
C964 C 0.24794 0.83472 0.38895 0.0
C965 C 0.25257 0.79555 0.33957 0.0
C966 C 0.25016 0.81132 0.35466 0.0
H967 H 0.24054 0.82474 0.45404 0.0
H968 H 0.23577 0.81534 0.42009 0.0
H969 H 0.27671 0.84355 0.38253 0.0
H970 H 0.26614 0.78812 0.2929 0.0
H971 H 0.26407 0.8145 0.31798 0.0
C972 C 0.39966 0.01461 0.68201 0.0
C973 C 0.39534 -0.00251 0.69188 0.0
C974 C 0.41095 0.01366 0.66569 0.0
C975 C 0.42923 0.98118 0.62726 0.0
H976 H 0.46498 0.0249 0.62304 0.0
C977 C 0.47367 -0.00568 0.55914 0.0
C978 C 0.4675 0.01162 0.55085 0.0
C979 C 0.46921 0.99052 0.57819 0.0
C980 C 0.45527 0.01247 0.62421 0.0
H981 H 0.39836 0.96574 0.69178 0.0
H982 H 0.41829 0.96412 0.66305 0.0
H983 H 0.44759 0.02104 0.65302 0.0
H984 H 0.45286 0.03895 0.55607 0.0
H985 H 0.44561 0.03261 0.58975 0.0
H986 H 0.43674 0.97295 0.59817 0.0
C987 C 0.41298 0.97825 0.66808 0.0
C988 C 0.44522 0.01033 0.64121 0.0
C989 C 0.40153 0.97918 0.68443 0.0
C990 C 0.45773 0.02555 0.56217 0.0
C991 C 0.4537 0.02196 0.58137 0.0
C992 C 0.43951 0.98318 0.61029 0.0
C993 C 0.41827 -0.00439 0.65897 0.0
C994 C 0.43142 -0.00472 0.64251 0.0
C995 C 0.45898 0.00421 0.58931 0.0
C996 C 0.45193 -0.00064 0.60843 0.0
H997 H 0.39481 0.02887 0.68726 0.0
H998 H 0.41423 0.02718 0.65851 0.0
H999 H 0.41874 0.9694 0.62792 0.0
H1000 H 0.48107 0.98324 0.55062 0.0
H1001 H 0.47328 0.97671 0.58409 0.0
C1002 C 0.23192 0.16916 0.94011 0.0
C1003 C 0.24525 0.17554 0.95412 0.0
C1004 C 0.23165 0.17796 0.92234 0.0
C1005 C 0.24832 0.21697 0.89207 0.0
H1006 H 0.26297 0.17365 0.85733 0.0
C1007 C 0.25601 0.23107 0.81333 0.0
C1008 C 0.24349 0.21853 0.80287 0.0
C1009 C 0.26263 0.22562 0.83125 0.0
C1010 C 0.259 0.18591 0.86685 0.0
H1011 H 0.26579 0.19854 0.96218 0.0
H1012 H 0.26493 0.21416 0.93117 0.0
H1013 H 0.25603 0.16755 0.89099 0.0
H1014 H 0.22981 0.18976 0.80122 0.0
H1015 H 0.24124 0.18011 0.83226 0.0
H1016 H 0.25028 0.2352 0.8678 0.0
C1017 C 0.25525 0.202 0.93371 0.0
C1018 C 0.25485 0.18239 0.88601 0.0
C1019 C 0.25571 0.19305 0.95143 0.0
C1020 C 0.23959 0.19955 0.80913 0.0
C1021 C 0.24619 0.19407 0.82695 0.0
C1022 C 0.2522 0.22047 0.87278 0.0
C1023 C 0.24435 0.19345 0.91863 0.0
C1024 C 0.24898 0.19778 0.89859 0.0
C1025 C 0.25655 0.20767 0.83882 0.0
C1026 C 0.25707 0.20485 0.85984 0.0
H1027 H 0.22343 0.1559 0.94186 0.0
H1028 H 0.22283 0.17146 0.91091 0.0
H1029 H 0.24409 0.22906 0.90168 0.0
H1030 H 0.25884 0.24592 0.80881 0.0
H1031 H 0.27094 0.23621 0.83993 0.0
C1032 C 0.0817 0.00209 0.30485 0.0
C1033 C 0.10036 -0.00412 0.30317 0.0
C1034 C 0.07252 0.00185 0.32261 0.0
C1035 C 0.07375 0.97952 0.37001 0.0
H1036 H 0.04652 0.02598 0.38679 0.0
C1037 C 0.02122 0.99024 0.43465 0.0
C1038 C 0.02308 0.00877 0.44422 0.0
C1039 C 0.03337 0.98529 0.41943 0.0
C1040 C 0.05417 0.01294 0.38231 0.0
H1041 H 0.12411 0.98476 0.31878 0.0
H1042 H 0.10819 0.98479 0.34981 0.0
H1043 H 0.06101 0.02463 0.35506 0.0
H1044 H 0.03997 0.03559 0.44754 0.0
H1045 H 0.06147 0.02679 0.42137 0.0
H1046 H 0.06674 0.96795 0.39754 0.0
C1047 C 0.10059 0.98951 0.33734 0.0
C1048 C 0.06225 0.01209 0.36409 0.0
C1049 C 0.10978 0.98979 0.31962 0.0
C1050 C 0.03838 0.02124 0.4402 0.0
C1051 C 0.05057 0.01625 0.42524 0.0
C1052 C 0.06544 0.9803 0.38828 0.0
C1053 C 0.08185 -0.00461 0.33896 0.0
C1054 C 0.07233 -0.00449 0.35785 0.0
C1055 C 0.04735 -0.0011 0.41392 0.0
C1056 C 0.05593 -0.00278 0.39465 0.0
H1057 H 0.074 0.0066 0.29237 0.0
H1058 H 0.05801 0.00638 0.32348 0.0
H1059 H 0.08128 0.96646 0.36537 0.0
H1060 H 0.00933 0.98054 0.43759 0.0
H1061 H 0.0307 0.97181 0.41087 0.0
C1062 C 0.25397 0.80932 0.54877 0.0
C1063 C 0.24074 0.81646 0.53588 0.0
C1064 C 0.24822 0.79781 0.56384 0.0
C1065 C 0.23151 0.7671 0.59046 0.0
H1066 H 0.20909 0.80292 0.62839 0.0
C1067 C 0.23131 0.75593 0.67365 0.0
C1068 C 0.23768 0.77298 0.68403 0.0
C1069 C 0.22726 0.75669 0.65393 0.0
C1070 C 0.21504 0.79256 0.61789 0.0
H1071 H 0.21123 0.81622 0.528 0.0
H1072 H 0.20106 0.79576 0.55482 0.0
H1073 H 0.2083 0.81052 0.59434 0.0
H1074 H 0.24596 0.80371 0.68209 0.0
H1075 H 0.23953 0.80491 0.64771 0.0
H1076 H 0.23954 0.74993 0.61422 0.0
C1077 C 0.21588 0.79923 0.55298 0.0
C1078 C 0.21433 0.79677 0.59842 0.0
C1079 C 0.22167 0.81089 0.53776 0.0
C1080 C 0.24087 0.79045 0.67436 0.0
C1081 C 0.23698 0.79117 0.65478 0.0
C1082 C 0.23202 0.76275 0.60996 0.0
C1083 C 0.22914 0.79302 0.56633 0.0
C1084 C 0.22347 0.78464 0.58472 0.0
C1085 C 0.22959 0.77451 0.64449 0.0
C1086 C 0.22477 0.77608 0.6239 0.0
H1087 H 0.26869 0.81375 0.54812 0.0
H1088 H 0.25858 0.79376 0.57434 0.0
H1089 H 0.23878 0.75766 0.58007 0.0
H1090 H 0.22856 0.74236 0.68095 0.0
H1091 H 0.22172 0.74361 0.64623 0.0
C1092 C 0.42006 -0.00606 0.79933 0.0
C1093 C 0.40723 0.00937 0.8001 0.0
C1094 C 0.42427 0.98406 0.81595 0.0
C1095 C 0.40565 0.97567 0.8649 0.0
H1096 H 0.45733 0.96328 0.87609 0.0
C1097 C 0.44142 0.98112 0.9373 0.0
C1098 C 0.45809 0.97078 0.93921 0.0
C1099 C 0.42976 0.97688 0.92139 0.0
C1100 C 0.44269 0.96602 0.873 0.0
H1101 H 0.38978 0.02758 0.81886 0.0
H1102 H 0.39765 0.01084 0.84802 0.0
H1103 H 0.44961 0.97586 0.84506 0.0
H1104 H 0.47414 0.94588 0.92859 0.0
H1105 H 0.45356 0.93816 0.90108 0.0
H1106 H 0.39913 0.96719 0.89359 0.0
C1107 C 0.40381 0.00576 0.83449 0.0
C1108 C 0.43831 0.97337 0.85519 0.0
C1109 C 0.39948 0.0155 0.81786 0.0
C1110 C 0.46138 0.95415 0.92712 0.0
C1111 C 0.44964 0.94975 0.91141 0.0
C1112 C 0.41009 0.96848 0.88285 0.0
C1113 C 0.41584 0.9896 0.83361 0.0
C1114 C 0.41989 0.97899 0.85125 0.0
C1115 C 0.43482 0.96229 0.90745 0.0
C1116 C 0.42878 0.96428 0.88729 0.0
H1117 H 0.42621 0.9889 0.78577 0.0
H1118 H 0.43366 0.97172 0.81483 0.0
H1119 H 0.39121 0.97938 0.86201 0.0
H1120 H 0.43868 -0.00602 0.94658 0.0
H1121 H 0.41834 0.98672 0.91876 0.0
C1122 C 0.24722 0.13386 0.05472 0.0
C1123 C 0.25725 0.14763 0.04388 0.0
C1124 C 0.24365 0.13785 0.07426 0.0
C1125 C 0.23648 0.17629 0.11016 0.0
H1126 H 0.26318 0.14576 0.14706 0.0
C1127 C 0.23313 0.19557 0.1907 0.0
C1128 C 0.25052 0.20446 0.19584 0.0
C1129 C 0.23166 0.18307 0.17425 0.0
C1130 C 0.25537 0.15409 0.1369 0.0
H1131 H 0.2708 0.17657 0.04464 0.0
H1132 H 0.26395 0.18382 0.07874 0.0
H1133 H 0.26383 0.13582 0.11258 0.0
H1134 H 0.28018 0.20636 0.1891 0.0
H1135 H 0.27781 0.18367 0.16073 0.0
H1136 H 0.22833 0.19481 0.1343 0.0
C1137 C 0.25916 0.16986 0.07212 0.0
C1138 C 0.25574 0.14846 0.11731 0.0
C1139 C 0.26314 0.16569 0.05272 0.0
C1140 C 0.26674 0.1993 0.18553 0.0
C1141 C 0.26535 0.18641 0.16934 0.0
C1142 C 0.23573 0.18163 0.12975 0.0
C1143 C 0.24964 0.15586 0.08305 0.0
C1144 C 0.24676 0.1599 0.1038 0.0
C1145 C 0.24766 0.17907 0.16306 0.0
C1146 C 0.24559 0.17089 0.14318 0.0
H1147 H 0.24259 0.11978 0.04824 0.0
H1148 H 0.23629 0.1269 0.08252 0.0
H1149 H 0.22952 0.18529 0.0999 0.0
H1150 H 0.22041 0.19973 0.19832 0.0
H1151 H 0.21789 0.17767 0.16952 0.0
C1152 C 0.18437 0.09433 0.00334 0.0
C1153 C 0.19494 0.08454 0.98896 0.0
C1154 C 0.16548 0.08918 0.00606 0.0
C1155 C 0.12885 0.05134 -0.00782 0.0
H1156 H 0.09482 0.09522 -0.00224 0.0
C1157 C 0.0544 0.03923 0.97106 0.0
C1158 C 0.04351 0.03745 0.98774 0.0
C1159 C 0.07105 0.0504 0.97178 0.0
C1160 C 0.10424 0.08293 -0.00373 0.0
H1161 H 0.19451 0.06112 0.96678 0.0
H1162 H 0.1614 0.05261 0.97091 0.0
H1163 H 0.12891 0.10134 -5e-05 0.0
H1164 H 0.0399 0.04762 0.01744 0.0
H1165 H 0.06922 0.06731 0.01868 0.0
H1166 H 0.10422 0.0331 0.98771 0.0
C1167 C 0.16767 0.06399 0.98042 0.0
C1168 C 0.12369 0.08632 -0.00229 0.0
C1169 C 0.18662 0.06893 0.97792 0.0
C1170 C 0.04799 0.04913 0.00434 0.0
C1171 C 0.06478 0.06027 0.00509 0.0
C1172 C 0.10954 0.04804 0.99049 0.0
C1173 C 0.15678 0.07435 -0.00576 0.0
C1174 C 0.1362 0.07058 -0.00476 0.0
C1175 C 0.07698 0.05971 0.98922 0.0
C1176 C 0.09717 0.06384 -0.00792 0.0
H1177 H 0.19063 0.10615 0.01234 0.0
H1178 H 0.1576 0.09708 0.01716 0.0
H1179 H 0.13803 0.03884 0.99073 0.0
H1180 H 0.05118 0.0302 0.95819 0.0
H1181 H 0.08032 0.04992 0.95938 0.0
C1182 C 0.68031 0.4134 0.02494 0.0
C1183 C 0.68947 0.40227 0.0104 0.0
C1184 C 0.66657 0.42671 0.02022 0.0
C1185 C 0.63256 0.43937 0.98386 0.0
H1186 H 0.63502 0.49015 0.01172 0.0
C1187 C 0.56867 0.48717 0.98485 0.0
C1188 C 0.56242 0.48857 0.00404 0.0
C1189 C 0.58757 0.48332 0.98087 0.0
C1190 C 0.63431 0.47618 0.00358 0.0
H1191 H 0.69039 0.39528 0.97961 0.0
H1192 H 0.66601 0.41842 0.97143 0.0
H1193 H 0.66088 0.46732 0.01438 0.0
H1194 H 0.57112 0.49007 0.03396 0.0
H1195 H 0.60399 0.48381 0.0271 0.0
H1196 H 0.6055 0.44769 0.97399 0.0
C1197 C 0.66979 0.41704 0.98642 0.0
C1198 C 0.64899 0.46306 0.00523 0.0
C1199 C 0.68369 0.40378 0.99113 0.0
C1200 C 0.57563 0.48885 0.01905 0.0
C1201 C 0.5945 0.48536 0.01508 0.0
C1202 C 0.61784 0.4525 0.98222 0.0
C1203 C 0.66158 0.42909 0.00089 0.0
C1204 C 0.64781 0.44418 -0.00387 0.0
C1205 C 0.60038 0.48121 -0.00396 0.0
C1206 C 0.61817 0.47062 -0.00716 0.0
H1207 H 0.68427 0.41246 0.03993 0.0
H1208 H 0.66002 0.43539 0.03172 0.0
H1209 H 0.63134 0.42494 0.97664 0.0
H1210 H 0.55871 0.48696 0.97303 0.0
H1211 H 0.59181 0.48041 0.96605 0.0
C1212 C 0.83831 0.45284 0.25621 0.0
C1213 C 0.85755 0.45655 0.25919 0.0
C1214 C 0.83159 0.43371 0.25208 0.0
C1215 C 0.84533 0.38131 0.24207 0.0
H1216 H 0.79981 0.37191 0.27133 0.0
C1217 C 0.79893 0.30904 0.24063 0.0
C1218 C 0.78861 0.30575 0.25749 0.0
C1219 C 0.81148 0.3252 0.23998 0.0
C1220 C 0.81271 0.37414 0.26331 0.0
H1221 H 0.88515 0.44373 0.25906 0.0
H1222 H 0.87329 0.40978 0.25321 0.0
H1223 H 0.81238 0.40496 0.26973 0.0
H1224 H 0.78481 0.31476 0.28742 0.0
H1225 H 0.8076 0.34211 0.28676 0.0
H1226 H 0.84562 0.34994 0.23625 0.0
C1227 C 0.86339 0.42168 0.25349 0.0
C1228 C 0.81972 0.39328 0.262 0.0
C1229 C 0.87018 0.44102 0.25707 0.0
C1230 C 0.79269 0.31708 0.27431 0.0
C1231 C 0.80553 0.33286 0.27381 0.0
C1232 C 0.83827 0.36194 0.24348 0.0
C1233 C 0.84392 0.41774 0.25159 0.0
C1234 C 0.83617 0.39719 0.25148 0.0
C1235 C 0.8139 0.33801 0.25628 0.0
C1236 C 0.82204 0.35817 0.25446 0.0
H1237 H 0.82842 0.46477 0.25723 0.0
H1238 H 0.8166 0.43136 0.24994 0.0
H1239 H 0.85792 0.38384 0.23366 0.0
H1240 H 0.79578 0.3005 0.22744 0.0
H1241 H 0.81779 0.32869 0.22631 0.0
C1242 C 0.79773 0.57561 0.5038 0.0
C1243 C 0.79569 0.58896 0.48913 0.0
C1244 C 0.81496 0.56677 0.50662 0.0
C1245 C 0.86566 0.57042 0.49419 0.0
H1246 H 0.86475 0.51586 0.50878 0.0
C1247 C 0.93249 0.52394 0.49882 0.0
C1248 C 0.93506 0.51693 0.51737 0.0
C1249 C 0.91516 0.53144 0.4936 0.0
C1250 C 0.86514 0.53107 0.50461 0.0
H1251 H 0.80989 0.60385 0.46605 0.0
H1252 H 0.8398 0.58777 0.47039 0.0
H1253 H 0.83519 0.53242 0.50361 0.0
H1254 H 0.92135 0.51114 0.54457 0.0
H1255 H 0.89105 0.52389 0.53525 0.0
H1256 H 0.89572 0.5688 0.49496 0.0
C1257 C 0.82832 0.58448 0.48008 0.0
C1258 C 0.84827 0.54064 0.50185 0.0
C1259 C 0.81117 0.59361 0.47751 0.0
C1260 C 0.91981 0.51664 0.53024 0.0
C1261 C 0.90246 0.52379 0.5249 0.0
C1262 C 0.88254 0.56073 0.49665 0.0
C1263 C 0.83035 0.57081 0.49456 0.0
C1264 C 0.84833 0.56051 0.49688 0.0
C1265 C 0.90013 0.53161 0.50671 0.0
C1266 C 0.88237 0.54108 0.50212 0.0
H1267 H 0.78603 0.57205 0.51313 0.0
H1268 H 0.81618 0.55674 0.51827 0.0
H1269 H 0.86624 0.58581 0.49064 0.0
H1270 H 0.94402 0.52425 0.48862 0.0
H1271 H 0.91355 0.53734 0.47945 0.0
C1272 C 0.15005 0.05358 0.24515 0.0
C1273 C 0.16184 0.03883 0.25134 0.0
C1274 C 0.15772 0.07131 0.23884 0.0
C1275 C 0.20265 0.1008 0.24239 0.0
H1276 H 0.17302 0.1378 0.21482 0.0
C1277 C 0.19741 0.18197 0.25924 0.0
C1278 C 0.21593 0.18874 0.25639 0.0
C1279 C 0.19047 0.16537 0.24878 0.0
C1280 C 0.18161 0.12744 0.22211 0.0
H1281 H 0.19071 0.03008 0.25438 0.0
H1282 H 0.20423 0.06022 0.24193 0.0
H1283 H 0.16277 0.1032 0.21524 0.0
H1284 H 0.24125 0.18482 0.2395 0.0
H1285 H 0.22935 0.15519 0.2217 0.0
H1286 H 0.22145 0.1251 0.24911 0.0
C1287 C 0.18907 0.0589 0.24302 0.0
C1288 C 0.17563 0.10767 0.22271 0.0
C1289 C 0.18138 0.0415 0.25004 0.0
C1290 C 0.2268 0.17998 0.24166 0.0
C1291 C 0.22003 0.16306 0.23151 0.0
C1292 C 0.2089 0.1203 0.24121 0.0
C1293 C 0.17739 0.07441 0.23794 0.0
C1294 C 0.18558 0.09427 0.2337 0.0
C1295 C 0.2022 0.15506 0.23581 0.0
C1296 C 0.19806 0.13393 0.23178 0.0
H1297 H 0.13489 0.05175 0.24601 0.0
H1298 H 0.14809 0.08279 0.23547 0.0
H1299 H 0.21069 0.09138 0.25131 0.0
H1300 H 0.1889 0.18849 0.27068 0.0
H1301 H 0.17677 0.1593 0.25249 0.0
C1302 C 0.29868 0.92126 0.50071 0.0
C1303 C 0.29474 0.90259 0.50782 0.0
C1304 C 0.31736 0.92742 0.49776 0.0
C1305 C 0.36737 0.91252 0.50656 0.0
H1306 H 0.37686 0.94706 0.46458 0.0
C1307 C 0.43896 0.94987 0.49538 0.0
C1308 C 0.44223 0.95958 0.47828 0.0
C1309 C 0.42261 0.93845 0.49745 0.0
C1310 C 0.37465 0.93687 0.47597 0.0
H1311 H 0.30731 0.87657 0.51911 0.0
H1312 H 0.33908 0.88613 0.5122 0.0
H1313 H 0.34495 0.93802 0.47237 0.0
H1314 H 0.4329 0.96286 0.44898 0.0
H1315 H 0.40534 0.94116 0.45176 0.0
H1316 H 0.39705 0.90997 0.50909 0.0
C1317 C 0.32821 0.89649 0.50929 0.0
C1318 C 0.35612 0.93217 0.48089 0.0
C1319 C 0.30974 0.8907 0.51282 0.0
C1320 C 0.4305 0.9555 0.46234 0.0
C1321 C 0.4145 0.94343 0.46415 0.0
C1322 C 0.38589 0.91655 0.50113 0.0
C1323 C 0.33237 0.91481 0.50144 0.0
C1324 C 0.35217 0.92015 0.49643 0.0
C1325 C 0.40951 0.93616 0.48222 0.0
C1326 C 0.38987 0.92916 0.48603 0.0
H1327 H 0.2874 0.93095 0.49718 0.0
H1328 H 0.31993 0.94197 0.49238 0.0
H1329 H 0.36513 0.90354 0.51889 0.0
H1330 H 0.44775 0.95307 0.50793 0.0
H1331 H 0.41955 0.93322 0.51163 0.0
C1332 C 0.81143 0.54501 0.25224 0.0
C1333 C 0.82879 0.54235 0.24296 0.0
C1334 C 0.79985 0.56025 0.2471 0.0
C1335 C 0.79685 0.60458 0.24873 0.0
H1336 H 0.78457 0.62628 0.19957 0.0
C1337 C 0.77009 0.68257 0.24432 0.0
C1338 C 0.78039 0.69467 0.23199 0.0
C1339 C 0.77211 0.66227 0.24323 0.0
C1340 C 0.78795 0.62031 0.21334 0.0
H1341 H 0.84664 0.55191 0.21956 0.0
H1342 H 0.82658 0.57863 0.21089 0.0
H1343 H 0.79312 0.59145 0.20087 0.0
H1344 H 0.80037 0.69499 0.20839 0.0
H1345 H 0.804 0.65912 0.20655 0.0
H1346 H 0.79275 0.63343 0.26114 0.0
C1347 C 0.8218 0.56887 0.22192 0.0
C1348 C 0.79265 0.60048 0.2141 0.0
C1349 C 0.83332 0.55359 0.22698 0.0
C1350 C 0.79242 0.686 0.21818 0.0
C1351 C 0.79432 0.66554 0.21698 0.0
C1352 C 0.79225 0.6243 0.24796 0.0
C1353 C 0.80556 0.57297 0.23267 0.0
C1354 C 0.79733 0.59258 0.2318 0.0
C1355 C 0.78439 0.6536 0.22973 0.0
C1356 C 0.78799 0.63238 0.23026 0.0
H1357 H 0.80747 0.53632 0.2644 0.0
H1358 H 0.78724 0.56312 0.25543 0.0
H1359 H 0.801 0.59899 0.26245 0.0
H1360 H 0.76069 0.6888 0.25512 0.0
H1361 H 0.76427 0.65332 0.25316 0.0
C1362 C 0.67843 0.44349 0.73981 0.0
C1363 C 0.67608 0.45051 0.75895 0.0
C1364 C 0.68616 0.42506 0.73593 0.0
C1365 C 0.68725 0.37782 0.75817 0.0
H1366 H 0.72123 0.3635 0.71653 0.0
C1367 C 0.72291 0.30256 0.74548 0.0
C1368 C 0.72667 0.29697 0.72622 0.0
C1369 C 0.71342 0.32001 0.74976 0.0
C1370 C 0.71145 0.36727 0.72801 0.0
H1371 H 0.68189 0.44479 0.78893 0.0
H1372 H 0.69531 0.41261 0.78205 0.0
H1373 H 0.71498 0.39814 0.72374 0.0
H1374 H 0.72117 0.30309 0.69636 0.0
H1375 H 0.70427 0.33323 0.70384 0.0
H1376 H 0.6838 0.34685 0.76244 0.0
C1377 C 0.69086 0.42121 0.77014 0.0
C1378 C 0.70804 0.38707 0.7322 0.0
C1379 C 0.68335 0.43972 0.77401 0.0
C1380 C 0.7188 0.30747 0.71135 0.0
C1381 C 0.70918 0.32468 0.7156 0.0
C1382 C 0.69067 0.35795 0.75396 0.0
C1383 C 0.6915 0.41339 0.75115 0.0
C1384 C 0.69594 0.39252 0.74732 0.0
C1385 C 0.70755 0.33177 0.73478 0.0
C1386 C 0.70276 0.35253 0.7388 0.0
H1387 H 0.67318 0.45162 0.72792 0.0
H1388 H 0.68667 0.41938 0.72113 0.0
H1389 H 0.67756 0.38169 0.76969 0.0
H1390 H 0.72876 0.29451 0.75715 0.0
H1391 H 0.71219 0.32512 0.76469 0.0
C1392 C -0.00962 0.80651 0.88617 0.0
C1393 C 0.98677 0.79012 0.89739 0.0
C1394 C -0.01003 0.8256 0.89456 0.0
C1395 C -0.00475 0.8529 0.94088 0.0
H1396 H 0.96728 0.89386 0.91696 0.0
C1397 C -0.01035 0.9272 0.97958 0.0
C1398 C -0.00205 0.94213 0.9689 0.0
C1399 C 0.98343 0.90962 0.97031 0.0
C1400 C 0.97508 0.88251 0.92377 0.0
H1401 H 0.98033 0.78056 0.92605 0.0
H1402 H 0.98033 0.81385 0.9409 0.0
H1403 H 0.96809 0.86065 0.90153 0.0
H1404 H 0.00464 0.95161 0.94032 0.0
H1405 H -0.00676 0.92099 0.92391 0.0
H1406 H 0.0025 0.87463 0.96292 0.0
C1407 C 0.98324 0.81203 0.92562 0.0
C1408 C 0.97567 0.86361 0.91491 0.0
C1409 C 0.98324 0.79302 0.91717 0.0
C1410 C -0.00198 0.94029 0.94873 0.0
C1411 C -0.00842 0.92276 0.93939 0.0
C1412 C -0.00538 0.87168 0.94971 0.0
C1413 C 0.98633 0.82852 0.91437 0.0
C1414 C 0.98578 0.84865 0.92342 0.0
C1415 C 0.98541 0.90684 0.95024 0.0
C1416 C 0.98451 0.88666 0.94129 0.0
H1417 H -0.00715 0.80458 0.87081 0.0
H1418 H -0.00748 0.83806 0.88559 0.0
H1419 H 0.00342 0.84176 0.94757 0.0
H1420 H -0.01025 0.9283 -0.0048 0.0
H1421 H 0.97852 0.89763 0.97896 0.0
C1422 C 0.95043 0.22997 0.67524 0.0
C1423 C 0.94909 0.2446 0.66163 0.0
C1424 C 0.93433 0.22279 0.68428 0.0
C1425 C 0.88215 0.22377 0.68455 0.0
H1426 H 0.88846 0.23228 0.73988 0.0
C1427 C 0.8305 0.26159 0.73336 0.0
C1428 C 0.81653 0.24781 0.73842 0.0
C1429 C 0.84834 0.25529 0.72804 0.0
C1430 C 0.8866 0.2293 0.72454 0.0
H1431 H 0.92987 0.26218 0.64569 0.0
H1432 H 0.90173 0.25007 0.66187 0.0
H1433 H 0.91618 0.23013 0.71913 0.0
H1434 H 0.81083 0.2171 0.74412 0.0
H1435 H 0.84208 0.20602 0.73429 0.0
H1436 H 0.8525 0.22434 0.69002 0.0
C1437 C 0.91517 0.2439 0.66538 0.0
C1438 C 0.90239 0.22803 0.71264 0.0
C1439 C 0.93129 0.25099 0.65624 0.0
C1440 C 0.82134 0.22799 0.74025 0.0
C1441 C 0.83914 0.22162 0.73459 0.0
C1442 C 0.8664 0.22485 0.69648 0.0
C1443 C 0.91663 0.23023 0.67996 0.0
C1444 C 0.90028 0.22623 0.69247 0.0
C1445 C 0.85235 0.23516 0.72763 0.0
C1446 C 0.8686 0.22843 0.71641 0.0
H1447 H 0.96398 0.22444 0.67931 0.0
H1448 H 0.93579 0.21202 0.69523 0.0
H1449 H 0.88014 0.22221 0.66909 0.0
H1450 H 0.8272 0.27697 0.73195 0.0
H1451 H 0.85845 0.26588 0.72261 0.0
C1452 C 0.50212 0.1965 0.42443 0.0
C1453 C 0.50784 0.19822 0.40524 0.0
C1454 C 0.50703 0.1801 0.43463 0.0
C1455 C 0.53275 0.13215 0.43126 0.0
H1456 H 0.48746 0.11364 0.45658 0.0
C1457 C 0.4896 0.05748 0.44386 0.0
C1458 C 0.49186 0.05185 0.46288 0.0
C1459 C 0.49957 0.0738 0.4373 0.0
C1460 C 0.50032 0.11876 0.44981 0.0
H1461 H 0.52445 0.18508 0.38213 0.0
H1462 H 0.53213 0.15585 0.39949 0.0
H1463 H 0.48935 0.14718 0.44621 0.0
H1464 H 0.50721 0.05752 0.48953 0.0
H1465 H 0.52428 0.08661 0.47819 0.0
H1466 H 0.54286 0.10265 0.43391 0.0
C1467 C 0.52431 0.16733 0.40696 0.0
C1468 C 0.50154 0.13807 0.444 0.0
C1469 C 0.51982 0.18406 0.39693 0.0
C1470 C 0.50557 0.06144 0.47467 0.0
C1471 C 0.51533 0.07803 0.46821 0.0
C1472 C 0.53142 0.11258 0.43701 0.0
C1473 C 0.51719 0.16471 0.42562 0.0
C1474 C 0.5176 0.14501 0.4343 0.0
C1475 C 0.5116 0.08487 0.44983 0.0
C1476 C 0.51499 0.10577 0.44597 0.0
H1477 H 0.49316 0.20744 0.43128 0.0
H1478 H 0.50188 0.17896 0.44923 0.0
H1479 H 0.54539 0.13702 0.42398 0.0
H1480 H 0.47897 0.05032 0.43463 0.0
H1481 H 0.49633 0.07904 0.42317 0.0
C1482 C 0.56288 0.76517 0.17483 0.0
C1483 C 0.55343 0.75654 0.15873 0.0
C1484 C 0.58115 0.75961 0.17917 0.0
C1485 C 0.6232 0.73819 0.15702 0.0
H1486 H 0.63745 0.72977 0.20989 0.0
C1487 C 0.6877 0.7131 0.20791 0.0
C1488 C 0.6987 0.7305 0.20944 0.0
C1489 C 0.67182 0.71211 0.19613 0.0
C1490 C 0.63355 0.73184 0.19503 0.0
H1491 H 0.55537 0.7349 0.13493 0.0
H1492 H 0.58719 0.72513 0.14263 0.0
H1493 H 0.60487 0.73723 0.20246 0.0
H1494 H 0.70318 0.75961 0.19855 0.0
H1495 H 0.67564 0.75767 0.1774 0.0
H1496 H 0.65225 0.7335 0.14987 0.0
C1497 C 0.58065 0.73647 0.15161 0.0
C1498 C 0.61501 0.73631 0.19083 0.0
C1499 C 0.56245 0.74207 0.14724 0.0
C1500 C 0.69521 0.74584 0.19711 0.0
C1501 C 0.67936 0.74479 0.18517 0.0
C1502 C 0.64188 0.73401 0.1613 0.0
C1503 C 0.59021 0.74528 0.16752 0.0
C1504 C 0.6097 0.73969 0.17182 0.0
C1505 C 0.66689 0.7285 0.18576 0.0
C1506 C 0.64712 0.73085 0.18034 0.0
H1507 H 0.55626 0.77634 0.18395 0.0
H1508 H 0.5883 0.76675 0.19145 0.0
H1509 H 0.61945 0.74087 0.14226 0.0
H1510 H 0.69013 0.70119 0.21747 0.0
H1511 H 0.66232 0.69944 0.19674 0.0
C1512 C 0.00407 0.20086 0.5935 0.0
C1513 C 0.98879 0.2022 0.60617 0.0
C1514 C 0.00982 0.1825 0.58638 0.0
C1515 C 0.0075 0.12925 0.59348 0.0
H1516 H 0.0077 0.1253 0.53762 0.0
C1517 C -0.00423 0.0575 0.54683 0.0
C1518 C 0.004 0.05676 0.52849 0.0
C1519 C -0.00098 0.07399 0.55926 0.0
C1520 C 0.00822 0.12617 0.55323 0.0
H1521 H 0.96802 0.18595 0.62229 0.0
H1522 H 0.97832 0.15347 0.61002 0.0
H1523 H 0.0035 0.1571 0.55395 0.0
H1524 H 0.02354 0.07106 0.50936 0.0
H1525 H 0.02978 0.09944 0.53123 0.0
H1526 H 0.01173 0.09802 0.59261 0.0
C1527 C 0.98574 0.1666 0.6055 0.0
C1528 C 0.00572 0.14441 0.56257 0.0
C1529 C 0.97973 0.18505 0.61232 0.0
C1530 C 0.01686 0.07158 0.5234 0.0
C1531 C 0.02037 0.08779 0.53588 0.0
C1532 C 0.01012 0.11088 0.58409 0.0
C1533 C 0.00057 0.16523 0.59216 0.0
C1534 C 0.00507 0.14608 0.58273 0.0
C1535 C 0.01065 0.08971 0.55344 0.0
C1536 C 0.01024 0.10916 0.56385 0.0
H1537 H 0.01118 0.21406 0.58867 0.0
H1538 H 0.02127 0.18178 0.5761 0.0
H1539 H 0.00713 0.13028 0.60909 0.0
H1540 H 0.98578 0.04617 0.55095 0.0
H1541 H -0.0087 0.07509 0.5727 0.0
C1542 C 0.56931 0.2463 0.33424 0.0
C1543 C 0.55854 0.22878 0.33485 0.0
C1544 C 0.58832 0.24578 0.32926 0.0
C1545 C 0.62379 0.21487 0.30463 0.0
H1546 H 0.65721 0.25479 0.32828 0.0
C1547 C 0.68455 0.24999 0.26521 0.0
C1548 C 0.69893 0.26008 0.27552 0.0
C1549 C 0.67097 0.23909 0.27489 0.0
C1550 C 0.64835 0.24314 0.32181 0.0
H1551 H 0.55915 0.19695 0.33052 0.0
H1552 H 0.59247 0.19602 0.32223 0.0
H1553 H 0.62574 0.25033 0.34089 0.0
H1554 H 0.71188 0.26542 0.30348 0.0
H1555 H 0.68831 0.2459 0.32061 0.0
H1556 H 0.6465 0.20774 0.28549 0.0
C1557 C 0.5862 0.21018 0.32538 0.0
C1558 C 0.6301 0.24086 0.32884 0.0
C1559 C 0.56711 0.21072 0.3302 0.0
C1560 C 0.7007 0.25778 0.29538 0.0
C1561 C 0.68718 0.2467 0.30511 0.0
C1562 C 0.64218 0.21699 0.29772 0.0
C1563 C 0.59706 0.2277 0.32501 0.0
C1564 C 0.61732 0.22742 0.31972 0.0
C1565 C 0.67156 0.23817 0.2951 0.0
C1566 C 0.65436 0.23186 0.3056 0.0
H1567 H 0.56304 0.26045 0.33747 0.0
H1568 H 0.59611 0.25962 0.32853 0.0
H1569 H 0.61437 0.20422 0.29737 0.0
H1570 H 0.68311 0.2516 0.24981 0.0
H1571 H 0.65919 0.23285 0.26663 0.0
C1572 C 0.48549 0.79175 0.0579 0.0
C1573 C 0.49788 0.78631 0.07246 0.0
C1574 C 0.49026 0.80732 0.04621 0.0
C1575 C 0.5144 0.85308 0.056 0.0
H1576 H 0.49904 0.86599 0.00457 0.0
C1577 C 0.51298 0.93352 0.03461 0.0
C1578 C 0.49783 0.93876 0.02316 0.0
C1579 C 0.51653 0.91369 0.03719 0.0
C1580 C 0.50329 0.86262 0.01902 0.0
H1581 H 0.52623 0.79051 0.08384 0.0
H1582 H 0.53445 0.8177 0.06346 0.0
H1583 H 0.50028 0.83142 0.01305 0.0
H1584 H 0.47448 0.92797 0.00541 0.0
H1585 H 0.4798 0.89328 0.01094 0.0
H1586 H 0.51608 0.88394 0.06264 0.0
C1587 C 0.5209 0.81026 0.06145 0.0
C1588 C 0.50419 0.84284 0.02376 0.0
C1589 C 0.51614 0.79471 0.07315 0.0
C1590 C 0.48627 0.92408 0.01428 0.0
C1591 C 0.48948 0.90426 0.01728 0.0
C1592 C 0.51324 0.87274 0.05138 0.0
C1593 C 0.50748 0.81759 0.04892 0.0
C1594 C 0.50954 0.83794 0.04239 0.0
C1595 C 0.50465 0.89881 0.02879 0.0
C1596 C 0.50742 0.8778 0.03294 0.0
H1597 H 0.47146 0.78523 0.05666 0.0
H1598 H 0.4797 0.81257 0.03653 0.0
H1599 H 0.51805 0.84978 0.07065 0.0
H1600 H 0.52224 0.94475 0.04125 0.0
H1601 H 0.52857 0.91005 0.04579 0.0
C1602 C 0.93399 0.73877 0.84035 0.0
C1603 C 0.94994 0.74921 0.83407 0.0
C1604 C 0.91637 0.74194 0.83236 0.0
C1605 C 0.89493 0.75816 0.78781 0.0
H1606 H 0.84913 0.75098 0.81727 0.0
C1607 C 0.81407 0.75513 0.76367 0.0
C1608 C 0.80613 0.7367 0.76816 0.0
C1609 C 0.83262 0.76013 0.76915 0.0
C1610 C 0.86183 0.75324 0.80892 0.0
H1611 H 0.95981 0.77197 0.81525 0.0
H1612 H 0.92888 0.7777 0.80143 0.0
H1613 H 0.87917 0.75528 0.83409 0.0
H1614 H 0.81186 0.70838 0.77996 0.0
H1615 H 0.84414 0.7171 0.78937 0.0
H1616 H 0.87728 0.75566 0.7626 0.0
C1617 C 0.93009 0.76679 0.81227 0.0
C1618 C 0.87901 0.75558 0.8185 0.0
C1619 C 0.94778 0.76354 0.82023 0.0
C1620 C 0.81754 0.72275 0.77651 0.0
C1621 C 0.83597 0.72772 0.78192 0.0
C1622 C 0.87762 0.75599 0.77821 0.0
C1623 C 0.91425 0.75573 0.81797 0.0
C1624 C 0.89585 0.75724 0.80804 0.0
C1625 C 0.84333 0.74669 0.77905 0.0
C1626 C 0.86109 0.75279 0.78873 0.0
H1627 H 0.93521 0.72757 0.85092 0.0
H1628 H 0.90454 0.73292 0.83688 0.0
H1629 H 0.90765 0.75935 0.77931 0.0
H1630 H 0.80553 0.76621 0.75737 0.0
H1631 H 0.83811 0.77486 0.76685 0.0
C1632 C 0.8981 0.98863 0.81174 0.0
C1633 C 0.90599 0.98219 0.79415 0.0
C1634 C 0.90677 0.9846 0.82904 0.0
C1635 C 0.95339 0.98069 0.84754 0.0
H1636 H 0.92579 0.97524 0.89526 0.0
C1637 C 0.97875 -0.00508 0.92838 0.0
C1638 C 0.96687 0.00844 0.93804 0.0
C1639 C 0.97469 0.9882 0.90951 0.0
C1640 C 0.93372 0.97652 0.88202 0.0
H1641 H 0.92844 0.96522 0.78085 0.0
H1642 H 0.94389 0.95851 0.81133 0.0
H1643 H 0.91074 0.96529 0.86468 0.0
H1644 H 0.94292 0.02731 0.93473 0.0
H1645 H 0.9359 0.01551 0.90186 0.0
H1646 H 0.97607 -0.00714 0.86508 0.0
C1647 C 0.93097 0.96668 0.8116 0.0
C1648 C 0.92517 0.97079 0.8646 0.0
C1649 C 0.92212 0.97055 0.79423 0.0
C1650 C 0.95212 0.01664 0.92784 0.0
C1651 C 0.94806 0.00987 0.90908 0.0
C1652 C 0.96203 0.98631 0.86507 0.0
C1653 C 0.92362 0.97416 0.82911 0.0
C1654 C 0.93453 0.9739 0.84717 0.0
C1655 C 0.95876 -0.00505 0.9002 0.0
C1656 C 0.9518 0.98521 0.88225 0.0
H1657 H 0.88571 -0.00241 0.81222 0.0
H1658 H 0.90092 0.99082 0.84229 0.0
H1659 H 0.9609 0.98329 0.83428 0.0
H1660 H -0.00963 0.98847 0.93578 0.0
H1661 H 0.98317 0.9768 0.90274 0.0
C1662 C 0.76531 0.16048 0.55021 0.0
C1663 C 0.75915 0.14291 0.54063 0.0
C1664 C 0.75874 0.16541 0.56864 0.0
C1665 C 0.74444 0.14506 0.61265 0.0
H1666 H 0.72619 0.19759 0.62463 0.0
C1667 C 0.76127 0.19237 0.68035 0.0
C1668 C 0.7474 0.20463 0.68816 0.0
C1669 C 0.75711 0.1798 0.66445 0.0
C1670 C 0.73082 0.18269 0.62151 0.0
H1671 H 0.74149 0.11658 0.54278 0.0
H1672 H 0.7305 0.12501 0.57551 0.0
H1673 H 0.72949 0.18614 0.59103 0.0
H1674 H 0.71831 0.2131 0.68653 0.0
H1675 H 0.7111 0.19149 0.65814 0.0
H1676 H 0.7472 0.14225 0.64317 0.0
C1677 C 0.74011 0.13503 0.56849 0.0
C1678 C 0.73283 0.17624 0.60234 0.0
C1679 C 0.74639 0.13027 0.54986 0.0
C1680 C 0.72908 0.20351 0.68069 0.0
C1681 C 0.72499 0.19123 0.66454 0.0
C1682 C 0.74273 0.15165 0.63188 0.0
C1683 C 0.74617 0.15269 0.57792 0.0
C1684 C 0.7403 0.15769 0.5978 0.0
C1685 C 0.73915 0.17977 0.65594 0.0
C1686 C 0.73653 0.17078 0.63641 0.0
H1687 H 0.77506 0.17051 0.54339 0.0
H1688 H 0.76376 0.179 0.57582 0.0
H1689 H 0.75028 0.13069 0.60939 0.0
H1690 H 0.77552 0.19326 0.68592 0.0
H1691 H 0.76833 0.17131 0.6579 0.0
C1692 C 0.60103 0.01326 0.31442 0.0
C1693 C 0.59155 0.01688 0.29725 0.0
C1694 C 0.59181 0.01571 0.33199 0.0
C1695 C 0.55163 0.02739 0.36057 0.0
H1696 H 0.54583 0.9706 0.36422 0.0
C1697 C 0.50967 -0.00501 0.42202 0.0
C1698 C 0.52046 0.98178 0.43224 0.0
C1699 C 0.51472 -0.00037 0.40334 0.0
C1700 C 0.54728 0.98646 0.36341 0.0
H1701 H 0.56653 0.02939 0.2851 0.0
H1702 H 0.55022 0.03298 0.3159 0.0
H1703 H 0.56505 0.984 0.33871 0.0
H1704 H 0.54329 0.96109 0.43008 0.0
H1705 H 0.55226 0.96937 0.39779 0.0
H1706 H 0.53455 0.02986 0.38589 0.0
C1707 C 0.56471 0.02834 0.31573 0.0
C1708 C 0.55831 -0.00591 0.34892 0.0
C1709 C 0.57399 0.02603 0.29813 0.0
C1710 C 0.53491 0.97159 0.4227 0.0
C1711 C 0.53997 0.97625 0.40409 0.0
C1712 C 0.54073 0.01972 0.37535 0.0
C1713 C 0.57305 0.02165 0.33242 0.0
C1714 C 0.56091 0.01453 0.34772 0.0
C1715 C 0.53054 0.99106 0.39464 0.0
C1716 C 0.53887 -0.00085 0.37714 0.0
H1717 H 0.61476 0.0067 0.31425 0.0
H1718 H 0.59845 0.01063 0.34488 0.0
H1719 H 0.55332 0.04321 0.35956 0.0
H1720 H 0.49818 0.00282 0.42889 0.0
H1721 H 0.50694 0.01073 0.39613 0.0
C1722 C 0.71538 0.83707 0.06877 0.0
C1723 C 0.72568 0.82821 0.05363 0.0
C1724 C 0.71138 0.82675 0.08534 0.0
C1725 C 0.73292 0.78599 0.11067 0.0
H1726 H 0.69876 0.80312 0.15128 0.0
C1727 C 0.74293 0.76142 0.18684 0.0
C1728 C 0.75053 0.7776 0.19763 0.0
C1729 C 0.73255 0.76437 0.17019 0.0
C1730 C 0.70817 0.79802 0.13995 0.0
H1731 H 0.73752 0.80088 0.04265 0.0
H1732 H 0.72928 0.78235 0.07082 0.0
H1733 H 0.69303 0.81234 0.11807 0.0
H1734 H 0.75229 0.8094 0.20069 0.0
H1735 H 0.73336 0.81466 0.17183 0.0
H1736 H 0.748 0.77176 0.13259 0.0
C1737 C 0.7253 0.79763 0.07059 0.0
C1738 C 0.70505 0.80341 0.12095 0.0
C1739 C 0.72983 0.80815 0.05429 0.0
C1740 C 0.74625 0.79677 0.19266 0.0
C1741 C 0.73543 0.79974 0.17624 0.0
C1742 C 0.7357 0.78023 0.12945 0.0
C1743 C 0.71724 0.80719 0.08691 0.0
C1744 C 0.71783 0.7981 0.10616 0.0
C1745 C 0.72933 0.78355 0.16439 0.0
C1746 C 0.72374 0.78671 0.14432 0.0
H1747 H 0.71201 0.85255 0.06864 0.0
H1748 H 0.70517 0.83478 0.09744 0.0
H1749 H 0.74343 0.78191 0.10006 0.0
H1750 H 0.74639 0.74651 0.19034 0.0
H1751 H 0.72812 0.75171 0.16115 0.0
C1752 C 0.89611 -0.00615 0.67391 0.0
C1753 C 0.90222 0.00896 0.68702 0.0
C1754 C 0.90068 -0.00536 0.65437 0.0
C1755 C 0.936 0.01711 0.62275 0.0
H1756 H 0.90435 -0.00704 0.58238 0.0
C1757 C 0.96761 0.00163 0.54974 0.0
C1758 C 0.96814 0.98109 0.54701 0.0
C1759 C 0.95429 0.01012 0.56214 0.0
C1760 C 0.91317 9e-05 0.59347 0.0
H1761 H 0.91749 0.03698 0.6899 0.0
H1762 H 0.92507 0.03856 0.65591 0.0
H1763 H 0.89169 -0.00197 0.61497 0.0
H1764 H 0.95406 0.95339 0.55283 0.0
H1765 H 0.93058 0.96814 0.57422 0.0
H1766 H 0.95762 0.0186 0.60152 0.0
C1767 C 0.91706 0.02591 0.66067 0.0
C1768 C 0.90604 0.00277 0.61214 0.0
C1769 C 0.91266 0.02503 0.68018 0.0
C1770 C 0.95396 0.96929 0.55495 0.0
C1771 C 0.94043 0.97776 0.56701 0.0
C1772 C 0.94299 0.01469 0.60409 0.0
C1773 C 0.91133 0.01062 0.64755 0.0
C1774 C 0.91764 0.01062 0.62715 0.0
C1775 C 0.94124 -0.0019 0.57167 0.0
C1776 C 0.9319 0.00548 0.58945 0.0
H1777 H 0.88806 0.98126 0.67877 0.0
H1778 H 0.89633 0.98241 0.64475 0.0
H1779 H 0.94546 0.02294 0.63392 0.0
H1780 H 0.97847 0.01092 0.54374 0.0
H1781 H 0.95513 0.02585 0.56546 0.0
C1782 C 0.76431 0.1912 0.45021 0.0
C1783 C 0.75257 0.17525 0.45525 0.0
C1784 C 0.75924 0.20307 0.43517 0.0
C1785 C 0.74551 0.19029 0.39066 0.0
H1786 H 0.73209 0.24266 0.37608 0.0
C1787 C 0.73658 0.20561 0.31154 0.0
C1788 C 0.7447 0.22312 0.30499 0.0
C1789 C 0.73427 0.203 0.33119 0.0
C1790 C 0.73597 0.22802 0.37999 0.0
H1791 H 0.72499 0.16137 0.45064 0.0
H1792 H 0.71653 0.18177 0.42409 0.0
H1793 H 0.73311 0.2349 0.41046 0.0
H1794 H 0.75595 0.25205 0.31382 0.0
H1795 H 0.75268 0.24715 0.34837 0.0
H1796 H 0.7493 0.18331 0.3608 0.0
C1797 C 0.72957 0.18504 0.43179 0.0
C1798 C 0.73643 0.22362 0.39957 0.0
C1799 C 0.73457 0.17322 0.44685 0.0
C1800 C 0.74981 0.23831 0.3185 0.0
C1801 C 0.74777 0.23558 0.33827 0.0
C1802 C 0.74527 0.19467 0.37132 0.0
C1803 C 0.74238 0.19917 0.42509 0.0
C1804 C 0.74109 0.20464 0.40489 0.0
C1805 C 0.74037 0.21769 0.34483 0.0
C1806 C 0.74034 0.2135 0.36566 0.0
H1807 H 0.77811 0.19343 0.45665 0.0
H1808 H 0.76935 0.21385 0.43008 0.0
H1809 H 0.74949 0.17566 0.39458 0.0
H1810 H 0.73206 0.19382 0.30147 0.0
H1811 H 0.72801 0.18926 0.33572 0.0
C1812 C 0.58926 0.00849 0.18307 0.0
C1813 C 0.58666 0.98898 0.18871 0.0
C1814 C 0.58324 0.01399 0.16507 0.0
C1815 C 0.55178 -0.0015 0.12487 0.0
H1816 H 0.5839 0.03337 0.09561 0.0
C1817 C 0.54266 0.00456 0.04526 0.0
C1818 C 0.53267 0.02158 0.0415 0.0
C1819 C 0.55269 0.00342 0.06233 0.0
C1820 C 0.57483 0.02378 0.10378 0.0
H1821 H 0.57566 0.95992 0.18005 0.0
H1822 H 0.5656 0.96939 0.14815 0.0
H1823 H 0.5934 0.0246 0.12803 0.0
H1824 H 0.52709 0.05156 0.05147 0.0
H1825 H 0.54508 0.0496 0.08149 0.0
H1826 H 0.53358 -0.0028 0.10028 0.0
C1827 C 0.57198 0.98052 0.15786 0.0
C1828 C 0.58014 0.01879 0.12227 0.0
C1829 C 0.57784 0.97505 0.17604 0.0
C1830 C 0.53479 0.03832 0.05401 0.0
C1831 C 0.54498 0.0372 0.07114 0.0
C1832 C 0.5466 0.00333 0.10637 0.0
C1833 C 0.57468 6e-05 0.15221 0.0
C1834 C 0.56876 0.00592 0.1329 0.0
C1835 C 0.55301 0.01935 0.07577 0.0
C1836 C 0.5582 0.01577 0.09569 0.0
H1837 H 0.59576 0.01966 0.19266 0.0
H1838 H 0.58515 0.02923 0.1613 0.0
H1839 H 0.54251 0.98893 0.13286 0.0
H1840 H 0.54084 0.99125 0.03639 0.0
H1841 H 0.55872 0.98948 0.06584 0.0
C1842 C 0.75231 0.8271 0.95368 0.0
C1843 C 0.74589 0.84536 0.96096 0.0
C1844 C 0.74958 0.82135 0.93432 0.0
C1845 C 0.74264 0.83936 0.8861 0.0
H1846 H 0.72207 0.78672 0.87519 0.0
C1847 C 0.74883 0.79436 0.81321 0.0
C1848 C 0.73434 0.78055 0.8087 0.0
C1849 C 0.74782 0.80641 0.83006 0.0
C1850 C 0.72756 0.80158 0.8779 0.0
H1851 H 0.73199 0.87214 0.9535 0.0
H1852 H 0.72745 0.86209 0.91946 0.0
H1853 H 0.7255 0.79892 0.90841 0.0
H1854 H 0.70679 0.76966 0.81688 0.0
H1855 H 0.70459 0.79123 0.84576 0.0
H1856 H 0.7451 0.84175 0.85542 0.0
C1857 C 0.73443 0.85223 0.92887 0.0
C1858 C 0.72973 0.80846 0.89698 0.0
C1859 C 0.73687 0.85786 0.94837 0.0
C1860 C 0.71809 0.78027 0.82011 0.0
C1861 C 0.71695 0.79246 0.83672 0.0
C1862 C 0.74065 0.83236 0.86688 0.0
C1863 C 0.74064 0.83385 0.92172 0.0
C1864 C 0.73746 0.8273 0.90131 0.0
C1865 C 0.73227 0.8048 0.84251 0.0
C1866 C 0.73314 0.81333 0.86259 0.0
H1867 H 0.75938 0.81719 0.96297 0.0
H1868 H 0.75463 0.80715 0.92913 0.0
H1869 H 0.74873 0.85394 0.88909 0.0
H1870 H 0.7616 0.79458 0.80469 0.0
H1871 H 0.75987 0.81573 0.83412 0.0
C1872 C 0.80605 0.8902 0.01746 0.0
C1873 C 0.7917 0.89745 0.00603 0.0
C1874 C 0.82487 0.89369 0.0129 0.0
C1875 C 0.85512 0.928 0.98641 0.0
H1876 H 0.89382 0.89332 0.00376 0.0
C1877 C 0.93505 0.94692 0.98695 0.0
C1878 C 0.93664 0.95741 0.00478 0.0
C1879 C 0.91983 0.93384 0.98344 0.0
C1880 C 0.88315 0.90289 -0.00153 0.0
H1881 H 0.78563 0.91349 0.98053 0.0
H1882 H 0.81867 0.91908 0.97207 0.0
H1883 H 0.86095 0.88174 0.00263 0.0
H1884 H 0.92494 0.96143 0.03338 0.0
H1885 H 0.89887 0.93772 0.02758 0.0
H1886 H 0.87744 0.94918 0.98258 0.0
C1887 C 0.8154 0.91112 0.98487 0.0
C1888 C 0.86433 0.89645 -0.00195 0.0
C1889 C 0.79648 0.90792 0.98968 0.0
C1890 C 0.92408 0.95323 0.01967 0.0
C1891 C 0.90921 0.93978 0.01633 0.0
C1892 C 0.87394 0.93425 0.98649 0.0
C1893 C 0.82985 0.90421 -0.00343 0.0
C1894 C 0.84998 0.90929 -0.00707 0.0
C1895 C 0.90649 0.93081 -0.00206 0.0
C1896 C 0.88792 0.92203 -0.00678 0.0
H1897 H 0.80274 0.88222 0.03026 0.0
H1898 H 0.83548 0.88863 0.02262 0.0
H1899 H 0.84458 0.93839 0.98254 0.0
H1900 H 0.94443 0.9503 0.97517 0.0
H1901 H 0.91774 0.92725 0.9691 0.0
C1902 C 0.31726 0.59316 0.98821 0.0
C1903 C 0.29926 0.58732 -0.00563 0.0
C1904 C 0.33308 0.58307 -0.00596 0.0
C1905 C 0.34556 0.53389 0.00774 0.0
H1906 H 0.39475 0.55834 0.01679 0.0
C1907 C 0.42623 0.50769 0.01751 0.0
C1908 C 0.43331 0.50908 -0.00127 0.0
C1909 C 0.40776 0.51328 0.02161 0.0
C1910 C 0.38099 0.55136 0.01473 0.0
H1911 H 0.28376 0.56736 0.01252 0.0
H1912 H 0.31135 0.54989 0.02272 0.0
H1913 H 0.36697 0.57897 0.01607 0.0
H1914 H 0.42657 0.51535 0.96925 0.0
H1915 H 0.39413 0.52431 0.97626 0.0
H1916 H 0.35993 0.50642 0.00505 0.0
C1917 C 0.31322 0.56195 0.01312 0.0
C1918 C 0.36518 0.56313 0.01411 0.0
C1919 C 0.29744 0.57196 0.00725 0.0
C1920 C 0.42125 0.51396 0.98378 0.0
C1921 C 0.40279 0.51913 0.98778 0.0
C1922 C 0.36143 0.52215 0.00815 0.0
C1923 C 0.33112 0.56705 0.00618 0.0
C1924 C 0.34739 0.55456 0.01002 0.0
C1925 C 0.39628 0.51979 0.00683 0.0
C1926 C 0.37924 0.53091 0.01119 0.0
H1927 H 0.31905 0.60497 0.9783 0.0
H1928 H 0.34672 0.5872 0.98831 0.0
H1929 H 0.33203 0.5269 0.00439 0.0
H1930 H 0.43545 0.5042 0.02924 0.0
H1931 H 0.40293 0.51387 0.03642 0.0
C1932 C 0.13962 0.55755 0.73827 0.0
C1933 C 0.14871 0.5479 0.75309 0.0
C1934 C 0.14497 0.57676 0.73394 0.0
C1935 C 0.16822 0.62071 0.75659 0.0
H1936 H 0.1748 0.63791 0.70439 0.0
C1937 C 0.22143 0.67626 0.7311 0.0
C1938 C 0.21479 0.69533 0.72867 0.0
C1939 C 0.20899 0.66045 0.73272 0.0
C1940 C 0.17237 0.63343 0.719 0.0
H1941 H 0.1714 0.55025 0.77402 0.0
H1942 H 0.18103 0.58363 0.76614 0.0
H1943 H 0.16299 0.60436 0.70967 0.0
H1944 H 0.18995 0.71293 0.72601 0.0
H1945 H 0.16768 0.68453 0.72863 0.0
H1946 H 0.17885 0.64932 0.76581 0.0
C1947 C 0.16933 0.57658 0.75835 0.0
C1948 C 0.16582 0.61424 0.72204 0.0
C1949 C 0.16391 0.55743 0.76277 0.0
C1950 C 0.19531 0.69832 0.72781 0.0
C1951 C 0.18269 0.68221 0.72924 0.0
C1952 C 0.17469 0.63984 0.75353 0.0
C1953 C 0.15956 0.58663 0.74429 0.0
C1954 C 0.16434 0.60751 0.74088 0.0
C1955 C 0.18961 0.66328 0.73182 0.0
C1956 C 0.17727 0.64611 0.73474 0.0
H1957 H 0.12784 0.55059 0.73052 0.0
H1958 H 0.13722 0.58413 0.72302 0.0
H1959 H 0.16687 0.61604 0.77126 0.0
H1960 H 0.23636 0.67358 0.73229 0.0
H1961 H 0.2145 0.64596 0.73498 0.0
C1962 C 0.17759 0.43023 0.51927 0.0
C1963 C 0.18419 0.41173 0.51293 0.0
C1964 C 0.15832 0.43385 0.51948 0.0
C1965 C 0.11362 0.41655 0.49758 0.0
H1966 H 0.09207 0.44908 0.53887 0.0
C1967 C 0.04057 0.44338 0.48779 0.0
C1968 C 0.04107 0.46402 0.48816 0.0
C1969 C 0.05436 0.43333 0.49747 0.0
C1970 C 0.09785 0.43978 0.52738 0.0
H1971 H 0.17578 0.38263 0.5014 0.0
H1972 H 0.1422 0.38894 0.50183 0.0
H1973 H 0.12481 0.43898 0.54108 0.0
H1974 H 0.05471 0.49053 0.50011 0.0
H1975 H 0.07903 0.47311 0.51687 0.0
H1976 H 0.08708 0.41795 0.48347 0.0
C1977 C 0.1519 0.40066 0.50662 0.0
C1978 C 0.1166 0.43415 0.52854 0.0
C1979 C 0.17116 0.39706 0.50639 0.0
C1980 C 0.05415 0.47455 0.49982 0.0
C1981 C 0.06799 0.46454 0.50945 0.0
C1982 C 0.09491 0.42209 0.49646 0.0
C1983 C 0.14526 0.41903 0.51335 0.0
C1984 C 0.12483 0.42301 0.51335 0.0
C1985 C 0.06896 0.44389 0.50726 0.0
C1986 C 0.087 0.43428 0.51104 0.0
H1987 H 0.18727 0.44188 0.5243 0.0
H1988 H 0.15367 0.44832 0.52429 0.0
H1989 H 0.11955 0.40814 0.48554 0.0
H1990 H 0.03045 0.43509 0.47881 0.0
H1991 H 0.05458 0.41739 0.49586 0.0
C1992 C 0.82843 0.94059 0.77094 0.0
C1993 C 0.84244 0.94723 0.75829 0.0
C1994 C 0.82236 0.92085 0.77013 0.0
C1995 C 0.82187 0.8759 0.73834 0.0
H1996 H 0.81109 0.84943 0.7857 0.0
C1997 C 0.79376 0.79885 0.73149 0.0
C1998 C 0.77613 0.79726 0.74035 0.0
C1999 C 0.80671 0.81334 0.738 0.0
C2000 C 0.81419 0.85661 0.77239 0.0
H2001 H 0.86068 0.93841 0.73453 0.0
H2002 H 0.85029 0.90408 0.73328 0.0
H2003 H 0.82259 0.88373 0.78717 0.0
H2004 H 0.75881 0.80753 0.76413 0.0
H2005 H 0.7811 0.83349 0.77515 0.0
H2006 H 0.81311 0.84922 0.72348 0.0
C2007 C 0.84382 0.91412 0.7437 0.0
C2008 C 0.8206 0.87628 0.7732 0.0
C2009 C 0.84977 0.93386 0.7444 0.0
C2010 C 0.77243 0.80859 0.75719 0.0
C2011 C 0.78523 0.82342 0.76348 0.0
C2012 C 0.8156 0.85632 0.73753 0.0
C2013 C 0.83024 0.90732 0.75672 0.0
C2014 C 0.82424 0.88621 0.75614 0.0
C2015 C 0.80184 0.82686 0.75297 0.0
C2016 C 0.81143 0.84649 0.75451 0.0
H2017 H 0.82241 0.95054 0.78175 0.0
H2018 H 0.81154 0.91619 0.78005 0.0
H2019 H 0.82419 0.88314 0.72491 0.0
H2020 H 0.79684 0.79008 0.71852 0.0
H2021 H 0.81968 0.81527 0.73002 0.0
C2022 C 0.6872 0.09999 0.49477 0.0
C2023 C 0.7005 0.08499 0.49379 0.0
C2024 C 0.66858 0.09574 0.49973 0.0
C2025 C 0.6347 0.0557 0.49496 0.0
H2026 H 0.60303 0.0884 0.5281 0.0
C2027 C 0.55645 0.04729 0.48865 0.0
C2028 C 0.54938 0.03823 0.50498 0.0
C2029 C 0.57351 0.0578 0.48976 0.0
C2030 C 0.61179 0.07929 0.51877 0.0
H2031 H 0.70495 0.05393 0.49803 0.0
H2032 H 0.67228 0.04647 0.50637 0.0
H2033 H 0.63718 0.09527 0.5269 0.0
H2034 H 0.55293 0.03475 0.53557 0.0
H2035 H 0.58255 0.05387 0.5377 0.0
H2036 H 0.60948 0.03992 0.48658 0.0
C2037 C 0.67632 0.06149 0.50326 0.0
C2038 C 0.6312 0.08313 0.51812 0.0
C2039 C 0.69497 0.06576 0.49843 0.0
C2040 C 0.55812 0.04194 0.52291 0.0
C2041 C 0.57505 0.05275 0.5241 0.0
C2042 C 0.61538 0.0521 0.49539 0.0
C2043 C 0.66291 0.07639 0.50365 0.0
C2044 C 0.64276 0.07144 0.50605 0.0
C2045 C 0.58344 0.05951 0.50726 0.0
C2046 C 0.60376 0.06403 0.50704 0.0
H2047 H 0.6911 0.115 0.49148 0.0
H2048 H 0.65845 0.10743 0.49975 0.0
H2049 H 0.64326 0.04655 0.48546 0.0
H2050 H 0.55004 0.04425 0.47463 0.0
H2051 H 0.57982 0.06295 0.47662 0.0
C2052 C 0.17592 0.44513 0.76126 0.0
C2053 C 0.16361 0.45359 0.74831 0.0
C2054 C 0.18648 0.42896 0.75538 0.0
C2055 C 0.21151 0.39788 0.73597 0.0
H2056 H 0.17552 0.35419 0.73032 0.0
C2057 C 0.23086 0.31651 0.74528 0.0
C2058 C 0.21864 0.30658 0.7578 0.0
C2059 C 0.22625 0.33484 0.73861 0.0
C2060 C 0.18576 0.36624 0.73159 0.0
H2061 H 0.15376 0.45266 0.71862 0.0
H2062 H 0.17198 0.42384 0.70858 0.0
H2063 H 0.16514 0.3878 0.72617 0.0
H2064 H 0.19254 0.30854 0.77388 0.0
H2065 H 0.18474 0.3409 0.76259 0.0
H2066 H 0.23187 0.37646 0.74265 0.0
C2067 C 0.17344 0.42996 0.72318 0.0
C2068 C 0.1799 0.38538 0.72895 0.0
C2069 C 0.16298 0.44631 0.72901 0.0
C2070 C 0.20216 0.31576 0.76419 0.0
C2071 C 0.19758 0.33412 0.75752 0.0
C2072 C 0.21743 0.3787 0.73838 0.0
C2073 C 0.18488 0.42094 0.73649 0.0
C2074 C 0.19251 0.40135 0.73222 0.0
C2075 C 0.20939 0.34358 0.74436 0.0
C2076 C 0.20432 0.36292 0.73733 0.0
H2077 H 0.17668 0.45028 0.77623 0.0
H2078 H 0.19494 0.42188 0.76598 0.0
H2079 H 0.22139 0.41009 0.73854 0.0
H2080 H 0.24366 0.30982 0.73999 0.0
H2081 H 0.23561 0.34192 0.72856 0.0
C2082 C 0.3384 0.56366 0.26088 0.0
C2083 C 0.33859 0.54782 0.24729 0.0
C2084 C 0.33269 0.5821 0.25565 0.0
C2085 C 0.32188 0.61315 0.21433 0.0
H2086 H 0.29394 0.6411 0.25446 0.0
C2087 C 0.26451 0.67291 0.22726 0.0
C2088 C 0.27115 0.68691 0.24116 0.0
C2089 C 0.27709 0.66034 0.21779 0.0
C2090 C 0.30193 0.63354 0.2432 0.0
H2091 H 0.33311 0.53877 0.21748 0.0
H2092 H 0.32162 0.57104 0.20855 0.0
H2093 H 0.30517 0.60863 0.26016 0.0
H2094 H 0.29587 0.7009 0.25429 0.0
H2095 H 0.31781 0.67825 0.23845 0.0
H2096 H 0.31713 0.6383 0.19703 0.0
C2097 C 0.32654 0.56925 0.22312 0.0
C2098 C 0.30845 0.61495 0.24646 0.0
C2099 C 0.33284 0.55076 0.22827 0.0
C2100 C 0.29055 0.69012 0.24357 0.0
C2101 C 0.30311 0.67738 0.23427 0.0
C2102 C 0.3149 0.6319 0.2109 0.0
C2103 C 0.32634 0.58511 0.23684 0.0
C2104 C 0.31879 0.60458 0.23227 0.0
C2105 C 0.29619 0.66118 0.22292 0.0
C2106 C 0.30508 0.64218 0.22551 0.0
H2107 H 0.34331 0.56201 0.27549 0.0
H2108 H 0.33338 0.59408 0.26645 0.0
H2109 H 0.3298 0.60552 0.20311 0.0
H2110 H 0.24953 0.67031 0.22524 0.0
H2111 H 0.27147 0.64793 0.20911 0.0
C2112 C 0.4911 0.69279 0.5676 0.0
C2113 C 0.49484 0.70072 0.58622 0.0
C2114 C 0.49823 0.67452 0.5617 0.0
C2115 C 0.50647 0.62797 0.58025 0.0
H2116 H 0.5284 0.61595 0.53011 0.0
C2117 C 0.49188 0.55281 0.54586 0.0
C2118 C 0.4845 0.55439 0.52733 0.0
C2119 C 0.50321 0.56808 0.55402 0.0
C2120 C 0.52237 0.61901 0.54422 0.0
H2121 H 0.50912 0.69601 0.61322 0.0
H2122 H 0.52087 0.66357 0.60311 0.0
H2123 H 0.52818 0.65007 0.54282 0.0
H2124 H 0.4839 0.57192 0.5021 0.0
H2125 H 0.50285 0.59885 0.5163 0.0
H2126 H 0.49867 0.59761 0.58098 0.0
C2127 C 0.51285 0.67177 0.59299 0.0
C2128 C 0.52236 0.63851 0.55148 0.0
C2129 C 0.50608 0.69024 0.59875 0.0
C2130 C 0.48958 0.57053 0.51646 0.0
C2131 C 0.50066 0.58587 0.52461 0.0
C2132 C 0.50608 0.60857 0.57282 0.0
C2133 C 0.50888 0.66374 0.57446 0.0
C2134 C 0.51357 0.64319 0.56912 0.0
C2135 C 0.50678 0.58534 0.54389 0.0
C2136 C 0.51301 0.60403 0.55418 0.0
H2137 H 0.48258 0.70063 0.55763 0.0
H2138 H 0.49473 0.66843 0.54744 0.0
H2139 H 0.4996 0.63128 0.5939 0.0
H2140 H 0.48775 0.54054 0.55448 0.0
H2141 H 0.50799 0.56697 0.56873 0.0
C2142 C 0.55636 0.26968 0.82527 0.0
C2143 C 0.55036 0.25343 0.83581 0.0
C2144 C 0.57329 0.2691 0.81499 0.0
C2145 C 0.60079 0.23294 0.78919 0.0
H2146 H 0.64313 0.26993 0.79159 0.0
C2147 C 0.67521 0.21243 0.76788 0.0
C2148 C 0.68773 0.22682 0.76108 0.0
C2149 C 0.65668 0.21713 0.77224 0.0
C2150 C 0.63121 0.25974 0.79037 0.0
H2151 H 0.55832 0.22472 0.8454 0.0
H2152 H 0.58763 0.22371 0.8273 0.0
H2153 H 0.61512 0.27659 0.81114 0.0
H2154 H 0.69023 0.25685 0.75165 0.0
H2155 H 0.6577 0.26507 0.75931 0.0
H2156 H 0.61679 0.21589 0.76875 0.0
C2157 C 0.57909 0.23671 0.82678 0.0
C2158 C 0.61529 0.2635 0.80167 0.0
C2159 C 0.56235 0.23736 0.83719 0.0
C2160 C 0.6809 0.24546 0.75697 0.0
C2161 C 0.66234 0.25024 0.7615 0.0
C2162 C 0.61656 0.22928 0.77779 0.0
C2163 C 0.5843 0.25221 0.81501 0.0
C2164 C 0.60027 0.24976 0.80163 0.0
C2165 C 0.65031 0.23635 0.76996 0.0
C2166 C 0.6322 0.24228 0.77875 0.0
H2167 H 0.54754 0.28237 0.82411 0.0
H2168 H 0.57719 0.2813 0.80612 0.0
H2169 H 0.58914 0.22236 0.78866 0.0
H2170 H 0.68004 0.19788 0.771 0.0
H2171 H 0.6478 0.20609 0.77878 0.0
C2172 C 0.9866 0.29677 0.05331 0.0
C2173 C -0.00354 0.29403 0.0705 0.0
C2174 C 0.98707 0.31511 0.04503 0.0
C2175 C -0.01064 0.36527 0.0637 0.0
H2176 H -0.0095 0.37985 0.01038 0.0
C2177 C 0.00858 0.44 0.03736 0.0
C2178 C 0.00303 0.44459 0.01879 0.0
C2179 C 0.0008 0.42353 0.04587 0.0
C2180 C -0.01047 0.3759 0.02531 0.0
H2181 H 0.01704 0.30705 0.09064 0.0
H2182 H 0.0179 0.33908 0.07606 0.0
H2183 H -0.00401 0.34582 0.01815 0.0
H2184 H 0.98387 0.43754 -0.00473 0.0
H2185 H 0.9699 0.40868 0.01021 0.0
H2186 H 0.98332 0.39543 0.07093 0.0
C2187 C 0.0094 0.32723 0.06937 0.0
C2188 C -0.007 0.35649 0.02972 0.0
C2189 C 0.00906 0.30884 0.07756 0.0
C2190 C 0.98799 0.43427 0.00979 0.0
C2191 C 0.9802 0.4177 0.01825 0.0
C2192 C 0.98578 0.38466 0.0593 0.0
C2193 C -0.00262 0.33081 0.05391 0.0
C2194 C -0.00651 0.35119 0.04898 0.0
C2195 C 0.98773 0.4113 0.03558 0.0
C2196 C 0.98637 0.39028 0.04009 0.0
H2197 H 0.97706 0.2854 0.04737 0.0
H2198 H 0.97793 0.31747 0.03288 0.0
H2199 H -0.01094 0.36131 0.07866 0.0
H2200 H 0.02026 0.44792 0.04442 0.0
H2201 H 0.00685 0.41905 0.05928 0.0
C2202 C 0.92912 0.72102 0.33436 0.0
C2203 C 0.94408 0.73341 0.32894 0.0
C2204 C 0.91061 0.72645 0.33155 0.0
C2205 C 0.88215 0.77028 0.32752 0.0
H2206 H 0.84394 0.7325 0.30903 0.0
C2207 C 0.81332 0.78749 0.29108 0.0
C2208 C 0.79929 0.77258 0.29016 0.0
C2209 C 0.82881 0.78587 0.30319 0.0
C2210 C 0.85428 0.74313 0.3148 0.0
H2211 H 0.95165 0.76065 0.3154 0.0
H2212 H 0.919 0.7702 0.31028 0.0
H2213 H 0.87625 0.72233 0.31153 0.0
H2214 H 0.78874 0.74626 0.30342 0.0
H2215 H 0.81535 0.74383 0.32512 0.0
H2216 H 0.8601 0.7913 0.33011 0.0
C2217 C 0.92168 0.7564 0.31696 0.0
C2218 C 0.87287 0.73732 0.31598 0.0
C2219 C 0.94029 0.75083 0.31962 0.0
C2220 C 0.79927 0.758 0.30388 0.0
C2221 C 0.8147 0.75646 0.31612 0.0
C2222 C 0.86346 0.77614 0.32632 0.0
C2223 C 0.9067 0.74447 0.32336 0.0
C2224 C 0.88702 0.75087 0.32212 0.0
C2225 C 0.83039 0.76928 0.31446 0.0
C2226 C 0.84937 0.76266 0.31969 0.0
H2227 H 0.93174 0.70746 0.34152 0.0
H2228 H 0.89937 0.71696 0.33661 0.0
H2229 H 0.89279 0.78092 0.33265 0.0
H2230 H 0.81346 0.79908 0.28081 0.0
H2231 H 0.84053 0.79618 0.30175 0.0
C2232 C 0.46103 0.30173 0.87918 0.0
C2233 C 0.47649 0.28923 0.878 0.0
C2234 C 0.46339 0.32135 0.88577 0.0
C2235 C 0.50019 0.36019 0.89835 0.0
H2236 H 0.46113 0.38037 0.9323 0.0
C2237 C 0.51158 0.41879 0.95961 0.0
C2238 C 0.49815 0.43354 0.96233 0.0
C2239 C 0.50907 0.40389 0.94537 0.0
C2240 C 0.47199 0.37509 0.92256 0.0
H2241 H 0.50659 0.28747 0.88244 0.0
H2242 H 0.51062 0.3213 0.89481 0.0
H2243 H 0.45635 0.34867 0.9152 0.0
H2244 H 0.47201 0.44484 0.95176 0.0
H2245 H 0.46726 0.41819 0.92702 0.0
H2246 H 0.51628 0.38618 0.90695 0.0
C2247 C 0.49674 0.31631 0.89008 0.0
C2248 C 0.46927 0.35691 0.91269 0.0
C2249 C 0.49442 0.29682 0.88312 0.0
C2250 C 0.48253 0.43362 0.94995 0.0
C2251 C 0.47981 0.4184 0.9359 0.0
C2252 C 0.50302 0.37822 0.9085 0.0
C2253 C 0.48121 0.3288 0.89172 0.0
C2254 C 0.48345 0.34904 0.90068 0.0
C2255 C 0.49291 0.40324 0.93374 0.0
C2256 C 0.48904 0.38569 0.9209 0.0
H2257 H 0.44708 0.29632 0.87505 0.0
H2258 H 0.45119 0.33061 0.88638 0.0
H2259 H 0.51127 0.35484 0.88894 0.0
H2260 H 0.52387 0.41851 0.96884 0.0
H2261 H 0.51931 0.39232 0.94412 0.0
C2262 C 0.92764 0.25997 0.14284 0.0
C2263 C 0.94232 0.24757 0.14767 0.0
C2264 C 0.9106 0.25926 0.15277 0.0
C2265 C 0.89055 0.2425 0.19867 0.0
H2266 H 0.84275 0.24918 0.17302 0.0
C2267 C 0.81951 0.21497 0.2265 0.0
C2268 C 0.80408 0.22748 0.2258 0.0
C2269 C 0.83677 0.22065 0.21886 0.0
C2270 C 0.85605 0.24767 0.1804 0.0
H2271 H 0.95047 0.22398 0.16576 0.0
H2272 H 0.92038 0.22199 0.18248 0.0
H2273 H 0.87189 0.25124 0.15458 0.0
H2274 H 0.79468 0.25601 0.21724 0.0
H2275 H 0.82503 0.26576 0.20324 0.0
H2276 H 0.87449 0.23789 0.22424 0.0
C2277 C 0.92225 0.23285 0.1716 0.0
C2278 C 0.87273 0.2488 0.16987 0.0
C2279 C 0.9394 0.2338 0.16191 0.0
C2280 C 0.80636 0.24608 0.21786 0.0
C2281 C 0.82363 0.25164 0.20988 0.0
C2282 C 0.87386 0.24112 0.2091 0.0
C2283 C 0.90783 0.24592 0.1675 0.0
C2284 C 0.89015 0.24584 0.17881 0.0
C2285 C 0.83886 0.23882 0.21013 0.0
C2286 C 0.8565 0.24335 0.19996 0.0
H2287 H 0.9296 0.27086 0.13201 0.0
H2288 H 0.89988 0.26965 0.14934 0.0
H2289 H 0.90374 0.24072 0.20613 0.0
H2290 H 0.81819 0.20063 0.23271 0.0
H2291 H 0.8483 0.21048 0.21905 0.0
C2292 C 0.01504 0.69945 0.41516 0.0
C2293 C -0.00352 0.70613 0.41544 0.0
C2294 C 0.02043 0.68509 0.42772 0.0
C2295 C 0.00606 0.6521 0.46639 0.0
H2296 H 0.01562 0.61139 0.42696 0.0
C2297 C -0.00573 0.56774 0.47596 0.0
C2298 C 0.00672 0.55508 0.46607 0.0
C2299 C -0.00435 0.58815 0.47382 0.0
C2300 C 0.01342 0.62254 0.43832 0.0
H2301 H 0.97017 0.70582 0.43139 0.0
H2302 H 0.97953 0.68045 0.45296 0.0
H2303 H 0.01563 0.64548 0.41842 0.0
H2304 H 0.03118 0.55395 0.44736 0.0
H2305 H 0.03388 0.58924 0.4441 0.0
H2306 H 0.00353 0.62873 0.48624 0.0
C2307 C -0.01017 0.68615 0.443 0.0
C2308 C 0.01348 0.64213 0.4334 0.0
C2309 C 0.98442 0.70053 0.43045 0.0
C2310 C 0.02109 0.56324 0.45483 0.0
C2311 C 0.02264 0.58351 0.45295 0.0
C2312 C 0.00627 0.63231 0.47143 0.0
C2313 C 0.00733 0.67725 0.44066 0.0
C2314 C 0.00975 0.6571 0.4473 0.0
C2315 C 0.00963 0.59618 0.46193 0.0
C2316 C 0.0099 0.61733 0.45736 0.0
H2317 H 0.02483 0.7038 0.40407 0.0
H2318 H 0.03414 0.6786 0.42591 0.0
H2319 H 0.00284 0.66343 0.47727 0.0
H2320 H 0.98314 0.56184 0.48485 0.0
H2321 H 0.98537 0.59753 0.48086 0.0
C2322 C 0.55191 0.72448 0.65789 0.0
C2323 C 0.54612 0.7422 0.65018 0.0
C2324 C 0.56744 0.72435 0.67023 0.0
C2325 C 0.5936 0.75678 0.70443 0.0
H2326 H 0.6347 0.72064 0.69715 0.0
C2327 C 0.66824 0.77355 0.73083 0.0
C2328 C 0.68016 0.75811 0.7351 0.0
C2329 C 0.64959 0.7696 0.7255 0.0
C2330 C 0.62312 0.7305 0.69973 0.0
H2331 H 0.55254 0.77349 0.64867 0.0
H2332 H 0.57959 0.77324 0.67029 0.0
H2333 H 0.60721 0.71744 0.67605 0.0
H2334 H 0.68148 0.72663 0.73897 0.0
H2335 H 0.64872 0.7197 0.72962 0.0
H2336 H 0.60958 0.77014 0.72781 0.0
C2337 C 0.57197 0.75952 0.66693 0.0
C2338 C 0.60746 0.72875 0.68754 0.0
C2339 C 0.5566 0.75962 0.65442 0.0
C2340 C 0.6726 0.73883 0.73574 0.0
C2341 C 0.65391 0.73484 0.7302 0.0
C2342 C 0.60916 0.75845 0.7167 0.0
C2343 C 0.57729 0.74197 0.67525 0.0
C2344 C 0.59287 0.74229 0.6894 0.0
C2345 C 0.64249 0.7501 0.7242 0.0
C2346 C 0.62438 0.74575 0.71408 0.0
H2347 H 0.54416 0.7108 0.65478 0.0
H2348 H 0.57134 0.71061 0.67638 0.0
H2349 H 0.58231 0.76712 0.70642 0.0
H2350 H 0.67368 0.78856 0.73035 0.0
H2351 H 0.64124 0.78171 0.72091 0.0
C2352 C 0.59164 0.51736 0.69049 0.0
C2353 C 0.60031 0.50044 0.69695 0.0
C2354 C 0.58039 0.51625 0.674 0.0
C2355 C 0.55189 0.48033 0.64489 0.0
H2356 H 0.55293 0.52059 0.6069 0.0
C2357 C 0.52556 0.46988 0.56695 0.0
C2358 C 0.51697 0.48577 0.55845 0.0
C2359 C 0.53179 0.47167 0.586 0.0
C2360 C 0.55221 0.50945 0.61762 0.0
H2361 H 0.60495 0.46936 0.69055 0.0
H2362 H 0.58548 0.46751 0.66158 0.0
H2363 H 0.57375 0.52397 0.63482 0.0
H2364 H 0.50716 0.51548 0.5633 0.0
H2365 H 0.51832 0.51881 0.59664 0.0
H2366 H 0.53078 0.46549 0.62725 0.0
C2367 C 0.58706 0.48152 0.66954 0.0
C2368 C 0.56419 0.51133 0.63353 0.0
C2369 C 0.59837 0.48264 0.686 0.0
C2370 C 0.51355 0.50299 0.56964 0.0
C2371 C 0.52007 0.50494 0.58861 0.0
C2372 C 0.53997 0.4784 0.62892 0.0
C2373 C 0.57757 0.4982 0.66367 0.0
C2374 C 0.56437 0.49663 0.64716 0.0
C2375 C 0.52984 0.48952 0.59669 0.0
C2376 C 0.54024 0.4928 0.615 0.0
H2377 H 0.59297 0.53132 0.69857 0.0
H2378 H 0.57328 0.52936 0.66981 0.0
H2379 H 0.55142 0.46899 0.65542 0.0
H2380 H 0.52831 0.45643 0.55856 0.0
H2381 H 0.53935 0.4596 0.59185 0.0
C2382 C 0.76783 0.33472 0.94218 0.0
C2383 C 0.76322 0.35357 0.94946 0.0
C2384 C 0.76471 0.32943 0.92282 0.0
C2385 C 0.76722 0.33905 0.87604 0.0
H2386 H 0.72396 0.30429 0.86601 0.0
C2387 C 0.75621 0.28988 0.80521 0.0
C2388 C 0.75338 0.26999 0.80969 0.0
C2389 C 0.75537 0.30484 0.81979 0.0
C2390 C 0.73592 0.31426 0.86846 0.0
H2391 H 0.75228 0.38191 0.94232 0.0
H2392 H 0.74729 0.37266 0.90794 0.0
H2393 H 0.72674 0.32264 0.89699 0.0
H2394 H 0.7476 0.25037 0.8331 0.0
H2395 H 0.74609 0.27612 0.85797 0.0
H2396 H 0.77716 0.32943 0.84808 0.0
C2397 C 0.75303 0.36203 0.91743 0.0
C2398 C 0.73744 0.32477 0.8861 0.0
C2399 C 0.75582 0.36724 0.93697 0.0
C2400 C 0.74986 0.26545 0.82897 0.0
C2401 C 0.74877 0.28026 0.84329 0.0
C2402 C 0.76571 0.32849 0.85832 0.0
C2403 C 0.75731 0.34302 0.91036 0.0
C2404 C 0.75344 0.33658 0.89026 0.0
C2405 C 0.75132 0.30009 0.8389 0.0
C2406 C 0.75049 0.31526 0.85481 0.0
H2407 H 0.77334 0.32388 0.95159 0.0
H2408 H 0.76791 0.31462 0.91756 0.0
H2409 H 0.77975 0.348 0.87915 0.0
H2410 H 0.75888 0.29388 0.79051 0.0
H2411 H 0.75755 0.32006 0.81611 0.0
C2412 C 0.8995 0.47296 0.183 0.0
C2413 C 0.89443 0.49202 0.1893 0.0
C2414 C 0.9121 0.47048 0.16767 0.0
C2415 C 0.95008 0.49883 0.14552 0.0
H2416 H 0.94362 0.46344 0.10066 0.0
C2417 C 0.96804 0.51723 0.07 0.0
C2418 C 0.9745 0.50274 0.05684 0.0
C2419 C 0.96513 0.51281 0.08914 0.0
C2420 C 0.94596 0.47293 0.11341 0.0
H2421 H 0.89645 0.52311 0.18362 0.0
H2422 H 0.91782 0.51877 0.15649 0.0
H2423 H 0.92182 0.46101 0.12771 0.0
H2424 H 0.98433 0.47281 0.05328 0.0
H2425 H 0.97842 0.46476 0.08689 0.0
H2426 H 0.97325 0.51179 0.1306 0.0
C2427 C 0.91283 0.50585 0.16377 0.0
C2428 C 0.93342 0.47163 0.12878 0.0
C2429 C 0.90047 0.50832 0.17908 0.0
C2430 C 0.97934 0.48419 0.0633 0.0
C2431 C 0.976 0.47959 0.08242 0.0
C2432 C 0.96251 0.5002 0.13016 0.0
C2433 C 0.91952 0.48706 0.15863 0.0
C2434 C 0.93481 0.48531 0.14442 0.0
C2435 C 0.96826 0.4937 0.09526 0.0
C2436 C 0.95991 0.48795 0.11359 0.0
H2437 H 0.89496 0.46022 0.19081 0.0
H2438 H 0.91689 0.45583 0.16371 0.0
H2439 H 0.9517 0.50917 0.15775 0.0
H2440 H 0.96439 0.53167 0.06528 0.0
H2441 H 0.95896 0.52388 0.09874 0.0
C2442 C 0.75752 0.69117 0.45009 0.0
C2443 C 0.74592 0.67473 0.45378 0.0
C2444 C 0.756 0.70054 0.43265 0.0
C2445 C 0.72953 0.69899 0.38595 0.0
H2446 H 0.77977 0.70411 0.36435 0.0
C2447 C 0.73681 0.69756 0.30646 0.0
C2448 C 0.74103 0.71683 0.30114 0.0
C2449 C 0.74221 0.69151 0.32452 0.0
C2450 C 0.76573 0.70263 0.37027 0.0
H2451 H 0.7215 0.65746 0.44372 0.0
H2452 H 0.71919 0.67322 0.41334 0.0
H2453 H 0.77591 0.69991 0.39894 0.0
H2454 H 0.75591 0.74407 0.309 0.0
H2455 H 0.76581 0.73335 0.34054 0.0
H2456 H 0.71949 0.70087 0.35709 0.0
C2457 C 0.72956 0.679 0.42364 0.0
C2458 C 0.76342 0.70059 0.39009 0.0
C2459 C 0.73089 0.66987 0.44118 0.0
C2460 C 0.75302 0.72896 0.3127 0.0
C2461 C 0.75848 0.7229 0.3308 0.0
C2462 C 0.73188 0.70063 0.36618 0.0
C2463 C 0.743 0.69343 0.41861 0.0
C2464 C 0.74527 0.69852 0.39813 0.0
C2465 C 0.75174 0.70479 0.33735 0.0
C2466 C 0.74997 0.70218 0.35818 0.0
H2467 H 0.76891 0.69561 0.45981 0.0
H2468 H 0.766 0.71225 0.42956 0.0
H2469 H 0.71538 0.69782 0.39161 0.0
H2470 H 0.72745 0.68808 0.29769 0.0
H2471 H 0.73706 0.67739 0.3293 0.0
C2472 C 0.59902 0.48652 0.81729 0.0
C2473 C 0.59367 0.49725 0.80142 0.0
C2474 C 0.58741 0.48552 0.83336 0.0
C2475 C 0.53836 0.49392 0.84946 0.0
H2476 H 0.5613 0.49472 0.9002 0.0
C2477 C 0.50353 0.52137 0.9191 0.0
C2478 C 0.50732 0.51214 0.93638 0.0
C2479 C 0.5115 0.51459 0.90188 0.0
C2480 C 0.55469 0.49399 0.88611 0.0
H2481 H 0.57231 0.51586 0.79004 0.0
H2482 H 0.55241 0.51512 0.81871 0.0
H2483 H 0.58119 0.49475 0.87182 0.0
H2484 H 0.52122 0.48771 0.94905 0.0
H2485 H 0.5357 0.47601 0.91869 0.0
H2486 H 0.51181 0.49444 0.8641 0.0
C2487 C 0.56527 0.50685 0.81844 0.0
C2488 C 0.56608 0.49408 0.86981 0.0
C2489 C 0.57677 0.50754 0.80215 0.0
C2490 C 0.51828 0.4952 0.93595 0.0
C2491 C 0.5265 0.48851 0.91864 0.0
C2492 C 0.52695 0.49407 0.86583 0.0
C2493 C 0.57035 0.49557 0.83411 0.0
C2494 C 0.55808 0.49439 0.85131 0.0
C2495 C 0.52356 0.49854 0.9016 0.0
C2496 C 0.53507 0.49447 0.88429 0.0
H2497 H 0.61181 0.47812 0.817 0.0
H2498 H 0.59162 0.4764 0.84497 0.0
H2499 H 0.53172 0.49369 0.83541 0.0
H2500 H 0.49487 0.53429 0.91894 0.0
H2501 H 0.50916 0.5227 0.88901 0.0
C2502 C 0.75656 0.30183 0.03928 0.0
C2503 C 0.74401 0.31589 0.03273 0.0
C2504 C 0.75174 0.29039 0.05487 0.0
C2505 C 0.72722 0.30236 0.09796 0.0
H2506 H 0.73989 0.25063 0.11498 0.0
C2507 C 0.71902 0.28532 0.17688 0.0
C2508 C 0.73343 0.27502 0.18557 0.0
C2509 C 0.71798 0.28611 0.15692 0.0
C2510 C 0.73641 0.26517 0.11042 0.0
H2511 H 0.71537 0.3262 0.03494 0.0
H2512 H 0.70702 0.3062 0.06209 0.0
H2513 H 0.74084 0.25726 0.08044 0.0
H2514 H 0.75773 0.25687 0.18016 0.0
H2515 H 0.75639 0.2589 0.14505 0.0
H2516 H 0.72399 0.31093 0.12755 0.0
C2517 C 0.72073 0.30445 0.05549 0.0
C2518 C 0.73678 0.26886 0.09069 0.0
C2519 C 0.72554 0.31591 0.03994 0.0
C2520 C 0.74648 0.26495 0.17382 0.0
C2521 C 0.74563 0.26601 0.15372 0.0
C2522 C 0.72711 0.2988 0.11751 0.0
C2523 C 0.73429 0.29281 0.064 0.0
C2524 C 0.73207 0.2875 0.08433 0.0
C2525 C 0.73156 0.27696 0.14509 0.0
C2526 C 0.7316 0.28017 0.12404 0.0
H2527 H 0.77077 0.30105 0.03372 0.0
H2528 H 0.7624 0.28139 0.06105 0.0
H2529 H 0.72423 0.3171 0.09355 0.0
H2530 H 0.70853 0.29293 0.18552 0.0
H2531 H 0.70665 0.29421 0.15077 0.0
C2532 C 0.92255 0.49685 0.30404 0.0
C2533 C 0.90944 0.51153 0.30094 0.0
C2534 C 0.92609 0.49111 0.32273 0.0
C2535 C 0.92136 0.50574 0.37378 0.0
H2536 H 0.9174 0.44941 0.38098 0.0
C2537 C 0.93824 0.48165 0.44589 0.0
C2538 C 0.95463 0.47069 0.44353 0.0
C2539 C 0.92519 0.48171 0.43086 0.0
C2540 C 0.91827 0.46518 0.3792 0.0
H2541 H 0.89118 0.53309 0.3147 0.0
H2542 H 0.8975 0.52319 0.34729 0.0
H2543 H 0.91396 0.46198 0.34869 0.0
H2544 H 0.96828 0.44791 0.42621 0.0
H2545 H 0.94588 0.4482 0.40001 0.0
H2546 H 0.92653 0.50909 0.40392 0.0
C2547 C 0.90478 0.51589 0.33538 0.0
C2548 C 0.9166 0.47232 0.36075 0.0
C2549 C 0.90111 0.52148 0.31675 0.0
C2550 C 0.95595 0.45692 0.42798 0.0
C2551 C 0.94297 0.45699 0.41301 0.0
C2552 C 0.9231 0.49863 0.39216 0.0
C2553 C 0.91673 0.50018 0.33845 0.0
C2554 C 0.91846 0.49263 0.3579 0.0
C2555 C 0.92866 0.47093 0.41351 0.0
C2556 C 0.92196 0.47824 0.39504 0.0
H2557 H 0.92928 0.48912 0.29203 0.0
H2558 H 0.9357 0.47923 0.32488 0.0
H2559 H 0.92292 0.52146 0.3719 0.0
H2560 H 0.93675 0.49209 0.458 0.0
H2561 H 0.91385 0.4921 0.4318 0.0
C2562 C 0.77569 0.63694 0.55592 0.0
C2563 C 0.76213 0.64253 0.54267 0.0
C2564 C 0.77272 0.64005 0.5757 0.0
C2565 C 0.73579 0.65454 0.6118 0.0
H2566 H 0.77884 0.67422 0.64171 0.0
C2567 C 0.73168 0.71305 0.67212 0.0
C2568 C 0.74329 0.71252 0.68847 0.0
C2569 C 0.73266 0.69853 0.65746 0.0
C2570 C 0.76674 0.66828 0.63374 0.0
H2571 H 0.73495 0.65566 0.53931 0.0
H2572 H 0.73023 0.66241 0.57372 0.0
H2573 H 0.7835 0.66067 0.60916 0.0
H2574 H 0.76427 0.69571 0.70284 0.0
H2575 H 0.76649 0.67033 0.67656 0.0
H2576 H 0.71896 0.66361 0.63605 0.0
C2577 C 0.7428 0.65484 0.56911 0.0
C2578 C 0.76938 0.66052 0.615 0.0
C2579 C 0.74557 0.65124 0.54937 0.0
C2580 C 0.75529 0.69654 0.69031 0.0
C2581 C 0.75654 0.68207 0.67533 0.0
C2582 C 0.73315 0.66253 0.63045 0.0
C2583 C 0.75634 0.64928 0.58257 0.0
C2584 C 0.75385 0.65428 0.60351 0.0
C2585 C 0.74544 0.68318 0.65863 0.0
C2586 C 0.74853 0.67018 0.6413 0.0
H2587 H 0.78841 0.62981 0.55099 0.0
H2588 H 0.78328 0.63521 0.58559 0.0
H2589 H 0.72355 0.6493 0.60364 0.0
H2590 H 0.72205 0.72501 0.67043 0.0
H2591 H 0.72409 0.69994 0.6447 0.0
C2592 C 0.68259 0.57065 0.48074 0.0
C2593 C 0.69158 0.58673 0.49051 0.0
C2594 C 0.66366 0.56632 0.48418 0.0
C2595 C 0.62064 0.59075 0.50051 0.0
H2596 H 0.60008 0.53748 0.49481 0.0
C2597 C 0.54377 0.55379 0.50523 0.0
C2598 C 0.54048 0.54224 0.48825 0.0
C2599 C 0.56051 0.56494 0.50729 0.0
C2600 C 0.6057 0.55243 0.49655 0.0
H2601 H 0.68837 0.60997 0.51258 0.0
H2602 H 0.6553 0.60211 0.51893 0.0
H2603 H 0.634 0.54268 0.49776 0.0
H2604 H 0.54997 0.53568 0.45914 0.0
H2605 H 0.57887 0.55556 0.46253 0.0
H2606 H 0.59201 0.60028 0.49909 0.0
C2607 C 0.66272 0.59326 0.50817 0.0
C2608 C 0.62507 0.55541 0.49816 0.0
C2609 C 0.68162 0.59773 0.50456 0.0
C2610 C 0.55231 0.54453 0.47232 0.0
C2611 C 0.56884 0.55579 0.4743 0.0
C2612 C 0.60115 0.58772 0.49905 0.0
C2613 C 0.65341 0.57783 0.49766 0.0
C2614 C 0.63281 0.57462 0.49946 0.0
C2615 C 0.57368 0.56471 0.49224 0.0
C2616 C 0.5937 0.56855 0.49641 0.0
H2617 H 0.68996 0.56189 0.46987 0.0
H2618 H 0.65689 0.55447 0.47565 0.0
H2619 H 0.6262 0.60575 0.50142 0.0
H2620 H 0.53483 0.55208 0.51772 0.0
H2621 H 0.56409 0.57174 0.52124 0.0
C2622 C 0.17861 0.90429 0.50412 0.0
C2623 C 0.19058 0.90286 0.48804 0.0
C2624 C 0.16323 0.91668 0.50404 0.0
C2625 C 0.13029 0.94303 0.47588 0.0
H2626 H 0.13347 0.98239 0.51805 0.0
C2627 C 0.06881 -0.00713 0.48928 0.0
C2628 C 0.06217 0.99076 0.50816 0.0
C2629 C 0.08745 0.98846 0.48476 0.0
C2630 C 0.1324 0.97158 0.50615 0.0
H2631 H 0.19466 0.91151 0.45855 0.0
H2632 H 0.16743 0.93294 0.4584 0.0
H2633 H 0.15813 0.95814 0.51393 0.0
H2634 H 0.07035 0.986 0.53764 0.0
H2635 H 0.10255 0.97819 0.52987 0.0
H2636 H 0.10399 0.95549 0.46879 0.0
C2637 C 0.17029 0.92478 0.47112 0.0
C2638 C 0.14645 0.95769 0.50386 0.0
C2639 C 0.18584 0.91256 0.47126 0.0
C2640 C 0.07505 0.98729 0.52288 0.0
C2641 C 0.09361 0.98292 0.5184 0.0
C2642 C 0.11604 0.95675 0.47834 0.0
C2643 C 0.15943 0.92757 0.48782 0.0
C2644 C 0.14523 0.94302 0.48904 0.0
C2645 C 0.0996 0.98202 0.49908 0.0
C2646 C 0.11667 0.97082 0.49386 0.0
H2647 H 0.18171 0.89678 0.51717 0.0
H2648 H 0.15473 0.91837 0.51694 0.0
H2649 H 0.12917 0.93186 0.46431 0.0
H2650 H 0.05922 -0.00416 0.47767 0.0
H2651 H 0.09187 0.98848 0.46983 0.0
C2652 C 0.36855 0.9444 0.76439 0.0
C2653 C 0.35646 0.96015 0.76209 0.0
C2654 C 0.36211 0.92504 0.76032 0.0
C2655 C 0.31723 0.89777 0.76036 0.0
H2656 H 0.34657 0.85306 0.74258 0.0
C2657 C 0.28922 0.82217 0.77447 0.0
C2658 C 0.2875 0.8094 0.75819 0.0
C2659 C 0.30159 0.83835 0.77431 0.0
C2660 C 0.33825 0.86545 0.74752 0.0
H2661 H 0.32905 0.96874 0.75241 0.0
H2662 H 0.31785 0.93506 0.74483 0.0
H2663 H 0.35977 0.8867 0.74046 0.0
H2664 H 0.2983 0.80222 0.72966 0.0
H2665 H 0.31969 0.83105 0.72912 0.0
H2666 H 0.29568 0.87696 0.76719 0.0
C2667 C 0.33204 0.93738 0.75029 0.0
C2668 C 0.3458 0.88465 0.74638 0.0
C2669 C 0.33839 0.95662 0.75459 0.0
C2670 C 0.29962 0.81186 0.74245 0.0
C2671 C 0.31178 0.82837 0.74213 0.0
C2672 C 0.30978 0.87878 0.76149 0.0
C2673 C 0.34356 0.92131 0.7538 0.0
C2674 C 0.3354 0.90098 0.75304 0.0
C2675 C 0.31198 0.84237 0.75764 0.0
C2676 C 0.32032 0.86237 0.75555 0.0
H2677 H 0.38266 0.94702 0.76997 0.0
H2678 H 0.3713 0.913 0.76324 0.0
H2679 H 0.30888 0.90991 0.76585 0.0
H2680 H 0.27996 0.82049 0.78672 0.0
H2681 H 0.30188 0.84862 0.78669 0.0
C2682 C 0.31417 0.09849 0.98166 0.0
C2683 C 0.29872 0.0937 -0.00674 0.0
C2684 C 0.33107 0.0887 0.98355 0.0
C2685 C 0.34856 0.04209 0.00143 0.0
H2686 H 0.39763 0.06691 -0.00545 0.0
C2687 C 0.41861 0.01135 0.02614 0.0
C2688 C 0.43418 0.01288 0.01381 0.0
C2689 C 0.40142 0.01905 0.02105 0.0
C2690 C 0.38397 0.05976 -0.00385 0.0
H2691 H 0.28904 0.07635 0.01695 0.0
H2692 H 0.31882 0.05989 0.02091 0.0
H2693 H 0.36947 0.08664 -0.00719 0.0
H2694 H 0.44379 0.0224 0.98597 0.0
H2695 H 0.4136 0.03636 0.97724 0.0
H2696 H 0.36325 0.0154 0.00562 0.0
C2697 C 0.3177 0.07049 0.00976 0.0
C2698 C 0.36787 0.07104 -0.00477 0.0
C2699 C 0.30072 0.07999 0.00761 0.0
C2700 C 0.43201 0.02118 -0.00422 0.0
C2701 C 0.41483 0.02918 0.99081 0.0
C2702 C 0.36468 0.03089 0.00259 0.0
C2703 C 0.33284 0.07423 -0.0027 0.0
C2704 C 0.35 0.06235 -0.00194 0.0
C2705 C 0.3996 0.0286 0.00366 0.0
C2706 C 0.38249 0.03969 0.00011 0.0
H2707 H 0.3129 0.10902 0.97046 0.0
H2708 H 0.34243 0.09187 0.97367 0.0
H2709 H 0.33498 0.03483 0.00318 0.0
H2710 H 0.41985 0.00479 0.04003 0.0
H2711 H 0.38986 0.01851 0.03121 0.0
C2712 C 0.67728 0.54419 0.75096 0.0
C2713 C 0.65801 0.54327 0.75508 0.0
C2714 C 0.68521 0.56091 0.7428 0.0
C2715 C 0.67253 0.61033 0.72367 0.0
H2716 H 0.72172 0.62513 0.74434 0.0
C2717 C 0.72641 0.68146 0.73755 0.0
C2718 C 0.71764 0.68956 0.75407 0.0
C2719 C 0.71859 0.66462 0.72805 0.0
C2720 C 0.7082 0.62102 0.73796 0.0
H2721 H 0.63169 0.55845 0.75365 0.0
H2722 H 0.64557 0.58837 0.74114 0.0
H2723 H 0.70981 0.59186 0.74761 0.0
H2724 H 0.69319 0.68813 0.77253 0.0
H2725 H 0.67908 0.6593 0.75544 0.0
H2726 H 0.67031 0.64066 0.71641 0.0
C2727 C 0.65466 0.57605 0.74318 0.0
C2728 C 0.70127 0.60183 0.7398 0.0
C2729 C 0.64666 0.55905 0.7507 0.0
C2730 C 0.7 0.68219 0.75965 0.0
C2731 C 0.69194 0.66577 0.74985 0.0
C2732 C 0.67927 0.62976 0.72242 0.0
C2733 C 0.67412 0.57736 0.73927 0.0
C2734 C 0.68297 0.5964 0.73347 0.0
C2735 C 0.70172 0.65619 0.73475 0.0
C2736 C 0.69688 0.63534 0.73018 0.0
H2737 H 0.68615 0.53187 0.75383 0.0
H2738 H 0.70009 0.56094 0.73951 0.0
H2739 H 0.6587 0.60661 0.7179 0.0
H2740 H 0.7402 0.6868 0.73327 0.0
H2741 H 0.72644 0.65726 0.71659 0.0
C2742 C 0.81114 0.3993 0.01662 0.0
C2743 C 0.79593 0.406 0.00603 0.0
C2744 C 0.82949 0.40447 0.01169 0.0
C2745 C 0.85806 0.41912 0.97072 0.0
H2746 H 0.89472 0.434 0.01034 0.0
C2747 C 0.92703 0.4624 0.96091 0.0
C2748 C 0.94116 0.4605 0.97479 0.0
C2749 C 0.91123 0.44984 0.96066 0.0
C2750 C 0.88481 0.42933 -0.00089 0.0
H2751 H 0.78773 0.42401 0.98252 0.0
H2752 H 0.82012 0.43323 0.97384 0.0
H2753 H 0.86237 0.42719 0.01939 0.0
H2754 H 0.95108 0.44271 -0.00237 0.0
H2755 H 0.92387 0.42027 -0.00322 0.0
H2756 H 0.88059 0.42196 0.95037 0.0
C2757 C 0.81775 0.42376 0.98582 0.0
C2758 C 0.86621 0.42565 0.00431 0.0
C2759 C 0.79928 0.41871 0.99091 0.0
C2760 C 0.94062 0.44421 0.98653 0.0
C2761 C 0.92484 0.43159 0.98625 0.0
C2762 C 0.87677 0.42287 0.96548 0.0
C2763 C 0.83301 0.41638 -0.00401 0.0
C2764 C 0.85263 0.42063 0.99019 0.0
C2765 C 0.90935 0.43537 0.97444 0.0
C2766 C 0.8903 0.42813 0.97965 0.0
H2767 H 0.80887 0.38958 0.02843 0.0
H2768 H 0.84096 0.39855 0.01976 0.0
H2769 H 0.84787 0.41498 0.95958 0.0
H2770 H 0.92723 0.4749 0.95169 0.0
H2771 H 0.8996 0.45307 0.95129 0.0
C2772 C 0.32051 0.04343 0.72879 0.0
C2773 C 0.3219 0.04221 0.74891 0.0
C2774 C 0.3087 0.05708 0.7209 0.0
C2775 C 0.30604 0.10131 0.71865 0.0
H2776 H 0.25712 0.12144 0.73267 0.0
C2777 C 0.27243 0.17924 0.74394 0.0
C2778 C 0.28166 0.19193 0.73139 0.0
C2779 C 0.2733 0.15888 0.74088 0.0
C2780 C 0.27085 0.11603 0.72867 0.0
H2781 H 0.30983 0.05189 0.77633 0.0
H2782 H 0.28933 0.07585 0.76249 0.0
H2783 H 0.26354 0.08656 0.73645 0.0
H2784 H 0.29863 0.19335 0.7055 0.0
H2785 H 0.29977 0.15773 0.69984 0.0
H2786 H 0.31422 0.13079 0.7128 0.0
C2787 C 0.29739 0.06633 0.75286 0.0
C2788 C 0.27438 0.09605 0.7306 0.0
C2789 C 0.30926 0.05271 0.76079 0.0
C2790 C 0.29161 0.18389 0.71557 0.0
C2791 C 0.29221 0.16348 0.71231 0.0
C2792 C 0.30268 0.12129 0.71711 0.0
C2793 C 0.29807 0.06955 0.73302 0.0
C2794 C 0.29222 0.08873 0.72623 0.0
C2795 C 0.28316 0.15072 0.72501 0.0
C2796 C 0.2853 0.12905 0.72286 0.0
H2797 H 0.32972 0.03511 0.71924 0.0
H2798 H 0.30925 0.05923 0.70553 0.0
H2799 H 0.32005 0.09607 0.71549 0.0
H2800 H 0.26472 0.18505 0.7563 0.0
H2801 H 0.26661 0.14958 0.75129 0.0
C2802 C 0.16908 0.93145 0.23473 0.0
C2803 C 0.17246 0.94143 0.25259 0.0
C2804 C 0.1728 0.9114 0.23232 0.0
C2805 C 0.17582 0.86815 0.26214 0.0
H2806 H 0.19907 0.84325 0.21726 0.0
C2807 C 0.22561 0.80529 0.25871 0.0
C2808 C 0.22682 0.79448 0.2412 0.0
C2809 C 0.2105 0.81776 0.26195 0.0
C2810 C 0.19195 0.84985 0.22965 0.0
H2811 H 0.18484 0.93886 0.28101 0.0
H2812 H 0.19156 0.9041 0.27662 0.0
H2813 H 0.19306 0.87833 0.21766 0.0
H2814 H 0.21242 0.78533 0.21476 0.0
H2815 H 0.18608 0.80733 0.22029 0.0
H2816 H 0.17605 0.83979 0.27463 0.0
C2817 C 0.18532 0.91157 0.26478 0.0
C2818 C 0.1887 0.86999 0.22992 0.0
C2819 C 0.18172 0.93158 0.26715 0.0
C2820 C 0.21163 0.79379 0.22831 0.0
C2821 C 0.19658 0.80627 0.23151 0.0
C2822 C 0.17923 0.84799 0.26194 0.0
C2823 C 0.17997 0.90111 0.24773 0.0
C2824 C 0.18128 0.87944 0.24645 0.0
C2825 C 0.19688 0.81964 0.24747 0.0
C2826 C 0.18793 0.83885 0.24594 0.0
H2827 H 0.16222 0.93869 0.22311 0.0
H2828 H 0.16891 0.90372 0.21887 0.0
H2829 H 0.16955 0.87506 0.27487 0.0
H2830 H 0.23728 0.80584 0.26879 0.0
H2831 H 0.21098 0.82788 0.27444 0.0
C2832 C 0.49874 0.30852 0.39024 0.0
C2833 C 0.49136 0.29243 0.40008 0.0
C2834 C 0.49801 0.32761 0.3986 0.0
C2835 C 0.49227 0.35574 0.4447 0.0
H2836 H 0.47382 0.39648 0.41246 0.0
C2837 C 0.48608 0.4335 0.47631 0.0
C2838 C 0.49748 0.44646 0.46602 0.0
C2839 C 0.47982 0.41563 0.46754 0.0
C2840 C 0.47888 0.38521 0.42164 0.0
H2841 H 0.47866 0.28342 0.42679 0.0
H2842 H 0.47778 0.31661 0.44153 0.0
H2843 H 0.47694 0.36281 0.39901 0.0
H2844 H 0.50955 0.45243 0.43824 0.0
H2845 H 0.49826 0.42155 0.42269 0.0
H2846 H 0.49468 0.37813 0.46718 0.0
C2847 C 0.48388 0.31459 0.4273 0.0
C2848 C 0.48085 0.36602 0.41391 0.0
C2849 C 0.48436 0.29559 0.41886 0.0
C2850 C 0.50061 0.44261 0.44632 0.0
C2851 C 0.49417 0.42491 0.43747 0.0
C2852 C 0.4903 0.37489 0.45242 0.0
C2853 C 0.49016 0.33086 0.41704 0.0
C2854 C 0.48783 0.35116 0.4253 0.0
C2855 C 0.48486 0.41068 0.44837 0.0
C2856 C 0.48382 0.3899 0.4409 0.0
H2857 H 0.50412 0.30651 0.37571 0.0
H2858 H 0.50324 0.33987 0.3905 0.0
H2859 H 0.49781 0.34464 0.45378 0.0
H2860 H 0.48372 0.43618 0.49161 0.0
H2861 H 0.47239 0.40505 0.47617 0.0
C2862 C 0.45082 0.73123 0.17346 0.0
C2863 C 0.44996 0.74427 0.15829 0.0
C2864 C 0.43437 0.72493 0.1825 0.0
C2865 C 0.39341 0.74815 0.19709 0.0
H2866 H 0.37142 0.69801 0.21135 0.0
C2867 C 0.31867 0.72544 0.22443 0.0
C2868 C 0.31638 0.7415 0.23754 0.0
C2869 C 0.33662 0.71985 0.21873 0.0
C2870 C 0.37764 0.71206 0.20762 0.0
H2871 H 0.43128 0.75951 0.1395 0.0
H2872 H 0.40256 0.74886 0.15568 0.0
H2873 H 0.3987 0.69864 0.18937 0.0
H2874 H 0.33053 0.76309 0.25652 0.0
H2875 H 0.36217 0.75293 0.24704 0.0
H2876 H 0.37267 0.7618 0.21477 0.0
C2877 C 0.41596 0.74346 0.16041 0.0
C2878 C 0.39304 0.71239 0.19504 0.0
C2879 C 0.43237 0.74964 0.15129 0.0
C2880 C 0.33212 0.75065 0.2464 0.0
C2881 C 0.35011 0.74483 0.24096 0.0
C2882 C 0.37837 0.74783 0.20975 0.0
C2883 C 0.41696 0.73175 0.17656 0.0
C2884 C 0.40072 0.73051 0.18948 0.0
C2885 C 0.35245 0.73036 0.22606 0.0
C2886 C 0.37019 0.72985 0.21505 0.0
H2887 H 0.46422 0.72656 0.17889 0.0
H2888 H 0.43538 0.71601 0.19502 0.0
H2889 H 0.39937 0.76227 0.19319 0.0
H2890 H 0.30658 0.71852 0.21716 0.0
H2891 H 0.33796 0.70879 0.20713 0.0
C2892 C -0.00012 0.69122 0.9237 0.0
C2893 C 0.00813 0.6964 0.90618 0.0
C2894 C 0.0052 0.6741 0.93253 0.0
C2895 C 0.02884 0.63539 0.94552 0.0
H2896 H -0.00776 0.59971 0.92025 0.0
C2897 C 0.00106 0.55415 0.96495 0.0
C2898 C 0.98356 0.55795 0.9737 0.0
C2899 C 0.01079 0.56917 0.95548 0.0
C2900 C 0.00304 0.60921 0.92696 0.0
H2901 H 0.02982 0.68888 0.88528 0.0
H2902 H 0.03849 0.65845 0.90043 0.0
H2903 H -0.00123 0.632 0.90716 0.0
H2904 H 0.96296 0.5805 0.98004 0.0
H2905 H 0.97984 0.60629 0.96368 0.0
H2906 H 0.03188 0.613 0.96625 0.0
C2907 C 0.0282 0.66788 0.9074 0.0
C2908 C 0.00669 0.62765 0.91957 0.0
C2909 C 0.02314 0.68523 0.89873 0.0
C2910 C 0.97627 0.57698 0.97328 0.0
C2911 C 0.98593 0.59181 0.964 0.0
C2912 C 0.02529 0.61674 0.95286 0.0
C2913 C 0.01868 0.66183 0.92388 0.0
C2914 C 0.01903 0.64112 0.92921 0.0
C2915 C 0.00309 0.588 0.95487 0.0
C2916 C 0.0118 0.60391 0.94401 0.0
H2917 H 0.98844 0.69965 0.92989 0.0
H2918 H -0.00241 0.66953 0.94517 0.0
H2919 H 0.03827 0.64571 0.95321 0.0
H2920 H 0.00699 0.5396 0.96511 0.0
H2921 H 0.02402 0.56602 0.94839 0.0
C2922 C 0.0589 0.25383 0.68078 0.0
C2923 C 0.05192 0.25298 0.66183 0.0
C2924 C 0.07751 0.24903 0.68444 0.0
C2925 C 0.11839 0.22264 0.66559 0.0
H2926 H 0.14653 0.2615 0.69714 0.0
C2927 C 0.18744 0.21181 0.70794 0.0
C2928 C 0.19965 0.2283 0.71011 0.0
C2929 C 0.1714 0.21257 0.69636 0.0
C2930 C 0.13897 0.25065 0.68805 0.0
H2931 H 0.05873 0.24573 0.63193 0.0
H2932 H 0.09134 0.2373 0.63842 0.0
H2933 H 0.1136 0.2669 0.69004 0.0
H2934 H 0.20547 0.25786 0.70103 0.0
H2935 H 0.17803 0.25895 0.68017 0.0
H2936 H 0.14386 0.20611 0.66419 0.0
C2937 C 0.08236 0.24172 0.65037 0.0
C2938 C 0.12004 0.25362 0.68423 0.0
C2939 C 0.06378 0.24672 0.64667 0.0
C2940 C 0.19679 0.24466 0.69891 0.0
C2941 C 0.18081 0.24543 0.68733 0.0
C2942 C 0.13738 0.21951 0.66967 0.0
C2943 C 0.08946 0.24312 0.66925 0.0
C2944 C 0.10955 0.23964 0.67305 0.0
C2945 C 0.16735 0.22994 0.68703 0.0
C2946 C 0.14783 0.23356 0.68089 0.0
H2947 H 0.05007 0.25842 0.69279 0.0
H2948 H 0.08262 0.25003 0.69916 0.0
H2949 H 0.11052 0.21161 0.65699 0.0
H2950 H 0.18924 0.19917 0.71674 0.0
H2951 H 0.16123 0.20044 0.69643 0.0
C2952 C 0.48165 0.6902 0.08704 0.0
C2953 C 0.48724 0.69881 0.1049 0.0
C2954 C 0.48687 0.67107 0.08179 0.0
C2955 C 0.49883 0.62383 0.09935 0.0
H2956 H 0.52327 0.6168 0.04969 0.0
C2957 C 0.49597 0.55306 0.05115 0.0
C2958 C 0.51042 0.55014 0.03766 0.0
C2959 C 0.49712 0.56893 0.0646 0.0
C2960 C 0.51686 0.61844 0.0638 0.0
H2961 H 0.50202 0.69415 0.1316 0.0
H2962 H 0.5107 0.66022 0.12255 0.0
H2963 H 0.51659 0.64981 0.06222 0.0
H2964 H 0.53817 0.55975 0.02876 0.0
H2965 H 0.54063 0.58698 0.05283 0.0
H2966 H 0.49841 0.59229 0.10053 0.0
C2967 C 0.50256 0.66847 0.11258 0.0
C2968 C 0.51282 0.63736 0.07081 0.0
C2969 C 0.4977 0.68782 0.11767 0.0
C2970 C 0.5269 0.56182 0.0391 0.0
C2971 C 0.5282 0.57745 0.05275 0.0
C2972 C 0.50272 0.60477 0.09223 0.0
C2973 C 0.49742 0.6601 0.09449 0.0
C2974 C 0.50341 0.64018 0.08839 0.0
C2975 C 0.5128 0.58197 0.06473 0.0
C2976 C 0.51147 0.60188 0.07418 0.0
H2977 H 0.47363 0.69844 0.07695 0.0
H2978 H 0.48268 0.66481 0.06779 0.0
H2979 H 0.49153 0.62576 0.11297 0.0
H2980 H 0.48299 0.54443 0.04999 0.0
H2981 H 0.48495 0.57206 0.07352 0.0
C2982 C 0.07022 0.74458 0.84382 0.0
C2983 C 0.05738 0.73601 0.83037 0.0
C2984 C 0.08955 0.74401 0.84031 0.0
C2985 C 0.12554 0.71902 0.80966 0.0
H2986 H 0.1539 0.76778 0.81955 0.0
C2987 C 0.18893 0.74513 0.76647 0.0
C2988 C 0.20109 0.75938 0.77515 0.0
C2989 C 0.17495 0.73614 0.77743 0.0
C2990 C 0.14643 0.75381 0.81718 0.0
H2991 H 0.05474 0.7203 0.80259 0.0
H2992 H 0.08842 0.71979 0.79625 0.0
H2993 H 0.12152 0.76537 0.82999 0.0
H2994 H 0.21025 0.77364 0.80206 0.0
H2995 H 0.18621 0.75748 0.82145 0.0
H2996 H 0.15039 0.70791 0.79588 0.0
C2997 C 0.08359 0.7265 0.80974 0.0
C2998 C 0.12775 0.75248 0.82311 0.0
C2999 C 0.06427 0.72699 0.81328 0.0
C3000 C 0.20079 0.76276 0.79517 0.0
C3001 C 0.18701 0.75359 0.80618 0.0
C3002 C 0.1443 0.72037 0.80365 0.0
C3003 C 0.09646 0.73495 0.82324 0.0
C3004 C 0.11693 0.73528 0.81898 0.0
C3005 C 0.17307 0.74139 0.79716 0.0
C3006 C 0.15479 0.73799 0.80691 0.0
H3007 H 0.06536 0.75154 0.85718 0.0
H3008 H 0.0991 0.75056 0.85106 0.0
H3009 H 0.11764 0.70542 0.80659 0.0
H3010 H 0.18904 0.74243 0.75098 0.0
H3011 H 0.1645 0.72676 0.77002 0.0
C3012 C 0.98398 0.29348 0.56123 0.0
C3013 C -0.00359 0.28782 0.57566 0.0
C3014 C -0.01079 0.3085 0.54903 0.0
C3015 C 0.014 0.3533 0.55857 0.0
H3016 H -0.00027 0.36675 0.50698 0.0
C3017 C 0.01062 0.43419 0.53908 0.0
C3018 C -0.00421 0.43917 0.52708 0.0
C3019 C 0.01482 0.41445 0.54128 0.0
C3020 C 0.00367 0.36324 0.52148 0.0
H3021 H 0.02515 0.29084 0.58625 0.0
H3022 H 0.03406 0.3172 0.56515 0.0
H3023 H 0.00087 0.33205 0.51513 0.0
H3024 H 0.97373 0.4279 0.50787 0.0
H3025 H 0.98002 0.39334 0.51282 0.0
H3026 H 0.01519 0.38404 0.56569 0.0
C3027 C 0.02021 0.3103 0.56354 0.0
C3028 C 0.00454 0.34339 0.52602 0.0
C3029 C 0.01503 0.29531 0.57571 0.0
C3030 C 0.98519 0.42426 0.51729 0.0
C3031 C -0.01098 0.40449 0.51992 0.0
C3032 C 0.01276 0.37301 0.55419 0.0
C3033 C 0.00689 0.31799 0.55116 0.0
C3034 C 0.00942 0.33831 0.54471 0.0
C3035 C 0.0039 0.39931 0.53194 0.0
C3036 C 0.00722 0.37829 0.53572 0.0
H3037 H 0.96968 0.28764 0.56048 0.0
H3038 H 0.97871 0.31409 0.53948 0.0
H3039 H 0.01733 0.34982 0.57325 0.0
H3040 H 0.01926 0.44558 0.54635 0.0
H3041 H 0.02667 0.41109 0.55028 0.0
C3042 C 0.44883 0.26461 0.31752 0.0
C3043 C 0.45086 0.25404 0.3344 0.0
C3044 C 0.43135 0.26507 0.30825 0.0
C3045 C 0.39263 0.23192 0.29979 0.0
H3046 H 0.35996 0.27502 0.28878 0.0
C3047 C 0.31369 0.22113 0.29124 0.0
C3048 C 0.30383 0.23177 0.27775 0.0
C3049 C 0.33293 0.22448 0.29402 0.0
C3050 C 0.36915 0.26288 0.29136 0.0
H3051 H 0.43582 0.23737 0.35576 0.0
H3052 H 0.40553 0.23816 0.33958 0.0
H3053 H 0.39129 0.28212 0.30281 0.0
H3054 H 0.3066 0.25381 0.25606 0.0
H3055 H 0.34038 0.25971 0.26108 0.0
H3056 H 0.37063 0.21261 0.28891 0.0
C3057 C 0.41748 0.24584 0.33344 0.0
C3058 C 0.38696 0.26697 0.29944 0.0
C3059 C 0.43483 0.24544 0.3427 0.0
C3060 C 0.3138 0.24535 0.26658 0.0
C3061 C 0.3331 0.24884 0.26951 0.0
C3062 C 0.37501 0.22786 0.29165 0.0
C3063 C 0.41579 0.25492 0.31576 0.0
C3064 C 0.39845 0.25142 0.30439 0.0
C3065 C 0.34278 0.23859 0.28345 0.0
C3066 C 0.36277 0.24323 0.28811 0.0
H3067 H 0.46092 0.27154 0.31087 0.0
H3068 H 0.43026 0.27224 0.29465 0.0
H3069 H 0.40149 0.21974 0.30318 0.0
H3070 H 0.30647 0.21057 0.30006 0.0
H3071 H 0.33995 0.21654 0.30506 0.0
C3072 C 0.4208 0.472 0.29483 0.0
C3073 C 0.40283 0.48029 0.29459 0.0
C3074 C 0.43115 0.47225 0.31198 0.0
C3075 C 0.43874 0.50618 0.35023 0.0
H3076 H 0.45417 0.46659 0.38526 0.0
C3077 C 0.44876 0.52154 0.43059 0.0
C3078 C 0.46285 0.51185 0.44043 0.0
C3079 C 0.44608 0.51776 0.41089 0.0
C3080 C 0.45037 0.47777 0.37536 0.0
H3081 H 0.38066 0.49282 0.31243 0.0
H3082 H 0.39871 0.49324 0.34214 0.0
H3083 H 0.43946 0.45631 0.35434 0.0
H3084 H 0.48596 0.49151 0.43712 0.0
H3085 H 0.48108 0.48486 0.40268 0.0
H3086 H 0.44884 0.52768 0.37133 0.0
C3087 C 0.40485 0.4869 0.32907 0.0
C3088 C 0.44193 0.47186 0.35781 0.0
C3089 C 0.39456 0.48668 0.31204 0.0
C3090 C 0.4749 0.49917 0.42997 0.0
C3091 C 0.4721 0.49527 0.41028 0.0
C3092 C 0.44719 0.51207 0.36766 0.0
C3093 C 0.42349 0.48065 0.32891 0.0
C3094 C 0.43547 0.4861 0.34555 0.0
C3095 C 0.45738 0.50416 0.4007 0.0
C3096 C 0.45239 0.49794 0.38071 0.0
H3097 H 0.42745 0.46683 0.28159 0.0
H3098 H 0.44554 0.46731 0.31171 0.0
H3099 H 0.43396 0.51733 0.34075 0.0
H3100 H 0.43933 0.53146 0.43822 0.0
H3101 H 0.4345 0.5247 0.40387 0.0
C3102 C 0.25608 0.63079 0.05284 0.0
C3103 C 0.26106 0.6448 0.03933 0.0
C3104 C 0.25042 0.63694 0.07136 0.0
C3105 C 0.23043 0.67874 0.09849 0.0
H3106 H 0.26082 0.66357 0.14161 0.0
C3107 C 0.24619 0.72946 0.16364 0.0
C3108 C 0.24738 0.7218 0.18205 0.0
C3109 C 0.24273 0.71697 0.14756 0.0
C3110 C 0.25184 0.66754 0.12984 0.0
H3111 H 0.26363 0.67588 0.03392 0.0
H3112 H 0.2532 0.68672 0.06614 0.0
H3113 H 0.26448 0.64664 0.11011 0.0
H3114 H 0.24524 0.69519 0.1982 0.0
H3115 H 0.23965 0.67317 0.16985 0.0
H3116 H 0.21844 0.70028 0.11791 0.0
C3117 C 0.25387 0.67106 0.06257 0.0
C3118 C 0.25397 0.65789 0.11184 0.0
C3119 C 0.26 0.66492 0.04429 0.0
C3120 C 0.24446 0.70146 0.18415 0.0
C3121 C 0.24127 0.68888 0.16798 0.0
C3122 C 0.22824 0.68832 0.11646 0.0
C3123 C 0.24912 0.65713 0.07627 0.0
C3124 C 0.24387 0.66404 0.09589 0.0
C3125 C 0.24059 0.69654 0.14953 0.0
C3126 C 0.23954 0.6834 0.13206 0.0
H3127 H 0.25685 0.61517 0.04913 0.0
H3128 H 0.24693 0.626 0.08178 0.0
H3129 H 0.2223 0.68349 0.08638 0.0
H3130 H 0.24822 0.7451 0.16159 0.0
H3131 H 0.24255 0.72325 0.13347 0.0
C3132 C 0.09408 0.50935 0.81431 0.0
C3133 C 0.08777 0.51471 0.79614 0.0
C3134 C 0.08284 0.51277 0.83049 0.0
C3135 C 0.0486 0.53134 0.85885 0.0
H3136 H 0.02304 0.48007 0.857 0.0
C3137 C 0.00633 0.5063 0.92298 0.0
C3138 C 0.01517 0.48985 0.93026 0.0
C3139 C 0.00926 0.51122 0.90391 0.0
C3140 C 0.02972 0.49458 0.85748 0.0
H3141 H 0.06633 0.53037 0.781 0.0
H3142 H 0.04651 0.53576 0.80935 0.0
H3143 H 0.04285 0.48969 0.83003 0.0
H3144 H 0.03189 0.46426 0.92288 0.0
H3145 H 0.03696 0.47284 0.88964 0.0
H3146 H 0.03642 0.5358 0.88682 0.0
C3147 C 0.06007 0.52902 0.81096 0.0
C3148 C 0.04102 0.50004 0.84217 0.0
C3149 C 0.07134 0.52575 0.7948 0.0
C3150 C 0.02522 0.47723 0.91771 0.0
C3151 C 0.02795 0.48203 0.89863 0.0
C3152 C 0.03714 0.52595 0.87416 0.0
C3153 C 0.06532 0.52157 0.82858 0.0
C3154 C 0.05098 0.5181 0.84314 0.0
C3155 C 0.02079 0.49958 0.8919 0.0
C3156 C 0.02826 0.5072 0.87388 0.0
H3157 H 0.1068 0.50106 0.81581 0.0
H3158 H 0.08697 0.50686 0.84409 0.0
H3159 H 0.05632 0.54529 0.85973 0.0
H3160 H -0.00172 0.51614 0.9323 0.0
H3161 H 0.00349 0.52472 0.89889 0.0
C3162 C 0.21677 0.33812 0.56927 0.0
C3163 C 0.22711 0.32895 0.55431 0.0
C3164 C 0.21289 0.3282 0.58609 0.0
C3165 C 0.23557 0.28899 0.61219 0.0
H3166 H 0.20096 0.30538 0.65269 0.0
C3167 C 0.24263 0.26296 0.68836 0.0
C3168 C 0.25365 0.27773 0.69784 0.0
C3169 C 0.23201 0.26735 0.67225 0.0
C3170 C 0.2105 0.30053 0.64138 0.0
H3171 H 0.23904 0.30147 0.54388 0.0
H3172 H 0.23099 0.28361 0.57255 0.0
H3173 H 0.19481 0.31396 0.61929 0.0
H3174 H 0.26145 0.30873 0.69916 0.0
H3175 H 0.24228 0.31659 0.67118 0.0
H3176 H 0.25123 0.27571 0.6343 0.0
C3177 C 0.22689 0.29883 0.57193 0.0
C3178 C 0.20712 0.30551 0.62231 0.0
C3179 C 0.23132 0.30895 0.55538 0.0
C3180 C 0.25273 0.29725 0.69216 0.0
C3181 C 0.24176 0.30172 0.67629 0.0
C3182 C 0.23867 0.28373 0.63104 0.0
C3183 C 0.2189 0.30877 0.58807 0.0
C3184 C 0.21997 0.30032 0.60754 0.0
C3185 C 0.23203 0.28661 0.66576 0.0
C3186 C 0.22648 0.28988 0.6458 0.0
H3187 H 0.21335 0.35356 0.5688 0.0
H3188 H 0.20669 0.33645 0.59807 0.0
H3189 H 0.24614 0.28511 0.60157 0.0
H3190 H 0.24356 0.24774 0.6923 0.0
H3191 H 0.2249 0.25546 0.66404 0.0
C3192 C 0.41077 0.52379 0.18109 0.0
C3193 C 0.4 0.50783 0.18769 0.0
C3194 C 0.41617 0.52427 0.16181 0.0
C3195 C 0.40756 0.50006 0.11326 0.0
H3196 H 0.45982 0.51503 0.10505 0.0
C3197 C 0.45688 0.46606 0.05685 0.0
C3198 C 0.4708 0.47805 0.04871 0.0
C3199 C 0.44367 0.47427 0.0695 0.0
C3200 C 0.44505 0.51129 0.10697 0.0
H3201 H 0.38619 0.48001 0.17922 0.0
H3202 H 0.3961 0.48051 0.14568 0.0
H3203 H 0.44602 0.52035 0.13671 0.0
H3204 H 0.48132 0.50793 0.04637 0.0
H3205 H 0.45853 0.52237 0.06893 0.0
H3206 H 0.40727 0.48958 0.08366 0.0
C3207 C 0.39999 0.49292 0.15527 0.0
C3208 C 0.43711 0.51431 0.12516 0.0
C3209 C 0.39447 0.49252 0.17455 0.0
C3210 C 0.47056 0.49851 0.05229 0.0
C3211 C 0.4576 0.50671 0.06525 0.0
C3212 C 0.41561 0.49679 0.09507 0.0
C3213 C 0.41106 0.50873 0.14871 0.0
C3214 C 0.41845 0.50819 0.12869 0.0
C3215 C 0.44454 0.49452 0.07453 0.0
C3216 C 0.43459 0.50187 0.09196 0.0
H3217 H 0.41518 0.53589 0.19085 0.0
H3218 H 0.4245 0.53678 0.15721 0.0
H3219 H 0.39301 0.49559 0.1154 0.0
H3220 H 0.4568 0.45022 0.05419 0.0
H3221 H 0.43385 0.46452 0.07659 0.0
C3222 C 0.23422 0.6759 0.9475 0.0
C3223 C 0.2527 0.6767 0.95482 0.0
C3224 C 0.22916 0.68799 0.93268 0.0
C3225 C 0.23884 0.72647 0.89992 0.0
H3226 H 0.2433 0.68446 0.86066 0.0
C3227 C 0.25308 0.74006 0.8191 0.0
C3228 C 0.2466 0.72572 0.80536 0.0
C3229 C 0.25034 0.73734 0.83878 0.0
C3230 C 0.24148 0.69639 0.87129 0.0
H3231 H 0.27926 0.69316 0.95469 0.0
H3232 H 0.27036 0.71411 0.92859 0.0
H3233 H 0.24318 0.67666 0.89432 0.0
H3234 H 0.23077 0.69824 0.80116 0.0
H3235 H 0.22516 0.69392 0.83524 0.0
H3236 H 0.23701 0.74627 0.87672 0.0
C3237 C 0.25992 0.70403 0.93427 0.0
C3238 C 0.24154 0.69188 0.8906 0.0
C3239 C 0.26506 0.69184 0.94906 0.0
C3240 C 0.23634 0.70927 0.8115 0.0
C3241 C 0.2332 0.70679 0.83106 0.0
C3242 C 0.23839 0.73103 0.88039 0.0
C3243 C 0.24241 0.70119 0.92515 0.0
C3244 C 0.24036 0.70682 0.90504 0.0
C3245 C 0.24072 0.72042 0.84502 0.0
C3246 C 0.23987 0.716 0.86583 0.0
H3247 H 0.22417 0.66475 0.95193 0.0
H3248 H 0.21557 0.68561 0.92579 0.0
H3249 H 0.23808 0.7382 0.91094 0.0
H3250 H 0.26094 0.75296 0.81468 0.0
H3251 H 0.25645 0.74808 0.84905 0.0
C3252 C 0.07589 0.47482 0.67903 0.0
C3253 C 0.08746 0.48787 0.69014 0.0
C3254 C 0.07063 0.47953 0.66043 0.0
C3255 C 0.08438 0.51208 0.62105 0.0
H3256 H 0.03445 0.49803 0.6018 0.0
C3257 C 0.03848 0.53529 0.55434 0.0
C3258 C 0.03497 0.51873 0.54194 0.0
C3259 C 0.04907 0.53348 0.57108 0.0
C3260 C 0.04843 0.502 0.60711 0.0
H3261 H 0.10206 0.51634 0.69092 0.0
H3262 H 0.09245 0.52476 0.65884 0.0
H3263 H 0.04279 0.49067 0.63481 0.0
H3264 H 0.04121 0.48788 0.5363 0.0
H3265 H 0.0598 0.48488 0.56537 0.0
H3266 H 0.08966 0.5238 0.59323 0.0
C3267 C 0.08796 0.51062 0.66411 0.0
C3268 C 0.05326 0.49768 0.62587 0.0
C3269 C 0.09341 0.50581 0.68253 0.0
C3270 C 0.04406 0.50102 0.54528 0.0
C3271 C 0.05451 0.4992 0.56203 0.0
C3272 C 0.07945 0.51658 0.60231 0.0
C3273 C 0.07666 0.49748 0.65277 0.0
C3274 C 0.07136 0.50249 0.63299 0.0
C3275 C 0.05618 0.51512 0.57544 0.0
C3276 C 0.06153 0.51135 0.59526 0.0
H3277 H 0.07109 0.46092 0.68461 0.0
H3278 H 0.06207 0.46898 0.65197 0.0
H3279 H 0.09851 0.51577 0.62604 0.0
H3280 H 0.03152 0.54905 0.55207 0.0
H3281 H 0.05019 0.54586 0.58143 0.0
C3282 C 0.26515 0.34159 0.44926 0.0
C3283 C 0.2495 0.34364 0.46143 0.0
C3284 C 0.26274 0.33703 0.42961 0.0
C3285 C 0.22608 0.33391 0.39051 0.0
H3286 H 0.26392 0.30245 0.36435 0.0
C3287 C 0.21693 0.28208 0.32276 0.0
C3288 C 0.23178 0.2815 0.30943 0.0
C3289 C 0.2177 0.29521 0.33878 0.0
C3290 C 0.25341 0.31158 0.37136 0.0
H3291 H 0.21909 0.34219 0.4628 0.0
H3292 H 0.2148 0.33281 0.42874 0.0
H3293 H 0.26817 0.31218 0.39806 0.0
H3294 H 0.25829 0.29513 0.30137 0.0
H3295 H 0.2599 0.31785 0.32974 0.0
H3296 H 0.21071 0.3317 0.3638 0.0
C3297 C 0.22896 0.33557 0.43407 0.0
C3298 C 0.25582 0.31722 0.39077 0.0
C3299 C 0.23138 0.34071 0.45367 0.0
C3300 C 0.24657 0.29549 0.31134 0.0
C3301 C 0.24755 0.30835 0.32762 0.0
C3302 C 0.22347 0.32781 0.37114 0.0
C3303 C 0.24462 0.33383 0.42168 0.0
C3304 C 0.24217 0.32839 0.40072 0.0
C3305 C 0.23357 0.30761 0.34192 0.0
C3306 C 0.2371 0.31653 0.36144 0.0
H3307 H 0.27928 0.34416 0.45482 0.0
H3308 H 0.27518 0.33638 0.42062 0.0
H3309 H 0.2154 0.34283 0.39744 0.0
H3310 H 0.20546 0.27131 0.32159 0.0
H3311 H 0.20679 0.29429 0.34963 0.0
C3312 C 0.29769 0.40744 0.48902 0.0
C3313 C 0.29252 0.39743 0.50556 0.0
C3314 C 0.31674 0.41064 0.48469 0.0
C3315 C 0.36529 0.39652 0.49955 0.0
H3316 H 0.37855 0.4496 0.48526 0.0
C3317 C 0.42267 0.45592 0.52308 0.0
C3318 C 0.43655 0.45875 0.50907 0.0
C3319 C 0.40805 0.44223 0.51958 0.0
C3320 C 0.37503 0.43457 0.48884 0.0
H3321 H 0.30303 0.38309 0.5306 0.0
H3322 H 0.3359 0.38939 0.52364 0.0
H3323 H 0.34582 0.43837 0.4835 0.0
H3324 H 0.44701 0.44866 0.48113 0.0
H3325 H 0.42097 0.42491 0.47481 0.0
H3326 H 0.39454 0.39367 0.50659 0.0
C3327 C 0.32552 0.39409 0.51349 0.0
C3328 C 0.3563 0.42808 0.48777 0.0
C3329 C 0.30661 0.39067 0.51763 0.0
C3330 C 0.43662 0.44641 0.49229 0.0
C3331 C 0.42174 0.43295 0.48861 0.0
C3332 C 0.38403 0.40316 0.50088 0.0
C3333 C 0.33089 0.40412 0.49699 0.0
C3334 C 0.35107 0.40927 0.49393 0.0
C3335 C 0.407 0.43148 0.50191 0.0
C3336 C 0.38881 0.42245 0.49615 0.0
H3337 H 0.28706 0.41264 0.4794 0.0
H3338 H 0.32036 0.41831 0.4718 0.0
H3339 H 0.36181 0.38175 0.50392 0.0
H3340 H 0.4223 0.46541 0.53602 0.0
H3341 H 0.39667 0.44132 0.52991 0.0
C3342 C 0.80141 0.07021 0.50513 0.0
C3343 C 0.80248 0.08872 0.49679 0.0
C3344 C 0.81771 0.06068 0.51019 0.0
C3345 C 0.86541 0.05852 0.49225 0.0
H3346 H 0.87005 0.01734 0.52899 0.0
C3347 C 0.9188 0.00215 0.47663 0.0
C3348 C 0.93231 0.00151 0.49126 0.0
C3349 C 0.90083 0.00874 0.48094 0.0
C3350 C 0.86888 0.0288 0.51869 0.0
H3351 H 0.82129 0.11272 0.48917 0.0
H3352 H 0.84988 0.09621 0.4984 0.0
H3353 H 0.84485 0.04134 0.53284 0.0
H3354 H 0.93705 0.00409 0.52207 0.0
H3355 H 0.90576 0.01632 0.5296 0.0
H3356 H 0.88932 0.04635 0.47818 0.0
C3357 C 0.83641 0.08883 0.5005 0.0
C3358 C 0.85454 0.04253 0.52088 0.0
C3359 C 0.82006 0.09831 0.49523 0.0
C3360 C 0.92682 0.00456 0.51057 0.0
C3361 C 0.90891 0.01163 0.51487 0.0
C3362 C 0.87961 0.04491 0.49009 0.0
C3363 C 0.83543 0.0695 0.5071 0.0
C3364 C 0.85242 0.05726 0.50738 0.0
C3365 C 0.89641 0.01531 0.49984 0.0
C3366 C 0.88117 0.02956 0.5029 0.0
H3367 H 0.78802 0.06254 0.50683 0.0
H3368 H 0.81638 0.0458 0.51513 0.0
H3369 H 0.86414 0.06944 0.48142 0.0
H3370 H 0.92273 -0.00036 0.46166 0.0
H3371 H 0.89114 0.01082 0.46918 0.0
C3372 C 0.6674 0.05503 0.25714 0.0
C3373 C 0.65002 0.04735 0.25038 0.0
C3374 C 0.67349 0.07385 0.25223 0.0
C3375 C 0.66292 0.115 0.22017 0.0
H3376 H 0.68699 0.14635 0.2615 0.0
C3377 C 0.7011 0.18916 0.21048 0.0
C3378 C 0.70367 0.20193 0.22674 0.0
C3379 C 0.6903 0.17189 0.21177 0.0
C3380 C 0.67987 0.13797 0.24994 0.0
H3381 H 0.62569 0.05287 0.23269 0.0
H3382 H 0.63585 0.08587 0.22484 0.0
H3383 H 0.67897 0.11207 0.26628 0.0
H3384 H 0.69483 0.2083 0.25616 0.0
H3385 H 0.67515 0.17862 0.25816 0.0
H3386 H 0.66333 0.14118 0.20407 0.0
C3387 C 0.6451 0.07733 0.23345 0.0
C3388 C 0.67571 0.11811 0.25251 0.0
C3389 C 0.6392 0.05841 0.23804 0.0
C3390 C 0.69302 0.19875 0.24338 0.0
C3391 C 0.68207 0.18151 0.24464 0.0
C3392 C 0.66687 0.13497 0.21768 0.0
C3393 C 0.66212 0.08545 0.24081 0.0
C3394 C 0.66725 0.10636 0.23765 0.0
C3395 C 0.68177 0.16725 0.22932 0.0
C3396 C 0.67546 0.14667 0.23252 0.0
H3397 H 0.67613 0.04663 0.26645 0.0
H3398 H 0.68693 0.07944 0.25772 0.0
H3399 H 0.65662 0.10633 0.20832 0.0
H3400 H 0.7091 0.19142 0.19744 0.0
H3401 H 0.69031 0.16135 0.19963 0.0
C3402 C 0.6709 0.90242 0.00791 0.0
C3403 C 0.68246 0.91094 0.02256 0.0
C3404 C 0.65184 0.90686 0.0071 0.0
C3405 C 0.61818 0.94468 0.02285 0.0
H3406 H 0.58196 0.90538 0.00284 0.0
C3407 C 0.54488 0.96703 -0.00018 0.0
C3408 C 0.54368 0.96379 0.97982 0.0
C3409 C 0.55808 0.95705 0.01048 0.0
C3410 C 0.59185 0.9164 0.00876 0.0
H3411 H 0.68306 0.93089 0.04782 0.0
H3412 H 0.64974 0.93848 0.0465 0.0
H3413 H 0.61374 0.89551 0.01104 0.0
H3414 H 0.55324 0.9457 0.95547 0.0
H3415 H 0.57578 0.92774 0.97402 0.0
H3416 H 0.59643 0.96565 0.01997 0.0
C3417 C 0.65544 0.92847 0.03555 0.0
C3418 C 0.61009 0.91084 0.01325 0.0
C3419 C 0.67455 0.9241 0.03632 0.0
C3420 C 0.55422 0.94878 0.97088 0.0
C3421 C 0.56698 0.93837 0.98153 0.0
C3422 C 0.59988 0.95019 0.01857 0.0
C3423 C 0.64384 0.91985 0.02097 0.0
C3424 C 0.62369 0.92507 0.01952 0.0
C3425 C 0.56973 0.94315 0.00122 0.0
C3426 C 0.58683 0.93625 0.01072 0.0
H3427 H 0.67657 0.8923 -0.00297 0.0
H3428 H 0.64344 0.90033 -0.00463 0.0
H3429 H 0.62828 0.95606 0.02754 0.0
H3430 H 0.53654 0.9782 0.00687 0.0
H3431 H 0.55987 0.96087 0.02569 0.0
C3432 C 0.32133 0.44095 0.2674 0.0
C3433 C 0.33645 0.44696 0.2558 0.0
C3434 C 0.31556 0.42114 0.26733 0.0
C3435 C 0.32019 0.37322 0.24031 0.0
H3436 H 0.30612 0.35171 0.28933 0.0
C3437 C 0.29759 0.29466 0.23939 0.0
C3438 C 0.27877 0.29338 0.24523 0.0
C3439 C 0.30908 0.31032 0.24625 0.0
C3440 C 0.31022 0.35751 0.27562 0.0
H3441 H 0.35663 0.43706 0.23422 0.0
H3442 H 0.34687 0.40265 0.23438 0.0
H3443 H 0.31544 0.38654 0.28795 0.0
H3444 H 0.25769 0.30544 0.26451 0.0
H3445 H 0.27755 0.3332 0.27621 0.0
H3446 H 0.31479 0.34446 0.22788 0.0
C3447 C 0.33928 0.41317 0.24339 0.0
C3448 C 0.31531 0.37748 0.27474 0.0
C3449 C 0.34488 0.43297 0.24328 0.0
C3450 C 0.27226 0.30622 0.25994 0.0
C3451 C 0.28366 0.3221 0.26662 0.0
C3452 C 0.31533 0.35332 0.24122 0.0
C3453 C 0.32491 0.40692 0.25581 0.0
C3454 C 0.32004 0.38562 0.25699 0.0
C3455 C 0.3016 0.32513 0.25855 0.0
C3456 C 0.31001 0.34529 0.2588 0.0
H3457 H 0.31441 0.45142 0.27707 0.0
H3458 H 0.30404 0.41693 0.27661 0.0
H3459 H 0.32344 0.37899 0.22636 0.0
H3460 H 0.30282 0.28476 0.22806 0.0
H3461 H 0.32305 0.31206 0.24021 0.0
C3462 C 0.18415 0.60266 -0.00534 0.0
C3463 C 0.19694 0.58746 0.9909 0.0
C3464 C 0.16571 0.59825 0.0003 0.0
C3465 C 0.13051 0.55875 -0.00491 0.0
H3466 H 0.10334 0.58686 0.03584 0.0
C3467 C 0.0627 0.53111 0.0273 0.0
C3468 C 0.04994 0.53385 0.01226 0.0
C3469 C 0.07868 0.54328 0.02943 0.0
C3470 C 0.11083 0.57911 0.02436 0.0
H3471 H 0.20058 0.55579 0.99067 0.0
H3472 H 0.16842 0.54815 0.00038 0.0
H3473 H 0.13669 0.59539 0.02984 0.0
H3474 H 0.0425 0.55246 0.98902 0.0
H3475 H 0.0709 0.57351 -0.0076 0.0
H3476 H 0.10483 0.5425 0.98959 0.0
C3477 C 0.17262 0.56344 -0.00119 0.0
C3478 C 0.12979 0.58391 0.02093 0.0
C3479 C 0.19102 0.56783 -0.00677 0.0
C3480 C 0.05208 0.5503 0.00086 0.0
C3481 C 0.06827 0.5623 0.00279 0.0
C3482 C 0.11166 0.55416 -0.00164 0.0
C3483 C 0.15972 0.57858 0.00218 0.0
C3484 C 0.13978 0.57368 0.00628 0.0
C3485 C 0.08213 0.55809 0.01635 0.0
C3486 C 0.1017 0.56432 0.01292 0.0
H3487 H 0.18833 0.61795 -0.00689 0.0
H3488 H 0.15598 0.61018 0.00264 0.0
H3489 H 0.13779 0.55076 0.9836 0.0
H3490 H 0.06128 0.51837 0.03614 0.0
H3491 H 0.08935 0.53966 0.03978 0.0
C3492 C 0.6567 0.93801 0.23311 0.0
C3493 C 0.66281 0.95528 0.24328 0.0
C3494 C 0.66872 0.92209 0.23103 0.0
C3495 C 0.69958 0.89047 0.22941 0.0
H3496 H 0.70917 0.88122 0.28339 0.0
C3497 C 0.73265 0.81994 0.25522 0.0
C3498 C 0.71962 0.80901 0.266 0.0
C3499 C 0.7297 0.83969 0.25206 0.0
C3500 C 0.70681 0.88378 0.26829 0.0
H3501 H 0.68676 0.97082 0.25653 0.0
H3502 H 0.70778 0.94301 0.25279 0.0
H3503 H 0.69806 0.91327 0.27417 0.0
H3504 H 0.69424 0.8106 0.28332 0.0
H3505 H 0.68933 0.84555 0.27804 0.0
H3506 H 0.7079 0.86064 0.22372 0.0
C3507 C 0.69371 0.94163 0.24679 0.0
C3508 C 0.70064 0.90206 0.26297 0.0
C3509 C 0.68169 0.95744 0.24901 0.0
C3510 C 0.70439 0.81861 0.27483 0.0
C3511 C 0.70161 0.83853 0.27187 0.0
C3512 C 0.70614 0.87226 0.23472 0.0
C3513 C 0.68689 0.92348 0.23902 0.0
C3514 C 0.6966 0.90539 0.24356 0.0
C3515 C 0.71391 0.84891 0.25992 0.0
C3516 C 0.70932 0.86874 0.25423 0.0
H3517 H 0.64217 0.9361 0.22851 0.0
H3518 H 0.66318 0.90815 0.22503 0.0
H3519 H 0.69633 0.89272 0.21443 0.0
H3520 H 0.74468 0.81305 0.2484 0.0
H3521 H 0.7394 0.84761 0.24298 0.0
C3522 C 0.83671 0.0486 0.72413 0.0
C3523 C 0.83526 0.04395 0.74367 0.0
C3524 C 0.82787 0.06514 0.71733 0.0
C3525 C 0.79106 0.10073 0.72764 0.0
H3526 H 0.82641 0.14125 0.71156 0.0
C3527 C 0.79471 0.17983 0.75279 0.0
C3528 C 0.77653 0.18573 0.74834 0.0
C3529 C 0.80324 0.16506 0.74152 0.0
C3530 C 0.81628 0.12991 0.7154 0.0
H3531 H 0.82257 0.05254 0.77112 0.0
H3532 H 0.80701 0.0812 0.75915 0.0
H3533 H 0.83665 0.10708 0.71344 0.0
H3534 H 0.7535 0.1823 0.72802 0.0
H3535 H 0.76807 0.15583 0.70872 0.0
H3536 H 0.77102 0.12359 0.73076 0.0
C3537 C 0.81498 0.07198 0.74913 0.0
C3538 C 0.8221 0.11044 0.71653 0.0
C3539 C 0.82394 0.05559 0.75599 0.0
C3540 C 0.76771 0.17821 0.73143 0.0
C3541 C 0.77602 0.16306 0.72043 0.0
C3542 C 0.78514 0.12002 0.72609 0.0
C3543 C 0.81721 0.07712 0.72987 0.0
C3544 C 0.80979 0.09598 0.72366 0.0
C3545 C 0.79329 0.15553 0.72618 0.0
C3546 C 0.79795 0.13495 0.72093 0.0
H3547 H 0.84522 0.03988 0.7142 0.0
H3548 H 0.82969 0.06882 0.7024 0.0
H3549 H 0.78135 0.0898 0.73314 0.0
H3550 H 0.80164 0.18542 0.76588 0.0
H3551 H 0.81651 0.15942 0.74632 0.0
loop_
_geom_bond_atom_site_label_1
_geom_bond_atom_site_label_2
_geom_bond_distance
_geom_bond_site_symmetry_2
_ccdc_geom_bond_type
Mg0 O1 2.028 . S
Mg0 O7 1.986 . S
Mg0 O9 2.114 1_455 S
Mg0 O10 2.251 1_455 S
Mg0 O13 2.010 . S
O1 Mg0 2.028 . S
O1 C4 1.250 . S
O2 Mg3 2.028 . S
O2 C4 1.248 1_655 S
Mg3 O2 2.028 . S
Mg3 O8 2.032 . S
Mg3 O10 2.079 . S
C4 O1 1.250 . S
C4 O2 1.248 1_455 S
C5 O6 1.264 . S
C5 O13 1.249 . S
O6 C5 1.264 . S
O7 Mg0 1.986 . S
O7 C11 1.246 . S
O8 Mg3 2.032 . S
O8 C11 1.259 1_655 S
O9 Mg0 2.114 1_655 S
O9 C12 1.252 . S
O10 Mg0 2.251 1_655 S
O10 Mg3 2.079 . S
O10 C12 1.273 . S
C11 O7 1.246 . S
C11 O8 1.259 1_455 S
C12 O9 1.252 . S
C12 O10 1.273 . S
O13 Mg0 2.010 . S
O13 C5 1.249 . S
Mg14 O15 2.028 . S
Mg14 O21 1.986 . S
Mg14 O23 2.114 1_455 S
Mg14 O24 2.251 1_455 S
Mg14 O27 2.010 . S
O15 Mg14 2.028 . S
O15 C18 1.250 . S
O16 Mg17 2.028 . S
O16 C18 1.248 1_655 S
Mg17 O16 2.028 . S
Mg17 O22 2.032 . S
Mg17 O24 2.079 . S
C18 O15 1.250 . S
C18 O16 1.248 1_455 S
C19 O20 1.264 . S
C19 O27 1.249 . S
O20 C19 1.264 . S
O21 Mg14 1.986 . S
O21 C25 1.246 . S
O22 Mg17 2.032 . S
O22 C25 1.259 1_655 S
O23 Mg14 2.114 1_655 S
O23 C26 1.252 . S
O24 Mg14 2.251 1_655 S
O24 Mg17 2.079 . S
O24 C26 1.273 . S
C25 O21 1.246 . S
C25 O22 1.259 1_455 S
C26 O23 1.252 . S
C26 O24 1.273 . S
O27 Mg14 2.010 . S
O27 C19 1.249 . S
Mg28 O29 2.028 . S
Mg28 O35 1.986 . S
Mg28 O37 2.114 . S
Mg28 O38 2.251 . S
Mg28 O41 2.010 . S
O29 Mg28 2.028 . S
O29 C32 1.250 . S
O30 Mg31 2.028 . S
O30 C32 1.248 . S
Mg31 O30 2.028 . S
Mg31 O36 2.032 . S
Mg31 O38 2.079 . S
C32 O29 1.250 . S
C32 O30 1.248 . S
C33 O34 1.264 . S
C33 O41 1.249 . S
O34 C33 1.264 . S
O35 Mg28 1.986 . S
O35 C39 1.246 . S
O36 Mg31 2.032 . S
O36 C39 1.259 . S
O37 Mg28 2.114 . S
O37 C40 1.252 . S
O38 Mg28 2.251 . S
O38 Mg31 2.079 . S
O38 C40 1.273 . S
C39 O35 1.246 . S
C39 O36 1.259 . S
C40 O37 1.252 . S
C40 O38 1.273 . S
O41 Mg28 2.010 . S
O41 C33 1.249 . S
Mg42 O43 2.028 . S
Mg42 O49 1.986 . S
Mg42 O51 2.114 . S
Mg42 O52 2.251 . S
Mg42 O55 2.010 . S
O43 Mg42 2.028 . S
O43 C46 1.250 . S
O44 Mg45 2.028 . S
O44 C46 1.248 . S
Mg45 O44 2.028 . S
Mg45 O50 2.032 . S
Mg45 O52 2.079 . S
C46 O43 1.250 . S
C46 O44 1.248 . S
C47 O48 1.264 . S
C47 O55 1.249 . S
O48 C47 1.264 . S
O49 Mg42 1.986 . S
O49 C53 1.246 . S
O50 Mg45 2.032 . S
O50 C53 1.259 . S
O51 Mg42 2.114 . S
O51 C54 1.252 . S
O52 Mg42 2.251 . S
O52 Mg45 2.079 . S
O52 C54 1.273 . S
C53 O49 1.246 . S
C53 O50 1.259 . S
C54 O51 1.252 . S
C54 O52 1.273 . S
O55 Mg42 2.010 . S
O55 C47 1.249 . S
Mg56 O57 2.028 1_565 S
Mg56 O63 1.986 . S
Mg56 O65 2.114 1_565 S
Mg56 O66 2.251 . S
Mg56 O69 2.010 . S
O57 Mg56 2.028 1_545 S
O57 C60 1.250 . S
O58 Mg59 2.040 . S
O58 C60 1.248 . S
Mg59 O58 2.040 . S
Mg59 O64 2.022 1_545 S
Mg59 O66 2.078 1_545 S
C60 O57 1.250 . S
C60 O58 1.248 . S
C61 O62 1.264 . S
C61 O69 1.249 . S
O62 C61 1.264 . S
O63 Mg56 1.986 . S
O63 C67 1.246 . S
O64 Mg59 2.022 1_565 S
O64 C67 1.259 . S
O65 Mg56 2.114 1_545 S
O65 C68 1.252 . S
O66 Mg56 2.251 . S
O66 Mg59 2.078 1_565 S
O66 C68 1.273 1_565 S
C67 O63 1.246 . S
C67 O64 1.259 . S
C68 O65 1.252 . S
C68 O66 1.273 1_545 S
O69 Mg56 2.010 . S
O69 C61 1.249 . S
Mg70 O71 2.028 . S
Mg70 O77 1.986 . S
Mg70 O79 2.114 . S
Mg70 O80 2.251 . S
Mg70 O83 2.010 . S
O71 Mg70 2.028 . S
O71 C74 1.250 . S
O72 Mg73 2.028 . S
O72 C74 1.248 . S
Mg73 O72 2.028 . S
Mg73 O78 2.032 . S
Mg73 O80 2.079 . S
C74 O71 1.250 . S
C74 O72 1.248 . S
C75 O76 1.264 . S
C75 O83 1.249 . S
O76 C75 1.264 . S
O77 Mg70 1.986 . S
O77 C81 1.246 . S
O78 Mg73 2.032 . S
O78 C81 1.259 . S
O79 Mg70 2.114 . S
O79 C82 1.252 . S
O80 Mg70 2.251 . S
O80 Mg73 2.079 . S
O80 C82 1.273 . S
C81 O77 1.246 . S
C81 O78 1.259 . S
C82 O79 1.252 . S
C82 O80 1.273 . S
O83 Mg70 2.010 . S
O83 C75 1.249 . S
Mg84 O85 2.028 1_545 S
Mg84 O91 1.986 . S
Mg84 O93 2.136 . S
Mg84 O94 2.251 . S
Mg84 O97 2.010 . S
O85 Mg84 2.028 1_565 S
O85 C88 1.250 . S
O86 Mg87 2.028 1_565 S
O86 C88 1.248 . S
Mg87 O86 2.028 1_545 S
Mg87 O92 2.032 . S
Mg87 O94 2.079 . S
C88 O85 1.250 . S
C88 O86 1.248 . S
C89 O90 1.264 . S
C89 O97 1.249 . S
O90 C89 1.264 . S
O91 Mg84 1.986 . S
O91 C95 1.246 . S
O92 Mg87 2.032 . S
O92 C95 1.259 . S
O93 Mg84 2.136 . S
O93 C96 1.264 . S
O94 Mg84 2.251 . S
O94 Mg87 2.079 . S
O94 C96 1.273 . S
C95 O91 1.246 . S
C95 O92 1.259 . S
C96 O93 1.264 . S
C96 O94 1.273 . S
O97 Mg84 2.010 . S
O97 C89 1.249 . S
Mg98 O99 1.989 1_556 S
Mg98 O105 2.017 . S
Mg98 O107 2.093 1_556 S
Mg98 O108 2.249 1_556 S
Mg98 O111 2.013 . S
O99 Mg98 1.989 1_554 S
O99 C102 1.250 . S
O100 Mg101 2.028 . S
O100 C102 1.248 . S
Mg101 O100 2.028 . S
Mg101 O106 2.032 1_554 S
Mg101 O108 2.079 . S
C102 O99 1.250 . S
C102 O100 1.248 . S
C103 O104 1.235 1_554 S
C103 O111 1.239 1_554 S
O104 C103 1.235 1_556 S
O105 Mg98 2.017 . S
O105 C109 1.246 . S
O106 Mg101 2.032 1_556 S
O106 C109 1.259 . S
O107 Mg98 2.093 1_554 S
O107 C110 1.252 . S
O108 Mg98 2.249 1_554 S
O108 Mg101 2.079 . S
O108 C110 1.273 . S
C109 O105 1.246 . S
C109 O106 1.259 . S
C110 O107 1.252 . S
C110 O108 1.273 . S
O111 Mg98 2.013 . S
O111 C103 1.239 1_556 S
Mg112 O113 2.028 1_554 S
Mg112 O119 1.986 . S
Mg112 O121 2.119 . S
Mg112 O122 2.251 . S
Mg112 O125 2.010 . S
O113 Mg112 2.028 1_556 S
O113 C116 1.250 . S
O114 Mg115 2.028 1_556 S
O114 C116 1.248 . S
Mg115 O114 2.028 1_554 S
Mg115 O120 2.032 . S
Mg115 O122 2.079 . S
C116 O113 1.250 . S
C116 O114 1.248 . S
C117 O118 1.264 . S
C117 O125 1.249 . S
O118 C117 1.264 . S
O119 Mg112 1.986 . S
O119 C123 1.246 . S
O120 Mg115 2.032 . S
O120 C123 1.259 . S
O121 Mg112 2.119 . S
O121 C124 1.255 . S
O122 Mg112 2.251 . S
O122 Mg115 2.079 . S
O122 C124 1.273 . S
C123 O119 1.246 . S
C123 O120 1.259 . S
C124 O121 1.255 . S
C124 O122 1.273 . S
O125 Mg112 2.010 . S
O125 C117 1.249 . S
Mg126 O127 2.028 . S
Mg126 O133 1.986 . S
Mg126 O135 2.114 . S
Mg126 O136 2.251 . S
Mg126 O139 2.010 . S
O127 Mg126 2.028 . S
O127 C130 1.250 . S
O128 Mg129 2.028 . S
O128 C130 1.248 . S
Mg129 O128 2.028 . S
Mg129 O134 2.032 . S
Mg129 O136 2.079 . S
C130 O127 1.250 . S
C130 O128 1.248 . S
C131 O132 1.264 . S
C131 O139 1.249 . S
O132 C131 1.264 . S
O133 Mg126 1.986 . S
O133 C137 1.246 . S
O134 Mg129 2.032 . S
O134 C137 1.259 . S
O135 Mg126 2.114 . S
O135 C138 1.252 . S
O136 Mg126 2.251 . S
O136 Mg129 2.079 . S
O136 C138 1.273 . S
C137 O133 1.246 . S
C137 O134 1.259 . S
C138 O135 1.252 . S
C138 O136 1.273 . S
O139 Mg126 2.010 . S
O139 C131 1.249 . S
Mg140 O141 2.028 . S
Mg140 O147 1.986 . S
Mg140 O149 2.114 . S
Mg140 O150 2.251 . S
Mg140 O153 2.010 . S
O141 Mg140 2.028 . S
O141 C144 1.250 . S
O142 Mg143 2.028 . S
O142 C144 1.248 . S
Mg143 O142 2.028 . S
Mg143 O148 2.032 . S
Mg143 O150 2.079 . S
C144 O141 1.250 . S
C144 O142 1.248 . S
C145 O146 1.264 . S
C145 O153 1.249 . S
O146 C145 1.264 . S
O147 Mg140 1.986 . S
O147 C151 1.246 . S
O148 Mg143 2.032 . S
O148 C151 1.259 . S
O149 Mg140 2.114 . S
O149 C152 1.252 . S
O150 Mg140 2.251 . S
O150 Mg143 2.079 . S
O150 C152 1.273 . S
C151 O147 1.246 . S
C151 O148 1.259 . S
C152 O149 1.252 . S
C152 O150 1.273 . S
O153 Mg140 2.010 . S
O153 C145 1.249 . S
Mg154 O155 2.028 . S
Mg154 O161 1.986 . S
Mg154 O163 2.114 . S
Mg154 O164 2.251 . S
Mg154 O167 2.010 . S
O155 Mg154 2.028 . S
O155 C158 1.250 . S
O156 Mg157 2.028 . S
O156 C158 1.248 . S
Mg157 O156 2.028 . S
Mg157 O162 2.032 . S
Mg157 O164 2.079 . S
C158 O155 1.250 . S
C158 O156 1.248 . S
C159 O160 1.264 . S
C159 O167 1.249 . S
O160 C159 1.264 . S
O161 Mg154 1.986 . S
O161 C165 1.246 . S
O162 Mg157 2.032 . S
O162 C165 1.259 . S
O163 Mg154 2.114 . S
O163 C166 1.252 . S
O164 Mg154 2.251 . S
O164 Mg157 2.079 . S
O164 C166 1.273 . S
C165 O161 1.246 . S
C165 O162 1.259 . S
C166 O163 1.252 . S
C166 O164 1.273 . S
O167 Mg154 2.010 . S
O167 C159 1.249 . S
Mg168 O169 2.028 . S
Mg168 O175 1.986 . S
Mg168 O177 2.114 1_455 S
Mg168 O178 2.251 1_455 S
Mg168 O181 2.010 . S
O169 Mg168 2.028 . S
O169 C172 1.250 . S
O170 Mg171 2.028 . S
O170 C172 1.248 1_655 S
Mg171 O170 2.028 . S
Mg171 O176 2.032 . S
Mg171 O178 2.079 . S
C172 O169 1.250 . S
C172 O170 1.248 1_455 S
C173 O174 1.264 . S
C173 O181 1.249 . S
O174 C173 1.264 . S
O175 Mg168 1.986 . S
O175 C179 1.246 . S
O176 Mg171 2.032 . S
O176 C179 1.259 1_655 S
O177 Mg168 2.114 1_655 S
O177 C180 1.252 . S
O178 Mg168 2.251 1_655 S
O178 Mg171 2.079 . S
O178 C180 1.273 . S
C179 O175 1.246 . S
C179 O176 1.259 1_455 S
C180 O177 1.252 . S
C180 O178 1.273 . S
O181 Mg168 2.010 . S
O181 C173 1.249 . S
Mg182 O183 2.028 . S
Mg182 O189 1.986 . S
Mg182 O191 2.114 1_455 S
Mg182 O192 2.251 1_455 S
Mg182 O195 2.010 . S
O183 Mg182 2.028 . S
O183 C186 1.250 . S
O184 Mg185 2.028 . S
O184 C186 1.248 1_655 S
Mg185 O184 2.028 . S
Mg185 O190 2.032 . S
Mg185 O192 2.079 . S
C186 O183 1.250 . S
C186 O184 1.248 1_455 S
C187 O188 1.264 . S
C187 O195 1.249 . S
O188 C187 1.264 . S
O189 Mg182 1.986 . S
O189 C193 1.246 . S
O190 Mg185 2.032 . S
O190 C193 1.259 1_655 S
O191 Mg182 2.114 1_655 S
O191 C194 1.252 . S
O192 Mg182 2.251 1_655 S
O192 Mg185 2.079 . S
O192 C194 1.273 . S
C193 O189 1.246 . S
C193 O190 1.259 1_455 S
C194 O191 1.252 . S
C194 O192 1.273 . S
O195 Mg182 2.010 . S
O195 C187 1.249 . S
Mg196 O197 2.028 . S
Mg196 O203 1.986 . S
Mg196 O205 2.114 . S
Mg196 O206 2.251 . S
Mg196 O209 2.010 . S
O197 Mg196 2.028 . S
O197 C200 1.250 . S
O198 Mg199 2.028 . S
O198 C200 1.248 . S
Mg199 O198 2.028 . S
Mg199 O204 2.032 . S
Mg199 O206 2.079 . S
C200 O197 1.250 . S
C200 O198 1.248 . S
C201 O202 1.264 . S
C201 O209 1.249 . S
O202 C201 1.264 . S
O203 Mg196 1.986 . S
O203 C207 1.246 . S
O204 Mg199 2.032 . S
O204 C207 1.259 . S
O205 Mg196 2.114 . S
O205 C208 1.252 . S
O206 Mg196 2.251 . S
O206 Mg199 2.079 . S
O206 C208 1.273 . S
C207 O203 1.246 . S
C207 O204 1.259 . S
C208 O205 1.252 . S
C208 O206 1.273 . S
O209 Mg196 2.010 . S
O209 C201 1.249 . S
Mg210 O211 2.028 . S
Mg210 O217 1.986 . S
Mg210 O219 2.114 . S
Mg210 O220 2.251 . S
Mg210 O223 2.010 . S
O211 Mg210 2.028 . S
O211 C214 1.250 . S
O212 Mg213 2.028 . S
O212 C214 1.248 . S
Mg213 O212 2.028 . S
Mg213 O218 2.032 . S
Mg213 O220 2.079 . S
C214 O211 1.250 . S
C214 O212 1.248 . S
C215 O216 1.264 . S
C215 O223 1.249 . S
O216 C215 1.264 . S
O217 Mg210 1.986 . S
O217 C221 1.246 . S
O218 Mg213 2.032 . S
O218 C221 1.259 . S
O219 Mg210 2.114 . S
O219 C222 1.252 . S
O220 Mg210 2.251 . S
O220 Mg213 2.079 . S
O220 C222 1.273 . S
C221 O217 1.246 . S
C221 O218 1.259 . S
C222 O219 1.252 . S
C222 O220 1.273 . S
O223 Mg210 2.010 . S
O223 C215 1.249 . S
Mg224 O225 2.028 1_545 S
Mg224 O231 1.986 . S
Mg224 O233 2.114 1_545 S
Mg224 O234 2.251 . S
Mg224 O237 2.010 . S
O225 Mg224 2.028 1_565 S
O225 C228 1.250 . S
O226 Mg227 2.028 1_565 S
O226 C228 1.248 . S
Mg227 O226 2.028 1_545 S
Mg227 O232 2.032 . S
Mg227 O234 2.079 . S
C228 O225 1.250 . S
C228 O226 1.248 . S
C229 O230 1.264 . S
C229 O237 1.249 . S
O230 C229 1.264 . S
O231 Mg224 1.986 . S
O231 C235 1.246 . S
O232 Mg227 2.032 . S
O232 C235 1.259 . S
O233 Mg224 2.114 1_565 S
O233 C236 1.252 . S
O234 Mg224 2.251 . S
O234 Mg227 2.079 . S
O234 C236 1.272 1_545 S
C235 O231 1.246 . S
C235 O232 1.259 . S
C236 O233 1.252 . S
C236 O234 1.272 1_565 S
O237 Mg224 2.010 . S
O237 C229 1.249 . S
Mg238 O239 2.028 . S
Mg238 O245 1.986 . S
Mg238 O247 2.114 . S
Mg238 O248 2.251 . S
Mg238 O251 2.010 . S
O239 Mg238 2.028 . S
O239 C242 1.250 . S
O240 Mg241 2.028 . S
O240 C242 1.248 . S
Mg241 O240 2.028 . S
Mg241 O246 2.032 . S
Mg241 O248 2.079 . S
C242 O239 1.250 . S
C242 O240 1.248 . S
C243 O244 1.264 . S
C243 O251 1.249 . S
O244 C243 1.264 . S
O245 Mg238 1.986 . S
O245 C249 1.246 . S
O246 Mg241 2.032 . S
O246 C249 1.259 . S
O247 Mg238 2.114 . S
O247 C250 1.252 . S
O248 Mg238 2.251 . S
O248 Mg241 2.079 . S
O248 C250 1.273 . S
C249 O245 1.246 . S
C249 O246 1.259 . S
C250 O247 1.252 . S
C250 O248 1.273 . S
O251 Mg238 2.010 . S
O251 C243 1.249 . S
Mg252 O253 2.028 1_565 S
Mg252 O259 1.986 . S
Mg252 O261 2.114 1_565 S
Mg252 O262 2.254 . S
Mg252 O265 2.010 . S
O253 Mg252 2.028 1_545 S
O253 C256 1.250 . S
O254 Mg255 2.028 . S
O254 C256 1.248 . S
Mg255 O254 2.028 . S
Mg255 O260 2.032 1_545 S
Mg255 O262 2.075 1_545 S
C256 O253 1.250 . S
C256 O254 1.248 . S
C257 O258 1.264 . S
C257 O265 1.249 . S
O258 C257 1.264 . S
O259 Mg252 1.986 . S
O259 C263 1.246 . S
O260 Mg255 2.032 1_565 S
O260 C263 1.259 . S
O261 Mg252 2.114 1_545 S
O261 C264 1.252 . S
O262 Mg252 2.254 . S
O262 Mg255 2.075 1_565 S
O262 C264 1.256 1_565 S
C263 O259 1.246 . S
C263 O260 1.259 . S
C264 O261 1.252 . S
C264 O262 1.256 1_545 S
O265 Mg252 2.010 . S
O265 C257 1.249 . S
Mg266 O267 2.028 1_554 S
Mg266 O273 1.986 . S
Mg266 O275 2.114 . S
Mg266 O276 2.251 . S
Mg266 O279 2.010 . S
O267 Mg266 2.028 1_556 S
O267 C270 1.250 . S
O268 Mg269 2.028 1_556 S
O268 C270 1.248 . S
Mg269 O268 2.028 1_554 S
Mg269 O274 2.032 . S
Mg269 O276 2.079 . S
C270 O267 1.250 . S
C270 O268 1.248 . S
C271 O272 1.264 . S
C271 O279 1.249 . S
O272 C271 1.264 . S
O273 Mg266 1.986 . S
O273 C277 1.246 . S
O274 Mg269 2.032 . S
O274 C277 1.259 . S
O275 Mg266 2.114 . S
O275 C278 1.252 . S
O276 Mg266 2.251 . S
O276 Mg269 2.079 . S
O276 C278 1.273 . S
C277 O273 1.246 . S
C277 O274 1.259 . S
C278 O275 1.252 . S
C278 O276 1.273 . S
O279 Mg266 2.010 . S
O279 C271 1.249 . S
Mg280 O281 2.028 1_556 S
Mg280 O287 1.986 . S
Mg280 O289 2.114 1_556 S
Mg280 O290 2.251 . S
Mg280 O293 2.010 . S
O281 Mg280 2.028 1_554 S
O281 C284 1.250 . S
O282 Mg283 1.982 1_554 S
O282 C284 1.248 . S
Mg283 O282 1.982 1_556 S
Mg283 O288 2.076 . S
Mg283 O290 2.085 . S
C284 O281 1.250 . S
C284 O282 1.248 . S
C285 O286 1.264 . S
C285 O293 1.249 . S
O286 C285 1.264 . S
O287 Mg280 1.986 . S
O287 C291 1.246 . S
O288 Mg283 2.076 . S
O288 C291 1.259 . S
O289 Mg280 2.114 1_554 S
O289 C292 1.252 . S
O290 Mg280 2.251 . S
O290 Mg283 2.085 . S
O290 C292 1.273 1_556 S
C291 O287 1.246 . S
C291 O288 1.259 . S
C292 O289 1.252 . S
C292 O290 1.273 1_554 S
O293 Mg280 2.010 . S
O293 C285 1.249 . S
Mg294 O295 2.028 . S
Mg294 O301 1.986 . S
Mg294 O303 2.114 . S
Mg294 O304 2.251 . S
Mg294 O307 2.010 . S
O295 Mg294 2.028 . S
O295 C298 1.250 . S
O296 Mg297 2.028 . S
O296 C298 1.248 . S
Mg297 O296 2.028 . S
Mg297 O302 2.032 . S
Mg297 O304 2.079 . S
C298 O295 1.250 . S
C298 O296 1.248 . S
C299 O300 1.264 . S
C299 O307 1.249 . S
O300 C299 1.264 . S
O301 Mg294 1.986 . S
O301 C305 1.246 . S
O302 Mg297 2.032 . S
O302 C305 1.259 . S
O303 Mg294 2.114 . S
O303 C306 1.252 . S
O304 Mg294 2.251 . S
O304 Mg297 2.079 . S
O304 C306 1.273 . S
C305 O301 1.246 . S
C305 O302 1.259 . S
C306 O303 1.252 . S
C306 O304 1.273 . S
O307 Mg294 2.010 . S
O307 C299 1.249 . S
Mg308 O309 2.028 . S
Mg308 O315 1.986 . S
Mg308 O317 2.114 . S
Mg308 O318 2.251 . S
Mg308 O321 2.010 . S
O309 Mg308 2.028 . S
O309 C312 1.250 . S
O310 Mg311 2.028 . S
O310 C312 1.248 . S
Mg311 O310 2.028 . S
Mg311 O316 2.032 . S
Mg311 O318 2.079 . S
C312 O309 1.250 . S
C312 O310 1.248 . S
C313 O314 1.264 . S
C313 O321 1.249 . S
O314 C313 1.264 . S
O315 Mg308 1.986 . S
O315 C319 1.246 . S
O316 Mg311 2.032 . S
O316 C319 1.259 . S
O317 Mg308 2.114 . S
O317 C320 1.252 . S
O318 Mg308 2.251 . S
O318 Mg311 2.079 . S
O318 C320 1.273 . S
C319 O315 1.246 . S
C319 O316 1.259 . S
C320 O317 1.252 . S
C320 O318 1.273 . S
O321 Mg308 2.010 . S
O321 C313 1.249 . S
Mg322 O323 2.028 . S
Mg322 O329 1.986 . S
Mg322 O331 2.114 . S
Mg322 O332 2.251 . S
Mg322 O335 2.010 . S
O323 Mg322 2.028 . S
O323 C326 1.250 . S
O324 Mg325 2.028 . S
O324 C326 1.248 . S
Mg325 O324 2.028 . S
Mg325 O330 2.032 . S
Mg325 O332 2.079 . S
C326 O323 1.250 . S
C326 O324 1.248 . S
C327 O328 1.264 . S
C327 O335 1.249 . S
O328 C327 1.264 . S
O329 Mg322 1.986 . S
O329 C333 1.246 . S
O330 Mg325 2.032 . S
O330 C333 1.259 . S
O331 Mg322 2.114 . S
O331 C334 1.252 . S
O332 Mg322 2.251 . S
O332 Mg325 2.079 . S
O332 C334 1.273 . S
C333 O329 1.246 . S
C333 O330 1.259 . S
C334 O331 1.252 . S
C334 O332 1.273 . S
O335 Mg322 2.010 . S
O335 C327 1.249 . S
O336 Mg337 1.947 1_556 S
O336 C350 1.253 . S
Mg337 O336 1.947 1_554 S
Mg337 O340 2.204 . S
Mg337 O341 2.127 . S
Mg337 O355 2.035 . S
O338 Mg339 2.072 1_656 S
O338 C350 1.260 . S
Mg339 O338 2.072 1_454 S
Mg339 O340 2.099 1_455 S
Mg339 O342 2.079 1_545 S
Mg339 O343 2.072 . S
Mg339 O345 2.099 1_545 S
Mg339 O356 2.079 1_445 S
O340 Mg337 2.204 . S
O340 Mg339 2.099 1_655 S
O340 C351 1.279 . S
O341 Mg337 2.127 . S
O341 C351 1.250 . S
O342 Mg339 2.079 1_565 S
O342 C352 1.264 . S
O343 Mg339 2.072 . S
O343 C353 1.269 . S
Mg344 O345 2.180 . S
Mg344 O346 2.030 . S
Mg344 O347 1.983 1_554 S
Mg344 O348 2.117 1_554 S
O345 Mg339 2.099 1_565 S
O345 Mg344 2.180 . S
O345 C354 1.279 1_554 S
O346 Mg344 2.030 . S
O346 C352 1.248 . S
O347 Mg344 1.983 1_556 S
O347 C353 1.253 1_566 S
O348 Mg344 2.117 1_556 S
O348 C354 1.250 . S
C349 O355 1.248 1_565 S
C349 O356 1.264 . S
C350 O336 1.253 . S
C350 O338 1.260 . S
C351 O340 1.279 . S
C351 O341 1.250 . S
C352 O342 1.264 . S
C352 O346 1.248 . S
C353 O343 1.269 . S
C353 O347 1.253 1_544 S
C354 O345 1.279 1_556 S
C354 O348 1.250 . S
O355 Mg337 2.035 . S
O355 C349 1.248 1_545 S
O356 Mg339 2.079 1_665 S
O356 C349 1.264 . S
O357 Mg358 1.990 . S
O357 C371 1.253 . S
Mg358 O357 1.990 . S
Mg358 O361 2.180 . S
Mg358 O362 2.117 . S
Mg358 O376 2.030 . S
O359 Mg360 2.072 . S
O359 C371 1.260 . S
Mg360 O359 2.072 . S
Mg360 O361 2.099 . S
Mg360 O363 2.079 . S
Mg360 O364 2.072 . S
Mg360 O366 2.099 . S
Mg360 O377 2.079 . S
O361 Mg358 2.180 . S
O361 Mg360 2.099 . S
O361 C372 1.279 . S
O362 Mg358 2.117 . S
O362 C372 1.250 . S
O363 Mg360 2.079 . S
O363 C373 1.264 . S
O364 Mg360 2.072 . S
O364 C374 1.260 . S
Mg365 O366 2.180 . S
Mg365 O367 2.030 . S
Mg365 O368 1.990 . S
Mg365 O369 2.117 . S
O366 Mg360 2.099 . S
O366 Mg365 2.180 . S
O366 C375 1.279 . S
O367 Mg365 2.030 . S
O367 C373 1.248 . S
O368 Mg365 1.990 . S
O368 C374 1.253 . S
O369 Mg365 2.117 . S
O369 C375 1.250 . S
C370 O376 1.248 . S
C370 O377 1.264 . S
C371 O357 1.253 . S
C371 O359 1.260 . S
C372 O361 1.279 . S
C372 O362 1.250 . S
C373 O363 1.264 . S
C373 O367 1.248 . S
C374 O364 1.260 . S
C374 O368 1.253 . S
C375 O366 1.279 . S
C375 O369 1.250 . S
O376 Mg358 2.030 . S
O376 C370 1.248 . S
O377 Mg360 2.079 . S
O377 C370 1.264 . S
O378 Mg379 1.990 . S
O378 C392 1.253 . S
Mg379 O378 1.990 . S
Mg379 O382 2.180 . S
Mg379 O383 2.117 . S
Mg379 O397 2.030 1_565 S
O380 Mg381 2.072 . S
O380 C392 1.260 1_545 S
Mg381 O380 2.072 . S
Mg381 O382 2.099 1_545 S
Mg381 O384 2.079 . S
Mg381 O385 2.072 1_545 S
Mg381 O387 2.099 . S
Mg381 O398 2.079 . S
O382 Mg379 2.180 . S
O382 Mg381 2.099 1_565 S
O382 C393 1.279 . S
O383 Mg379 2.117 . S
O383 C393 1.250 . S
O384 Mg381 2.079 . S
O384 C394 1.264 . S
O385 Mg381 2.072 1_565 S
O385 C395 1.260 . S
Mg386 O387 2.180 . S
Mg386 O388 2.030 . S
Mg386 O389 1.990 . S
Mg386 O390 2.117 . S
O387 Mg381 2.099 . S
O387 Mg386 2.180 . S
O387 C396 1.279 . S
O388 Mg386 2.030 . S
O388 C394 1.248 . S
O389 Mg386 1.990 . S
O389 C395 1.253 1_545 S
O390 Mg386 2.117 . S
O390 C396 1.250 . S
C391 O397 1.248 . S
C391 O398 1.264 . S
C392 O378 1.253 . S
C392 O380 1.260 1_565 S
C393 O382 1.279 . S
C393 O383 1.250 . S
C394 O384 1.264 . S
C394 O388 1.248 . S
C395 O385 1.260 . S
C395 O389 1.253 1_565 S
C396 O387 1.279 . S
C396 O390 1.250 . S
O397 Mg379 2.030 1_545 S
O397 C391 1.248 . S
O398 Mg381 2.079 . S
O398 C391 1.264 . S
O399 Mg400 1.990 . S
O399 C413 1.253 . S
Mg400 O399 1.990 . S
Mg400 O403 2.180 . S
Mg400 O404 2.117 . S
Mg400 O418 2.030 . S
O401 Mg402 2.072 . S
O401 C413 1.260 . S
Mg402 O401 2.072 . S
Mg402 O403 2.099 . S
Mg402 O405 2.079 . S
Mg402 O406 2.072 . S
Mg402 O408 2.099 . S
Mg402 O419 2.079 . S
O403 Mg400 2.180 . S
O403 Mg402 2.099 . S
O403 C414 1.279 . S
O404 Mg400 2.117 . S
O404 C414 1.250 . S
O405 Mg402 2.079 . S
O405 C415 1.264 . S
O406 Mg402 2.072 . S
O406 C416 1.260 . S
Mg407 O408 2.180 . S
Mg407 O409 2.030 . S
Mg407 O410 1.990 . S
Mg407 O411 2.117 . S
O408 Mg402 2.099 . S
O408 Mg407 2.180 . S
O408 C417 1.279 . S
O409 Mg407 2.030 . S
O409 C415 1.248 . S
O410 Mg407 1.990 . S
O410 C416 1.253 . S
O411 Mg407 2.117 . S
O411 C417 1.250 . S
C412 O418 1.248 . S
C412 O419 1.264 . S
C413 O399 1.253 . S
C413 O401 1.260 . S
C414 O403 1.279 . S
C414 O404 1.250 . S
C415 O405 1.264 . S
C415 O409 1.248 . S
C416 O406 1.260 . S
C416 O410 1.253 . S
C417 O408 1.279 . S
C417 O411 1.250 . S
O418 Mg400 2.030 . S
O418 C412 1.248 . S
O419 Mg402 2.079 . S
O419 C412 1.264 . S
O420 Mg421 1.990 . S
O420 C434 1.253 . S
Mg421 O420 1.990 . S
Mg421 O424 2.180 . S
Mg421 O425 2.117 1_455 S
Mg421 O439 2.030 . S
O422 Mg423 2.072 1_565 S
O422 C434 1.260 . S
Mg423 O422 2.072 1_545 S
Mg423 O424 2.099 1_545 S
Mg423 O426 2.079 . S
Mg423 O427 2.072 1_455 S
Mg423 O429 2.099 . S
Mg423 O440 2.079 1_545 S
O424 Mg421 2.180 . S
O424 Mg423 2.099 1_565 S
O424 C435 1.279 1_455 S
O425 Mg421 2.117 1_655 S
O425 C435 1.250 . S
O426 Mg423 2.079 . S
O426 C436 1.264 . S
O427 Mg423 2.072 1_655 S
O427 C437 1.260 . S
Mg428 O429 2.180 . S
Mg428 O430 2.030 . S
Mg428 O431 1.990 1_455 S
Mg428 O432 2.117 . S
O429 Mg423 2.099 . S
O429 Mg428 2.180 . S
O429 C438 1.279 . S
O430 Mg428 2.030 . S
O430 C436 1.248 . S
O431 Mg428 1.990 1_655 S
O431 C437 1.253 . S
O432 Mg428 2.117 . S
O432 C438 1.250 . S
C433 O439 1.248 . S
C433 O440 1.264 . S
C434 O420 1.253 . S
C434 O422 1.260 . S
C435 O424 1.279 1_655 S
C435 O425 1.250 . S
C436 O426 1.264 . S
C436 O430 1.248 . S
C437 O427 1.260 . S
C437 O431 1.253 . S
C438 O429 1.279 . S
C438 O432 1.250 . S
O439 Mg421 2.030 . S
O439 C433 1.248 . S
O440 Mg423 2.079 1_565 S
O440 C433 1.264 . S
O441 Mg442 1.990 . S
O441 C455 1.253 . S
Mg442 O441 1.990 . S
Mg442 O445 2.180 . S
Mg442 O446 2.117 . S
Mg442 O460 2.030 . S
O443 Mg444 2.072 . S
O443 C455 1.260 . S
Mg444 O443 2.072 . S
Mg444 O445 2.099 . S
Mg444 O447 2.079 . S
Mg444 O448 2.072 . S
Mg444 O450 2.099 . S
Mg444 O461 2.079 . S
O445 Mg442 2.180 . S
O445 Mg444 2.099 . S
O445 C456 1.279 . S
O446 Mg442 2.117 . S
O446 C456 1.250 . S
O447 Mg444 2.079 . S
O447 C457 1.264 . S
O448 Mg444 2.072 . S
O448 C458 1.260 . S
Mg449 O450 2.180 . S
Mg449 O451 2.030 . S
Mg449 O452 1.990 . S
Mg449 O453 2.117 . S
O450 Mg444 2.099 . S
O450 Mg449 2.180 . S
O450 C459 1.279 . S
O451 Mg449 2.030 . S
O451 C457 1.248 . S
O452 Mg449 1.990 . S
O452 C458 1.253 . S
O453 Mg449 2.117 . S
O453 C459 1.250 . S
C454 O460 1.248 . S
C454 O461 1.264 . S
C455 O441 1.253 . S
C455 O443 1.260 . S
C456 O445 1.279 . S
C456 O446 1.250 . S
C457 O447 1.264 . S
C457 O451 1.248 . S
C458 O448 1.260 . S
C458 O452 1.253 . S
C459 O450 1.279 . S
C459 O453 1.250 . S
O460 Mg442 2.030 . S
O460 C454 1.248 . S
O461 Mg444 2.079 . S
O461 C454 1.264 . S
O462 Mg463 2.006 . S
O462 C476 1.253 . S
Mg463 O462 2.006 . S
Mg463 O466 2.171 1_565 S
Mg463 O467 2.113 1_565 S
Mg463 O481 2.028 1_565 S
O464 Mg465 2.072 1_565 S
O464 C476 1.260 . S
Mg465 O464 2.072 1_545 S
Mg465 O466 2.099 . S
Mg465 O468 2.079 1_554 S
Mg465 O469 2.072 1_554 S
Mg465 O471 2.099 1_554 S
Mg465 O482 2.079 . S
O466 Mg463 2.171 1_545 S
O466 Mg465 2.099 . S
O466 C477 1.279 . S
O467 Mg463 2.113 1_545 S
O467 C477 1.250 . S
O468 Mg465 2.079 1_556 S
O468 C478 1.264 . S
O469 Mg465 2.072 1_556 S
O469 C479 1.260 1_545 S
Mg470 O471 2.180 . S
Mg470 O472 2.030 . S
Mg470 O473 1.990 1_545 S
Mg470 O474 2.117 1_545 S
O471 Mg465 2.099 1_556 S
O471 Mg470 2.180 . S
O471 C480 1.279 1_545 S
O472 Mg470 2.030 . S
O472 C478 1.248 . S
O473 Mg470 1.990 1_565 S
O473 C479 1.253 . S
O474 Mg470 2.117 1_565 S
O474 C480 1.250 . S
C475 O481 1.248 . S
C475 O482 1.264 . S
C476 O462 1.253 . S
C476 O464 1.260 . S
C477 O466 1.279 . S
C477 O467 1.250 . S
C478 O468 1.264 . S
C478 O472 1.248 . S
C479 O469 1.260 1_565 S
C479 O473 1.253 . S
C480 O471 1.279 1_565 S
C480 O474 1.250 . S
O481 Mg463 2.028 1_545 S
O481 C475 1.248 . S
O482 Mg465 2.079 . S
O482 C475 1.264 . S
O483 Mg484 1.990 . S
O483 C497 1.253 . S
Mg484 O483 1.990 . S
Mg484 O487 2.180 . S
Mg484 O488 2.117 . S
Mg484 O502 2.030 . S
O485 Mg486 2.072 . S
O485 C497 1.260 . S
Mg486 O485 2.072 . S
Mg486 O487 2.099 . S
Mg486 O489 2.079 . S
Mg486 O490 2.072 . S
Mg486 O492 2.099 . S
Mg486 O503 2.079 . S
O487 Mg484 2.180 . S
O487 Mg486 2.099 . S
O487 C498 1.279 . S
O488 Mg484 2.117 . S
O488 C498 1.250 . S
O489 Mg486 2.079 . S
O489 C499 1.264 . S
O490 Mg486 2.072 . S
O490 C500 1.260 . S
Mg491 O492 2.180 . S
Mg491 O493 2.030 . S
Mg491 O494 1.990 . S
Mg491 O495 2.117 . S
O492 Mg486 2.099 . S
O492 Mg491 2.180 . S
O492 C501 1.279 . S
O493 Mg491 2.030 . S
O493 C499 1.248 . S
O494 Mg491 1.990 . S
O494 C500 1.253 . S
O495 Mg491 2.117 . S
O495 C501 1.250 . S
C496 O502 1.248 . S
C496 O503 1.264 . S
C497 O483 1.253 . S
C497 O485 1.260 . S
C498 O487 1.279 . S
C498 O488 1.250 . S
C499 O489 1.264 . S
C499 O493 1.248 . S
C500 O490 1.260 . S
C500 O494 1.253 . S
C501 O492 1.279 . S
C501 O495 1.250 . S
O502 Mg484 2.030 . S
O502 C496 1.248 . S
O503 Mg486 2.079 . S
O503 C496 1.264 . S
O504 Mg505 1.990 . S
O504 C518 1.253 . S
Mg505 O504 1.990 . S
Mg505 O508 2.180 . S
Mg505 O509 2.117 . S
Mg505 O523 2.030 1_556 S
O506 Mg507 2.072 . S
O506 C518 1.260 1_554 S
Mg507 O506 2.072 . S
Mg507 O508 2.099 1_554 S
Mg507 O510 2.079 . S
Mg507 O511 2.072 1_554 S
Mg507 O513 2.099 . S
Mg507 O524 2.079 . S
O508 Mg505 2.180 . S
O508 Mg507 2.099 1_556 S
O508 C519 1.279 . S
O509 Mg505 2.117 . S
O509 C519 1.250 . S
O510 Mg507 2.079 . S
O510 C520 1.264 . S
O511 Mg507 2.072 1_556 S
O511 C521 1.260 . S
Mg512 O513 2.180 . S
Mg512 O514 2.030 . S
Mg512 O515 1.990 . S
Mg512 O516 2.117 . S
O513 Mg507 2.099 . S
O513 Mg512 2.180 . S
O513 C522 1.279 . S
O514 Mg512 2.030 . S
O514 C520 1.248 . S
O515 Mg512 1.990 . S
O515 C521 1.253 1_554 S
O516 Mg512 2.117 . S
O516 C522 1.250 . S
C517 O523 1.248 . S
C517 O524 1.264 . S
C518 O504 1.253 . S
C518 O506 1.260 1_556 S
C519 O508 1.279 . S
C519 O509 1.250 . S
C520 O510 1.264 . S
C520 O514 1.248 . S
C521 O511 1.260 . S
C521 O515 1.253 1_556 S
C522 O513 1.279 . S
C522 O516 1.250 . S
O523 Mg505 2.030 1_554 S
O523 C517 1.248 . S
O524 Mg507 2.079 . S
O524 C517 1.264 . S
O525 Mg526 1.990 . S
O525 C539 1.253 . S
Mg526 O525 1.990 . S
Mg526 O529 2.180 . S
Mg526 O530 2.117 . S
Mg526 O544 2.030 . S
O527 Mg528 2.072 . S
O527 C539 1.260 . S
Mg528 O527 2.072 . S
Mg528 O529 2.099 . S
Mg528 O531 2.079 . S
Mg528 O532 2.072 . S
Mg528 O534 2.099 . S
Mg528 O545 2.079 . S
O529 Mg526 2.180 . S
O529 Mg528 2.099 . S
O529 C540 1.279 . S
O530 Mg526 2.117 . S
O530 C540 1.250 . S
O531 Mg528 2.079 . S
O531 C541 1.264 . S
O532 Mg528 2.072 . S
O532 C542 1.260 . S
Mg533 O534 2.180 . S
Mg533 O535 2.030 . S
Mg533 O536 1.990 . S
Mg533 O537 2.117 . S
O534 Mg528 2.099 . S
O534 Mg533 2.180 . S
O534 C543 1.279 . S
O535 Mg533 2.030 . S
O535 C541 1.248 . S
O536 Mg533 1.990 . S
O536 C542 1.253 . S
O537 Mg533 2.117 . S
O537 C543 1.250 . S
C538 O544 1.248 . S
C538 O545 1.264 . S
C539 O525 1.253 . S
C539 O527 1.260 . S
C540 O529 1.279 . S
C540 O530 1.250 . S
C541 O531 1.264 . S
C541 O535 1.248 . S
C542 O532 1.260 . S
C542 O536 1.253 . S
C543 O534 1.279 . S
C543 O537 1.250 . S
O544 Mg526 2.030 . S
O544 C538 1.248 . S
O545 Mg528 2.079 . S
O545 C538 1.264 . S
O546 Mg547 1.990 . S
O546 C560 1.253 . S
Mg547 O546 1.990 . S
Mg547 O550 2.180 . S
Mg547 O551 2.117 . S
Mg547 O565 2.064 . S
O548 Mg549 2.075 . S
O548 C560 1.233 1_455 S
Mg549 O548 2.075 . S
Mg549 O550 2.099 1_455 S
Mg549 O552 2.079 . S
Mg549 O553 2.072 1_455 S
Mg549 O555 2.099 . S
Mg549 O566 2.079 . S
O550 Mg547 2.180 . S
O550 Mg549 2.099 1_655 S
O550 C561 1.279 . S
O551 Mg547 2.117 . S
O551 C561 1.250 . S
O552 Mg549 2.079 . S
O552 C562 1.264 . S
O553 Mg549 2.072 1_655 S
O553 C563 1.260 . S
Mg554 O555 2.180 . S
Mg554 O556 2.030 . S
Mg554 O557 1.990 . S
Mg554 O558 2.117 . S
O555 Mg549 2.099 . S
O555 Mg554 2.180 . S
O555 C564 1.279 . S
O556 Mg554 2.030 . S
O556 C562 1.248 . S
O557 Mg554 1.990 . S
O557 C563 1.253 1_455 S
O558 Mg554 2.117 . S
O558 C564 1.250 . S
C559 O565 1.219 1_455 S
C559 O566 1.264 . S
C560 O546 1.253 . S
C560 O548 1.233 1_655 S
C561 O550 1.279 . S
C561 O551 1.250 . S
C562 O552 1.264 . S
C562 O556 1.248 . S
C563 O553 1.260 . S
C563 O557 1.253 1_655 S
C564 O555 1.279 . S
C564 O558 1.250 . S
O565 Mg547 2.064 . S
O565 C559 1.219 1_655 S
O566 Mg549 2.079 . S
O566 C559 1.264 . S
O567 Mg568 1.990 . S
O567 C581 1.253 . S
Mg568 O567 1.990 . S
Mg568 O571 2.180 . S
Mg568 O572 2.117 . S
Mg568 O586 2.030 . S
O569 Mg570 2.072 . S
O569 C581 1.260 . S
Mg570 O569 2.072 . S
Mg570 O571 2.099 . S
Mg570 O573 2.079 . S
Mg570 O574 2.072 . S
Mg570 O576 2.099 . S
Mg570 O587 2.079 . S
O571 Mg568 2.180 . S
O571 Mg570 2.099 . S
O571 C582 1.279 . S
O572 Mg568 2.117 . S
O572 C582 1.250 . S
O573 Mg570 2.079 . S
O573 C583 1.264 . S
O574 Mg570 2.072 . S
O574 C584 1.260 . S
Mg575 O576 2.180 . S
Mg575 O577 2.030 . S
Mg575 O578 1.990 . S
Mg575 O579 2.117 . S
O576 Mg570 2.099 . S
O576 Mg575 2.180 . S
O576 C585 1.279 . S
O577 Mg575 2.030 . S
O577 C583 1.248 . S
O578 Mg575 1.990 . S
O578 C584 1.253 . S
O579 Mg575 2.117 . S
O579 C585 1.250 . S
C580 O586 1.248 . S
C580 O587 1.264 . S
C581 O567 1.253 . S
C581 O569 1.260 . S
C582 O571 1.279 . S
C582 O572 1.250 . S
C583 O573 1.264 . S
C583 O577 1.248 . S
C584 O574 1.260 . S
C584 O578 1.253 . S
C585 O576 1.279 . S
C585 O579 1.250 . S
O586 Mg568 2.030 . S
O586 C580 1.248 . S
O587 Mg570 2.079 . S
O587 C580 1.264 . S
O588 Mg589 1.990 . S
O588 C602 1.253 . S
Mg589 O588 1.990 . S
Mg589 O592 2.180 . S
Mg589 O593 2.117 . S
Mg589 O607 2.030 . S
O590 Mg591 2.072 . S
O590 C602 1.260 . S
Mg591 O590 2.072 . S
Mg591 O592 2.099 . S
Mg591 O594 2.079 . S
Mg591 O595 2.072 . S
Mg591 O597 2.099 . S
Mg591 O608 2.079 . S
O592 Mg589 2.180 . S
O592 Mg591 2.099 . S
O592 C603 1.279 . S
O593 Mg589 2.117 . S
O593 C603 1.250 . S
O594 Mg591 2.079 . S
O594 C604 1.264 . S
O595 Mg591 2.072 . S
O595 C605 1.260 . S
Mg596 O597 2.180 . S
Mg596 O598 2.030 . S
Mg596 O599 1.990 . S
Mg596 O600 2.117 . S
O597 Mg591 2.099 . S
O597 Mg596 2.180 . S
O597 C606 1.279 . S
O598 Mg596 2.030 . S
O598 C604 1.248 . S
O599 Mg596 1.990 . S
O599 C605 1.253 . S
O600 Mg596 2.117 . S
O600 C606 1.250 . S
C601 O607 1.248 . S
C601 O608 1.264 . S
C602 O588 1.253 . S
C602 O590 1.260 . S
C603 O592 1.279 . S
C603 O593 1.250 . S
C604 O594 1.264 . S
C604 O598 1.248 . S
C605 O595 1.260 . S
C605 O599 1.253 . S
C606 O597 1.279 . S
C606 O600 1.250 . S
O607 Mg589 2.030 . S
O607 C601 1.248 . S
O608 Mg591 2.079 . S
O608 C601 1.264 . S
O609 Mg610 1.990 . S
O609 C623 1.253 . S
Mg610 O609 1.990 . S
Mg610 O613 2.180 . S
Mg610 O614 2.117 . S
Mg610 O628 2.030 . S
O611 Mg612 2.072 . S
O611 C623 1.260 . S
Mg612 O611 2.072 . S
Mg612 O613 2.099 . S
Mg612 O615 2.079 . S
Mg612 O616 2.072 . S
Mg612 O618 2.099 . S
Mg612 O629 2.079 . S
O613 Mg610 2.180 . S
O613 Mg612 2.099 . S
O613 C624 1.279 . S
O614 Mg610 2.117 . S
O614 C624 1.250 . S
O615 Mg612 2.079 . S
O615 C625 1.264 . S
O616 Mg612 2.072 . S
O616 C626 1.260 . S
Mg617 O618 2.180 . S
Mg617 O619 2.030 . S
Mg617 O620 1.990 . S
Mg617 O621 2.117 . S
O618 Mg612 2.099 . S
O618 Mg617 2.180 . S
O618 C627 1.279 . S
O619 Mg617 2.030 . S
O619 C625 1.248 . S
O620 Mg617 1.990 . S
O620 C626 1.253 . S
O621 Mg617 2.117 . S
O621 C627 1.250 . S
C622 O628 1.248 . S
C622 O629 1.264 . S
C623 O609 1.253 . S
C623 O611 1.260 . S
C624 O613 1.279 . S
C624 O614 1.250 . S
C625 O615 1.264 . S
C625 O619 1.248 . S
C626 O616 1.260 . S
C626 O620 1.253 . S
C627 O618 1.279 . S
C627 O621 1.250 . S
O628 Mg610 2.030 . S
O628 C622 1.248 . S
O629 Mg612 2.079 . S
O629 C622 1.264 . S
O630 Mg631 1.990 . S
O630 C644 1.253 . S
Mg631 O630 1.990 . S
Mg631 O634 2.180 . S
Mg631 O635 2.117 . S
Mg631 O649 2.030 . S
O632 Mg633 2.072 . S
O632 C644 1.260 . S
Mg633 O632 2.072 . S
Mg633 O634 2.099 . S
Mg633 O636 2.079 . S
Mg633 O637 2.072 . S
Mg633 O639 2.099 . S
Mg633 O650 2.079 . S
O634 Mg631 2.180 . S
O634 Mg633 2.099 . S
O634 C645 1.279 . S
O635 Mg631 2.117 . S
O635 C645 1.250 . S
O636 Mg633 2.079 . S
O636 C646 1.264 . S
O637 Mg633 2.072 . S
O637 C647 1.260 . S
Mg638 O639 2.180 . S
Mg638 O640 2.030 . S
Mg638 O641 1.990 . S
Mg638 O642 2.117 . S
O639 Mg633 2.099 . S
O639 Mg638 2.180 . S
O639 C648 1.279 . S
O640 Mg638 2.030 . S
O640 C646 1.248 . S
O641 Mg638 1.990 . S
O641 C647 1.253 . S
O642 Mg638 2.117 . S
O642 C648 1.250 . S
C643 O649 1.248 . S
C643 O650 1.264 . S
C644 O630 1.253 . S
C644 O632 1.260 . S
C645 O634 1.279 . S
C645 O635 1.250 . S
C646 O636 1.264 . S
C646 O640 1.248 . S
C647 O637 1.260 . S
C647 O641 1.253 . S
C648 O639 1.279 . S
C648 O642 1.250 . S
O649 Mg631 2.030 . S
O649 C643 1.248 . S
O650 Mg633 2.079 . S
O650 C643 1.264 . S
O651 Mg652 1.990 . S
O651 C665 1.253 . S
Mg652 O651 1.990 . S
Mg652 O655 2.180 1_556 S
Mg652 O656 2.117 1_556 S
Mg652 O670 2.030 . S
O653 Mg654 2.072 1_556 S
O653 C665 1.260 . S
Mg654 O653 2.072 1_554 S
Mg654 O655 2.099 . S
Mg654 O657 2.081 . S
Mg654 O658 2.070 1_454 S
Mg654 O660 2.093 1_454 S
Mg654 O671 2.079 . S
O655 Mg652 2.180 1_554 S
O655 Mg654 2.099 . S
O655 C666 1.279 . S
O656 Mg652 2.117 1_554 S
O656 C666 1.250 . S
O657 Mg654 2.081 . S
O657 C667 1.255 1_455 S
O658 Mg654 2.070 1_656 S
O658 C668 1.262 . S
Mg659 O660 2.172 1_554 S
Mg659 O661 2.030 . S
Mg659 O662 1.990 1_554 S
Mg659 O663 2.117 1_554 S
O660 Mg654 2.093 1_656 S
O660 Mg659 2.172 1_556 S
O660 C669 1.298 . S
O661 Mg659 2.030 . S
O661 C667 1.248 . S
O662 Mg659 1.990 1_556 S
O662 C668 1.253 . S
O663 Mg659 2.117 1_556 S
O663 C669 1.250 . S
C664 O670 1.248 1_554 S
C664 O671 1.264 . S
C665 O651 1.253 . S
C665 O653 1.260 . S
C666 O655 1.279 . S
C666 O656 1.250 . S
C667 O657 1.255 1_655 S
C667 O661 1.248 . S
C668 O658 1.262 . S
C668 O662 1.253 . S
C669 O660 1.298 . S
C669 O663 1.250 . S
O670 Mg652 2.030 . S
O670 C664 1.248 1_556 S
O671 Mg654 2.079 . S
O671 C664 1.264 . S
C672 C673 1.349 1_655 S
C672 C674 1.327 . S
C672 H697 0.950 . S
C673 C672 1.349 1_455 S
C673 C689 1.349 . S
C674 C672 1.327 . S
C674 C693 1.429 1_655 S
C674 H698 0.950 . S
C675 C692 1.574 . S
C675 C694 1.368 . S
C675 H699 0.949 . S
H676 C680 0.949 . S
C677 C678 1.349 1_455 S
C677 C679 1.327 . S
C677 H700 0.950 . S
C678 C677 1.349 1_655 S
C678 C690 1.349 . S
C679 C677 1.327 . S
C679 C695 1.432 1_455 S
C679 H701 0.950 . S
C680 H676 0.949 . S
C680 C688 1.574 . S
C680 C696 1.368 1_655 S
H681 C689 0.950 . S
H682 C687 0.950 . S
H683 C688 0.949 . S
H684 C690 0.950 . S
H685 C691 0.950 . S
H686 C692 0.949 . S
C687 H682 0.950 . S
C687 C689 1.327 . S
C687 C693 1.429 . S
C688 C680 1.574 . S
C688 H683 0.949 . S
C688 C694 1.368 1_655 S
C689 C673 1.349 . S
C689 H681 0.950 . S
C689 C687 1.327 . S
C690 C678 1.349 . S
C690 H684 0.950 . S
C690 C691 1.327 . S
C691 H685 0.950 . S
C691 C690 1.327 . S
C691 C695 1.425 . S
C692 C675 1.574 . S
C692 H686 0.949 . S
C692 C696 1.368 . S
C693 C674 1.429 1_455 S
C693 C687 1.429 . S
C693 C694 1.523 . S
C694 C675 1.368 . S
C694 C688 1.368 1_455 S
C694 C693 1.523 . S
C695 C679 1.432 1_655 S
C695 C691 1.425 . S
C695 C696 1.523 1_655 S
C696 C680 1.368 1_455 S
C696 C692 1.368 . S
C696 C695 1.523 1_455 S
H697 C672 0.950 . S
H698 C674 0.950 . S
H699 C675 0.949 . S
H700 C677 0.950 . S
H701 C679 0.950 . S
C702 C703 1.349 . S
C702 C704 1.327 . S
C702 H727 0.950 . S
C703 C702 1.349 . S
C703 C719 1.349 . S
C704 C702 1.327 . S
C704 C723 1.429 . S
C704 H728 0.950 . S
C705 C722 1.574 . S
C705 C724 1.368 . S
C705 H729 0.949 . S
H706 C710 0.949 . S
C707 C708 1.349 . S
C707 C709 1.327 . S
C707 H730 0.950 . S
C708 C707 1.349 . S
C708 C720 1.349 . S
C709 C707 1.327 . S
C709 C725 1.429 . S
C709 H731 0.950 . S
C710 H706 0.949 . S
C710 C718 1.574 . S
C710 C726 1.368 . S
H711 C719 0.950 . S
H712 C717 0.950 . S
H713 C718 0.949 . S
H714 C720 0.950 . S
H715 C721 0.950 . S
H716 C722 0.949 . S
C717 H712 0.950 . S
C717 C719 1.327 . S
C717 C723 1.429 . S
C718 C710 1.574 . S
C718 H713 0.949 . S
C718 C724 1.368 . S
C719 C703 1.349 . S
C719 H711 0.950 . S
C719 C717 1.327 . S
C720 C708 1.349 . S
C720 H714 0.950 . S
C720 C721 1.327 . S
C721 H715 0.950 . S
C721 C720 1.327 . S
C721 C725 1.429 . S
C722 C705 1.574 . S
C722 H716 0.949 . S
C722 C726 1.368 . S
C723 C704 1.429 . S
C723 C717 1.429 . S
C723 C724 1.523 . S
C724 C705 1.368 . S
C724 C718 1.368 . S
C724 C723 1.523 . S
C725 C709 1.429 . S
C725 C721 1.429 . S
C725 C726 1.523 . S
C726 C710 1.368 . S
C726 C722 1.368 . S
C726 C725 1.523 . S
H727 C702 0.950 . S
H728 C704 0.950 . S
H729 C705 0.949 . S
H730 C707 0.950 . S
H731 C709 0.950 . S
C732 C733 1.349 . S
C732 C734 1.327 . S
C732 H757 0.950 . S
C733 C732 1.349 . S
C733 C749 1.349 . S
C734 C732 1.327 . S
C734 C753 1.429 . S
C734 H758 0.950 . S
C735 C752 1.574 . S
C735 C754 1.368 . S
C735 H759 0.949 . S
H736 C740 0.949 . S
C737 C738 1.349 . S
C737 C739 1.327 . S
C737 H760 0.950 . S
C738 C737 1.349 . S
C738 C750 1.349 . S
C739 C737 1.327 . S
C739 C755 1.429 . S
C739 H761 0.950 . S
C740 H736 0.949 . S
C740 C748 1.574 . S
C740 C756 1.368 . S
H741 C749 0.950 . S
H742 C747 0.950 . S
H743 C748 0.949 . S
H744 C750 0.950 . S
H745 C751 0.950 . S
H746 C752 0.949 . S
C747 H742 0.950 . S
C747 C749 1.327 . S
C747 C753 1.429 . S
C748 C740 1.574 . S
C748 H743 0.949 . S
C748 C754 1.368 . S
C749 C733 1.349 . S
C749 H741 0.950 . S
C749 C747 1.327 . S
C750 C738 1.349 . S
C750 H744 0.950 . S
C750 C751 1.327 . S
C751 H745 0.950 . S
C751 C750 1.327 . S
C751 C755 1.429 . S
C752 C735 1.574 . S
C752 H746 0.949 . S
C752 C756 1.368 . S
C753 C734 1.429 . S
C753 C747 1.429 . S
C753 C754 1.523 . S
C754 C735 1.368 . S
C754 C748 1.368 . S
C754 C753 1.523 . S
C755 C739 1.429 . S
C755 C751 1.429 . S
C755 C756 1.523 . S
C756 C740 1.368 . S
C756 C752 1.368 . S
C756 C755 1.523 . S
H757 C732 0.950 . S
H758 C734 0.950 . S
H759 C735 0.949 . S
H760 C737 0.950 . S
H761 C739 0.950 . S
C762 C763 1.349 . S
C762 C764 1.327 . S
C762 H787 0.950 . S
C763 C762 1.349 . S
C763 C779 1.349 . S
C764 C762 1.327 . S
C764 C783 1.429 . S
C764 H788 0.950 . S
C765 C782 1.574 . S
C765 C784 1.368 . S
C765 H789 0.949 . S
H766 C770 0.949 . S
C767 C768 1.349 . S
C767 C769 1.327 . S
C767 H790 0.950 . S
C768 C767 1.349 . S
C768 C780 1.349 . S
C769 C767 1.327 . S
C769 C785 1.429 . S
C769 H791 0.950 . S
C770 H766 0.949 . S
C770 C778 1.574 . S
C770 C786 1.368 . S
H771 C779 0.950 . S
H772 C777 0.950 . S
H773 C778 0.949 . S
H774 C780 0.950 . S
H775 C781 0.950 . S
H776 C782 0.949 . S
C777 H772 0.950 . S
C777 C779 1.327 . S
C777 C783 1.429 . S
C778 C770 1.574 . S
C778 H773 0.949 . S
C778 C784 1.368 . S
C779 C763 1.349 . S
C779 H771 0.950 . S
C779 C777 1.327 . S
C780 C768 1.349 . S
C780 H774 0.950 . S
C780 C781 1.327 . S
C781 H775 0.950 . S
C781 C780 1.327 . S
C781 C785 1.429 . S
C782 C765 1.574 . S
C782 H776 0.949 . S
C782 C786 1.368 . S
C783 C764 1.429 . S
C783 C777 1.429 . S
C783 C784 1.523 . S
C784 C765 1.368 . S
C784 C778 1.368 . S
C784 C783 1.523 . S
C785 C769 1.429 . S
C785 C781 1.429 . S
C785 C786 1.523 . S
C786 C770 1.368 . S
C786 C782 1.368 . S
C786 C785 1.523 . S
H787 C762 0.950 . S
H788 C764 0.950 . S
H789 C765 0.949 . S
H790 C767 0.950 . S
H791 C769 0.950 . S
C792 C793 1.349 . S
C792 C794 1.327 . S
C792 H817 0.950 . S
C793 C792 1.349 . S
C793 C809 1.349 1_455 S
C794 C792 1.327 . S
C794 C813 1.429 . S
C794 H818 0.950 . S
C795 C812 1.574 . S
C795 C814 1.368 1_655 S
C795 H819 0.949 . S
H796 C800 0.949 . S
C797 C798 1.349 1_655 S
C797 C799 1.327 . S
C797 H820 0.950 . S
C798 C797 1.349 1_455 S
C798 C810 1.349 . S
C799 C797 1.327 . S
C799 C815 1.429 1_655 S
C799 H821 0.950 . S
C800 H796 0.949 . S
C800 C808 1.574 . S
C800 C816 1.368 . S
H801 C809 0.950 . S
H802 C807 0.950 . S
H803 C808 0.949 . S
H804 C810 0.950 . S
H805 C811 0.950 . S
H806 C812 0.949 . S
C807 H802 0.950 . S
C807 C809 1.327 . S
C807 C813 1.429 1_655 S
C808 C800 1.574 . S
C808 H803 0.949 . S
C808 C814 1.368 . S
C809 C793 1.349 1_655 S
C809 H801 0.950 . S
C809 C807 1.327 . S
C810 C798 1.349 . S
C810 H804 0.950 . S
C810 C811 1.327 . S
C811 H805 0.950 . S
C811 C810 1.327 . S
C811 C815 1.429 . S
C812 C795 1.574 . S
C812 H806 0.949 . S
C812 C816 1.368 1_655 S
C813 C794 1.429 . S
C813 C807 1.429 1_455 S
C813 C814 1.523 . S
C814 C795 1.368 1_455 S
C814 C808 1.368 . S
C814 C813 1.523 . S
C815 C799 1.429 1_455 S
C815 C811 1.429 . S
C815 C816 1.523 . S
C816 C800 1.368 . S
C816 C812 1.368 1_455 S
C816 C815 1.523 . S
H817 C792 0.950 . S
H818 C794 0.950 . S
H819 C795 0.949 . S
H820 C797 0.950 . S
H821 C799 0.950 . S
C822 C823 1.349 . S
C822 C824 1.327 . S
C822 H847 0.950 . S
C823 C822 1.349 . S
C823 C839 1.349 . S
C824 C822 1.327 . S
C824 C843 1.429 . S
C824 H848 0.950 . S
C825 C842 1.574 . S
C825 C844 1.368 . S
C825 H849 0.949 . S
H826 C830 0.949 . S
C827 C828 1.349 . S
C827 C829 1.327 . S
C827 H850 0.950 . S
C828 C827 1.349 . S
C828 C840 1.349 . S
C829 C827 1.327 . S
C829 C845 1.429 . S
C829 H851 0.950 . S
C830 H826 0.949 . S
C830 C838 1.574 . S
C830 C846 1.368 . S
H831 C839 0.950 . S
H832 C837 0.950 . S
H833 C838 0.949 . S
H834 C840 0.950 . S
H835 C841 0.950 . S
H836 C842 0.949 . S
C837 H832 0.950 . S
C837 C839 1.327 . S
C837 C843 1.429 . S
C838 C830 1.574 . S
C838 H833 0.949 . S
C838 C844 1.368 . S
C839 C823 1.349 . S
C839 H831 0.950 . S
C839 C837 1.327 . S
C840 C828 1.349 . S
C840 H834 0.950 . S
C840 C841 1.327 . S
C841 H835 0.950 . S
C841 C840 1.327 . S
C841 C845 1.429 . S
C842 C825 1.574 . S
C842 H836 0.949 . S
C842 C846 1.368 . S
C843 C824 1.429 . S
C843 C837 1.429 . S
C843 C844 1.523 . S
C844 C825 1.368 . S
C844 C838 1.368 . S
C844 C843 1.523 . S
C845 C829 1.429 . S
C845 C841 1.429 . S
C845 C846 1.523 . S
C846 C830 1.368 . S
C846 C842 1.368 . S
C846 C845 1.523 . S
H847 C822 0.950 . S
H848 C824 0.950 . S
H849 C825 0.949 . S
H850 C827 0.950 . S
H851 C829 0.950 . S
C852 C853 1.349 . S
C852 C854 1.327 . S
C852 H877 0.950 . S
C853 C852 1.349 . S
C853 C869 1.349 . S
C854 C852 1.327 . S
C854 C873 1.429 . S
C854 H878 0.950 . S
C855 C872 1.574 . S
C855 C874 1.368 . S
C855 H879 0.949 . S
H856 C860 0.949 . S
C857 C858 1.349 . S
C857 C859 1.327 . S
C857 H880 0.958 . S
C858 C857 1.349 . S
C858 C870 1.349 . S
C859 C857 1.327 . S
C859 C875 1.429 . S
C859 H881 0.950 . S
C860 H856 0.949 . S
C860 C868 1.574 . S
C860 C876 1.368 . S
H861 C869 0.950 . S
H862 C867 0.950 . S
H863 C868 0.949 . S
H864 C870 0.950 . S
H865 C871 0.950 . S
H866 C872 0.949 . S
C867 H862 0.950 . S
C867 C869 1.327 . S
C867 C873 1.429 . S
C868 C860 1.574 . S
C868 H863 0.949 . S
C868 C874 1.368 . S
C869 C853 1.349 . S
C869 H861 0.950 . S
C869 C867 1.327 . S
C870 C858 1.349 . S
C870 H864 0.950 . S
C870 C871 1.327 . S
C871 H865 0.950 . S
C871 C870 1.327 . S
C871 C875 1.429 . S
C872 C855 1.574 . S
C872 H866 0.949 . S
C872 C876 1.368 . S
C873 C854 1.429 . S
C873 C867 1.429 . S
C873 C874 1.523 . S
C874 C855 1.368 . S
C874 C868 1.368 . S
C874 C873 1.523 . S
C875 C859 1.429 . S
C875 C871 1.429 . S
C875 C876 1.523 . S
C876 C860 1.368 . S
C876 C872 1.368 . S
C876 C875 1.523 . S
H877 C852 0.950 . S
H878 C854 0.950 . S
H879 C855 0.949 . S
H880 C857 0.958 . S
H881 C859 0.950 . S
C882 C883 1.349 . S
C882 C884 1.327 . S
C882 H907 0.950 . S
C883 C882 1.349 . S
C883 C899 1.349 . S
C884 C882 1.327 . S
C884 C903 1.429 . S
C884 H908 0.950 . S
C885 C902 1.574 . S
C885 C904 1.368 . S
C885 H909 0.949 . S
H886 C890 0.949 . S
C887 C888 1.349 . S
C887 C889 1.327 . S
C887 H910 0.950 . S
C888 C887 1.349 . S
C888 C900 1.349 . S
C889 C887 1.327 . S
C889 C905 1.429 . S
C889 H911 0.950 . S
C890 H886 0.949 . S
C890 C898 1.574 . S
C890 C906 1.368 . S
H891 C899 0.950 . S
H892 C897 0.950 . S
H893 C898 0.949 . S
H894 C900 0.950 . S
H895 C901 0.950 . S
H896 C902 0.949 . S
C897 H892 0.950 . S
C897 C899 1.327 . S
C897 C903 1.429 . S
C898 C890 1.574 . S
C898 H893 0.949 . S
C898 C904 1.368 . S
C899 C883 1.349 . S
C899 H891 0.950 . S
C899 C897 1.327 . S
C900 C888 1.349 . S
C900 H894 0.950 . S
C900 C901 1.327 . S
C901 H895 0.950 . S
C901 C900 1.327 . S
C901 C905 1.429 . S
C902 C885 1.574 . S
C902 H896 0.949 . S
C902 C906 1.368 . S
C903 C884 1.429 . S
C903 C897 1.429 . S
C903 C904 1.523 . S
C904 C885 1.368 . S
C904 C898 1.368 . S
C904 C903 1.523 . S
C905 C889 1.429 . S
C905 C901 1.429 . S
C905 C906 1.523 . S
C906 C890 1.368 . S
C906 C902 1.368 . S
C906 C905 1.523 . S
H907 C882 0.950 . S
H908 C884 0.950 . S
H909 C885 0.949 . S
H910 C887 0.950 . S
H911 C889 0.950 . S
C912 C913 1.349 1_565 S
C912 C914 1.327 . S
C912 H937 0.950 . S
C913 C912 1.349 1_545 S
C913 C929 1.349 . S
C914 C912 1.327 . S
C914 C933 1.429 1_565 S
C914 H938 0.950 . S
C915 C932 1.574 . S
C915 C934 1.368 . S
C915 H939 0.949 . S
H916 C920 0.949 . S
C917 C918 1.349 1_545 S
C917 C919 1.327 . S
C917 H940 0.950 . S
C918 C917 1.349 1_565 S
C918 C930 1.349 . S
C919 C917 1.327 . S
C919 C935 1.429 1_545 S
C919 H941 0.950 . S
C920 H916 0.949 . S
C920 C928 1.574 . S
C920 C936 1.408 . S
H921 C929 0.950 . S
H922 C927 0.950 . S
H923 C928 0.949 . S
H924 C930 0.950 . S
H925 C931 0.950 . S
H926 C932 0.949 . S
C927 H922 0.950 . S
C927 C929 1.327 . S
C927 C933 1.429 . S
C928 C920 1.574 . S
C928 H923 0.949 . S
C928 C934 1.368 1_565 S
C929 C913 1.349 . S
C929 H921 0.950 . S
C929 C927 1.327 . S
C930 C918 1.349 . S
C930 H924 0.950 . S
C930 C931 1.327 . S
C931 H925 0.950 . S
C931 C930 1.327 . S
C931 C935 1.429 . S
C932 C915 1.574 . S
C932 H926 0.949 . S
C932 C936 1.329 1_545 S
C933 C914 1.429 1_545 S
C933 C927 1.429 . S
C933 C934 1.523 . S
C934 C915 1.368 . S
C934 C928 1.368 1_545 S
C934 C933 1.523 . S
C935 C919 1.429 1_565 S
C935 C931 1.429 . S
C935 C936 1.524 . S
C936 C920 1.408 . S
C936 C932 1.329 1_565 S
C936 C935 1.524 . S
H937 C912 0.950 . S
H938 C914 0.950 . S
H939 C915 0.949 . S
H940 C917 0.950 . S
H941 C919 0.950 . S
C942 C943 1.349 . S
C942 C944 1.327 . S
C942 H967 0.950 . S
C943 C942 1.349 . S
C943 C959 1.349 . S
C944 C942 1.327 . S
C944 C963 1.429 . S
C944 H968 0.950 . S
C945 C962 1.574 . S
C945 C964 1.368 . S
C945 H969 0.949 . S
H946 C950 0.949 . S
C947 C948 1.349 . S
C947 C949 1.327 . S
C947 H970 0.950 . S
C948 C947 1.349 . S
C948 C960 1.349 . S
C949 C947 1.327 . S
C949 C965 1.429 . S
C949 H971 0.950 . S
C950 H946 0.949 . S
C950 C958 1.574 . S
C950 C966 1.368 . S
H951 C959 0.950 . S
H952 C957 0.950 . S
H953 C958 0.949 . S
H954 C960 0.950 . S
H955 C961 0.950 . S
H956 C962 0.949 . S
C957 H952 0.950 . S
C957 C959 1.327 . S
C957 C963 1.429 . S
C958 C950 1.574 . S
C958 H953 0.949 . S
C958 C964 1.368 . S
C959 C943 1.349 . S
C959 H951 0.950 . S
C959 C957 1.327 . S
C960 C948 1.349 . S
C960 H954 0.950 . S
C960 C961 1.327 . S
C961 H955 0.950 . S
C961 C960 1.327 . S
C961 C965 1.429 . S
C962 C945 1.574 . S
C962 H956 0.949 . S
C962 C966 1.368 . S
C963 C944 1.429 . S
C963 C957 1.429 . S
C963 C964 1.523 . S
C964 C945 1.368 . S
C964 C958 1.368 . S
C964 C963 1.523 . S
C965 C949 1.429 . S
C965 C961 1.429 . S
C965 C966 1.523 . S
C966 C950 1.368 . S
C966 C962 1.368 . S
C966 C965 1.523 . S
H967 C942 0.950 . S
H968 C944 0.950 . S
H969 C945 0.949 . S
H970 C947 0.950 . S
H971 C949 0.950 . S
C972 C973 1.349 . S
C972 C974 1.327 . S
C972 H997 0.950 . S
C973 C972 1.349 . S
C973 C989 1.349 1_545 S
C974 C972 1.327 . S
C974 C993 1.429 . S
C974 H998 0.950 . S
C975 C992 1.574 . S
C975 C994 1.368 1_565 S
C975 H999 0.949 . S
H976 C980 0.949 . S
C977 C978 1.313 1_565 S
C977 C979 1.334 . S
C977 H1000 0.982 . S
C978 C977 1.313 1_545 S
C978 C990 1.349 . S
C979 C977 1.334 . S
C979 C995 1.429 1_565 S
C979 H1001 0.950 . S
C980 H976 0.949 . S
C980 C988 1.574 . S
C980 C996 1.368 . S
H981 C989 0.950 . S
H982 C987 0.950 . S
H983 C988 0.949 . S
H984 C990 0.950 . S
H985 C991 0.950 . S
H986 C992 0.949 . S
C987 H982 0.950 . S
C987 C989 1.327 . S
C987 C993 1.429 1_565 S
C988 C980 1.574 . S
C988 H983 0.949 . S
C988 C994 1.368 . S
C989 C973 1.349 1_565 S
C989 H981 0.950 . S
C989 C987 1.327 . S
C990 C978 1.349 . S
C990 H984 0.950 . S
C990 C991 1.327 . S
C991 H985 0.950 . S
C991 C990 1.327 . S
C991 C995 1.429 . S
C992 C975 1.574 . S
C992 H986 0.949 . S
C992 C996 1.368 1_565 S
C993 C974 1.429 . S
C993 C987 1.429 1_545 S
C993 C994 1.523 . S
C994 C975 1.368 1_545 S
C994 C988 1.368 . S
C994 C993 1.523 . S
C995 C979 1.429 1_545 S
C995 C991 1.429 . S
C995 C996 1.523 . S
C996 C980 1.368 . S
C996 C992 1.368 1_545 S
C996 C995 1.523 . S
H997 C972 0.950 . S
H998 C974 0.950 . S
H999 C975 0.949 . S
H1000 C977 0.982 . S
H1001 C979 0.950 . S
C1002 C1003 1.349 . S
C1002 C1004 1.327 . S
C1002 H1027 0.950 . S
C1003 C1002 1.349 . S
C1003 C1019 1.349 . S
C1004 C1002 1.327 . S
C1004 C1023 1.429 . S
C1004 H1028 0.950 . S
C1005 C1022 1.574 . S
C1005 C1024 1.368 . S
C1005 H1029 0.949 . S
H1006 C1010 0.949 . S
C1007 C1008 1.349 . S
C1007 C1009 1.327 . S
C1007 H1030 0.950 . S
C1008 C1007 1.349 . S
C1008 C1020 1.349 . S
C1009 C1007 1.327 . S
C1009 C1025 1.429 . S
C1009 H1031 0.950 . S
C1010 H1006 0.949 . S
C1010 C1018 1.574 . S
C1010 C1026 1.368 . S
H1011 C1019 0.950 . S
H1012 C1017 0.950 . S
H1013 C1018 0.949 . S
H1014 C1020 0.950 . S
H1015 C1021 0.950 . S
H1016 C1022 0.949 . S
C1017 H1012 0.950 . S
C1017 C1019 1.327 . S
C1017 C1023 1.429 . S
C1018 C1010 1.574 . S
C1018 H1013 0.949 . S
C1018 C1024 1.368 . S
C1019 C1003 1.349 . S
C1019 H1011 0.950 . S
C1019 C1017 1.327 . S
C1020 C1008 1.349 . S
C1020 H1014 0.950 . S
C1020 C1021 1.327 . S
C1021 H1015 0.950 . S
C1021 C1020 1.327 . S
C1021 C1025 1.429 . S
C1022 C1005 1.574 . S
C1022 H1016 0.949 . S
C1022 C1026 1.368 . S
C1023 C1004 1.429 . S
C1023 C1017 1.429 . S
C1023 C1024 1.523 . S
C1024 C1005 1.368 . S
C1024 C1018 1.368 . S
C1024 C1023 1.523 . S
C1025 C1009 1.429 . S
C1025 C1021 1.429 . S
C1025 C1026 1.523 . S
C1026 C1010 1.368 . S
C1026 C1022 1.368 . S
C1026 C1025 1.523 . S
H1027 C1002 0.950 . S
H1028 C1004 0.950 . S
H1029 C1005 0.949 . S
H1030 C1007 0.950 . S
H1031 C1009 0.950 . S
C1032 C1033 1.349 . S
C1032 C1034 1.327 . S
C1032 H1057 0.950 . S
C1033 C1032 1.349 . S
C1033 C1049 1.349 1_545 S
C1034 C1032 1.327 . S
C1034 C1053 1.429 . S
C1034 H1058 0.950 . S
C1035 C1052 1.574 . S
C1035 C1054 1.368 1_565 S
C1035 H1059 0.949 . S
H1036 C1040 0.949 . S
C1037 C1038 1.349 1_565 S
C1037 C1039 1.327 . S
C1037 H1060 0.950 . S
C1038 C1037 1.349 1_545 S
C1038 C1050 1.349 . S
C1039 C1037 1.327 . S
C1039 C1055 1.429 1_565 S
C1039 H1061 0.950 . S
C1040 H1036 0.949 . S
C1040 C1048 1.574 . S
C1040 C1056 1.368 . S
H1041 C1049 0.950 . S
H1042 C1047 0.950 . S
H1043 C1048 0.949 . S
H1044 C1050 0.950 . S
H1045 C1051 0.950 . S
H1046 C1052 0.949 . S
C1047 H1042 0.950 . S
C1047 C1049 1.327 . S
C1047 C1053 1.429 1_565 S
C1048 C1040 1.574 . S
C1048 H1043 0.949 . S
C1048 C1054 1.368 . S
C1049 C1033 1.349 1_565 S
C1049 H1041 0.950 . S
C1049 C1047 1.327 . S
C1050 C1038 1.349 . S
C1050 H1044 0.950 . S
C1050 C1051 1.327 . S
C1051 H1045 0.950 . S
C1051 C1050 1.327 . S
C1051 C1055 1.429 . S
C1052 C1035 1.574 . S
C1052 H1046 0.949 . S
C1052 C1056 1.368 1_565 S
C1053 C1034 1.429 . S
C1053 C1047 1.429 1_545 S
C1053 C1054 1.523 . S
C1054 C1035 1.368 1_545 S
C1054 C1048 1.368 . S
C1054 C1053 1.523 . S
C1055 C1039 1.429 1_545 S
C1055 C1051 1.429 . S
C1055 C1056 1.523 . S
C1056 C1040 1.368 . S
C1056 C1052 1.368 1_545 S
C1056 C1055 1.523 . S
H1057 C1032 0.950 . S
H1058 C1034 0.950 . S
H1059 C1035 0.949 . S
H1060 C1037 0.950 . S
H1061 C1039 0.950 . S
C1062 C1063 1.349 . S
C1062 C1064 1.327 . S
C1062 H1087 0.950 . S
C1063 C1062 1.349 . S
C1063 C1079 1.349 . S
C1064 C1062 1.327 . S
C1064 C1083 1.429 . S
C1064 H1088 0.950 . S
C1065 C1082 1.574 . S
C1065 C1084 1.368 . S
C1065 H1089 0.949 . S
H1066 C1070 0.949 . S
C1067 C1068 1.349 . S
C1067 C1069 1.327 . S
C1067 H1090 0.950 . S
C1068 C1067 1.349 . S
C1068 C1080 1.349 . S
C1069 C1067 1.327 . S
C1069 C1085 1.429 . S
C1069 H1091 0.950 . S
C1070 H1066 0.949 . S
C1070 C1078 1.574 . S
C1070 C1086 1.368 . S
H1071 C1079 0.950 . S
H1072 C1077 0.950 . S
H1073 C1078 0.949 . S
H1074 C1080 0.950 . S
H1075 C1081 0.950 . S
H1076 C1082 0.949 . S
C1077 H1072 0.950 . S
C1077 C1079 1.327 . S
C1077 C1083 1.429 . S
C1078 C1070 1.574 . S
C1078 H1073 0.949 . S
C1078 C1084 1.368 . S
C1079 C1063 1.349 . S
C1079 H1071 0.950 . S
C1079 C1077 1.327 . S
C1080 C1068 1.349 . S
C1080 H1074 0.950 . S
C1080 C1081 1.327 . S
C1081 H1075 0.950 . S
C1081 C1080 1.327 . S
C1081 C1085 1.429 . S
C1082 C1065 1.574 . S
C1082 H1076 0.949 . S
C1082 C1086 1.368 . S
C1083 C1064 1.429 . S
C1083 C1077 1.429 . S
C1083 C1084 1.523 . S
C1084 C1065 1.368 . S
C1084 C1078 1.368 . S
C1084 C1083 1.523 . S
C1085 C1069 1.429 . S
C1085 C1081 1.429 . S
C1085 C1086 1.523 . S
C1086 C1070 1.368 . S
C1086 C1082 1.368 . S
C1086 C1085 1.523 . S
H1087 C1062 0.950 . S
H1088 C1064 0.950 . S
H1089 C1065 0.949 . S
H1090 C1067 0.950 . S
H1091 C1069 0.950 . S
C1092 C1093 1.349 1_565 S
C1092 C1094 1.327 . S
C1092 H1117 0.950 . S
C1093 C1092 1.349 1_545 S
C1093 C1109 1.349 . S
C1094 C1092 1.327 . S
C1094 C1113 1.429 1_565 S
C1094 H1118 0.950 . S
C1095 C1112 1.574 . S
C1095 C1114 1.368 . S
C1095 H1119 0.949 . S
H1096 C1100 0.949 . S
C1097 C1098 1.349 1_545 S
C1097 C1099 1.327 . S
C1097 H1120 0.950 . S
C1098 C1097 1.349 1_565 S
C1098 C1110 1.349 . S
C1099 C1097 1.327 . S
C1099 C1115 1.425 1_545 S
C1099 H1121 0.950 . S
C1100 H1096 0.949 . S
C1100 C1108 1.574 . S
C1100 C1116 1.351 1_565 S
H1101 C1109 0.950 . S
H1102 C1107 0.950 . S
H1103 C1108 0.949 . S
H1104 C1110 0.950 . S
H1105 C1111 0.950 . S
H1106 C1112 0.949 . S
C1107 H1102 0.950 . S
C1107 C1109 1.327 . S
C1107 C1113 1.429 . S
C1108 C1100 1.574 . S
C1108 H1103 0.949 . S
C1108 C1114 1.368 1_565 S
C1109 C1093 1.349 . S
C1109 H1101 0.950 . S
C1109 C1107 1.327 . S
C1110 C1098 1.349 . S
C1110 H1104 0.950 . S
C1110 C1111 1.327 . S
C1111 H1105 0.950 . S
C1111 C1110 1.327 . S
C1111 C1115 1.433 . S
C1112 C1095 1.574 . S
C1112 H1106 0.949 . S
C1112 C1116 1.389 . S
C1113 C1094 1.429 1_545 S
C1113 C1107 1.429 . S
C1113 C1114 1.523 . S
C1114 C1095 1.368 . S
C1114 C1108 1.368 1_545 S
C1114 C1113 1.523 . S
C1115 C1099 1.425 1_565 S
C1115 C1111 1.433 . S
C1115 C1116 1.519 1_565 S
C1116 C1100 1.351 1_545 S
C1116 C1112 1.389 . S
C1116 C1115 1.519 1_545 S
H1117 C1092 0.950 . S
H1118 C1094 0.950 . S
H1119 C1095 0.949 . S
H1120 C1097 0.950 . S
H1121 C1099 0.950 . S
C1122 C1123 1.349 . S
C1122 C1124 1.327 . S
C1122 H1147 0.950 . S
C1123 C1122 1.349 . S
C1123 C1139 1.349 . S
C1124 C1122 1.327 . S
C1124 C1143 1.429 . S
C1124 H1148 0.950 . S
C1125 C1142 1.574 . S
C1125 C1144 1.368 . S
C1125 H1149 0.949 . S
H1126 C1130 0.949 . S
C1127 C1128 1.349 . S
C1127 C1129 1.327 . S
C1127 H1150 0.950 . S
C1128 C1127 1.349 . S
C1128 C1140 1.349 . S
C1129 C1127 1.327 . S
C1129 C1145 1.429 . S
C1129 H1151 0.950 . S
C1130 H1126 0.949 . S
C1130 C1138 1.574 . S
C1130 C1146 1.368 . S
H1131 C1139 0.950 . S
H1132 C1137 0.950 . S
H1133 C1138 0.949 . S
H1134 C1140 0.950 . S
H1135 C1141 0.950 . S
H1136 C1142 0.949 . S
C1137 H1132 0.950 . S
C1137 C1139 1.327 . S
C1137 C1143 1.429 . S
C1138 C1130 1.574 . S
C1138 H1133 0.949 . S
C1138 C1144 1.368 . S
C1139 C1123 1.349 . S
C1139 H1131 0.950 . S
C1139 C1137 1.327 . S
C1140 C1128 1.349 . S
C1140 H1134 0.950 . S
C1140 C1141 1.327 . S
C1141 H1135 0.950 . S
C1141 C1140 1.327 . S
C1141 C1145 1.429 . S
C1142 C1125 1.574 . S
C1142 H1136 0.949 . S
C1142 C1146 1.368 . S
C1143 C1124 1.429 . S
C1143 C1137 1.429 . S
C1143 C1144 1.523 . S
C1144 C1125 1.368 . S
C1144 C1138 1.368 . S
C1144 C1143 1.523 . S
C1145 C1129 1.429 . S
C1145 C1141 1.429 . S
C1145 C1146 1.523 . S
C1146 C1130 1.368 . S
C1146 C1142 1.368 . S
C1146 C1145 1.523 . S
H1147 C1122 0.950 . S
H1148 C1124 0.950 . S
H1149 C1125 0.949 . S
H1150 C1127 0.950 . S
H1151 C1129 0.950 . S
C1152 C1153 1.349 . S
C1152 C1154 1.327 . S
C1152 H1177 0.950 . S
C1153 C1152 1.349 . S
C1153 C1169 1.349 1_554 S
C1154 C1152 1.327 . S
C1154 C1173 1.429 . S
C1154 H1178 0.950 . S
C1155 C1172 1.574 . S
C1155 C1174 1.368 1_556 S
C1155 H1179 0.949 . S
H1156 C1160 0.949 . S
C1157 C1158 1.314 1_556 S
C1157 C1159 1.327 . S
C1157 H1180 0.950 . S
C1158 C1157 1.314 1_554 S
C1158 C1170 1.386 . S
C1159 C1157 1.327 . S
C1159 C1175 1.429 1_556 S
C1159 H1181 0.950 . S
C1160 H1156 0.949 . S
C1160 C1168 1.574 . S
C1160 C1176 1.368 . S
H1161 C1169 0.950 . S
H1162 C1167 0.950 . S
H1163 C1168 0.949 . S
H1164 C1170 0.950 . S
H1165 C1171 0.950 . S
H1166 C1172 0.949 . S
C1167 H1162 0.950 . S
C1167 C1169 1.327 . S
C1167 C1173 1.429 1_556 S
C1168 C1160 1.574 . S
C1168 H1163 0.949 . S
C1168 C1174 1.368 . S
C1169 C1153 1.349 1_556 S
C1169 H1161 0.950 . S
C1169 C1167 1.327 . S
C1170 C1158 1.386 . S
C1170 H1164 0.950 . S
C1170 C1171 1.327 . S
C1171 H1165 0.950 . S
C1171 C1170 1.327 . S
C1171 C1175 1.429 . S
C1172 C1155 1.574 . S
C1172 H1166 0.949 . S
C1172 C1176 1.368 1_556 S
C1173 C1154 1.429 . S
C1173 C1167 1.429 1_554 S
C1173 C1174 1.523 . S
C1174 C1155 1.368 1_554 S
C1174 C1168 1.368 . S
C1174 C1173 1.523 . S
C1175 C1159 1.429 1_554 S
C1175 C1171 1.429 . S
C1175 C1176 1.523 . S
C1176 C1160 1.368 . S
C1176 C1172 1.368 1_554 S
C1176 C1175 1.523 . S
H1177 C1152 0.950 . S
H1178 C1154 0.950 . S
H1179 C1155 0.949 . S
H1180 C1157 0.950 . S
H1181 C1159 0.950 . S
C1182 C1183 1.349 . S
C1182 C1184 1.327 . S
C1182 H1207 0.950 . S
C1183 C1182 1.349 . S
C1183 C1199 1.349 1_554 S
C1184 C1182 1.327 . S
C1184 C1203 1.429 . S
C1184 H1208 0.950 . S
C1185 C1202 1.574 . S
C1185 C1204 1.368 1_556 S
C1185 H1209 0.949 . S
H1186 C1190 0.949 . S
C1187 C1188 1.349 1_556 S
C1187 C1189 1.327 . S
C1187 H1210 0.950 . S
C1188 C1187 1.349 1_554 S
C1188 C1200 1.349 . S
C1189 C1187 1.327 . S
C1189 C1205 1.429 1_556 S
C1189 H1211 0.950 . S
C1190 H1186 0.949 . S
C1190 C1198 1.574 . S
C1190 C1206 1.368 . S
H1191 C1199 0.950 . S
H1192 C1197 0.950 . S
H1193 C1198 0.949 . S
H1194 C1200 0.950 . S
H1195 C1201 0.950 . S
H1196 C1202 0.949 . S
C1197 H1192 0.950 . S
C1197 C1199 1.327 . S
C1197 C1203 1.429 1_556 S
C1198 C1190 1.574 . S
C1198 H1193 0.949 . S
C1198 C1204 1.368 . S
C1199 C1183 1.349 1_556 S
C1199 H1191 0.950 . S
C1199 C1197 1.327 . S
C1200 C1188 1.349 . S
C1200 H1194 0.950 . S
C1200 C1201 1.327 . S
C1201 H1195 0.950 . S
C1201 C1200 1.327 . S
C1201 C1205 1.429 . S
C1202 C1185 1.574 . S
C1202 H1196 0.949 . S
C1202 C1206 1.368 1_556 S
C1203 C1184 1.429 . S
C1203 C1197 1.429 1_554 S
C1203 C1204 1.523 . S
C1204 C1185 1.368 1_554 S
C1204 C1198 1.368 . S
C1204 C1203 1.523 . S
C1205 C1189 1.429 1_554 S
C1205 C1201 1.429 . S
C1205 C1206 1.523 . S
C1206 C1190 1.368 . S
C1206 C1202 1.368 1_554 S
C1206 C1205 1.523 . S
H1207 C1182 0.950 . S
H1208 C1184 0.950 . S
H1209 C1185 0.949 . S
H1210 C1187 0.950 . S
H1211 C1189 0.950 . S
C1212 C1213 1.349 . S
C1212 C1214 1.327 . S
C1212 H1237 0.950 . S
C1213 C1212 1.349 . S
C1213 C1229 1.349 . S
C1214 C1212 1.327 . S
C1214 C1233 1.429 . S
C1214 H1238 0.950 . S
C1215 C1232 1.574 . S
C1215 C1234 1.368 . S
C1215 H1239 0.949 . S
H1216 C1220 0.949 . S
C1217 C1218 1.349 . S
C1217 C1219 1.327 . S
C1217 H1240 0.950 . S
C1218 C1217 1.349 . S
C1218 C1230 1.349 . S
C1219 C1217 1.327 . S
C1219 C1235 1.429 . S
C1219 H1241 0.950 . S
C1220 H1216 0.949 . S
C1220 C1228 1.574 . S
C1220 C1236 1.368 . S
H1221 C1229 0.950 . S
H1222 C1227 0.950 . S
H1223 C1228 0.949 . S
H1224 C1230 0.950 . S
H1225 C1231 0.950 . S
H1226 C1232 0.949 . S
C1227 H1222 0.950 . S
C1227 C1229 1.327 . S
C1227 C1233 1.429 . S
C1228 C1220 1.574 . S
C1228 H1223 0.949 . S
C1228 C1234 1.368 . S
C1229 C1213 1.349 . S
C1229 H1221 0.950 . S
C1229 C1227 1.327 . S
C1230 C1218 1.349 . S
C1230 H1224 0.950 . S
C1230 C1231 1.327 . S
C1231 H1225 0.950 . S
C1231 C1230 1.327 . S
C1231 C1235 1.429 . S
C1232 C1215 1.574 . S
C1232 H1226 0.949 . S
C1232 C1236 1.368 . S
C1233 C1214 1.429 . S
C1233 C1227 1.429 . S
C1233 C1234 1.523 . S
C1234 C1215 1.368 . S
C1234 C1228 1.368 . S
C1234 C1233 1.523 . S
C1235 C1219 1.429 . S
C1235 C1231 1.429 . S
C1235 C1236 1.523 . S
C1236 C1220 1.368 . S
C1236 C1232 1.368 . S
C1236 C1235 1.523 . S
H1237 C1212 0.950 . S
H1238 C1214 0.950 . S
H1239 C1215 0.949 . S
H1240 C1217 0.950 . S
H1241 C1219 0.950 . S
C1242 C1243 1.349 . S
C1242 C1244 1.327 . S
C1242 H1267 0.950 . S
C1243 C1242 1.349 . S
C1243 C1259 1.349 . S
C1244 C1242 1.327 . S
C1244 C1263 1.429 . S
C1244 H1268 0.950 . S
C1245 C1262 1.574 . S
C1245 C1264 1.368 . S
C1245 H1269 0.949 . S
H1246 C1250 0.949 . S
C1247 C1248 1.349 . S
C1247 C1249 1.327 . S
C1247 H1270 0.950 . S
C1248 C1247 1.349 . S
C1248 C1260 1.349 . S
C1249 C1247 1.327 . S
C1249 C1265 1.429 . S
C1249 H1271 0.950 . S
C1250 H1246 0.949 . S
C1250 C1258 1.574 . S
C1250 C1266 1.368 . S
H1251 C1259 0.950 . S
H1252 C1257 0.950 . S
H1253 C1258 0.949 . S
H1254 C1260 0.950 . S
H1255 C1261 0.950 . S
H1256 C1262 0.949 . S
C1257 H1252 0.950 . S
C1257 C1259 1.327 . S
C1257 C1263 1.429 . S
C1258 C1250 1.574 . S
C1258 H1253 0.949 . S
C1258 C1264 1.368 . S
C1259 C1243 1.349 . S
C1259 H1251 0.950 . S
C1259 C1257 1.327 . S
C1260 C1248 1.349 . S
C1260 H1254 0.950 . S
C1260 C1261 1.327 . S
C1261 H1255 0.950 . S
C1261 C1260 1.327 . S
C1261 C1265 1.429 . S
C1262 C1245 1.574 . S
C1262 H1256 0.949 . S
C1262 C1266 1.368 . S
C1263 C1244 1.429 . S
C1263 C1257 1.429 . S
C1263 C1264 1.523 . S
C1264 C1245 1.368 . S
C1264 C1258 1.368 . S
C1264 C1263 1.523 . S
C1265 C1249 1.429 . S
C1265 C1261 1.429 . S
C1265 C1266 1.523 . S
C1266 C1250 1.368 . S
C1266 C1262 1.368 . S
C1266 C1265 1.523 . S
H1267 C1242 0.950 . S
H1268 C1244 0.950 . S
H1269 C1245 0.949 . S
H1270 C1247 0.950 . S
H1271 C1249 0.950 . S
C1272 C1273 1.349 . S
C1272 C1274 1.327 . S
C1272 H1297 0.950 . S
C1273 C1272 1.349 . S
C1273 C1289 1.349 . S
C1274 C1272 1.327 . S
C1274 C1293 1.429 . S
C1274 H1298 0.950 . S
C1275 C1292 1.574 . S
C1275 C1294 1.368 . S
C1275 H1299 0.949 . S
H1276 C1280 0.949 . S
C1277 C1278 1.349 . S
C1277 C1279 1.327 . S
C1277 H1300 0.950 . S
C1278 C1277 1.349 . S
C1278 C1290 1.349 . S
C1279 C1277 1.327 . S
C1279 C1295 1.429 . S
C1279 H1301 0.950 . S
C1280 H1276 0.949 . S
C1280 C1288 1.574 . S
C1280 C1296 1.368 . S
H1281 C1289 0.950 . S
H1282 C1287 0.950 . S
H1283 C1288 0.949 . S
H1284 C1290 0.950 . S
H1285 C1291 0.950 . S
H1286 C1292 0.949 . S
C1287 H1282 0.950 . S
C1287 C1289 1.327 . S
C1287 C1293 1.429 . S
C1288 C1280 1.574 . S
C1288 H1283 0.949 . S
C1288 C1294 1.368 . S
C1289 C1273 1.349 . S
C1289 H1281 0.950 . S
C1289 C1287 1.327 . S
C1290 C1278 1.349 . S
C1290 H1284 0.950 . S
C1290 C1291 1.327 . S
C1291 H1285 0.950 . S
C1291 C1290 1.327 . S
C1291 C1295 1.429 . S
C1292 C1275 1.574 . S
C1292 H1286 0.949 . S
C1292 C1296 1.368 . S
C1293 C1274 1.429 . S
C1293 C1287 1.429 . S
C1293 C1294 1.523 . S
C1294 C1275 1.368 . S
C1294 C1288 1.368 . S
C1294 C1293 1.523 . S
C1295 C1279 1.429 . S
C1295 C1291 1.429 . S
C1295 C1296 1.523 . S
C1296 C1280 1.368 . S
C1296 C1292 1.368 . S
C1296 C1295 1.523 . S
H1297 C1272 0.950 . S
H1298 C1274 0.950 . S
H1299 C1275 0.949 . S
H1300 C1277 0.950 . S
H1301 C1279 0.950 . S
C1302 C1303 1.349 . S
C1302 C1304 1.327 . S
C1302 H1327 0.950 . S
C1303 C1302 1.349 . S
C1303 C1319 1.349 . S
C1304 C1302 1.327 . S
C1304 C1323 1.429 . S
C1304 H1328 0.950 . S
C1305 C1322 1.574 . S
C1305 C1324 1.368 . S
C1305 H1329 0.949 . S
H1306 C1310 0.949 . S
C1307 C1308 1.349 . S
C1307 C1309 1.327 . S
C1307 H1330 0.950 . S
C1308 C1307 1.349 . S
C1308 C1320 1.349 . S
C1309 C1307 1.327 . S
C1309 C1325 1.429 . S
C1309 H1331 0.950 . S
C1310 H1306 0.949 . S
C1310 C1318 1.574 . S
C1310 C1326 1.368 . S
H1311 C1319 0.950 . S
H1312 C1317 0.950 . S
H1313 C1318 0.949 . S
H1314 C1320 0.950 . S
H1315 C1321 0.950 . S
H1316 C1322 0.949 . S
C1317 H1312 0.950 . S
C1317 C1319 1.327 . S
C1317 C1323 1.429 . S
C1318 C1310 1.574 . S
C1318 H1313 0.949 . S
C1318 C1324 1.368 . S
C1319 C1303 1.349 . S
C1319 H1311 0.950 . S
C1319 C1317 1.327 . S
C1320 C1308 1.349 . S
C1320 H1314 0.950 . S
C1320 C1321 1.327 . S
C1321 H1315 0.950 . S
C1321 C1320 1.327 . S
C1321 C1325 1.429 . S
C1322 C1305 1.574 . S
C1322 H1316 0.949 . S
C1322 C1326 1.368 . S
C1323 C1304 1.429 . S
C1323 C1317 1.429 . S
C1323 C1324 1.523 . S
C1324 C1305 1.368 . S
C1324 C1318 1.368 . S
C1324 C1323 1.523 . S
C1325 C1309 1.429 . S
C1325 C1321 1.429 . S
C1325 C1326 1.523 . S
C1326 C1310 1.368 . S
C1326 C1322 1.368 . S
C1326 C1325 1.523 . S
H1327 C1302 0.950 . S
H1328 C1304 0.950 . S
H1329 C1305 0.949 . S
H1330 C1307 0.950 . S
H1331 C1309 0.950 . S
C1332 C1333 1.349 . S
C1332 C1334 1.327 . S
C1332 H1357 0.950 . S
C1333 C1332 1.349 . S
C1333 C1349 1.349 . S
C1334 C1332 1.327 . S
C1334 C1353 1.429 . S
C1334 H1358 0.950 . S
C1335 C1352 1.574 . S
C1335 C1354 1.368 . S
C1335 H1359 0.949 . S
H1336 C1340 0.949 . S
C1337 C1338 1.349 . S
C1337 C1339 1.327 . S
C1337 H1360 0.950 . S
C1338 C1337 1.349 . S
C1338 C1350 1.349 . S
C1339 C1337 1.327 . S
C1339 C1355 1.429 . S
C1339 H1361 0.950 . S
C1340 H1336 0.949 . S
C1340 C1348 1.574 . S
C1340 C1356 1.368 . S
H1341 C1349 0.950 . S
H1342 C1347 0.950 . S
H1343 C1348 0.949 . S
H1344 C1350 0.950 . S
H1345 C1351 0.950 . S
H1346 C1352 0.949 . S
C1347 H1342 0.950 . S
C1347 C1349 1.327 . S
C1347 C1353 1.429 . S
C1348 C1340 1.574 . S
C1348 H1343 0.949 . S
C1348 C1354 1.368 . S
C1349 C1333 1.349 . S
C1349 H1341 0.950 . S
C1349 C1347 1.327 . S
C1350 C1338 1.349 . S
C1350 H1344 0.950 . S
C1350 C1351 1.327 . S
C1351 H1345 0.950 . S
C1351 C1350 1.327 . S
C1351 C1355 1.429 . S
C1352 C1335 1.574 . S
C1352 H1346 0.949 . S
C1352 C1356 1.368 . S
C1353 C1334 1.429 . S
C1353 C1347 1.429 . S
C1353 C1354 1.523 . S
C1354 C1335 1.368 . S
C1354 C1348 1.368 . S
C1354 C1353 1.523 . S
C1355 C1339 1.429 . S
C1355 C1351 1.429 . S
C1355 C1356 1.523 . S
C1356 C1340 1.368 . S
C1356 C1352 1.368 . S
C1356 C1355 1.523 . S
H1357 C1332 0.950 . S
H1358 C1334 0.950 . S
H1359 C1335 0.949 . S
H1360 C1337 0.950 . S
H1361 C1339 0.950 . S
C1362 C1363 1.349 . S
C1362 C1364 1.327 . S
C1362 H1387 0.950 . S
C1363 C1362 1.349 . S
C1363 C1379 1.349 . S
C1364 C1362 1.327 . S
C1364 C1383 1.429 . S
C1364 H1388 0.950 . S
C1365 C1382 1.574 . S
C1365 C1384 1.368 . S
C1365 H1389 0.949 . S
H1366 C1370 0.949 . S
C1367 C1368 1.349 . S
C1367 C1369 1.327 . S
C1367 H1390 0.950 . S
C1368 C1367 1.349 . S
C1368 C1380 1.349 . S
C1369 C1367 1.327 . S
C1369 C1385 1.429 . S
C1369 H1391 0.950 . S
C1370 H1366 0.949 . S
C1370 C1378 1.574 . S
C1370 C1386 1.368 . S
H1371 C1379 0.950 . S
H1372 C1377 0.950 . S
H1373 C1378 0.949 . S
H1374 C1380 0.950 . S
H1375 C1381 0.950 . S
H1376 C1382 0.949 . S
C1377 H1372 0.950 . S
C1377 C1379 1.327 . S
C1377 C1383 1.429 . S
C1378 C1370 1.574 . S
C1378 H1373 0.949 . S
C1378 C1384 1.368 . S
C1379 C1363 1.349 . S
C1379 H1371 0.950 . S
C1379 C1377 1.327 . S
C1380 C1368 1.349 . S
C1380 H1374 0.950 . S
C1380 C1381 1.327 . S
C1381 H1375 0.950 . S
C1381 C1380 1.327 . S
C1381 C1385 1.429 . S
C1382 C1365 1.574 . S
C1382 H1376 0.949 . S
C1382 C1386 1.368 . S
C1383 C1364 1.429 . S
C1383 C1377 1.429 . S
C1383 C1384 1.523 . S
C1384 C1365 1.368 . S
C1384 C1378 1.368 . S
C1384 C1383 1.523 . S
C1385 C1369 1.429 . S
C1385 C1381 1.429 . S
C1385 C1386 1.523 . S
C1386 C1370 1.368 . S
C1386 C1382 1.368 . S
C1386 C1385 1.523 . S
H1387 C1362 0.950 . S
H1388 C1364 0.950 . S
H1389 C1365 0.949 . S
H1390 C1367 0.950 . S
H1391 C1369 0.950 . S
C1392 C1393 1.349 1_655 S
C1392 C1394 1.327 . S
C1392 H1417 0.950 . S
C1393 C1392 1.349 1_455 S
C1393 C1409 1.349 . S
C1394 C1392 1.327 . S
C1394 C1413 1.429 1_655 S
C1394 H1418 0.950 . S
C1395 C1412 1.574 . S
C1395 C1414 1.368 . S
C1395 H1419 0.949 . S
H1396 C1400 0.949 . S
C1397 C1398 1.349 . S
C1397 C1399 1.327 . S
C1397 H1420 0.950 . S
C1398 C1397 1.349 . S
C1398 C1410 1.349 1_455 S
C1399 C1397 1.327 . S
C1399 C1415 1.429 . S
C1399 H1421 0.950 . S
C1400 H1396 0.949 . S
C1400 C1408 1.574 . S
C1400 C1416 1.368 1_655 S
H1401 C1409 0.950 . S
H1402 C1407 0.950 . S
H1403 C1408 0.949 . S
H1404 C1410 0.950 . S
H1405 C1411 0.950 . S
H1406 C1412 0.949 . S
C1407 H1402 0.950 . S
C1407 C1409 1.327 . S
C1407 C1413 1.429 . S
C1408 C1400 1.574 . S
C1408 H1403 0.949 . S
C1408 C1414 1.368 1_655 S
C1409 C1393 1.349 . S
C1409 H1401 0.950 . S
C1409 C1407 1.327 . S
C1410 C1398 1.349 1_655 S
C1410 H1404 0.950 . S
C1410 C1411 1.327 . S
C1411 H1405 0.950 . S
C1411 C1410 1.327 . S
C1411 C1415 1.429 1_655 S
C1412 C1395 1.574 . S
C1412 H1406 0.949 . S
C1412 C1416 1.368 . S
C1413 C1394 1.429 1_455 S
C1413 C1407 1.429 . S
C1413 C1414 1.523 . S
C1414 C1395 1.368 . S
C1414 C1408 1.368 1_455 S
C1414 C1413 1.523 . S
C1415 C1399 1.429 . S
C1415 C1411 1.429 1_455 S
C1415 C1416 1.523 . S
C1416 C1400 1.368 1_455 S
C1416 C1412 1.368 . S
C1416 C1415 1.523 . S
H1417 C1392 0.950 . S
H1418 C1394 0.950 . S
H1419 C1395 0.949 . S
H1420 C1397 0.950 . S
H1421 C1399 0.950 . S
C1422 C1423 1.349 . S
C1422 C1424 1.327 . S
C1422 H1447 0.950 . S
C1423 C1422 1.349 . S
C1423 C1439 1.349 . S
C1424 C1422 1.327 . S
C1424 C1443 1.429 . S
C1424 H1448 0.950 . S
C1425 C1442 1.574 . S
C1425 C1444 1.368 . S
C1425 H1449 0.949 . S
H1426 C1430 0.949 . S
C1427 C1428 1.349 . S
C1427 C1429 1.327 . S
C1427 H1450 0.950 . S
C1428 C1427 1.349 . S
C1428 C1440 1.349 . S
C1429 C1427 1.327 . S
C1429 C1445 1.429 . S
C1429 H1451 0.950 . S
C1430 H1426 0.949 . S
C1430 C1438 1.574 . S
C1430 C1446 1.368 . S
H1431 C1439 0.950 . S
H1432 C1437 0.950 . S
H1433 C1438 0.949 . S
H1434 C1440 0.950 . S
H1435 C1441 0.950 . S
H1436 C1442 0.949 . S
C1437 H1432 0.950 . S
C1437 C1439 1.327 . S
C1437 C1443 1.429 . S
C1438 C1430 1.574 . S
C1438 H1433 0.949 . S
C1438 C1444 1.368 . S
C1439 C1423 1.349 . S
C1439 H1431 0.950 . S
C1439 C1437 1.327 . S
C1440 C1428 1.349 . S
C1440 H1434 0.950 . S
C1440 C1441 1.327 . S
C1441 H1435 0.950 . S
C1441 C1440 1.327 . S
C1441 C1445 1.429 . S
C1442 C1425 1.574 . S
C1442 H1436 0.949 . S
C1442 C1446 1.368 . S
C1443 C1424 1.429 . S
C1443 C1437 1.429 . S
C1443 C1444 1.523 . S
C1444 C1425 1.368 . S
C1444 C1438 1.368 . S
C1444 C1443 1.523 . S
C1445 C1429 1.429 . S
C1445 C1441 1.429 . S
C1445 C1446 1.523 . S
C1446 C1430 1.368 . S
C1446 C1442 1.368 . S
C1446 C1445 1.523 . S
H1447 C1422 0.950 . S
H1448 C1424 0.950 . S
H1449 C1425 0.949 . S
H1450 C1427 0.950 . S
H1451 C1429 0.950 . S
C1452 C1453 1.349 . S
C1452 C1454 1.327 . S
C1452 H1477 0.950 . S
C1453 C1452 1.349 . S
C1453 C1469 1.349 . S
C1454 C1452 1.327 . S
C1454 C1473 1.429 . S
C1454 H1478 0.950 . S
C1455 C1472 1.574 . S
C1455 C1474 1.368 . S
C1455 H1479 0.949 . S
H1456 C1460 0.949 . S
C1457 C1458 1.349 . S
C1457 C1459 1.327 . S
C1457 H1480 0.950 . S
C1458 C1457 1.349 . S
C1458 C1470 1.349 . S
C1459 C1457 1.327 . S
C1459 C1475 1.429 . S
C1459 H1481 0.950 . S
C1460 H1456 0.949 . S
C1460 C1468 1.574 . S
C1460 C1476 1.368 . S
H1461 C1469 0.950 . S
H1462 C1467 0.950 . S
H1463 C1468 0.949 . S
H1464 C1470 0.950 . S
H1465 C1471 0.950 . S
H1466 C1472 0.949 . S
C1467 H1462 0.950 . S
C1467 C1469 1.327 . S
C1467 C1473 1.429 . S
C1468 C1460 1.574 . S
C1468 H1463 0.949 . S
C1468 C1474 1.368 . S
C1469 C1453 1.349 . S
C1469 H1461 0.950 . S
C1469 C1467 1.327 . S
C1470 C1458 1.349 . S
C1470 H1464 0.950 . S
C1470 C1471 1.327 . S
C1471 H1465 0.950 . S
C1471 C1470 1.327 . S
C1471 C1475 1.429 . S
C1472 C1455 1.574 . S
C1472 H1466 0.949 . S
C1472 C1476 1.368 . S
C1473 C1454 1.429 . S
C1473 C1467 1.429 . S
C1473 C1474 1.523 . S
C1474 C1455 1.368 . S
C1474 C1468 1.368 . S
C1474 C1473 1.523 . S
C1475 C1459 1.429 . S
C1475 C1471 1.429 . S
C1475 C1476 1.523 . S
C1476 C1460 1.368 . S
C1476 C1472 1.368 . S
C1476 C1475 1.523 . S
H1477 C1452 0.950 . S
H1478 C1454 0.950 . S
H1479 C1455 0.949 . S
H1480 C1457 0.950 . S
H1481 C1459 0.950 . S
C1482 C1483 1.349 . S
C1482 C1484 1.327 . S
C1482 H1507 0.950 . S
C1483 C1482 1.349 . S
C1483 C1499 1.349 . S
C1484 C1482 1.327 . S
C1484 C1503 1.429 . S
C1484 H1508 0.950 . S
C1485 C1502 1.574 . S
C1485 C1504 1.368 . S
C1485 H1509 0.949 . S
H1486 C1490 0.949 . S
C1487 C1488 1.349 . S
C1487 C1489 1.327 . S
C1487 H1510 0.950 . S
C1488 C1487 1.349 . S
C1488 C1500 1.349 . S
C1489 C1487 1.327 . S
C1489 C1505 1.429 . S
C1489 H1511 0.950 . S
C1490 H1486 0.949 . S
C1490 C1498 1.574 . S
C1490 C1506 1.368 . S
H1491 C1499 0.950 . S
H1492 C1497 0.950 . S
H1493 C1498 0.949 . S
H1494 C1500 0.950 . S
H1495 C1501 0.950 . S
H1496 C1502 0.949 . S
C1497 H1492 0.950 . S
C1497 C1499 1.327 . S
C1497 C1503 1.429 . S
C1498 C1490 1.574 . S
C1498 H1493 0.949 . S
C1498 C1504 1.368 . S
C1499 C1483 1.349 . S
C1499 H1491 0.950 . S
C1499 C1497 1.327 . S
C1500 C1488 1.349 . S
C1500 H1494 0.950 . S
C1500 C1501 1.327 . S
C1501 H1495 0.950 . S
C1501 C1500 1.327 . S
C1501 C1505 1.429 . S
C1502 C1485 1.574 . S
C1502 H1496 0.949 . S
C1502 C1506 1.368 . S
C1503 C1484 1.429 . S
C1503 C1497 1.429 . S
C1503 C1504 1.523 . S
C1504 C1485 1.368 . S
C1504 C1498 1.368 . S
C1504 C1503 1.523 . S
C1505 C1489 1.429 . S
C1505 C1501 1.429 . S
C1505 C1506 1.523 . S
C1506 C1490 1.368 . S
C1506 C1502 1.368 . S
C1506 C1505 1.523 . S
H1507 C1482 0.950 . S
H1508 C1484 0.950 . S
H1509 C1485 0.949 . S
H1510 C1487 0.950 . S
H1511 C1489 0.950 . S
C1512 C1513 1.349 . S
C1512 C1514 1.327 . S
C1512 H1537 0.950 . S
C1513 C1512 1.349 . S
C1513 C1529 1.349 . S
C1514 C1512 1.327 . S
C1514 C1533 1.429 . S
C1514 H1538 0.950 . S
C1515 C1532 1.574 . S
C1515 C1534 1.368 . S
C1515 H1539 0.949 . S
H1516 C1520 0.949 . S
C1517 C1518 1.349 . S
C1517 C1519 1.327 . S
C1517 H1540 0.950 . S
C1518 C1517 1.349 . S
C1518 C1530 1.349 . S
C1519 C1517 1.327 . S
C1519 C1535 1.429 . S
C1519 H1541 0.950 . S
C1520 H1516 0.949 . S
C1520 C1528 1.574 . S
C1520 C1536 1.368 . S
H1521 C1529 0.950 . S
H1522 C1527 0.950 . S
H1523 C1528 0.949 . S
H1524 C1530 0.950 . S
H1525 C1531 0.950 . S
H1526 C1532 0.949 . S
C1527 H1522 0.950 . S
C1527 C1529 1.327 . S
C1527 C1533 1.429 . S
C1528 C1520 1.574 . S
C1528 H1523 0.949 . S
C1528 C1534 1.368 . S
C1529 C1513 1.349 . S
C1529 H1521 0.950 . S
C1529 C1527 1.327 . S
C1530 C1518 1.349 . S
C1530 H1524 0.950 . S
C1530 C1531 1.327 . S
C1531 H1525 0.950 . S
C1531 C1530 1.327 . S
C1531 C1535 1.429 . S
C1532 C1515 1.574 . S
C1532 H1526 0.949 . S
C1532 C1536 1.368 . S
C1533 C1514 1.429 . S
C1533 C1527 1.429 . S
C1533 C1534 1.523 . S
C1534 C1515 1.368 . S
C1534 C1528 1.368 . S
C1534 C1533 1.523 . S
C1535 C1519 1.429 . S
C1535 C1531 1.429 . S
C1535 C1536 1.523 . S
C1536 C1520 1.368 . S
C1536 C1532 1.368 . S
C1536 C1535 1.523 . S
H1537 C1512 0.950 . S
H1538 C1514 0.950 . S
H1539 C1515 0.949 . S
H1540 C1517 0.950 . S
H1541 C1519 0.950 . S
C1542 C1543 1.349 . S
C1542 C1544 1.327 . S
C1542 H1567 0.950 . S
C1543 C1542 1.349 . S
C1543 C1559 1.349 . S
C1544 C1542 1.327 . S
C1544 C1563 1.429 . S
C1544 H1568 0.950 . S
C1545 C1562 1.574 . S
C1545 C1564 1.368 . S
C1545 H1569 0.949 . S
H1546 C1550 0.949 . S
C1547 C1548 1.349 . S
C1547 C1549 1.327 . S
C1547 H1570 0.950 . S
C1548 C1547 1.349 . S
C1548 C1560 1.349 . S
C1549 C1547 1.327 . S
C1549 C1565 1.429 . S
C1549 H1571 0.950 . S
C1550 H1546 0.949 . S
C1550 C1558 1.574 . S
C1550 C1566 1.368 . S
H1551 C1559 0.950 . S
H1552 C1557 0.950 . S
H1553 C1558 0.949 . S
H1554 C1560 0.950 . S
H1555 C1561 0.950 . S
H1556 C1562 0.949 . S
C1557 H1552 0.950 . S
C1557 C1559 1.327 . S
C1557 C1563 1.429 . S
C1558 C1550 1.574 . S
C1558 H1553 0.949 . S
C1558 C1564 1.368 . S
C1559 C1543 1.349 . S
C1559 H1551 0.950 . S
C1559 C1557 1.327 . S
C1560 C1548 1.349 . S
C1560 H1554 0.950 . S
C1560 C1561 1.327 . S
C1561 H1555 0.950 . S
C1561 C1560 1.327 . S
C1561 C1565 1.429 . S
C1562 C1545 1.574 . S
C1562 H1556 0.949 . S
C1562 C1566 1.368 . S
C1563 C1544 1.429 . S
C1563 C1557 1.429 . S
C1563 C1564 1.523 . S
C1564 C1545 1.368 . S
C1564 C1558 1.368 . S
C1564 C1563 1.523 . S
C1565 C1549 1.429 . S
C1565 C1561 1.429 . S
C1565 C1566 1.523 . S
C1566 C1550 1.368 . S
C1566 C1562 1.368 . S
C1566 C1565 1.523 . S
H1567 C1542 0.950 . S
H1568 C1544 0.950 . S
H1569 C1545 0.949 . S
H1570 C1547 0.950 . S
H1571 C1549 0.950 . S
C1572 C1573 1.349 . S
C1572 C1574 1.327 . S
C1572 H1597 0.950 . S
C1573 C1572 1.349 . S
C1573 C1589 1.349 . S
C1574 C1572 1.327 . S
C1574 C1593 1.429 . S
C1574 H1598 0.950 . S
C1575 C1592 1.574 . S
C1575 C1594 1.368 . S
C1575 H1599 0.949 . S
H1576 C1580 0.949 . S
C1577 C1578 1.349 . S
C1577 C1579 1.327 . S
C1577 H1600 0.950 . S
C1578 C1577 1.349 . S
C1578 C1590 1.349 . S
C1579 C1577 1.327 . S
C1579 C1595 1.429 . S
C1579 H1601 0.950 . S
C1580 H1576 0.949 . S
C1580 C1588 1.574 . S
C1580 C1596 1.368 . S
H1581 C1589 0.950 . S
H1582 C1587 0.950 . S
H1583 C1588 0.949 . S
H1584 C1590 0.950 . S
H1585 C1591 0.950 . S
H1586 C1592 0.949 . S
C1587 H1582 0.950 . S
C1587 C1589 1.327 . S
C1587 C1593 1.429 . S
C1588 C1580 1.574 . S
C1588 H1583 0.949 . S
C1588 C1594 1.368 . S
C1589 C1573 1.349 . S
C1589 H1581 0.950 . S
C1589 C1587 1.327 . S
C1590 C1578 1.349 . S
C1590 H1584 0.950 . S
C1590 C1591 1.327 . S
C1591 H1585 0.950 . S
C1591 C1590 1.327 . S
C1591 C1595 1.429 . S
C1592 C1575 1.574 . S
C1592 H1586 0.949 . S
C1592 C1596 1.368 . S
C1593 C1574 1.429 . S
C1593 C1587 1.429 . S
C1593 C1594 1.523 . S
C1594 C1575 1.368 . S
C1594 C1588 1.368 . S
C1594 C1593 1.523 . S
C1595 C1579 1.429 . S
C1595 C1591 1.429 . S
C1595 C1596 1.523 . S
C1596 C1580 1.368 . S
C1596 C1592 1.368 . S
C1596 C1595 1.523 . S
H1597 C1572 0.950 . S
H1598 C1574 0.950 . S
H1599 C1575 0.949 . S
H1600 C1577 0.950 . S
H1601 C1579 0.950 . S
C1602 C1603 1.349 . S
C1602 C1604 1.327 . S
C1602 H1627 0.950 . S
C1603 C1602 1.349 . S
C1603 C1619 1.349 . S
C1604 C1602 1.327 . S
C1604 C1623 1.429 . S
C1604 H1628 0.950 . S
C1605 C1622 1.574 . S
C1605 C1624 1.368 . S
C1605 H1629 0.949 . S
H1606 C1610 0.949 . S
C1607 C1608 1.349 . S
C1607 C1609 1.327 . S
C1607 H1630 0.950 . S
C1608 C1607 1.349 . S
C1608 C1620 1.349 . S
C1609 C1607 1.327 . S
C1609 C1625 1.429 . S
C1609 H1631 0.950 . S
C1610 H1606 0.949 . S
C1610 C1618 1.574 . S
C1610 C1626 1.368 . S
H1611 C1619 0.950 . S
H1612 C1617 0.950 . S
H1613 C1618 0.949 . S
H1614 C1620 0.950 . S
H1615 C1621 0.950 . S
H1616 C1622 0.949 . S
C1617 H1612 0.950 . S
C1617 C1619 1.327 . S
C1617 C1623 1.429 . S
C1618 C1610 1.574 . S
C1618 H1613 0.949 . S
C1618 C1624 1.368 . S
C1619 C1603 1.349 . S
C1619 H1611 0.950 . S
C1619 C1617 1.327 . S
C1620 C1608 1.349 . S
C1620 H1614 0.950 . S
C1620 C1621 1.327 . S
C1621 H1615 0.950 . S
C1621 C1620 1.327 . S
C1621 C1625 1.429 . S
C1622 C1605 1.574 . S
C1622 H1616 0.949 . S
C1622 C1626 1.368 . S
C1623 C1604 1.429 . S
C1623 C1617 1.429 . S
C1623 C1624 1.523 . S
C1624 C1605 1.368 . S
C1624 C1618 1.368 . S
C1624 C1623 1.523 . S
C1625 C1609 1.429 . S
C1625 C1621 1.429 . S
C1625 C1626 1.523 . S
C1626 C1610 1.368 . S
C1626 C1622 1.368 . S
C1626 C1625 1.523 . S
H1627 C1602 0.950 . S
H1628 C1604 0.950 . S
H1629 C1605 0.949 . S
H1630 C1607 0.950 . S
H1631 C1609 0.950 . S
C1632 C1633 1.350 1_545 S
C1632 C1634 1.327 . S
C1632 H1657 0.950 . S
C1633 C1632 1.350 1_565 S
C1633 C1649 1.348 . S
C1634 C1632 1.327 . S
C1634 C1653 1.429 . S
C1634 H1658 0.950 . S
C1635 C1652 1.574 . S
C1635 C1654 1.368 1_565 S
C1635 H1659 0.949 . S
H1636 C1640 0.949 . S
C1637 C1638 1.349 1_565 S
C1637 C1639 1.327 . S
C1637 H1660 0.950 . S
C1638 C1637 1.349 1_545 S
C1638 C1650 1.349 . S
C1639 C1637 1.327 . S
C1639 C1655 1.429 1_565 S
C1639 H1661 0.950 . S
C1640 H1636 0.949 . S
C1640 C1648 1.574 . S
C1640 C1656 1.368 . S
H1641 C1649 0.950 . S
H1642 C1647 0.950 . S
H1643 C1648 0.949 . S
H1644 C1650 0.950 . S
H1645 C1651 0.950 . S
H1646 C1652 0.949 . S
C1647 H1642 0.950 . S
C1647 C1649 1.327 . S
C1647 C1653 1.429 1_565 S
C1648 C1640 1.574 . S
C1648 H1643 0.949 . S
C1648 C1654 1.368 . S
C1649 C1633 1.348 . S
C1649 H1641 0.950 . S
C1649 C1647 1.327 . S
C1650 C1638 1.349 . S
C1650 H1644 0.950 . S
C1650 C1651 1.327 . S
C1651 H1645 0.950 . S
C1651 C1650 1.327 . S
C1651 C1655 1.429 . S
C1652 C1635 1.574 . S
C1652 H1646 0.949 . S
C1652 C1656 1.368 1_565 S
C1653 C1634 1.429 . S
C1653 C1647 1.429 1_545 S
C1653 C1654 1.523 . S
C1654 C1635 1.368 1_545 S
C1654 C1648 1.368 . S
C1654 C1653 1.523 . S
C1655 C1639 1.429 1_545 S
C1655 C1651 1.429 . S
C1655 C1656 1.523 . S
C1656 C1640 1.368 . S
C1656 C1652 1.368 1_545 S
C1656 C1655 1.523 . S
H1657 C1632 0.950 . S
H1658 C1634 0.950 . S
H1659 C1635 0.949 . S
H1660 C1637 0.950 . S
H1661 C1639 0.950 . S
C1662 C1663 1.349 . S
C1662 C1664 1.327 . S
C1662 H1687 0.950 . S
C1663 C1662 1.349 . S
C1663 C1679 1.349 . S
C1664 C1662 1.327 . S
C1664 C1683 1.429 . S
C1664 H1688 0.950 . S
C1665 C1682 1.574 . S
C1665 C1684 1.368 . S
C1665 H1689 0.949 . S
H1666 C1670 0.949 . S
C1667 C1668 1.349 . S
C1667 C1669 1.327 . S
C1667 H1690 0.950 . S
C1668 C1667 1.349 . S
C1668 C1680 1.349 . S
C1669 C1667 1.327 . S
C1669 C1685 1.429 . S
C1669 H1691 0.950 . S
C1670 H1666 0.949 . S
C1670 C1678 1.574 . S
C1670 C1686 1.368 . S
H1671 C1679 0.950 . S
H1672 C1677 0.950 . S
H1673 C1678 0.949 . S
H1674 C1680 0.950 . S
H1675 C1681 0.950 . S
H1676 C1682 0.949 . S
C1677 H1672 0.950 . S
C1677 C1679 1.327 . S
C1677 C1683 1.429 . S
C1678 C1670 1.574 . S
C1678 H1673 0.949 . S
C1678 C1684 1.368 . S
C1679 C1663 1.349 . S
C1679 H1671 0.950 . S
C1679 C1677 1.327 . S
C1680 C1668 1.349 . S
C1680 H1674 0.950 . S
C1680 C1681 1.327 . S
C1681 H1675 0.950 . S
C1681 C1680 1.327 . S
C1681 C1685 1.429 . S
C1682 C1665 1.574 . S
C1682 H1676 0.949 . S
C1682 C1686 1.368 . S
C1683 C1664 1.429 . S
C1683 C1677 1.429 . S
C1683 C1684 1.523 . S
C1684 C1665 1.368 . S
C1684 C1678 1.368 . S
C1684 C1683 1.523 . S
C1685 C1669 1.429 . S
C1685 C1681 1.429 . S
C1685 C1686 1.523 . S
C1686 C1670 1.368 . S
C1686 C1682 1.368 . S
C1686 C1685 1.523 . S
H1687 C1662 0.950 . S
H1688 C1664 0.950 . S
H1689 C1665 0.949 . S
H1690 C1667 0.950 . S
H1691 C1669 0.950 . S
C1692 C1693 1.349 1_565 S
C1692 C1694 1.327 . S
C1692 H1717 0.950 . S
C1693 C1692 1.349 1_545 S
C1693 C1709 1.349 . S
C1694 C1692 1.327 . S
C1694 C1713 1.429 1_565 S
C1694 H1718 0.950 . S
C1695 C1712 1.574 . S
C1695 C1714 1.368 . S
C1695 H1719 0.949 . S
H1696 C1700 0.949 . S
C1697 C1698 1.349 1_545 S
C1697 C1699 1.327 . S
C1697 H1720 0.950 . S
C1698 C1697 1.349 1_565 S
C1698 C1710 1.349 . S
C1699 C1697 1.327 . S
C1699 C1715 1.409 1_545 S
C1699 H1721 0.950 . S
C1700 H1696 0.949 . S
C1700 C1708 1.574 . S
C1700 C1716 1.360 1_565 S
H1701 C1709 0.950 . S
H1702 C1707 0.950 . S
H1703 C1708 0.949 . S
H1704 C1710 0.950 . S
H1705 C1711 0.950 . S
H1706 C1712 0.949 . S
C1707 H1702 0.950 . S
C1707 C1709 1.327 . S
C1707 C1713 1.429 . S
C1708 C1700 1.574 . S
C1708 H1703 0.949 . S
C1708 C1714 1.368 1_565 S
C1709 C1693 1.349 . S
C1709 H1701 0.950 . S
C1709 C1707 1.327 . S
C1710 C1698 1.349 . S
C1710 H1704 0.950 . S
C1710 C1711 1.327 . S
C1711 H1705 0.950 . S
C1711 C1710 1.327 . S
C1711 C1715 1.456 . S
C1712 C1695 1.574 . S
C1712 H1706 0.949 . S
C1712 C1716 1.378 . S
C1713 C1694 1.429 1_545 S
C1713 C1707 1.429 . S
C1713 C1714 1.523 . S
C1714 C1695 1.368 . S
C1714 C1708 1.368 1_545 S
C1714 C1713 1.523 . S
C1715 C1699 1.409 1_565 S
C1715 C1711 1.456 . S
C1715 C1716 1.518 1_565 S
C1716 C1700 1.360 1_545 S
C1716 C1712 1.378 . S
C1716 C1715 1.518 1_545 S
H1717 C1692 0.950 . S
H1718 C1694 0.950 . S
H1719 C1695 0.949 . S
H1720 C1697 0.950 . S
H1721 C1699 0.950 . S
C1722 C1723 1.349 . S
C1722 C1724 1.327 . S
C1722 H1747 0.950 . S
C1723 C1722 1.349 . S
C1723 C1739 1.349 . S
C1724 C1722 1.327 . S
C1724 C1743 1.429 . S
C1724 H1748 0.950 . S
C1725 C1742 1.574 . S
C1725 C1744 1.368 . S
C1725 H1749 0.949 . S
H1726 C1730 0.949 . S
C1727 C1728 1.349 . S
C1727 C1729 1.327 . S
C1727 H1750 0.950 . S
C1728 C1727 1.349 . S
C1728 C1740 1.349 . S
C1729 C1727 1.327 . S
C1729 C1745 1.429 . S
C1729 H1751 0.950 . S
C1730 H1726 0.949 . S
C1730 C1738 1.574 . S
C1730 C1746 1.368 . S
H1731 C1739 0.950 . S
H1732 C1737 0.950 . S
H1733 C1738 0.949 . S
H1734 C1740 0.950 . S
H1735 C1741 0.950 . S
H1736 C1742 0.949 . S
C1737 H1732 0.950 . S
C1737 C1739 1.327 . S
C1737 C1743 1.429 . S
C1738 C1730 1.574 . S
C1738 H1733 0.949 . S
C1738 C1744 1.368 . S
C1739 C1723 1.349 . S
C1739 H1731 0.950 . S
C1739 C1737 1.327 . S
C1740 C1728 1.349 . S
C1740 H1734 0.950 . S
C1740 C1741 1.327 . S
C1741 H1735 0.950 . S
C1741 C1740 1.327 . S
C1741 C1745 1.429 . S
C1742 C1725 1.574 . S
C1742 H1736 0.949 . S
C1742 C1746 1.368 . S
C1743 C1724 1.429 . S
C1743 C1737 1.429 . S
C1743 C1744 1.523 . S
C1744 C1725 1.368 . S
C1744 C1738 1.368 . S
C1744 C1743 1.523 . S
C1745 C1729 1.429 . S
C1745 C1741 1.429 . S
C1745 C1746 1.523 . S
C1746 C1730 1.368 . S
C1746 C1742 1.368 . S
C1746 C1745 1.523 . S
H1747 C1722 0.950 . S
H1748 C1724 0.950 . S
H1749 C1725 0.949 . S
H1750 C1727 0.950 . S
H1751 C1729 0.950 . S
C1752 C1753 1.349 . S
C1752 C1754 1.327 . S
C1752 H1777 0.950 . S
C1753 C1752 1.349 . S
C1753 C1769 1.349 1_565 S
C1754 C1752 1.327 . S
C1754 C1773 1.429 . S
C1754 H1778 0.950 . S
C1755 C1772 1.574 . S
C1755 C1774 1.368 1_545 S
C1755 H1779 0.949 . S
H1756 C1760 0.949 . S
C1757 C1758 1.349 1_545 S
C1757 C1759 1.327 . S
C1757 H1780 0.950 . S
C1758 C1757 1.349 1_565 S
C1758 C1770 1.349 . S
C1759 C1757 1.327 . S
C1759 C1775 1.429 1_545 S
C1759 H1781 0.950 . S
C1760 H1756 0.949 . S
C1760 C1768 1.574 . S
C1760 C1776 1.368 . S
H1761 C1769 0.950 . S
H1762 C1767 0.950 . S
H1763 C1768 0.949 . S
H1764 C1770 0.950 . S
H1765 C1771 0.950 . S
H1766 C1772 0.949 . S
C1767 H1762 0.950 . S
C1767 C1769 1.327 . S
C1767 C1773 1.429 1_545 S
C1768 C1760 1.574 . S
C1768 H1763 0.949 . S
C1768 C1774 1.368 . S
C1769 C1753 1.349 1_545 S
C1769 H1761 0.950 . S
C1769 C1767 1.327 . S
C1770 C1758 1.349 . S
C1770 H1764 0.950 . S
C1770 C1771 1.327 . S
C1771 H1765 0.950 . S
C1771 C1770 1.327 . S
C1771 C1775 1.429 . S
C1772 C1755 1.574 . S
C1772 H1766 0.949 . S
C1772 C1776 1.368 1_545 S
C1773 C1754 1.429 . S
C1773 C1767 1.429 1_565 S
C1773 C1774 1.523 . S
C1774 C1755 1.368 1_565 S
C1774 C1768 1.368 . S
C1774 C1773 1.523 . S
C1775 C1759 1.429 1_565 S
C1775 C1771 1.429 . S
C1775 C1776 1.523 . S
C1776 C1760 1.368 . S
C1776 C1772 1.368 1_565 S
C1776 C1775 1.523 . S
H1777 C1752 0.950 . S
H1778 C1754 0.950 . S
H1779 C1755 0.949 . S
H1780 C1757 0.950 . S
H1781 C1759 0.950 . S
C1782 C1783 1.349 . S
C1782 C1784 1.327 . S
C1782 H1807 0.950 . S
C1783 C1782 1.349 . S
C1783 C1799 1.349 . S
C1784 C1782 1.327 . S
C1784 C1803 1.429 . S
C1784 H1808 0.950 . S
C1785 C1802 1.574 . S
C1785 C1804 1.368 . S
C1785 H1809 0.949 . S
H1786 C1790 0.949 . S
C1787 C1788 1.349 . S
C1787 C1789 1.327 . S
C1787 H1810 0.950 . S
C1788 C1787 1.349 . S
C1788 C1800 1.349 . S
C1789 C1787 1.327 . S
C1789 C1805 1.429 . S
C1789 H1811 0.950 . S
C1790 H1786 0.949 . S
C1790 C1798 1.574 . S
C1790 C1806 1.368 . S
H1791 C1799 0.950 . S
H1792 C1797 0.950 . S
H1793 C1798 0.949 . S
H1794 C1800 0.950 . S
H1795 C1801 0.950 . S
H1796 C1802 0.949 . S
C1797 H1792 0.950 . S
C1797 C1799 1.327 . S
C1797 C1803 1.429 . S
C1798 C1790 1.574 . S
C1798 H1793 0.949 . S
C1798 C1804 1.368 . S
C1799 C1783 1.349 . S
C1799 H1791 0.950 . S
C1799 C1797 1.327 . S
C1800 C1788 1.349 . S
C1800 H1794 0.950 . S
C1800 C1801 1.327 . S
C1801 H1795 0.950 . S
C1801 C1800 1.327 . S
C1801 C1805 1.429 . S
C1802 C1785 1.574 . S
C1802 H1796 0.949 . S
C1802 C1806 1.368 . S
C1803 C1784 1.429 . S
C1803 C1797 1.429 . S
C1803 C1804 1.523 . S
C1804 C1785 1.368 . S
C1804 C1798 1.368 . S
C1804 C1803 1.523 . S
C1805 C1789 1.429 . S
C1805 C1801 1.429 . S
C1805 C1806 1.523 . S
C1806 C1790 1.368 . S
C1806 C1802 1.368 . S
C1806 C1805 1.523 . S
H1807 C1782 0.950 . S
H1808 C1784 0.950 . S
H1809 C1785 0.949 . S
H1810 C1787 0.950 . S
H1811 C1789 0.950 . S
C1812 C1813 1.349 . S
C1812 C1814 1.327 . S
C1812 H1837 0.950 . S
C1813 C1812 1.349 . S
C1813 C1829 1.349 1_545 S
C1814 C1812 1.327 . S
C1814 C1833 1.429 . S
C1814 H1838 0.950 . S
C1815 C1832 1.574 . S
C1815 C1834 1.368 1_565 S
C1815 H1839 0.949 . S
H1816 C1820 0.949 . S
C1817 C1818 1.349 1_565 S
C1817 C1819 1.327 . S
C1817 H1840 0.950 . S
C1818 C1817 1.349 1_545 S
C1818 C1830 1.349 . S
C1819 C1817 1.327 . S
C1819 C1835 1.429 1_565 S
C1819 H1841 0.950 . S
C1820 H1816 0.949 . S
C1820 C1828 1.574 . S
C1820 C1836 1.368 . S
H1821 C1829 0.950 . S
H1822 C1827 0.950 . S
H1823 C1828 0.949 . S
H1824 C1830 0.950 . S
H1825 C1831 0.950 . S
H1826 C1832 0.949 . S
C1827 H1822 0.950 . S
C1827 C1829 1.327 . S
C1827 C1833 1.429 1_565 S
C1828 C1820 1.574 . S
C1828 H1823 0.949 . S
C1828 C1834 1.368 . S
C1829 C1813 1.349 1_565 S
C1829 H1821 0.950 . S
C1829 C1827 1.327 . S
C1830 C1818 1.349 . S
C1830 H1824 0.950 . S
C1830 C1831 1.327 . S
C1831 H1825 0.950 . S
C1831 C1830 1.327 . S
C1831 C1835 1.429 . S
C1832 C1815 1.574 . S
C1832 H1826 0.949 . S
C1832 C1836 1.368 1_565 S
C1833 C1814 1.429 . S
C1833 C1827 1.429 1_545 S
C1833 C1834 1.523 . S
C1834 C1815 1.368 1_545 S
C1834 C1828 1.368 . S
C1834 C1833 1.523 . S
C1835 C1819 1.429 1_545 S
C1835 C1831 1.429 . S
C1835 C1836 1.523 . S
C1836 C1820 1.368 . S
C1836 C1832 1.368 1_545 S
C1836 C1835 1.523 . S
H1837 C1812 0.950 . S
H1838 C1814 0.950 . S
H1839 C1815 0.949 . S
H1840 C1817 0.950 . S
H1841 C1819 0.950 . S
C1842 C1843 1.349 . S
C1842 C1844 1.327 . S
C1842 H1867 0.950 . S
C1843 C1842 1.349 . S
C1843 C1859 1.349 . S
C1844 C1842 1.327 . S
C1844 C1863 1.429 . S
C1844 H1868 0.950 . S
C1845 C1862 1.574 . S
C1845 C1864 1.368 . S
C1845 H1869 0.949 . S
H1846 C1850 0.949 . S
C1847 C1848 1.349 . S
C1847 C1849 1.327 . S
C1847 H1870 0.950 . S
C1848 C1847 1.349 . S
C1848 C1860 1.349 . S
C1849 C1847 1.327 . S
C1849 C1865 1.429 . S
C1849 H1871 0.950 . S
C1850 H1846 0.949 . S
C1850 C1858 1.574 . S
C1850 C1866 1.368 . S
H1851 C1859 0.950 . S
H1852 C1857 0.950 . S
H1853 C1858 0.949 . S
H1854 C1860 0.950 . S
H1855 C1861 0.950 . S
H1856 C1862 0.949 . S
C1857 H1852 0.950 . S
C1857 C1859 1.327 . S
C1857 C1863 1.429 . S
C1858 C1850 1.574 . S
C1858 H1853 0.949 . S
C1858 C1864 1.368 . S
C1859 C1843 1.349 . S
C1859 H1851 0.950 . S
C1859 C1857 1.327 . S
C1860 C1848 1.349 . S
C1860 H1854 0.950 . S
C1860 C1861 1.327 . S
C1861 H1855 0.950 . S
C1861 C1860 1.327 . S
C1861 C1865 1.429 . S
C1862 C1845 1.574 . S
C1862 H1856 0.949 . S
C1862 C1866 1.368 . S
C1863 C1844 1.429 . S
C1863 C1857 1.429 . S
C1863 C1864 1.523 . S
C1864 C1845 1.368 . S
C1864 C1858 1.368 . S
C1864 C1863 1.523 . S
C1865 C1849 1.429 . S
C1865 C1861 1.429 . S
C1865 C1866 1.523 . S
C1866 C1850 1.368 . S
C1866 C1862 1.368 . S
C1866 C1865 1.523 . S
H1867 C1842 0.950 . S
H1868 C1844 0.950 . S
H1869 C1845 0.949 . S
H1870 C1847 0.950 . S
H1871 C1849 0.950 . S
C1872 C1873 1.349 . S
C1872 C1874 1.327 . S
C1872 H1897 0.950 . S
C1873 C1872 1.349 . S
C1873 C1889 1.349 1_554 S
C1874 C1872 1.327 . S
C1874 C1893 1.429 . S
C1874 H1898 0.950 . S
C1875 C1892 1.574 . S
C1875 C1894 1.368 1_556 S
C1875 H1899 0.949 . S
H1876 C1880 0.949 . S
C1877 C1878 1.387 . S
C1877 C1879 1.327 . S
C1877 H1900 0.914 1_554 S
C1878 C1877 1.387 . S
C1878 C1890 1.349 . S
C1879 C1877 1.327 . S
C1879 C1895 1.426 . S
C1879 H1901 0.952 1_554 S
C1880 H1876 0.949 . S
C1880 C1888 1.574 . S
C1880 C1896 1.368 . S
H1881 C1889 0.950 . S
H1882 C1887 0.950 . S
H1883 C1888 0.949 . S
H1884 C1890 0.950 . S
H1885 C1891 0.950 . S
H1886 C1892 0.949 . S
C1887 H1882 0.950 . S
C1887 C1889 1.327 . S
C1887 C1893 1.429 1_556 S
C1888 C1880 1.574 . S
C1888 H1883 0.949 . S
C1888 C1894 1.368 . S
C1889 C1873 1.349 1_556 S
C1889 H1881 0.950 . S
C1889 C1887 1.327 . S
C1890 C1878 1.349 . S
C1890 H1884 0.950 . S
C1890 C1891 1.327 . S
C1891 H1885 0.950 . S
C1891 C1890 1.327 . S
C1891 C1895 1.429 . S
C1892 C1875 1.574 . S
C1892 H1886 0.949 . S
C1892 C1896 1.368 1_556 S
C1893 C1874 1.429 . S
C1893 C1887 1.429 1_554 S
C1893 C1894 1.523 . S
C1894 C1875 1.368 1_554 S
C1894 C1888 1.368 . S
C1894 C1893 1.523 . S
C1895 C1879 1.426 . S
C1895 C1891 1.429 . S
C1895 C1896 1.523 . S
C1896 C1880 1.368 . S
C1896 C1892 1.368 1_554 S
C1896 C1895 1.523 . S
H1897 C1872 0.950 . S
H1898 C1874 0.950 . S
H1899 C1875 0.949 . S
H1900 C1877 0.914 1_556 S
H1901 C1879 0.952 1_556 S
C1902 C1903 1.349 1_556 S
C1902 C1904 1.327 . S
C1902 H1927 0.950 . S
C1903 C1902 1.349 1_554 S
C1903 C1919 1.349 . S
C1904 C1902 1.327 . S
C1904 C1923 1.423 1_556 S
C1904 H1928 0.950 . S
C1905 C1922 1.574 . S
C1905 C1924 1.342 1_554 S
C1905 H1929 0.949 . S
H1906 C1910 0.949 . S
C1907 C1908 1.349 1_554 S
C1907 C1909 1.327 . S
C1907 H1930 0.950 . S
C1908 C1907 1.349 1_556 S
C1908 C1920 1.349 . S
C1909 C1907 1.327 . S
C1909 C1925 1.429 1_554 S
C1909 H1931 0.950 . S
C1910 H1906 0.949 . S
C1910 C1918 1.574 . S
C1910 C1926 1.368 . S
H1911 C1919 0.950 . S
H1912 C1917 0.950 . S
H1913 C1918 0.949 . S
H1914 C1920 0.950 . S
H1915 C1921 0.950 . S
H1916 C1922 0.949 . S
C1917 H1912 0.950 . S
C1917 C1919 1.327 . S
C1917 C1923 1.434 . S
C1918 C1910 1.574 . S
C1918 H1913 0.949 . S
C1918 C1924 1.395 . S
C1919 C1903 1.349 . S
C1919 H1911 0.950 . S
C1919 C1917 1.327 . S
C1920 C1908 1.349 . S
C1920 H1914 0.950 . S
C1920 C1921 1.327 . S
C1921 H1915 0.950 . S
C1921 C1920 1.327 . S
C1921 C1925 1.429 . S
C1922 C1905 1.574 . S
C1922 H1916 0.949 . S
C1922 C1926 1.368 1_554 S
C1923 C1904 1.423 1_554 S
C1923 C1917 1.434 . S
C1923 C1924 1.523 1_554 S
C1924 C1905 1.342 1_556 S
C1924 C1918 1.395 . S
C1924 C1923 1.523 1_556 S
C1925 C1909 1.429 1_556 S
C1925 C1921 1.429 . S
C1925 C1926 1.523 . S
C1926 C1910 1.368 . S
C1926 C1922 1.368 1_556 S
C1926 C1925 1.523 . S
H1927 C1902 0.950 . S
H1928 C1904 0.950 . S
H1929 C1905 0.949 . S
H1930 C1907 0.950 . S
H1931 C1909 0.950 . S
C1932 C1933 1.349 . S
C1932 C1934 1.327 . S
C1932 H1957 0.950 . S
C1933 C1932 1.349 . S
C1933 C1949 1.349 . S
C1934 C1932 1.327 . S
C1934 C1953 1.429 . S
C1934 H1958 0.950 . S
C1935 C1952 1.574 . S
C1935 C1954 1.368 . S
C1935 H1959 0.949 . S
H1936 C1940 0.949 . S
C1937 C1938 1.349 . S
C1937 C1939 1.327 . S
C1937 H1960 0.950 . S
C1938 C1937 1.349 . S
C1938 C1950 1.349 . S
C1939 C1937 1.327 . S
C1939 C1955 1.429 . S
C1939 H1961 0.950 . S
C1940 H1936 0.949 . S
C1940 C1948 1.574 . S
C1940 C1956 1.368 . S
H1941 C1949 0.950 . S
H1942 C1947 0.950 . S
H1943 C1948 0.949 . S
H1944 C1950 0.950 . S
H1945 C1951 0.950 . S
H1946 C1952 0.949 . S
C1947 H1942 0.950 . S
C1947 C1949 1.327 . S
C1947 C1953 1.429 . S
C1948 C1940 1.574 . S
C1948 H1943 0.949 . S
C1948 C1954 1.368 . S
C1949 C1933 1.349 . S
C1949 H1941 0.950 . S
C1949 C1947 1.327 . S
C1950 C1938 1.349 . S
C1950 H1944 0.950 . S
C1950 C1951 1.327 . S
C1951 H1945 0.950 . S
C1951 C1950 1.327 . S
C1951 C1955 1.429 . S
C1952 C1935 1.574 . S
C1952 H1946 0.949 . S
C1952 C1956 1.368 . S
C1953 C1934 1.429 . S
C1953 C1947 1.429 . S
C1953 C1954 1.523 . S
C1954 C1935 1.368 . S
C1954 C1948 1.368 . S
C1954 C1953 1.523 . S
C1955 C1939 1.429 . S
C1955 C1951 1.429 . S
C1955 C1956 1.523 . S
C1956 C1940 1.368 . S
C1956 C1952 1.368 . S
C1956 C1955 1.523 . S
H1957 C1932 0.950 . S
H1958 C1934 0.950 . S
H1959 C1935 0.949 . S
H1960 C1937 0.950 . S
H1961 C1939 0.950 . S
C1962 C1963 1.349 . S
C1962 C1964 1.327 . S
C1962 H1987 0.950 . S
C1963 C1962 1.349 . S
C1963 C1979 1.349 . S
C1964 C1962 1.327 . S
C1964 C1983 1.429 . S
C1964 H1988 0.950 . S
C1965 C1982 1.574 . S
C1965 C1984 1.368 . S
C1965 H1989 0.949 . S
H1966 C1970 0.949 . S
C1967 C1968 1.349 . S
C1967 C1969 1.327 . S
C1967 H1990 0.950 . S
C1968 C1967 1.349 . S
C1968 C1980 1.349 . S
C1969 C1967 1.327 . S
C1969 C1985 1.429 . S
C1969 H1991 0.950 . S
C1970 H1966 0.949 . S
C1970 C1978 1.574 . S
C1970 C1986 1.368 . S
H1971 C1979 0.950 . S
H1972 C1977 0.950 . S
H1973 C1978 0.949 . S
H1974 C1980 0.950 . S
H1975 C1981 0.950 . S
H1976 C1982 0.949 . S
C1977 H1972 0.950 . S
C1977 C1979 1.327 . S
C1977 C1983 1.429 . S
C1978 C1970 1.574 . S
C1978 H1973 0.949 . S
C1978 C1984 1.368 . S
C1979 C1963 1.349 . S
C1979 H1971 0.950 . S
C1979 C1977 1.327 . S
C1980 C1968 1.349 . S
C1980 H1974 0.950 . S
C1980 C1981 1.327 . S
C1981 H1975 0.950 . S
C1981 C1980 1.327 . S
C1981 C1985 1.429 . S
C1982 C1965 1.574 . S
C1982 H1976 0.949 . S
C1982 C1986 1.368 . S
C1983 C1964 1.429 . S
C1983 C1977 1.429 . S
C1983 C1984 1.523 . S
C1984 C1965 1.368 . S
C1984 C1978 1.368 . S
C1984 C1983 1.523 . S
C1985 C1969 1.429 . S
C1985 C1981 1.429 . S
C1985 C1986 1.523 . S
C1986 C1970 1.368 . S
C1986 C1982 1.368 . S
C1986 C1985 1.523 . S
H1987 C1962 0.950 . S
H1988 C1964 0.950 . S
H1989 C1965 0.949 . S
H1990 C1967 0.950 . S
H1991 C1969 0.950 . S
C1992 C1993 1.349 . S
C1992 C1994 1.327 . S
C1992 H2017 0.950 . S
C1993 C1992 1.349 . S
C1993 C2009 1.349 . S
C1994 C1992 1.327 . S
C1994 C2013 1.429 . S
C1994 H2018 0.950 . S
C1995 C2012 1.574 . S
C1995 C2014 1.368 . S
C1995 H2019 0.949 . S
H1996 C2000 0.949 . S
C1997 C1998 1.349 . S
C1997 C1999 1.327 . S
C1997 H2020 0.950 . S
C1998 C1997 1.349 . S
C1998 C2010 1.349 . S
C1999 C1997 1.327 . S
C1999 C2015 1.429 . S
C1999 H2021 0.950 . S
C2000 H1996 0.949 . S
C2000 C2008 1.574 . S
C2000 C2016 1.368 . S
H2001 C2009 0.950 . S
H2002 C2007 0.950 . S
H2003 C2008 0.949 . S
H2004 C2010 0.950 . S
H2005 C2011 0.950 . S
H2006 C2012 0.949 . S
C2007 H2002 0.950 . S
C2007 C2009 1.327 . S
C2007 C2013 1.429 . S
C2008 C2000 1.574 . S
C2008 H2003 0.949 . S
C2008 C2014 1.368 . S
C2009 C1993 1.349 . S
C2009 H2001 0.950 . S
C2009 C2007 1.327 . S
C2010 C1998 1.349 . S
C2010 H2004 0.950 . S
C2010 C2011 1.327 . S
C2011 H2005 0.950 . S
C2011 C2010 1.327 . S
C2011 C2015 1.429 . S
C2012 C1995 1.574 . S
C2012 H2006 0.949 . S
C2012 C2016 1.368 . S
C2013 C1994 1.429 . S
C2013 C2007 1.429 . S
C2013 C2014 1.523 . S
C2014 C1995 1.368 . S
C2014 C2008 1.368 . S
C2014 C2013 1.523 . S
C2015 C1999 1.429 . S
C2015 C2011 1.429 . S
C2015 C2016 1.523 . S
C2016 C2000 1.368 . S
C2016 C2012 1.368 . S
C2016 C2015 1.523 . S
H2017 C1992 0.950 . S
H2018 C1994 0.950 . S
H2019 C1995 0.949 . S
H2020 C1997 0.950 . S
H2021 C1999 0.950 . S
C2022 C2023 1.349 . S
C2022 C2024 1.327 . S
C2022 H2047 0.950 . S
C2023 C2022 1.349 . S
C2023 C2039 1.349 . S
C2024 C2022 1.327 . S
C2024 C2043 1.429 . S
C2024 H2048 0.950 . S
C2025 C2042 1.574 . S
C2025 C2044 1.368 . S
C2025 H2049 0.949 . S
H2026 C2030 0.949 . S
C2027 C2028 1.349 . S
C2027 C2029 1.327 . S
C2027 H2050 0.950 . S
C2028 C2027 1.349 . S
C2028 C2040 1.349 . S
C2029 C2027 1.327 . S
C2029 C2045 1.429 . S
C2029 H2051 0.950 . S
C2030 H2026 0.949 . S
C2030 C2038 1.574 . S
C2030 C2046 1.368 . S
H2031 C2039 0.950 . S
H2032 C2037 0.950 . S
H2033 C2038 0.949 . S
H2034 C2040 0.950 . S
H2035 C2041 0.950 . S
H2036 C2042 0.949 . S
C2037 H2032 0.950 . S
C2037 C2039 1.327 . S
C2037 C2043 1.429 . S
C2038 C2030 1.574 . S
C2038 H2033 0.949 . S
C2038 C2044 1.368 . S
C2039 C2023 1.349 . S
C2039 H2031 0.950 . S
C2039 C2037 1.327 . S
C2040 C2028 1.349 . S
C2040 H2034 0.950 . S
C2040 C2041 1.327 . S
C2041 H2035 0.950 . S
C2041 C2040 1.327 . S
C2041 C2045 1.429 . S
C2042 C2025 1.574 . S
C2042 H2036 0.949 . S
C2042 C2046 1.368 . S
C2043 C2024 1.429 . S
C2043 C2037 1.429 . S
C2043 C2044 1.523 . S
C2044 C2025 1.368 . S
C2044 C2038 1.368 . S
C2044 C2043 1.523 . S
C2045 C2029 1.429 . S
C2045 C2041 1.429 . S
C2045 C2046 1.523 . S
C2046 C2030 1.368 . S
C2046 C2042 1.368 . S
C2046 C2045 1.523 . S
H2047 C2022 0.950 . S
H2048 C2024 0.950 . S
H2049 C2025 0.949 . S
H2050 C2027 0.950 . S
H2051 C2029 0.950 . S
C2052 C2053 1.349 . S
C2052 C2054 1.327 . S
C2052 H2077 0.950 . S
C2053 C2052 1.349 . S
C2053 C2069 1.349 . S
C2054 C2052 1.327 . S
C2054 C2073 1.429 . S
C2054 H2078 0.950 . S
C2055 C2072 1.574 . S
C2055 C2074 1.368 . S
C2055 H2079 0.949 . S
H2056 C2060 0.949 . S
C2057 C2058 1.349 . S
C2057 C2059 1.327 . S
C2057 H2080 0.950 . S
C2058 C2057 1.349 . S
C2058 C2070 1.349 . S
C2059 C2057 1.327 . S
C2059 C2075 1.429 . S
C2059 H2081 0.950 . S
C2060 H2056 0.949 . S
C2060 C2068 1.574 . S
C2060 C2076 1.368 . S
H2061 C2069 0.950 . S
H2062 C2067 0.950 . S
H2063 C2068 0.949 . S
H2064 C2070 0.950 . S
H2065 C2071 0.950 . S
H2066 C2072 0.949 . S
C2067 H2062 0.950 . S
C2067 C2069 1.327 . S
C2067 C2073 1.429 . S
C2068 C2060 1.574 . S
C2068 H2063 0.949 . S
C2068 C2074 1.368 . S
C2069 C2053 1.349 . S
C2069 H2061 0.950 . S
C2069 C2067 1.327 . S
C2070 C2058 1.349 . S
C2070 H2064 0.950 . S
C2070 C2071 1.327 . S
C2071 H2065 0.950 . S
C2071 C2070 1.327 . S
C2071 C2075 1.429 . S
C2072 C2055 1.574 . S
C2072 H2066 0.949 . S
C2072 C2076 1.368 . S
C2073 C2054 1.429 . S
C2073 C2067 1.429 . S
C2073 C2074 1.523 . S
C2074 C2055 1.368 . S
C2074 C2068 1.368 . S
C2074 C2073 1.523 . S
C2075 C2059 1.429 . S
C2075 C2071 1.429 . S
C2075 C2076 1.523 . S
C2076 C2060 1.368 . S
C2076 C2072 1.368 . S
C2076 C2075 1.523 . S
H2077 C2052 0.950 . S
H2078 C2054 0.950 . S
H2079 C2055 0.949 . S
H2080 C2057 0.950 . S
H2081 C2059 0.950 . S
C2082 C2083 1.349 . S
C2082 C2084 1.327 . S
C2082 H2107 0.950 . S
C2083 C2082 1.349 . S
C2083 C2099 1.349 . S
C2084 C2082 1.327 . S
C2084 C2103 1.429 . S
C2084 H2108 0.950 . S
C2085 C2102 1.574 . S
C2085 C2104 1.368 . S
C2085 H2109 0.949 . S
H2086 C2090 0.949 . S
C2087 C2088 1.349 . S
C2087 C2089 1.327 . S
C2087 H2110 0.950 . S
C2088 C2087 1.349 . S
C2088 C2100 1.349 . S
C2089 C2087 1.327 . S
C2089 C2105 1.429 . S
C2089 H2111 0.950 . S
C2090 H2086 0.949 . S
C2090 C2098 1.574 . S
C2090 C2106 1.368 . S
H2091 C2099 0.950 . S
H2092 C2097 0.950 . S
H2093 C2098 0.949 . S
H2094 C2100 0.950 . S
H2095 C2101 0.950 . S
H2096 C2102 0.949 . S
C2097 H2092 0.950 . S
C2097 C2099 1.327 . S
C2097 C2103 1.429 . S
C2098 C2090 1.574 . S
C2098 H2093 0.949 . S
C2098 C2104 1.368 . S
C2099 C2083 1.349 . S
C2099 H2091 0.950 . S
C2099 C2097 1.327 . S
C2100 C2088 1.349 . S
C2100 H2094 0.950 . S
C2100 C2101 1.327 . S
C2101 H2095 0.950 . S
C2101 C2100 1.327 . S
C2101 C2105 1.429 . S
C2102 C2085 1.574 . S
C2102 H2096 0.949 . S
C2102 C2106 1.368 . S
C2103 C2084 1.429 . S
C2103 C2097 1.429 . S
C2103 C2104 1.523 . S
C2104 C2085 1.368 . S
C2104 C2098 1.368 . S
C2104 C2103 1.523 . S
C2105 C2089 1.429 . S
C2105 C2101 1.429 . S
C2105 C2106 1.523 . S
C2106 C2090 1.368 . S
C2106 C2102 1.368 . S
C2106 C2105 1.523 . S
H2107 C2082 0.950 . S
H2108 C2084 0.950 . S
H2109 C2085 0.949 . S
H2110 C2087 0.950 . S
H2111 C2089 0.950 . S
C2112 C2113 1.349 . S
C2112 C2114 1.327 . S
C2112 H2137 0.950 . S
C2113 C2112 1.349 . S
C2113 C2129 1.349 . S
C2114 C2112 1.327 . S
C2114 C2133 1.429 . S
C2114 H2138 0.950 . S
C2115 C2132 1.574 . S
C2115 C2134 1.368 . S
C2115 H2139 0.949 . S
H2116 C2120 0.949 . S
C2117 C2118 1.349 . S
C2117 C2119 1.327 . S
C2117 H2140 0.950 . S
C2118 C2117 1.349 . S
C2118 C2130 1.349 . S
C2119 C2117 1.327 . S
C2119 C2135 1.429 . S
C2119 H2141 0.950 . S
C2120 H2116 0.949 . S
C2120 C2128 1.574 . S
C2120 C2136 1.368 . S
H2121 C2129 0.950 . S
H2122 C2127 0.950 . S
H2123 C2128 0.949 . S
H2124 C2130 0.950 . S
H2125 C2131 0.950 . S
H2126 C2132 0.949 . S
C2127 H2122 0.950 . S
C2127 C2129 1.327 . S
C2127 C2133 1.429 . S
C2128 C2120 1.574 . S
C2128 H2123 0.949 . S
C2128 C2134 1.368 . S
C2129 C2113 1.349 . S
C2129 H2121 0.950 . S
C2129 C2127 1.327 . S
C2130 C2118 1.349 . S
C2130 H2124 0.950 . S
C2130 C2131 1.327 . S
C2131 H2125 0.950 . S
C2131 C2130 1.327 . S
C2131 C2135 1.429 . S
C2132 C2115 1.574 . S
C2132 H2126 0.949 . S
C2132 C2136 1.368 . S
C2133 C2114 1.429 . S
C2133 C2127 1.429 . S
C2133 C2134 1.523 . S
C2134 C2115 1.368 . S
C2134 C2128 1.368 . S
C2134 C2133 1.523 . S
C2135 C2119 1.429 . S
C2135 C2131 1.429 . S
C2135 C2136 1.523 . S
C2136 C2120 1.368 . S
C2136 C2132 1.368 . S
C2136 C2135 1.523 . S
H2137 C2112 0.950 . S
H2138 C2114 0.950 . S
H2139 C2115 0.949 . S
H2140 C2117 0.950 . S
H2141 C2119 0.950 . S
C2142 C2143 1.349 . S
C2142 C2144 1.327 . S
C2142 H2167 0.950 . S
C2143 C2142 1.349 . S
C2143 C2159 1.349 . S
C2144 C2142 1.327 . S
C2144 C2163 1.429 . S
C2144 H2168 0.950 . S
C2145 C2162 1.574 . S
C2145 C2164 1.368 . S
C2145 H2169 0.949 . S
H2146 C2150 0.949 . S
C2147 C2148 1.349 . S
C2147 C2149 1.327 . S
C2147 H2170 0.950 . S
C2148 C2147 1.349 . S
C2148 C2160 1.349 . S
C2149 C2147 1.327 . S
C2149 C2165 1.429 . S
C2149 H2171 0.950 . S
C2150 H2146 0.949 . S
C2150 C2158 1.574 . S
C2150 C2166 1.368 . S
H2151 C2159 0.950 . S
H2152 C2157 0.950 . S
H2153 C2158 0.949 . S
H2154 C2160 0.950 . S
H2155 C2161 0.950 . S
H2156 C2162 0.949 . S
C2157 H2152 0.950 . S
C2157 C2159 1.327 . S
C2157 C2163 1.429 . S
C2158 C2150 1.574 . S
C2158 H2153 0.949 . S
C2158 C2164 1.368 . S
C2159 C2143 1.349 . S
C2159 H2151 0.950 . S
C2159 C2157 1.327 . S
C2160 C2148 1.349 . S
C2160 H2154 0.950 . S
C2160 C2161 1.327 . S
C2161 H2155 0.950 . S
C2161 C2160 1.327 . S
C2161 C2165 1.429 . S
C2162 C2145 1.574 . S
C2162 H2156 0.949 . S
C2162 C2166 1.368 . S
C2163 C2144 1.429 . S
C2163 C2157 1.429 . S
C2163 C2164 1.523 . S
C2164 C2145 1.368 . S
C2164 C2158 1.368 . S
C2164 C2163 1.523 . S
C2165 C2149 1.429 . S
C2165 C2161 1.429 . S
C2165 C2166 1.523 . S
C2166 C2150 1.368 . S
C2166 C2162 1.368 . S
C2166 C2165 1.523 . S
H2167 C2142 0.950 . S
H2168 C2144 0.950 . S
H2169 C2145 0.949 . S
H2170 C2147 0.950 . S
H2171 C2149 0.950 . S
C2172 C2173 1.349 . S
C2172 C2174 1.327 . S
C2172 H2197 0.950 . S
C2173 C2172 1.349 . S
C2173 C2189 1.349 . S
C2174 C2172 1.327 . S
C2174 C2193 1.429 . S
C2174 H2198 0.950 . S
C2175 C2192 1.574 . S
C2175 C2194 1.368 . S
C2175 H2199 0.949 . S
H2176 C2180 0.949 . S
C2177 C2178 1.349 . S
C2177 C2179 1.327 . S
C2177 H2200 0.950 . S
C2178 C2177 1.349 . S
C2178 C2190 1.349 . S
C2179 C2177 1.327 . S
C2179 C2195 1.429 . S
C2179 H2201 0.950 . S
C2180 H2176 0.949 . S
C2180 C2188 1.574 . S
C2180 C2196 1.368 . S
H2181 C2189 0.950 . S
H2182 C2187 0.950 . S
H2183 C2188 0.949 . S
H2184 C2190 0.950 1_556 S
H2185 C2191 0.950 . S
H2186 C2192 0.949 . S
C2187 H2182 0.950 . S
C2187 C2189 1.327 . S
C2187 C2193 1.429 . S
C2188 C2180 1.574 . S
C2188 H2183 0.949 . S
C2188 C2194 1.368 . S
C2189 C2173 1.349 . S
C2189 H2181 0.950 . S
C2189 C2187 1.327 . S
C2190 C2178 1.349 . S
C2190 H2184 0.950 1_554 S
C2190 C2191 1.327 . S
C2191 H2185 0.950 . S
C2191 C2190 1.327 . S
C2191 C2195 1.429 . S
C2192 C2175 1.574 . S
C2192 H2186 0.949 . S
C2192 C2196 1.368 . S
C2193 C2174 1.429 . S
C2193 C2187 1.429 . S
C2193 C2194 1.523 . S
C2194 C2175 1.368 . S
C2194 C2188 1.368 . S
C2194 C2193 1.523 . S
C2195 C2179 1.429 . S
C2195 C2191 1.429 . S
C2195 C2196 1.523 . S
C2196 C2180 1.368 . S
C2196 C2192 1.368 . S
C2196 C2195 1.523 . S
H2197 C2172 0.950 . S
H2198 C2174 0.950 . S
H2199 C2175 0.949 . S
H2200 C2177 0.950 . S
H2201 C2179 0.950 . S
C2202 C2203 1.349 . S
C2202 C2204 1.327 . S
C2202 H2227 0.950 . S
C2203 C2202 1.349 . S
C2203 C2219 1.349 . S
C2204 C2202 1.327 . S
C2204 C2223 1.429 . S
C2204 H2228 0.950 . S
C2205 C2222 1.574 . S
C2205 C2224 1.368 . S
C2205 H2229 0.949 . S
H2206 C2210 0.949 . S
C2207 C2208 1.349 . S
C2207 C2209 1.327 . S
C2207 H2230 0.950 . S
C2208 C2207 1.349 . S
C2208 C2220 1.349 . S
C2209 C2207 1.327 . S
C2209 C2225 1.429 . S
C2209 H2231 0.950 . S
C2210 H2206 0.949 . S
C2210 C2218 1.574 . S
C2210 C2226 1.368 . S
H2211 C2219 0.950 . S
H2212 C2217 0.950 . S
H2213 C2218 0.949 . S
H2214 C2220 0.950 . S
H2215 C2221 0.950 . S
H2216 C2222 0.949 . S
C2217 H2212 0.950 . S
C2217 C2219 1.327 . S
C2217 C2223 1.429 . S
C2218 C2210 1.574 . S
C2218 H2213 0.949 . S
C2218 C2224 1.368 . S
C2219 C2203 1.349 . S
C2219 H2211 0.950 . S
C2219 C2217 1.327 . S
C2220 C2208 1.349 . S
C2220 H2214 0.950 . S
C2220 C2221 1.327 . S
C2221 H2215 0.950 . S
C2221 C2220 1.327 . S
C2221 C2225 1.429 . S
C2222 C2205 1.574 . S
C2222 H2216 0.949 . S
C2222 C2226 1.368 . S
C2223 C2204 1.429 . S
C2223 C2217 1.429 . S
C2223 C2224 1.523 . S
C2224 C2205 1.368 . S
C2224 C2218 1.368 . S
C2224 C2223 1.523 . S
C2225 C2209 1.429 . S
C2225 C2221 1.429 . S
C2225 C2226 1.523 . S
C2226 C2210 1.368 . S
C2226 C2222 1.368 . S
C2226 C2225 1.523 . S
H2227 C2202 0.950 . S
H2228 C2204 0.950 . S
H2229 C2205 0.949 . S
H2230 C2207 0.950 . S
H2231 C2209 0.950 . S
C2232 C2233 1.349 . S
C2232 C2234 1.327 . S
C2232 H2257 0.950 . S
C2233 C2232 1.349 . S
C2233 C2249 1.349 . S
C2234 C2232 1.327 . S
C2234 C2253 1.429 . S
C2234 H2258 0.950 . S
C2235 C2252 1.574 . S
C2235 C2254 1.368 . S
C2235 H2259 0.949 . S
H2236 C2240 0.949 . S
C2237 C2238 1.349 . S
C2237 C2239 1.327 . S
C2237 H2260 0.950 . S
C2238 C2237 1.349 . S
C2238 C2250 1.349 . S
C2239 C2237 1.327 . S
C2239 C2255 1.429 . S
C2239 H2261 0.950 . S
C2240 H2236 0.949 . S
C2240 C2248 1.574 . S
C2240 C2256 1.368 . S
H2241 C2249 0.950 . S
H2242 C2247 0.950 . S
H2243 C2248 0.949 . S
H2244 C2250 0.950 . S
H2245 C2251 0.950 . S
H2246 C2252 0.949 . S
C2247 H2242 0.950 . S
C2247 C2249 1.327 . S
C2247 C2253 1.429 . S
C2248 C2240 1.574 . S
C2248 H2243 0.949 . S
C2248 C2254 1.368 . S
C2249 C2233 1.349 . S
C2249 H2241 0.950 . S
C2249 C2247 1.327 . S
C2250 C2238 1.349 . S
C2250 H2244 0.950 . S
C2250 C2251 1.327 . S
C2251 H2245 0.950 . S
C2251 C2250 1.327 . S
C2251 C2255 1.429 . S
C2252 C2235 1.574 . S
C2252 H2246 0.949 . S
C2252 C2256 1.368 . S
C2253 C2234 1.429 . S
C2253 C2247 1.429 . S
C2253 C2254 1.523 . S
C2254 C2235 1.368 . S
C2254 C2248 1.368 . S
C2254 C2253 1.523 . S
C2255 C2239 1.429 . S
C2255 C2251 1.429 . S
C2255 C2256 1.523 . S
C2256 C2240 1.368 . S
C2256 C2252 1.368 . S
C2256 C2255 1.523 . S
H2257 C2232 0.950 . S
H2258 C2234 0.950 . S
H2259 C2235 0.949 . S
H2260 C2237 0.950 . S
H2261 C2239 0.950 . S
C2262 C2263 1.349 . S
C2262 C2264 1.327 . S
C2262 H2287 0.950 . S
C2263 C2262 1.349 . S
C2263 C2279 1.349 . S
C2264 C2262 1.327 . S
C2264 C2283 1.429 . S
C2264 H2288 0.950 . S
C2265 C2282 1.574 . S
C2265 C2284 1.368 . S
C2265 H2289 0.949 . S
H2266 C2270 0.949 . S
C2267 C2268 1.349 . S
C2267 C2269 1.327 . S
C2267 H2290 0.950 . S
C2268 C2267 1.349 . S
C2268 C2280 1.349 . S
C2269 C2267 1.327 . S
C2269 C2285 1.429 . S
C2269 H2291 0.950 . S
C2270 H2266 0.949 . S
C2270 C2278 1.574 . S
C2270 C2286 1.368 . S
H2271 C2279 0.950 . S
H2272 C2277 0.950 . S
H2273 C2278 0.949 . S
H2274 C2280 0.950 . S
H2275 C2281 0.950 . S
H2276 C2282 0.949 . S
C2277 H2272 0.950 . S
C2277 C2279 1.327 . S
C2277 C2283 1.429 . S
C2278 C2270 1.574 . S
C2278 H2273 0.949 . S
C2278 C2284 1.368 . S
C2279 C2263 1.349 . S
C2279 H2271 0.950 . S
C2279 C2277 1.327 . S
C2280 C2268 1.349 . S
C2280 H2274 0.950 . S
C2280 C2281 1.327 . S
C2281 H2275 0.950 . S
C2281 C2280 1.327 . S
C2281 C2285 1.429 . S
C2282 C2265 1.574 . S
C2282 H2276 0.949 . S
C2282 C2286 1.368 . S
C2283 C2264 1.429 . S
C2283 C2277 1.429 . S
C2283 C2284 1.523 . S
C2284 C2265 1.368 . S
C2284 C2278 1.368 . S
C2284 C2283 1.523 . S
C2285 C2269 1.429 . S
C2285 C2281 1.429 . S
C2285 C2286 1.523 . S
C2286 C2270 1.368 . S
C2286 C2282 1.368 . S
C2286 C2285 1.523 . S
H2287 C2262 0.950 . S
H2288 C2264 0.950 . S
H2289 C2265 0.949 . S
H2290 C2267 0.950 . S
H2291 C2269 0.950 . S
C2292 C2293 1.349 . S
C2292 C2294 1.327 . S
C2292 H2317 0.950 . S
C2293 C2292 1.349 . S
C2293 C2309 1.352 . S
C2294 C2292 1.327 . S
C2294 C2313 1.429 . S
C2294 H2318 0.950 . S
C2295 C2312 1.575 . S
C2295 C2314 1.384 . S
C2295 H2319 0.935 1_455 S
H2296 C2300 0.949 . S
C2297 C2298 1.349 . S
C2297 C2299 1.327 . S
C2297 H2320 0.950 1_455 S
C2298 C2297 1.349 . S
C2298 C2310 1.349 . S
C2299 C2297 1.327 . S
C2299 C2315 1.429 . S
C2299 H2321 0.950 1_455 S
C2300 H2296 0.949 . S
C2300 C2308 1.574 . S
C2300 C2316 1.368 . S
H2301 C2309 0.946 1_655 S
H2302 C2307 0.943 1_655 S
H2303 C2308 0.949 . S
H2304 C2310 0.950 . S
H2305 C2311 0.950 . S
H2306 C2312 0.949 1_655 S
C2307 H2302 0.943 1_455 S
C2307 C2309 1.327 . S
C2307 C2313 1.436 . S
C2308 C2300 1.574 . S
C2308 H2303 0.949 . S
C2308 C2314 1.368 . S
C2309 C2293 1.352 . S
C2309 H2301 0.946 1_455 S
C2309 C2307 1.327 . S
C2310 C2298 1.349 . S
C2310 H2304 0.950 . S
C2310 C2311 1.327 . S
C2311 H2305 0.950 . S
C2311 C2310 1.327 . S
C2311 C2315 1.429 . S
C2312 C2295 1.575 . S
C2312 H2306 0.949 1_455 S
C2312 C2316 1.368 . S
C2313 C2294 1.429 . S
C2313 C2307 1.436 . S
C2313 C2314 1.523 . S
C2314 C2295 1.384 . S
C2314 C2308 1.368 . S
C2314 C2313 1.523 . S
C2315 C2299 1.429 . S
C2315 C2311 1.429 . S
C2315 C2316 1.523 . S
C2316 C2300 1.368 . S
C2316 C2312 1.368 . S
C2316 C2315 1.523 . S
H2317 C2292 0.950 . S
H2318 C2294 0.950 . S
H2319 C2295 0.935 1_655 S
H2320 C2297 0.950 1_655 S
H2321 C2299 0.950 1_655 S
C2322 C2323 1.349 . S
C2322 C2324 1.327 . S
C2322 H2347 0.950 . S
C2323 C2322 1.349 . S
C2323 C2339 1.349 . S
C2324 C2322 1.327 . S
C2324 C2343 1.429 . S
C2324 H2348 0.950 . S
C2325 C2342 1.574 . S
C2325 C2344 1.368 . S
C2325 H2349 0.949 . S
H2326 C2330 0.949 . S
C2327 C2328 1.349 . S
C2327 C2329 1.327 . S
C2327 H2350 0.950 . S
C2328 C2327 1.349 . S
C2328 C2340 1.349 . S
C2329 C2327 1.327 . S
C2329 C2345 1.429 . S
C2329 H2351 0.950 . S
C2330 H2326 0.949 . S
C2330 C2338 1.574 . S
C2330 C2346 1.368 . S
H2331 C2339 0.950 . S
H2332 C2337 0.950 . S
H2333 C2338 0.949 . S
H2334 C2340 0.950 . S
H2335 C2341 0.950 . S
H2336 C2342 0.949 . S
C2337 H2332 0.950 . S
C2337 C2339 1.327 . S
C2337 C2343 1.429 . S
C2338 C2330 1.574 . S
C2338 H2333 0.949 . S
C2338 C2344 1.368 . S
C2339 C2323 1.349 . S
C2339 H2331 0.950 . S
C2339 C2337 1.327 . S
C2340 C2328 1.349 . S
C2340 H2334 0.950 . S
C2340 C2341 1.327 . S
C2341 H2335 0.950 . S
C2341 C2340 1.327 . S
C2341 C2345 1.429 . S
C2342 C2325 1.574 . S
C2342 H2336 0.949 . S
C2342 C2346 1.368 . S
C2343 C2324 1.429 . S
C2343 C2337 1.429 . S
C2343 C2344 1.523 . S
C2344 C2325 1.368 . S
C2344 C2338 1.368 . S
C2344 C2343 1.523 . S
C2345 C2329 1.429 . S
C2345 C2341 1.429 . S
C2345 C2346 1.523 . S
C2346 C2330 1.368 . S
C2346 C2342 1.368 . S
C2346 C2345 1.523 . S
H2347 C2322 0.950 . S
H2348 C2324 0.950 . S
H2349 C2325 0.949 . S
H2350 C2327 0.950 . S
H2351 C2329 0.950 . S
C2352 C2353 1.349 . S
C2352 C2354 1.327 . S
C2352 H2377 0.950 . S
C2353 C2352 1.349 . S
C2353 C2369 1.349 . S
C2354 C2352 1.327 . S
C2354 C2373 1.429 . S
C2354 H2378 0.950 . S
C2355 C2372 1.574 . S
C2355 C2374 1.368 . S
C2355 H2379 0.949 . S
H2356 C2360 0.949 . S
C2357 C2358 1.349 . S
C2357 C2359 1.327 . S
C2357 H2380 0.950 . S
C2358 C2357 1.349 . S
C2358 C2370 1.349 . S
C2359 C2357 1.327 . S
C2359 C2375 1.429 . S
C2359 H2381 0.950 . S
C2360 H2356 0.949 . S
C2360 C2368 1.574 . S
C2360 C2376 1.368 . S
H2361 C2369 0.950 . S
H2362 C2367 0.950 . S
H2363 C2368 0.949 . S
H2364 C2370 0.950 . S
H2365 C2371 0.950 . S
H2366 C2372 0.949 . S
C2367 H2362 0.950 . S
C2367 C2369 1.327 . S
C2367 C2373 1.429 . S
C2368 C2360 1.574 . S
C2368 H2363 0.949 . S
C2368 C2374 1.368 . S
C2369 C2353 1.349 . S
C2369 H2361 0.950 . S
C2369 C2367 1.327 . S
C2370 C2358 1.349 . S
C2370 H2364 0.950 . S
C2370 C2371 1.327 . S
C2371 H2365 0.950 . S
C2371 C2370 1.327 . S
C2371 C2375 1.429 . S
C2372 C2355 1.574 . S
C2372 H2366 0.949 . S
C2372 C2376 1.368 . S
C2373 C2354 1.429 . S
C2373 C2367 1.429 . S
C2373 C2374 1.523 . S
C2374 C2355 1.368 . S
C2374 C2368 1.368 . S
C2374 C2373 1.523 . S
C2375 C2359 1.429 . S
C2375 C2371 1.429 . S
C2375 C2376 1.523 . S
C2376 C2360 1.368 . S
C2376 C2372 1.368 . S
C2376 C2375 1.523 . S
H2377 C2352 0.950 . S
H2378 C2354 0.950 . S
H2379 C2355 0.949 . S
H2380 C2357 0.950 . S
H2381 C2359 0.950 . S
C2382 C2383 1.349 . S
C2382 C2384 1.327 . S
C2382 H2407 0.950 . S
C2383 C2382 1.349 . S
C2383 C2399 1.349 . S
C2384 C2382 1.327 . S
C2384 C2403 1.429 . S
C2384 H2408 0.950 . S
C2385 C2402 1.574 . S
C2385 C2404 1.368 . S
C2385 H2409 0.949 . S
H2386 C2390 0.949 . S
C2387 C2388 1.349 . S
C2387 C2389 1.327 . S
C2387 H2410 0.950 . S
C2388 C2387 1.349 . S
C2388 C2400 1.349 . S
C2389 C2387 1.327 . S
C2389 C2405 1.429 . S
C2389 H2411 0.950 . S
C2390 H2386 0.949 . S
C2390 C2398 1.574 . S
C2390 C2406 1.368 . S
H2391 C2399 0.950 . S
H2392 C2397 0.950 . S
H2393 C2398 0.949 . S
H2394 C2400 0.950 . S
H2395 C2401 0.950 . S
H2396 C2402 0.949 . S
C2397 H2392 0.950 . S
C2397 C2399 1.327 . S
C2397 C2403 1.429 . S
C2398 C2390 1.574 . S
C2398 H2393 0.949 . S
C2398 C2404 1.368 . S
C2399 C2383 1.349 . S
C2399 H2391 0.950 . S
C2399 C2397 1.327 . S
C2400 C2388 1.349 . S
C2400 H2394 0.950 . S
C2400 C2401 1.327 . S
C2401 H2395 0.950 . S
C2401 C2400 1.327 . S
C2401 C2405 1.429 . S
C2402 C2385 1.574 . S
C2402 H2396 0.949 . S
C2402 C2406 1.368 . S
C2403 C2384 1.429 . S
C2403 C2397 1.429 . S
C2403 C2404 1.523 . S
C2404 C2385 1.368 . S
C2404 C2398 1.368 . S
C2404 C2403 1.523 . S
C2405 C2389 1.429 . S
C2405 C2401 1.429 . S
C2405 C2406 1.523 . S
C2406 C2390 1.368 . S
C2406 C2402 1.368 . S
C2406 C2405 1.523 . S
H2407 C2382 0.950 . S
H2408 C2384 0.950 . S
H2409 C2385 0.949 . S
H2410 C2387 0.950 . S
H2411 C2389 0.950 . S
C2412 C2413 1.349 . S
C2412 C2414 1.327 . S
C2412 H2437 0.950 . S
C2413 C2412 1.349 . S
C2413 C2429 1.349 . S
C2414 C2412 1.327 . S
C2414 C2433 1.429 . S
C2414 H2438 0.950 . S
C2415 C2432 1.574 . S
C2415 C2434 1.368 . S
C2415 H2439 0.949 . S
H2416 C2420 0.949 . S
C2417 C2418 1.349 . S
C2417 C2419 1.327 . S
C2417 H2440 0.950 . S
C2418 C2417 1.349 . S
C2418 C2430 1.349 . S
C2419 C2417 1.327 . S
C2419 C2435 1.429 . S
C2419 H2441 0.950 . S
C2420 H2416 0.949 . S
C2420 C2428 1.574 . S
C2420 C2436 1.368 . S
H2421 C2429 0.950 . S
H2422 C2427 0.950 . S
H2423 C2428 0.949 . S
H2424 C2430 0.950 . S
H2425 C2431 0.950 . S
H2426 C2432 0.949 . S
C2427 H2422 0.950 . S
C2427 C2429 1.327 . S
C2427 C2433 1.429 . S
C2428 C2420 1.574 . S
C2428 H2423 0.949 . S
C2428 C2434 1.368 . S
C2429 C2413 1.349 . S
C2429 H2421 0.950 . S
C2429 C2427 1.327 . S
C2430 C2418 1.349 . S
C2430 H2424 0.950 . S
C2430 C2431 1.327 . S
C2431 H2425 0.950 . S
C2431 C2430 1.327 . S
C2431 C2435 1.429 . S
C2432 C2415 1.574 . S
C2432 H2426 0.949 . S
C2432 C2436 1.368 . S
C2433 C2414 1.429 . S
C2433 C2427 1.429 . S
C2433 C2434 1.523 . S
C2434 C2415 1.368 . S
C2434 C2428 1.368 . S
C2434 C2433 1.523 . S
C2435 C2419 1.429 . S
C2435 C2431 1.429 . S
C2435 C2436 1.523 . S
C2436 C2420 1.368 . S
C2436 C2432 1.368 . S
C2436 C2435 1.523 . S
H2437 C2412 0.950 . S
H2438 C2414 0.950 . S
H2439 C2415 0.949 . S
H2440 C2417 0.950 . S
H2441 C2419 0.950 . S
C2442 C2443 1.349 . S
C2442 C2444 1.327 . S
C2442 H2467 0.950 . S
C2443 C2442 1.349 . S
C2443 C2459 1.349 . S
C2444 C2442 1.327 . S
C2444 C2463 1.429 . S
C2444 H2468 0.950 . S
C2445 C2462 1.574 . S
C2445 C2464 1.368 . S
C2445 H2469 0.949 . S
H2446 C2450 0.949 . S
C2447 C2448 1.349 . S
C2447 C2449 1.327 . S
C2447 H2470 0.950 . S
C2448 C2447 1.349 . S
C2448 C2460 1.349 . S
C2449 C2447 1.327 . S
C2449 C2465 1.429 . S
C2449 H2471 0.950 . S
C2450 H2446 0.949 . S
C2450 C2458 1.574 . S
C2450 C2466 1.368 . S
H2451 C2459 0.950 . S
H2452 C2457 0.950 . S
H2453 C2458 0.949 . S
H2454 C2460 0.950 . S
H2455 C2461 0.950 . S
H2456 C2462 0.949 . S
C2457 H2452 0.950 . S
C2457 C2459 1.327 . S
C2457 C2463 1.429 . S
C2458 C2450 1.574 . S
C2458 H2453 0.949 . S
C2458 C2464 1.368 . S
C2459 C2443 1.349 . S
C2459 H2451 0.950 . S
C2459 C2457 1.327 . S
C2460 C2448 1.349 . S
C2460 H2454 0.950 . S
C2460 C2461 1.327 . S
C2461 H2455 0.950 . S
C2461 C2460 1.327 . S
C2461 C2465 1.429 . S
C2462 C2445 1.574 . S
C2462 H2456 0.949 . S
C2462 C2466 1.368 . S
C2463 C2444 1.429 . S
C2463 C2457 1.429 . S
C2463 C2464 1.523 . S
C2464 C2445 1.368 . S
C2464 C2458 1.368 . S
C2464 C2463 1.523 . S
C2465 C2449 1.429 . S
C2465 C2461 1.429 . S
C2465 C2466 1.523 . S
C2466 C2450 1.368 . S
C2466 C2462 1.368 . S
C2466 C2465 1.523 . S
H2467 C2442 0.950 . S
H2468 C2444 0.950 . S
H2469 C2445 0.949 . S
H2470 C2447 0.950 . S
H2471 C2449 0.950 . S
C2472 C2473 1.349 . S
C2472 C2474 1.327 . S
C2472 H2497 0.950 . S
C2473 C2472 1.349 . S
C2473 C2489 1.349 . S
C2474 C2472 1.327 . S
C2474 C2493 1.429 . S
C2474 H2498 0.950 . S
C2475 C2492 1.574 . S
C2475 C2494 1.368 . S
C2475 H2499 0.949 . S
H2476 C2480 0.949 . S
C2477 C2478 1.349 . S
C2477 C2479 1.327 . S
C2477 H2500 0.950 . S
C2478 C2477 1.349 . S
C2478 C2490 1.349 . S
C2479 C2477 1.327 . S
C2479 C2495 1.429 . S
C2479 H2501 0.950 . S
C2480 H2476 0.949 . S
C2480 C2488 1.574 . S
C2480 C2496 1.368 . S
H2481 C2489 0.950 . S
H2482 C2487 0.950 . S
H2483 C2488 0.949 . S
H2484 C2490 0.950 . S
H2485 C2491 0.950 . S
H2486 C2492 0.949 . S
C2487 H2482 0.950 . S
C2487 C2489 1.327 . S
C2487 C2493 1.429 . S
C2488 C2480 1.574 . S
C2488 H2483 0.949 . S
C2488 C2494 1.368 . S
C2489 C2473 1.349 . S
C2489 H2481 0.950 . S
C2489 C2487 1.327 . S
C2490 C2478 1.349 . S
C2490 H2484 0.950 . S
C2490 C2491 1.327 . S
C2491 H2485 0.950 . S
C2491 C2490 1.327 . S
C2491 C2495 1.429 . S
C2492 C2475 1.574 . S
C2492 H2486 0.949 . S
C2492 C2496 1.368 . S
C2493 C2474 1.429 . S
C2493 C2487 1.429 . S
C2493 C2494 1.523 . S
C2494 C2475 1.368 . S
C2494 C2488 1.368 . S
C2494 C2493 1.523 . S
C2495 C2479 1.429 . S
C2495 C2491 1.429 . S
C2495 C2496 1.523 . S
C2496 C2480 1.368 . S
C2496 C2492 1.368 . S
C2496 C2495 1.523 . S
H2497 C2472 0.950 . S
H2498 C2474 0.950 . S
H2499 C2475 0.949 . S
H2500 C2477 0.950 . S
H2501 C2479 0.950 . S
C2502 C2503 1.349 . S
C2502 C2504 1.327 . S
C2502 H2527 0.950 . S
C2503 C2502 1.349 . S
C2503 C2519 1.349 . S
C2504 C2502 1.327 . S
C2504 C2523 1.429 . S
C2504 H2528 0.950 . S
C2505 C2522 1.574 . S
C2505 C2524 1.368 . S
C2505 H2529 0.949 . S
H2506 C2510 0.949 . S
C2507 C2508 1.349 . S
C2507 C2509 1.327 . S
C2507 H2530 0.950 . S
C2508 C2507 1.349 . S
C2508 C2520 1.349 . S
C2509 C2507 1.327 . S
C2509 C2525 1.429 . S
C2509 H2531 0.950 . S
C2510 H2506 0.949 . S
C2510 C2518 1.574 . S
C2510 C2526 1.368 . S
H2511 C2519 0.950 . S
H2512 C2517 0.950 . S
H2513 C2518 0.949 . S
H2514 C2520 0.950 . S
H2515 C2521 0.950 . S
H2516 C2522 0.949 . S
C2517 H2512 0.950 . S
C2517 C2519 1.327 . S
C2517 C2523 1.429 . S
C2518 C2510 1.574 . S
C2518 H2513 0.949 . S
C2518 C2524 1.368 . S
C2519 C2503 1.349 . S
C2519 H2511 0.950 . S
C2519 C2517 1.327 . S
C2520 C2508 1.349 . S
C2520 H2514 0.950 . S
C2520 C2521 1.327 . S
C2521 H2515 0.950 . S
C2521 C2520 1.327 . S
C2521 C2525 1.429 . S
C2522 C2505 1.574 . S
C2522 H2516 0.949 . S
C2522 C2526 1.368 . S
C2523 C2504 1.429 . S
C2523 C2517 1.429 . S
C2523 C2524 1.523 . S
C2524 C2505 1.368 . S
C2524 C2518 1.368 . S
C2524 C2523 1.523 . S
C2525 C2509 1.429 . S
C2525 C2521 1.429 . S
C2525 C2526 1.523 . S
C2526 C2510 1.368 . S
C2526 C2522 1.368 . S
C2526 C2525 1.523 . S
H2527 C2502 0.950 . S
H2528 C2504 0.950 . S
H2529 C2505 0.949 . S
H2530 C2507 0.950 . S
H2531 C2509 0.950 . S
C2532 C2533 1.349 . S
C2532 C2534 1.327 . S
C2532 H2557 0.950 . S
C2533 C2532 1.349 . S
C2533 C2549 1.349 . S
C2534 C2532 1.327 . S
C2534 C2553 1.429 . S
C2534 H2558 0.950 . S
C2535 C2552 1.574 . S
C2535 C2554 1.368 . S
C2535 H2559 0.949 . S
H2536 C2540 0.949 . S
C2537 C2538 1.349 . S
C2537 C2539 1.327 . S
C2537 H2560 0.950 . S
C2538 C2537 1.349 . S
C2538 C2550 1.349 . S
C2539 C2537 1.327 . S
C2539 C2555 1.429 . S
C2539 H2561 0.950 . S
C2540 H2536 0.949 . S
C2540 C2548 1.574 . S
C2540 C2556 1.368 . S
H2541 C2549 0.950 . S
H2542 C2547 0.950 . S
H2543 C2548 0.949 . S
H2544 C2550 0.950 . S
H2545 C2551 0.950 . S
H2546 C2552 0.949 . S
C2547 H2542 0.950 . S
C2547 C2549 1.327 . S
C2547 C2553 1.429 . S
C2548 C2540 1.574 . S
C2548 H2543 0.949 . S
C2548 C2554 1.368 . S
C2549 C2533 1.349 . S
C2549 H2541 0.950 . S
C2549 C2547 1.327 . S
C2550 C2538 1.349 . S
C2550 H2544 0.950 . S
C2550 C2551 1.327 . S
C2551 H2545 0.950 . S
C2551 C2550 1.327 . S
C2551 C2555 1.429 . S
C2552 C2535 1.574 . S
C2552 H2546 0.949 . S
C2552 C2556 1.368 . S
C2553 C2534 1.429 . S
C2553 C2547 1.429 . S
C2553 C2554 1.523 . S
C2554 C2535 1.368 . S
C2554 C2548 1.368 . S
C2554 C2553 1.523 . S
C2555 C2539 1.429 . S
C2555 C2551 1.429 . S
C2555 C2556 1.523 . S
C2556 C2540 1.368 . S
C2556 C2552 1.368 . S
C2556 C2555 1.523 . S
H2557 C2532 0.950 . S
H2558 C2534 0.950 . S
H2559 C2535 0.949 . S
H2560 C2537 0.950 . S
H2561 C2539 0.950 . S
C2562 C2563 1.349 . S
C2562 C2564 1.327 . S
C2562 H2587 0.950 . S
C2563 C2562 1.349 . S
C2563 C2579 1.349 . S
C2564 C2562 1.327 . S
C2564 C2583 1.429 . S
C2564 H2588 0.950 . S
C2565 C2582 1.574 . S
C2565 C2584 1.368 . S
C2565 H2589 0.949 . S
H2566 C2570 0.949 . S
C2567 C2568 1.349 . S
C2567 C2569 1.327 . S
C2567 H2590 0.950 . S
C2568 C2567 1.349 . S
C2568 C2580 1.349 . S
C2569 C2567 1.327 . S
C2569 C2585 1.429 . S
C2569 H2591 0.950 . S
C2570 H2566 0.949 . S
C2570 C2578 1.574 . S
C2570 C2586 1.368 . S
H2571 C2579 0.950 . S
H2572 C2577 0.950 . S
H2573 C2578 0.949 . S
H2574 C2580 0.950 . S
H2575 C2581 0.950 . S
H2576 C2582 0.949 . S
C2577 H2572 0.950 . S
C2577 C2579 1.327 . S
C2577 C2583 1.429 . S
C2578 C2570 1.574 . S
C2578 H2573 0.949 . S
C2578 C2584 1.368 . S
C2579 C2563 1.349 . S
C2579 H2571 0.950 . S
C2579 C2577 1.327 . S
C2580 C2568 1.349 . S
C2580 H2574 0.950 . S
C2580 C2581 1.327 . S
C2581 H2575 0.950 . S
C2581 C2580 1.327 . S
C2581 C2585 1.429 . S
C2582 C2565 1.574 . S
C2582 H2576 0.949 . S
C2582 C2586 1.368 . S
C2583 C2564 1.429 . S
C2583 C2577 1.429 . S
C2583 C2584 1.523 . S
C2584 C2565 1.368 . S
C2584 C2578 1.368 . S
C2584 C2583 1.523 . S
C2585 C2569 1.429 . S
C2585 C2581 1.429 . S
C2585 C2586 1.523 . S
C2586 C2570 1.368 . S
C2586 C2582 1.368 . S
C2586 C2585 1.523 . S
H2587 C2562 0.950 . S
H2588 C2564 0.950 . S
H2589 C2565 0.949 . S
H2590 C2567 0.950 . S
H2591 C2569 0.950 . S
C2592 C2593 1.349 . S
C2592 C2594 1.327 . S
C2592 H2617 0.950 . S
C2593 C2592 1.349 . S
C2593 C2609 1.349 . S
C2594 C2592 1.327 . S
C2594 C2613 1.429 . S
C2594 H2618 0.950 . S
C2595 C2612 1.574 . S
C2595 C2614 1.368 . S
C2595 H2619 0.949 . S
H2596 C2600 0.949 . S
C2597 C2598 1.349 . S
C2597 C2599 1.327 . S
C2597 H2620 0.950 . S
C2598 C2597 1.349 . S
C2598 C2610 1.349 . S
C2599 C2597 1.327 . S
C2599 C2615 1.429 . S
C2599 H2621 0.950 . S
C2600 H2596 0.949 . S
C2600 C2608 1.574 . S
C2600 C2616 1.368 . S
H2601 C2609 0.950 . S
H2602 C2607 0.950 . S
H2603 C2608 0.949 . S
H2604 C2610 0.950 . S
H2605 C2611 0.950 . S
H2606 C2612 0.949 . S
C2607 H2602 0.950 . S
C2607 C2609 1.327 . S
C2607 C2613 1.429 . S
C2608 C2600 1.574 . S
C2608 H2603 0.949 . S
C2608 C2614 1.368 . S
C2609 C2593 1.349 . S
C2609 H2601 0.950 . S
C2609 C2607 1.327 . S
C2610 C2598 1.349 . S
C2610 H2604 0.950 . S
C2610 C2611 1.327 . S
C2611 H2605 0.950 . S
C2611 C2610 1.327 . S
C2611 C2615 1.429 . S
C2612 C2595 1.574 . S
C2612 H2606 0.949 . S
C2612 C2616 1.368 . S
C2613 C2594 1.429 . S
C2613 C2607 1.429 . S
C2613 C2614 1.523 . S
C2614 C2595 1.368 . S
C2614 C2608 1.368 . S
C2614 C2613 1.523 . S
C2615 C2599 1.429 . S
C2615 C2611 1.429 . S
C2615 C2616 1.523 . S
C2616 C2600 1.368 . S
C2616 C2612 1.368 . S
C2616 C2615 1.523 . S
H2617 C2592 0.950 . S
H2618 C2594 0.950 . S
H2619 C2595 0.949 . S
H2620 C2597 0.950 . S
H2621 C2599 0.950 . S
C2622 C2623 1.349 . S
C2622 C2624 1.327 . S
C2622 H2647 0.950 . S
C2623 C2622 1.349 . S
C2623 C2639 1.349 . S
C2624 C2622 1.327 . S
C2624 C2643 1.429 . S
C2624 H2648 0.950 . S
C2625 C2642 1.574 . S
C2625 C2644 1.368 . S
C2625 H2649 0.949 . S
H2626 C2630 0.949 . S
C2627 C2628 1.349 . S
C2627 C2629 1.327 . S
C2627 H2650 0.950 . S
C2628 C2627 1.349 . S
C2628 C2640 1.349 . S
C2629 C2627 1.327 . S
C2629 C2645 1.429 . S
C2629 H2651 0.950 . S
C2630 H2626 0.949 . S
C2630 C2638 1.574 . S
C2630 C2646 1.368 . S
H2631 C2639 0.950 . S
H2632 C2637 0.950 . S
H2633 C2638 0.949 . S
H2634 C2640 0.950 . S
H2635 C2641 0.950 . S
H2636 C2642 0.949 . S
C2637 H2632 0.950 . S
C2637 C2639 1.327 . S
C2637 C2643 1.429 . S
C2638 C2630 1.574 . S
C2638 H2633 0.949 . S
C2638 C2644 1.368 . S
C2639 C2623 1.349 . S
C2639 H2631 0.950 . S
C2639 C2637 1.327 . S
C2640 C2628 1.349 . S
C2640 H2634 0.950 . S
C2640 C2641 1.327 . S
C2641 H2635 0.950 . S
C2641 C2640 1.327 . S
C2641 C2645 1.429 . S
C2642 C2625 1.574 . S
C2642 H2636 0.949 . S
C2642 C2646 1.368 . S
C2643 C2624 1.429 . S
C2643 C2637 1.429 . S
C2643 C2644 1.523 . S
C2644 C2625 1.368 . S
C2644 C2638 1.368 . S
C2644 C2643 1.523 . S
C2645 C2629 1.429 . S
C2645 C2641 1.429 . S
C2645 C2646 1.523 . S
C2646 C2630 1.368 . S
C2646 C2642 1.368 . S
C2646 C2645 1.523 . S
H2647 C2622 0.950 . S
H2648 C2624 0.950 . S
H2649 C2625 0.949 . S
H2650 C2627 0.950 . S
H2651 C2629 0.950 . S
C2652 C2653 1.349 . S
C2652 C2654 1.327 . S
C2652 H2677 0.950 . S
C2653 C2652 1.349 . S
C2653 C2669 1.349 . S
C2654 C2652 1.327 . S
C2654 C2673 1.429 . S
C2654 H2678 0.950 . S
C2655 C2672 1.574 . S
C2655 C2674 1.368 . S
C2655 H2679 0.949 . S
H2656 C2660 0.949 . S
C2657 C2658 1.349 . S
C2657 C2659 1.327 . S
C2657 H2680 0.950 . S
C2658 C2657 1.349 . S
C2658 C2670 1.349 . S
C2659 C2657 1.327 . S
C2659 C2675 1.429 . S
C2659 H2681 0.950 . S
C2660 H2656 0.949 . S
C2660 C2668 1.574 . S
C2660 C2676 1.368 . S
H2661 C2669 0.950 . S
H2662 C2667 0.950 . S
H2663 C2668 0.949 . S
H2664 C2670 0.950 . S
H2665 C2671 0.950 . S
H2666 C2672 0.949 . S
C2667 H2662 0.950 . S
C2667 C2669 1.327 . S
C2667 C2673 1.429 . S
C2668 C2660 1.574 . S
C2668 H2663 0.949 . S
C2668 C2674 1.368 . S
C2669 C2653 1.349 . S
C2669 H2661 0.950 . S
C2669 C2667 1.327 . S
C2670 C2658 1.349 . S
C2670 H2664 0.950 . S
C2670 C2671 1.327 . S
C2671 H2665 0.950 . S
C2671 C2670 1.327 . S
C2671 C2675 1.429 . S
C2672 C2655 1.574 . S
C2672 H2666 0.949 . S
C2672 C2676 1.368 . S
C2673 C2654 1.429 . S
C2673 C2667 1.429 . S
C2673 C2674 1.523 . S
C2674 C2655 1.368 . S
C2674 C2668 1.368 . S
C2674 C2673 1.523 . S
C2675 C2659 1.429 . S
C2675 C2671 1.429 . S
C2675 C2676 1.523 . S
C2676 C2660 1.368 . S
C2676 C2672 1.368 . S
C2676 C2675 1.523 . S
H2677 C2652 0.950 . S
H2678 C2654 0.950 . S
H2679 C2655 0.949 . S
H2680 C2657 0.950 . S
H2681 C2659 0.950 . S
C2682 C2683 1.349 1_556 S
C2682 C2684 1.327 . S
C2682 H2707 0.950 . S
C2683 C2682 1.349 1_554 S
C2683 C2699 1.349 . S
C2684 C2682 1.327 . S
C2684 C2703 1.429 1_556 S
C2684 H2708 0.950 . S
C2685 C2702 1.574 . S
C2685 C2704 1.368 . S
C2685 H2709 0.949 . S
H2686 C2690 0.949 . S
C2687 C2688 1.349 . S
C2687 C2689 1.327 . S
C2687 H2710 0.950 . S
C2688 C2687 1.349 . S
C2688 C2700 1.349 1_554 S
C2689 C2687 1.327 . S
C2689 C2705 1.429 . S
C2689 H2711 0.950 . S
C2690 H2686 0.949 . S
C2690 C2698 1.574 . S
C2690 C2706 1.368 1_556 S
H2691 C2699 0.950 . S
H2692 C2697 0.950 . S
H2693 C2698 0.949 . S
H2694 C2700 0.950 . S
H2695 C2701 0.950 . S
H2696 C2702 0.949 . S
C2697 H2692 0.950 . S
C2697 C2699 1.327 . S
C2697 C2703 1.429 . S
C2698 C2690 1.574 . S
C2698 H2693 0.949 . S
C2698 C2704 1.368 1_556 S
C2699 C2683 1.349 . S
C2699 H2691 0.950 . S
C2699 C2697 1.327 . S
C2700 C2688 1.349 1_556 S
C2700 H2694 0.950 . S
C2700 C2701 1.327 . S
C2701 H2695 0.950 . S
C2701 C2700 1.327 . S
C2701 C2705 1.429 1_556 S
C2702 C2685 1.574 . S
C2702 H2696 0.949 . S
C2702 C2706 1.368 . S
C2703 C2684 1.429 1_554 S
C2703 C2697 1.429 . S
C2703 C2704 1.523 . S
C2704 C2685 1.368 . S
C2704 C2698 1.368 1_554 S
C2704 C2703 1.523 . S
C2705 C2689 1.429 . S
C2705 C2701 1.429 1_554 S
C2705 C2706 1.523 . S
C2706 C2690 1.368 1_554 S
C2706 C2702 1.368 . S
C2706 C2705 1.523 . S
H2707 C2682 0.950 . S
H2708 C2684 0.950 . S
H2709 C2685 0.949 . S
H2710 C2687 0.950 . S
H2711 C2689 0.950 . S
C2712 C2713 1.349 . S
C2712 C2714 1.327 . S
C2712 H2737 0.950 . S
C2713 C2712 1.349 . S
C2713 C2729 1.349 . S
C2714 C2712 1.327 . S
C2714 C2733 1.429 . S
C2714 H2738 0.950 . S
C2715 C2732 1.574 . S
C2715 C2734 1.368 . S
C2715 H2739 0.949 . S
H2716 C2720 0.949 . S
C2717 C2718 1.349 . S
C2717 C2719 1.327 . S
C2717 H2740 0.950 . S
C2718 C2717 1.349 . S
C2718 C2730 1.349 . S
C2719 C2717 1.327 . S
C2719 C2735 1.429 . S
C2719 H2741 0.950 . S
C2720 H2716 0.949 . S
C2720 C2728 1.574 . S
C2720 C2736 1.368 . S
H2721 C2729 0.950 . S
H2722 C2727 0.950 . S
H2723 C2728 0.949 . S
H2724 C2730 0.950 . S
H2725 C2731 0.950 . S
H2726 C2732 0.949 . S
C2727 H2722 0.950 . S
C2727 C2729 1.327 . S
C2727 C2733 1.429 . S
C2728 C2720 1.574 . S
C2728 H2723 0.949 . S
C2728 C2734 1.368 . S
C2729 C2713 1.349 . S
C2729 H2721 0.950 . S
C2729 C2727 1.327 . S
C2730 C2718 1.349 . S
C2730 H2724 0.950 . S
C2730 C2731 1.327 . S
C2731 H2725 0.950 . S
C2731 C2730 1.327 . S
C2731 C2735 1.429 . S
C2732 C2715 1.574 . S
C2732 H2726 0.949 . S
C2732 C2736 1.368 . S
C2733 C2714 1.429 . S
C2733 C2727 1.429 . S
C2733 C2734 1.523 . S
C2734 C2715 1.368 . S
C2734 C2728 1.368 . S
C2734 C2733 1.523 . S
C2735 C2719 1.429 . S
C2735 C2731 1.429 . S
C2735 C2736 1.523 . S
C2736 C2720 1.368 . S
C2736 C2732 1.368 . S
C2736 C2735 1.523 . S
H2737 C2712 0.950 . S
H2738 C2714 0.950 . S
H2739 C2715 0.949 . S
H2740 C2717 0.950 . S
H2741 C2719 0.950 . S
C2742 C2743 1.349 . S
C2742 C2744 1.327 . S
C2742 H2767 0.950 . S
C2743 C2742 1.349 . S
C2743 C2759 1.349 1_554 S
C2744 C2742 1.327 . S
C2744 C2763 1.429 . S
C2744 H2768 0.950 . S
C2745 C2762 1.574 . S
C2745 C2764 1.368 1_556 S
C2745 H2769 0.949 . S
H2746 C2750 0.949 . S
C2747 C2748 1.349 . S
C2747 C2749 1.327 . S
C2747 H2770 0.950 . S
C2748 C2747 1.349 . S
C2748 C2760 1.349 1_556 S
C2749 C2747 1.327 . S
C2749 C2765 1.429 . S
C2749 H2771 0.950 . S
C2750 H2746 0.949 . S
C2750 C2758 1.574 . S
C2750 C2766 1.367 1_554 S
H2751 C2759 0.950 . S
H2752 C2757 0.950 . S
H2753 C2758 0.949 . S
H2754 C2760 0.950 . S
H2755 C2761 0.950 . S
H2756 C2762 0.949 . S
C2757 H2752 0.950 . S
C2757 C2759 1.327 . S
C2757 C2763 1.429 1_556 S
C2758 C2750 1.574 . S
C2758 H2753 0.949 . S
C2758 C2764 1.368 . S
C2759 C2743 1.349 1_556 S
C2759 H2751 0.950 . S
C2759 C2757 1.327 . S
C2760 C2748 1.349 1_554 S
C2760 H2754 0.950 . S
C2760 C2761 1.327 . S
C2761 H2755 0.950 . S
C2761 C2760 1.327 . S
C2761 C2765 1.429 1_554 S
C2762 C2745 1.574 . S
C2762 H2756 0.949 . S
C2762 C2766 1.369 . S
C2763 C2744 1.429 . S
C2763 C2757 1.429 1_554 S
C2763 C2764 1.523 . S
C2764 C2745 1.368 1_554 S
C2764 C2758 1.368 . S
C2764 C2763 1.523 . S
C2765 C2749 1.429 . S
C2765 C2761 1.429 1_556 S
C2765 C2766 1.523 . S
C2766 C2750 1.367 1_556 S
C2766 C2762 1.369 . S
C2766 C2765 1.523 . S
H2767 C2742 0.950 . S
H2768 C2744 0.950 . S
H2769 C2745 0.949 . S
H2770 C2747 0.950 . S
H2771 C2749 0.950 . S
C2772 C2773 1.349 . S
C2772 C2774 1.327 . S
C2772 H2797 0.950 . S
C2773 C2772 1.349 . S
C2773 C2789 1.349 . S
C2774 C2772 1.327 . S
C2774 C2793 1.429 . S
C2774 H2798 0.950 . S
C2775 C2792 1.574 . S
C2775 C2794 1.368 . S
C2775 H2799 0.949 . S
H2776 C2780 0.949 . S
C2777 C2778 1.349 . S
C2777 C2779 1.327 . S
C2777 H2800 0.950 . S
C2778 C2777 1.349 . S
C2778 C2790 1.349 . S
C2779 C2777 1.327 . S
C2779 C2795 1.429 . S
C2779 H2801 0.950 . S
C2780 H2776 0.949 . S
C2780 C2788 1.574 . S
C2780 C2796 1.368 . S
H2781 C2789 0.950 . S
H2782 C2787 0.950 . S
H2783 C2788 0.949 . S
H2784 C2790 0.950 . S
H2785 C2791 0.950 . S
H2786 C2792 0.949 . S
C2787 H2782 0.950 . S
C2787 C2789 1.327 . S
C2787 C2793 1.429 . S
C2788 C2780 1.574 . S
C2788 H2783 0.949 . S
C2788 C2794 1.368 . S
C2789 C2773 1.349 . S
C2789 H2781 0.950 . S
C2789 C2787 1.327 . S
C2790 C2778 1.349 . S
C2790 H2784 0.950 . S
C2790 C2791 1.327 . S
C2791 H2785 0.950 . S
C2791 C2790 1.327 . S
C2791 C2795 1.429 . S
C2792 C2775 1.574 . S
C2792 H2786 0.949 . S
C2792 C2796 1.368 . S
C2793 C2774 1.429 . S
C2793 C2787 1.429 . S
C2793 C2794 1.523 . S
C2794 C2775 1.368 . S
C2794 C2788 1.368 . S
C2794 C2793 1.523 . S
C2795 C2779 1.429 . S
C2795 C2791 1.429 . S
C2795 C2796 1.523 . S
C2796 C2780 1.368 . S
C2796 C2792 1.368 . S
C2796 C2795 1.523 . S
H2797 C2772 0.950 . S
H2798 C2774 0.950 . S
H2799 C2775 0.949 . S
H2800 C2777 0.950 . S
H2801 C2779 0.950 . S
C2802 C2803 1.349 . S
C2802 C2804 1.327 . S
C2802 H2827 0.950 . S
C2803 C2802 1.349 . S
C2803 C2819 1.349 . S
C2804 C2802 1.327 . S
C2804 C2823 1.429 . S
C2804 H2828 0.950 . S
C2805 C2822 1.574 . S
C2805 C2824 1.368 . S
C2805 H2829 0.949 . S
H2806 C2810 0.949 . S
C2807 C2808 1.349 . S
C2807 C2809 1.327 . S
C2807 H2830 0.950 . S
C2808 C2807 1.349 . S
C2808 C2820 1.349 . S
C2809 C2807 1.327 . S
C2809 C2825 1.429 . S
C2809 H2831 0.950 . S
C2810 H2806 0.949 . S
C2810 C2818 1.574 . S
C2810 C2826 1.368 . S
H2811 C2819 0.950 . S
H2812 C2817 0.950 . S
H2813 C2818 0.949 . S
H2814 C2820 0.950 . S
H2815 C2821 0.950 . S
H2816 C2822 0.949 . S
C2817 H2812 0.950 . S
C2817 C2819 1.327 . S
C2817 C2823 1.429 . S
C2818 C2810 1.574 . S
C2818 H2813 0.949 . S
C2818 C2824 1.368 . S
C2819 C2803 1.349 . S
C2819 H2811 0.950 . S
C2819 C2817 1.327 . S
C2820 C2808 1.349 . S
C2820 H2814 0.950 . S
C2820 C2821 1.327 . S
C2821 H2815 0.950 . S
C2821 C2820 1.327 . S
C2821 C2825 1.429 . S
C2822 C2805 1.574 . S
C2822 H2816 0.949 . S
C2822 C2826 1.368 . S
C2823 C2804 1.429 . S
C2823 C2817 1.429 . S
C2823 C2824 1.523 . S
C2824 C2805 1.368 . S
C2824 C2818 1.368 . S
C2824 C2823 1.523 . S
C2825 C2809 1.429 . S
C2825 C2821 1.429 . S
C2825 C2826 1.523 . S
C2826 C2810 1.368 . S
C2826 C2822 1.368 . S
C2826 C2825 1.523 . S
H2827 C2802 0.950 . S
H2828 C2804 0.950 . S
H2829 C2805 0.949 . S
H2830 C2807 0.950 . S
H2831 C2809 0.950 . S
C2832 C2833 1.349 . S
C2832 C2834 1.327 . S
C2832 H2857 0.950 . S
C2833 C2832 1.349 . S
C2833 C2849 1.349 . S
C2834 C2832 1.327 . S
C2834 C2853 1.429 . S
C2834 H2858 0.950 . S
C2835 C2852 1.574 . S
C2835 C2854 1.368 . S
C2835 H2859 0.949 . S
H2836 C2840 0.949 . S
C2837 C2838 1.349 . S
C2837 C2839 1.327 . S
C2837 H2860 0.950 . S
C2838 C2837 1.349 . S
C2838 C2850 1.349 . S
C2839 C2837 1.327 . S
C2839 C2855 1.429 . S
C2839 H2861 0.950 . S
C2840 H2836 0.949 . S
C2840 C2848 1.574 . S
C2840 C2856 1.368 . S
H2841 C2849 0.950 . S
H2842 C2847 0.950 . S
H2843 C2848 0.949 . S
H2844 C2850 0.950 . S
H2845 C2851 0.950 . S
H2846 C2852 0.949 . S
C2847 H2842 0.950 . S
C2847 C2849 1.327 . S
C2847 C2853 1.429 . S
C2848 C2840 1.574 . S
C2848 H2843 0.949 . S
C2848 C2854 1.368 . S
C2849 C2833 1.349 . S
C2849 H2841 0.950 . S
C2849 C2847 1.327 . S
C2850 C2838 1.349 . S
C2850 H2844 0.950 . S
C2850 C2851 1.327 . S
C2851 H2845 0.950 . S
C2851 C2850 1.327 . S
C2851 C2855 1.429 . S
C2852 C2835 1.574 . S
C2852 H2846 0.949 . S
C2852 C2856 1.368 . S
C2853 C2834 1.429 . S
C2853 C2847 1.429 . S
C2853 C2854 1.523 . S
C2854 C2835 1.368 . S
C2854 C2848 1.368 . S
C2854 C2853 1.523 . S
C2855 C2839 1.429 . S
C2855 C2851 1.429 . S
C2855 C2856 1.523 . S
C2856 C2840 1.368 . S
C2856 C2852 1.368 . S
C2856 C2855 1.523 . S
H2857 C2832 0.950 . S
H2858 C2834 0.950 . S
H2859 C2835 0.949 . S
H2860 C2837 0.950 . S
H2861 C2839 0.950 . S
C2862 C2863 1.349 . S
C2862 C2864 1.327 . S
C2862 H2887 0.950 . S
C2863 C2862 1.349 . S
C2863 C2879 1.349 . S
C2864 C2862 1.327 . S
C2864 C2883 1.429 . S
C2864 H2888 0.950 . S
C2865 C2882 1.574 . S
C2865 C2884 1.368 . S
C2865 H2889 0.949 . S
H2866 C2870 0.949 . S
C2867 C2868 1.349 . S
C2867 C2869 1.327 . S
C2867 H2890 0.950 . S
C2868 C2867 1.349 . S
C2868 C2880 1.349 . S
C2869 C2867 1.327 . S
C2869 C2885 1.429 . S
C2869 H2891 0.950 . S
C2870 H2866 0.949 . S
C2870 C2878 1.574 . S
C2870 C2886 1.368 . S
H2871 C2879 0.950 . S
H2872 C2877 0.950 . S
H2873 C2878 0.949 . S
H2874 C2880 0.950 . S
H2875 C2881 0.950 . S
H2876 C2882 0.949 . S
C2877 H2872 0.950 . S
C2877 C2879 1.327 . S
C2877 C2883 1.429 . S
C2878 C2870 1.574 . S
C2878 H2873 0.949 . S
C2878 C2884 1.368 . S
C2879 C2863 1.349 . S
C2879 H2871 0.950 . S
C2879 C2877 1.327 . S
C2880 C2868 1.349 . S
C2880 H2874 0.950 . S
C2880 C2881 1.327 . S
C2881 H2875 0.950 . S
C2881 C2880 1.327 . S
C2881 C2885 1.429 . S
C2882 C2865 1.574 . S
C2882 H2876 0.949 . S
C2882 C2886 1.368 . S
C2883 C2864 1.429 . S
C2883 C2877 1.429 . S
C2883 C2884 1.523 . S
C2884 C2865 1.368 . S
C2884 C2878 1.368 . S
C2884 C2883 1.523 . S
C2885 C2869 1.429 . S
C2885 C2881 1.429 . S
C2885 C2886 1.523 . S
C2886 C2870 1.368 . S
C2886 C2882 1.368 . S
C2886 C2885 1.523 . S
H2887 C2862 0.950 . S
H2888 C2864 0.950 . S
H2889 C2865 0.949 . S
H2890 C2867 0.950 . S
H2891 C2869 0.950 . S
C2892 C2893 1.349 1_655 S
C2892 C2894 1.327 . S
C2892 H2917 0.950 . S
C2893 C2892 1.349 1_455 S
C2893 C2909 1.349 . S
C2894 C2892 1.327 . S
C2894 C2913 1.429 1_655 S
C2894 H2918 0.950 . S
C2895 C2912 1.574 . S
C2895 C2914 1.368 . S
C2895 H2919 0.949 . S
H2896 C2900 0.949 . S
C2897 C2898 1.349 1_455 S
C2897 C2899 1.327 . S
C2897 H2920 0.950 . S
C2898 C2897 1.349 1_655 S
C2898 C2910 1.349 . S
C2899 C2897 1.327 . S
C2899 C2915 1.463 . S
C2899 H2921 0.950 . S
C2900 H2896 0.949 . S
C2900 C2908 1.574 . S
C2900 C2916 1.368 1_655 S
H2901 C2909 0.950 . S
H2902 C2907 0.950 . S
H2903 C2908 0.949 . S
H2904 C2910 0.950 . S
H2905 C2911 0.950 . S
H2906 C2912 0.949 . S
C2907 H2902 0.950 . S
C2907 C2909 1.327 . S
C2907 C2913 1.429 . S
C2908 C2900 1.574 . S
C2908 H2903 0.949 . S
C2908 C2914 1.368 1_655 S
C2909 C2893 1.349 . S
C2909 H2901 0.950 . S
C2909 C2907 1.327 . S
C2910 C2898 1.349 . S
C2910 H2904 0.950 . S
C2910 C2911 1.327 . S
C2911 H2905 0.950 . S
C2911 C2910 1.327 . S
C2911 C2915 1.393 1_655 S
C2912 C2895 1.574 . S
C2912 H2906 0.949 . S
C2912 C2916 1.368 . S
C2913 C2894 1.429 1_455 S
C2913 C2907 1.429 . S
C2913 C2914 1.523 . S
C2914 C2895 1.368 . S
C2914 C2908 1.368 1_455 S
C2914 C2913 1.523 . S
C2915 C2899 1.463 . S
C2915 C2911 1.393 1_455 S
C2915 C2916 1.525 . S
C2916 C2900 1.368 1_455 S
C2916 C2912 1.368 . S
C2916 C2915 1.525 . S
H2917 C2892 0.950 . S
H2918 C2894 0.950 . S
H2919 C2895 0.949 . S
H2920 C2897 0.950 . S
H2921 C2899 0.950 . S
C2922 C2923 1.349 . S
C2922 C2924 1.327 . S
C2922 H2947 0.950 . S
C2923 C2922 1.349 . S
C2923 C2939 1.349 . S
C2924 C2922 1.327 . S
C2924 C2943 1.429 . S
C2924 H2948 0.950 . S
C2925 C2942 1.574 . S
C2925 C2944 1.368 . S
C2925 H2949 0.949 . S
H2926 C2930 0.949 . S
C2927 C2928 1.349 . S
C2927 C2929 1.327 . S
C2927 H2950 0.950 . S
C2928 C2927 1.349 . S
C2928 C2940 1.349 . S
C2929 C2927 1.327 . S
C2929 C2945 1.429 . S
C2929 H2951 0.950 . S
C2930 H2926 0.949 . S
C2930 C2938 1.574 . S
C2930 C2946 1.368 . S
H2931 C2939 0.950 . S
H2932 C2937 0.950 . S
H2933 C2938 0.949 . S
H2934 C2940 0.950 . S
H2935 C2941 0.950 . S
H2936 C2942 0.949 . S
C2937 H2932 0.950 . S
C2937 C2939 1.327 . S
C2937 C2943 1.429 . S
C2938 C2930 1.574 . S
C2938 H2933 0.949 . S
C2938 C2944 1.368 . S
C2939 C2923 1.349 . S
C2939 H2931 0.950 . S
C2939 C2937 1.327 . S
C2940 C2928 1.349 . S
C2940 H2934 0.950 . S
C2940 C2941 1.327 . S
C2941 H2935 0.950 . S
C2941 C2940 1.327 . S
C2941 C2945 1.429 . S
C2942 C2925 1.574 . S
C2942 H2936 0.949 . S
C2942 C2946 1.368 . S
C2943 C2924 1.429 . S
C2943 C2937 1.429 . S
C2943 C2944 1.523 . S
C2944 C2925 1.368 . S
C2944 C2938 1.368 . S
C2944 C2943 1.523 . S
C2945 C2929 1.429 . S
C2945 C2941 1.429 . S
C2945 C2946 1.523 . S
C2946 C2930 1.368 . S
C2946 C2942 1.368 . S
C2946 C2945 1.523 . S
H2947 C2922 0.950 . S
H2948 C2924 0.950 . S
H2949 C2925 0.949 . S
H2950 C2927 0.950 . S
H2951 C2929 0.950 . S
C2952 C2953 1.349 . S
C2952 C2954 1.327 . S
C2952 H2977 0.950 . S
C2953 C2952 1.349 . S
C2953 C2969 1.349 . S
C2954 C2952 1.327 . S
C2954 C2973 1.429 . S
C2954 H2978 0.950 . S
C2955 C2972 1.574 . S
C2955 C2974 1.368 . S
C2955 H2979 0.949 . S
H2956 C2960 0.949 . S
C2957 C2958 1.349 . S
C2957 C2959 1.327 . S
C2957 H2980 0.950 . S
C2958 C2957 1.349 . S
C2958 C2970 1.349 . S
C2959 C2957 1.327 . S
C2959 C2975 1.429 . S
C2959 H2981 0.950 . S
C2960 H2956 0.949 . S
C2960 C2968 1.574 . S
C2960 C2976 1.368 . S
H2961 C2969 0.950 . S
H2962 C2967 0.950 . S
H2963 C2968 0.949 . S
H2964 C2970 0.950 . S
H2965 C2971 0.950 . S
H2966 C2972 0.949 . S
C2967 H2962 0.950 . S
C2967 C2969 1.327 . S
C2967 C2973 1.429 . S
C2968 C2960 1.574 . S
C2968 H2963 0.949 . S
C2968 C2974 1.368 . S
C2969 C2953 1.349 . S
C2969 H2961 0.950 . S
C2969 C2967 1.327 . S
C2970 C2958 1.349 . S
C2970 H2964 0.950 . S
C2970 C2971 1.327 . S
C2971 H2965 0.950 . S
C2971 C2970 1.327 . S
C2971 C2975 1.429 . S
C2972 C2955 1.574 . S
C2972 H2966 0.949 . S
C2972 C2976 1.368 . S
C2973 C2954 1.429 . S
C2973 C2967 1.429 . S
C2973 C2974 1.523 . S
C2974 C2955 1.368 . S
C2974 C2968 1.368 . S
C2974 C2973 1.523 . S
C2975 C2959 1.429 . S
C2975 C2971 1.429 . S
C2975 C2976 1.523 . S
C2976 C2960 1.368 . S
C2976 C2972 1.368 . S
C2976 C2975 1.523 . S
H2977 C2952 0.950 . S
H2978 C2954 0.950 . S
H2979 C2955 0.949 . S
H2980 C2957 0.950 . S
H2981 C2959 0.950 . S
C2982 C2983 1.349 . S
C2982 C2984 1.327 . S
C2982 H3007 0.950 . S
C2983 C2982 1.349 . S
C2983 C2999 1.349 . S
C2984 C2982 1.327 . S
C2984 C3003 1.429 . S
C2984 H3008 0.950 . S
C2985 C3002 1.574 . S
C2985 C3004 1.368 . S
C2985 H3009 0.949 . S
H2986 C2990 0.949 . S
C2987 C2988 1.349 . S
C2987 C2989 1.327 . S
C2987 H3010 0.950 . S
C2988 C2987 1.349 . S
C2988 C3000 1.349 . S
C2989 C2987 1.327 . S
C2989 C3005 1.429 . S
C2989 H3011 0.950 . S
C2990 H2986 0.949 . S
C2990 C2998 1.574 . S
C2990 C3006 1.368 . S
H2991 C2999 0.950 . S
H2992 C2997 0.950 . S
H2993 C2998 0.949 . S
H2994 C3000 0.950 . S
H2995 C3001 0.950 . S
H2996 C3002 0.949 . S
C2997 H2992 0.950 . S
C2997 C2999 1.327 . S
C2997 C3003 1.429 . S
C2998 C2990 1.574 . S
C2998 H2993 0.949 . S
C2998 C3004 1.368 . S
C2999 C2983 1.349 . S
C2999 H2991 0.950 . S
C2999 C2997 1.327 . S
C3000 C2988 1.349 . S
C3000 H2994 0.950 . S
C3000 C3001 1.327 . S
C3001 H2995 0.950 . S
C3001 C3000 1.327 . S
C3001 C3005 1.429 . S
C3002 C2985 1.574 . S
C3002 H2996 0.949 . S
C3002 C3006 1.368 . S
C3003 C2984 1.429 . S
C3003 C2997 1.429 . S
C3003 C3004 1.523 . S
C3004 C2985 1.368 . S
C3004 C2998 1.368 . S
C3004 C3003 1.523 . S
C3005 C2989 1.429 . S
C3005 C3001 1.429 . S
C3005 C3006 1.523 . S
C3006 C2990 1.368 . S
C3006 C3002 1.368 . S
C3006 C3005 1.523 . S
H3007 C2982 0.950 . S
H3008 C2984 0.950 . S
H3009 C2985 0.949 . S
H3010 C2987 0.950 . S
H3011 C2989 0.950 . S
C3012 C3013 1.349 1_655 S
C3012 C3014 1.327 . S
C3012 H3037 0.950 . S
C3013 C3012 1.349 1_455 S
C3013 C3029 1.349 . S
C3014 C3012 1.327 . S
C3014 C3033 1.429 1_655 S
C3014 H3038 0.950 . S
C3015 C3032 1.574 . S
C3015 C3034 1.368 . S
C3015 H3039 0.949 . S
H3016 C3020 0.949 . S
C3017 C3018 1.349 1_455 S
C3017 C3019 1.327 . S
C3017 H3040 0.950 . S
C3018 C3017 1.349 1_655 S
C3018 C3030 1.349 . S
C3019 C3017 1.327 . S
C3019 C3035 1.429 1_455 S
C3019 H3041 0.950 . S
C3020 H3016 0.949 . S
C3020 C3028 1.574 . S
C3020 C3036 1.368 . S
H3021 C3029 0.950 . S
H3022 C3027 0.950 . S
H3023 C3028 0.949 . S
H3024 C3030 0.950 . S
H3025 C3031 0.950 . S
H3026 C3032 0.949 . S
C3027 H3022 0.950 . S
C3027 C3029 1.327 . S
C3027 C3033 1.429 . S
C3028 C3020 1.574 . S
C3028 H3023 0.949 . S
C3028 C3034 1.368 1_655 S
C3029 C3013 1.349 . S
C3029 H3021 0.950 . S
C3029 C3027 1.327 . S
C3030 C3018 1.349 . S
C3030 H3024 0.950 . S
C3030 C3031 1.327 . S
C3031 H3025 0.950 . S
C3031 C3030 1.327 . S
C3031 C3035 1.429 . S
C3032 C3015 1.574 . S
C3032 H3026 0.949 . S
C3032 C3036 1.368 1_455 S
C3033 C3014 1.429 1_455 S
C3033 C3027 1.429 . S
C3033 C3034 1.523 . S
C3034 C3015 1.368 . S
C3034 C3028 1.368 1_455 S
C3034 C3033 1.523 . S
C3035 C3019 1.429 1_655 S
C3035 C3031 1.429 . S
C3035 C3036 1.523 . S
C3036 C3020 1.368 . S
C3036 C3032 1.368 1_655 S
C3036 C3035 1.523 . S
H3037 C3012 0.950 . S
H3038 C3014 0.950 . S
H3039 C3015 0.949 . S
H3040 C3017 0.950 . S
H3041 C3019 0.950 . S
C3042 C3043 1.349 . S
C3042 C3044 1.327 . S
C3042 H3067 0.950 . S
C3043 C3042 1.349 . S
C3043 C3059 1.349 . S
C3044 C3042 1.327 . S
C3044 C3063 1.429 . S
C3044 H3068 0.950 . S
C3045 C3062 1.574 . S
C3045 C3064 1.368 . S
C3045 H3069 0.949 . S
H3046 C3050 0.949 . S
C3047 C3048 1.349 . S
C3047 C3049 1.327 . S
C3047 H3070 0.950 . S
C3048 C3047 1.349 . S
C3048 C3060 1.349 . S
C3049 C3047 1.327 . S
C3049 C3065 1.429 . S
C3049 H3071 0.950 . S
C3050 H3046 0.949 . S
C3050 C3058 1.574 . S
C3050 C3066 1.368 . S
H3051 C3059 0.950 . S
H3052 C3057 0.950 . S
H3053 C3058 0.949 . S
H3054 C3060 0.950 . S
H3055 C3061 0.950 . S
H3056 C3062 0.949 . S
C3057 H3052 0.950 . S
C3057 C3059 1.327 . S
C3057 C3063 1.429 . S
C3058 C3050 1.574 . S
C3058 H3053 0.949 . S
C3058 C3064 1.368 . S
C3059 C3043 1.349 . S
C3059 H3051 0.950 . S
C3059 C3057 1.327 . S
C3060 C3048 1.349 . S
C3060 H3054 0.950 . S
C3060 C3061 1.327 . S
C3061 H3055 0.950 . S
C3061 C3060 1.327 . S
C3061 C3065 1.429 . S
C3062 C3045 1.574 . S
C3062 H3056 0.949 . S
C3062 C3066 1.368 . S
C3063 C3044 1.429 . S
C3063 C3057 1.429 . S
C3063 C3064 1.523 . S
C3064 C3045 1.368 . S
C3064 C3058 1.368 . S
C3064 C3063 1.523 . S
C3065 C3049 1.429 . S
C3065 C3061 1.429 . S
C3065 C3066 1.523 . S
C3066 C3050 1.368 . S
C3066 C3062 1.368 . S
C3066 C3065 1.523 . S
H3067 C3042 0.950 . S
H3068 C3044 0.950 . S
H3069 C3045 0.949 . S
H3070 C3047 0.950 . S
H3071 C3049 0.950 . S
C3072 C3073 1.349 . S
C3072 C3074 1.327 . S
C3072 H3097 0.950 . S
C3073 C3072 1.349 . S
C3073 C3089 1.349 . S
C3074 C3072 1.327 . S
C3074 C3093 1.429 . S
C3074 H3098 0.950 . S
C3075 C3092 1.574 . S
C3075 C3094 1.368 . S
C3075 H3099 0.949 . S
H3076 C3080 0.949 . S
C3077 C3078 1.349 . S
C3077 C3079 1.327 . S
C3077 H3100 0.950 . S
C3078 C3077 1.349 . S
C3078 C3090 1.349 . S
C3079 C3077 1.327 . S
C3079 C3095 1.429 . S
C3079 H3101 0.950 . S
C3080 H3076 0.949 . S
C3080 C3088 1.574 . S
C3080 C3096 1.368 . S
H3081 C3089 0.950 . S
H3082 C3087 0.950 . S
H3083 C3088 0.949 . S
H3084 C3090 0.950 . S
H3085 C3091 0.950 . S
H3086 C3092 0.949 . S
C3087 H3082 0.950 . S
C3087 C3089 1.327 . S
C3087 C3093 1.429 . S
C3088 C3080 1.574 . S
C3088 H3083 0.949 . S
C3088 C3094 1.368 . S
C3089 C3073 1.349 . S
C3089 H3081 0.950 . S
C3089 C3087 1.327 . S
C3090 C3078 1.349 . S
C3090 H3084 0.950 . S
C3090 C3091 1.327 . S
C3091 H3085 0.950 . S
C3091 C3090 1.327 . S
C3091 C3095 1.429 . S
C3092 C3075 1.574 . S
C3092 H3086 0.949 . S
C3092 C3096 1.368 . S
C3093 C3074 1.429 . S
C3093 C3087 1.429 . S
C3093 C3094 1.523 . S
C3094 C3075 1.368 . S
C3094 C3088 1.368 . S
C3094 C3093 1.523 . S
C3095 C3079 1.429 . S
C3095 C3091 1.429 . S
C3095 C3096 1.523 . S
C3096 C3080 1.368 . S
C3096 C3092 1.368 . S
C3096 C3095 1.523 . S
H3097 C3072 0.950 . S
H3098 C3074 0.950 . S
H3099 C3075 0.949 . S
H3100 C3077 0.950 . S
H3101 C3079 0.950 . S
C3102 C3103 1.349 . S
C3102 C3104 1.327 . S
C3102 H3127 0.950 . S
C3103 C3102 1.349 . S
C3103 C3119 1.349 . S
C3104 C3102 1.327 . S
C3104 C3123 1.429 . S
C3104 H3128 0.950 . S
C3105 C3122 1.574 . S
C3105 C3124 1.368 . S
C3105 H3129 0.949 . S
H3106 C3110 0.949 . S
C3107 C3108 1.349 . S
C3107 C3109 1.327 . S
C3107 H3130 0.950 . S
C3108 C3107 1.349 . S
C3108 C3120 1.349 . S
C3109 C3107 1.327 . S
C3109 C3125 1.429 . S
C3109 H3131 0.950 . S
C3110 H3106 0.949 . S
C3110 C3118 1.574 . S
C3110 C3126 1.368 . S
H3111 C3119 0.950 . S
H3112 C3117 0.950 . S
H3113 C3118 0.949 . S
H3114 C3120 0.950 . S
H3115 C3121 0.950 . S
H3116 C3122 0.949 . S
C3117 H3112 0.950 . S
C3117 C3119 1.327 . S
C3117 C3123 1.429 . S
C3118 C3110 1.574 . S
C3118 H3113 0.949 . S
C3118 C3124 1.368 . S
C3119 C3103 1.349 . S
C3119 H3111 0.950 . S
C3119 C3117 1.327 . S
C3120 C3108 1.349 . S
C3120 H3114 0.950 . S
C3120 C3121 1.327 . S
C3121 H3115 0.950 . S
C3121 C3120 1.327 . S
C3121 C3125 1.429 . S
C3122 C3105 1.574 . S
C3122 H3116 0.949 . S
C3122 C3126 1.368 . S
C3123 C3104 1.429 . S
C3123 C3117 1.429 . S
C3123 C3124 1.523 . S
C3124 C3105 1.368 . S
C3124 C3118 1.368 . S
C3124 C3123 1.523 . S
C3125 C3109 1.429 . S
C3125 C3121 1.429 . S
C3125 C3126 1.523 . S
C3126 C3110 1.368 . S
C3126 C3122 1.368 . S
C3126 C3125 1.523 . S
H3127 C3102 0.950 . S
H3128 C3104 0.950 . S
H3129 C3105 0.949 . S
H3130 C3107 0.950 . S
H3131 C3109 0.950 . S
C3132 C3133 1.349 . S
C3132 C3134 1.327 . S
C3132 H3157 0.950 . S
C3133 C3132 1.349 . S
C3133 C3149 1.349 . S
C3134 C3132 1.327 . S
C3134 C3153 1.429 . S
C3134 H3158 0.950 . S
C3135 C3152 1.574 . S
C3135 C3154 1.368 . S
C3135 H3159 0.949 . S
H3136 C3140 0.949 . S
C3137 C3138 1.349 . S
C3137 C3139 1.327 . S
C3137 H3160 0.950 . S
C3138 C3137 1.349 . S
C3138 C3150 1.349 . S
C3139 C3137 1.327 . S
C3139 C3155 1.429 . S
C3139 H3161 0.950 . S
C3140 H3136 0.949 . S
C3140 C3148 1.574 . S
C3140 C3156 1.368 . S
H3141 C3149 0.950 . S
H3142 C3147 0.950 . S
H3143 C3148 0.949 . S
H3144 C3150 0.950 . S
H3145 C3151 0.950 . S
H3146 C3152 0.949 . S
C3147 H3142 0.950 . S
C3147 C3149 1.327 . S
C3147 C3153 1.429 . S
C3148 C3140 1.574 . S
C3148 H3143 0.949 . S
C3148 C3154 1.368 . S
C3149 C3133 1.349 . S
C3149 H3141 0.950 . S
C3149 C3147 1.327 . S
C3150 C3138 1.349 . S
C3150 H3144 0.950 . S
C3150 C3151 1.327 . S
C3151 H3145 0.950 . S
C3151 C3150 1.327 . S
C3151 C3155 1.429 . S
C3152 C3135 1.574 . S
C3152 H3146 0.949 . S
C3152 C3156 1.368 . S
C3153 C3134 1.429 . S
C3153 C3147 1.429 . S
C3153 C3154 1.523 . S
C3154 C3135 1.368 . S
C3154 C3148 1.368 . S
C3154 C3153 1.523 . S
C3155 C3139 1.429 . S
C3155 C3151 1.429 . S
C3155 C3156 1.523 . S
C3156 C3140 1.368 . S
C3156 C3152 1.368 . S
C3156 C3155 1.523 . S
H3157 C3132 0.950 . S
H3158 C3134 0.950 . S
H3159 C3135 0.949 . S
H3160 C3137 0.950 . S
H3161 C3139 0.950 . S
C3162 C3163 1.349 . S
C3162 C3164 1.327 . S
C3162 H3187 0.950 . S
C3163 C3162 1.349 . S
C3163 C3179 1.349 . S
C3164 C3162 1.327 . S
C3164 C3183 1.429 . S
C3164 H3188 0.950 . S
C3165 C3182 1.574 . S
C3165 C3184 1.368 . S
C3165 H3189 0.949 . S
H3166 C3170 0.949 . S
C3167 C3168 1.349 . S
C3167 C3169 1.327 . S
C3167 H3190 0.950 . S
C3168 C3167 1.349 . S
C3168 C3180 1.349 . S
C3169 C3167 1.327 . S
C3169 C3185 1.429 . S
C3169 H3191 0.950 . S
C3170 H3166 0.949 . S
C3170 C3178 1.574 . S
C3170 C3186 1.368 . S
H3171 C3179 0.950 . S
H3172 C3177 0.950 . S
H3173 C3178 0.949 . S
H3174 C3180 0.950 . S
H3175 C3181 0.950 . S
H3176 C3182 0.949 . S
C3177 H3172 0.950 . S
C3177 C3179 1.327 . S
C3177 C3183 1.429 . S
C3178 C3170 1.574 . S
C3178 H3173 0.949 . S
C3178 C3184 1.368 . S
C3179 C3163 1.349 . S
C3179 H3171 0.950 . S
C3179 C3177 1.327 . S
C3180 C3168 1.349 . S
C3180 H3174 0.950 . S
C3180 C3181 1.327 . S
C3181 H3175 0.950 . S
C3181 C3180 1.327 . S
C3181 C3185 1.429 . S
C3182 C3165 1.574 . S
C3182 H3176 0.949 . S
C3182 C3186 1.368 . S
C3183 C3164 1.429 . S
C3183 C3177 1.429 . S
C3183 C3184 1.523 . S
C3184 C3165 1.368 . S
C3184 C3178 1.368 . S
C3184 C3183 1.523 . S
C3185 C3169 1.429 . S
C3185 C3181 1.429 . S
C3185 C3186 1.523 . S
C3186 C3170 1.368 . S
C3186 C3182 1.368 . S
C3186 C3185 1.523 . S
H3187 C3162 0.950 . S
H3188 C3164 0.950 . S
H3189 C3165 0.949 . S
H3190 C3167 0.950 . S
H3191 C3169 0.950 . S
C3192 C3193 1.349 . S
C3192 C3194 1.327 . S
C3192 H3217 0.950 . S
C3193 C3192 1.349 . S
C3193 C3209 1.349 . S
C3194 C3192 1.327 . S
C3194 C3213 1.429 . S
C3194 H3218 0.950 . S
C3195 C3212 1.574 . S
C3195 C3214 1.368 . S
C3195 H3219 0.949 . S
H3196 C3200 0.949 . S
C3197 C3198 1.349 . S
C3197 C3199 1.327 . S
C3197 H3220 0.950 . S
C3198 C3197 1.349 . S
C3198 C3210 1.349 . S
C3199 C3197 1.327 . S
C3199 C3215 1.429 . S
C3199 H3221 0.950 . S
C3200 H3196 0.949 . S
C3200 C3208 1.574 . S
C3200 C3216 1.368 . S
H3201 C3209 0.950 . S
H3202 C3207 0.950 . S
H3203 C3208 0.949 . S
H3204 C3210 0.950 . S
H3205 C3211 0.950 . S
H3206 C3212 0.949 . S
C3207 H3202 0.950 . S
C3207 C3209 1.327 . S
C3207 C3213 1.429 . S
C3208 C3200 1.574 . S
C3208 H3203 0.949 . S
C3208 C3214 1.368 . S
C3209 C3193 1.349 . S
C3209 H3201 0.950 . S
C3209 C3207 1.327 . S
C3210 C3198 1.349 . S
C3210 H3204 0.950 . S
C3210 C3211 1.327 . S
C3211 H3205 0.950 . S
C3211 C3210 1.327 . S
C3211 C3215 1.429 . S
C3212 C3195 1.574 . S
C3212 H3206 0.949 . S
C3212 C3216 1.368 . S
C3213 C3194 1.429 . S
C3213 C3207 1.429 . S
C3213 C3214 1.523 . S
C3214 C3195 1.368 . S
C3214 C3208 1.368 . S
C3214 C3213 1.523 . S
C3215 C3199 1.429 . S
C3215 C3211 1.429 . S
C3215 C3216 1.523 . S
C3216 C3200 1.368 . S
C3216 C3212 1.368 . S
C3216 C3215 1.523 . S
H3217 C3192 0.950 . S
H3218 C3194 0.950 . S
H3219 C3195 0.949 . S
H3220 C3197 0.950 . S
H3221 C3199 0.950 . S
C3222 C3223 1.349 . S
C3222 C3224 1.327 . S
C3222 H3247 0.950 . S
C3223 C3222 1.349 . S
C3223 C3239 1.349 . S
C3224 C3222 1.327 . S
C3224 C3243 1.429 . S
C3224 H3248 0.950 . S
C3225 C3242 1.574 . S
C3225 C3244 1.368 . S
C3225 H3249 0.949 . S
H3226 C3230 0.949 . S
C3227 C3228 1.349 . S
C3227 C3229 1.327 . S
C3227 H3250 0.950 . S
C3228 C3227 1.349 . S
C3228 C3240 1.349 . S
C3229 C3227 1.327 . S
C3229 C3245 1.429 . S
C3229 H3251 0.950 . S
C3230 H3226 0.949 . S
C3230 C3238 1.574 . S
C3230 C3246 1.368 . S
H3231 C3239 0.950 . S
H3232 C3237 0.950 . S
H3233 C3238 0.949 . S
H3234 C3240 0.950 . S
H3235 C3241 0.950 . S
H3236 C3242 0.949 . S
C3237 H3232 0.950 . S
C3237 C3239 1.327 . S
C3237 C3243 1.429 . S
C3238 C3230 1.574 . S
C3238 H3233 0.949 . S
C3238 C3244 1.368 . S
C3239 C3223 1.349 . S
C3239 H3231 0.950 . S
C3239 C3237 1.327 . S
C3240 C3228 1.349 . S
C3240 H3234 0.950 . S
C3240 C3241 1.327 . S
C3241 H3235 0.950 . S
C3241 C3240 1.327 . S
C3241 C3245 1.429 . S
C3242 C3225 1.574 . S
C3242 H3236 0.949 . S
C3242 C3246 1.368 . S
C3243 C3224 1.429 . S
C3243 C3237 1.429 . S
C3243 C3244 1.523 . S
C3244 C3225 1.368 . S
C3244 C3238 1.368 . S
C3244 C3243 1.523 . S
C3245 C3229 1.429 . S
C3245 C3241 1.429 . S
C3245 C3246 1.523 . S
C3246 C3230 1.368 . S
C3246 C3242 1.368 . S
C3246 C3245 1.523 . S
H3247 C3222 0.950 . S
H3248 C3224 0.950 . S
H3249 C3225 0.949 . S
H3250 C3227 0.950 . S
H3251 C3229 0.950 . S
C3252 C3253 1.349 . S
C3252 C3254 1.327 . S
C3252 H3277 0.950 . S
C3253 C3252 1.349 . S
C3253 C3269 1.349 . S
C3254 C3252 1.327 . S
C3254 C3273 1.429 . S
C3254 H3278 0.950 . S
C3255 C3272 1.574 . S
C3255 C3274 1.368 . S
C3255 H3279 0.949 . S
H3256 C3260 0.949 . S
C3257 C3258 1.349 . S
C3257 C3259 1.327 . S
C3257 H3280 0.950 . S
C3258 C3257 1.349 . S
C3258 C3270 1.349 . S
C3259 C3257 1.327 . S
C3259 C3275 1.429 . S
C3259 H3281 0.950 . S
C3260 H3256 0.949 . S
C3260 C3268 1.574 . S
C3260 C3276 1.368 . S
H3261 C3269 0.950 . S
H3262 C3267 0.950 . S
H3263 C3268 0.949 . S
H3264 C3270 0.950 . S
H3265 C3271 0.950 . S
H3266 C3272 0.949 . S
C3267 H3262 0.950 . S
C3267 C3269 1.327 . S
C3267 C3273 1.429 . S
C3268 C3260 1.574 . S
C3268 H3263 0.949 . S
C3268 C3274 1.368 . S
C3269 C3253 1.349 . S
C3269 H3261 0.950 . S
C3269 C3267 1.327 . S
C3270 C3258 1.349 . S
C3270 H3264 0.950 . S
C3270 C3271 1.327 . S
C3271 H3265 0.950 . S
C3271 C3270 1.327 . S
C3271 C3275 1.429 . S
C3272 C3255 1.574 . S
C3272 H3266 0.949 . S
C3272 C3276 1.368 . S
C3273 C3254 1.429 . S
C3273 C3267 1.429 . S
C3273 C3274 1.523 . S
C3274 C3255 1.368 . S
C3274 C3268 1.368 . S
C3274 C3273 1.523 . S
C3275 C3259 1.429 . S
C3275 C3271 1.429 . S
C3275 C3276 1.523 . S
C3276 C3260 1.368 . S
C3276 C3272 1.368 . S
C3276 C3275 1.523 . S
H3277 C3252 0.950 . S
H3278 C3254 0.950 . S
H3279 C3255 0.949 . S
H3280 C3257 0.950 . S
H3281 C3259 0.950 . S
C3282 C3283 1.349 . S
C3282 C3284 1.327 . S
C3282 H3307 0.950 . S
C3283 C3282 1.349 . S
C3283 C3299 1.349 . S
C3284 C3282 1.327 . S
C3284 C3303 1.429 . S
C3284 H3308 0.950 . S
C3285 C3302 1.574 . S
C3285 C3304 1.368 . S
C3285 H3309 0.949 . S
H3286 C3290 0.949 . S
C3287 C3288 1.349 . S
C3287 C3289 1.327 . S
C3287 H3310 0.950 . S
C3288 C3287 1.349 . S
C3288 C3300 1.349 . S
C3289 C3287 1.327 . S
C3289 C3305 1.429 . S
C3289 H3311 0.950 . S
C3290 H3286 0.949 . S
C3290 C3298 1.574 . S
C3290 C3306 1.368 . S
H3291 C3299 0.950 . S
H3292 C3297 0.950 . S
H3293 C3298 0.949 . S
H3294 C3300 0.950 . S
H3295 C3301 0.950 . S
H3296 C3302 0.949 . S
C3297 H3292 0.950 . S
C3297 C3299 1.327 . S
C3297 C3303 1.429 . S
C3298 C3290 1.574 . S
C3298 H3293 0.949 . S
C3298 C3304 1.368 . S
C3299 C3283 1.349 . S
C3299 H3291 0.950 . S
C3299 C3297 1.327 . S
C3300 C3288 1.349 . S
C3300 H3294 0.950 . S
C3300 C3301 1.327 . S
C3301 H3295 0.950 . S
C3301 C3300 1.327 . S
C3301 C3305 1.429 . S
C3302 C3285 1.574 . S
C3302 H3296 0.949 . S
C3302 C3306 1.368 . S
C3303 C3284 1.429 . S
C3303 C3297 1.429 . S
C3303 C3304 1.523 . S
C3304 C3285 1.368 . S
C3304 C3298 1.368 . S
C3304 C3303 1.523 . S
C3305 C3289 1.429 . S
C3305 C3301 1.429 . S
C3305 C3306 1.523 . S
C3306 C3290 1.368 . S
C3306 C3302 1.368 . S
C3306 C3305 1.523 . S
H3307 C3282 0.950 . S
H3308 C3284 0.950 . S
H3309 C3285 0.949 . S
H3310 C3287 0.950 . S
H3311 C3289 0.950 . S
C3312 C3313 1.349 . S
C3312 C3314 1.327 . S
C3312 H3337 0.950 . S
C3313 C3312 1.349 . S
C3313 C3329 1.349 . S
C3314 C3312 1.327 . S
C3314 C3333 1.429 . S
C3314 H3338 0.950 . S
C3315 C3332 1.574 . S
C3315 C3334 1.368 . S
C3315 H3339 0.949 . S
H3316 C3320 0.949 . S
C3317 C3318 1.349 . S
C3317 C3319 1.327 . S
C3317 H3340 0.950 . S
C3318 C3317 1.349 . S
C3318 C3330 1.349 . S
C3319 C3317 1.327 . S
C3319 C3335 1.429 . S
C3319 H3341 0.950 . S
C3320 H3316 0.949 . S
C3320 C3328 1.574 . S
C3320 C3336 1.368 . S
H3321 C3329 0.950 . S
H3322 C3327 0.950 . S
H3323 C3328 0.949 . S
H3324 C3330 0.950 . S
H3325 C3331 0.950 . S
H3326 C3332 0.949 . S
C3327 H3322 0.950 . S
C3327 C3329 1.327 . S
C3327 C3333 1.429 . S
C3328 C3320 1.574 . S
C3328 H3323 0.949 . S
C3328 C3334 1.368 . S
C3329 C3313 1.349 . S
C3329 H3321 0.950 . S
C3329 C3327 1.327 . S
C3330 C3318 1.349 . S
C3330 H3324 0.950 . S
C3330 C3331 1.327 . S
C3331 H3325 0.950 . S
C3331 C3330 1.327 . S
C3331 C3335 1.429 . S
C3332 C3315 1.574 . S
C3332 H3326 0.949 . S
C3332 C3336 1.368 . S
C3333 C3314 1.429 . S
C3333 C3327 1.429 . S
C3333 C3334 1.523 . S
C3334 C3315 1.368 . S
C3334 C3328 1.368 . S
C3334 C3333 1.523 . S
C3335 C3319 1.429 . S
C3335 C3331 1.429 . S
C3335 C3336 1.523 . S
C3336 C3320 1.368 . S
C3336 C3332 1.368 . S
C3336 C3335 1.523 . S
H3337 C3312 0.950 . S
H3338 C3314 0.950 . S
H3339 C3315 0.949 . S
H3340 C3317 0.950 . S
H3341 C3319 0.950 . S
C3342 C3343 1.349 . S
C3342 C3344 1.327 . S
C3342 H3367 0.950 . S
C3343 C3342 1.349 . S
C3343 C3359 1.349 . S
C3344 C3342 1.327 . S
C3344 C3363 1.429 . S
C3344 H3368 0.950 . S
C3345 C3362 1.574 . S
C3345 C3364 1.368 . S
C3345 H3369 0.949 . S
H3346 C3350 0.949 . S
C3347 C3348 1.349 . S
C3347 C3349 1.327 . S
C3347 H3370 0.950 . S
C3348 C3347 1.349 . S
C3348 C3360 1.349 . S
C3349 C3347 1.327 . S
C3349 C3365 1.429 . S
C3349 H3371 0.950 . S
C3350 H3346 0.949 . S
C3350 C3358 1.574 . S
C3350 C3366 1.368 . S
H3351 C3359 0.950 . S
H3352 C3357 0.950 . S
H3353 C3358 0.949 . S
H3354 C3360 0.950 . S
H3355 C3361 0.950 . S
H3356 C3362 0.949 . S
C3357 H3352 0.950 . S
C3357 C3359 1.327 . S
C3357 C3363 1.429 . S
C3358 C3350 1.574 . S
C3358 H3353 0.949 . S
C3358 C3364 1.368 . S
C3359 C3343 1.349 . S
C3359 H3351 0.950 . S
C3359 C3357 1.327 . S
C3360 C3348 1.349 . S
C3360 H3354 0.950 . S
C3360 C3361 1.327 . S
C3361 H3355 0.950 . S
C3361 C3360 1.327 . S
C3361 C3365 1.429 . S
C3362 C3345 1.574 . S
C3362 H3356 0.949 . S
C3362 C3366 1.368 . S
C3363 C3344 1.429 . S
C3363 C3357 1.429 . S
C3363 C3364 1.523 . S
C3364 C3345 1.368 . S
C3364 C3358 1.368 . S
C3364 C3363 1.523 . S
C3365 C3349 1.429 . S
C3365 C3361 1.429 . S
C3365 C3366 1.523 . S
C3366 C3350 1.368 . S
C3366 C3362 1.368 . S
C3366 C3365 1.523 . S
H3367 C3342 0.950 . S
H3368 C3344 0.950 . S
H3369 C3345 0.949 . S
H3370 C3347 0.950 . S
H3371 C3349 0.950 . S
C3372 C3373 1.349 . S
C3372 C3374 1.327 . S
C3372 H3397 0.950 . S
C3373 C3372 1.349 . S
C3373 C3389 1.349 . S
C3374 C3372 1.327 . S
C3374 C3393 1.429 . S
C3374 H3398 0.950 . S
C3375 C3392 1.574 . S
C3375 C3394 1.368 . S
C3375 H3399 0.949 . S
H3376 C3380 0.949 . S
C3377 C3378 1.349 . S
C3377 C3379 1.327 . S
C3377 H3400 0.950 . S
C3378 C3377 1.349 . S
C3378 C3390 1.349 . S
C3379 C3377 1.327 . S
C3379 C3395 1.429 . S
C3379 H3401 0.950 . S
C3380 H3376 0.949 . S
C3380 C3388 1.574 . S
C3380 C3396 1.368 . S
H3381 C3389 0.950 . S
H3382 C3387 0.950 . S
H3383 C3388 0.949 . S
H3384 C3390 0.950 . S
H3385 C3391 0.950 . S
H3386 C3392 0.949 . S
C3387 H3382 0.950 . S
C3387 C3389 1.327 . S
C3387 C3393 1.429 . S
C3388 C3380 1.574 . S
C3388 H3383 0.949 . S
C3388 C3394 1.368 . S
C3389 C3373 1.349 . S
C3389 H3381 0.950 . S
C3389 C3387 1.327 . S
C3390 C3378 1.349 . S
C3390 H3384 0.950 . S
C3390 C3391 1.327 . S
C3391 H3385 0.950 . S
C3391 C3390 1.327 . S
C3391 C3395 1.429 . S
C3392 C3375 1.574 . S
C3392 H3386 0.949 . S
C3392 C3396 1.368 . S
C3393 C3374 1.429 . S
C3393 C3387 1.429 . S
C3393 C3394 1.523 . S
C3394 C3375 1.368 . S
C3394 C3388 1.368 . S
C3394 C3393 1.523 . S
C3395 C3379 1.429 . S
C3395 C3391 1.429 . S
C3395 C3396 1.523 . S
C3396 C3380 1.368 . S
C3396 C3392 1.368 . S
C3396 C3395 1.523 . S
H3397 C3372 0.950 . S
H3398 C3374 0.950 . S
H3399 C3375 0.949 . S
H3400 C3377 0.950 . S
H3401 C3379 0.950 . S
C3402 C3403 1.349 1_556 S
C3402 C3404 1.327 . S
C3402 H3427 0.950 . S
C3403 C3402 1.349 1_554 S
C3403 C3419 1.349 . S
C3404 C3402 1.327 . S
C3404 C3423 1.429 1_556 S
C3404 H3428 0.950 . S
C3405 C3422 1.574 . S
C3405 C3424 1.368 . S
C3405 H3429 0.949 . S
H3406 C3410 0.949 . S
C3407 C3408 1.349 1_554 S
C3407 C3409 1.327 . S
C3407 H3430 0.950 . S
C3408 C3407 1.349 1_556 S
C3408 C3420 1.349 . S
C3409 C3407 1.327 . S
C3409 C3425 1.429 1_554 S
C3409 H3431 0.950 . S
C3410 H3406 0.949 . S
C3410 C3418 1.574 . S
C3410 C3426 1.369 1_556 S
H3411 C3419 0.950 . S
H3412 C3417 0.950 . S
H3413 C3418 0.949 . S
H3414 C3420 0.950 . S
H3415 C3421 0.950 . S
H3416 C3422 0.949 . S
C3417 H3412 0.950 . S
C3417 C3419 1.327 . S
C3417 C3423 1.429 . S
C3418 C3410 1.574 . S
C3418 H3413 0.949 . S
C3418 C3424 1.368 1_556 S
C3419 C3403 1.349 . S
C3419 H3411 0.950 . S
C3419 C3417 1.327 . S
C3420 C3408 1.349 . S
C3420 H3414 0.950 . S
C3420 C3421 1.327 . S
C3421 H3415 0.950 . S
C3421 C3420 1.327 . S
C3421 C3425 1.429 . S
C3422 C3405 1.574 . S
C3422 H3416 0.949 . S
C3422 C3426 1.367 . S
C3423 C3404 1.429 1_554 S
C3423 C3417 1.429 . S
C3423 C3424 1.523 . S
C3424 C3405 1.368 . S
C3424 C3418 1.368 1_554 S
C3424 C3423 1.523 . S
C3425 C3409 1.429 1_556 S
C3425 C3421 1.429 . S
C3425 C3426 1.523 1_556 S
C3426 C3410 1.369 1_554 S
C3426 C3422 1.367 . S
C3426 C3425 1.523 1_554 S
H3427 C3402 0.950 . S
H3428 C3404 0.950 . S
H3429 C3405 0.949 . S
H3430 C3407 0.950 . S
H3431 C3409 0.950 . S
C3432 C3433 1.349 . S
C3432 C3434 1.327 . S
C3432 H3457 0.950 . S
C3433 C3432 1.349 . S
C3433 C3449 1.349 . S
C3434 C3432 1.327 . S
C3434 C3453 1.429 . S
C3434 H3458 0.950 . S
C3435 C3452 1.574 . S
C3435 C3454 1.368 . S
C3435 H3459 0.949 . S
H3436 C3440 0.949 . S
C3437 C3438 1.349 . S
C3437 C3439 1.327 . S
C3437 H3460 0.950 . S
C3438 C3437 1.349 . S
C3438 C3450 1.349 . S
C3439 C3437 1.327 . S
C3439 C3455 1.429 . S
C3439 H3461 0.950 . S
C3440 H3436 0.949 . S
C3440 C3448 1.574 . S
C3440 C3456 1.368 . S
H3441 C3449 0.950 . S
H3442 C3447 0.950 . S
H3443 C3448 0.949 . S
H3444 C3450 0.950 . S
H3445 C3451 0.950 . S
H3446 C3452 0.949 . S
C3447 H3442 0.950 . S
C3447 C3449 1.327 . S
C3447 C3453 1.429 . S
C3448 C3440 1.574 . S
C3448 H3443 0.949 . S
C3448 C3454 1.368 . S
C3449 C3433 1.349 . S
C3449 H3441 0.950 . S
C3449 C3447 1.327 . S
C3450 C3438 1.349 . S
C3450 H3444 0.950 . S
C3450 C3451 1.327 . S
C3451 H3445 0.950 . S
C3451 C3450 1.327 . S
C3451 C3455 1.429 . S
C3452 C3435 1.574 . S
C3452 H3446 0.949 . S
C3452 C3456 1.368 . S
C3453 C3434 1.429 . S
C3453 C3447 1.429 . S
C3453 C3454 1.523 . S
C3454 C3435 1.368 . S
C3454 C3448 1.368 . S
C3454 C3453 1.523 . S
C3455 C3439 1.429 . S
C3455 C3451 1.429 . S
C3455 C3456 1.523 . S
C3456 C3440 1.368 . S
C3456 C3452 1.368 . S
C3456 C3455 1.523 . S
H3457 C3432 0.950 . S
H3458 C3434 0.950 . S
H3459 C3435 0.949 . S
H3460 C3437 0.950 . S
H3461 C3439 0.950 . S
C3462 C3463 1.349 . S
C3462 C3464 1.327 . S
C3462 H3487 0.950 . S
C3463 C3462 1.349 . S
C3463 C3479 1.349 1_554 S
C3464 C3462 1.327 . S
C3464 C3483 1.429 . S
C3464 H3488 0.950 . S
C3465 C3482 1.574 . S
C3465 C3484 1.370 . S
C3465 H3489 0.947 1_554 S
H3466 C3470 0.949 . S
C3467 C3468 1.349 . S
C3467 C3469 1.327 . S
C3467 H3490 0.951 . S
C3468 C3467 1.349 . S
C3468 C3480 1.349 . S
C3469 C3467 1.327 . S
C3469 C3485 1.429 . S
C3469 H3491 0.950 1_554 S
C3470 H3466 0.949 . S
C3470 C3478 1.574 . S
C3470 C3486 1.368 . S
H3471 C3479 0.950 . S
H3472 C3477 0.950 . S
H3473 C3478 0.949 . S
H3474 C3480 0.950 . S
H3475 C3481 0.950 . S
H3476 C3482 0.949 1_556 S
C3477 H3472 0.950 . S
C3477 C3479 1.327 . S
C3477 C3483 1.429 1_556 S
C3478 C3470 1.574 . S
C3478 H3473 0.949 . S
C3478 C3484 1.368 . S
C3479 C3463 1.349 1_556 S
C3479 H3471 0.950 . S
C3479 C3477 1.327 . S
C3480 C3468 1.349 . S
C3480 H3474 0.950 . S
C3480 C3481 1.327 . S
C3481 H3475 0.950 . S
C3481 C3480 1.327 . S
C3481 C3485 1.429 . S
C3482 C3465 1.574 . S
C3482 H3476 0.949 1_554 S
C3482 C3486 1.368 . S
C3483 C3464 1.429 . S
C3483 C3477 1.429 1_554 S
C3483 C3484 1.523 . S
C3484 C3465 1.370 . S
C3484 C3478 1.368 . S
C3484 C3483 1.523 . S
C3485 C3469 1.429 . S
C3485 C3481 1.429 . S
C3485 C3486 1.523 . S
C3486 C3470 1.368 . S
C3486 C3482 1.368 . S
C3486 C3485 1.523 . S
H3487 C3462 0.950 . S
H3488 C3464 0.950 . S
H3489 C3465 0.947 1_556 S
H3490 C3467 0.951 . S
H3491 C3469 0.950 1_556 S
C3492 C3493 1.349 . S
C3492 C3494 1.327 . S
C3492 H3517 0.950 . S
C3493 C3492 1.349 . S
C3493 C3509 1.349 . S
C3494 C3492 1.327 . S
C3494 C3513 1.429 . S
C3494 H3518 0.950 . S
C3495 C3512 1.574 . S
C3495 C3514 1.368 . S
C3495 H3519 0.949 . S
H3496 C3500 0.949 . S
C3497 C3498 1.349 . S
C3497 C3499 1.327 . S
C3497 H3520 0.950 . S
C3498 C3497 1.349 . S
C3498 C3510 1.349 . S
C3499 C3497 1.327 . S
C3499 C3515 1.429 . S
C3499 H3521 0.950 . S
C3500 H3496 0.949 . S
C3500 C3508 1.574 . S
C3500 C3516 1.368 . S
H3501 C3509 0.950 . S
H3502 C3507 0.950 . S
H3503 C3508 0.949 . S
H3504 C3510 0.950 . S
H3505 C3511 0.950 . S
H3506 C3512 0.949 . S
C3507 H3502 0.950 . S
C3507 C3509 1.327 . S
C3507 C3513 1.429 . S
C3508 C3500 1.574 . S
C3508 H3503 0.949 . S
C3508 C3514 1.368 . S
C3509 C3493 1.349 . S
C3509 H3501 0.950 . S
C3509 C3507 1.327 . S
C3510 C3498 1.349 . S
C3510 H3504 0.950 . S
C3510 C3511 1.327 . S
C3511 H3505 0.950 . S
C3511 C3510 1.327 . S
C3511 C3515 1.429 . S
C3512 C3495 1.574 . S
C3512 H3506 0.949 . S
C3512 C3516 1.368 . S
C3513 C3494 1.429 . S
C3513 C3507 1.429 . S
C3513 C3514 1.523 . S
C3514 C3495 1.368 . S
C3514 C3508 1.368 . S
C3514 C3513 1.523 . S
C3515 C3499 1.429 . S
C3515 C3511 1.429 . S
C3515 C3516 1.523 . S
C3516 C3500 1.368 . S
C3516 C3512 1.368 . S
C3516 C3515 1.523 . S
H3517 C3492 0.950 . S
H3518 C3494 0.950 . S
H3519 C3495 0.949 . S
H3520 C3497 0.950 . S
H3521 C3499 0.950 . S
C3522 C3523 1.349 . S
C3522 C3524 1.327 . S
C3522 H3547 0.950 . S
C3523 C3522 1.349 . S
C3523 C3539 1.349 . S
C3524 C3522 1.327 . S
C3524 C3543 1.429 . S
C3524 H3548 0.950 . S
C3525 C3542 1.574 . S
C3525 C3544 1.368 . S
C3525 H3549 0.949 . S
H3526 C3530 0.949 . S
C3527 C3528 1.349 . S
C3527 C3529 1.327 . S
C3527 H3550 0.950 . S
C3528 C3527 1.349 . S
C3528 C3540 1.349 . S
C3529 C3527 1.327 . S
C3529 C3545 1.429 . S
C3529 H3551 0.950 . S
C3530 H3526 0.949 . S
C3530 C3538 1.574 . S
C3530 C3546 1.368 . S
H3531 C3539 0.950 . S
H3532 C3537 0.950 . S
H3533 C3538 0.949 . S
H3534 C3540 0.950 . S
H3535 C3541 0.950 . S
H3536 C3542 0.949 . S
C3537 H3532 0.950 . S
C3537 C3539 1.327 . S
C3537 C3543 1.429 . S
C3538 C3530 1.574 . S
C3538 H3533 0.949 . S
C3538 C3544 1.368 . S
C3539 C3523 1.349 . S
C3539 H3531 0.950 . S
C3539 C3537 1.327 . S
C3540 C3528 1.349 . S
C3540 H3534 0.950 . S
C3540 C3541 1.327 . S
C3541 H3535 0.950 . S
C3541 C3540 1.327 . S
C3541 C3545 1.429 . S
C3542 C3525 1.574 . S
C3542 H3536 0.949 . S
C3542 C3546 1.368 . S
C3543 C3524 1.429 . S
C3543 C3537 1.429 . S
C3543 C3544 1.523 . S
C3544 C3525 1.368 . S
C3544 C3538 1.368 . S
C3544 C3543 1.523 . S
C3545 C3529 1.429 . S
C3545 C3541 1.429 . S
C3545 C3546 1.523 . S
C3546 C3530 1.368 . S
C3546 C3542 1.368 . S
C3546 C3545 1.523 . S
H3547 C3522 0.950 . S
H3548 C3524 0.950 . S
H3549 C3525 0.949 . S
H3550 C3527 0.950 . S
H3551 C3529 0.950 . S
C678 C351 1.090 . S
C673 C4 1.163 . S
C703 C19 0.884 . S
C708 C370 0.988 . S
C733 C39 1.103 . S
C738 C393 1.025 . S
C768 C413 1.184 . S
C763 C54 1.222 . S
C793 C18 1.202 . S
C798 C434 1.196 . S
C828 C456 1.166 . S
C823 C40 1.271 . S
C858 C478 0.942 . S
C853 C53 0.958 . S
C883 C5 0.981 . S
C888 C496 1.120 . S
C913 C61 0.922 1_545 S
C918 C352 1.042 . S
C943 C74 1.286 . S
C948 C371 1.278 . S
C978 C394 0.908 . S
C973 C89 0.830 . S
C1008 C417 1.147 . S
C1003 C109 1.247 . S
C1033 C68 1.216 . S
C1038 C438 1.120 . S
C1068 C457 1.005 . S
C1063 C81 1.020 . S
C1098 C479 1.131 . S
C1093 C96 1.166 . S
C1128 C497 1.224 . S
C1123 C102 1.237 . S
C1158 C353 1.074 . S
C1153 C103 0.985 . S
C1188 C520 0.973 . S
C1183 C117 0.875 . S
C1213 C130 1.214 . S
C1218 C542 1.208 . S
C1248 C561 1.170 . S
C1243 C152 1.279 . S
C1273 C60 1.207 . S
C1278 C501 1.127 . S
C1308 C395 1.177 . S
C1303 C82 1.212 . S
C1333 C137 0.927 . S
C1338 C583 0.915 . S
C1368 C606 1.019 . S
C1363 C165 1.095 . S
C1393 C172 1.201 . S
C1398 C354 1.110 . S
C1428 C605 1.154 . S
C1423 C194 1.177 . S
C1453 C207 1.198 . S
C1458 C396 1.113 . S
C1483 C215 0.976 . S
C1488 C580 1.077 . S
C1518 C436 1.147 . S
C1513 C186 1.167 . S
C1548 C543 1.161 . S
C1543 C201 1.097 . S
C1578 C476 1.115 . S
C1573 C221 1.123 . S
C1608 C626 1.259 . S
C1603 C180 1.280 . S
C1638 C350 1.203 . S
C1633 C236 1.224 . S
C1663 C242 1.261 . S
C1668 C604 1.233 . S
C1698 C392 1.124 . S
C1693 C264 1.145 . S
C1723 C277 1.253 . S
C1728 C585 1.172 . S
C1753 C229 0.997 1_565 S
C1758 C435 1.058 . S
C1783 C249 1.165 . S
C1788 C539 1.151 . S
C1818 C475 1.000 . S
C1813 C257 0.911 1_545 S
C1843 C270 1.233 . S
C1848 C625 1.217 . S
C1873 C278 1.105 . S
C1878 C349 1.072 . S
C1903 C292 1.242 . S
C1908 C518 1.218 . S
C1933 C298 1.226 . S
C1938 C454 1.203 . S
C1963 C313 1.109 . S
C1968 C564 1.174 . S
C1998 C624 1.142 . S
C1993 C228 1.234 . S
C2028 C391 1.037 . S
C2023 C243 0.947 . S
C2058 C416 1.086 . S
C2053 C305 1.092 . S
C2088 C372 1.069 . S
C2083 C333 1.153 . S
C2113 C32 1.163 . S
C2118 C648 1.090 . S
C2148 C601 0.988 . S
C2143 C47 0.884 . S
C2178 C666 1.025 . S
C2173 C11 1.103 . S
C2203 C26 1.222 . S
C2208 C584 1.184 . S
C2233 C46 1.202 . S
C2238 C521 1.196 . S
C2268 C540 1.166 . S
C2263 C12 1.271 . S
C2298 C562 0.942 . S
C2293 C25 0.958 . S
C2328 C622 1.120 . S
C2323 C33 0.981 . S
C2358 C643 1.042 . S
C2353 C159 0.922 . S
C2383 C116 1.286 . S
C2388 C602 1.278 . S
C2413 C131 0.830 . S
C2418 C667 0.908 . S
C2448 C582 1.147 . S
C2443 C151 1.247 . S
C2478 C519 1.120 . S
C2473 C166 1.216 . S
C2503 C123 1.020 . S
C2508 C541 1.005 . S
C2538 C563 1.131 . S
C2533 C138 1.166 . S
C2563 C144 1.237 . S
C2568 C623 1.224 . S
C2598 C644 1.075 . S
C2593 C145 0.953 . S
C2628 C433 0.973 . S
C2623 C75 0.875 . S
C2658 C458 1.208 . S
C2653 C88 1.214 . S
C2683 C110 1.279 . S
C2688 C477 1.170 . S
C2718 C627 1.127 . S
C2713 C158 1.207 . S
C2743 C124 1.212 . S
C2748 C668 1.177 . S
C2778 C412 0.915 . S
C2773 C95 0.927 . S
C2808 C375 1.019 . S
C2803 C67 1.095 . S
C2833 C200 1.201 . S
C2838 C645 1.110 . S
C2868 C374 1.154 . S
C2863 C222 1.177 . S
C2898 C669 1.113 . S
C2893 C179 1.198 . S
C2923 C187 0.976 . S
C2928 C415 1.077 . S
C2953 C214 1.167 . S
C2958 C517 1.147 . S
C2983 C173 1.097 . S
C2988 C459 1.161 . S
C3013 C193 1.123 . S
C3018 C560 1.115 . S
C3043 C208 1.280 . S
C3048 C500 1.259 . S
C3078 C647 1.203 . S
C3073 C334 1.224 . S
C3103 C284 1.261 . S
C3108 C373 1.233 . S
C3138 C665 1.124 . S
C3133 C306 1.145 . S
C3163 C319 1.253 . S
C3168 C414 1.172 . S
C3193 C327 0.997 . S
C3198 C522 1.058 . S
C3228 C455 1.152 . S
C3223 C291 1.166 . S
C3253 C299 0.911 . S
C3258 C559 1.000 . S
C3288 C499 1.217 . S
C3283 C312 1.233 . S
C3318 C646 1.072 . S
C3313 C320 1.105 . S
C3348 C437 1.218 . S
C3343 C250 1.242 . S
C3373 C256 1.226 . S
C3378 C538 1.203 . S
C3408 C480 1.174 . S
C3403 C271 1.109 . S
C3438 C498 1.142 . S
C3433 C326 1.234 . S
C3463 C285 0.947 1_554 S
C3468 C664 1.037 . S
C3498 C581 1.086 . S
C3493 C263 1.092 . S
C3528 C603 1.069 . S
C3523 C235 1.153 . S
