# Generated by pormake.
# Topology zzz, (3,6)-cn, num edge types: 1
# Building blocks:
#     Node 0, Type 0, BuildingBlock: WUSLED_clean_sbu_0, # of connection points: 3
#     Node 1, Type 0, BuildingBlock: WUSLED_clean_sbu_0, # of connection points: 3
#     Node 2, Type 0, BuildingBlock: WUSLED_clean_sbu_0, # of connection points: 3
#     Node 3, Type 0, BuildingBlock: WUSLED_clean_sbu_0, # of connection points: 3
#     Node 4, Type 0, BuildingBlock: WUSLED_clean_sbu_0, # of connection points: 3
#     Node 5, Type 0, BuildingBlock: WUSLED_clean_sbu_0, # of connection points: 3
#     Node 6, Type 0, BuildingBlock: WUSLED_clean_sbu_0, # of connection points: 3
#     Node 7, Type 0, BuildingBlock: WUSLED_clean_sbu_0, # of connection points: 3
#     Node 8, Type 1, BuildingBlock: GEDQOX_clean_sbu_0, # of connection points: 6
#     Node 9, Type 1, BuildingBlock: GEDQOX_clean_sbu_0, # of connection points: 6
#     Node 10, Type 1, BuildingBlock: GEDQOX_clean_sbu_0, # of connection points: 6
#     Node 11, Type 1, BuildingBlock: GEDQOX_clean_sbu_0, # of connection points: 6
#     Edge 12, Type (0, 1), BuildingBlock: ZUJKAS_clean_linker_0, # of connection points: 2
#     Edge 13, Type (0, 1), BuildingBlock: ZUJKAS_clean_linker_0, # of connection points: 2
#     Edge 14, Type (0, 1), BuildingBlock: ZUJKAS_clean_linker_0, # of connection points: 2
#     Edge 15, Type (0, 1), BuildingBlock: ZUJKAS_clean_linker_0, # of connection points: 2
#     Edge 16, Type (0, 1), BuildingBlock: ZUJKAS_clean_linker_0, # of connection points: 2
#     Edge 17, Type (0, 1), BuildingBlock: ZUJKAS_clean_linker_0, # of connection points: 2
#     Edge 18, Type (0, 1), BuildingBlock: ZUJKAS_clean_linker_0, # of connection points: 2
#     Edge 19, Type (0, 1), BuildingBlock: ZUJKAS_clean_linker_0, # of connection points: 2
#     Edge 20, Type (0, 1), BuildingBlock: ZUJKAS_clean_linker_0, # of connection points: 2
#     Edge 21, Type (0, 1), BuildingBlock: ZUJKAS_clean_linker_0, # of connection points: 2
#     Edge 22, Type (0, 1), BuildingBlock: ZUJKAS_clean_linker_0, # of connection points: 2
#     Edge 23, Type (0, 1), BuildingBlock: ZUJKAS_clean_linker_0, # of connection points: 2
#     Edge 24, Type (0, 1), BuildingBlock: ZUJKAS_clean_linker_0, # of connection points: 2
#     Edge 25, Type (0, 1), BuildingBlock: ZUJKAS_clean_linker_0, # of connection points: 2
#     Edge 26, Type (0, 1), BuildingBlock: ZUJKAS_clean_linker_0, # of connection points: 2
#     Edge 27, Type (0, 1), BuildingBlock: ZUJKAS_clean_linker_0, # of connection points: 2
#     Edge 28, Type (0, 1), BuildingBlock: ZUJKAS_clean_linker_0, # of connection points: 2
#     Edge 29, Type (0, 1), BuildingBlock: ZUJKAS_clean_linker_0, # of connection points: 2
#     Edge 30, Type (0, 1), BuildingBlock: ZUJKAS_clean_linker_0, # of connection points: 2
#     Edge 31, Type (0, 1), BuildingBlock: ZUJKAS_clean_linker_0, # of connection points: 2
#     Edge 32, Type (0, 1), BuildingBlock: ZUJKAS_clean_linker_0, # of connection points: 2
#     Edge 33, Type (0, 1), BuildingBlock: ZUJKAS_clean_linker_0, # of connection points: 2
#     Edge 34, Type (0, 1), BuildingBlock: ZUJKAS_clean_linker_0, # of connection points: 2
#     Edge 35, Type (0, 1), BuildingBlock: ZUJKAS_clean_linker_0, # of connection points: 2
# Relax obj value: 0.288
# Max RMSD: 0.248
# Mean RMSD: 0.199
data_MOF--net-zzz--node1-WUSLED_clean_sbu_0--node2-GEDQOX_clean_sbu_0--edge1-ZUJKAS_clean_linker_0
_symmetry_space_group_name_H-M    P1
_symmetry_Int_Tables_number       1
_symmetry_cell_setting            triclinic
loop_
_symmetry_equiv_pos_as_xyz
'x, y, z'
_cell_length_a     81.964786
_cell_length_b     76.96823
_cell_length_c     27.687388
_cell_angle_alpha  84.577557
_cell_angle_beta   91.260206
_cell_angle_gamma 100.69637
loop_
_atom_site_label
_atom_site_type_symbol
_atom_site_fract_x
_atom_site_fract_y
_atom_site_fract_z
_atom_type_partial_charge
C0 C 0.78394 0.42741 0.21893 0.0
C1 C 0.79773 0.43695 0.1927 0.0
C2 C 0.81505 0.43586 0.26536 0.0
C3 C 0.81318 0.44108 0.21568 0.0
C4 C 0.80135 0.42552 0.29062 0.0
C5 C 0.78597 0.42134 0.26757 0.0
U6 U 0.75147 0.42581 0.1148 0.0
O7 O 0.72578 0.41065 0.11274 0.0
O8 O 0.73042 0.43968 0.11317 0.0
C9 C 0.71936 0.42517 0.10918 0.0
C10 C 0.76702 0.42563 0.19874 0.0
C11 C 0.70634 0.42656 0.0721 0.0
C12 C 0.67713 0.41962 0.05032 0.0
C13 C 0.69042 0.41644 0.08028 0.0
C14 C 0.69569 0.44252 1.00191 0.0
C15 C 0.67949 0.43314 0.01177 0.0
C16 C 0.709 0.43923 0.03171 0.0
C17 C 0.78658 0.42908 0.02391 0.0
C18 C 0.80889 0.43666 0.96522 0.0
C19 C 0.81444 0.42478 0.04691 0.0
C20 C 0.79774 0.42363 0.05876 0.0
C21 C 0.82021 0.43143 1.00005 0.0
C22 C 0.79223 0.4355 0.97711 0.0
C23 C 0.76904 0.42821 0.0356 0.0
O24 O 0.76348 0.44002 0.17472 0.0
O25 O 0.76103 0.41102 0.17828 0.0
O26 O 0.7656 0.44212 0.05458 0.0
O27 O 0.76143 0.41303 0.05729 0.0
H28 H 0.7964 0.44184 0.15511 0.0
H29 H 0.82351 0.44881 0.19489 0.0
H30 H 0.8022 0.42145 0.32897 0.0
H31 H 0.77544 0.41409 0.28851 0.0
H32 H 0.66491 0.41187 0.05834 0.0
H33 H 0.68811 0.40656 0.11111 0.0
H34 H 0.69798 0.45309 0.9728 0.0
H35 H 0.7212 0.44719 0.02448 0.0
H36 H 0.81288 0.44158 0.92864 0.0
H37 H 0.82288 0.4208 0.07464 0.0
H38 H 0.79355 0.41857 0.09509 0.0
H39 H 0.78375 0.43966 0.94972 0.0
C40 C 0.9463 0.75475 0.28022 0.0
C41 C 0.94227 0.77122 0.26344 0.0
C42 C 0.94995 0.78266 0.34133 0.0
C43 C 0.94414 0.78503 0.2935 0.0
C44 C 0.9534 0.76593 0.35886 0.0
C45 C 0.95171 0.75209 0.32834 0.0
U46 U 0.93709 0.74386 0.15427 0.0
O47 O 0.95192 0.73556 0.09826 0.0
O48 O 0.92709 0.72007 0.11692 0.0
C49 C 0.94038 0.72188 0.08966 0.0
C50 C 0.94595 0.74119 0.24567 0.0
C51 C 0.94588 0.70579 0.0763 0.0
C52 C 0.94691 0.67425 0.08799 0.0
C53 C 0.94301 0.68956 0.1054 0.0
C54 C 0.95669 0.69135 0.01286 0.0
C55 C 0.95351 0.67495 0.04109 0.0
C56 C 0.95293 0.70656 0.03031 0.0
C57 C 0.92267 0.78169 0.07598 0.0
C58 C 0.92644 0.78468 0.98875 0.0
C59 C 0.92192 0.80982 0.02981 0.0
C60 C 0.92031 0.79927 0.07381 0.0
C61 C 0.92594 0.80293 0.98716 0.0
C62 C 0.92495 0.77415 0.03301 0.0
C63 C 0.92632 0.77296 0.12315 0.0
O64 O 0.93109 0.73403 0.23051 0.0
O65 O 0.95665 0.7461 0.21011 0.0
O66 O 0.94208 0.77213 0.12936 0.0
O67 O 0.9163 0.75816 0.13832 0.0
H68 H 0.93803 0.77356 0.22652 0.0
H69 H 0.94114 0.79766 0.27915 0.0
H70 H 0.95792 0.76374 0.39556 0.0
H71 H 0.95495 0.7395 0.34193 0.0
H72 H 0.9443 0.66179 0.11055 0.0
H73 H 0.93747 0.68863 0.14092 0.0
H74 H 0.96201 0.69243 0.977 0.0
H75 H 0.95517 0.71892 0.00716 0.0
H76 H 0.92918 0.77886 0.95646 0.0
H77 H 0.92158 0.82379 0.03044 0.0
H78 H 0.91866 0.80529 0.10678 0.0
H79 H 0.92685 0.76055 0.03422 0.0
C80 C 0.74107 1.00145 0.23451 0.0
C81 C 0.72773 0.01033 0.22425 0.0
C82 C 0.7149 0.99805 0.30158 0.0
C83 C 0.71483 0.00872 0.25746 0.0
C84 C 0.72835 0.98923 0.3119 0.0
C85 C 0.74134 0.99093 0.2786 0.0
U86 U 0.75243 0.01133 0.10416 0.0
O87 O 0.77463 0.02525 0.06431 0.0
O88 O 0.76441 0.9974 0.05291 0.0
C89 C 0.77626 0.01123 0.04236 0.0
C90 C 0.75389 1.00222 0.19744 0.0
C91 C 0.79325 0.00787 0.03629 0.0
C92 C 0.82322 0.01727 0.04188 0.0
C93 C 0.80719 0.01845 0.05597 0.0
C94 C 0.81169 0.99439 0.98999 0.0
C95 C 0.82563 1.00554 0.00777 0.0
C96 C 0.79569 0.99558 0.00401 0.0
C97 C 0.71812 0.0262 0.02255 0.0
C98 C 0.70619 0.01889 0.94423 0.0
C99 C 0.70472 0.04732 0.97298 0.0
C100 C 0.71333 0.04284 0.01503 0.0
C101 C 0.70058 0.03513 0.93803 0.0
C102 C 0.71493 0.01447 0.98603 0.0
C103 C 0.72498 0.02076 0.07014 0.0
O104 O 0.75 0.99056 0.16535 0.0
O105 O 0.76012 0.01824 0.17767 0.0
O106 O 0.73736 0.03204 0.0869 0.0
O107 O 0.72691 1.00413 0.07758 0.0
H108 H 0.72713 0.01829 0.19004 0.0
H109 H 0.70456 0.01544 0.2479 0.0
H110 H 0.72884 0.98101 0.34569 0.0
H111 H 0.75144 0.98383 0.28696 0.0
H112 H 0.83371 0.02585 0.05687 0.0
H113 H 0.80573 0.02811 0.0808 0.0
H114 H 0.81306 0.98534 0.96332 0.0
H115 H 0.78516 0.98747 0.98773 0.0
H116 H 0.7032 0.0093 0.91764 0.0
H117 H 0.70037 0.05984 0.96932 0.0
H118 H 0.71562 0.05208 0.04268 0.0
H119 H 0.71857 1.00158 0.99051 0.0
C120 C 0.5726 0.75129 0.46958 0.0
C121 C 0.58011 0.73871 0.44931 0.0
C122 C 0.57093 0.71691 0.51768 0.0
C123 C 0.57936 0.72172 0.47323 0.0
C124 C 0.5636 0.7297 0.53799 0.0
C125 C 0.56445 0.74671 0.51417 0.0
U126 U 0.57416 0.78014 0.35054 0.0
O127 O 0.55794 0.79888 0.32503 0.0
O128 O 0.58483 0.80835 0.33087 0.0
C129 C 0.57041 0.81222 0.31648 0.0
C130 C 0.57208 0.76869 0.44293 0.0
C131 C 0.5701 0.82345 0.26994 0.0
C132 C 0.58152 0.85056 0.21987 0.0
C133 C 0.5827 0.83836 0.26002 0.0
C134 C 0.55527 0.83297 0.19783 0.0
C135 C 0.56761 0.84826 0.18884 0.0
C136 C 0.55649 0.82072 0.23788 0.0
C137 C 0.58032 0.75542 0.23781 0.0
C138 C 0.56783 0.75498 0.15749 0.0
C139 C 0.59029 0.73902 0.17759 0.0
C140 C 0.59142 0.74505 0.22371 0.0
C141 C 0.57794 0.74321 0.1448 0.0
C142 C 0.569 0.76105 0.20371 0.0
C143 C 0.5791 0.75756 0.28973 0.0
O144 O 0.586 0.77707 0.42228 0.0
O145 O 0.55905 0.76898 0.41464 0.0
O146 O 0.56434 0.75865 0.30553 0.0
O147 O 0.59133 0.76822 0.30933 0.0
H148 H 0.58634 0.74192 0.41462 0.0
H149 H 0.58533 0.71233 0.45675 0.0
H150 H 0.55676 0.72644 0.57164 0.0
H151 H 0.55839 0.75616 0.53006 0.0
H152 H 0.5914 0.86199 0.21369 0.0
H153 H 0.59327 0.84091 0.28422 0.0
H154 H 0.54429 0.83081 0.17514 0.0
H155 H 0.54646 0.80946 0.24455 0.0
H156 H 0.55837 0.75864 0.1327 0.0
H157 H 0.59817 0.72987 0.16925 0.0
H158 H 0.60022 0.74055 0.24956 0.0
H159 H 0.5604 0.7692 0.21371 0.0
C160 C 0.24285 0.5844 0.36424 0.0
C161 C 0.22925 0.57265 0.38589 0.0
C162 C 0.21253 0.57699 0.31339 0.0
C163 C 0.21418 0.56899 0.36067 0.0
C164 C 0.22586 0.58965 0.29338 0.0
C165 C 0.24087 0.59328 0.31856 0.0
U166 U 0.27505 0.5844 0.46909 0.0
O167 O 0.29627 0.5707 0.47001 0.0
O168 O 0.30059 0.59965 0.47185 0.0
C169 C 0.30723 0.58531 0.4736 0.0
C170 C 0.25969 0.58582 0.38503 0.0
C171 C 0.32044 0.58387 0.50964 0.0
C172 C 0.34914 0.58133 0.5256 0.0
C173 C 0.33651 0.5843 0.49304 0.0
C174 C 0.32985 0.5779 0.5924 0.0
C175 C 0.34598 0.57792 0.57571 0.0
C176 C 0.31715 0.58082 0.55955 0.0
C177 C 0.23951 0.57978 0.55851 0.0
C178 C 0.21682 0.57262 0.61602 0.0
C179 C 0.21171 0.58357 0.53313 0.0
C180 C 0.2285 0.58469 0.52242 0.0
C181 C 0.20568 0.57744 0.58005 0.0
C182 C 0.23359 0.57379 0.60531 0.0
C183 C 0.25716 0.58082 0.548 0.0
O184 O 0.26561 0.60006 0.40715 0.0
O185 O 0.26322 0.57114 0.4074 0.0
O186 O 0.26489 0.59626 0.52815 0.0
O187 O 0.26078 0.56725 0.52767 0.0
H188 H 0.23051 0.56563 0.42118 0.0
H189 H 0.20419 0.55914 0.37706 0.0
H190 H 0.22488 0.59628 0.25744 0.0
H191 H 0.25122 0.60241 0.30128 0.0
H192 H 0.36125 0.58109 0.51115 0.0
H193 H 0.33922 0.58646 0.45456 0.0
H194 H 0.327 0.57547 0.63072 0.0
H195 H 0.30474 0.58036 0.57291 0.0
H196 H 0.21261 0.56807 0.65264 0.0
H197 H 0.20341 0.58721 0.50455 0.0
H198 H 0.2329 0.58934 0.48601 0.0
H199 H 0.24194 0.57002 0.63361 0.0
C200 C 0.07976 0.25054 0.29849 0.0
C201 C 0.09222 0.24029 0.30743 0.0
C202 C 0.07701 0.21733 0.25961 0.0
C203 C 0.09088 0.22385 0.28805 0.0
C204 C 0.06449 0.22754 0.25158 0.0
C205 C 0.06587 0.24392 0.27067 0.0
U206 U 0.08514 0.28534 0.39378 0.0
O207 O 0.09789 0.31341 0.38881 0.0
O208 O 0.07074 0.30666 0.39331 0.0
C209 C 0.08399 0.31917 0.39472 0.0
C210 C 0.08116 0.26858 0.31468 0.0
C211 C 0.0839 0.33112 0.43334 0.0
C212 C 0.08687 0.3611 0.45754 0.0
C213 C 0.08868 0.34951 0.42278 0.0
C214 C 0.0759 0.33599 0.51441 0.0
C215 C 0.0801 0.35448 0.50337 0.0
C216 C 0.07787 0.32441 0.47983 0.0
C217 C 0.08876 0.24857 0.49506 0.0
C218 C 0.09369 0.22763 0.56231 0.0
C219 C 0.07892 0.21703 0.49085 0.0
C220 C 0.0809 0.23446 0.46936 0.0
C221 C 0.08482 0.2135 0.53823 0.0
C222 C 0.09558 0.24503 0.54092 0.0
C223 C 0.08863 0.26704 0.47688 0.0
O224 O 0.06874 0.27117 0.3406 0.0
O225 O 0.09575 0.27648 0.32991 0.0
O226 O 0.07426 0.27026 0.46009 0.0
O227 O 0.1013 0.27507 0.44989 0.0
H228 H 0.10309 0.24503 0.3288 0.0
H229 H 0.10068 0.21626 0.29529 0.0
H230 H 0.05378 0.22313 0.22926 0.0
H231 H 0.05618 0.25163 0.26283 0.0
H232 H 0.0901 0.37528 0.44779 0.0
H233 H 0.09333 0.35494 0.38713 0.0
H234 H 0.07084 0.33049 0.54957 0.0
H235 H 0.0742 0.31024 0.4889 0.0
H236 H 0.09866 0.2253 0.59842 0.0
H237 H 0.07196 0.20646 0.47143 0.0
H238 H 0.07565 0.23699 0.43369 0.0
H239 H 0.1018 0.25581 0.56102 0.0
C240 C 0.28456 0.01736 0.34273 0.0
C241 C 0.30161 0.0214 0.35306 0.0
C242 C 0.30824 0.01843 0.26933 0.0
C243 C 0.31331 0.02198 0.31681 0.0
C244 C 0.29112 0.01472 0.25878 0.0
C245 C 0.27936 0.01412 0.2953 0.0
U246 U 0.27871 0.01146 0.47577 0.0
O247 O 0.26445 0.02255 0.52762 0.0
O248 O 0.26089 0.99363 0.5247 0.0
C249 C 0.25653 0.00683 0.54502 0.0
C250 C 0.27256 0.01527 0.38266 0.0
C251 C 0.23884 1.00527 0.55571 0.0
C252 C 0.21044 0.00723 0.53248 0.0
C253 C 0.22713 0.00844 0.51985 0.0
C254 C 0.21719 0.99964 0.61656 0.0
C255 C 0.2053 1.00283 0.58109 0.0
C256 C 0.23376 1.00083 0.60393 0.0
C257 C 0.31847 0.0092 0.54771 0.0
C258 C 0.31849 0.99877 0.63329 0.0
C259 C 0.3445 0.00915 0.59057 0.0
C260 C 0.33581 0.01277 0.54809 0.0
C261 C 0.33595 1.00187 0.6335 0.0
C262 C 0.3098 1.00246 0.59065 0.0
C263 C 0.30967 0.01162 0.50169 0.0
O264 O 0.27048 0.99968 0.4079 0.0
O265 O 0.27448 0.02857 0.41012 0.0
O266 O 0.30333 0.02614 0.49485 0.0
O267 O 0.29955 0.9974 0.48931 0.0
H268 H 0.30591 0.02383 0.38952 0.0
H269 H 0.32637 0.02517 0.32607 0.0
H270 H 0.28681 0.01179 0.22267 0.0
H271 H 0.26625 0.01079 0.28676 0.0
H272 H 0.20157 0.00963 0.50422 0.0
H273 H 0.23089 0.01189 0.48238 0.0
H274 H 0.21379 0.99657 0.6544 0.0
H275 H 0.24268 0.99845 0.63211 0.0
H276 H 0.31158 0.99329 0.66585 0.0
H277 H 0.35793 0.0114 0.58922 0.0
H278 H 0.34266 0.01791 0.51515 0.0
H279 H 0.29634 0.99969 0.59085 0.0
C280 C 0.4575 0.2589 0.11152 0.0
C281 C 0.45066 0.27121 0.13517 0.0
C282 C 0.45966 0.2942 0.06918 0.0
C283 C 0.45168 0.28869 0.11413 0.0
C284 C 0.46651 0.28173 0.04592 0.0
C285 C 0.46541 0.2643 0.06685 0.0
U286 U 0.45385 0.22355 0.22029 0.0
O287 O 0.4414 0.19542 0.22761 0.0
O288 O 0.46852 0.20241 0.23301 0.0
C289 C 0.45535 0.18974 0.23803 0.0
C290 C 0.45698 0.24055 0.13312 0.0
C291 C 0.45532 0.17735 0.28199 0.0
C292 C 0.45462 0.14725 0.31847 0.0
C293 C 0.45324 0.15909 0.27766 0.0
C294 C 0.45981 0.17181 0.3688 0.0
C295 C 0.45817 0.15348 0.36445 0.0
C296 C 0.45835 0.18363 0.32795 0.0
C297 C 0.44845 0.25114 0.33546 0.0
C298 C 0.45927 0.26246 0.41092 0.0
C299 C 0.43419 0.27075 0.37547 0.0
C300 C 0.43516 0.2602 0.33759 0.0
C301 C 0.44637 0.27214 0.41213 0.0
C302 C 0.46036 0.25214 0.37273 0.0
C303 C 0.45029 0.24122 0.29373 0.0
O304 O 0.46969 0.23811 0.16099 0.0
O305 O 0.44266 0.23209 0.15111 0.0
O306 O 0.43748 0.23366 0.26891 0.0
O307 O 0.46496 0.23939 0.27887 0.0
H308 H 0.44457 0.26733 0.16989 0.0
H309 H 0.44612 0.29783 0.13291 0.0
H310 H 0.47304 0.28551 0.01186 0.0
H311 H 0.4709 0.25504 0.04826 0.0
H312 H 0.45348 0.13327 0.31368 0.0
H313 H 0.45097 0.15401 0.24246 0.0
H314 H 0.46235 0.17702 0.40373 0.0
H315 H 0.45995 0.19771 0.33203 0.0
H316 H 0.46894 0.26349 0.43838 0.0
H317 H 0.42413 0.27809 0.37566 0.0
H318 H 0.42582 0.25958 0.30917 0.0
H319 H 0.47067 0.24517 0.37193 0.0
Nd320 Nd 0.00534 1.00058 0.73969 0.0
Nd321 Nd 0.02318 1.00554 0.83394 0.0
C322 C 0.98483 0.98861 0.66996 0.0
C323 C 0.98076 0.97176 0.64686 0.0
C324 C 0.98007 0.95526 0.67405 0.0
C325 C 0.97707 0.93949 0.6512 0.0
C326 C 0.97467 0.93985 0.60061 0.0
C327 C 0.97518 0.95641 0.57367 0.0
C328 C 0.97822 0.97217 0.59657 0.0
C329 C 0.03921 1.00532 0.73183 0.0
C330 C 0.01235 0.96558 0.80987 0.0
C331 C 0.04286 0.01724 0.906 0.0
C332 C 0.0463 0.03319 0.93367 0.0
C333 C 0.05541 0.04948 0.91338 0.0
C334 C 0.05859 0.0643 0.9403 0.0
C335 C 0.05269 0.06323 0.98806 0.0
C336 C 0.04364 0.04692 0.0083 0.0
C337 C 0.04056 0.03209 0.98154 0.0
C338 C 0.98927 1.00113 0.84113 0.0
C339 C 0.0178 0.04045 0.75986 0.0
O340 O 0.98026 0.98828 0.7151 0.0
O341 O 0.9997 0.99789 0.6616 0.0
O342 O 0.0297 0.01225 0.7005 0.0
O343 O 0.03082 0.99569 0.76542 0.0
O344 O 0.00313 0.97223 0.77602 0.0
O345 O 0.02331 0.97584 0.83521 0.0
O346 O 0.04762 0.01899 0.86071 0.0
O347 O 0.02838 0.00692 0.91264 0.0
O348 O 0.99864 0.99397 0.87223 0.0
O349 O 0.99782 0.01076 0.80787 0.0
O350 O 0.02684 0.03369 0.79423 0.0
O351 O 0.00595 0.03026 0.73728 0.0
H352 H 0.98201 0.95454 0.71291 0.0
H353 H 0.97698 0.92705 0.67311 0.0
H354 H 0.97314 0.95722 0.53482 0.0
H355 H 0.97871 0.98473 0.57487 0.0
H356 H 0.06006 0.05083 0.87665 0.0
H357 H 0.06546 0.07669 0.92343 0.0
H358 H 0.03911 0.04553 0.04518 0.0
H359 H 0.03367 0.01971 0.99842 0.0
Nd360 Nd 0.51696 0.99169 0.74844 0.0
Nd361 Nd 0.50809 0.01429 0.82406 0.0
C362 C 0.52726 0.96876 0.69678 0.0
C363 C 0.54107 0.97006 0.66232 0.0
C364 C 0.55237 0.95843 0.67002 0.0
C365 C 0.56634 0.96039 0.64044 0.0
C366 C 0.56929 0.974 0.60221 0.0
C367 C 0.55774 0.98543 0.59403 0.0
C368 C 0.54385 0.98355 0.62388 0.0
C369 C 0.50971 0.02362 0.71004 0.0
C370 C 0.54421 0.02519 0.77826 0.0
C371 C 0.49288 0.03289 0.87831 0.0
C372 C 0.47638 0.0304 0.90105 0.0
C373 C 0.46883 0.0451 0.90526 0.0
C374 C 0.45354 0.043 0.9288 0.0
C375 C 0.44559 0.02615 0.94882 0.0
C376 C 0.45302 0.01137 0.94348 0.0
C377 C 0.46822 0.01346 0.91967 0.0
C378 C 0.52609 0.98897 0.85898 0.0
C379 C 0.48015 0.98055 0.79567 0.0
O380 O 0.53169 0.97063 0.74202 0.0
O381 O 0.51501 0.97693 0.68292 0.0
O382 O 0.52146 0.01648 0.69427 0.0
O383 O 0.50192 0.01369 0.74422 0.0
O384 O 0.54193 0.00873 0.76626 0.0
O385 O 0.53212 0.03192 0.79558 0.0
O386 O 0.49338 0.03554 0.83095 0.0
O387 O 0.50264 0.02218 0.89582 0.0
O388 O 0.52875 1.00506 0.87191 0.0
O389 O 0.51417 0.98672 0.82922 0.0
O390 O 0.48485 0.99276 0.82593 0.0
O391 O 0.48983 0.97793 0.7606 0.0
H392 H 0.5506 0.94805 0.69975 0.0
H393 H 0.57505 0.9515 0.64843 0.0
H394 H 0.55942 0.99588 0.56455 0.0
H395 H 0.53543 0.99283 0.61723 0.0
H396 H 0.47488 0.05825 0.89102 0.0
H397 H 0.44819 0.05465 0.9326 0.0
H398 H 0.44709 0.99819 0.95788 0.0
H399 H 0.47372 1.00187 0.91647 0.0
Nd400 Nd 0.50778 0.51537 0.8404 0.0
Nd401 Nd 0.51621 0.49818 0.74523 0.0
C402 C 0.49492 0.53555 0.89457 0.0
C403 C 0.50196 0.55293 0.91163 0.0
C404 C 0.49274 0.56662 0.90644 0.0
C405 C 0.50009 0.58387 0.91584 0.0
C406 C 0.51681 0.58772 0.93071 0.0
C407 C 0.52586 0.57382 0.93707 0.0
C408 C 0.51855 0.55663 0.92732 0.0
C409 C 0.53934 0.50739 0.84772 0.0
C410 C 0.53037 0.53976 0.75127 0.0
C411 C 0.52377 0.47834 0.67937 0.0
C412 C 0.51851 0.45979 0.66886 0.0
C413 C 0.51471 0.44608 0.70634 0.0
C414 C 0.50813 0.42879 0.69551 0.0
C415 C 0.50524 0.42496 0.64705 0.0
C416 C 0.50932 0.43873 0.60971 0.0
C417 C 0.51591 0.45597 0.62057 0.0
C418 C 0.48869 0.51367 0.74197 0.0
C419 C 0.49676 0.47259 0.839 0.0
O420 O 0.49252 0.53583 0.84755 0.0
O421 O 0.50132 0.52191 0.91293 0.0
O422 O 0.53271 0.51437 0.88158 0.0
O423 O 0.52924 0.50545 0.81304 0.0
O424 O 0.52004 0.539 0.78788 0.0
O425 O 0.53308 0.52538 0.73237 0.0
O426 O 0.53259 0.48125 0.71875 0.0
O427 O 0.51232 0.48812 0.67285 0.0
O428 O 0.49872 0.5149 0.70567 0.0
O429 O 0.49305 0.50405 0.77756 0.0
O430 O 0.50431 0.47385 0.79652 0.0
O431 O 0.49529 0.48663 0.86165 0.0
H432 H 0.48003 0.5641 0.8935 0.0
H433 H 0.49282 0.59428 0.90997 0.0
H434 H 0.53866 0.57622 0.94928 0.0
H435 H 0.52603 0.54636 0.93088 0.0
H436 H 0.51658 0.44878 0.74394 0.0
H437 H 0.50528 0.41845 0.72505 0.0
H438 H 0.50699 0.43632 0.57206 0.0
H439 H 0.51858 0.46644 0.59125 0.0
Nd440 Nd 1.00201 0.51485 0.7464 0.0
Nd441 Nd 0.02394 0.49945 0.83842 0.0
C442 C 0.98127 0.53 0.69015 0.0
C443 C 0.96865 0.52274 0.65514 0.0
C444 C 0.95848 0.53349 0.63072 0.0
C445 C 0.94656 0.52643 0.59731 0.0
C446 C 0.94465 0.50849 0.5877 0.0
C447 C 0.95494 0.49783 0.61248 0.0
C448 C 0.96675 0.50486 0.64595 0.0
C449 C 0.01405 0.4848 0.72657 0.0
C450 C 0.98428 0.4831 0.8275 0.0
C451 C 0.0443 0.48383 0.89485 0.0
C452 C 0.05634 0.49002 0.93262 0.0
C453 C 0.07053 0.48242 0.94098 0.0
C454 C 0.08246 0.48893 0.97496 0.0
C455 C 0.08039 0.50317 1.00118 0.0
C456 C 0.06606 0.51064 0.99292 0.0
C457 C 0.05419 0.50417 0.95887 0.0
C458 C 0.01217 0.5296 0.85857 0.0
C459 C 0.04174 0.53061 0.75574 0.0
O460 O 0.97814 0.52433 0.73578 0.0
O461 O 0.99671 0.53025 0.67812 0.0
O462 O 0.00537 0.49319 0.69592 0.0
O463 O 0.01542 0.49246 0.76482 0.0
O464 O 0.98259 0.49621 0.79426 0.0
O465 O 0.99883 0.48028 0.84518 0.0
O466 O 0.04812 0.49069 0.85048 0.0
O467 O 0.02858 0.48286 0.90515 0.0
O468 O 0.02089 0.52114 0.88888 0.0
O469 O 0.01048 0.5219 0.82031 0.0
O470 O 0.04332 0.51741 0.78885 0.0
O471 O 0.0272 0.53382 0.73891 0.0
H472 H 0.95973 0.5473 0.63755 0.0
H473 H 0.93871 0.53497 0.57947 0.0
H474 H 0.95404 0.48406 0.60559 0.0
H475 H 0.97447 0.49634 0.66459 0.0
H476 H 0.07245 0.47155 0.92089 0.0
H477 H 0.09329 0.48278 0.98081 0.0
H478 H 0.0642 0.52178 0.01194 0.0
H479 H 0.04342 0.51039 0.95265 0.0
H480 H 0.18684 0.97866 0.64696 0.0
H481 H 0.1587 0.97843 0.67489 0.0
H482 H 0.15578 0.02451 0.57603 0.0
H483 H 0.18406 0.02508 0.54845 0.0
H484 H 0.1472 0.00683 0.71693 0.0
H485 H 0.11317 0.98826 0.54821 0.0
H486 H 0.13419 0.98497 0.56022 0.0
H487 H 0.13022 0.00667 0.53999 0.0
C488 C 0.18025 0.98879 0.63119 0.0
C489 C 0.18774 1.00192 0.59547 0.0
C490 C 0.16415 0.98858 0.64711 0.0
C491 C 0.15514 1.00137 0.62729 0.0
C492 C 0.16245 0.01436 0.59125 0.0
H493 H 0.05858 0.02649 0.6637 0.0
H494 H 0.08711 0.02546 0.64235 0.0
C495 C 0.17859 0.01462 0.57539 0.0
C496 C 0.13825 1.00139 0.64523 0.0
H497 H 0.09772 0.99725 0.60959 0.0
C498 C 0.13634 1.00464 0.69365 0.0
C499 C 0.12416 0.99848 0.61473 0.0
C500 C 0.12543 0.99424 0.56299 0.0
C501 C 0.12071 1.00564 0.71198 0.0
C502 C 0.10662 1.00294 0.68125 0.0
C503 C 0.10855 0.99938 0.63306 0.0
C504 C 0.0898 1.00429 0.69749 0.0
C505 C 0.11953 0.01012 0.76352 0.0
C506 C 0.08188 0.99286 0.73606 0.0
C507 C 0.06555 0.99354 0.74864 0.0
C508 C 0.05688 1.00548 0.72233 0.0
C509 C 0.06495 0.0171 0.68445 0.0
C510 C 0.08124 0.01651 0.67217 0.0
H511 H 0.13182 0.01617 0.77797 0.0
H512 H 0.1108 0.01943 0.76614 0.0
H513 H 0.11481 0.99778 0.78696 0.0
H514 H 0.08813 0.9831 0.75553 0.0
H515 H 0.05957 0.98438 0.77786 0.0
H516 H 0.44048 0.12012 0.39057 0.0
H517 H 0.44658 0.09874 0.45652 0.0
H518 H 0.48847 0.13693 0.49975 0.0
H519 H 0.48241 0.15837 0.43412 0.0
H520 H 0.47415 0.08465 0.46673 0.0
H521 H 0.46697 0.11905 0.62952 0.0
H522 H 0.45936 0.12598 0.57047 0.0
H523 H 0.48092 0.13254 0.58603 0.0
C524 C 0.45091 0.12402 0.41436 0.0
C525 C 0.46095 0.14098 0.40703 0.0
C526 C 0.45434 0.11181 0.45219 0.0
C527 C 0.46785 0.11628 0.48362 0.0
C528 C 0.47771 0.1333 0.47689 0.0
H529 H 0.52504 0.04524 0.63498 0.0
H530 H 0.51405 0.06783 0.58282 0.0
C531 C 0.47425 0.14555 0.4392 0.0
C532 C 0.47246 0.10267 0.52061 0.0
H533 H 0.48172 0.09474 0.64082 0.0
C534 C 0.47563 0.08681 0.50486 0.0
C535 C 0.4742 0.10533 0.57054 0.0
C536 C 0.47002 0.12157 0.59028 0.0
C537 C 0.48103 0.07385 0.53719 0.0
C538 C 0.48368 0.07696 0.58658 0.0
C539 C 0.47992 0.09249 0.60283 0.0
C540 C 0.49081 0.06438 0.62124 0.0
C541 C 0.48385 0.05692 0.5181 0.0
C542 C 0.48171 0.0555 0.6616 0.0
C543 C 0.48804 0.04262 0.69184 0.0
C544 C 0.50358 0.03848 0.6821 0.0
C545 C 0.51295 0.048 0.64304 0.0
C546 C 0.50666 0.06085 0.61306 0.0
H547 H 0.47688 0.0544 0.48382 0.0
H548 H 0.49725 0.05805 0.51044 0.0
H549 H 0.48005 0.04532 0.54509 0.0
H550 H 0.4695 0.05813 0.6688 0.0
H551 H 0.48058 0.03554 0.72183 0.0
H552 H 0.37914 0.59258 0.57315 0.0
H553 H 0.40154 0.58195 0.6194 0.0
H554 H 0.36572 0.5433 0.70316 0.0
H555 H 0.34321 0.5531 0.65486 0.0
H556 H 0.41083 0.57893 0.71291 0.0
H557 H 0.39304 0.51169 0.6481 0.0
H558 H 0.38374 0.53014 0.62392 0.0
H559 H 0.37726 0.51854 0.68177 0.0
C560 C 0.37598 0.58175 0.60125 0.0
C561 C 0.35935 0.57343 0.6094 0.0
C562 C 0.38882 0.57581 0.62806 0.0
C563 C 0.38536 0.56151 0.66395 0.0
C564 C 0.36873 0.55402 0.67473 0.0
H565 H 0.46198 0.50607 0.80326 0.0
H566 H 0.43612 0.51806 0.79429 0.0
C567 C 0.35584 0.55983 0.64747 0.0
C568 C 0.39928 0.55392 0.68749 0.0
H569 H 0.41685 0.51677 0.69701 0.0
C570 C 0.41203 0.56527 0.70996 0.0
C571 C 0.4009 0.53609 0.68352 0.0
C572 C 0.3881 0.52342 0.65769 0.0
C573 C 0.42655 0.55944 0.72699 0.0
C574 C 0.42832 0.54183 0.72158 0.0
C575 C 0.41531 0.53023 0.70136 0.0
C576 C 0.44434 0.53585 0.73073 0.0
C577 C 0.44015 0.57224 0.74932 0.0
C578 C 0.45741 0.54194 0.69802 0.0
C579 C 0.47197 0.53496 0.70258 0.0
C580 C 0.47376 0.52185 0.74017 0.0
C581 C 0.46089 0.51618 0.77399 0.0
C582 C 0.44617 0.523 0.76896 0.0
H583 H 0.43559 0.584 0.76031 0.0
H584 H 0.44554 0.56557 0.78152 0.0
H585 H 0.45023 0.57693 0.72244 0.0
H586 H 0.45614 0.5517 0.66798 0.0
H587 H 0.48173 0.53961 0.67614 0.0
H588 H 0.09991 0.38501 0.52942 0.0
H589 H 0.0926 0.4065 0.58126 0.0
H590 H 0.04421 0.37374 0.60524 0.0
H591 H 0.05161 0.35212 0.55468 0.0
H592 H 0.06999 0.42575 0.56531 0.0
H593 H 0.05473 0.38608 0.74021 0.0
H594 H 0.06533 0.37819 0.69261 0.0
H595 H 0.043 0.37551 0.69223 0.0
C596 C 0.08781 0.3823 0.54638 0.0
C597 C 0.07636 0.36683 0.53811 0.0
C598 C 0.08365 0.39455 0.57613 0.0
C599 C 0.06794 0.39165 0.59804 0.0
C600 C 0.0566 0.37607 0.59027 0.0
H601 H 0.00888 0.46719 0.64644 0.0
H602 H 0.0236 0.44495 0.6207 0.0
C603 C 0.06082 0.36373 0.56104 0.0
C604 C 0.06272 0.40569 0.62451 0.0
H605 H 0.04222 0.41241 0.72548 0.0
C606 C 0.06421 0.42285 0.60075 0.0
C607 C 0.05543 0.40215 0.67122 0.0
C608 C 0.05471 0.38452 0.70072 0.0
C609 C 0.05775 0.43618 0.62092 0.0
C610 C 0.04914 0.43217 0.66552 0.0
C611 C 0.04855 0.41539 0.69085 0.0
C612 C 0.03959 0.44478 0.68392 0.0
C613 C 0.05999 0.45441 0.59375 0.0
C614 C 0.0431 0.4515 0.72929 0.0
C615 C 0.03449 0.46418 0.74447 0.0
C616 C 0.02226 0.47024 0.71445 0.0
C617 C 0.01836 0.46293 0.67013 0.0
C618 C 0.02685 0.45028 0.6552 0.0
H619 H 0.07113 0.45699 0.57015 0.0
H620 H 0.04901 0.45529 0.57011 0.0
H621 H 0.06122 0.46496 0.61904 0.0
H622 H 0.05277 0.44728 0.75228 0.0
H623 H 0.03766 0.46955 0.7789 0.0
H624 H 0.84991 0.03439 0.98291 0.0
H625 H 0.87712 0.03478 0.94792 0.0
H626 H 0.86664 0.97764 0.95282 0.0
H627 H 0.83942 0.9771 0.98814 0.0
H628 H 0.9029 0.01947 0.98612 0.0
H629 H 0.88148 0.99236 0.81239 0.0
H630 H 0.8679 1.00055 0.85167 0.0
H631 H 0.8726 0.97868 0.86489 0.0
C632 C 0.85344 0.02187 0.97702 0.0
C633 C 0.84247 1.0057 0.9884 0.0
C634 C 0.86895 0.02215 0.95662 0.0
C635 C 0.87378 0.00627 0.94689 0.0
C636 C 0.86299 0.99008 0.95883 0.0
H637 H 0.97075 0.98314 0.91601 0.0
H638 H 0.94257 0.98532 0.9379 0.0
C639 C 0.84746 0.98979 0.97921 0.0
C640 C 0.8904 0.00662 0.92621 0.0
H641 H 0.91021 0.99359 0.83225 0.0
C642 C 0.90448 0.01394 0.95227 0.0
C643 C 0.89247 0.99965 0.88165 0.0
C644 C 0.87782 0.99252 0.85072 0.0
C645 C 0.92055 0.01389 0.93594 0.0
C646 C 0.92259 0.00611 0.89272 0.0
C647 C 0.90857 0.99939 0.86562 0.0
C648 C 0.93921 1.00405 0.87685 0.0
C649 C 0.93525 0.02204 0.96527 0.0
C650 C 0.94645 0.01342 0.83427 0.0
C651 C 0.96265 0.01221 0.82157 0.0
C652 C 0.97172 1.00151 0.85122 0.0
C653 C 0.96414 0.99162 0.89269 0.0
C654 C 0.94805 0.99288 0.90535 0.0
H655 H 0.9318 0.03127 0.99016 0.0
H656 H 0.9401 0.01134 0.98755 0.0
H657 H 0.94539 0.02939 0.94118 0.0
H658 H 0.93975 0.02202 0.81166 0.0
H659 H 0.96819 0.0199 0.78929 0.0
H660 H 0.55454 0.84389 0.09731 0.0
H661 H 0.54937 0.86702 0.03489 0.0
H662 H 0.57054 0.90731 0.12789 0.0
H663 H 0.57544 0.8844 0.19075 0.0
H664 H 0.52952 0.89294 0.04623 0.0
H665 H 0.59426 0.92443 0.99749 0.0
H666 H 0.589 0.90255 0.02928 0.0
H667 H 0.59008 0.92196 0.06143 0.0
C668 C 0.55812 0.85767 0.10454 0.0
C669 C 0.56547 0.86223 0.14917 0.0
C670 C 0.55523 0.87087 0.06867 0.0
C671 C 0.55979 0.88889 0.07644 0.0
C672 C 0.56728 0.8935 0.12063 0.0
H673 H 0.54675 0.99049 0.93771 0.0
H674 H 0.55524 0.96559 0.98724 0.0
C675 C 0.5701 0.88034 0.15655 0.0
C676 C 0.55577 0.90288 0.03978 0.0
H677 H 0.57304 0.94023 0.96881 0.0
C678 C 0.53902 0.90318 0.02884 0.0
C679 C 0.5682 0.91627 0.01742 0.0
C680 C 0.58641 0.91627 0.02658 0.0
C681 C 0.53432 0.91685 0.99741 0.0
C682 C 0.54675 0.93036 0.9753 0.0
C683 C 0.56353 0.92988 0.98567 0.0
C684 C 0.54254 0.94549 0.94294 0.0
C685 C 0.51606 0.91705 0.98982 0.0
C686 C 0.533 0.94256 0.90069 0.0
C687 C 0.52802 0.95677 0.87256 0.0
C688 C 0.53268 0.97419 0.88582 0.0
C689 C 0.5429 0.9772 0.92673 0.0
C690 C 0.54777 0.96298 0.95504 0.0
H691 H 0.50837 0.90859 0.01877 0.0
H692 H 0.51353 0.93076 0.98896 0.0
H693 H 0.51206 0.91182 0.95462 0.0
H694 H 0.52918 0.92925 0.88987 0.0
H695 H 0.52027 0.95407 0.84095 0.0
H696 H 0.6768 0.44374 0.91442 0.0
H697 H 0.65374 0.4554 0.87327 0.0
H698 H 0.62638 0.44644 0.00727 0.0
H699 H 0.64932 0.43516 0.04879 0.0
H700 H 0.60724 0.43573 0.92288 0.0
H701 H 0.64328 0.50481 0.89782 0.0
H702 H 0.65241 0.48765 0.87527 0.0
H703 H 0.64981 0.48787 0.93937 0.0
C704 C 0.66587 0.44424 0.93513 0.0
C705 C 0.66497 0.43853 0.98502 0.0
C706 C 0.6527 0.45087 0.91152 0.0
C707 C 0.63844 0.45194 0.93739 0.0
C708 C 0.63727 0.44569 0.98663 0.0
H709 H 0.56185 0.5124 0.9206 0.0
H710 H 0.58652 0.49893 0.93504 0.0
C711 C 0.65039 0.43913 0.01025 0.0
C712 C 0.62493 0.46023 0.91427 0.0
H713 H 0.6153 0.5004 0.87333 0.0
C714 C 0.60902 0.44981 0.91132 0.0
C715 C 0.62731 0.47864 0.89971 0.0
C716 C 0.64407 0.4905 0.90336 0.0
C717 C 0.59531 0.45742 0.89536 0.0
C718 C 0.59763 0.47589 0.88178 0.0
C719 C 0.61362 0.48622 0.88349 0.0
C720 C 0.58339 0.48495 0.87029 0.0
C721 C 0.57831 0.44582 0.89526 0.0
C722 C 0.57368 0.48187 0.8285 0.0
C723 C 0.5596 0.48964 0.82008 0.0
C724 C 0.55501 0.50053 0.85337 0.0
C725 C 0.56506 0.50402 0.89435 0.0
C726 C 0.57916 0.49636 0.90262 0.0
H727 H 0.57829 0.43231 0.91343 0.0
H728 H 0.56923 0.45197 0.91376 0.0
H729 H 0.57404 0.44448 0.85725 0.0
H730 H 0.57685 0.47325 0.80283 0.0
H731 H 0.55211 0.48677 0.7883 0.0
H732 H 0.94594 0.66451 0.95037 0.0
H733 H 0.95297 0.63897 0.91478 0.0
H734 H 0.97607 0.62343 0.04943 0.0
H735 H 0.96888 0.64888 0.08544 0.0
H736 H 0.98322 0.63167 0.89958 0.0
H737 H 0.94757 0.57698 0.02017 0.0
H738 H 0.94427 0.59957 0.01876 0.0
H739 H 0.96119 0.59267 0.05339 0.0
C740 C 0.95246 0.6556 0.9725 0.0
C741 C 0.95688 0.65874 0.02076 0.0
C742 C 0.95643 0.64098 0.95211 0.0
C743 C 0.96487 0.62911 0.97951 0.0
C744 C 0.96918 0.63212 0.02787 0.0
H745 H 0.0158 0.54503 0.94245 0.0
H746 H 0.00306 0.56906 0.96635 0.0
C747 C 0.96511 0.64671 0.04843 0.0
C748 C 0.9699 0.61416 0.95676 0.0
H749 H 0.96865 0.56937 0.97184 0.0
C750 C 0.97985 0.61801 0.91498 0.0
C751 C 0.96538 0.59631 0.97654 0.0
C752 C 0.95387 0.59109 0.01938 0.0
C753 C 0.98608 0.60463 0.89399 0.0
C754 C 0.98213 0.58692 0.91508 0.0
C755 C 0.97171 0.58298 0.95579 0.0
C756 C 0.98991 0.57255 0.8986 0.0
C757 C 0.99744 0.60965 0.85078 0.0
C758 C 0.98681 0.5665 0.85226 0.0
C759 C 0.99417 0.55265 0.83831 0.0
C760 C 0.00466 0.54468 0.87065 0.0
C761 C 0.00777 0.55089 0.9167 0.0
C762 C 1.00046 0.56461 0.93052 0.0
H763 H 1.00139 0.62426 0.84367 0.0
H764 H 0.00868 0.60354 0.85633 0.0
H765 H 0.99086 0.60456 0.81807 0.0
H766 H 0.97854 0.57231 0.82723 0.0
H767 H 0.99155 0.54809 0.80267 0.0
H768 H 0.07446 0.20535 0.63181 0.0
H769 H 0.06406 0.17605 0.67274 0.0
H770 H 0.07318 0.15177 0.54427 0.0
H771 H 0.08415 0.18113 0.50325 0.0
H772 H 0.03645 0.15278 0.63954 0.0
H773 H 0.09284 0.12209 0.65534 0.0
H774 H 0.09385 0.14576 0.64385 0.0
H775 H 0.08865 0.13163 0.59561 0.0
C776 C 0.07471 0.19378 0.61259 0.0
C777 C 0.0802 0.19556 0.56428 0.0
C778 C 0.06861 0.17706 0.63594 0.0
C779 C 0.06794 0.1618 0.61158 0.0
C780 C 0.0738 0.16342 0.56384 0.0
H781 H 0.00666 0.05821 0.6791 0.0
H782 H 0.01809 0.08834 0.6446 0.0
C783 C 0.07992 0.18018 0.54036 0.0
C784 C 0.05998 0.14437 0.63518 0.0
H785 H 0.06715 0.10326 0.6761 0.0
C786 C 0.04315 0.14194 0.64769 0.0
C787 C 0.06883 0.13038 0.646 0.0
C788 C 0.08708 0.13256 0.63494 0.0
C789 C 0.03486 0.12578 0.67046 0.0
C790 C 0.04361 0.11166 0.68032 0.0
C791 C 0.06048 0.11414 0.66823 0.0
C792 C 0.03554 0.09417 0.70328 0.0
C793 C 0.01689 0.12401 0.6844 0.0
C794 C 0.04148 0.08759 0.74785 0.0
C795 C 0.03502 0.07041 0.7676 0.0
C796 C 0.02256 0.05946 0.74291 0.0
C797 C 0.01616 0.06635 0.69918 0.0
C798 C 0.02267 0.08356 0.67941 0.0
H799 H 0.01324 0.13718 0.68525 0.0
H800 H 0.00891 0.11666 0.65734 0.0
H801 H 0.01443 0.11648 0.72053 0.0
H802 H 0.0514 0.09562 0.76679 0.0
H803 H 0.04021 0.06553 0.80141 0.0
H804 H 0.32884 0.97112 0.69372 0.0
H805 H 0.34727 0.95968 0.7545 0.0
H806 H 0.38325 0.00816 0.72862 0.0
H807 H 0.36462 0.01993 0.6702 0.0
H808 H 0.37514 0.95196 0.73249 0.0
H809 H 0.38976 0.99922 0.8699 0.0
H810 H 0.37193 0.99922 0.83037 0.0
H811 H 0.39202 0.01192 0.81215 0.0
C812 C 0.3404 0.97961 0.70251 0.0
C813 C 0.34539 0.99635 0.67677 0.0
C814 C 0.35095 0.97301 0.73709 0.0
C815 C 0.36661 0.98308 0.74658 0.0
C816 C 0.37109 1.00026 0.72309 0.0
H817 H 0.45997 0.96948 0.72115 0.0
H818 H 0.42979 0.96325 0.72262 0.0
C819 C 0.36053 0.00689 0.68894 0.0
C820 C 0.37948 0.97486 0.77372 0.0
H821 H 0.41376 0.98679 0.84304 0.0
C822 C 0.3833 0.95924 0.75801 0.0
C823 C 0.38987 0.98383 0.80845 0.0
C824 C 0.3855 0.99935 0.83151 0.0
C825 C 0.3983 0.95377 0.77118 0.0
C826 C 0.40995 0.96452 0.79932 0.0
C827 C 0.40512 0.97874 0.82019 0.0
C828 C 0.42784 0.96337 0.80064 0.0
C829 C 0.40178 0.93699 0.75285 0.0
C830 C 0.43695 0.96517 0.84398 0.0
C831 C 0.45427 0.96923 0.84289 0.0
C832 C 0.46274 0.97132 0.79852 0.0
C833 C 0.45374 0.96773 0.75586 0.0
C834 C 0.43642 0.96404 0.75681 0.0
H835 H 0.39026 0.92675 0.75328 0.0
H836 H 0.40599 0.93983 0.71461 0.0
H837 H 0.41143 0.93148 0.77491 0.0
H838 H 0.43067 0.96471 0.87823 0.0
H839 H 0.46097 0.97186 0.87637 0.0
H840 H 0.4433 0.30674 0.39607 0.0
H841 H 0.44926 0.32943 0.45315 0.0
H842 H 0.45621 0.28943 0.5679 0.0
H843 H 0.45071 0.26666 0.5103 0.0
H844 H 0.43756 0.33616 0.53953 0.0
H845 H 0.50138 0.32123 0.56092 0.0
H846 H 0.48697 0.31167 0.51634 0.0
H847 H 0.48487 0.30314 0.57908 0.0
C848 C 0.44571 0.30272 0.43371 0.0
C849 C 0.44676 0.28502 0.44873 0.0
C850 C 0.44914 0.31569 0.4663 0.0
C851 C 0.45355 0.31116 0.51448 0.0
C852 C 0.45325 0.29325 0.53056 0.0
H853 H 0.47976 0.40167 0.69378 0.0
H854 H 0.46643 0.3724 0.6707 0.0
C855 C 0.45006 0.28028 0.49776 0.0
C856 C 0.46007 0.32549 0.54575 0.0
H857 H 0.49585 0.34546 0.59836 0.0
C858 C 0.45022 0.3381 0.55309 0.0
C859 C 0.47667 0.32802 0.56291 0.0
C860 C 0.48817 0.31541 0.55419 0.0
C861 C 0.45675 0.35361 0.57515 0.0
C862 C 0.47346 0.35631 0.59122 0.0
C863 C 0.48303 0.34327 0.5861 0.0
C864 C 0.48191 0.37343 0.60781 0.0
C865 C 0.44605 0.36743 0.57837 0.0
C866 C 0.49541 0.38335 0.58118 0.0
C867 C 0.50322 0.39985 0.5947 0.0
C868 C 0.49765 0.40683 0.63508 0.0
C869 C 0.4844 0.39663 0.6626 0.0
C870 C 0.47663 0.38001 0.64915 0.0
H871 H 0.43455 0.36475 0.55616 0.0
H872 H 0.44236 0.3675 0.61666 0.0
H873 H 0.45301 0.38087 0.56615 0.0
H874 H 0.49975 0.37845 0.54931 0.0
H875 H 0.51358 0.4072 0.57329 0.0
H876 H 0.18504 0.60108 0.55376 0.0
H877 H 0.15562 0.59824 0.57454 0.0
H878 H 0.1567 0.54737 0.65315 0.0
H879 H 0.18589 0.54994 0.63204 0.0
H880 H 0.12884 0.54924 0.58524 0.0
H881 H 0.13819 0.60127 0.71542 0.0
H882 H 0.14743 0.60675 0.65622 0.0
H883 H 0.15493 0.59084 0.69829 0.0
C884 C 0.17896 0.58924 0.57517 0.0
C885 C 0.18781 0.57577 0.59153 0.0
C886 C 0.16222 0.58771 0.58727 0.0
C887 C 0.15409 0.57267 0.6157 0.0
C888 C 0.16281 0.55911 0.63134 0.0
H889 H 0.07266 0.53475 0.79582 0.0
H890 H 0.09886 0.54846 0.75663 0.0
C891 C 0.1795 0.56066 0.61952 0.0
C892 C 0.13648 0.57082 0.62961 0.0
H893 H 0.11128 0.58452 0.70906 0.0
C894 C 0.12488 0.55715 0.6116 0.0
C895 C 0.13147 0.58115 0.66417 0.0
C896 C 0.1436 0.5958 0.68503 0.0
C897 C 0.1085 0.55305 0.62872 0.0
C898 C 0.10363 0.56297 0.66455 0.0
C899 C 0.11506 0.57708 0.68124 0.0
C900 C 0.08752 0.55722 0.68968 0.0
C901 C 0.09678 0.53749 0.6105 0.0
C902 C 0.07244 0.55815 0.66548 0.0
C903 C 0.05735 0.55036 0.68793 0.0
C904 C 0.05721 0.54141 0.73468 0.0
C905 C 0.07234 0.54138 0.7596 0.0
C906 C 0.08733 0.54927 0.73737 0.0
H907 H 0.10307 0.52998 0.58661 0.0
H908 H 0.09116 0.52826 0.6415 0.0
H909 H 0.08655 0.54234 0.58959 0.0
H910 H 0.07237 0.56435 0.62871 0.0
H911 H 0.0459 0.55058 0.6678 0.0
H912 H 0.9158 0.8337 0.95041 0.0
H913 H 0.9326 0.85816 0.90139 0.0
H914 H 0.96807 0.82489 0.87753 0.0
H915 H 0.95205 0.80082 0.9294 0.0
H916 H 0.98283 0.85292 0.91621 0.0
H917 H 0.94472 0.87538 0.76499 0.0
H918 H 0.93372 0.87391 0.82084 0.0
H919 H 0.93872 0.85411 0.79946 0.0
C920 C 0.927 0.83144 0.93392 0.0
C921 C 0.93272 0.81538 0.94493 0.0
C922 C 0.9365 0.84541 0.90521 0.0
C923 C 0.95166 0.8434 0.88578 0.0
C924 C 0.95645 0.82676 0.89229 0.0
H925 H 0.00762 0.94158 0.74355 0.0
H926 H 0.99592 0.90996 0.75806 0.0
C927 C 0.94712 0.8129 0.92167 0.0
C928 C 0.96367 0.85926 0.86648 0.0
H929 H 0.96662 0.89802 0.79406 0.0
C930 C 0.97941 0.86259 0.88862 0.0
C931 C 0.95937 0.87182 0.83018 0.0
C932 C 0.94326 0.86849 0.8022 0.0
C933 C 0.99057 0.87854 0.87743 0.0
C934 C 0.98566 0.89174 0.84431 0.0
C935 C 0.97032 0.88801 0.82007 0.0
C936 C 0.99565 0.90989 0.83626 0.0
C937 C 0.00741 0.88109 0.90166 0.0
C938 C 0.99998 0.92024 0.87549 0.0
C939 C 0.00699 0.93826 0.86723 0.0
C940 C 0.00936 0.9462 0.81964 0.0
C941 C 0.00586 0.93567 0.78061 0.0
C942 C 0.99914 0.91765 0.78885 0.0
H943 H 0.01147 0.86817 0.91064 0.0
H944 H 0.01696 0.88991 0.87834 0.0
H945 H 0.00666 0.88713 0.9362 0.0
H946 H 0.99702 0.91469 0.91233 0.0
H947 H 0.00931 0.94623 0.89774 0.0
H948 H 0.70062 0.0648 0.87436 0.0
H949 H 0.678 0.07072 0.81902 0.0
H950 H 0.65005 0.01858 0.86348 0.0
H951 H 0.6727 0.01243 0.9164 0.0
H952 H 0.64568 0.02653 0.77061 0.0
H953 H 0.63734 0.084 0.86975 0.0
H954 H 0.65676 0.08579 0.8392 0.0
H955 H 0.65163 0.06971 0.89062 0.0
C956 C 0.68973 0.05456 0.8714 0.0
C957 C 0.68836 0.03818 0.89959 0.0
C958 C 0.67679 0.05799 0.84016 0.0
C959 C 0.66215 0.04526 0.83789 0.0
C960 C 0.6612 0.02863 0.86442 0.0
H961 H 0.56248 0.03807 0.85348 0.0
H962 H 0.59259 0.04785 0.85461 0.0
C963 C 0.67419 0.02509 0.89469 0.0
C964 C 0.64713 0.04918 0.81139 0.0
H965 H 0.61598 0.07273 0.81831 0.0
C966 C 0.63925 0.03682 0.78026 0.0
C967 C 0.63888 0.06275 0.82379 0.0
C968 C 0.64648 0.07628 0.85785 0.0
C969 C 0.62268 0.03628 0.76585 0.0
C970 C 0.61404 0.0492 0.78078 0.0
C971 C 0.62258 0.06279 0.80728 0.0
C972 C 0.59568 0.04697 0.77727 0.0
C973 C 0.61426 0.02083 0.73892 0.0
C974 C 0.58724 0.04412 0.73318 0.0
C975 C 0.5701 0.03791 0.73296 0.0
C976 C 0.56113 0.03541 0.77641 0.0
C977 C 0.56923 0.04008 0.81957 0.0
C978 C 0.58642 0.04567 0.8201 0.0
H979 H 0.62187 0.0103 0.73886 0.0
H980 H 0.60206 0.01475 0.75539 0.0
H981 H 0.61219 0.02558 0.70059 0.0
H982 H 0.594 0.04568 0.69943 0.0
H983 H 0.56395 0.0344 0.69926 0.0
H984 H 0.54725 0.72831 0.11393 0.0
H985 H 0.54059 0.70573 0.05719 0.0
H986 H 0.59249 0.71141 0.02296 0.0
H987 H 0.59935 0.73412 0.08037 0.0
H988 H 0.54576 0.70216 0.96024 0.0
H989 H 0.58076 0.66022 0.08265 0.0
H990 H 0.57621 0.68088 0.09934 0.0
H991 H 0.5924 0.68095 0.05655 0.0
C992 C 0.55724 0.72525 0.09323 0.0
C993 C 0.57386 0.73289 0.10207 0.0
C994 C 0.5534 0.71224 0.06091 0.0
C995 C 0.56608 0.70661 0.03676 0.0
C996 C 0.58257 0.71529 0.04216 0.0
H997 H 0.54855 0.60464 0.90751 0.0
H998 H 0.56208 0.63455 0.92469 0.0
C999 C 0.58645 0.72828 0.07481 0.0
C1000 C 0.56193 0.69044 0.0106 0.0
H1001 H 0.56514 0.64663 0.02032 0.0
C1002 C 0.5502 0.69009 0.97279 0.0
C1003 C 0.56773 0.67467 0.02718 0.0
C1004 C 0.57987 0.67404 0.06885 0.0
C1005 C 0.54361 0.67423 0.95249 0.0
C1006 C 0.5488 0.65836 0.97079 0.0
C1007 C 0.56121 0.65888 0.00653 0.0
C1008 C 0.54037 0.64082 0.95705 0.0
C1009 C 0.53083 0.67445 0.91254 0.0
C1010 C 0.52375 0.63445 0.97009 0.0
C1011 C 0.51606 0.61729 0.96117 0.0
C1012 C 0.52486 0.60616 0.93901 0.0
C1013 C 0.54148 0.61273 0.92538 0.0
C1014 C 0.5492 0.62987 0.93468 0.0
H1015 H 0.53158 0.68796 0.89359 0.0
H1016 H 0.5324 0.66509 0.88555 0.0
H1017 H 0.51824 0.67024 0.92842 0.0
H1018 H 0.51686 0.64258 0.98844 0.0
H1019 H 0.50336 0.61259 0.97286 0.0
H1020 H 0.83955 0.45943 0.94868 0.0
H1021 H 0.86872 0.46265 0.92683 0.0
H1022 H 0.87065 0.41143 1.00224 0.0
H1023 H 0.84121 0.4079 0.02361 0.0
H1024 H 0.89637 0.46106 0.99431 0.0
H1025 H 0.88887 0.40987 0.86188 0.0
H1026 H 0.87167 0.41953 0.87945 0.0
H1027 H 0.8796 0.40373 0.92087 0.0
C1028 C 0.8461 0.44874 0.96023 0.0
C1029 C 0.83804 0.43335 0.98759 0.0
C1030 C 0.8628 0.45066 0.94799 0.0
C1031 C 0.87176 0.43722 0.96262 0.0
C1032 C 0.86386 0.42187 0.99024 0.0
H1033 H 0.98005 0.46258 0.91456 0.0
H1034 H 0.95358 0.44785 0.95199 0.0
C1035 C 0.84711 0.41995 1.00271 0.0
C1036 C 0.88945 0.43964 0.94901 0.0
H1037 H 0.91547 0.42721 0.86957 0.0
C1038 C 0.90067 0.45346 0.96772 0.0
C1039 C 0.89489 0.42972 0.91415 0.0
C1040 C 0.88319 0.41491 0.89254 0.0
C1041 C 0.91707 0.45813 0.95106 0.0
C1042 C 0.92238 0.4486 0.915 0.0
C1043 C 0.91135 0.43434 0.89756 0.0
C1044 C 0.93856 0.45488 0.89061 0.0
C1045 C 0.92834 0.47386 0.97003 0.0
C1046 C 0.93883 0.4631 0.84321 0.0
C1047 C 0.95383 0.47155 0.82191 0.0
C1048 C 0.96887 0.47182 0.84752 0.0
C1049 C 0.96867 0.4626 0.89393 0.0
C1050 C 0.95358 0.45425 0.91543 0.0
H1051 H 0.9217 0.48104 0.99386 0.0
H1052 H 0.93863 0.46924 0.99121 0.0
H1053 H 0.93391 0.48331 0.93941 0.0
H1054 H 0.92735 0.4637 0.82349 0.0
H1055 H 0.95356 0.47837 0.7859 0.0
H1056 H 0.04946 0.19143 0.25173 0.0
H1057 H 0.04666 0.16491 0.20792 0.0
H1058 H 0.09861 0.17816 0.17115 0.0
H1059 H 0.10151 0.20477 0.21494 0.0
H1060 H 0.052 0.16399 0.11092 0.0
H1061 H 0.09355 0.12582 0.21908 0.0
H1062 H 0.08644 0.14448 0.24099 0.0
H1063 H 0.10318 0.14808 0.19818 0.0
C1064 C 0.06033 0.18868 0.23454 0.0
C1065 C 0.07571 0.2003 0.2368 0.0
C1066 C 0.05872 0.17346 0.20961 0.0
C1067 C 0.07244 0.1694 0.18653 0.0
C1068 C 0.08791 0.18077 0.18948 0.0
H1069 H 0.08155 0.08761 0.9947 0.0
H1070 H 0.08659 0.11354 0.04183 0.0
C1071 C 0.08955 0.19601 0.21456 0.0
C1072 C 0.07025 0.15389 0.15708 0.0
H1073 H 0.08311 0.1147 0.14509 0.0
C1074 C 0.05876 0.15319 0.11856 0.0
C1075 C 0.07914 0.13981 0.1668 0.0
C1076 C 0.09117 0.13943 0.20876 0.0
C1077 C 0.05599 0.13892 0.08942 0.0
C1078 C 0.06477 0.12479 0.09937 0.0
C1079 C 0.0764 0.12554 0.13751 0.0
C1080 C 0.06176 0.10897 0.07111 0.0
C1081 C 0.04385 0.13921 0.04771 0.0
C1082 C 0.04618 0.09769 0.07228 0.0
C1083 C 0.04326 0.08289 0.04539 0.0
C1084 C 0.05586 0.07903 0.01669 0.0
C1085 C 0.07151 0.09031 0.01587 0.0
C1086 C 0.07445 0.10507 0.04304 0.0
H1087 H 0.04132 0.15277 0.03753 0.0
H1088 H 0.04858 0.13424 0.01536 0.0
H1089 H 0.03193 0.13041 0.05843 0.0
H1090 H 0.03626 0.10031 0.09414 0.0
H1091 H 0.03104 0.07458 0.04663 0.0
H1092 H 0.33647 1.00424 0.27944 0.0
H1093 H 0.35801 1.00516 0.21918 0.0
H1094 H 0.33015 0.03252 0.11322 0.0
H1095 H 0.30864 0.03205 0.17383 0.0
H1096 H 0.35534 0.99153 0.12643 0.0
H1097 H 0.37656 0.06479 0.11314 0.0
H1098 H 0.36382 0.05292 0.16241 0.0
H1099 H 0.35473 0.05714 0.10387 0.0
C1100 C 0.33496 0.0106 0.24345 0.0
C1101 C 0.3209 0.01827 0.23164 0.0
C1102 C 0.34724 0.01099 0.20895 0.0
C1103 C 0.3458 0.01912 0.16194 0.0
C1104 C 0.33162 0.02642 0.14954 0.0
H1105 H 0.41807 0.04082 0.92545 0.0
H1106 H 0.39289 0.03826 0.97383 0.0
C1107 C 0.31927 0.026 0.18407 0.0
C1108 C 0.35926 0.01996 0.12629 0.0
H1109 H 0.38985 0.04872 0.0629 0.0
C1110 C 0.36285 1.00403 0.11233 0.0
C1111 C 0.369 0.03629 0.10787 0.0
C1112 C 0.36598 0.05379 0.12273 0.0
C1113 C 0.37595 1.00396 0.08047 0.0
C1114 C 0.38599 0.02027 0.06301 0.0
C1115 C 0.38217 0.03623 0.07626 0.0
C1116 C 0.40089 0.0211 0.03254 0.0
C1117 C 0.37877 0.9864 0.06549 0.0
C1118 C 0.41381 0.0124 0.04949 0.0
C1119 C 0.42814 0.01376 0.02183 0.0
C1120 C 0.42998 0.02409 0.97692 0.0
C1121 C 0.41706 0.03285 0.96003 0.0
C1122 C 0.40266 0.03136 0.98757 0.0
H1123 H 0.36723 0.97619 0.06878 0.0
H1124 H 0.38325 0.98772 0.02753 0.0
H1125 H 0.38826 0.98156 0.0897 0.0
H1126 H 0.413 1.00485 0.08467 0.0
H1127 H 0.43799 0.00713 0.03626 0.0
H1128 H 0.4654 0.32505 0.11466 0.0
H1129 H 0.46885 0.35559 0.07735 0.0
H1130 H 0.46175 0.33632 0.93573 0.0
H1131 H 0.45744 0.3058 0.97274 0.0
H1132 H 0.49247 0.37277 0.01568 0.0
H1133 H 0.4313 0.37177 0.9262 0.0
H1134 H 0.43518 0.35435 0.97087 0.0
H1135 H 0.44137 0.35455 0.90879 0.0
C1136 C 0.46419 0.32726 0.07565 0.0
C1137 C 0.46111 0.31287 0.04682 0.0
C1138 C 0.4663 0.34477 0.05432 0.0
C1139 C 0.46533 0.34831 0.00372 0.0
C1140 C 0.46219 0.33399 0.97488 0.0
H1141 H 0.49163 0.44081 0.79863 0.0
H1142 H 0.48328 0.41101 0.83987 0.0
C1143 C 0.45998 0.31649 0.99615 0.0
C1144 C 0.46857 0.36694 0.98093 0.0
H1145 H 0.45282 0.39628 0.90067 0.0
C1146 C 0.48371 0.37795 0.99098 0.0
C1147 C 0.45714 0.37376 0.94859 0.0
C1148 C 0.44027 0.36305 0.93833 0.0
C1149 C 0.48791 0.39535 0.96869 0.0
C1150 C 0.47666 0.40199 0.93566 0.0
C1151 C 0.46145 0.39111 0.92589 0.0
C1152 C 0.48067 0.42012 0.91034 0.0
C1153 C 0.50457 0.4064 0.97961 0.0
C1154 C 0.48161 0.43512 0.9361 0.0
C1155 C 0.48633 0.4522 0.91262 0.0
C1156 C 0.49029 0.45459 0.86292 0.0
C1157 C 0.48886 0.43949 0.83699 0.0
C1158 C 0.48402 0.42243 0.86044 0.0
H1159 H 0.51294 0.39837 0.99951 0.0
H1160 H 0.51073 0.41288 0.94552 0.0
H1161 H 0.50273 0.41703 1.00225 0.0
H1162 H 0.47892 0.43361 0.97456 0.0
H1163 H 0.4873 0.46349 0.93376 0.0
H1164 H 0.21199 0.56994 0.21872 0.0
H1165 H 0.18808 0.55807 0.16991 0.0
H1166 H 0.15567 0.55748 0.2908 0.0
H1167 H 0.17963 0.5697 0.34004 0.0
H1168 H 0.16565 0.52453 0.19756 0.0
H1169 H 0.13373 0.58264 0.17112 0.0
H1170 H 0.15549 0.5849 0.18685 0.0
H1171 H 0.14 0.57614 0.23189 0.0
C1172 C 0.19976 0.56766 0.23474 0.0
C1173 C 0.19771 0.5709 0.28322 0.0
C1174 C 0.18613 0.56075 0.20686 0.0
C1175 C 0.17013 0.55703 0.22664 0.0
C1176 C 0.16792 0.56046 0.27475 0.0
H1177 H 0.07582 0.5135 0.09126 0.0
H1178 H 0.09712 0.52604 0.14814 0.0
C1179 C 0.18161 0.56731 0.30288 0.0
C1180 C 0.156 0.5487 0.19733 0.0
H1181 H 0.12099 0.55658 0.13675 0.0
C1182 C 0.15584 0.53149 0.18437 0.0
C1183 C 0.14321 0.5578 0.18057 0.0
C1184 C 0.14304 0.57644 0.19292 0.0
C1185 C 0.14325 0.52313 0.15473 0.0
C1186 C 0.1307 0.53243 0.13661 0.0
C1187 C 0.13066 0.54951 0.15051 0.0
C1188 C 0.1178 0.52481 0.10216 0.0
C1189 C 0.14342 0.50436 0.14351 0.0
C1190 C 0.12235 0.52018 0.05718 0.0
C1191 C 0.11023 0.513 0.02466 0.0
C1192 C 0.09328 0.51049 0.03625 0.0
C1193 C 0.08875 0.51537 0.08111 0.0
C1194 C 0.1009 0.52248 0.11371 0.0
H1195 H 0.15061 0.49743 0.17111 0.0
H1196 H 0.13063 0.49654 0.14174 0.0
H1197 H 0.14941 0.50466 0.10781 0.0
H1198 H 0.13529 0.52228 0.04696 0.0
H1199 H 0.11412 0.50974 0.99003 0.0
H1200 H 0.96605 0.81644 0.31564 0.0
H1201 H 0.96994 0.84199 0.36354 0.0
H1202 H 0.94382 0.80921 0.48296 0.0
H1203 H 0.94026 0.78342 0.43534 0.0
H1204 H 0.94721 0.85795 0.39882 0.0
H1205 H 0.98402 0.83334 0.55232 0.0
H1206 H 0.98025 0.82229 0.49743 0.0
H1207 H 0.96447 0.81907 0.54324 0.0
C1208 C 0.9612 0.81465 0.35222 0.0
C1209 C 0.95285 0.79791 0.37175 0.0
C1210 C 0.96345 0.82927 0.37961 0.0
C1211 C 0.95737 0.82755 0.42718 0.0
C1212 C 0.94902 0.81083 0.44686 0.0
H1213 H 0.9561 0.90733 0.63216 0.0
H1214 H 0.95149 0.88 0.59107 0.0
C1215 C 0.94692 0.7961 0.41957 0.0
C1216 C 0.95926 0.8435 0.45496 0.0
H1217 H 0.97509 0.86059 0.55947 0.0
C1218 C 0.95335 0.8585 0.4339 0.0
C1219 C 0.96721 0.84427 0.50089 0.0
C1220 C 0.97449 0.82895 0.52466 0.0
C1221 C 0.95515 0.87417 0.45733 0.0
C1222 C 0.96323 0.87499 0.50295 0.0
C1223 C 0.96889 0.85993 0.52449 0.0
C1224 C 0.96625 0.89151 0.52825 0.0
C1225 C 0.94822 0.88968 0.43321 0.0
C1226 C 0.97631 0.90699 0.507 0.0
C1227 C 0.97906 0.92261 0.53048 0.0
C1228 C 0.97185 0.9231 0.57591 0.0
C1229 C 0.96197 0.90745 0.59745 0.0
C1230 C 0.95925 0.89181 0.57392 0.0
H1231 H 0.93874 0.88548 0.40525 0.0
H1232 H 0.94254 0.89649 0.46028 0.0
H1233 H 0.95845 0.89942 0.41503 0.0
H1234 H 0.98216 0.90697 0.4723 0.0
H1235 H 0.98703 0.93424 0.51325 0.0
H1236 H 0.6992 0.96746 0.35265 0.0
H1237 H 0.67474 0.96356 0.4046 0.0
H1238 H 0.67399 0.01956 0.37968 0.0
H1239 H 0.69839 0.02356 0.3277 0.0
H1240 H 0.66926 0.97834 0.48842 0.0
H1241 H 0.62704 0.99752 0.34181 0.0
H1242 H 0.64724 0.9928 0.32969 0.0
H1243 H 0.6453 0.01404 0.3487 0.0
C1244 C 0.69393 0.97898 0.35861 0.0
C1245 C 0.70069 0.9958 0.33568 0.0
C1246 C 0.6799 0.97671 0.38812 0.0
C1247 C 0.67231 0.99119 0.39522 0.0
C1248 C 0.67934 0.0081 0.37367 0.0
H1249 H 0.58862 1.0053 0.56501 0.0
H1250 H 0.61353 0.00925 0.51519 0.0
C1251 C 0.69332 0.01037 0.34405 0.0
C1252 C 0.65708 0.98863 0.42525 0.0
H1253 H 0.61657 0.99398 0.42221 0.0
C1254 C 0.65772 0.98167 0.47388 0.0
C1255 C 0.642 0.99296 0.40621 0.0
C1256 C 0.64025 0.99959 0.35363 0.0
C1257 C 0.64377 0.97923 0.50416 0.0
C1258 C 0.62878 0.9837 0.48519 0.0
C1259 C 0.62812 0.99064 0.43664 0.0
C1260 C 0.6136 0.98118 0.51517 0.0
C1261 C 0.64523 0.97217 0.55648 0.0
C1262 C 0.60525 0.96407 0.53108 0.0
C1263 C 0.59084 0.96172 0.55898 0.0
C1264 C 0.5845 0.97646 0.5717 0.0
C1265 C 0.59293 0.99361 0.55539 0.0
C1266 C 0.60726 0.99593 0.52719 0.0
H1267 H 0.65837 0.97264 0.56789 0.0
H1268 H 0.6393 0.97989 0.58068 0.0
H1269 H 0.63867 0.95816 0.56141 0.0
H1270 H 0.6098 0.9525 0.52151 0.0
H1271 H 0.58457 0.94832 0.57005 0.0
H1272 H 0.56605 0.68544 0.47532 0.0
H1273 H 0.56186 0.65526 0.51559 0.0
H1274 H 0.56721 0.67627 0.65506 0.0
H1275 H 0.57193 0.70653 0.61531 0.0
H1276 H 0.58375 0.63926 0.59316 0.0
H1277 H 0.51971 0.64221 0.65039 0.0
H1278 H 0.53007 0.65669 0.60074 0.0
H1279 H 0.53583 0.66065 0.66216 0.0
C1280 C 0.56666 0.68371 0.51454 0.0
C1281 C 0.56926 0.6985 0.542 0.0
C1282 C 0.56418 0.66642 0.53746 0.0
C1283 C 0.5641 0.66357 0.58822 0.0
C1284 C 0.56707 0.67822 0.61579 0.0
H1285 H 0.5343 0.57125 0.79167 0.0
H1286 H 0.54419 0.60099 0.7525 0.0
C1287 C 0.56966 0.69551 0.59296 0.0
C1288 C 0.56027 0.64528 0.61246 0.0
H1289 H 0.53018 0.6165 0.67738 0.0
C1290 C 0.57205 0.63421 0.61158 0.0
C1291 C 0.54502 0.63883 0.63644 0.0
C1292 C 0.53182 0.6501 0.63744 0.0
C1293 C 0.56908 0.61689 0.63501 0.0
C1294 C 0.55374 0.61035 0.65882 0.0
C1295 C 0.54196 0.62148 0.65933 0.0
C1296 C 0.54949 0.59208 0.68365 0.0
C1297 C 0.58258 0.60596 0.63508 0.0
C1298 C 0.54939 0.57706 0.65832 0.0
C1299 C 0.54393 0.55995 0.68093 0.0
C1300 C 0.53815 0.55756 0.72899 0.0
C1301 C 0.53861 0.5726 0.75454 0.0
C1302 C 0.54425 0.58964 0.73216 0.0
H1303 H 0.59498 0.61449 0.62863 0.0
H1304 H 0.58295 0.59767 0.67001 0.0
H1305 H 0.58013 0.59704 0.6055 0.0
H1306 H 0.55297 0.57857 0.62054 0.0
H1307 H 0.54355 0.54867 0.66008 0.0
H1308 H 0.83042 0.41811 0.33862 0.0
H1309 H 0.85357 0.43053 0.38976 0.0
H1310 H 0.85854 0.48075 0.30296 0.0
H1311 H 0.83495 0.46877 0.25315 0.0
H1312 H 0.88631 0.44593 0.37209 0.0
H1313 H 0.85189 0.49467 0.43796 0.0
H1314 H 0.84196 0.47659 0.40437 0.0
H1315 H 0.85378 0.49633 0.37317 0.0
C1316 C 0.8364 0.43181 0.33042 0.0
C1317 C 0.83063 0.44248 0.29206 0.0
C1318 C 0.84971 0.43885 0.35952 0.0
C1319 C 0.85752 0.45669 0.35089 0.0
C1320 C 0.85243 0.46707 0.311 0.0
H1321 H 0.93563 0.52433 0.50056 0.0
H1322 H 0.91496 0.51165 0.44228 0.0
C1323 C 0.83907 0.46009 0.28207 0.0
C1324 C 0.87059 0.46457 0.38457 0.0
H1325 H 0.88013 0.49723 0.46154 0.0
C1326 C 0.88495 0.45713 0.39171 0.0
C1327 C 0.86875 0.47912 0.4104 0.0
C1328 C 0.85321 0.48706 0.40655 0.0
C1329 C 0.89764 0.46402 0.42341 0.0
C1330 C 0.89582 0.47863 0.44888 0.0
C1331 C 0.88151 0.4861 0.44168 0.0
C1332 C 0.90849 0.48617 0.48399 0.0
C1333 C 0.91298 0.4558 0.429 0.0
C1334 C 0.91149 0.47613 0.5271 0.0
C1335 C 0.92313 0.48339 0.5608 0.0
C1336 C 0.93204 0.50088 0.55206 0.0
C1337 C 0.92889 0.51093 0.50884 0.0
C1338 C 0.91717 0.50366 0.47529 0.0
H1339 H 0.91413 0.44738 0.39923 0.0
H1340 H 0.92432 0.46622 0.42975 0.0
H1341 H 0.91235 0.44731 0.46387 0.0
H1342 H 0.90466 0.46272 0.53498 0.0
H1343 H 0.92496 0.47537 0.59406 0.0
loop_
_geom_bond_atom_site_label_1
_geom_bond_atom_site_label_2
_geom_bond_distance
_geom_bond_site_symmetry_2
_ccdc_geom_bond_type
C0 C1 1.264 . S
C0 C5 1.479 . S
C0 C10 1.465 . S
C1 C0 1.264 . S
C1 C3 1.339 . S
C1 H28 0.931 . S
C2 C3 1.395 . S
C2 C4 1.320 . S
C3 C1 1.339 . S
C3 C2 1.395 . S
C3 H29 0.929 . S
C4 C2 1.320 . S
C4 C5 1.405 . S
C4 H30 0.930 . S
C5 C0 1.479 . S
C5 C4 1.405 . S
C5 H31 0.931 . S
U6 O7 2.454 . S
U6 O8 2.458 1_554 S
U6 C9 2.984 . S
U6 C10 2.847 . S
U6 C23 2.882 1_554 S
U6 O24 2.441 . S
U6 O25 2.420 . S
U6 O26 2.455 1_554 S
U6 O27 2.449 . S
O7 U6 2.454 . S
O7 C9 1.353 . S
O8 U6 2.458 1_556 S
O8 C9 1.286 1_556 S
C9 U6 2.984 . S
C9 O7 1.353 . S
C9 O8 1.286 1_554 S
C9 C11 1.363 . S
C10 C0 1.465 . S
C10 U6 2.847 . S
C10 O24 1.249 . S
C10 O25 1.202 . S
C11 C9 1.363 . S
C11 C13 1.408 . S
C11 C16 1.342 1_554 S
C12 C13 1.310 . S
C12 C15 1.461 1_554 S
C12 H32 0.932 . S
C13 C11 1.408 . S
C13 C12 1.310 . S
C13 H33 0.930 . S
C14 C15 1.474 . S
C14 C16 1.285 . S
C14 H34 0.929 . S
C15 C12 1.461 1_556 S
C15 C14 1.474 . S
C16 C11 1.342 1_556 S
C16 C14 1.285 . S
C16 H35 0.930 . S
C17 C20 1.424 . S
C17 C22 1.245 . S
C17 C23 1.428 . S
C18 C21 1.260 . S
C18 C22 1.477 . S
C18 H36 0.932 . S
C19 C20 1.384 . S
C19 C21 1.479 . S
C19 H37 0.929 . S
C20 C17 1.424 . S
C20 C19 1.384 . S
C20 H38 0.928 . S
C21 C18 1.260 . S
C21 C19 1.479 . S
C22 C17 1.245 . S
C22 C18 1.477 . S
C22 H39 0.932 . S
C23 U6 2.882 1_556 S
C23 C17 1.428 . S
C23 O26 1.301 . S
C23 O27 1.282 1_556 S
O24 U6 2.441 . S
O24 C10 1.249 . S
O25 U6 2.420 . S
O25 C10 1.202 . S
O26 U6 2.455 1_556 S
O26 C23 1.301 . S
O27 U6 2.449 . S
O27 C23 1.282 1_554 S
H28 C1 0.931 . S
H29 C3 0.929 . S
H30 C4 0.930 . S
H31 C5 0.931 . S
H32 C12 0.932 . S
H33 C13 0.930 . S
H34 C14 0.929 . S
H35 C16 0.930 . S
H36 C18 0.932 . S
H37 C19 0.929 . S
H38 C20 0.928 . S
H39 C22 0.932 . S
C40 C41 1.264 . S
C40 C45 1.479 . S
C40 C50 1.465 . S
C41 C40 1.264 . S
C41 C43 1.339 . S
C41 H68 0.931 . S
C42 C43 1.395 . S
C42 C44 1.320 . S
C43 C41 1.339 . S
C43 C42 1.395 . S
C43 H69 0.929 . S
C44 C42 1.320 . S
C44 C45 1.405 . S
C44 H70 0.930 . S
C45 C40 1.479 . S
C45 C44 1.405 . S
C45 H71 0.931 . S
U46 O47 2.454 . S
U46 O48 2.458 1_554 S
U46 C49 2.984 . S
U46 C50 2.847 . S
U46 C63 2.882 1_554 S
U46 O64 2.441 . S
U46 O65 2.420 . S
U46 O66 2.455 1_554 S
U46 O67 2.449 . S
O47 U46 2.454 . S
O47 C49 1.353 . S
O48 U46 2.458 1_556 S
O48 C49 1.286 1_556 S
C49 U46 2.984 . S
C49 O47 1.353 . S
C49 O48 1.286 1_554 S
C49 C51 1.363 . S
C50 C40 1.465 . S
C50 U46 2.847 . S
C50 O64 1.249 . S
C50 O65 1.202 . S
C51 C49 1.363 . S
C51 C53 1.408 . S
C51 C56 1.342 1_554 S
C52 C53 1.310 . S
C52 C55 1.461 1_554 S
C52 H72 0.932 . S
C53 C51 1.408 . S
C53 C52 1.310 . S
C53 H73 0.930 . S
C54 C55 1.474 . S
C54 C56 1.285 . S
C54 H74 0.929 . S
C55 C52 1.461 1_556 S
C55 C54 1.474 . S
C56 C51 1.342 1_556 S
C56 C54 1.285 . S
C56 H75 0.930 . S
C57 C60 1.424 . S
C57 C62 1.245 . S
C57 C63 1.428 . S
C58 C61 1.260 . S
C58 C62 1.477 . S
C58 H76 0.932 . S
C59 C60 1.384 . S
C59 C61 1.479 . S
C59 H77 0.929 . S
C60 C57 1.424 . S
C60 C59 1.384 . S
C60 H78 0.928 . S
C61 C58 1.260 . S
C61 C59 1.479 . S
C62 C57 1.245 . S
C62 C58 1.477 . S
C62 H79 0.932 . S
C63 U46 2.882 1_556 S
C63 C57 1.428 . S
C63 O66 1.301 . S
C63 O67 1.282 1_556 S
O64 U46 2.441 . S
O64 C50 1.249 . S
O65 U46 2.420 . S
O65 C50 1.202 . S
O66 U46 2.455 1_556 S
O66 C63 1.301 . S
O67 U46 2.449 . S
O67 C63 1.282 1_554 S
H68 C41 0.931 . S
H69 C43 0.929 . S
H70 C44 0.930 . S
H71 C45 0.931 . S
H72 C52 0.932 . S
H73 C53 0.930 . S
H74 C54 0.929 . S
H75 C56 0.930 . S
H76 C58 0.932 . S
H77 C59 0.929 . S
H78 C60 0.928 . S
H79 C62 0.932 . S
C80 C81 1.264 . S
C80 C85 1.479 . S
C80 C90 1.465 . S
C81 C80 1.264 . S
C81 C83 1.339 . S
C81 H108 0.931 . S
C82 C83 1.395 . S
C82 C84 1.320 . S
C83 C81 1.339 . S
C83 C82 1.395 . S
C83 H109 0.929 . S
C84 C82 1.320 . S
C84 C85 1.405 . S
C84 H110 0.919 1_545 S
C85 C80 1.479 . S
C85 C84 1.405 . S
C85 H111 0.931 . S
U86 O87 2.454 . S
U86 O88 2.458 1_554 S
U86 C89 2.984 1_554 S
U86 C90 2.847 . S
U86 C103 2.882 1_554 S
U86 O104 2.441 . S
U86 O105 2.420 . S
U86 O106 2.455 1_554 S
U86 O107 2.449 1_554 S
O87 U86 2.454 . S
O87 C89 1.353 1_554 S
O88 U86 2.458 1_556 S
O88 C89 1.286 . S
C89 U86 2.984 1_556 S
C89 O87 1.353 1_556 S
C89 O88 1.286 . S
C89 C91 1.363 . S
C90 C80 1.465 . S
C90 U86 2.847 . S
C90 O104 1.249 . S
C90 O105 1.202 . S
C91 C89 1.363 . S
C91 C93 1.408 1_556 S
C91 C96 1.342 . S
C92 C93 1.310 1_556 S
C92 C95 1.461 . S
C92 H112 0.940 1_556 S
C93 C91 1.408 1_554 S
C93 C92 1.310 1_554 S
C93 H113 0.930 . S
C94 C95 1.475 1_565 S
C94 C96 1.283 1_565 S
C94 H114 0.932 . S
C95 C92 1.461 . S
C95 C94 1.475 1_545 S
C96 C91 1.342 . S
C96 C94 1.283 1_545 S
C96 H115 0.930 . S
C97 C100 1.424 . S
C97 C102 1.245 . S
C97 C103 1.428 . S
C98 C101 1.260 . S
C98 C102 1.477 . S
C98 H116 0.932 . S
C99 C100 1.384 . S
C99 C101 1.479 . S
C99 H117 0.929 . S
C100 C97 1.424 . S
C100 C99 1.384 . S
C100 H118 0.928 . S
C101 C98 1.260 . S
C101 C99 1.479 . S
C102 C97 1.245 . S
C102 C98 1.477 . S
C102 H119 0.932 . S
C103 U86 2.882 1_556 S
C103 C97 1.428 . S
C103 O106 1.301 . S
C103 O107 1.282 . S
O104 U86 2.441 . S
O104 C90 1.249 . S
O105 U86 2.420 . S
O105 C90 1.202 . S
O106 U86 2.455 1_556 S
O106 C103 1.301 . S
O107 U86 2.449 1_556 S
O107 C103 1.282 . S
H108 C81 0.931 . S
H109 C83 0.929 . S
H110 C84 0.919 1_565 S
H111 C85 0.931 . S
H112 C92 0.940 1_554 S
H113 C93 0.930 . S
H114 C94 0.932 . S
H115 C96 0.930 . S
H116 C98 0.932 . S
H117 C99 0.929 . S
H118 C100 0.928 . S
H119 C102 0.932 . S
C120 C121 1.264 . S
C120 C125 1.479 . S
C120 C130 1.465 . S
C121 C120 1.264 . S
C121 C123 1.339 . S
C121 H148 0.931 . S
C122 C123 1.395 . S
C122 C124 1.320 . S
C123 C121 1.339 . S
C123 C122 1.395 . S
C123 H149 0.929 . S
C124 C122 1.320 . S
C124 C125 1.405 . S
C124 H150 0.930 . S
C125 C120 1.479 . S
C125 C124 1.405 . S
C125 H151 0.931 . S
U126 O127 2.454 . S
U126 O128 2.458 . S
U126 C129 2.984 . S
U126 C130 2.847 . S
U126 C143 2.882 . S
U126 O144 2.441 . S
U126 O145 2.420 . S
U126 O146 2.455 . S
U126 O147 2.449 . S
O127 U126 2.454 . S
O127 C129 1.353 . S
O128 U126 2.458 . S
O128 C129 1.286 . S
C129 U126 2.984 . S
C129 O127 1.353 . S
C129 O128 1.286 . S
C129 C131 1.363 . S
C130 C120 1.465 . S
C130 U126 2.847 . S
C130 O144 1.249 . S
C130 O145 1.202 . S
C131 C129 1.363 . S
C131 C133 1.408 . S
C131 C136 1.342 . S
C132 C133 1.310 . S
C132 C135 1.461 . S
C132 H152 0.932 . S
C133 C131 1.408 . S
C133 C132 1.310 . S
C133 H153 0.930 . S
C134 C135 1.474 . S
C134 C136 1.285 . S
C134 H154 0.929 . S
C135 C132 1.461 . S
C135 C134 1.474 . S
C136 C131 1.342 . S
C136 C134 1.285 . S
C136 H155 0.930 . S
C137 C140 1.424 . S
C137 C142 1.245 . S
C137 C143 1.428 . S
C138 C141 1.260 . S
C138 C142 1.477 . S
C138 H156 0.932 . S
C139 C140 1.384 . S
C139 C141 1.479 . S
C139 H157 0.929 . S
C140 C137 1.424 . S
C140 C139 1.384 . S
C140 H158 0.928 . S
C141 C138 1.260 . S
C141 C139 1.479 . S
C142 C137 1.245 . S
C142 C138 1.477 . S
C142 H159 0.932 . S
C143 U126 2.882 . S
C143 C137 1.428 . S
C143 O146 1.301 . S
C143 O147 1.282 . S
O144 U126 2.441 . S
O144 C130 1.249 . S
O145 U126 2.420 . S
O145 C130 1.202 . S
O146 U126 2.455 . S
O146 C143 1.301 . S
O147 U126 2.449 . S
O147 C143 1.282 . S
H148 C121 0.931 . S
H149 C123 0.929 . S
H150 C124 0.930 . S
H151 C125 0.931 . S
H152 C132 0.932 . S
H153 C133 0.930 . S
H154 C134 0.929 . S
H155 C136 0.930 . S
H156 C138 0.932 . S
H157 C139 0.929 . S
H158 C140 0.928 . S
H159 C142 0.932 . S
C160 C161 1.264 . S
C160 C165 1.479 . S
C160 C170 1.465 . S
C161 C160 1.264 . S
C161 C163 1.339 . S
C161 H188 0.931 . S
C162 C163 1.395 . S
C162 C164 1.320 . S
C163 C161 1.339 . S
C163 C162 1.395 . S
C163 H189 0.929 . S
C164 C162 1.320 . S
C164 C165 1.405 . S
C164 H190 0.930 . S
C165 C160 1.479 . S
C165 C164 1.405 . S
C165 H191 0.931 . S
U166 O167 2.454 . S
U166 O168 2.458 . S
U166 C169 2.984 . S
U166 C170 2.847 . S
U166 C183 2.882 . S
U166 O184 2.441 . S
U166 O185 2.420 . S
U166 O186 2.455 . S
U166 O187 2.449 . S
O167 U166 2.454 . S
O167 C169 1.353 . S
O168 U166 2.458 . S
O168 C169 1.286 . S
C169 U166 2.984 . S
C169 O167 1.353 . S
C169 O168 1.286 . S
C169 C171 1.363 . S
C170 C160 1.465 . S
C170 U166 2.847 . S
C170 O184 1.249 . S
C170 O185 1.202 . S
C171 C169 1.363 . S
C171 C173 1.408 . S
C171 C176 1.342 . S
C172 C173 1.310 . S
C172 C175 1.461 . S
C172 H192 0.932 . S
C173 C171 1.408 . S
C173 C172 1.310 . S
C173 H193 0.930 . S
C174 C175 1.474 . S
C174 C176 1.285 . S
C174 H194 0.929 . S
C175 C172 1.461 . S
C175 C174 1.474 . S
C176 C171 1.342 . S
C176 C174 1.285 . S
C176 H195 0.930 . S
C177 C180 1.424 . S
C177 C182 1.245 . S
C177 C183 1.428 . S
C178 C181 1.260 . S
C178 C182 1.477 . S
C178 H196 0.932 . S
C179 C180 1.384 . S
C179 C181 1.479 . S
C179 H197 0.929 . S
C180 C177 1.424 . S
C180 C179 1.384 . S
C180 H198 0.928 . S
C181 C178 1.260 . S
C181 C179 1.479 . S
C182 C177 1.245 . S
C182 C178 1.477 . S
C182 H199 0.932 . S
C183 U166 2.882 . S
C183 C177 1.428 . S
C183 O186 1.301 . S
C183 O187 1.282 . S
O184 U166 2.441 . S
O184 C170 1.249 . S
O185 U166 2.420 . S
O185 C170 1.202 . S
O186 U166 2.455 . S
O186 C183 1.301 . S
O187 U166 2.449 . S
O187 C183 1.282 . S
H188 C161 0.931 . S
H189 C163 0.929 . S
H190 C164 0.930 . S
H191 C165 0.931 . S
H192 C172 0.932 . S
H193 C173 0.930 . S
H194 C174 0.929 . S
H195 C176 0.930 . S
H196 C178 0.932 . S
H197 C179 0.929 . S
H198 C180 0.928 . S
H199 C182 0.932 . S
C200 C201 1.264 . S
C200 C205 1.479 . S
C200 C210 1.465 . S
C201 C200 1.264 . S
C201 C203 1.339 . S
C201 H228 0.931 . S
C202 C203 1.395 . S
C202 C204 1.320 . S
C203 C201 1.339 . S
C203 C202 1.395 . S
C203 H229 0.929 . S
C204 C202 1.320 . S
C204 C205 1.405 . S
C204 H230 0.930 . S
C205 C200 1.479 . S
C205 C204 1.405 . S
C205 H231 0.931 . S
U206 O207 2.454 . S
U206 O208 2.458 . S
U206 C209 2.984 . S
U206 C210 2.847 . S
U206 C223 2.882 . S
U206 O224 2.441 . S
U206 O225 2.420 . S
U206 O226 2.455 . S
U206 O227 2.449 . S
O207 U206 2.454 . S
O207 C209 1.353 . S
O208 U206 2.458 . S
O208 C209 1.286 . S
C209 U206 2.984 . S
C209 O207 1.353 . S
C209 O208 1.286 . S
C209 C211 1.363 . S
C210 C200 1.465 . S
C210 U206 2.847 . S
C210 O224 1.249 . S
C210 O225 1.202 . S
C211 C209 1.363 . S
C211 C213 1.408 . S
C211 C216 1.342 . S
C212 C213 1.310 . S
C212 C215 1.461 . S
C212 H232 0.932 . S
C213 C211 1.408 . S
C213 C212 1.310 . S
C213 H233 0.930 . S
C214 C215 1.474 . S
C214 C216 1.285 . S
C214 H234 0.929 . S
C215 C212 1.461 . S
C215 C214 1.474 . S
C216 C211 1.342 . S
C216 C214 1.285 . S
C216 H235 0.930 . S
C217 C220 1.424 . S
C217 C222 1.245 . S
C217 C223 1.428 . S
C218 C221 1.260 . S
C218 C222 1.477 . S
C218 H236 0.932 . S
C219 C220 1.384 . S
C219 C221 1.479 . S
C219 H237 0.929 . S
C220 C217 1.424 . S
C220 C219 1.384 . S
C220 H238 0.928 . S
C221 C218 1.260 . S
C221 C219 1.479 . S
C222 C217 1.245 . S
C222 C218 1.477 . S
C222 H239 0.932 . S
C223 U206 2.882 . S
C223 C217 1.428 . S
C223 O226 1.301 . S
C223 O227 1.282 . S
O224 U206 2.441 . S
O224 C210 1.249 . S
O225 U206 2.420 . S
O225 C210 1.202 . S
O226 U206 2.455 . S
O226 C223 1.301 . S
O227 U206 2.449 . S
O227 C223 1.282 . S
H228 C201 0.931 . S
H229 C203 0.929 . S
H230 C204 0.930 . S
H231 C205 0.931 . S
H232 C212 0.932 . S
H233 C213 0.930 . S
H234 C214 0.929 . S
H235 C216 0.930 . S
H236 C218 0.932 . S
H237 C219 0.929 . S
H238 C220 0.928 . S
H239 C222 0.932 . S
C240 C241 1.264 . S
C240 C245 1.479 . S
C240 C250 1.465 . S
C241 C240 1.264 . S
C241 C243 1.339 . S
C241 H268 0.931 . S
C242 C243 1.395 . S
C242 C244 1.320 . S
C243 C241 1.339 . S
C243 C242 1.395 . S
C243 H269 0.929 . S
C244 C242 1.320 . S
C244 C245 1.405 . S
C244 H270 0.925 1_545 S
C245 C240 1.479 . S
C245 C244 1.405 . S
C245 H271 0.931 . S
U246 O247 2.454 . S
U246 O248 2.458 . S
U246 C249 2.984 . S
U246 C250 2.847 . S
U246 C263 2.882 . S
U246 O264 2.441 . S
U246 O265 2.420 . S
U246 O266 2.455 . S
U246 O267 2.449 . S
O247 U246 2.454 . S
O247 C249 1.353 . S
O248 U246 2.458 . S
O248 C249 1.286 . S
C249 U246 2.984 . S
C249 O247 1.353 . S
C249 O248 1.286 . S
C249 C251 1.363 . S
C250 C240 1.465 . S
C250 U246 2.847 . S
C250 O264 1.249 . S
C250 O265 1.202 . S
C251 C249 1.363 . S
C251 C253 1.408 . S
C251 C256 1.342 . S
C252 C253 1.310 . S
C252 C255 1.459 . S
C252 H272 0.932 . S
C253 C251 1.408 . S
C253 C252 1.310 . S
C253 H273 0.930 . S
C254 C255 1.473 1_565 S
C254 C256 1.285 1_565 S
C254 H274 0.930 . S
C255 C252 1.459 . S
C255 C254 1.473 1_545 S
C256 C251 1.342 . S
C256 C254 1.285 1_545 S
C256 H275 0.937 . S
C257 C260 1.424 . S
C257 C262 1.245 . S
C257 C263 1.428 . S
C258 C261 1.260 . S
C258 C262 1.477 . S
C258 H276 0.932 . S
C259 C260 1.384 . S
C259 C261 1.479 . S
C259 H277 0.929 . S
C260 C257 1.424 . S
C260 C259 1.384 . S
C260 H278 0.928 . S
C261 C258 1.260 . S
C261 C259 1.479 . S
C262 C257 1.245 . S
C262 C258 1.477 . S
C262 H279 0.932 . S
C263 U246 2.882 . S
C263 C257 1.428 . S
C263 O266 1.301 . S
C263 O267 1.282 . S
O264 U246 2.441 . S
O264 C250 1.249 . S
O265 U246 2.420 . S
O265 C250 1.202 . S
O266 U246 2.455 . S
O266 C263 1.301 . S
O267 U246 2.449 . S
O267 C263 1.282 . S
H268 C241 0.931 . S
H269 C243 0.929 . S
H270 C244 0.925 1_565 S
H271 C245 0.931 . S
H272 C252 0.932 . S
H273 C253 0.930 . S
H274 C254 0.930 . S
H275 C256 0.937 . S
H276 C258 0.932 . S
H277 C259 0.929 . S
H278 C260 0.928 . S
H279 C262 0.932 . S
C280 C281 1.264 . S
C280 C285 1.479 . S
C280 C290 1.465 . S
C281 C280 1.264 . S
C281 C283 1.339 . S
C281 H308 0.931 . S
C282 C283 1.395 . S
C282 C284 1.320 . S
C283 C281 1.339 . S
C283 C282 1.395 . S
C283 H309 0.929 . S
C284 C282 1.320 . S
C284 C285 1.405 . S
C284 H310 0.930 . S
C285 C280 1.479 . S
C285 C284 1.405 . S
C285 H311 0.931 . S
U286 O287 2.454 . S
U286 O288 2.458 . S
U286 C289 2.984 . S
U286 C290 2.847 . S
U286 C303 2.882 . S
U286 O304 2.441 . S
U286 O305 2.420 . S
U286 O306 2.455 . S
U286 O307 2.449 . S
O287 U286 2.454 . S
O287 C289 1.353 . S
O288 U286 2.458 . S
O288 C289 1.286 . S
C289 U286 2.984 . S
C289 O287 1.353 . S
C289 O288 1.286 . S
C289 C291 1.363 . S
C290 C280 1.465 . S
C290 U286 2.847 . S
C290 O304 1.249 . S
C290 O305 1.202 . S
C291 C289 1.363 . S
C291 C293 1.408 . S
C291 C296 1.342 . S
C292 C293 1.310 . S
C292 C295 1.461 . S
C292 H312 0.932 . S
C293 C291 1.408 . S
C293 C292 1.310 . S
C293 H313 0.930 . S
C294 C295 1.474 . S
C294 C296 1.285 . S
C294 H314 0.929 . S
C295 C292 1.461 . S
C295 C294 1.474 . S
C296 C291 1.342 . S
C296 C294 1.285 . S
C296 H315 0.930 . S
C297 C300 1.424 . S
C297 C302 1.245 . S
C297 C303 1.428 . S
C298 C301 1.260 . S
C298 C302 1.477 . S
C298 H316 0.932 . S
C299 C300 1.384 . S
C299 C301 1.479 . S
C299 H317 0.929 . S
C300 C297 1.424 . S
C300 C299 1.384 . S
C300 H318 0.928 . S
C301 C298 1.260 . S
C301 C299 1.479 . S
C302 C297 1.245 . S
C302 C298 1.477 . S
C302 H319 0.932 . S
C303 U286 2.882 . S
C303 C297 1.428 . S
C303 O306 1.301 . S
C303 O307 1.282 . S
O304 U286 2.441 . S
O304 C290 1.249 . S
O305 U286 2.420 . S
O305 C290 1.202 . S
O306 U286 2.455 . S
O306 C303 1.301 . S
O307 U286 2.449 . S
O307 C303 1.282 . S
H308 C281 0.931 . S
H309 C283 0.929 . S
H310 C284 0.930 . S
H311 C285 0.931 . S
H312 C292 0.932 . S
H313 C293 0.930 . S
H314 C294 0.929 . S
H315 C296 0.930 . S
H316 C298 0.932 . S
H317 C299 0.929 . S
H318 C300 0.928 . S
H319 C302 0.932 . S
Nd320 C322 2.836 1_455 S
Nd320 O340 2.500 1_455 S
Nd320 O341 2.492 . S
Nd320 O342 2.487 . S
Nd320 O343 2.677 1_565 S
Nd320 O344 2.410 . S
Nd320 O349 2.427 1_455 S
Nd320 O351 2.424 1_565 S
Nd321 C331 2.836 . S
Nd321 O343 2.432 . S
Nd321 O345 2.424 1_545 S
Nd321 O346 2.500 . S
Nd321 O347 2.492 . S
Nd321 O348 2.487 1_455 S
Nd321 O349 2.678 1_445 S
Nd321 O350 2.410 . S
C322 Nd320 2.836 1_655 S
C322 C323 1.498 . S
C322 O340 1.258 . S
C322 O341 1.239 1_655 S
C323 C322 1.498 . S
C323 C324 1.366 . S
C323 C328 1.407 . S
C324 C323 1.366 . S
C324 C325 1.392 . S
C324 H352 0.930 . S
C325 C324 1.392 . S
C325 C326 1.398 . S
C325 H353 0.929 . S
C326 C325 1.398 . S
C326 C327 1.352 . S
C327 C326 1.352 . S
C327 C328 1.384 . S
C327 H354 0.930 . S
C328 C323 1.407 . S
C328 C327 1.384 . S
C328 H355 0.929 1_655 S
C329 O342 1.241 . S
C329 O343 1.247 1_565 S
C330 O344 1.269 . S
C330 O345 1.275 . S
C331 Nd321 2.836 . S
C331 C332 1.498 . S
C331 O346 1.258 . S
C331 O347 1.239 . S
C332 C331 1.498 . S
C332 C333 1.366 . S
C332 C337 1.407 . S
C333 C332 1.366 . S
C333 C334 1.392 . S
C333 H356 0.930 . S
C334 C333 1.392 . S
C334 C335 1.398 . S
C334 H357 0.929 . S
C335 C334 1.398 . S
C335 C336 1.352 . S
C336 C335 1.352 . S
C336 C337 1.384 . S
C336 H358 0.930 1_556 S
C337 C332 1.407 . S
C337 C336 1.384 . S
C337 H359 0.929 . S
C338 O348 1.241 . S
C338 O349 1.254 1_545 S
C339 O350 1.251 . S
C339 O351 1.268 . S
O340 Nd320 2.500 1_655 S
O340 C322 1.258 . S
O341 Nd320 2.492 . S
O341 C322 1.239 1_455 S
O342 Nd320 2.487 . S
O342 C329 1.241 . S
O343 Nd320 2.677 1_545 S
O343 Nd321 2.432 . S
O343 C329 1.247 1_545 S
O344 Nd320 2.410 . S
O344 C330 1.269 . S
O345 Nd321 2.424 1_565 S
O345 C330 1.275 . S
O346 Nd321 2.500 . S
O346 C331 1.258 . S
O347 Nd321 2.492 . S
O347 C331 1.239 . S
O348 Nd321 2.487 1_655 S
O348 C338 1.241 . S
O349 Nd320 2.427 1_655 S
O349 Nd321 2.678 1_665 S
O349 C338 1.254 1_565 S
O350 Nd321 2.410 . S
O350 C339 1.251 . S
O351 Nd320 2.424 1_545 S
O351 C339 1.268 . S
H352 C324 0.930 . S
H353 C325 0.929 . S
H354 C327 0.930 . S
H355 C328 0.929 1_455 S
H356 C333 0.930 . S
H357 C334 0.929 . S
H358 C336 0.930 1_554 S
H359 C337 0.929 . S
Nd360 C362 2.836 . S
Nd360 O380 2.500 . S
Nd360 O381 2.491 1_565 S
Nd360 O382 2.487 1_565 S
Nd360 O383 2.682 1_565 S
Nd360 O384 2.410 1_565 S
Nd360 O389 2.414 . S
Nd360 O391 2.424 . S
Nd361 C371 2.836 . S
Nd361 O383 2.414 . S
Nd361 O385 2.424 . S
Nd361 O386 2.500 . S
Nd361 O387 2.491 1_545 S
Nd361 O388 2.487 1_545 S
Nd361 O389 2.682 1_545 S
Nd361 O390 2.410 1_545 S
C362 Nd360 2.836 . S
C362 C363 1.498 . S
C362 O380 1.258 . S
C362 O381 1.199 1_565 S
C363 C362 1.498 . S
C363 C364 1.366 . S
C363 C368 1.407 . S
C364 C363 1.366 . S
C364 C365 1.392 . S
C364 H392 0.930 . S
C365 C364 1.392 . S
C365 C366 1.398 . S
C365 H393 0.929 . S
C366 C365 1.398 . S
C366 C367 1.352 . S
C367 C366 1.352 . S
C367 C368 1.384 . S
C367 H394 0.910 1_565 S
C368 C363 1.407 . S
C368 C367 1.384 . S
C368 H395 0.929 1_565 S
C369 O382 1.241 . S
C369 O383 1.273 . S
C370 O384 1.251 . S
C370 O385 1.268 . S
C371 Nd361 2.836 . S
C371 C372 1.498 . S
C371 O386 1.258 . S
C371 O387 1.211 1_545 S
C372 C371 1.498 . S
C372 C373 1.366 . S
C372 C377 1.407 . S
C373 C372 1.366 . S
C373 C374 1.392 . S
C373 H396 0.930 . S
C374 C373 1.392 . S
C374 C375 1.398 . S
C374 H397 0.929 . S
C375 C374 1.398 . S
C375 C376 1.352 . S
C376 C375 1.352 . S
C376 C377 1.384 . S
C376 H398 0.915 1_546 S
C377 C372 1.407 . S
C377 C376 1.384 . S
C377 H399 0.929 1_545 S
C378 O388 1.241 . S
C378 O389 1.273 . S
C379 O390 1.251 . S
C379 O391 1.268 . S
O380 Nd360 2.500 . S
O380 C362 1.258 . S
O381 Nd360 2.491 1_545 S
O381 C362 1.199 1_545 S
O382 Nd360 2.487 1_545 S
O382 C369 1.241 . S
O383 Nd360 2.682 1_545 S
O383 Nd361 2.414 . S
O383 C369 1.273 . S
O384 Nd360 2.410 1_545 S
O384 C370 1.251 . S
O385 Nd361 2.424 . S
O385 C370 1.268 . S
O386 Nd361 2.500 . S
O386 C371 1.258 . S
O387 Nd361 2.491 1_565 S
O387 C371 1.211 1_565 S
O388 Nd361 2.487 1_565 S
O388 C378 1.241 . S
O389 Nd360 2.414 . S
O389 Nd361 2.682 1_565 S
O389 C378 1.273 . S
O390 Nd361 2.410 1_565 S
O390 C379 1.251 . S
O391 Nd360 2.424 . S
O391 C379 1.268 . S
H392 C364 0.930 . S
H393 C365 0.929 . S
H394 C367 0.910 1_545 S
H395 C368 0.929 1_545 S
H396 C373 0.930 . S
H397 C374 0.929 . S
H398 C376 0.915 1_564 S
H399 C377 0.929 1_565 S
Nd400 C402 2.836 . S
Nd400 O420 2.500 . S
Nd400 O421 2.492 . S
Nd400 O422 2.487 . S
Nd400 O423 2.682 . S
Nd400 O424 2.410 . S
Nd400 O429 2.414 . S
Nd400 O431 2.424 . S
Nd401 C411 2.836 . S
Nd401 O423 2.414 . S
Nd401 O425 2.424 . S
Nd401 O426 2.500 . S
Nd401 O427 2.492 . S
Nd401 O428 2.487 . S
Nd401 O429 2.682 . S
Nd401 O430 2.410 . S
C402 Nd400 2.836 . S
C402 C403 1.498 . S
C402 O420 1.258 . S
C402 O421 1.239 . S
C403 C402 1.498 . S
C403 C404 1.366 . S
C403 C408 1.407 . S
C404 C403 1.366 . S
C404 C405 1.392 . S
C404 H432 0.930 . S
C405 C404 1.392 . S
C405 C406 1.398 . S
C405 H433 0.929 . S
C406 C405 1.398 . S
C406 C407 1.352 . S
C407 C406 1.352 . S
C407 C408 1.384 . S
C407 H434 0.930 . S
C408 C403 1.407 . S
C408 C407 1.384 . S
C408 H435 0.929 . S
C409 O422 1.241 . S
C409 O423 1.273 . S
C410 O424 1.251 . S
C410 O425 1.268 . S
C411 Nd401 2.836 . S
C411 C412 1.498 . S
C411 O426 1.258 . S
C411 O427 1.239 . S
C412 C411 1.498 . S
C412 C413 1.366 . S
C412 C417 1.407 . S
C413 C412 1.366 . S
C413 C414 1.392 . S
C413 H436 0.930 . S
C414 C413 1.392 . S
C414 C415 1.398 . S
C414 H437 0.929 . S
C415 C414 1.398 . S
C415 C416 1.352 . S
C416 C415 1.352 . S
C416 C417 1.384 . S
C416 H438 0.930 . S
C417 C412 1.407 . S
C417 C416 1.384 . S
C417 H439 0.929 . S
C418 O428 1.241 . S
C418 O429 1.273 . S
C419 O430 1.251 . S
C419 O431 1.268 . S
O420 Nd400 2.500 . S
O420 C402 1.258 . S
O421 Nd400 2.492 . S
O421 C402 1.239 . S
O422 Nd400 2.487 . S
O422 C409 1.241 . S
O423 Nd400 2.682 . S
O423 Nd401 2.414 . S
O423 C409 1.273 . S
O424 Nd400 2.410 . S
O424 C410 1.251 . S
O425 Nd401 2.424 . S
O425 C410 1.268 . S
O426 Nd401 2.500 . S
O426 C411 1.258 . S
O427 Nd401 2.492 . S
O427 C411 1.239 . S
O428 Nd401 2.487 . S
O428 C418 1.241 . S
O429 Nd400 2.414 . S
O429 Nd401 2.682 . S
O429 C418 1.273 . S
O430 Nd401 2.410 . S
O430 C419 1.251 . S
O431 Nd400 2.424 . S
O431 C419 1.268 . S
H432 C404 0.930 . S
H433 C405 0.929 . S
H434 C407 0.930 . S
H435 C408 0.929 . S
H436 C413 0.930 . S
H437 C414 0.929 . S
H438 C416 0.930 . S
H439 C417 0.929 . S
Nd440 C442 2.836 1_455 S
Nd440 O460 2.500 1_455 S
Nd440 O461 2.492 1_455 S
Nd440 O462 2.487 . S
Nd440 O463 2.682 . S
Nd440 O464 2.410 1_455 S
Nd440 O469 2.414 . S
Nd440 O471 2.424 . S
Nd441 C451 2.836 . S
Nd441 O463 2.414 . S
Nd441 O465 2.424 1_455 S
Nd441 O466 2.500 . S
Nd441 O467 2.492 . S
Nd441 O468 2.487 . S
Nd441 O469 2.682 . S
Nd441 O470 2.410 . S
C442 Nd440 2.836 1_655 S
C442 C443 1.498 . S
C442 O460 1.258 . S
C442 O461 1.239 . S
C443 C442 1.498 . S
C443 C444 1.366 . S
C443 C448 1.407 . S
C444 C443 1.366 . S
C444 C445 1.392 . S
C444 H472 0.930 . S
C445 C444 1.392 . S
C445 C446 1.398 . S
C445 H473 0.929 . S
C446 C445 1.398 . S
C446 C447 1.352 . S
C447 C446 1.352 . S
C447 C448 1.384 . S
C447 H474 0.930 . S
C448 C443 1.407 . S
C448 C447 1.384 . S
C448 H475 0.929 . S
C449 O462 1.241 . S
C449 O463 1.273 . S
C450 O464 1.251 . S
C450 O465 1.268 . S
C451 Nd441 2.836 . S
C451 C452 1.498 . S
C451 O466 1.258 . S
C451 O467 1.239 . S
C452 C451 1.498 . S
C452 C453 1.366 . S
C452 C457 1.407 . S
C453 C452 1.366 . S
C453 C454 1.392 . S
C453 H476 0.930 . S
C454 C453 1.392 . S
C454 C455 1.398 . S
C454 H477 0.929 . S
C455 C454 1.398 . S
C455 C456 1.352 . S
C456 C455 1.352 . S
C456 C457 1.384 . S
C456 H478 0.930 1_556 S
C457 C452 1.407 . S
C457 C456 1.384 . S
C457 H479 0.929 . S
C458 O468 1.263 . S
C458 O469 1.283 . S
C459 O470 1.251 . S
C459 O471 1.268 . S
O460 Nd440 2.500 1_655 S
O460 C442 1.258 . S
O461 Nd440 2.492 1_655 S
O461 C442 1.239 . S
O462 Nd440 2.487 . S
O462 C449 1.241 . S
O463 Nd440 2.682 . S
O463 Nd441 2.414 . S
O463 C449 1.273 . S
O464 Nd440 2.410 1_655 S
O464 C450 1.251 . S
O465 Nd441 2.424 1_655 S
O465 C450 1.268 . S
O466 Nd441 2.500 . S
O466 C451 1.258 . S
O467 Nd441 2.492 . S
O467 C451 1.239 . S
O468 Nd441 2.487 . S
O468 C458 1.263 . S
O469 Nd440 2.414 . S
O469 Nd441 2.682 . S
O469 C458 1.283 . S
O470 Nd441 2.410 . S
O470 C459 1.251 . S
O471 Nd440 2.424 . S
O471 C459 1.268 . S
H472 C444 0.930 . S
H473 C445 0.929 . S
H474 C447 0.930 . S
H475 C448 0.929 . S
H476 C453 0.930 . S
H477 C454 0.929 . S
H478 C456 0.930 1_554 S
H479 C457 0.929 . S
H480 C488 0.929 . S
H481 C490 0.930 . S
H482 C492 0.930 . S
H483 C495 0.929 . S
H484 C498 0.930 . S
H485 C500 0.960 . S
H486 C500 0.960 . S
H487 C500 0.960 . S
C488 H480 0.929 . S
C488 C489 1.380 . S
C488 C490 1.384 . S
C489 C488 1.380 . S
C489 C495 1.386 1_565 S
C490 H481 0.930 . S
C490 C488 1.384 . S
C490 C491 1.372 . S
C491 C490 1.372 . S
C491 C492 1.400 1_565 S
C491 C496 1.490 . S
C492 H482 0.930 . S
C492 C491 1.400 1_545 S
C492 C495 1.386 . S
H493 C509 0.930 . S
H494 C510 0.931 . S
C495 H483 0.929 . S
C495 C489 1.386 1_545 S
C495 C492 1.386 . S
C496 C491 1.490 . S
C496 C498 1.395 1_565 S
C496 C499 1.403 . S
H497 C503 0.930 . S
C498 H484 0.930 . S
C498 C496 1.395 1_545 S
C498 C501 1.403 . S
C499 C496 1.403 . S
C499 C500 1.524 . S
C499 C503 1.400 . S
C500 H485 0.960 . S
C500 H486 0.960 . S
C500 H487 0.960 . S
C500 C499 1.524 . S
C501 C498 1.403 . S
C501 C502 1.392 1_545 S
C501 C505 1.495 . S
C502 C501 1.392 1_565 S
C502 C503 1.385 . S
C502 C504 1.478 . S
C503 H497 0.930 . S
C503 C499 1.400 . S
C503 C502 1.385 . S
C504 C502 1.478 . S
C504 C506 1.381 . S
C504 C510 1.383 1_565 S
C505 C501 1.495 . S
C505 H511 0.959 . S
C505 H512 0.961 . S
C505 H513 0.960 . S
C506 C504 1.381 . S
C506 C507 1.394 . S
C506 H514 0.930 . S
C507 C506 1.394 . S
C507 C508 1.383 . S
C507 H515 0.929 . S
C508 C507 1.383 . S
C508 C509 1.377 1_565 S
C509 H493 0.930 . S
C509 C508 1.377 1_545 S
C509 C510 1.379 . S
C510 H494 0.931 . S
C510 C504 1.383 1_545 S
C510 C509 1.379 . S
H511 C505 0.959 . S
H512 C505 0.961 . S
H513 C505 0.960 . S
H514 C506 0.930 . S
H515 C507 0.929 . S
H516 C524 0.929 . S
H517 C526 0.930 . S
H518 C528 0.930 . S
H519 C531 0.929 . S
H520 C534 0.930 . S
H521 C536 0.960 . S
H522 C536 0.960 . S
H523 C536 0.960 . S
C524 H516 0.929 . S
C524 C525 1.377 . S
C524 C526 1.384 . S
C525 C524 1.377 . S
C525 C531 1.390 . S
C526 H517 0.930 . S
C526 C524 1.384 . S
C526 C527 1.372 . S
C527 C526 1.372 . S
C527 C528 1.400 . S
C527 C532 1.490 . S
C528 H518 0.930 . S
C528 C527 1.400 . S
C528 C531 1.386 . S
H529 C545 0.930 . S
H530 C546 0.931 . S
C531 H519 0.929 . S
C531 C525 1.390 . S
C531 C528 1.386 . S
C532 C527 1.490 . S
C532 C534 1.395 . S
C532 C535 1.403 . S
H533 C539 0.930 . S
C534 H520 0.930 . S
C534 C532 1.395 . S
C534 C537 1.403 . S
C535 C532 1.403 . S
C535 C536 1.524 . S
C535 C539 1.400 . S
C536 H521 0.960 . S
C536 H522 0.960 . S
C536 H523 0.960 . S
C536 C535 1.524 . S
C537 C534 1.403 . S
C537 C538 1.392 . S
C537 C541 1.495 . S
C538 C537 1.392 . S
C538 C539 1.385 . S
C538 C540 1.478 . S
C539 H533 0.930 . S
C539 C535 1.400 . S
C539 C538 1.385 . S
C540 C538 1.478 . S
C540 C542 1.381 . S
C540 C546 1.383 . S
C541 C537 1.495 . S
C541 H547 0.959 . S
C541 H548 0.961 . S
C541 H549 0.960 . S
C542 C540 1.381 . S
C542 C543 1.394 . S
C542 H550 0.930 . S
C543 C542 1.394 . S
C543 C544 1.383 . S
C543 H551 0.929 . S
C544 C543 1.383 . S
C544 C545 1.377 . S
C545 H529 0.930 . S
C545 C544 1.377 . S
C545 C546 1.379 . S
C546 H530 0.931 . S
C546 C540 1.383 . S
C546 C545 1.379 . S
H547 C541 0.959 . S
H548 C541 0.961 . S
H549 C541 0.960 . S
H550 C542 0.930 . S
H551 C543 0.929 . S
H552 C560 0.929 . S
H553 C562 0.930 . S
H554 C564 0.930 . S
H555 C567 0.929 . S
H556 C570 0.930 . S
H557 C572 0.960 . S
H558 C572 0.960 . S
H559 C572 0.960 . S
C560 H552 0.929 . S
C560 C561 1.377 . S
C560 C562 1.384 . S
C561 C560 1.377 . S
C561 C567 1.390 . S
C562 H553 0.930 . S
C562 C560 1.384 . S
C562 C563 1.372 . S
C563 C562 1.372 . S
C563 C564 1.400 . S
C563 C568 1.490 . S
C564 H554 0.930 . S
C564 C563 1.400 . S
C564 C567 1.386 . S
H565 C581 0.930 . S
H566 C582 0.931 . S
C567 H555 0.929 . S
C567 C561 1.390 . S
C567 C564 1.386 . S
C568 C563 1.490 . S
C568 C570 1.395 . S
C568 C571 1.403 . S
H569 C575 0.930 . S
C570 H556 0.930 . S
C570 C568 1.395 . S
C570 C573 1.403 . S
C571 C568 1.403 . S
C571 C572 1.524 . S
C571 C575 1.400 . S
C572 H557 0.960 . S
C572 H558 0.960 . S
C572 H559 0.960 . S
C572 C571 1.524 . S
C573 C570 1.403 . S
C573 C574 1.392 . S
C573 C577 1.495 . S
C574 C573 1.392 . S
C574 C575 1.385 . S
C574 C576 1.478 . S
C575 H569 0.930 . S
C575 C571 1.400 . S
C575 C574 1.385 . S
C576 C574 1.478 . S
C576 C578 1.381 . S
C576 C582 1.383 . S
C577 C573 1.495 . S
C577 H583 0.959 . S
C577 H584 0.961 . S
C577 H585 0.960 . S
C578 C576 1.381 . S
C578 C579 1.394 . S
C578 H586 0.930 . S
C579 C578 1.394 . S
C579 C580 1.383 . S
C579 H587 0.929 . S
C580 C579 1.383 . S
C580 C581 1.377 . S
C581 H565 0.930 . S
C581 C580 1.377 . S
C581 C582 1.379 . S
C582 H566 0.931 . S
C582 C576 1.383 . S
C582 C581 1.379 . S
H583 C577 0.959 . S
H584 C577 0.961 . S
H585 C577 0.960 . S
H586 C578 0.930 . S
H587 C579 0.929 . S
H588 C596 0.929 . S
H589 C598 0.930 . S
H590 C600 0.930 . S
H591 C603 0.929 . S
H592 C606 0.930 . S
H593 C608 0.960 . S
H594 C608 0.960 . S
H595 C608 0.960 . S
C596 H588 0.929 . S
C596 C597 1.377 . S
C596 C598 1.384 . S
C597 C596 1.377 . S
C597 C603 1.390 . S
C598 H589 0.930 . S
C598 C596 1.384 . S
C598 C599 1.372 . S
C599 C598 1.372 . S
C599 C600 1.400 . S
C599 C604 1.490 . S
C600 H590 0.930 . S
C600 C599 1.400 . S
C600 C603 1.386 . S
H601 C617 0.930 . S
H602 C618 0.931 . S
C603 H591 0.929 . S
C603 C597 1.390 . S
C603 C600 1.386 . S
C604 C599 1.490 . S
C604 C606 1.395 . S
C604 C607 1.403 . S
H605 C611 0.930 . S
C606 H592 0.930 . S
C606 C604 1.395 . S
C606 C609 1.403 . S
C607 C604 1.403 . S
C607 C608 1.524 . S
C607 C611 1.400 . S
C608 H593 0.960 . S
C608 H594 0.960 . S
C608 H595 0.960 . S
C608 C607 1.524 . S
C609 C606 1.403 . S
C609 C610 1.392 . S
C609 C613 1.495 . S
C610 C609 1.392 . S
C610 C611 1.385 . S
C610 C612 1.478 . S
C611 H605 0.930 . S
C611 C607 1.400 . S
C611 C610 1.385 . S
C612 C610 1.478 . S
C612 C614 1.381 . S
C612 C618 1.383 . S
C613 C609 1.495 . S
C613 H619 0.959 . S
C613 H620 0.961 . S
C613 H621 0.960 . S
C614 C612 1.381 . S
C614 C615 1.394 . S
C614 H622 0.930 . S
C615 C614 1.394 . S
C615 C616 1.383 . S
C615 H623 0.929 . S
C616 C615 1.383 . S
C616 C617 1.377 . S
C617 H601 0.930 . S
C617 C616 1.377 . S
C617 C618 1.379 . S
C618 H602 0.931 . S
C618 C612 1.383 . S
C618 C617 1.379 . S
H619 C613 0.959 . S
H620 C613 0.961 . S
H621 C613 0.960 . S
H622 C614 0.930 . S
H623 C615 0.929 . S
H624 C632 0.929 . S
H625 C634 0.930 . S
H626 C636 0.930 . S
H627 C639 0.929 . S
H628 C642 0.930 . S
H629 C644 0.960 . S
H630 C644 0.960 1_545 S
H631 C644 0.960 . S
C632 H624 0.929 . S
C632 C633 1.388 . S
C632 C634 1.384 . S
C633 C632 1.388 . S
C633 C639 1.377 1_545 S
C634 H625 0.930 . S
C634 C632 1.384 . S
C634 C635 1.372 . S
C635 C634 1.372 . S
C635 C636 1.400 1_545 S
C635 C640 1.490 . S
C636 H626 0.930 . S
C636 C635 1.400 1_565 S
C636 C639 1.386 . S
H637 C653 0.930 . S
H638 C654 0.931 . S
C639 H627 0.929 . S
C639 C633 1.377 1_565 S
C639 C636 1.386 . S
C640 C635 1.490 . S
C640 C642 1.395 . S
C640 C643 1.388 1_545 S
H641 C647 0.937 . S
C642 H628 0.930 . S
C642 C640 1.395 . S
C642 C645 1.403 . S
C643 C640 1.388 1_565 S
C643 C644 1.530 . S
C643 C647 1.406 . S
C644 H629 0.960 . S
C644 H630 0.960 1_565 S
C644 H631 0.960 . S
C644 C643 1.530 . S
C645 C642 1.403 . S
C645 C646 1.392 . S
C645 C649 1.495 . S
C646 C645 1.392 . S
C646 C647 1.383 1_545 S
C646 C648 1.478 . S
C647 H641 0.937 . S
C647 C643 1.406 . S
C647 C646 1.383 1_565 S
C648 C646 1.478 . S
C648 C650 1.381 . S
C648 C654 1.383 1_545 S
C649 C645 1.495 . S
C649 H655 0.959 . S
C649 H656 1.010 . S
C649 H657 0.960 . S
C650 C648 1.381 . S
C650 C651 1.394 . S
C650 H658 0.930 . S
C651 C650 1.394 . S
C651 C652 1.383 . S
C651 H659 0.929 . S
C652 C651 1.383 . S
C652 C653 1.377 1_545 S
C653 H637 0.930 . S
C653 C652 1.377 1_565 S
C653 C654 1.379 . S
C654 H638 0.931 . S
C654 C648 1.383 1_565 S
C654 C653 1.379 . S
H655 C649 0.959 . S
H656 C649 1.010 . S
H657 C649 0.960 . S
H658 C650 0.930 . S
H659 C651 0.929 . S
H660 C668 0.929 . S
H661 C670 0.930 . S
H662 C672 0.930 . S
H663 C675 0.929 . S
H664 C678 0.930 . S
H665 C680 0.960 . S
H666 C680 0.960 . S
H667 C680 0.960 . S
C668 H660 0.929 . S
C668 C669 1.377 . S
C668 C670 1.384 . S
C669 C668 1.377 . S
C669 C675 1.390 . S
C670 H661 0.930 . S
C670 C668 1.384 . S
C670 C671 1.372 . S
C671 C670 1.372 . S
C671 C672 1.400 . S
C671 C676 1.490 . S
C672 H662 0.930 . S
C672 C671 1.400 . S
C672 C675 1.386 . S
H673 C689 0.930 . S
H674 C690 0.931 . S
C675 H663 0.929 . S
C675 C669 1.390 . S
C675 C672 1.386 . S
C676 C671 1.490 . S
C676 C678 1.395 . S
C676 C679 1.403 . S
H677 C683 0.930 . S
C678 H664 0.930 . S
C678 C676 1.395 . S
C678 C681 1.403 1_554 S
C679 C676 1.403 . S
C679 C680 1.524 . S
C679 C683 1.400 . S
C680 H665 0.960 . S
C680 H666 0.960 . S
C680 H667 0.960 . S
C680 C679 1.524 . S
C681 C678 1.403 1_556 S
C681 C682 1.392 . S
C681 C685 1.495 . S
C682 C681 1.392 . S
C682 C683 1.385 1_556 S
C682 C684 1.478 . S
C683 H677 0.930 . S
C683 C679 1.400 . S
C683 C682 1.385 1_554 S
C684 C682 1.478 . S
C684 C686 1.381 . S
C684 C690 1.383 . S
C685 C681 1.495 . S
C685 H691 0.959 . S
C685 H692 0.961 . S
C685 H693 0.960 . S
C686 C684 1.381 . S
C686 C687 1.394 . S
C686 H694 0.930 . S
C687 C686 1.394 . S
C687 C688 1.383 . S
C687 H695 0.929 . S
C688 C687 1.383 . S
C688 C689 1.377 . S
C689 H673 0.930 . S
C689 C688 1.377 . S
C689 C690 1.379 . S
C690 H674 0.931 . S
C690 C684 1.383 . S
C690 C689 1.379 . S
H691 C685 0.959 . S
H692 C685 0.961 . S
H693 C685 0.960 . S
H694 C686 0.930 . S
H695 C687 0.929 . S
H696 C704 0.929 . S
H697 C706 0.930 . S
H698 C708 0.930 . S
H699 C711 0.946 . S
H700 C714 0.930 . S
H701 C716 0.960 . S
H702 C716 0.960 . S
H703 C716 0.960 . S
C704 H696 0.929 . S
C704 C705 1.377 . S
C704 C706 1.384 . S
C705 C704 1.377 . S
C705 C711 1.390 . S
C706 H697 0.930 . S
C706 C704 1.384 . S
C706 C707 1.372 . S
C707 C706 1.372 . S
C707 C708 1.400 . S
C707 C712 1.490 . S
C708 H698 0.930 . S
C708 C707 1.400 . S
C708 C711 1.386 . S
H709 C725 0.930 . S
H710 C726 0.931 . S
C711 H699 0.946 . S
C711 C705 1.390 . S
C711 C708 1.386 . S
C712 C707 1.490 . S
C712 C714 1.395 . S
C712 C715 1.403 . S
H713 C719 0.930 . S
C714 H700 0.930 . S
C714 C712 1.395 . S
C714 C717 1.403 . S
C715 C712 1.403 . S
C715 C716 1.524 . S
C715 C719 1.400 . S
C716 H701 0.960 . S
C716 H702 0.960 . S
C716 H703 0.960 . S
C716 C715 1.524 . S
C717 C714 1.403 . S
C717 C718 1.392 . S
C717 C721 1.495 . S
C718 C717 1.392 . S
C718 C719 1.385 . S
C718 C720 1.478 . S
C719 H713 0.930 . S
C719 C715 1.400 . S
C719 C718 1.385 . S
C720 C718 1.478 . S
C720 C722 1.381 . S
C720 C726 1.383 . S
C721 C717 1.495 . S
C721 H727 0.959 . S
C721 H728 0.961 . S
C721 H729 0.960 . S
C722 C720 1.381 . S
C722 C723 1.394 . S
C722 H730 0.930 . S
C723 C722 1.394 . S
C723 C724 1.383 . S
C723 H731 0.929 . S
C724 C723 1.383 . S
C724 C725 1.377 . S
C725 H709 0.930 . S
C725 C724 1.377 . S
C725 C726 1.379 . S
C726 H710 0.931 . S
C726 C720 1.383 . S
C726 C725 1.379 . S
H727 C721 0.959 . S
H728 C721 0.961 . S
H729 C721 0.960 . S
H730 C722 0.930 . S
H731 C723 0.929 . S
H732 C740 0.929 . S
H733 C742 0.930 . S
H734 C744 0.930 . S
H735 C747 0.929 1_554 S
H736 C750 0.930 . S
H737 C752 0.957 1_554 S
H738 C752 0.960 . S
H739 C752 0.960 1_554 S
C740 H732 0.929 . S
C740 C741 1.377 . S
C740 C742 1.384 . S
C741 C740 1.377 . S
C741 C747 1.390 . S
C742 H733 0.930 . S
C742 C740 1.384 . S
C742 C743 1.372 . S
C743 C742 1.372 . S
C743 C744 1.400 . S
C743 C748 1.490 . S
C744 H734 0.930 . S
C744 C743 1.400 . S
C744 C747 1.386 . S
H745 C761 0.866 1_455 S
H746 C762 0.931 . S
C747 H735 0.929 1_556 S
C747 C741 1.390 . S
C747 C744 1.386 . S
C748 C743 1.490 . S
C748 C750 1.395 . S
C748 C751 1.403 . S
H749 C755 0.930 . S
C750 H736 0.930 . S
C750 C748 1.395 . S
C750 C753 1.403 . S
C751 C748 1.403 . S
C751 C752 1.524 . S
C751 C755 1.400 . S
C752 H737 0.957 1_556 S
C752 H738 0.960 . S
C752 H739 0.960 1_556 S
C752 C751 1.524 . S
C753 C750 1.403 . S
C753 C754 1.392 . S
C753 C757 1.495 . S
C754 C753 1.392 . S
C754 C755 1.385 . S
C754 C756 1.478 . S
C755 H749 0.930 . S
C755 C751 1.400 . S
C755 C754 1.385 . S
C756 C754 1.478 . S
C756 C758 1.381 . S
C756 C762 1.383 . S
C757 C753 1.495 . S
C757 H763 0.959 . S
C757 H764 0.961 . S
C757 H765 0.960 . S
C758 C756 1.381 . S
C758 C759 1.394 . S
C758 H766 0.930 . S
C759 C758 1.394 . S
C759 C760 1.383 . S
C759 H767 0.929 . S
C760 C759 1.383 . S
C760 C761 1.377 . S
C761 H745 0.866 1_655 S
C761 C760 1.377 . S
C761 C762 1.379 . S
C762 H746 0.931 . S
C762 C756 1.383 . S
C762 C761 1.379 . S
H763 C757 0.959 . S
H764 C757 0.961 . S
H765 C757 0.960 . S
H766 C758 0.930 . S
H767 C759 0.929 . S
H768 C776 0.929 . S
H769 C778 0.930 . S
H770 C780 0.930 . S
H771 C783 0.929 . S
H772 C786 0.930 . S
H773 C788 0.960 . S
H774 C788 0.960 . S
H775 C788 0.960 . S
C776 H768 0.929 . S
C776 C777 1.377 . S
C776 C778 1.384 . S
C777 C776 1.377 . S
C777 C783 1.390 . S
C778 H769 0.930 . S
C778 C776 1.384 . S
C778 C779 1.372 . S
C779 C778 1.372 . S
C779 C780 1.400 . S
C779 C784 1.490 . S
C780 H770 0.930 . S
C780 C779 1.400 . S
C780 C783 1.386 . S
H781 C797 0.930 . S
H782 C798 0.931 . S
C783 H771 0.929 . S
C783 C777 1.390 . S
C783 C780 1.386 . S
C784 C779 1.490 . S
C784 C786 1.395 . S
C784 C787 1.403 . S
H785 C791 0.930 . S
C786 H772 0.930 . S
C786 C784 1.395 . S
C786 C789 1.403 . S
C787 C784 1.403 . S
C787 C788 1.524 . S
C787 C791 1.400 . S
C788 H773 0.960 . S
C788 H774 0.960 . S
C788 H775 0.960 . S
C788 C787 1.524 . S
C789 C786 1.403 . S
C789 C790 1.392 . S
C789 C793 1.495 . S
C790 C789 1.392 . S
C790 C791 1.385 . S
C790 C792 1.478 . S
C791 H785 0.930 . S
C791 C787 1.400 . S
C791 C790 1.385 . S
C792 C790 1.478 . S
C792 C794 1.381 . S
C792 C798 1.383 . S
C793 C789 1.495 . S
C793 H799 0.959 . S
C793 H800 0.961 . S
C793 H801 0.960 . S
C794 C792 1.381 . S
C794 C795 1.394 . S
C794 H802 0.930 . S
C795 C794 1.394 . S
C795 C796 1.383 . S
C795 H803 0.929 . S
C796 C795 1.383 . S
C796 C797 1.377 . S
C797 H781 0.930 . S
C797 C796 1.377 . S
C797 C798 1.379 . S
C798 H782 0.931 . S
C798 C792 1.383 . S
C798 C797 1.379 . S
H799 C793 0.959 . S
H800 C793 0.961 . S
H801 C793 0.960 . S
H802 C794 0.930 . S
H803 C795 0.929 . S
H804 C812 0.929 . S
H805 C814 0.930 . S
H806 C816 0.930 . S
H807 C819 0.929 . S
H808 C822 0.926 1_545 S
H809 C824 0.960 . S
H810 C824 0.960 . S
H811 C824 0.960 . S
C812 H804 0.929 . S
C812 C813 1.380 1_565 S
C812 C814 1.384 . S
C813 C812 1.380 1_545 S
C813 C819 1.388 . S
C814 H805 0.930 . S
C814 C812 1.384 . S
C814 C815 1.372 . S
C815 C814 1.372 . S
C815 C816 1.400 1_565 S
C815 C820 1.490 . S
C816 H806 0.930 . S
C816 C815 1.400 1_545 S
C816 C819 1.386 . S
H817 C833 0.930 . S
H818 C834 0.931 . S
C819 H807 0.929 . S
C819 C813 1.388 . S
C819 C816 1.386 . S
C820 C815 1.490 . S
C820 C822 1.395 . S
C820 C823 1.403 . S
H821 C827 0.930 . S
C822 H808 0.926 1_565 S
C822 C820 1.395 . S
C822 C825 1.403 . S
C823 C820 1.403 . S
C823 C824 1.524 . S
C823 C827 1.400 . S
C824 H809 0.960 . S
C824 H810 0.960 . S
C824 H811 0.960 . S
C824 C823 1.524 . S
C825 C822 1.403 . S
C825 C826 1.392 . S
C825 C829 1.495 1_565 S
C826 C825 1.392 . S
C826 C827 1.385 . S
C826 C828 1.478 . S
C827 H821 0.930 . S
C827 C823 1.400 . S
C827 C826 1.385 . S
C828 C826 1.478 . S
C828 C830 1.381 . S
C828 C834 1.383 1_565 S
C829 C825 1.495 1_545 S
C829 H835 0.962 . S
C829 H836 0.968 . S
C829 H837 0.950 1_545 S
C830 C828 1.381 . S
C830 C831 1.394 . S
C830 H838 0.930 . S
C831 C830 1.394 . S
C831 C832 1.383 . S
C831 H839 0.929 . S
C832 C831 1.383 . S
C832 C833 1.377 1_565 S
C833 H817 0.930 . S
C833 C832 1.377 1_545 S
C833 C834 1.379 . S
C834 H818 0.931 . S
C834 C828 1.383 1_545 S
C834 C833 1.379 . S
H835 C829 0.962 . S
H836 C829 0.968 . S
H837 C829 0.950 1_565 S
H838 C830 0.930 . S
H839 C831 0.929 . S
H840 C848 0.929 . S
H841 C850 0.930 . S
H842 C852 0.930 . S
H843 C855 0.929 . S
H844 C858 0.930 . S
H845 C860 0.960 . S
H846 C860 0.960 . S
H847 C860 0.960 . S
C848 H840 0.929 . S
C848 C849 1.377 . S
C848 C850 1.384 . S
C849 C848 1.377 . S
C849 C855 1.390 . S
C850 H841 0.930 . S
C850 C848 1.384 . S
C850 C851 1.372 . S
C851 C850 1.372 . S
C851 C852 1.400 . S
C851 C856 1.490 . S
C852 H842 0.930 . S
C852 C851 1.400 . S
C852 C855 1.386 . S
H853 C869 0.930 . S
H854 C870 0.931 . S
C855 H843 0.929 . S
C855 C849 1.390 . S
C855 C852 1.386 . S
C856 C851 1.490 . S
C856 C858 1.395 . S
C856 C859 1.403 . S
H857 C863 0.930 . S
C858 H844 0.930 . S
C858 C856 1.395 . S
C858 C861 1.403 . S
C859 C856 1.403 . S
C859 C860 1.524 . S
C859 C863 1.400 . S
C860 H845 0.960 . S
C860 H846 0.960 . S
C860 H847 0.960 . S
C860 C859 1.524 . S
C861 C858 1.403 . S
C861 C862 1.392 . S
C861 C865 1.495 . S
C862 C861 1.392 . S
C862 C863 1.385 . S
C862 C864 1.478 . S
C863 H857 0.930 . S
C863 C859 1.400 . S
C863 C862 1.385 . S
C864 C862 1.478 . S
C864 C866 1.381 . S
C864 C870 1.383 . S
C865 C861 1.495 . S
C865 H871 0.959 . S
C865 H872 0.961 . S
C865 H873 0.960 . S
C866 C864 1.381 . S
C866 C867 1.394 . S
C866 H874 0.930 . S
C867 C866 1.394 . S
C867 C868 1.383 . S
C867 H875 0.929 . S
C868 C867 1.383 . S
C868 C869 1.377 . S
C869 H853 0.930 . S
C869 C868 1.377 . S
C869 C870 1.379 . S
C870 H854 0.931 . S
C870 C864 1.383 . S
C870 C869 1.379 . S
H871 C865 0.959 . S
H872 C865 0.961 . S
H873 C865 0.960 . S
H874 C866 0.930 . S
H875 C867 0.929 . S
H876 C884 0.929 . S
H877 C886 0.930 . S
H878 C888 0.930 . S
H879 C891 0.929 . S
H880 C894 0.930 . S
H881 C896 0.960 . S
H882 C896 0.960 . S
H883 C896 0.960 . S
C884 H876 0.929 . S
C884 C885 1.377 . S
C884 C886 1.384 . S
C885 C884 1.377 . S
C885 C891 1.390 . S
C886 H877 0.930 . S
C886 C884 1.384 . S
C886 C887 1.372 . S
C887 C886 1.372 . S
C887 C888 1.400 . S
C887 C892 1.490 . S
C888 H878 0.930 . S
C888 C887 1.400 . S
C888 C891 1.386 . S
H889 C905 0.930 . S
H890 C906 0.931 . S
C891 H879 0.929 . S
C891 C885 1.390 . S
C891 C888 1.386 . S
C892 C887 1.490 . S
C892 C894 1.395 . S
C892 C895 1.403 . S
H893 C899 0.930 . S
C894 H880 0.930 . S
C894 C892 1.395 . S
C894 C897 1.403 . S
C895 C892 1.403 . S
C895 C896 1.524 . S
C895 C899 1.400 . S
C896 H881 0.960 . S
C896 H882 0.960 . S
C896 H883 0.960 . S
C896 C895 1.524 . S
C897 C894 1.403 . S
C897 C898 1.392 . S
C897 C901 1.495 . S
C898 C897 1.392 . S
C898 C899 1.385 . S
C898 C900 1.478 . S
C899 H893 0.930 . S
C899 C895 1.400 . S
C899 C898 1.385 . S
C900 C898 1.478 . S
C900 C902 1.381 . S
C900 C906 1.383 . S
C901 C897 1.495 . S
C901 H907 0.959 . S
C901 H908 0.961 . S
C901 H909 0.960 . S
C902 C900 1.381 . S
C902 C903 1.394 . S
C902 H910 0.930 . S
C903 C902 1.394 . S
C903 C904 1.383 . S
C903 H911 0.929 . S
C904 C903 1.383 . S
C904 C905 1.377 . S
C905 H889 0.930 . S
C905 C904 1.377 . S
C905 C906 1.379 . S
C906 H890 0.931 . S
C906 C900 1.383 . S
C906 C905 1.379 . S
H907 C901 0.959 . S
H908 C901 0.961 . S
H909 C901 0.960 . S
H910 C902 0.930 . S
H911 C903 0.929 . S
H912 C920 0.929 . S
H913 C922 0.930 . S
H914 C924 0.930 . S
H915 C927 0.929 . S
H916 C930 0.930 . S
H917 C932 0.960 . S
H918 C932 0.960 . S
H919 C932 0.960 . S
C920 H912 0.929 . S
C920 C921 1.377 . S
C920 C922 1.384 . S
C921 C920 1.377 . S
C921 C927 1.390 . S
C922 H913 0.930 . S
C922 C920 1.384 . S
C922 C923 1.372 . S
C923 C922 1.372 . S
C923 C924 1.400 . S
C923 C928 1.490 . S
C924 H914 0.930 . S
C924 C923 1.400 . S
C924 C927 1.386 . S
H925 C941 0.930 1_455 S
H926 C942 0.931 . S
C927 H915 0.929 . S
C927 C921 1.390 . S
C927 C924 1.386 . S
C928 C923 1.490 . S
C928 C930 1.395 . S
C928 C931 1.403 . S
H929 C935 0.930 . S
C930 H916 0.930 . S
C930 C928 1.395 . S
C930 C933 1.403 . S
C931 C928 1.403 . S
C931 C932 1.524 . S
C931 C935 1.400 . S
C932 H917 0.960 . S
C932 H918 0.960 . S
C932 H919 0.960 . S
C932 C931 1.524 . S
C933 C930 1.403 . S
C933 C934 1.392 . S
C933 C937 1.495 . S
C934 C933 1.392 . S
C934 C935 1.385 . S
C934 C936 1.478 . S
C935 H929 0.930 . S
C935 C931 1.400 . S
C935 C934 1.385 . S
C936 C934 1.478 . S
C936 C938 1.381 . S
C936 C942 1.383 . S
C937 C933 1.495 . S
C937 H943 0.959 . S
C937 H944 0.961 . S
C937 H945 0.960 . S
C938 C936 1.381 . S
C938 C939 1.394 . S
C938 H946 0.930 . S
C939 C938 1.394 . S
C939 C940 1.383 . S
C939 H947 0.929 . S
C940 C939 1.383 . S
C940 C941 1.377 . S
C941 H925 0.930 1_655 S
C941 C940 1.377 . S
C941 C942 1.379 . S
C942 H926 0.931 . S
C942 C936 1.383 . S
C942 C941 1.379 . S
H943 C937 0.959 . S
H944 C937 0.961 . S
H945 C937 0.960 . S
H946 C938 0.930 . S
H947 C939 0.929 . S
H948 C956 0.929 . S
H949 C958 0.930 . S
H950 C960 0.930 . S
H951 C963 0.929 . S
H952 C966 0.911 1_565 S
H953 C968 0.960 . S
H954 C968 0.960 . S
H955 C968 0.960 . S
C956 H948 0.929 . S
C956 C957 1.375 . S
C956 C958 1.384 . S
C957 C956 1.375 . S
C957 C963 1.391 1_545 S
C958 H949 0.930 . S
C958 C956 1.384 . S
C958 C959 1.372 . S
C959 C958 1.372 . S
C959 C960 1.400 1_545 S
C959 C964 1.490 . S
C960 H950 0.930 . S
C960 C959 1.400 1_565 S
C960 C963 1.386 . S
H961 C977 0.930 . S
H962 C978 0.931 . S
C963 H951 0.929 . S
C963 C957 1.391 1_565 S
C963 C960 1.386 . S
C964 C959 1.490 . S
C964 C966 1.395 . S
C964 C967 1.403 . S
H965 C971 0.930 . S
C966 H952 0.911 1_545 S
C966 C964 1.395 . S
C966 C969 1.403 . S
C967 C964 1.403 . S
C967 C968 1.524 . S
C967 C971 1.400 . S
C968 H953 0.960 . S
C968 H954 0.960 . S
C968 H955 0.960 . S
C968 C967 1.524 . S
C969 C966 1.403 . S
C969 C970 1.392 . S
C969 C973 1.485 1_545 S
C970 C969 1.392 . S
C970 C971 1.385 . S
C970 C972 1.478 . S
C971 H965 0.930 . S
C971 C967 1.400 . S
C971 C970 1.385 . S
C972 C970 1.478 . S
C972 C974 1.381 . S
C972 C978 1.383 1_545 S
C973 C969 1.485 1_565 S
C973 H979 0.984 . S
C973 H980 1.000 . S
C973 H981 0.910 1_565 S
C974 C972 1.381 . S
C974 C975 1.394 . S
C974 H982 0.930 . S
C975 C974 1.394 . S
C975 C976 1.383 . S
C975 H983 0.929 . S
C976 C975 1.383 . S
C976 C977 1.377 1_545 S
C977 H961 0.930 . S
C977 C976 1.377 1_565 S
C977 C978 1.379 . S
C978 H962 0.931 . S
C978 C972 1.383 1_565 S
C978 C977 1.379 . S
H979 C973 0.984 . S
H980 C973 1.000 . S
H981 C973 0.910 1_545 S
H982 C974 0.930 . S
H983 C975 0.929 . S
H984 C992 0.929 . S
H985 C994 0.930 . S
H986 C996 0.930 . S
H987 C999 0.929 . S
H988 C1002 0.930 . S
H989 C1004 0.960 . S
H990 C1004 0.960 . S
H991 C1004 0.960 . S
C992 H984 0.929 . S
C992 C993 1.377 . S
C992 C994 1.384 . S
C993 C992 1.377 . S
C993 C999 1.390 . S
C994 H985 0.930 . S
C994 C992 1.384 . S
C994 C995 1.372 . S
C995 C994 1.372 . S
C995 C996 1.400 . S
C995 C1000 1.490 . S
C996 H986 0.930 . S
C996 C995 1.400 . S
C996 C999 1.386 . S
H997 C1013 0.930 . S
H998 C1014 0.931 . S
C999 H987 0.929 . S
C999 C993 1.390 . S
C999 C996 1.386 . S
C1000 C995 1.490 . S
C1000 C1002 1.395 1_554 S
C1000 C1003 1.403 . S
H1001 C1007 0.930 . S
C1002 H988 0.930 . S
C1002 C1000 1.395 1_556 S
C1002 C1005 1.403 . S
C1003 C1000 1.403 . S
C1003 C1004 1.524 . S
C1003 C1007 1.400 . S
C1004 H989 0.960 . S
C1004 H990 0.960 . S
C1004 H991 0.960 . S
C1004 C1003 1.524 . S
C1005 C1002 1.403 . S
C1005 C1006 1.392 . S
C1005 C1009 1.495 . S
C1006 C1005 1.392 . S
C1006 C1007 1.385 1_556 S
C1006 C1008 1.478 . S
C1007 H1001 0.930 . S
C1007 C1003 1.400 . S
C1007 C1006 1.385 1_554 S
C1008 C1006 1.478 . S
C1008 C1010 1.381 . S
C1008 C1014 1.383 . S
C1009 C1005 1.495 . S
C1009 H1015 0.959 . S
C1009 H1016 0.961 . S
C1009 H1017 0.960 . S
C1010 C1008 1.381 . S
C1010 C1011 1.394 . S
C1010 H1018 0.930 . S
C1011 C1010 1.394 . S
C1011 C1012 1.383 . S
C1011 H1019 0.929 . S
C1012 C1011 1.383 . S
C1012 C1013 1.377 . S
C1013 H997 0.930 . S
C1013 C1012 1.377 . S
C1013 C1014 1.379 . S
C1014 H998 0.931 . S
C1014 C1008 1.383 . S
C1014 C1013 1.379 . S
H1015 C1009 0.959 . S
H1016 C1009 0.961 . S
H1017 C1009 0.960 . S
H1018 C1010 0.930 . S
H1019 C1011 0.929 . S
H1020 C1028 0.929 . S
H1021 C1030 0.930 . S
H1022 C1032 0.930 . S
H1023 C1035 0.929 . S
H1024 C1038 0.930 . S
H1025 C1040 0.960 . S
H1026 C1040 0.960 . S
H1027 C1040 0.960 . S
C1028 H1020 0.929 . S
C1028 C1029 1.377 . S
C1028 C1030 1.384 . S
C1029 C1028 1.377 . S
C1029 C1035 1.390 . S
C1030 H1021 0.930 . S
C1030 C1028 1.384 . S
C1030 C1031 1.372 . S
C1031 C1030 1.372 . S
C1031 C1032 1.400 . S
C1031 C1036 1.490 . S
C1032 H1022 0.930 . S
C1032 C1031 1.400 . S
C1032 C1035 1.386 . S
H1033 C1049 0.930 . S
H1034 C1050 0.931 . S
C1035 H1023 0.929 . S
C1035 C1029 1.390 . S
C1035 C1032 1.386 . S
C1036 C1031 1.490 . S
C1036 C1038 1.395 . S
C1036 C1039 1.403 . S
H1037 C1043 0.930 . S
C1038 H1024 0.930 . S
C1038 C1036 1.395 . S
C1038 C1041 1.403 . S
C1039 C1036 1.403 . S
C1039 C1040 1.524 . S
C1039 C1043 1.400 . S
C1040 H1025 0.960 . S
C1040 H1026 0.960 . S
C1040 H1027 0.960 . S
C1040 C1039 1.524 . S
C1041 C1038 1.403 . S
C1041 C1042 1.392 . S
C1041 C1045 1.495 . S
C1042 C1041 1.392 . S
C1042 C1043 1.385 . S
C1042 C1044 1.478 . S
C1043 H1037 0.930 . S
C1043 C1039 1.400 . S
C1043 C1042 1.385 . S
C1044 C1042 1.478 . S
C1044 C1046 1.381 . S
C1044 C1050 1.383 . S
C1045 C1041 1.495 . S
C1045 H1051 0.959 . S
C1045 H1052 0.961 . S
C1045 H1053 0.960 . S
C1046 C1044 1.381 . S
C1046 C1047 1.394 . S
C1046 H1054 0.930 . S
C1047 C1046 1.394 . S
C1047 C1048 1.383 . S
C1047 H1055 0.929 . S
C1048 C1047 1.383 . S
C1048 C1049 1.377 . S
C1049 H1033 0.930 . S
C1049 C1048 1.377 . S
C1049 C1050 1.379 . S
C1050 H1034 0.931 . S
C1050 C1044 1.383 . S
C1050 C1049 1.379 . S
H1051 C1045 0.959 . S
H1052 C1045 0.961 . S
H1053 C1045 0.960 . S
H1054 C1046 0.930 . S
H1055 C1047 0.929 . S
H1056 C1064 0.929 . S
H1057 C1066 0.930 . S
H1058 C1068 0.930 . S
H1059 C1071 0.929 . S
H1060 C1074 0.930 . S
H1061 C1076 0.960 . S
H1062 C1076 0.960 . S
H1063 C1076 0.960 . S
C1064 H1056 0.929 . S
C1064 C1065 1.377 . S
C1064 C1066 1.384 . S
C1065 C1064 1.377 . S
C1065 C1071 1.390 . S
C1066 H1057 0.930 . S
C1066 C1064 1.384 . S
C1066 C1067 1.372 . S
C1067 C1066 1.372 . S
C1067 C1068 1.400 . S
C1067 C1072 1.490 . S
C1068 H1058 0.930 . S
C1068 C1067 1.400 . S
C1068 C1071 1.386 . S
H1069 C1085 0.930 1_556 S
H1070 C1086 0.931 . S
C1071 H1059 0.929 . S
C1071 C1065 1.390 . S
C1071 C1068 1.386 . S
C1072 C1067 1.490 . S
C1072 C1074 1.395 . S
C1072 C1075 1.403 . S
H1073 C1079 0.930 . S
C1074 H1060 0.930 . S
C1074 C1072 1.395 . S
C1074 C1077 1.403 . S
C1075 C1072 1.403 . S
C1075 C1076 1.524 . S
C1075 C1079 1.400 . S
C1076 H1061 0.960 . S
C1076 H1062 0.960 . S
C1076 H1063 0.960 . S
C1076 C1075 1.524 . S
C1077 C1074 1.403 . S
C1077 C1078 1.392 . S
C1077 C1081 1.495 . S
C1078 C1077 1.392 . S
C1078 C1079 1.385 . S
C1078 C1080 1.478 . S
C1079 H1073 0.930 . S
C1079 C1075 1.400 . S
C1079 C1078 1.385 . S
C1080 C1078 1.478 . S
C1080 C1082 1.381 . S
C1080 C1086 1.383 . S
C1081 C1077 1.495 . S
C1081 H1087 0.959 . S
C1081 H1088 0.961 . S
C1081 H1089 0.960 . S
C1082 C1080 1.381 . S
C1082 C1083 1.394 . S
C1082 H1090 0.930 . S
C1083 C1082 1.394 . S
C1083 C1084 1.383 . S
C1083 H1091 0.929 . S
C1084 C1083 1.383 . S
C1084 C1085 1.377 . S
C1085 H1069 0.930 1_554 S
C1085 C1084 1.377 . S
C1085 C1086 1.379 . S
C1086 H1070 0.931 . S
C1086 C1080 1.383 . S
C1086 C1085 1.379 . S
H1087 C1081 0.959 . S
H1088 C1081 0.961 . S
H1089 C1081 0.960 . S
H1090 C1082 0.930 . S
H1091 C1083 0.929 . S
H1092 C1100 0.929 . S
H1093 C1102 0.930 . S
H1094 C1104 0.930 . S
H1095 C1107 0.930 1_565 S
H1096 C1110 0.930 . S
H1097 C1112 0.960 . S
H1098 C1112 0.960 . S
H1099 C1112 0.960 . S
C1100 H1092 0.929 . S
C1100 C1101 1.377 . S
C1100 C1102 1.384 . S
C1101 C1100 1.377 . S
C1101 C1107 1.390 . S
C1102 H1093 0.930 . S
C1102 C1100 1.384 . S
C1102 C1103 1.372 . S
C1103 C1102 1.372 . S
C1103 C1104 1.400 . S
C1103 C1108 1.490 . S
C1104 H1094 0.930 . S
C1104 C1103 1.400 . S
C1104 C1107 1.386 . S
H1105 C1121 0.930 1_556 S
H1106 C1122 0.931 . S
C1107 H1095 0.930 1_545 S
C1107 C1101 1.390 . S
C1107 C1104 1.386 . S
C1108 C1103 1.490 . S
C1108 C1110 1.395 1_545 S
C1108 C1111 1.403 . S
H1109 C1115 0.930 . S
C1110 H1096 0.930 . S
C1110 C1108 1.395 1_565 S
C1110 C1113 1.403 . S
C1111 C1108 1.403 . S
C1111 C1112 1.524 . S
C1111 C1115 1.400 . S
C1112 H1097 0.960 . S
C1112 H1098 0.960 . S
C1112 H1099 0.960 . S
C1112 C1111 1.524 . S
C1113 C1110 1.403 . S
C1113 C1114 1.392 1_565 S
C1113 C1117 1.495 . S
C1114 C1113 1.392 1_545 S
C1114 C1115 1.385 . S
C1114 C1116 1.478 . S
C1115 H1109 0.930 . S
C1115 C1111 1.400 . S
C1115 C1114 1.385 . S
C1116 C1114 1.478 . S
C1116 C1118 1.381 . S
C1116 C1122 1.383 . S
C1117 C1113 1.495 . S
C1117 H1123 0.959 . S
C1117 H1124 0.961 . S
C1117 H1125 0.960 . S
C1118 C1116 1.381 . S
C1118 C1119 1.394 . S
C1118 H1126 0.930 . S
C1119 C1118 1.394 . S
C1119 C1120 1.383 . S
C1119 H1127 0.929 . S
C1120 C1119 1.383 . S
C1120 C1121 1.377 . S
C1121 H1105 0.930 1_554 S
C1121 C1120 1.377 . S
C1121 C1122 1.379 . S
C1122 H1106 0.931 . S
C1122 C1116 1.383 . S
C1122 C1121 1.379 . S
H1123 C1117 0.959 . S
H1124 C1117 0.961 . S
H1125 C1117 0.960 . S
H1126 C1118 0.930 . S
H1127 C1119 0.929 . S
H1128 C1136 0.929 . S
H1129 C1138 0.930 . S
H1130 C1140 0.930 . S
H1131 C1143 0.929 . S
H1132 C1146 0.930 . S
H1133 C1148 0.960 . S
H1134 C1148 0.960 . S
H1135 C1148 0.960 . S
C1136 H1128 0.929 . S
C1136 C1137 1.377 1_554 S
C1136 C1138 1.384 . S
C1137 C1136 1.377 1_556 S
C1137 C1143 1.390 . S
C1138 H1129 0.930 . S
C1138 C1136 1.384 . S
C1138 C1139 1.372 1_554 S
C1139 C1138 1.372 1_556 S
C1139 C1140 1.400 . S
C1139 C1144 1.490 . S
C1140 H1130 0.930 . S
C1140 C1139 1.400 . S
C1140 C1143 1.386 . S
H1141 C1157 0.930 . S
H1142 C1158 0.931 . S
C1143 H1131 0.929 . S
C1143 C1137 1.390 . S
C1143 C1140 1.386 . S
C1144 C1139 1.490 . S
C1144 C1146 1.395 . S
C1144 C1147 1.403 . S
H1145 C1151 0.930 . S
C1146 H1132 0.930 . S
C1146 C1144 1.395 . S
C1146 C1149 1.403 . S
C1147 C1144 1.403 . S
C1147 C1148 1.524 . S
C1147 C1151 1.400 . S
C1148 H1133 0.960 . S
C1148 H1134 0.960 . S
C1148 H1135 0.960 . S
C1148 C1147 1.524 . S
C1149 C1146 1.403 . S
C1149 C1150 1.392 . S
C1149 C1153 1.495 . S
C1150 C1149 1.392 . S
C1150 C1151 1.385 . S
C1150 C1152 1.478 . S
C1151 H1145 0.930 . S
C1151 C1147 1.400 . S
C1151 C1150 1.385 . S
C1152 C1150 1.478 . S
C1152 C1154 1.381 . S
C1152 C1158 1.383 . S
C1153 C1149 1.495 . S
C1153 H1159 0.959 . S
C1153 H1160 0.961 . S
C1153 H1161 0.960 . S
C1154 C1152 1.381 . S
C1154 C1155 1.394 . S
C1154 H1162 0.930 . S
C1155 C1154 1.394 . S
C1155 C1156 1.383 . S
C1155 H1163 0.929 . S
C1156 C1155 1.383 . S
C1156 C1157 1.377 . S
C1157 H1141 0.930 . S
C1157 C1156 1.377 . S
C1157 C1158 1.379 . S
C1158 H1142 0.931 . S
C1158 C1152 1.383 . S
C1158 C1157 1.379 . S
H1159 C1153 0.959 . S
H1160 C1153 0.961 . S
H1161 C1153 0.960 . S
H1162 C1154 0.930 . S
H1163 C1155 0.929 . S
H1164 C1172 0.929 . S
H1165 C1174 0.930 . S
H1166 C1176 0.930 . S
H1167 C1179 0.929 . S
H1168 C1182 0.930 . S
H1169 C1184 0.960 . S
H1170 C1184 0.960 . S
H1171 C1184 0.960 . S
C1172 H1164 0.929 . S
C1172 C1173 1.377 . S
C1172 C1174 1.384 . S
C1173 C1172 1.377 . S
C1173 C1179 1.390 . S
C1174 H1165 0.930 . S
C1174 C1172 1.384 . S
C1174 C1175 1.372 . S
C1175 C1174 1.372 . S
C1175 C1176 1.400 . S
C1175 C1180 1.490 . S
C1176 H1166 0.930 . S
C1176 C1175 1.400 . S
C1176 C1179 1.386 . S
H1177 C1193 0.930 . S
H1178 C1194 0.931 . S
C1179 H1167 0.929 . S
C1179 C1173 1.390 . S
C1179 C1176 1.386 . S
C1180 C1175 1.490 . S
C1180 C1182 1.395 . S
C1180 C1183 1.403 . S
H1181 C1187 0.930 . S
C1182 H1168 0.930 . S
C1182 C1180 1.395 . S
C1182 C1185 1.403 . S
C1183 C1180 1.403 . S
C1183 C1184 1.524 . S
C1183 C1187 1.400 . S
C1184 H1169 0.960 . S
C1184 H1170 0.960 . S
C1184 H1171 0.960 . S
C1184 C1183 1.524 . S
C1185 C1182 1.403 . S
C1185 C1186 1.392 . S
C1185 C1189 1.495 . S
C1186 C1185 1.392 . S
C1186 C1187 1.385 . S
C1186 C1188 1.478 . S
C1187 H1181 0.930 . S
C1187 C1183 1.400 . S
C1187 C1186 1.385 . S
C1188 C1186 1.478 . S
C1188 C1190 1.381 . S
C1188 C1194 1.383 . S
C1189 C1185 1.495 . S
C1189 H1195 0.959 . S
C1189 H1196 0.961 . S
C1189 H1197 0.960 . S
C1190 C1188 1.381 . S
C1190 C1191 1.394 . S
C1190 H1198 0.930 . S
C1191 C1190 1.394 . S
C1191 C1192 1.383 . S
C1191 H1199 0.929 1_554 S
C1192 C1191 1.383 . S
C1192 C1193 1.377 . S
C1193 H1177 0.930 . S
C1193 C1192 1.377 . S
C1193 C1194 1.379 . S
C1194 H1178 0.931 . S
C1194 C1188 1.383 . S
C1194 C1193 1.379 . S
H1195 C1189 0.959 . S
H1196 C1189 0.961 . S
H1197 C1189 0.960 . S
H1198 C1190 0.930 . S
H1199 C1191 0.929 1_556 S
H1200 C1208 0.929 . S
H1201 C1210 0.930 . S
H1202 C1212 0.930 . S
H1203 C1215 0.929 . S
H1204 C1218 0.930 . S
H1205 C1220 0.960 . S
H1206 C1220 0.960 . S
H1207 C1220 0.960 . S
C1208 H1200 0.929 . S
C1208 C1209 1.377 . S
C1208 C1210 1.384 . S
C1209 C1208 1.377 . S
C1209 C1215 1.390 . S
C1210 H1201 0.930 . S
C1210 C1208 1.384 . S
C1210 C1211 1.372 . S
C1211 C1210 1.372 . S
C1211 C1212 1.400 . S
C1211 C1216 1.490 . S
C1212 H1202 0.930 . S
C1212 C1211 1.400 . S
C1212 C1215 1.386 . S
H1213 C1229 0.930 . S
H1214 C1230 0.931 . S
C1215 H1203 0.929 . S
C1215 C1209 1.390 . S
C1215 C1212 1.386 . S
C1216 C1211 1.490 . S
C1216 C1218 1.395 . S
C1216 C1219 1.403 . S
H1217 C1223 0.930 . S
C1218 H1204 0.930 . S
C1218 C1216 1.395 . S
C1218 C1221 1.403 . S
C1219 C1216 1.403 . S
C1219 C1220 1.524 . S
C1219 C1223 1.400 . S
C1220 H1205 0.960 . S
C1220 H1206 0.960 . S
C1220 H1207 0.960 . S
C1220 C1219 1.524 . S
C1221 C1218 1.403 . S
C1221 C1222 1.392 . S
C1221 C1225 1.495 . S
C1222 C1221 1.392 . S
C1222 C1223 1.385 . S
C1222 C1224 1.478 . S
C1223 H1217 0.930 . S
C1223 C1219 1.400 . S
C1223 C1222 1.385 . S
C1224 C1222 1.478 . S
C1224 C1226 1.381 . S
C1224 C1230 1.383 . S
C1225 C1221 1.495 . S
C1225 H1231 0.959 . S
C1225 H1232 0.961 . S
C1225 H1233 0.960 . S
C1226 C1224 1.381 . S
C1226 C1227 1.394 . S
C1226 H1234 0.930 . S
C1227 C1226 1.394 . S
C1227 C1228 1.383 . S
C1227 H1235 0.929 . S
C1228 C1227 1.383 . S
C1228 C1229 1.377 . S
C1229 H1213 0.930 . S
C1229 C1228 1.377 . S
C1229 C1230 1.379 . S
C1230 H1214 0.931 . S
C1230 C1224 1.383 . S
C1230 C1229 1.379 . S
H1231 C1225 0.959 . S
H1232 C1225 0.961 . S
H1233 C1225 0.960 . S
H1234 C1226 0.930 . S
H1235 C1227 0.929 . S
H1236 C1244 0.929 . S
H1237 C1246 0.930 . S
H1238 C1248 0.930 . S
H1239 C1251 0.929 . S
H1240 C1254 0.930 . S
H1241 C1256 0.960 . S
H1242 C1256 0.960 . S
H1243 C1256 0.960 1_545 S
C1244 H1236 0.929 . S
C1244 C1245 1.377 . S
C1244 C1246 1.384 . S
C1245 C1244 1.377 . S
C1245 C1251 1.390 1_565 S
C1246 H1237 0.930 . S
C1246 C1244 1.384 . S
C1246 C1247 1.372 . S
C1247 C1246 1.372 . S
C1247 C1248 1.400 1_565 S
C1247 C1252 1.490 . S
C1248 H1238 0.930 . S
C1248 C1247 1.400 1_545 S
C1248 C1251 1.386 . S
H1249 C1265 0.936 1_545 S
H1250 C1266 0.931 . S
C1251 H1239 0.929 . S
C1251 C1245 1.390 1_545 S
C1251 C1248 1.386 . S
C1252 C1247 1.490 . S
C1252 C1254 1.395 . S
C1252 C1255 1.403 . S
H1253 C1259 0.930 . S
C1254 H1240 0.930 . S
C1254 C1252 1.395 . S
C1254 C1257 1.403 . S
C1255 C1252 1.403 . S
C1255 C1256 1.524 . S
C1255 C1259 1.400 . S
C1256 H1241 0.960 . S
C1256 H1242 0.960 . S
C1256 H1243 0.960 1_565 S
C1256 C1255 1.524 . S
C1257 C1254 1.403 . S
C1257 C1258 1.392 . S
C1257 C1261 1.495 . S
C1258 C1257 1.392 . S
C1258 C1259 1.385 . S
C1258 C1260 1.478 . S
C1259 H1253 0.930 . S
C1259 C1255 1.400 . S
C1259 C1258 1.385 . S
C1260 C1258 1.478 . S
C1260 C1262 1.381 . S
C1260 C1266 1.383 1_565 S
C1261 C1257 1.495 . S
C1261 H1267 0.959 . S
C1261 H1268 0.961 . S
C1261 H1269 0.960 . S
C1262 C1260 1.381 . S
C1262 C1263 1.394 . S
C1262 H1270 0.930 . S
C1263 C1262 1.394 . S
C1263 C1264 1.383 . S
C1263 H1271 0.929 . S
C1264 C1263 1.383 . S
C1264 C1265 1.371 . S
C1265 H1249 0.936 1_565 S
C1265 C1264 1.371 . S
C1265 C1266 1.379 1_565 S
C1266 H1250 0.931 . S
C1266 C1260 1.383 1_545 S
C1266 C1265 1.379 1_545 S
H1267 C1261 0.959 . S
H1268 C1261 0.961 . S
H1269 C1261 0.960 . S
H1270 C1262 0.930 . S
H1271 C1263 0.929 . S
H1272 C1280 0.929 . S
H1273 C1282 0.930 . S
H1274 C1284 0.930 . S
H1275 C1287 0.929 . S
H1276 C1290 0.930 . S
H1277 C1292 0.960 . S
H1278 C1292 0.960 . S
H1279 C1292 0.960 . S
C1280 H1272 0.929 . S
C1280 C1281 1.377 . S
C1280 C1282 1.384 . S
C1281 C1280 1.377 . S
C1281 C1287 1.390 . S
C1282 H1273 0.930 . S
C1282 C1280 1.384 . S
C1282 C1283 1.372 . S
C1283 C1282 1.372 . S
C1283 C1284 1.400 . S
C1283 C1288 1.490 . S
C1284 H1274 0.930 . S
C1284 C1283 1.400 . S
C1284 C1287 1.386 . S
H1285 C1301 0.930 . S
H1286 C1302 0.931 . S
C1287 H1275 0.929 . S
C1287 C1281 1.390 . S
C1287 C1284 1.386 . S
C1288 C1283 1.490 . S
C1288 C1290 1.395 . S
C1288 C1291 1.403 . S
H1289 C1295 0.930 . S
C1290 H1276 0.930 . S
C1290 C1288 1.395 . S
C1290 C1293 1.403 . S
C1291 C1288 1.403 . S
C1291 C1292 1.524 . S
C1291 C1295 1.400 . S
C1292 H1277 0.960 . S
C1292 H1278 0.960 . S
C1292 H1279 0.960 . S
C1292 C1291 1.524 . S
C1293 C1290 1.403 . S
C1293 C1294 1.392 . S
C1293 C1297 1.495 . S
C1294 C1293 1.392 . S
C1294 C1295 1.385 . S
C1294 C1296 1.478 . S
C1295 H1289 0.930 . S
C1295 C1291 1.400 . S
C1295 C1294 1.385 . S
C1296 C1294 1.478 . S
C1296 C1298 1.381 . S
C1296 C1302 1.383 . S
C1297 C1293 1.495 . S
C1297 H1303 0.959 . S
C1297 H1304 0.961 . S
C1297 H1305 0.960 . S
C1298 C1296 1.381 . S
C1298 C1299 1.394 . S
C1298 H1306 0.930 . S
C1299 C1298 1.394 . S
C1299 C1300 1.383 . S
C1299 H1307 0.929 . S
C1300 C1299 1.383 . S
C1300 C1301 1.377 . S
C1301 H1285 0.930 . S
C1301 C1300 1.377 . S
C1301 C1302 1.379 . S
C1302 H1286 0.931 . S
C1302 C1296 1.383 . S
C1302 C1301 1.379 . S
H1303 C1297 0.959 . S
H1304 C1297 0.961 . S
H1305 C1297 0.960 . S
H1306 C1298 0.930 . S
H1307 C1299 0.929 . S
H1308 C1316 0.929 . S
H1309 C1318 0.930 . S
H1310 C1320 0.930 . S
H1311 C1323 0.929 . S
H1312 C1326 0.930 . S
H1313 C1328 0.960 . S
H1314 C1328 0.960 . S
H1315 C1328 0.960 . S
C1316 H1308 0.929 . S
C1316 C1317 1.377 . S
C1316 C1318 1.384 . S
C1317 C1316 1.377 . S
C1317 C1323 1.390 . S
C1318 H1309 0.930 . S
C1318 C1316 1.384 . S
C1318 C1319 1.372 . S
C1319 C1318 1.372 . S
C1319 C1320 1.400 . S
C1319 C1324 1.490 . S
C1320 H1310 0.930 . S
C1320 C1319 1.400 . S
C1320 C1323 1.386 . S
H1321 C1337 0.930 . S
H1322 C1338 0.931 . S
C1323 H1311 0.929 . S
C1323 C1317 1.390 . S
C1323 C1320 1.386 . S
C1324 C1319 1.490 . S
C1324 C1326 1.395 . S
C1324 C1327 1.403 . S
H1325 C1331 0.930 . S
C1326 H1312 0.930 . S
C1326 C1324 1.395 . S
C1326 C1329 1.403 . S
C1327 C1324 1.403 . S
C1327 C1328 1.524 . S
C1327 C1331 1.400 . S
C1328 H1313 0.960 . S
C1328 H1314 0.960 . S
C1328 H1315 0.960 . S
C1328 C1327 1.524 . S
C1329 C1326 1.403 . S
C1329 C1330 1.392 . S
C1329 C1333 1.495 . S
C1330 C1329 1.392 . S
C1330 C1331 1.385 . S
C1330 C1332 1.478 . S
C1331 H1325 0.930 . S
C1331 C1327 1.400 . S
C1331 C1330 1.385 . S
C1332 C1330 1.478 . S
C1332 C1334 1.381 . S
C1332 C1338 1.383 . S
C1333 C1329 1.495 . S
C1333 H1339 0.959 . S
C1333 H1340 0.961 . S
C1333 H1341 0.960 . S
C1334 C1332 1.381 . S
C1334 C1335 1.394 . S
C1334 H1342 0.930 . S
C1335 C1334 1.394 . S
C1335 C1336 1.383 . S
C1335 H1343 0.929 . S
C1336 C1335 1.383 . S
C1336 C1337 1.377 . S
C1337 H1321 0.930 . S
C1337 C1336 1.377 . S
C1337 C1338 1.379 . S
C1338 H1322 0.931 . S
C1338 C1332 1.383 . S
C1338 C1337 1.379 . S
H1339 C1333 0.959 . S
H1340 C1333 0.961 . S
H1341 C1333 0.960 . S
H1342 C1334 0.930 . S
H1343 C1335 0.929 . S
C489 C255 0.803 1_565 S
C508 C329 0.842 . S
C544 C369 1.821 . S
C525 C295 1.899 . S
C580 C418 1.710 . S
C561 C175 1.699 . S
C616 C449 2.196 . S
C597 C215 2.232 . S
C652 C338 0.733 . S
C633 C95 0.799 . S
C669 C135 1.889 . S
C688 C378 1.878 . S
C705 C15 1.706 . S
C724 C409 1.684 . S
C741 C55 2.224 . S
C760 C458 2.202 1_655 S
C796 C339 1.277 . S
C777 C221 1.174 . S
C832 C379 0.523 . S
C813 C261 0.627 . S
C868 C415 0.388 . S
C849 C301 0.433 . S
C885 C181 1.181 . S
C904 C459 1.374 . S
C921 C61 1.064 . S
C940 C330 1.251 1_655 S
C976 C370 0.487 . S
C957 C101 0.618 . S
C1012 C406 0.469 . S
C993 C141 0.537 . S
C1029 C21 1.276 . S
C1048 C450 1.374 . S
C1065 C202 2.293 . S
C1084 C335 2.347 1_554 S
C1101 C242 1.732 . S
C1120 C375 1.769 1_554 S
C1156 C419 2.980 . S
C1137 C282 2.804 1_556 S
C1192 C455 1.896 1_554 S
C1173 C162 1.774 . S
C1209 C42 2.203 . S
C1228 C326 2.355 . S
C1264 C366 1.783 . S
C1245 C82 1.753 1_565 S
C1300 C410 2.973 . S
C1281 C122 2.704 . S
C1317 C2 1.865 . S
C1336 C446 1.874 . S
