# Generated by pormake.
# Topology gar, (4,6)-cn, num edge types: 1
# Building blocks:
#     Node 0, Type 0, BuildingBlock: QUQFOY_clean_sbu_1, # of connection points: 4
#     Node 1, Type 0, BuildingBlock: QUQFOY_clean_sbu_1, # of connection points: 4
#     Node 2, Type 0, BuildingBlock: QUQFOY_clean_sbu_1, # of connection points: 4
#     Node 3, Type 0, BuildingBlock: QUQFOY_clean_sbu_1, # of connection points: 4
#     Node 4, Type 0, BuildingBlock: QUQFOY_clean_sbu_1, # of connection points: 4
#     Node 5, Type 0, BuildingBlock: QUQFOY_clean_sbu_1, # of connection points: 4
#     Node 6, Type 0, BuildingBlock: QUQFOY_clean_sbu_1, # of connection points: 4
#     Node 7, Type 0, BuildingBlock: QUQFOY_clean_sbu_1, # of connection points: 4
#     Node 8, Type 0, BuildingBlock: QUQFOY_clean_sbu_1, # of connection points: 4
#     Node 9, Type 0, BuildingBlock: QUQFOY_clean_sbu_1, # of connection points: 4
#     Node 10, Type 0, BuildingBlock: QUQFOY_clean_sbu_1, # of connection points: 4
#     Node 11, Type 0, BuildingBlock: QUQFOY_clean_sbu_1, # of connection points: 4
#     Node 12, Type 0, BuildingBlock: QUQFOY_clean_sbu_1, # of connection points: 4
#     Node 13, Type 0, BuildingBlock: QUQFOY_clean_sbu_1, # of connection points: 4
#     Node 14, Type 0, BuildingBlock: QUQFOY_clean_sbu_1, # of connection points: 4
#     Node 15, Type 0, BuildingBlock: QUQFOY_clean_sbu_1, # of connection points: 4
#     Node 16, Type 0, BuildingBlock: QUQFOY_clean_sbu_1, # of connection points: 4
#     Node 17, Type 0, BuildingBlock: QUQFOY_clean_sbu_1, # of connection points: 4
#     Node 18, Type 0, BuildingBlock: QUQFOY_clean_sbu_1, # of connection points: 4
#     Node 19, Type 0, BuildingBlock: QUQFOY_clean_sbu_1, # of connection points: 4
#     Node 20, Type 0, BuildingBlock: QUQFOY_clean_sbu_1, # of connection points: 4
#     Node 21, Type 0, BuildingBlock: QUQFOY_clean_sbu_1, # of connection points: 4
#     Node 22, Type 0, BuildingBlock: QUQFOY_clean_sbu_1, # of connection points: 4
#     Node 23, Type 0, BuildingBlock: QUQFOY_clean_sbu_1, # of connection points: 4
#     Node 24, Type 1, BuildingBlock: CUKXOW_clean_sbu_0, # of connection points: 6
#     Node 25, Type 1, BuildingBlock: CUKXOW_clean_sbu_0, # of connection points: 6
#     Node 26, Type 1, BuildingBlock: CUKXOW_clean_sbu_0, # of connection points: 6
#     Node 27, Type 1, BuildingBlock: CUKXOW_clean_sbu_0, # of connection points: 6
#     Node 28, Type 1, BuildingBlock: CUKXOW_clean_sbu_0, # of connection points: 6
#     Node 29, Type 1, BuildingBlock: CUKXOW_clean_sbu_0, # of connection points: 6
#     Node 30, Type 1, BuildingBlock: CUKXOW_clean_sbu_0, # of connection points: 6
#     Node 31, Type 1, BuildingBlock: CUKXOW_clean_sbu_0, # of connection points: 6
#     Node 32, Type 1, BuildingBlock: CUKXOW_clean_sbu_0, # of connection points: 6
#     Node 33, Type 1, BuildingBlock: CUKXOW_clean_sbu_0, # of connection points: 6
#     Node 34, Type 1, BuildingBlock: CUKXOW_clean_sbu_0, # of connection points: 6
#     Node 35, Type 1, BuildingBlock: CUKXOW_clean_sbu_0, # of connection points: 6
#     Node 36, Type 1, BuildingBlock: CUKXOW_clean_sbu_0, # of connection points: 6
#     Node 37, Type 1, BuildingBlock: CUKXOW_clean_sbu_0, # of connection points: 6
#     Node 38, Type 1, BuildingBlock: CUKXOW_clean_sbu_0, # of connection points: 6
#     Node 39, Type 1, BuildingBlock: CUKXOW_clean_sbu_0, # of connection points: 6
#     Edge 40, Type (0, 1), BuildingBlock: OJICUG_clean_linker_0, # of connection points: 2
#     Edge 41, Type (0, 1), BuildingBlock: OJICUG_clean_linker_0, # of connection points: 2
#     Edge 42, Type (0, 1), BuildingBlock: OJICUG_clean_linker_0, # of connection points: 2
#     Edge 43, Type (0, 1), BuildingBlock: OJICUG_clean_linker_0, # of connection points: 2
#     Edge 44, Type (0, 1), BuildingBlock: OJICUG_clean_linker_0, # of connection points: 2
#     Edge 45, Type (0, 1), BuildingBlock: OJICUG_clean_linker_0, # of connection points: 2
#     Edge 46, Type (0, 1), BuildingBlock: OJICUG_clean_linker_0, # of connection points: 2
#     Edge 47, Type (0, 1), BuildingBlock: OJICUG_clean_linker_0, # of connection points: 2
#     Edge 48, Type (0, 1), BuildingBlock: OJICUG_clean_linker_0, # of connection points: 2
#     Edge 49, Type (0, 1), BuildingBlock: OJICUG_clean_linker_0, # of connection points: 2
#     Edge 50, Type (0, 1), BuildingBlock: OJICUG_clean_linker_0, # of connection points: 2
#     Edge 51, Type (0, 1), BuildingBlock: OJICUG_clean_linker_0, # of connection points: 2
#     Edge 52, Type (0, 1), BuildingBlock: OJICUG_clean_linker_0, # of connection points: 2
#     Edge 53, Type (0, 1), BuildingBlock: OJICUG_clean_linker_0, # of connection points: 2
#     Edge 54, Type (0, 1), BuildingBlock: OJICUG_clean_linker_0, # of connection points: 2
#     Edge 55, Type (0, 1), BuildingBlock: OJICUG_clean_linker_0, # of connection points: 2
#     Edge 56, Type (0, 1), BuildingBlock: OJICUG_clean_linker_0, # of connection points: 2
#     Edge 57, Type (0, 1), BuildingBlock: OJICUG_clean_linker_0, # of connection points: 2
#     Edge 58, Type (0, 1), BuildingBlock: OJICUG_clean_linker_0, # of connection points: 2
#     Edge 59, Type (0, 1), BuildingBlock: OJICUG_clean_linker_0, # of connection points: 2
#     Edge 60, Type (0, 1), BuildingBlock: OJICUG_clean_linker_0, # of connection points: 2
#     Edge 61, Type (0, 1), BuildingBlock: OJICUG_clean_linker_0, # of connection points: 2
#     Edge 62, Type (0, 1), BuildingBlock: OJICUG_clean_linker_0, # of connection points: 2
#     Edge 63, Type (0, 1), BuildingBlock: OJICUG_clean_linker_0, # of connection points: 2
#     Edge 64, Type (0, 1), BuildingBlock: OJICUG_clean_linker_0, # of connection points: 2
#     Edge 65, Type (0, 1), BuildingBlock: OJICUG_clean_linker_0, # of connection points: 2
#     Edge 66, Type (0, 1), BuildingBlock: OJICUG_clean_linker_0, # of connection points: 2
#     Edge 67, Type (0, 1), BuildingBlock: OJICUG_clean_linker_0, # of connection points: 2
#     Edge 68, Type (0, 1), BuildingBlock: OJICUG_clean_linker_0, # of connection points: 2
#     Edge 69, Type (0, 1), BuildingBlock: OJICUG_clean_linker_0, # of connection points: 2
#     Edge 70, Type (0, 1), BuildingBlock: OJICUG_clean_linker_0, # of connection points: 2
#     Edge 71, Type (0, 1), BuildingBlock: OJICUG_clean_linker_0, # of connection points: 2
#     Edge 72, Type (0, 1), BuildingBlock: OJICUG_clean_linker_0, # of connection points: 2
#     Edge 73, Type (0, 1), BuildingBlock: OJICUG_clean_linker_0, # of connection points: 2
#     Edge 74, Type (0, 1), BuildingBlock: OJICUG_clean_linker_0, # of connection points: 2
#     Edge 75, Type (0, 1), BuildingBlock: OJICUG_clean_linker_0, # of connection points: 2
#     Edge 76, Type (0, 1), BuildingBlock: OJICUG_clean_linker_0, # of connection points: 2
#     Edge 77, Type (0, 1), BuildingBlock: OJICUG_clean_linker_0, # of connection points: 2
#     Edge 78, Type (0, 1), BuildingBlock: OJICUG_clean_linker_0, # of connection points: 2
#     Edge 79, Type (0, 1), BuildingBlock: OJICUG_clean_linker_0, # of connection points: 2
#     Edge 80, Type (0, 1), BuildingBlock: OJICUG_clean_linker_0, # of connection points: 2
#     Edge 81, Type (0, 1), BuildingBlock: OJICUG_clean_linker_0, # of connection points: 2
#     Edge 82, Type (0, 1), BuildingBlock: OJICUG_clean_linker_0, # of connection points: 2
#     Edge 83, Type (0, 1), BuildingBlock: OJICUG_clean_linker_0, # of connection points: 2
#     Edge 84, Type (0, 1), BuildingBlock: OJICUG_clean_linker_0, # of connection points: 2
#     Edge 85, Type (0, 1), BuildingBlock: OJICUG_clean_linker_0, # of connection points: 2
#     Edge 86, Type (0, 1), BuildingBlock: OJICUG_clean_linker_0, # of connection points: 2
#     Edge 87, Type (0, 1), BuildingBlock: OJICUG_clean_linker_0, # of connection points: 2
#     Edge 88, Type (0, 1), BuildingBlock: OJICUG_clean_linker_0, # of connection points: 2
#     Edge 89, Type (0, 1), BuildingBlock: OJICUG_clean_linker_0, # of connection points: 2
#     Edge 90, Type (0, 1), BuildingBlock: OJICUG_clean_linker_0, # of connection points: 2
#     Edge 91, Type (0, 1), BuildingBlock: OJICUG_clean_linker_0, # of connection points: 2
#     Edge 92, Type (0, 1), BuildingBlock: OJICUG_clean_linker_0, # of connection points: 2
#     Edge 93, Type (0, 1), BuildingBlock: OJICUG_clean_linker_0, # of connection points: 2
#     Edge 94, Type (0, 1), BuildingBlock: OJICUG_clean_linker_0, # of connection points: 2
#     Edge 95, Type (0, 1), BuildingBlock: OJICUG_clean_linker_0, # of connection points: 2
#     Edge 96, Type (0, 1), BuildingBlock: OJICUG_clean_linker_0, # of connection points: 2
#     Edge 97, Type (0, 1), BuildingBlock: OJICUG_clean_linker_0, # of connection points: 2
#     Edge 98, Type (0, 1), BuildingBlock: OJICUG_clean_linker_0, # of connection points: 2
#     Edge 99, Type (0, 1), BuildingBlock: OJICUG_clean_linker_0, # of connection points: 2
#     Edge 100, Type (0, 1), BuildingBlock: OJICUG_clean_linker_0, # of connection points: 2
#     Edge 101, Type (0, 1), BuildingBlock: OJICUG_clean_linker_0, # of connection points: 2
#     Edge 102, Type (0, 1), BuildingBlock: OJICUG_clean_linker_0, # of connection points: 2
#     Edge 103, Type (0, 1), BuildingBlock: OJICUG_clean_linker_0, # of connection points: 2
#     Edge 104, Type (0, 1), BuildingBlock: OJICUG_clean_linker_0, # of connection points: 2
#     Edge 105, Type (0, 1), BuildingBlock: OJICUG_clean_linker_0, # of connection points: 2
#     Edge 106, Type (0, 1), BuildingBlock: OJICUG_clean_linker_0, # of connection points: 2
#     Edge 107, Type (0, 1), BuildingBlock: OJICUG_clean_linker_0, # of connection points: 2
#     Edge 108, Type (0, 1), BuildingBlock: OJICUG_clean_linker_0, # of connection points: 2
#     Edge 109, Type (0, 1), BuildingBlock: OJICUG_clean_linker_0, # of connection points: 2
#     Edge 110, Type (0, 1), BuildingBlock: OJICUG_clean_linker_0, # of connection points: 2
#     Edge 111, Type (0, 1), BuildingBlock: OJICUG_clean_linker_0, # of connection points: 2
#     Edge 112, Type (0, 1), BuildingBlock: OJICUG_clean_linker_0, # of connection points: 2
#     Edge 113, Type (0, 1), BuildingBlock: OJICUG_clean_linker_0, # of connection points: 2
#     Edge 114, Type (0, 1), BuildingBlock: OJICUG_clean_linker_0, # of connection points: 2
#     Edge 115, Type (0, 1), BuildingBlock: OJICUG_clean_linker_0, # of connection points: 2
#     Edge 116, Type (0, 1), BuildingBlock: OJICUG_clean_linker_0, # of connection points: 2
#     Edge 117, Type (0, 1), BuildingBlock: OJICUG_clean_linker_0, # of connection points: 2
#     Edge 118, Type (0, 1), BuildingBlock: OJICUG_clean_linker_0, # of connection points: 2
#     Edge 119, Type (0, 1), BuildingBlock: OJICUG_clean_linker_0, # of connection points: 2
#     Edge 120, Type (0, 1), BuildingBlock: OJICUG_clean_linker_0, # of connection points: 2
#     Edge 121, Type (0, 1), BuildingBlock: OJICUG_clean_linker_0, # of connection points: 2
#     Edge 122, Type (0, 1), BuildingBlock: OJICUG_clean_linker_0, # of connection points: 2
#     Edge 123, Type (0, 1), BuildingBlock: OJICUG_clean_linker_0, # of connection points: 2
#     Edge 124, Type (0, 1), BuildingBlock: OJICUG_clean_linker_0, # of connection points: 2
#     Edge 125, Type (0, 1), BuildingBlock: OJICUG_clean_linker_0, # of connection points: 2
#     Edge 126, Type (0, 1), BuildingBlock: OJICUG_clean_linker_0, # of connection points: 2
#     Edge 127, Type (0, 1), BuildingBlock: OJICUG_clean_linker_0, # of connection points: 2
#     Edge 128, Type (0, 1), BuildingBlock: OJICUG_clean_linker_0, # of connection points: 2
#     Edge 129, Type (0, 1), BuildingBlock: OJICUG_clean_linker_0, # of connection points: 2
#     Edge 130, Type (0, 1), BuildingBlock: OJICUG_clean_linker_0, # of connection points: 2
#     Edge 131, Type (0, 1), BuildingBlock: OJICUG_clean_linker_0, # of connection points: 2
#     Edge 132, Type (0, 1), BuildingBlock: OJICUG_clean_linker_0, # of connection points: 2
#     Edge 133, Type (0, 1), BuildingBlock: OJICUG_clean_linker_0, # of connection points: 2
#     Edge 134, Type (0, 1), BuildingBlock: OJICUG_clean_linker_0, # of connection points: 2
#     Edge 135, Type (0, 1), BuildingBlock: OJICUG_clean_linker_0, # of connection points: 2
# Relax obj value: 0.127
# Max RMSD: 0.243
# Mean RMSD: 0.161
data_MOF--net-gar--node1-QUQFOY_clean_sbu_1--node2-CUKXOW_clean_sbu_0--edge1-OJICUG_clean_linker_0
_symmetry_space_group_name_H-M    P1
_symmetry_Int_Tables_number       1
_symmetry_cell_setting            triclinic
loop_
_symmetry_equiv_pos_as_xyz
'x, y, z'
_cell_length_a     41.624955
_cell_length_b     40.268247
_cell_length_c     40.399198
_cell_angle_alpha  94.407147
_cell_angle_beta   95.046706
_cell_angle_gamma 100.59484
loop_
_atom_site_label
_atom_site_type_symbol
_atom_site_fract_x
_atom_site_fract_y
_atom_site_fract_z
_atom_type_partial_charge
O0 O 0.04691 0.20534 0.45708 0.0
Cd1 Cd 0.03818 0.22773 0.41433 0.0
Cd2 Cd 0.02064 0.27794 0.46203 0.0
O3 O 0.0218 0.23678 0.48973 0.0
O4 O 0.05875 0.20484 0.37883 0.0
O5 O 0.07298 0.25974 0.39578 0.0
C6 C 0.07613 0.23421 0.37569 0.0
C7 C 0.02912 0.33185 0.49136 0.0
C8 C 0.03556 0.21144 0.48456 0.0
C9 C 0.9776 0.25149 0.39692 0.0
O10 O 0.98831 0.27523 0.41991 0.0
O11 O 0.99107 0.22582 0.39385 0.0
O12 O 1.00285 0.30964 0.4926 0.0
O13 O 0.05167 0.32293 0.47459 0.0
O14 O 0.994 0.7453 0.577 0.0
Cd15 Cd 1.00721 0.78242 0.61602 0.0
Cd16 Cd 0.04612 0.80967 0.57421 0.0
O17 O 0.03321 0.76357 0.54595 0.0
O18 O 0.97745 0.76306 0.64781 0.0
O19 O 0.97768 0.81395 0.63074 0.0
C20 C 0.96616 0.79069 0.64913 0.0
C21 C 0.02922 0.8573 0.55667 0.0
C22 C 1.00927 0.74097 0.55167 0.0
C23 C 0.07913 0.80088 0.63939 0.0
O24 O 0.0832 0.81494 0.61261 0.0
O25 O 0.05096 0.78512 0.64429 0.0
O26 O 0.05508 0.84798 0.54649 0.0
O27 O 0.0125 0.83895 0.57648 0.0
O28 O 0.61694 0.78706 0.95349 0.0
Cd29 Cd 0.58552 0.79043 0.98899 0.0
Cd30 Cd 0.53617 0.7899 0.93711 0.0
O31 O 0.57678 0.78405 0.91341 0.0
O32 O 0.59522 0.76257 0.02514 0.0
O33 O 0.5503 0.74983 0.98887 0.0
C34 C 0.56825 0.74188 0.01372 0.0
C35 C 0.48943 0.77376 0.89905 0.0
C36 C 0.60656 0.78359 0.92276 0.0
C37 C 0.5522 0.84784 0.99405 0.0
O38 O 0.53393 0.83205 0.96875 0.0
O39 O 0.57684 0.83673 1.0062 0.0
O40 O 0.51066 0.80089 0.89732 0.0
O41 O 0.4942 0.75549 0.92323 0.0
O42 O 0.4853 0.24921 0.08403 0.0
Cd43 Cd 0.49863 0.28805 0.12172 0.0
Cd44 Cd 0.53543 0.31701 0.07758 0.0
O45 O 0.52211 0.26978 0.05117 0.0
O46 O 0.47106 0.27236 0.15696 0.0
O47 O 0.46969 0.32083 0.13519 0.0
C48 C 0.46013 0.30021 0.15687 0.0
C49 C 0.52534 0.36471 0.05305 0.0
C50 C 0.49991 0.24585 0.058 0.0
C51 C 0.57111 0.30898 0.14207 0.0
O52 O 0.57343 0.32338 0.11529 0.0
O53 O 0.54371 0.29224 0.14803 0.0
O54 O 0.54986 0.35083 0.04624 0.0
O55 O 0.50588 0.35099 0.07355 0.0
O56 O 0.997 0.69608 0.16467 0.0
Cd57 Cd 0.99927 0.73386 0.20398 0.0
Cd58 Cd 0.02591 0.77638 0.16098 0.0
O59 O 0.02193 0.73156 0.13195 0.0
O60 O 0.9638 0.72135 0.23426 0.0
O61 O 0.96514 0.76414 0.20305 0.0
C62 C 0.95066 0.74612 0.22455 0.0
C63 C 0.01947 0.82178 0.13046 0.0
C64 C 1.00927 0.70158 0.13731 0.0
C65 C 0.0681 0.77312 0.22458 0.0
O66 O 0.06363 0.78816 0.19862 0.0
O67 O 0.04562 0.7495 0.23176 0.0
O68 O 0.04501 0.80819 0.12985 0.0
O69 O 0.99687 0.80945 0.14847 0.0
O70 O 0.60321 0.79619 0.3635 0.0
Cd71 Cd 0.56848 0.79566 0.39718 0.0
Cd72 Cd 0.53258 0.81522 0.33738 0.0
O73 O 0.5755 0.80556 0.31686 0.0
O74 O 0.58508 0.7717 0.4348 0.0
O75 O 0.53786 0.75226 0.40389 0.0
C76 C 0.55885 0.74867 0.42826 0.0
C77 C 0.4788 0.80011 0.30884 0.0
C78 C 0.60171 0.79959 0.33236 0.0
C79 C 0.54593 0.86218 0.40368 0.0
O80 O 0.53551 0.8564 0.37279 0.0
O81 O 0.5597 0.84094 0.41845 0.0
O82 O 0.50003 0.82509 0.30102 0.0
O83 O 0.4888 0.78191 0.33117 0.0
O84 O 0.49462 0.18742 0.663 0.0
Cd85 Cd 0.49621 0.23043 0.69626 0.0
Cd86 Cd 0.51954 0.26384 0.64233 0.0
O87 O 0.50789 0.21494 0.61934 0.0
O88 O 0.46537 0.21964 0.73184 0.0
O89 O 0.45858 0.25658 0.69558 0.0
C90 C 0.44848 0.24109 0.72072 0.0
C91 C 0.5076 0.30749 0.61091 0.0
C92 C 0.50007 0.18725 0.6324 0.0
C93 C 0.56697 0.26818 0.70508 0.0
O94 O 0.56208 0.27569 0.67524 0.0
O95 O 0.54362 0.25129 0.71889 0.0
O96 O 0.53006 0.29087 0.60372 0.0
O97 O 0.49146 0.29919 0.63587 0.0
O98 O 0.03275 0.22744 0.87135 0.0
Cd99 Cd 0.03694 0.2599 0.83416 0.0
Cd100 Cd 0.02037 0.30546 0.88779 0.0
O101 O 0.03034 0.26524 0.91324 0.0
O102 O 0.06414 0.2411 0.80124 0.0
O103 O 0.08217 0.28919 0.83297 0.0
C104 C 0.08786 0.26634 0.81114 0.0
C105 C 0.02456 0.35474 0.92438 0.0
C106 C 0.03233 0.23534 0.90238 0.0
C107 C 0.97262 0.28355 0.82285 0.0
O108 O 0.98007 0.29893 0.85201 0.0
O109 O 0.9924 0.26702 0.80969 0.0
O110 O 1.00193 0.32848 0.92487 0.0
O111 O 0.04535 0.35355 0.90266 0.0
O112 O 0.43015 0.0908 0.19314 0.0
Cd113 Cd 0.39496 0.09087 0.22651 0.0
Cd114 Cd 0.44902 0.0673 0.26881 0.0
O115 O 0.46899 0.07154 0.22324 0.0
O116 O 0.35908 0.1109 0.20405 0.0
O117 O 0.38756 0.13383 0.25157 0.0
C118 C 0.36401 0.13423 0.22861 0.0
C119 C 0.48043 0.07649 0.3214 0.0
C120 C 0.45772 0.08126 0.19598 0.0
C121 C 0.37989 0.02385 0.25671 0.0
O122 O 0.40932 0.02913 0.27015 0.0
O123 O 0.36986 0.04466 0.23807 0.0
O124 O 0.483 0.05225 0.29968 0.0
O125 O 0.46212 0.09753 0.31231 0.0
O126 O 0.28798 0.15075 0.5467 0.0
Cd127 Cd 0.27175 0.11259 0.50937 0.0
Cd128 Cd 0.25106 0.16614 0.47903 0.0
O129 O 0.26463 0.19006 0.52538 0.0
O130 O 0.28739 0.07599 0.53227 0.0
O131 O 0.30438 0.09265 0.48469 0.0
C132 C 0.30623 0.07382 0.50899 0.0
C133 C 0.26563 0.20288 0.43945 0.0
C134 C 0.28116 0.18013 0.54908 0.0
C135 C 0.20008 0.10523 0.48374 0.0
O136 O 0.2067 0.13336 0.47129 0.0
O137 O 0.22244 0.09365 0.49993 0.0
O138 O 0.2414 0.20525 0.45656 0.0
O139 O 0.28093 0.17813 0.44362 0.0
O140 O 0.16441 0.9826 0.74732 0.0
Cd141 Cd 0.20463 0.99252 0.78245 0.0
Cd142 Cd 0.15872 0.01681 0.82406 0.0
O143 O 0.13125 0.00432 0.77869 0.0
O144 O 0.23604 0.96734 0.76151 0.0
O145 O 0.21773 0.95627 0.80997 0.0
C146 C 0.23512 0.94912 0.7864 0.0
C147 C 0.12363 0.01129 0.86726 0.0
C148 C 0.13692 0.99106 0.75083 0.0
C149 C 0.21869 0.06699 0.80875 0.0
O150 O 0.19442 0.06063 0.82598 0.0
O151 O 0.22679 0.04346 0.79022 0.0
O152 O 0.12433 0.03478 0.84746 0.0
O153 O 0.14435 0.99137 0.86404 0.0
O154 O 0.21914 0.88632 0.09876 0.0
Cd155 Cd 0.21747 0.92574 0.06752 0.0
Cd156 Cd 0.23968 0.86988 0.02038 0.0
O157 O 0.2355 0.84737 0.06551 0.0
O158 O 0.19297 0.95986 0.08884 0.0
O159 O 0.17798 0.93461 0.03807 0.0
C160 C 0.17356 0.95646 0.06157 0.0
C161 C 0.23752 0.83603 0.96858 0.0
C162 C 0.22803 0.85766 0.09409 0.0
C163 C 0.28208 0.94241 0.0379 0.0
O164 O 0.27514 0.91326 0.02162 0.0
O165 O 0.26332 0.95186 0.05849 0.0
O166 O 0.26049 0.83745 0.9924 0.0
O167 O 0.21424 0.85211 0.97462 0.0
O168 O 0.26152 0.4292 0.12826 0.0
Cd169 Cd 0.27375 0.47037 0.10263 0.0
Cd170 Cd 0.28047 0.42385 0.04885 0.0
O171 O 0.26587 0.39345 0.08536 0.0
O172 O 0.24569 0.50486 0.10617 0.0
O173 O 0.24633 0.47087 0.06017 0.0
C174 C 0.235 0.49505 0.07525 0.0
C175 C 0.27787 0.39102 0.99863 0.0
C176 C 0.2596 0.39915 0.11514 0.0
C177 C 0.33575 0.48456 0.07722 0.0
O178 O 0.32153 0.46204 0.05425 0.0
O179 O 0.32212 0.49086 0.10312 0.0
O180 O 0.29997 0.39075 0.02277 0.0
O181 O 0.25659 0.41018 1.00283 0.0
O182 O 0.82696 0.18672 0.07226 0.0
Cd183 Cd 0.8216 0.1481 0.03349 0.0
Cd184 Cd 0.79196 0.20128 0.99897 0.0
O185 O 0.80517 0.22573 0.04708 0.0
O186 O 0.84466 0.11282 0.05254 0.0
O187 O 0.85938 0.13695 0.00785 0.0
C188 C 0.86367 0.1153 0.02901 0.0
C189 C 0.79031 0.23137 0.95077 0.0
C190 C 0.81787 0.21535 0.07336 0.0
C191 C 0.74934 0.13235 1.00633 0.0
O192 O 0.75295 0.16149 0.99561 0.0
O193 O 0.77333 0.12227 0.02161 0.0
O194 O 0.77144 0.23485 0.97385 0.0
O195 O 0.81178 0.21241 0.95584 0.0
O196 O 0.10748 0.47479 0.22312 0.0
Cd197 Cd 0.14479 0.48045 0.2618 0.0
Cd198 Cd 0.09926 0.51574 0.29284 0.0
O199 O 0.07388 0.50502 0.24499 0.0
O200 O 0.1743 0.45137 0.24323 0.0
O201 O 0.15526 0.44487 0.29209 0.0
C202 C 0.17325 0.43588 0.26989 0.0
C203 C 0.07112 0.51251 0.34122 0.0
C204 C 0.08191 0.48796 0.22014 0.0
C205 C 0.16828 0.55405 0.28486 0.0
O206 O 0.14107 0.55337 0.29715 0.0
O207 O 0.17428 0.52778 0.26906 0.0
O208 O 0.07069 0.53692 0.32248 0.0
O209 O 0.08649 0.48885 0.33196 0.0
O210 O 0.74136 0.90361 0.62366 0.0
Cd211 Cd 0.75987 0.94531 0.59897 0.0
Cd212 Cd 0.78609 0.90188 0.5626 0.0
O213 O 0.75925 0.86827 0.5888 0.0
O214 O 0.73144 0.97951 0.59955 0.0
O215 O 0.73822 0.94842 0.55368 0.0
C216 C 0.72535 0.97205 0.56766 0.0
C217 C 0.78659 0.88163 0.50801 0.0
C218 C 0.74345 0.87349 0.61337 0.0
C219 C 0.83243 0.95982 0.60117 0.0
O220 O 0.82901 0.93134 0.58426 0.0
O221 O 0.80758 0.97134 0.60932 0.0
O222 O 0.80147 0.86924 0.53195 0.0
O223 O 0.77173 0.90634 0.51487 0.0
O224 O 0.88782 0.07176 0.1882 0.0
Cd225 Cd 0.84981 0.064 0.21857 0.0
Cd226 Cd 0.89798 0.05542 0.26615 0.0
O227 O 0.92606 0.06397 0.22659 0.0
O228 O 0.81562 0.08967 0.20277 0.0
O229 O 0.84482 0.10204 0.25213 0.0
C230 C 0.82248 0.10868 0.23067 0.0
C231 C 0.92549 0.0712 0.31975 0.0
C232 C 0.91753 0.07007 0.19701 0.0
C233 C 0.8395 0.99715 0.24704 0.0
O234 O 0.86595 0.00973 0.26534 0.0
O235 O 0.82815 0.01412 0.225 0.0
O236 O 0.9326 0.0478 0.29986 0.0
O237 O 0.90317 0.08721 0.30887 0.0
O238 O 0.32804 0.68348 0.57333 0.0
Cd239 Cd 0.32206 0.64669 0.53315 0.0
Cd240 Cd 0.29097 0.69955 0.50182 0.0
O241 O 0.30494 0.72289 0.55045 0.0
O242 O 0.34542 0.61087 0.55005 0.0
O243 O 0.35942 0.63714 0.50624 0.0
C244 C 0.36397 0.61451 0.5262 0.0
C245 C 0.29008 0.73034 0.45393 0.0
C246 C 0.31851 0.71183 0.57589 0.0
C247 C 0.24935 0.63008 0.5084 0.0
O248 O 0.25195 0.65951 0.49839 0.0
O249 O 0.2741 0.62022 0.52231 0.0
O250 O 0.27103 0.7337 0.47689 0.0
O251 O 0.31123 0.71098 0.45892 0.0
O252 O 0.38027 0.55619 0.68006 0.0
Cd253 Cd 0.34447 0.55012 0.71314 0.0
Cd254 Cd 0.39306 0.54106 0.75738 0.0
O255 O 0.41802 0.54309 0.71573 0.0
O256 O 0.31012 0.57688 0.70037 0.0
O257 O 0.34297 0.58885 0.74756 0.0
C258 C 0.31943 0.59603 0.72797 0.0
C259 C 0.42605 0.56325 0.80654 0.0
C260 C 0.40904 0.55042 0.68685 0.0
C261 C 0.33402 0.4843 0.74398 0.0
O262 O 0.36048 0.49725 0.76209 0.0
O263 O 0.32299 0.50045 0.72101 0.0
O264 O 0.42995 0.53624 0.7896 0.0
O265 O 0.40296 0.57829 0.7957 0.0
O266 O 0.60052 0.97052 0.71629 0.0
Cd267 Cd 0.63861 0.97614 0.75433 0.0
Cd268 Cd 0.59059 0.01306 0.78562 0.0
O269 O 0.56566 0.99972 0.73764 0.0
O270 O 0.67123 0.95342 0.73246 0.0
O271 O 0.65203 0.93738 0.77886 0.0
C272 C 0.67167 0.93414 0.75634 0.0
C273 C 0.56302 0.01227 0.83442 0.0
C274 C 0.57422 0.98253 0.71314 0.0
C275 C 0.66 0.05093 0.77867 0.0
O276 O 0.6321 0.05079 0.78922 0.0
O277 O 0.66666 0.02426 0.76429 0.0
O278 O 0.5618 0.03534 0.8142 0.0
O279 O 0.5785 0.98835 0.82622 0.0
O280 O 0.80821 0.68636 0.03882 0.0
Cd281 Cd 0.79033 0.64495 1.00528 0.0
Cd282 Cd 0.76446 0.69127 0.9748 0.0
O283 O 0.76937 0.71318 0.02222 0.0
O284 O 0.80481 0.6108 0.03262 0.0
O285 O 0.8204 0.61904 0.98252 0.0
C286 C 0.82139 0.60295 0.0089 0.0
C287 C 0.78931 0.72822 0.93987 0.0
C288 C 0.79214 0.70976 0.04376 0.0
C289 C 0.71783 0.63064 0.98044 0.0
O290 O 0.72268 0.65507 0.96225 0.0
O291 O 0.74111 0.62514 1.00039 0.0
O292 O 0.76122 0.73069 0.94994 0.0
O293 O 0.80229 0.70262 0.94746 0.0
O294 O 0.925 0.5874 0.69557 0.0
Cd295 Cd 0.89192 0.5902 0.73173 0.0
Cd296 Cd 0.94656 0.56822 0.76998 0.0
O297 O 0.96908 0.57969 0.72693 0.0
O298 O 0.85436 0.61055 0.71248 0.0
O299 O 0.88714 0.63399 0.75734 0.0
C300 C 0.86158 0.63421 0.73678 0.0
C301 C 0.97296 0.57672 0.82534 0.0
C302 C 0.95493 0.58363 0.69851 0.0
C303 C 0.88074 0.52063 0.75575 0.0
O304 O 0.91149 0.52456 0.76363 0.0
O305 O 0.86782 0.54467 0.74555 0.0
O306 O 0.98107 0.55626 0.80284 0.0
O307 O 0.9516 0.59457 0.81593 0.0
O308 O 0.72297 0.38541 0.59876 0.0
Cd309 Cd 0.71871 0.42458 0.56862 0.0
Cd310 Cd 0.73819 0.36922 0.51851 0.0
O311 O 0.73423 0.34525 0.56293 0.0
O312 O 0.69669 0.45962 0.59181 0.0
O313 O 0.67536 0.42963 0.54444 0.0
C314 C 0.67341 0.453 0.5676 0.0
C315 C 0.73472 0.33722 0.46555 0.0
C316 C 0.72955 0.35592 0.59247 0.0
C317 C 0.78142 0.44126 0.53566 0.0
O318 O 0.7746 0.41181 0.52004 0.0
O319 O 0.76277 0.45108 0.55612 0.0
O320 O 0.75764 0.33699 0.489 0.0
O321 O 0.71202 0.35371 0.47267 0.0
O322 O 0.66535 0.4926 0.23643 0.0
Cd323 Cd 0.70403 0.50408 0.27332 0.0
Cd324 Cd 0.65437 0.52642 0.31104 0.0
O325 O 0.62856 0.51138 0.26506 0.0
O326 O 0.73698 0.47952 0.25445 0.0
O327 O 0.71606 0.46791 0.30161 0.0
C328 C 0.73464 0.46097 0.27906 0.0
C329 C 0.61907 0.51896 0.35368 0.0
C330 C 0.63658 0.49846 0.2381 0.0
C331 C 0.71461 0.57855 0.29934 0.0
O332 O 0.68871 0.57138 0.31407 0.0
O333 O 0.72495 0.55547 0.28224 0.0
O334 O 0.61846 0.54221 0.33372 0.0
O335 O 0.64092 0.5003 0.35061 0.0
Tb336 Tb 0.02905 0.07432 0.02287 0.0
C337 C 0.03895 0.01493 0.97191 0.0
Tb338 Tb 0.01202 1.00108 0.04147 0.0
O339 O 0.08135 0.07008 0.02364 0.0
O340 O 0.05119 0.0425 0.05379 0.0
O341 O 0.03291 0.04599 0.97617 0.0
C342 C 0.01407 0.94069 0.06263 0.0
O343 O 0.03441 0.99312 0.99488 0.0
C344 C 0.96082 0.02788 0.0229 0.0
C345 C 1.00146 0.06058 0.09202 0.0
O346 O 0.98952 0.94788 0.04433 0.0
O347 O 0.03734 0.9672 0.06857 0.0
O348 O 0.96004 1.00326 0.04194 0.0
O349 O 0.9888 0.03324 0.01198 0.0
O350 O 1.00914 0.0299 0.08877 0.0
O351 O 1.00471 0.08174 0.06819 0.0
C352 C 0.02619 0.13038 0.99256 0.0
O353 O 0.04433 0.12963 0.02046 0.0
O354 O 1.00938 0.10034 0.98324 0.0
C355 C 0.07945 0.04658 0.04407 0.0
Tb356 Tb 0.27951 0.82919 0.27882 0.0
C357 C 0.33871 0.78817 0.27075 0.0
Tb358 Tb 0.26453 0.75002 0.26269 0.0
O359 O 0.26492 0.82294 0.32917 0.0
O360 O 0.28511 0.78593 0.30392 0.0
O361 O 0.32827 0.81764 0.2702 0.0
C362 C 0.24493 0.68649 0.27661 0.0
O363 O 0.31822 0.75847 0.27034 0.0
C364 C 0.25719 0.78222 0.20781 0.0
C365 C 0.20584 0.79086 0.26934 0.0
O366 O 0.26293 0.69533 0.2527 0.0
O367 O 0.23851 0.71335 0.29248 0.0
O368 O 0.25343 0.74933 0.20741 0.0
O369 O 0.26593 0.79344 0.23773 0.0
O370 O 0.21639 0.76177 0.27144 0.0
O371 O 0.22607 0.8205 0.26863 0.0
C372 C 0.30162 0.89532 0.27642 0.0
O373 O 0.30656 0.87841 0.30185 0.0
O374 O 0.28379 0.87508 0.25248 0.0
C375 C 0.27241 0.79297 0.33017 0.0
Tb376 Tb 0.55769 0.03042 0.5178 0.0
C377 C 0.52674 0.99676 0.57777 0.0
Tb378 Tb 0.4853 0.01924 0.51643 0.0
O379 O 0.5626 0.06709 0.56169 0.0
O380 O 0.52294 0.06267 0.52515 0.0
O381 O 0.55175 0.9994 0.55937 0.0
C382 C 0.422 0.01872 0.52197 0.0
O383 O 0.49841 0.00514 0.56701 0.0
C384 C 0.50743 0.97203 0.48169 0.0
C385 C 0.51686 0.05484 0.45794 0.0
O386 O 0.43358 1.00258 0.49835 0.0
O387 O 0.44614 0.03491 0.54305 0.0
O388 O 0.47974 0.98104 0.47392 0.0
O389 O 0.51993 0.98698 0.50963 0.0
O390 O 0.49271 0.0538 0.47743 0.0
O391 O 0.5442 0.04404 0.46749 0.0
C392 C 0.6199 0.02609 0.51027 0.0
O393 O 0.61031 0.05162 0.5253 0.0
O394 O 0.59419 0.00372 0.49835 0.0
C395 C 0.5352 0.07678 0.55353 0.0
Tb396 Tb 0.28413 0.28543 0.8139 0.0
C397 C 0.28888 0.34364 0.7642 0.0
Tb398 Tb 0.27232 0.2656 0.73812 0.0
O399 O 0.32873 0.26311 0.81519 0.0
O400 O 0.31329 0.28517 0.7732 0.0
O401 O 0.28725 0.33535 0.79531 0.0
C402 C 0.28692 0.24741 0.67813 0.0
O403 O 0.28617 0.32067 0.73816 0.0
C404 C 0.21543 0.26767 0.76188 0.0
C405 C 0.26308 0.20856 0.78932 0.0
O406 O 0.26859 0.26942 0.68465 0.0
O407 O 0.29645 0.23512 0.70526 0.0
O408 O 0.21829 0.25891 0.73077 0.0
O409 O 0.24403 0.27386 0.77698 0.0
O410 O 0.26985 0.21622 0.75884 0.0
O411 O 0.26311 0.23208 0.81419 0.0
C412 C 0.28067 0.31198 0.87524 0.0
O413 O 0.30767 0.30909 0.86249 0.0
O414 O 0.25565 0.2994 0.85372 0.0
C415 C 0.33422 0.2689 0.78474 0.0
Tb416 Tb 0.99411 0.04786 0.51522 0.0
C417 C 0.95708 0.02854 0.57608 0.0
Tb418 Tb 0.03513 0.04063 0.58054 0.0
O419 O 0.97326 0.99298 0.51089 0.0
O420 O 0.0203 0.0124 0.53405 0.0
O421 O 0.95554 0.044 0.54824 0.0
C422 C 0.06131 0.01706 0.63415 0.0
O423 O 0.98464 0.02095 0.58992 0.0
C424 C 0.03256 0.10296 0.56806 0.0
C425 C 0.07184 0.05848 0.51913 0.0
O426 O 0.04575 0.04221 0.63457 0.0
O427 O 0.06259 0.0055 0.60355 0.0
O428 O 0.05739 0.09473 0.58517 0.0
O429 O 1.0101 0.07717 0.56144 0.0
O430 O 0.07263 0.04288 0.54679 0.0
O431 O 0.04494 0.06793 0.50598 0.0
C432 C 0.97332 0.06424 0.45545 0.0
O433 O 0.99026 0.04103 0.46123 0.0
O434 O 0.96699 0.07824 0.48369 0.0
C435 C 0.99882 0.98603 0.52774 0.0
Tb436 Tb 0.31294 0.77202 0.78884 0.0
C437 C 0.25873 0.78315 0.83559 0.0
Tb438 Tb 0.24478 0.77354 0.75608 0.0
O439 O 0.3179 0.82521 0.80942 0.0
O440 O 0.29015 0.80746 0.76427 0.0
O441 O 0.28634 0.77147 0.83301 0.0
C442 C 0.19057 0.7915 0.72962 0.0
O443 O 0.24005 0.78866 0.80883 0.0
C444 C 0.25871 0.71243 0.75655 0.0
C445 C 0.29916 0.76217 0.70958 0.0
O446 O 0.19126 0.76594 0.74727 0.0
O447 O 0.2203 0.80714 0.72744 0.0
O448 O 0.23731 0.72079 0.73499 0.0
O449 O 0.26801 0.73692 0.77891 0.0
O450 O 0.27165 0.77406 0.71204 0.0
O451 O 0.31736 0.75592 0.73634 0.0
C452 C 0.37051 0.75949 0.81314 0.0
O453 O 0.36647 0.78227 0.79292 0.0
O454 O 0.34205 0.74347 0.8194 0.0
C455 C 0.29822 0.83262 0.78566 0.0
Tb456 Tb 0.47691 0.02923 0.01471 0.0
C457 C 0.52588 0.98054 0.02377 0.0
Tb458 Tb 0.54963 0.05983 0.02061 0.0
O459 O 0.48112 1.00044 0.96744 0.0
O460 O 0.51123 0.04777 0.98115 0.0
O461 O 0.49602 0.98534 0.02903 0.0
C462 C 0.61344 0.07537 0.01219 0.0
O463 O 0.54922 0.00527 0.01648 0.0
C464 C 0.52116 0.06698 0.07539 0.0
C465 C 0.50065 0.10895 0.0122 0.0
O466 O 0.58935 0.07756 0.99029 0.0
O467 O 0.60161 0.06486 0.03901 0.0
O468 O 0.54594 0.08871 0.06786 0.0
O469 O 0.51544 0.0414 0.05413 0.0
O470 O 0.53074 0.10429 0.00772 0.0
O471 O 0.47674 0.08382 0.01777 0.0
C472 C 0.41296 0.01113 0.02228 0.0
O473 O 0.42539 0.01371 0.99405 0.0
O474 O 0.43656 0.01884 0.0464 0.0
C475 C 0.50568 0.02231 0.95978 0.0
Tb476 Tb 0.23026 0.26301 0.26019 0.0
C477 C 0.27927 0.27776 0.32822 0.0
Tb478 Tb 0.30166 0.30108 0.26187 0.0
O479 O 0.24164 0.21809 0.23271 0.0
O480 O 0.27738 0.25074 0.26563 0.0
O481 O 0.24878 0.27056 0.31319 0.0
C482 C 0.36257 0.31675 0.24465 0.0
O483 O 0.30545 0.28726 0.31239 0.0
C484 C 0.25847 0.33835 0.27772 0.0
C485 C 0.25405 0.28798 0.19513 0.0
O486 O 0.35168 0.29208 0.26199 0.0
O487 O 0.3394 0.33362 0.23821 0.0
O488 O 0.28957 0.34649 0.2887 0.0
O489 O 0.25474 0.31295 0.25681 0.0
O490 O 0.28335 0.2853 0.20927 0.0
O491 O 0.22758 0.28115 0.21121 0.0
C492 C 0.16999 0.25197 0.27955 0.0
O493 O 0.18515 0.22839 0.2688 0.0
O494 O 0.18825 0.28135 0.27781 0.0
C495 C 0.27264 0.22538 0.24431 0.0
Tb496 Tb 0.51196 0.55661 0.99543 0.0
C497 C 0.46625 0.53695 0.04946 0.0
Tb498 Tb 0.54373 0.54386 0.06335 0.0
O499 O 0.48966 0.50197 0.98719 0.0
O500 O 0.53479 0.51876 0.01506 0.0
O501 O 0.47008 0.55433 0.02314 0.0
C502 C 0.56324 0.51578 0.11722 0.0
O503 O 0.4909 0.52636 0.06609 0.0
C504 C 0.54483 0.60768 0.05608 0.0
C505 C 0.58884 0.57107 0.00959 0.0
O506 O 0.54661 0.54003 0.11702 0.0
O507 O 0.56913 0.50738 0.08702 0.0
O508 O 0.56578 0.59709 0.07652 0.0
O509 O 0.5226 0.58305 0.04385 0.0
O510 O 0.58655 0.55271 0.03557 0.0
O511 O 0.56301 0.57996 0.99365 0.0
C512 C 0.49354 0.57571 0.93617 0.0
O513 O 0.51441 0.55608 0.94187 0.0
O514 O 0.48278 0.58475 0.96402 0.0
C515 C 0.51321 0.49314 1.00553 0.0
Tb516 Tb 0.81099 0.28273 0.28397 0.0
C517 C 0.7564 0.29143 0.33059 0.0
Tb518 Tb 0.74269 0.28323 0.25092 0.0
O519 O 0.81448 0.33548 0.30476 0.0
O520 O 0.78779 0.3177 0.25882 0.0
O521 O 0.78404 0.27991 0.32775 0.0
C522 C 0.68735 0.29996 0.22566 0.0
O523 O 0.73801 0.29784 0.30398 0.0
C524 C 0.75729 0.22267 0.25313 0.0
C525 C 0.79755 0.27198 0.20455 0.0
O526 O 0.68909 0.2745 0.24317 0.0
O527 O 0.71673 0.3162 0.22278 0.0
O528 O 0.73623 0.23026 0.2307 0.0
O529 O 0.76605 0.24767 0.27496 0.0
O530 O 0.76909 0.2822 0.20647 0.0
O531 O 0.81675 0.26819 0.23157 0.0
C532 C 0.86796 0.26935 0.30889 0.0
O533 O 0.86388 0.29783 0.29779 0.0
O534 O 0.84008 0.24835 0.30562 0.0
C535 C 0.79527 0.34277 0.28047 0.0
Tb536 Tb 0.97793 0.52326 0.51745 0.0
C537 C 0.02481 0.47182 0.5265 0.0
Tb538 Tb 0.05202 0.55089 0.52676 0.0
O539 O 0.98306 0.49506 0.4699 0.0
O540 O 0.0147 0.54071 0.48637 0.0
O541 O 0.99526 0.47805 0.53126 0.0
C542 C 0.11542 0.56703 0.51699 0.0
O543 O 0.04953 0.49597 0.52087 0.0
C544 C 0.02169 0.56106 0.58007 0.0
C545 C 1.0052 0.60207 0.5147 0.0
O546 O 0.09084 0.57049 0.4964 0.0
O547 O 0.10436 0.55451 0.54342 0.0
O548 O 0.04969 0.57916 0.57486 0.0
O549 O 0.01477 0.53561 0.55846 0.0
O550 O 0.03515 0.59592 0.51231 0.0
O551 O 0.97994 0.5782 0.51987 0.0
C552 C 0.91353 0.50679 0.5229 0.0
O553 O 0.92659 0.51291 0.49547 0.0
O554 O 0.93669 0.50979 0.54719 0.0
C555 C 1.00915 0.51607 0.46418 0.0
Tb556 Tb 0.7874 0.79736 0.31316 0.0
C557 C 0.79031 0.8565 0.26492 0.0
Tb558 Tb 0.7722 0.77975 0.23711 0.0
O559 O 0.83108 0.7742 0.31372 0.0
O560 O 0.81519 0.79546 0.27145 0.0
O561 O 0.78578 0.84716 0.2953 0.0
C562 C 0.78441 0.7639 0.17569 0.0
O563 O 0.78965 0.83425 0.2388 0.0
C564 C 0.71763 0.78595 0.26486 0.0
C565 C 0.76114 0.72124 0.28557 0.0
O566 O 0.76564 0.78497 0.18392 0.0
O567 O 0.79535 0.75095 0.20182 0.0
O568 O 0.71816 0.77803 0.23307 0.0
O569 O 0.74673 0.78915 0.27779 0.0
O570 O 0.76765 0.72937 0.25525 0.0
O571 O 0.76254 0.74446 0.31115 0.0
C572 C 0.78908 0.82271 0.3757 0.0
O573 O 0.77096 0.79421 0.36276 0.0
O574 O 0.80667 0.83664 0.35377 0.0
C575 C 0.83529 0.77803 0.28269 0.0
Tb576 Tb 0.77741 0.32481 0.77309 0.0
C577 C 0.83717 0.28305 0.77301 0.0
Tb578 Tb 0.76223 0.24511 0.7585 0.0
O579 O 0.76431 0.3212 0.82439 0.0
O580 O 0.78137 0.28207 0.79936 0.0
O581 O 0.82711 0.31274 0.77568 0.0
C582 C 0.74071 0.18205 0.77285 0.0
O583 O 0.81629 0.25322 0.76711 0.0
C584 C 0.7574 0.27702 0.70316 0.0
C585 C 0.70402 0.28684 0.75679 0.0
O586 O 0.75951 0.19018 0.74938 0.0
O587 O 0.73472 0.20941 0.78824 0.0
O588 O 0.7528 0.24407 0.70282 0.0
O589 O 0.76506 0.28802 0.73314 0.0
O590 O 0.71374 0.2582 0.76369 0.0
O591 O 0.72518 0.31555 0.75471 0.0
C592 C 0.80382 0.38821 0.76377 0.0
O593 O 0.78222 0.37986 0.78459 0.0
O594 O 0.80993 0.36109 0.74825 0.0
C595 C 0.76935 0.29028 0.82563 0.0
Tb596 Tb 0.74294 0.77574 0.78591 0.0
C597 C 0.80705 0.80346 0.83535 0.0
Tb598 Tb 0.80795 0.8037 0.75845 0.0
O599 O 0.7448 0.72461 0.76176 0.0
O600 O 0.78707 0.7592 0.77837 0.0
O601 O 0.77464 0.80028 0.83006 0.0
C602 C 0.86262 0.80259 0.73062 0.0
O603 O 0.82604 0.80325 0.81064 0.0
C604 C 0.76855 0.84749 0.76273 0.0
C605 C 0.74165 0.78498 0.71146 0.0
O606 O 0.85729 0.82857 0.74921 0.0
O607 O 0.83751 0.77784 0.72807 0.0
O608 O 0.7916 0.84929 0.74288 0.0
O609 O 0.7714 0.82443 0.78164 0.0
O610 O 0.77306 0.78219 0.71494 0.0
O611 O 0.72451 0.78637 0.73728 0.0
C612 C 0.69326 0.76556 0.82305 0.0
O613 O 0.72013 0.75386 0.8278 0.0
O614 O 0.69385 0.78201 0.79665 0.0
C615 C 0.77665 0.73062 0.76304 0.0
Tb616 Tb 0.52903 0.56711 0.52131 0.0
C617 C 0.53552 0.51425 0.45991 0.0
Tb618 Tb 0.50275 0.48889 0.52365 0.0
O619 O 0.57099 0.56343 0.55861 0.0
O620 O 0.54768 0.5225 0.52652 0.0
O621 O 0.53515 0.54613 0.47127 0.0
C622 C 0.50264 0.42819 0.54499 0.0
O623 O 0.52592 0.48752 0.47683 0.0
C624 C 0.45658 0.52402 0.50965 0.0
C625 C 0.49385 0.54338 0.58205 0.0
O626 O 0.49011 0.43313 0.51534 0.0
O627 O 0.5156 0.45707 0.56167 0.0
O628 O 0.4509 0.49362 0.51939 0.0
O629 O 0.48628 0.5304 0.50369 0.0
O630 O 0.50013 0.51272 0.57398 0.0
O631 O 0.50058 0.56883 0.56336 0.0
C632 C 0.53895 0.62952 0.50077 0.0
O633 O 0.56187 0.61295 0.5094 0.0
O634 O 0.51069 0.61131 0.50465 0.0
C635 C 0.56927 0.53107 0.55062 0.0
Tb636 Tb 0.05706 0.54155 0.02214 0.0
C637 C 0.03152 0.50789 0.08667 0.0
Tb638 Tb 0.98543 0.52436 0.0279 0.0
O639 O 0.05537 0.59592 0.02749 0.0
O640 O 0.02428 0.5616 0.05158 0.0
O641 O 0.05514 0.51297 0.06647 0.0
C642 C 0.92236 0.52773 0.02829 0.0
O643 O 1.0018 0.51413 0.07832 0.0
C644 C 1.01046 0.47275 1.00686 0.0
C645 C 0.01175 0.55748 0.96318 0.0
O646 O 0.9346 0.51102 1.00549 0.0
O647 O 0.9456 0.54199 0.05121 0.0
O648 O 0.98563 0.47035 0.02452 0.0
O649 O 0.01811 0.50285 0.99938 0.0
O650 O 0.98855 0.55435 0.98407 0.0
O651 O 0.04098 0.55018 0.97154 0.0
C652 C 0.12066 0.5393 0.02244 0.0
O653 O 0.10871 0.56289 0.03789 0.0
O654 O 0.09674 0.51737 1.00609 0.0
C655 C 0.03112 0.59215 0.04593 0.0
C656 C 0.01969 0.1749 0.91438 0.0
C657 C 0.03201 0.20896 0.92594 0.0
H658 H 1.0076 0.12387 0.92665 0.0
C659 C 0.04262 0.21743 0.96018 0.0
H660 H 0.01108 0.16758 0.88828 0.0
C661 C 0.04116 0.19208 0.98232 0.0
C662 C 0.02821 0.15815 0.9706 0.0
H663 H 0.05223 0.24357 0.96976 0.0
H664 H 0.04972 0.199 0.00848 0.0
C665 C 0.01746 0.1499 0.93649 0.0
C666 C 0.11392 0.75536 0.25965 0.0
C667 C 0.10155 0.78049 0.24307 0.0
H668 H 0.15662 0.73887 0.28099 0.0
C669 C 0.12323 0.81099 0.2395 0.0
H670 H 0.09799 0.73153 0.26265 0.0
C671 C 0.15681 0.81533 0.25013 0.0
C672 C 0.16966 0.7891 0.26425 0.0
H673 H 0.1145 0.83095 0.22693 0.0
H674 H 0.17292 0.83843 0.24538 0.0
C675 C 0.14764 0.75952 0.26992 0.0
C676 C 0.51684 0.91118 0.40904 0.0
C677 C 0.53915 0.89256 0.42312 0.0
H678 H 0.4894 0.9506 0.4167 0.0
C679 C 0.5528 0.9019 0.45647 0.0
H680 H 0.5058 0.9048 0.38351 0.0
C681 C 0.54353 0.9286 0.47549 0.0
C682 C 0.5201 0.946 0.46162 0.0
H683 H 0.57013 0.88817 0.46808 0.0
H684 H 0.55382 0.93484 0.50128 0.0
C685 C 0.50729 0.93737 0.42812 0.0
C686 C 0.39797 0.26794 0.72219 0.0
C687 C 0.41875 0.24779 0.7366 0.0
H688 H 0.35501 0.29014 0.72578 0.0
C689 C 0.41091 0.23421 0.76666 0.0
H690 H 0.40306 0.27876 0.69904 0.0
C691 C 0.38348 0.24092 0.78208 0.0
C692 C 0.36285 0.26115 0.76776 0.0
H693 H 0.42621 0.21859 0.77858 0.0
H694 H 0.37845 0.23027 0.80532 0.0
C695 C 0.37034 0.27441 0.73749 0.0
C696 C 0.98785 0.89466 0.54739 0.0
C697 C 0.0203 0.88929 0.54738 0.0
H698 H 0.95523 0.92984 0.54017 0.0
C699 C 0.04494 0.91541 0.53967 0.0
H700 H 0.96845 0.87481 0.55329 0.0
C701 C 0.03756 0.94671 0.53307 0.0
C702 C 1.00525 0.95219 0.53312 0.0
H703 H 0.07017 0.91205 0.53974 0.0
H704 H 0.05723 0.96671 0.52795 0.0
C705 C 0.98025 0.92589 0.53978 0.0
C706 C 0.43227 0.74195 0.88023 0.0
C707 C 0.46023 0.76526 0.87443 0.0
H708 H 0.38137 0.72154 0.86474 0.0
C709 C 0.45946 0.78278 0.84568 0.0
H710 H 0.43232 0.72797 0.90209 0.0
C711 C 0.43063 0.77898 0.82441 0.0
C712 C 0.40202 0.75768 0.83152 0.0
H713 H 0.48082 0.8005 0.84022 0.0
H714 H 0.43035 0.79405 0.80332 0.0
C715 C 0.40323 0.73822 0.85887 0.0
C716 C 0.51795 0.20449 0.01764 0.0
C717 C 0.49484 0.21207 0.03899 0.0
H718 H 0.53777 0.16561 0.99205 0.0
C719 C 0.46994 0.18568 0.04603 0.0
H720 H 0.53733 0.22423 0.01152 0.0
C721 C 0.47004 0.15207 0.03463 0.0
C722 C 0.49524 0.14422 0.01625 0.0
H723 H 0.45156 0.19072 0.06213 0.0
H724 H 0.45187 0.13215 0.04246 0.0
C725 C 0.51826 0.17084 1.00654 0.0
C726 C 0.11211 0.27112 0.34147 0.0
C727 C 0.09839 0.2385 0.34922 0.0
H728 H 0.14479 0.30079 0.31232 0.0
C729 C 0.10579 0.21006 0.33116 0.0
H730 H 0.10648 0.29349 0.35459 0.0
C731 C 0.12777 0.21425 0.30688 0.0
C732 C 0.14236 0.24691 0.30008 0.0
H733 H 0.09533 0.18458 0.33642 0.0
H734 H 0.13424 0.19201 0.29434 0.0
C735 C 0.13375 0.27527 0.31699 0.0
C736 C 0.96831 0.05504 0.17599 0.0
C737 C 0.94188 0.0722 0.17212 0.0
H738 H 1.00789 0.0379 0.15364 0.0
C739 C 0.93802 0.08931 0.14339 0.0
H740 H 0.97202 0.04161 0.19781 0.0
C741 C 0.95941 0.08814 0.11852 0.0
C742 C 0.98426 0.06879 0.12133 0.0
H743 H 0.91803 0.10295 0.13979 0.0
H744 H 0.95515 0.10062 0.09618 0.0
C745 C 0.98895 0.05296 0.1507 0.0
C746 C 0.30055 0.73649 0.39385 0.0
C747 C 0.28629 0.74675 0.42231 0.0
H748 H 0.30675 0.74244 0.34225 0.0
C749 C 0.26676 0.77171 0.41977 0.0
H750 H 0.31542 0.71709 0.39478 0.0
C751 C 0.26193 0.78631 0.38975 0.0
C752 C 0.27612 0.77603 0.36135 0.0
H753 H 0.25524 0.78011 0.44108 0.0
H754 H 0.24709 0.80574 0.3888 0.0
C755 C 0.29534 0.7508 0.36366 0.0
C756 C 0.53106 0.99856 0.67224 0.0
C757 C 0.55632 0.98026 0.67903 0.0
H758 H 0.50132 0.01774 0.63465 0.0
C759 C 0.56757 0.96319 0.65193 0.0
H760 H 0.52176 0.01205 0.6924 0.0
C761 C 0.55605 0.96667 0.61904 0.0
C762 C 0.53258 0.98689 0.61218 0.0
H763 H 0.58675 0.94861 0.65594 0.0
H764 H 0.56675 0.95477 0.59888 0.0
C765 C 0.5192 1.00172 0.63912 0.0
C766 C 0.3063 0.35808 0.96031 0.0
C767 C 0.27777 0.37016 0.9672 0.0
H768 H 0.32947 0.33014 0.92549 0.0
C769 C 0.24965 0.36186 0.94411 0.0
H770 H 0.32837 0.36416 0.97768 0.0
C771 C 0.25018 0.34179 0.91447 0.0
C772 C 0.279 0.33042 0.90744 0.0
H773 H 0.22733 0.37074 0.94901 0.0
H774 H 0.22836 0.33587 0.89675 0.0
C775 C 0.30698 0.3386 0.93053 0.0
C776 C 0.96902 0.0631 0.36244 0.0
C777 C 0.94081 0.07656 0.3546 0.0
H778 H 1.00122 0.049 0.40049 0.0
C779 C 0.92554 0.09043 0.38067 0.0
H780 H 0.98163 0.05267 0.34296 0.0
C781 C 0.93699 0.08835 0.41411 0.0
C782 C 0.96363 0.07229 0.42152 0.0
H783 H 0.90373 0.10096 0.37528 0.0
H784 H 0.92399 0.0975 0.43392 0.0
C785 C 0.9802 0.06091 0.39545 0.0
C786 C 0.29903 0.75394 0.61505 0.0
C787 C 0.31851 0.72927 0.60993 0.0
H788 H 0.27757 0.78353 0.65027 0.0
C789 C 0.33422 0.71812 0.63818 0.0
H790 H 0.28638 0.76307 0.59403 0.0
C791 C 0.32927 0.73005 0.67057 0.0
C792 C 0.3082 0.75316 0.67557 0.0
H793 H 0.34935 0.69911 0.63533 0.0
H794 H 0.34073 0.71987 0.69163 0.0
C795 C 0.29378 0.76554 0.6474 0.0
C796 C 0.53591 0.98514 0.88167 0.0
C797 C 0.54856 0.01447 0.86669 0.0
H798 H 0.51174 0.96473 0.92264 0.0
C799 C 0.54778 0.04639 0.8831 0.0
H800 H 0.53628 0.96023 0.86969 0.0
C801 C 0.53476 0.04898 0.91384 0.0
C802 C 0.52126 0.01968 0.92831 0.0
H803 H 0.55766 0.06947 0.87236 0.0
H804 H 0.53458 0.07391 0.92591 0.0
C805 C 0.52189 0.98773 0.91192 0.0
C806 C 0.26854 0.37573 0.16892 0.0
C807 C 0.25474 0.37067 0.13571 0.0
H808 H 0.28039 0.35278 0.21283 0.0
C809 C 0.24002 0.33772 0.12158 0.0
H810 H 0.28047 0.40075 0.18018 0.0
C811 C 0.23925 0.31008 0.1407 0.0
C812 C 0.25432 0.3153 0.17348 0.0
H813 H 0.2294 0.33339 0.09579 0.0
H814 H 0.22762 0.28484 0.12983 0.0
C815 C 0.26881 0.34821 0.18743 0.0
C816 C 0.14354 0.99258 0.02647 0.0
C817 C 0.14846 0.97841 0.05685 0.0
H818 H 0.11919 0.02638 0.99926 0.0
C819 C 0.13051 0.987 0.08313 0.0
H820 H 0.15723 0.98686 1.00586 0.0
C821 C 0.10779 0.00872 0.0789 0.0
C822 C 0.10335 0.02335 0.04871 0.0
H823 H 0.13381 0.97666 0.10689 0.0
H824 H 0.09409 0.01454 0.09947 0.0
C825 C 0.12183 0.01534 0.02272 0.0
C826 C 0.68005 0.58496 1.00357 0.0
C827 C 0.68445 0.61155 0.98274 0.0
H828 H 0.64642 0.55147 0.02857 0.0
C829 C 0.65678 0.62236 0.96818 0.0
H830 H 0.70088 0.5758 0.01497 0.0
C831 C 0.62547 0.60833 0.97605 0.0
C832 C 0.62138 0.58334 0.99866 0.0
H833 H 0.65938 0.64278 0.95207 0.0
H834 H 0.60468 0.61809 0.96543 0.0
C835 C 0.64885 0.57111 0.01156 0.0
C836 C 0.75707 0.41456 0.24994 0.0
C837 C 0.75118 0.4314 0.27997 0.0
H838 H 0.775 0.37284 0.22664 0.0
C839 C 0.76025 0.41901 0.31031 0.0
H840 H 0.75004 0.42329 0.22615 0.0
C841 C 0.77533 0.39059 0.31056 0.0
C842 C 0.78062 0.3735 0.28045 0.0
H843 H 0.75589 0.43141 0.3338 0.0
H844 H 0.78216 0.3815 0.33424 0.0
C845 C 0.7712 0.38562 0.25017 0.0
C846 C 0.8256 0.46221 0.50034 0.0
C847 C 0.8132 0.46291 0.53157 0.0
H848 H 0.86704 0.47652 0.47303 0.0
C849 C 0.83313 0.48095 0.55944 0.0
H850 H 0.81068 0.44841 0.4785 0.0
C851 C 0.86568 0.49618 0.55648 0.0
C852 C 0.87837 0.49437 0.52545 0.0
H853 H 0.82421 0.48156 0.58383 0.0
H854 H 0.88116 0.5086 0.57858 0.0
C855 C 0.85778 0.47826 0.49721 0.0
C856 C 0.34842 0.18607 0.25668 0.0
C857 C 0.34195 0.15923 0.23117 0.0
H858 H 0.33155 0.22797 0.28079 0.0
C859 C 0.31308 0.15532 0.2091 0.0
H860 H 0.37037 0.1898 0.27412 0.0
C861 C 0.29076 0.17709 0.21304 0.0
C862 C 0.29698 0.20346 0.2389 0.0
H863 H 0.30727 0.13488 0.1892 0.0
H864 H 0.26846 0.17306 0.19607 0.0
C865 C 0.32622 0.20801 0.26043 0.0
C866 C 0.34751 0.05165 0.5444 0.0
C867 C 0.33201 0.05369 0.51248 0.0
H868 H 0.38908 0.03913 0.57244 0.0
C869 C 0.3438 0.03976 0.48424 0.0
H870 H 0.33884 0.06245 0.56655 0.0
C871 C 0.37179 0.02542 0.48777 0.0
C872 C 0.38884 0.02602 0.51947 0.0
H873 H 0.33209 0.04104 0.45946 0.0
H874 H 0.38138 0.01614 0.46551 0.0
C875 C 0.37614 0.03839 0.54784 0.0
C876 C 0.72302 0.64014 0.32128 0.0
C877 C 0.7301 0.61486 0.29852 0.0
H878 H 0.72747 0.69339 0.3353 0.0
C879 C 0.74904 0.625 0.27257 0.0
H880 H 0.70843 0.63327 0.34151 0.0
C881 C 0.75936 0.65948 0.26861 0.0
C882 C 0.75152 0.68472 0.29083 0.0
H883 H 0.75475 0.60631 0.25441 0.0
H884 H 0.77321 0.66634 0.24786 0.0
C885 C 0.73387 0.67464 0.31767 0.0
C886 C 0.87264 0.45793 0.74866 0.0
C887 C 0.86016 0.48709 0.75726 0.0
H888 H 0.86399 0.40377 0.74325 0.0
C889 C 0.8284 0.48375 0.76748 0.0
H890 H 0.89698 0.45989 0.7405 0.0
C891 C 0.80974 0.45149 0.76991 0.0
C892 C 0.82233 0.42241 0.76106 0.0
H893 H 0.81838 0.50602 0.77431 0.0
H894 H 0.78555 0.44925 0.77843 0.0
C895 C 0.85371 0.42588 0.75007 0.0
C896 C 0.9868 0.85922 0.10116 0.0
C897 C 0.01728 0.85131 0.11184 0.0
H898 H 0.96186 0.89372 0.07589 0.0
C899 C 0.04635 0.87201 0.10464 0.0
H900 H 0.96409 0.84345 0.10629 0.0
C901 C 0.04509 0.90075 0.08795 0.0
C902 C 0.01473 0.9088 0.07745 0.0
H903 H 0.07018 0.86649 0.11266 0.0
H904 H 0.06789 0.91685 0.0835 0.0
C905 C 0.98553 0.88765 0.08361 0.0
C906 C 0.92031 0.25532 0.78687 0.0
C907 C 0.93964 0.28424 0.80548 0.0
H908 H 0.87257 0.23186 0.76234 0.0
C909 C 0.92569 0.31318 0.81082 0.0
H910 H 0.93023 0.23249 0.78263 0.0
C911 C 0.8931 0.31306 0.7988 0.0
C912 C 0.87302 0.28369 0.7817 0.0
H913 H 0.93986 0.33586 0.82506 0.0
H914 H 0.8833 0.33577 0.80427 0.0
C915 C 0.88721 0.25491 0.77543 0.0
C916 C 0.49507 0.15101 0.57807 0.0
C917 C 0.50292 0.15532 0.61294 0.0
H918 H 0.4983 0.12201 0.5319 0.0
C919 C 0.51871 0.1316 0.62821 0.0
H920 H 0.48312 0.16904 0.56561 0.0
C921 C 0.52848 0.10556 0.60883 0.0
C922 C 0.52175 0.10208 0.57391 0.0
H923 H 0.52548 0.13449 0.65494 0.0
H924 H 0.54198 0.08857 0.62111 0.0
C925 C 0.50386 0.12423 0.55878 0.0
C926 C 0.66189 0.79718 0.33303 0.0
C927 C 0.63133 0.79665 0.31461 0.0
H928 H 0.71284 0.79462 0.33193 0.0
C929 C 0.62969 0.7929 0.27954 0.0
H930 H 0.66432 0.80017 0.36006 0.0
C931 C 0.65769 0.78933 0.26347 0.0
C932 C 0.6881 0.78987 0.28201 0.0
H933 H 0.6067 0.79231 0.2645 0.0
H934 H 0.65553 0.78622 0.23645 0.0
C935 C 0.68987 0.79404 0.31695 0.0
C936 C 0.06469 0.17493 0.51848 0.0
C937 C 0.03586 0.18689 0.50947 0.0
H938 H 0.08642 0.13948 0.54556 0.0
C939 C 1.00648 0.17285 0.52195 0.0
H940 H 0.08753 0.18535 0.50885 0.0
C941 C 1.00559 0.14591 0.54184 0.0
C942 C 0.0343 0.13361 0.55044 0.0
H943 H 0.98392 0.18151 0.51489 0.0
H944 H 0.98238 0.13425 0.54998 0.0
C945 C 0.06406 0.14888 0.53945 0.0
C946 C 0.63083 0.33005 0.16141 0.0
C947 C 0.60046 0.30981 0.16569 0.0
H948 H 0.68235 0.34322 0.17774 0.0
C949 C 0.59857 0.2888 0.19201 0.0
H950 H 0.63301 0.34668 0.14155 0.0
C951 C 0.62673 0.28672 0.21248 0.0
C952 C 0.65722 0.30584 0.20726 0.0
H953 H 0.57552 0.27299 0.19613 0.0
H954 H 0.62479 0.26936 0.23173 0.0
C955 C 0.659 0.3282 0.18218 0.0
C956 C 0.5712 0.90757 0.01922 0.0
C957 C 0.54538 0.88049 0.00753 0.0
H958 H 0.58522 0.96104 0.03335 0.0
C959 C 0.51291 0.88584 1.00526 0.0
H960 H 0.59646 0.90402 0.02105 0.0
C961 C 0.50642 0.91815 0.01288 0.0
C962 C 0.53238 0.94578 0.02214 0.0
H963 H 0.49257 0.86524 0.99646 0.0
H964 H 0.48123 0.92177 0.00953 0.0
C965 C 0.56478 0.94013 0.02609 0.0
C966 C 0.93422 0.82708 0.68083 0.0
C967 C 0.94072 0.79488 0.67116 0.0
H968 H 0.90443 0.855 0.70858 0.0
C969 C 0.92289 0.76603 0.68315 0.0
H970 H 0.94792 0.8497 0.6721 0.0
C971 C 0.89825 0.76906 0.70351 0.0
C972 C 0.89133 0.80101 0.71274 0.0
H973 H 0.92744 0.74091 0.67621 0.0
H974 H 0.88423 0.74625 0.71166 0.0
C975 C 0.90976 0.83016 0.70188 0.0
C976 C 0.07455 0.02722 0.89051 0.0
C977 C 0.09929 0.00774 0.89214 0.0
H978 H 0.03535 0.04363 0.91366 0.0
C979 C 0.10046 0.98603 0.91775 0.0
H980 H 0.07235 0.04365 0.87075 0.0
C981 C 0.07866 0.98575 0.94251 0.0
C982 C 0.05559 0.00732 0.94204 0.0
H983 H 0.11899 0.97038 0.91943 0.0
H984 H 0.08134 0.97041 0.96308 0.0
C985 C 0.05302 0.02697 0.91502 0.0
C986 C 0.74097 0.35017 0.6539 0.0
C987 C 0.735 0.33499 0.62078 0.0
H988 H 0.75347 0.34425 0.70542 0.0
C989 C 0.7366 0.30038 0.6151 0.0
H990 H 0.74034 0.37678 0.65937 0.0
C991 C 0.74384 0.28157 0.6418 0.0
C992 C 0.7503 0.29701 0.67474 0.0
H993 H 0.7323 0.28781 0.59 0.0
H994 H 0.74465 0.25496 0.63661 0.0
C995 C 0.74878 0.33153 0.68042 0.0
C996 C 0.47961 0.09123 0.38284 0.0
C997 C 0.49435 0.07691 0.35666 0.0
H998 H 0.47497 0.09529 0.43542 0.0
C999 C 0.51931 0.0587 0.36466 0.0
H1000 H 0.46012 0.10515 0.37755 0.0
C1001 C 0.5282 0.0535 0.39788 0.0
C1002 C 0.51183 0.06577 0.42383 0.0
H1003 H 0.5311 0.04727 0.34509 0.0
H1004 H 0.54654 0.03813 0.40297 0.0
C1005 C 0.48799 0.0854 0.41602 0.0
C1006 C 0.77709 0.75404 0.08237 0.0
C1007 C 0.79593 0.72899 0.07661 0.0
H1008 H 0.75864 0.78483 0.11886 0.0
C1009 C 0.81455 0.71912 0.10351 0.0
H1010 H 0.7628 0.76241 0.06202 0.0
C1011 C 0.81195 0.73182 0.13596 0.0
C1012 C 0.79091 0.75461 0.14174 0.0
H1013 H 0.8295 0.70006 0.09976 0.0
H1014 H 0.82522 0.72262 0.15653 0.0
C1015 C 0.7746 0.76679 0.11482 0.0
C1016 C 0.08728 0.00861 0.72399 0.0
C1017 C 0.11344 0.9912 0.72123 0.0
H1018 H 0.05056 0.0308 0.69834 0.0
C1019 C 0.11953 0.97864 0.6894 0.0
H1020 H 0.08174 0.0185 0.74809 0.0
C1021 C 0.10127 0.98548 0.66085 0.0
C1022 C 0.07706 0.00531 0.66379 0.0
H1023 H 0.13939 0.96501 0.68644 0.0
H1024 H 0.10728 0.97683 0.6365 0.0
C1025 C 0.06948 0.01587 0.69552 0.0
C1026 C 0.71692 0.32871 0.40331 0.0
C1027 C 0.73664 0.32174 0.43111 0.0
H1028 H 0.70752 0.32472 0.34979 0.0
C1029 C 0.76085 0.30238 0.42542 0.0
H1030 H 0.69816 0.34371 0.4067 0.0
C1031 C 0.76619 0.2915 0.39294 0.0
C1032 C 0.74755 0.29968 0.36499 0.0
H1033 H 0.77648 0.29639 0.44611 0.0
H1034 H 0.7857 0.27743 0.38983 0.0
C1035 C 0.72234 0.31784 0.37062 0.0
C1036 C 0.47951 0.04596 0.153 0.0
C1037 C 0.47514 0.07807 0.1659 0.0
H1038 H 0.49653 0.01709 0.11345 0.0
C1039 C 0.4855 0.10637 0.14856 0.0
H1040 H 0.47124 0.0237 0.16571 0.0
C1041 C 0.50079 0.10273 0.11926 0.0
C1042 C 0.50474 0.07054 0.10612 0.0
H1043 H 0.48201 0.13128 0.15783 0.0
H1044 H 0.50899 0.12499 0.10652 0.0
C1045 C 0.49368 0.04213 0.12305 0.0
C1046 C 0.82611 0.7458 0.89597 0.0
C1047 C 0.80515 0.75388 0.91944 0.0
H1048 H 0.84535 0.75791 0.85007 0.0
C1049 C 0.796 0.78578 0.92061 0.0
H1050 H 0.83406 0.72162 0.89506 0.0
C1051 C 0.8032 0.80689 0.89549 0.0
C1052 C 0.8189 0.79589 0.86857 0.0
H1053 H 0.78075 0.79312 0.93922 0.0
H1054 H 0.7922 0.82924 0.89453 0.0
C1055 C 0.83315 0.76695 0.8706 0.0
C1056 C 0.91049 0.09563 1.00138 0.0
C1057 C 0.88893 0.09342 0.02654 0.0
H1058 H 0.94945 0.07604 0.97959 0.0
C1059 C 0.89118 0.06926 0.04954 0.0
H1060 H 0.90922 0.11365 0.98297 0.0
C1061 C 0.91422 0.0481 0.04767 0.0
C1062 C 0.9362 0.05058 0.02304 0.0
H1063 H 0.87506 0.06657 0.0692 0.0
H1064 H 0.91513 0.03003 0.0661 0.0
C1065 C 0.93384 0.07436 0.99962 0.0
C1066 C 0.39477 0.50521 0.09767 0.0
C1067 C 0.36849 0.50286 0.07284 0.0
H1068 H 0.44713 0.51751 0.10947 0.0
C1069 C 0.37427 0.51414 0.04161 0.0
H1070 H 0.39061 0.49621 0.12182 0.0
C1071 C 0.40607 0.52659 0.03472 0.0
C1072 C 0.43275 0.52722 0.05874 0.0
H1073 H 0.35419 0.51237 0.02215 0.0
H1074 H 0.40977 0.53423 0.00999 0.0
C1075 C 0.42691 0.51702 0.09051 0.0
C1076 C 0.31152 0.64518 0.76737 0.0
C1077 C 0.30375 0.62555 0.7363 0.0
H1078 H 0.30266 0.68757 0.79869 0.0
C1079 C 0.28076 0.63454 0.71272 0.0
H1080 H 0.329 0.63885 0.78619 0.0
C1081 C 0.26615 0.66249 0.71978 0.0
C1082 C 0.274 0.68228 0.75062 0.0
H1083 H 0.27419 0.62016 0.68853 0.0
H1084 H 0.24886 0.6688 0.70074 0.0
C1085 C 0.29664 0.67321 0.77451 0.0
C1086 C 0.19088 0.6141 0.48383 0.0
C1087 C 0.21612 0.60906 0.50726 0.0
H1088 H 0.13927 0.60417 0.46833 0.0
C1089 C 0.20827 0.58725 0.53216 0.0
H1090 H 0.19621 0.6307 0.46433 0.0
C1091 C 0.17549 0.57257 0.53485 0.0
C1092 C 0.15022 0.579 0.51232 0.0
H1093 H 0.2272 0.58311 0.55071 0.0
H1094 H 0.16985 0.55709 0.55513 0.0
C1095 C 0.15829 0.59897 0.48616 0.0
C1096 C 0.69586 0.88806 0.78307 0.0
C1097 C 0.69544 0.91076 0.75825 0.0
H1098 H 0.71951 0.85008 0.8042 0.0
C1099 C 0.71924 0.91225 0.73549 0.0
H1100 H 0.67799 0.88642 0.80109 0.0
C1101 C 0.74296 0.89194 0.73756 0.0
C1102 C 0.74337 0.86913 0.76208 0.0
H1103 H 0.71986 0.92945 0.71612 0.0
H1104 H 0.76088 0.89392 0.71956 0.0
C1105 C 0.7196 0.8673 0.78489 0.0
C1106 C 0.68437 0.97282 0.51892 0.0
C1107 C 0.70307 0.98933 0.54815 0.0
H1108 H 0.64286 0.97213 0.48334 0.0
C1109 C 0.69831 0.02149 0.56027 0.0
H1110 H 0.68783 0.94812 0.50895 0.0
C1111 C 0.6733 0.03562 0.54511 0.0
C1112 C 0.65225 0.01739 0.51812 0.0
H1113 H 0.71289 0.035 0.58243 0.0
H1114 H 0.66872 0.05938 0.55636 0.0
C1115 C 0.65885 0.98665 0.50414 0.0
C1116 C 0.32063 0.43831 0.78121 0.0
C1117 C 0.31777 0.44944 0.74916 0.0
H1118 H 0.31337 0.39663 0.81112 0.0
C1119 C 0.30289 0.42594 0.72217 0.0
H1120 H 0.33196 0.45586 0.8025 0.0
C1121 C 0.29275 0.39155 0.72699 0.0
C1122 C 0.29673 0.38026 0.75898 0.0
H1123 H 0.30063 0.43378 0.69716 0.0
H1124 H 0.28244 0.37374 0.70558 0.0
C1125 C 0.30996 0.40428 0.78612 0.0
C1126 C 0.18799 0.61452 0.30776 0.0
C1127 C 0.19169 0.5867 0.28624 0.0
H1128 H 0.2025 0.66779 0.32187 0.0
C1129 C 0.21592 0.59134 0.26389 0.0
H1130 H 0.16978 0.61175 0.32544 0.0
C1131 C 0.23453 0.62364 0.26165 0.0
C1132 C 0.22943 0.65165 0.28196 0.0
H1133 H 0.21938 0.57039 0.24697 0.0
H1134 H 0.25192 0.6269 0.24317 0.0
C1135 C 0.20678 0.64662 0.30574 0.0
C1136 C 0.52185 0.69919 0.44792 0.0
C1137 C 0.55342 0.71894 0.44796 0.0
H1138 H 0.49247 0.65582 0.4654 0.0
C1139 C 0.57997 0.70989 0.46686 0.0
H1140 H 0.5009 0.70563 0.43377 0.0
C1141 C 0.57522 0.68113 0.48456 0.0
C1142 C 0.54373 0.66129 0.48428 0.0
H1143 H 0.6046 0.72459 0.46737 0.0
H1144 H 0.59623 0.67426 0.49822 0.0
C1145 C 0.51701 0.67082 0.46618 0.0
C1146 C 0.6113 0.25601 0.74638 0.0
C1147 C 0.60106 0.27633 0.72224 0.0
H1148 H 0.65185 0.24316 0.776 0.0
C1149 C 0.62467 0.30222 0.71205 0.0
H1150 H 0.59386 0.23569 0.75462 0.0
C1151 C 0.65782 0.30691 0.72476 0.0
C1152 C 0.66833 0.28533 0.74744 0.0
H1153 H 0.61766 0.31833 0.6935 0.0
H1154 H 0.67545 0.32634 0.71548 0.0
C1155 C 0.64459 0.26019 0.75852 0.0
C1156 C 1.00754 0.38185 0.97557 0.0
C1157 C 0.02534 0.38509 0.94764 0.0
H1158 H 0.98957 0.40704 0.01647 0.0
C1159 C 0.04144 0.41749 0.94133 0.0
H1160 H 0.99524 0.35719 0.9814 0.0
C1161 C 0.03799 0.44632 0.96151 0.0
C1162 C 0.01861 0.44295 0.98832 0.0
H1163 H 0.05539 0.42069 0.92001 0.0
H1164 H 0.04933 0.47119 0.95535 0.0
C1165 C 1.00434 0.41042 0.99574 0.0
C1166 C 0.90942 0.73879 0.26665 0.0
C1167 C 0.92028 0.75373 0.23825 0.0
H1168 H 0.87443 0.7349 0.30272 0.0
C1169 C 0.90198 0.77603 0.22361 0.0
H1170 H 0.92275 0.7215 0.27862 0.0
C1171 C 0.87378 0.78337 0.23728 0.0
C1172 C 0.86359 0.76899 0.26619 0.0
H1173 H 0.90948 0.78785 0.20162 0.0
H1174 H 0.86038 0.80081 0.22565 0.0
C1175 C 0.88167 0.7465 0.28052 0.0
C1176 C 0.54895 0.41899 0.03156 0.0
C1177 C 0.52114 0.39656 0.03909 0.0
H1178 H 0.56797 0.46742 0.01546 0.0
C1179 C 0.49004 0.4054 0.03399 0.0
H1180 H 0.57322 0.41293 0.03548 0.0
C1181 C 0.48695 0.43635 0.02153 0.0
C1182 C 0.51504 0.45907 0.01508 0.0
H1183 H 0.46825 0.38845 0.03962 0.0
H1184 H 0.46291 0.44304 0.01811 0.0
C1185 C 0.54597 0.45014 0.02015 0.0
C1186 C 0.92798 0.22688 0.35713 0.0
C1187 C 0.95059 0.25526 0.37248 0.0
H1188 H 0.88337 0.20926 0.32477 0.0
C1189 C 0.94725 0.28787 0.36453 0.0
H1190 H 0.93022 0.20149 0.36281 0.0
C1191 C 0.92125 0.2922 0.34223 0.0
C1192 C 0.89774 0.26404 0.32816 0.0
H1193 H 0.9647 0.31012 0.3757 0.0
H1194 H 0.91882 0.31769 0.33709 0.0
C1195 C 0.90138 0.2313 0.3354 0.0
C1196 C 0.97599 0.6824 0.53946 0.0
C1197 C 1.00292 0.70696 0.53316 0.0
H1198 H 0.95538 0.62956 0.53817 0.0
C1199 C 0.02686 0.69689 0.51434 0.0
H1200 H 0.95688 0.68946 0.55352 0.0
C1201 C 0.02605 0.6625 0.50568 0.0
C1202 C 1.00115 0.63772 0.51547 0.0
H1203 H 0.04773 0.7152 0.5088 0.0
H1204 H 0.04617 0.6553 0.49336 0.0
C1205 C 0.97508 0.64803 0.53062 0.0
C1206 C 0.62016 0.78402 0.86402 0.0
C1207 C 0.62859 0.77805 0.89721 0.0
H1208 H 0.63422 0.78452 0.81433 0.0
C1209 C 0.65749 0.76585 0.90533 0.0
H1210 H 0.59795 0.79336 0.85704 0.0
C1211 C 0.67782 0.76008 0.88066 0.0
C1212 C 0.66974 0.76697 0.84774 0.0
H1213 H 0.66435 0.76068 0.93064 0.0
H1214 H 0.70036 0.75129 0.88759 0.0
C1215 C 0.64073 0.77879 0.83954 0.0
C1216 C 0.45456 0.5283 0.66183 0.0
C1217 C 0.43203 0.55041 0.66097 0.0
H1218 H 0.49164 0.5085 0.63737 0.0
C1219 C 0.43173 0.57194 0.63529 0.0
H1220 H 0.45529 0.51137 0.68135 0.0
C1221 C 0.45343 0.57115 0.61078 0.0
C1222 C 0.47494 0.54793 0.61083 0.0
H1223 H 0.41478 0.58936 0.63418 0.0
H1224 H 0.45234 0.58772 0.59099 0.0
C1225 C 0.47543 0.5267 0.63674 0.0
C1226 C 0.79878 0.23547 0.89009 0.0
C1227 C 0.78576 0.24698 0.91886 0.0
H1228 H 0.80309 0.23946 0.83791 0.0
C1229 C 0.76655 0.27221 0.91633 0.0
H1230 H 0.81334 0.21581 0.89103 0.0
C1231 C 0.76084 0.28589 0.88596 0.0
C1232 C 0.77374 0.27431 0.85724 0.0
H1233 H 0.75597 0.28153 0.93792 0.0
H1234 H 0.74633 0.30561 0.88497 0.0
C1235 C 0.79263 0.24879 0.85957 0.0
C1236 C 0.03718 0.50315 0.18071 0.0
C1237 C 0.06462 0.48757 0.18606 0.0
H1238 H 1.00472 0.52132 0.14497 0.0
C1239 C 0.07823 0.47526 0.15797 0.0
H1240 H 0.02604 0.51297 0.20166 0.0
C1241 C 0.06637 0.48051 0.12569 0.0
C1242 C 0.04015 0.49767 0.12043 0.0
H1243 H 0.0993 0.46306 0.16087 0.0
H1244 H 0.07851 0.47206 0.10485 0.0
C1245 C 0.0249 0.5079 0.14819 0.0
C1246 C 0.78031 0.83157 0.46719 0.0
C1247 C 0.7861 0.86696 0.47388 0.0
H1248 H 0.77599 0.78968 0.43003 0.0
C1249 C 0.79264 0.88785 0.44818 0.0
H1250 H 0.77516 0.81516 0.48689 0.0
C1251 C 0.79429 0.87333 0.41607 0.0
C1252 C 0.78824 0.8379 0.40938 0.0
H1253 H 0.79733 0.91523 0.45313 0.0
H1254 H 0.7998 0.8897 0.39642 0.0
C1255 C 0.78079 0.81708 0.43491 0.0
C1256 C 0.47715 0.56493 0.84323 0.0
C1257 C 0.44647 0.57453 0.83837 0.0
H1258 H 0.51647 0.55861 0.87826 0.0
C1259 C 0.43404 0.59027 0.86537 0.0
H1260 H 0.48748 0.55319 0.82268 0.0
C1261 C 0.45068 0.59321 0.89747 0.0
C1262 C 0.47988 0.58064 0.90256 0.0
H1263 H 0.41041 0.59791 0.86215 0.0
H1264 H 0.43963 0.60314 0.91844 0.0
C1265 C 0.49376 0.56806 0.87502 0.0
C1266 C 0.83335 0.225 0.13569 0.0
C1267 C 0.81739 0.23427 0.10659 0.0
H1268 H 0.83999 0.22986 0.18922 0.0
C1269 C 0.79735 0.2587 0.11015 0.0
H1270 H 0.84888 0.20623 0.13404 0.0
C1271 C 0.79186 0.27191 0.14189 0.0
C1272 C 0.80671 0.26152 0.17096 0.0
H1273 H 0.78445 0.26637 0.08843 0.0
H1274 H 0.77522 0.28957 0.14363 0.0
C1275 C 0.82827 0.23863 0.16742 0.0
C1276 C 0.05501 0.54394 0.39102 0.0
C1277 C 0.05567 0.51282 0.37298 0.0
H1278 H 0.04067 0.56925 0.43443 0.0
C1279 C 0.04158 0.48256 0.38567 0.0
H1280 H 0.06593 0.56767 0.38205 0.0
C1281 C 0.02626 0.48353 0.41529 0.0
C1282 C 0.02578 0.51472 0.43329 0.0
H1283 H 0.04177 0.45822 0.37234 0.0
H1284 H 0.01503 0.45992 0.42428 0.0
C1285 C 0.04071 0.54486 0.42109 0.0
C1286 C 0.74567 0.81495 0.62748 0.0
C1287 C 0.7326 0.8446 0.63265 0.0
H1288 H 0.75836 0.77167 0.64903 0.0
C1289 C 0.71356 0.84778 0.65923 0.0
H1290 H 0.75978 0.81119 0.60668 0.0
C1291 C 0.71157 0.82402 0.68279 0.0
C1292 C 0.7298 0.79789 0.6806 0.0
H1293 H 0.70248 0.86988 0.66331 0.0
H1294 H 0.69928 0.82873 0.70473 0.0
C1295 C 0.74462 0.79197 0.65153 0.0
C1296 C 0.61759 0.45998 0.54355 0.0
C1297 C 0.6459 0.47223 0.56577 0.0
H1298 H 0.57138 0.46843 0.52217 0.0
C1299 C 0.64801 0.50351 0.585 0.0
H1300 H 0.61491 0.436 0.5285 0.0
C1301 C 0.62291 0.5226 0.58108 0.0
C1302 C 0.59498 0.51052 0.55821 0.0
H1303 H 0.66952 0.51375 0.60236 0.0
H1304 H 0.62567 0.547 0.59539 0.0
C1305 C 0.59249 0.47868 0.54003 0.0
C1306 C 0.13989 0.1056 0.47538 0.0
C1307 C 0.16557 0.08878 0.48478 0.0
H1308 H 0.08951 0.10899 0.47899 0.0
C1309 C 0.15852 0.05881 0.50058 0.0
H1310 H 0.14453 0.12865 0.46296 0.0
C1311 C 0.12731 0.04795 0.51008 0.0
C1312 C 0.1025 0.06659 0.50357 0.0
H1313 H 0.17762 0.04494 0.50767 0.0
H1314 H 0.12305 0.02579 0.52389 0.0
C1315 C 0.10844 0.09446 0.48465 0.0
C1316 C 0.2581 0.9036 0.75646 0.0
C1317 C 0.25224 0.91995 0.78675 0.0
H1318 H 0.27677 0.86276 0.73249 0.0
C1319 C 0.26218 0.90764 0.81686 0.0
H1320 H 0.25047 0.91231 0.73284 0.0
C1321 C 0.278 0.87973 0.81662 0.0
C1322 C 0.28321 0.8631 0.78625 0.0
H1323 H 0.25793 0.9197 0.84056 0.0
H1324 H 0.28539 0.87062 0.84012 0.0
C1325 C 0.27302 0.87519 0.75621 0.0
C1326 C 0.32576 0.96333 1.00208 0.0
C1327 C 0.31368 0.9644 0.03346 0.0
H1328 H 0.36641 0.978 0.97393 0.0
C1329 C 0.33362 0.98348 0.06083 0.0
H1330 H 0.31088 0.94884 0.98057 0.0
C1331 C 0.36583 0.99956 0.05717 0.0
C1332 C 0.37817 0.99743 0.02594 0.0
H1333 H 0.32497 0.98445 0.08534 0.0
H1334 H 0.38131 0.01293 0.07887 0.0
C1335 C 0.35753 0.98002 0.99828 0.0
C1336 C 0.80734 0.65327 0.72721 0.0
C1337 C 0.84017 0.6596 0.7419 0.0
H1338 H 0.76121 0.67041 0.72274 0.0
C1339 C 0.85178 0.68966 0.76284 0.0
H1340 H 0.79755 0.63022 0.71109 0.0
C1341 C 0.83113 0.71272 0.76907 0.0
C1342 C 0.79814 0.70609 0.75502 0.0
H1343 H 0.87685 0.69538 0.77451 0.0
H1344 H 0.84095 0.73562 0.78541 0.0
C1345 C 0.78644 0.67613 0.73397 0.0
C1346 C 0.85361 0.57183 0.04575 0.0
C1347 C 0.84273 0.57814 0.01332 0.0
H1348 H 0.88791 0.55037 0.07591 0.0
C1349 C 0.85435 0.56256 0.98577 0.0
H1350 H 0.84488 0.58345 0.06743 0.0
C1351 C 0.8782 0.54272 0.99071 0.0
C1352 C 0.89116 0.53911 0.02322 0.0
H1353 H 0.846 0.5668 0.96056 0.0
H1354 H 0.88832 0.53258 0.96918 0.0
C1355 C 0.87802 0.55279 0.05067 0.0
C1356 C 0.22871 0.12893 0.82931 0.0
C1357 C 0.23428 0.10299 0.80642 0.0
H1358 H 0.23353 0.18232 0.84202 0.0
C1359 C 0.25129 0.11218 0.77886 0.0
H1360 H 0.21563 0.12283 0.85075 0.0
C1361 C 0.26106 0.1464 0.77349 0.0
C1362 C 0.25451 0.17228 0.79582 0.0
H1363 H 0.25579 0.09293 0.76055 0.0
H1364 H 0.27331 0.15253 0.75155 0.0
C1365 C 0.23891 0.16311 0.82421 0.0
C1366 C 0.36377 0.97674 0.29197 0.0
C1367 C 0.35739 0.99272 0.26303 0.0
H1368 H 0.35044 0.93368 0.3192 0.0
C1369 C 0.33046 0.97783 0.23987 0.0
H1370 H 0.38414 0.98784 0.31045 0.0
C1371 C 0.31135 0.94651 0.24475 0.0
C1372 C 0.31858 0.93009 0.27315 0.0
H1373 H 0.325 0.98965 0.21739 0.0
H1374 H 0.29154 0.93474 0.22593 0.0
C1375 C 0.34437 0.94586 0.2971 0.0
C1376 C 0.50838 0.3375 0.55872 0.0
C1377 C 0.50236 0.33663 0.59244 0.0
H1378 H 0.51208 0.36716 0.51659 0.0
C1379 C 0.49396 0.36508 0.60923 0.0
H1380 H 0.51492 0.31582 0.54524 0.0
C1381 C 0.4934 0.39453 0.59323 0.0
C1382 C 0.50006 0.39567 0.55981 0.0
H1383 H 0.48942 0.36518 0.63524 0.0
H1384 H 0.48821 0.41668 0.60718 0.0
C1385 C 0.50667 0.36669 0.54231 0.0
C1386 C 0.42094 0.76557 0.30036 0.0
C1387 C 0.44348 0.79482 0.29511 0.0
H1388 H 0.37049 0.74018 0.29621 0.0
C1389 C 0.43138 0.82058 0.2791 0.0
H1390 H 0.4293 0.74526 0.31265 0.0
C1391 C 0.39757 0.81792 0.2701 0.0
C1392 C 0.37489 0.78914 0.27628 0.0
H1393 H 0.44791 0.84356 0.27473 0.0
H1394 H 0.38914 0.83883 0.25899 0.0
C1395 C 0.38715 0.76263 0.2908 0.0
C1396 C 0.02799 0.68019 0.08374 0.0
C1397 C 0.01137 0.67328 0.11215 0.0
H1398 H 0.04719 0.66003 0.04062 0.0
C1399 C 0.99898 0.6393 0.11694 0.0
H1400 H 0.03779 0.70603 0.07905 0.0
C1401 C 1.00423 0.61292 0.09456 0.0
C1402 C 0.02218 0.61998 0.06712 0.0
H1403 H 0.98602 0.63304 0.13841 0.0
H1404 H 0.99521 0.58695 0.09944 0.0
C1405 C 0.03343 0.65386 0.0616 0.0
C1406 C 0.12404 0.24731 0.76991 0.0
C1407 C 0.12078 0.26791 0.79865 0.0
H1408 H 0.15625 0.23138 0.73606 0.0
C1409 C 0.14939 0.2885 0.81582 0.0
H1410 H 0.10267 0.23111 0.75604 0.0
C1411 C 0.18047 0.28813 0.80462 0.0
C1412 C 0.18346 0.26752 0.77578 0.0
H1413 H 0.14782 0.30459 0.83814 0.0
H1414 H 0.20193 0.3045 0.81801 0.0
C1415 C 0.15484 0.2474 0.75849 0.0
C1416 C 0.58119 0.69958 0.05205 0.0
C1417 C 0.55973 0.70874 0.02709 0.0
H1418 H 0.59315 0.66026 0.08061 0.0
C1419 C 0.53175 0.68495 0.0133 0.0
H1420 H 0.60292 0.71732 0.06322 0.0
C1421 C 0.5261 0.65214 0.02345 0.0
C1422 C 0.54846 0.64274 0.04729 0.0
H1423 H 0.51472 0.69133 0.99406 0.0
H1424 H 0.50476 0.63401 0.01215 0.0
C1425 C 0.57563 0.66687 0.06198 0.0
C1426 C 0.13799 0.82162 0.66202 0.0
C1427 C 0.10717 0.80139 0.66454 0.0
H1428 H 0.1887 0.83483 0.68146 0.0
C1429 C 0.10348 0.78047 0.69083 0.0
H1430 H 0.1415 0.83823 0.64225 0.0
C1431 C 0.13043 0.77844 0.71308 0.0
C1432 C 0.16143 0.79754 0.70965 0.0
H1433 H 0.07999 0.7647 0.69359 0.0
H1434 H 0.12721 0.7611 0.73227 0.0
C1435 C 0.16491 0.81983 0.68456 0.0
C1436 C 1.00533 0.37607 0.52233 0.0
C1437 C 0.03135 0.36723 0.50581 0.0
H1438 H 0.983 0.41596 0.54218 0.0
C1439 C 0.05739 0.39304 0.50014 0.0
H1440 H 0.98497 0.3568 0.52734 0.0
C1441 C 0.0563 0.42712 0.50881 0.0
C1442 C 0.02908 0.43603 0.52317 0.0
H1443 H 0.07783 0.38706 0.48756 0.0
H1444 H 0.07598 0.44649 0.50259 0.0
C1445 C 1.00416 0.41006 0.53084 0.0
C1446 C 0.41978 0.33393 0.17804 0.0
C1447 C 0.4378 0.30792 0.18152 0.0
H1448 H 0.38164 0.35758 0.19603 0.0
C1449 C 0.43396 0.28836 0.20875 0.0
H1450 H 0.42253 0.3496 0.15746 0.0
C1451 C 0.41117 0.29328 0.23096 0.0
C1452 C 0.39157 0.31768 0.22626 0.0
H1453 H 0.44795 0.26853 0.21248 0.0
H1454 H 0.40771 0.27672 0.25079 0.0
C1455 C 0.39665 0.33869 0.20024 0.0
C1456 C 0.57232 0.53598 0.38091 0.0
C1457 C 0.5952 0.51439 0.37893 0.0
H1458 H 0.53492 0.5521 0.40755 0.0
C1459 C 0.595 0.4893 0.40137 0.0
H1460 H 0.57141 0.5553 0.3638 0.0
C1461 C 0.57348 0.48715 0.42637 0.0
C1462 C 0.55204 0.51019 0.42936 0.0
H1463 H 0.61212 0.47208 0.40028 0.0
H1464 H 0.57504 0.4689 0.44452 0.0
C1465 C 0.55114 0.53398 0.40584 0.0
C1466 C 0.24136 0.80501 0.11859 0.0
C1467 C 0.2331 0.83737 0.12323 0.0
H1468 H 0.25531 0.76252 0.14139 0.0
C1469 C 0.23232 0.85111 0.15629 0.0
H1470 H 0.24229 0.79343 0.09368 0.0
C1471 C 0.24028 0.83344 0.18369 0.0
C1472 C 0.2492 0.80152 0.17894 0.0
H1473 H 0.22608 0.87586 0.1611 0.0
H1474 H 0.23886 0.84459 0.20857 0.0
C1475 C 0.24902 0.78728 0.146 0.0
C1476 C 0.96698 0.58587 0.88685 0.0
C1477 C 0.98533 0.5767 0.86115 0.0
H1478 H 0.96056 0.5867 0.93912 0.0
C1479 C 0.01378 0.56378 0.86982 0.0
H1480 H 0.94476 0.5956 0.88105 0.0
C1481 C 0.02312 0.55915 0.90311 0.0
C1482 C 1.00388 0.56664 0.92864 0.0
H1483 H 0.02846 0.55638 0.8507 0.0
H1484 H 0.04471 0.54828 0.90856 0.0
C1485 C 0.97595 0.58058 0.92015 0.0
C1486 C 0.27715 0.23166 0.58521 0.0
C1487 C 0.2891 0.20134 0.58095 0.0
H1488 H 0.26727 0.2703 0.61997 0.0
C1489 C 0.30527 0.18962 0.60842 0.0
H1490 H 0.265 0.24159 0.5644 0.0
C1491 C 0.30667 0.20622 0.64015 0.0
C1492 C 0.29185 0.23456 0.64465 0.0
H1493 H 0.31516 0.1666 0.60575 0.0
H1494 H 0.31755 0.19568 0.66131 0.0
C1495 C 0.27843 0.24812 0.61695 0.0
C1496 C 0.62275 0.48361 0.17642 0.0
C1497 C 0.61378 0.49528 0.20736 0.0
H1498 H 0.61317 0.48057 0.12312 0.0
C1499 C 0.58482 0.50852 0.20807 0.0
H1500 H 0.64475 0.47299 0.17504 0.0
C1501 C 0.56711 0.51318 0.17846 0.0
C1502 C 0.57772 0.5042 0.14764 0.0
H1503 H 0.57695 0.51744 0.23145 0.0
H1504 H 0.54609 0.52543 0.17972 0.0
C1505 C 0.60471 0.48791 0.14671 0.0
C1506 C 0.2192 0.82335 0.90662 0.0
C1507 C 0.23977 0.81892 0.93489 0.0
H1508 H 0.20886 0.81563 0.85322 0.0
C1509 C 0.26476 0.80029 0.93024 0.0
H1510 H 0.19981 0.83769 0.90918 0.0
C1511 C 0.26992 0.78759 0.89825 0.0
C1512 C 0.25031 0.79316 0.86977 0.0
H1513 H 0.28108 0.79625 0.95132 0.0
H1514 H 0.29002 0.77419 0.89587 0.0
C1515 C 0.22444 0.81068 0.87447 0.0
C1516 C 1.00636 0.57974 0.6705 0.0
C1517 C 0.97245 0.58012 0.66792 0.0
H1518 H 0.04831 0.57358 0.64481 0.0
C1519 C 0.95499 0.57448 0.63581 0.0
H1520 H 0.02072 0.584 0.69466 0.0
C1521 C 0.9708 0.56785 0.60734 0.0
C1522 C 1.00444 0.56677 0.61014 0.0
H1523 H 0.92891 0.57462 0.63265 0.0
H1524 H 0.95684 0.56448 0.58308 0.0
C1525 C 0.02219 0.57357 0.64195 0.0
C1526 C 0.25535 0.25231 0.41 0.0
C1527 C 0.27442 0.22741 0.41511 0.0
H1528 H 0.24277 0.28896 0.37817 0.0
C1529 C 0.30027 0.22513 0.39547 0.0
H1530 H 0.23565 0.25516 0.42518 0.0
C1531 C 0.30483 0.24527 0.36899 0.0
C1532 C 0.28333 0.26744 0.36188 0.0
H1533 H 0.31567 0.20652 0.39928 0.0
H1534 H 0.32299 0.24109 0.35228 0.0
C1535 C 0.25964 0.27202 0.38343 0.0
C1536 C 0.41246 0.59845 0.49904 0.0
C1537 C 0.38861 0.59236 0.5217 0.0
H1538 H 0.4527 0.58147 0.47707 0.0
C1539 C 0.38779 0.56396 0.54001 0.0
H1540 H 0.41366 0.61998 0.48439 0.0
C1541 C 0.40981 0.54206 0.53563 0.0
C1542 C 0.43385 0.54821 0.51337 0.0
H1543 H 0.36981 0.5583 0.55761 0.0
H1544 H 0.40824 0.52041 0.55016 0.0
C1545 C 0.43499 0.57662 0.49503 0.0
C1546 C 0.86828 0.014 0.59289 0.0
C1547 C 0.8649 0.98179 0.60472 0.0
H1548 H 0.90062 0.05411 0.5737 0.0
C1549 C 0.89283 0.96776 0.61187 0.0
H1550 H 0.84687 0.02497 0.58673 0.0
C1551 C 0.92349 0.98458 0.60497 0.0
C1552 C 0.92638 0.01515 0.58989 0.0
H1553 H 0.89059 0.94276 0.62066 0.0
H1554 H 0.94436 0.97224 0.60893 0.0
C1555 C 0.89885 0.03041 0.58505 0.0
C1556 C 0.78585 0.14765 0.21126 0.0
C1557 C 0.80549 0.13754 0.23727 0.0
H1558 H 0.75563 0.18244 0.19599 0.0
C1559 C 0.80867 0.15535 0.26915 0.0
H1560 H 0.78289 0.13464 0.18638 0.0
C1561 C 0.79255 0.18269 0.27476 0.0
C1562 C 0.77349 0.19306 0.24849 0.0
H1563 H 0.8234 0.14802 0.2898 0.0
H1564 H 0.79473 0.19547 0.29964 0.0
C1565 C 0.77012 0.17506 0.2168 0.0
C1566 C 0.70604 0.09198 0.02998 0.0
C1567 C 0.71561 0.1123 1.00444 0.0
H1568 H 0.66581 0.0647 0.05274 0.0
C1569 C 0.69151 0.11742 0.97972 0.0
H1570 H 0.72403 0.08785 0.04952 0.0
C1571 C 0.65835 0.10397 0.98142 0.0
C1572 C 0.64862 0.08566 0.00818 0.0
H1573 H 0.69819 0.13293 0.95971 0.0
H1574 H 0.64024 0.10924 0.96261 0.0
C1575 C 0.67274 0.079 0.03199 0.0
C1576 C 0.19148 0.38402 0.24784 0.0
C1577 C 0.19252 0.40894 0.27428 0.0
H1578 H 0.21071 0.34171 0.22879 0.0
C1579 C 0.21441 0.40971 0.30303 0.0
H1580 H 0.17493 0.38305 0.22537 0.0
C1581 C 0.23597 0.38665 0.30458 0.0
C1582 C 0.23509 0.36194 0.27783 0.0
H1583 H 0.21586 0.42905 0.32358 0.0
H1584 H 0.25344 0.38828 0.32644 0.0
C1585 C 0.21206 0.36041 0.24984 0.0
C1586 C 0.20098 0.53978 0.07218 0.0
C1587 C 0.20916 0.50987 0.05811 0.0
H1588 H 0.1667 0.57332 0.07093 0.0
C1589 C 0.19088 0.49293 0.02878 0.0
H1590 H 0.21496 0.55359 0.09451 0.0
C1591 C 0.16316 0.50413 0.0154 0.0
C1592 C 0.15368 0.53263 0.03093 0.0
H1593 H 0.19684 0.46994 0.01726 0.0
H1594 H 0.14815 0.48941 0.99408 0.0
C1595 C 0.17354 0.55123 0.05852 0.0
C1596 C 0.80705 0.9395 0.22448 0.0
C1597 C 0.82288 0.96221 0.25167 0.0
H1598 H 0.78465 0.88796 0.20722 0.0
C1599 C 0.82539 0.95042 0.2835 0.0
H1600 H 0.80491 0.94785 0.19967 0.0
C1601 C 0.81331 0.91649 0.28797 0.0
C1602 C 0.7991 0.89325 0.26057 0.0
H1603 H 0.83735 0.96738 0.30496 0.0
H1604 H 0.81646 0.90819 0.31273 0.0
C1605 C 0.79563 0.90522 0.22882 0.0
C1606 C 0.70961 0.08719 0.75994 0.0
C1607 C 0.68391 0.08334 0.78064 0.0
H1608 H 0.74788 0.12174 0.74111 0.0
C1609 C 0.67963 0.1116 0.80121 0.0
H1610 H 0.71356 0.0659 0.74378 0.0
C1611 C 0.69949 0.14333 0.79991 0.0
C1612 C 0.72379 0.14756 0.77775 0.0
H1613 H 0.66028 0.10945 0.81763 0.0
H1614 H 0.69482 0.16485 0.81527 0.0
C1615 C 0.72926 0.11911 0.75836 0.0
loop_
_geom_bond_atom_site_label_1
_geom_bond_atom_site_label_2
_geom_bond_distance
_geom_bond_site_symmetry_2
_ccdc_geom_bond_type
O0 Cd1 2.223 . S
O0 C8 1.315 . S
Cd1 O0 2.223 . S
Cd1 O4 2.297 . S
Cd1 O5 2.439 . S
Cd1 O11 2.240 1_455 S
Cd2 O3 2.240 . S
Cd2 O10 2.223 1_455 S
Cd2 O12 2.297 1_455 S
Cd2 O13 2.439 . S
O3 Cd2 2.240 . S
O3 C8 1.279 . S
O4 Cd1 2.297 . S
O4 C6 1.247 . S
O5 Cd1 2.439 . S
O5 C6 1.208 . S
C6 O4 1.247 . S
C6 O5 1.208 . S
C7 O12 1.247 1_455 S
C7 O13 1.208 . S
C8 O0 1.315 . S
C8 O3 1.279 . S
C9 O10 1.315 . S
C9 O11 1.279 . S
O10 Cd2 2.223 1_655 S
O10 C9 1.315 . S
O11 Cd1 2.240 1_655 S
O11 C9 1.279 . S
O12 Cd2 2.297 1_655 S
O12 C7 1.247 1_655 S
O13 Cd2 2.439 . S
O13 C7 1.208 . S
O14 Cd15 2.235 . S
O14 C22 1.318 . S
Cd15 O14 2.235 . S
Cd15 O18 2.297 . S
Cd15 O19 2.439 . S
Cd15 O25 2.240 1_655 S
Cd16 O17 2.240 1_455 S
Cd16 O24 2.223 . S
Cd16 O26 2.297 . S
Cd16 O27 2.432 1_455 S
O17 Cd16 2.240 1_655 S
O17 C22 1.279 . S
O18 Cd15 2.297 . S
O18 C20 1.247 . S
O19 Cd15 2.439 . S
O19 C20 1.208 . S
C20 O18 1.247 . S
C20 O19 1.208 . S
C21 O26 1.247 . S
C21 O27 1.201 1_455 S
C22 O14 1.318 . S
C22 O17 1.279 . S
C23 O24 1.315 . S
C23 O25 1.279 . S
O24 Cd16 2.223 . S
O24 C23 1.315 . S
O25 Cd15 2.240 1_455 S
O25 C23 1.279 . S
O26 Cd16 2.297 . S
O26 C21 1.247 . S
O27 Cd16 2.432 1_655 S
O27 C21 1.201 1_655 S
O28 Cd29 2.223 . S
O28 C36 1.315 . S
Cd29 O28 2.223 . S
Cd29 O32 2.297 . S
Cd29 O33 2.439 . S
Cd29 O39 2.240 . S
Cd30 O31 2.240 . S
Cd30 O38 2.223 . S
Cd30 O40 2.297 . S
Cd30 O41 2.439 . S
O31 Cd30 2.240 . S
O31 C36 1.279 . S
O32 Cd29 2.297 . S
O32 C34 1.247 . S
O33 Cd29 2.439 . S
O33 C34 1.208 . S
C34 O32 1.247 . S
C34 O33 1.208 . S
C35 O40 1.247 . S
C35 O41 1.208 . S
C36 O28 1.315 . S
C36 O31 1.279 . S
C37 O38 1.315 . S
C37 O39 1.279 . S
O38 Cd30 2.223 . S
O38 C37 1.315 . S
O39 Cd29 2.240 . S
O39 C37 1.279 . S
O40 Cd30 2.297 . S
O40 C35 1.247 . S
O41 Cd30 2.439 . S
O41 C35 1.208 . S
O42 Cd43 2.223 . S
O42 C50 1.315 . S
Cd43 O42 2.223 . S
Cd43 O46 2.297 . S
Cd43 O47 2.439 . S
Cd43 O53 2.240 . S
Cd44 O45 2.240 . S
Cd44 O52 2.223 . S
Cd44 O54 2.297 . S
Cd44 O55 2.439 . S
O45 Cd44 2.240 . S
O45 C50 1.279 . S
O46 Cd43 2.297 . S
O46 C48 1.247 . S
O47 Cd43 2.439 . S
O47 C48 1.208 . S
C48 O46 1.247 . S
C48 O47 1.208 . S
C49 O54 1.247 . S
C49 O55 1.208 . S
C50 O42 1.315 . S
C50 O45 1.279 . S
C51 O52 1.315 . S
C51 O53 1.279 . S
O52 Cd44 2.223 . S
O52 C51 1.315 . S
O53 Cd43 2.240 . S
O53 C51 1.279 . S
O54 Cd44 2.297 . S
O54 C49 1.247 . S
O55 Cd44 2.439 . S
O55 C49 1.208 . S
O56 Cd57 2.223 . S
O56 C64 1.315 . S
Cd57 O56 2.223 . S
Cd57 O60 2.297 1_455 S
Cd57 O61 2.439 1_455 S
Cd57 O67 2.240 . S
Cd58 O59 2.240 1_455 S
Cd58 O66 2.223 . S
Cd58 O68 2.297 . S
Cd58 O69 2.439 . S
O59 Cd58 2.240 1_655 S
O59 C64 1.279 1_655 S
O60 Cd57 2.297 1_655 S
O60 C62 1.247 . S
O61 Cd57 2.439 1_655 S
O61 C62 1.208 . S
C62 O60 1.247 . S
C62 O61 1.208 . S
C63 O68 1.247 . S
C63 O69 1.208 . S
C64 O56 1.315 . S
C64 O59 1.279 1_455 S
C65 O66 1.315 . S
C65 O67 1.279 . S
O66 Cd58 2.223 . S
O66 C65 1.315 . S
O67 Cd57 2.240 . S
O67 C65 1.279 . S
O68 Cd58 2.297 . S
O68 C63 1.247 . S
O69 Cd58 2.439 . S
O69 C63 1.208 . S
O70 Cd71 2.223 . S
O70 C78 1.315 . S
Cd71 O70 2.223 . S
Cd71 O74 2.297 . S
Cd71 O75 2.439 . S
Cd71 O81 2.240 . S
Cd72 O73 2.240 . S
Cd72 O80 2.223 . S
Cd72 O82 2.297 . S
Cd72 O83 2.439 . S
O73 Cd72 2.240 . S
O73 C78 1.279 . S
O74 Cd71 2.297 . S
O74 C76 1.247 . S
O75 Cd71 2.439 . S
O75 C76 1.208 . S
C76 O74 1.247 . S
C76 O75 1.208 . S
C77 O82 1.247 . S
C77 O83 1.208 . S
C78 O70 1.315 . S
C78 O73 1.279 . S
C79 O80 1.315 . S
C79 O81 1.279 . S
O80 Cd72 2.223 . S
O80 C79 1.315 . S
O81 Cd71 2.240 . S
O81 C79 1.279 . S
O82 Cd72 2.297 . S
O82 C77 1.247 . S
O83 Cd72 2.439 . S
O83 C77 1.208 . S
O84 Cd85 2.223 . S
O84 C92 1.315 . S
Cd85 O84 2.223 . S
Cd85 O88 2.297 . S
Cd85 O89 2.439 . S
Cd85 O95 2.240 . S
Cd86 O87 2.240 . S
Cd86 O94 2.223 . S
Cd86 O96 2.297 . S
Cd86 O97 2.439 . S
O87 Cd86 2.240 . S
O87 C92 1.279 . S
O88 Cd85 2.297 . S
O88 C90 1.247 . S
O89 Cd85 2.439 . S
O89 C90 1.208 . S
C90 O88 1.247 . S
C90 O89 1.208 . S
C91 O96 1.247 . S
C91 O97 1.208 . S
C92 O84 1.315 . S
C92 O87 1.279 . S
C93 O94 1.315 . S
C93 O95 1.279 . S
O94 Cd86 2.223 . S
O94 C93 1.315 . S
O95 Cd85 2.240 . S
O95 C93 1.279 . S
O96 Cd86 2.297 . S
O96 C91 1.247 . S
O97 Cd86 2.439 . S
O97 C91 1.208 . S
O98 Cd99 2.223 1_655 S
O98 C106 1.315 1_655 S
Cd99 O98 2.223 1_455 S
Cd99 O102 2.297 . S
Cd99 O103 2.439 . S
Cd99 O109 2.240 1_455 S
Cd100 O101 2.240 1_655 S
Cd100 O108 2.223 . S
Cd100 O110 2.297 . S
Cd100 O111 2.439 1_655 S
O101 Cd100 2.240 1_455 S
O101 C106 1.279 . S
O102 Cd99 2.297 . S
O102 C104 1.247 . S
O103 Cd99 2.439 . S
O103 C104 1.208 . S
C104 O102 1.247 . S
C104 O103 1.208 . S
C105 O110 1.247 1_455 S
C105 O111 1.208 . S
C106 O98 1.315 1_455 S
C106 O101 1.279 . S
C107 O108 1.315 . S
C107 O109 1.279 . S
O108 Cd100 2.223 . S
O108 C107 1.315 . S
O109 Cd99 2.240 1_655 S
O109 C107 1.279 . S
O110 Cd100 2.297 . S
O110 C105 1.247 1_655 S
O111 Cd100 2.439 1_455 S
O111 C105 1.208 . S
O112 Cd113 2.223 . S
O112 C120 1.315 . S
Cd113 O112 2.223 . S
Cd113 O116 2.297 . S
Cd113 O117 2.439 . S
Cd113 O123 2.240 . S
Cd114 O115 2.240 . S
Cd114 O122 2.223 1_545 S
Cd114 O124 2.297 . S
Cd114 O125 2.439 . S
O115 Cd114 2.240 . S
O115 C120 1.279 . S
O116 Cd113 2.297 . S
O116 C118 1.247 . S
O117 Cd113 2.439 . S
O117 C118 1.208 . S
C118 O116 1.247 . S
C118 O117 1.208 . S
C119 O124 1.247 . S
C119 O125 1.208 . S
C120 O112 1.315 . S
C120 O115 1.279 . S
C121 O122 1.315 . S
C121 O123 1.279 1_565 S
O122 Cd114 2.223 1_565 S
O122 C121 1.315 . S
O123 Cd113 2.240 . S
O123 C121 1.279 1_545 S
O124 Cd114 2.297 . S
O124 C119 1.247 . S
O125 Cd114 2.439 . S
O125 C119 1.208 . S
O126 Cd127 2.223 . S
O126 C134 1.315 . S
Cd127 O126 2.223 . S
Cd127 O130 2.297 . S
Cd127 O131 2.439 . S
Cd127 O137 2.240 . S
Cd128 O129 2.240 . S
Cd128 O136 2.223 . S
Cd128 O138 2.297 . S
Cd128 O139 2.439 . S
O129 Cd128 2.240 . S
O129 C134 1.279 . S
O130 Cd127 2.297 . S
O130 C132 1.247 . S
O131 Cd127 2.439 . S
O131 C132 1.208 . S
C132 O130 1.247 . S
C132 O131 1.208 . S
C133 O138 1.247 . S
C133 O139 1.208 . S
C134 O126 1.315 . S
C134 O129 1.279 . S
C135 O136 1.315 . S
C135 O137 1.279 . S
O136 Cd128 2.223 . S
O136 C135 1.315 . S
O137 Cd127 2.240 . S
O137 C135 1.279 . S
O138 Cd128 2.297 . S
O138 C133 1.247 . S
O139 Cd128 2.439 . S
O139 C133 1.208 . S
O140 Cd141 2.223 1_545 S
O140 C148 1.315 1_545 S
Cd141 O140 2.223 1_565 S
Cd141 O144 2.297 . S
Cd141 O145 2.439 . S
Cd141 O151 2.240 1_565 S
Cd142 O143 2.240 1_545 S
Cd142 O150 2.223 . S
Cd142 O152 2.297 . S
Cd142 O153 2.439 1_545 S
O143 Cd142 2.240 1_565 S
O143 C148 1.279 . S
O144 Cd141 2.297 . S
O144 C146 1.247 . S
O145 Cd141 2.439 . S
O145 C146 1.208 . S
C146 O144 1.247 . S
C146 O145 1.208 . S
C147 O152 1.247 . S
C147 O153 1.208 1_545 S
C148 O140 1.315 1_565 S
C148 O143 1.279 . S
C149 O150 1.315 . S
C149 O151 1.279 . S
O150 Cd142 2.223 . S
O150 C149 1.315 . S
O151 Cd141 2.240 1_545 S
O151 C149 1.279 . S
O152 Cd142 2.297 . S
O152 C147 1.247 . S
O153 Cd142 2.439 1_565 S
O153 C147 1.208 1_565 S
O154 Cd155 2.223 . S
O154 C162 1.315 . S
Cd155 O154 2.223 . S
Cd155 O158 2.297 . S
Cd155 O159 2.439 . S
Cd155 O165 2.240 . S
Cd156 O157 2.240 . S
Cd156 O164 2.223 . S
Cd156 O166 2.297 1_554 S
Cd156 O167 2.439 1_554 S
O157 Cd156 2.240 . S
O157 C162 1.279 . S
O158 Cd155 2.297 . S
O158 C160 1.247 . S
O159 Cd155 2.439 . S
O159 C160 1.208 . S
C160 O158 1.247 . S
C160 O159 1.208 . S
C161 O166 1.247 . S
C161 O167 1.208 . S
C162 O154 1.315 . S
C162 O157 1.279 . S
C163 O164 1.315 . S
C163 O165 1.279 . S
O164 Cd156 2.223 . S
O164 C163 1.315 . S
O165 Cd155 2.240 . S
O165 C163 1.279 . S
O166 Cd156 2.297 1_556 S
O166 C161 1.247 . S
O167 Cd156 2.439 1_556 S
O167 C161 1.208 . S
O168 Cd169 2.223 . S
O168 C176 1.315 . S
Cd169 O168 2.223 . S
Cd169 O172 2.297 . S
Cd169 O173 2.439 . S
Cd169 O179 2.240 . S
Cd170 O171 2.240 . S
Cd170 O178 2.223 . S
Cd170 O180 2.297 1_554 S
Cd170 O181 2.439 1_554 S
O171 Cd170 2.240 . S
O171 C176 1.279 . S
O172 Cd169 2.297 . S
O172 C174 1.247 . S
O173 Cd169 2.439 . S
O173 C174 1.208 . S
C174 O172 1.247 . S
C174 O173 1.208 . S
C175 O180 1.247 . S
C175 O181 1.208 . S
C176 O168 1.315 . S
C176 O171 1.279 . S
C177 O178 1.315 . S
C177 O179 1.279 . S
O178 Cd170 2.223 . S
O178 C177 1.315 . S
O179 Cd169 2.240 . S
O179 C177 1.279 . S
O180 Cd170 2.297 1_556 S
O180 C175 1.247 . S
O181 Cd170 2.439 1_556 S
O181 C175 1.208 . S
O182 Cd183 2.223 . S
O182 C190 1.315 . S
Cd183 O182 2.223 . S
Cd183 O186 2.297 . S
Cd183 O187 2.439 1_554 S
Cd183 O193 2.240 1_554 S
Cd184 O185 2.240 1_556 S
Cd184 O192 2.223 1_556 S
Cd184 O194 2.297 . S
Cd184 O195 2.439 . S
O185 Cd184 2.240 1_554 S
O185 C190 1.279 . S
O186 Cd183 2.297 . S
O186 C188 1.247 . S
O187 Cd183 2.439 1_556 S
O187 C188 1.208 1_556 S
C188 O186 1.247 . S
C188 O187 1.208 1_554 S
C189 O194 1.247 . S
C189 O195 1.208 . S
C190 O182 1.315 . S
C190 O185 1.279 . S
C191 O192 1.315 1_556 S
C191 O193 1.279 . S
O192 Cd184 2.223 1_554 S
O192 C191 1.315 1_554 S
O193 Cd183 2.240 1_556 S
O193 C191 1.279 . S
O194 Cd184 2.297 . S
O194 C189 1.247 . S
O195 Cd184 2.439 . S
O195 C189 1.208 . S
O196 Cd197 2.223 . S
O196 C204 1.315 . S
Cd197 O196 2.223 . S
Cd197 O200 2.297 . S
Cd197 O201 2.439 . S
Cd197 O207 2.240 . S
Cd198 O199 2.240 . S
Cd198 O206 2.223 . S
Cd198 O208 2.297 . S
Cd198 O209 2.439 . S
O199 Cd198 2.240 . S
O199 C204 1.279 . S
O200 Cd197 2.297 . S
O200 C202 1.247 . S
O201 Cd197 2.439 . S
O201 C202 1.208 . S
C202 O200 1.247 . S
C202 O201 1.208 . S
C203 O208 1.247 . S
C203 O209 1.208 . S
C204 O196 1.315 . S
C204 O199 1.279 . S
C205 O206 1.315 . S
C205 O207 1.279 . S
O206 Cd198 2.223 . S
O206 C205 1.315 . S
O207 Cd197 2.240 . S
O207 C205 1.279 . S
O208 Cd198 2.297 . S
O208 C203 1.247 . S
O209 Cd198 2.439 . S
O209 C203 1.208 . S
O210 Cd211 2.223 . S
O210 C218 1.315 . S
Cd211 O210 2.223 . S
Cd211 O214 2.297 . S
Cd211 O215 2.439 . S
Cd211 O221 2.240 . S
Cd212 O213 2.240 . S
Cd212 O220 2.223 . S
Cd212 O222 2.297 . S
Cd212 O223 2.439 . S
O213 Cd212 2.240 . S
O213 C218 1.279 . S
O214 Cd211 2.297 . S
O214 C216 1.247 . S
O215 Cd211 2.439 . S
O215 C216 1.208 . S
C216 O214 1.247 . S
C216 O215 1.208 . S
C217 O222 1.247 . S
C217 O223 1.208 . S
C218 O210 1.315 . S
C218 O213 1.279 . S
C219 O220 1.315 . S
C219 O221 1.279 . S
O220 Cd212 2.223 . S
O220 C219 1.315 . S
O221 Cd211 2.240 . S
O221 C219 1.279 . S
O222 Cd212 2.297 . S
O222 C217 1.247 . S
O223 Cd212 2.439 . S
O223 C217 1.208 . S
O224 Cd225 2.223 . S
O224 C232 1.315 . S
Cd225 O224 2.223 . S
Cd225 O228 2.297 . S
Cd225 O229 2.439 . S
Cd225 O235 2.240 . S
Cd226 O227 2.240 . S
Cd226 O234 2.223 1_545 S
Cd226 O236 2.297 . S
Cd226 O237 2.439 . S
O227 Cd226 2.240 . S
O227 C232 1.279 . S
O228 Cd225 2.297 . S
O228 C230 1.247 . S
O229 Cd225 2.439 . S
O229 C230 1.208 . S
C230 O228 1.247 . S
C230 O229 1.208 . S
C231 O236 1.247 . S
C231 O237 1.208 . S
C232 O224 1.315 . S
C232 O227 1.279 . S
C233 O234 1.315 . S
C233 O235 1.279 1_565 S
O234 Cd226 2.223 1_565 S
O234 C233 1.315 . S
O235 Cd225 2.240 . S
O235 C233 1.279 1_545 S
O236 Cd226 2.297 . S
O236 C231 1.247 . S
O237 Cd226 2.439 . S
O237 C231 1.208 . S
O238 Cd239 2.223 . S
O238 C246 1.315 . S
Cd239 O238 2.223 . S
Cd239 O242 2.297 . S
Cd239 O243 2.439 . S
Cd239 O249 2.240 . S
Cd240 O241 2.240 . S
Cd240 O248 2.223 . S
Cd240 O250 2.297 . S
Cd240 O251 2.439 . S
O241 Cd240 2.240 . S
O241 C246 1.279 . S
O242 Cd239 2.297 . S
O242 C244 1.247 . S
O243 Cd239 2.439 . S
O243 C244 1.208 . S
C244 O242 1.247 . S
C244 O243 1.208 . S
C245 O250 1.247 . S
C245 O251 1.208 . S
C246 O238 1.315 . S
C246 O241 1.279 . S
C247 O248 1.315 . S
C247 O249 1.279 . S
O248 Cd240 2.223 . S
O248 C247 1.315 . S
O249 Cd239 2.240 . S
O249 C247 1.279 . S
O250 Cd240 2.297 . S
O250 C245 1.247 . S
O251 Cd240 2.439 . S
O251 C245 1.208 . S
O252 Cd253 2.223 . S
O252 C260 1.315 . S
Cd253 O252 2.223 . S
Cd253 O256 2.297 . S
Cd253 O257 2.439 . S
Cd253 O263 2.240 . S
Cd254 O255 2.240 . S
Cd254 O262 2.223 . S
Cd254 O264 2.297 . S
Cd254 O265 2.439 . S
O255 Cd254 2.240 . S
O255 C260 1.279 . S
O256 Cd253 2.297 . S
O256 C258 1.247 . S
O257 Cd253 2.439 . S
O257 C258 1.208 . S
C258 O256 1.247 . S
C258 O257 1.208 . S
C259 O264 1.247 . S
C259 O265 1.208 . S
C260 O252 1.315 . S
C260 O255 1.279 . S
C261 O262 1.315 . S
C261 O263 1.279 . S
O262 Cd254 2.223 . S
O262 C261 1.315 . S
O263 Cd253 2.240 . S
O263 C261 1.279 . S
O264 Cd254 2.297 . S
O264 C259 1.247 . S
O265 Cd254 2.439 . S
O265 C259 1.208 . S
O266 Cd267 2.223 . S
O266 C274 1.315 . S
Cd267 O266 2.223 . S
Cd267 O270 2.297 1_545 S
Cd267 O271 2.439 1_545 S
Cd267 O277 2.240 . S
Cd268 O269 2.240 1_545 S
Cd268 O276 2.223 . S
Cd268 O278 2.297 . S
Cd268 O279 2.439 . S
O269 Cd268 2.240 1_565 S
O269 C274 1.279 1_565 S
O270 Cd267 2.297 1_565 S
O270 C272 1.247 . S
O271 Cd267 2.439 1_565 S
O271 C272 1.208 . S
C272 O270 1.247 . S
C272 O271 1.208 . S
C273 O278 1.247 . S
C273 O279 1.208 . S
C274 O266 1.315 . S
C274 O269 1.279 1_545 S
C275 O276 1.315 . S
C275 O277 1.279 . S
O276 Cd268 2.223 . S
O276 C275 1.315 . S
O277 Cd267 2.240 . S
O277 C275 1.279 . S
O278 Cd268 2.297 . S
O278 C273 1.247 . S
O279 Cd268 2.439 . S
O279 C273 1.208 . S
O280 Cd281 2.223 . S
O280 C288 1.315 . S
Cd281 O280 2.223 . S
Cd281 O284 2.297 . S
Cd281 O285 2.453 . S
Cd281 O291 2.240 1_554 S
Cd282 O283 2.240 1_556 S
Cd282 O290 2.223 1_556 S
Cd282 O292 2.297 . S
Cd282 O293 2.439 . S
O283 Cd282 2.240 1_554 S
O283 C288 1.279 . S
O284 Cd281 2.297 . S
O284 C286 1.247 . S
O285 Cd281 2.453 . S
O285 C286 1.228 . S
C286 O284 1.247 . S
C286 O285 1.228 . S
C287 O292 1.247 . S
C287 O293 1.208 . S
C288 O280 1.315 . S
C288 O283 1.279 . S
C289 O290 1.315 . S
C289 O291 1.279 1_554 S
O290 Cd282 2.223 1_554 S
O290 C289 1.315 . S
O291 Cd281 2.240 1_556 S
O291 C289 1.279 1_556 S
O292 Cd282 2.297 . S
O292 C287 1.247 . S
O293 Cd282 2.439 . S
O293 C287 1.208 . S
O294 Cd295 2.223 . S
O294 C302 1.315 . S
Cd295 O294 2.223 . S
Cd295 O298 2.297 . S
Cd295 O299 2.439 . S
Cd295 O305 2.240 . S
Cd296 O297 2.240 . S
Cd296 O304 2.223 . S
Cd296 O306 2.297 . S
Cd296 O307 2.439 . S
O297 Cd296 2.240 . S
O297 C302 1.279 . S
O298 Cd295 2.297 . S
O298 C300 1.247 . S
O299 Cd295 2.439 . S
O299 C300 1.208 . S
C300 O298 1.247 . S
C300 O299 1.208 . S
C301 O306 1.247 . S
C301 O307 1.208 . S
C302 O294 1.315 . S
C302 O297 1.279 . S
C303 O304 1.315 . S
C303 O305 1.279 . S
O304 Cd296 2.223 . S
O304 C303 1.315 . S
O305 Cd295 2.240 . S
O305 C303 1.279 . S
O306 Cd296 2.297 . S
O306 C301 1.247 . S
O307 Cd296 2.439 . S
O307 C301 1.208 . S
O308 Cd309 2.223 . S
O308 C316 1.315 . S
Cd309 O308 2.223 . S
Cd309 O312 2.297 . S
Cd309 O313 2.439 . S
Cd309 O319 2.240 . S
Cd310 O311 2.240 . S
Cd310 O318 2.223 . S
Cd310 O320 2.297 . S
Cd310 O321 2.439 . S
O311 Cd310 2.240 . S
O311 C316 1.279 . S
O312 Cd309 2.297 . S
O312 C314 1.247 . S
O313 Cd309 2.439 . S
O313 C314 1.208 . S
C314 O312 1.247 . S
C314 O313 1.208 . S
C315 O320 1.247 . S
C315 O321 1.208 . S
C316 O308 1.315 . S
C316 O311 1.279 . S
C317 O318 1.315 . S
C317 O319 1.279 . S
O318 Cd310 2.223 . S
O318 C317 1.315 . S
O319 Cd309 2.240 . S
O319 C317 1.279 . S
O320 Cd310 2.297 . S
O320 C315 1.247 . S
O321 Cd310 2.439 . S
O321 C315 1.208 . S
O322 Cd323 2.223 . S
O322 C330 1.315 . S
Cd323 O322 2.223 . S
Cd323 O326 2.297 . S
Cd323 O327 2.439 . S
Cd323 O333 2.240 . S
Cd324 O325 2.240 . S
Cd324 O332 2.223 . S
Cd324 O334 2.297 . S
Cd324 O335 2.439 . S
O325 Cd324 2.240 . S
O325 C330 1.279 . S
O326 Cd323 2.297 . S
O326 C328 1.247 . S
O327 Cd323 2.439 . S
O327 C328 1.208 . S
C328 O326 1.247 . S
C328 O327 1.208 . S
C329 O334 1.247 . S
C329 O335 1.208 . S
C330 O322 1.315 . S
C330 O325 1.279 . S
C331 O332 1.315 . S
C331 O333 1.279 . S
O332 Cd324 2.223 . S
O332 C331 1.315 . S
O333 Cd323 2.240 . S
O333 C331 1.279 . S
O334 Cd324 2.297 . S
O334 C329 1.247 . S
O335 Cd324 2.439 . S
O335 C329 1.208 . S
Tb336 O339 2.453 . S
Tb336 O340 2.596 . S
Tb336 O341 2.374 1_554 S
Tb336 O349 2.343 1_455 S
Tb336 O351 2.353 . S
Tb336 O353 2.427 . S
Tb336 O354 2.513 1_554 S
C337 O341 1.251 . S
C337 O343 1.263 . S
Tb338 O340 2.343 1_665 S
Tb338 O343 2.353 1_664 S
Tb338 O346 2.427 1_655 S
Tb338 O347 2.522 . S
Tb338 O348 2.453 1_564 S
Tb338 O349 2.596 1_565 S
Tb338 O350 2.374 1_565 S
O339 Tb336 2.453 . S
O339 C355 1.245 . S
O340 Tb336 2.596 . S
O340 Tb338 2.343 1_445 S
O340 C355 1.259 . S
O341 Tb336 2.374 1_556 S
O341 C337 1.251 . S
C342 O346 1.275 . S
C342 O347 1.235 1_455 S
O343 C337 1.263 . S
O343 Tb338 2.353 1_446 S
C344 O348 1.245 1_554 S
C344 O349 1.259 . S
C345 O350 1.250 . S
C345 O351 1.263 1_655 S
O346 Tb338 2.427 1_455 S
O346 C342 1.275 . S
O347 Tb338 2.522 . S
O347 C342 1.235 1_655 S
O348 Tb338 2.453 1_546 S
O348 C344 1.245 1_556 S
O349 Tb336 2.343 1_655 S
O349 Tb338 2.596 1_545 S
O349 C344 1.259 . S
O350 Tb338 2.374 1_545 S
O350 C345 1.250 . S
O351 Tb336 2.353 . S
O351 C345 1.263 1_455 S
C352 O353 1.278 1_556 S
C352 O354 1.243 . S
O353 Tb336 2.427 . S
O353 C352 1.278 1_554 S
O354 Tb336 2.513 1_556 S
O354 C352 1.243 . S
C355 O339 1.245 . S
C355 O340 1.259 . S
Tb356 O359 2.453 . S
Tb356 O360 2.596 . S
Tb356 O361 2.374 . S
Tb356 O369 2.343 . S
Tb356 O371 2.353 . S
Tb356 O373 2.427 . S
Tb356 O374 2.513 . S
C357 O361 1.251 . S
C357 O363 1.263 . S
Tb358 O360 2.343 . S
Tb358 O363 2.353 . S
Tb358 O366 2.427 . S
Tb358 O367 2.513 . S
Tb358 O368 2.453 . S
Tb358 O369 2.596 . S
Tb358 O370 2.374 . S
O359 Tb356 2.453 . S
O359 C375 1.245 . S
O360 Tb356 2.596 . S
O360 Tb358 2.343 . S
O360 C375 1.259 . S
O361 Tb356 2.374 . S
O361 C357 1.251 . S
C362 O366 1.275 . S
C362 O367 1.246 . S
O363 C357 1.263 . S
O363 Tb358 2.353 . S
C364 O368 1.245 . S
C364 O369 1.259 . S
C365 O370 1.250 . S
C365 O371 1.263 . S
O366 Tb358 2.427 . S
O366 C362 1.275 . S
O367 Tb358 2.513 . S
O367 C362 1.246 . S
O368 Tb358 2.453 . S
O368 C364 1.245 . S
O369 Tb356 2.343 . S
O369 Tb358 2.596 . S
O369 C364 1.259 . S
O370 Tb358 2.374 . S
O370 C365 1.250 . S
O371 Tb356 2.353 . S
O371 C365 1.263 . S
C372 O373 1.275 . S
C372 O374 1.246 . S
O373 Tb356 2.427 . S
O373 C372 1.275 . S
O374 Tb356 2.513 . S
O374 C372 1.246 . S
C375 O359 1.245 . S
C375 O360 1.259 . S
Tb376 O379 2.453 . S
Tb376 O380 2.596 . S
Tb376 O381 2.374 . S
Tb376 O389 2.333 1_545 S
Tb376 O391 2.353 . S
Tb376 O393 2.427 . S
Tb376 O394 2.513 . S
C377 O381 1.251 . S
C377 O383 1.263 . S
Tb378 O380 2.343 . S
Tb378 O383 2.353 . S
Tb378 O386 2.427 . S
Tb378 O387 2.513 . S
Tb378 O388 2.453 1_545 S
Tb378 O389 2.589 1_545 S
Tb378 O390 2.374 . S
O379 Tb376 2.453 . S
O379 C395 1.245 . S
O380 Tb376 2.596 . S
O380 Tb378 2.343 . S
O380 C395 1.259 . S
O381 Tb376 2.374 . S
O381 C377 1.251 . S
C382 O386 1.275 . S
C382 O387 1.246 . S
O383 C377 1.263 . S
O383 Tb378 2.353 . S
C384 O388 1.245 . S
C384 O389 1.272 . S
C385 O390 1.250 . S
C385 O391 1.263 . S
O386 Tb378 2.427 . S
O386 C382 1.275 . S
O387 Tb378 2.513 . S
O387 C382 1.246 . S
O388 Tb378 2.453 1_565 S
O388 C384 1.245 . S
O389 Tb376 2.333 1_565 S
O389 Tb378 2.589 1_565 S
O389 C384 1.272 . S
O390 Tb378 2.374 . S
O390 C385 1.250 . S
O391 Tb376 2.353 . S
O391 C385 1.263 . S
C392 O393 1.280 . S
C392 O394 1.246 . S
O393 Tb376 2.427 . S
O393 C392 1.280 . S
O394 Tb376 2.513 . S
O394 C392 1.246 . S
C395 O379 1.245 . S
C395 O380 1.259 . S
Tb396 O399 2.453 . S
Tb396 O400 2.596 . S
Tb396 O401 2.374 . S
Tb396 O409 2.343 . S
Tb396 O411 2.353 . S
Tb396 O413 2.427 . S
Tb396 O414 2.513 . S
C397 O401 1.251 . S
C397 O403 1.263 . S
Tb398 O400 2.343 . S
Tb398 O403 2.353 . S
Tb398 O406 2.427 . S
Tb398 O407 2.513 . S
Tb398 O408 2.453 . S
Tb398 O409 2.596 . S
Tb398 O410 2.374 . S
O399 Tb396 2.453 . S
O399 C415 1.245 . S
O400 Tb396 2.596 . S
O400 Tb398 2.343 . S
O400 C415 1.259 . S
O401 Tb396 2.374 . S
O401 C397 1.251 . S
C402 O406 1.275 . S
C402 O407 1.246 . S
O403 C397 1.263 . S
O403 Tb398 2.353 . S
C404 O408 1.245 . S
C404 O409 1.259 . S
C405 O410 1.250 . S
C405 O411 1.263 . S
O406 Tb398 2.427 . S
O406 C402 1.275 . S
O407 Tb398 2.513 . S
O407 C402 1.246 . S
O408 Tb398 2.453 . S
O408 C404 1.245 . S
O409 Tb396 2.343 . S
O409 Tb398 2.596 . S
O409 C404 1.259 . S
O410 Tb398 2.374 . S
O410 C405 1.250 . S
O411 Tb396 2.353 . S
O411 C405 1.263 . S
C412 O413 1.275 . S
C412 O414 1.246 . S
O413 Tb396 2.427 . S
O413 C412 1.275 . S
O414 Tb396 2.513 . S
O414 C412 1.246 . S
C415 O399 1.245 . S
C415 O400 1.259 . S
Tb416 O419 2.453 1_545 S
Tb416 O420 2.596 . S
Tb416 O421 2.374 1_455 S
Tb416 O429 2.343 . S
Tb416 O431 2.353 . S
Tb416 O433 2.427 . S
Tb416 O434 2.513 1_455 S
C417 O421 1.251 . S
C417 O423 1.263 . S
Tb418 O420 2.343 . S
Tb418 O423 2.353 1_455 S
Tb418 O426 2.427 . S
Tb418 O427 2.513 . S
Tb418 O428 2.453 . S
Tb418 O429 2.596 . S
Tb418 O430 2.374 . S
O419 Tb416 2.453 1_565 S
O419 C435 1.245 . S
O420 Tb416 2.596 . S
O420 Tb418 2.343 . S
O420 C435 1.259 1_545 S
O421 Tb416 2.374 1_655 S
O421 C417 1.251 . S
C422 O426 1.275 . S
C422 O427 1.246 . S
O423 C417 1.263 . S
O423 Tb418 2.353 1_655 S
C424 O428 1.245 . S
C424 O429 1.259 . S
C425 O430 1.250 . S
C425 O431 1.263 . S
O426 Tb418 2.427 . S
O426 C422 1.275 . S
O427 Tb418 2.513 . S
O427 C422 1.246 . S
O428 Tb418 2.453 . S
O428 C424 1.245 . S
O429 Tb416 2.343 . S
O429 Tb418 2.596 . S
O429 C424 1.259 . S
O430 Tb418 2.374 . S
O430 C425 1.250 . S
O431 Tb416 2.353 . S
O431 C425 1.263 . S
C432 O433 1.275 1_655 S
C432 O434 1.246 . S
O433 Tb416 2.427 . S
O433 C432 1.275 1_455 S
O434 Tb416 2.513 1_655 S
O434 C432 1.246 . S
C435 O419 1.245 . S
C435 O420 1.259 1_565 S
Tb436 O439 2.453 . S
Tb436 O440 2.596 . S
Tb436 O441 2.374 . S
Tb436 O449 2.343 . S
Tb436 O451 2.353 . S
Tb436 O453 2.427 . S
Tb436 O454 2.513 . S
C437 O441 1.251 . S
C437 O443 1.263 . S
Tb438 O440 2.343 . S
Tb438 O443 2.353 . S
Tb438 O446 2.427 . S
Tb438 O447 2.513 . S
Tb438 O448 2.453 . S
Tb438 O449 2.596 . S
Tb438 O450 2.374 . S
O439 Tb436 2.453 . S
O439 C455 1.245 . S
O440 Tb436 2.596 . S
O440 Tb438 2.343 . S
O440 C455 1.259 . S
O441 Tb436 2.374 . S
O441 C437 1.251 . S
C442 O446 1.275 . S
C442 O447 1.246 . S
O443 C437 1.263 . S
O443 Tb438 2.353 . S
C444 O448 1.245 . S
C444 O449 1.259 . S
C445 O450 1.250 . S
C445 O451 1.263 . S
O446 Tb438 2.427 . S
O446 C442 1.275 . S
O447 Tb438 2.513 . S
O447 C442 1.246 . S
O448 Tb438 2.453 . S
O448 C444 1.245 . S
O449 Tb436 2.343 . S
O449 Tb438 2.596 . S
O449 C444 1.259 . S
O450 Tb438 2.374 . S
O450 C445 1.250 . S
O451 Tb436 2.353 . S
O451 C445 1.263 . S
C452 O453 1.275 . S
C452 O454 1.246 . S
O453 Tb436 2.427 . S
O453 C452 1.275 . S
O454 Tb436 2.513 . S
O454 C452 1.246 . S
C455 O439 1.245 . S
C455 O440 1.259 . S
Tb456 O459 2.453 . S
Tb456 O460 2.596 . S
Tb456 O461 2.374 1_545 S
Tb456 O469 2.343 1_556 S
Tb456 O471 2.353 1_556 S
Tb456 O473 2.427 1_556 S
Tb456 O474 2.513 1_546 S
C457 O461 1.251 1_554 S
C457 O463 1.263 . S
Tb458 O460 2.343 1_554 S
Tb458 O463 2.353 1_545 S
Tb458 O466 2.427 . S
Tb458 O467 2.513 . S
Tb458 O468 2.453 . S
Tb458 O469 2.596 . S
Tb458 O470 2.374 . S
O459 Tb456 2.453 . S
O459 C475 1.245 . S
O460 Tb456 2.596 . S
O460 Tb458 2.343 1_556 S
O460 C475 1.259 . S
O461 Tb456 2.374 1_565 S
O461 C457 1.251 1_556 S
C462 O466 1.275 . S
C462 O467 1.246 . S
O463 C457 1.263 . S
O463 Tb458 2.353 1_565 S
C464 O468 1.245 . S
C464 O469 1.259 . S
C465 O470 1.250 . S
C465 O471 1.263 . S
O466 Tb458 2.427 . S
O466 C462 1.275 . S
O467 Tb458 2.513 . S
O467 C462 1.246 . S
O468 Tb458 2.453 . S
O468 C464 1.245 . S
O469 Tb456 2.343 1_554 S
O469 Tb458 2.596 . S
O469 C464 1.259 . S
O470 Tb458 2.374 . S
O470 C465 1.250 . S
O471 Tb456 2.353 1_554 S
O471 C465 1.263 . S
C472 O473 1.275 1_565 S
C472 O474 1.246 . S
O473 Tb456 2.427 1_554 S
O473 C472 1.275 1_545 S
O474 Tb456 2.513 1_564 S
O474 C472 1.246 . S
C475 O459 1.245 . S
C475 O460 1.259 . S
Tb476 O479 2.453 . S
Tb476 O480 2.596 . S
Tb476 O481 2.374 . S
Tb476 O489 2.343 . S
Tb476 O491 2.353 . S
Tb476 O493 2.427 . S
Tb476 O494 2.513 . S
C477 O481 1.251 . S
C477 O483 1.263 . S
Tb478 O480 2.343 . S
Tb478 O483 2.353 . S
Tb478 O486 2.427 . S
Tb478 O487 2.513 . S
Tb478 O488 2.453 . S
Tb478 O489 2.596 . S
Tb478 O490 2.374 . S
O479 Tb476 2.453 . S
O479 C495 1.245 . S
O480 Tb476 2.596 . S
O480 Tb478 2.343 . S
O480 C495 1.259 . S
O481 Tb476 2.374 . S
O481 C477 1.251 . S
C482 O486 1.275 . S
C482 O487 1.246 . S
O483 C477 1.263 . S
O483 Tb478 2.353 . S
C484 O488 1.245 . S
C484 O489 1.259 . S
C485 O490 1.250 . S
C485 O491 1.263 . S
O486 Tb478 2.427 . S
O486 C482 1.275 . S
O487 Tb478 2.513 . S
O487 C482 1.246 . S
O488 Tb478 2.453 . S
O488 C484 1.245 . S
O489 Tb476 2.343 . S
O489 Tb478 2.596 . S
O489 C484 1.259 . S
O490 Tb478 2.374 . S
O490 C485 1.250 . S
O491 Tb476 2.353 . S
O491 C485 1.263 . S
C492 O493 1.275 . S
C492 O494 1.246 . S
O493 Tb476 2.427 . S
O493 C492 1.275 . S
O494 Tb476 2.513 . S
O494 C492 1.246 . S
C495 O479 1.245 . S
C495 O480 1.259 . S
Tb496 O499 2.453 1_556 S
Tb496 O500 2.596 1_556 S
Tb496 O501 2.374 1_556 S
Tb496 O509 2.343 1_556 S
Tb496 O511 2.353 . S
Tb496 O513 2.427 . S
Tb496 O514 2.513 . S
C497 O501 1.251 . S
C497 O503 1.263 . S
Tb498 O500 2.343 . S
Tb498 O503 2.353 . S
Tb498 O506 2.427 . S
Tb498 O507 2.513 . S
Tb498 O508 2.453 . S
Tb498 O509 2.596 . S
Tb498 O510 2.374 . S
O499 Tb496 2.453 1_554 S
O499 C515 1.245 . S
O500 Tb496 2.596 1_554 S
O500 Tb498 2.343 . S
O500 C515 1.259 . S
O501 Tb496 2.374 1_554 S
O501 C497 1.251 . S
C502 O506 1.275 . S
C502 O507 1.246 . S
O503 C497 1.263 . S
O503 Tb498 2.353 . S
C504 O508 1.245 . S
C504 O509 1.259 . S
C505 O510 1.250 . S
C505 O511 1.263 1_554 S
O506 Tb498 2.427 . S
O506 C502 1.275 . S
O507 Tb498 2.513 . S
O507 C502 1.246 . S
O508 Tb498 2.453 . S
O508 C504 1.245 . S
O509 Tb496 2.343 1_554 S
O509 Tb498 2.596 . S
O509 C504 1.259 . S
O510 Tb498 2.374 . S
O510 C505 1.250 . S
O511 Tb496 2.353 . S
O511 C505 1.263 1_556 S
C512 O513 1.275 . S
C512 O514 1.246 . S
O513 Tb496 2.427 . S
O513 C512 1.275 . S
O514 Tb496 2.513 . S
O514 C512 1.246 . S
C515 O499 1.245 . S
C515 O500 1.259 . S
Tb516 O519 2.453 . S
Tb516 O520 2.596 . S
Tb516 O521 2.374 . S
Tb516 O529 2.343 . S
Tb516 O531 2.353 . S
Tb516 O533 2.427 . S
Tb516 O534 2.513 . S
C517 O521 1.251 . S
C517 O523 1.263 . S
Tb518 O520 2.343 . S
Tb518 O523 2.353 . S
Tb518 O526 2.427 . S
Tb518 O527 2.513 . S
Tb518 O528 2.453 . S
Tb518 O529 2.596 . S
Tb518 O530 2.374 . S
O519 Tb516 2.453 . S
O519 C535 1.245 . S
O520 Tb516 2.596 . S
O520 Tb518 2.343 . S
O520 C535 1.259 . S
O521 Tb516 2.374 . S
O521 C517 1.251 . S
C522 O526 1.275 . S
C522 O527 1.246 . S
O523 C517 1.263 . S
O523 Tb518 2.353 . S
C524 O528 1.245 . S
C524 O529 1.259 . S
C525 O530 1.250 . S
C525 O531 1.263 . S
O526 Tb518 2.427 . S
O526 C522 1.275 . S
O527 Tb518 2.513 . S
O527 C522 1.246 . S
O528 Tb518 2.453 . S
O528 C524 1.245 . S
O529 Tb516 2.343 . S
O529 Tb518 2.596 . S
O529 C524 1.259 . S
O530 Tb518 2.374 . S
O530 C525 1.250 . S
O531 Tb516 2.353 . S
O531 C525 1.263 . S
C532 O533 1.275 . S
C532 O534 1.246 . S
O533 Tb516 2.427 . S
O533 C532 1.275 . S
O534 Tb516 2.513 . S
O534 C532 1.246 . S
C535 O519 1.245 . S
C535 O520 1.259 . S
Tb536 O539 2.453 . S
Tb536 O540 2.596 1_655 S
Tb536 O541 2.374 . S
Tb536 O549 2.343 . S
Tb536 O551 2.353 . S
Tb536 O553 2.427 . S
Tb536 O554 2.513 . S
C537 O541 1.251 1_455 S
C537 O543 1.263 . S
Tb538 O540 2.343 . S
Tb538 O543 2.353 . S
Tb538 O546 2.427 . S
Tb538 O547 2.513 . S
Tb538 O548 2.453 . S
Tb538 O549 2.596 1_455 S
Tb538 O550 2.374 . S
O539 Tb536 2.453 . S
O539 C555 1.245 1_655 S
O540 Tb536 2.596 1_455 S
O540 Tb538 2.343 . S
O540 C555 1.259 . S
O541 Tb536 2.374 . S
O541 C537 1.251 1_655 S
C542 O546 1.275 . S
C542 O547 1.246 . S
O543 C537 1.263 . S
O543 Tb538 2.353 . S
C544 O548 1.245 1_655 S
C544 O549 1.259 . S
C545 O550 1.250 . S
C545 O551 1.263 1_455 S
O546 Tb538 2.427 . S
O546 C542 1.275 . S
O547 Tb538 2.513 . S
O547 C542 1.246 . S
O548 Tb538 2.453 . S
O548 C544 1.245 1_455 S
O549 Tb536 2.343 . S
O549 Tb538 2.596 1_655 S
O549 C544 1.259 . S
O550 Tb538 2.374 . S
O550 C545 1.250 . S
O551 Tb536 2.353 . S
O551 C545 1.263 1_655 S
C552 O553 1.275 . S
C552 O554 1.246 . S
O553 Tb536 2.427 . S
O553 C552 1.275 . S
O554 Tb536 2.513 . S
O554 C552 1.246 . S
C555 O539 1.245 1_455 S
C555 O540 1.259 . S
Tb556 O559 2.453 . S
Tb556 O560 2.596 . S
Tb556 O561 2.374 . S
Tb556 O569 2.343 . S
Tb556 O571 2.353 . S
Tb556 O573 2.427 . S
Tb556 O574 2.513 . S
C557 O561 1.251 . S
C557 O563 1.263 . S
Tb558 O560 2.343 . S
Tb558 O563 2.353 . S
Tb558 O566 2.427 . S
Tb558 O567 2.513 . S
Tb558 O568 2.453 . S
Tb558 O569 2.596 . S
Tb558 O570 2.374 . S
O559 Tb556 2.453 . S
O559 C575 1.245 . S
O560 Tb556 2.596 . S
O560 Tb558 2.343 . S
O560 C575 1.259 . S
O561 Tb556 2.374 . S
O561 C557 1.251 . S
C562 O566 1.275 . S
C562 O567 1.246 . S
O563 C557 1.263 . S
O563 Tb558 2.353 . S
C564 O568 1.245 . S
C564 O569 1.259 . S
C565 O570 1.250 . S
C565 O571 1.263 . S
O566 Tb558 2.427 . S
O566 C562 1.275 . S
O567 Tb558 2.513 . S
O567 C562 1.246 . S
O568 Tb558 2.453 . S
O568 C564 1.245 . S
O569 Tb556 2.343 . S
O569 Tb558 2.596 . S
O569 C564 1.259 . S
O570 Tb558 2.374 . S
O570 C565 1.250 . S
O571 Tb556 2.353 . S
O571 C565 1.263 . S
C572 O573 1.275 . S
C572 O574 1.246 . S
O573 Tb556 2.427 . S
O573 C572 1.275 . S
O574 Tb556 2.513 . S
O574 C572 1.246 . S
C575 O559 1.245 . S
C575 O560 1.259 . S
Tb576 O579 2.453 . S
Tb576 O580 2.596 . S
Tb576 O581 2.374 . S
Tb576 O589 2.343 . S
Tb576 O591 2.353 . S
Tb576 O593 2.427 . S
Tb576 O594 2.513 . S
C577 O581 1.251 . S
C577 O583 1.263 . S
Tb578 O580 2.343 . S
Tb578 O583 2.353 . S
Tb578 O586 2.427 . S
Tb578 O587 2.513 . S
Tb578 O588 2.453 . S
Tb578 O589 2.596 . S
Tb578 O590 2.374 . S
O579 Tb576 2.453 . S
O579 C595 1.245 . S
O580 Tb576 2.596 . S
O580 Tb578 2.343 . S
O580 C595 1.259 . S
O581 Tb576 2.374 . S
O581 C577 1.251 . S
C582 O586 1.275 . S
C582 O587 1.246 . S
O583 C577 1.263 . S
O583 Tb578 2.353 . S
C584 O588 1.245 . S
C584 O589 1.259 . S
C585 O590 1.250 . S
C585 O591 1.263 . S
O586 Tb578 2.427 . S
O586 C582 1.275 . S
O587 Tb578 2.513 . S
O587 C582 1.246 . S
O588 Tb578 2.453 . S
O588 C584 1.245 . S
O589 Tb576 2.343 . S
O589 Tb578 2.596 . S
O589 C584 1.259 . S
O590 Tb578 2.374 . S
O590 C585 1.250 . S
O591 Tb576 2.353 . S
O591 C585 1.263 . S
C592 O593 1.275 . S
C592 O594 1.246 . S
O593 Tb576 2.427 . S
O593 C592 1.275 . S
O594 Tb576 2.513 . S
O594 C592 1.246 . S
C595 O579 1.245 . S
C595 O580 1.259 . S
Tb596 O599 2.453 . S
Tb596 O600 2.596 . S
Tb596 O601 2.374 . S
Tb596 O609 2.343 . S
Tb596 O611 2.353 . S
Tb596 O613 2.427 . S
Tb596 O614 2.513 . S
C597 O601 1.251 . S
C597 O603 1.263 . S
Tb598 O600 2.343 . S
Tb598 O603 2.353 . S
Tb598 O606 2.427 . S
Tb598 O607 2.513 . S
Tb598 O608 2.453 . S
Tb598 O609 2.596 . S
Tb598 O610 2.374 . S
O599 Tb596 2.453 . S
O599 C615 1.245 . S
O600 Tb596 2.596 . S
O600 Tb598 2.343 . S
O600 C615 1.259 . S
O601 Tb596 2.374 . S
O601 C597 1.251 . S
C602 O606 1.275 . S
C602 O607 1.246 . S
O603 C597 1.263 . S
O603 Tb598 2.353 . S
C604 O608 1.245 . S
C604 O609 1.259 . S
C605 O610 1.250 . S
C605 O611 1.263 . S
O606 Tb598 2.427 . S
O606 C602 1.275 . S
O607 Tb598 2.513 . S
O607 C602 1.246 . S
O608 Tb598 2.453 . S
O608 C604 1.245 . S
O609 Tb596 2.343 . S
O609 Tb598 2.596 . S
O609 C604 1.259 . S
O610 Tb598 2.374 . S
O610 C605 1.250 . S
O611 Tb596 2.353 . S
O611 C605 1.263 . S
C612 O613 1.275 . S
C612 O614 1.246 . S
O613 Tb596 2.427 . S
O613 C612 1.275 . S
O614 Tb596 2.513 . S
O614 C612 1.246 . S
C615 O599 1.245 . S
C615 O600 1.259 . S
Tb616 O619 2.453 . S
Tb616 O620 2.596 . S
Tb616 O621 2.374 . S
Tb616 O629 2.343 . S
Tb616 O631 2.353 . S
Tb616 O633 2.427 . S
Tb616 O634 2.513 . S
C617 O621 1.251 . S
C617 O623 1.263 . S
Tb618 O620 2.343 . S
Tb618 O623 2.353 . S
Tb618 O626 2.427 . S
Tb618 O627 2.513 . S
Tb618 O628 2.453 . S
Tb618 O629 2.596 . S
Tb618 O630 2.374 . S
O619 Tb616 2.453 . S
O619 C635 1.245 . S
O620 Tb616 2.596 . S
O620 Tb618 2.343 . S
O620 C635 1.259 . S
O621 Tb616 2.374 . S
O621 C617 1.251 . S
C622 O626 1.275 . S
C622 O627 1.246 . S
O623 C617 1.263 . S
O623 Tb618 2.353 . S
C624 O628 1.245 . S
C624 O629 1.259 . S
C625 O630 1.250 . S
C625 O631 1.263 . S
O626 Tb618 2.427 . S
O626 C622 1.275 . S
O627 Tb618 2.513 . S
O627 C622 1.246 . S
O628 Tb618 2.453 . S
O628 C624 1.245 . S
O629 Tb616 2.343 . S
O629 Tb618 2.596 . S
O629 C624 1.259 . S
O630 Tb618 2.374 . S
O630 C625 1.250 . S
O631 Tb616 2.353 . S
O631 C625 1.263 . S
C632 O633 1.275 . S
C632 O634 1.246 . S
O633 Tb616 2.427 . S
O633 C632 1.275 . S
O634 Tb616 2.513 . S
O634 C632 1.246 . S
C635 O619 1.245 . S
C635 O620 1.259 . S
Tb636 O639 2.453 . S
Tb636 O640 2.596 . S
Tb636 O641 2.374 . S
Tb636 O649 2.343 . S
Tb636 O651 2.353 1_554 S
Tb636 O653 2.427 1_554 S
Tb636 O654 2.513 . S
C637 O641 1.251 . S
C637 O643 1.263 1_455 S
Tb638 O640 2.343 1_655 S
Tb638 O643 2.353 . S
Tb638 O646 2.427 . S
Tb638 O647 2.513 . S
Tb638 O648 2.453 . S
Tb638 O649 2.596 1_655 S
Tb638 O650 2.374 1_554 S
O639 Tb636 2.453 . S
O639 C655 1.245 . S
O640 Tb636 2.596 . S
O640 Tb638 2.343 1_455 S
O640 C655 1.259 . S
O641 Tb636 2.374 . S
O641 C637 1.251 . S
C642 O646 1.275 . S
C642 O647 1.246 . S
O643 C637 1.263 1_655 S
O643 Tb638 2.353 . S
C644 O648 1.245 1_455 S
C644 O649 1.259 . S
C645 O650 1.250 1_455 S
C645 O651 1.263 . S
O646 Tb638 2.427 . S
O646 C642 1.275 . S
O647 Tb638 2.513 . S
O647 C642 1.246 . S
O648 Tb638 2.453 . S
O648 C644 1.245 1_655 S
O649 Tb636 2.343 . S
O649 Tb638 2.596 1_455 S
O649 C644 1.259 . S
O650 Tb638 2.374 1_556 S
O650 C645 1.250 1_655 S
O651 Tb636 2.353 1_556 S
O651 C645 1.263 . S
C652 O653 1.275 1_554 S
C652 O654 1.246 . S
O653 Tb636 2.427 1_556 S
O653 C652 1.275 1_556 S
O654 Tb636 2.513 . S
O654 C652 1.246 . S
C655 O639 1.245 . S
C655 O640 1.259 . S
C656 C657 1.387 1_655 S
C656 H660 0.950 . S
C656 C665 1.390 . S
C657 C656 1.387 1_455 S
C657 C659 1.387 . S
H658 C665 0.950 . S
C659 C657 1.387 . S
C659 C661 1.390 . S
C659 H663 0.950 . S
H660 C656 0.950 . S
C661 C659 1.390 . S
C661 C662 1.387 . S
C661 H664 0.950 . S
C662 C661 1.387 . S
C662 C665 1.387 1_455 S
H663 C659 0.950 . S
H664 C661 0.950 . S
C665 C656 1.390 . S
C665 H658 0.950 . S
C665 C662 1.387 1_655 S
C666 C667 1.387 . S
C666 H670 0.950 . S
C666 C675 1.390 . S
C667 C666 1.387 . S
C667 C669 1.387 . S
H668 C675 0.950 . S
C669 C667 1.387 . S
C669 C671 1.390 . S
C669 H673 0.950 . S
H670 C666 0.950 . S
C671 C669 1.390 . S
C671 C672 1.387 . S
C671 H674 0.950 . S
C672 C671 1.387 . S
C672 C675 1.387 . S
H673 C669 0.950 . S
H674 C671 0.950 . S
C675 C666 1.390 . S
C675 H668 0.950 . S
C675 C672 1.387 . S
C676 C677 1.387 . S
C676 H680 0.950 . S
C676 C685 1.390 . S
C677 C676 1.387 . S
C677 C679 1.387 . S
H678 C685 0.950 . S
C679 C677 1.387 . S
C679 C681 1.390 . S
C679 H683 0.950 . S
H680 C676 0.950 . S
C681 C679 1.390 . S
C681 C682 1.387 . S
C681 H684 0.950 . S
C682 C681 1.387 . S
C682 C685 1.387 . S
H683 C679 0.950 . S
H684 C681 0.950 . S
C685 C676 1.390 . S
C685 H678 0.950 . S
C685 C682 1.387 . S
C686 C687 1.387 . S
C686 H690 0.950 . S
C686 C695 1.390 . S
C687 C686 1.387 . S
C687 C689 1.387 . S
H688 C695 0.950 . S
C689 C687 1.387 . S
C689 C691 1.390 . S
C689 H693 0.950 . S
H690 C686 0.950 . S
C691 C689 1.390 . S
C691 C692 1.387 . S
C691 H694 0.950 . S
C692 C691 1.387 . S
C692 C695 1.387 . S
H693 C689 0.950 . S
H694 C691 0.950 . S
C695 C686 1.390 . S
C695 H688 0.950 . S
C695 C692 1.387 . S
C696 C697 1.387 1_655 S
C696 H700 0.950 . S
C696 C705 1.390 . S
C697 C696 1.387 1_455 S
C697 C699 1.387 . S
H698 C705 0.950 . S
C699 C697 1.387 . S
C699 C701 1.390 . S
C699 H703 0.950 . S
H700 C696 0.950 . S
C701 C699 1.390 . S
C701 C702 1.387 . S
C701 H704 0.950 . S
C702 C701 1.387 . S
C702 C705 1.387 1_455 S
H703 C699 0.950 . S
H704 C701 0.950 . S
C705 C696 1.390 . S
C705 H698 0.950 . S
C705 C702 1.387 1_655 S
C706 C707 1.387 . S
C706 H710 0.950 . S
C706 C715 1.390 . S
C707 C706 1.387 . S
C707 C709 1.387 . S
H708 C715 0.950 . S
C709 C707 1.387 . S
C709 C711 1.390 . S
C709 H713 0.950 . S
H710 C706 0.950 . S
C711 C709 1.390 . S
C711 C712 1.387 . S
C711 H714 0.950 . S
C712 C711 1.387 . S
C712 C715 1.387 . S
H713 C709 0.950 . S
H714 C711 0.950 . S
C715 C706 1.390 . S
C715 H708 0.950 . S
C715 C712 1.387 . S
C716 C717 1.387 . S
C716 H720 0.950 . S
C716 C725 1.390 . S
C717 C716 1.387 . S
C717 C719 1.387 . S
H718 C725 0.950 . S
C719 C717 1.387 . S
C719 C721 1.390 . S
C719 H723 0.950 . S
H720 C716 0.950 . S
C721 C719 1.390 . S
C721 C722 1.387 . S
C721 H724 0.950 . S
C722 C721 1.387 . S
C722 C725 1.387 . S
H723 C719 0.950 . S
H724 C721 0.950 . S
C725 C716 1.390 . S
C725 H718 0.950 . S
C725 C722 1.387 . S
C726 C727 1.387 . S
C726 H730 0.950 . S
C726 C735 1.390 . S
C727 C726 1.387 . S
C727 C729 1.387 . S
H728 C735 0.950 . S
C729 C727 1.387 . S
C729 C731 1.390 . S
C729 H733 0.950 . S
H730 C726 0.950 . S
C731 C729 1.390 . S
C731 C732 1.387 . S
C731 H734 0.950 . S
C732 C731 1.387 . S
C732 C735 1.387 . S
H733 C729 0.950 . S
H734 C731 0.950 . S
C735 C726 1.390 . S
C735 H728 0.950 . S
C735 C732 1.387 . S
C736 C737 1.387 . S
C736 H740 0.950 . S
C736 C745 1.390 . S
C737 C736 1.387 . S
C737 C739 1.387 . S
H738 C745 0.950 . S
C739 C737 1.387 . S
C739 C741 1.390 . S
C739 H743 0.950 . S
H740 C736 0.950 . S
C741 C739 1.390 . S
C741 C742 1.387 . S
C741 H744 0.950 . S
C742 C741 1.387 . S
C742 C745 1.387 . S
H743 C739 0.950 . S
H744 C741 0.950 . S
C745 C736 1.390 . S
C745 H738 0.950 . S
C745 C742 1.387 . S
C746 C747 1.387 . S
C746 H750 0.950 . S
C746 C755 1.390 . S
C747 C746 1.387 . S
C747 C749 1.387 . S
H748 C755 0.950 . S
C749 C747 1.387 . S
C749 C751 1.390 . S
C749 H753 0.950 . S
H750 C746 0.950 . S
C751 C749 1.390 . S
C751 C752 1.387 . S
C751 H754 0.950 . S
C752 C751 1.387 . S
C752 C755 1.387 . S
H753 C749 0.950 . S
H754 C751 0.950 . S
C755 C746 1.390 . S
C755 H748 0.950 . S
C755 C752 1.387 . S
C756 C757 1.387 . S
C756 H760 0.950 . S
C756 C765 1.390 . S
C757 C756 1.387 . S
C757 C759 1.387 1_545 S
H758 C765 0.950 . S
C759 C757 1.387 1_565 S
C759 C761 1.390 . S
C759 H763 0.950 . S
H760 C756 0.950 . S
C761 C759 1.390 . S
C761 C762 1.387 1_565 S
C761 H764 0.950 . S
C762 C761 1.387 1_545 S
C762 C765 1.387 . S
H763 C759 0.950 . S
H764 C761 0.950 . S
C765 C756 1.390 . S
C765 H758 0.950 . S
C765 C762 1.387 . S
C766 C767 1.387 . S
C766 H770 0.950 . S
C766 C775 1.390 . S
C767 C766 1.387 . S
C767 C769 1.387 . S
H768 C775 0.950 . S
C769 C767 1.387 . S
C769 C771 1.390 . S
C769 H773 0.950 . S
H770 C766 0.950 . S
C771 C769 1.390 . S
C771 C772 1.387 . S
C771 H774 0.950 . S
C772 C771 1.387 . S
C772 C775 1.387 . S
H773 C769 0.950 . S
H774 C771 0.950 . S
C775 C766 1.390 . S
C775 H768 0.950 . S
C775 C772 1.387 . S
C776 C777 1.387 . S
C776 H780 0.950 . S
C776 C785 1.390 . S
C777 C776 1.387 . S
C777 C779 1.387 . S
H778 C785 0.925 1_565 S
C779 C777 1.387 . S
C779 C781 1.390 . S
C779 H783 0.950 . S
H780 C776 0.950 . S
C781 C779 1.390 . S
C781 C782 1.387 . S
C781 H784 0.950 1_655 S
C782 C781 1.387 . S
C782 C785 1.387 . S
H783 C779 0.950 . S
H784 C781 0.950 1_455 S
C785 C776 1.390 . S
C785 H778 0.925 1_545 S
C785 C782 1.387 . S
C786 C787 1.387 . S
C786 H790 0.950 . S
C786 C795 1.390 . S
C787 C786 1.387 . S
C787 C789 1.387 . S
H788 C795 0.950 . S
C789 C787 1.387 . S
C789 C791 1.390 . S
C789 H793 0.950 . S
H790 C786 0.950 . S
C791 C789 1.390 . S
C791 C792 1.387 . S
C791 H794 0.950 . S
C792 C791 1.387 . S
C792 C795 1.387 . S
H793 C789 0.950 . S
H794 C791 0.950 . S
C795 C786 1.390 . S
C795 H788 0.950 . S
C795 C792 1.387 . S
C796 C797 1.387 1_565 S
C796 H800 0.950 . S
C796 C805 1.390 1_565 S
C797 C796 1.387 1_545 S
C797 C799 1.387 . S
H798 C805 0.950 1_565 S
C799 C797 1.387 . S
C799 C801 1.390 . S
C799 H803 0.950 . S
H800 C796 0.950 . S
C801 C799 1.390 . S
C801 C802 1.387 . S
C801 H804 0.950 . S
C802 C801 1.387 . S
C802 C805 1.387 . S
H803 C799 0.950 . S
H804 C801 0.950 . S
C805 C796 1.390 1_545 S
C805 H798 0.950 1_545 S
C805 C802 1.387 . S
C806 C807 1.387 . S
C806 H810 0.950 . S
C806 C815 1.390 . S
C807 C806 1.387 . S
C807 C809 1.387 . S
H808 C815 0.950 . S
C809 C807 1.387 . S
C809 C811 1.390 . S
C809 H813 0.950 . S
H810 C806 0.950 . S
C811 C809 1.390 . S
C811 C812 1.387 . S
C811 H814 0.950 . S
C812 C811 1.387 . S
C812 C815 1.387 . S
H813 C809 0.950 . S
H814 C811 0.950 . S
C815 C806 1.390 . S
C815 H808 0.950 . S
C815 C812 1.387 . S
C816 C817 1.387 . S
C816 H820 0.950 1_554 S
C816 C825 1.390 . S
C817 C816 1.387 . S
C817 C819 1.387 . S
H818 C825 0.950 1_556 S
C819 C817 1.387 . S
C819 C821 1.390 . S
C819 H823 0.950 . S
H820 C816 0.950 1_556 S
C821 C819 1.390 . S
C821 C822 1.387 . S
C821 H824 0.950 . S
C822 C821 1.387 . S
C822 C825 1.387 . S
H823 C819 0.950 . S
H824 C821 0.950 . S
C825 C816 1.390 . S
C825 H818 0.950 1_554 S
C825 C822 1.387 . S
C826 C827 1.387 . S
C826 H830 0.950 . S
C826 C835 1.390 . S
C827 C826 1.387 . S
C827 C829 1.387 1_554 S
H828 C835 0.950 . S
C829 C827 1.387 1_556 S
C829 C831 1.390 . S
C829 H833 0.950 . S
H830 C826 0.950 . S
C831 C829 1.390 . S
C831 C832 1.387 1_556 S
C831 H834 0.950 . S
C832 C831 1.387 1_554 S
C832 C835 1.387 . S
H833 C829 0.950 . S
H834 C831 0.950 . S
C835 C826 1.390 . S
C835 H828 0.950 . S
C835 C832 1.387 . S
C836 C837 1.387 . S
C836 H840 0.950 . S
C836 C845 1.390 . S
C837 C836 1.387 . S
C837 C839 1.387 . S
H838 C845 0.950 . S
C839 C837 1.387 . S
C839 C841 1.390 . S
C839 H843 0.950 . S
H840 C836 0.950 . S
C841 C839 1.390 . S
C841 C842 1.387 . S
C841 H844 0.950 . S
C842 C841 1.387 . S
C842 C845 1.387 . S
H843 C839 0.950 . S
H844 C841 0.950 . S
C845 C836 1.390 . S
C845 H838 0.950 . S
C845 C842 1.387 . S
C846 C847 1.387 . S
C846 H850 0.950 . S
C846 C855 1.390 . S
C847 C846 1.387 . S
C847 C849 1.387 . S
H848 C855 0.950 . S
C849 C847 1.387 . S
C849 C851 1.390 . S
C849 H853 0.950 . S
H850 C846 0.950 . S
C851 C849 1.390 . S
C851 C852 1.387 . S
C851 H854 0.950 . S
C852 C851 1.387 . S
C852 C855 1.387 . S
H853 C849 0.950 . S
H854 C851 0.950 . S
C855 C846 1.390 . S
C855 H848 0.950 . S
C855 C852 1.387 . S
C856 C857 1.387 . S
C856 H860 0.950 . S
C856 C865 1.390 . S
C857 C856 1.387 . S
C857 C859 1.387 . S
H858 C865 0.950 . S
C859 C857 1.387 . S
C859 C861 1.390 . S
C859 H863 0.950 . S
H860 C856 0.950 . S
C861 C859 1.390 . S
C861 C862 1.387 . S
C861 H864 0.950 . S
C862 C861 1.387 . S
C862 C865 1.387 . S
H863 C859 0.950 . S
H864 C861 0.950 . S
C865 C856 1.390 . S
C865 H858 0.950 . S
C865 C862 1.387 . S
C866 C867 1.387 . S
C866 H870 0.950 . S
C866 C875 1.390 . S
C867 C866 1.387 . S
C867 C869 1.387 . S
H868 C875 0.950 . S
C869 C867 1.387 . S
C869 C871 1.390 . S
C869 H873 0.950 . S
H870 C866 0.950 . S
C871 C869 1.390 . S
C871 C872 1.387 . S
C871 H874 0.950 . S
C872 C871 1.387 . S
C872 C875 1.387 . S
H873 C869 0.950 . S
H874 C871 0.950 . S
C875 C866 1.390 . S
C875 H868 0.950 . S
C875 C872 1.387 . S
C876 C877 1.387 . S
C876 H880 0.950 . S
C876 C885 1.390 . S
C877 C876 1.387 . S
C877 C879 1.387 . S
H878 C885 0.950 . S
C879 C877 1.387 . S
C879 C881 1.390 . S
C879 H883 0.950 . S
H880 C876 0.950 . S
C881 C879 1.390 . S
C881 C882 1.387 . S
C881 H884 0.950 . S
C882 C881 1.387 . S
C882 C885 1.387 . S
H883 C879 0.950 . S
H884 C881 0.950 . S
C885 C876 1.390 . S
C885 H878 0.950 . S
C885 C882 1.387 . S
C886 C887 1.387 . S
C886 H890 0.950 . S
C886 C895 1.390 . S
C887 C886 1.387 . S
C887 C889 1.387 . S
H888 C895 0.950 . S
C889 C887 1.387 . S
C889 C891 1.390 . S
C889 H893 0.950 . S
H890 C886 0.950 . S
C891 C889 1.390 . S
C891 C892 1.387 . S
C891 H894 0.950 . S
C892 C891 1.387 . S
C892 C895 1.387 . S
H893 C889 0.950 . S
H894 C891 0.950 . S
C895 C886 1.390 . S
C895 H888 0.950 . S
C895 C892 1.387 . S
C896 C897 1.387 1_655 S
C896 H900 0.950 . S
C896 C905 1.390 . S
C897 C896 1.387 1_455 S
C897 C899 1.387 . S
H898 C905 0.950 . S
C899 C897 1.387 . S
C899 C901 1.390 . S
C899 H903 0.950 . S
H900 C896 0.950 . S
C901 C899 1.390 . S
C901 C902 1.387 . S
C901 H904 0.950 . S
C902 C901 1.387 . S
C902 C905 1.387 1_455 S
H903 C899 0.950 . S
H904 C901 0.950 . S
C905 C896 1.390 . S
C905 H898 0.950 . S
C905 C902 1.387 1_655 S
C906 C907 1.387 . S
C906 H910 0.950 . S
C906 C915 1.390 . S
C907 C906 1.387 . S
C907 C909 1.387 . S
H908 C915 0.950 . S
C909 C907 1.387 . S
C909 C911 1.390 . S
C909 H913 0.950 . S
H910 C906 0.950 . S
C911 C909 1.390 . S
C911 C912 1.387 . S
C911 H914 0.950 . S
C912 C911 1.387 . S
C912 C915 1.387 . S
H913 C909 0.950 . S
H914 C911 0.950 . S
C915 C906 1.390 . S
C915 H908 0.950 . S
C915 C912 1.387 . S
C916 C917 1.387 . S
C916 H920 0.950 . S
C916 C925 1.390 . S
C917 C916 1.387 . S
C917 C919 1.387 . S
H918 C925 0.950 . S
C919 C917 1.387 . S
C919 C921 1.390 . S
C919 H923 0.950 . S
H920 C916 0.950 . S
C921 C919 1.390 . S
C921 C922 1.387 . S
C921 H924 0.950 . S
C922 C921 1.387 . S
C922 C925 1.387 . S
H923 C919 0.950 . S
H924 C921 0.950 . S
C925 C916 1.390 . S
C925 H918 0.950 . S
C925 C922 1.387 . S
C926 C927 1.387 . S
C926 H930 0.950 . S
C926 C935 1.390 . S
C927 C926 1.387 . S
C927 C929 1.387 . S
H928 C935 0.950 . S
C929 C927 1.387 . S
C929 C931 1.390 . S
C929 H933 0.950 . S
H930 C926 0.950 . S
C931 C929 1.390 . S
C931 C932 1.387 . S
C931 H934 0.950 . S
C932 C931 1.387 . S
C932 C935 1.387 . S
H933 C929 0.950 . S
H934 C931 0.950 . S
C935 C926 1.390 . S
C935 H928 0.950 . S
C935 C932 1.387 . S
C936 C937 1.387 . S
C936 H940 0.950 . S
C936 C945 1.390 . S
C937 C936 1.387 . S
C937 C939 1.387 1_455 S
H938 C945 0.950 . S
C939 C937 1.387 1_655 S
C939 C941 1.390 . S
C939 H943 0.950 . S
H940 C936 0.950 . S
C941 C939 1.390 . S
C941 C942 1.387 1_655 S
C941 H944 0.950 . S
C942 C941 1.387 1_455 S
C942 C945 1.387 . S
H943 C939 0.950 . S
H944 C941 0.950 . S
C945 C936 1.390 . S
C945 H938 0.950 . S
C945 C942 1.387 . S
C946 C947 1.387 . S
C946 H950 0.950 . S
C946 C955 1.390 . S
C947 C946 1.387 . S
C947 C949 1.387 . S
H948 C955 0.950 . S
C949 C947 1.387 . S
C949 C951 1.390 . S
C949 H953 0.950 . S
H950 C946 0.950 . S
C951 C949 1.390 . S
C951 C952 1.387 . S
C951 H954 0.950 . S
C952 C951 1.387 . S
C952 C955 1.387 . S
H953 C949 0.950 . S
H954 C951 0.950 . S
C955 C946 1.390 . S
C955 H948 0.950 . S
C955 C952 1.387 . S
C956 C957 1.387 . S
C956 H960 0.950 . S
C956 C965 1.390 . S
C957 C956 1.387 . S
C957 C959 1.387 . S
H958 C965 0.950 1_554 S
C959 C957 1.387 . S
C959 C961 1.390 . S
C959 H963 0.950 . S
H960 C956 0.950 . S
C961 C959 1.390 . S
C961 C962 1.387 . S
C961 H964 0.950 . S
C962 C961 1.387 . S
C962 C965 1.387 . S
H963 C959 0.950 . S
H964 C961 0.950 . S
C965 C956 1.390 . S
C965 H958 0.950 1_556 S
C965 C962 1.387 . S
C966 C967 1.387 . S
C966 H970 0.950 . S
C966 C975 1.390 . S
C967 C966 1.387 . S
C967 C969 1.387 . S
H968 C975 0.950 . S
C969 C967 1.387 . S
C969 C971 1.390 . S
C969 H973 0.950 . S
H970 C966 0.950 . S
C971 C969 1.390 . S
C971 C972 1.387 . S
C971 H974 0.950 . S
C972 C971 1.387 . S
C972 C975 1.387 . S
H973 C969 0.950 . S
H974 C971 0.950 . S
C975 C966 1.390 . S
C975 H968 0.950 . S
C975 C972 1.387 . S
C976 C977 1.387 . S
C976 H980 0.950 . S
C976 C985 1.390 . S
C977 C976 1.387 . S
C977 C979 1.387 1_545 S
H978 C985 0.950 . S
C979 C977 1.387 1_565 S
C979 C981 1.390 . S
C979 H983 0.950 . S
H980 C976 0.950 . S
C981 C979 1.390 . S
C981 C982 1.387 1_565 S
C981 H984 0.950 . S
C982 C981 1.387 1_545 S
C982 C985 1.387 . S
H983 C979 0.950 . S
H984 C981 0.950 . S
C985 C976 1.390 . S
C985 H978 0.950 . S
C985 C982 1.387 . S
C986 C987 1.387 . S
C986 H990 0.950 . S
C986 C995 1.390 . S
C987 C986 1.387 . S
C987 C989 1.387 . S
H988 C995 0.950 . S
C989 C987 1.387 . S
C989 C991 1.390 . S
C989 H993 0.950 . S
H990 C986 0.950 . S
C991 C989 1.390 . S
C991 C992 1.387 . S
C991 H994 0.950 . S
C992 C991 1.387 . S
C992 C995 1.387 . S
H993 C989 0.950 . S
H994 C991 0.950 . S
C995 C986 1.390 . S
C995 H988 0.950 . S
C995 C992 1.387 . S
C996 C997 1.387 . S
C996 H1000 0.950 . S
C996 C1005 1.390 . S
C997 C996 1.387 . S
C997 C999 1.387 . S
H998 C1005 0.950 . S
C999 C997 1.387 . S
C999 C1001 1.390 . S
C999 H1003 0.950 . S
H1000 C996 0.950 . S
C1001 C999 1.390 . S
C1001 C1002 1.387 . S
C1001 H1004 0.950 1_545 S
C1002 C1001 1.387 . S
C1002 C1005 1.387 . S
H1003 C999 0.950 . S
H1004 C1001 0.950 1_565 S
C1005 C996 1.390 . S
C1005 H998 0.950 . S
C1005 C1002 1.387 . S
C1006 C1007 1.387 . S
C1006 H1010 0.950 . S
C1006 C1015 1.390 . S
C1007 C1006 1.387 . S
C1007 C1009 1.387 . S
H1008 C1015 0.950 . S
C1009 C1007 1.387 . S
C1009 C1011 1.390 . S
C1009 H1013 0.950 . S
H1010 C1006 0.950 . S
C1011 C1009 1.390 . S
C1011 C1012 1.387 . S
C1011 H1014 0.950 . S
C1012 C1011 1.387 . S
C1012 C1015 1.387 . S
H1013 C1009 0.950 . S
H1014 C1011 0.950 . S
C1015 C1006 1.390 . S
C1015 H1008 0.950 . S
C1015 C1012 1.387 . S
C1016 C1017 1.387 . S
C1016 H1020 0.950 . S
C1016 C1025 1.390 . S
C1017 C1016 1.387 . S
C1017 C1019 1.387 1_545 S
H1018 C1025 0.950 . S
C1019 C1017 1.387 1_565 S
C1019 C1021 1.390 . S
C1019 H1023 0.950 . S
H1020 C1016 0.950 . S
C1021 C1019 1.390 . S
C1021 C1022 1.387 1_565 S
C1021 H1024 0.950 . S
C1022 C1021 1.387 1_545 S
C1022 C1025 1.387 . S
H1023 C1019 0.950 . S
H1024 C1021 0.950 . S
C1025 C1016 1.390 . S
C1025 H1018 0.950 . S
C1025 C1022 1.387 . S
C1026 C1027 1.387 . S
C1026 H1030 0.950 . S
C1026 C1035 1.390 . S
C1027 C1026 1.387 . S
C1027 C1029 1.387 . S
H1028 C1035 0.950 . S
C1029 C1027 1.387 . S
C1029 C1031 1.390 . S
C1029 H1033 0.950 . S
H1030 C1026 0.950 . S
C1031 C1029 1.390 . S
C1031 C1032 1.387 . S
C1031 H1034 0.950 . S
C1032 C1031 1.387 . S
C1032 C1035 1.387 . S
H1033 C1029 0.950 . S
H1034 C1031 0.950 . S
C1035 C1026 1.390 . S
C1035 H1028 0.950 . S
C1035 C1032 1.387 . S
C1036 C1037 1.387 . S
C1036 H1040 0.950 1_545 S
C1036 C1045 1.390 . S
C1037 C1036 1.387 . S
C1037 C1039 1.387 . S
H1038 C1045 0.950 1_565 S
C1039 C1037 1.387 . S
C1039 C1041 1.390 . S
C1039 H1043 0.950 . S
H1040 C1036 0.950 1_565 S
C1041 C1039 1.390 . S
C1041 C1042 1.387 . S
C1041 H1044 0.950 . S
C1042 C1041 1.387 . S
C1042 C1045 1.387 . S
H1043 C1039 0.950 . S
H1044 C1041 0.950 . S
C1045 C1036 1.390 . S
C1045 H1038 0.950 1_545 S
C1045 C1042 1.387 . S
C1046 C1047 1.387 . S
C1046 H1050 0.950 . S
C1046 C1055 1.390 . S
C1047 C1046 1.387 . S
C1047 C1049 1.387 . S
H1048 C1055 0.950 . S
C1049 C1047 1.387 . S
C1049 C1051 1.390 . S
C1049 H1053 0.950 . S
H1050 C1046 0.950 . S
C1051 C1049 1.390 . S
C1051 C1052 1.387 . S
C1051 H1054 0.950 . S
C1052 C1051 1.387 . S
C1052 C1055 1.387 . S
H1053 C1049 0.950 . S
H1054 C1051 0.950 . S
C1055 C1046 1.390 . S
C1055 H1048 0.950 . S
C1055 C1052 1.387 . S
C1056 C1057 1.387 1_556 S
C1056 H1060 0.950 . S
C1056 C1065 1.390 . S
C1057 C1056 1.387 1_554 S
C1057 C1059 1.387 . S
H1058 C1065 0.950 . S
C1059 C1057 1.387 . S
C1059 C1061 1.390 . S
C1059 H1063 0.950 . S
H1060 C1056 0.950 . S
C1061 C1059 1.390 . S
C1061 C1062 1.387 . S
C1061 H1064 0.950 . S
C1062 C1061 1.387 . S
C1062 C1065 1.387 1_554 S
H1063 C1059 0.950 . S
H1064 C1061 0.950 . S
C1065 C1056 1.390 . S
C1065 H1058 0.950 . S
C1065 C1062 1.387 1_556 S
C1066 C1067 1.387 . S
C1066 H1070 0.950 . S
C1066 C1075 1.390 . S
C1067 C1066 1.387 . S
C1067 C1069 1.387 . S
H1068 C1075 0.950 . S
C1069 C1067 1.387 . S
C1069 C1071 1.390 . S
C1069 H1073 0.950 1_554 S
H1070 C1066 0.950 . S
C1071 C1069 1.390 . S
C1071 C1072 1.387 . S
C1071 H1074 0.950 1_554 S
C1072 C1071 1.387 . S
C1072 C1075 1.387 . S
H1073 C1069 0.950 1_556 S
H1074 C1071 0.950 1_556 S
C1075 C1066 1.390 . S
C1075 H1068 0.950 . S
C1075 C1072 1.387 . S
C1076 C1077 1.387 . S
C1076 H1080 0.950 . S
C1076 C1085 1.390 . S
C1077 C1076 1.387 . S
C1077 C1079 1.387 . S
H1078 C1085 0.950 . S
C1079 C1077 1.387 . S
C1079 C1081 1.390 . S
C1079 H1083 0.950 . S
H1080 C1076 0.950 . S
C1081 C1079 1.390 . S
C1081 C1082 1.387 . S
C1081 H1084 0.950 . S
C1082 C1081 1.387 . S
C1082 C1085 1.387 . S
H1083 C1079 0.950 . S
H1084 C1081 0.950 . S
C1085 C1076 1.390 . S
C1085 H1078 0.950 . S
C1085 C1082 1.387 . S
C1086 C1087 1.387 . S
C1086 H1090 0.950 . S
C1086 C1095 1.390 . S
C1087 C1086 1.387 . S
C1087 C1089 1.387 . S
H1088 C1095 0.950 . S
C1089 C1087 1.387 . S
C1089 C1091 1.390 . S
C1089 H1093 0.950 . S
H1090 C1086 0.950 . S
C1091 C1089 1.390 . S
C1091 C1092 1.387 . S
C1091 H1094 0.950 . S
C1092 C1091 1.387 . S
C1092 C1095 1.387 . S
H1093 C1089 0.950 . S
H1094 C1091 0.950 . S
C1095 C1086 1.390 . S
C1095 H1088 0.950 . S
C1095 C1092 1.387 . S
C1096 C1097 1.387 . S
C1096 H1100 0.950 . S
C1096 C1105 1.390 . S
C1097 C1096 1.387 . S
C1097 C1099 1.387 . S
H1098 C1105 0.950 . S
C1099 C1097 1.387 . S
C1099 C1101 1.390 . S
C1099 H1103 0.950 . S
H1100 C1096 0.950 . S
C1101 C1099 1.390 . S
C1101 C1102 1.387 . S
C1101 H1104 0.950 . S
C1102 C1101 1.387 . S
C1102 C1105 1.387 . S
H1103 C1099 0.950 . S
H1104 C1101 0.950 . S
C1105 C1096 1.390 . S
C1105 H1098 0.950 . S
C1105 C1102 1.387 . S
C1106 C1107 1.387 . S
C1106 H1110 0.950 . S
C1106 C1115 1.390 . S
C1107 C1106 1.387 . S
C1107 C1109 1.387 . S
H1108 C1115 0.950 . S
C1109 C1107 1.387 . S
C1109 C1111 1.390 . S
C1109 H1113 0.950 . S
H1110 C1106 0.950 . S
C1111 C1109 1.390 . S
C1111 C1112 1.387 . S
C1111 H1114 0.950 1_565 S
C1112 C1111 1.387 . S
C1112 C1115 1.387 . S
H1113 C1109 0.950 . S
H1114 C1111 0.950 1_545 S
C1115 C1106 1.390 . S
C1115 H1108 0.950 . S
C1115 C1112 1.387 . S
C1116 C1117 1.387 . S
C1116 H1120 0.950 . S
C1116 C1125 1.390 . S
C1117 C1116 1.387 . S
C1117 C1119 1.387 . S
H1118 C1125 0.950 . S
C1119 C1117 1.387 . S
C1119 C1121 1.390 . S
C1119 H1123 0.950 . S
H1120 C1116 0.950 . S
C1121 C1119 1.390 . S
C1121 C1122 1.387 . S
C1121 H1124 0.950 . S
C1122 C1121 1.387 . S
C1122 C1125 1.387 . S
H1123 C1119 0.950 . S
H1124 C1121 0.950 . S
C1125 C1116 1.390 . S
C1125 H1118 0.950 . S
C1125 C1122 1.387 . S
C1126 C1127 1.387 . S
C1126 H1130 0.950 . S
C1126 C1135 1.390 . S
C1127 C1126 1.387 . S
C1127 C1129 1.387 . S
H1128 C1135 0.950 . S
C1129 C1127 1.387 . S
C1129 C1131 1.390 . S
C1129 H1133 0.950 . S
H1130 C1126 0.950 . S
C1131 C1129 1.390 . S
C1131 C1132 1.387 . S
C1131 H1134 0.950 . S
C1132 C1131 1.387 . S
C1132 C1135 1.387 . S
H1133 C1129 0.950 . S
H1134 C1131 0.950 . S
C1135 C1126 1.390 . S
C1135 H1128 0.950 . S
C1135 C1132 1.387 . S
C1136 C1137 1.387 . S
C1136 H1140 0.950 . S
C1136 C1145 1.390 . S
C1137 C1136 1.387 . S
C1137 C1139 1.387 . S
H1138 C1145 0.950 . S
C1139 C1137 1.387 . S
C1139 C1141 1.390 . S
C1139 H1143 0.950 . S
H1140 C1136 0.950 . S
C1141 C1139 1.390 . S
C1141 C1142 1.387 . S
C1141 H1144 0.950 . S
C1142 C1141 1.387 . S
C1142 C1145 1.387 . S
H1143 C1139 0.950 . S
H1144 C1141 0.950 . S
C1145 C1136 1.390 . S
C1145 H1138 0.950 . S
C1145 C1142 1.387 . S
C1146 C1147 1.387 . S
C1146 H1150 0.950 . S
C1146 C1155 1.390 . S
C1147 C1146 1.387 . S
C1147 C1149 1.387 . S
H1148 C1155 0.950 . S
C1149 C1147 1.387 . S
C1149 C1151 1.390 . S
C1149 H1153 0.950 . S
H1150 C1146 0.950 . S
C1151 C1149 1.390 . S
C1151 C1152 1.387 . S
C1151 H1154 0.950 . S
C1152 C1151 1.387 . S
C1152 C1155 1.387 . S
H1153 C1149 0.950 . S
H1154 C1151 0.950 . S
C1155 C1146 1.390 . S
C1155 H1148 0.950 . S
C1155 C1152 1.387 . S
C1156 C1157 1.387 . S
C1156 H1160 0.950 . S
C1156 C1165 1.390 . S
C1157 C1156 1.387 . S
C1157 C1159 1.387 . S
H1158 C1165 0.950 1_554 S
C1159 C1157 1.387 . S
C1159 C1161 1.390 . S
C1159 H1163 0.955 . S
H1160 C1156 0.950 . S
C1161 C1159 1.390 . S
C1161 C1162 1.387 . S
C1161 H1164 0.950 1_455 S
C1162 C1161 1.387 . S
C1162 C1165 1.387 . S
H1163 C1159 0.955 . S
H1164 C1161 0.950 1_655 S
C1165 C1156 1.390 . S
C1165 H1158 0.950 1_556 S
C1165 C1162 1.387 . S
C1166 C1167 1.387 . S
C1166 H1170 0.950 . S
C1166 C1175 1.390 . S
C1167 C1166 1.387 . S
C1167 C1169 1.387 . S
H1168 C1175 0.950 . S
C1169 C1167 1.387 . S
C1169 C1171 1.390 . S
C1169 H1173 0.950 . S
H1170 C1166 0.950 . S
C1171 C1169 1.390 . S
C1171 C1172 1.387 . S
C1171 H1174 0.950 . S
C1172 C1171 1.387 . S
C1172 C1175 1.387 . S
H1173 C1169 0.950 . S
H1174 C1171 0.950 . S
C1175 C1166 1.390 . S
C1175 H1168 0.950 . S
C1175 C1172 1.387 . S
C1176 C1177 1.387 . S
C1176 H1180 0.950 . S
C1176 C1185 1.390 . S
C1177 C1176 1.387 . S
C1177 C1179 1.387 . S
H1178 C1185 0.950 . S
C1179 C1177 1.387 . S
C1179 C1181 1.390 . S
C1179 H1183 0.950 . S
H1180 C1176 0.950 . S
C1181 C1179 1.390 . S
C1181 C1182 1.387 . S
C1181 H1184 0.950 . S
C1182 C1181 1.387 . S
C1182 C1185 1.387 . S
H1183 C1179 0.950 . S
H1184 C1181 0.950 . S
C1185 C1176 1.390 . S
C1185 H1178 0.950 . S
C1185 C1182 1.387 . S
C1186 C1187 1.387 . S
C1186 H1190 0.950 . S
C1186 C1195 1.390 . S
C1187 C1186 1.387 . S
C1187 C1189 1.387 . S
H1188 C1195 0.950 . S
C1189 C1187 1.387 . S
C1189 C1191 1.390 . S
C1189 H1193 0.950 . S
H1190 C1186 0.950 . S
C1191 C1189 1.390 . S
C1191 C1192 1.387 . S
C1191 H1194 0.950 . S
C1192 C1191 1.387 . S
C1192 C1195 1.387 . S
H1193 C1189 0.950 . S
H1194 C1191 0.950 . S
C1195 C1186 1.390 . S
C1195 H1188 0.950 . S
C1195 C1192 1.387 . S
C1196 C1197 1.387 . S
C1196 H1200 0.950 . S
C1196 C1205 1.390 . S
C1197 C1196 1.387 . S
C1197 C1199 1.387 1_655 S
H1198 C1205 0.950 . S
C1199 C1197 1.387 1_455 S
C1199 C1201 1.390 . S
C1199 H1203 0.950 . S
H1200 C1196 0.950 . S
C1201 C1199 1.390 . S
C1201 C1202 1.387 1_455 S
C1201 H1204 0.950 . S
C1202 C1201 1.387 1_655 S
C1202 C1205 1.387 . S
H1203 C1199 0.950 . S
H1204 C1201 0.950 . S
C1205 C1196 1.390 . S
C1205 H1198 0.950 . S
C1205 C1202 1.387 . S
C1206 C1207 1.387 . S
C1206 H1210 0.950 . S
C1206 C1215 1.390 . S
C1207 C1206 1.387 . S
C1207 C1209 1.387 . S
H1208 C1215 0.950 . S
C1209 C1207 1.387 . S
C1209 C1211 1.390 . S
C1209 H1213 0.950 . S
H1210 C1206 0.950 . S
C1211 C1209 1.390 . S
C1211 C1212 1.387 . S
C1211 H1214 0.950 . S
C1212 C1211 1.387 . S
C1212 C1215 1.387 . S
H1213 C1209 0.950 . S
H1214 C1211 0.950 . S
C1215 C1206 1.390 . S
C1215 H1208 0.950 . S
C1215 C1212 1.387 . S
C1216 C1217 1.387 . S
C1216 H1220 0.950 . S
C1216 C1225 1.390 . S
C1217 C1216 1.387 . S
C1217 C1219 1.387 . S
H1218 C1225 0.950 . S
C1219 C1217 1.387 . S
C1219 C1221 1.390 . S
C1219 H1223 0.950 . S
H1220 C1216 0.950 . S
C1221 C1219 1.390 . S
C1221 C1222 1.387 . S
C1221 H1224 0.950 . S
C1222 C1221 1.387 . S
C1222 C1225 1.387 . S
H1223 C1219 0.950 . S
H1224 C1221 0.950 . S
C1225 C1216 1.390 . S
C1225 H1218 0.950 . S
C1225 C1222 1.387 . S
C1226 C1227 1.387 . S
C1226 H1230 0.950 . S
C1226 C1235 1.390 . S
C1227 C1226 1.387 . S
C1227 C1229 1.387 . S
H1228 C1235 0.950 . S
C1229 C1227 1.387 . S
C1229 C1231 1.390 . S
C1229 H1233 0.950 . S
H1230 C1226 0.950 . S
C1231 C1229 1.390 . S
C1231 C1232 1.387 . S
C1231 H1234 0.950 . S
C1232 C1231 1.387 . S
C1232 C1235 1.387 . S
H1233 C1229 0.950 . S
H1234 C1231 0.950 . S
C1235 C1226 1.390 . S
C1235 H1228 0.950 . S
C1235 C1232 1.387 . S
C1236 C1237 1.387 . S
C1236 H1240 0.950 . S
C1236 C1245 1.390 . S
C1237 C1236 1.387 . S
C1237 C1239 1.387 . S
H1238 C1245 0.950 . S
C1239 C1237 1.387 . S
C1239 C1241 1.390 . S
C1239 H1243 0.950 . S
H1240 C1236 0.950 . S
C1241 C1239 1.390 . S
C1241 C1242 1.387 . S
C1241 H1244 0.950 . S
C1242 C1241 1.387 . S
C1242 C1245 1.387 . S
H1243 C1239 0.950 . S
H1244 C1241 0.950 . S
C1245 C1236 1.390 . S
C1245 H1238 0.950 . S
C1245 C1242 1.387 . S
C1246 C1247 1.387 . S
C1246 H1250 0.950 . S
C1246 C1255 1.390 . S
C1247 C1246 1.387 . S
C1247 C1249 1.387 . S
H1248 C1255 0.950 . S
C1249 C1247 1.387 . S
C1249 C1251 1.390 . S
C1249 H1253 0.950 . S
H1250 C1246 0.950 . S
C1251 C1249 1.390 . S
C1251 C1252 1.387 . S
C1251 H1254 0.950 . S
C1252 C1251 1.387 . S
C1252 C1255 1.387 . S
H1253 C1249 0.950 . S
H1254 C1251 0.950 . S
C1255 C1246 1.390 . S
C1255 H1248 0.950 . S
C1255 C1252 1.387 . S
C1256 C1257 1.387 . S
C1256 H1260 0.950 . S
C1256 C1265 1.390 . S
C1257 C1256 1.387 . S
C1257 C1259 1.387 . S
H1258 C1265 0.950 . S
C1259 C1257 1.387 . S
C1259 C1261 1.390 . S
C1259 H1263 0.950 . S
H1260 C1256 0.950 . S
C1261 C1259 1.390 . S
C1261 C1262 1.387 . S
C1261 H1264 0.950 . S
C1262 C1261 1.387 . S
C1262 C1265 1.387 . S
H1263 C1259 0.950 . S
H1264 C1261 0.950 . S
C1265 C1256 1.390 . S
C1265 H1258 0.950 . S
C1265 C1262 1.387 . S
C1266 C1267 1.387 . S
C1266 H1270 0.950 . S
C1266 C1275 1.390 . S
C1267 C1266 1.387 . S
C1267 C1269 1.387 . S
H1268 C1275 0.950 . S
C1269 C1267 1.387 . S
C1269 C1271 1.390 . S
C1269 H1273 0.950 . S
H1270 C1266 0.950 . S
C1271 C1269 1.390 . S
C1271 C1272 1.387 . S
C1271 H1274 0.950 . S
C1272 C1271 1.387 . S
C1272 C1275 1.387 . S
H1273 C1269 0.950 . S
H1274 C1271 0.950 . S
C1275 C1266 1.390 . S
C1275 H1268 0.950 . S
C1275 C1272 1.387 . S
C1276 C1277 1.387 . S
C1276 H1280 0.950 . S
C1276 C1285 1.390 . S
C1277 C1276 1.387 . S
C1277 C1279 1.387 . S
H1278 C1285 0.950 . S
C1279 C1277 1.387 . S
C1279 C1281 1.390 . S
C1279 H1283 0.950 . S
H1280 C1276 0.950 . S
C1281 C1279 1.390 . S
C1281 C1282 1.387 . S
C1281 H1284 0.950 . S
C1282 C1281 1.387 . S
C1282 C1285 1.387 . S
H1283 C1279 0.950 . S
H1284 C1281 0.950 . S
C1285 C1276 1.390 . S
C1285 H1278 0.950 . S
C1285 C1282 1.387 . S
C1286 C1287 1.387 . S
C1286 H1290 0.950 . S
C1286 C1295 1.390 . S
C1287 C1286 1.387 . S
C1287 C1289 1.387 . S
H1288 C1295 0.950 . S
C1289 C1287 1.387 . S
C1289 C1291 1.390 . S
C1289 H1293 0.950 . S
H1290 C1286 0.950 . S
C1291 C1289 1.390 . S
C1291 C1292 1.387 . S
C1291 H1294 0.950 . S
C1292 C1291 1.387 . S
C1292 C1295 1.387 . S
H1293 C1289 0.950 . S
H1294 C1291 0.950 . S
C1295 C1286 1.390 . S
C1295 H1288 0.950 . S
C1295 C1292 1.387 . S
C1296 C1297 1.387 . S
C1296 H1300 0.950 . S
C1296 C1305 1.390 . S
C1297 C1296 1.387 . S
C1297 C1299 1.387 . S
H1298 C1305 0.950 . S
C1299 C1297 1.387 . S
C1299 C1301 1.390 . S
C1299 H1303 0.950 . S
H1300 C1296 0.950 . S
C1301 C1299 1.390 . S
C1301 C1302 1.387 . S
C1301 H1304 0.950 . S
C1302 C1301 1.387 . S
C1302 C1305 1.387 . S
H1303 C1299 0.950 . S
H1304 C1301 0.950 . S
C1305 C1296 1.390 . S
C1305 H1298 0.950 . S
C1305 C1302 1.387 . S
C1306 C1307 1.387 . S
C1306 H1310 0.950 . S
C1306 C1315 1.390 . S
C1307 C1306 1.387 . S
C1307 C1309 1.387 . S
H1308 C1315 0.950 . S
C1309 C1307 1.387 . S
C1309 C1311 1.390 . S
C1309 H1313 0.950 . S
H1310 C1306 0.950 . S
C1311 C1309 1.390 . S
C1311 C1312 1.387 . S
C1311 H1314 0.950 . S
C1312 C1311 1.387 . S
C1312 C1315 1.387 . S
H1313 C1309 0.950 . S
H1314 C1311 0.950 . S
C1315 C1306 1.390 . S
C1315 H1308 0.950 . S
C1315 C1312 1.387 . S
C1316 C1317 1.387 . S
C1316 H1320 0.950 . S
C1316 C1325 1.390 . S
C1317 C1316 1.387 . S
C1317 C1319 1.387 . S
H1318 C1325 0.950 . S
C1319 C1317 1.387 . S
C1319 C1321 1.390 . S
C1319 H1323 0.950 . S
H1320 C1316 0.950 . S
C1321 C1319 1.390 . S
C1321 C1322 1.387 . S
C1321 H1324 0.950 . S
C1322 C1321 1.387 . S
C1322 C1325 1.387 . S
H1323 C1319 0.950 . S
H1324 C1321 0.950 . S
C1325 C1316 1.390 . S
C1325 H1318 0.950 . S
C1325 C1322 1.387 . S
C1326 C1327 1.387 . S
C1326 H1330 0.950 1_554 S
C1326 C1335 1.390 . S
C1327 C1326 1.387 . S
C1327 C1329 1.387 . S
H1328 C1335 0.950 1_556 S
C1329 C1327 1.387 . S
C1329 C1331 1.390 . S
C1329 H1333 0.950 . S
H1330 C1326 0.950 1_556 S
C1331 C1329 1.390 . S
C1331 C1332 1.387 . S
C1331 H1334 0.950 . S
C1332 C1331 1.387 . S
C1332 C1335 1.387 . S
H1333 C1329 0.950 . S
H1334 C1331 0.950 . S
C1335 C1326 1.390 . S
C1335 H1328 0.950 1_554 S
C1335 C1332 1.387 . S
C1336 C1337 1.387 . S
C1336 H1340 0.950 . S
C1336 C1345 1.390 . S
C1337 C1336 1.387 . S
C1337 C1339 1.387 . S
H1338 C1345 0.950 . S
C1339 C1337 1.387 . S
C1339 C1341 1.390 . S
C1339 H1343 0.950 . S
H1340 C1336 0.950 . S
C1341 C1339 1.390 . S
C1341 C1342 1.387 . S
C1341 H1344 0.950 . S
C1342 C1341 1.387 . S
C1342 C1345 1.387 . S
H1343 C1339 0.950 . S
H1344 C1341 0.950 . S
C1345 C1336 1.390 . S
C1345 H1338 0.950 . S
C1345 C1342 1.387 . S
C1346 C1347 1.387 . S
C1346 H1350 0.950 . S
C1346 C1355 1.390 . S
C1347 C1346 1.387 . S
C1347 C1349 1.387 . S
H1348 C1355 0.950 . S
C1349 C1347 1.387 . S
C1349 C1351 1.390 . S
C1349 H1353 0.950 1_554 S
H1350 C1346 0.950 . S
C1351 C1349 1.390 . S
C1351 C1352 1.387 . S
C1351 H1354 0.950 . S
C1352 C1351 1.387 . S
C1352 C1355 1.387 . S
H1353 C1349 0.950 1_556 S
H1354 C1351 0.950 . S
C1355 C1346 1.390 . S
C1355 H1348 0.950 . S
C1355 C1352 1.387 . S
C1356 C1357 1.387 . S
C1356 H1360 0.950 . S
C1356 C1365 1.390 . S
C1357 C1356 1.387 . S
C1357 C1359 1.387 . S
H1358 C1365 0.950 . S
C1359 C1357 1.387 . S
C1359 C1361 1.390 . S
C1359 H1363 0.950 . S
H1360 C1356 0.950 . S
C1361 C1359 1.390 . S
C1361 C1362 1.387 . S
C1361 H1364 0.950 . S
C1362 C1361 1.387 . S
C1362 C1365 1.387 . S
H1363 C1359 0.950 . S
H1364 C1361 0.950 . S
C1365 C1356 1.390 . S
C1365 H1358 0.950 . S
C1365 C1362 1.387 . S
C1366 C1367 1.387 . S
C1366 H1370 0.950 . S
C1366 C1375 1.390 . S
C1367 C1366 1.387 . S
C1367 C1369 1.387 . S
H1368 C1375 0.950 . S
C1369 C1367 1.387 . S
C1369 C1371 1.390 . S
C1369 H1373 0.950 . S
H1370 C1366 0.950 . S
C1371 C1369 1.390 . S
C1371 C1372 1.387 . S
C1371 H1374 0.950 . S
C1372 C1371 1.387 . S
C1372 C1375 1.387 . S
H1373 C1369 0.950 . S
H1374 C1371 0.950 . S
C1375 C1366 1.390 . S
C1375 H1368 0.950 . S
C1375 C1372 1.387 . S
C1376 C1377 1.387 . S
C1376 H1380 0.950 . S
C1376 C1385 1.390 . S
C1377 C1376 1.387 . S
C1377 C1379 1.387 . S
H1378 C1385 0.950 . S
C1379 C1377 1.387 . S
C1379 C1381 1.390 . S
C1379 H1383 0.950 . S
H1380 C1376 0.950 . S
C1381 C1379 1.390 . S
C1381 C1382 1.387 . S
C1381 H1384 0.950 . S
C1382 C1381 1.387 . S
C1382 C1385 1.387 . S
H1383 C1379 0.950 . S
H1384 C1381 0.950 . S
C1385 C1376 1.390 . S
C1385 H1378 0.950 . S
C1385 C1382 1.387 . S
C1386 C1387 1.387 . S
C1386 H1390 0.950 . S
C1386 C1395 1.390 . S
C1387 C1386 1.387 . S
C1387 C1389 1.387 . S
H1388 C1395 0.950 . S
C1389 C1387 1.387 . S
C1389 C1391 1.390 . S
C1389 H1393 0.950 . S
H1390 C1386 0.950 . S
C1391 C1389 1.390 . S
C1391 C1392 1.387 . S
C1391 H1394 0.950 . S
C1392 C1391 1.387 . S
C1392 C1395 1.387 . S
H1393 C1389 0.950 . S
H1394 C1391 0.950 . S
C1395 C1386 1.390 . S
C1395 H1388 0.950 . S
C1395 C1392 1.387 . S
C1396 C1397 1.387 1_655 S
C1396 H1400 0.950 . S
C1396 C1405 1.390 1_655 S
C1397 C1396 1.387 1_455 S
C1397 C1399 1.387 . S
H1398 C1405 0.947 1_655 S
C1399 C1397 1.387 . S
C1399 C1401 1.390 . S
C1399 H1403 0.950 . S
H1400 C1396 0.950 . S
C1401 C1399 1.390 . S
C1401 C1402 1.387 . S
C1401 H1404 0.950 . S
C1402 C1401 1.387 . S
C1402 C1405 1.387 . S
H1403 C1399 0.950 . S
H1404 C1401 0.950 . S
C1405 C1396 1.390 1_455 S
C1405 H1398 0.947 1_455 S
C1405 C1402 1.387 . S
C1406 C1407 1.387 . S
C1406 H1410 0.950 . S
C1406 C1415 1.390 . S
C1407 C1406 1.387 . S
C1407 C1409 1.387 . S
H1408 C1415 0.950 . S
C1409 C1407 1.387 . S
C1409 C1411 1.390 . S
C1409 H1413 0.950 . S
H1410 C1406 0.950 . S
C1411 C1409 1.390 . S
C1411 C1412 1.387 . S
C1411 H1414 0.950 . S
C1412 C1411 1.387 . S
C1412 C1415 1.387 . S
H1413 C1409 0.950 . S
H1414 C1411 0.950 . S
C1415 C1406 1.390 . S
C1415 H1408 0.950 . S
C1415 C1412 1.387 . S
C1416 C1417 1.387 . S
C1416 H1420 0.950 . S
C1416 C1425 1.390 . S
C1417 C1416 1.387 . S
C1417 C1419 1.387 . S
H1418 C1425 0.950 . S
C1419 C1417 1.387 . S
C1419 C1421 1.390 . S
C1419 H1423 0.950 . S
H1420 C1416 0.950 . S
C1421 C1419 1.390 . S
C1421 C1422 1.387 . S
C1421 H1424 0.950 . S
C1422 C1421 1.387 . S
C1422 C1425 1.387 . S
H1423 C1419 0.950 . S
H1424 C1421 0.950 . S
C1425 C1416 1.390 . S
C1425 H1418 0.950 . S
C1425 C1422 1.387 . S
C1426 C1427 1.387 . S
C1426 H1430 0.950 . S
C1426 C1435 1.390 . S
C1427 C1426 1.387 . S
C1427 C1429 1.387 . S
H1428 C1435 0.950 . S
C1429 C1427 1.387 . S
C1429 C1431 1.390 . S
C1429 H1433 0.950 . S
H1430 C1426 0.950 . S
C1431 C1429 1.390 . S
C1431 C1432 1.387 . S
C1431 H1434 0.950 . S
C1432 C1431 1.387 . S
C1432 C1435 1.387 . S
H1433 C1429 0.950 . S
H1434 C1431 0.950 . S
C1435 C1426 1.390 . S
C1435 H1428 0.950 . S
C1435 C1432 1.387 . S
C1436 C1437 1.387 1_655 S
C1436 H1440 0.950 . S
C1436 C1445 1.390 . S
C1437 C1436 1.387 1_455 S
C1437 C1439 1.387 . S
H1438 C1445 0.950 . S
C1439 C1437 1.387 . S
C1439 C1441 1.390 . S
C1439 H1443 0.950 . S
H1440 C1436 0.950 . S
C1441 C1439 1.390 . S
C1441 C1442 1.387 . S
C1441 H1444 0.950 . S
C1442 C1441 1.387 . S
C1442 C1445 1.387 1_455 S
H1443 C1439 0.950 . S
H1444 C1441 0.950 . S
C1445 C1436 1.390 . S
C1445 H1438 0.950 . S
C1445 C1442 1.387 1_655 S
C1446 C1447 1.387 . S
C1446 H1450 0.950 . S
C1446 C1455 1.390 . S
C1447 C1446 1.387 . S
C1447 C1449 1.387 . S
H1448 C1455 0.950 . S
C1449 C1447 1.387 . S
C1449 C1451 1.390 . S
C1449 H1453 0.950 . S
H1450 C1446 0.950 . S
C1451 C1449 1.390 . S
C1451 C1452 1.387 . S
C1451 H1454 0.950 . S
C1452 C1451 1.387 . S
C1452 C1455 1.387 . S
H1453 C1449 0.950 . S
H1454 C1451 0.950 . S
C1455 C1446 1.390 . S
C1455 H1448 0.950 . S
C1455 C1452 1.387 . S
C1456 C1457 1.387 . S
C1456 H1460 0.950 . S
C1456 C1465 1.390 . S
C1457 C1456 1.387 . S
C1457 C1459 1.387 . S
H1458 C1465 0.950 . S
C1459 C1457 1.387 . S
C1459 C1461 1.390 . S
C1459 H1463 0.950 . S
H1460 C1456 0.950 . S
C1461 C1459 1.390 . S
C1461 C1462 1.387 . S
C1461 H1464 0.950 . S
C1462 C1461 1.387 . S
C1462 C1465 1.387 . S
H1463 C1459 0.950 . S
H1464 C1461 0.950 . S
C1465 C1456 1.390 . S
C1465 H1458 0.950 . S
C1465 C1462 1.387 . S
C1466 C1467 1.387 . S
C1466 H1470 0.950 . S
C1466 C1475 1.390 . S
C1467 C1466 1.387 . S
C1467 C1469 1.387 . S
H1468 C1475 0.950 . S
C1469 C1467 1.387 . S
C1469 C1471 1.390 . S
C1469 H1473 0.950 . S
H1470 C1466 0.950 . S
C1471 C1469 1.390 . S
C1471 C1472 1.387 . S
C1471 H1474 0.950 . S
C1472 C1471 1.387 . S
C1472 C1475 1.387 . S
H1473 C1469 0.950 . S
H1474 C1471 0.950 . S
C1475 C1466 1.390 . S
C1475 H1468 0.950 . S
C1475 C1472 1.387 . S
C1476 C1477 1.387 . S
C1476 H1480 0.950 . S
C1476 C1485 1.390 . S
C1477 C1476 1.387 . S
C1477 C1479 1.387 . S
H1478 C1485 0.950 . S
C1479 C1477 1.387 . S
C1479 C1481 1.390 . S
C1479 H1483 0.950 . S
H1480 C1476 0.950 . S
C1481 C1479 1.390 . S
C1481 C1482 1.387 . S
C1481 H1484 0.950 . S
C1482 C1481 1.387 . S
C1482 C1485 1.387 . S
H1483 C1479 0.950 . S
H1484 C1481 0.950 . S
C1485 C1476 1.390 . S
C1485 H1478 0.950 . S
C1485 C1482 1.387 . S
C1486 C1487 1.387 . S
C1486 H1490 0.950 . S
C1486 C1495 1.390 . S
C1487 C1486 1.387 . S
C1487 C1489 1.387 . S
H1488 C1495 0.950 . S
C1489 C1487 1.387 . S
C1489 C1491 1.390 . S
C1489 H1493 0.950 . S
H1490 C1486 0.950 . S
C1491 C1489 1.390 . S
C1491 C1492 1.387 . S
C1491 H1494 0.950 . S
C1492 C1491 1.387 . S
C1492 C1495 1.387 . S
H1493 C1489 0.950 . S
H1494 C1491 0.950 . S
C1495 C1486 1.390 . S
C1495 H1488 0.950 . S
C1495 C1492 1.387 . S
C1496 C1497 1.387 . S
C1496 H1500 0.950 . S
C1496 C1505 1.390 . S
C1497 C1496 1.387 . S
C1497 C1499 1.387 . S
H1498 C1505 0.950 . S
C1499 C1497 1.387 . S
C1499 C1501 1.390 . S
C1499 H1503 0.950 . S
H1500 C1496 0.950 . S
C1501 C1499 1.390 . S
C1501 C1502 1.387 . S
C1501 H1504 0.950 . S
C1502 C1501 1.387 . S
C1502 C1505 1.387 . S
H1503 C1499 0.950 . S
H1504 C1501 0.950 . S
C1505 C1496 1.390 . S
C1505 H1498 0.950 . S
C1505 C1502 1.387 . S
C1506 C1507 1.387 . S
C1506 H1510 0.950 . S
C1506 C1515 1.390 . S
C1507 C1506 1.387 . S
C1507 C1509 1.387 . S
H1508 C1515 0.950 . S
C1509 C1507 1.387 . S
C1509 C1511 1.390 . S
C1509 H1513 0.950 . S
H1510 C1506 0.950 . S
C1511 C1509 1.390 . S
C1511 C1512 1.387 . S
C1511 H1514 0.950 . S
C1512 C1511 1.387 . S
C1512 C1515 1.387 . S
H1513 C1509 0.950 . S
H1514 C1511 0.950 . S
C1515 C1506 1.390 . S
C1515 H1508 0.950 . S
C1515 C1512 1.387 . S
C1516 C1517 1.387 . S
C1516 H1520 0.950 . S
C1516 C1525 1.390 . S
C1517 C1516 1.387 . S
C1517 C1519 1.387 . S
H1518 C1525 0.950 . S
C1519 C1517 1.387 . S
C1519 C1521 1.390 . S
C1519 H1523 0.950 . S
H1520 C1516 0.950 . S
C1521 C1519 1.390 . S
C1521 C1522 1.387 . S
C1521 H1524 0.950 . S
C1522 C1521 1.387 . S
C1522 C1525 1.387 . S
H1523 C1519 0.950 . S
H1524 C1521 0.950 . S
C1525 C1516 1.390 . S
C1525 H1518 0.950 . S
C1525 C1522 1.387 . S
C1526 C1527 1.387 . S
C1526 H1530 0.950 . S
C1526 C1535 1.390 . S
C1527 C1526 1.387 . S
C1527 C1529 1.387 . S
H1528 C1535 0.950 . S
C1529 C1527 1.387 . S
C1529 C1531 1.390 . S
C1529 H1533 0.950 . S
H1530 C1526 0.950 . S
C1531 C1529 1.390 . S
C1531 C1532 1.387 . S
C1531 H1534 0.950 . S
C1532 C1531 1.387 . S
C1532 C1535 1.387 . S
H1533 C1529 0.950 . S
H1534 C1531 0.950 . S
C1535 C1526 1.390 . S
C1535 H1528 0.950 . S
C1535 C1532 1.387 . S
C1536 C1537 1.387 . S
C1536 H1540 0.950 . S
C1536 C1545 1.390 . S
C1537 C1536 1.387 . S
C1537 C1539 1.387 . S
H1538 C1545 0.950 . S
C1539 C1537 1.387 . S
C1539 C1541 1.390 . S
C1539 H1543 0.950 . S
H1540 C1536 0.950 . S
C1541 C1539 1.390 . S
C1541 C1542 1.387 . S
C1541 H1544 0.950 . S
C1542 C1541 1.387 . S
C1542 C1545 1.387 . S
H1543 C1539 0.950 . S
H1544 C1541 0.950 . S
C1545 C1536 1.390 . S
C1545 H1538 0.950 . S
C1545 C1542 1.387 . S
C1546 C1547 1.387 . S
C1546 H1550 0.950 . S
C1546 C1555 1.390 . S
C1547 C1546 1.387 . S
C1547 C1549 1.387 . S
H1548 C1555 0.950 1_545 S
C1549 C1547 1.387 . S
C1549 C1551 1.390 . S
C1549 H1553 0.950 . S
H1550 C1546 0.950 . S
C1551 C1549 1.390 . S
C1551 C1552 1.387 . S
C1551 H1554 0.950 . S
C1552 C1551 1.387 . S
C1552 C1555 1.387 . S
H1553 C1549 0.950 . S
H1554 C1551 0.950 . S
C1555 C1546 1.390 . S
C1555 H1548 0.950 1_565 S
C1555 C1552 1.387 . S
C1556 C1557 1.387 . S
C1556 H1560 0.950 . S
C1556 C1565 1.390 . S
C1557 C1556 1.387 . S
C1557 C1559 1.387 . S
H1558 C1565 0.950 . S
C1559 C1557 1.387 . S
C1559 C1561 1.390 . S
C1559 H1563 0.950 . S
H1560 C1556 0.950 . S
C1561 C1559 1.390 . S
C1561 C1562 1.387 . S
C1561 H1564 0.950 . S
C1562 C1561 1.387 . S
C1562 C1565 1.387 . S
H1563 C1559 0.950 . S
H1564 C1561 0.950 . S
C1565 C1556 1.390 . S
C1565 H1558 0.950 . S
C1565 C1562 1.387 . S
C1566 C1567 1.387 . S
C1566 H1570 0.950 . S
C1566 C1575 1.390 . S
C1567 C1566 1.387 . S
C1567 C1569 1.387 1_554 S
H1568 C1575 0.950 . S
C1569 C1567 1.387 1_556 S
C1569 C1571 1.390 . S
C1569 H1573 0.950 . S
H1570 C1566 0.950 . S
C1571 C1569 1.390 . S
C1571 C1572 1.387 1_556 S
C1571 H1574 0.950 . S
C1572 C1571 1.387 1_554 S
C1572 C1575 1.387 . S
H1573 C1569 0.950 . S
H1574 C1571 0.950 . S
C1575 C1566 1.390 . S
C1575 H1568 0.950 . S
C1575 C1572 1.387 . S
C1576 C1577 1.387 . S
C1576 H1580 0.950 . S
C1576 C1585 1.390 . S
C1577 C1576 1.387 . S
C1577 C1579 1.387 . S
H1578 C1585 0.950 . S
C1579 C1577 1.387 . S
C1579 C1581 1.390 . S
C1579 H1583 0.950 . S
H1580 C1576 0.950 . S
C1581 C1579 1.390 . S
C1581 C1582 1.387 . S
C1581 H1584 0.950 . S
C1582 C1581 1.387 . S
C1582 C1585 1.387 . S
H1583 C1579 0.950 . S
H1584 C1581 0.950 . S
C1585 C1576 1.390 . S
C1585 H1578 0.950 . S
C1585 C1582 1.387 . S
C1586 C1587 1.387 . S
C1586 H1590 0.950 . S
C1586 C1595 1.390 . S
C1587 C1586 1.387 . S
C1587 C1589 1.387 . S
H1588 C1595 0.950 . S
C1589 C1587 1.387 . S
C1589 C1591 1.390 1_554 S
C1589 H1593 0.950 1_554 S
H1590 C1586 0.950 . S
C1591 C1589 1.390 1_556 S
C1591 C1592 1.387 1_556 S
C1591 H1594 0.950 . S
C1592 C1591 1.387 1_554 S
C1592 C1595 1.387 . S
H1593 C1589 0.950 1_556 S
H1594 C1591 0.950 . S
C1595 C1586 1.390 . S
C1595 H1588 0.950 . S
C1595 C1592 1.387 . S
C1596 C1597 1.387 . S
C1596 H1600 0.950 . S
C1596 C1605 1.390 . S
C1597 C1596 1.387 . S
C1597 C1599 1.387 . S
H1598 C1605 0.950 . S
C1599 C1597 1.387 . S
C1599 C1601 1.390 . S
C1599 H1603 0.950 . S
H1600 C1596 0.950 . S
C1601 C1599 1.390 . S
C1601 C1602 1.387 . S
C1601 H1604 0.950 . S
C1602 C1601 1.387 . S
C1602 C1605 1.387 . S
H1603 C1599 0.950 . S
H1604 C1601 0.950 . S
C1605 C1596 1.390 . S
C1605 H1598 0.950 . S
C1605 C1602 1.387 . S
C1606 C1607 1.387 . S
C1606 H1610 0.950 . S
C1606 C1615 1.390 . S
C1607 C1606 1.387 . S
C1607 C1609 1.387 . S
H1608 C1615 0.950 . S
C1609 C1607 1.387 . S
C1609 C1611 1.390 . S
C1609 H1613 0.950 . S
H1610 C1606 0.950 . S
C1611 C1609 1.390 . S
C1611 C1612 1.387 . S
C1611 H1614 0.950 . S
C1612 C1611 1.387 . S
C1612 C1615 1.387 . S
H1613 C1609 0.950 . S
H1614 C1611 0.950 . S
C1615 C1606 1.390 . S
C1615 H1608 0.950 . S
C1615 C1612 1.387 . S
C657 C106 1.713 . S
C662 C352 1.642 . S
C667 C65 1.423 . S
C672 C365 1.404 . S
C677 C79 1.795 . S
C682 C384 1.841 . S
C692 C415 1.684 . S
C687 C90 1.717 . S
C697 C21 1.477 . S
C702 C435 1.495 . S
C712 C452 1.083 . S
C707 C35 1.045 . S
C722 C465 1.540 . S
C717 C50 1.552 . S
C727 C6 1.222 . S
C732 C492 1.259 . S
C742 C345 1.545 . S
C737 C232 1.592 . S
C747 C245 1.514 . S
C752 C375 1.574 . S
C762 C377 1.688 . S
C757 C274 1.773 . S
C772 C412 0.995 . S
C767 C175 0.975 . S
C777 C231 1.074 . S
C782 C432 1.095 . S
C792 C445 1.745 . S
C787 C246 1.752 . S
C802 C475 1.290 . S
C797 C273 1.276 . S
C812 C485 1.429 . S
C807 C176 1.482 . S
C822 C355 1.737 1_565 S
C817 C160 1.640 . S
C827 C289 1.731 . S
C832 C505 1.718 . S
C842 C535 1.680 . S
C837 C328 1.583 . S
C852 C552 1.405 . S
C847 C317 1.451 . S
C857 C118 1.838 . S
C862 C495 1.995 . S
C867 C132 1.282 . S
C872 C382 1.304 . S
C877 C331 1.859 . S
C882 C565 1.850 . S
C892 C592 1.326 . S
C887 C303 1.385 . S
C902 C342 1.288 . S
C897 C63 1.257 . S
C912 C577 1.709 . S
C907 C107 1.706 . S
C917 C92 1.543 . S
C922 C395 1.523 . S
C927 C78 2.193 . S
C932 C564 2.194 . S
C942 C424 1.960 . S
C937 C8 1.966 . S
C947 C51 1.131 . S
C952 C522 1.105 . S
C962 C457 1.828 1_556 S
C957 C37 1.782 . S
C972 C602 1.139 . S
C967 C20 1.113 . S
C982 C337 1.333 . S
C977 C147 1.288 . S
C992 C584 1.714 . S
C987 C316 1.744 . S
C997 C119 1.654 . S
C1002 C385 1.643 . S
C1007 C288 1.059 . S
C1012 C562 1.048 . S
C1017 C148 1.344 1_545 S
C1022 C422 1.325 . S
C1032 C517 1.720 . S
C1027 C315 1.659 . S
C1037 C120 1.597 . S
C1042 C464 1.566 . S
C1047 C287 1.254 . S
C1052 C597 1.248 . S
C1057 C188 1.536 . S
C1062 C344 1.580 . S
C1067 C177 1.931 . S
C1072 C497 1.959 . S
C1077 C258 1.726 . S
C1082 C444 1.810 . S
C1087 C247 1.464 . S
C1092 C542 1.443 . S
C1102 C604 1.801 . S
C1097 C272 1.716 . S
C1107 C216 1.286 . S
C1112 C392 1.267 1_565 S
C1122 C397 2.040 . S
C1117 C261 2.002 . S
C1132 C362 1.325 . S
C1127 C205 1.372 . S
C1137 C76 1.337 . S
C1142 C632 1.374 . S
C1152 C585 1.462 . S
C1147 C93 1.481 . S
C1157 C105 1.396 . S
C1162 C644 1.492 1_556 S
C1167 C62 1.733 . S
C1172 C575 1.702 . S
C1177 C49 1.458 . S
C1182 C515 1.468 . S
C1192 C532 1.385 . S
C1187 C9 1.401 . S
C1202 C545 1.491 1_655 S
C1197 C22 1.498 . S
C1212 C612 1.516 . S
C1207 C36 1.591 . S
C1222 C625 1.505 . S
C1217 C260 1.550 . S
C1227 C189 1.387 . S
C1232 C595 1.419 . S
C1242 C637 1.639 . S
C1237 C204 1.739 . S
C1252 C572 0.865 . S
C1247 C217 0.858 . S
C1262 C512 1.248 . S
C1257 C259 1.202 . S
C1267 C190 1.799 . S
C1272 C525 1.791 . S
C1282 C555 1.443 . S
C1277 C203 1.406 . S
C1287 C218 1.549 . S
C1292 C605 1.492 . S
C1302 C635 1.712 . S
C1297 C314 1.589 . S
C1307 C135 1.776 . S
C1312 C425 1.765 . S
C1322 C455 1.654 . S
C1317 C146 1.538 . S
C1332 C472 1.435 . S
C1327 C163 1.465 . S
C1342 C615 2.023 . S
C1337 C300 1.896 . S
C1347 C286 1.262 . S
C1352 C642 1.295 . S
C1362 C405 1.794 . S
C1357 C149 1.799 . S
C1372 C372 1.321 . S
C1367 C121 1.395 . S
C1377 C91 1.214 . S
C1382 C622 1.246 . S
C1392 C357 1.395 . S
C1387 C77 1.385 . S
C1397 C64 1.507 . S
C1402 C655 1.490 . S
C1407 C104 1.840 . S
C1412 C404 1.855 . S
C1417 C34 1.625 . S
C1422 C504 1.666 1_556 S
C1432 C442 1.073 . S
C1427 C23 1.087 . S
C1437 C7 1.381 . S
C1442 C537 1.438 . S
C1447 C48 1.066 . S
C1452 C482 1.095 . S
C1462 C617 1.308 . S
C1457 C329 1.271 . S
C1467 C162 1.730 . S
C1472 C364 1.701 . S
C1482 C645 1.624 1_655 S
C1477 C301 1.633 . S
C1487 C134 1.079 . S
C1492 C402 1.066 . S
C1497 C330 1.341 . S
C1502 C502 1.324 . S
C1512 C437 1.694 . S
C1507 C161 1.642 . S
C1517 C302 1.578 . S
C1522 C544 1.549 . S
C1532 C477 1.229 . S
C1527 C133 1.241 . S
C1542 C624 1.772 . S
C1537 C244 1.732 . S
C1552 C417 1.945 1_565 S
C1547 C219 1.905 . S
C1557 C230 1.576 . S
C1562 C524 1.654 . S
C1572 C462 1.412 . S
C1567 C191 1.454 1_554 S
C1577 C202 1.910 . S
C1582 C484 1.985 . S
C1587 C174 1.394 . S
C1592 C652 1.392 . S
C1602 C557 2.039 . S
C1597 C233 1.989 . S
C1612 C582 1.318 . S
C1607 C275 1.393 . S
