# Generated by pormake.
# Topology csq, (4,8)-cn, num edge types: 1
# Building blocks:
#     Node 0, Type 0, BuildingBlock: KOZSID_clean_sbu_0, # of connection points: 4
#     Node 1, Type 0, BuildingBlock: KOZSID_clean_sbu_0, # of connection points: 4
#     Node 2, Type 0, BuildingBlock: KOZSID_clean_sbu_0, # of connection points: 4
#     Node 3, Type 0, BuildingBlock: KOZSID_clean_sbu_0, # of connection points: 4
#     Node 4, Type 0, BuildingBlock: KOZSID_clean_sbu_0, # of connection points: 4
#     Node 5, Type 0, BuildingBlock: KOZSID_clean_sbu_0, # of connection points: 4
#     Node 6, Type 1, BuildingBlock: TAGTUT_clean_sbu_3, # of connection points: 8
#     Node 7, Type 1, BuildingBlock: TAGTUT_clean_sbu_3, # of connection points: 8
#     Node 8, Type 1, BuildingBlock: TAGTUT_clean_sbu_3, # of connection points: 8
#     Edge 9, Type (0, 1), BuildingBlock: OJICUG_clean_linker_0, # of connection points: 2
#     Edge 10, Type (0, 1), BuildingBlock: OJICUG_clean_linker_0, # of connection points: 2
#     Edge 11, Type (0, 1), BuildingBlock: OJICUG_clean_linker_0, # of connection points: 2
#     Edge 12, Type (0, 1), BuildingBlock: OJICUG_clean_linker_0, # of connection points: 2
#     Edge 13, Type (0, 1), BuildingBlock: OJICUG_clean_linker_0, # of connection points: 2
#     Edge 14, Type (0, 1), BuildingBlock: OJICUG_clean_linker_0, # of connection points: 2
#     Edge 15, Type (0, 1), BuildingBlock: OJICUG_clean_linker_0, # of connection points: 2
#     Edge 16, Type (0, 1), BuildingBlock: OJICUG_clean_linker_0, # of connection points: 2
#     Edge 17, Type (0, 1), BuildingBlock: OJICUG_clean_linker_0, # of connection points: 2
#     Edge 18, Type (0, 1), BuildingBlock: OJICUG_clean_linker_0, # of connection points: 2
#     Edge 19, Type (0, 1), BuildingBlock: OJICUG_clean_linker_0, # of connection points: 2
#     Edge 20, Type (0, 1), BuildingBlock: OJICUG_clean_linker_0, # of connection points: 2
#     Edge 21, Type (0, 1), BuildingBlock: OJICUG_clean_linker_0, # of connection points: 2
#     Edge 22, Type (0, 1), BuildingBlock: OJICUG_clean_linker_0, # of connection points: 2
#     Edge 23, Type (0, 1), BuildingBlock: OJICUG_clean_linker_0, # of connection points: 2
#     Edge 24, Type (0, 1), BuildingBlock: OJICUG_clean_linker_0, # of connection points: 2
#     Edge 25, Type (0, 1), BuildingBlock: OJICUG_clean_linker_0, # of connection points: 2
#     Edge 26, Type (0, 1), BuildingBlock: OJICUG_clean_linker_0, # of connection points: 2
#     Edge 27, Type (0, 1), BuildingBlock: OJICUG_clean_linker_0, # of connection points: 2
#     Edge 28, Type (0, 1), BuildingBlock: OJICUG_clean_linker_0, # of connection points: 2
#     Edge 29, Type (0, 1), BuildingBlock: OJICUG_clean_linker_0, # of connection points: 2
#     Edge 30, Type (0, 1), BuildingBlock: OJICUG_clean_linker_0, # of connection points: 2
#     Edge 31, Type (0, 1), BuildingBlock: OJICUG_clean_linker_0, # of connection points: 2
#     Edge 32, Type (0, 1), BuildingBlock: OJICUG_clean_linker_0, # of connection points: 2
# Relax obj value: 0.035
# Max RMSD: 0.126
# Mean RMSD: 0.042
data_MOF--net-csq--node1-KOZSID_clean_sbu_0--node2-TAGTUT_clean_sbu_3--edge1-OJICUG_clean_linker_0
_symmetry_space_group_name_H-M    P1
_symmetry_Int_Tables_number       1
_symmetry_cell_setting            triclinic
loop_
_symmetry_equiv_pos_as_xyz
'x, y, z'
_cell_length_a     44.009882
_cell_length_b     43.392845
_cell_length_c     15.720445
_cell_angle_alpha  86.752824
_cell_angle_beta   99.059945
_cell_angle_gamma 119.90768
loop_
_atom_site_label
_atom_site_type_symbol
_atom_site_fract_x
_atom_site_fract_y
_atom_site_fract_z
_atom_type_partial_charge
C0 C 0.31121 0.52598 0.33982 0.0
C1 C 0.3349 0.56209 0.3506 0.0
C2 C 0.32267 0.57842 0.28886 0.0
C3 C 0.29249 0.55127 0.24408 0.0
N4 N 0.28415 0.51878 0.2754 0.0
Co5 Co 0.24689 0.4713 0.22271 0.0
N6 N 0.2334 0.49408 0.12118 0.0
C7 C 0.24661 0.52927 0.10795 0.0
C8 C 0.22981 0.53651 0.03507 0.0
C9 C 0.20375 0.50401 0.00115 0.0
C10 C 0.20633 0.47882 0.05541 0.0
N11 N 0.21108 0.42364 0.16851 0.0
C12 C 0.18755 0.41554 0.09552 0.0
C13 C 0.16706 0.37913 0.07996 0.0
C14 C 0.17762 0.36354 0.14704 0.0
C15 C 0.20384 0.39128 0.19918 0.0
N16 N 0.25918 0.44839 0.32545 0.0
C17 C 0.24297 0.41355 0.34446 0.0
C18 C 0.25828 0.40645 0.4203 0.0
C19 C 0.28646 0.43861 0.44988 0.0
C20 C 0.28657 0.46335 0.38988 0.0
N21 N 0.21017 0.47238 0.28186 0.0
C22 C 0.16032 0.47426 0.37429 0.0
C23 C 0.15842 0.44213 0.35492 0.0
C24 C 0.18332 0.4418 0.3097 0.0
C25 C 0.18702 0.5053 0.34328 0.0
C26 C 0.21115 0.50374 0.29728 0.0
N27 N 0.28386 0.47067 0.16474 0.0
C28 C 0.31725 0.44265 0.13627 0.0
C29 C 0.33984 0.47239 0.09229 0.0
C30 C 0.33351 0.50104 0.08478 0.0
C31 C 0.30554 0.49952 0.12039 0.0
C32 C 0.28981 0.44241 0.17197 0.0
H33 H 0.30208 0.52217 0.11154 0.0
H34 H 0.27399 0.41929 0.2063 0.0
H35 H 0.1803 0.41636 0.29852 0.0
H36 H 0.23057 0.52845 0.27569 0.0
C37 C 0.27397 0.55477 0.16661 0.0
C38 C 0.31638 0.49894 0.38721 0.0
C39 C 0.18027 0.44105 0.04702 0.0
C40 C 0.21829 0.3879 0.28256 0.0
H41 H 0.35913 0.57498 0.39609 0.0
H42 H 0.33542 0.60647 0.27497 0.0
H43 H 0.2351 0.56233 0.01106 0.0
H44 H 0.1842 0.49926 0.94477 0.0
H45 H 0.14546 0.36539 0.02803 0.0
H46 H 0.16607 0.33538 0.15902 0.0
H47 H 0.25157 0.38069 0.44717 0.0
H48 H 0.3062 0.443 0.50556 0.0
H49 H 0.13775 0.41701 0.37449 0.0
H50 H 0.19005 0.53101 0.35603 0.0
H51 H 0.32101 0.41977 0.14446 0.0
H52 H 0.34958 0.52437 0.0498 0.0
C53 C 0.83643 0.28434 0.02934 0.0
C54 C 0.86498 0.28309 0.00587 0.0
C55 C 0.86306 0.25229 0.0365 0.0
C56 C 0.83385 0.23664 0.07753 0.0
N57 N 0.81674 0.25544 0.07481 0.0
Co58 Co 0.77456 0.2433 0.13242 0.0
N59 N 0.77161 0.19761 0.17614 0.0
C60 C 0.79342 0.18514 0.16463 0.0
C61 C 0.78282 0.15148 0.19379 0.0
C62 C 0.75196 0.14142 0.22424 0.0
C63 C 0.74564 0.16984 0.21266 0.0
N64 N 0.73262 0.23128 0.19069 0.0
C65 C 0.71089 0.20073 0.22808 0.0
C66 C 0.68397 0.20298 0.25791 0.0
C67 C 0.68813 0.23561 0.23601 0.0
C68 C 0.71737 0.2515 0.19478 0.0
N69 N 0.77706 0.28861 0.08683 0.0
C70 C 0.75532 0.30113 0.09884 0.0
C71 C 0.76335 0.3328 0.05977 0.0
C72 C 0.792 0.34115 0.02062 0.0
C73 C 0.79999 0.31408 0.03852 0.0
N74 N 0.74188 0.21702 0.02837 0.0
C75 C 0.68551 0.16255 0.9223 0.0
C76 C 0.68161 0.18925 0.95619 0.0
C77 C 0.71036 0.2167 0.00674 0.0
C78 C 0.71947 0.16653 0.9329 0.0
C79 C 0.74717 0.19387 0.98586 0.0
N80 N 0.80702 0.26928 0.23825 0.0
C81 C 0.82779 0.3157 0.34613 0.0
C82 C 0.85816 0.31322 0.37321 0.0
C83 C 0.86123 0.28652 0.33676 0.0
C84 C 0.83524 0.26465 0.27055 0.0
C85 C 0.80279 0.29368 0.279 0.0
H86 H 0.83929 0.24511 0.24477 0.0
H87 H 0.78111 0.29804 0.25921 0.0
H88 H 0.70586 0.23611 0.03203 0.0
H89 H 0.77208 0.19464 0.99517 0.0
C90 C 0.82175 0.20423 0.11892 0.0
C91 C 0.82978 0.31397 0.00858 0.0
C92 C 0.71368 0.16846 0.23285 0.0
C93 C 0.72844 0.28321 0.14986 0.0
H94 H 0.88548 0.30258 0.97113 0.0
H95 H 0.88104 0.24261 0.03032 0.0
H96 H 0.79516 0.1355 0.18955 0.0
H97 H 0.7354 0.11553 0.24911 0.0
H98 H 0.66279 0.18267 0.2896 0.0
H99 H 0.67087 0.24581 0.24529 0.0
H100 H 0.75018 0.3482 0.06047 0.0
H101 H 0.80565 0.36464 0.98358 0.0
H102 H 0.65624 0.18824 0.94786 0.0
H103 H 0.72453 0.14795 0.90313 0.0
H104 H 0.82445 0.33621 0.37233 0.0
H105 H 0.8843 0.2835 0.35678 0.0
C106 C 0.55801 0.72604 0.14579 0.0
C107 C 0.58993 0.72892 0.18493 0.0
C108 C 0.61621 0.76091 0.16248 0.0
C109 C 0.59905 0.77571 0.11067 0.0
N110 N 0.56334 0.75485 0.09744 0.0
Co111 Co 0.52832 0.76681 0.02796 0.0
N112 N 0.567 0.81454 0.99733 0.0
C113 C 0.60233 0.82784 0.01997 0.0
C114 C 0.62249 0.86044 0.98639 0.0
C115 C 0.59868 0.86836 0.93859 0.0
C116 C 0.5652 0.84008 0.9461 0.0
N117 N 0.49317 0.77912 0.96091 0.0
C118 C 0.49823 0.80832 0.91485 0.0
C119 C 0.4662 0.8062 0.87983 0.0
C120 C 0.44005 0.7744 0.90327 0.0
C121 C 0.45744 0.75903 0.95155 0.0
N122 N 0.48965 0.71856 0.05597 0.0
C123 C 0.45447 0.70444 0.02853 0.0
C124 C 0.43411 0.67145 0.05982 0.0
C125 C 0.45757 0.66397 0.11072 0.0
C126 C 0.49116 0.69289 0.1072 0.0
N127 N 0.52571 0.78737 0.13379 0.0
C128 C 0.52264 0.81832 0.28228 0.0
C129 C 0.49192 0.79092 0.23608 0.0
C130 C 0.494 0.77616 0.16215 0.0
C131 C 0.55504 0.82858 0.25518 0.0
C132 C 0.55595 0.81276 0.1819 0.0
N133 N 0.53112 0.74614 0.92272 0.0
C134 C 0.50162 0.70487 0.8018 0.0
C135 C 0.53285 0.70454 0.79631 0.0
C136 C 0.56413 0.72936 0.84596 0.0
C137 C 0.56267 0.75002 0.9079 0.0
C138 C 0.50133 0.72571 0.86551 0.0
H139 H 0.58713 0.76728 0.94622 0.0
H140 H 0.47636 0.7233 0.87023 0.0
H141 H 0.46956 0.7562 0.12832 0.0
H142 H 0.58145 0.82219 0.16453 0.0
C143 C 0.6157 0.80902 0.0731 0.0
C144 C 0.52343 0.69545 0.15698 0.0
C145 C 0.53261 0.83852 0.90189 0.0
C146 C 0.44106 0.72455 0.98229 0.0
H147 H 0.59388 0.70992 0.22581 0.0
H148 H 0.64448 0.77213 0.18195 0.0
H149 H 0.65112 0.8764 0.99496 0.0
H150 H 0.6052 0.89209 0.90158 0.0
H151 H 0.46207 0.82544 0.84044 0.0
H152 H 0.41173 0.76339 0.88542 0.0
H153 H 0.40549 0.65543 0.04992 0.0
H154 H 0.45042 0.64032 0.14829 0.0
H155 H 0.46617 0.78166 0.25504 0.0
H156 H 0.57964 0.8501 0.28736 0.0
H157 H 0.47691 0.68683 0.76232 0.0
H158 H 0.58913 0.73052 0.84336 0.0
C159 C 0.86356 0.59317 0.16216 0.0
C160 C 0.8914 0.62806 0.17047 0.0
C161 C 0.87918 0.64847 0.1257 0.0
C162 C 0.84494 0.62504 0.09158 0.0
N163 N 0.8341 0.5909 0.11381 0.0
Co164 Co 0.78875 0.5475 0.0661 0.0
N165 N 0.77379 0.5767 0.98575 0.0
C166 C 0.79161 0.61247 0.97845 0.0
C167 C 0.77339 0.62534 0.92359 0.0
C168 C 0.74161 0.59618 0.89556 0.0
C169 C 0.74239 0.56701 0.9348 0.0
N170 N 0.74374 0.50399 0.01719 0.0
C171 C 0.71541 0.50118 0.96216 0.0
C172 C 0.68879 0.46603 0.94748 0.0
C173 C 0.70033 0.4459 0.99676 0.0
C174 C 0.73324 0.46981 0.03824 0.0
N175 N 0.80341 0.51837 0.14714 0.0
C176 C 0.78451 0.48296 0.15898 0.0
C177 C 0.80225 0.47036 0.21668 0.0
C178 C 0.8348 0.49925 0.24114 0.0
C179 C 0.83513 0.52784 0.19595 0.0
N180 N 0.76346 0.55302 0.15339 0.0
C181 C 0.71769 0.55871 0.25008 0.0
C182 C 0.71534 0.52596 0.23746 0.0
C183 C 0.73854 0.52379 0.19023 0.0
C184 C 0.74528 0.58903 0.22008 0.0
C185 C 0.76781 0.5856 0.17241 0.0
N186 N 0.81432 0.5422 0.97965 0.0
C187 C 0.83898 0.50933 0.92693 0.0
C188 C 0.86448 0.54005 0.89187 0.0
C189 C 0.86229 0.57105 0.89564 0.0
C190 C 0.8368 0.57129 0.93778 0.0
C191 C 0.81419 0.51094 0.96978 0.0
H192 H 0.8369 0.59584 0.93915 0.0
H193 H 0.79602 0.48691 0.99712 0.0
H194 H 0.73489 0.49797 0.18179 0.0
H195 H 0.78765 0.60957 0.14905 0.0
C196 C 0.82429 0.63354 0.02885 0.0
C197 C 0.86689 0.56272 0.19598 0.0
C198 C 0.71184 0.53106 0.92606 0.0
C199 C 0.75267 0.46157 0.10545 0.0
H200 H 0.91836 0.63779 0.20176 0.0
H201 H 0.89426 0.67667 0.11435 0.0
H202 H 0.78161 0.65281 0.9087 0.0
H203 H 0.71988 0.59664 0.85354 0.0
H204 H 0.66318 0.45612 0.90769 0.0
H205 H 0.6857 0.41743 0.00479 0.0
H206 H 0.79341 0.44306 0.23473 0.0
H207 H 0.85638 0.4989 0.2842 0.0
H208 H 0.69495 0.50184 0.26188 0.0
H209 H 0.74837 0.61504 0.22936 0.0
H210 H 0.83838 0.48421 0.92275 0.0
H211 H 0.88105 0.59569 0.86946 0.0
C212 C 0.28573 0.84588 0.20422 0.0
C213 C 0.28059 0.87244 0.23273 0.0
C214 C 0.24585 0.86257 0.20612 0.0
C215 C 0.23161 0.83056 0.16355 0.0
N216 N 0.25512 0.81916 0.16205 0.0
Co217 Co 0.24542 0.77384 0.10695 0.0
N218 N 0.19414 0.75909 0.06833 0.0
C219 C 0.17735 0.77665 0.08449 0.0
C220 C 0.14221 0.76011 0.04958 0.0
C221 C 0.13611 0.7302 0.00868 0.0
C222 C 0.16802 0.73015 0.02112 0.0
N223 N 0.23616 0.7291 0.04992 0.0
C224 C 0.20625 0.70323 0.00373 0.0
C225 C 0.21139 0.67643 0.97655 0.0
C226 C 0.24581 0.68597 0.0051 0.0
C227 C 0.25964 0.71773 0.04832 0.0
N228 N 0.29649 0.78808 0.14652 0.0
C229 C 0.31274 0.76957 0.13394 0.0
C230 C 0.34829 0.78665 0.16406 0.0
C231 C 0.35533 0.818 0.19848 0.0
C232 C 0.32336 0.81802 0.18827 0.0
N233 N 0.23266 0.74856 0.21644 0.0
C234 C 0.20741 0.70846 0.36287 0.0
C235 C 0.23022 0.70377 0.31872 0.0
C236 C 0.24252 0.72403 0.24622 0.0
C237 C 0.19958 0.73517 0.33531 0.0
C238 C 0.21248 0.75471 0.26351 0.0
N239 N 0.25793 0.79959 0.99861 0.0
C240 C 0.29812 0.82448 0.89383 0.0
C241 C 0.28641 0.84881 0.87045 0.0
C242 C 0.25788 0.84565 0.90519 0.0
C243 C 0.24372 0.82057 0.96762 0.0
C244 C 0.28339 0.79998 0.95773 0.0
H245 H 0.22244 0.82002 0.99264 0.0
H246 H 0.29404 0.78277 0.97598 0.0
H247 H 0.25926 0.71888 0.21422 0.0
H248 H 0.20458 0.77386 0.24615 0.0
C249 C 0.19594 0.8098 0.12763 0.0
C250 C 0.32004 0.84709 0.21948 0.0
C251 C 0.1723 0.70244 0.98518 0.0
C252 C 0.29453 0.73733 0.08824 0.0
H253 H 0.29981 0.89643 0.26949 0.0
H254 H 0.23246 0.87686 0.21735 0.0
H255 H 0.12343 0.76913 0.05201 0.0
H256 H 0.11114 0.71083 0.97269 0.0
H257 H 0.19229 0.65227 0.94025 0.0
H258 H 0.25917 0.67144 0.99567 0.0
H259 H 0.36701 0.77775 0.15961 0.0
H260 H 0.38126 0.83864 0.22697 0.0
H261 H 0.2378 0.68392 0.3383 0.0
H262 H 0.18175 0.73987 0.36557 0.0
H263 H 0.3201 0.82597 0.8674 0.0
H264 H 0.24767 0.86363 0.88726 0.0
C265 C 0.50932 0.20898 0.32717 0.0
C266 C 0.54074 0.21591 0.37909 0.0
C267 C 0.56651 0.24778 0.35456 0.0
C268 C 0.54942 0.2584 0.28937 0.0
N269 N 0.51415 0.2355 0.27155 0.0
Co270 Co 0.47919 0.23994 0.18027 0.0
N271 N 0.51764 0.28461 0.1371 0.0
C272 C 0.55277 0.30081 0.1675 0.0
C273 C 0.573 0.32971 0.12149 0.0
C274 C 0.54946 0.33225 0.05799 0.0
C275 C 0.51597 0.30485 0.0695 0.0
N276 N 0.44414 0.24454 0.08934 0.0
C277 C 0.44918 0.26957 0.02878 0.0
C278 C 0.4172 0.26337 0.98082 0.0
C279 C 0.3912 0.23322 0.01115 0.0
C280 C 0.40852 0.22284 0.07613 0.0
N281 N 0.44085 0.19491 0.2225 0.0
C282 C 0.40567 0.1788 0.1934 0.0
C283 C 0.38618 0.14743 0.23286 0.0
C284 C 0.41043 0.14294 0.28971 0.0
C285 C 0.44334 0.17195 0.28144 0.0
N286 N 0.47226 0.26833 0.2624 0.0
C287 C 0.46321 0.3116 0.37117 0.0
C288 C 0.43399 0.28326 0.32395 0.0
C289 C 0.43906 0.26187 0.27115 0.0
C290 C 0.49689 0.31716 0.36563 0.0
C291 C 0.50078 0.29559 0.31094 0.0
N292 N 0.48617 0.21178 0.09852 0.0
C293 C 0.46215 0.16711 0.98491 0.0
C294 C 0.49593 0.17297 0.97882 0.0
C295 C 0.52474 0.19821 0.03434 0.0
C296 C 0.51932 0.21731 0.09306 0.0
C297 C 0.45787 0.18647 0.04512 0.0
H298 H 0.54233 0.23639 0.13328 0.0
H299 H 0.43142 0.18041 0.0476 0.0
H300 H 0.41571 0.24082 0.23688 0.0
H301 H 0.52724 0.30222 0.30745 0.0
C302 C 0.56609 0.28796 0.23857 0.0
C303 C 0.4763 0.17554 0.32779 0.0
C304 C 0.48345 0.30005 0.01599 0.0
C305 C 0.39207 0.19273 0.12554 0.0
H306 H 0.5448 0.19912 0.42769 0.0
H307 H 0.59458 0.26095 0.37899 0.0
H308 H 0.60151 0.34676 0.13246 0.0
H309 H 0.5562 0.35215 0.00886 0.0
H310 H 0.41283 0.27905 0.92958 0.0
H311 H 0.36298 0.22047 0.98877 0.0
H312 H 0.35785 0.12949 0.22006 0.0
H313 H 0.40476 0.12054 0.3313 0.0
H314 H 0.40737 0.27808 0.32637 0.0
H315 H 0.52039 0.33929 0.39989 0.0
H316 H 0.43893 0.14712 0.94451 0.0
H317 H 0.55137 0.20343 0.03199 0.0
C318 C 0.06278 0.47517 0.58723 0.0
C319 C 0.04936 0.42986 0.90067 0.0
C320 C 0.94604 0.42332 0.85211 0.0
Mg321 Mg 0.03052 0.52222 0.48063 0.0
Mg322 Mg 0.02599 0.58103 0.59223 0.0
O323 O 0.00956 0.53255 0.57201 0.0
Mg324 Mg 0.01995 0.50737 0.67111 0.0
O325 O 0.03001 0.47966 0.76526 0.0
Mg326 Mg 0.00168 0.4302 0.71264 0.0
Mg327 Mg 0.02241 0.48423 0.87696 0.0
C328 C 0.97888 0.54452 0.74091 0.0
O329 O 0.06272 0.55905 0.74922 0.0
O330 O 0.99927 0.54521 0.388 0.0
O331 O 0.05108 0.54213 0.88452 0.0
O332 O 0.08042 0.57623 0.49503 0.0
O333 O 0.9996 0.5859 0.47163 0.0
O334 O 0.08266 0.61339 0.5902 0.0
O335 O 0.97695 0.45403 0.6076 0.0
O336 O 0.98264 0.46661 0.46948 0.0
C337 C 0.96815 0.44473 0.52793 0.0
C338 C 0.99026 0.56858 0.40017 0.0
O339 O 0.98132 0.51621 0.7377 0.0
O340 O 0.03329 0.41615 0.82522 0.0
O341 O 0.99731 0.57279 0.70003 0.0
O342 O 0.95519 0.4124 0.79204 0.0
O343 O 0.04807 0.45559 0.93292 0.0
O344 O 0.96725 0.45314 0.89099 0.0
O345 O 0.05732 0.50146 0.59138 0.0
O346 O 0.04653 0.44726 0.63074 0.0
C347 C 0.09723 0.60563 0.53738 0.0
C348 C 0.06662 0.56618 0.83024 0.0
C349 C 0.49563 0.0568 0.43799 0.0
C350 C 0.60317 0.04556 0.37813 0.0
C351 C 0.53684 0.93445 0.46092 0.0
Mg352 Mg 0.44378 0.01718 0.58065 0.0
Mg353 Mg 0.47428 0.99269 0.75969 0.0
O354 O 0.46363 0.98701 0.6395 0.0
Mg355 Mg 0.50443 0.00187 0.57729 0.0
O356 O 0.54357 0.01783 0.509 0.0
Mg357 Mg 0.51548 0.9975 0.39351 0.0
Mg358 Mg 0.57947 0.00672 0.54906 0.0
C359 C 0.51365 0.95038 0.73231 0.0
O360 O 0.54638 0.03909 0.6844 0.0
O361 O 0.39615 0.98249 0.65459 0.0
O362 O 0.59211 0.02979 0.67746 0.0
O363 O 0.46957 0.06026 0.68957 0.0
O364 O 0.42003 0.96805 0.77754 0.0
O365 O 0.50018 0.04738 0.79772 0.0
O366 O 0.46533 0.96618 0.46276 0.0
O367 O 0.42044 0.97588 0.47137 0.0
C368 C 0.43411 0.96111 0.43489 0.0
C369 C 0.39351 0.96673 0.72713 0.0
O370 O 0.5135 0.95743 0.65126 0.0
O371 O 0.57045 0.03257 0.34343 0.0
O372 O 0.50279 0.96366 0.78321 0.0
O373 O 0.52281 0.94922 0.40949 0.0
O374 O 0.61204 0.03801 0.45472 0.0
O375 O 0.55913 0.95089 0.52723 0.0
O376 O 0.49387 0.04548 0.51506 0.0
O377 O 0.50524 0.04416 0.38272 0.0
C378 C 0.4904 0.0686 0.76132 0.0
C379 C 0.57733 0.04363 0.71358 0.0
C380 C 0.54076 0.58173 0.73118 0.0
C381 C 0.44185 0.47567 0.89228 0.0
C382 C 0.48565 0.41612 0.81136 0.0
Mg383 Mg 0.57657 0.57807 0.56497 0.0
Mg384 Mg 0.5247 0.51669 0.41686 0.0
O385 O 0.54522 0.52645 0.53279 0.0
Mg386 Mg 0.51408 0.50958 0.62472 0.0
O387 O 0.4849 0.49514 0.7206 0.0
Mg388 Mg 0.52156 0.50575 0.82373 0.0
Mg389 Mg 0.44508 0.44946 0.71338 0.0
C390 C 0.48275 0.44016 0.49686 0.0
O391 O 0.46605 0.50646 0.53927 0.0
O392 O 0.61188 0.57786 0.46654 0.0
O393 O 0.4208 0.4579 0.5888 0.0
O394 O 0.54855 0.59833 0.45653 0.0
O395 O 0.57394 0.53274 0.3729 0.0
O396 O 0.50841 0.55435 0.36582 0.0
O397 O 0.55945 0.5117 0.72444 0.0
O398 O 0.60378 0.55818 0.67067 0.0
C399 C 0.59264 0.53341 0.72536 0.0
C400 C 0.60532 0.55764 0.40111 0.0
O401 O 0.49315 0.4524 0.57516 0.0
O402 O 0.47594 0.49612 0.90552 0.0
O403 O 0.48849 0.46023 0.43094 0.0
O404 O 0.50639 0.44743 0.84343 0.0
O405 O 0.4257 0.45594 0.82419 0.0
O406 O 0.46143 0.41011 0.74727 0.0
O407 O 0.53588 0.56767 0.65772 0.0
O408 O 0.53571 0.56336 0.7995 0.0
C409 C 0.52467 0.58701 0.38997 0.0
C410 C 0.43303 0.48368 0.53632 0.0
C411 C 0.12424 0.50082 0.41649 0.0
C412 C 0.1354 0.47525 0.42839 0.0
H413 H 0.09281 0.52111 0.45665 0.0
C414 C 0.12279 0.45054 0.49396 0.0
H415 H 0.13294 0.52018 0.36642 0.0
C416 C 0.09948 0.45083 0.54456 0.0
C417 C 0.08813 0.47611 0.5325 0.0
H418 H 0.13129 0.43104 0.50751 0.0
H419 H 0.09059 0.43121 0.59411 0.0
C420 C 0.10103 0.50133 0.4681 0.0
C421 C 0.65125 0.11673 0.21937 0.0
C422 C 0.68559 0.13526 0.26611 0.0
H423 H 0.59805 0.07338 0.2173 0.0
C424 C 0.69307 0.1227 0.34615 0.0
H425 H 0.645 0.1261 0.15734 0.0
C426 C 0.66672 0.09235 0.37954 0.0
C427 C 0.63187 0.07415 0.3346 0.0
H428 H 0.71929 0.13674 0.38353 0.0
H429 H 0.67353 0.084 0.44242 0.0
C430 C 0.62455 0.08648 0.25342 0.0
C431 C 0.53282 0.67452 0.30675 0.0
C432 C 0.52119 0.66682 0.21808 0.0
H433 H 0.54277 0.65534 0.43094 0.0
C434 C 0.50812 0.63197 0.18761 0.0
H435 H 0.54289 0.70115 0.33189 0.0
C436 C 0.50712 0.60548 0.2444 0.0
C437 C 0.51999 0.61342 0.33284 0.0
H438 H 0.4992 0.62539 0.11947 0.0
H439 H 0.49774 0.57917 0.21821 0.0
C440 C 0.53251 0.64822 0.36341 0.0
C441 C 0.91694 0.54929 0.21223 0.0
C442 C 0.90151 0.56778 0.24039 0.0
H443 H 0.95769 0.53504 0.2405 0.0
C444 C 0.9177 0.58918 0.31515 0.0
H445 H 0.90461 0.53246 0.15457 0.0
C446 C 0.94844 0.59178 0.362 0.0
C447 C 0.963 0.57169 0.33756 0.0
H448 H 0.90594 0.60316 0.33889 0.0
H449 H 0.95945 0.60802 0.42061 0.0
C450 C 0.94737 0.55099 0.2609 0.0
C451 C 0.36686 0.86947 0.34974 0.0
C452 C 0.35133 0.87667 0.27171 0.0
H453 H 0.40694 0.89098 0.4607 0.0
C454 C 0.36601 0.9118 0.24334 0.0
H455 H 0.35591 0.84256 0.37288 0.0
C456 C 0.39469 0.9395 0.29435 0.0
C457 C 0.40989 0.9322 0.37261 0.0
H458 H 0.35464 0.91786 0.18296 0.0
H459 H 0.40441 0.96668 0.27397 0.0
C460 C 0.39621 0.89697 0.39923 0.0
C461 C 0.44139 0.35457 0.37077 0.0
C462 C 0.45956 0.33834 0.41614 0.0
H463 H 0.43427 0.39999 0.36215 0.0
C464 C 0.47907 0.35207 0.49799 0.0
H465 H 0.42624 0.34457 0.30748 0.0
C466 C 0.48324 0.38359 0.52998 0.0
C467 C 0.46856 0.40205 0.4795 0.0
H468 H 0.49305 0.33976 0.53444 0.0
H469 H 0.5007 0.39516 0.59002 0.0
C470 C 0.44606 0.38632 0.40194 0.0
C471 C 0.54105 0.89984 0.90137 0.0
C472 C 0.53383 0.86985 0.85459 0.0
H473 H 0.54101 0.94907 0.8988 0.0
C474 C 0.52411 0.8684 0.76456 0.0
H475 H 0.54852 0.90149 0.97071 0.0
C476 C 0.51985 0.89582 0.72268 0.0
C477 C 0.52481 0.92479 0.77064 0.0
H478 H 0.51833 0.84534 0.72736 0.0
H479 H 0.51069 0.8933 0.65397 0.0
C480 C 0.53658 0.92696 0.85997 0.0
C481 C 0.64965 0.52035 0.91468 0.0
C482 C 0.67801 0.52506 0.87448 0.0
H483 H 0.59927 0.51868 0.89799 0.0
C484 C 0.67582 0.528 0.78496 0.0
H485 H 0.65106 0.51803 0.98399 0.0
C486 C 0.64696 0.52897 0.73676 0.0
C487 C 0.61944 0.52643 0.77695 0.0
H488 H 0.69739 0.53149 0.75302 0.0
H489 H 0.64671 0.53293 0.66801 0.0
C490 C 0.62023 0.52073 0.86585 0.0
C491 C 0.1161 0.64489 0.9875 0.0
C492 C 0.14125 0.67048 0.93995 0.0
H493 H 0.07258 0.59215 0.98987 0.0
C494 C 0.13973 0.66305 0.85303 0.0
H495 H 0.11701 0.65003 0.05478 0.0
C496 C 0.11467 0.62958 0.81576 0.0
C497 C 0.0906 0.60312 0.86476 0.0
H498 H 0.15922 0.68244 0.81558 0.0
H499 H 0.11533 0.62396 0.75014 0.0
C500 C 0.09095 0.61164 0.95028 0.0
C501 C 0.48217 0.14512 0.8329 0.0
C502 C 0.50041 0.15147 0.9174 0.0
H503 H 0.46555 0.11459 0.71598 0.0
C504 C 0.52024 0.13456 0.94497 0.0
H505 H 0.46728 0.15841 0.80955 0.0
C506 C 0.5193 0.10937 0.89143 0.0
C507 C 0.49856 0.1008 0.80939 0.0
H508 H 0.53464 0.1391 0.00979 0.0
H509 H 0.53315 0.09521 0.91628 0.0
C510 C 0.48141 0.12017 0.77919 0.0
C511 C 0.36154 0.44224 0.00583 0.0
C512 C 0.36832 0.47276 0.0501 0.0
H513 H 0.37947 0.41929 0.92299 0.0
C514 C 0.4016 0.50381 0.04924 0.0
H515 H 0.33628 0.41795 0.0042 0.0
C516 C 0.42679 0.50455 0.00251 0.0
C517 C 0.419 0.4744 0.95471 0.0
H518 H 0.40796 0.52773 0.08352 0.0
H519 H 0.45155 0.52912 0.00051 0.0
C520 C 0.38637 0.4431 0.95871 0.0
C521 C 0.85858 0.34048 0.87684 0.0
C522 C 0.85511 0.34487 0.96196 0.0
H523 H 0.89 0.36193 0.77489 0.0
C524 C 0.87878 0.37735 0.00595 0.0
H525 H 0.84052 0.31565 0.84164 0.0
C526 C 0.90692 0.40408 0.96762 0.0
C527 C 0.91221 0.39861 0.88492 0.0
H528 H 0.87662 0.38129 0.0717 0.0
H529 H 0.92576 0.42809 0.00503 0.0
C530 C 0.88696 0.36696 0.83886 0.0
C531 C 0.90845 0.51898 0.88531 0.0
C532 C 0.89347 0.54026 0.85301 0.0
H533 H 0.9473 0.50359 0.87565 0.0
C534 C 0.90732 0.56283 0.78466 0.0
H535 H 0.89897 0.50164 0.93874 0.0
C536 C 0.93565 0.56476 0.75097 0.0
C537 C 0.95056 0.54355 0.78295 0.0
H538 H 0.89607 0.57887 0.75598 0.0
H539 H 0.94523 0.5823 0.69783 0.0
C540 C 0.93646 0.52034 0.84996 0.0
C541 C 0.31557 0.8773 0.74128 0.0
C542 C 0.30727 0.8805 0.82163 0.0
H543 H 0.34898 0.90389 0.64504 0.0
C544 C 0.32274 0.91427 0.86131 0.0
H545 H 0.30394 0.85145 0.70995 0.0
C546 C 0.3487 0.94397 0.82512 0.0
C547 C 0.35866 0.94038 0.74761 0.0
H548 H 0.3169 0.9172 0.92384 0.0
H549 H 0.36284 0.96912 0.86075 0.0
C550 C 0.34087 0.90726 0.70386 0.0
C551 C 0.49719 0.36291 0.9989 0.0
C552 C 0.48483 0.3296 0.96054 0.0
H553 H 0.50785 0.41619 0.98152 0.0
C554 C 0.4738 0.32487 0.87089 0.0
H555 H 0.50562 0.36713 0.06787 0.0
C556 C 0.47418 0.35292 0.82092 0.0
C557 C 0.48667 0.38631 0.85979 0.0
H558 H 0.4644 0.29937 0.83997 0.0
H559 H 0.46484 0.34856 0.75233 0.0
C560 C 0.49854 0.39099 0.94912 0.0
C561 C 0.12847 0.41729 0.92938 0.0
C562 C 0.14315 0.43053 0.01386 0.0
H563 H 0.0856 0.40521 0.82715 0.0
C564 C 0.12337 0.43636 0.06589 0.0
H565 H 0.14354 0.41244 0.889 0.0
C566 C 0.09031 0.43203 0.03133 0.0
C567 C 0.07676 0.42194 0.94415 0.0
H568 H 0.1344 0.44621 0.13176 0.0
H569 H 0.07661 0.43917 0.07097 0.0
C570 C 0.09523 0.41276 0.89469 0.0
C571 C 0.65359 0.09748 0.88443 0.0
C572 C 0.65457 0.13045 0.87792 0.0
H573 H 0.62777 0.04363 0.83751 0.0
C574 C 0.62615 0.13237 0.8277 0.0
H575 H 0.67417 0.09456 0.92533 0.0
C576 C 0.59873 0.10263 0.7805 0.0
C577 C 0.59973 0.0708 0.78119 0.0
H578 H 0.62588 0.15719 0.82096 0.0
H579 H 0.57831 0.10543 0.7383 0.0
C580 C 0.62669 0.06808 0.83557 0.0
C581 C 0.5597 0.67658 0.72008 0.0
C582 C 0.53142 0.67339 0.75847 0.0
H583 H 0.58499 0.64929 0.68051 0.0
C584 C 0.50475 0.63946 0.77733 0.0
H585 H 0.58051 0.70245 0.70452 0.0
C586 C 0.50776 0.6098 0.76529 0.0
C587 C 0.53725 0.61331 0.73342 0.0
H588 H 0.48288 0.63592 0.80804 0.0
H589 H 0.48759 0.58413 0.78414 0.0
C590 C 0.56244 0.64646 0.70686 0.0
C591 C 0.48023 0.13522 0.44477 0.0
C592 C 0.47778 0.14326 0.3571 0.0
H593 H 0.48766 0.10111 0.53976 0.0
C594 C 0.47875 0.12157 0.29633 0.0
H595 H 0.47951 0.15186 0.49236 0.0
C596 C 0.48343 0.09285 0.32289 0.0
C597 C 0.48717 0.08522 0.41091 0.0
H598 H 0.47687 0.12749 0.22841 0.0
H599 H 0.48483 0.07706 0.27429 0.0
C600 C 0.4848 0.10626 0.4716 0.0
C601 C 0.36541 0.48872 0.36702 0.0
C602 C 0.35199 0.50401 0.41611 0.0
H603 H 0.40238 0.46996 0.36738 0.0
C604 C 0.36825 0.51634 0.50028 0.0
H605 H 0.35269 0.47874 0.30216 0.0
C606 C 0.39615 0.51111 0.53727 0.0
C607 C 0.40788 0.49352 0.49035 0.0
H608 H 0.3577 0.52754 0.53922 0.0
H609 H 0.40734 0.51908 0.60414 0.0
C610 C 0.3934 0.48345 0.40413 0.0
C611 C 0.92125 0.36023 0.39534 0.0
C612 C 0.88871 0.34221 0.42667 0.0
H613 H 0.97198 0.40722 0.40337 0.0
C614 C 0.88435 0.35585 0.50007 0.0
H615 H 0.92518 0.3505 0.33839 0.0
C616 C 0.91144 0.38831 0.538 0.0
C617 C 0.94263 0.4077 0.50133 0.0
H618 H 0.85942 0.3423 0.52526 0.0
H619 H 0.90704 0.39934 0.59189 0.0
C620 C 0.94786 0.39284 0.4319 0.0
C621 C 0.54907 0.8576 0.41593 0.0
C622 C 0.52081 0.84021 0.34824 0.0
H623 H 0.57648 0.90172 0.50625 0.0
C624 C 0.4939 0.84919 0.33407 0.0
H625 H 0.56966 0.85051 0.43028 0.0
C626 C 0.49756 0.87794 0.37833 0.0
C627 C 0.52829 0.89844 0.43701 0.0
H628 H 0.47165 0.83647 0.28297 0.0
H629 H 0.47766 0.88589 0.36112 0.0
C630 C 0.55287 0.8867 0.46 0.0
C631 C 0.654 0.5365 0.25684 0.0
C632 C 0.68964 0.5604 0.28755 0.0
H633 H 0.59989 0.51739 0.26681 0.0
C634 C 0.69773 0.5854 0.35275 0.0
H635 H 0.64694 0.51747 0.20533 0.0
C636 C 0.67049 0.58539 0.38889 0.0
C637 C 0.63475 0.5607 0.35945 0.0
H638 H 0.72506 0.60425 0.37723 0.0
H639 H 0.67743 0.60422 0.44073 0.0
C640 C 0.62698 0.53671 0.29192 0.0
C641 C 0.17542 0.69352 0.49243 0.0
C642 C 0.1875 0.68287 0.42784 0.0
H643 H 0.13705 0.67735 0.57861 0.0
C644 C 0.17492 0.64642 0.4159 0.0
H645 H 0.18547 0.72143 0.50586 0.0
C646 C 0.14791 0.62133 0.45917 0.0
C647 C 0.1324 0.63198 0.51451 0.0
H648 H 0.18347 0.63693 0.36745 0.0
H649 H 0.13726 0.59346 0.44356 0.0
C650 C 0.14787 0.66829 0.53494 0.0
loop_
_geom_bond_atom_site_label_1
_geom_bond_atom_site_label_2
_geom_bond_distance
_geom_bond_site_symmetry_2
_ccdc_geom_bond_type
C0 C1 1.443 . S
C0 N4 1.376 . S
C0 C38 1.389 . S
C1 C0 1.443 . S
C1 C2 1.340 . S
C1 H41 0.951 . S
C2 C1 1.340 . S
C2 C3 1.439 . S
C2 H42 0.950 . S
C3 C2 1.439 . S
C3 N4 1.374 . S
C3 C37 1.395 . S
N4 C0 1.376 . S
N4 C3 1.374 . S
N4 Co5 2.008 . S
Co5 N4 2.008 . S
Co5 N6 1.995 . S
Co5 N11 2.008 . S
Co5 N16 1.995 . S
Co5 N21 2.282 . S
Co5 N27 2.282 . S
N6 Co5 1.995 . S
N6 C7 1.376 . S
N6 C10 1.383 . S
C7 N6 1.376 . S
C7 C8 1.446 . S
C7 C37 1.391 . S
C8 C7 1.446 . S
C8 C9 1.339 . S
C8 H43 0.949 . S
C9 C8 1.339 . S
C9 C10 1.439 . S
C9 H44 0.950 . S
C10 N6 1.383 . S
C10 C9 1.439 . S
C10 C39 1.392 . S
N11 Co5 2.008 . S
N11 C12 1.376 . S
N11 C15 1.374 . S
C12 N11 1.376 . S
C12 C13 1.443 . S
C12 C39 1.389 . S
C13 C12 1.443 . S
C13 C14 1.340 . S
C13 H45 0.951 . S
C14 C13 1.340 . S
C14 C15 1.439 . S
C14 H46 0.950 . S
C15 N11 1.374 . S
C15 C14 1.439 . S
C15 C40 1.395 . S
N16 Co5 1.995 . S
N16 C17 1.376 . S
N16 C20 1.383 . S
C17 N16 1.376 . S
C17 C18 1.446 . S
C17 C40 1.391 . S
C18 C17 1.446 . S
C18 C19 1.339 . S
C18 H47 0.949 . S
C19 C18 1.339 . S
C19 C20 1.439 . S
C19 H48 0.950 . S
C20 N16 1.383 . S
C20 C19 1.439 . S
C20 C38 1.392 . S
N21 Co5 2.282 . S
N21 C24 1.332 . S
N21 C26 1.332 . S
C22 C23 1.386 . S
C22 C25 1.388 . S
C23 C22 1.386 . S
C23 C24 1.382 . S
C23 H49 0.950 . S
C24 N21 1.332 . S
C24 C23 1.382 . S
C24 H35 0.952 . S
C25 C22 1.388 . S
C25 C26 1.382 . S
C25 H50 0.950 . S
C26 N21 1.332 . S
C26 C25 1.382 . S
C26 H36 0.948 . S
N27 Co5 2.282 . S
N27 C31 1.332 . S
N27 C32 1.332 . S
C28 C29 1.388 . S
C28 C32 1.382 . S
C28 H51 0.950 . S
C29 C28 1.388 . S
C29 C30 1.386 . S
C30 C29 1.386 . S
C30 C31 1.382 . S
C30 H52 0.950 . S
C31 N27 1.332 . S
C31 C30 1.382 . S
C31 H33 0.952 . S
C32 N27 1.332 . S
C32 C28 1.382 . S
C32 H34 0.948 . S
H33 C31 0.952 . S
H34 C32 0.948 . S
H35 C24 0.952 . S
H36 C26 0.948 . S
C37 C3 1.395 . S
C37 C7 1.391 . S
C38 C0 1.389 . S
C38 C20 1.392 . S
C39 C10 1.392 . S
C39 C12 1.389 . S
C40 C15 1.395 . S
C40 C17 1.391 . S
H41 C1 0.951 . S
H42 C2 0.950 . S
H43 C8 0.949 . S
H44 C9 0.950 . S
H45 C13 0.951 . S
H46 C14 0.950 . S
H47 C18 0.949 . S
H48 C19 0.950 . S
H49 C23 0.950 . S
H50 C25 0.950 . S
H51 C28 0.950 . S
H52 C30 0.950 . S
C53 C54 1.443 . S
C53 N57 1.376 . S
C53 C91 1.389 . S
C54 C53 1.443 . S
C54 C55 1.340 . S
C54 H94 0.951 . S
C55 C54 1.340 . S
C55 C56 1.439 . S
C55 H95 0.950 . S
C56 C55 1.439 . S
C56 N57 1.374 . S
C56 C90 1.395 . S
N57 C53 1.376 . S
N57 C56 1.374 . S
N57 Co58 2.008 . S
Co58 N57 2.008 . S
Co58 N59 1.995 . S
Co58 N64 2.008 . S
Co58 N69 1.995 . S
Co58 N74 2.282 . S
Co58 N80 2.282 . S
N59 Co58 1.995 . S
N59 C60 1.376 . S
N59 C63 1.383 . S
C60 N59 1.376 . S
C60 C61 1.446 . S
C60 C90 1.391 . S
C61 C60 1.446 . S
C61 C62 1.339 . S
C61 H96 0.949 . S
C62 C61 1.339 . S
C62 C63 1.439 . S
C62 H97 0.950 . S
C63 N59 1.383 . S
C63 C62 1.439 . S
C63 C92 1.392 . S
N64 Co58 2.008 . S
N64 C65 1.376 . S
N64 C68 1.374 . S
C65 N64 1.376 . S
C65 C66 1.443 . S
C65 C92 1.389 . S
C66 C65 1.443 . S
C66 C67 1.340 . S
C66 H98 0.951 . S
C67 C66 1.340 . S
C67 C68 1.439 . S
C67 H99 0.950 . S
C68 N64 1.374 . S
C68 C67 1.439 . S
C68 C93 1.395 . S
N69 Co58 1.995 . S
N69 C70 1.376 . S
N69 C73 1.383 . S
C70 N69 1.376 . S
C70 C71 1.446 . S
C70 C93 1.391 . S
C71 C70 1.446 . S
C71 C72 1.339 1_554 S
C71 H100 0.949 1_554 S
C72 C71 1.339 1_556 S
C72 C73 1.439 1_556 S
C72 H101 0.950 . S
C73 N69 1.383 . S
C73 C72 1.439 1_554 S
C73 C91 1.392 . S
N74 Co58 2.282 . S
N74 C77 1.332 1_554 S
N74 C79 1.332 . S
C75 C76 1.386 . S
C75 C78 1.388 . S
C76 C75 1.386 . S
C76 C77 1.382 . S
C76 H102 0.950 . S
C77 N74 1.332 1_556 S
C77 C76 1.382 . S
C77 H88 0.952 . S
C78 C75 1.388 . S
C78 C79 1.382 1_556 S
C78 H103 0.950 . S
C79 N74 1.332 . S
C79 C78 1.382 1_554 S
C79 H89 0.948 . S
N80 Co58 2.282 . S
N80 C84 1.332 . S
N80 C85 1.332 . S
C81 C82 1.388 . S
C81 C85 1.382 . S
C81 H104 0.950 . S
C82 C81 1.388 . S
C82 C83 1.386 . S
C83 C82 1.386 . S
C83 C84 1.382 . S
C83 H105 0.950 . S
C84 N80 1.332 . S
C84 C83 1.382 . S
C84 H86 0.952 . S
C85 N80 1.332 . S
C85 C81 1.382 . S
C85 H87 0.948 . S
H86 C84 0.952 . S
H87 C85 0.948 . S
H88 C77 0.952 . S
H89 C79 0.948 . S
C90 C56 1.395 . S
C90 C60 1.391 . S
C91 C53 1.389 . S
C91 C73 1.392 . S
C92 C63 1.392 . S
C92 C65 1.389 . S
C93 C68 1.395 . S
C93 C70 1.391 . S
H94 C54 0.951 . S
H95 C55 0.950 . S
H96 C61 0.949 . S
H97 C62 0.950 . S
H98 C66 0.951 . S
H99 C67 0.950 . S
H100 C71 0.949 1_556 S
H101 C72 0.950 . S
H102 C76 0.950 . S
H103 C78 0.950 . S
H104 C81 0.950 . S
H105 C83 0.950 . S
C106 C107 1.443 . S
C106 N110 1.376 . S
C106 C144 1.389 . S
C107 C106 1.443 . S
C107 C108 1.340 . S
C107 H147 0.951 . S
C108 C107 1.340 . S
C108 C109 1.439 . S
C108 H148 0.950 . S
C109 C108 1.439 . S
C109 N110 1.374 . S
C109 C143 1.395 . S
N110 C106 1.376 . S
N110 C109 1.374 . S
N110 Co111 2.008 . S
Co111 N110 2.008 . S
Co111 N112 1.995 1_554 S
Co111 N117 2.008 1_554 S
Co111 N122 1.995 . S
Co111 N127 2.282 . S
Co111 N133 2.282 1_554 S
N112 Co111 1.995 1_556 S
N112 C113 1.376 . S
N112 C116 1.383 . S
C113 N112 1.376 . S
C113 C114 1.451 . S
C113 C143 1.386 1_556 S
C114 C113 1.451 . S
C114 C115 1.339 . S
C114 H149 0.949 . S
C115 C114 1.339 . S
C115 C116 1.439 . S
C115 H150 0.950 . S
C116 N112 1.383 . S
C116 C115 1.439 . S
C116 C145 1.392 . S
N117 Co111 2.008 1_556 S
N117 C118 1.376 . S
N117 C121 1.374 . S
C118 N117 1.376 . S
C118 C119 1.443 . S
C118 C145 1.389 . S
C119 C118 1.443 . S
C119 C120 1.340 . S
C119 H151 0.951 . S
C120 C119 1.340 . S
C120 C121 1.439 . S
C120 H152 0.950 . S
C121 N117 1.374 . S
C121 C120 1.439 . S
C121 C146 1.395 1_556 S
N122 Co111 1.995 . S
N122 C123 1.376 . S
N122 C126 1.383 . S
C123 N122 1.376 . S
C123 C124 1.446 . S
C123 C146 1.391 . S
C124 C123 1.446 . S
C124 C125 1.339 . S
C124 H153 0.949 . S
C125 C124 1.339 . S
C125 C126 1.439 . S
C125 H154 0.950 . S
C126 N122 1.383 . S
C126 C125 1.439 . S
C126 C144 1.392 . S
N127 Co111 2.282 . S
N127 C130 1.332 . S
N127 C132 1.332 . S
C128 C129 1.386 . S
C128 C131 1.388 . S
C129 C128 1.386 . S
C129 C130 1.382 . S
C129 H155 0.950 . S
C130 N127 1.332 . S
C130 C129 1.382 . S
C130 H141 0.952 . S
C131 C128 1.388 . S
C131 C132 1.382 . S
C131 H156 0.950 . S
C132 N127 1.332 . S
C132 C131 1.382 . S
C132 H142 0.948 . S
N133 Co111 2.282 1_556 S
N133 C137 1.332 . S
N133 C138 1.332 . S
C134 C135 1.388 . S
C134 C138 1.382 . S
C134 H157 0.950 . S
C135 C134 1.388 . S
C135 C136 1.386 . S
C136 C135 1.386 . S
C136 C137 1.382 . S
C136 H158 0.950 . S
C137 N133 1.332 . S
C137 C136 1.382 . S
C137 H139 0.952 . S
C138 N133 1.332 . S
C138 C134 1.382 . S
C138 H140 0.948 . S
H139 C137 0.952 . S
H140 C138 0.948 . S
H141 C130 0.952 . S
H142 C132 0.948 . S
C143 C109 1.395 . S
C143 C113 1.386 1_554 S
C144 C106 1.389 . S
C144 C126 1.392 . S
C145 C116 1.392 . S
C145 C118 1.389 . S
C146 C121 1.395 1_554 S
C146 C123 1.391 . S
H147 C107 0.951 . S
H148 C108 0.950 . S
H149 C114 0.949 . S
H150 C115 0.950 . S
H151 C119 0.951 . S
H152 C120 0.950 . S
H153 C124 0.949 . S
H154 C125 0.950 . S
H155 C129 0.950 . S
H156 C131 0.950 . S
H157 C134 0.950 . S
H158 C136 0.950 . S
C159 C160 1.443 . S
C159 N163 1.376 . S
C159 C197 1.389 . S
C160 C159 1.443 . S
C160 C161 1.340 . S
C160 H200 0.951 . S
C161 C160 1.340 . S
C161 C162 1.439 . S
C161 H201 0.950 . S
C162 C161 1.439 . S
C162 N163 1.374 . S
C162 C196 1.395 . S
N163 C159 1.376 . S
N163 C162 1.374 . S
N163 Co164 2.008 . S
Co164 N163 2.008 . S
Co164 N165 1.995 1_554 S
Co164 N170 2.008 1_554 S
Co164 N175 1.995 . S
Co164 N180 2.282 . S
Co164 N186 2.282 1_554 S
N165 Co164 1.995 1_556 S
N165 C166 1.376 . S
N165 C169 1.383 . S
C166 N165 1.376 . S
C166 C167 1.446 . S
C166 C196 1.391 1_556 S
C167 C166 1.446 . S
C167 C168 1.339 . S
C167 H202 0.949 . S
C168 C167 1.339 . S
C168 C169 1.439 . S
C168 H203 0.950 . S
C169 N165 1.383 . S
C169 C168 1.439 . S
C169 C198 1.392 . S
N170 Co164 2.008 1_556 S
N170 C171 1.376 . S
N170 C174 1.374 . S
C171 N170 1.376 . S
C171 C172 1.443 . S
C171 C198 1.389 . S
C172 C171 1.443 . S
C172 C173 1.340 . S
C172 H204 0.951 . S
C173 C172 1.340 . S
C173 C174 1.439 . S
C173 H205 0.950 . S
C174 N170 1.374 . S
C174 C173 1.439 . S
C174 C199 1.395 1_556 S
N175 Co164 1.995 . S
N175 C176 1.376 . S
N175 C179 1.383 . S
C176 N175 1.376 . S
C176 C177 1.446 . S
C176 C199 1.391 . S
C177 C176 1.446 . S
C177 C178 1.339 . S
C177 H206 0.949 . S
C178 C177 1.339 . S
C178 C179 1.439 . S
C178 H207 0.950 . S
C179 N175 1.383 . S
C179 C178 1.439 . S
C179 C197 1.392 . S
N180 Co164 2.282 . S
N180 C183 1.332 . S
N180 C185 1.332 . S
C181 C182 1.386 . S
C181 C184 1.388 . S
C182 C181 1.386 . S
C182 C183 1.382 . S
C182 H208 0.950 . S
C183 N180 1.332 . S
C183 C182 1.382 . S
C183 H194 0.952 . S
C184 C181 1.388 . S
C184 C185 1.382 . S
C184 H209 0.950 . S
C185 N180 1.332 . S
C185 C184 1.382 . S
C185 H195 0.948 . S
N186 Co164 2.282 1_556 S
N186 C190 1.332 . S
N186 C191 1.332 . S
C187 C188 1.388 . S
C187 C191 1.382 . S
C187 H210 0.950 . S
C188 C187 1.388 . S
C188 C189 1.386 . S
C189 C188 1.386 . S
C189 C190 1.382 . S
C189 H211 0.950 . S
C190 N186 1.332 . S
C190 C189 1.382 . S
C190 H192 0.952 . S
C191 N186 1.332 . S
C191 C187 1.382 . S
C191 H193 0.948 . S
H192 C190 0.952 . S
H193 C191 0.948 . S
H194 C183 0.952 . S
H195 C185 0.948 . S
C196 C162 1.395 . S
C196 C166 1.391 1_554 S
C197 C159 1.389 . S
C197 C179 1.392 . S
C198 C169 1.392 . S
C198 C171 1.389 . S
C199 C174 1.395 1_554 S
C199 C176 1.391 . S
H200 C160 0.951 . S
H201 C161 0.950 . S
H202 C167 0.949 . S
H203 C168 0.950 . S
H204 C172 0.951 . S
H205 C173 0.950 . S
H206 C177 0.949 . S
H207 C178 0.950 . S
H208 C182 0.950 . S
H209 C184 0.950 . S
H210 C187 0.950 . S
H211 C189 0.950 . S
C212 C213 1.443 . S
C212 N216 1.376 . S
C212 C250 1.389 . S
C213 C212 1.443 . S
C213 C214 1.340 . S
C213 H253 0.951 . S
C214 C213 1.340 . S
C214 C215 1.439 . S
C214 H254 0.950 . S
C215 C214 1.439 . S
C215 N216 1.374 . S
C215 C249 1.395 . S
N216 C212 1.376 . S
N216 C215 1.374 . S
N216 Co217 2.008 . S
Co217 N216 2.008 . S
Co217 N218 1.995 . S
Co217 N223 2.008 . S
Co217 N228 1.995 . S
Co217 N233 2.282 . S
Co217 N239 2.282 . S
N218 Co217 1.995 . S
N218 C219 1.376 . S
N218 C222 1.383 1_554 S
C219 N218 1.376 . S
C219 C220 1.446 1_554 S
C219 C249 1.391 . S
C220 C219 1.446 1_556 S
C220 C221 1.339 . S
C220 H255 0.949 . S
C221 C220 1.339 . S
C221 C222 1.439 . S
C221 H256 0.950 . S
C222 N218 1.383 1_556 S
C222 C221 1.439 . S
C222 C251 1.392 . S
N223 Co217 2.008 . S
N223 C224 1.376 . S
N223 C227 1.374 . S
C224 N223 1.376 . S
C224 C225 1.443 . S
C224 C251 1.389 1_554 S
C225 C224 1.443 . S
C225 C226 1.340 . S
C225 H257 0.951 1_554 S
C226 C225 1.340 . S
C226 C227 1.439 . S
C226 H258 0.950 . S
C227 N223 1.374 . S
C227 C226 1.439 . S
C227 C252 1.395 . S
N228 Co217 1.995 . S
N228 C229 1.376 . S
N228 C232 1.383 . S
C229 N228 1.376 . S
C229 C230 1.446 . S
C229 C252 1.391 . S
C230 C229 1.446 . S
C230 C231 1.339 . S
C230 H259 0.949 . S
C231 C230 1.339 . S
C231 C232 1.439 . S
C231 H260 0.950 . S
C232 N228 1.383 . S
C232 C231 1.439 . S
C232 C250 1.392 . S
N233 Co217 2.282 . S
N233 C236 1.332 . S
N233 C238 1.332 . S
C234 C235 1.386 . S
C234 C237 1.388 . S
C235 C234 1.386 . S
C235 C236 1.382 . S
C235 H261 0.950 . S
C236 N233 1.332 . S
C236 C235 1.382 . S
C236 H247 0.952 . S
C237 C234 1.388 . S
C237 C238 1.382 . S
C237 H262 0.950 . S
C238 N233 1.332 . S
C238 C237 1.382 . S
C238 H248 0.948 . S
N239 Co217 2.282 . S
N239 C243 1.332 1_554 S
N239 C244 1.332 . S
C240 C241 1.388 . S
C240 C244 1.382 1_556 S
C240 H263 0.950 . S
C241 C240 1.388 . S
C241 C242 1.386 . S
C242 C241 1.386 . S
C242 C243 1.382 . S
C242 H264 0.950 . S
C243 N239 1.332 1_556 S
C243 C242 1.382 . S
C243 H245 0.952 . S
C244 N239 1.332 . S
C244 C240 1.382 1_554 S
C244 H246 0.948 . S
H245 C243 0.952 . S
H246 C244 0.948 . S
H247 C236 0.952 . S
H248 C238 0.948 . S
C249 C215 1.395 . S
C249 C219 1.391 . S
C250 C212 1.389 . S
C250 C232 1.392 . S
C251 C222 1.392 . S
C251 C224 1.389 1_556 S
C252 C227 1.395 . S
C252 C229 1.391 . S
H253 C213 0.951 . S
H254 C214 0.950 . S
H255 C220 0.949 . S
H256 C221 0.950 . S
H257 C225 0.951 1_556 S
H258 C226 0.950 . S
H259 C230 0.949 . S
H260 C231 0.950 . S
H261 C235 0.950 . S
H262 C237 0.950 . S
H263 C240 0.950 . S
H264 C242 0.950 . S
C265 C266 1.443 . S
C265 N269 1.376 . S
C265 C303 1.389 . S
C266 C265 1.443 . S
C266 C267 1.340 . S
C266 H306 0.951 . S
C267 C266 1.340 . S
C267 C268 1.439 . S
C267 H307 0.950 . S
C268 C267 1.439 . S
C268 N269 1.374 . S
C268 C302 1.395 . S
N269 C265 1.376 . S
N269 C268 1.374 . S
N269 Co270 2.008 . S
Co270 N269 2.008 . S
Co270 N271 1.995 . S
Co270 N276 2.008 . S
Co270 N281 1.995 . S
Co270 N286 2.282 . S
Co270 N292 2.282 . S
N271 Co270 1.995 . S
N271 C272 1.376 . S
N271 C275 1.383 . S
C272 N271 1.376 . S
C272 C273 1.446 . S
C272 C302 1.391 . S
C273 C272 1.446 . S
C273 C274 1.339 . S
C273 H308 0.949 . S
C274 C273 1.339 . S
C274 C275 1.439 . S
C274 H309 0.950 . S
C275 N271 1.383 . S
C275 C274 1.439 . S
C275 C304 1.392 . S
N276 Co270 2.008 . S
N276 C277 1.376 . S
N276 C280 1.374 . S
C277 N276 1.376 . S
C277 C278 1.443 . S
C277 C304 1.389 . S
C278 C277 1.443 . S
C278 C279 1.340 . S
C278 H310 0.951 1_554 S
C279 C278 1.340 . S
C279 C280 1.439 . S
C279 H311 0.950 . S
C280 N276 1.374 . S
C280 C279 1.439 . S
C280 C305 1.395 . S
N281 Co270 1.995 . S
N281 C282 1.376 . S
N281 C285 1.383 . S
C282 N281 1.376 . S
C282 C283 1.446 . S
C282 C305 1.391 . S
C283 C282 1.446 . S
C283 C284 1.339 . S
C283 H312 0.949 . S
C284 C283 1.339 . S
C284 C285 1.439 . S
C284 H313 0.950 . S
C285 N281 1.383 . S
C285 C284 1.439 . S
C285 C303 1.392 . S
N286 Co270 2.282 . S
N286 C289 1.332 . S
N286 C291 1.332 . S
C287 C288 1.386 . S
C287 C290 1.388 . S
C288 C287 1.386 . S
C288 C289 1.382 . S
C288 H314 0.950 . S
C289 N286 1.332 . S
C289 C288 1.382 . S
C289 H300 0.952 . S
C290 C287 1.388 . S
C290 C291 1.382 . S
C290 H315 0.950 . S
C291 N286 1.332 . S
C291 C290 1.382 . S
C291 H301 0.948 . S
N292 Co270 2.282 . S
N292 C296 1.332 . S
N292 C297 1.332 . S
C293 C294 1.388 1_554 S
C293 C297 1.382 . S
C293 H316 0.950 1_554 S
C294 C293 1.388 1_556 S
C294 C295 1.385 1_556 S
C295 C294 1.385 1_554 S
C295 C296 1.386 . S
C295 H317 0.947 1_554 S
C296 N292 1.332 . S
C296 C295 1.386 . S
C296 H298 0.952 . S
C297 N292 1.332 . S
C297 C293 1.382 . S
C297 H299 0.948 . S
H298 C296 0.952 . S
H299 C297 0.948 . S
H300 C289 0.952 . S
H301 C291 0.948 . S
C302 C268 1.395 . S
C302 C272 1.391 . S
C303 C265 1.389 . S
C303 C285 1.392 . S
C304 C275 1.392 . S
C304 C277 1.389 . S
C305 C280 1.395 . S
C305 C282 1.391 . S
H306 C266 0.951 . S
H307 C267 0.950 . S
H308 C273 0.949 . S
H309 C274 0.950 . S
H310 C278 0.951 1_556 S
H311 C279 0.950 . S
H312 C283 0.949 . S
H313 C284 0.950 . S
H314 C288 0.950 . S
H315 C290 0.950 . S
H316 C293 0.950 1_556 S
H317 C295 0.947 1_556 S
C318 O345 1.312 . S
C318 O346 1.208 . S
C319 O340 1.331 . S
C319 O343 1.244 . S
C320 O342 1.264 . S
C320 O344 1.273 . S
Mg321 O323 1.936 1_455 S
Mg321 O330 2.081 1_455 S
Mg321 O332 2.023 . S
Mg321 O336 2.031 1_455 S
Mg321 O345 2.291 . S
Mg322 O323 1.963 . S
Mg322 O333 1.942 . S
Mg322 O334 1.955 1_655 S
Mg322 O341 1.986 . S
O323 Mg321 1.936 1_655 S
O323 Mg322 1.963 . S
O323 Mg324 1.915 1_655 S
Mg324 O323 1.915 1_455 S
Mg324 O325 1.915 . S
Mg324 O329 2.013 . S
Mg324 O335 2.114 1_455 S
Mg324 O339 2.013 1_455 S
Mg324 O345 2.114 . S
O325 Mg324 1.915 . S
O325 Mg326 1.936 . S
O325 Mg327 1.963 . S
Mg326 O325 1.936 . S
Mg326 O335 2.291 1_455 S
Mg326 O340 2.081 . S
Mg326 O342 2.023 1_455 S
Mg326 O346 2.031 . S
Mg327 O325 1.963 . S
Mg327 O331 1.986 . S
Mg327 O343 1.942 . S
Mg327 O344 1.955 1_455 S
C328 O339 1.191 . S
C328 O341 1.307 . S
O329 Mg324 2.013 . S
O329 C348 1.191 . S
O330 Mg321 2.081 1_655 S
O330 C338 1.331 . S
O331 Mg327 1.986 . S
O331 C348 1.307 . S
O332 Mg321 2.023 . S
O332 C347 1.264 . S
O333 Mg322 1.942 . S
O333 C338 1.244 . S
O334 Mg322 1.955 1_455 S
O334 C347 1.273 . S
O335 Mg324 2.114 1_655 S
O335 Mg326 2.291 1_655 S
O335 C337 1.312 . S
O336 Mg321 2.031 1_655 S
O336 C337 1.208 . S
C337 O335 1.312 . S
C337 O336 1.208 . S
C338 O330 1.331 . S
C338 O333 1.244 . S
O339 Mg324 2.013 1_655 S
O339 C328 1.191 . S
O340 C319 1.331 . S
O340 Mg326 2.081 . S
O341 Mg322 1.986 . S
O341 C328 1.307 . S
O342 C320 1.264 . S
O342 Mg326 2.023 1_655 S
O343 C319 1.244 . S
O343 Mg327 1.942 . S
O344 C320 1.273 . S
O344 Mg327 1.955 1_655 S
O345 C318 1.312 . S
O345 Mg321 2.291 . S
O345 Mg324 2.114 . S
O346 C318 1.208 . S
O346 Mg326 2.031 . S
C347 O332 1.264 . S
C347 O334 1.273 . S
C348 O329 1.191 . S
C348 O331 1.307 . S
C349 O376 1.312 . S
C349 O377 1.208 . S
C350 O371 1.331 . S
C350 O374 1.244 . S
C351 O373 1.264 . S
C351 O375 1.273 . S
Mg352 O354 1.936 1_545 S
Mg352 O361 2.081 1_545 S
Mg352 O363 2.023 . S
Mg352 O367 2.031 1_545 S
Mg352 O376 2.291 . S
Mg353 O354 1.963 . S
Mg353 O364 1.942 . S
Mg353 O365 1.955 1_565 S
Mg353 O372 1.986 . S
O354 Mg352 1.936 1_565 S
O354 Mg353 1.963 . S
O354 Mg355 1.915 1_565 S
Mg355 O354 1.915 1_545 S
Mg355 O356 1.915 . S
Mg355 O360 2.013 . S
Mg355 O366 2.114 1_545 S
Mg355 O370 2.013 1_545 S
Mg355 O376 2.114 . S
O356 Mg355 1.915 . S
O356 Mg357 1.936 . S
O356 Mg358 1.963 . S
Mg357 O356 1.936 . S
Mg357 O366 2.291 1_545 S
Mg357 O371 2.081 . S
Mg357 O373 2.023 1_545 S
Mg357 O377 2.031 . S
Mg358 O356 1.963 . S
Mg358 O362 1.986 . S
Mg358 O374 1.942 . S
Mg358 O375 1.955 1_545 S
C359 O370 1.191 . S
C359 O372 1.307 . S
O360 Mg355 2.013 . S
O360 C379 1.191 . S
O361 Mg352 2.081 1_565 S
O361 C369 1.331 . S
O362 Mg358 1.986 . S
O362 C379 1.307 . S
O363 Mg352 2.023 . S
O363 C378 1.264 . S
O364 Mg353 1.942 . S
O364 C369 1.244 . S
O365 Mg353 1.955 1_545 S
O365 C378 1.273 . S
O366 Mg355 2.114 1_565 S
O366 Mg357 2.291 1_565 S
O366 C368 1.312 . S
O367 Mg352 2.031 1_565 S
O367 C368 1.208 . S
C368 O366 1.312 . S
C368 O367 1.208 . S
C369 O361 1.331 . S
C369 O364 1.244 . S
O370 Mg355 2.013 1_565 S
O370 C359 1.191 . S
O371 C350 1.331 . S
O371 Mg357 2.081 . S
O372 Mg353 1.986 . S
O372 C359 1.307 . S
O373 C351 1.264 . S
O373 Mg357 2.023 1_565 S
O374 C350 1.244 . S
O374 Mg358 1.942 . S
O375 C351 1.273 . S
O375 Mg358 1.955 1_565 S
O376 C349 1.312 . S
O376 Mg352 2.291 . S
O376 Mg355 2.114 . S
O377 C349 1.208 . S
O377 Mg357 2.031 . S
C378 O363 1.264 . S
C378 O365 1.273 . S
C379 O360 1.191 . S
C379 O362 1.307 . S
C380 O407 1.312 . S
C380 O408 1.208 . S
C381 O402 1.331 . S
C381 O405 1.244 . S
C382 O404 1.264 . S
C382 O406 1.273 . S
Mg383 O385 1.936 . S
Mg383 O392 2.081 . S
Mg383 O394 2.023 . S
Mg383 O398 2.031 . S
Mg383 O407 2.291 . S
Mg384 O385 1.963 . S
Mg384 O395 1.942 . S
Mg384 O396 1.955 . S
Mg384 O403 1.986 . S
O385 Mg383 1.936 . S
O385 Mg384 1.963 . S
O385 Mg386 1.915 . S
Mg386 O385 1.915 . S
Mg386 O387 1.915 . S
Mg386 O391 2.013 . S
Mg386 O397 2.114 . S
Mg386 O401 2.013 . S
Mg386 O407 2.114 . S
O387 Mg386 1.915 . S
O387 Mg388 1.936 . S
O387 Mg389 1.963 . S
Mg388 O387 1.936 . S
Mg388 O397 2.291 . S
Mg388 O402 2.081 . S
Mg388 O404 2.023 . S
Mg388 O408 2.031 . S
Mg389 O387 1.963 . S
Mg389 O393 1.986 . S
Mg389 O405 1.942 . S
Mg389 O406 1.955 . S
C390 O401 1.191 . S
C390 O403 1.307 . S
O391 Mg386 2.013 . S
O391 C410 1.191 . S
O392 Mg383 2.081 . S
O392 C400 1.331 . S
O393 Mg389 1.986 . S
O393 C410 1.307 . S
O394 Mg383 2.023 . S
O394 C409 1.264 . S
O395 Mg384 1.942 . S
O395 C400 1.244 . S
O396 Mg384 1.955 . S
O396 C409 1.273 . S
O397 Mg386 2.114 . S
O397 Mg388 2.291 . S
O397 C399 1.312 . S
O398 Mg383 2.031 . S
O398 C399 1.208 . S
C399 O397 1.312 . S
C399 O398 1.208 . S
C400 O392 1.331 . S
C400 O395 1.244 . S
O401 Mg386 2.013 . S
O401 C390 1.191 . S
O402 C381 1.331 . S
O402 Mg388 2.081 . S
O403 Mg384 1.986 . S
O403 C390 1.307 . S
O404 C382 1.264 . S
O404 Mg388 2.023 . S
O405 C381 1.244 . S
O405 Mg389 1.942 . S
O406 C382 1.273 . S
O406 Mg389 1.955 . S
O407 C380 1.312 . S
O407 Mg383 2.291 . S
O407 Mg386 2.114 . S
O408 C380 1.208 . S
O408 Mg388 2.031 . S
C409 O394 1.264 . S
C409 O396 1.273 . S
C410 O391 1.191 . S
C410 O393 1.307 . S
C411 C412 1.387 . S
C411 H415 0.950 . S
C411 C420 1.390 . S
C412 C411 1.387 . S
C412 C414 1.387 . S
H413 C420 0.950 . S
C414 C412 1.387 . S
C414 C416 1.390 . S
C414 H418 0.950 . S
H415 C411 0.950 . S
C416 C414 1.390 . S
C416 C417 1.387 . S
C416 H419 0.950 . S
C417 C416 1.387 . S
C417 C420 1.387 . S
H418 C414 0.950 . S
H419 C416 0.950 . S
C420 C411 1.390 . S
C420 H413 0.950 . S
C420 C417 1.387 . S
C421 C422 1.387 . S
C421 H425 0.950 . S
C421 C430 1.390 . S
C422 C421 1.387 . S
C422 C424 1.387 . S
H423 C430 0.950 . S
C424 C422 1.387 . S
C424 C426 1.390 . S
C424 H428 0.950 . S
H425 C421 0.950 . S
C426 C424 1.390 . S
C426 C427 1.387 . S
C426 H429 0.950 . S
C427 C426 1.387 . S
C427 C430 1.387 . S
H428 C424 0.950 . S
H429 C426 0.950 . S
C430 C421 1.390 . S
C430 H423 0.950 . S
C430 C427 1.387 . S
C431 C432 1.387 . S
C431 H435 0.950 . S
C431 C440 1.390 . S
C432 C431 1.387 . S
C432 C434 1.387 . S
H433 C440 0.950 . S
C434 C432 1.387 . S
C434 C436 1.390 . S
C434 H438 0.950 . S
H435 C431 0.950 . S
C436 C434 1.390 . S
C436 C437 1.387 . S
C436 H439 0.950 . S
C437 C436 1.387 . S
C437 C440 1.387 . S
H438 C434 0.950 . S
H439 C436 0.950 . S
C440 C431 1.390 . S
C440 H433 0.950 . S
C440 C437 1.387 . S
C441 C442 1.387 . S
C441 H445 0.950 . S
C441 C450 1.390 . S
C442 C441 1.387 . S
C442 C444 1.387 . S
H443 C450 0.950 . S
C444 C442 1.387 . S
C444 C446 1.390 . S
C444 H448 0.950 . S
H445 C441 0.950 . S
C446 C444 1.390 . S
C446 C447 1.387 . S
C446 H449 0.950 . S
C447 C446 1.387 . S
C447 C450 1.387 . S
H448 C444 0.950 . S
H449 C446 0.950 . S
C450 C441 1.390 . S
C450 H443 0.950 . S
C450 C447 1.387 . S
C451 C452 1.387 . S
C451 H455 0.950 . S
C451 C460 1.390 . S
C452 C451 1.387 . S
C452 C454 1.387 . S
H453 C460 0.950 . S
C454 C452 1.387 . S
C454 C456 1.390 . S
C454 H458 0.950 . S
H455 C451 0.950 . S
C456 C454 1.390 . S
C456 C457 1.387 . S
C456 H459 0.950 . S
C457 C456 1.387 . S
C457 C460 1.387 . S
H458 C454 0.950 . S
H459 C456 0.950 . S
C460 C451 1.390 . S
C460 H453 0.950 . S
C460 C457 1.387 . S
C461 C462 1.387 . S
C461 H465 0.950 . S
C461 C470 1.390 . S
C462 C461 1.387 . S
C462 C464 1.387 . S
H463 C470 0.950 . S
C464 C462 1.387 . S
C464 C466 1.390 . S
C464 H468 0.950 . S
H465 C461 0.950 . S
C466 C464 1.390 . S
C466 C467 1.387 . S
C466 H469 0.950 . S
C467 C466 1.387 . S
C467 C470 1.387 . S
H468 C464 0.950 . S
H469 C466 0.950 . S
C470 C461 1.390 . S
C470 H463 0.950 . S
C470 C467 1.387 . S
C471 C472 1.387 . S
C471 H475 0.950 . S
C471 C480 1.390 . S
C472 C471 1.387 . S
C472 C474 1.387 . S
H473 C480 0.950 . S
C474 C472 1.387 . S
C474 C476 1.390 . S
C474 H478 0.950 . S
H475 C471 0.950 . S
C476 C474 1.390 . S
C476 C477 1.387 . S
C476 H479 0.950 . S
C477 C476 1.387 . S
C477 C480 1.387 . S
H478 C474 0.950 . S
H479 C476 0.950 . S
C480 C471 1.390 . S
C480 H473 0.950 . S
C480 C477 1.387 . S
C481 C482 1.387 . S
C481 H485 0.950 . S
C481 C490 1.390 . S
C482 C481 1.387 . S
C482 C484 1.387 . S
H483 C490 0.950 . S
C484 C482 1.387 . S
C484 C486 1.390 . S
C484 H488 0.950 . S
H485 C481 0.950 . S
C486 C484 1.390 . S
C486 C487 1.387 . S
C486 H489 0.950 . S
C487 C486 1.387 . S
C487 C490 1.387 . S
H488 C484 0.950 . S
H489 C486 0.950 . S
C490 C481 1.390 . S
C490 H483 0.950 . S
C490 C487 1.387 . S
C491 C492 1.387 . S
C491 H495 0.950 1_556 S
C491 C500 1.390 . S
C492 C491 1.387 . S
C492 C494 1.387 . S
H493 C500 0.950 . S
C494 C492 1.387 . S
C494 C496 1.390 . S
C494 H498 0.950 . S
H495 C491 0.950 1_554 S
C496 C494 1.390 . S
C496 C497 1.387 . S
C496 H499 0.950 . S
C497 C496 1.387 . S
C497 C500 1.387 . S
H498 C494 0.950 . S
H499 C496 0.950 . S
C500 C491 1.390 . S
C500 H493 0.950 . S
C500 C497 1.387 . S
C501 C502 1.387 . S
C501 H505 0.950 . S
C501 C510 1.390 . S
C502 C501 1.387 . S
C502 C504 1.387 . S
H503 C510 0.950 . S
C504 C502 1.387 . S
C504 C506 1.390 . S
C504 H508 0.950 . S
H505 C501 0.950 . S
C506 C504 1.390 . S
C506 C507 1.387 . S
C506 H509 0.950 . S
C507 C506 1.387 . S
C507 C510 1.387 . S
H508 C504 0.950 . S
H509 C506 0.950 . S
C510 C501 1.390 . S
C510 H503 0.950 . S
C510 C507 1.387 . S
C511 C512 1.387 1_556 S
C511 H515 0.950 . S
C511 C520 1.390 . S
C512 C511 1.387 1_554 S
C512 C514 1.387 . S
H513 C520 0.950 . S
C514 C512 1.387 . S
C514 C516 1.390 1_554 S
C514 H518 0.950 . S
H515 C511 0.950 . S
C516 C514 1.390 1_556 S
C516 C517 1.387 . S
C516 H519 0.950 . S
C517 C516 1.387 . S
C517 C520 1.387 . S
H518 C514 0.950 . S
H519 C516 0.950 . S
C520 C511 1.390 . S
C520 H513 0.950 . S
C520 C517 1.387 . S
C521 C522 1.387 . S
C521 H525 0.950 . S
C521 C530 1.390 . S
C522 C521 1.387 . S
C522 C524 1.387 1_556 S
H523 C530 0.950 . S
C524 C522 1.387 1_554 S
C524 C526 1.390 1_554 S
C524 H528 0.950 . S
H525 C521 0.950 . S
C526 C524 1.390 1_556 S
C526 C527 1.387 . S
C526 H529 0.950 . S
C527 C526 1.387 . S
C527 C530 1.387 . S
H528 C524 0.950 . S
H529 C526 0.950 . S
C530 C521 1.390 . S
C530 H523 0.950 . S
C530 C527 1.387 . S
C531 C532 1.387 . S
C531 H535 0.950 . S
C531 C540 1.390 . S
C532 C531 1.387 . S
C532 C534 1.387 . S
H533 C540 0.950 . S
C534 C532 1.387 . S
C534 C536 1.390 . S
C534 H538 0.950 . S
H535 C531 0.950 . S
C536 C534 1.390 . S
C536 C537 1.387 . S
C536 H539 0.950 . S
C537 C536 1.387 . S
C537 C540 1.387 . S
H538 C534 0.950 . S
H539 C536 0.950 . S
C540 C531 1.390 . S
C540 H533 0.950 . S
C540 C537 1.387 . S
C541 C542 1.387 . S
C541 H545 0.950 . S
C541 C550 1.390 . S
C542 C541 1.387 . S
C542 C544 1.387 . S
H543 C550 0.950 . S
C544 C542 1.387 . S
C544 C546 1.390 . S
C544 H548 0.950 . S
H545 C541 0.950 . S
C546 C544 1.390 . S
C546 C547 1.387 . S
C546 H549 0.950 . S
C547 C546 1.387 . S
C547 C550 1.387 . S
H548 C544 0.950 . S
H549 C546 0.950 . S
C550 C541 1.390 . S
C550 H543 0.950 . S
C550 C547 1.387 . S
C551 C552 1.387 . S
C551 H555 0.950 1_556 S
C551 C560 1.390 . S
C552 C551 1.387 . S
C552 C554 1.387 . S
H553 C560 0.950 . S
C554 C552 1.387 . S
C554 C556 1.390 . S
C554 H558 0.950 . S
H555 C551 0.950 1_554 S
C556 C554 1.390 . S
C556 C557 1.387 . S
C556 H559 0.950 . S
C557 C556 1.387 . S
C557 C560 1.387 . S
H558 C554 0.950 . S
H559 C556 0.950 . S
C560 C551 1.390 . S
C560 H553 0.950 . S
C560 C557 1.387 . S
C561 C562 1.387 . S
C561 H565 0.950 . S
C561 C570 1.390 1_554 S
C562 C561 1.387 . S
C562 C564 1.387 . S
H563 C570 0.950 . S
C564 C562 1.387 . S
C564 C566 1.390 1_554 S
C564 H568 0.950 . S
H565 C561 0.950 . S
C566 C564 1.390 1_556 S
C566 C567 1.387 . S
C566 H569 0.950 . S
C567 C566 1.387 . S
C567 C570 1.387 . S
H568 C564 0.950 . S
H569 C566 0.950 . S
C570 C561 1.390 1_556 S
C570 H563 0.950 . S
C570 C567 1.387 . S
C571 C572 1.387 . S
C571 H575 0.950 . S
C571 C580 1.390 . S
C572 C571 1.387 . S
C572 C574 1.387 . S
H573 C580 0.950 . S
C574 C572 1.387 . S
C574 C576 1.390 . S
C574 H578 0.950 . S
H575 C571 0.950 . S
C576 C574 1.390 . S
C576 C577 1.387 . S
C576 H579 0.950 . S
C577 C576 1.387 . S
C577 C580 1.387 . S
H578 C574 0.950 . S
H579 C576 0.950 . S
C580 C571 1.390 . S
C580 H573 0.950 . S
C580 C577 1.387 . S
C581 C582 1.387 . S
C581 H585 0.950 . S
C581 C590 1.390 . S
C582 C581 1.387 . S
C582 C584 1.387 . S
H583 C590 0.950 . S
C584 C582 1.387 . S
C584 C586 1.390 . S
C584 H588 0.950 . S
H585 C581 0.950 . S
C586 C584 1.390 . S
C586 C587 1.387 . S
C586 H589 0.950 . S
C587 C586 1.387 . S
C587 C590 1.387 . S
H588 C584 0.950 . S
H589 C586 0.950 . S
C590 C581 1.390 . S
C590 H583 0.950 . S
C590 C587 1.387 . S
C591 C592 1.387 . S
C591 H595 0.950 . S
C591 C600 1.390 . S
C592 C591 1.387 . S
C592 C594 1.387 . S
H593 C600 0.950 . S
C594 C592 1.387 . S
C594 C596 1.390 . S
C594 H598 0.950 . S
H595 C591 0.950 . S
C596 C594 1.390 . S
C596 C597 1.387 . S
C596 H599 0.950 . S
C597 C596 1.387 . S
C597 C600 1.387 . S
H598 C594 0.950 . S
H599 C596 0.950 . S
C600 C591 1.390 . S
C600 H593 0.950 . S
C600 C597 1.387 . S
C601 C602 1.387 . S
C601 H605 0.950 . S
C601 C610 1.390 . S
C602 C601 1.387 . S
C602 C604 1.387 . S
H603 C610 0.950 . S
C604 C602 1.387 . S
C604 C606 1.390 . S
C604 H608 0.950 . S
H605 C601 0.950 . S
C606 C604 1.390 . S
C606 C607 1.387 . S
C606 H609 0.950 . S
C607 C606 1.387 . S
C607 C610 1.387 . S
H608 C604 0.950 . S
H609 C606 0.950 . S
C610 C601 1.390 . S
C610 H603 0.950 . S
C610 C607 1.387 . S
C611 C612 1.387 . S
C611 H615 0.950 . S
C611 C620 1.390 . S
C612 C611 1.387 . S
C612 C614 1.387 . S
H613 C620 0.950 . S
C614 C612 1.387 . S
C614 C616 1.390 . S
C614 H618 0.950 . S
H615 C611 0.950 . S
C616 C614 1.390 . S
C616 C617 1.387 . S
C616 H619 0.950 . S
C617 C616 1.387 . S
C617 C620 1.387 . S
H618 C614 0.950 . S
H619 C616 0.950 . S
C620 C611 1.390 . S
C620 H613 0.950 . S
C620 C617 1.387 . S
C621 C622 1.387 . S
C621 H625 0.950 . S
C621 C630 1.390 . S
C622 C621 1.387 . S
C622 C624 1.387 . S
H623 C630 0.950 . S
C624 C622 1.387 . S
C624 C626 1.390 . S
C624 H628 0.950 . S
H625 C621 0.950 . S
C626 C624 1.390 . S
C626 C627 1.387 . S
C626 H629 0.950 . S
C627 C626 1.387 . S
C627 C630 1.387 . S
H628 C624 0.950 . S
H629 C626 0.950 . S
C630 C621 1.390 . S
C630 H623 0.950 . S
C630 C627 1.387 . S
C631 C632 1.387 . S
C631 H635 0.950 . S
C631 C640 1.390 . S
C632 C631 1.387 . S
C632 C634 1.387 . S
H633 C640 0.950 . S
C634 C632 1.387 . S
C634 C636 1.390 . S
C634 H638 0.950 . S
H635 C631 0.950 . S
C636 C634 1.390 . S
C636 C637 1.387 . S
C636 H639 0.950 . S
C637 C636 1.387 . S
C637 C640 1.387 . S
H638 C634 0.950 . S
H639 C636 0.950 . S
C640 C631 1.390 . S
C640 H633 0.950 . S
C640 C637 1.387 . S
C641 C642 1.387 . S
C641 H645 0.950 . S
C641 C650 1.390 . S
C642 C641 1.387 . S
C642 C644 1.387 . S
H643 C650 0.950 . S
C644 C642 1.387 . S
C644 C646 1.390 . S
C644 H648 0.950 . S
H645 C641 0.950 . S
C646 C644 1.390 . S
C646 C647 1.387 . S
C646 H649 0.950 . S
C647 C646 1.387 . S
C647 C650 1.387 . S
H648 C644 0.950 . S
H649 C646 0.950 . S
C650 C641 1.390 . S
C650 H643 0.950 . S
C650 C647 1.387 . S
C412 C22 1.836 . S
C417 C318 1.732 . S
C422 C92 1.761 . S
C427 C350 1.723 . S
C437 C409 1.934 . S
C432 C144 2.001 . S
C447 C338 1.528 . S
C442 C197 1.566 . S
C452 C250 1.940 . S
C457 C368 1.831 . S
C467 C390 1.383 . S
C462 C287 1.386 . S
C477 C359 1.875 . S
C472 C145 1.893 . S
C482 C198 1.558 . S
C487 C399 1.468 . S
C497 C348 1.880 . S
C492 C251 1.894 . S
C502 C294 1.497 . S
C507 C378 1.447 . S
C512 C29 1.739 . S
C517 C381 1.695 . S
C527 C320 1.819 . S
C522 C91 1.838 1_556 S
C537 C328 1.535 . S
C532 C188 1.595 . S
C547 C369 1.244 . S
C542 C241 1.278 . S
C557 C382 1.777 . S
C552 C304 1.828 1_556 S
C567 C319 1.381 . S
C562 C39 1.404 . S
C577 C379 1.394 . S
C572 C75 1.443 . S
C582 C135 1.237 . S
C587 C380 1.215 . S
C597 C349 1.648 . S
C592 C303 1.688 . S
C607 C410 1.267 . S
C602 C38 1.316 . S
C617 C337 1.391 . S
C612 C82 1.476 . S
C627 C351 1.319 . S
C622 C128 1.357 . S
C632 C181 1.591 . S
C637 C400 1.549 . S
C642 C234 1.380 . S
C647 C347 1.349 . S
