# Generated by pormake.
# Topology wbl, (4,4)-cn, num edge types: 1
# Building blocks:
#     Node 0, Type 0, BuildingBlock: MUDLON_clean_sbu_0, # of connection points: 4
#     Node 1, Type 0, BuildingBlock: MUDLON_clean_sbu_0, # of connection points: 4
#     Node 2, Type 0, BuildingBlock: MUDLON_clean_sbu_0, # of connection points: 4
#     Node 3, Type 0, BuildingBlock: MUDLON_clean_sbu_0, # of connection points: 4
#     Node 4, Type 0, BuildingBlock: MUDLON_clean_sbu_0, # of connection points: 4
#     Node 5, Type 0, BuildingBlock: MUDLON_clean_sbu_0, # of connection points: 4
#     Node 6, Type 0, BuildingBlock: MUDLON_clean_sbu_0, # of connection points: 4
#     Node 7, Type 0, BuildingBlock: MUDLON_clean_sbu_0, # of connection points: 4
#     Node 8, Type 1, BuildingBlock: NAHDIM_clean_sbu_0, # of connection points: 4
#     Node 9, Type 1, BuildingBlock: NAHDIM_clean_sbu_0, # of connection points: 4
#     Node 10, Type 1, BuildingBlock: NAHDIM_clean_sbu_0, # of connection points: 4
#     Node 11, Type 1, BuildingBlock: NAHDIM_clean_sbu_0, # of connection points: 4
#     Node 12, Type 1, BuildingBlock: NAHDIM_clean_sbu_0, # of connection points: 4
#     Node 13, Type 1, BuildingBlock: NAHDIM_clean_sbu_0, # of connection points: 4
#     Node 14, Type 1, BuildingBlock: NAHDIM_clean_sbu_0, # of connection points: 4
#     Node 15, Type 1, BuildingBlock: NAHDIM_clean_sbu_0, # of connection points: 4
#     Edge 16, Type (0, 1), BuildingBlock: EZIPEK_clean_linker_0, # of connection points: 2
#     Edge 17, Type (0, 1), BuildingBlock: EZIPEK_clean_linker_0, # of connection points: 2
#     Edge 18, Type (0, 1), BuildingBlock: EZIPEK_clean_linker_0, # of connection points: 2
#     Edge 19, Type (0, 1), BuildingBlock: EZIPEK_clean_linker_0, # of connection points: 2
#     Edge 20, Type (0, 1), BuildingBlock: EZIPEK_clean_linker_0, # of connection points: 2
#     Edge 21, Type (0, 1), BuildingBlock: EZIPEK_clean_linker_0, # of connection points: 2
#     Edge 22, Type (0, 1), BuildingBlock: EZIPEK_clean_linker_0, # of connection points: 2
#     Edge 23, Type (0, 1), BuildingBlock: EZIPEK_clean_linker_0, # of connection points: 2
#     Edge 24, Type (0, 1), BuildingBlock: EZIPEK_clean_linker_0, # of connection points: 2
#     Edge 25, Type (0, 1), BuildingBlock: EZIPEK_clean_linker_0, # of connection points: 2
#     Edge 26, Type (0, 1), BuildingBlock: EZIPEK_clean_linker_0, # of connection points: 2
#     Edge 27, Type (0, 1), BuildingBlock: EZIPEK_clean_linker_0, # of connection points: 2
#     Edge 28, Type (0, 1), BuildingBlock: EZIPEK_clean_linker_0, # of connection points: 2
#     Edge 29, Type (0, 1), BuildingBlock: EZIPEK_clean_linker_0, # of connection points: 2
#     Edge 30, Type (0, 1), BuildingBlock: EZIPEK_clean_linker_0, # of connection points: 2
#     Edge 31, Type (0, 1), BuildingBlock: EZIPEK_clean_linker_0, # of connection points: 2
#     Edge 32, Type (0, 1), BuildingBlock: EZIPEK_clean_linker_0, # of connection points: 2
#     Edge 33, Type (0, 1), BuildingBlock: EZIPEK_clean_linker_0, # of connection points: 2
#     Edge 34, Type (0, 1), BuildingBlock: EZIPEK_clean_linker_0, # of connection points: 2
#     Edge 35, Type (0, 1), BuildingBlock: EZIPEK_clean_linker_0, # of connection points: 2
#     Edge 36, Type (0, 1), BuildingBlock: EZIPEK_clean_linker_0, # of connection points: 2
#     Edge 37, Type (0, 1), BuildingBlock: EZIPEK_clean_linker_0, # of connection points: 2
#     Edge 38, Type (0, 1), BuildingBlock: EZIPEK_clean_linker_0, # of connection points: 2
#     Edge 39, Type (0, 1), BuildingBlock: EZIPEK_clean_linker_0, # of connection points: 2
#     Edge 40, Type (0, 1), BuildingBlock: EZIPEK_clean_linker_0, # of connection points: 2
#     Edge 41, Type (0, 1), BuildingBlock: EZIPEK_clean_linker_0, # of connection points: 2
#     Edge 42, Type (0, 1), BuildingBlock: EZIPEK_clean_linker_0, # of connection points: 2
#     Edge 43, Type (0, 1), BuildingBlock: EZIPEK_clean_linker_0, # of connection points: 2
#     Edge 44, Type (0, 1), BuildingBlock: EZIPEK_clean_linker_0, # of connection points: 2
#     Edge 45, Type (0, 1), BuildingBlock: EZIPEK_clean_linker_0, # of connection points: 2
#     Edge 46, Type (0, 1), BuildingBlock: EZIPEK_clean_linker_0, # of connection points: 2
#     Edge 47, Type (0, 1), BuildingBlock: EZIPEK_clean_linker_0, # of connection points: 2
# Relax obj value: 0.234
# Max RMSD: 0.230
# Mean RMSD: 0.183
data_MOF--net-wbl--node1-MUDLON_clean_sbu_0--node2-NAHDIM_clean_sbu_0--edge1-EZIPEK_clean_linker_0
_symmetry_space_group_name_H-M    P1
_symmetry_Int_Tables_number       1
_symmetry_cell_setting            triclinic
loop_
_symmetry_equiv_pos_as_xyz
'x, y, z'
_cell_length_a     27.184558
_cell_length_b     25.990579
_cell_length_c     55.796459
_cell_angle_alpha  89.881843
_cell_angle_beta   89.992606
_cell_angle_gamma 90.314077
loop_
_atom_site_label
_atom_site_type_symbol
_atom_site_fract_x
_atom_site_fract_y
_atom_site_fract_z
_atom_type_partial_charge
Mg0 Mg 0.00241 0.02339 0.33991 0.0
C1 C 0.97796 0.92479 0.37035 0.0
O2 O 0.93354 0.92449 0.3611 0.0
C3 C 0.89776 0.03942 0.32365 0.0
O4 O 0.8933 0.05391 0.34607 0.0
C5 C 0.07549 0.97946 0.30742 0.0
O6 O 0.04206 0.9429 0.30879 0.0
O7 O 0.06886 0.02139 0.31863 0.0
O8 O 0.00964 0.95773 0.36351 0.0
O9 O -0.00286 0.08915 0.36401 0.0
C10 C 0.97447 0.07934 0.38346 0.0
O11 O 0.95839 0.03248 0.38743 0.0
O12 O 0.93888 0.02272 0.31623 0.0
Mg13 Mg 0.00101 0.51038 0.59492 0.0
C14 C 0.08753 0.48118 0.62924 0.0
O15 O 0.07851 0.43241 0.62486 0.0
C16 C 0.96154 0.44466 0.55613 0.0
O17 O 0.94395 0.49001 0.55033 0.0
C18 C 0.04563 0.58964 0.56407 0.0
O19 O 0.08223 0.55772 0.56761 0.0
O20 O 0.00368 0.57935 0.57302 0.0
O21 O 0.0648 0.51608 0.61789 0.0
O22 O 0.94329 0.50798 0.62166 0.0
C23 C 0.94402 0.46492 0.6325 0.0
O24 O 0.9729 0.42854 0.62442 0.0
O25 O 0.99121 0.44122 0.57366 0.0
Mg26 Mg 0.4905 0.49258 0.84354 0.0
C27 C 0.39939 0.47893 0.87311 0.0
O28 O 0.3855 0.51514 0.85815 0.0
C29 C 0.57199 0.45445 0.81471 0.0
O30 O 0.5859 0.50117 0.82063 0.0
C31 C 0.46073 0.57111 0.80366 0.0
O32 O 0.50643 0.56984 0.79605 0.0
O33 O 0.44812 0.54639 0.82233 0.0
O34 O 0.43993 0.45667 0.86886 0.0
O35 O 0.5458 0.52241 0.86807 0.0
C36 C 0.53081 0.52844 0.88945 0.0
O37 O 0.48519 0.54281 0.89293 0.0
O38 O 0.52978 0.43831 0.82115 0.0
Mg39 Mg 0.50134 0.99328 0.06983 0.0
C40 C 0.56945 0.95427 0.11064 0.0
O41 O 0.56003 0.90716 0.10346 0.0
C42 C 0.45541 0.91194 0.03708 0.0
O43 O 0.42943 0.95182 0.03025 0.0
C44 C 0.56255 0.07464 0.04504 0.0
O45 O 0.59713 0.04289 0.05203 0.0
O46 O 0.51761 0.06225 0.04835 0.0
O47 O 0.55634 0.99231 0.09785 0.0
O48 O 0.44048 0.00533 0.09449 0.0
C49 C 0.43407 0.96621 0.10788 0.0
O50 O 0.45473 0.92263 0.10178 0.0
O51 O 0.48993 0.91842 0.05222 0.0
Mg52 Mg 0.01108 0.50313 0.91056 0.0
C53 C 0.00243 0.56033 0.86359 0.0
O54 O 0.96854 0.52535 0.85955 0.0
C55 C 0.94776 0.4698 0.95003 0.0
O56 O 0.99019 0.4486 0.95522 0.0
C57 C 0.06989 0.54678 0.95016 0.0
O58 O 0.02937 0.57385 0.95175 0.0
O59 O 0.07308 0.51138 0.93455 0.0
O60 O 0.02031 0.56495 0.88453 0.0
O61 O 0.00896 0.433 0.88926 0.0
C62 C 0.96581 0.42138 0.8822 0.0
O63 O 0.92839 0.44754 0.89056 0.0
O64 O 0.9451 0.50014 0.93216 0.0
Mg65 Mg 0.51186 0.49928 0.17697 0.0
C66 C 0.44142 0.45547 0.13741 0.0
O67 O 0.45004 0.40864 0.14517 0.0
C68 C 0.56834 0.42092 0.20431 0.0
O69 O 0.60071 0.45853 0.20282 0.0
C70 C 0.44892 0.58235 0.19604 0.0
O71 O 0.41717 0.55652 0.18299 0.0
O72 O 0.49271 0.56596 0.1982 0.0
O73 O 0.45799 0.49414 0.14872 0.0
O74 O 0.57411 0.51363 0.15385 0.0
C75 C 0.5806 0.47416 0.14089 0.0
O76 O 0.55636 0.43177 0.14604 0.0
O77 O 0.52524 0.4277 0.19606 0.0
Mg78 Mg 0.48095 0.003 0.41058 0.0
C79 C 0.51207 0.05365 0.36834 0.0
O80 O 0.54892 0.02616 0.37645 0.0
C81 C 0.37411 0.01193 0.42713 0.0
O82 O 0.37209 0.04846 0.41087 0.0
C83 C 0.55821 0.06986 0.4332 0.0
O84 O 0.53288 0.10501 0.42171 0.0
O85 O 0.54469 0.02298 0.43222 0.0
O86 O 0.47372 0.05753 0.38121 0.0
O87 O 0.49089 0.93381 0.38944 0.0
C88 C 0.45305 0.92986 0.37621 0.0
O89 O 0.41629 0.96135 0.37982 0.0
O90 O 0.41463 0.98961 0.4314 0.0
Mg91 Mg 0.97392 0.98167 0.66158 0.0
C92 C 0.04391 0.02207 0.6217 0.0
O93 O 0.03768 0.06869 0.63016 0.0
C94 C 0.96463 0.05374 0.70414 0.0
O95 O 0.97306 0.01169 0.71654 0.0
C96 C 0.03831 0.91637 0.69027 0.0
O97 O 0.06808 0.9524 0.68216 0.0
O98 O 0.99295 0.91791 0.68472 0.0
O99 O 0.02736 0.98341 0.63313 0.0
O100 O 0.90986 0.97493 0.63876 0.0
C101 C 0.90481 0.01786 0.62807 0.0
O102 O 0.93036 0.05765 0.63557 0.0
O103 O 0.96617 0.05244 0.68142 0.0
C104 C 0.25375 0.57776 -0.00219 0.0
O105 O 0.27595 0.53299 -0.00155 0.0
O106 O 0.35327 0.56152 0.04001 0.0
Zn107 Zn 0.34943 0.60386 0.00997 0.0
O108 O 0.37152 0.55833 0.98257 0.0
C109 C 0.37004 0.7144 0.01143 0.0
O110 O 0.32384 0.71723 0.00472 0.0
O111 O 0.27769 0.61779 0.00385 0.0
C112 C 0.36492 0.57214 0.96096 0.0
O113 O 0.34893 0.61884 0.9566 0.0
C114 C 0.39492 0.54771 0.04792 0.0
O115 O 0.43491 0.56114 0.03619 0.0
O116 O 0.38961 0.67036 0.01419 0.0
C117 C 0.2577 0.93027 0.25962 0.0
O118 O 0.28889 0.96714 0.25402 0.0
O119 O 0.34903 0.91634 0.21515 0.0
Zn120 Zn 0.33853 0.87132 0.24436 0.0
O121 O 0.38289 0.88635 0.27269 0.0
C122 C 0.39236 0.78159 0.23202 0.0
O123 O 0.42881 0.81224 0.23808 0.0
O124 O 0.26984 0.88357 0.25645 0.0
C125 C 0.38719 0.85064 0.28822 0.0
O126 O 0.36762 0.80537 0.28392 0.0
C127 C 0.3907 0.92543 0.2057 0.0
O128 O 0.43094 0.91137 0.21687 0.0
O129 O 0.34835 0.79775 0.23342 0.0
C130 C 0.19987 0.93286 0.47408 0.0
O131 O 0.16367 0.96518 0.4777 0.0
O132 O 0.12047 0.91815 0.52221 0.0
Zn133 Zn 0.12858 0.8697 0.4944 0.0
O134 O 0.07873 0.88047 0.4682 0.0
C135 C 0.08295 0.78502 0.51754 0.0
O136 O 0.04763 0.81912 0.51894 0.0
O137 O 0.19465 0.88589 0.48005 0.0
C138 C 0.06892 0.84381 0.45387 0.0
O139 O 0.08781 0.79811 0.45766 0.0
C140 C 0.08037 0.93821 0.52899 0.0
O141 O 0.04013 0.93068 0.51641 0.0
O142 O 0.12307 0.79699 0.50712 0.0
C143 C 0.27767 0.62416 0.76189 0.0
O144 O 0.25284 0.58076 0.76059 0.0
O145 O 0.17742 0.59887 0.72456 0.0
Zn146 Zn 0.18467 0.65812 0.74795 0.0
O147 O 0.14726 0.64052 0.77803 0.0
C148 C 0.1308 0.75472 0.74509 0.0
O149 O 0.12459 0.74863 0.76826 0.0
O150 O 0.25641 0.66607 0.75655 0.0
C151 C 0.10168 0.62941 0.77763 0.0
O152 O 0.07786 0.62934 0.75715 0.0
C153 C 0.15756 0.60538 0.70418 0.0
O154 O 0.14355 0.65157 0.69766 0.0
O155 O 0.15639 0.72264 0.73336 0.0
C156 C 0.73924 0.12141 0.48179 0.0
O157 O 0.76889 0.08233 0.48512 0.0
O158 O 0.82242 0.11695 0.52883 0.0
Zn159 Zn 0.82104 0.16864 0.50204 0.0
O160 O 0.86822 0.1498 0.4757 0.0
C161 C 0.88373 0.25937 0.51204 0.0
O162 O 0.83911 0.24442 0.51735 0.0
O163 O 0.75297 0.1663 0.48799 0.0
C164 C 0.88049 0.18248 0.45974 0.0
O165 O 0.86448 0.22995 0.4612 0.0
C166 C 0.8626 0.1048 0.53882 0.0
O167 O 0.9042 0.12358 0.5305 0.0
O168 O 0.84047 0.24207 0.51647 0.0
C169 C 0.74268 0.37223 0.77101 0.0
O170 O 0.7712 0.41173 0.76595 0.0
O171 O 0.83809 0.37033 0.72872 0.0
Zn172 Zn 0.82979 0.32426 0.75755 0.0
O173 O 0.87179 0.34785 0.78536 0.0
C174 C 0.89598 0.24421 0.74548 0.0
O175 O 0.92768 0.27978 0.75196 0.0
O176 O 0.75903 0.32693 0.76817 0.0
C177 C 0.88369 0.31658 0.80192 0.0
O178 O 0.87037 0.26805 0.80037 0.0
C179 C 0.87918 0.39099 0.72356 0.0
O180 O 0.91624 0.38666 0.7385 0.0
O181 O 0.85016 0.25331 0.74699 0.0
C182 C 0.77143 0.4117 0.00192 0.0
O183 O 0.75555 0.44118 0.01933 0.0
O184 O 0.66924 0.40785 0.03753 0.0
Zn185 Zn 0.67368 0.37486 0.00518 0.0
O186 O 0.64218 0.4221 0.98126 0.0
C187 C 0.64741 0.27386 0.02373 0.0
O188 O 0.67611 0.28914 0.04126 0.0
O189 O 0.74418 0.37531 0.99426 0.0
C190 C 0.60112 0.41408 0.97121 0.0
O191 O 0.57514 0.37312 0.97696 0.0
C192 C 0.62789 0.41437 0.04751 0.0
O193 O 0.58765 0.39963 0.03637 0.0
O194 O 0.6412 0.30327 0.0057 0.0
C195 C 0.72585 0.06849 0.26419 0.0
O196 O 0.69194 0.03259 0.2662 0.0
O197 O 0.64228 0.06038 0.21128 0.0
Zn198 Zn 0.64919 0.1139 0.23716 0.0
O199 O 0.60058 0.1083 0.26422 0.0
C200 C 0.63139 0.22103 0.23817 0.0
O201 O 0.63621 0.21245 0.26126 0.0
O202 O 0.71705 0.10817 0.25154 0.0
C203 C 0.58004 0.06915 0.27349 0.0
O204 O 0.58568 0.02363 0.26373 0.0
C205 C 0.60198 0.05135 0.20057 0.0
O206 O 0.56171 0.07461 0.20757 0.0
O207 O 0.63799 0.18442 0.22344 0.0
C208 C 0.15797 0.93748 0.30726 0.0
C209 C 0.12287 0.96888 0.29549 0.0
C210 C 0.17472 0.9721 0.25956 0.0
C211 C 0.21107 0.94323 0.27184 0.0
N212 N 0.24233 0.90818 0.30885 0.0
N213 N 0.09988 0.02245 0.26208 0.0
C214 C 0.20404 0.92838 0.29609 0.0
C215 C 0.13197 0.9883 0.27214 0.0
N216 N 0.14718 0.91612 0.32908 0.0
N217 N 0.18022 0.98222 0.23564 0.0
H218 H 0.06747 0.03384 0.27052 0.0
H219 H 0.10694 0.04235 0.24623 0.0
H220 H 0.21095 0.97075 0.22585 0.0
H221 H 0.15282 -0.00169 0.22502 0.0
H222 H 0.16858 0.88784 0.33714 0.0
H223 H 0.11506 0.92421 0.33855 0.0
H224 H 0.24119 0.90167 0.32726 0.0
H225 H 0.27711 0.90245 0.30148 0.0
C226 C 0.03149 0.65082 0.52987 0.0
C227 C 0.05499 0.63946 0.55193 0.0
C228 C 0.10221 0.72007 0.54942 0.0
C229 C 0.07564 0.73354 0.52845 0.0
N230 N 0.0121 0.71456 0.49952 0.0
N231 N 0.10615 0.66647 0.58497 0.0
C232 C 0.03929 0.69976 0.51895 0.0
C233 C 0.08883 0.67481 0.56227 0.0
N234 N 0.00342 0.61398 0.51886 0.0
N235 N 0.14014 0.75056 0.55716 0.0
H236 H 0.09645 0.63438 0.59522 0.0
H237 H 0.12648 0.69345 0.5946 0.0
H238 H 0.14979 0.78526 0.54901 0.0
H239 H 0.16455 0.73971 0.57061 0.0
H240 H 0.98966 0.61758 0.50153 0.0
H241 H -0.0031 0.57775 0.52633 0.0
H242 H 0.98102 0.69481 0.49358 0.0
H243 H 0.01902 0.74834 0.48995 0.0
C244 C 0.40782 0.57679 0.76674 0.0
C245 C 0.42145 0.5964 0.78956 0.0
C246 C 0.34378 0.64361 0.79214 0.0
C247 C 0.32973 0.62294 0.76963 0.0
N248 N 0.35325 0.58336 0.73246 0.0
N249 N 0.4097 0.65909 0.82065 0.0
C250 C 0.36359 0.59411 0.7559 0.0
C251 C 0.39177 0.63359 0.80109 0.0
N252 N 0.43495 0.53891 0.7562 0.0
N253 N 0.31038 0.66986 0.80567 0.0
H254 H 0.44497 0.65258 0.82737 0.0
H255 H 0.39182 0.6899 0.82869 0.0
H256 H 0.27505 0.6785 0.79968 0.0
H257 H 0.31652 0.68032 0.82343 0.0
H258 H 0.42331 0.51868 0.74112 0.0
H259 H 0.46766 0.52499 0.76335 0.0
H260 H 0.37841 0.56668 0.72078 0.0
H261 H 0.32114 0.59594 0.72408 0.0
C262 C 0.39406 0.84075 0.04368 0.0
C263 C 0.43689 0.85911 0.03174 0.0
C264 C 0.43815 0.78075 0.00702 0.0
C265 C 0.396 0.76205 0.01942 0.0
N266 N 0.34175 0.76783 0.05345 0.0
N267 N 0.50487 0.84353 0.00514 0.0
C268 C 0.37625 0.79026 0.03888 0.0
C269 C 0.46071 0.82795 0.01444 0.0
N270 N 0.36979 0.87193 0.05939 0.0
N271 N 0.45519 0.75464 0.9875 0.0
H272 H 0.52147 0.87844 0.00971 0.0
H273 H 0.52674 0.82048 0.9943 0.0
H274 H 0.43991 0.71987 0.98177 0.0
H275 H 0.48227 0.76883 0.97603 0.0
H276 H 0.33505 0.86347 0.06626 0.0
H277 H 0.38286 0.90809 0.06444 0.0
H278 H 0.32969 0.78407 0.06944 0.0
H279 H 0.32867 0.73043 0.05088 0.0
C280 C 0.12565 0.53038 0.98502 0.0
C281 C 0.11308 0.56074 0.96486 0.0
C282 C 0.18883 0.61146 0.96933 0.0
C283 C 0.20215 0.57992 0.98918 0.0
N284 N 0.17674 0.52151 0.02039 0.0
N285 N 0.12553 0.63752 0.94123 0.0
C286 C 0.16836 0.54315 -0.00158 0.0
C287 C 0.14221 0.60395 0.95827 0.0
N288 N 0.09732 0.48874 0.99107 0.0
N289 N 0.22171 0.64598 0.95989 0.0
H290 H 0.09282 0.63195 0.9318 0.0
H291 H 0.14205 0.67297 0.9377 0.0
H292 H 0.25586 0.65404 0.9674 0.0
H293 H 0.21673 0.66438 0.94349 0.0
H294 H 0.10774 0.46143 0.00374 0.0
H295 H 0.06439 0.47986 0.98241 0.0
H296 H 0.15155 0.4978 0.02918 0.0
H297 H 0.2069 0.53173 0.03098 0.0
C298 C 0.45327 0.67845 0.1946 0.0
C299 C 0.43476 0.63307 0.20566 0.0
C300 C 0.38648 0.68484 0.23376 0.0
C301 C 0.4035 0.73018 0.22208 0.0
N302 N 0.44372 0.77016 0.18825 0.0
N303 N 0.37885 0.59177 0.23329 0.0
C304 C 0.43446 0.727 0.20166 0.0
C305 C 0.39971 0.63591 0.22445 0.0
N306 N 0.4887 0.6752 0.17726 0.0
N307 N 0.35951 0.68844 0.25436 0.0
H308 H 0.38985 0.5551 0.22804 0.0
H309 H 0.34867 0.59132 0.24478 0.0
H310 H 0.34751 0.72326 0.26134 0.0
H311 H 0.35144 0.65724 0.26543 0.0
H312 H 0.50808 0.70692 0.17073 0.0
H313 H 0.50121 0.64042 0.17034 0.0
H314 H 0.46164 0.7697 0.17177 0.0
H315 H 0.42923 0.80615 0.19238 0.0
C316 C 0.29298 0.9654 0.42559 0.0
C317 C 0.32871 0.99316 0.43907 0.0
C318 C 0.2794 0.9817 0.47559 0.0
C319 C 0.24541 0.95136 0.46238 0.0
N320 N 0.22143 0.909 0.42581 0.0
N321 N 0.35906 0.0243 0.47701 0.0
C322 C 0.25274 0.94159 0.43766 0.0
C323 C 0.32284 0.00022 0.46414 0.0
N324 N 0.29709 0.96241 0.4012 0.0
N325 N 0.26957 0.99355 0.49898 0.0
H326 H 0.38982 0.04142 0.46907 0.0
H327 H 0.36014 0.02526 0.49564 0.0
H328 H 0.23947 0.97851 0.5083 0.0
H329 H 0.28951 0.02038 0.50888 0.0
H330 H 0.26968 0.94791 0.39004 0.0
H331 H 0.32662 0.97773 0.39166 0.0
H332 H 0.2277 0.89521 0.40859 0.0
H333 H 0.19036 0.89267 0.43378 0.0
C334 C 0.05267 0.82244 0.69843 0.0
C335 C 0.05823 0.87459 0.70547 0.0
C336 C 0.1129 0.84838 0.73822 0.0
C337 C 0.10447 0.79611 0.73219 0.0
N338 N 0.05615 0.73319 0.71063 0.0
N339 N 0.08431 0.93624 0.73524 0.0
C340 C 0.07129 0.78304 0.71349 0.0
C341 C 0.0856 0.8873 0.72633 0.0
N342 N 0.03195 0.81044 0.67681 0.0
N343 N 0.14845 0.8611 0.75453 0.0
H344 H 0.06385 0.96556 0.72734 0.0
H345 H 0.09945 0.94648 0.75171 0.0
H346 H 0.16964 0.83377 0.76345 0.0
H347 H 0.15993 0.8988 0.75764 0.0
H348 H 0.03206 0.77339 0.66971 0.0
H349 H 0.01882 0.83803 0.66487 0.0
H350 H 0.02828 0.72234 0.69883 0.0
H351 H 0.06768 0.70341 0.72181 0.0
C352 C 0.61752 0.43284 0.77722 0.0
C353 C 0.60681 0.42144 0.80152 0.0
C354 C 0.68094 0.36863 0.80455 0.0
C355 C 0.69265 0.38159 0.78046 0.0
N356 N 0.66676 0.41382 0.74204 0.0
N357 N 0.61994 0.36846 0.83635 0.0
C358 C 0.65904 0.40978 0.76619 0.0
C359 C 0.6356 0.38555 0.81445 0.0
N360 N 0.5888 0.46706 0.76502 0.0
N361 N 0.71456 0.34348 0.81847 0.0
H362 H 0.58719 0.38073 0.84412 0.0
H363 H 0.63681 0.33881 0.84579 0.0
H364 H 0.74809 0.33025 0.81194 0.0
H365 H 0.71085 0.33858 0.8369 0.0
H366 H 0.59782 0.48211 0.74828 0.0
H367 H 0.55646 0.48206 0.7722 0.0
H368 H 0.64166 0.43006 0.73019 0.0
H369 H 0.6966 0.3966 0.73351 0.0
C370 C 0.60411 0.13438 0.01572 0.0
C371 C 0.57681 0.12752 0.0372 0.0
C372 C 0.58593 0.21971 0.04596 0.0
C373 C 0.61912 0.22489 0.02646 0.0
N374 N 0.66243 0.18682 0.9933 0.0
N375 N 0.54615 0.16252 0.07437 0.0
C376 C 0.62845 0.18229 0.01125 0.0
C377 C 0.56834 0.17001 0.05263 0.0
N378 N 0.60614 0.09516 -0.00052 0.0
N379 N 0.57048 0.2626 0.05789 0.0
H380 H 0.53268 0.12696 0.08011 0.0
H381 H 0.54454 0.1907 0.08759 0.0
H382 H 0.5823 0.29962 0.05338 0.0
H383 H 0.54244 0.2621 0.07061 0.0
H384 H 0.62131 0.099 0.98244 0.0
H385 H 0.58862 0.05983 0.0023 0.0
H386 H 0.67522 0.15579 0.98336 0.0
H387 H 0.68044 0.22131 0.98931 0.0
C388 C 0.8377 0.0065 0.29278 0.0
C389 C 0.85653 0.04772 0.30671 0.0
C390 C 0.78958 0.10307 0.29287 0.0
C391 C 0.77278 0.06312 0.27753 0.0
N392 N 0.78867 0.98158 0.25844 0.0
N393 N 0.85886 0.1391 0.31429 0.0
C394 C 0.79922 0.0162 0.27614 0.0
C395 C 0.83501 0.0972 0.30504 0.0
N396 N 0.85487 0.95769 0.29613 0.0
N397 N 0.76129 0.14549 0.29695 0.0
H398 H 0.89353 0.13677 0.32217 0.0
H399 H 0.84696 0.17672 0.31161 0.0
H400 H 0.72709 0.15133 0.28903 0.0
H401 H 0.76967 0.17264 0.31007 0.0
H402 H 0.83868 0.92542 0.2883 0.0
H403 H 0.88244 0.94873 0.30841 0.0
H404 H 0.80986 0.94904 0.2552 0.0
H405 H 0.76201 0.98818 0.24536 0.0
C406 C 0.97457 0.36041 0.53465 0.0
C407 C 0.9421 0.39768 0.54424 0.0
C408 C 0.87213 0.35077 0.52721 0.0
C409 C 0.90336 0.309 0.52143 0.0
N410 N 0.98501 0.27282 0.52074 0.0
N411 N 0.8586 0.42104 0.55447 0.0
C412 C 0.95488 0.31359 0.52536 0.0
C413 C 0.89046 0.39083 0.54191 0.0
N414 N 0.02391 0.37048 0.5335 0.0
N415 N 0.82619 0.35432 0.51747 0.0
H416 H 0.87017 0.44892 0.56667 0.0
H417 H 0.82078 0.41411 0.55483 0.0
H418 H 0.81352 0.32934 0.50422 0.0
H419 H 0.80378 0.38632 0.51991 0.0
H420 H 0.04871 0.34708 0.52446 0.0
H421 H 0.03955 0.40475 0.53961 0.0
H422 H 0.02178 0.27171 0.52595 0.0
H423 H 0.97252 0.23854 0.51311 0.0
C424 C 0.64415 0.10524 0.43277 0.0
C425 C 0.60392 0.08457 0.44596 0.0
C426 C 0.65237 0.08898 0.48298 0.0
C427 C 0.69129 0.11265 0.47 0.0
N428 N 0.72223 0.15077 0.43353 0.0
N429 N 0.56611 0.06449 0.48395 0.0
C430 C 0.68637 0.12342 0.44521 0.0
C431 C 0.60702 0.07847 0.47119 0.0
N432 N 0.64318 0.10464 0.40827 0.0
N433 N 0.65907 0.0759 0.5065 0.0
H434 H 0.53225 0.05662 0.47592 0.0
H435 H 0.56446 0.06468 0.50259 0.0
H436 H 0.69077 0.08551 0.51608 0.0
H437 H 0.63453 0.05302 0.51617 0.0
H438 H 0.67325 0.11414 0.39756 0.0
H439 H 0.61367 0.08984 0.39853 0.0
H440 H 0.71839 0.16478 0.41614 0.0
H441 H 0.75454 0.16304 0.44186 0.0
C442 C 0.90912 0.10123 0.7326 0.0
C443 C 0.94909 0.10176 0.71616 0.0
C444 C 0.94967 0.19586 0.71685 0.0
C445 C 0.91393 0.19508 0.73542 0.0
N446 N 0.86792 0.14596 0.76473 0.0
N447 N 0.01471 0.14939 0.69698 0.0
C448 C 0.89606 0.14745 0.74444 0.0
C449 C 0.97162 0.14905 0.7096 0.0
N450 N 0.88163 0.0576 0.73594 0.0
N451 N 0.9609 0.24075 0.70521 0.0
H452 H 0.0329 0.1158 0.69203 0.0
H453 H 0.03499 0.18283 0.69372 0.0
H454 H 0.94384 0.27563 0.70899 0.0
H455 H 0.9831 0.24223 0.68999 0.0
H456 H 0.84915 0.05703 0.74586 0.0
H457 H 0.88797 0.02337 0.72679 0.0
H458 H 0.85829 0.11173 0.77334 0.0
H459 H 0.85844 0.17877 0.77435 0.0
C460 C 0.8927 0.40203 0.96828 0.0
C461 C 0.90298 0.45487 0.96359 0.0
C462 C 0.82362 0.47786 0.98098 0.0
C463 C 0.81682 0.4262 0.98879 0.0
N464 N 0.85011 0.34094 0.99376 0.0
N465 N 0.88271 0.54399 0.97064 0.0
C466 C 0.85289 0.38874 0.98359 0.0
C467 C 0.86978 0.49313 0.97145 0.0
N468 N 0.91903 0.36428 0.95718 0.0
N469 N 0.7854 0.51181 0.98134 0.0
H470 H 0.91704 0.55683 0.96472 0.0
H471 H 0.86139 0.57281 0.97831 0.0
H472 H 0.74983 0.50157 0.98653 0.0
H473 H 0.78765 0.54842 0.97373 0.0
H474 H 0.90954 0.32544 0.95823 0.0
H475 H 0.94677 0.37182 0.94477 0.0
H476 H 0.87824 0.31401 0.99241 0.0
H477 H 0.8221 0.33005 0.00553 0.0
C478 C 0.62492 0.34498 0.20213 0.0
C479 C 0.58387 0.36944 0.21293 0.0
C480 C 0.57063 0.29353 0.23828 0.0
C481 C 0.61515 0.27211 0.22954 0.0
N482 N 0.68961 0.28208 0.2064 0.0
N483 N 0.52255 0.37067 0.24419 0.0
C484 C 0.64372 0.29913 0.21237 0.0
C485 C 0.55799 0.34473 0.23182 0.0
N486 N 0.64454 0.36405 0.18138 0.0
N487 N 0.53925 0.26428 0.25185 0.0
H488 H 0.51268 0.40846 0.24022 0.0
H489 H 0.50624 0.35644 0.25976 0.0
H490 H 0.54623 0.22606 0.25636 0.0
H491 H 0.50404 0.2762 0.25659 0.0
H492 H 0.67109 0.34479 0.17141 0.0
H493 H 0.63052 0.39626 0.17272 0.0
H494 H 0.71405 0.30337 0.1959 0.0
H495 H 0.70518 0.24911 0.21382 0.0
C496 C 0.0348 0.86124 0.38819 0.0
C497 C 0.99165 0.89095 0.39063 0.0
C498 C 0.99211 0.87484 0.43396 0.0
C499 C 0.04007 0.85417 0.43189 0.0
N500 N 0.10946 0.83133 0.40695 0.0
N501 N 0.92906 0.92785 0.41603 0.0
C502 C 0.06181 0.84735 0.40895 0.0
C503 C 0.96958 0.89746 0.41351 0.0
N504 N 0.05006 0.84685 0.36586 0.0
N505 N 0.96799 0.87231 0.45543 0.0
H506 H 0.91027 0.94375 0.40158 0.0
H507 H 0.9156 0.93971 0.43259 0.0
H508 H 0.98345 0.8555 0.47066 0.0
H509 H 0.93119 0.88224 0.45757 0.0
H510 H 0.07885 0.82135 0.36289 0.0
H511 H 0.03052 0.85646 0.35038 0.0
H512 H 0.12889 0.83181 0.39086 0.0
H513 H 0.13131 0.82162 0.42159 0.0
C514 C 0.09697 0.49181 0.67366 0.0
C515 C 0.11691 0.49757 0.65024 0.0
C516 C 0.17369 0.56425 0.6645 0.0
C517 C 0.15067 0.56194 0.68732 0.0
N518 N 0.10042 0.51526 0.71574 0.0
N519 N 0.18179 0.52756 0.62458 0.0
C520 C 0.11604 0.52247 0.69267 0.0
C521 C 0.15809 0.52991 0.64616 0.0
N522 N 0.05734 0.46008 0.67731 0.0
N523 N 0.20948 0.60034 0.66032 0.0
H524 H 0.17095 0.50197 0.61115 0.0
H525 H 0.21407 0.54744 0.62057 0.0
H526 H 0.2241 0.62335 0.67391 0.0
H527 H 0.22406 0.60849 0.64349 0.0
H528 H 0.03691 0.45896 0.69306 0.0
H529 H 0.0431 0.43595 0.66413 0.0
H530 H 0.07921 0.484 0.72129 0.0
H531 H 0.11172 0.53835 0.72996 0.0
C532 C 0.40997 0.46836 0.91768 0.0
C533 C 0.37887 0.47951 0.89802 0.0
C534 C 0.32709 0.53033 0.92476 0.0
C535 C 0.36713 0.53386 0.94112 0.0
N536 N 0.44614 0.50146 0.95416 0.0
N537 N 0.29918 0.5069 0.88482 0.0
C538 C 0.40804 0.50057 0.93823 0.0
C539 C 0.33419 0.50556 0.90234 0.0
N540 N 0.44046 0.42692 0.91676 0.0
N541 N 0.28203 0.54875 0.93114 0.0
H542 H 0.30182 0.48412 0.86948 0.0
H543 H 0.26838 0.53049 0.88532 0.0
H544 H 0.27526 0.56331 0.94817 0.0
H545 H 0.25041 0.54458 0.92081 0.0
H546 H 0.46185 0.41486 0.93118 0.0
H547 H 0.43894 0.40068 0.90264 0.0
H548 H 0.47781 0.47976 0.95193 0.0
H549 H 0.4479 0.52629 0.96875 0.0
C550 C 0.37498 0.93315 0.13792 0.0
C551 C 0.41171 0.9697 0.13209 0.0
C552 C 0.42285 0.98792 0.17496 0.0
C553 C 0.39371 0.94404 0.18056 0.0
N554 N 0.34672 0.87032 0.16672 0.0
N555 N 0.47192 0.03255 0.14512 0.0
C556 C 0.37024 0.91585 0.16193 0.0
C557 C 0.43533 -0.00178 0.1506 0.0
N558 N 0.34493 0.91471 0.12029 0.0
N559 N 0.43847 0.01968 0.19295 0.0
H560 H 0.4816 0.04235 0.12765 0.0
H561 H 0.49471 0.04939 0.15792 0.0
H562 H 0.42985 0.01308 0.21093 0.0
H563 H 0.45599 0.05482 0.18994 0.0
H564 H 0.31468 0.89097 0.12363 0.0
H565 H 0.34715 0.92833 0.10272 0.0
H566 H 0.33391 0.84573 0.15336 0.0
H567 H 0.34414 0.85425 0.18379 0.0
C568 C 0.07506 0.55939 0.83607 0.0
C569 C 0.02957 0.58187 0.84284 0.0
C570 C 0.03378 0.63937 0.80797 0.0
C571 C 0.0765 0.6132 0.79999 0.0
N572 N 0.13151 0.54103 0.80374 0.0
N573 N 0.96236 0.63893 0.83412 0.0
C574 C 0.09568 0.57146 0.81338 0.0
C575 C 0.00789 0.62056 0.82841 0.0
N576 N 0.09865 0.52615 0.85118 0.0
N577 N 0.01906 0.68334 0.79661 0.0
H578 H 0.94352 0.62785 0.8496 0.0
H579 H 0.94202 0.66264 0.82283 0.0
H580 H 0.03729 0.69862 0.78175 0.0
H581 H 0.99138 0.70711 0.80307 0.0
H582 H 0.13465 0.51397 0.84843 0.0
H583 H 0.08405 0.51345 0.86741 0.0
H584 H 0.14289 0.50658 0.81147 0.0
H585 H 0.14637 0.54703 0.78673 0.0
C586 C 0.44193 0.449 0.0923 0.0
C587 C 0.41874 0.46566 0.11375 0.0
C588 C 0.3758 0.53325 0.09165 0.0
C589 C 0.39871 0.51662 0.07015 0.0
N590 N 0.44079 0.44916 0.04887 0.0
N591 N 0.35245 0.51146 0.13237 0.0
C592 C 0.42758 0.47128 0.07011 0.0
C593 C 0.38156 0.50349 0.11279 0.0
N594 N 0.47997 0.41488 0.09308 0.0
N595 N 0.35183 0.57933 0.09251 0.0
H596 H 0.35597 0.48963 0.14801 0.0
H597 H 0.3219 0.53549 0.13217 0.0
H598 H 0.3486 0.60398 0.07787 0.0
H599 H 0.33923 0.59556 0.10841 0.0
H600 H 0.50223 0.40699 0.07835 0.0
H601 H 0.49174 0.39687 0.1087 0.0
H602 H 0.45807 0.41355 0.04777 0.0
H603 H 0.42981 0.46372 0.03229 0.0
C604 C 0.47688 0.90147 0.33489 0.0
C605 C 0.44896 0.89338 0.35604 0.0
C606 C 0.38409 0.85058 0.33327 0.0
C607 C 0.41054 0.86087 0.31173 0.0
N608 N 0.48743 0.88267 0.29257 0.0
N609 N 0.38654 0.84539 0.37668 0.0
C610 C 0.45879 0.88203 0.31272 0.0
C611 C 0.4063 0.86235 0.35556 0.0
N612 N 0.51923 0.92984 0.33581 0.0
N613 N 0.33639 0.8336 0.33255 0.0
H614 H 0.40269 0.85403 0.39319 0.0
H615 H 0.35778 0.81881 0.37769 0.0
H616 H 0.31733 0.82597 0.31678 0.0
H617 H 0.31388 0.8315 0.34763 0.0
H618 H 0.53768 0.94348 0.32071 0.0
H619 H 0.53527 0.94105 0.35192 0.0
H620 H 0.52434 0.89356 0.29249 0.0
H621 H 0.4755 0.86786 0.2762 0.0
C622 C 0.04236 0.03453 0.57661 0.0
C623 C 0.06413 0.01244 0.59742 0.0
C624 C 0.09842 0.94317 0.57321 0.0
C625 C 0.07815 0.96583 0.55223 0.0
N626 N 0.0436 0.04087 0.53324 0.0
N627 N 0.12614 0.95702 0.6139 0.0
C628 C 0.05433 0.01417 0.55369 0.0
C629 C 0.09704 0.97081 0.59503 0.0
N630 N 0.00776 0.07224 0.57855 0.0
N631 N 0.1152 0.89368 0.57298 0.0
H632 H 0.12605 0.97724 0.63006 0.0
H633 H 0.15377 0.92953 0.61256 0.0
H634 H 0.11325 0.86993 0.55802 0.0
H635 H 0.12578 0.87414 0.58846 0.0
H636 H 0.98673 0.08487 0.56411 0.0
H637 H -0.00291 0.08853 0.59472 0.0
H638 H 0.03035 0.07841 0.53332 0.0
H639 H 0.05284 0.02759 0.5162 0.0
C640 C 0.564 0.44673 0.90774 0.0
C641 C 0.55581 0.50078 0.90931 0.0
C642 C 0.57788 0.49837 0.95201 0.0
C643 C 0.58782 0.44502 0.94992 0.0
N644 N 0.60528 0.37271 0.92435 0.0
N645 N 0.56373 0.57964 0.93161 0.0
C646 C 0.58555 0.42059 0.92734 0.0
C647 C 0.56567 0.52713 0.93107 0.0
N648 N 0.54825 0.4191 0.88836 0.0
N649 N 0.57757 0.52089 0.97413 0.0
H650 H 0.55498 0.60164 0.91654 0.0
H651 H 0.5749 0.60154 0.94625 0.0
H652 H 0.58629 0.50097 0.98979 0.0
H653 H 0.5651 0.5581 0.97722 0.0
H654 H 0.54756 0.37901 0.88807 0.0
H655 H 0.53145 0.43508 0.87344 0.0
H656 H 0.60955 0.35561 0.90761 0.0
H657 H 0.62226 0.35241 0.93818 0.0
C658 C 0.6255 0.00356 0.13714 0.0
C659 C 0.58815 0.96568 0.13512 0.0
C660 C 0.57132 0.97395 0.17825 0.0
C661 C 0.60126 0.01875 0.17881 0.0
N662 N 0.65461 0.07902 0.15816 0.0
N663 N 0.52486 0.91362 0.15414 0.0
C664 C 0.62854 0.03386 0.15822 0.0
C665 C 0.56158 0.94956 0.15589 0.0
N666 N 0.65781 0.01066 0.11866 0.0
N667 N 0.55251 0.95463 0.19916 0.0
H668 H 0.51695 0.8933 0.13859 0.0
H669 H 0.50017 0.90549 0.16792 0.0
H670 H 0.55885 0.97184 0.21577 0.0
H671 H 0.53458 0.91923 0.20042 0.0
H672 H 0.68866 0.03449 0.11975 0.0
H673 H 0.65647 0.9883 0.10313 0.0
H674 H 0.67041 0.09473 0.14277 0.0
H675 H 0.65707 0.10332 0.17294 0.0
C676 C 0.97971 0.11307 0.42513 0.0
C677 C 0.96259 0.11932 0.40132 0.0
C678 C 0.89528 0.17341 0.41533 0.0
C679 C 0.91165 0.16631 0.43933 0.0
N680 N 0.97708 0.14271 0.46631 0.0
N681 N 0.91514 0.16842 0.37305 0.0
C682 C 0.95646 0.14039 0.44399 0.0
C683 C 0.92435 0.15432 0.3962 0.0
N684 N 0.01722 0.07967 0.42972 0.0
N685 N 0.85027 0.19453 0.41076 0.0
H686 H 0.93633 0.15548 0.35876 0.0
H687 H 0.89037 0.19716 0.36835 0.0
H688 H 0.82676 0.20779 0.42408 0.0
H689 H 0.83415 0.19475 0.39383 0.0
H690 H 0.0273 0.06815 0.44691 0.0
H691 H 0.03705 0.06183 0.41606 0.0
H692 H 0.01176 0.12824 0.47033 0.0
H693 H 0.96152 0.1636 0.48032 0.0
C694 C 0.8871 0.40978 0.65594 0.0
C695 C 0.91612 0.45506 0.65483 0.0
C696 C 0.90748 0.46533 0.69829 0.0
C697 C 0.88706 0.41506 0.69975 0.0
N698 N 0.86345 0.33604 0.67971 0.0
N699 N 0.95726 0.52507 0.67529 0.0
C700 C 0.87765 0.38655 0.6785 0.0
C701 C 0.92656 0.48327 0.67603 0.0
N702 N 0.86897 0.3888 0.63529 0.0
N703 N 0.90815 0.49607 0.71813 0.0
H704 H 0.97207 0.53981 0.65948 0.0
H705 H 0.97108 0.54288 0.6906 0.0
H706 H 0.89381 0.48428 0.73461 0.0
H707 H 0.91832 0.53476 0.71765 0.0
H708 H 0.84387 0.35836 0.63509 0.0
H709 H 0.87505 0.40554 0.61851 0.0
H710 H 0.86155 0.31223 0.66474 0.0
H711 H 0.85827 0.31614 0.69574 0.0
C712 C 0.48861 0.05276 0.32477 0.0
C713 C 0.51603 0.07496 0.3438 0.0
C714 C 0.58224 0.09819 0.31643 0.0
C715 C 0.55619 0.07426 0.29728 0.0
N716 N 0.47964 0.04085 0.28177 0.0
N717 N 0.5772 0.1359 0.35604 0.0
C718 C 0.50763 0.05538 0.30098 0.0
C719 C 0.5587 0.10393 0.33885 0.0
N720 N 0.44565 0.02742 0.32959 0.0
N721 N 0.63076 0.11135 0.31404 0.0
H722 H 0.55939 0.14073 0.37247 0.0
H723 H 0.60634 0.16132 0.35301 0.0
H724 H 0.65119 0.10422 0.29865 0.0
H725 H 0.65234 0.12418 0.32828 0.0
H726 H 0.42736 0.00411 0.31729 0.0
H727 H 0.4287 0.02914 0.34629 0.0
H728 H 0.44263 0.03074 0.283 0.0
H729 H 0.49238 0.04303 0.26415 0.0
C730 C 0.8429 0.06137 0.6033 0.0
C731 C 0.87929 0.02303 0.60484 0.0
C732 C 0.89059 0.02686 0.56129 0.0
C733 C 0.86256 0.07274 0.56079 0.0
N734 N 0.813 0.13552 0.58167 0.0
N735 N 0.93669 0.96623 0.58543 0.0
C736 C 0.83784 0.08989 0.58174 0.0
C737 C 0.90194 0.00386 0.58377 0.0
N738 N 0.81433 0.07122 0.62288 0.0
N739 N 0.9063 0.00556 0.54028 0.0
H740 H 0.94445 0.94701 0.60137 0.0
H741 H 0.95922 0.95528 0.57127 0.0
H742 H 0.89817 0.02154 0.52358 0.0
H743 H 0.92347 0.96994 0.53919 0.0
H744 H 0.78417 0.09575 0.62255 0.0
H745 H 0.8181 0.05044 0.63881 0.0
H746 H 0.79915 0.15257 0.59712 0.0
H747 H 0.80945 0.15881 0.56657 0.0
C748 C 0.97641 0.39027 0.83958 0.0
C749 C 0.95616 0.38345 0.86289 0.0
C750 C 0.89098 0.3285 0.84651 0.0
C751 C 0.91098 0.33533 0.8232 0.0
N752 N 0.98022 0.35989 0.79861 0.0
N753 N 0.90508 0.33328 0.88932 0.0
C754 C 0.95616 0.36212 0.82009 0.0
C755 C 0.91716 0.34799 0.86654 0.0
N756 N 0.01284 0.42568 0.83562 0.0
N757 N 0.84542 0.30686 0.8495 0.0
H758 H 0.92447 0.34654 0.90423 0.0
H759 H 0.87982 0.30411 0.89315 0.0
H760 H 0.82386 0.29363 0.83534 0.0
H761 H 0.82695 0.30636 0.86586 0.0
H762 H 0.02359 0.43767 0.81857 0.0
H763 H 0.03085 0.44527 0.84927 0.0
H764 H 0.01568 0.37421 0.79599 0.0
H765 H 0.96675 0.33915 0.78405 0.0
C766 C 0.5782 0.49719 0.09754 0.0
C767 C 0.60473 0.47727 0.11731 0.0
C768 C 0.65287 0.42248 0.09095 0.0
C769 C 0.62469 0.44019 0.0711 0.0
N770 N 0.57295 0.50636 0.05436 0.0
N771 N 0.67808 0.43801 0.13206 0.0
C772 C 0.59136 0.48162 0.07403 0.0
C773 C 0.64599 0.44581 0.11363 0.0
N774 N 0.53884 0.52863 0.10131 0.0
N775 N 0.68329 0.38109 0.08877 0.0
H776 H 0.67371 0.45651 0.14852 0.0
H777 H 0.71121 0.41847 0.13019 0.0
H778 H 0.68876 0.3615 0.07278 0.0
H779 H 0.70011 0.36336 0.10335 0.0
H780 H 0.51421 0.53915 0.0879 0.0
H781 H 0.5296 0.54266 0.11819 0.0
H782 H 0.55153 0.53938 0.05534 0.0
H783 H 0.58325 0.49694 0.03691 0.0
loop_
_geom_bond_atom_site_label_1
_geom_bond_atom_site_label_2
_geom_bond_distance
_geom_bond_site_symmetry_2
_ccdc_geom_bond_type
Mg0 O7 2.141 1_545 S
Mg0 O8 2.048 1_545 S
Mg0 O9 2.048 1_455 S
Mg0 O12 2.141 1_455 S
C1 O2 1.313 . S
C1 O8 1.195 . S
O2 C1 1.313 . S
C3 O4 1.245 . S
C3 O12 1.289 . S
O4 C3 1.245 . S
C5 O6 1.245 . S
C5 O7 1.289 . S
O6 C5 1.245 . S
O7 Mg0 2.141 1_565 S
O7 C5 1.289 . S
O8 Mg0 2.048 1_565 S
O8 C1 1.195 . S
O9 Mg0 2.048 1_655 S
O9 C10 1.195 . S
C10 O9 1.195 . S
C10 O11 1.313 1_545 S
O11 C10 1.313 1_565 S
O12 Mg0 2.141 1_655 S
O12 C3 1.289 . S
Mg13 O20 2.141 1_655 S
Mg13 O21 2.048 1_655 S
Mg13 O22 2.048 . S
Mg13 O25 2.141 . S
C14 O15 1.313 . S
C14 O21 1.195 . S
O15 C14 1.313 . S
C16 O17 1.245 . S
C16 O25 1.289 . S
O17 C16 1.245 . S
C18 O19 1.245 . S
C18 O20 1.289 . S
O19 C18 1.245 . S
O20 Mg13 2.141 1_455 S
O20 C18 1.289 . S
O21 Mg13 2.048 1_455 S
O21 C14 1.195 . S
O22 Mg13 2.048 . S
O22 C23 1.195 . S
C23 O22 1.195 . S
C23 O24 1.313 1_655 S
O24 C23 1.313 1_455 S
O25 Mg13 2.141 . S
O25 C16 1.289 . S
Mg26 O33 2.141 . S
Mg26 O34 2.048 . S
Mg26 O35 2.048 . S
Mg26 O38 2.141 . S
C27 O28 1.313 . S
C27 O34 1.195 . S
O28 C27 1.313 . S
C29 O30 1.245 . S
C29 O38 1.289 . S
O30 C29 1.245 . S
C31 O32 1.245 . S
C31 O33 1.289 . S
O32 C31 1.245 . S
O33 Mg26 2.141 . S
O33 C31 1.289 . S
O34 Mg26 2.048 . S
O34 C27 1.195 . S
O35 Mg26 2.048 . S
O35 C36 1.195 . S
C36 O35 1.195 . S
C36 O37 1.313 . S
O37 C36 1.313 . S
O38 Mg26 2.141 . S
O38 C29 1.289 . S
Mg39 O46 2.141 . S
Mg39 O47 2.048 . S
Mg39 O48 2.048 1_545 S
Mg39 O51 2.141 1_545 S
C40 O41 1.313 . S
C40 O47 1.195 . S
O41 C40 1.313 . S
C42 O43 1.245 . S
C42 O51 1.289 . S
O43 C42 1.245 . S
C44 O45 1.245 . S
C44 O46 1.289 . S
O45 C44 1.245 . S
O46 Mg39 2.141 . S
O46 C44 1.289 . S
O47 Mg39 2.048 . S
O47 C40 1.195 . S
O48 Mg39 2.048 1_565 S
O48 C49 1.195 . S
C49 O48 1.195 . S
C49 O50 1.313 . S
O50 C49 1.313 . S
O51 Mg39 2.141 1_565 S
O51 C42 1.289 . S
Mg52 O59 2.141 . S
Mg52 O60 2.048 . S
Mg52 O61 2.048 1_455 S
Mg52 O64 2.141 1_455 S
C53 O54 1.313 . S
C53 O60 1.195 . S
O54 C53 1.313 . S
C55 O56 1.245 . S
C55 O64 1.289 . S
O56 C55 1.245 . S
C57 O58 1.245 . S
C57 O59 1.289 . S
O58 C57 1.245 . S
O59 Mg52 2.141 . S
O59 C57 1.289 . S
O60 Mg52 2.048 . S
O60 C53 1.195 . S
O61 Mg52 2.048 1_655 S
O61 C62 1.195 . S
C62 O61 1.195 . S
C62 O63 1.313 . S
O63 C62 1.313 . S
O64 Mg52 2.141 1_655 S
O64 C55 1.289 . S
Mg65 O72 2.141 . S
Mg65 O73 2.048 . S
Mg65 O74 2.048 . S
Mg65 O77 2.141 . S
C66 O67 1.313 . S
C66 O73 1.195 . S
O67 C66 1.313 . S
C68 O69 1.245 . S
C68 O77 1.289 . S
O69 C68 1.245 . S
C70 O71 1.245 . S
C70 O72 1.289 . S
O71 C70 1.245 . S
O72 Mg65 2.141 . S
O72 C70 1.289 . S
O73 Mg65 2.048 . S
O73 C66 1.195 . S
O74 Mg65 2.048 . S
O74 C75 1.195 . S
C75 O74 1.195 . S
C75 O76 1.313 . S
O76 C75 1.313 . S
O77 Mg65 2.141 . S
O77 C68 1.289 . S
Mg78 O85 2.141 1_565 S
Mg78 O86 2.048 1_565 S
Mg78 O87 2.048 . S
Mg78 O90 2.141 . S
C79 O80 1.313 . S
C79 O86 1.195 . S
O80 C79 1.313 . S
C81 O82 1.245 . S
C81 O90 1.289 . S
O82 C81 1.245 . S
C83 O84 1.245 . S
C83 O85 1.289 . S
O84 C83 1.245 . S
O85 Mg78 2.141 1_545 S
O85 C83 1.289 . S
O86 Mg78 2.048 1_545 S
O86 C79 1.195 . S
O87 Mg78 2.048 . S
O87 C88 1.195 . S
C88 O87 1.195 . S
C88 O89 1.313 1_565 S
O89 C88 1.313 1_545 S
O90 Mg78 2.141 . S
O90 C81 1.289 . S
Mg91 O98 2.141 1_655 S
Mg91 O99 2.048 1_655 S
Mg91 O100 2.048 1_565 S
Mg91 O103 2.141 1_565 S
C92 O93 1.313 . S
C92 O99 1.195 . S
O93 C92 1.313 . S
C94 O95 1.245 . S
C94 O103 1.289 . S
O95 C94 1.245 . S
C96 O97 1.245 . S
C96 O98 1.289 . S
O97 C96 1.245 . S
O98 Mg91 2.141 1_455 S
O98 C96 1.289 . S
O99 Mg91 2.048 1_455 S
O99 C92 1.195 . S
O100 Mg91 2.048 1_545 S
O100 C101 1.195 . S
C101 O100 1.195 . S
C101 O102 1.313 1_655 S
O102 C101 1.313 1_455 S
O103 Mg91 2.141 1_545 S
O103 C94 1.289 . S
C104 O105 1.160 1_556 S
C104 O111 1.185 . S
O105 C104 1.160 1_554 S
O106 Zn107 1.899 . S
O106 C114 1.284 . S
Zn107 O106 1.899 . S
Zn107 O108 2.032 1_554 S
Zn107 O111 2.086 1_554 S
Zn107 O116 1.977 . S
O108 Zn107 2.032 1_556 S
O108 C112 1.278 . S
C109 O110 1.203 . S
C109 O116 1.267 . S
O110 C109 1.203 . S
O111 C104 1.185 . S
O111 Zn107 2.086 1_556 S
C112 O108 1.278 . S
C112 O113 1.211 . S
O113 C112 1.211 . S
C114 O106 1.284 . S
C114 O115 1.273 . S
O115 C114 1.273 . S
O116 Zn107 1.977 . S
O116 C109 1.267 . S
C117 O118 1.160 . S
C117 O124 1.185 . S
O118 C117 1.160 . S
O119 Zn120 1.899 . S
O119 C127 1.284 . S
Zn120 O119 1.899 . S
Zn120 O121 2.032 . S
Zn120 O124 2.086 . S
Zn120 O129 1.977 . S
O121 Zn120 2.032 . S
O121 C125 1.278 . S
C122 O123 1.203 . S
C122 O129 1.267 . S
O123 C122 1.203 . S
O124 C117 1.185 . S
O124 Zn120 2.086 . S
C125 O121 1.278 . S
C125 O126 1.211 . S
O126 C125 1.211 . S
C127 O119 1.284 . S
C127 O128 1.273 . S
O128 C127 1.273 . S
O129 Zn120 1.977 . S
O129 C122 1.267 . S
C130 O131 1.160 . S
C130 O137 1.185 . S
O131 C130 1.160 . S
O132 Zn133 1.899 . S
O132 C140 1.284 . S
Zn133 O132 1.899 . S
Zn133 O134 2.032 . S
Zn133 O137 2.086 . S
Zn133 O142 1.977 . S
O134 Zn133 2.032 . S
O134 C138 1.278 . S
C135 O136 1.203 . S
C135 O142 1.267 . S
O136 C135 1.203 . S
O137 C130 1.185 . S
O137 Zn133 2.086 . S
C138 O134 1.278 . S
C138 O139 1.211 . S
O139 C138 1.211 . S
C140 O132 1.284 . S
C140 O141 1.273 . S
O141 C140 1.273 . S
O142 Zn133 1.977 . S
O142 C135 1.267 . S
C143 O144 1.160 . S
C143 O150 1.185 . S
O144 C143 1.160 . S
O145 Zn146 1.899 . S
O145 C153 1.284 . S
Zn146 O145 1.899 . S
Zn146 O147 2.032 . S
Zn146 O150 2.086 . S
Zn146 O155 1.977 . S
O147 Zn146 2.032 . S
O147 C151 1.278 . S
C148 O149 1.203 . S
C148 O155 1.267 . S
O149 C148 1.203 . S
O150 C143 1.185 . S
O150 Zn146 2.086 . S
C151 O147 1.278 . S
C151 O152 1.211 . S
O152 C151 1.211 . S
C153 O145 1.284 . S
C153 O154 1.273 . S
O154 C153 1.273 . S
O155 Zn146 1.977 . S
O155 C148 1.267 . S
C156 O157 1.160 . S
C156 O163 1.185 . S
O157 C156 1.160 . S
O158 Zn159 1.899 . S
O158 C166 1.284 . S
Zn159 O158 1.899 . S
Zn159 O160 2.032 . S
Zn159 O163 2.086 . S
Zn159 O168 1.977 . S
O160 Zn159 2.032 . S
O160 C164 1.278 . S
C161 O162 1.203 . S
C161 O168 1.267 . S
O162 C161 1.203 . S
O163 C156 1.185 . S
O163 Zn159 2.086 . S
C164 O160 1.278 . S
C164 O165 1.211 . S
O165 C164 1.211 . S
C166 O158 1.284 . S
C166 O167 1.273 . S
O167 C166 1.273 . S
O168 Zn159 1.977 . S
O168 C161 1.267 . S
C169 O170 1.160 . S
C169 O176 1.185 . S
O170 C169 1.160 . S
O171 Zn172 1.899 . S
O171 C179 1.284 . S
Zn172 O171 1.899 . S
Zn172 O173 2.032 . S
Zn172 O176 2.086 . S
Zn172 O181 1.977 . S
O173 Zn172 2.032 . S
O173 C177 1.278 . S
C174 O175 1.203 . S
C174 O181 1.267 . S
O175 C174 1.203 . S
O176 C169 1.185 . S
O176 Zn172 2.086 . S
C177 O173 1.278 . S
C177 O178 1.211 . S
O178 C177 1.211 . S
C179 O171 1.284 . S
C179 O180 1.273 . S
O180 C179 1.273 . S
O181 Zn172 1.977 . S
O181 C174 1.267 . S
C182 O183 1.160 1_556 S
C182 O189 1.185 . S
O183 C182 1.160 1_554 S
O184 Zn185 1.899 . S
O184 C192 1.284 . S
Zn185 O184 1.899 . S
Zn185 O186 2.032 1_554 S
Zn185 O189 2.086 1_554 S
Zn185 O194 1.977 . S
O186 Zn185 2.032 1_556 S
O186 C190 1.278 . S
C187 O188 1.203 . S
C187 O194 1.267 . S
O188 C187 1.203 . S
O189 C182 1.185 . S
O189 Zn185 2.086 1_556 S
C190 O186 1.278 . S
C190 O191 1.211 . S
O191 C190 1.211 . S
C192 O184 1.284 . S
C192 O193 1.273 . S
O193 C192 1.273 . S
O194 Zn185 1.977 . S
O194 C187 1.267 . S
C195 O196 1.160 . S
C195 O202 1.185 . S
O196 C195 1.160 . S
O197 Zn198 1.899 . S
O197 C205 1.284 . S
Zn198 O197 1.899 . S
Zn198 O199 2.032 . S
Zn198 O202 2.086 . S
Zn198 O207 1.977 . S
O199 Zn198 2.032 . S
O199 C203 1.278 . S
C200 O201 1.203 . S
C200 O207 1.267 . S
O201 C200 1.203 . S
O202 C195 1.185 . S
O202 Zn198 2.086 . S
C203 O199 1.278 . S
C203 O204 1.211 . S
O204 C203 1.211 . S
C205 O197 1.284 . S
C205 O206 1.273 . S
O206 C205 1.273 . S
O207 Zn198 1.977 . S
O207 C200 1.267 . S
C208 C209 1.363 . S
C208 C214 1.379 . S
C208 N216 1.356 . S
C209 C208 1.363 . S
C209 C215 1.363 . S
C210 C211 1.363 . S
C210 C215 1.379 . S
C210 N217 1.356 . S
C211 C210 1.363 . S
C211 C214 1.363 . S
N212 C214 1.356 . S
N212 H224 0.984 . S
N212 H225 0.985 . S
N213 C215 1.356 . S
N213 H218 0.984 . S
N213 H219 0.985 . S
C214 C208 1.379 . S
C214 C211 1.363 . S
C214 N212 1.356 . S
C215 C209 1.363 . S
C215 C210 1.379 . S
C215 N213 1.356 . S
N216 C208 1.356 . S
N216 H222 0.984 . S
N216 H223 0.984 . S
N217 C210 1.356 . S
N217 H220 0.984 . S
N217 H221 0.985 . S
H218 N213 0.984 . S
H219 N213 0.985 . S
H220 N217 0.984 . S
H221 N217 0.985 . S
H222 N216 0.984 . S
H223 N216 0.984 . S
H224 N212 0.984 . S
H225 N212 0.985 . S
C226 C227 1.363 . S
C226 C232 1.379 . S
C226 N234 1.356 . S
C227 C226 1.363 . S
C227 C233 1.363 . S
C228 C229 1.363 . S
C228 C233 1.379 . S
C228 N235 1.356 . S
C229 C228 1.363 . S
C229 C232 1.363 . S
N230 C232 1.356 . S
N230 H242 0.984 . S
N230 H243 0.985 . S
N231 C233 1.356 . S
N231 H236 0.984 . S
N231 H237 0.985 . S
C232 C226 1.379 . S
C232 C229 1.363 . S
C232 N230 1.356 . S
C233 C227 1.363 . S
C233 C228 1.379 . S
C233 N231 1.356 . S
N234 C226 1.356 . S
N234 H240 0.984 . S
N234 H241 0.984 . S
N235 C228 1.356 . S
N235 H238 0.984 . S
N235 H239 0.985 . S
H236 N231 0.984 . S
H237 N231 0.985 . S
H238 N235 0.984 . S
H239 N235 0.985 . S
H240 N234 0.984 . S
H241 N234 0.984 . S
H242 N230 0.984 . S
H243 N230 0.985 . S
C244 C245 1.363 . S
C244 C250 1.379 . S
C244 N252 1.356 . S
C245 C244 1.363 . S
C245 C251 1.363 . S
C246 C247 1.363 . S
C246 C251 1.379 . S
C246 N253 1.356 . S
C247 C246 1.363 . S
C247 C250 1.363 . S
N248 C250 1.356 . S
N248 H260 0.984 . S
N248 H261 0.985 . S
N249 C251 1.356 . S
N249 H254 0.984 . S
N249 H255 0.985 . S
C250 C244 1.379 . S
C250 C247 1.363 . S
C250 N248 1.356 . S
C251 C245 1.363 . S
C251 C246 1.379 . S
C251 N249 1.356 . S
N252 C244 1.356 . S
N252 H258 0.984 . S
N252 H259 0.984 . S
N253 C246 1.356 . S
N253 H256 0.984 . S
N253 H257 0.985 . S
H254 N249 0.984 . S
H255 N249 0.985 . S
H256 N253 0.984 . S
H257 N253 0.985 . S
H258 N252 0.984 . S
H259 N252 0.984 . S
H260 N248 0.984 . S
H261 N248 0.985 . S
C262 C263 1.363 . S
C262 C268 1.379 . S
C262 N270 1.356 . S
C263 C262 1.363 . S
C263 C269 1.363 . S
C264 C265 1.363 . S
C264 C269 1.379 . S
C264 N271 1.356 . S
C265 C264 1.363 . S
C265 C268 1.363 . S
N266 C268 1.356 . S
N266 H278 0.984 1_554 S
N266 H279 0.985 1_554 S
N267 C269 1.356 . S
N267 H272 0.984 . S
N267 H273 0.985 . S
C268 C262 1.379 . S
C268 C265 1.363 . S
C268 N266 1.356 . S
C269 C263 1.363 . S
C269 C264 1.379 . S
C269 N267 1.356 . S
N270 C262 1.356 . S
N270 H276 0.984 . S
N270 H277 0.984 . S
N271 C264 1.356 . S
N271 H274 0.984 . S
N271 H275 0.985 . S
H272 N267 0.984 . S
H273 N267 0.985 . S
H274 N271 0.984 . S
H275 N271 0.985 . S
H276 N270 0.984 . S
H277 N270 0.984 . S
H278 N266 0.984 1_556 S
H279 N266 0.985 1_556 S
C280 C281 1.363 . S
C280 C286 1.379 . S
C280 N288 1.356 . S
C281 C280 1.363 . S
C281 C287 1.363 . S
C282 C283 1.363 . S
C282 C287 1.379 . S
C282 N289 1.356 . S
C283 C282 1.363 . S
C283 C286 1.363 . S
N284 C286 1.356 1_554 S
N284 H296 0.984 . S
N284 H297 0.985 . S
N285 C287 1.356 . S
N285 H290 0.984 . S
N285 H291 0.985 . S
C286 C280 1.379 . S
C286 C283 1.363 . S
C286 N284 1.356 1_556 S
C287 C281 1.363 . S
C287 C282 1.379 . S
C287 N285 1.356 . S
N288 C280 1.356 . S
N288 H294 0.984 1_556 S
N288 H295 0.984 . S
N289 C282 1.356 . S
N289 H292 0.984 . S
N289 H293 0.985 . S
H290 N285 0.984 . S
H291 N285 0.985 . S
H292 N289 0.984 . S
H293 N289 0.985 . S
H294 N288 0.984 1_554 S
H295 N288 0.984 . S
H296 N284 0.984 . S
H297 N284 0.985 . S
C298 C299 1.363 . S
C298 C304 1.379 . S
C298 N306 1.356 . S
C299 C298 1.363 . S
C299 C305 1.363 . S
C300 C301 1.363 . S
C300 C305 1.379 . S
C300 N307 1.356 . S
C301 C300 1.363 . S
C301 C304 1.363 . S
N302 C304 1.356 . S
N302 H314 0.984 . S
N302 H315 0.985 . S
N303 C305 1.356 . S
N303 H308 0.984 . S
N303 H309 0.985 . S
C304 C298 1.379 . S
C304 C301 1.363 . S
C304 N302 1.356 . S
C305 C299 1.363 . S
C305 C300 1.379 . S
C305 N303 1.356 . S
N306 C298 1.356 . S
N306 H312 0.984 . S
N306 H313 0.984 . S
N307 C300 1.356 . S
N307 H310 0.984 . S
N307 H311 0.985 . S
H308 N303 0.984 . S
H309 N303 0.985 . S
H310 N307 0.984 . S
H311 N307 0.985 . S
H312 N306 0.984 . S
H313 N306 0.984 . S
H314 N302 0.984 . S
H315 N302 0.985 . S
C316 C317 1.363 . S
C316 C322 1.379 . S
C316 N324 1.356 . S
C317 C316 1.363 . S
C317 C323 1.363 . S
C318 C319 1.363 . S
C318 C323 1.379 . S
C318 N325 1.356 . S
C319 C318 1.363 . S
C319 C322 1.363 . S
N320 C322 1.356 . S
N320 H332 0.984 . S
N320 H333 0.985 . S
N321 C323 1.356 . S
N321 H326 0.984 . S
N321 H327 0.977 1_565 S
C322 C316 1.379 . S
C322 C319 1.363 . S
C322 N320 1.356 . S
C323 C317 1.363 . S
C323 C318 1.379 . S
C323 N321 1.356 . S
N324 C316 1.356 . S
N324 H330 0.984 . S
N324 H331 0.984 . S
N325 C318 1.356 . S
N325 H328 0.984 . S
N325 H329 0.985 . S
H326 N321 0.984 . S
H327 N321 0.977 1_545 S
H328 N325 0.984 . S
H329 N325 0.985 . S
H330 N324 0.984 . S
H331 N324 0.984 . S
H332 N320 0.984 . S
H333 N320 0.985 . S
C334 C335 1.363 . S
C334 C340 1.379 . S
C334 N342 1.356 . S
C335 C334 1.363 . S
C335 C341 1.363 . S
C336 C337 1.363 . S
C336 C341 1.379 . S
C336 N343 1.356 . S
C337 C336 1.363 . S
C337 C340 1.363 . S
N338 C340 1.356 . S
N338 H350 0.984 . S
N338 H351 0.985 . S
N339 C341 1.356 . S
N339 H344 0.984 . S
N339 H345 0.985 . S
C340 C334 1.379 . S
C340 C337 1.363 . S
C340 N338 1.356 . S
C341 C335 1.363 . S
C341 C336 1.379 . S
C341 N339 1.356 . S
N342 C334 1.356 . S
N342 H348 0.984 . S
N342 H349 0.984 . S
N343 C336 1.356 . S
N343 H346 0.984 . S
N343 H347 0.985 . S
H344 N339 0.984 . S
H345 N339 0.985 . S
H346 N343 0.984 . S
H347 N343 0.985 . S
H348 N342 0.984 . S
H349 N342 0.984 . S
H350 N338 0.984 . S
H351 N338 0.985 . S
C352 C353 1.363 . S
C352 C358 1.379 . S
C352 N360 1.356 . S
C353 C352 1.363 . S
C353 C359 1.363 . S
C354 C355 1.363 . S
C354 C359 1.379 . S
C354 N361 1.356 . S
C355 C354 1.363 . S
C355 C358 1.363 . S
N356 C358 1.356 . S
N356 H368 0.984 . S
N356 H369 0.985 . S
N357 C359 1.356 . S
N357 H362 0.984 . S
N357 H363 0.985 . S
C358 C352 1.379 . S
C358 C355 1.363 . S
C358 N356 1.356 . S
C359 C353 1.363 . S
C359 C354 1.379 . S
C359 N357 1.356 . S
N360 C352 1.356 . S
N360 H366 0.984 . S
N360 H367 0.984 . S
N361 C354 1.356 . S
N361 H364 0.984 . S
N361 H365 0.985 . S
H362 N357 0.984 . S
H363 N357 0.985 . S
H364 N361 0.984 . S
H365 N361 0.985 . S
H366 N360 0.984 . S
H367 N360 0.984 . S
H368 N356 0.984 . S
H369 N356 0.985 . S
C370 C371 1.363 . S
C370 C376 1.379 . S
C370 N378 1.356 . S
C371 C370 1.363 . S
C371 C377 1.363 . S
C372 C373 1.363 . S
C372 C377 1.379 . S
C372 N379 1.356 . S
C373 C372 1.363 . S
C373 C376 1.363 . S
N374 C376 1.356 . S
N374 H386 0.984 . S
N374 H387 0.985 . S
N375 C377 1.356 . S
N375 H380 0.984 . S
N375 H381 0.985 . S
C376 C370 1.379 . S
C376 C373 1.363 . S
C376 N374 1.356 . S
C377 C371 1.363 . S
C377 C372 1.379 . S
C377 N375 1.356 . S
N378 C370 1.356 . S
N378 H384 0.984 . S
N378 H385 0.984 . S
N379 C372 1.356 . S
N379 H382 0.984 . S
N379 H383 0.985 . S
H380 N375 0.984 . S
H381 N375 0.985 . S
H382 N379 0.984 . S
H383 N379 0.985 . S
H384 N378 0.984 . S
H385 N378 0.984 . S
H386 N374 0.984 . S
H387 N374 0.985 . S
C388 C389 1.363 . S
C388 C394 1.379 . S
C388 N396 1.356 . S
C389 C388 1.363 . S
C389 C395 1.363 . S
C390 C391 1.363 . S
C390 C395 1.379 . S
C390 N397 1.356 . S
C391 C390 1.363 . S
C391 C394 1.363 . S
N392 C394 1.356 . S
N392 H404 0.984 . S
N392 H405 0.985 . S
N393 C395 1.356 . S
N393 H398 0.984 . S
N393 H399 0.985 . S
C394 C388 1.379 . S
C394 C391 1.363 . S
C394 N392 1.356 . S
C395 C389 1.363 . S
C395 C390 1.379 . S
C395 N393 1.356 . S
N396 C388 1.356 . S
N396 H402 0.984 . S
N396 H403 0.984 . S
N397 C390 1.356 . S
N397 H400 0.984 . S
N397 H401 0.985 . S
H398 N393 0.984 . S
H399 N393 0.985 . S
H400 N397 0.984 . S
H401 N397 0.985 . S
H402 N396 0.984 . S
H403 N396 0.984 . S
H404 N392 0.984 . S
H405 N392 0.985 . S
C406 C407 1.363 . S
C406 C412 1.379 . S
C406 N414 1.356 . S
C407 C406 1.363 . S
C407 C413 1.363 . S
C408 C409 1.363 . S
C408 C413 1.379 . S
C408 N415 1.356 . S
C409 C408 1.363 . S
C409 C412 1.363 . S
N410 C412 1.356 . S
N410 H422 0.984 . S
N410 H423 0.985 . S
N411 C413 1.356 . S
N411 H416 0.984 . S
N411 H417 0.985 . S
C412 C406 1.379 . S
C412 C409 1.363 . S
C412 N410 1.356 . S
C413 C407 1.363 . S
C413 C408 1.379 . S
C413 N411 1.356 . S
N414 C406 1.356 . S
N414 H420 0.984 . S
N414 H421 0.984 . S
N415 C408 1.356 . S
N415 H418 0.984 . S
N415 H419 0.985 . S
H416 N411 0.984 . S
H417 N411 0.985 . S
H418 N415 0.984 . S
H419 N415 0.985 . S
H420 N414 0.984 . S
H421 N414 0.984 . S
H422 N410 0.984 . S
H423 N410 0.985 . S
C424 C425 1.363 . S
C424 C430 1.379 . S
C424 N432 1.356 . S
C425 C424 1.363 . S
C425 C431 1.363 . S
C426 C427 1.363 . S
C426 C431 1.379 . S
C426 N433 1.356 . S
C427 C426 1.363 . S
C427 C430 1.363 . S
N428 C430 1.356 . S
N428 H440 0.984 . S
N428 H441 0.985 . S
N429 C431 1.356 . S
N429 H434 0.984 . S
N429 H435 0.985 . S
C430 C424 1.379 . S
C430 C427 1.363 . S
C430 N428 1.356 . S
C431 C425 1.363 . S
C431 C426 1.379 . S
C431 N429 1.356 . S
N432 C424 1.356 . S
N432 H438 0.984 . S
N432 H439 0.984 . S
N433 C426 1.356 . S
N433 H436 0.984 . S
N433 H437 0.985 . S
H434 N429 0.984 . S
H435 N429 0.985 . S
H436 N433 0.984 . S
H437 N433 0.985 . S
H438 N432 0.984 . S
H439 N432 0.984 . S
H440 N428 0.984 . S
H441 N428 0.985 . S
C442 C443 1.363 . S
C442 C448 1.379 . S
C442 N450 1.356 . S
C443 C442 1.363 . S
C443 C449 1.363 . S
C444 C445 1.363 . S
C444 C449 1.379 . S
C444 N451 1.356 . S
C445 C444 1.363 . S
C445 C448 1.363 . S
N446 C448 1.356 . S
N446 H458 0.984 . S
N446 H459 0.985 . S
N447 C449 1.356 . S
N447 H452 0.984 . S
N447 H453 0.985 . S
C448 C442 1.379 . S
C448 C445 1.363 . S
C448 N446 1.356 . S
C449 C443 1.363 . S
C449 C444 1.379 . S
C449 N447 1.356 . S
N450 C442 1.356 . S
N450 H456 0.984 . S
N450 H457 0.984 . S
N451 C444 1.356 . S
N451 H454 0.984 . S
N451 H455 0.985 . S
H452 N447 0.984 . S
H453 N447 0.985 . S
H454 N451 0.984 . S
H455 N451 0.985 . S
H456 N450 0.984 . S
H457 N450 0.984 . S
H458 N446 0.984 . S
H459 N446 0.985 . S
C460 C461 1.363 . S
C460 C466 1.379 . S
C460 N468 1.356 . S
C461 C460 1.363 . S
C461 C467 1.363 . S
C462 C463 1.363 . S
C462 C467 1.379 . S
C462 N469 1.356 . S
C463 C462 1.363 . S
C463 C466 1.363 . S
N464 C466 1.356 1_554 S
N464 H476 0.984 . S
N464 H477 0.985 . S
N465 C467 1.356 . S
N465 H470 0.984 . S
N465 H471 0.985 . S
C466 C460 1.379 . S
C466 C463 1.363 . S
C466 N464 1.356 1_556 S
C467 C461 1.363 . S
C467 C462 1.379 . S
C467 N465 1.356 . S
N468 C460 1.356 . S
N468 H474 1.014 . S
N468 H475 0.984 . S
N469 C462 1.356 . S
N469 H472 0.984 . S
N469 H473 0.985 . S
H470 N465 0.984 . S
H471 N465 0.985 . S
H472 N469 0.984 . S
H473 N469 0.985 . S
H474 N468 1.014 . S
H475 N468 0.984 . S
H476 N464 0.984 . S
H477 N464 0.985 . S
C478 C479 1.363 . S
C478 C484 1.379 . S
C478 N486 1.356 . S
C479 C478 1.363 . S
C479 C485 1.363 . S
C480 C481 1.363 . S
C480 C485 1.379 . S
C480 N487 1.356 . S
C481 C480 1.363 . S
C481 C484 1.363 . S
N482 C484 1.356 . S
N482 H494 0.984 . S
N482 H495 0.985 . S
N483 C485 1.356 . S
N483 H488 0.984 . S
N483 H489 0.985 . S
C484 C478 1.379 . S
C484 C481 1.363 . S
C484 N482 1.356 . S
C485 C479 1.363 . S
C485 C480 1.379 . S
C485 N483 1.356 . S
N486 C478 1.356 . S
N486 H492 0.984 . S
N486 H493 0.984 . S
N487 C480 1.356 . S
N487 H490 0.984 . S
N487 H491 0.985 . S
H488 N483 0.984 . S
H489 N483 0.985 . S
H490 N487 0.984 . S
H491 N487 0.985 . S
H492 N486 0.984 . S
H493 N486 0.984 . S
H494 N482 0.984 . S
H495 N482 0.985 . S
C496 C497 1.363 . S
C496 C502 1.379 . S
C496 N504 1.356 . S
C497 C496 1.363 . S
C497 C503 1.363 . S
C498 C499 1.363 . S
C498 C503 1.379 . S
C498 N505 1.356 . S
C499 C498 1.363 . S
C499 C502 1.363 . S
N500 C502 1.356 . S
N500 H512 0.984 . S
N500 H513 0.985 . S
N501 C503 1.356 . S
N501 H506 0.984 . S
N501 H507 0.985 1_455 S
C502 C496 1.379 . S
C502 C499 1.363 . S
C502 N500 1.356 . S
C503 C497 1.363 . S
C503 C498 1.379 . S
C503 N501 1.356 . S
N504 C496 1.356 . S
N504 H510 0.984 . S
N504 H511 0.984 . S
N505 C498 1.356 . S
N505 H508 0.984 . S
N505 H509 0.985 . S
H506 N501 0.984 . S
H507 N501 0.985 1_655 S
H508 N505 0.984 . S
H509 N505 0.985 . S
H510 N504 0.984 . S
H511 N504 0.984 . S
H512 N500 0.984 . S
H513 N500 0.985 . S
C514 C515 1.363 . S
C514 C520 1.379 . S
C514 N522 1.356 . S
C515 C514 1.363 . S
C515 C521 1.363 . S
C516 C517 1.363 . S
C516 C521 1.379 . S
C516 N523 1.356 . S
C517 C516 1.363 . S
C517 C520 1.363 . S
N518 C520 1.356 . S
N518 H530 0.984 . S
N518 H531 0.985 . S
N519 C521 1.356 . S
N519 H524 0.984 . S
N519 H525 0.985 . S
C520 C514 1.379 . S
C520 C517 1.363 . S
C520 N518 1.356 . S
C521 C515 1.363 . S
C521 C516 1.379 . S
C521 N519 1.356 . S
N522 C514 1.356 . S
N522 H528 0.984 . S
N522 H529 0.984 . S
N523 C516 1.356 . S
N523 H526 0.984 . S
N523 H527 0.985 . S
H524 N519 0.984 . S
H525 N519 0.985 . S
H526 N523 0.984 . S
H527 N523 0.985 . S
H528 N522 0.984 . S
H529 N522 0.984 . S
H530 N518 0.984 . S
H531 N518 0.985 . S
C532 C533 1.363 . S
C532 C538 1.379 . S
C532 N540 1.356 . S
C533 C532 1.363 . S
C533 C539 1.363 . S
C534 C535 1.363 . S
C534 C539 1.379 . S
C534 N541 1.356 . S
C535 C534 1.363 . S
C535 C538 1.363 . S
N536 C538 1.356 . S
N536 H548 0.984 . S
N536 H549 0.985 . S
N537 C539 1.356 . S
N537 H542 0.984 . S
N537 H543 0.985 . S
C538 C532 1.379 . S
C538 C535 1.363 . S
C538 N536 1.356 . S
C539 C533 1.363 . S
C539 C534 1.379 . S
C539 N537 1.356 . S
N540 C532 1.356 . S
N540 H546 0.984 . S
N540 H547 0.984 . S
N541 C534 1.356 . S
N541 H544 0.984 . S
N541 H545 0.985 . S
H542 N537 0.984 . S
H543 N537 0.985 . S
H544 N541 0.984 . S
H545 N541 0.985 . S
H546 N540 0.984 . S
H547 N540 0.984 . S
H548 N536 0.984 . S
H549 N536 0.985 . S
C550 C551 1.363 . S
C550 C556 1.379 . S
C550 N558 1.356 . S
C551 C550 1.363 . S
C551 C557 1.363 . S
C552 C553 1.363 . S
C552 C557 1.379 . S
C552 N559 1.356 . S
C553 C552 1.363 . S
C553 C556 1.363 . S
N554 C556 1.356 . S
N554 H566 0.984 . S
N554 H567 0.985 . S
N555 C557 1.356 . S
N555 H560 0.984 . S
N555 H561 0.985 . S
C556 C550 1.379 . S
C556 C553 1.363 . S
C556 N554 1.356 . S
C557 C551 1.363 . S
C557 C552 1.379 . S
C557 N555 1.356 . S
N558 C550 1.356 . S
N558 H564 0.984 . S
N558 H565 0.984 . S
N559 C552 1.356 . S
N559 H562 0.984 . S
N559 H563 0.985 . S
H560 N555 0.984 . S
H561 N555 0.985 . S
H562 N559 0.984 . S
H563 N559 0.985 . S
H564 N558 0.984 . S
H565 N558 0.984 . S
H566 N554 0.984 . S
H567 N554 0.985 . S
C568 C569 1.363 . S
C568 C574 1.379 . S
C568 N576 1.356 . S
C569 C568 1.363 . S
C569 C575 1.363 . S
C570 C571 1.363 . S
C570 C575 1.379 . S
C570 N577 1.356 . S
C571 C570 1.363 . S
C571 C574 1.363 . S
N572 C574 1.356 . S
N572 H584 0.984 . S
N572 H585 0.985 . S
N573 C575 1.356 . S
N573 H578 0.984 . S
N573 H579 0.985 . S
C574 C568 1.379 . S
C574 C571 1.363 . S
C574 N572 1.356 . S
C575 C569 1.363 . S
C575 C570 1.379 . S
C575 N573 1.356 . S
N576 C568 1.356 . S
N576 H582 0.984 . S
N576 H583 0.984 . S
N577 C570 1.356 . S
N577 H580 0.984 . S
N577 H581 0.985 . S
H578 N573 0.984 . S
H579 N573 0.985 . S
H580 N577 0.984 . S
H581 N577 0.985 . S
H582 N576 0.984 . S
H583 N576 0.984 . S
H584 N572 0.984 . S
H585 N572 0.985 . S
C586 C587 1.363 . S
C586 C592 1.379 . S
C586 N594 1.356 . S
C587 C586 1.363 . S
C587 C593 1.363 . S
C588 C589 1.363 . S
C588 C593 1.379 . S
C588 N595 1.356 . S
C589 C588 1.363 . S
C589 C592 1.363 . S
N590 C592 1.356 . S
N590 H602 0.984 . S
N590 H603 0.985 . S
N591 C593 1.356 . S
N591 H596 0.984 . S
N591 H597 0.985 . S
C592 C586 1.379 . S
C592 C589 1.363 . S
C592 N590 1.356 . S
C593 C587 1.363 . S
C593 C588 1.379 . S
C593 N591 1.356 . S
N594 C586 1.356 . S
N594 H600 0.984 . S
N594 H601 0.984 . S
N595 C588 1.356 . S
N595 H598 0.984 . S
N595 H599 0.985 . S
H596 N591 0.984 . S
H597 N591 0.985 . S
H598 N595 0.984 . S
H599 N595 0.985 . S
H600 N594 0.984 . S
H601 N594 0.984 . S
H602 N590 0.984 . S
H603 N590 0.985 . S
C604 C605 1.363 . S
C604 C610 1.379 . S
C604 N612 1.355 . S
C605 C604 1.363 . S
C605 C611 1.363 . S
C606 C607 1.363 . S
C606 C611 1.379 . S
C606 N613 1.356 . S
C607 C606 1.363 . S
C607 C610 1.363 . S
N608 C610 1.356 . S
N608 H620 0.984 . S
N608 H621 0.985 . S
N609 C611 1.356 . S
N609 H614 0.984 . S
N609 H615 0.985 . S
C610 C604 1.379 . S
C610 C607 1.363 . S
C610 N608 1.356 . S
C611 C605 1.363 . S
C611 C606 1.379 . S
C611 N609 1.356 . S
N612 C604 1.355 . S
N612 H618 0.985 1_565 S
N612 H619 0.985 1_565 S
N613 C606 1.356 . S
N613 H616 0.984 . S
N613 H617 0.985 . S
H614 N609 0.984 . S
H615 N609 0.985 . S
H616 N613 0.984 . S
H617 N613 0.985 . S
H618 N612 0.985 1_545 S
H619 N612 0.985 1_545 S
H620 N608 0.984 . S
H621 N608 0.985 . S
C622 C623 1.363 . S
C622 C628 1.379 . S
C622 N630 1.356 . S
C623 C622 1.363 . S
C623 C629 1.363 . S
C624 C625 1.363 . S
C624 C629 1.379 . S
C624 N631 1.356 . S
C625 C624 1.363 . S
C625 C628 1.363 . S
N626 C628 1.356 . S
N626 H638 0.984 1_565 S
N626 H639 0.985 . S
N627 C629 1.356 . S
N627 H632 0.984 . S
N627 H633 0.985 . S
C628 C622 1.379 . S
C628 C625 1.363 . S
C628 N626 1.356 . S
C629 C623 1.363 . S
C629 C624 1.379 . S
C629 N627 1.356 . S
N630 C622 1.356 . S
N630 H636 0.984 1_565 S
N630 H637 0.984 . S
N631 C624 1.356 . S
N631 H634 0.984 . S
N631 H635 0.985 . S
H632 N627 0.984 . S
H633 N627 0.985 . S
H634 N631 0.984 . S
H635 N631 0.985 . S
H636 N630 0.984 1_545 S
H637 N630 0.984 . S
H638 N626 0.984 1_545 S
H639 N626 0.985 . S
C640 C641 1.363 . S
C640 C646 1.379 . S
C640 N648 1.356 . S
C641 C640 1.363 . S
C641 C647 1.363 . S
C642 C643 1.363 . S
C642 C647 1.379 . S
C642 N649 1.356 . S
C643 C642 1.363 . S
C643 C646 1.363 . S
N644 C646 1.356 . S
N644 H656 0.984 . S
N644 H657 0.985 . S
N645 C647 1.356 . S
N645 H650 0.984 . S
N645 H651 0.985 . S
C646 C640 1.379 . S
C646 C643 1.363 . S
C646 N644 1.356 . S
C647 C641 1.363 . S
C647 C642 1.379 . S
C647 N645 1.356 . S
N648 C640 1.356 . S
N648 H654 0.984 . S
N648 H655 0.984 . S
N649 C642 1.356 . S
N649 H652 0.984 . S
N649 H653 0.985 . S
H650 N645 0.984 . S
H651 N645 0.985 . S
H652 N649 0.984 . S
H653 N649 0.985 . S
H654 N648 0.984 . S
H655 N648 0.984 . S
H656 N644 0.984 . S
H657 N644 0.985 . S
C658 C659 1.363 . S
C658 C664 1.379 . S
C658 N666 1.356 . S
C659 C658 1.363 . S
C659 C665 1.363 . S
C660 C661 1.363 . S
C660 C665 1.379 . S
C660 N667 1.356 . S
C661 C660 1.363 . S
C661 C664 1.363 . S
N662 C664 1.356 . S
N662 H674 0.984 . S
N662 H675 0.985 . S
N663 C665 1.356 . S
N663 H668 0.984 . S
N663 H669 0.983 . S
C664 C658 1.379 . S
C664 C661 1.363 . S
C664 N662 1.356 . S
C665 C659 1.363 . S
C665 C660 1.379 . S
C665 N663 1.356 . S
N666 C658 1.356 . S
N666 H672 0.984 . S
N666 H673 0.984 . S
N667 C660 1.356 . S
N667 H670 0.984 . S
N667 H671 0.985 . S
H668 N663 0.984 . S
H669 N663 0.983 . S
H670 N667 0.984 . S
H671 N667 0.985 . S
H672 N666 0.984 . S
H673 N666 0.984 . S
H674 N662 0.984 . S
H675 N662 0.985 . S
C676 C677 1.363 . S
C676 C682 1.379 . S
C676 N684 1.356 . S
C677 C676 1.363 . S
C677 C683 1.363 . S
C678 C679 1.363 . S
C678 C683 1.379 . S
C678 N685 1.356 . S
C679 C678 1.363 . S
C679 C682 1.363 . S
N680 C682 1.356 . S
N680 H692 0.984 . S
N680 H693 0.985 . S
N681 C683 1.356 . S
N681 H686 0.984 . S
N681 H687 0.985 . S
C682 C676 1.379 . S
C682 C679 1.363 . S
C682 N680 1.356 . S
C683 C677 1.363 . S
C683 C678 1.379 . S
C683 N681 1.356 . S
N684 C676 1.356 . S
N684 H690 0.984 1_655 S
N684 H691 0.984 . S
N685 C678 1.356 . S
N685 H688 0.984 . S
N685 H689 0.985 . S
H686 N681 0.984 . S
H687 N681 0.985 . S
H688 N685 0.984 . S
H689 N685 0.985 . S
H690 N684 0.984 1_455 S
H691 N684 0.984 . S
H692 N680 0.984 . S
H693 N680 0.985 . S
C694 C695 1.363 . S
C694 C700 1.379 . S
C694 N702 1.356 . S
C695 C694 1.363 . S
C695 C701 1.363 . S
C696 C697 1.363 . S
C696 C701 1.379 . S
C696 N703 1.356 . S
C697 C696 1.363 . S
C697 C700 1.363 . S
N698 C700 1.356 . S
N698 H710 0.984 . S
N698 H711 0.985 . S
N699 C701 1.356 . S
N699 H704 0.984 . S
N699 H705 0.985 . S
C700 C694 1.379 . S
C700 C697 1.363 . S
C700 N698 1.356 . S
C701 C695 1.363 . S
C701 C696 1.379 . S
C701 N699 1.356 . S
N702 C694 1.356 . S
N702 H708 0.984 . S
N702 H709 0.984 . S
N703 C696 1.356 . S
N703 H706 0.984 . S
N703 H707 0.985 . S
H704 N699 0.984 . S
H705 N699 0.985 . S
H706 N703 0.984 . S
H707 N703 0.985 . S
H708 N702 0.984 . S
H709 N702 0.984 . S
H710 N698 0.984 . S
H711 N698 0.985 . S
C712 C713 1.363 . S
C712 C718 1.379 . S
C712 N720 1.356 . S
C713 C712 1.363 . S
C713 C719 1.363 . S
C714 C715 1.363 . S
C714 C719 1.379 . S
C714 N721 1.356 . S
C715 C714 1.363 . S
C715 C718 1.363 . S
N716 C718 1.356 . S
N716 H728 0.984 . S
N716 H729 0.985 . S
N717 C719 1.356 . S
N717 H722 0.984 1_545 S
N717 H723 0.985 1_545 S
C718 C712 1.379 . S
C718 C715 1.363 . S
C718 N716 1.356 . S
C719 C713 1.363 . S
C719 C714 1.379 . S
C719 N717 1.356 . S
N720 C712 1.356 . S
N720 H726 0.984 . S
N720 H727 0.984 . S
N721 C714 1.356 . S
N721 H724 0.984 . S
N721 H725 0.985 . S
H722 N717 0.984 1_565 S
H723 N717 0.985 1_565 S
H724 N721 0.984 . S
H725 N721 0.985 . S
H726 N720 0.984 . S
H727 N720 0.984 . S
H728 N716 0.984 . S
H729 N716 0.985 . S
C730 C731 1.363 . S
C730 C736 1.379 . S
C730 N738 1.356 . S
C731 C730 1.363 . S
C731 C737 1.363 . S
C732 C733 1.363 . S
C732 C737 1.379 . S
C732 N739 1.356 . S
C733 C732 1.363 . S
C733 C736 1.363 . S
N734 C736 1.356 . S
N734 H746 0.984 . S
N734 H747 0.985 . S
N735 C737 1.356 . S
N735 H740 0.984 . S
N735 H741 0.985 1_545 S
C736 C730 1.379 . S
C736 C733 1.363 . S
C736 N734 1.356 . S
C737 C731 1.363 . S
C737 C732 1.379 . S
C737 N735 1.356 . S
N738 C730 1.356 . S
N738 H744 0.984 . S
N738 H745 0.984 . S
N739 C732 1.356 . S
N739 H742 0.984 . S
N739 H743 0.985 . S
H740 N735 0.984 . S
H741 N735 0.985 1_565 S
H742 N739 0.984 . S
H743 N739 0.985 . S
H744 N738 0.984 . S
H745 N738 0.984 . S
H746 N734 0.984 . S
H747 N734 0.985 . S
C748 C749 1.363 . S
C748 C754 1.379 . S
C748 N756 1.356 . S
C749 C748 1.363 . S
C749 C755 1.363 . S
C750 C751 1.363 . S
C750 C755 1.379 . S
C750 N757 1.356 . S
C751 C750 1.363 . S
C751 C754 1.363 . S
N752 C754 1.356 . S
N752 H764 0.984 . S
N752 H765 0.985 . S
N753 C755 1.356 . S
N753 H758 0.984 . S
N753 H759 0.985 . S
C754 C748 1.379 . S
C754 C751 1.363 . S
C754 N752 1.356 . S
C755 C749 1.363 . S
C755 C750 1.379 . S
C755 N753 1.356 . S
N756 C748 1.356 . S
N756 H762 0.984 . S
N756 H763 0.984 . S
N757 C750 1.356 . S
N757 H760 0.984 . S
N757 H761 0.985 . S
H758 N753 0.984 . S
H759 N753 0.985 . S
H760 N757 0.984 . S
H761 N757 0.985 . S
H762 N756 0.984 . S
H763 N756 0.984 . S
H764 N752 0.984 . S
H765 N752 0.985 . S
C766 C767 1.363 . S
C766 C772 1.379 . S
C766 N774 1.356 . S
C767 C766 1.363 . S
C767 C773 1.363 . S
C768 C769 1.363 . S
C768 C773 1.379 . S
C768 N775 1.356 . S
C769 C768 1.363 . S
C769 C772 1.363 . S
N770 C772 1.356 . S
N770 H782 0.984 . S
N770 H783 0.985 . S
N771 C773 1.356 . S
N771 H776 0.984 . S
N771 H777 0.985 . S
C772 C766 1.379 . S
C772 C769 1.363 . S
C772 N770 1.356 . S
C773 C767 1.363 . S
C773 C768 1.379 . S
C773 N771 1.356 . S
N774 C766 1.356 . S
N774 H780 0.984 . S
N774 H781 0.984 . S
N775 C768 1.356 . S
N775 H778 0.984 . S
N775 H779 0.985 . S
H776 N771 0.984 . S
H777 N771 0.985 . S
H778 N775 0.984 . S
H779 N775 0.985 . S
H780 N774 0.984 . S
H781 N774 0.984 . S
H782 N770 0.984 . S
H783 N770 0.985 . S
C211 C117 1.346 . S
C209 C5 1.393 . S
C229 C135 1.282 . S
C227 C18 1.380 . S
C247 C143 1.346 . S
C245 C31 1.394 . S
C263 C42 1.390 . S
C265 C109 1.284 . S
C281 C57 1.394 . S
C283 C104 1.344 . S
C299 C70 1.382 . S
C301 C122 1.282 . S
C319 C130 1.346 . S
C317 C81 1.408 . S
C337 C148 1.282 . S
C335 C96 1.382 . S
C353 C29 1.406 . S
C355 C169 1.346 . S
C373 C187 1.282 . S
C371 C44 1.380 . S
C389 C3 1.406 . S
C391 C195 1.347 . S
C409 C161 1.282 . S
C407 C16 1.392 . S
C425 C83 1.394 . S
C427 C156 1.345 . S
C443 C94 1.390 . S
C445 C174 1.280 . S
C463 C182 1.346 . S
C461 C55 1.408 . S
C479 C68 1.390 . S
C481 C200 1.282 . S
C499 C138 1.439 . S
C497 C1 1.384 . S
C517 C153 1.386 . S
C515 C14 1.388 . S
C533 C27 1.384 . S
C535 C112 1.439 . S
C551 C49 1.432 . S
C553 C127 1.387 . S
C569 C53 1.384 . S
C571 C151 1.438 . S
C589 C114 1.386 . S
C587 C66 1.389 . S
C607 C125 1.439 . S
C605 C88 1.427 . S
C625 C140 1.386 . S
C623 C92 1.389 . S
C643 C190 1.439 . S
C641 C36 1.426 . S
C661 C205 1.386 . S
C659 C40 1.388 . S
C677 C10 1.426 . S
C679 C164 1.438 . S
C697 C179 1.386 . S
C695 C23 1.434 . S
C715 C203 1.439 . S
C713 C79 1.383 . S
C731 C101 1.432 . S
C733 C166 1.386 . S
C751 C177 1.438 . S
C749 C62 1.427 . S
C769 C192 1.386 . S
C767 C75 1.432 . S
