# Generated by pormake.
# Topology zzz, (3,6)-cn, num edge types: 1
# Building blocks:
#     Node 0, Type 0, BuildingBlock: OLANEW_clean_sbu_2, # of connection points: 3
#     Node 1, Type 0, BuildingBlock: OLANEW_clean_sbu_2, # of connection points: 3
#     Node 2, Type 0, BuildingBlock: OLANEW_clean_sbu_2, # of connection points: 3
#     Node 3, Type 0, BuildingBlock: OLANEW_clean_sbu_2, # of connection points: 3
#     Node 4, Type 0, BuildingBlock: OLANEW_clean_sbu_2, # of connection points: 3
#     Node 5, Type 0, BuildingBlock: OLANEW_clean_sbu_2, # of connection points: 3
#     Node 6, Type 0, BuildingBlock: OLANEW_clean_sbu_2, # of connection points: 3
#     Node 7, Type 0, BuildingBlock: OLANEW_clean_sbu_2, # of connection points: 3
#     Node 8, Type 1, BuildingBlock: FUNLAD_clean_sbu_0, # of connection points: 6
#     Node 9, Type 1, BuildingBlock: FUNLAD_clean_sbu_0, # of connection points: 6
#     Node 10, Type 1, BuildingBlock: FUNLAD_clean_sbu_0, # of connection points: 6
#     Node 11, Type 1, BuildingBlock: FUNLAD_clean_sbu_0, # of connection points: 6
#     Edge 12, Type (0, 1), BuildingBlock: XUDNAN_clean_linker_2, # of connection points: 2
#     Edge 13, Type (0, 1), BuildingBlock: XUDNAN_clean_linker_2, # of connection points: 2
#     Edge 14, Type (0, 1), BuildingBlock: XUDNAN_clean_linker_2, # of connection points: 2
#     Edge 15, Type (0, 1), BuildingBlock: XUDNAN_clean_linker_2, # of connection points: 2
#     Edge 16, Type (0, 1), BuildingBlock: XUDNAN_clean_linker_2, # of connection points: 2
#     Edge 17, Type (0, 1), BuildingBlock: XUDNAN_clean_linker_2, # of connection points: 2
#     Edge 18, Type (0, 1), BuildingBlock: XUDNAN_clean_linker_2, # of connection points: 2
#     Edge 19, Type (0, 1), BuildingBlock: XUDNAN_clean_linker_2, # of connection points: 2
#     Edge 20, Type (0, 1), BuildingBlock: XUDNAN_clean_linker_2, # of connection points: 2
#     Edge 21, Type (0, 1), BuildingBlock: XUDNAN_clean_linker_2, # of connection points: 2
#     Edge 22, Type (0, 1), BuildingBlock: XUDNAN_clean_linker_2, # of connection points: 2
#     Edge 23, Type (0, 1), BuildingBlock: XUDNAN_clean_linker_2, # of connection points: 2
#     Edge 24, Type (0, 1), BuildingBlock: XUDNAN_clean_linker_2, # of connection points: 2
#     Edge 25, Type (0, 1), BuildingBlock: XUDNAN_clean_linker_2, # of connection points: 2
#     Edge 26, Type (0, 1), BuildingBlock: XUDNAN_clean_linker_2, # of connection points: 2
#     Edge 27, Type (0, 1), BuildingBlock: XUDNAN_clean_linker_2, # of connection points: 2
#     Edge 28, Type (0, 1), BuildingBlock: XUDNAN_clean_linker_2, # of connection points: 2
#     Edge 29, Type (0, 1), BuildingBlock: XUDNAN_clean_linker_2, # of connection points: 2
#     Edge 30, Type (0, 1), BuildingBlock: XUDNAN_clean_linker_2, # of connection points: 2
#     Edge 31, Type (0, 1), BuildingBlock: XUDNAN_clean_linker_2, # of connection points: 2
#     Edge 32, Type (0, 1), BuildingBlock: XUDNAN_clean_linker_2, # of connection points: 2
#     Edge 33, Type (0, 1), BuildingBlock: XUDNAN_clean_linker_2, # of connection points: 2
#     Edge 34, Type (0, 1), BuildingBlock: XUDNAN_clean_linker_2, # of connection points: 2
#     Edge 35, Type (0, 1), BuildingBlock: XUDNAN_clean_linker_2, # of connection points: 2
# Relax obj value: 0.111
# Max RMSD: 0.173
# Mean RMSD: 0.095
data_MOF--net-zzz--node1-OLANEW_clean_sbu_2--node2-FUNLAD_clean_sbu_0--edge1-XUDNAN_clean_linker_2
_symmetry_space_group_name_H-M    P1
_symmetry_Int_Tables_number       1
_symmetry_cell_setting            triclinic
loop_
_symmetry_equiv_pos_as_xyz
'x, y, z'
_cell_length_a     54.59762
_cell_length_b     59.56474
_cell_length_c     19.124132
_cell_angle_alpha  85.628955
_cell_angle_beta   85.779403
_cell_angle_gamma 90.417096
loop_
_atom_site_label
_atom_site_type_symbol
_atom_site_fract_x
_atom_site_fract_y
_atom_site_fract_z
_atom_type_partial_charge
O0 O 0.82475 0.3885 0.01283 0.0
Cd1 Cd 0.7883 0.36521 0.04674 0.0
O2 O 0.81926 0.40384 0.11334 0.0
Cd3 Cd 0.8298 0.4261 0.19246 0.0
O4 O 0.84679 0.44838 0.26102 0.0
C5 C 0.86954 0.44594 0.26905 0.0
O6 O 0.88152 0.43034 0.23604 0.0
C7 C 0.83126 0.4028 0.05404 0.0
C8 C 0.74917 0.38177 0.97334 0.0
O9 O 0.7538 0.38926 0.0321 0.0
O10 O 0.76286 0.36623 0.94975 0.0
O11 O 0.89066 0.80971 0.97073 0.0
Cd12 Cd 0.8739 0.77266 0.01372 0.0
O13 O 0.92758 0.80029 0.00037 0.0
Cd14 Cd 0.96372 0.8123 0.02442 0.0
O15 O 0.98613 0.83544 0.0767 0.0
C16 C 0.97463 0.85194 0.10123 0.0
O17 O 0.95113 0.85391 0.09182 0.0
C18 C 0.91307 0.81486 0.97521 0.0
C19 C 0.89161 0.7375 0.93711 0.0
O20 O 0.8728 0.7487 0.91925 0.0
O21 O 0.90231 0.74318 0.99069 0.0
O22 O 0.72393 0.94805 0.94873 0.0
Cd23 Cd 0.76193 0.92841 0.968 0.0
O24 O 0.72461 0.96418 0.04809 0.0
Cd25 Cd 0.70583 0.98312 0.12877 0.0
O26 O 0.67841 0.99598 0.20348 0.0
C27 C 0.66486 0.9819 0.2422 0.0
O28 O 0.66824 0.96027 0.23666 0.0
C29 C 0.71439 0.96127 0.99181 0.0
C30 C 0.80043 0.95115 0.88898 0.0
O31 O 0.78753 0.93642 0.86219 0.0
O32 O 0.79527 0.95493 0.95347 0.0
O33 O 0.59278 0.68413 0.89253 0.0
Cd34 Cd 0.61408 0.72027 0.89334 0.0
O35 O 0.59647 0.67979 0.00618 0.0
Cd36 Cd 0.58892 0.66174 0.1097 0.0
O37 O 0.5723 0.64008 0.19788 0.0
C38 C 0.58416 0.62649 0.23688 0.0
O39 O 0.60813 0.62537 0.22568 0.0
C40 C 0.5893 0.67224 0.9505 0.0
C41 C 0.58288 0.75697 0.88253 0.0
O42 O 0.59481 0.75031 0.82782 0.0
O43 O 0.58556 0.74616 0.94196 0.0
O44 O 0.20201 0.6101 0.40596 0.0
Cd45 Cd 0.24532 0.61688 0.37051 0.0
O46 O 0.20229 0.58289 0.3347 0.0
Cd47 Cd 0.18296 0.55782 0.28074 0.0
O48 O 0.16031 0.53991 0.21324 0.0
C49 C 0.14152 0.54971 0.19064 0.0
O50 O 0.13615 0.56987 0.21031 0.0
C51 C 0.19088 0.59421 0.38021 0.0
C52 C 0.27348 0.59069 0.46005 0.0
O53 O 0.26941 0.61138 0.47043 0.0
O54 O 0.26456 0.5826 0.40702 0.0
O55 O 0.11224 0.19216 0.59921 0.0
Cd56 Cd 0.13381 0.22864 0.5899 0.0
O57 O 0.10123 0.19948 0.49179 0.0
Cd58 Cd 0.08123 0.18935 0.40434 0.0
O59 O 0.0635 0.16327 0.35131 0.0
C60 C 0.06606 0.16221 0.28517 0.0
O61 O 0.07888 0.17797 0.24647 0.0
C62 C 0.10189 0.18594 0.54638 0.0
C63 C 0.10465 0.26694 0.59192 0.0
O64 O 0.1093 0.25713 0.53513 0.0
O65 O 0.11323 0.25829 0.64838 0.0
O66 O 0.29688 0.05375 0.55691 0.0
Cd67 Cd 0.2591 0.07231 0.52807 0.0
O68 O 0.31617 0.06715 0.45749 0.0
Cd69 Cd 0.34764 0.06713 0.38002 0.0
O70 O 0.37607 0.05796 0.3016 0.0
C71 C 0.38446 0.03812 0.30785 0.0
O72 O 0.37624 0.0245 0.36192 0.0
C73 C 0.3161 0.05504 0.51517 0.0
C74 C 0.22017 0.04454 0.58345 0.0
O75 O 0.23097 0.04178 0.523 0.0
O76 O 0.22743 0.06081 0.61728 0.0
O77 O 0.51623 0.32133 0.3982 0.0
Cd78 Cd 0.52628 0.29122 0.32164 0.0
O79 O 0.47648 0.31526 0.39825 0.0
Cd80 Cd 0.48151 0.29994 0.29875 0.0
O81 O 0.4801 0.32375 0.20695 0.0
C82 C 0.46221 0.33725 0.21114 0.0
O83 O 0.44578 0.33426 0.26489 0.0
C84 C 0.49443 0.32513 0.4222 0.0
C85 C 0.5156 0.24967 0.39546 0.0
O86 O 0.53678 0.25903 0.39631 0.0
O87 O 0.49968 0.2598 0.3589 0.0
C88 C 0.99569 0.95737 0.80701 0.0
N89 N 0.01197 0.97208 0.58952 0.0
C90 C 0.02315 0.95174 0.58923 0.0
C91 C 0.02426 0.93982 0.52912 0.0
C92 C 0.01367 0.94881 0.46855 0.0
C93 C 0.00219 0.96983 0.47025 0.0
C94 C 0.00162 0.98127 0.53156 0.0
Zn95 Zn 0.01114 0.9885 0.67983 0.0
C96 C 0.96177 0.0055 0.72059 0.0
N97 N 0.01028 0.02145 0.87006 0.0
C98 C 0.02144 0.01228 0.92661 0.0
C99 C 0.00062 0.04245 0.8696 0.0
C100 C 0.003 0.05551 0.92623 0.0
C101 C 0.01521 0.04679 0.98417 0.0
C102 C 0.024 0.02469 0.9848 0.0
Zn103 Zn 0.01049 0.00493 0.78055 0.0
O104 O -0.00031 0.95798 0.74049 0.0
C105 C 0.0598 0.98746 0.7395 0.0
O106 O -0.00024 0.9748 0.83886 0.0
H107 H 0.99174 0.04939 0.82421 0.0
H108 H 0.03115 0.94466 0.63594 0.0
H109 H 0.02911 0.99561 0.92561 0.0
O110 O 0.0482 0.98086 0.68961 0.0
O111 O 0.04844 0.99795 0.78716 0.0
H112 H 0.99287 0.99748 0.53291 0.0
O113 O 0.02065 0.03499 0.72192 0.0
O114 O 0.02254 0.01958 0.62127 0.0
O115 O 0.97289 0.01159 0.77225 0.0
O116 O 0.97376 0.9962 0.67139 0.0
C117 C 0.02515 0.03679 0.65576 0.0
H118 H 0.0329 0.9235 0.53058 0.0
H119 H 0.99392 0.97741 0.42455 0.0
H120 H 0.99574 0.07241 0.92422 0.0
H121 H 0.03369 0.01746 0.02837 0.0
C122 C 0.47118 0.0055 0.68691 0.0
N123 N 0.514 0.06017 0.73152 0.0
C124 C 0.4922 0.07059 0.74407 0.0
C125 C 0.48901 0.09277 0.71766 0.0
C126 C 0.50831 0.10429 0.67698 0.0
C127 C 0.53113 0.09362 0.66896 0.0
C128 C 0.5336 0.07147 0.697 0.0
Zn129 Zn 0.51487 0.02591 0.75001 0.0
C130 C 0.48718 0.00912 0.88162 0.0
N131 N 0.5138 0.95412 0.77565 0.0
C132 C 0.51099 0.94015 0.72358 0.0
C133 C 0.51813 0.94581 0.84179 0.0
C134 C 0.51975 0.92271 0.85783 0.0
C135 C 0.51712 0.90787 0.80527 0.0
C136 C 0.51273 0.91681 0.73726 0.0
Zn137 Zn 0.51308 0.98841 0.75787 0.0
O138 O 0.48215 0.02369 0.69743 0.0
C139 C 0.54119 0.00547 0.62709 0.0
O140 O 0.48001 0.98675 0.70826 0.0
H141 H 0.52071 0.95714 0.88224 0.0
H142 H 0.47678 0.0613 0.77114 0.0
H143 H 0.50765 0.94713 0.6713 0.0
O144 O 0.53562 0.02386 0.65342 0.0
O145 O 0.5338 0.98696 0.65961 0.0
H146 H 0.55076 0.06287 0.68739 0.0
O147 O 0.54602 0.99052 0.80674 0.0
O148 O 0.5479 0.02744 0.80235 0.0
O149 O 0.49262 0.99054 0.85617 0.0
O150 O 0.49408 0.02746 0.84734 0.0
C151 C 0.55704 0.00841 0.81971 0.0
H152 H 0.47126 0.10045 0.72659 0.0
H153 H 0.54651 0.10173 0.63766 0.0
H154 H 0.52367 0.91656 0.91056 0.0
H155 H 0.51058 0.90588 0.69532 0.0
C156 C 0.49826 0.46058 0.68058 0.0
N157 N 0.45265 0.51264 0.74162 0.0
C158 C 0.44512 0.50983 0.67654 0.0
C159 C 0.42133 0.51507 0.66063 0.0
C160 C 0.4051 0.5237 0.71158 0.0
C161 C 0.41331 0.52723 0.77776 0.0
C162 C 0.43737 0.52131 0.79207 0.0
Zn163 Zn 0.4877 0.5024 0.75701 0.0
C164 C 0.49089 0.46948 0.87583 0.0
N165 N 0.5609 0.47934 0.7713 0.0
C166 C 0.57548 0.47382 0.71455 0.0
C167 C 0.56822 0.4757 0.83763 0.0
C168 C 0.59053 0.46531 0.84914 0.0
C169 C 0.60568 0.45876 0.79178 0.0
C170 C 0.59809 0.46359 0.7236 0.0
Zn171 Zn 0.52617 0.49073 0.75892 0.0
O172 O 0.48124 0.47348 0.70119 0.0
C173 C 0.52186 0.52325 0.6379 0.0
O174 O 0.52013 0.46459 0.69457 0.0
H175 H 0.55635 0.48018 0.88207 0.0
H176 H 0.45756 0.50331 0.63661 0.0
H177 H 0.56927 0.47682 0.66227 0.0
O178 O 0.4998 0.52113 0.66354 0.0
O179 O 0.53862 0.51254 0.6686 0.0
H180 H 0.44376 0.52347 0.84338 0.0
O181 O 0.53193 0.51678 0.82427 0.0
O182 O 0.49511 0.53089 0.81377 0.0
O183 O 0.5127 0.46906 0.84758 0.0
O184 O 0.47576 0.48341 0.85047 0.0
C185 C 0.51623 0.53179 0.83766 0.0
H186 H 0.41566 0.51249 0.60867 0.0
H187 H 0.40116 0.534 0.81806 0.0
H188 H 0.59533 0.46169 0.90272 0.0
H189 H 0.60931 0.45922 0.67768 0.0
C190 C 0.03952 0.53076 0.62003 0.0
N191 N 0.02612 0.46178 0.68143 0.0
C192 C 0.03266 0.45792 0.61342 0.0
C193 C 0.03984 0.43651 0.59575 0.0
C194 C 0.0401 0.41871 0.64839 0.0
C195 C 0.03381 0.42332 0.71844 0.0
C196 C 0.02689 0.44507 0.73386 0.0
Zn197 Zn 0.01262 0.49273 0.70298 0.0
C198 C 0.03612 0.51191 0.82052 0.0
N199 N 0.9826 0.55669 0.74571 0.0
C200 C 0.9787 0.57148 0.68998 0.0
C201 C 0.9767 0.56191 0.81287 0.0
C202 C 0.96602 0.58258 0.82587 0.0
C203 C 0.96137 0.59801 0.76919 0.0
C204 C 0.96812 0.59231 0.70056 0.0
Zn205 Zn 0.99672 0.5259 0.72617 0.0
O206 O 0.04033 0.50943 0.63103 0.0
C207 C 0.97321 0.50597 0.60912 0.0
O208 O 0.02284 0.54145 0.6526 0.0
H209 H 0.97994 0.54989 0.85641 0.0
H210 H 0.03185 0.47139 0.57245 0.0
H211 H 0.98359 0.56705 0.63701 0.0
O212 O 0.98915 0.49105 0.62129 0.0
O213 O 0.97184 0.52286 0.64598 0.0
H214 H 0.02156 0.44846 0.78758 0.0
O215 O 0.9708 0.51028 0.79973 0.0
O216 O 0.98447 0.47699 0.7755 0.0
O217 O 0.0217 0.52807 0.80635 0.0
O218 O 0.03596 0.49466 0.78528 0.0
C219 C 0.96943 0.489 0.80995 0.0
H220 H 0.045 0.43394 0.54121 0.0
H221 H 0.03349 0.41014 0.76076 0.0
H222 H 0.96089 0.58618 0.87961 0.0
H223 H 0.96525 0.60382 0.65536 0.0
H224 H 0.18557 0.05213 0.68977 0.0
H225 H 0.20841 0.00322 0.54196 0.0
H226 H 0.17286 0.97899 0.58569 0.0
H227 H 0.15842 0.01124 0.83424 0.0
H228 H 0.13337 0.02975 0.85488 0.0
H229 H 0.16294 0.04133 0.82159 0.0
H230 H 0.14267 0.06387 0.72006 0.0
H231 H 0.11317 0.05258 0.75362 0.0
H232 H 0.12407 0.0491 0.66388 0.0
H233 H 0.13242 0.96295 0.63188 0.0
H234 H 0.0885 0.95776 0.67044 0.0
H235 H 0.09159 0.01671 0.7894 0.0
C236 C 0.18342 0.03604 0.66796 0.0
C237 C 0.1998 0.02945 0.61289 0.0
C238 C 0.19607 0.00857 0.58431 0.0
C239 C 0.17607 0.9946 0.60927 0.0
C240 C 0.16 0.00173 0.6629 0.0
C241 C 0.1634 0.022 0.69183 0.0
C242 C 0.1418 0.02713 0.7422 0.0
C243 C 0.14961 0.02737 0.81771 0.0
C244 C 0.12972 0.04947 0.71847 0.0
C245 C 0.12526 0.00707 0.73465 0.0
C246 C 0.13636 0.99237 0.68987 0.0
C247 C 0.12372 0.97401 0.6683 0.0
C248 C 0.0988 0.97118 0.6905 0.0
C249 C 0.08682 0.98666 0.73362 0.0
C250 C 0.1005 0.00423 0.7583 0.0
H251 H 0.54487 0.22471 0.48202 0.0
H252 H 0.47267 0.22547 0.40056 0.0
H253 H 0.46243 0.18924 0.46798 0.0
H254 H 0.55467 0.16569 0.47657 0.0
H255 H 0.57002 0.16291 0.55701 0.0
H256 H 0.57147 0.18925 0.50398 0.0
H257 H 0.55409 0.20979 0.61124 0.0
H258 H 0.55254 0.18348 0.6646 0.0
H259 H 0.5254 0.20029 0.65707 0.0
H260 H 0.46049 0.15248 0.54046 0.0
H261 H 0.46704 0.11728 0.61215 0.0
H262 H 0.54005 0.14081 0.65021 0.0
C263 C 0.52688 0.21729 0.47846 0.0
C264 C 0.50957 0.22793 0.43594 0.0
C265 C 0.48624 0.21765 0.43274 0.0
C266 C 0.48022 0.19709 0.47094 0.0
C267 C 0.49769 0.18707 0.51232 0.0
C268 C 0.52053 0.1968 0.51641 0.0
C269 C 0.5361 0.1823 0.56389 0.0
C270 C 0.55944 0.17458 0.52289 0.0
C271 C 0.54239 0.19471 0.628 0.0
C272 C 0.51852 0.16277 0.58512 0.0
C273 C 0.49644 0.16593 0.555 0.0
C274 C 0.47758 0.14992 0.56506 0.0
C275 C 0.48143 0.13003 0.60651 0.0
C276 C 0.50398 0.12628 0.63777 0.0
C277 C 0.52264 0.14306 0.6271 0.0
H278 H 0.30633 0.60451 0.55035 0.0
H279 H 0.27429 0.54484 0.47502 0.0
H280 H 0.30045 0.52089 0.54875 0.0
H281 H 0.36615 0.58534 0.54272 0.0
H282 H 0.37485 0.59792 0.62018 0.0
H283 H 0.3509 0.61023 0.57074 0.0
H284 H 0.32117 0.60714 0.68322 0.0
H285 H 0.34507 0.59465 0.73299 0.0
H286 H 0.31599 0.58019 0.73189 0.0
H287 H 0.33282 0.50367 0.61839 0.0
H288 H 0.37137 0.49436 0.67347 0.0
H289 H 0.38321 0.56484 0.70371 0.0
C290 C 0.30444 0.58639 0.55073 0.0
C291 C 0.28817 0.57649 0.50745 0.0
C292 C 0.28662 0.55275 0.50789 0.0
C293 C 0.30126 0.53901 0.55001 0.0
C294 C 0.31737 0.54927 0.59136 0.0
C295 C 0.31914 0.57242 0.59195 0.0
C296 C 0.33989 0.57918 0.63487 0.0
C297 C 0.35908 0.59403 0.5894 0.0
C298 C 0.32992 0.59099 0.69959 0.0
C299 C 0.35006 0.55626 0.65609 0.0
C300 C 0.33643 0.53923 0.6316 0.0
C301 C 0.34336 0.51678 0.63907 0.0
C302 C 0.36521 0.51164 0.67039 0.0
C303 C 0.37985 0.52887 0.69363 0.0
C304 C 0.37186 0.55136 0.68818 0.0
H305 H 0.10228 0.29765 0.69201 0.0
H306 H 0.0763 0.28457 0.48971 0.0
H307 H 0.05541 0.32125 0.48485 0.0
H308 H 0.04814 0.32753 0.75869 0.0
H309 H 0.06605 0.34747 0.80049 0.0
H310 H 0.07728 0.31943 0.79074 0.0
H311 H 0.11749 0.33607 0.726 0.0
H312 H 0.10636 0.36413 0.73532 0.0
H313 H 0.11584 0.35543 0.64934 0.0
H314 H 0.0386 0.3598 0.49996 0.0
H315 H 0.0276 0.39785 0.53264 0.0
H316 H 0.06638 0.3867 0.72238 0.0
C317 C 0.09186 0.30234 0.64723 0.0
C318 C 0.09076 0.28818 0.59143 0.0
C319 C 0.07733 0.29512 0.53312 0.0
C320 C 0.06537 0.3159 0.52995 0.0
C321 C 0.06713 0.32959 0.58532 0.0
C322 C 0.08005 0.32313 0.64285 0.0
C323 C 0.08019 0.34152 0.69345 0.0
C324 C 0.06713 0.3335 0.76508 0.0
C325 C 0.10653 0.34977 0.70146 0.0
C326 C 0.06553 0.3594 0.65504 0.0
C327 C 0.058 0.3521 0.59311 0.0
C328 C 0.04445 0.36572 0.54826 0.0
C329 C 0.03849 0.38742 0.56704 0.0
C330 C 0.04627 0.39546 0.62988 0.0
C331 C 0.05989 0.38108 0.67441 0.0
H332 H 0.8369 0.97612 0.93727 0.0
H333 H 0.81082 0.95258 0.74646 0.0
H334 H 0.84677 0.97051 0.6777 0.0
H335 H 0.86521 0.03006 0.8585 0.0
H336 H 0.89085 0.02729 0.91266 0.0
H337 H 0.8612 0.01575 0.94517 0.0
H338 H 0.88052 0.97643 0.96863 0.0
H339 H 0.91013 0.98794 0.93704 0.0
H340 H 0.89796 0.96407 0.89788 0.0
H341 H 0.88789 0.98651 0.63258 0.0
H342 H 0.93185 0.99713 0.61629 0.0
H343 H 0.93077 0.0107 0.83622 0.0
C344 C 0.83844 0.97521 0.88078 0.0
C345 C 0.821 0.96311 0.84709 0.0
C346 C 0.82395 0.96183 0.77331 0.0
C347 C 0.84421 0.9721 0.73375 0.0
C348 C 0.86128 0.98364 0.76875 0.0
C349 C 0.85861 0.98521 0.84068 0.0
C350 C 0.88087 0.99624 0.86687 0.0
C351 C 0.87412 0.01867 0.89761 0.0
C352 C 0.89308 0.98021 0.92073 0.0
C353 C 0.8968 1.00002 0.79881 0.0
C354 C 0.88506 0.99297 0.74258 0.0
C355 C 0.89711 0.99254 0.67585 0.0
C356 C 0.92207 0.99863 0.66705 0.0
C357 C 0.93466 0.00496 0.72479 0.0
C358 C 0.92153 0.0065 0.79063 0.0
H359 H 0.58275 0.78991 0.77429 0.0
H360 H 0.54804 0.76967 0.98119 0.0
H361 H 0.52381 0.80451 0.97737 0.0
H362 H 0.59011 0.84661 0.80329 0.0
H363 H 0.5843 0.85738 0.71548 0.0
H364 H 0.59651 0.82959 0.73023 0.0
H365 H 0.56029 0.81289 0.6698 0.0
H366 H 0.54794 0.84069 0.65492 0.0
H367 H 0.52917 0.81853 0.70134 0.0
H368 H 0.50608 0.84266 0.95597 0.0
H369 H 0.49719 0.88229 0.92038 0.0
H370 H 0.54409 0.87832 0.7286 0.0
C371 C 0.56966 0.79259 0.81811 0.0
C372 C 0.56712 0.77702 0.87783 0.0
C373 C 0.55022 0.78135 0.93484 0.0
C374 C 0.53629 0.80103 0.93301 0.0
C375 C 0.5395 0.81621 0.87384 0.0
C376 C 0.55578 0.81226 0.81742 0.0
C377 C 0.55733 0.83219 0.76298 0.0
C378 C 0.58362 0.84202 0.75242 0.0
C379 C 0.54813 0.82568 0.69312 0.0
C380 C 0.53985 0.84817 0.79844 0.0
C381 C 0.52951 0.83848 0.86188 0.0
C382 C 0.51387 0.85036 0.9061 0.0
C383 C 0.50902 0.87287 0.88562 0.0
C384 C 0.51992 0.88333 0.82172 0.0
C385 C 0.53513 0.87063 0.77705 0.0
H386 H 0.72044 0.41801 0.00181 0.0
H387 H 0.73169 0.36622 0.85516 0.0
H388 H 0.69735 0.38132 0.78949 0.0
H389 H 0.65517 0.41797 0.0084 0.0
H390 H 0.65267 0.448 0.01267 0.0
H391 H 0.67855 0.43349 0.04688 0.0
H392 H 0.70824 0.46001 0.96634 0.0
H393 H 0.68242 0.4746 0.93181 0.0
H394 H 0.70515 0.46263 0.87287 0.0
H395 H 0.66064 0.40103 0.74306 0.0
H396 H 0.62435 0.42389 0.71898 0.0
H397 H 0.63843 0.46398 0.89265 0.0
C398 C 0.71573 0.40985 0.95581 0.0
C399 C 0.72871 0.39089 0.93369 0.0
C400 C 0.72201 0.38077 0.87307 0.0
C401 C 0.70255 0.38923 0.83538 0.0
C402 C 0.69013 0.40793 0.85867 0.0
C403 C 0.6965 0.41817 0.91731 0.0
C404 C 0.68002 0.43788 0.93177 0.0
C405 C 0.66576 0.43409 0.00422 0.0
C406 C 0.69485 0.46009 0.92529 0.0
C407 C 0.66313 0.4369 0.87274 0.0
C408 C 0.6693 0.41956 0.83106 0.0
C409 C 0.65581 0.41485 0.7748 0.0
C410 C 0.6353 0.42808 0.76121 0.0
C411 C 0.6285 0.4459 0.80354 0.0
C412 C 0.64291 0.45042 0.8595 0.0
H413 H 0.92822 0.708 0.96962 0.0
H414 H 0.87418 0.72298 0.81758 0.0
H415 H 0.8871 0.6896 0.75604 0.0
H416 H 0.97553 0.68737 0.84703 0.0
H417 H 0.98508 0.66565 0.90971 0.0
H418 H 0.97241 0.69136 0.93976 0.0
H419 H 0.9395 0.66829 0.02018 0.0
H420 H 0.95198 0.64253 0.99015 0.0
H421 H 0.91998 0.64867 0.98229 0.0
H422 H 0.90464 0.65385 0.71393 0.0
H423 H 0.92572 0.6182 0.69369 0.0
H424 H 0.96864 0.62663 0.87248 0.0
C425 C 0.91926 0.70441 0.92297 0.0
C426 C 0.90022 0.71814 0.8983 0.0
C427 C 0.88883 0.71273 0.83741 0.0
C428 C 0.89605 0.69381 0.80205 0.0
C429 C 0.91468 0.6805 0.82821 0.0
C430 C 0.92619 0.68557 0.88714 0.0
C431 C 0.94521 0.66812 0.90555 0.0
C432 C 0.97109 0.67877 0.90016 0.0
C433 C 0.93877 0.6562 0.97888 0.0
C434 C 0.94241 0.65233 0.84817 0.0
C435 C 0.92479 0.65985 0.80394 0.0
C436 C 0.91863 0.6479 0.74781 0.0
C437 C 0.93082 0.62772 0.73654 0.0
C438 C 0.94895 0.61965 0.78121 0.0
C439 C 0.95476 0.63223 0.83767 0.0
H440 H 0.07597 0.16241 0.65665 0.0
H441 H 0.10488 0.1573 0.44134 0.0
H442 H 0.08578 0.11955 0.44197 0.0
H443 H 0.08685 0.10476 0.71428 0.0
H444 H 0.05949 0.10213 0.77323 0.0
H445 H 0.07444 0.12916 0.75388 0.0
H446 H 0.0336 0.14593 0.71349 0.0
H447 H 0.01866 0.11885 0.73215 0.0
H448 H 0.01834 0.13317 0.64573 0.0
H449 H 0.0639 0.08178 0.4673 0.0
H450 H 0.04347 0.04633 0.51827 0.0
H451 H 0.03 0.07618 0.71749 0.0
C452 C 0.07814 0.15335 0.60963 0.0
C453 C 0.09103 0.16309 0.548 0.0
C454 C 0.09403 0.15056 0.48797 0.0
C455 C 0.08348 0.12901 0.48808 0.0
C456 C 0.07031 0.12007 0.54911 0.0
C457 C 0.06783 0.13176 0.60903 0.0
C458 C 0.05366 0.11803 0.66866 0.0
C459 C 0.06956 0.11323 0.73118 0.0
C460 C 0.02964 0.12969 0.69131 0.0
C461 C 0.04865 0.0968 0.63305 0.0
C462 C 0.05825 0.09828 0.56402 0.0
C463 C 0.05626 0.08044 0.52133 0.0
C464 C 0.04455 0.06042 0.55056 0.0
C465 C 0.03509 0.05845 0.62175 0.0
C466 C 0.03694 0.07709 0.6628 0.0
H467 H 0.36397 0.06912 0.50012 0.0
H468 H 0.31678 0.01218 0.57487 0.0
H469 H 0.35289 0.99106 0.61353 0.0
H470 H 0.41918 0.03634 0.4436 0.0
H471 H 0.43973 0.05669 0.47397 0.0
H472 H 0.41082 0.06558 0.44194 0.0
H473 H 0.39971 0.08352 0.55961 0.0
H474 H 0.42839 0.07442 0.59186 0.0
H475 H 0.3999 0.0663 0.6413 0.0
H476 H 0.39345 0.97736 0.65196 0.0
H477 H 0.43468 0.97342 0.69679 0.0
H478 H 0.45474 0.04016 0.60214 0.0
C479 C 0.36143 0.05195 0.52258 0.0
C480 C 0.33782 0.04201 0.53334 0.0
C481 C 0.33488 0.01991 0.56573 0.0
C482 C 0.35525 0.00777 0.58734 0.0
C483 C 0.37834 0.0181 0.57663 0.0
C484 C 0.38152 0.03975 0.54532 0.0
C485 C 0.40774 0.04795 0.54707 0.0
C486 C 0.4201 0.05186 0.47219 0.0
C487 C 0.40899 0.0693 0.58738 0.0
C488 C 0.41855 0.02789 0.58673 0.0
C489 C 0.40151 0.01061 0.60161 0.0
C490 C 0.40704 0.99069 0.6401 0.0
C491 C 0.43047 0.98859 0.66529 0.0
C492 C 0.44778 0.00651 0.65306 0.0
C493 C 0.44182 0.0262 0.61226 0.0
H494 H 0.52849 0.35075 0.47965 0.0
H495 H 0.44988 0.34022 0.47383 0.0
H496 H 0.44224 0.3733 0.54212 0.0
H497 H 0.52637 0.37051 0.65794 0.0
H498 H 0.55081 0.39077 0.63409 0.0
H499 H 0.54991 0.36507 0.59038 0.0
H500 H 0.55121 0.38838 0.46999 0.0
H501 H 0.55174 0.41414 0.51334 0.0
H502 H 0.52818 0.40937 0.45467 0.0
H503 H 0.44323 0.40945 0.60162 0.0
H504 H 0.45279 0.44438 0.6565 0.0
H505 H 0.53071 0.43093 0.62373 0.0
C506 C 0.50965 0.35509 0.4939 0.0
C507 C 0.48979 0.34286 0.47143 0.0
C508 C 0.46541 0.34926 0.49069 0.0
C509 C 0.46087 0.36807 0.52931 0.0
C510 C 0.48089 0.38016 0.54867 0.0
C511 C 0.50479 0.37376 0.53246 0.0
C512 C 0.52305 0.39009 0.55724 0.0
C513 C 0.53844 0.37841 0.61326 0.0
C514 C 0.53951 0.40114 0.49509 0.0
C515 C 0.50568 0.4069 0.58871 0.0
C516 C 0.48144 0.40088 0.58335 0.0
C517 C 0.46213 0.41422 0.60681 0.0
C518 C 0.46776 0.43408 0.63752 0.0
C519 C 0.49249 0.44035 0.6445 0.0
C520 C 0.51162 0.42657 0.6194 0.0
H521 H 0.16979 0.55252 0.40854 0.0
H522 H 0.15453 0.62381 0.4098 0.0
H523 H 0.11213 0.61482 0.45915 0.0
H524 H 0.10734 0.53382 0.3682 0.0
H525 H 0.10847 0.50853 0.42594 0.0
H526 H 0.13636 0.52054 0.38154 0.0
H527 H 0.15528 0.52212 0.50146 0.0
H528 H 0.12749 0.51028 0.54626 0.0
H529 H 0.13932 0.53678 0.56988 0.0
H530 H 0.07317 0.5984 0.51653 0.0
H531 H 0.04047 0.57593 0.58468 0.0
H532 H 0.08111 0.51484 0.54973 0.0
C533 C 0.15721 0.56619 0.41689 0.0
C534 C 0.16509 0.58886 0.40385 0.0
C535 C 0.14862 0.60636 0.41874 0.0
C536 C 0.12454 0.6014 0.44637 0.0
C537 C 0.11736 0.57886 0.45917 0.0
C538 C 0.13319 0.56151 0.44511 0.0
C539 C 0.12166 0.53881 0.4702 0.0
C540 C 0.11825 0.52458 0.40775 0.0
C541 C 0.13684 0.52627 0.52522 0.0
C542 C 0.09716 0.54615 0.5028 0.0
C543 C 0.09495 0.5693 0.4945 0.0
C544 C 0.07457 0.58025 0.52281 0.0
C545 C 0.05612 0.56729 0.56169 0.0
C546 C 0.05822 0.54358 0.57274 0.0
C547 C 0.07888 0.53288 0.54178 0.0
H548 H 0.95452 0.82874 0.89478 0.0
H549 H 0.89101 0.85323 0.01417 0.0
H550 H 0.9069 0.89234 0.98997 0.0
H551 H -0.00081 0.8685 0.94398 0.0
H552 H 0.01517 0.87165 0.85784 0.0
H553 H -0.00062 0.8456 0.88754 0.0
H554 H 0.9742 0.84882 0.77735 0.0
H555 H 0.99 0.8748 0.74733 0.0
H556 H 0.95693 0.87397 0.75857 0.0
H557 H 0.93073 0.92828 0.95764 0.0
H558 H 0.95721 0.95961 0.90321 0.0
H559 H 0.0032 0.91219 0.79477 0.0
C560 C 0.94406 0.8424 0.91582 0.0
C561 C 0.92177 0.83815 0.95703 0.0
C562 C 0.90818 0.8563 0.98261 0.0
C563 C 0.91714 0.87847 0.96957 0.0
C564 C 0.93944 0.88211 0.92973 0.0
C565 C 0.95247 0.86464 0.90194 0.0
C566 C 0.97514 0.87326 0.8572 0.0
C567 C -0.00139 0.86421 0.88852 0.0
C568 C 0.97398 0.86737 0.78057 0.0
C569 C 0.97275 0.89834 0.86369 0.0
C570 C 0.95237 0.90299 0.90728 0.0
C571 C 0.94665 0.92486 0.92315 0.0
C572 C 0.96189 0.94249 0.89245 0.0
C573 C 0.98221 0.93818 0.84521 0.0
C574 C 0.98775 0.91584 0.83082 0.0
H575 H 0.67564 0.94331 0.93367 0.0
H576 H 0.70145 0.00469 0.01359 0.0
H577 H 0.66325 0.02385 0.98153 0.0
H578 H 0.64836 0.96866 0.78616 0.0
H579 H 0.6227 0.94922 0.79258 0.0
H580 H 0.6515 0.94036 0.82488 0.0
H581 H 0.62955 0.92887 0.94746 0.0
H582 H 0.60064 0.93761 0.91537 0.0
H583 H 0.61127 0.94925 0.99217 0.0
H584 H 0.62287 0.03675 0.93246 0.0
H585 H 0.58312 0.04133 0.87795 0.0
H586 H 0.58448 0.97083 0.83476 0.0
C587 C 0.67313 0.96073 0.94493 0.0
C588 C 0.6912 0.97249 0.97688 0.0
C589 C 0.68744 0.99528 0.99064 0.0
C590 C 0.66594 0.00632 0.9721 0.0
C591 C 0.64843 0.99423 0.94032 0.0
C592 C 0.65175 0.97185 0.92758 0.0
C593 C 0.6304 0.96255 0.89251 0.0
C594 C 0.63875 0.95475 0.81972 0.0
C595 C 0.61719 0.94344 0.93971 0.0
C596 C 0.61469 0.98326 0.88637 0.0
C597 C 0.62529 0.00143 0.9139 0.0
C598 C 0.61429 0.02255 0.91141 0.0
C599 C 0.5918 0.02503 0.88025 0.0
C600 C 0.58063 0.00643 0.85265 0.0
C601 C 0.59235 0.98536 0.85608 0.0
H602 H 0.55264 0.65921 0.87138 0.0
H603 H 0.60052 0.63431 0.03023 0.0
H604 H 0.58191 0.59649 0.03115 0.0
H605 H 0.49846 0.62282 0.93296 0.0
H606 H 0.49098 0.61856 0.84464 0.0
H607 H 0.5056 0.64447 0.86315 0.0
H608 H 0.54068 0.63827 0.76796 0.0
H609 H 0.52613 0.61247 0.74901 0.0
H610 H 0.55748 0.61231 0.77269 0.0
H611 H 0.56244 0.56082 0.00438 0.0
H612 H 0.54349 0.52926 0.95042 0.0
H613 H 0.50725 0.5766 0.81001 0.0
C614 C 0.55881 0.64585 0.90727 0.0
C615 C 0.57738 0.64984 0.95268 0.0
C616 C 0.58549 0.63188 0.9976 0.0
C617 C 0.57518 0.61028 0.99798 0.0
C618 C 0.5568 0.6069 0.95297 0.0
C619 C 0.54863 0.62415 0.9084 0.0
C620 C 0.5301 0.61554 0.86117 0.0
C621 C 0.50478 0.62597 0.87642 0.0
C622 C 0.53915 0.6199 0.78311 0.0
C623 C 0.5298 0.59063 0.88444 0.0
C624 C 0.54519 0.58609 0.93796 0.0
C625 C 0.54991 0.56417 0.96365 0.0
C626 C 0.5391 0.54638 0.93274 0.0
C627 C 0.5236 0.55062 0.87727 0.0
C628 C 0.5184 0.57301 0.85399 0.0
H629 H 0.87222 0.39445 0.96907 0.0
H630 H 0.83634 0.44668 0.08363 0.0
H631 H 0.87038 0.47294 0.0437 0.0
H632 H 0.9362 0.41086 0.99309 0.0
H633 H 0.94692 0.40497 0.90505 0.0
H634 H 0.9213 0.38925 0.94983 0.0
H635 H 0.89464 0.40058 0.84646 0.0
H636 H 0.92013 0.41632 0.80148 0.0
H637 H 0.89123 0.42997 0.81929 0.0
H638 H 0.90604 0.49441 0.98421 0.0
H639 H 0.94082 0.51025 0.90645 0.0
H640 H 0.95355 0.44474 0.82604 0.0
C641 C 0.87181 0.4113 0.98671 0.0
C642 C 0.85218 0.41823 0.03213 0.0
C643 C 0.85186 0.44058 0.05243 0.0
C644 C 0.87098 0.45574 0.02913 0.0
C645 C 0.89014 0.44836 0.98485 0.0
C646 C 0.89072 0.42671 0.96356 0.0
C647 C 0.91254 0.42363 0.91152 0.0
C648 C 0.93029 0.40614 0.9417 0.0
C649 C 0.90412 0.41725 0.84049 0.0
C650 C 0.92377 0.4471 0.90565 0.0
C651 C 0.91064 0.46098 0.94899 0.0
C652 C 0.91662 0.48367 0.95053 0.0
C653 C 0.93638 0.49251 0.90595 0.0
C654 C 0.94993 0.47872 0.86023 0.0
C655 C 0.94371 0.45562 0.86094 0.0
H656 H 0.0631 0.15699 0.14488 0.0
H657 H 0.0462 0.12334 0.35255 0.0
H658 H 0.03059 0.09025 0.29854 0.0
H659 H 0.0099 0.13638 0.06608 0.0
H660 H 0.02643 0.1333 0.9823 0.0
H661 H 0.03594 0.15445 0.03749 0.0
H662 H 0.07976 0.13788 0.03405 0.0
H663 H 0.07036 0.1167 0.97888 0.0
H664 H 0.08365 0.10848 0.06035 0.0
H665 H 0.01835 0.06015 0.22134 0.0
H666 H 0.00898 0.03604 0.12646 0.0
H667 H 0.03311 0.08986 0.97047 0.0
C668 C 0.05601 0.14272 0.17905 0.0
C669 C 0.05584 0.14277 0.25288 0.0
C670 C 0.0464 0.12374 0.29578 0.0
C671 C 0.03753 0.10484 0.26563 0.0
C672 C 0.03807 0.10531 0.19261 0.0
C673 C 0.04694 0.1238 0.14991 0.0
C674 C 0.04561 0.12002 0.07294 0.0
C675 C 0.02844 0.13705 0.03765 0.0
C676 C 0.07138 0.12081 0.03431 0.0
C677 C 0.03474 0.09647 0.079 0.0
C678 C 0.0306 0.08821 0.14839 0.0
C679 C 0.02134 0.06651 0.16681 0.0
C680 C 0.01616 0.05292 0.11275 0.0
C681 C 0.0201 0.06121 0.0414 0.0
C682 C 0.02947 0.08327 0.02464 0.0
H683 H 0.40548 0.06207 0.18976 0.0
H684 H 0.40251 0.99558 0.30056 0.0
H685 H 0.42929 0.98118 0.20485 0.0
H686 H 0.40325 0.04409 0.01803 0.0
H687 H 0.42436 0.06536 0.9768 0.0
H688 H 0.40591 0.07079 0.05551 0.0
H689 H 0.44517 0.07999 0.11675 0.0
H690 H 0.46375 0.0747 0.03803 0.0
H691 H 0.46945 0.05967 0.12054 0.0
H692 H 0.45428 0.97347 0.09412 0.0
H693 H 0.47757 0.97341 0.97852 0.0
H694 H 0.46508 0.0451 0.94096 0.0
C695 C 0.41063 0.04452 0.19427 0.0
C696 C 0.40184 0.02994 0.25265 0.0
C697 C 0.40901 0.00709 0.25641 0.0
C698 C 0.42421 0.99873 0.20228 0.0
C699 C 0.43223 0.01348 0.14501 0.0
C700 C 0.42589 0.03593 0.14089 0.0
C701 C 0.43669 0.04813 0.07306 0.0
C702 C 0.41633 0.05765 0.02821 0.0
C703 C 0.45485 0.06672 0.08802 0.0
C704 C 0.44983 0.02895 0.03929 0.0
C705 C 0.447 0.00911 0.08164 0.0
C706 C 0.4568 0.98894 0.06074 0.0
C707 C 0.46992 0.98907 0.99488 0.0
C708 C 0.47322 0.00926 0.95083 0.0
C709 C 0.46305 0.02944 0.97367 0.0
H710 H 0.49838 0.3542 0.11347 0.0
H711 H 0.42419 0.36648 0.19875 0.0
H712 H 0.42375 0.40213 0.12421 0.0
H713 H 0.5196 0.41104 0.10715 0.0
H714 H 0.53833 0.4098 0.02593 0.0
H715 H 0.53257 0.38467 0.08351 0.0
H716 H 0.51526 0.36449 0.98191 0.0
H717 H 0.52127 0.38947 0.92382 0.0
H718 H 0.49078 0.37731 0.93524 0.0
H719 H 0.43159 0.43678 0.04196 0.0
H720 H 0.44672 0.46727 0.95426 0.0
H721 H 0.51613 0.43277 0.92535 0.0
C722 C 0.48192 0.36423 0.1158 0.0
C723 C 0.46128 0.35751 0.16174 0.0
C724 C 0.44021 0.37127 0.16387 0.0
C725 C 0.43979 0.39158 0.12185 0.0
C726 C 0.46061 0.39793 0.07821 0.0
C727 C 0.48124 0.38463 0.07461 0.0
C728 C 0.50133 0.39551 0.02415 0.0
C729 C 0.52431 0.40055 0.0625 0.0
C730 C 0.50751 0.38082 0.96263 0.0
C731 C 0.48875 0.41699 -1e-05 0.0
C732 C 0.46528 0.41806 0.03173 0.0
C733 C 0.44996 0.43615 0.0168 0.0
C734 C 0.45874 0.45341 0.96709 0.0
C735 C 0.48264 0.45247 0.9332 0.0
C736 C 0.49786 0.43412 0.95078 0.0
H737 H 0.10319 0.56819 0.12211 0.0
H738 H 0.14676 0.50766 0.14282 0.0
H739 H 0.1236 0.49101 0.05298 0.0
H740 H 0.04538 0.54037 0.09492 0.0
H741 H 0.03657 0.56228 0.03172 0.0
H742 H 0.05574 0.56896 0.10025 0.0
H743 H 0.08841 0.58655 0.00639 0.0
H744 H 0.06941 0.57985 0.9376 0.0
H745 H 0.10052 0.56992 0.93718 0.0
H746 H 0.09694 0.48157 0.95767 0.0
H747 H 0.06834 0.47977 0.86426 0.0
H748 H 0.04223 0.54657 0.9052 0.0
C749 C 0.10772 0.55134 0.10835 0.0
C750 C 0.12679 0.53922 0.13962 0.0
C751 C 0.13223 0.51727 0.11965 0.0
C752 C 0.11917 0.50766 0.0687 0.0
C753 C 0.10071 0.52019 0.03831 0.0
C754 C 0.09492 0.54151 0.0575 0.0
C755 C 0.07475 0.55167 0.01529 0.0
C756 C 0.05175 0.55607 0.06343 0.0
C757 C 0.08383 0.57327 0.97152 0.0
C758 C 0.07028 0.53281 0.96881 0.0
C759 C 0.08538 0.51477 0.98316 0.0
C760 C 0.08494 0.49554 0.94619 0.0
C761 C 0.06864 0.49471 0.89312 0.0
C762 C 0.05301 0.51302 0.87732 0.0
C763 C 0.05387 0.53227 0.91603 0.0
H764 H 0.95348 0.88643 0.16936 0.0
H765 H 0.02279 0.85236 0.13374 0.0
H766 H 0.04155 0.87619 0.21624 0.0
H767 H 0.97957 0.94279 0.18995 0.0
H768 H 0.95629 0.94844 0.25795 0.0
H769 H 0.94926 0.93057 0.18995 0.0
H770 H 0.93517 0.89879 0.28486 0.0
H771 H 0.94222 0.91648 0.35301 0.0
H772 H 0.95597 0.88913 0.34937 0.0
H773 H 0.05151 0.90113 0.31106 0.0
H774 H 0.05203 0.92537 0.41018 0.0
H775 H 0.97597 0.94262 0.38449 0.0
C776 C 0.97274 0.88423 0.1778 0.0
C777 C 0.98669 0.86753 0.14503 0.0
C778 C 0.01176 0.86507 0.15814 0.0
C779 C 0.02258 0.87856 0.20479 0.0
C780 C 0.00812 0.89451 0.23747 0.0
C781 C 0.98378 0.89748 0.22421 0.0
C782 C 0.97175 0.91467 0.26959 0.0
C783 C 0.96375 0.93534 0.22414 0.0
C784 C 0.95 0.90413 0.31701 0.0
C785 C 0.99294 0.92043 0.31204 0.0
C786 C 0.01383 0.90882 0.2922 0.0
C787 C 0.03534 0.91048 0.32652 0.0
C788 C 0.0354 0.92416 0.38305 0.0
C789 C 0.01405 0.93591 0.405 0.0
C790 C 0.99271 0.93421 0.36815 0.0
H791 H 0.6362 0.95628 0.34238 0.0
H792 H 0.64983 0.02518 0.25604 0.0
H793 H 0.61776 0.03827 0.34071 0.0
H794 H 0.57006 0.96077 0.37701 0.0
H795 H 0.5693 0.94316 0.4581 0.0
H796 H 0.59249 0.93899 0.38843 0.0
H797 H 0.62653 0.94376 0.47394 0.0
H798 H 0.60346 0.94787 0.54385 0.0
H799 H 0.62731 0.9688 0.52114 0.0
H800 H 0.5855 0.04406 0.4368 0.0
H801 H 0.55596 0.04244 0.54084 0.0
H802 H 0.56327 0.96975 0.56552 0.0
C803 C 0.63233 0.97411 0.34088 0.0
C804 C 0.64548 0.98971 0.29246 0.0
C805 C 0.64 0.01292 0.29266 0.0
C806 C 0.62176 0.02051 0.34037 0.0
C807 C 0.60919 0.00469 0.38747 0.0
C808 C 0.61425 0.98199 0.38829 0.0
C809 C 0.59874 0.96862 0.44624 0.0
C810 C 0.58163 0.9519 0.41559 0.0
C811 C 0.61498 0.95656 0.49943 0.0
C812 C 0.58437 0.98741 0.47839 0.0
C813 C 0.59058 0.00805 0.44331 0.0
C814 C 0.58037 0.02799 0.46447 0.0
C815 C 0.56361 0.02687 0.5237 0.0
C816 C 0.55724 0.00595 0.56127 0.0
C817 C 0.56757 0.98596 0.53757 0.0
H818 H 0.60344 0.59745 0.33756 0.0
H819 H 0.53452 0.62226 0.26365 0.0
H820 H 0.51175 0.59784 0.35614 0.0
H821 H 0.58309 0.53982 0.38245 0.0
H822 H 0.59983 0.5364 0.46028 0.0
H823 H 0.61112 0.55561 0.3875 0.0
H824 H 0.61162 0.58803 0.47037 0.0
H825 H 0.6004 0.56891 0.5434 0.0
H826 H 0.58395 0.59435 0.52216 0.0
H827 H 0.49629 0.57141 0.45515 0.0
H828 H 0.48856 0.54474 0.55874 0.0
H829 H 0.56718 0.53652 0.57192 0.0
C830 C 0.58356 0.5977 0.34077 0.0
C831 C 0.57078 0.61179 0.29319 0.0
C832 C 0.54476 0.61168 0.2994 0.0
C833 C 0.53162 0.59782 0.35171 0.0
C834 C 0.54474 0.58417 0.39758 0.0
C835 C 0.57009 0.58398 0.39303 0.0
C836 C 0.57951 0.56789 0.45019 0.0
C837 C 0.59426 0.5488 0.41817 0.0
C838 C 0.59477 0.58056 0.49945 0.0
C839 C 0.55544 0.55916 0.48749 0.0
C840 C 0.53569 0.56879 0.45582 0.0
C841 C 0.51157 0.56373 0.48048 0.0
C842 C 0.50741 0.54852 0.53953 0.0
C843 C 0.52727 0.5385 0.57371 0.0
C844 C 0.55163 0.54382 0.54688 0.0
H845 H 0.91552 0.43985 0.31433 0.0
H846 H 0.85208 0.4831 0.33249 0.0
H847 H 0.87298 0.50522 0.41548 0.0
H848 H 0.92742 0.43711 0.49311 0.0
H849 H 0.96036 0.43702 0.47687 0.0
H850 H 0.9412 0.42595 0.41468 0.0
H851 H 0.96197 0.45331 0.31545 0.0
H852 H 0.98118 0.46448 0.37752 0.0
H853 H 0.9624 0.48312 0.32611 0.0
H854 H 0.90045 0.52161 0.50086 0.0
H855 H 0.93117 0.52959 0.58501 0.0
H856 H 0.97573 0.47484 0.5114 0.0
C857 C 0.9061 0.45414 0.33498 0.0
C858 C 0.88221 0.45981 0.31668 0.0
C859 C 0.87042 0.47846 0.34572 0.0
C860 C 0.88217 0.49117 0.39269 0.0
C861 C 0.90567 0.48499 0.41008 0.0
C862 C 0.91745 0.46686 0.38216 0.0
C863 C 0.94204 0.46283 0.41219 0.0
C864 C 0.94278 0.43934 0.45156 0.0
C865 C 0.96314 0.46614 0.35436 0.0
C866 C 0.94212 0.48127 0.46226 0.0
C867 C 0.92116 0.49408 0.45982 0.0
C868 C 0.91698 0.51175 0.50292 0.0
C869 C 0.93454 0.51618 0.55044 0.0
C870 C 0.95582 0.50283 0.55483 0.0
C871 C 0.95967 0.48538 0.50936 0.0
loop_
_geom_bond_atom_site_label_1
_geom_bond_atom_site_label_2
_geom_bond_distance
_geom_bond_site_symmetry_2
_ccdc_geom_bond_type
O0 Cd1 2.300 . S
O0 C7 1.275 . S
Cd1 O0 2.300 . S
Cd1 O9 2.381 . S
Cd1 O10 2.378 . S
O2 Cd3 2.385 . S
O2 C7 1.255 . S
Cd3 O2 2.385 . S
Cd3 O4 2.317 . S
O4 Cd3 2.317 . S
O4 C5 1.232 . S
C5 O4 1.232 . S
C5 O6 1.218 . S
O6 C5 1.218 . S
C7 O0 1.275 . S
C7 O2 1.255 . S
C8 O9 1.258 . S
C8 O10 1.256 . S
O9 Cd1 2.381 . S
O9 C8 1.258 . S
O10 Cd1 2.378 . S
O10 C8 1.256 . S
O11 Cd12 2.300 . S
O11 C18 1.275 . S
Cd12 O11 2.300 . S
Cd12 O20 2.381 . S
Cd12 O21 2.378 . S
O13 Cd14 2.385 1_656 S
O13 C18 1.255 . S
Cd14 O13 2.385 1_454 S
Cd14 O15 2.317 1_455 S
O15 Cd14 2.317 1_655 S
O15 C16 1.232 . S
C16 O15 1.232 . S
C16 O17 1.218 . S
O17 C16 1.218 . S
C18 O11 1.275 . S
C18 O13 1.255 . S
C19 O20 1.258 . S
C19 O21 1.256 . S
O20 Cd12 2.381 . S
O20 C19 1.258 . S
O21 Cd12 2.378 . S
O21 C19 1.256 . S
O22 Cd23 2.300 1_566 S
O22 C29 1.275 1_566 S
Cd23 O22 2.300 1_544 S
Cd23 O31 2.381 1_544 S
Cd23 O32 2.378 . S
O24 Cd25 2.385 . S
O24 C29 1.255 . S
Cd25 O24 2.385 . S
Cd25 O26 2.317 . S
O26 Cd25 2.317 . S
O26 C27 1.232 . S
C27 O26 1.232 . S
C27 O28 1.218 . S
O28 C27 1.218 . S
C29 O22 1.275 1_544 S
C29 O24 1.255 . S
C30 O31 1.258 1_544 S
C30 O32 1.256 . S
O31 Cd23 2.381 1_566 S
O31 C30 1.258 1_566 S
O32 Cd23 2.378 . S
O32 C30 1.256 . S
O33 Cd34 2.300 1_556 S
O33 C40 1.275 1_556 S
Cd34 O33 2.300 1_554 S
Cd34 O42 2.381 1_554 S
Cd34 O43 2.378 . S
O35 Cd36 2.385 . S
O35 C40 1.255 . S
Cd36 O35 2.385 . S
Cd36 O37 2.317 . S
O37 Cd36 2.317 . S
O37 C38 1.232 . S
C38 O37 1.232 . S
C38 O39 1.218 . S
O39 C38 1.218 . S
C40 O33 1.275 1_554 S
C40 O35 1.255 . S
C41 O42 1.258 1_554 S
C41 O43 1.256 . S
O42 Cd34 2.381 1_556 S
O42 C41 1.258 1_556 S
O43 Cd34 2.378 . S
O43 C41 1.256 . S
O44 Cd45 2.300 . S
O44 C51 1.275 . S
Cd45 O44 2.300 . S
Cd45 O53 2.381 . S
Cd45 O54 2.378 . S
O46 Cd47 2.385 . S
O46 C51 1.255 . S
Cd47 O46 2.385 . S
Cd47 O48 2.317 . S
O48 Cd47 2.317 . S
O48 C49 1.232 . S
C49 O48 1.232 . S
C49 O50 1.218 . S
O50 C49 1.218 . S
C51 O44 1.275 . S
C51 O46 1.255 . S
C52 O53 1.258 . S
C52 O54 1.256 . S
O53 Cd45 2.381 . S
O53 C52 1.258 . S
O54 Cd45 2.378 . S
O54 C52 1.256 . S
O55 Cd56 2.300 . S
O55 C62 1.275 . S
Cd56 O55 2.300 . S
Cd56 O64 2.381 . S
Cd56 O65 2.378 . S
O57 Cd58 2.385 . S
O57 C62 1.255 . S
Cd58 O57 2.385 . S
Cd58 O59 2.317 . S
O59 Cd58 2.317 . S
O59 C60 1.232 . S
C60 O59 1.232 . S
C60 O61 1.218 . S
O61 C60 1.218 . S
C62 O55 1.275 . S
C62 O57 1.255 . S
C63 O64 1.258 . S
C63 O65 1.256 . S
O64 Cd56 2.381 . S
O64 C63 1.258 . S
O65 Cd56 2.378 . S
O65 C63 1.256 . S
O66 Cd67 2.300 1_565 S
O66 C73 1.275 1_565 S
Cd67 O66 2.300 1_545 S
Cd67 O75 2.381 1_545 S
Cd67 O76 2.378 . S
O68 Cd69 2.385 . S
O68 C73 1.255 . S
Cd69 O68 2.385 . S
Cd69 O70 2.317 . S
O70 Cd69 2.317 . S
O70 C71 1.232 . S
C71 O70 1.232 . S
C71 O72 1.218 . S
O72 C71 1.218 . S
C73 O66 1.275 1_545 S
C73 O68 1.255 . S
C74 O75 1.258 1_545 S
C74 O76 1.256 . S
O75 Cd67 2.381 1_565 S
O75 C74 1.258 1_565 S
O76 Cd67 2.378 . S
O76 C74 1.256 . S
O77 Cd78 2.300 . S
O77 C84 1.275 . S
Cd78 O77 2.300 . S
Cd78 O86 2.381 . S
Cd78 O87 2.378 . S
O79 Cd80 2.385 . S
O79 C84 1.255 . S
Cd80 O79 2.385 . S
Cd80 O81 2.317 . S
O81 Cd80 2.317 . S
O81 C82 1.232 . S
C82 O81 1.232 . S
C82 O83 1.218 . S
O83 C82 1.218 . S
C84 O77 1.275 . S
C84 O79 1.255 . S
C85 O86 1.258 . S
C85 O87 1.256 . S
O86 Cd78 2.381 . S
O86 C85 1.258 . S
O87 Cd78 2.378 . S
O87 C85 1.256 . S
C88 O104 1.251 . S
C88 O106 1.254 . S
N89 C90 1.333 . S
N89 C94 1.307 1_455 S
N89 Zn95 2.020 . S
C90 N89 1.333 . S
C90 C91 1.379 . S
C90 H108 0.952 . S
C91 C90 1.379 . S
C91 C92 1.390 1_455 S
C91 H118 0.949 . S
C92 C91 1.390 1_655 S
C92 C93 1.357 . S
C93 C92 1.357 . S
C93 C94 1.370 . S
C93 H119 0.950 . S
C94 N89 1.307 1_655 S
C94 C93 1.370 . S
C94 H112 0.948 . S
Zn95 N89 2.020 . S
Zn95 O104 2.039 . S
Zn95 O110 2.034 . S
Zn95 O114 2.025 1_565 S
Zn95 O116 2.024 1_455 S
C96 O115 1.246 . S
C96 O116 1.249 1_545 S
N97 C98 1.307 . S
N97 C99 1.333 . S
N97 Zn103 2.020 . S
C98 N97 1.307 . S
C98 C102 1.370 . S
C98 H109 0.948 . S
C99 N97 1.333 . S
C99 C100 1.379 . S
C99 H107 0.952 . S
C100 C99 1.379 . S
C100 C101 1.390 . S
C100 H120 0.949 . S
C101 C100 1.390 . S
C101 C102 1.357 . S
C102 C98 1.370 . S
C102 C101 1.357 . S
C102 H121 0.950 1_556 S
Zn103 N97 2.020 . S
Zn103 O106 2.025 1_545 S
Zn103 O111 2.024 . S
Zn103 O113 2.039 . S
Zn103 O115 2.034 1_455 S
O104 C88 1.251 . S
O104 Zn95 2.039 . S
C105 O110 1.246 . S
C105 O111 1.249 1_565 S
O106 C88 1.254 . S
O106 Zn103 2.025 1_565 S
H107 C99 0.952 . S
H108 C90 0.952 . S
H109 C98 0.948 . S
O110 Zn95 2.034 . S
O110 C105 1.246 . S
O111 Zn103 2.024 . S
O111 C105 1.249 1_545 S
H112 C94 0.948 . S
O113 Zn103 2.039 . S
O113 C117 1.251 . S
O114 Zn95 2.025 1_545 S
O114 C117 1.254 . S
O115 C96 1.246 . S
O115 Zn103 2.034 1_655 S
O116 Zn95 2.024 1_655 S
O116 C96 1.249 1_565 S
C117 O113 1.251 . S
C117 O114 1.254 . S
H118 C91 0.949 . S
H119 C93 0.950 . S
H120 C100 0.949 . S
H121 C102 0.950 1_554 S
C122 O138 1.251 1_565 S
C122 O140 1.254 . S
N123 C124 1.333 . S
N123 C128 1.307 . S
N123 Zn129 2.020 . S
C124 N123 1.333 . S
C124 C125 1.379 . S
C124 H142 0.952 . S
C125 C124 1.379 . S
C125 C126 1.390 . S
C125 H152 0.949 . S
C126 C125 1.390 . S
C126 C127 1.357 . S
C127 C126 1.357 . S
C127 C128 1.370 . S
C127 H153 0.950 . S
C128 N123 1.307 . S
C128 C127 1.370 . S
C128 H146 0.948 . S
Zn129 N123 2.020 . S
Zn129 O138 2.039 . S
Zn129 O144 2.034 . S
Zn129 O148 2.025 . S
Zn129 O150 2.024 . S
C130 O149 1.246 1_545 S
C130 O150 1.249 . S
N131 C132 1.307 . S
N131 C133 1.333 . S
N131 Zn137 2.020 . S
C132 N131 1.307 . S
C132 C136 1.370 . S
C132 H143 0.948 . S
C133 N131 1.333 . S
C133 C134 1.379 . S
C133 H141 0.952 . S
C134 C133 1.379 . S
C134 C135 1.390 . S
C134 H154 0.949 . S
C135 C134 1.390 . S
C135 C136 1.357 . S
C136 C132 1.370 . S
C136 C135 1.357 . S
C136 H155 0.950 . S
Zn137 N131 2.020 . S
Zn137 O140 2.025 . S
Zn137 O145 2.024 . S
Zn137 O147 2.039 . S
Zn137 O149 2.034 . S
O138 C122 1.251 1_545 S
O138 Zn129 2.039 . S
C139 O144 1.246 1_565 S
C139 O145 1.249 . S
O140 C122 1.254 . S
O140 Zn137 2.025 . S
H141 C133 0.952 . S
H142 C124 0.952 . S
H143 C132 0.948 . S
O144 Zn129 2.034 . S
O144 C139 1.246 1_545 S
O145 Zn137 2.024 . S
O145 C139 1.249 . S
H146 C128 0.948 . S
O147 Zn137 2.039 . S
O147 C151 1.251 1_565 S
O148 Zn129 2.025 . S
O148 C151 1.254 . S
O149 C130 1.246 1_565 S
O149 Zn137 2.034 . S
O150 Zn129 2.024 . S
O150 C130 1.249 . S
C151 O147 1.251 1_545 S
C151 O148 1.254 . S
H152 C125 0.949 . S
H153 C127 0.950 . S
H154 C134 0.949 . S
H155 C136 0.950 . S
C156 O172 1.251 . S
C156 O174 1.254 . S
N157 C158 1.333 . S
N157 C162 1.307 . S
N157 Zn163 2.020 . S
C158 N157 1.333 . S
C158 C159 1.379 . S
C158 H176 0.952 . S
C159 C158 1.379 . S
C159 C160 1.390 . S
C159 H186 0.949 . S
C160 C159 1.390 . S
C160 C161 1.357 . S
C161 C160 1.357 . S
C161 C162 1.370 . S
C161 H187 0.950 . S
C162 N157 1.307 . S
C162 C161 1.370 . S
C162 H180 0.948 . S
Zn163 N157 2.020 . S
Zn163 O172 2.039 . S
Zn163 O178 2.034 . S
Zn163 O182 2.025 . S
Zn163 O184 2.024 . S
C164 O183 1.246 . S
C164 O184 1.249 . S
N165 C166 1.307 . S
N165 C167 1.333 . S
N165 Zn171 2.020 . S
C166 N165 1.307 . S
C166 C170 1.370 . S
C166 H177 0.948 . S
C167 N165 1.333 . S
C167 C168 1.379 . S
C167 H175 0.952 . S
C168 C167 1.379 . S
C168 C169 1.390 . S
C168 H188 0.949 . S
C169 C168 1.390 . S
C169 C170 1.357 . S
C170 C166 1.370 . S
C170 C169 1.357 . S
C170 H189 0.950 . S
Zn171 N165 2.020 . S
Zn171 O174 2.025 . S
Zn171 O179 2.024 . S
Zn171 O181 2.039 . S
Zn171 O183 2.034 . S
O172 C156 1.251 . S
O172 Zn163 2.039 . S
C173 O178 1.246 . S
C173 O179 1.249 . S
O174 C156 1.254 . S
O174 Zn171 2.025 . S
H175 C167 0.952 . S
H176 C158 0.952 . S
H177 C166 0.948 . S
O178 Zn163 2.034 . S
O178 C173 1.246 . S
O179 Zn171 2.024 . S
O179 C173 1.249 . S
H180 C162 0.948 . S
O181 Zn171 2.039 . S
O181 C185 1.251 . S
O182 Zn163 2.025 . S
O182 C185 1.254 . S
O183 C164 1.246 . S
O183 Zn171 2.034 . S
O184 Zn163 2.024 . S
O184 C164 1.249 . S
C185 O181 1.251 . S
C185 O182 1.254 . S
H186 C159 0.949 . S
H187 C161 0.950 . S
H188 C168 0.949 . S
H189 C170 0.950 . S
C190 O206 1.251 . S
C190 O208 1.254 . S
N191 C192 1.333 . S
N191 C196 1.307 . S
N191 Zn197 2.020 . S
C192 N191 1.333 . S
C192 C193 1.379 . S
C192 H210 0.952 . S
C193 C192 1.379 . S
C193 C194 1.390 . S
C193 H220 0.949 . S
C194 C193 1.390 . S
C194 C195 1.357 . S
C195 C194 1.357 . S
C195 C196 1.370 . S
C195 H221 0.950 . S
C196 N191 1.307 . S
C196 C195 1.370 . S
C196 H214 0.948 . S
Zn197 N191 2.020 . S
Zn197 O206 2.039 . S
Zn197 O212 2.034 1_455 S
Zn197 O216 2.025 1_455 S
Zn197 O218 2.024 . S
C198 O217 1.246 . S
C198 O218 1.249 . S
N199 C200 1.307 . S
N199 C201 1.333 1_455 S
N199 Zn205 2.020 . S
C200 N199 1.307 . S
C200 C204 1.370 . S
C200 H211 0.948 . S
C201 N199 1.333 1_655 S
C201 C202 1.379 . S
C201 H209 0.952 . S
C202 C201 1.379 . S
C202 C203 1.390 1_655 S
C202 H222 0.949 . S
C203 C202 1.390 1_455 S
C203 C204 1.357 . S
C204 C200 1.370 . S
C204 C203 1.357 . S
C204 H223 0.950 . S
Zn205 N199 2.020 . S
Zn205 O208 2.025 . S
Zn205 O213 2.024 1_455 S
Zn205 O215 2.039 1_455 S
Zn205 O217 2.034 . S
O206 C190 1.251 . S
O206 Zn197 2.039 . S
C207 O212 1.246 . S
C207 O213 1.249 . S
O208 C190 1.254 . S
O208 Zn205 2.025 . S
H209 C201 0.952 . S
H210 C192 0.952 . S
H211 C200 0.948 . S
O212 Zn197 2.034 1_655 S
O212 C207 1.246 . S
O213 Zn205 2.024 1_655 S
O213 C207 1.249 . S
H214 C196 0.948 . S
O215 Zn205 2.039 1_655 S
O215 C219 1.251 . S
O216 Zn197 2.025 1_655 S
O216 C219 1.254 . S
O217 C198 1.246 . S
O217 Zn205 2.034 . S
O218 Zn197 2.024 . S
O218 C198 1.249 . S
C219 O215 1.251 . S
C219 O216 1.254 . S
H220 C193 0.949 . S
H221 C195 0.950 . S
H222 C202 0.949 . S
H223 C204 0.950 . S
H224 C236 0.930 . S
H225 C238 0.930 . S
H226 C239 0.930 . S
H227 C243 0.959 . S
H228 C243 0.959 . S
H229 C243 0.961 . S
H230 C244 0.960 . S
H231 C244 0.961 . S
H232 C244 0.959 . S
H233 C247 0.929 . S
H234 C248 0.931 . S
H235 C250 0.930 . S
C236 H224 0.930 . S
C236 C237 1.399 1_545 S
C236 C241 1.399 . S
C237 C236 1.399 1_565 S
C237 C238 1.376 . S
C238 H225 0.930 . S
C238 C237 1.376 . S
C238 C239 1.388 . S
C239 H226 0.930 . S
C239 C238 1.388 . S
C239 C240 1.390 . S
C240 C239 1.390 . S
C240 C241 1.394 1_565 S
C240 C246 1.465 . S
C241 C236 1.399 . S
C241 C240 1.394 1_545 S
C241 C242 1.516 . S
C242 C241 1.516 . S
C242 C243 1.502 . S
C242 C244 1.561 . S
C242 C245 1.526 . S
C243 H227 0.959 . S
C243 H228 0.959 . S
C243 H229 0.961 . S
C243 C242 1.502 . S
C244 H230 0.960 . S
C244 H231 0.961 . S
C244 H232 0.959 . S
C244 C242 1.561 . S
C245 C242 1.526 . S
C245 C246 1.396 1_545 S
C245 C250 1.390 . S
C246 C240 1.465 . S
C246 C245 1.396 1_565 S
C246 C247 1.399 . S
C247 H233 0.929 . S
C247 C246 1.399 . S
C247 C248 1.385 . S
C248 H234 0.931 . S
C248 C247 1.385 . S
C248 C249 1.389 . S
C249 C248 1.389 . S
C249 C250 1.387 1_565 S
C250 H235 0.930 . S
C250 C245 1.390 . S
C250 C249 1.387 1_545 S
H251 C263 0.930 . S
H252 C265 0.930 . S
H253 C266 0.930 . S
H254 C270 0.959 . S
H255 C270 0.959 . S
H256 C270 0.961 . S
H257 C271 0.960 . S
H258 C271 0.961 . S
H259 C271 0.959 . S
H260 C274 0.929 . S
H261 C275 0.931 . S
H262 C277 0.930 . S
C263 H251 0.930 . S
C263 C264 1.399 . S
C263 C268 1.399 . S
C264 C263 1.399 . S
C264 C265 1.376 . S
C265 H252 0.930 . S
C265 C264 1.376 . S
C265 C266 1.388 . S
C266 H253 0.930 . S
C266 C265 1.388 . S
C266 C267 1.390 . S
C267 C266 1.390 . S
C267 C268 1.394 . S
C267 C273 1.465 . S
C268 C263 1.399 . S
C268 C267 1.394 . S
C268 C269 1.516 . S
C269 C268 1.516 . S
C269 C270 1.502 . S
C269 C271 1.561 . S
C269 C272 1.526 . S
C270 H254 0.959 . S
C270 H255 0.959 . S
C270 H256 0.961 . S
C270 C269 1.502 . S
C271 H257 0.960 . S
C271 H258 0.961 . S
C271 H259 0.959 . S
C271 C269 1.561 . S
C272 C269 1.526 . S
C272 C273 1.396 . S
C272 C277 1.390 . S
C273 C267 1.465 . S
C273 C272 1.396 . S
C273 C274 1.399 . S
C274 H260 0.929 . S
C274 C273 1.399 . S
C274 C275 1.385 . S
C275 H261 0.931 . S
C275 C274 1.385 . S
C275 C276 1.389 . S
C276 C275 1.389 . S
C276 C277 1.387 . S
C277 H262 0.930 . S
C277 C272 1.390 . S
C277 C276 1.387 . S
H278 C290 0.930 . S
H279 C292 0.930 . S
H280 C293 0.930 . S
H281 C297 0.959 . S
H282 C297 0.959 . S
H283 C297 0.961 . S
H284 C298 0.960 . S
H285 C298 0.961 . S
H286 C298 0.959 . S
H287 C301 0.929 . S
H288 C302 0.931 . S
H289 C304 0.930 . S
C290 H278 0.930 . S
C290 C291 1.399 . S
C290 C295 1.399 . S
C291 C290 1.399 . S
C291 C292 1.376 . S
C292 H279 0.930 . S
C292 C291 1.376 . S
C292 C293 1.388 . S
C293 H280 0.930 . S
C293 C292 1.388 . S
C293 C294 1.390 . S
C294 C293 1.390 . S
C294 C295 1.394 . S
C294 C300 1.465 . S
C295 C290 1.399 . S
C295 C294 1.394 . S
C295 C296 1.516 . S
C296 C295 1.516 . S
C296 C297 1.502 . S
C296 C298 1.561 . S
C296 C299 1.526 . S
C297 H281 0.959 . S
C297 H282 0.959 . S
C297 H283 0.961 . S
C297 C296 1.502 . S
C298 H284 0.960 . S
C298 H285 0.961 . S
C298 H286 0.959 . S
C298 C296 1.561 . S
C299 C296 1.526 . S
C299 C300 1.396 . S
C299 C304 1.390 . S
C300 C294 1.465 . S
C300 C299 1.396 . S
C300 C301 1.399 . S
C301 H287 0.929 . S
C301 C300 1.399 . S
C301 C302 1.385 . S
C302 H288 0.931 . S
C302 C301 1.385 . S
C302 C303 1.389 . S
C303 C302 1.389 . S
C303 C304 1.387 . S
C304 H289 0.930 . S
C304 C299 1.390 . S
C304 C303 1.387 . S
H305 C317 0.930 . S
H306 C319 0.930 . S
H307 C320 0.930 . S
H308 C324 0.959 . S
H309 C324 0.959 . S
H310 C324 0.961 . S
H311 C325 0.960 . S
H312 C325 0.961 . S
H313 C325 0.959 . S
H314 C328 0.929 1_655 S
H315 C329 0.931 1_655 S
H316 C331 0.930 . S
C317 H305 0.930 . S
C317 C318 1.399 . S
C317 C322 1.399 . S
C318 C317 1.399 . S
C318 C319 1.376 . S
C319 H306 0.930 . S
C319 C318 1.376 . S
C319 C320 1.388 . S
C320 H307 0.930 . S
C320 C319 1.388 . S
C320 C321 1.390 . S
C321 C320 1.390 . S
C321 C322 1.394 . S
C321 C327 1.465 . S
C322 C317 1.399 . S
C322 C321 1.394 . S
C322 C323 1.516 . S
C323 C322 1.516 . S
C323 C324 1.502 . S
C323 C325 1.561 . S
C323 C326 1.526 . S
C324 H308 0.959 . S
C324 H309 0.959 . S
C324 H310 0.961 . S
C324 C323 1.502 . S
C325 H311 0.960 . S
C325 H312 0.961 . S
C325 H313 0.959 . S
C325 C323 1.561 . S
C326 C323 1.526 . S
C326 C327 1.396 . S
C326 C331 1.390 . S
C327 C321 1.465 . S
C327 C326 1.396 . S
C327 C328 1.399 . S
C328 H314 0.929 1_455 S
C328 C327 1.399 . S
C328 C329 1.385 . S
C329 H315 0.931 1_455 S
C329 C328 1.385 . S
C329 C330 1.389 . S
C330 C329 1.389 . S
C330 C331 1.387 . S
C331 H316 0.930 . S
C331 C326 1.390 . S
C331 C330 1.387 . S
H332 C344 0.930 . S
H333 C346 0.930 . S
H334 C347 0.930 . S
H335 C351 0.959 . S
H336 C351 0.959 . S
H337 C351 0.961 . S
H338 C352 0.960 . S
H339 C352 0.961 . S
H340 C352 0.959 . S
H341 C355 0.929 . S
H342 C356 0.931 . S
H343 C358 0.930 . S
C344 H332 0.930 . S
C344 C345 1.399 1_545 S
C344 C349 1.399 . S
C345 C344 1.399 1_565 S
C345 C346 1.376 1_556 S
C346 H333 0.930 . S
C346 C345 1.376 1_554 S
C346 C347 1.388 1_554 S
C347 H334 0.930 . S
C347 C346 1.388 1_556 S
C347 C348 1.390 . S
C348 C347 1.390 . S
C348 C349 1.394 1_565 S
C348 C354 1.465 . S
C349 C344 1.399 . S
C349 C348 1.394 1_545 S
C349 C350 1.516 . S
C350 C349 1.516 . S
C350 C351 1.502 . S
C350 C352 1.561 . S
C350 C353 1.526 . S
C351 H335 0.959 . S
C351 H336 0.959 . S
C351 H337 0.961 . S
C351 C350 1.502 . S
C352 H338 0.960 . S
C352 H339 0.961 . S
C352 H340 0.959 . S
C352 C350 1.561 . S
C353 C350 1.526 . S
C353 C354 1.396 1_545 S
C353 C358 1.390 . S
C354 C348 1.465 . S
C354 C353 1.396 1_565 S
C354 C355 1.399 . S
C355 H341 0.929 . S
C355 C354 1.399 . S
C355 C356 1.385 . S
C356 H342 0.931 . S
C356 C355 1.385 . S
C356 C357 1.389 1_565 S
C357 C356 1.389 1_545 S
C357 C358 1.387 . S
C358 H343 0.930 . S
C358 C353 1.390 . S
C358 C357 1.387 . S
H359 C371 0.930 . S
H360 C373 0.930 . S
H361 C374 0.930 . S
H362 C378 0.959 . S
H363 C378 0.959 . S
H364 C378 0.961 . S
H365 C379 0.960 . S
H366 C379 0.961 . S
H367 C379 0.959 . S
H368 C382 0.929 . S
H369 C383 0.931 . S
H370 C385 0.930 . S
C371 H359 0.930 . S
C371 C372 1.399 . S
C371 C376 1.399 . S
C372 C371 1.399 . S
C372 C373 1.376 1_556 S
C373 H360 0.930 . S
C373 C372 1.376 1_554 S
C373 C374 1.388 1_554 S
C374 H361 0.930 . S
C374 C373 1.388 1_556 S
C374 C375 1.390 . S
C375 C374 1.390 . S
C375 C376 1.394 . S
C375 C381 1.465 . S
C376 C371 1.399 . S
C376 C375 1.394 . S
C376 C377 1.516 . S
C377 C376 1.516 . S
C377 C378 1.502 . S
C377 C379 1.561 . S
C377 C380 1.526 . S
C378 H362 0.959 . S
C378 H363 0.959 . S
C378 H364 0.961 . S
C378 C377 1.502 . S
C379 H365 0.960 . S
C379 H366 0.961 . S
C379 H367 0.959 . S
C379 C377 1.561 . S
C380 C377 1.526 . S
C380 C381 1.396 . S
C380 C385 1.390 . S
C381 C375 1.465 . S
C381 C380 1.396 . S
C381 C382 1.399 . S
C382 H368 0.929 . S
C382 C381 1.399 . S
C382 C383 1.385 . S
C383 H369 0.931 . S
C383 C382 1.385 . S
C383 C384 1.389 . S
C384 C383 1.389 . S
C384 C385 1.387 . S
C385 H370 0.930 . S
C385 C380 1.390 . S
C385 C384 1.387 . S
H386 C398 0.930 . S
H387 C400 0.930 . S
H388 C401 0.930 . S
H389 C405 0.959 . S
H390 C405 0.959 1_556 S
H391 C405 0.961 . S
H392 C406 0.960 . S
H393 C406 0.961 . S
H394 C406 0.959 . S
H395 C409 0.929 . S
H396 C410 0.931 . S
H397 C412 0.930 . S
C398 H386 0.930 . S
C398 C399 1.399 . S
C398 C403 1.399 1_554 S
C399 C398 1.399 . S
C399 C400 1.376 . S
C400 H387 0.930 . S
C400 C399 1.376 . S
C400 C401 1.388 1_554 S
C401 H388 0.930 . S
C401 C400 1.388 1_556 S
C401 C402 1.390 . S
C402 C401 1.390 . S
C402 C403 1.394 . S
C402 C408 1.465 . S
C403 C398 1.399 1_556 S
C403 C402 1.394 . S
C403 C404 1.516 . S
C404 C403 1.516 . S
C404 C405 1.502 1_556 S
C404 C406 1.561 . S
C404 C407 1.526 . S
C405 H389 0.959 . S
C405 H390 0.959 1_554 S
C405 H391 0.961 . S
C405 C404 1.502 1_554 S
C406 H392 0.960 . S
C406 H393 0.961 . S
C406 H394 0.959 . S
C406 C404 1.561 . S
C407 C404 1.526 . S
C407 C408 1.396 . S
C407 C412 1.390 . S
C408 C402 1.465 . S
C408 C407 1.396 . S
C408 C409 1.399 . S
C409 H395 0.929 . S
C409 C408 1.399 . S
C409 C410 1.385 . S
C410 H396 0.931 . S
C410 C409 1.385 . S
C410 C411 1.389 . S
C411 C410 1.389 . S
C411 C412 1.387 . S
C412 H397 0.930 . S
C412 C407 1.390 . S
C412 C411 1.387 . S
H413 C425 0.930 . S
H414 C427 0.930 . S
H415 C428 0.930 . S
H416 C432 0.959 . S
H417 C432 0.959 . S
H418 C432 0.961 . S
H419 C433 0.960 1_554 S
H420 C433 0.961 1_454 S
H421 C433 0.959 . S
H422 C436 0.929 . S
H423 C437 0.931 . S
H424 C439 0.930 . S
C425 H413 0.930 . S
C425 C426 1.399 . S
C425 C430 1.399 . S
C426 C425 1.399 . S
C426 C427 1.376 . S
C427 H414 0.930 . S
C427 C426 1.376 . S
C427 C428 1.388 . S
C428 H415 0.930 . S
C428 C427 1.388 . S
C428 C429 1.390 . S
C429 C428 1.390 . S
C429 C430 1.394 . S
C429 C435 1.465 . S
C430 C425 1.399 . S
C430 C429 1.394 . S
C430 C431 1.516 1_655 S
C431 C430 1.516 1_455 S
C431 C432 1.502 . S
C431 C433 1.561 1_455 S
C431 C434 1.526 1_455 S
C432 H416 0.959 . S
C432 H417 0.959 . S
C432 H418 0.961 . S
C432 C431 1.502 . S
C433 H419 0.960 1_556 S
C433 H420 0.961 1_656 S
C433 H421 0.959 . S
C433 C431 1.561 1_655 S
C434 C431 1.526 1_655 S
C434 C435 1.396 . S
C434 C439 1.390 1_655 S
C435 C429 1.465 . S
C435 C434 1.396 . S
C435 C436 1.399 . S
C436 H422 0.929 . S
C436 C435 1.399 . S
C436 C437 1.385 . S
C437 H423 0.931 . S
C437 C436 1.385 . S
C437 C438 1.389 . S
C438 C437 1.389 . S
C438 C439 1.387 1_655 S
C439 H424 0.930 . S
C439 C434 1.390 1_455 S
C439 C438 1.387 1_455 S
H440 C452 0.930 . S
H441 C454 0.930 . S
H442 C455 0.930 . S
H443 C459 0.959 . S
H444 C459 0.959 . S
H445 C459 0.961 . S
H446 C460 0.960 . S
H447 C460 0.961 . S
H448 C460 0.959 . S
H449 C463 0.929 . S
H450 C464 0.931 . S
H451 C466 0.930 1_655 S
C452 H440 0.930 . S
C452 C453 1.399 . S
C452 C457 1.399 . S
C453 C452 1.399 . S
C453 C454 1.376 . S
C454 H441 0.930 . S
C454 C453 1.376 . S
C454 C455 1.388 . S
C455 H442 0.930 . S
C455 C454 1.388 . S
C455 C456 1.390 . S
C456 C455 1.390 . S
C456 C457 1.394 . S
C456 C462 1.465 . S
C457 C452 1.399 . S
C457 C456 1.394 . S
C457 C458 1.516 . S
C458 C457 1.516 . S
C458 C459 1.502 1_455 S
C458 C460 1.561 . S
C458 C461 1.526 . S
C459 H443 0.959 . S
C459 H444 0.959 . S
C459 H445 0.961 . S
C459 C458 1.502 1_655 S
C460 H446 0.960 . S
C460 H447 0.961 . S
C460 H448 0.959 . S
C460 C458 1.561 . S
C461 C458 1.526 . S
C461 C462 1.396 . S
C461 C466 1.390 . S
C462 C456 1.465 . S
C462 C461 1.396 . S
C462 C463 1.399 . S
C463 H449 0.929 . S
C463 C462 1.399 . S
C463 C464 1.385 . S
C464 H450 0.931 . S
C464 C463 1.385 . S
C464 C465 1.389 . S
C465 C464 1.389 . S
C465 C466 1.387 . S
C466 H451 0.930 1_455 S
C466 C461 1.390 . S
C466 C465 1.387 . S
H467 C479 0.930 . S
H468 C481 0.930 . S
H469 C482 0.930 . S
H470 C486 0.959 . S
H471 C486 0.959 . S
H472 C486 0.961 . S
H473 C487 0.960 . S
H474 C487 0.961 . S
H475 C487 0.959 . S
H476 C490 0.929 . S
H477 C491 0.931 . S
H478 C493 0.930 . S
C479 H467 0.930 . S
C479 C480 1.399 1_545 S
C479 C484 1.399 . S
C480 C479 1.399 1_565 S
C480 C481 1.376 . S
C481 H468 0.930 . S
C481 C480 1.376 . S
C481 C482 1.388 . S
C482 H469 0.930 . S
C482 C481 1.388 . S
C482 C483 1.390 . S
C483 C482 1.390 . S
C483 C484 1.394 1_565 S
C483 C489 1.465 . S
C484 C479 1.399 . S
C484 C483 1.394 1_545 S
C484 C485 1.516 . S
C485 C484 1.516 . S
C485 C486 1.502 . S
C485 C487 1.561 . S
C485 C488 1.526 . S
C486 H470 0.959 . S
C486 H471 0.959 . S
C486 H472 0.961 . S
C486 C485 1.502 . S
C487 H473 0.960 . S
C487 H474 0.961 . S
C487 H475 0.959 . S
C487 C485 1.561 . S
C488 C485 1.526 . S
C488 C489 1.396 1_545 S
C488 C493 1.390 . S
C489 C483 1.465 . S
C489 C488 1.396 1_565 S
C489 C490 1.399 . S
C490 H476 0.929 . S
C490 C489 1.399 . S
C490 C491 1.385 . S
C491 H477 0.931 . S
C491 C490 1.385 . S
C491 C492 1.389 . S
C492 C491 1.389 . S
C492 C493 1.387 1_565 S
C493 H478 0.930 . S
C493 C488 1.390 . S
C493 C492 1.387 1_545 S
H494 C506 0.930 . S
H495 C508 0.930 . S
H496 C509 0.930 . S
H497 C513 0.959 . S
H498 C513 0.959 . S
H499 C513 0.961 . S
H500 C514 0.960 . S
H501 C514 0.961 . S
H502 C514 0.959 . S
H503 C517 0.929 . S
H504 C518 0.931 . S
H505 C520 0.930 . S
C506 H494 0.930 . S
C506 C507 1.399 . S
C506 C511 1.399 . S
C507 C506 1.399 . S
C507 C508 1.376 . S
C508 H495 0.930 . S
C508 C507 1.376 . S
C508 C509 1.388 . S
C509 H496 0.930 . S
C509 C508 1.388 . S
C509 C510 1.390 . S
C510 C509 1.390 . S
C510 C511 1.394 . S
C510 C516 1.465 . S
C511 C506 1.399 . S
C511 C510 1.394 . S
C511 C512 1.516 . S
C512 C511 1.516 . S
C512 C513 1.502 . S
C512 C514 1.561 . S
C512 C515 1.526 . S
C513 H497 0.959 . S
C513 H498 0.959 . S
C513 H499 0.961 . S
C513 C512 1.502 . S
C514 H500 0.960 . S
C514 H501 0.961 . S
C514 H502 0.959 . S
C514 C512 1.561 . S
C515 C512 1.526 . S
C515 C516 1.396 . S
C515 C520 1.390 . S
C516 C510 1.465 . S
C516 C515 1.396 . S
C516 C517 1.399 . S
C517 H503 0.929 . S
C517 C516 1.399 . S
C517 C518 1.385 . S
C518 H504 0.931 . S
C518 C517 1.385 . S
C518 C519 1.389 . S
C519 C518 1.389 . S
C519 C520 1.387 . S
C520 H505 0.930 . S
C520 C515 1.390 . S
C520 C519 1.387 . S
H521 C533 0.930 . S
H522 C535 0.930 . S
H523 C536 0.930 . S
H524 C540 0.959 . S
H525 C540 0.959 . S
H526 C540 0.961 . S
H527 C541 0.960 . S
H528 C541 0.961 . S
H529 C541 0.959 . S
H530 C544 0.929 . S
H531 C545 0.931 . S
H532 C547 0.930 . S
C533 H521 0.930 . S
C533 C534 1.399 . S
C533 C538 1.399 . S
C534 C533 1.399 . S
C534 C535 1.376 . S
C535 H522 0.930 . S
C535 C534 1.376 . S
C535 C536 1.388 . S
C536 H523 0.930 . S
C536 C535 1.388 . S
C536 C537 1.390 . S
C537 C536 1.390 . S
C537 C538 1.394 . S
C537 C543 1.465 . S
C538 C533 1.399 . S
C538 C537 1.394 . S
C538 C539 1.516 . S
C539 C538 1.516 . S
C539 C540 1.502 . S
C539 C541 1.561 . S
C539 C542 1.526 . S
C540 H524 0.959 . S
C540 H525 0.959 . S
C540 H526 0.961 . S
C540 C539 1.502 . S
C541 H527 0.960 . S
C541 H528 0.961 . S
C541 H529 0.959 . S
C541 C539 1.561 . S
C542 C539 1.526 . S
C542 C543 1.396 . S
C542 C547 1.390 . S
C543 C537 1.465 . S
C543 C542 1.396 . S
C543 C544 1.399 . S
C544 H530 0.929 . S
C544 C543 1.399 . S
C544 C545 1.385 . S
C545 H531 0.931 . S
C545 C544 1.385 . S
C545 C546 1.389 . S
C546 C545 1.389 . S
C546 C547 1.387 . S
C547 H532 0.930 . S
C547 C542 1.390 . S
C547 C546 1.387 . S
H548 C560 0.930 . S
H549 C562 0.930 1_554 S
H550 C563 0.930 1_554 S
H551 C567 0.959 . S
H552 C567 0.959 . S
H553 C567 0.961 . S
H554 C568 0.960 . S
H555 C568 0.961 . S
H556 C568 0.959 . S
H557 C571 0.929 . S
H558 C572 0.933 . S
H559 C574 0.930 . S
C560 H548 0.930 . S
C560 C561 1.399 . S
C560 C565 1.399 . S
C561 C560 1.399 . S
C561 C562 1.376 . S
C562 H549 0.930 1_556 S
C562 C561 1.376 . S
C562 C563 1.388 . S
C563 H550 0.930 1_556 S
C563 C562 1.388 . S
C563 C564 1.390 . S
C564 C563 1.390 . S
C564 C565 1.394 . S
C564 C570 1.465 . S
C565 C560 1.399 . S
C565 C564 1.394 . S
C565 C566 1.516 . S
C566 C565 1.516 . S
C566 C567 1.502 1_655 S
C566 C568 1.561 . S
C566 C569 1.526 . S
C567 H551 0.959 . S
C567 H552 0.959 . S
C567 H553 0.961 . S
C567 C566 1.502 1_455 S
C568 H554 0.960 . S
C568 H555 0.961 . S
C568 H556 0.959 . S
C568 C566 1.561 . S
C569 C566 1.526 . S
C569 C570 1.396 . S
C569 C574 1.390 1_655 S
C570 C564 1.465 . S
C570 C569 1.396 . S
C570 C571 1.399 . S
C571 H557 0.929 . S
C571 C570 1.399 . S
C571 C572 1.376 1_655 S
C572 H558 0.933 . S
C572 C571 1.376 1_455 S
C572 C573 1.397 . S
C573 C572 1.397 . S
C573 C574 1.387 . S
C574 H559 0.930 . S
C574 C569 1.390 1_455 S
C574 C573 1.387 . S
H575 C587 0.930 . S
H576 C589 0.930 . S
H577 C590 0.930 . S
H578 C594 0.959 1_545 S
H579 C594 0.959 . S
H580 C594 0.961 . S
H581 C595 0.960 . S
H582 C595 0.961 . S
H583 C595 0.959 . S
H584 C598 0.929 . S
H585 C599 0.931 . S
H586 C601 0.930 . S
C587 H575 0.930 . S
C587 C588 1.384 1_565 S
C587 C592 1.399 . S
C588 C587 1.384 1_545 S
C588 C589 1.396 1_556 S
C589 H576 0.930 . S
C589 C588 1.396 1_554 S
C589 C590 1.388 . S
C590 H577 0.930 . S
C590 C589 1.388 . S
C590 C591 1.390 1_554 S
C591 C590 1.390 1_556 S
C591 C592 1.394 1_545 S
C591 C597 1.465 . S
C592 C587 1.399 . S
C592 C591 1.394 1_565 S
C592 C593 1.516 . S
C593 C592 1.516 . S
C593 C594 1.502 . S
C593 C595 1.561 . S
C593 C596 1.526 . S
C594 H578 0.959 1_565 S
C594 H579 0.959 . S
C594 H580 0.961 . S
C594 C593 1.502 . S
C595 H581 0.960 . S
C595 H582 0.961 . S
C595 H583 0.959 . S
C595 C593 1.561 . S
C596 C593 1.526 . S
C596 C597 1.396 1_565 S
C596 C601 1.390 . S
C597 C591 1.465 . S
C597 C596 1.396 1_545 S
C597 C598 1.399 . S
C598 H584 0.929 . S
C598 C597 1.399 . S
C598 C599 1.385 . S
C599 H585 0.931 . S
C599 C598 1.385 . S
C599 C600 1.389 . S
C600 C599 1.389 . S
C600 C601 1.387 1_545 S
C601 H586 0.930 . S
C601 C596 1.390 . S
C601 C600 1.387 1_565 S
H602 C614 0.930 . S
H603 C616 0.930 . S
H604 C617 0.930 . S
H605 C621 0.959 . S
H606 C621 0.959 . S
H607 C621 0.961 . S
H608 C622 0.960 . S
H609 C622 0.961 . S
H610 C622 0.959 . S
H611 C625 0.929 . S
H612 C626 0.931 . S
H613 C628 0.930 . S
C614 H602 0.930 . S
C614 C615 1.399 1_556 S
C614 C619 1.399 . S
C615 C614 1.399 1_554 S
C615 C616 1.376 . S
C616 H603 0.930 . S
C616 C615 1.376 . S
C616 C617 1.388 . S
C617 H604 0.930 . S
C617 C616 1.388 . S
C617 C618 1.390 1_554 S
C618 C617 1.390 1_556 S
C618 C619 1.394 . S
C618 C624 1.465 . S
C619 C614 1.399 . S
C619 C618 1.394 . S
C619 C620 1.516 . S
C620 C619 1.516 . S
C620 C621 1.502 . S
C620 C622 1.561 . S
C620 C623 1.526 . S
C621 H605 0.959 . S
C621 H606 0.959 . S
C621 H607 0.961 . S
C621 C620 1.502 . S
C622 H608 0.960 . S
C622 H609 0.961 . S
C622 H610 0.959 . S
C622 C620 1.561 . S
C623 C620 1.526 . S
C623 C624 1.396 . S
C623 C628 1.390 . S
C624 C618 1.465 . S
C624 C623 1.396 . S
C624 C625 1.399 . S
C625 H611 0.929 . S
C625 C624 1.399 . S
C625 C626 1.385 . S
C626 H612 0.931 . S
C626 C625 1.385 . S
C626 C627 1.389 . S
C627 C626 1.389 . S
C627 C628 1.387 . S
C628 H613 0.930 . S
C628 C623 1.390 . S
C628 C627 1.387 . S
H629 C641 0.930 . S
H630 C643 0.931 . S
H631 C644 0.930 . S
H632 C648 0.959 . S
H633 C648 0.959 . S
H634 C648 0.961 . S
H635 C649 0.960 1_554 S
H636 C649 0.961 . S
H637 C649 0.959 . S
H638 C652 0.929 . S
H639 C653 0.931 . S
H640 C655 0.930 . S
C641 H629 0.930 . S
C641 C642 1.399 . S
C641 C646 1.403 . S
C642 C641 1.399 . S
C642 C643 1.369 1_554 S
C643 H630 0.931 . S
C643 C642 1.369 1_556 S
C643 C644 1.396 . S
C644 H631 0.930 . S
C644 C643 1.396 . S
C644 C645 1.390 . S
C645 C644 1.390 . S
C645 C646 1.390 1_556 S
C645 C651 1.465 . S
C646 C641 1.403 . S
C646 C645 1.390 1_554 S
C646 C647 1.516 1_554 S
C647 C646 1.516 1_556 S
C647 C648 1.502 1_556 S
C647 C649 1.561 . S
C647 C650 1.526 . S
C648 H632 0.959 . S
C648 H633 0.959 . S
C648 H634 0.961 . S
C648 C647 1.502 1_554 S
C649 H635 0.960 1_556 S
C649 H636 0.961 . S
C649 H637 0.959 . S
C649 C647 1.561 . S
C650 C647 1.526 . S
C650 C651 1.396 . S
C650 C655 1.390 . S
C651 C645 1.465 . S
C651 C650 1.396 . S
C651 C652 1.399 . S
C652 H638 0.929 . S
C652 C651 1.399 . S
C652 C653 1.385 . S
C653 H639 0.931 . S
C653 C652 1.385 . S
C653 C654 1.389 . S
C654 C653 1.389 . S
C654 C655 1.387 . S
C655 H640 0.930 . S
C655 C650 1.390 . S
C655 C654 1.387 . S
H656 C668 0.930 . S
H657 C670 0.930 . S
H658 C671 0.930 . S
H659 C675 0.959 . S
H660 C675 0.959 . S
H661 C675 0.961 . S
H662 C676 0.960 . S
H663 C676 0.961 1_556 S
H664 C676 0.959 . S
H665 C679 0.929 . S
H666 C680 0.931 . S
H667 C682 0.930 1_556 S
C668 H656 0.930 . S
C668 C669 1.399 . S
C668 C673 1.399 . S
C669 C668 1.399 . S
C669 C670 1.376 . S
C670 H657 0.930 . S
C670 C669 1.376 . S
C670 C671 1.388 . S
C671 H658 0.930 . S
C671 C670 1.388 . S
C671 C672 1.390 . S
C672 C671 1.390 . S
C672 C673 1.394 . S
C672 C678 1.465 . S
C673 C668 1.399 . S
C673 C672 1.394 . S
C673 C674 1.516 . S
C674 C673 1.516 . S
C674 C675 1.502 . S
C674 C676 1.561 . S
C674 C677 1.526 . S
C675 H659 0.959 . S
C675 H660 0.959 . S
C675 H661 0.961 . S
C675 C674 1.502 . S
C676 H662 0.960 . S
C676 H663 0.961 1_554 S
C676 H664 0.959 . S
C676 C674 1.561 . S
C677 C674 1.526 . S
C677 C678 1.396 . S
C677 C682 1.390 . S
C678 C672 1.465 . S
C678 C677 1.396 . S
C678 C679 1.399 . S
C679 H665 0.929 . S
C679 C678 1.399 . S
C679 C680 1.385 . S
C680 H666 0.931 . S
C680 C679 1.385 . S
C680 C681 1.389 . S
C681 C680 1.389 . S
C681 C682 1.387 . S
C682 H667 0.930 1_554 S
C682 C677 1.390 . S
C682 C681 1.387 . S
H683 C695 0.930 . S
H684 C697 0.930 . S
H685 C698 0.930 . S
H686 C702 0.959 . S
H687 C702 0.959 . S
H688 C702 0.961 . S
H689 C703 0.960 . S
H690 C703 0.961 1_556 S
H691 C703 0.959 . S
H692 C706 0.929 . S
H693 C707 0.931 . S
H694 C709 0.930 . S
C695 H683 0.930 . S
C695 C696 1.377 1_545 S
C695 C700 1.399 . S
C696 C695 1.377 1_565 S
C696 C697 1.405 . S
C697 H684 0.930 . S
C697 C696 1.405 . S
C697 C698 1.388 . S
C698 H685 0.930 . S
C698 C697 1.388 . S
C698 C699 1.390 . S
C699 C698 1.390 . S
C699 C700 1.394 1_565 S
C699 C705 1.465 . S
C700 C695 1.399 . S
C700 C699 1.394 1_545 S
C700 C701 1.516 . S
C701 C700 1.516 . S
C701 C702 1.502 1_554 S
C701 C703 1.561 . S
C701 C704 1.526 1_554 S
C702 H686 0.959 . S
C702 H687 0.959 . S
C702 H688 0.961 . S
C702 C701 1.502 1_556 S
C703 H689 0.960 . S
C703 H690 0.961 1_554 S
C703 H691 0.959 . S
C703 C701 1.561 . S
C704 C701 1.526 1_556 S
C704 C705 1.396 1_546 S
C704 C709 1.390 . S
C705 C699 1.465 . S
C705 C704 1.396 1_564 S
C705 C706 1.399 . S
C706 H692 0.929 . S
C706 C705 1.399 . S
C706 C707 1.385 1_554 S
C707 H693 0.931 . S
C707 C706 1.385 1_556 S
C707 C708 1.389 1_565 S
C708 C707 1.389 1_545 S
C708 C709 1.387 . S
C709 H694 0.930 . S
C709 C704 1.390 . S
C709 C708 1.387 . S
H710 C722 0.930 . S
H711 C724 0.930 . S
H712 C725 0.930 . S
H713 C729 0.959 . S
H714 C729 0.959 . S
H715 C729 0.961 . S
H716 C730 0.960 . S
H717 C730 0.961 . S
H718 C730 0.959 . S
H719 C733 0.929 . S
H720 C734 0.931 . S
H721 C736 0.930 . S
C722 H710 0.930 . S
C722 C723 1.399 . S
C722 C727 1.399 . S
C723 C722 1.399 . S
C723 C724 1.376 . S
C724 H711 0.930 . S
C724 C723 1.376 . S
C724 C725 1.388 . S
C725 H712 0.930 . S
C725 C724 1.388 . S
C725 C726 1.390 . S
C726 C725 1.390 . S
C726 C727 1.394 . S
C726 C732 1.465 . S
C727 C722 1.399 . S
C727 C726 1.394 . S
C727 C728 1.516 1_554 S
C728 C727 1.516 1_556 S
C728 C729 1.502 . S
C728 C730 1.561 . S
C728 C731 1.526 . S
C729 H713 0.959 . S
C729 H714 0.959 . S
C729 H715 0.961 . S
C729 C728 1.502 . S
C730 H716 0.960 . S
C730 H717 0.961 . S
C730 H718 0.959 . S
C730 C728 1.561 . S
C731 C728 1.526 . S
C731 C732 1.396 1_556 S
C731 C736 1.390 . S
C732 C726 1.465 . S
C732 C731 1.396 1_554 S
C732 C733 1.399 . S
C733 H719 0.929 . S
C733 C732 1.399 . S
C733 C734 1.385 1_554 S
C734 H720 0.931 . S
C734 C733 1.385 1_556 S
C734 C735 1.389 . S
C735 C734 1.389 . S
C735 C736 1.387 . S
C736 H721 0.930 . S
C736 C731 1.390 . S
C736 C735 1.387 . S
H737 C749 0.930 . S
H738 C751 0.930 . S
H739 C752 0.930 1_556 S
H740 C756 0.959 . S
H741 C756 0.959 . S
H742 C756 0.961 . S
H743 C757 0.960 . S
H744 C757 0.961 . S
H745 C757 0.959 1_556 S
H746 C760 0.929 . S
H747 C761 0.931 . S
H748 C763 0.930 . S
C749 H737 0.930 . S
C749 C750 1.399 . S
C749 C754 1.399 . S
C750 C749 1.399 . S
C750 C751 1.376 . S
C751 H738 0.930 . S
C751 C750 1.376 . S
C751 C752 1.388 . S
C752 H739 0.930 1_554 S
C752 C751 1.388 . S
C752 C753 1.390 . S
C753 C752 1.390 . S
C753 C754 1.394 . S
C753 C759 1.465 1_554 S
C754 C749 1.399 . S
C754 C753 1.394 . S
C754 C755 1.516 . S
C755 C754 1.516 . S
C755 C756 1.502 . S
C755 C757 1.561 . S
C755 C758 1.526 1_554 S
C756 H740 0.959 . S
C756 H741 0.959 . S
C756 H742 0.961 . S
C756 C755 1.502 . S
C757 H743 0.960 . S
C757 H744 0.961 . S
C757 H745 0.959 1_554 S
C757 C755 1.561 . S
C758 C755 1.526 1_556 S
C758 C759 1.396 . S
C758 C763 1.390 . S
C759 C753 1.465 1_556 S
C759 C758 1.396 . S
C759 C760 1.399 . S
C760 H746 0.929 . S
C760 C759 1.399 . S
C760 C761 1.385 . S
C761 H747 0.931 . S
C761 C760 1.385 . S
C761 C762 1.389 . S
C762 C761 1.389 . S
C762 C763 1.387 . S
C763 H748 0.930 . S
C763 C758 1.390 . S
C763 C762 1.387 . S
H764 C776 0.930 . S
H765 C778 0.930 1_455 S
H766 C779 0.930 . S
H767 C783 0.959 . S
H768 C783 0.959 . S
H769 C783 0.961 . S
H770 C784 0.960 . S
H771 C784 0.961 . S
H772 C784 0.959 . S
H773 C787 0.929 . S
H774 C788 0.931 . S
H775 C790 0.930 . S
C776 H764 0.930 . S
C776 C777 1.399 . S
C776 C781 1.399 . S
C777 C776 1.399 . S
C777 C778 1.376 . S
C778 H765 0.930 1_655 S
C778 C777 1.376 . S
C778 C779 1.388 1_655 S
C779 H766 0.930 . S
C779 C778 1.388 1_455 S
C779 C780 1.390 1_455 S
C780 C779 1.390 1_655 S
C780 C781 1.394 . S
C780 C786 1.465 . S
C781 C776 1.399 . S
C781 C780 1.394 . S
C781 C782 1.516 . S
C782 C781 1.516 . S
C782 C783 1.502 . S
C782 C784 1.561 . S
C782 C785 1.526 . S
C783 H767 0.959 . S
C783 H768 0.959 . S
C783 H769 0.961 . S
C783 C782 1.502 . S
C784 H770 0.960 . S
C784 H771 0.961 . S
C784 H772 0.959 . S
C784 C782 1.561 . S
C785 C782 1.526 . S
C785 C786 1.396 . S
C785 C790 1.390 . S
C786 C780 1.465 . S
C786 C785 1.396 . S
C786 C787 1.399 1_655 S
C787 H773 0.929 . S
C787 C786 1.399 1_455 S
C787 C788 1.385 . S
C788 H774 0.931 . S
C788 C787 1.385 . S
C788 C789 1.389 1_455 S
C789 C788 1.389 1_655 S
C789 C790 1.387 . S
C790 H775 0.930 . S
C790 C785 1.390 . S
C790 C789 1.387 . S
H791 C803 0.930 . S
H792 C805 0.930 . S
H793 C806 0.930 . S
H794 C810 0.959 . S
H795 C810 0.959 . S
H796 C810 0.961 . S
H797 C811 0.960 . S
H798 C811 0.961 . S
H799 C811 0.959 . S
H800 C814 0.929 . S
H801 C815 0.931 . S
H802 C817 0.930 . S
C803 H791 0.930 . S
C803 C804 1.399 1_565 S
C803 C808 1.399 . S
C804 C803 1.399 1_545 S
C804 C805 1.376 . S
C805 H792 0.930 . S
C805 C804 1.376 . S
C805 C806 1.388 . S
C806 H793 0.930 . S
C806 C805 1.388 . S
C806 C807 1.390 . S
C807 C806 1.390 . S
C807 C808 1.394 1_545 S
C807 C813 1.465 . S
C808 C803 1.399 . S
C808 C807 1.394 1_565 S
C808 C809 1.516 . S
C809 C808 1.516 . S
C809 C810 1.502 . S
C809 C811 1.561 . S
C809 C812 1.526 . S
C810 H794 0.959 . S
C810 H795 0.959 . S
C810 H796 0.961 . S
C810 C809 1.502 . S
C811 H797 0.960 . S
C811 H798 0.961 . S
C811 H799 0.959 . S
C811 C809 1.561 . S
C812 C809 1.526 . S
C812 C813 1.396 1_565 S
C812 C817 1.390 . S
C813 C807 1.465 . S
C813 C812 1.396 1_545 S
C813 C814 1.399 . S
C814 H800 0.929 . S
C814 C813 1.399 . S
C814 C815 1.385 . S
C815 H801 0.931 . S
C815 C814 1.385 . S
C815 C816 1.389 1_545 S
C816 C815 1.389 1_565 S
C816 C817 1.387 . S
C817 H802 0.930 . S
C817 C812 1.390 . S
C817 C816 1.387 . S
H818 C830 0.930 . S
H819 C832 0.930 . S
H820 C833 0.930 . S
H821 C837 0.959 . S
H822 C837 0.959 . S
H823 C837 0.961 . S
H824 C838 0.960 . S
H825 C838 0.961 . S
H826 C838 0.959 . S
H827 C841 0.929 . S
H828 C842 0.931 . S
H829 C844 0.930 . S
C830 H818 0.930 . S
C830 C831 1.399 . S
C830 C835 1.399 . S
C831 C830 1.399 . S
C831 C832 1.376 . S
C832 H819 0.930 . S
C832 C831 1.376 . S
C832 C833 1.388 . S
C833 H820 0.930 . S
C833 C832 1.388 . S
C833 C834 1.390 . S
C834 C833 1.390 . S
C834 C835 1.394 . S
C834 C840 1.465 . S
C835 C830 1.399 . S
C835 C834 1.394 . S
C835 C836 1.516 . S
C836 C835 1.516 . S
C836 C837 1.502 . S
C836 C838 1.561 . S
C836 C839 1.526 . S
C837 H821 0.959 . S
C837 H822 0.959 . S
C837 H823 0.961 . S
C837 C836 1.502 . S
C838 H824 0.960 . S
C838 H825 0.961 . S
C838 H826 0.959 . S
C838 C836 1.561 . S
C839 C836 1.526 . S
C839 C840 1.396 . S
C839 C844 1.390 . S
C840 C834 1.465 . S
C840 C839 1.396 . S
C840 C841 1.399 . S
C841 H827 0.929 . S
C841 C840 1.399 . S
C841 C842 1.385 . S
C842 H828 0.931 . S
C842 C841 1.385 . S
C842 C843 1.389 . S
C843 C842 1.389 . S
C843 C844 1.387 . S
C844 H829 0.930 . S
C844 C839 1.390 . S
C844 C843 1.387 . S
H845 C857 0.930 . S
H846 C859 0.930 . S
H847 C860 0.930 . S
H848 C864 0.959 . S
H849 C864 0.959 . S
H850 C864 0.961 . S
H851 C865 0.960 . S
H852 C865 0.961 . S
H853 C865 0.959 . S
H854 C868 0.929 . S
H855 C869 0.931 . S
H856 C871 0.930 . S
C857 H845 0.930 . S
C857 C858 1.399 . S
C857 C862 1.399 . S
C858 C857 1.399 . S
C858 C859 1.376 . S
C859 H846 0.930 . S
C859 C858 1.376 . S
C859 C860 1.388 . S
C860 H847 0.930 . S
C860 C859 1.388 . S
C860 C861 1.390 . S
C861 C860 1.390 . S
C861 C862 1.394 . S
C861 C867 1.465 . S
C862 C857 1.399 . S
C862 C861 1.394 . S
C862 C863 1.516 . S
C863 C862 1.516 . S
C863 C864 1.502 . S
C863 C865 1.561 . S
C863 C866 1.526 . S
C864 H848 0.959 . S
C864 H849 0.959 . S
C864 H850 0.961 . S
C864 C863 1.502 . S
C865 H851 0.960 . S
C865 H852 0.961 . S
C865 H853 0.959 . S
C865 C863 1.561 . S
C866 C863 1.526 . S
C866 C867 1.396 . S
C866 C871 1.390 . S
C867 C861 1.465 . S
C867 C866 1.396 . S
C867 C868 1.399 . S
C868 H854 0.929 . S
C868 C867 1.399 . S
C868 C869 1.385 . S
C869 H855 0.931 . S
C869 C868 1.385 . S
C869 C870 1.389 . S
C870 C869 1.389 . S
C870 C871 1.387 . S
C871 H856 0.930 . S
C871 C866 1.390 . S
C871 C870 1.387 . S
C237 C74 1.828 1_565 S
C249 C105 1.827 . S
C276 C126 1.515 . S
C264 C85 1.523 . S
C303 C160 1.350 . S
C291 C52 1.284 . S
C330 C194 1.543 . S
C318 C63 1.552 . S
C357 C96 1.822 . S
C345 C30 1.824 1_566 S
C372 C41 1.468 1_556 S
C384 C135 1.530 . S
C399 C8 1.285 . S
C411 C169 1.347 . S
C426 C19 1.537 . S
C438 C203 1.549 1_655 S
C465 C117 0.503 . S
C453 C62 0.556 . S
C492 C122 1.027 . S
C480 C73 1.026 1_565 S
C519 C156 0.933 . S
C507 C84 0.970 . S
C534 C51 0.489 . S
C546 C190 0.454 . S
C561 C18 0.684 . S
C573 C88 0.598 . S
C600 C151 1.031 . S
C588 C29 1.017 1_556 S
C627 C185 0.939 . S
C615 C40 0.992 . S
C642 C7 0.446 . S
C654 C219 0.402 . S
C669 C60 1.062 . S
C681 C101 1.318 1_554 S
C696 C71 1.442 1_565 S
C708 C130 1.744 . S
C735 C164 1.531 . S
C723 C82 1.259 . S
C762 C198 1.591 . S
C750 C49 1.319 . S
C777 C16 0.978 . S
C789 C92 1.301 . S
C816 C139 1.742 . S
C804 C27 1.448 . S
C843 C173 1.524 . S
C831 C38 1.172 . S
C858 C5 1.343 . S
C870 C207 1.584 . S
