# Generated by pormake.
# Topology ocu, (6,8)-cn, num edge types: 1
# Building blocks:
#     Node 0, Type 0, BuildingBlock: MIFKUJ_clean_sbu_0, # of connection points: 6
#     Node 1, Type 0, BuildingBlock: MIFKUJ_clean_sbu_0, # of connection points: 6
#     Node 2, Type 0, BuildingBlock: MIFKUJ_clean_sbu_0, # of connection points: 6
#     Node 3, Type 0, BuildingBlock: MIFKUJ_clean_sbu_0, # of connection points: 6
#     Node 4, Type 0, BuildingBlock: MIFKUJ_clean_sbu_0, # of connection points: 6
#     Node 5, Type 0, BuildingBlock: MIFKUJ_clean_sbu_0, # of connection points: 6
#     Node 6, Type 0, BuildingBlock: MIFKUJ_clean_sbu_0, # of connection points: 6
#     Node 7, Type 0, BuildingBlock: MIFKUJ_clean_sbu_0, # of connection points: 6
#     Node 8, Type 1, BuildingBlock: TAGTUT_clean_sbu_1, # of connection points: 8
#     Node 9, Type 1, BuildingBlock: TAGTUT_clean_sbu_1, # of connection points: 8
#     Node 10, Type 1, BuildingBlock: TAGTUT_clean_sbu_1, # of connection points: 8
#     Node 11, Type 1, BuildingBlock: TAGTUT_clean_sbu_1, # of connection points: 8
#     Node 12, Type 1, BuildingBlock: TAGTUT_clean_sbu_1, # of connection points: 8
#     Node 13, Type 1, BuildingBlock: TAGTUT_clean_sbu_1, # of connection points: 8
#     Edge 14, Type (0, 1), BuildingBlock: XUDNAN_clean_linker_2, # of connection points: 2
#     Edge 15, Type (0, 1), BuildingBlock: XUDNAN_clean_linker_2, # of connection points: 2
#     Edge 16, Type (0, 1), BuildingBlock: XUDNAN_clean_linker_2, # of connection points: 2
#     Edge 17, Type (0, 1), BuildingBlock: XUDNAN_clean_linker_2, # of connection points: 2
#     Edge 18, Type (0, 1), BuildingBlock: XUDNAN_clean_linker_2, # of connection points: 2
#     Edge 19, Type (0, 1), BuildingBlock: XUDNAN_clean_linker_2, # of connection points: 2
#     Edge 20, Type (0, 1), BuildingBlock: XUDNAN_clean_linker_2, # of connection points: 2
#     Edge 21, Type (0, 1), BuildingBlock: XUDNAN_clean_linker_2, # of connection points: 2
#     Edge 22, Type (0, 1), BuildingBlock: XUDNAN_clean_linker_2, # of connection points: 2
#     Edge 23, Type (0, 1), BuildingBlock: XUDNAN_clean_linker_2, # of connection points: 2
#     Edge 24, Type (0, 1), BuildingBlock: XUDNAN_clean_linker_2, # of connection points: 2
#     Edge 25, Type (0, 1), BuildingBlock: XUDNAN_clean_linker_2, # of connection points: 2
#     Edge 26, Type (0, 1), BuildingBlock: XUDNAN_clean_linker_2, # of connection points: 2
#     Edge 27, Type (0, 1), BuildingBlock: XUDNAN_clean_linker_2, # of connection points: 2
#     Edge 28, Type (0, 1), BuildingBlock: XUDNAN_clean_linker_2, # of connection points: 2
#     Edge 29, Type (0, 1), BuildingBlock: XUDNAN_clean_linker_2, # of connection points: 2
#     Edge 30, Type (0, 1), BuildingBlock: XUDNAN_clean_linker_2, # of connection points: 2
#     Edge 31, Type (0, 1), BuildingBlock: XUDNAN_clean_linker_2, # of connection points: 2
#     Edge 32, Type (0, 1), BuildingBlock: XUDNAN_clean_linker_2, # of connection points: 2
#     Edge 33, Type (0, 1), BuildingBlock: XUDNAN_clean_linker_2, # of connection points: 2
#     Edge 34, Type (0, 1), BuildingBlock: XUDNAN_clean_linker_2, # of connection points: 2
#     Edge 35, Type (0, 1), BuildingBlock: XUDNAN_clean_linker_2, # of connection points: 2
#     Edge 36, Type (0, 1), BuildingBlock: XUDNAN_clean_linker_2, # of connection points: 2
#     Edge 37, Type (0, 1), BuildingBlock: XUDNAN_clean_linker_2, # of connection points: 2
#     Edge 38, Type (0, 1), BuildingBlock: XUDNAN_clean_linker_2, # of connection points: 2
#     Edge 39, Type (0, 1), BuildingBlock: XUDNAN_clean_linker_2, # of connection points: 2
#     Edge 40, Type (0, 1), BuildingBlock: XUDNAN_clean_linker_2, # of connection points: 2
#     Edge 41, Type (0, 1), BuildingBlock: XUDNAN_clean_linker_2, # of connection points: 2
#     Edge 42, Type (0, 1), BuildingBlock: XUDNAN_clean_linker_2, # of connection points: 2
#     Edge 43, Type (0, 1), BuildingBlock: XUDNAN_clean_linker_2, # of connection points: 2
#     Edge 44, Type (0, 1), BuildingBlock: XUDNAN_clean_linker_2, # of connection points: 2
#     Edge 45, Type (0, 1), BuildingBlock: XUDNAN_clean_linker_2, # of connection points: 2
#     Edge 46, Type (0, 1), BuildingBlock: XUDNAN_clean_linker_2, # of connection points: 2
#     Edge 47, Type (0, 1), BuildingBlock: XUDNAN_clean_linker_2, # of connection points: 2
#     Edge 48, Type (0, 1), BuildingBlock: XUDNAN_clean_linker_2, # of connection points: 2
#     Edge 49, Type (0, 1), BuildingBlock: XUDNAN_clean_linker_2, # of connection points: 2
#     Edge 50, Type (0, 1), BuildingBlock: XUDNAN_clean_linker_2, # of connection points: 2
#     Edge 51, Type (0, 1), BuildingBlock: XUDNAN_clean_linker_2, # of connection points: 2
#     Edge 52, Type (0, 1), BuildingBlock: XUDNAN_clean_linker_2, # of connection points: 2
#     Edge 53, Type (0, 1), BuildingBlock: XUDNAN_clean_linker_2, # of connection points: 2
#     Edge 54, Type (0, 1), BuildingBlock: XUDNAN_clean_linker_2, # of connection points: 2
#     Edge 55, Type (0, 1), BuildingBlock: XUDNAN_clean_linker_2, # of connection points: 2
#     Edge 56, Type (0, 1), BuildingBlock: XUDNAN_clean_linker_2, # of connection points: 2
#     Edge 57, Type (0, 1), BuildingBlock: XUDNAN_clean_linker_2, # of connection points: 2
#     Edge 58, Type (0, 1), BuildingBlock: XUDNAN_clean_linker_2, # of connection points: 2
#     Edge 59, Type (0, 1), BuildingBlock: XUDNAN_clean_linker_2, # of connection points: 2
#     Edge 60, Type (0, 1), BuildingBlock: XUDNAN_clean_linker_2, # of connection points: 2
#     Edge 61, Type (0, 1), BuildingBlock: XUDNAN_clean_linker_2, # of connection points: 2
# Relax obj value: 0.061
# Max RMSD: 0.225
# Mean RMSD: 0.124
data_MOF--net-ocu--node1-MIFKUJ_clean_sbu_0--node2-TAGTUT_clean_sbu_1--edge1-XUDNAN_clean_linker_2
_symmetry_space_group_name_H-M    P1
_symmetry_Int_Tables_number       1
_symmetry_cell_setting            triclinic
loop_
_symmetry_equiv_pos_as_xyz
'x, y, z'
_cell_length_a     39.00227
_cell_length_b     38.519168
_cell_length_c     39.169138
_cell_angle_alpha  91.693611
_cell_angle_beta   95.588698
_cell_angle_gamma 108.0477
loop_
_atom_site_label
_atom_site_type_symbol
_atom_site_fract_x
_atom_site_fract_y
_atom_site_fract_z
_atom_type_partial_charge
Zn0 Zn 0.2497 0.27847 0.27172 0.0
Zn1 Zn 0.24984 0.21229 0.22808 0.0
C2 C 0.21908 0.31154 0.31802 0.0
O3 O 0.19393 0.2805 0.30753 0.0
C4 C 0.28055 0.17832 0.18359 0.0
O5 O 0.30682 0.20687 0.19788 0.0
O6 O 0.20985 0.28195 0.23539 0.0
O7 O 0.29766 0.2944 0.24849 0.0
O8 O 0.26876 0.26035 0.20245 0.0
C9 C 0.21418 0.31409 0.22537 0.0
O10 O 0.24405 0.34034 0.23703 0.0
O11 O 0.24987 0.31852 0.30672 0.0
C12 C 0.28181 0.17446 0.27667 0.0
O13 O 0.24838 0.15213 0.27148 0.0
O14 O 0.28955 0.20512 0.26285 0.0
O15 O 0.20201 0.19763 0.25193 0.0
O16 O 0.23185 0.2308 0.29812 0.0
O17 O 0.2484 0.17343 0.19116 0.0
C18 C 0.29456 0.288 0.21595 0.0
C19 C 0.20523 0.20393 0.28452 0.0
Zn20 Zn 0.73634 0.29803 0.21983 0.0
Zn21 Zn 0.76484 0.22163 0.27975 0.0
C22 C 0.68372 0.32724 0.19686 0.0
O23 O 0.70889 0.35461 0.2143 0.0
C24 C 0.81002 0.18568 0.30841 0.0
O25 O 0.78362 0.16 0.29028 0.0
O26 O 0.77726 0.33141 0.2003 0.0
O27 O 0.73905 0.31721 0.26869 0.0
O28 O 0.75373 0.26882 0.2806 0.0
C29 C 0.80796 0.33665 0.21756 0.0
O30 O 0.80977 0.32616 0.24905 0.0
O31 O 0.68902 0.29641 0.19423 0.0
C32 C 0.69041 0.18507 0.27371 0.0
O33 O 0.69156 0.19913 0.24362 0.0
O34 O 0.71948 0.18894 0.29338 0.0
O35 O 0.76697 0.20498 0.23132 0.0
O36 O 0.74988 0.25168 0.21709 0.0
O37 O 0.80853 0.21821 0.30952 0.0
C38 C 0.7492 0.29831 0.29103 0.0
C39 C 0.75646 0.22271 0.208 0.0
Zn40 Zn 0.80035 0.74634 0.21242 0.0
Zn41 Zn 0.71962 0.76744 0.25598 0.0
C42 C 0.81372 0.68635 0.25187 0.0
O43 O 0.79628 0.66391 0.22547 0.0
C44 C 0.6826 0.79451 0.19866 0.0
O45 O 0.69789 0.77721 0.17864 0.0
O46 O 0.82083 0.72992 0.17203 0.0
O47 O 0.74519 0.73343 0.20221 0.0
O48 O 0.70425 0.71444 0.23768 0.0
C49 C 0.80049 0.71461 0.14489 0.0
O50 O 0.76694 0.71534 0.1407 0.0
O51 O 0.81554 0.71989 0.25182 0.0
C52 C 0.72667 0.81066 0.31419 0.0
O53 O 0.74228 0.83316 0.29167 0.0
O54 O 0.7149 0.77655 0.30581 0.0
O55 O 0.77013 0.78811 0.24448 0.0
O56 O 0.82391 0.80008 0.22889 0.0
O57 O 0.68829 0.79362 0.23103 0.0
C58 C 0.72103 0.7072 0.21339 0.0
C59 C 0.80231 0.80935 0.24667 0.0
Zn60 Zn 0.23838 0.78465 0.26571 0.0
Zn61 Zn 0.30285 0.72969 0.24636 0.0
C62 C 0.173 0.74697 0.29058 0.0
O63 O 0.16219 0.76766 0.26868 0.0
C64 C 0.36012 0.77223 0.20626 0.0
O65 O 0.3688 0.74217 0.20219 0.0
O66 O 0.23034 0.83383 0.27316 0.0
O67 O 0.2881 0.78246 0.27251 0.0
O68 O 0.3105 0.74326 0.29686 0.0
C69 C 0.22524 0.83862 0.30427 0.0
O70 O 0.22984 0.81508 0.32633 0.0
O71 O 0.20655 0.7498 0.29527 0.0
C72 C 0.30244 0.67026 0.20594 0.0
O73 O 0.28405 0.68657 0.18599 0.0
O74 O 0.3166 0.6849 0.23551 0.0
O75 O 0.24943 0.71898 0.22711 0.0
O76 O 0.21783 0.75836 0.22108 0.0
O77 O 0.33379 0.77212 0.22306 0.0
C78 C 0.29836 0.76995 0.29977 0.0
C79 C 0.22044 0.72633 0.21699 0.0
Zn80 Zn 0.27194 0.77822 0.7087 0.0
Zn81 Zn 0.23719 0.73439 0.78087 0.0
C82 C 0.21657 0.81328 0.69125 0.0
O83 O 0.23463 0.83602 0.71721 0.0
C84 C 0.30192 0.71357 0.80764 0.0
O85 O 0.31744 0.74844 0.81686 0.0
O86 O 0.31526 0.79982 0.68489 0.0
O87 O 0.28476 0.80855 0.75289 0.0
O88 O 0.25978 0.78551 0.7986 0.0
C89 C 0.32803 0.83423 0.69072 0.0
O90 O 0.3089 0.8519 0.70533 0.0
O91 O 0.22722 0.78646 0.68274 0.0
C92 C 0.16727 0.69199 0.79365 0.0
O93 O 0.16832 0.67442 0.76474 0.0
O94 O 0.19479 0.71797 0.80638 0.0
O95 O 0.21598 0.72485 0.73183 0.0
O96 O 0.26494 0.72461 0.71004 0.0
O97 O 0.2697 0.70291 0.79239 0.0
C98 C 0.27936 0.81191 0.78386 0.0
C99 C 0.23155 0.70959 0.71203 0.0
Zn100 Zn 0.30128 0.22388 0.72518 0.0
Zn101 Zn 0.22598 0.28034 0.73689 0.0
C102 C 0.33686 0.19859 0.7827 0.0
O103 O 0.33594 0.22913 0.79782 0.0
C104 C 0.17115 0.29781 0.68988 0.0
O105 O 0.14785 0.26831 0.69986 0.0
O106 O 0.31096 0.21902 0.67639 0.0
O107 O 0.24667 0.21002 0.72891 0.0
O108 O 0.19825 0.22667 0.73621 0.0
C109 C 0.30391 0.1865 0.66376 0.0
O110 O 0.28966 0.15916 0.68259 0.0
O111 O 0.32257 0.18994 0.75182 0.0
C112 C 0.19576 0.30068 0.79344 0.0
O113 O 0.16743 0.2753 0.7775 0.0
O114 O 0.22603 0.30717 0.78153 0.0
O115 O 0.27481 0.28113 0.72713 0.0
O116 O 0.3263 0.27513 0.74605 0.0
O117 O 0.20463 0.30584 0.7008 0.0
C118 C 0.21273 0.20167 0.73129 0.0
C119 C 0.30362 0.29235 0.74756 0.0
Zn120 Zn 0.7245 0.28161 0.75247 0.0
Zn121 Zn 0.76738 0.22864 0.72556 0.0
C122 C 0.67051 0.23165 0.78083 0.0
O123 O 0.65384 0.24958 0.76077 0.0
C124 C 0.82615 0.26832 0.69205 0.0
O125 O 0.84071 0.24839 0.71175 0.0
O126 O 0.71096 0.32265 0.77519 0.0
O127 O 0.77767 0.29672 0.75168 0.0
O128 O 0.78703 0.24905 0.77401 0.0
C129 C 0.71879 0.32522 0.80772 0.0
O130 O 0.73425 0.30265 0.82203 0.0
O131 O 0.70479 0.23948 0.78186 0.0
C132 C 0.77016 0.17272 0.68158 0.0
O133 O 0.75022 0.18859 0.66293 0.0
O134 O 0.7816 0.18456 0.71259 0.0
O135 O 0.71299 0.21332 0.71389 0.0
O136 O 0.69975 0.26462 0.70591 0.0
O137 O 0.79297 0.26569 0.69335 0.0
C138 C 0.79282 0.28337 0.77549 0.0
C139 C 0.6939 0.23078 0.69845 0.0
Zn140 Zn 0.72387 0.78577 0.75033 0.0
Zn141 Zn 0.77262 0.70541 0.74245 0.0
C142 C 0.72453 0.81908 0.81846 0.0
O143 O 0.71339 0.78502 0.82704 0.0
C144 C 0.78652 0.67341 0.68402 0.0
O145 O 0.81872 0.69339 0.69837 0.0
O146 O 0.6863 0.79746 0.71709 0.0
O147 O 0.77034 0.79605 0.72686 0.0
O148 O 0.80028 0.75581 0.72337 0.0
C149 C 0.69568 0.82916 0.70538 0.0
O150 O 0.72923 0.85063 0.71324 0.0
O151 O 0.73272 0.82561 0.78815 0.0
C152 C 0.82759 0.69223 0.79748 0.0
O153 O 0.82717 0.72131 0.81561 0.0
O154 O 0.80833 0.68337 0.76851 0.0
O155 O 0.72742 0.69384 0.7706 0.0
O156 O 0.70032 0.73676 0.7713 0.0
O157 O 0.75854 0.673 0.69844 0.0
C158 C 0.79691 0.78708 0.71726 0.0
C159 C 0.70189 0.70539 0.77937 0.0
C160 C 0.90815 0.06108 0.5432 0.0
C161 C 0.95899 0.07556 0.44982 0.0
C162 C 0.94629 0.93494 0.44951 0.0
Mg163 Mg 0.98739 0.07476 0.52514 0.0
O164 O 0.97069 0.0237 0.52177 0.0
Mg165 Mg 0.92472 0.99806 0.49152 0.0
Mg166 Mg 0.00264 0.99712 0.50461 0.0
O167 O 0.0345 0.97121 0.48726 0.0
Mg168 Mg 0.01927 0.92046 0.48004 0.0
Mg169 Mg 0.08201 0.99761 0.5151 0.0
C170 C 0.05614 0.05649 0.56325 0.0
C171 C 0.06511 0.05491 0.46044 0.0
O172 O 0.89757 0.03139 0.52377 0.0
O173 O 0.94136 0.08162 0.54777 0.0
O174 O 0.9365 0.04394 0.45336 0.0
O175 O 0.98439 0.09176 0.47347 0.0
O176 O 0.0376 0.07864 0.55774 0.0
O177 O 0.04795 0.02536 0.54654 0.0
C178 C 0.93934 0.94189 0.54862 0.0
O179 O 0.97322 0.95248 0.54336 0.0
O180 O 0.91653 0.95459 0.53171 0.0
O181 O 0.10808 0.96833 0.47706 0.0
O182 O 0.06303 0.91977 0.45149 0.0
O183 O 0.07503 0.94874 0.55084 0.0
C184 C 0.09599 0.94087 0.45484 0.0
O185 O 0.02938 0.89959 0.52888 0.0
O186 O 0.96496 0.91269 0.4531 0.0
C187 C 0.0552 0.91538 0.55232 0.0
O188 O 0.95749 0.96733 0.46392 0.0
O189 O 0.03123 0.04217 0.46539 0.0
O190 O 0.08875 0.04378 0.47776 0.0
C191 C 0.41561 0.06678 0.04354 0.0
C192 C 0.45922 0.07835 0.94596 0.0
C193 C 0.46496 0.94798 0.9478 0.0
Mg194 Mg 0.49348 0.08672 0.02178 0.0
O195 O 0.48325 0.03603 0.02168 0.0
Mg196 Mg 0.43732 0.00538 0.9935 0.0
Mg197 Mg 0.51745 0.0117 0.00434 0.0
O198 O 0.55086 0.98799 0.98537 0.0
Mg199 Mg 0.53856 0.93725 0.97846 0.0
Mg200 Mg 0.59662 0.01658 0.01344 0.0
C201 C 0.57279 0.08183 0.04876 0.0
C202 C 0.57174 0.06773 0.95837 0.0
O203 O 0.40681 0.03742 0.02374 0.0
O204 O 0.44818 0.08891 0.04865 0.0
O205 O 0.44165 0.04528 0.95089 0.0
O206 O 0.48189 0.09938 0.96934 0.0
O207 O 0.55056 0.10044 0.04376 0.0
O208 O 0.56327 0.04712 0.04146 0.0
C209 C 0.46347 0.95796 0.05192 0.0
O210 O 0.4961 0.96926 0.04392 0.0
O211 O 0.43768 0.96772 0.03663 0.0
O212 O 0.62654 0.9858 0.98029 0.0
O213 O 0.58516 0.93437 0.95538 0.0
O214 O 0.5883 0.97055 0.0524 0.0
C215 C 0.61762 0.95636 0.96059 0.0
O216 O 0.54485 0.91975 0.02927 0.0
O217 O 0.48627 0.92838 0.94749 0.0
C218 C 0.56802 0.93738 0.0541 0.0
O219 O 0.4724 0.977 0.96733 0.0
O220 O 0.53897 0.05407 0.96551 0.0
O221 O 0.5981 0.05848 0.97333 0.0
C222 C 0.9165 0.55452 0.0374 0.0
C223 C 0.95333 0.55448 0.94035 0.0
C224 C 0.95287 0.41747 0.9631 0.0
Mg225 Mg 0.99178 0.5635 0.01293 0.0
O226 O 0.9767 0.51394 0.022 0.0
Mg227 Mg 0.93072 0.48427 0.9939 0.0
Mg228 Mg 0.00989 0.48766 0.00737 0.0
O229 O 0.04258 0.46218 0.9912 0.0
Mg230 Mg 0.02875 0.41155 0.99379 0.0
Mg231 Mg 0.08931 0.49199 0.01742 0.0
C232 C 0.06322 0.55675 0.05333 0.0
C233 C 0.06273 0.54229 0.96239 0.0
O234 O 0.90422 0.52199 0.02262 0.0
O235 O 0.94969 0.5746 0.03805 0.0
O236 O 0.93393 0.52318 0.94862 0.0
O237 O 0.98044 0.57424 0.9604 0.0
O238 O 0.04743 0.5765 0.03611 0.0
O239 O 0.05531 0.5221 0.0469 0.0
C240 C 0.95606 0.43581 0.05277 0.0
O241 O 0.98874 0.44756 0.04573 0.0
O242 O 0.93031 0.44602 0.0377 0.0
O243 O 0.1159 0.45819 0.98284 0.0
O244 O 0.07113 0.4055 0.96651 0.0
O245 O 0.08724 0.44927 0.05953 0.0
C246 C 0.10362 0.42675 0.96587 0.0
O247 O 0.04006 0.39899 0.04554 0.0
O248 O 0.97295 0.39717 0.97011 0.0
C249 C 0.06744 0.41733 0.0662 0.0
O250 O 0.96423 0.45215 0.96988 0.0
O251 O 0.03036 0.52844 0.96945 0.0
O252 O 0.08943 0.5331 0.9764 0.0
C253 C 0.39681 0.55548 0.03461 0.0
C254 C 0.42808 0.56585 0.93109 0.0
C255 C 0.42629 0.4259 0.94053 0.0
Mg256 Mg 0.47012 0.5719 0.00299 0.0
O257 O 0.45505 0.52079 0.00371 0.0
Mg258 Mg 0.40623 0.49139 0.9796 0.0
Mg259 Mg 0.48605 0.49306 0.98764 0.0
O260 O 0.517 0.46513 0.97118 0.0
Mg261 Mg 0.50121 0.41401 0.96929 0.0
Mg262 Mg 0.56326 0.49191 0.00083 0.0
C263 C 0.54421 0.55994 0.03514 0.0
C264 C 0.5494 0.54551 0.94125 0.0
O265 O 0.38307 0.5257 0.01542 0.0
O266 O 0.42941 0.57653 0.0339 0.0
O267 O 0.40986 0.53364 0.93834 0.0
O268 O 0.45516 0.58577 0.95144 0.0
O269 O 0.52596 0.58206 0.02795 0.0
O270 O 0.53197 0.52581 0.02575 0.0
C271 C 0.42693 0.43921 0.03749 0.0
O272 O 0.46011 0.45104 0.03027 0.0
O273 O 0.40242 0.44986 0.02113 0.0
O274 O 0.58988 0.45613 0.97133 0.0
O275 O 0.54608 0.40759 0.94422 0.0
O276 O 0.55135 0.44935 0.04188 0.0
C277 C 0.57946 0.42731 0.95078 0.0
O278 O 0.5068 0.39899 0.0212 0.0
O279 O 0.44594 0.40469 0.94491 0.0
C280 C 0.52999 0.41726 0.04562 0.0
O281 O 0.43789 0.46002 0.95009 0.0
O282 O 0.51535 0.53586 0.94647 0.0
O283 O 0.57162 0.5327 0.95895 0.0
C284 C 0.88901 0.56169 0.52058 0.0
C285 C 0.935 0.57345 0.42632 0.0
C286 C 0.93445 0.43106 0.44521 0.0
Mg287 Mg 0.96755 0.57844 0.50183 0.0
O288 O 0.95596 0.52783 0.50016 0.0
Mg289 Mg 0.90986 0.49789 0.47256 0.0
Mg290 Mg 0.99012 0.50364 0.48286 0.0
O291 O 0.02448 0.47889 0.46654 0.0
Mg292 Mg 0.01482 0.42862 0.47105 0.0
Mg293 Mg 0.07142 0.51113 0.49174 0.0
C294 C 0.04404 0.5726 0.53301 0.0
C295 C 0.04357 0.55778 0.43411 0.0
O296 O 0.87988 0.53097 0.50281 0.0
O297 O 0.92154 0.58368 0.52487 0.0
O298 O 0.91501 0.5406 0.43002 0.0
O299 O 0.95957 0.59154 0.44988 0.0
O300 O 0.02172 0.59116 0.52964 0.0
O301 O 0.03652 0.54015 0.51921 0.0
C302 C 0.93553 0.44914 0.53043 0.0
O303 O 0.96836 0.46181 0.52292 0.0
O304 O 0.90951 0.45887 0.51534 0.0
O305 O 0.09998 0.47767 0.45985 0.0
O306 O 0.05771 0.42352 0.44283 0.0
O307 O 0.07208 0.4732 0.53488 0.0
C308 C 0.08995 0.446 0.44348 0.0
O309 O 0.03101 0.41841 0.52326 0.0
O310 O 0.95696 0.4132 0.4525 0.0
C311 C 0.05659 0.44082 0.54322 0.0
O312 O 0.94395 0.46623 0.44717 0.0
O313 O 0.01086 0.54565 0.44193 0.0
O314 O 0.06921 0.54795 0.44935 0.0
C315 C 0.42009 0.08237 0.50009 0.0
C316 C 0.43005 0.04586 0.40154 0.0
C317 C 0.43787 0.9226 0.45775 0.0
Mg318 Mg 0.48466 0.07455 0.46296 0.0
O319 O 0.47277 0.03255 0.48775 0.0
Mg320 Mg 0.42242 0.99915 0.47492 0.0
Mg321 Mg 0.50145 0.99986 0.47686 0.0
O322 O 0.53016 0.96782 0.46455 0.0
Mg323 Mg 0.5182 0.9192 0.4762 0.0
Mg324 Mg 0.57883 0.00166 0.48303 0.0
C325 C 0.56089 0.07755 0.49674 0.0
C326 C 0.54532 0.03311 0.41573 0.0
O327 O 0.40565 0.04727 0.49766 0.0
O328 O 0.45053 0.09861 0.48886 0.0
O329 O 0.41244 0.02256 0.42134 0.0
O330 O 0.46278 0.06503 0.41049 0.0
O331 O 0.54307 0.08893 0.47278 0.0
O332 O 0.55199 0.0435 0.50331 0.0
C333 C 0.46152 0.97104 0.54141 0.0
O334 O 0.49007 0.97582 0.52665 0.0
O335 O 0.43326 0.9779 0.52773 0.0
O336 O 0.60146 0.95857 0.45946 0.0
O337 O 0.55855 0.90354 0.45044 0.0
O338 O 0.58035 0.9727 0.53541 0.0
C339 C 0.59102 0.92466 0.44876 0.0
O340 O 0.53421 0.92047 0.52953 0.0
O341 O 0.45957 0.90375 0.46399 0.0
C342 C 0.56119 0.94317 0.54754 0.0
O343 O 0.44907 0.95721 0.45436 0.0
O344 O 0.51418 0.02416 0.42663 0.0
O345 O 0.57315 0.02784 0.43234 0.0
H346 H 0.21484 0.1906 0.35404 0.0
H347 H 0.13381 0.16347 0.26524 0.0
H348 H 0.08848 0.12658 0.30089 0.0
H349 H 0.1864 0.10077 0.38778 0.0
H350 H 0.19596 0.11796 0.43214 0.0
H351 H 0.22116 0.1438 0.40006 0.0
H352 H 0.20271 0.19992 0.41872 0.0
H353 H 0.17712 0.1741 0.45063 0.0
H354 H 0.15532 0.19548 0.41875 0.0
H355 H 0.05029 0.09347 0.34822 0.0
H356 H 0.02659 0.0608 0.39886 0.0
H357 H 0.13344 0.10441 0.45574 0.0
C358 C 0.18751 0.17704 0.34207 0.0
C359 C 0.17811 0.18053 0.30653 0.0
C360 C 0.14202 0.16158 0.29216 0.0
C361 C 0.11589 0.14058 0.31239 0.0
C362 C 0.12595 0.13788 0.34727 0.0
C363 C 0.16119 0.15513 0.36181 0.0
C364 C 0.16563 0.14608 0.39937 0.0
C365 C 0.19396 0.12596 0.40517 0.0
C366 C 0.1758 0.18097 0.42328 0.0
C367 C 0.12756 0.12102 0.40373 0.0
C368 C 0.10481 0.11724 0.37358 0.0
C369 C 0.06813 0.09617 0.37177 0.0
C370 C 0.0547 0.07783 0.40091 0.0
C371 C 0.07781 0.07973 0.43169 0.0
C372 C 0.11476 0.10216 0.43284 0.0
H373 H 0.8139 0.11751 0.31945 0.0
H374 H 0.87532 0.23261 0.33849 0.0
H375 H 0.92614 0.21581 0.36876 0.0
H376 H 0.83802 0.09153 0.40017 0.0
H377 H 0.83943 0.04743 0.38493 0.0
H378 H 0.81064 0.06894 0.36126 0.0
H379 H 0.84197 0.06357 0.30674 0.0
H380 H 0.87133 0.04258 0.33061 0.0
H381 H 0.89054 0.08309 0.30822 0.0
H382 H 0.9679 0.1862 0.40102 0.0
H383 H 0.99328 0.1475 0.43819 0.0
H384 H 0.90392 0.05197 0.39748 0.0
C385 C 0.83827 0.13926 0.32944 0.0
C386 C 0.84081 0.17637 0.32639 0.0
C387 C 0.87286 0.20398 0.34048 0.0
C388 C 0.90195 0.19468 0.35742 0.0
C389 C 0.89851 0.1577 0.35993 0.0
C390 C 0.8673 0.13048 0.34652 0.0
C391 C 0.86857 0.09301 0.35571 0.0
C392 C 0.83734 0.07415 0.37678 0.0
C393 C 0.86809 0.06916 0.32339 0.0
C394 C 0.90499 0.10338 0.37726 0.0
C395 C 0.92224 0.14072 0.37887 0.0
C396 C 0.95484 0.1569 0.39961 0.0
C397 C 0.96915 0.13461 0.42057 0.0
C398 C 0.95053 0.09664 0.42094 0.0
C399 C 0.91904 0.08079 0.39768 0.0
H400 H 0.81582 0.79325 0.31119 0.0
H401 H 0.82089 0.88429 0.24764 0.0
H402 H 0.84699 0.92765 0.29881 0.0
H403 H 0.79968 0.83607 0.39402 0.0
H404 H 0.82831 0.81479 0.41847 0.0
H405 H 0.80216 0.79236 0.37891 0.0
H406 H 0.86173 0.78859 0.35645 0.0
H407 H 0.88742 0.81151 0.39569 0.0
H408 H 0.899 0.83009 0.3551 0.0
H409 H 0.87882 0.96034 0.3552 0.0
H410 H 0.92193 0.97972 0.40784 0.0
H411 H 0.89927 0.86654 0.43285 0.0
C412 C 0.82174 0.82237 0.30841 0.0
C413 C 0.81636 0.83586 0.27606 0.0
C414 C 0.82489 0.87385 0.27258 0.0
C415 C 0.83923 0.89843 0.30149 0.0
C416 C 0.84473 0.88427 0.33329 0.0
C417 C 0.83641 0.84702 0.33674 0.0
C418 C 0.84998 0.83863 0.372 0.0
C419 C 0.81813 0.81932 0.39202 0.0
C420 C 0.87609 0.81591 0.36964 0.0
C421 C 0.8694 0.87699 0.38727 0.0
C422 C 0.8647 0.903 0.36521 0.0
C423 C 0.88225 0.94025 0.37284 0.0
C424 C 0.90657 0.95102 0.40288 0.0
C425 C 0.91378 0.92449 0.42425 0.0
C426 C 0.89392 0.88726 0.417 0.0
H427 H 0.16232 0.81703 0.33037 0.0
H428 H 0.24383 0.91376 0.30275 0.0
H429 H 0.21789 0.95267 0.33739 0.0
H430 H 0.08696 0.85779 0.3328 0.0
H431 H 0.0709 0.83137 0.36855 0.0
H432 H 0.09245 0.81326 0.3369 0.0
H433 H 0.13805 0.80386 0.38553 0.0
H434 H 0.11775 0.82315 0.41729 0.0
H435 H 0.16552 0.84251 0.41351 0.0
H436 H 0.18897 0.9788 0.38402 0.0
H437 H 0.15369 0.99082 0.42992 0.0
H438 H 0.09151 0.87556 0.42423 0.0
C439 C 0.17377 0.84653 0.33051 0.0
C440 C 0.205 0.8627 0.31439 0.0
C441 C 0.21972 0.90117 0.31508 0.0
C442 C 0.20528 0.92329 0.3348 0.0
C443 C 0.17576 0.90616 0.35253 0.0
C444 C 0.15956 0.86862 0.34955 0.0
C445 C 0.12995 0.85612 0.37267 0.0
C446 C 0.09287 0.83863 0.35146 0.0
C447 C 0.13836 0.82988 0.39878 0.0
C448 C 0.1325 0.89234 0.39006 0.0
C449 C 0.15903 0.92101 0.37837 0.0
C450 C 0.16766 0.95664 0.3928 0.0
C451 C 0.14788 0.96313 0.41911 0.0
C452 C 0.11986 0.93407 0.43038 0.0
C453 C 0.11249 0.89835 0.4158 0.0
H454 H 0.20165 0.87784 0.68822 0.0
H455 H 0.16094 0.76428 0.64925 0.0
H456 H 0.10919 0.77669 0.61576 0.0
H457 H 0.1133 0.89305 0.69249 0.0
H458 H 0.12951 0.93875 0.67821 0.0
H459 H 0.16039 0.91977 0.70245 0.0
H460 H 0.20246 0.93243 0.6538 0.0
H461 H 0.1719 0.95171 0.62975 0.0
H462 H 0.18392 0.91459 0.61054 0.0
H463 H 0.06362 0.80262 0.58446 0.0
H464 H 0.03321 0.84051 0.55181 0.0
H465 H 0.10608 0.93802 0.60903 0.0
C466 C 0.1815 0.8554 0.67312 0.0
C467 C 0.18505 0.81998 0.67161 0.0
C468 C 0.15863 0.79158 0.65086 0.0
C469 C 0.12904 0.79834 0.63198 0.0
C470 C 0.12645 0.8337 0.63398 0.0
C471 C 0.15224 0.86182 0.65376 0.0
C472 C 0.14542 0.89811 0.64888 0.0
C473 C 0.13663 0.91331 0.68251 0.0
C474 C 0.17784 0.92582 0.63489 0.0
C475 C 0.11236 0.88631 0.62242 0.0
C476 C 0.10122 0.84891 0.61489 0.0
C477 C 0.07202 0.83187 0.59032 0.0
C478 C 0.05475 0.85373 0.572 0.0
C479 C 0.0672 0.89241 0.57774 0.0
C480 C 0.09568 0.9086 0.60413 0.0
H481 H 0.22403 0.1518 0.68772 0.0
H482 H 0.14696 0.16846 0.75336 0.0
H483 H 0.10039 0.11391 0.72524 0.0
H484 H 0.17887 0.14172 0.61834 0.0
H485 H 0.18889 0.10499 0.596 0.0
H486 H 0.22038 0.13144 0.63048 0.0
H487 H 0.2179 0.07333 0.66251 0.0
H488 H 0.18683 0.04606 0.62748 0.0
H489 H 0.17478 0.04224 0.67077 0.0
H490 H 0.0594 0.07584 0.67994 0.0
H491 H 0.02737 0.05765 0.62202 0.0
H492 H 0.12864 0.06546 0.58145 0.0
C493 C 0.19813 0.14223 0.69767 0.0
C494 C 0.18911 0.16383 0.72282 0.0
C495 C 0.1544 0.15199 0.73426 0.0
C496 C 0.12788 0.12079 0.71857 0.0
C497 C 0.13658 0.10176 0.69155 0.0
C498 C 0.17127 0.11145 0.68162 0.0
C499 C 0.17161 0.09236 0.64719 0.0
C500 C 0.19101 0.11928 0.62153 0.0
C501 C 0.18879 0.06168 0.6523 0.0
C502 C 0.13121 0.07636 0.63648 0.0
C503 C 0.11176 0.07976 0.66355 0.0
C504 C 0.07427 0.07197 0.65899 0.0
C505 C 0.05637 0.06215 0.62591 0.0
C506 C 0.0759 0.06062 0.59766 0.0
C507 C 0.11344 0.06613 0.60302 0.0
H508 H 0.83447 0.19261 0.65579 0.0
H509 H 0.7402 0.0995 0.6661 0.0
H510 H 0.76475 0.06033 0.63046 0.0
H511 H 0.84141 0.17027 0.56773 0.0
H512 H 0.89031 0.18649 0.57242 0.0
H513 H 0.86579 0.20655 0.59952 0.0
H514 H 0.901 0.19181 0.65369 0.0
H515 H 0.92587 0.17195 0.62686 0.0
H516 H 0.9011 0.14547 0.65891 0.0
H517 H 0.79928 0.03231 0.59263 0.0
H518 H 0.8422 0.01633 0.55759 0.0
H519 H 0.91383 0.12847 0.57228 0.0
C520 C 0.8195 0.16377 0.65102 0.0
C521 C 0.78606 0.14848 0.66407 0.0
C522 C 0.76628 0.11115 0.65665 0.0
C523 C 0.7799 0.08893 0.63635 0.0
C524 C 0.81302 0.10485 0.62357 0.0
C525 C 0.83257 0.14142 0.63068 0.0
C526 C 0.86696 0.1521 0.61324 0.0
C527 C 0.86604 0.18053 0.58665 0.0
C528 C 0.90072 0.16614 0.63977 0.0
C529 C 0.86425 0.11559 0.59591 0.0
C530 C 0.83273 0.08881 0.60176 0.0
C531 C 0.82408 0.05302 0.58792 0.0
C532 C 0.84855 0.04426 0.56794 0.0
C533 C 0.88141 0.07112 0.56231 0.0
C534 C 0.88908 0.10727 0.57634 0.0
H535 H 0.83082 0.77564 0.65965 0.0
H536 H 0.82268 0.86082 0.73028 0.0
H537 H 0.86277 0.90762 0.69785 0.0
H538 H 0.92597 0.82091 0.64202 0.0
H539 H 0.91708 0.80655 0.59694 0.0
H540 H 0.89085 0.7788 0.62744 0.0
H541 H 0.8316 0.78108 0.59316 0.0
H542 H 0.85758 0.80868 0.56251 0.0
H543 H 0.82613 0.82481 0.58411 0.0
H544 H 0.90217 0.94604 0.65733 0.0
H545 H 0.93318 0.97399 0.60826 0.0
H546 H 0.91406 0.86628 0.55936 0.0
C547 C 0.8382 0.80411 0.66868 0.0
C548 C 0.82398 0.81431 0.69826 0.0
C549 C 0.83339 0.85206 0.70824 0.0
C550 C 0.85629 0.87896 0.6899 0.0
C551 C 0.86956 0.86818 0.66091 0.0
C552 C 0.86064 0.83171 0.65 0.0
C553 C 0.87647 0.82823 0.61622 0.0
C554 C 0.90424 0.80737 0.62094 0.0
C555 C 0.84613 0.8096 0.58729 0.0
C556 C 0.89512 0.86836 0.6097 0.0
C557 C 0.89127 0.89072 0.63637 0.0
C558 C 0.90551 0.92872 0.63648 0.0
C559 C 0.92339 0.94443 0.60851 0.0
C560 C 0.92703 0.92259 0.5802 0.0
C561 C 0.91273 0.88382 0.58096 0.0
H562 H 0.34279 0.16147 0.18994 0.0
H563 H 0.24021 0.13746 0.12588 0.0
H564 H 0.26172 0.101 0.0843 0.0
H565 H 0.39884 0.17644 0.12683 0.0
H566 H 0.43018 0.15487 0.14632 0.0
H567 H 0.40466 0.17404 0.17286 0.0
H568 H 0.37898 0.11168 0.19943 0.0
H569 H 0.40487 0.0923 0.17325 0.0
H570 H 0.35649 0.07126 0.17161 0.0
H571 H 0.29789 0.07227 0.04732 0.0
H572 H 0.34434 0.054 0.0189 0.0
H573 H 0.42295 0.09925 0.10767 0.0
C574 C 0.32457 0.14799 0.16744 0.0
C575 C 0.28993 0.15222 0.16091 0.0
C576 C 0.26674 0.13415 0.13137 0.0
C577 C 0.27879 0.11353 0.10768 0.0
C578 C 0.31372 0.11082 0.11447 0.0
C579 C 0.33599 0.1272 0.14398 0.0
C580 C 0.37294 0.12208 0.14481 0.0
C581 C 0.40342 0.15906 0.14786 0.0
C582 C 0.37865 0.09789 0.174 0.0
C583 C 0.36904 0.10231 0.1101 0.0
C584 C 0.33444 0.09508 0.09327 0.0
C585 C 0.32488 0.0775 0.06047 0.0
C586 C 0.35139 0.06726 0.04454 0.0
C587 C 0.38717 0.07545 0.06111 0.0
C588 C 0.39586 0.09293 0.09435 0.0
H589 H 0.80991 0.31824 0.15146 0.0
H590 H 0.87802 0.3731 0.24363 0.0
H591 H 0.93141 0.38985 0.21086 0.0
H592 H 0.88471 0.29014 0.11028 0.0
H593 H 0.86584 0.29782 0.06841 0.0
H594 H 0.83636 0.28035 0.10095 0.0
H595 H 0.80931 0.33368 0.09383 0.0
H596 H 0.83827 0.35089 0.06143 0.0
H597 H 0.8394 0.38018 0.09861 0.0
H598 H 0.97223 0.41244 0.16674 0.0
H599 H 0.99467 0.44384 0.11544 0.0
H600 H 0.89943 0.37486 0.05218 0.0
C601 C 0.83628 0.33321 0.1648 0.0
C602 C 0.84021 0.34519 0.19958 0.0
C603 C 0.87484 0.36409 0.21671 0.0
C604 C 0.90522 0.37312 0.19846 0.0
C605 C 0.90029 0.36193 0.1636 0.0
C606 C 0.86659 0.34197 0.14708 0.0
C607 C 0.86665 0.33874 0.10867 0.0
C608 C 0.8632 0.29942 0.09637 0.0
C609 C 0.8367 0.35171 0.08958 0.0
C610 C 0.90415 0.36422 0.10574 0.0
C611 C 0.92403 0.37551 0.13768 0.0
C612 C 0.95747 0.40303 0.14161 0.0
C613 C 0.96991 0.42081 0.11249 0.0
C614 C 0.94819 0.4115 0.08053 0.0
C615 C 0.91613 0.38188 0.0767 0.0
H616 H 0.65501 0.79327 0.13141 0.0
H617 H 0.6595 0.84482 0.23254 0.0
H618 H 0.62493 0.8836 0.2074 0.0
H619 H 0.66774 0.87224 0.08574 0.0
H620 H 0.63704 0.84982 0.04853 0.0
H621 H 0.65965 0.82433 0.07498 0.0
H622 H 0.59747 0.77758 0.08355 0.0
H623 H 0.57467 0.80303 0.05708 0.0
H624 H 0.56304 0.79353 0.10001 0.0
H625 H 0.59697 0.92228 0.17003 0.0
H626 H 0.57449 0.95479 0.12339 0.0
H627 H 0.58382 0.87453 0.04809 0.0
C628 C 0.64838 0.81242 0.14834 0.0
C629 C 0.66004 0.81612 0.18389 0.0
C630 C 0.65078 0.84148 0.20519 0.0
C631 C 0.63112 0.86361 0.19118 0.0
C632 C 0.62042 0.85963 0.15593 0.0
C633 C 0.62837 0.83435 0.13486 0.0
C634 C 0.61499 0.83639 0.09766 0.0
C635 C 0.64674 0.8463 0.07544 0.0
C636 C 0.5858 0.80049 0.08377 0.0
C637 C 0.59901 0.8673 0.10099 0.0
C638 C 0.60249 0.88052 0.13476 0.0
C639 C 0.59323 0.91161 0.14359 0.0
C640 C 0.58057 0.92991 0.11711 0.0
C641 C 0.57669 0.91647 0.08255 0.0
C642 C 0.58538 0.88448 0.07455 0.0
H643 H 0.219 0.65927 0.19113 0.0
H644 H 0.14965 0.72501 0.20999 0.0
H645 H 0.09659 0.67482 0.18433 0.0
H646 H 0.18486 0.63365 0.11037 0.0
H647 H 0.18879 0.5882 0.11035 0.0
H648 H 0.21798 0.62353 0.14023 0.0
H649 H 0.19454 0.58104 0.19076 0.0
H650 H 0.16567 0.54696 0.15898 0.0
H651 H 0.14656 0.56373 0.19353 0.0
H652 H 0.0546 0.62591 0.14769 0.0
H653 H 0.02877 0.58883 0.09407 0.0
H654 H 0.12573 0.55674 0.09197 0.0
C655 C 0.19266 0.66293 0.19034 0.0
C656 C 0.18853 0.69617 0.20222 0.0
C657 C 0.1535 0.69984 0.20086 0.0
C658 C 0.12312 0.67118 0.18689 0.0
C659 C 0.12831 0.63918 0.17421 0.0
C660 C 0.16232 0.63502 0.17544 0.0
C661 C 0.16191 0.60206 0.15312 0.0
C662 C 0.19001 0.61249 0.127 0.0
C663 C 0.16752 0.57165 0.1754 0.0
C664 C 0.12346 0.59122 0.1358 0.0
C665 C 0.10396 0.61133 0.15032 0.0
C666 C 0.06933 0.60965 0.13648 0.0
C667 C 0.05516 0.58893 0.10577 0.0
C668 C 0.07602 0.57099 0.08881 0.0
C669 C 0.10957 0.57028 0.10481 0.0
H670 H 0.3478 0.85386 0.7789 0.0
H671 H 0.25523 0.84483 0.83467 0.0
H672 H 0.29321 0.89394 0.87664 0.0
H673 H 0.40142 0.85042 0.84385 0.0
H674 H 0.44348 0.88199 0.8336 0.0
H675 H 0.40847 0.85995 0.79978 0.0
H676 H 0.40779 0.92236 0.77809 0.0
H677 H 0.44362 0.94518 0.81145 0.0
H678 H 0.40204 0.95665 0.80731 0.0
H679 H 0.34188 0.92936 0.91964 0.0
H680 H 0.39743 0.94728 0.96085 0.0
H681 H 0.45945 0.92791 0.88057 0.0
C682 C 0.33532 0.86378 0.79899 0.0
C683 C 0.2989 0.84613 0.80381 0.0
C684 C 0.28326 0.85839 0.83082 0.0
C685 C 0.30455 0.88646 0.85448 0.0
C686 C 0.34132 0.90148 0.85079 0.0
C687 C 0.35662 0.89082 0.82342 0.0
C688 C 0.39764 0.90398 0.82957 0.0
C689 C 0.41362 0.87218 0.82656 0.0
C690 C 0.4137 0.93383 0.80516 0.0
C691 C 0.40273 0.91985 0.86608 0.0
C692 C 0.37018 0.9201 0.87714 0.0
C693 C 0.36765 0.93022 0.91105 0.0
C694 C 0.39913 0.93997 0.93431 0.0
C695 C 0.43214 0.93834 0.92362 0.0
C696 C 0.43414 0.92886 0.88912 0.0
H697 H 0.13486 0.29195 0.8249 0.0
H698 H 0.24637 0.36167 0.82714 0.0
H699 H 0.2367 0.40177 0.87338 0.0
H700 H 0.09711 0.36328 0.83538 0.0
H701 H 0.0633 0.33782 0.86128 0.0
H702 H 0.0803 0.31405 0.83011 0.0
H703 H 0.09873 0.27572 0.87774 0.0
H704 H 0.08161 0.29926 0.90904 0.0
H705 H 0.12785 0.29878 0.91563 0.0
H706 H 0.21225 0.43604 0.91832 0.0
H707 H 0.17642 0.45907 0.95736 0.0
H708 H 0.08216 0.36541 0.92307 0.0
C709 C 0.15746 0.31539 0.83529 0.0
C710 C 0.19145 0.3235 0.82266 0.0
C711 C 0.22019 0.35468 0.83682 0.0
C712 C 0.21488 0.3777 0.86295 0.0
C713 C 0.18068 0.36909 0.87451 0.0
C714 C 0.1526 0.33852 0.86107 0.0
C715 C 0.11807 0.33547 0.87669 0.0
C716 C 0.08794 0.33781 0.84923 0.0
C717 C 0.10587 0.30023 0.89593 0.0
C718 C 0.13095 0.36901 0.90117 0.0
C719 C 0.16701 0.38833 0.89973 0.0
C720 C 0.18403 0.4209 0.91977 0.0
C721 C 0.16352 0.43381 0.94183 0.0
C722 C 0.12651 0.41403 0.94356 0.0
C723 C 0.11042 0.38125 0.92284 0.0
H724 H 0.69624 0.20493 0.83871 0.0
H725 H 0.59738 0.19936 0.77418 0.0
H726 H 0.56116 0.15849 0.81379 0.0
H727 H 0.66862 0.11149 0.86224 0.0
H728 H 0.68994 0.1226 0.90583 0.0
H729 H 0.70814 0.15118 0.87214 0.0
H730 H 0.70268 0.20757 0.90628 0.0
H731 H 0.6841 0.17906 0.93992 0.0
H732 H 0.65933 0.20662 0.91928 0.0
H733 H 0.53554 0.11891 0.86032 0.0
H734 H 0.52256 0.08014 0.90945 0.0
H735 H 0.63787 0.11211 0.94415 0.0
C736 C 0.66701 0.19476 0.83276 0.0
C737 C 0.64957 0.20515 0.80337 0.0
C738 C 0.61126 0.19173 0.79663 0.0
C739 C 0.59044 0.16859 0.81897 0.0
C740 C 0.60836 0.15933 0.84802 0.0
C741 C 0.64575 0.17183 0.85495 0.0
C742 C 0.65814 0.15788 0.88812 0.0
C743 C 0.68264 0.13438 0.88168 0.0
C744 C 0.67719 0.18968 0.91498 0.0
C745 C 0.62191 0.13502 0.89827 0.0
C746 C 0.59352 0.13655 0.87499 0.0
C747 C 0.55752 0.11753 0.8788 0.0
C748 C 0.5504 0.09579 0.90691 0.0
C749 C 0.57917 0.09321 0.93067 0.0
C750 C 0.6153 0.11346 0.92639 0.0
H751 H 0.87437 0.70351 0.85736 0.0
H752 H 0.82785 0.62626 0.7694 0.0
H753 H 0.85919 0.58447 0.79385 0.0
H754 H 0.96266 0.68741 0.86808 0.0
H755 H 0.96611 0.69165 0.91434 0.0
H756 H 0.94155 0.71644 0.88906 0.0
H757 H 0.88452 0.6871 0.91979 0.0
H758 H 0.90896 0.66239 0.9452 0.0
H759 H 0.86672 0.63797 0.91989 0.0
H760 H 0.89025 0.54784 0.83119 0.0
H761 H 0.92126 0.52152 0.87705 0.0
H762 H 0.95139 0.62426 0.93812 0.0
C763 C 0.8711 0.67802 0.843 0.0
C764 C 0.84851 0.66828 0.8114 0.0
C765 C 0.84495 0.6345 0.79361 0.0
C766 C 0.86271 0.6105 0.80729 0.0
C767 C 0.8844 0.62073 0.83865 0.0
C768 C 0.88895 0.65387 0.85612 0.0
C769 C 0.91286 0.65783 0.88987 0.0
C770 C 0.94788 0.69026 0.89034 0.0
C771 C 0.89202 0.66153 0.92049 0.0
C772 C 0.92068 0.62163 0.88883 0.0
C773 C 0.90382 0.60044 0.8592 0.0
C774 C 0.90429 0.56453 0.85411 0.0
C775 C 0.922 0.54979 0.88019 0.0
C776 C 0.93961 0.57118 0.91059 0.0
C777 C 0.93937 0.60773 0.91455 0.0
H778 H 0.21656 0.38066 0.20113 0.0
H779 H 0.14697 0.26797 0.1988 0.0
H780 H 0.09912 0.28402 0.16257 0.0
H781 H 0.14484 0.42294 0.20397 0.0
H782 H 0.16562 0.45876 0.17687 0.0
H783 H 0.19348 0.43892 0.20424 0.0
H784 H 0.22235 0.42297 0.15149 0.0
H785 H 0.19491 0.4431 0.12412 0.0
H786 H 0.19335 0.39645 0.11497 0.0
H787 H 0.05957 0.31228 0.12538 0.0
H788 H 0.03374 0.34836 0.08564 0.0
H789 H 0.12981 0.44262 0.11167 0.0
C790 C 0.19122 0.35929 0.19317 0.0
C791 C 0.18552 0.32298 0.2029 0.0
C792 C 0.15198 0.29593 0.19172 0.0
C793 C 0.12458 0.30487 0.17131 0.0
C794 C 0.13106 0.341 0.16244 0.0
C795 C 0.16365 0.36773 0.17287 0.0
C796 C 0.16452 0.40412 0.15855 0.0
C797 C 0.16728 0.43288 0.18764 0.0
C798 C 0.19561 0.41742 0.13593 0.0
C799 C 0.12772 0.39346 0.13744 0.0
C800 C 0.10856 0.35713 0.14061 0.0
C801 C 0.07431 0.34077 0.12283 0.0
C802 C 0.05981 0.36164 0.10033 0.0
C803 C 0.07969 0.39847 0.09533 0.0
C804 C 0.1137 0.41472 0.115 0.0
H805 H 0.12205 0.62275 0.7908 0.0
H806 H 0.14767 0.72919 0.84446 0.0
H807 H 0.10936 0.70146 0.88908 0.0
H808 H 0.02734 0.57885 0.82259 0.0
H809 H 0.03732 0.53638 0.82655 0.0
H810 H 0.05399 0.56556 0.79264 0.0
H811 H 0.1192 0.56561 0.81327 0.0
H812 H 0.10317 0.53761 0.8477 0.0
H813 H 0.13802 0.58116 0.857 0.0
H814 H 0.08438 0.66223 0.93425 0.0
H815 H 0.07233 0.61389 0.97586 0.0
H816 H 0.06631 0.53267 0.89487 0.0
C817 C 0.11787 0.64037 0.81095 0.0
C818 C 0.13744 0.67786 0.81441 0.0
C819 C 0.13261 0.70026 0.84156 0.0
C820 C 0.11071 0.6848 0.86683 0.0
C821 C 0.09399 0.64707 0.86432 0.0
C822 C 0.09687 0.62512 0.83675 0.0
C823 C 0.08332 0.58503 0.84355 0.0
C824 C 0.0484 0.56529 0.81993 0.0
C825 C 0.11269 0.56632 0.8402 0.0
C826 C 0.07566 0.58806 0.88028 0.0
C827 C 0.08059 0.62391 0.89139 0.0
C828 C 0.07939 0.63398 0.92563 0.0
C829 C 0.07313 0.60667 0.94907 0.0
C830 C 0.06903 0.57032 0.938 0.0
C831 C 0.06951 0.56064 0.90337 0.0
H832 H 0.37553 0.21327 0.84638 0.0
H833 H 0.34221 0.13255 0.75987 0.0
H834 H 0.37582 0.09545 0.79003 0.0
H835 H 0.46598 0.20718 0.86691 0.0
H836 H 0.46486 0.21231 0.91265 0.0
H837 H 0.43929 0.23308 0.88373 0.0
H838 H 0.38025 0.19912 0.90987 0.0
H839 H 0.40576 0.17876 0.93916 0.0
H840 H 0.36708 0.15007 0.91151 0.0
H841 H 0.40938 0.06517 0.83165 0.0
H842 H 0.43886 0.0437 0.88195 0.0
H843 H 0.45292 0.14607 0.93928 0.0
C844 C 0.37538 0.18788 0.83363 0.0
C845 C 0.35628 0.17583 0.80075 0.0
C846 C 0.3567 0.14235 0.78507 0.0
C847 C 0.37584 0.12118 0.80192 0.0
C848 C 0.39463 0.13406 0.83425 0.0
C849 C 0.3945 0.16662 0.84992 0.0
C850 C 0.41554 0.17372 0.88531 0.0
C851 C 0.44837 0.20865 0.88724 0.0
C852 C 0.39068 0.1755 0.91309 0.0
C853 C 0.42734 0.1399 0.8873 0.0
C854 C 0.415 0.11729 0.85762 0.0
C855 C 0.41975 0.08294 0.85475 0.0
C856 C 0.43656 0.07102 0.88333 0.0
C857 C 0.44874 0.0936 0.91409 0.0
C858 C 0.44496 0.12882 0.91567 0.0
H859 H 0.82394 0.26469 0.83535 0.0
H860 H 0.79875 0.35494 0.78636 0.0
H861 H 0.82214 0.39382 0.83914 0.0
H862 H 0.81259 0.2921 0.92737 0.0
H863 H 0.85166 0.27992 0.94436 0.0
H864 H 0.82334 0.25491 0.90678 0.0
H865 H 0.87936 0.26875 0.87265 0.0
H866 H 0.90763 0.29296 0.91019 0.0
H867 H 0.90728 0.31556 0.87054 0.0
H868 H 0.85492 0.4257 0.89142 0.0
H869 H 0.90756 0.4525 0.93388 0.0
H870 H 0.91673 0.34456 0.94995 0.0
C871 C 0.82268 0.29239 0.83617 0.0
C872 C 0.80868 0.30643 0.80712 0.0
C873 C 0.80882 0.34328 0.80849 0.0
C874 C 0.82148 0.36552 0.83859 0.0
C875 C 0.83466 0.35087 0.867 0.0
C876 C 0.83622 0.31544 0.86592 0.0
C877 C 0.85894 0.30923 0.89727 0.0
C878 C 0.8352 0.28245 0.92031 0.0
C879 C 0.89015 0.29589 0.88703 0.0
C880 C 0.87258 0.34763 0.91416 0.0
C881 C 0.85635 0.37052 0.89737 0.0
C882 C 0.8674 0.40805 0.90533 0.0
C883 C 0.89746 0.42309 0.92952 0.0
C884 C 0.9164 0.40063 0.94493 0.0
C885 C 0.90261 0.36229 0.93856 0.0
H886 H 0.69678 0.81222 0.88015 0.0
H887 H 0.74313 0.89263 0.80826 0.0
H888 H 0.72865 0.93994 0.84276 0.0
H889 H 0.62264 0.83835 0.88915 0.0
H890 H 0.62084 0.8306 0.9342 0.0
H891 H 0.64147 0.80525 0.90822 0.0
H892 H 0.70097 0.8278 0.94978 0.0
H893 H 0.68037 0.85319 0.97608 0.0
H894 H 0.72254 0.87617 0.95952 0.0
H895 H 0.70242 0.97671 0.88146 0.0
H896 H 0.66379 0.99796 0.91853 0.0
H897 H 0.63207 0.89224 0.96223 0.0
C898 C 0.70497 0.84001 0.8722 0.0
C899 C 0.7214 0.84875 0.84167 0.0
C900 C 0.73086 0.88533 0.83176 0.0
C901 C 0.72282 0.91244 0.85126 0.0
C902 C 0.70553 0.90258 0.88067 0.0
C903 C 0.69687 0.8672 0.89114 0.0
C904 C 0.67463 0.8624 0.92123 0.0
C905 C 0.63772 0.8324 0.91265 0.0
C906 C 0.6959 0.85442 0.95357 0.0
C907 C 0.67037 0.89998 0.92487 0.0
C908 C 0.68932 0.92322 0.90205 0.0
C909 C 0.68797 0.95891 0.89978 0.0
C910 C 0.66611 0.9708 0.9209 0.0
C911 C 0.64538 0.94668 0.94315 0.0
C912 C 0.64804 0.91117 0.94552 0.0
H913 H 0.86783 0.7063 0.14645 0.0
H914 H 0.75865 0.66582 0.09335 0.0
H915 H 0.77555 0.61833 0.06162 0.0
H916 H 0.91454 0.6919 0.07421 0.0
H917 H 0.94804 0.67856 0.10095 0.0
H918 H 0.92724 0.7099 0.11825 0.0
H919 H 0.90752 0.66699 0.16744 0.0
H920 H 0.92763 0.63516 0.14989 0.0
H921 H 0.88046 0.61997 0.15702 0.0
H922 H 0.8037 0.57285 0.03813 0.0
H923 H 0.84321 0.53817 0.0194 0.0
H924 H 0.93356 0.60946 0.08761 0.0
C925 C 0.84758 0.68783 0.12779 0.0
C926 C 0.81194 0.68983 0.12235 0.0
C927 C 0.78622 0.665 0.09779 0.0
C928 C 0.79546 0.63773 0.07982 0.0
C929 C 0.83055 0.63584 0.08661 0.0
C930 C 0.85634 0.6606 0.1096 0.0
C931 C 0.89216 0.65283 0.11223 0.0
C932 C 0.92226 0.68522 0.10071 0.0
C933 C 0.90253 0.64316 0.14881 0.0
C934 C 0.88254 0.61989 0.08702 0.0
C935 C 0.84679 0.61016 0.07278 0.0
C936 C 0.83179 0.58031 0.04899 0.0
C937 C 0.85431 0.5606 0.03873 0.0
C938 C 0.89139 0.57119 0.05202 0.0
C939 C 0.90533 0.6008 0.07691 0.0
H940 H 0.40782 0.78033 0.15737 0.0
H941 H 0.35741 0.84073 0.2207 0.0
H942 H 0.38706 0.897 0.19312 0.0
H943 H 0.49486 0.85768 0.15331 0.0
H944 H 0.49723 0.84522 0.10911 0.0
H945 H 0.47715 0.81039 0.13747 0.0
H946 H 0.41809 0.78871 0.09528 0.0
H947 H 0.43798 0.8233 0.06684 0.0
H948 H 0.3954 0.82127 0.08232 0.0
H949 H 0.41379 0.94376 0.15464 0.0
H950 H 0.43619 0.97939 0.1057 0.0
H951 H 0.47137 0.89109 0.06657 0.0
C952 C 0.40382 0.80562 0.16597 0.0
C953 C 0.3804 0.80619 0.19126 0.0
C954 C 0.37518 0.83961 0.20138 0.0
C955 C 0.39215 0.87181 0.18607 0.0
C956 C 0.41448 0.87027 0.16083 0.0
C957 C 0.4206 0.8382 0.15083 0.0
C958 C 0.44292 0.84363 0.12056 0.0
C959 C 0.48025 0.83895 0.13073 0.0
C960 C 0.42235 0.8177 0.08942 0.0
C961 C 0.44659 0.88318 0.11408 0.0
C962 C 0.43054 0.89805 0.13818 0.0
C963 C 0.42718 0.93283 0.13607 0.0
C964 C 0.43982 0.95275 0.10819 0.0
C965 C 0.4557 0.93793 0.0829 0.0
C966 C 0.46004 0.90313 0.08619 0.0
H967 H 0.71654 0.24266 0.1558 0.0
H968 H 0.77392 0.16521 0.18115 0.0
H969 H 0.74122 0.12561 0.13046 0.0
H970 H 0.63789 0.18741 0.14155 0.0
H971 H 0.61925 0.20549 0.10482 0.0
H972 H 0.65639 0.23499 0.13297 0.0
H973 H 0.69503 0.25255 0.08241 0.0
H974 H 0.65747 0.22378 0.05347 0.0
H975 H 0.70137 0.21722 0.05488 0.0
H976 H 0.68957 0.0861 0.09304 0.0
H977 H 0.62796 0.05308 0.0663 0.0
H978 H 0.6035 0.15551 0.06231 0.0
C979 C 0.7237 0.21844 0.1494 0.0
C980 C 0.74735 0.20676 0.1724 0.0
C981 C 0.75571 0.17458 0.16385 0.0
C982 C 0.73735 0.15194 0.13495 0.0
C983 C 0.71134 0.16228 0.11453 0.0
C984 C 0.70535 0.19546 0.12062 0.0
C985 C 0.67168 0.19717 0.09887 0.0
C986 C 0.64475 0.20677 0.12089 0.0
C987 C 0.68201 0.22428 0.07073 0.0
C988 C 0.65717 0.15822 0.08346 0.0
C989 C 0.68112 0.13897 0.09167 0.0
C990 C 0.67126 0.10119 0.08504 0.0
C991 C 0.636 0.08256 0.06997 0.0
C992 C 0.61094 0.10171 0.06175 0.0
C993 C 0.62217 0.14013 0.06781 0.0
H994 H 0.7068 0.65406 0.82731 0.0
H995 H 0.63152 0.70525 0.77924 0.0
H996 H 0.58411 0.67008 0.81367 0.0
H997 H 0.64258 0.56441 0.83531 0.0
H998 H 0.66291 0.55873 0.87724 0.0
H999 H 0.69034 0.5867 0.8477 0.0
H1000 H 0.7108 0.64121 0.89331 0.0
H1001 H 0.68336 0.6134 0.92295 0.0
H1002 H 0.67705 0.65631 0.91208 0.0
H1003 H 0.5434 0.62771 0.85456 0.0
H1004 H 0.51612 0.58553 0.89849 0.0
H1005 H 0.61871 0.56454 0.92177 0.0
C1006 C 0.68023 0.65758 0.82371 0.0
C1007 C 0.6731 0.6824 0.79995 0.0
C1008 C 0.63796 0.68652 0.79695 0.0
C1009 C 0.61067 0.66652 0.81649 0.0
C1010 C 0.61859 0.64254 0.83978 0.0
C1011 C 0.65272 0.63829 0.84366 0.0
C1012 C 0.65483 0.61215 0.87167 0.0
C1013 C 0.66315 0.5785 0.8571 0.0
C1014 C 0.68319 0.63195 0.90178 0.0
C1015 C 0.61653 0.60178 0.88236 0.0
C1016 C 0.59588 0.6195 0.86373 0.0
C1017 C 0.55957 0.61385 0.86929 0.0
C1018 C 0.54414 0.58972 0.89439 0.0
C1019 C 0.56487 0.57137 0.91408 0.0
C1020 C 0.60167 0.57789 0.90757 0.0
H1021 H 0.36818 0.72535 0.84606 0.0
H1022 H 0.27781 0.63992 0.79074 0.0
H1023 H 0.3062 0.59374 0.80949 0.0
H1024 H 0.43949 0.68136 0.83064 0.0
H1025 H 0.46335 0.6964 0.87287 0.0
H1026 H 0.43892 0.72367 0.85111 0.0
H1027 H 0.40223 0.72203 0.90306 0.0
H1028 H 0.42664 0.69505 0.92497 0.0
H1029 H 0.37775 0.67848 0.91819 0.0
H1030 H 0.34057 0.55619 0.83861 0.0
H1031 H 0.37602 0.52954 0.87927 0.0
H1032 H 0.44435 0.63864 0.91684 0.0
C1033 C 0.35474 0.69702 0.83728 0.0
C1034 C 0.32076 0.68637 0.81674 0.0
C1035 C 0.30386 0.64889 0.8063 0.0
C1036 C 0.3199 0.62241 0.81668 0.0
C1037 C 0.35309 0.63373 0.83728 0.0
C1038 C 0.37042 0.67014 0.84744 0.0
C1039 C 0.40433 0.67455 0.87203 0.0
C1040 C 0.43855 0.69523 0.85568 0.0
C1041 C 0.4026 0.69363 0.9066 0.0
C1042 C 0.40207 0.63479 0.87571 0.0
C1043 C 0.37287 0.61182 0.85463 0.0
C1044 C 0.36378 0.57391 0.8549 0.0
C1045 C 0.38417 0.55902 0.87816 0.0
C1046 C 0.41312 0.58192 0.90135 0.0
C1047 C 0.42285 0.62033 0.89916 0.0
H1048 H 0.32805 0.36575 0.76272 0.0
H1049 H 0.28143 0.26154 0.80548 0.0
H1050 H 0.29171 0.29209 0.86346 0.0
H1051 H 0.39833 0.39709 0.81814 0.0
H1052 H 0.40056 0.44451 0.82253 0.0
H1053 H 0.37784 0.41741 0.78425 0.0
H1054 H 0.31928 0.4333 0.79343 0.0
H1055 H 0.34227 0.46064 0.83204 0.0
H1056 H 0.30014 0.42453 0.83357 0.0
H1057 H 0.32285 0.32792 0.91508 0.0
H1058 H 0.37397 0.36551 0.95572 0.0
H1059 H 0.39971 0.44921 0.8827 0.0
C1060 C 0.31864 0.34997 0.78432 0.0
C1061 C 0.30379 0.3117 0.78018 0.0
C1062 C 0.29274 0.29108 0.8086 0.0
C1063 C 0.29806 0.30827 0.84145 0.0
C1064 C 0.31438 0.34609 0.84532 0.0
C1065 C 0.32405 0.3669 0.81743 0.0
C1066 C 0.34723 0.40562 0.8291 0.0
C1067 C 0.3831 0.41673 0.81257 0.0
C1068 C 0.32595 0.43261 0.82159 0.0
C1069 C 0.35325 0.40178 0.86743 0.0
C1070 C 0.33244 0.36778 0.87643 0.0
C1071 C 0.33821 0.35509 0.90879 0.0
C1072 C 0.36734 0.37648 0.9317 0.0
C1073 C 0.38998 0.4102 0.92216 0.0
C1074 C 0.38164 0.42401 0.89066 0.0
H1075 H 0.65764 0.34572 0.79815 0.0
H1076 H 0.75379 0.35799 0.86903 0.0
H1077 H 0.73078 0.39091 0.9117 0.0
H1078 H 0.64232 0.43381 0.82545 0.0
H1079 H 0.59381 0.41251 0.82102 0.0
H1080 H 0.62113 0.39664 0.7936 0.0
H1081 H 0.59394 0.33093 0.8131 0.0
H1082 H 0.56708 0.34665 0.84099 0.0
H1083 H 0.5976 0.32306 0.85827 0.0
H1084 H 0.69518 0.41731 0.94846 0.0
H1085 H 0.64832 0.43374 0.97756 0.0
H1086 H 0.57302 0.39932 0.88478 0.0
C1087 C 0.67437 0.35664 0.82214 0.0
C1088 C 0.70776 0.35014 0.83014 0.0
C1089 C 0.72838 0.36333 0.86231 0.0
C1090 C 0.71554 0.38204 0.88668 0.0
C1091 C 0.68188 0.38695 0.87856 0.0
C1092 C 0.66155 0.37471 0.84707 0.0
C1093 C 0.62448 0.3797 0.84637 0.0
C1094 C 0.62019 0.40731 0.82005 0.0
C1095 C 0.59399 0.34289 0.83928 0.0
C1096 C 0.62665 0.3952 0.88275 0.0
C1097 C 0.66034 0.4001 0.90058 0.0
C1098 C 0.66877 0.41383 0.93472 0.0
C1099 C 0.64204 0.42295 0.95103 0.0
C1100 C 0.60715 0.41738 0.93341 0.0
C1101 C 0.59941 0.40335 0.89888 0.0
H1102 H 0.67171 0.39235 0.18807 0.0
H1103 H 0.62187 0.2754 0.16628 0.0
H1104 H 0.56852 0.28651 0.13477 0.0
H1105 H 0.58648 0.41669 0.19413 0.0
H1106 H 0.60404 0.45822 0.17263 0.0
H1107 H 0.63452 0.44077 0.19932 0.0
H1108 H 0.67222 0.44046 0.14832 0.0
H1109 H 0.64222 0.4583 0.12188 0.0
H1110 H 0.64968 0.4164 0.10811 0.0
H1111 H 0.52496 0.31062 0.09966 0.0
H1112 H 0.49934 0.34505 0.05794 0.0
H1113 H 0.57845 0.44637 0.1021 0.0
C1114 C 0.64915 0.36897 0.17751 0.0
C1115 C 0.65069 0.33302 0.17988 0.0
C1116 C 0.62108 0.30319 0.1649 0.0
C1117 C 0.59056 0.30923 0.14727 0.0
C1118 C 0.59011 0.34518 0.14505 0.0
C1119 C 0.61879 0.37455 0.15964 0.0
C1120 C 0.61438 0.4106 0.14941 0.0
C1121 C 0.60955 0.43287 0.18075 0.0
C1122 C 0.6465 0.43269 0.13081 0.0
C1123 C 0.57964 0.39694 0.12532 0.0
C1124 C 0.56541 0.3592 0.12397 0.0
C1125 C 0.5355 0.34019 0.10089 0.0
C1126 C 0.52108 0.36006 0.07729 0.0
C1127 C 0.53714 0.39842 0.07654 0.0
C1128 C 0.56543 0.41712 0.10214 0.0
H1129 H 0.69381 0.71492 0.14946 0.0
H1130 H 0.70114 0.63305 0.22075 0.0
H1131 H 0.66415 0.58417 0.17704 0.0
H1132 H 0.60383 0.67595 0.12133 0.0
H1133 H 0.60739 0.68887 0.07763 0.0
H1134 H 0.6396 0.71579 0.11175 0.0
H1135 H 0.69256 0.70725 0.08061 0.0
H1136 H 0.66024 0.68037 0.04625 0.0
H1137 H 0.69257 0.66174 0.06848 0.0
H1138 H 0.62248 0.54541 0.12688 0.0
H1139 H 0.57326 0.52064 0.07962 0.0
H1140 H 0.59088 0.62969 0.04393 0.0
C1141 C 0.68819 0.68667 0.15567 0.0
C1142 C 0.70044 0.67743 0.1881 0.0
C1143 C 0.69201 0.64035 0.19577 0.0
C1144 C 0.67142 0.61261 0.17105 0.0
C1145 C 0.65953 0.62278 0.13917 0.0
C1146 C 0.66744 0.65905 0.13168 0.0
C1147 C 0.64786 0.66354 0.09772 0.0
C1148 C 0.62321 0.68741 0.10241 0.0
C1149 C 0.67493 0.67914 0.07173 0.0
C1150 C 0.62616 0.62415 0.08778 0.0
C1151 C 0.6342 0.60087 0.1113 0.0
C1152 C 0.61624 0.56335 0.1082 0.0
C1153 C 0.58842 0.54954 0.08118 0.0
C1154 C 0.57831 0.57339 0.05826 0.0
C1155 C 0.59817 0.61091 0.06107 0.0
H1156 H 0.3692 0.67048 0.19388 0.0
H1157 H 0.25636 0.60433 0.18137 0.0
H1158 H 0.26947 0.56204 0.13952 0.0
H1159 H 0.37883 0.67091 0.11068 0.0
H1160 H 0.42476 0.66946 0.1134 0.0
H1161 H 0.40945 0.68821 0.14928 0.0
H1162 H 0.42694 0.64256 0.18932 0.0
H1163 H 0.44354 0.62431 0.15379 0.0
H1164 H 0.41006 0.59423 0.17723 0.0
H1165 H 0.29286 0.53441 0.09165 0.0
H1166 H 0.32532 0.52123 0.04414 0.0
H1167 H 0.42194 0.60864 0.08653 0.0
C1168 C 0.34782 0.64593 0.1837 0.0
C1169 C 0.31196 0.63992 0.19087 0.0
C1170 C 0.28402 0.60872 0.17611 0.0
C1171 C 0.29129 0.58468 0.15244 0.0
C1172 C 0.32667 0.59261 0.14398 0.0
C1173 C 0.35463 0.62222 0.15959 0.0
C1174 C 0.38883 0.6282 0.1424 0.0
C1175 C 0.40114 0.66644 0.1281 0.0
C1176 C 0.41913 0.62193 0.16716 0.0
C1177 C 0.37533 0.59845 0.11386 0.0
C1178 C 0.3397 0.57772 0.11547 0.0
C1179 C 0.32099 0.55003 0.09046 0.0
C1180 C 0.33951 0.54299 0.06342 0.0
C1181 C 0.37609 0.56402 0.06145 0.0
C1182 C 0.39395 0.59207 0.08708 0.0
H1183 H 0.28415 0.29906 0.14612 0.0
H1184 H 0.36477 0.33252 0.23506 0.0
H1185 H 0.40858 0.37089 0.1989 0.0
H1186 H 0.34544 0.29709 0.08216 0.0
H1187 H 0.32168 0.31575 0.04951 0.0
H1188 H 0.29739 0.28933 0.08184 0.0
H1189 H 0.27445 0.34301 0.09883 0.0
H1190 H 0.29837 0.36941 0.06635 0.0
H1191 H 0.3068 0.38764 0.11037 0.0
H1192 H 0.44536 0.40495 0.15086 0.0
H1193 H 0.46706 0.43751 0.09945 0.0
H1194 H 0.36097 0.38666 0.0431 0.0
C1195 C 0.31108 0.31431 0.15803 0.0
C1196 C 0.32083 0.31219 0.19375 0.0
C1197 C 0.35634 0.33332 0.20801 0.0
C1198 C 0.38161 0.35517 0.18748 0.0
C1199 C 0.3712 0.35648 0.15243 0.0
C1200 C 0.33646 0.33701 0.13799 0.0
C1201 C 0.33128 0.34479 0.10018 0.0
C1202 C 0.32348 0.30965 0.07706 0.0
C1203 C 0.30093 0.36226 0.09355 0.0
C1204 C 0.3683 0.37182 0.09556 0.0
C1205 C 0.39132 0.3776 0.12577 0.0
C1206 C 0.42726 0.40069 0.12728 0.0
C1207 C 0.43957 0.41897 0.09774 0.0
C1208 C 0.41596 0.41498 0.06693 0.0
C1209 C 0.3799 0.39059 0.0661 0.0
H1210 H 0.79487 0.60669 0.67644 0.0
H1211 H 0.77812 0.6959 0.61991 0.0
H1212 H 0.79238 0.66917 0.56698 0.0
H1213 H 0.86953 0.60458 0.64402 0.0
H1214 H 0.86093 0.55576 0.64108 0.0
H1215 H 0.84012 0.57577 0.67177 0.0
H1216 H 0.77643 0.53402 0.64614 0.0
H1217 H 0.79712 0.51333 0.61554 0.0
H1218 H 0.76264 0.53328 0.60077 0.0
H1219 H 0.82143 0.6413 0.525 0.0
H1220 H 0.86043 0.61261 0.49606 0.0
H1221 H 0.85762 0.5402 0.57886 0.0
C1222 C 0.79221 0.61925 0.65236 0.0
C1223 C 0.78416 0.65245 0.6516 0.0
C1224 C 0.78291 0.66966 0.6204 0.0
C1225 C 0.79112 0.65472 0.59034 0.0
C1226 C 0.80026 0.62248 0.59204 0.0
C1227 C 0.80021 0.60452 0.62215 0.0
C1228 C 0.8157 0.5732 0.61842 0.0
C1229 C 0.84851 0.57764 0.64541 0.0
C1230 C 0.78621 0.53627 0.62032 0.0
C1231 C 0.82693 0.578 0.58249 0.0
C1232 C 0.81704 0.60607 0.56743 0.0
C1233 C 0.8282 0.61849 0.53599 0.0
C1234 C 0.85036 0.60217 0.51978 0.0
C1235 C 0.86098 0.57377 0.535 0.0
C1236 C 0.84864 0.56106 0.56634 0.0
H1237 H 0.36471 0.81485 0.64204 0.0
H1238 H 0.37156 0.89924 0.72023 0.0
H1239 H 0.42627 0.93911 0.69893 0.0
H1240 H 0.47137 0.84775 0.63123 0.0
H1241 H 0.45992 0.83627 0.58572 0.0
H1242 H 0.43333 0.80828 0.61589 0.0
H1243 H 0.37517 0.81681 0.58449 0.0
H1244 H 0.40141 0.84468 0.55473 0.0
H1245 H 0.37301 0.86251 0.57917 0.0
H1246 H 0.46019 0.97614 0.65882 0.0
H1247 H 0.47231 0.00576 0.60434 0.0
H1248 H 0.44713 0.89993 0.55036 0.0
C1249 C 0.37904 0.84107 0.65549 0.0
C1250 C 0.36416 0.8544 0.68229 0.0
C1251 C 0.38261 0.8889 0.69928 0.0
C1252 C 0.41405 0.91149 0.68768 0.0
C1253 C 0.4266 0.89907 0.65912 0.0
C1254 C 0.41016 0.86418 0.64359 0.0
C1255 C 0.42315 0.8605 0.60892 0.0
C1256 C 0.44846 0.83681 0.61056 0.0
C1257 C 0.39128 0.84532 0.5802 0.0
C1258 C 0.44418 0.90005 0.60502 0.0
C1259 C 0.44772 0.92148 0.63505 0.0
C1260 C 0.45912 0.95966 0.63566 0.0
C1261 C 0.46543 0.97629 0.60471 0.0
C1262 C 0.46042 0.95457 0.57405 0.0
C1263 C 0.45152 0.91646 0.57422 0.0
H1264 H 0.10312 0.28833 0.65568 0.0
H1265 H 0.21046 0.36776 0.67951 0.0
H1266 H 0.18926 0.41423 0.65057 0.0
H1267 H 0.08656 0.31633 0.57127 0.0
H1268 H 0.03894 0.30937 0.5734 0.0
H1269 H 0.06155 0.28271 0.59834 0.0
H1270 H 0.04032 0.30429 0.65353 0.0
H1271 H 0.0182 0.33158 0.62873 0.0
H1272 H 0.05157 0.35257 0.66462 0.0
H1273 H 0.15743 0.45241 0.62092 0.0
H1274 H 0.12026 0.47783 0.58146 0.0
H1275 H 0.03383 0.37351 0.57179 0.0
C1276 C 0.12208 0.31554 0.65485 0.0
C1277 C 0.15839 0.32446 0.67016 0.0
C1278 C 0.18252 0.36022 0.66812 0.0
C1279 C 0.17066 0.38697 0.652 0.0
C1280 C 0.13465 0.37756 0.63781 0.0
C1281 C 0.1108 0.34263 0.63836 0.0
C1282 C 0.07428 0.33943 0.61869 0.0
C1283 C 0.0648 0.31024 0.58863 0.0
C1284 C 0.04432 0.33148 0.64284 0.0
C1285 C 0.08195 0.37771 0.60612 0.0
C1286 C 0.11657 0.39941 0.61858 0.0
C1287 C 0.13029 0.43572 0.61084 0.0
C1288 C 0.10873 0.44993 0.58843 0.0
C1289 C 0.0741 0.42759 0.57313 0.0
C1290 C 0.06011 0.39128 0.58302 0.0
H1291 H 0.67788 0.15962 0.67509 0.0
H1292 H 0.64768 0.25793 0.65858 0.0
H1293 H 0.60809 0.22735 0.60627 0.0
H1294 H 0.68698 0.14144 0.59043 0.0
H1295 H 0.6694 0.09231 0.59072 0.0
H1296 H 0.69081 0.11921 0.62981 0.0
H1297 H 0.6334 0.09055 0.66009 0.0
H1298 H 0.61191 0.06293 0.6213 0.0
H1299 H 0.58998 0.09206 0.64089 0.0
H1300 H 0.58042 0.19094 0.55275 0.0
H1301 H 0.55784 0.14723 0.5032 0.0
H1302 H 0.6051 0.07104 0.5541 0.0
C1303 C 0.6624 0.17457 0.66093 0.0
C1304 C 0.66605 0.21129 0.67061 0.0
C1305 C 0.64535 0.22985 0.65144 0.0
C1306 C 0.62286 0.21273 0.62177 0.0
C1307 C 0.62146 0.1772 0.61201 0.0
C1308 C 0.64013 0.15804 0.63123 0.0
C1309 C 0.63602 0.12118 0.61368 0.0
C1310 C 0.673 0.11839 0.60569 0.0
C1311 C 0.61665 0.08982 0.63527 0.0
C1312 C 0.61251 0.1229 0.58119 0.0
C1313 C 0.60469 0.15557 0.58088 0.0
C1314 C 0.58569 0.16496 0.55287 0.0
C1315 C 0.57335 0.13987 0.52463 0.0
C1316 C 0.57952 0.10534 0.52474 0.0
C1317 C 0.59976 0.097 0.55334 0.0
H1318 H 0.76591 0.36862 0.31472 0.0
H1319 H 0.75776 0.26016 0.34722 0.0
H1320 H 0.79109 0.28698 0.40328 0.0
H1321 H 0.8494 0.4034 0.33544 0.0
H1322 H 0.85228 0.44886 0.35108 0.0
H1323 H 0.81437 0.4231 0.32166 0.0
H1324 H 0.76998 0.43004 0.36434 0.0
H1325 H 0.80807 0.45666 0.39397 0.0
H1326 H 0.77532 0.41681 0.4078 0.0
H1327 H 0.84009 0.32278 0.44437 0.0
H1328 H 0.90079 0.36351 0.46614 0.0
H1329 H 0.88183 0.45037 0.40694 0.0
C1330 C 0.76941 0.35056 0.33448 0.0
C1331 C 0.75934 0.31249 0.32699 0.0
C1332 C 0.76522 0.28946 0.35272 0.0
C1333 C 0.78387 0.30452 0.38473 0.0
C1334 C 0.79645 0.34256 0.3904 0.0
C1335 C 0.78898 0.36541 0.36609 0.0
C1336 C 0.81272 0.40473 0.37436 0.0
C1337 C 0.83342 0.42087 0.34385 0.0
C1338 C 0.79017 0.42845 0.38582 0.0
C1339 C 0.83791 0.39955 0.40423 0.0
C1340 C 0.82673 0.36394 0.4143 0.0
C1341 C 0.84854 0.35093 0.43745 0.0
C1342 C 0.88321 0.37412 0.4493 0.0
C1343 C 0.89588 0.40981 0.43769 0.0
C1344 C 0.87235 0.42329 0.41638 0.0
H1345 H 0.66212 0.78682 0.34124 0.0
H1346 H 0.7667 0.8714 0.35319 0.0
H1347 H 0.74468 0.90625 0.39501 0.0
H1348 H 0.61225 0.84495 0.33724 0.0
H1349 H 0.57581 0.81899 0.36019 0.0
H1350 H 0.60152 0.79597 0.33788 0.0
H1351 H 0.61763 0.76761 0.39389 0.0
H1352 H 0.59126 0.78991 0.41638 0.0
H1353 H 0.63809 0.79695 0.43198 0.0
H1354 H 0.70938 0.9363 0.42711 0.0
H1355 H 0.66371 0.95932 0.45019 0.0
H1356 H 0.58009 0.85665 0.41624 0.0
C1357 C 0.68081 0.81177 0.35405 0.0
C1358 C 0.71637 0.82612 0.34484 0.0
C1359 C 0.73963 0.85974 0.36059 0.0
C1360 C 0.72732 0.87971 0.38428 0.0
C1361 C 0.69155 0.86576 0.39166 0.0
C1362 C 0.66863 0.83241 0.37732 0.0
C1363 C 0.63018 0.82607 0.3861 0.0
C1364 C 0.60339 0.82123 0.3534 0.0
C1365 C 0.61862 0.79318 0.40843 0.0
C1366 C 0.63485 0.86166 0.40644 0.0
C1367 C 0.6706 0.88381 0.40971 0.0
C1368 C 0.68142 0.91897 0.42531 0.0
C1369 C 0.6551 0.93189 0.43811 0.0
C1370 C 0.61817 0.90983 0.43511 0.0
C1371 C 0.60808 0.87409 0.41924 0.0
H1372 H 0.18535 0.69457 0.33053 0.0
H1373 H 0.10067 0.73895 0.29149 0.0
H1374 H 0.0563 0.69312 0.32158 0.0
H1375 H 0.12998 0.59998 0.32361 0.0
H1376 H 0.1525 0.58952 0.36249 0.0
H1377 H 0.17687 0.62526 0.33709 0.0
H1378 H 0.19312 0.67146 0.3903 0.0
H1379 H 0.16902 0.63584 0.41589 0.0
H1380 H 0.15729 0.67749 0.41328 0.0
H1381 H 0.02139 0.64193 0.35751 0.0
H1382 H 0.00089 0.59254 0.39725 0.0
H1383 H 0.10962 0.58405 0.41113 0.0
C1384 C 0.1575 0.69472 0.32825 0.0
C1385 C 0.14642 0.72023 0.30873 0.0
C1386 C 0.10968 0.71947 0.30631 0.0
C1387 C 0.08429 0.69354 0.32323 0.0
C1388 C 0.09614 0.66858 0.3422 0.0
C1389 C 0.13194 0.6691 0.34472 0.0
C1390 C 0.13831 0.64008 0.3671 0.0
C1391 C 0.1501 0.61205 0.34632 0.0
C1392 C 0.16606 0.65725 0.3985 0.0
C1393 C 0.10066 0.62345 0.37731 0.0
C1394 C 0.07647 0.63985 0.36263 0.0
C1395 C 0.04021 0.62897 0.36917 0.0
C1396 C 0.02875 0.60103 0.39182 0.0
C1397 C 0.05358 0.58479 0.4078 0.0
C1398 C 0.08976 0.59591 0.39971 0.0
H1399 H 0.27705 0.12945 0.32973 0.0
H1400 H 0.3504 0.18657 0.25864 0.0
H1401 H 0.39426 0.15487 0.27903 0.0
H1402 H 0.34936 0.13409 0.39915 0.0
H1403 H 0.32505 0.09027 0.41375 0.0
H1404 H 0.30044 0.11822 0.39363 0.0
H1405 H 0.26659 0.0642 0.34941 0.0
H1406 H 0.29182 0.03643 0.36875 0.0
H1407 H 0.29228 0.04416 0.32361 0.0
H1408 H 0.42937 0.11537 0.3065 0.0
H1409 H 0.45658 0.07812 0.34414 0.0
H1410 H 0.36006 0.04694 0.39723 0.0
C1411 C 0.3026 0.13562 0.31883 0.0
C1412 C 0.31048 0.16053 0.29273 0.0
C1413 C 0.34412 0.168 0.27904 0.0
C1414 C 0.36898 0.1498 0.2902 0.0
C1415 C 0.35997 0.12465 0.31541 0.0
C1416 C 0.32794 0.11823 0.33012 0.0
C1417 C 0.32538 0.09114 0.35781 0.0
C1418 C 0.32505 0.10952 0.39317 0.0
C1419 C 0.29203 0.05696 0.34936 0.0
C1420 C 0.36039 0.08228 0.35562 0.0
C1421 C 0.38003 0.10195 0.33107 0.0
C1422 C 0.41413 0.09972 0.32565 0.0
C1423 C 0.42922 0.07819 0.34691 0.0
C1424 C 0.41017 0.05892 0.37313 0.0
C1425 C 0.37482 0.06023 0.37669 0.0
H1426 H 0.7093 0.89116 0.66953 0.0
H1427 H 0.62148 0.79896 0.69644 0.0
H1428 H 0.57698 0.82417 0.66568 0.0
H1429 H 0.66315 0.96042 0.6753 0.0
H1430 H 0.68209 0.98323 0.63872 0.0
H1431 H 0.70707 0.95973 0.66521 0.0
H1432 H 0.71151 0.92059 0.61179 0.0
H1433 H 0.68721 0.94447 0.58519 0.0
H1434 H 0.6706 0.89525 0.58494 0.0
H1435 H 0.54225 0.85835 0.63081 0.0
H1436 H 0.52008 0.89319 0.58701 0.0
H1437 H 0.63049 0.9624 0.58103 0.0
C1438 C 0.68069 0.87637 0.66919 0.0
C1439 C 0.66886 0.84317 0.68563 0.0
C1440 C 0.6312 0.82443 0.6841 0.0
C1441 C 0.60572 0.83872 0.66696 0.0
C1442 C 0.61831 0.87177 0.65144 0.0
C1443 C 0.65492 0.8901 0.65198 0.0
C1444 C 0.66143 0.92354 0.63096 0.0
C1445 C 0.67951 0.95882 0.65393 0.0
C1446 C 0.684 0.92077 0.60147 0.0
C1447 C 0.62275 0.9206 0.61762 0.0
C1448 C 0.5983 0.89104 0.63049 0.0
C1449 C 0.56113 0.88165 0.62074 0.0
C1450 C 0.54879 0.90176 0.59591 0.0
C1451 C 0.57352 0.93063 0.58059 0.0
C1452 C 0.61085 0.94103 0.5927 0.0
H1453 H 0.67617 0.19288 0.33811 0.0
H1454 H 0.62749 0.14073 0.23809 0.0
H1455 H 0.57297 0.10471 0.26389 0.0
H1456 H 0.65966 0.12078 0.37957 0.0
H1457 H 0.64992 0.1384 0.41939 0.0
H1458 H 0.67755 0.16897 0.39225 0.0
H1459 H 0.63396 0.20802 0.38973 0.0
H1460 H 0.60611 0.17749 0.41744 0.0
H1461 H 0.58621 0.18661 0.37656 0.0
H1462 H 0.53377 0.06326 0.30206 0.0
H1463 H 0.51442 0.02131 0.34857 0.0
H1464 H 0.59032 0.1005 0.42265 0.0
C1465 C 0.65335 0.17475 0.3216 0.0
C1466 C 0.65566 0.16875 0.28659 0.0
C1467 C 0.62576 0.14529 0.2652 0.0
C1468 C 0.59471 0.1251 0.27958 0.0
C1469 C 0.5941 0.12977 0.31498 0.0
C1470 C 0.62251 0.15476 0.33558 0.0
C1471 C 0.61932 0.15002 0.37325 0.0
C1472 C 0.65359 0.14414 0.39214 0.0
C1473 C 0.61087 0.18247 0.39023 0.0
C1474 C 0.58707 0.11597 0.37069 0.0
C1475 C 0.57169 0.10542 0.33712 0.0
C1476 C 0.54482 0.07178 0.32849 0.0
C1477 C 0.53429 0.04803 0.35475 0.0
C1478 C 0.55163 0.0581 0.38848 0.0
C1479 C 0.57702 0.0927 0.39671 0.0
H1480 H 0.80728 0.61633 0.27127 0.0
H1481 H 0.87226 0.73025 0.29298 0.0
H1482 H 0.91373 0.71192 0.33468 0.0
H1483 H 0.81402 0.59201 0.35887 0.0
H1484 H 0.81597 0.54683 0.34835 0.0
H1485 H 0.79272 0.56848 0.31809 0.0
H1486 H 0.83294 0.55934 0.27188 0.0
H1487 H 0.85665 0.53814 0.30227 0.0
H1488 H 0.88164 0.57723 0.2808 0.0
H1489 H 0.9488 0.68225 0.3728 0.0
H1490 H 0.96959 0.64435 0.41388 0.0
H1491 H 0.88012 0.54911 0.3721 0.0
C1492 C 0.8303 0.63733 0.28478 0.0
C1493 C 0.83664 0.67471 0.27864 0.0
C1494 C 0.86676 0.70146 0.2972 0.0
C1495 C 0.89073 0.69131 0.32073 0.0
C1496 C 0.88406 0.65431 0.32584 0.0
C1497 C 0.85423 0.62771 0.30905 0.0
C1498 C 0.85204 0.59021 0.32162 0.0
C1499 C 0.81659 0.57341 0.3377 0.0
C1500 C 0.85606 0.56472 0.2924 0.0
C1501 C 0.88489 0.60014 0.34853 0.0
C1502 C 0.90341 0.63716 0.34968 0.0
C1503 C 0.93444 0.65325 0.37233 0.0
C1504 C 0.94607 0.6313 0.39558 0.0
C1505 C 0.92638 0.59362 0.3966 0.0
C1506 C 0.8959 0.57771 0.372 0.0
H1507 H 0.3063 0.84074 0.31228 0.0
H1508 H 0.29367 0.73967 0.36224 0.0
H1509 H 0.30766 0.77379 0.41879 0.0
H1510 H 0.37777 0.88919 0.35012 0.0
H1511 H 0.36939 0.9324 0.3561 0.0
H1512 H 0.34293 0.90004 0.32281 0.0
H1513 H 0.28569 0.9026 0.34757 0.0
H1514 H 0.31117 0.93372 0.3829 0.0
H1515 H 0.278 0.8912 0.39104 0.0
H1516 H 0.3443 0.81678 0.46351 0.0
H1517 H 0.40145 0.86179 0.48855 0.0
H1518 H 0.38818 0.93812 0.41374 0.0
C1519 C 0.3046 0.8258 0.33536 0.0
C1520 C 0.2985 0.78783 0.33329 0.0
C1521 C 0.2978 0.76883 0.36354 0.0
C1522 C 0.30518 0.788 0.39572 0.0
C1523 C 0.31282 0.826 0.39706 0.0
C1524 C 0.31158 0.84467 0.36748 0.0
C1525 C 0.32846 0.88554 0.37474 0.0
C1526 C 0.35632 0.90267 0.34952 0.0
C1527 C 0.29903 0.90436 0.37412 0.0
C1528 C 0.34588 0.88628 0.41102 0.0
C1529 C 0.33431 0.85205 0.42438 0.0
C1530 C 0.35258 0.84384 0.4539 0.0
C1531 C 0.38524 0.86946 0.46786 0.0
C1532 C 0.39895 0.90284 0.45234 0.0
C1533 C 0.37752 0.91274 0.42595 0.0
H1534 H 0.16013 0.29841 0.35285 0.0
H1535 H 0.2559 0.38525 0.33208 0.0
H1536 H 0.23484 0.4301 0.36398 0.0
H1537 H 0.09861 0.34694 0.34006 0.0
H1538 H 0.07205 0.32671 0.37376 0.0
H1539 H 0.09658 0.30165 0.3523 0.0
H1540 H 0.12988 0.29381 0.41077 0.0
H1541 H 0.10511 0.31849 0.43251 0.0
H1542 H 0.15401 0.33365 0.43879 0.0
H1543 H 0.20008 0.46573 0.39605 0.0
H1544 H 0.15635 0.48779 0.42527 0.0
H1545 H 0.08402 0.37622 0.42237 0.0
C1546 C 0.17704 0.32678 0.3553 0.0
C1547 C 0.20967 0.33836 0.34003 0.0
C1548 C 0.23092 0.37575 0.34386 0.0
C1549 C 0.21909 0.40138 0.36182 0.0
C1550 C 0.18618 0.38901 0.37588 0.0
C1551 C 0.16572 0.35244 0.37296 0.0
C1552 C 0.13077 0.34581 0.38899 0.0
C1553 C 0.09756 0.32932 0.36217 0.0
C1554 C 0.12991 0.32151 0.41958 0.0
C1555 C 0.13413 0.38447 0.40079 0.0
C1556 C 0.16634 0.40914 0.39345 0.0
C1557 C 0.17488 0.44654 0.40201 0.0
C1558 C 0.14989 0.45883 0.41855 0.0
C1559 C 0.11663 0.4338 0.42593 0.0
C1560 C 0.10897 0.39621 0.41686 0.0
H1561 H 0.28957 0.12056 0.62843 0.0
H1562 H 0.34878 0.23607 0.62601 0.0
H1563 H 0.37946 0.22221 0.57766 0.0
H1564 H 0.35904 0.08846 0.61776 0.0
H1565 H 0.33411 0.04843 0.59028 0.0
H1566 H 0.31103 0.06758 0.6195 0.0
H1567 H 0.2656 0.07409 0.56918 0.0
H1568 H 0.28814 0.05425 0.53969 0.0
H1569 H 0.28245 0.09822 0.53246 0.0
H1570 H 0.41128 0.19515 0.53753 0.0
H1571 H 0.43945 0.1572 0.50565 0.0
H1572 H 0.35925 0.05908 0.53379 0.0
C1573 C 0.30818 0.14306 0.61705 0.0
C1574 C 0.31691 0.17936 0.63099 0.0
C1575 C 0.34157 0.20806 0.6156 0.0
C1576 C 0.35911 0.20046 0.58811 0.0
C1577 C 0.35114 0.16415 0.57599 0.0
C1578 C 0.32575 0.13595 0.58953 0.0
C1579 C 0.32464 0.09905 0.57414 0.0
C1580 C 0.33271 0.07447 0.60209 0.0
C1581 C 0.28803 0.0803 0.55258 0.0
C1582 C 0.35501 0.11078 0.55154 0.0
C1583 C 0.36945 0.14845 0.55245 0.0
C1584 C 0.39967 0.16566 0.53593 0.0
C1585 C 0.41562 0.1438 0.51806 0.0
C1586 C 0.4015 0.10509 0.51708 0.0
C1587 C 0.37045 0.08855 0.53367 0.0
H1588 H 0.81068 0.32386 0.65793 0.0
H1589 H 0.89148 0.26788 0.67303 0.0
H1590 H 0.92921 0.30912 0.63454 0.0
H1591 H 0.81812 0.33873 0.56884 0.0
H1592 H 0.81272 0.3835 0.57182 0.0
H1593 H 0.79233 0.34979 0.60091 0.0
H1594 H 0.82587 0.39502 0.65274 0.0
H1595 H 0.8465 0.42878 0.62373 0.0
H1596 H 0.87456 0.41463 0.65616 0.0
H1597 H 0.9585 0.3569 0.59484 0.0
H1598 H 0.97542 0.40574 0.55445 0.0
H1599 H 0.87529 0.42983 0.5648 0.0
C1600 C 0.83627 0.32025 0.65308 0.0
C1601 C 0.84824 0.29282 0.66859 0.0
C1602 C 0.88194 0.28898 0.66168 0.0
C1603 C 0.90356 0.31223 0.63983 0.0
C1604 C 0.89116 0.33925 0.62524 0.0
C1605 C 0.85829 0.34334 0.63148 0.0
C1606 C 0.85121 0.3745 0.61246 0.0
C1607 C 0.81654 0.36079 0.58699 0.0
C1608 C 0.84944 0.40503 0.63779 0.0
C1609 C 0.88486 0.38675 0.59401 0.0
C1610 C 0.90779 0.3664 0.60203 0.0
C1611 C 0.94071 0.37299 0.58833 0.0
C1612 C 0.95021 0.40088 0.56549 0.0
C1613 C 0.92672 0.42151 0.55633 0.0
C1614 C 0.89376 0.41439 0.57107 0.0
H1615 H 0.15881 0.69148 0.69593 0.0
H1616 H 0.25424 0.66899 0.66531 0.0
H1617 H 0.21602 0.62777 0.61681 0.0
H1618 H 0.09422 0.60053 0.67313 0.0
H1619 H 0.05867 0.61917 0.65863 0.0
H1620 H 0.09329 0.64321 0.6925 0.0
H1621 H 0.10808 0.70109 0.65744 0.0
H1622 H 0.07406 0.67721 0.62319 0.0
H1623 H 0.12023 0.69824 0.61444 0.0
H1624 H 0.16651 0.59094 0.57007 0.0
H1625 H 0.11134 0.5643 0.52874 0.0
H1626 H 0.05136 0.61492 0.59064 0.0
C1627 C 0.17177 0.67748 0.67949 0.0
C1628 C 0.20941 0.68328 0.68435 0.0
C1629 C 0.22532 0.66484 0.66188 0.0
C1630 C 0.20386 0.64134 0.63444 0.0
C1631 C 0.16678 0.63682 0.63008 0.0
C1632 C 0.15102 0.65444 0.65212 0.0
C1633 C 0.11127 0.64729 0.64104 0.0
C1634 C 0.088 0.6263 0.66792 0.0
C1635 C 0.10296 0.68308 0.63357 0.0
C1636 C 0.10715 0.62365 0.60866 0.0
C1637 C 0.13911 0.61717 0.60293 0.0
C1638 C 0.14134 0.5958 0.57435 0.0
C1639 C 0.10999 0.58081 0.55107 0.0
C1640 C 0.07743 0.58802 0.55644 0.0
C1641 C 0.07615 0.60956 0.58562 0.0
loop_
_geom_bond_atom_site_label_1
_geom_bond_atom_site_label_2
_geom_bond_distance
_geom_bond_site_symmetry_2
_ccdc_geom_bond_type
Zn0 O6 1.969 . S
Zn0 O7 1.965 . S
Zn0 O11 2.024 . S
Zn0 O16 1.969 . S
Zn1 O8 1.969 . S
Zn1 O14 1.969 . S
Zn1 O15 1.965 . S
Zn1 O17 2.024 . S
C2 O3 1.229 . S
C2 O11 1.058 . S
O3 C2 1.229 . S
C4 O5 1.229 . S
C4 O17 1.058 . S
O5 C4 1.229 . S
O6 Zn0 1.969 . S
O6 C9 1.267 . S
O7 Zn0 1.965 . S
O7 C18 1.260 . S
O8 Zn1 1.969 . S
O8 C18 1.258 . S
C9 O6 1.267 . S
C9 O10 1.228 . S
O10 C9 1.228 . S
O11 Zn0 2.024 . S
O11 C2 1.058 . S
C12 O13 1.228 . S
C12 O14 1.267 . S
O13 C12 1.228 . S
O14 Zn1 1.969 . S
O14 C12 1.267 . S
O15 Zn1 1.965 . S
O15 C19 1.260 . S
O16 Zn0 1.969 . S
O16 C19 1.258 . S
O17 Zn1 2.024 . S
O17 C4 1.058 . S
C18 O7 1.260 . S
C18 O8 1.258 . S
C19 O15 1.260 . S
C19 O16 1.258 . S
Zn20 O26 1.969 . S
Zn20 O27 1.965 . S
Zn20 O31 2.024 . S
Zn20 O36 1.969 . S
Zn21 O28 1.969 . S
Zn21 O34 1.969 . S
Zn21 O35 1.965 . S
Zn21 O37 2.024 . S
C22 O23 1.229 . S
C22 O31 1.058 . S
O23 C22 1.229 . S
C24 O25 1.229 . S
C24 O37 1.058 . S
O25 C24 1.229 . S
O26 Zn20 1.969 . S
O26 C29 1.267 . S
O27 Zn20 1.965 . S
O27 C38 1.260 . S
O28 Zn21 1.969 . S
O28 C38 1.258 . S
C29 O26 1.267 . S
C29 O30 1.228 . S
O30 C29 1.228 . S
O31 Zn20 2.024 . S
O31 C22 1.058 . S
C32 O33 1.228 . S
C32 O34 1.267 . S
O33 C32 1.228 . S
O34 Zn21 1.969 . S
O34 C32 1.267 . S
O35 Zn21 1.965 . S
O35 C39 1.260 . S
O36 Zn20 1.969 . S
O36 C39 1.258 . S
O37 Zn21 2.024 . S
O37 C24 1.058 . S
C38 O27 1.260 . S
C38 O28 1.258 . S
C39 O35 1.260 . S
C39 O36 1.258 . S
Zn40 O46 1.969 . S
Zn40 O47 1.965 . S
Zn40 O51 2.024 . S
Zn40 O56 1.969 . S
Zn41 O48 1.969 . S
Zn41 O54 1.969 . S
Zn41 O55 1.965 . S
Zn41 O57 2.024 . S
C42 O43 1.229 . S
C42 O51 1.058 . S
O43 C42 1.229 . S
C44 O45 1.229 . S
C44 O57 1.058 . S
O45 C44 1.229 . S
O46 Zn40 1.969 . S
O46 C49 1.267 . S
O47 Zn40 1.965 . S
O47 C58 1.260 . S
O48 Zn41 1.969 . S
O48 C58 1.258 . S
C49 O46 1.267 . S
C49 O50 1.228 . S
O50 C49 1.228 . S
O51 Zn40 2.024 . S
O51 C42 1.058 . S
C52 O53 1.228 . S
C52 O54 1.267 . S
O53 C52 1.228 . S
O54 Zn41 1.969 . S
O54 C52 1.267 . S
O55 Zn41 1.965 . S
O55 C59 1.260 . S
O56 Zn40 1.969 . S
O56 C59 1.258 . S
O57 Zn41 2.024 . S
O57 C44 1.058 . S
C58 O47 1.260 . S
C58 O48 1.258 . S
C59 O55 1.260 . S
C59 O56 1.258 . S
Zn60 O66 1.969 . S
Zn60 O67 1.965 . S
Zn60 O71 2.024 . S
Zn60 O76 1.969 . S
Zn61 O68 1.969 . S
Zn61 O74 1.969 . S
Zn61 O75 1.965 . S
Zn61 O77 2.024 . S
C62 O63 1.229 . S
C62 O71 1.058 . S
O63 C62 1.229 . S
C64 O65 1.229 . S
C64 O77 1.058 . S
O65 C64 1.229 . S
O66 Zn60 1.969 . S
O66 C69 1.267 . S
O67 Zn60 1.965 . S
O67 C78 1.260 . S
O68 Zn61 1.969 . S
O68 C78 1.258 . S
C69 O66 1.267 . S
C69 O70 1.228 . S
O70 C69 1.228 . S
O71 Zn60 2.024 . S
O71 C62 1.058 . S
C72 O73 1.228 . S
C72 O74 1.267 . S
O73 C72 1.228 . S
O74 Zn61 1.969 . S
O74 C72 1.267 . S
O75 Zn61 1.965 . S
O75 C79 1.260 . S
O76 Zn60 1.969 . S
O76 C79 1.258 . S
O77 Zn61 2.024 . S
O77 C64 1.058 . S
C78 O67 1.260 . S
C78 O68 1.258 . S
C79 O75 1.260 . S
C79 O76 1.258 . S
Zn80 O86 1.969 . S
Zn80 O87 1.965 . S
Zn80 O91 2.024 . S
Zn80 O96 1.969 . S
Zn81 O88 1.969 . S
Zn81 O94 1.969 . S
Zn81 O95 1.965 . S
Zn81 O97 2.024 . S
C82 O83 1.229 . S
C82 O91 1.058 . S
O83 C82 1.229 . S
C84 O85 1.229 . S
C84 O97 1.058 . S
O85 C84 1.229 . S
O86 Zn80 1.969 . S
O86 C89 1.267 . S
O87 Zn80 1.965 . S
O87 C98 1.260 . S
O88 Zn81 1.969 . S
O88 C98 1.258 . S
C89 O86 1.267 . S
C89 O90 1.228 . S
O90 C89 1.228 . S
O91 Zn80 2.024 . S
O91 C82 1.058 . S
C92 O93 1.228 . S
C92 O94 1.267 . S
O93 C92 1.228 . S
O94 Zn81 1.969 . S
O94 C92 1.267 . S
O95 Zn81 1.965 . S
O95 C99 1.260 . S
O96 Zn80 1.969 . S
O96 C99 1.258 . S
O97 Zn81 2.024 . S
O97 C84 1.058 . S
C98 O87 1.260 . S
C98 O88 1.258 . S
C99 O95 1.260 . S
C99 O96 1.258 . S
Zn100 O106 1.969 . S
Zn100 O107 1.965 . S
Zn100 O111 2.024 . S
Zn100 O116 1.969 . S
Zn101 O108 1.969 . S
Zn101 O114 1.969 . S
Zn101 O115 1.965 . S
Zn101 O117 2.024 . S
C102 O103 1.229 . S
C102 O111 1.058 . S
O103 C102 1.229 . S
C104 O105 1.229 . S
C104 O117 1.058 . S
O105 C104 1.229 . S
O106 Zn100 1.969 . S
O106 C109 1.267 . S
O107 Zn100 1.965 . S
O107 C118 1.260 . S
O108 Zn101 1.969 . S
O108 C118 1.258 . S
C109 O106 1.267 . S
C109 O110 1.228 . S
O110 C109 1.228 . S
O111 Zn100 2.024 . S
O111 C102 1.058 . S
C112 O113 1.228 . S
C112 O114 1.267 . S
O113 C112 1.228 . S
O114 Zn101 1.969 . S
O114 C112 1.267 . S
O115 Zn101 1.965 . S
O115 C119 1.260 . S
O116 Zn100 1.969 . S
O116 C119 1.258 . S
O117 Zn101 2.024 . S
O117 C104 1.058 . S
C118 O107 1.260 . S
C118 O108 1.258 . S
C119 O115 1.260 . S
C119 O116 1.258 . S
Zn120 O126 1.969 . S
Zn120 O127 1.965 . S
Zn120 O131 2.024 . S
Zn120 O136 1.969 . S
Zn121 O128 1.969 . S
Zn121 O134 1.969 . S
Zn121 O135 1.965 . S
Zn121 O137 2.024 . S
C122 O123 1.229 . S
C122 O131 1.058 . S
O123 C122 1.229 . S
C124 O125 1.229 . S
C124 O137 1.058 . S
O125 C124 1.229 . S
O126 Zn120 1.969 . S
O126 C129 1.267 . S
O127 Zn120 1.965 . S
O127 C138 1.260 . S
O128 Zn121 1.969 . S
O128 C138 1.258 . S
C129 O126 1.267 . S
C129 O130 1.228 . S
O130 C129 1.228 . S
O131 Zn120 2.024 . S
O131 C122 1.058 . S
C132 O133 1.228 . S
C132 O134 1.267 . S
O133 C132 1.228 . S
O134 Zn121 1.969 . S
O134 C132 1.267 . S
O135 Zn121 1.965 . S
O135 C139 1.260 . S
O136 Zn120 1.969 . S
O136 C139 1.258 . S
O137 Zn121 2.024 . S
O137 C124 1.058 . S
C138 O127 1.260 . S
C138 O128 1.258 . S
C139 O135 1.260 . S
C139 O136 1.258 . S
Zn140 O146 1.969 . S
Zn140 O147 1.965 . S
Zn140 O151 2.024 . S
Zn140 O156 1.969 . S
Zn141 O148 1.969 . S
Zn141 O154 1.969 . S
Zn141 O155 1.965 . S
Zn141 O157 2.024 . S
C142 O143 1.229 . S
C142 O151 1.058 . S
O143 C142 1.229 . S
C144 O145 1.229 . S
C144 O157 1.058 . S
O145 C144 1.229 . S
O146 Zn140 1.969 . S
O146 C149 1.267 . S
O147 Zn140 1.965 . S
O147 C158 1.260 . S
O148 Zn141 1.969 . S
O148 C158 1.258 . S
C149 O146 1.267 . S
C149 O150 1.228 . S
O150 C149 1.228 . S
O151 Zn140 2.024 . S
O151 C142 1.058 . S
C152 O153 1.228 . S
C152 O154 1.267 . S
O153 C152 1.228 . S
O154 Zn141 1.969 . S
O154 C152 1.267 . S
O155 Zn141 1.965 . S
O155 C159 1.260 . S
O156 Zn140 1.969 . S
O156 C159 1.258 . S
O157 Zn141 2.024 . S
O157 C144 1.058 . S
C158 O147 1.260 . S
C158 O148 1.258 . S
C159 O155 1.260 . S
C159 O156 1.258 . S
C160 O172 1.241 . S
C160 O173 1.280 . S
C161 O174 1.277 . S
C161 O175 1.245 . S
C162 O186 1.247 . S
C162 O188 1.289 . S
Mg163 O164 1.926 . S
Mg163 O173 1.984 . S
Mg163 O175 1.988 . S
Mg163 O176 2.061 1_655 S
O164 Mg163 1.926 . S
O164 Mg165 1.986 . S
O164 Mg166 1.917 1_655 S
Mg165 O164 1.986 . S
Mg165 O172 2.042 . S
Mg165 O174 2.041 . S
Mg165 O180 2.038 1_545 S
Mg165 O188 2.238 1_545 S
Mg166 O164 1.917 1_455 S
Mg166 O167 1.917 1_545 S
Mg166 O177 2.106 . S
Mg166 O179 2.079 1_445 S
Mg166 O188 2.106 1_445 S
Mg166 O189 2.079 . S
O167 Mg166 1.917 1_565 S
O167 Mg168 1.926 . S
O167 Mg169 1.986 . S
Mg168 O167 1.926 . S
Mg168 O182 1.984 . S
Mg168 O185 1.988 . S
Mg168 O186 2.061 1_455 S
Mg169 O167 1.986 . S
Mg169 O177 2.238 1_565 S
Mg169 O181 2.042 . S
Mg169 O183 2.041 . S
Mg169 O190 2.038 1_565 S
C170 O176 1.247 . S
C170 O177 1.289 . S
C171 O189 1.245 . S
C171 O190 1.274 . S
O172 C160 1.241 . S
O172 Mg165 2.042 . S
O173 C160 1.280 . S
O173 Mg163 1.984 . S
O174 C161 1.277 . S
O174 Mg165 2.041 . S
O175 C161 1.245 . S
O175 Mg163 1.988 . S
O176 Mg163 2.061 1_455 S
O176 C170 1.247 . S
O177 Mg166 2.106 . S
O177 Mg169 2.238 1_545 S
O177 C170 1.289 . S
C178 O179 1.245 . S
C178 O180 1.274 . S
O179 Mg166 2.079 1_665 S
O179 C178 1.245 . S
O180 Mg165 2.038 1_565 S
O180 C178 1.274 . S
O181 Mg169 2.042 . S
O181 C184 1.241 . S
O182 Mg168 1.984 . S
O182 C184 1.280 . S
O183 Mg169 2.041 . S
O183 C187 1.277 . S
C184 O181 1.241 . S
C184 O182 1.280 . S
O185 Mg168 1.988 . S
O185 C187 1.245 . S
O186 C162 1.247 . S
O186 Mg168 2.061 1_655 S
C187 O183 1.277 . S
C187 O185 1.245 . S
O188 C162 1.289 . S
O188 Mg165 2.238 1_565 S
O188 Mg166 2.106 1_665 S
O189 Mg166 2.079 . S
O189 C171 1.245 . S
O190 Mg169 2.038 1_545 S
O190 C171 1.274 . S
C191 O203 1.241 . S
C191 O204 1.280 . S
C192 O205 1.277 . S
C192 O206 1.245 . S
C193 O217 1.247 . S
C193 O219 1.289 . S
Mg194 O195 1.926 . S
Mg194 O204 1.984 . S
Mg194 O206 1.988 1_554 S
Mg194 O207 2.061 . S
O195 Mg194 1.926 . S
O195 Mg196 1.986 1_554 S
O195 Mg197 1.917 . S
Mg196 O195 1.986 1_556 S
Mg196 O203 2.042 1_556 S
Mg196 O205 2.041 . S
Mg196 O211 2.038 1_546 S
Mg196 O219 2.238 1_545 S
Mg197 O195 1.917 . S
Mg197 O198 1.917 1_544 S
Mg197 O208 2.107 . S
Mg197 O210 2.079 1_545 S
Mg197 O219 2.106 1_544 S
Mg197 O220 2.078 1_554 S
O198 Mg197 1.917 1_566 S
O198 Mg199 1.926 . S
O198 Mg200 1.986 1_556 S
Mg199 O198 1.926 . S
Mg199 O213 1.984 . S
Mg199 O216 1.988 1_556 S
Mg199 O217 2.061 . S
Mg200 O198 1.986 1_554 S
Mg200 O208 2.238 1_565 S
Mg200 O212 2.042 1_554 S
Mg200 O214 2.041 . S
Mg200 O221 2.038 1_564 S
C201 O207 1.247 . S
C201 O208 1.289 . S
C202 O220 1.245 . S
C202 O221 1.274 . S
O203 C191 1.241 . S
O203 Mg196 2.042 1_554 S
O204 C191 1.280 . S
O204 Mg194 1.984 . S
O205 C192 1.277 . S
O205 Mg196 2.041 . S
O206 C192 1.245 . S
O206 Mg194 1.988 1_556 S
O207 Mg194 2.061 . S
O207 C201 1.247 . S
O208 Mg197 2.107 . S
O208 Mg200 2.238 1_545 S
O208 C201 1.289 . S
C209 O210 1.245 . S
C209 O211 1.274 . S
O210 Mg197 2.079 1_565 S
O210 C209 1.245 . S
O211 Mg196 2.038 1_564 S
O211 C209 1.274 . S
O212 Mg200 2.042 1_556 S
O212 C215 1.241 . S
O213 Mg199 1.984 . S
O213 C215 1.280 . S
O214 Mg200 2.041 . S
O214 C218 1.277 . S
C215 O212 1.241 . S
C215 O213 1.280 . S
O216 Mg199 1.988 1_554 S
O216 C218 1.245 . S
O217 C193 1.247 . S
O217 Mg199 2.061 . S
C218 O214 1.277 . S
C218 O216 1.245 . S
O219 C193 1.289 . S
O219 Mg196 2.238 1_565 S
O219 Mg197 2.106 1_566 S
O220 Mg197 2.078 1_556 S
O220 C202 1.245 . S
O221 Mg200 2.038 1_546 S
O221 C202 1.274 . S
C222 O234 1.241 . S
C222 O235 1.280 . S
C223 O236 1.277 . S
C223 O237 1.245 . S
C224 O248 1.247 . S
C224 O250 1.289 . S
Mg225 O226 1.926 . S
Mg225 O235 1.984 . S
Mg225 O237 1.988 1_554 S
Mg225 O238 2.061 1_655 S
O226 Mg225 1.926 . S
O226 Mg227 1.986 1_554 S
O226 Mg228 1.917 1_655 S
Mg227 O226 1.986 1_556 S
Mg227 O234 2.042 1_556 S
Mg227 O236 2.041 . S
Mg227 O242 2.038 1_556 S
Mg227 O250 2.238 . S
Mg228 O226 1.917 1_455 S
Mg228 O229 1.917 1_554 S
Mg228 O239 2.107 . S
Mg228 O241 2.079 1_455 S
Mg228 O250 2.106 1_454 S
Mg228 O251 2.078 1_554 S
O229 Mg228 1.917 1_556 S
O229 Mg230 1.926 . S
O229 Mg231 1.986 1_556 S
Mg230 O229 1.926 . S
Mg230 O244 1.984 . S
Mg230 O247 1.988 1_556 S
Mg230 O248 2.061 1_455 S
Mg231 O229 1.986 1_554 S
Mg231 O239 2.238 . S
Mg231 O243 2.042 1_554 S
Mg231 O245 2.041 . S
Mg231 O252 2.038 1_554 S
C232 O238 1.247 . S
C232 O239 1.289 . S
C233 O251 1.245 . S
C233 O252 1.274 . S
O234 C222 1.241 . S
O234 Mg227 2.042 1_554 S
O235 C222 1.280 . S
O235 Mg225 1.984 . S
O236 C223 1.277 . S
O236 Mg227 2.041 . S
O237 C223 1.245 . S
O237 Mg225 1.988 1_556 S
O238 Mg225 2.061 1_455 S
O238 C232 1.247 . S
O239 Mg228 2.107 . S
O239 Mg231 2.238 . S
O239 C232 1.289 . S
C240 O241 1.245 . S
C240 O242 1.274 . S
O241 Mg228 2.079 1_655 S
O241 C240 1.245 . S
O242 Mg227 2.038 1_554 S
O242 C240 1.274 . S
O243 Mg231 2.042 1_556 S
O243 C246 1.241 . S
O244 Mg230 1.984 . S
O244 C246 1.280 . S
O245 Mg231 2.041 . S
O245 C249 1.277 . S
C246 O243 1.241 . S
C246 O244 1.280 . S
O247 Mg230 1.988 1_554 S
O247 C249 1.245 . S
O248 C224 1.247 . S
O248 Mg230 2.061 1_655 S
C249 O245 1.277 . S
C249 O247 1.245 . S
O250 C224 1.289 . S
O250 Mg227 2.238 . S
O250 Mg228 2.106 1_656 S
O251 Mg228 2.078 1_556 S
O251 C233 1.245 . S
O252 Mg231 2.038 1_556 S
O252 C233 1.274 . S
C253 O265 1.241 . S
C253 O266 1.280 . S
C254 O267 1.277 . S
C254 O268 1.245 . S
C255 O279 1.247 . S
C255 O281 1.289 . S
Mg256 O257 1.926 . S
Mg256 O266 1.984 . S
Mg256 O268 1.988 1_554 S
Mg256 O269 2.061 . S
O257 Mg256 1.926 . S
O257 Mg258 1.986 1_554 S
O257 Mg259 1.917 . S
Mg258 O257 1.986 1_556 S
Mg258 O265 2.042 1_556 S
Mg258 O267 2.041 . S
Mg258 O273 2.038 1_556 S
Mg258 O281 2.238 . S
Mg259 O257 1.917 . S
Mg259 O260 1.917 1_554 S
Mg259 O270 2.107 . S
Mg259 O272 2.079 . S
Mg259 O281 2.106 1_554 S
Mg259 O282 2.078 1_554 S
O260 Mg259 1.917 1_556 S
O260 Mg261 1.926 . S
O260 Mg262 1.986 1_556 S
Mg261 O260 1.926 . S
Mg261 O275 1.984 . S
Mg261 O278 1.988 1_556 S
Mg261 O279 2.061 . S
Mg262 O260 1.986 1_554 S
Mg262 O270 2.238 . S
Mg262 O274 2.042 1_554 S
Mg262 O276 2.041 . S
Mg262 O283 2.038 1_554 S
C263 O269 1.247 . S
C263 O270 1.289 . S
C264 O282 1.245 . S
C264 O283 1.274 . S
O265 C253 1.241 . S
O265 Mg258 2.042 1_554 S
O266 C253 1.280 . S
O266 Mg256 1.984 . S
O267 C254 1.277 . S
O267 Mg258 2.041 . S
O268 C254 1.245 . S
O268 Mg256 1.988 1_556 S
O269 Mg256 2.061 . S
O269 C263 1.247 . S
O270 Mg259 2.107 . S
O270 Mg262 2.238 . S
O270 C263 1.289 . S
C271 O272 1.245 . S
C271 O273 1.274 . S
O272 Mg259 2.079 . S
O272 C271 1.245 . S
O273 Mg258 2.038 1_554 S
O273 C271 1.274 . S
O274 Mg262 2.042 1_556 S
O274 C277 1.241 . S
O275 Mg261 1.984 . S
O275 C277 1.280 . S
O276 Mg262 2.041 . S
O276 C280 1.277 . S
C277 O274 1.241 . S
C277 O275 1.280 . S
O278 Mg261 1.988 1_554 S
O278 C280 1.245 . S
O279 C255 1.247 . S
O279 Mg261 2.061 . S
C280 O276 1.277 . S
C280 O278 1.245 . S
O281 C255 1.289 . S
O281 Mg258 2.238 . S
O281 Mg259 2.106 1_556 S
O282 Mg259 2.078 1_556 S
O282 C264 1.245 . S
O283 Mg262 2.038 1_556 S
O283 C264 1.274 . S
C284 O296 1.241 . S
C284 O297 1.280 . S
C285 O298 1.277 . S
C285 O299 1.245 . S
C286 O310 1.247 . S
C286 O312 1.289 . S
Mg287 O288 1.926 . S
Mg287 O297 1.984 . S
Mg287 O299 1.988 . S
Mg287 O300 2.061 1_655 S
O288 Mg287 1.926 . S
O288 Mg289 1.986 . S
O288 Mg290 1.917 1_655 S
Mg289 O288 1.986 . S
Mg289 O296 2.042 . S
Mg289 O298 2.041 . S
Mg289 O304 2.038 . S
Mg289 O312 2.238 . S
Mg290 O288 1.917 1_455 S
Mg290 O291 1.917 . S
Mg290 O301 2.106 . S
Mg290 O303 2.079 1_455 S
Mg290 O312 2.106 1_455 S
Mg290 O313 2.079 . S
O291 Mg290 1.917 . S
O291 Mg292 1.926 . S
O291 Mg293 1.986 . S
Mg292 O291 1.926 . S
Mg292 O306 1.984 . S
Mg292 O309 1.988 . S
Mg292 O310 2.061 1_455 S
Mg293 O291 1.986 . S
Mg293 O301 2.238 . S
Mg293 O305 2.042 . S
Mg293 O307 2.041 . S
Mg293 O314 2.038 . S
C294 O300 1.247 . S
C294 O301 1.289 . S
C295 O313 1.245 . S
C295 O314 1.274 . S
O296 C284 1.241 . S
O296 Mg289 2.042 . S
O297 C284 1.280 . S
O297 Mg287 1.984 . S
O298 C285 1.277 . S
O298 Mg289 2.041 . S
O299 C285 1.245 . S
O299 Mg287 1.988 . S
O300 Mg287 2.061 1_455 S
O300 C294 1.247 . S
O301 Mg290 2.106 . S
O301 Mg293 2.238 . S
O301 C294 1.289 . S
C302 O303 1.245 . S
C302 O304 1.274 . S
O303 Mg290 2.079 1_655 S
O303 C302 1.245 . S
O304 Mg289 2.038 . S
O304 C302 1.274 . S
O305 Mg293 2.042 . S
O305 C308 1.241 . S
O306 Mg292 1.984 . S
O306 C308 1.280 . S
O307 Mg293 2.041 . S
O307 C311 1.277 . S
C308 O305 1.241 . S
C308 O306 1.280 . S
O309 Mg292 1.988 . S
O309 C311 1.245 . S
O310 C286 1.247 . S
O310 Mg292 2.061 1_655 S
C311 O307 1.277 . S
C311 O309 1.245 . S
O312 C286 1.289 . S
O312 Mg289 2.238 . S
O312 Mg290 2.106 1_655 S
O313 Mg290 2.079 . S
O313 C295 1.245 . S
O314 Mg293 2.038 . S
O314 C295 1.274 . S
C315 O327 1.241 . S
C315 O328 1.280 . S
C316 O329 1.277 . S
C316 O330 1.245 . S
C317 O341 1.247 . S
C317 O343 1.289 . S
Mg318 O319 1.926 . S
Mg318 O328 1.984 . S
Mg318 O330 1.988 . S
Mg318 O331 2.061 . S
O319 Mg318 1.926 . S
O319 Mg320 1.986 . S
O319 Mg321 1.917 . S
Mg320 O319 1.986 . S
Mg320 O327 2.042 . S
Mg320 O329 2.041 . S
Mg320 O335 2.038 1_545 S
Mg320 O343 2.238 1_545 S
Mg321 O319 1.917 . S
Mg321 O322 1.917 1_545 S
Mg321 O332 2.106 . S
Mg321 O334 2.079 1_545 S
Mg321 O343 2.106 1_545 S
Mg321 O344 2.079 . S
O322 Mg321 1.917 1_565 S
O322 Mg323 1.926 . S
O322 Mg324 1.986 . S
Mg323 O322 1.926 . S
Mg323 O337 1.984 . S
Mg323 O340 1.988 . S
Mg323 O341 2.061 . S
Mg324 O322 1.986 . S
Mg324 O332 2.238 1_565 S
Mg324 O336 2.042 . S
Mg324 O338 2.041 . S
Mg324 O345 2.038 1_565 S
C325 O331 1.247 . S
C325 O332 1.289 . S
C326 O344 1.245 . S
C326 O345 1.274 . S
O327 C315 1.241 . S
O327 Mg320 2.042 . S
O328 C315 1.280 . S
O328 Mg318 1.984 . S
O329 C316 1.277 . S
O329 Mg320 2.041 . S
O330 C316 1.245 . S
O330 Mg318 1.988 . S
O331 Mg318 2.061 . S
O331 C325 1.247 . S
O332 Mg321 2.106 . S
O332 Mg324 2.238 1_545 S
O332 C325 1.289 . S
C333 O334 1.245 . S
C333 O335 1.274 . S
O334 Mg321 2.079 1_565 S
O334 C333 1.245 . S
O335 Mg320 2.038 1_565 S
O335 C333 1.274 . S
O336 Mg324 2.042 . S
O336 C339 1.241 . S
O337 Mg323 1.984 . S
O337 C339 1.280 . S
O338 Mg324 2.041 . S
O338 C342 1.277 . S
C339 O336 1.241 . S
C339 O337 1.280 . S
O340 Mg323 1.988 . S
O340 C342 1.245 . S
O341 C317 1.247 . S
O341 Mg323 2.061 . S
C342 O338 1.277 . S
C342 O340 1.245 . S
O343 C317 1.289 . S
O343 Mg320 2.238 1_565 S
O343 Mg321 2.106 1_565 S
O344 Mg321 2.079 . S
O344 C326 1.245 . S
O345 Mg324 2.038 1_545 S
O345 C326 1.274 . S
H346 C358 0.930 . S
H347 C360 0.930 . S
H348 C361 0.930 . S
H349 C365 0.959 . S
H350 C365 0.959 . S
H351 C365 0.961 . S
H352 C366 0.960 . S
H353 C366 0.961 . S
H354 C366 0.959 . S
H355 C369 0.929 . S
H356 C370 0.931 . S
H357 C372 0.930 . S
C358 H346 0.930 . S
C358 C359 1.399 . S
C358 C363 1.399 . S
C359 C358 1.399 . S
C359 C360 1.376 . S
C360 H347 0.930 . S
C360 C359 1.376 . S
C360 C361 1.388 . S
C361 H348 0.930 . S
C361 C360 1.388 . S
C361 C362 1.390 . S
C362 C361 1.390 . S
C362 C363 1.394 . S
C362 C368 1.465 . S
C363 C358 1.399 . S
C363 C362 1.394 . S
C363 C364 1.516 . S
C364 C363 1.516 . S
C364 C365 1.502 . S
C364 C366 1.561 . S
C364 C367 1.526 . S
C365 H349 0.959 . S
C365 H350 0.959 . S
C365 H351 0.961 . S
C365 C364 1.502 . S
C366 H352 0.960 . S
C366 H353 0.961 . S
C366 H354 0.959 . S
C366 C364 1.561 . S
C367 C364 1.526 . S
C367 C368 1.396 . S
C367 C372 1.390 . S
C368 C362 1.465 . S
C368 C367 1.396 . S
C368 C369 1.399 . S
C369 H355 0.929 . S
C369 C368 1.399 . S
C369 C370 1.385 . S
C370 H356 0.931 . S
C370 C369 1.385 . S
C370 C371 1.389 . S
C371 C370 1.389 . S
C371 C372 1.387 . S
C372 H357 0.930 . S
C372 C367 1.390 . S
C372 C371 1.387 . S
H373 C385 0.930 . S
H374 C387 0.930 . S
H375 C388 0.930 . S
H376 C392 0.959 . S
H377 C392 0.959 . S
H378 C392 0.961 . S
H379 C393 0.960 . S
H380 C393 0.961 . S
H381 C393 0.959 . S
H382 C396 0.929 . S
H383 C397 0.931 . S
H384 C399 0.930 . S
C385 H373 0.930 . S
C385 C386 1.399 . S
C385 C390 1.399 . S
C386 C385 1.399 . S
C386 C387 1.376 . S
C387 H374 0.930 . S
C387 C386 1.376 . S
C387 C388 1.388 . S
C388 H375 0.930 . S
C388 C387 1.388 . S
C388 C389 1.390 . S
C389 C388 1.390 . S
C389 C390 1.394 . S
C389 C395 1.465 . S
C390 C385 1.399 . S
C390 C389 1.394 . S
C390 C391 1.516 . S
C391 C390 1.516 . S
C391 C392 1.502 . S
C391 C393 1.561 . S
C391 C394 1.526 . S
C392 H376 0.959 . S
C392 H377 0.959 . S
C392 H378 0.961 . S
C392 C391 1.502 . S
C393 H379 0.960 . S
C393 H380 0.961 . S
C393 H381 0.959 . S
C393 C391 1.561 . S
C394 C391 1.526 . S
C394 C395 1.396 . S
C394 C399 1.390 . S
C395 C389 1.465 . S
C395 C394 1.396 . S
C395 C396 1.399 . S
C396 H382 0.929 . S
C396 C395 1.399 . S
C396 C397 1.385 . S
C397 H383 0.931 . S
C397 C396 1.385 . S
C397 C398 1.389 . S
C398 C397 1.389 . S
C398 C399 1.387 . S
C399 H384 0.930 . S
C399 C394 1.390 . S
C399 C398 1.387 . S
H400 C412 0.930 . S
H401 C414 0.930 . S
H402 C415 0.930 . S
H403 C419 0.959 . S
H404 C419 0.959 . S
H405 C419 0.961 . S
H406 C420 0.960 . S
H407 C420 0.961 . S
H408 C420 0.959 . S
H409 C423 0.929 . S
H410 C424 0.931 . S
H411 C426 0.930 . S
C412 H400 0.930 . S
C412 C413 1.399 . S
C412 C417 1.399 . S
C413 C412 1.399 . S
C413 C414 1.376 . S
C414 H401 0.930 . S
C414 C413 1.376 . S
C414 C415 1.388 . S
C415 H402 0.930 . S
C415 C414 1.388 . S
C415 C416 1.390 . S
C416 C415 1.390 . S
C416 C417 1.394 . S
C416 C422 1.465 . S
C417 C412 1.399 . S
C417 C416 1.394 . S
C417 C418 1.516 . S
C418 C417 1.516 . S
C418 C419 1.502 . S
C418 C420 1.561 . S
C418 C421 1.526 . S
C419 H403 0.959 . S
C419 H404 0.959 . S
C419 H405 0.961 . S
C419 C418 1.502 . S
C420 H406 0.960 . S
C420 H407 0.961 . S
C420 H408 0.959 . S
C420 C418 1.561 . S
C421 C418 1.526 . S
C421 C422 1.396 . S
C421 C426 1.390 . S
C422 C416 1.465 . S
C422 C421 1.396 . S
C422 C423 1.399 . S
C423 H409 0.929 . S
C423 C422 1.399 . S
C423 C424 1.385 . S
C424 H410 0.931 . S
C424 C423 1.385 . S
C424 C425 1.389 . S
C425 C424 1.389 . S
C425 C426 1.387 . S
C426 H411 0.930 . S
C426 C421 1.390 . S
C426 C425 1.387 . S
H427 C439 0.930 . S
H428 C441 0.930 . S
H429 C442 0.930 . S
H430 C446 0.959 . S
H431 C446 0.959 . S
H432 C446 0.961 . S
H433 C447 0.960 . S
H434 C447 0.961 . S
H435 C447 0.959 . S
H436 C450 0.929 . S
H437 C451 0.931 . S
H438 C453 0.930 . S
C439 H427 0.930 . S
C439 C440 1.399 . S
C439 C444 1.399 . S
C440 C439 1.399 . S
C440 C441 1.376 . S
C441 H428 0.930 . S
C441 C440 1.376 . S
C441 C442 1.388 . S
C442 H429 0.930 . S
C442 C441 1.388 . S
C442 C443 1.390 . S
C443 C442 1.390 . S
C443 C444 1.394 . S
C443 C449 1.465 . S
C444 C439 1.399 . S
C444 C443 1.394 . S
C444 C445 1.516 . S
C445 C444 1.516 . S
C445 C446 1.502 . S
C445 C447 1.561 . S
C445 C448 1.526 . S
C446 H430 0.959 . S
C446 H431 0.959 . S
C446 H432 0.961 . S
C446 C445 1.502 . S
C447 H433 0.960 . S
C447 H434 0.961 . S
C447 H435 0.959 . S
C447 C445 1.561 . S
C448 C445 1.526 . S
C448 C449 1.396 . S
C448 C453 1.390 . S
C449 C443 1.465 . S
C449 C448 1.396 . S
C449 C450 1.399 . S
C450 H436 0.929 . S
C450 C449 1.399 . S
C450 C451 1.385 . S
C451 H437 0.931 . S
C451 C450 1.385 . S
C451 C452 1.389 . S
C452 C451 1.389 . S
C452 C453 1.387 . S
C453 H438 0.930 . S
C453 C448 1.390 . S
C453 C452 1.387 . S
H454 C466 0.930 . S
H455 C468 0.930 . S
H456 C469 0.930 . S
H457 C473 0.959 . S
H458 C473 0.959 . S
H459 C473 0.961 . S
H460 C474 0.960 . S
H461 C474 0.961 . S
H462 C474 0.959 . S
H463 C477 0.929 . S
H464 C478 0.931 . S
H465 C480 0.930 . S
C466 H454 0.930 . S
C466 C467 1.399 . S
C466 C471 1.399 . S
C467 C466 1.399 . S
C467 C468 1.376 . S
C468 H455 0.930 . S
C468 C467 1.376 . S
C468 C469 1.388 . S
C469 H456 0.930 . S
C469 C468 1.388 . S
C469 C470 1.390 . S
C470 C469 1.390 . S
C470 C471 1.394 . S
C470 C476 1.465 . S
C471 C466 1.399 . S
C471 C470 1.394 . S
C471 C472 1.516 . S
C472 C471 1.516 . S
C472 C473 1.502 . S
C472 C474 1.561 . S
C472 C475 1.526 . S
C473 H457 0.959 . S
C473 H458 0.959 . S
C473 H459 0.961 . S
C473 C472 1.502 . S
C474 H460 0.960 . S
C474 H461 0.961 . S
C474 H462 0.959 . S
C474 C472 1.561 . S
C475 C472 1.526 . S
C475 C476 1.396 . S
C475 C480 1.390 . S
C476 C470 1.465 . S
C476 C475 1.396 . S
C476 C477 1.399 . S
C477 H463 0.929 . S
C477 C476 1.399 . S
C477 C478 1.385 . S
C478 H464 0.931 . S
C478 C477 1.385 . S
C478 C479 1.389 . S
C479 C478 1.389 . S
C479 C480 1.387 . S
C480 H465 0.930 . S
C480 C475 1.390 . S
C480 C479 1.387 . S
H481 C493 0.930 . S
H482 C495 0.930 . S
H483 C496 0.930 . S
H484 C500 0.959 . S
H485 C500 0.959 . S
H486 C500 0.961 . S
H487 C501 0.960 . S
H488 C501 0.961 . S
H489 C501 0.959 . S
H490 C504 0.929 . S
H491 C505 0.931 . S
H492 C507 0.930 . S
C493 H481 0.930 . S
C493 C494 1.399 . S
C493 C498 1.399 . S
C494 C493 1.399 . S
C494 C495 1.376 . S
C495 H482 0.930 . S
C495 C494 1.376 . S
C495 C496 1.388 . S
C496 H483 0.930 . S
C496 C495 1.388 . S
C496 C497 1.390 . S
C497 C496 1.390 . S
C497 C498 1.394 . S
C497 C503 1.465 . S
C498 C493 1.399 . S
C498 C497 1.394 . S
C498 C499 1.516 . S
C499 C498 1.516 . S
C499 C500 1.502 . S
C499 C501 1.561 . S
C499 C502 1.526 . S
C500 H484 0.959 . S
C500 H485 0.959 . S
C500 H486 0.961 . S
C500 C499 1.502 . S
C501 H487 0.960 . S
C501 H488 0.961 . S
C501 H489 0.959 . S
C501 C499 1.561 . S
C502 C499 1.526 . S
C502 C503 1.396 . S
C502 C507 1.390 . S
C503 C497 1.465 . S
C503 C502 1.396 . S
C503 C504 1.399 . S
C504 H490 0.929 . S
C504 C503 1.399 . S
C504 C505 1.385 . S
C505 H491 0.931 . S
C505 C504 1.385 . S
C505 C506 1.389 . S
C506 C505 1.389 . S
C506 C507 1.387 . S
C507 H492 0.930 . S
C507 C502 1.390 . S
C507 C506 1.387 . S
H508 C520 0.930 . S
H509 C522 0.930 . S
H510 C523 0.930 . S
H511 C527 0.959 . S
H512 C527 0.959 . S
H513 C527 0.961 . S
H514 C528 0.960 . S
H515 C528 0.961 . S
H516 C528 0.959 . S
H517 C531 0.929 . S
H518 C532 0.931 . S
H519 C534 0.930 . S
C520 H508 0.930 . S
C520 C521 1.399 . S
C520 C525 1.399 . S
C521 C520 1.399 . S
C521 C522 1.376 . S
C522 H509 0.930 . S
C522 C521 1.376 . S
C522 C523 1.388 . S
C523 H510 0.930 . S
C523 C522 1.388 . S
C523 C524 1.390 . S
C524 C523 1.390 . S
C524 C525 1.394 . S
C524 C530 1.465 . S
C525 C520 1.399 . S
C525 C524 1.394 . S
C525 C526 1.516 . S
C526 C525 1.516 . S
C526 C527 1.502 . S
C526 C528 1.561 . S
C526 C529 1.526 . S
C527 H511 0.959 . S
C527 H512 0.959 . S
C527 H513 0.961 . S
C527 C526 1.502 . S
C528 H514 0.960 . S
C528 H515 0.961 . S
C528 H516 0.959 . S
C528 C526 1.561 . S
C529 C526 1.526 . S
C529 C530 1.396 . S
C529 C534 1.390 . S
C530 C524 1.465 . S
C530 C529 1.396 . S
C530 C531 1.399 . S
C531 H517 0.929 . S
C531 C530 1.399 . S
C531 C532 1.385 . S
C532 H518 0.931 . S
C532 C531 1.385 . S
C532 C533 1.389 . S
C533 C532 1.389 . S
C533 C534 1.387 . S
C534 H519 0.930 . S
C534 C529 1.390 . S
C534 C533 1.387 . S
H535 C547 0.930 . S
H536 C549 0.930 . S
H537 C550 0.930 . S
H538 C554 0.959 . S
H539 C554 0.959 . S
H540 C554 0.961 . S
H541 C555 0.960 . S
H542 C555 0.961 . S
H543 C555 0.959 . S
H544 C558 0.929 . S
H545 C559 0.931 . S
H546 C561 0.930 . S
C547 H535 0.930 . S
C547 C548 1.399 . S
C547 C552 1.399 . S
C548 C547 1.399 . S
C548 C549 1.376 . S
C549 H536 0.930 . S
C549 C548 1.376 . S
C549 C550 1.388 . S
C550 H537 0.930 . S
C550 C549 1.388 . S
C550 C551 1.390 . S
C551 C550 1.390 . S
C551 C552 1.394 . S
C551 C557 1.465 . S
C552 C547 1.399 . S
C552 C551 1.394 . S
C552 C553 1.516 . S
C553 C552 1.516 . S
C553 C554 1.502 . S
C553 C555 1.561 . S
C553 C556 1.526 . S
C554 H538 0.959 . S
C554 H539 0.959 . S
C554 H540 0.961 . S
C554 C553 1.502 . S
C555 H541 0.960 . S
C555 H542 0.961 . S
C555 H543 0.959 . S
C555 C553 1.561 . S
C556 C553 1.526 . S
C556 C557 1.396 . S
C556 C561 1.390 . S
C557 C551 1.465 . S
C557 C556 1.396 . S
C557 C558 1.399 . S
C558 H544 0.929 . S
C558 C557 1.399 . S
C558 C559 1.385 . S
C559 H545 0.931 . S
C559 C558 1.385 . S
C559 C560 1.389 . S
C560 C559 1.389 . S
C560 C561 1.387 . S
C561 H546 0.930 . S
C561 C556 1.390 . S
C561 C560 1.387 . S
H562 C574 0.930 . S
H563 C576 0.930 . S
H564 C577 0.930 . S
H565 C581 0.959 . S
H566 C581 0.959 . S
H567 C581 0.961 . S
H568 C582 0.960 . S
H569 C582 0.961 . S
H570 C582 0.959 . S
H571 C585 0.929 . S
H572 C586 0.931 . S
H573 C588 0.930 . S
C574 H562 0.930 . S
C574 C575 1.399 . S
C574 C579 1.399 . S
C575 C574 1.399 . S
C575 C576 1.376 . S
C576 H563 0.930 . S
C576 C575 1.376 . S
C576 C577 1.388 . S
C577 H564 0.930 . S
C577 C576 1.388 . S
C577 C578 1.390 . S
C578 C577 1.390 . S
C578 C579 1.394 . S
C578 C584 1.465 . S
C579 C574 1.399 . S
C579 C578 1.394 . S
C579 C580 1.516 . S
C580 C579 1.516 . S
C580 C581 1.502 . S
C580 C582 1.561 . S
C580 C583 1.526 . S
C581 H565 0.959 . S
C581 H566 0.959 . S
C581 H567 0.961 . S
C581 C580 1.502 . S
C582 H568 0.960 . S
C582 H569 0.961 . S
C582 H570 0.959 . S
C582 C580 1.561 . S
C583 C580 1.526 . S
C583 C584 1.396 . S
C583 C588 1.390 . S
C584 C578 1.465 . S
C584 C583 1.396 . S
C584 C585 1.399 . S
C585 H571 0.929 . S
C585 C584 1.399 . S
C585 C586 1.385 . S
C586 H572 0.931 . S
C586 C585 1.385 . S
C586 C587 1.389 . S
C587 C586 1.389 . S
C587 C588 1.387 . S
C588 H573 0.930 . S
C588 C583 1.390 . S
C588 C587 1.387 . S
H589 C601 0.930 . S
H590 C603 0.930 . S
H591 C604 0.930 . S
H592 C608 0.959 . S
H593 C608 0.959 . S
H594 C608 0.961 . S
H595 C609 0.960 . S
H596 C609 0.961 . S
H597 C609 0.959 . S
H598 C612 0.929 . S
H599 C613 0.931 . S
H600 C615 0.930 . S
C601 H589 0.930 . S
C601 C602 1.399 . S
C601 C606 1.399 . S
C602 C601 1.399 . S
C602 C603 1.376 . S
C603 H590 0.930 . S
C603 C602 1.376 . S
C603 C604 1.388 . S
C604 H591 0.930 . S
C604 C603 1.388 . S
C604 C605 1.390 . S
C605 C604 1.390 . S
C605 C606 1.394 . S
C605 C611 1.465 . S
C606 C601 1.399 . S
C606 C605 1.394 . S
C606 C607 1.516 . S
C607 C606 1.516 . S
C607 C608 1.502 . S
C607 C609 1.561 . S
C607 C610 1.526 . S
C608 H592 0.959 . S
C608 H593 0.959 . S
C608 H594 0.961 . S
C608 C607 1.502 . S
C609 H595 0.960 . S
C609 H596 0.961 . S
C609 H597 0.959 . S
C609 C607 1.561 . S
C610 C607 1.526 . S
C610 C611 1.396 . S
C610 C615 1.390 . S
C611 C605 1.465 . S
C611 C610 1.396 . S
C611 C612 1.399 . S
C612 H598 0.929 . S
C612 C611 1.399 . S
C612 C613 1.385 . S
C613 H599 0.931 . S
C613 C612 1.385 . S
C613 C614 1.389 . S
C614 C613 1.389 . S
C614 C615 1.387 . S
C615 H600 0.930 . S
C615 C610 1.390 . S
C615 C614 1.387 . S
H616 C628 0.930 . S
H617 C630 0.930 . S
H618 C631 0.930 . S
H619 C635 0.959 . S
H620 C635 0.959 . S
H621 C635 0.961 . S
H622 C636 0.960 . S
H623 C636 0.961 . S
H624 C636 0.959 . S
H625 C639 0.929 . S
H626 C640 0.931 . S
H627 C642 0.930 . S
C628 H616 0.930 . S
C628 C629 1.399 . S
C628 C633 1.399 . S
C629 C628 1.399 . S
C629 C630 1.376 . S
C630 H617 0.930 . S
C630 C629 1.376 . S
C630 C631 1.388 . S
C631 H618 0.930 . S
C631 C630 1.388 . S
C631 C632 1.390 . S
C632 C631 1.390 . S
C632 C633 1.394 . S
C632 C638 1.465 . S
C633 C628 1.399 . S
C633 C632 1.394 . S
C633 C634 1.516 . S
C634 C633 1.516 . S
C634 C635 1.502 . S
C634 C636 1.561 . S
C634 C637 1.526 . S
C635 H619 0.959 . S
C635 H620 0.959 . S
C635 H621 0.961 . S
C635 C634 1.502 . S
C636 H622 0.960 . S
C636 H623 0.961 . S
C636 H624 0.959 . S
C636 C634 1.561 . S
C637 C634 1.526 . S
C637 C638 1.396 . S
C637 C642 1.390 . S
C638 C632 1.465 . S
C638 C637 1.396 . S
C638 C639 1.399 . S
C639 H625 0.929 . S
C639 C638 1.399 . S
C639 C640 1.385 . S
C640 H626 0.931 . S
C640 C639 1.385 . S
C640 C641 1.389 . S
C641 C640 1.389 . S
C641 C642 1.387 . S
C642 H627 0.930 . S
C642 C637 1.390 . S
C642 C641 1.387 . S
H643 C655 0.930 . S
H644 C657 0.930 . S
H645 C658 0.930 . S
H646 C662 0.959 . S
H647 C662 0.959 . S
H648 C662 0.961 . S
H649 C663 0.960 . S
H650 C663 0.961 . S
H651 C663 0.959 . S
H652 C666 0.929 . S
H653 C667 0.931 . S
H654 C669 0.930 . S
C655 H643 0.930 . S
C655 C656 1.399 . S
C655 C660 1.399 . S
C656 C655 1.399 . S
C656 C657 1.376 . S
C657 H644 0.930 . S
C657 C656 1.376 . S
C657 C658 1.388 . S
C658 H645 0.930 . S
C658 C657 1.388 . S
C658 C659 1.390 . S
C659 C658 1.390 . S
C659 C660 1.394 . S
C659 C665 1.465 . S
C660 C655 1.399 . S
C660 C659 1.394 . S
C660 C661 1.516 . S
C661 C660 1.516 . S
C661 C662 1.502 . S
C661 C663 1.561 . S
C661 C664 1.526 . S
C662 H646 0.959 . S
C662 H647 0.959 . S
C662 H648 0.961 . S
C662 C661 1.502 . S
C663 H649 0.960 . S
C663 H650 0.961 . S
C663 H651 0.959 . S
C663 C661 1.561 . S
C664 C661 1.526 . S
C664 C665 1.396 . S
C664 C669 1.390 . S
C665 C659 1.465 . S
C665 C664 1.396 . S
C665 C666 1.399 . S
C666 H652 0.929 . S
C666 C665 1.399 . S
C666 C667 1.385 . S
C667 H653 0.931 . S
C667 C666 1.385 . S
C667 C668 1.389 . S
C668 C667 1.389 . S
C668 C669 1.387 . S
C669 H654 0.930 . S
C669 C664 1.390 . S
C669 C668 1.387 . S
H670 C682 0.930 . S
H671 C684 0.930 . S
H672 C685 0.930 . S
H673 C689 0.959 . S
H674 C689 0.959 . S
H675 C689 0.961 . S
H676 C690 0.960 . S
H677 C690 0.961 . S
H678 C690 0.959 . S
H679 C693 0.929 . S
H680 C694 0.931 . S
H681 C696 0.930 . S
C682 H670 0.930 . S
C682 C683 1.399 . S
C682 C687 1.399 . S
C683 C682 1.399 . S
C683 C684 1.376 . S
C684 H671 0.930 . S
C684 C683 1.376 . S
C684 C685 1.388 . S
C685 H672 0.930 . S
C685 C684 1.388 . S
C685 C686 1.390 . S
C686 C685 1.390 . S
C686 C687 1.394 . S
C686 C692 1.465 . S
C687 C682 1.399 . S
C687 C686 1.394 . S
C687 C688 1.516 . S
C688 C687 1.516 . S
C688 C689 1.502 . S
C688 C690 1.561 . S
C688 C691 1.526 . S
C689 H673 0.959 . S
C689 H674 0.959 . S
C689 H675 0.961 . S
C689 C688 1.502 . S
C690 H676 0.960 . S
C690 H677 0.961 . S
C690 H678 0.959 . S
C690 C688 1.561 . S
C691 C688 1.526 . S
C691 C692 1.396 . S
C691 C696 1.390 . S
C692 C686 1.465 . S
C692 C691 1.396 . S
C692 C693 1.399 . S
C693 H679 0.929 . S
C693 C692 1.399 . S
C693 C694 1.385 . S
C694 H680 0.931 . S
C694 C693 1.385 . S
C694 C695 1.389 . S
C695 C694 1.389 . S
C695 C696 1.387 . S
C696 H681 0.930 . S
C696 C691 1.390 . S
C696 C695 1.387 . S
H697 C709 0.930 . S
H698 C711 0.930 . S
H699 C712 0.930 . S
H700 C716 0.959 . S
H701 C716 0.959 . S
H702 C716 0.961 . S
H703 C717 0.960 . S
H704 C717 0.961 . S
H705 C717 0.959 . S
H706 C720 0.929 . S
H707 C721 0.931 . S
H708 C723 0.930 . S
C709 H697 0.930 . S
C709 C710 1.399 . S
C709 C714 1.399 . S
C710 C709 1.399 . S
C710 C711 1.376 . S
C711 H698 0.930 . S
C711 C710 1.376 . S
C711 C712 1.388 . S
C712 H699 0.930 . S
C712 C711 1.388 . S
C712 C713 1.390 . S
C713 C712 1.390 . S
C713 C714 1.394 . S
C713 C719 1.465 . S
C714 C709 1.399 . S
C714 C713 1.394 . S
C714 C715 1.516 . S
C715 C714 1.516 . S
C715 C716 1.502 . S
C715 C717 1.561 . S
C715 C718 1.526 . S
C716 H700 0.959 . S
C716 H701 0.959 . S
C716 H702 0.961 . S
C716 C715 1.502 . S
C717 H703 0.960 . S
C717 H704 0.961 . S
C717 H705 0.959 . S
C717 C715 1.561 . S
C718 C715 1.526 . S
C718 C719 1.396 . S
C718 C723 1.390 . S
C719 C713 1.465 . S
C719 C718 1.396 . S
C719 C720 1.399 . S
C720 H706 0.929 . S
C720 C719 1.399 . S
C720 C721 1.385 . S
C721 H707 0.931 . S
C721 C720 1.385 . S
C721 C722 1.389 . S
C722 C721 1.389 . S
C722 C723 1.387 . S
C723 H708 0.930 . S
C723 C718 1.390 . S
C723 C722 1.387 . S
H724 C736 0.930 . S
H725 C738 0.930 . S
H726 C739 0.930 . S
H727 C743 0.959 . S
H728 C743 0.959 . S
H729 C743 0.961 . S
H730 C744 0.960 . S
H731 C744 0.961 . S
H732 C744 0.959 . S
H733 C747 0.929 . S
H734 C748 0.931 . S
H735 C750 0.930 . S
C736 H724 0.930 . S
C736 C737 1.399 . S
C736 C741 1.399 . S
C737 C736 1.399 . S
C737 C738 1.376 . S
C738 H725 0.930 . S
C738 C737 1.376 . S
C738 C739 1.388 . S
C739 H726 0.930 . S
C739 C738 1.388 . S
C739 C740 1.390 . S
C740 C739 1.390 . S
C740 C741 1.394 . S
C740 C746 1.465 . S
C741 C736 1.399 . S
C741 C740 1.394 . S
C741 C742 1.516 . S
C742 C741 1.516 . S
C742 C743 1.502 . S
C742 C744 1.561 . S
C742 C745 1.526 . S
C743 H727 0.959 . S
C743 H728 0.959 . S
C743 H729 0.961 . S
C743 C742 1.502 . S
C744 H730 0.960 . S
C744 H731 0.961 . S
C744 H732 0.959 . S
C744 C742 1.561 . S
C745 C742 1.526 . S
C745 C746 1.396 . S
C745 C750 1.390 . S
C746 C740 1.465 . S
C746 C745 1.396 . S
C746 C747 1.399 . S
C747 H733 0.929 . S
C747 C746 1.399 . S
C747 C748 1.385 . S
C748 H734 0.931 . S
C748 C747 1.385 . S
C748 C749 1.389 . S
C749 C748 1.389 . S
C749 C750 1.387 . S
C750 H735 0.930 . S
C750 C745 1.390 . S
C750 C749 1.387 . S
H751 C763 0.930 . S
H752 C765 0.930 . S
H753 C766 0.930 . S
H754 C770 0.959 . S
H755 C770 0.959 . S
H756 C770 0.961 . S
H757 C771 0.960 . S
H758 C771 0.961 . S
H759 C771 0.959 . S
H760 C774 0.929 . S
H761 C775 0.931 . S
H762 C777 0.930 . S
C763 H751 0.930 . S
C763 C764 1.399 . S
C763 C768 1.399 . S
C764 C763 1.399 . S
C764 C765 1.376 . S
C765 H752 0.930 . S
C765 C764 1.376 . S
C765 C766 1.388 . S
C766 H753 0.930 . S
C766 C765 1.388 . S
C766 C767 1.390 . S
C767 C766 1.390 . S
C767 C768 1.394 . S
C767 C773 1.465 . S
C768 C763 1.399 . S
C768 C767 1.394 . S
C768 C769 1.516 . S
C769 C768 1.516 . S
C769 C770 1.502 . S
C769 C771 1.561 . S
C769 C772 1.526 . S
C770 H754 0.959 . S
C770 H755 0.959 . S
C770 H756 0.961 . S
C770 C769 1.502 . S
C771 H757 0.960 . S
C771 H758 0.961 . S
C771 H759 0.959 . S
C771 C769 1.561 . S
C772 C769 1.526 . S
C772 C773 1.396 . S
C772 C777 1.390 . S
C773 C767 1.465 . S
C773 C772 1.396 . S
C773 C774 1.399 . S
C774 H760 0.929 . S
C774 C773 1.399 . S
C774 C775 1.385 . S
C775 H761 0.931 . S
C775 C774 1.385 . S
C775 C776 1.389 . S
C776 C775 1.389 . S
C776 C777 1.387 . S
C777 H762 0.930 . S
C777 C772 1.390 . S
C777 C776 1.387 . S
H778 C790 0.930 . S
H779 C792 0.930 . S
H780 C793 0.930 . S
H781 C797 0.959 . S
H782 C797 0.959 . S
H783 C797 0.961 . S
H784 C798 0.960 . S
H785 C798 0.961 . S
H786 C798 0.959 . S
H787 C801 0.929 . S
H788 C802 0.931 . S
H789 C804 0.930 . S
C790 H778 0.930 . S
C790 C791 1.399 . S
C790 C795 1.399 . S
C791 C790 1.399 . S
C791 C792 1.376 . S
C792 H779 0.930 . S
C792 C791 1.376 . S
C792 C793 1.388 . S
C793 H780 0.930 . S
C793 C792 1.388 . S
C793 C794 1.390 . S
C794 C793 1.390 . S
C794 C795 1.394 . S
C794 C800 1.465 . S
C795 C790 1.399 . S
C795 C794 1.394 . S
C795 C796 1.516 . S
C796 C795 1.516 . S
C796 C797 1.502 . S
C796 C798 1.561 . S
C796 C799 1.526 . S
C797 H781 0.959 . S
C797 H782 0.959 . S
C797 H783 0.961 . S
C797 C796 1.502 . S
C798 H784 0.960 . S
C798 H785 0.961 . S
C798 H786 0.959 . S
C798 C796 1.561 . S
C799 C796 1.526 . S
C799 C800 1.396 . S
C799 C804 1.390 . S
C800 C794 1.465 . S
C800 C799 1.396 . S
C800 C801 1.399 . S
C801 H787 0.929 . S
C801 C800 1.399 . S
C801 C802 1.385 . S
C802 H788 0.931 . S
C802 C801 1.385 . S
C802 C803 1.389 . S
C803 C802 1.389 . S
C803 C804 1.387 . S
C804 H789 0.930 . S
C804 C799 1.390 . S
C804 C803 1.387 . S
H805 C817 0.930 . S
H806 C819 0.930 . S
H807 C820 0.930 . S
H808 C824 0.959 . S
H809 C824 0.959 . S
H810 C824 0.961 . S
H811 C825 0.960 . S
H812 C825 0.961 . S
H813 C825 0.959 . S
H814 C828 0.929 . S
H815 C829 0.931 . S
H816 C831 0.930 . S
C817 H805 0.930 . S
C817 C818 1.399 . S
C817 C822 1.399 . S
C818 C817 1.399 . S
C818 C819 1.376 . S
C819 H806 0.930 . S
C819 C818 1.376 . S
C819 C820 1.388 . S
C820 H807 0.930 . S
C820 C819 1.388 . S
C820 C821 1.390 . S
C821 C820 1.390 . S
C821 C822 1.394 . S
C821 C827 1.465 . S
C822 C817 1.399 . S
C822 C821 1.394 . S
C822 C823 1.516 . S
C823 C822 1.516 . S
C823 C824 1.502 . S
C823 C825 1.561 . S
C823 C826 1.526 . S
C824 H808 0.959 . S
C824 H809 0.959 . S
C824 H810 0.961 . S
C824 C823 1.502 . S
C825 H811 0.960 . S
C825 H812 0.961 . S
C825 H813 0.959 . S
C825 C823 1.561 . S
C826 C823 1.526 . S
C826 C827 1.396 . S
C826 C831 1.390 . S
C827 C821 1.465 . S
C827 C826 1.396 . S
C827 C828 1.399 . S
C828 H814 0.929 . S
C828 C827 1.399 . S
C828 C829 1.385 . S
C829 H815 0.931 . S
C829 C828 1.385 . S
C829 C830 1.389 . S
C830 C829 1.389 . S
C830 C831 1.387 . S
C831 H816 0.930 . S
C831 C826 1.390 . S
C831 C830 1.387 . S
H832 C844 0.930 . S
H833 C846 0.930 . S
H834 C847 0.930 . S
H835 C851 0.959 . S
H836 C851 0.959 . S
H837 C851 0.961 . S
H838 C852 0.960 . S
H839 C852 0.961 . S
H840 C852 0.959 . S
H841 C855 0.929 . S
H842 C856 0.931 . S
H843 C858 0.930 . S
C844 H832 0.930 . S
C844 C845 1.399 . S
C844 C849 1.399 . S
C845 C844 1.399 . S
C845 C846 1.376 . S
C846 H833 0.930 . S
C846 C845 1.376 . S
C846 C847 1.388 . S
C847 H834 0.930 . S
C847 C846 1.388 . S
C847 C848 1.390 . S
C848 C847 1.390 . S
C848 C849 1.394 . S
C848 C854 1.465 . S
C849 C844 1.399 . S
C849 C848 1.394 . S
C849 C850 1.516 . S
C850 C849 1.516 . S
C850 C851 1.502 . S
C850 C852 1.561 . S
C850 C853 1.526 . S
C851 H835 0.959 . S
C851 H836 0.959 . S
C851 H837 0.961 . S
C851 C850 1.502 . S
C852 H838 0.960 . S
C852 H839 0.961 . S
C852 H840 0.959 . S
C852 C850 1.561 . S
C853 C850 1.526 . S
C853 C854 1.396 . S
C853 C858 1.390 . S
C854 C848 1.465 . S
C854 C853 1.396 . S
C854 C855 1.399 . S
C855 H841 0.929 . S
C855 C854 1.399 . S
C855 C856 1.385 . S
C856 H842 0.931 . S
C856 C855 1.385 . S
C856 C857 1.389 . S
C857 C856 1.389 . S
C857 C858 1.387 . S
C858 H843 0.930 . S
C858 C853 1.390 . S
C858 C857 1.387 . S
H859 C871 0.930 . S
H860 C873 0.930 . S
H861 C874 0.930 . S
H862 C878 0.959 . S
H863 C878 0.959 . S
H864 C878 0.961 . S
H865 C879 0.960 . S
H866 C879 0.961 . S
H867 C879 0.959 . S
H868 C882 0.929 . S
H869 C883 0.931 . S
H870 C885 0.930 . S
C871 H859 0.930 . S
C871 C872 1.399 . S
C871 C876 1.399 . S
C872 C871 1.399 . S
C872 C873 1.376 . S
C873 H860 0.930 . S
C873 C872 1.376 . S
C873 C874 1.388 . S
C874 H861 0.930 . S
C874 C873 1.388 . S
C874 C875 1.390 . S
C875 C874 1.390 . S
C875 C876 1.394 . S
C875 C881 1.465 . S
C876 C871 1.399 . S
C876 C875 1.394 . S
C876 C877 1.516 . S
C877 C876 1.516 . S
C877 C878 1.502 . S
C877 C879 1.561 . S
C877 C880 1.526 . S
C878 H862 0.959 . S
C878 H863 0.959 . S
C878 H864 0.961 . S
C878 C877 1.502 . S
C879 H865 0.960 . S
C879 H866 0.961 . S
C879 H867 0.959 . S
C879 C877 1.561 . S
C880 C877 1.526 . S
C880 C881 1.396 . S
C880 C885 1.390 . S
C881 C875 1.465 . S
C881 C880 1.396 . S
C881 C882 1.399 . S
C882 H868 0.929 . S
C882 C881 1.399 . S
C882 C883 1.385 . S
C883 H869 0.931 . S
C883 C882 1.385 . S
C883 C884 1.389 . S
C884 C883 1.389 . S
C884 C885 1.387 . S
C885 H870 0.930 . S
C885 C880 1.390 . S
C885 C884 1.387 . S
H886 C898 0.930 . S
H887 C900 0.930 . S
H888 C901 0.930 . S
H889 C905 0.959 . S
H890 C905 0.959 . S
H891 C905 0.961 . S
H892 C906 0.960 . S
H893 C906 0.961 . S
H894 C906 0.959 . S
H895 C909 0.929 . S
H896 C910 0.931 . S
H897 C912 0.930 . S
C898 H886 0.930 . S
C898 C899 1.399 . S
C898 C903 1.399 . S
C899 C898 1.399 . S
C899 C900 1.376 . S
C900 H887 0.930 . S
C900 C899 1.376 . S
C900 C901 1.388 . S
C901 H888 0.930 . S
C901 C900 1.388 . S
C901 C902 1.390 . S
C902 C901 1.390 . S
C902 C903 1.394 . S
C902 C908 1.465 . S
C903 C898 1.399 . S
C903 C902 1.394 . S
C903 C904 1.516 . S
C904 C903 1.516 . S
C904 C905 1.502 . S
C904 C906 1.561 . S
C904 C907 1.526 . S
C905 H889 0.959 . S
C905 H890 0.959 . S
C905 H891 0.961 . S
C905 C904 1.502 . S
C906 H892 0.960 . S
C906 H893 0.961 . S
C906 H894 0.959 . S
C906 C904 1.561 . S
C907 C904 1.526 . S
C907 C908 1.396 . S
C907 C912 1.390 . S
C908 C902 1.465 . S
C908 C907 1.396 . S
C908 C909 1.399 . S
C909 H895 0.929 . S
C909 C908 1.399 . S
C909 C910 1.385 . S
C910 H896 0.931 . S
C910 C909 1.385 . S
C910 C911 1.389 . S
C911 C910 1.389 . S
C911 C912 1.387 . S
C912 H897 0.930 . S
C912 C907 1.390 . S
C912 C911 1.387 . S
H913 C925 0.930 . S
H914 C927 0.930 . S
H915 C928 0.930 . S
H916 C932 0.959 . S
H917 C932 0.959 . S
H918 C932 0.961 . S
H919 C933 0.960 . S
H920 C933 0.961 . S
H921 C933 0.959 . S
H922 C936 0.929 . S
H923 C937 0.931 . S
H924 C939 0.930 . S
C925 H913 0.930 . S
C925 C926 1.399 . S
C925 C930 1.399 . S
C926 C925 1.399 . S
C926 C927 1.376 . S
C927 H914 0.930 . S
C927 C926 1.376 . S
C927 C928 1.388 . S
C928 H915 0.930 . S
C928 C927 1.388 . S
C928 C929 1.390 . S
C929 C928 1.390 . S
C929 C930 1.394 . S
C929 C935 1.465 . S
C930 C925 1.399 . S
C930 C929 1.394 . S
C930 C931 1.516 . S
C931 C930 1.516 . S
C931 C932 1.502 . S
C931 C933 1.561 . S
C931 C934 1.526 . S
C932 H916 0.959 . S
C932 H917 0.959 . S
C932 H918 0.961 . S
C932 C931 1.502 . S
C933 H919 0.960 . S
C933 H920 0.961 . S
C933 H921 0.959 . S
C933 C931 1.561 . S
C934 C931 1.526 . S
C934 C935 1.396 . S
C934 C939 1.390 . S
C935 C929 1.465 . S
C935 C934 1.396 . S
C935 C936 1.399 . S
C936 H922 0.929 . S
C936 C935 1.399 . S
C936 C937 1.385 . S
C937 H923 0.931 . S
C937 C936 1.385 . S
C937 C938 1.389 . S
C938 C937 1.389 . S
C938 C939 1.387 . S
C939 H924 0.930 . S
C939 C934 1.390 . S
C939 C938 1.387 . S
H940 C952 0.930 . S
H941 C954 0.930 . S
H942 C955 0.930 . S
H943 C959 0.959 . S
H944 C959 0.959 . S
H945 C959 0.961 . S
H946 C960 0.960 . S
H947 C960 0.961 . S
H948 C960 0.959 . S
H949 C963 0.929 . S
H950 C964 0.931 . S
H951 C966 0.930 . S
C952 H940 0.930 . S
C952 C953 1.399 . S
C952 C957 1.399 . S
C953 C952 1.399 . S
C953 C954 1.376 . S
C954 H941 0.930 . S
C954 C953 1.376 . S
C954 C955 1.388 . S
C955 H942 0.930 . S
C955 C954 1.388 . S
C955 C956 1.390 . S
C956 C955 1.390 . S
C956 C957 1.394 . S
C956 C962 1.465 . S
C957 C952 1.399 . S
C957 C956 1.394 . S
C957 C958 1.516 . S
C958 C957 1.516 . S
C958 C959 1.502 . S
C958 C960 1.561 . S
C958 C961 1.526 . S
C959 H943 0.959 . S
C959 H944 0.959 . S
C959 H945 0.961 . S
C959 C958 1.502 . S
C960 H946 0.960 . S
C960 H947 0.961 . S
C960 H948 0.959 . S
C960 C958 1.561 . S
C961 C958 1.526 . S
C961 C962 1.396 . S
C961 C966 1.390 . S
C962 C956 1.465 . S
C962 C961 1.396 . S
C962 C963 1.399 . S
C963 H949 0.929 . S
C963 C962 1.399 . S
C963 C964 1.385 . S
C964 H950 0.931 . S
C964 C963 1.385 . S
C964 C965 1.389 . S
C965 C964 1.389 . S
C965 C966 1.387 . S
C966 H951 0.930 . S
C966 C961 1.390 . S
C966 C965 1.387 . S
H967 C979 0.930 . S
H968 C981 0.930 . S
H969 C982 0.930 . S
H970 C986 0.959 . S
H971 C986 0.959 . S
H972 C986 0.961 . S
H973 C987 0.960 . S
H974 C987 0.961 . S
H975 C987 0.959 . S
H976 C990 0.929 . S
H977 C991 0.931 . S
H978 C993 0.930 . S
C979 H967 0.930 . S
C979 C980 1.399 . S
C979 C984 1.399 . S
C980 C979 1.399 . S
C980 C981 1.376 . S
C981 H968 0.930 . S
C981 C980 1.376 . S
C981 C982 1.388 . S
C982 H969 0.930 . S
C982 C981 1.388 . S
C982 C983 1.390 . S
C983 C982 1.390 . S
C983 C984 1.394 . S
C983 C989 1.465 . S
C984 C979 1.399 . S
C984 C983 1.394 . S
C984 C985 1.516 . S
C985 C984 1.516 . S
C985 C986 1.502 . S
C985 C987 1.561 . S
C985 C988 1.526 . S
C986 H970 0.959 . S
C986 H971 0.959 . S
C986 H972 0.961 . S
C986 C985 1.502 . S
C987 H973 0.960 . S
C987 H974 0.961 . S
C987 H975 0.959 . S
C987 C985 1.561 . S
C988 C985 1.526 . S
C988 C989 1.396 . S
C988 C993 1.390 . S
C989 C983 1.465 . S
C989 C988 1.396 . S
C989 C990 1.399 . S
C990 H976 0.929 . S
C990 C989 1.399 . S
C990 C991 1.385 . S
C991 H977 0.931 . S
C991 C990 1.385 . S
C991 C992 1.389 . S
C992 C991 1.389 . S
C992 C993 1.387 . S
C993 H978 0.930 . S
C993 C988 1.390 . S
C993 C992 1.387 . S
H994 C1006 0.930 . S
H995 C1008 0.930 . S
H996 C1009 0.930 . S
H997 C1013 0.959 . S
H998 C1013 0.959 . S
H999 C1013 0.961 . S
H1000 C1014 0.960 . S
H1001 C1014 0.961 . S
H1002 C1014 0.959 . S
H1003 C1017 0.929 . S
H1004 C1018 0.931 . S
H1005 C1020 0.930 . S
C1006 H994 0.930 . S
C1006 C1007 1.399 . S
C1006 C1011 1.399 . S
C1007 C1006 1.399 . S
C1007 C1008 1.376 . S
C1008 H995 0.930 . S
C1008 C1007 1.376 . S
C1008 C1009 1.388 . S
C1009 H996 0.930 . S
C1009 C1008 1.388 . S
C1009 C1010 1.390 . S
C1010 C1009 1.390 . S
C1010 C1011 1.394 . S
C1010 C1016 1.465 . S
C1011 C1006 1.399 . S
C1011 C1010 1.394 . S
C1011 C1012 1.516 . S
C1012 C1011 1.516 . S
C1012 C1013 1.502 . S
C1012 C1014 1.561 . S
C1012 C1015 1.526 . S
C1013 H997 0.959 . S
C1013 H998 0.959 . S
C1013 H999 0.961 . S
C1013 C1012 1.502 . S
C1014 H1000 0.960 . S
C1014 H1001 0.961 . S
C1014 H1002 0.959 . S
C1014 C1012 1.561 . S
C1015 C1012 1.526 . S
C1015 C1016 1.396 . S
C1015 C1020 1.390 . S
C1016 C1010 1.465 . S
C1016 C1015 1.396 . S
C1016 C1017 1.399 . S
C1017 H1003 0.929 . S
C1017 C1016 1.399 . S
C1017 C1018 1.385 . S
C1018 H1004 0.931 . S
C1018 C1017 1.385 . S
C1018 C1019 1.389 . S
C1019 C1018 1.389 . S
C1019 C1020 1.387 . S
C1020 H1005 0.930 . S
C1020 C1015 1.390 . S
C1020 C1019 1.387 . S
H1021 C1033 0.930 . S
H1022 C1035 0.930 . S
H1023 C1036 0.930 . S
H1024 C1040 0.959 . S
H1025 C1040 0.959 . S
H1026 C1040 0.961 . S
H1027 C1041 0.960 . S
H1028 C1041 0.961 . S
H1029 C1041 0.959 . S
H1030 C1044 0.929 . S
H1031 C1045 0.931 . S
H1032 C1047 0.930 . S
C1033 H1021 0.930 . S
C1033 C1034 1.399 . S
C1033 C1038 1.399 . S
C1034 C1033 1.399 . S
C1034 C1035 1.376 . S
C1035 H1022 0.930 . S
C1035 C1034 1.376 . S
C1035 C1036 1.388 . S
C1036 H1023 0.930 . S
C1036 C1035 1.388 . S
C1036 C1037 1.390 . S
C1037 C1036 1.390 . S
C1037 C1038 1.394 . S
C1037 C1043 1.465 . S
C1038 C1033 1.399 . S
C1038 C1037 1.394 . S
C1038 C1039 1.516 . S
C1039 C1038 1.516 . S
C1039 C1040 1.502 . S
C1039 C1041 1.561 . S
C1039 C1042 1.526 . S
C1040 H1024 0.959 . S
C1040 H1025 0.959 . S
C1040 H1026 0.961 . S
C1040 C1039 1.502 . S
C1041 H1027 0.960 . S
C1041 H1028 0.961 . S
C1041 H1029 0.959 . S
C1041 C1039 1.561 . S
C1042 C1039 1.526 . S
C1042 C1043 1.396 . S
C1042 C1047 1.390 . S
C1043 C1037 1.465 . S
C1043 C1042 1.396 . S
C1043 C1044 1.399 . S
C1044 H1030 0.929 . S
C1044 C1043 1.399 . S
C1044 C1045 1.385 . S
C1045 H1031 0.931 . S
C1045 C1044 1.385 . S
C1045 C1046 1.389 . S
C1046 C1045 1.389 . S
C1046 C1047 1.387 . S
C1047 H1032 0.930 . S
C1047 C1042 1.390 . S
C1047 C1046 1.387 . S
H1048 C1060 0.930 . S
H1049 C1062 0.930 . S
H1050 C1063 0.930 . S
H1051 C1067 0.959 . S
H1052 C1067 0.959 . S
H1053 C1067 0.961 . S
H1054 C1068 0.960 . S
H1055 C1068 0.961 . S
H1056 C1068 0.959 . S
H1057 C1071 0.929 . S
H1058 C1072 0.931 . S
H1059 C1074 0.930 . S
C1060 H1048 0.930 . S
C1060 C1061 1.399 . S
C1060 C1065 1.399 . S
C1061 C1060 1.399 . S
C1061 C1062 1.376 . S
C1062 H1049 0.930 . S
C1062 C1061 1.376 . S
C1062 C1063 1.388 . S
C1063 H1050 0.930 . S
C1063 C1062 1.388 . S
C1063 C1064 1.390 . S
C1064 C1063 1.390 . S
C1064 C1065 1.394 . S
C1064 C1070 1.465 . S
C1065 C1060 1.399 . S
C1065 C1064 1.394 . S
C1065 C1066 1.516 . S
C1066 C1065 1.516 . S
C1066 C1067 1.502 . S
C1066 C1068 1.561 . S
C1066 C1069 1.526 . S
C1067 H1051 0.959 . S
C1067 H1052 0.959 . S
C1067 H1053 0.961 . S
C1067 C1066 1.502 . S
C1068 H1054 0.960 . S
C1068 H1055 0.961 . S
C1068 H1056 0.959 . S
C1068 C1066 1.561 . S
C1069 C1066 1.526 . S
C1069 C1070 1.396 . S
C1069 C1074 1.390 . S
C1070 C1064 1.465 . S
C1070 C1069 1.396 . S
C1070 C1071 1.399 . S
C1071 H1057 0.929 . S
C1071 C1070 1.399 . S
C1071 C1072 1.385 . S
C1072 H1058 0.931 . S
C1072 C1071 1.385 . S
C1072 C1073 1.389 . S
C1073 C1072 1.389 . S
C1073 C1074 1.387 . S
C1074 H1059 0.930 . S
C1074 C1069 1.390 . S
C1074 C1073 1.387 . S
H1075 C1087 0.930 . S
H1076 C1089 0.930 . S
H1077 C1090 0.930 . S
H1078 C1094 0.959 . S
H1079 C1094 0.959 . S
H1080 C1094 0.961 . S
H1081 C1095 0.960 . S
H1082 C1095 0.961 . S
H1083 C1095 0.959 . S
H1084 C1098 0.929 . S
H1085 C1099 0.931 . S
H1086 C1101 0.930 . S
C1087 H1075 0.930 . S
C1087 C1088 1.399 . S
C1087 C1092 1.399 . S
C1088 C1087 1.399 . S
C1088 C1089 1.376 . S
C1089 H1076 0.930 . S
C1089 C1088 1.376 . S
C1089 C1090 1.388 . S
C1090 H1077 0.930 . S
C1090 C1089 1.388 . S
C1090 C1091 1.390 . S
C1091 C1090 1.390 . S
C1091 C1092 1.394 . S
C1091 C1097 1.465 . S
C1092 C1087 1.399 . S
C1092 C1091 1.394 . S
C1092 C1093 1.516 . S
C1093 C1092 1.516 . S
C1093 C1094 1.502 . S
C1093 C1095 1.561 . S
C1093 C1096 1.526 . S
C1094 H1078 0.959 . S
C1094 H1079 0.959 . S
C1094 H1080 0.961 . S
C1094 C1093 1.502 . S
C1095 H1081 0.960 . S
C1095 H1082 0.961 . S
C1095 H1083 0.959 . S
C1095 C1093 1.561 . S
C1096 C1093 1.526 . S
C1096 C1097 1.396 . S
C1096 C1101 1.390 . S
C1097 C1091 1.465 . S
C1097 C1096 1.396 . S
C1097 C1098 1.399 . S
C1098 H1084 0.929 . S
C1098 C1097 1.399 . S
C1098 C1099 1.385 . S
C1099 H1085 0.931 . S
C1099 C1098 1.385 . S
C1099 C1100 1.389 . S
C1100 C1099 1.389 . S
C1100 C1101 1.387 . S
C1101 H1086 0.930 . S
C1101 C1096 1.390 . S
C1101 C1100 1.387 . S
H1102 C1114 0.930 . S
H1103 C1116 0.930 . S
H1104 C1117 0.930 . S
H1105 C1121 0.959 . S
H1106 C1121 0.959 . S
H1107 C1121 0.961 . S
H1108 C1122 0.960 . S
H1109 C1122 0.961 . S
H1110 C1122 0.959 . S
H1111 C1125 0.929 . S
H1112 C1126 0.931 . S
H1113 C1128 0.930 . S
C1114 H1102 0.930 . S
C1114 C1115 1.399 . S
C1114 C1119 1.399 . S
C1115 C1114 1.399 . S
C1115 C1116 1.376 . S
C1116 H1103 0.930 . S
C1116 C1115 1.376 . S
C1116 C1117 1.388 . S
C1117 H1104 0.930 . S
C1117 C1116 1.388 . S
C1117 C1118 1.390 . S
C1118 C1117 1.390 . S
C1118 C1119 1.394 . S
C1118 C1124 1.465 . S
C1119 C1114 1.399 . S
C1119 C1118 1.394 . S
C1119 C1120 1.516 . S
C1120 C1119 1.516 . S
C1120 C1121 1.502 . S
C1120 C1122 1.561 . S
C1120 C1123 1.526 . S
C1121 H1105 0.959 . S
C1121 H1106 0.959 . S
C1121 H1107 0.961 . S
C1121 C1120 1.502 . S
C1122 H1108 0.960 . S
C1122 H1109 0.961 . S
C1122 H1110 0.959 . S
C1122 C1120 1.561 . S
C1123 C1120 1.526 . S
C1123 C1124 1.396 . S
C1123 C1128 1.390 . S
C1124 C1118 1.465 . S
C1124 C1123 1.396 . S
C1124 C1125 1.399 . S
C1125 H1111 0.929 . S
C1125 C1124 1.399 . S
C1125 C1126 1.385 . S
C1126 H1112 0.931 . S
C1126 C1125 1.385 . S
C1126 C1127 1.389 . S
C1127 C1126 1.389 . S
C1127 C1128 1.387 . S
C1128 H1113 0.930 . S
C1128 C1123 1.390 . S
C1128 C1127 1.387 . S
H1129 C1141 0.930 . S
H1130 C1143 0.930 . S
H1131 C1144 0.930 . S
H1132 C1148 0.959 . S
H1133 C1148 0.959 . S
H1134 C1148 0.961 . S
H1135 C1149 0.960 . S
H1136 C1149 0.961 . S
H1137 C1149 0.959 . S
H1138 C1152 0.929 . S
H1139 C1153 0.931 . S
H1140 C1155 0.930 . S
C1141 H1129 0.930 . S
C1141 C1142 1.399 . S
C1141 C1146 1.399 . S
C1142 C1141 1.399 . S
C1142 C1143 1.376 . S
C1143 H1130 0.930 . S
C1143 C1142 1.376 . S
C1143 C1144 1.388 . S
C1144 H1131 0.930 . S
C1144 C1143 1.388 . S
C1144 C1145 1.390 . S
C1145 C1144 1.390 . S
C1145 C1146 1.394 . S
C1145 C1151 1.465 . S
C1146 C1141 1.399 . S
C1146 C1145 1.394 . S
C1146 C1147 1.516 . S
C1147 C1146 1.516 . S
C1147 C1148 1.502 . S
C1147 C1149 1.561 . S
C1147 C1150 1.526 . S
C1148 H1132 0.959 . S
C1148 H1133 0.959 . S
C1148 H1134 0.961 . S
C1148 C1147 1.502 . S
C1149 H1135 0.960 . S
C1149 H1136 0.961 . S
C1149 H1137 0.959 . S
C1149 C1147 1.561 . S
C1150 C1147 1.526 . S
C1150 C1151 1.396 . S
C1150 C1155 1.390 . S
C1151 C1145 1.465 . S
C1151 C1150 1.396 . S
C1151 C1152 1.399 . S
C1152 H1138 0.929 . S
C1152 C1151 1.399 . S
C1152 C1153 1.385 . S
C1153 H1139 0.931 . S
C1153 C1152 1.385 . S
C1153 C1154 1.389 . S
C1154 C1153 1.389 . S
C1154 C1155 1.387 . S
C1155 H1140 0.930 . S
C1155 C1150 1.390 . S
C1155 C1154 1.387 . S
H1156 C1168 0.930 . S
H1157 C1170 0.930 . S
H1158 C1171 0.930 . S
H1159 C1175 0.959 . S
H1160 C1175 0.959 . S
H1161 C1175 0.961 . S
H1162 C1176 0.960 . S
H1163 C1176 0.961 . S
H1164 C1176 0.959 . S
H1165 C1179 0.929 . S
H1166 C1180 0.931 . S
H1167 C1182 0.930 . S
C1168 H1156 0.930 . S
C1168 C1169 1.399 . S
C1168 C1173 1.399 . S
C1169 C1168 1.399 . S
C1169 C1170 1.376 . S
C1170 H1157 0.930 . S
C1170 C1169 1.376 . S
C1170 C1171 1.388 . S
C1171 H1158 0.930 . S
C1171 C1170 1.388 . S
C1171 C1172 1.390 . S
C1172 C1171 1.390 . S
C1172 C1173 1.394 . S
C1172 C1178 1.465 . S
C1173 C1168 1.399 . S
C1173 C1172 1.394 . S
C1173 C1174 1.516 . S
C1174 C1173 1.516 . S
C1174 C1175 1.502 . S
C1174 C1176 1.561 . S
C1174 C1177 1.526 . S
C1175 H1159 0.959 . S
C1175 H1160 0.959 . S
C1175 H1161 0.961 . S
C1175 C1174 1.502 . S
C1176 H1162 0.960 . S
C1176 H1163 0.961 . S
C1176 H1164 0.959 . S
C1176 C1174 1.561 . S
C1177 C1174 1.526 . S
C1177 C1178 1.396 . S
C1177 C1182 1.390 . S
C1178 C1172 1.465 . S
C1178 C1177 1.396 . S
C1178 C1179 1.399 . S
C1179 H1165 0.929 . S
C1179 C1178 1.399 . S
C1179 C1180 1.385 . S
C1180 H1166 0.931 . S
C1180 C1179 1.385 . S
C1180 C1181 1.389 . S
C1181 C1180 1.389 . S
C1181 C1182 1.387 . S
C1182 H1167 0.930 . S
C1182 C1177 1.390 . S
C1182 C1181 1.387 . S
H1183 C1195 0.930 . S
H1184 C1197 0.930 . S
H1185 C1198 0.930 . S
H1186 C1202 0.959 . S
H1187 C1202 0.959 . S
H1188 C1202 0.961 . S
H1189 C1203 0.960 . S
H1190 C1203 0.961 . S
H1191 C1203 0.959 . S
H1192 C1206 0.929 . S
H1193 C1207 0.931 . S
H1194 C1209 0.930 . S
C1195 H1183 0.930 . S
C1195 C1196 1.399 . S
C1195 C1200 1.399 . S
C1196 C1195 1.399 . S
C1196 C1197 1.376 . S
C1197 H1184 0.930 . S
C1197 C1196 1.376 . S
C1197 C1198 1.388 . S
C1198 H1185 0.930 . S
C1198 C1197 1.388 . S
C1198 C1199 1.390 . S
C1199 C1198 1.390 . S
C1199 C1200 1.394 . S
C1199 C1205 1.465 . S
C1200 C1195 1.399 . S
C1200 C1199 1.394 . S
C1200 C1201 1.516 . S
C1201 C1200 1.516 . S
C1201 C1202 1.502 . S
C1201 C1203 1.561 . S
C1201 C1204 1.526 . S
C1202 H1186 0.959 . S
C1202 H1187 0.959 . S
C1202 H1188 0.961 . S
C1202 C1201 1.502 . S
C1203 H1189 0.960 . S
C1203 H1190 0.961 . S
C1203 H1191 0.959 . S
C1203 C1201 1.561 . S
C1204 C1201 1.526 . S
C1204 C1205 1.396 . S
C1204 C1209 1.390 . S
C1205 C1199 1.465 . S
C1205 C1204 1.396 . S
C1205 C1206 1.399 . S
C1206 H1192 0.929 . S
C1206 C1205 1.399 . S
C1206 C1207 1.385 . S
C1207 H1193 0.931 . S
C1207 C1206 1.385 . S
C1207 C1208 1.389 . S
C1208 C1207 1.389 . S
C1208 C1209 1.387 . S
C1209 H1194 0.930 . S
C1209 C1204 1.390 . S
C1209 C1208 1.387 . S
H1210 C1222 0.930 . S
H1211 C1224 0.930 . S
H1212 C1225 0.930 . S
H1213 C1229 0.959 . S
H1214 C1229 0.959 . S
H1215 C1229 0.961 . S
H1216 C1230 0.960 . S
H1217 C1230 0.961 . S
H1218 C1230 0.959 . S
H1219 C1233 0.929 . S
H1220 C1234 0.931 . S
H1221 C1236 0.930 . S
C1222 H1210 0.930 . S
C1222 C1223 1.399 . S
C1222 C1227 1.399 . S
C1223 C1222 1.399 . S
C1223 C1224 1.376 . S
C1224 H1211 0.930 . S
C1224 C1223 1.376 . S
C1224 C1225 1.388 . S
C1225 H1212 0.930 . S
C1225 C1224 1.388 . S
C1225 C1226 1.390 . S
C1226 C1225 1.390 . S
C1226 C1227 1.394 . S
C1226 C1232 1.465 . S
C1227 C1222 1.399 . S
C1227 C1226 1.394 . S
C1227 C1228 1.516 . S
C1228 C1227 1.516 . S
C1228 C1229 1.502 . S
C1228 C1230 1.561 . S
C1228 C1231 1.526 . S
C1229 H1213 0.959 . S
C1229 H1214 0.959 . S
C1229 H1215 0.961 . S
C1229 C1228 1.502 . S
C1230 H1216 0.960 . S
C1230 H1217 0.961 . S
C1230 H1218 0.959 . S
C1230 C1228 1.561 . S
C1231 C1228 1.526 . S
C1231 C1232 1.396 . S
C1231 C1236 1.390 . S
C1232 C1226 1.465 . S
C1232 C1231 1.396 . S
C1232 C1233 1.399 . S
C1233 H1219 0.929 . S
C1233 C1232 1.399 . S
C1233 C1234 1.385 . S
C1234 H1220 0.931 . S
C1234 C1233 1.385 . S
C1234 C1235 1.389 . S
C1235 C1234 1.389 . S
C1235 C1236 1.387 . S
C1236 H1221 0.930 . S
C1236 C1231 1.390 . S
C1236 C1235 1.387 . S
H1237 C1249 0.930 . S
H1238 C1251 0.930 . S
H1239 C1252 0.930 . S
H1240 C1256 0.959 . S
H1241 C1256 0.959 . S
H1242 C1256 0.961 . S
H1243 C1257 0.960 . S
H1244 C1257 0.961 . S
H1245 C1257 0.959 . S
H1246 C1260 0.929 . S
H1247 C1261 0.931 . S
H1248 C1263 0.930 . S
C1249 H1237 0.930 . S
C1249 C1250 1.399 . S
C1249 C1254 1.399 . S
C1250 C1249 1.399 . S
C1250 C1251 1.376 . S
C1251 H1238 0.930 . S
C1251 C1250 1.376 . S
C1251 C1252 1.388 . S
C1252 H1239 0.930 . S
C1252 C1251 1.388 . S
C1252 C1253 1.390 . S
C1253 C1252 1.390 . S
C1253 C1254 1.394 . S
C1253 C1259 1.465 . S
C1254 C1249 1.399 . S
C1254 C1253 1.394 . S
C1254 C1255 1.516 . S
C1255 C1254 1.516 . S
C1255 C1256 1.502 . S
C1255 C1257 1.561 . S
C1255 C1258 1.526 . S
C1256 H1240 0.959 . S
C1256 H1241 0.959 . S
C1256 H1242 0.961 . S
C1256 C1255 1.502 . S
C1257 H1243 0.960 . S
C1257 H1244 0.961 . S
C1257 H1245 0.959 . S
C1257 C1255 1.561 . S
C1258 C1255 1.526 . S
C1258 C1259 1.396 . S
C1258 C1263 1.390 . S
C1259 C1253 1.465 . S
C1259 C1258 1.396 . S
C1259 C1260 1.399 . S
C1260 H1246 0.929 . S
C1260 C1259 1.399 . S
C1260 C1261 1.385 . S
C1261 H1247 0.931 . S
C1261 C1260 1.385 . S
C1261 C1262 1.389 . S
C1262 C1261 1.389 . S
C1262 C1263 1.387 . S
C1263 H1248 0.930 . S
C1263 C1258 1.390 . S
C1263 C1262 1.387 . S
H1264 C1276 0.930 . S
H1265 C1278 0.930 . S
H1266 C1279 0.930 . S
H1267 C1283 0.959 . S
H1268 C1283 0.959 . S
H1269 C1283 0.961 . S
H1270 C1284 0.960 . S
H1271 C1284 0.961 . S
H1272 C1284 0.959 . S
H1273 C1287 0.929 . S
H1274 C1288 0.931 . S
H1275 C1290 0.930 . S
C1276 H1264 0.930 . S
C1276 C1277 1.399 . S
C1276 C1281 1.399 . S
C1277 C1276 1.399 . S
C1277 C1278 1.376 . S
C1278 H1265 0.930 . S
C1278 C1277 1.376 . S
C1278 C1279 1.388 . S
C1279 H1266 0.930 . S
C1279 C1278 1.388 . S
C1279 C1280 1.390 . S
C1280 C1279 1.390 . S
C1280 C1281 1.394 . S
C1280 C1286 1.465 . S
C1281 C1276 1.399 . S
C1281 C1280 1.394 . S
C1281 C1282 1.516 . S
C1282 C1281 1.516 . S
C1282 C1283 1.502 . S
C1282 C1284 1.561 . S
C1282 C1285 1.526 . S
C1283 H1267 0.959 . S
C1283 H1268 0.959 . S
C1283 H1269 0.961 . S
C1283 C1282 1.502 . S
C1284 H1270 0.960 . S
C1284 H1271 0.961 . S
C1284 H1272 0.959 . S
C1284 C1282 1.561 . S
C1285 C1282 1.526 . S
C1285 C1286 1.396 . S
C1285 C1290 1.390 . S
C1286 C1280 1.465 . S
C1286 C1285 1.396 . S
C1286 C1287 1.399 . S
C1287 H1273 0.929 . S
C1287 C1286 1.399 . S
C1287 C1288 1.385 . S
C1288 H1274 0.931 . S
C1288 C1287 1.385 . S
C1288 C1289 1.389 . S
C1289 C1288 1.389 . S
C1289 C1290 1.387 . S
C1290 H1275 0.930 . S
C1290 C1285 1.390 . S
C1290 C1289 1.387 . S
H1291 C1303 0.930 . S
H1292 C1305 0.930 . S
H1293 C1306 0.930 . S
H1294 C1310 0.959 . S
H1295 C1310 0.959 . S
H1296 C1310 0.961 . S
H1297 C1311 0.960 . S
H1298 C1311 0.961 . S
H1299 C1311 0.959 . S
H1300 C1314 0.929 . S
H1301 C1315 0.931 . S
H1302 C1317 0.930 . S
C1303 H1291 0.930 . S
C1303 C1304 1.399 . S
C1303 C1308 1.399 . S
C1304 C1303 1.399 . S
C1304 C1305 1.376 . S
C1305 H1292 0.930 . S
C1305 C1304 1.376 . S
C1305 C1306 1.388 . S
C1306 H1293 0.930 . S
C1306 C1305 1.388 . S
C1306 C1307 1.390 . S
C1307 C1306 1.390 . S
C1307 C1308 1.394 . S
C1307 C1313 1.465 . S
C1308 C1303 1.399 . S
C1308 C1307 1.394 . S
C1308 C1309 1.516 . S
C1309 C1308 1.516 . S
C1309 C1310 1.502 . S
C1309 C1311 1.561 . S
C1309 C1312 1.526 . S
C1310 H1294 0.959 . S
C1310 H1295 0.959 . S
C1310 H1296 0.961 . S
C1310 C1309 1.502 . S
C1311 H1297 0.960 . S
C1311 H1298 0.961 . S
C1311 H1299 0.959 . S
C1311 C1309 1.561 . S
C1312 C1309 1.526 . S
C1312 C1313 1.396 . S
C1312 C1317 1.390 . S
C1313 C1307 1.465 . S
C1313 C1312 1.396 . S
C1313 C1314 1.399 . S
C1314 H1300 0.929 . S
C1314 C1313 1.399 . S
C1314 C1315 1.385 . S
C1315 H1301 0.931 . S
C1315 C1314 1.385 . S
C1315 C1316 1.389 . S
C1316 C1315 1.389 . S
C1316 C1317 1.387 . S
C1317 H1302 0.930 . S
C1317 C1312 1.390 . S
C1317 C1316 1.387 . S
H1318 C1330 0.930 . S
H1319 C1332 0.930 . S
H1320 C1333 0.930 . S
H1321 C1337 0.959 . S
H1322 C1337 0.959 . S
H1323 C1337 0.961 . S
H1324 C1338 0.960 . S
H1325 C1338 0.961 . S
H1326 C1338 0.959 . S
H1327 C1341 0.929 . S
H1328 C1342 0.931 . S
H1329 C1344 0.930 . S
C1330 H1318 0.930 . S
C1330 C1331 1.399 . S
C1330 C1335 1.399 . S
C1331 C1330 1.399 . S
C1331 C1332 1.376 . S
C1332 H1319 0.930 . S
C1332 C1331 1.376 . S
C1332 C1333 1.388 . S
C1333 H1320 0.930 . S
C1333 C1332 1.388 . S
C1333 C1334 1.390 . S
C1334 C1333 1.390 . S
C1334 C1335 1.394 . S
C1334 C1340 1.465 . S
C1335 C1330 1.399 . S
C1335 C1334 1.394 . S
C1335 C1336 1.516 . S
C1336 C1335 1.516 . S
C1336 C1337 1.502 . S
C1336 C1338 1.561 . S
C1336 C1339 1.526 . S
C1337 H1321 0.959 . S
C1337 H1322 0.959 . S
C1337 H1323 0.961 . S
C1337 C1336 1.502 . S
C1338 H1324 0.960 . S
C1338 H1325 0.961 . S
C1338 H1326 0.959 . S
C1338 C1336 1.561 . S
C1339 C1336 1.526 . S
C1339 C1340 1.396 . S
C1339 C1344 1.390 . S
C1340 C1334 1.465 . S
C1340 C1339 1.396 . S
C1340 C1341 1.399 . S
C1341 H1327 0.929 . S
C1341 C1340 1.399 . S
C1341 C1342 1.385 . S
C1342 H1328 0.931 . S
C1342 C1341 1.385 . S
C1342 C1343 1.389 . S
C1343 C1342 1.389 . S
C1343 C1344 1.387 . S
C1344 H1329 0.930 . S
C1344 C1339 1.390 . S
C1344 C1343 1.387 . S
H1345 C1357 0.930 . S
H1346 C1359 0.930 . S
H1347 C1360 0.930 . S
H1348 C1364 0.959 . S
H1349 C1364 0.959 . S
H1350 C1364 0.961 . S
H1351 C1365 0.960 . S
H1352 C1365 0.961 . S
H1353 C1365 0.959 . S
H1354 C1368 0.929 . S
H1355 C1369 0.931 . S
H1356 C1371 0.930 . S
C1357 H1345 0.930 . S
C1357 C1358 1.399 . S
C1357 C1362 1.399 . S
C1358 C1357 1.399 . S
C1358 C1359 1.376 . S
C1359 H1346 0.930 . S
C1359 C1358 1.376 . S
C1359 C1360 1.388 . S
C1360 H1347 0.930 . S
C1360 C1359 1.388 . S
C1360 C1361 1.390 . S
C1361 C1360 1.390 . S
C1361 C1362 1.394 . S
C1361 C1367 1.465 . S
C1362 C1357 1.399 . S
C1362 C1361 1.394 . S
C1362 C1363 1.516 . S
C1363 C1362 1.516 . S
C1363 C1364 1.502 . S
C1363 C1365 1.561 . S
C1363 C1366 1.526 . S
C1364 H1348 0.959 . S
C1364 H1349 0.959 . S
C1364 H1350 0.961 . S
C1364 C1363 1.502 . S
C1365 H1351 0.960 . S
C1365 H1352 0.961 . S
C1365 H1353 0.959 . S
C1365 C1363 1.561 . S
C1366 C1363 1.526 . S
C1366 C1367 1.396 . S
C1366 C1371 1.390 . S
C1367 C1361 1.465 . S
C1367 C1366 1.396 . S
C1367 C1368 1.399 . S
C1368 H1354 0.929 . S
C1368 C1367 1.399 . S
C1368 C1369 1.385 . S
C1369 H1355 0.931 . S
C1369 C1368 1.385 . S
C1369 C1370 1.389 . S
C1370 C1369 1.389 . S
C1370 C1371 1.387 . S
C1371 H1356 0.930 . S
C1371 C1366 1.390 . S
C1371 C1370 1.387 . S
H1372 C1384 0.930 . S
H1373 C1386 0.930 . S
H1374 C1387 0.930 . S
H1375 C1391 0.959 . S
H1376 C1391 0.959 . S
H1377 C1391 0.961 . S
H1378 C1392 0.960 . S
H1379 C1392 0.961 . S
H1380 C1392 0.959 . S
H1381 C1395 0.929 . S
H1382 C1396 0.931 . S
H1383 C1398 0.930 . S
C1384 H1372 0.930 . S
C1384 C1385 1.399 . S
C1384 C1389 1.399 . S
C1385 C1384 1.399 . S
C1385 C1386 1.376 . S
C1386 H1373 0.930 . S
C1386 C1385 1.376 . S
C1386 C1387 1.388 . S
C1387 H1374 0.930 . S
C1387 C1386 1.388 . S
C1387 C1388 1.390 . S
C1388 C1387 1.390 . S
C1388 C1389 1.394 . S
C1388 C1394 1.465 . S
C1389 C1384 1.399 . S
C1389 C1388 1.394 . S
C1389 C1390 1.516 . S
C1390 C1389 1.516 . S
C1390 C1391 1.502 . S
C1390 C1392 1.561 . S
C1390 C1393 1.526 . S
C1391 H1375 0.959 . S
C1391 H1376 0.959 . S
C1391 H1377 0.961 . S
C1391 C1390 1.502 . S
C1392 H1378 0.960 . S
C1392 H1379 0.961 . S
C1392 H1380 0.959 . S
C1392 C1390 1.561 . S
C1393 C1390 1.526 . S
C1393 C1394 1.396 . S
C1393 C1398 1.390 . S
C1394 C1388 1.465 . S
C1394 C1393 1.396 . S
C1394 C1395 1.399 . S
C1395 H1381 0.929 . S
C1395 C1394 1.399 . S
C1395 C1396 1.385 . S
C1396 H1382 0.931 . S
C1396 C1395 1.385 . S
C1396 C1397 1.389 . S
C1397 C1396 1.389 . S
C1397 C1398 1.387 . S
C1398 H1383 0.930 . S
C1398 C1393 1.390 . S
C1398 C1397 1.387 . S
H1399 C1411 0.930 . S
H1400 C1413 0.930 . S
H1401 C1414 0.930 . S
H1402 C1418 0.959 . S
H1403 C1418 0.959 . S
H1404 C1418 0.961 . S
H1405 C1419 0.960 . S
H1406 C1419 0.961 . S
H1407 C1419 0.959 . S
H1408 C1422 0.929 . S
H1409 C1423 0.931 . S
H1410 C1425 0.930 . S
C1411 H1399 0.930 . S
C1411 C1412 1.399 . S
C1411 C1416 1.399 . S
C1412 C1411 1.399 . S
C1412 C1413 1.376 . S
C1413 H1400 0.930 . S
C1413 C1412 1.376 . S
C1413 C1414 1.388 . S
C1414 H1401 0.930 . S
C1414 C1413 1.388 . S
C1414 C1415 1.390 . S
C1415 C1414 1.390 . S
C1415 C1416 1.394 . S
C1415 C1421 1.465 . S
C1416 C1411 1.399 . S
C1416 C1415 1.394 . S
C1416 C1417 1.516 . S
C1417 C1416 1.516 . S
C1417 C1418 1.502 . S
C1417 C1419 1.561 . S
C1417 C1420 1.526 . S
C1418 H1402 0.959 . S
C1418 H1403 0.959 . S
C1418 H1404 0.961 . S
C1418 C1417 1.502 . S
C1419 H1405 0.960 . S
C1419 H1406 0.961 . S
C1419 H1407 0.959 . S
C1419 C1417 1.561 . S
C1420 C1417 1.526 . S
C1420 C1421 1.396 . S
C1420 C1425 1.390 . S
C1421 C1415 1.465 . S
C1421 C1420 1.396 . S
C1421 C1422 1.399 . S
C1422 H1408 0.929 . S
C1422 C1421 1.399 . S
C1422 C1423 1.385 . S
C1423 H1409 0.931 . S
C1423 C1422 1.385 . S
C1423 C1424 1.389 . S
C1424 C1423 1.389 . S
C1424 C1425 1.387 . S
C1425 H1410 0.930 . S
C1425 C1420 1.390 . S
C1425 C1424 1.387 . S
H1426 C1438 0.930 . S
H1427 C1440 0.930 . S
H1428 C1441 0.930 . S
H1429 C1445 0.959 . S
H1430 C1445 0.959 . S
H1431 C1445 0.961 . S
H1432 C1446 0.960 . S
H1433 C1446 0.961 . S
H1434 C1446 0.959 . S
H1435 C1449 0.929 . S
H1436 C1450 0.931 . S
H1437 C1452 0.930 . S
C1438 H1426 0.930 . S
C1438 C1439 1.399 . S
C1438 C1443 1.399 . S
C1439 C1438 1.399 . S
C1439 C1440 1.376 . S
C1440 H1427 0.930 . S
C1440 C1439 1.376 . S
C1440 C1441 1.388 . S
C1441 H1428 0.930 . S
C1441 C1440 1.388 . S
C1441 C1442 1.390 . S
C1442 C1441 1.390 . S
C1442 C1443 1.394 . S
C1442 C1448 1.465 . S
C1443 C1438 1.399 . S
C1443 C1442 1.394 . S
C1443 C1444 1.516 . S
C1444 C1443 1.516 . S
C1444 C1445 1.502 . S
C1444 C1446 1.561 . S
C1444 C1447 1.526 . S
C1445 H1429 0.959 . S
C1445 H1430 0.959 . S
C1445 H1431 0.961 . S
C1445 C1444 1.502 . S
C1446 H1432 0.960 . S
C1446 H1433 0.961 . S
C1446 H1434 0.959 . S
C1446 C1444 1.561 . S
C1447 C1444 1.526 . S
C1447 C1448 1.396 . S
C1447 C1452 1.390 . S
C1448 C1442 1.465 . S
C1448 C1447 1.396 . S
C1448 C1449 1.399 . S
C1449 H1435 0.929 . S
C1449 C1448 1.399 . S
C1449 C1450 1.385 . S
C1450 H1436 0.931 . S
C1450 C1449 1.385 . S
C1450 C1451 1.389 . S
C1451 C1450 1.389 . S
C1451 C1452 1.387 . S
C1452 H1437 0.930 . S
C1452 C1447 1.390 . S
C1452 C1451 1.387 . S
H1453 C1465 0.930 . S
H1454 C1467 0.930 . S
H1455 C1468 0.930 . S
H1456 C1472 0.959 . S
H1457 C1472 0.959 . S
H1458 C1472 0.961 . S
H1459 C1473 0.960 . S
H1460 C1473 0.961 . S
H1461 C1473 0.959 . S
H1462 C1476 0.929 . S
H1463 C1477 0.931 . S
H1464 C1479 0.930 . S
C1465 H1453 0.930 . S
C1465 C1466 1.399 . S
C1465 C1470 1.399 . S
C1466 C1465 1.399 . S
C1466 C1467 1.376 . S
C1467 H1454 0.930 . S
C1467 C1466 1.376 . S
C1467 C1468 1.388 . S
C1468 H1455 0.930 . S
C1468 C1467 1.388 . S
C1468 C1469 1.390 . S
C1469 C1468 1.390 . S
C1469 C1470 1.394 . S
C1469 C1475 1.465 . S
C1470 C1465 1.399 . S
C1470 C1469 1.394 . S
C1470 C1471 1.516 . S
C1471 C1470 1.516 . S
C1471 C1472 1.502 . S
C1471 C1473 1.561 . S
C1471 C1474 1.526 . S
C1472 H1456 0.959 . S
C1472 H1457 0.959 . S
C1472 H1458 0.961 . S
C1472 C1471 1.502 . S
C1473 H1459 0.960 . S
C1473 H1460 0.961 . S
C1473 H1461 0.959 . S
C1473 C1471 1.561 . S
C1474 C1471 1.526 . S
C1474 C1475 1.396 . S
C1474 C1479 1.390 . S
C1475 C1469 1.465 . S
C1475 C1474 1.396 . S
C1475 C1476 1.399 . S
C1476 H1462 0.929 . S
C1476 C1475 1.399 . S
C1476 C1477 1.385 . S
C1477 H1463 0.931 . S
C1477 C1476 1.385 . S
C1477 C1478 1.389 . S
C1478 C1477 1.389 . S
C1478 C1479 1.387 . S
C1479 H1464 0.930 . S
C1479 C1474 1.390 . S
C1479 C1478 1.387 . S
H1480 C1492 0.930 . S
H1481 C1494 0.930 . S
H1482 C1495 0.930 . S
H1483 C1499 0.959 . S
H1484 C1499 0.959 . S
H1485 C1499 0.961 . S
H1486 C1500 0.960 . S
H1487 C1500 0.961 . S
H1488 C1500 0.959 . S
H1489 C1503 0.929 . S
H1490 C1504 0.931 . S
H1491 C1506 0.930 . S
C1492 H1480 0.930 . S
C1492 C1493 1.399 . S
C1492 C1497 1.399 . S
C1493 C1492 1.399 . S
C1493 C1494 1.376 . S
C1494 H1481 0.930 . S
C1494 C1493 1.376 . S
C1494 C1495 1.388 . S
C1495 H1482 0.930 . S
C1495 C1494 1.388 . S
C1495 C1496 1.390 . S
C1496 C1495 1.390 . S
C1496 C1497 1.394 . S
C1496 C1502 1.465 . S
C1497 C1492 1.399 . S
C1497 C1496 1.394 . S
C1497 C1498 1.516 . S
C1498 C1497 1.516 . S
C1498 C1499 1.502 . S
C1498 C1500 1.561 . S
C1498 C1501 1.526 . S
C1499 H1483 0.959 . S
C1499 H1484 0.959 . S
C1499 H1485 0.961 . S
C1499 C1498 1.502 . S
C1500 H1486 0.960 . S
C1500 H1487 0.961 . S
C1500 H1488 0.959 . S
C1500 C1498 1.561 . S
C1501 C1498 1.526 . S
C1501 C1502 1.396 . S
C1501 C1506 1.390 . S
C1502 C1496 1.465 . S
C1502 C1501 1.396 . S
C1502 C1503 1.399 . S
C1503 H1489 0.929 . S
C1503 C1502 1.399 . S
C1503 C1504 1.385 . S
C1504 H1490 0.931 . S
C1504 C1503 1.385 . S
C1504 C1505 1.389 . S
C1505 C1504 1.389 . S
C1505 C1506 1.387 . S
C1506 H1491 0.930 . S
C1506 C1501 1.390 . S
C1506 C1505 1.387 . S
H1507 C1519 0.930 . S
H1508 C1521 0.930 . S
H1509 C1522 0.930 . S
H1510 C1526 0.959 . S
H1511 C1526 0.959 . S
H1512 C1526 0.961 . S
H1513 C1527 0.960 . S
H1514 C1527 0.961 . S
H1515 C1527 0.959 . S
H1516 C1530 0.929 . S
H1517 C1531 0.931 . S
H1518 C1533 0.930 . S
C1519 H1507 0.930 . S
C1519 C1520 1.399 . S
C1519 C1524 1.399 . S
C1520 C1519 1.399 . S
C1520 C1521 1.376 . S
C1521 H1508 0.930 . S
C1521 C1520 1.376 . S
C1521 C1522 1.388 . S
C1522 H1509 0.930 . S
C1522 C1521 1.388 . S
C1522 C1523 1.390 . S
C1523 C1522 1.390 . S
C1523 C1524 1.394 . S
C1523 C1529 1.465 . S
C1524 C1519 1.399 . S
C1524 C1523 1.394 . S
C1524 C1525 1.516 . S
C1525 C1524 1.516 . S
C1525 C1526 1.502 . S
C1525 C1527 1.561 . S
C1525 C1528 1.526 . S
C1526 H1510 0.959 . S
C1526 H1511 0.959 . S
C1526 H1512 0.961 . S
C1526 C1525 1.502 . S
C1527 H1513 0.960 . S
C1527 H1514 0.961 . S
C1527 H1515 0.959 . S
C1527 C1525 1.561 . S
C1528 C1525 1.526 . S
C1528 C1529 1.396 . S
C1528 C1533 1.390 . S
C1529 C1523 1.465 . S
C1529 C1528 1.396 . S
C1529 C1530 1.399 . S
C1530 H1516 0.929 . S
C1530 C1529 1.399 . S
C1530 C1531 1.385 . S
C1531 H1517 0.931 . S
C1531 C1530 1.385 . S
C1531 C1532 1.389 . S
C1532 C1531 1.389 . S
C1532 C1533 1.387 . S
C1533 H1518 0.930 . S
C1533 C1528 1.390 . S
C1533 C1532 1.387 . S
H1534 C1546 0.930 . S
H1535 C1548 0.930 . S
H1536 C1549 0.930 . S
H1537 C1553 0.959 . S
H1538 C1553 0.959 . S
H1539 C1553 0.961 . S
H1540 C1554 0.960 . S
H1541 C1554 0.961 . S
H1542 C1554 0.959 . S
H1543 C1557 0.929 . S
H1544 C1558 0.931 . S
H1545 C1560 0.930 . S
C1546 H1534 0.930 . S
C1546 C1547 1.399 . S
C1546 C1551 1.399 . S
C1547 C1546 1.399 . S
C1547 C1548 1.376 . S
C1548 H1535 0.930 . S
C1548 C1547 1.376 . S
C1548 C1549 1.388 . S
C1549 H1536 0.930 . S
C1549 C1548 1.388 . S
C1549 C1550 1.390 . S
C1550 C1549 1.390 . S
C1550 C1551 1.394 . S
C1550 C1556 1.465 . S
C1551 C1546 1.399 . S
C1551 C1550 1.394 . S
C1551 C1552 1.516 . S
C1552 C1551 1.516 . S
C1552 C1553 1.502 . S
C1552 C1554 1.561 . S
C1552 C1555 1.526 . S
C1553 H1537 0.959 . S
C1553 H1538 0.959 . S
C1553 H1539 0.961 . S
C1553 C1552 1.502 . S
C1554 H1540 0.960 . S
C1554 H1541 0.961 . S
C1554 H1542 0.959 . S
C1554 C1552 1.561 . S
C1555 C1552 1.526 . S
C1555 C1556 1.396 . S
C1555 C1560 1.390 . S
C1556 C1550 1.465 . S
C1556 C1555 1.396 . S
C1556 C1557 1.399 . S
C1557 H1543 0.929 . S
C1557 C1556 1.399 . S
C1557 C1558 1.385 . S
C1558 H1544 0.931 . S
C1558 C1557 1.385 . S
C1558 C1559 1.389 . S
C1559 C1558 1.389 . S
C1559 C1560 1.387 . S
C1560 H1545 0.930 . S
C1560 C1555 1.390 . S
C1560 C1559 1.387 . S
H1561 C1573 0.930 . S
H1562 C1575 0.930 . S
H1563 C1576 0.930 . S
H1564 C1580 0.959 . S
H1565 C1580 0.959 . S
H1566 C1580 0.961 . S
H1567 C1581 0.960 . S
H1568 C1581 0.961 . S
H1569 C1581 0.959 . S
H1570 C1584 0.929 . S
H1571 C1585 0.931 . S
H1572 C1587 0.930 . S
C1573 H1561 0.930 . S
C1573 C1574 1.399 . S
C1573 C1578 1.399 . S
C1574 C1573 1.399 . S
C1574 C1575 1.376 . S
C1575 H1562 0.930 . S
C1575 C1574 1.376 . S
C1575 C1576 1.388 . S
C1576 H1563 0.930 . S
C1576 C1575 1.388 . S
C1576 C1577 1.390 . S
C1577 C1576 1.390 . S
C1577 C1578 1.394 . S
C1577 C1583 1.465 . S
C1578 C1573 1.399 . S
C1578 C1577 1.394 . S
C1578 C1579 1.516 . S
C1579 C1578 1.516 . S
C1579 C1580 1.502 . S
C1579 C1581 1.561 . S
C1579 C1582 1.526 . S
C1580 H1564 0.959 . S
C1580 H1565 0.959 . S
C1580 H1566 0.961 . S
C1580 C1579 1.502 . S
C1581 H1567 0.960 . S
C1581 H1568 0.961 . S
C1581 H1569 0.959 . S
C1581 C1579 1.561 . S
C1582 C1579 1.526 . S
C1582 C1583 1.396 . S
C1582 C1587 1.390 . S
C1583 C1577 1.465 . S
C1583 C1582 1.396 . S
C1583 C1584 1.399 . S
C1584 H1570 0.929 . S
C1584 C1583 1.399 . S
C1584 C1585 1.385 . S
C1585 H1571 0.931 . S
C1585 C1584 1.385 . S
C1585 C1586 1.389 . S
C1586 C1585 1.389 . S
C1586 C1587 1.387 . S
C1587 H1572 0.930 . S
C1587 C1582 1.390 . S
C1587 C1586 1.387 . S
H1588 C1600 0.930 . S
H1589 C1602 0.930 . S
H1590 C1603 0.930 . S
H1591 C1607 0.959 . S
H1592 C1607 0.959 . S
H1593 C1607 0.961 . S
H1594 C1608 0.960 . S
H1595 C1608 0.961 . S
H1596 C1608 0.959 . S
H1597 C1611 0.929 . S
H1598 C1612 0.931 . S
H1599 C1614 0.930 . S
C1600 H1588 0.930 . S
C1600 C1601 1.399 . S
C1600 C1605 1.399 . S
C1601 C1600 1.399 . S
C1601 C1602 1.376 . S
C1602 H1589 0.930 . S
C1602 C1601 1.376 . S
C1602 C1603 1.388 . S
C1603 H1590 0.930 . S
C1603 C1602 1.388 . S
C1603 C1604 1.390 . S
C1604 C1603 1.390 . S
C1604 C1605 1.394 . S
C1604 C1610 1.465 . S
C1605 C1600 1.399 . S
C1605 C1604 1.394 . S
C1605 C1606 1.516 . S
C1606 C1605 1.516 . S
C1606 C1607 1.502 . S
C1606 C1608 1.561 . S
C1606 C1609 1.526 . S
C1607 H1591 0.959 . S
C1607 H1592 0.959 . S
C1607 H1593 0.961 . S
C1607 C1606 1.502 . S
C1608 H1594 0.960 . S
C1608 H1595 0.961 . S
C1608 H1596 0.959 . S
C1608 C1606 1.561 . S
C1609 C1606 1.526 . S
C1609 C1610 1.396 . S
C1609 C1614 1.390 . S
C1610 C1604 1.465 . S
C1610 C1609 1.396 . S
C1610 C1611 1.399 . S
C1611 H1597 0.929 . S
C1611 C1610 1.399 . S
C1611 C1612 1.385 . S
C1612 H1598 0.931 . S
C1612 C1611 1.385 . S
C1612 C1613 1.389 . S
C1613 C1612 1.389 . S
C1613 C1614 1.387 . S
C1614 H1599 0.930 . S
C1614 C1609 1.390 . S
C1614 C1613 1.387 . S
H1615 C1627 0.930 . S
H1616 C1629 0.930 . S
H1617 C1630 0.930 . S
H1618 C1634 0.959 . S
H1619 C1634 0.959 . S
H1620 C1634 0.961 . S
H1621 C1635 0.960 . S
H1622 C1635 0.961 . S
H1623 C1635 0.959 . S
H1624 C1638 0.929 . S
H1625 C1639 0.931 . S
H1626 C1641 0.930 . S
C1627 H1615 0.930 . S
C1627 C1628 1.399 . S
C1627 C1632 1.399 . S
C1628 C1627 1.399 . S
C1628 C1629 1.376 . S
C1629 H1616 0.930 . S
C1629 C1628 1.376 . S
C1629 C1630 1.388 . S
C1630 H1617 0.930 . S
C1630 C1629 1.388 . S
C1630 C1631 1.390 . S
C1631 C1630 1.390 . S
C1631 C1632 1.394 . S
C1631 C1637 1.465 . S
C1632 C1627 1.399 . S
C1632 C1631 1.394 . S
C1632 C1633 1.516 . S
C1633 C1632 1.516 . S
C1633 C1634 1.502 . S
C1633 C1635 1.561 . S
C1633 C1636 1.526 . S
C1634 H1618 0.959 . S
C1634 H1619 0.959 . S
C1634 H1620 0.961 . S
C1634 C1633 1.502 . S
C1635 H1621 0.960 . S
C1635 H1622 0.961 . S
C1635 H1623 0.959 . S
C1635 C1633 1.561 . S
C1636 C1633 1.526 . S
C1636 C1637 1.396 . S
C1636 C1641 1.390 . S
C1637 C1631 1.465 . S
C1637 C1636 1.396 . S
C1637 C1638 1.399 . S
C1638 H1624 0.929 . S
C1638 C1637 1.399 . S
C1638 C1639 1.385 . S
C1639 H1625 0.931 . S
C1639 C1638 1.385 . S
C1639 C1640 1.389 . S
C1640 C1639 1.389 . S
C1640 C1641 1.387 . S
C1641 H1626 0.930 . S
C1641 C1636 1.390 . S
C1641 C1640 1.387 . S
C371 C171 2.153 . S
C359 C19 2.136 . S
C398 C161 1.635 . S
C386 C24 1.589 . S
C425 C162 1.047 . S
C413 C59 1.042 . S
C440 C69 1.408 . S
C452 C184 1.435 . S
C467 C82 1.532 . S
C479 C187 1.607 . S
C506 C170 0.963 . S
C494 C118 0.983 . S
C521 C132 1.426 . S
C533 C160 1.434 . S
C548 C158 2.139 . S
C560 C178 2.124 . S
C587 C191 1.684 . S
C575 C4 1.650 . S
C602 C29 0.921 . S
C614 C240 0.952 . S
C641 C218 1.677 . S
C629 C44 1.510 . S
C668 C232 0.961 . S
C656 C79 0.988 . S
C683 C98 1.050 . S
C695 C193 1.045 . S
C722 C246 1.397 . S
C710 C112 1.395 . S
C737 C122 1.167 . S
C749 C202 1.267 . S
C764 C152 1.291 . S
C776 C223 1.413 . S
C791 C9 1.361 . S
C803 C249 1.340 . S
C818 C92 0.969 . S
C830 C233 0.906 . S
C857 C192 1.666 . S
C845 C102 1.566 . S
C884 C224 1.043 . S
C872 C138 0.966 . S
C899 C142 1.599 . S
C911 C215 1.743 . S
C926 C49 1.363 . S
C938 C222 1.401 . S
C965 C209 1.205 . S
C953 C64 1.263 . S
C980 C39 1.051 . S
C992 C201 1.051 . S
C1007 C159 2.130 . S
C1019 C264 2.157 . S
C1034 C84 1.534 . S
C1046 C254 1.605 . S
C1073 C255 0.965 . S
C1061 C119 0.979 . S
C1100 C277 1.364 . S
C1088 C129 1.354 . S
C1115 C22 1.532 . S
C1127 C280 1.606 . S
C1154 C263 1.056 . S
C1142 C58 1.053 . S
C1169 C72 1.399 . S
C1181 C253 1.413 . S
C1196 C18 2.150 . S
C1208 C271 2.141 . S
C1223 C144 1.616 . S
C1235 C284 1.693 . S
C1262 C333 0.950 . S
C1250 C89 0.922 . S
C1277 C104 1.609 . S
C1289 C311 1.616 . S
C1304 C139 1.000 . S
C1316 C325 0.947 . S
C1343 C286 0.940 . S
C1331 C38 0.965 . S
C1358 C52 1.362 . S
C1370 C339 1.428 . S
C1397 C295 1.262 . S
C1385 C62 1.143 . S
C1424 C316 1.417 . S
C1412 C12 1.294 . S
C1451 C342 1.345 . S
C1439 C149 1.383 . S
C1466 C32 0.974 . S
C1478 C326 1.017 . S
C1493 C42 1.533 . S
C1505 C285 1.634 . S
C1532 C317 0.925 . S
C1520 C78 1.053 . S
C1547 C2 1.636 . S
C1559 C308 1.738 . S
C1574 C109 1.437 . S
C1586 C315 1.386 . S
C1613 C302 1.223 . S
C1601 C124 1.150 . S
C1640 C294 1.044 . S
C1628 C99 1.049 . S
