# Generated by pormake.
# Topology soc, (4,6)-cn, num edge types: 1
# Building blocks:
#     Node 0, Type 0, BuildingBlock: ESEHIV_clean_sbu_0, # of connection points: 4
#     Node 1, Type 0, BuildingBlock: ESEHIV_clean_sbu_0, # of connection points: 4
#     Node 2, Type 0, BuildingBlock: ESEHIV_clean_sbu_0, # of connection points: 4
#     Node 3, Type 0, BuildingBlock: ESEHIV_clean_sbu_0, # of connection points: 4
#     Node 4, Type 0, BuildingBlock: ESEHIV_clean_sbu_0, # of connection points: 4
#     Node 5, Type 0, BuildingBlock: ESEHIV_clean_sbu_0, # of connection points: 4
#     Node 6, Type 0, BuildingBlock: ESEHIV_clean_sbu_0, # of connection points: 4
#     Node 7, Type 0, BuildingBlock: ESEHIV_clean_sbu_0, # of connection points: 4
#     Node 8, Type 0, BuildingBlock: ESEHIV_clean_sbu_0, # of connection points: 4
#     Node 9, Type 0, BuildingBlock: ESEHIV_clean_sbu_0, # of connection points: 4
#     Node 10, Type 0, BuildingBlock: ESEHIV_clean_sbu_0, # of connection points: 4
#     Node 11, Type 0, BuildingBlock: ESEHIV_clean_sbu_0, # of connection points: 4
#     Node 12, Type 1, BuildingBlock: BETFAJ_clean_sbu_0, # of connection points: 6
#     Node 13, Type 1, BuildingBlock: BETFAJ_clean_sbu_0, # of connection points: 6
#     Node 14, Type 1, BuildingBlock: BETFAJ_clean_sbu_0, # of connection points: 6
#     Node 15, Type 1, BuildingBlock: BETFAJ_clean_sbu_0, # of connection points: 6
#     Node 16, Type 1, BuildingBlock: BETFAJ_clean_sbu_0, # of connection points: 6
#     Node 17, Type 1, BuildingBlock: BETFAJ_clean_sbu_0, # of connection points: 6
#     Node 18, Type 1, BuildingBlock: BETFAJ_clean_sbu_0, # of connection points: 6
#     Node 19, Type 1, BuildingBlock: BETFAJ_clean_sbu_0, # of connection points: 6
#     Edge 20, Type (0, 1), BuildingBlock: XIVTED_clean_linker_0, # of connection points: 2
#     Edge 21, Type (0, 1), BuildingBlock: XIVTED_clean_linker_0, # of connection points: 2
#     Edge 22, Type (0, 1), BuildingBlock: XIVTED_clean_linker_0, # of connection points: 2
#     Edge 23, Type (0, 1), BuildingBlock: XIVTED_clean_linker_0, # of connection points: 2
#     Edge 24, Type (0, 1), BuildingBlock: XIVTED_clean_linker_0, # of connection points: 2
#     Edge 25, Type (0, 1), BuildingBlock: XIVTED_clean_linker_0, # of connection points: 2
#     Edge 26, Type (0, 1), BuildingBlock: XIVTED_clean_linker_0, # of connection points: 2
#     Edge 27, Type (0, 1), BuildingBlock: XIVTED_clean_linker_0, # of connection points: 2
#     Edge 28, Type (0, 1), BuildingBlock: XIVTED_clean_linker_0, # of connection points: 2
#     Edge 29, Type (0, 1), BuildingBlock: XIVTED_clean_linker_0, # of connection points: 2
#     Edge 30, Type (0, 1), BuildingBlock: XIVTED_clean_linker_0, # of connection points: 2
#     Edge 31, Type (0, 1), BuildingBlock: XIVTED_clean_linker_0, # of connection points: 2
#     Edge 32, Type (0, 1), BuildingBlock: XIVTED_clean_linker_0, # of connection points: 2
#     Edge 33, Type (0, 1), BuildingBlock: XIVTED_clean_linker_0, # of connection points: 2
#     Edge 34, Type (0, 1), BuildingBlock: XIVTED_clean_linker_0, # of connection points: 2
#     Edge 35, Type (0, 1), BuildingBlock: XIVTED_clean_linker_0, # of connection points: 2
#     Edge 36, Type (0, 1), BuildingBlock: XIVTED_clean_linker_0, # of connection points: 2
#     Edge 37, Type (0, 1), BuildingBlock: XIVTED_clean_linker_0, # of connection points: 2
#     Edge 38, Type (0, 1), BuildingBlock: XIVTED_clean_linker_0, # of connection points: 2
#     Edge 39, Type (0, 1), BuildingBlock: XIVTED_clean_linker_0, # of connection points: 2
#     Edge 40, Type (0, 1), BuildingBlock: XIVTED_clean_linker_0, # of connection points: 2
#     Edge 41, Type (0, 1), BuildingBlock: XIVTED_clean_linker_0, # of connection points: 2
#     Edge 42, Type (0, 1), BuildingBlock: XIVTED_clean_linker_0, # of connection points: 2
#     Edge 43, Type (0, 1), BuildingBlock: XIVTED_clean_linker_0, # of connection points: 2
#     Edge 44, Type (0, 1), BuildingBlock: XIVTED_clean_linker_0, # of connection points: 2
#     Edge 45, Type (0, 1), BuildingBlock: XIVTED_clean_linker_0, # of connection points: 2
#     Edge 46, Type (0, 1), BuildingBlock: XIVTED_clean_linker_0, # of connection points: 2
#     Edge 47, Type (0, 1), BuildingBlock: XIVTED_clean_linker_0, # of connection points: 2
#     Edge 48, Type (0, 1), BuildingBlock: XIVTED_clean_linker_0, # of connection points: 2
#     Edge 49, Type (0, 1), BuildingBlock: XIVTED_clean_linker_0, # of connection points: 2
#     Edge 50, Type (0, 1), BuildingBlock: XIVTED_clean_linker_0, # of connection points: 2
#     Edge 51, Type (0, 1), BuildingBlock: XIVTED_clean_linker_0, # of connection points: 2
#     Edge 52, Type (0, 1), BuildingBlock: XIVTED_clean_linker_0, # of connection points: 2
#     Edge 53, Type (0, 1), BuildingBlock: XIVTED_clean_linker_0, # of connection points: 2
#     Edge 54, Type (0, 1), BuildingBlock: XIVTED_clean_linker_0, # of connection points: 2
#     Edge 55, Type (0, 1), BuildingBlock: XIVTED_clean_linker_0, # of connection points: 2
#     Edge 56, Type (0, 1), BuildingBlock: XIVTED_clean_linker_0, # of connection points: 2
#     Edge 57, Type (0, 1), BuildingBlock: XIVTED_clean_linker_0, # of connection points: 2
#     Edge 58, Type (0, 1), BuildingBlock: XIVTED_clean_linker_0, # of connection points: 2
#     Edge 59, Type (0, 1), BuildingBlock: XIVTED_clean_linker_0, # of connection points: 2
#     Edge 60, Type (0, 1), BuildingBlock: XIVTED_clean_linker_0, # of connection points: 2
#     Edge 61, Type (0, 1), BuildingBlock: XIVTED_clean_linker_0, # of connection points: 2
#     Edge 62, Type (0, 1), BuildingBlock: XIVTED_clean_linker_0, # of connection points: 2
#     Edge 63, Type (0, 1), BuildingBlock: XIVTED_clean_linker_0, # of connection points: 2
#     Edge 64, Type (0, 1), BuildingBlock: XIVTED_clean_linker_0, # of connection points: 2
#     Edge 65, Type (0, 1), BuildingBlock: XIVTED_clean_linker_0, # of connection points: 2
#     Edge 66, Type (0, 1), BuildingBlock: XIVTED_clean_linker_0, # of connection points: 2
#     Edge 67, Type (0, 1), BuildingBlock: XIVTED_clean_linker_0, # of connection points: 2
# Relax obj value: 0.187
# Max RMSD: 0.284
# Mean RMSD: 0.175
data_MOF--net-soc--node1-ESEHIV_clean_sbu_0--node2-BETFAJ_clean_sbu_0--edge1-XIVTED_clean_linker_0
_symmetry_space_group_name_H-M    P1
_symmetry_Int_Tables_number       1
_symmetry_cell_setting            triclinic
loop_
_symmetry_equiv_pos_as_xyz
'x, y, z'
_cell_length_a     51.763226
_cell_length_b     50.343457
_cell_length_c     43.949972
_cell_angle_alpha  81.939611
_cell_angle_beta   82.914215
_cell_angle_gamma 69.758174
loop_
_atom_site_label
_atom_site_type_symbol
_atom_site_fract_x
_atom_site_fract_y
_atom_site_fract_z
_atom_type_partial_charge
Cu0 Cu 0.04157 0.03093 0.38099 0.0
N1 N 0.05666 0.04467 0.4086 0.0
N2 N 0.08039 0.0696 0.42285 0.0
C3 C 0.07726 0.05532 0.40063 0.0
C4 C 0.06097 0.06779 0.44579 0.0
C5 C 0.04627 0.05236 0.43686 0.0
O6 O 0.07242 0.009 0.35468 0.0
C7 C 1.00064 0.06794 0.33951 0.0
O8 O 1.00517 0.04698 0.32263 0.0
H9 H 0.08812 0.05464 0.37791 0.0
H10 H 0.0282 0.04864 0.44915 0.0
N11 N 0.02239 0.00795 0.40186 0.0
N12 N 0.99387 0.98275 0.40874 0.0
C13 C 1.00188 1.00281 0.39055 0.0
C14 C 0.02735 0.99094 0.42849 0.0
C15 C 1.0096 0.97537 0.43289 0.0
C16 C 0.07554 0.98383 0.34922 0.0
O17 O 0.05505 0.97385 0.35662 0.0
H18 H 0.9937 0.01289 0.36879 0.0
H19 H 0.04343 0.98919 0.44297 0.0
O20 O 1.01513 0.06465 0.36195 0.0
H21 H 0.05688 0.07793 0.46684 0.0
H22 H 1.00924 0.95897 0.45155 0.0
Cu23 Cu 0.04367 0.05328 0.74587 0.0
N24 N 0.0314 0.03119 0.72428 0.0
N25 N 1.01085 1.00106 0.71527 0.0
C26 C 1.01439 0.01662 0.73604 0.0
C27 C 0.02626 1.00611 0.68946 0.0
C28 C 0.03892 0.02471 0.6951 0.0
O29 O 1.0118 0.08072 0.76607 0.0
C30 C 0.09299 0.01213 0.75637 0.0
O31 O 0.09447 0.01686 0.72615 0.0
H32 H 1.00553 0.01677 0.75967 0.0
H33 H 0.05306 0.03249 0.67928 0.0
N34 N 0.06161 0.07465 0.71914 0.0
N35 N 0.09233 0.09645 0.70264 0.0
C36 C 0.08389 0.07998 0.72569 0.0
C37 C 0.05554 0.08846 0.69101 0.0
C38 C 0.07446 0.10213 0.6808 0.0
C39 C 0.99315 0.09417 0.74774 0.0
O40 O 0.99687 0.08732 0.71939 0.0
H41 H 0.09346 0.07227 0.74723 0.0
H42 H 0.03856 0.08868 0.6788 0.0
O43 O 0.07121 0.02629 0.77181 0.0
H44 H 0.02833 0.99696 0.66805 0.0
H45 H 0.07519 0.115 0.65902 0.0
Cu46 Cu 0.3497 0.0497 0.08978 0.0
N47 N 0.37826 0.02426 0.06763 0.0
N48 N 0.39947 0.98635 0.04199 0.0
C49 C 0.37848 0.99855 0.06239 0.0
C50 C 0.41307 1.00516 0.03408 0.0
C51 C 0.39994 0.02858 0.05006 0.0
O52 O 0.32993 0.02648 0.1159 0.0
C53 C 0.33115 0.0787 0.03154 0.0
O54 O 0.34206 0.05334 0.02185 0.0
H55 H 0.36222 0.99001 0.07149 0.0
H56 H 0.40484 0.04802 0.0477 0.0
N57 N 0.36468 0.06623 0.11527 0.0
N58 N 0.36769 0.09453 0.14851 0.0
C59 C 0.35059 0.08645 0.1339 0.0
C60 C 0.39155 0.06127 0.11823 0.0
C61 C 0.39348 0.07874 0.13868 0.0
C62 C 0.34505 0.0083 0.13541 0.0
O63 O 0.37033 0.00825 0.13644 0.0
H64 H 0.32827 0.0954 0.13617 0.0
H65 H 0.40857 0.04599 0.10642 0.0
O66 O 0.32946 0.08095 0.06036 0.0
H67 H 0.43044 1.00274 0.01697 0.0
H68 H 0.4124 0.0795 0.14599 0.0
Cu69 Cu 0.07518 0.30486 0.10998 0.0
N70 N 0.08873 0.32814 0.08079 0.0
N71 N 0.113 0.33908 0.03831 0.0
C72 C 0.103 0.31937 0.05433 0.0
C73 C 0.1043 0.36135 0.05541 0.0
C74 C 0.08928 0.35451 0.08168 0.0
O75 O 0.1026 0.28803 0.14101 0.0
C76 C 0.04825 0.26723 0.09256 0.0
O77 O 0.04144 0.26154 0.12193 0.0
H78 H 0.10721 0.29818 0.048 0.0
H79 H 0.08014 0.36744 0.10045 0.0
N80 N 0.04343 0.3269 0.13116 0.0
N81 N 1.00177 0.33731 0.15684 0.0
C82 C 1.01801 0.32499 0.13272 0.0
C83 C 0.043 0.34191 0.1543 0.0
C84 C 1.01733 0.3484 0.17019 0.0
C85 C 0.12817 0.2847 0.13439 0.0
O86 O 0.13726 0.28709 0.10525 0.0
H87 H 1.01196 0.31355 0.11749 0.0
H88 H 0.06084 0.34566 0.16078 0.0
O89 O 0.06495 0.28108 0.0849 0.0
H90 H 0.10877 0.381 0.0497 0.0
H91 H 1.01151 0.35831 0.19146 0.0
Cu92 Cu 0.78959 1.00512 0.01882 0.0
N93 N 0.81263 0.02011 0.99175 0.0
N94 N 0.82311 0.05452 0.96077 0.0
C95 C 0.8088 0.0481 0.98672 0.0
C96 C 0.83665 0.02956 0.94901 0.0
C97 C 0.83018 0.00825 0.96832 0.0
O98 O 0.76902 0.03506 0.04518 0.0
C99 C 0.78016 0.9666 0.98587 0.0
O100 O 0.80445 0.95103 0.99525 0.0
H101 H 0.79366 0.06382 1.00006 0.0
H102 H 0.83602 0.98616 0.96424 0.0
N103 N 0.80898 0.97431 0.0451 0.0
N104 N 0.81474 0.94022 0.08423 0.0
C105 C 0.79657 0.95974 0.06617 0.0
C106 C 0.83605 0.96357 0.04971 0.0
C107 C 0.83966 0.9425 0.07416 0.0
C108 C 0.78432 0.03938 0.06327 0.0
O109 O 0.8107 0.02423 0.06215 0.0
H110 H 0.77445 0.9641 0.06886 0.0
H111 H 0.85181 0.97113 0.03687 0.0
O112 O 0.76866 0.99177 0.99381 0.0
H113 H 0.84898 0.02717 0.92716 0.0
H114 H 0.85895 0.92997 0.08389 0.0
Cu115 Cu 0.02804 0.75131 0.01991 0.0
N116 N 1.01282 0.73496 0.99463 0.0
N117 N 0.98501 0.73022 0.96221 0.0
C118 C 0.99018 0.74808 0.97903 0.0
C119 C 1.00531 0.70497 0.96757 0.0
C120 C 0.02239 0.70798 0.98752 0.0
O121 O 0.99652 0.77195 0.0478 0.0
C122 C 0.06736 0.78245 0.99757 0.0
O123 O 0.06383 0.79169 0.02481 0.0
H124 H 0.97774 0.77021 0.98026 0.0
H125 H 0.04066 0.69174 0.99604 0.0
N126 N 0.05141 0.72259 0.04512 0.0
N127 N 0.08417 0.70472 0.07811 0.0
C128 C 0.07519 0.72337 0.05343 0.0
C129 C 0.04529 0.70219 0.06478 0.0
C130 C 0.0655 0.69114 0.08531 0.0
C131 C 0.99843 0.7727 0.07641 0.0
O132 O 0.02302 0.7659 0.08641 0.0
H133 H 0.08422 0.73934 0.04372 0.0
H134 H 0.02629 0.69751 0.06581 0.0
O135 O 0.05216 0.76884 0.99156 0.0
H136 H 1.00804 0.68572 0.95741 0.0
H137 H 0.06545 0.67575 0.10514 0.0
Cu138 Cu 0.53535 0.53122 0.88428 0.0
N139 N 0.55469 0.54664 0.90589 0.0
N140 N 0.5793 0.57312 0.91469 0.0
C141 C 0.5679 0.56485 0.89336 0.0
C142 C 0.57238 0.56022 0.94191 0.0
C143 C 0.55708 0.54401 0.93643 0.0
O144 O 0.56163 0.50337 0.85881 0.0
C145 C 0.4886 0.56616 0.84796 0.0
O146 O 0.48862 0.54351 0.83632 0.0
H147 H 0.56832 0.57272 0.86918 0.0
H148 H 0.54795 0.53169 0.95367 0.0
N149 N 0.51809 0.50957 0.91145 0.0
N150 N 0.49215 0.4818 0.92555 0.0
C151 C 0.49551 0.50396 0.90633 0.0
C152 C 0.5295 0.49025 0.93467 0.0
C153 C 0.51342 0.47328 0.94363 0.0
C154 C 0.58336 0.50597 0.8437 0.0
O155 O 0.58627 0.53112 0.83873 0.0
H156 H 0.48338 0.51403 0.88698 0.0
H157 H 0.54941 0.48697 0.94265 0.0
O158 O 0.50728 0.56418 0.8653 0.0
H159 H 0.5781 0.5622 0.96414 0.0
H160 H 0.51808 0.45497 0.96076 0.0
Cu161 Cu 0.55299 0.55228 0.24846 0.0
N162 N 0.53983 0.53087 0.22705 0.0
N163 N 0.51698 0.50248 0.21927 0.0
C164 C 0.52303 0.51647 0.23989 0.0
C165 C 0.53056 0.5084 0.19234 0.0
C166 C 0.54472 0.52592 0.19724 0.0
O167 O 0.52153 0.57928 0.26921 0.0
C168 C 0.60079 0.5103 0.25652 0.0
O169 O 0.5997 0.5151 0.22646 0.0
H170 H 0.51516 0.51666 0.26387 0.0
H171 H 0.55781 0.53423 0.18039 0.0
N172 N 0.57108 0.57375 0.22216 0.0
N173 N 0.60179 0.59587 0.20746 0.0
C174 C 0.59314 0.57887 0.22966 0.0
C175 C 0.56542 0.58813 0.19418 0.0
C176 C 0.58434 0.60202 0.18509 0.0
C177 C 0.50324 0.59294 0.25059 0.0
O178 O 0.5076 0.58683 0.22192 0.0
H179 H 0.60227 0.57077 0.25141 0.0
H180 H 0.54864 0.58872 0.18139 0.0
O181 O 0.58066 0.52489 0.27363 0.0
H182 H 0.53063 0.50033 0.17076 0.0
H183 H 0.58528 0.61545 0.16377 0.0
Cu184 Cu 0.81072 0.57529 0.5859 0.0
N185 N 0.78988 0.60368 0.55871 0.0
N186 N 0.78183 0.63538 0.51727 0.0
C187 C 0.80026 0.61228 0.53111 0.0
C188 C 0.75887 0.64153 0.53697 0.0
C189 C 0.7639 0.62177 0.5626 0.0
O190 O 0.82922 0.5938 0.60772 0.0
C191 C 0.84763 0.52065 0.56782 0.0
O192 O 0.85301 0.51252 0.59677 0.0
H193 H 0.82152 0.6028 0.5223 0.0
H194 H 0.75006 0.62134 0.58308 0.0
N195 N 0.78762 0.56077 0.61401 0.0
N196 N 0.77577 0.52864 0.64764 0.0
C197 C 0.78981 0.5332 0.62066 0.0
C198 C 0.7707 0.57429 0.63697 0.0
C199 C 0.76352 0.55445 0.65792 0.0
C200 C 0.83327 0.58695 0.63617 0.0
O201 O 0.83034 0.56306 0.6497 0.0
H202 H 0.80327 0.51639 0.60754 0.0
H203 H 0.76608 0.59652 0.63972 0.0
O204 O 0.83344 0.54636 0.55988 0.0
H205 H 0.74015 0.6595 0.53353 0.0
H206 H 0.7518 0.55839 0.67996 0.0
Cu207 Cu 0.57226 0.80101 0.59958 0.0
N208 N 0.60255 0.7799 0.57403 0.0
N209 N 0.63698 0.77266 0.53623 0.0
C210 C 0.61176 0.78995 0.54609 0.0
C211 C 0.64395 0.75094 0.55876 0.0
C212 C 0.62273 0.75538 0.58192 0.0
O213 O 0.58876 0.81687 0.62698 0.0
C214 C 0.54116 0.81629 0.55199 0.0
O215 O 0.55189 0.78849 0.55233 0.0
H216 H 0.60105 0.81047 0.53418 0.0
H217 H 0.62281 0.74248 0.60376 0.0
N218 N 0.55036 0.78081 0.62327 0.0
N219 N 0.51426 0.77341 0.6529 0.0
C220 C 0.52367 0.7925 0.6343 0.0
C221 C 0.55776 0.75326 0.6349 0.0
C222 C 0.53572 0.74876 0.65338 0.0
C223 C 0.60123 0.79955 0.64882 0.0
O224 O 0.60004 0.77368 0.65285 0.0
H225 H 0.51173 0.81482 0.62971 0.0
H226 H 0.57803 0.73769 0.63102 0.0
O227 O 0.54727 0.82851 0.57213 0.0
H228 H 0.66343 0.73355 0.5589 0.0
H229 H 0.53554 0.7289 0.66641 0.0
Cu230 Cu 0.28132 0.50494 0.52557 0.0
N231 N 0.30318 0.52135 0.49736 0.0
N232 N 0.31167 0.55584 0.46379 0.0
C233 C 0.2974 0.54969 0.49012 0.0
C234 C 0.32718 0.53034 0.45425 0.0
C235 C 0.32187 0.50915 0.47492 0.0
O236 O 0.26422 0.53261 0.55466 0.0
C237 C 0.24677 0.47705 0.50828 0.0
O238 O 0.2476 0.46492 0.53677 0.0
H239 H 0.28129 0.56551 0.50244 0.0
H240 H 0.32947 0.48663 0.47241 0.0
N241 N 0.30091 0.4706 0.54803 0.0
N242 N 0.30948 0.43427 0.58556 0.0
C243 C 0.29228 0.46042 0.57607 0.0
C244 C 0.32456 0.45035 0.53958 0.0
C245 C 0.32989 0.42796 0.56262 0.0
C246 C 0.28145 0.53379 0.57231 0.0
O247 O 0.30707 0.51642 0.56962 0.0
H248 H 0.2731 0.47157 0.58863 0.0
H249 H 0.33677 0.45147 0.51796 0.0
O250 O 0.25701 0.49687 0.50068 0.0
H251 H 0.34046 0.52725 0.43308 0.0
H252 H 0.34738 0.40845 0.56227 0.0
Cu253 Cu 0.5155 0.27104 0.52481 0.0
N254 N 0.54624 0.25209 0.4997 0.0
N255 N 0.58634 0.24467 0.47119 0.0
C256 C 0.56508 0.26367 0.48596 0.0
C257 C 0.58046 0.22022 0.47562 0.0
C258 C 0.55573 0.22484 0.49332 0.0
O259 O 0.52776 0.296 0.54612 0.0
C260 C 0.47816 0.26702 0.48846 0.0
O261 O 0.49277 0.24049 0.49691 0.0
H262 H 0.5633 0.28555 0.48723 0.0
H263 H 0.54578 0.20923 0.50154 0.0
N264 N 0.50675 0.24587 0.55612 0.0
N265 N 0.4848 0.23194 0.59869 0.0
C266 C 0.48357 0.25245 0.57517 0.0
C267 C 0.52307 0.2202 0.56786 0.0
C268 C 0.50957 0.21161 0.59432 0.0
C269 C 0.55007 0.28239 0.55925 0.0
O270 O 0.56145 0.25494 0.55726 0.0
H271 H 0.46692 0.27265 0.57291 0.0
H272 H 0.54388 0.20922 0.55884 0.0
O273 O 0.48404 0.28665 0.49869 0.0
H274 H 0.59347 0.20017 0.4675 0.0
H275 H 0.51759 0.1924 0.60969 0.0
Sm276 Sm 0.27229 0.27977 0.3469 0.0
Sm277 Sm 0.30321 0.31442 0.29515 0.0
C278 C 0.23803 0.25593 0.37865 0.0
C279 C 0.22227 0.23682 0.37705 0.0
C280 C 0.19368 0.24811 0.37437 0.0
C281 C 0.17801 0.2301 0.37728 0.0
C282 C 0.19064 0.20048 0.38308 0.0
C283 C 0.21939 0.18917 0.38468 0.0
C284 C 0.23505 0.20714 0.38172 0.0
C285 C 0.32032 0.2815 0.36785 0.0
C286 C 0.31269 0.24734 0.28987 0.0
C287 C 0.33751 0.33806 0.2632 0.0
C288 C 0.35444 0.35614 0.26371 0.0
C289 C 0.37787 0.34727 0.28057 0.0
C290 C 0.39532 0.36356 0.27735 0.0
C291 C 0.38957 0.38886 0.25721 0.0
C292 C 0.36546 0.39818 0.2415 0.0
C293 C 0.34816 0.38193 0.24463 0.0
C294 C 0.25721 0.3096 0.27223 0.0
C295 C 0.26321 0.34668 0.35307 0.0
O296 O 0.22954 0.28168 0.36403 0.0
O297 O 0.265 0.24434 0.37782 0.0
O298 O 0.31027 0.29245 0.34255 0.0
O299 O 0.30491 0.26777 0.38294 0.0
O300 O 0.29157 0.2484 0.31057 0.0
O301 O 0.32341 0.26809 0.2836 0.0
O302 O 0.34577 0.31197 0.27703 0.0
O303 O 0.31063 0.35064 0.26551 0.0
O304 O 0.26547 0.30106 0.29886 0.0
O305 O 0.27323 0.32264 0.25715 0.0
O306 O 0.28306 0.34642 0.33086 0.0
O307 O 0.25345 0.32534 0.36062 0.0
H308 H 0.18328 0.27091 0.37099 0.0
H309 H 0.15593 0.23939 0.37551 0.0
H310 H 0.22969 0.16647 0.38954 0.0
H311 H 0.25701 0.19772 0.38425 0.0
H312 H 0.38317 0.32744 0.29549 0.0
H313 H 0.41381 0.35579 0.28968 0.0
H314 H 0.36016 0.41787 0.22635 0.0
H315 H 0.3302 0.38917 0.2314 0.0
Sm316 Sm 0.80363 0.29922 0.33928 0.0
Sm317 Sm 0.78764 0.27837 0.28935 0.0
C318 C 0.82199 0.32688 0.37402 0.0
C319 C 0.81923 0.349 0.39426 0.0
C320 C 0.82589 0.3733 0.38179 0.0
C321 C 0.82848 0.39195 0.40098 0.0
C322 C 0.82449 0.38682 0.43321 0.0
C323 C 0.81683 0.36301 0.44566 0.0
C324 C 0.81434 0.34423 0.42639 0.0
C325 C 0.83154 0.2417 0.33588 0.0
C326 C 0.75285 0.27826 0.35673 0.0
C327 C 0.76979 0.25084 0.25403 0.0
C328 C 0.77357 0.23118 0.23077 0.0
C329 C 0.79471 0.20464 0.23148 0.0
C330 C 0.7949 0.18461 0.21225 0.0
C331 C 0.77387 0.1907 0.19216 0.0
C332 C 0.75347 0.21781 0.1907 0.0
C333 C 0.75337 0.23781 0.20981 0.0
C334 C 0.76111 0.33595 0.29224 0.0
C335 C 0.83682 0.30137 0.27125 0.0
O336 O 0.81839 0.33452 0.34478 0.0
O337 O 0.81518 0.30443 0.38481 0.0
O338 O 0.82712 0.26042 0.31317 0.0
O339 O 0.82113 0.25309 0.36115 0.0
O340 O 0.76189 0.29837 0.36233 0.0
O341 O 0.76351 0.26414 0.33257 0.0
O342 O 0.77854 0.24025 0.28125 0.0
O343 O 0.77121 0.27623 0.24536 0.0
O344 O 0.76439 0.31737 0.31508 0.0
O345 O 0.77189 0.32449 0.26706 0.0
O346 O 0.8287 0.28061 0.26567 0.0
O347 O 0.82593 0.31515 0.2956 0.0
H348 H 0.83038 0.37726 0.35717 0.0
H349 H 0.83485 0.40972 0.39048 0.0
H350 H 0.81319 0.35859 0.47034 0.0
H351 H 0.80952 0.3255 0.43674 0.0
H352 H 0.81053 0.19905 0.24752 0.0
H353 H 0.81125 0.16415 0.21355 0.0
H354 H 0.7368 0.2232 0.17584 0.0
H355 H 0.73671 0.25808 0.20917 0.0
Sm356 Sm 0.80353 0.75452 0.29119 0.0
Sm357 Sm 0.81151 0.81031 0.30721 0.0
C358 C 0.79871 0.70389 0.2907 0.0
C359 C 0.78104 0.69207 0.27725 0.0
C360 C 0.77606 0.66778 0.29248 0.0
C361 C 0.75857 0.65665 0.28077 0.0
C362 C 0.7458 0.6696 0.25346 0.0
C363 C 0.75094 0.69398 0.23815 0.0
C364 C 0.76836 0.70519 0.25002 0.0
C365 C 0.77821 0.8026 0.25339 0.0
C366 C 0.76372 0.78946 0.34836 0.0
C367 C 0.8172 0.86046 0.30764 0.0
C368 C 0.82762 0.87521 0.32708 0.0
C369 C 0.82384 0.90409 0.31898 0.0
C370 C 0.83814 0.91733 0.33302 0.0
C371 C 0.85662 0.90178 0.35522 0.0
C372 C 0.85881 0.87331 0.36492 0.0
C373 C 0.8444 0.86007 0.35086 0.0
C374 C 0.83478 0.76278 0.34653 0.0
C375 C 0.85089 0.77556 0.25077 0.0
O376 O 0.78665 0.72055 0.31226 0.0
O377 O 0.8158 0.71326 0.27154 0.0
O378 O 0.78092 0.80157 0.28164 0.0
O379 O 0.78468 0.77703 0.24571 0.0
O380 O 0.77309 0.766 0.33425 0.0
O381 O 0.77308 0.81107 0.34043 0.0
O382 O 0.83596 0.83902 0.29531 0.0
O383 O 0.79416 0.8556 0.31745 0.0
O384 O 0.83336 0.76316 0.318 0.0
O385 O 0.82944 0.78861 0.35293 0.0
O386 O 0.83786 0.80043 0.26136 0.0
O387 O 0.84466 0.75256 0.26237 0.0
H388 H 0.78546 0.65759 0.3137 0.0
H389 H 0.75462 0.63824 0.29352 0.0
H390 H 0.74162 0.70432 0.21695 0.0
H391 H 0.77183 0.72414 0.23804 0.0
H392 H 0.81095 0.91603 0.30066 0.0
H393 H 0.83571 0.93943 0.32548 0.0
H394 H 0.87299 0.86077 0.38185 0.0
H395 H 0.84757 0.83765 0.3573 0.0
Sm396 Sm 0.27717 0.79534 0.28842 0.0
Sm397 Sm 0.31779 0.80157 0.33415 0.0
C398 C 0.23328 0.80086 0.26002 0.0
C399 C 0.22266 0.78511 0.24168 0.0
C400 C 0.21252 0.79835 0.21331 0.0
C401 C 0.20099 0.78487 0.19587 0.0
C402 C 0.19933 0.75779 0.20646 0.0
C403 C 0.20989 0.74428 0.23475 0.0
C404 C 0.22157 0.75779 0.2522 0.0
C405 C 0.33009 0.75878 0.27569 0.0
C406 C 0.30895 0.84314 0.27041 0.0
C407 C 0.35502 0.79662 0.37232 0.0
C408 C 0.36799 0.81242 0.38766 0.0
C409 C 0.38431 0.82763 0.37099 0.0
C410 C 0.39967 0.83869 0.38652 0.0
C411 C 0.39898 0.8347 0.41891 0.0
C412 C 0.38149 0.82076 0.43546 0.0
C413 C 0.36618 0.80975 0.41996 0.0
C414 C 0.26579 0.84141 0.33505 0.0
C415 C 0.29353 0.74703 0.34741 0.0
O416 O 0.25373 0.80913 0.24679 0.0
O417 O 0.23538 0.79231 0.28949 0.0
O418 O 0.32204 0.77616 0.29551 0.0
O419 O 0.30942 0.76114 0.26027 0.0
O420 O 0.28643 0.83672 0.2685 0.0
O421 O 0.32708 0.82904 0.29081 0.0
O422 O 0.32931 0.79905 0.38159 0.0
O423 O 0.36098 0.79484 0.34259 0.0
O424 O 0.27158 0.8153 0.33259 0.0
O425 O 0.28759 0.84692 0.33976 0.0
O426 O 0.31025 0.75968 0.3545 0.0
O427 O 0.2776 0.75711 0.32417 0.0
H428 H 0.2131 0.81943 0.20482 0.0
H429 H 0.1927 0.79605 0.17442 0.0
H430 H 0.20915 0.72329 0.24334 0.0
H431 H 0.22946 0.74699 0.27396 0.0
H432 H 0.38599 0.83015 0.34602 0.0
H433 H 0.41269 0.84966 0.37315 0.0
H434 H 0.38076 0.81691 0.46036 0.0
H435 H 0.35383 0.79798 0.43329 0.0
Sm436 Sm 0.29309 0.80458 0.84129 0.0
Sm437 Sm 0.27602 0.77621 0.79596 0.0
C438 C 0.29655 0.84332 0.87369 0.0
C439 C 0.31579 0.84852 0.89205 0.0
C440 C 0.30553 0.85976 0.92017 0.0
C441 C 0.32268 0.86647 0.9376 0.0
C442 C 0.35048 0.86212 0.92717 0.0
C443 C 0.36097 0.85018 0.89925 0.0
C444 C 0.34375 0.84327 0.88184 0.0
C445 C 0.32645 0.7482 0.84892 0.0
C446 C 0.24194 0.77964 0.86227 0.0
C447 C 0.26469 0.74977 0.75462 0.0
C448 C 0.27144 0.73091 0.73034 0.0
C449 C 0.29406 0.70559 0.73119 0.0
C450 C 0.2966 0.68543 0.71117 0.0
C451 C 0.27639 0.69029 0.69037 0.0
C452 C 0.25473 0.71651 0.68852 0.0
C453 C 0.25236 0.73666 0.70831 0.0
C454 C 0.24123 0.83068 0.80341 0.0
C455 C 0.33371 0.79208 0.77853 0.0
O456 O 0.28635 0.82334 0.88548 0.0
O457 O 0.30244 0.84386 0.8438 0.0
O458 O 0.30825 0.75828 0.82979 0.0
O459 O 0.32636 0.76754 0.86551 0.0
O460 O 0.25222 0.7997 0.86505 0.0
O461 O 0.25184 0.76312 0.83979 0.0
O462 O 0.26992 0.73831 0.78282 0.0
O463 O 0.26659 0.77524 0.74814 0.0
O464 O 0.26726 0.82303 0.80072 0.0
O465 O 0.23299 0.80959 0.8017 0.0
O466 O 0.31736 0.77933 0.77066 0.0
O467 O 0.32812 0.80485 0.80396 0.0
H468 H 0.28401 0.86393 0.92837 0.0
H469 H 0.31384 0.87611 0.95871 0.0
H470 H 0.38235 0.84645 0.89078 0.0
H471 H 0.35215 0.83431 0.86027 0.0
H472 H 0.309 0.70089 0.74812 0.0
H473 H 0.31384 0.66566 0.71271 0.0
H474 H 0.23864 0.72087 0.67311 0.0
H475 H 0.23466 0.75608 0.70761 0.0
Sm476 Sm 0.28844 0.25178 0.81043 0.0
Sm477 Sm 0.30981 0.29447 0.8296 0.0
C478 C 0.26458 0.2138 0.80688 0.0
C479 C 0.25668 0.19844 0.78569 0.0
C480 C 0.25431 0.17188 0.79667 0.0
C481 C 0.2424 0.15869 0.77937 0.0
C482 C 0.23267 0.17184 0.75063 0.0
C483 C 0.23652 0.19781 0.73886 0.0
C484 C 0.24845 0.21105 0.75629 0.0
C485 C 0.28465 0.29697 0.76614 0.0
C486 C 0.25106 0.29621 0.85761 0.0
C487 C 0.32824 0.33658 0.83427 0.0
C488 C 0.34905 0.34582 0.84544 0.0
C489 C 0.359 0.36529 0.82604 0.0
C490 C 0.37522 0.37825 0.83721 0.0
C491 C 0.38176 0.37202 0.86808 0.0
C492 C 0.37296 0.35138 0.88714 0.0
C493 C 0.35662 0.3384 0.87592 0.0
C494 C 0.3172 0.24659 0.87189 0.0
C495 C 0.34808 0.25004 0.77997 0.0
O496 O 0.25123 0.24118 0.80616 0.0
O497 O 0.29082 0.20666 0.81112 0.0
O498 O 0.27941 0.29936 0.79481 0.0
O499 O 0.28898 0.27117 0.7605 0.0
O500 O 0.26055 0.26929 0.85267 0.0
O501 O 0.2639 0.31363 0.84414 0.0
O502 O 0.3353 0.32173 0.81062 0.0
O503 O 0.31082 0.3291 0.85472 0.0
O504 O 0.32059 0.24655 0.84301 0.0
O505 O 0.31257 0.2719 0.87928 0.0
O506 O 0.34392 0.27329 0.79324 0.0
O507 O 0.33102 0.23533 0.78522 0.0
H508 H 0.26042 0.16197 0.81939 0.0
H509 H 0.23941 0.13895 0.7894 0.0
H510 H 0.22957 0.20829 0.71663 0.0
H511 H 0.25023 0.23159 0.74739 0.0
H512 H 0.35334 0.37132 0.80249 0.0
H513 H 0.38216 0.39364 0.82181 0.0
H514 H 0.37766 0.34619 0.91104 0.0
H515 H 0.34912 0.32343 0.89135 0.0
Sm516 Sm 0.76911 0.29593 0.79932 0.0
Sm517 Sm 0.81364 0.30481 0.83976 0.0
C518 C 0.7219 0.30124 0.77744 0.0
C519 C 0.7065 0.30392 0.75029 0.0
C520 C 0.68173 0.32675 0.74669 0.0
C521 C 0.66476 0.32829 0.72361 0.0
C522 C 0.67211 0.30694 0.70353 0.0
C523 C 0.69736 0.2844 0.70667 0.0
C524 C 0.71437 0.28288 0.7298 0.0
C525 C 0.8223 0.26191 0.78215 0.0
C526 C 0.80022 0.34299 0.77371 0.0
C527 C 0.85246 0.30578 0.87278 0.0
C528 C 0.87518 0.29498 0.89333 0.0
C529 C 0.87437 0.27622 0.91998 0.0
C530 C 0.89461 0.2694 0.941 0.0
C531 C 0.91588 0.28146 0.93597 0.0
C532 C 0.91669 0.29982 0.90882 0.0
C533 C 0.89668 0.30635 0.88778 0.0
C534 C 0.76091 0.34332 0.84314 0.0
C535 C 0.7896 0.25169 0.85988 0.0
O536 O 0.72851 0.32311 0.78231 0.0
O537 O 0.74039 0.27661 0.7855 0.0
O538 O 0.81488 0.27939 0.80192 0.0
O539 O 0.80078 0.26351 0.76854 0.0
O540 O 0.77919 0.33405 0.77235 0.0
O541 O 0.81851 0.3323 0.79466 0.0
O542 O 0.85721 0.30203 0.84335 0.0
O543 O 0.8273 0.3079 0.88439 0.0
O544 O 0.76695 0.31689 0.8421 0.0
O545 O 0.78288 0.34957 0.84492 0.0
O546 O 0.80966 0.26203 0.86124 0.0
O547 O 0.76927 0.26371 0.84162 0.0
H548 H 0.67512 0.34313 0.76231 0.0
H549 H 0.64578 0.3462 0.72165 0.0
H550 H 0.70361 0.26738 0.6919 0.0
H551 H 0.73326 0.26488 0.73211 0.0
H552 H 0.85784 0.2673 0.92487 0.0
H553 H 0.89341 0.25483 0.96129 0.0
H554 H 0.9322 0.3101 0.90422 0.0
H555 H 0.89744 0.32124 0.8676 0.0
Sm556 Sm 0.77294 0.77706 0.82606 0.0
Sm557 Sm 0.80436 0.80848 0.77664 0.0
C558 C 0.73726 0.7603 0.8652 0.0
C559 C 0.72253 0.73975 0.86902 0.0
C560 C 0.71255 0.73297 0.8439 0.0
C561 C 0.69755 0.71417 0.84867 0.0
C562 C 0.69251 0.70177 0.87858 0.0
C563 C 0.70331 0.70811 0.90342 0.0
C564 C 0.7181 0.72698 0.89865 0.0
C565 C 0.82768 0.76522 0.83412 0.0
C566 C 0.80332 0.74487 0.7665 0.0
C567 C 0.84295 0.82562 0.74396 0.0
C568 C 0.86257 0.84033 0.74542 0.0
C569 C 0.86411 0.85177 0.77219 0.0
C570 C 0.8815 0.86785 0.77175 0.0
C571 C 0.89742 0.87272 0.7445 0.0
C572 C 0.89581 0.86084 0.71796 0.0
C573 C 0.87861 0.84476 0.7185 0.0
C574 C 0.7539 0.81485 0.756 0.0
C575 C 0.77191 0.8417 0.83644 0.0
O576 O 0.72985 0.78157 0.8436 0.0
O577 O 0.76396 0.74973 0.86722 0.0
O578 O 0.81097 0.78957 0.82613 0.0
O579 O 0.81556 0.74616 0.83793 0.0
O580 O 0.78233 0.74805 0.78769 0.0
O581 O 0.8173 0.76296 0.76127 0.0
O582 O 0.84814 0.79996 0.75858 0.0
O583 O 0.8168 0.84136 0.74614 0.0
O584 O 0.76342 0.80192 0.78087 0.0
O585 O 0.7712 0.82631 0.74102 0.0
O586 O 0.7888 0.84196 0.81133 0.0
O587 O 0.76266 0.82019 0.84564 0.0
H588 H 0.71601 0.74246 0.82074 0.0
H589 H 0.68939 0.70989 0.82906 0.0
H590 H 0.70037 0.69846 0.92661 0.0
H591 H 0.72593 0.73179 0.91821 0.0
H592 H 0.8516 0.84865 0.79314 0.0
H593 H 0.88244 0.8765 0.79264 0.0
H594 H 0.90725 0.86461 0.69642 0.0
H595 H 0.8773 0.83634 0.69757 0.0
H596 H 0.13008 0.05983 0.39054 0.0
H597 H 0.14097 0.20934 0.41718 0.0
H598 H 0.07017 0.11902 0.44777 0.0
H599 H 0.20231 0.1481 0.36316 0.0
H600 H 0.11459 0.17674 0.42866 0.0
H601 H 0.15728 0.09165 0.38115 0.0
C602 C 0.12274 0.0795 0.40124 0.0
C603 C 0.09781 0.08686 0.41986 0.0
C604 C 0.13383 0.17043 0.41431 0.0
C605 C 0.12873 0.12346 0.40919 0.0
C606 C 0.14877 0.18915 0.40749 0.0
C607 C 0.17385 0.18146 0.38909 0.0
C608 C 0.14405 0.14384 0.40265 0.0
C609 C 0.18322 0.15478 0.37768 0.0
C610 C 0.13827 0.09764 0.39592 0.0
C611 C 0.08939 0.11241 0.4335 0.0
N612 N 0.16831 0.13695 0.38464 0.0
N613 N 0.10475 0.12991 0.42772 0.0
H614 H 0.96678 0.08772 0.29149 0.0
H615 H 0.85557 0.20721 0.38516 0.0
H616 H 0.97814 0.10729 0.38047 0.0
H617 H 0.86017 0.21454 0.28577 0.0
H618 H 0.89677 0.16497 0.38456 0.0
H619 H 0.92441 0.12969 0.28928 0.0
C620 C 0.96051 0.10086 0.3104 0.0
C621 C 0.97612 0.09401 0.33611 0.0
C622 C 0.88872 0.17571 0.36285 0.0
C623 C 0.92767 0.14133 0.33401 0.0
C624 C 0.86509 0.19972 0.36319 0.0
C625 C 0.85455 0.21442 0.33547 0.0
C626 C 0.90177 0.16602 0.33461 0.0
C627 C 0.86776 0.20377 0.30765 0.0
C628 C 0.9364 0.12473 0.30911 0.0
C629 C 0.96697 0.11174 0.36005 0.0
N630 N 0.89078 0.18011 0.30789 0.0
N631 N 0.9433 0.13435 0.35851 0.0
H632 H 0.9822 0.97727 0.3521 0.0
H633 H 0.87268 0.89869 0.41355 0.0
H634 H 0.96199 0.95879 0.44917 0.0
H635 H 0.88518 0.93225 0.3191 0.0
H636 H 0.90681 0.91773 0.42781 0.0
H637 H 0.94841 0.95767 0.34018 0.0
C638 C 0.97043 0.96933 0.37098 0.0
C639 C 0.97458 0.97012 0.40172 0.0
C640 C 0.90187 0.92103 0.40404 0.0
C641 C 0.93592 0.94713 0.38818 0.0
C642 C 0.88249 0.91015 0.3959 0.0
C643 C 0.87588 0.91419 0.36517 0.0
C644 C 0.91486 0.93566 0.38116 0.0
C645 C 0.88918 0.92915 0.34317 0.0
C646 C 0.95119 0.95796 0.36414 0.0
C647 C 0.95937 0.95857 0.42518 0.0
N648 N 0.90803 0.93924 0.35159 0.0
N649 N 0.94056 0.9476 0.41794 0.0
H650 H 0.08972 0.92879 0.33609 0.0
H651 H 0.25183 0.89837 0.33723 0.0
H652 H 0.12506 0.99338 0.34419 0.0
H653 H 0.21688 0.83361 0.32906 0.0
H654 H 0.20571 0.93405 0.33643 0.0
H655 H 0.13621 0.89441 0.32952 0.0
C656 C 0.10725 0.93588 0.33603 0.0
C657 C 0.10343 0.96407 0.34068 0.0
C658 C 0.20808 0.91208 0.33464 0.0
C659 C 0.15679 0.92462 0.33356 0.0
C660 C 0.2344 0.8917 0.33516 0.0
C661 C 0.23808 0.86302 0.33339 0.0
C662 C 0.18523 0.90372 0.33234 0.0
C663 C 0.21488 0.85552 0.33052 0.0
C664 C 0.13381 0.91617 0.3324 0.0
C665 C 0.12696 0.97194 0.34052 0.0
N666 N 0.18939 0.87575 0.33023 0.0
N667 N 0.15261 0.95227 0.33728 0.0
H668 H 0.14718 0.99967 0.73761 0.0
H669 H 0.18849 0.84613 0.82775 0.0
H670 H 0.09173 0.97348 0.80688 0.0
H671 H 0.24939 0.88136 0.78077 0.0
H672 H 0.15336 0.89324 0.82251 0.0
H673 H 0.18532 0.95779 0.75493 0.0
C674 C 0.14318 0.98527 0.7569 0.0
C675 C 0.11633 0.98993 0.77086 0.0
C676 C 0.17445 0.89088 0.81378 0.0
C677 C 0.15978 0.94165 0.79042 0.0
C678 C 0.1945 0.86399 0.81669 0.0
C679 C 0.22175 0.85993 0.80443 0.0
C680 C 0.18156 0.91389 0.79799 0.0
C681 C 0.22856 0.88368 0.79052 0.0
C682 C 0.16497 0.9614 0.76678 0.0
C683 C 0.1122 0.97073 0.7957 0.0
N684 N 0.20844 0.90966 0.78718 0.0
N685 N 0.13365 0.9471 0.80437 0.0
H686 H 0.09571 0.14767 0.6781 0.0
H687 H 0.24147 0.11567 0.74511 0.0
H688 H 0.14098 0.0677 0.72687 0.0
H689 H 0.18575 0.2005 0.72087 0.0
H690 H 0.2095 0.09618 0.72745 0.0
H691 H 0.13335 0.16562 0.68274 0.0
C692 C 0.11378 0.1338 0.68934 0.0
C693 C 0.11523 0.10634 0.70242 0.0
C694 C 0.20447 0.11906 0.72564 0.0
C695 C 0.15812 0.12654 0.70781 0.0
C696 C 0.22268 0.13021 0.73576 0.0
C697 C 0.21613 0.15978 0.7349 0.0
C698 C 0.17959 0.13759 0.71441 0.0
C699 C 0.19176 0.17758 0.72187 0.0
C700 C 0.13513 0.14405 0.69213 0.0
C701 C 0.13894 0.08919 0.71696 0.0
N702 N 0.17422 0.1662 0.71243 0.0
N703 N 0.15942 0.09961 0.71939 0.0
H704 H 0.94622 0.11423 0.71886 0.0
H705 H 0.86673 0.24491 0.81827 0.0
H706 H 0.98267 0.12831 0.79567 0.0
H707 H 0.83894 0.22698 0.73733 0.0
H708 H 0.9092 0.20324 0.81248 0.0
H709 H 0.90623 0.15542 0.72806 0.0
C710 C 0.94576 0.12598 0.73789 0.0
C711 C 0.96794 0.11778 0.75644 0.0
C712 C 0.89383 0.20866 0.79595 0.0
C713 C 0.92165 0.16585 0.76715 0.0
C714 C 0.86976 0.23249 0.79909 0.0
C715 C 0.84942 0.23943 0.77808 0.0
C716 C 0.89727 0.19189 0.77171 0.0
C717 C 0.85406 0.2225 0.75398 0.0
C718 C 0.92279 0.14971 0.74313 0.0
C719 C 0.96592 0.13385 0.78091 0.0
N720 N 0.87733 0.19963 0.75156 0.0
N721 N 0.94315 0.15733 0.78551 0.0
H722 H 1.01983 0.95403 0.68645 0.0
H723 H 0.88643 0.92199 0.77151 0.0
H724 H 0.96565 1.00458 0.75528 0.0
H725 H 0.94854 0.86487 0.71391 0.0
H726 H 0.91455 0.95294 0.76566 0.0
H727 H 0.99276 0.92211 0.69498 0.0
C728 C 1.00215 0.95852 0.70325 0.0
C729 C 0.99498 0.98208 0.72012 0.0
C730 C 0.92204 0.93357 0.75441 0.0
C731 C 0.96398 0.94539 0.73028 0.0
C732 C 0.90609 0.91576 0.75793 0.0
C733 C 0.91503 0.8908 0.74306 0.0
C734 C 0.94703 0.92646 0.73576 0.0
C735 C 0.94052 0.88412 0.72534 0.0
C736 C 0.98681 0.94014 0.7083 0.0
C737 C 0.97209 0.98653 0.74198 0.0
N738 N 0.95552 0.9019 0.72206 0.0
N739 N 0.95734 0.96842 0.74636 0.0
H740 H 0.32109 0.11007 0.18711 0.0
H741 H 0.35788 0.23416 0.24767 0.0
H742 H 0.39695 0.12746 0.15869 0.0
H743 H 0.29082 0.20517 0.28877 0.0
H744 H 0.372 0.19606 0.21391 0.0
H745 H 0.30864 0.14626 0.22308 0.0
C746 C 0.33508 0.12157 0.18835 0.0
C747 C 0.3601 0.11573 0.16986 0.0
C748 C 0.35432 0.19794 0.23049 0.0
C749 C 0.3461 0.15706 0.21109 0.0
C750 C 0.34625 0.21969 0.2498 0.0
C751 C 0.3231 0.22295 0.27113 0.0
C752 C 0.339 0.17947 0.23229 0.0
C753 C 0.30884 0.2035 0.27277 0.0
C754 C 0.32807 0.14208 0.20905 0.0
C755 C 0.37762 0.13104 0.17274 0.0
N756 N 0.3169 0.18275 0.25348 0.0
N757 N 0.37023 0.15108 0.19285 0.0
H758 H 0.98099 0.29637 0.1472 0.0
H759 H 0.85602 0.34456 0.27561 0.0
H760 H 0.96347 0.37002 0.19633 0.0
H761 H 0.86897 0.2742 0.22282 0.0
H762 H 0.89471 0.35476 0.2454 0.0
H763 H 0.9392 0.28893 0.17268 0.0
C764 C 0.96824 0.31129 0.16295 0.0
C765 C 0.97591 0.33396 0.16959 0.0
C766 C 0.88903 0.33719 0.24022 0.0
C767 C 0.9282 0.32504 0.19936 0.0
C768 C 0.8669 0.33133 0.25749 0.0
C769 C 0.85924 0.30848 0.25169 0.0
C770 C 0.90376 0.32004 0.217 0.0
C771 C 0.87415 0.29208 0.22797 0.0
C772 C 0.94442 0.30683 0.17771 0.0
C773 C 0.95864 0.35211 0.19074 0.0
N774 N 0.89583 0.29811 0.21153 0.0
N775 N 0.93571 0.34717 0.20497 0.0
H776 H 0.83762 0.92471 0.13888 0.0
H777 H 0.76679 0.80877 0.19396 0.0
H778 H 0.77667 0.91434 0.08738 0.0
H779 H 0.79042 0.8503 0.2597 0.0
H780 H 0.77401 0.84432 0.15306 0.0
H781 H 0.82529 0.89368 0.18233 0.0
C782 C 0.82177 0.91574 0.13676 0.0
C783 C 0.80821 0.92181 0.10964 0.0
C784 C 0.7773 0.84586 0.17653 0.0
C785 C 0.79406 0.88671 0.15875 0.0
C786 C 0.77312 0.82568 0.19983 0.0
C787 C 0.77807 0.82669 0.23018 0.0
C788 C 0.78711 0.8668 0.18356 0.0
C789 C 0.78639 0.84888 0.2366 0.0
C790 C 0.81456 0.89839 0.16154 0.0
C791 C 0.7875 0.91015 0.10801 0.0
N792 N 0.79115 0.86788 0.21334 0.0
N793 N 0.78122 0.8929 0.13215 0.0
H794 H 0.13037 0.71741 0.05784 0.0
H795 H 0.16327 0.72886 0.22754 0.0
H796 H 0.0852 0.69432 0.14047 0.0
H797 H 0.20442 0.75633 0.14393 0.0
H798 H 0.13836 0.71047 0.19655 0.0
H799 H 0.16143 0.72626 0.08949 0.0
C800 C 0.12723 0.71384 0.08269 0.0
C801 C 0.10509 0.70524 0.09653 0.0
C802 C 0.15299 0.72034 0.18502 0.0
C803 C 0.14056 0.71539 0.13301 0.0
C804 C 0.16735 0.73068 0.2027 0.0
C805 C 0.18582 0.74434 0.18829 0.0
C806 C 0.15717 0.72367 0.15272 0.0
C807 C 0.19004 0.7464 0.156 0.0
C808 C 0.14496 0.7189 0.10076 0.0
C809 C 0.10213 0.70066 0.12882 0.0
N810 N 0.17571 0.73634 0.13933 0.0
N811 N 0.11951 0.70607 0.146 0.0
H812 H 0.38765 0.93957 0.06803 0.0
H813 H 0.38536 0.89167 0.904 0.0
H814 H 0.41736 0.97679 0.98253 0.0
H815 H 0.35382 0.85616 0.98957 0.0
H816 H 0.40621 0.91576 0.93321 0.0
H817 H 0.38396 0.90214 0.04077 0.0
C818 C 0.39379 0.93957 0.04357 0.0
C819 C 0.4024 0.96152 0.0274 0.0
C820 C 0.39511 0.90232 0.94562 0.0
C821 C 0.39807 0.91895 0.99596 0.0
C822 C 0.38337 0.8884 0.92895 0.0
C823 C 0.36747 0.87227 0.9444 0.0
C824 C 0.39079 0.90018 0.97793 0.0
C825 C 0.3654 0.86893 0.97675 0.0
C826 C 0.39173 0.9182 0.02801 0.0
C827 C 0.4106 0.96029 0.99585 0.0
N828 N 0.37658 0.88311 0.99243 0.0
N829 N 0.40778 0.93963 0.98104 0.0
H830 H 0.14732 0.36905 1.01509 0.0
H831 H 0.21507 0.26878 0.88095 0.0
H832 H 0.12042 0.30084 0.99724 0.0
H833 H 0.23528 0.34377 0.88869 0.0
H834 H 0.18012 0.28076 0.92375 0.0
H835 H 0.17931 0.36087 0.96894 0.0
C836 C 0.14787 0.35255 1.00146 0.0
C837 C 0.13109 0.33557 1.01036 0.0
C838 C 0.19196 0.29481 0.91598 0.0
C839 C 0.16802 0.32585 0.95773 0.0
C840 C 0.21193 0.28798 0.89149 0.0
C841 C 0.228 0.30539 0.88121 0.0
C842 C 0.18811 0.31913 0.93055 0.0
C843 C 0.22311 0.32994 0.89576 0.0
C844 C 0.16628 0.34781 0.97516 0.0
C845 C 0.13315 0.31421 0.99183 0.0
N846 N 0.20367 0.33601 0.91993 0.0
N847 N 0.15134 0.30991 0.96655 0.0
H848 H 0.8178 0.07257 0.90024 0.0
H849 H 0.81368 0.2292 0.91369 0.0
H850 H 0.8189 0.10076 0.98809 0.0
H851 H 0.77156 0.2107 0.84477 0.0
H852 H 0.82192 0.18073 0.93896 0.0
H853 H 0.80778 0.12178 0.87635 0.0
C854 C 0.81637 0.0891 0.91433 0.0
C855 C 0.81946 0.08273 0.94603 0.0
C856 C 0.81063 0.18744 0.91849 0.0
C857 C 0.80786 0.13873 0.91912 0.0
C858 C 0.80591 0.21501 0.90412 0.0
C859 C 0.79173 0.22394 0.87732 0.0
C860 C 0.80172 0.16853 0.90548 0.0
C861 C 0.78225 0.20473 0.86566 0.0
C862 C 0.81033 0.11712 0.90083 0.0
C863 C 0.81675 0.10494 0.96353 0.0
N864 N 0.78771 0.17774 0.87962 0.0
N865 N 0.81129 0.132 0.9498 0.0
H866 H 0.95351 0.78233 0.93635 0.0
H867 H 0.864 0.7147 0.85536 0.0
H868 H 0.96506 0.69259 0.94313 0.0
H869 H 0.84892 0.80512 0.84728 0.0
H870 H 0.90284 0.7068 0.88554 0.0
H871 H 0.91615 0.79182 0.90286 0.0
C872 C 0.94825 0.76461 0.93096 0.0
C873 C 0.96272 0.73652 0.94261 0.0
C874 C 0.89124 0.72841 0.87706 0.0
C875 C 0.92018 0.7473 0.90392 0.0
C876 C 0.8691 0.7329 0.85968 0.0
C877 C 0.85322 0.76056 0.84888 0.0
C878 C 0.89763 0.75176 0.88387 0.0
C879 C 0.86074 0.7834 0.85517 0.0
C880 C 0.92701 0.77007 0.91163 0.0
C881 C 0.95501 0.7145 0.93443 0.0
N882 N 0.88235 0.77851 0.87248 0.0
N883 N 0.93437 0.72038 0.91568 0.0
H884 H 0.18395 0.2711 0.12711 0.0
H885 H 0.20937 0.29673 0.29579 0.0
H886 H 0.11569 0.29399 0.19647 0.0
H887 H 0.26077 0.3037 0.21212 0.0
H888 H 0.17691 0.28728 0.26491 0.0
H889 H 0.21466 0.27348 0.16331 0.0
C890 C 0.17538 0.27632 0.15014 0.0
C891 C 0.14705 0.28238 0.15854 0.0
C892 C 0.19541 0.29079 0.25354 0.0
C893 C 0.18258 0.28551 0.20064 0.0
C894 C 0.21395 0.29601 0.27114 0.0
C895 C 0.2377 0.30128 0.25647 0.0
C896 C 0.20119 0.29019 0.22136 0.0
C897 C 0.24263 0.30011 0.22448 0.0
C898 C 0.19302 0.2778 0.17089 0.0
C899 C 0.13741 0.28898 0.18897 0.0
N900 N 0.22473 0.29469 0.20823 0.0
N901 N 0.1551 0.29058 0.20889 0.0
H902 H 0.10281 0.81163 1.00146 0.0
H903 H 0.20854 0.74774 0.85832 0.0
H904 H 0.08891 0.75522 0.94487 0.0
H905 H 0.21703 0.80949 0.91171 0.0
H906 H 0.16556 0.74896 0.88987 0.0
H907 H 0.14494 0.81035 0.96883 0.0
C908 C 0.10841 0.79916 0.98201 0.0
C909 C 0.0919 0.78373 0.97596 0.0
C910 C 0.1769 0.76215 0.89474 0.0
C911 C 0.1409 0.78178 0.93837 0.0
C912 C 0.20159 0.76134 0.87683 0.0
C913 C 0.21675 0.77835 0.88241 0.0
C914 C 0.16718 0.78006 0.91857 0.0
C915 C 0.20632 0.79583 0.90652 0.0
C916 C 0.13264 0.79835 0.96336 0.0
C917 C 0.10066 0.76775 0.9504 0.0
N918 N 0.18237 0.79619 0.92358 0.0
N919 N 0.12451 0.7671 0.93271 0.0
H920 H 0.3171 0.13505 0.04163 0.0
H921 H 0.3266 0.19119 0.86131 0.0
H922 H 0.33316 0.08089 0.9687 0.0
H923 H 0.31012 0.24511 0.93442 0.0
H924 H 0.32785 0.15067 0.90015 0.0
H925 H 0.31279 0.17592 1.00268 0.0
C926 C 0.31934 0.13176 0.01748 0.0
C927 C 0.32536 0.10439 1.00855 0.0
C928 C 0.32397 0.17137 0.9077 0.0
C929 C 0.32082 0.15118 0.96366 0.0
C930 C 0.32331 0.19447 0.88551 0.0
C931 C 0.31845 0.22151 0.89465 0.0
C932 C 0.31972 0.17533 0.93926 0.0
C933 C 0.31413 0.2246 0.92634 0.0
C934 C 0.31704 0.15512 0.9952 0.0
C935 C 0.3284 0.10152 0.97679 0.0
N936 N 0.31492 0.20186 0.94743 0.0
N937 N 0.3262 0.12452 0.95559 0.0
H938 H 0.05634 0.2764 0.02935 0.0
H939 H 0.90843 0.27258 0.99944 0.0
H940 H 1.00116 0.25261 0.10112 0.0
H941 H 0.9707 0.27794 0.92602 0.0
H942 H 0.94187 0.26566 0.03689 0.0
H943 H 0.02515 0.27766 0.99116 0.0
C944 C 0.03791 0.27099 0.0371 0.0
C945 C 0.03158 0.26417 0.06864 0.0
C946 C 0.94824 0.26824 1.01257 0.0
C947 C 0.99537 0.26613 0.02486 0.0
C948 C 0.92916 0.272 0.99103 0.0
C949 C 0.93651 0.27592 0.95924 0.0
C950 C 0.97494 0.26867 1.00247 0.0
C951 C 0.96369 0.27558 0.95015 0.0
C952 C 1.02003 0.27183 1.01523 0.0
C953 C 1.00715 0.2577 0.07714 0.0
N954 N 0.98176 0.27222 0.97158 0.0
N955 N 0.9899 0.25907 0.05548 0.0
H956 H 0.77006 0.98622 0.9259 0.0
H957 H 0.74638 0.84358 0.8949 0.0
H958 H 0.76635 0.91887 0.99663 0.0
H959 H 0.78337 0.89194 0.82526 0.0
H960 H 0.74126 0.87824 0.93078 0.0
H961 H 0.76245 0.95898 0.88744 0.0
C962 C 0.76657 0.96621 0.93342 0.0
C963 C 0.76833 0.95487 0.9644 0.0
C964 C 0.7502 0.88143 0.90753 0.0
C965 C 0.76014 0.92359 0.92087 0.0
C966 C 0.75307 0.86169 0.88692 0.0
C967 C 0.76557 0.86462 0.85698 0.0
C968 C 0.75962 0.90454 0.89819 0.0
C969 C 0.7738 0.88865 0.84815 0.0
C970 C 0.76262 0.95054 0.91151 0.0
C971 C 0.76469 0.92845 0.97298 0.0
N972 N 0.77081 0.90762 0.86871 0.0
N973 N 0.76081 0.91368 0.95135 0.0
H974 H 0.95259 0.75681 0.07485 0.0
H975 H 0.88249 0.80971 0.23797 0.0
H976 H 0.98961 0.79458 0.13173 0.0
H977 H 0.86866 0.73974 0.20423 0.0
H978 H 0.91665 0.81033 0.19454 0.0
H979 H 0.91643 0.75657 0.117 0.0
C980 C 0.9528 0.76563 0.09588 0.0
C981 C 0.97406 0.77609 0.09955 0.0
C982 C 0.90625 0.79475 0.19661 0.0
C983 C 0.93283 0.7757 0.1479 0.0
C984 C 0.88668 0.79437 0.22144 0.0
C985 C 0.87278 0.77445 0.225 0.0
C986 C 0.91178 0.77549 0.1745 0.0
C987 C 0.87913 0.7552 0.20265 0.0
C988 C 0.93236 0.76514 0.12006 0.0
C989 C 0.97359 0.78654 0.1277 0.0
N990 N 0.898 0.75633 0.17821 0.0
N991 N 0.95333 0.78624 0.15058 0.0
H992 H 0.30035 0.98997 0.13256 0.0
H993 H 0.35028 0.86542 0.27057 0.0
H994 H 0.3702 0.97553 0.18473 0.0
H995 H 0.27746 0.87783 0.22433 0.0
H996 H 0.35695 0.90633 0.23849 0.0
H997 H 0.29024 0.95006 0.16531 0.0
C998 C 0.31335 0.9787 0.151 0.0
C999 C 0.33619 0.98619 0.1558 0.0
C1000 C 0.33947 0.9002 0.23521 0.0
C1001 C 0.32496 0.94049 0.19305 0.0
C1002 C 0.33568 0.87665 0.25358 0.0
C1003 C 0.31332 0.8679 0.2502 0.0
C1004 C 0.32084 0.9154 0.213 0.0
C1005 C 0.29506 0.88367 0.22776 0.0
C1006 C 0.30767 0.95584 0.16958 0.0
C1007 C 0.35245 0.9706 0.1799 0.0
N1008 N 0.29923 0.90659 0.20999 0.0
N1009 N 0.34658 0.94865 0.19738 0.0
H1010 H 0.75257 0.0956 0.05128 0.0
H1011 H 0.7852 0.13378 0.21036 0.0
H1012 H 0.79547 0.03389 0.12239 0.0
H1013 H 0.7582 0.19683 0.13305 0.0
H1014 H 0.78236 0.09752 0.18091 0.0
H1015 H 0.74659 0.13367 0.08395 0.0
C1016 C 0.75988 0.09006 0.07415 0.0
C1017 C 0.7743 0.06169 0.0844 0.0
C1018 C 0.77701 0.11929 0.17035 0.0
C1019 C 0.76817 0.10474 0.12136 0.0
C1020 C 0.7789 0.14002 0.18708 0.0
C1021 C 0.77231 0.16844 0.1741 0.0
C1022 C 0.76837 0.12687 0.14032 0.0
C1023 C 0.76341 0.17524 0.1441 0.0
C1024 C 0.75684 0.11173 0.09258 0.0
C1025 C 0.78411 0.05556 0.11379 0.0
N1026 N 0.76182 0.1546 0.12818 0.0
N1027 N 0.78098 0.07686 0.13115 0.0
H1028 H 0.61199 0.57999 0.86322 0.0
H1029 H 0.65423 0.69908 0.92679 0.0
H1030 H 0.58438 0.60801 0.95367 0.0
H1031 H 0.69215 0.66113 0.84302 0.0
H1032 H 0.62708 0.66729 0.93605 0.0
H1033 H 0.63974 0.61133 0.85419 0.0
C1034 C 0.61163 0.59289 0.88111 0.0
C1035 C 0.59575 0.59149 0.90921 0.0
C1036 C 0.64137 0.66587 0.91566 0.0
C1037 C 0.62763 0.62725 0.89912 0.0
C1038 C 0.65702 0.68392 0.91042 0.0
C1039 C 0.67565 0.68271 0.88413 0.0
C1040 C 0.64414 0.64656 0.89436 0.0
C1041 C 0.67784 0.66306 0.8634 0.0
C1042 C 0.62763 0.61062 0.87602 0.0
C1043 C 0.59647 0.60827 0.93179 0.0
N1044 N 0.66226 0.64577 0.86896 0.0
N1045 N 0.61207 0.62555 0.92621 0.0
H1046 H 0.44331 0.57984 0.81403 0.0
H1047 H 0.36772 0.72718 0.88703 0.0
H1048 H 0.47927 0.61419 0.8759 0.0
H1049 H 0.33626 0.70562 0.8109 0.0
H1050 H 0.40692 0.68336 0.88526 0.0
H1051 H 0.40279 0.62361 0.81365 0.0
C1052 C 0.44285 0.5966 0.82729 0.0
C1053 C 0.46487 0.59325 0.84494 0.0
C1054 C 0.39148 0.68801 0.86894 0.0
C1055 C 0.41841 0.64309 0.84499 0.0
C1056 C 0.36892 0.71303 0.87006 0.0
C1057 C 0.3486 0.72005 0.84916 0.0
C1058 C 0.39391 0.66953 0.84679 0.0
C1059 C 0.3514 0.7009 0.82758 0.0
C1060 C 0.41968 0.62153 0.82711 0.0
C1061 C 0.46298 0.61568 0.86182 0.0
N1062 N 0.3737 0.67645 0.82693 0.0
N1063 N 0.44019 0.63942 0.86153 0.0
H1064 H 0.44208 0.50395 0.90219 0.0
H1065 H 0.42419 0.35171 0.90623 0.0
H1066 H 0.49954 0.42554 0.94142 0.0
H1067 H 0.37261 0.42915 0.85842 0.0
H1068 H 0.44904 0.37906 0.92471 0.0
H1069 H 0.41327 0.4775 0.89136 0.0
C1070 C 0.44858 0.48121 0.90868 0.0
C1071 C 0.47343 0.46697 0.92248 0.0
C1072 C 0.43222 0.39005 0.91024 0.0
C1073 C 0.44048 0.43649 0.91024 0.0
C1074 C 0.418 0.37447 0.8998 0.0
C1075 C 0.39655 0.38813 0.88046 0.0
C1076 C 0.42479 0.41949 0.90142 0.0
C1077 C 0.38941 0.41766 0.87275 0.0
C1078 C 0.43209 0.46611 0.90256 0.0
C1079 C 0.48053 0.43751 0.93094 0.0
N1080 N 0.40354 0.43231 0.88316 0.0
N1081 N 0.46425 0.42322 0.92445 0.0
H1082 H 0.58841 0.44946 0.85978 0.0
H1083 H 0.7517 0.39885 0.8246 0.0
H1084 H 0.63375 0.50363 0.81467 0.0
H1085 H 0.70876 0.33839 0.85092 0.0
H1086 H 0.70774 0.43698 0.8204 0.0
H1087 H 0.63087 0.40815 0.85603 0.0
C1088 C 0.6071 0.45266 0.84857 0.0
C1089 C 0.60744 0.48019 0.83751 0.0
C1090 C 0.70772 0.41543 0.8269 0.0
C1091 C 0.65609 0.43303 0.83357 0.0
C1092 C 0.73289 0.39359 0.82943 0.0
C1093 C 0.73382 0.36548 0.83845 0.0
C1094 C 0.68302 0.40936 0.83377 0.0
C1095 C 0.70883 0.35988 0.84402 0.0
C1096 C 0.63134 0.42904 0.84655 0.0
C1097 C 0.63237 0.48295 0.82353 0.0
N1098 N 0.6843 0.38174 0.84195 0.0
N1099 N 0.65562 0.45979 0.82223 0.0
H1100 H 0.60578 0.47393 0.31051 0.0
H1101 H 0.75637 0.37977 0.24787 0.0
H1102 H 0.65231 0.49751 0.22936 0.0
H1103 H 0.71832 0.35668 0.33577 0.0
H1104 H 0.71898 0.4251 0.24376 0.0
H1105 H 0.6472 0.433 0.32376 0.0
C1106 C 0.62483 0.47082 0.29594 0.0
C1107 C 0.62569 0.48879 0.26867 0.0
C1108 C 0.71879 0.41038 0.26419 0.0
C1109 C 0.6726 0.44246 0.28334 0.0
C1110 C 0.74019 0.38448 0.26649 0.0
C1111 C 0.74028 0.36455 0.29205 0.0
C1112 C 0.69699 0.41634 0.28747 0.0
C1113 C 0.71891 0.37165 0.31566 0.0
C1114 C 0.64835 0.44747 0.30336 0.0
C1115 C 0.65069 0.48389 0.25037 0.0
N1116 N 0.69781 0.39692 0.31262 0.0
N1117 N 0.67299 0.46114 0.2579 0.0
H1118 H 0.60504 0.64765 0.18506 0.0
H1119 H 0.75099 0.61365 0.25261 0.0
H1120 H 0.64978 0.56696 0.23292 0.0
H1121 H 0.69689 0.69908 0.22744 0.0
H1122 H 0.7174 0.59503 0.23736 0.0
H1123 H 0.64219 0.66561 0.19193 0.0
C1124 C 0.62288 0.63366 0.19661 0.0
C1125 C 0.62437 0.60593 0.20866 0.0
C1126 C 0.71296 0.61785 0.23501 0.0
C1127 C 0.66663 0.62614 0.21668 0.0
C1128 C 0.73206 0.62852 0.24386 0.0
C1129 C 0.72664 0.65801 0.24168 0.0
C1130 C 0.68828 0.63676 0.2237 0.0
C1131 C 0.70205 0.67619 0.22937 0.0
C1132 C 0.64392 0.64391 0.20072 0.0
C1133 C 0.64773 0.58862 0.22371 0.0
N1134 N 0.68369 0.66527 0.221 0.0
N1135 N 0.66792 0.59904 0.22737 0.0
H1136 H 0.49195 0.62729 0.29821 0.0
H1137 H 0.34768 0.7232 0.2317 0.0
H1138 H 0.45631 0.61082 0.22214 0.0
H1139 H 0.37284 0.74159 0.3141 0.0
H1140 H 0.38937 0.68244 0.22844 0.0
H1141 H 0.4499 0.66896 0.30621 0.0
C1142 C 0.4752 0.63219 0.28357 0.0
C1143 C 0.47762 0.61575 0.25936 0.0
C1144 C 0.38607 0.69526 0.24731 0.0
C1145 C 0.43017 0.66302 0.26802 0.0
C1146 C 0.36221 0.71872 0.24905 0.0
C1147 C 0.3569 0.7358 0.27309 0.0
C1148 C 0.40502 0.68855 0.26984 0.0
C1149 C 0.37642 0.72894 0.29503 0.0
C1150 C 0.45138 0.65598 0.28798 0.0
C1151 C 0.45553 0.62302 0.24087 0.0
N1152 N 0.39976 0.70567 0.29295 0.0
N1153 N 0.43295 0.64605 0.24552 0.0
H1154 H 0.50492 0.47489 0.27397 0.0
H1155 H 0.40567 0.41321 0.20201 0.0
H1156 H 0.48902 0.49026 0.1778 0.0
H1157 H 0.41822 0.40088 0.299 0.0
H1158 H 0.43709 0.44053 0.19263 0.0
H1159 H 0.4742 0.44677 0.28347 0.0
C1160 C 0.4949 0.47249 0.25484 0.0
C1161 C 0.49951 0.48512 0.22501 0.0
C1162 C 0.433 0.43187 0.21597 0.0
C1163 C 0.46452 0.45258 0.23573 0.0
C1164 C 0.41491 0.41642 0.2214 0.0
C1165 C 0.40911 0.40497 0.25141 0.0
C1166 C 0.44552 0.43588 0.24071 0.0
C1167 C 0.42223 0.4092 0.2755 0.0
C1168 C 0.47746 0.45626 0.26028 0.0
C1169 C 0.48633 0.48073 0.20107 0.0
N1170 N 0.43978 0.4244 0.26963 0.0
N1171 N 0.46939 0.46488 0.20697 0.0
H1172 H 0.84052 0.63859 0.61678 0.0
H1173 H 0.79132 0.69562 0.78104 0.0
H1174 H 0.82854 0.58487 0.69903 0.0
H1175 H 0.83291 0.73803 0.70989 0.0
H1176 H 0.80248 0.65603 0.74985 0.0
H1177 H 0.83629 0.67625 0.64894 0.0
C1178 C 0.83743 0.63452 0.64158 0.0
C1179 C 0.83491 0.60844 0.65517 0.0
C1180 C 0.80935 0.67389 0.7411 0.0
C1181 C 0.82945 0.65168 0.69198 0.0
C1182 C 0.80287 0.6966 0.75886 0.0
C1183 C 0.81115 0.72026 0.74807 0.0
C1184 C 0.82383 0.67492 0.712 0.0
C1185 C 0.8262 0.72019 0.71917 0.0
C1186 C 0.83497 0.65605 0.6599 0.0
C1187 C 0.83072 0.60451 0.68746 0.0
N1188 N 0.83181 0.69801 0.70197 0.0
N1189 N 0.82779 0.62597 0.70466 0.0
H1190 H 0.46321 0.8023 0.63288 0.0
H1191 H 0.38191 0.79213 0.79777 0.0
H1192 H 0.50465 0.75541 0.71277 0.0
H1193 H 0.34568 0.78864 0.71582 0.0
H1194 H 0.42553 0.7886 0.76687 0.0
H1195 H 0.4183 0.80751 0.66274 0.0
C1196 C 0.46282 0.79335 0.65674 0.0
C1197 C 0.48768 0.77826 0.67035 0.0
C1198 C 0.408 0.78873 0.75563 0.0
C1199 C 0.43659 0.78454 0.70469 0.0
C1200 C 0.38302 0.79089 0.77321 0.0
C1201 C 0.35999 0.79072 0.7594 0.0
C1202 C 0.40997 0.78716 0.72373 0.0
C1203 C 0.36289 0.78876 0.72745 0.0
C1204 C 0.43727 0.79615 0.67367 0.0
C1205 C 0.48601 0.76696 0.70135 0.0
N1206 N 0.38731 0.78734 0.71065 0.0
N1207 N 0.46101 0.77054 0.71749 0.0
H1208 H 0.28014 0.44982 0.64027 0.0
H1209 H 0.30771 0.28763 0.70878 0.0
H1210 H 0.32998 0.37659 0.59394 0.0
H1211 H 0.27083 0.35583 0.76666 0.0
H1212 H 0.3137 0.32158 0.66634 0.0
H1213 H 0.27396 0.41771 0.6861 0.0
C1214 C 0.28979 0.42708 0.63965 0.0
C1215 C 0.30578 0.41598 0.61307 0.0
C1216 C 0.30429 0.32939 0.68819 0.0
C1217 C 0.29881 0.37922 0.66548 0.0
C1218 C 0.30073 0.30991 0.71259 0.0
C1219 C 0.28843 0.31887 0.74133 0.0
C1220 C 0.2954 0.35844 0.6921 0.0
C1221 C 0.28024 0.34805 0.7448 0.0
C1222 C 0.28637 0.4088 0.66592 0.0
C1223 C 0.31789 0.38631 0.61383 0.0
N1224 N 0.2837 0.36693 0.72032 0.0
N1225 N 0.31408 0.36914 0.63942 0.0
H1226 H 0.53084 0.31476 0.60825 0.0
H1227 H 0.68589 0.29193 0.64439 0.0
H1228 H 0.60359 0.27784 0.54881 0.0
H1229 H 0.61514 0.32405 0.70866 0.0
H1230 H 0.655 0.29161 0.60696 0.0
H1231 H 0.56002 0.32461 0.64255 0.0
C1232 C 0.55277 0.3097 0.60188 0.0
C1233 C 0.56484 0.29584 0.57551 0.0
C1234 C 0.64615 0.29891 0.62918 0.0
C1235 C 0.59835 0.30614 0.61484 0.0
C1236 C 0.66387 0.29889 0.65072 0.0
C1237 C 0.65325 0.30785 0.67993 0.0
C1238 C 0.61743 0.30795 0.6367 0.0
C1239 C 0.62435 0.3172 0.68638 0.0
C1240 C 0.56948 0.31491 0.62164 0.0
C1241 C 0.59348 0.28882 0.5688 0.0
N1242 N 0.60749 0.31686 0.66505 0.0
N1243 N 0.60921 0.29386 0.58835 0.0
H1244 H 0.84075 0.53046 0.50617 0.0
H1245 H 0.84824 0.37176 0.48867 0.0
H1246 H 0.86077 0.46252 0.58028 0.0
H1247 H 0.81261 0.44483 0.42411 0.0
H1248 H 0.85778 0.40294 0.5205 0.0
H1249 H 0.83701 0.4972 0.4731 0.0
C1250 C 0.84484 0.50841 0.51538 0.0
C1251 C 0.85097 0.49935 0.54618 0.0
C1252 C 0.84791 0.41209 0.49934 0.0
C1253 C 0.84626 0.4611 0.50835 0.0
C1254 C 0.84219 0.39435 0.48125 0.0
C1255 C 0.82951 0.4056 0.45356 0.0
C1256 C 0.84108 0.4413 0.48964 0.0
C1257 C 0.82275 0.43501 0.44495 0.0
C1258 C 0.84249 0.48944 0.49649 0.0
C1259 C 0.85608 0.47045 0.5567 0.0
N1260 N 0.82864 0.45175 0.46286 0.0
N1261 N 0.85337 0.45239 0.5379 0.0
H1262 H 0.69073 0.76831 0.53374 0.0
H1263 H 0.71948 0.77094 0.35346 0.0
H1264 H 0.62289 0.78831 0.47717 0.0
H1265 H 0.76149 0.80856 0.40439 0.0
H1266 H 0.68726 0.76904 0.39914 0.0
H1267 H 0.72072 0.77491 0.48739 0.0
C1268 C 0.68221 0.77409 0.51151 0.0
C1269 C 0.65434 0.77772 0.50922 0.0
C1270 C 0.70335 0.77798 0.40017 0.0
C1271 C 0.68858 0.78478 0.45612 0.0
C1272 C 0.72172 0.77907 0.37419 0.0
C1273 C 0.74286 0.79042 0.375 0.0
C1274 C 0.70672 0.78737 0.42756 0.0
C1275 C 0.74512 0.80022 0.4026 0.0
C1276 C 0.69924 0.77799 0.48516 0.0
C1277 C 0.64422 0.78542 0.47988 0.0
N1278 N 0.72753 0.7981 0.42792 0.0
N1279 N 0.66143 0.78827 0.45439 0.0
H1280 H 0.31246 0.5695 0.40181 0.0
H1281 H 0.30762 0.72853 0.40666 0.0
H1282 H 0.30202 0.60573 0.48756 0.0
H1283 H 0.28089 0.70294 0.32975 0.0
H1284 H 0.31077 0.68234 0.43556 0.0
H1285 H 0.30629 0.61668 0.37378 0.0
C1286 C 0.30907 0.58736 0.41473 0.0
C1287 C 0.308 0.58362 0.44709 0.0
C1288 C 0.30404 0.68692 0.41245 0.0
C1289 C 0.30095 0.63775 0.4151 0.0
C1290 C 0.30229 0.71325 0.39587 0.0
C1291 C 0.29384 0.71973 0.36573 0.0
C1292 C 0.29793 0.66652 0.3986 0.0
C1293 C 0.28724 0.69901 0.35299 0.0
C1294 C 0.30531 0.61433 0.39873 0.0
C1295 C 0.303 0.60768 0.46265 0.0
N1296 N 0.28971 0.67326 0.36934 0.0
N1297 N 0.29995 0.63365 0.44652 0.0
H1298 H 0.44123 0.31847 0.46327 0.0
H1299 H 0.35718 0.23614 0.39573 0.0
H1300 H 0.4638 0.22726 0.46582 0.0
H1301 H 0.34177 0.32534 0.36734 0.0
H1302 H 0.39584 0.23453 0.42276 0.0
H1303 H 0.40413 0.32389 0.42977 0.0
C1304 C 0.43852 0.29968 0.45682 0.0
C1305 C 0.45569 0.27236 0.46769 0.0
C1306 C 0.38443 0.25453 0.41038 0.0
C1307 C 0.41355 0.27839 0.42952 0.0
C1308 C 0.36234 0.25537 0.39475 0.0
C1309 C 0.3465 0.28075 0.37893 0.0
C1310 C 0.39074 0.27945 0.41095 0.0
C1311 C 0.35388 0.30518 0.37884 0.0
C1312 C 0.41744 0.30278 0.43763 0.0
C1313 C 0.45122 0.2488 0.45841 0.0
N1314 N 0.37537 0.30404 0.39497 0.0
N1315 N 0.43073 0.2524 0.44019 0.0
H1316 H 0.62414 0.8423 0.63646 0.0
H1317 H 0.71988 0.78386 0.77858 0.0
H1318 H 0.62089 0.77172 0.70317 0.0
H1319 H 0.73045 0.84668 0.70525 0.0
H1320 H 0.67976 0.78296 0.7547 0.0
H1321 H 0.65926 0.84843 0.66496 0.0
C1322 C 0.63045 0.82843 0.65735 0.0
C1323 C 0.6196 0.80645 0.66743 0.0
C1324 C 0.69073 0.79712 0.74398 0.0
C1325 C 0.65987 0.81312 0.69996 0.0
C1326 C 0.71352 0.79769 0.7577 0.0
C1327 C 0.72838 0.81539 0.74385 0.0
C1328 C 0.68277 0.81447 0.71634 0.0
C1329 C 0.71951 0.83272 0.71664 0.0
C1330 C 0.65063 0.83179 0.6735 0.0
C1331 C 0.62878 0.78887 0.69447 0.0
N1332 N 0.69735 0.83178 0.70373 0.0
N1333 N 0.64841 0.79251 0.70968 0.0
H1334 H 0.61959 0.21542 0.4258 0.0
H1335 H 0.72165 0.30632 0.40506 0.0
H1336 H 0.60866 0.28457 0.4796 0.0
H1337 H 0.72976 0.23841 0.35055 0.0
H1338 H 0.68086 0.29828 0.43372 0.0
H1339 H 0.66082 0.22312 0.39898 0.0
C1340 C 0.62591 0.23214 0.4321 0.0
C1341 C 0.61059 0.24931 0.45502 0.0
C1342 C 0.69167 0.28511 0.41555 0.0
C1343 C 0.65774 0.25852 0.42411 0.0
C1344 C 0.71498 0.28961 0.39928 0.0
C1345 C 0.72917 0.27295 0.37549 0.0
C1346 C 0.68257 0.26381 0.4079 0.0
C1347 C 0.71953 0.25174 0.36877 0.0
C1348 C 0.6494 0.23665 0.41664 0.0
C1349 C 0.61958 0.27102 0.46182 0.0
N1350 N 0.69683 0.24782 0.38486 0.0
N1351 N 0.6426 0.275 0.44643 0.0
H1352 H 0.81617 0.61666 0.46712 0.0
H1353 H 0.81764 0.77057 0.40607 0.0
H1354 H 0.76105 0.69257 0.50516 0.0
H1355 H 0.83725 0.70755 0.34178 0.0
H1356 H 0.80283 0.73894 0.44525 0.0
H1357 H 0.82925 0.64653 0.42294 0.0
C1358 C 0.80664 0.63957 0.46598 0.0
C1359 C 0.78749 0.65224 0.48978 0.0
C1360 C 0.81041 0.7319 0.42263 0.0
C1361 C 0.80247 0.68617 0.43986 0.0
C1362 C 0.81917 0.74985 0.40022 0.0
C1363 C 0.82881 0.74163 0.37055 0.0
C1364 C 0.81175 0.70514 0.41576 0.0
C1365 C 0.83004 0.71458 0.36444 0.0
C1366 C 0.81399 0.65648 0.44078 0.0
C1367 C 0.77562 0.68193 0.48721 0.0
N1368 N 0.82171 0.69706 0.38704 0.0
N1369 N 0.78356 0.69789 0.46289 0.0
H1370 H 0.54962 0.81497 0.49067 0.0
H1371 H 0.38947 0.85732 0.47437 0.0
H1372 H 0.48765 0.85007 0.56261 0.0
H1373 H 0.45312 0.82838 0.4014 0.0
H1374 H 0.42403 0.8621 0.50449 0.0
H1375 H 0.51389 0.82826 0.45468 0.0
C1376 C 0.52845 0.82638 0.49851 0.0
C1377 C 0.52137 0.83172 0.52933 0.0
C1378 C 0.43029 0.85526 0.48163 0.0
C1379 C 0.48022 0.84583 0.4889 0.0
C1380 C 0.41062 0.85236 0.4645 0.0
C1381 C 0.41843 0.84222 0.43538 0.0
C1382 C 0.45797 0.84784 0.46961 0.0
C1383 C 0.44603 0.83651 0.42356 0.0
C1384 C 0.50802 0.83377 0.47809 0.0
C1385 C 0.49377 0.84605 0.53877 0.0
N1386 N 0.46482 0.83908 0.44087 0.0
N1387 N 0.47399 0.85214 0.5187 0.0
H1388 H 0.22522 0.43369 0.51517 0.0
H1389 H 0.27394 0.39705 0.34294 0.0
H1390 H 0.25472 0.48834 0.44562 0.0
H1391 H 0.23109 0.35074 0.40788 0.0
H1392 H 0.26349 0.43297 0.37879 0.0
H1393 H 0.22321 0.40556 0.47508 0.0
C1394 C 0.23078 0.44012 0.49142 0.0
C1395 C 0.24035 0.46331 0.48385 0.0
C1396 C 0.25602 0.41516 0.38502 0.0
C1397 C 0.23858 0.43085 0.43783 0.0
C1398 C 0.262 0.39459 0.36454 0.0
C1399 C 0.25358 0.37065 0.37245 0.0
C1400 C 0.2418 0.41164 0.41383 0.0
C1401 C 0.23808 0.36875 0.40076 0.0
C1402 C 0.2297 0.42398 0.46851 0.0
C1403 C 0.24728 0.4706 0.45261 0.0
N1404 N 0.23302 0.38875 0.42057 0.0
N1405 N 0.24665 0.45418 0.43085 0.0
H1406 H 0.42938 0.24902 0.59847 0.0
H1407 H 0.39873 0.25568 0.77735 0.0
H1408 H 0.49587 0.21855 0.6583 0.0
H1409 H 0.34672 0.23072 0.72577 0.0
H1410 H 0.43295 0.25012 0.73267 0.0
H1411 H 0.39611 0.25118 0.64399 0.0
C1412 C 0.43684 0.24279 0.62124 0.0
C1413 C 0.46521 0.23325 0.62491 0.0
C1414 C 0.41419 0.2455 0.7314 0.0
C1415 C 0.42777 0.23612 0.67649 0.0
C1416 C 0.39481 0.24856 0.75678 0.0
C1417 C 0.3703 0.24304 0.75527 0.0
C1418 C 0.40847 0.2378 0.70418 0.0
C1419 C 0.36576 0.23447 0.72797 0.0
C1420 C 0.41802 0.24387 0.64701 0.0
C1421 C 0.47411 0.22553 0.65472 0.0
N1422 N 0.38456 0.23246 0.70323 0.0
N1423 N 0.45539 0.22738 0.67951 0.0
H1424 H 0.77924 0.47995 0.62553 0.0
H1425 H 0.82022 0.38416 0.78424 0.0
H1426 H 0.78165 0.51504 0.70872 0.0
H1427 H 0.78116 0.3599 0.7166 0.0
H1428 H 0.81511 0.42955 0.75259 0.0
H1429 H 0.78807 0.43288 0.65501 0.0
C1430 C 0.78144 0.4777 0.65003 0.0
C1431 C 0.77923 0.50137 0.6649 0.0
C1432 C 0.80794 0.41411 0.74459 0.0
C1433 C 0.78997 0.44787 0.69839 0.0
C1434 C 0.81113 0.38813 0.76241 0.0
C1435 C 0.8012 0.36827 0.75287 0.0
C1436 C 0.79515 0.41997 0.71689 0.0
C1437 C 0.78909 0.37469 0.72472 0.0
C1438 C 0.78649 0.45097 0.66677 0.0
C1439 C 0.78256 0.49742 0.6966 0.0
N1440 N 0.78643 0.40001 0.70765 0.0
N1441 N 0.78792 0.47112 0.7123 0.0
H1442 H 0.30037 0.52848 0.62802 0.0
H1443 H 0.26187 0.69481 0.63124 0.0
H1444 H 0.24885 0.58965 0.56259 0.0
H1445 H 0.28977 0.63349 0.70971 0.0
H1446 H 0.25839 0.65686 0.60454 0.0
H1447 H 0.29731 0.5669 0.6579 0.0
C1448 C 0.28793 0.55005 0.62035 0.0
C1449 C 0.27471 0.55606 0.59303 0.0
C1450 C 0.26521 0.65181 0.62763 0.0
C1451 C 0.27178 0.60017 0.62646 0.0
C1452 C 0.26727 0.67341 0.64287 0.0
C1453 C 0.27627 0.66733 0.67274 0.0
C1454 C 0.27246 0.62392 0.64225 0.0
C1455 C 0.28331 0.63913 0.68649 0.0
C1456 C 0.28627 0.57197 0.6373 0.0
C1457 C 0.25902 0.58426 0.58382 0.0
N1458 N 0.28133 0.61848 0.67109 0.0
N1459 N 0.25831 0.60547 0.60032 0.0
loop_
_geom_bond_atom_site_label_1
_geom_bond_atom_site_label_2
_geom_bond_distance
_geom_bond_site_symmetry_2
_ccdc_geom_bond_type
Cu0 N1 1.999 . S
Cu0 O6 1.974 1_545 S
Cu0 N11 1.985 1_545 S
Cu0 O20 1.961 . S
N1 Cu0 1.999 . S
N1 C3 1.263 . S
N1 C5 1.389 . S
N2 C3 1.358 . S
N2 C4 1.400 . S
C3 N1 1.263 . S
C3 N2 1.358 . S
C3 H9 0.930 . S
C4 N2 1.400 . S
C4 C5 1.351 . S
C4 H21 0.930 . S
C5 N1 1.389 . S
C5 C4 1.351 . S
C5 H10 0.930 . S
O6 Cu0 1.974 1_565 S
O6 C16 1.282 . S
C7 O8 1.261 1_655 S
C7 O20 1.250 1_655 S
O8 C7 1.261 1_455 S
H9 C3 0.930 . S
H10 C5 0.930 . S
N11 Cu0 1.985 1_565 S
N11 C13 1.335 1_455 S
N11 C14 1.390 . S
N12 C13 1.345 . S
N12 C15 1.336 1_655 S
C13 N11 1.335 1_655 S
C13 N12 1.345 . S
C13 H18 0.930 . S
C14 N11 1.390 . S
C14 C15 1.346 . S
C14 H19 0.930 . S
C15 N12 1.336 1_455 S
C15 C14 1.346 . S
C15 H22 0.929 . S
C16 O6 1.282 . S
C16 O17 1.216 . S
O17 C16 1.216 . S
H18 C13 0.930 . S
H19 C14 0.930 . S
O20 Cu0 1.961 . S
O20 C7 1.250 1_455 S
H21 C4 0.930 . S
H22 C15 0.929 . S
Cu23 N24 1.999 . S
Cu23 O29 1.974 1_455 S
Cu23 N34 1.985 . S
Cu23 O43 1.959 . S
N24 Cu23 1.999 . S
N24 C26 1.263 1_455 S
N24 C28 1.389 1_545 S
N25 C26 1.358 . S
N25 C27 1.400 1_545 S
C26 N24 1.263 1_655 S
C26 N25 1.358 . S
C26 H32 0.930 . S
C27 N25 1.400 1_565 S
C27 C28 1.351 1_655 S
C27 H44 0.930 . S
C28 N24 1.389 1_565 S
C28 C27 1.351 1_455 S
C28 H33 0.930 . S
O29 Cu23 1.974 1_655 S
O29 C39 1.282 . S
C30 O31 1.261 . S
C30 O43 1.251 . S
O31 C30 1.261 . S
H32 C26 0.930 . S
H33 C28 0.930 . S
N34 Cu23 1.985 . S
N34 C36 1.335 . S
N34 C37 1.390 . S
N35 C36 1.345 . S
N35 C38 1.336 . S
C36 N34 1.335 . S
C36 N35 1.345 . S
C36 H41 0.930 . S
C37 N34 1.390 . S
C37 C38 1.346 . S
C37 H42 0.930 . S
C38 N35 1.336 . S
C38 C37 1.346 . S
C38 H45 0.929 . S
C39 O29 1.282 . S
C39 O40 1.216 . S
O40 C39 1.216 . S
H41 C36 0.930 . S
H42 C37 0.930 . S
O43 Cu23 1.959 . S
O43 C30 1.251 . S
H44 C27 0.930 . S
H45 C38 0.929 . S
Cu46 N47 1.999 . S
Cu46 O52 1.974 . S
Cu46 N57 1.985 . S
Cu46 O66 1.959 . S
N47 Cu46 1.999 . S
N47 C49 1.263 . S
N47 C51 1.389 . S
N48 C49 1.358 1_565 S
N48 C50 1.400 1_565 S
C49 N47 1.263 . S
C49 N48 1.358 1_545 S
C49 H55 0.930 . S
C50 N48 1.400 1_545 S
C50 C51 1.351 . S
C50 H67 0.930 1_554 S
C51 N47 1.389 . S
C51 C50 1.351 . S
C51 H56 0.930 . S
O52 Cu46 1.974 . S
O52 C62 1.282 . S
C53 O54 1.261 . S
C53 O66 1.251 . S
O54 C53 1.261 . S
H55 C49 0.930 . S
H56 C51 0.930 . S
N57 Cu46 1.985 . S
N57 C59 1.335 . S
N57 C60 1.390 . S
N58 C59 1.345 . S
N58 C61 1.336 . S
C59 N57 1.335 . S
C59 N58 1.345 . S
C59 H64 0.930 . S
C60 N57 1.390 . S
C60 C61 1.346 . S
C60 H65 0.930 . S
C61 N58 1.336 . S
C61 C60 1.346 . S
C61 H68 0.929 . S
C62 O52 1.282 . S
C62 O63 1.216 . S
O63 C62 1.216 . S
H64 C59 0.930 . S
H65 C60 0.930 . S
O66 Cu46 1.959 . S
O66 C53 1.251 . S
H67 C50 0.930 1_556 S
H68 C61 0.929 . S
Cu69 N70 1.999 . S
Cu69 O75 1.974 . S
Cu69 N80 1.985 . S
Cu69 O89 1.959 . S
N70 Cu69 1.999 . S
N70 C72 1.263 . S
N70 C74 1.389 . S
N71 C72 1.358 . S
N71 C73 1.400 1_554 S
C72 N70 1.263 . S
C72 N71 1.358 . S
C72 H78 0.930 . S
C73 N71 1.400 1_556 S
C73 C74 1.351 1_556 S
C73 H90 0.930 . S
C74 N70 1.389 . S
C74 C73 1.351 1_554 S
C74 H79 0.930 1_554 S
O75 Cu69 1.974 . S
O75 C85 1.282 . S
C76 O77 1.261 . S
C76 O89 1.251 . S
O77 C76 1.261 . S
H78 C72 0.930 . S
H79 C74 0.930 1_556 S
N80 Cu69 1.985 . S
N80 C82 1.335 1_455 S
N80 C83 1.390 . S
N81 C82 1.345 . S
N81 C84 1.336 1_655 S
C82 N80 1.335 1_655 S
C82 N81 1.345 . S
C82 H87 0.930 . S
C83 N80 1.390 . S
C83 C84 1.346 . S
C83 H88 0.930 . S
C84 N81 1.336 1_455 S
C84 C83 1.346 . S
C84 H91 0.929 . S
C85 O75 1.282 . S
C85 O86 1.216 . S
O86 C85 1.216 . S
H87 C82 0.930 . S
H88 C83 0.930 . S
O89 Cu69 1.959 . S
O89 C76 1.251 . S
H90 C73 0.930 . S
H91 C84 0.929 . S
Cu92 N93 1.999 1_554 S
Cu92 O98 1.974 . S
Cu92 N103 1.985 1_545 S
Cu92 O112 1.959 1_544 S
N93 Cu92 1.999 1_556 S
N93 C95 1.263 . S
N93 C97 1.389 . S
N94 C95 1.358 . S
N94 C96 1.400 . S
C95 N93 1.263 . S
C95 N94 1.358 . S
C95 H101 0.930 . S
C96 N94 1.400 . S
C96 C97 1.351 . S
C96 H113 0.930 . S
C97 N93 1.389 . S
C97 C96 1.351 . S
C97 H102 0.930 . S
O98 Cu92 1.974 . S
O98 C108 1.282 . S
C99 O100 1.261 . S
C99 O112 1.251 . S
O100 C99 1.261 . S
H101 C95 0.930 . S
H102 C97 0.930 . S
N103 Cu92 1.985 1_565 S
N103 C105 1.335 . S
N103 C106 1.390 . S
N104 C105 1.345 . S
N104 C107 1.336 . S
C105 N103 1.335 . S
C105 N104 1.345 . S
C105 H110 0.930 . S
C106 N103 1.390 . S
C106 C107 1.346 . S
C106 H111 0.930 . S
C107 N104 1.336 . S
C107 C106 1.346 . S
C107 H114 0.929 . S
C108 O98 1.282 . S
C108 O109 1.216 . S
O109 C108 1.216 . S
H110 C105 0.930 . S
H111 C106 0.930 . S
O112 Cu92 1.959 1_566 S
O112 C99 1.251 . S
H113 C96 0.930 . S
H114 C107 0.929 . S
Cu115 N116 1.999 1_454 S
Cu115 O121 1.974 1_455 S
Cu115 N126 1.985 . S
Cu115 O135 1.959 1_554 S
N116 Cu115 1.999 1_656 S
N116 C118 1.263 . S
N116 C120 1.393 . S
N117 C118 1.358 . S
N117 C119 1.400 . S
C118 N116 1.263 . S
C118 N117 1.358 . S
C118 H124 0.946 . S
C119 N117 1.400 . S
C119 C120 1.378 . S
C119 H136 0.930 . S
C120 N116 1.393 . S
C120 C119 1.378 . S
C120 H125 0.904 1_655 S
O121 Cu115 1.974 1_655 S
O121 C131 1.282 . S
C122 O123 1.261 . S
C122 O135 1.251 . S
O123 C122 1.261 . S
H124 C118 0.946 . S
H125 C120 0.904 1_455 S
N126 Cu115 1.985 . S
N126 C128 1.335 . S
N126 C129 1.390 . S
N127 C128 1.345 . S
N127 C130 1.336 . S
C128 N126 1.335 . S
C128 N127 1.345 . S
C128 H133 0.930 . S
C129 N126 1.390 . S
C129 C130 1.346 . S
C129 H134 0.930 . S
C130 N127 1.336 . S
C130 C129 1.346 . S
C130 H137 0.929 . S
C131 O121 1.282 . S
C131 O132 1.216 . S
O132 C131 1.216 . S
H133 C128 0.930 . S
H134 C129 0.930 . S
O135 Cu115 1.959 1_556 S
O135 C122 1.251 . S
H136 C119 0.930 . S
H137 C130 0.929 . S
Cu138 N139 1.999 . S
Cu138 O144 1.974 . S
Cu138 N149 1.985 . S
Cu138 O158 1.959 . S
N139 Cu138 1.999 . S
N139 C141 1.263 . S
N139 C143 1.389 . S
N140 C141 1.358 . S
N140 C142 1.400 . S
C141 N139 1.263 . S
C141 N140 1.358 . S
C141 H147 0.930 . S
C142 N140 1.400 . S
C142 C143 1.351 . S
C142 H159 0.930 . S
C143 N139 1.389 . S
C143 C142 1.351 . S
C143 H148 0.930 . S
O144 Cu138 1.974 . S
O144 C154 1.282 . S
C145 O146 1.261 . S
C145 O158 1.251 . S
O146 C145 1.261 . S
H147 C141 0.930 . S
H148 C143 0.930 . S
N149 Cu138 1.985 . S
N149 C151 1.335 . S
N149 C152 1.390 . S
N150 C151 1.345 . S
N150 C153 1.336 . S
C151 N149 1.335 . S
C151 N150 1.345 . S
C151 H156 0.930 . S
C152 N149 1.390 . S
C152 C153 1.346 . S
C152 H157 0.930 . S
C153 N150 1.336 . S
C153 C152 1.346 . S
C153 H160 0.929 . S
C154 O144 1.282 . S
C154 O155 1.216 . S
O155 C154 1.216 . S
H156 C151 0.930 . S
H157 C152 0.930 . S
O158 Cu138 1.959 . S
O158 C145 1.251 . S
H159 C142 0.930 . S
H160 C153 0.929 . S
Cu161 N162 1.999 . S
Cu161 O167 1.974 . S
Cu161 N172 1.985 . S
Cu161 O181 1.959 . S
N162 Cu161 1.999 . S
N162 C164 1.263 . S
N162 C166 1.389 . S
N163 C164 1.358 . S
N163 C165 1.400 . S
C164 N162 1.263 . S
C164 N163 1.358 . S
C164 H170 0.930 . S
C165 N163 1.400 . S
C165 C166 1.351 . S
C165 H182 0.930 . S
C166 N162 1.389 . S
C166 C165 1.351 . S
C166 H171 0.930 . S
O167 Cu161 1.974 . S
O167 C177 1.282 . S
C168 O169 1.261 . S
C168 O181 1.251 . S
O169 C168 1.261 . S
H170 C164 0.930 . S
H171 C166 0.930 . S
N172 Cu161 1.985 . S
N172 C174 1.335 . S
N172 C175 1.390 . S
N173 C174 1.345 . S
N173 C176 1.336 . S
C174 N172 1.335 . S
C174 N173 1.345 . S
C174 H179 0.930 . S
C175 N172 1.390 . S
C175 C176 1.346 . S
C175 H180 0.930 . S
C176 N173 1.336 . S
C176 C175 1.346 . S
C176 H183 0.929 . S
C177 O167 1.282 . S
C177 O178 1.216 . S
O178 C177 1.216 . S
H179 C174 0.930 . S
H180 C175 0.930 . S
O181 Cu161 1.959 . S
O181 C168 1.251 . S
H182 C165 0.930 . S
H183 C176 0.929 . S
Cu184 N185 1.999 . S
Cu184 O190 1.974 . S
Cu184 N195 1.985 . S
Cu184 O204 1.959 . S
N185 Cu184 1.999 . S
N185 C187 1.263 . S
N185 C189 1.389 . S
N186 C187 1.358 . S
N186 C188 1.400 . S
C187 N185 1.263 . S
C187 N186 1.358 . S
C187 H193 0.930 . S
C188 N186 1.400 . S
C188 C189 1.351 . S
C188 H205 0.930 . S
C189 N185 1.389 . S
C189 C188 1.351 . S
C189 H194 0.930 . S
O190 Cu184 1.974 . S
O190 C200 1.282 . S
C191 O192 1.261 . S
C191 O204 1.251 . S
O192 C191 1.261 . S
H193 C187 0.930 . S
H194 C189 0.930 . S
N195 Cu184 1.985 . S
N195 C197 1.335 . S
N195 C198 1.390 . S
N196 C197 1.345 . S
N196 C199 1.336 . S
C197 N195 1.335 . S
C197 N196 1.345 . S
C197 H202 0.930 . S
C198 N195 1.390 . S
C198 C199 1.346 . S
C198 H203 0.930 . S
C199 N196 1.336 . S
C199 C198 1.346 . S
C199 H206 0.929 . S
C200 O190 1.282 . S
C200 O201 1.216 . S
O201 C200 1.216 . S
H202 C197 0.930 . S
H203 C198 0.930 . S
O204 Cu184 1.959 . S
O204 C191 1.251 . S
H205 C188 0.930 . S
H206 C199 0.929 . S
Cu207 N208 1.999 . S
Cu207 O213 1.974 . S
Cu207 N218 1.985 . S
Cu207 O227 1.959 . S
N208 Cu207 1.999 . S
N208 C210 1.263 . S
N208 C212 1.389 . S
N209 C210 1.358 . S
N209 C211 1.400 . S
C210 N208 1.263 . S
C210 N209 1.358 . S
C210 H216 0.930 . S
C211 N209 1.400 . S
C211 C212 1.351 . S
C211 H228 0.930 . S
C212 N208 1.389 . S
C212 C211 1.351 . S
C212 H217 0.930 . S
O213 Cu207 1.974 . S
O213 C223 1.282 . S
C214 O215 1.261 . S
C214 O227 1.251 . S
O215 C214 1.261 . S
H216 C210 0.930 . S
H217 C212 0.930 . S
N218 Cu207 1.985 . S
N218 C220 1.335 . S
N218 C221 1.390 . S
N219 C220 1.345 . S
N219 C222 1.336 . S
C220 N218 1.335 . S
C220 N219 1.345 . S
C220 H225 0.930 . S
C221 N218 1.390 . S
C221 C222 1.346 . S
C221 H226 0.930 . S
C222 N219 1.336 . S
C222 C221 1.346 . S
C222 H229 0.929 . S
C223 O213 1.282 . S
C223 O224 1.216 . S
O224 C223 1.216 . S
H225 C220 0.930 . S
H226 C221 0.930 . S
O227 Cu207 1.959 . S
O227 C214 1.251 . S
H228 C211 0.930 . S
H229 C222 0.929 . S
Cu230 N231 1.999 . S
Cu230 O236 1.974 . S
Cu230 N241 1.985 . S
Cu230 O250 1.959 . S
N231 Cu230 1.999 . S
N231 C233 1.263 . S
N231 C235 1.389 . S
N232 C233 1.358 . S
N232 C234 1.400 . S
C233 N231 1.263 . S
C233 N232 1.358 . S
C233 H239 0.930 . S
C234 N232 1.400 . S
C234 C235 1.351 . S
C234 H251 0.930 . S
C235 N231 1.389 . S
C235 C234 1.351 . S
C235 H240 0.930 . S
O236 Cu230 1.974 . S
O236 C246 1.282 . S
C237 O238 1.261 . S
C237 O250 1.251 . S
O238 C237 1.261 . S
H239 C233 0.930 . S
H240 C235 0.930 . S
N241 Cu230 1.985 . S
N241 C243 1.335 . S
N241 C244 1.390 . S
N242 C243 1.345 . S
N242 C245 1.336 . S
C243 N241 1.335 . S
C243 N242 1.345 . S
C243 H248 0.930 . S
C244 N241 1.390 . S
C244 C245 1.346 . S
C244 H249 0.930 . S
C245 N242 1.336 . S
C245 C244 1.346 . S
C245 H252 0.929 . S
C246 O236 1.282 . S
C246 O247 1.216 . S
O247 C246 1.216 . S
H248 C243 0.930 . S
H249 C244 0.930 . S
O250 Cu230 1.959 . S
O250 C237 1.251 . S
H251 C234 0.930 . S
H252 C245 0.929 . S
Cu253 N254 1.999 . S
Cu253 O259 1.974 . S
Cu253 N264 1.985 . S
Cu253 O273 1.959 . S
N254 Cu253 1.999 . S
N254 C256 1.263 . S
N254 C258 1.389 . S
N255 C256 1.358 . S
N255 C257 1.400 . S
C256 N254 1.263 . S
C256 N255 1.358 . S
C256 H262 0.930 . S
C257 N255 1.400 . S
C257 C258 1.351 . S
C257 H274 0.930 . S
C258 N254 1.389 . S
C258 C257 1.351 . S
C258 H263 0.930 . S
O259 Cu253 1.974 . S
O259 C269 1.282 . S
C260 O261 1.261 . S
C260 O273 1.251 . S
O261 C260 1.261 . S
H262 C256 0.930 . S
H263 C258 0.930 . S
N264 Cu253 1.985 . S
N264 C266 1.335 . S
N264 C267 1.390 . S
N265 C266 1.345 . S
N265 C268 1.336 . S
C266 N264 1.335 . S
C266 N265 1.345 . S
C266 H271 0.930 . S
C267 N264 1.390 . S
C267 C268 1.346 . S
C267 H272 0.930 . S
C268 N265 1.336 . S
C268 C267 1.346 . S
C268 H275 0.929 . S
C269 O259 1.282 . S
C269 O270 1.216 . S
O270 C269 1.216 . S
H271 C266 0.930 . S
H272 C267 0.930 . S
O273 Cu253 1.959 . S
O273 C260 1.251 . S
H274 C257 0.930 . S
H275 C268 0.929 . S
Sm276 C278 2.846 . S
Sm276 O296 2.543 . S
Sm276 O297 2.450 . S
Sm276 O298 2.681 . S
Sm276 O299 2.464 . S
Sm276 O300 2.396 . S
Sm276 O304 2.386 . S
Sm276 O307 2.408 . S
Sm277 C287 2.846 . S
Sm277 O298 2.386 . S
Sm277 O301 2.408 . S
Sm277 O302 2.543 . S
Sm277 O303 2.450 . S
Sm277 O304 2.681 . S
Sm277 O305 2.464 . S
Sm277 O306 2.396 . S
C278 Sm276 2.846 . S
C278 C279 1.506 . S
C278 O296 1.261 . S
C278 O297 1.242 . S
C279 C278 1.506 . S
C279 C280 1.358 . S
C279 C284 1.382 . S
C280 C279 1.358 . S
C280 C281 1.385 . S
C280 H308 0.930 . S
C281 C280 1.385 . S
C281 C282 1.395 . S
C281 H309 0.929 . S
C282 C281 1.395 . S
C282 C283 1.335 . S
C283 C282 1.335 . S
C283 C284 1.398 . S
C283 H310 0.930 . S
C284 C279 1.382 . S
C284 C283 1.398 . S
C284 H311 0.929 . S
C285 O298 1.271 . S
C285 O299 1.251 . S
C286 O300 1.252 . S
C286 O301 1.272 . S
C287 Sm277 2.846 . S
C287 C288 1.506 . S
C287 O302 1.261 . S
C287 O303 1.242 . S
C288 C287 1.506 . S
C288 C289 1.358 . S
C288 C293 1.382 . S
C289 C288 1.358 . S
C289 C290 1.385 . S
C289 H312 0.930 . S
C290 C289 1.385 . S
C290 C291 1.395 . S
C290 H313 0.929 . S
C291 C290 1.395 . S
C291 C292 1.335 . S
C292 C291 1.335 . S
C292 C293 1.398 . S
C292 H314 0.930 . S
C293 C288 1.382 . S
C293 C292 1.398 . S
C293 H315 0.929 . S
C294 O304 1.271 . S
C294 O305 1.251 . S
C295 O306 1.252 . S
C295 O307 1.272 . S
O296 Sm276 2.543 . S
O296 C278 1.261 . S
O297 Sm276 2.450 . S
O297 C278 1.242 . S
O298 Sm276 2.681 . S
O298 Sm277 2.386 . S
O298 C285 1.271 . S
O299 Sm276 2.464 . S
O299 C285 1.251 . S
O300 Sm276 2.396 . S
O300 C286 1.252 . S
O301 Sm277 2.408 . S
O301 C286 1.272 . S
O302 Sm277 2.543 . S
O302 C287 1.261 . S
O303 Sm277 2.450 . S
O303 C287 1.242 . S
O304 Sm276 2.386 . S
O304 Sm277 2.681 . S
O304 C294 1.271 . S
O305 Sm277 2.464 . S
O305 C294 1.251 . S
O306 Sm277 2.396 . S
O306 C295 1.252 . S
O307 Sm276 2.408 . S
O307 C295 1.272 . S
H308 C280 0.930 . S
H309 C281 0.929 . S
H310 C283 0.930 . S
H311 C284 0.929 . S
H312 C289 0.930 . S
H313 C290 0.929 . S
H314 C292 0.930 . S
H315 C293 0.929 . S
Sm316 C318 2.846 . S
Sm316 O336 2.543 . S
Sm316 O337 2.450 . S
Sm316 O338 2.681 . S
Sm316 O339 2.464 . S
Sm316 O340 2.396 . S
Sm316 O344 2.386 . S
Sm316 O347 2.408 . S
Sm317 C327 2.846 . S
Sm317 O338 2.386 . S
Sm317 O341 2.408 . S
Sm317 O342 2.543 . S
Sm317 O343 2.450 . S
Sm317 O344 2.681 . S
Sm317 O345 2.464 . S
Sm317 O346 2.396 . S
C318 Sm316 2.846 . S
C318 C319 1.506 . S
C318 O336 1.261 . S
C318 O337 1.242 . S
C319 C318 1.506 . S
C319 C320 1.358 . S
C319 C324 1.382 . S
C320 C319 1.358 . S
C320 C321 1.385 . S
C320 H348 0.930 . S
C321 C320 1.385 . S
C321 C322 1.395 . S
C321 H349 0.929 . S
C322 C321 1.395 . S
C322 C323 1.335 . S
C323 C322 1.335 . S
C323 C324 1.398 . S
C323 H350 0.930 . S
C324 C319 1.382 . S
C324 C323 1.398 . S
C324 H351 0.929 . S
C325 O338 1.271 . S
C325 O339 1.251 . S
C326 O340 1.252 . S
C326 O341 1.272 . S
C327 Sm317 2.846 . S
C327 C328 1.506 . S
C327 O342 1.261 . S
C327 O343 1.242 . S
C328 C327 1.506 . S
C328 C329 1.358 . S
C328 C333 1.382 . S
C329 C328 1.358 . S
C329 C330 1.385 . S
C329 H352 0.930 . S
C330 C329 1.385 . S
C330 C331 1.395 . S
C330 H353 0.929 . S
C331 C330 1.395 . S
C331 C332 1.335 . S
C332 C331 1.335 . S
C332 C333 1.398 . S
C332 H354 0.930 . S
C333 C328 1.382 . S
C333 C332 1.398 . S
C333 H355 0.929 . S
C334 O344 1.271 . S
C334 O345 1.251 . S
C335 O346 1.252 . S
C335 O347 1.272 . S
O336 Sm316 2.543 . S
O336 C318 1.261 . S
O337 Sm316 2.450 . S
O337 C318 1.242 . S
O338 Sm316 2.681 . S
O338 Sm317 2.386 . S
O338 C325 1.271 . S
O339 Sm316 2.464 . S
O339 C325 1.251 . S
O340 Sm316 2.396 . S
O340 C326 1.252 . S
O341 Sm317 2.408 . S
O341 C326 1.272 . S
O342 Sm317 2.543 . S
O342 C327 1.261 . S
O343 Sm317 2.450 . S
O343 C327 1.242 . S
O344 Sm316 2.386 . S
O344 Sm317 2.681 . S
O344 C334 1.271 . S
O345 Sm317 2.464 . S
O345 C334 1.251 . S
O346 Sm317 2.396 . S
O346 C335 1.252 . S
O347 Sm316 2.408 . S
O347 C335 1.272 . S
H348 C320 0.930 . S
H349 C321 0.929 . S
H350 C323 0.930 . S
H351 C324 0.929 . S
H352 C329 0.930 . S
H353 C330 0.929 . S
H354 C332 0.930 . S
H355 C333 0.929 . S
Sm356 C358 2.846 . S
Sm356 O376 2.543 . S
Sm356 O377 2.450 . S
Sm356 O378 2.681 . S
Sm356 O379 2.464 . S
Sm356 O380 2.396 . S
Sm356 O384 2.386 . S
Sm356 O387 2.408 . S
Sm357 C367 2.846 . S
Sm357 O378 2.386 . S
Sm357 O381 2.408 . S
Sm357 O382 2.543 . S
Sm357 O383 2.450 . S
Sm357 O384 2.681 . S
Sm357 O385 2.464 . S
Sm357 O386 2.396 . S
C358 Sm356 2.846 . S
C358 C359 1.506 . S
C358 O376 1.261 . S
C358 O377 1.242 . S
C359 C358 1.506 . S
C359 C360 1.358 . S
C359 C364 1.382 . S
C360 C359 1.358 . S
C360 C361 1.385 . S
C360 H388 0.930 . S
C361 C360 1.385 . S
C361 C362 1.395 . S
C361 H389 0.929 . S
C362 C361 1.395 . S
C362 C363 1.335 . S
C363 C362 1.335 . S
C363 C364 1.398 . S
C363 H390 0.930 . S
C364 C359 1.382 . S
C364 C363 1.398 . S
C364 H391 0.929 . S
C365 O378 1.271 . S
C365 O379 1.251 . S
C366 O380 1.252 . S
C366 O381 1.272 . S
C367 Sm357 2.846 . S
C367 C368 1.506 . S
C367 O382 1.261 . S
C367 O383 1.242 . S
C368 C367 1.506 . S
C368 C369 1.358 . S
C368 C373 1.382 . S
C369 C368 1.358 . S
C369 C370 1.385 . S
C369 H392 0.930 . S
C370 C369 1.385 . S
C370 C371 1.395 . S
C370 H393 0.929 . S
C371 C370 1.395 . S
C371 C372 1.335 . S
C372 C371 1.335 . S
C372 C373 1.398 . S
C372 H394 0.930 . S
C373 C368 1.382 . S
C373 C372 1.398 . S
C373 H395 0.929 . S
C374 O384 1.271 . S
C374 O385 1.251 . S
C375 O386 1.252 . S
C375 O387 1.272 . S
O376 Sm356 2.543 . S
O376 C358 1.261 . S
O377 Sm356 2.450 . S
O377 C358 1.242 . S
O378 Sm356 2.681 . S
O378 Sm357 2.386 . S
O378 C365 1.271 . S
O379 Sm356 2.464 . S
O379 C365 1.251 . S
O380 Sm356 2.396 . S
O380 C366 1.252 . S
O381 Sm357 2.408 . S
O381 C366 1.272 . S
O382 Sm357 2.543 . S
O382 C367 1.261 . S
O383 Sm357 2.450 . S
O383 C367 1.242 . S
O384 Sm356 2.386 . S
O384 Sm357 2.681 . S
O384 C374 1.271 . S
O385 Sm357 2.464 . S
O385 C374 1.251 . S
O386 Sm357 2.396 . S
O386 C375 1.252 . S
O387 Sm356 2.408 . S
O387 C375 1.272 . S
H388 C360 0.930 . S
H389 C361 0.929 . S
H390 C363 0.930 . S
H391 C364 0.929 . S
H392 C369 0.930 . S
H393 C370 0.929 . S
H394 C372 0.930 . S
H395 C373 0.929 . S
Sm396 C398 2.846 . S
Sm396 O416 2.543 . S
Sm396 O417 2.450 . S
Sm396 O418 2.681 . S
Sm396 O419 2.464 . S
Sm396 O420 2.396 . S
Sm396 O424 2.386 . S
Sm396 O427 2.408 . S
Sm397 C407 2.846 . S
Sm397 O418 2.386 . S
Sm397 O421 2.408 . S
Sm397 O422 2.543 . S
Sm397 O423 2.450 . S
Sm397 O424 2.681 . S
Sm397 O425 2.464 . S
Sm397 O426 2.396 . S
C398 Sm396 2.846 . S
C398 C399 1.506 . S
C398 O416 1.261 . S
C398 O417 1.242 . S
C399 C398 1.506 . S
C399 C400 1.358 . S
C399 C404 1.382 . S
C400 C399 1.358 . S
C400 C401 1.385 . S
C400 H428 0.930 . S
C401 C400 1.385 . S
C401 C402 1.395 . S
C401 H429 0.929 . S
C402 C401 1.395 . S
C402 C403 1.335 . S
C403 C402 1.335 . S
C403 C404 1.398 . S
C403 H430 0.930 . S
C404 C399 1.382 . S
C404 C403 1.398 . S
C404 H431 0.929 . S
C405 O418 1.271 . S
C405 O419 1.251 . S
C406 O420 1.252 . S
C406 O421 1.272 . S
C407 Sm397 2.846 . S
C407 C408 1.506 . S
C407 O422 1.261 . S
C407 O423 1.242 . S
C408 C407 1.506 . S
C408 C409 1.358 . S
C408 C413 1.382 . S
C409 C408 1.358 . S
C409 C410 1.385 . S
C409 H432 0.930 . S
C410 C409 1.385 . S
C410 C411 1.395 . S
C410 H433 0.929 . S
C411 C410 1.395 . S
C411 C412 1.335 . S
C412 C411 1.335 . S
C412 C413 1.398 . S
C412 H434 0.930 . S
C413 C408 1.382 . S
C413 C412 1.398 . S
C413 H435 0.929 . S
C414 O424 1.271 . S
C414 O425 1.251 . S
C415 O426 1.252 . S
C415 O427 1.272 . S
O416 Sm396 2.543 . S
O416 C398 1.261 . S
O417 Sm396 2.450 . S
O417 C398 1.242 . S
O418 Sm396 2.681 . S
O418 Sm397 2.386 . S
O418 C405 1.271 . S
O419 Sm396 2.464 . S
O419 C405 1.251 . S
O420 Sm396 2.396 . S
O420 C406 1.252 . S
O421 Sm397 2.408 . S
O421 C406 1.272 . S
O422 Sm397 2.543 . S
O422 C407 1.261 . S
O423 Sm397 2.450 . S
O423 C407 1.242 . S
O424 Sm396 2.386 . S
O424 Sm397 2.681 . S
O424 C414 1.271 . S
O425 Sm397 2.464 . S
O425 C414 1.251 . S
O426 Sm397 2.396 . S
O426 C415 1.252 . S
O427 Sm396 2.408 . S
O427 C415 1.272 . S
H428 C400 0.930 . S
H429 C401 0.929 . S
H430 C403 0.930 . S
H431 C404 0.929 . S
H432 C409 0.930 . S
H433 C410 0.929 . S
H434 C412 0.930 . S
H435 C413 0.929 . S
Sm436 C438 2.846 . S
Sm436 O456 2.543 . S
Sm436 O457 2.450 . S
Sm436 O458 2.681 . S
Sm436 O459 2.464 . S
Sm436 O460 2.396 . S
Sm436 O464 2.386 . S
Sm436 O467 2.408 . S
Sm437 C447 2.846 . S
Sm437 O458 2.386 . S
Sm437 O461 2.408 . S
Sm437 O462 2.543 . S
Sm437 O463 2.450 . S
Sm437 O464 2.681 . S
Sm437 O465 2.464 . S
Sm437 O466 2.396 . S
C438 Sm436 2.846 . S
C438 C439 1.506 . S
C438 O456 1.261 . S
C438 O457 1.242 . S
C439 C438 1.506 . S
C439 C440 1.358 . S
C439 C444 1.382 . S
C440 C439 1.358 . S
C440 C441 1.385 . S
C440 H468 0.930 . S
C441 C440 1.385 . S
C441 C442 1.395 . S
C441 H469 0.929 . S
C442 C441 1.395 . S
C442 C443 1.335 . S
C443 C442 1.335 . S
C443 C444 1.398 . S
C443 H470 0.930 . S
C444 C439 1.382 . S
C444 C443 1.398 . S
C444 H471 0.929 . S
C445 O458 1.271 . S
C445 O459 1.251 . S
C446 O460 1.252 . S
C446 O461 1.272 . S
C447 Sm437 2.846 . S
C447 C448 1.506 . S
C447 O462 1.261 . S
C447 O463 1.242 . S
C448 C447 1.506 . S
C448 C449 1.358 . S
C448 C453 1.382 . S
C449 C448 1.358 . S
C449 C450 1.385 . S
C449 H472 0.930 . S
C450 C449 1.385 . S
C450 C451 1.395 . S
C450 H473 0.929 . S
C451 C450 1.395 . S
C451 C452 1.335 . S
C452 C451 1.335 . S
C452 C453 1.398 . S
C452 H474 0.930 . S
C453 C448 1.382 . S
C453 C452 1.398 . S
C453 H475 0.929 . S
C454 O464 1.271 . S
C454 O465 1.251 . S
C455 O466 1.252 . S
C455 O467 1.272 . S
O456 Sm436 2.543 . S
O456 C438 1.261 . S
O457 Sm436 2.450 . S
O457 C438 1.242 . S
O458 Sm436 2.681 . S
O458 Sm437 2.386 . S
O458 C445 1.271 . S
O459 Sm436 2.464 . S
O459 C445 1.251 . S
O460 Sm436 2.396 . S
O460 C446 1.252 . S
O461 Sm437 2.408 . S
O461 C446 1.272 . S
O462 Sm437 2.543 . S
O462 C447 1.261 . S
O463 Sm437 2.450 . S
O463 C447 1.242 . S
O464 Sm436 2.386 . S
O464 Sm437 2.681 . S
O464 C454 1.271 . S
O465 Sm437 2.464 . S
O465 C454 1.251 . S
O466 Sm437 2.396 . S
O466 C455 1.252 . S
O467 Sm436 2.408 . S
O467 C455 1.272 . S
H468 C440 0.930 . S
H469 C441 0.929 . S
H470 C443 0.930 . S
H471 C444 0.929 . S
H472 C449 0.930 . S
H473 C450 0.929 . S
H474 C452 0.930 . S
H475 C453 0.929 . S
Sm476 C478 2.846 . S
Sm476 O496 2.543 . S
Sm476 O497 2.450 . S
Sm476 O498 2.681 . S
Sm476 O499 2.464 . S
Sm476 O500 2.396 . S
Sm476 O504 2.386 . S
Sm476 O507 2.408 . S
Sm477 C487 2.846 . S
Sm477 O498 2.386 . S
Sm477 O501 2.408 . S
Sm477 O502 2.543 . S
Sm477 O503 2.450 . S
Sm477 O504 2.681 . S
Sm477 O505 2.464 . S
Sm477 O506 2.396 . S
C478 Sm476 2.846 . S
C478 C479 1.506 . S
C478 O496 1.261 . S
C478 O497 1.242 . S
C479 C478 1.506 . S
C479 C480 1.358 . S
C479 C484 1.382 . S
C480 C479 1.358 . S
C480 C481 1.385 . S
C480 H508 0.930 . S
C481 C480 1.385 . S
C481 C482 1.395 . S
C481 H509 0.929 . S
C482 C481 1.395 . S
C482 C483 1.335 . S
C483 C482 1.335 . S
C483 C484 1.398 . S
C483 H510 0.930 . S
C484 C479 1.382 . S
C484 C483 1.398 . S
C484 H511 0.929 . S
C485 O498 1.271 . S
C485 O499 1.251 . S
C486 O500 1.252 . S
C486 O501 1.272 . S
C487 Sm477 2.846 . S
C487 C488 1.506 . S
C487 O502 1.261 . S
C487 O503 1.242 . S
C488 C487 1.506 . S
C488 C489 1.358 . S
C488 C493 1.382 . S
C489 C488 1.358 . S
C489 C490 1.385 . S
C489 H512 0.930 . S
C490 C489 1.385 . S
C490 C491 1.395 . S
C490 H513 0.929 . S
C491 C490 1.395 . S
C491 C492 1.335 . S
C492 C491 1.335 . S
C492 C493 1.398 . S
C492 H514 0.930 . S
C493 C488 1.382 . S
C493 C492 1.398 . S
C493 H515 0.929 . S
C494 O504 1.271 . S
C494 O505 1.251 . S
C495 O506 1.252 . S
C495 O507 1.272 . S
O496 Sm476 2.543 . S
O496 C478 1.261 . S
O497 Sm476 2.450 . S
O497 C478 1.242 . S
O498 Sm476 2.681 . S
O498 Sm477 2.386 . S
O498 C485 1.271 . S
O499 Sm476 2.464 . S
O499 C485 1.251 . S
O500 Sm476 2.396 . S
O500 C486 1.252 . S
O501 Sm477 2.408 . S
O501 C486 1.272 . S
O502 Sm477 2.543 . S
O502 C487 1.261 . S
O503 Sm477 2.450 . S
O503 C487 1.242 . S
O504 Sm476 2.386 . S
O504 Sm477 2.681 . S
O504 C494 1.271 . S
O505 Sm477 2.464 . S
O505 C494 1.251 . S
O506 Sm477 2.396 . S
O506 C495 1.252 . S
O507 Sm476 2.408 . S
O507 C495 1.272 . S
H508 C480 0.930 . S
H509 C481 0.929 . S
H510 C483 0.930 . S
H511 C484 0.929 . S
H512 C489 0.930 . S
H513 C490 0.929 . S
H514 C492 0.930 . S
H515 C493 0.929 . S
Sm516 C518 2.846 . S
Sm516 O536 2.543 . S
Sm516 O537 2.450 . S
Sm516 O538 2.681 . S
Sm516 O539 2.464 . S
Sm516 O540 2.396 . S
Sm516 O544 2.386 . S
Sm516 O547 2.408 . S
Sm517 C527 2.846 . S
Sm517 O538 2.386 . S
Sm517 O541 2.408 . S
Sm517 O542 2.543 . S
Sm517 O543 2.450 . S
Sm517 O544 2.681 . S
Sm517 O545 2.464 . S
Sm517 O546 2.396 . S
C518 Sm516 2.846 . S
C518 C519 1.506 . S
C518 O536 1.261 . S
C518 O537 1.242 . S
C519 C518 1.506 . S
C519 C520 1.358 . S
C519 C524 1.382 . S
C520 C519 1.358 . S
C520 C521 1.385 . S
C520 H548 0.930 . S
C521 C520 1.385 . S
C521 C522 1.395 . S
C521 H549 0.929 . S
C522 C521 1.395 . S
C522 C523 1.335 . S
C523 C522 1.335 . S
C523 C524 1.398 . S
C523 H550 0.930 . S
C524 C519 1.382 . S
C524 C523 1.398 . S
C524 H551 0.929 . S
C525 O538 1.271 . S
C525 O539 1.251 . S
C526 O540 1.252 . S
C526 O541 1.272 . S
C527 Sm517 2.846 . S
C527 C528 1.506 . S
C527 O542 1.261 . S
C527 O543 1.242 . S
C528 C527 1.506 . S
C528 C529 1.358 . S
C528 C533 1.382 . S
C529 C528 1.358 . S
C529 C530 1.385 . S
C529 H552 0.930 . S
C530 C529 1.385 . S
C530 C531 1.395 . S
C530 H553 0.929 . S
C531 C530 1.395 . S
C531 C532 1.335 . S
C532 C531 1.335 . S
C532 C533 1.398 . S
C532 H554 0.930 . S
C533 C528 1.382 . S
C533 C532 1.398 . S
C533 H555 0.929 . S
C534 O544 1.271 . S
C534 O545 1.251 . S
C535 O546 1.252 . S
C535 O547 1.272 . S
O536 Sm516 2.543 . S
O536 C518 1.261 . S
O537 Sm516 2.450 . S
O537 C518 1.242 . S
O538 Sm516 2.681 . S
O538 Sm517 2.386 . S
O538 C525 1.271 . S
O539 Sm516 2.464 . S
O539 C525 1.251 . S
O540 Sm516 2.396 . S
O540 C526 1.252 . S
O541 Sm517 2.408 . S
O541 C526 1.272 . S
O542 Sm517 2.543 . S
O542 C527 1.261 . S
O543 Sm517 2.450 . S
O543 C527 1.242 . S
O544 Sm516 2.386 . S
O544 Sm517 2.681 . S
O544 C534 1.271 . S
O545 Sm517 2.464 . S
O545 C534 1.251 . S
O546 Sm517 2.396 . S
O546 C535 1.252 . S
O547 Sm516 2.408 . S
O547 C535 1.272 . S
H548 C520 0.930 . S
H549 C521 0.929 . S
H550 C523 0.930 . S
H551 C524 0.929 . S
H552 C529 0.930 . S
H553 C530 0.929 . S
H554 C532 0.930 . S
H555 C533 0.929 . S
Sm556 C558 2.846 . S
Sm556 O576 2.543 . S
Sm556 O577 2.450 . S
Sm556 O578 2.681 . S
Sm556 O579 2.464 . S
Sm556 O580 2.396 . S
Sm556 O584 2.386 . S
Sm556 O587 2.408 . S
Sm557 C567 2.846 . S
Sm557 O578 2.386 . S
Sm557 O581 2.408 . S
Sm557 O582 2.543 . S
Sm557 O583 2.450 . S
Sm557 O584 2.681 . S
Sm557 O585 2.464 . S
Sm557 O586 2.396 . S
C558 Sm556 2.846 . S
C558 C559 1.506 . S
C558 O576 1.261 . S
C558 O577 1.242 . S
C559 C558 1.506 . S
C559 C560 1.358 . S
C559 C564 1.382 . S
C560 C559 1.358 . S
C560 C561 1.385 . S
C560 H588 0.930 . S
C561 C560 1.385 . S
C561 C562 1.395 . S
C561 H589 0.929 . S
C562 C561 1.395 . S
C562 C563 1.335 . S
C563 C562 1.335 . S
C563 C564 1.398 . S
C563 H590 0.930 . S
C564 C559 1.382 . S
C564 C563 1.398 . S
C564 H591 0.929 . S
C565 O578 1.271 . S
C565 O579 1.251 . S
C566 O580 1.252 . S
C566 O581 1.272 . S
C567 Sm557 2.846 . S
C567 C568 1.506 . S
C567 O582 1.261 . S
C567 O583 1.242 . S
C568 C567 1.506 . S
C568 C569 1.358 . S
C568 C573 1.382 . S
C569 C568 1.358 . S
C569 C570 1.385 . S
C569 H592 0.930 . S
C570 C569 1.385 . S
C570 C571 1.395 . S
C570 H593 0.929 . S
C571 C570 1.395 . S
C571 C572 1.335 . S
C572 C571 1.335 . S
C572 C573 1.398 . S
C572 H594 0.930 . S
C573 C568 1.382 . S
C573 C572 1.398 . S
C573 H595 0.929 . S
C574 O584 1.271 . S
C574 O585 1.251 . S
C575 O586 1.252 . S
C575 O587 1.272 . S
O576 Sm556 2.543 . S
O576 C558 1.261 . S
O577 Sm556 2.450 . S
O577 C558 1.242 . S
O578 Sm556 2.681 . S
O578 Sm557 2.386 . S
O578 C565 1.271 . S
O579 Sm556 2.464 . S
O579 C565 1.251 . S
O580 Sm556 2.396 . S
O580 C566 1.252 . S
O581 Sm557 2.408 . S
O581 C566 1.272 . S
O582 Sm557 2.543 . S
O582 C567 1.261 . S
O583 Sm557 2.450 . S
O583 C567 1.242 . S
O584 Sm556 2.386 . S
O584 Sm557 2.681 . S
O584 C574 1.271 . S
O585 Sm557 2.464 . S
O585 C574 1.251 . S
O586 Sm557 2.396 . S
O586 C575 1.252 . S
O587 Sm556 2.408 . S
O587 C575 1.272 . S
H588 C560 0.930 . S
H589 C561 0.929 . S
H590 C563 0.930 . S
H591 C564 0.929 . S
H592 C569 0.930 . S
H593 C570 0.929 . S
H594 C572 0.930 . S
H595 C573 0.929 . S
H596 C602 0.930 . S
H597 C606 0.930 . S
H598 C611 0.929 . S
H599 C609 0.929 . S
H600 C604 0.929 . S
H601 C610 0.929 . S
C602 H596 0.930 . S
C602 C603 1.367 . S
C602 C610 1.378 . S
C603 C602 1.367 . S
C603 C611 1.433 . S
C604 H600 0.929 . S
C604 C606 1.378 . S
C604 C608 1.350 . S
C605 C608 1.463 . S
C605 C610 1.350 . S
C605 N613 1.427 . S
C606 H597 0.930 . S
C606 C604 1.378 . S
C606 C607 1.367 . S
C607 C606 1.367 . S
C607 C609 1.433 . S
C608 C604 1.350 . S
C608 C605 1.463 . S
C608 N612 1.427 . S
C609 H599 0.929 . S
C609 C607 1.433 . S
C609 N612 1.384 . S
C610 H601 0.929 . S
C610 C602 1.378 . S
C610 C605 1.350 . S
C611 H598 0.929 . S
C611 C603 1.433 . S
C611 N613 1.384 . S
N612 C608 1.427 . S
N612 C609 1.384 . S
N613 C605 1.427 . S
N613 C611 1.384 . S
H614 C620 0.930 . S
H615 C624 0.930 . S
H616 C629 0.929 . S
H617 C627 0.929 . S
H618 C622 0.929 . S
H619 C628 0.929 . S
C620 H614 0.930 . S
C620 C621 1.367 . S
C620 C628 1.378 . S
C621 C620 1.367 . S
C621 C629 1.433 . S
C622 H618 0.929 . S
C622 C624 1.378 . S
C622 C626 1.350 . S
C623 C626 1.463 . S
C623 C628 1.350 . S
C623 N631 1.427 . S
C624 H615 0.930 . S
C624 C622 1.378 . S
C624 C625 1.367 . S
C625 C624 1.367 . S
C625 C627 1.433 . S
C626 C622 1.350 . S
C626 C623 1.463 . S
C626 N630 1.427 . S
C627 H617 0.929 . S
C627 C625 1.433 . S
C627 N630 1.384 . S
C628 H619 0.929 . S
C628 C620 1.378 . S
C628 C623 1.350 . S
C629 H616 0.929 . S
C629 C621 1.433 . S
C629 N631 1.384 . S
N630 C626 1.427 . S
N630 C627 1.384 . S
N631 C623 1.427 . S
N631 C629 1.384 . S
H632 C638 0.930 . S
H633 C642 0.930 . S
H634 C647 0.929 . S
H635 C645 0.929 . S
H636 C640 0.929 . S
H637 C646 0.929 . S
C638 H632 0.930 . S
C638 C639 1.367 . S
C638 C646 1.378 . S
C639 C638 1.367 . S
C639 C647 1.433 . S
C640 H636 0.929 . S
C640 C642 1.378 . S
C640 C644 1.350 . S
C641 C644 1.463 . S
C641 C646 1.350 . S
C641 N649 1.427 . S
C642 H633 0.930 . S
C642 C640 1.378 . S
C642 C643 1.367 . S
C643 C642 1.367 . S
C643 C645 1.433 . S
C644 C640 1.350 . S
C644 C641 1.463 . S
C644 N648 1.427 . S
C645 H635 0.929 . S
C645 C643 1.433 . S
C645 N648 1.384 . S
C646 H637 0.929 . S
C646 C638 1.378 . S
C646 C641 1.350 . S
C647 H634 0.929 . S
C647 C639 1.433 . S
C647 N649 1.384 . S
N648 C644 1.427 . S
N648 C645 1.384 . S
N649 C641 1.427 . S
N649 C647 1.384 . S
H650 C656 0.930 . S
H651 C660 0.930 . S
H652 C665 0.929 . S
H653 C663 0.929 . S
H654 C658 0.929 . S
H655 C664 0.929 . S
C656 H650 0.930 . S
C656 C657 1.367 . S
C656 C664 1.378 . S
C657 C656 1.367 . S
C657 C665 1.433 . S
C658 H654 0.929 . S
C658 C660 1.378 . S
C658 C662 1.350 . S
C659 C662 1.463 . S
C659 C664 1.350 . S
C659 N667 1.427 . S
C660 H651 0.930 . S
C660 C658 1.378 . S
C660 C661 1.367 . S
C661 C660 1.367 . S
C661 C663 1.433 . S
C662 C658 1.350 . S
C662 C659 1.463 . S
C662 N666 1.427 . S
C663 H653 0.929 . S
C663 C661 1.433 . S
C663 N666 1.384 . S
C664 H655 0.929 . S
C664 C656 1.378 . S
C664 C659 1.350 . S
C665 H652 0.929 . S
C665 C657 1.433 . S
C665 N667 1.384 . S
N666 C662 1.427 . S
N666 C663 1.384 . S
N667 C659 1.427 . S
N667 C665 1.384 . S
H668 C674 0.930 . S
H669 C678 0.930 . S
H670 C683 0.929 . S
H671 C681 0.929 . S
H672 C676 0.929 . S
H673 C682 0.929 . S
C674 H668 0.930 . S
C674 C675 1.367 . S
C674 C682 1.378 . S
C675 C674 1.367 . S
C675 C683 1.433 . S
C676 H672 0.929 . S
C676 C678 1.378 . S
C676 C680 1.350 . S
C677 C680 1.463 . S
C677 C682 1.350 . S
C677 N685 1.427 . S
C678 H669 0.930 . S
C678 C676 1.378 . S
C678 C679 1.367 . S
C679 C678 1.367 . S
C679 C681 1.433 . S
C680 C676 1.350 . S
C680 C677 1.463 . S
C680 N684 1.427 . S
C681 H671 0.929 . S
C681 C679 1.433 . S
C681 N684 1.384 . S
C682 H673 0.929 . S
C682 C674 1.378 . S
C682 C677 1.350 . S
C683 H670 0.929 . S
C683 C675 1.433 . S
C683 N685 1.384 . S
N684 C680 1.427 . S
N684 C681 1.384 . S
N685 C677 1.427 . S
N685 C683 1.384 . S
H686 C692 0.930 . S
H687 C696 0.930 . S
H688 C701 0.929 . S
H689 C699 0.929 . S
H690 C694 0.929 . S
H691 C700 0.929 . S
C692 H686 0.930 . S
C692 C693 1.367 . S
C692 C700 1.378 . S
C693 C692 1.367 . S
C693 C701 1.433 . S
C694 H690 0.929 . S
C694 C696 1.378 . S
C694 C698 1.350 . S
C695 C698 1.463 . S
C695 C700 1.350 . S
C695 N703 1.427 . S
C696 H687 0.930 . S
C696 C694 1.378 . S
C696 C697 1.367 . S
C697 C696 1.367 . S
C697 C699 1.433 . S
C698 C694 1.350 . S
C698 C695 1.463 . S
C698 N702 1.427 . S
C699 H689 0.929 . S
C699 C697 1.433 . S
C699 N702 1.384 . S
C700 H691 0.929 . S
C700 C692 1.378 . S
C700 C695 1.350 . S
C701 H688 0.929 . S
C701 C693 1.433 . S
C701 N703 1.384 . S
N702 C698 1.427 . S
N702 C699 1.384 . S
N703 C695 1.427 . S
N703 C701 1.384 . S
H704 C710 0.930 . S
H705 C714 0.930 . S
H706 C719 0.929 . S
H707 C717 0.929 . S
H708 C712 0.929 . S
H709 C718 0.929 . S
C710 H704 0.930 . S
C710 C711 1.367 . S
C710 C718 1.378 . S
C711 C710 1.367 . S
C711 C719 1.433 . S
C712 H708 0.929 . S
C712 C714 1.378 . S
C712 C716 1.350 . S
C713 C716 1.463 . S
C713 C718 1.350 . S
C713 N721 1.427 . S
C714 H705 0.930 . S
C714 C712 1.378 . S
C714 C715 1.367 . S
C715 C714 1.367 . S
C715 C717 1.433 . S
C716 C712 1.350 . S
C716 C713 1.463 . S
C716 N720 1.427 . S
C717 H707 0.929 . S
C717 C715 1.433 . S
C717 N720 1.384 . S
C718 H709 0.929 . S
C718 C710 1.378 . S
C718 C713 1.350 . S
C719 H706 0.929 . S
C719 C711 1.433 . S
C719 N721 1.384 . S
N720 C716 1.427 . S
N720 C717 1.384 . S
N721 C713 1.427 . S
N721 C719 1.384 . S
H722 C728 0.930 . S
H723 C732 0.930 . S
H724 C737 0.929 . S
H725 C735 0.929 . S
H726 C730 0.929 . S
H727 C736 0.929 . S
C728 H722 0.930 . S
C728 C729 1.367 . S
C728 C736 1.378 . S
C729 C728 1.367 . S
C729 C737 1.433 1_565 S
C730 H726 0.929 . S
C730 C732 1.378 . S
C730 C734 1.350 . S
C731 C734 1.463 . S
C731 C736 1.350 . S
C731 N739 1.427 . S
C732 H723 0.930 . S
C732 C730 1.378 . S
C732 C733 1.367 . S
C733 C732 1.367 . S
C733 C735 1.433 . S
C734 C730 1.350 . S
C734 C731 1.463 . S
C734 N738 1.427 . S
C735 H725 0.929 . S
C735 C733 1.433 . S
C735 N738 1.384 . S
C736 H727 0.929 . S
C736 C728 1.378 . S
C736 C731 1.350 . S
C737 H724 0.929 . S
C737 C729 1.433 1_545 S
C737 N739 1.384 1_545 S
N738 C734 1.427 . S
N738 C735 1.384 . S
N739 C731 1.427 . S
N739 C737 1.384 1_565 S
H740 C746 0.930 . S
H741 C750 0.930 . S
H742 C755 0.929 . S
H743 C753 0.929 . S
H744 C748 0.929 . S
H745 C754 0.929 . S
C746 H740 0.930 . S
C746 C747 1.367 . S
C746 C754 1.378 . S
C747 C746 1.367 . S
C747 C755 1.433 . S
C748 H744 0.929 . S
C748 C750 1.378 . S
C748 C752 1.350 . S
C749 C752 1.463 . S
C749 C754 1.350 . S
C749 N757 1.427 . S
C750 H741 0.930 . S
C750 C748 1.378 . S
C750 C751 1.367 . S
C751 C750 1.367 . S
C751 C753 1.433 . S
C752 C748 1.350 . S
C752 C749 1.463 . S
C752 N756 1.427 . S
C753 H743 0.929 . S
C753 C751 1.433 . S
C753 N756 1.384 . S
C754 H745 0.929 . S
C754 C746 1.378 . S
C754 C749 1.350 . S
C755 H742 0.929 . S
C755 C747 1.433 . S
C755 N757 1.384 . S
N756 C752 1.427 . S
N756 C753 1.384 . S
N757 C749 1.427 . S
N757 C755 1.384 . S
H758 C764 0.930 . S
H759 C768 0.930 . S
H760 C773 0.929 . S
H761 C771 0.929 . S
H762 C766 0.929 . S
H763 C772 0.929 . S
C764 H758 0.930 . S
C764 C765 1.367 . S
C764 C772 1.378 . S
C765 C764 1.367 . S
C765 C773 1.433 . S
C766 H762 0.929 . S
C766 C768 1.378 . S
C766 C770 1.350 . S
C767 C770 1.463 . S
C767 C772 1.350 . S
C767 N775 1.427 . S
C768 H759 0.930 . S
C768 C766 1.378 . S
C768 C769 1.367 . S
C769 C768 1.367 . S
C769 C771 1.433 . S
C770 C766 1.350 . S
C770 C767 1.463 . S
C770 N774 1.427 . S
C771 H761 0.929 . S
C771 C769 1.433 . S
C771 N774 1.384 . S
C772 H763 0.929 . S
C772 C764 1.378 . S
C772 C767 1.350 . S
C773 H760 0.929 . S
C773 C765 1.433 . S
C773 N775 1.384 . S
N774 C770 1.427 . S
N774 C771 1.384 . S
N775 C767 1.427 . S
N775 C773 1.384 . S
H776 C782 0.930 . S
H777 C786 0.930 . S
H778 C791 0.929 . S
H779 C789 0.929 . S
H780 C784 0.929 . S
H781 C790 0.929 . S
C782 H776 0.930 . S
C782 C783 1.367 . S
C782 C790 1.378 . S
C783 C782 1.367 . S
C783 C791 1.433 . S
C784 H780 0.929 . S
C784 C786 1.378 . S
C784 C788 1.350 . S
C785 C788 1.463 . S
C785 C790 1.350 . S
C785 N793 1.427 . S
C786 H777 0.930 . S
C786 C784 1.378 . S
C786 C787 1.367 . S
C787 C786 1.367 . S
C787 C789 1.433 . S
C788 C784 1.350 . S
C788 C785 1.463 . S
C788 N792 1.427 . S
C789 H779 0.929 . S
C789 C787 1.433 . S
C789 N792 1.384 . S
C790 H781 0.929 . S
C790 C782 1.378 . S
C790 C785 1.350 . S
C791 H778 0.929 . S
C791 C783 1.433 . S
C791 N793 1.384 . S
N792 C788 1.427 . S
N792 C789 1.384 . S
N793 C785 1.427 . S
N793 C791 1.384 . S
H794 C800 0.930 . S
H795 C804 0.930 . S
H796 C809 0.929 . S
H797 C807 0.929 . S
H798 C802 0.929 . S
H799 C808 0.929 . S
C800 H794 0.930 . S
C800 C801 1.367 . S
C800 C808 1.378 . S
C801 C800 1.367 . S
C801 C809 1.433 . S
C802 H798 0.929 . S
C802 C804 1.378 . S
C802 C806 1.350 . S
C803 C806 1.463 . S
C803 C808 1.350 . S
C803 N811 1.427 . S
C804 H795 0.930 . S
C804 C802 1.378 . S
C804 C805 1.367 . S
C805 C804 1.367 . S
C805 C807 1.433 . S
C806 C802 1.350 . S
C806 C803 1.463 . S
C806 N810 1.427 . S
C807 H797 0.929 . S
C807 C805 1.433 . S
C807 N810 1.384 . S
C808 H799 0.929 . S
C808 C800 1.378 . S
C808 C803 1.350 . S
C809 H796 0.929 . S
C809 C801 1.433 . S
C809 N811 1.384 . S
N810 C806 1.427 . S
N810 C807 1.384 . S
N811 C803 1.427 . S
N811 C809 1.384 . S
H812 C818 0.930 . S
H813 C822 0.930 . S
H814 C827 0.930 1_556 S
H815 C825 0.929 . S
H816 C820 0.929 . S
H817 C826 0.929 . S
C818 H812 0.930 . S
C818 C819 1.367 . S
C818 C826 1.378 . S
C819 C818 1.367 . S
C819 C827 1.433 . S
C820 H816 0.929 . S
C820 C822 1.378 . S
C820 C824 1.350 . S
C821 C824 1.463 1_554 S
C821 C826 1.350 . S
C821 N829 1.427 1_554 S
C822 H813 0.930 . S
C822 C820 1.378 . S
C822 C823 1.367 . S
C823 C822 1.367 . S
C823 C825 1.433 . S
C824 C820 1.350 . S
C824 C821 1.463 1_556 S
C824 N828 1.427 . S
C825 H815 0.929 . S
C825 C823 1.433 . S
C825 N828 1.384 . S
C826 H817 0.929 . S
C826 C818 1.378 . S
C826 C821 1.350 . S
C827 H814 0.930 1_554 S
C827 C819 1.433 . S
C827 N829 1.384 1_554 S
N828 C824 1.427 . S
N828 C825 1.384 . S
N829 C821 1.427 1_556 S
N829 C827 1.384 1_556 S
H830 C836 0.930 . S
H831 C840 0.930 . S
H832 C845 0.929 1_554 S
H833 C843 0.929 . S
H834 C838 0.929 . S
H835 C844 0.929 . S
C836 H830 0.930 . S
C836 C837 1.367 . S
C836 C844 1.378 . S
C837 C836 1.367 . S
C837 C845 1.433 . S
C838 H834 0.929 . S
C838 C840 1.378 . S
C838 C842 1.350 . S
C839 C842 1.463 . S
C839 C844 1.350 . S
C839 N847 1.427 . S
C840 H831 0.930 . S
C840 C838 1.378 . S
C840 C841 1.367 . S
C841 C840 1.367 . S
C841 C843 1.433 . S
C842 C838 1.350 . S
C842 C839 1.463 . S
C842 N846 1.427 . S
C843 H833 0.929 . S
C843 C841 1.433 . S
C843 N846 1.384 . S
C844 H835 0.929 . S
C844 C836 1.378 . S
C844 C839 1.350 . S
C845 H832 0.929 1_556 S
C845 C837 1.433 . S
C845 N847 1.384 . S
N846 C842 1.427 . S
N846 C843 1.384 . S
N847 C839 1.427 . S
N847 C845 1.384 . S
H848 C854 0.930 . S
H849 C858 0.930 . S
H850 C863 0.929 . S
H851 C861 0.929 . S
H852 C856 0.929 . S
H853 C862 0.929 . S
C854 H848 0.930 . S
C854 C855 1.367 . S
C854 C862 1.378 . S
C855 C854 1.367 . S
C855 C863 1.433 . S
C856 H852 0.929 . S
C856 C858 1.378 . S
C856 C860 1.350 . S
C857 C860 1.463 . S
C857 C862 1.350 . S
C857 N865 1.427 . S
C858 H849 0.930 . S
C858 C856 1.378 . S
C858 C859 1.367 . S
C859 C858 1.367 . S
C859 C861 1.433 . S
C860 C856 1.350 . S
C860 C857 1.463 . S
C860 N864 1.427 . S
C861 H851 0.929 . S
C861 C859 1.433 . S
C861 N864 1.384 . S
C862 H853 0.929 . S
C862 C854 1.378 . S
C862 C857 1.350 . S
C863 H850 0.929 . S
C863 C855 1.433 . S
C863 N865 1.384 . S
N864 C860 1.427 . S
N864 C861 1.384 . S
N865 C857 1.427 . S
N865 C863 1.384 . S
H866 C872 0.930 . S
H867 C876 0.930 . S
H868 C881 0.929 . S
H869 C879 0.929 . S
H870 C874 0.929 . S
H871 C880 0.929 . S
C872 H866 0.930 . S
C872 C873 1.367 . S
C872 C880 1.378 . S
C873 C872 1.367 . S
C873 C881 1.433 . S
C874 H870 0.929 . S
C874 C876 1.378 . S
C874 C878 1.350 . S
C875 C878 1.463 . S
C875 C880 1.350 . S
C875 N883 1.427 . S
C876 H867 0.930 . S
C876 C874 1.378 . S
C876 C877 1.367 . S
C877 C876 1.367 . S
C877 C879 1.433 . S
C878 C874 1.350 . S
C878 C875 1.463 . S
C878 N882 1.427 . S
C879 H869 0.929 . S
C879 C877 1.433 . S
C879 N882 1.384 . S
C880 H871 0.929 . S
C880 C872 1.378 . S
C880 C875 1.350 . S
C881 H868 0.929 . S
C881 C873 1.433 . S
C881 N883 1.384 . S
N882 C878 1.427 . S
N882 C879 1.384 . S
N883 C875 1.427 . S
N883 C881 1.384 . S
H884 C890 0.930 . S
H885 C894 0.930 . S
H886 C899 0.929 . S
H887 C897 0.929 . S
H888 C892 0.929 . S
H889 C898 0.929 . S
C890 H884 0.930 . S
C890 C891 1.367 . S
C890 C898 1.378 . S
C891 C890 1.367 . S
C891 C899 1.433 . S
C892 H888 0.929 . S
C892 C894 1.378 . S
C892 C896 1.350 . S
C893 C896 1.463 . S
C893 C898 1.350 . S
C893 N901 1.427 . S
C894 H885 0.930 . S
C894 C892 1.378 . S
C894 C895 1.367 . S
C895 C894 1.367 . S
C895 C897 1.433 . S
C896 C892 1.350 . S
C896 C893 1.463 . S
C896 N900 1.427 . S
C897 H887 0.929 . S
C897 C895 1.433 . S
C897 N900 1.384 . S
C898 H889 0.929 . S
C898 C890 1.378 . S
C898 C893 1.350 . S
C899 H886 0.929 . S
C899 C891 1.433 . S
C899 N901 1.384 . S
N900 C896 1.427 . S
N900 C897 1.384 . S
N901 C893 1.427 . S
N901 C899 1.384 . S
H902 C908 0.930 . S
H903 C912 0.930 . S
H904 C917 0.929 . S
H905 C915 0.929 . S
H906 C910 0.929 . S
H907 C916 0.929 . S
C908 H902 0.930 . S
C908 C909 1.367 . S
C908 C916 1.378 . S
C909 C908 1.367 . S
C909 C917 1.433 . S
C910 H906 0.929 . S
C910 C912 1.378 . S
C910 C914 1.350 . S
C911 C914 1.463 . S
C911 C916 1.350 . S
C911 N919 1.427 . S
C912 H903 0.930 . S
C912 C910 1.378 . S
C912 C913 1.367 . S
C913 C912 1.367 . S
C913 C915 1.433 . S
C914 C910 1.350 . S
C914 C911 1.463 . S
C914 N918 1.427 . S
C915 H905 0.929 . S
C915 C913 1.433 . S
C915 N918 1.384 . S
C916 H907 0.929 . S
C916 C908 1.378 . S
C916 C911 1.350 . S
C917 H904 0.929 . S
C917 C909 1.433 . S
C917 N919 1.384 . S
N918 C914 1.427 . S
N918 C915 1.384 . S
N919 C911 1.427 . S
N919 C917 1.384 . S
H920 C926 0.930 . S
H921 C930 0.930 . S
H922 C935 0.929 . S
H923 C933 0.929 . S
H924 C928 0.929 . S
H925 C934 0.929 . S
C926 H920 0.930 . S
C926 C927 1.367 . S
C926 C934 1.378 1_554 S
C927 C926 1.367 . S
C927 C935 1.433 1_554 S
C928 H924 0.929 . S
C928 C930 1.378 . S
C928 C932 1.350 . S
C929 C932 1.463 . S
C929 C934 1.350 . S
C929 N937 1.427 . S
C930 H921 0.930 . S
C930 C928 1.378 . S
C930 C931 1.367 . S
C931 C930 1.367 . S
C931 C933 1.433 . S
C932 C928 1.350 . S
C932 C929 1.463 . S
C932 N936 1.427 . S
C933 H923 0.929 . S
C933 C931 1.433 . S
C933 N936 1.384 . S
C934 H925 0.929 . S
C934 C926 1.378 1_556 S
C934 C929 1.350 . S
C935 H922 0.929 . S
C935 C927 1.433 1_556 S
C935 N937 1.384 . S
N936 C932 1.427 . S
N936 C933 1.384 . S
N937 C929 1.427 . S
N937 C935 1.384 . S
H938 C944 0.930 . S
H939 C948 0.930 . S
H940 C953 0.929 1_455 S
H941 C951 0.929 . S
H942 C946 0.929 1_554 S
H943 C952 0.929 . S
C944 H938 0.930 . S
C944 C945 1.367 1_556 S
C944 C952 1.378 . S
C945 C944 1.367 1_554 S
C945 C953 1.433 . S
C946 H942 0.929 1_556 S
C946 C948 1.378 . S
C946 C950 1.350 . S
C947 C950 1.463 . S
C947 C952 1.350 . S
C947 N955 1.427 1_556 S
C948 H939 0.930 . S
C948 C946 1.378 . S
C948 C949 1.367 . S
C949 C948 1.367 . S
C949 C951 1.433 . S
C950 C946 1.350 . S
C950 C947 1.463 . S
C950 N954 1.427 . S
C951 H941 0.929 . S
C951 C949 1.433 . S
C951 N954 1.384 . S
C952 H943 0.929 . S
C952 C944 1.378 . S
C952 C947 1.350 . S
C953 H940 0.929 1_655 S
C953 C945 1.433 . S
C953 N955 1.384 . S
N954 C950 1.427 . S
N954 C951 1.384 . S
N955 C947 1.427 1_554 S
N955 C953 1.384 . S
H956 C962 0.930 . S
H957 C966 0.930 . S
H958 C971 0.929 . S
H959 C969 0.929 . S
H960 C964 0.929 . S
H961 C970 0.929 . S
C962 H956 0.930 . S
C962 C963 1.367 . S
C962 C970 1.378 . S
C963 C962 1.367 . S
C963 C971 1.433 . S
C964 H960 0.929 . S
C964 C966 1.378 . S
C964 C968 1.350 . S
C965 C968 1.463 . S
C965 C970 1.350 . S
C965 N973 1.427 . S
C966 H957 0.930 . S
C966 C964 1.378 . S
C966 C967 1.367 . S
C967 C966 1.367 . S
C967 C969 1.433 . S
C968 C964 1.350 . S
C968 C965 1.463 . S
C968 N972 1.427 . S
C969 H959 0.929 . S
C969 C967 1.433 . S
C969 N972 1.384 . S
C970 H961 0.929 . S
C970 C962 1.378 . S
C970 C965 1.350 . S
C971 H958 0.929 . S
C971 C963 1.433 . S
C971 N973 1.384 . S
N972 C968 1.427 . S
N972 C969 1.384 . S
N973 C965 1.427 . S
N973 C971 1.384 . S
H974 C980 0.930 . S
H975 C984 0.930 . S
H976 C989 0.929 . S
H977 C987 0.929 . S
H978 C982 0.929 . S
H979 C988 0.929 . S
C980 H974 0.930 . S
C980 C981 1.367 . S
C980 C988 1.378 . S
C981 C980 1.367 . S
C981 C989 1.433 . S
C982 H978 0.929 . S
C982 C984 1.378 . S
C982 C986 1.350 . S
C983 C986 1.463 . S
C983 C988 1.350 . S
C983 N991 1.427 . S
C984 H975 0.930 . S
C984 C982 1.378 . S
C984 C985 1.367 . S
C985 C984 1.367 . S
C985 C987 1.433 . S
C986 C982 1.350 . S
C986 C983 1.463 . S
C986 N990 1.427 . S
C987 H977 0.929 . S
C987 C985 1.433 . S
C987 N990 1.384 . S
C988 H979 0.929 . S
C988 C980 1.378 . S
C988 C983 1.350 . S
C989 H976 0.929 . S
C989 C981 1.433 . S
C989 N991 1.384 . S
N990 C986 1.427 . S
N990 C987 1.384 . S
N991 C983 1.427 . S
N991 C989 1.384 . S
H992 C998 0.930 . S
H993 C1002 0.930 . S
H994 C1007 0.928 1_545 S
H995 C1005 0.929 . S
H996 C1000 0.929 . S
H997 C1006 0.929 . S
C998 H992 0.930 . S
C998 C999 1.367 . S
C998 C1006 1.378 . S
C999 C998 1.367 . S
C999 C1007 1.433 . S
C1000 H996 0.929 . S
C1000 C1002 1.378 . S
C1000 C1004 1.350 . S
C1001 C1004 1.463 . S
C1001 C1006 1.350 . S
C1001 N1009 1.427 . S
C1002 H993 0.930 . S
C1002 C1000 1.378 . S
C1002 C1003 1.367 . S
C1003 C1002 1.367 . S
C1003 C1005 1.433 . S
C1004 C1000 1.350 . S
C1004 C1001 1.463 . S
C1004 N1008 1.427 . S
C1005 H995 0.929 . S
C1005 C1003 1.433 . S
C1005 N1008 1.384 . S
C1006 H997 0.929 . S
C1006 C998 1.378 . S
C1006 C1001 1.350 . S
C1007 H994 0.928 1_565 S
C1007 C999 1.433 . S
C1007 N1009 1.384 . S
N1008 C1004 1.427 . S
N1008 C1005 1.384 . S
N1009 C1001 1.427 . S
N1009 C1007 1.384 . S
H1010 C1016 0.930 . S
H1011 C1020 0.930 . S
H1012 C1025 0.929 . S
H1013 C1023 0.929 . S
H1014 C1018 0.929 . S
H1015 C1024 0.929 . S
C1016 H1010 0.930 . S
C1016 C1017 1.367 . S
C1016 C1024 1.378 . S
C1017 C1016 1.367 . S
C1017 C1025 1.433 . S
C1018 H1014 0.929 . S
C1018 C1020 1.378 . S
C1018 C1022 1.350 . S
C1019 C1022 1.463 . S
C1019 C1024 1.350 . S
C1019 N1027 1.427 . S
C1020 H1011 0.930 . S
C1020 C1018 1.378 . S
C1020 C1021 1.367 . S
C1021 C1020 1.367 . S
C1021 C1023 1.433 . S
C1022 C1018 1.350 . S
C1022 C1019 1.463 . S
C1022 N1026 1.427 . S
C1023 H1013 0.929 . S
C1023 C1021 1.433 . S
C1023 N1026 1.384 . S
C1024 H1015 0.929 . S
C1024 C1016 1.378 . S
C1024 C1019 1.350 . S
C1025 H1012 0.929 . S
C1025 C1017 1.433 . S
C1025 N1027 1.384 . S
N1026 C1022 1.427 . S
N1026 C1023 1.384 . S
N1027 C1019 1.427 . S
N1027 C1025 1.384 . S
H1028 C1034 0.930 . S
H1029 C1038 0.930 . S
H1030 C1043 0.929 . S
H1031 C1041 0.929 . S
H1032 C1036 0.929 . S
H1033 C1042 0.929 . S
C1034 H1028 0.930 . S
C1034 C1035 1.367 . S
C1034 C1042 1.378 . S
C1035 C1034 1.367 . S
C1035 C1043 1.433 . S
C1036 H1032 0.929 . S
C1036 C1038 1.378 . S
C1036 C1040 1.350 . S
C1037 C1040 1.463 . S
C1037 C1042 1.350 . S
C1037 N1045 1.427 . S
C1038 H1029 0.930 . S
C1038 C1036 1.378 . S
C1038 C1039 1.367 . S
C1039 C1038 1.367 . S
C1039 C1041 1.433 . S
C1040 C1036 1.350 . S
C1040 C1037 1.463 . S
C1040 N1044 1.427 . S
C1041 H1031 0.929 . S
C1041 C1039 1.433 . S
C1041 N1044 1.384 . S
C1042 H1033 0.929 . S
C1042 C1034 1.378 . S
C1042 C1037 1.350 . S
C1043 H1030 0.929 . S
C1043 C1035 1.433 . S
C1043 N1045 1.384 . S
N1044 C1040 1.427 . S
N1044 C1041 1.384 . S
N1045 C1037 1.427 . S
N1045 C1043 1.384 . S
H1046 C1052 0.930 . S
H1047 C1056 0.930 . S
H1048 C1061 0.929 . S
H1049 C1059 0.929 . S
H1050 C1054 0.929 . S
H1051 C1060 0.929 . S
C1052 H1046 0.930 . S
C1052 C1053 1.367 . S
C1052 C1060 1.378 . S
C1053 C1052 1.367 . S
C1053 C1061 1.433 . S
C1054 H1050 0.929 . S
C1054 C1056 1.378 . S
C1054 C1058 1.350 . S
C1055 C1058 1.463 . S
C1055 C1060 1.350 . S
C1055 N1063 1.427 . S
C1056 H1047 0.930 . S
C1056 C1054 1.378 . S
C1056 C1057 1.367 . S
C1057 C1056 1.367 . S
C1057 C1059 1.433 . S
C1058 C1054 1.350 . S
C1058 C1055 1.463 . S
C1058 N1062 1.427 . S
C1059 H1049 0.929 . S
C1059 C1057 1.433 . S
C1059 N1062 1.384 . S
C1060 H1051 0.929 . S
C1060 C1052 1.378 . S
C1060 C1055 1.350 . S
C1061 H1048 0.929 . S
C1061 C1053 1.433 . S
C1061 N1063 1.384 . S
N1062 C1058 1.427 . S
N1062 C1059 1.384 . S
N1063 C1055 1.427 . S
N1063 C1061 1.384 . S
H1064 C1070 0.930 . S
H1065 C1074 0.930 . S
H1066 C1079 0.929 . S
H1067 C1077 0.929 . S
H1068 C1072 0.929 . S
H1069 C1078 0.929 . S
C1070 H1064 0.930 . S
C1070 C1071 1.367 . S
C1070 C1078 1.378 . S
C1071 C1070 1.367 . S
C1071 C1079 1.433 . S
C1072 H1068 0.929 . S
C1072 C1074 1.378 . S
C1072 C1076 1.350 . S
C1073 C1076 1.463 . S
C1073 C1078 1.350 . S
C1073 N1081 1.427 . S
C1074 H1065 0.930 . S
C1074 C1072 1.378 . S
C1074 C1075 1.367 . S
C1075 C1074 1.367 . S
C1075 C1077 1.433 . S
C1076 C1072 1.350 . S
C1076 C1073 1.463 . S
C1076 N1080 1.427 . S
C1077 H1067 0.929 . S
C1077 C1075 1.433 . S
C1077 N1080 1.384 . S
C1078 H1069 0.929 . S
C1078 C1070 1.378 . S
C1078 C1073 1.350 . S
C1079 H1066 0.929 . S
C1079 C1071 1.433 . S
C1079 N1081 1.384 . S
N1080 C1076 1.427 . S
N1080 C1077 1.384 . S
N1081 C1073 1.427 . S
N1081 C1079 1.384 . S
H1082 C1088 0.930 . S
H1083 C1092 0.930 . S
H1084 C1097 0.929 . S
H1085 C1095 0.929 . S
H1086 C1090 0.929 . S
H1087 C1096 0.929 . S
C1088 H1082 0.930 . S
C1088 C1089 1.367 . S
C1088 C1096 1.378 . S
C1089 C1088 1.367 . S
C1089 C1097 1.433 . S
C1090 H1086 0.929 . S
C1090 C1092 1.378 . S
C1090 C1094 1.350 . S
C1091 C1094 1.463 . S
C1091 C1096 1.350 . S
C1091 N1099 1.427 . S
C1092 H1083 0.930 . S
C1092 C1090 1.378 . S
C1092 C1093 1.367 . S
C1093 C1092 1.367 . S
C1093 C1095 1.433 . S
C1094 C1090 1.350 . S
C1094 C1091 1.463 . S
C1094 N1098 1.427 . S
C1095 H1085 0.929 . S
C1095 C1093 1.433 . S
C1095 N1098 1.384 . S
C1096 H1087 0.929 . S
C1096 C1088 1.378 . S
C1096 C1091 1.350 . S
C1097 H1084 0.929 . S
C1097 C1089 1.433 . S
C1097 N1099 1.384 . S
N1098 C1094 1.427 . S
N1098 C1095 1.384 . S
N1099 C1091 1.427 . S
N1099 C1097 1.384 . S
H1100 C1106 0.930 . S
H1101 C1110 0.930 . S
H1102 C1115 0.929 . S
H1103 C1113 0.929 . S
H1104 C1108 0.929 . S
H1105 C1114 0.929 . S
C1106 H1100 0.930 . S
C1106 C1107 1.367 . S
C1106 C1114 1.378 . S
C1107 C1106 1.367 . S
C1107 C1115 1.433 . S
C1108 H1104 0.929 . S
C1108 C1110 1.378 . S
C1108 C1112 1.350 . S
C1109 C1112 1.463 . S
C1109 C1114 1.350 . S
C1109 N1117 1.427 . S
C1110 H1101 0.930 . S
C1110 C1108 1.378 . S
C1110 C1111 1.367 . S
C1111 C1110 1.367 . S
C1111 C1113 1.433 . S
C1112 C1108 1.350 . S
C1112 C1109 1.463 . S
C1112 N1116 1.427 . S
C1113 H1103 0.929 . S
C1113 C1111 1.433 . S
C1113 N1116 1.384 . S
C1114 H1105 0.929 . S
C1114 C1106 1.378 . S
C1114 C1109 1.350 . S
C1115 H1102 0.929 . S
C1115 C1107 1.433 . S
C1115 N1117 1.384 . S
N1116 C1112 1.427 . S
N1116 C1113 1.384 . S
N1117 C1109 1.427 . S
N1117 C1115 1.384 . S
H1118 C1124 0.930 . S
H1119 C1128 0.930 . S
H1120 C1133 0.929 . S
H1121 C1131 0.929 . S
H1122 C1126 0.929 . S
H1123 C1132 0.929 . S
C1124 H1118 0.930 . S
C1124 C1125 1.367 . S
C1124 C1132 1.378 . S
C1125 C1124 1.367 . S
C1125 C1133 1.433 . S
C1126 H1122 0.929 . S
C1126 C1128 1.378 . S
C1126 C1130 1.350 . S
C1127 C1130 1.463 . S
C1127 C1132 1.350 . S
C1127 N1135 1.427 . S
C1128 H1119 0.930 . S
C1128 C1126 1.378 . S
C1128 C1129 1.367 . S
C1129 C1128 1.367 . S
C1129 C1131 1.433 . S
C1130 C1126 1.350 . S
C1130 C1127 1.463 . S
C1130 N1134 1.427 . S
C1131 H1121 0.929 . S
C1131 C1129 1.433 . S
C1131 N1134 1.384 . S
C1132 H1123 0.929 . S
C1132 C1124 1.378 . S
C1132 C1127 1.350 . S
C1133 H1120 0.929 . S
C1133 C1125 1.433 . S
C1133 N1135 1.384 . S
N1134 C1130 1.427 . S
N1134 C1131 1.384 . S
N1135 C1127 1.427 . S
N1135 C1133 1.384 . S
H1136 C1142 0.930 . S
H1137 C1146 0.930 . S
H1138 C1151 0.929 . S
H1139 C1149 0.929 . S
H1140 C1144 0.929 . S
H1141 C1150 0.929 . S
C1142 H1136 0.930 . S
C1142 C1143 1.367 . S
C1142 C1150 1.378 . S
C1143 C1142 1.367 . S
C1143 C1151 1.433 . S
C1144 H1140 0.929 . S
C1144 C1146 1.378 . S
C1144 C1148 1.350 . S
C1145 C1148 1.463 . S
C1145 C1150 1.350 . S
C1145 N1153 1.427 . S
C1146 H1137 0.930 . S
C1146 C1144 1.378 . S
C1146 C1147 1.367 . S
C1147 C1146 1.367 . S
C1147 C1149 1.433 . S
C1148 C1144 1.350 . S
C1148 C1145 1.463 . S
C1148 N1152 1.427 . S
C1149 H1139 0.929 . S
C1149 C1147 1.433 . S
C1149 N1152 1.384 . S
C1150 H1141 0.929 . S
C1150 C1142 1.378 . S
C1150 C1145 1.350 . S
C1151 H1138 0.929 . S
C1151 C1143 1.433 . S
C1151 N1153 1.384 . S
N1152 C1148 1.427 . S
N1152 C1149 1.384 . S
N1153 C1145 1.427 . S
N1153 C1151 1.384 . S
H1154 C1160 0.930 . S
H1155 C1164 0.930 . S
H1156 C1169 0.929 . S
H1157 C1167 0.929 . S
H1158 C1162 0.929 . S
H1159 C1168 0.929 . S
C1160 H1154 0.930 . S
C1160 C1161 1.367 . S
C1160 C1168 1.378 . S
C1161 C1160 1.367 . S
C1161 C1169 1.433 . S
C1162 H1158 0.929 . S
C1162 C1164 1.378 . S
C1162 C1166 1.350 . S
C1163 C1166 1.463 . S
C1163 C1168 1.350 . S
C1163 N1171 1.427 . S
C1164 H1155 0.930 . S
C1164 C1162 1.378 . S
C1164 C1165 1.367 . S
C1165 C1164 1.367 . S
C1165 C1167 1.433 . S
C1166 C1162 1.350 . S
C1166 C1163 1.463 . S
C1166 N1170 1.427 . S
C1167 H1157 0.929 . S
C1167 C1165 1.433 . S
C1167 N1170 1.384 . S
C1168 H1159 0.929 . S
C1168 C1160 1.378 . S
C1168 C1163 1.350 . S
C1169 H1156 0.929 . S
C1169 C1161 1.433 . S
C1169 N1171 1.384 . S
N1170 C1166 1.427 . S
N1170 C1167 1.384 . S
N1171 C1163 1.427 . S
N1171 C1169 1.384 . S
H1172 C1178 0.930 . S
H1173 C1182 0.930 . S
H1174 C1187 0.929 . S
H1175 C1185 0.929 . S
H1176 C1180 0.929 . S
H1177 C1186 0.929 . S
C1178 H1172 0.930 . S
C1178 C1179 1.367 . S
C1178 C1186 1.378 . S
C1179 C1178 1.367 . S
C1179 C1187 1.433 . S
C1180 H1176 0.929 . S
C1180 C1182 1.378 . S
C1180 C1184 1.350 . S
C1181 C1184 1.463 . S
C1181 C1186 1.350 . S
C1181 N1189 1.427 . S
C1182 H1173 0.930 . S
C1182 C1180 1.378 . S
C1182 C1183 1.367 . S
C1183 C1182 1.367 . S
C1183 C1185 1.433 . S
C1184 C1180 1.350 . S
C1184 C1181 1.463 . S
C1184 N1188 1.427 . S
C1185 H1175 0.929 . S
C1185 C1183 1.433 . S
C1185 N1188 1.384 . S
C1186 H1177 0.929 . S
C1186 C1178 1.378 . S
C1186 C1181 1.350 . S
C1187 H1174 0.929 . S
C1187 C1179 1.433 . S
C1187 N1189 1.384 . S
N1188 C1184 1.427 . S
N1188 C1185 1.384 . S
N1189 C1181 1.427 . S
N1189 C1187 1.384 . S
H1190 C1196 0.930 . S
H1191 C1200 0.930 . S
H1192 C1205 0.929 . S
H1193 C1203 0.929 . S
H1194 C1198 0.929 . S
H1195 C1204 0.929 . S
C1196 H1190 0.930 . S
C1196 C1197 1.367 . S
C1196 C1204 1.378 . S
C1197 C1196 1.367 . S
C1197 C1205 1.433 . S
C1198 H1194 0.929 . S
C1198 C1200 1.378 . S
C1198 C1202 1.350 . S
C1199 C1202 1.463 . S
C1199 C1204 1.350 . S
C1199 N1207 1.427 . S
C1200 H1191 0.930 . S
C1200 C1198 1.378 . S
C1200 C1201 1.367 . S
C1201 C1200 1.367 . S
C1201 C1203 1.433 . S
C1202 C1198 1.350 . S
C1202 C1199 1.463 . S
C1202 N1206 1.427 . S
C1203 H1193 0.929 . S
C1203 C1201 1.433 . S
C1203 N1206 1.384 . S
C1204 H1195 0.929 . S
C1204 C1196 1.378 . S
C1204 C1199 1.350 . S
C1205 H1192 0.929 . S
C1205 C1197 1.433 . S
C1205 N1207 1.384 . S
N1206 C1202 1.427 . S
N1206 C1203 1.384 . S
N1207 C1199 1.427 . S
N1207 C1205 1.384 . S
H1208 C1214 0.930 . S
H1209 C1218 0.930 . S
H1210 C1223 0.929 . S
H1211 C1221 0.929 . S
H1212 C1216 0.929 . S
H1213 C1222 0.929 . S
C1214 H1208 0.930 . S
C1214 C1215 1.367 . S
C1214 C1222 1.378 . S
C1215 C1214 1.367 . S
C1215 C1223 1.433 . S
C1216 H1212 0.929 . S
C1216 C1218 1.378 . S
C1216 C1220 1.350 . S
C1217 C1220 1.463 . S
C1217 C1222 1.350 . S
C1217 N1225 1.427 . S
C1218 H1209 0.930 . S
C1218 C1216 1.378 . S
C1218 C1219 1.367 . S
C1219 C1218 1.367 . S
C1219 C1221 1.433 . S
C1220 C1216 1.350 . S
C1220 C1217 1.463 . S
C1220 N1224 1.427 . S
C1221 H1211 0.929 . S
C1221 C1219 1.433 . S
C1221 N1224 1.384 . S
C1222 H1213 0.929 . S
C1222 C1214 1.378 . S
C1222 C1217 1.350 . S
C1223 H1210 0.929 . S
C1223 C1215 1.433 . S
C1223 N1225 1.384 . S
N1224 C1220 1.427 . S
N1224 C1221 1.384 . S
N1225 C1217 1.427 . S
N1225 C1223 1.384 . S
H1226 C1232 0.930 . S
H1227 C1236 0.930 . S
H1228 C1241 0.929 . S
H1229 C1239 0.929 . S
H1230 C1234 0.929 . S
H1231 C1240 0.929 . S
C1232 H1226 0.930 . S
C1232 C1233 1.367 . S
C1232 C1240 1.378 . S
C1233 C1232 1.367 . S
C1233 C1241 1.433 . S
C1234 H1230 0.929 . S
C1234 C1236 1.378 . S
C1234 C1238 1.350 . S
C1235 C1238 1.463 . S
C1235 C1240 1.350 . S
C1235 N1243 1.427 . S
C1236 H1227 0.930 . S
C1236 C1234 1.378 . S
C1236 C1237 1.367 . S
C1237 C1236 1.367 . S
C1237 C1239 1.433 . S
C1238 C1234 1.350 . S
C1238 C1235 1.463 . S
C1238 N1242 1.427 . S
C1239 H1229 0.929 . S
C1239 C1237 1.433 . S
C1239 N1242 1.384 . S
C1240 H1231 0.929 . S
C1240 C1232 1.378 . S
C1240 C1235 1.350 . S
C1241 H1228 0.929 . S
C1241 C1233 1.433 . S
C1241 N1243 1.384 . S
N1242 C1238 1.427 . S
N1242 C1239 1.384 . S
N1243 C1235 1.427 . S
N1243 C1241 1.384 . S
H1244 C1250 0.930 . S
H1245 C1254 0.930 . S
H1246 C1259 0.929 . S
H1247 C1257 0.929 . S
H1248 C1252 0.929 . S
H1249 C1258 0.929 . S
C1250 H1244 0.930 . S
C1250 C1251 1.367 . S
C1250 C1258 1.378 . S
C1251 C1250 1.367 . S
C1251 C1259 1.433 . S
C1252 H1248 0.929 . S
C1252 C1254 1.378 . S
C1252 C1256 1.350 . S
C1253 C1256 1.463 . S
C1253 C1258 1.350 . S
C1253 N1261 1.427 . S
C1254 H1245 0.930 . S
C1254 C1252 1.378 . S
C1254 C1255 1.367 . S
C1255 C1254 1.367 . S
C1255 C1257 1.433 . S
C1256 C1252 1.350 . S
C1256 C1253 1.463 . S
C1256 N1260 1.427 . S
C1257 H1247 0.929 . S
C1257 C1255 1.433 . S
C1257 N1260 1.384 . S
C1258 H1249 0.929 . S
C1258 C1250 1.378 . S
C1258 C1253 1.350 . S
C1259 H1246 0.929 . S
C1259 C1251 1.433 . S
C1259 N1261 1.384 . S
N1260 C1256 1.427 . S
N1260 C1257 1.384 . S
N1261 C1253 1.427 . S
N1261 C1259 1.384 . S
H1262 C1268 0.930 . S
H1263 C1272 0.930 . S
H1264 C1277 0.929 . S
H1265 C1275 0.929 . S
H1266 C1270 0.929 . S
H1267 C1276 0.929 . S
C1268 H1262 0.930 . S
C1268 C1269 1.367 . S
C1268 C1276 1.378 . S
C1269 C1268 1.367 . S
C1269 C1277 1.433 . S
C1270 H1266 0.929 . S
C1270 C1272 1.378 . S
C1270 C1274 1.350 . S
C1271 C1274 1.463 . S
C1271 C1276 1.350 . S
C1271 N1279 1.427 . S
C1272 H1263 0.930 . S
C1272 C1270 1.378 . S
C1272 C1273 1.367 . S
C1273 C1272 1.367 . S
C1273 C1275 1.433 . S
C1274 C1270 1.350 . S
C1274 C1271 1.463 . S
C1274 N1278 1.427 . S
C1275 H1265 0.929 . S
C1275 C1273 1.433 . S
C1275 N1278 1.384 . S
C1276 H1267 0.929 . S
C1276 C1268 1.378 . S
C1276 C1271 1.350 . S
C1277 H1264 0.929 . S
C1277 C1269 1.433 . S
C1277 N1279 1.384 . S
N1278 C1274 1.427 . S
N1278 C1275 1.384 . S
N1279 C1271 1.427 . S
N1279 C1277 1.384 . S
H1280 C1286 0.930 . S
H1281 C1290 0.930 . S
H1282 C1295 0.929 . S
H1283 C1293 0.929 . S
H1284 C1288 0.929 . S
H1285 C1294 0.929 . S
C1286 H1280 0.930 . S
C1286 C1287 1.367 . S
C1286 C1294 1.378 . S
C1287 C1286 1.367 . S
C1287 C1295 1.433 . S
C1288 H1284 0.929 . S
C1288 C1290 1.378 . S
C1288 C1292 1.350 . S
C1289 C1292 1.463 . S
C1289 C1294 1.350 . S
C1289 N1297 1.427 . S
C1290 H1281 0.930 . S
C1290 C1288 1.378 . S
C1290 C1291 1.367 . S
C1291 C1290 1.367 . S
C1291 C1293 1.433 . S
C1292 C1288 1.350 . S
C1292 C1289 1.463 . S
C1292 N1296 1.427 . S
C1293 H1283 0.929 . S
C1293 C1291 1.433 . S
C1293 N1296 1.384 . S
C1294 H1285 0.929 . S
C1294 C1286 1.378 . S
C1294 C1289 1.350 . S
C1295 H1282 0.929 . S
C1295 C1287 1.433 . S
C1295 N1297 1.384 . S
N1296 C1292 1.427 . S
N1296 C1293 1.384 . S
N1297 C1289 1.427 . S
N1297 C1295 1.384 . S
H1298 C1304 0.930 . S
H1299 C1308 0.930 . S
H1300 C1313 0.929 . S
H1301 C1311 0.929 . S
H1302 C1306 0.929 . S
H1303 C1312 0.929 . S
C1304 H1298 0.930 . S
C1304 C1305 1.367 . S
C1304 C1312 1.378 . S
C1305 C1304 1.367 . S
C1305 C1313 1.433 . S
C1306 H1302 0.929 . S
C1306 C1308 1.378 . S
C1306 C1310 1.350 . S
C1307 C1310 1.463 . S
C1307 C1312 1.350 . S
C1307 N1315 1.427 . S
C1308 H1299 0.930 . S
C1308 C1306 1.378 . S
C1308 C1309 1.367 . S
C1309 C1308 1.367 . S
C1309 C1311 1.433 . S
C1310 C1306 1.350 . S
C1310 C1307 1.463 . S
C1310 N1314 1.427 . S
C1311 H1301 0.929 . S
C1311 C1309 1.433 . S
C1311 N1314 1.384 . S
C1312 H1303 0.929 . S
C1312 C1304 1.378 . S
C1312 C1307 1.350 . S
C1313 H1300 0.929 . S
C1313 C1305 1.433 . S
C1313 N1315 1.384 . S
N1314 C1310 1.427 . S
N1314 C1311 1.384 . S
N1315 C1307 1.427 . S
N1315 C1313 1.384 . S
H1316 C1322 0.930 . S
H1317 C1326 0.930 . S
H1318 C1331 0.929 . S
H1319 C1329 0.929 . S
H1320 C1324 0.929 . S
H1321 C1330 0.929 . S
C1322 H1316 0.930 . S
C1322 C1323 1.367 . S
C1322 C1330 1.378 . S
C1323 C1322 1.367 . S
C1323 C1331 1.433 . S
C1324 H1320 0.929 . S
C1324 C1326 1.378 . S
C1324 C1328 1.350 . S
C1325 C1328 1.463 . S
C1325 C1330 1.350 . S
C1325 N1333 1.427 . S
C1326 H1317 0.930 . S
C1326 C1324 1.378 . S
C1326 C1327 1.367 . S
C1327 C1326 1.367 . S
C1327 C1329 1.433 . S
C1328 C1324 1.350 . S
C1328 C1325 1.463 . S
C1328 N1332 1.427 . S
C1329 H1319 0.929 . S
C1329 C1327 1.433 . S
C1329 N1332 1.384 . S
C1330 H1321 0.929 . S
C1330 C1322 1.378 . S
C1330 C1325 1.350 . S
C1331 H1318 0.929 . S
C1331 C1323 1.433 . S
C1331 N1333 1.384 . S
N1332 C1328 1.427 . S
N1332 C1329 1.384 . S
N1333 C1325 1.427 . S
N1333 C1331 1.384 . S
H1334 C1340 0.930 . S
H1335 C1344 0.930 . S
H1336 C1349 0.929 . S
H1337 C1347 0.929 . S
H1338 C1342 0.929 . S
H1339 C1348 0.929 . S
C1340 H1334 0.930 . S
C1340 C1341 1.367 . S
C1340 C1348 1.378 . S
C1341 C1340 1.367 . S
C1341 C1349 1.433 . S
C1342 H1338 0.929 . S
C1342 C1344 1.378 . S
C1342 C1346 1.350 . S
C1343 C1346 1.463 . S
C1343 C1348 1.350 . S
C1343 N1351 1.427 . S
C1344 H1335 0.930 . S
C1344 C1342 1.378 . S
C1344 C1345 1.367 . S
C1345 C1344 1.367 . S
C1345 C1347 1.433 . S
C1346 C1342 1.350 . S
C1346 C1343 1.463 . S
C1346 N1350 1.427 . S
C1347 H1337 0.929 . S
C1347 C1345 1.433 . S
C1347 N1350 1.384 . S
C1348 H1339 0.929 . S
C1348 C1340 1.378 . S
C1348 C1343 1.350 . S
C1349 H1336 0.929 . S
C1349 C1341 1.433 . S
C1349 N1351 1.384 . S
N1350 C1346 1.427 . S
N1350 C1347 1.384 . S
N1351 C1343 1.427 . S
N1351 C1349 1.384 . S
H1352 C1358 0.930 . S
H1353 C1362 0.930 . S
H1354 C1367 0.929 . S
H1355 C1365 0.929 . S
H1356 C1360 0.929 . S
H1357 C1366 0.929 . S
C1358 H1352 0.930 . S
C1358 C1359 1.367 . S
C1358 C1366 1.378 . S
C1359 C1358 1.367 . S
C1359 C1367 1.433 . S
C1360 H1356 0.929 . S
C1360 C1362 1.378 . S
C1360 C1364 1.350 . S
C1361 C1364 1.463 . S
C1361 C1366 1.350 . S
C1361 N1369 1.427 . S
C1362 H1353 0.930 . S
C1362 C1360 1.378 . S
C1362 C1363 1.367 . S
C1363 C1362 1.367 . S
C1363 C1365 1.433 . S
C1364 C1360 1.350 . S
C1364 C1361 1.463 . S
C1364 N1368 1.427 . S
C1365 H1355 0.929 . S
C1365 C1363 1.433 . S
C1365 N1368 1.384 . S
C1366 H1357 0.929 . S
C1366 C1358 1.378 . S
C1366 C1361 1.350 . S
C1367 H1354 0.929 . S
C1367 C1359 1.433 . S
C1367 N1369 1.384 . S
N1368 C1364 1.427 . S
N1368 C1365 1.384 . S
N1369 C1361 1.427 . S
N1369 C1367 1.384 . S
H1370 C1376 0.930 . S
H1371 C1380 0.930 . S
H1372 C1385 0.929 . S
H1373 C1383 0.929 . S
H1374 C1378 0.929 . S
H1375 C1384 0.929 . S
C1376 H1370 0.930 . S
C1376 C1377 1.367 . S
C1376 C1384 1.378 . S
C1377 C1376 1.367 . S
C1377 C1385 1.433 . S
C1378 H1374 0.929 . S
C1378 C1380 1.378 . S
C1378 C1382 1.350 . S
C1379 C1382 1.463 . S
C1379 C1384 1.350 . S
C1379 N1387 1.427 . S
C1380 H1371 0.930 . S
C1380 C1378 1.378 . S
C1380 C1381 1.367 . S
C1381 C1380 1.367 . S
C1381 C1383 1.433 . S
C1382 C1378 1.350 . S
C1382 C1379 1.463 . S
C1382 N1386 1.427 . S
C1383 H1373 0.929 . S
C1383 C1381 1.433 . S
C1383 N1386 1.384 . S
C1384 H1375 0.929 . S
C1384 C1376 1.378 . S
C1384 C1379 1.350 . S
C1385 H1372 0.929 . S
C1385 C1377 1.433 . S
C1385 N1387 1.384 . S
N1386 C1382 1.427 . S
N1386 C1383 1.384 . S
N1387 C1379 1.427 . S
N1387 C1385 1.384 . S
H1388 C1394 0.930 . S
H1389 C1398 0.930 . S
H1390 C1403 0.929 . S
H1391 C1401 0.929 . S
H1392 C1396 0.929 . S
H1393 C1402 0.929 . S
C1394 H1388 0.930 . S
C1394 C1395 1.367 . S
C1394 C1402 1.378 . S
C1395 C1394 1.367 . S
C1395 C1403 1.433 . S
C1396 H1392 0.929 . S
C1396 C1398 1.378 . S
C1396 C1400 1.350 . S
C1397 C1400 1.463 . S
C1397 C1402 1.350 . S
C1397 N1405 1.427 . S
C1398 H1389 0.930 . S
C1398 C1396 1.378 . S
C1398 C1399 1.367 . S
C1399 C1398 1.367 . S
C1399 C1401 1.433 . S
C1400 C1396 1.350 . S
C1400 C1397 1.463 . S
C1400 N1404 1.427 . S
C1401 H1391 0.929 . S
C1401 C1399 1.433 . S
C1401 N1404 1.384 . S
C1402 H1393 0.929 . S
C1402 C1394 1.378 . S
C1402 C1397 1.350 . S
C1403 H1390 0.929 . S
C1403 C1395 1.433 . S
C1403 N1405 1.384 . S
N1404 C1400 1.427 . S
N1404 C1401 1.384 . S
N1405 C1397 1.427 . S
N1405 C1403 1.384 . S
H1406 C1412 0.930 . S
H1407 C1416 0.930 . S
H1408 C1421 0.929 . S
H1409 C1419 0.929 . S
H1410 C1414 0.929 . S
H1411 C1420 0.929 . S
C1412 H1406 0.930 . S
C1412 C1413 1.367 . S
C1412 C1420 1.378 . S
C1413 C1412 1.367 . S
C1413 C1421 1.433 . S
C1414 H1410 0.929 . S
C1414 C1416 1.378 . S
C1414 C1418 1.350 . S
C1415 C1418 1.463 . S
C1415 C1420 1.350 . S
C1415 N1423 1.427 . S
C1416 H1407 0.930 . S
C1416 C1414 1.378 . S
C1416 C1417 1.367 . S
C1417 C1416 1.367 . S
C1417 C1419 1.433 . S
C1418 C1414 1.350 . S
C1418 C1415 1.463 . S
C1418 N1422 1.427 . S
C1419 H1409 0.929 . S
C1419 C1417 1.433 . S
C1419 N1422 1.384 . S
C1420 H1411 0.929 . S
C1420 C1412 1.378 . S
C1420 C1415 1.350 . S
C1421 H1408 0.929 . S
C1421 C1413 1.433 . S
C1421 N1423 1.384 . S
N1422 C1418 1.427 . S
N1422 C1419 1.384 . S
N1423 C1415 1.427 . S
N1423 C1421 1.384 . S
H1424 C1430 0.930 . S
H1425 C1434 0.930 . S
H1426 C1439 0.929 . S
H1427 C1437 0.929 . S
H1428 C1432 0.929 . S
H1429 C1438 0.929 . S
C1430 H1424 0.930 . S
C1430 C1431 1.367 . S
C1430 C1438 1.378 . S
C1431 C1430 1.367 . S
C1431 C1439 1.433 . S
C1432 H1428 0.929 . S
C1432 C1434 1.378 . S
C1432 C1436 1.350 . S
C1433 C1436 1.463 . S
C1433 C1438 1.350 . S
C1433 N1441 1.427 . S
C1434 H1425 0.930 . S
C1434 C1432 1.378 . S
C1434 C1435 1.367 . S
C1435 C1434 1.367 . S
C1435 C1437 1.433 . S
C1436 C1432 1.350 . S
C1436 C1433 1.463 . S
C1436 N1440 1.427 . S
C1437 H1427 0.929 . S
C1437 C1435 1.433 . S
C1437 N1440 1.384 . S
C1438 H1429 0.929 . S
C1438 C1430 1.378 . S
C1438 C1433 1.350 . S
C1439 H1426 0.929 . S
C1439 C1431 1.433 . S
C1439 N1441 1.384 . S
N1440 C1436 1.427 . S
N1440 C1437 1.384 . S
N1441 C1433 1.427 . S
N1441 C1439 1.384 . S
H1442 C1448 0.930 . S
H1443 C1452 0.930 . S
H1444 C1457 0.929 . S
H1445 C1455 0.929 . S
H1446 C1450 0.929 . S
H1447 C1456 0.929 . S
C1448 H1442 0.930 . S
C1448 C1449 1.367 . S
C1448 C1456 1.378 . S
C1449 C1448 1.367 . S
C1449 C1457 1.433 . S
C1450 H1446 0.929 . S
C1450 C1452 1.378 . S
C1450 C1454 1.350 . S
C1451 C1454 1.463 . S
C1451 C1456 1.350 . S
C1451 N1459 1.427 . S
C1452 H1443 0.930 . S
C1452 C1450 1.378 . S
C1452 C1453 1.367 . S
C1453 C1452 1.367 . S
C1453 C1455 1.433 . S
C1454 C1450 1.350 . S
C1454 C1451 1.463 . S
C1454 N1458 1.427 . S
C1455 H1445 0.929 . S
C1455 C1453 1.433 . S
C1455 N1458 1.384 . S
C1456 H1447 0.929 . S
C1456 C1448 1.378 . S
C1456 C1451 1.350 . S
C1457 H1444 0.929 . S
C1457 C1449 1.433 . S
C1457 N1459 1.384 . S
N1458 C1454 1.427 . S
N1458 C1455 1.384 . S
N1459 C1451 1.427 . S
N1459 C1457 1.384 . S
C607 C282 1.340 . S
C603 N2 1.331 . S
C625 C325 2.621 . S
C621 C7 2.654 . S
C643 C371 1.733 . S
C639 N12 1.618 . S
C657 C16 1.847 . S
C661 C414 1.884 . S
C679 C454 2.729 . S
C675 C30 2.739 1_565 S
C697 C482 1.494 . S
C693 N35 1.449 . S
C711 C39 2.068 . S
C715 C525 2.024 . S
C733 C571 1.213 . S
C729 N25 1.152 1_565 S
C751 C286 1.229 . S
C747 N58 1.188 . S
C765 N81 1.966 . S
C769 C335 1.939 . S
C787 C365 1.426 . S
C783 N104 1.409 . S
C801 N127 1.226 . S
C805 C402 1.201 . S
C823 C442 0.884 . S
C819 N48 0.927 . S
C841 C486 1.556 . S
C837 N71 1.508 1_556 S
C855 N94 1.341 . S
C859 C535 1.311 . S
C877 C565 1.921 . S
C873 N117 1.940 . S
C891 C85 2.551 . S
C895 C294 2.466 . S
C909 C122 2.446 . S
C913 C446 2.406 . S
C927 C53 2.112 . S
C931 C494 2.032 . S
C949 C531 1.401 . S
C945 C76 1.444 1_655 S
C967 C575 1.863 . S
C963 C99 1.864 . S
C985 C375 1.997 . S
C981 C131 1.992 . S
C1003 C406 1.703 . S
C999 C62 1.735 1_565 S
C1017 C108 1.152 . S
C1021 C331 1.121 . S
C1039 C562 1.402 . S
C1035 N140 1.398 . S
C1053 C145 2.646 . S
C1057 C445 2.614 . S
C1075 C491 1.621 . S
C1071 N150 1.511 . S
C1089 C154 1.857 . S
C1093 C534 1.890 . S
C1111 C334 2.736 . S
C1107 C168 2.742 . S
C1125 N173 1.323 . S
C1129 C362 1.372 . S
C1147 C405 2.015 . S
C1143 C177 2.067 . S
C1165 C291 1.270 . S
C1161 N163 1.192 . S
C1183 C566 1.691 . S
C1179 C200 1.684 . S
C1201 C455 2.221 . S
C1197 N219 2.248 . S
C1215 N242 1.663 . S
C1219 C485 1.680 . S
C1237 C522 1.429 . S
C1233 C269 1.510 . S
C1255 C322 1.164 . S
C1251 C191 1.215 . S
C1269 N209 1.761 . S
C1273 C366 1.814 . S
C1287 N232 1.640 . S
C1291 C415 1.607 . S
C1305 C260 2.499 . S
C1309 C285 2.441 . S
C1323 C223 2.255 . S
C1327 C574 2.172 . S
C1341 N255 1.983 . S
C1345 C326 1.986 . S
C1359 N186 1.599 . S
C1363 C374 1.557 . S
C1381 C411 1.108 . S
C1377 C214 1.145 . S
C1399 C295 1.551 . S
C1395 C237 1.546 . S
C1417 C495 1.587 . S
C1413 N265 1.514 . S
C1435 C526 1.333 . S
C1431 N196 1.348 . S
C1453 C451 0.854 . S
C1449 C246 0.859 . S
