# Generated by pormake.
# Topology gar, (4,6)-cn, num edge types: 1
# Building blocks:
#     Node 0, Type 0, BuildingBlock: QUQFOY_clean_sbu_3, # of connection points: 4
#     Node 1, Type 0, BuildingBlock: QUQFOY_clean_sbu_3, # of connection points: 4
#     Node 2, Type 0, BuildingBlock: QUQFOY_clean_sbu_3, # of connection points: 4
#     Node 3, Type 0, BuildingBlock: QUQFOY_clean_sbu_3, # of connection points: 4
#     Node 4, Type 0, BuildingBlock: QUQFOY_clean_sbu_3, # of connection points: 4
#     Node 5, Type 0, BuildingBlock: QUQFOY_clean_sbu_3, # of connection points: 4
#     Node 6, Type 0, BuildingBlock: QUQFOY_clean_sbu_3, # of connection points: 4
#     Node 7, Type 0, BuildingBlock: QUQFOY_clean_sbu_3, # of connection points: 4
#     Node 8, Type 0, BuildingBlock: QUQFOY_clean_sbu_3, # of connection points: 4
#     Node 9, Type 0, BuildingBlock: QUQFOY_clean_sbu_3, # of connection points: 4
#     Node 10, Type 0, BuildingBlock: QUQFOY_clean_sbu_3, # of connection points: 4
#     Node 11, Type 0, BuildingBlock: QUQFOY_clean_sbu_3, # of connection points: 4
#     Node 12, Type 0, BuildingBlock: QUQFOY_clean_sbu_3, # of connection points: 4
#     Node 13, Type 0, BuildingBlock: QUQFOY_clean_sbu_3, # of connection points: 4
#     Node 14, Type 0, BuildingBlock: QUQFOY_clean_sbu_3, # of connection points: 4
#     Node 15, Type 0, BuildingBlock: QUQFOY_clean_sbu_3, # of connection points: 4
#     Node 16, Type 0, BuildingBlock: QUQFOY_clean_sbu_3, # of connection points: 4
#     Node 17, Type 0, BuildingBlock: QUQFOY_clean_sbu_3, # of connection points: 4
#     Node 18, Type 0, BuildingBlock: QUQFOY_clean_sbu_3, # of connection points: 4
#     Node 19, Type 0, BuildingBlock: QUQFOY_clean_sbu_3, # of connection points: 4
#     Node 20, Type 0, BuildingBlock: QUQFOY_clean_sbu_3, # of connection points: 4
#     Node 21, Type 0, BuildingBlock: QUQFOY_clean_sbu_3, # of connection points: 4
#     Node 22, Type 0, BuildingBlock: QUQFOY_clean_sbu_3, # of connection points: 4
#     Node 23, Type 0, BuildingBlock: QUQFOY_clean_sbu_3, # of connection points: 4
#     Node 24, Type 1, BuildingBlock: MIFKUJ_clean_sbu_0, # of connection points: 6
#     Node 25, Type 1, BuildingBlock: MIFKUJ_clean_sbu_0, # of connection points: 6
#     Node 26, Type 1, BuildingBlock: MIFKUJ_clean_sbu_0, # of connection points: 6
#     Node 27, Type 1, BuildingBlock: MIFKUJ_clean_sbu_0, # of connection points: 6
#     Node 28, Type 1, BuildingBlock: MIFKUJ_clean_sbu_0, # of connection points: 6
#     Node 29, Type 1, BuildingBlock: MIFKUJ_clean_sbu_0, # of connection points: 6
#     Node 30, Type 1, BuildingBlock: MIFKUJ_clean_sbu_0, # of connection points: 6
#     Node 31, Type 1, BuildingBlock: MIFKUJ_clean_sbu_0, # of connection points: 6
#     Node 32, Type 1, BuildingBlock: MIFKUJ_clean_sbu_0, # of connection points: 6
#     Node 33, Type 1, BuildingBlock: MIFKUJ_clean_sbu_0, # of connection points: 6
#     Node 34, Type 1, BuildingBlock: MIFKUJ_clean_sbu_0, # of connection points: 6
#     Node 35, Type 1, BuildingBlock: MIFKUJ_clean_sbu_0, # of connection points: 6
#     Node 36, Type 1, BuildingBlock: MIFKUJ_clean_sbu_0, # of connection points: 6
#     Node 37, Type 1, BuildingBlock: MIFKUJ_clean_sbu_0, # of connection points: 6
#     Node 38, Type 1, BuildingBlock: MIFKUJ_clean_sbu_0, # of connection points: 6
#     Node 39, Type 1, BuildingBlock: MIFKUJ_clean_sbu_0, # of connection points: 6
#     Edge 40, Type (0, 1), BuildingBlock: AJUNOK_clean_linker_0, # of connection points: 2
#     Edge 41, Type (0, 1), BuildingBlock: AJUNOK_clean_linker_0, # of connection points: 2
#     Edge 42, Type (0, 1), BuildingBlock: AJUNOK_clean_linker_0, # of connection points: 2
#     Edge 43, Type (0, 1), BuildingBlock: AJUNOK_clean_linker_0, # of connection points: 2
#     Edge 44, Type (0, 1), BuildingBlock: AJUNOK_clean_linker_0, # of connection points: 2
#     Edge 45, Type (0, 1), BuildingBlock: AJUNOK_clean_linker_0, # of connection points: 2
#     Edge 46, Type (0, 1), BuildingBlock: AJUNOK_clean_linker_0, # of connection points: 2
#     Edge 47, Type (0, 1), BuildingBlock: AJUNOK_clean_linker_0, # of connection points: 2
#     Edge 48, Type (0, 1), BuildingBlock: AJUNOK_clean_linker_0, # of connection points: 2
#     Edge 49, Type (0, 1), BuildingBlock: AJUNOK_clean_linker_0, # of connection points: 2
#     Edge 50, Type (0, 1), BuildingBlock: AJUNOK_clean_linker_0, # of connection points: 2
#     Edge 51, Type (0, 1), BuildingBlock: AJUNOK_clean_linker_0, # of connection points: 2
#     Edge 52, Type (0, 1), BuildingBlock: AJUNOK_clean_linker_0, # of connection points: 2
#     Edge 53, Type (0, 1), BuildingBlock: AJUNOK_clean_linker_0, # of connection points: 2
#     Edge 54, Type (0, 1), BuildingBlock: AJUNOK_clean_linker_0, # of connection points: 2
#     Edge 55, Type (0, 1), BuildingBlock: AJUNOK_clean_linker_0, # of connection points: 2
#     Edge 56, Type (0, 1), BuildingBlock: AJUNOK_clean_linker_0, # of connection points: 2
#     Edge 57, Type (0, 1), BuildingBlock: AJUNOK_clean_linker_0, # of connection points: 2
#     Edge 58, Type (0, 1), BuildingBlock: AJUNOK_clean_linker_0, # of connection points: 2
#     Edge 59, Type (0, 1), BuildingBlock: AJUNOK_clean_linker_0, # of connection points: 2
#     Edge 60, Type (0, 1), BuildingBlock: AJUNOK_clean_linker_0, # of connection points: 2
#     Edge 61, Type (0, 1), BuildingBlock: AJUNOK_clean_linker_0, # of connection points: 2
#     Edge 62, Type (0, 1), BuildingBlock: AJUNOK_clean_linker_0, # of connection points: 2
#     Edge 63, Type (0, 1), BuildingBlock: AJUNOK_clean_linker_0, # of connection points: 2
#     Edge 64, Type (0, 1), BuildingBlock: AJUNOK_clean_linker_0, # of connection points: 2
#     Edge 65, Type (0, 1), BuildingBlock: AJUNOK_clean_linker_0, # of connection points: 2
#     Edge 66, Type (0, 1), BuildingBlock: AJUNOK_clean_linker_0, # of connection points: 2
#     Edge 67, Type (0, 1), BuildingBlock: AJUNOK_clean_linker_0, # of connection points: 2
#     Edge 68, Type (0, 1), BuildingBlock: AJUNOK_clean_linker_0, # of connection points: 2
#     Edge 69, Type (0, 1), BuildingBlock: AJUNOK_clean_linker_0, # of connection points: 2
#     Edge 70, Type (0, 1), BuildingBlock: AJUNOK_clean_linker_0, # of connection points: 2
#     Edge 71, Type (0, 1), BuildingBlock: AJUNOK_clean_linker_0, # of connection points: 2
#     Edge 72, Type (0, 1), BuildingBlock: AJUNOK_clean_linker_0, # of connection points: 2
#     Edge 73, Type (0, 1), BuildingBlock: AJUNOK_clean_linker_0, # of connection points: 2
#     Edge 74, Type (0, 1), BuildingBlock: AJUNOK_clean_linker_0, # of connection points: 2
#     Edge 75, Type (0, 1), BuildingBlock: AJUNOK_clean_linker_0, # of connection points: 2
#     Edge 76, Type (0, 1), BuildingBlock: AJUNOK_clean_linker_0, # of connection points: 2
#     Edge 77, Type (0, 1), BuildingBlock: AJUNOK_clean_linker_0, # of connection points: 2
#     Edge 78, Type (0, 1), BuildingBlock: AJUNOK_clean_linker_0, # of connection points: 2
#     Edge 79, Type (0, 1), BuildingBlock: AJUNOK_clean_linker_0, # of connection points: 2
#     Edge 80, Type (0, 1), BuildingBlock: AJUNOK_clean_linker_0, # of connection points: 2
#     Edge 81, Type (0, 1), BuildingBlock: AJUNOK_clean_linker_0, # of connection points: 2
#     Edge 82, Type (0, 1), BuildingBlock: AJUNOK_clean_linker_0, # of connection points: 2
#     Edge 83, Type (0, 1), BuildingBlock: AJUNOK_clean_linker_0, # of connection points: 2
#     Edge 84, Type (0, 1), BuildingBlock: AJUNOK_clean_linker_0, # of connection points: 2
#     Edge 85, Type (0, 1), BuildingBlock: AJUNOK_clean_linker_0, # of connection points: 2
#     Edge 86, Type (0, 1), BuildingBlock: AJUNOK_clean_linker_0, # of connection points: 2
#     Edge 87, Type (0, 1), BuildingBlock: AJUNOK_clean_linker_0, # of connection points: 2
#     Edge 88, Type (0, 1), BuildingBlock: AJUNOK_clean_linker_0, # of connection points: 2
#     Edge 89, Type (0, 1), BuildingBlock: AJUNOK_clean_linker_0, # of connection points: 2
#     Edge 90, Type (0, 1), BuildingBlock: AJUNOK_clean_linker_0, # of connection points: 2
#     Edge 91, Type (0, 1), BuildingBlock: AJUNOK_clean_linker_0, # of connection points: 2
#     Edge 92, Type (0, 1), BuildingBlock: AJUNOK_clean_linker_0, # of connection points: 2
#     Edge 93, Type (0, 1), BuildingBlock: AJUNOK_clean_linker_0, # of connection points: 2
#     Edge 94, Type (0, 1), BuildingBlock: AJUNOK_clean_linker_0, # of connection points: 2
#     Edge 95, Type (0, 1), BuildingBlock: AJUNOK_clean_linker_0, # of connection points: 2
#     Edge 96, Type (0, 1), BuildingBlock: AJUNOK_clean_linker_0, # of connection points: 2
#     Edge 97, Type (0, 1), BuildingBlock: AJUNOK_clean_linker_0, # of connection points: 2
#     Edge 98, Type (0, 1), BuildingBlock: AJUNOK_clean_linker_0, # of connection points: 2
#     Edge 99, Type (0, 1), BuildingBlock: AJUNOK_clean_linker_0, # of connection points: 2
#     Edge 100, Type (0, 1), BuildingBlock: AJUNOK_clean_linker_0, # of connection points: 2
#     Edge 101, Type (0, 1), BuildingBlock: AJUNOK_clean_linker_0, # of connection points: 2
#     Edge 102, Type (0, 1), BuildingBlock: AJUNOK_clean_linker_0, # of connection points: 2
#     Edge 103, Type (0, 1), BuildingBlock: AJUNOK_clean_linker_0, # of connection points: 2
#     Edge 104, Type (0, 1), BuildingBlock: AJUNOK_clean_linker_0, # of connection points: 2
#     Edge 105, Type (0, 1), BuildingBlock: AJUNOK_clean_linker_0, # of connection points: 2
#     Edge 106, Type (0, 1), BuildingBlock: AJUNOK_clean_linker_0, # of connection points: 2
#     Edge 107, Type (0, 1), BuildingBlock: AJUNOK_clean_linker_0, # of connection points: 2
#     Edge 108, Type (0, 1), BuildingBlock: AJUNOK_clean_linker_0, # of connection points: 2
#     Edge 109, Type (0, 1), BuildingBlock: AJUNOK_clean_linker_0, # of connection points: 2
#     Edge 110, Type (0, 1), BuildingBlock: AJUNOK_clean_linker_0, # of connection points: 2
#     Edge 111, Type (0, 1), BuildingBlock: AJUNOK_clean_linker_0, # of connection points: 2
#     Edge 112, Type (0, 1), BuildingBlock: AJUNOK_clean_linker_0, # of connection points: 2
#     Edge 113, Type (0, 1), BuildingBlock: AJUNOK_clean_linker_0, # of connection points: 2
#     Edge 114, Type (0, 1), BuildingBlock: AJUNOK_clean_linker_0, # of connection points: 2
#     Edge 115, Type (0, 1), BuildingBlock: AJUNOK_clean_linker_0, # of connection points: 2
#     Edge 116, Type (0, 1), BuildingBlock: AJUNOK_clean_linker_0, # of connection points: 2
#     Edge 117, Type (0, 1), BuildingBlock: AJUNOK_clean_linker_0, # of connection points: 2
#     Edge 118, Type (0, 1), BuildingBlock: AJUNOK_clean_linker_0, # of connection points: 2
#     Edge 119, Type (0, 1), BuildingBlock: AJUNOK_clean_linker_0, # of connection points: 2
#     Edge 120, Type (0, 1), BuildingBlock: AJUNOK_clean_linker_0, # of connection points: 2
#     Edge 121, Type (0, 1), BuildingBlock: AJUNOK_clean_linker_0, # of connection points: 2
#     Edge 122, Type (0, 1), BuildingBlock: AJUNOK_clean_linker_0, # of connection points: 2
#     Edge 123, Type (0, 1), BuildingBlock: AJUNOK_clean_linker_0, # of connection points: 2
#     Edge 124, Type (0, 1), BuildingBlock: AJUNOK_clean_linker_0, # of connection points: 2
#     Edge 125, Type (0, 1), BuildingBlock: AJUNOK_clean_linker_0, # of connection points: 2
#     Edge 126, Type (0, 1), BuildingBlock: AJUNOK_clean_linker_0, # of connection points: 2
#     Edge 127, Type (0, 1), BuildingBlock: AJUNOK_clean_linker_0, # of connection points: 2
#     Edge 128, Type (0, 1), BuildingBlock: AJUNOK_clean_linker_0, # of connection points: 2
#     Edge 129, Type (0, 1), BuildingBlock: AJUNOK_clean_linker_0, # of connection points: 2
#     Edge 130, Type (0, 1), BuildingBlock: AJUNOK_clean_linker_0, # of connection points: 2
#     Edge 131, Type (0, 1), BuildingBlock: AJUNOK_clean_linker_0, # of connection points: 2
#     Edge 132, Type (0, 1), BuildingBlock: AJUNOK_clean_linker_0, # of connection points: 2
#     Edge 133, Type (0, 1), BuildingBlock: AJUNOK_clean_linker_0, # of connection points: 2
#     Edge 134, Type (0, 1), BuildingBlock: AJUNOK_clean_linker_0, # of connection points: 2
#     Edge 135, Type (0, 1), BuildingBlock: AJUNOK_clean_linker_0, # of connection points: 2
# Relax obj value: 0.104
# Max RMSD: 0.310
# Mean RMSD: 0.131
data_MOF--net-gar--node1-QUQFOY_clean_sbu_3--node2-MIFKUJ_clean_sbu_0--edge1-AJUNOK_clean_linker_0
_symmetry_space_group_name_H-M    P1
_symmetry_Int_Tables_number       1
_symmetry_cell_setting            triclinic
loop_
_symmetry_equiv_pos_as_xyz
'x, y, z'
_cell_length_a     42.854647
_cell_length_b     43.723344
_cell_length_c     41.25784
_cell_angle_alpha  95.885213
_cell_angle_beta   94.82918
_cell_angle_gamma 100.23223
loop_
_atom_site_label
_atom_site_type_symbol
_atom_site_fract_x
_atom_site_fract_y
_atom_site_fract_z
_atom_type_partial_charge
C0 C 0.98343 0.30125 0.35796 0.0
O1 O 0.00311 0.31965 0.3442 0.0
Cd2 Cd 0.05957 0.32524 0.35667 0.0
O3 O -0.00689 0.28408 0.37835 0.0
Cd4 Cd 0.04199 0.27147 0.40467 0.0
C5 C 0.05901 0.34748 0.43858 0.0
O6 O 0.06581 0.27175 0.35409 0.0
O7 O 0.09743 0.26619 0.39543 0.0
O8 O 0.01299 0.21813 0.40282 0.0
C9 C 0.0927 0.26677 0.36472 0.0
O10 O 0.06748 0.35504 0.4112 0.0
C11 C 0.02104 0.2154 0.43259 0.0
O12 O 0.04798 0.31919 0.44208 0.0
O13 O 0.03883 0.23895 0.44951 0.0
C14 C 0.94809 0.73626 0.68074 0.0
O15 O 0.96141 0.7164 0.69422 0.0
Cd16 Cd 0.00815 0.70005 0.6769 0.0
O17 O 0.95932 0.74846 0.65638 0.0
Cd18 Cd 0.0051 0.74702 0.62316 0.0
C19 C 0.99064 0.66957 0.59583 0.0
O20 O 0.04284 0.74779 0.67057 0.0
O21 O 0.06093 0.74218 0.62342 0.0
O22 O 0.02013 0.80253 0.6177 0.0
C23 C 0.06643 0.74589 0.65442 0.0
O24 O -0.00459 0.66488 0.62564 0.0
C25 C 0.00653 0.8008 0.58892 0.0
O26 O 0.99207 0.69712 0.58796 0.0
O27 O 0.99214 0.77397 0.57571 0.0
C28 C 0.47421 0.78234 0.86519 0.0
O29 O 0.49299 0.7982 0.84826 0.0
Cd30 Cd 0.54985 0.80782 0.86212 0.0
O31 O 0.48522 0.76964 0.88896 0.0
Cd32 Cd 0.53544 0.76251 0.91742 0.0
C33 C 0.55274 0.83946 0.94291 0.0
O34 O 0.56441 0.75843 0.86919 0.0
O35 O 0.59204 0.76344 0.91626 0.0
O36 O 0.51217 0.70809 0.91675 0.0
C37 C 0.59101 0.75878 0.88531 0.0
O38 O 0.55834 0.8426 0.91348 0.0
C39 C 0.51827 0.70708 0.94721 0.0
O40 O 0.54221 0.81262 0.9512 0.0
O41 O 0.5317 0.73251 0.96443 0.0
C42 C 0.46256 0.24104 0.19827 0.0
O43 O 0.47983 0.2269 0.21567 0.0
Cd44 Cd 0.5263 0.21008 0.19784 0.0
O45 O 0.47037 0.24798 0.17041 0.0
Cd46 Cd 0.51435 0.24385 0.13525 0.0
C47 C 0.49855 0.16519 0.12362 0.0
O48 O 0.55833 0.25334 0.17847 0.0
O49 O 0.56858 0.23543 0.13052 0.0
O50 O 0.52507 0.29791 0.12423 0.0
C51 C 0.57885 0.24663 0.15984 0.0
O52 O 0.5091 0.16734 0.15372 0.0
C53 C 0.51338 0.29281 0.09453 0.0
O54 O 0.49654 0.18967 0.10992 0.0
O55 O 0.50141 0.26465 0.08329 0.0
C56 C 0.98231 0.77168 0.21666 0.0
O57 O 0.00091 0.76469 0.23925 0.0
Cd58 Cd 0.05499 0.75962 0.2301 0.0
O59 O 0.99271 0.77893 0.18996 0.0
Cd60 Cd 0.03726 0.78796 0.15679 0.0
C61 C 0.03458 0.70963 0.15668 0.0
O62 O 0.07683 0.80268 0.20318 0.0
O63 O 0.09487 0.79855 0.15632 0.0
O64 O 0.01467 0.83269 0.14335 0.0
C65 C 0.10074 0.80167 0.18723 0.0
O66 O 0.04446 0.71512 0.18714 0.0
C67 C 0.0176 0.82881 0.11289 0.0
O68 O 0.02914 0.73164 0.14015 0.0
O69 O 0.03019 0.80592 0.10253 0.0
C70 C 0.43676 0.73595 0.32116 0.0
O71 O 0.45533 0.75372 0.30576 0.0
Cd72 Cd 0.50493 0.78359 0.32996 0.0
O73 O 0.44553 0.7308 0.35016 0.0
Cd74 Cd 0.49485 0.74219 0.39006 0.0
C75 C 0.4832 0.81597 0.4039 0.0
O76 O 0.5342 0.74805 0.35126 0.0
O77 O 0.55133 0.76674 0.40125 0.0
O78 O 0.49411 0.68699 0.39019 0.0
C79 C 0.55752 0.7607 0.37203 0.0
O80 O 0.49164 0.8176 0.37513 0.0
C81 C 0.49594 0.68651 0.42095 0.0
O82 O 0.48099 0.79039 0.41666 0.0
O83 O 0.49522 0.71215 0.43827 0.0
C84 C 0.47964 0.25094 0.71371 0.0
O85 O 0.50023 0.24368 0.73408 0.0
Cd86 Cd 0.55443 0.24454 0.72286 0.0
O87 O 0.48777 0.26173 0.68749 0.0
Cd88 Cd 0.53237 0.27764 0.65515 0.0
C89 C 0.53623 0.20019 0.64567 0.0
O90 O 0.57064 0.29286 0.70258 0.0
O91 O 0.59053 0.29147 0.65656 0.0
O92 O 0.51126 0.32499 0.65138 0.0
C93 C 0.59536 0.29593 0.68758 0.0
O94 O 0.54653 0.20414 0.67602 0.0
C95 C 0.51232 0.32581 0.62082 0.0
O96 O 0.52814 0.22269 0.6315 0.0
O97 O 0.52206 0.30324 0.60526 0.0
C98 C 0.9383 0.25059 0.82969 0.0
O99 O 0.95496 0.27065 0.81496 0.0
Cd100 Cd 0.00581 0.29873 0.83812 0.0
O101 O 0.9497 0.24217 0.85614 0.0
Cd102 Cd 0.0014 0.25076 0.89051 0.0
C103 C 0.98917 0.32203 0.91681 0.0
O104 O 0.03708 0.26029 0.84821 0.0
O105 O 0.05795 0.27376 0.89823 0.0
O106 O -0.00198 0.19465 0.88745 0.0
C107 C 0.06188 0.27001 0.86806 0.0
O108 O -0.0042 0.3285 0.88846 0.0
C109 C 0.00214 0.19368 0.91812 0.0
O110 O 0.98831 0.29449 0.92453 0.0
O111 O 0.00518 0.2195 0.93634 0.0
C112 C 0.4442 0.00943 0.33399 0.0
O113 O 0.46066 -0.00227 0.31353 0.0
Cd114 Cd 0.43942 0.97375 0.26033 0.0
O115 O 0.4154 0.01171 0.32551 0.0
Cd116 Cd 0.37419 0.00349 0.27711 0.0
C117 C 0.37067 0.927 0.28259 0.0
O118 O 0.41244 0.01047 0.23867 0.0
O119 O 0.36474 0.99058 0.21728 0.0
O120 O 0.36959 0.05632 0.29607 0.0
C121 C 0.39372 -0.00033 0.21314 0.0
O122 O 0.3983 0.93164 0.27262 0.0
C123 C 0.34022 0.05365 0.28648 0.0
O124 O 0.35541 0.94936 0.28745 0.0
O125 O 0.32549 0.02677 0.27356 0.0
C126 C 0.29535 0.08038 0.52486 0.0
O127 O 0.27332 0.06146 0.53507 0.0
Cd128 Cd 0.22003 0.06991 0.54007 0.0
O129 O 0.28979 0.10584 0.51496 0.0
Cd130 Cd 0.24533 0.13552 0.50656 0.0
C131 C 0.23926 0.14183 0.58889 0.0
O132 O 0.20315 0.08961 0.49162 0.0
O133 O 0.18742 0.13324 0.50091 0.0
O134 O 0.26213 0.14693 0.45339 0.0
C135 C 0.17994 0.10381 0.49365 0.0
O136 O 0.22738 0.11267 0.58436 0.0
C137 C 0.26403 0.17642 0.45793 0.0
O138 O 0.24962 0.15608 0.56527 0.0
O139 O 0.25783 0.18759 0.48584 0.0
C140 C 0.08036 0.02005 0.84815 0.0
O141 O 0.06529 0.0337 0.82806 0.0
Cd142 Cd 0.085 0.0495 0.7787 0.0
O143 O 0.10685 0.0124 0.84182 0.0
Cd144 Cd 0.14034 0.01256 0.79376 0.0
C145 C 0.16186 0.09107 0.80307 0.0
O146 O 0.09643 0.00395 0.7489 0.0
O147 O 0.14375 0.01837 0.73559 0.0
O148 O 0.14373 0.95893 0.80316 0.0
C149 C 0.11431 0.00946 0.7264 0.0
O150 O 0.133 0.09005 0.79189 0.0
C151 C 0.17302 0.96076 0.79925 0.0
O152 O 0.17155 0.06601 0.80872 0.0
O153 O 0.18787 0.98712 0.79345 0.0
C154 C 0.31572 0.92142 0.97718 0.0
O155 O 0.29946 0.93876 0.96296 0.0
Cd156 Cd 0.2424 0.92995 0.96187 0.0
O157 O 0.3024 0.90018 0.99316 0.0
Cd158 Cd 0.25112 0.8767 0.01073 0.0
C159 C 0.22715 0.85166 0.93089 0.0
O160 O 0.23402 0.92616 0.01808 0.0
O161 O 0.19929 0.8862 0.02595 0.0
O162 O 0.28043 0.87419 0.06284 0.0
C163 C 0.20665 0.9156 0.02597 0.0
O164 O 0.22731 0.88015 0.92674 0.0
C165 C 0.26878 0.84568 0.06454 0.0
O166 O 0.23486 0.84404 0.95897 0.0
O167 O 0.24928 0.83135 0.0406 0.0
C168 C 0.32776 0.44194 0.06027 0.0
O169 O 0.30958 0.45988 0.05058 0.0
Cd170 Cd 0.25588 0.44099 0.02893 0.0
O171 O 0.31661 0.41361 0.06436 0.0
Cd172 Cd 0.26397 0.37708 0.06455 0.0
C173 C 0.26898 0.37275 0.98312 0.0
O174 O 0.23162 0.41693 0.07108 0.0
O175 O 0.20543 0.37098 0.05299 0.0
O176 O 0.278 0.36957 0.12154 0.0
C177 C 0.20489 0.39956 0.06153 0.0
O178 O 0.26322 0.40048 0.9862 0.0
C179 C 0.26994 0.33991 0.11801 0.0
O180 O 0.27068 0.3575 0.00781 0.0
O181 O 0.25991 0.327 0.08907 0.0
C182 C 0.81763 0.09479 0.04111 0.0
O183 O 0.80605 0.08299 0.06532 0.0
Cd184 Cd 0.76677 0.1043 0.09314 0.0
O185 O 0.80758 0.11782 0.03013 0.0
Cd186 Cd 0.76564 0.14877 0.03967 0.0
C187 C 0.79875 0.18277 0.11333 0.0
O188 O 0.72491 0.10655 0.05196 0.0
O189 O 0.7153 0.1533 0.06129 0.0
O190 O 0.75253 0.14103 0.98112 0.0
C191 C 0.70521 0.12404 0.05898 0.0
O192 O 0.78969 0.15586 0.12228 0.0
C193 C 0.75391 0.16963 0.9774 0.0
O194 O 0.79504 0.18688 0.08331 0.0
O195 O 0.76154 0.18919 0.00304 0.0
C196 C 0.05941 0.47701 0.28519 0.0
O197 O 0.04412 0.48901 0.26362 0.0
Cd198 Cd 0.06034 0.49753 0.21075 0.0
O199 O 0.0858 0.46867 0.28006 0.0
Cd200 Cd 0.1239 0.46653 0.23863 0.0
C201 C 0.1317 0.54627 0.23985 0.0
O202 O 0.08088 0.45171 0.19652 0.0
O203 O 0.12636 0.45959 0.17816 0.0
O204 O 0.13834 0.42117 0.26256 0.0
C205 C 0.09626 0.45372 0.17187 0.0
O206 O 0.1044 0.54275 0.22356 0.0
C207 C 0.16827 0.43039 0.26306 0.0
O208 O 0.1426 0.52304 0.24939 0.0
O209 O 0.17734 0.45585 0.25129 0.0
C210 C 0.81746 0.94888 0.55186 0.0
O211 O 0.79895 0.96532 0.53964 0.0
Cd212 Cd 0.74671 0.94402 0.51516 0.0
O213 O 0.80702 0.92048 0.55629 0.0
Cd214 Cd 0.75432 0.88256 0.55224 0.0
C215 C 0.76387 0.87655 0.47221 0.0
O216 O 0.71933 0.92066 0.55612 0.0
O217 O 0.69633 0.87448 0.53487 0.0
O218 O 0.76241 0.87353 0.60955 0.0
C219 C 0.69375 0.90238 0.54422 0.0
O220 O 0.75707 0.90387 0.47382 0.0
C221 C 0.75668 0.8438 0.60472 0.0
O222 O 0.76515 0.86227 0.49757 0.0
O223 O 0.75057 0.83163 0.57502 0.0
C224 C 0.93014 0.99248 0.31666 0.0
O225 O 0.94542 0.97575 0.2994 0.0
Cd226 Cd 0.93593 0.9668 0.24058 0.0
O227 O 0.90964 0.00623 0.30287 0.0
Cd228 Cd 0.8865 0.01379 0.24722 0.0
C229 C 0.85533 0.93584 0.23264 0.0
O230 O 0.93718 0.01728 0.22256 0.0
O231 O 0.89554 0.01568 0.18902 0.0
O232 O 0.88844 0.06737 0.27137 0.0
C233 C 0.9256 0.0184 0.19353 0.0
O234 O 0.88377 0.93226 0.22919 0.0
C235 C 0.86046 0.06967 0.26048 0.0
O236 O 0.84935 0.96289 0.24116 0.0
O237 O 0.84388 0.04559 0.24323 0.0
C238 C 0.31217 0.58345 0.54218 0.0
O239 O 0.29592 0.56873 0.56197 0.0
Cd240 Cd 0.2508 0.58688 0.58172 0.0
O241 O 0.3046 0.60812 0.53251 0.0
Cd242 Cd 0.26312 0.64022 0.53725 0.0
C243 C 0.28021 0.66277 0.61723 0.0
O244 O 0.22049 0.59462 0.53286 0.0
O245 O 0.20652 0.63978 0.53985 0.0
O246 O 0.27352 0.64291 0.48144 0.0
C247 C 0.19839 0.61032 0.53393 0.0
O248 O 0.26837 0.63442 0.62 0.0
C249 C 0.26871 0.67054 0.48008 0.0
O250 O 0.28326 0.67157 0.58909 0.0
O251 O 0.26259 0.68515 0.50627 0.0
C252 C 0.44492 0.49302 0.82139 0.0
O253 O 0.46217 0.47873 0.80403 0.0
Cd254 Cd 0.44962 0.46612 0.74596 0.0
O255 O 0.42156 0.50317 0.8078 0.0
Cd256 Cd 0.39488 0.50661 0.75258 0.0
C257 C 0.3718 0.42756 0.74648 0.0
O258 O 0.44356 0.51392 0.72446 0.0
O259 O 0.39926 0.50447 0.69328 0.0
O260 O 0.39371 0.56085 0.77173 0.0
C261 C 0.42947 0.51163 0.69582 0.0
O262 O 0.40078 0.42677 0.74233 0.0
C263 C 0.3641 0.55949 0.76435 0.0
O264 O 0.36273 0.45372 0.75148 0.0
O265 O 0.34814 0.53308 0.75146 0.0
C266 C 0.57718 0.00982 0.80935 0.0
O267 O 0.55559 0.01524 0.78883 0.0
Cd268 Cd 0.55914 0.01429 0.73124 0.0
O269 O 0.6021 0.00103 0.79981 0.0
Cd270 Cd 0.62876 0.9879 0.7506 0.0
C271 C 0.63294 0.06504 0.73892 0.0
O272 O 0.57901 0.9683 0.71749 0.0
O273 O 0.61996 0.97152 0.69091 0.0
O274 O 0.64329 0.94427 0.77753 0.0
C275 C 0.5898 0.96576 0.68998 0.0
O276 O 0.60286 0.05854 0.73122 0.0
C277 C 0.67209 0.94855 0.77099 0.0
O278 O 0.64816 0.04416 0.74785 0.0
O279 O 0.68105 0.97159 0.75532 0.0
C280 C 0.79816 0.57347 0.00242 0.0
O281 O 0.77683 0.55598 0.01519 0.0
Cd282 Cd 0.72426 0.56461 0.02281 0.0
O283 O 0.79228 0.59814 0.99087 0.0
Cd284 Cd 0.74702 0.62702 0.98376 0.0
C285 C 0.74822 0.63765 0.06703 0.0
O286 O 0.70548 0.58072 0.97312 0.0
O287 O 0.68846 0.62335 0.98403 0.0
O288 O 0.75892 0.63888 0.92893 0.0
C289 C 0.68183 0.59382 0.97704 0.0
O290 O 0.73386 0.60932 0.06564 0.0
C291 C 0.7616 0.66843 0.93453 0.0
O292 O 0.75759 0.64921 0.04157 0.0
O293 O 0.75781 0.67918 0.96345 0.0
C294 C 0.96033 0.52445 0.83754 0.0
O295 O 0.97693 0.51336 0.81687 0.0
Cd296 Cd 0.95866 0.49451 0.76226 0.0
O297 O 0.93181 0.52784 0.829 0.0
Cd298 Cd 0.89482 0.52108 0.77633 0.0
C299 C 0.88947 0.44313 0.7747 0.0
O300 O 0.93832 0.53771 0.74551 0.0
O301 O 0.89645 0.51222 0.71615 0.0
O302 O 0.88085 0.57112 0.79516 0.0
C303 C 0.92428 0.5283 0.71729 0.0
O304 O 0.91776 0.44867 0.76651 0.0
C305 C 0.85312 0.56586 0.77984 0.0
O306 O 0.87457 0.46549 0.781 0.0
O307 O 0.84346 0.53864 0.76459 0.0
C308 C 0.8128 0.43294 0.49603 0.0
O309 O 0.79676 0.45109 0.48294 0.0
Cd310 Cd 0.73972 0.43513 0.47259 0.0
O311 O 0.79866 0.4077 0.50522 0.0
Cd312 Cd 0.74706 0.37577 0.51062 0.0
C313 C 0.73668 0.36245 0.42882 0.0
O314 O 0.72343 0.42117 0.52438 0.0
O315 O 0.69185 0.37621 0.51954 0.0
O316 O 0.77638 0.37143 0.56115 0.0
C317 C 0.69595 0.40565 0.52672 0.0
O318 O 0.73446 0.39117 0.42946 0.0
C319 C 0.767 0.34224 0.5611 0.0
O320 O 0.74123 0.35042 0.45515 0.0
O321 O 0.74763 0.32805 0.53698 0.0
C322 C 0.58215 0.52441 0.34924 0.0
O323 O 0.56613 0.53807 0.32998 0.0
Cd324 Cd 0.58302 0.55429 0.2796 0.0
O325 O 0.60896 0.51816 0.34203 0.0
Cd326 Cd 0.64206 0.52268 0.29393 0.0
C327 C 0.65758 0.60173 0.299 0.0
O328 O 0.59685 0.50954 0.2506 0.0
O329 O 0.64304 0.5257 0.23517 0.0
O330 O 0.64967 0.46982 0.30105 0.0
C331 C 0.61375 0.51454 0.22726 0.0
O332 O 0.62812 0.59804 0.2888 0.0
C333 C 0.67915 0.47407 0.29739 0.0
O334 O 0.66977 0.5782 0.30557 0.0
O335 O 0.69234 0.50177 0.29393 0.0
Zn336 Zn 0.04341 0.99302 0.04052 0.0
Zn337 Zn 0.98208 0.0259 0.00459 0.0
C338 C 4e-05 0.93465 0.04608 0.0
O339 O 0.98163 0.95301 0.05804 0.0
C340 C -0.00283 0.07264 0.96521 0.0
O341 O 0.98006 0.04938 0.94501 0.0
O342 O 0.08869 0.99034 0.05413 0.0
O343 O 0.04592 0.01378 -0.00151 0.0
O344 O -0.0019 0.9939 0.97458 0.0
C345 C 0.10193 0.97973 0.03012 0.0
O346 O 0.08582 0.97297 0.00103 0.0
O347 O 0.02422 0.94677 0.03276 0.0
C348 C 0.93058 0.05277 0.00747 0.0
O349 O 0.95393 0.07205 0.02572 0.0
O350 O 0.93579 0.02716 0.99335 0.0
O351 O 0.9832 0.024 0.05305 0.0
O352 O 0.02509 0.012 0.0798 0.0
O353 O 0.00446 0.06807 -0.0054 0.0
C354 C 0.02772 0.00249 0.97251 0.0
C355 C -0.00174 0.02049 0.07979 0.0
Zn356 Zn 0.2427 0.72929 0.29274 0.0
Zn357 Zn 0.26808 0.74691 0.23051 0.0
C358 C 0.19608 0.67368 0.28188 0.0
O359 O 0.18574 0.68841 0.30696 0.0
C360 C 0.31388 0.79706 0.2629 0.0
O361 O 0.3313 0.78108 0.24564 0.0
O362 O 0.24002 0.72744 0.34084 0.0
O363 O 0.29034 0.73398 0.29219 0.0
O364 O 0.29344 0.71439 0.24183 0.0
C365 C 0.25369 0.7055 0.34928 0.0
O366 O 0.26376 0.6876 0.3264 0.0
O367 O 0.22073 0.68674 0.26997 0.0
C368 C 0.27373 0.78804 0.18339 0.0
O369 O 0.26264 0.80403 0.20703 0.0
O370 O 0.27776 0.76035 0.18661 0.0
O371 O 0.22066 0.73604 0.22737 0.0
O372 O 0.21907 0.76154 0.27548 0.0
O373 O 0.28427 0.78625 0.26222 0.0
C374 C 0.30496 0.71992 0.27162 0.0
C375 C 0.20809 0.75461 0.24551 0.0
Zn376 Zn 0.47429 0.02003 0.5387 0.0
Zn377 Zn 0.53353 0.99077 0.51069 0.0
C378 C 0.50225 0.07162 0.58447 0.0
O379 O 0.48868 0.05204 0.60351 0.0
C380 C 0.50043 0.94014 0.4688 0.0
O381 O 0.51715 0.95779 0.45007 0.0
O382 O 0.42922 0.02662 0.54412 0.0
O383 O 0.47338 0.0116 0.48953 0.0
O384 O 0.5235 0.01968 0.47821 0.0
C385 C 0.42304 0.05007 0.5305 0.0
O386 O 0.44589 0.06672 0.51696 0.0
O387 O 0.50128 0.06255 0.55411 0.0
C388 C 0.57777 0.95169 0.51972 0.0
O389 O 0.55283 0.9376 0.53239 0.0
O390 O 0.57637 0.9772 0.50766 0.0
O391 O 0.53583 0.00948 0.55676 0.0
O392 O 0.48841 0.98874 0.56787 0.0
O393 O 0.50126 0.95012 0.49898 0.0
C394 C 0.49411 0.01934 0.47004 0.0
C395 C 0.5185 0.99346 0.57461 0.0
Zn396 Zn 0.29609 0.24589 0.77583 0.0
Zn397 Zn 0.24084 0.27667 0.79465 0.0
C398 C 0.268 0.20303 0.72213 0.0
O399 O 0.27837 0.18521 0.74276 0.0
C400 C 0.26729 0.31905 0.84892 0.0
O401 O 0.25761 0.33672 0.82771 0.0
O402 O 0.33907 0.23528 0.76978 0.0
O403 O 0.30684 0.29306 0.78535 0.0
O404 O 0.2623 0.30317 0.76259 0.0
C405 C 0.34965 0.2466 0.74478 0.0
O406 O 0.3322 0.26249 0.72787 0.0
O407 O 0.27167 0.2323 0.73085 0.0
C408 C 0.18769 0.27596 0.82643 0.0
O409 O 0.20531 0.26037 0.84356 0.0
O410 O 0.19796 0.28707 0.8012 0.0
O411 O 0.22979 0.22997 0.78408 0.0
O412 O 0.27362 0.21895 0.8074 0.0
O413 O 0.26507 0.29 0.83979 0.0
C414 C 0.29229 0.31074 0.76961 0.0
C415 C 0.2437 0.21165 0.79947 0.0
Zn416 Zn 0.01508 0.98308 0.53518 0.0
Zn417 Zn -0.00704 0.04463 0.51782 0.0
C418 C 0.06079 -0.00209 0.59016 0.0
O419 O 0.07789 0.9893 0.5671 0.0
C420 C 0.95535 0.01838 0.45892 0.0
O421 O 0.93585 0.03325 0.47441 0.0
O422 O 0.02057 0.93793 0.53184 0.0
O423 O 0.96668 0.98087 0.52909 0.0
O424 O 0.96193 0.02848 0.5482 0.0
C425 C 0.00019 0.92033 0.5457 0.0
O426 O 0.97816 0.93227 0.56004 0.0
O427 O 0.03153 -0.00153 0.58246 0.0
C428 C -0.00058 0.09477 0.48085 0.0
O429 O 0.01234 0.07425 0.46372 0.0
O430 O 0.98808 0.08781 0.50727 0.0
O431 O 0.03879 0.05046 0.53444 0.0
O432 O 0.04539 0.0072 0.50664 0.0
O433 O 0.98228 0.0174 0.47393 0.0
C434 C 0.95052 -0.00063 0.54273 0.0
C435 C 0.05547 0.03606 0.51663 0.0
Zn436 Zn 0.24773 0.79322 0.76391 0.0
Zn437 Zn 0.28038 0.72372 0.79447 0.0
C438 C 0.19564 0.77423 0.71764 0.0
O439 O 0.21678 0.79028 0.70152 0.0
C440 C 0.33718 0.74952 0.83326 0.0
O441 O 0.32093 0.73334 0.85351 0.0
O442 O 0.24496 0.8398 0.77171 0.0
O443 O 0.26492 0.77557 0.8031 0.0
O444 O 0.25529 0.73711 0.83185 0.0
C445 C 0.21979 0.84378 0.78482 0.0
O446 O 0.20036 0.81896 0.79146 0.0
O447 O 0.20348 0.77074 0.74723 0.0
C448 C 0.31339 0.6747 0.77878 0.0
O449 O 0.33128 0.69886 0.76887 0.0
O450 O 0.28752 0.67839 0.79055 0.0
O451 O 0.25948 0.73525 0.75219 0.0
O452 O 0.27395 0.77778 0.7292 0.0
O453 O 0.32385 0.75056 0.80486 0.0
C454 C 0.25137 0.76438 0.82655 0.0
C455 C 0.27482 0.74889 0.73091 0.0
Zn456 Zn 0.52552 0.0166 0.00186 0.0
Zn457 Zn 0.49843 0.98258 0.05382 0.0
C458 C 0.5732 0.06652 0.03222 0.0
O459 O 0.554 0.08228 0.01749 0.0
C460 C 0.4514 0.94553 0.00761 0.0
O461 O 0.46284 0.92391 0.02217 0.0
O462 O 0.53155 0.02743 0.95643 0.0
O463 O 0.52627 0.97004 -0.00403 0.0
O464 O 0.53202 0.95763 0.04624 0.0
C465 C 0.5586 0.02397 0.94768 0.0
O466 O 0.57973 0.01732 0.96945 0.0
O467 O 0.56556 0.03692 0.02969 0.0
C468 C 0.44778 0.97713 0.09172 0.0
O469 O 0.43671 0.99051 0.06728 0.0
O470 O 0.47492 0.96923 0.09114 0.0
O471 O 0.51193 0.02812 0.06749 0.0
O472 O 0.49111 0.0379 0.0204 0.0
O473 O 0.4654 0.97381 0.01489 0.0
C474 C 0.53547 0.95248 0.01611 0.0
C475 C 0.497 0.04503 0.05123 0.0
Zn476 Zn 0.28422 0.22768 0.27095 0.0
Zn477 Zn 0.26514 0.28852 0.30514 0.0
C478 C 0.3371 0.24367 0.23801 0.0
O479 O 0.3144 0.23061 0.21476 0.0
C480 C 0.19906 0.26892 0.28695 0.0
O481 O 0.20373 0.29222 0.26911 0.0
O482 O 0.28389 0.18098 0.26052 0.0
O483 O 0.27283 0.22755 0.31768 0.0
O484 O 0.28838 0.27477 0.3443 0.0
C485 C 0.30382 0.17416 0.28217 0.0
O486 O 0.32117 0.19712 0.30256 0.0
O487 O 0.33034 0.24667 0.2675 0.0
C488 C 0.25919 0.35356 0.30284 0.0
O489 O 0.28445 0.35494 0.28674 0.0
O490 O 0.25032 0.32938 0.31681 0.0
O491 O 0.28475 0.29235 0.26244 0.0
O492 O 0.25887 0.2473 0.23707 0.0
O493 O 0.22314 0.25899 0.29879 0.0
C494 C 0.28093 0.2453 0.34454 0.0
C495 C 0.27107 0.27598 0.23613 0.0
Zn496 Zn 0.5216 0.47084 0.03209 0.0
Zn497 Zn 0.50564 0.53384 0.02546 0.0
C498 C 0.56399 0.48579 0.08989 0.0
O499 O 0.58256 0.47523 0.06937 0.0
C500 C 0.46819 0.5152 0.96392 0.0
O501 O 0.44895 0.5302 0.97967 0.0
O502 O 0.52747 0.42563 0.03019 0.0
O503 O 0.47372 0.46993 0.02468 0.0
O504 O 0.47484 0.51461 0.05469 0.0
C505 C 0.50483 0.40631 0.03902 0.0
O506 O 0.47919 0.41619 0.0474 0.0
O507 O 0.5357 0.48734 0.07924 0.0
C508 C 0.51404 0.58768 -0.00384 0.0
O509 O 0.52943 0.56926 0.9792 0.0
O510 O 0.50066 0.57808 0.02056 0.0
O511 O 0.55209 0.53707 0.03812 0.0
O512 O 0.55256 0.49524 0.00439 0.0
O513 O 0.4939 0.5115 0.97942 0.0
C514 C 0.4602 0.48723 0.0435 0.0
C515 C 0.56577 0.52286 0.01681 0.0
Zn516 Zn 0.76458 0.31438 0.25289 0.0
Zn517 Zn 0.79331 0.24558 0.2808 0.0
C518 C 0.71223 0.28476 0.20799 0.0
O519 O 0.73149 0.29788 0.18812 0.0
C520 C 0.84718 0.27583 0.32396 0.0
O521 O 0.82854 0.26424 0.34519 0.0
O522 O 0.75741 0.35938 0.25924 0.0
O523 O 0.78364 0.30256 0.29465 0.0
O524 O 0.76588 0.2598 0.31509 0.0
C525 C 0.73334 0.36159 0.27493 0.0
O526 O 0.71764 0.33605 0.28456 0.0
O527 O 0.72144 0.28778 0.23843 0.0
C528 C 0.82504 0.19234 0.28027 0.0
O529 O 0.84981 0.21529 0.2848 0.0
O530 O 0.79711 0.19887 0.27766 0.0
O531 O 0.77697 0.25779 0.23766 0.0
O532 O 0.79297 0.30246 0.21918 0.0
O533 O 0.83679 0.27161 0.29381 0.0
C534 C 0.76699 0.28906 0.31485 0.0
C535 C 0.79452 0.27364 0.2195 0.0
Zn536 Zn 0.01138 0.50568 0.4777 0.0
Zn537 Zn 0.01153 0.50439 0.54562 0.0
C538 C 0.06997 0.54909 0.48384 0.0
O539 O 0.05316 0.56293 0.46379 0.0
C540 C 0.94976 0.46458 0.53141 0.0
O541 O 0.96303 0.44662 0.54985 0.0
O542 O 0.00877 0.50116 0.42872 0.0
O543 O 0.00341 0.46096 0.48921 0.0
O544 O 0.03938 0.4739 0.53166 0.0
C545 C 0.02693 0.48309 0.41839 0.0
O546 O 0.04386 0.471 0.4399 0.0
O547 O 0.05721 0.52319 0.49253 0.0
C548 C 0.00395 0.52863 0.61096 0.0
O549 O 0.01566 0.55585 0.60181 0.0
O550 O 0.00472 0.50366 0.59268 0.0
O551 O 0.02384 0.54888 0.53744 0.0
O552 O 0.98725 0.53924 0.49521 0.0
O553 O 0.96649 0.48977 0.52508 0.0
C554 C 0.02523 0.45387 0.50825 0.0
C555 C 0.00293 0.558 0.51909 0.0
Zn556 Zn 0.78751 0.75124 0.25175 0.0
Zn557 Zn 0.73025 0.78603 0.28586 0.0
C558 C 0.78026 0.7025 0.19805 0.0
O559 O 0.80303 0.69395 0.21631 0.0
C560 C 0.76465 0.82465 0.33864 0.0
O561 O 0.75482 0.84384 0.31931 0.0
O562 O 0.83471 0.75031 0.25567 0.0
O563 O 0.78703 0.79707 0.24585 0.0
O564 O 0.74481 0.81751 0.25583 0.0
C565 C 0.8465 0.75932 0.2302 0.0
O566 O 0.82719 0.7661 0.20675 0.0
O567 O 0.76884 0.72618 0.20826 0.0
C568 C 0.68273 0.78273 0.32783 0.0
O569 O 0.70342 0.76856 0.34259 0.0
O570 O 0.68851 0.79314 0.30085 0.0
O571 O 0.72048 0.7406 0.26758 0.0
O572 O 0.76502 0.7276 0.28611 0.0
O573 O 0.76019 0.79571 0.32793 0.0
C574 C 0.77197 0.81965 0.24532 0.0
C575 C 0.73472 0.72188 0.28188 0.0
Zn576 Zn 0.7441 0.24434 0.79702 0.0
Zn577 Zn 0.77599 0.2633 0.73702 0.0
C578 C 0.69628 0.1949 0.76588 0.0
O579 O 0.67909 0.21391 0.77919 0.0
C580 C 0.82641 0.3129 0.76221 0.0
O581 O 0.8411 0.29323 0.74608 0.0
O582 O 0.73398 0.23569 0.84224 0.0
O583 O 0.79177 0.25162 0.80205 0.0
O584 O 0.79577 0.22887 0.75325 0.0
C585 C 0.74201 0.21014 0.84865 0.0
O586 O 0.75452 0.19392 0.82631 0.0
O587 O 0.72637 0.2035 0.76847 0.0
C588 C 0.78514 0.2954 0.68367 0.0
O589 O 0.77785 0.31633 0.70543 0.0
O590 O 0.78674 0.26826 0.69125 0.0
O591 O 0.7287 0.2587 0.73142 0.0
O592 O 0.7215 0.27769 0.78098 0.0
O593 O 0.7967 0.30465 0.76422 0.0
C594 C 0.80633 0.23558 0.78324 0.0
C595 C 0.71376 0.27428 0.75022 0.0
Zn596 Zn 0.77296 0.72743 0.75375 0.0
Zn597 Zn 0.75862 0.79156 0.79246 0.0
C598 C 0.82552 0.74628 0.72268 0.0
O599 O 0.80325 0.73242 0.69936 0.0
C600 C 0.70913 0.776 0.82699 0.0
O601 O 0.73261 0.79258 0.8475 0.0
O602 O 0.77767 0.68147 0.74524 0.0
O603 O 0.75712 0.72822 0.79841 0.0
O604 O 0.78503 0.77161 0.82537 0.0
C605 C 0.79847 0.67719 0.76759 0.0
O606 O 0.81217 0.70133 0.78874 0.0
O607 O 0.81845 0.74933 0.75207 0.0
C608 C 0.73625 0.84548 0.78486 0.0
O609 O 0.72124 0.82473 0.7608 0.0
O610 O 0.7566 0.83754 0.80518 0.0
O611 O 0.76977 0.79142 0.74565 0.0
O612 O 0.74723 0.74541 0.71898 0.0
O613 O 0.7133 0.77109 0.79685 0.0
C614 C 0.77299 0.74267 0.82458 0.0
C615 C 0.75669 0.77482 0.71922 0.0
Zn616 Zn 0.53884 0.4954 0.5422 0.0
Zn617 Zn 0.4792 0.51742 0.50491 0.0
C618 C 0.51431 0.44519 0.57335 0.0
O619 O 0.52974 0.46672 0.59652 0.0
C620 C 0.49418 0.56779 0.47163 0.0
O621 O 0.47787 0.54498 0.45035 0.0
O622 O 0.58271 0.48796 0.55619 0.0
O623 O 0.54447 0.50747 0.4967 0.0
O624 O 0.4967 0.49019 0.47078 0.0
C625 C 0.5872 0.46383 0.53853 0.0
O626 O 0.56509 0.44967 0.5152 0.0
O627 O 0.51194 0.45207 0.54408 0.0
C628 C 0.42701 0.54192 0.51224 0.0
O629 O 0.44962 0.55851 0.5337 0.0
O630 O 0.43304 0.51917 0.4935 0.0
O631 O 0.47652 0.50611 0.55094 0.0
O632 O 0.52413 0.52532 0.57597 0.0
O633 O 0.50061 0.5623 0.50094 0.0
C634 C 0.5267 0.49775 0.47012 0.0
C635 C 0.49418 0.5183 0.57692 0.0
Zn636 Zn 0.98509 0.53353 0.03885 0.0
Zn637 Zn 0.0514 0.49216 0.00904 0.0
C638 C 0.00122 0.58228 0.09135 0.0
O639 O 0.98811 0.55949 0.10708 0.0
C640 C 5e-05 0.43237 0.00711 0.0
O641 O -0.00287 0.4355 0.03862 0.0
O642 O 0.93761 0.53126 0.03102 0.0
O643 O 0.00344 0.52937 -0.00522 0.0
O644 O 0.04378 0.5152 0.97084 0.0
C645 C 0.92949 0.55451 0.01856 0.0
O646 O 0.952 0.57672 0.01159 0.0
O647 O 0.003 0.57682 0.06081 0.0
C648 C 0.09306 0.45376 0.03017 0.0
O649 O 0.0657 0.44073 0.03918 0.0
O650 O 0.09448 0.47876 0.01645 0.0
O651 O 0.0414 0.51784 0.04775 0.0
O652 O -0.00168 0.50412 0.07049 0.0
O653 O 0.01932 0.4525 -0.00509 0.0
C654 C 0.01785 0.52579 0.96925 0.0
C655 C 0.02764 0.50347 0.06912 0.0
C656 C 0.00221 0.13641 0.90978 0.0
C657 C 0.00337 0.16368 0.93152 0.0
C658 C 0.00179 0.10734 0.92119 0.0
C659 C 0.0027 0.10431 0.95481 0.0
H660 H 0.00104 0.13731 0.88358 0.0
H661 H 4e-05 0.08692 0.90338 0.0
S662 S 0.00684 0.16848 0.02218 0.0
N663 N 0.00633 0.1859 0.98852 0.0
N664 N 0.00564 0.13109 0.00996 0.0
C665 C 0.00494 0.13145 0.97701 0.0
C666 C 0.00519 0.16117 0.96536 0.0
C667 C 0.13504 0.79256 0.23641 0.0
C668 C 0.13059 0.79396 0.20239 0.0
C669 C 0.16069 0.78064 0.25048 0.0
C670 C 0.18241 0.76915 0.23094 0.0
H671 H 0.11809 0.79986 0.25219 0.0
H672 H 0.16282 0.77938 0.27664 0.0
S673 S 0.1833 0.77038 0.14107 0.0
N674 N 0.152 0.78547 0.15004 0.0
N675 N 0.19906 0.76196 0.17614 0.0
C676 C 0.17889 0.77151 0.1971 0.0
C677 C 0.15333 0.78426 0.18293 0.0
C678 C 0.4736 0.87048 0.4056 0.0
C679 C 0.4789 0.84539 0.42283 0.0
C680 C 0.47752 0.90088 0.42154 0.0
C681 C 0.48663 0.90743 0.45539 0.0
H682 H 0.46837 0.86704 0.37918 0.0
H683 H 0.47547 0.91974 0.40683 0.0
S684 S 0.49741 0.84931 0.51282 0.0
N685 N 0.48928 0.82842 0.47641 0.0
N686 N 0.49622 0.88582 0.50652 0.0
C687 C 0.48853 0.88218 0.47356 0.0
C688 C 0.48476 0.85103 0.45721 0.0
C689 C 0.43747 0.24244 0.75218 0.0
C690 C 0.44589 0.24737 0.72058 0.0
C691 C 0.40595 0.2409 0.75965 0.0
C692 C 0.38182 0.24434 0.73581 0.0
H693 H 0.45546 0.24056 0.77157 0.0
H694 H 0.40072 0.23815 0.78454 0.0
S695 S 0.39029 0.25336 0.64833 0.0
N696 N 0.42665 0.25258 0.66449 0.0
N697 N 0.36765 0.24979 0.67864 0.0
C698 C 0.38957 0.24779 0.70379 0.0
C699 C 0.42154 0.24929 0.69614 0.0
C700 C 0.03307 0.8533 0.57683 0.0
C701 C 0.006 0.8292 0.57268 0.0
C702 C 0.03186 0.88221 0.56534 0.0
C703 C 0.00329 0.88809 0.55023 0.0
H704 H 0.05505 0.85007 0.58988 0.0
H705 H 0.05276 0.90068 0.57023 0.0
S706 S 0.92628 0.83246 0.53229 0.0
N707 N 0.95046 0.81254 0.55063 0.0
N708 N 0.94783 0.86741 0.53039 0.0
C709 C 0.97643 0.8639 0.54493 0.0
C710 C 0.97789 0.83423 0.55578 0.0
C711 C 0.41921 0.7649 0.87983 0.0
C712 C 0.4392 0.77754 0.85725 0.0
C713 C 0.38618 0.75735 0.87233 0.0
C714 C 0.37165 0.76195 0.84184 0.0
H715 H 0.42913 0.76014 0.90342 0.0
H716 H 0.37208 0.7469 0.89035 0.0
S717 S 0.41293 0.79703 0.77505 0.0
N718 N 0.4419 0.79642 0.80387 0.0
N719 N 0.37959 0.78209 0.78965 0.0
C720 C 0.39115 0.77596 0.81952 0.0
C721 C 0.42495 0.78379 0.82724 0.0
C722 C 0.49367 0.13102 0.06997 0.0
C723 C 0.49158 0.13393 0.10403 0.0
C724 C 0.49308 0.1017 0.05216 0.0
C725 C 0.49069 0.07449 0.06796 0.0
H726 H 0.49758 0.15165 0.05728 0.0
H727 H 0.49647 0.10066 0.02639 0.0
S728 S 0.47762 0.06859 0.15504 0.0
N729 N 0.4817 0.10633 0.15155 0.0
N730 N 0.48124 0.05159 0.1183 0.0
C731 C 0.48586 0.07679 0.10132 0.0
C732 C 0.48617 0.10643 0.11932 0.0
C733 C 0.14502 0.25261 0.3535 0.0
C734 C 0.11791 0.26418 0.34273 0.0
C735 C 0.17015 0.25183 0.33403 0.0
C736 C 0.16938 0.26309 0.30319 0.0
H737 H 0.14719 0.24467 0.37748 0.0
H738 H 0.19104 0.24387 0.34414 0.0
S739 S 0.1026 0.29336 0.2625 0.0
N740 N 0.09067 0.28499 0.29811 0.0
N741 N 0.13821 0.28399 0.26181 0.0
C742 C 0.14172 0.27327 0.29144 0.0
C743 C 0.11594 0.27375 0.31113 0.0
C744 C 0.93289 0.0277 0.13555 0.0
C745 C 0.94575 0.02088 0.16586 0.0
C746 C 0.9506 0.02882 0.1085 0.0
C747 C 0.98198 0.02285 0.11033 0.0
H748 H 0.90873 0.03195 0.13249 0.0
H749 H 0.9391 0.03364 0.08567 0.0
S750 S 0.0272 0.0048 0.18456 0.0
N751 N 0.99226 0.00905 0.19657 0.0
N752 N 0.02545 0.01076 0.14563 0.0
C753 C -0.00455 0.0167 0.14078 0.0
C754 C 0.9774 0.01581 0.1685 0.0
C755 C 0.28183 0.66935 0.42281 0.0
C756 C 0.26783 0.68346 0.4485 0.0
C757 C 0.27759 0.67735 0.39115 0.0
C758 C 0.25903 0.69972 0.38374 0.0
H759 H 0.29559 0.65132 0.42697 0.0
H760 H 0.28856 0.66529 0.37223 0.0
S761 S 0.21898 0.74516 0.44286 0.0
N762 N 0.23609 0.72218 0.46512 0.0
N763 N 0.22801 0.73731 0.40514 0.0
C764 C 0.24597 0.71509 0.40946 0.0
C765 C 0.25043 0.70696 0.44197 0.0
C766 C 0.58439 0.97402 0.63114 0.0
C767 C 0.56961 0.9671 0.65932 0.0
C768 C 0.56721 0.98144 0.60373 0.0
C769 C 0.53432 0.98174 0.60289 0.0
H770 H 0.60982 0.97527 0.6307 0.0
H771 H 0.58024 0.98796 0.58335 0.0
S772 S 0.48335 0.96138 0.66869 0.0
N773 N 0.51944 0.95817 0.68372 0.0
N774 N 0.487 0.97174 0.63161 0.0
C775 C 0.51869 0.9728 0.62997 0.0
C776 C 0.53636 0.96553 0.65828 0.0
C777 C 0.26536 0.32593 0.94111 0.0
C778 C 0.27349 0.35853 0.95002 0.0
C779 C 0.26553 0.3128 0.90856 0.0
C780 C 0.27394 0.33185 0.88393 0.0
H781 H 0.25726 0.31064 0.95899 0.0
H782 H 0.25725 0.28782 0.90234 0.0
S783 S 0.30299 0.41773 0.89579 0.0
N784 N 0.29445 0.40894 0.93239 0.0
N785 N 0.29465 0.38427 0.87152 0.0
C786 C 0.2844 0.36411 0.89307 0.0
C787 C 0.2842 0.37745 0.92603 0.0
C788 C 0.91531 0.01003 0.37202 0.0
C789 C 0.93628 0.99653 0.35306 0.0
C790 C 0.92105 0.01566 0.40622 0.0
C791 C 0.9482 0.00831 0.42311 0.0
H792 H 0.89432 0.0167 0.36037 0.0
H793 H 0.90438 0.02671 0.41938 0.0
S794 S 0.00989 0.971 0.38533 0.0
N795 N 0.98473 0.97459 0.354 0.0
N796 N -0.00439 0.98544 0.41829 0.0
C797 C 0.96895 0.99393 0.40462 0.0
C798 C 0.96298 0.988 0.36966 0.0
C799 C 0.2813 0.67556 0.67743 0.0
C800 C 0.28642 0.68605 0.64692 0.0
C801 C 0.27974 0.69646 0.70482 0.0
C802 C 0.28376 0.72892 0.70326 0.0
H803 H 0.27646 0.65078 0.67992 0.0
H804 H 0.27324 0.68667 0.72686 0.0
S805 S 0.30382 0.76911 0.6307 0.0
N806 N 0.29982 0.7315 0.61763 0.0
N807 N 0.29747 0.77099 0.66972 0.0
C808 C 0.29192 0.7401 0.67374 0.0
C809 C 0.29319 0.71863 0.64547 0.0
C810 C 0.54419 0.01953 0.85525 0.0
C811 C 0.57349 0.01439 0.84484 0.0
C812 C 0.53987 0.02364 0.88857 0.0
C813 C 0.56471 0.02287 0.91283 0.0
H814 H 0.52416 0.01995 0.83756 0.0
H815 H 0.51663 0.02677 0.89524 0.0
S816 S 0.64694 0.01252 0.89873 0.0
N817 N 0.62831 0.01029 0.86168 0.0
N818 N 0.62032 0.01834 0.9242 0.0
C819 C 0.59446 0.01867 0.90283 0.0
C820 C 0.5988 0.0143 0.86889 0.0
C821 C 0.28582 0.33745 0.17729 0.0
C822 C 0.27123 0.3219 0.1468 0.0
C823 C 0.28597 0.32215 0.2055 0.0
C824 C 0.27122 0.29055 0.20486 0.0
H825 H 0.29716 0.36188 0.1796 0.0
H826 H 0.2977 0.33553 0.22809 0.0
S827 S 0.23081 0.23849 0.13083 0.0
N828 N 0.24261 0.27249 0.11729 0.0
N829 N 0.24258 0.24379 0.1705 0.0
C830 C 0.25707 0.27439 0.17437 0.0
C831 C 0.25714 0.29001 0.14538 0.0
C832 C 0.15919 0.92786 0.05178 0.0
C833 C 0.18312 0.93586 0.03116 0.0
C834 C 0.13422 0.94447 0.05396 0.0
C835 C 0.1322 0.96907 0.03502 0.0
H836 H 0.15922 0.908 0.06548 0.0
H837 H 0.11524 0.93661 0.06867 0.0
S838 S 0.18955 0.00044 0.97893 0.0
N839 N 0.20438 0.97158 0.9934 0.0
N840 N 0.15649 0.00179 -0.00354 0.0
C841 C 0.15657 0.97819 0.01549 0.0
C842 C 0.18239 0.96184 0.01385 0.0
C843 C 0.63058 0.59012 0.00251 0.0
C844 C 0.65094 0.57545 0.98385 0.0
C845 C 0.60329 0.57282 0.01289 0.0
C846 C 0.59482 0.54009 0.00473 0.0
H847 H 0.63622 0.61511 0.01011 0.0
H848 H 0.58879 0.58538 0.02763 0.0
S849 S 0.63884 0.49065 0.95419 0.0
N850 N 0.66001 0.52639 0.95626 0.0
N851 N 0.60829 0.49391 0.97533 0.0
C852 C 0.61432 0.52522 0.98508 0.0
C853 C 0.64243 0.54286 0.97477 0.0
C854 C 0.68142 0.41848 0.30399 0.0
C855 C 0.69608 0.44719 0.29473 0.0
C856 C 0.69426 0.39143 0.29816 0.0
C857 C 0.72227 0.39166 0.28252 0.0
H858 H 0.65932 0.41662 0.31526 0.0
H859 H 0.68148 0.36995 0.3054 0.0
S860 S 0.77145 0.46139 0.25561 0.0
N861 N 0.74138 0.47477 0.27089 0.0
N862 N 0.76549 0.42367 0.25973 0.0
C863 C 0.73798 0.42046 0.27424 0.0
C864 C 0.72493 0.44825 0.28042 0.0
C865 C 0.86459 0.42052 0.51775 0.0
C866 C 0.84801 0.4412 0.50251 0.0
C867 C 0.89749 0.42805 0.52629 0.0
C868 C 0.91535 0.45654 0.51989 0.0
H869 H 0.85204 0.39838 0.52373 0.0
H870 H 0.90887 0.41147 0.53845 0.0
S871 S 0.88392 0.5185 0.4792 0.0
N872 N 0.85225 0.4911 0.48038 0.0
N873 N 0.91427 0.50532 0.4964 0.0
C874 C 0.89934 0.47721 0.50391 0.0
C875 C 0.86566 0.46953 0.49523 0.0
C876 C 0.30685 0.08791 0.26043 0.0
C877 C 0.32531 0.08161 0.28796 0.0
C878 C 0.29859 0.11756 0.25899 0.0
C879 C 0.30847 0.14165 0.28512 0.0
H880 H 0.30045 0.07054 0.23913 0.0
H881 H 0.28574 0.12204 0.23676 0.0
S882 S 0.3521 0.13441 0.36507 0.0
N883 N 0.34971 0.10012 0.34325 0.0
N884 N 0.33391 0.15533 0.34121 0.0
C885 C 0.32482 0.13455 0.31374 0.0
C886 C 0.33334 0.10465 0.31499 0.0
C887 C 0.33561 0.04841 0.54242 0.0
C888 C 0.32797 0.07294 0.52542 0.0
C889 C 0.36631 0.04121 0.54404 0.0
C890 C 0.3907 0.05819 0.5287 0.0
H891 H 0.31782 0.0347 0.5549 0.0
H892 H 0.3709 0.02221 0.55753 0.0
S893 S 0.38291 0.12389 0.47978 0.0
N894 N 0.3473 0.11366 0.49209 0.0
N895 N 0.40481 0.10031 0.49511 0.0
C896 C 0.38333 0.08263 0.51133 0.0
C897 C 0.35208 0.08996 0.5097 0.0
C898 C 0.71115 0.6368 0.29841 0.0
C899 C 0.67795 0.63332 0.29983 0.0
C900 C 0.72975 0.66576 0.29388 0.0
C901 C 0.71581 0.69226 0.29037 0.0
H902 H 0.72268 0.61674 0.2994 0.0
H903 H 0.75495 0.66701 0.29177 0.0
S904 S 0.63072 0.69671 0.29703 0.0
N905 N 0.63275 0.65998 0.30118 0.0
N906 N 0.66722 0.71368 0.29184 0.0
C907 C 0.68296 0.68941 0.2935 0.0
C908 C 0.6642 0.66018 0.29846 0.0
C909 C 0.84039 0.40177 0.77455 0.0
C910 C 0.87382 0.41009 0.77598 0.0
C911 C 0.82511 0.37026 0.77215 0.0
C912 C 0.84272 0.34593 0.77111 0.0
H913 H 0.82579 0.41958 0.77391 0.0
H914 H 0.79929 0.36493 0.76943 0.0
S915 S 0.93089 0.35531 0.77959 0.0
N916 N 0.92412 0.39136 0.78017 0.0
N917 N 0.8954 0.33246 0.77561 0.0
C918 C 0.87616 0.35404 0.77467 0.0
C919 C 0.8917 0.386 0.77709 0.0
C920 C 0.02806 0.86082 0.06684 0.0
C921 C 0.00867 0.85138 0.09117 0.0
C922 C 0.02346 0.88636 0.05021 0.0
C923 C -0.00092 0.90317 0.05711 0.0
H924 H 0.0482 0.84975 0.06212 0.0
H925 H 0.04038 0.89407 0.03328 0.0
S926 S 0.93756 0.88278 0.11368 0.0
N927 N 0.96142 0.85734 0.1179 0.0
N928 N 0.9521 0.90481 0.08624 0.0
C929 C 0.9776 0.89177 0.07909 0.0
C930 C 0.98263 0.86608 0.09631 0.0
C931 C 0.89467 0.23822 0.78397 0.0
C932 C 0.90442 0.2397 0.81759 0.0
C933 C 0.86236 0.23393 0.77247 0.0
C934 C 0.83889 0.23202 0.79438 0.0
H935 H 0.91219 0.24169 0.76658 0.0
H936 H 0.85601 0.23438 0.74657 0.0
S937 S 0.85164 0.2301 0.88411 0.0
N938 N 0.88784 0.23501 0.87215 0.0
N939 N 0.82708 0.228 0.85056 0.0
C940 C 0.84814 0.23114 0.8277 0.0
C941 C 0.88097 0.23476 0.83933 0.0
C942 C 0.53234 0.14265 0.64639 0.0
C943 C 0.531 0.16798 0.62809 0.0
C944 C 0.52434 0.11168 0.6317 0.0
C945 C 0.5149 0.10457 0.59798 0.0
H946 H 0.5384 0.14657 0.67267 0.0
H947 H 0.5248 0.09311 0.64714 0.0
S948 S 0.50939 0.16188 0.53828 0.0
N949 N 0.52099 0.18369 0.57382 0.0
N950 N 0.50608 0.12522 0.5461 0.0
C951 C 0.51477 0.12949 0.57893 0.0
C952 C 0.5227 0.16124 0.59401 0.0
C953 C 0.59359 0.7715 0.32862 0.0
C954 C 0.58977 0.76968 0.36197 0.0
C955 C 0.62393 0.77778 0.3179 0.0
C956 C 0.65142 0.78183 0.34009 0.0
H957 H 0.573 0.76749 0.31053 0.0
H958 H 0.6258 0.77784 0.29188 0.0
S959 S 0.65457 0.7823 0.43024 0.0
N960 N 0.61613 0.77491 0.41741 0.0
N961 N 0.67323 0.78609 0.39705 0.0
C962 C 0.64801 0.7814 0.37362 0.0
C963 C 0.61714 0.77548 0.38463 0.0
C964 C 0.00333 0.15752 0.42439 0.0
C965 C 0.01194 0.18536 0.44602 0.0
C966 C -0.00196 0.12834 0.4361 0.0
C967 C 0.00041 0.1259 0.46988 0.0
H968 H 0.00196 0.15811 0.39813 0.0
H969 H 0.99274 0.10746 0.41852 0.0
S970 S 0.01955 0.19164 0.53687 0.0
N971 N 0.0209 0.20872 0.50297 0.0
N972 N 0.01002 0.15363 0.52493 0.0
C973 C 0.00728 0.15349 0.49187 0.0
C974 C 0.01336 0.1833 0.47994 0.0
C975 C 0.62275 0.26202 0.20534 0.0
C976 C 0.61314 0.25262 0.1718 0.0
C977 C 0.65501 0.27084 0.21713 0.0
C978 C 0.67887 0.2709 0.19576 0.0
H979 H 0.60521 0.26337 0.22262 0.0
H980 H 0.66116 0.27898 0.24297 0.0
S981 S 0.66671 0.24495 0.1064 0.0
N982 N 0.63033 0.2413 0.11778 0.0
N983 N 0.69105 0.25818 0.14003 0.0
C984 C 0.66976 0.26012 0.16244 0.0
C985 C 0.63687 0.25086 0.15043 0.0
C986 C 0.5363 0.86696 0.99317 0.0
C987 C 0.55463 0.86789 0.96634 0.0
C988 C 0.53218 0.89465 0.01132 0.0
C989 C 0.54613 0.92398 0.00301 0.0
H990 H 0.52335 0.84488 -0.00112 0.0
H991 H 0.51621 0.89309 0.03034 0.0
S992 S 0.60196 0.93904 0.94015 0.0
N993 N 0.59122 0.90057 0.93632 0.0
N994 N 0.58291 0.95237 0.9701 0.0
C995 C 0.56678 0.92512 0.97838 0.0
C996 C 0.57122 0.8971 0.96013 0.0
C997 C 0.91143 0.73796 0.72467 0.0
C998 C 0.91872 0.74433 0.69306 0.0
C999 C 0.88204 0.74155 0.73556 0.0
C1000 C 0.85881 0.75122 0.71503 0.0
H1001 H 0.92808 0.72905 0.74075 0.0
H1002 H 0.87669 0.73458 0.75925 0.0
S1003 S 0.86717 0.7746 0.63187 0.0
N1004 N 0.90128 0.76398 0.64276 0.0
N1005 N 0.84583 0.77007 0.66314 0.0
C1006 C 0.86647 0.75961 0.6843 0.0
C1007 C 0.89651 0.75636 0.67332 0.0
C1008 C 0.08653 0.01733 0.90873 0.0
C1009 C 0.06674 0.01321 0.87911 0.0
C1010 C 0.07365 0.01351 0.9386 0.0
C1011 C 0.04049 0.0046 0.94003 0.0
H1012 H 0.11208 0.02462 0.909 0.0
H1013 H 0.08996 0.01804 0.96079 0.0
S1014 S 0.97875 0.98789 0.86849 0.0
N1015 N 0.01257 -0.0017 0.85257 0.0
N1016 N 0.98846 0.98962 0.9083 0.0
C1017 C 0.0206 -0.00093 0.91024 0.0
C1018 C 0.03368 0.00378 0.87995 0.0
C1019 C 0.79711 0.3447 0.6156 0.0
C1020 C 0.77648 0.3267 0.58947 0.0
C1021 C 0.80196 0.33313 0.64548 0.0
C1022 C 0.78691 0.30297 0.6501 0.0
H1023 H 0.80821 0.36864 0.61374 0.0
H1024 H 0.81621 0.34853 0.6657 0.0
S1025 S 0.73429 0.24471 0.58846 0.0
N1026 N 0.7435 0.27589 0.56919 0.0
N1027 N 0.75327 0.25399 0.62567 0.0
C1028 C 0.76857 0.2836 0.6235 0.0
C1029 C 0.76318 0.29554 0.59303 0.0
C1030 C 0.48968 0.01457 0.3776 0.0
C1031 C 0.45795 0.01754 0.36868 0.0
C1032 C 0.50193 0.01709 0.4105 0.0
C1033 C 0.48286 0.02239 0.4358 0.0
H1034 H 0.50493 0.00901 0.35908 0.0
H1035 H 0.52599 0.01323 0.41602 0.0
S1036 S 0.4 0.03718 0.42586 0.0
N1037 N 0.40907 0.03013 0.38807 0.0
N1038 N 0.43196 0.03447 0.44982 0.0
C1039 C 0.45187 0.02765 0.42729 0.0
C1040 C 0.43946 0.02535 0.39378 0.0
C1041 C 0.73307 0.65543 0.122 0.0
C1042 C 0.75594 0.65652 0.09936 0.0
C1043 C 0.74074 0.67129 0.15381 0.0
C1044 C 0.77175 0.68777 0.16413 0.0
H1045 H 0.70917 0.64211 0.11511 0.0
H1046 H 0.72263 0.66987 0.1707 0.0
S1047 S 0.84017 0.69776 0.1145 0.0
N1048 N 0.8106 0.67609 0.08936 0.0
N1049 N 0.82528 0.70472 0.14958 0.0
C1050 C 0.79474 0.68918 0.14179 0.0
C1051 C 0.78674 0.67384 0.10921 0.0
C1052 C 0.06801 0.00044 0.68285 0.0
C1053 C 0.1012 0.008 0.69163 0.0
C1054 C 0.05502 -0.00165 0.65013 0.0
C1055 C 0.07472 0.00344 0.62486 0.0
H1056 H 0.05186 0.9958 0.70135 0.0
H1057 H 0.02939 0.99179 0.64454 0.0
S1058 S 0.16297 0.02625 0.63482 0.0
N1059 N 0.15337 0.02235 0.67229 0.0
N1060 N 0.12894 0.01816 0.61096 0.0
C1061 C 0.10786 0.01179 0.63333 0.0
C1062 C 0.1211 0.01413 0.66664 0.0
C1063 C 0.72978 0.31192 0.39212 0.0
C1064 C 0.7402 0.34457 0.3975 0.0
C1065 C 0.73751 0.2941 0.36468 0.0
C1066 C 0.75659 0.30829 0.34218 0.0
H1067 H 0.71612 0.30001 0.4096 0.0
H1068 H 0.72922 0.26899 0.36159 0.0
S1069 S 0.79148 0.39316 0.34677 0.0
N1070 N 0.7705 0.39042 0.3784 0.0
N1071 N 0.78683 0.35714 0.32828 0.0
C1072 C 0.76712 0.34107 0.34748 0.0
C1073 C 0.75841 0.35917 0.37473 0.0
C1074 C 0.43871 0.99042 0.1816 0.0
C1075 C 0.40619 0.99184 0.18181 0.0
C1076 C 0.45157 0.98346 0.15237 0.0
C1077 C 0.43251 0.97836 0.12224 0.0
H1078 H 0.45453 0.99499 0.20415 0.0
H1079 H 0.47695 0.98366 0.15332 0.0
S1080 S 0.3456 0.97728 0.10953 0.0
N1081 N 0.35476 0.98563 0.14954 0.0
N1082 N 0.37927 0.97334 0.09425 0.0
C1083 C 0.39978 0.97876 0.12209 0.0
C1084 C 0.38653 0.98533 0.15197 0.0
C1085 C 0.76388 0.67459 0.87529 0.0
C1086 C 0.76722 0.68874 0.90785 0.0
C1087 C 0.76668 0.69245 0.8491 0.0
C1088 C 0.77357 0.72545 0.85399 0.0
H1089 H 0.75812 0.64935 0.86973 0.0
H1090 H 0.76277 0.68001 0.82461 0.0
S1091 S 0.78643 0.77434 0.93463 0.0
N1092 N 0.77885 0.73801 0.9438 0.0
N1093 N 0.78499 0.77165 0.89428 0.0
C1094 C 0.77819 0.74008 0.88648 0.0
C1095 C 0.77475 0.72175 0.91341 0.0
C1096 C 0.84781 0.05156 0.03026 0.0
C1097 C 0.8438 0.08236 0.02649 0.0
C1098 C 0.87479 0.04057 0.02061 0.0
C1099 C 0.89866 0.06021 0.00732 0.0
H1100 H 0.83061 0.03625 0.04193 0.0
H1101 H 0.87813 0.01752 0.02589 0.0
S1102 S 0.89851 0.1414 0.98929 0.0
N1103 N 0.86487 0.1312 0.00564 0.0
N1104 N 0.91593 0.11059 0.98839 0.0
C1105 C 0.89413 0.09023 0.00155 0.0
C1106 C 0.86653 0.10131 0.01087 0.0
C1107 C 0.38108 0.43288 0.04698 0.0
C1108 C 0.36247 0.45285 0.06132 0.0
C1109 C 0.41262 0.44422 0.0415 0.0
C1110 C 0.42714 0.47578 0.05103 0.0
H1111 H 0.37066 0.40872 0.03815 0.0
H1112 H 0.42528 0.42817 0.02883 0.0
S1113 S 0.38879 0.53704 0.09178 0.0
N1114 N 0.36069 0.50526 0.08603 0.0
N1115 N 0.42045 0.52647 0.07709 0.0
C1116 C 0.40905 0.49568 0.06673 0.0
C1117 C 0.37664 0.48423 0.07158 0.0
C1118 C 0.36995 0.61744 0.77569 0.0
C1119 C 0.34971 0.58794 0.76941 0.0
C1120 C 0.35772 0.64506 0.77911 0.0
C1121 C 0.3247 0.64451 0.77696 0.0
H1122 H 0.39561 0.61938 0.77734 0.0
H1123 H 0.37445 0.66714 0.78342 0.0
S1124 S 0.2612 0.57355 0.76202 0.0
N1125 N 0.29473 0.55984 0.76181 0.0
N1126 N 0.27179 0.61206 0.76892 0.0
C1127 C 0.30404 0.61527 0.77155 0.0
C1128 C 0.31653 0.58694 0.76753 0.0
C1129 C 0.1448 0.6109 0.50601 0.0
C1130 C 0.1651 0.59522 0.52379 0.0
C1131 C 0.11409 0.59572 0.49307 0.0
C1132 C 0.10246 0.56453 0.49795 0.0
H1133 H 0.15305 0.63472 0.50114 0.0
H1134 H 0.09946 0.60857 0.47906 0.0
S1135 S 0.14566 0.51446 0.54572 0.0
N1136 N 0.17129 0.54768 0.54723 0.0
N1137 N 0.11318 0.51932 0.52393 0.0
C1138 C 0.12225 0.54907 0.51685 0.0
C1139 C 0.15369 0.56437 0.5295 0.0
C1140 C 0.68423 0.90459 0.8015 0.0
C1141 C 0.69319 0.92623 0.7793 0.0
C1142 C 0.70071 0.88003 0.80595 0.0
C1143 C 0.72677 0.87628 0.78849 0.0
H1144 H 0.66341 0.90571 0.81442 0.0
H1145 H 0.69165 0.86265 0.82146 0.0
S1146 S 0.76132 0.92725 0.72917 0.0
N1147 N 0.73142 0.94316 0.74128 0.0
N1148 N 0.76183 0.89666 0.74947 0.0
C1149 C 0.73707 0.89855 0.76763 0.0
C1150 C 0.7205 0.9237 0.76318 0.0
C1151 C 0.66487 0.9469 0.53785 0.0
C1152 C 0.66401 0.91438 0.53643 0.0
C1153 C 0.63711 0.95895 0.53078 0.0
C1154 C 0.60743 0.93891 0.52255 0.0
H1155 H 0.68715 0.96328 0.54461 0.0
H1156 H 0.63873 0.9841 0.53296 0.0
S1157 S 0.59223 0.85208 0.51351 0.0
N1158 N 0.63094 0.86242 0.52449 0.0
N1159 N 0.57886 0.8851 0.5118 0.0
C1160 C 0.60629 0.90641 0.52035 0.0
C1161 C 0.63454 0.89413 0.52712 0.0
C1162 C 0.36257 0.37046 0.7524 0.0
C1163 C 0.34976 0.39763 0.74904 0.0
C1164 C 0.34359 0.34258 0.75845 0.0
C1165 C 0.31074 0.34029 0.7609 0.0
H1166 H 0.38781 0.37083 0.75141 0.0
H1167 H 0.35497 0.3227 0.76161 0.0
S1168 S 0.26467 0.40377 0.75209 0.0
N1169 N 0.30161 0.42003 0.74739 0.0
N1170 N 0.26576 0.3672 0.75816 0.0
C1171 C 0.29719 0.3668 0.75638 0.0
C1172 C 0.31672 0.39553 0.75064 0.0
C1173 C 0.15226 0.60081 0.22808 0.0
C1174 C 0.14992 0.57818 0.25013 0.0
C1175 C 0.16834 0.63167 0.23812 0.0
C1176 C 0.18153 0.6409 0.27074 0.0
H1177 H 0.14162 0.5946 0.20297 0.0
H1178 H 0.16962 0.64859 0.22062 0.0
S1179 S 0.18165 0.59082 0.33789 0.0
N1180 N 0.16261 0.56712 0.3058 0.0
N1181 N 0.19161 0.62536 0.32487 0.0
C1182 C 0.17938 0.61857 0.29292 0.0
C1183 C 0.16387 0.58709 0.28255 0.0
C1184 C 0.4929 0.65382 0.46797 0.0
C1185 C 0.49922 0.65734 0.43542 0.0
C1186 C 0.49364 0.6253 0.48083 0.0
C1187 C 0.50075 0.5995 0.46151 0.0
H1188 H 0.48615 0.67277 0.48318 0.0
H1189 H 0.48686 0.62289 0.50528 0.0
S1190 S 0.52394 0.59787 0.37693 0.0
N1191 N 0.51651 0.6334 0.38571 0.0
N1192 N 0.51751 0.58018 0.40985 0.0
C1193 C 0.50897 0.60334 0.4298 0.0
C1194 C 0.5083 0.63215 0.41675 0.0
C1195 C 0.63012 0.29118 0.73809 0.0
C1196 C 0.62712 0.29592 0.70475 0.0
C1197 C 0.65885 0.28591 0.75345 0.0
C1198 C 0.68543 0.28501 0.7359 0.0
H1199 H 0.60976 0.29011 0.75209 0.0
H1200 H 0.65969 0.28088 0.77865 0.0
S1201 S 0.69165 0.30117 0.6498 0.0
N1202 N 0.65454 0.30336 0.65604 0.0
N1203 N 0.70816 0.29295 0.68465 0.0
C1204 C 0.68336 0.29178 0.70325 0.0
C1205 C 0.65431 0.29741 0.68775 0.0
C1206 C 0.97888 0.37588 0.93064 0.0
C1207 C 0.98469 0.34768 0.94135 0.0
C1208 C 0.98072 0.40268 0.9528 0.0
C1209 C 0.98825 0.40231 0.98653 0.0
H1210 H 0.97454 0.37781 0.90474 0.0
H1211 H 0.97825 0.42442 0.94324 0.0
S1212 S 0.00172 0.33367 0.02778 0.0
N1213 N -0.00491 0.32023 0.98844 0.0
N1214 N -0.00143 0.37091 0.03012 0.0
C1215 C 0.99137 0.37372 -0.00202 0.0
C1216 C 0.9896 0.3463 0.97534 0.0
C1217 C 0.93549 0.76235 0.24966 0.0
C1218 C 0.94781 0.76965 0.22021 0.0
C1219 C 0.90271 0.75888 0.25278 0.0
C1220 C 0.881 0.76248 0.22653 0.0
H1221 H 0.95122 0.75914 0.27048 0.0
H1222 H 0.89437 0.75338 0.27594 0.0
S1223 S 0.90082 0.78107 0.14381 0.0
N1224 N 0.93539 0.78027 0.16415 0.0
N1225 N 0.87419 0.77323 0.16983 0.0
C1226 C 0.89301 0.76969 0.19691 0.0
C1227 C 0.92627 0.77343 0.1938 0.0
C1228 C 0.53899 0.344 0.07862 0.0
C1229 C 0.51277 0.319 0.07485 0.0
C1230 C 0.53735 0.37142 0.0642 0.0
C1231 C 0.50909 0.37498 0.04636 0.0
H1232 H 0.56054 0.34275 0.09376 0.0
H1233 H 0.55748 0.39073 0.06904 0.0
S1234 S 0.43456 0.31572 0.02765 0.0
N1235 N 0.45868 0.29863 0.04998 0.0
N1236 N 0.45508 0.35071 0.02396 0.0
C1237 C 0.48326 0.34963 0.04117 0.0
C1238 C 0.48523 0.32144 0.05513 0.0
C1239 C 0.92792 0.28584 0.3718 0.0
C1240 C 0.94877 0.29894 0.35019 0.0
C1241 C 0.89493 0.28027 0.36393 0.0
C1242 C 0.88149 0.28723 0.33395 0.0
H1243 H 0.93712 0.27911 0.39474 0.0
H1244 H 0.88003 0.26906 0.38091 0.0
S1245 S 0.9254 0.32515 0.27041 0.0
N1246 N 0.95355 0.32137 0.2988 0.0
N1247 N 0.8913 0.31061 0.28383 0.0
C1248 C 0.90191 0.30196 0.31287 0.0
C1249 C 0.93562 0.3079 0.32104 0.0
C1250 C 0.96852 0.61414 0.57343 0.0
C1251 C 0.98794 0.64293 0.57018 0.0
C1252 C 0.97088 0.58679 0.55361 0.0
C1253 C -0.0068 0.58735 0.53053 0.0
H1254 H 0.95266 0.61248 0.59255 0.0
H1255 H 0.95707 0.56467 0.55825 0.0
S1256 S 0.04884 0.65672 0.51194 0.0
N1257 N 0.02891 0.6706 0.54087 0.0
N1258 N 0.03417 0.61881 0.50464 0.0
C1259 C 0.0116 0.61612 0.52593 0.0
C1260 C 0.00872 0.64409 0.54554 0.0
C1261 C 0.62102 0.76399 0.83603 0.0
C1262 C 0.6203 0.75813 0.86896 0.0
C1263 C 0.64968 0.76764 0.82145 0.0
C1264 C 0.67837 0.76557 0.83943 0.0
H1265 H 0.59966 0.76728 0.82189 0.0
H1266 H 0.64968 0.77395 0.79673 0.0
S1267 S 0.68836 0.74489 0.92415 0.0
N1268 N 0.65013 0.74625 0.91746 0.0
N1269 N 0.70381 0.75325 0.89008 0.0
C1270 C 0.67754 0.75746 0.87145 0.0
C1271 C 0.64852 0.7537 0.88624 0.0
C1272 C 0.43014 0.51288 0.63543 0.0
C1273 C 0.44722 0.51535 0.66649 0.0
C1274 C 0.44578 0.51491 0.60706 0.0
C1275 C 0.47931 0.51951 0.60829 0.0
H1276 H 0.40433 0.50895 0.63281 0.0
H1277 H 0.43123 0.51239 0.58382 0.0
S1278 S 0.53545 0.529 0.68374 0.0
N1279 N 0.49981 0.52382 0.69701 0.0
N1280 N 0.52919 0.52772 0.64354 0.0
C1281 C 0.49684 0.52298 0.63928 0.0
C1282 C 0.48082 0.52081 0.66834 0.0
C1283 C 0.75108 0.21162 0.94078 0.0
C1284 C 0.74765 0.17957 0.94461 0.0
C1285 C 0.74743 0.22154 0.90963 0.0
C1286 C 0.74049 0.19972 0.88135 0.0
H1287 H 0.75744 0.22923 0.96188 0.0
H1288 H 0.75151 0.24641 0.90761 0.0
S1289 S 0.72525 0.11324 0.87798 0.0
N1290 N 0.7339 0.12607 0.91731 0.0
N1291 N 0.72747 0.14488 0.85901 0.0
C1292 C 0.73553 0.16769 0.88487 0.0
C1293 C 0.73899 0.15756 0.91645 0.0
C1294 C 0.04706 0.45283 0.13472 0.0
C1295 C 0.08044 0.46164 0.14137 0.0
C1296 C 0.03011 0.46568 0.11065 0.0
C1297 C 0.04593 0.48776 0.09225 0.0
H1298 H 0.03373 0.43689 0.14925 0.0
H1299 H 0.00438 0.45888 0.10709 0.0
S1300 S 0.13323 0.51853 0.0999 0.0
N1301 N 0.12878 0.49309 0.12681 0.0
N1302 N 0.09706 0.51787 0.0823 0.0
C1303 C 0.07946 0.49605 0.09797 0.0
C1304 C 0.0967 0.48269 0.12219 0.0
C1305 C 0.77858 0.88107 0.41564 0.0
C1306 C 0.76997 0.8618 0.43996 0.0
C1307 C 0.77983 0.86842 0.38342 0.0
C1308 C 0.77236 0.83593 0.374 0.0
H1309 H 0.7832 0.90633 0.42119 0.0
H1310 H 0.7849 0.88444 0.36533 0.0
S1311 S 0.75328 0.77493 0.42934 0.0
N1312 N 0.75758 0.80836 0.45335 0.0
N1313 N 0.76006 0.78444 0.3925 0.0
C1314 C 0.76652 0.81617 0.3986 0.0
C1315 C 0.76522 0.82915 0.43165 0.0
C1316 C 0.42924 0.50885 0.87684 0.0
C1317 C 0.45134 0.49741 0.85773 0.0
C1318 C 0.43449 0.51352 0.91109 0.0
C1319 C 0.46212 0.50706 0.92783 0.0
H1320 H 0.40762 0.51442 0.86532 0.0
H1321 H 0.41684 0.52277 0.92446 0.0
S1322 S 0.52738 0.47607 0.88953 0.0
N1323 N 0.50186 0.47914 0.8583 0.0
N1324 N 0.51173 0.488 0.92266 0.0
C1325 C 0.48425 0.49509 0.90913 0.0
C1326 C 0.47888 0.49028 0.87415 0.0
C1327 C 0.81604 0.20471 0.17134 0.0
C1328 C 0.80821 0.21 0.13887 0.0
C1329 C 0.81513 0.22734 0.19752 0.0
C1330 C 0.80638 0.25604 0.19225 0.0
H1331 H 0.82043 0.18203 0.17681 0.0
H1332 H 0.81879 0.22135 0.22215 0.0
S1333 S 0.79058 0.28415 0.11181 0.0
N1334 N 0.79685 0.24823 0.10266 0.0
N1335 N 0.79506 0.29075 0.15221 0.0
C1336 C 0.80248 0.26324 0.15993 0.0
C1337 C 0.80341 0.24015 0.13309 0.0
C1338 C 0.0283 0.49567 0.32912 0.0
C1339 C 0.04783 0.47507 0.31772 0.0
C1340 C 0.02045 0.49724 0.36142 0.0
C1341 C 0.03175 0.47816 0.38337 0.0
H1342 H 0.02015 0.51173 0.31347 0.0
H1343 H 0.0065 0.5144 0.36951 0.0
S1344 S 0.07928 0.41659 0.36388 0.0
N1345 N 0.07523 0.4327 0.32967 0.0
N1346 N 0.06026 0.43531 0.39027 0.0
C1347 C 0.04955 0.45599 0.37162 0.0
C1348 C 0.05767 0.45454 0.33881 0.0
C1349 C 0.76296 0.84027 0.66484 0.0
C1350 C 0.75645 0.82477 0.63277 0.0
C1351 C 0.76257 0.82371 0.69209 0.0
C1352 C 0.75552 0.7907 0.68886 0.0
H1353 H 0.76845 0.8656 0.66915 0.0
H1354 H 0.76795 0.8372 0.71604 0.0
S1355 S 0.737 0.73852 0.61021 0.0
N1356 N 0.74286 0.7742 0.59916 0.0
N1357 N 0.74203 0.74301 0.65067 0.0
C1358 C 0.74885 0.77472 0.65694 0.0
C1359 C 0.74937 0.79172 0.6289 0.0
C1360 C 0.67183 0.4537 0.53298 0.0
C1361 C 0.66945 0.4214 0.53514 0.0
C1362 C 0.64557 0.46834 0.53686 0.0
C1363 C 0.61635 0.45108 0.54315 0.0
H1364 H 0.69359 0.46745 0.52663 0.0
H1365 H 0.64756 0.49269 0.53288 0.0
S1366 S 0.59912 0.36762 0.55672 0.0
N1367 N 0.63651 0.37378 0.54817 0.0
N1368 N 0.58725 0.40141 0.55514 0.0
C1369 C 0.61426 0.41947 0.54761 0.0
C1370 C 0.64085 0.40457 0.54373 0.0
C1371 C 0.1405 0.05373 0.4935 0.0
C1372 C 0.14709 0.08671 0.49592 0.0
C1373 C 0.11054 0.03731 0.49924 0.0
C1374 C 0.08619 0.05327 0.50801 0.0
H1375 H 0.15887 0.04047 0.48795 0.0
H1376 H 0.10682 0.01203 0.49785 0.0
S1377 S 0.09011 0.13936 0.51451 0.0
N1378 N 0.12567 0.13447 0.50501 0.0
N1379 N 0.07002 0.10389 0.51663 0.0
C1380 C 0.09213 0.08617 0.50938 0.0
C1381 C 0.12236 0.10279 0.50308 0.0
C1382 C 0.21261 0.92889 0.77934 0.0
C1383 C 0.18822 0.93279 0.79941 0.0
C1384 C 0.22393 0.9005 0.77569 0.0
C1385 C 0.21134 0.87516 0.79213 0.0
H1386 H 0.22194 0.94731 0.76515 0.0
H1387 H 0.24162 0.89799 0.75884 0.0
S1388 S 0.15139 0.87576 0.85221 0.0
N1389 N 0.15477 0.91041 0.83892 0.0
N1390 N 0.17614 0.85756 0.83264 0.0
C1391 C 0.18854 0.87971 0.81401 0.0
C1392 C 0.17694 0.90837 0.81748 0.0
C1393 C 0.36698 0.90268 0.98495 0.0
C1394 C 0.35077 0.92678 0.97752 0.0
C1395 C 0.40012 0.90833 0.99161 0.0
C1396 C 0.41834 0.93841 0.99149 0.0
H1397 H 0.35386 0.87953 0.98714 0.0
H1398 H 0.41118 0.88935 -0.001 0.0
S1399 S 0.38787 0.00824 0.96777 0.0
N1400 N 0.35567 0.98079 0.96597 0.0
N1401 N 0.41817 0.99155 0.97863 0.0
C1402 C 0.40274 0.96202 0.98106 0.0
C1403 C 0.36887 0.95619 0.97408 0.0
C1404 C 0.84198 0.61744 0.80195 0.0
C1405 C 0.83467 0.59145 0.77786 0.0
C1406 C 0.82899 0.64424 0.79868 0.0
C1407 C 0.80836 0.64659 0.77091 0.0
H1408 H 0.8586 0.61746 0.82326 0.0
H1409 H 0.83606 0.66365 0.81794 0.0
S1410 S 0.77981 0.58408 0.70165 0.0
N1411 N 0.80382 0.56875 0.72605 0.0
N1412 N 0.77963 0.61957 0.7197 0.0
C1413 C 0.79961 0.62023 0.74722 0.0
C1414 C 0.81271 0.59258 0.75074 0.0
C1415 C 0.8564 0.58929 -0.00309 0.0
C1416 C 0.83095 0.5665 0.00358 0.0
C1417 C 0.88797 0.58481 0.00123 0.0
C1418 C 0.89554 0.55735 0.01238 0.0
H1419 H 0.8521 0.61125 0.98919 0.0
H1420 H 0.90663 0.60347 -0.0036 0.0
S1421 S 0.83753 0.48888 0.03001 0.0
N1422 N 0.81534 0.51423 0.01951 0.0
N1423 N 0.8747 0.50596 0.02763 0.0
C1424 C 0.87028 0.53378 0.01785 0.0
C1425 C 0.83803 0.53831 0.01344 0.0
C1426 C 0.17171 0.14929 0.8056 0.0
C1427 C 0.18426 0.12176 0.80706 0.0
C1428 C 0.19142 0.17822 0.80459 0.0
C1429 C 0.22469 0.18115 0.80512 0.0
H1430 H 0.14621 0.14847 0.80426 0.0
H1431 H 0.18025 0.19842 0.80255 0.0
S1432 S 0.27016 0.1169 0.81125 0.0
N1433 N 0.23255 0.09963 0.81085 0.0
N1434 N 0.26969 0.15435 0.80922 0.0
C1435 C 0.23791 0.15423 0.8083 0.0
C1436 C 0.2177 0.12449 0.8092 0.0
C1437 C 0.32229 0.88478 0.27911 0.0
C1438 C 0.35554 0.89442 0.28557 0.0
C1439 C 0.30833 0.85288 0.27455 0.0
C1440 C 0.32726 0.82976 0.27621 0.0
H1441 H 0.30719 0.90177 0.27529 0.0
H1442 H 0.28293 0.84635 0.2673 0.0
S1443 S 0.41439 0.84297 0.29977 0.0
N1444 N 0.40627 0.87844 0.29894 0.0
N1445 N 0.37998 0.81861 0.28993 0.0
C1446 C 0.36004 0.83918 0.28571 0.0
C1447 C 0.37422 0.87152 0.29051 0.0
C1448 C 0.5004 0.37973 0.62583 0.0
C1449 C 0.50587 0.35374 0.60551 0.0
C1450 C 0.5004 0.40863 0.61416 0.0
C1451 C 0.50552 0.4128 0.58158 0.0
H1452 H 0.49791 0.3784 0.65159 0.0
H1453 H 0.49811 0.42836 0.63139 0.0
S1454 S 0.51467 0.35087 0.51652 0.0
N1455 N 0.51204 0.33296 0.54985 0.0
N1456 N 0.51164 0.3875 0.52782 0.0
C1457 C 0.50785 0.38638 0.56006 0.0
C1458 C 0.5082 0.35681 0.57207 0.0
C1459 C 0.37911 0.71955 0.32757 0.0
C1460 C 0.40337 0.72468 0.30678 0.0
C1461 C 0.34703 0.71578 0.31538 0.0
C1462 C 0.33794 0.7165 0.2819 0.0
H1463 H 0.38493 0.72061 0.35377 0.0
H1464 H 0.3293 0.71389 0.33268 0.0
S1465 S 0.39208 0.72357 0.21641 0.0
N1466 N 0.41606 0.72625 0.25049 0.0
N1467 N 0.35557 0.71856 0.22752 0.0
C1468 C 0.36175 0.71862 0.26038 0.0
C1469 C 0.39453 0.72293 0.27287 0.0
C1470 C 0.02181 0.67082 0.10623 0.0
C1471 C 0.02804 0.67689 0.14056 0.0
C1472 C 0.01399 0.64014 0.09047 0.0
C1473 C 0.01173 0.61432 0.10843 0.0
H1474 H 0.02269 0.6899 0.09133 0.0
H1475 H 0.00888 0.63669 0.06404 0.0
S1476 S 0.02754 0.61711 0.19859 0.0
N1477 N 0.03279 0.65416 0.19192 0.0
N1478 N 0.01788 0.59661 0.16215 0.0
C1479 C 0.01858 0.61992 0.14265 0.0
C1480 C 0.02683 0.65116 0.15874 0.0
C1481 C 0.12077 0.27751 0.87969 0.0
C1482 C 0.09398 0.27527 0.85685 0.0
C1483 C 0.15121 0.27898 0.86954 0.0
C1484 C 0.15608 0.2788 0.83628 0.0
H1485 H 0.11814 0.2769 0.90552 0.0
H1486 H 0.17103 0.27958 0.88789 0.0
S1487 S 0.09439 0.27609 0.76696 0.0
N1488 N 0.07454 0.27495 0.79957 0.0
N1489 N 0.13214 0.27816 0.78064 0.0
C1490 C 0.12986 0.27826 0.8133 0.0
C1491 C 0.09868 0.27632 0.82356 0.0
C1492 C 0.50937 0.64907 0.93941 0.0
C1493 C 0.51308 0.67689 0.9609 0.0
C1494 C 0.50874 0.62025 0.95129 0.0
C1495 C 0.51113 0.61801 0.98507 0.0
H1496 H 0.50831 0.64959 0.91315 0.0
H1497 H 0.50694 0.59957 0.93382 0.0
S1498 S 0.51813 0.6832 0.05166 0.0
N1499 N 0.51721 0.70015 0.01768 0.0
N1500 N 0.5152 0.64542 0.03996 0.0
C1501 C 0.51306 0.64524 0.0069 0.0
C1502 C 0.5143 0.67485 -0.00519 0.0
C1503 C 0.12527 0.75523 0.65261 0.0
C1504 C 0.09907 0.74966 0.67092 0.0
C1505 C 0.15647 0.76206 0.66794 0.0
C1506 C 0.16269 0.76328 0.70212 0.0
H1507 H 0.12172 0.75537 0.62632 0.0
H1508 H 0.17584 0.76707 0.65287 0.0
S1509 S 0.1025 0.74757 0.7609 0.0
N1510 N 0.08138 0.74366 0.72487 0.0
N1511 N 0.14015 0.75636 0.75367 0.0
C1512 C 0.13679 0.75625 0.7206 0.0
C1513 C 0.10494 0.74952 0.705 0.0
C1514 C 0.02551 0.37013 0.47715 0.0
C1515 C 0.05483 0.37251 0.46365 0.0
C1516 C 0.01679 0.39638 0.49379 0.0
C1517 C 0.03762 0.42544 0.49857 0.0
H1518 H 0.00805 0.34856 0.47241 0.0
H1519 H -0.00698 0.39432 0.50148 0.0
S1520 S 0.11852 0.443 0.47161 0.0
N1521 N 0.10548 0.40561 0.45814 0.0
N1522 N 0.08984 0.45451 0.49131 0.0
C1523 C 0.06806 0.42744 0.48779 0.0
C1524 C 0.0765 0.40104 0.46979 0.0
C1525 C 0.42504 0.24193 0.24164 0.0
C1526 C 0.43204 0.24728 0.20965 0.0
C1527 C 0.39479 0.24318 0.25167 0.0
C1528 C 0.37036 0.24951 0.22998 0.0
H1529 H 0.44265 0.23552 0.25876 0.0
H1530 H 0.39 0.23723 0.27586 0.0
S1531 S 0.37727 0.26991 0.14549 0.0
N1532 N 0.41272 0.26286 0.15772 0.0
N1533 N 0.35585 0.26477 0.1766 0.0
C1534 C 0.37753 0.25702 0.1988 0.0
C1535 C 0.40839 0.25605 0.18863 0.0
C1536 C 0.53543 0.51109 0.38133 0.0
C1537 C 0.56862 0.51501 0.37963 0.0
C1538 C 0.52179 0.50368 0.40999 0.0
C1539 C 0.54083 0.50061 0.4385 0.0
H1540 H 0.51972 0.51405 0.36037 0.0
H1541 H 0.49624 0.50149 0.41004 0.0
S1542 S 0.62869 0.50542 0.44618 0.0
N1543 N 0.6199 0.51265 0.40831 0.0
N1544 N 0.5945 0.49944 0.46235 0.0
C1545 C 0.57394 0.50317 0.43675 0.0
C1546 C 0.58776 0.5102 0.40734 0.0
C1547 C 0.2652 0.798 0.09367 0.0
C1548 C 0.27536 0.83053 0.09414 0.0
C1549 C 0.26692 0.78372 0.12249 0.0
C1550 C 0.27831 0.80165 0.1527 0.0
H1551 H 0.25476 0.7836 0.07109 0.0
H1552 H 0.25745 0.75891 0.12141 0.0
S1553 S 0.31164 0.88669 0.16691 0.0
N1554 N 0.30048 0.87957 0.12715 0.0
N1555 N 0.30286 0.85268 0.1813 0.0
C1556 C 0.29028 0.83375 0.15332 0.0
C1557 C 0.28906 0.84822 0.124 0.0
C1558 C 0.00763 0.53553 0.87925 0.0
C1559 C 0.97425 0.53095 0.87214 0.0
C1560 C 0.02169 0.5356 0.91111 0.0
C1561 C 0.00297 0.53122 0.93717 0.0
H1562 H 0.02305 0.53779 0.85979 0.0
H1563 H 0.04736 0.53793 0.91508 0.0
S1564 S 0.91456 0.52018 0.93198 0.0
N1565 N 0.92295 0.52388 0.8941 0.0
N1566 N 0.94926 0.52357 0.95399 0.0
C1567 C 0.96965 0.5284 0.93075 0.0
C1568 C 0.95532 0.52844 0.89823 0.0
C1569 C 0.25886 0.18998 0.62938 0.0
C1570 C 0.24268 0.15862 0.62267 0.0
C1571 C 0.26532 0.20509 0.66162 0.0
C1572 C 0.25608 0.18927 0.68826 0.0
H1573 H 0.2676 0.20268 0.60976 0.0
H1574 H 0.2791 0.2287 0.66582 0.0
S1575 S 0.20936 0.10884 0.68425 0.0
N1576 N 0.21451 0.11364 0.64576 0.0
N1577 N 0.22738 0.14199 0.70601 0.0
C1578 C 0.23847 0.15867 0.68192 0.0
C1579 C 0.23155 0.14336 0.64922 0.0
C1580 C 0.62069 0.50666 0.16776 0.0
C1581 C 0.60018 0.50814 0.19252 0.0
C1582 C 0.60871 0.49977 0.13469 0.0
C1583 C 0.57576 0.49448 0.12498 0.0
H1584 H 0.64626 0.51035 0.17394 0.0
H1585 H 0.62551 0.49852 0.11661 0.0
S1586 S 0.51187 0.4968 0.18016 0.0
N1587 N 0.54525 0.50447 0.20506 0.0
N1588 N 0.52272 0.49184 0.14281 0.0
C1589 C 0.55494 0.49651 0.14943 0.0
C1590 C 0.56715 0.5032 0.1832 0.0
C1591 C 0.24035 0.83899 0.8747 0.0
C1592 C 0.22589 0.82865 0.90188 0.0
C1593 C 0.24742 0.81778 0.85015 0.0
C1594 C 0.23893 0.78527 0.85069 0.0
H1595 H 0.2487 0.86372 0.87358 0.0
H1596 H 0.26141 0.82716 0.83158 0.0
S1597 S 0.19734 0.7461 0.91483 0.0
N1598 N 0.2016 0.78387 0.9274 0.0
N1599 N 0.21311 0.74366 0.87967 0.0
C1600 C 0.22259 0.77449 0.87671 0.0
C1601 C 0.21632 0.79626 0.90253 0.0
C1602 C 0.96977 0.55232 0.68913 0.0
C1603 C 0.94289 0.52853 0.68893 0.0
C1604 C 0.98971 0.55197 0.664 0.0
C1605 C 0.98389 0.52741 0.63825 0.0
H1606 H 0.97545 0.57137 0.70891 0.0
H1607 H 0.00993 0.57095 0.66486 0.0
S1608 S 0.91619 0.45979 0.62606 0.0
N1609 N 0.91102 0.48014 0.66052 0.0
N1610 N 0.94879 0.47909 0.61354 0.0
C1611 C 0.957 0.50349 0.63772 0.0
C1612 C 0.93636 0.50418 0.66298 0.0
C1613 C 0.2753 0.18103 0.40013 0.0
C1614 C 0.27138 0.19597 0.43093 0.0
C1615 C 0.27929 0.19758 0.37309 0.0
C1616 C 0.28004 0.2301 0.37533 0.0
H1617 H 0.27442 0.15598 0.39644 0.0
H1618 H 0.28106 0.18434 0.3499 0.0
S1619 S 0.27285 0.2811 0.45087 0.0
N1620 N 0.26984 0.24576 0.46259 0.0
N1621 N 0.27784 0.27702 0.41148 0.0
C1622 C 0.27742 0.24577 0.40625 0.0
C1623 C 0.27297 0.2287 0.43403 0.0
C1624 C 0.34371 0.54084 0.53356 0.0
C1625 C 0.33993 0.57177 0.53007 0.0
C1626 C 0.37099 0.52996 0.52458 0.0
C1627 C 0.39528 0.54972 0.51201 0.0
H1628 H 0.32594 0.52518 0.54418 0.0
H1629 H 0.37399 0.50671 0.52945 0.0
S1630 S 0.39651 0.63155 0.49568 0.0
N1631 N 0.36229 0.62117 0.5109 0.0
N1632 N 0.41368 0.60058 0.49476 0.0
C1633 C 0.3913 0.58002 0.50696 0.0
C1634 C 0.36352 0.59109 0.51575 0.0
C1635 C 0.87365 0.94204 0.54805 0.0
C1636 C 0.85211 0.96172 0.55588 0.0
C1637 C 0.90553 0.95443 0.54463 0.0
C1638 C 0.91733 0.98698 0.54946 0.0
H1639 H 0.86543 0.91698 0.54258 0.0
H1640 H 0.92067 0.93826 0.53705 0.0
S1641 S 0.87115 0.04825 0.57431 0.0
N1642 N 0.84513 0.01509 0.571 0.0
N1643 N 0.90516 0.03844 0.56534 0.0
C1644 C 0.89638 0.00678 0.55927 0.0
C1645 C 0.86379 0.99414 0.5623 0.0
C1646 C 0.8686 0.12484 0.28688 0.0
C1647 C 0.84872 0.09958 0.26702 0.0
C1648 C 0.85993 0.15419 0.29181 0.0
C1649 C 0.83086 0.15974 0.27731 0.0
H1650 H 0.89153 0.12223 0.29829 0.0
H1651 H 0.87656 0.17291 0.30677 0.0
S1652 S 0.76933 0.10139 0.22425 0.0
N1653 N 0.79783 0.08184 0.23359 0.0
N1654 N 0.78154 0.13728 0.24309 0.0
C1655 C 0.81009 0.13454 0.25833 0.0
C1656 C 0.81903 0.10445 0.2531 0.0
C1657 C 0.66155 0.07792 0.05616 0.0
C1658 C 0.67112 0.11062 0.0591 0.0
C1659 C 0.62944 0.06388 0.04973 0.0
C1660 C 0.60571 0.08204 0.04579 0.0
H1661 H 0.67906 0.06286 0.05723 0.0
H1662 H 0.62349 0.03854 0.0459 0.0
S1663 S 0.61765 0.16873 0.0576 0.0
N1664 N 0.65398 0.16098 0.06242 0.0
N1665 N 0.59338 0.13442 0.05016 0.0
C1666 C 0.61464 0.1148 0.05154 0.0
C1667 C 0.64744 0.12917 0.05828 0.0
C1668 C 0.22308 0.41786 0.26764 0.0
C1669 C 0.19164 0.41222 0.27615 0.0
C1670 C 0.24524 0.39988 0.27794 0.0
C1671 C 0.23701 0.37565 0.29744 0.0
H1672 H 0.23045 0.43568 0.25199 0.0
H1673 H 0.26872 0.40443 0.26955 0.0
S1674 S 0.15886 0.35437 0.33026 0.0
N1675 N 0.15416 0.38266 0.30775 0.0
N1676 N 0.19578 0.34908 0.32749 0.0
C1677 C 0.20609 0.37094 0.30768 0.0
C1678 C 0.18342 0.3891 0.29688 0.0
C1679 C 0.17906 0.44493 0.0497 0.0
C1680 C 0.17609 0.413 0.05401 0.0
C1681 C 0.15226 0.4579 0.04109 0.0
C1682 C 0.12144 0.43958 0.03722 0.0
H1683 H 0.20233 0.46 0.05255 0.0
H1684 H 0.15567 0.48253 0.038 0.0
S1685 S 0.1007 0.3547 0.04545 0.0
N1686 N 0.13988 0.36335 0.05328 0.0
N1687 N 0.08952 0.38768 0.03777 0.0
C1688 C 0.11815 0.40763 0.04149 0.0
C1689 C 0.14544 0.39436 0.04973 0.0
C1690 C 0.80463 0.90674 0.2499 0.0
C1691 C 0.82993 0.90753 0.23013 0.0
C1692 C 0.78416 0.87842 0.25278 0.0
C1693 C 0.78835 0.84992 0.23604 0.0
H1694 H 0.80182 0.92774 0.26485 0.0
H1695 H 0.7663 0.87865 0.2698 0.0
S1696 S 0.84585 0.84082 0.175 0.0
N1697 N 0.85443 0.87833 0.1893 0.0
N1698 N 0.81585 0.82541 0.19443 0.0
C1699 C 0.81155 0.85101 0.21383 0.0
C1700 C 0.83237 0.87972 0.21096 0.0
C1701 C 0.68266 0.10637 0.75088 0.0
C1702 C 0.64974 0.09816 0.74061 0.0
C1703 C 0.69812 0.13782 0.75707 0.0
C1704 C 0.68118 0.16224 0.75352 0.0
H1705 H 0.69646 0.08846 0.75539 0.0
H1706 H 0.72313 0.14298 0.76638 0.0
S1707 S 0.59586 0.15386 0.72316 0.0
N1708 N 0.60157 0.11758 0.72386 0.0
N1709 N 0.63071 0.17641 0.73605 0.0
C1710 C 0.64881 0.15449 0.74149 0.0
C1711 C 0.63309 0.12255 0.73486 0.0
loop_
_geom_bond_atom_site_label_1
_geom_bond_atom_site_label_2
_geom_bond_distance
_geom_bond_site_symmetry_2
_ccdc_geom_bond_type
C0 O1 1.306 . S
C0 O3 1.160 . S
O1 C0 1.306 . S
O1 Cd2 2.228 1_655 S
Cd2 O1 2.228 1_455 S
Cd2 O6 2.273 . S
Cd2 O10 2.277 . S
O3 C0 1.160 . S
O3 Cd4 2.203 1_655 S
Cd4 O3 2.203 1_455 S
Cd4 O6 2.411 . S
Cd4 O7 2.333 . S
Cd4 O8 2.352 . S
Cd4 O12 2.277 . S
Cd4 O13 2.356 . S
C5 O10 1.209 . S
C5 O12 1.226 . S
O6 Cd2 2.273 . S
O6 Cd4 2.411 . S
O6 C9 1.320 . S
O7 Cd4 2.333 . S
O7 C9 1.214 . S
O8 Cd4 2.352 . S
O8 C11 1.258 . S
C9 O6 1.320 . S
C9 O7 1.214 . S
O10 Cd2 2.277 . S
O10 C5 1.209 . S
C11 O8 1.258 . S
C11 O13 1.282 . S
O12 Cd4 2.277 . S
O12 C5 1.226 . S
O13 Cd4 2.356 . S
O13 C11 1.282 . S
C14 O15 1.306 . S
C14 O17 1.160 . S
O15 C14 1.306 . S
O15 Cd16 2.228 1_655 S
Cd16 O15 2.228 1_455 S
Cd16 O20 2.273 . S
Cd16 O24 2.277 . S
O17 C14 1.160 . S
O17 Cd18 2.203 1_655 S
Cd18 O17 2.203 1_455 S
Cd18 O20 2.411 . S
Cd18 O21 2.333 . S
Cd18 O22 2.352 . S
Cd18 O26 2.277 . S
Cd18 O27 2.356 . S
C19 O24 1.209 . S
C19 O26 1.226 . S
O20 Cd16 2.273 . S
O20 Cd18 2.411 . S
O20 C23 1.320 . S
O21 Cd18 2.333 . S
O21 C23 1.214 . S
O22 Cd18 2.352 . S
O22 C25 1.258 . S
C23 O20 1.320 . S
C23 O21 1.214 . S
O24 Cd16 2.277 . S
O24 C19 1.209 . S
C25 O22 1.258 . S
C25 O27 1.282 . S
O26 Cd18 2.277 . S
O26 C19 1.226 . S
O27 Cd18 2.356 . S
O27 C25 1.282 . S
C28 O29 1.306 . S
C28 O31 1.160 . S
O29 C28 1.306 . S
O29 Cd30 2.228 . S
Cd30 O29 2.228 . S
Cd30 O34 2.273 . S
Cd30 O38 2.277 . S
O31 C28 1.160 . S
O31 Cd32 2.203 . S
Cd32 O31 2.203 . S
Cd32 O34 2.411 . S
Cd32 O35 2.333 . S
Cd32 O36 2.352 . S
Cd32 O40 2.277 . S
Cd32 O41 2.356 . S
C33 O38 1.209 . S
C33 O40 1.226 . S
O34 Cd30 2.273 . S
O34 Cd32 2.411 . S
O34 C37 1.320 . S
O35 Cd32 2.333 . S
O35 C37 1.214 . S
O36 Cd32 2.352 . S
O36 C39 1.258 . S
C37 O34 1.320 . S
C37 O35 1.214 . S
O38 Cd30 2.277 . S
O38 C33 1.209 . S
C39 O36 1.258 . S
C39 O41 1.282 . S
O40 Cd32 2.277 . S
O40 C33 1.226 . S
O41 Cd32 2.356 . S
O41 C39 1.282 . S
C42 O43 1.306 . S
C42 O45 1.160 . S
O43 C42 1.306 . S
O43 Cd44 2.228 . S
Cd44 O43 2.228 . S
Cd44 O48 2.273 . S
Cd44 O52 2.277 . S
O45 C42 1.160 . S
O45 Cd46 2.203 . S
Cd46 O45 2.203 . S
Cd46 O48 2.411 . S
Cd46 O49 2.333 . S
Cd46 O50 2.352 . S
Cd46 O54 2.277 . S
Cd46 O55 2.356 . S
C47 O52 1.209 . S
C47 O54 1.226 . S
O48 Cd44 2.273 . S
O48 Cd46 2.411 . S
O48 C51 1.320 . S
O49 Cd46 2.333 . S
O49 C51 1.214 . S
O50 Cd46 2.352 . S
O50 C53 1.258 . S
C51 O48 1.320 . S
C51 O49 1.214 . S
O52 Cd44 2.277 . S
O52 C47 1.209 . S
C53 O50 1.258 . S
C53 O55 1.282 . S
O54 Cd46 2.277 . S
O54 C47 1.226 . S
O55 Cd46 2.356 . S
O55 C53 1.282 . S
C56 O57 1.306 1_655 S
C56 O59 1.160 . S
O57 C56 1.306 1_455 S
O57 Cd58 2.228 . S
Cd58 O57 2.228 . S
Cd58 O62 2.273 . S
Cd58 O66 2.277 . S
O59 C56 1.160 . S
O59 Cd60 2.203 1_655 S
Cd60 O59 2.203 1_455 S
Cd60 O62 2.411 . S
Cd60 O63 2.333 . S
Cd60 O64 2.352 . S
Cd60 O68 2.277 . S
Cd60 O69 2.356 . S
C61 O66 1.209 . S
C61 O68 1.226 . S
O62 Cd58 2.273 . S
O62 Cd60 2.411 . S
O62 C65 1.320 . S
O63 Cd60 2.333 . S
O63 C65 1.214 . S
O64 Cd60 2.352 . S
O64 C67 1.258 . S
C65 O62 1.320 . S
C65 O63 1.214 . S
O66 Cd58 2.277 . S
O66 C61 1.209 . S
C67 O64 1.258 . S
C67 O69 1.282 . S
O68 Cd60 2.277 . S
O68 C61 1.226 . S
O69 Cd60 2.356 . S
O69 C67 1.282 . S
C70 O71 1.306 . S
C70 O73 1.160 . S
O71 C70 1.306 . S
O71 Cd72 2.228 . S
Cd72 O71 2.228 . S
Cd72 O76 2.273 . S
Cd72 O80 2.277 . S
O73 C70 1.160 . S
O73 Cd74 2.203 . S
Cd74 O73 2.203 . S
Cd74 O76 2.411 . S
Cd74 O77 2.333 . S
Cd74 O78 2.352 . S
Cd74 O82 2.277 . S
Cd74 O83 2.356 . S
C75 O80 1.209 . S
C75 O82 1.226 . S
O76 Cd72 2.273 . S
O76 Cd74 2.411 . S
O76 C79 1.320 . S
O77 Cd74 2.333 . S
O77 C79 1.214 . S
O78 Cd74 2.352 . S
O78 C81 1.258 . S
C79 O76 1.320 . S
C79 O77 1.214 . S
O80 Cd72 2.277 . S
O80 C75 1.209 . S
C81 O78 1.258 . S
C81 O83 1.282 . S
O82 Cd74 2.277 . S
O82 C75 1.226 . S
O83 Cd74 2.356 . S
O83 C81 1.282 . S
C84 O85 1.306 . S
C84 O87 1.160 . S
O85 C84 1.306 . S
O85 Cd86 2.228 . S
Cd86 O85 2.228 . S
Cd86 O90 2.273 . S
Cd86 O94 2.277 . S
O87 C84 1.160 . S
O87 Cd88 2.203 . S
Cd88 O87 2.203 . S
Cd88 O90 2.411 . S
Cd88 O91 2.333 . S
Cd88 O92 2.352 . S
Cd88 O96 2.277 . S
Cd88 O97 2.356 . S
C89 O94 1.209 . S
C89 O96 1.226 . S
O90 Cd86 2.273 . S
O90 Cd88 2.411 . S
O90 C93 1.320 . S
O91 Cd88 2.333 . S
O91 C93 1.214 . S
O92 Cd88 2.352 . S
O92 C95 1.258 . S
C93 O90 1.320 . S
C93 O91 1.214 . S
O94 Cd86 2.277 . S
O94 C89 1.209 . S
C95 O92 1.258 . S
C95 O97 1.282 . S
O96 Cd88 2.277 . S
O96 C89 1.226 . S
O97 Cd88 2.356 . S
O97 C95 1.282 . S
C98 O99 1.306 . S
C98 O101 1.160 . S
O99 C98 1.306 . S
O99 Cd100 2.228 1_655 S
Cd100 O99 2.228 1_455 S
Cd100 O104 2.273 . S
Cd100 O108 2.277 . S
O101 C98 1.160 . S
O101 Cd102 2.203 1_655 S
Cd102 O101 2.203 1_455 S
Cd102 O104 2.411 . S
Cd102 O105 2.333 . S
Cd102 O106 2.352 1_455 S
Cd102 O110 2.277 . S
Cd102 O111 2.356 . S
C103 O108 1.209 . S
C103 O110 1.226 . S
O104 Cd100 2.273 . S
O104 Cd102 2.411 . S
O104 C107 1.320 . S
O105 Cd102 2.333 . S
O105 C107 1.214 . S
O106 Cd102 2.352 1_655 S
O106 C109 1.262 . S
C107 O104 1.320 . S
C107 O105 1.214 . S
O108 Cd100 2.277 . S
O108 C103 1.209 . S
C109 O106 1.262 . S
C109 O111 1.280 1_655 S
O110 Cd102 2.277 . S
O110 C103 1.226 . S
O111 Cd102 2.356 . S
O111 C109 1.280 1_455 S
C112 O113 1.306 . S
C112 O115 1.160 . S
O113 C112 1.306 . S
O113 Cd114 2.228 1_545 S
Cd114 O113 2.228 1_565 S
Cd114 O118 2.273 1_565 S
Cd114 O122 2.277 . S
O115 C112 1.160 . S
O115 Cd116 2.203 . S
Cd116 O115 2.203 . S
Cd116 O118 2.411 . S
Cd116 O119 2.333 . S
Cd116 O120 2.352 . S
Cd116 O124 2.277 1_545 S
Cd116 O125 2.356 . S
C117 O122 1.209 . S
C117 O124 1.226 . S
O118 Cd114 2.273 1_545 S
O118 Cd116 2.411 . S
O118 C121 1.320 . S
O119 Cd116 2.333 . S
O119 C121 1.214 . S
O120 Cd116 2.352 . S
O120 C123 1.258 . S
C121 O118 1.320 . S
C121 O119 1.214 . S
O122 Cd114 2.277 . S
O122 C117 1.209 . S
C123 O120 1.258 . S
C123 O125 1.282 . S
O124 Cd116 2.277 1_565 S
O124 C117 1.226 . S
O125 Cd116 2.356 . S
O125 C123 1.282 . S
C126 O127 1.306 . S
C126 O129 1.160 . S
O127 C126 1.306 . S
O127 Cd128 2.228 . S
Cd128 O127 2.228 . S
Cd128 O132 2.273 . S
Cd128 O136 2.277 . S
O129 C126 1.160 . S
O129 Cd130 2.203 . S
Cd130 O129 2.203 . S
Cd130 O132 2.411 . S
Cd130 O133 2.333 . S
Cd130 O134 2.352 . S
Cd130 O138 2.277 . S
Cd130 O139 2.356 . S
C131 O136 1.209 . S
C131 O138 1.226 . S
O132 Cd128 2.273 . S
O132 Cd130 2.411 . S
O132 C135 1.320 . S
O133 Cd130 2.333 . S
O133 C135 1.214 . S
O134 Cd130 2.352 . S
O134 C137 1.258 . S
C135 O132 1.320 . S
C135 O133 1.214 . S
O136 Cd128 2.277 . S
O136 C131 1.209 . S
C137 O134 1.258 . S
C137 O139 1.282 . S
O138 Cd130 2.277 . S
O138 C131 1.226 . S
O139 Cd130 2.356 . S
O139 C137 1.282 . S
C140 O141 1.306 . S
C140 O143 1.160 . S
O141 C140 1.306 . S
O141 Cd142 2.228 . S
Cd142 O141 2.228 . S
Cd142 O146 2.273 . S
Cd142 O150 2.277 . S
O143 C140 1.160 . S
O143 Cd144 2.203 . S
Cd144 O143 2.203 . S
Cd144 O146 2.411 . S
Cd144 O147 2.333 . S
Cd144 O148 2.352 1_545 S
Cd144 O152 2.277 . S
Cd144 O153 2.356 1_545 S
C145 O150 1.209 . S
C145 O152 1.226 . S
O146 Cd142 2.273 . S
O146 Cd144 2.411 . S
O146 C149 1.320 . S
O147 Cd144 2.333 . S
O147 C149 1.214 . S
O148 Cd144 2.352 1_565 S
O148 C151 1.258 . S
C149 O146 1.320 . S
C149 O147 1.214 . S
O150 Cd142 2.277 . S
O150 C145 1.209 . S
C151 O148 1.258 . S
C151 O153 1.282 . S
O152 Cd144 2.277 . S
O152 C145 1.226 . S
O153 Cd144 2.356 1_565 S
O153 C151 1.282 . S
C154 O155 1.306 . S
C154 O157 1.160 . S
O155 C154 1.306 . S
O155 Cd156 2.228 1_554 S
Cd156 O155 2.228 1_556 S
Cd156 O160 2.273 1_556 S
Cd156 O164 2.277 . S
O157 C154 1.160 . S
O157 Cd158 2.203 . S
Cd158 O157 2.203 . S
Cd158 O160 2.411 . S
Cd158 O161 2.333 . S
Cd158 O162 2.352 . S
Cd158 O166 2.277 1_554 S
Cd158 O167 2.356 . S
C159 O164 1.209 . S
C159 O166 1.226 . S
O160 Cd156 2.273 1_554 S
O160 Cd158 2.411 . S
O160 C163 1.320 . S
O161 Cd158 2.333 . S
O161 C163 1.214 . S
O162 Cd158 2.352 . S
O162 C165 1.258 . S
C163 O160 1.320 . S
C163 O161 1.214 . S
O164 Cd156 2.277 . S
O164 C159 1.209 . S
C165 O162 1.258 . S
C165 O167 1.282 . S
O166 Cd158 2.277 1_556 S
O166 C159 1.226 . S
O167 Cd158 2.356 . S
O167 C165 1.282 . S
C168 O169 1.306 . S
C168 O171 1.160 . S
O169 C168 1.306 . S
O169 Cd170 2.228 . S
Cd170 O169 2.228 . S
Cd170 O174 2.273 . S
Cd170 O178 2.277 1_554 S
O171 C168 1.160 . S
O171 Cd172 2.203 . S
Cd172 O171 2.203 . S
Cd172 O174 2.411 . S
Cd172 O175 2.333 . S
Cd172 O176 2.352 . S
Cd172 O180 2.277 . S
Cd172 O181 2.356 . S
C173 O178 1.209 . S
C173 O180 1.226 1_556 S
O174 Cd170 2.273 . S
O174 Cd172 2.411 . S
O174 C177 1.320 . S
O175 Cd172 2.333 . S
O175 C177 1.214 . S
O176 Cd172 2.352 . S
O176 C179 1.258 . S
C177 O174 1.320 . S
C177 O175 1.214 . S
O178 Cd170 2.277 1_556 S
O178 C173 1.209 . S
C179 O176 1.258 . S
C179 O181 1.282 . S
O180 Cd172 2.277 . S
O180 C173 1.226 1_554 S
O181 Cd172 2.356 . S
O181 C179 1.282 . S
C182 O183 1.306 . S
C182 O185 1.160 . S
O183 C182 1.306 . S
O183 Cd184 2.228 . S
Cd184 O183 2.228 . S
Cd184 O188 2.273 . S
Cd184 O192 2.277 . S
O185 C182 1.160 . S
O185 Cd186 2.203 . S
Cd186 O185 2.203 . S
Cd186 O188 2.411 . S
Cd186 O189 2.333 . S
Cd186 O190 2.352 1_554 S
Cd186 O194 2.277 . S
Cd186 O195 2.374 . S
C187 O192 1.209 . S
C187 O194 1.226 . S
O188 Cd184 2.273 . S
O188 Cd186 2.411 . S
O188 C191 1.320 . S
O189 Cd186 2.333 . S
O189 C191 1.214 . S
O190 Cd186 2.352 1_556 S
O190 C193 1.258 . S
C191 O188 1.320 . S
C191 O189 1.214 . S
O192 Cd184 2.277 . S
O192 C187 1.209 . S
C193 O190 1.258 . S
C193 O195 1.264 1_556 S
O194 Cd186 2.277 . S
O194 C187 1.226 . S
O195 Cd186 2.374 . S
O195 C193 1.264 1_554 S
C196 O197 1.306 . S
C196 O199 1.160 . S
O197 C196 1.306 . S
O197 Cd198 2.228 . S
Cd198 O197 2.228 . S
Cd198 O202 2.273 . S
Cd198 O206 2.277 . S
O199 C196 1.160 . S
O199 Cd200 2.203 . S
Cd200 O199 2.203 . S
Cd200 O202 2.411 . S
Cd200 O203 2.333 . S
Cd200 O204 2.352 . S
Cd200 O208 2.277 . S
Cd200 O209 2.356 . S
C201 O206 1.209 . S
C201 O208 1.226 . S
O202 Cd198 2.273 . S
O202 Cd200 2.411 . S
O202 C205 1.320 . S
O203 Cd200 2.333 . S
O203 C205 1.214 . S
O204 Cd200 2.352 . S
O204 C207 1.258 . S
C205 O202 1.320 . S
C205 O203 1.214 . S
O206 Cd198 2.277 . S
O206 C201 1.209 . S
C207 O204 1.258 . S
C207 O209 1.282 . S
O208 Cd200 2.277 . S
O208 C201 1.226 . S
O209 Cd200 2.356 . S
O209 C207 1.282 . S
C210 O211 1.306 . S
C210 O213 1.160 . S
O211 C210 1.306 . S
O211 Cd212 2.228 . S
Cd212 O211 2.228 . S
Cd212 O216 2.273 . S
Cd212 O220 2.277 . S
O213 C210 1.160 . S
O213 Cd214 2.203 . S
Cd214 O213 2.203 . S
Cd214 O216 2.411 . S
Cd214 O217 2.333 . S
Cd214 O218 2.352 . S
Cd214 O222 2.277 . S
Cd214 O223 2.356 . S
C215 O220 1.209 . S
C215 O222 1.226 . S
O216 Cd212 2.273 . S
O216 Cd214 2.411 . S
O216 C219 1.320 . S
O217 Cd214 2.333 . S
O217 C219 1.214 . S
O218 Cd214 2.352 . S
O218 C221 1.258 . S
C219 O216 1.320 . S
C219 O217 1.214 . S
O220 Cd212 2.277 . S
O220 C215 1.209 . S
C221 O218 1.258 . S
C221 O223 1.282 . S
O222 Cd214 2.277 . S
O222 C215 1.226 . S
O223 Cd214 2.356 . S
O223 C221 1.282 . S
C224 O225 1.306 1_545 S
C224 O227 1.160 . S
O225 C224 1.306 1_565 S
O225 Cd226 2.228 . S
Cd226 O225 2.228 . S
Cd226 O230 2.273 1_565 S
Cd226 O234 2.277 . S
O227 C224 1.160 . S
O227 Cd228 2.203 . S
Cd228 O227 2.203 . S
Cd228 O230 2.411 . S
Cd228 O231 2.333 . S
Cd228 O232 2.352 . S
Cd228 O236 2.277 1_545 S
Cd228 O237 2.356 . S
C229 O234 1.209 . S
C229 O236 1.226 . S
O230 Cd226 2.273 1_545 S
O230 Cd228 2.411 . S
O230 C233 1.320 . S
O231 Cd228 2.333 . S
O231 C233 1.214 . S
O232 Cd228 2.352 . S
O232 C235 1.258 . S
C233 O230 1.320 . S
C233 O231 1.214 . S
O234 Cd226 2.277 . S
O234 C229 1.209 . S
C235 O232 1.258 . S
C235 O237 1.282 . S
O236 Cd228 2.277 1_565 S
O236 C229 1.226 . S
O237 Cd228 2.356 . S
O237 C235 1.282 . S
C238 O239 1.306 . S
C238 O241 1.160 . S
O239 C238 1.306 . S
O239 Cd240 2.228 . S
Cd240 O239 2.228 . S
Cd240 O244 2.273 . S
Cd240 O248 2.277 . S
O241 C238 1.160 . S
O241 Cd242 2.203 . S
Cd242 O241 2.203 . S
Cd242 O244 2.411 . S
Cd242 O245 2.333 . S
Cd242 O246 2.352 . S
Cd242 O250 2.277 . S
Cd242 O251 2.356 . S
C243 O248 1.209 . S
C243 O250 1.226 . S
O244 Cd240 2.273 . S
O244 Cd242 2.411 . S
O244 C247 1.320 . S
O245 Cd242 2.333 . S
O245 C247 1.214 . S
O246 Cd242 2.352 . S
O246 C249 1.258 . S
C247 O244 1.320 . S
C247 O245 1.214 . S
O248 Cd240 2.277 . S
O248 C243 1.209 . S
C249 O246 1.258 . S
C249 O251 1.282 . S
O250 Cd242 2.277 . S
O250 C243 1.226 . S
O251 Cd242 2.356 . S
O251 C249 1.282 . S
C252 O253 1.306 . S
C252 O255 1.160 . S
O253 C252 1.306 . S
O253 Cd254 2.228 . S
Cd254 O253 2.228 . S
Cd254 O258 2.273 . S
Cd254 O262 2.277 . S
O255 C252 1.160 . S
O255 Cd256 2.203 . S
Cd256 O255 2.203 . S
Cd256 O258 2.411 . S
Cd256 O259 2.333 . S
Cd256 O260 2.352 . S
Cd256 O264 2.277 . S
Cd256 O265 2.356 . S
C257 O262 1.209 . S
C257 O264 1.226 . S
O258 Cd254 2.273 . S
O258 Cd256 2.411 . S
O258 C261 1.320 . S
O259 Cd256 2.333 . S
O259 C261 1.214 . S
O260 Cd256 2.352 . S
O260 C263 1.258 . S
C261 O258 1.320 . S
C261 O259 1.214 . S
O262 Cd254 2.277 . S
O262 C257 1.209 . S
C263 O260 1.258 . S
C263 O265 1.282 . S
O264 Cd256 2.277 . S
O264 C257 1.226 . S
O265 Cd256 2.356 . S
O265 C263 1.282 . S
C266 O267 1.306 . S
C266 O269 1.152 1_545 S
O267 C266 1.306 . S
O267 Cd268 2.228 . S
Cd268 O267 2.228 . S
Cd268 O272 2.273 1_545 S
Cd268 O276 2.277 . S
O269 C266 1.152 1_565 S
O269 Cd270 2.203 . S
Cd270 O269 2.203 . S
Cd270 O272 2.411 . S
Cd270 O273 2.333 . S
Cd270 O274 2.352 . S
Cd270 O278 2.277 1_565 S
Cd270 O279 2.356 . S
C271 O276 1.209 . S
C271 O278 1.226 . S
O272 Cd268 2.273 1_565 S
O272 Cd270 2.411 . S
O272 C275 1.320 . S
O273 Cd270 2.333 . S
O273 C275 1.214 . S
O274 Cd270 2.352 . S
O274 C277 1.258 . S
C275 O272 1.320 . S
C275 O273 1.214 . S
O276 Cd268 2.277 . S
O276 C271 1.209 . S
C277 O274 1.258 . S
C277 O279 1.282 . S
O278 Cd270 2.277 1_545 S
O278 C271 1.226 . S
O279 Cd270 2.356 . S
O279 C277 1.282 . S
C280 O281 1.306 . S
C280 O283 1.148 1_554 S
O281 C280 1.306 . S
O281 Cd282 2.228 . S
Cd282 O281 2.228 . S
Cd282 O286 2.273 1_554 S
Cd282 O290 2.277 . S
O283 C280 1.148 1_556 S
O283 Cd284 2.204 . S
Cd284 O283 2.204 . S
Cd284 O286 2.411 . S
Cd284 O287 2.333 . S
Cd284 O288 2.352 . S
Cd284 O292 2.277 1_556 S
Cd284 O293 2.356 . S
C285 O290 1.209 . S
C285 O292 1.226 . S
O286 Cd282 2.273 1_556 S
O286 Cd284 2.411 . S
O286 C289 1.320 . S
O287 Cd284 2.333 . S
O287 C289 1.214 . S
O288 Cd284 2.352 . S
O288 C291 1.258 . S
C289 O286 1.320 . S
C289 O287 1.214 . S
O290 Cd282 2.277 . S
O290 C285 1.209 . S
C291 O288 1.258 . S
C291 O293 1.282 . S
O292 Cd284 2.277 1_554 S
O292 C285 1.226 . S
O293 Cd284 2.356 . S
O293 C291 1.282 . S
C294 O295 1.306 . S
C294 O297 1.160 . S
O295 C294 1.306 . S
O295 Cd296 2.228 . S
Cd296 O295 2.228 . S
Cd296 O300 2.273 . S
Cd296 O304 2.277 . S
O297 C294 1.160 . S
O297 Cd298 2.203 . S
Cd298 O297 2.203 . S
Cd298 O300 2.411 . S
Cd298 O301 2.333 . S
Cd298 O302 2.352 . S
Cd298 O306 2.277 . S
Cd298 O307 2.356 . S
C299 O304 1.209 . S
C299 O306 1.226 . S
O300 Cd296 2.273 . S
O300 Cd298 2.411 . S
O300 C303 1.320 . S
O301 Cd298 2.333 . S
O301 C303 1.214 . S
O302 Cd298 2.352 . S
O302 C305 1.258 . S
C303 O300 1.320 . S
C303 O301 1.214 . S
O304 Cd296 2.277 . S
O304 C299 1.209 . S
C305 O302 1.258 . S
C305 O307 1.282 . S
O306 Cd298 2.277 . S
O306 C299 1.226 . S
O307 Cd298 2.356 . S
O307 C305 1.282 . S
C308 O309 1.306 . S
C308 O311 1.160 . S
O309 C308 1.306 . S
O309 Cd310 2.228 . S
Cd310 O309 2.228 . S
Cd310 O314 2.273 . S
Cd310 O318 2.277 . S
O311 C308 1.160 . S
O311 Cd312 2.203 . S
Cd312 O311 2.203 . S
Cd312 O314 2.411 . S
Cd312 O315 2.333 . S
Cd312 O316 2.352 . S
Cd312 O320 2.277 . S
Cd312 O321 2.356 . S
C313 O318 1.209 . S
C313 O320 1.226 . S
O314 Cd310 2.273 . S
O314 Cd312 2.411 . S
O314 C317 1.320 . S
O315 Cd312 2.333 . S
O315 C317 1.214 . S
O316 Cd312 2.352 . S
O316 C319 1.258 . S
C317 O314 1.320 . S
C317 O315 1.214 . S
O318 Cd310 2.277 . S
O318 C313 1.209 . S
C319 O316 1.258 . S
C319 O321 1.282 . S
O320 Cd312 2.277 . S
O320 C313 1.226 . S
O321 Cd312 2.356 . S
O321 C319 1.282 . S
C322 O323 1.306 . S
C322 O325 1.160 . S
O323 C322 1.306 . S
O323 Cd324 2.228 . S
Cd324 O323 2.228 . S
Cd324 O328 2.273 . S
Cd324 O332 2.277 . S
O325 C322 1.160 . S
O325 Cd326 2.203 . S
Cd326 O325 2.203 . S
Cd326 O328 2.411 . S
Cd326 O329 2.333 . S
Cd326 O330 2.352 . S
Cd326 O334 2.277 . S
Cd326 O335 2.356 . S
C327 O332 1.209 . S
C327 O334 1.226 . S
O328 Cd324 2.273 . S
O328 Cd326 2.411 . S
O328 C331 1.320 . S
O329 Cd326 2.333 . S
O329 C331 1.214 . S
O330 Cd326 2.352 . S
O330 C333 1.258 . S
C331 O328 1.320 . S
C331 O329 1.214 . S
O332 Cd324 2.277 . S
O332 C327 1.209 . S
C333 O330 1.258 . S
C333 O335 1.282 . S
O334 Cd326 2.277 . S
O334 C327 1.226 . S
O335 Cd326 2.356 . S
O335 C333 1.282 . S
Zn336 O342 1.969 . S
Zn336 O343 1.965 1_565 S
Zn336 O347 2.024 . S
Zn336 O352 1.962 1_565 S
Zn337 O344 1.969 1_654 S
Zn337 O350 1.969 1_554 S
Zn337 O351 1.965 . S
Zn337 O353 2.024 1_655 S
C338 O339 1.229 . S
C338 O347 1.058 . S
O339 C338 1.229 . S
C340 O341 1.229 1_454 S
C340 O353 1.058 . S
O341 C340 1.229 1_656 S
O342 Zn336 1.969 . S
O342 C345 1.267 . S
O343 Zn336 1.965 1_545 S
O343 C354 1.260 1_554 S
O344 Zn337 1.969 1_456 S
O344 C354 1.258 . S
C345 O342 1.267 . S
C345 O346 1.228 . S
O346 C345 1.228 . S
O347 Zn336 2.024 . S
O347 C338 1.058 . S
C348 O349 1.228 . S
C348 O350 1.267 1_554 S
O349 C348 1.228 . S
O350 Zn337 1.969 1_556 S
O350 C348 1.267 1_556 S
O351 Zn337 1.965 . S
O351 C355 1.260 1_655 S
O352 Zn336 1.962 1_545 S
O352 C355 1.270 . S
O353 Zn337 2.024 1_455 S
O353 C340 1.058 . S
C354 O343 1.260 1_556 S
C354 O344 1.258 . S
C355 O351 1.260 1_455 S
C355 O352 1.270 . S
Zn356 O362 1.969 . S
Zn356 O363 1.965 . S
Zn356 O367 2.024 . S
Zn356 O372 1.969 . S
Zn357 O364 1.969 . S
Zn357 O370 1.969 . S
Zn357 O371 1.965 . S
Zn357 O373 2.024 . S
C358 O359 1.229 . S
C358 O367 1.058 . S
O359 C358 1.229 . S
C360 O361 1.229 . S
C360 O373 1.058 . S
O361 C360 1.229 . S
O362 Zn356 1.969 . S
O362 C365 1.267 . S
O363 Zn356 1.965 . S
O363 C374 1.260 . S
O364 Zn357 1.969 . S
O364 C374 1.258 . S
C365 O362 1.267 . S
C365 O366 1.228 . S
O366 C365 1.228 . S
O367 Zn356 2.024 . S
O367 C358 1.058 . S
C368 O369 1.228 . S
C368 O370 1.267 . S
O369 C368 1.228 . S
O370 Zn357 1.969 . S
O370 C368 1.267 . S
O371 Zn357 1.965 . S
O371 C375 1.260 . S
O372 Zn356 1.969 . S
O372 C375 1.258 . S
O373 Zn357 2.024 . S
O373 C360 1.058 . S
C374 O363 1.260 . S
C374 O364 1.258 . S
C375 O371 1.260 . S
C375 O372 1.258 . S
Zn376 O382 1.969 . S
Zn376 O383 1.965 . S
Zn376 O387 2.024 . S
Zn376 O392 1.969 . S
Zn377 O384 1.969 . S
Zn377 O390 1.969 . S
Zn377 O391 1.965 1_565 S
Zn377 O393 2.024 . S
C378 O379 1.229 . S
C378 O387 1.058 . S
O379 C378 1.229 . S
C380 O381 1.229 . S
C380 O393 1.058 . S
O381 C380 1.229 . S
O382 Zn376 1.969 . S
O382 C385 1.267 . S
O383 Zn376 1.965 . S
O383 C394 1.260 . S
O384 Zn377 1.969 . S
O384 C394 1.258 1_565 S
C385 O382 1.267 . S
C385 O386 1.228 . S
O386 C385 1.228 . S
O387 Zn376 2.024 . S
O387 C378 1.058 . S
C388 O389 1.228 . S
C388 O390 1.267 . S
O389 C388 1.228 . S
O390 Zn377 1.969 . S
O390 C388 1.267 . S
O391 Zn377 1.965 1_545 S
O391 C395 1.260 . S
O392 Zn376 1.969 . S
O392 C395 1.258 . S
O393 Zn377 2.024 . S
O393 C380 1.058 . S
C394 O383 1.260 . S
C394 O384 1.258 1_545 S
C395 O391 1.260 . S
C395 O392 1.258 . S
Zn396 O402 1.969 . S
Zn396 O403 1.965 . S
Zn396 O407 2.024 . S
Zn396 O412 1.969 . S
Zn397 O404 1.969 . S
Zn397 O410 1.969 . S
Zn397 O411 1.965 . S
Zn397 O413 2.024 . S
C398 O399 1.229 . S
C398 O407 1.058 . S
O399 C398 1.229 . S
C400 O401 1.229 . S
C400 O413 1.058 . S
O401 C400 1.229 . S
O402 Zn396 1.969 . S
O402 C405 1.267 . S
O403 Zn396 1.965 . S
O403 C414 1.260 . S
O404 Zn397 1.969 . S
O404 C414 1.258 . S
C405 O402 1.267 . S
C405 O406 1.228 . S
O406 C405 1.228 . S
O407 Zn396 2.024 . S
O407 C398 1.058 . S
C408 O409 1.228 . S
C408 O410 1.267 . S
O409 C408 1.228 . S
O410 Zn397 1.969 . S
O410 C408 1.267 . S
O411 Zn397 1.965 . S
O411 C415 1.260 . S
O412 Zn396 1.969 . S
O412 C415 1.258 . S
O413 Zn397 2.024 . S
O413 C400 1.058 . S
C414 O403 1.260 . S
C414 O404 1.258 . S
C415 O411 1.260 . S
C415 O412 1.258 . S
Zn416 O422 1.969 . S
Zn416 O423 1.945 1_455 S
Zn416 O427 2.024 1_565 S
Zn416 O432 1.969 1_565 S
Zn417 O424 1.969 1_455 S
Zn417 O430 1.969 1_455 S
Zn417 O431 1.965 . S
Zn417 O433 2.024 . S
C418 O419 1.229 1_545 S
C418 O427 1.058 . S
O419 C418 1.229 1_565 S
C420 O421 1.229 . S
C420 O433 1.058 1_655 S
O421 C420 1.229 . S
O422 Zn416 1.969 . S
O422 C425 1.267 . S
O423 Zn416 1.945 1_655 S
O423 C434 1.282 . S
O424 Zn417 1.969 1_655 S
O424 C434 1.258 1_545 S
C425 O422 1.267 . S
C425 O426 1.228 . S
O426 C425 1.228 . S
O427 Zn416 2.024 1_545 S
O427 C418 1.058 . S
C428 O429 1.228 . S
C428 O430 1.267 1_455 S
O429 C428 1.228 . S
O430 Zn417 1.969 1_655 S
O430 C428 1.267 1_655 S
O431 Zn417 1.965 . S
O431 C435 1.260 . S
O432 Zn416 1.969 1_545 S
O432 C435 1.258 . S
O433 Zn417 2.024 . S
O433 C420 1.058 1_455 S
C434 O423 1.282 . S
C434 O424 1.258 1_565 S
C435 O431 1.260 . S
C435 O432 1.258 . S
Zn436 O442 1.969 . S
Zn436 O443 1.965 . S
Zn436 O447 2.024 . S
Zn436 O452 1.969 . S
Zn437 O444 1.969 . S
Zn437 O450 1.969 . S
Zn437 O451 1.965 . S
Zn437 O453 2.024 . S
C438 O439 1.229 . S
C438 O447 1.058 . S
O439 C438 1.229 . S
C440 O441 1.229 . S
C440 O453 1.058 . S
O441 C440 1.229 . S
O442 Zn436 1.969 . S
O442 C445 1.267 . S
O443 Zn436 1.965 . S
O443 C454 1.260 . S
O444 Zn437 1.969 . S
O444 C454 1.258 . S
C445 O442 1.267 . S
C445 O446 1.228 . S
O446 C445 1.228 . S
O447 Zn436 2.024 . S
O447 C438 1.058 . S
C448 O449 1.228 . S
C448 O450 1.267 . S
O449 C448 1.228 . S
O450 Zn437 1.969 . S
O450 C448 1.267 . S
O451 Zn437 1.965 . S
O451 C455 1.260 . S
O452 Zn436 1.969 . S
O452 C455 1.258 . S
O453 Zn437 2.024 . S
O453 C440 1.058 . S
C454 O443 1.260 . S
C454 O444 1.258 . S
C455 O451 1.260 . S
C455 O452 1.258 . S
Zn456 O462 1.969 . S
Zn456 O463 1.965 1_545 S
Zn456 O467 2.024 1_556 S
Zn456 O472 1.969 1_556 S
Zn457 O464 1.969 . S
Zn457 O470 1.969 . S
Zn457 O471 1.965 1_565 S
Zn457 O473 2.024 . S
C458 O459 1.229 . S
C458 O467 1.058 . S
O459 C458 1.229 . S
C460 O461 1.229 . S
C460 O473 1.058 . S
O461 C460 1.229 . S
O462 Zn456 1.969 . S
O462 C465 1.267 . S
O463 Zn456 1.965 1_565 S
O463 C474 1.260 1_556 S
O464 Zn457 1.969 . S
O464 C474 1.258 . S
C465 O462 1.267 . S
C465 O466 1.228 . S
O466 C465 1.228 . S
O467 Zn456 2.024 1_554 S
O467 C458 1.058 . S
C468 O469 1.236 . S
C468 O470 1.262 1_545 S
O469 C468 1.236 . S
O470 Zn457 1.969 . S
O470 C468 1.262 1_565 S
O471 Zn457 1.965 1_545 S
O471 C475 1.260 . S
O472 Zn456 1.969 1_554 S
O472 C475 1.258 . S
O473 Zn457 2.024 . S
O473 C460 1.058 . S
C474 O463 1.260 1_554 S
C474 O464 1.258 . S
C475 O471 1.260 . S
C475 O472 1.258 . S
Zn476 O482 1.969 . S
Zn476 O483 1.965 . S
Zn476 O487 2.024 . S
Zn476 O492 1.969 . S
Zn477 O484 1.969 . S
Zn477 O490 1.969 . S
Zn477 O491 1.965 . S
Zn477 O493 2.024 . S
C478 O479 1.229 . S
C478 O487 1.058 . S
O479 C478 1.229 . S
C480 O481 1.229 . S
C480 O493 1.058 . S
O481 C480 1.229 . S
O482 Zn476 1.969 . S
O482 C485 1.267 . S
O483 Zn476 1.965 . S
O483 C494 1.260 . S
O484 Zn477 1.969 . S
O484 C494 1.258 . S
C485 O482 1.267 . S
C485 O486 1.228 . S
O486 C485 1.228 . S
O487 Zn476 2.024 . S
O487 C478 1.058 . S
C488 O489 1.228 . S
C488 O490 1.267 . S
O489 C488 1.228 . S
O490 Zn477 1.969 . S
O490 C488 1.267 . S
O491 Zn477 1.965 . S
O491 C495 1.260 . S
O492 Zn476 1.969 . S
O492 C495 1.258 . S
O493 Zn477 2.024 . S
O493 C480 1.058 . S
C494 O483 1.260 . S
C494 O484 1.258 . S
C495 O491 1.260 . S
C495 O492 1.258 . S
Zn496 O502 1.969 . S
Zn496 O503 1.965 . S
Zn496 O507 2.024 . S
Zn496 O512 1.969 . S
Zn497 O504 1.969 1_556 S
Zn497 O510 1.969 1_556 S
Zn497 O511 1.965 1_556 S
Zn497 O513 2.024 . S
C498 O499 1.229 . S
C498 O507 1.058 . S
O499 C498 1.229 . S
C500 O501 1.229 . S
C500 O513 1.058 . S
O501 C500 1.229 . S
O502 Zn496 1.969 . S
O502 C505 1.267 . S
O503 Zn496 1.965 . S
O503 C514 1.260 . S
O504 Zn497 1.969 1_554 S
O504 C514 1.258 . S
C505 O502 1.267 . S
C505 O506 1.228 . S
O506 C505 1.228 . S
O507 Zn496 2.024 . S
O507 C498 1.058 . S
C508 O509 1.228 . S
C508 O510 1.267 1_556 S
O509 C508 1.228 . S
O510 Zn497 1.969 1_554 S
O510 C508 1.267 1_554 S
O511 Zn497 1.965 1_554 S
O511 C515 1.260 . S
O512 Zn496 1.969 . S
O512 C515 1.258 . S
O513 Zn497 2.024 . S
O513 C500 1.058 . S
C514 O503 1.260 . S
C514 O504 1.258 . S
C515 O511 1.260 . S
C515 O512 1.258 . S
Zn516 O522 1.969 . S
Zn516 O523 1.965 . S
Zn516 O527 2.024 . S
Zn516 O532 1.969 . S
Zn517 O524 1.969 . S
Zn517 O530 1.969 . S
Zn517 O531 1.965 . S
Zn517 O533 2.024 . S
C518 O519 1.229 . S
C518 O527 1.058 . S
O519 C518 1.229 . S
C520 O521 1.229 . S
C520 O533 1.058 . S
O521 C520 1.229 . S
O522 Zn516 1.969 . S
O522 C525 1.267 . S
O523 Zn516 1.965 . S
O523 C534 1.260 . S
O524 Zn517 1.969 . S
O524 C534 1.258 . S
C525 O522 1.267 . S
C525 O526 1.228 . S
O526 C525 1.228 . S
O527 Zn516 2.024 . S
O527 C518 1.058 . S
C528 O529 1.228 . S
C528 O530 1.267 . S
O529 C528 1.228 . S
O530 Zn517 1.969 . S
O530 C528 1.267 . S
O531 Zn517 1.965 . S
O531 C535 1.260 . S
O532 Zn516 1.969 . S
O532 C535 1.258 . S
O533 Zn517 2.024 . S
O533 C520 1.058 . S
C534 O523 1.260 . S
C534 O524 1.258 . S
C535 O531 1.260 . S
C535 O532 1.258 . S
Zn536 O542 1.969 . S
Zn536 O543 1.965 . S
Zn536 O547 2.024 . S
Zn536 O552 1.969 . S
Zn537 O544 1.969 1_655 S
Zn537 O550 1.969 . S
Zn537 O551 1.965 1_655 S
Zn537 O553 2.024 . S
C538 O539 1.229 . S
C538 O547 1.058 . S
O539 C538 1.229 . S
C540 O541 1.229 . S
C540 O553 1.058 . S
O541 C540 1.229 . S
O542 Zn536 1.969 . S
O542 C545 1.267 . S
O543 Zn536 1.965 . S
O543 C554 1.260 . S
O544 Zn537 1.969 1_455 S
O544 C554 1.258 . S
C545 O542 1.267 . S
C545 O546 1.228 . S
O546 C545 1.228 . S
O547 Zn536 2.024 . S
O547 C538 1.058 . S
C548 O549 1.228 . S
C548 O550 1.267 . S
O549 C548 1.228 . S
O550 Zn537 1.969 . S
O550 C548 1.267 . S
O551 Zn537 1.965 1_455 S
O551 C555 1.260 . S
O552 Zn536 1.969 . S
O552 C555 1.258 . S
O553 Zn537 2.024 . S
O553 C540 1.058 . S
C554 O543 1.260 . S
C554 O544 1.258 . S
C555 O551 1.260 . S
C555 O552 1.258 . S
Zn556 O562 1.969 . S
Zn556 O563 1.965 . S
Zn556 O567 2.024 . S
Zn556 O572 1.969 . S
Zn557 O564 1.969 . S
Zn557 O570 1.969 . S
Zn557 O571 1.965 . S
Zn557 O573 2.024 . S
C558 O559 1.229 . S
C558 O567 1.058 . S
O559 C558 1.229 . S
C560 O561 1.229 . S
C560 O573 1.058 . S
O561 C560 1.229 . S
O562 Zn556 1.969 . S
O562 C565 1.267 . S
O563 Zn556 1.965 . S
O563 C574 1.260 . S
O564 Zn557 1.969 . S
O564 C574 1.258 . S
C565 O562 1.267 . S
C565 O566 1.228 . S
O566 C565 1.228 . S
O567 Zn556 2.024 . S
O567 C558 1.058 . S
C568 O569 1.228 . S
C568 O570 1.267 . S
O569 C568 1.228 . S
O570 Zn557 1.969 . S
O570 C568 1.267 . S
O571 Zn557 1.965 . S
O571 C575 1.260 . S
O572 Zn556 1.969 . S
O572 C575 1.258 . S
O573 Zn557 2.024 . S
O573 C560 1.058 . S
C574 O563 1.260 . S
C574 O564 1.258 . S
C575 O571 1.260 . S
C575 O572 1.258 . S
Zn576 O582 1.969 . S
Zn576 O583 1.965 . S
Zn576 O587 2.024 . S
Zn576 O592 1.969 . S
Zn577 O584 1.969 . S
Zn577 O590 1.969 . S
Zn577 O591 1.965 . S
Zn577 O593 2.024 . S
C578 O579 1.229 . S
C578 O587 1.058 . S
O579 C578 1.229 . S
C580 O581 1.229 . S
C580 O593 1.058 . S
O581 C580 1.229 . S
O582 Zn576 1.969 . S
O582 C585 1.267 . S
O583 Zn576 1.965 . S
O583 C594 1.260 . S
O584 Zn577 1.969 . S
O584 C594 1.258 . S
C585 O582 1.267 . S
C585 O586 1.228 . S
O586 C585 1.228 . S
O587 Zn576 2.024 . S
O587 C578 1.058 . S
C588 O589 1.228 . S
C588 O590 1.267 . S
O589 C588 1.228 . S
O590 Zn577 1.969 . S
O590 C588 1.267 . S
O591 Zn577 1.965 . S
O591 C595 1.260 . S
O592 Zn576 1.969 . S
O592 C595 1.258 . S
O593 Zn577 2.024 . S
O593 C580 1.058 . S
C594 O583 1.260 . S
C594 O584 1.258 . S
C595 O591 1.260 . S
C595 O592 1.258 . S
Zn596 O602 1.969 . S
Zn596 O603 1.965 . S
Zn596 O607 2.024 . S
Zn596 O612 1.969 . S
Zn597 O604 1.969 . S
Zn597 O610 1.969 . S
Zn597 O611 1.965 . S
Zn597 O613 2.024 . S
C598 O599 1.229 . S
C598 O607 1.058 . S
O599 C598 1.229 . S
C600 O601 1.229 . S
C600 O613 1.058 . S
O601 C600 1.229 . S
O602 Zn596 1.969 . S
O602 C605 1.267 . S
O603 Zn596 1.965 . S
O603 C614 1.260 . S
O604 Zn597 1.969 . S
O604 C614 1.258 . S
C605 O602 1.267 . S
C605 O606 1.228 . S
O606 C605 1.228 . S
O607 Zn596 2.024 . S
O607 C598 1.058 . S
C608 O609 1.228 . S
C608 O610 1.267 . S
O609 C608 1.228 . S
O610 Zn597 1.969 . S
O610 C608 1.267 . S
O611 Zn597 1.965 . S
O611 C615 1.260 . S
O612 Zn596 1.969 . S
O612 C615 1.258 . S
O613 Zn597 2.024 . S
O613 C600 1.058 . S
C614 O603 1.260 . S
C614 O604 1.258 . S
C615 O611 1.260 . S
C615 O612 1.258 . S
Zn616 O622 1.969 . S
Zn616 O623 1.965 . S
Zn616 O627 2.024 . S
Zn616 O632 1.969 . S
Zn617 O624 1.969 . S
Zn617 O630 1.969 . S
Zn617 O631 1.965 . S
Zn617 O633 2.024 . S
C618 O619 1.229 . S
C618 O627 1.058 . S
O619 C618 1.229 . S
C620 O621 1.229 . S
C620 O633 1.058 . S
O621 C620 1.229 . S
O622 Zn616 1.969 . S
O622 C625 1.267 . S
O623 Zn616 1.965 . S
O623 C634 1.260 . S
O624 Zn617 1.969 . S
O624 C634 1.258 . S
C625 O622 1.267 . S
C625 O626 1.228 . S
O626 C625 1.228 . S
O627 Zn616 2.024 . S
O627 C618 1.058 . S
C628 O629 1.228 . S
C628 O630 1.267 . S
O629 C628 1.228 . S
O630 Zn617 1.969 . S
O630 C628 1.267 . S
O631 Zn617 1.965 . S
O631 C635 1.260 . S
O632 Zn616 1.969 . S
O632 C635 1.258 . S
O633 Zn617 2.024 . S
O633 C620 1.058 . S
C634 O623 1.260 . S
C634 O624 1.258 . S
C635 O631 1.260 . S
C635 O632 1.258 . S
Zn636 O642 1.969 . S
Zn636 O643 1.965 . S
Zn636 O647 2.024 1_655 S
Zn636 O652 1.969 1_655 S
Zn637 O644 1.969 1_554 S
Zn637 O650 1.969 . S
Zn637 O651 1.965 . S
Zn637 O653 2.024 . S
C638 O639 1.229 . S
C638 O647 1.058 . S
O639 C638 1.229 . S
C640 O641 1.229 . S
C640 O653 1.058 1_556 S
O641 C640 1.229 . S
O642 Zn636 1.969 . S
O642 C645 1.267 . S
O643 Zn636 1.965 . S
O643 C654 1.260 1_654 S
O644 Zn637 1.969 1_556 S
O644 C654 1.258 . S
C645 O642 1.267 . S
C645 O646 1.228 . S
O646 C645 1.228 . S
O647 Zn636 2.024 1_455 S
O647 C638 1.058 . S
C648 O649 1.228 . S
C648 O650 1.267 . S
O649 C648 1.228 . S
O650 Zn637 1.969 . S
O650 C648 1.267 . S
O651 Zn637 1.965 . S
O651 C655 1.260 . S
O652 Zn636 1.969 1_455 S
O652 C655 1.258 . S
O653 Zn637 2.024 . S
O653 C640 1.058 1_554 S
C654 O643 1.260 1_456 S
C654 O644 1.258 . S
C655 O651 1.260 . S
C655 O652 1.258 . S
C656 C657 1.369 . S
C656 C658 1.419 . S
C656 H660 0.930 . S
C657 C656 1.369 . S
C657 C666 1.429 1_455 S
C658 C656 1.419 . S
C658 C659 1.365 . S
C658 H661 0.929 . S
C659 C658 1.365 . S
C659 C665 1.428 1_455 S
H660 C656 0.930 . S
H661 C658 0.929 . S
S662 N663 1.613 1_554 S
S662 N664 1.610 . S
N663 S662 1.613 1_556 S
N663 C666 1.350 . S
N664 S662 1.610 . S
N664 C665 1.351 1_554 S
C665 C659 1.428 1_655 S
C665 N664 1.351 1_556 S
C665 C666 1.434 . S
C666 C657 1.429 1_655 S
C666 N663 1.350 . S
C666 C665 1.434 . S
C667 C668 1.369 . S
C667 C669 1.419 . S
C667 H671 0.930 . S
C668 C667 1.369 . S
C668 C677 1.429 . S
C669 C667 1.419 . S
C669 C670 1.363 . S
C669 H672 0.929 . S
C670 C669 1.363 . S
C670 C676 1.428 . S
H671 C667 0.930 . S
H672 C669 0.929 . S
S673 N674 1.613 . S
S673 N675 1.610 . S
N674 S673 1.613 . S
N674 C677 1.350 . S
N675 S673 1.610 . S
N675 C676 1.351 . S
C676 C670 1.428 . S
C676 N675 1.351 . S
C676 C677 1.434 . S
C677 C668 1.429 . S
C677 N674 1.350 . S
C677 C676 1.434 . S
C678 C679 1.369 . S
C678 C680 1.419 . S
C678 H682 0.930 . S
C679 C678 1.369 . S
C679 C688 1.429 . S
C680 C678 1.419 . S
C680 C681 1.363 . S
C680 H683 0.929 . S
C681 C680 1.363 . S
C681 C687 1.428 . S
H682 C678 0.930 . S
H683 C680 0.929 . S
S684 N685 1.613 . S
S684 N686 1.610 . S
N685 S684 1.613 . S
N685 C688 1.350 . S
N686 S684 1.610 . S
N686 C687 1.351 . S
C687 C681 1.428 . S
C687 N686 1.351 . S
C687 C688 1.434 . S
C688 C679 1.429 . S
C688 N685 1.350 . S
C688 C687 1.434 . S
C689 C690 1.369 . S
C689 C691 1.419 . S
C689 H693 0.930 . S
C690 C689 1.369 . S
C690 C699 1.429 . S
C691 C689 1.419 . S
C691 C692 1.363 . S
C691 H694 0.929 . S
C692 C691 1.363 . S
C692 C698 1.428 . S
H693 C689 0.930 . S
H694 C691 0.929 . S
S695 N696 1.613 . S
S695 N697 1.610 . S
N696 S695 1.613 . S
N696 C699 1.350 . S
N697 S695 1.610 . S
N697 C698 1.351 . S
C698 C692 1.428 . S
C698 N697 1.351 . S
C698 C699 1.434 . S
C699 C690 1.429 . S
C699 N696 1.350 . S
C699 C698 1.434 . S
C700 C701 1.369 . S
C700 C702 1.419 . S
C700 H704 0.930 . S
C701 C700 1.369 . S
C701 C710 1.429 1_455 S
C702 C700 1.419 . S
C702 C703 1.363 . S
C702 H705 0.929 . S
C703 C702 1.363 . S
C703 C709 1.428 . S
H704 C700 0.930 . S
H705 C702 0.929 . S
S706 N707 1.613 . S
S706 N708 1.610 . S
N707 S706 1.613 . S
N707 C710 1.350 . S
N708 S706 1.610 . S
N708 C709 1.351 1_655 S
C709 C703 1.428 . S
C709 N708 1.351 1_455 S
C709 C710 1.434 1_455 S
C710 C701 1.429 1_655 S
C710 N707 1.350 . S
C710 C709 1.434 1_655 S
C711 C712 1.369 . S
C711 C713 1.419 . S
C711 H715 0.930 . S
C712 C711 1.369 . S
C712 C721 1.429 . S
C713 C711 1.419 . S
C713 C714 1.363 . S
C713 H716 0.929 . S
C714 C713 1.363 . S
C714 C720 1.428 . S
H715 C711 0.930 . S
H716 C713 0.929 . S
S717 N718 1.613 . S
S717 N719 1.610 . S
N718 S717 1.613 . S
N718 C721 1.350 . S
N719 S717 1.610 . S
N719 C720 1.351 . S
C720 C714 1.428 . S
C720 N719 1.351 . S
C720 C721 1.434 . S
C721 C712 1.429 . S
C721 N718 1.350 . S
C721 C720 1.434 . S
C722 C723 1.369 . S
C722 C724 1.419 . S
C722 H726 0.930 . S
C723 C722 1.369 . S
C723 C732 1.429 . S
C724 C722 1.419 . S
C724 C725 1.363 . S
C724 H727 0.929 . S
C725 C724 1.363 . S
C725 C731 1.428 . S
H726 C722 0.930 . S
H727 C724 0.929 . S
S728 N729 1.613 . S
S728 N730 1.610 . S
N729 S728 1.613 . S
N729 C732 1.350 . S
N730 S728 1.610 . S
N730 C731 1.351 . S
C731 C725 1.428 . S
C731 N730 1.351 . S
C731 C732 1.434 . S
C732 C723 1.429 . S
C732 N729 1.350 . S
C732 C731 1.434 . S
C733 C734 1.369 . S
C733 C735 1.419 . S
C733 H737 0.930 . S
C734 C733 1.369 . S
C734 C743 1.429 . S
C735 C733 1.419 . S
C735 C736 1.363 . S
C735 H738 0.929 . S
C736 C735 1.363 . S
C736 C742 1.428 . S
H737 C733 0.930 . S
H738 C735 0.929 . S
S739 N740 1.613 . S
S739 N741 1.610 . S
N740 S739 1.613 . S
N740 C743 1.350 . S
N741 S739 1.610 . S
N741 C742 1.351 . S
C742 C736 1.428 . S
C742 N741 1.351 . S
C742 C743 1.434 . S
C743 C734 1.429 . S
C743 N740 1.350 . S
C743 C742 1.434 . S
C744 C745 1.369 . S
C744 C746 1.419 . S
C744 H748 0.930 . S
C745 C744 1.369 . S
C745 C754 1.429 1_545 S
C746 C744 1.419 . S
C746 C747 1.363 . S
C746 H749 0.929 . S
C747 C746 1.363 . S
C747 C753 1.428 1_545 S
H748 C744 0.930 . S
H749 C746 0.929 . S
S750 N751 1.613 1_455 S
S750 N752 1.610 . S
N751 S750 1.613 1_655 S
N751 C754 1.350 . S
N752 S750 1.610 . S
N752 C753 1.351 1_455 S
C753 C747 1.428 1_565 S
C753 N752 1.351 1_655 S
C753 C754 1.434 . S
C754 C745 1.429 1_565 S
C754 N751 1.350 . S
C754 C753 1.434 . S
C755 C756 1.369 . S
C755 C757 1.419 . S
C755 H759 0.930 . S
C756 C755 1.369 . S
C756 C765 1.429 . S
C757 C755 1.419 . S
C757 C758 1.363 . S
C757 H760 0.929 . S
C758 C757 1.363 . S
C758 C764 1.428 . S
H759 C755 0.930 . S
H760 C757 0.929 . S
S761 N762 1.613 . S
S761 N763 1.610 . S
N762 S761 1.613 . S
N762 C765 1.350 . S
N763 S761 1.610 . S
N763 C764 1.351 . S
C764 C758 1.428 . S
C764 N763 1.351 . S
C764 C765 1.434 . S
C765 C756 1.429 . S
C765 N762 1.350 . S
C765 C764 1.434 . S
C766 C767 1.369 . S
C766 C768 1.419 . S
C766 H770 0.930 . S
C767 C766 1.369 . S
C767 C776 1.429 1_565 S
C768 C766 1.419 . S
C768 C769 1.369 . S
C768 H771 0.929 . S
C769 C768 1.369 . S
C769 C775 1.426 1_565 S
H770 C766 0.930 . S
H771 C768 0.929 . S
S772 N773 1.613 . S
S772 N774 1.610 . S
N773 S772 1.613 . S
N773 C776 1.350 . S
N774 S772 1.610 . S
N774 C775 1.351 . S
C775 C769 1.426 1_545 S
C775 N774 1.351 . S
C775 C776 1.434 . S
C776 C767 1.429 1_545 S
C776 N773 1.350 . S
C776 C775 1.434 . S
C777 C778 1.369 . S
C777 C779 1.419 . S
C777 H781 0.930 . S
C778 C777 1.369 . S
C778 C787 1.429 . S
C779 C777 1.419 . S
C779 C780 1.363 . S
C779 H782 0.929 . S
C780 C779 1.363 . S
C780 C786 1.428 . S
H781 C777 0.930 . S
H782 C779 0.929 . S
S783 N784 1.613 . S
S783 N785 1.610 . S
N784 S783 1.613 . S
N784 C787 1.350 . S
N785 S783 1.610 . S
N785 C786 1.351 . S
C786 C780 1.428 . S
C786 N785 1.351 . S
C786 C787 1.434 . S
C787 C778 1.429 . S
C787 N784 1.350 . S
C787 C786 1.434 . S
C788 C789 1.369 . S
C788 C790 1.419 . S
C788 H792 0.930 . S
C789 C788 1.369 . S
C789 C798 1.429 . S
C790 C788 1.419 . S
C790 C791 1.363 . S
C790 H793 0.929 . S
C791 C790 1.363 . S
C791 C797 1.428 . S
H792 C788 0.930 . S
H793 C790 0.929 . S
S794 N795 1.613 1_455 S
S794 N796 1.610 . S
N795 S794 1.613 1_655 S
N795 C798 1.350 . S
N796 S794 1.610 . S
N796 C797 1.351 1_455 S
C797 C791 1.428 . S
C797 N796 1.351 1_655 S
C797 C798 1.434 . S
C798 C789 1.429 . S
C798 N795 1.350 . S
C798 C797 1.434 . S
C799 C800 1.369 . S
C799 C801 1.419 . S
C799 H803 0.930 . S
C800 C799 1.369 . S
C800 C809 1.429 . S
C801 C799 1.419 . S
C801 C802 1.363 . S
C801 H804 0.929 . S
C802 C801 1.363 . S
C802 C808 1.428 . S
H803 C799 0.930 . S
H804 C801 0.929 . S
S805 N806 1.613 . S
S805 N807 1.610 . S
N806 S805 1.613 . S
N806 C809 1.350 . S
N807 S805 1.610 . S
N807 C808 1.351 . S
C808 C802 1.428 . S
C808 N807 1.351 . S
C808 C809 1.434 . S
C809 C800 1.429 . S
C809 N806 1.350 . S
C809 C808 1.434 . S
C810 C811 1.369 . S
C810 C812 1.419 . S
C810 H814 0.930 . S
C811 C810 1.369 . S
C811 C820 1.429 1_545 S
C812 C810 1.419 . S
C812 C813 1.363 . S
C812 H815 0.929 . S
C813 C812 1.363 . S
C813 C819 1.428 1_545 S
H814 C810 0.930 . S
H815 C812 0.929 . S
S816 N817 1.613 . S
S816 N818 1.610 . S
N817 S816 1.613 . S
N817 C820 1.350 . S
N818 S816 1.610 . S
N818 C819 1.351 . S
C819 C813 1.428 1_565 S
C819 N818 1.351 . S
C819 C820 1.434 . S
C820 C811 1.429 1_565 S
C820 N817 1.350 . S
C820 C819 1.434 . S
C821 C822 1.369 . S
C821 C823 1.419 . S
C821 H825 0.930 . S
C822 C821 1.369 . S
C822 C831 1.429 . S
C823 C821 1.419 . S
C823 C824 1.363 . S
C823 H826 0.929 . S
C824 C823 1.363 . S
C824 C830 1.428 . S
H825 C821 0.930 . S
H826 C823 0.929 . S
S827 N828 1.613 . S
S827 N829 1.610 . S
N828 S827 1.613 . S
N828 C831 1.350 . S
N829 S827 1.610 . S
N829 C830 1.351 . S
C830 C824 1.428 . S
C830 N829 1.351 . S
C830 C831 1.434 . S
C831 C822 1.429 . S
C831 N828 1.350 . S
C831 C830 1.434 . S
C832 C833 1.369 . S
C832 C834 1.419 . S
C832 H836 0.930 . S
C833 C832 1.369 . S
C833 C842 1.429 . S
C834 C832 1.419 . S
C834 C835 1.363 . S
C834 H837 0.929 . S
C835 C834 1.363 . S
C835 C841 1.428 . S
H836 C832 0.930 . S
H837 C834 0.929 . S
S838 N839 1.613 . S
S838 N840 1.610 . S
N839 S838 1.613 . S
N839 C842 1.350 1_556 S
N840 S838 1.610 . S
N840 C841 1.351 1_556 S
C841 C835 1.428 . S
C841 N840 1.351 1_554 S
C841 C842 1.434 . S
C842 C833 1.429 . S
C842 N839 1.350 1_554 S
C842 C841 1.434 . S
C843 C844 1.348 1_554 S
C843 C845 1.419 . S
C843 H847 0.930 . S
C844 C843 1.348 1_556 S
C844 C853 1.442 . S
C845 C843 1.419 . S
C845 C846 1.363 . S
C845 H848 0.929 . S
C846 C845 1.363 . S
C846 C852 1.428 1_554 S
H847 C843 0.930 . S
H848 C845 0.929 . S
S849 N850 1.613 . S
S849 N851 1.610 . S
N850 S849 1.613 . S
N850 C853 1.350 . S
N851 S849 1.610 . S
N851 C852 1.351 . S
C852 C846 1.428 1_556 S
C852 N851 1.351 . S
C852 C853 1.434 . S
C853 C844 1.442 . S
C853 N850 1.350 . S
C853 C852 1.434 . S
C854 C855 1.369 . S
C854 C856 1.419 . S
C854 H858 0.930 . S
C855 C854 1.369 . S
C855 C864 1.429 . S
C856 C854 1.419 . S
C856 C857 1.363 . S
C856 H859 0.929 . S
C857 C856 1.363 . S
C857 C863 1.428 . S
H858 C854 0.930 . S
H859 C856 0.929 . S
S860 N861 1.613 . S
S860 N862 1.610 . S
N861 S860 1.613 . S
N861 C864 1.350 . S
N862 S860 1.610 . S
N862 C863 1.351 . S
C863 C857 1.428 . S
C863 N862 1.351 . S
C863 C864 1.434 . S
C864 C855 1.429 . S
C864 N861 1.350 . S
C864 C863 1.434 . S
C865 C866 1.369 . S
C865 C867 1.419 . S
C865 H869 0.930 . S
C866 C865 1.369 . S
C866 C875 1.429 . S
C867 C865 1.419 . S
C867 C868 1.363 . S
C867 H870 0.929 . S
C868 C867 1.363 . S
C868 C874 1.428 . S
H869 C865 0.930 . S
H870 C867 0.929 . S
S871 N872 1.613 . S
S871 N873 1.610 . S
N872 S871 1.613 . S
N872 C875 1.350 . S
N873 S871 1.610 . S
N873 C874 1.351 . S
C874 C868 1.428 . S
C874 N873 1.351 . S
C874 C875 1.434 . S
C875 C866 1.429 . S
C875 N872 1.350 . S
C875 C874 1.434 . S
C876 C877 1.369 . S
C876 C878 1.419 . S
C876 H880 0.930 . S
C877 C876 1.369 . S
C877 C886 1.429 . S
C878 C876 1.419 . S
C878 C879 1.363 . S
C878 H881 0.929 . S
C879 C878 1.363 . S
C879 C885 1.428 . S
H880 C876 0.930 . S
H881 C878 0.929 . S
S882 N883 1.613 . S
S882 N884 1.610 . S
N883 S882 1.613 . S
N883 C886 1.350 . S
N884 S882 1.610 . S
N884 C885 1.351 . S
C885 C879 1.428 . S
C885 N884 1.351 . S
C885 C886 1.434 . S
C886 C877 1.429 . S
C886 N883 1.350 . S
C886 C885 1.434 . S
C887 C888 1.369 . S
C887 C889 1.419 . S
C887 H891 0.930 . S
C888 C887 1.369 . S
C888 C897 1.429 . S
C889 C887 1.419 . S
C889 C890 1.363 . S
C889 H892 0.929 . S
C890 C889 1.363 . S
C890 C896 1.428 . S
H891 C887 0.930 . S
H892 C889 0.929 . S
S893 N894 1.613 . S
S893 N895 1.610 . S
N894 S893 1.613 . S
N894 C897 1.350 . S
N895 S893 1.610 . S
N895 C896 1.351 . S
C896 C890 1.428 . S
C896 N895 1.351 . S
C896 C897 1.434 . S
C897 C888 1.429 . S
C897 N894 1.350 . S
C897 C896 1.434 . S
C898 C899 1.369 . S
C898 C900 1.419 . S
C898 H902 0.930 . S
C899 C898 1.369 . S
C899 C908 1.429 . S
C900 C898 1.419 . S
C900 C901 1.363 . S
C900 H903 0.929 . S
C901 C900 1.363 . S
C901 C907 1.428 . S
H902 C898 0.930 . S
H903 C900 0.929 . S
S904 N905 1.613 . S
S904 N906 1.610 . S
N905 S904 1.613 . S
N905 C908 1.350 . S
N906 S904 1.610 . S
N906 C907 1.351 . S
C907 C901 1.428 . S
C907 N906 1.351 . S
C907 C908 1.434 . S
C908 C899 1.429 . S
C908 N905 1.350 . S
C908 C907 1.434 . S
C909 C910 1.369 . S
C909 C911 1.419 . S
C909 H913 0.930 . S
C910 C909 1.369 . S
C910 C919 1.429 . S
C911 C909 1.419 . S
C911 C912 1.363 . S
C911 H914 0.929 . S
C912 C911 1.363 . S
C912 C918 1.428 . S
H913 C909 0.930 . S
H914 C911 0.929 . S
S915 N916 1.613 . S
S915 N917 1.610 . S
N916 S915 1.613 . S
N916 C919 1.350 . S
N917 S915 1.610 . S
N917 C918 1.351 . S
C918 C912 1.428 . S
C918 N917 1.351 . S
C918 C919 1.434 . S
C919 C910 1.429 . S
C919 N916 1.350 . S
C919 C918 1.434 . S
C920 C921 1.369 . S
C920 C922 1.419 . S
C920 H924 0.930 . S
C921 C920 1.369 . S
C921 C930 1.429 . S
C922 C920 1.419 . S
C922 C923 1.363 . S
C922 H925 0.929 . S
C923 C922 1.363 . S
C923 C929 1.428 . S
H924 C920 0.930 . S
H925 C922 0.929 . S
S926 N927 1.613 . S
S926 N928 1.610 . S
N927 S926 1.613 . S
N927 C930 1.350 1_655 S
N928 S926 1.610 . S
N928 C929 1.351 1_655 S
C929 C923 1.428 . S
C929 N928 1.351 1_455 S
C929 C930 1.434 . S
C930 C921 1.429 . S
C930 N927 1.350 1_455 S
C930 C929 1.434 . S
C931 C932 1.369 . S
C931 C933 1.419 . S
C931 H935 0.930 . S
C932 C931 1.369 . S
C932 C941 1.429 . S
C933 C931 1.419 . S
C933 C934 1.363 . S
C933 H936 0.929 . S
C934 C933 1.363 . S
C934 C940 1.428 . S
H935 C931 0.930 . S
H936 C933 0.929 . S
S937 N938 1.613 . S
S937 N939 1.610 . S
N938 S937 1.613 . S
N938 C941 1.350 . S
N939 S937 1.610 . S
N939 C940 1.351 . S
C940 C934 1.428 . S
C940 N939 1.351 . S
C940 C941 1.434 . S
C941 C932 1.429 . S
C941 N938 1.350 . S
C941 C940 1.434 . S
C942 C943 1.369 . S
C942 C944 1.419 . S
C942 H946 0.930 . S
C943 C942 1.369 . S
C943 C952 1.429 . S
C944 C942 1.419 . S
C944 C945 1.363 . S
C944 H947 0.929 . S
C945 C944 1.363 . S
C945 C951 1.428 . S
H946 C942 0.930 . S
H947 C944 0.929 . S
S948 N949 1.613 . S
S948 N950 1.610 . S
N949 S948 1.613 . S
N949 C952 1.350 . S
N950 S948 1.610 . S
N950 C951 1.351 . S
C951 C945 1.428 . S
C951 N950 1.351 . S
C951 C952 1.434 . S
C952 C943 1.429 . S
C952 N949 1.350 . S
C952 C951 1.434 . S
C953 C954 1.369 . S
C953 C955 1.419 . S
C953 H957 0.930 . S
C954 C953 1.369 . S
C954 C963 1.429 . S
C955 C953 1.419 . S
C955 C956 1.363 . S
C955 H958 0.929 . S
C956 C955 1.363 . S
C956 C962 1.428 . S
H957 C953 0.930 . S
H958 C955 0.929 . S
S959 N960 1.613 . S
S959 N961 1.610 . S
N960 S959 1.613 . S
N960 C963 1.350 . S
N961 S959 1.610 . S
N961 C962 1.351 . S
C962 C956 1.428 . S
C962 N961 1.351 . S
C962 C963 1.434 . S
C963 C954 1.429 . S
C963 N960 1.350 . S
C963 C962 1.434 . S
C964 C965 1.369 . S
C964 C966 1.419 . S
C964 H968 0.930 . S
C965 C964 1.369 . S
C965 C974 1.429 . S
C966 C964 1.419 . S
C966 C967 1.363 . S
C966 H969 0.929 . S
C967 C966 1.363 . S
C967 C973 1.428 . S
H968 C964 0.930 . S
H969 C966 0.929 . S
S970 N971 1.613 . S
S970 N972 1.610 . S
N971 S970 1.613 . S
N971 C974 1.350 . S
N972 S970 1.610 . S
N972 C973 1.351 . S
C973 C967 1.428 . S
C973 N972 1.351 . S
C973 C974 1.434 . S
C974 C965 1.429 . S
C974 N971 1.350 . S
C974 C973 1.434 . S
C975 C976 1.369 . S
C975 C977 1.419 . S
C975 H979 0.930 . S
C976 C975 1.369 . S
C976 C985 1.429 . S
C977 C975 1.419 . S
C977 C978 1.363 . S
C977 H980 0.929 . S
C978 C977 1.363 . S
C978 C984 1.428 . S
H979 C975 0.930 . S
H980 C977 0.929 . S
S981 N982 1.613 . S
S981 N983 1.610 . S
N982 S981 1.613 . S
N982 C985 1.350 . S
N983 S981 1.610 . S
N983 C984 1.351 . S
C984 C978 1.428 . S
C984 N983 1.351 . S
C984 C985 1.434 . S
C985 C976 1.429 . S
C985 N982 1.350 . S
C985 C984 1.434 . S
C986 C987 1.369 . S
C986 C988 1.419 1_556 S
C986 H990 0.930 . S
C987 C986 1.369 . S
C987 C996 1.429 . S
C988 C986 1.419 1_554 S
C988 C989 1.363 1_554 S
C988 H991 0.929 . S
C989 C988 1.363 1_556 S
C989 C995 1.428 . S
H990 C986 0.930 . S
H991 C988 0.929 . S
S992 N993 1.613 . S
S992 N994 1.610 . S
N993 S992 1.613 . S
N993 C996 1.350 . S
N994 S992 1.610 . S
N994 C995 1.351 . S
C995 C989 1.428 . S
C995 N994 1.351 . S
C995 C996 1.434 . S
C996 C987 1.429 . S
C996 N993 1.350 . S
C996 C995 1.434 . S
C997 C998 1.369 . S
C997 C999 1.419 . S
C997 H1001 0.930 . S
C998 C997 1.369 . S
C998 C1007 1.429 . S
C999 C997 1.419 . S
C999 C1000 1.363 . S
C999 H1002 0.929 . S
C1000 C999 1.363 . S
C1000 C1006 1.428 . S
H1001 C997 0.930 . S
H1002 C999 0.929 . S
S1003 N1004 1.613 . S
S1003 N1005 1.610 . S
N1004 S1003 1.613 . S
N1004 C1007 1.350 . S
N1005 S1003 1.610 . S
N1005 C1006 1.351 . S
C1006 C1000 1.428 . S
C1006 N1005 1.351 . S
C1006 C1007 1.434 . S
C1007 C998 1.429 . S
C1007 N1004 1.350 . S
C1007 C1006 1.434 . S
C1008 C1009 1.369 . S
C1008 C1010 1.419 . S
C1008 H1012 0.930 . S
C1009 C1008 1.369 . S
C1009 C1018 1.429 . S
C1010 C1008 1.419 . S
C1010 C1011 1.363 . S
C1010 H1013 0.929 1_545 S
C1011 C1010 1.363 . S
C1011 C1017 1.428 . S
H1012 C1008 0.930 . S
H1013 C1010 0.929 1_565 S
S1014 N1015 1.613 . S
S1014 N1016 1.610 . S
N1015 S1014 1.613 . S
N1015 C1018 1.350 . S
N1016 S1014 1.610 . S
N1016 C1017 1.351 . S
C1017 C1011 1.428 . S
C1017 N1016 1.351 . S
C1017 C1018 1.434 . S
C1018 C1009 1.429 . S
C1018 N1015 1.350 . S
C1018 C1017 1.434 . S
C1019 C1020 1.369 . S
C1019 C1021 1.419 . S
C1019 H1023 0.930 . S
C1020 C1019 1.369 . S
C1020 C1029 1.429 . S
C1021 C1019 1.419 . S
C1021 C1022 1.363 . S
C1021 H1024 0.929 . S
C1022 C1021 1.363 . S
C1022 C1028 1.428 . S
H1023 C1019 0.930 . S
H1024 C1021 0.929 . S
S1025 N1026 1.613 . S
S1025 N1027 1.610 . S
N1026 S1025 1.613 . S
N1026 C1029 1.350 . S
N1027 S1025 1.610 . S
N1027 C1028 1.351 . S
C1028 C1022 1.428 . S
C1028 N1027 1.351 . S
C1028 C1029 1.434 . S
C1029 C1020 1.429 . S
C1029 N1026 1.350 . S
C1029 C1028 1.434 . S
C1030 C1031 1.369 . S
C1030 C1032 1.419 . S
C1030 H1034 0.930 . S
C1031 C1030 1.369 . S
C1031 C1040 1.429 . S
C1032 C1030 1.419 . S
C1032 C1033 1.363 . S
C1032 H1035 0.929 . S
C1033 C1032 1.363 . S
C1033 C1039 1.428 . S
H1034 C1030 0.930 . S
H1035 C1032 0.929 . S
S1036 N1037 1.613 . S
S1036 N1038 1.610 . S
N1037 S1036 1.613 . S
N1037 C1040 1.350 . S
N1038 S1036 1.610 . S
N1038 C1039 1.351 . S
C1039 C1033 1.428 . S
C1039 N1038 1.351 . S
C1039 C1040 1.434 . S
C1040 C1031 1.429 . S
C1040 N1037 1.350 . S
C1040 C1039 1.434 . S
C1041 C1042 1.369 . S
C1041 C1043 1.419 . S
C1041 H1045 0.930 . S
C1042 C1041 1.369 . S
C1042 C1051 1.429 . S
C1043 C1041 1.419 . S
C1043 C1044 1.363 . S
C1043 H1046 0.929 . S
C1044 C1043 1.363 . S
C1044 C1050 1.428 . S
H1045 C1041 0.930 . S
H1046 C1043 0.929 . S
S1047 N1048 1.613 . S
S1047 N1049 1.610 . S
N1048 S1047 1.613 . S
N1048 C1051 1.350 . S
N1049 S1047 1.610 . S
N1049 C1050 1.351 . S
C1050 C1044 1.428 . S
C1050 N1049 1.351 . S
C1050 C1051 1.434 . S
C1051 C1042 1.429 . S
C1051 N1048 1.350 . S
C1051 C1050 1.434 . S
C1052 C1053 1.369 . S
C1052 C1054 1.419 . S
C1052 H1056 0.930 . S
C1053 C1052 1.369 . S
C1053 C1062 1.429 1_545 S
C1054 C1052 1.419 . S
C1054 C1055 1.363 . S
C1054 H1057 0.929 . S
C1055 C1054 1.363 . S
C1055 C1061 1.428 1_545 S
H1056 C1052 0.930 . S
H1057 C1054 0.929 . S
S1058 N1059 1.613 . S
S1058 N1060 1.610 . S
N1059 S1058 1.613 . S
N1059 C1062 1.350 . S
N1060 S1058 1.610 . S
N1060 C1061 1.351 . S
C1061 C1055 1.428 1_565 S
C1061 N1060 1.351 . S
C1061 C1062 1.434 . S
C1062 C1053 1.429 1_565 S
C1062 N1059 1.350 . S
C1062 C1061 1.434 . S
C1063 C1064 1.369 . S
C1063 C1065 1.419 . S
C1063 H1067 0.930 . S
C1064 C1063 1.369 . S
C1064 C1073 1.429 . S
C1065 C1063 1.419 . S
C1065 C1066 1.363 . S
C1065 H1068 0.929 . S
C1066 C1065 1.363 . S
C1066 C1072 1.428 . S
H1067 C1063 0.930 . S
H1068 C1065 0.929 . S
S1069 N1070 1.613 . S
S1069 N1071 1.610 . S
N1070 S1069 1.613 . S
N1070 C1073 1.350 . S
N1071 S1069 1.610 . S
N1071 C1072 1.351 . S
C1072 C1066 1.428 . S
C1072 N1071 1.351 . S
C1072 C1073 1.434 . S
C1073 C1064 1.429 . S
C1073 N1070 1.350 . S
C1073 C1072 1.434 . S
C1074 C1075 1.369 . S
C1074 C1076 1.419 . S
C1074 H1078 0.930 . S
C1075 C1074 1.369 . S
C1075 C1084 1.429 . S
C1076 C1074 1.419 . S
C1076 C1077 1.365 . S
C1076 H1079 0.929 . S
C1077 C1076 1.365 . S
C1077 C1083 1.429 1_545 S
H1078 C1074 0.930 . S
H1079 C1076 0.929 . S
S1080 N1081 1.620 . S
S1080 N1082 1.610 . S
N1081 S1080 1.620 . S
N1081 C1084 1.350 1_565 S
N1082 S1080 1.610 . S
N1082 C1083 1.351 . S
C1083 C1077 1.429 1_565 S
C1083 N1082 1.351 . S
C1083 C1084 1.434 1_565 S
C1084 C1075 1.429 . S
C1084 N1081 1.350 1_545 S
C1084 C1083 1.434 1_545 S
C1085 C1086 1.369 . S
C1085 C1087 1.419 . S
C1085 H1089 0.930 . S
C1086 C1085 1.369 . S
C1086 C1095 1.429 . S
C1087 C1085 1.419 . S
C1087 C1088 1.363 . S
C1087 H1090 0.929 . S
C1088 C1087 1.363 . S
C1088 C1094 1.428 . S
H1089 C1085 0.930 . S
H1090 C1087 0.929 . S
S1091 N1092 1.613 . S
S1091 N1093 1.610 . S
N1092 S1091 1.613 . S
N1092 C1095 1.350 . S
N1093 S1091 1.610 . S
N1093 C1094 1.351 . S
C1094 C1088 1.428 . S
C1094 N1093 1.351 . S
C1094 C1095 1.434 . S
C1095 C1086 1.429 . S
C1095 N1092 1.350 . S
C1095 C1094 1.434 . S
C1096 C1097 1.369 . S
C1096 C1098 1.419 . S
C1096 H1100 0.930 . S
C1097 C1096 1.369 . S
C1097 C1106 1.429 . S
C1098 C1096 1.419 . S
C1098 C1099 1.363 . S
C1098 H1101 0.929 . S
C1099 C1098 1.363 . S
C1099 C1105 1.428 . S
H1100 C1096 0.930 . S
H1101 C1098 0.929 . S
S1102 N1103 1.613 1_556 S
S1102 N1104 1.610 . S
N1103 S1102 1.613 1_554 S
N1103 C1106 1.350 . S
N1104 S1102 1.610 . S
N1104 C1105 1.351 1_556 S
C1105 C1099 1.428 . S
C1105 N1104 1.351 1_554 S
C1105 C1106 1.434 . S
C1106 C1097 1.429 . S
C1106 N1103 1.350 . S
C1106 C1105 1.434 . S
C1107 C1108 1.369 . S
C1107 C1109 1.419 . S
C1107 H1111 0.930 . S
C1108 C1107 1.369 . S
C1108 C1117 1.429 . S
C1109 C1107 1.419 . S
C1109 C1110 1.363 . S
C1109 H1112 0.929 . S
C1110 C1109 1.363 . S
C1110 C1116 1.428 . S
H1111 C1107 0.930 . S
H1112 C1109 0.929 . S
S1113 N1114 1.613 . S
S1113 N1115 1.610 . S
N1114 S1113 1.613 . S
N1114 C1117 1.350 . S
N1115 S1113 1.610 . S
N1115 C1116 1.351 . S
C1116 C1110 1.428 . S
C1116 N1115 1.351 . S
C1116 C1117 1.434 . S
C1117 C1108 1.429 . S
C1117 N1114 1.350 . S
C1117 C1116 1.434 . S
C1118 C1119 1.369 . S
C1118 C1120 1.419 . S
C1118 H1122 0.930 . S
C1119 C1118 1.369 . S
C1119 C1128 1.429 . S
C1120 C1118 1.419 . S
C1120 C1121 1.363 . S
C1120 H1123 0.929 . S
C1121 C1120 1.363 . S
C1121 C1127 1.428 . S
H1122 C1118 0.930 . S
H1123 C1120 0.929 . S
S1124 N1125 1.613 . S
S1124 N1126 1.610 . S
N1125 S1124 1.613 . S
N1125 C1128 1.350 . S
N1126 S1124 1.610 . S
N1126 C1127 1.351 . S
C1127 C1121 1.428 . S
C1127 N1126 1.351 . S
C1127 C1128 1.434 . S
C1128 C1119 1.429 . S
C1128 N1125 1.350 . S
C1128 C1127 1.434 . S
C1129 C1130 1.369 . S
C1129 C1131 1.419 . S
C1129 H1133 0.930 . S
C1130 C1129 1.369 . S
C1130 C1139 1.429 . S
C1131 C1129 1.419 . S
C1131 C1132 1.363 . S
C1131 H1134 0.929 . S
C1132 C1131 1.363 . S
C1132 C1138 1.428 . S
H1133 C1129 0.930 . S
H1134 C1131 0.929 . S
S1135 N1136 1.613 . S
S1135 N1137 1.610 . S
N1136 S1135 1.613 . S
N1136 C1139 1.350 . S
N1137 S1135 1.610 . S
N1137 C1138 1.351 . S
C1138 C1132 1.428 . S
C1138 N1137 1.351 . S
C1138 C1139 1.434 . S
C1139 C1130 1.429 . S
C1139 N1136 1.350 . S
C1139 C1138 1.434 . S
C1140 C1141 1.369 . S
C1140 C1142 1.419 . S
C1140 H1144 0.930 . S
C1141 C1140 1.369 . S
C1141 C1150 1.429 . S
C1142 C1140 1.419 . S
C1142 C1143 1.363 . S
C1142 H1145 0.929 . S
C1143 C1142 1.363 . S
C1143 C1149 1.428 . S
H1144 C1140 0.930 . S
H1145 C1142 0.929 . S
S1146 N1147 1.613 . S
S1146 N1148 1.610 . S
N1147 S1146 1.613 . S
N1147 C1150 1.350 . S
N1148 S1146 1.610 . S
N1148 C1149 1.351 . S
C1149 C1143 1.428 . S
C1149 N1148 1.351 . S
C1149 C1150 1.434 . S
C1150 C1141 1.429 . S
C1150 N1147 1.350 . S
C1150 C1149 1.434 . S
C1151 C1152 1.369 . S
C1151 C1153 1.419 . S
C1151 H1155 0.930 . S
C1152 C1151 1.369 . S
C1152 C1161 1.429 . S
C1153 C1151 1.419 . S
C1153 C1154 1.363 . S
C1153 H1156 0.929 . S
C1154 C1153 1.363 . S
C1154 C1160 1.428 . S
H1155 C1151 0.930 . S
H1156 C1153 0.929 . S
S1157 N1158 1.613 . S
S1157 N1159 1.610 . S
N1158 S1157 1.613 . S
N1158 C1161 1.350 . S
N1159 S1157 1.610 . S
N1159 C1160 1.351 . S
C1160 C1154 1.428 . S
C1160 N1159 1.351 . S
C1160 C1161 1.434 . S
C1161 C1152 1.429 . S
C1161 N1158 1.350 . S
C1161 C1160 1.434 . S
C1162 C1163 1.369 . S
C1162 C1164 1.419 . S
C1162 H1166 0.930 . S
C1163 C1162 1.369 . S
C1163 C1172 1.429 . S
C1164 C1162 1.419 . S
C1164 C1165 1.363 . S
C1164 H1167 0.929 . S
C1165 C1164 1.363 . S
C1165 C1171 1.428 . S
H1166 C1162 0.930 . S
H1167 C1164 0.929 . S
S1168 N1169 1.613 . S
S1168 N1170 1.610 . S
N1169 S1168 1.613 . S
N1169 C1172 1.350 . S
N1170 S1168 1.610 . S
N1170 C1171 1.351 . S
C1171 C1165 1.428 . S
C1171 N1170 1.351 . S
C1171 C1172 1.434 . S
C1172 C1163 1.429 . S
C1172 N1169 1.350 . S
C1172 C1171 1.434 . S
C1173 C1174 1.369 . S
C1173 C1175 1.419 . S
C1173 H1177 0.930 . S
C1174 C1173 1.369 . S
C1174 C1183 1.429 . S
C1175 C1173 1.419 . S
C1175 C1176 1.363 . S
C1175 H1178 0.929 . S
C1176 C1175 1.363 . S
C1176 C1182 1.428 . S
H1177 C1173 0.930 . S
H1178 C1175 0.929 . S
S1179 N1180 1.613 . S
S1179 N1181 1.610 . S
N1180 S1179 1.613 . S
N1180 C1183 1.350 . S
N1181 S1179 1.610 . S
N1181 C1182 1.351 . S
C1182 C1176 1.428 . S
C1182 N1181 1.351 . S
C1182 C1183 1.434 . S
C1183 C1174 1.429 . S
C1183 N1180 1.350 . S
C1183 C1182 1.434 . S
C1184 C1185 1.369 . S
C1184 C1186 1.419 . S
C1184 H1188 0.930 . S
C1185 C1184 1.369 . S
C1185 C1194 1.429 . S
C1186 C1184 1.419 . S
C1186 C1187 1.363 . S
C1186 H1189 0.929 . S
C1187 C1186 1.363 . S
C1187 C1193 1.428 . S
H1188 C1184 0.930 . S
H1189 C1186 0.929 . S
S1190 N1191 1.613 . S
S1190 N1192 1.610 . S
N1191 S1190 1.613 . S
N1191 C1194 1.350 . S
N1192 S1190 1.610 . S
N1192 C1193 1.351 . S
C1193 C1187 1.428 . S
C1193 N1192 1.351 . S
C1193 C1194 1.434 . S
C1194 C1185 1.429 . S
C1194 N1191 1.350 . S
C1194 C1193 1.434 . S
C1195 C1196 1.369 . S
C1195 C1197 1.419 . S
C1195 H1199 0.930 . S
C1196 C1195 1.369 . S
C1196 C1205 1.429 . S
C1197 C1195 1.419 . S
C1197 C1198 1.363 . S
C1197 H1200 0.929 . S
C1198 C1197 1.363 . S
C1198 C1204 1.428 . S
H1199 C1195 0.930 . S
H1200 C1197 0.929 . S
S1201 N1202 1.613 . S
S1201 N1203 1.610 . S
N1202 S1201 1.613 . S
N1202 C1205 1.350 . S
N1203 S1201 1.610 . S
N1203 C1204 1.351 . S
C1204 C1198 1.428 . S
C1204 N1203 1.351 . S
C1204 C1205 1.434 . S
C1205 C1196 1.429 . S
C1205 N1202 1.350 . S
C1205 C1204 1.434 . S
C1206 C1207 1.369 . S
C1206 C1208 1.419 . S
C1206 H1210 0.930 . S
C1207 C1206 1.369 . S
C1207 C1216 1.429 1_455 S
C1208 C1206 1.419 . S
C1208 C1209 1.363 . S
C1208 H1211 0.929 . S
C1209 C1208 1.363 . S
C1209 C1215 1.428 1_455 S
H1210 C1206 0.930 . S
H1211 C1208 0.929 . S
S1212 N1213 1.613 1_554 S
S1212 N1214 1.610 . S
N1213 S1212 1.613 1_556 S
N1213 C1216 1.350 . S
N1214 S1212 1.610 . S
N1214 C1215 1.351 1_554 S
C1215 C1209 1.428 1_655 S
C1215 N1214 1.351 1_556 S
C1215 C1216 1.434 . S
C1216 C1207 1.429 1_655 S
C1216 N1213 1.350 . S
C1216 C1215 1.434 . S
C1217 C1218 1.369 . S
C1217 C1219 1.419 . S
C1217 H1221 0.930 . S
C1218 C1217 1.369 . S
C1218 C1227 1.429 . S
C1219 C1217 1.419 . S
C1219 C1220 1.363 . S
C1219 H1222 0.929 . S
C1220 C1219 1.363 . S
C1220 C1226 1.428 . S
H1221 C1217 0.930 . S
H1222 C1219 0.929 . S
S1223 N1224 1.613 . S
S1223 N1225 1.610 . S
N1224 S1223 1.613 . S
N1224 C1227 1.350 . S
N1225 S1223 1.610 . S
N1225 C1226 1.351 . S
C1226 C1220 1.428 . S
C1226 N1225 1.351 . S
C1226 C1227 1.434 . S
C1227 C1218 1.429 . S
C1227 N1224 1.350 . S
C1227 C1226 1.434 . S
C1228 C1229 1.369 . S
C1228 C1230 1.419 . S
C1228 H1232 0.930 . S
C1229 C1228 1.369 . S
C1229 C1238 1.429 . S
C1230 C1228 1.419 . S
C1230 C1231 1.363 . S
C1230 H1233 0.929 . S
C1231 C1230 1.363 . S
C1231 C1237 1.428 . S
H1232 C1228 0.930 . S
H1233 C1230 0.929 . S
S1234 N1235 1.613 . S
S1234 N1236 1.610 . S
N1235 S1234 1.613 . S
N1235 C1238 1.350 . S
N1236 S1234 1.610 . S
N1236 C1237 1.351 . S
C1237 C1231 1.428 . S
C1237 N1236 1.351 . S
C1237 C1238 1.434 . S
C1238 C1229 1.429 . S
C1238 N1235 1.350 . S
C1238 C1237 1.434 . S
C1239 C1240 1.369 . S
C1239 C1241 1.419 . S
C1239 H1243 0.930 . S
C1240 C1239 1.369 . S
C1240 C1249 1.429 . S
C1241 C1239 1.419 . S
C1241 C1242 1.363 . S
C1241 H1244 0.929 . S
C1242 C1241 1.363 . S
C1242 C1248 1.428 . S
H1243 C1239 0.930 . S
H1244 C1241 0.929 . S
S1245 N1246 1.613 . S
S1245 N1247 1.610 . S
N1246 S1245 1.613 . S
N1246 C1249 1.350 . S
N1247 S1245 1.610 . S
N1247 C1248 1.351 . S
C1248 C1242 1.428 . S
C1248 N1247 1.351 . S
C1248 C1249 1.434 . S
C1249 C1240 1.429 . S
C1249 N1246 1.350 . S
C1249 C1248 1.434 . S
C1250 C1251 1.369 1_655 S
C1250 C1252 1.419 . S
C1250 H1254 0.930 . S
C1251 C1250 1.369 1_455 S
C1251 C1260 1.429 . S
C1252 C1250 1.419 . S
C1252 C1253 1.363 1_655 S
C1252 H1255 0.929 . S
C1253 C1252 1.363 1_455 S
C1253 C1259 1.428 . S
H1254 C1250 0.930 . S
H1255 C1252 0.929 . S
S1256 N1257 1.613 . S
S1256 N1258 1.610 . S
N1257 S1256 1.613 . S
N1257 C1260 1.350 . S
N1258 S1256 1.610 . S
N1258 C1259 1.351 . S
C1259 C1253 1.428 . S
C1259 N1258 1.351 . S
C1259 C1260 1.434 . S
C1260 C1251 1.429 . S
C1260 N1257 1.350 . S
C1260 C1259 1.434 . S
C1261 C1262 1.369 . S
C1261 C1263 1.419 . S
C1261 H1265 0.930 . S
C1262 C1261 1.369 . S
C1262 C1271 1.429 . S
C1263 C1261 1.419 . S
C1263 C1264 1.363 . S
C1263 H1266 0.929 . S
C1264 C1263 1.363 . S
C1264 C1270 1.428 . S
H1265 C1261 0.930 . S
H1266 C1263 0.929 . S
S1267 N1268 1.613 . S
S1267 N1269 1.610 . S
N1268 S1267 1.613 . S
N1268 C1271 1.350 . S
N1269 S1267 1.610 . S
N1269 C1270 1.351 . S
C1270 C1264 1.428 . S
C1270 N1269 1.351 . S
C1270 C1271 1.434 . S
C1271 C1262 1.429 . S
C1271 N1268 1.350 . S
C1271 C1270 1.434 . S
C1272 C1273 1.369 . S
C1272 C1274 1.419 . S
C1272 H1276 0.930 . S
C1273 C1272 1.369 . S
C1273 C1282 1.429 . S
C1274 C1272 1.419 . S
C1274 C1275 1.363 . S
C1274 H1277 0.929 . S
C1275 C1274 1.363 . S
C1275 C1281 1.428 . S
H1276 C1272 0.930 . S
H1277 C1274 0.929 . S
S1278 N1279 1.613 . S
S1278 N1280 1.610 . S
N1279 S1278 1.613 . S
N1279 C1282 1.350 . S
N1280 S1278 1.610 . S
N1280 C1281 1.351 . S
C1281 C1275 1.428 . S
C1281 N1280 1.351 . S
C1281 C1282 1.434 . S
C1282 C1273 1.429 . S
C1282 N1279 1.350 . S
C1282 C1281 1.434 . S
C1283 C1284 1.369 . S
C1283 C1285 1.419 . S
C1283 H1287 0.930 . S
C1284 C1283 1.369 . S
C1284 C1293 1.429 . S
C1285 C1283 1.419 . S
C1285 C1286 1.363 . S
C1285 H1288 0.929 . S
C1286 C1285 1.363 . S
C1286 C1292 1.428 . S
H1287 C1283 0.930 . S
H1288 C1285 0.929 . S
S1289 N1290 1.613 . S
S1289 N1291 1.610 . S
N1290 S1289 1.613 . S
N1290 C1293 1.350 . S
N1291 S1289 1.610 . S
N1291 C1292 1.351 . S
C1292 C1286 1.428 . S
C1292 N1291 1.351 . S
C1292 C1293 1.434 . S
C1293 C1284 1.429 . S
C1293 N1290 1.350 . S
C1293 C1292 1.434 . S
C1294 C1295 1.369 . S
C1294 C1296 1.419 . S
C1294 H1298 0.930 . S
C1295 C1294 1.369 . S
C1295 C1304 1.429 . S
C1296 C1294 1.419 . S
C1296 C1297 1.363 . S
C1296 H1299 0.929 . S
C1297 C1296 1.363 . S
C1297 C1303 1.428 . S
H1298 C1294 0.930 . S
H1299 C1296 0.929 . S
S1300 N1301 1.613 . S
S1300 N1302 1.610 . S
N1301 S1300 1.613 . S
N1301 C1304 1.350 . S
N1302 S1300 1.610 . S
N1302 C1303 1.351 . S
C1303 C1297 1.428 . S
C1303 N1302 1.351 . S
C1303 C1304 1.434 . S
C1304 C1295 1.429 . S
C1304 N1301 1.350 . S
C1304 C1303 1.434 . S
C1305 C1306 1.369 . S
C1305 C1307 1.419 . S
C1305 H1309 0.930 . S
C1306 C1305 1.369 . S
C1306 C1315 1.429 . S
C1307 C1305 1.419 . S
C1307 C1308 1.363 . S
C1307 H1310 0.929 . S
C1308 C1307 1.363 . S
C1308 C1314 1.428 . S
H1309 C1305 0.930 . S
H1310 C1307 0.929 . S
S1311 N1312 1.613 . S
S1311 N1313 1.610 . S
N1312 S1311 1.613 . S
N1312 C1315 1.350 . S
N1313 S1311 1.610 . S
N1313 C1314 1.351 . S
C1314 C1308 1.428 . S
C1314 N1313 1.351 . S
C1314 C1315 1.434 . S
C1315 C1306 1.429 . S
C1315 N1312 1.350 . S
C1315 C1314 1.434 . S
C1316 C1317 1.369 . S
C1316 C1318 1.419 . S
C1316 H1320 0.930 . S
C1317 C1316 1.369 . S
C1317 C1326 1.429 . S
C1318 C1316 1.419 . S
C1318 C1319 1.363 . S
C1318 H1321 0.929 . S
C1319 C1318 1.363 . S
C1319 C1325 1.428 . S
H1320 C1316 0.930 . S
H1321 C1318 0.929 . S
S1322 N1323 1.613 . S
S1322 N1324 1.610 . S
N1323 S1322 1.613 . S
N1323 C1326 1.350 . S
N1324 S1322 1.610 . S
N1324 C1325 1.351 . S
C1325 C1319 1.428 . S
C1325 N1324 1.351 . S
C1325 C1326 1.434 . S
C1326 C1317 1.429 . S
C1326 N1323 1.350 . S
C1326 C1325 1.434 . S
C1327 C1328 1.369 . S
C1327 C1329 1.419 . S
C1327 H1331 0.930 . S
C1328 C1327 1.369 . S
C1328 C1337 1.429 . S
C1329 C1327 1.419 . S
C1329 C1330 1.363 . S
C1329 H1332 0.929 . S
C1330 C1329 1.363 . S
C1330 C1336 1.428 . S
H1331 C1327 0.930 . S
H1332 C1329 0.929 . S
S1333 N1334 1.613 . S
S1333 N1335 1.610 . S
N1334 S1333 1.613 . S
N1334 C1337 1.350 . S
N1335 S1333 1.610 . S
N1335 C1336 1.351 . S
C1336 C1330 1.428 . S
C1336 N1335 1.351 . S
C1336 C1337 1.434 . S
C1337 C1328 1.429 . S
C1337 N1334 1.350 . S
C1337 C1336 1.434 . S
C1338 C1339 1.369 . S
C1338 C1340 1.419 . S
C1338 H1342 0.930 . S
C1339 C1338 1.369 . S
C1339 C1348 1.429 . S
C1340 C1338 1.419 . S
C1340 C1341 1.363 . S
C1340 H1343 0.929 . S
C1341 C1340 1.363 . S
C1341 C1347 1.428 . S
H1342 C1338 0.930 . S
H1343 C1340 0.929 . S
S1344 N1345 1.613 . S
S1344 N1346 1.610 . S
N1345 S1344 1.613 . S
N1345 C1348 1.350 . S
N1346 S1344 1.610 . S
N1346 C1347 1.351 . S
C1347 C1341 1.428 . S
C1347 N1346 1.351 . S
C1347 C1348 1.434 . S
C1348 C1339 1.429 . S
C1348 N1345 1.350 . S
C1348 C1347 1.434 . S
C1349 C1350 1.369 . S
C1349 C1351 1.419 . S
C1349 H1353 0.930 . S
C1350 C1349 1.369 . S
C1350 C1359 1.429 . S
C1351 C1349 1.419 . S
C1351 C1352 1.363 . S
C1351 H1354 0.929 . S
C1352 C1351 1.363 . S
C1352 C1358 1.428 . S
H1353 C1349 0.930 . S
H1354 C1351 0.929 . S
S1355 N1356 1.613 . S
S1355 N1357 1.610 . S
N1356 S1355 1.613 . S
N1356 C1359 1.350 . S
N1357 S1355 1.610 . S
N1357 C1358 1.351 . S
C1358 C1352 1.428 . S
C1358 N1357 1.351 . S
C1358 C1359 1.434 . S
C1359 C1350 1.429 . S
C1359 N1356 1.350 . S
C1359 C1358 1.434 . S
C1360 C1361 1.369 . S
C1360 C1362 1.419 . S
C1360 H1364 0.930 . S
C1361 C1360 1.369 . S
C1361 C1370 1.429 . S
C1362 C1360 1.419 . S
C1362 C1363 1.363 . S
C1362 H1365 0.929 . S
C1363 C1362 1.363 . S
C1363 C1369 1.428 . S
H1364 C1360 0.930 . S
H1365 C1362 0.929 . S
S1366 N1367 1.613 . S
S1366 N1368 1.610 . S
N1367 S1366 1.613 . S
N1367 C1370 1.350 . S
N1368 S1366 1.610 . S
N1368 C1369 1.351 . S
C1369 C1363 1.428 . S
C1369 N1368 1.351 . S
C1369 C1370 1.434 . S
C1370 C1361 1.429 . S
C1370 N1367 1.350 . S
C1370 C1369 1.434 . S
C1371 C1372 1.369 . S
C1371 C1373 1.419 . S
C1371 H1375 0.930 . S
C1372 C1371 1.369 . S
C1372 C1381 1.429 . S
C1373 C1371 1.419 . S
C1373 C1374 1.363 . S
C1373 H1376 0.929 . S
C1374 C1373 1.363 . S
C1374 C1380 1.428 . S
H1375 C1371 0.930 . S
H1376 C1373 0.929 . S
S1377 N1378 1.613 . S
S1377 N1379 1.610 . S
N1378 S1377 1.613 . S
N1378 C1381 1.350 . S
N1379 S1377 1.610 . S
N1379 C1380 1.351 . S
C1380 C1374 1.428 . S
C1380 N1379 1.351 . S
C1380 C1381 1.434 . S
C1381 C1372 1.429 . S
C1381 N1378 1.350 . S
C1381 C1380 1.434 . S
C1382 C1383 1.369 . S
C1382 C1384 1.419 . S
C1382 H1386 0.930 . S
C1383 C1382 1.369 . S
C1383 C1392 1.429 . S
C1384 C1382 1.419 . S
C1384 C1385 1.363 . S
C1384 H1387 0.929 . S
C1385 C1384 1.363 . S
C1385 C1391 1.428 . S
H1386 C1382 0.930 . S
H1387 C1384 0.929 . S
S1388 N1389 1.613 . S
S1388 N1390 1.610 . S
N1389 S1388 1.613 . S
N1389 C1392 1.350 . S
N1390 S1388 1.610 . S
N1390 C1391 1.351 . S
C1391 C1385 1.428 . S
C1391 N1390 1.351 . S
C1391 C1392 1.434 . S
C1392 C1383 1.429 . S
C1392 N1389 1.350 . S
C1392 C1391 1.434 . S
C1393 C1394 1.369 1_556 S
C1393 C1395 1.419 . S
C1393 H1397 0.930 . S
C1394 C1393 1.369 1_554 S
C1394 C1403 1.429 . S
C1395 C1393 1.419 . S
C1395 C1396 1.363 1_556 S
C1395 H1398 0.929 . S
C1396 C1395 1.363 1_554 S
C1396 C1402 1.428 . S
H1397 C1393 0.930 . S
H1398 C1395 0.929 . S
S1399 N1400 1.613 . S
S1399 N1401 1.610 . S
N1400 S1399 1.613 . S
N1400 C1403 1.350 . S
N1401 S1399 1.610 . S
N1401 C1402 1.351 . S
C1402 C1396 1.428 . S
C1402 N1401 1.351 . S
C1402 C1403 1.434 . S
C1403 C1394 1.429 . S
C1403 N1400 1.350 . S
C1403 C1402 1.434 . S
C1404 C1405 1.369 . S
C1404 C1406 1.419 . S
C1404 H1408 0.930 . S
C1405 C1404 1.369 . S
C1405 C1414 1.429 . S
C1406 C1404 1.419 . S
C1406 C1407 1.363 . S
C1406 H1409 0.929 . S
C1407 C1406 1.363 . S
C1407 C1413 1.428 . S
H1408 C1404 0.930 . S
H1409 C1406 0.929 . S
S1410 N1411 1.613 . S
S1410 N1412 1.610 . S
N1411 S1410 1.613 . S
N1411 C1414 1.350 . S
N1412 S1410 1.610 . S
N1412 C1413 1.351 . S
C1413 C1407 1.428 . S
C1413 N1412 1.351 . S
C1413 C1414 1.434 . S
C1414 C1405 1.429 . S
C1414 N1411 1.350 . S
C1414 C1413 1.434 . S
C1415 C1416 1.369 . S
C1415 C1417 1.419 . S
C1415 H1419 0.930 . S
C1416 C1415 1.369 . S
C1416 C1425 1.429 1_554 S
C1417 C1415 1.419 . S
C1417 C1418 1.363 . S
C1417 H1420 0.929 . S
C1418 C1417 1.363 . S
C1418 C1424 1.428 . S
H1419 C1415 0.930 . S
H1420 C1417 0.929 . S
S1421 N1422 1.613 . S
S1421 N1423 1.610 . S
N1422 S1421 1.613 . S
N1422 C1425 1.350 . S
N1423 S1421 1.610 . S
N1423 C1424 1.351 1_556 S
C1424 C1418 1.428 . S
C1424 N1423 1.351 1_554 S
C1424 C1425 1.434 1_554 S
C1425 C1416 1.429 1_556 S
C1425 N1422 1.350 . S
C1425 C1424 1.434 1_556 S
C1426 C1427 1.369 . S
C1426 C1428 1.419 . S
C1426 H1430 0.930 . S
C1427 C1426 1.369 . S
C1427 C1436 1.429 . S
C1428 C1426 1.419 . S
C1428 C1429 1.363 . S
C1428 H1431 0.929 . S
C1429 C1428 1.363 . S
C1429 C1435 1.428 . S
H1430 C1426 0.930 . S
H1431 C1428 0.929 . S
S1432 N1433 1.613 . S
S1432 N1434 1.610 . S
N1433 S1432 1.613 . S
N1433 C1436 1.350 . S
N1434 S1432 1.610 . S
N1434 C1435 1.351 . S
C1435 C1429 1.428 . S
C1435 N1434 1.351 . S
C1435 C1436 1.434 . S
C1436 C1427 1.429 . S
C1436 N1433 1.350 . S
C1436 C1435 1.434 . S
C1437 C1438 1.369 . S
C1437 C1439 1.419 . S
C1437 H1441 0.930 . S
C1438 C1437 1.369 . S
C1438 C1447 1.429 . S
C1439 C1437 1.419 . S
C1439 C1440 1.363 . S
C1439 H1442 0.929 . S
C1440 C1439 1.363 . S
C1440 C1446 1.428 . S
H1441 C1437 0.930 . S
H1442 C1439 0.929 . S
S1443 N1444 1.613 . S
S1443 N1445 1.610 . S
N1444 S1443 1.613 . S
N1444 C1447 1.350 . S
N1445 S1443 1.610 . S
N1445 C1446 1.351 . S
C1446 C1440 1.428 . S
C1446 N1445 1.351 . S
C1446 C1447 1.434 . S
C1447 C1438 1.429 . S
C1447 N1444 1.350 . S
C1447 C1446 1.434 . S
C1448 C1449 1.369 . S
C1448 C1450 1.419 . S
C1448 H1452 0.930 . S
C1449 C1448 1.369 . S
C1449 C1458 1.429 . S
C1450 C1448 1.419 . S
C1450 C1451 1.363 . S
C1450 H1453 0.929 . S
C1451 C1450 1.363 . S
C1451 C1457 1.428 . S
H1452 C1448 0.930 . S
H1453 C1450 0.929 . S
S1454 N1455 1.613 . S
S1454 N1456 1.610 . S
N1455 S1454 1.613 . S
N1455 C1458 1.350 . S
N1456 S1454 1.610 . S
N1456 C1457 1.351 . S
C1457 C1451 1.428 . S
C1457 N1456 1.351 . S
C1457 C1458 1.434 . S
C1458 C1449 1.429 . S
C1458 N1455 1.350 . S
C1458 C1457 1.434 . S
C1459 C1460 1.369 . S
C1459 C1461 1.419 . S
C1459 H1463 0.930 . S
C1460 C1459 1.369 . S
C1460 C1469 1.429 . S
C1461 C1459 1.419 . S
C1461 C1462 1.363 . S
C1461 H1464 0.929 . S
C1462 C1461 1.363 . S
C1462 C1468 1.428 . S
H1463 C1459 0.930 . S
H1464 C1461 0.929 . S
S1465 N1466 1.613 . S
S1465 N1467 1.610 . S
N1466 S1465 1.613 . S
N1466 C1469 1.350 . S
N1467 S1465 1.610 . S
N1467 C1468 1.351 . S
C1468 C1462 1.428 . S
C1468 N1467 1.351 . S
C1468 C1469 1.434 . S
C1469 C1460 1.429 . S
C1469 N1466 1.350 . S
C1469 C1468 1.434 . S
C1470 C1471 1.369 . S
C1470 C1472 1.419 . S
C1470 H1474 0.930 . S
C1471 C1470 1.369 . S
C1471 C1480 1.429 . S
C1472 C1470 1.419 . S
C1472 C1473 1.363 . S
C1472 H1475 0.929 . S
C1473 C1472 1.363 . S
C1473 C1479 1.428 . S
H1474 C1470 0.930 . S
H1475 C1472 0.929 . S
S1476 N1477 1.613 . S
S1476 N1478 1.610 . S
N1477 S1476 1.613 . S
N1477 C1480 1.350 1_655 S
N1478 S1476 1.610 . S
N1478 C1479 1.351 1_655 S
C1479 C1473 1.428 . S
C1479 N1478 1.351 1_455 S
C1479 C1480 1.434 . S
C1480 C1471 1.429 . S
C1480 N1477 1.350 1_455 S
C1480 C1479 1.434 . S
C1481 C1482 1.369 . S
C1481 C1483 1.419 . S
C1481 H1485 0.930 . S
C1482 C1481 1.369 . S
C1482 C1491 1.429 . S
C1483 C1481 1.419 . S
C1483 C1484 1.363 . S
C1483 H1486 0.929 . S
C1484 C1483 1.363 . S
C1484 C1490 1.428 . S
H1485 C1481 0.930 . S
H1486 C1483 0.929 . S
S1487 N1488 1.613 . S
S1487 N1489 1.610 . S
N1488 S1487 1.613 . S
N1488 C1491 1.350 . S
N1489 S1487 1.610 . S
N1489 C1490 1.351 . S
C1490 C1484 1.428 . S
C1490 N1489 1.351 . S
C1490 C1491 1.434 . S
C1491 C1482 1.429 . S
C1491 N1488 1.350 . S
C1491 C1490 1.434 . S
C1492 C1493 1.369 . S
C1492 C1494 1.419 . S
C1492 H1496 0.930 . S
C1493 C1492 1.369 . S
C1493 C1502 1.429 . S
C1494 C1492 1.419 . S
C1494 C1495 1.363 . S
C1494 H1497 0.929 . S
C1495 C1494 1.363 . S
C1495 C1501 1.428 . S
H1496 C1492 0.930 . S
H1497 C1494 0.929 . S
S1498 N1499 1.620 . S
S1498 N1500 1.610 . S
N1499 S1498 1.620 . S
N1499 C1502 1.346 1_554 S
N1500 S1498 1.610 . S
N1500 C1501 1.351 1_554 S
C1501 C1495 1.428 . S
C1501 N1500 1.351 1_556 S
C1501 C1502 1.434 . S
C1502 C1493 1.429 . S
C1502 N1499 1.346 1_556 S
C1502 C1501 1.434 . S
C1503 C1504 1.369 . S
C1503 C1505 1.419 . S
C1503 H1507 0.930 . S
C1504 C1503 1.369 . S
C1504 C1513 1.429 . S
C1505 C1503 1.419 . S
C1505 C1506 1.363 . S
C1505 H1508 0.929 . S
C1506 C1505 1.363 . S
C1506 C1512 1.428 . S
H1507 C1503 0.930 . S
H1508 C1505 0.929 . S
S1509 N1510 1.613 . S
S1509 N1511 1.610 . S
N1510 S1509 1.613 . S
N1510 C1513 1.350 . S
N1511 S1509 1.610 . S
N1511 C1512 1.351 . S
C1512 C1506 1.428 . S
C1512 N1511 1.351 . S
C1512 C1513 1.434 . S
C1513 C1504 1.429 . S
C1513 N1510 1.350 . S
C1513 C1512 1.434 . S
C1514 C1515 1.369 . S
C1514 C1516 1.419 . S
C1514 H1518 0.930 1_455 S
C1515 C1514 1.369 . S
C1515 C1524 1.429 . S
C1516 C1514 1.419 . S
C1516 C1517 1.363 . S
C1516 H1519 0.929 1_455 S
C1517 C1516 1.363 . S
C1517 C1523 1.428 . S
H1518 C1514 0.930 1_655 S
H1519 C1516 0.929 1_655 S
S1520 N1521 1.613 . S
S1520 N1522 1.610 . S
N1521 S1520 1.613 . S
N1521 C1524 1.350 . S
N1522 S1520 1.610 . S
N1522 C1523 1.351 . S
C1523 C1517 1.428 . S
C1523 N1522 1.351 . S
C1523 C1524 1.434 . S
C1524 C1515 1.429 . S
C1524 N1521 1.350 . S
C1524 C1523 1.434 . S
C1525 C1526 1.369 . S
C1525 C1527 1.419 . S
C1525 H1529 0.930 . S
C1526 C1525 1.369 . S
C1526 C1535 1.429 . S
C1527 C1525 1.419 . S
C1527 C1528 1.363 . S
C1527 H1530 0.929 . S
C1528 C1527 1.363 . S
C1528 C1534 1.428 . S
H1529 C1525 0.930 . S
H1530 C1527 0.929 . S
S1531 N1532 1.613 . S
S1531 N1533 1.610 . S
N1532 S1531 1.613 . S
N1532 C1535 1.350 . S
N1533 S1531 1.610 . S
N1533 C1534 1.351 . S
C1534 C1528 1.428 . S
C1534 N1533 1.351 . S
C1534 C1535 1.434 . S
C1535 C1526 1.429 . S
C1535 N1532 1.350 . S
C1535 C1534 1.434 . S
C1536 C1537 1.369 . S
C1536 C1538 1.419 . S
C1536 H1540 0.930 . S
C1537 C1536 1.369 . S
C1537 C1546 1.429 . S
C1538 C1536 1.419 . S
C1538 C1539 1.363 . S
C1538 H1541 0.929 . S
C1539 C1538 1.363 . S
C1539 C1545 1.428 . S
H1540 C1536 0.930 . S
H1541 C1538 0.929 . S
S1542 N1543 1.613 . S
S1542 N1544 1.610 . S
N1543 S1542 1.613 . S
N1543 C1546 1.350 . S
N1544 S1542 1.610 . S
N1544 C1545 1.351 . S
C1545 C1539 1.428 . S
C1545 N1544 1.351 . S
C1545 C1546 1.434 . S
C1546 C1537 1.429 . S
C1546 N1543 1.350 . S
C1546 C1545 1.434 . S
C1547 C1548 1.369 . S
C1547 C1549 1.419 . S
C1547 H1551 0.930 . S
C1548 C1547 1.369 . S
C1548 C1557 1.429 . S
C1549 C1547 1.419 . S
C1549 C1550 1.363 . S
C1549 H1552 0.929 . S
C1550 C1549 1.363 . S
C1550 C1556 1.428 . S
H1551 C1547 0.930 . S
H1552 C1549 0.929 . S
S1553 N1554 1.613 . S
S1553 N1555 1.610 . S
N1554 S1553 1.613 . S
N1554 C1557 1.350 . S
N1555 S1553 1.610 . S
N1555 C1556 1.351 . S
C1556 C1550 1.428 . S
C1556 N1555 1.351 . S
C1556 C1557 1.434 . S
C1557 C1548 1.429 . S
C1557 N1554 1.350 . S
C1557 C1556 1.434 . S
C1558 C1559 1.369 . S
C1558 C1560 1.419 1_655 S
C1558 H1562 0.930 . S
C1559 C1558 1.369 . S
C1559 C1568 1.429 . S
C1560 C1558 1.419 1_455 S
C1560 C1561 1.363 1_455 S
C1560 H1563 0.929 . S
C1561 C1560 1.363 1_655 S
C1561 C1567 1.428 . S
H1562 C1558 0.930 . S
H1563 C1560 0.929 . S
S1564 N1565 1.613 . S
S1564 N1566 1.610 . S
N1565 S1564 1.613 . S
N1565 C1568 1.350 . S
N1566 S1564 1.610 . S
N1566 C1567 1.351 . S
C1567 C1561 1.428 . S
C1567 N1566 1.351 . S
C1567 C1568 1.434 . S
C1568 C1559 1.429 . S
C1568 N1565 1.350 . S
C1568 C1567 1.434 . S
C1569 C1570 1.369 . S
C1569 C1571 1.419 . S
C1569 H1573 0.930 . S
C1570 C1569 1.369 . S
C1570 C1579 1.429 . S
C1571 C1569 1.419 . S
C1571 C1572 1.363 . S
C1571 H1574 0.929 . S
C1572 C1571 1.363 . S
C1572 C1578 1.428 . S
H1573 C1569 0.930 . S
H1574 C1571 0.929 . S
S1575 N1576 1.613 . S
S1575 N1577 1.610 . S
N1576 S1575 1.613 . S
N1576 C1579 1.350 . S
N1577 S1575 1.610 . S
N1577 C1578 1.351 . S
C1578 C1572 1.428 . S
C1578 N1577 1.351 . S
C1578 C1579 1.434 . S
C1579 C1570 1.429 . S
C1579 N1576 1.350 . S
C1579 C1578 1.434 . S
C1580 C1581 1.369 . S
C1580 C1582 1.419 . S
C1580 H1584 0.930 . S
C1581 C1580 1.369 . S
C1581 C1590 1.429 . S
C1582 C1580 1.419 . S
C1582 C1583 1.363 . S
C1582 H1585 0.929 . S
C1583 C1582 1.363 . S
C1583 C1589 1.428 . S
H1584 C1580 0.930 . S
H1585 C1582 0.929 . S
S1586 N1587 1.613 . S
S1586 N1588 1.610 . S
N1587 S1586 1.613 . S
N1587 C1590 1.350 . S
N1588 S1586 1.610 . S
N1588 C1589 1.351 . S
C1589 C1583 1.428 . S
C1589 N1588 1.351 . S
C1589 C1590 1.434 . S
C1590 C1581 1.429 . S
C1590 N1587 1.350 . S
C1590 C1589 1.434 . S
C1591 C1592 1.369 . S
C1591 C1593 1.419 . S
C1591 H1595 0.930 . S
C1592 C1591 1.369 . S
C1592 C1601 1.429 . S
C1593 C1591 1.419 . S
C1593 C1594 1.363 . S
C1593 H1596 0.929 . S
C1594 C1593 1.363 . S
C1594 C1600 1.428 . S
H1595 C1591 0.930 . S
H1596 C1593 0.929 . S
S1597 N1598 1.613 . S
S1597 N1599 1.610 . S
N1598 S1597 1.613 . S
N1598 C1601 1.350 . S
N1599 S1597 1.610 . S
N1599 C1600 1.351 . S
C1600 C1594 1.428 . S
C1600 N1599 1.351 . S
C1600 C1601 1.434 . S
C1601 C1592 1.429 . S
C1601 N1598 1.350 . S
C1601 C1600 1.434 . S
C1602 C1603 1.369 . S
C1602 C1604 1.419 . S
C1602 H1606 0.930 . S
C1603 C1602 1.369 . S
C1603 C1612 1.429 . S
C1604 C1602 1.419 . S
C1604 C1605 1.363 . S
C1604 H1607 0.929 . S
C1605 C1604 1.363 . S
C1605 C1611 1.428 . S
H1606 C1602 0.930 . S
H1607 C1604 0.929 . S
S1608 N1609 1.613 . S
S1608 N1610 1.610 . S
N1609 S1608 1.613 . S
N1609 C1612 1.350 . S
N1610 S1608 1.610 . S
N1610 C1611 1.351 . S
C1611 C1605 1.428 . S
C1611 N1610 1.351 . S
C1611 C1612 1.434 . S
C1612 C1603 1.429 . S
C1612 N1609 1.350 . S
C1612 C1611 1.434 . S
C1613 C1614 1.369 . S
C1613 C1615 1.419 . S
C1613 H1617 0.930 . S
C1614 C1613 1.369 . S
C1614 C1623 1.429 . S
C1615 C1613 1.419 . S
C1615 C1616 1.363 . S
C1615 H1618 0.929 . S
C1616 C1615 1.363 . S
C1616 C1622 1.428 . S
H1617 C1613 0.930 . S
H1618 C1615 0.929 . S
S1619 N1620 1.613 . S
S1619 N1621 1.610 . S
N1620 S1619 1.613 . S
N1620 C1623 1.350 . S
N1621 S1619 1.610 . S
N1621 C1622 1.351 . S
C1622 C1616 1.428 . S
C1622 N1621 1.351 . S
C1622 C1623 1.434 . S
C1623 C1614 1.429 . S
C1623 N1620 1.350 . S
C1623 C1622 1.434 . S
C1624 C1625 1.369 . S
C1624 C1626 1.419 . S
C1624 H1628 0.930 . S
C1625 C1624 1.369 . S
C1625 C1634 1.429 . S
C1626 C1624 1.419 . S
C1626 C1627 1.363 . S
C1626 H1629 0.929 . S
C1627 C1626 1.363 . S
C1627 C1633 1.428 . S
H1628 C1624 0.930 . S
H1629 C1626 0.929 . S
S1630 N1631 1.613 . S
S1630 N1632 1.610 . S
N1631 S1630 1.613 . S
N1631 C1634 1.350 . S
N1632 S1630 1.610 . S
N1632 C1633 1.351 . S
C1633 C1627 1.428 . S
C1633 N1632 1.351 . S
C1633 C1634 1.434 . S
C1634 C1625 1.429 . S
C1634 N1631 1.350 . S
C1634 C1633 1.434 . S
C1635 C1636 1.369 . S
C1635 C1637 1.419 . S
C1635 H1639 0.930 . S
C1636 C1635 1.369 . S
C1636 C1645 1.429 . S
C1637 C1635 1.419 . S
C1637 C1638 1.363 . S
C1637 H1640 0.929 . S
C1638 C1637 1.363 . S
C1638 C1644 1.428 . S
H1639 C1635 0.930 . S
H1640 C1637 0.929 . S
S1641 N1642 1.613 1_545 S
S1641 N1643 1.610 . S
N1642 S1641 1.613 1_565 S
N1642 C1645 1.350 . S
N1643 S1641 1.610 . S
N1643 C1644 1.351 1_545 S
C1644 C1638 1.428 . S
C1644 N1643 1.351 1_565 S
C1644 C1645 1.434 . S
C1645 C1636 1.429 . S
C1645 N1642 1.350 . S
C1645 C1644 1.434 . S
C1646 C1647 1.369 . S
C1646 C1648 1.419 . S
C1646 H1650 0.930 . S
C1647 C1646 1.369 . S
C1647 C1656 1.429 . S
C1648 C1646 1.419 . S
C1648 C1649 1.363 . S
C1648 H1651 0.929 . S
C1649 C1648 1.363 . S
C1649 C1655 1.428 . S
H1650 C1646 0.930 . S
H1651 C1648 0.929 . S
S1652 N1653 1.613 . S
S1652 N1654 1.610 . S
N1653 S1652 1.613 . S
N1653 C1656 1.350 . S
N1654 S1652 1.610 . S
N1654 C1655 1.351 . S
C1655 C1649 1.428 . S
C1655 N1654 1.351 . S
C1655 C1656 1.434 . S
C1656 C1647 1.429 . S
C1656 N1653 1.350 . S
C1656 C1655 1.434 . S
C1657 C1658 1.369 . S
C1657 C1659 1.419 . S
C1657 H1661 0.930 . S
C1658 C1657 1.369 . S
C1658 C1667 1.429 . S
C1659 C1657 1.419 . S
C1659 C1660 1.363 . S
C1659 H1662 0.929 . S
C1660 C1659 1.363 . S
C1660 C1666 1.428 . S
H1661 C1657 0.930 . S
H1662 C1659 0.929 . S
S1663 N1664 1.613 . S
S1663 N1665 1.610 . S
N1664 S1663 1.613 . S
N1664 C1667 1.350 . S
N1665 S1663 1.610 . S
N1665 C1666 1.351 . S
C1666 C1660 1.428 . S
C1666 N1665 1.351 . S
C1666 C1667 1.434 . S
C1667 C1658 1.429 . S
C1667 N1664 1.350 . S
C1667 C1666 1.434 . S
C1668 C1669 1.369 . S
C1668 C1670 1.419 . S
C1668 H1672 0.930 . S
C1669 C1668 1.369 . S
C1669 C1678 1.429 . S
C1670 C1668 1.419 . S
C1670 C1671 1.363 . S
C1670 H1673 0.929 . S
C1671 C1670 1.363 . S
C1671 C1677 1.428 . S
H1672 C1668 0.930 . S
H1673 C1670 0.929 . S
S1674 N1675 1.613 . S
S1674 N1676 1.610 . S
N1675 S1674 1.613 . S
N1675 C1678 1.350 . S
N1676 S1674 1.610 . S
N1676 C1677 1.351 . S
C1677 C1671 1.428 . S
C1677 N1676 1.351 . S
C1677 C1678 1.434 . S
C1678 C1669 1.429 . S
C1678 N1675 1.350 . S
C1678 C1677 1.434 . S
C1679 C1680 1.369 . S
C1679 C1681 1.419 . S
C1679 H1683 0.930 . S
C1680 C1679 1.369 . S
C1680 C1689 1.429 . S
C1681 C1679 1.419 . S
C1681 C1682 1.363 . S
C1681 H1684 0.929 . S
C1682 C1681 1.363 . S
C1682 C1688 1.428 . S
H1683 C1679 0.930 . S
H1684 C1681 0.929 . S
S1685 N1686 1.613 . S
S1685 N1687 1.610 . S
N1686 S1685 1.613 . S
N1686 C1689 1.350 . S
N1687 S1685 1.610 . S
N1687 C1688 1.351 . S
C1688 C1682 1.428 . S
C1688 N1687 1.351 . S
C1688 C1689 1.434 . S
C1689 C1680 1.429 . S
C1689 N1686 1.350 . S
C1689 C1688 1.434 . S
C1690 C1691 1.369 . S
C1690 C1692 1.419 . S
C1690 H1694 0.930 . S
C1691 C1690 1.369 . S
C1691 C1700 1.429 . S
C1692 C1690 1.419 . S
C1692 C1693 1.363 . S
C1692 H1695 0.929 . S
C1693 C1692 1.363 . S
C1693 C1699 1.428 . S
H1694 C1690 0.930 . S
H1695 C1692 0.929 . S
S1696 N1697 1.613 . S
S1696 N1698 1.610 . S
N1697 S1696 1.613 . S
N1697 C1700 1.350 . S
N1698 S1696 1.610 . S
N1698 C1699 1.351 . S
C1699 C1693 1.428 . S
C1699 N1698 1.351 . S
C1699 C1700 1.434 . S
C1700 C1691 1.429 . S
C1700 N1697 1.350 . S
C1700 C1699 1.434 . S
C1701 C1702 1.369 . S
C1701 C1703 1.419 . S
C1701 H1705 0.930 . S
C1702 C1701 1.369 . S
C1702 C1711 1.429 . S
C1703 C1701 1.419 . S
C1703 C1704 1.363 . S
C1703 H1706 0.929 . S
C1704 C1703 1.363 . S
C1704 C1710 1.428 . S
H1705 C1701 0.930 . S
H1706 C1703 0.929 . S
S1707 N1708 1.613 . S
S1707 N1709 1.610 . S
N1708 S1707 1.613 . S
N1708 C1711 1.350 . S
N1709 S1707 1.610 . S
N1709 C1710 1.351 . S
C1710 C1704 1.428 . S
C1710 N1709 1.351 . S
C1710 C1711 1.434 . S
C1711 C1702 1.429 . S
C1711 N1708 1.350 . S
C1711 C1710 1.434 . S
C657 C109 1.531 1_455 S
C659 C340 1.287 1_556 S
C668 C65 1.555 . S
C670 C375 1.511 . S
C679 C75 1.240 . S
C681 C380 1.119 . S
C692 C405 1.385 . S
C690 C84 1.469 . S
C701 C25 1.454 . S
C703 C425 1.367 . S
C714 C440 1.103 . S
C712 C28 1.198 . S
C725 C475 1.545 . S
C723 C47 1.579 . S
C734 C9 1.581 . S
C736 C480 1.317 . S
C747 C355 1.683 1_655 S
C745 C233 1.794 . S
C756 C249 1.123 . S
C758 C365 1.059 . S
C769 C395 1.475 1_565 S
C767 C275 1.520 . S
C780 C400 1.193 . S
C778 C173 1.316 . S
C789 C224 1.324 . S
C791 C420 1.225 . S
C802 C455 1.451 . S
C800 C243 1.485 . S
C813 C465 1.066 . S
C811 C266 1.129 . S
C824 C495 1.586 . S
C822 C179 1.664 . S
C835 C345 1.398 . S
C833 C163 1.618 . S
C844 C289 1.783 . S
C846 C515 1.747 . S
C857 C525 1.446 . S
C855 C333 1.564 . S
C868 C540 1.058 . S
C866 C308 1.133 . S
C877 C123 1.574 . S
C879 C485 1.371 . S
C888 C126 1.615 . S
C890 C385 1.503 . S
C899 C327 1.804 . S
C901 C575 1.788 . S
C912 C580 1.110 . S
C910 C299 1.241 . S
C923 C338 1.296 . S
C921 C67 1.532 . S
C934 C594 1.534 . S
C932 C98 1.551 . S
C943 C89 1.252 . S
C945 C378 1.116 . S
C954 C79 1.511 . S
C956 C568 1.422 . S
C967 C428 1.392 . S
C965 C11 1.476 . S
C976 C51 1.230 . S
C978 C518 1.114 . S
C989 C474 1.582 1_556 S
C987 C33 1.613 . S
C1000 C598 1.304 . S
C998 C14 1.540 . S
C1011 C354 1.659 . S
C1009 C140 1.757 . S
C1022 C588 1.066 . S
C1020 C319 1.151 . S
C1031 C112 1.508 . S
C1033 C394 1.488 . S
C1042 C285 1.328 . S
C1044 C558 1.190 . S
C1053 C149 1.362 . S
C1055 C418 1.237 . S
C1066 C534 1.477 . S
C1064 C313 1.513 . S
C1075 C121 1.186 . S
C1077 C468 1.109 . S
C1086 C291 1.676 . S
C1088 C614 1.606 . S
C1097 C182 1.590 . S
C1099 C348 1.385 . S
C1108 C168 1.756 . S
C1110 C514 1.763 . S
C1119 C263 1.602 . S
C1121 C448 1.480 . S
C1130 C247 1.180 . S
C1132 C538 1.086 . S
C1143 C608 1.370 . S
C1141 C277 1.576 . S
C1152 C219 1.675 . S
C1154 C388 1.531 . S
C1165 C414 1.821 . S
C1163 C257 1.836 . S
C1176 C358 1.108 . S
C1174 C201 1.231 . S
C1185 C81 1.542 . S
C1187 C620 1.285 . S
C1198 C595 1.511 . S
C1196 C93 1.555 . S
C1207 C103 1.239 . S
C1209 C640 1.120 . S
C1218 C56 1.469 . S
C1220 C565 1.385 . S
C1229 C53 1.454 . S
C1231 C505 1.368 . S
C1242 C520 1.102 . S
C1240 C0 1.198 . S
C1253 C555 1.546 . S
C1251 C19 1.578 . S
C1264 C600 1.304 . S
C1262 C37 1.587 . S
C1275 C635 1.685 . S
C1273 C261 1.793 . S
C1284 C193 1.132 . S
C1286 C585 1.046 . S
C1297 C655 1.476 . S
C1295 C205 1.520 . S
C1308 C560 1.189 . S
C1306 C215 1.316 . S
C1319 C500 1.227 . S
C1317 C252 1.324 . S
C1328 C187 1.481 . S
C1330 C535 1.449 . S
C1341 C545 1.066 . S
C1339 C196 1.129 . S
C1350 C221 1.663 . S
C1352 C615 1.590 . S
C1363 C625 1.392 . S
C1361 C317 1.620 . S
C1372 C135 1.776 . S
C1374 C435 1.747 . S
C1385 C445 1.441 . S
C1383 C151 1.566 . S
C1396 C460 1.054 . S
C1394 C154 1.135 . S
C1407 C605 1.382 . S
C1405 C305 1.566 . S
C1416 C280 1.610 . S
C1418 C645 1.511 . S
C1429 C415 1.790 . S
C1427 C145 1.806 . S
C1440 C360 1.111 . S
C1438 C117 1.240 . S
C1449 C95 1.534 . S
C1451 C618 1.291 . S
C1462 C374 1.536 . S
C1460 C70 1.548 . S
C1471 C61 1.252 . S
C1473 C638 1.116 . S
C1482 C107 1.512 . S
C1484 C408 1.419 . S
C1493 C39 1.476 . S
C1495 C508 1.393 . S
C1506 C438 1.115 . S
C1504 C23 1.229 . S
C1515 C5 1.612 . S
C1517 C554 1.584 . S
C1526 C42 1.541 . S
C1528 C478 1.304 . S
C1539 C634 1.660 . S
C1537 C322 1.760 . S
C1548 C165 1.150 . S
C1550 C368 1.062 . S
C1561 C654 1.489 1_655 S
C1559 C294 1.508 . S
C1570 C131 1.325 . S
C1572 C398 1.204 . S
C1581 C331 1.363 . S
C1583 C498 1.249 . S
C1594 C454 1.481 . S
C1592 C159 1.511 . S
C1603 C303 1.186 . S
C1605 C548 1.117 . S
C1616 C494 1.600 . S
C1614 C137 1.675 . S
C1627 C628 1.383 . S
C1625 C238 1.591 . S
C1638 C434 1.762 . S
C1636 C210 1.754 . S
C1647 C235 1.604 . S
C1649 C528 1.477 . S
C1660 C458 1.075 . S
C1658 C191 1.180 . S
C1669 C207 1.569 . S
C1671 C488 1.373 . S
C1680 C177 1.677 . S
C1682 C648 1.527 . S
C1693 C574 1.824 . S
C1691 C229 1.840 . S
C1704 C578 1.113 . S
C1702 C271 1.227 . S
