# Generated by pormake.
# Topology gar, (4,6)-cn, num edge types: 1
# Building blocks:
#     Node 0, Type 0, BuildingBlock: UXUYUI_clean_sbu_0, # of connection points: 4
#     Node 1, Type 0, BuildingBlock: UXUYUI_clean_sbu_0, # of connection points: 4
#     Node 2, Type 0, BuildingBlock: UXUYUI_clean_sbu_0, # of connection points: 4
#     Node 3, Type 0, BuildingBlock: UXUYUI_clean_sbu_0, # of connection points: 4
#     Node 4, Type 0, BuildingBlock: UXUYUI_clean_sbu_0, # of connection points: 4
#     Node 5, Type 0, BuildingBlock: UXUYUI_clean_sbu_0, # of connection points: 4
#     Node 6, Type 0, BuildingBlock: UXUYUI_clean_sbu_0, # of connection points: 4
#     Node 7, Type 0, BuildingBlock: UXUYUI_clean_sbu_0, # of connection points: 4
#     Node 8, Type 0, BuildingBlock: UXUYUI_clean_sbu_0, # of connection points: 4
#     Node 9, Type 0, BuildingBlock: UXUYUI_clean_sbu_0, # of connection points: 4
#     Node 10, Type 0, BuildingBlock: UXUYUI_clean_sbu_0, # of connection points: 4
#     Node 11, Type 0, BuildingBlock: UXUYUI_clean_sbu_0, # of connection points: 4
#     Node 12, Type 0, BuildingBlock: UXUYUI_clean_sbu_0, # of connection points: 4
#     Node 13, Type 0, BuildingBlock: UXUYUI_clean_sbu_0, # of connection points: 4
#     Node 14, Type 0, BuildingBlock: UXUYUI_clean_sbu_0, # of connection points: 4
#     Node 15, Type 0, BuildingBlock: UXUYUI_clean_sbu_0, # of connection points: 4
#     Node 16, Type 0, BuildingBlock: UXUYUI_clean_sbu_0, # of connection points: 4
#     Node 17, Type 0, BuildingBlock: UXUYUI_clean_sbu_0, # of connection points: 4
#     Node 18, Type 0, BuildingBlock: UXUYUI_clean_sbu_0, # of connection points: 4
#     Node 19, Type 0, BuildingBlock: UXUYUI_clean_sbu_0, # of connection points: 4
#     Node 20, Type 0, BuildingBlock: UXUYUI_clean_sbu_0, # of connection points: 4
#     Node 21, Type 0, BuildingBlock: UXUYUI_clean_sbu_0, # of connection points: 4
#     Node 22, Type 0, BuildingBlock: UXUYUI_clean_sbu_0, # of connection points: 4
#     Node 23, Type 0, BuildingBlock: UXUYUI_clean_sbu_0, # of connection points: 4
#     Node 24, Type 1, BuildingBlock: CUKXOW_clean_sbu_0, # of connection points: 6
#     Node 25, Type 1, BuildingBlock: CUKXOW_clean_sbu_0, # of connection points: 6
#     Node 26, Type 1, BuildingBlock: CUKXOW_clean_sbu_0, # of connection points: 6
#     Node 27, Type 1, BuildingBlock: CUKXOW_clean_sbu_0, # of connection points: 6
#     Node 28, Type 1, BuildingBlock: CUKXOW_clean_sbu_0, # of connection points: 6
#     Node 29, Type 1, BuildingBlock: CUKXOW_clean_sbu_0, # of connection points: 6
#     Node 30, Type 1, BuildingBlock: CUKXOW_clean_sbu_0, # of connection points: 6
#     Node 31, Type 1, BuildingBlock: CUKXOW_clean_sbu_0, # of connection points: 6
#     Node 32, Type 1, BuildingBlock: CUKXOW_clean_sbu_0, # of connection points: 6
#     Node 33, Type 1, BuildingBlock: CUKXOW_clean_sbu_0, # of connection points: 6
#     Node 34, Type 1, BuildingBlock: CUKXOW_clean_sbu_0, # of connection points: 6
#     Node 35, Type 1, BuildingBlock: CUKXOW_clean_sbu_0, # of connection points: 6
#     Node 36, Type 1, BuildingBlock: CUKXOW_clean_sbu_0, # of connection points: 6
#     Node 37, Type 1, BuildingBlock: CUKXOW_clean_sbu_0, # of connection points: 6
#     Node 38, Type 1, BuildingBlock: CUKXOW_clean_sbu_0, # of connection points: 6
#     Node 39, Type 1, BuildingBlock: CUKXOW_clean_sbu_0, # of connection points: 6
#     Edge 40, Type (0, 1), BuildingBlock: KIFKEQ_clean_linker_1, # of connection points: 2
#     Edge 41, Type (0, 1), BuildingBlock: KIFKEQ_clean_linker_1, # of connection points: 2
#     Edge 42, Type (0, 1), BuildingBlock: KIFKEQ_clean_linker_1, # of connection points: 2
#     Edge 43, Type (0, 1), BuildingBlock: KIFKEQ_clean_linker_1, # of connection points: 2
#     Edge 44, Type (0, 1), BuildingBlock: KIFKEQ_clean_linker_1, # of connection points: 2
#     Edge 45, Type (0, 1), BuildingBlock: KIFKEQ_clean_linker_1, # of connection points: 2
#     Edge 46, Type (0, 1), BuildingBlock: KIFKEQ_clean_linker_1, # of connection points: 2
#     Edge 47, Type (0, 1), BuildingBlock: KIFKEQ_clean_linker_1, # of connection points: 2
#     Edge 48, Type (0, 1), BuildingBlock: KIFKEQ_clean_linker_1, # of connection points: 2
#     Edge 49, Type (0, 1), BuildingBlock: KIFKEQ_clean_linker_1, # of connection points: 2
#     Edge 50, Type (0, 1), BuildingBlock: KIFKEQ_clean_linker_1, # of connection points: 2
#     Edge 51, Type (0, 1), BuildingBlock: KIFKEQ_clean_linker_1, # of connection points: 2
#     Edge 52, Type (0, 1), BuildingBlock: KIFKEQ_clean_linker_1, # of connection points: 2
#     Edge 53, Type (0, 1), BuildingBlock: KIFKEQ_clean_linker_1, # of connection points: 2
#     Edge 54, Type (0, 1), BuildingBlock: KIFKEQ_clean_linker_1, # of connection points: 2
#     Edge 55, Type (0, 1), BuildingBlock: KIFKEQ_clean_linker_1, # of connection points: 2
#     Edge 56, Type (0, 1), BuildingBlock: KIFKEQ_clean_linker_1, # of connection points: 2
#     Edge 57, Type (0, 1), BuildingBlock: KIFKEQ_clean_linker_1, # of connection points: 2
#     Edge 58, Type (0, 1), BuildingBlock: KIFKEQ_clean_linker_1, # of connection points: 2
#     Edge 59, Type (0, 1), BuildingBlock: KIFKEQ_clean_linker_1, # of connection points: 2
#     Edge 60, Type (0, 1), BuildingBlock: KIFKEQ_clean_linker_1, # of connection points: 2
#     Edge 61, Type (0, 1), BuildingBlock: KIFKEQ_clean_linker_1, # of connection points: 2
#     Edge 62, Type (0, 1), BuildingBlock: KIFKEQ_clean_linker_1, # of connection points: 2
#     Edge 63, Type (0, 1), BuildingBlock: KIFKEQ_clean_linker_1, # of connection points: 2
#     Edge 64, Type (0, 1), BuildingBlock: KIFKEQ_clean_linker_1, # of connection points: 2
#     Edge 65, Type (0, 1), BuildingBlock: KIFKEQ_clean_linker_1, # of connection points: 2
#     Edge 66, Type (0, 1), BuildingBlock: KIFKEQ_clean_linker_1, # of connection points: 2
#     Edge 67, Type (0, 1), BuildingBlock: KIFKEQ_clean_linker_1, # of connection points: 2
#     Edge 68, Type (0, 1), BuildingBlock: KIFKEQ_clean_linker_1, # of connection points: 2
#     Edge 69, Type (0, 1), BuildingBlock: KIFKEQ_clean_linker_1, # of connection points: 2
#     Edge 70, Type (0, 1), BuildingBlock: KIFKEQ_clean_linker_1, # of connection points: 2
#     Edge 71, Type (0, 1), BuildingBlock: KIFKEQ_clean_linker_1, # of connection points: 2
#     Edge 72, Type (0, 1), BuildingBlock: KIFKEQ_clean_linker_1, # of connection points: 2
#     Edge 73, Type (0, 1), BuildingBlock: KIFKEQ_clean_linker_1, # of connection points: 2
#     Edge 74, Type (0, 1), BuildingBlock: KIFKEQ_clean_linker_1, # of connection points: 2
#     Edge 75, Type (0, 1), BuildingBlock: KIFKEQ_clean_linker_1, # of connection points: 2
#     Edge 76, Type (0, 1), BuildingBlock: KIFKEQ_clean_linker_1, # of connection points: 2
#     Edge 77, Type (0, 1), BuildingBlock: KIFKEQ_clean_linker_1, # of connection points: 2
#     Edge 78, Type (0, 1), BuildingBlock: KIFKEQ_clean_linker_1, # of connection points: 2
#     Edge 79, Type (0, 1), BuildingBlock: KIFKEQ_clean_linker_1, # of connection points: 2
#     Edge 80, Type (0, 1), BuildingBlock: KIFKEQ_clean_linker_1, # of connection points: 2
#     Edge 81, Type (0, 1), BuildingBlock: KIFKEQ_clean_linker_1, # of connection points: 2
#     Edge 82, Type (0, 1), BuildingBlock: KIFKEQ_clean_linker_1, # of connection points: 2
#     Edge 83, Type (0, 1), BuildingBlock: KIFKEQ_clean_linker_1, # of connection points: 2
#     Edge 84, Type (0, 1), BuildingBlock: KIFKEQ_clean_linker_1, # of connection points: 2
#     Edge 85, Type (0, 1), BuildingBlock: KIFKEQ_clean_linker_1, # of connection points: 2
#     Edge 86, Type (0, 1), BuildingBlock: KIFKEQ_clean_linker_1, # of connection points: 2
#     Edge 87, Type (0, 1), BuildingBlock: KIFKEQ_clean_linker_1, # of connection points: 2
#     Edge 88, Type (0, 1), BuildingBlock: KIFKEQ_clean_linker_1, # of connection points: 2
#     Edge 89, Type (0, 1), BuildingBlock: KIFKEQ_clean_linker_1, # of connection points: 2
#     Edge 90, Type (0, 1), BuildingBlock: KIFKEQ_clean_linker_1, # of connection points: 2
#     Edge 91, Type (0, 1), BuildingBlock: KIFKEQ_clean_linker_1, # of connection points: 2
#     Edge 92, Type (0, 1), BuildingBlock: KIFKEQ_clean_linker_1, # of connection points: 2
#     Edge 93, Type (0, 1), BuildingBlock: KIFKEQ_clean_linker_1, # of connection points: 2
#     Edge 94, Type (0, 1), BuildingBlock: KIFKEQ_clean_linker_1, # of connection points: 2
#     Edge 95, Type (0, 1), BuildingBlock: KIFKEQ_clean_linker_1, # of connection points: 2
#     Edge 96, Type (0, 1), BuildingBlock: KIFKEQ_clean_linker_1, # of connection points: 2
#     Edge 97, Type (0, 1), BuildingBlock: KIFKEQ_clean_linker_1, # of connection points: 2
#     Edge 98, Type (0, 1), BuildingBlock: KIFKEQ_clean_linker_1, # of connection points: 2
#     Edge 99, Type (0, 1), BuildingBlock: KIFKEQ_clean_linker_1, # of connection points: 2
#     Edge 100, Type (0, 1), BuildingBlock: KIFKEQ_clean_linker_1, # of connection points: 2
#     Edge 101, Type (0, 1), BuildingBlock: KIFKEQ_clean_linker_1, # of connection points: 2
#     Edge 102, Type (0, 1), BuildingBlock: KIFKEQ_clean_linker_1, # of connection points: 2
#     Edge 103, Type (0, 1), BuildingBlock: KIFKEQ_clean_linker_1, # of connection points: 2
#     Edge 104, Type (0, 1), BuildingBlock: KIFKEQ_clean_linker_1, # of connection points: 2
#     Edge 105, Type (0, 1), BuildingBlock: KIFKEQ_clean_linker_1, # of connection points: 2
#     Edge 106, Type (0, 1), BuildingBlock: KIFKEQ_clean_linker_1, # of connection points: 2
#     Edge 107, Type (0, 1), BuildingBlock: KIFKEQ_clean_linker_1, # of connection points: 2
#     Edge 108, Type (0, 1), BuildingBlock: KIFKEQ_clean_linker_1, # of connection points: 2
#     Edge 109, Type (0, 1), BuildingBlock: KIFKEQ_clean_linker_1, # of connection points: 2
#     Edge 110, Type (0, 1), BuildingBlock: KIFKEQ_clean_linker_1, # of connection points: 2
#     Edge 111, Type (0, 1), BuildingBlock: KIFKEQ_clean_linker_1, # of connection points: 2
#     Edge 112, Type (0, 1), BuildingBlock: KIFKEQ_clean_linker_1, # of connection points: 2
#     Edge 113, Type (0, 1), BuildingBlock: KIFKEQ_clean_linker_1, # of connection points: 2
#     Edge 114, Type (0, 1), BuildingBlock: KIFKEQ_clean_linker_1, # of connection points: 2
#     Edge 115, Type (0, 1), BuildingBlock: KIFKEQ_clean_linker_1, # of connection points: 2
#     Edge 116, Type (0, 1), BuildingBlock: KIFKEQ_clean_linker_1, # of connection points: 2
#     Edge 117, Type (0, 1), BuildingBlock: KIFKEQ_clean_linker_1, # of connection points: 2
#     Edge 118, Type (0, 1), BuildingBlock: KIFKEQ_clean_linker_1, # of connection points: 2
#     Edge 119, Type (0, 1), BuildingBlock: KIFKEQ_clean_linker_1, # of connection points: 2
#     Edge 120, Type (0, 1), BuildingBlock: KIFKEQ_clean_linker_1, # of connection points: 2
#     Edge 121, Type (0, 1), BuildingBlock: KIFKEQ_clean_linker_1, # of connection points: 2
#     Edge 122, Type (0, 1), BuildingBlock: KIFKEQ_clean_linker_1, # of connection points: 2
#     Edge 123, Type (0, 1), BuildingBlock: KIFKEQ_clean_linker_1, # of connection points: 2
#     Edge 124, Type (0, 1), BuildingBlock: KIFKEQ_clean_linker_1, # of connection points: 2
#     Edge 125, Type (0, 1), BuildingBlock: KIFKEQ_clean_linker_1, # of connection points: 2
#     Edge 126, Type (0, 1), BuildingBlock: KIFKEQ_clean_linker_1, # of connection points: 2
#     Edge 127, Type (0, 1), BuildingBlock: KIFKEQ_clean_linker_1, # of connection points: 2
#     Edge 128, Type (0, 1), BuildingBlock: KIFKEQ_clean_linker_1, # of connection points: 2
#     Edge 129, Type (0, 1), BuildingBlock: KIFKEQ_clean_linker_1, # of connection points: 2
#     Edge 130, Type (0, 1), BuildingBlock: KIFKEQ_clean_linker_1, # of connection points: 2
#     Edge 131, Type (0, 1), BuildingBlock: KIFKEQ_clean_linker_1, # of connection points: 2
#     Edge 132, Type (0, 1), BuildingBlock: KIFKEQ_clean_linker_1, # of connection points: 2
#     Edge 133, Type (0, 1), BuildingBlock: KIFKEQ_clean_linker_1, # of connection points: 2
#     Edge 134, Type (0, 1), BuildingBlock: KIFKEQ_clean_linker_1, # of connection points: 2
#     Edge 135, Type (0, 1), BuildingBlock: KIFKEQ_clean_linker_1, # of connection points: 2
# Relax obj value: 0.135
# Max RMSD: 0.217
# Mean RMSD: 0.173
data_MOF--net-gar--node1-UXUYUI_clean_sbu_0--node2-CUKXOW_clean_sbu_0--edge1-KIFKEQ_clean_linker_1
_symmetry_space_group_name_H-M    P1
_symmetry_Int_Tables_number       1
_symmetry_cell_setting            triclinic
loop_
_symmetry_equiv_pos_as_xyz
'x, y, z'
_cell_length_a     68.708388
_cell_length_b     67.218176
_cell_length_c     67.563149
_cell_angle_alpha  93.561107
_cell_angle_beta   95.394726
_cell_angle_gamma 99.142705
loop_
_atom_site_label
_atom_site_type_symbol
_atom_site_fract_x
_atom_site_fract_y
_atom_site_fract_z
_atom_type_partial_charge
Li0 Li 0.00338 0.27189 0.3993 0.0
Li1 Li 0.02305 0.29308 0.42819 0.0
Li2 Li 0.03739 0.27409 0.40453 0.0
Li3 Li 0.01758 0.2554 0.42686 0.0
C4 C 0.03488 0.30911 0.38873 0.0
N5 N 0.05947 0.33396 0.36709 0.0
C6 C 0.04586 0.32725 0.39773 0.0
C7 C 0.03618 0.30381 0.3686 0.0
C8 C 0.05825 0.33956 0.38657 0.0
C9 C 0.04876 0.31651 0.35796 0.0
C10 C 0.9886 0.27171 0.44442 0.0
C11 C 0.99064 0.27299 0.4803 0.0
N12 N 0.97061 0.26747 0.47912 0.0
C13 C 0.96807 0.266 0.44353 0.0
C14 C 1.00002 0.2752 0.46292 0.0
C15 C 0.95924 0.26396 0.46126 0.0
C16 C 0.96513 0.25579 0.38076 0.0
N17 N 0.98107 0.27059 0.38065 0.0
C18 C 0.96571 0.28419 0.35266 0.0
C19 C 0.98163 0.28469 0.36709 0.0
C20 C 0.949 0.26913 0.35235 0.0
C21 C 0.94882 0.25471 0.36656 0.0
H22 H 0.96513 0.24487 0.39187 0.0
H23 H 0.99441 0.29639 0.36753 0.0
C24 C 0.04076 0.3283 0.45314 0.0
N25 N 0.02354 0.31697 0.44457 0.0
C26 C 0.04054 0.3468 0.46365 0.0
C27 C 0.00481 0.34106 0.457 0.0
C28 C 0.00577 0.32292 0.44635 0.0
C29 C 0.02238 0.35352 0.46547 0.0
H30 H 0.05469 0.32339 0.45111 0.0
H31 H 0.99233 0.31372 0.43916 0.0
C32 C 0.00728 0.23634 0.383 0.0
N33 N 0.98452 0.21131 0.35249 0.0
C34 C 0.99667 0.21775 0.38698 0.0
C35 C 0.00667 0.24194 0.36339 0.0
C36 C 0.98517 0.20537 0.37139 0.0
C37 C 0.99497 0.22917 0.34821 0.0
C38 C 0.06147 0.27083 0.43564 0.0
C39 C 0.06482 0.25207 0.42778 0.0
C40 C 0.07753 0.28519 0.44416 0.0
C41 C 0.0842 0.2481 0.42833 0.0
C42 C 0.0967 0.28064 0.44443 0.0
N43 N 0.09961 0.26236 0.43656 0.0
C44 C 0.07541 0.29008 0.39375 0.0
C45 C 0.05995 0.25883 0.3767 0.0
C46 C 0.09125 0.29083 0.38226 0.0
N47 N 0.06002 0.27443 0.39049 0.0
C48 C 0.07547 0.25893 0.3649 0.0
C49 C 0.09123 0.27521 0.36746 0.0
H50 H 0.07517 0.30216 0.405 0.0
H51 H 0.04781 0.24633 0.37478 0.0
C52 C 0.99442 0.22218 0.44108 0.0
N53 N 0.01286 0.2334 0.44276 0.0
C54 C 0.99072 0.20512 0.45175 0.0
C55 C 0.02485 0.21212 0.46637 0.0
C56 C 0.02782 0.22909 0.45552 0.0
C57 C 0.00618 0.19969 0.4643 0.0
H58 H 0.98269 0.22628 0.43111 0.0
H59 H 0.04216 0.23861 0.45708 0.0
O60 O 0.02272 0.29683 0.39951 0.0
O61 O 0.9975 0.27343 0.4272 0.0
O62 O 0.01852 0.24878 0.39814 0.0
O63 O 0.04258 0.27511 0.43481 0.0
H64 H 0.04491 0.33177 0.41316 0.0
H65 H 0.02775 0.28995 0.3613 0.0
H66 H 0.06692 0.35356 0.39341 0.0
H67 H 0.05004 0.31246 0.34244 0.0
H68 H 0.99928 0.27563 0.49472 0.0
H69 H 0.95907 0.26313 0.42929 0.0
H70 H 0.01597 0.27944 0.46383 0.0
H71 H 0.94336 0.25955 0.46082 0.0
H72 H 0.96646 0.2955 0.34189 0.0
H73 H 0.93606 0.24306 0.36699 0.0
H74 H 0.05448 0.35602 0.46961 0.0
H75 H 0.99044 0.34539 0.45832 0.0
H76 H 0.9974 0.21282 0.40188 0.0
H77 H 0.01497 0.25609 0.35994 0.0
H78 H 0.9768 0.19101 0.37431 0.0
H79 H 0.9942 0.23346 0.33302 0.0
H80 H 0.05258 0.24078 0.42105 0.0
H81 H 0.07529 0.29972 0.45042 0.0
H82 H 0.087 0.23372 0.42215 0.0
H83 H 0.10927 0.29166 0.45088 0.0
H84 H 0.10313 0.30368 0.38462 0.0
H85 H 0.07518 0.24637 0.35396 0.0
H86 H 0.97601 0.19618 0.45001 0.0
H87 H 0.03724 0.20847 0.47576 0.0
Li88 Li 0.99816 0.81121 0.60622 0.0
Li89 Li 0.01481 0.79465 0.63381 0.0
Li90 Li 0.99525 0.77529 0.60546 0.0
Li91 Li 0.97883 0.79165 0.62964 0.0
C92 C 0.02935 0.78582 0.59178 0.0
N93 N 0.04687 0.76476 0.56393 0.0
C94 C 0.04487 0.7757 0.59789 0.0
C95 C 0.02285 0.7854 0.5715 0.0
C96 C 0.05351 0.76511 0.58358 0.0
C97 C 0.03186 0.77461 0.55766 0.0
C98 C 0.00416 0.83274 0.64873 0.0
C99 C 0.00519 0.84922 0.68167 0.0
N100 N 0.01614 0.86605 0.67574 0.0
C101 C 0.01542 0.85022 0.64296 0.0
C102 C 0.99897 0.83224 0.66825 0.0
C103 C 0.02133 0.86689 0.65683 0.0
C104 C 0.98648 0.84695 0.59502 0.0
N105 N 1.00001 0.83461 0.59238 0.0
C106 C 0.01682 0.85722 0.57136 0.0
C107 C 0.01505 0.83935 0.58095 0.0
C108 C 0.0031 0.8704 0.57381 0.0
C109 C 0.98779 0.86508 0.58589 0.0
H110 H 0.97488 0.84282 0.6045 0.0
H111 H 0.02576 0.82935 0.57941 0.0
C112 C 0.04361 0.77804 0.65527 0.0
N113 N 0.03698 0.7958 0.65285 0.0
C114 C 0.05964 0.77717 0.66923 0.0
C115 C 0.06137 0.81281 0.67834 0.0
C116 C 0.04555 0.81305 0.66395 0.0
C117 C 0.06879 0.79475 0.681 0.0
H118 H 0.03649 0.76456 0.64619 0.0
H119 H 0.04029 0.82705 0.66169 0.0
C120 C 0.95559 0.77871 0.59427 0.0
N121 N 0.91959 0.754 0.58302 0.0
C122 C 0.95142 0.7598 0.6019 0.0
C123 C 0.94145 0.78503 0.58093 0.0
C124 C 0.93314 0.74754 0.59603 0.0
C125 C 0.92334 0.77232 0.57542 0.0
C126 C 0.99269 0.7607 0.65073 0.0
C127 C 0.98627 0.73984 0.64984 0.0
C128 C 0.99655 0.77186 0.66921 0.0
C129 C 0.98371 0.73048 0.66752 0.0
C130 C 0.99383 0.76194 0.68656 0.0
N131 N 0.9875 0.74163 0.68536 0.0
C132 C 0.00499 0.73757 0.59684 0.0
C133 C 0.98385 0.74754 0.57075 0.0
C134 C 0.0054 0.71935 0.58603 0.0
N135 N 0.99433 0.75116 0.58908 0.0
C136 C 0.98368 0.72935 0.55949 0.0
C137 C 0.99458 0.71515 0.56722 0.0
H138 H 0.01324 0.74098 0.61142 0.0
H139 H 0.97567 0.75874 0.56489 0.0
C140 C 0.95254 0.80983 0.65007 0.0
N141 N 0.95713 0.7915 0.64462 0.0
C142 C 0.93917 0.81152 0.66408 0.0
C143 C 0.93427 0.77518 0.66528 0.0
C144 C 0.94793 0.77424 0.65142 0.0
C145 C 0.93018 0.79408 0.67222 0.0
H146 H 0.95998 0.82326 0.6442 0.0
H147 H 0.95159 0.75981 0.64658 0.0
O148 O 0.02036 0.79584 0.6056 0.0
O149 O 0.99819 0.81629 0.63531 0.0
O150 O 0.97332 0.79112 0.59983 0.0
O151 O 0.99503 0.77003 0.63348 0.0
H152 H 0.05012 0.77595 0.61352 0.0
H153 H 0.01074 0.79302 0.56655 0.0
H154 H 0.06548 0.75713 0.5881 0.0
H155 H 0.02687 0.77399 0.54193 0.0
H156 H 1.00129 0.84902 0.69681 0.0
H157 H 0.01978 0.85086 0.62802 0.0
H158 H 0.99023 0.81893 0.67303 0.0
H159 H 0.0301 0.88049 0.65258 0.0
H160 H 0.02869 0.86057 0.562 0.0
H161 H 0.97712 0.87493 0.58852 0.0
H162 H 0.06508 0.76298 0.67039 0.0
H163 H 0.06777 0.82669 0.6872 0.0
H164 H 0.96216 0.75457 0.61216 0.0
H165 H 0.94445 0.79964 0.57492 0.0
H166 H 0.92974 0.73288 0.60181 0.0
H167 H 0.91226 0.77704 0.5651 0.0
H168 H 0.98318 0.731 0.63561 0.0
H169 H 1.00161 0.78796 0.67016 0.0
H170 H 0.97868 0.71435 0.66705 0.0
H171 H 0.99675 0.7704 0.70098 0.0
H172 H 0.01394 0.70859 0.59231 0.0
H173 H 0.97521 0.7264 0.54496 0.0
H174 H 0.93652 0.8264 0.66902 0.0
H175 H 0.92723 0.76129 0.67072 0.0
Li176 Li 0.50745 0.77317 0.89952 0.0
Li177 Li 0.5281 0.79297 0.92815 0.0
Li178 Li 0.54135 0.77441 0.90305 0.0
Li179 Li 0.52211 0.75539 0.92585 0.0
C180 C 0.5399 0.81066 0.89005 0.0
N181 N 0.56554 0.83681 0.87068 0.0
C182 C 0.55167 0.82759 0.90059 0.0
C183 C 0.54103 0.80717 0.86959 0.0
C184 C 0.56457 0.8406 0.89054 0.0
C185 C 0.55414 0.82051 0.86009 0.0
C186 C 0.49458 0.77265 0.94545 0.0
C187 C 0.49864 0.77342 0.98133 0.0
N188 N 0.47859 0.76985 0.98137 0.0
C189 C 0.47403 0.76896 0.94582 0.0
C190 C 0.50702 0.77485 0.96331 0.0
C191 C 0.46623 0.76761 0.96414 0.0
C192 C 0.46821 0.759 0.88295 0.0
N193 N 0.48465 0.77287 0.88179 0.0
C194 C 0.46911 0.78631 0.85379 0.0
C195 C 0.48538 0.78646 0.86772 0.0
C196 C 0.45188 0.77215 0.85453 0.0
C197 C 0.45153 0.75832 0.86933 0.0
H198 H 0.46813 0.74844 0.8944 0.0
H199 H 0.49862 0.79739 0.86728 0.0
C200 C 0.54505 0.82419 0.9585 0.0
N201 N 0.52891 0.81609 0.94567 0.0
C202 C 0.54475 0.8417 0.97065 0.0
C203 C 0.511 0.8416 0.95664 0.0
C204 C 0.51206 0.82432 0.94458 0.0
C205 C 0.52756 0.85059 0.96974 0.0
H206 H 0.55814 0.8172 0.95919 0.0
H207 H 0.49949 0.81748 0.93419 0.0
C208 C 0.50964 0.73832 0.88147 0.0
N209 N 0.48506 0.71582 0.8505 0.0
C210 C 0.49813 0.72 0.88482 0.0
C211 C 0.50894 0.74497 0.86224 0.0
C212 C 0.48573 0.70889 0.86901 0.0
C213 C 0.49634 0.73346 0.84683 0.0
C214 C 0.56654 0.77067 0.93281 0.0
C215 C 0.56975 0.75182 0.92502 0.0
C216 C 0.58278 0.7855 0.93987 0.0
C217 C 0.58914 0.74818 0.92436 0.0
C218 C 0.60195 0.78125 0.93898 0.0
N219 N 0.60471 0.76285 0.9313 0.0
C220 C 0.57939 0.7889 0.89003 0.0
C221 C 0.56172 0.75805 0.87398 0.0
C222 C 0.59464 0.78825 0.87788 0.0
N223 N 0.56322 0.77404 0.88767 0.0
C224 C 0.57644 0.7569 0.86141 0.0
C225 C 0.59304 0.7722 0.8632 0.0
H226 H 0.58039 0.80131 0.90122 0.0
H227 H 0.54915 0.74607 0.87282 0.0
C228 C 0.49967 0.72151 0.94019 0.0
N229 N 0.51799 0.73294 0.94131 0.0
C230 C 0.49676 0.704 0.95037 0.0
C231 C 0.53136 0.7111 0.96345 0.0
C232 C 0.53354 0.7285 0.95319 0.0
C233 C 0.5129 0.69841 0.96173 0.0
H234 H 0.48746 0.72574 0.931 0.0
H235 H 0.54772 0.7383 0.95453 0.0
O236 O 0.52716 0.79777 0.89967 0.0
O237 O 0.50239 0.77367 0.9276 0.0
O238 O 0.52174 0.74955 0.89684 0.0
O239 O 0.54761 0.7746 0.93318 0.0
H240 H 0.55097 0.8306 0.91638 0.0
H241 H 0.53211 0.79414 0.86117 0.0
H242 H 0.57383 0.85369 0.89854 0.0
H243 H 0.55529 0.81788 0.84432 0.0
H244 H 0.50808 0.77509 0.99528 0.0
H245 H 0.46423 0.7671 0.93208 0.0
H246 H 0.52297 0.77753 0.96327 0.0
H247 H 0.45035 0.76475 0.96466 0.0
H248 H 0.47003 0.79712 0.84253 0.0
H249 H 0.43841 0.74739 0.8706 0.0
H250 H 0.55776 0.8482 0.98066 0.0
H251 H 0.49757 0.84817 0.95534 0.0
H252 H 0.4988 0.71433 0.89943 0.0
H253 H 0.51785 0.75903 0.85931 0.0
H254 H 0.47666 0.69474 0.87144 0.0
H255 H 0.49549 0.73857 0.83195 0.0
H256 H 0.55737 0.74024 0.91923 0.0
H257 H 0.58068 0.80024 0.94571 0.0
H258 H 0.59181 0.73372 0.91825 0.0
H259 H 0.61464 0.79264 0.94431 0.0
H260 H 0.60734 0.80027 0.87969 0.0
H261 H 0.57498 0.74405 0.85056 0.0
H262 H 0.48228 0.69458 0.94878 0.0
H263 H 0.54402 0.70747 0.97246 0.0
Li264 Li 0.50165 0.3086 0.10474 0.0
Li265 Li 0.51518 0.29188 0.13374 0.0
Li266 Li 0.49876 0.27281 0.10434 0.0
Li267 Li 0.47949 0.28893 0.12561 0.0
C268 C 0.53328 0.28416 0.09249 0.0
N269 N 0.55139 0.26475 0.06391 0.0
C270 C 0.54893 0.27405 0.09818 0.0
C271 C 0.52696 0.28457 0.07226 0.0
C272 C 0.55786 0.26429 0.0835 0.0
C273 C 0.53627 0.27462 0.05804 0.0
C274 C 0.50445 0.33091 0.14536 0.0
C275 C 0.50203 0.35182 0.17509 0.0
N276 N 0.51639 0.36619 0.16968 0.0
C277 C 0.51929 0.34584 0.14017 0.0
C278 C 0.49579 0.3339 0.16301 0.0
C279 C 0.52506 0.3636 0.15263 0.0
C280 C 0.49064 0.34437 0.0939 0.0
N281 N 0.50443 0.33233 0.09131 0.0
C282 C 0.52152 0.3558 0.07121 0.0
C283 C 0.5198 0.33768 0.08041 0.0
C284 C 0.50744 0.36861 0.07356 0.0
C285 C 0.49193 0.36273 0.08523 0.0
H286 H 0.4788 0.33978 0.10297 0.0
H287 H 0.53076 0.32795 0.07895 0.0
C288 C 0.54456 0.27622 0.15499 0.0
N289 N 0.53558 0.2928 0.15478 0.0
C290 C 0.56014 0.27525 0.16946 0.0
C291 C 0.55617 0.30797 0.18396 0.0
C292 C 0.54086 0.30841 0.16904 0.0
C293 C 0.56628 0.29139 0.1841 0.0
H294 H 0.53973 0.26384 0.14371 0.0
H295 H 0.53337 0.32127 0.16897 0.0
C296 C 0.4603 0.27578 0.08842 0.0
N297 N 0.42535 0.25079 0.07369 0.0
C298 C 0.45504 0.25707 0.09613 0.0
C299 C 0.44777 0.28177 0.07323 0.0
C300 C 0.43732 0.24466 0.08848 0.0
C301 C 0.43017 0.26892 0.06597 0.0
C302 C 0.4917 0.26018 0.1501 0.0
C303 C 0.48696 0.23938 0.1517 0.0
C304 C 0.4928 0.27355 0.16699 0.0
C305 C 0.48342 0.23229 0.17024 0.0
C306 C 0.4892 0.26586 0.18528 0.0
N307 N 0.48461 0.24556 0.18651 0.0
C308 C 0.50816 0.23467 0.09878 0.0
C309 C 0.49168 0.24465 0.06949 0.0
C310 C 0.50898 0.2159 0.08929 0.0
N311 N 0.49946 0.24847 0.08887 0.0
C312 C 0.49232 0.22604 0.05934 0.0
C313 C 0.50085 0.21134 0.06939 0.0
H314 H 0.51437 0.23828 0.11413 0.0
H315 H 0.4849 0.25597 0.06198 0.0
C316 C 0.45091 0.30773 0.14066 0.0
N317 N 0.45587 0.28916 0.13734 0.0
C318 C 0.4357 0.31029 0.15226 0.0
C319 C 0.42971 0.27419 0.15517 0.0
C320 C 0.44541 0.27241 0.14387 0.0
C321 C 0.42505 0.29343 0.16001 0.0
H322 H 0.45946 0.32071 0.13507 0.0
H323 H 0.44958 0.25777 0.14082 0.0
O324 O 0.52401 0.2934 0.10663 0.0
O325 O 0.49849 0.31344 0.13333 0.0
O326 O 0.47743 0.28842 0.09578 0.0
O327 O 0.49497 0.26723 0.13194 0.0
H328 H 0.55413 0.27372 0.11374 0.0
H329 H 0.51472 0.29215 0.06762 0.0
H330 H 0.56994 0.25633 0.0877 0.0
H331 H 0.53141 0.27465 0.04235 0.0
H332 H 0.49548 0.35429 0.1888 0.0
H333 H 0.52642 0.34368 0.12678 0.0
H334 H 0.48451 0.32243 0.16747 0.0
H335 H 0.5365 0.37529 0.14878 0.0
H336 H 0.53361 0.3596 0.06221 0.0
H337 H 0.48099 0.37228 0.08784 0.0
H338 H 0.56762 0.26226 0.16878 0.0
H339 H 0.56011 0.32056 0.19517 0.0
H340 H 0.46449 0.2521 0.10786 0.0
H341 H 0.4516 0.29623 0.06714 0.0
H342 H 0.43308 0.23016 0.09432 0.0
H343 H 0.42033 0.27338 0.05422 0.0
H344 H 0.48594 0.22885 0.1387 0.0
H345 H 0.49635 0.28967 0.166 0.0
H346 H 0.47971 0.21623 0.17169 0.0
H347 H 0.49001 0.27604 0.19849 0.0
H348 H 0.51591 0.20504 0.09744 0.0
H349 H 0.4858 0.22298 0.044 0.0
H350 H 0.43293 0.32546 0.15572 0.0
H351 H 0.4216 0.26068 0.16032 0.0
Li352 Li 0.99609 0.78795 0.1439 0.0
Li353 Li 0.01356 0.77425 0.17257 0.0
Li354 Li 0.99364 0.75066 0.14605 0.0
Li355 Li 0.97683 0.7708 0.17093 0.0
C356 C 0.03095 0.77178 0.13111 0.0
N357 N 0.05918 0.77345 0.10447 0.0
C358 C 0.05047 0.78104 0.13717 0.0
C359 C 0.02578 0.76336 0.11152 0.0
C360 C 0.06453 0.78174 0.12347 0.0
C361 C 0.04028 0.76435 0.09828 0.0
C362 C 0.00352 0.81246 0.18582 0.0
C363 C 0.00568 0.82982 0.21845 0.0
N364 N 0.01742 0.84591 0.21208 0.0
C365 C 0.01549 0.82919 0.17953 0.0
C366 C 0.99844 0.81278 0.20537 0.0
C367 C 0.02241 0.84595 0.19307 0.0
C368 C 0.98042 0.81832 0.12335 0.0
N369 N 0.99681 0.80947 0.12645 0.0
C370 C 0.01415 0.8318 0.10535 0.0
C371 C 0.0135 0.81592 0.11776 0.0
C372 C 0.99758 0.84153 0.10204 0.0
C373 C 0.98049 0.83446 0.11119 0.0
H374 H 0.96737 0.81299 0.13053 0.0
H375 H 0.02645 0.80892 0.12057 0.0
C376 C 0.049 0.76151 0.18647 0.0
N377 N 0.03903 0.77731 0.18878 0.0
C378 C 0.06798 0.76223 0.19629 0.0
C379 C 0.06661 0.7958 0.21032 0.0
C380 C 0.04745 0.79427 0.20054 0.0
C381 C 0.07712 0.77963 0.20825 0.0
H382 H 0.04234 0.74841 0.17662 0.0
H383 H 0.03958 0.8068 0.20217 0.0
C384 C 0.95972 0.76156 0.1235 0.0
N385 N 0.93544 0.75036 0.08833 0.0
C386 C 0.94002 0.75246 0.12394 0.0
C387 C 0.96704 0.7651 0.10521 0.0
C388 C 0.92799 0.74687 0.10598 0.0
C389 C 0.95454 0.75929 0.08759 0.0
C390 C 0.00224 0.74113 0.19132 0.0
C391 C 0.00847 0.72243 0.18865 0.0
C392 C 0.00545 0.75166 0.21015 0.0
C393 C 0.018 0.71464 0.20489 0.0
C394 C 0.01505 0.74337 0.226 0.0
N395 N 0.02108 0.72519 0.22306 0.0
C396 C 0.01139 0.71912 0.1317 0.0
C397 C 0.97769 0.71553 0.1187 0.0
C398 C 0.01375 0.70187 0.12018 0.0
N399 N 0.99366 0.72574 0.13063 0.0
C400 C 0.97938 0.69818 0.10684 0.0
C401 C 0.99768 0.69123 0.10732 0.0
H402 H 0.02384 0.72745 0.1414 0.0
H403 H 0.96368 0.72092 0.11816 0.0
C404 C 0.93856 0.77971 0.17586 0.0
N405 N 0.95347 0.77111 0.18461 0.0
C406 C 0.92113 0.78019 0.18498 0.0
C407 C 0.93472 0.76308 0.21207 0.0
C408 C 0.95183 0.76281 0.20237 0.0
C409 C 0.919 0.77184 0.20339 0.0
H410 H 0.94021 0.78623 0.16175 0.0
H411 H 0.96377 0.7559 0.20899 0.0
O412 O 0.01701 0.77098 0.14435 0.0
O413 O 0.99654 0.79598 0.1728 0.0
O414 O 0.97169 0.76706 0.14093 0.0
O415 O 0.99324 0.74917 0.17553 0.0
H416 H 0.05469 0.78775 0.15224 0.0
H417 H 0.01078 0.75604 0.1066 0.0
H418 H 0.07968 0.78889 0.12793 0.0
H419 H 0.0365 0.75787 0.08307 0.0
H420 H 1.00194 0.83028 0.23365 0.0
H421 H 0.01947 0.82917 0.1644 0.0
H422 H 0.98902 0.79999 0.21037 0.0
H423 H 0.03177 0.85899 0.18846 0.0
H424 H 0.02757 0.83639 0.09844 0.0
H425 H 0.96745 0.84159 0.10941 0.0
H426 H 0.07567 0.74953 0.19406 0.0
H427 H 0.07313 0.80949 0.21944 0.0
H428 H 0.93414 0.74963 0.138 0.0
H429 H 0.98219 0.7723 0.10463 0.0
H430 H 0.91274 0.73974 0.10608 0.0
H431 H 0.96002 0.76191 0.07332 0.0
H432 H 0.00604 0.71407 0.17418 0.0
H433 H 1.00086 0.76623 0.2124 0.0
H434 H 0.02297 0.70021 0.20304 0.0
H435 H 0.01777 0.75141 0.24062 0.0
H436 H 0.02802 0.69691 0.12139 0.0
H437 H 0.96661 0.69057 0.09709 0.0
H438 H 0.90957 0.78732 0.17781 0.0
H439 H 0.9337 0.75622 0.22611 0.0
Li440 Li 0.52793 0.81033 0.39098 0.0
Li441 Li 0.50717 0.78982 0.36496 0.0
Li442 Li 0.52444 0.77341 0.39158 0.0
Li443 Li 0.5434 0.7922 0.36487 0.0
C444 C 0.49229 0.80084 0.40433 0.0
N445 N 0.46955 0.8227 0.426 0.0
C446 C 0.4836 0.81612 0.39574 0.0
C447 C 0.48932 0.79659 0.42393 0.0
C448 C 0.47219 0.82703 0.40694 0.0
C449 C 0.47779 0.80783 0.43464 0.0
C450 C 0.52153 0.82221 0.34489 0.0
C451 C 0.52262 0.82525 0.30962 0.0
N452 N 0.50969 0.83859 0.31014 0.0
C453 C 0.50841 0.8361 0.34513 0.0
C454 C 0.52882 0.81683 0.32703 0.0
C455 C 0.50253 0.84414 0.32738 0.0
C456 C 0.53277 0.85304 0.39946 0.0
N457 N 0.53053 0.83508 0.40792 0.0
C458 C 0.52636 0.85166 0.43927 0.0
C459 C 0.52799 0.83422 0.4276 0.0
C460 C 0.5278 0.87028 0.43073 0.0
C461 C 0.5316 0.87096 0.4107 0.0
H462 H 0.53476 0.85338 0.38379 0.0
H463 H 0.52633 0.81986 0.43409 0.0
C464 C 0.4655 0.77982 0.35887 0.0
N465 N 0.4814 0.78609 0.34889 0.0
C466 C 0.44621 0.7778 0.3495 0.0
C467 C 0.45971 0.78711 0.31906 0.0
C468 C 0.47883 0.78927 0.32915 0.0
C469 C 0.44308 0.78173 0.3294 0.0
H470 H 0.46773 0.77649 0.37426 0.0
H471 H 0.49153 0.7935 0.32116 0.0
C472 C 0.56038 0.80118 0.41232 0.0
N473 N 0.58257 0.81665 0.44773 0.0
C474 C 0.5775 0.81548 0.41217 0.0
C475 C 0.55457 0.7947 0.43045 0.0
C476 C 0.58853 0.82312 0.43024 0.0
C477 C 0.56596 0.80274 0.4482 0.0
C478 C 0.50992 0.75461 0.34839 0.0
C479 C 0.49505 0.74063 0.35492 0.0
C480 C 0.5109 0.75624 0.32798 0.0
C481 C 0.48129 0.72852 0.34084 0.0
C482 C 0.49687 0.74384 0.31438 0.0
N483 N 0.48247 0.73037 0.32103 0.0
C484 C 0.50768 0.74441 0.41679 0.0
C485 C 0.53968 0.74091 0.40813 0.0
C486 C 0.50729 0.72781 0.42832 0.0
N487 N 0.52378 0.75066 0.40712 0.0
C488 C 0.53979 0.72405 0.41923 0.0
C489 C 0.52345 0.71735 0.42954 0.0
H490 H 0.49507 0.75217 0.41538 0.0
H491 H 0.55226 0.74622 0.40024 0.0
C492 C 0.58127 0.80808 0.35273 0.0
N493 N 0.5664 0.79188 0.35052 0.0
C494 C 0.59869 0.80744 0.3436 0.0
C495 C 0.58493 0.7737 0.32952 0.0
C496 C 0.56791 0.7749 0.33913 0.0
C497 C 0.60084 0.79001 0.33185 0.0
H498 H 0.57975 0.82141 0.36189 0.0
H499 H 0.55598 0.76214 0.33768 0.0
O500 O 0.50382 0.79025 0.39368 0.0
O501 O 0.52759 0.8143 0.36214 0.0
O502 O 0.54946 0.7934 0.39478 0.0
O503 O 0.52308 0.76706 0.36196 0.0
H504 H 0.48572 0.81956 0.3806 0.0
H505 H 0.49616 0.78504 0.43095 0.0
H506 H 0.46545 0.83895 0.40049 0.0
H507 H 0.47549 0.80481 0.44986 0.0
H508 H 0.52805 0.82114 0.29567 0.0
H509 H 0.50287 0.84069 0.35886 0.0
H510 H 0.53901 0.80615 0.32656 0.0
H511 H 0.49231 0.85484 0.32733 0.0
H512 H 0.5236 0.85055 0.45471 0.0
H513 H 0.53272 0.88502 0.40356 0.0
H514 H 0.43382 0.77318 0.35792 0.0
H515 H 0.45796 0.79015 0.3035 0.0
H516 H 0.58224 0.82062 0.39827 0.0
H517 H 0.54126 0.78379 0.43087 0.0
H518 H 0.60183 0.83419 0.43037 0.0
H519 H 0.56157 0.79795 0.46235 0.0
H520 H 0.49403 0.73932 0.37069 0.0
H521 H 0.52218 0.76717 0.32271 0.0
H522 H 0.46963 0.7177 0.34566 0.0
H523 H 0.49736 0.74501 0.29853 0.0
H524 H 0.4943 0.7229 0.43581 0.0
H525 H 0.55254 0.7164 0.41985 0.0
H526 H 0.6105 0.82033 0.34616 0.0
H527 H 0.58553 0.76007 0.32035 0.0
Li528 Li 0.49579 0.28635 0.64177 0.0
Li529 Li 0.513 0.27327 0.66982 0.0
Li530 Li 0.49341 0.24915 0.64381 0.0
Li531 Li 0.47652 0.26991 0.66817 0.0
C532 C 0.53379 0.27668 0.63375 0.0
N533 N 0.5684 0.29151 0.61805 0.0
C534 C 0.54568 0.2945 0.64232 0.0
C535 C 0.5395 0.26636 0.61723 0.0
C536 C 0.56313 0.30175 0.63416 0.0
C537 C 0.55704 0.27412 0.60949 0.0
C538 C 0.5034 0.31187 0.68255 0.0
C539 C 0.50522 0.33107 0.71421 0.0
N540 N 0.51779 0.34626 0.70743 0.0
C541 C 0.51614 0.32776 0.67581 0.0
C542 C 0.49771 0.31358 0.70183 0.0
C543 C 0.52333 0.34499 0.68865 0.0
C544 C 0.48614 0.32289 0.62901 0.0
N545 N 0.49619 0.3077 0.62422 0.0
C546 C 0.50676 0.32405 0.59567 0.0
C547 C 0.5062 0.30788 0.60778 0.0
C548 C 0.4968 0.34016 0.60043 0.0
C549 C 0.48626 0.33933 0.6173 0.0
H550 H 0.47823 0.32234 0.64213 0.0
H551 H 0.51379 0.29549 0.60402 0.0
C552 C 0.5489 0.26126 0.68278 0.0
N553 N 0.53827 0.27632 0.68632 0.0
C554 C 0.56783 0.26196 0.69268 0.0
C555 C 0.56505 0.29401 0.70937 0.0
C556 C 0.54593 0.29248 0.69947 0.0
C557 C 0.57624 0.2786 0.70602 0.0
H558 H 0.54273 0.24877 0.67198 0.0
H559 H 0.53748 0.30438 0.70214 0.0
C560 C 0.46311 0.26363 0.61875 0.0
N561 N 0.44661 0.26088 0.5796 0.0
C562 C 0.44309 0.26494 0.6144 0.0
C563 C 0.47477 0.26102 0.60322 0.0
C564 C 0.43501 0.26347 0.59449 0.0
C565 C 0.46615 0.25965 0.58352 0.0
C566 C 0.50134 0.24221 0.69053 0.0
C567 C 0.51046 0.22506 0.68993 0.0
C568 C 0.50117 0.25324 0.70871 0.0
C569 C 0.5195 0.21934 0.7076 0.0
C570 C 0.51037 0.24704 0.72605 0.0
N571 N 0.51928 0.23037 0.72514 0.0
C572 C 0.51072 0.21695 0.63059 0.0
C573 C 0.47723 0.21383 0.61694 0.0
C574 C 0.51291 0.19939 0.61948 0.0
N575 N 0.49318 0.22392 0.629 0.0
C576 C 0.47882 0.19622 0.60539 0.0
C577 C 0.49695 0.18888 0.60637 0.0
H578 H 0.52313 0.22525 0.64035 0.0
H579 H 0.4634 0.21963 0.61598 0.0
C580 C 0.44273 0.28568 0.67791 0.0
N581 N 0.45323 0.27057 0.68169 0.0
C582 C 0.42531 0.28682 0.6868 0.0
C583 C 0.42977 0.25682 0.70339 0.0
C584 C 0.44711 0.25624 0.69413 0.0
C585 C 0.41854 0.27227 0.69979 0.0
H586 H 0.44784 0.29679 0.66781 0.0
H587 H 0.45567 0.24431 0.69683 0.0
O588 O 0.51665 0.26925 0.64145 0.0
O589 O 0.49613 0.29491 0.67021 0.0
O590 O 0.47128 0.26514 0.63814 0.0
O591 O 0.49286 0.24837 0.67335 0.0
H592 H 0.54154 0.30257 0.65517 0.0
H593 H 0.5304 0.25257 0.6104 0.0
H594 H 0.5725 0.31552 0.64066 0.0
H595 H 0.56162 0.26633 0.59667 0.0
H596 H 0.50104 0.33257 0.7292 0.0
H597 H 0.52042 0.32683 0.66082 0.0
H598 H 0.48761 0.30154 0.70715 0.0
H599 H 0.53329 0.35737 0.68367 0.0
H600 H 0.51481 0.32388 0.58264 0.0
H601 H 0.47854 0.35147 0.62169 0.0
H602 H 0.57605 0.24987 0.68949 0.0
H603 H 0.57099 0.30708 0.7196 0.0
H604 H 0.43391 0.26704 0.62629 0.0
H605 H 0.49032 0.26006 0.60635 0.0
H606 H 0.41952 0.26441 0.59088 0.0
H607 H 0.47499 0.25761 0.57135 0.0
H608 H 0.5107 0.21637 0.67595 0.0
H609 H 0.49416 0.26655 0.70938 0.0
H610 H 0.52672 0.20617 0.70737 0.0
H611 H 0.51046 0.25549 0.74022 0.0
H612 H 0.52704 0.19414 0.62117 0.0
H613 H 0.46613 0.18876 0.59544 0.0
H614 H 0.41708 0.29883 0.68326 0.0
H615 H 0.42535 0.2454 0.71345 0.0
Li616 Li 0.02511 0.31101 0.88911 0.0
Li617 Li 0.00541 0.28858 0.86347 0.0
Li618 Li 0.02386 0.2749 0.89064 0.0
Li619 Li 0.04199 0.29194 0.86365 0.0
C620 C 0.99332 0.3011 0.90575 0.0
N621 N 0.9772 0.32435 0.93306 0.0
C622 C 0.97947 0.31309 0.89925 0.0
C623 C 0.99901 0.30103 0.92617 0.0
C624 C 0.97146 0.32468 0.91329 0.0
C625 C 0.99069 0.31287 0.93973 0.0
C626 C 0.0179 0.31936 0.84172 0.0
C627 C 0.02038 0.32288 0.80668 0.0
N628 N 0.00406 0.33202 0.80565 0.0
C629 C 1.00114 0.32879 0.84031 0.0
C630 C 0.02761 0.31638 0.82477 0.0
C631 C 0.99437 0.33508 0.82194 0.0
C632 C 0.03701 0.34043 0.92296 0.0
N633 N 0.02659 0.33649 0.90461 0.0
C634 C 0.01376 0.36743 0.90834 0.0
C635 C 0.01546 0.3498 0.89708 0.0
C636 C 0.02392 0.37177 0.92757 0.0
C637 C 0.0359 0.35806 0.93473 0.0
H638 H 0.04587 0.32974 0.92866 0.0
H639 H 0.00723 0.34636 0.88258 0.0
C640 C 0.96371 0.27896 0.85709 0.0
N641 N 0.97986 0.28333 0.84694 0.0
C642 C 0.94458 0.27717 0.84739 0.0
C643 C 0.9587 0.28238 0.81638 0.0
C644 C 0.97766 0.28432 0.82678 0.0
C645 C 0.94185 0.27934 0.82684 0.0
H646 H 0.96565 0.27727 0.87291 0.0
H647 H 0.99057 0.28714 0.81876 0.0
C648 C 0.06059 0.2888 0.9069 0.0
N649 N 0.08532 0.27238 0.93367 0.0
C650 C 0.07661 0.28063 0.90046 0.0
C651 C 0.05723 0.28869 0.92698 0.0
C652 C 0.08893 0.27239 0.91422 0.0
C653 C 0.06986 0.28029 0.94027 0.0
C654 C 0.00981 0.25276 0.84904 0.0
C655 C 0.99559 0.23892 0.85669 0.0
C656 C 0.01061 0.25266 0.82844 0.0
C657 C 0.98234 0.22516 0.84353 0.0
C658 C 0.99711 0.23865 0.81579 0.0
N659 N 0.98337 0.22532 0.82353 0.0
C660 C 0.0103 0.24833 0.91993 0.0
C661 C 0.03781 0.24029 0.90431 0.0
C662 C 0.01036 0.2317 0.93139 0.0
N663 N 0.02405 0.25243 0.90687 0.0
C664 C 0.0384 0.22351 0.91543 0.0
C665 C 0.02451 0.21897 0.92919 0.0
H666 H 0.99903 0.25771 0.92118 0.0
H667 H 0.04828 0.24358 0.8935 0.0
C668 C 0.08007 0.30819 0.85246 0.0
N669 N 0.06519 0.29199 0.84954 0.0
C670 C 0.09777 0.30784 0.84376 0.0
C671 C 0.08438 0.27432 0.82884 0.0
C672 C 0.06705 0.27524 0.83799 0.0
C673 C 0.10024 0.29065 0.83182 0.0
H674 H 0.07838 0.32122 0.86198 0.0
H675 H 0.05521 0.2624 0.83615 0.0
O676 O 1.0017 0.28999 0.89219 0.0
O677 O 0.02499 0.31335 0.85961 0.0
O678 O 0.04818 0.29668 0.89358 0.0
O679 O 0.02251 0.2667 0.86165 0.0
H680 H 0.97525 0.31381 0.88352 0.0
H681 H 0.00993 0.29217 0.93151 0.0
H682 H 0.96082 0.3341 0.90844 0.0
H683 H 0.99504 0.313 0.95555 0.0
H684 H 0.02775 0.32065 0.79345 0.0
H685 H 0.99307 0.33077 0.85306 0.0
H686 H 0.04058 0.30913 0.82552 0.0
H687 H 0.98133 0.34224 0.82061 0.0
H688 H 0.00404 0.37721 0.9022 0.0
H689 H 0.0443 0.36084 0.94929 0.0
H690 H 0.932 0.27427 0.85595 0.0
H691 H 0.95727 0.284 0.80049 0.0
H692 H 0.07944 0.28045 0.88499 0.0
H693 H 0.04483 0.29476 0.93223 0.0
H694 H 0.10133 0.26595 0.90941 0.0
H695 H 0.06734 0.28 0.95582 0.0
H696 H 0.99468 0.23894 0.87259 0.0
H697 H 0.0213 0.26352 0.82228 0.0
H698 H 0.97121 0.2144 0.84922 0.0
H699 H 0.99747 0.23847 0.79981 0.0
H700 H 0.99908 0.22853 0.94146 0.0
H701 H 0.04961 0.21417 0.91325 0.0
H702 H 0.10956 0.3207 0.84684 0.0
H703 H 0.08527 0.26085 0.81955 0.0
Li704 Li 0.41302 0.06723 0.27287 0.0
Li705 Li 0.38295 0.0489 0.25166 0.0
Li706 Li 0.41039 0.06619 0.23541 0.0
Li707 Li 0.38819 0.08614 0.25345 0.0
C708 C 0.42685 0.03498 0.25035 0.0
N709 N 0.46001 0.01807 0.2439 0.0
C710 C 0.42477 0.01506 0.24215 0.0
C711 C 0.44575 0.04632 0.25527 0.0
C712 C 0.44173 0.00678 0.239 0.0
C713 C 0.46235 0.03748 0.25191 0.0
C714 C 0.37168 0.06762 0.28957 0.0
C715 C 0.34093 0.07431 0.30093 0.0
N716 N 0.34565 0.06637 0.31844 0.0
C717 C 0.37625 0.05958 0.30769 0.0
C718 C 0.3539 0.0751 0.28617 0.0
C719 C 0.36288 0.05906 0.32209 0.0
C720 C 0.43756 0.08249 0.30968 0.0
N721 N 0.42854 0.0658 0.29789 0.0
C722 C 0.43725 0.0443 0.32309 0.0
C723 C 0.42852 0.04695 0.30411 0.0
C724 C 0.44622 0.06121 0.3359 0.0
C725 C 0.44665 0.08052 0.3288 0.0
H726 H 0.4372 0.09735 0.30449 0.0
H727 H 0.42108 0.03393 0.29454 0.0
C728 C 0.36462 0.01011 0.23516 0.0
N729 N 0.36396 0.02428 0.25024 0.0
C730 C 0.35275 0.99107 0.23429 0.0
C731 C 0.33953 1.00153 0.26438 0.0
C732 C 0.35151 0.02041 0.26455 0.0
C733 C 0.34023 0.98638 0.24927 0.0
H734 H 0.37473 0.01346 0.22401 0.0
H735 H 0.35121 0.03167 0.27651 0.0
C736 C 0.43029 0.10661 0.25018 0.0
N737 N 0.45473 0.1395 0.23845 0.0
C738 C 0.42272 0.11905 0.23662 0.0
C739 C 0.45023 0.11093 0.25788 0.0
C740 C 0.43533 0.13561 0.23086 0.0
C741 C 0.46236 0.12762 0.25172 0.0
C742 C 0.36454 0.05758 0.21812 0.0
C743 C 0.36524 0.04733 0.19963 0.0
C744 C 0.34627 0.05791 0.22552 0.0
C745 C 0.34763 0.03731 0.18897 0.0
C746 C 0.32899 0.04768 0.21444 0.0
N747 N 0.33003 0.03767 0.19655 0.0
C748 C 0.42039 0.04556 0.20091 0.0
C749 C 0.43916 0.07839 0.20706 0.0
C750 C 0.42968 0.04217 0.18369 0.0
N751 N 0.42508 0.06351 0.21218 0.0
C752 C 0.44884 0.07563 0.18996 0.0
C753 C 0.44411 0.05734 0.17789 0.0
H754 H 0.40934 0.03381 0.2053 0.0
H755 H 0.44295 0.0925 0.21607 0.0
C756 C 0.37678 0.12176 0.27143 0.0
N757 N 0.37511 0.10952 0.25434 0.0
C758 C 0.36597 0.13774 0.27261 0.0
C759 C 0.35222 0.1285 0.23846 0.0
C760 C 0.3633 0.11274 0.23794 0.0
C761 C 0.35324 0.14117 0.25604 0.0
H762 H 0.38615 0.11879 0.28434 0.0
H763 H 0.36224 0.10286 0.22449 0.0
O764 O 0.41042 0.0435 0.25304 0.0
O765 O 0.38465 0.06832 0.27535 0.0
O766 O 0.41823 0.09037 0.25606 0.0
O767 O 0.38164 0.06716 0.22897 0.0
H768 H 0.4102 0.00615 0.23816 0.0
H769 H 0.44758 0.06182 0.26146 0.0
H770 H 0.44036 0.9914 0.23262 0.0
H771 H 0.47709 0.04608 0.2556 0.0
H772 H 0.32711 0.08003 0.29848 0.0
H773 H 0.3899 0.05371 0.3106 0.0
H774 H 0.35011 0.08146 0.27231 0.0
H775 H 0.36622 0.05284 0.33616 0.0
H776 H 0.43675 0.02913 0.32778 0.0
H777 H 0.45326 0.09398 0.3382 0.0
H778 H 0.3536 0.98007 0.22214 0.0
H779 H 0.33039 0.99864 0.27643 0.0
H780 H 0.40733 0.11584 0.23048 0.0
H781 H 0.45626 0.10146 0.26845 0.0
H782 H 0.42972 0.14534 0.22031 0.0
H783 H 0.47784 0.13112 0.2575 0.0
H784 H 0.3792 0.04712 0.19353 0.0
H785 H 0.34546 0.06579 0.23977 0.0
H786 H 0.34797 0.02925 0.17467 0.0
H787 H 0.31477 0.04769 0.22007 0.0
H788 H 0.42572 0.02767 0.17516 0.0
H789 H 0.4597 0.08789 0.18611 0.0
H790 H 0.36711 0.1469 0.28656 0.0
H791 H 0.34291 0.13069 0.2252 0.0
Li792 Li 0.27613 0.17029 0.51577 0.0
Li793 Li 0.28833 0.14306 0.50029 0.0
Li794 Li 0.27864 0.16746 0.47978 0.0
Li795 Li 0.25357 0.14164 0.49404 0.0
C796 C 0.30972 0.19181 0.50331 0.0
N797 N 0.32792 0.23181 0.50611 0.0
C798 C 0.33021 0.19692 0.50835 0.0
C799 C 0.29856 0.20709 0.49964 0.0
C800 C 0.33912 0.21721 0.50973 0.0
C801 C 0.308 0.2272 0.50112 0.0
C802 C 0.27573 0.12925 0.53341 0.0
C803 C 0.27534 0.09623 0.54554 0.0
N804 N 0.29057 0.10405 0.5596 0.0
C805 C 0.29125 0.13702 0.54809 0.0
C806 C 0.26759 0.10874 0.53218 0.0
C807 C 0.2986 0.124 0.56115 0.0
C808 C 0.25711 0.18924 0.54311 0.0
N809 N 0.27556 0.18776 0.53824 0.0
C810 C 0.29035 0.21052 0.56599 0.0
C811 C 0.2921 0.19796 0.54924 0.0
C812 C 0.27141 0.21246 0.57132 0.0
C813 C 0.25466 0.20177 0.5595 0.0
H814 H 0.24429 0.18065 0.53417 0.0
H815 H 0.3066 0.19612 0.54521 0.0
C816 C 0.3027 0.10535 0.50263 0.0
N817 N 0.3074 0.12581 0.50563 0.0
C818 C 0.31671 0.09322 0.50808 0.0
C819 C 0.33993 0.12343 0.52005 0.0
C820 C 0.32555 0.13495 0.51421 0.0
C821 C 0.33556 0.10229 0.51701 0.0
H822 H 0.28792 0.0984 0.49649 0.0
H823 H 0.3287 0.15118 0.5169 0.0
C824 C 0.24064 0.18249 0.48866 0.0
N825 N 0.21082 0.20418 0.47793 0.0
C826 C 0.22465 0.17385 0.47483 0.0
C827 C 0.24141 0.2022 0.49706 0.0
C828 C 0.20974 0.18505 0.46959 0.0
C829 C 0.2262 0.2129 0.49143 0.0
C830 C 0.28055 0.12386 0.46386 0.0
C831 C 0.29973 0.12922 0.45851 0.0
C832 C 0.27032 0.10423 0.45895 0.0
C833 C 0.30852 0.1147 0.44857 0.0
C834 C 0.27961 0.09015 0.44897 0.0
N835 N 0.29836 0.09562 0.44405 0.0
C836 C 0.30241 0.18778 0.45292 0.0
C837 C 0.26849 0.1912 0.44855 0.0
C838 C 0.3068 0.20128 0.43843 0.0
N839 N 0.28354 0.18327 0.45786 0.0
C840 C 0.27225 0.20496 0.43427 0.0
C841 C 0.29163 0.21031 0.4293 0.0
H842 H 0.31415 0.18136 0.46065 0.0
H843 H 0.25362 0.18716 0.45238 0.0
C844 C 0.22 0.12392 0.50948 0.0
N845 N 0.22786 0.12629 0.4919 0.0
C846 C 0.2009 0.11337 0.5098 0.0
C847 C 0.19815 0.10811 0.47382 0.0
C848 C 0.21755 0.11845 0.47423 0.0
C849 C 0.18969 0.1055 0.4918 0.0
H850 H 0.22856 0.13043 0.52327 0.0
H851 H 0.22424 0.12059 0.46049 0.0
O852 O 0.30083 0.17194 0.50203 0.0
O853 O 0.26867 0.14164 0.52019 0.0
O854 O 0.25527 0.17158 0.49413 0.0
O855 O 0.27169 0.13783 0.47361 0.0
H856 H 0.33918 0.18536 0.51118 0.0
H857 H 0.28283 0.20347 0.49546 0.0
H858 H 0.35494 0.22135 0.51365 0.0
H859 H 0.29949 0.23914 0.49826 0.0
H860 H 0.2693 0.08029 0.54467 0.0
H861 H 0.29772 0.15287 0.54919 0.0
H862 H 0.2556 0.10252 0.52085 0.0
H863 H 0.31072 0.12975 0.57248 0.0
H864 H 0.30365 0.21819 0.57492 0.0
H865 H 0.23978 0.20299 0.5629 0.0
H866 H 0.31272 0.07694 0.50574 0.0
H867 H 0.35435 0.131 0.52676 0.0
H868 H 0.22395 0.15882 0.4679 0.0
H869 H 0.25355 0.20924 0.50784 0.0
H870 H 0.19735 0.17855 0.45882 0.0
H871 H 0.22664 0.22815 0.49781 0.0
H872 H 0.30783 0.14436 0.46225 0.0
H873 H 0.25543 0.09989 0.46295 0.0
H874 H 0.32342 0.11858 0.44448 0.0
H875 H 0.27193 0.07486 0.44516 0.0
H876 H 0.32192 0.20507 0.43483 0.0
H877 H 0.26012 0.21138 0.42719 0.0
H878 H 0.19475 0.11182 0.52392 0.0
H879 H 0.18988 0.10218 0.45968 0.0
Li880 Li 0.16034 0.02693 0.78853 0.0
Li881 Li 0.13428 0.00457 0.80332 0.0
Li882 Li 0.15861 0.98981 0.78681 0.0
Li883 Li 0.13268 0.00483 0.76796 0.0
C884 C 0.16909 0.0208 0.8286 0.0
N885 N 0.17934 0.04438 0.86418 0.0
C886 C 0.15786 0.03554 0.83395 0.0
C887 C 0.1855 0.01806 0.84137 0.0
C888 C 0.16328 0.04728 0.85201 0.0
C889 C 0.19046 0.03015 0.85927 0.0
C890 C 0.11855 0.03863 0.77818 0.0
C891 C 0.0862 0.04046 0.76177 0.0
N892 N 0.09248 0.06016 0.75876 0.0
C893 C 0.1246 0.05895 0.77509 0.0
C894 C 0.09912 0.02936 0.77164 0.0
C895 C 0.11123 0.06956 0.76519 0.0
C896 C 0.17625 0.06049 0.76958 0.0
N897 N 0.17688 0.05294 0.78782 0.0
C898 C 0.19755 0.08345 0.80229 0.0
C899 C 0.18769 0.06383 0.80397 0.0
C900 C 0.19654 0.09188 0.78376 0.0
C901 C 0.18601 0.07994 0.76719 0.0
H902 H 0.16757 0.05157 0.75695 0.0
H903 H 0.18853 0.05756 0.81825 0.0
C904 C 0.12495 0.99636 0.84299 0.0
N905 N 0.1181 0.00231 0.82513 0.0
C906 C 0.1133 0.99582 0.85893 0.0
C907 C 0.08736 0.00636 0.83744 0.0
C908 C 0.09963 0.0071 0.82212 0.0
C909 C 0.09424 1.0011 0.85636 0.0
H910 H 0.13962 0.99239 0.84499 0.0
H911 H 0.09438 0.01151 0.80779 0.0
C912 C 0.17892 0.00842 0.75748 0.0
N913 N 0.21465 0.00747 0.74217 0.0
C914 C 0.17931 0.00324 0.73719 0.0
C915 C 0.19665 0.01311 0.77001 0.0
C916 C 0.19754 0.00284 0.72973 0.0
C917 C 0.21458 0.01256 0.76197 0.0
C918 C 0.11727 0.96783 0.79322 0.0
C919 C 0.12531 0.95612 0.80722 0.0
C920 C 0.09672 0.96679 0.79003 0.0
C921 C 0.11262 0.94362 0.81794 0.0
C922 C 0.08454 0.9541 0.80105 0.0
N923 N 0.09267 0.94289 0.81467 0.0
C924 C 0.18424 0.96297 0.80112 0.0
C925 C 0.17262 0.95816 0.76674 0.0
C926 C 0.19449 0.94665 0.79936 0.0
N927 N 0.17357 0.96832 0.78492 0.0
C928 C 0.18276 0.9419 0.76426 0.0
C929 C 0.19382 0.93579 0.78072 0.0
H930 H 0.18455 0.97121 0.81545 0.0
H931 H 0.16391 0.96269 0.75414 0.0
C932 C 0.12215 0.01951 0.73184 0.0
N933 N 0.11754 0.00356 0.74287 0.0
C934 C 0.11183 0.02016 0.71321 0.0
C935 C 0.09246 0.98764 0.71738 0.0
C936 C 0.10311 0.9877 0.73607 0.0
C937 C 0.09682 0.00403 0.70566 0.0
H938 H 0.13377 0.03185 0.73766 0.0
H939 H 0.09997 0.97508 0.74509 0.0
O940 O 0.16394 0.00876 0.81122 0.0
O941 O 0.13153 0.02801 0.78776 0.0
O942 O 0.16118 0.00842 0.76506 0.0
O943 O 0.1295 0.98062 0.78306 0.0
H944 H 0.14513 0.03797 0.82432 0.0
H945 H 0.1943 0.00667 0.83747 0.0
H946 H 0.15473 0.05872 0.85633 0.0
H947 H 0.20314 0.02819 0.86928 0.0
H948 H 0.07121 0.03339 0.75642 0.0
H949 H 0.13939 0.06653 0.78045 0.0
H950 H 0.09418 0.0136 0.77371 0.0
H951 H 0.11575 0.08528 0.76267 0.0
H952 H 0.2058 0.09198 0.81539 0.0
H953 H 0.1847 0.08584 0.75265 0.0
H954 H 0.11942 0.99185 0.87321 0.0
H955 H 0.07262 0.00999 0.83442 0.0
H956 H 0.16565 0.99947 0.72736 0.0
H957 H 0.19655 0.017 0.78579 0.0
H958 H 0.19808 0.99881 0.71407 0.0
H959 H 0.22844 0.01613 0.77148 0.0
H960 H 0.14119 0.95688 0.80996 0.0
H961 H 0.09027 0.9759 0.77939 0.0
H962 H 0.11864 0.93455 0.82891 0.0
H963 H 0.06862 0.95325 0.79885 0.0
H964 H 0.20253 0.94238 0.81255 0.0
H965 H 0.18202 0.9343 0.74954 0.0
H966 H 0.11547 0.03329 0.70493 0.0
H967 H 0.08118 0.97479 0.71204 0.0
Li968 Li 0.20678 0.90735 0.02473 0.0
Li969 Li 0.22547 0.88163 0.04258 0.0
Li970 Li 0.24317 0.90878 0.0246 0.0
Li971 Li 0.22265 0.88047 0.00479 0.0
C972 C 0.2402 0.9268 0.05953 0.0
N973 N 0.26666 0.95715 0.08172 0.0
C974 C 0.251 0.92259 0.0769 0.0
C975 C 0.24278 0.94649 0.05352 0.0
C976 C 0.26432 0.93812 0.0879 0.0
C977 C 0.25624 0.96161 0.06491 0.0
C978 C 0.18893 0.85897 0.02645 0.0
C979 C 0.18388 0.82286 0.0284 0.0
N980 N 0.16577 0.8236 0.03472 0.0
C981 C 0.17029 0.85941 0.033 0.0
C982 C 0.19581 0.84059 0.02414 0.0
C983 C 0.15879 0.84134 0.03709 0.0
C984 C 0.16621 0.91403 0.0156 0.0
N985 N 0.18438 0.92227 0.02504 0.0
C986 C 0.17199 0.9526 0.03447 0.0
C987 C 0.18734 0.94112 0.03458 0.0
C988 C 0.15311 0.94457 0.0248 0.0
C989 C 0.15028 0.92487 0.01547 0.0
H990 H 0.16408 0.89906 0.00803 0.0
H991 H 0.20167 0.94741 0.04224 0.0
C992 C 0.24678 0.86612 0.07463 0.0
N993 N 0.22799 0.86651 0.0664 0.0
C994 C 0.25022 0.85701 0.09247 0.0
C995 C 0.21491 0.84805 0.09293 0.0
C996 C 0.21215 0.85769 0.07524 0.0
C997 C 0.23419 0.84775 0.10208 0.0
H998 H 0.25922 0.87342 0.06756 0.0
H999 H 0.1973 0.85829 0.06875 0.0
C1000 C 0.23025 0.92506 0.99052 0.0
N1001 N 0.2449 0.95563 0.96774 0.0
C1002 C 0.24531 0.9225 0.97851 0.0
C1003 C 0.22254 0.94309 0.99083 0.0
C1004 C 0.25255 0.93816 0.96714 0.0
C1005 C 0.23017 0.95838 0.97923 0.0
C1006 C 0.25677 0.86661 0.01692 0.0
C1007 C 0.26885 0.87178 1.00187 0.0
C1008 C 0.25576 0.8475 0.02421 0.0
C1009 C 0.27958 0.85762 0.9942 0.0
C1010 C 0.26674 0.83378 0.01617 0.0
N1011 N 0.2783 0.83907 1.00144 0.0
C1012 C 0.28467 0.91716 0.03242 0.0
C1013 C 0.27197 0.94472 0.01896 0.0
C1014 C 0.30411 0.92711 0.03217 0.0
N1015 N 0.26903 0.92579 0.02545 0.0
C1016 C 0.29117 0.95522 0.01839 0.0
C1017 C 0.30761 0.94631 0.02479 0.0
H1018 H 0.28209 0.90229 0.03787 0.0
H1019 H 0.25947 0.95174 0.01409 0.0
C1020 C 0.21873 0.87479 0.9624 0.0
N1021 N 0.22136 0.86459 0.97899 0.0
C1022 C 0.2211 0.86621 0.94352 0.0
C1023 C 0.22724 0.83594 0.95859 0.0
C1024 C 0.22508 0.84525 0.9773 0.0
C1025 C 0.22577 0.84664 0.94142 0.0
H1026 H 0.21534 0.88992 0.96382 0.0
H1027 H 0.2271 0.83721 0.99047 0.0
O1028 O 0.22731 0.91171 0.04839 0.0
O1029 O 0.20051 0.87651 0.02264 0.0
O1030 O 0.22285 0.90989 1.00168 0.0
O1031 O 0.24605 0.8802 0.02452 0.0
H1032 H 0.24908 0.90752 0.08191 0.0
H1033 H 0.23489 0.94996 0.03989 0.0
H1034 H 0.27279 0.93505 0.10136 0.0
H1035 H 0.25852 0.97686 0.06029 0.0
H1036 H 0.18905 0.80852 0.02673 0.0
H1037 H 0.16483 0.87356 0.03504 0.0
H1038 H 0.21031 0.84007 0.01937 0.0
H1039 H 0.14435 0.84144 0.0422 0.0
H1040 H 0.17484 0.9676 0.04208 0.0
H1041 H 0.13602 0.91808 0.00774 0.0
H1042 H 0.26538 0.85772 0.09884 0.0
H1043 H 0.20194 0.84091 0.09928 0.0
H1044 H 0.2514 0.90863 0.97805 0.0
H1045 H 0.21082 0.94527 0.99996 0.0
H1046 H 0.26427 0.93644 0.95786 0.0
H1047 H 0.22439 0.97244 0.97937 0.0
H1048 H 0.26988 0.88654 0.99615 0.0
H1049 H 0.24646 0.84325 0.03583 0.0
H1050 H 0.28892 0.86138 0.98249 0.0
H1051 H 0.26603 0.81891 0.0216 0.0
H1052 H 0.31626 0.91957 0.03719 0.0
H1053 H 0.29312 0.97018 0.01302 0.0
H1054 H 0.21945 0.87491 0.93068 0.0
H1055 H 0.23084 0.82082 0.95771 0.0
Li1056 Li 0.23228 0.41621 0.03126 0.0
Li1057 Li 0.24275 0.39161 0.05216 0.0
Li1058 Li 0.26746 0.41609 0.03636 0.0
Li1059 Li 0.24422 0.38786 0.01625 0.0
C1060 C 0.24106 0.43132 0.07095 0.0
N1061 N 0.22307 0.45144 0.09907 0.0
C1062 C 0.22234 0.42297 0.07585 0.0
C1063 C 0.25064 0.44987 0.08031 0.0
C1064 C 0.2135 0.43338 0.09013 0.0
C1065 C 0.24129 0.45982 0.09449 0.0
C1066 C 0.20686 0.37044 0.03145 0.0
C1067 C 0.19869 0.33421 0.03187 0.0
N1068 N 0.17959 0.336 0.03421 0.0
C1069 C 0.18714 0.37192 0.03389 0.0
C1070 C 0.21269 0.35144 0.03049 0.0
C1071 C 0.17358 0.35433 0.03524 0.0
C1072 C 0.1962 0.42556 0.01602 0.0
N1073 N 0.21348 0.43353 0.02714 0.0
C1074 C 0.2038 0.46605 0.02975 0.0
C1075 C 0.2176 0.45335 0.03395 0.0
C1076 C 0.18576 0.45821 0.01833 0.0
C1077 C 0.18201 0.43768 0.01146 0.0
H1078 H 0.19361 0.40985 0.01041 0.0
H1079 H 0.23175 0.45938 0.04224 0.0
C1080 C 0.25687 0.37617 0.08688 0.0
N1081 N 0.23991 0.37719 0.07523 0.0
C1082 C 0.25649 0.36383 0.10273 0.0
C1083 C 0.22117 0.35395 0.09434 0.0
C1084 C 0.22215 0.36704 0.07916 0.0
C1085 C 0.23853 0.35197 0.10633 0.0
H1086 H 0.27077 0.38462 0.08353 0.0
H1087 H 0.20872 0.36862 0.07029 0.0
C1088 C 0.24159 0.42622 0.99618 0.0
N1089 N 0.22076 0.44572 0.9685 0.0
C1090 C 0.2278 0.41507 0.98144 0.0
C1091 C 0.24479 0.44734 0.99675 0.0
C1092 C 0.21744 0.42518 0.96759 0.0
C1093 C 0.23409 0.4569 0.98268 0.0
C1094 C 0.27531 0.37034 0.03546 0.0
C1095 C 0.29261 0.37251 0.02586 0.0
C1096 C 0.26838 0.35179 0.04274 0.0
C1097 C 0.30239 0.35599 0.02327 0.0
C1098 C 0.27859 0.33562 0.03988 0.0
N1099 N 0.29522 0.33803 0.03026 0.0
C1100 C 0.30893 0.42281 0.04666 0.0
C1101 C 0.29597 0.45018 0.03299 0.0
C1102 C 0.32828 0.43292 0.04642 0.0
N1103 N 0.29333 0.43128 0.03935 0.0
C1104 C 0.31501 0.46094 0.03268 0.0
C1105 C 0.33153 0.45209 0.03892 0.0
H1106 H 0.30637 0.40794 0.05212 0.0
H1107 H 0.2833 0.45677 0.02782 0.0
C1108 C 0.22507 0.35777 0.98585 0.0
N1109 N 0.24255 0.36914 0.99381 0.0
C1110 C 0.22459 0.34394 0.96951 0.0
C1111 C 0.2599 0.35448 0.9693 0.0
C1112 C 0.25964 0.3682 0.9855 0.0
C1113 C 0.24223 0.34207 0.96123 0.0
H1114 H 0.21143 0.35969 0.99186 0.0
H1115 H 0.273 0.37842 0.99121 0.0
O1116 O 0.24982 0.42166 0.05671 0.0
O1117 O 0.22036 0.3876 0.03052 0.0
O1118 O 0.25138 0.41654 0.01031 0.0
O1119 O 0.26561 0.38646 0.03825 0.0
H1120 H 0.21464 0.40874 0.06853 0.0
H1121 H 0.26509 0.45655 0.07654 0.0
H1122 H 0.19899 0.42715 0.09405 0.0
H1123 H 0.2485 0.47423 0.10183 0.0
H1124 H 0.20302 0.31942 0.03106 0.0
H1125 H 0.18239 0.3865 0.035 0.0
H1126 H 0.22779 0.34999 0.02842 0.0
H1127 H 0.15829 0.35527 0.03719 0.0
H1128 H 0.20735 0.48186 0.03508 0.0
H1129 H 0.1682 0.43099 0.00279 0.0
H1130 H 0.27022 0.36357 0.11189 0.0
H1131 H 0.20693 0.34517 0.09617 0.0
H1132 H 0.22484 0.39879 0.98083 0.0
H1133 H 0.25501 0.45633 0.00821 0.0
H1134 H 0.20668 0.41669 0.95619 0.0
H1135 H 0.2363 0.47322 0.98311 0.0
H1136 H 0.29828 0.38675 0.02016 0.0
H1137 H 0.25536 0.34986 0.05068 0.0
H1138 H 0.31567 0.35745 0.01569 0.0
H1139 H 0.27333 0.32118 0.04538 0.0
H1140 H 0.34051 0.42545 0.05136 0.0
H1141 H 0.31676 0.47591 0.02734 0.0
H1142 H 0.2106 0.3349 0.96335 0.0
H1143 H 0.27365 0.35403 0.96278 0.0
Li1144 Li 0.79705 0.17907 0.02451 0.0
Li1145 Li 0.81321 0.15446 0.00602 0.0
Li1146 Li 0.79514 0.1802 0.98709 0.0
Li1147 Li 0.77679 0.15074 0.00332 0.0
C1148 C 0.83248 0.20144 0.01555 0.0
N1149 N 0.85898 0.23482 0.03228 0.0
C1150 C 0.84816 0.19909 0.02947 0.0
C1151 C 0.83036 0.22072 0.00998 0.0
C1152 C 0.86139 0.21617 0.03779 0.0
C1153 C 0.84388 0.23743 0.01867 0.0
C1154 C 0.80345 0.13765 0.0398 0.0
C1155 C 0.81087 0.10488 0.04724 0.0
N1156 N 0.82081 0.11311 0.06496 0.0
C1157 C 0.81368 0.1458 0.0581 0.0
C1158 C 0.80195 0.11703 0.03433 0.0
C1159 C 0.82237 0.13312 0.07062 0.0
C1160 C 0.77969 0.18617 0.05948 0.0
N1161 N 0.7957 0.1939 0.05029 0.0
C1162 C 0.80614 0.21879 0.07797 0.0
C1163 C 0.80882 0.21003 0.05917 0.0
C1164 C 0.78954 0.21125 0.08777 0.0
C1165 C 0.77615 0.19476 0.07793 0.0
H1166 H 0.76949 0.17324 0.05235 0.0
H1167 H 0.8215 0.21611 0.0519 0.0
C1168 C 0.83755 0.12841 0.98874 0.0
N1169 N 0.83551 0.13937 0.00583 0.0
C1170 C 0.85271 0.1167 0.988 0.0
C1171 C 0.86373 0.12786 0.02239 0.0
C1172 C 0.84841 0.13942 0.02244 0.0
C1173 C 0.86607 0.11612 0.00503 0.0
H1174 H 0.82735 0.12868 0.9756 0.0
H1175 H 0.84672 0.14823 0.03589 0.0
C1176 C 0.76294 0.19267 0.01278 0.0
N1177 N 0.74193 0.21931 0.03065 0.0
C1178 C 0.74484 0.1855 0.01982 0.0
C1179 C 0.77032 0.21338 0.01474 0.0
C1180 C 0.73445 0.19922 0.02883 0.0
C1181 C 0.75949 0.22661 0.02385 0.0
C1182 C 0.78327 0.13548 0.96795 0.0
C1183 C 0.77201 0.14076 0.95136 0.0
C1184 C 0.78298 0.11511 0.97118 0.0
C1185 C 0.76052 0.1255 0.93832 0.0
C1186 C 0.77129 0.1003 0.95779 0.0
N1187 N 0.76039 0.10576 0.94178 0.0
C1188 C 0.80573 0.19366 0.94922 0.0
C1189 C 0.77797 0.20596 0.96041 0.0
C1190 C 0.80317 0.20267 0.93115 0.0
N1191 N 0.79317 0.19536 0.96343 0.0
C1192 C 0.77492 0.21529 0.94262 0.0
C1193 C 0.78748 0.21362 0.92748 0.0
H1194 H 0.81747 0.18482 0.95169 0.0
H1195 H 0.76789 0.20685 0.97165 0.0
C1196 C 0.74817 0.11988 0.01571 0.0
N1197 N 0.7519 0.13288 1.00137 0.0
C1198 C 0.72921 0.10871 0.01599 0.0
C1199 C 0.71834 0.12425 0.98654 0.0
C1200 C 0.73749 0.13515 0.98686 0.0
C1201 C 0.71386 0.11105 1.00146 0.0
H1202 H 0.7597 0.11875 0.02741 0.0
H1203 H 0.74069 0.14596 0.97593 0.0
O1204 O 0.81953 0.18492 0.00706 0.0
O1205 O 0.79491 0.14981 0.02732 0.0
O1206 O 0.77349 0.17945 0.00424 0.0
O1207 O 0.7944 0.15019 0.98103 0.0
H1208 H 0.85003 0.18427 0.03388 0.0
H1209 H 0.81843 0.22275 0.99904 0.0
H1210 H 0.87355 0.21459 0.04865 0.0
H1211 H 0.8424 0.25246 0.01457 0.0
H1212 H 0.8099 0.0889 0.04316 0.0
H1213 H 0.81503 0.16174 0.06254 0.0
H1214 H 0.79405 0.11051 0.02022 0.0
H1215 H 0.83039 0.13921 0.0848 0.0
H1216 H 0.81722 0.23118 0.08477 0.0
H1217 H 0.76283 0.18848 0.08423 0.0
H1218 H 0.85399 0.10831 0.97412 0.0
H1219 H 0.87338 0.12784 0.036 0.0
H1220 H 0.73897 0.1695 0.01849 0.0
H1221 H 0.78433 0.21914 0.00942 0.0
H1222 H 0.72046 0.19388 0.03441 0.0
H1223 H 0.76505 0.24267 0.02555 0.0
H1224 H 0.77202 0.15646 0.94869 0.0
H1225 H 0.79164 0.11079 0.98393 0.0
H1226 H 0.75166 0.12936 0.92546 0.0
H1227 H 0.77088 0.08448 0.96014 0.0
H1228 H 0.8131 0.20056 0.91996 0.0
H1229 H 0.7628 0.22373 0.94081 0.0
H1230 H 0.72642 0.09902 0.02798 0.0
H1231 H 0.70708 0.12642 0.97492 0.0
Li1232 Li 0.13514 0.51495 0.28354 0.0
Li1233 Li 0.10833 0.49645 0.29871 0.0
Li1234 Li 0.13256 0.47796 0.28241 0.0
Li1235 Li 0.1071 0.4952 0.26142 0.0
C1236 C 0.15354 0.50405 0.31932 0.0
N1237 N 0.18676 0.51709 0.34609 0.0
C1238 C 0.15281 0.51803 0.33535 0.0
C1239 C 0.17113 0.49658 0.31703 0.0
C1240 C 0.16977 0.52447 0.34868 0.0
C1241 C 0.18777 0.50339 0.33069 0.0
C1242 C 0.09982 0.53376 0.29002 0.0
C1243 C 0.07376 0.55344 0.2936 0.0
N1244 N 0.08477 0.56423 0.30967 0.0
C1245 C 0.1109 0.54507 0.30651 0.0
C1246 C 0.08113 0.53798 0.28344 0.0
C1247 C 0.10302 0.5604 0.31627 0.0
C1248 C 0.1464 0.55272 0.26986 0.0
N1249 N 0.15268 0.54056 0.2836 0.0
C1250 C 0.1815 0.56534 0.29409 0.0
C1251 C 0.17 0.54645 0.29551 0.0
C1252 C 0.17546 0.57824 0.27992 0.0
C1253 C 0.15766 0.57149 0.26758 0.0
H1254 H 0.1327 0.54765 0.26038 0.0
H1255 H 0.17509 0.53661 0.30609 0.0
C1256 C 0.10224 0.49493 0.3398 0.0
N1257 N 0.09298 0.49738 0.32161 0.0
C1258 C 0.09308 0.4978 0.35719 0.0
C1259 C 0.0644 0.5045 0.33692 0.0
C1260 C 0.07425 0.50182 0.3199 0.0
C1261 C 0.07396 0.50286 0.35597 0.0
H1262 H 0.11696 0.49108 0.34088 0.0
H1263 H 0.06707 0.50373 0.30538 0.0
C1264 C 0.15091 0.50597 0.2507 0.0
N1265 N 0.18083 0.52824 0.23286 0.0
C1266 C 0.14638 0.51572 0.23359 0.0
C1267 C 0.17066 0.50739 0.25864 0.0
C1268 C 0.16172 0.52693 0.22481 0.0
C1269 C 0.18557 0.51878 0.24943 0.0
C1270 C 0.0835 0.46284 0.28114 0.0
C1271 C 0.08031 0.44501 0.29079 0.0
C1272 C 0.06736 0.47164 0.27407 0.0
C1273 C 0.06091 0.43619 0.29315 0.0
C1274 C 0.0482 0.4624 0.27676 0.0
N1275 N 0.0454 0.445 0.28615 0.0
C1276 C 0.14655 0.44306 0.29764 0.0
C1277 C 0.15871 0.45325 0.26757 0.0
C1278 C 0.15823 0.42772 0.29823 0.0
N1279 N 0.1471 0.45555 0.28252 0.0
C1280 C 0.17072 0.43828 0.26768 0.0
C1281 C 0.17075 0.42531 0.28323 0.0
H1282 H 0.13731 0.44525 0.30944 0.0
H1283 H 0.15884 0.46323 0.25563 0.0
C1284 C 0.08856 0.51345 0.22992 0.0
N1285 N 0.09207 0.49523 0.23575 0.0
C1286 C 0.07951 0.51511 0.21079 0.0
C1287 C 0.07753 0.47914 0.20392 0.0
C1288 C 0.08665 0.47817 0.22325 0.0
C1289 C 0.07398 0.49785 0.19733 0.0
H1290 H 0.09336 0.52686 0.23997 0.0
H1291 H 0.08975 0.46387 0.22814 0.0
O1292 O 0.13701 0.49734 0.30626 0.0
O1293 O 0.1071 0.51846 0.28045 0.0
O1294 O 0.13605 0.49544 0.25986 0.0
O1295 O 0.10235 0.47174 0.27874 0.0
H1296 H 0.13932 0.52389 0.33748 0.0
H1297 H 0.17198 0.4857 0.30481 0.0
H1298 H 0.16944 0.53532 0.3611 0.0
H1299 H 0.20149 0.4978 0.32904 0.0
H1300 H 0.05928 0.55683 0.28873 0.0
H1301 H 0.12541 0.54201 0.31173 0.0
H1302 H 0.07234 0.52927 0.27073 0.0
H1303 H 0.11142 0.56926 0.32909 0.0
H1304 H 0.19489 0.56978 0.30419 0.0
H1305 H 0.15247 0.58043 0.25603 0.0
H1306 H 0.10091 0.49604 0.37149 0.0
H1307 H 0.04968 0.50844 0.33523 0.0
H1308 H 0.13118 0.51477 0.22726 0.0
H1309 H 0.1744 0.50002 0.27192 0.0
H1310 H 0.15843 0.53465 0.21163 0.0
H1311 H 0.2009 0.52015 0.25551 0.0
H1312 H 0.09269 0.43805 0.29638 0.0
H1313 H 0.0696 0.48559 0.26678 0.0
H1314 H 0.05819 0.42236 0.30056 0.0
H1315 H 0.03556 0.46907 0.27142 0.0
H1316 H 0.15784 0.41819 0.31058 0.0
H1317 H 0.17987 0.43684 0.25563 0.0
H1318 H 0.07748 0.52992 0.2064 0.0
H1319 H 0.07337 0.46537 0.19424 0.0
Li1320 Li 0.73081 0.9192 0.52723 0.0
Li1321 Li 0.74251 0.89771 0.55031 0.0
Li1322 Li 0.76593 0.91985 0.5321 0.0
Li1323 Li 0.74289 0.88969 0.51497 0.0
C1324 C 0.73878 0.93523 0.56702 0.0
N1325 N 0.71897 0.94968 0.59715 0.0
C1326 C 0.71874 0.9277 0.56793 0.0
C1327 C 0.74873 0.95012 0.58141 0.0
C1328 C 0.70899 0.93519 0.58328 0.0
C1329 C 0.73846 0.95723 0.59653 0.0
C1330 C 0.70709 0.87385 0.53329 0.0
C1331 C 0.70093 0.83821 0.53798 0.0
N1332 N 0.68201 0.83966 0.54148 0.0
C1333 C 0.68757 0.87498 0.53686 0.0
C1334 C 0.71381 0.85532 0.5338 0.0
C1335 C 0.67513 0.85753 0.54101 0.0
C1336 C 0.69427 0.92658 0.51049 0.0
N1337 N 0.7116 0.93552 0.52099 0.0
C1338 C 0.70149 0.96783 0.5209 0.0
C1339 C 0.71549 0.9557 0.52625 0.0
C1340 C 0.6834 0.95903 0.51004 0.0
C1341 C 0.67987 0.93812 0.50481 0.0
H1342 H 0.69175 0.91049 0.5064 0.0
H1343 H 0.72957 0.96235 0.5344 0.0
C1344 C 0.75787 0.8816 0.58348 0.0
N1345 N 0.74053 0.88556 0.57456 0.0
C1346 C 0.75797 0.87042 0.6001 0.0
C1347 C 0.72242 0.86859 0.59879 0.0
C1348 C 0.72301 0.87975 0.58206 0.0
C1349 C 0.74005 0.86353 0.60782 0.0
H1350 H 0.77159 0.88662 0.57728 0.0
H1351 H 0.70946 0.88343 0.5749 0.0
C1352 C 0.74129 0.9279 0.49214 0.0
N1353 N 0.72371 0.94973 0.46431 0.0
C1354 C 0.7268 0.91801 0.47733 0.0
C1355 C 0.74696 0.94885 0.49272 0.0
C1356 C 0.71806 0.92933 0.46342 0.0
C1357 C 0.73786 0.95963 0.47853 0.0
C1358 C 0.77725 0.87712 0.53499 0.0
C1359 C 0.79527 0.88234 0.52703 0.0
C1360 C 0.77235 0.85786 0.54166 0.0
C1361 C 0.80786 0.86805 0.52546 0.0
C1362 C 0.78534 0.844 0.53984 0.0
N1363 N 0.80267 0.84932 0.53182 0.0
C1364 C 0.80382 0.93835 0.54997 0.0
C1365 C 0.79776 0.94042 0.51507 0.0
C1366 C 0.82341 0.94792 0.54989 0.0
N1367 N 0.79158 0.93472 0.53268 0.0
C1368 C 0.81714 0.95005 0.5143 0.0
C1369 C 0.83034 0.95367 0.53182 0.0
H1370 H 0.79847 0.93337 0.56369 0.0
H1371 H 0.78773 0.93709 0.50153 0.0
C1372 C 0.72265 0.8588 0.48655 0.0
N1373 N 0.74067 0.86916 0.49427 0.0
C1374 C 0.72127 0.84411 0.47074 0.0
C1375 C 0.75695 0.85132 0.47107 0.0
C1376 C 0.7576 0.86594 0.4867 0.0
C1377 C 0.73861 0.84027 0.46287 0.0
H1378 H 0.70933 0.86222 0.49235 0.0
H1379 H 0.77155 0.87513 0.49239 0.0
O1380 O 0.74875 0.92811 0.55222 0.0
O1381 O 0.71951 0.89089 0.5295 0.0
O1382 O 0.74957 0.91716 0.50626 0.0
O1383 O 0.76484 0.89104 0.53683 0.0
H1384 H 0.71075 0.91622 0.55694 0.0
H1385 H 0.76426 0.95609 0.58091 0.0
H1386 H 0.69349 0.92948 0.58417 0.0
H1387 H 0.74599 0.96874 0.60778 0.0
H1388 H 0.70595 0.82377 0.5384 0.0
H1389 H 0.68213 0.88923 0.53658 0.0
H1390 H 0.72875 0.85415 0.53081 0.0
H1391 H 0.66001 0.8582 0.54388 0.0
H1392 H 0.70484 0.98392 0.52505 0.0
H1393 H 0.66601 0.93071 0.49669 0.0
H1394 H 0.77189 0.8667 0.60643 0.0
H1395 H 0.70834 0.8639 0.6045 0.0
H1396 H 0.72219 0.90181 0.47676 0.0
H1397 H 0.75805 0.95673 0.50419 0.0
H1398 H 0.70673 0.92191 0.45195 0.0
H1399 H 0.74198 0.97587 0.47888 0.0
H1400 H 0.7994 0.89718 0.52189 0.0
H1401 H 0.75878 0.85367 0.54839 0.0
H1402 H 0.82176 0.87184 0.51917 0.0
H1403 H 0.78169 0.82903 0.5449 0.0
H1404 H 0.83316 0.95023 0.56368 0.0
H1405 H 0.82177 0.9545 0.50011 0.0
H1406 H 0.70684 0.83606 0.46456 0.0
H1407 H 0.77057 0.84928 0.46493 0.0
Li1408 Li 0.88735 0.0569 0.25941 0.0
Li1409 Li 0.85968 0.03321 0.24349 0.0
Li1410 Li 0.88288 0.05416 0.22398 0.0
Li1411 Li 0.86046 0.07079 0.24372 0.0
C1412 C 0.89814 0.01955 0.25022 0.0
N1413 N 0.91944 0.99324 0.26895 0.0
C1414 C 0.89242 0.01168 0.26784 0.0
C1415 C 0.91471 0.0141 0.24213 0.0
C1416 C 0.90338 0.99837 0.27708 0.0
C1417 C 0.92528 1.00076 0.25183 0.0
C1418 C 0.8415 0.05162 0.27318 0.0
C1419 C 0.80587 0.04632 0.26638 0.0
N1420 N 0.80427 0.04784 0.2863 0.0
C1421 C 0.83949 0.05315 0.29359 0.0
C1422 C 0.82454 0.04819 0.25944 0.0
C1423 C 0.82055 0.05118 0.29993 0.0
C1424 C 0.90061 0.06776 0.29953 0.0
N1425 N 0.90649 0.06062 0.28221 0.0
C1426 C 0.93754 0.05624 0.29898 0.0
C1427 C 0.92477 0.05541 0.28151 0.0
C1428 C 0.93151 0.06277 0.31723 0.0
C1429 C 0.91296 0.069 0.31732 0.0
H1430 H 0.88611 0.07205 0.29958 0.0
H1431 H 0.92928 0.05019 0.26748 0.0
C1432 C 0.84229 0.99285 0.22898 0.0
N1433 N 0.84478 0.00653 0.24509 0.0
C1434 C 0.83329 0.97283 0.23038 0.0
C1435 C 0.82965 0.98129 0.26493 0.0
C1436 C 0.83869 1.00107 0.26286 0.0
C1437 C 0.827 0.96674 0.24862 0.0
H1438 H 0.84789 0.99729 0.21521 0.0
H1439 H 0.84141 0.01185 0.27573 0.0
C1440 C 0.90688 0.09022 0.24936 0.0
N1441 N 0.9431 0.11105 0.26644 0.0
C1442 C 0.90773 0.10601 0.26405 0.0
C1443 C 0.92446 0.08508 0.2433 0.0
C1444 C 0.92618 0.11633 0.27253 0.0
C1445 C 0.94263 0.09579 0.25211 0.0
C1446 C 0.84931 0.05175 0.20082 0.0
C1447 C 0.85431 0.0707 0.19353 0.0
C1448 C 0.84123 0.03506 0.18757 0.0
C1449 C 0.8512 0.07263 0.17306 0.0
C1450 C 0.83832 0.03761 0.1672 0.0
N1451 N 0.84333 0.05618 0.16043 0.0
C1452 C 0.89938 0.0362 0.19222 0.0
C1453 C 0.90281 0.07189 0.19271 0.0
C1454 C 0.91055 0.03564 0.17602 0.0
N1455 N 0.89601 0.05416 0.20036 0.0
C1456 C 0.91386 0.07201 0.17635 0.0
C1457 C 0.91815 0.05373 0.16804 0.0
H1458 H 0.89372 0.02235 0.19859 0.0
H1459 H 0.90002 0.08598 0.1996 0.0
C1460 C 0.84924 0.10457 0.26312 0.0
N1461 N 0.8453 0.09219 0.24603 0.0
C1462 C 0.83929 0.12097 0.26577 0.0
C1463 C 0.82094 0.11125 0.23342 0.0
C1464 C 0.83121 0.09499 0.23143 0.0
C1465 C 0.82505 0.12464 0.2507 0.0
H1466 H 0.86021 0.10172 0.27469 0.0
H1467 H 0.82789 0.08462 0.21824 0.0
O1468 O 0.88794 0.03298 0.24117 0.0
O1469 O 0.86003 0.05365 0.26686 0.0
O1470 O 0.88897 0.07957 0.24125 0.0
O1471 O 0.85262 0.04953 0.22078 0.0
H1472 H 0.87991 0.01611 0.27452 0.0
H1473 H 0.91947 0.02027 0.22863 0.0
H1474 H 0.89918 0.99223 0.29078 0.0
H1475 H 0.93817 0.99645 0.24578 0.0
H1476 H 0.79264 0.04366 0.25591 0.0
H1477 H 0.85242 0.05576 0.30445 0.0
H1478 H 0.82568 0.04694 0.2436 0.0
H1479 H 0.81879 0.0523 0.31568 0.0
H1480 H 0.95186 0.05157 0.29827 0.0
H1481 H 0.9077 0.07401 0.33109 0.0
H1482 H 0.83192 0.96209 0.2175 0.0
H1483 H 0.82495 0.9774 0.27925 0.0
H1484 H 0.89429 0.11017 0.26895 0.0
H1485 H 0.92412 0.0727 0.23218 0.0
H1486 H 0.92705 0.12852 0.28398 0.0
H1487 H 0.95634 0.09189 0.24765 0.0
H1488 H 0.86078 0.08374 0.20358 0.0
H1489 H 0.83719 0.02031 0.19294 0.0
H1490 H 0.8551 0.08719 0.16722 0.0
H1491 H 0.83207 0.02482 0.15677 0.0
H1492 H 0.91332 0.02121 0.16988 0.0
H1493 H 0.91956 0.08628 0.17071 0.0
H1494 H 0.843 0.13088 0.27931 0.0
H1495 H 0.80977 0.11322 0.22162 0.0
Li1496 Li 0.29789 0.68107 0.52634 0.0
Li1497 Li 0.31471 0.6547 0.50791 0.0
Li1498 Li 0.29533 0.67924 0.48884 0.0
Li1499 Li 0.27824 0.6523 0.50615 0.0
C1500 C 0.33449 0.69969 0.51877 0.0
N1501 N 0.36322 0.72826 0.54043 0.0
C1502 C 0.34983 0.69363 0.53079 0.0
C1503 C 0.33385 0.72026 0.5176 0.0
C1504 C 0.3642 0.70832 0.54166 0.0
C1505 C 0.34848 0.73447 0.52872 0.0
C1506 C 0.28746 0.63687 0.53947 0.0
C1507 C 0.27761 0.60148 0.54377 0.0
N1508 N 0.26525 0.60636 0.55721 0.0
C1509 C 0.27472 0.64156 0.55336 0.0
C1510 C 0.28896 0.61669 0.53463 0.0
C1511 C 0.26359 0.6259 0.56215 0.0
C1512 C 0.27959 0.70183 0.55539 0.0
N1513 N 0.29747 0.69701 0.5516 0.0
C1514 C 0.31128 0.71017 0.58476 0.0
C1515 C 0.31321 0.70097 0.56592 0.0
C1516 C 0.29291 0.71522 0.58911 0.0
C1517 C 0.27701 0.71102 0.57394 0.0
H1518 H 0.267 0.69787 0.54421 0.0
H1519 H 0.32713 0.69647 0.56303 0.0
C1520 C 0.34819 0.63969 0.49276 0.0
N1521 N 0.33739 0.64022 0.50864 0.0
C1522 C 0.36369 0.6283 0.49267 0.0
C1523 C 0.35691 0.61835 0.52532 0.0
C1524 C 0.34168 0.63003 0.52486 0.0
C1525 C 0.36813 0.61716 0.50901 0.0
H1526 H 0.34454 0.64781 0.47996 0.0
H1527 H 0.33311 0.63077 0.53744 0.0
C1528 C 0.26558 0.69635 0.50099 0.0
N1529 N 0.24787 0.72806 0.48815 0.0
C1530 C 0.24754 0.69252 0.48889 0.0
C1531 C 0.27457 0.71628 0.50664 0.0
C1532 C 0.23884 0.70876 0.48252 0.0
C1533 C 0.26539 0.73211 0.49999 0.0
C1534 C 0.28634 0.63122 0.4736 0.0
C1535 C 0.26904 0.62988 0.46058 0.0
C1536 C 0.29502 0.61397 0.47622 0.0
C1537 C 0.26069 0.6113 0.45042 0.0
C1538 C 0.28623 0.59567 0.46577 0.0
N1539 N 0.26939 0.59472 0.4532 0.0
C1540 C 0.30737 0.7091 0.46041 0.0
C1541 C 0.27611 0.6885 0.452 0.0
C1542 C 0.30501 0.71911 0.44285 0.0
N1543 N 0.293 0.69403 0.46468 0.0
C1544 C 0.27317 0.69803 0.43435 0.0
C1545 C 0.28772 0.71358 0.4294 0.0
H1546 H 0.32075 0.71332 0.47056 0.0
H1547 H 0.26472 0.67674 0.45565 0.0
C1548 C 0.23866 0.64473 0.5132 0.0
N1549 N 0.25286 0.63486 0.50649 0.0
C1550 C 0.21949 0.63453 0.51413 0.0
C1551 C 0.22982 0.60372 0.5021 0.0
C1552 C 0.2489 0.61459 0.50137 0.0
C1553 C 0.21471 0.61379 0.50827 0.0
H1554 H 0.24224 0.66063 0.51799 0.0
H1555 H 0.26048 0.60676 0.49679 0.0
O1556 O 0.32025 0.68553 0.50811 0.0
O1557 O 0.29799 0.65194 0.53024 0.0
O1558 O 0.2745 0.68064 0.50708 0.0
O1559 O 0.29489 0.64932 0.48354 0.0
H1560 H 0.35055 0.67776 0.53184 0.0
H1561 H 0.32221 0.7252 0.50818 0.0
H1562 H 0.37611 0.70386 0.55111 0.0
H1563 H 0.34814 0.75045 0.52801 0.0
H1564 H 0.27853 0.58579 0.54008 0.0
H1565 H 0.27328 0.65709 0.55716 0.0
H1566 H 0.29854 0.6128 0.52368 0.0
H1567 H 0.25358 0.62929 0.57286 0.0
H1568 H 0.32404 0.71313 0.59584 0.0
H1569 H 0.26243 0.71409 0.57656 0.0
H1570 H 0.37174 0.6278 0.47967 0.0
H1571 H 0.3599 0.61037 0.53841 0.0
H1572 H 0.24044 0.67717 0.48428 0.0
H1573 H 0.28847 0.71948 0.51608 0.0
H1574 H 0.22493 0.70603 0.47306 0.0
H1575 H 0.2722 0.74762 0.50423 0.0
H1576 H 0.26196 0.64293 0.45852 0.0
H1577 H 0.30833 0.61464 0.48627 0.0
H1578 H 0.24725 0.61004 0.44038 0.0
H1579 H 0.29277 0.58222 0.4677 0.0
H1580 H 0.31678 0.73085 0.43972 0.0
H1581 H 0.25941 0.69339 0.42481 0.0
H1582 H 0.20853 0.64284 0.51956 0.0
H1583 H 0.22686 0.5877 0.49754 0.0
Li1584 Li 0.36197 0.53379 0.74313 0.0
Li1585 Li 0.38965 0.55731 0.7604 0.0
Li1586 Li 0.36318 0.5718 0.74397 0.0
Li1587 Li 0.3855 0.55468 0.72502 0.0
C1588 C 0.3444 0.55171 0.77465 0.0
N1589 N 0.30901 0.54847 0.79147 0.0
C1590 C 0.34368 0.54707 0.79446 0.0
C1591 C 0.32712 0.55473 0.76338 0.0
C1592 C 0.32563 0.54544 0.80268 0.0
C1593 C 0.30938 0.55305 0.77217 0.0
C1594 C 0.39774 0.51888 0.75286 0.0
C1595 C 0.42053 0.49534 0.75755 0.0
N1596 N 0.41246 0.48997 0.77446 0.0
C1597 C 0.38971 0.51319 0.77033 0.0
C1598 C 0.41331 0.50995 0.74643 0.0
C1599 C 0.39733 0.49851 0.78101 0.0
C1600 C 0.35457 0.49113 0.73549 0.0
N1601 N 0.34647 0.50679 0.74314 0.0
C1602 C 0.31945 0.48345 0.75274 0.0
C1603 C 0.32898 0.50322 0.75131 0.0
C1604 C 0.32806 0.46709 0.74591 0.0
C1605 C 0.34575 0.47112 0.73697 0.0
H1606 H 0.36817 0.49415 0.72855 0.0
H1607 H 0.32244 0.51555 0.75708 0.0
C1608 C 0.40232 0.56794 0.80084 0.0
N1609 N 0.40823 0.56077 0.78355 0.0
C1610 C 0.41454 0.56892 0.81868 0.0
C1611 C 0.43894 0.55564 0.80046 0.0
C1612 C 0.4263 0.55507 0.78294 0.0
C1613 C 0.43295 0.56233 0.81868 0.0
H1614 H 0.38788 0.57243 0.80082 0.0
H1615 H 0.4307 0.54963 0.76892 0.0
C1616 C 0.35329 0.54704 0.70069 0.0
N1617 N 0.35053 0.53986 0.65973 0.0
C1618 C 0.35536 0.56321 0.68858 0.0
C1619 C 0.34977 0.52723 0.69197 0.0
C1620 C 0.35394 0.55927 0.6679 0.0
C1621 C 0.34842 0.52391 0.67123 0.0
C1622 C 0.40923 0.59089 0.75114 0.0
C1623 C 0.40915 0.60592 0.76637 0.0
C1624 C 0.42726 0.58667 0.7454 0.0
C1625 C 0.42718 0.61643 0.77571 0.0
C1626 C 0.44497 0.59755 0.75509 0.0
N1627 N 0.44457 0.61206 0.76994 0.0
C1628 C 0.35033 0.60406 0.76446 0.0
C1629 C 0.33743 0.59899 0.73043 0.0
C1630 C 0.34015 0.62023 0.76736 0.0
N1631 N 0.34883 0.59385 0.74622 0.0
C1632 C 0.32708 0.61517 0.73262 0.0
C1633 C 0.32834 0.62607 0.7513 0.0
H1634 H 0.35931 0.59946 0.77683 0.0
H1635 H 0.33629 0.5905 0.71615 0.0
C1636 C 0.40371 0.53701 0.69447 0.0
N1637 N 0.39917 0.55478 0.70177 0.0
C1638 C 0.4145 0.5364 0.67801 0.0
C1639 C 0.41542 0.57238 0.67663 0.0
C1640 C 0.40474 0.57231 0.69326 0.0
C1641 C 0.42057 0.55426 0.66882 0.0
H1642 H 0.39913 0.52332 0.70162 0.0
H1643 H 0.40093 0.58624 0.69945 0.0
O1644 O 0.36213 0.55409 0.76669 0.0
O1645 O 0.39089 0.53358 0.74239 0.0
O1646 O 0.35519 0.55056 0.72098 0.0
O1647 O 0.39176 0.58002 0.74221 0.0
H1648 H 0.35694 0.54478 0.80341 0.0
H1649 H 0.32729 0.55796 0.74791 0.0
H1650 H 0.32485 0.54184 0.818 0.0
H1651 H 0.29589 0.55529 0.76361 0.0
H1652 H 0.43259 0.48832 0.75276 0.0
H1653 H 0.37779 0.5201 0.77564 0.0
H1654 H 0.41983 0.51436 0.73306 0.0
H1655 H 0.39126 0.49395 0.79455 0.0
H1656 H 0.30579 0.48097 0.75972 0.0
H1657 H 0.35271 0.45891 0.73122 0.0
H1658 H 0.40928 0.574 0.83243 0.0
H1659 H 0.45312 0.55065 0.79981 0.0
H1660 H 0.35848 0.57864 0.69509 0.0
H1661 H 0.3482 0.51455 0.70112 0.0
H1662 H 0.35567 0.57163 0.65836 0.0
H1663 H 0.34576 0.50865 0.66429 0.0
H1664 H 0.39532 0.6093 0.77104 0.0
H1665 H 0.42758 0.57493 0.73379 0.0
H1666 H 0.42736 0.62803 0.7876 0.0
H1667 H 0.45904 0.59437 0.75089 0.0
H1668 H 0.34131 0.62786 0.78212 0.0
H1669 H 0.31837 0.61921 0.71974 0.0
H1670 H 0.41839 0.52212 0.67284 0.0
H1671 H 0.41949 0.58647 0.66994 0.0
Li1672 Li 0.60793 0.9978 0.79695 0.0
Li1673 Li 0.63552 0.01534 0.78108 0.0
Li1674 Li 0.60719 0.99554 0.75948 0.0
Li1675 Li 0.6319 0.97811 0.78024 0.0
C1676 C 0.60018 0.03602 0.78367 0.0
N1677 N 0.58481 0.07004 0.79495 0.0
C1678 C 0.61052 0.05003 0.79867 0.0
C1679 C 0.58209 0.03936 0.77431 0.0
C1680 C 0.60248 0.06713 0.80418 0.0
C1681 C 0.57454 0.05663 0.78026 0.0
C1682 C 0.65032 0.0067 0.81942 0.0
C1683 C 0.68261 0.01013 0.83791 0.0
N1684 N 0.67749 0.02426 0.85086 0.0
C1685 C 0.64534 0.02118 0.83296 0.0
C1686 C 0.66906 1.00105 0.82193 0.0
C1687 C 0.6593 0.02991 0.84873 0.0
C1688 C 0.59992 0.99269 0.83728 0.0
N1689 N 0.59292 0.99976 0.82001 0.0
C1690 C 0.56761 0.01263 0.83672 0.0
C1691 C 0.57685 0.00933 0.81944 0.0
C1692 C 0.57489 0.00609 0.85496 0.0
C1693 C 0.59119 0.99575 0.85493 0.0
H1694 H 0.61274 0.98519 0.8375 0.0
H1695 H 0.57131 0.01475 0.80566 0.0
C1696 C 0.64933 0.05077 0.76442 0.0
N1697 N 0.6536 0.04039 0.78045 0.0
C1698 C 0.66089 0.06925 0.76171 0.0
C1699 C 0.68087 0.0665 0.79244 0.0
C1700 C 0.66916 0.04781 0.79429 0.0
C1701 C 0.67684 0.0776 0.77596 0.0
H1702 H 0.63688 0.04459 0.7536 0.0
H1703 H 0.67253 0.03946 0.8069 0.0
C1704 C 0.58233 0.96355 0.77387 0.0
N1705 N 0.54323 0.94533 0.76533 0.0
C1706 C 0.57759 0.94261 0.76985 0.0
C1707 C 0.56724 0.97526 0.77344 0.0
C1708 C 0.55772 0.93367 0.76558 0.0
C1709 C 0.54755 0.96575 0.76914 0.0
C1710 C 0.65284 0.00234 0.74976 0.0
C1711 C 0.65196 0.01132 0.73167 0.0
C1712 C 0.67123 1.00088 0.7598 0.0
C1713 C 0.66959 0.01886 0.72396 0.0
C1714 C 0.68852 0.0086 0.7516 0.0
N1715 N 0.68735 0.01737 0.73401 0.0
C1716 C 0.59259 0.01424 0.72671 0.0
C1717 C 0.58276 0.97871 0.72292 0.0
C1718 C 0.58337 0.01616 0.70774 0.0
N1719 N 0.59216 0.99576 0.73394 0.0
C1720 C 0.57337 0.97993 0.70377 0.0
C1721 C 0.57366 0.99887 0.69585 0.0
H1722 H 0.6005 0.02753 0.73558 0.0
H1723 H 0.58281 0.96413 0.72886 0.0
C1724 C 0.65295 0.94804 0.797 0.0
N1725 N 0.6459 0.95535 0.7799 0.0
C1726 C 0.66434 0.93248 0.79625 0.0
C1727 C 0.66063 0.93195 0.76034 0.0
C1728 C 0.64938 0.9475 0.76178 0.0
C1729 C 0.66855 0.92431 0.77772 0.0
H1730 H 0.65007 0.95457 0.81126 0.0
H1731 H 0.64362 0.95356 0.74838 0.0
O1732 O 0.60774 0.01919 0.77798 0.0
O1733 O 0.63683 0.99785 0.80397 0.0
O1734 O 0.60172 0.97259 0.7775 0.0
O1735 O 0.6358 0.99532 0.7578 0.0
H1736 H 0.62463 0.04779 0.80589 0.0
H1737 H 0.57389 0.02863 0.76268 0.0
H1738 H 0.61032 0.0781 0.81577 0.0
H1739 H 0.56051 0.05936 0.77322 0.0
H1740 H 0.69719 0.00597 0.84 0.0
H1741 H 0.63088 0.02565 0.83132 0.0
H1742 H 0.67315 0.98987 0.81159 0.0
H1743 H 0.65567 0.04117 0.85929 0.0
H1744 H 0.55487 0.02029 0.83574 0.0
H1745 H 0.59758 0.99057 0.86854 0.0
H1746 H 0.65733 0.07677 0.74847 0.0
H1747 H 0.69272 0.07228 0.80405 0.0
H1748 H 0.58916 0.93339 0.76993 0.0
H1749 H 0.57072 0.99151 0.77613 0.0
H1750 H 0.55381 0.91748 0.76241 0.0
H1751 H 0.5357 0.97462 0.76873 0.0
H1752 H 0.63781 0.01259 0.72377 0.0
H1753 H 0.67212 0.99403 0.77387 0.0
H1754 H 0.66916 0.02594 0.71001 0.0
H1755 H 0.70286 0.00767 0.75925 0.0
H1756 H 0.58436 0.03104 0.70223 0.0
H1757 H 0.56598 0.96619 0.69525 0.0
H1758 H 0.67024 0.92732 0.81009 0.0
H1759 H 0.66312 0.926 0.74569 0.0
Li1760 Li 0.77687 0.67811 0.01677 0.0
Li1761 Li 0.78792 0.64805 0.00343 0.0
Li1762 Li 0.77509 0.67186 0.98099 0.0
Li1763 Li 0.75247 0.64945 1.0005 0.0
C1764 C 0.81595 0.69004 0.00573 0.0
N1765 N 0.85046 0.71726 0.0168 0.0
C1766 C 0.83084 0.68494 0.01906 0.0
C1767 C 0.81866 0.709 0.99798 0.0
C1768 C 0.84817 0.69891 0.02448 0.0
C1769 C 0.83618 0.72255 0.00378 0.0
C1770 C 0.76658 0.63268 0.0344 0.0
C1771 C 0.75908 0.59629 0.03255 0.0
N1772 N 0.7582 0.59709 0.05261 0.0
C1773 C 0.76561 0.63316 0.05498 0.0
C1774 C 0.76329 0.61412 0.02307 0.0
C1775 C 0.76136 0.615 0.06392 0.0
C1776 C 0.76262 0.69648 0.04771 0.0
N1777 N 0.77896 0.6984 0.03771 0.0
C1778 C 0.79383 0.72792 0.0585 0.0
C1779 C 0.79441 0.71377 0.04268 0.0
C1780 C 0.77727 0.72609 0.06935 0.0
C1781 C 0.76146 0.71016 0.06368 0.0
H1782 H 0.75056 0.6841 0.04333 0.0
H1783 H 0.80723 0.71514 0.03461 0.0
C1784 C 0.81467 0.62107 0.99373 0.0
N1785 N 0.80703 0.63096 0.00854 0.0
C1786 C 0.82882 0.60886 0.99834 0.0
C1787 C 0.827 0.61725 0.03335 0.0
C1788 C 0.81304 0.62941 0.02805 0.0
C1789 C 0.83519 0.60686 0.0184 0.0
H1790 H 0.81013 0.62289 0.97836 0.0
H1791 H 0.80718 0.63786 0.03957 0.0
C1792 C 0.74652 0.69584 0.99519 0.0
N1793 N 0.7312 0.73102 0.99043 0.0
C1794 C 0.72603 0.69521 0.9922 0.0
C1795 C 0.75924 0.71433 0.99583 0.0
C1796 C 0.71857 0.71317 0.98979 0.0
C1797 C 0.7512 0.73196 0.9934 0.0
C1798 C 0.77149 0.62825 0.9644 0.0
C1799 C 0.78472 0.63431 0.95058 0.0
C1800 C 0.76129 0.6084 0.96276 0.0
C1801 C 0.7878 0.62028 0.93553 0.0
C1802 C 0.76478 0.59482 0.94751 0.0
N1803 N 0.77786 0.60099 0.93434 0.0
C1804 C 0.79468 0.69191 0.9515 0.0
C1805 C 0.75982 0.69066 0.94886 0.0
C1806 C 0.79643 0.70538 0.93667 0.0
N1807 N 0.77666 0.68538 0.95763 0.0
C1808 C 0.76087 0.70416 0.93405 0.0
C1809 C 0.77942 0.71206 0.92818 0.0
H1810 H 0.80779 0.68735 0.95876 0.0
H1811 H 0.74567 0.68501 0.95394 0.0
C1812 C 0.71863 0.63316 0.01786 0.0
N1813 N 0.72655 0.63524 1.00028 0.0
C1814 C 0.6995 0.62263 0.01818 0.0
C1815 C 0.69675 0.61736 0.98219 0.0
C1816 C 0.7161 0.62772 0.98261 0.0
C1817 C 0.68836 0.61462 1.00018 0.0
H1818 H 0.72713 0.63974 0.03164 0.0
H1819 H 0.72279 0.62985 0.96886 0.0
O1820 O 0.79904 0.6764 0.99996 0.0
O1821 O 0.77073 0.65036 0.02547 0.0
O1822 O 0.754 0.67832 0.99716 0.0
O1823 O 0.76797 0.64184 0.97901 0.0
H1824 H 0.82906 0.67037 0.02518 0.0
H1825 H 0.80728 0.71338 0.98781 0.0
H1826 H 0.85981 0.69514 0.03479 0.0
H1827 H 0.83841 0.73729 0.99797 0.0
H1828 H 0.75653 0.58182 0.02397 0.0
H1829 H 0.76812 0.64743 0.06394 0.0
H1830 H 0.76408 0.61351 0.00717 0.0
H1831 H 0.76056 0.61513 0.07984 0.0
H1832 H 0.80628 0.74005 0.06227 0.0
H1833 H 0.74858 0.70785 0.07187 0.0
H1834 H 0.8351 0.60154 0.98631 0.0
H1835 H 0.83138 0.61611 0.049 0.0
H1836 H 0.71602 0.68096 0.99162 0.0
H1837 H 0.77512 0.71504 0.99816 0.0
H1838 H 0.70274 0.71291 0.98737 0.0
H1839 H 0.76086 0.74639 0.99385 0.0
H1840 H 0.79275 0.64957 0.95163 0.0
H1841 H 0.75071 0.60353 0.97309 0.0
H1842 H 0.79812 0.62473 0.92483 0.0
H1843 H 0.75704 0.57939 0.94611 0.0
H1844 H 0.81099 0.71114 0.93249 0.0
H1845 H 0.74738 0.70862 0.92749 0.0
H1846 H 0.69336 0.62105 0.0323 0.0
H1847 H 0.68854 0.61136 0.96805 0.0
Li1848 Li 0.88543 0.54753 0.75203 0.0
Li1849 Li 0.91301 0.5657 0.7738 0.0
Li1850 Li 0.88794 0.58417 0.75348 0.0
Li1851 Li 0.9121 0.56508 0.7364 0.0
C1852 C 0.86874 0.55665 0.78434 0.0
N1853 N 0.83695 0.53629 0.80108 0.0
C1854 C 0.87137 0.54096 0.79645 0.0
C1855 C 0.84998 0.56207 0.78084 0.0
C1856 C 0.85509 0.5308 0.80471 0.0
C1857 C 0.83409 0.5516 0.78944 0.0
C1858 C 0.9324 0.53844 0.75545 0.0
C1859 C 0.96764 0.54986 0.7563 0.0
N1860 N 0.97092 0.53072 0.75882 0.0
C1861 C 0.93617 0.51886 0.75804 0.0
C1862 C 0.94832 0.55405 0.75461 0.0
C1863 C 0.95571 0.51527 0.75973 0.0
C1864 C 0.87499 0.50574 0.75412 0.0
N1865 N 0.86668 0.52243 0.75079 0.0
C1866 C 0.83415 0.50271 0.7491 0.0
C1867 C 0.8466 0.52122 0.74823 0.0
C1868 C 0.84244 0.48535 0.75293 0.0
C1869 C 0.86316 0.48704 0.75527 0.0
H1870 H 0.89087 0.50702 0.75633 0.0
H1871 H 0.84016 0.53465 0.74607 0.0
C1872 C 0.93656 0.58237 0.81096 0.0
N1873 N 0.92814 0.56529 0.79942 0.0
C1874 C 0.94565 0.58108 0.83026 0.0
C1875 C 0.93735 0.54474 0.82536 0.0
C1876 C 0.9286 0.54671 0.80619 0.0
C1877 C 0.94583 0.56205 0.83785 0.0
H1878 H 0.93576 0.597 0.80543 0.0
H1879 H 0.92167 0.53334 0.79686 0.0
C1880 C 0.86634 0.55559 0.71813 0.0
N1881 N 0.83206 0.53622 0.69577 0.0
C1882 C 0.86669 0.53835 0.7056 0.0
C1883 C 0.84857 0.56305 0.71923 0.0
C1884 C 0.84919 0.52874 0.69445 0.0
C1885 C 0.83139 0.55304 0.7078 0.0
C1886 C 0.93021 0.60629 0.75292 0.0
C1887 C 0.92375 0.61853 0.73854 0.0
C1888 C 0.94913 0.61168 0.76322 0.0
C1889 C 0.93638 0.63593 0.73461 0.0
C1890 C 0.96133 0.62919 0.75885 0.0
N1891 N 0.95476 0.64086 0.74475 0.0
C1892 C 0.86907 0.61473 0.77134 0.0
C1893 C 0.86943 0.61561 0.73644 0.0
C1894 C 0.85815 0.63066 0.77192 0.0
N1895 N 0.87432 0.60739 0.75375 0.0
C1896 C 0.85877 0.63174 0.73636 0.0
C1897 C 0.85271 0.63944 0.75425 0.0
H1898 H 0.87299 0.6079 0.78492 0.0
H1899 H 0.87359 0.60947 0.72257 0.0
C1900 C 0.92421 0.5451 0.70279 0.0
N1901 N 0.92708 0.5635 0.71322 0.0
C1902 C 0.93338 0.54227 0.68539 0.0
C1903 C 0.94904 0.5772 0.68999 0.0
C1904 C 0.93943 0.5794 0.70724 0.0
C1905 C 0.94594 0.55847 0.67864 0.0
H1906 H 0.91475 0.53251 0.70802 0.0
H1907 H 0.94186 0.59385 0.7157 0.0
O1908 O 0.88442 0.56653 0.77582 0.0
O1909 O 0.91328 0.54221 0.75405 0.0
O1910 O 0.88331 0.56522 0.72918 0.0
O1911 O 0.91803 0.58926 0.75711 0.0
H1912 H 0.88576 0.5365 0.79921 0.0
H1913 H 0.84763 0.57403 0.77133 0.0
H1914 H 0.85687 0.51852 0.81398 0.0
H1915 H 0.81946 0.55555 0.78677 0.0
H1916 H 0.98004 0.56184 0.7556 0.0
H1917 H 0.92419 0.5065 0.75885 0.0
H1918 H 0.94587 0.56924 0.75253 0.0
H1919 H 0.95879 0.5002 0.76178 0.0
H1920 H 0.81824 0.50213 0.74743 0.0
H1921 H 0.8702 0.47401 0.75802 0.0
H1922 H 0.95183 0.59485 0.83939 0.0
H1923 H 0.93732 0.52976 0.8304 0.0
H1924 H 0.88026 0.53231 0.70462 0.0
H1925 H 0.84792 0.57621 0.72902 0.0
H1926 H 0.84923 0.51531 0.68477 0.0
H1927 H 0.81752 0.55858 0.7086 0.0
H1928 H 0.9093 0.61442 0.73023 0.0
H1929 H 0.95437 0.60239 0.77443 0.0
H1930 H 0.9316 0.64548 0.72343 0.0
H1931 H 0.97603 0.63351 0.76666 0.0
H1932 H 0.85365 0.63565 0.78607 0.0
H1933 H 0.85537 0.63807 0.72236 0.0
H1934 H 0.93081 0.52745 0.67744 0.0
H1935 H 0.95852 0.59018 0.6854 0.0
Li1936 Li 0.72598 0.38396 0.54073 0.0
Li1937 Li 0.70829 0.40828 0.52379 0.0
Li1938 Li 0.7241 0.38175 0.50337 0.0
Li1939 Li 0.74524 0.41146 0.52467 0.0
C1940 C 0.68916 0.36168 0.52577 0.0
N1941 N 0.66366 0.32882 0.53608 0.0
C1942 C 0.67647 0.36418 0.54039 0.0
C1943 C 0.68884 0.34253 0.5163 0.0
C1944 C 0.6637 0.34735 0.54542 0.0
C1945 C 0.67584 0.32609 0.52175 0.0
C1946 C 0.7238 0.42565 0.56179 0.0
C1947 C 0.72427 0.45878 0.5779 0.0
N1948 N 0.7131 0.4503 0.59174 0.0
C1949 C 0.71245 0.41724 0.57625 0.0
C1950 C 0.72988 0.44657 0.56268 0.0
C1951 C 0.70714 0.42997 0.59124 0.0
C1952 C 0.74202 0.37882 0.58001 0.0
N1953 N 0.7284 0.36926 0.56507 0.0
C1954 C 0.72092 0.34118 0.58503 0.0
C1955 C 0.71808 0.3506 0.56726 0.0
C1956 C 0.73483 0.35076 0.60071 0.0
C1957 C 0.74555 0.36981 0.5979 0.0
H1958 H 0.75029 0.39351 0.57799 0.0
H1959 H 0.70784 0.34275 0.55519 0.0
C1960 C 0.68121 0.43326 0.50722 0.0
N1961 N 0.68576 0.42322 0.5235 0.0
C1962 C 0.66572 0.44461 0.50671 0.0
C1963 C 0.65908 0.43454 0.53934 0.0
C1964 C 0.6748 0.4235 0.53928 0.0
C1965 C 0.65441 0.44552 0.52297 0.0
H1966 H 0.68957 0.43247 0.49451 0.0
H1967 H 0.6782 0.41517 0.55194 0.0
C1968 C 0.75873 0.37068 0.53352 0.0
N1969 N 0.78007 0.34734 0.55652 0.0
C1970 C 0.77631 0.37954 0.54499 0.0
C1971 C 0.75202 0.34994 0.5337 0.0
C1972 C 0.7869 0.36747 0.55651 0.0
C1973 C 0.76301 0.33841 0.54545 0.0
C1974 C 0.73085 0.42931 0.49236 0.0
C1975 C 0.73726 0.42871 0.47333 0.0
C1976 C 0.73064 0.44795 0.50264 0.0
C1977 C 0.74335 0.44683 0.4649 0.0
C1978 C 0.73682 0.46573 0.49369 0.0
N1979 N 0.743 0.46481 0.47516 0.0
C1980 C 0.71594 0.37326 0.46096 0.0
C1981 C 0.7329 0.34975 0.47694 0.0
C1982 C 0.71805 0.36424 0.44215 0.0
N1983 N 0.72362 0.36617 0.47792 0.0
C1984 C 0.73507 0.34006 0.45847 0.0
C1985 C 0.72799 0.34748 0.44057 0.0
H1986 H 0.70877 0.38644 0.462 0.0
H1987 H 0.73911 0.34441 0.49049 0.0
C1988 C 0.77919 0.43945 0.54276 0.0
N1989 N 0.77015 0.4293 0.52543 0.0
C1990 C 0.79802 0.45124 0.54327 0.0
C1991 C 0.79769 0.4422 0.50806 0.0
C1992 C 0.77911 0.43031 0.50832 0.0
C1993 C 0.80748 0.45274 0.52572 0.0
H1994 H 0.77197 0.43804 0.55628 0.0
H1995 H 0.77199 0.42151 0.49491 0.0
O1996 O 0.70162 0.37794 0.52047 0.0
O1997 O 0.72929 0.41345 0.5471 0.0
O1998 O 0.74784 0.38235 0.52266 0.0
O1999 O 0.72507 0.41176 0.50104 0.0
H2000 H 0.67658 0.3789 0.54785 0.0
H2001 H 0.69856 0.34039 0.50491 0.0
H2002 H 0.65384 0.34903 0.55677 0.0
H2003 H 0.67545 0.31116 0.5146 0.0
H2004 H 0.72883 0.475 0.57875 0.0
H2005 H 0.70759 0.40108 0.57576 0.0
H2006 H 0.73892 0.4533 0.55179 0.0
H2007 H 0.69826 0.42369 0.60246 0.0
H2008 H 0.71255 0.32633 0.58633 0.0
H2009 H 0.75638 0.37784 0.60954 0.0
H2010 H 0.6625 0.45242 0.49356 0.0
H2011 H 0.6509 0.43476 0.55226 0.0
H2012 H 0.78165 0.39558 0.54511 0.0
H2013 H 0.73819 0.34293 0.52529 0.0
H2014 H 0.8005 0.37414 0.56552 0.0
H2015 H 0.75789 0.32238 0.54588 0.0
H2016 H 0.73777 0.41443 0.46526 0.0
H2017 H 0.72568 0.44866 0.51734 0.0
H2018 H 0.74841 0.44659 0.45021 0.0
H2019 H 0.73671 0.48026 0.50148 0.0
H2020 H 0.71253 0.37088 0.42902 0.0
H2021 H 0.74244 0.32698 0.45832 0.0
H2022 H 0.80512 0.45907 0.55721 0.0
H2023 H 0.80462 0.44263 0.49431 0.0
Li2024 Li 0.63466 0.50404 0.3063 0.0
Li2025 Li 0.66064 0.52487 0.28967 0.0
Li2026 Li 0.63168 0.50256 0.26931 0.0
Li2027 Li 0.65843 0.48824 0.28648 0.0
C2028 C 0.61754 0.53768 0.29026 0.0
N2029 N 0.58837 0.56136 0.29339 0.0
C2030 C 0.6225 0.5578 0.29807 0.0
C2031 C 0.59775 0.52972 0.28376 0.0
C2032 C 0.60754 0.56949 0.29962 0.0
C2033 C 0.58322 0.5419 0.28553 0.0
C2034 C 0.67855 0.51793 0.32477 0.0
C2035 C 0.71265 0.53324 0.33387 0.0
N2036 N 0.7075 0.54167 0.35103 0.0
C2037 C 0.6736 0.52661 0.34256 0.0
C2038 C 0.69824 0.52112 0.32043 0.0
C2039 C 0.68845 0.53861 0.35563 0.0
C2040 C 0.61395 0.48506 0.33661 0.0
N2041 N 0.61983 0.50304 0.32897 0.0
C2042 C 0.60261 0.52009 0.35211 0.0
C2043 C 0.61479 0.52044 0.3367 0.0
C2044 C 0.59586 0.50169 0.35994 0.0
C2045 C 0.60194 0.48405 0.35228 0.0
H2046 H 0.61826 0.47145 0.33027 0.0
H2047 H 0.62013 0.53463 0.33087 0.0
C2048 C 0.68399 0.55657 0.27289 0.0
N2049 N 0.67671 0.55112 0.29016 0.0
C2050 C 0.69356 0.57632 0.27138 0.0
C2051 C 0.68844 0.58444 0.30562 0.0
C2052 C 0.67887 0.56456 0.30643 0.0
C2053 C 0.69565 0.59071 0.2878 0.0
H2054 H 0.68171 0.54578 0.26001 0.0
H2055 H 0.67252 0.56012 0.31983 0.0
C2056 C 0.61154 0.46682 0.28266 0.0
N2057 N 0.57577 0.4409 0.27447 0.0
C2058 C 0.61082 0.44756 0.27326 0.0
C2059 C 0.59409 0.47275 0.2882 0.0
C2060 C 0.59259 0.43472 0.26915 0.0
C2061 C 0.57616 0.45948 0.28386 0.0
C2062 C 0.67201 0.49965 0.25245 0.0
C2063 C 0.66373 0.48837 0.23474 0.0
C2064 C 0.69254 0.503 0.25733 0.0
C2065 C 0.67616 0.48033 0.22231 0.0
C2066 C 0.70447 0.49469 0.24452 0.0
N2067 N 0.69609 0.48361 0.22743 0.0
C2068 C 0.61335 0.52041 0.23883 0.0
C2069 C 0.605 0.4847 0.23496 0.0
C2070 C 0.60226 0.5221 0.22087 0.0
N2071 N 0.61449 0.50196 0.24552 0.0
C2072 C 0.59378 0.48567 0.21677 0.0
C2073 C 0.59252 0.50459 0.2094 0.0
H2074 H 0.62135 0.53386 0.24736 0.0
H2075 H 0.60658 0.47017 0.24028 0.0
C2076 C 0.68802 0.46431 0.29788 0.0
N2077 N 0.6729 0.46621 0.28401 0.0
C2078 C 0.69844 0.44815 0.29583 0.0
C2079 C 0.67757 0.43624 0.26527 0.0
C2080 C 0.66752 0.45255 0.26797 0.0
C2081 C 0.69327 0.4338 0.27932 0.0
H2082 H 0.69192 0.47529 0.3106 0.0
H2083 H 0.65545 0.45439 0.25714 0.0
O2084 O 0.63206 0.52606 0.28861 0.0
O2085 O 0.6642 0.50626 0.31174 0.0
O2086 O 0.6293 0.47959 0.28675 0.0
O2087 O 0.66007 0.50737 0.26496 0.0
H2088 H 0.63772 0.56429 0.30304 0.0
H2089 H 0.59365 0.51441 0.27713 0.0
H2090 H 0.61118 0.58503 0.30577 0.0
H2091 H 0.56786 0.5359 0.28057 0.0
H2092 H 0.72794 0.53593 0.33066 0.0
H2093 H 0.65844 0.5242 0.34618 0.0
H2094 H 0.70232 0.51438 0.3068 0.0
H2095 H 0.68483 0.54551 0.3694 0.0
H2096 H 0.59857 0.53409 0.3579 0.0
H2097 H 0.59704 0.46958 0.35797 0.0
H2098 H 0.69852 0.58043 0.25723 0.0
H2099 H 0.68986 0.59487 0.31875 0.0
H2100 H 0.62417 0.44257 0.26909 0.0
H2101 H 0.59438 0.48735 0.29594 0.0
H2102 H 0.59182 0.41983 0.26175 0.0
H2103 H 0.56255 0.46391 0.28803 0.0
H2104 H 0.64786 0.48569 0.23073 0.0
H2105 H 0.69917 0.51184 0.2709 0.0
H2106 H 0.66995 0.47146 0.20862 0.0
H2107 H 0.72038 0.49705 0.24815 0.0
H2108 H 0.60149 0.53701 0.21595 0.0
H2109 H 0.58676 0.47178 0.20827 0.0
H2110 H 0.71023 0.44677 0.30722 0.0
H2111 H 0.67321 0.42582 0.25216 0.0
Tb2112 Tb 0.01536 0.05232 0.01109 0.0
C2113 C 0.02072 0.01905 0.9775 0.0
Tb2114 Tb 1.00198 0.00604 0.0168 0.0
O2115 O 0.04717 0.04978 0.01409 0.0
O2116 O 0.02668 0.02881 0.02541 0.0
O2117 O 0.01871 0.03805 0.98215 0.0
C2118 C 0.00258 0.9694 0.02978 0.0
O2119 O 0.01624 0.00416 0.98924 0.0
C2120 C 0.97283 0.02616 0.007 0.0
C2121 C 0.99618 0.03932 0.05013 0.0
O2122 O 0.9926 0.97295 0.01335 0.0
O2123 O 0.01225 0.98631 0.0384 0.0
O2124 O 0.97028 0.00872 0.01458 0.0
O2125 O 0.99048 0.02956 0.0026 0.0
O2126 O 0.99867 0.0204 0.04573 0.0
O2127 O 1.00025 0.05409 0.03814 0.0
C2128 C 0.0158 0.08921 0.99827 0.0
O2129 O 0.02397 0.08549 0.01557 0.0
O2130 O 0.00736 0.0723 0.98864 0.0
C2131 C 0.04442 0.03224 0.02142 0.0
Tb2132 Tb 0.26606 0.8041 0.26871 0.0
C2133 C 0.30138 0.77937 0.27137 0.0
Tb2134 Tb 0.2561 0.75816 0.263 0.0
O2135 O 0.2781 0.80304 0.29968 0.0
O2136 O 0.25545 0.78032 0.28654 0.0
O2137 O 0.29587 0.79712 0.26852 0.0
C2138 C 0.24847 0.71835 0.267 0.0
O2139 O 0.28841 0.76229 0.27063 0.0
C2140 C 0.25442 0.77715 0.23003 0.0
C2141 C 0.22087 0.78274 0.26119 0.0
O2142 O 0.25001 0.73249 0.28129 0.0
O2143 O 0.25167 0.72663 0.25051 0.0
O2144 O 0.24353 0.76 0.23227 0.0
O2145 O 0.26679 0.78192 0.24532 0.0
O2146 O 0.22651 0.76526 0.26507 0.0
O2147 O 0.23382 0.79962 0.26058 0.0
C2148 C 0.27387 0.84327 0.26208 0.0
O2149 O 0.26694 0.83625 0.278 0.0
O2150 O 0.27601 0.82824 0.24998 0.0
C2151 C 0.26771 0.78556 0.3019 0.0
Tb2152 Tb 0.53016 0.03063 0.51095 0.0
C2153 C 0.52101 0.01974 0.55425 0.0
Tb2154 Tb 0.48792 0.02834 0.52101 0.0
O2155 O 0.53962 0.0584 0.53019 0.0
O2156 O 0.5108 0.05176 0.51582 0.0
O2157 O 0.53304 0.01827 0.54009 0.0
C2158 C 0.45463 0.03654 0.53466 0.0
O2159 O 0.50312 0.02474 0.5504 0.0
C2160 C 0.49615 0.99509 0.50371 0.0
C2161 C 0.49701 0.03922 0.4777 0.0
O2162 O 0.4718 0.04806 0.53768 0.0
O2163 O 0.45631 0.0201 0.52432 0.0
O2164 O 0.47868 1.00022 0.50196 0.0
O2165 O 0.50736 0.00733 0.51633 0.0
O2166 O 0.48478 0.04016 0.49171 0.0
O2167 O 0.51508 0.03471 0.48162 0.0
C2168 C 0.5635 0.02324 0.49691 0.0
O2169 O 0.54632 0.01181 0.49325 0.0
O2170 O 0.56183 0.03903 0.50822 0.0
C2171 C 0.52224 0.06373 0.52856 0.0
Tb2172 Tb 0.26402 0.28443 0.78831 0.0
C2173 C 0.27006 0.32226 0.76356 0.0
Tb2174 Tb 0.25502 0.27721 0.74419 0.0
O2175 O 0.29578 0.29204 0.78625 0.0
O2176 O 0.27786 0.27129 0.7651 0.0
O2177 O 0.26735 0.31596 0.78148 0.0
C2178 C 0.25854 0.27485 0.70533 0.0
O2179 O 0.26702 0.30964 0.74722 0.0
C2180 C 0.22417 0.28027 0.76352 0.0
C2181 C 0.2498 0.23919 0.76885 0.0
O2182 O 0.24198 0.27445 0.71316 0.0
O2183 O 0.27302 0.27649 0.71934 0.0
O2184 O 0.22341 0.26899 0.74707 0.0
O2185 O 0.24134 0.2905 0.7674 0.0
O2186 O 0.25201 0.24564 0.75089 0.0
O2187 O 0.25292 0.25179 0.78521 0.0
C2188 C 0.25887 0.28619 0.82677 0.0
O2189 O 0.27593 0.28893 0.81971 0.0
O2190 O 0.24482 0.28263 0.81223 0.0
C2191 C 0.29508 0.28133 0.76945 0.0
Tb2192 Tb 0.00335 0.03266 0.49016 0.0
C2193 C 0.97109 0.01768 0.51888 0.0
Tb2194 Tb 0.01625 0.03265 0.53554 0.0
O2195 O 0.99807 0.9997 0.48666 0.0
O2196 O 0.01898 0.01525 0.50907 0.0
O2197 O 0.97467 0.02394 0.50108 0.0
C2198 C 0.02778 0.02467 0.5726 0.0
O2199 O 0.98508 0.01882 0.53413 0.0
C2200 C 0.00883 0.06722 0.52364 0.0
C2201 C 0.04802 0.04705 0.50702 0.0
O2202 O 0.01685 0.01177 0.55934 0.0
O2203 O 0.03193 0.04185 0.56499 0.0
O2204 O 0.01925 0.0657 0.54028 0.0
O2205 O 1.00081 0.04988 0.51653 0.0
O2206 O 0.04457 0.03715 0.52309 0.0
O2207 O 0.03354 0.04957 0.4934 0.0
C2208 C 0.9927 0.04235 0.45353 0.0
O2209 O 0.00663 0.03194 0.45817 0.0
O2210 O 0.98484 0.04724 0.46946 0.0
C2211 C 0.0099 0.99803 0.50242 0.0
Tb2212 Tb 0.28283 0.78445 0.7731 0.0
C2213 C 0.25303 0.79136 0.80481 0.0
Tb2214 Tb 0.23792 0.77604 0.75932 0.0
O2215 O 0.28372 0.81703 0.77867 0.0
O2216 O 0.26183 0.79979 0.75837 0.0
O2217 O 0.27124 0.78828 0.80193 0.0
C2218 C 0.20121 0.78047 0.74696 0.0
O2219 O 0.23834 0.78902 0.79009 0.0
C2220 C 0.25371 0.74361 0.76483 0.0
C2221 C 0.26778 0.76921 0.72759 0.0
O2222 O 0.20601 0.77036 0.76194 0.0
O2223 O 0.21697 0.78789 0.73904 0.0
O2224 O 0.23695 0.74333 0.7541 0.0
O2225 O 0.25887 0.76082 0.77406 0.0
O2226 O 0.24959 0.77238 0.73048 0.0
O2227 O 0.28241 0.77154 0.74233 0.0
C2228 C 0.3197 0.78012 0.78484 0.0
O2229 O 0.31471 0.79147 0.77098 0.0
O2230 O 0.30401 0.77147 0.79215 0.0
C2231 C 0.26704 0.8169 0.76784 0.0
Tb2232 Tb 0.48816 0.02384 0.01187 0.0
C2233 C 0.51557 0.9902 0.01926 0.0
Tb2234 Tb 0.53473 0.03654 0.02228 0.0
O2235 O 0.49131 0.03263 0.98135 0.0
O2236 O 0.51443 0.02262 0.99784 0.0
O2237 O 0.49742 0.99498 0.01797 0.0
C2238 C 0.57245 0.04845 0.01605 0.0
O2239 O 0.53204 0.00373 0.01954 0.0
C2240 C 0.51546 0.03791 0.0545 0.0
C2241 C 0.50663 0.06991 0.01785 0.0
O2242 O 0.56659 0.03755 0.03032 0.0
O2243 O 0.55706 0.05253 0.00534 0.0
O2244 O 0.5347 0.04187 0.05507 0.0
O2245 O 0.50903 0.03337 0.0365 0.0
O2246 O 0.52469 0.06528 0.01692 0.0
O2247 O 0.49044 0.05618 0.01793 0.0
C2248 C 0.44972 0.00946 0.01357 0.0
O2249 O 0.46211 0.01827 0.02836 0.0
O2250 O 0.45896 0.00873 0.99769 0.0
C2251 C 0.50967 0.02983 0.98165 0.0
Tb2252 Tb 0.2416 0.27522 0.27463 0.0
C2253 C 0.27795 0.28271 0.30855 0.0
Tb2254 Tb 0.28412 0.29459 0.26543 0.0
O2255 O 0.24564 0.24309 0.27256 0.0
O2256 O 0.26794 0.26606 0.26818 0.0
O2257 O 0.25852 0.2812 0.30392 0.0
C2258 C 0.3179 0.30379 0.24942 0.0
O2259 O 0.29098 0.28578 0.2953 0.0
C2260 C 0.26089 0.31971 0.27756 0.0
C2261 C 0.24944 0.28126 0.23062 0.0
O2262 O 0.31546 0.29258 0.26425 0.0
O2263 O 0.30148 0.31001 0.24391 0.0
O2264 O 0.28014 0.32357 0.28049 0.0
O2265 O 0.25607 0.3034 0.26686 0.0
O2266 O 0.26874 0.28272 0.23618 0.0
O2267 O 0.23597 0.28053 0.24352 0.0
C2268 C 0.20721 0.27642 0.28857 0.0
O2269 O 0.21002 0.26339 0.27445 0.0
O2270 O 0.22366 0.28836 0.29478 0.0
C2271 C 0.264 0.24721 0.26861 0.0
Tb2272 Tb 0.50364 0.53176 0.99195 0.0
C2273 C 0.47093 0.51643 0.02009 0.0
Tb2274 Tb 0.51558 0.53265 0.03762 0.0
O2275 O 0.49925 0.49888 0.98864 0.0
O2276 O 0.51928 0.51501 0.01155 0.0
O2277 O 0.47474 0.52188 1.00208 0.0
C2278 C 0.52526 0.52464 0.07512 0.0
O2279 O 0.48456 0.51863 0.03572 0.0
C2280 C 0.50816 0.56682 0.0246 0.0
C2281 C 0.54805 0.54759 0.01017 0.0
O2282 O 0.51867 0.51115 0.06045 0.0
O2283 O 0.52621 0.54247 0.06867 0.0
O2284 O 0.51892 0.56576 0.04118 0.0
O2285 O 0.50025 0.54928 0.01783 0.0
O2286 O 0.54446 0.5384 0.02661 0.0
O2287 O 0.53386 0.54888 0.99573 0.0
C2288 C 0.49323 0.54126 0.95517 0.0
O2289 O 0.50741 0.53123 0.96004 0.0
O2290 O 0.485 0.54588 0.97095 0.0
C2291 C 0.51069 0.49761 0.00479 0.0
Tb2292 Tb 0.78123 0.28197 0.27071 0.0
C2293 C 0.75303 0.28991 0.3033 0.0
Tb2294 Tb 0.73698 0.27638 0.25758 0.0
O2295 O 0.78277 0.3142 0.27848 0.0
O2296 O 0.76171 0.29906 0.25595 0.0
O2297 O 0.7708 0.2857 0.3001 0.0
C2298 C 0.70003 0.28226 0.24864 0.0
O2299 O 0.73841 0.28874 0.28868 0.0
C2300 C 0.75103 0.24283 0.26215 0.0
C2301 C 0.76521 0.26874 0.22488 0.0
O2302 O 0.7052 0.26889 0.26023 0.0
O2303 O 0.71557 0.29206 0.242 0.0
O2304 O 0.73551 0.24407 0.25003 0.0
O2305 O 0.75644 0.25945 0.27245 0.0
O2306 O 0.7473 0.27245 0.22819 0.0
O2307 O 0.78 0.2703 0.23938 0.0
C2308 C 0.81806 0.27574 0.27978 0.0
O2309 O 0.81319 0.2903 0.26963 0.0
O2310 O 0.80228 0.26493 0.28493 0.0
C2311 C 0.76724 0.31559 0.26643 0.0
Tb2312 Tb 0.98812 0.5279 0.5139 0.0
C2313 C 0.01547 0.49503 0.51641 0.0
Tb2314 Tb 0.0334 0.54179 0.52053 0.0
O2315 O 0.9897 0.51442 0.48385 0.0
O2316 O 0.01113 0.5386 0.49617 0.0
O2317 O 0.99775 0.49939 0.51937 0.0
C2318 C 0.07205 0.55151 0.51633 0.0
O2319 O 0.03099 0.5091 0.51453 0.0
C2320 C 0.01466 0.54388 0.55264 0.0
C2321 C 0.00586 0.57479 0.51791 0.0
O2322 O 0.06481 0.54227 0.53103 0.0
O2323 O 0.05755 0.55512 0.50411 0.0
O2324 O 0.03124 0.55539 0.55039 0.0
O2325 O 0.01057 0.53059 0.53815 0.0
O2326 O 0.0239 0.57062 0.51624 0.0
O2327 O 0.99008 0.56064 0.51853 0.0
C2328 C 0.9493 0.51835 0.51775 0.0
O2329 O 0.95689 0.52265 0.50134 0.0
O2330 O 0.96357 0.51973 0.53203 0.0
C2331 C 0.00669 0.52522 0.48174 0.0
Tb2332 Tb 0.76347 0.78346 0.29036 0.0
C2333 C 0.77214 0.81997 0.26474 0.0
Tb2334 Tb 0.75648 0.77498 0.24596 0.0
O2335 O 0.79555 0.7909 0.28961 0.0
O2336 O 0.7783 0.76984 0.26837 0.0
O2337 O 0.76646 0.81451 0.28212 0.0
C2338 C 0.76212 0.77109 0.20772 0.0
O2339 O 0.77163 0.80652 0.24936 0.0
C2340 C 0.72467 0.77871 0.2635 0.0
C2341 C 0.74852 0.73792 0.27165 0.0
O2342 O 0.74897 0.78064 0.21479 0.0
O2343 O 0.77168 0.76356 0.22205 0.0
O2344 O 0.72447 0.7672 0.24726 0.0
O2345 O 0.74182 0.78879 0.26795 0.0
O2346 O 0.75084 0.74372 0.25348 0.0
O2347 O 0.75201 0.75089 0.28775 0.0
C2348 C 0.75677 0.78632 0.3284 0.0
O2349 O 0.77417 0.78884 0.32205 0.0
O2350 O 0.74325 0.78239 0.31338 0.0
C2351 C 0.79547 0.77978 0.27317 0.0
Tb2352 Tb 0.76506 0.30407 0.76699 0.0
C2353 C 0.80085 0.27996 0.76837 0.0
Tb2354 Tb 0.7558 0.25829 0.76006 0.0
O2355 O 0.77723 0.30213 0.79769 0.0
O2356 O 0.75455 0.27963 0.78417 0.0
O2357 O 0.79507 0.29766 0.76585 0.0
C2358 C 0.74888 0.21829 0.7633 0.0
O2359 O 0.78807 0.26276 0.76756 0.0
C2360 C 0.75422 0.27791 0.7275 0.0
C2361 C 0.72006 0.28219 0.75891 0.0
O2362 O 0.75081 0.23213 0.77791 0.0
O2363 O 0.7513 0.22698 0.74689 0.0
O2364 O 0.7437 0.26044 0.72932 0.0
O2365 O 0.76639 0.28271 0.74297 0.0
O2366 O 0.72596 0.26468 0.7621 0.0
O2367 O 0.73279 0.29934 0.75899 0.0
C2368 C 0.77177 0.34397 0.76314 0.0
O2369 O 0.7724 0.32993 0.74931 0.0
O2370 O 0.76697 0.33554 0.77917 0.0
C2371 C 0.76682 0.2846 0.79957 0.0
Tb2372 Tb 0.74047 0.77269 0.76911 0.0
C2373 C 0.77083 0.78575 0.80802 0.0
Tb2374 Tb 0.78436 0.79298 0.76597 0.0
O2375 O 0.74622 0.74462 0.75403 0.0
O2376 O 0.76895 0.7641 0.77115 0.0
O2377 O 0.75209 0.78297 0.79991 0.0
C2378 C 0.82119 0.79362 0.75748 0.0
O2379 O 0.78618 0.78787 0.79732 0.0
C2380 C 0.76076 0.82036 0.7695 0.0
C2381 C 0.75237 0.78638 0.728 0.0
O2382 O 0.81561 0.80707 0.76943 0.0
O2383 O 0.80611 0.78016 0.75032 0.0
O2384 O 0.77963 0.82495 0.76767 0.0
O2385 O 0.757 0.80144 0.76913 0.0
O2386 O 0.77132 0.78809 0.73505 0.0
O2387 O 0.73754 0.78238 0.73915 0.0
C2388 C 0.70417 0.76327 0.77981 0.0
O2389 O 0.70938 0.77644 0.76723 0.0
O2390 O 0.7193 0.75514 0.78598 0.0
C2391 C 0.76518 0.74826 0.75955 0.0
Tb2392 Tb 0.51486 0.5512 0.51063 0.0
C2393 C 0.51834 0.51735 0.47752 0.0
Tb2394 Tb 0.50389 0.50654 0.51941 0.0
O2395 O 0.54588 0.54792 0.50858 0.0
O2396 O 0.52869 0.52977 0.52635 0.0
O2397 O 0.51563 0.53625 0.48139 0.0
C2398 C 0.50429 0.46887 0.5299 0.0
O2399 O 0.51586 0.50343 0.49063 0.0
C2400 C 0.47367 0.52567 0.51096 0.0
C2401 C 0.50032 0.5402 0.55243 0.0
O2402 O 0.49101 0.47423 0.51722 0.0
O2403 O 0.51734 0.48461 0.53628 0.0
O2404 O 0.47301 0.51041 0.5219 0.0
O2405 O 0.49011 0.52801 0.50374 0.0
O2406 O 0.50375 0.52151 0.54876 0.0
O2407 O 0.50222 0.55399 0.53912 0.0
C2408 C 0.51401 0.58844 0.49921 0.0
O2409 O 0.52556 0.58406 0.51415 0.0
O2410 O 0.5029 0.572 0.4912 0.0
C2411 C 0.54518 0.53243 0.51922 0.0
Tb2412 Tb 0.03133 0.53334 0.0125 0.0
C2413 C 0.0211 0.51928 0.05569 0.0
Tb2414 Tb 0.98903 0.52914 0.02328 0.0
O2415 O 0.03415 0.56635 0.01474 0.0
O2416 O 0.01591 0.54873 0.03233 0.0
O2417 O 0.03361 0.52021 0.0417 0.0
C2418 C 0.95556 0.54161 0.03106 0.0
O2419 O 0.00313 0.52419 0.05243 0.0
C2420 C 0.99903 0.49596 0.00803 0.0
C2421 C 0.99906 0.54262 0.97975 0.0
O2422 O 0.95754 0.52276 0.02812 0.0
O2423 O 0.97227 0.55311 0.02965 0.0
O2424 O 0.98546 0.49599 0.02028 0.0
O2425 O 0.00444 0.51374 0.00355 0.0
O2426 O 0.98626 0.5408 0.99346 0.0
O2427 O 0.01744 0.53882 0.98332 0.0
C2428 C 0.06598 0.52353 0.00474 0.0
O2429 O 0.06339 0.54137 0.01137 0.0
O2430 O 0.04915 0.51144 0.00245 0.0
C2431 C 0.02106 0.56643 0.02746 0.0
H2432 H 0.01845 0.21487 0.96849 0.0
H2433 H 0.02976 0.18133 0.91533 0.0
H2434 H 0.01647 0.18408 0.9863 0.0
H2435 H 0.02831 0.15088 0.9332 0.0
H2436 H 0.99939 0.09637 0.96209 0.0
H2437 H 1.00197 0.12813 0.94642 0.0
H2438 H 0.03705 0.15878 0.99918 0.0
H2439 H 0.0343 0.12664 0.01507 0.0
C2440 C 0.02057 0.20096 0.96063 0.0
C2441 C 0.02421 0.20057 0.94045 0.0
C2442 C 0.01963 0.18339 0.97089 0.0
C2443 C 0.02212 0.16501 0.96114 0.0
C2444 C 0.02608 0.16473 0.94109 0.0
C2445 C 0.02712 0.18226 0.93089 0.0
C2446 C 0.0076 0.10988 0.97042 0.0
C2447 C 0.01673 0.10903 0.98977 0.0
C2448 C 0.00919 0.12807 0.96138 0.0
C2449 C 0.01992 0.14595 0.97144 0.0
C2450 C 0.02864 0.14526 0.99106 0.0
C2451 C 0.02712 0.12691 1.00014 0.0
H2452 H 0.09221 0.75225 0.23086 0.0
H2453 H 0.10853 0.81009 0.20747 0.0
H2454 H 0.12615 0.75377 0.24579 0.0
H2455 H 0.1428 0.8113 0.22139 0.0
H2456 H 0.20132 0.81542 0.25961 0.0
H2457 H 0.16639 0.81534 0.24885 0.0
H2458 H 0.15735 0.75024 0.23828 0.0
H2459 H 0.19176 0.75035 0.25002 0.0
C2460 C 0.10315 0.76525 0.22883 0.0
C2461 C 0.09772 0.78102 0.21798 0.0
C2462 C 0.12271 0.76611 0.23727 0.0
C2463 C 0.13754 0.78259 0.23474 0.0
C2464 C 0.13192 0.7985 0.22404 0.0
C2465 C 0.11225 0.79779 0.21593 0.0
C2466 C 0.19177 0.80109 0.25522 0.0
C2467 C 0.19938 0.7829 0.25585 0.0
C2468 C 0.17171 0.80103 0.24884 0.0
C2469 C 0.15878 0.78278 0.24258 0.0
C2470 C 0.1665 0.76461 0.24336 0.0
C2471 C 0.18641 0.76467 0.25004 0.0
H2472 H 0.49652 0.87373 0.45183 0.0
H2473 H 0.55042 0.90807 0.43551 0.0
H2474 H 0.48937 0.90393 0.46996 0.0
H2475 H 0.54338 0.93833 0.45397 0.0
H2476 H 0.53082 0.97979 0.50928 0.0
H2477 H 0.5394 0.94993 0.49156 0.0
H2478 H 0.48122 0.93839 0.4588 0.0
H2479 H 0.47297 0.96864 0.4758 0.0
C2480 C 0.50693 0.8877 0.45231 0.0
C2481 C 0.52405 0.88856 0.44231 0.0
C2482 C 0.50278 0.90499 0.46257 0.0
C2483 C 0.51581 0.92345 0.46335 0.0
C2484 C 0.53314 0.92426 0.45369 0.0
C2485 C 0.53711 0.90702 0.44306 0.0
C2486 C 0.52002 0.97107 0.49803 0.0
C2487 C 0.50136 0.97675 0.49365 0.0
C2488 C 0.5249 0.95395 0.48798 0.0
C2489 C 0.51097 0.94187 0.4738 0.0
C2490 C 0.4922 0.94737 0.46973 0.0
C2491 C 0.48749 0.96469 0.47944 0.0
H2492 H 0.40499 0.30603 0.71428 0.0
H2493 H 0.38986 0.24092 0.70743 0.0
H2494 H 0.37475 0.30794 0.72977 0.0
H2495 H 0.35999 0.24279 0.72388 0.0
H2496 H 0.29826 0.25467 0.73776 0.0
H2497 H 0.32755 0.25251 0.72018 0.0
H2498 H 0.36106 0.30129 0.76016 0.0
H2499 H 0.33171 0.30386 0.77706 0.0
C2500 C 0.39521 0.29209 0.71601 0.0
C2501 C 0.39998 0.27332 0.70953 0.0
C2502 C 0.37792 0.29317 0.72517 0.0
C2503 C 0.36487 0.27552 0.72823 0.0
C2504 C 0.36954 0.25673 0.72164 0.0
C2505 C 0.38686 0.25565 0.71243 0.0
C2506 C 0.31185 0.26504 0.7426 0.0
C2507 C 0.31263 0.27956 0.75866 0.0
C2508 C 0.32872 0.26368 0.73267 0.0
C2509 C 0.34676 0.27678 0.73865 0.0
C2510 C 0.34742 0.29119 0.75484 0.0
C2511 C 0.3306 0.29256 0.76467 0.0
H2512 H 0.9729 0.8878 0.55686 0.0
H2513 H 0.0368 0.89629 0.56795 0.0
H2514 H 0.97531 0.919 0.54034 0.0
H2515 H 0.03925 0.92685 0.55017 0.0
H2516 H 0.03508 0.99151 0.53416 0.0
H2517 H 0.03348 0.96103 0.5523 0.0
H2518 H 0.98474 0.93144 0.51 0.0
H2519 H 0.98565 0.96223 0.49278 0.0
C2520 C 0.98748 0.89633 0.55581 0.0
C2521 C 0.00465 0.8895 0.56373 0.0
C2522 C 0.98887 0.91409 0.54605 0.0
C2523 C 0.00748 0.92534 0.54374 0.0
C2524 C 0.02467 0.91863 0.55181 0.0
C2525 C 0.02327 0.90094 0.56176 0.0
C2526 C 0.02394 0.9785 0.52895 0.0
C2527 C 0.01024 0.97927 0.51238 0.0
C2528 C 0.02315 0.96098 0.53915 0.0
C2529 C 0.00884 0.94384 0.53272 0.0
C2530 C 0.99563 0.94451 0.51566 0.0
C2531 C 0.99628 0.96207 0.50565 0.0
H2532 H 0.43702 0.80514 0.84235 0.0
H2533 H 0.42649 0.73983 0.83525 0.0
H2534 H 0.40616 0.80572 0.82176 0.0
H2535 H 0.39541 0.74045 0.81471 0.0
H2536 H 0.35426 0.80068 0.77451 0.0
H2537 H 0.38794 0.79744 0.78785 0.0
H2538 H 0.36385 0.7502 0.82359 0.0
H2539 H 0.33044 0.75333 0.81018 0.0
C2540 C 0.42832 0.79092 0.83604 0.0
C2541 C 0.43407 0.77243 0.84054 0.0
C2542 C 0.41067 0.79127 0.82421 0.0
C2543 C 0.3984 0.77313 0.81672 0.0
C2544 C 0.40452 0.75464 0.82052 0.0
C2545 C 0.42222 0.75429 0.83232 0.0
C2546 C 0.35629 0.78948 0.78505 0.0
C2547 C 0.33991 0.77739 0.79153 0.0
C2548 C 0.37547 0.78765 0.79268 0.0
C2549 C 0.37845 0.77358 0.80674 0.0
C2550 C 0.362 0.76098 0.81258 0.0
C2551 C 0.34289 0.76291 0.80507 0.0
H2552 H 0.5118 0.20193 0.03247 0.0
H2553 H 0.48974 0.17512 0.08418 0.0
H2554 H 0.51252 0.16805 0.01689 0.0
H2555 H 0.49036 0.14151 0.06863 0.0
H2556 H 0.53542 0.10327 0.01755 0.0
H2557 H 0.53308 0.13831 0.02767 0.0
H2558 H 0.47146 0.1203 0.03599 0.0
H2559 H 0.47353 0.0854 0.02576 0.0
C2560 C 0.50698 0.1888 0.04039 0.0
C2561 C 0.50077 0.19107 0.05952 0.0
C2562 C 0.50749 0.16953 0.03156 0.0
C2563 C 0.50141 0.1523 0.04158 0.0
C2564 C 0.49494 0.15459 0.06055 0.0
C2565 C 0.49473 0.17379 0.06948 0.0
C2566 C 0.52126 0.10681 0.02116 0.0
C2567 C 0.50471 0.09147 0.021 0.0
C2568 C 0.51994 0.12687 0.02687 0.0
C2569 C 0.50214 0.13185 0.03271 0.0
C2570 C 0.48539 0.11673 0.03168 0.0
C2571 C 0.48661 0.09677 0.02576 0.0
H2572 H 0.13076 0.28585 0.37891 0.0
H2573 H 0.08846 0.26593 0.32727 0.0
H2574 H 0.15777 0.28684 0.35794 0.0
H2575 H 0.11559 0.26685 0.30625 0.0
H2576 H 0.17326 0.2485 0.28331 0.0
H2577 H 0.14402 0.24871 0.30147 0.0
H2578 H 0.17053 0.30679 0.33127 0.0
H2579 H 0.19967 0.30636 0.31354 0.0
C2580 C 0.12725 0.28188 0.36305 0.0
C2581 C 0.10756 0.27586 0.3547 0.0
C2582 C 0.14268 0.28245 0.35105 0.0
C2583 C 0.1387 0.27703 0.33047 0.0
C2584 C 0.11903 0.27092 0.3221 0.0
C2585 C 0.10356 0.27038 0.33412 0.0
C2586 C 0.17262 0.26135 0.29358 0.0
C2587 C 0.18867 0.27726 0.29732 0.0
C2588 C 0.15594 0.26152 0.3039 0.0
C2589 C 0.15521 0.27764 0.31796 0.0
C2590 C 0.17092 0.29399 0.32084 0.0
C2591 C 0.18753 0.29377 0.31064 0.0
H2592 H 0.91637 0.07365 0.13389 0.0
H2593 H 0.94922 0.03353 0.16533 0.0
H2594 H 0.93676 0.07181 0.10626 0.0
H2595 H 0.97 0.03217 0.13822 0.0
H2596 H 0.98616 0.07503 0.06512 0.0
H2597 H 0.96877 0.08021 0.09453 0.0
H2598 H 0.96702 0.01732 0.10555 0.0
H2599 H 0.98488 0.0124 0.07706 0.0
C2600 C 0.92812 0.06465 0.13497 0.0
C2601 C 0.93103 0.0535 0.15161 0.0
C2602 C 0.93989 0.06367 0.11921 0.0
C2603 C 0.95495 0.05169 0.11987 0.0
C2604 C 0.95824 0.04115 0.13691 0.0
C2605 C 0.94635 0.04194 0.1525 0.0
C2606 C 0.98232 0.06243 0.07404 0.0
C2607 C 0.98705 0.04334 0.06872 0.0
C2608 C 0.97218 0.06534 0.09079 0.0
C2609 C 0.9665 0.0492 0.10251 0.0
C2610 C 0.97148 0.03024 0.09723 0.0
C2611 C 0.98167 0.02738 0.08069 0.0
H2612 H 0.27034 0.69674 0.39238 0.0
H2613 H 0.29818 0.75384 0.42312 0.0
H2614 H 0.26522 0.71339 0.36172 0.0
H2615 H 0.29292 0.77053 0.39256 0.0
H2616 H 0.29874 0.79213 0.33074 0.0
H2617 H 0.3036 0.77459 0.36078 0.0
H2618 H 0.24715 0.73582 0.34457 0.0
H2619 H 0.24254 0.75338 0.31415 0.0
C2620 C 0.27524 0.7129 0.39271 0.0
C2621 C 0.28474 0.72385 0.41041 0.0
C2622 C 0.27225 0.7225 0.37502 0.0
C2623 C 0.27865 0.74342 0.37441 0.0
C2624 C 0.28809 0.75437 0.39216 0.0
C2625 C 0.29113 0.74475 0.40981 0.0
C2626 C 0.28734 0.77985 0.33356 0.0
C2627 C 0.27028 0.77414 0.31996 0.0
C2628 C 0.29007 0.76982 0.35094 0.0
C2629 C 0.27574 0.75377 0.35543 0.0
C2630 C 0.25868 0.74791 0.34165 0.0
C2631 C 0.25599 0.75798 0.32416 0.0
H2632 H 0.57409 0.97417 0.66194 0.0
H2633 H 0.55252 0.02783 0.68278 0.0
H2634 H 0.56038 0.97805 0.62801 0.0
H2635 H 0.5394 0.03207 0.64878 0.0
H2636 H 0.50231 0.02381 0.58813 0.0
H2637 H 0.5139 0.0177 0.62213 0.0
H2638 H 0.56674 1.00013 0.60141 0.0
H2639 H 0.55506 0.00593 0.56742 0.0
C2640 C 0.5663 0.98671 0.65935 0.0
C2641 C 0.56448 1.00069 0.67519 0.0
C2642 C 0.55863 0.98908 0.63981 0.0
C2643 C 0.54882 0.00543 0.63556 0.0
C2644 C 0.54668 0.01919 0.65146 0.0
C2645 C 0.55442 0.01687 0.67097 0.0
C2646 C 0.51635 0.01852 0.59077 0.0
C2647 C 0.52771 0.01537 0.57493 0.0
C2648 C 0.52307 0.01514 0.61034 0.0
C2649 C 0.5413 0.00844 0.61461 0.0
C2650 C 0.55252 0.00504 0.59871 0.0
C2651 C 0.54585 0.0085 0.57917 0.0
H2652 H 0.26772 0.31581 0.95467 0.0
H2653 H 0.21674 0.33792 0.92741 0.0
H2654 H 0.27046 0.2969 0.92328 0.0
H2655 H 0.21967 0.31951 0.896 0.0
H2656 H 0.22387 0.27952 0.84268 0.0
H2657 H 0.21807 0.28774 0.87709 0.0
H2658 H 0.28103 0.3078 0.89221 0.0
H2659 H 0.28678 0.29888 0.85801 0.0
C2660 C 0.25699 0.3164 0.94199 0.0
C2661 C 0.24214 0.3284 0.94332 0.0
C2662 C 0.25856 0.30565 0.92407 0.0
C2663 C 0.2454 0.30687 0.90714 0.0
C2664 C 0.22988 0.318 0.90883 0.0
C2665 C 0.22822 0.32862 0.9268 0.0
C2666 C 0.23646 0.28532 0.85351 0.0
C2667 C 0.25574 0.28878 0.84782 0.0
C2668 C 0.23314 0.2901 0.87315 0.0
C2669 C 0.24906 0.29857 0.88731 0.0
C2670 C 0.26847 0.30104 0.88173 0.0
C2671 C 0.27178 0.2961 0.86213 0.0
H2672 H 0.94 0.09124 0.34885 0.0
H2673 H 0.95049 0.03203 0.32865 0.0
H2674 H 0.9573 0.0881 0.38145 0.0
H2675 H 0.96743 0.02866 0.36128 0.0
H2676 H 0.0079 0.03319 0.41884 0.0
H2677 H 0.99584 0.04019 0.38517 0.0
H2678 H 0.95022 0.0689 0.4093 0.0
H2679 H 0.96268 0.06245 0.4428 0.0
C2680 C 0.94609 0.0776 0.35138 0.0
C2681 C 0.94382 0.06185 0.33626 0.0
C2682 C 0.95594 0.07575 0.37005 0.0
C2683 C 0.9636 0.05804 0.37405 0.0
C2684 C 0.96196 0.04261 0.35865 0.0
C2685 C 0.95222 0.04452 0.33995 0.0
C2686 C 0.99542 0.04116 0.41686 0.0
C2687 C 0.98616 0.04724 0.43332 0.0
C2688 C 0.98844 0.04508 0.39762 0.0
C2689 C 0.97205 0.0551 0.39452 0.0
C2690 C 0.96308 0.06147 0.41113 0.0
C2691 C 0.9701 0.05763 0.43033 0.0
H2692 H 0.30898 0.70651 0.62591 0.0
H2693 H 0.27011 0.74397 0.59868 0.0
H2694 H 0.30321 0.71983 0.65883 0.0
H2695 H 0.26438 0.75732 0.63159 0.0
H2696 H 0.24188 0.76132 0.69331 0.0
H2697 H 0.24824 0.7487 0.66034 0.0
H2698 H 0.30935 0.74872 0.68223 0.0
H2699 H 0.30287 0.76085 0.71532 0.0
C2700 C 0.29941 0.71779 0.62687 0.0
C2701 C 0.29003 0.72407 0.60944 0.0
C2702 C 0.29606 0.72546 0.64586 0.0
C2703 C 0.28324 0.73969 0.64807 0.0
C2704 C 0.27405 0.74613 0.63063 0.0
C2705 C 0.27738 0.73845 0.61166 0.0
C2706 C 0.25671 0.75871 0.69113 0.0
C2707 C 0.27183 0.76219 0.70713 0.0
C2708 C 0.2604 0.75154 0.6721 0.0
C2709 C 0.27936 0.74762 0.66841 0.0
C2710 C 0.2945 0.75123 0.68442 0.0
C2711 C 0.2908 0.75838 0.70345 0.0
H2712 H 0.55932 0.03977 0.86671 0.0
H2713 H 0.56982 0.9821 0.88641 0.0
H2714 H 0.54453 0.0466 0.89729 0.0
H2715 H 0.55526 0.9891 0.91708 0.0
H2716 H 0.54442 0.0155 0.97826 0.0
H2717 H 0.56072 0.01056 0.94812 0.0
H2718 H 0.51535 0.03562 0.91404 0.0
H2719 H 0.49925 0.04077 0.94429 0.0
C2720 C 0.55835 0.02842 0.87742 0.0
C2721 C 0.56579 0.0103 0.87386 0.0
C2722 C 0.54988 0.0324 0.89506 0.0
C2723 C 0.54866 0.01844 0.90978 0.0
C2724 C 0.5562 1.00039 0.9063 0.0
C2725 C 0.56459 0.99636 0.88862 0.0
C2726 C 0.53805 0.02015 0.96436 0.0
C2727 C 0.52051 0.02852 0.96367 0.0
C2728 C 0.5473 0.01715 0.94702 0.0
C2729 C 0.53932 0.02253 0.9285 0.0
C2730 C 0.52206 0.03143 0.92799 0.0
C2731 C 0.51276 0.03434 0.94533 0.0
H2732 H 0.26801 0.33181 0.12113 0.0
H2733 H 0.20746 0.33907 0.12809 0.0
H2734 H 0.26804 0.31133 0.14911 0.0
H2735 H 0.20652 0.31604 0.15394 0.0
H2736 H 0.22071 0.30201 0.21814 0.0
H2737 H 0.21631 0.31605 0.18641 0.0
H2738 H 0.25972 0.28256 0.16411 0.0
H2739 H 0.26536 0.27005 0.19692 0.0
C2740 C 0.2546 0.32897 0.12843 0.0
C2741 C 0.2379 0.33769 0.1224 0.0
C2742 C 0.25443 0.31662 0.14427 0.0
C2743 C 0.2373 0.31196 0.15412 0.0
C2744 C 0.22022 0.31965 0.14725 0.0
C2745 C 0.22064 0.33265 0.13195 0.0
C2746 C 0.22897 0.29726 0.20629 0.0
C2747 C 0.24345 0.28505 0.20995 0.0
C2748 C 0.2264 0.30529 0.18791 0.0
C2749 C 0.23784 0.30078 0.1725 0.0
C2750 C 0.2511 0.28701 0.17573 0.0
C2751 C 0.25415 0.27954 0.19442 0.0
H2752 H 0.11447 0.93319 0.03261 0.0
H2753 H 0.1546 0.98387 0.01583 0.0
H2754 H 0.08828 0.95381 0.0331 0.0
H2755 H 0.12836 0.00423 0.01513 0.0
H2756 H 0.08404 0.0435 0.03078 0.0
H2757 H 0.10973 0.02241 0.03258 0.0
H2758 H 0.06509 0.96939 0.01636 0.0
H2759 H 0.03954 0.99064 0.01572 0.0
C2760 C 0.11762 0.9487 0.02877 0.0
C2761 C 0.13671 0.95688 0.02431 0.0
C2762 C 0.10252 0.9606 0.02894 0.0
C2763 C 0.10593 0.98099 0.02428 0.0
C2764 C 0.12502 0.98891 0.01941 0.0
C2765 C 0.14016 0.97714 0.01963 0.0
C2766 C 0.07974 0.02728 0.02786 0.0
C2767 C 0.05965 0.01876 0.02349 0.0
C2768 C 0.09454 0.01509 0.02864 0.0
C2769 C 0.08982 0.99393 0.02445 0.0
C2770 C 0.06958 0.98545 0.02011 0.0
C2771 C 0.05474 0.99768 0.01978 0.0
H2772 H 0.67601 0.58386 0.02267 0.0
H2773 H 0.65493 0.62084 0.97806 0.0
H2774 H 0.64224 0.56661 0.02405 0.0
H2775 H 0.62094 0.60427 0.97996 0.0
H2776 H 0.56372 0.55904 0.97605 0.0
H2777 H 0.59783 0.57407 0.97263 0.0
H2778 H 0.61264 0.57267 0.03613 0.0
H2779 H 0.5789 0.55688 0.03933 0.0
C2780 C 0.66406 0.58833 0.01323 0.0
C2781 C 0.66797 0.60367 1.0003 0.0
C2782 C 0.6447 0.57856 0.01409 0.0
C2783 C 0.62878 0.58416 1.00225 0.0
C2784 C 0.63282 0.59935 0.98908 0.0
C2785 C 0.65225 0.60891 0.98802 0.0
C2786 C 0.57432 0.56188 0.98924 0.0
C2787 C 0.56866 0.55667 0.00794 0.0
C2788 C 0.59385 0.57061 0.98731 0.0
C2789 C 0.60806 0.57455 0.00409 0.0
C2790 C 0.60226 0.56945 0.0228 0.0
C2791 C 0.58285 0.56049 0.02467 0.0
H2792 H 0.67812 0.39462 0.26518 0.0
H2793 H 0.7331 0.43348 0.28756 0.0
H2794 H 0.69591 0.36622 0.26117 0.0
H2795 H 0.75077 0.40503 0.28378 0.0
H2796 H 0.77124 0.34509 0.29635 0.0
H2797 H 0.75329 0.37345 0.299 0.0
H2798 H 0.72071 0.35361 0.24148 0.0
H2799 H 0.73901 0.32524 0.23879 0.0
C2800 C 0.69402 0.39719 0.26908 0.0
C2801 C 0.70413 0.41641 0.27677 0.0
C2802 C 0.70421 0.38087 0.26678 0.0
C2803 C 0.72475 0.38332 0.2722 0.0
C2804 C 0.73489 0.40254 0.27975 0.0
C2805 C 0.72473 0.41886 0.28198 0.0
C2806 C 0.76031 0.34684 0.28422 0.0
C2807 C 0.75633 0.33283 0.26745 0.0
C2808 C 0.75006 0.36313 0.28571 0.0
C2809 C 0.73556 0.36585 0.27045 0.0
C2810 C 0.73159 0.3518 0.25362 0.0
C2811 C 0.74197 0.33551 0.2521 0.0
H2812 H 0.82055 0.48031 0.49986 0.0
H2813 H 0.84021 0.45149 0.55164 0.0
H2814 H 0.85417 0.49816 0.49876 0.0
H2815 H 0.87405 0.46853 0.55014 0.0
H2816 H 0.93145 0.51227 0.55177 0.0
H2817 H 0.89683 0.49852 0.55462 0.0
H2818 H 0.88511 0.49305 0.4903 0.0
H2819 H 0.91944 0.50772 0.48769 0.0
C2820 C 0.83213 0.47776 0.51098 0.0
C2821 C 0.82775 0.4645 0.52582 0.0
C2822 C 0.85147 0.48789 0.5103 0.0
C2823 C 0.86706 0.48476 0.52425 0.0
C2824 C 0.86252 0.47168 0.53931 0.0
C2825 C 0.84309 0.46181 0.54016 0.0
C2826 C 0.92136 0.50832 0.53829 0.0
C2827 C 0.9281 0.51109 0.51952 0.0
C2828 C 0.90152 0.50025 0.53988 0.0
C2829 C 0.88799 0.49449 0.5227 0.0
C2830 C 0.89484 0.49757 0.50392 0.0
C2831 C 0.91461 0.50589 0.50237 0.0
H2832 H 0.36294 0.17954 0.27487 0.0
H2833 H 0.31477 0.13953 0.24001 0.0
H2834 H 0.34181 0.20539 0.27758 0.0
H2835 H 0.29398 0.16554 0.24209 0.0
H2836 H 0.25509 0.20656 0.26963 0.0
H2837 H 0.27689 0.18154 0.26641 0.0
H2838 H 0.32529 0.22893 0.25854 0.0
H2839 H 0.3033 0.25402 0.26205 0.0
C2840 C 0.34788 0.17624 0.26775 0.0
C2841 C 0.34063 0.15736 0.25723 0.0
C2842 C 0.33581 0.19117 0.26911 0.0
C2843 C 0.31612 0.1876 0.26009 0.0
C2844 C 0.30896 0.16879 0.24944 0.0
C2845 C 0.32101 0.15391 0.24804 0.0
C2846 C 0.27038 0.21164 0.26716 0.0
C2847 C 0.27749 0.23227 0.26608 0.0
C2848 C 0.28288 0.19727 0.2652 0.0
C2849 C 0.3029 0.20313 0.26213 0.0
C2850 C 0.31003 0.22385 0.26108 0.0
C2851 C 0.29744 0.23825 0.26298 0.0
H2852 H 0.3456 0.0706 0.49535 0.0
H2853 H 0.35992 0.10613 0.55183 0.0
H2854 H 0.37286 0.05239 0.50351 0.0
H2855 H 0.38704 0.08766 0.56023 0.0
H2856 H 0.44964 0.07326 0.55034 0.0
H2857 H 0.41897 0.08711 0.54889 0.0
H2858 H 0.38636 0.02908 0.52436 0.0
H2859 H 0.41731 0.01543 0.52528 0.0
C2860 C 0.35433 0.07419 0.5097 0.0
C2861 C 0.3508 0.08989 0.52287 0.0
C2862 C 0.36991 0.0637 0.51444 0.0
C2863 C 0.38219 0.06861 0.53251 0.0
C2864 C 0.37806 0.08374 0.54606 0.0
C2865 C 0.36256 0.09431 0.54125 0.0
C2866 C 0.43585 0.06335 0.54509 0.0
C2867 C 0.43579 0.04335 0.53779 0.0
C2868 C 0.41823 0.07125 0.54431 0.0
C2869 C 0.40021 0.05925 0.53631 0.0
C2870 C 0.40004 0.03881 0.53027 0.0
C2871 C 0.41771 0.03094 0.53097 0.0
H2872 H 0.68401 0.62483 0.30401 0.0
H2873 H 0.72686 0.60566 0.26726 0.0
H2874 H 0.69744 0.65998 0.30034 0.0
H2875 H 0.7401 0.64095 0.26337 0.0
H2876 H 0.74247 0.70588 0.24324 0.0
H2877 H 0.73033 0.6704 0.24742 0.0
H2878 H 0.72722 0.68516 0.31004 0.0
H2879 H 0.7391 0.7206 0.30588 0.0
C2880 C 0.69647 0.62806 0.29537 0.0
C2881 C 0.70436 0.61228 0.28601 0.0
C2882 C 0.70414 0.64828 0.29321 0.0
C2883 C 0.71986 0.65332 0.28156 0.0
C2884 C 0.72781 0.6376 0.27224 0.0
C2885 C 0.7202 0.61735 0.27447 0.0
C2886 C 0.73926 0.70157 0.25792 0.0
C2887 C 0.74177 0.71617 0.27421 0.0
C2888 C 0.7324 0.68119 0.26033 0.0
C2889 C 0.72776 0.67491 0.27906 0.0
C2890 C 0.73041 0.68949 0.29536 0.0
C2891 C 0.73736 0.70983 0.29298 0.0
H2892 H 0.80894 0.4672 0.72918 0.0
H2893 H 0.84727 0.45897 0.78138 0.0
H2894 H 0.78916 0.43395 0.73188 0.0
H2895 H 0.82775 0.42579 0.78393 0.0
H2896 H 0.77926 0.37411 0.79318 0.0
H2897 H 0.79426 0.40938 0.79107 0.0
H2898 H 0.79479 0.39803 0.72752 0.0
H2899 H 0.77982 0.36283 0.72967 0.0
C2900 C 0.81302 0.45837 0.74131 0.0
C2901 C 0.82974 0.46565 0.75498 0.0
C2902 C 0.80179 0.4393 0.74278 0.0
C2903 C 0.80688 0.42724 0.75812 0.0
C2904 C 0.8233 0.43477 0.77206 0.0
C2905 C 0.83462 0.4537 0.77048 0.0
C2906 C 0.7823 0.37927 0.77874 0.0
C2907 C 0.77844 0.36577 0.7616 0.0
C2908 C 0.791 0.3994 0.77754 0.0
C2909 C 0.79582 0.40647 0.75914 0.0
C2910 C 0.79112 0.39312 0.74188 0.0
C2911 C 0.78262 0.37295 0.74312 0.0
H2912 H 0.96783 0.85244 0.07673 0.0
H2913 H 0.02938 0.87125 0.0995 0.0
H2914 H 0.96912 0.8826 0.05827 0.0
H2915 H 0.03102 0.9004 0.08005 0.0
H2916 H 0.02144 0.96287 0.06502 0.0
H2917 H 0.01998 0.93164 0.08129 0.0
H2918 H 0.98174 0.89998 0.03082 0.0
H2919 H 0.98269 0.93186 0.01476 0.0
C2920 C 0.98166 0.8629 0.07775 0.0
C2921 C 0.99846 0.85934 0.08977 0.0
C2922 C 0.98248 0.88007 0.0669 0.0
C2923 C 1.00015 0.89408 0.0677 0.0
C2924 C 0.01704 0.8902 0.07929 0.0
C2925 C 0.01618 0.87321 0.09027 0.0
C2926 C 0.01278 0.94924 0.05731 0.0
C2927 C 0.00221 0.94978 0.03859 0.0
C2928 C 0.01205 0.93123 0.0666 0.0
C2929 C 1.00088 0.91314 0.05735 0.0
C2930 C 0.99036 0.91364 0.03847 0.0
C2931 C 0.99101 0.93183 0.02918 0.0
H2932 H 0.92445 0.25906 0.79134 0.0
H2933 H 0.91347 0.29964 0.83953 0.0
H2934 H 0.89082 0.259 0.77531 0.0
H2935 H 0.8801 0.29963 0.8236 0.0
H2936 H 0.83017 0.3123 0.77959 0.0
H2937 H 0.86449 0.312 0.79228 0.0
H2938 H 0.85478 0.24695 0.78285 0.0
H2939 H 0.82021 0.24714 0.7702 0.0
C2940 C 0.9149 0.26801 0.79844 0.0
C2941 C 0.92159 0.27929 0.81674 0.0
C2942 C 0.89563 0.26789 0.78935 0.0
C2943 C 0.88282 0.27936 0.79816 0.0
C2944 C 0.88964 0.29078 0.81633 0.0
C2945 C 0.90871 0.29065 0.82554 0.0
C2946 C 0.83533 0.2979 0.77993 0.0
C2947 C 0.82232 0.27973 0.77388 0.0
C2948 C 0.85501 0.29775 0.78735 0.0
C2949 C 0.86233 0.27945 0.78871 0.0
C2950 C 0.8496 0.26131 0.7819 0.0
C2951 C 0.82978 0.26142 0.77471 0.0
H2952 H 0.47009 0.15391 0.59559 0.0
H2953 H 0.52954 0.18262 0.58797 0.0
H2954 H 0.47518 0.12375 0.57585 0.0
H2955 H 0.53465 0.15245 0.56876 0.0
H2956 H 0.54506 0.08739 0.55856 0.0
H2957 H 0.53799 0.11752 0.57652 0.0
H2958 H 0.48143 0.11135 0.54098 0.0
H2959 H 0.48873 0.08116 0.52266 0.0
C2960 C 0.48416 0.15391 0.5896 0.0
C2961 C 0.49949 0.17068 0.59366 0.0
C2962 C 0.48706 0.1366 0.5783 0.0
C2963 C 0.50539 0.13563 0.57094 0.0
C2964 C 0.52049 0.15256 0.57457 0.0
C2965 C 0.51757 0.16985 0.58568 0.0
C2966 C 0.53113 0.09247 0.55452 0.0
C2967 C 0.51739 0.08186 0.5393 0.0
C2968 C 0.5271 0.10977 0.56478 0.0
C2969 C 0.50919 0.11689 0.56012 0.0
C2970 C 0.49529 0.10615 0.54501 0.0
C2971 C 0.49944 0.08887 0.53456 0.0
H2972 H 0.62592 0.82039 0.31679 0.0
H2973 H 0.61865 0.75654 0.32544 0.0
H2974 H 0.65623 0.81793 0.30135 0.0
H2975 H 0.64852 0.7541 0.30941 0.0
H2976 H 0.68902 0.75383 0.25859 0.0
H2977 H 0.65961 0.75678 0.27554 0.0
H2978 H 0.69093 0.81092 0.30933 0.0
H2979 H 0.72041 0.80797 0.29222 0.0
C2980 C 0.63076 0.80585 0.31559 0.0
C2981 C 0.61955 0.78866 0.32237 0.0
C2982 C 0.64818 0.80446 0.30665 0.0
C2983 C 0.65478 0.7858 0.30404 0.0
C2984 C 0.64371 0.76865 0.3109 0.0
C2985 C 0.62644 0.77007 0.32002 0.0
C2986 C 0.68963 0.76636 0.26965 0.0
C2987 C 0.70702 0.78064 0.27409 0.0
C2988 C 0.67281 0.76798 0.27945 0.0
C2989 C 0.67289 0.78407 0.29383 0.0
C2990 C 0.69031 0.79844 0.29822 0.0
C2991 C 0.70723 0.79669 0.28852 0.0
H2992 H 0.02098 0.19303 0.50191 0.0
H2993 H 0.98511 0.16308 0.4492 0.0
H2994 H 0.01986 0.16078 0.51655 0.0
H2995 H 0.98298 0.13103 0.46436 0.0
H2996 H 0.00922 0.07608 0.48512 0.0
H2997 H 0.00563 0.10804 0.47139 0.0
H2998 H 0.99973 0.13384 0.53035 0.0
H2999 H 0.00345 0.10158 0.54392 0.0
C3000 C 0.01265 0.1796 0.49355 0.0
C3001 C 0.00332 0.1806 0.47431 0.0
C3002 C 0.01178 0.16114 0.50206 0.0
C3003 C 1.00143 0.14331 0.49157 0.0
C3004 C 0.99134 0.14445 0.4727 0.0
C3005 C 0.99233 0.16289 0.46413 0.0
C3006 C 0.00642 0.08834 0.49493 0.0
C3007 C 0.00594 0.08628 0.51536 0.0
C3008 C 0.00454 0.10674 0.48716 0.0
C3009 C 0.00218 0.12346 0.49975 0.0
C3010 C 1.00165 0.1213 0.52028 0.0
C3011 C 0.0037 0.10288 0.52803 0.0
H3012 H 0.578 0.25941 0.20258 0.0
H3013 H 0.59471 0.32368 0.19822 0.0
H3014 H 0.60973 0.25873 0.22151 0.0
H3015 H 0.62566 0.32325 0.21848 0.0
H3016 H 0.68842 0.30783 0.22242 0.0
H3017 H 0.6548 0.31139 0.21067 0.0
H3018 H 0.63214 0.26798 0.25106 0.0
H3019 H 0.6661 0.26385 0.26223 0.0
C3020 C 0.58829 0.27345 0.20593 0.0
C3021 C 0.58396 0.2915 0.19851 0.0
C3022 C 0.60636 0.27312 0.21708 0.0
C3023 C 0.62035 0.2909 0.22126 0.0
C3024 C 0.61537 0.30921 0.21513 0.0
C3025 C 0.59746 0.30949 0.20373 0.0
C3026 C 0.67625 0.29916 0.22888 0.0
C3027 C 0.67972 0.28543 0.24304 0.0
C3028 C 0.65696 0.30135 0.22232 0.0
C3029 C 0.64075 0.28999 0.22997 0.0
C3030 C 0.64431 0.27675 0.24471 0.0
C3031 C 0.66369 0.27443 0.25116 0.0
H3032 H 0.55509 0.88481 0.9734 0.0
H3033 H 0.49877 0.85947 0.99237 0.0
H3034 H 0.55252 0.9176 0.9894 0.0
H3035 H 0.49641 0.89211 0.00909 0.0
H3036 H 0.4862 0.9582 0.00745 0.0
H3037 H 0.48993 0.92356 0.99901 0.0
H3038 H 0.55253 0.93821 0.01908 0.0
H3039 H 0.54892 0.97325 0.02676 0.0
C3040 C 0.5424 0.88618 0.98146 0.0
C3041 C 0.52707 0.86971 0.98157 0.0
C3042 C 0.54094 0.90495 0.99073 0.0
C3043 C 0.5242 0.90757 1.0005 0.0
C3044 C 0.50932 0.89075 1.00138 0.0
C3045 C 0.51068 0.87205 0.99189 0.0
C3046 C 0.50072 0.95401 0.01041 0.0
C3047 C 0.51732 0.96856 0.01756 0.0
C3048 C 0.50285 0.93403 0.00565 0.0
C3049 C 0.52159 0.92808 0.00817 0.0
C3050 C 0.53797 0.94238 0.01653 0.0
C3051 C 0.53588 0.96244 0.02106 0.0
H3052 H 0.92758 0.77226 0.70499 0.0
H3053 H 0.90303 0.81949 0.67562 0.0
H3054 H 0.90438 0.77334 0.7301 0.0
H3055 H 0.88042 0.82097 0.70115 0.0
H3056 H 0.83648 0.7622 0.74245 0.0
H3057 H 0.86629 0.76376 0.72532 0.0
H3058 H 0.87956 0.82837 0.73942 0.0
H3059 H 0.84967 0.82673 0.75693 0.0
C3060 C 0.9173 0.7829 0.7039 0.0
C3061 C 0.91696 0.7956 0.68813 0.0
C3062 C 0.90423 0.78365 0.7184 0.0
C3063 C 0.89078 0.79731 0.71755 0.0
C3064 C 0.89093 0.81056 0.7023 0.0
C3065 C 0.90383 0.80965 0.68766 0.0
C3066 C 0.84607 0.77664 0.74232 0.0
C3067 C 0.84089 0.79437 0.75081 0.0
C3068 C 0.86313 0.77752 0.73263 0.0
C3069 C 0.87507 0.79619 0.73102 0.0
C3070 C 0.87047 0.81382 0.74046 0.0
C3071 C 0.85352 0.81288 0.75052 0.0
H3072 H 0.06874 0.02757 0.8636 0.0
H3073 H 0.09176 0.97695 0.88798 0.0
H3074 H 0.04904 0.02971 0.89117 0.0
H3075 H 0.0732 0.98031 0.9167 0.0
H3076 H 0.0252 0.98234 0.95935 0.0
H3077 H 0.04157 0.97661 0.92933 0.0
H3078 H 0.05417 0.04114 0.92466 0.0
H3079 H 0.03726 0.04673 0.95366 0.0
C3080 C 0.06957 0.01676 0.87475 0.0
C3081 C 0.08193 0.00204 0.87338 0.0
C3082 C 0.05846 0.01825 0.89086 0.0
C3083 C 0.05967 0.00538 0.90641 0.0
C3084 C 0.07175 0.99041 0.90496 0.0
C3085 C 0.08268 0.9887 0.88861 0.0
C3086 C 0.03125 0.99524 0.9517 0.0
C3087 C 0.02968 0.01496 0.95884 0.0
C3088 C 0.0408 0.99198 0.9346 0.0
C3089 C 0.04911 0.00839 0.92439 0.0
C3090 C 0.04753 0.02805 0.93168 0.0
C3091 C 0.03786 0.03127 0.94851 0.0
H3092 H 0.70684 0.33149 0.62244 0.0
H3093 H 0.77011 0.34796 0.62246 0.0
H3094 H 0.71178 0.31543 0.65337 0.0
H3095 H 0.77526 0.33113 0.65307 0.0
H3096 H 0.77876 0.31157 0.71693 0.0
H3097 H 0.77395 0.33036 0.68744 0.0
H3098 H 0.72107 0.2874 0.66677 0.0
H3099 H 0.72518 0.26985 0.69677 0.0
C3100 C 0.72186 0.33147 0.62895 0.0
C3101 C 0.73805 0.34096 0.61983 0.0
C3102 C 0.72476 0.32214 0.64675 0.0
C3103 C 0.74399 0.32164 0.65591 0.0
C3104 C 0.76021 0.33133 0.64682 0.0
C3105 C 0.75727 0.34094 0.62913 0.0
C3106 C 0.76586 0.30652 0.7063 0.0
C3107 C 0.75211 0.28949 0.7095 0.0
C3108 C 0.76325 0.31708 0.68912 0.0
C3109 C 0.74697 0.31066 0.6745 0.0
C3110 C 0.7335 0.29333 0.67771 0.0
C3111 C 0.73598 0.28303 0.69493 0.0
H3112 H 0.48105 0.0805 0.35704 0.0
H3113 H 0.42934 0.03608 0.36213 0.0
H3114 H 0.49377 0.07598 0.39131 0.0
H3115 H 0.44213 0.03137 0.39608 0.0
H3116 H 0.45979 0.04427 0.46295 0.0
H3117 H 0.44812 0.05027 0.42904 0.0
H3118 H 0.50685 0.04993 0.41143 0.0
H3119 H 0.51867 0.04398 0.44552 0.0
C3120 C 0.47239 0.06981 0.36546 0.0
C3121 C 0.4542 0.05861 0.35677 0.0
C3122 C 0.47975 0.06709 0.38504 0.0
C3123 C 0.46897 0.05333 0.39649 0.0
C3124 C 0.45075 0.04224 0.3878 0.0
C3125 C 0.44351 0.0448 0.36822 0.0
C3126 C 0.4703 0.04556 0.45193 0.0
C3127 C 0.4902 0.04359 0.45705 0.0
C3128 C 0.46355 0.04888 0.43241 0.0
C3129 C 0.4765 0.05049 0.41744 0.0
C3130 C 0.4965 0.04891 0.42261 0.0
C3131 C 0.50325 0.04539 0.44215 0.0
H3132 H 0.74579 0.74156 0.08238 0.0
H3133 H 0.80825 0.74095 0.0975 0.0
H3134 H 0.74381 0.75688 0.11549 0.0
H3135 H 0.80659 0.75769 0.13001 0.0
H3136 H 0.78737 0.74899 0.19247 0.0
H3137 H 0.79292 0.74353 0.15783 0.0
H3138 H 0.75189 0.78378 0.14123 0.0
H3139 H 0.74575 0.78856 0.17621 0.0
C3140 C 0.75919 0.74511 0.09262 0.0
C3141 C 0.77704 0.73952 0.0875 0.0
C3142 C 0.75812 0.7542 0.1115 0.0
C3143 C 0.77497 0.75812 0.12553 0.0
C3144 C 0.79324 0.75438 0.11968 0.0
C3145 C 0.79424 0.74501 0.10092 0.0
C3146 C 0.77962 0.75676 0.18142 0.0
C3147 C 0.76598 0.76899 0.18684 0.0
C3148 C 0.783 0.75386 0.16158 0.0
C3149 C 0.77295 0.76334 0.14675 0.0
C3150 C 0.75971 0.77613 0.15231 0.0
C3151 C 0.7562 0.77889 0.17225 0.0
H3152 H 0.11198 0.01755 0.6721 0.0
H3153 H 0.05712 0.99139 0.69378 0.0
H3154 H 0.09401 0.02133 0.64016 0.0
H3155 H 0.03921 0.99471 0.66137 0.0
H3156 H 0.02161 0.98918 0.59084 0.0
H3157 H 0.03761 0.98233 0.62329 0.0
H3158 H 0.06844 0.04394 0.63112 0.0
H3159 H 0.05254 0.05077 0.59912 0.0
C3160 C 0.09609 0.0126 0.67008 0.0
C3161 C 0.08596 0.00449 0.68565 0.0
C3162 C 0.08583 0.01468 0.65175 0.0
C3163 C 0.06522 0.00851 0.64843 0.0
C3164 C 0.05512 0.99952 0.66358 0.0
C3165 C 0.06539 0.9976 0.68208 0.0
C3166 C 0.03166 1.00124 0.59967 0.0
C3167 C 0.03594 0.02046 0.59253 0.0
C3168 C 0.04076 0.99734 0.61816 0.0
C3169 C 0.05439 0.01256 0.62953 0.0
C3170 C 0.05821 0.03186 0.6225 0.0
C3171 C 0.04904 0.03579 0.60424 0.0
H3172 H 0.75945 0.32913 0.43067 0.0
H3173 H 0.70458 0.34477 0.40451 0.0
H3174 H 0.76495 0.31407 0.39859 0.0
H3175 H 0.711 0.33136 0.37208 0.0
H3176 H 0.7174 0.29041 0.31828 0.0
H3177 H 0.7113 0.30312 0.35122 0.0
H3178 H 0.77448 0.3198 0.36738 0.0
H3179 H 0.78046 0.30603 0.33473 0.0
C3180 C 0.74846 0.32938 0.41816 0.0
C3181 C 0.73145 0.33823 0.42055 0.0
C3182 C 0.75185 0.321 0.39949 0.0
C3183 C 0.73853 0.32141 0.38239 0.0
C3184 C 0.72155 0.33033 0.38476 0.0
C3185 C 0.71801 0.33843 0.40349 0.0
C3186 C 0.73001 0.29667 0.32892 0.0
C3187 C 0.74944 0.29709 0.3238 0.0
C3188 C 0.72651 0.30419 0.34787 0.0
C3189 C 0.74233 0.31274 0.36225 0.0
C3190 C 0.76181 0.31307 0.35706 0.0
C3191 C 0.76529 0.30522 0.33819 0.0
H3192 H 0.48313 0.06985 0.17216 0.0
H3193 H 0.42804 0.03753 0.14167 0.0
H3194 H 0.49947 0.06501 0.14222 0.0
H3195 H 0.44464 0.03196 0.1119 0.0
H3196 H 0.47716 0.04492 0.05557 0.0
H3197 H 0.45947 0.04895 0.08498 0.0
H3198 H 0.51108 0.03949 0.12261 0.0
H3199 H 0.52853 0.03544 0.0932 0.0
C3200 C 0.47445 0.06173 0.15907 0.0
C3201 C 0.45419 0.05412 0.15947 0.0
C3202 C 0.48392 0.05871 0.14191 0.0
C3203 C 0.47347 0.04796 0.12454 0.0
C3204 C 0.45318 0.04044 0.12487 0.0
C3205 C 0.4437 0.04343 0.14208 0.0
C3206 C 0.48445 0.0431 0.07006 0.0
C3207 C 0.50405 0.03935 0.072 0.0
C3208 C 0.4744 0.04561 0.087 0.0
C3209 C 0.48379 0.04459 0.10631 0.0
C3210 C 0.5034 0.0407 0.1081 0.0
C3211 C 0.51339 0.03822 0.09121 0.0
H3212 H 0.7612 0.7452 0.92696 0.0
H3213 H 0.80131 0.71374 0.89655 0.0
H3214 H 0.76191 0.76935 0.90141 0.0
H3215 H 0.80188 0.73766 0.87094 0.0
H3216 H 0.80638 0.78541 0.82988 0.0
H3217 H 0.81111 0.77237 0.86251 0.0
H3218 H 0.7481 0.76611 0.86686 0.0
H3219 H 0.74339 0.77958 0.83466 0.0
C3220 C 0.7702 0.74351 0.91482 0.0
C3221 C 0.78099 0.72747 0.91353 0.0
C3222 C 0.77068 0.75737 0.90029 0.0
C3223 C 0.78192 0.7554 0.88418 0.0
C3224 C 0.79335 0.73983 0.88337 0.0
C3225 C 0.79293 0.72602 0.89794 0.0
C3226 C 0.79361 0.78183 0.83805 0.0
C3227 C 0.77444 0.78309 0.82947 0.0
C3228 C 0.79632 0.77424 0.85669 0.0
C3229 C 0.77993 0.76782 0.86702 0.0
C3230 C 0.76106 0.77097 0.85931 0.0
C3231 C 0.75834 0.77859 0.84073 0.0
H3232 H 0.86464 0.07874 0.98512 0.0
H3233 H 0.90413 0.12405 0.02428 0.0
H3234 H 0.89049 0.05789 0.98456 0.0
H3235 H 0.92968 0.1027 0.02449 0.0
H3236 H 0.97817 0.06772 0.0069 0.0
H3237 H 0.95294 0.08951 0.00534 0.0
H3238 H 0.90753 0.03698 0.0047 0.0
H3239 H 0.93288 0.01534 0.00534 0.0
C3240 C 0.87884 0.08436 0.99359 0.0
C3241 C 0.88212 0.10324 0.00473 0.0
C3242 C 0.89366 0.0722 0.99348 0.0
C3243 C 0.91231 0.07844 0.00454 0.0
C3244 C 0.91566 0.09737 0.01559 0.0
C3245 C 0.90082 0.10956 0.01569 0.0
C3246 C 0.96283 0.06081 0.00574 0.0
C3247 C 0.95762 0.03973 0.00557 0.0
C3248 C 0.94827 0.07335 0.0053 0.0
C3249 C 0.928 0.06512 0.00476 0.0
C3250 C 0.92285 0.04397 0.0047 0.0
C3251 C 0.93744 0.03151 0.00519 0.0
H3252 H 0.34389 0.47438 0.00855 0.0
H3253 H 0.36545 0.45292 0.06415 0.0
H3254 H 0.37719 0.49085 0.00455 0.0
H3255 H 0.39906 0.4682 0.05941 0.0
H3256 H 0.45414 0.51426 0.05508 0.0
H3257 H 0.42035 0.49958 0.05991 0.0
H3258 H 0.40795 0.48311 0.99654 0.0
H3259 H 0.44147 0.49858 0.99167 0.0
C3260 C 0.35571 0.47324 0.02 0.0
C3261 C 0.35192 0.46238 0.03674 0.0
C3262 C 0.37491 0.48242 0.01752 0.0
C3263 C 0.39088 0.48078 0.03159 0.0
C3264 C 0.3871 0.46999 0.04838 0.0
C3265 C 0.36784 0.46097 0.05097 0.0
C3266 C 0.44416 0.50754 0.04219 0.0
C3267 C 0.45042 0.50763 0.02299 0.0
C3268 C 0.42482 0.49901 0.04496 0.0
C3269 C 0.41139 0.49012 0.02863 0.0
C3270 C 0.41774 0.49016 0.00943 0.0
C3271 C 0.437 0.49895 0.00662 0.0
H3272 H 0.34049 0.66172 0.77453 0.0
H3273 H 0.29126 0.62965 0.73437 0.0
H3274 H 0.32236 0.68961 0.77943 0.0
H3275 H 0.27367 0.65806 0.73829 0.0
H3276 H 0.23865 0.70375 0.76298 0.0
H3277 H 0.25652 0.67517 0.76087 0.0
H3278 H 0.31173 0.71672 0.76281 0.0
H3279 H 0.29372 0.74495 0.76512 0.0
C3280 C 0.32579 0.66056 0.76675 0.0
C3281 C 0.31737 0.64334 0.75406 0.0
C3282 C 0.31548 0.67672 0.76937 0.0
C3283 C 0.29651 0.67617 0.75927 0.0
C3284 C 0.28811 0.65895 0.74656 0.0
C3285 C 0.29836 0.64274 0.74405 0.0
C3286 C 0.25465 0.70668 0.76324 0.0
C3287 C 0.26491 0.7266 0.76491 0.0
C3288 C 0.2649 0.69034 0.76185 0.0
C3289 C 0.28564 0.69355 0.76172 0.0
C3290 C 0.29585 0.71357 0.76339 0.0
C3291 C 0.28556 0.72987 0.76495 0.0
H3292 H 0.20212 0.57595 0.52046 0.0
H3293 H 0.18037 0.62731 0.4965 0.0
H3294 H 0.16794 0.5591 0.52153 0.0
H3295 H 0.14648 0.61091 0.49821 0.0
H3296 H 0.08771 0.56988 0.48546 0.0
H3297 H 0.12235 0.58315 0.48255 0.0
H3298 H 0.13906 0.56201 0.53981 0.0
H3299 H 0.10422 0.54833 0.54248 0.0
C3300 C 0.19007 0.5836 0.51533 0.0
C3301 C 0.19401 0.60303 0.50846 0.0
C3302 C 0.17049 0.57404 0.51614 0.0
C3303 C 0.15443 0.58363 0.50995 0.0
C3304 C 0.15843 0.60294 0.50287 0.0
C3305 C 0.17792 0.61247 0.50212 0.0
C3306 C 0.0988 0.56793 0.49736 0.0
C3307 C 0.09328 0.5582 0.51425 0.0
C3308 C 0.11866 0.57564 0.49576 0.0
C3309 C 0.13352 0.57386 0.51105 0.0
C3310 C 0.12803 0.56353 0.5277 0.0
C3311 C 0.10809 0.55578 0.52929 0.0
H3312 H 0.69633 0.92037 0.75169 0.0
H3313 H 0.67041 0.89213 0.80092 0.0
H3314 H 0.71744 0.89473 0.74943 0.0
H3315 H 0.69228 0.8669 0.79921 0.0
H3316 H 0.722 0.81345 0.77798 0.0
H3317 H 0.69915 0.83788 0.7796 0.0
H3318 H 0.74577 0.88506 0.76694 0.0
H3319 H 0.76815 0.8605 0.7647 0.0
C3320 C 0.69503 0.90865 0.76201 0.0
C3321 C 0.68152 0.90841 0.77646 0.0
C3322 C 0.70739 0.89404 0.76088 0.0
C3323 C 0.70674 0.87871 0.77421 0.0
C3324 C 0.69313 0.87833 0.78858 0.0
C3325 C 0.68073 0.89299 0.78971 0.0
C3326 C 0.7272 0.82897 0.77529 0.0
C3327 C 0.74675 0.83496 0.77091 0.0
C3328 C 0.7142 0.84308 0.77645 0.0
C3329 C 0.7205 0.86353 0.77326 0.0
C3330 C 0.74019 0.86944 0.7691 0.0
C3331 C 0.75311 0.85537 0.76796 0.0
H3332 H 0.65989 0.9573 0.47477 0.0
H3333 H 0.67194 0.98852 0.53358 0.0
H3334 H 0.63241 0.97561 0.46737 0.0
H3335 H 0.64459 0.00672 0.52625 0.0
H3336 H 0.60058 0.0446 0.50657 0.0
H3337 H 0.63178 0.03156 0.50621 0.0
H3338 H 0.59981 0.97424 0.47916 0.0
H3339 H 0.5688 0.98746 0.47912 0.0
C3340 C 0.65672 0.96815 0.48606 0.0
C3341 C 0.66796 0.9714 0.5048 0.0
C3342 C 0.64105 0.97865 0.48181 0.0
C3343 C 0.63634 0.9926 0.49621 0.0
C3344 C 0.64806 0.99636 0.51468 0.0
C3345 C 0.66371 0.98588 0.51892 0.0
C3346 C 0.60036 0.02941 0.50007 0.0
C3347 C 0.58237 0.01695 0.49301 0.0
C3348 C 0.61816 0.0219 0.49999 0.0
C3349 C 0.61821 0.0018 0.4929 0.0
C3350 C 0.6003 0.98984 0.48457 0.0
C3351 C 0.58252 0.99737 0.4846 0.0
H3352 H 0.34615 0.43749 0.76166 0.0
H3353 H 0.2894 0.44919 0.7364 0.0
H3354 H 0.33115 0.40283 0.76662 0.0
H3355 H 0.27444 0.4144 0.74112 0.0
H3356 H 0.26565 0.34316 0.73044 0.0
H3357 H 0.27899 0.3785 0.72657 0.0
H3358 H 0.3042 0.38572 0.78804 0.0
H3359 H 0.29056 0.35044 0.79208 0.0
C3360 C 0.3305 0.43259 0.75707 0.0
C3361 C 0.31894 0.44599 0.74859 0.0
C3362 C 0.32189 0.41284 0.76006 0.0
C3363 C 0.30163 0.40596 0.75428 0.0
C3364 C 0.2901 0.4193 0.74564 0.0
C3365 C 0.29863 0.43919 0.74301 0.0
C3366 C 0.27388 0.35232 0.74318 0.0
C3367 C 0.27701 0.34401 0.76158 0.0
C3368 C 0.28145 0.37257 0.74097 0.0
C3369 C 0.29267 0.38481 0.75698 0.0
C3370 C 0.29569 0.37657 0.77542 0.0
C3371 C 0.28777 0.35643 0.77776 0.0
H3372 H 0.16233 0.61301 0.26877 0.0
H3373 H 0.21613 0.58995 0.28681 0.0
H3374 H 0.18199 0.64572 0.26481 0.0
H3375 H 0.23542 0.62332 0.28415 0.0
H3376 H 0.24673 0.69833 0.30083 0.0
H3377 H 0.23045 0.66351 0.30382 0.0
H3378 H 0.21545 0.65555 0.24009 0.0
H3379 H 0.23226 0.69006 0.23695 0.0
C3380 C 0.17828 0.61472 0.27178 0.0
C3381 C 0.18751 0.59853 0.27801 0.0
C3382 C 0.18949 0.63358 0.26966 0.0
C3383 C 0.21013 0.6369 0.27416 0.0
C3384 C 0.21947 0.62104 0.28067 0.0
C3385 C 0.20832 0.60199 0.28236 0.0
C3386 C 0.2403 0.68898 0.28745 0.0
C3387 C 0.24079 0.6968 0.26866 0.0
C3388 C 0.23103 0.66914 0.28917 0.0
C3389 C 0.22174 0.65702 0.27218 0.0
C3390 C 0.22256 0.66468 0.25337 0.0
C3391 C 0.23223 0.68434 0.25159 0.0
H3392 H 0.51391 0.71296 0.46765 0.0
H3393 H 0.53178 0.68063 0.41704 0.0
H3394 H 0.512 0.68232 0.48586 0.0
H3395 H 0.52965 0.65006 0.43512 0.0
H3396 H 0.49603 0.59585 0.46375 0.0
H3397 H 0.49909 0.62758 0.44779 0.0
H3398 H 0.53686 0.65758 0.49916 0.0
H3399 H 0.53415 0.62545 0.51513 0.0
C3400 C 0.51745 0.69932 0.46047 0.0
C3401 C 0.52297 0.69913 0.44094 0.0
C3402 C 0.51649 0.68188 0.47092 0.0
C3403 C 0.52063 0.66387 0.46185 0.0
C3404 C 0.52629 0.66375 0.4424 0.0
C3405 C 0.52761 0.68124 0.43211 0.0
C3406 C 0.50491 0.60922 0.47172 0.0
C3407 C 0.5149 0.60821 0.49066 0.0
C3408 C 0.50673 0.62734 0.46253 0.0
C3409 C 0.51831 0.64495 0.4722 0.0
C3410 C 0.52782 0.64417 0.49143 0.0
C3411 C 0.5263 0.62586 0.50053 0.0
H3412 H 0.5918 0.25013 0.72664 0.0
H3413 H 0.60701 0.31013 0.70756 0.0
H3414 H 0.6257 0.25164 0.74166 0.0
H3415 H 0.64129 0.3114 0.7215 0.0
H3416 H 0.69983 0.31441 0.75943 0.0
H3417 H 0.66482 0.31412 0.7488 0.0
H3418 H 0.65712 0.2496 0.7341 0.0
H3419 H 0.69157 0.24985 0.74575 0.0
C3420 C 0.6025 0.26362 0.72558 0.0
C3421 C 0.59677 0.27999 0.71591 0.0
C3422 C 0.62205 0.26448 0.73406 0.0
C3423 C 0.63658 0.28157 0.73271 0.0
C3424 C 0.63065 0.29808 0.72322 0.0
C3425 C 0.61097 0.29735 0.7151 0.0
C3426 C 0.69054 0.30015 0.75416 0.0
C3427 C 0.69853 0.28215 0.75361 0.0
C3428 C 0.67044 0.29997 0.74786 0.0
C3429 C 0.65786 0.28183 0.74048 0.0
C3430 C 0.66598 0.26385 0.74008 0.0
C3431 C 0.68591 0.26399 0.7467 0.0
H3432 H 0.02271 0.37639 0.96822 0.0
H3433 H 0.01971 0.40918 0.91528 0.0
H3434 H 0.01809 0.40632 0.98826 0.0
H3435 H 0.01357 0.43844 0.93498 0.0
H3436 H 0.02028 0.49451 0.97611 0.0
H3437 H 0.02807 0.46492 0.95804 0.0
H3438 H 0.9942 0.42642 0.99598 0.0
H3439 H 0.98766 0.45637 0.01498 0.0
C3440 C 0.02114 0.38996 0.96082 0.0
C3441 C 0.0216 0.39024 0.94004 0.0
C3442 C 0.01815 0.40709 0.97231 0.0
C3443 C 0.01537 0.42492 0.96333 0.0
C3444 C 0.01594 0.42518 0.94258 0.0
C3445 C 0.01916 0.40819 0.93115 0.0
C3446 C 0.01487 0.47975 0.98088 0.0
C3447 C 0.00365 0.47777 0.99718 0.0
C3448 C 0.01905 0.46269 0.97028 0.0
C3449 C 0.0117 0.44312 0.97539 0.0
C3450 C 1.00041 0.44118 0.99175 0.0
C3451 C 0.99649 0.45833 0.00256 0.0
H3452 H 0.88026 0.7654 0.18659 0.0
H3453 H 0.91606 0.77963 0.24325 0.0
H3454 H 0.8504 0.76713 0.20316 0.0
H3455 H 0.88621 0.78082 0.25986 0.0
H3456 H 0.83133 0.80422 0.27945 0.0
H3457 H 0.86085 0.80205 0.2625 0.0
H3458 H 0.82952 0.74932 0.22641 0.0
H3459 H 0.80003 0.75143 0.24363 0.0
C3460 C 0.88179 0.76891 0.20257 0.0
C3461 C 0.90064 0.77242 0.21354 0.0
C3462 C 0.86462 0.76969 0.21211 0.0
C3463 C 0.86584 0.77415 0.23287 0.0
C3464 C 0.88468 0.77757 0.24383 0.0
C3465 C 0.90182 0.77667 0.23432 0.0
C3466 C 0.83076 0.79214 0.26791 0.0
C3467 C 0.81326 0.77815 0.2627 0.0
C3468 C 0.84771 0.79084 0.25824 0.0
C3469 C 0.84763 0.77551 0.24305 0.0
C3470 C 0.83006 0.7615 0.23782 0.0
C3471 C 0.81312 0.76274 0.24763 0.0
H3472 H 0.47689 0.38551 0.05667 0.0
H3473 H 0.54081 0.39533 0.06809 0.0
H3474 H 0.47866 0.41703 0.04088 0.0
H3475 H 0.54264 0.42627 0.05089 0.0
H3476 H 0.53676 0.4911 0.03594 0.0
H3477 H 0.53622 0.46021 0.05337 0.0
H3478 H 0.48767 0.43032 0.01101 0.0
H3479 H 0.4874 0.46146 0.99468 0.0
C3480 C 0.49135 0.39439 0.05585 0.0
C3481 C 0.5087 0.38785 0.06371 0.0
C3482 C 0.49238 0.41235 0.04648 0.0
C3483 C 0.51081 0.4241 0.04441 0.0
C3484 C 0.5282 0.41766 0.05235 0.0
C3485 C 0.52715 0.39976 0.06196 0.0
C3486 C 0.52583 0.47795 0.03064 0.0
C3487 C 0.51179 0.47874 0.01437 0.0
C3488 C 0.52568 0.46019 0.0404 0.0
C3489 C 0.51171 0.44283 0.03375 0.0
C3490 C 0.49827 0.44353 0.01689 0.0
C3491 C 0.49824 0.46131 0.00738 0.0
H3492 H 0.92578 0.23677 0.33067 0.0
H3493 H 0.93255 0.30165 0.34177 0.0
H3494 H 0.8953 0.2369 0.3089 0.0
H3495 H 0.90225 0.30178 0.3202 0.0
H3496 H 0.85249 0.29889 0.27248 0.0
H3497 H 0.88603 0.29589 0.28621 0.0
H3498 H 0.86235 0.24312 0.31522 0.0
H3499 H 0.82905 0.24588 0.30112 0.0
C3500 C 0.92079 0.25104 0.32837 0.0
C3501 C 0.93145 0.26918 0.33796 0.0
C3502 C 0.90343 0.25112 0.3159 0.0
C3503 C 0.89642 0.26935 0.31286 0.0
C3504 C 0.90746 0.28754 0.32194 0.0
C3505 C 0.92479 0.28745 0.33436 0.0
C3506 C 0.85459 0.28649 0.28152 0.0
C3507 C 0.83832 0.27276 0.286 0.0
C3508 C 0.87371 0.2848 0.28942 0.0
C3509 C 0.87677 0.26937 0.30191 0.0
C3510 C 0.8605 0.25504 0.30548 0.0
C3511 C 0.84143 0.25672 0.29757 0.0
H3512 H 0.96753 0.68117 0.56654 0.0
H3513 H 0.02192 0.70569 0.5435 0.0
H3514 H 0.96959 0.64765 0.55157 0.0
H3515 H 0.02376 0.67241 0.52762 0.0
H3516 H 0.03501 0.60704 0.52899 0.0
H3517 H 0.03123 0.64154 0.53811 0.0
H3518 H 0.9679 0.62586 0.52239 0.0
H3519 H 0.97166 0.59093 0.51407 0.0
C3520 C 0.97967 0.67933 0.55781 0.0
C3521 C 0.99455 0.69574 0.55602 0.0
C3522 C 0.98083 0.66022 0.54913 0.0
C3523 C 0.99689 0.65726 0.5384 0.0
C3524 C 0.01137 0.67404 0.53604 0.0
C3525 C 0.01028 0.6931 0.54492 0.0
C3526 C 0.02029 0.61098 0.52718 0.0
C3527 C 0.00361 0.59622 0.52088 0.0
C3528 C 0.01812 0.63086 0.53233 0.0
C3529 C 0.99924 0.63655 0.53104 0.0
C3530 C 0.98263 0.62194 0.52391 0.0
C3531 C 0.98478 0.60195 0.51901 0.0
H3532 H 0.63275 0.77668 0.87374 0.0
H3533 H 0.58841 0.76494 0.82285 0.0
H3534 H 0.65853 0.77285 0.85186 0.0
H3535 H 0.61419 0.76097 0.80096 0.0
H3536 H 0.67242 0.7817 0.77032 0.0
H3537 H 0.64444 0.78343 0.78989 0.0
H3538 H 0.66692 0.74325 0.8305 0.0
H3539 H 0.69481 0.74146 0.81096 0.0
C3540 C 0.6286 0.77345 0.85786 0.0
C3541 C 0.60869 0.77106 0.84992 0.0
C3542 C 0.64325 0.77105 0.8454 0.0
C3543 C 0.63822 0.76642 0.82481 0.0
C3544 C 0.61837 0.76452 0.8168 0.0
C3545 C 0.60369 0.76671 0.82929 0.0
C3546 C 0.67109 0.77291 0.78317 0.0
C3547 C 0.68569 0.76149 0.78922 0.0
C3548 C 0.65515 0.77392 0.79435 0.0
C3549 C 0.65377 0.76368 0.81179 0.0
C3550 C 0.66788 0.75151 0.81726 0.0
C3551 C 0.68369 0.75035 0.806 0.0
H3552 H 0.45097 0.58309 0.65977 0.0
H3553 H 0.41708 0.52465 0.6383 0.0
H3554 H 0.47131 0.58148 0.63208 0.0
H3555 H 0.43787 0.52286 0.61123 0.0
H3556 H 0.49346 0.51536 0.58233 0.0
H3557 H 0.47447 0.52016 0.61027 0.0
H3558 H 0.46772 0.57964 0.59306 0.0
H3559 H 0.48671 0.57486 0.56469 0.0
C3560 C 0.44769 0.57 0.6491 0.0
C3561 C 0.43244 0.5539 0.65145 0.0
C3562 C 0.45942 0.56908 0.6333 0.0
C3563 C 0.45631 0.55195 0.61969 0.0
C3564 C 0.44083 0.5361 0.62175 0.0
C3565 C 0.42897 0.5371 0.63734 0.0
C3566 C 0.48821 0.52961 0.58453 0.0
C3567 C 0.49158 0.5447 0.57113 0.0
C3568 C 0.47719 0.53227 0.60051 0.0
C3569 C 0.46941 0.55014 0.60366 0.0
C3570 C 0.47358 0.56571 0.59095 0.0
C3571 C 0.48449 0.56297 0.57475 0.0
H3572 H 0.75201 0.21801 0.90655 0.0
H3573 H 0.81529 0.23069 0.90387 0.0
H3574 H 0.74675 0.23431 0.87573 0.0
H3575 H 0.80999 0.24585 0.87252 0.0
H3576 H 0.79655 0.29247 0.82964 0.0
H3577 H 0.8011 0.27506 0.85973 0.0
H3578 H 0.74748 0.23271 0.84046 0.0
H3579 H 0.74249 0.25101 0.81057 0.0
C3580 C 0.76486 0.22425 0.89946 0.0
C3581 C 0.78414 0.22306 0.90803 0.0
C3582 C 0.76179 0.23337 0.8815 0.0
C3583 C 0.7779 0.24159 0.87144 0.0
C3584 C 0.79714 0.24008 0.87985 0.0
C3585 C 0.80021 0.23106 0.89782 0.0
C3586 C 0.78569 0.27943 0.83178 0.0
C3587 C 0.76925 0.27304 0.81754 0.0
C3588 C 0.78842 0.26926 0.84904 0.0
C3589 C 0.77481 0.25222 0.85268 0.0
C3590 C 0.75826 0.24581 0.83838 0.0
C3591 C 0.7555 0.25613 0.82106 0.0
H3592 H 0.08049 0.47747 0.16255 0.0
H3593 H 0.04752 0.52227 0.18454 0.0
H3594 H 0.06695 0.48109 0.12854 0.0
H3595 H 0.03471 0.52654 0.15051 0.0
H3596 H 1.00067 0.51719 0.08876 0.0
H3597 H 0.01258 0.51078 0.1225 0.0
H3598 H 0.0695 0.50431 0.10301 0.0
H3599 H 0.05745 0.51025 0.06916 0.0
C3600 C 0.07027 0.48801 0.1602 0.0
C3601 C 0.06517 0.49957 0.17645 0.0
C3602 C 0.06268 0.49029 0.1406 0.0
C3603 C 0.04974 0.50418 0.13662 0.0
C3604 C 0.04444 0.51553 0.1529 0.0
C3605 C 0.05202 0.51326 0.17248 0.0
C3606 C 0.01569 0.51425 0.09159 0.0
C3607 C 0.02806 0.51428 0.07611 0.0
C3608 C 0.0226 0.51072 0.11105 0.0
C3609 C 0.04209 0.50711 0.11565 0.0
C3610 C 0.05434 0.50678 0.10008 0.0
C3611 C 0.04743 0.51031 0.08061 0.0
H3612 H 0.71377 0.83807 0.42877 0.0
H3613 H 0.7617 0.81155 0.45651 0.0
H3614 H 0.71653 0.8201 0.39707 0.0
H3615 H 0.7643 0.7932 0.42478 0.0
H3616 H 0.7837 0.79748 0.36073 0.0
H3617 H 0.77689 0.80557 0.39476 0.0
H3618 H 0.714 0.78859 0.37694 0.0
H3619 H 0.72089 0.78107 0.34272 0.0
C3620 C 0.72445 0.82785 0.4282 0.0
C3621 C 0.73768 0.82633 0.44496 0.0
C3622 C 0.72603 0.81752 0.41006 0.0
C3623 C 0.7408 0.80542 0.4084 0.0
C3624 C 0.75304 0.80273 0.42555 0.0
C3625 C 0.75153 0.81316 0.44368 0.0
C3626 C 0.76847 0.79523 0.3642 0.0
C3627 C 0.75281 0.7889 0.34921 0.0
C3628 C 0.76454 0.79967 0.3837 0.0
C3629 C 0.74489 0.79774 0.38851 0.0
C3630 C 0.72927 0.79043 0.37361 0.0
C3631 C 0.73321 0.78609 0.35409 0.0
H3632 H 0.45153 0.53131 0.83014 0.0
H3633 H 0.44161 0.59074 0.85035 0.0
H3634 H 0.46835 0.52778 0.8628 0.0
H3635 H 0.45875 0.58739 0.88298 0.0
H3636 H 0.50867 0.5321 0.92059 0.0
H3637 H 0.49685 0.53919 0.88685 0.0
H3638 H 0.45118 0.56803 0.9107 0.0
H3639 H 0.46335 0.56143 0.94423 0.0
C3640 C 0.45335 0.54381 0.84144 0.0
C3641 C 0.44514 0.56125 0.83775 0.0
C3642 C 0.46302 0.5418 0.86016 0.0
C3643 C 0.46476 0.55723 0.87557 0.0
C3644 C 0.45731 0.57505 0.87156 0.0
C3645 C 0.44754 0.577 0.85288 0.0
C3646 C 0.49623 0.54011 0.91853 0.0
C3647 C 0.48685 0.54617 0.93492 0.0
C3648 C 0.48939 0.54409 0.89925 0.0
C3649 C 0.47306 0.55418 0.89606 0.0
C3650 C 0.46398 0.56053 0.91261 0.0
C3651 C 0.47084 0.55661 0.93182 0.0
H3652 H 0.76976 0.19268 0.11743 0.0
H3653 H 0.80175 0.25056 0.10479 0.0
H3654 H 0.76337 0.20747 0.14941 0.0
H3655 H 0.79637 0.26475 0.13753 0.0
H3656 H 0.80048 0.27169 0.20844 0.0
H3657 H 0.80637 0.25857 0.17525 0.0
H3658 H 0.7439 0.23575 0.1619 0.0
H3659 H 0.73789 0.24926 0.19489 0.0
C3660 C 0.77535 0.20856 0.12119 0.0
C3661 C 0.7862 0.22029 0.10798 0.0
C3662 C 0.77177 0.217 0.13975 0.0
C3663 C 0.77931 0.2373 0.14602 0.0
C3664 C 0.79045 0.24901 0.13318 0.0
C3665 C 0.79366 0.24072 0.11438 0.0
C3666 C 0.78797 0.26403 0.19838 0.0
C3667 C 0.76869 0.26163 0.20434 0.0
C3668 C 0.79135 0.25657 0.17933 0.0
C3669 C 0.77561 0.24609 0.16594 0.0
C3670 C 0.75635 0.24368 0.1719 0.0
C3671 C 0.7529 0.25154 0.19076 0.0
H3672 H 0.03579 0.48889 0.36331 0.0
H3673 H 0.09012 0.52548 0.39049 0.0
H3674 H 0.02011 0.49458 0.39355 0.0
H3675 H 0.07431 0.53209 0.42048 0.0
H3676 H 0.04623 0.52497 0.47909 0.0
H3677 H 0.06257 0.5199 0.44908 0.0
H3678 H 0.00643 0.51653 0.41313 0.0
H3679 H 0.99028 0.5208 0.44333 0.0
C3680 C 0.04432 0.49838 0.3757 0.0
C3681 C 0.06423 0.50667 0.37445 0.0
C3682 C 0.03528 0.5018 0.39311 0.0
C3683 C 0.04577 0.51395 0.40973 0.0
C3684 C 0.06571 0.52235 0.40833 0.0
C3685 C 0.07482 0.51864 0.39102 0.0
C3686 C 0.03756 0.52366 0.46473 0.0
C3687 C 0.01709 0.52378 0.46354 0.0
C3688 C 0.04689 0.52061 0.4474 0.0
C3689 C 0.03597 0.51774 0.42836 0.0
C3690 C 0.01544 0.5182 0.42734 0.0
C3691 C 0.00613 0.52089 0.44469 0.0
H3692 H 0.7669 0.86776 0.64078 0.0
H3693 H 0.71283 0.83035 0.61341 0.0
H3694 H 0.76828 0.8453 0.66753 0.0
H3695 H 0.714 0.80813 0.64073 0.0
H3696 H 0.71721 0.79425 0.71011 0.0
H3697 H 0.71268 0.81108 0.67937 0.0
H3698 H 0.7733 0.80841 0.66908 0.0
H3699 H 0.77795 0.79164 0.69961 0.0
C3700 C 0.75535 0.85471 0.64043 0.0
C3701 C 0.73988 0.85072 0.62486 0.0
C3702 C 0.75615 0.84187 0.65574 0.0
C3703 C 0.74141 0.82486 0.65593 0.0
C3704 C 0.72555 0.82115 0.64081 0.0
C3705 C 0.72484 0.83393 0.62531 0.0
C3706 C 0.7294 0.79674 0.70101 0.0
C3707 C 0.74805 0.79197 0.70748 0.0
C3708 C 0.72678 0.80637 0.68344 0.0
C3709 C 0.74278 0.81136 0.6722 0.0
C3710 C 0.76088 0.80506 0.67778 0.0
C3711 C 0.76348 0.7954 0.69522 0.0
H3712 H 0.6541 0.48316 0.50946 0.0
H3713 H 0.61756 0.43624 0.5364 0.0
H3714 H 0.62777 0.50342 0.50907 0.0
H3715 H 0.59087 0.45633 0.53561 0.0
H3716 H 0.55311 0.5062 0.54762 0.0
H3717 H 0.57904 0.48498 0.5489 0.0
H3718 H 0.59698 0.50658 0.49335 0.0
H3719 H 0.57158 0.52799 0.49256 0.0
C3720 C 0.64033 0.47702 0.51509 0.0
C3721 C 0.63804 0.45794 0.52286 0.0
C3722 C 0.6251 0.48867 0.51483 0.0
C3723 C 0.6069 0.4816 0.52214 0.0
C3724 C 0.60465 0.46254 0.53006 0.0
C3725 C 0.62 0.45093 0.53047 0.0
C3726 C 0.56252 0.50621 0.53564 0.0
C3727 C 0.56029 0.51878 0.52001 0.0
C3728 C 0.57743 0.49403 0.53632 0.0
C3729 C 0.59045 0.49405 0.52132 0.0
C3730 C 0.58777 0.5064 0.5055 0.0
C3731 C 0.57305 0.51866 0.50495 0.0
H3732 H 0.15651 0.11348 0.47055 0.0
H3733 H 0.17653 0.07459 0.5138 0.0
H3734 H 0.12214 0.09895 0.47363 0.0
H3735 H 0.14233 0.05928 0.5163 0.0
H3736 H 0.0802 0.05394 0.53479 0.0
H3737 H 0.11426 0.06731 0.53002 0.0
H3738 H 0.0969 0.07056 0.46723 0.0
H3739 H 0.06259 0.05805 0.47229 0.0
C3740 C 0.1535 0.1015 0.48039 0.0
C3741 C 0.16907 0.09518 0.49201 0.0
C3742 C 0.13383 0.09311 0.48214 0.0
C3743 C 0.12938 0.07803 0.49536 0.0
C3744 C 0.14512 0.07121 0.50636 0.0
C3745 C 0.16473 0.07983 0.50484 0.0
C3746 C 0.08367 0.05749 0.51996 0.0
C3747 C 0.06873 0.05494 0.50392 0.0
C3748 C 0.10326 0.06502 0.51717 0.0
C3749 C 0.10845 0.06991 0.49819 0.0
C3750 C 0.09345 0.06725 0.48211 0.0
C3751 C 0.07378 0.05998 0.48498 0.0
H3752 H 0.18187 0.9005 0.75685 0.0
H3753 H 0.22989 0.93097 0.79938 0.0
H3754 H 0.19959 0.87227 0.75234 0.0
H3755 H 0.24697 0.90215 0.7959 0.0
H3756 H 0.28251 0.8567 0.77189 0.0
H3757 H 0.26493 0.88542 0.77416 0.0
H3758 H 0.20912 0.84432 0.76797 0.0
H3759 H 0.22691 0.81587 0.76534 0.0
C3760 C 0.19622 0.90123 0.76525 0.0
C3761 C 0.20445 0.91818 0.77842 0.0
C3762 C 0.20628 0.88484 0.76287 0.0
C3763 C 0.22479 0.88483 0.77371 0.0
C3764 C 0.23293 0.90169 0.78702 0.0
C3765 C 0.22294 0.91816 0.78927 0.0
C3766 C 0.26646 0.85389 0.77075 0.0
C3767 C 0.25601 0.83406 0.76784 0.0
C3768 C 0.25636 0.87033 0.77224 0.0
C3769 C 0.23553 0.86731 0.77126 0.0
C3770 C 0.22511 0.84736 0.76832 0.0
C3771 C 0.23526 0.83096 0.76661 0.0
H3772 H 0.34037 0.94807 0.05179 0.0
H3773 H 0.32167 0.96795 0.99452 0.0
H3774 H 0.37439 0.96359 0.04874 0.0
H3775 H 0.35562 0.98413 0.99181 0.0
H3776 H 0.42233 0.98981 0.98392 0.0
H3777 H 0.38781 0.9752 0.98667 0.0
H3778 H 0.39516 0.99621 0.0491 0.0
H3779 H 0.42968 0.01042 0.04636 0.0
C3780 C 0.3435 0.95579 0.03856 0.0
C3781 C 0.32825 0.95669 0.02339 0.0
C3782 C 0.36299 0.9649 0.0369 0.0
C3783 C 0.36779 0.97514 0.02002 0.0
C3784 C 0.35251 0.97619 0.00492 0.0
C3785 C 0.33299 0.96712 0.00659 0.0
C3786 C 0.4165 0.99131 0.99819 0.0
C3787 C 0.42867 1.00117 0.01493 0.0
C3788 C 0.39671 0.98305 0.99976 0.0
C3789 C 0.38868 0.98446 0.01813 0.0
C3790 C 0.4009 0.99456 0.0348 0.0
C3791 C 0.42065 0.00281 0.03321 0.0
H3792 H 0.82467 0.64731 0.72504 0.0
H3793 H 0.85281 0.66977 0.78383 0.0
H3794 H 0.80509 0.67429 0.72521 0.0
H3795 H 0.83201 0.69573 0.78467 0.0
H3796 H 0.80374 0.75127 0.77572 0.0
H3797 H 0.82552 0.72613 0.7733 0.0
H3798 H 0.7782 0.68518 0.73804 0.0
H3799 H 0.75702 0.71094 0.73942 0.0
C3800 C 0.8268 0.65798 0.73803 0.0
C3801 C 0.84053 0.65616 0.75441 0.0
C3802 C 0.81521 0.67337 0.73827 0.0
C3803 C 0.81671 0.68734 0.755 0.0
C3804 C 0.83048 0.68556 0.77136 0.0
C3805 C 0.84227 0.67033 0.77101 0.0
C3806 C 0.79815 0.73704 0.76711 0.0
C3807 C 0.77872 0.73322 0.75753 0.0
C3808 C 0.81056 0.72242 0.76597 0.0
C3809 C 0.80376 0.70338 0.75553 0.0
C3810 C 0.78426 0.69968 0.74592 0.0
C3811 C 0.77198 0.71443 0.74681 0.0
H3812 H 0.86568 0.61606 0.04819 0.0
H3813 H 0.84072 0.57079 1.00042 0.0
H3814 H 0.89317 0.59804 0.05523 0.0
H3815 H 0.86897 0.55343 0.00669 0.0
H3816 H 0.91794 0.52019 0.02889 0.0
H3817 H 0.88711 0.53423 0.02916 0.0
H3818 H 0.92125 0.59454 0.03785 0.0
H3819 H 0.95167 0.58056 0.03814 0.0
C3820 C 0.86589 0.60211 0.03935 0.0
C3821 C 0.85106 0.59495 0.02364 0.0
C3822 C 0.88179 0.5919 0.04325 0.0
C3823 C 0.88337 0.57443 0.03138 0.0
C3824 C 0.86812 0.56676 0.01621 0.0
C3825 C 0.8521 0.57689 0.01241 0.0
C3826 C 0.91872 0.5364 0.03122 0.0
C3827 C 0.93706 0.54934 0.03342 0.0
C3828 C 0.90114 0.54444 0.03125 0.0
C3829 C 0.90174 0.56549 0.0335 0.0
C3830 C 0.92023 0.57826 0.03641 0.0
C3831 C 0.93768 0.57026 0.03642 0.0
H3832 H 0.19565 0.12509 0.80893 0.0
H3833 H 0.21796 0.10699 0.75415 0.0
H3834 H 0.20923 0.1602 0.80521 0.0
H3835 H 0.23203 0.14212 0.75059 0.0
H3836 H 0.23535 0.20922 0.7393 0.0
H3837 H 0.22323 0.17369 0.74298 0.0
H3838 H 0.23866 0.18387 0.80673 0.0
H3839 H 0.25007 0.21946 0.80308 0.0
C3840 C 0.20375 0.12859 0.79624 0.0
C3841 C 0.20574 0.11321 0.78186 0.0
C3842 C 0.2116 0.14877 0.7941 0.0
C3843 C 0.22181 0.15414 0.77759 0.0
C3844 C 0.22399 0.13868 0.76332 0.0
C3845 C 0.21599 0.1185 0.76539 0.0
C3846 C 0.23626 0.20385 0.75409 0.0
C3847 C 0.24363 0.21726 0.77088 0.0
C3848 C 0.22938 0.1834 0.75621 0.0
C3849 C 0.22985 0.17579 0.77518 0.0
C3850 C 0.23766 0.18917 0.79191 0.0
C3851 C 0.24436 0.20963 0.78981 0.0
H3852 H 0.30296 0.97523 0.26109 0.0
H3853 H 0.35169 0.9502 0.23896 0.0
H3854 H 0.28532 0.9411 0.2636 0.0
H3855 H 0.33388 0.91628 0.24108 0.0
H3856 H 0.28976 0.85826 0.22976 0.0
H3857 H 0.30426 0.89311 0.22564 0.0
H3858 H 0.28852 0.91157 0.2836 0.0
H3859 H 0.2738 0.87655 0.28762 0.0
C3860 C 0.30995 0.96251 0.25677 0.0
C3861 C 0.3288 0.96559 0.24978 0.0
C3862 C 0.2998 0.94294 0.25819 0.0
C3863 C 0.30816 0.92597 0.25249 0.0
C3864 C 0.32685 0.92902 0.24528 0.0
C3865 C 0.33706 0.94854 0.24399 0.0
C3866 C 0.28921 0.8698 0.24154 0.0
C3867 C 0.28073 0.86472 0.25905 0.0
C3868 C 0.29763 0.88974 0.23923 0.0
C3869 C 0.29772 0.90509 0.25437 0.0
C3870 C 0.28857 0.90012 0.2716 0.0
C3871 C 0.28019 0.88009 0.27394 0.0
H3872 H 0.52886 0.35962 0.58407 0.0
H3873 H 0.46687 0.36101 0.58907 0.0
H3874 H 0.53073 0.38933 0.56496 0.0
H3875 H 0.46891 0.39116 0.57054 0.0
H3876 H 0.47509 0.43573 0.52222 0.0
H3877 H 0.47323 0.40353 0.53767 0.0
H3878 H 0.53012 0.42507 0.57136 0.0
H3879 H 0.53203 0.45692 0.55572 0.0
C3880 C 0.51558 0.36616 0.58097 0.0
C3881 C 0.49772 0.35791 0.58816 0.0
C3882 C 0.51671 0.38334 0.57018 0.0
C3883 C 0.49999 0.39271 0.56625 0.0
C3884 C 0.48203 0.38424 0.57311 0.0
C3885 C 0.48092 0.36708 0.58395 0.0
C3886 C 0.48726 0.43341 0.53274 0.0
C3887 C 0.5037 0.44878 0.53777 0.0
C3888 C 0.48615 0.41507 0.54171 0.0
C3889 C 0.50151 0.41171 0.55581 0.0
C3890 C 0.51814 0.42699 0.5604 0.0
C3891 C 0.51921 0.4453 0.55151 0.0
H3892 H 0.42639 0.7627 0.29315 0.0
H3893 H 0.41339 0.79887 0.34375 0.0
H3894 H 0.3923 0.76134 0.27764 0.0
H3895 H 0.37961 0.7977 0.32824 0.0
H3896 H 0.33021 0.81171 0.28368 0.0
H3897 H 0.36446 0.81169 0.29661 0.0
H3898 H 0.35576 0.7468 0.28584 0.0
H3899 H 0.32107 0.74666 0.27304 0.0
C3900 C 0.41628 0.7704 0.3009 0.0
C3901 C 0.42255 0.78087 0.31967 0.0
C3902 C 0.39678 0.76951 0.2921 0.0
C3903 C 0.38332 0.77946 0.30171 0.0
C3904 C 0.38967 0.79 0.32041 0.0
C3905 C 0.40898 0.79057 0.32934 0.0
C3906 C 0.33554 0.79739 0.28379 0.0
C3907 C 0.32278 0.77916 0.27728 0.0
C3908 C 0.35519 0.79741 0.29135 0.0
C3909 C 0.36277 0.77925 0.29234 0.0
C3910 C 0.35033 0.76104 0.28517 0.0
C3911 C 0.33046 0.76097 0.27789 0.0
H3912 H 0.02956 0.68561 0.08739 0.0
H3913 H 0.97139 0.65582 0.09799 0.0
H3914 H 0.03435 0.65562 0.06761 0.0
H3915 H 0.97582 0.6261 0.07736 0.0
H3916 H 1.00129 0.56864 0.06045 0.0
H3917 H 0.99474 0.59886 0.07873 0.0
H3918 H 0.02369 0.63589 0.03647 0.0
H3919 H 0.03046 0.60553 0.01836 0.0
C3920 C 0.01776 0.67267 0.08549 0.0
C3921 C 1.00014 0.67313 0.09446 0.0
C3922 C 0.0204 0.65554 0.07389 0.0
C3923 C 0.00548 0.6384 0.07085 0.0
C3924 C 0.98773 0.63894 0.07956 0.0
C3925 C 0.98509 0.65608 0.09122 0.0
C3926 C 0.00608 0.58323 0.05496 0.0
C3927 C 0.01634 0.58475 0.03795 0.0
C3928 C 0.00226 0.60057 0.0654 0.0
C3929 C 0.00869 0.61987 0.05912 0.0
C3930 C 0.01876 0.62131 0.04191 0.0
C3931 C 0.02256 0.60394 0.03146 0.0
H3932 H 0.12563 0.32138 0.81762 0.0
H3933 H 0.11843 0.25743 0.82577 0.0
H3934 H 0.15625 0.3192 0.80259 0.0
H3935 H 0.14862 0.25528 0.81021 0.0
H3936 H 0.1886 0.25546 0.759 0.0
H3937 H 0.15944 0.25829 0.7763 0.0
H3938 H 0.19113 0.31207 0.81042 0.0
H3939 H 0.22047 0.3092 0.79295 0.0
C3940 C 0.13057 0.30688 0.8164 0.0
C3941 C 0.11926 0.28955 0.82285 0.0
C3942 C 0.14817 0.30565 0.80773 0.0
C3943 C 0.15485 0.28704 0.80507 0.0
C3944 C 0.14374 0.2698 0.81172 0.0
C3945 C 0.1263 0.27105 0.82057 0.0
C3946 C 0.18938 0.26787 0.77023 0.0
C3947 C 0.20682 0.2821 0.77462 0.0
C3948 C 0.17269 0.26943 0.78023 0.0
C3949 C 0.17292 0.28539 0.79479 0.0
C3950 C 0.19041 0.29968 0.79919 0.0
C3951 C 0.20723 0.29798 0.78928 0.0
H3952 H 0.48428 0.68265 0.98459 0.0
H3953 H 0.53699 0.67032 0.95934 0.0
H3954 H 0.48144 0.65019 0.99977 0.0
H3955 H 0.5342 0.63812 0.97445 0.0
H3956 H 0.51082 0.57354 0.98568 0.0
H3957 H 0.50984 0.60507 0.97006 0.0
H3958 H 0.50282 0.63466 0.02693 0.0
H3959 H 0.50334 0.60265 0.04244 0.0
C3960 C 0.49518 0.67296 0.98228 0.0
C3961 C 0.5109 0.67894 0.97093 0.0
C3962 C 0.49363 0.65453 0.99101 0.0
C3963 C 0.50758 0.64172 0.98819 0.0
C3964 C 0.52316 0.64766 0.97669 0.0
C3965 C 0.52485 0.66613 0.96821 0.0
C3966 C 0.5083 0.58651 0.99465 0.0
C3967 C 0.50653 0.58556 0.01505 0.0
C3968 C 0.50812 0.60467 0.98582 0.0
C3969 C 0.50617 0.62223 0.99731 0.0
C3970 C 0.50409 0.62124 0.01772 0.0
C3971 C 0.5045 0.60305 0.02658 0.0
H3972 H 0.07719 0.7645 0.7043 0.0
H3973 H 0.10122 0.82445 0.68919 0.0
H3974 H 0.10882 0.76219 0.72277 0.0
H3975 H 0.1321 0.82273 0.70892 0.0
H3976 H 0.19082 0.79965 0.71481 0.0
H3977 H 0.1579 0.80449 0.70206 0.0
H3978 H 0.13346 0.77382 0.75084 0.0
H3979 H 0.16674 0.76836 0.76328 0.0
C3980 C 0.08908 0.77729 0.70515 0.0
C3981 C 0.08675 0.79449 0.6949 0.0
C3982 C 0.10711 0.77608 0.71601 0.0
C3983 C 0.12305 0.79215 0.71702 0.0
C3984 C 0.12022 0.80991 0.70803 0.0
C3985 C 0.10236 0.811 0.69693 0.0
C3986 C 0.17843 0.79399 0.72285 0.0
C3987 C 0.1812 0.78358 0.73994 0.0
C3988 C 0.15957 0.79695 0.71568 0.0
C3989 C 0.14308 0.78974 0.72557 0.0
C3990 C 0.14589 0.77945 0.74285 0.0
C3991 C 0.16486 0.77636 0.74999 0.0
H3992 H 0.99773 0.37989 0.45428 0.0
H3993 H 0.04581 0.37341 0.49832 0.0
H3994 H 0.99646 0.41312 0.46983 0.0
H3995 H 0.04495 0.40729 0.51339 0.0
H3996 H 0.0492 0.47906 0.51156 0.0
H3997 H 0.05125 0.44395 0.5015 0.0
H3998 H 0.9882 0.42743 0.50363 0.0
H3999 H 0.98601 0.4623 0.51371 0.0
C4000 C 0.00787 0.38539 0.46744 0.0
C4001 C 0.02173 0.37381 0.47517 0.0
C4002 C 0.00718 0.40449 0.47627 0.0
C4003 C 0.0205 0.41262 0.49287 0.0
C4004 C 0.03455 0.40129 0.50055 0.0
C4005 C 0.03508 0.38198 0.49186 0.0
C4006 C 0.03583 0.46788 0.51023 0.0
C4007 C 0.01742 0.47353 0.51326 0.0
C4008 C 0.03704 0.4478 0.50455 0.0
C4009 C 0.01984 0.43313 0.50164 0.0
C4010 C 1.00163 0.43856 0.50559 0.0
C4011 C 1.00043 0.45853 0.51144 0.0
H4012 H 0.41585 0.27189 0.19202 0.0
H4013 H 0.3998 0.32127 0.15932 0.0
H4014 H 0.39083 0.27608 0.21416 0.0
H4015 H 0.37643 0.32693 0.18282 0.0
H4016 H 0.31926 0.31523 0.21196 0.0
H4017 H 0.34563 0.31347 0.19085 0.0
H4018 H 0.38206 0.29562 0.24033 0.0
H4019 H 0.35481 0.29602 0.26101 0.0
C4020 C 0.40704 0.28366 0.18952 0.0
C4021 C 0.4098 0.2961 0.17369 0.0
C4022 C 0.39296 0.28639 0.20257 0.0
C4023 C 0.38159 0.30192 0.20041 0.0
C4024 C 0.38463 0.31459 0.18481 0.0
C4025 C 0.39834 0.31154 0.17146 0.0
C4026 C 0.33302 0.31118 0.21836 0.0
C4027 C 0.33509 0.3057 0.23802 0.0
C4028 C 0.34824 0.31027 0.20629 0.0
C4029 C 0.36604 0.30432 0.2138 0.0
C4030 C 0.3684 0.2998 0.23388 0.0
C4031 C 0.35294 0.30026 0.24582 0.0
H4032 H 0.59897 0.48386 0.3952 0.0
H4033 H 0.56224 0.51819 0.36048 0.0
H4034 H 0.5782 0.48562 0.42251 0.0
H4035 H 0.54099 0.51931 0.38725 0.0
H4036 H 0.52536 0.54202 0.44755 0.0
H4037 H 0.54267 0.53629 0.41876 0.0
H4038 H 0.54706 0.47586 0.43508 0.0
H4039 H 0.5303 0.48197 0.46466 0.0
C4040 C 0.58623 0.49147 0.39331 0.0
C4041 C 0.58235 0.50112 0.37586 0.0
C4042 C 0.57424 0.4924 0.4089 0.0
C4043 C 0.55797 0.50279 0.40724 0.0
C4044 C 0.55365 0.51162 0.38933 0.0
C4045 C 0.56578 0.51094 0.37393 0.0
C4046 C 0.52976 0.52738 0.44497 0.0
C4047 C 0.52639 0.51246 0.45851 0.0
C4048 C 0.53964 0.52403 0.42828 0.0
C4049 C 0.5463 0.50558 0.42446 0.0
C4050 C 0.54238 0.49036 0.43765 0.0
C4051 C 0.53256 0.49377 0.45452 0.0
H4052 H 0.26586 0.82954 0.11594 0.0
H4053 H 0.21035 0.84412 0.133 0.0
H4054 H 0.27131 0.81452 0.14747 0.0
H4055 H 0.21551 0.82814 0.16399 0.0
H4056 H 0.22139 0.77487 0.20412 0.0
H4057 H 0.21685 0.79274 0.17406 0.0
H4058 H 0.27726 0.82383 0.18532 0.0
H4059 H 0.28174 0.80592 0.21567 0.0
C4060 C 0.25483 0.82978 0.12634 0.0
C4061 C 0.23757 0.8382 0.12153 0.0
C4062 C 0.25799 0.82103 0.14449 0.0
C4063 C 0.24386 0.82006 0.15831 0.0
C4064 C 0.22663 0.82841 0.15361 0.0
C4065 C 0.22361 0.83747 0.13564 0.0
C4066 C 0.2337 0.78561 0.20026 0.0
C4067 C 0.25191 0.78901 0.21232 0.0
C4068 C 0.23105 0.79594 0.18306 0.0
C4069 C 0.24667 0.80974 0.17719 0.0
C4070 C 0.26495 0.81321 0.18931 0.0
C4071 C 0.26748 0.80309 0.20678 0.0
H4072 H 0.93004 0.53684 0.86464 0.0
H4073 H 0.98014 0.58295 0.85874 0.0
H4074 H 0.94333 0.53311 0.89867 0.0
H4075 H 0.99334 0.57945 0.8931 0.0
H4076 H 0.02037 0.5493 0.94754 0.0
H4077 H 0.00788 0.5548 0.91355 0.0
H4078 H 0.94891 0.55188 0.93152 0.0
H4079 H 0.96126 0.5463 0.96534 0.0
C4080 C 0.94395 0.54616 0.87057 0.0
C4081 C 0.95404 0.56014 0.85884 0.0
C4082 C 0.95148 0.54417 0.89021 0.0
C4083 C 0.96941 0.55601 0.89872 0.0
C4084 C 0.97957 0.56998 0.887 0.0
C4085 C 0.97191 0.57211 0.86736 0.0
C4086 C 0.00476 0.54995 0.94429 0.0
C4087 C 0.99185 0.54726 0.95928 0.0
C4088 C 0.99761 0.5532 0.92479 0.0
C4089 C 0.97734 0.55367 0.91971 0.0
C4090 C 0.96454 0.55133 0.93478 0.0
C4091 C 0.97169 0.54824 0.95427 0.0
H4092 H 0.24457 0.20335 0.59796 0.0
H4093 H 0.29297 0.24914 0.5862 0.0
H4094 H 0.24093 0.22275 0.62846 0.0
H4095 H 0.28956 0.2684 0.61727 0.0
H4096 H 0.29242 0.27372 0.68803 0.0
H4097 H 0.29514 0.26191 0.65366 0.0
H4098 H 0.23158 0.25555 0.64056 0.0
H4099 H 0.22885 0.26719 0.67502 0.0
C4100 C 0.25421 0.21774 0.60168 0.0
C4101 C 0.269 0.22475 0.58959 0.0
C4102 C 0.2521 0.22886 0.61917 0.0
C4103 C 0.26485 0.24714 0.62507 0.0
C4104 C 0.27958 0.2543 0.613 0.0
C4105 C 0.28159 0.24323 0.59533 0.0
C4106 C 0.2791 0.27019 0.67766 0.0
C4107 C 0.2604 0.27108 0.68408 0.0
C4108 C 0.28067 0.26356 0.658 0.0
C4109 C 0.26354 0.25767 0.64458 0.0
C4110 C 0.24496 0.2598 0.65074 0.0
C4111 C 0.24341 0.26649 0.67037 0.0
H4112 H 0.604 0.53013 0.18131 0.0
H4113 H 0.55704 0.48253 0.19242 0.0
H4114 H 0.58617 0.53411 0.14941 0.0
H4115 H 0.53926 0.48638 0.16008 0.0
H4116 H 0.52733 0.48804 0.09007 0.0
H4117 H 0.54273 0.48212 0.12298 0.0
H4118 H 0.5551 0.54653 0.13846 0.0
H4119 H 0.53996 0.55239 0.10574 0.0
C4120 C 0.58978 0.52062 0.17703 0.0
C4121 C 0.58181 0.50622 0.18958 0.0
C4122 C 0.57959 0.52288 0.15871 0.0
C4123 C 0.56121 0.51072 0.15238 0.0
C4124 C 0.55343 0.4959 0.16459 0.0
C4125 C 0.56362 0.4937 0.18306 0.0
C4126 C 0.53316 0.50085 0.10065 0.0
C4127 C 0.5326 0.52066 0.09541 0.0
C4128 C 0.5419 0.49748 0.11945 0.0
C4129 C 0.5503 0.51389 0.13316 0.0
C4130 C 0.54905 0.53362 0.12806 0.0
C4131 C 0.54029 0.53697 0.10939 0.0
H4132 H 0.2116 0.80869 0.92309 0.0
H4133 H 0.24911 0.86477 0.91479 0.0
H4134 H 0.21807 0.79475 0.89035 0.0
H4135 H 0.25573 0.8508 0.88227 0.0
H4136 H 0.27984 0.8099 0.83568 0.0
H4137 H 0.27327 0.82275 0.86864 0.0
H4138 H 0.21069 0.8017 0.85335 0.0
H4139 H 0.21718 0.78912 0.8202 0.0
C4140 C 0.22128 0.81801 0.91433 0.0
C4141 C 0.22976 0.83788 0.92156 0.0
C4142 C 0.2249 0.81007 0.89552 0.0
C4143 C 0.23744 0.82165 0.88367 0.0
C4144 C 0.24611 0.84142 0.89104 0.0
C4145 C 0.24219 0.84948 0.90963 0.0
C4146 C 0.26467 0.8079 0.83934 0.0
C4147 C 0.24905 0.79843 0.82522 0.0
C4148 C 0.2609 0.81538 0.85822 0.0
C4149 C 0.24145 0.81327 0.86366 0.0
C4150 C 0.22586 0.80346 0.8497 0.0
C4151 C 0.22958 0.79633 0.83066 0.0
H4152 H 0.98407 0.57345 0.67181 0.0
H4153 H 0.93003 0.53746 0.64302 0.0
H4154 H 0.99999 0.56938 0.64148 0.0
H4155 H 0.9458 0.5337 0.61242 0.0
H4156 H 0.98639 0.51549 0.56601 0.0
H4157 H 0.96958 0.51856 0.59619 0.0
H4158 H 1.00106 0.57967 0.6091 0.0
H4159 H 0.01805 0.57627 0.57938 0.0
C4160 C 0.97549 0.56483 0.65893 0.0
C4161 C 0.95571 0.55585 0.65994 0.0
C4162 C 0.98463 0.56252 0.64142 0.0
C4163 C 0.97423 0.5513 0.62424 0.0
C4164 C 0.95445 0.54221 0.62531 0.0
C4165 C 0.94536 0.54441 0.64291 0.0
C4166 C 0.98952 0.52961 0.57525 0.0
C4167 C 0.00352 0.54564 0.57031 0.0
C4168 C 0.97989 0.53141 0.59259 0.0
C4169 C 0.98399 0.54934 0.60537 0.0
C4170 C 0.99777 0.56545 0.60005 0.0
C4171 C 0.00745 0.56357 0.58287 0.0
H4172 H 0.28266 0.24815 0.43011 0.0
H4173 H 0.30941 0.20591 0.39532 0.0
H4174 H 0.28448 0.271 0.40342 0.0
H4175 H 0.31053 0.22828 0.36815 0.0
H4176 H 0.31385 0.27305 0.32231 0.0
H4177 H 0.32216 0.25971 0.35431 0.0
H4178 H 0.26511 0.26842 0.3722 0.0
H4179 H 0.25719 0.28225 0.34085 0.0
C4180 C 0.28914 0.24393 0.41677 0.0
C4181 C 0.29566 0.22526 0.41453 0.0
C4182 C 0.29014 0.25693 0.40149 0.0
C4183 C 0.29734 0.25132 0.38351 0.0
C4184 C 0.30507 0.23318 0.38185 0.0
C4185 C 0.30434 0.22029 0.39732 0.0
C4186 C 0.30336 0.27264 0.33335 0.0
C4187 C 0.28477 0.27848 0.32898 0.0
C4188 C 0.30805 0.26484 0.35159 0.0
C4189 C 0.29425 0.26281 0.36575 0.0
C4190 C 0.27624 0.26996 0.36181 0.0
C4191 C 0.27159 0.27774 0.34368 0.0
H4192 H 0.40499 0.62509 0.49526 0.0
H4193 H 0.36726 0.57933 0.52242 0.0
H4194 H 0.43076 0.60387 0.49568 0.0
H4195 H 0.39265 0.55795 0.52245 0.0
H4196 H 0.44769 0.53089 0.53797 0.0
H4197 H 0.42321 0.55337 0.53768 0.0
H4198 H 0.44132 0.57463 0.48207 0.0
H4199 H 0.46627 0.55231 0.48282 0.0
C4200 C 0.40209 0.61043 0.50117 0.0
C4201 C 0.38399 0.60408 0.50895 0.0
C4202 C 0.41691 0.59816 0.50137 0.0
C4203 C 0.41406 0.57907 0.50922 0.0
C4204 C 0.3958 0.57268 0.51673 0.0
C4205 C 0.3811 0.58498 0.51667 0.0
C4206 C 0.44644 0.54036 0.52566 0.0
C4207 C 0.45899 0.53982 0.51044 0.0
C4208 C 0.43226 0.55325 0.52541 0.0
C4209 C 0.42992 0.56587 0.50974 0.0
C4210 C 0.44269 0.56543 0.49455 0.0
C4211 C 0.45706 0.55261 0.49493 0.0
H4212 H 0.85378 0.98227 0.55828 0.0
H4213 H 0.85445 0.9456 0.50355 0.0
H4214 H 0.88806 0.99798 0.556 0.0
H4215 H 0.88846 0.96141 0.50122 0.0
H4216 H 0.93899 0.01065 0.49085 0.0
H4217 H 0.90528 0.99538 0.49492 0.0
H4218 H 0.92245 0.98946 0.55715 0.0
H4219 H 0.95637 0.00501 0.55322 0.0
C4220 C 0.86128 0.97745 0.54587 0.0
C4221 C 0.85133 0.96286 0.53098 0.0
C4222 C 0.88088 0.98645 0.54458 0.0
C4223 C 0.89084 0.98105 0.52833 0.0
C4224 C 0.88101 0.96617 0.51369 0.0
C4225 C 0.86151 0.95715 0.51502 0.0
C4226 C 0.93566 0.0062 0.50546 0.0
C4227 C 0.95044 0.00902 0.5217 0.0
C4228 C 0.91632 0.99733 0.50774 0.0
C4229 C 0.91128 0.9911 0.52631 0.0
C4230 C 0.92592 0.99423 0.54268 0.0
C4231 C 0.94535 0.00305 0.54039 0.0
H4232 H 0.81054 0.13953 0.28408 0.0
H4233 H 0.8163 0.15009 0.22234 0.0
H4234 H 0.79323 0.16839 0.28741 0.0
H4235 H 0.79915 0.17896 0.22567 0.0
H4236 H 0.7484 0.21404 0.23178 0.0
H4237 H 0.7665 0.18581 0.2295 0.0
H4238 H 0.79716 0.20494 0.28806 0.0
H4239 H 0.77815 0.23274 0.29063 0.0
C4240 C 0.80828 0.14812 0.27127 0.0
C4241 C 0.8147 0.14239 0.2529 0.0
C4242 C 0.79838 0.1647 0.27318 0.0
C4243 C 0.79468 0.17598 0.25679 0.0
C4244 C 0.80138 0.1704 0.23851 0.0
C4245 C 0.81121 0.15382 0.23659 0.0
C4246 C 0.75894 0.21216 0.24421 0.0
C4247 C 0.76211 0.22574 0.26128 0.0
C4248 C 0.76949 0.19609 0.24282 0.0
C4249 C 0.78347 0.19316 0.2585 0.0
C4250 C 0.78646 0.20667 0.27573 0.0
C4251 C 0.77582 0.22276 0.27712 0.0
H4252 H 0.7011 0.07242 0.01145 0.0
H4253 H 0.67956 0.1265 0.99427 0.0
H4254 H 0.66715 0.05623 0.0143 0.0
H4255 H 0.64578 0.11038 0.99709 0.0
H4256 H 0.58578 0.07023 0.98604 0.0
H4257 H 0.61995 0.08413 0.98155 0.0
H4258 H 0.64029 0.05807 0.035 0.0
H4259 H 0.60602 0.04377 0.03917 0.0
C4260 C 0.68916 0.08088 0.00832 0.0
C4261 C 0.69312 0.10075 0.00252 0.0
C4262 C 0.66968 0.0716 0.00998 0.0
C4263 C 0.65368 0.08196 0.00588 0.0
C4264 C 0.65766 0.10178 1.0 0.0
C4265 C 0.67709 0.11104 0.99835 0.0
C4266 C 0.59758 0.06738 0.99676 0.0
C4267 C 0.59327 0.056 0.01299 0.0
C4268 C 0.61716 0.07545 0.99426 0.0
C4269 C 0.63292 0.07237 0.00799 0.0
C4270 C 0.62857 0.06058 0.02403 0.0
C4271 C 0.60894 0.05248 0.02649 0.0
H4272 H 0.20947 0.42927 0.27519 0.0
H4273 H 0.16208 0.38587 0.29266 0.0
H4274 H 0.23091 0.40362 0.27518 0.0
H4275 H 0.1837 0.36023 0.29299 0.0
H4276 H 0.22114 0.31514 0.26608 0.0
H4277 H 0.19935 0.34031 0.26888 0.0
H4278 H 0.24854 0.38357 0.29793 0.0
H4279 H 0.27031 0.35823 0.29526 0.0
C4280 C 0.20361 0.41424 0.27902 0.0
C4281 C 0.18398 0.40965 0.28383 0.0
C4282 C 0.21599 0.39957 0.27923 0.0
C4283 C 0.20909 0.37983 0.28412 0.0
C4284 C 0.18949 0.37523 0.28902 0.0
C4285 C 0.17713 0.38998 0.28899 0.0
C4286 C 0.22724 0.32991 0.27337 0.0
C4287 C 0.24745 0.33464 0.28057 0.0
C4288 C 0.21473 0.34437 0.27498 0.0
C4289 C 0.22216 0.36403 0.28358 0.0
C4290 C 0.24235 0.36866 0.29102 0.0
C4291 C 0.25481 0.35411 0.2896 0.0
H4292 H 0.17433 0.48649 0.04354 0.0
H4293 H 0.16306 0.45914 0.98309 0.0
H4294 H 0.14708 0.50523 0.03724 0.0
H4295 H 0.1357 0.4778 0.97685 0.0
H4296 H 0.10292 0.54466 0.01675 0.0
H4297 H 0.13427 0.53153 0.01759 0.0
H4298 H 0.10295 0.4743 0.98972 0.0
H4299 H 0.07188 0.48743 0.98875 0.0
C4300 C 0.1663 0.48481 0.02879 0.0
C4301 C 0.17066 0.47118 0.01388 0.0
C4302 C 0.15073 0.49557 0.02517 0.0
C4303 C 0.13923 0.49287 0.00658 0.0
C4304 C 0.14417 0.47995 0.99139 0.0
C4305 C 0.15976 0.46923 0.995 0.0
C4306 C 0.1029 0.52943 0.01046 0.0
C4307 C 0.08511 0.51698 0.00277 0.0
C4308 C 0.12075 0.5219 0.01104 0.0
C4309 C 0.121 0.5019 0.00377 0.0
C4310 C 0.10326 0.48985 0.9952 0.0
C4311 C 0.08546 0.49732 0.99475 0.0
H4312 H 0.80096 0.94036 0.22207 0.0
H4313 H 0.83371 0.94433 0.28036 0.0
H4314 H 0.78714 0.90522 0.22593 0.0
H4315 H 0.81992 0.9093 0.28422 0.0
H4316 H 0.77669 0.85218 0.29277 0.0
H4317 H 0.78921 0.8876 0.28878 0.0
H4318 H 0.79701 0.87222 0.22733 0.0
H4319 H 0.7842 0.83693 0.23118 0.0
C4320 C 0.80531 0.93373 0.23566 0.0
C4321 C 0.81841 0.94527 0.25092 0.0
C4322 C 0.79738 0.91356 0.23788 0.0
C4323 C 0.80236 0.90439 0.25542 0.0
C4324 C 0.81545 0.91594 0.27066 0.0
C4325 C 0.82337 0.93607 0.26844 0.0
C4326 C 0.781 0.85635 0.27838 0.0
C4327 C 0.7794 0.84164 0.26231 0.0
C4328 C 0.7883 0.87667 0.27612 0.0
C4329 C 0.79416 0.88281 0.25773 0.0
C4330 C 0.79241 0.86812 0.24163 0.0
C4331 C 0.78515 0.84781 0.24389 0.0
H4332 H 0.71653 0.09128 0.78825 0.0
H4333 H 0.66462 0.11028 0.75878 0.0
H4334 H 0.73563 0.12465 0.78529 0.0
H4335 H 0.6842 0.14294 0.75478 0.0
H4336 H 0.73263 0.19029 0.733 0.0
H4337 H 0.71628 0.15557 0.73578 0.0
H4338 H 0.73201 0.16272 0.79946 0.0
H4339 H 0.74791 0.19768 0.79678 0.0
C4340 C 0.7091 0.10243 0.78119 0.0
C4341 C 0.68888 0.09782 0.77375 0.0
C4342 C 0.72015 0.12151 0.77937 0.0
C4343 C 0.7114 0.13625 0.76968 0.0
C4344 C 0.69136 0.1317 0.76206 0.0
C4345 C 0.68019 0.11285 0.76426 0.0
C4346 C 0.73285 0.18434 0.74755 0.0
C4347 C 0.74151 0.19662 0.76469 0.0
C4348 C 0.72342 0.16455 0.74913 0.0
C4349 C 0.72287 0.15655 0.76783 0.0
C4350 C 0.73234 0.16852 0.78487 0.0
C4351 C 0.7414 0.18848 0.78334 0.0
loop_
_geom_bond_atom_site_label_1
_geom_bond_atom_site_label_2
_geom_bond_distance
_geom_bond_site_symmetry_2
_ccdc_geom_bond_type
Li0 N17 1.990 . S
Li0 O60 1.956 1_655 S
Li0 O61 1.970 . S
Li0 O62 1.961 1_655 S
Li1 N25 1.990 . S
Li1 O60 1.970 . S
Li1 O61 1.956 1_455 S
Li1 O63 1.961 . S
Li2 N47 1.990 . S
Li2 O60 1.961 . S
Li2 O62 1.956 . S
Li2 O63 1.970 . S
Li3 N53 1.990 . S
Li3 O61 1.961 1_455 S
Li3 O62 1.970 . S
Li3 O63 1.956 . S
C4 C6 1.348 . S
C4 C7 1.356 . S
C4 O60 1.325 . S
N5 C8 1.314 . S
N5 C9 1.279 . S
C6 C4 1.348 . S
C6 C8 1.353 . S
C6 H64 0.929 . S
C7 C4 1.356 . S
C7 C9 1.358 . S
C7 H65 0.930 . S
C8 N5 1.314 . S
C8 C6 1.353 . S
C8 H66 0.930 . S
C9 N5 1.279 . S
C9 C7 1.358 . S
C9 H67 0.930 . S
C10 C13 1.348 . S
C10 C14 1.356 . S
C10 O61 1.325 . S
C11 N12 1.279 . S
C11 C14 1.358 . S
C11 H68 0.930 . S
N12 C11 1.279 . S
N12 C15 1.314 . S
C13 C10 1.348 . S
C13 C15 1.353 . S
C13 H69 0.929 . S
C14 C10 1.356 . S
C14 C11 1.358 . S
C14 H70 0.930 . S
C15 N12 1.314 . S
C15 C13 1.353 . S
C15 H71 0.930 . S
C16 N17 1.314 . S
C16 C21 1.353 . S
C16 H22 0.930 . S
N17 Li0 1.990 . S
N17 C16 1.314 . S
N17 C19 1.279 . S
C18 C19 1.358 . S
C18 C20 1.356 . S
C18 H72 0.930 . S
C19 N17 1.279 . S
C19 C18 1.358 . S
C19 H23 0.930 . S
C20 C18 1.356 . S
C20 C21 1.348 . S
C21 C16 1.353 . S
C21 C20 1.348 . S
C21 H73 0.929 . S
H22 C16 0.930 . S
H23 C19 0.930 . S
C24 N25 1.314 . S
C24 C26 1.353 . S
C24 H30 0.930 . S
N25 Li1 1.990 . S
N25 C24 1.314 . S
N25 C28 1.279 . S
C26 C24 1.353 . S
C26 C29 1.348 . S
C26 H74 0.929 . S
C27 C28 1.358 . S
C27 C29 1.356 . S
C27 H75 0.930 1_455 S
C28 N25 1.279 . S
C28 C27 1.358 . S
C28 H31 0.930 1_455 S
C29 C26 1.348 . S
C29 C27 1.356 . S
H30 C24 0.930 . S
H31 C28 0.930 1_655 S
C32 C34 1.348 . S
C32 C35 1.356 . S
C32 O62 1.325 . S
N33 C36 1.314 . S
N33 C37 1.279 . S
C34 C32 1.348 . S
C34 C36 1.353 . S
C34 H76 0.929 . S
C35 C32 1.356 . S
C35 C37 1.358 . S
C35 H77 0.930 . S
C36 N33 1.314 . S
C36 C34 1.353 . S
C36 H78 0.930 . S
C37 N33 1.279 . S
C37 C35 1.358 . S
C37 H79 0.930 . S
C38 C39 1.348 . S
C38 C40 1.356 . S
C38 O63 1.325 . S
C39 C38 1.348 . S
C39 C41 1.353 . S
C39 H80 0.929 . S
C40 C38 1.356 . S
C40 C42 1.358 . S
C40 H81 0.930 . S
C41 C39 1.353 . S
C41 N43 1.314 . S
C41 H82 0.930 . S
C42 C40 1.358 . S
C42 N43 1.279 . S
C42 H83 0.930 . S
N43 C41 1.314 . S
N43 C42 1.279 . S
C44 C46 1.353 . S
C44 N47 1.314 . S
C44 H50 0.930 . S
C45 N47 1.279 . S
C45 C48 1.358 . S
C45 H51 0.930 . S
C46 C44 1.353 . S
C46 C49 1.348 . S
C46 H84 0.929 . S
N47 Li2 1.990 . S
N47 C44 1.314 . S
N47 C45 1.279 . S
C48 C45 1.358 . S
C48 C49 1.356 . S
C48 H85 0.930 . S
C49 C46 1.348 . S
C49 C48 1.356 . S
H50 C44 0.930 . S
H51 C45 0.930 . S
C52 N53 1.295 1_655 S
C52 C54 1.354 . S
C52 H58 0.951 . S
N53 Li3 1.990 . S
N53 C52 1.295 1_455 S
N53 C56 1.279 . S
C54 C52 1.354 . S
C54 C57 1.348 1_655 S
C54 H86 0.929 . S
C55 C56 1.358 . S
C55 C57 1.356 . S
C55 H87 0.930 . S
C56 N53 1.279 . S
C56 C55 1.358 . S
C56 H59 0.930 . S
C57 C54 1.348 1_455 S
C57 C55 1.356 . S
H58 C52 0.951 . S
H59 C56 0.930 . S
O60 Li0 1.956 1_455 S
O60 Li1 1.970 . S
O60 Li2 1.961 . S
O60 C4 1.325 . S
O61 Li0 1.970 . S
O61 Li1 1.956 1_655 S
O61 Li3 1.961 1_655 S
O61 C10 1.325 . S
O62 Li0 1.961 1_455 S
O62 Li2 1.956 . S
O62 Li3 1.970 . S
O62 C32 1.325 . S
O63 Li1 1.961 . S
O63 Li2 1.970 . S
O63 Li3 1.956 . S
O63 C38 1.325 . S
H64 C6 0.929 . S
H65 C7 0.930 . S
H66 C8 0.930 . S
H67 C9 0.930 . S
H68 C11 0.930 . S
H69 C13 0.929 . S
H70 C14 0.930 . S
H71 C15 0.930 . S
H72 C18 0.930 . S
H73 C21 0.929 . S
H74 C26 0.929 . S
H75 C27 0.930 1_655 S
H76 C34 0.929 . S
H77 C35 0.930 . S
H78 C36 0.930 . S
H79 C37 0.930 . S
H80 C39 0.929 . S
H81 C40 0.930 . S
H82 C41 0.930 . S
H83 C42 0.930 . S
H84 C46 0.929 . S
H85 C48 0.930 . S
H86 C54 0.929 . S
H87 C55 0.930 . S
Li88 N105 1.990 . S
Li88 O148 1.956 . S
Li88 O149 1.970 . S
Li88 O150 1.961 1_455 S
Li89 N113 1.990 . S
Li89 O148 1.970 . S
Li89 O149 1.956 . S
Li89 O151 1.957 1_455 S
Li90 N135 1.990 . S
Li90 O148 1.961 1_655 S
Li90 O150 1.956 . S
Li90 O151 1.970 . S
Li91 N141 1.990 . S
Li91 O149 1.961 1_655 S
Li91 O150 1.970 . S
Li91 O151 1.961 . S
C92 C94 1.348 . S
C92 C95 1.356 . S
C92 O148 1.325 . S
N93 C96 1.314 . S
N93 C97 1.279 . S
C94 C92 1.348 . S
C94 C96 1.353 . S
C94 H152 0.929 . S
C95 C92 1.356 . S
C95 C97 1.358 . S
C95 H153 0.930 . S
C96 N93 1.314 . S
C96 C94 1.353 . S
C96 H154 0.930 . S
C97 N93 1.279 . S
C97 C95 1.358 . S
C97 H155 0.930 . S
C98 C101 1.348 . S
C98 C102 1.356 . S
C98 O149 1.325 . S
C99 N100 1.279 . S
C99 C102 1.358 . S
C99 H156 0.930 . S
N100 C99 1.279 . S
N100 C103 1.314 . S
C101 C98 1.348 . S
C101 C103 1.353 . S
C101 H157 0.929 . S
C102 C98 1.356 . S
C102 C99 1.358 . S
C102 H158 0.924 1_455 S
C103 N100 1.314 . S
C103 C101 1.353 . S
C103 H159 0.930 . S
C104 N105 1.314 1_655 S
C104 C109 1.353 . S
C104 H110 0.930 . S
N105 Li88 1.990 . S
N105 C104 1.314 1_455 S
N105 C107 1.279 . S
C106 C107 1.358 . S
C106 C108 1.356 . S
C106 H160 0.930 . S
C107 N105 1.279 . S
C107 C106 1.358 . S
C107 H111 0.930 . S
C108 C106 1.356 . S
C108 C109 1.348 1_455 S
C109 C104 1.353 . S
C109 C108 1.348 1_655 S
C109 H161 0.929 . S
H110 C104 0.930 . S
H111 C107 0.930 . S
C112 N113 1.314 . S
C112 C114 1.353 . S
C112 H118 0.930 . S
N113 Li89 1.990 . S
N113 C112 1.314 . S
N113 C116 1.279 . S
C114 C112 1.353 . S
C114 C117 1.348 . S
C114 H162 0.929 . S
C115 C116 1.358 . S
C115 C117 1.356 . S
C115 H163 0.930 . S
C116 N113 1.279 . S
C116 C115 1.358 . S
C116 H119 0.930 . S
C117 C114 1.348 . S
C117 C115 1.356 . S
H118 C112 0.930 . S
H119 C116 0.930 . S
C120 C122 1.348 . S
C120 C123 1.356 . S
C120 O150 1.325 . S
N121 C124 1.314 . S
N121 C125 1.279 . S
C122 C120 1.348 . S
C122 C124 1.353 . S
C122 H164 0.929 . S
C123 C120 1.356 . S
C123 C125 1.358 . S
C123 H165 0.930 . S
C124 N121 1.314 . S
C124 C122 1.353 . S
C124 H166 0.930 . S
C125 N121 1.279 . S
C125 C123 1.358 . S
C125 H167 0.930 . S
C126 C127 1.348 . S
C126 C128 1.356 1_655 S
C126 O151 1.325 . S
C127 C126 1.348 . S
C127 C129 1.353 . S
C127 H168 0.929 . S
C128 C126 1.356 1_455 S
C128 C130 1.358 . S
C128 H169 0.930 . S
C129 C127 1.353 . S
C129 N131 1.314 . S
C129 H170 0.930 . S
C130 C128 1.358 . S
C130 N131 1.279 1_455 S
C130 H171 0.930 . S
N131 C129 1.314 . S
N131 C130 1.279 1_655 S
C132 C134 1.353 . S
C132 N135 1.314 1_455 S
C132 H138 0.930 . S
C133 N135 1.279 . S
C133 C136 1.358 . S
C133 H139 0.930 . S
C134 C132 1.353 . S
C134 C137 1.348 1_455 S
C134 H172 0.929 . S
N135 Li90 1.990 . S
N135 C132 1.314 1_655 S
N135 C133 1.279 . S
C136 C133 1.358 . S
C136 C137 1.356 . S
C136 H173 0.930 . S
C137 C134 1.348 1_655 S
C137 C136 1.356 . S
H138 C132 0.930 . S
H139 C133 0.930 . S
C140 N141 1.314 . S
C140 C142 1.353 . S
C140 H146 0.930 . S
N141 Li91 1.990 . S
N141 C140 1.314 . S
N141 C144 1.279 . S
C142 C140 1.353 . S
C142 C145 1.348 . S
C142 H174 0.929 . S
C143 C144 1.358 . S
C143 C145 1.356 . S
C143 H175 0.930 . S
C144 N141 1.279 . S
C144 C143 1.358 . S
C144 H147 0.930 . S
C145 C142 1.348 . S
C145 C143 1.356 . S
H146 C140 0.930 . S
H147 C144 0.930 . S
O148 Li88 1.956 . S
O148 Li89 1.970 . S
O148 Li90 1.961 1_455 S
O148 C92 1.325 . S
O149 Li88 1.970 . S
O149 Li89 1.956 . S
O149 Li91 1.961 1_455 S
O149 C98 1.325 . S
O150 Li88 1.961 1_655 S
O150 Li90 1.956 . S
O150 Li91 1.970 . S
O150 C120 1.325 . S
O151 Li89 1.957 1_655 S
O151 Li90 1.970 . S
O151 Li91 1.961 . S
O151 C126 1.325 . S
H152 C94 0.929 . S
H153 C95 0.930 . S
H154 C96 0.930 . S
H155 C97 0.930 . S
H156 C99 0.930 . S
H157 C101 0.929 . S
H158 C102 0.924 1_655 S
H159 C103 0.930 . S
H160 C106 0.930 . S
H161 C109 0.929 . S
H162 C114 0.929 . S
H163 C115 0.930 . S
H164 C122 0.929 . S
H165 C123 0.930 . S
H166 C124 0.930 . S
H167 C125 0.930 . S
H168 C127 0.929 . S
H169 C128 0.930 . S
H170 C129 0.930 . S
H171 C130 0.930 . S
H172 C134 0.929 . S
H173 C136 0.930 . S
H174 C142 0.929 . S
H175 C143 0.930 . S
Li176 N193 1.990 . S
Li176 O236 1.956 . S
Li176 O237 1.970 . S
Li176 O238 1.961 . S
Li177 N201 1.990 . S
Li177 O236 1.970 . S
Li177 O237 1.956 . S
Li177 O239 1.961 . S
Li178 N223 1.990 . S
Li178 O236 1.961 . S
Li178 O238 1.956 . S
Li178 O239 1.970 . S
Li179 N229 1.990 . S
Li179 O237 1.961 . S
Li179 O238 1.970 . S
Li179 O239 1.956 . S
C180 C182 1.348 . S
C180 C183 1.356 . S
C180 O236 1.325 . S
N181 C184 1.314 . S
N181 C185 1.279 . S
C182 C180 1.348 . S
C182 C184 1.353 . S
C182 H240 0.929 . S
C183 C180 1.356 . S
C183 C185 1.358 . S
C183 H241 0.930 . S
C184 N181 1.314 . S
C184 C182 1.353 . S
C184 H242 0.930 . S
C185 N181 1.279 . S
C185 C183 1.358 . S
C185 H243 0.930 . S
C186 C189 1.348 . S
C186 C190 1.356 . S
C186 O237 1.325 . S
C187 N188 1.279 . S
C187 C190 1.358 . S
C187 H244 0.930 . S
N188 C187 1.279 . S
N188 C191 1.314 . S
C189 C186 1.348 . S
C189 C191 1.353 . S
C189 H245 0.929 . S
C190 C186 1.356 . S
C190 C187 1.358 . S
C190 H246 0.930 . S
C191 N188 1.314 . S
C191 C189 1.353 . S
C191 H247 0.930 . S
C192 N193 1.314 . S
C192 C197 1.353 . S
C192 H198 0.930 . S
N193 Li176 1.990 . S
N193 C192 1.314 . S
N193 C195 1.279 . S
C194 C195 1.358 . S
C194 C196 1.356 . S
C194 H248 0.930 . S
C195 N193 1.279 . S
C195 C194 1.358 . S
C195 H199 0.930 . S
C196 C194 1.356 . S
C196 C197 1.348 . S
C197 C192 1.353 . S
C197 C196 1.348 . S
C197 H249 0.929 . S
H198 C192 0.930 . S
H199 C195 0.930 . S
C200 N201 1.314 . S
C200 C202 1.353 . S
C200 H206 0.930 . S
N201 Li177 1.990 . S
N201 C200 1.314 . S
N201 C204 1.279 . S
C202 C200 1.353 . S
C202 C205 1.348 . S
C202 H250 0.929 . S
C203 C204 1.358 . S
C203 C205 1.356 . S
C203 H251 0.930 . S
C204 N201 1.279 . S
C204 C203 1.358 . S
C204 H207 0.930 . S
C205 C202 1.348 . S
C205 C203 1.356 . S
H206 C200 0.930 . S
H207 C204 0.930 . S
C208 C210 1.348 . S
C208 C211 1.356 . S
C208 O238 1.325 . S
N209 C212 1.314 . S
N209 C213 1.279 . S
C210 C208 1.348 . S
C210 C212 1.353 . S
C210 H252 0.929 . S
C211 C208 1.356 . S
C211 C213 1.358 . S
C211 H253 0.930 . S
C212 N209 1.314 . S
C212 C210 1.353 . S
C212 H254 0.930 . S
C213 N209 1.279 . S
C213 C211 1.358 . S
C213 H255 0.930 . S
C214 C215 1.348 . S
C214 C216 1.356 . S
C214 O239 1.325 . S
C215 C214 1.348 . S
C215 C217 1.353 . S
C215 H256 0.929 . S
C216 C214 1.356 . S
C216 C218 1.358 . S
C216 H257 0.930 . S
C217 C215 1.353 . S
C217 N219 1.314 . S
C217 H258 0.930 . S
C218 C216 1.358 . S
C218 N219 1.279 . S
C218 H259 0.930 . S
N219 C217 1.314 . S
N219 C218 1.279 . S
C220 C222 1.353 . S
C220 N223 1.314 . S
C220 H226 0.930 . S
C221 N223 1.279 . S
C221 C224 1.358 . S
C221 H227 0.930 . S
C222 C220 1.353 . S
C222 C225 1.348 . S
C222 H260 0.929 . S
N223 Li178 1.990 . S
N223 C220 1.314 . S
N223 C221 1.279 . S
C224 C221 1.358 . S
C224 C225 1.356 . S
C224 H261 0.930 . S
C225 C222 1.348 . S
C225 C224 1.356 . S
H226 C220 0.930 . S
H227 C221 0.930 . S
C228 N229 1.314 . S
C228 C230 1.353 . S
C228 H234 0.930 . S
N229 Li179 1.990 . S
N229 C228 1.314 . S
N229 C232 1.279 . S
C230 C228 1.353 . S
C230 C233 1.348 . S
C230 H262 0.929 . S
C231 C232 1.358 . S
C231 C233 1.356 . S
C231 H263 0.930 . S
C232 N229 1.279 . S
C232 C231 1.358 . S
C232 H235 0.930 . S
C233 C230 1.348 . S
C233 C231 1.356 . S
H234 C228 0.930 . S
H235 C232 0.930 . S
O236 Li176 1.956 . S
O236 Li177 1.970 . S
O236 Li178 1.961 . S
O236 C180 1.325 . S
O237 Li176 1.970 . S
O237 Li177 1.956 . S
O237 Li179 1.961 . S
O237 C186 1.325 . S
O238 Li176 1.961 . S
O238 Li178 1.956 . S
O238 Li179 1.970 . S
O238 C208 1.325 . S
O239 Li177 1.961 . S
O239 Li178 1.970 . S
O239 Li179 1.956 . S
O239 C214 1.325 . S
H240 C182 0.929 . S
H241 C183 0.930 . S
H242 C184 0.930 . S
H243 C185 0.930 . S
H244 C187 0.930 . S
H245 C189 0.929 . S
H246 C190 0.930 . S
H247 C191 0.930 . S
H248 C194 0.930 . S
H249 C197 0.929 . S
H250 C202 0.929 . S
H251 C203 0.930 . S
H252 C210 0.929 . S
H253 C211 0.930 . S
H254 C212 0.930 . S
H255 C213 0.930 . S
H256 C215 0.929 . S
H257 C216 0.930 . S
H258 C217 0.930 . S
H259 C218 0.930 . S
H260 C222 0.929 . S
H261 C224 0.930 . S
H262 C230 0.929 . S
H263 C231 0.930 . S
Li264 N281 1.990 . S
Li264 O324 1.956 . S
Li264 O325 1.970 . S
Li264 O326 1.961 . S
Li265 N289 1.990 . S
Li265 O324 1.970 . S
Li265 O325 1.956 . S
Li265 O327 1.961 . S
Li266 N311 1.990 . S
Li266 O324 1.961 . S
Li266 O326 1.956 . S
Li266 O327 1.970 . S
Li267 N317 1.990 . S
Li267 O325 1.961 . S
Li267 O326 1.970 . S
Li267 O327 1.956 . S
C268 C270 1.348 . S
C268 C271 1.356 . S
C268 O324 1.325 . S
N269 C272 1.314 . S
N269 C273 1.279 . S
C270 C268 1.348 . S
C270 C272 1.353 . S
C270 H328 0.929 . S
C271 C268 1.356 . S
C271 C273 1.358 . S
C271 H329 0.930 . S
C272 N269 1.314 . S
C272 C270 1.353 . S
C272 H330 0.930 . S
C273 N269 1.279 . S
C273 C271 1.358 . S
C273 H331 0.930 . S
C274 C277 1.348 . S
C274 C278 1.356 . S
C274 O325 1.325 . S
C275 N276 1.279 . S
C275 C278 1.358 . S
C275 H332 0.930 . S
N276 C275 1.279 . S
N276 C279 1.314 . S
C277 C274 1.348 . S
C277 C279 1.353 . S
C277 H333 0.929 . S
C278 C274 1.356 . S
C278 C275 1.358 . S
C278 H334 0.930 . S
C279 N276 1.314 . S
C279 C277 1.353 . S
C279 H335 0.930 . S
C280 N281 1.314 . S
C280 C285 1.353 . S
C280 H286 0.930 . S
N281 Li264 1.990 . S
N281 C280 1.314 . S
N281 C283 1.279 . S
C282 C283 1.358 . S
C282 C284 1.356 . S
C282 H336 0.930 . S
C283 N281 1.279 . S
C283 C282 1.358 . S
C283 H287 0.930 . S
C284 C282 1.356 . S
C284 C285 1.348 . S
C285 C280 1.353 . S
C285 C284 1.348 . S
C285 H337 0.929 . S
H286 C280 0.930 . S
H287 C283 0.930 . S
C288 N289 1.314 . S
C288 C290 1.353 . S
C288 H294 0.930 . S
N289 Li265 1.990 . S
N289 C288 1.314 . S
N289 C292 1.279 . S
C290 C288 1.353 . S
C290 C293 1.348 . S
C290 H338 0.929 . S
C291 C292 1.358 . S
C291 C293 1.356 . S
C291 H339 0.930 . S
C292 N289 1.279 . S
C292 C291 1.358 . S
C292 H295 0.930 . S
C293 C290 1.348 . S
C293 C291 1.356 . S
H294 C288 0.930 . S
H295 C292 0.930 . S
C296 C298 1.348 . S
C296 C299 1.356 . S
C296 O326 1.325 . S
N297 C300 1.314 . S
N297 C301 1.279 . S
C298 C296 1.348 . S
C298 C300 1.353 . S
C298 H340 0.929 . S
C299 C296 1.356 . S
C299 C301 1.358 . S
C299 H341 0.930 . S
C300 N297 1.314 . S
C300 C298 1.353 . S
C300 H342 0.930 . S
C301 N297 1.279 . S
C301 C299 1.358 . S
C301 H343 0.930 . S
C302 C303 1.348 . S
C302 C304 1.356 . S
C302 O327 1.325 . S
C303 C302 1.348 . S
C303 C305 1.353 . S
C303 H344 0.929 . S
C304 C302 1.356 . S
C304 C306 1.358 . S
C304 H345 0.930 . S
C305 C303 1.353 . S
C305 N307 1.314 . S
C305 H346 0.930 . S
C306 C304 1.358 . S
C306 N307 1.279 . S
C306 H347 0.930 . S
N307 C305 1.314 . S
N307 C306 1.279 . S
C308 C310 1.353 . S
C308 N311 1.314 . S
C308 H314 0.930 . S
C309 N311 1.279 . S
C309 C312 1.358 . S
C309 H315 0.930 . S
C310 C308 1.353 . S
C310 C313 1.348 . S
C310 H348 0.929 . S
N311 Li266 1.990 . S
N311 C308 1.314 . S
N311 C309 1.279 . S
C312 C309 1.358 . S
C312 C313 1.356 . S
C312 H349 0.930 . S
C313 C310 1.348 . S
C313 C312 1.356 . S
H314 C308 0.930 . S
H315 C309 0.930 . S
C316 N317 1.314 . S
C316 C318 1.353 . S
C316 H322 0.930 . S
N317 Li267 1.990 . S
N317 C316 1.314 . S
N317 C320 1.279 . S
C318 C316 1.353 . S
C318 C321 1.348 . S
C318 H350 0.929 . S
C319 C320 1.358 . S
C319 C321 1.356 . S
C319 H351 0.930 . S
C320 N317 1.279 . S
C320 C319 1.358 . S
C320 H323 0.930 . S
C321 C318 1.348 . S
C321 C319 1.356 . S
H322 C316 0.930 . S
H323 C320 0.930 . S
O324 Li264 1.956 . S
O324 Li265 1.970 . S
O324 Li266 1.961 . S
O324 C268 1.325 . S
O325 Li264 1.970 . S
O325 Li265 1.956 . S
O325 Li267 1.961 . S
O325 C274 1.325 . S
O326 Li264 1.961 . S
O326 Li266 1.956 . S
O326 Li267 1.970 . S
O326 C296 1.325 . S
O327 Li265 1.961 . S
O327 Li266 1.970 . S
O327 Li267 1.956 . S
O327 C302 1.325 . S
H328 C270 0.929 . S
H329 C271 0.930 . S
H330 C272 0.930 . S
H331 C273 0.930 . S
H332 C275 0.930 . S
H333 C277 0.929 . S
H334 C278 0.930 . S
H335 C279 0.930 . S
H336 C282 0.930 . S
H337 C285 0.929 . S
H338 C290 0.929 . S
H339 C291 0.930 . S
H340 C298 0.929 . S
H341 C299 0.930 . S
H342 C300 0.930 . S
H343 C301 0.930 . S
H344 C303 0.929 . S
H345 C304 0.930 . S
H346 C305 0.930 . S
H347 C306 0.930 . S
H348 C310 0.929 . S
H349 C312 0.930 . S
H350 C318 0.929 . S
H351 C319 0.930 . S
Li352 N369 1.990 . S
Li352 O412 1.956 . S
Li352 O413 1.970 . S
Li352 O414 1.961 1_455 S
Li353 N377 1.990 . S
Li353 O412 1.970 . S
Li353 O413 1.956 . S
Li353 O415 1.961 . S
Li354 N399 1.987 . S
Li354 O412 1.961 . S
Li354 O414 1.956 1_455 S
Li354 O415 1.970 . S
Li355 N405 1.990 . S
Li355 O413 1.961 1_655 S
Li355 O414 1.970 . S
Li355 O415 1.956 1_655 S
C356 C358 1.348 . S
C356 C359 1.356 . S
C356 O412 1.325 . S
N357 C360 1.314 . S
N357 C361 1.279 . S
C358 C356 1.348 . S
C358 C360 1.353 . S
C358 H416 0.929 . S
C359 C356 1.356 . S
C359 C361 1.358 . S
C359 H417 0.930 . S
C360 N357 1.314 . S
C360 C358 1.353 . S
C360 H418 0.930 . S
C361 N357 1.279 . S
C361 C359 1.358 . S
C361 H419 0.930 . S
C362 C365 1.348 . S
C362 C366 1.356 . S
C362 O413 1.325 . S
C363 N364 1.279 . S
C363 C366 1.358 . S
C363 H420 0.930 . S
N364 C363 1.279 . S
N364 C367 1.314 . S
C365 C362 1.348 . S
C365 C367 1.353 . S
C365 H421 0.929 . S
C366 C362 1.356 . S
C366 C363 1.358 . S
C366 H422 0.930 . S
C367 N364 1.314 . S
C367 C365 1.353 . S
C367 H423 0.930 . S
C368 N369 1.314 1_655 S
C368 C373 1.353 . S
C368 H374 0.930 . S
N369 Li352 1.990 . S
N369 C368 1.314 1_455 S
N369 C371 1.279 . S
C370 C371 1.358 . S
C370 C372 1.356 . S
C370 H424 0.930 . S
C371 N369 1.279 . S
C371 C370 1.358 . S
C371 H375 0.930 . S
C372 C370 1.356 . S
C372 C373 1.348 1_455 S
C373 C368 1.353 . S
C373 C372 1.348 1_655 S
C373 H425 0.929 . S
H374 C368 0.930 . S
H375 C371 0.930 . S
C376 N377 1.314 . S
C376 C378 1.353 . S
C376 H382 0.930 . S
N377 Li353 1.990 . S
N377 C376 1.314 . S
N377 C380 1.279 . S
C378 C376 1.353 . S
C378 C381 1.348 . S
C378 H426 0.929 . S
C379 C380 1.358 . S
C379 C381 1.356 . S
C379 H427 0.930 . S
C380 N377 1.279 . S
C380 C379 1.358 . S
C380 H383 0.930 . S
C381 C378 1.348 . S
C381 C379 1.356 . S
H382 C376 0.930 . S
H383 C380 0.930 . S
C384 C386 1.348 . S
C384 C387 1.356 . S
C384 O414 1.325 . S
N385 C388 1.314 . S
N385 C389 1.279 . S
C386 C384 1.348 . S
C386 C388 1.353 . S
C386 H428 0.929 . S
C387 C384 1.356 . S
C387 C389 1.358 . S
C387 H429 0.930 . S
C388 N385 1.314 . S
C388 C386 1.353 . S
C388 H430 0.930 . S
C389 N385 1.279 . S
C389 C387 1.358 . S
C389 H431 0.930 . S
C390 C391 1.348 1_455 S
C390 C392 1.356 . S
C390 O415 1.325 . S
C391 C390 1.348 1_655 S
C391 C393 1.353 . S
C391 H432 0.929 . S
C392 C390 1.356 . S
C392 C394 1.358 . S
C392 H433 0.930 . S
C393 C391 1.353 . S
C393 N395 1.314 1_655 S
C393 H434 0.930 . S
C394 C392 1.358 . S
C394 N395 1.279 . S
C394 H435 0.930 . S
N395 C393 1.314 1_455 S
N395 C394 1.279 . S
C396 C398 1.353 . S
C396 N399 1.364 . S
C396 H402 0.930 . S
C397 N399 1.238 1_655 S
C397 C400 1.358 . S
C397 H403 0.930 . S
C398 C396 1.353 . S
C398 C401 1.348 1_455 S
C398 H436 0.929 . S
N399 Li354 1.987 . S
N399 C396 1.364 . S
N399 C397 1.238 1_455 S
C400 C397 1.358 . S
C400 C401 1.356 . S
C400 H437 0.930 . S
C401 C398 1.348 1_655 S
C401 C400 1.356 . S
H402 C396 0.930 . S
H403 C397 0.930 . S
C404 N405 1.314 . S
C404 C406 1.353 . S
C404 H410 0.930 . S
N405 Li355 1.990 . S
N405 C404 1.314 . S
N405 C408 1.279 . S
C406 C404 1.353 . S
C406 C409 1.348 . S
C406 H438 0.929 . S
C407 C408 1.358 . S
C407 C409 1.356 . S
C407 H439 0.930 . S
C408 N405 1.279 . S
C408 C407 1.358 . S
C408 H411 0.930 . S
C409 C406 1.348 . S
C409 C407 1.356 . S
H410 C404 0.930 . S
H411 C408 0.930 . S
O412 Li352 1.956 . S
O412 Li353 1.970 . S
O412 Li354 1.961 . S
O412 C356 1.325 . S
O413 Li352 1.970 . S
O413 Li353 1.956 . S
O413 Li355 1.961 1_455 S
O413 C362 1.325 . S
O414 Li352 1.961 1_655 S
O414 Li354 1.956 1_655 S
O414 Li355 1.970 . S
O414 C384 1.325 . S
O415 Li353 1.961 . S
O415 Li354 1.970 . S
O415 Li355 1.956 1_455 S
O415 C390 1.325 . S
H416 C358 0.929 . S
H417 C359 0.930 . S
H418 C360 0.930 . S
H419 C361 0.930 . S
H420 C363 0.930 . S
H421 C365 0.929 . S
H422 C366 0.930 . S
H423 C367 0.930 . S
H424 C370 0.930 . S
H425 C373 0.929 . S
H426 C378 0.929 . S
H427 C379 0.930 . S
H428 C386 0.929 . S
H429 C387 0.930 . S
H430 C388 0.930 . S
H431 C389 0.930 . S
H432 C391 0.929 . S
H433 C392 0.930 . S
H434 C393 0.930 . S
H435 C394 0.930 . S
H436 C398 0.929 . S
H437 C400 0.930 . S
H438 C406 0.929 . S
H439 C407 0.930 . S
Li440 N457 1.990 . S
Li440 O500 1.956 . S
Li440 O501 1.970 . S
Li440 O502 1.961 . S
Li441 N465 1.990 . S
Li441 O500 1.970 . S
Li441 O501 1.956 . S
Li441 O503 1.961 . S
Li442 N487 1.990 . S
Li442 O500 1.961 . S
Li442 O502 1.956 . S
Li442 O503 1.970 . S
Li443 N493 1.990 . S
Li443 O501 1.961 . S
Li443 O502 1.970 . S
Li443 O503 1.956 . S
C444 C446 1.348 . S
C444 C447 1.356 . S
C444 O500 1.325 . S
N445 C448 1.314 . S
N445 C449 1.279 . S
C446 C444 1.348 . S
C446 C448 1.353 . S
C446 H504 0.929 . S
C447 C444 1.356 . S
C447 C449 1.358 . S
C447 H505 0.930 . S
C448 N445 1.314 . S
C448 C446 1.353 . S
C448 H506 0.930 . S
C449 N445 1.279 . S
C449 C447 1.358 . S
C449 H507 0.930 . S
C450 C453 1.348 . S
C450 C454 1.356 . S
C450 O501 1.325 . S
C451 N452 1.279 . S
C451 C454 1.358 . S
C451 H508 0.930 . S
N452 C451 1.279 . S
N452 C455 1.314 . S
C453 C450 1.348 . S
C453 C455 1.353 . S
C453 H509 0.929 . S
C454 C450 1.356 . S
C454 C451 1.358 . S
C454 H510 0.930 . S
C455 N452 1.314 . S
C455 C453 1.353 . S
C455 H511 0.930 . S
C456 N457 1.314 . S
C456 C461 1.353 . S
C456 H462 0.930 . S
N457 Li440 1.990 . S
N457 C456 1.314 . S
N457 C459 1.279 . S
C458 C459 1.358 . S
C458 C460 1.356 . S
C458 H512 0.930 . S
C459 N457 1.279 . S
C459 C458 1.358 . S
C459 H463 0.930 . S
C460 C458 1.356 . S
C460 C461 1.348 . S
C461 C456 1.353 . S
C461 C460 1.348 . S
C461 H513 0.929 . S
H462 C456 0.930 . S
H463 C459 0.930 . S
C464 N465 1.314 . S
C464 C466 1.353 . S
C464 H470 0.930 . S
N465 Li441 1.990 . S
N465 C464 1.314 . S
N465 C468 1.279 . S
C466 C464 1.353 . S
C466 C469 1.348 . S
C466 H514 0.929 . S
C467 C468 1.358 . S
C467 C469 1.356 . S
C467 H515 0.930 . S
C468 N465 1.279 . S
C468 C467 1.358 . S
C468 H471 0.930 . S
C469 C466 1.348 . S
C469 C467 1.356 . S
H470 C464 0.930 . S
H471 C468 0.930 . S
C472 C474 1.348 . S
C472 C475 1.356 . S
C472 O502 1.325 . S
N473 C476 1.314 . S
N473 C477 1.279 . S
C474 C472 1.348 . S
C474 C476 1.353 . S
C474 H516 0.929 . S
C475 C472 1.356 . S
C475 C477 1.358 . S
C475 H517 0.930 . S
C476 N473 1.314 . S
C476 C474 1.353 . S
C476 H518 0.930 . S
C477 N473 1.279 . S
C477 C475 1.358 . S
C477 H519 0.930 . S
C478 C479 1.348 . S
C478 C480 1.356 . S
C478 O503 1.325 . S
C479 C478 1.348 . S
C479 C481 1.353 . S
C479 H520 0.929 . S
C480 C478 1.356 . S
C480 C482 1.358 . S
C480 H521 0.930 . S
C481 C479 1.353 . S
C481 N483 1.314 . S
C481 H522 0.930 . S
C482 C480 1.358 . S
C482 N483 1.279 . S
C482 H523 0.930 . S
N483 C481 1.314 . S
N483 C482 1.279 . S
C484 C486 1.353 . S
C484 N487 1.314 . S
C484 H490 0.930 . S
C485 N487 1.279 . S
C485 C488 1.358 . S
C485 H491 0.930 . S
C486 C484 1.353 . S
C486 C489 1.348 . S
C486 H524 0.929 . S
N487 Li442 1.990 . S
N487 C484 1.314 . S
N487 C485 1.279 . S
C488 C485 1.358 . S
C488 C489 1.356 . S
C488 H525 0.930 . S
C489 C486 1.348 . S
C489 C488 1.356 . S
H490 C484 0.930 . S
H491 C485 0.930 . S
C492 N493 1.314 . S
C492 C494 1.353 . S
C492 H498 0.930 . S
N493 Li443 1.990 . S
N493 C492 1.314 . S
N493 C496 1.279 . S
C494 C492 1.353 . S
C494 C497 1.348 . S
C494 H526 0.929 . S
C495 C496 1.358 . S
C495 C497 1.356 . S
C495 H527 0.930 . S
C496 N493 1.279 . S
C496 C495 1.358 . S
C496 H499 0.930 . S
C497 C494 1.348 . S
C497 C495 1.356 . S
H498 C492 0.930 . S
H499 C496 0.930 . S
O500 Li440 1.956 . S
O500 Li441 1.970 . S
O500 Li442 1.961 . S
O500 C444 1.325 . S
O501 Li440 1.970 . S
O501 Li441 1.956 . S
O501 Li443 1.961 . S
O501 C450 1.325 . S
O502 Li440 1.961 . S
O502 Li442 1.956 . S
O502 Li443 1.970 . S
O502 C472 1.325 . S
O503 Li441 1.961 . S
O503 Li442 1.970 . S
O503 Li443 1.956 . S
O503 C478 1.325 . S
H504 C446 0.929 . S
H505 C447 0.930 . S
H506 C448 0.930 . S
H507 C449 0.930 . S
H508 C451 0.930 . S
H509 C453 0.929 . S
H510 C454 0.930 . S
H511 C455 0.930 . S
H512 C458 0.930 . S
H513 C461 0.929 . S
H514 C466 0.929 . S
H515 C467 0.930 . S
H516 C474 0.929 . S
H517 C475 0.930 . S
H518 C476 0.930 . S
H519 C477 0.930 . S
H520 C479 0.929 . S
H521 C480 0.930 . S
H522 C481 0.930 . S
H523 C482 0.930 . S
H524 C486 0.929 . S
H525 C488 0.930 . S
H526 C494 0.929 . S
H527 C495 0.930 . S
Li528 N545 1.990 . S
Li528 O588 1.956 . S
Li528 O589 1.970 . S
Li528 O590 1.961 . S
Li529 N553 1.990 . S
Li529 O588 1.970 . S
Li529 O589 1.956 . S
Li529 O591 1.961 . S
Li530 N575 1.990 . S
Li530 O588 1.961 . S
Li530 O590 1.956 . S
Li530 O591 1.970 . S
Li531 N581 1.990 . S
Li531 O589 1.961 . S
Li531 O590 1.970 . S
Li531 O591 1.956 . S
C532 C534 1.348 . S
C532 C535 1.356 . S
C532 O588 1.325 . S
N533 C536 1.314 . S
N533 C537 1.279 . S
C534 C532 1.348 . S
C534 C536 1.353 . S
C534 H592 0.929 . S
C535 C532 1.356 . S
C535 C537 1.358 . S
C535 H593 0.930 . S
C536 N533 1.314 . S
C536 C534 1.353 . S
C536 H594 0.930 . S
C537 N533 1.279 . S
C537 C535 1.358 . S
C537 H595 0.930 . S
C538 C541 1.348 . S
C538 C542 1.356 . S
C538 O589 1.325 . S
C539 N540 1.279 . S
C539 C542 1.358 . S
C539 H596 0.930 . S
N540 C539 1.279 . S
N540 C543 1.314 . S
C541 C538 1.348 . S
C541 C543 1.353 . S
C541 H597 0.929 . S
C542 C538 1.356 . S
C542 C539 1.358 . S
C542 H598 0.930 . S
C543 N540 1.314 . S
C543 C541 1.353 . S
C543 H599 0.930 . S
C544 N545 1.314 . S
C544 C549 1.353 . S
C544 H550 0.930 . S
N545 Li528 1.990 . S
N545 C544 1.314 . S
N545 C547 1.279 . S
C546 C547 1.358 . S
C546 C548 1.356 . S
C546 H600 0.930 . S
C547 N545 1.279 . S
C547 C546 1.358 . S
C547 H551 0.930 . S
C548 C546 1.356 . S
C548 C549 1.348 . S
C549 C544 1.353 . S
C549 C548 1.348 . S
C549 H601 0.929 . S
H550 C544 0.930 . S
H551 C547 0.930 . S
C552 N553 1.314 . S
C552 C554 1.353 . S
C552 H558 0.930 . S
N553 Li529 1.990 . S
N553 C552 1.314 . S
N553 C556 1.279 . S
C554 C552 1.353 . S
C554 C557 1.348 . S
C554 H602 0.929 . S
C555 C556 1.358 . S
C555 C557 1.356 . S
C555 H603 0.930 . S
C556 N553 1.279 . S
C556 C555 1.358 . S
C556 H559 0.930 . S
C557 C554 1.348 . S
C557 C555 1.356 . S
H558 C552 0.930 . S
H559 C556 0.930 . S
C560 C562 1.348 . S
C560 C563 1.356 . S
C560 O590 1.325 . S
N561 C564 1.314 . S
N561 C565 1.279 . S
C562 C560 1.348 . S
C562 C564 1.353 . S
C562 H604 0.929 . S
C563 C560 1.356 . S
C563 C565 1.358 . S
C563 H605 0.930 . S
C564 N561 1.314 . S
C564 C562 1.353 . S
C564 H606 0.930 . S
C565 N561 1.279 . S
C565 C563 1.358 . S
C565 H607 0.930 . S
C566 C567 1.348 . S
C566 C568 1.356 . S
C566 O591 1.325 . S
C567 C566 1.348 . S
C567 C569 1.353 . S
C567 H608 0.929 . S
C568 C566 1.356 . S
C568 C570 1.358 . S
C568 H609 0.930 . S
C569 C567 1.353 . S
C569 N571 1.314 . S
C569 H610 0.930 . S
C570 C568 1.358 . S
C570 N571 1.279 . S
C570 H611 0.930 . S
N571 C569 1.314 . S
N571 C570 1.279 . S
C572 C574 1.353 . S
C572 N575 1.314 . S
C572 H578 0.930 . S
C573 N575 1.279 . S
C573 C576 1.358 . S
C573 H579 0.930 . S
C574 C572 1.353 . S
C574 C577 1.348 . S
C574 H612 0.929 . S
N575 Li530 1.990 . S
N575 C572 1.314 . S
N575 C573 1.279 . S
C576 C573 1.358 . S
C576 C577 1.356 . S
C576 H613 0.930 . S
C577 C574 1.348 . S
C577 C576 1.356 . S
H578 C572 0.930 . S
H579 C573 0.930 . S
C580 N581 1.314 . S
C580 C582 1.353 . S
C580 H586 0.930 . S
N581 Li531 1.990 . S
N581 C580 1.314 . S
N581 C584 1.279 . S
C582 C580 1.353 . S
C582 C585 1.348 . S
C582 H614 0.929 . S
C583 C584 1.358 . S
C583 C585 1.356 . S
C583 H615 0.930 . S
C584 N581 1.279 . S
C584 C583 1.358 . S
C584 H587 0.930 . S
C585 C582 1.348 . S
C585 C583 1.356 . S
H586 C580 0.930 . S
H587 C584 0.930 . S
O588 Li528 1.956 . S
O588 Li529 1.970 . S
O588 Li530 1.961 . S
O588 C532 1.325 . S
O589 Li528 1.970 . S
O589 Li529 1.956 . S
O589 Li531 1.961 . S
O589 C538 1.325 . S
O590 Li528 1.961 . S
O590 Li530 1.956 . S
O590 Li531 1.970 . S
O590 C560 1.325 . S
O591 Li529 1.961 . S
O591 Li530 1.970 . S
O591 Li531 1.956 . S
O591 C566 1.325 . S
H592 C534 0.929 . S
H593 C535 0.930 . S
H594 C536 0.930 . S
H595 C537 0.930 . S
H596 C539 0.930 . S
H597 C541 0.929 . S
H598 C542 0.930 . S
H599 C543 0.930 . S
H600 C546 0.930 . S
H601 C549 0.929 . S
H602 C554 0.929 . S
H603 C555 0.930 . S
H604 C562 0.929 . S
H605 C563 0.930 . S
H606 C564 0.930 . S
H607 C565 0.930 . S
H608 C567 0.929 . S
H609 C568 0.930 . S
H610 C569 0.930 . S
H611 C570 0.930 . S
H612 C574 0.929 . S
H613 C576 0.930 . S
H614 C582 0.929 . S
H615 C583 0.930 . S
Li616 N633 1.990 . S
Li616 O676 1.956 1_455 S
Li616 O677 1.970 . S
Li616 O678 1.961 . S
Li617 N641 1.990 . S
Li617 O676 1.970 . S
Li617 O677 1.956 1_655 S
Li617 O679 1.961 1_655 S
Li618 N663 1.990 . S
Li618 O676 1.961 1_455 S
Li618 O678 1.956 . S
Li618 O679 1.970 . S
Li619 N669 1.990 . S
Li619 O677 1.961 . S
Li619 O678 1.970 . S
Li619 O679 1.956 . S
C620 C622 1.348 . S
C620 C623 1.356 . S
C620 O676 1.325 . S
N621 C624 1.314 . S
N621 C625 1.279 . S
C622 C620 1.348 . S
C622 C624 1.353 . S
C622 H680 0.929 . S
C623 C620 1.356 . S
C623 C625 1.358 . S
C623 H681 0.930 . S
C624 N621 1.314 . S
C624 C622 1.353 . S
C624 H682 0.930 . S
C625 N621 1.279 . S
C625 C623 1.358 . S
C625 H683 0.930 . S
C626 C629 1.348 . S
C626 C630 1.356 . S
C626 O677 1.325 . S
C627 N628 1.279 . S
C627 C630 1.358 . S
C627 H684 0.930 . S
N628 C627 1.279 . S
N628 C631 1.314 . S
C629 C626 1.348 . S
C629 C631 1.353 . S
C629 H685 0.929 . S
C630 C626 1.356 . S
C630 C627 1.358 . S
C630 H686 0.930 . S
C631 N628 1.314 . S
C631 C629 1.353 . S
C631 H687 0.930 . S
C632 N633 1.314 . S
C632 C637 1.353 . S
C632 H638 0.930 . S
N633 Li616 1.990 . S
N633 C632 1.314 . S
N633 C635 1.281 . S
C634 C635 1.358 . S
C634 C636 1.356 . S
C634 H688 0.930 1_455 S
C635 N633 1.281 . S
C635 C634 1.358 . S
C635 H639 0.928 1_455 S
C636 C634 1.356 . S
C636 C637 1.348 . S
C637 C632 1.353 . S
C637 C636 1.348 . S
C637 H689 0.929 . S
H638 C632 0.930 . S
H639 C635 0.928 1_655 S
C640 N641 1.314 . S
C640 C642 1.353 . S
C640 H646 0.930 . S
N641 Li617 1.990 . S
N641 C640 1.314 . S
N641 C644 1.279 . S
C642 C640 1.353 . S
C642 C645 1.348 . S
C642 H690 0.929 . S
C643 C644 1.358 . S
C643 C645 1.356 . S
C643 H691 0.930 . S
C644 N641 1.279 . S
C644 C643 1.358 . S
C644 H647 0.930 . S
C645 C642 1.348 . S
C645 C643 1.356 . S
H646 C640 0.930 . S
H647 C644 0.930 . S
C648 C650 1.348 . S
C648 C651 1.356 . S
C648 O678 1.325 . S
N649 C652 1.314 . S
N649 C653 1.279 . S
C650 C648 1.348 . S
C650 C652 1.353 . S
C650 H692 0.929 . S
C651 C648 1.356 . S
C651 C653 1.358 . S
C651 H693 0.930 . S
C652 N649 1.314 . S
C652 C650 1.353 . S
C652 H694 0.930 . S
C653 N649 1.279 . S
C653 C651 1.358 . S
C653 H695 0.930 . S
C654 C655 1.348 . S
C654 C656 1.351 1_455 S
C654 O679 1.325 . S
C655 C654 1.348 . S
C655 C657 1.353 . S
C655 H696 0.929 . S
C656 C654 1.351 1_655 S
C656 C658 1.354 . S
C656 H697 0.942 . S
C657 C655 1.353 . S
C657 N659 1.314 . S
C657 H698 0.930 . S
C658 C656 1.354 . S
C658 N659 1.279 1_655 S
C658 H699 0.930 . S
N659 C657 1.314 . S
N659 C658 1.279 1_455 S
C660 C662 1.353 . S
C660 N663 1.314 1_655 S
C660 H666 0.930 . S
C661 N663 1.279 . S
C661 C664 1.358 . S
C661 H667 0.930 . S
C662 C660 1.353 . S
C662 C665 1.348 1_655 S
C662 H700 0.929 . S
N663 Li618 1.990 . S
N663 C660 1.314 1_455 S
N663 C661 1.279 . S
C664 C661 1.358 . S
C664 C665 1.356 . S
C664 H701 0.930 . S
C665 C662 1.348 1_455 S
C665 C664 1.356 . S
H666 C660 0.930 . S
H667 C661 0.930 . S
C668 N669 1.314 . S
C668 C670 1.353 . S
C668 H674 0.930 . S
N669 Li619 1.990 . S
N669 C668 1.314 . S
N669 C672 1.279 . S
C670 C668 1.353 . S
C670 C673 1.348 . S
C670 H702 0.929 . S
C671 C672 1.358 . S
C671 C673 1.356 . S
C671 H703 0.930 . S
C672 N669 1.279 . S
C672 C671 1.358 . S
C672 H675 0.930 . S
C673 C670 1.348 . S
C673 C671 1.356 . S
H674 C668 0.930 . S
H675 C672 0.930 . S
O676 Li616 1.956 1_655 S
O676 Li617 1.970 . S
O676 Li618 1.961 1_655 S
O676 C620 1.325 . S
O677 Li616 1.970 . S
O677 Li617 1.956 1_455 S
O677 Li619 1.961 . S
O677 C626 1.325 . S
O678 Li616 1.961 . S
O678 Li618 1.956 . S
O678 Li619 1.970 . S
O678 C648 1.325 . S
O679 Li617 1.961 1_455 S
O679 Li618 1.970 . S
O679 Li619 1.956 . S
O679 C654 1.325 . S
H680 C622 0.929 . S
H681 C623 0.930 . S
H682 C624 0.930 . S
H683 C625 0.930 . S
H684 C627 0.930 . S
H685 C629 0.929 . S
H686 C630 0.930 . S
H687 C631 0.930 . S
H688 C634 0.930 1_655 S
H689 C637 0.929 . S
H690 C642 0.929 . S
H691 C643 0.930 . S
H692 C650 0.929 . S
H693 C651 0.930 . S
H694 C652 0.930 . S
H695 C653 0.930 . S
H696 C655 0.929 . S
H697 C656 0.942 . S
H698 C657 0.930 . S
H699 C658 0.930 . S
H700 C662 0.929 . S
H701 C664 0.930 . S
H702 C670 0.929 . S
H703 C671 0.930 . S
Li704 N721 1.990 . S
Li704 O764 1.956 . S
Li704 O765 1.970 . S
Li704 O766 1.961 . S
Li705 N729 1.990 1_545 S
Li705 O764 1.970 . S
Li705 O765 1.956 . S
Li705 O767 1.961 . S
Li706 N751 1.990 . S
Li706 O764 1.961 . S
Li706 O766 1.956 . S
Li706 O767 1.970 . S
Li707 N757 1.990 . S
Li707 O765 1.961 . S
Li707 O766 1.970 . S
Li707 O767 1.956 . S
C708 C710 1.348 1_545 S
C708 C711 1.356 . S
C708 O764 1.325 . S
N709 C712 1.314 . S
N709 C713 1.279 . S
C710 C708 1.348 1_565 S
C710 C712 1.353 . S
C710 H768 0.929 . S
C711 C708 1.356 . S
C711 C713 1.358 1_545 S
C711 H769 0.930 . S
C712 N709 1.314 . S
C712 C710 1.353 . S
C712 H770 0.930 . S
C713 N709 1.279 . S
C713 C711 1.358 1_565 S
C713 H771 0.934 . S
C714 C717 1.348 . S
C714 C718 1.356 . S
C714 O765 1.325 . S
C715 N716 1.279 . S
C715 C718 1.358 . S
C715 H772 0.930 . S
N716 C715 1.279 . S
N716 C719 1.314 . S
C717 C714 1.348 . S
C717 C719 1.353 . S
C717 H773 0.929 . S
C718 C714 1.356 . S
C718 C715 1.358 . S
C718 H774 0.930 . S
C719 N716 1.314 . S
C719 C717 1.353 . S
C719 H775 0.930 . S
C720 N721 1.314 . S
C720 C725 1.353 . S
C720 H726 0.930 . S
N721 Li704 1.990 . S
N721 C720 1.314 . S
N721 C723 1.279 . S
C722 C723 1.358 . S
C722 C724 1.356 . S
C722 H776 0.930 . S
C723 N721 1.279 . S
C723 C722 1.358 . S
C723 H727 0.930 . S
C724 C722 1.356 . S
C724 C725 1.348 . S
C725 C720 1.353 . S
C725 C724 1.348 . S
C725 H777 0.929 . S
H726 C720 0.930 . S
H727 C723 0.930 . S
C728 N729 1.314 . S
C728 C730 1.353 . S
C728 H734 0.930 . S
N729 Li705 1.990 1_565 S
N729 C728 1.314 . S
N729 C732 1.279 . S
C730 C728 1.353 . S
C730 C733 1.348 . S
C730 H778 0.929 . S
C731 C732 1.358 . S
C731 C733 1.356 . S
C731 H779 0.930 . S
C732 N729 1.279 . S
C732 C731 1.358 . S
C732 H735 0.930 . S
C733 C730 1.348 . S
C733 C731 1.356 . S
H734 C728 0.930 . S
H735 C732 0.930 . S
C736 C738 1.348 . S
C736 C739 1.356 . S
C736 O766 1.325 . S
N737 C740 1.314 . S
N737 C741 1.279 . S
C738 C736 1.348 . S
C738 C740 1.353 . S
C738 H780 0.929 . S
C739 C736 1.356 . S
C739 C741 1.358 . S
C739 H781 0.930 . S
C740 N737 1.314 . S
C740 C738 1.353 . S
C740 H782 0.930 . S
C741 N737 1.279 . S
C741 C739 1.358 . S
C741 H783 0.930 . S
C742 C743 1.348 . S
C742 C744 1.356 . S
C742 O767 1.325 . S
C743 C742 1.348 . S
C743 C745 1.353 . S
C743 H784 0.929 . S
C744 C742 1.356 . S
C744 C746 1.358 . S
C744 H785 0.930 . S
C745 C743 1.353 . S
C745 N747 1.314 . S
C745 H786 0.930 . S
C746 C744 1.358 . S
C746 N747 1.279 . S
C746 H787 0.930 . S
N747 C745 1.314 . S
N747 C746 1.279 . S
C748 C750 1.353 . S
C748 N751 1.314 . S
C748 H754 0.930 . S
C749 N751 1.279 . S
C749 C752 1.358 . S
C749 H755 0.930 . S
C750 C748 1.353 . S
C750 C753 1.348 . S
C750 H788 0.929 . S
N751 Li706 1.990 . S
N751 C748 1.314 . S
N751 C749 1.279 . S
C752 C749 1.358 . S
C752 C753 1.356 . S
C752 H789 0.930 . S
C753 C750 1.348 . S
C753 C752 1.356 . S
H754 C748 0.930 . S
H755 C749 0.930 . S
C756 N757 1.314 . S
C756 C758 1.353 . S
C756 H762 0.930 . S
N757 Li707 1.990 . S
N757 C756 1.314 . S
N757 C760 1.279 . S
C758 C756 1.353 . S
C758 C761 1.348 . S
C758 H790 0.929 . S
C759 C760 1.358 . S
C759 C761 1.356 . S
C759 H791 0.930 . S
C760 N757 1.279 . S
C760 C759 1.358 . S
C760 H763 0.930 . S
C761 C758 1.348 . S
C761 C759 1.356 . S
H762 C756 0.930 . S
H763 C760 0.930 . S
O764 Li704 1.956 . S
O764 Li705 1.970 . S
O764 Li706 1.961 . S
O764 C708 1.325 . S
O765 Li704 1.970 . S
O765 Li705 1.956 . S
O765 Li707 1.961 . S
O765 C714 1.325 . S
O766 Li704 1.961 . S
O766 Li706 1.956 . S
O766 Li707 1.970 . S
O766 C736 1.325 . S
O767 Li705 1.961 . S
O767 Li706 1.970 . S
O767 Li707 1.956 . S
O767 C742 1.325 . S
H768 C710 0.929 . S
H769 C711 0.930 . S
H770 C712 0.930 . S
H771 C713 0.934 . S
H772 C715 0.930 . S
H773 C717 0.929 . S
H774 C718 0.930 . S
H775 C719 0.930 . S
H776 C722 0.930 . S
H777 C725 0.929 . S
H778 C730 0.929 . S
H779 C731 0.930 . S
H780 C738 0.929 . S
H781 C739 0.930 . S
H782 C740 0.930 . S
H783 C741 0.930 . S
H784 C743 0.929 . S
H785 C744 0.930 . S
H786 C745 0.930 . S
H787 C746 0.930 . S
H788 C750 0.929 . S
H789 C752 0.930 . S
H790 C758 0.929 . S
H791 C759 0.930 . S
Li792 N809 1.990 . S
Li792 O852 1.956 . S
Li792 O853 1.970 . S
Li792 O854 1.961 . S
Li793 N817 1.990 . S
Li793 O852 1.970 . S
Li793 O853 1.956 . S
Li793 O855 1.961 . S
Li794 N839 1.990 . S
Li794 O852 1.961 . S
Li794 O854 1.956 . S
Li794 O855 1.970 . S
Li795 N845 1.990 . S
Li795 O853 1.961 . S
Li795 O854 1.970 . S
Li795 O855 1.956 . S
C796 C798 1.348 . S
C796 C799 1.356 . S
C796 O852 1.325 . S
N797 C800 1.314 . S
N797 C801 1.279 . S
C798 C796 1.348 . S
C798 C800 1.353 . S
C798 H856 0.929 . S
C799 C796 1.356 . S
C799 C801 1.358 . S
C799 H857 0.930 . S
C800 N797 1.314 . S
C800 C798 1.353 . S
C800 H858 0.930 . S
C801 N797 1.279 . S
C801 C799 1.358 . S
C801 H859 0.930 . S
C802 C805 1.348 . S
C802 C806 1.356 . S
C802 O853 1.325 . S
C803 N804 1.279 . S
C803 C806 1.358 . S
C803 H860 0.930 . S
N804 C803 1.279 . S
N804 C807 1.314 . S
C805 C802 1.348 . S
C805 C807 1.353 . S
C805 H861 0.929 . S
C806 C802 1.356 . S
C806 C803 1.358 . S
C806 H862 0.930 . S
C807 N804 1.314 . S
C807 C805 1.353 . S
C807 H863 0.930 . S
C808 N809 1.314 . S
C808 C813 1.353 . S
C808 H814 0.930 . S
N809 Li792 1.990 . S
N809 C808 1.314 . S
N809 C811 1.279 . S
C810 C811 1.358 . S
C810 C812 1.356 . S
C810 H864 0.930 . S
C811 N809 1.279 . S
C811 C810 1.358 . S
C811 H815 0.930 . S
C812 C810 1.356 . S
C812 C813 1.348 . S
C813 C808 1.353 . S
C813 C812 1.348 . S
C813 H865 0.929 . S
H814 C808 0.930 . S
H815 C811 0.930 . S
C816 N817 1.314 . S
C816 C818 1.353 . S
C816 H822 0.930 . S
N817 Li793 1.990 . S
N817 C816 1.314 . S
N817 C820 1.279 . S
C818 C816 1.353 . S
C818 C821 1.348 . S
C818 H866 0.929 . S
C819 C820 1.358 . S
C819 C821 1.356 . S
C819 H867 0.930 . S
C820 N817 1.279 . S
C820 C819 1.358 . S
C820 H823 0.930 . S
C821 C818 1.348 . S
C821 C819 1.356 . S
H822 C816 0.930 . S
H823 C820 0.930 . S
C824 C826 1.348 . S
C824 C827 1.356 . S
C824 O854 1.325 . S
N825 C828 1.314 . S
N825 C829 1.279 . S
C826 C824 1.348 . S
C826 C828 1.353 . S
C826 H868 0.929 . S
C827 C824 1.356 . S
C827 C829 1.358 . S
C827 H869 0.930 . S
C828 N825 1.314 . S
C828 C826 1.353 . S
C828 H870 0.930 . S
C829 N825 1.279 . S
C829 C827 1.358 . S
C829 H871 0.930 . S
C830 C831 1.348 . S
C830 C832 1.356 . S
C830 O855 1.325 . S
C831 C830 1.348 . S
C831 C833 1.353 . S
C831 H872 0.929 . S
C832 C830 1.356 . S
C832 C834 1.358 . S
C832 H873 0.930 . S
C833 C831 1.353 . S
C833 N835 1.314 . S
C833 H874 0.930 . S
C834 C832 1.358 . S
C834 N835 1.279 . S
C834 H875 0.930 . S
N835 C833 1.314 . S
N835 C834 1.279 . S
C836 C838 1.353 . S
C836 N839 1.314 . S
C836 H842 0.930 . S
C837 N839 1.279 . S
C837 C840 1.358 . S
C837 H843 0.930 . S
C838 C836 1.353 . S
C838 C841 1.348 . S
C838 H876 0.929 . S
N839 Li794 1.990 . S
N839 C836 1.314 . S
N839 C837 1.279 . S
C840 C837 1.358 . S
C840 C841 1.356 . S
C840 H877 0.930 . S
C841 C838 1.348 . S
C841 C840 1.356 . S
H842 C836 0.930 . S
H843 C837 0.930 . S
C844 N845 1.314 . S
C844 C846 1.353 . S
C844 H850 0.930 . S
N845 Li795 1.990 . S
N845 C844 1.314 . S
N845 C848 1.279 . S
C846 C844 1.353 . S
C846 C849 1.348 . S
C846 H878 0.929 . S
C847 C848 1.358 . S
C847 C849 1.356 . S
C847 H879 0.930 . S
C848 N845 1.279 . S
C848 C847 1.358 . S
C848 H851 0.930 . S
C849 C846 1.348 . S
C849 C847 1.356 . S
H850 C844 0.930 . S
H851 C848 0.930 . S
O852 Li792 1.956 . S
O852 Li793 1.970 . S
O852 Li794 1.961 . S
O852 C796 1.325 . S
O853 Li792 1.970 . S
O853 Li793 1.956 . S
O853 Li795 1.961 . S
O853 C802 1.325 . S
O854 Li792 1.961 . S
O854 Li794 1.956 . S
O854 Li795 1.970 . S
O854 C824 1.325 . S
O855 Li793 1.961 . S
O855 Li794 1.970 . S
O855 Li795 1.956 . S
O855 C830 1.325 . S
H856 C798 0.929 . S
H857 C799 0.930 . S
H858 C800 0.930 . S
H859 C801 0.930 . S
H860 C803 0.930 . S
H861 C805 0.929 . S
H862 C806 0.930 . S
H863 C807 0.930 . S
H864 C810 0.930 . S
H865 C813 0.929 . S
H866 C818 0.929 . S
H867 C819 0.930 . S
H868 C826 0.929 . S
H869 C827 0.930 . S
H870 C828 0.930 . S
H871 C829 0.930 . S
H872 C831 0.929 . S
H873 C832 0.930 . S
H874 C833 0.930 . S
H875 C834 0.930 . S
H876 C838 0.929 . S
H877 C840 0.930 . S
H878 C846 0.929 . S
H879 C847 0.930 . S
Li880 N897 1.990 . S
Li880 O940 1.956 . S
Li880 O941 1.970 . S
Li880 O942 1.961 . S
Li881 N905 1.992 . S
Li881 O940 1.971 1_565 S
Li881 O941 1.951 1_565 S
Li881 O943 1.966 . S
Li882 N927 1.990 . S
Li882 O940 1.961 1_565 S
Li882 O942 1.956 1_565 S
Li882 O943 1.970 . S
Li883 N933 1.990 . S
Li883 O941 1.961 1_565 S
Li883 O942 1.970 1_565 S
Li883 O943 1.956 . S
C884 C886 1.348 . S
C884 C887 1.356 . S
C884 O940 1.325 . S
N885 C888 1.314 . S
N885 C889 1.279 . S
C886 C884 1.348 . S
C886 C888 1.353 . S
C886 H944 0.929 . S
C887 C884 1.356 . S
C887 C889 1.358 . S
C887 H945 0.930 . S
C888 N885 1.314 . S
C888 C886 1.353 . S
C888 H946 0.930 . S
C889 N885 1.279 . S
C889 C887 1.358 . S
C889 H947 0.930 . S
C890 C893 1.348 . S
C890 C894 1.356 . S
C890 O941 1.325 . S
C891 N892 1.279 . S
C891 C894 1.358 . S
C891 H948 0.930 . S
N892 C891 1.279 . S
N892 C895 1.314 . S
C893 C890 1.348 . S
C893 C895 1.353 . S
C893 H949 0.929 . S
C894 C890 1.356 . S
C894 C891 1.358 . S
C894 H950 0.930 . S
C895 N892 1.314 . S
C895 C893 1.353 . S
C895 H951 0.930 . S
C896 N897 1.314 . S
C896 C901 1.353 . S
C896 H902 0.930 . S
N897 Li880 1.990 . S
N897 C896 1.314 . S
N897 C899 1.279 . S
C898 C899 1.358 . S
C898 C900 1.356 . S
C898 H952 0.930 . S
C899 N897 1.279 . S
C899 C898 1.358 . S
C899 H903 0.930 . S
C900 C898 1.356 . S
C900 C901 1.348 . S
C901 C896 1.353 . S
C901 C900 1.348 . S
C901 H953 0.929 . S
H902 C896 0.930 . S
H903 C899 0.930 . S
C904 N905 1.364 . S
C904 C906 1.353 . S
C904 H910 0.930 . S
N905 Li881 1.992 . S
N905 C904 1.364 . S
N905 C908 1.231 1_565 S
C906 C904 1.353 . S
C906 C909 1.348 . S
C906 H954 0.929 . S
C907 C908 1.358 . S
C907 C909 1.356 1_545 S
C907 H955 0.930 . S
C908 N905 1.231 1_545 S
C908 C907 1.358 . S
C908 H911 0.930 . S
C909 C906 1.348 . S
C909 C907 1.356 1_565 S
H910 C904 0.930 . S
H911 C908 0.930 . S
C912 C914 1.348 1_545 S
C912 C915 1.356 . S
C912 O942 1.325 . S
N913 C916 1.314 1_545 S
N913 C917 1.279 . S
C914 C912 1.348 1_565 S
C914 C916 1.353 . S
C914 H956 0.929 . S
C915 C912 1.356 . S
C915 C917 1.358 . S
C915 H957 0.930 . S
C916 N913 1.314 1_565 S
C916 C914 1.353 . S
C916 H958 0.930 . S
C917 N913 1.279 . S
C917 C915 1.358 . S
C917 H959 0.930 . S
C918 C919 1.348 . S
C918 C920 1.356 . S
C918 O943 1.325 . S
C919 C918 1.348 . S
C919 C921 1.353 . S
C919 H960 0.929 . S
C920 C918 1.356 . S
C920 C922 1.358 . S
C920 H961 0.930 . S
C921 C919 1.353 . S
C921 N923 1.314 . S
C921 H962 0.930 . S
C922 C920 1.358 . S
C922 N923 1.279 . S
C922 H963 0.930 . S
N923 C921 1.314 . S
N923 C922 1.279 . S
C924 C926 1.353 . S
C924 N927 1.314 . S
C924 H930 0.930 . S
C925 N927 1.279 . S
C925 C928 1.358 . S
C925 H931 0.930 . S
C926 C924 1.353 . S
C926 C929 1.348 . S
C926 H964 0.929 . S
N927 Li882 1.990 . S
N927 C924 1.314 . S
N927 C925 1.279 . S
C928 C925 1.358 . S
C928 C929 1.356 . S
C928 H965 0.930 . S
C929 C926 1.348 . S
C929 C928 1.356 . S
H930 C924 0.930 . S
H931 C925 0.930 . S
C932 N933 1.314 1_545 S
C932 C934 1.353 . S
C932 H938 0.930 . S
N933 Li883 1.990 . S
N933 C932 1.314 1_565 S
N933 C936 1.279 . S
C934 C932 1.353 . S
C934 C937 1.348 1_545 S
C934 H966 0.929 . S
C935 C936 1.358 . S
C935 C937 1.356 . S
C935 H967 0.930 . S
C936 N933 1.279 . S
C936 C935 1.358 . S
C936 H939 0.930 . S
C937 C934 1.348 1_565 S
C937 C935 1.356 . S
H938 C932 0.930 . S
H939 C936 0.930 . S
O940 Li880 1.956 . S
O940 Li881 1.971 1_545 S
O940 Li882 1.961 1_545 S
O940 C884 1.325 . S
O941 Li880 1.970 . S
O941 Li881 1.951 1_545 S
O941 Li883 1.961 1_545 S
O941 C890 1.325 . S
O942 Li880 1.961 . S
O942 Li882 1.956 1_545 S
O942 Li883 1.970 1_545 S
O942 C912 1.325 . S
O943 Li881 1.966 . S
O943 Li882 1.970 . S
O943 Li883 1.956 . S
O943 C918 1.325 . S
H944 C886 0.929 . S
H945 C887 0.930 . S
H946 C888 0.930 . S
H947 C889 0.930 . S
H948 C891 0.930 . S
H949 C893 0.929 . S
H950 C894 0.930 . S
H951 C895 0.930 . S
H952 C898 0.930 . S
H953 C901 0.929 . S
H954 C906 0.929 . S
H955 C907 0.930 . S
H956 C914 0.929 . S
H957 C915 0.930 . S
H958 C916 0.930 . S
H959 C917 0.930 . S
H960 C919 0.929 . S
H961 C920 0.930 . S
H962 C921 0.930 . S
H963 C922 0.930 . S
H964 C926 0.929 . S
H965 C928 0.930 . S
H966 C934 0.929 . S
H967 C935 0.930 . S
Li968 N985 1.990 . S
Li968 O1028 1.956 . S
Li968 O1029 1.970 . S
Li968 O1030 1.961 . S
Li969 N993 1.990 . S
Li969 O1028 1.970 . S
Li969 O1029 1.956 . S
Li969 O1031 1.961 . S
Li970 N1015 1.990 . S
Li970 O1028 1.961 . S
Li970 O1030 1.956 . S
Li970 O1031 1.970 . S
Li971 N1021 1.990 1_554 S
Li971 O1029 1.961 . S
Li971 O1030 1.970 . S
Li971 O1031 1.956 . S
C972 C974 1.348 . S
C972 C975 1.356 . S
C972 O1028 1.325 . S
N973 C976 1.314 . S
N973 C977 1.279 . S
C974 C972 1.348 . S
C974 C976 1.353 . S
C974 H1032 0.929 . S
C975 C972 1.356 . S
C975 C977 1.358 . S
C975 H1033 0.930 . S
C976 N973 1.314 . S
C976 C974 1.353 . S
C976 H1034 0.930 . S
C977 N973 1.279 . S
C977 C975 1.358 . S
C977 H1035 0.930 . S
C978 C981 1.348 . S
C978 C982 1.356 . S
C978 O1029 1.325 . S
C979 N980 1.279 . S
C979 C982 1.358 . S
C979 H1036 0.930 . S
N980 C979 1.279 . S
N980 C983 1.314 . S
C981 C978 1.348 . S
C981 C983 1.353 . S
C981 H1037 0.929 . S
C982 C978 1.356 . S
C982 C979 1.358 . S
C982 H1038 0.930 . S
C983 N980 1.314 . S
C983 C981 1.353 . S
C983 H1039 0.930 . S
C984 N985 1.314 . S
C984 C989 1.353 . S
C984 H990 0.963 . S
N985 Li968 1.990 . S
N985 C984 1.314 . S
N985 C987 1.279 . S
C986 C987 1.358 . S
C986 C988 1.356 . S
C986 H1040 0.930 . S
C987 N985 1.279 . S
C987 C986 1.358 . S
C987 H991 0.930 . S
C988 C986 1.356 . S
C988 C989 1.348 . S
C989 C984 1.353 . S
C989 C988 1.348 . S
C989 H1041 0.929 1_554 S
H990 C984 0.963 . S
H991 C987 0.930 . S
C992 N993 1.314 . S
C992 C994 1.353 . S
C992 H998 0.930 . S
N993 Li969 1.990 . S
N993 C992 1.314 . S
N993 C996 1.279 . S
C994 C992 1.353 . S
C994 C997 1.348 . S
C994 H1042 0.929 . S
C995 C996 1.358 . S
C995 C997 1.356 . S
C995 H1043 0.930 . S
C996 N993 1.279 . S
C996 C995 1.358 . S
C996 H999 0.930 . S
C997 C994 1.348 . S
C997 C995 1.356 . S
H998 C992 0.930 . S
H999 C996 0.930 . S
C1000 C1002 1.348 . S
C1000 C1003 1.356 . S
C1000 O1030 1.325 1_556 S
N1001 C1004 1.314 . S
N1001 C1005 1.279 . S
C1002 C1000 1.348 . S
C1002 C1004 1.353 . S
C1002 H1044 0.929 . S
C1003 C1000 1.356 . S
C1003 C1005 1.358 . S
C1003 H1045 0.930 1_556 S
C1004 N1001 1.314 . S
C1004 C1002 1.353 . S
C1004 H1046 0.930 . S
C1005 N1001 1.279 . S
C1005 C1003 1.358 . S
C1005 H1047 0.930 . S
C1006 C1007 1.348 . S
C1006 C1008 1.356 . S
C1006 O1031 1.325 . S
C1007 C1006 1.348 . S
C1007 C1009 1.353 . S
C1007 H1048 0.929 . S
C1008 C1006 1.356 . S
C1008 C1010 1.358 . S
C1008 H1049 0.930 . S
C1009 C1007 1.353 . S
C1009 N1011 1.314 . S
C1009 H1050 0.930 . S
C1010 C1008 1.358 . S
C1010 N1011 1.279 . S
C1010 H1051 0.930 . S
N1011 C1009 1.314 . S
N1011 C1010 1.279 . S
C1012 C1014 1.353 . S
C1012 N1015 1.314 . S
C1012 H1018 0.930 . S
C1013 N1015 1.279 . S
C1013 C1016 1.358 . S
C1013 H1019 0.930 . S
C1014 C1012 1.353 . S
C1014 C1017 1.348 . S
C1014 H1052 0.929 . S
N1015 Li970 1.990 . S
N1015 C1012 1.314 . S
N1015 C1013 1.279 . S
C1016 C1013 1.358 . S
C1016 C1017 1.356 . S
C1016 H1053 0.930 . S
C1017 C1014 1.348 . S
C1017 C1016 1.356 . S
H1018 C1012 0.930 . S
H1019 C1013 0.930 . S
C1020 N1021 1.314 . S
C1020 C1022 1.353 . S
C1020 H1026 0.930 . S
N1021 Li971 1.990 1_556 S
N1021 C1020 1.314 . S
N1021 C1024 1.279 . S
C1022 C1020 1.353 . S
C1022 C1025 1.348 . S
C1022 H1054 0.929 . S
C1023 C1024 1.358 . S
C1023 C1025 1.356 . S
C1023 H1055 0.930 . S
C1024 N1021 1.279 . S
C1024 C1023 1.358 . S
C1024 H1027 0.930 . S
C1025 C1022 1.348 . S
C1025 C1023 1.356 . S
H1026 C1020 0.930 . S
H1027 C1024 0.930 . S
O1028 Li968 1.956 . S
O1028 Li969 1.970 . S
O1028 Li970 1.961 . S
O1028 C972 1.325 . S
O1029 Li968 1.970 . S
O1029 Li969 1.956 . S
O1029 Li971 1.961 . S
O1029 C978 1.325 . S
O1030 Li968 1.961 . S
O1030 Li970 1.956 . S
O1030 Li971 1.970 . S
O1030 C1000 1.325 1_554 S
O1031 Li969 1.961 . S
O1031 Li970 1.970 . S
O1031 Li971 1.956 . S
O1031 C1006 1.325 . S
H1032 C974 0.929 . S
H1033 C975 0.930 . S
H1034 C976 0.930 . S
H1035 C977 0.930 . S
H1036 C979 0.930 . S
H1037 C981 0.929 . S
H1038 C982 0.930 . S
H1039 C983 0.930 . S
H1040 C986 0.930 . S
H1041 C989 0.929 1_556 S
H1042 C994 0.929 . S
H1043 C995 0.930 . S
H1044 C1002 0.929 . S
H1045 C1003 0.930 1_554 S
H1046 C1004 0.930 . S
H1047 C1005 0.930 . S
H1048 C1007 0.929 . S
H1049 C1008 0.930 . S
H1050 C1009 0.930 . S
H1051 C1010 0.930 . S
H1052 C1014 0.929 . S
H1053 C1016 0.930 . S
H1054 C1022 0.929 . S
H1055 C1023 0.930 . S
Li1056 N1073 1.990 . S
Li1056 O1116 1.956 . S
Li1056 O1117 1.970 . S
Li1056 O1118 1.961 . S
Li1057 N1081 1.990 . S
Li1057 O1116 1.970 . S
Li1057 O1117 1.956 . S
Li1057 O1119 1.961 . S
Li1058 N1103 1.990 . S
Li1058 O1116 1.961 . S
Li1058 O1118 1.956 . S
Li1058 O1119 1.970 . S
Li1059 N1109 1.990 1_554 S
Li1059 O1117 1.961 . S
Li1059 O1118 1.970 . S
Li1059 O1119 1.956 . S
C1060 C1062 1.348 . S
C1060 C1063 1.356 . S
C1060 O1116 1.325 . S
N1061 C1064 1.314 . S
N1061 C1065 1.279 . S
C1062 C1060 1.348 . S
C1062 C1064 1.353 . S
C1062 H1120 0.929 . S
C1063 C1060 1.356 . S
C1063 C1065 1.358 . S
C1063 H1121 0.930 . S
C1064 N1061 1.314 . S
C1064 C1062 1.353 . S
C1064 H1122 0.930 . S
C1065 N1061 1.279 . S
C1065 C1063 1.358 . S
C1065 H1123 0.930 . S
C1066 C1069 1.348 . S
C1066 C1070 1.356 . S
C1066 O1117 1.325 . S
C1067 N1068 1.279 . S
C1067 C1070 1.358 . S
C1067 H1124 0.930 . S
N1068 C1067 1.279 . S
N1068 C1071 1.314 . S
C1069 C1066 1.348 . S
C1069 C1071 1.353 . S
C1069 H1125 0.929 . S
C1070 C1066 1.356 . S
C1070 C1067 1.358 . S
C1070 H1126 0.930 . S
C1071 N1068 1.314 . S
C1071 C1069 1.353 . S
C1071 H1127 0.930 . S
C1072 N1073 1.314 . S
C1072 C1077 1.353 . S
C1072 H1078 0.930 1_554 S
N1073 Li1056 1.990 . S
N1073 C1072 1.314 . S
N1073 C1075 1.279 . S
C1074 C1075 1.358 . S
C1074 C1076 1.356 . S
C1074 H1128 0.930 . S
C1075 N1073 1.279 . S
C1075 C1074 1.358 . S
C1075 H1079 0.930 . S
C1076 C1074 1.356 . S
C1076 C1077 1.348 . S
C1077 C1072 1.353 . S
C1077 C1076 1.348 . S
C1077 H1129 0.929 1_554 S
H1078 C1072 0.930 1_556 S
H1079 C1075 0.930 . S
C1080 N1081 1.314 . S
C1080 C1082 1.353 . S
C1080 H1086 0.930 . S
N1081 Li1057 1.990 . S
N1081 C1080 1.314 . S
N1081 C1084 1.279 . S
C1082 C1080 1.353 . S
C1082 C1085 1.348 . S
C1082 H1130 0.929 . S
C1083 C1084 1.358 . S
C1083 C1085 1.356 . S
C1083 H1131 0.930 . S
C1084 N1081 1.279 . S
C1084 C1083 1.358 . S
C1084 H1087 0.930 . S
C1085 C1082 1.348 . S
C1085 C1083 1.356 . S
H1086 C1080 0.930 . S
H1087 C1084 0.930 . S
C1088 C1090 1.348 . S
C1088 C1091 1.356 . S
C1088 O1118 1.325 1_556 S
N1089 C1092 1.314 . S
N1089 C1093 1.279 . S
C1090 C1088 1.348 . S
C1090 C1092 1.353 . S
C1090 H1132 0.929 . S
C1091 C1088 1.356 . S
C1091 C1093 1.358 . S
C1091 H1133 0.930 1_556 S
C1092 N1089 1.314 . S
C1092 C1090 1.353 . S
C1092 H1134 0.930 . S
C1093 N1089 1.279 . S
C1093 C1091 1.358 . S
C1093 H1135 0.930 . S
C1094 C1095 1.348 . S
C1094 C1096 1.356 . S
C1094 O1119 1.325 . S
C1095 C1094 1.348 . S
C1095 C1097 1.353 . S
C1095 H1136 0.929 . S
C1096 C1094 1.356 . S
C1096 C1098 1.358 . S
C1096 H1137 0.930 . S
C1097 C1095 1.353 . S
C1097 N1099 1.314 . S
C1097 H1138 0.930 . S
C1098 C1096 1.358 . S
C1098 N1099 1.279 . S
C1098 H1139 0.930 . S
N1099 C1097 1.314 . S
N1099 C1098 1.279 . S
C1100 C1102 1.353 . S
C1100 N1103 1.314 . S
C1100 H1106 0.930 . S
C1101 N1103 1.279 . S
C1101 C1104 1.358 . S
C1101 H1107 0.912 1_554 S
C1102 C1100 1.353 . S
C1102 C1105 1.348 . S
C1102 H1140 0.929 . S
N1103 Li1058 1.990 . S
N1103 C1100 1.314 . S
N1103 C1101 1.279 . S
C1104 C1101 1.358 . S
C1104 C1105 1.356 . S
C1104 H1141 0.930 . S
C1105 C1102 1.348 . S
C1105 C1104 1.356 . S
H1106 C1100 0.930 . S
H1107 C1101 0.912 1_556 S
C1108 N1109 1.314 . S
C1108 C1110 1.353 . S
C1108 H1114 0.930 . S
N1109 Li1059 1.990 1_556 S
N1109 C1108 1.314 . S
N1109 C1112 1.279 . S
C1110 C1108 1.353 . S
C1110 C1113 1.348 . S
C1110 H1142 0.929 . S
C1111 C1112 1.358 . S
C1111 C1113 1.356 . S
C1111 H1143 0.930 . S
C1112 N1109 1.279 . S
C1112 C1111 1.358 . S
C1112 H1115 0.930 . S
C1113 C1110 1.348 . S
C1113 C1111 1.356 . S
H1114 C1108 0.930 . S
H1115 C1112 0.930 . S
O1116 Li1056 1.956 . S
O1116 Li1057 1.970 . S
O1116 Li1058 1.961 . S
O1116 C1060 1.325 . S
O1117 Li1056 1.970 . S
O1117 Li1057 1.956 . S
O1117 Li1059 1.961 . S
O1117 C1066 1.325 . S
O1118 Li1056 1.961 . S
O1118 Li1058 1.956 . S
O1118 Li1059 1.970 . S
O1118 C1088 1.325 1_554 S
O1119 Li1057 1.961 . S
O1119 Li1058 1.970 . S
O1119 Li1059 1.956 . S
O1119 C1094 1.325 . S
H1120 C1062 0.929 . S
H1121 C1063 0.930 . S
H1122 C1064 0.930 . S
H1123 C1065 0.930 . S
H1124 C1067 0.930 . S
H1125 C1069 0.929 . S
H1126 C1070 0.930 . S
H1127 C1071 0.930 . S
H1128 C1074 0.930 . S
H1129 C1077 0.929 1_556 S
H1130 C1082 0.929 . S
H1131 C1083 0.930 . S
H1132 C1090 0.929 . S
H1133 C1091 0.930 1_554 S
H1134 C1092 0.930 . S
H1135 C1093 0.930 . S
H1136 C1095 0.929 . S
H1137 C1096 0.930 . S
H1138 C1097 0.930 . S
H1139 C1098 0.930 . S
H1140 C1102 0.929 . S
H1141 C1104 0.930 . S
H1142 C1110 0.929 . S
H1143 C1111 0.930 . S
Li1144 N1161 1.990 . S
Li1144 O1204 1.956 . S
Li1144 O1205 1.970 . S
Li1144 O1206 1.966 . S
Li1145 N1169 1.990 . S
Li1145 O1204 1.967 . S
Li1145 O1205 2.001 . S
Li1145 O1207 1.918 1_554 S
Li1146 N1191 1.990 . S
Li1146 O1204 1.961 1_556 S
Li1146 O1206 1.950 1_556 S
Li1146 O1207 1.970 . S
Li1147 N1197 1.990 . S
Li1147 O1205 1.961 1_556 S
Li1147 O1206 1.970 1_556 S
Li1147 O1207 1.956 . S
C1148 C1150 1.348 . S
C1148 C1151 1.363 . S
C1148 O1204 1.325 . S
N1149 C1152 1.314 . S
N1149 C1153 1.279 . S
C1150 C1148 1.348 . S
C1150 C1152 1.353 . S
C1150 H1208 0.929 . S
C1151 C1148 1.363 . S
C1151 C1153 1.358 . S
C1151 H1209 0.924 1_554 S
C1152 N1149 1.314 . S
C1152 C1150 1.353 . S
C1152 H1210 0.930 . S
C1153 N1149 1.279 . S
C1153 C1151 1.358 . S
C1153 H1211 0.929 1_554 S
C1154 C1157 1.348 . S
C1154 C1158 1.356 . S
C1154 O1205 1.325 . S
C1155 N1156 1.279 . S
C1155 C1158 1.358 . S
C1155 H1212 0.930 . S
N1156 C1155 1.279 . S
N1156 C1159 1.314 . S
C1157 C1154 1.348 . S
C1157 C1159 1.353 . S
C1157 H1213 0.929 . S
C1158 C1154 1.356 . S
C1158 C1155 1.358 . S
C1158 H1214 0.930 . S
C1159 N1156 1.314 . S
C1159 C1157 1.353 . S
C1159 H1215 0.930 . S
C1160 N1161 1.314 . S
C1160 C1165 1.353 . S
C1160 H1166 0.930 . S
N1161 Li1144 1.990 . S
N1161 C1160 1.314 . S
N1161 C1163 1.279 . S
C1162 C1163 1.358 . S
C1162 C1164 1.356 . S
C1162 H1216 0.930 . S
C1163 N1161 1.279 . S
C1163 C1162 1.358 . S
C1163 H1167 0.930 . S
C1164 C1162 1.356 . S
C1164 C1165 1.348 . S
C1165 C1160 1.353 . S
C1165 C1164 1.348 . S
C1165 H1217 0.929 . S
H1166 C1160 0.930 . S
H1167 C1163 0.930 . S
C1168 N1169 1.314 1_556 S
C1168 C1170 1.353 . S
C1168 H1174 0.930 . S
N1169 Li1145 1.990 . S
N1169 C1168 1.314 1_554 S
N1169 C1172 1.279 . S
C1170 C1168 1.353 . S
C1170 C1173 1.348 1_556 S
C1170 H1218 0.929 . S
C1171 C1172 1.358 . S
C1171 C1173 1.356 . S
C1171 H1219 0.930 . S
C1172 N1169 1.279 . S
C1172 C1171 1.358 . S
C1172 H1175 0.930 . S
C1173 C1170 1.348 1_554 S
C1173 C1171 1.356 . S
H1174 C1168 0.930 . S
H1175 C1172 0.930 . S
C1176 C1178 1.355 . S
C1176 C1179 1.352 1_556 S
C1176 O1206 1.325 1_556 S
N1177 C1180 1.314 . S
N1177 C1181 1.279 1_556 S
C1178 C1176 1.355 . S
C1178 C1180 1.353 . S
C1178 H1220 0.929 . S
C1179 C1176 1.352 1_554 S
C1179 C1181 1.358 . S
C1179 H1221 0.930 . S
C1180 N1177 1.314 . S
C1180 C1178 1.353 . S
C1180 H1222 0.930 . S
C1181 N1177 1.279 1_554 S
C1181 C1179 1.358 . S
C1181 H1223 0.930 . S
C1182 C1183 1.348 . S
C1182 C1184 1.356 . S
C1182 O1207 1.325 . S
C1183 C1182 1.348 . S
C1183 C1185 1.353 . S
C1183 H1224 0.929 . S
C1184 C1182 1.356 . S
C1184 C1186 1.358 . S
C1184 H1225 0.930 . S
C1185 C1183 1.353 . S
C1185 N1187 1.314 . S
C1185 H1226 0.930 . S
C1186 C1184 1.358 . S
C1186 N1187 1.279 . S
C1186 H1227 0.930 . S
N1187 C1185 1.314 . S
N1187 C1186 1.279 . S
C1188 C1190 1.353 . S
C1188 N1191 1.314 . S
C1188 H1194 0.930 . S
C1189 N1191 1.279 . S
C1189 C1192 1.358 . S
C1189 H1195 0.930 . S
C1190 C1188 1.353 . S
C1190 C1193 1.348 . S
C1190 H1228 0.929 . S
N1191 Li1146 1.990 . S
N1191 C1188 1.314 . S
N1191 C1189 1.279 . S
C1192 C1189 1.358 . S
C1192 C1193 1.356 . S
C1192 H1229 0.930 . S
C1193 C1190 1.348 . S
C1193 C1192 1.356 . S
H1194 C1188 0.930 . S
H1195 C1189 0.930 . S
C1196 N1197 1.314 1_554 S
C1196 C1198 1.353 . S
C1196 H1202 0.930 . S
N1197 Li1147 1.990 . S
N1197 C1196 1.314 1_556 S
N1197 C1200 1.279 . S
C1198 C1196 1.353 . S
C1198 C1201 1.348 1_554 S
C1198 H1230 0.929 . S
C1199 C1200 1.358 . S
C1199 C1201 1.356 . S
C1199 H1231 0.930 . S
C1200 N1197 1.279 . S
C1200 C1199 1.358 . S
C1200 H1203 0.930 . S
C1201 C1198 1.348 1_556 S
C1201 C1199 1.356 . S
H1202 C1196 0.930 . S
H1203 C1200 0.930 . S
O1204 Li1144 1.956 . S
O1204 Li1145 1.967 . S
O1204 Li1146 1.961 1_554 S
O1204 C1148 1.325 . S
O1205 Li1144 1.970 . S
O1205 Li1145 2.001 . S
O1205 Li1147 1.961 1_554 S
O1205 C1154 1.325 . S
O1206 Li1144 1.966 . S
O1206 Li1146 1.950 1_554 S
O1206 Li1147 1.970 1_554 S
O1206 C1176 1.325 1_554 S
O1207 Li1145 1.918 1_556 S
O1207 Li1146 1.970 . S
O1207 Li1147 1.956 . S
O1207 C1182 1.325 . S
H1208 C1150 0.929 . S
H1209 C1151 0.924 1_556 S
H1210 C1152 0.930 . S
H1211 C1153 0.929 1_556 S
H1212 C1155 0.930 . S
H1213 C1157 0.929 . S
H1214 C1158 0.930 . S
H1215 C1159 0.930 . S
H1216 C1162 0.930 . S
H1217 C1165 0.929 . S
H1218 C1170 0.929 . S
H1219 C1171 0.930 . S
H1220 C1178 0.929 . S
H1221 C1179 0.930 . S
H1222 C1180 0.930 . S
H1223 C1181 0.930 . S
H1224 C1183 0.929 . S
H1225 C1184 0.930 . S
H1226 C1185 0.930 . S
H1227 C1186 0.930 . S
H1228 C1190 0.929 . S
H1229 C1192 0.930 . S
H1230 C1198 0.929 . S
H1231 C1199 0.930 . S
Li1232 N1249 1.990 . S
Li1232 O1292 1.956 . S
Li1232 O1293 1.970 . S
Li1232 O1294 1.961 . S
Li1233 N1257 1.990 . S
Li1233 O1292 1.970 . S
Li1233 O1293 1.956 . S
Li1233 O1295 1.961 . S
Li1234 N1279 1.990 . S
Li1234 O1292 1.961 . S
Li1234 O1294 1.956 . S
Li1234 O1295 1.970 . S
Li1235 N1285 1.990 . S
Li1235 O1293 1.961 . S
Li1235 O1294 1.970 . S
Li1235 O1295 1.956 . S
C1236 C1238 1.348 . S
C1236 C1239 1.356 . S
C1236 O1292 1.325 . S
N1237 C1240 1.314 . S
N1237 C1241 1.279 . S
C1238 C1236 1.348 . S
C1238 C1240 1.353 . S
C1238 H1296 0.929 . S
C1239 C1236 1.356 . S
C1239 C1241 1.358 . S
C1239 H1297 0.930 . S
C1240 N1237 1.314 . S
C1240 C1238 1.353 . S
C1240 H1298 0.930 . S
C1241 N1237 1.279 . S
C1241 C1239 1.358 . S
C1241 H1299 0.930 . S
C1242 C1245 1.348 . S
C1242 C1246 1.356 . S
C1242 O1293 1.325 . S
C1243 N1244 1.279 . S
C1243 C1246 1.358 . S
C1243 H1300 0.930 . S
N1244 C1243 1.279 . S
N1244 C1247 1.314 . S
C1245 C1242 1.348 . S
C1245 C1247 1.353 . S
C1245 H1301 0.929 . S
C1246 C1242 1.356 . S
C1246 C1243 1.358 . S
C1246 H1302 0.930 . S
C1247 N1244 1.314 . S
C1247 C1245 1.353 . S
C1247 H1303 0.930 . S
C1248 N1249 1.314 . S
C1248 C1253 1.353 . S
C1248 H1254 0.930 . S
N1249 Li1232 1.990 . S
N1249 C1248 1.314 . S
N1249 C1251 1.279 . S
C1250 C1251 1.358 . S
C1250 C1252 1.356 . S
C1250 H1304 0.930 . S
C1251 N1249 1.279 . S
C1251 C1250 1.358 . S
C1251 H1255 0.930 . S
C1252 C1250 1.356 . S
C1252 C1253 1.348 . S
C1253 C1248 1.353 . S
C1253 C1252 1.348 . S
C1253 H1305 0.929 . S
H1254 C1248 0.930 . S
H1255 C1251 0.930 . S
C1256 N1257 1.314 . S
C1256 C1258 1.353 . S
C1256 H1262 0.930 . S
N1257 Li1233 1.990 . S
N1257 C1256 1.314 . S
N1257 C1260 1.279 . S
C1258 C1256 1.353 . S
C1258 C1261 1.348 . S
C1258 H1306 0.929 . S
C1259 C1260 1.358 . S
C1259 C1261 1.356 . S
C1259 H1307 0.930 . S
C1260 N1257 1.279 . S
C1260 C1259 1.358 . S
C1260 H1263 0.930 . S
C1261 C1258 1.348 . S
C1261 C1259 1.356 . S
H1262 C1256 0.930 . S
H1263 C1260 0.930 . S
C1264 C1266 1.348 . S
C1264 C1267 1.356 . S
C1264 O1294 1.325 . S
N1265 C1268 1.314 . S
N1265 C1269 1.279 . S
C1266 C1264 1.348 . S
C1266 C1268 1.353 . S
C1266 H1308 0.929 . S
C1267 C1264 1.356 . S
C1267 C1269 1.358 . S
C1267 H1309 0.930 . S
C1268 N1265 1.314 . S
C1268 C1266 1.353 . S
C1268 H1310 0.930 . S
C1269 N1265 1.279 . S
C1269 C1267 1.358 . S
C1269 H1311 0.930 . S
C1270 C1271 1.348 . S
C1270 C1272 1.356 . S
C1270 O1295 1.325 . S
C1271 C1270 1.348 . S
C1271 C1273 1.353 . S
C1271 H1312 0.929 . S
C1272 C1270 1.356 . S
C1272 C1274 1.358 . S
C1272 H1313 0.930 . S
C1273 C1271 1.353 . S
C1273 N1275 1.314 . S
C1273 H1314 0.930 . S
C1274 C1272 1.358 . S
C1274 N1275 1.279 . S
C1274 H1315 0.930 . S
N1275 C1273 1.314 . S
N1275 C1274 1.279 . S
C1276 C1278 1.353 . S
C1276 N1279 1.314 . S
C1276 H1282 0.930 . S
C1277 N1279 1.279 . S
C1277 C1280 1.358 . S
C1277 H1283 0.930 . S
C1278 C1276 1.353 . S
C1278 C1281 1.348 . S
C1278 H1316 0.929 . S
N1279 Li1234 1.990 . S
N1279 C1276 1.314 . S
N1279 C1277 1.279 . S
C1280 C1277 1.358 . S
C1280 C1281 1.356 . S
C1280 H1317 0.930 . S
C1281 C1278 1.348 . S
C1281 C1280 1.356 . S
H1282 C1276 0.930 . S
H1283 C1277 0.930 . S
C1284 N1285 1.314 . S
C1284 C1286 1.353 . S
C1284 H1290 0.930 . S
N1285 Li1235 1.990 . S
N1285 C1284 1.314 . S
N1285 C1288 1.279 . S
C1286 C1284 1.353 . S
C1286 C1289 1.348 . S
C1286 H1318 0.929 . S
C1287 C1288 1.358 . S
C1287 C1289 1.356 . S
C1287 H1319 0.930 . S
C1288 N1285 1.279 . S
C1288 C1287 1.358 . S
C1288 H1291 0.930 . S
C1289 C1286 1.348 . S
C1289 C1287 1.356 . S
H1290 C1284 0.930 . S
H1291 C1288 0.930 . S
O1292 Li1232 1.956 . S
O1292 Li1233 1.970 . S
O1292 Li1234 1.961 . S
O1292 C1236 1.325 . S
O1293 Li1232 1.970 . S
O1293 Li1233 1.956 . S
O1293 Li1235 1.961 . S
O1293 C1242 1.325 . S
O1294 Li1232 1.961 . S
O1294 Li1234 1.956 . S
O1294 Li1235 1.970 . S
O1294 C1264 1.325 . S
O1295 Li1233 1.961 . S
O1295 Li1234 1.970 . S
O1295 Li1235 1.956 . S
O1295 C1270 1.325 . S
H1296 C1238 0.929 . S
H1297 C1239 0.930 . S
H1298 C1240 0.930 . S
H1299 C1241 0.930 . S
H1300 C1243 0.930 . S
H1301 C1245 0.929 . S
H1302 C1246 0.930 . S
H1303 C1247 0.930 . S
H1304 C1250 0.930 . S
H1305 C1253 0.929 . S
H1306 C1258 0.929 . S
H1307 C1259 0.930 . S
H1308 C1266 0.929 . S
H1309 C1267 0.930 . S
H1310 C1268 0.930 . S
H1311 C1269 0.930 . S
H1312 C1271 0.929 . S
H1313 C1272 0.930 . S
H1314 C1273 0.930 . S
H1315 C1274 0.930 . S
H1316 C1278 0.929 . S
H1317 C1280 0.930 . S
H1318 C1286 0.929 . S
H1319 C1287 0.930 . S
Li1320 N1337 1.990 . S
Li1320 O1380 1.956 . S
Li1320 O1381 1.970 . S
Li1320 O1382 1.961 . S
Li1321 N1345 1.990 . S
Li1321 O1380 1.970 . S
Li1321 O1381 1.956 . S
Li1321 O1383 1.961 . S
Li1322 N1367 1.990 . S
Li1322 O1380 1.961 . S
Li1322 O1382 1.956 . S
Li1322 O1383 1.970 . S
Li1323 N1373 1.990 . S
Li1323 O1381 1.961 . S
Li1323 O1382 1.970 . S
Li1323 O1383 1.956 . S
C1324 C1326 1.348 . S
C1324 C1327 1.356 . S
C1324 O1380 1.325 . S
N1325 C1328 1.314 . S
N1325 C1329 1.279 . S
C1326 C1324 1.348 . S
C1326 C1328 1.353 . S
C1326 H1384 0.929 . S
C1327 C1324 1.356 . S
C1327 C1329 1.358 . S
C1327 H1385 0.930 . S
C1328 N1325 1.314 . S
C1328 C1326 1.353 . S
C1328 H1386 0.930 . S
C1329 N1325 1.279 . S
C1329 C1327 1.358 . S
C1329 H1387 0.930 . S
C1330 C1333 1.348 . S
C1330 C1334 1.356 . S
C1330 O1381 1.325 . S
C1331 N1332 1.279 . S
C1331 C1334 1.358 . S
C1331 H1388 0.930 . S
N1332 C1331 1.279 . S
N1332 C1335 1.314 . S
C1333 C1330 1.348 . S
C1333 C1335 1.353 . S
C1333 H1389 0.929 . S
C1334 C1330 1.356 . S
C1334 C1331 1.358 . S
C1334 H1390 0.930 . S
C1335 N1332 1.314 . S
C1335 C1333 1.353 . S
C1335 H1391 0.930 . S
C1336 N1337 1.314 . S
C1336 C1341 1.353 . S
C1336 H1342 0.930 . S
N1337 Li1320 1.990 . S
N1337 C1336 1.314 . S
N1337 C1339 1.279 . S
C1338 C1339 1.358 . S
C1338 C1340 1.356 . S
C1338 H1392 0.930 . S
C1339 N1337 1.279 . S
C1339 C1338 1.358 . S
C1339 H1343 0.930 . S
C1340 C1338 1.356 . S
C1340 C1341 1.348 . S
C1341 C1336 1.353 . S
C1341 C1340 1.348 . S
C1341 H1393 0.929 . S
H1342 C1336 0.930 . S
H1343 C1339 0.930 . S
C1344 N1345 1.314 . S
C1344 C1346 1.353 . S
C1344 H1350 0.930 . S
N1345 Li1321 1.990 . S
N1345 C1344 1.314 . S
N1345 C1348 1.279 . S
C1346 C1344 1.353 . S
C1346 C1349 1.348 . S
C1346 H1394 0.929 . S
C1347 C1348 1.358 . S
C1347 C1349 1.356 . S
C1347 H1395 0.930 . S
C1348 N1345 1.279 . S
C1348 C1347 1.358 . S
C1348 H1351 0.930 . S
C1349 C1346 1.348 . S
C1349 C1347 1.356 . S
H1350 C1344 0.930 . S
H1351 C1348 0.930 . S
C1352 C1354 1.348 . S
C1352 C1355 1.356 . S
C1352 O1382 1.325 . S
N1353 C1356 1.314 . S
N1353 C1357 1.279 . S
C1354 C1352 1.348 . S
C1354 C1356 1.353 . S
C1354 H1396 0.929 . S
C1355 C1352 1.356 . S
C1355 C1357 1.358 . S
C1355 H1397 0.930 . S
C1356 N1353 1.314 . S
C1356 C1354 1.353 . S
C1356 H1398 0.930 . S
C1357 N1353 1.279 . S
C1357 C1355 1.358 . S
C1357 H1399 0.930 . S
C1358 C1359 1.348 . S
C1358 C1360 1.356 . S
C1358 O1383 1.325 . S
C1359 C1358 1.348 . S
C1359 C1361 1.353 . S
C1359 H1400 0.929 . S
C1360 C1358 1.356 . S
C1360 C1362 1.358 . S
C1360 H1401 0.930 . S
C1361 C1359 1.353 . S
C1361 N1363 1.314 . S
C1361 H1402 0.930 . S
C1362 C1360 1.358 . S
C1362 N1363 1.279 . S
C1362 H1403 0.930 . S
N1363 C1361 1.314 . S
N1363 C1362 1.279 . S
C1364 C1366 1.353 . S
C1364 N1367 1.314 . S
C1364 H1370 0.930 . S
C1365 N1367 1.279 . S
C1365 C1368 1.358 . S
C1365 H1371 0.930 . S
C1366 C1364 1.353 . S
C1366 C1369 1.348 . S
C1366 H1404 0.929 . S
N1367 Li1322 1.990 . S
N1367 C1364 1.314 . S
N1367 C1365 1.279 . S
C1368 C1365 1.358 . S
C1368 C1369 1.356 . S
C1368 H1405 0.930 . S
C1369 C1366 1.348 . S
C1369 C1368 1.356 . S
H1370 C1364 0.930 . S
H1371 C1365 0.930 . S
C1372 N1373 1.314 . S
C1372 C1374 1.353 . S
C1372 H1378 0.930 . S
N1373 Li1323 1.990 . S
N1373 C1372 1.314 . S
N1373 C1376 1.279 . S
C1374 C1372 1.353 . S
C1374 C1377 1.348 . S
C1374 H1406 0.929 . S
C1375 C1376 1.358 . S
C1375 C1377 1.356 . S
C1375 H1407 0.930 . S
C1376 N1373 1.279 . S
C1376 C1375 1.358 . S
C1376 H1379 0.930 . S
C1377 C1374 1.348 . S
C1377 C1375 1.356 . S
H1378 C1372 0.930 . S
H1379 C1376 0.930 . S
O1380 Li1320 1.956 . S
O1380 Li1321 1.970 . S
O1380 Li1322 1.961 . S
O1380 C1324 1.325 . S
O1381 Li1320 1.970 . S
O1381 Li1321 1.956 . S
O1381 Li1323 1.961 . S
O1381 C1330 1.325 . S
O1382 Li1320 1.961 . S
O1382 Li1322 1.956 . S
O1382 Li1323 1.970 . S
O1382 C1352 1.325 . S
O1383 Li1321 1.961 . S
O1383 Li1322 1.970 . S
O1383 Li1323 1.956 . S
O1383 C1358 1.325 . S
H1384 C1326 0.929 . S
H1385 C1327 0.930 . S
H1386 C1328 0.930 . S
H1387 C1329 0.930 . S
H1388 C1331 0.930 . S
H1389 C1333 0.929 . S
H1390 C1334 0.930 . S
H1391 C1335 0.930 . S
H1392 C1338 0.930 . S
H1393 C1341 0.929 . S
H1394 C1346 0.929 . S
H1395 C1347 0.930 . S
H1396 C1354 0.929 . S
H1397 C1355 0.930 . S
H1398 C1356 0.930 . S
H1399 C1357 0.930 . S
H1400 C1359 0.929 . S
H1401 C1360 0.930 . S
H1402 C1361 0.930 . S
H1403 C1362 0.930 . S
H1404 C1366 0.929 . S
H1405 C1368 0.930 . S
H1406 C1374 0.929 . S
H1407 C1375 0.930 . S
Li1408 N1425 1.990 . S
Li1408 O1468 1.956 . S
Li1408 O1469 1.970 . S
Li1408 O1470 1.961 . S
Li1409 N1433 1.990 . S
Li1409 O1468 1.970 . S
Li1409 O1469 1.956 . S
Li1409 O1471 1.961 . S
Li1410 N1455 1.990 . S
Li1410 O1468 1.961 . S
Li1410 O1470 1.956 . S
Li1410 O1471 1.970 . S
Li1411 N1461 1.990 . S
Li1411 O1469 1.961 . S
Li1411 O1470 1.970 . S
Li1411 O1471 1.956 . S
C1412 C1414 1.348 . S
C1412 C1415 1.356 . S
C1412 O1468 1.325 . S
N1413 C1416 1.314 . S
N1413 C1417 1.279 1_565 S
C1414 C1412 1.348 . S
C1414 C1416 1.353 1_545 S
C1414 H1472 0.929 . S
C1415 C1412 1.356 . S
C1415 C1417 1.358 . S
C1415 H1473 0.930 . S
C1416 N1413 1.314 . S
C1416 C1414 1.353 1_565 S
C1416 H1474 0.930 . S
C1417 N1413 1.279 1_545 S
C1417 C1415 1.358 . S
C1417 H1475 0.930 . S
C1418 C1421 1.348 . S
C1418 C1422 1.356 . S
C1418 O1469 1.325 . S
C1419 N1420 1.279 . S
C1419 C1422 1.358 . S
C1419 H1476 0.930 . S
N1420 C1419 1.279 . S
N1420 C1423 1.314 . S
C1421 C1418 1.348 . S
C1421 C1423 1.353 . S
C1421 H1477 0.929 . S
C1422 C1418 1.356 . S
C1422 C1419 1.358 . S
C1422 H1478 0.930 . S
C1423 N1420 1.314 . S
C1423 C1421 1.353 . S
C1423 H1479 0.930 . S
C1424 N1425 1.314 . S
C1424 C1429 1.353 . S
C1424 H1430 0.930 . S
N1425 Li1408 1.990 . S
N1425 C1424 1.314 . S
N1425 C1427 1.279 . S
C1426 C1427 1.358 . S
C1426 C1428 1.356 . S
C1426 H1480 0.930 . S
C1427 N1425 1.279 . S
C1427 C1426 1.358 . S
C1427 H1431 0.930 . S
C1428 C1426 1.356 . S
C1428 C1429 1.348 . S
C1429 C1424 1.353 . S
C1429 C1428 1.348 . S
C1429 H1481 0.929 . S
H1430 C1424 0.930 . S
H1431 C1427 0.930 . S
C1432 N1433 1.342 . S
C1432 C1434 1.313 1_545 S
C1432 H1438 0.946 . S
N1433 Li1409 1.990 . S
N1433 C1432 1.342 . S
N1433 C1436 1.279 . S
C1434 C1432 1.313 1_565 S
C1434 C1437 1.348 . S
C1434 H1482 0.929 . S
C1435 C1436 1.358 1_565 S
C1435 C1437 1.356 . S
C1435 H1483 0.930 . S
C1436 N1433 1.279 . S
C1436 C1435 1.358 1_545 S
C1436 H1439 0.930 . S
C1437 C1434 1.348 . S
C1437 C1435 1.356 . S
H1438 C1432 0.946 . S
H1439 C1436 0.930 . S
C1440 C1442 1.348 . S
C1440 C1443 1.356 . S
C1440 O1470 1.325 . S
N1441 C1444 1.314 . S
N1441 C1445 1.279 . S
C1442 C1440 1.348 . S
C1442 C1444 1.353 . S
C1442 H1484 0.929 . S
C1443 C1440 1.356 . S
C1443 C1445 1.358 . S
C1443 H1485 0.930 . S
C1444 N1441 1.314 . S
C1444 C1442 1.353 . S
C1444 H1486 0.930 . S
C1445 N1441 1.279 . S
C1445 C1443 1.358 . S
C1445 H1487 0.930 . S
C1446 C1447 1.348 . S
C1446 C1448 1.356 . S
C1446 O1471 1.325 . S
C1447 C1446 1.348 . S
C1447 C1449 1.353 . S
C1447 H1488 0.929 . S
C1448 C1446 1.356 . S
C1448 C1450 1.358 . S
C1448 H1489 0.930 . S
C1449 C1447 1.353 . S
C1449 N1451 1.314 . S
C1449 H1490 0.930 . S
C1450 C1448 1.358 . S
C1450 N1451 1.279 . S
C1450 H1491 0.930 . S
N1451 C1449 1.314 . S
N1451 C1450 1.279 . S
C1452 C1454 1.353 . S
C1452 N1455 1.314 . S
C1452 H1458 0.930 . S
C1453 N1455 1.279 . S
C1453 C1456 1.358 . S
C1453 H1459 0.930 . S
C1454 C1452 1.353 . S
C1454 C1457 1.348 . S
C1454 H1492 0.929 . S
N1455 Li1410 1.990 . S
N1455 C1452 1.314 . S
N1455 C1453 1.279 . S
C1456 C1453 1.358 . S
C1456 C1457 1.356 . S
C1456 H1493 0.930 . S
C1457 C1454 1.348 . S
C1457 C1456 1.356 . S
H1458 C1452 0.930 . S
H1459 C1453 0.930 . S
C1460 N1461 1.314 . S
C1460 C1462 1.353 . S
C1460 H1466 0.930 . S
N1461 Li1411 1.990 . S
N1461 C1460 1.314 . S
N1461 C1464 1.279 . S
C1462 C1460 1.353 . S
C1462 C1465 1.348 . S
C1462 H1494 0.929 . S
C1463 C1464 1.358 . S
C1463 C1465 1.356 . S
C1463 H1495 0.930 . S
C1464 N1461 1.279 . S
C1464 C1463 1.358 . S
C1464 H1467 0.930 . S
C1465 C1462 1.348 . S
C1465 C1463 1.356 . S
H1466 C1460 0.930 . S
H1467 C1464 0.930 . S
O1468 Li1408 1.956 . S
O1468 Li1409 1.970 . S
O1468 Li1410 1.961 . S
O1468 C1412 1.325 . S
O1469 Li1408 1.970 . S
O1469 Li1409 1.956 . S
O1469 Li1411 1.961 . S
O1469 C1418 1.325 . S
O1470 Li1408 1.961 . S
O1470 Li1410 1.956 . S
O1470 Li1411 1.970 . S
O1470 C1440 1.325 . S
O1471 Li1409 1.961 . S
O1471 Li1410 1.970 . S
O1471 Li1411 1.956 . S
O1471 C1446 1.325 . S
H1472 C1414 0.929 . S
H1473 C1415 0.930 . S
H1474 C1416 0.930 . S
H1475 C1417 0.930 . S
H1476 C1419 0.930 . S
H1477 C1421 0.929 . S
H1478 C1422 0.930 . S
H1479 C1423 0.930 . S
H1480 C1426 0.930 . S
H1481 C1429 0.929 . S
H1482 C1434 0.929 . S
H1483 C1435 0.930 . S
H1484 C1442 0.929 . S
H1485 C1443 0.930 . S
H1486 C1444 0.930 . S
H1487 C1445 0.930 . S
H1488 C1447 0.929 . S
H1489 C1448 0.930 . S
H1490 C1449 0.930 . S
H1491 C1450 0.930 . S
H1492 C1454 0.929 . S
H1493 C1456 0.930 . S
H1494 C1462 0.929 . S
H1495 C1463 0.930 . S
Li1496 N1513 1.990 . S
Li1496 O1556 1.956 . S
Li1496 O1557 1.970 . S
Li1496 O1558 1.961 . S
Li1497 N1521 1.990 . S
Li1497 O1556 1.970 . S
Li1497 O1557 1.956 . S
Li1497 O1559 1.961 . S
Li1498 N1543 1.990 . S
Li1498 O1556 1.961 . S
Li1498 O1558 1.956 . S
Li1498 O1559 1.970 . S
Li1499 N1549 1.990 . S
Li1499 O1557 1.961 . S
Li1499 O1558 1.970 . S
Li1499 O1559 1.956 . S
C1500 C1502 1.348 . S
C1500 C1503 1.356 . S
C1500 O1556 1.325 . S
N1501 C1504 1.314 . S
N1501 C1505 1.279 . S
C1502 C1500 1.348 . S
C1502 C1504 1.353 . S
C1502 H1560 0.929 . S
C1503 C1500 1.356 . S
C1503 C1505 1.358 . S
C1503 H1561 0.930 . S
C1504 N1501 1.314 . S
C1504 C1502 1.353 . S
C1504 H1562 0.930 . S
C1505 N1501 1.279 . S
C1505 C1503 1.358 . S
C1505 H1563 0.930 . S
C1506 C1509 1.348 . S
C1506 C1510 1.356 . S
C1506 O1557 1.325 . S
C1507 N1508 1.279 . S
C1507 C1510 1.358 . S
C1507 H1564 0.930 . S
N1508 C1507 1.279 . S
N1508 C1511 1.314 . S
C1509 C1506 1.348 . S
C1509 C1511 1.353 . S
C1509 H1565 0.929 . S
C1510 C1506 1.356 . S
C1510 C1507 1.358 . S
C1510 H1566 0.930 . S
C1511 N1508 1.314 . S
C1511 C1509 1.353 . S
C1511 H1567 0.930 . S
C1512 N1513 1.314 . S
C1512 C1517 1.353 . S
C1512 H1518 0.930 . S
N1513 Li1496 1.990 . S
N1513 C1512 1.314 . S
N1513 C1515 1.279 . S
C1514 C1515 1.358 . S
C1514 C1516 1.356 . S
C1514 H1568 0.930 . S
C1515 N1513 1.279 . S
C1515 C1514 1.358 . S
C1515 H1519 0.930 . S
C1516 C1514 1.356 . S
C1516 C1517 1.348 . S
C1517 C1512 1.353 . S
C1517 C1516 1.348 . S
C1517 H1569 0.929 . S
H1518 C1512 0.930 . S
H1519 C1515 0.930 . S
C1520 N1521 1.314 . S
C1520 C1522 1.353 . S
C1520 H1526 0.930 . S
N1521 Li1497 1.990 . S
N1521 C1520 1.314 . S
N1521 C1524 1.279 . S
C1522 C1520 1.353 . S
C1522 C1525 1.348 . S
C1522 H1570 0.929 . S
C1523 C1524 1.358 . S
C1523 C1525 1.356 . S
C1523 H1571 0.930 . S
C1524 N1521 1.279 . S
C1524 C1523 1.358 . S
C1524 H1527 0.930 . S
C1525 C1522 1.348 . S
C1525 C1523 1.356 . S
H1526 C1520 0.930 . S
H1527 C1524 0.930 . S
C1528 C1530 1.348 . S
C1528 C1531 1.356 . S
C1528 O1558 1.325 . S
N1529 C1532 1.314 . S
N1529 C1533 1.279 . S
C1530 C1528 1.348 . S
C1530 C1532 1.353 . S
C1530 H1572 0.929 . S
C1531 C1528 1.356 . S
C1531 C1533 1.358 . S
C1531 H1573 0.930 . S
C1532 N1529 1.314 . S
C1532 C1530 1.353 . S
C1532 H1574 0.930 . S
C1533 N1529 1.279 . S
C1533 C1531 1.358 . S
C1533 H1575 0.930 . S
C1534 C1535 1.348 . S
C1534 C1536 1.356 . S
C1534 O1559 1.325 . S
C1535 C1534 1.348 . S
C1535 C1537 1.353 . S
C1535 H1576 0.929 . S
C1536 C1534 1.356 . S
C1536 C1538 1.358 . S
C1536 H1577 0.930 . S
C1537 C1535 1.353 . S
C1537 N1539 1.314 . S
C1537 H1578 0.930 . S
C1538 C1536 1.358 . S
C1538 N1539 1.279 . S
C1538 H1579 0.930 . S
N1539 C1537 1.314 . S
N1539 C1538 1.279 . S
C1540 C1542 1.353 . S
C1540 N1543 1.314 . S
C1540 H1546 0.930 . S
C1541 N1543 1.279 . S
C1541 C1544 1.358 . S
C1541 H1547 0.930 . S
C1542 C1540 1.353 . S
C1542 C1545 1.348 . S
C1542 H1580 0.929 . S
N1543 Li1498 1.990 . S
N1543 C1540 1.314 . S
N1543 C1541 1.279 . S
C1544 C1541 1.358 . S
C1544 C1545 1.356 . S
C1544 H1581 0.930 . S
C1545 C1542 1.348 . S
C1545 C1544 1.356 . S
H1546 C1540 0.930 . S
H1547 C1541 0.930 . S
C1548 N1549 1.314 . S
C1548 C1550 1.353 . S
C1548 H1554 0.930 . S
N1549 Li1499 1.990 . S
N1549 C1548 1.314 . S
N1549 C1552 1.279 . S
C1550 C1548 1.353 . S
C1550 C1553 1.348 . S
C1550 H1582 0.929 . S
C1551 C1552 1.358 . S
C1551 C1553 1.356 . S
C1551 H1583 0.930 . S
C1552 N1549 1.279 . S
C1552 C1551 1.358 . S
C1552 H1555 0.930 . S
C1553 C1550 1.348 . S
C1553 C1551 1.356 . S
H1554 C1548 0.930 . S
H1555 C1552 0.930 . S
O1556 Li1496 1.956 . S
O1556 Li1497 1.970 . S
O1556 Li1498 1.961 . S
O1556 C1500 1.325 . S
O1557 Li1496 1.970 . S
O1557 Li1497 1.956 . S
O1557 Li1499 1.961 . S
O1557 C1506 1.325 . S
O1558 Li1496 1.961 . S
O1558 Li1498 1.956 . S
O1558 Li1499 1.970 . S
O1558 C1528 1.325 . S
O1559 Li1497 1.961 . S
O1559 Li1498 1.970 . S
O1559 Li1499 1.956 . S
O1559 C1534 1.325 . S
H1560 C1502 0.929 . S
H1561 C1503 0.930 . S
H1562 C1504 0.930 . S
H1563 C1505 0.930 . S
H1564 C1507 0.930 . S
H1565 C1509 0.929 . S
H1566 C1510 0.930 . S
H1567 C1511 0.930 . S
H1568 C1514 0.930 . S
H1569 C1517 0.929 . S
H1570 C1522 0.929 . S
H1571 C1523 0.930 . S
H1572 C1530 0.929 . S
H1573 C1531 0.930 . S
H1574 C1532 0.930 . S
H1575 C1533 0.930 . S
H1576 C1535 0.929 . S
H1577 C1536 0.930 . S
H1578 C1537 0.930 . S
H1579 C1538 0.930 . S
H1580 C1542 0.929 . S
H1581 C1544 0.930 . S
H1582 C1550 0.929 . S
H1583 C1551 0.930 . S
Li1584 N1601 1.990 . S
Li1584 O1644 1.956 . S
Li1584 O1645 1.970 . S
Li1584 O1646 1.961 . S
Li1585 N1609 1.990 . S
Li1585 O1644 1.970 . S
Li1585 O1645 1.956 . S
Li1585 O1647 1.961 . S
Li1586 N1631 1.990 . S
Li1586 O1644 1.961 . S
Li1586 O1646 1.956 . S
Li1586 O1647 1.970 . S
Li1587 N1637 1.990 . S
Li1587 O1645 1.961 . S
Li1587 O1646 1.970 . S
Li1587 O1647 1.956 . S
C1588 C1590 1.348 . S
C1588 C1591 1.356 . S
C1588 O1644 1.325 . S
N1589 C1592 1.314 . S
N1589 C1593 1.279 . S
C1590 C1588 1.348 . S
C1590 C1592 1.353 . S
C1590 H1648 0.929 . S
C1591 C1588 1.356 . S
C1591 C1593 1.358 . S
C1591 H1649 0.930 . S
C1592 N1589 1.314 . S
C1592 C1590 1.353 . S
C1592 H1650 0.930 . S
C1593 N1589 1.279 . S
C1593 C1591 1.358 . S
C1593 H1651 0.930 . S
C1594 C1597 1.348 . S
C1594 C1598 1.356 . S
C1594 O1645 1.325 . S
C1595 N1596 1.279 . S
C1595 C1598 1.358 . S
C1595 H1652 0.930 . S
N1596 C1595 1.279 . S
N1596 C1599 1.314 . S
C1597 C1594 1.348 . S
C1597 C1599 1.353 . S
C1597 H1653 0.929 . S
C1598 C1594 1.356 . S
C1598 C1595 1.358 . S
C1598 H1654 0.930 . S
C1599 N1596 1.314 . S
C1599 C1597 1.353 . S
C1599 H1655 0.930 . S
C1600 N1601 1.314 . S
C1600 C1605 1.353 . S
C1600 H1606 0.930 . S
N1601 Li1584 1.990 . S
N1601 C1600 1.314 . S
N1601 C1603 1.279 . S
C1602 C1603 1.358 . S
C1602 C1604 1.356 . S
C1602 H1656 0.930 . S
C1603 N1601 1.279 . S
C1603 C1602 1.358 . S
C1603 H1607 0.930 . S
C1604 C1602 1.356 . S
C1604 C1605 1.348 . S
C1605 C1600 1.353 . S
C1605 C1604 1.348 . S
C1605 H1657 0.929 . S
H1606 C1600 0.930 . S
H1607 C1603 0.930 . S
C1608 N1609 1.314 . S
C1608 C1610 1.353 . S
C1608 H1614 0.930 . S
N1609 Li1585 1.990 . S
N1609 C1608 1.314 . S
N1609 C1612 1.279 . S
C1610 C1608 1.353 . S
C1610 C1613 1.348 . S
C1610 H1658 0.929 . S
C1611 C1612 1.358 . S
C1611 C1613 1.356 . S
C1611 H1659 0.930 . S
C1612 N1609 1.279 . S
C1612 C1611 1.358 . S
C1612 H1615 0.930 . S
C1613 C1610 1.348 . S
C1613 C1611 1.356 . S
H1614 C1608 0.930 . S
H1615 C1612 0.930 . S
C1616 C1618 1.348 . S
C1616 C1619 1.356 . S
C1616 O1646 1.325 . S
N1617 C1620 1.314 . S
N1617 C1621 1.279 . S
C1618 C1616 1.348 . S
C1618 C1620 1.353 . S
C1618 H1660 0.929 . S
C1619 C1616 1.356 . S
C1619 C1621 1.358 . S
C1619 H1661 0.930 . S
C1620 N1617 1.314 . S
C1620 C1618 1.353 . S
C1620 H1662 0.930 . S
C1621 N1617 1.279 . S
C1621 C1619 1.358 . S
C1621 H1663 0.930 . S
C1622 C1623 1.348 . S
C1622 C1624 1.356 . S
C1622 O1647 1.325 . S
C1623 C1622 1.348 . S
C1623 C1625 1.353 . S
C1623 H1664 0.929 . S
C1624 C1622 1.356 . S
C1624 C1626 1.358 . S
C1624 H1665 0.930 . S
C1625 C1623 1.353 . S
C1625 N1627 1.314 . S
C1625 H1666 0.930 . S
C1626 C1624 1.358 . S
C1626 N1627 1.279 . S
C1626 H1667 0.930 . S
N1627 C1625 1.314 . S
N1627 C1626 1.279 . S
C1628 C1630 1.353 . S
C1628 N1631 1.314 . S
C1628 H1634 0.930 . S
C1629 N1631 1.279 . S
C1629 C1632 1.358 . S
C1629 H1635 0.930 . S
C1630 C1628 1.353 . S
C1630 C1633 1.348 . S
C1630 H1668 0.929 . S
N1631 Li1586 1.990 . S
N1631 C1628 1.314 . S
N1631 C1629 1.279 . S
C1632 C1629 1.358 . S
C1632 C1633 1.356 . S
C1632 H1669 0.930 . S
C1633 C1630 1.348 . S
C1633 C1632 1.356 . S
H1634 C1628 0.930 . S
H1635 C1629 0.930 . S
C1636 N1637 1.314 . S
C1636 C1638 1.353 . S
C1636 H1642 0.930 . S
N1637 Li1587 1.990 . S
N1637 C1636 1.314 . S
N1637 C1640 1.279 . S
C1638 C1636 1.353 . S
C1638 C1641 1.348 . S
C1638 H1670 0.929 . S
C1639 C1640 1.358 . S
C1639 C1641 1.356 . S
C1639 H1671 0.930 . S
C1640 N1637 1.279 . S
C1640 C1639 1.358 . S
C1640 H1643 0.930 . S
C1641 C1638 1.348 . S
C1641 C1639 1.356 . S
H1642 C1636 0.930 . S
H1643 C1640 0.930 . S
O1644 Li1584 1.956 . S
O1644 Li1585 1.970 . S
O1644 Li1586 1.961 . S
O1644 C1588 1.325 . S
O1645 Li1584 1.970 . S
O1645 Li1585 1.956 . S
O1645 Li1587 1.961 . S
O1645 C1594 1.325 . S
O1646 Li1584 1.961 . S
O1646 Li1586 1.956 . S
O1646 Li1587 1.970 . S
O1646 C1616 1.325 . S
O1647 Li1585 1.961 . S
O1647 Li1586 1.970 . S
O1647 Li1587 1.956 . S
O1647 C1622 1.325 . S
H1648 C1590 0.929 . S
H1649 C1591 0.930 . S
H1650 C1592 0.930 . S
H1651 C1593 0.930 . S
H1652 C1595 0.930 . S
H1653 C1597 0.929 . S
H1654 C1598 0.930 . S
H1655 C1599 0.930 . S
H1656 C1602 0.930 . S
H1657 C1605 0.929 . S
H1658 C1610 0.929 . S
H1659 C1611 0.930 . S
H1660 C1618 0.929 . S
H1661 C1619 0.930 . S
H1662 C1620 0.930 . S
H1663 C1621 0.930 . S
H1664 C1623 0.929 . S
H1665 C1624 0.930 . S
H1666 C1625 0.930 . S
H1667 C1626 0.930 . S
H1668 C1630 0.929 . S
H1669 C1632 0.930 . S
H1670 C1638 0.929 . S
H1671 C1639 0.930 . S
Li1672 N1689 1.990 . S
Li1672 O1732 1.956 . S
Li1672 O1733 1.970 . S
Li1672 O1734 1.961 1_545 S
Li1673 N1697 1.990 . S
Li1673 O1732 1.970 . S
Li1673 O1733 1.956 . S
Li1673 O1735 1.961 . S
Li1674 N1719 1.990 . S
Li1674 O1732 1.961 . S
Li1674 O1734 1.956 1_545 S
Li1674 O1735 1.970 . S
Li1675 N1725 1.990 . S
Li1675 O1733 1.961 1_565 S
Li1675 O1734 1.970 . S
Li1675 O1735 1.956 1_565 S
C1676 C1678 1.348 . S
C1676 C1679 1.356 . S
C1676 O1732 1.325 . S
N1677 C1680 1.314 . S
N1677 C1681 1.279 . S
C1678 C1676 1.348 . S
C1678 C1680 1.353 . S
C1678 H1736 0.929 . S
C1679 C1676 1.356 . S
C1679 C1681 1.358 . S
C1679 H1737 0.930 . S
C1680 N1677 1.314 . S
C1680 C1678 1.353 . S
C1680 H1738 0.930 . S
C1681 N1677 1.279 . S
C1681 C1679 1.358 . S
C1681 H1739 0.930 . S
C1682 C1685 1.348 . S
C1682 C1686 1.356 . S
C1682 O1733 1.325 . S
C1683 N1684 1.279 . S
C1683 C1686 1.358 . S
C1683 H1740 0.930 . S
N1684 C1683 1.279 . S
N1684 C1687 1.314 . S
C1685 C1682 1.348 . S
C1685 C1687 1.353 . S
C1685 H1741 0.929 . S
C1686 C1682 1.356 . S
C1686 C1683 1.358 . S
C1686 H1742 0.930 . S
C1687 N1684 1.314 . S
C1687 C1685 1.353 . S
C1687 H1743 0.930 . S
C1688 N1689 1.314 1_565 S
C1688 C1693 1.353 . S
C1688 H1694 0.930 . S
N1689 Li1672 1.990 . S
N1689 C1688 1.314 1_545 S
N1689 C1691 1.279 . S
C1690 C1691 1.358 . S
C1690 C1692 1.356 . S
C1690 H1744 0.930 . S
C1691 N1689 1.279 . S
C1691 C1690 1.358 . S
C1691 H1695 0.930 . S
C1692 C1690 1.356 . S
C1692 C1693 1.348 1_545 S
C1693 C1688 1.353 . S
C1693 C1692 1.348 1_565 S
C1693 H1745 0.929 . S
H1694 C1688 0.930 . S
H1695 C1691 0.930 . S
C1696 N1697 1.314 . S
C1696 C1698 1.353 . S
C1696 H1702 0.930 . S
N1697 Li1673 1.990 . S
N1697 C1696 1.314 . S
N1697 C1700 1.279 . S
C1698 C1696 1.353 . S
C1698 C1701 1.348 . S
C1698 H1746 0.929 . S
C1699 C1700 1.358 . S
C1699 C1701 1.356 . S
C1699 H1747 0.930 . S
C1700 N1697 1.279 . S
C1700 C1699 1.358 . S
C1700 H1703 0.930 . S
C1701 C1698 1.348 . S
C1701 C1699 1.356 . S
H1702 C1696 0.930 . S
H1703 C1700 0.930 . S
C1704 C1706 1.348 . S
C1704 C1707 1.356 . S
C1704 O1734 1.325 . S
N1705 C1708 1.314 . S
N1705 C1709 1.279 . S
C1706 C1704 1.348 . S
C1706 C1708 1.353 . S
C1706 H1748 0.929 . S
C1707 C1704 1.356 . S
C1707 C1709 1.358 . S
C1707 H1749 0.930 . S
C1708 N1705 1.314 . S
C1708 C1706 1.353 . S
C1708 H1750 0.930 . S
C1709 N1705 1.279 . S
C1709 C1707 1.358 . S
C1709 H1751 0.930 . S
C1710 C1711 1.348 . S
C1710 C1712 1.356 . S
C1710 O1735 1.325 . S
C1711 C1710 1.348 . S
C1711 C1713 1.353 . S
C1711 H1752 0.929 . S
C1712 C1710 1.356 . S
C1712 C1714 1.358 . S
C1712 H1753 0.930 . S
C1713 C1711 1.353 . S
C1713 N1715 1.314 . S
C1713 H1754 0.930 . S
C1714 C1712 1.358 . S
C1714 N1715 1.279 . S
C1714 H1755 0.930 . S
N1715 C1713 1.314 . S
N1715 C1714 1.279 . S
C1716 C1718 1.353 . S
C1716 N1719 1.314 . S
C1716 H1722 0.930 . S
C1717 N1719 1.279 1_565 S
C1717 C1720 1.358 . S
C1717 H1723 0.930 . S
C1718 C1716 1.353 . S
C1718 C1721 1.348 . S
C1718 H1756 0.929 . S
N1719 Li1674 1.990 . S
N1719 C1716 1.314 . S
N1719 C1717 1.279 1_545 S
C1720 C1717 1.358 . S
C1720 C1721 1.356 1_565 S
C1720 H1757 0.930 . S
C1721 C1718 1.348 . S
C1721 C1720 1.356 1_545 S
H1722 C1716 0.930 . S
H1723 C1717 0.930 . S
C1724 N1725 1.314 . S
C1724 C1726 1.353 . S
C1724 H1730 0.930 . S
N1725 Li1675 1.990 . S
N1725 C1724 1.314 . S
N1725 C1728 1.279 . S
C1726 C1724 1.353 . S
C1726 C1729 1.348 . S
C1726 H1758 0.929 . S
C1727 C1728 1.358 . S
C1727 C1729 1.356 . S
C1727 H1759 0.930 . S
C1728 N1725 1.279 . S
C1728 C1727 1.358 . S
C1728 H1731 0.930 . S
C1729 C1726 1.348 . S
C1729 C1727 1.356 . S
H1730 C1724 0.930 . S
H1731 C1728 0.930 . S
O1732 Li1672 1.956 . S
O1732 Li1673 1.970 . S
O1732 Li1674 1.961 . S
O1732 C1676 1.325 . S
O1733 Li1672 1.970 . S
O1733 Li1673 1.956 . S
O1733 Li1675 1.961 1_545 S
O1733 C1682 1.325 . S
O1734 Li1672 1.961 1_565 S
O1734 Li1674 1.956 1_565 S
O1734 Li1675 1.970 . S
O1734 C1704 1.325 . S
O1735 Li1673 1.961 . S
O1735 Li1674 1.970 . S
O1735 Li1675 1.956 1_545 S
O1735 C1710 1.325 . S
H1736 C1678 0.929 . S
H1737 C1679 0.930 . S
H1738 C1680 0.930 . S
H1739 C1681 0.930 . S
H1740 C1683 0.930 . S
H1741 C1685 0.929 . S
H1742 C1686 0.930 . S
H1743 C1687 0.930 . S
H1744 C1690 0.930 . S
H1745 C1693 0.929 . S
H1746 C1698 0.929 . S
H1747 C1699 0.930 . S
H1748 C1706 0.929 . S
H1749 C1707 0.930 . S
H1750 C1708 0.930 . S
H1751 C1709 0.930 . S
H1752 C1711 0.929 . S
H1753 C1712 0.930 . S
H1754 C1713 0.930 . S
H1755 C1714 0.930 . S
H1756 C1718 0.929 . S
H1757 C1720 0.930 . S
H1758 C1726 0.929 . S
H1759 C1727 0.930 . S
Li1760 N1777 1.990 . S
Li1760 O1820 1.956 . S
Li1760 O1821 1.970 . S
Li1760 O1822 1.961 . S
Li1761 N1785 1.990 . S
Li1761 O1820 1.970 . S
Li1761 O1821 1.956 . S
Li1761 O1823 1.961 1_554 S
Li1762 N1807 1.990 . S
Li1762 O1820 1.961 1_556 S
Li1762 O1822 1.956 1_556 S
Li1762 O1823 1.970 . S
Li1763 N1813 1.989 . S
Li1763 O1821 1.961 . S
Li1763 O1822 1.970 . S
Li1763 O1823 1.956 1_554 S
C1764 C1766 1.348 . S
C1764 C1767 1.356 . S
C1764 O1820 1.325 . S
N1765 C1768 1.314 . S
N1765 C1769 1.279 . S
C1766 C1764 1.348 . S
C1766 C1768 1.353 . S
C1766 H1824 0.929 . S
C1767 C1764 1.356 . S
C1767 C1769 1.358 . S
C1767 H1825 0.930 . S
C1768 N1765 1.314 . S
C1768 C1766 1.353 . S
C1768 H1826 0.930 . S
C1769 N1765 1.279 . S
C1769 C1767 1.358 . S
C1769 H1827 0.930 . S
C1770 C1773 1.348 . S
C1770 C1774 1.356 . S
C1770 O1821 1.325 . S
C1771 N1772 1.279 . S
C1771 C1774 1.358 . S
C1771 H1828 0.930 . S
N1772 C1771 1.279 . S
N1772 C1775 1.314 . S
C1773 C1770 1.348 . S
C1773 C1775 1.353 . S
C1773 H1829 0.929 . S
C1774 C1770 1.356 . S
C1774 C1771 1.358 . S
C1774 H1830 0.930 . S
C1775 N1772 1.314 . S
C1775 C1773 1.353 . S
C1775 H1831 0.930 . S
C1776 N1777 1.314 . S
C1776 C1781 1.353 . S
C1776 H1782 0.930 . S
N1777 Li1760 1.990 . S
N1777 C1776 1.314 . S
N1777 C1779 1.279 . S
C1778 C1779 1.358 . S
C1778 C1780 1.356 . S
C1778 H1832 0.930 . S
C1779 N1777 1.279 . S
C1779 C1778 1.358 . S
C1779 H1783 0.930 . S
C1780 C1778 1.356 . S
C1780 C1781 1.348 . S
C1781 C1776 1.353 . S
C1781 C1780 1.348 . S
C1781 H1833 0.929 . S
H1782 C1776 0.930 . S
H1783 C1779 0.930 . S
C1784 N1785 1.314 1_556 S
C1784 C1786 1.353 . S
C1784 H1790 0.930 . S
N1785 Li1761 1.990 . S
N1785 C1784 1.314 1_554 S
N1785 C1788 1.279 . S
C1786 C1784 1.353 . S
C1786 C1789 1.348 1_556 S
C1786 H1834 0.929 . S
C1787 C1788 1.358 . S
C1787 C1789 1.356 . S
C1787 H1835 0.930 . S
C1788 N1785 1.279 . S
C1788 C1787 1.358 . S
C1788 H1791 0.930 . S
C1789 C1786 1.348 1_554 S
C1789 C1787 1.356 . S
H1790 C1784 0.930 . S
H1791 C1788 0.930 . S
C1792 C1794 1.348 1_554 S
C1792 C1795 1.356 . S
C1792 O1822 1.325 . S
N1793 C1796 1.314 1_554 S
N1793 C1797 1.279 . S
C1794 C1792 1.348 1_556 S
C1794 C1796 1.353 . S
C1794 H1836 0.929 . S
C1795 C1792 1.356 . S
C1795 C1797 1.358 . S
C1795 H1837 0.930 . S
C1796 N1793 1.314 1_556 S
C1796 C1794 1.353 . S
C1796 H1838 0.930 . S
C1797 N1793 1.279 . S
C1797 C1795 1.358 . S
C1797 H1839 0.930 . S
C1798 C1799 1.348 . S
C1798 C1800 1.356 . S
C1798 O1823 1.325 . S
C1799 C1798 1.348 . S
C1799 C1801 1.353 . S
C1799 H1840 0.929 . S
C1800 C1798 1.356 . S
C1800 C1802 1.358 . S
C1800 H1841 0.930 . S
C1801 C1799 1.353 . S
C1801 N1803 1.314 . S
C1801 H1842 0.930 . S
C1802 C1800 1.358 . S
C1802 N1803 1.279 . S
C1802 H1843 0.930 . S
N1803 C1801 1.314 . S
N1803 C1802 1.279 . S
C1804 C1806 1.353 . S
C1804 N1807 1.314 . S
C1804 H1810 0.930 . S
C1805 N1807 1.279 . S
C1805 C1808 1.358 . S
C1805 H1811 0.930 . S
C1806 C1804 1.353 . S
C1806 C1809 1.348 . S
C1806 H1844 0.929 . S
N1807 Li1762 1.990 . S
N1807 C1804 1.314 . S
N1807 C1805 1.279 . S
C1808 C1805 1.358 . S
C1808 C1809 1.356 . S
C1808 H1845 0.930 . S
C1809 C1806 1.348 . S
C1809 C1808 1.356 . S
H1810 C1804 0.930 . S
H1811 C1805 0.930 . S
C1812 N1813 1.339 . S
C1812 C1814 1.353 . S
C1812 H1818 0.930 . S
N1813 Li1763 1.989 . S
N1813 C1812 1.339 . S
N1813 C1816 1.257 1_554 S
C1814 C1812 1.353 . S
C1814 C1817 1.348 1_554 S
C1814 H1846 0.929 . S
C1815 C1816 1.358 . S
C1815 C1817 1.356 . S
C1815 H1847 0.930 . S
C1816 N1813 1.257 1_556 S
C1816 C1815 1.358 . S
C1816 H1819 0.930 . S
C1817 C1814 1.348 1_556 S
C1817 C1815 1.356 . S
H1818 C1812 0.930 . S
H1819 C1816 0.930 . S
O1820 Li1760 1.956 . S
O1820 Li1761 1.970 . S
O1820 Li1762 1.961 1_554 S
O1820 C1764 1.325 . S
O1821 Li1760 1.970 . S
O1821 Li1761 1.956 . S
O1821 Li1763 1.961 . S
O1821 C1770 1.325 . S
O1822 Li1760 1.961 . S
O1822 Li1762 1.956 1_554 S
O1822 Li1763 1.970 . S
O1822 C1792 1.325 . S
O1823 Li1761 1.961 1_556 S
O1823 Li1762 1.970 . S
O1823 Li1763 1.956 1_556 S
O1823 C1798 1.325 . S
H1824 C1766 0.929 . S
H1825 C1767 0.930 . S
H1826 C1768 0.930 . S
H1827 C1769 0.930 . S
H1828 C1771 0.930 . S
H1829 C1773 0.929 . S
H1830 C1774 0.930 . S
H1831 C1775 0.930 . S
H1832 C1778 0.930 . S
H1833 C1781 0.929 . S
H1834 C1786 0.929 . S
H1835 C1787 0.930 . S
H1836 C1794 0.929 . S
H1837 C1795 0.930 . S
H1838 C1796 0.930 . S
H1839 C1797 0.930 . S
H1840 C1799 0.929 . S
H1841 C1800 0.930 . S
H1842 C1801 0.930 . S
H1843 C1802 0.930 . S
H1844 C1806 0.929 . S
H1845 C1808 0.930 . S
H1846 C1814 0.929 . S
H1847 C1815 0.930 . S
Li1848 N1865 1.990 . S
Li1848 O1908 1.956 . S
Li1848 O1909 1.970 . S
Li1848 O1910 1.961 . S
Li1849 N1873 1.990 . S
Li1849 O1908 1.970 . S
Li1849 O1909 1.956 . S
Li1849 O1911 1.961 . S
Li1850 N1895 1.990 . S
Li1850 O1908 1.961 . S
Li1850 O1910 1.956 . S
Li1850 O1911 1.970 . S
Li1851 N1901 1.990 . S
Li1851 O1909 1.961 . S
Li1851 O1910 1.970 . S
Li1851 O1911 1.956 . S
C1852 C1854 1.348 . S
C1852 C1855 1.356 . S
C1852 O1908 1.325 . S
N1853 C1856 1.314 . S
N1853 C1857 1.279 . S
C1854 C1852 1.348 . S
C1854 C1856 1.353 . S
C1854 H1912 0.929 . S
C1855 C1852 1.356 . S
C1855 C1857 1.358 . S
C1855 H1913 0.930 . S
C1856 N1853 1.314 . S
C1856 C1854 1.353 . S
C1856 H1914 0.930 . S
C1857 N1853 1.279 . S
C1857 C1855 1.358 . S
C1857 H1915 0.930 . S
C1858 C1861 1.348 . S
C1858 C1862 1.356 . S
C1858 O1909 1.325 . S
C1859 N1860 1.279 . S
C1859 C1862 1.358 . S
C1859 H1916 0.930 . S
N1860 C1859 1.279 . S
N1860 C1863 1.314 . S
C1861 C1858 1.348 . S
C1861 C1863 1.353 . S
C1861 H1917 0.929 . S
C1862 C1858 1.356 . S
C1862 C1859 1.358 . S
C1862 H1918 0.930 . S
C1863 N1860 1.314 . S
C1863 C1861 1.353 . S
C1863 H1919 0.930 . S
C1864 N1865 1.314 . S
C1864 C1869 1.353 . S
C1864 H1870 0.930 . S
N1865 Li1848 1.990 . S
N1865 C1864 1.314 . S
N1865 C1867 1.279 . S
C1866 C1867 1.358 . S
C1866 C1868 1.356 . S
C1866 H1920 0.930 . S
C1867 N1865 1.279 . S
C1867 C1866 1.358 . S
C1867 H1871 0.930 . S
C1868 C1866 1.356 . S
C1868 C1869 1.348 . S
C1869 C1864 1.353 . S
C1869 C1868 1.348 . S
C1869 H1921 0.929 . S
H1870 C1864 0.930 . S
H1871 C1867 0.930 . S
C1872 N1873 1.314 . S
C1872 C1874 1.353 . S
C1872 H1878 0.930 . S
N1873 Li1849 1.990 . S
N1873 C1872 1.314 . S
N1873 C1876 1.279 . S
C1874 C1872 1.353 . S
C1874 C1877 1.348 . S
C1874 H1922 0.929 . S
C1875 C1876 1.358 . S
C1875 C1877 1.356 . S
C1875 H1923 0.930 . S
C1876 N1873 1.279 . S
C1876 C1875 1.358 . S
C1876 H1879 0.930 . S
C1877 C1874 1.348 . S
C1877 C1875 1.356 . S
H1878 C1872 0.930 . S
H1879 C1876 0.930 . S
C1880 C1882 1.348 . S
C1880 C1883 1.356 . S
C1880 O1910 1.325 . S
N1881 C1884 1.314 . S
N1881 C1885 1.279 . S
C1882 C1880 1.348 . S
C1882 C1884 1.353 . S
C1882 H1924 0.929 . S
C1883 C1880 1.356 . S
C1883 C1885 1.358 . S
C1883 H1925 0.930 . S
C1884 N1881 1.314 . S
C1884 C1882 1.353 . S
C1884 H1926 0.930 . S
C1885 N1881 1.279 . S
C1885 C1883 1.358 . S
C1885 H1927 0.930 . S
C1886 C1887 1.348 . S
C1886 C1888 1.356 . S
C1886 O1911 1.325 . S
C1887 C1886 1.348 . S
C1887 C1889 1.353 . S
C1887 H1928 0.929 . S
C1888 C1886 1.356 . S
C1888 C1890 1.358 . S
C1888 H1929 0.930 . S
C1889 C1887 1.353 . S
C1889 N1891 1.314 . S
C1889 H1930 0.930 . S
C1890 C1888 1.358 . S
C1890 N1891 1.279 . S
C1890 H1931 0.930 . S
N1891 C1889 1.314 . S
N1891 C1890 1.279 . S
C1892 C1894 1.353 . S
C1892 N1895 1.314 . S
C1892 H1898 0.930 . S
C1893 N1895 1.279 . S
C1893 C1896 1.358 . S
C1893 H1899 0.930 . S
C1894 C1892 1.353 . S
C1894 C1897 1.348 . S
C1894 H1932 0.929 . S
N1895 Li1850 1.990 . S
N1895 C1892 1.314 . S
N1895 C1893 1.279 . S
C1896 C1893 1.358 . S
C1896 C1897 1.356 . S
C1896 H1933 0.930 . S
C1897 C1894 1.348 . S
C1897 C1896 1.356 . S
H1898 C1892 0.930 . S
H1899 C1893 0.930 . S
C1900 N1901 1.314 . S
C1900 C1902 1.353 . S
C1900 H1906 0.930 . S
N1901 Li1851 1.990 . S
N1901 C1900 1.314 . S
N1901 C1904 1.279 . S
C1902 C1900 1.353 . S
C1902 C1905 1.348 . S
C1902 H1934 0.929 . S
C1903 C1904 1.358 . S
C1903 C1905 1.356 . S
C1903 H1935 0.930 . S
C1904 N1901 1.279 . S
C1904 C1903 1.358 . S
C1904 H1907 0.930 . S
C1905 C1902 1.348 . S
C1905 C1903 1.356 . S
H1906 C1900 0.930 . S
H1907 C1904 0.930 . S
O1908 Li1848 1.956 . S
O1908 Li1849 1.970 . S
O1908 Li1850 1.961 . S
O1908 C1852 1.325 . S
O1909 Li1848 1.970 . S
O1909 Li1849 1.956 . S
O1909 Li1851 1.961 . S
O1909 C1858 1.325 . S
O1910 Li1848 1.961 . S
O1910 Li1850 1.956 . S
O1910 Li1851 1.970 . S
O1910 C1880 1.325 . S
O1911 Li1849 1.961 . S
O1911 Li1850 1.970 . S
O1911 Li1851 1.956 . S
O1911 C1886 1.325 . S
H1912 C1854 0.929 . S
H1913 C1855 0.930 . S
H1914 C1856 0.930 . S
H1915 C1857 0.930 . S
H1916 C1859 0.930 . S
H1917 C1861 0.929 . S
H1918 C1862 0.930 . S
H1919 C1863 0.930 . S
H1920 C1866 0.930 . S
H1921 C1869 0.929 . S
H1922 C1874 0.929 . S
H1923 C1875 0.930 . S
H1924 C1882 0.929 . S
H1925 C1883 0.930 . S
H1926 C1884 0.930 . S
H1927 C1885 0.930 . S
H1928 C1887 0.929 . S
H1929 C1888 0.930 . S
H1930 C1889 0.930 . S
H1931 C1890 0.930 . S
H1932 C1894 0.929 . S
H1933 C1896 0.930 . S
H1934 C1902 0.929 . S
H1935 C1903 0.930 . S
Li1936 N1953 1.990 . S
Li1936 O1996 1.956 . S
Li1936 O1997 1.970 . S
Li1936 O1998 1.961 . S
Li1937 N1961 1.990 . S
Li1937 O1996 1.970 . S
Li1937 O1997 1.956 . S
Li1937 O1999 1.961 . S
Li1938 N1983 1.990 . S
Li1938 O1996 1.961 . S
Li1938 O1998 1.956 . S
Li1938 O1999 1.970 . S
Li1939 N1989 1.990 . S
Li1939 O1997 1.961 . S
Li1939 O1998 1.970 . S
Li1939 O1999 1.956 . S
C1940 C1942 1.348 . S
C1940 C1943 1.356 . S
C1940 O1996 1.325 . S
N1941 C1944 1.314 . S
N1941 C1945 1.279 . S
C1942 C1940 1.348 . S
C1942 C1944 1.353 . S
C1942 H2000 0.929 . S
C1943 C1940 1.356 . S
C1943 C1945 1.358 . S
C1943 H2001 0.930 . S
C1944 N1941 1.314 . S
C1944 C1942 1.353 . S
C1944 H2002 0.930 . S
C1945 N1941 1.279 . S
C1945 C1943 1.358 . S
C1945 H2003 0.930 . S
C1946 C1949 1.348 . S
C1946 C1950 1.356 . S
C1946 O1997 1.325 . S
C1947 N1948 1.279 . S
C1947 C1950 1.358 . S
C1947 H2004 0.930 . S
N1948 C1947 1.279 . S
N1948 C1951 1.314 . S
C1949 C1946 1.348 . S
C1949 C1951 1.353 . S
C1949 H2005 0.929 . S
C1950 C1946 1.356 . S
C1950 C1947 1.358 . S
C1950 H2006 0.930 . S
C1951 N1948 1.314 . S
C1951 C1949 1.353 . S
C1951 H2007 0.930 . S
C1952 N1953 1.314 . S
C1952 C1957 1.353 . S
C1952 H1958 0.930 . S
N1953 Li1936 1.990 . S
N1953 C1952 1.314 . S
N1953 C1955 1.279 . S
C1954 C1955 1.358 . S
C1954 C1956 1.356 . S
C1954 H2008 0.930 . S
C1955 N1953 1.279 . S
C1955 C1954 1.358 . S
C1955 H1959 0.930 . S
C1956 C1954 1.356 . S
C1956 C1957 1.348 . S
C1957 C1952 1.353 . S
C1957 C1956 1.348 . S
C1957 H2009 0.929 . S
H1958 C1952 0.930 . S
H1959 C1955 0.930 . S
C1960 N1961 1.314 . S
C1960 C1962 1.353 . S
C1960 H1966 0.930 . S
N1961 Li1937 1.990 . S
N1961 C1960 1.314 . S
N1961 C1964 1.279 . S
C1962 C1960 1.353 . S
C1962 C1965 1.348 . S
C1962 H2010 0.929 . S
C1963 C1964 1.358 . S
C1963 C1965 1.356 . S
C1963 H2011 0.930 . S
C1964 N1961 1.279 . S
C1964 C1963 1.358 . S
C1964 H1967 0.930 . S
C1965 C1962 1.348 . S
C1965 C1963 1.356 . S
H1966 C1960 0.930 . S
H1967 C1964 0.930 . S
C1968 C1970 1.348 . S
C1968 C1971 1.356 . S
C1968 O1998 1.325 . S
N1969 C1972 1.314 . S
N1969 C1973 1.279 . S
C1970 C1968 1.348 . S
C1970 C1972 1.353 . S
C1970 H2012 0.929 . S
C1971 C1968 1.356 . S
C1971 C1973 1.358 . S
C1971 H2013 0.930 . S
C1972 N1969 1.314 . S
C1972 C1970 1.353 . S
C1972 H2014 0.930 . S
C1973 N1969 1.279 . S
C1973 C1971 1.358 . S
C1973 H2015 0.930 . S
C1974 C1975 1.348 . S
C1974 C1976 1.356 . S
C1974 O1999 1.325 . S
C1975 C1974 1.348 . S
C1975 C1977 1.353 . S
C1975 H2016 0.929 . S
C1976 C1974 1.356 . S
C1976 C1978 1.358 . S
C1976 H2017 0.930 . S
C1977 C1975 1.353 . S
C1977 N1979 1.314 . S
C1977 H2018 0.930 . S
C1978 C1976 1.358 . S
C1978 N1979 1.279 . S
C1978 H2019 0.930 . S
N1979 C1977 1.314 . S
N1979 C1978 1.279 . S
C1980 C1982 1.353 . S
C1980 N1983 1.314 . S
C1980 H1986 0.930 . S
C1981 N1983 1.279 . S
C1981 C1984 1.358 . S
C1981 H1987 0.930 . S
C1982 C1980 1.353 . S
C1982 C1985 1.348 . S
C1982 H2020 0.929 . S
N1983 Li1938 1.990 . S
N1983 C1980 1.314 . S
N1983 C1981 1.279 . S
C1984 C1981 1.358 . S
C1984 C1985 1.356 . S
C1984 H2021 0.930 . S
C1985 C1982 1.348 . S
C1985 C1984 1.356 . S
H1986 C1980 0.930 . S
H1987 C1981 0.930 . S
C1988 N1989 1.314 . S
C1988 C1990 1.353 . S
C1988 H1994 0.930 . S
N1989 Li1939 1.990 . S
N1989 C1988 1.314 . S
N1989 C1992 1.279 . S
C1990 C1988 1.353 . S
C1990 C1993 1.348 . S
C1990 H2022 0.929 . S
C1991 C1992 1.358 . S
C1991 C1993 1.356 . S
C1991 H2023 0.930 . S
C1992 N1989 1.279 . S
C1992 C1991 1.358 . S
C1992 H1995 0.930 . S
C1993 C1990 1.348 . S
C1993 C1991 1.356 . S
H1994 C1988 0.930 . S
H1995 C1992 0.930 . S
O1996 Li1936 1.956 . S
O1996 Li1937 1.970 . S
O1996 Li1938 1.961 . S
O1996 C1940 1.325 . S
O1997 Li1936 1.970 . S
O1997 Li1937 1.956 . S
O1997 Li1939 1.961 . S
O1997 C1946 1.325 . S
O1998 Li1936 1.961 . S
O1998 Li1938 1.956 . S
O1998 Li1939 1.970 . S
O1998 C1968 1.325 . S
O1999 Li1937 1.961 . S
O1999 Li1938 1.970 . S
O1999 Li1939 1.956 . S
O1999 C1974 1.325 . S
H2000 C1942 0.929 . S
H2001 C1943 0.930 . S
H2002 C1944 0.930 . S
H2003 C1945 0.930 . S
H2004 C1947 0.930 . S
H2005 C1949 0.929 . S
H2006 C1950 0.930 . S
H2007 C1951 0.930 . S
H2008 C1954 0.930 . S
H2009 C1957 0.929 . S
H2010 C1962 0.929 . S
H2011 C1963 0.930 . S
H2012 C1970 0.929 . S
H2013 C1971 0.930 . S
H2014 C1972 0.930 . S
H2015 C1973 0.930 . S
H2016 C1975 0.929 . S
H2017 C1976 0.930 . S
H2018 C1977 0.930 . S
H2019 C1978 0.930 . S
H2020 C1982 0.929 . S
H2021 C1984 0.930 . S
H2022 C1990 0.929 . S
H2023 C1991 0.930 . S
Li2024 N2041 1.990 . S
Li2024 O2084 1.956 . S
Li2024 O2085 1.970 . S
Li2024 O2086 1.961 . S
Li2025 N2049 1.990 . S
Li2025 O2084 1.970 . S
Li2025 O2085 1.956 . S
Li2025 O2087 1.961 . S
Li2026 N2071 1.990 . S
Li2026 O2084 1.961 . S
Li2026 O2086 1.956 . S
Li2026 O2087 1.970 . S
Li2027 N2077 1.990 . S
Li2027 O2085 1.961 . S
Li2027 O2086 1.970 . S
Li2027 O2087 1.956 . S
C2028 C2030 1.348 . S
C2028 C2031 1.356 . S
C2028 O2084 1.325 . S
N2029 C2032 1.314 . S
N2029 C2033 1.279 . S
C2030 C2028 1.348 . S
C2030 C2032 1.353 . S
C2030 H2088 0.929 . S
C2031 C2028 1.356 . S
C2031 C2033 1.358 . S
C2031 H2089 0.930 . S
C2032 N2029 1.314 . S
C2032 C2030 1.353 . S
C2032 H2090 0.930 . S
C2033 N2029 1.279 . S
C2033 C2031 1.358 . S
C2033 H2091 0.930 . S
C2034 C2037 1.348 . S
C2034 C2038 1.356 . S
C2034 O2085 1.325 . S
C2035 N2036 1.279 . S
C2035 C2038 1.358 . S
C2035 H2092 0.930 . S
N2036 C2035 1.279 . S
N2036 C2039 1.314 . S
C2037 C2034 1.348 . S
C2037 C2039 1.353 . S
C2037 H2093 0.929 . S
C2038 C2034 1.356 . S
C2038 C2035 1.358 . S
C2038 H2094 0.930 . S
C2039 N2036 1.314 . S
C2039 C2037 1.353 . S
C2039 H2095 0.930 . S
C2040 N2041 1.314 . S
C2040 C2045 1.353 . S
C2040 H2046 0.930 . S
N2041 Li2024 1.990 . S
N2041 C2040 1.314 . S
N2041 C2043 1.279 . S
C2042 C2043 1.358 . S
C2042 C2044 1.356 . S
C2042 H2096 0.930 . S
C2043 N2041 1.279 . S
C2043 C2042 1.358 . S
C2043 H2047 0.930 . S
C2044 C2042 1.356 . S
C2044 C2045 1.348 . S
C2045 C2040 1.353 . S
C2045 C2044 1.348 . S
C2045 H2097 0.929 . S
H2046 C2040 0.930 . S
H2047 C2043 0.930 . S
C2048 N2049 1.314 . S
C2048 C2050 1.353 . S
C2048 H2054 0.930 . S
N2049 Li2025 1.990 . S
N2049 C2048 1.314 . S
N2049 C2052 1.279 . S
C2050 C2048 1.353 . S
C2050 C2053 1.348 . S
C2050 H2098 0.929 . S
C2051 C2052 1.358 . S
C2051 C2053 1.356 . S
C2051 H2099 0.930 . S
C2052 N2049 1.279 . S
C2052 C2051 1.358 . S
C2052 H2055 0.930 . S
C2053 C2050 1.348 . S
C2053 C2051 1.356 . S
H2054 C2048 0.930 . S
H2055 C2052 0.930 . S
C2056 C2058 1.348 . S
C2056 C2059 1.356 . S
C2056 O2086 1.325 . S
N2057 C2060 1.314 . S
N2057 C2061 1.279 . S
C2058 C2056 1.348 . S
C2058 C2060 1.353 . S
C2058 H2100 0.929 . S
C2059 C2056 1.356 . S
C2059 C2061 1.358 . S
C2059 H2101 0.930 . S
C2060 N2057 1.314 . S
C2060 C2058 1.353 . S
C2060 H2102 0.930 . S
C2061 N2057 1.279 . S
C2061 C2059 1.358 . S
C2061 H2103 0.930 . S
C2062 C2063 1.348 . S
C2062 C2064 1.356 . S
C2062 O2087 1.325 . S
C2063 C2062 1.348 . S
C2063 C2065 1.353 . S
C2063 H2104 0.929 . S
C2064 C2062 1.356 . S
C2064 C2066 1.358 . S
C2064 H2105 0.930 . S
C2065 C2063 1.353 . S
C2065 N2067 1.314 . S
C2065 H2106 0.930 . S
C2066 C2064 1.358 . S
C2066 N2067 1.279 . S
C2066 H2107 0.930 . S
N2067 C2065 1.314 . S
N2067 C2066 1.279 . S
C2068 C2070 1.353 . S
C2068 N2071 1.314 . S
C2068 H2074 0.930 . S
C2069 N2071 1.279 . S
C2069 C2072 1.358 . S
C2069 H2075 0.930 . S
C2070 C2068 1.353 . S
C2070 C2073 1.348 . S
C2070 H2108 0.929 . S
N2071 Li2026 1.990 . S
N2071 C2068 1.314 . S
N2071 C2069 1.279 . S
C2072 C2069 1.358 . S
C2072 C2073 1.356 . S
C2072 H2109 0.930 . S
C2073 C2070 1.348 . S
C2073 C2072 1.356 . S
H2074 C2068 0.930 . S
H2075 C2069 0.930 . S
C2076 N2077 1.314 . S
C2076 C2078 1.353 . S
C2076 H2082 0.930 . S
N2077 Li2027 1.990 . S
N2077 C2076 1.314 . S
N2077 C2080 1.279 . S
C2078 C2076 1.353 . S
C2078 C2081 1.348 . S
C2078 H2110 0.929 . S
C2079 C2080 1.358 . S
C2079 C2081 1.356 . S
C2079 H2111 0.930 . S
C2080 N2077 1.279 . S
C2080 C2079 1.358 . S
C2080 H2083 0.930 . S
C2081 C2078 1.348 . S
C2081 C2079 1.356 . S
H2082 C2076 0.930 . S
H2083 C2080 0.930 . S
O2084 Li2024 1.956 . S
O2084 Li2025 1.970 . S
O2084 Li2026 1.961 . S
O2084 C2028 1.325 . S
O2085 Li2024 1.970 . S
O2085 Li2025 1.956 . S
O2085 Li2027 1.961 . S
O2085 C2034 1.325 . S
O2086 Li2024 1.961 . S
O2086 Li2026 1.956 . S
O2086 Li2027 1.970 . S
O2086 C2056 1.325 . S
O2087 Li2025 1.961 . S
O2087 Li2026 1.970 . S
O2087 Li2027 1.956 . S
O2087 C2062 1.325 . S
H2088 C2030 0.929 . S
H2089 C2031 0.930 . S
H2090 C2032 0.930 . S
H2091 C2033 0.930 . S
H2092 C2035 0.930 . S
H2093 C2037 0.929 . S
H2094 C2038 0.930 . S
H2095 C2039 0.930 . S
H2096 C2042 0.930 . S
H2097 C2045 0.929 . S
H2098 C2050 0.929 . S
H2099 C2051 0.930 . S
H2100 C2058 0.929 . S
H2101 C2059 0.930 . S
H2102 C2060 0.930 . S
H2103 C2061 0.930 . S
H2104 C2063 0.929 . S
H2105 C2064 0.930 . S
H2106 C2065 0.930 . S
H2107 C2066 0.930 . S
H2108 C2070 0.929 . S
H2109 C2072 0.930 . S
H2110 C2078 0.929 . S
H2111 C2079 0.930 . S
Tb2112 O2115 2.453 . S
Tb2112 O2116 2.596 . S
Tb2112 O2117 2.374 1_554 S
Tb2112 O2125 2.343 1_455 S
Tb2112 O2127 2.353 . S
Tb2112 O2129 2.427 . S
Tb2112 O2130 2.513 1_554 S
C2113 O2117 1.251 . S
C2113 O2119 1.263 . S
Tb2114 O2116 2.343 1_655 S
Tb2114 O2119 2.353 1_654 S
Tb2114 O2122 2.427 1_645 S
Tb2114 O2123 2.513 1_645 S
Tb2114 O2124 2.453 . S
Tb2114 O2125 2.596 . S
Tb2114 O2126 2.374 . S
O2115 Tb2112 2.453 . S
O2115 C2131 1.245 . S
O2116 Tb2112 2.596 . S
O2116 Tb2114 2.343 1_455 S
O2116 C2131 1.259 . S
O2117 Tb2112 2.374 1_556 S
O2117 C2113 1.251 . S
C2118 O2122 1.275 . S
C2118 O2123 1.246 . S
O2119 C2113 1.263 . S
O2119 Tb2114 2.353 1_456 S
C2120 O2124 1.245 . S
C2120 O2125 1.259 . S
C2121 O2126 1.250 . S
C2121 O2127 1.263 1_655 S
O2122 Tb2114 2.427 1_465 S
O2122 C2118 1.275 . S
O2123 Tb2114 2.513 1_465 S
O2123 C2118 1.246 . S
O2124 Tb2114 2.453 . S
O2124 C2120 1.245 . S
O2125 Tb2112 2.343 1_655 S
O2125 Tb2114 2.596 . S
O2125 C2120 1.259 . S
O2126 Tb2114 2.374 . S
O2126 C2121 1.250 . S
O2127 Tb2112 2.353 . S
O2127 C2121 1.263 1_455 S
C2128 O2129 1.275 . S
C2128 O2130 1.246 1_554 S
O2129 Tb2112 2.427 . S
O2129 C2128 1.275 . S
O2130 Tb2112 2.513 1_556 S
O2130 C2128 1.246 1_556 S
C2131 O2115 1.245 . S
C2131 O2116 1.259 . S
Tb2132 O2135 2.453 . S
Tb2132 O2136 2.596 . S
Tb2132 O2137 2.374 . S
Tb2132 O2145 2.343 . S
Tb2132 O2147 2.353 . S
Tb2132 O2149 2.427 . S
Tb2132 O2150 2.513 . S
C2133 O2137 1.251 . S
C2133 O2139 1.263 . S
Tb2134 O2136 2.343 . S
Tb2134 O2139 2.353 . S
Tb2134 O2142 2.427 . S
Tb2134 O2143 2.513 . S
Tb2134 O2144 2.453 . S
Tb2134 O2145 2.596 . S
Tb2134 O2146 2.374 . S
O2135 Tb2132 2.453 . S
O2135 C2151 1.245 . S
O2136 Tb2132 2.596 . S
O2136 Tb2134 2.343 . S
O2136 C2151 1.259 . S
O2137 Tb2132 2.374 . S
O2137 C2133 1.251 . S
C2138 O2142 1.275 . S
C2138 O2143 1.246 . S
O2139 C2133 1.263 . S
O2139 Tb2134 2.353 . S
C2140 O2144 1.245 . S
C2140 O2145 1.259 . S
C2141 O2146 1.250 . S
C2141 O2147 1.263 . S
O2142 Tb2134 2.427 . S
O2142 C2138 1.275 . S
O2143 Tb2134 2.513 . S
O2143 C2138 1.246 . S
O2144 Tb2134 2.453 . S
O2144 C2140 1.245 . S
O2145 Tb2132 2.343 . S
O2145 Tb2134 2.596 . S
O2145 C2140 1.259 . S
O2146 Tb2134 2.374 . S
O2146 C2141 1.250 . S
O2147 Tb2132 2.353 . S
O2147 C2141 1.263 . S
C2148 O2149 1.275 . S
C2148 O2150 1.246 . S
O2149 Tb2132 2.427 . S
O2149 C2148 1.275 . S
O2150 Tb2132 2.513 . S
O2150 C2148 1.246 . S
C2151 O2135 1.245 . S
C2151 O2136 1.259 . S
Tb2152 O2155 2.453 . S
Tb2152 O2156 2.596 . S
Tb2152 O2157 2.374 . S
Tb2152 O2165 2.343 . S
Tb2152 O2167 2.353 . S
Tb2152 O2169 2.427 . S
Tb2152 O2170 2.513 . S
C2153 O2157 1.251 . S
C2153 O2159 1.263 . S
Tb2154 O2156 2.343 . S
Tb2154 O2159 2.353 . S
Tb2154 O2162 2.427 . S
Tb2154 O2163 2.513 . S
Tb2154 O2164 2.453 1_545 S
Tb2154 O2165 2.596 . S
Tb2154 O2166 2.374 . S
O2155 Tb2152 2.453 . S
O2155 C2171 1.245 . S
O2156 Tb2152 2.596 . S
O2156 Tb2154 2.343 . S
O2156 C2171 1.259 . S
O2157 Tb2152 2.374 . S
O2157 C2153 1.251 . S
C2158 O2162 1.275 . S
C2158 O2163 1.246 . S
O2159 C2153 1.263 . S
O2159 Tb2154 2.353 . S
C2160 O2164 1.245 . S
C2160 O2165 1.259 1_565 S
C2161 O2166 1.250 . S
C2161 O2167 1.263 . S
O2162 Tb2154 2.427 . S
O2162 C2158 1.275 . S
O2163 Tb2154 2.513 . S
O2163 C2158 1.246 . S
O2164 Tb2154 2.453 1_565 S
O2164 C2160 1.245 . S
O2165 Tb2152 2.343 . S
O2165 Tb2154 2.596 . S
O2165 C2160 1.259 1_545 S
O2166 Tb2154 2.374 . S
O2166 C2161 1.250 . S
O2167 Tb2152 2.353 . S
O2167 C2161 1.263 . S
C2168 O2169 1.275 . S
C2168 O2170 1.246 . S
O2169 Tb2152 2.427 . S
O2169 C2168 1.275 . S
O2170 Tb2152 2.513 . S
O2170 C2168 1.246 . S
C2171 O2155 1.245 . S
C2171 O2156 1.259 . S
Tb2172 O2175 2.453 . S
Tb2172 O2176 2.596 . S
Tb2172 O2177 2.374 . S
Tb2172 O2185 2.343 . S
Tb2172 O2187 2.353 . S
Tb2172 O2189 2.427 . S
Tb2172 O2190 2.513 . S
C2173 O2177 1.251 . S
C2173 O2179 1.263 . S
Tb2174 O2176 2.343 . S
Tb2174 O2179 2.353 . S
Tb2174 O2182 2.427 . S
Tb2174 O2183 2.513 . S
Tb2174 O2184 2.453 . S
Tb2174 O2185 2.596 . S
Tb2174 O2186 2.374 . S
O2175 Tb2172 2.453 . S
O2175 C2191 1.245 . S
O2176 Tb2172 2.596 . S
O2176 Tb2174 2.343 . S
O2176 C2191 1.259 . S
O2177 Tb2172 2.374 . S
O2177 C2173 1.251 . S
C2178 O2182 1.275 . S
C2178 O2183 1.246 . S
O2179 C2173 1.263 . S
O2179 Tb2174 2.353 . S
C2180 O2184 1.245 . S
C2180 O2185 1.259 . S
C2181 O2186 1.250 . S
C2181 O2187 1.263 . S
O2182 Tb2174 2.427 . S
O2182 C2178 1.275 . S
O2183 Tb2174 2.513 . S
O2183 C2178 1.246 . S
O2184 Tb2174 2.453 . S
O2184 C2180 1.245 . S
O2185 Tb2172 2.343 . S
O2185 Tb2174 2.596 . S
O2185 C2180 1.259 . S
O2186 Tb2174 2.374 . S
O2186 C2181 1.250 . S
O2187 Tb2172 2.353 . S
O2187 C2181 1.263 . S
C2188 O2189 1.275 . S
C2188 O2190 1.246 . S
O2189 Tb2172 2.427 . S
O2189 C2188 1.275 . S
O2190 Tb2172 2.513 . S
O2190 C2188 1.246 . S
C2191 O2175 1.245 . S
C2191 O2176 1.259 . S
Tb2192 O2195 2.453 1_545 S
Tb2192 O2196 2.596 . S
Tb2192 O2197 2.374 1_455 S
Tb2192 O2205 2.343 . S
Tb2192 O2207 2.353 . S
Tb2192 O2209 2.427 . S
Tb2192 O2210 2.513 1_455 S
C2193 O2197 1.251 . S
C2193 O2199 1.263 . S
Tb2194 O2196 2.343 . S
Tb2194 O2199 2.353 1_455 S
Tb2194 O2202 2.427 . S
Tb2194 O2203 2.513 . S
Tb2194 O2204 2.453 . S
Tb2194 O2205 2.596 . S
Tb2194 O2206 2.374 . S
O2195 Tb2192 2.453 1_565 S
O2195 C2211 1.245 . S
O2196 Tb2192 2.596 . S
O2196 Tb2194 2.343 . S
O2196 C2211 1.259 1_545 S
O2197 Tb2192 2.374 1_655 S
O2197 C2193 1.251 . S
C2198 O2202 1.275 . S
C2198 O2203 1.246 . S
O2199 C2193 1.263 . S
O2199 Tb2194 2.353 1_655 S
C2200 O2204 1.245 . S
C2200 O2205 1.259 . S
C2201 O2206 1.250 . S
C2201 O2207 1.263 . S
O2202 Tb2194 2.427 . S
O2202 C2198 1.275 . S
O2203 Tb2194 2.513 . S
O2203 C2198 1.246 . S
O2204 Tb2194 2.453 . S
O2204 C2200 1.245 . S
O2205 Tb2192 2.343 . S
O2205 Tb2194 2.596 . S
O2205 C2200 1.259 . S
O2206 Tb2194 2.374 . S
O2206 C2201 1.250 . S
O2207 Tb2192 2.353 . S
O2207 C2201 1.263 . S
C2208 O2209 1.275 1_655 S
C2208 O2210 1.246 . S
O2209 Tb2192 2.427 . S
O2209 C2208 1.275 1_455 S
O2210 Tb2192 2.513 1_655 S
O2210 C2208 1.246 . S
C2211 O2195 1.245 . S
C2211 O2196 1.259 1_565 S
Tb2212 O2215 2.453 . S
Tb2212 O2216 2.596 . S
Tb2212 O2217 2.374 . S
Tb2212 O2225 2.343 . S
Tb2212 O2227 2.353 . S
Tb2212 O2229 2.427 . S
Tb2212 O2230 2.513 . S
C2213 O2217 1.251 . S
C2213 O2219 1.263 . S
Tb2214 O2216 2.343 . S
Tb2214 O2219 2.353 . S
Tb2214 O2222 2.427 . S
Tb2214 O2223 2.513 . S
Tb2214 O2224 2.453 . S
Tb2214 O2225 2.596 . S
Tb2214 O2226 2.374 . S
O2215 Tb2212 2.453 . S
O2215 C2231 1.245 . S
O2216 Tb2212 2.596 . S
O2216 Tb2214 2.343 . S
O2216 C2231 1.259 . S
O2217 Tb2212 2.374 . S
O2217 C2213 1.251 . S
C2218 O2222 1.275 . S
C2218 O2223 1.246 . S
O2219 C2213 1.263 . S
O2219 Tb2214 2.353 . S
C2220 O2224 1.245 . S
C2220 O2225 1.259 . S
C2221 O2226 1.250 . S
C2221 O2227 1.263 . S
O2222 Tb2214 2.427 . S
O2222 C2218 1.275 . S
O2223 Tb2214 2.513 . S
O2223 C2218 1.246 . S
O2224 Tb2214 2.453 . S
O2224 C2220 1.245 . S
O2225 Tb2212 2.343 . S
O2225 Tb2214 2.596 . S
O2225 C2220 1.259 . S
O2226 Tb2214 2.374 . S
O2226 C2221 1.250 . S
O2227 Tb2212 2.353 . S
O2227 C2221 1.263 . S
C2228 O2229 1.275 . S
C2228 O2230 1.246 . S
O2229 Tb2212 2.427 . S
O2229 C2228 1.275 . S
O2230 Tb2212 2.513 . S
O2230 C2228 1.246 . S
C2231 O2215 1.245 . S
C2231 O2216 1.259 . S
Tb2232 O2235 2.453 . S
Tb2232 O2236 2.596 . S
Tb2232 O2237 2.374 1_545 S
Tb2232 O2245 2.343 1_556 S
Tb2232 O2247 2.353 1_556 S
Tb2232 O2249 2.427 1_556 S
Tb2232 O2250 2.514 1_556 S
C2233 O2237 1.251 1_554 S
C2233 O2239 1.274 . S
Tb2234 O2236 2.343 1_554 S
Tb2234 O2239 2.320 1_545 S
Tb2234 O2242 2.427 . S
Tb2234 O2243 2.513 . S
Tb2234 O2244 2.453 . S
Tb2234 O2245 2.596 . S
Tb2234 O2246 2.374 . S
O2235 Tb2232 2.453 . S
O2235 C2251 1.245 . S
O2236 Tb2232 2.596 . S
O2236 Tb2234 2.343 1_556 S
O2236 C2251 1.259 . S
O2237 Tb2232 2.374 1_565 S
O2237 C2233 1.251 1_556 S
C2238 O2242 1.275 . S
C2238 O2243 1.246 . S
O2239 C2233 1.274 . S
O2239 Tb2234 2.320 1_565 S
C2240 O2244 1.245 . S
C2240 O2245 1.259 . S
C2241 O2246 1.250 . S
C2241 O2247 1.263 . S
O2242 Tb2234 2.427 . S
O2242 C2238 1.275 . S
O2243 Tb2234 2.513 . S
O2243 C2238 1.246 . S
O2244 Tb2234 2.453 . S
O2244 C2240 1.245 . S
O2245 Tb2232 2.343 1_554 S
O2245 Tb2234 2.596 . S
O2245 C2240 1.259 . S
O2246 Tb2234 2.374 . S
O2246 C2241 1.250 . S
O2247 Tb2232 2.353 1_554 S
O2247 C2241 1.263 . S
C2248 O2249 1.275 . S
C2248 O2250 1.247 . S
O2249 Tb2232 2.427 1_554 S
O2249 C2248 1.275 . S
O2250 Tb2232 2.514 1_554 S
O2250 C2248 1.247 . S
C2251 O2235 1.245 . S
C2251 O2236 1.259 . S
Tb2252 O2255 2.453 . S
Tb2252 O2256 2.596 . S
Tb2252 O2257 2.374 . S
Tb2252 O2265 2.343 . S
Tb2252 O2267 2.353 . S
Tb2252 O2269 2.427 . S
Tb2252 O2270 2.513 . S
C2253 O2257 1.251 . S
C2253 O2259 1.263 . S
Tb2254 O2256 2.343 . S
Tb2254 O2259 2.353 . S
Tb2254 O2262 2.427 . S
Tb2254 O2263 2.513 . S
Tb2254 O2264 2.453 . S
Tb2254 O2265 2.596 . S
Tb2254 O2266 2.374 . S
O2255 Tb2252 2.453 . S
O2255 C2271 1.245 . S
O2256 Tb2252 2.596 . S
O2256 Tb2254 2.343 . S
O2256 C2271 1.259 . S
O2257 Tb2252 2.374 . S
O2257 C2253 1.251 . S
C2258 O2262 1.275 . S
C2258 O2263 1.246 . S
O2259 C2253 1.263 . S
O2259 Tb2254 2.353 . S
C2260 O2264 1.245 . S
C2260 O2265 1.259 . S
C2261 O2266 1.250 . S
C2261 O2267 1.263 . S
O2262 Tb2254 2.427 . S
O2262 C2258 1.275 . S
O2263 Tb2254 2.513 . S
O2263 C2258 1.246 . S
O2264 Tb2254 2.453 . S
O2264 C2260 1.245 . S
O2265 Tb2252 2.343 . S
O2265 Tb2254 2.596 . S
O2265 C2260 1.259 . S
O2266 Tb2254 2.374 . S
O2266 C2261 1.250 . S
O2267 Tb2252 2.353 . S
O2267 C2261 1.263 . S
C2268 O2269 1.275 . S
C2268 O2270 1.246 . S
O2269 Tb2252 2.427 . S
O2269 C2268 1.275 . S
O2270 Tb2252 2.513 . S
O2270 C2268 1.246 . S
C2271 O2255 1.245 . S
C2271 O2256 1.259 . S
Tb2272 O2275 2.453 1_556 S
Tb2272 O2276 2.596 1_556 S
Tb2272 O2277 2.374 1_556 S
Tb2272 O2285 2.343 1_556 S
Tb2272 O2287 2.353 . S
Tb2272 O2289 2.427 . S
Tb2272 O2290 2.513 . S
C2273 O2277 1.251 . S
C2273 O2279 1.263 . S
Tb2274 O2276 2.343 . S
Tb2274 O2279 2.353 . S
Tb2274 O2282 2.427 . S
Tb2274 O2283 2.513 . S
Tb2274 O2284 2.453 . S
Tb2274 O2285 2.596 . S
Tb2274 O2286 2.374 . S
O2275 Tb2272 2.453 1_554 S
O2275 C2291 1.245 . S
O2276 Tb2272 2.596 1_554 S
O2276 Tb2274 2.343 . S
O2276 C2291 1.259 . S
O2277 Tb2272 2.374 1_554 S
O2277 C2273 1.251 . S
C2278 O2282 1.275 . S
C2278 O2283 1.246 . S
O2279 C2273 1.263 . S
O2279 Tb2274 2.353 . S
C2280 O2284 1.245 . S
C2280 O2285 1.259 . S
C2281 O2286 1.250 . S
C2281 O2287 1.263 1_554 S
O2282 Tb2274 2.427 . S
O2282 C2278 1.275 . S
O2283 Tb2274 2.513 . S
O2283 C2278 1.246 . S
O2284 Tb2274 2.453 . S
O2284 C2280 1.245 . S
O2285 Tb2272 2.343 1_554 S
O2285 Tb2274 2.596 . S
O2285 C2280 1.259 . S
O2286 Tb2274 2.374 . S
O2286 C2281 1.250 . S
O2287 Tb2272 2.353 . S
O2287 C2281 1.263 1_556 S
C2288 O2289 1.275 . S
C2288 O2290 1.246 . S
O2289 Tb2272 2.427 . S
O2289 C2288 1.275 . S
O2290 Tb2272 2.513 . S
O2290 C2288 1.246 . S
C2291 O2275 1.245 . S
C2291 O2276 1.259 . S
Tb2292 O2295 2.453 . S
Tb2292 O2296 2.596 . S
Tb2292 O2297 2.374 . S
Tb2292 O2305 2.343 . S
Tb2292 O2307 2.353 . S
Tb2292 O2309 2.427 . S
Tb2292 O2310 2.513 . S
C2293 O2297 1.251 . S
C2293 O2299 1.263 . S
Tb2294 O2296 2.343 . S
Tb2294 O2299 2.353 . S
Tb2294 O2302 2.427 . S
Tb2294 O2303 2.513 . S
Tb2294 O2304 2.453 . S
Tb2294 O2305 2.596 . S
Tb2294 O2306 2.374 . S
O2295 Tb2292 2.453 . S
O2295 C2311 1.245 . S
O2296 Tb2292 2.596 . S
O2296 Tb2294 2.343 . S
O2296 C2311 1.259 . S
O2297 Tb2292 2.374 . S
O2297 C2293 1.251 . S
C2298 O2302 1.275 . S
C2298 O2303 1.246 . S
O2299 C2293 1.263 . S
O2299 Tb2294 2.353 . S
C2300 O2304 1.245 . S
C2300 O2305 1.259 . S
C2301 O2306 1.250 . S
C2301 O2307 1.263 . S
O2302 Tb2294 2.427 . S
O2302 C2298 1.275 . S
O2303 Tb2294 2.513 . S
O2303 C2298 1.246 . S
O2304 Tb2294 2.453 . S
O2304 C2300 1.245 . S
O2305 Tb2292 2.343 . S
O2305 Tb2294 2.596 . S
O2305 C2300 1.259 . S
O2306 Tb2294 2.374 . S
O2306 C2301 1.250 . S
O2307 Tb2292 2.353 . S
O2307 C2301 1.263 . S
C2308 O2309 1.275 . S
C2308 O2310 1.246 . S
O2309 Tb2292 2.427 . S
O2309 C2308 1.275 . S
O2310 Tb2292 2.513 . S
O2310 C2308 1.246 . S
C2311 O2295 1.245 . S
C2311 O2296 1.259 . S
Tb2312 O2315 2.453 1_655 S
Tb2312 O2316 2.596 1_655 S
Tb2312 O2317 2.374 . S
Tb2312 O2325 2.343 . S
Tb2312 O2327 2.353 . S
Tb2312 O2329 2.427 . S
Tb2312 O2330 2.513 . S
C2313 O2317 1.251 1_455 S
C2313 O2319 1.263 . S
Tb2314 O2316 2.343 . S
Tb2314 O2319 2.353 . S
Tb2314 O2322 2.427 . S
Tb2314 O2323 2.513 . S
Tb2314 O2324 2.453 . S
Tb2314 O2325 2.596 1_455 S
Tb2314 O2326 2.374 . S
O2315 Tb2312 2.453 1_455 S
O2315 C2331 1.245 . S
O2316 Tb2312 2.596 1_455 S
O2316 Tb2314 2.343 . S
O2316 C2331 1.259 . S
O2317 Tb2312 2.374 . S
O2317 C2313 1.251 1_655 S
C2318 O2322 1.275 . S
C2318 O2323 1.246 . S
O2319 C2313 1.263 . S
O2319 Tb2314 2.353 . S
C2320 O2324 1.245 1_655 S
C2320 O2325 1.259 . S
C2321 O2326 1.250 . S
C2321 O2327 1.263 1_455 S
O2322 Tb2314 2.427 . S
O2322 C2318 1.275 . S
O2323 Tb2314 2.513 . S
O2323 C2318 1.246 . S
O2324 Tb2314 2.453 . S
O2324 C2320 1.245 1_455 S
O2325 Tb2312 2.343 . S
O2325 Tb2314 2.596 1_655 S
O2325 C2320 1.259 . S
O2326 Tb2314 2.374 . S
O2326 C2321 1.250 . S
O2327 Tb2312 2.353 . S
O2327 C2321 1.263 1_655 S
C2328 O2329 1.275 . S
C2328 O2330 1.246 . S
O2329 Tb2312 2.427 . S
O2329 C2328 1.275 . S
O2330 Tb2312 2.513 . S
O2330 C2328 1.246 . S
C2331 O2315 1.245 . S
C2331 O2316 1.259 . S
Tb2332 O2335 2.453 . S
Tb2332 O2336 2.596 . S
Tb2332 O2337 2.374 . S
Tb2332 O2345 2.343 . S
Tb2332 O2347 2.353 . S
Tb2332 O2349 2.427 . S
Tb2332 O2350 2.513 . S
C2333 O2337 1.251 . S
C2333 O2339 1.263 . S
Tb2334 O2336 2.343 . S
Tb2334 O2339 2.353 . S
Tb2334 O2342 2.427 . S
Tb2334 O2343 2.513 . S
Tb2334 O2344 2.453 . S
Tb2334 O2345 2.596 . S
Tb2334 O2346 2.374 . S
O2335 Tb2332 2.453 . S
O2335 C2351 1.245 . S
O2336 Tb2332 2.596 . S
O2336 Tb2334 2.343 . S
O2336 C2351 1.259 . S
O2337 Tb2332 2.374 . S
O2337 C2333 1.251 . S
C2338 O2342 1.275 . S
C2338 O2343 1.246 . S
O2339 C2333 1.263 . S
O2339 Tb2334 2.353 . S
C2340 O2344 1.245 . S
C2340 O2345 1.259 . S
C2341 O2346 1.250 . S
C2341 O2347 1.263 . S
O2342 Tb2334 2.427 . S
O2342 C2338 1.275 . S
O2343 Tb2334 2.513 . S
O2343 C2338 1.246 . S
O2344 Tb2334 2.453 . S
O2344 C2340 1.245 . S
O2345 Tb2332 2.343 . S
O2345 Tb2334 2.596 . S
O2345 C2340 1.259 . S
O2346 Tb2334 2.374 . S
O2346 C2341 1.250 . S
O2347 Tb2332 2.353 . S
O2347 C2341 1.263 . S
C2348 O2349 1.275 . S
C2348 O2350 1.246 . S
O2349 Tb2332 2.427 . S
O2349 C2348 1.275 . S
O2350 Tb2332 2.513 . S
O2350 C2348 1.246 . S
C2351 O2335 1.245 . S
C2351 O2336 1.259 . S
Tb2352 O2355 2.453 . S
Tb2352 O2356 2.596 . S
Tb2352 O2357 2.374 . S
Tb2352 O2365 2.343 . S
Tb2352 O2367 2.353 . S
Tb2352 O2369 2.427 . S
Tb2352 O2370 2.513 . S
C2353 O2357 1.251 . S
C2353 O2359 1.263 . S
Tb2354 O2356 2.343 . S
Tb2354 O2359 2.353 . S
Tb2354 O2362 2.427 . S
Tb2354 O2363 2.513 . S
Tb2354 O2364 2.453 . S
Tb2354 O2365 2.596 . S
Tb2354 O2366 2.374 . S
O2355 Tb2352 2.453 . S
O2355 C2371 1.245 . S
O2356 Tb2352 2.596 . S
O2356 Tb2354 2.343 . S
O2356 C2371 1.259 . S
O2357 Tb2352 2.374 . S
O2357 C2353 1.251 . S
C2358 O2362 1.275 . S
C2358 O2363 1.246 . S
O2359 C2353 1.263 . S
O2359 Tb2354 2.353 . S
C2360 O2364 1.245 . S
C2360 O2365 1.259 . S
C2361 O2366 1.250 . S
C2361 O2367 1.263 . S
O2362 Tb2354 2.427 . S
O2362 C2358 1.275 . S
O2363 Tb2354 2.513 . S
O2363 C2358 1.246 . S
O2364 Tb2354 2.453 . S
O2364 C2360 1.245 . S
O2365 Tb2352 2.343 . S
O2365 Tb2354 2.596 . S
O2365 C2360 1.259 . S
O2366 Tb2354 2.374 . S
O2366 C2361 1.250 . S
O2367 Tb2352 2.353 . S
O2367 C2361 1.263 . S
C2368 O2369 1.275 . S
C2368 O2370 1.246 . S
O2369 Tb2352 2.427 . S
O2369 C2368 1.275 . S
O2370 Tb2352 2.513 . S
O2370 C2368 1.246 . S
C2371 O2355 1.245 . S
C2371 O2356 1.259 . S
Tb2372 O2375 2.453 . S
Tb2372 O2376 2.596 . S
Tb2372 O2377 2.374 . S
Tb2372 O2385 2.343 . S
Tb2372 O2387 2.353 . S
Tb2372 O2389 2.427 . S
Tb2372 O2390 2.513 . S
C2373 O2377 1.251 . S
C2373 O2379 1.263 . S
Tb2374 O2376 2.343 . S
Tb2374 O2379 2.353 . S
Tb2374 O2382 2.427 . S
Tb2374 O2383 2.513 . S
Tb2374 O2384 2.453 . S
Tb2374 O2385 2.596 . S
Tb2374 O2386 2.374 . S
O2375 Tb2372 2.453 . S
O2375 C2391 1.245 . S
O2376 Tb2372 2.596 . S
O2376 Tb2374 2.343 . S
O2376 C2391 1.259 . S
O2377 Tb2372 2.374 . S
O2377 C2373 1.251 . S
C2378 O2382 1.275 . S
C2378 O2383 1.246 . S
O2379 C2373 1.263 . S
O2379 Tb2374 2.353 . S
C2380 O2384 1.245 . S
C2380 O2385 1.259 . S
C2381 O2386 1.250 . S
C2381 O2387 1.263 . S
O2382 Tb2374 2.427 . S
O2382 C2378 1.275 . S
O2383 Tb2374 2.513 . S
O2383 C2378 1.246 . S
O2384 Tb2374 2.453 . S
O2384 C2380 1.245 . S
O2385 Tb2372 2.343 . S
O2385 Tb2374 2.596 . S
O2385 C2380 1.259 . S
O2386 Tb2374 2.374 . S
O2386 C2381 1.250 . S
O2387 Tb2372 2.353 . S
O2387 C2381 1.263 . S
C2388 O2389 1.275 . S
C2388 O2390 1.246 . S
O2389 Tb2372 2.427 . S
O2389 C2388 1.275 . S
O2390 Tb2372 2.513 . S
O2390 C2388 1.246 . S
C2391 O2375 1.245 . S
C2391 O2376 1.259 . S
Tb2392 O2395 2.453 . S
Tb2392 O2396 2.596 . S
Tb2392 O2397 2.374 . S
Tb2392 O2405 2.343 . S
Tb2392 O2407 2.353 . S
Tb2392 O2409 2.427 . S
Tb2392 O2410 2.513 . S
C2393 O2397 1.251 . S
C2393 O2399 1.263 . S
Tb2394 O2396 2.343 . S
Tb2394 O2399 2.353 . S
Tb2394 O2402 2.427 . S
Tb2394 O2403 2.513 . S
Tb2394 O2404 2.453 . S
Tb2394 O2405 2.596 . S
Tb2394 O2406 2.374 . S
O2395 Tb2392 2.453 . S
O2395 C2411 1.245 . S
O2396 Tb2392 2.596 . S
O2396 Tb2394 2.343 . S
O2396 C2411 1.259 . S
O2397 Tb2392 2.374 . S
O2397 C2393 1.251 . S
C2398 O2402 1.275 . S
C2398 O2403 1.246 . S
O2399 C2393 1.263 . S
O2399 Tb2394 2.353 . S
C2400 O2404 1.245 . S
C2400 O2405 1.259 . S
C2401 O2406 1.250 . S
C2401 O2407 1.263 . S
O2402 Tb2394 2.427 . S
O2402 C2398 1.275 . S
O2403 Tb2394 2.513 . S
O2403 C2398 1.246 . S
O2404 Tb2394 2.453 . S
O2404 C2400 1.245 . S
O2405 Tb2392 2.343 . S
O2405 Tb2394 2.596 . S
O2405 C2400 1.259 . S
O2406 Tb2394 2.374 . S
O2406 C2401 1.250 . S
O2407 Tb2392 2.353 . S
O2407 C2401 1.263 . S
C2408 O2409 1.275 . S
C2408 O2410 1.246 . S
O2409 Tb2392 2.427 . S
O2409 C2408 1.275 . S
O2410 Tb2392 2.513 . S
O2410 C2408 1.246 . S
C2411 O2395 1.245 . S
C2411 O2396 1.259 . S
Tb2412 O2415 2.453 . S
Tb2412 O2416 2.596 . S
Tb2412 O2417 2.374 . S
Tb2412 O2425 2.343 . S
Tb2412 O2427 2.353 1_554 S
Tb2412 O2429 2.427 1_554 S
Tb2412 O2430 2.513 . S
C2413 O2417 1.251 . S
C2413 O2419 1.263 1_455 S
Tb2414 O2416 2.343 1_655 S
Tb2414 O2419 2.353 . S
Tb2414 O2422 2.427 . S
Tb2414 O2423 2.513 . S
Tb2414 O2424 2.453 . S
Tb2414 O2425 2.596 1_655 S
Tb2414 O2426 2.374 1_554 S
O2415 Tb2412 2.453 . S
O2415 C2431 1.245 . S
O2416 Tb2412 2.596 . S
O2416 Tb2414 2.343 1_455 S
O2416 C2431 1.259 . S
O2417 Tb2412 2.374 . S
O2417 C2413 1.251 . S
C2418 O2422 1.275 . S
C2418 O2423 1.246 . S
O2419 C2413 1.263 1_655 S
O2419 Tb2414 2.353 . S
C2420 O2424 1.245 1_455 S
C2420 O2425 1.259 . S
C2421 O2426 1.216 1_455 S
C2421 O2427 1.299 . S
O2422 Tb2414 2.427 . S
O2422 C2418 1.275 . S
O2423 Tb2414 2.513 . S
O2423 C2418 1.246 . S
O2424 Tb2414 2.453 . S
O2424 C2420 1.245 1_655 S
O2425 Tb2412 2.343 . S
O2425 Tb2414 2.596 1_455 S
O2425 C2420 1.259 . S
O2426 Tb2414 2.374 1_556 S
O2426 C2421 1.216 1_655 S
O2427 Tb2412 2.353 1_556 S
O2427 C2421 1.299 . S
C2428 O2429 1.275 1_554 S
C2428 O2430 1.246 . S
O2429 Tb2412 2.427 1_556 S
O2429 C2428 1.275 1_556 S
O2430 Tb2412 2.513 . S
O2430 C2428 1.246 . S
C2431 O2415 1.245 . S
C2431 O2416 1.259 . S
H2432 C2440 0.951 . S
H2433 C2445 0.950 . S
H2434 C2442 0.947 1_655 S
H2435 C2444 0.950 . S
H2436 C2446 0.950 . S
H2437 C2448 0.950 . S
H2438 C2450 0.930 1_654 S
H2439 C2451 0.950 1_655 S
C2440 H2432 0.951 . S
C2440 C2441 1.384 1_655 S
C2440 C2442 1.390 1_655 S
C2441 C2440 1.384 1_455 S
C2441 C2445 1.393 . S
C2442 H2434 0.947 1_455 S
C2442 C2440 1.390 1_455 S
C2442 C2443 1.404 . S
C2443 C2442 1.404 . S
C2443 C2444 1.398 . S
C2443 C2449 1.491 . S
C2444 H2435 0.950 . S
C2444 C2443 1.398 . S
C2444 C2445 1.391 . S
C2445 H2433 0.950 . S
C2445 C2441 1.393 . S
C2445 C2444 1.391 . S
C2446 H2436 0.950 . S
C2446 C2447 1.386 . S
C2446 C2448 1.391 . S
C2447 C2446 1.386 . S
C2447 C2451 1.393 1_556 S
C2448 H2437 0.950 . S
C2448 C2446 1.391 . S
C2448 C2449 1.400 . S
C2449 C2443 1.491 . S
C2449 C2448 1.400 . S
C2449 C2450 1.398 . S
C2450 H2438 0.930 1_456 S
C2450 C2449 1.398 . S
C2450 C2451 1.391 1_556 S
C2451 H2439 0.950 1_455 S
C2451 C2447 1.393 1_554 S
C2451 C2450 1.391 1_554 S
H2452 C2460 0.950 . S
H2453 C2465 0.950 . S
H2454 C2462 0.950 . S
H2455 C2464 0.950 . S
H2456 C2466 0.950 . S
H2457 C2468 0.950 . S
H2458 C2470 0.950 . S
H2459 C2471 0.950 . S
C2460 H2452 0.950 . S
C2460 C2461 1.386 . S
C2460 C2462 1.391 . S
C2461 C2460 1.386 . S
C2461 C2465 1.393 . S
C2462 H2454 0.950 . S
C2462 C2460 1.391 . S
C2462 C2463 1.400 . S
C2463 C2462 1.400 . S
C2463 C2464 1.398 . S
C2463 C2469 1.491 . S
C2464 H2455 0.950 . S
C2464 C2463 1.398 . S
C2464 C2465 1.391 . S
C2465 H2453 0.950 . S
C2465 C2461 1.393 . S
C2465 C2464 1.391 . S
C2466 H2456 0.950 . S
C2466 C2467 1.386 . S
C2466 C2468 1.391 . S
C2467 C2466 1.386 . S
C2467 C2471 1.393 . S
C2468 H2457 0.950 . S
C2468 C2466 1.391 . S
C2468 C2469 1.400 . S
C2469 C2463 1.491 . S
C2469 C2468 1.400 . S
C2469 C2470 1.398 . S
C2470 H2458 0.950 . S
C2470 C2469 1.398 . S
C2470 C2471 1.391 . S
C2471 H2459 0.950 . S
C2471 C2467 1.393 . S
C2471 C2470 1.391 . S
H2472 C2480 0.950 . S
H2473 C2485 0.950 . S
H2474 C2482 0.950 . S
H2475 C2484 0.950 . S
H2476 C2486 0.950 . S
H2477 C2488 0.950 . S
H2478 C2490 0.950 . S
H2479 C2491 0.950 . S
C2480 H2472 0.950 . S
C2480 C2481 1.386 . S
C2480 C2482 1.391 . S
C2481 C2480 1.386 . S
C2481 C2485 1.393 . S
C2482 H2474 0.950 . S
C2482 C2480 1.391 . S
C2482 C2483 1.400 . S
C2483 C2482 1.400 . S
C2483 C2484 1.398 . S
C2483 C2489 1.491 . S
C2484 H2475 0.950 . S
C2484 C2483 1.398 . S
C2484 C2485 1.391 . S
C2485 H2473 0.950 . S
C2485 C2481 1.393 . S
C2485 C2484 1.391 . S
C2486 H2476 0.950 . S
C2486 C2487 1.386 . S
C2486 C2488 1.391 . S
C2487 C2486 1.386 . S
C2487 C2491 1.393 . S
C2488 H2477 0.950 . S
C2488 C2486 1.391 . S
C2488 C2489 1.400 . S
C2489 C2483 1.491 . S
C2489 C2488 1.400 . S
C2489 C2490 1.398 . S
C2490 H2478 0.950 . S
C2490 C2489 1.398 . S
C2490 C2491 1.391 . S
C2491 H2479 0.950 . S
C2491 C2487 1.393 . S
C2491 C2490 1.391 . S
H2492 C2500 0.950 . S
H2493 C2505 0.950 . S
H2494 C2502 0.950 . S
H2495 C2504 0.950 . S
H2496 C2506 0.950 . S
H2497 C2508 0.950 . S
H2498 C2510 0.950 . S
H2499 C2511 0.950 . S
C2500 H2492 0.950 . S
C2500 C2501 1.386 . S
C2500 C2502 1.391 . S
C2501 C2500 1.386 . S
C2501 C2505 1.393 . S
C2502 H2494 0.950 . S
C2502 C2500 1.391 . S
C2502 C2503 1.400 . S
C2503 C2502 1.400 . S
C2503 C2504 1.398 . S
C2503 C2509 1.491 . S
C2504 H2495 0.950 . S
C2504 C2503 1.398 . S
C2504 C2505 1.391 . S
C2505 H2493 0.950 . S
C2505 C2501 1.393 . S
C2505 C2504 1.391 . S
C2506 H2496 0.950 . S
C2506 C2507 1.386 . S
C2506 C2508 1.391 . S
C2507 C2506 1.386 . S
C2507 C2511 1.393 . S
C2508 H2497 0.950 . S
C2508 C2506 1.391 . S
C2508 C2509 1.400 . S
C2509 C2503 1.491 . S
C2509 C2508 1.400 . S
C2509 C2510 1.398 . S
C2510 H2498 0.950 . S
C2510 C2509 1.398 . S
C2510 C2511 1.391 . S
C2511 H2499 0.950 . S
C2511 C2507 1.393 . S
C2511 C2510 1.391 . S
H2512 C2520 0.950 . S
H2513 C2525 0.950 . S
H2514 C2522 0.950 . S
H2515 C2524 0.950 . S
H2516 C2526 0.950 . S
H2517 C2528 0.950 . S
H2518 C2530 0.950 . S
H2519 C2531 0.950 . S
C2520 H2512 0.950 . S
C2520 C2521 1.386 1_655 S
C2520 C2522 1.391 . S
C2521 C2520 1.386 1_455 S
C2521 C2525 1.393 . S
C2522 H2514 0.950 . S
C2522 C2520 1.391 . S
C2522 C2523 1.400 1_655 S
C2523 C2522 1.400 1_455 S
C2523 C2524 1.398 . S
C2523 C2529 1.491 . S
C2524 H2515 0.950 . S
C2524 C2523 1.398 . S
C2524 C2525 1.391 . S
C2525 H2513 0.950 . S
C2525 C2521 1.393 . S
C2525 C2524 1.391 . S
C2526 H2516 0.950 . S
C2526 C2527 1.386 . S
C2526 C2528 1.391 . S
C2527 C2526 1.386 . S
C2527 C2531 1.393 1_455 S
C2528 H2517 0.950 . S
C2528 C2526 1.391 . S
C2528 C2529 1.400 . S
C2529 C2523 1.491 . S
C2529 C2528 1.400 . S
C2529 C2530 1.398 1_455 S
C2530 H2518 0.950 . S
C2530 C2529 1.398 1_655 S
C2530 C2531 1.391 . S
C2531 H2519 0.950 . S
C2531 C2527 1.393 1_655 S
C2531 C2530 1.391 . S
H2532 C2540 0.950 . S
H2533 C2545 0.950 . S
H2534 C2542 0.950 . S
H2535 C2544 0.950 . S
H2536 C2546 0.950 . S
H2537 C2548 0.950 . S
H2538 C2550 0.950 . S
H2539 C2551 0.950 . S
C2540 H2532 0.950 . S
C2540 C2541 1.386 . S
C2540 C2542 1.391 . S
C2541 C2540 1.386 . S
C2541 C2545 1.393 . S
C2542 H2534 0.950 . S
C2542 C2540 1.391 . S
C2542 C2543 1.400 . S
C2543 C2542 1.400 . S
C2543 C2544 1.398 . S
C2543 C2549 1.491 . S
C2544 H2535 0.950 . S
C2544 C2543 1.398 . S
C2544 C2545 1.391 . S
C2545 H2533 0.950 . S
C2545 C2541 1.393 . S
C2545 C2544 1.391 . S
C2546 H2536 0.950 . S
C2546 C2547 1.386 . S
C2546 C2548 1.391 . S
C2547 C2546 1.386 . S
C2547 C2551 1.393 . S
C2548 H2537 0.950 . S
C2548 C2546 1.391 . S
C2548 C2549 1.400 . S
C2549 C2543 1.491 . S
C2549 C2548 1.400 . S
C2549 C2550 1.398 . S
C2550 H2538 0.950 . S
C2550 C2549 1.398 . S
C2550 C2551 1.391 . S
C2551 H2539 0.950 . S
C2551 C2547 1.393 . S
C2551 C2550 1.391 . S
H2552 C2560 0.950 . S
H2553 C2565 0.950 . S
H2554 C2562 0.950 . S
H2555 C2564 0.950 . S
H2556 C2566 0.950 . S
H2557 C2568 0.950 . S
H2558 C2570 0.950 . S
H2559 C2571 0.950 . S
C2560 H2552 0.950 . S
C2560 C2561 1.386 . S
C2560 C2562 1.391 . S
C2561 C2560 1.386 . S
C2561 C2565 1.393 . S
C2562 H2554 0.950 . S
C2562 C2560 1.391 . S
C2562 C2563 1.400 . S
C2563 C2562 1.400 . S
C2563 C2564 1.398 . S
C2563 C2569 1.491 . S
C2564 H2555 0.950 . S
C2564 C2563 1.398 . S
C2564 C2565 1.391 . S
C2565 H2553 0.950 . S
C2565 C2561 1.393 . S
C2565 C2564 1.391 . S
C2566 H2556 0.950 . S
C2566 C2567 1.386 . S
C2566 C2568 1.391 . S
C2567 C2566 1.386 . S
C2567 C2571 1.393 . S
C2568 H2557 0.950 . S
C2568 C2566 1.391 . S
C2568 C2569 1.400 . S
C2569 C2563 1.491 . S
C2569 C2568 1.400 . S
C2569 C2570 1.398 . S
C2570 H2558 0.950 . S
C2570 C2569 1.398 . S
C2570 C2571 1.391 . S
C2571 H2559 0.950 . S
C2571 C2567 1.393 . S
C2571 C2570 1.391 . S
H2572 C2580 0.950 . S
H2573 C2585 0.950 . S
H2574 C2582 0.950 . S
H2575 C2584 0.950 . S
H2576 C2586 0.950 . S
H2577 C2588 0.950 . S
H2578 C2590 0.950 . S
H2579 C2591 0.950 . S
C2580 H2572 0.950 . S
C2580 C2581 1.386 . S
C2580 C2582 1.391 . S
C2581 C2580 1.386 . S
C2581 C2585 1.393 . S
C2582 H2574 0.950 . S
C2582 C2580 1.391 . S
C2582 C2583 1.400 . S
C2583 C2582 1.400 . S
C2583 C2584 1.398 . S
C2583 C2589 1.491 . S
C2584 H2575 0.950 . S
C2584 C2583 1.398 . S
C2584 C2585 1.391 . S
C2585 H2573 0.950 . S
C2585 C2581 1.393 . S
C2585 C2584 1.391 . S
C2586 H2576 0.950 . S
C2586 C2587 1.386 . S
C2586 C2588 1.391 . S
C2587 C2586 1.386 . S
C2587 C2591 1.393 . S
C2588 H2577 0.950 . S
C2588 C2586 1.391 . S
C2588 C2589 1.400 . S
C2589 C2583 1.491 . S
C2589 C2588 1.400 . S
C2589 C2590 1.398 . S
C2590 H2578 0.950 . S
C2590 C2589 1.398 . S
C2590 C2591 1.391 . S
C2591 H2579 0.950 . S
C2591 C2587 1.393 . S
C2591 C2590 1.391 . S
H2592 C2600 0.950 . S
H2593 C2605 0.950 . S
H2594 C2602 0.950 . S
H2595 C2604 0.950 . S
H2596 C2606 0.950 . S
H2597 C2608 0.950 1_455 S
H2598 C2610 0.950 . S
H2599 C2611 0.950 . S
C2600 H2592 0.950 . S
C2600 C2601 1.386 . S
C2600 C2602 1.391 . S
C2601 C2600 1.386 . S
C2601 C2605 1.393 . S
C2602 H2594 0.950 . S
C2602 C2600 1.391 . S
C2602 C2603 1.400 . S
C2603 C2602 1.400 . S
C2603 C2604 1.398 . S
C2603 C2609 1.491 . S
C2604 H2595 0.950 . S
C2604 C2603 1.398 . S
C2604 C2605 1.391 . S
C2605 H2593 0.950 . S
C2605 C2601 1.393 . S
C2605 C2604 1.391 . S
C2606 H2596 0.950 . S
C2606 C2607 1.386 1_455 S
C2606 C2608 1.391 1_455 S
C2607 C2606 1.386 1_655 S
C2607 C2611 1.393 . S
C2608 H2597 0.950 1_655 S
C2608 C2606 1.391 1_655 S
C2608 C2609 1.400 . S
C2609 C2603 1.491 . S
C2609 C2608 1.400 . S
C2609 C2610 1.398 . S
C2610 H2598 0.950 . S
C2610 C2609 1.398 . S
C2610 C2611 1.391 . S
C2611 H2599 0.950 . S
C2611 C2607 1.393 . S
C2611 C2610 1.391 . S
H2612 C2620 0.950 . S
H2613 C2625 0.950 . S
H2614 C2622 0.950 . S
H2615 C2624 0.950 . S
H2616 C2626 0.950 . S
H2617 C2628 0.950 . S
H2618 C2630 0.950 . S
H2619 C2631 0.950 . S
C2620 H2612 0.950 . S
C2620 C2621 1.386 . S
C2620 C2622 1.391 . S
C2621 C2620 1.386 . S
C2621 C2625 1.393 . S
C2622 H2614 0.950 . S
C2622 C2620 1.391 . S
C2622 C2623 1.400 . S
C2623 C2622 1.400 . S
C2623 C2624 1.398 . S
C2623 C2629 1.491 . S
C2624 H2615 0.950 . S
C2624 C2623 1.398 . S
C2624 C2625 1.391 . S
C2625 H2613 0.950 . S
C2625 C2621 1.393 . S
C2625 C2624 1.391 . S
C2626 H2616 0.950 . S
C2626 C2627 1.386 . S
C2626 C2628 1.391 . S
C2627 C2626 1.386 . S
C2627 C2631 1.393 . S
C2628 H2617 0.950 . S
C2628 C2626 1.391 . S
C2628 C2629 1.400 . S
C2629 C2623 1.491 . S
C2629 C2628 1.400 . S
C2629 C2630 1.398 . S
C2630 H2618 0.950 . S
C2630 C2629 1.398 . S
C2630 C2631 1.391 . S
C2631 H2619 0.950 . S
C2631 C2627 1.393 . S
C2631 C2630 1.391 . S
H2632 C2640 0.912 1_565 S
H2633 C2645 0.950 . S
H2634 C2642 0.944 1_565 S
H2635 C2644 0.950 . S
H2636 C2646 0.950 . S
H2637 C2648 0.950 . S
H2638 C2650 0.950 . S
H2639 C2651 0.950 . S
C2640 H2632 0.912 1_545 S
C2640 C2641 1.409 . S
C2640 C2642 1.409 . S
C2641 C2640 1.409 . S
C2641 C2645 1.393 . S
C2642 H2634 0.944 1_545 S
C2642 C2640 1.409 . S
C2642 C2643 1.400 . S
C2643 C2642 1.400 . S
C2643 C2644 1.398 . S
C2643 C2649 1.491 . S
C2644 H2635 0.950 . S
C2644 C2643 1.398 . S
C2644 C2645 1.391 . S
C2645 H2633 0.950 . S
C2645 C2641 1.393 . S
C2645 C2644 1.391 . S
C2646 H2636 0.950 . S
C2646 C2647 1.386 . S
C2646 C2648 1.391 . S
C2647 C2646 1.386 . S
C2647 C2651 1.393 . S
C2648 H2637 0.950 . S
C2648 C2646 1.391 . S
C2648 C2649 1.400 . S
C2649 C2643 1.491 . S
C2649 C2648 1.400 . S
C2649 C2650 1.398 . S
C2650 H2638 0.950 . S
C2650 C2649 1.398 . S
C2650 C2651 1.391 . S
C2651 H2639 0.950 . S
C2651 C2647 1.393 . S
C2651 C2650 1.391 . S
H2652 C2660 0.950 . S
H2653 C2665 0.950 . S
H2654 C2662 0.950 . S
H2655 C2664 0.950 . S
H2656 C2666 0.950 . S
H2657 C2668 0.950 . S
H2658 C2670 0.950 . S
H2659 C2671 0.950 . S
C2660 H2652 0.950 . S
C2660 C2661 1.386 . S
C2660 C2662 1.391 . S
C2661 C2660 1.386 . S
C2661 C2665 1.393 . S
C2662 H2654 0.950 . S
C2662 C2660 1.391 . S
C2662 C2663 1.400 . S
C2663 C2662 1.400 . S
C2663 C2664 1.398 . S
C2663 C2669 1.491 . S
C2664 H2655 0.950 . S
C2664 C2663 1.398 . S
C2664 C2665 1.391 . S
C2665 H2653 0.950 . S
C2665 C2661 1.393 . S
C2665 C2664 1.391 . S
C2666 H2656 0.950 . S
C2666 C2667 1.386 . S
C2666 C2668 1.391 . S
C2667 C2666 1.386 . S
C2667 C2671 1.393 . S
C2668 H2657 0.950 . S
C2668 C2666 1.391 . S
C2668 C2669 1.400 . S
C2669 C2663 1.491 . S
C2669 C2668 1.400 . S
C2669 C2670 1.398 . S
C2670 H2658 0.950 . S
C2670 C2669 1.398 . S
C2670 C2671 1.391 . S
C2671 H2659 0.950 . S
C2671 C2667 1.393 . S
C2671 C2670 1.391 . S
H2672 C2680 0.950 . S
H2673 C2685 0.950 . S
H2674 C2682 0.950 . S
H2675 C2684 0.950 . S
H2676 C2686 0.950 . S
H2677 C2688 0.950 . S
H2678 C2690 0.950 . S
H2679 C2691 0.950 . S
C2680 H2672 0.950 . S
C2680 C2681 1.386 . S
C2680 C2682 1.391 . S
C2681 C2680 1.386 . S
C2681 C2685 1.393 . S
C2682 H2674 0.950 . S
C2682 C2680 1.391 . S
C2682 C2683 1.400 . S
C2683 C2682 1.400 . S
C2683 C2684 1.398 . S
C2683 C2689 1.491 . S
C2684 H2675 0.950 . S
C2684 C2683 1.398 . S
C2684 C2685 1.391 . S
C2685 H2673 0.950 . S
C2685 C2681 1.393 . S
C2685 C2684 1.391 . S
C2686 H2676 0.950 . S
C2686 C2687 1.386 . S
C2686 C2688 1.391 . S
C2687 C2686 1.386 . S
C2687 C2691 1.393 . S
C2688 H2677 0.950 . S
C2688 C2686 1.391 . S
C2688 C2689 1.400 . S
C2689 C2683 1.491 . S
C2689 C2688 1.400 . S
C2689 C2690 1.398 . S
C2690 H2678 0.950 . S
C2690 C2689 1.398 . S
C2690 C2691 1.391 . S
C2691 H2679 0.950 . S
C2691 C2687 1.393 . S
C2691 C2690 1.391 . S
H2692 C2700 0.950 . S
H2693 C2705 0.950 . S
H2694 C2702 0.950 . S
H2695 C2704 0.950 . S
H2696 C2706 0.950 . S
H2697 C2708 0.950 . S
H2698 C2710 0.950 . S
H2699 C2711 0.950 . S
C2700 H2692 0.950 . S
C2700 C2701 1.386 . S
C2700 C2702 1.391 . S
C2701 C2700 1.386 . S
C2701 C2705 1.393 . S
C2702 H2694 0.950 . S
C2702 C2700 1.391 . S
C2702 C2703 1.400 . S
C2703 C2702 1.400 . S
C2703 C2704 1.398 . S
C2703 C2709 1.491 . S
C2704 H2695 0.950 . S
C2704 C2703 1.398 . S
C2704 C2705 1.391 . S
C2705 H2693 0.950 . S
C2705 C2701 1.393 . S
C2705 C2704 1.391 . S
C2706 H2696 0.950 . S
C2706 C2707 1.386 . S
C2706 C2708 1.391 . S
C2707 C2706 1.386 . S
C2707 C2711 1.393 . S
C2708 H2697 0.950 . S
C2708 C2706 1.391 . S
C2708 C2709 1.400 . S
C2709 C2703 1.491 . S
C2709 C2708 1.400 . S
C2709 C2710 1.398 . S
C2710 H2698 0.950 . S
C2710 C2709 1.398 . S
C2710 C2711 1.391 . S
C2711 H2699 0.950 . S
C2711 C2707 1.393 . S
C2711 C2710 1.391 . S
H2712 C2720 0.950 . S
H2713 C2725 0.923 1_565 S
H2714 C2722 0.950 . S
H2715 C2724 0.950 1_565 S
H2716 C2726 0.950 . S
H2717 C2728 0.987 . S
H2718 C2730 0.950 . S
H2719 C2731 0.950 . S
C2720 H2712 0.950 . S
C2720 C2721 1.386 . S
C2720 C2722 1.391 . S
C2721 C2720 1.386 . S
C2721 C2725 1.413 . S
C2722 H2714 0.950 . S
C2722 C2720 1.391 . S
C2722 C2723 1.400 . S
C2723 C2722 1.400 . S
C2723 C2724 1.398 . S
C2723 C2729 1.491 . S
C2724 H2715 0.950 1_545 S
C2724 C2723 1.398 . S
C2724 C2725 1.399 . S
C2725 H2713 0.923 1_545 S
C2725 C2721 1.413 . S
C2725 C2724 1.399 . S
C2726 H2716 0.950 . S
C2726 C2727 1.386 . S
C2726 C2728 1.391 . S
C2727 C2726 1.386 . S
C2727 C2731 1.393 . S
C2728 H2717 0.987 . S
C2728 C2726 1.391 . S
C2728 C2729 1.400 . S
C2729 C2723 1.491 . S
C2729 C2728 1.400 . S
C2729 C2730 1.398 . S
C2730 H2718 0.950 . S
C2730 C2729 1.398 . S
C2730 C2731 1.391 . S
C2731 H2719 0.950 . S
C2731 C2727 1.393 . S
C2731 C2730 1.391 . S
H2732 C2740 0.950 . S
H2733 C2745 0.950 . S
H2734 C2742 0.950 . S
H2735 C2744 0.950 . S
H2736 C2746 0.950 . S
H2737 C2748 0.950 . S
H2738 C2750 0.950 . S
H2739 C2751 0.950 . S
C2740 H2732 0.950 . S
C2740 C2741 1.386 . S
C2740 C2742 1.391 . S
C2741 C2740 1.386 . S
C2741 C2745 1.393 . S
C2742 H2734 0.950 . S
C2742 C2740 1.391 . S
C2742 C2743 1.400 . S
C2743 C2742 1.400 . S
C2743 C2744 1.398 . S
C2743 C2749 1.491 . S
C2744 H2735 0.950 . S
C2744 C2743 1.398 . S
C2744 C2745 1.391 . S
C2745 H2733 0.950 . S
C2745 C2741 1.393 . S
C2745 C2744 1.391 . S
C2746 H2736 0.950 . S
C2746 C2747 1.386 . S
C2746 C2748 1.391 . S
C2747 C2746 1.386 . S
C2747 C2751 1.393 . S
C2748 H2737 0.950 . S
C2748 C2746 1.391 . S
C2748 C2749 1.400 . S
C2749 C2743 1.491 . S
C2749 C2748 1.400 . S
C2749 C2750 1.398 . S
C2750 H2738 0.950 . S
C2750 C2749 1.398 . S
C2750 C2751 1.391 . S
C2751 H2739 0.950 . S
C2751 C2747 1.393 . S
C2751 C2750 1.391 . S
H2752 C2760 0.950 . S
H2753 C2765 0.950 . S
H2754 C2762 0.950 . S
H2755 C2764 0.950 1_545 S
H2756 C2766 0.950 . S
H2757 C2768 0.950 . S
H2758 C2770 0.950 . S
H2759 C2771 0.950 . S
C2760 H2752 0.950 . S
C2760 C2761 1.386 . S
C2760 C2762 1.391 . S
C2761 C2760 1.386 . S
C2761 C2765 1.393 . S
C2762 H2754 0.950 . S
C2762 C2760 1.391 . S
C2762 C2763 1.400 . S
C2763 C2762 1.400 . S
C2763 C2764 1.398 . S
C2763 C2769 1.491 . S
C2764 H2755 0.950 1_565 S
C2764 C2763 1.398 . S
C2764 C2765 1.391 . S
C2765 H2753 0.950 . S
C2765 C2761 1.393 . S
C2765 C2764 1.391 . S
C2766 H2756 0.950 . S
C2766 C2767 1.386 . S
C2766 C2768 1.391 . S
C2767 C2766 1.386 . S
C2767 C2771 1.393 1_545 S
C2768 H2757 0.950 . S
C2768 C2766 1.391 . S
C2768 C2769 1.400 1_545 S
C2769 C2763 1.491 . S
C2769 C2768 1.400 1_565 S
C2769 C2770 1.398 . S
C2770 H2758 0.950 . S
C2770 C2769 1.398 . S
C2770 C2771 1.391 . S
C2771 H2759 0.950 . S
C2771 C2767 1.393 1_565 S
C2771 C2770 1.391 . S
H2772 C2780 0.950 . S
H2773 C2785 0.950 . S
H2774 C2782 0.950 . S
H2775 C2784 0.950 . S
H2776 C2786 0.950 . S
H2777 C2788 0.950 . S
H2778 C2790 0.950 . S
H2779 C2791 0.950 . S
C2780 H2772 0.950 . S
C2780 C2781 1.358 1_554 S
C2780 C2782 1.391 . S
C2781 C2780 1.358 1_556 S
C2781 C2785 1.414 . S
C2782 H2774 0.950 . S
C2782 C2780 1.391 . S
C2782 C2783 1.400 . S
C2783 C2782 1.400 . S
C2783 C2784 1.398 1_554 S
C2783 C2789 1.491 . S
C2784 H2775 0.950 . S
C2784 C2783 1.398 1_556 S
C2784 C2785 1.391 . S
C2785 H2773 0.950 . S
C2785 C2781 1.414 . S
C2785 C2784 1.391 . S
C2786 H2776 0.950 . S
C2786 C2787 1.386 1_556 S
C2786 C2788 1.391 . S
C2787 C2786 1.386 1_554 S
C2787 C2791 1.393 . S
C2788 H2777 0.950 . S
C2788 C2786 1.391 . S
C2788 C2789 1.400 1_556 S
C2789 C2783 1.491 . S
C2789 C2788 1.400 1_554 S
C2789 C2790 1.398 . S
C2790 H2778 0.950 . S
C2790 C2789 1.398 . S
C2790 C2791 1.391 . S
C2791 H2779 0.950 . S
C2791 C2787 1.393 . S
C2791 C2790 1.391 . S
H2792 C2800 0.950 . S
H2793 C2805 0.950 . S
H2794 C2802 0.950 . S
H2795 C2804 0.950 . S
H2796 C2806 0.950 . S
H2797 C2808 0.950 . S
H2798 C2810 0.950 . S
H2799 C2811 0.950 . S
C2800 H2792 0.950 . S
C2800 C2801 1.386 . S
C2800 C2802 1.391 . S
C2801 C2800 1.386 . S
C2801 C2805 1.393 . S
C2802 H2794 0.950 . S
C2802 C2800 1.391 . S
C2802 C2803 1.400 . S
C2803 C2802 1.400 . S
C2803 C2804 1.398 . S
C2803 C2809 1.491 . S
C2804 H2795 0.950 . S
C2804 C2803 1.398 . S
C2804 C2805 1.391 . S
C2805 H2793 0.950 . S
C2805 C2801 1.393 . S
C2805 C2804 1.391 . S
C2806 H2796 0.950 . S
C2806 C2807 1.386 . S
C2806 C2808 1.391 . S
C2807 C2806 1.386 . S
C2807 C2811 1.393 . S
C2808 H2797 0.950 . S
C2808 C2806 1.391 . S
C2808 C2809 1.400 . S
C2809 C2803 1.491 . S
C2809 C2808 1.400 . S
C2809 C2810 1.398 . S
C2810 H2798 0.950 . S
C2810 C2809 1.398 . S
C2810 C2811 1.391 . S
C2811 H2799 0.950 . S
C2811 C2807 1.393 . S
C2811 C2810 1.391 . S
H2812 C2820 0.950 . S
H2813 C2825 0.950 . S
H2814 C2822 0.950 . S
H2815 C2824 0.950 . S
H2816 C2826 0.950 . S
H2817 C2828 0.950 . S
H2818 C2830 0.950 . S
H2819 C2831 0.950 . S
C2820 H2812 0.950 . S
C2820 C2821 1.386 . S
C2820 C2822 1.391 . S
C2821 C2820 1.386 . S
C2821 C2825 1.393 . S
C2822 H2814 0.950 . S
C2822 C2820 1.391 . S
C2822 C2823 1.400 . S
C2823 C2822 1.400 . S
C2823 C2824 1.398 . S
C2823 C2829 1.491 . S
C2824 H2815 0.950 . S
C2824 C2823 1.398 . S
C2824 C2825 1.391 . S
C2825 H2813 0.950 . S
C2825 C2821 1.393 . S
C2825 C2824 1.391 . S
C2826 H2816 0.950 . S
C2826 C2827 1.386 . S
C2826 C2828 1.391 . S
C2827 C2826 1.386 . S
C2827 C2831 1.393 . S
C2828 H2817 0.950 . S
C2828 C2826 1.391 . S
C2828 C2829 1.400 . S
C2829 C2823 1.491 . S
C2829 C2828 1.400 . S
C2829 C2830 1.398 . S
C2830 H2818 0.950 . S
C2830 C2829 1.398 . S
C2830 C2831 1.391 . S
C2831 H2819 0.950 . S
C2831 C2827 1.393 . S
C2831 C2830 1.391 . S
H2832 C2840 0.950 . S
H2833 C2845 0.950 . S
H2834 C2842 0.950 . S
H2835 C2844 0.950 . S
H2836 C2846 0.950 . S
H2837 C2848 0.950 . S
H2838 C2850 0.950 . S
H2839 C2851 0.950 . S
C2840 H2832 0.950 . S
C2840 C2841 1.386 . S
C2840 C2842 1.391 . S
C2841 C2840 1.386 . S
C2841 C2845 1.393 . S
C2842 H2834 0.950 . S
C2842 C2840 1.391 . S
C2842 C2843 1.400 . S
C2843 C2842 1.400 . S
C2843 C2844 1.398 . S
C2843 C2849 1.491 . S
C2844 H2835 0.950 . S
C2844 C2843 1.398 . S
C2844 C2845 1.391 . S
C2845 H2833 0.950 . S
C2845 C2841 1.393 . S
C2845 C2844 1.391 . S
C2846 H2836 0.950 . S
C2846 C2847 1.386 . S
C2846 C2848 1.391 . S
C2847 C2846 1.386 . S
C2847 C2851 1.393 . S
C2848 H2837 0.950 . S
C2848 C2846 1.391 . S
C2848 C2849 1.400 . S
C2849 C2843 1.491 . S
C2849 C2848 1.400 . S
C2849 C2850 1.398 . S
C2850 H2838 0.950 . S
C2850 C2849 1.398 . S
C2850 C2851 1.391 . S
C2851 H2839 0.950 . S
C2851 C2847 1.393 . S
C2851 C2850 1.391 . S
H2852 C2860 0.950 . S
H2853 C2865 0.950 . S
H2854 C2862 0.950 . S
H2855 C2864 0.950 . S
H2856 C2866 0.950 . S
H2857 C2868 0.950 . S
H2858 C2870 0.950 . S
H2859 C2871 0.950 . S
C2860 H2852 0.950 . S
C2860 C2861 1.386 . S
C2860 C2862 1.391 . S
C2861 C2860 1.386 . S
C2861 C2865 1.393 . S
C2862 H2854 0.950 . S
C2862 C2860 1.391 . S
C2862 C2863 1.400 . S
C2863 C2862 1.400 . S
C2863 C2864 1.398 . S
C2863 C2869 1.491 . S
C2864 H2855 0.950 . S
C2864 C2863 1.398 . S
C2864 C2865 1.391 . S
C2865 H2853 0.950 . S
C2865 C2861 1.393 . S
C2865 C2864 1.391 . S
C2866 H2856 0.950 . S
C2866 C2867 1.386 . S
C2866 C2868 1.391 . S
C2867 C2866 1.386 . S
C2867 C2871 1.393 . S
C2868 H2857 0.950 . S
C2868 C2866 1.391 . S
C2868 C2869 1.400 . S
C2869 C2863 1.491 . S
C2869 C2868 1.400 . S
C2869 C2870 1.398 . S
C2870 H2858 0.950 . S
C2870 C2869 1.398 . S
C2870 C2871 1.391 . S
C2871 H2859 0.950 . S
C2871 C2867 1.393 . S
C2871 C2870 1.391 . S
H2872 C2880 0.950 . S
H2873 C2885 0.950 . S
H2874 C2882 0.950 . S
H2875 C2884 0.950 . S
H2876 C2886 0.950 . S
H2877 C2888 0.950 . S
H2878 C2890 0.950 . S
H2879 C2891 0.950 . S
C2880 H2872 0.950 . S
C2880 C2881 1.386 . S
C2880 C2882 1.391 . S
C2881 C2880 1.386 . S
C2881 C2885 1.393 . S
C2882 H2874 0.950 . S
C2882 C2880 1.391 . S
C2882 C2883 1.400 . S
C2883 C2882 1.400 . S
C2883 C2884 1.398 . S
C2883 C2889 1.491 . S
C2884 H2875 0.950 . S
C2884 C2883 1.398 . S
C2884 C2885 1.391 . S
C2885 H2873 0.950 . S
C2885 C2881 1.393 . S
C2885 C2884 1.391 . S
C2886 H2876 0.950 . S
C2886 C2887 1.386 . S
C2886 C2888 1.391 . S
C2887 C2886 1.386 . S
C2887 C2891 1.393 . S
C2888 H2877 0.950 . S
C2888 C2886 1.391 . S
C2888 C2889 1.400 . S
C2889 C2883 1.491 . S
C2889 C2888 1.400 . S
C2889 C2890 1.398 . S
C2890 H2878 0.950 . S
C2890 C2889 1.398 . S
C2890 C2891 1.391 . S
C2891 H2879 0.950 . S
C2891 C2887 1.393 . S
C2891 C2890 1.391 . S
H2892 C2900 0.950 . S
H2893 C2905 0.950 . S
H2894 C2902 0.950 . S
H2895 C2904 0.950 . S
H2896 C2906 0.950 . S
H2897 C2908 0.950 . S
H2898 C2910 0.950 . S
H2899 C2911 0.950 . S
C2900 H2892 0.950 . S
C2900 C2901 1.386 . S
C2900 C2902 1.391 . S
C2901 C2900 1.386 . S
C2901 C2905 1.393 . S
C2902 H2894 0.950 . S
C2902 C2900 1.391 . S
C2902 C2903 1.400 . S
C2903 C2902 1.400 . S
C2903 C2904 1.398 . S
C2903 C2909 1.491 . S
C2904 H2895 0.950 . S
C2904 C2903 1.398 . S
C2904 C2905 1.391 . S
C2905 H2893 0.950 . S
C2905 C2901 1.393 . S
C2905 C2904 1.391 . S
C2906 H2896 0.950 . S
C2906 C2907 1.386 . S
C2906 C2908 1.391 . S
C2907 C2906 1.386 . S
C2907 C2911 1.393 . S
C2908 H2897 0.950 . S
C2908 C2906 1.391 . S
C2908 C2909 1.400 . S
C2909 C2903 1.491 . S
C2909 C2908 1.400 . S
C2909 C2910 1.398 . S
C2910 H2898 0.950 . S
C2910 C2909 1.398 . S
C2910 C2911 1.391 . S
C2911 H2899 0.950 . S
C2911 C2907 1.393 . S
C2911 C2910 1.391 . S
H2912 C2920 0.950 . S
H2913 C2925 0.950 . S
H2914 C2922 0.950 . S
H2915 C2924 0.950 . S
H2916 C2926 0.950 . S
H2917 C2928 0.950 . S
H2918 C2930 0.950 . S
H2919 C2931 0.950 . S
C2920 H2912 0.950 . S
C2920 C2921 1.386 1_655 S
C2920 C2922 1.391 . S
C2921 C2920 1.386 1_455 S
C2921 C2925 1.393 . S
C2922 H2914 0.950 . S
C2922 C2920 1.391 . S
C2922 C2923 1.400 1_655 S
C2923 C2922 1.400 1_455 S
C2923 C2924 1.398 . S
C2923 C2929 1.491 . S
C2924 H2915 0.950 . S
C2924 C2923 1.398 . S
C2924 C2925 1.391 . S
C2925 H2913 0.950 . S
C2925 C2921 1.393 . S
C2925 C2924 1.391 . S
C2926 H2916 0.950 . S
C2926 C2927 1.386 . S
C2926 C2928 1.391 . S
C2927 C2926 1.386 . S
C2927 C2931 1.393 1_455 S
C2928 H2917 0.950 . S
C2928 C2926 1.391 . S
C2928 C2929 1.400 . S
C2929 C2923 1.491 . S
C2929 C2928 1.400 . S
C2929 C2930 1.398 1_455 S
C2930 H2918 0.950 . S
C2930 C2929 1.398 1_655 S
C2930 C2931 1.391 . S
C2931 H2919 0.950 . S
C2931 C2927 1.393 1_655 S
C2931 C2930 1.391 . S
H2932 C2940 0.950 . S
H2933 C2945 0.950 . S
H2934 C2942 0.950 . S
H2935 C2944 0.950 . S
H2936 C2946 0.950 . S
H2937 C2948 0.950 . S
H2938 C2950 0.950 . S
H2939 C2951 0.950 . S
C2940 H2932 0.950 . S
C2940 C2941 1.386 . S
C2940 C2942 1.391 . S
C2941 C2940 1.386 . S
C2941 C2945 1.393 . S
C2942 H2934 0.950 . S
C2942 C2940 1.391 . S
C2942 C2943 1.400 . S
C2943 C2942 1.400 . S
C2943 C2944 1.398 . S
C2943 C2949 1.491 . S
C2944 H2935 0.950 . S
C2944 C2943 1.398 . S
C2944 C2945 1.391 . S
C2945 H2933 0.950 . S
C2945 C2941 1.393 . S
C2945 C2944 1.391 . S
C2946 H2936 0.950 . S
C2946 C2947 1.386 . S
C2946 C2948 1.391 . S
C2947 C2946 1.386 . S
C2947 C2951 1.393 . S
C2948 H2937 0.950 . S
C2948 C2946 1.391 . S
C2948 C2949 1.400 . S
C2949 C2943 1.491 . S
C2949 C2948 1.400 . S
C2949 C2950 1.398 . S
C2950 H2938 0.950 . S
C2950 C2949 1.398 . S
C2950 C2951 1.391 . S
C2951 H2939 0.950 . S
C2951 C2947 1.393 . S
C2951 C2950 1.391 . S
H2952 C2960 0.950 . S
H2953 C2965 0.950 . S
H2954 C2962 0.950 . S
H2955 C2964 0.950 . S
H2956 C2966 0.950 . S
H2957 C2968 0.950 . S
H2958 C2970 0.950 . S
H2959 C2971 0.950 . S
C2960 H2952 0.950 . S
C2960 C2961 1.386 . S
C2960 C2962 1.391 . S
C2961 C2960 1.386 . S
C2961 C2965 1.393 . S
C2962 H2954 0.950 . S
C2962 C2960 1.391 . S
C2962 C2963 1.400 . S
C2963 C2962 1.400 . S
C2963 C2964 1.398 . S
C2963 C2969 1.491 . S
C2964 H2955 0.950 . S
C2964 C2963 1.398 . S
C2964 C2965 1.391 . S
C2965 H2953 0.950 . S
C2965 C2961 1.393 . S
C2965 C2964 1.391 . S
C2966 H2956 0.950 . S
C2966 C2967 1.386 . S
C2966 C2968 1.391 . S
C2967 C2966 1.386 . S
C2967 C2971 1.393 . S
C2968 H2957 0.950 . S
C2968 C2966 1.391 . S
C2968 C2969 1.400 . S
C2969 C2963 1.491 . S
C2969 C2968 1.400 . S
C2969 C2970 1.398 . S
C2970 H2958 0.950 . S
C2970 C2969 1.398 . S
C2970 C2971 1.391 . S
C2971 H2959 0.950 . S
C2971 C2967 1.393 . S
C2971 C2970 1.391 . S
H2972 C2980 0.950 . S
H2973 C2985 0.950 . S
H2974 C2982 0.950 . S
H2975 C2984 0.950 . S
H2976 C2986 0.950 . S
H2977 C2988 0.950 . S
H2978 C2990 0.950 . S
H2979 C2991 0.950 . S
C2980 H2972 0.950 . S
C2980 C2981 1.386 . S
C2980 C2982 1.391 . S
C2981 C2980 1.386 . S
C2981 C2985 1.393 . S
C2982 H2974 0.950 . S
C2982 C2980 1.391 . S
C2982 C2983 1.400 . S
C2983 C2982 1.400 . S
C2983 C2984 1.398 . S
C2983 C2989 1.491 . S
C2984 H2975 0.950 . S
C2984 C2983 1.398 . S
C2984 C2985 1.391 . S
C2985 H2973 0.950 . S
C2985 C2981 1.393 . S
C2985 C2984 1.391 . S
C2986 H2976 0.950 . S
C2986 C2987 1.386 . S
C2986 C2988 1.391 . S
C2987 C2986 1.386 . S
C2987 C2991 1.393 . S
C2988 H2977 0.950 . S
C2988 C2986 1.391 . S
C2988 C2989 1.400 . S
C2989 C2983 1.491 . S
C2989 C2988 1.400 . S
C2989 C2990 1.398 . S
C2990 H2978 0.950 . S
C2990 C2989 1.398 . S
C2990 C2991 1.391 . S
C2991 H2979 0.950 . S
C2991 C2987 1.393 . S
C2991 C2990 1.391 . S
H2992 C3000 0.950 . S
H2993 C3005 0.950 . S
H2994 C3002 0.950 . S
H2995 C3004 0.950 . S
H2996 C3006 0.950 . S
H2997 C3008 0.950 . S
H2998 C3010 0.950 . S
H2999 C3011 0.950 1_655 S
C3000 H2992 0.950 . S
C3000 C3001 1.386 . S
C3000 C3002 1.391 . S
C3001 C3000 1.386 . S
C3001 C3005 1.393 . S
C3002 H2994 0.950 . S
C3002 C3000 1.391 . S
C3002 C3003 1.400 . S
C3003 C3002 1.400 . S
C3003 C3004 1.398 . S
C3003 C3009 1.491 . S
C3004 H2995 0.950 . S
C3004 C3003 1.398 . S
C3004 C3005 1.391 . S
C3005 H2993 0.950 . S
C3005 C3001 1.393 . S
C3005 C3004 1.391 . S
C3006 H2996 0.950 . S
C3006 C3007 1.386 . S
C3006 C3008 1.391 . S
C3007 C3006 1.386 . S
C3007 C3011 1.393 . S
C3008 H2997 0.950 . S
C3008 C3006 1.391 . S
C3008 C3009 1.400 . S
C3009 C3003 1.491 . S
C3009 C3008 1.400 . S
C3009 C3010 1.398 . S
C3010 H2998 0.950 . S
C3010 C3009 1.398 . S
C3010 C3011 1.391 . S
C3011 H2999 0.950 1_455 S
C3011 C3007 1.393 . S
C3011 C3010 1.391 . S
H3012 C3020 0.950 . S
H3013 C3025 0.950 . S
H3014 C3022 0.950 . S
H3015 C3024 0.950 . S
H3016 C3026 0.950 . S
H3017 C3028 0.950 . S
H3018 C3030 0.950 . S
H3019 C3031 0.950 . S
C3020 H3012 0.950 . S
C3020 C3021 1.386 . S
C3020 C3022 1.391 . S
C3021 C3020 1.386 . S
C3021 C3025 1.393 . S
C3022 H3014 0.950 . S
C3022 C3020 1.391 . S
C3022 C3023 1.400 . S
C3023 C3022 1.400 . S
C3023 C3024 1.398 . S
C3023 C3029 1.491 . S
C3024 H3015 0.950 . S
C3024 C3023 1.398 . S
C3024 C3025 1.391 . S
C3025 H3013 0.950 . S
C3025 C3021 1.393 . S
C3025 C3024 1.391 . S
C3026 H3016 0.950 . S
C3026 C3027 1.386 . S
C3026 C3028 1.391 . S
C3027 C3026 1.386 . S
C3027 C3031 1.393 . S
C3028 H3017 0.950 . S
C3028 C3026 1.391 . S
C3028 C3029 1.400 . S
C3029 C3023 1.491 . S
C3029 C3028 1.400 . S
C3029 C3030 1.398 . S
C3030 H3018 0.950 . S
C3030 C3029 1.398 . S
C3030 C3031 1.391 . S
C3031 H3019 0.950 . S
C3031 C3027 1.393 . S
C3031 C3030 1.391 . S
H3032 C3040 0.950 . S
H3033 C3045 0.950 . S
H3034 C3042 0.950 . S
H3035 C3044 0.950 . S
H3036 C3046 0.950 . S
H3037 C3048 0.950 . S
H3038 C3050 0.950 . S
H3039 C3051 0.950 . S
C3040 H3032 0.950 . S
C3040 C3041 1.386 . S
C3040 C3042 1.391 . S
C3041 C3040 1.386 . S
C3041 C3045 1.393 . S
C3042 H3034 0.950 . S
C3042 C3040 1.391 . S
C3042 C3043 1.400 . S
C3043 C3042 1.400 . S
C3043 C3044 1.398 . S
C3043 C3049 1.491 . S
C3044 H3035 0.950 . S
C3044 C3043 1.398 . S
C3044 C3045 1.391 . S
C3045 H3033 0.950 . S
C3045 C3041 1.393 . S
C3045 C3044 1.391 . S
C3046 H3036 0.950 . S
C3046 C3047 1.386 . S
C3046 C3048 1.391 . S
C3047 C3046 1.386 . S
C3047 C3051 1.393 . S
C3048 H3037 0.950 . S
C3048 C3046 1.391 . S
C3048 C3049 1.400 . S
C3049 C3043 1.491 . S
C3049 C3048 1.400 . S
C3049 C3050 1.398 . S
C3050 H3038 0.950 . S
C3050 C3049 1.398 . S
C3050 C3051 1.391 . S
C3051 H3039 0.950 . S
C3051 C3047 1.393 . S
C3051 C3050 1.391 . S
H3052 C3060 0.950 . S
H3053 C3065 0.950 . S
H3054 C3062 0.950 . S
H3055 C3064 0.950 . S
H3056 C3066 0.950 . S
H3057 C3068 0.950 . S
H3058 C3070 0.950 . S
H3059 C3071 0.950 . S
C3060 H3052 0.950 . S
C3060 C3061 1.386 . S
C3060 C3062 1.391 . S
C3061 C3060 1.386 . S
C3061 C3065 1.393 . S
C3062 H3054 0.950 . S
C3062 C3060 1.391 . S
C3062 C3063 1.400 . S
C3063 C3062 1.400 . S
C3063 C3064 1.398 . S
C3063 C3069 1.491 . S
C3064 H3055 0.950 . S
C3064 C3063 1.398 . S
C3064 C3065 1.391 . S
C3065 H3053 0.950 . S
C3065 C3061 1.393 . S
C3065 C3064 1.391 . S
C3066 H3056 0.950 . S
C3066 C3067 1.386 . S
C3066 C3068 1.391 . S
C3067 C3066 1.386 . S
C3067 C3071 1.393 . S
C3068 H3057 0.950 . S
C3068 C3066 1.391 . S
C3068 C3069 1.400 . S
C3069 C3063 1.491 . S
C3069 C3068 1.400 . S
C3069 C3070 1.398 . S
C3070 H3058 0.950 . S
C3070 C3069 1.398 . S
C3070 C3071 1.391 . S
C3071 H3059 0.950 . S
C3071 C3067 1.393 . S
C3071 C3070 1.391 . S
H3072 C3080 0.950 . S
H3073 C3085 0.950 . S
H3074 C3082 0.950 . S
H3075 C3084 0.950 . S
H3076 C3086 0.950 . S
H3077 C3088 0.950 . S
H3078 C3090 0.950 . S
H3079 C3091 0.950 . S
C3080 H3072 0.950 . S
C3080 C3081 1.386 1_545 S
C3080 C3082 1.391 . S
C3081 C3080 1.386 1_565 S
C3081 C3085 1.393 . S
C3082 H3074 0.950 . S
C3082 C3080 1.391 . S
C3082 C3083 1.400 . S
C3083 C3082 1.400 . S
C3083 C3084 1.398 1_545 S
C3083 C3089 1.491 . S
C3084 H3075 0.950 . S
C3084 C3083 1.398 1_565 S
C3084 C3085 1.391 . S
C3085 H3073 0.950 . S
C3085 C3081 1.393 . S
C3085 C3084 1.391 . S
C3086 H3076 0.950 . S
C3086 C3087 1.386 1_565 S
C3086 C3088 1.391 . S
C3087 C3086 1.386 1_545 S
C3087 C3091 1.393 . S
C3088 H3077 0.950 . S
C3088 C3086 1.391 . S
C3088 C3089 1.400 1_565 S
C3089 C3083 1.491 . S
C3089 C3088 1.400 1_545 S
C3089 C3090 1.398 . S
C3090 H3078 0.950 . S
C3090 C3089 1.398 . S
C3090 C3091 1.391 . S
C3091 H3079 0.950 . S
C3091 C3087 1.393 . S
C3091 C3090 1.391 . S
H3092 C3100 0.950 . S
H3093 C3105 0.950 . S
H3094 C3102 0.950 . S
H3095 C3104 0.950 . S
H3096 C3106 0.950 . S
H3097 C3108 0.950 . S
H3098 C3110 0.950 . S
H3099 C3111 0.950 . S
C3100 H3092 0.950 . S
C3100 C3101 1.386 . S
C3100 C3102 1.391 . S
C3101 C3100 1.386 . S
C3101 C3105 1.393 . S
C3102 H3094 0.950 . S
C3102 C3100 1.391 . S
C3102 C3103 1.400 . S
C3103 C3102 1.400 . S
C3103 C3104 1.398 . S
C3103 C3109 1.491 . S
C3104 H3095 0.950 . S
C3104 C3103 1.398 . S
C3104 C3105 1.391 . S
C3105 H3093 0.950 . S
C3105 C3101 1.393 . S
C3105 C3104 1.391 . S
C3106 H3096 0.950 . S
C3106 C3107 1.386 . S
C3106 C3108 1.391 . S
C3107 C3106 1.386 . S
C3107 C3111 1.393 . S
C3108 H3097 0.950 . S
C3108 C3106 1.391 . S
C3108 C3109 1.400 . S
C3109 C3103 1.491 . S
C3109 C3108 1.400 . S
C3109 C3110 1.398 . S
C3110 H3098 0.950 . S
C3110 C3109 1.398 . S
C3110 C3111 1.391 . S
C3111 H3099 0.950 . S
C3111 C3107 1.393 . S
C3111 C3110 1.391 . S
H3112 C3120 0.950 . S
H3113 C3125 0.950 . S
H3114 C3122 0.950 . S
H3115 C3124 0.950 . S
H3116 C3126 0.950 . S
H3117 C3128 0.950 . S
H3118 C3130 0.950 . S
H3119 C3131 0.950 . S
C3120 H3112 0.950 . S
C3120 C3121 1.386 . S
C3120 C3122 1.391 . S
C3121 C3120 1.386 . S
C3121 C3125 1.393 . S
C3122 H3114 0.950 . S
C3122 C3120 1.391 . S
C3122 C3123 1.400 . S
C3123 C3122 1.400 . S
C3123 C3124 1.398 . S
C3123 C3129 1.491 . S
C3124 H3115 0.950 . S
C3124 C3123 1.398 . S
C3124 C3125 1.391 . S
C3125 H3113 0.950 . S
C3125 C3121 1.393 . S
C3125 C3124 1.391 . S
C3126 H3116 0.950 . S
C3126 C3127 1.386 . S
C3126 C3128 1.391 . S
C3127 C3126 1.386 . S
C3127 C3131 1.393 . S
C3128 H3117 0.950 . S
C3128 C3126 1.391 . S
C3128 C3129 1.400 . S
C3129 C3123 1.491 . S
C3129 C3128 1.400 . S
C3129 C3130 1.398 . S
C3130 H3118 0.950 . S
C3130 C3129 1.398 . S
C3130 C3131 1.391 . S
C3131 H3119 0.950 . S
C3131 C3127 1.393 . S
C3131 C3130 1.391 . S
H3132 C3140 0.950 . S
H3133 C3145 0.950 . S
H3134 C3142 0.950 . S
H3135 C3144 0.950 . S
H3136 C3146 0.950 . S
H3137 C3148 0.950 . S
H3138 C3150 0.950 . S
H3139 C3151 0.950 . S
C3140 H3132 0.950 . S
C3140 C3141 1.386 . S
C3140 C3142 1.391 . S
C3141 C3140 1.386 . S
C3141 C3145 1.393 . S
C3142 H3134 0.950 . S
C3142 C3140 1.391 . S
C3142 C3143 1.400 . S
C3143 C3142 1.400 . S
C3143 C3144 1.398 . S
C3143 C3149 1.491 . S
C3144 H3135 0.950 . S
C3144 C3143 1.398 . S
C3144 C3145 1.391 . S
C3145 H3133 0.950 . S
C3145 C3141 1.393 . S
C3145 C3144 1.391 . S
C3146 H3136 0.950 . S
C3146 C3147 1.386 . S
C3146 C3148 1.391 . S
C3147 C3146 1.386 . S
C3147 C3151 1.393 . S
C3148 H3137 0.950 . S
C3148 C3146 1.391 . S
C3148 C3149 1.400 . S
C3149 C3143 1.491 . S
C3149 C3148 1.400 . S
C3149 C3150 1.398 . S
C3150 H3138 0.950 . S
C3150 C3149 1.398 . S
C3150 C3151 1.391 . S
C3151 H3139 0.950 . S
C3151 C3147 1.393 . S
C3151 C3150 1.391 . S
H3152 C3160 0.950 . S
H3153 C3165 0.950 . S
H3154 C3162 0.950 . S
H3155 C3164 0.950 . S
H3156 C3166 0.950 1_565 S
H3157 C3168 0.985 . S
H3158 C3170 0.950 . S
H3159 C3171 0.950 . S
C3160 H3152 0.950 . S
C3160 C3161 1.386 1_545 S
C3160 C3162 1.391 . S
C3161 C3160 1.386 1_565 S
C3161 C3165 1.393 . S
C3162 H3154 0.950 . S
C3162 C3160 1.391 . S
C3162 C3163 1.400 . S
C3163 C3162 1.400 . S
C3163 C3164 1.398 1_545 S
C3163 C3169 1.491 . S
C3164 H3155 0.950 . S
C3164 C3163 1.398 1_565 S
C3164 C3165 1.391 . S
C3165 H3153 0.950 . S
C3165 C3161 1.393 . S
C3165 C3164 1.391 . S
C3166 H3156 0.950 1_545 S
C3166 C3167 1.386 . S
C3166 C3168 1.374 1_545 S
C3167 C3166 1.386 . S
C3167 C3171 1.393 . S
C3168 H3157 0.985 . S
C3168 C3166 1.374 1_565 S
C3168 C3169 1.385 1_565 S
C3169 C3163 1.491 . S
C3169 C3168 1.385 1_545 S
C3169 C3170 1.398 . S
C3170 H3158 0.950 . S
C3170 C3169 1.398 . S
C3170 C3171 1.391 . S
C3171 H3159 0.950 . S
C3171 C3167 1.393 . S
C3171 C3170 1.391 . S
H3172 C3180 0.950 . S
H3173 C3185 0.950 . S
H3174 C3182 0.950 . S
H3175 C3184 0.950 . S
H3176 C3186 0.950 . S
H3177 C3188 0.950 . S
H3178 C3190 0.950 . S
H3179 C3191 0.950 . S
C3180 H3172 0.950 . S
C3180 C3181 1.386 . S
C3180 C3182 1.391 . S
C3181 C3180 1.386 . S
C3181 C3185 1.393 . S
C3182 H3174 0.950 . S
C3182 C3180 1.391 . S
C3182 C3183 1.400 . S
C3183 C3182 1.400 . S
C3183 C3184 1.398 . S
C3183 C3189 1.491 . S
C3184 H3175 0.950 . S
C3184 C3183 1.398 . S
C3184 C3185 1.391 . S
C3185 H3173 0.950 . S
C3185 C3181 1.393 . S
C3185 C3184 1.391 . S
C3186 H3176 0.950 . S
C3186 C3187 1.386 . S
C3186 C3188 1.391 . S
C3187 C3186 1.386 . S
C3187 C3191 1.393 . S
C3188 H3177 0.950 . S
C3188 C3186 1.391 . S
C3188 C3189 1.400 . S
C3189 C3183 1.491 . S
C3189 C3188 1.400 . S
C3189 C3190 1.398 . S
C3190 H3178 0.950 . S
C3190 C3189 1.398 . S
C3190 C3191 1.391 . S
C3191 H3179 0.950 . S
C3191 C3187 1.393 . S
C3191 C3190 1.391 . S
H3192 C3200 0.950 . S
H3193 C3205 0.950 . S
H3194 C3202 0.950 . S
H3195 C3204 0.950 . S
H3196 C3206 0.950 . S
H3197 C3208 0.950 . S
H3198 C3210 0.950 . S
H3199 C3211 0.950 . S
C3200 H3192 0.950 . S
C3200 C3201 1.386 . S
C3200 C3202 1.391 . S
C3201 C3200 1.386 . S
C3201 C3205 1.393 . S
C3202 H3194 0.950 . S
C3202 C3200 1.391 . S
C3202 C3203 1.400 . S
C3203 C3202 1.400 . S
C3203 C3204 1.398 . S
C3203 C3209 1.491 . S
C3204 H3195 0.950 . S
C3204 C3203 1.398 . S
C3204 C3205 1.391 . S
C3205 H3193 0.950 . S
C3205 C3201 1.393 . S
C3205 C3204 1.391 . S
C3206 H3196 0.950 . S
C3206 C3207 1.386 . S
C3206 C3208 1.391 . S
C3207 C3206 1.386 . S
C3207 C3211 1.393 . S
C3208 H3197 0.950 . S
C3208 C3206 1.391 . S
C3208 C3209 1.400 . S
C3209 C3203 1.491 . S
C3209 C3208 1.400 . S
C3209 C3210 1.398 . S
C3210 H3198 0.950 . S
C3210 C3209 1.398 . S
C3210 C3211 1.391 . S
C3211 H3199 0.950 . S
C3211 C3207 1.393 . S
C3211 C3210 1.391 . S
H3212 C3220 0.950 . S
H3213 C3225 0.950 . S
H3214 C3222 0.950 . S
H3215 C3224 0.950 . S
H3216 C3226 0.950 . S
H3217 C3228 0.950 . S
H3218 C3230 0.950 . S
H3219 C3231 0.950 . S
C3220 H3212 0.950 . S
C3220 C3221 1.386 . S
C3220 C3222 1.391 . S
C3221 C3220 1.386 . S
C3221 C3225 1.393 . S
C3222 H3214 0.950 . S
C3222 C3220 1.391 . S
C3222 C3223 1.400 . S
C3223 C3222 1.400 . S
C3223 C3224 1.398 . S
C3223 C3229 1.491 . S
C3224 H3215 0.950 . S
C3224 C3223 1.398 . S
C3224 C3225 1.391 . S
C3225 H3213 0.950 . S
C3225 C3221 1.393 . S
C3225 C3224 1.391 . S
C3226 H3216 0.950 . S
C3226 C3227 1.386 . S
C3226 C3228 1.391 . S
C3227 C3226 1.386 . S
C3227 C3231 1.393 . S
C3228 H3217 0.950 . S
C3228 C3226 1.391 . S
C3228 C3229 1.400 . S
C3229 C3223 1.491 . S
C3229 C3228 1.400 . S
C3229 C3230 1.398 . S
C3230 H3218 0.950 . S
C3230 C3229 1.398 . S
C3230 C3231 1.391 . S
C3231 H3219 0.950 . S
C3231 C3227 1.393 . S
C3231 C3230 1.391 . S
H3232 C3240 0.950 . S
H3233 C3245 0.950 . S
H3234 C3242 0.950 . S
H3235 C3244 0.950 . S
H3236 C3246 0.950 . S
H3237 C3248 0.950 . S
H3238 C3250 0.950 . S
H3239 C3251 0.950 . S
C3240 H3232 0.950 . S
C3240 C3241 1.386 1_556 S
C3240 C3242 1.391 . S
C3241 C3240 1.386 1_554 S
C3241 C3245 1.393 . S
C3242 H3234 0.950 . S
C3242 C3240 1.391 . S
C3242 C3243 1.400 1_556 S
C3243 C3242 1.400 1_554 S
C3243 C3244 1.398 . S
C3243 C3249 1.491 . S
C3244 H3235 0.950 . S
C3244 C3243 1.398 . S
C3244 C3245 1.391 . S
C3245 H3233 0.950 . S
C3245 C3241 1.393 . S
C3245 C3244 1.391 . S
C3246 H3236 0.950 . S
C3246 C3247 1.386 . S
C3246 C3248 1.391 . S
C3247 C3246 1.386 . S
C3247 C3251 1.393 1_554 S
C3248 H3237 0.950 . S
C3248 C3246 1.391 . S
C3248 C3249 1.400 . S
C3249 C3243 1.491 . S
C3249 C3248 1.400 . S
C3249 C3250 1.398 1_554 S
C3250 H3238 0.950 . S
C3250 C3249 1.398 1_556 S
C3250 C3251 1.391 . S
C3251 H3239 0.950 . S
C3251 C3247 1.393 1_556 S
C3251 C3250 1.391 . S
H3252 C3260 0.950 . S
H3253 C3265 0.950 . S
H3254 C3262 0.950 . S
H3255 C3264 0.950 . S
H3256 C3266 0.950 . S
H3257 C3268 0.950 . S
H3258 C3270 0.950 . S
H3259 C3271 0.950 . S
C3260 H3252 0.950 . S
C3260 C3261 1.386 . S
C3260 C3262 1.391 . S
C3261 C3260 1.386 . S
C3261 C3265 1.393 . S
C3262 H3254 0.950 . S
C3262 C3260 1.391 . S
C3262 C3263 1.400 . S
C3263 C3262 1.400 . S
C3263 C3264 1.398 . S
C3263 C3269 1.491 . S
C3264 H3255 0.950 . S
C3264 C3263 1.398 . S
C3264 C3265 1.391 . S
C3265 H3253 0.950 . S
C3265 C3261 1.393 . S
C3265 C3264 1.391 . S
C3266 H3256 0.950 . S
C3266 C3267 1.386 . S
C3266 C3268 1.391 . S
C3267 C3266 1.386 . S
C3267 C3271 1.393 . S
C3268 H3257 0.950 . S
C3268 C3266 1.391 . S
C3268 C3269 1.400 . S
C3269 C3263 1.491 . S
C3269 C3268 1.400 . S
C3269 C3270 1.398 . S
C3270 H3258 0.950 . S
C3270 C3269 1.398 . S
C3270 C3271 1.391 . S
C3271 H3259 0.950 . S
C3271 C3267 1.393 . S
C3271 C3270 1.391 . S
H3272 C3280 0.950 . S
H3273 C3285 0.950 . S
H3274 C3282 0.950 . S
H3275 C3284 0.950 . S
H3276 C3286 0.950 . S
H3277 C3288 0.950 . S
H3278 C3290 0.950 . S
H3279 C3291 0.950 . S
C3280 H3272 0.950 . S
C3280 C3281 1.386 . S
C3280 C3282 1.391 . S
C3281 C3280 1.386 . S
C3281 C3285 1.393 . S
C3282 H3274 0.950 . S
C3282 C3280 1.391 . S
C3282 C3283 1.400 . S
C3283 C3282 1.400 . S
C3283 C3284 1.398 . S
C3283 C3289 1.491 . S
C3284 H3275 0.950 . S
C3284 C3283 1.398 . S
C3284 C3285 1.391 . S
C3285 H3273 0.950 . S
C3285 C3281 1.393 . S
C3285 C3284 1.391 . S
C3286 H3276 0.950 . S
C3286 C3287 1.386 . S
C3286 C3288 1.391 . S
C3287 C3286 1.386 . S
C3287 C3291 1.393 . S
C3288 H3277 0.950 . S
C3288 C3286 1.391 . S
C3288 C3289 1.400 . S
C3289 C3283 1.491 . S
C3289 C3288 1.400 . S
C3289 C3290 1.398 . S
C3290 H3278 0.950 . S
C3290 C3289 1.398 . S
C3290 C3291 1.391 . S
C3291 H3279 0.950 . S
C3291 C3287 1.393 . S
C3291 C3290 1.391 . S
H3292 C3300 0.950 . S
H3293 C3305 0.950 . S
H3294 C3302 0.950 . S
H3295 C3304 0.950 . S
H3296 C3306 0.950 . S
H3297 C3308 0.950 . S
H3298 C3310 0.950 . S
H3299 C3311 0.950 . S
C3300 H3292 0.950 . S
C3300 C3301 1.386 . S
C3300 C3302 1.391 . S
C3301 C3300 1.386 . S
C3301 C3305 1.393 . S
C3302 H3294 0.950 . S
C3302 C3300 1.391 . S
C3302 C3303 1.400 . S
C3303 C3302 1.400 . S
C3303 C3304 1.398 . S
C3303 C3309 1.491 . S
C3304 H3295 0.950 . S
C3304 C3303 1.398 . S
C3304 C3305 1.391 . S
C3305 H3293 0.950 . S
C3305 C3301 1.393 . S
C3305 C3304 1.391 . S
C3306 H3296 0.950 . S
C3306 C3307 1.386 . S
C3306 C3308 1.391 . S
C3307 C3306 1.386 . S
C3307 C3311 1.393 . S
C3308 H3297 0.950 . S
C3308 C3306 1.391 . S
C3308 C3309 1.400 . S
C3309 C3303 1.491 . S
C3309 C3308 1.400 . S
C3309 C3310 1.398 . S
C3310 H3298 0.950 . S
C3310 C3309 1.398 . S
C3310 C3311 1.391 . S
C3311 H3299 0.950 . S
C3311 C3307 1.393 . S
C3311 C3310 1.391 . S
H3312 C3320 0.950 . S
H3313 C3325 0.950 . S
H3314 C3322 0.950 . S
H3315 C3324 0.950 . S
H3316 C3326 0.950 . S
H3317 C3328 0.950 . S
H3318 C3330 0.950 . S
H3319 C3331 0.950 . S
C3320 H3312 0.950 . S
C3320 C3321 1.386 . S
C3320 C3322 1.391 . S
C3321 C3320 1.386 . S
C3321 C3325 1.393 . S
C3322 H3314 0.950 . S
C3322 C3320 1.391 . S
C3322 C3323 1.400 . S
C3323 C3322 1.400 . S
C3323 C3324 1.398 . S
C3323 C3329 1.491 . S
C3324 H3315 0.950 . S
C3324 C3323 1.398 . S
C3324 C3325 1.391 . S
C3325 H3313 0.950 . S
C3325 C3321 1.393 . S
C3325 C3324 1.391 . S
C3326 H3316 0.950 . S
C3326 C3327 1.386 . S
C3326 C3328 1.391 . S
C3327 C3326 1.386 . S
C3327 C3331 1.393 . S
C3328 H3317 0.950 . S
C3328 C3326 1.391 . S
C3328 C3329 1.400 . S
C3329 C3323 1.491 . S
C3329 C3328 1.400 . S
C3329 C3330 1.398 . S
C3330 H3318 0.950 . S
C3330 C3329 1.398 . S
C3330 C3331 1.391 . S
C3331 H3319 0.950 . S
C3331 C3327 1.393 . S
C3331 C3330 1.391 . S
H3332 C3340 0.950 . S
H3333 C3345 0.950 . S
H3334 C3342 0.950 . S
H3335 C3344 0.950 . S
H3336 C3346 0.950 . S
H3337 C3348 0.950 . S
H3338 C3350 0.950 . S
H3339 C3351 0.950 . S
C3340 H3332 0.950 . S
C3340 C3341 1.386 . S
C3340 C3342 1.391 . S
C3341 C3340 1.386 . S
C3341 C3345 1.393 . S
C3342 H3334 0.950 . S
C3342 C3340 1.391 . S
C3342 C3343 1.400 . S
C3343 C3342 1.400 . S
C3343 C3344 1.398 . S
C3343 C3349 1.491 . S
C3344 H3335 0.950 . S
C3344 C3343 1.398 . S
C3344 C3345 1.391 . S
C3345 H3333 0.950 . S
C3345 C3341 1.393 . S
C3345 C3344 1.391 . S
C3346 H3336 0.950 . S
C3346 C3347 1.386 . S
C3346 C3348 1.391 . S
C3347 C3346 1.386 . S
C3347 C3351 1.393 . S
C3348 H3337 0.950 . S
C3348 C3346 1.391 . S
C3348 C3349 1.400 . S
C3349 C3343 1.491 . S
C3349 C3348 1.400 . S
C3349 C3350 1.398 . S
C3350 H3338 0.950 . S
C3350 C3349 1.398 . S
C3350 C3351 1.391 . S
C3351 H3339 0.950 . S
C3351 C3347 1.393 . S
C3351 C3350 1.391 . S
H3352 C3360 0.950 . S
H3353 C3365 0.950 . S
H3354 C3362 0.950 . S
H3355 C3364 0.950 . S
H3356 C3366 0.950 . S
H3357 C3368 0.950 . S
H3358 C3370 0.950 . S
H3359 C3371 0.950 . S
C3360 H3352 0.950 . S
C3360 C3361 1.386 . S
C3360 C3362 1.391 . S
C3361 C3360 1.386 . S
C3361 C3365 1.393 . S
C3362 H3354 0.950 . S
C3362 C3360 1.391 . S
C3362 C3363 1.400 . S
C3363 C3362 1.400 . S
C3363 C3364 1.398 . S
C3363 C3369 1.491 . S
C3364 H3355 0.950 . S
C3364 C3363 1.398 . S
C3364 C3365 1.391 . S
C3365 H3353 0.950 . S
C3365 C3361 1.393 . S
C3365 C3364 1.391 . S
C3366 H3356 0.950 . S
C3366 C3367 1.386 . S
C3366 C3368 1.391 . S
C3367 C3366 1.386 . S
C3367 C3371 1.393 . S
C3368 H3357 0.950 . S
C3368 C3366 1.391 . S
C3368 C3369 1.400 . S
C3369 C3363 1.491 . S
C3369 C3368 1.400 . S
C3369 C3370 1.398 . S
C3370 H3358 0.950 . S
C3370 C3369 1.398 . S
C3370 C3371 1.391 . S
C3371 H3359 0.950 . S
C3371 C3367 1.393 . S
C3371 C3370 1.391 . S
H3372 C3380 0.950 . S
H3373 C3385 0.950 . S
H3374 C3382 0.950 . S
H3375 C3384 0.950 . S
H3376 C3386 0.950 . S
H3377 C3388 0.950 . S
H3378 C3390 0.950 . S
H3379 C3391 0.950 . S
C3380 H3372 0.950 . S
C3380 C3381 1.386 . S
C3380 C3382 1.391 . S
C3381 C3380 1.386 . S
C3381 C3385 1.393 . S
C3382 H3374 0.950 . S
C3382 C3380 1.391 . S
C3382 C3383 1.400 . S
C3383 C3382 1.400 . S
C3383 C3384 1.398 . S
C3383 C3389 1.491 . S
C3384 H3375 0.950 . S
C3384 C3383 1.398 . S
C3384 C3385 1.391 . S
C3385 H3373 0.950 . S
C3385 C3381 1.393 . S
C3385 C3384 1.391 . S
C3386 H3376 0.950 . S
C3386 C3387 1.386 . S
C3386 C3388 1.391 . S
C3387 C3386 1.386 . S
C3387 C3391 1.393 . S
C3388 H3377 0.950 . S
C3388 C3386 1.391 . S
C3388 C3389 1.400 . S
C3389 C3383 1.491 . S
C3389 C3388 1.400 . S
C3389 C3390 1.398 . S
C3390 H3378 0.950 . S
C3390 C3389 1.398 . S
C3390 C3391 1.391 . S
C3391 H3379 0.950 . S
C3391 C3387 1.393 . S
C3391 C3390 1.391 . S
H3392 C3400 0.950 . S
H3393 C3405 0.950 . S
H3394 C3402 0.950 . S
H3395 C3404 0.950 . S
H3396 C3406 0.950 . S
H3397 C3408 0.950 . S
H3398 C3410 0.950 . S
H3399 C3411 0.950 . S
C3400 H3392 0.950 . S
C3400 C3401 1.386 . S
C3400 C3402 1.391 . S
C3401 C3400 1.386 . S
C3401 C3405 1.393 . S
C3402 H3394 0.950 . S
C3402 C3400 1.391 . S
C3402 C3403 1.400 . S
C3403 C3402 1.400 . S
C3403 C3404 1.398 . S
C3403 C3409 1.491 . S
C3404 H3395 0.950 . S
C3404 C3403 1.398 . S
C3404 C3405 1.391 . S
C3405 H3393 0.950 . S
C3405 C3401 1.393 . S
C3405 C3404 1.391 . S
C3406 H3396 0.950 . S
C3406 C3407 1.386 . S
C3406 C3408 1.391 . S
C3407 C3406 1.386 . S
C3407 C3411 1.393 . S
C3408 H3397 0.950 . S
C3408 C3406 1.391 . S
C3408 C3409 1.400 . S
C3409 C3403 1.491 . S
C3409 C3408 1.400 . S
C3409 C3410 1.398 . S
C3410 H3398 0.950 . S
C3410 C3409 1.398 . S
C3410 C3411 1.391 . S
C3411 H3399 0.950 . S
C3411 C3407 1.393 . S
C3411 C3410 1.391 . S
H3412 C3420 0.950 . S
H3413 C3425 0.950 . S
H3414 C3422 0.950 . S
H3415 C3424 0.950 . S
H3416 C3426 0.950 . S
H3417 C3428 0.950 . S
H3418 C3430 0.950 . S
H3419 C3431 0.950 . S
C3420 H3412 0.950 . S
C3420 C3421 1.386 . S
C3420 C3422 1.391 . S
C3421 C3420 1.386 . S
C3421 C3425 1.393 . S
C3422 H3414 0.950 . S
C3422 C3420 1.391 . S
C3422 C3423 1.400 . S
C3423 C3422 1.400 . S
C3423 C3424 1.398 . S
C3423 C3429 1.491 . S
C3424 H3415 0.950 . S
C3424 C3423 1.398 . S
C3424 C3425 1.391 . S
C3425 H3413 0.950 . S
C3425 C3421 1.393 . S
C3425 C3424 1.391 . S
C3426 H3416 0.950 . S
C3426 C3427 1.386 . S
C3426 C3428 1.391 . S
C3427 C3426 1.386 . S
C3427 C3431 1.393 . S
C3428 H3417 0.950 . S
C3428 C3426 1.391 . S
C3428 C3429 1.400 . S
C3429 C3423 1.491 . S
C3429 C3428 1.400 . S
C3429 C3430 1.398 . S
C3430 H3418 0.950 . S
C3430 C3429 1.398 . S
C3430 C3431 1.391 . S
C3431 H3419 0.950 . S
C3431 C3427 1.393 . S
C3431 C3430 1.391 . S
H3432 C3440 0.950 1_655 S
H3433 C3445 0.950 . S
H3434 C3442 0.950 . S
H3435 C3444 0.950 . S
H3436 C3446 0.950 . S
H3437 C3448 0.950 . S
H3438 C3450 0.950 . S
H3439 C3451 0.950 . S
C3440 H3432 0.950 1_455 S
C3440 C3441 1.386 . S
C3440 C3442 1.391 1_455 S
C3441 C3440 1.386 . S
C3441 C3445 1.393 . S
C3442 H3434 0.950 . S
C3442 C3440 1.391 1_655 S
C3442 C3443 1.400 1_655 S
C3443 C3442 1.400 1_455 S
C3443 C3444 1.398 . S
C3443 C3449 1.491 . S
C3444 H3435 0.950 . S
C3444 C3443 1.398 . S
C3444 C3445 1.391 . S
C3445 H3433 0.950 . S
C3445 C3441 1.393 . S
C3445 C3444 1.391 . S
C3446 H3436 0.950 . S
C3446 C3447 1.386 . S
C3446 C3448 1.391 . S
C3447 C3446 1.386 . S
C3447 C3451 1.393 1_455 S
C3448 H3437 0.950 . S
C3448 C3446 1.391 . S
C3448 C3449 1.400 . S
C3449 C3443 1.491 . S
C3449 C3448 1.400 . S
C3449 C3450 1.398 1_455 S
C3450 H3438 0.950 . S
C3450 C3449 1.398 1_655 S
C3450 C3451 1.391 . S
C3451 H3439 0.950 . S
C3451 C3447 1.393 1_655 S
C3451 C3450 1.391 . S
H3452 C3460 0.950 . S
H3453 C3465 0.950 . S
H3454 C3462 0.950 . S
H3455 C3464 0.950 . S
H3456 C3466 0.950 . S
H3457 C3468 0.950 . S
H3458 C3470 0.950 . S
H3459 C3471 0.950 . S
C3460 H3452 0.950 . S
C3460 C3461 1.386 . S
C3460 C3462 1.391 . S
C3461 C3460 1.386 . S
C3461 C3465 1.393 . S
C3462 H3454 0.950 . S
C3462 C3460 1.391 . S
C3462 C3463 1.400 . S
C3463 C3462 1.400 . S
C3463 C3464 1.398 . S
C3463 C3469 1.491 . S
C3464 H3455 0.950 . S
C3464 C3463 1.398 . S
C3464 C3465 1.391 . S
C3465 H3453 0.950 . S
C3465 C3461 1.393 . S
C3465 C3464 1.391 . S
C3466 H3456 0.950 . S
C3466 C3467 1.386 . S
C3466 C3468 1.391 . S
C3467 C3466 1.386 . S
C3467 C3471 1.393 . S
C3468 H3457 0.950 . S
C3468 C3466 1.391 . S
C3468 C3469 1.400 . S
C3469 C3463 1.491 . S
C3469 C3468 1.400 . S
C3469 C3470 1.398 . S
C3470 H3458 0.950 . S
C3470 C3469 1.398 . S
C3470 C3471 1.391 . S
C3471 H3459 0.950 . S
C3471 C3467 1.393 . S
C3471 C3470 1.391 . S
H3472 C3480 0.950 . S
H3473 C3485 0.950 . S
H3474 C3482 0.950 . S
H3475 C3484 0.950 . S
H3476 C3486 0.950 . S
H3477 C3488 0.950 . S
H3478 C3490 0.950 . S
H3479 C3491 0.950 . S
C3480 H3472 0.950 . S
C3480 C3481 1.386 . S
C3480 C3482 1.391 . S
C3481 C3480 1.386 . S
C3481 C3485 1.393 . S
C3482 H3474 0.950 . S
C3482 C3480 1.391 . S
C3482 C3483 1.400 . S
C3483 C3482 1.400 . S
C3483 C3484 1.398 . S
C3483 C3489 1.491 . S
C3484 H3475 0.950 . S
C3484 C3483 1.398 . S
C3484 C3485 1.391 . S
C3485 H3473 0.950 . S
C3485 C3481 1.393 . S
C3485 C3484 1.391 . S
C3486 H3476 0.950 . S
C3486 C3487 1.386 . S
C3486 C3488 1.391 . S
C3487 C3486 1.386 . S
C3487 C3491 1.393 . S
C3488 H3477 0.950 . S
C3488 C3486 1.391 . S
C3488 C3489 1.400 . S
C3489 C3483 1.491 . S
C3489 C3488 1.400 . S
C3489 C3490 1.398 . S
C3490 H3478 0.950 . S
C3490 C3489 1.398 . S
C3490 C3491 1.391 . S
C3491 H3479 0.950 . S
C3491 C3487 1.393 . S
C3491 C3490 1.391 . S
H3492 C3500 0.950 . S
H3493 C3505 0.950 . S
H3494 C3502 0.950 . S
H3495 C3504 0.950 . S
H3496 C3506 0.950 . S
H3497 C3508 0.950 . S
H3498 C3510 0.950 . S
H3499 C3511 0.950 . S
C3500 H3492 0.950 . S
C3500 C3501 1.386 . S
C3500 C3502 1.391 . S
C3501 C3500 1.386 . S
C3501 C3505 1.393 . S
C3502 H3494 0.950 . S
C3502 C3500 1.391 . S
C3502 C3503 1.400 . S
C3503 C3502 1.400 . S
C3503 C3504 1.398 . S
C3503 C3509 1.491 . S
C3504 H3495 0.950 . S
C3504 C3503 1.398 . S
C3504 C3505 1.391 . S
C3505 H3493 0.950 . S
C3505 C3501 1.393 . S
C3505 C3504 1.391 . S
C3506 H3496 0.950 . S
C3506 C3507 1.386 . S
C3506 C3508 1.391 . S
C3507 C3506 1.386 . S
C3507 C3511 1.393 . S
C3508 H3497 0.950 . S
C3508 C3506 1.391 . S
C3508 C3509 1.400 . S
C3509 C3503 1.491 . S
C3509 C3508 1.400 . S
C3509 C3510 1.398 . S
C3510 H3498 0.950 . S
C3510 C3509 1.398 . S
C3510 C3511 1.391 . S
C3511 H3499 0.950 . S
C3511 C3507 1.393 . S
C3511 C3510 1.391 . S
H3512 C3520 0.950 . S
H3513 C3525 0.950 . S
H3514 C3522 0.950 . S
H3515 C3524 0.950 . S
H3516 C3526 0.950 . S
H3517 C3528 0.950 . S
H3518 C3530 0.950 . S
H3519 C3531 0.950 . S
C3520 H3512 0.950 . S
C3520 C3521 1.386 . S
C3520 C3522 1.391 . S
C3521 C3520 1.386 . S
C3521 C3525 1.393 1_655 S
C3522 H3514 0.950 . S
C3522 C3520 1.391 . S
C3522 C3523 1.400 . S
C3523 C3522 1.400 . S
C3523 C3524 1.398 1_655 S
C3523 C3529 1.491 . S
C3524 H3515 0.950 . S
C3524 C3523 1.398 1_455 S
C3524 C3525 1.391 . S
C3525 H3513 0.950 . S
C3525 C3521 1.393 1_455 S
C3525 C3524 1.391 . S
C3526 H3516 0.950 . S
C3526 C3527 1.388 1_455 S
C3526 C3528 1.391 . S
C3527 C3526 1.388 1_655 S
C3527 C3531 1.389 . S
C3528 H3517 0.950 . S
C3528 C3526 1.391 . S
C3528 C3529 1.400 1_455 S
C3529 C3523 1.491 . S
C3529 C3528 1.400 1_655 S
C3529 C3530 1.398 . S
C3530 H3518 0.950 . S
C3530 C3529 1.398 . S
C3530 C3531 1.391 . S
C3531 H3519 0.950 . S
C3531 C3527 1.389 . S
C3531 C3530 1.391 . S
H3532 C3540 0.950 . S
H3533 C3545 0.950 . S
H3534 C3542 0.950 . S
H3535 C3544 0.950 . S
H3536 C3546 0.950 . S
H3537 C3548 0.950 . S
H3538 C3550 0.950 . S
H3539 C3551 0.950 . S
C3540 H3532 0.950 . S
C3540 C3541 1.386 . S
C3540 C3542 1.391 . S
C3541 C3540 1.386 . S
C3541 C3545 1.393 . S
C3542 H3534 0.950 . S
C3542 C3540 1.391 . S
C3542 C3543 1.400 . S
C3543 C3542 1.400 . S
C3543 C3544 1.398 . S
C3543 C3549 1.491 . S
C3544 H3535 0.950 . S
C3544 C3543 1.398 . S
C3544 C3545 1.391 . S
C3545 H3533 0.950 . S
C3545 C3541 1.393 . S
C3545 C3544 1.391 . S
C3546 H3536 0.950 . S
C3546 C3547 1.386 . S
C3546 C3548 1.391 . S
C3547 C3546 1.386 . S
C3547 C3551 1.393 . S
C3548 H3537 0.950 . S
C3548 C3546 1.391 . S
C3548 C3549 1.400 . S
C3549 C3543 1.491 . S
C3549 C3548 1.400 . S
C3549 C3550 1.398 . S
C3550 H3538 0.950 . S
C3550 C3549 1.398 . S
C3550 C3551 1.391 . S
C3551 H3539 0.950 . S
C3551 C3547 1.393 . S
C3551 C3550 1.391 . S
H3552 C3560 0.950 . S
H3553 C3565 0.950 . S
H3554 C3562 0.950 . S
H3555 C3564 0.950 . S
H3556 C3566 0.950 . S
H3557 C3568 0.950 . S
H3558 C3570 0.950 . S
H3559 C3571 0.950 . S
C3560 H3552 0.950 . S
C3560 C3561 1.386 . S
C3560 C3562 1.391 . S
C3561 C3560 1.386 . S
C3561 C3565 1.393 . S
C3562 H3554 0.950 . S
C3562 C3560 1.391 . S
C3562 C3563 1.400 . S
C3563 C3562 1.400 . S
C3563 C3564 1.398 . S
C3563 C3569 1.491 . S
C3564 H3555 0.950 . S
C3564 C3563 1.398 . S
C3564 C3565 1.391 . S
C3565 H3553 0.950 . S
C3565 C3561 1.393 . S
C3565 C3564 1.391 . S
C3566 H3556 0.950 . S
C3566 C3567 1.386 . S
C3566 C3568 1.391 . S
C3567 C3566 1.386 . S
C3567 C3571 1.393 . S
C3568 H3557 0.950 . S
C3568 C3566 1.391 . S
C3568 C3569 1.400 . S
C3569 C3563 1.491 . S
C3569 C3568 1.400 . S
C3569 C3570 1.398 . S
C3570 H3558 0.950 . S
C3570 C3569 1.398 . S
C3570 C3571 1.391 . S
C3571 H3559 0.950 . S
C3571 C3567 1.393 . S
C3571 C3570 1.391 . S
H3572 C3580 0.950 . S
H3573 C3585 0.950 . S
H3574 C3582 0.950 . S
H3575 C3584 0.950 . S
H3576 C3586 0.950 . S
H3577 C3588 0.950 . S
H3578 C3590 0.950 . S
H3579 C3591 0.950 . S
C3580 H3572 0.950 . S
C3580 C3581 1.386 . S
C3580 C3582 1.391 . S
C3581 C3580 1.386 . S
C3581 C3585 1.393 . S
C3582 H3574 0.950 . S
C3582 C3580 1.391 . S
C3582 C3583 1.400 . S
C3583 C3582 1.400 . S
C3583 C3584 1.398 . S
C3583 C3589 1.491 . S
C3584 H3575 0.950 . S
C3584 C3583 1.398 . S
C3584 C3585 1.391 . S
C3585 H3573 0.950 . S
C3585 C3581 1.393 . S
C3585 C3584 1.391 . S
C3586 H3576 0.950 . S
C3586 C3587 1.386 . S
C3586 C3588 1.391 . S
C3587 C3586 1.386 . S
C3587 C3591 1.393 . S
C3588 H3577 0.950 . S
C3588 C3586 1.391 . S
C3588 C3589 1.400 . S
C3589 C3583 1.491 . S
C3589 C3588 1.400 . S
C3589 C3590 1.398 . S
C3590 H3578 0.950 . S
C3590 C3589 1.398 . S
C3590 C3591 1.391 . S
C3591 H3579 0.950 . S
C3591 C3587 1.393 . S
C3591 C3590 1.391 . S
H3592 C3600 0.950 . S
H3593 C3605 0.950 . S
H3594 C3602 0.950 . S
H3595 C3604 0.950 . S
H3596 C3606 0.950 . S
H3597 C3608 0.950 . S
H3598 C3610 0.950 . S
H3599 C3611 0.950 . S
C3600 H3592 0.950 . S
C3600 C3601 1.386 . S
C3600 C3602 1.391 . S
C3601 C3600 1.386 . S
C3601 C3605 1.393 . S
C3602 H3594 0.950 . S
C3602 C3600 1.391 . S
C3602 C3603 1.400 . S
C3603 C3602 1.400 . S
C3603 C3604 1.398 . S
C3603 C3609 1.491 . S
C3604 H3595 0.950 . S
C3604 C3603 1.398 . S
C3604 C3605 1.391 . S
C3605 H3593 0.950 . S
C3605 C3601 1.393 . S
C3605 C3604 1.391 . S
C3606 H3596 0.950 . S
C3606 C3607 1.386 . S
C3606 C3608 1.391 . S
C3607 C3606 1.386 . S
C3607 C3611 1.393 . S
C3608 H3597 0.950 . S
C3608 C3606 1.391 . S
C3608 C3609 1.400 . S
C3609 C3603 1.491 . S
C3609 C3608 1.400 . S
C3609 C3610 1.398 . S
C3610 H3598 0.950 . S
C3610 C3609 1.398 . S
C3610 C3611 1.391 . S
C3611 H3599 0.950 . S
C3611 C3607 1.393 . S
C3611 C3610 1.391 . S
H3612 C3620 0.950 . S
H3613 C3625 0.950 . S
H3614 C3622 0.950 . S
H3615 C3624 0.950 . S
H3616 C3626 0.950 . S
H3617 C3628 0.950 . S
H3618 C3630 0.950 . S
H3619 C3631 0.950 . S
C3620 H3612 0.950 . S
C3620 C3621 1.386 . S
C3620 C3622 1.391 . S
C3621 C3620 1.386 . S
C3621 C3625 1.393 . S
C3622 H3614 0.950 . S
C3622 C3620 1.391 . S
C3622 C3623 1.400 . S
C3623 C3622 1.400 . S
C3623 C3624 1.398 . S
C3623 C3629 1.491 . S
C3624 H3615 0.950 . S
C3624 C3623 1.398 . S
C3624 C3625 1.391 . S
C3625 H3613 0.950 . S
C3625 C3621 1.393 . S
C3625 C3624 1.391 . S
C3626 H3616 0.950 . S
C3626 C3627 1.386 . S
C3626 C3628 1.391 . S
C3627 C3626 1.386 . S
C3627 C3631 1.393 . S
C3628 H3617 0.950 . S
C3628 C3626 1.391 . S
C3628 C3629 1.400 . S
C3629 C3623 1.491 . S
C3629 C3628 1.400 . S
C3629 C3630 1.398 . S
C3630 H3618 0.950 . S
C3630 C3629 1.398 . S
C3630 C3631 1.391 . S
C3631 H3619 0.950 . S
C3631 C3627 1.393 . S
C3631 C3630 1.391 . S
H3632 C3640 0.950 . S
H3633 C3645 0.950 . S
H3634 C3642 0.950 . S
H3635 C3644 0.950 . S
H3636 C3646 0.950 . S
H3637 C3648 0.950 . S
H3638 C3650 0.950 . S
H3639 C3651 0.950 . S
C3640 H3632 0.950 . S
C3640 C3641 1.386 . S
C3640 C3642 1.391 . S
C3641 C3640 1.386 . S
C3641 C3645 1.393 . S
C3642 H3634 0.950 . S
C3642 C3640 1.391 . S
C3642 C3643 1.400 . S
C3643 C3642 1.400 . S
C3643 C3644 1.398 . S
C3643 C3649 1.491 . S
C3644 H3635 0.950 . S
C3644 C3643 1.398 . S
C3644 C3645 1.391 . S
C3645 H3633 0.950 . S
C3645 C3641 1.393 . S
C3645 C3644 1.391 . S
C3646 H3636 0.950 . S
C3646 C3647 1.386 . S
C3646 C3648 1.391 . S
C3647 C3646 1.386 . S
C3647 C3651 1.393 . S
C3648 H3637 0.950 . S
C3648 C3646 1.391 . S
C3648 C3649 1.400 . S
C3649 C3643 1.491 . S
C3649 C3648 1.400 . S
C3649 C3650 1.398 . S
C3650 H3638 0.950 . S
C3650 C3649 1.398 . S
C3650 C3651 1.391 . S
C3651 H3639 0.950 . S
C3651 C3647 1.393 . S
C3651 C3650 1.391 . S
H3652 C3660 0.950 . S
H3653 C3665 0.950 . S
H3654 C3662 0.950 . S
H3655 C3664 0.950 . S
H3656 C3666 0.950 . S
H3657 C3668 0.950 . S
H3658 C3670 0.950 . S
H3659 C3671 0.950 . S
C3660 H3652 0.950 . S
C3660 C3661 1.386 . S
C3660 C3662 1.391 . S
C3661 C3660 1.386 . S
C3661 C3665 1.393 . S
C3662 H3654 0.950 . S
C3662 C3660 1.391 . S
C3662 C3663 1.400 . S
C3663 C3662 1.400 . S
C3663 C3664 1.398 . S
C3663 C3669 1.491 . S
C3664 H3655 0.950 . S
C3664 C3663 1.398 . S
C3664 C3665 1.391 . S
C3665 H3653 0.950 . S
C3665 C3661 1.393 . S
C3665 C3664 1.391 . S
C3666 H3656 0.950 . S
C3666 C3667 1.386 . S
C3666 C3668 1.391 . S
C3667 C3666 1.386 . S
C3667 C3671 1.393 . S
C3668 H3657 0.950 . S
C3668 C3666 1.391 . S
C3668 C3669 1.400 . S
C3669 C3663 1.491 . S
C3669 C3668 1.400 . S
C3669 C3670 1.398 . S
C3670 H3658 0.950 . S
C3670 C3669 1.398 . S
C3670 C3671 1.391 . S
C3671 H3659 0.950 . S
C3671 C3667 1.393 . S
C3671 C3670 1.391 . S
H3672 C3680 0.950 . S
H3673 C3685 0.950 . S
H3674 C3682 0.950 . S
H3675 C3684 0.950 . S
H3676 C3686 0.950 . S
H3677 C3688 0.950 . S
H3678 C3690 0.950 . S
H3679 C3691 0.950 . S
C3680 H3672 0.950 . S
C3680 C3681 1.386 . S
C3680 C3682 1.391 . S
C3681 C3680 1.386 . S
C3681 C3685 1.393 . S
C3682 H3674 0.950 . S
C3682 C3680 1.391 . S
C3682 C3683 1.400 . S
C3683 C3682 1.400 . S
C3683 C3684 1.398 . S
C3683 C3689 1.491 . S
C3684 H3675 0.950 . S
C3684 C3683 1.398 . S
C3684 C3685 1.391 . S
C3685 H3673 0.950 . S
C3685 C3681 1.393 . S
C3685 C3684 1.391 . S
C3686 H3676 0.950 . S
C3686 C3687 1.386 . S
C3686 C3688 1.391 . S
C3687 C3686 1.386 . S
C3687 C3691 1.393 . S
C3688 H3677 0.950 . S
C3688 C3686 1.391 . S
C3688 C3689 1.400 . S
C3689 C3683 1.491 . S
C3689 C3688 1.400 . S
C3689 C3690 1.398 . S
C3690 H3678 0.950 . S
C3690 C3689 1.398 . S
C3690 C3691 1.391 . S
C3691 H3679 0.950 . S
C3691 C3687 1.393 . S
C3691 C3690 1.391 . S
H3692 C3700 0.950 . S
H3693 C3705 0.950 . S
H3694 C3702 0.950 . S
H3695 C3704 0.950 . S
H3696 C3706 0.950 . S
H3697 C3708 0.950 . S
H3698 C3710 0.950 . S
H3699 C3711 0.950 . S
C3700 H3692 0.950 . S
C3700 C3701 1.386 . S
C3700 C3702 1.391 . S
C3701 C3700 1.386 . S
C3701 C3705 1.393 . S
C3702 H3694 0.950 . S
C3702 C3700 1.391 . S
C3702 C3703 1.400 . S
C3703 C3702 1.400 . S
C3703 C3704 1.398 . S
C3703 C3709 1.491 . S
C3704 H3695 0.950 . S
C3704 C3703 1.398 . S
C3704 C3705 1.391 . S
C3705 H3693 0.950 . S
C3705 C3701 1.393 . S
C3705 C3704 1.391 . S
C3706 H3696 0.950 . S
C3706 C3707 1.386 . S
C3706 C3708 1.391 . S
C3707 C3706 1.386 . S
C3707 C3711 1.393 . S
C3708 H3697 0.950 . S
C3708 C3706 1.391 . S
C3708 C3709 1.400 . S
C3709 C3703 1.491 . S
C3709 C3708 1.400 . S
C3709 C3710 1.398 . S
C3710 H3698 0.950 . S
C3710 C3709 1.398 . S
C3710 C3711 1.391 . S
C3711 H3699 0.950 . S
C3711 C3707 1.393 . S
C3711 C3710 1.391 . S
H3712 C3720 0.950 . S
H3713 C3725 0.950 . S
H3714 C3722 0.950 . S
H3715 C3724 0.950 . S
H3716 C3726 0.950 . S
H3717 C3728 0.950 . S
H3718 C3730 0.950 . S
H3719 C3731 0.950 . S
C3720 H3712 0.950 . S
C3720 C3721 1.386 . S
C3720 C3722 1.391 . S
C3721 C3720 1.386 . S
C3721 C3725 1.393 . S
C3722 H3714 0.950 . S
C3722 C3720 1.391 . S
C3722 C3723 1.400 . S
C3723 C3722 1.400 . S
C3723 C3724 1.398 . S
C3723 C3729 1.491 . S
C3724 H3715 0.950 . S
C3724 C3723 1.398 . S
C3724 C3725 1.391 . S
C3725 H3713 0.950 . S
C3725 C3721 1.393 . S
C3725 C3724 1.391 . S
C3726 H3716 0.950 . S
C3726 C3727 1.386 . S
C3726 C3728 1.391 . S
C3727 C3726 1.386 . S
C3727 C3731 1.393 . S
C3728 H3717 0.950 . S
C3728 C3726 1.391 . S
C3728 C3729 1.400 . S
C3729 C3723 1.491 . S
C3729 C3728 1.400 . S
C3729 C3730 1.398 . S
C3730 H3718 0.950 . S
C3730 C3729 1.398 . S
C3730 C3731 1.391 . S
C3731 H3719 0.950 . S
C3731 C3727 1.393 . S
C3731 C3730 1.391 . S
H3732 C3740 0.950 . S
H3733 C3745 0.950 . S
H3734 C3742 0.950 . S
H3735 C3744 0.950 . S
H3736 C3746 0.950 . S
H3737 C3748 0.950 . S
H3738 C3750 0.950 . S
H3739 C3751 0.950 . S
C3740 H3732 0.950 . S
C3740 C3741 1.386 . S
C3740 C3742 1.391 . S
C3741 C3740 1.386 . S
C3741 C3745 1.393 . S
C3742 H3734 0.950 . S
C3742 C3740 1.391 . S
C3742 C3743 1.400 . S
C3743 C3742 1.400 . S
C3743 C3744 1.398 . S
C3743 C3749 1.491 . S
C3744 H3735 0.950 . S
C3744 C3743 1.398 . S
C3744 C3745 1.391 . S
C3745 H3733 0.950 . S
C3745 C3741 1.393 . S
C3745 C3744 1.391 . S
C3746 H3736 0.950 . S
C3746 C3747 1.386 . S
C3746 C3748 1.391 . S
C3747 C3746 1.386 . S
C3747 C3751 1.393 . S
C3748 H3737 0.950 . S
C3748 C3746 1.391 . S
C3748 C3749 1.400 . S
C3749 C3743 1.491 . S
C3749 C3748 1.400 . S
C3749 C3750 1.398 . S
C3750 H3738 0.950 . S
C3750 C3749 1.398 . S
C3750 C3751 1.391 . S
C3751 H3739 0.950 . S
C3751 C3747 1.393 . S
C3751 C3750 1.391 . S
H3752 C3760 0.950 . S
H3753 C3765 0.950 . S
H3754 C3762 0.950 . S
H3755 C3764 0.950 . S
H3756 C3766 0.950 . S
H3757 C3768 0.950 . S
H3758 C3770 0.950 . S
H3759 C3771 0.950 . S
C3760 H3752 0.950 . S
C3760 C3761 1.386 . S
C3760 C3762 1.391 . S
C3761 C3760 1.386 . S
C3761 C3765 1.393 . S
C3762 H3754 0.950 . S
C3762 C3760 1.391 . S
C3762 C3763 1.400 . S
C3763 C3762 1.400 . S
C3763 C3764 1.398 . S
C3763 C3769 1.491 . S
C3764 H3755 0.950 . S
C3764 C3763 1.398 . S
C3764 C3765 1.391 . S
C3765 H3753 0.950 . S
C3765 C3761 1.393 . S
C3765 C3764 1.391 . S
C3766 H3756 0.950 . S
C3766 C3767 1.386 . S
C3766 C3768 1.391 . S
C3767 C3766 1.386 . S
C3767 C3771 1.393 . S
C3768 H3757 0.950 . S
C3768 C3766 1.391 . S
C3768 C3769 1.400 . S
C3769 C3763 1.491 . S
C3769 C3768 1.400 . S
C3769 C3770 1.398 . S
C3770 H3758 0.950 . S
C3770 C3769 1.398 . S
C3770 C3771 1.391 . S
C3771 H3759 0.950 . S
C3771 C3767 1.393 . S
C3771 C3770 1.391 . S
H3772 C3780 0.950 . S
H3773 C3785 0.950 . S
H3774 C3782 0.950 1_545 S
H3775 C3784 0.950 . S
H3776 C3786 0.950 . S
H3777 C3788 0.950 . S
H3778 C3790 0.950 . S
H3779 C3791 0.950 . S
C3780 H3772 0.950 . S
C3780 C3781 1.386 . S
C3780 C3782 1.391 . S
C3781 C3780 1.386 . S
C3781 C3785 1.393 . S
C3782 H3774 0.950 1_565 S
C3782 C3780 1.391 . S
C3782 C3783 1.400 . S
C3783 C3782 1.400 . S
C3783 C3784 1.398 . S
C3783 C3789 1.491 . S
C3784 H3775 0.950 . S
C3784 C3783 1.398 . S
C3784 C3785 1.391 . S
C3785 H3773 0.950 . S
C3785 C3781 1.393 . S
C3785 C3784 1.391 . S
C3786 H3776 0.950 . S
C3786 C3787 1.386 1_565 S
C3786 C3788 1.391 . S
C3787 C3786 1.386 1_545 S
C3787 C3791 1.393 . S
C3788 H3777 0.950 . S
C3788 C3786 1.391 . S
C3788 C3789 1.400 . S
C3789 C3783 1.491 . S
C3789 C3788 1.400 . S
C3789 C3790 1.398 1_565 S
C3790 H3778 0.950 . S
C3790 C3789 1.398 1_545 S
C3790 C3791 1.391 . S
C3791 H3779 0.950 . S
C3791 C3787 1.393 . S
C3791 C3790 1.391 . S
H3792 C3800 0.950 . S
H3793 C3805 0.950 . S
H3794 C3802 0.950 . S
H3795 C3804 0.950 . S
H3796 C3806 0.950 . S
H3797 C3808 0.950 . S
H3798 C3810 0.950 . S
H3799 C3811 0.950 . S
C3800 H3792 0.950 . S
C3800 C3801 1.386 . S
C3800 C3802 1.391 . S
C3801 C3800 1.386 . S
C3801 C3805 1.393 . S
C3802 H3794 0.950 . S
C3802 C3800 1.391 . S
C3802 C3803 1.400 . S
C3803 C3802 1.400 . S
C3803 C3804 1.398 . S
C3803 C3809 1.491 . S
C3804 H3795 0.950 . S
C3804 C3803 1.398 . S
C3804 C3805 1.391 . S
C3805 H3793 0.950 . S
C3805 C3801 1.393 . S
C3805 C3804 1.391 . S
C3806 H3796 0.950 . S
C3806 C3807 1.386 . S
C3806 C3808 1.391 . S
C3807 C3806 1.386 . S
C3807 C3811 1.393 . S
C3808 H3797 0.950 . S
C3808 C3806 1.391 . S
C3808 C3809 1.400 . S
C3809 C3803 1.491 . S
C3809 C3808 1.400 . S
C3809 C3810 1.398 . S
C3810 H3798 0.950 . S
C3810 C3809 1.398 . S
C3810 C3811 1.391 . S
C3811 H3799 0.950 . S
C3811 C3807 1.393 . S
C3811 C3810 1.391 . S
H3812 C3820 0.950 . S
H3813 C3825 0.950 1_556 S
H3814 C3822 0.950 . S
H3815 C3824 0.950 . S
H3816 C3826 0.950 . S
H3817 C3828 0.950 . S
H3818 C3830 0.950 . S
H3819 C3831 0.950 . S
C3820 H3812 0.950 . S
C3820 C3821 1.386 . S
C3820 C3822 1.391 . S
C3821 C3820 1.386 . S
C3821 C3825 1.393 . S
C3822 H3814 0.950 . S
C3822 C3820 1.391 . S
C3822 C3823 1.400 . S
C3823 C3822 1.400 . S
C3823 C3824 1.398 . S
C3823 C3829 1.491 . S
C3824 H3815 0.950 . S
C3824 C3823 1.398 . S
C3824 C3825 1.391 . S
C3825 H3813 0.950 1_554 S
C3825 C3821 1.393 . S
C3825 C3824 1.391 . S
C3826 H3816 0.950 . S
C3826 C3827 1.386 . S
C3826 C3828 1.391 . S
C3827 C3826 1.386 . S
C3827 C3831 1.393 . S
C3828 H3817 0.950 . S
C3828 C3826 1.391 . S
C3828 C3829 1.400 . S
C3829 C3823 1.491 . S
C3829 C3828 1.400 . S
C3829 C3830 1.398 . S
C3830 H3818 0.950 . S
C3830 C3829 1.398 . S
C3830 C3831 1.391 . S
C3831 H3819 0.950 . S
C3831 C3827 1.393 . S
C3831 C3830 1.391 . S
H3832 C3840 0.950 . S
H3833 C3845 0.950 . S
H3834 C3842 0.950 . S
H3835 C3844 0.950 . S
H3836 C3846 0.950 . S
H3837 C3848 0.950 . S
H3838 C3850 0.950 . S
H3839 C3851 0.950 . S
C3840 H3832 0.950 . S
C3840 C3841 1.386 . S
C3840 C3842 1.391 . S
C3841 C3840 1.386 . S
C3841 C3845 1.393 . S
C3842 H3834 0.950 . S
C3842 C3840 1.391 . S
C3842 C3843 1.400 . S
C3843 C3842 1.400 . S
C3843 C3844 1.398 . S
C3843 C3849 1.491 . S
C3844 H3835 0.950 . S
C3844 C3843 1.398 . S
C3844 C3845 1.391 . S
C3845 H3833 0.950 . S
C3845 C3841 1.393 . S
C3845 C3844 1.391 . S
C3846 H3836 0.950 . S
C3846 C3847 1.386 . S
C3846 C3848 1.391 . S
C3847 C3846 1.386 . S
C3847 C3851 1.393 . S
C3848 H3837 0.950 . S
C3848 C3846 1.391 . S
C3848 C3849 1.400 . S
C3849 C3843 1.491 . S
C3849 C3848 1.400 . S
C3849 C3850 1.398 . S
C3850 H3838 0.950 . S
C3850 C3849 1.398 . S
C3850 C3851 1.391 . S
C3851 H3839 0.950 . S
C3851 C3847 1.393 . S
C3851 C3850 1.391 . S
H3852 C3860 0.950 . S
H3853 C3865 0.950 . S
H3854 C3862 0.950 . S
H3855 C3864 0.950 . S
H3856 C3866 0.950 . S
H3857 C3868 0.950 . S
H3858 C3870 0.950 . S
H3859 C3871 0.950 . S
C3860 H3852 0.950 . S
C3860 C3861 1.386 . S
C3860 C3862 1.391 . S
C3861 C3860 1.386 . S
C3861 C3865 1.393 . S
C3862 H3854 0.950 . S
C3862 C3860 1.391 . S
C3862 C3863 1.400 . S
C3863 C3862 1.400 . S
C3863 C3864 1.398 . S
C3863 C3869 1.491 . S
C3864 H3855 0.950 . S
C3864 C3863 1.398 . S
C3864 C3865 1.391 . S
C3865 H3853 0.950 . S
C3865 C3861 1.393 . S
C3865 C3864 1.391 . S
C3866 H3856 0.950 . S
C3866 C3867 1.386 . S
C3866 C3868 1.391 . S
C3867 C3866 1.386 . S
C3867 C3871 1.393 . S
C3868 H3857 0.950 . S
C3868 C3866 1.391 . S
C3868 C3869 1.400 . S
C3869 C3863 1.491 . S
C3869 C3868 1.400 . S
C3869 C3870 1.398 . S
C3870 H3858 0.950 . S
C3870 C3869 1.398 . S
C3870 C3871 1.391 . S
C3871 H3859 0.950 . S
C3871 C3867 1.393 . S
C3871 C3870 1.391 . S
H3872 C3880 0.950 . S
H3873 C3885 0.950 . S
H3874 C3882 0.950 . S
H3875 C3884 0.950 . S
H3876 C3886 0.950 . S
H3877 C3888 0.950 . S
H3878 C3890 0.950 . S
H3879 C3891 0.950 . S
C3880 H3872 0.950 . S
C3880 C3881 1.386 . S
C3880 C3882 1.391 . S
C3881 C3880 1.386 . S
C3881 C3885 1.393 . S
C3882 H3874 0.950 . S
C3882 C3880 1.391 . S
C3882 C3883 1.400 . S
C3883 C3882 1.400 . S
C3883 C3884 1.398 . S
C3883 C3889 1.491 . S
C3884 H3875 0.950 . S
C3884 C3883 1.398 . S
C3884 C3885 1.391 . S
C3885 H3873 0.950 . S
C3885 C3881 1.393 . S
C3885 C3884 1.391 . S
C3886 H3876 0.950 . S
C3886 C3887 1.386 . S
C3886 C3888 1.391 . S
C3887 C3886 1.386 . S
C3887 C3891 1.393 . S
C3888 H3877 0.950 . S
C3888 C3886 1.391 . S
C3888 C3889 1.400 . S
C3889 C3883 1.491 . S
C3889 C3888 1.400 . S
C3889 C3890 1.398 . S
C3890 H3878 0.950 . S
C3890 C3889 1.398 . S
C3890 C3891 1.391 . S
C3891 H3879 0.950 . S
C3891 C3887 1.393 . S
C3891 C3890 1.391 . S
H3892 C3900 0.950 . S
H3893 C3905 0.950 . S
H3894 C3902 0.950 . S
H3895 C3904 0.950 . S
H3896 C3906 0.950 . S
H3897 C3908 0.950 . S
H3898 C3910 0.950 . S
H3899 C3911 0.950 . S
C3900 H3892 0.950 . S
C3900 C3901 1.386 . S
C3900 C3902 1.391 . S
C3901 C3900 1.386 . S
C3901 C3905 1.393 . S
C3902 H3894 0.950 . S
C3902 C3900 1.391 . S
C3902 C3903 1.400 . S
C3903 C3902 1.400 . S
C3903 C3904 1.398 . S
C3903 C3909 1.491 . S
C3904 H3895 0.950 . S
C3904 C3903 1.398 . S
C3904 C3905 1.391 . S
C3905 H3893 0.950 . S
C3905 C3901 1.393 . S
C3905 C3904 1.391 . S
C3906 H3896 0.950 . S
C3906 C3907 1.386 . S
C3906 C3908 1.391 . S
C3907 C3906 1.386 . S
C3907 C3911 1.393 . S
C3908 H3897 0.950 . S
C3908 C3906 1.391 . S
C3908 C3909 1.400 . S
C3909 C3903 1.491 . S
C3909 C3908 1.400 . S
C3909 C3910 1.398 . S
C3910 H3898 0.950 . S
C3910 C3909 1.398 . S
C3910 C3911 1.391 . S
C3911 H3899 0.950 . S
C3911 C3907 1.393 . S
C3911 C3910 1.391 . S
H3912 C3920 0.950 . S
H3913 C3925 0.950 . S
H3914 C3922 0.950 . S
H3915 C3924 0.950 . S
H3916 C3926 0.950 . S
H3917 C3928 0.950 . S
H3918 C3930 0.950 . S
H3919 C3931 0.950 . S
C3920 H3912 0.950 . S
C3920 C3921 1.386 1_455 S
C3920 C3922 1.391 . S
C3921 C3920 1.386 1_655 S
C3921 C3925 1.393 . S
C3922 H3914 0.950 . S
C3922 C3920 1.391 . S
C3922 C3923 1.400 . S
C3923 C3922 1.400 . S
C3923 C3924 1.398 1_455 S
C3923 C3929 1.491 . S
C3924 H3915 0.950 . S
C3924 C3923 1.398 1_655 S
C3924 C3925 1.391 . S
C3925 H3913 0.950 . S
C3925 C3921 1.393 . S
C3925 C3924 1.391 . S
C3926 H3916 0.950 . S
C3926 C3927 1.386 1_655 S
C3926 C3928 1.391 . S
C3927 C3926 1.386 1_455 S
C3927 C3931 1.393 . S
C3928 H3917 0.950 . S
C3928 C3926 1.391 . S
C3928 C3929 1.400 1_655 S
C3929 C3923 1.491 . S
C3929 C3928 1.400 1_455 S
C3929 C3930 1.398 . S
C3930 H3918 0.950 . S
C3930 C3929 1.398 . S
C3930 C3931 1.391 . S
C3931 H3919 0.950 . S
C3931 C3927 1.393 . S
C3931 C3930 1.391 . S
H3932 C3940 0.950 . S
H3933 C3945 0.950 . S
H3934 C3942 0.950 . S
H3935 C3944 0.950 . S
H3936 C3946 0.950 . S
H3937 C3948 0.950 . S
H3938 C3950 0.950 . S
H3939 C3951 0.950 . S
C3940 H3932 0.950 . S
C3940 C3941 1.386 . S
C3940 C3942 1.391 . S
C3941 C3940 1.386 . S
C3941 C3945 1.393 . S
C3942 H3934 0.950 . S
C3942 C3940 1.391 . S
C3942 C3943 1.400 . S
C3943 C3942 1.400 . S
C3943 C3944 1.398 . S
C3943 C3949 1.491 . S
C3944 H3935 0.950 . S
C3944 C3943 1.398 . S
C3944 C3945 1.391 . S
C3945 H3933 0.950 . S
C3945 C3941 1.393 . S
C3945 C3944 1.391 . S
C3946 H3936 0.950 . S
C3946 C3947 1.386 . S
C3946 C3948 1.391 . S
C3947 C3946 1.386 . S
C3947 C3951 1.393 . S
C3948 H3937 0.950 . S
C3948 C3946 1.391 . S
C3948 C3949 1.400 . S
C3949 C3943 1.491 . S
C3949 C3948 1.400 . S
C3949 C3950 1.398 . S
C3950 H3938 0.950 . S
C3950 C3949 1.398 . S
C3950 C3951 1.391 . S
C3951 H3939 0.950 . S
C3951 C3947 1.393 . S
C3951 C3950 1.391 . S
H3952 C3960 0.950 . S
H3953 C3965 0.950 . S
H3954 C3962 0.950 . S
H3955 C3964 0.950 . S
H3956 C3966 0.950 . S
H3957 C3968 0.950 . S
H3958 C3970 0.950 . S
H3959 C3971 0.950 . S
C3960 H3952 0.950 . S
C3960 C3961 1.386 . S
C3960 C3962 1.391 . S
C3961 C3960 1.386 . S
C3961 C3965 1.393 . S
C3962 H3954 0.950 . S
C3962 C3960 1.391 . S
C3962 C3963 1.400 . S
C3963 C3962 1.400 . S
C3963 C3964 1.398 . S
C3963 C3969 1.491 . S
C3964 H3955 0.950 . S
C3964 C3963 1.398 . S
C3964 C3965 1.391 . S
C3965 H3953 0.950 . S
C3965 C3961 1.393 . S
C3965 C3964 1.391 . S
C3966 H3956 0.950 . S
C3966 C3967 1.386 . S
C3966 C3968 1.391 . S
C3967 C3966 1.386 . S
C3967 C3971 1.393 . S
C3968 H3957 0.950 . S
C3968 C3966 1.391 . S
C3968 C3969 1.400 . S
C3969 C3963 1.491 . S
C3969 C3968 1.400 . S
C3969 C3970 1.398 . S
C3970 H3958 0.950 . S
C3970 C3969 1.398 . S
C3970 C3971 1.391 . S
C3971 H3959 0.950 . S
C3971 C3967 1.393 . S
C3971 C3970 1.391 . S
H3972 C3980 0.950 . S
H3973 C3985 0.950 . S
H3974 C3982 0.950 . S
H3975 C3984 0.950 . S
H3976 C3986 0.950 . S
H3977 C3988 0.950 . S
H3978 C3990 0.950 . S
H3979 C3991 0.950 . S
C3980 H3972 0.950 . S
C3980 C3981 1.386 . S
C3980 C3982 1.391 . S
C3981 C3980 1.386 . S
C3981 C3985 1.393 . S
C3982 H3974 0.950 . S
C3982 C3980 1.391 . S
C3982 C3983 1.400 . S
C3983 C3982 1.400 . S
C3983 C3984 1.398 . S
C3983 C3989 1.491 . S
C3984 H3975 0.950 . S
C3984 C3983 1.398 . S
C3984 C3985 1.391 . S
C3985 H3973 0.950 . S
C3985 C3981 1.393 . S
C3985 C3984 1.391 . S
C3986 H3976 0.950 . S
C3986 C3987 1.386 . S
C3986 C3988 1.391 . S
C3987 C3986 1.386 . S
C3987 C3991 1.393 . S
C3988 H3977 0.950 . S
C3988 C3986 1.391 . S
C3988 C3989 1.400 . S
C3989 C3983 1.491 . S
C3989 C3988 1.400 . S
C3989 C3990 1.398 . S
C3990 H3978 0.950 . S
C3990 C3989 1.398 . S
C3990 C3991 1.391 . S
C3991 H3979 0.950 . S
C3991 C3987 1.393 . S
C3991 C3990 1.391 . S
H3992 C4000 0.950 . S
H3993 C4005 0.950 . S
H3994 C4002 0.950 . S
H3995 C4004 0.950 . S
H3996 C4006 0.950 . S
H3997 C4008 0.950 . S
H3998 C4010 0.950 . S
H3999 C4011 0.950 . S
C4000 H3992 0.950 . S
C4000 C4001 1.386 . S
C4000 C4002 1.391 . S
C4001 C4000 1.386 . S
C4001 C4005 1.393 . S
C4002 H3994 0.950 . S
C4002 C4000 1.391 . S
C4002 C4003 1.400 . S
C4003 C4002 1.400 . S
C4003 C4004 1.398 . S
C4003 C4009 1.491 . S
C4004 H3995 0.950 . S
C4004 C4003 1.398 . S
C4004 C4005 1.391 . S
C4005 H3993 0.950 . S
C4005 C4001 1.393 . S
C4005 C4004 1.391 . S
C4006 H3996 0.950 . S
C4006 C4007 1.386 . S
C4006 C4008 1.391 . S
C4007 C4006 1.386 . S
C4007 C4011 1.393 . S
C4008 H3997 0.950 . S
C4008 C4006 1.391 . S
C4008 C4009 1.400 . S
C4009 C4003 1.491 . S
C4009 C4008 1.400 . S
C4009 C4010 1.398 . S
C4010 H3998 0.950 . S
C4010 C4009 1.398 . S
C4010 C4011 1.391 . S
C4011 H3999 0.950 . S
C4011 C4007 1.393 . S
C4011 C4010 1.391 . S
H4012 C4020 0.950 . S
H4013 C4025 0.950 . S
H4014 C4022 0.950 . S
H4015 C4024 0.950 . S
H4016 C4026 0.950 . S
H4017 C4028 0.950 . S
H4018 C4030 0.950 . S
H4019 C4031 0.950 . S
C4020 H4012 0.950 . S
C4020 C4021 1.386 . S
C4020 C4022 1.391 . S
C4021 C4020 1.386 . S
C4021 C4025 1.393 . S
C4022 H4014 0.950 . S
C4022 C4020 1.391 . S
C4022 C4023 1.400 . S
C4023 C4022 1.400 . S
C4023 C4024 1.398 . S
C4023 C4029 1.491 . S
C4024 H4015 0.950 . S
C4024 C4023 1.398 . S
C4024 C4025 1.391 . S
C4025 H4013 0.950 . S
C4025 C4021 1.393 . S
C4025 C4024 1.391 . S
C4026 H4016 0.950 . S
C4026 C4027 1.386 . S
C4026 C4028 1.391 . S
C4027 C4026 1.386 . S
C4027 C4031 1.393 . S
C4028 H4017 0.950 . S
C4028 C4026 1.391 . S
C4028 C4029 1.400 . S
C4029 C4023 1.491 . S
C4029 C4028 1.400 . S
C4029 C4030 1.398 . S
C4030 H4018 0.950 . S
C4030 C4029 1.398 . S
C4030 C4031 1.391 . S
C4031 H4019 0.950 . S
C4031 C4027 1.393 . S
C4031 C4030 1.391 . S
H4032 C4040 0.950 . S
H4033 C4045 0.950 . S
H4034 C4042 0.950 . S
H4035 C4044 0.950 . S
H4036 C4046 0.950 . S
H4037 C4048 0.950 . S
H4038 C4050 0.950 . S
H4039 C4051 0.950 . S
C4040 H4032 0.950 . S
C4040 C4041 1.386 . S
C4040 C4042 1.391 . S
C4041 C4040 1.386 . S
C4041 C4045 1.393 . S
C4042 H4034 0.950 . S
C4042 C4040 1.391 . S
C4042 C4043 1.400 . S
C4043 C4042 1.400 . S
C4043 C4044 1.398 . S
C4043 C4049 1.491 . S
C4044 H4035 0.950 . S
C4044 C4043 1.398 . S
C4044 C4045 1.391 . S
C4045 H4033 0.950 . S
C4045 C4041 1.393 . S
C4045 C4044 1.391 . S
C4046 H4036 0.950 . S
C4046 C4047 1.386 . S
C4046 C4048 1.391 . S
C4047 C4046 1.386 . S
C4047 C4051 1.393 . S
C4048 H4037 0.950 . S
C4048 C4046 1.391 . S
C4048 C4049 1.400 . S
C4049 C4043 1.491 . S
C4049 C4048 1.400 . S
C4049 C4050 1.398 . S
C4050 H4038 0.950 . S
C4050 C4049 1.398 . S
C4050 C4051 1.391 . S
C4051 H4039 0.950 . S
C4051 C4047 1.393 . S
C4051 C4050 1.391 . S
H4052 C4060 0.950 . S
H4053 C4065 0.950 . S
H4054 C4062 0.950 . S
H4055 C4064 0.950 . S
H4056 C4066 0.950 . S
H4057 C4068 0.950 . S
H4058 C4070 0.950 . S
H4059 C4071 0.950 . S
C4060 H4052 0.950 . S
C4060 C4061 1.386 . S
C4060 C4062 1.391 . S
C4061 C4060 1.386 . S
C4061 C4065 1.393 . S
C4062 H4054 0.950 . S
C4062 C4060 1.391 . S
C4062 C4063 1.400 . S
C4063 C4062 1.400 . S
C4063 C4064 1.398 . S
C4063 C4069 1.491 . S
C4064 H4055 0.950 . S
C4064 C4063 1.398 . S
C4064 C4065 1.391 . S
C4065 H4053 0.950 . S
C4065 C4061 1.393 . S
C4065 C4064 1.391 . S
C4066 H4056 0.950 . S
C4066 C4067 1.386 . S
C4066 C4068 1.391 . S
C4067 C4066 1.386 . S
C4067 C4071 1.393 . S
C4068 H4057 0.950 . S
C4068 C4066 1.391 . S
C4068 C4069 1.400 . S
C4069 C4063 1.491 . S
C4069 C4068 1.400 . S
C4069 C4070 1.398 . S
C4070 H4058 0.950 . S
C4070 C4069 1.398 . S
C4070 C4071 1.391 . S
C4071 H4059 0.950 . S
C4071 C4067 1.393 . S
C4071 C4070 1.391 . S
H4072 C4080 0.950 . S
H4073 C4085 0.950 . S
H4074 C4082 0.950 . S
H4075 C4084 0.950 . S
H4076 C4086 0.950 . S
H4077 C4088 0.950 1_455 S
H4078 C4090 0.950 . S
H4079 C4091 0.950 . S
C4080 H4072 0.950 . S
C4080 C4081 1.386 . S
C4080 C4082 1.391 . S
C4081 C4080 1.386 . S
C4081 C4085 1.393 . S
C4082 H4074 0.950 . S
C4082 C4080 1.391 . S
C4082 C4083 1.400 . S
C4083 C4082 1.400 . S
C4083 C4084 1.398 . S
C4083 C4089 1.491 . S
C4084 H4075 0.950 . S
C4084 C4083 1.398 . S
C4084 C4085 1.391 . S
C4085 H4073 0.950 . S
C4085 C4081 1.393 . S
C4085 C4084 1.391 . S
C4086 H4076 0.950 . S
C4086 C4087 1.386 1_455 S
C4086 C4088 1.391 1_455 S
C4087 C4086 1.386 1_655 S
C4087 C4091 1.393 . S
C4088 H4077 0.950 1_655 S
C4088 C4086 1.391 1_655 S
C4088 C4089 1.400 . S
C4089 C4083 1.491 . S
C4089 C4088 1.400 . S
C4089 C4090 1.398 . S
C4090 H4078 0.950 . S
C4090 C4089 1.398 . S
C4090 C4091 1.391 . S
C4091 H4079 0.950 . S
C4091 C4087 1.393 . S
C4091 C4090 1.391 . S
H4092 C4100 0.950 . S
H4093 C4105 0.950 . S
H4094 C4102 0.950 . S
H4095 C4104 0.950 . S
H4096 C4106 0.950 . S
H4097 C4108 0.950 . S
H4098 C4110 0.950 . S
H4099 C4111 0.950 . S
C4100 H4092 0.950 . S
C4100 C4101 1.386 . S
C4100 C4102 1.391 . S
C4101 C4100 1.386 . S
C4101 C4105 1.393 . S
C4102 H4094 0.950 . S
C4102 C4100 1.391 . S
C4102 C4103 1.400 . S
C4103 C4102 1.400 . S
C4103 C4104 1.398 . S
C4103 C4109 1.491 . S
C4104 H4095 0.950 . S
C4104 C4103 1.398 . S
C4104 C4105 1.391 . S
C4105 H4093 0.950 . S
C4105 C4101 1.393 . S
C4105 C4104 1.391 . S
C4106 H4096 0.950 . S
C4106 C4107 1.386 . S
C4106 C4108 1.391 . S
C4107 C4106 1.386 . S
C4107 C4111 1.393 . S
C4108 H4097 0.950 . S
C4108 C4106 1.391 . S
C4108 C4109 1.400 . S
C4109 C4103 1.491 . S
C4109 C4108 1.400 . S
C4109 C4110 1.398 . S
C4110 H4098 0.950 . S
C4110 C4109 1.398 . S
C4110 C4111 1.391 . S
C4111 H4099 0.950 . S
C4111 C4107 1.393 . S
C4111 C4110 1.391 . S
H4112 C4120 0.950 . S
H4113 C4125 0.950 . S
H4114 C4122 0.950 . S
H4115 C4124 0.950 . S
H4116 C4126 0.950 . S
H4117 C4128 0.950 . S
H4118 C4130 0.950 . S
H4119 C4131 0.950 . S
C4120 H4112 0.950 . S
C4120 C4121 1.386 . S
C4120 C4122 1.391 . S
C4121 C4120 1.386 . S
C4121 C4125 1.393 . S
C4122 H4114 0.950 . S
C4122 C4120 1.391 . S
C4122 C4123 1.400 . S
C4123 C4122 1.400 . S
C4123 C4124 1.398 . S
C4123 C4129 1.491 . S
C4124 H4115 0.950 . S
C4124 C4123 1.398 . S
C4124 C4125 1.391 . S
C4125 H4113 0.950 . S
C4125 C4121 1.393 . S
C4125 C4124 1.391 . S
C4126 H4116 0.950 . S
C4126 C4127 1.386 . S
C4126 C4128 1.391 . S
C4127 C4126 1.386 . S
C4127 C4131 1.393 . S
C4128 H4117 0.950 . S
C4128 C4126 1.391 . S
C4128 C4129 1.400 . S
C4129 C4123 1.491 . S
C4129 C4128 1.400 . S
C4129 C4130 1.398 . S
C4130 H4118 0.950 . S
C4130 C4129 1.398 . S
C4130 C4131 1.391 . S
C4131 H4119 0.950 . S
C4131 C4127 1.393 . S
C4131 C4130 1.391 . S
H4132 C4140 0.950 . S
H4133 C4145 0.950 . S
H4134 C4142 0.950 . S
H4135 C4144 0.950 . S
H4136 C4146 0.950 . S
H4137 C4148 0.950 . S
H4138 C4150 0.950 . S
H4139 C4151 0.950 . S
C4140 H4132 0.950 . S
C4140 C4141 1.386 . S
C4140 C4142 1.391 . S
C4141 C4140 1.386 . S
C4141 C4145 1.393 . S
C4142 H4134 0.950 . S
C4142 C4140 1.391 . S
C4142 C4143 1.400 . S
C4143 C4142 1.400 . S
C4143 C4144 1.398 . S
C4143 C4149 1.491 . S
C4144 H4135 0.950 . S
C4144 C4143 1.398 . S
C4144 C4145 1.391 . S
C4145 H4133 0.950 . S
C4145 C4141 1.393 . S
C4145 C4144 1.391 . S
C4146 H4136 0.950 . S
C4146 C4147 1.386 . S
C4146 C4148 1.391 . S
C4147 C4146 1.386 . S
C4147 C4151 1.393 . S
C4148 H4137 0.950 . S
C4148 C4146 1.391 . S
C4148 C4149 1.400 . S
C4149 C4143 1.491 . S
C4149 C4148 1.400 . S
C4149 C4150 1.398 . S
C4150 H4138 0.950 . S
C4150 C4149 1.398 . S
C4150 C4151 1.391 . S
C4151 H4139 0.950 . S
C4151 C4147 1.393 . S
C4151 C4150 1.391 . S
H4152 C4160 0.950 . S
H4153 C4165 0.950 . S
H4154 C4162 0.950 . S
H4155 C4164 0.950 . S
H4156 C4166 0.950 . S
H4157 C4168 0.950 . S
H4158 C4170 0.950 . S
H4159 C4171 0.950 1_455 S
C4160 H4152 0.950 . S
C4160 C4161 1.386 . S
C4160 C4162 1.391 . S
C4161 C4160 1.386 . S
C4161 C4165 1.393 . S
C4162 H4154 0.950 . S
C4162 C4160 1.391 . S
C4162 C4163 1.400 . S
C4163 C4162 1.400 . S
C4163 C4164 1.398 . S
C4163 C4169 1.491 . S
C4164 H4155 0.950 . S
C4164 C4163 1.398 . S
C4164 C4165 1.391 . S
C4165 H4153 0.950 . S
C4165 C4161 1.393 . S
C4165 C4164 1.391 . S
C4166 H4156 0.950 . S
C4166 C4167 1.386 . S
C4166 C4168 1.391 . S
C4167 C4166 1.386 . S
C4167 C4171 1.393 . S
C4168 H4157 0.950 . S
C4168 C4166 1.391 . S
C4168 C4169 1.400 . S
C4169 C4163 1.491 . S
C4169 C4168 1.400 . S
C4169 C4170 1.398 . S
C4170 H4158 0.950 . S
C4170 C4169 1.398 . S
C4170 C4171 1.391 . S
C4171 H4159 0.950 1_655 S
C4171 C4167 1.393 . S
C4171 C4170 1.391 . S
H4172 C4180 0.950 . S
H4173 C4185 0.950 . S
H4174 C4182 0.950 . S
H4175 C4184 0.950 . S
H4176 C4186 0.950 . S
H4177 C4188 0.950 . S
H4178 C4190 0.950 . S
H4179 C4191 0.950 . S
C4180 H4172 0.950 . S
C4180 C4181 1.386 . S
C4180 C4182 1.391 . S
C4181 C4180 1.386 . S
C4181 C4185 1.393 . S
C4182 H4174 0.950 . S
C4182 C4180 1.391 . S
C4182 C4183 1.400 . S
C4183 C4182 1.400 . S
C4183 C4184 1.398 . S
C4183 C4189 1.491 . S
C4184 H4175 0.950 . S
C4184 C4183 1.398 . S
C4184 C4185 1.391 . S
C4185 H4173 0.950 . S
C4185 C4181 1.393 . S
C4185 C4184 1.391 . S
C4186 H4176 0.950 . S
C4186 C4187 1.386 . S
C4186 C4188 1.391 . S
C4187 C4186 1.386 . S
C4187 C4191 1.393 . S
C4188 H4177 0.950 . S
C4188 C4186 1.391 . S
C4188 C4189 1.400 . S
C4189 C4183 1.491 . S
C4189 C4188 1.400 . S
C4189 C4190 1.398 . S
C4190 H4178 0.950 . S
C4190 C4189 1.398 . S
C4190 C4191 1.391 . S
C4191 H4179 0.950 . S
C4191 C4187 1.393 . S
C4191 C4190 1.391 . S
H4192 C4200 0.950 . S
H4193 C4205 0.950 . S
H4194 C4202 0.950 . S
H4195 C4204 0.950 . S
H4196 C4206 0.950 . S
H4197 C4208 0.950 . S
H4198 C4210 0.950 . S
H4199 C4211 0.950 . S
C4200 H4192 0.950 . S
C4200 C4201 1.386 . S
C4200 C4202 1.391 . S
C4201 C4200 1.386 . S
C4201 C4205 1.393 . S
C4202 H4194 0.950 . S
C4202 C4200 1.391 . S
C4202 C4203 1.400 . S
C4203 C4202 1.400 . S
C4203 C4204 1.398 . S
C4203 C4209 1.491 . S
C4204 H4195 0.950 . S
C4204 C4203 1.398 . S
C4204 C4205 1.391 . S
C4205 H4193 0.950 . S
C4205 C4201 1.393 . S
C4205 C4204 1.391 . S
C4206 H4196 0.950 . S
C4206 C4207 1.386 . S
C4206 C4208 1.391 . S
C4207 C4206 1.386 . S
C4207 C4211 1.393 . S
C4208 H4197 0.950 . S
C4208 C4206 1.391 . S
C4208 C4209 1.400 . S
C4209 C4203 1.491 . S
C4209 C4208 1.400 . S
C4209 C4210 1.398 . S
C4210 H4198 0.950 . S
C4210 C4209 1.398 . S
C4210 C4211 1.391 . S
C4211 H4199 0.950 . S
C4211 C4207 1.393 . S
C4211 C4210 1.391 . S
H4212 C4220 0.950 . S
H4213 C4225 0.950 . S
H4214 C4222 0.908 1_545 S
H4215 C4224 0.950 . S
H4216 C4226 0.950 . S
H4217 C4228 0.950 . S
H4218 C4230 0.950 . S
H4219 C4231 0.950 . S
C4220 H4212 0.950 . S
C4220 C4221 1.386 . S
C4220 C4222 1.391 . S
C4221 C4220 1.386 . S
C4221 C4225 1.393 . S
C4222 H4214 0.908 1_565 S
C4222 C4220 1.391 . S
C4222 C4223 1.400 . S
C4223 C4222 1.400 . S
C4223 C4224 1.398 . S
C4223 C4229 1.491 . S
C4224 H4215 0.950 . S
C4224 C4223 1.398 . S
C4224 C4225 1.391 . S
C4225 H4213 0.950 . S
C4225 C4221 1.393 . S
C4225 C4224 1.391 . S
C4226 H4216 0.950 . S
C4226 C4227 1.386 1_565 S
C4226 C4228 1.391 . S
C4227 C4226 1.386 1_545 S
C4227 C4231 1.393 . S
C4228 H4217 0.950 . S
C4228 C4226 1.391 . S
C4228 C4229 1.400 . S
C4229 C4223 1.491 . S
C4229 C4228 1.400 . S
C4229 C4230 1.398 1_565 S
C4230 H4218 0.950 . S
C4230 C4229 1.398 1_545 S
C4230 C4231 1.391 . S
C4231 H4219 0.950 . S
C4231 C4227 1.393 . S
C4231 C4230 1.391 . S
H4232 C4240 0.950 . S
H4233 C4245 0.950 . S
H4234 C4242 0.950 . S
H4235 C4244 0.950 . S
H4236 C4246 0.950 . S
H4237 C4248 0.950 . S
H4238 C4250 0.950 . S
H4239 C4251 0.950 . S
C4240 H4232 0.950 . S
C4240 C4241 1.386 . S
C4240 C4242 1.391 . S
C4241 C4240 1.386 . S
C4241 C4245 1.393 . S
C4242 H4234 0.950 . S
C4242 C4240 1.391 . S
C4242 C4243 1.400 . S
C4243 C4242 1.400 . S
C4243 C4244 1.398 . S
C4243 C4249 1.491 . S
C4244 H4235 0.950 . S
C4244 C4243 1.398 . S
C4244 C4245 1.391 . S
C4245 H4233 0.950 . S
C4245 C4241 1.393 . S
C4245 C4244 1.391 . S
C4246 H4236 0.950 . S
C4246 C4247 1.386 . S
C4246 C4248 1.391 . S
C4247 C4246 1.386 . S
C4247 C4251 1.393 . S
C4248 H4237 0.950 . S
C4248 C4246 1.391 . S
C4248 C4249 1.400 . S
C4249 C4243 1.491 . S
C4249 C4248 1.400 . S
C4249 C4250 1.398 . S
C4250 H4238 0.950 . S
C4250 C4249 1.398 . S
C4250 C4251 1.391 . S
C4251 H4239 0.950 . S
C4251 C4247 1.393 . S
C4251 C4250 1.391 . S
H4252 C4260 0.950 . S
H4253 C4265 0.950 . S
H4254 C4262 0.950 . S
H4255 C4264 0.950 . S
H4256 C4266 0.950 . S
H4257 C4268 0.950 . S
H4258 C4270 0.950 . S
H4259 C4271 0.950 . S
C4260 H4252 0.950 . S
C4260 C4261 1.386 1_554 S
C4260 C4262 1.391 . S
C4261 C4260 1.386 1_556 S
C4261 C4265 1.393 . S
C4262 H4254 0.950 . S
C4262 C4260 1.391 . S
C4262 C4263 1.400 1_554 S
C4263 C4262 1.400 1_556 S
C4263 C4264 1.398 . S
C4263 C4269 1.491 1_556 S
C4264 H4255 0.950 . S
C4264 C4263 1.398 . S
C4264 C4265 1.391 . S
C4265 H4253 0.950 . S
C4265 C4261 1.393 . S
C4265 C4264 1.391 . S
C4266 H4256 0.950 . S
C4266 C4267 1.386 1_556 S
C4266 C4268 1.391 . S
C4267 C4266 1.386 1_554 S
C4267 C4271 1.393 . S
C4268 H4257 0.950 . S
C4268 C4266 1.391 . S
C4268 C4269 1.400 1_556 S
C4269 C4263 1.491 1_554 S
C4269 C4268 1.400 1_554 S
C4269 C4270 1.398 . S
C4270 H4258 0.950 . S
C4270 C4269 1.398 . S
C4270 C4271 1.391 . S
C4271 H4259 0.950 . S
C4271 C4267 1.393 . S
C4271 C4270 1.391 . S
H4272 C4280 0.950 . S
H4273 C4285 0.950 . S
H4274 C4282 0.950 . S
H4275 C4284 0.950 . S
H4276 C4286 0.950 . S
H4277 C4288 0.950 . S
H4278 C4290 0.950 . S
H4279 C4291 0.950 . S
C4280 H4272 0.950 . S
C4280 C4281 1.386 . S
C4280 C4282 1.391 . S
C4281 C4280 1.386 . S
C4281 C4285 1.393 . S
C4282 H4274 0.950 . S
C4282 C4280 1.391 . S
C4282 C4283 1.400 . S
C4283 C4282 1.400 . S
C4283 C4284 1.398 . S
C4283 C4289 1.491 . S
C4284 H4275 0.950 . S
C4284 C4283 1.398 . S
C4284 C4285 1.391 . S
C4285 H4273 0.950 . S
C4285 C4281 1.393 . S
C4285 C4284 1.391 . S
C4286 H4276 0.950 . S
C4286 C4287 1.386 . S
C4286 C4288 1.391 . S
C4287 C4286 1.386 . S
C4287 C4291 1.393 . S
C4288 H4277 0.950 . S
C4288 C4286 1.391 . S
C4288 C4289 1.400 . S
C4289 C4283 1.491 . S
C4289 C4288 1.400 . S
C4289 C4290 1.398 . S
C4290 H4278 0.950 . S
C4290 C4289 1.398 . S
C4290 C4291 1.391 . S
C4291 H4279 0.950 . S
C4291 C4287 1.393 . S
C4291 C4290 1.391 . S
H4292 C4300 0.950 . S
H4293 C4305 0.950 1_556 S
H4294 C4302 0.950 . S
H4295 C4304 0.950 1_556 S
H4296 C4306 0.950 . S
H4297 C4308 0.950 . S
H4298 C4310 0.950 . S
H4299 C4311 0.950 . S
C4300 H4292 0.950 . S
C4300 C4301 1.386 . S
C4300 C4302 1.391 . S
C4301 C4300 1.386 . S
C4301 C4305 1.393 . S
C4302 H4294 0.950 . S
C4302 C4300 1.391 . S
C4302 C4303 1.400 . S
C4303 C4302 1.400 . S
C4303 C4304 1.398 . S
C4303 C4309 1.491 . S
C4304 H4295 0.950 1_554 S
C4304 C4303 1.398 . S
C4304 C4305 1.391 . S
C4305 H4293 0.950 1_554 S
C4305 C4301 1.393 . S
C4305 C4304 1.391 . S
C4306 H4296 0.950 . S
C4306 C4307 1.386 . S
C4306 C4308 1.391 . S
C4307 C4306 1.386 . S
C4307 C4311 1.393 1_556 S
C4308 H4297 0.950 . S
C4308 C4306 1.391 . S
C4308 C4309 1.400 1_556 S
C4309 C4303 1.491 . S
C4309 C4308 1.400 1_554 S
C4309 C4310 1.398 . S
C4310 H4298 0.950 . S
C4310 C4309 1.398 . S
C4310 C4311 1.391 . S
C4311 H4299 0.950 . S
C4311 C4307 1.393 1_554 S
C4311 C4310 1.391 . S
H4312 C4320 0.950 . S
H4313 C4325 0.950 . S
H4314 C4322 0.950 . S
H4315 C4324 0.950 . S
H4316 C4326 0.950 . S
H4317 C4328 0.950 . S
H4318 C4330 0.950 . S
H4319 C4331 0.950 . S
C4320 H4312 0.950 . S
C4320 C4321 1.386 . S
C4320 C4322 1.391 . S
C4321 C4320 1.386 . S
C4321 C4325 1.393 . S
C4322 H4314 0.950 . S
C4322 C4320 1.391 . S
C4322 C4323 1.400 . S
C4323 C4322 1.400 . S
C4323 C4324 1.398 . S
C4323 C4329 1.491 . S
C4324 H4315 0.950 . S
C4324 C4323 1.398 . S
C4324 C4325 1.391 . S
C4325 H4313 0.950 . S
C4325 C4321 1.393 . S
C4325 C4324 1.391 . S
C4326 H4316 0.950 . S
C4326 C4327 1.386 . S
C4326 C4328 1.391 . S
C4327 C4326 1.386 . S
C4327 C4331 1.393 . S
C4328 H4317 0.950 . S
C4328 C4326 1.391 . S
C4328 C4329 1.400 . S
C4329 C4323 1.491 . S
C4329 C4328 1.400 . S
C4329 C4330 1.398 . S
C4330 H4318 0.950 . S
C4330 C4329 1.398 . S
C4330 C4331 1.391 . S
C4331 H4319 0.950 . S
C4331 C4327 1.393 . S
C4331 C4330 1.391 . S
H4332 C4340 0.950 . S
H4333 C4345 0.950 . S
H4334 C4342 0.950 . S
H4335 C4344 0.950 . S
H4336 C4346 0.950 . S
H4337 C4348 0.950 . S
H4338 C4350 0.950 . S
H4339 C4351 0.950 . S
C4340 H4332 0.950 . S
C4340 C4341 1.386 . S
C4340 C4342 1.391 . S
C4341 C4340 1.386 . S
C4341 C4345 1.393 . S
C4342 H4334 0.950 . S
C4342 C4340 1.391 . S
C4342 C4343 1.400 . S
C4343 C4342 1.400 . S
C4343 C4344 1.398 . S
C4343 C4349 1.491 . S
C4344 H4335 0.950 . S
C4344 C4343 1.398 . S
C4344 C4345 1.391 . S
C4345 H4333 0.950 . S
C4345 C4341 1.393 . S
C4345 C4344 1.391 . S
C4346 H4336 0.950 . S
C4346 C4347 1.386 . S
C4346 C4348 1.391 . S
C4347 C4346 1.386 . S
C4347 C4351 1.393 . S
C4348 H4337 0.950 . S
C4348 C4346 1.391 . S
C4348 C4349 1.400 . S
C4349 C4343 1.491 . S
C4349 C4348 1.400 . S
C4349 C4350 1.398 . S
C4350 H4338 0.950 . S
C4350 C4349 1.398 . S
C4350 C4351 1.391 . S
C4351 H4339 0.950 . S
C4351 C4347 1.393 . S
C4351 C4350 1.391 . S
C2441 C665 1.077 . S
C2447 C2128 1.047 1_556 S
C2461 C381 1.186 . S
C2467 C2141 1.183 . S
C2481 C460 1.231 . S
C2487 C2160 1.221 . S
C2507 C2191 1.918 . S
C2501 C585 1.985 . S
C2521 C108 1.744 . S
C2527 C2211 1.689 . S
C2547 C2228 0.744 . S
C2541 C196 0.744 . S
C2567 C2241 1.445 . S
C2561 C313 1.434 . S
C2581 C49 0.827 . S
C2587 C2268 0.834 . S
C2607 C2121 1.084 . S
C2601 C1457 1.105 . S
C2621 C1545 1.379 . S
C2627 C2151 1.351 . S
C2647 C2153 1.758 . S
C2641 C1721 1.776 . S
C2667 C2188 0.859 . S
C2661 C1113 0.875 . S
C2681 C1428 1.120 . S
C2687 C2208 1.160 . S
C2707 C2221 1.852 . S
C2701 C1516 1.837 . S
C2727 C2251 1.150 . S
C2721 C1692 1.174 . S
C2747 C2261 1.151 . S
C2741 C1085 1.156 . S
C2767 C2131 1.472 . S
C2761 C988 1.517 . S
C2781 C1817 1.860 . S
C2787 C2281 1.847 . S
C2807 C2311 1.527 . S
C2801 C2081 1.547 . S
C2827 C2328 1.120 . S
C2821 C1993 1.137 . S
C2841 C761 1.941 . S
C2847 C2271 1.892 . S
C2861 C821 1.123 . S
C2867 C2158 1.073 . S
C2881 C2053 1.930 . S
C2887 C2341 1.918 . S
C2907 C2368 0.773 . S
C2901 C1868 0.798 . S
C2927 C2118 1.064 . S
C2921 C372 1.071 . S
C2947 C2353 1.172 . S
C2941 C645 1.191 . S
C2961 C577 1.225 . S
C2967 C2171 1.221 . S
C2981 C497 1.981 . S
C2987 C2340 1.915 . S
C3007 C2200 1.692 . S
C3001 C57 1.742 . S
C3021 C293 0.719 . S
C3027 C2298 0.745 . S
C3047 C2233 1.436 1_556 S
C3041 C205 1.427 . S
C3067 C2378 0.836 . S
C3061 C145 0.827 . S
C3087 C2113 1.092 . S
C3081 C909 1.102 . S
C3107 C2360 1.346 . S
C3101 C1956 1.376 . S
C3121 C724 1.760 . S
C3127 C2161 1.758 . S
C3141 C1780 0.831 . S
C3147 C2338 0.865 . S
C3161 C937 1.131 . S
C3167 C2198 1.144 . S
C3187 C2293 1.849 . S
C3181 C1985 1.832 . S
C3201 C753 1.160 . S
C3207 C2240 1.118 . S
C3221 C1809 1.166 . S
C3227 C2373 1.142 . S
C3241 C1173 1.512 . S
C3247 C2120 1.459 . S
C3261 C1105 1.856 . S
C3267 C2273 1.851 . S
C3281 C1633 1.552 . S
C3287 C2220 1.525 . S
C3301 C1553 1.115 . S
C3307 C2318 1.134 . S
C3327 C2380 1.889 . S
C3321 C1729 1.937 . S
C3341 C1340 1.126 . S
C3347 C2168 1.079 1_565 S
C3367 C2173 1.919 . S
C3361 C1604 1.916 . S
C3387 C2138 0.773 . S
C3381 C1252 0.789 . S
C3401 C489 1.078 . S
C3407 C2408 1.045 . S
C3427 C2361 1.179 . S
C3421 C557 1.186 . S
C3441 C636 1.232 . S
C3447 C2420 1.220 1_556 S
C3461 C409 1.991 . S
C3467 C2351 1.930 . S
C3481 C284 1.744 . S
C3487 C2291 1.688 . S
C3507 C2308 0.743 . S
C3501 C20 0.728 . S
C3527 C2321 1.446 1_655 S
C3521 C137 1.438 . S
C3547 C2388 0.840 . S
C3541 C225 0.824 . S
C3567 C2401 1.103 . S
C3561 C1641 1.101 . S
C3581 C1193 1.377 . S
C3587 C2371 1.353 . S
C3607 C2413 1.754 . S
C3601 C1289 1.776 . S
C3627 C2348 0.871 . S
C3621 C1377 0.836 . S
C3647 C2288 1.157 . S
C3641 C1613 1.138 . S
C3661 C1164 1.835 . S
C3667 C2301 1.840 . S
C3687 C2331 1.144 . S
C3681 C1261 1.180 . S
C3701 C1349 1.159 . S
C3707 C2381 1.130 . S
C3727 C2411 1.462 . S
C3721 C1965 1.516 . S
C3741 C849 1.863 . S
C3747 C2201 1.847 . S
C3767 C2231 1.524 . S
C3761 C929 1.552 . S
C3787 C2248 1.124 . S
C3781 C1017 1.125 . S
C3807 C2391 1.889 . S
C3801 C1897 1.938 . S
C3821 C1789 1.122 . S
C3827 C2418 1.080 . S
C3847 C2181 1.920 . S
C3841 C900 1.924 . S
C3867 C2148 0.771 . S
C3861 C733 0.797 . S
C3881 C548 1.076 . S
C3887 C2398 1.037 . S
C3907 C2133 1.171 . S
C3901 C469 1.189 . S
C3921 C401 1.212 . S
C3927 C2431 1.210 . S
C3941 C673 1.981 . S
C3947 C2180 1.915 . S
C3961 C233 1.741 . S
C3967 C2280 1.686 1_556 S
C3987 C2218 0.747 . S
C3981 C117 0.716 . S
C4001 C29 1.432 . S
C4007 C2313 1.443 . S
C4021 C321 0.825 . S
C4027 C2258 0.827 . S
C4047 C2393 1.088 . S
C4041 C2044 1.087 . S
C4061 C997 1.370 . S
C4067 C2140 1.320 . S
C4087 C2421 1.738 1_655 S
C4081 C1877 1.767 . S
C4101 C812 0.843 . S
C4107 C2178 0.856 . S
C4121 C2073 1.128 . S
C4127 C2278 1.148 . S
C4147 C2213 1.843 . S
C4141 C1025 1.830 . S
C4161 C1905 1.171 . S
C4167 C2320 1.145 . S
C4187 C2253 1.142 . S
C4181 C841 1.166 . S
C4207 C2400 1.457 . S
C4201 C1525 1.512 . S
C4227 C2193 1.838 . S
C4221 C1369 1.854 . S
C4241 C1465 1.546 . S
C4247 C2300 1.508 . S
C4267 C2238 1.124 . S
C4261 C1201 1.115 . S
C4281 C1281 1.938 . S
C4287 C2260 1.893 . S
C4301 C1076 1.129 . S
C4307 C2428 1.104 1_556 S
C4327 C2333 1.909 . S
C4321 C1437 1.917 . S
C4347 C2358 0.788 . S
C4341 C1701 0.774 . S
