# Generated by pormake.
# Topology gar, (4,6)-cn, num edge types: 1
# Building blocks:
#     Node 0, Type 0, BuildingBlock: QUQFOY_clean_sbu_3, # of connection points: 4
#     Node 1, Type 0, BuildingBlock: QUQFOY_clean_sbu_3, # of connection points: 4
#     Node 2, Type 0, BuildingBlock: QUQFOY_clean_sbu_3, # of connection points: 4
#     Node 3, Type 0, BuildingBlock: QUQFOY_clean_sbu_3, # of connection points: 4
#     Node 4, Type 0, BuildingBlock: QUQFOY_clean_sbu_3, # of connection points: 4
#     Node 5, Type 0, BuildingBlock: QUQFOY_clean_sbu_3, # of connection points: 4
#     Node 6, Type 0, BuildingBlock: QUQFOY_clean_sbu_3, # of connection points: 4
#     Node 7, Type 0, BuildingBlock: QUQFOY_clean_sbu_3, # of connection points: 4
#     Node 8, Type 0, BuildingBlock: QUQFOY_clean_sbu_3, # of connection points: 4
#     Node 9, Type 0, BuildingBlock: QUQFOY_clean_sbu_3, # of connection points: 4
#     Node 10, Type 0, BuildingBlock: QUQFOY_clean_sbu_3, # of connection points: 4
#     Node 11, Type 0, BuildingBlock: QUQFOY_clean_sbu_3, # of connection points: 4
#     Node 12, Type 0, BuildingBlock: QUQFOY_clean_sbu_3, # of connection points: 4
#     Node 13, Type 0, BuildingBlock: QUQFOY_clean_sbu_3, # of connection points: 4
#     Node 14, Type 0, BuildingBlock: QUQFOY_clean_sbu_3, # of connection points: 4
#     Node 15, Type 0, BuildingBlock: QUQFOY_clean_sbu_3, # of connection points: 4
#     Node 16, Type 0, BuildingBlock: QUQFOY_clean_sbu_3, # of connection points: 4
#     Node 17, Type 0, BuildingBlock: QUQFOY_clean_sbu_3, # of connection points: 4
#     Node 18, Type 0, BuildingBlock: QUQFOY_clean_sbu_3, # of connection points: 4
#     Node 19, Type 0, BuildingBlock: QUQFOY_clean_sbu_3, # of connection points: 4
#     Node 20, Type 0, BuildingBlock: QUQFOY_clean_sbu_3, # of connection points: 4
#     Node 21, Type 0, BuildingBlock: QUQFOY_clean_sbu_3, # of connection points: 4
#     Node 22, Type 0, BuildingBlock: QUQFOY_clean_sbu_3, # of connection points: 4
#     Node 23, Type 0, BuildingBlock: QUQFOY_clean_sbu_3, # of connection points: 4
#     Node 24, Type 1, BuildingBlock: MIFKUJ_clean_sbu_0, # of connection points: 6
#     Node 25, Type 1, BuildingBlock: MIFKUJ_clean_sbu_0, # of connection points: 6
#     Node 26, Type 1, BuildingBlock: MIFKUJ_clean_sbu_0, # of connection points: 6
#     Node 27, Type 1, BuildingBlock: MIFKUJ_clean_sbu_0, # of connection points: 6
#     Node 28, Type 1, BuildingBlock: MIFKUJ_clean_sbu_0, # of connection points: 6
#     Node 29, Type 1, BuildingBlock: MIFKUJ_clean_sbu_0, # of connection points: 6
#     Node 30, Type 1, BuildingBlock: MIFKUJ_clean_sbu_0, # of connection points: 6
#     Node 31, Type 1, BuildingBlock: MIFKUJ_clean_sbu_0, # of connection points: 6
#     Node 32, Type 1, BuildingBlock: MIFKUJ_clean_sbu_0, # of connection points: 6
#     Node 33, Type 1, BuildingBlock: MIFKUJ_clean_sbu_0, # of connection points: 6
#     Node 34, Type 1, BuildingBlock: MIFKUJ_clean_sbu_0, # of connection points: 6
#     Node 35, Type 1, BuildingBlock: MIFKUJ_clean_sbu_0, # of connection points: 6
#     Node 36, Type 1, BuildingBlock: MIFKUJ_clean_sbu_0, # of connection points: 6
#     Node 37, Type 1, BuildingBlock: MIFKUJ_clean_sbu_0, # of connection points: 6
#     Node 38, Type 1, BuildingBlock: MIFKUJ_clean_sbu_0, # of connection points: 6
#     Node 39, Type 1, BuildingBlock: MIFKUJ_clean_sbu_0, # of connection points: 6
#     Edge 40, Type (0, 1), BuildingBlock: EZIPEK_clean_linker_0, # of connection points: 2
#     Edge 41, Type (0, 1), BuildingBlock: EZIPEK_clean_linker_0, # of connection points: 2
#     Edge 42, Type (0, 1), BuildingBlock: EZIPEK_clean_linker_0, # of connection points: 2
#     Edge 43, Type (0, 1), BuildingBlock: EZIPEK_clean_linker_0, # of connection points: 2
#     Edge 44, Type (0, 1), BuildingBlock: EZIPEK_clean_linker_0, # of connection points: 2
#     Edge 45, Type (0, 1), BuildingBlock: EZIPEK_clean_linker_0, # of connection points: 2
#     Edge 46, Type (0, 1), BuildingBlock: EZIPEK_clean_linker_0, # of connection points: 2
#     Edge 47, Type (0, 1), BuildingBlock: EZIPEK_clean_linker_0, # of connection points: 2
#     Edge 48, Type (0, 1), BuildingBlock: EZIPEK_clean_linker_0, # of connection points: 2
#     Edge 49, Type (0, 1), BuildingBlock: EZIPEK_clean_linker_0, # of connection points: 2
#     Edge 50, Type (0, 1), BuildingBlock: EZIPEK_clean_linker_0, # of connection points: 2
#     Edge 51, Type (0, 1), BuildingBlock: EZIPEK_clean_linker_0, # of connection points: 2
#     Edge 52, Type (0, 1), BuildingBlock: EZIPEK_clean_linker_0, # of connection points: 2
#     Edge 53, Type (0, 1), BuildingBlock: EZIPEK_clean_linker_0, # of connection points: 2
#     Edge 54, Type (0, 1), BuildingBlock: EZIPEK_clean_linker_0, # of connection points: 2
#     Edge 55, Type (0, 1), BuildingBlock: EZIPEK_clean_linker_0, # of connection points: 2
#     Edge 56, Type (0, 1), BuildingBlock: EZIPEK_clean_linker_0, # of connection points: 2
#     Edge 57, Type (0, 1), BuildingBlock: EZIPEK_clean_linker_0, # of connection points: 2
#     Edge 58, Type (0, 1), BuildingBlock: EZIPEK_clean_linker_0, # of connection points: 2
#     Edge 59, Type (0, 1), BuildingBlock: EZIPEK_clean_linker_0, # of connection points: 2
#     Edge 60, Type (0, 1), BuildingBlock: EZIPEK_clean_linker_0, # of connection points: 2
#     Edge 61, Type (0, 1), BuildingBlock: EZIPEK_clean_linker_0, # of connection points: 2
#     Edge 62, Type (0, 1), BuildingBlock: EZIPEK_clean_linker_0, # of connection points: 2
#     Edge 63, Type (0, 1), BuildingBlock: EZIPEK_clean_linker_0, # of connection points: 2
#     Edge 64, Type (0, 1), BuildingBlock: EZIPEK_clean_linker_0, # of connection points: 2
#     Edge 65, Type (0, 1), BuildingBlock: EZIPEK_clean_linker_0, # of connection points: 2
#     Edge 66, Type (0, 1), BuildingBlock: EZIPEK_clean_linker_0, # of connection points: 2
#     Edge 67, Type (0, 1), BuildingBlock: EZIPEK_clean_linker_0, # of connection points: 2
#     Edge 68, Type (0, 1), BuildingBlock: EZIPEK_clean_linker_0, # of connection points: 2
#     Edge 69, Type (0, 1), BuildingBlock: EZIPEK_clean_linker_0, # of connection points: 2
#     Edge 70, Type (0, 1), BuildingBlock: EZIPEK_clean_linker_0, # of connection points: 2
#     Edge 71, Type (0, 1), BuildingBlock: EZIPEK_clean_linker_0, # of connection points: 2
#     Edge 72, Type (0, 1), BuildingBlock: EZIPEK_clean_linker_0, # of connection points: 2
#     Edge 73, Type (0, 1), BuildingBlock: EZIPEK_clean_linker_0, # of connection points: 2
#     Edge 74, Type (0, 1), BuildingBlock: EZIPEK_clean_linker_0, # of connection points: 2
#     Edge 75, Type (0, 1), BuildingBlock: EZIPEK_clean_linker_0, # of connection points: 2
#     Edge 76, Type (0, 1), BuildingBlock: EZIPEK_clean_linker_0, # of connection points: 2
#     Edge 77, Type (0, 1), BuildingBlock: EZIPEK_clean_linker_0, # of connection points: 2
#     Edge 78, Type (0, 1), BuildingBlock: EZIPEK_clean_linker_0, # of connection points: 2
#     Edge 79, Type (0, 1), BuildingBlock: EZIPEK_clean_linker_0, # of connection points: 2
#     Edge 80, Type (0, 1), BuildingBlock: EZIPEK_clean_linker_0, # of connection points: 2
#     Edge 81, Type (0, 1), BuildingBlock: EZIPEK_clean_linker_0, # of connection points: 2
#     Edge 82, Type (0, 1), BuildingBlock: EZIPEK_clean_linker_0, # of connection points: 2
#     Edge 83, Type (0, 1), BuildingBlock: EZIPEK_clean_linker_0, # of connection points: 2
#     Edge 84, Type (0, 1), BuildingBlock: EZIPEK_clean_linker_0, # of connection points: 2
#     Edge 85, Type (0, 1), BuildingBlock: EZIPEK_clean_linker_0, # of connection points: 2
#     Edge 86, Type (0, 1), BuildingBlock: EZIPEK_clean_linker_0, # of connection points: 2
#     Edge 87, Type (0, 1), BuildingBlock: EZIPEK_clean_linker_0, # of connection points: 2
#     Edge 88, Type (0, 1), BuildingBlock: EZIPEK_clean_linker_0, # of connection points: 2
#     Edge 89, Type (0, 1), BuildingBlock: EZIPEK_clean_linker_0, # of connection points: 2
#     Edge 90, Type (0, 1), BuildingBlock: EZIPEK_clean_linker_0, # of connection points: 2
#     Edge 91, Type (0, 1), BuildingBlock: EZIPEK_clean_linker_0, # of connection points: 2
#     Edge 92, Type (0, 1), BuildingBlock: EZIPEK_clean_linker_0, # of connection points: 2
#     Edge 93, Type (0, 1), BuildingBlock: EZIPEK_clean_linker_0, # of connection points: 2
#     Edge 94, Type (0, 1), BuildingBlock: EZIPEK_clean_linker_0, # of connection points: 2
#     Edge 95, Type (0, 1), BuildingBlock: EZIPEK_clean_linker_0, # of connection points: 2
#     Edge 96, Type (0, 1), BuildingBlock: EZIPEK_clean_linker_0, # of connection points: 2
#     Edge 97, Type (0, 1), BuildingBlock: EZIPEK_clean_linker_0, # of connection points: 2
#     Edge 98, Type (0, 1), BuildingBlock: EZIPEK_clean_linker_0, # of connection points: 2
#     Edge 99, Type (0, 1), BuildingBlock: EZIPEK_clean_linker_0, # of connection points: 2
#     Edge 100, Type (0, 1), BuildingBlock: EZIPEK_clean_linker_0, # of connection points: 2
#     Edge 101, Type (0, 1), BuildingBlock: EZIPEK_clean_linker_0, # of connection points: 2
#     Edge 102, Type (0, 1), BuildingBlock: EZIPEK_clean_linker_0, # of connection points: 2
#     Edge 103, Type (0, 1), BuildingBlock: EZIPEK_clean_linker_0, # of connection points: 2
#     Edge 104, Type (0, 1), BuildingBlock: EZIPEK_clean_linker_0, # of connection points: 2
#     Edge 105, Type (0, 1), BuildingBlock: EZIPEK_clean_linker_0, # of connection points: 2
#     Edge 106, Type (0, 1), BuildingBlock: EZIPEK_clean_linker_0, # of connection points: 2
#     Edge 107, Type (0, 1), BuildingBlock: EZIPEK_clean_linker_0, # of connection points: 2
#     Edge 108, Type (0, 1), BuildingBlock: EZIPEK_clean_linker_0, # of connection points: 2
#     Edge 109, Type (0, 1), BuildingBlock: EZIPEK_clean_linker_0, # of connection points: 2
#     Edge 110, Type (0, 1), BuildingBlock: EZIPEK_clean_linker_0, # of connection points: 2
#     Edge 111, Type (0, 1), BuildingBlock: EZIPEK_clean_linker_0, # of connection points: 2
#     Edge 112, Type (0, 1), BuildingBlock: EZIPEK_clean_linker_0, # of connection points: 2
#     Edge 113, Type (0, 1), BuildingBlock: EZIPEK_clean_linker_0, # of connection points: 2
#     Edge 114, Type (0, 1), BuildingBlock: EZIPEK_clean_linker_0, # of connection points: 2
#     Edge 115, Type (0, 1), BuildingBlock: EZIPEK_clean_linker_0, # of connection points: 2
#     Edge 116, Type (0, 1), BuildingBlock: EZIPEK_clean_linker_0, # of connection points: 2
#     Edge 117, Type (0, 1), BuildingBlock: EZIPEK_clean_linker_0, # of connection points: 2
#     Edge 118, Type (0, 1), BuildingBlock: EZIPEK_clean_linker_0, # of connection points: 2
#     Edge 119, Type (0, 1), BuildingBlock: EZIPEK_clean_linker_0, # of connection points: 2
#     Edge 120, Type (0, 1), BuildingBlock: EZIPEK_clean_linker_0, # of connection points: 2
#     Edge 121, Type (0, 1), BuildingBlock: EZIPEK_clean_linker_0, # of connection points: 2
#     Edge 122, Type (0, 1), BuildingBlock: EZIPEK_clean_linker_0, # of connection points: 2
#     Edge 123, Type (0, 1), BuildingBlock: EZIPEK_clean_linker_0, # of connection points: 2
#     Edge 124, Type (0, 1), BuildingBlock: EZIPEK_clean_linker_0, # of connection points: 2
#     Edge 125, Type (0, 1), BuildingBlock: EZIPEK_clean_linker_0, # of connection points: 2
#     Edge 126, Type (0, 1), BuildingBlock: EZIPEK_clean_linker_0, # of connection points: 2
#     Edge 127, Type (0, 1), BuildingBlock: EZIPEK_clean_linker_0, # of connection points: 2
#     Edge 128, Type (0, 1), BuildingBlock: EZIPEK_clean_linker_0, # of connection points: 2
#     Edge 129, Type (0, 1), BuildingBlock: EZIPEK_clean_linker_0, # of connection points: 2
#     Edge 130, Type (0, 1), BuildingBlock: EZIPEK_clean_linker_0, # of connection points: 2
#     Edge 131, Type (0, 1), BuildingBlock: EZIPEK_clean_linker_0, # of connection points: 2
#     Edge 132, Type (0, 1), BuildingBlock: EZIPEK_clean_linker_0, # of connection points: 2
#     Edge 133, Type (0, 1), BuildingBlock: EZIPEK_clean_linker_0, # of connection points: 2
#     Edge 134, Type (0, 1), BuildingBlock: EZIPEK_clean_linker_0, # of connection points: 2
#     Edge 135, Type (0, 1), BuildingBlock: EZIPEK_clean_linker_0, # of connection points: 2
# Relax obj value: 0.104
# Max RMSD: 0.311
# Mean RMSD: 0.131
data_MOF--net-gar--node1-QUQFOY_clean_sbu_3--node2-MIFKUJ_clean_sbu_0--edge1-EZIPEK_clean_linker_0
_symmetry_space_group_name_H-M    P1
_symmetry_Int_Tables_number       1
_symmetry_cell_setting            triclinic
loop_
_symmetry_equiv_pos_as_xyz
'x, y, z'
_cell_length_a     42.918482
_cell_length_b     43.494771
_cell_length_c     41.026974
_cell_angle_alpha  96.004444
_cell_angle_beta   95.044999
_cell_angle_gamma 100.31844
loop_
_atom_site_label
_atom_site_type_symbol
_atom_site_fract_x
_atom_site_fract_y
_atom_site_fract_z
_atom_type_partial_charge
C0 C 0.97097 0.28996 0.36663 0.0
O1 O 0.98589 0.30839 0.34881 0.0
Cd2 Cd 0.04232 0.32118 0.35845 0.0
O3 O 0.9856 0.27775 0.38871 0.0
Cd4 Cd 0.03891 0.27487 0.41334 0.0
C5 C 0.04937 0.35306 0.43946 0.0
O6 O 0.05637 0.26954 0.35838 0.0
O7 O 0.09267 0.27271 0.39908 0.0
O8 O 0.0076 0.22357 0.41811 0.0
C9 C 0.08472 0.26787 0.3682 0.0
O10 O 0.05017 0.35748 0.40937 0.0
C11 C 0.02426 0.21821 0.44321 0.0
O12 O 0.04593 0.32542 0.44794 0.0
O13 O 0.04739 0.23993 0.45575 0.0
C14 C 0.94204 0.73763 0.69398 0.0
O15 O 0.95474 0.71907 0.71038 0.0
Cd16 Cd -0.00031 0.698 0.69637 0.0
O17 O 0.95256 0.74583 0.66749 0.0
Cd18 Cd -0.00509 0.73571 0.63255 0.0
C19 C 0.97452 0.6555 0.61938 0.0
O20 O 0.03475 0.74035 0.6793 0.0
O21 O 0.0489 0.72615 0.63131 0.0
O22 O 0.01042 0.79069 0.62594 0.0
C23 C 0.05623 0.73357 0.66212 0.0
O24 O 0.98327 0.65747 0.65003 0.0
C25 C -0.00078 0.78879 0.59605 0.0
O26 O 0.97496 0.68068 0.60579 0.0
O27 O 0.98614 0.76151 0.58197 0.0
C28 C 0.47899 0.78837 0.85525 0.0
O29 O 0.49736 0.80738 0.84069 0.0
Cd30 Cd 0.55333 0.81997 0.85689 0.0
O31 O 0.48917 0.77601 0.87991 0.0
Cd32 Cd 0.53603 0.77356 0.91787 0.0
C33 C 0.54955 0.85287 0.93689 0.0
O34 O 0.55938 0.76915 0.86829 0.0
O35 O 0.59189 0.7684 0.91095 0.0
O36 O 0.4976 0.72751 0.927 0.0
C37 C 0.58699 0.76736 0.87989 0.0
O38 O 0.55735 0.85573 0.90792 0.0
C39 C 0.51498 0.7197 0.95015 0.0
O40 O 0.54019 0.82606 0.94625 0.0
O41 O 0.54144 0.73807 0.95968 0.0
C42 C 0.44114 0.2361 0.18602 0.0
O43 O 0.46239 0.23121 0.20722 0.0
Cd44 Cd 0.50783 0.21255 0.19208 0.0
O45 O 0.44671 0.23806 0.15623 0.0
Cd46 Cd 0.49505 0.24327 0.12648 0.0
C47 C 0.48502 0.16642 0.11556 0.0
O48 O 0.53822 0.2542 0.17065 0.0
O49 O 0.54853 0.23361 0.12322 0.0
O50 O 0.49731 0.2982 0.12093 0.0
C51 C 0.55826 0.24535 0.15267 0.0
O52 O 0.49439 0.16999 0.14633 0.0
C53 C 0.49749 0.29519 0.08988 0.0
O54 O 0.48047 0.18965 0.10054 0.0
O55 O 0.49435 0.26749 0.07501 0.0
C56 C 0.98374 0.76254 0.20675 0.0
O57 O 0.00324 0.75206 0.22582 0.0
Cd58 Cd 0.05593 0.74634 0.21458 0.0
O59 O -0.00862 0.77275 0.17996 0.0
Cd60 Cd 0.03646 0.7829 0.14646 0.0
C61 C 0.03624 0.70355 0.13683 0.0
O62 O 0.07394 0.794 0.19336 0.0
O63 O 0.09497 0.79989 0.14825 0.0
O64 O 0.02383 0.83256 0.13673 0.0
C65 C 0.09893 0.79887 0.17909 0.0
O66 O 0.04399 0.70475 0.16773 0.0
C67 C 0.01892 0.82673 0.10552 0.0
O68 O 0.0329 0.72818 0.12356 0.0
O69 O 0.0211 0.79937 0.09283 0.0
C70 C 0.43808 0.75204 0.33589 0.0
O71 O 0.45436 0.77653 0.32709 0.0
Cd72 Cd 0.50935 0.79625 0.34291 0.0
O73 O 0.45028 0.73625 0.35638 0.0
Cd74 Cd 0.50284 0.74341 0.38945 0.0
C75 C 0.50474 0.81724 0.42384 0.0
O76 O 0.53091 0.74925 0.34119 0.0
O77 O 0.56079 0.75528 0.3875 0.0
O78 O 0.49361 0.68736 0.3931 0.0
C79 C 0.55836 0.75225 0.35631 0.0
O80 O 0.51247 0.82636 0.39674 0.0
C81 C 0.50164 0.69043 0.42398 0.0
O82 O 0.49746 0.78826 0.42707 0.0
O83 O 0.50946 0.71814 0.43891 0.0
C84 C 0.48414 0.26508 0.70605 0.0
O85 O 0.50242 0.25103 0.72262 0.0
Cd86 Cd 0.55423 0.24368 0.70992 0.0
O87 O 0.49285 0.27795 0.6809 0.0
Cd88 Cd 0.54021 0.28832 0.64934 0.0
C89 C 0.53389 0.20914 0.62899 0.0
O90 O 0.57766 0.2942 0.69752 0.0
O91 O 0.59997 0.2978 0.65298 0.0
O92 O 0.52883 0.34003 0.64105 0.0
C93 C 0.60316 0.29732 0.68397 0.0
O94 O 0.54216 0.20671 0.65908 0.0
C95 C 0.52485 0.33484 0.60974 0.0
O96 O 0.53141 0.23557 0.61939 0.0
O97 O 0.5285 0.3081 0.5967 0.0
C98 C 0.92169 0.2318 0.83999 0.0
O99 O 0.93557 0.24862 0.82013 0.0
Cd100 Cd -0.01022 0.27407 0.82735 0.0
O101 O 0.93708 0.22555 0.86575 0.0
Cd102 Cd -0.00555 0.2385 0.89019 0.0
C103 C -0.00951 0.31555 0.90339 0.0
O104 O 0.01914 0.23378 0.83862 0.0
O105 O 0.05077 0.25427 0.88227 0.0
O106 O -0.01073 0.1859 0.90685 0.0
C107 C 0.04738 0.24365 0.85196 0.0
O108 O -0.00861 0.31591 0.87249 0.0
C109 C 0.00111 0.19516 0.93646 0.0
O110 O -0.00959 0.2902 0.91626 0.0
O111 O 0.00934 0.22459 0.94494 0.0
C112 C 0.4351 0.03091 0.3619 0.0
O113 O 0.45142 0.01764 0.34256 0.0
Cd114 Cd 0.43458 0.00012 0.28683 0.0
O115 O 0.40834 0.03722 0.35147 0.0
Cd116 Cd 0.37879 0.02885 0.29492 0.0
C117 C 0.36411 0.95166 0.29367 0.0
O118 O 0.42145 0.04356 0.26091 0.0
O119 O 0.38478 0.00447 0.23975 0.0
O120 O 0.36302 0.08002 0.29514 0.0
C121 C 0.40893 0.02468 0.23578 0.0
O122 O 0.39203 0.95422 0.28483 0.0
C123 C 0.33438 0.06914 0.28324 0.0
O124 O 0.35282 0.97593 0.30263 0.0
O125 O 0.32561 0.03945 0.27883 0.0
C126 C 0.29203 0.08156 0.50552 0.0
O127 O 0.27217 0.06435 0.52031 0.0
Cd128 Cd 0.22036 0.07208 0.53033 0.0
O129 O 0.28556 0.10587 0.49339 0.0
Cd130 Cd 0.23974 0.13403 0.4866 0.0
C131 C 0.24084 0.14785 0.57126 0.0
O132 O 0.2028 0.08558 0.47826 0.0
O133 O 0.18024 0.1257 0.47736 0.0
O134 O 0.25142 0.14721 0.43162 0.0
C135 C 0.17725 0.096 0.47552 0.0
O136 O 0.23227 0.11838 0.57227 0.0
C137 C 0.25628 0.17684 0.43966 0.0
O138 O 0.24453 0.15888 0.54396 0.0
O139 O 0.25358 0.18646 0.46941 0.0
C140 C 0.09504 0.02262 0.85379 0.0
O141 O 0.08214 0.04247 0.83968 0.0
Cd142 Cd 0.09109 0.05725 0.78666 0.0
O143 O 0.11552 0.00909 0.84035 0.0
Cd144 Cd 0.1398 0.01148 0.78729 0.0
C145 C 0.16982 0.0896 0.79884 0.0
O146 O 0.09046 0.01009 0.75055 0.0
O147 O 0.13478 0.01843 0.72882 0.0
O148 O 0.14414 0.95598 0.78578 0.0
C149 C 0.10464 0.01355 0.72499 0.0
O150 O 0.14163 0.09389 0.79161 0.0
C151 C 0.17367 0.96052 0.78236 0.0
O152 O 0.17555 0.0623 0.80183 0.0
O153 O 0.18774 0.98873 0.78206 0.0
C154 C 0.29712 0.91581 0.97806 0.0
O155 O 0.2806 0.92736 0.95698 0.0
Cd156 Cd 0.22375 0.91597 0.95249 0.0
O157 O 0.28419 0.89566 -0.00439 0.0
Cd158 Cd 0.23127 0.86632 0.00306 0.0
C159 C 0.21348 0.84059 0.92025 0.0
O160 O 0.2151 0.91643 0.00993 0.0
O161 O 0.1788 0.87683 0.01632 0.0
O162 O 0.26036 0.85944 0.05474 0.0
C163 C 0.18777 0.90643 0.01812 0.0
O164 O 0.20797 0.86743 0.91484 0.0
C165 C 0.24535 0.83169 0.05577 0.0
O166 O 0.22343 0.83571 0.949 0.0
O167 O 0.2239 0.81988 0.03228 0.0
C168 C 0.33059 0.43621 0.04954 0.0
O169 O 0.31748 0.45511 0.0341 0.0
Cd170 Cd 0.26301 0.44506 0.01359 0.0
O171 O 0.31418 0.41139 0.05803 0.0
Cd172 Cd 0.2565 0.38549 0.05511 0.0
C173 C 0.25821 0.37018 0.9725 0.0
O174 O 0.2341 0.4333 0.05926 0.0
O175 O 0.20063 0.39027 0.04212 0.0
O176 O 0.26391 0.37675 0.113 0.0
C177 C 0.2055 0.4197 0.05082 0.0
O178 O 0.25983 0.39964 0.97184 0.0
C179 C 0.25253 0.34742 0.10832 0.0
O180 O 0.25726 0.35841 -0.00034 0.0
O181 O 0.24303 0.33535 0.07878 0.0
C182 C 0.82101 0.08301 0.04117 0.0
O183 O 0.80118 0.06808 0.05775 0.0
Cd184 Cd 0.76107 0.08831 0.08334 0.0
O185 O 0.8191 0.11081 0.035 0.0
Cd186 Cd 0.77921 0.1454 0.04301 0.0
C187 C 0.79338 0.16211 0.12455 0.0
O188 O 0.73301 0.10351 0.03743 0.0
O189 O 0.72446 0.14957 0.05449 0.0
O190 O 0.77649 0.15506 0.98616 0.0
C191 C 0.71331 0.12088 0.04445 0.0
O192 O 0.78021 0.1336 0.12563 0.0
C193 C 0.78081 0.18477 0.9925 0.0
O194 O 0.79882 0.17223 0.09729 0.0
O195 O 0.7874 0.19659 0.02245 0.0
C196 C 0.07408 0.50026 0.29054 0.0
O197 O 0.05377 0.50538 0.26837 0.0
Cd198 Cd 0.06716 0.51312 0.2153 0.0
O199 O 0.10117 0.49445 0.28413 0.0
Cd200 Cd 0.13362 0.48482 0.2383 0.0
C201 C 0.14067 0.56372 0.23966 0.0
O202 O 0.08707 0.46659 0.20221 0.0
O203 O 0.12871 0.47147 0.17676 0.0
O204 O 0.14434 0.4403 0.26517 0.0
C205 C 0.09856 0.46471 0.17506 0.0
O206 O 0.11106 0.55916 0.22955 0.0
C207 C 0.17373 0.44484 0.26103 0.0
O208 O 0.15482 0.54101 0.24459 0.0
O209 O 0.1847 0.46831 0.24665 0.0
C210 C 0.82933 0.93637 0.54768 0.0
O211 O 0.81526 0.95392 0.53121 0.0
Cd212 Cd 0.76069 0.94257 0.51212 0.0
O213 O 0.81401 0.91122 0.55668 0.0
Cd214 Cd 0.75692 0.88241 0.55344 0.0
C215 C 0.7566 0.86733 0.47103 0.0
O216 O 0.73578 0.9311 0.56001 0.0
O217 O 0.70089 0.88888 0.54499 0.0
O218 O 0.77744 0.86473 0.60491 0.0
C219 C 0.70671 0.91833 0.55349 0.0
O220 O 0.75577 0.89641 0.47056 0.0
C221 C 0.75365 0.84307 0.60626 0.0
O222 O 0.75805 0.85532 0.49803 0.0
O223 O 0.7317 0.83929 0.58263 0.0
C224 C 0.92699 0.99241 0.30326 0.0
O225 O 0.94268 0.97649 0.28541 0.0
Cd226 Cd 0.93257 0.96353 0.22657 0.0
O227 O 0.90385 0.00369 0.29076 0.0
Cd228 Cd 0.87465 0.00428 0.23596 0.0
C229 C 0.85662 0.92359 0.22809 0.0
O230 O 0.92274 0.01185 0.20953 0.0
O231 O 0.87985 0.00826 0.17681 0.0
O232 O 0.86714 0.05673 0.25522 0.0
C233 C 0.91001 0.0121 0.18064 0.0
O234 O 0.88494 0.92256 0.22175 0.0
C235 C 0.83726 0.05125 0.24702 0.0
O236 O 0.84773 0.94965 0.23519 0.0
O237 O 0.82433 0.02367 0.23378 0.0
C238 C 0.31661 0.57888 0.53311 0.0
O239 O 0.29585 0.56609 0.55018 0.0
Cd240 Cd 0.25516 0.58893 0.57158 0.0
O241 O 0.31661 0.60644 0.52485 0.0
Cd242 Cd 0.28097 0.64597 0.53237 0.0
C243 C 0.29627 0.66026 0.61396 0.0
O244 O 0.23255 0.6069 0.52472 0.0
O245 O 0.22894 0.65297 0.54765 0.0
O246 O 0.27772 0.65755 0.47569 0.0
C247 C 0.21523 0.62601 0.53382 0.0
O248 O 0.27826 0.63341 0.61292 0.0
C249 C 0.28093 0.68713 0.48282 0.0
O250 O 0.3036 0.67049 0.5872 0.0
O251 O 0.28749 0.6981 0.51301 0.0
C252 C 0.43223 0.48731 0.80988 0.0
O253 O 0.44552 0.46822 0.79306 0.0
Cd254 Cd 0.43321 0.45567 0.73461 0.0
O255 O 0.41057 0.50001 0.79652 0.0
Cd256 Cd 0.382 0.49951 0.74081 0.0
C257 C 0.35597 0.41946 0.72965 0.0
O258 O 0.43187 0.50646 0.71684 0.0
O259 O 0.3903 0.50303 0.68199 0.0
O260 O 0.37655 0.55278 0.76057 0.0
C261 C 0.42043 0.50816 0.68776 0.0
O262 O 0.38402 0.41611 0.72453 0.0
C263 C 0.34675 0.54854 0.75241 0.0
O264 O 0.3499 0.44657 0.73797 0.0
O265 O 0.33303 0.52157 0.73824 0.0
C266 C 0.56681 0.99004 0.79765 0.0
O267 O 0.55312 0.006 0.77857 0.0
Cd268 Cd 0.56353 0.01292 0.72326 0.0
O269 O 0.58912 0.97621 0.789 0.0
Cd270 Cd 0.62102 0.96925 0.74269 0.0
C271 C 0.64142 0.05044 0.74345 0.0
O272 O 0.57414 0.96224 0.70688 0.0
O273 O 0.61367 0.9541 0.68112 0.0
O274 O 0.63214 0.92174 0.76508 0.0
C275 C 0.58462 0.95669 0.67962 0.0
O276 O 0.61318 0.05232 0.7326 0.0
C277 C 0.66191 0.92893 0.76304 0.0
O278 O 0.64882 0.02436 0.7495 0.0
O279 O 0.67213 0.95409 0.75105 0.0
C280 C 0.79648 0.58373 0.00266 0.0
O281 O 0.77562 0.56636 0.01621 0.0
Cd282 Cd 0.72318 0.57394 0.02534 0.0
O283 O 0.79068 0.60824 0.9903 0.0
Cd284 Cd 0.74455 0.63689 0.98132 0.0
C285 C 0.74333 0.64994 0.06663 0.0
O286 O 0.70461 0.58973 0.97511 0.0
O287 O 0.6854 0.63162 0.97186 0.0
O288 O 0.75622 0.64816 0.92503 0.0
C289 C 0.68021 0.6022 0.97319 0.0
O290 O 0.73478 0.62032 0.06667 0.0
C291 C 0.75885 0.67784 0.93126 0.0
O292 O 0.74798 0.66165 0.03971 0.0
O293 O 0.75588 0.68845 0.96068 0.0
C294 C 0.94188 0.54188 0.85036 0.0
O295 O 0.95965 0.52725 0.83406 0.0
Cd296 Cd 0.94812 0.5004 0.78037 0.0
O297 O 0.91476 0.54534 0.83771 0.0
Cd298 Cd 0.88239 0.53015 0.78416 0.0
C299 C 0.87729 0.45338 0.79276 0.0
O300 O 0.92516 0.53585 0.75058 0.0
O301 O 0.87972 0.51279 0.72483 0.0
O302 O 0.86328 0.5787 0.78348 0.0
C303 C 0.90903 0.52329 0.72376 0.0
O304 O 0.90616 0.45561 0.78674 0.0
C305 C 0.83406 0.56567 0.78093 0.0
O306 O 0.86405 0.47727 0.7956 0.0
O307 O 0.82721 0.53605 0.78069 0.0
C308 C 0.80713 0.42311 0.48428 0.0
O309 O 0.79322 0.43795 0.46426 0.0
Cd310 Cd 0.73675 0.42394 0.45135 0.0
O311 O 0.79158 0.40138 0.49812 0.0
Cd312 Cd 0.73747 0.37491 0.50199 0.0
C313 C 0.72656 0.34654 0.42135 0.0
O314 O 0.71869 0.42362 0.50585 0.0
O315 O 0.68292 0.38139 0.50558 0.0
O316 O 0.75307 0.37273 0.55952 0.0
C317 C 0.69048 0.4112 0.5098 0.0
O318 O 0.72804 0.37447 0.41418 0.0
C319 C 0.74603 0.34295 0.55752 0.0
O320 O 0.72876 0.34106 0.45111 0.0
O321 O 0.73512 0.32792 0.52947 0.0
C322 C 0.58927 0.52301 0.35502 0.0
O323 O 0.57652 0.54223 0.33973 0.0
Cd324 Cd 0.59091 0.55672 0.28765 0.0
O325 O 0.61132 0.51068 0.34339 0.0
Cd326 Cd 0.63812 0.51431 0.29213 0.0
C327 C 0.66911 0.59084 0.30488 0.0
O328 O 0.59274 0.51141 0.24952 0.0
O329 O 0.63969 0.53004 0.23693 0.0
O330 O 0.63905 0.45785 0.28886 0.0
C331 C 0.61055 0.51926 0.22751 0.0
O332 O 0.6413 0.5942 0.29436 0.0
C333 C 0.66842 0.46074 0.28513 0.0
O334 O 0.67461 0.56407 0.31083 0.0
O335 O 0.68406 0.4885 0.2858 0.0
Zn336 Zn 0.0457 0.00551 0.04754 0.0
Zn337 Zn 0.98766 0.02365 0.00608 0.0
C338 C 0.02685 0.94723 0.06711 0.0
O339 O 0.04345 0.96449 0.09321 0.0
C340 C 0.00184 0.0848 0.99124 0.0
O341 O -0.01063 0.06786 0.96322 0.0
O342 O 0.08974 0.00134 0.06626 0.0
O343 O 0.05556 0.02295 0.00462 0.0
O344 O 0.01114 0.00371 0.97242 0.0
C345 C 0.09819 0.98216 0.04469 0.0
O346 O 0.07921 0.97164 0.01744 0.0
O347 O 0.02223 0.96008 0.04107 0.0
C348 C 0.93072 0.03706 0.01077 0.0
O349 O 0.94885 0.04872 0.0383 0.0
O350 O 0.94243 0.02255 0.98778 0.0
O351 O 0.98004 0.00231 0.04617 0.0
O352 O 0.02126 0.02684 0.08015 0.0
O353 O 0.00639 0.0708 0.01645 0.0
C354 C 0.04108 0.01311 0.97606 0.0
C355 C -0.0082 0.01431 0.07505 0.0
Zn356 Zn 0.24774 0.74933 0.30094 0.0
Zn357 Zn 0.27122 0.76314 0.23565 0.0
C358 C 0.20097 0.69348 0.28023 0.0
O359 O 0.18205 0.71275 0.28913 0.0
C360 C 0.30939 0.82216 0.26128 0.0
O361 O 0.32854 0.81119 0.24176 0.0
O362 O 0.24385 0.75343 0.34998 0.0
O363 O 0.29574 0.75785 0.30019 0.0
O364 O 0.29651 0.73219 0.25144 0.0
C365 C 0.24572 0.72896 0.36392 0.0
O366 O 0.24551 0.70217 0.34596 0.0
O367 O 0.23079 0.70383 0.28237 0.0
C368 C 0.26359 0.76119 0.16517 0.0
O369 O 0.24166 0.73632 0.16682 0.0
O370 O 0.28138 0.77436 0.19104 0.0
O371 O 0.22463 0.74997 0.23049 0.0
O372 O 0.21956 0.77554 0.27809 0.0
O373 O 0.28287 0.80504 0.26457 0.0
C374 C 0.30984 0.74213 0.28031 0.0
C375 C 0.20942 0.7666 0.24787 0.0
Zn376 Zn 0.467 0.0236 0.54186 0.0
Zn377 Zn 0.543 0.99483 0.52641 0.0
C378 C 0.49205 0.08496 0.57005 0.0
O379 O 0.47745 0.07342 0.59415 0.0
C380 C 0.51762 0.93266 0.49597 0.0
O381 O 0.51976 0.947 0.46946 0.0
O382 O 0.42069 0.0259 0.53497 0.0
O383 O 0.48144 -0.00294 0.50534 0.0
O384 O 0.52653 0.01002 0.48435 0.0
C385 C 0.41297 0.04194 0.51243 0.0
O386 O 0.43434 0.05328 0.49363 0.0
O387 O 0.49156 0.06756 0.54323 0.0
C388 C 0.60245 0.97992 0.51953 0.0
O389 O 0.58558 0.96451 0.49264 0.0
O390 O 0.59061 -0.00014 0.53698 0.0
O391 O 0.52261 0.0174 0.56033 0.0
O392 O 0.47954 0.00611 0.58412 0.0
O393 O 0.52562 0.9484 0.52418 0.0
C394 C 0.49656 0.00918 0.48309 0.0
C395 C 0.50841 0.0039 0.58221 0.0
Zn396 Zn 0.29572 0.24812 0.76498 0.0
Zn397 Zn 0.22947 0.26493 0.7811 0.0
C398 C 0.28068 0.21306 0.70051 0.0
O399 O 0.30581 0.20197 0.71052 0.0
C400 C 0.23912 0.28396 0.85287 0.0
O401 O 0.212 0.26463 0.85316 0.0
O402 O 0.34232 0.24705 0.76162 0.0
O403 O 0.29489 0.29337 0.77654 0.0
O404 O 0.24869 0.29296 0.74857 0.0
C405 C 0.35549 0.26199 0.73986 0.0
O406 O 0.33885 0.2782 0.72227 0.0
O407 O 0.27103 0.2335 0.71953 0.0
C408 C 0.1649 0.2454 0.79441 0.0
O409 O 0.1768 0.22111 0.80248 0.0
O410 O 0.18244 0.26712 0.78212 0.0
O411 O 0.23074 0.21845 0.77457 0.0
O412 O 0.27943 0.21838 0.79663 0.0
O413 O 0.25154 0.28618 0.82601 0.0
C414 C 0.27752 0.3062 0.75756 0.0
C415 C 0.25042 0.20513 0.79004 0.0
Zn416 Zn 0.02026 0.96709 0.52708 0.0
Zn417 Zn -0.00159 0.03492 0.50629 0.0
C418 C 0.04136 0.00744 0.59324 0.0
O419 O 0.04082 0.03358 0.58008 0.0
C420 C 0.96203 0.02088 0.44389 0.0
O421 O 0.94656 0.04089 0.45849 0.0
O422 O 0.02309 0.92092 0.52696 0.0
O423 O 0.97455 0.96782 0.51391 0.0
O424 O 0.9684 0.01433 0.53611 0.0
C425 C -0.00051 0.9043 0.53766 0.0
O426 O 0.97427 0.91654 0.54279 0.0
O427 O 0.03234 0.98098 0.57572 0.0
C428 C 0.01328 0.09523 0.48653 0.0
O429 O 0.03454 0.08079 0.47373 0.0
O430 O -0.00646 0.08044 0.50354 0.0
O431 O 0.04536 0.03734 0.51655 0.0
O432 O 0.05311 0.98929 0.5004 0.0
O433 O 0.98512 0.01269 0.46018 0.0
C434 C 0.95827 0.98483 0.52949 0.0
C435 C 0.06211 0.01906 0.50373 0.0
Zn436 Zn 0.24149 0.78738 0.75117 0.0
Zn437 Zn 0.28455 0.71974 0.78417 0.0
C438 C 0.18451 0.74404 0.72084 0.0
O439 O 0.20373 0.73269 0.70178 0.0
C440 C 0.34545 0.74246 0.82419 0.0
O441 O 0.33053 0.7352 0.84972 0.0
O442 O 0.24166 0.83469 0.75625 0.0
O443 O 0.26306 0.77689 0.79424 0.0
O444 O 0.25779 0.73443 0.81903 0.0
C445 C 0.21517 0.84377 0.75826 0.0
O446 O 0.1887 0.82285 0.75569 0.0
O447 O 0.19573 0.76525 0.74467 0.0
C448 C 0.29378 0.65756 0.79057 0.0
O449 O 0.30493 0.67053 0.82062 0.0
O450 O 0.2802 0.67322 0.77118 0.0
O451 O 0.2739 0.74237 0.74731 0.0
O452 O 0.26199 0.77082 0.7102 0.0
O453 O 0.33073 0.73743 0.79551 0.0
C454 C 0.24976 0.76083 0.81518 0.0
C455 C 0.27356 0.74725 0.71769 0.0
Zn456 Zn 0.52762 0.01981 0.99114 0.0
Zn457 Zn 0.48697 0.98492 0.06007 0.0
C458 C 0.58781 0.04603 0.02695 0.0
O459 O 0.57463 0.03171 0.05027 0.0
C460 C 0.42625 0.9555 0.03283 0.0
O461 O 0.43129 0.93855 0.05676 0.0
O462 O 0.51719 0.00902 0.94273 0.0
O463 O 0.52288 0.98281 0.01492 0.0
O464 O 0.51048 0.94933 0.04896 0.0
C465 C 0.53612 0.99241 0.93131 0.0
O466 O 0.55607 0.98226 0.95189 0.0
O467 O 0.57271 0.04253 -0.00153 0.0
C468 C 0.45641 0.00696 0.11006 0.0
O469 O 0.45033 0.02419 0.08678 0.0
O470 O 0.47283 0.98575 0.10481 0.0
O471 O 0.51147 0.02896 0.05904 0.0
O472 O 0.50292 0.04939 0.01283 0.0
O473 O 0.44812 0.97764 0.02774 0.0
C474 C 0.52308 0.95574 0.02319 0.0
C475 C 0.50166 0.05004 0.04381 0.0
Zn476 Zn 0.26252 0.22925 0.25858 0.0
Zn477 Zn 0.25269 0.29122 0.29359 0.0
C478 C 0.31523 0.23756 0.22452 0.0
O479 O 0.2924 0.22257 0.20199 0.0
C480 C 0.19557 0.26581 0.31316 0.0
O481 O 0.20997 0.28603 0.33817 0.0
O482 O 0.25702 0.18232 0.24193 0.0
O483 O 0.25798 0.22997 0.30852 0.0
O484 O 0.28137 0.27826 0.32874 0.0
C485 C 0.27632 0.17069 0.26012 0.0
O486 O 0.29385 0.18882 0.28487 0.0
O487 O 0.30823 0.24549 0.25326 0.0
C488 C 0.25356 0.35742 0.29604 0.0
O489 O 0.27877 0.35729 0.28013 0.0
O490 O 0.24166 0.33301 0.30837 0.0
O491 O 0.2682 0.29711 0.25029 0.0
O492 O 0.23983 0.25253 0.2257 0.0
O493 O 0.20984 0.26183 0.2877 0.0
C494 C 0.27272 0.24957 0.33264 0.0
C495 C 0.2534 0.28089 0.2243 0.0
Zn496 Zn 0.52649 0.47664 0.03056 0.0
Zn497 Zn 0.49889 0.53895 0.01311 0.0
C498 C 0.567 0.49985 0.08839 0.0
O499 O 0.58769 0.49422 0.06782 0.0
C500 C 0.46635 0.5209 0.9497 0.0
O501 O 0.44358 0.52992 0.96548 0.0
O502 O 0.5337 0.43192 0.03023 0.0
O503 O 0.47934 0.46781 0.02047 0.0
O504 O 0.46696 0.51309 0.03779 0.0
C505 C 0.5199 0.419 0.05296 0.0
O506 O 0.50635 0.43613 0.07369 0.0
O507 O 0.5378 0.49614 0.07758 0.0
C508 C 0.50693 0.60071 -0.00253 0.0
O509 O 0.53163 0.59109 0.9861 0.0
O510 O 0.48791 0.58226 0.01196 0.0
O511 O 0.54583 0.54604 0.02764 0.0
O512 O 0.55493 0.50197 0.00206 0.0
O513 O 0.4929 0.5203 0.96561 0.0
C514 C 0.4597 0.48321 0.03223 0.0
C515 C 0.56318 0.53156 0.0104 0.0
Zn516 Zn 0.7482 0.29484 0.24665 0.0
Zn517 Zn 0.78429 0.22428 0.2858 0.0
C518 C 0.68187 0.26711 0.22364 0.0
O519 O 0.70891 0.26964 0.211 0.0
C520 C 0.83576 0.24994 0.33641 0.0
O521 O 0.81388 0.25946 0.35319 0.0
O522 O 0.74484 0.34144 0.25341 0.0
O523 O 0.74195 0.27437 0.29029 0.0
O524 O 0.75318 0.23466 0.31616 0.0
C525 C 0.71811 0.34739 0.26069 0.0
O526 O 0.69494 0.3242 0.26362 0.0
O527 O 0.70918 0.27063 0.21331 0.0
C528 C 0.78543 0.16104 0.28146 0.0
O529 O 0.79311 0.17027 0.31311 0.0
O530 O 0.77612 0.18011 0.26311 0.0
O531 O 0.78646 0.25731 0.25797 0.0
O532 O 0.78338 0.28528 0.21871 0.0
O533 O 0.82792 0.23324 0.30872 0.0
C534 C 0.74009 0.25869 0.31509 0.0
C535 C 0.79111 0.26101 0.22879 0.0
Zn536 Zn 0.0302 0.53104 0.48494 0.0
Zn537 Zn -0.00365 0.49665 0.56174 0.0
C538 C 0.0813 0.57992 0.51958 0.0
O539 O 0.05956 0.59356 0.53242 0.0
C540 C 0.94144 0.4542 0.52614 0.0
O541 O 0.96204 0.43992 0.51195 0.0
O542 O 0.02697 0.52472 0.43633 0.0
O543 O 0.03266 0.48696 0.50161 0.0
O544 O 0.02332 0.46672 0.54803 0.0
C545 C 0.05095 0.51504 0.42611 0.0
O546 O 0.07355 0.50984 0.44729 0.0
O547 O 0.07365 0.55489 0.49951 0.0
C548 C 0.98478 0.48981 0.62267 0.0
O549 O 0.97808 0.46088 0.60759 0.0
O550 O 0.00092 0.51114 0.60907 0.0
O551 O 0.00109 0.52838 0.53333 0.0
O552 O 0.00235 0.56272 0.50045 0.0
O553 O 0.95098 0.47717 0.54852 0.0
C554 C 0.03223 0.46423 0.51935 0.0
C555 C -0.00473 0.55474 0.5278 0.0
Zn556 Zn 0.79657 0.74597 0.26178 0.0
Zn557 Zn 0.73332 0.76473 0.27882 0.0
C558 C 0.77711 0.71143 0.19839 0.0
O559 O 0.79852 0.69606 0.2098 0.0
C560 C 0.74669 0.80852 0.33721 0.0
O561 O 0.73792 0.8267 0.31587 0.0
O562 O 0.84115 0.74136 0.25448 0.0
O563 O 0.80142 0.7918 0.27635 0.0
O564 O 0.7556 0.79545 0.25047 0.0
C565 C 0.85453 0.75967 0.2355 0.0
O566 O 0.83909 0.7796 0.22237 0.0
O567 O 0.77057 0.7344 0.21661 0.0
C568 C 0.67433 0.75467 0.29926 0.0
O569 O 0.6919 0.74196 0.3198 0.0
O570 O 0.68695 0.76711 0.27576 0.0
O571 O 0.73197 0.71771 0.27107 0.0
O572 O 0.78005 0.71636 0.29356 0.0
O573 O 0.74898 0.7805 0.32691 0.0
C574 C 0.78473 0.80714 0.25971 0.0
C575 C 0.75076 0.70406 0.28741 0.0
Zn576 Zn 0.73712 0.23381 0.80933 0.0
Zn577 Zn 0.77514 0.2695 0.7372 0.0
C578 C 0.72227 0.17176 0.77379 0.0
O579 O 0.73499 0.18721 0.75094 0.0
C580 C 0.81399 0.32577 0.76355 0.0
O581 O 0.83387 0.31124 0.74829 0.0
O582 O 0.75016 0.24576 0.85717 0.0
O583 O 0.77549 0.23813 0.78696 0.0
O584 O 0.81002 0.24688 0.75273 0.0
C585 C 0.73462 0.2293 0.87614 0.0
O586 O 0.7076 0.21053 0.86442 0.0
O587 O 0.71765 0.18766 0.80016 0.0
C588 C 0.75741 0.29158 0.67983 0.0
O589 O 0.73671 0.29963 0.69914 0.0
O590 O 0.77805 0.27649 0.69041 0.0
O591 O 0.7289 0.24944 0.74195 0.0
O592 O 0.7089 0.26015 0.78849 0.0
O593 O 0.7854 0.31186 0.76361 0.0
C594 C 0.8033 0.23744 0.77976 0.0
C595 C 0.71034 0.26346 0.75815 0.0
Zn596 Zn 0.76564 0.72119 0.7503 0.0
Zn597 Zn 0.74978 0.80851 0.78807 0.0
C598 C 0.83053 0.75375 0.7518 0.0
O599 O 0.82172 0.77662 0.77006 0.0
C600 C 0.6884 0.78707 0.79723 0.0
O601 O 0.69909 0.76122 0.78879 0.0
O602 O 0.75231 0.67483 0.74875 0.0
O603 O 0.7641 0.74332 0.79624 0.0
O604 O 0.76172 0.78645 0.82796 0.0
C605 C 0.77168 0.66602 0.7693 0.0
O606 O 0.79198 0.68733 0.78933 0.0
O607 O 0.81115 0.72804 0.74261 0.0
C608 C 0.77223 0.87729 0.7873 0.0
O609 O 0.79552 0.90166 0.7886 0.0
O610 O 0.77923 0.85018 0.78859 0.0
O611 O 0.74869 0.77933 0.74639 0.0
O612 O 0.74834 0.73907 0.71066 0.0
O613 O 0.7053 0.81337 0.79393 0.0
C614 C 0.76313 0.75729 0.82488 0.0
C615 C 0.74755 0.76804 0.71639 0.0
Zn616 Zn 0.54496 0.50641 0.54911 0.0
Zn617 Zn 0.4856 0.52119 0.51072 0.0
C618 C 0.51736 0.44832 0.56529 0.0
O619 O 0.53548 0.46228 0.59198 0.0
C620 C 0.50097 0.5737 0.47663 0.0
O621 O 0.49587 0.55061 0.4523 0.0
O622 O 0.58691 0.49591 0.56447 0.0
O623 O 0.55499 0.52429 0.50768 0.0
O624 O 0.51076 0.49766 0.48026 0.0
C625 C 0.59273 0.47612 0.54191 0.0
O626 O 0.57246 0.46729 0.51538 0.0
O627 O 0.51497 0.46352 0.54066 0.0
C628 C 0.4264 0.53423 0.50684 0.0
O629 O 0.44489 0.55794 0.52554 0.0
O630 O 0.43871 0.51214 0.49369 0.0
O631 O 0.48243 0.51639 0.55934 0.0
O632 O 0.53068 0.53424 0.58439 0.0
O633 O 0.50047 0.56719 0.50604 0.0
C634 C 0.53968 0.51116 0.48054 0.0
C635 C 0.50082 0.5281 0.58535 0.0
Zn636 Zn 0.97233 0.52024 0.037 0.0
Zn637 Zn 0.04066 0.49473 0.01109 0.0
C638 C -0.00306 0.57823 0.0733 0.0
O639 O 0.97464 0.56628 0.0908 0.0
C640 C -0.00466 0.43183 0.98829 0.0
O641 O 0.97057 0.44197 -0.0011 0.0
O642 O 0.92725 0.52917 0.03734 0.0
O643 O 0.97607 0.50354 0.9911 0.0
O644 O 0.02446 0.52112 0.97866 0.0
C645 C 0.91884 0.54549 0.01522 0.0
O646 O 0.93869 0.55453 -0.006 0.0
O647 O 0.00197 0.56218 0.04739 0.0
C648 C 0.09508 0.47468 0.03014 0.0
O649 O 0.07261 0.45747 0.04361 0.0
O650 O 0.08806 0.49609 0.01351 0.0
O651 O 0.0312 0.50799 0.05644 0.0
O652 O 0.98361 0.49054 0.06924 0.0
O653 O 0.02272 0.44944 -0.00671 0.0
C654 C -0.00559 0.51845 0.97305 0.0
C655 C 0.01322 0.49007 0.07224 0.0
C656 C 0.97526 0.15743 0.97215 0.0
C657 C 0.00348 0.17244 0.96041 0.0
C658 C 0.03387 0.13777 0.98744 0.0
C659 C 0.00486 0.1194 -0.00674 0.0
N660 N 0.95143 0.1186 0.00558 0.0
N661 N 0.06037 0.17939 0.95875 0.0
C662 C 0.97654 0.13152 0.99016 0.0
C663 C 0.03325 0.16386 0.96931 0.0
N664 N 0.94715 0.16716 0.96484 0.0
N665 N 0.06165 0.13058 0.00031 0.0
H666 H 0.06069 0.19893 0.94596 0.0
H667 H 0.08222 0.17222 0.96138 0.0
H668 H 0.06155 0.11295 0.01575 0.0
H669 H 0.0841 0.14382 -0.00118 0.0
H670 H 0.92506 0.15498 0.96926 0.0
H671 H 0.94578 0.18713 0.95313 0.0
H672 H 0.93029 0.12708 0.00637 0.0
H673 H 0.95364 0.10138 0.02093 0.0
C674 C 0.14713 0.81438 0.22063 0.0
C675 C 0.1288 0.79249 0.19502 0.0
C676 C 0.15979 0.7529 0.2085 0.0
C677 C 0.18051 0.77557 0.23186 0.0
N678 N 0.19798 0.83054 0.25388 0.0
N679 N 0.12288 0.74336 0.15936 0.0
C680 C 0.17531 0.8071 0.23643 0.0
C681 C 0.13691 0.76268 0.18714 0.0
N682 N 0.13779 0.84216 0.22975 0.0
N683 N 0.16048 0.72155 0.20782 0.0
H684 H 0.10408 0.74784 0.14392 0.0
H685 H 0.13222 0.7241 0.15012 0.0
H686 H 0.17535 0.71276 0.22433 0.0
H687 H 0.14364 0.70398 0.19343 0.0
H688 H 0.14821 0.85739 0.25072 0.0
H689 H 0.11825 0.84898 0.21751 0.0
H690 H 0.19666 0.8543 0.25485 0.0
H691 H 0.21971 0.82689 0.26453 0.0
C692 C 0.47725 0.85529 0.45412 0.0
C693 C 0.50429 0.84099 0.4519 0.0
C694 C 0.5358 0.88148 0.49356 0.0
C695 C 0.51031 0.89807 0.49175 0.0
N696 N 0.45434 0.89681 0.48185 0.0
N697 N 0.55566 0.83423 0.47537 0.0
C698 C 0.48002 0.88338 0.47594 0.0
C699 C 0.53235 0.8519 0.47394 0.0
N700 N 0.44967 0.84277 0.43426 0.0
N701 N 0.56367 0.89496 0.51248 0.0
H702 H 0.55351 0.81256 0.46097 0.0
H703 H 0.57608 0.83976 0.49209 0.0
H704 H 0.56572 0.91544 0.52879 0.0
H705 H 0.58465 0.88617 0.51223 0.0
H706 H 0.43008 0.85376 0.43212 0.0
H707 H 0.44674 0.82146 0.41901 0.0
H708 H 0.43097 0.8868 0.47255 0.0
H709 H 0.45653 0.91696 0.4988 0.0
C710 C 0.44136 0.29322 0.72532 0.0
C711 C 0.45141 0.26465 0.71521 0.0
C712 C 0.4004 0.23402 0.72623 0.0
C713 C 0.38947 0.26253 0.73467 0.0
N714 N 0.4009 0.31895 0.74843 0.0
N715 N 0.43858 0.20854 0.69911 0.0
C716 C 0.41028 0.29213 0.73561 0.0
C717 C 0.43051 0.23523 0.71406 0.0
N718 N 0.46153 0.32133 0.72484 0.0
N719 N 0.38248 0.20567 0.7304 0.0
H720 H 0.46003 0.2084 0.689 0.0
H721 H 0.42284 0.18706 0.69359 0.0
H722 H 0.36015 0.20306 0.73875 0.0
H723 H 0.39103 0.18468 0.72866 0.0
H724 H 0.45499 0.34322 0.72826 0.0
H725 H 0.48509 0.32297 0.71972 0.0
H726 H 0.41508 0.3413 0.75186 0.0
H727 H 0.37926 0.31878 0.75824 0.0
C728 C 0.01052 0.82037 0.54829 0.0
C729 C -0.0005 0.81782 0.57981 0.0
C730 C -0.00319 0.87374 0.58554 0.0
C731 C 0.00282 0.87515 0.55227 0.0
N732 N 0.01218 0.84882 0.50039 0.0
N733 N 0.97437 0.84074 0.62447 0.0
C734 C 0.00891 0.84821 0.53313 0.0
C735 C -0.00951 0.84414 0.59736 0.0
N736 N 0.02373 0.79696 0.53347 0.0
N737 N -0.0019 0.90079 0.60628 0.0
H738 H 0.96707 0.81903 0.63281 0.0
H739 H 0.96488 0.85884 0.63619 0.0
H740 H 0.00435 0.92317 0.59906 0.0
H741 H -0.00327 0.90098 0.63155 0.0
H742 H 0.035 0.79903 0.51211 0.0
H743 H 0.02612 0.77667 0.54412 0.0
H744 H 0.01323 0.82885 0.48444 0.0
H745 H 0.01144 0.86887 0.48866 0.0
C746 C 0.42363 0.79887 0.84887 0.0
C747 C 0.4453 0.77856 0.84245 0.0
C748 C 0.40147 0.73491 0.82184 0.0
C749 C 0.3798 0.75525 0.82834 0.0
N750 N 0.37005 0.80817 0.83757 0.0
N751 N 0.45613 0.73041 0.81518 0.0
C752 C 0.39079 0.78778 0.83871 0.0
C753 C 0.43459 0.7475 0.82644 0.0
N754 N 0.43427 0.82827 0.8656 0.0
N755 N 0.39044 0.70348 0.81227 0.0
H756 H 0.48062 0.73921 0.81805 0.0
H757 H 0.4497 0.70881 0.80042 0.0
H758 H 0.36625 0.69355 0.80802 0.0
H759 H 0.40513 0.68689 0.81054 0.0
H760 H 0.41915 0.84267 0.87446 0.0
H761 H 0.45836 0.8375 0.87248 0.0
H762 H 0.3771 0.83253 0.84236 0.0
H763 H 0.34624 0.8009 0.82805 0.0
C764 C 0.51835 0.1279 0.09908 0.0
C765 C 0.48827 0.13692 0.09613 0.0
C766 C 0.46746 0.09024 0.0563 0.0
C767 C 0.49654 0.07931 0.06282 0.0
N768 N 0.54692 0.08553 0.09774 0.0
N769 N 0.43287 0.1256 0.07483 0.0
C770 C 0.52102 0.09723 0.08656 0.0
C771 C 0.46238 0.11787 0.0754 0.0
N772 N 0.54505 0.14927 0.11221 0.0
N773 N 0.44464 0.07414 0.03217 0.0
H774 H 0.42863 0.14578 0.08845 0.0
H775 H 0.41226 0.11096 0.06291 0.0
H776 H 0.44643 0.05278 0.01908 0.0
H777 H 0.42467 0.08279 0.02384 0.0
H778 H 0.56805 0.14471 0.11162 0.0
H779 H 0.54472 0.17278 0.11989 0.0
H780 H 0.56267 0.09668 0.11809 0.0
H781 H 0.55156 0.06373 0.08947 0.0
C782 C 0.12447 0.23495 0.35281 0.0
C783 C 0.10723 0.25874 0.34519 0.0
C784 C 0.13963 0.2694 0.29995 0.0
C785 C 0.16166 0.2528 0.31399 0.0
N786 N 0.1742 0.21591 0.3502 0.0
N787 N 0.09756 0.29818 0.30982 0.0
C788 C 0.15339 0.23372 0.33886 0.0
C789 C 0.11384 0.27521 0.31758 0.0
N790 N 0.11306 0.21367 0.3732 0.0
N791 N 0.14434 0.28069 0.27059 0.0
H792 H 0.07873 0.30368 0.32205 0.0
H793 H 0.10413 0.31338 0.29256 0.0
H794 H 0.16325 0.2764 0.25757 0.0
H795 H 0.1279 0.29112 0.25765 0.0
H796 H 0.12339 0.19445 0.37789 0.0
H797 H 0.09132 0.21353 0.38282 0.0
H798 H 0.17157 0.2041 0.37088 0.0
H799 H 0.19484 0.21392 0.33904 0.0
C800 C 0.92445 0.9875 0.12737 0.0
C801 C 0.92943 0.01338 0.15253 0.0
C802 C 0.97196 0.04145 0.12436 0.0
C803 C 0.97026 0.01394 0.10178 0.0
N804 N 0.94519 0.95951 0.08278 0.0
N805 N 0.95927 0.0643 0.17674 0.0
C806 C 0.94628 0.98676 0.10325 0.0
C807 C 0.95375 0.04002 0.15166 0.0
N808 N 0.89924 0.96314 0.12686 0.0
N809 N -0.01112 0.06969 0.11834 0.0
H810 H 0.94475 0.06574 0.19571 0.0
H811 H 0.97937 0.08218 0.1797 0.0
H812 H 0.00047 0.07258 0.09729 0.0
H813 H -0.01174 0.09107 0.13207 0.0
H814 H 0.89099 0.94642 0.10646 0.0
H815 H 0.88504 0.96037 0.14605 0.0
H816 H 0.93033 0.93825 0.0847 0.0
H817 H 0.96167 0.95637 0.06625 0.0
C818 C 0.29267 0.72902 0.44528 0.0
C819 C 0.27037 0.70646 0.45795 0.0
C820 C 0.22821 0.71283 0.41629 0.0
C821 C 0.25176 0.73019 0.40001 0.0
N822 N 0.3044 0.76079 0.40072 0.0
N823 N 0.21584 0.68226 0.46137 0.0
C824 C 0.28331 0.74079 0.4155 0.0
C825 C 0.23761 0.70034 0.44542 0.0
N826 N 0.32274 0.73829 0.4613 0.0
N827 N 0.19704 0.70831 0.40331 0.0
H828 H 0.22183 0.6749 0.4841 0.0
H829 H 0.19189 0.67479 0.45277 0.0
H830 H 0.19013 0.7187 0.3827 0.0
H831 H 0.17792 0.69608 0.41346 0.0
H832 H 0.34025 0.75537 0.45436 0.0
H833 H 0.32995 0.72963 0.48292 0.0
H834 H 0.3283 0.76858 0.40936 0.0
H835 H 0.29772 0.77017 0.37939 0.0
C836 C 0.54252 0.94551 0.63137 0.0
C837 C 0.56847 0.96645 0.65034 0.0
C838 C 0.55133 0.01126 0.62811 0.0
C839 C 0.52683 0.99045 0.60723 0.0
N840 N 0.49966 0.93769 0.58661 0.0
N841 N 0.602 0.01801 0.66092 0.0
C842 C 0.52253 0.95744 0.60811 0.0
C843 C 0.57437 -0.00111 0.64664 0.0
N844 N 0.53681 0.91448 0.63617 0.0
N845 N 0.55137 0.04287 0.63185 0.0
H846 H 0.61955 0.0099 0.67496 0.0
H847 H 0.60881 0.04115 0.65606 0.0
H848 H 0.53343 0.05253 0.62031 0.0
H849 H 0.56681 0.05892 0.6493 0.0
H850 H 0.51651 0.89841 0.62579 0.0
H851 H 0.55217 0.90501 0.65174 0.0
H852 H 0.49742 0.91331 0.58345 0.0
H853 H 0.4838 0.94593 0.57045 0.0
C854 C 0.23563 0.35354 0.91321 0.0
C855 C 0.25615 0.34929 0.94086 0.0
C856 C 0.26891 0.30288 0.90905 0.0
C857 C 0.24987 0.30863 0.88122 0.0
N858 N 0.22442 0.34547 0.85389 0.0
N859 N 0.29906 0.32488 0.9616 0.0
C860 C 0.23647 0.33607 0.88232 0.0
C861 C 0.27483 0.32536 0.93783 0.0
N862 N 0.21352 0.37236 0.91671 0.0
N863 N 0.28105 0.27589 0.90809 0.0
H864 H 0.30522 0.34184 0.98216 0.0
H865 H 0.31516 0.3097 0.95919 0.0
H866 H 0.27855 0.25995 0.88674 0.0
H867 H 0.29205 0.26863 0.92883 0.0
H868 H 0.19619 0.37372 0.89773 0.0
H869 H 0.20974 0.38347 0.93936 0.0
H870 H 0.21688 0.3669 0.85322 0.0
H871 H 0.22525 0.33352 0.83067 0.0
C872 C 0.96694 0.0158 0.35149 0.0
C873 C 0.93621 -0.00153 0.33927 0.0
C874 C 0.92263 0.99484 0.39579 0.0
C875 C 0.95408 0.01058 0.40803 0.0
N876 N 0.00788 0.0318 0.3974 0.0
N877 N 0.88629 0.96722 0.34901 0.0
C878 C 0.97684 0.01944 0.38584 0.0
C879 C 0.91443 0.98681 0.36121 0.0
N880 N 0.98594 0.03058 0.33047 0.0
N881 N 0.90042 0.98791 0.41721 0.0
H882 H 0.87893 0.96162 0.32388 0.0
H883 H 0.87122 0.95467 0.36358 0.0
H884 H 0.90582 0.99148 0.44274 0.0
H885 H 0.8762 0.98019 0.40982 0.0
H886 H 0.00686 0.04684 0.33835 0.0
H887 H 0.97939 0.02906 0.30518 0.0
H888 H 0.02613 0.0348 0.38223 0.0
H889 H 0.01605 0.03741 0.42228 0.0
C890 C 0.28737 0.67119 0.67282 0.0
C891 C 0.30252 0.68183 0.64584 0.0
C892 C 0.30773 0.7363 0.6722 0.0
C893 C 0.2847 0.72523 0.69327 0.0
N894 N 0.24909 0.68097 0.70982 0.0
N895 N 0.3364 0.72426 0.6253 0.0
C896 C 0.2738 0.69234 0.69287 0.0
C897 C 0.31572 0.71445 0.6472 0.0
N898 N 0.28634 0.64098 0.67955 0.0
N899 N 0.32269 0.76718 0.67697 0.0
H900 H 0.34733 0.70859 0.61145 0.0
H901 H 0.34343 0.74767 0.62154 0.0
H902 H 0.31801 0.78334 0.69566 0.0
H903 H 0.34132 0.77647 0.66416 0.0
H904 H 0.27671 0.63258 0.70011 0.0
H905 H 0.299 0.62597 0.66705 0.0
H906 H 0.23851 0.65718 0.70708 0.0
H907 H 0.23726 0.69521 0.72431 0.0
C908 C 0.52762 0.97529 0.83784 0.0
C909 C 0.55856 0.98992 0.8317 0.0
C910 C 0.57209 0.00986 0.89003 0.0
C911 C 0.54253 0.99269 0.89673 0.0
N912 N 0.49237 0.95804 0.87837 0.0
N913 N 0.6119 0.01766 0.85219 0.0
C914 C 0.52018 0.97526 0.87097 0.0
C915 C 0.58134 0.00603 0.85788 0.0
N916 N 0.50554 0.96139 0.81201 0.0
N917 N 0.5906 0.03124 0.91406 0.0
H918 H 0.61962 0.01707 0.82884 0.0
H919 H 0.63041 0.02587 0.87096 0.0
H920 H 0.58419 0.03563 0.93775 0.0
H921 H 0.6106 0.04708 0.90968 0.0
H922 H 0.48159 0.9534 0.81435 0.0
H923 H 0.51083 0.95903 0.78765 0.0
H924 H 0.47648 0.94203 0.86134 0.0
H925 H 0.48586 0.95851 0.90229 0.0
C926 C 0.28162 0.3272 0.1544 0.0
C927 C 0.25235 0.32802 0.1361 0.0
C928 C 0.22368 0.29415 0.1727 0.0
C929 C 0.25291 0.29563 0.19286 0.0
N930 N 0.30953 0.31768 0.20469 0.0
N931 N 0.19504 0.31548 0.12921 0.0
C932 C 0.28171 0.31354 0.18434 0.0
C933 C 0.22325 0.31198 0.14532 0.0
N934 N 0.30967 0.33793 0.14214 0.0
N935 N 0.19606 0.27667 0.18021 0.0
H936 H 0.19376 0.32833 0.10923 0.0
H937 H 0.17284 0.30771 0.13693 0.0
H938 H 0.19385 0.26706 0.20226 0.0
H939 H 0.17523 0.27077 0.16404 0.0
H940 H 0.33176 0.33458 0.15226 0.0
H941 H 0.31075 0.34737 0.11982 0.0
H942 H 0.32924 0.33504 0.20281 0.0
H943 H 0.3133 0.3041 0.22355 0.0
C944 C 0.16211 0.95225 0.0084 0.0
C945 C 0.16747 0.92884 0.02872 0.0
C946 C 0.13403 0.94887 0.0682 0.0
C947 C 0.12906 0.97205 0.04755 0.0
N948 N 0.14699 0.00296 0.00538 0.0
N949 N 0.16541 0.90992 0.08199 0.0
C950 C 0.14671 0.97642 0.02051 0.0
C951 C 0.1556 0.92868 0.06 0.0
N952 N 0.16889 0.94977 0.97645 0.0
N953 N 0.11713 0.94531 0.09464 0.0
H954 H 0.18148 0.89516 0.07695 0.0
H955 H 0.15974 0.91097 0.1062 0.0
H956 H 0.10326 0.9614 0.10254 0.0
H957 H 0.11629 0.92617 0.10804 0.0
H958 H 0.16301 0.96493 0.95985 0.0
H959 H 0.17636 0.93013 0.96537 0.0
H960 H 0.16131 0.00855 0.98678 0.0
H961 H 0.13525 0.02075 0.01403 0.0
C962 C 0.63896 0.5932 0.01274 0.0
C963 C 0.64925 0.58531 0.98154 0.0
C964 C 0.60084 0.54475 0.96742 0.0
C965 C 0.5931 0.54953 0.00039 0.0
N966 N 0.60969 0.5742 0.05641 0.0
N967 N 0.64191 0.55086 0.93033 0.0
C968 C 0.61336 0.57278 0.02355 0.0
C969 C 0.63088 0.56008 0.95931 0.0
N970 N 0.65352 0.6201 0.03243 0.0
N971 N 0.57884 0.52729 0.9433 0.0
H972 H 0.66294 0.56256 0.92273 0.0
H973 H 0.63129 0.53036 0.91499 0.0
H974 H 0.55583 0.51734 0.94752 0.0
H975 H 0.58217 0.52564 0.91837 0.0
H976 H 0.64338 0.62917 0.05261 0.0
H977 H 0.67408 0.63472 0.02742 0.0
H978 H 0.62593 0.58861 0.07455 0.0
H979 H 0.59269 0.55855 0.06608 0.0
C980 C 0.67453 0.41313 0.24794 0.0
C981 C 0.6834 0.43288 0.2784 0.0
C982 C 0.71933 0.39824 0.2961 0.0
C983 C 0.71165 0.37973 0.26494 0.0
N984 N 0.68897 0.37403 0.20853 0.0
N985 N 0.71759 0.44709 0.32975 0.0
C986 C 0.69144 0.38867 0.24001 0.0
C987 C 0.70711 0.42648 0.30184 0.0
N988 N 0.64947 0.41712 0.22688 0.0
N989 N 0.73694 0.38798 0.32068 0.0
H990 H 0.70784 0.46696 0.33586 0.0
H991 H 0.7372 0.44551 0.3459 0.0
H992 H 0.7471 0.36799 0.3169 0.0
H993 H 0.73999 0.39815 0.34515 0.0
H994 H 0.63991 0.40133 0.20605 0.0
H995 H 0.63625 0.43462 0.23163 0.0
H996 H 0.67667 0.3811 0.18847 0.0
H997 H 0.70249 0.35715 0.20203 0.0
C998 C 0.85241 0.44072 0.52809 0.0
C999 C 0.84153 0.43249 0.49414 0.0
C1000 C 0.89637 0.44185 0.48065 0.0
C1001 C 0.90718 0.44537 0.51484 0.0
N1002 N 0.89484 0.44122 0.57084 0.0
N1003 N 0.85307 0.41952 0.43834 0.0
C1004 C 0.88502 0.44286 0.53856 0.0
C1005 C 0.86345 0.43139 0.47039 0.0
N1006 N 0.83181 0.44746 0.55021 0.0
N1007 N 0.917 0.45017 0.45811 0.0
H1008 H 0.82908 0.41136 0.42985 0.0
H1009 H 0.86853 0.41511 0.42094 0.0
H1010 H 0.94102 0.45998 0.46453 0.0
H1011 H 0.90949 0.45068 0.43335 0.0
H1012 H 0.83933 0.4566 0.57472 0.0
H1013 H 0.80778 0.44723 0.54332 0.0
H1014 H 0.87907 0.43667 0.58844 0.0
H1015 H 0.91834 0.44071 0.57928 0.0
C1016 C 0.28529 0.0934 0.28483 0.0
C1017 C 0.31375 0.09016 0.27071 0.0
C1018 C 0.30798 0.13284 0.23746 0.0
C1019 C 0.2815 0.13807 0.25401 0.0
N1020 N 0.23917 0.11895 0.28516 0.0
N1021 N 0.34733 0.10028 0.22731 0.0
C1022 C 0.26807 0.11651 0.27473 0.0
C1023 C 0.32349 0.1078 0.24487 0.0
N1024 N 0.27596 0.07588 0.30928 0.0
N1025 N 0.31903 0.15296 0.21587 0.0
H1026 H 0.35907 0.08194 0.23204 0.0
H1027 H 0.35398 0.11046 0.20652 0.0
H1028 H 0.30618 0.16953 0.20814 0.0
H1029 H 0.34066 0.15363 0.20608 0.0
H1030 H 0.25728 0.07925 0.32293 0.0
H1031 H 0.28805 0.05879 0.31723 0.0
H1032 H 0.22652 0.10289 0.29857 0.0
H1033 H 0.22659 0.13592 0.27767 0.0
C1034 C 0.3463 0.08471 0.53396 0.0
C1035 C 0.32428 0.07442 0.50541 0.0
C1036 C 0.35951 0.0413 0.48243 0.0
C1037 C 0.38194 0.05217 0.51059 0.0
N1038 N 0.39921 0.08705 0.56121 0.0
N1039 N 0.31108 0.04735 0.45036 0.0
C1040 C 0.37603 0.07465 0.53586 0.0
C1041 C 0.33131 0.05411 0.4789 0.0
N1042 N 0.33833 0.10351 0.55958 0.0
N1043 N 0.36461 0.01774 0.45991 0.0
H1044 H 0.29009 0.0562 0.44731 0.0
H1045 H 0.31609 0.0351 0.42888 0.0
H1046 H 0.38476 0.0075 0.46229 0.0
H1047 H 0.34798 0.00655 0.44037 0.0
H1048 H 0.35134 0.10871 0.58274 0.0
H1049 H 0.3176 0.11294 0.55826 0.0
H1050 H 0.3982 0.10641 0.57801 0.0
H1051 H 0.42071 0.07928 0.56445 0.0
C1052 C 0.69813 0.64473 0.32898 0.0
C1053 C 0.6959 0.61764 0.30575 0.0
C1054 C 0.73875 0.64534 0.27774 0.0
C1055 C 0.73782 0.67333 0.29812 0.0
N1056 N 0.72557 0.69823 0.34909 0.0
N1057 N 0.71321 0.59165 0.25743 0.0
C1058 C 0.72019 0.67256 0.32568 0.0
C1059 C 0.71652 0.61753 0.28041 0.0
N1060 N 0.67822 0.64406 0.35326 0.0
N1061 N 0.76136 0.64544 0.2563 0.0
H1062 H 0.69764 0.57057 0.2586 0.0
H1063 H 0.72447 0.59144 0.23598 0.0
H1064 H 0.77851 0.6654 0.25511 0.0
H1065 H 0.76535 0.6254 0.24237 0.0
H1066 H 0.6758 0.66382 0.36873 0.0
H1067 H 0.66306 0.62352 0.35726 0.0
H1068 H 0.71537 0.69895 0.37117 0.0
H1069 H 0.74252 0.71831 0.34743 0.0
C1070 C 0.83254 0.41294 0.76292 0.0
C1071 C 0.85706 0.42189 0.78963 0.0
C1072 C 0.84905 0.36787 0.80334 0.0
C1073 C 0.82442 0.35917 0.7768 0.0
N1074 N 0.78661 0.37475 0.73761 0.0
N1075 N 0.88402 0.41033 0.83955 0.0
C1076 C 0.8139 0.38224 0.75896 0.0
C1077 C 0.86383 0.40008 0.81131 0.0
N1078 N 0.82874 0.43272 0.73963 0.0
N1079 N 0.85871 0.34519 0.82028 0.0
H1080 H 0.89495 0.4339 0.84594 0.0
H1081 H 0.88789 0.39618 0.85788 0.0
H1082 H 0.84711 0.32168 0.81613 0.0
H1083 H 0.87886 0.34932 0.83738 0.0
H1084 H 0.81392 0.42579 0.7176 0.0
H1085 H 0.84256 0.45511 0.74038 0.0
H1086 H 0.77612 0.39156 0.72678 0.0
H1087 H 0.77265 0.35229 0.73306 0.0
C1088 C -0.00786 0.87166 0.09979 0.0
C1089 C 0.01135 0.85174 0.08594 0.0
C1090 C 0.02701 0.89037 0.04813 0.0
C1091 C 0.01553 0.91325 0.06878 0.0
N1092 N -0.01037 0.92539 0.11759 0.0
N1093 N 0.04786 0.84221 0.04582 0.0
C1094 C -0.00171 0.90379 0.09526 0.0
C1095 C 0.02842 0.86063 0.05916 0.0
N1096 N 0.96877 0.85999 0.11818 0.0
N1097 N 0.03749 0.89708 0.01873 0.0
H1098 H 0.0492 0.8199 0.05203 0.0
H1099 H 0.06421 0.84994 0.02971 0.0
H1100 H 0.03684 0.91834 0.00951 0.0
H1101 H 0.0435 0.88019 0.00172 0.0
H1102 H 0.95251 0.87316 0.1269 0.0
H1103 H 0.96363 0.83615 0.1213 0.0
H1104 H 0.97997 0.91946 0.13905 0.0
H1105 H -0.00569 0.94951 0.11625 0.0
C1106 C 0.87432 0.2021 0.80324 0.0
C1107 C 0.88675 0.2215 0.83308 0.0
C1108 C 0.83863 0.24407 0.83335 0.0
C1109 C 0.82754 0.22698 0.80174 0.0
N1110 N 0.82873 0.18246 0.76221 0.0
N1111 N 0.87627 0.25086 0.88254 0.0
C1112 C 0.84336 0.20335 0.78865 0.0
C1113 C 0.86709 0.23873 0.85037 0.0
N1114 N 0.89293 0.18376 0.78825 0.0
N1115 N 0.8238 0.2673 0.84582 0.0
H1116 H 0.8972 0.24734 0.89528 0.0
H1117 H 0.86165 0.26132 0.89741 0.0
H1118 H 0.80336 0.27266 0.83394 0.0
H1119 H 0.83302 0.28289 0.86688 0.0
H1120 H 0.88705 0.17175 0.76457 0.0
H1121 H 0.91499 0.18139 0.79959 0.0
H1122 H 0.83791 0.16323 0.75274 0.0
H1123 H 0.80578 0.18287 0.75166 0.0
C1124 C 0.49525 0.17069 0.58761 0.0
C1125 C 0.52614 0.18018 0.60518 0.0
C1126 C 0.53844 0.12824 0.58929 0.0
C1127 C 0.50694 0.11845 0.574 0.0
N1128 N 0.46107 0.13263 0.5462 0.0
N1129 N 0.5803 0.1722 0.6124 0.0
C1130 C 0.48727 0.14058 0.5689 0.0
C1131 C 0.54885 0.16021 0.60272 0.0
N1132 N 0.47275 0.18911 0.59069 0.0
N1133 N 0.55799 0.10682 0.59139 0.0
H1134 H 0.58847 0.19613 0.61994 0.0
H1135 H 0.59841 0.15944 0.60948 0.0
H1136 H 0.55164 0.08402 0.579 0.0
H1137 H 0.57988 0.11137 0.60585 0.0
H1138 H 0.44895 0.18145 0.58125 0.0
H1139 H 0.47701 0.21106 0.60481 0.0
H1140 H 0.44702 0.14862 0.53941 0.0
H1141 H 0.45573 0.11087 0.53155 0.0
C1142 C 0.59672 0.72391 0.32978 0.0
C1143 C 0.58621 0.75254 0.33795 0.0
C1144 C 0.62786 0.78117 0.30936 0.0
C1145 C 0.64048 0.75323 0.30443 0.0
N1146 N 0.63228 0.69673 0.29989 0.0
N1147 N 0.59164 0.80861 0.33784 0.0
C1148 C 0.62334 0.72413 0.31158 0.0
C1149 C 0.60141 0.78117 0.32791 0.0
N1150 N 0.58204 0.69688 0.3407 0.0
N1151 N 0.64074 0.80744 0.29603 0.0
H1152 H 0.57219 0.80942 0.35125 0.0
H1153 H 0.60399 0.83087 0.335 0.0
H1154 H 0.65999 0.80849 0.28223 0.0
H1155 H 0.63072 0.82753 0.29603 0.0
H1156 H 0.59054 0.6759 0.33885 0.0
H1157 H 0.562 0.69576 0.35352 0.0
H1158 H 0.61983 0.67434 0.30201 0.0
H1159 H 0.6509 0.6964 0.28517 0.0
C1160 C 0.01526 0.1594 0.43202 0.0
C1161 C 0.01861 0.1868 0.4551 0.0
C1162 C 0.01538 0.15376 0.50025 0.0
C1163 C 0.01019 0.12653 0.47673 0.0
N1164 N -0.00563 0.10364 0.4204 0.0
N1165 N 0.01428 0.20954 0.51039 0.0
C1166 C 0.00662 0.12948 0.44266 0.0
C1167 C 0.0164 0.18387 0.48907 0.0
N1168 N 0.0223 0.16161 0.40037 0.0
N1169 N 0.02061 0.15109 0.53306 0.0
H1170 H 0.01416 0.23171 0.5029 0.0
H1171 H 0.00956 0.2082 0.53473 0.0
H1172 H 0.01952 0.12943 0.5421 0.0
H1173 H 0.02809 0.1704 0.55105 0.0
H1174 H 0.02309 0.14201 0.38374 0.0
H1175 H 0.031 0.18284 0.39174 0.0
H1176 H -0.01135 0.10486 0.3954 0.0
H1177 H 0.98632 0.08169 0.42776 0.0
C1178 C 0.61499 0.27154 0.15821 0.0
C1179 C 0.59132 0.24737 0.16621 0.0
C1180 C 0.62786 0.23494 0.20965 0.0
C1181 C 0.65194 0.25891 0.20161 0.0
N1182 N 0.66997 0.29757 0.16502 0.0
N1183 N 0.57677 0.20072 0.19247 0.0
C1184 C 0.6462 0.27616 0.17462 0.0
C1185 C 0.59823 0.2274 0.18982 0.0
N1186 N 0.60704 0.29149 0.13651 0.0
N1187 N 0.6331 0.21973 0.23661 0.0
H1188 H 0.5553 0.19414 0.17734 0.0
H1189 H 0.58155 0.18354 0.20704 0.0
H1190 H 0.65512 0.22317 0.25079 0.0
H1191 H 0.61515 0.205 0.24611 0.0
H1192 H 0.62184 0.31236 0.13309 0.0
H1193 H 0.58461 0.28834 0.12323 0.0
H1194 H 0.66828 0.30651 0.14249 0.0
H1195 H 0.69205 0.30586 0.17841 0.0
C1196 C 0.51984 0.89635 0.94807 0.0
C1197 C 0.54525 0.88118 0.9578 0.0
C1198 C 0.55884 0.91787 0.00877 0.0
C1199 C 0.53168 0.93093 0.0004 0.0
N1200 N 0.48382 0.9305 0.96451 0.0
N1201 N 0.5879 0.87551 -0.00234 0.0
C1202 C 0.51166 0.91983 0.97056 0.0
C1203 C 0.56451 0.8914 0.98827 0.0
N1204 N 0.50317 0.88807 0.91745 0.0
N1205 N 0.57961 0.93143 0.03576 0.0
H1206 H 0.59379 0.85717 0.98238 0.0
H1207 H 0.60041 0.87937 0.02108 0.0
H1208 H 0.57598 0.95083 0.05119 0.0
H1209 H 0.60151 0.92512 0.04157 0.0
H1210 H 0.48721 0.90084 0.90741 0.0
H1211 H 0.50636 0.86938 0.90088 0.0
H1212 H 0.4661 0.92035 0.94554 0.0
H1213 H 0.47687 0.94799 0.98 0.0
C1214 C 0.91813 0.76297 0.74042 0.0
C1215 C 0.91503 0.75008 0.70676 0.0
C1216 C 0.85891 0.75418 0.70187 0.0
C1217 C 0.86057 0.75911 0.73669 0.0
N1218 N 0.89172 0.76915 0.78985 0.0
N1219 N 0.88159 0.73228 0.65509 0.0
C1220 C 0.89027 0.76447 0.75625 0.0
C1221 C 0.88536 0.74603 0.68706 0.0
N1222 N 0.94772 0.77402 0.75699 0.0
N1223 N 0.83196 0.75722 0.68311 0.0
H1224 H 0.89994 0.72506 0.64316 0.0
H1225 H 0.85946 0.72563 0.6411 0.0
H1226 H 0.81242 0.7637 0.69354 0.0
H1227 H 0.8304 0.75672 0.65757 0.0
H1228 H 0.95146 0.7861 0.78072 0.0
H1229 H 0.96854 0.77404 0.74561 0.0
H1230 H 0.91232 0.76947 0.80542 0.0
H1231 H 0.87181 0.77086 0.80226 0.0
C1232 C 0.09601 0.04222 0.91285 0.0
C1233 C 0.08708 0.017 0.8872 0.0
C1234 C 0.05533 0.98635 0.92365 0.0
C1235 C 0.05911 0.01383 0.94673 0.0
N1236 N 0.08129 0.06924 0.96175 0.0
N1237 N 0.05753 0.96498 0.86706 0.0
C1238 C 0.07944 0.04202 0.94124 0.0
C1239 C 0.06685 0.98881 0.89237 0.0
N1240 N 0.12041 0.0664 0.90996 0.0
N1241 N 0.04165 0.95779 0.932 0.0
H1242 H 0.06621 0.96567 0.84413 0.0
H1243 H 0.03981 0.94545 0.86818 0.0
H1244 H 0.03391 0.955 0.95511 0.0
H1245 H 0.04097 0.93656 0.91739 0.0
H1246 H 0.13021 0.08395 0.92923 0.0
H1247 H 0.13304 0.06702 0.88934 0.0
H1248 H 0.0929 0.09113 0.95678 0.0
H1249 H 0.06871 0.07059 0.98217 0.0
C1250 C 0.77986 0.33434 0.60712 0.0
C1251 C 0.7503 0.3267 0.58689 0.0
C1252 C 0.72924 0.28968 0.62409 0.0
C1253 C 0.75681 0.3011 0.6466 0.0
N1254 N 0.80686 0.33733 0.66196 0.0
N1255 N 0.69491 0.30056 0.57861 0.0
C1256 C 0.7819 0.3241 0.63875 0.0
C1257 C 0.72449 0.30499 0.59576 0.0
N1258 N 0.8062 0.35062 0.59577 0.0
N1259 N 0.7077 0.2641 0.62977 0.0
H1260 H 0.68976 0.31232 0.55854 0.0
H1261 H 0.67464 0.28754 0.58627 0.0
H1262 H 0.71056 0.25231 0.65041 0.0
H1263 H 0.68877 0.25277 0.61254 0.0
H1264 H 0.82897 0.35431 0.60836 0.0
H1265 H 0.80595 0.35759 0.5722 0.0
H1266 H 0.8237 0.35694 0.65881 0.0
H1267 H 0.8094 0.33039 0.68546 0.0
C1268 C 0.43251 0.00472 0.4119 0.0
C1269 C 0.4446 0.03176 0.39734 0.0
C1270 C 0.48731 0.04741 0.44287 0.0
C1271 C 0.47854 0.01747 0.45389 0.0
N1272 N 0.44581 0.96516 0.44462 0.0
N1273 N 0.48358 0.07896 0.39771 0.0
C1274 C 0.45164 0.99557 0.4376 0.0
C1275 C 0.47191 0.05336 0.41266 0.0
N1276 N 0.40324 0.98704 0.40023 0.0
N1277 N 0.5096 0.07032 0.46161 0.0
H1278 H 0.47163 0.08461 0.37653 0.0
H1279 H 0.50554 0.09362 0.40544 0.0
H1280 H 0.52102 0.06691 0.48408 0.0
H1281 H 0.51472 0.09348 0.45634 0.0
H1282 H 0.39205 0.9685 0.41175 0.0
H1283 H 0.38865 0.99298 0.38113 0.0
H1284 H 0.42855 0.94749 0.43102 0.0
H1285 H 0.46054 0.9565 0.46141 0.0
C1286 C 0.77489 0.6958 0.10701 0.0
C1287 C 0.74817 0.67058 0.099 0.0
C1288 C 0.73616 0.67692 0.15667 0.0
C1289 C 0.76234 0.70224 0.16399 0.0
N1290 N 0.79872 0.74286 0.14413 0.0
N1291 N 0.69778 0.64469 0.11452 0.0
C1292 C 0.77887 0.71416 0.13835 0.0
C1293 C 0.727 0.66349 0.12333 0.0
N1294 N 0.79812 0.70067 0.08636 0.0
N1295 N 0.72057 0.66514 0.18164 0.0
H1296 H 0.68956 0.63563 0.09021 0.0
H1297 H 0.68042 0.64098 0.13066 0.0
H1298 H 0.72563 0.67563 0.20606 0.0
H1299 H 0.70391 0.64416 0.17834 0.0
H1300 H 0.81936 0.71685 0.09294 0.0
H1301 H 0.79824 0.68635 0.06443 0.0
H1302 H 0.80945 0.75397 0.12554 0.0
H1303 H 0.8015 0.75682 0.16685 0.0
C1304 C 0.06696 0.03288 0.68479 0.0
C1305 C 0.08703 0.01125 0.69189 0.0
C1306 C 0.0797 0.98943 0.63381 0.0
C1307 C 0.05667 0.00851 0.62734 0.0
N1308 N 0.02342 0.04348 0.64876 0.0
N1309 N 0.10641 0.96404 0.67466 0.0
C1310 C 0.04882 0.02884 0.65345 0.0
C1311 C 0.09148 0.98798 0.66686 0.0
N1312 N 0.06634 0.05816 0.70729 0.0
N1313 N 0.09198 0.97416 0.60854 0.0
H1314 H 0.11509 0.9619 0.69872 0.0
H1315 H 0.1072 0.94463 0.65777 0.0
H1316 H 0.08601 0.97598 0.58377 0.0
H1317 H 0.11102 0.96259 0.61229 0.0
H1318 H 0.05463 0.07637 0.70203 0.0
H1319 H 0.08027 0.0626 0.72996 0.0
H1320 H 0.01492 0.05615 0.66791 0.0
H1321 H 0.00879 0.04028 0.62654 0.0
C1322 C 0.7473 0.29958 0.39877 0.0
C1323 C 0.72528 0.32011 0.3952 0.0
C1324 C 0.70317 0.29031 0.34153 0.0
C1325 C 0.72685 0.27161 0.34484 0.0
N1326 N 0.75536 0.24672 0.38468 0.0
N1327 N 0.67722 0.33072 0.36713 0.0
C1328 C 0.74373 0.27228 0.37608 0.0
C1329 C 0.70141 0.3141 0.36774 0.0
N1330 N 0.77292 0.3069 0.42235 0.0
N1331 N 0.68194 0.28416 0.31383 0.0
H1332 H 0.67472 0.34717 0.38665 0.0
H1333 H 0.6586 0.3273 0.34835 0.0
H1334 H 0.68176 0.26506 0.29611 0.0
H1335 H 0.66428 0.297 0.30864 0.0
H1336 H 0.79079 0.29352 0.42352 0.0
H1337 H 0.77844 0.32802 0.43804 0.0
H1338 H 0.76633 0.24601 0.40824 0.0
H1339 H 0.74971 0.2249 0.37022 0.0
C1340 C 0.40116 0.01998 0.17462 0.0
C1341 C 0.42248 0.02416 0.20389 0.0
C1342 C 0.467 0.02282 0.17066 0.0
C1343 C 0.44488 0.0131 0.14222 0.0
N1344 N 0.39042 -0.00171 0.11723 0.0
N1345 N 0.47611 0.0259 0.22975 0.0
C1346 C 0.4118 0.01067 0.14414 0.0
C1347 C 0.45561 0.0249 0.20205 0.0
N1348 N 0.37102 0.02592 0.17578 0.0
N1349 N 0.49882 0.03108 0.16769 0.0
H1350 H 0.4696 0.02772 0.25353 0.0
H1351 H 0.49943 0.02238 0.22895 0.0
H1352 H 0.50808 0.03031 0.145 0.0
H1353 H 0.51561 0.04169 0.18739 0.0
H1354 H 0.35563 0.0262 0.15475 0.0
H1355 H 0.36264 0.03403 0.19754 0.0
H1356 H 0.36591 0.99301 0.11832 0.0
H1357 H 0.39723 0.99042 0.09453 0.0
C1358 C 0.73541 0.71461 0.89744 0.0
C1359 C 0.76097 0.69887 0.90464 0.0
C1360 C 0.7896 0.72399 0.8618 0.0
C1361 C 0.76376 0.73942 0.85431 0.0
N1362 N 0.71559 0.75516 0.87061 0.0
N1363 N 0.81089 0.68543 0.89165 0.0
C1364 C 0.73779 0.73649 0.87386 0.0
C1365 C 0.78768 0.70269 0.88623 0.0
N1366 N 0.70763 0.70686 0.91134 0.0
N1367 N 0.81693 0.73158 0.84719 0.0
H1368 H 0.81121 0.67109 0.91047 0.0
H1369 H 0.82886 0.68379 0.87647 0.0
H1370 H 0.81948 0.74791 0.83026 0.0
H1371 H 0.83794 0.72381 0.85352 0.0
H1372 H 0.68661 0.71421 0.90395 0.0
H1373 H 0.7043 0.69041 0.92807 0.0
H1374 H 0.69863 0.75725 0.88695 0.0
H1375 H 0.71579 0.77098 0.85345 0.0
C1376 C 0.86112 0.04866 0.05031 0.0
C1377 C 0.84673 0.06753 0.02948 0.0
C1378 C 0.88376 0.05856 0.98881 0.0
C1379 C 0.89694 0.03916 0.00963 0.0
N1380 N 0.88947 0.0056 0.0522 0.0
N1381 N 0.83791 0.08156 0.97417 0.0
C1382 C 0.88209 0.0304 0.03736 0.0
C1383 C 0.85598 0.0698 -0.00287 0.0
N1384 N 0.85729 0.05016 0.08314 0.0
N1385 N 0.89839 0.06733 0.96211 0.0
H1386 H 0.81637 0.08823 0.9786 0.0
H1387 H 0.84248 0.08135 0.94963 0.0
H1388 H 0.91803 0.05846 0.95477 0.0
H1389 H 0.89202 0.0846 0.94847 0.0
H1390 H 0.86963 0.03845 0.09936 0.0
H1391 H 0.84538 0.06616 0.09508 0.0
H1392 H 0.87752 -0.00313 0.07134 0.0
H1393 H 0.90497 0.9919 0.04262 0.0
C1394 C 0.38367 0.46794 0.07369 0.0
C1395 C 0.36576 0.44153 0.05297 0.0
C1396 C 0.41078 0.4386 0.02101 0.0
C1397 C 0.42874 0.46603 0.04111 0.0
N1398 N 0.4363 0.49708 0.09464 0.0
N1399 N 0.36585 0.39512 0.01552 0.0
C1400 C 0.41643 0.47776 0.07002 0.0
C1401 C 0.38066 0.42454 0.02972 0.0
N1402 N 0.36923 0.48392 0.09651 0.0
N1403 N 0.42099 0.42674 0.99252 0.0
H1404 H 0.34362 0.38425 0.02106 0.0
H1405 H 0.37709 0.38017 0.00113 0.0
H1406 H 0.44306 0.43439 0.98471 0.0
H1407 H 0.40637 0.41004 0.97501 0.0
H1408 H 0.38009 0.50555 0.10967 0.0
H1409 H 0.34575 0.47605 0.10104 0.0
H1410 H 0.42899 0.50431 0.11728 0.0
H1411 H 0.46091 0.50261 0.09408 0.0
C1412 C 0.33596 0.60123 0.74192 0.0
C1413 C 0.32917 0.57444 0.75877 0.0
C1414 C 0.29324 0.59995 0.79096 0.0
C1415 C 0.30363 0.62822 0.77743 0.0
N1416 N 0.3385 0.65729 0.74325 0.0
N1417 N 0.30321 0.54838 0.80096 0.0
C1418 C 0.32575 0.62926 0.75353 0.0
C1419 C 0.30801 0.57363 0.78352 0.0
N1420 N 0.35177 0.59967 0.71445 0.0
N1421 N 0.26893 0.5982 0.81052 0.0
H1422 H 0.31323 0.5285 0.79588 0.0
H1423 H 0.29108 0.54795 0.82184 0.0
H1424 H 0.25768 0.61712 0.81635 0.0
H1425 H 0.25809 0.5774 0.81859 0.0
H1426 H 0.35447 0.61734 0.69906 0.0
H1427 H 0.35945 0.57936 0.7052 0.0
H1428 H 0.35739 0.65989 0.72885 0.0
H1429 H 0.33215 0.67865 0.75115 0.0
C1430 C 0.16523 0.61136 0.55981 0.0
C1431 C 0.1807 0.61601 0.53105 0.0
C1432 C 0.12987 0.60345 0.49672 0.0
C1433 C 0.11473 0.59545 0.52474 0.0
N1434 N 0.11751 0.58774 0.58224 0.0
N1435 N 0.17893 0.61102 0.47159 0.0
C1436 C 0.13215 0.59862 0.55627 0.0
C1437 C 0.1634 0.61041 0.4993 0.0
N1438 N 0.18224 0.61847 0.59031 0.0
N1439 N 0.11206 0.60533 0.46791 0.0
H1440 H 0.20363 0.61685 0.47218 0.0
H1441 H 0.16745 0.60334 0.44793 0.0
H1442 H 0.08723 0.60162 0.46563 0.0
H1443 H 0.12181 0.61381 0.44748 0.0
H1444 H 0.17173 0.61897 0.61223 0.0
H1445 H 0.20694 0.62561 0.59384 0.0
H1446 H 0.12966 0.58597 0.60487 0.0
H1447 H 0.09326 0.57831 0.58052 0.0
C1448 C 0.7054 0.92012 0.8036 0.0
C1449 C 0.68442 0.90933 0.77438 0.0
C1450 C 0.71635 0.87031 0.75822 0.0
C1451 C 0.73886 0.88273 0.78608 0.0
N1452 N 0.74965 0.91141 0.84043 0.0
N1453 N 0.66418 0.86886 0.72915 0.0
C1454 C 0.7316 0.90507 0.81052 0.0
C1455 C 0.68791 0.88246 0.75355 0.0
N1456 N 0.70078 0.9454 0.82407 0.0
N1457 N 0.72285 0.84791 0.73551 0.0
H1458 H 0.64335 0.87769 0.72486 0.0
H1459 H 0.66377 0.84745 0.71501 0.0
H1460 H 0.74185 0.83676 0.74002 0.0
H1461 H 0.71 0.84084 0.71241 0.0
H1462 H 0.71721 0.95688 0.84367 0.0
H1463 H 0.68077 0.95572 0.82058 0.0
H1464 H 0.74425 0.92553 0.86043 0.0
H1465 H 0.76844 0.89994 0.84617 0.0
C1466 C 0.66408 0.94676 0.57146 0.0
C1467 C 0.68218 0.93733 0.54633 0.0
C1468 C 0.65405 0.96501 0.50783 0.0
C1469 C 0.63238 0.96985 0.53113 0.0
N1470 N 0.61364 0.95962 0.58383 0.0
N1471 N 0.69065 0.93271 0.48873 0.0
C1472 C 0.6367 0.95965 0.56287 0.0
C1473 C 0.67625 0.94522 0.51398 0.0
N1474 N 0.6727 0.943 0.60344 0.0
N1475 N 0.65361 0.9796 0.47992 0.0
H1476 H 0.70625 0.91724 0.49199 0.0
H1477 H 0.68464 0.93516 0.4641 0.0
H1478 H 0.63819 0.99502 0.47517 0.0
H1479 H 0.67074 0.9791 0.46347 0.0
H1480 H 0.66228 0.95244 0.62322 0.0
H1481 H 0.69213 0.93283 0.61041 0.0
H1482 H 0.61423 0.94895 0.6054 0.0
H1483 H 0.59235 0.96723 0.57846 0.0
C1484 C 0.31149 0.37301 0.70966 0.0
C1485 C 0.33298 0.3915 0.73553 0.0
C1486 C 0.30845 0.35977 0.77534 0.0
C1487 C 0.29104 0.33787 0.7493 0.0
N1488 N 0.27792 0.32208 0.69068 0.0
N1489 N 0.35667 0.39782 0.79191 0.0
C1490 C 0.29262 0.34418 0.71607 0.0
C1491 C 0.3327 0.38367 0.76812 0.0
N1492 N 0.30928 0.38286 0.67917 0.0
N1493 N 0.30173 0.35776 0.80707 0.0
H1494 H 0.37601 0.41413 0.78692 0.0
H1495 H 0.35916 0.39061 0.81529 0.0
H1496 H 0.28306 0.34114 0.81301 0.0
H1497 H 0.31218 0.37474 0.82668 0.0
H1498 H 0.29185 0.37197 0.66016 0.0
H1499 H 0.32344 0.40345 0.6738 0.0
H1500 H 0.28126 0.32403 0.66609 0.0
H1501 H 0.26406 0.30071 0.69425 0.0
C1502 C 0.17474 0.61357 0.22781 0.0
C1503 C 0.15789 0.59626 0.25027 0.0
C1504 C 0.17044 0.64208 0.29265 0.0
C1505 C 0.18767 0.65953 0.27033 0.0
N1506 N 0.21029 0.66112 0.21845 0.0
N1507 N 0.14369 0.59132 0.30527 0.0
C1508 C 0.19122 0.64497 0.23848 0.0
C1509 C 0.15685 0.60977 0.28304 0.0
N1510 N 0.17408 0.6002 0.19599 0.0
N1511 N 0.16713 0.6564 0.32314 0.0
H1512 H 0.13319 0.56763 0.29907 0.0
H1513 H 0.14501 0.59854 0.33042 0.0
H1514 H 0.17962 0.67876 0.33276 0.0
H1515 H 0.15119 0.64671 0.33868 0.0
H1516 H 0.18275 0.61239 0.17716 0.0
H1517 H 0.16305 0.57696 0.18776 0.0
H1518 H 0.21689 0.65085 0.19671 0.0
H1519 H 0.22122 0.68468 0.22428 0.0
C1520 C 0.47156 0.64052 0.43892 0.0
C1521 C 0.50041 0.66271 0.44193 0.0
C1522 C 0.52593 0.63068 0.47777 0.0
C1523 C 0.49933 0.60584 0.46898 0.0
N1524 N 0.44592 0.58701 0.44205 0.0
N1525 N 0.55631 0.67824 0.4621 0.0
C1526 C 0.47182 0.6108 0.44989 0.0
C1527 C 0.5279 0.6579 0.46118 0.0
N1528 N 0.44369 0.64836 0.42679 0.0
N1529 N 0.54907 0.62846 0.502 0.0
H1530 H 0.55904 0.69815 0.44974 0.0
H1531 H 0.57779 0.67389 0.47273 0.0
H1532 H 0.54775 0.6093 0.51541 0.0
H1533 H 0.56764 0.64704 0.51128 0.0
H1534 H 0.42137 0.63433 0.42712 0.0
H1535 H 0.44245 0.67042 0.41949 0.0
H1536 H 0.42715 0.58768 0.4244 0.0
H1537 H 0.44384 0.56594 0.45226 0.0
C1538 C 0.6545 0.31338 0.72153 0.0
C1539 C 0.63222 0.28961 0.70105 0.0
C1540 C 0.65913 0.24893 0.72122 0.0
C1541 C 0.68283 0.2727 0.73979 0.0
N1542 N 0.70506 0.32759 0.7564 0.0
N1543 N 0.61634 0.23551 0.67684 0.0
C1544 C 0.681 0.30501 0.73974 0.0
C1545 C 0.6355 0.25762 0.69953 0.0
N1546 N 0.64998 0.34383 0.72386 0.0
N1547 N 0.65834 0.21802 0.72547 0.0
H1548 H 0.59882 0.241 0.66044 0.0
H1549 H 0.61973 0.21242 0.67223 0.0
H1550 H 0.67495 0.2107 0.74155 0.0
H1551 H 0.63954 0.19989 0.71564 0.0
H1552 H 0.66328 0.36193 0.74078 0.0
H1553 H 0.63166 0.35079 0.7097 0.0
H1554 H 0.70725 0.35154 0.75454 0.0
H1555 H 0.72414 0.32216 0.77079 0.0
C1556 C 0.01189 0.37304 0.92062 0.0
C1557 C -0.00959 0.34527 0.92472 0.0
C1558 C 0.97236 0.37371 0.97217 0.0
C1559 C -0.00867 0.40215 0.96552 0.0
N1560 N 0.01992 0.42957 0.92539 0.0
N1561 N 0.944 0.32169 0.94913 0.0
C1562 C 0.0083 0.40207 0.93729 0.0
C1563 C 0.96875 0.34627 0.94896 0.0
N1564 N 0.03673 0.37177 0.90214 0.0
N1565 N 0.9589 0.37229 0.00106 0.0
H1566 H 0.93954 0.30182 0.9316 0.0
H1567 H 0.92594 0.32264 0.9644 0.0
H1568 H 0.96177 0.39143 0.01928 0.0
H1569 H 0.9475 0.35124 0.00826 0.0
H1570 H 0.0545 0.39133 0.90111 0.0
H1571 H 0.04176 0.35075 0.89118 0.0
H1572 H 0.03025 0.43011 0.90332 0.0
H1573 H 0.0156 0.45136 0.93504 0.0
C1574 C 0.94455 0.78143 0.24196 0.0
C1575 C 0.95081 0.76128 0.21484 0.0
C1576 C 0.89376 0.74109 0.20043 0.0
C1577 C 0.88763 0.75948 0.22892 0.0
N1578 N 0.90648 0.79453 0.27901 0.0
N1579 N 0.93251 0.71815 0.17151 0.0
C1580 C 0.91286 0.77884 0.25043 0.0
C1581 C 0.92572 0.74007 0.1949 0.0
N1582 N 0.96868 0.80391 0.25867 0.0
N1583 N 0.86903 0.72519 0.17826 0.0
H1584 H 0.9557 0.71649 0.16685 0.0
H1585 H 0.91544 0.69986 0.15862 0.0
H1586 H 0.8453 0.72461 0.18206 0.0
H1587 H 0.87194 0.71452 0.15509 0.0
H1588 H 0.96515 0.82161 0.2763 0.0
H1589 H -0.00779 0.80643 0.25315 0.0
H1590 H 0.92402 0.80634 0.29745 0.0
H1591 H 0.88341 0.79399 0.28544 0.0
C1592 C 0.47646 0.33951 0.06766 0.0
C1593 C 0.50195 0.32332 0.07237 0.0
C1594 C 0.53948 0.36797 0.0577 0.0
C1595 C 0.51397 0.38444 0.05371 0.0
N1596 N 0.45736 0.3823 0.04416 0.0
N1597 N 0.55582 0.31812 0.06444 0.0
C1598 C 0.48215 0.36897 0.05527 0.0
C1599 C 0.53284 0.33618 0.06465 0.0
N1600 N 0.44705 0.32719 0.07602 0.0
N1601 N 0.57012 0.38316 0.05691 0.0
H1602 H 0.55176 0.29496 0.06995 0.0
H1603 H 0.57794 0.32501 0.05613 0.0
H1604 H 0.57586 0.40606 0.05101 0.0
H1605 H 0.59001 0.37377 0.06382 0.0
H1606 H 0.42861 0.33977 0.07722 0.0
H1607 H 0.44161 0.30484 0.08356 0.0
H1608 H 0.43357 0.37111 0.04205 0.0
H1609 H 0.46094 0.40329 0.03367 0.0
C1610 C 0.92319 0.24805 0.3492 0.0
C1611 C 0.93626 0.28015 0.36 0.0
C1612 C 0.88313 0.29308 0.35532 0.0
C1613 C 0.86988 0.26044 0.34776 0.0
N1614 N 0.87696 0.20641 0.34494 0.0
N1615 N 0.92887 0.33228 0.37976 0.0
C1616 C 0.88984 0.23776 0.34696 0.0
C1617 C 0.91629 0.30243 0.36507 0.0
N1618 N 0.94247 0.22763 0.33974 0.0
N1619 N 0.86468 0.31526 0.35118 0.0
H1620 H 0.95316 0.34 0.38713 0.0
H1621 H 0.91489 0.34842 0.38729 0.0
H1622 H 0.84053 0.30978 0.34263 0.0
H1623 H 0.87404 0.33927 0.35311 0.0
H1624 H 0.93371 0.20482 0.32826 0.0
H1625 H 0.96712 0.23437 0.34033 0.0
H1626 H 0.89066 0.18909 0.3472 0.0
H1627 H 0.85259 0.19804 0.34463 0.0
C1628 C 0.98688 0.60113 0.60932 0.0
C1629 C 0.96977 0.62396 0.59871 0.0
C1630 C 0.95942 0.59304 0.54368 0.0
C1631 C 0.98388 0.57638 0.55273 0.0
N1632 N 0.02593 0.57091 0.59411 0.0
N1633 N 0.93398 0.6379 0.55655 0.0
C1634 C -0.00108 0.58199 0.58555 0.0
C1635 C 0.95416 0.61875 0.566 0.0
N1636 N -0.00924 0.59655 0.64172 0.0
N1637 N 0.94075 0.5837 0.51436 0.0
H1638 H 0.9262 0.65369 0.57349 0.0
H1639 H 0.92509 0.63818 0.53216 0.0
H1640 H 0.94338 0.56434 0.49828 0.0
H1641 H 0.92091 0.59316 0.50735 0.0
H1642 H 0.00213 0.57895 0.64969 0.0
H1643 H 0.97793 0.60607 0.65932 0.0
H1644 H 0.03901 0.57751 0.61724 0.0
H1645 H 0.03687 0.55759 0.57767 0.0
C1646 C 0.63635 0.80095 0.86591 0.0
C1647 C 0.61315 0.77289 0.85916 0.0
C1648 C 0.63453 0.76007 0.80731 0.0
C1649 C 0.66095 0.78508 0.81685 0.0
N1650 N 0.69005 0.82534 0.86014 0.0
N1651 N 0.59229 0.72332 0.82557 0.0
C1652 C 0.66272 0.80471 0.84734 0.0
C1653 C 0.6128 0.75172 0.83041 0.0
N1654 N 0.63285 0.82454 0.88929 0.0
N1655 N 0.62966 0.74491 0.77586 0.0
H1656 H 0.57616 0.71629 0.8422 0.0
H1657 H 0.59334 0.70566 0.8067 0.0
H1658 H 0.64428 0.75148 0.75775 0.0
H1659 H 0.60927 0.72832 0.7668 0.0
H1660 H 0.64746 0.84677 0.89242 0.0
H1661 H 0.61348 0.82322 0.90309 0.0
H1662 H 0.69286 0.83744 0.88384 0.0
H1663 H 0.71128 0.82785 0.84944 0.0
C1664 C 0.46688 0.49846 0.65833 0.0
C1665 C 0.44194 0.5155 0.6621 0.0
C1666 C 0.46137 0.54773 0.61982 0.0
C1667 C 0.48651 0.53077 0.61694 0.0
N1668 N 0.52069 0.50116 0.64467 0.0
N1669 N 0.42035 0.5618 0.65247 0.0
C1670 C 0.4918 0.50978 0.63987 0.0
C1671 C 0.44049 0.54181 0.64457 0.0
N1672 N 0.46591 0.47042 0.67069 0.0
N1673 N 0.45783 0.56971 0.59908 0.0
H1674 H 0.40511 0.5585 0.67076 0.0
H1675 H 0.42049 0.583 0.64275 0.0
H1676 H 0.47503 0.57687 0.58354 0.0
H1677 H 0.43782 0.58011 0.59681 0.0
H1678 H 0.48268 0.4562 0.66667 0.0
H1679 H 0.4461 0.45954 0.68093 0.0
H1680 H 0.52614 0.48734 0.66287 0.0
H1681 H 0.54029 0.51129 0.63359 0.0
C1682 C 0.7915 0.2029 0.93856 0.0
C1683 C 0.77405 0.20392 0.96616 0.0
C1684 C 0.73675 0.23088 0.93707 0.0
C1685 C 0.75071 0.2244 0.90779 0.0
N1686 N 0.78931 0.20054 0.87937 0.0
N1687 N 0.72835 0.21676 0.99147 0.0
C1688 C 0.77793 0.20992 0.90817 0.0
C1689 C 0.74652 0.2179 0.96569 0.0
N1690 N 0.82091 0.19491 0.94148 0.0
N1691 N 0.71413 0.24935 0.9374 0.0
H1692 H 0.73442 0.20755 0.01307 0.0
H1693 H 0.70596 0.22291 0.99052 0.0
H1694 H 0.70647 0.25906 0.91661 0.0
H1695 H 0.70525 0.25743 0.95885 0.0
H1696 H 0.83612 0.19668 0.92303 0.0
H1697 H 0.8313 0.18967 0.96369 0.0
H1698 H 0.80692 0.18694 0.87818 0.0
H1699 H 0.77939 0.20373 0.85616 0.0
C1700 C 0.05911 0.44378 0.1254 0.0
C1701 C 0.07851 0.46972 0.14586 0.0
C1702 C 0.04491 0.50469 0.126 0.0
C1703 C 0.02851 0.48032 0.10202 0.0
N1704 N 0.01919 0.42624 0.078 0.0
N1705 N 0.09468 0.52609 0.15898 0.0
C1706 C 0.03516 0.44952 0.10161 0.0
C1707 C 0.07294 0.50058 0.14403 0.0
N1708 N 0.06362 0.41395 0.12885 0.0
N1709 N 0.03311 0.53154 0.13205 0.0
H1710 H 0.11616 0.52408 0.17175 0.0
H1711 H 0.09263 0.54917 0.15589 0.0
H1712 H 0.01163 0.53431 0.11983 0.0
H1713 H 0.04264 0.54899 0.15155 0.0
H1714 H 0.04847 0.39376 0.11689 0.0
H1715 H 0.08214 0.40949 0.14485 0.0
H1716 H 0.02512 0.40409 0.07385 0.0
H1717 H 0.00049 0.42982 0.06168 0.0
C1718 C 0.72328 0.84042 0.41979 0.0
C1719 C 0.75321 0.84703 0.43909 0.0
C1720 C 0.77741 0.8218 0.39384 0.0
C1721 C 0.74848 0.81906 0.37311 0.0
N1722 N 0.69317 0.82388 0.36622 0.0
N1723 N 0.8087 0.84376 0.44607 0.0
C1724 C 0.72117 0.8277 0.38616 0.0
C1725 C 0.78018 0.83718 0.42672 0.0
N1726 N 0.69672 0.84553 0.43411 0.0
N1727 N 0.8022 0.80987 0.38204 0.0
H1728 H 0.81088 0.85323 0.47073 0.0
H1729 H 0.83034 0.841 0.43771 0.0
H1730 H 0.80158 0.7997 0.35779 0.0
H1731 H 0.82278 0.80821 0.3966 0.0
H1732 H 0.67356 0.83858 0.42264 0.0
H1733 H 0.69752 0.85455 0.45883 0.0
H1734 H 0.67366 0.83353 0.3724 0.0
H1735 H 0.68964 0.81159 0.34266 0.0
C1736 C 0.42805 0.47562 0.8679 0.0
C1737 C 0.44232 0.49517 0.8456 0.0
C1738 C 0.47563 0.52979 0.8915 0.0
C1739 C 0.46038 0.51079 0.91382 0.0
N1740 N 0.42701 0.46292 0.92394 0.0
N1741 N 0.47719 0.54216 0.83515 0.0
C1742 C 0.43799 0.4829 0.90215 0.0
C1743 C 0.46565 0.52253 0.8571 0.0
N1744 N 0.4036 0.45116 0.85638 0.0
N1745 N 0.50004 0.55431 0.90322 0.0
H1746 H 0.47104 0.53709 0.80973 0.0
H1747 H 0.49136 0.56434 0.84189 0.0
H1748 H 0.50769 0.56048 0.92821 0.0
H1749 H 0.51424 0.56744 0.8884 0.0
H1750 H 0.38982 0.43761 0.87122 0.0
H1751 H 0.39533 0.44594 0.83153 0.0
H1752 H 0.41393 0.44024 0.91714 0.0
H1753 H 0.43296 0.46833 0.94928 0.0
C1754 C 0.76545 0.18845 0.16684 0.0
C1755 C 0.79443 0.18553 0.15366 0.0
C1756 C 0.82194 0.23292 0.18985 0.0
C1757 C 0.79356 0.2339 0.20489 0.0
N1758 N 0.74011 0.20831 0.21249 0.0
N1759 N 0.85122 0.2021 0.15523 0.0
C1760 C 0.76603 0.21015 0.19513 0.0
C1761 C 0.82304 0.20696 0.16595 0.0
N1762 N 0.73684 0.17252 0.15084 0.0
N1763 N 0.84753 0.25702 0.19801 0.0
H1764 H 0.85266 0.18315 0.13795 0.0
H1765 H 0.87333 0.21519 0.16532 0.0
H1766 H 0.8478 0.27564 0.21633 0.0
H1767 H 0.86766 0.25955 0.18537 0.0
H1768 H 0.71495 0.1768 0.15737 0.0
H1769 H 0.73454 0.15774 0.12873 0.0
H1770 H 0.7212 0.18914 0.20855 0.0
H1771 H 0.73855 0.22408 0.23289 0.0
C1772 C 0.06416 0.53386 0.33995 0.0
C1773 C 0.06712 0.50371 0.32494 0.0
C1774 C 0.05538 0.48052 0.37529 0.0
C1775 C 0.05453 0.51097 0.39086 0.0
N1776 N 0.06213 0.56727 0.39045 0.0
N1777 N 0.06848 0.44884 0.32808 0.0
C1778 C 0.05967 0.53782 0.3738 0.0
C1779 C 0.06368 0.47716 0.34258 0.0
N1780 N 0.06595 0.55878 0.32193 0.0
N1781 N 0.04709 0.45478 0.39149 0.0
H1782 H 0.07245 0.44487 0.30342 0.0
H1783 H 0.07024 0.42964 0.34081 0.0
H1784 H 0.04055 0.45641 0.41542 0.0
H1785 H 0.04423 0.43161 0.38059 0.0
H1786 H 0.05965 0.58007 0.33009 0.0
H1787 H 0.07228 0.55795 0.29795 0.0
H1788 H 0.06995 0.58803 0.3806 0.0
H1789 H 0.05853 0.57124 0.4152 0.0
C1790 C 0.73407 0.79217 0.63024 0.0
C1791 C 0.7513 0.82381 0.6345 0.0
C1792 C 0.76961 0.81684 0.6909 0.0
C1793 C 0.74775 0.78784 0.68871 0.0
N1794 N 0.70381 0.75137 0.65685 0.0
N1795 N 0.77619 0.86872 0.67425 0.0
C1796 C 0.72825 0.77655 0.65855 0.0
C1797 C 0.76647 0.83695 0.66635 0.0
N1798 N 0.72489 0.77613 0.59948 0.0
N1799 N 0.79368 0.82538 0.71599 0.0
H1800 H 0.77109 0.88497 0.6586 0.0
H1801 H 0.78518 0.87893 0.69816 0.0
H1802 H 0.79756 0.81124 0.73426 0.0
H1803 H 0.81145 0.84532 0.71666 0.0
H1804 H 0.71451 0.75228 0.59564 0.0
H1805 H 0.73139 0.78516 0.57801 0.0
H1806 H 0.6874 0.74404 0.63597 0.0
H1807 H 0.69784 0.74019 0.67734 0.0
C1808 C 0.65383 0.42491 0.55084 0.0
C1809 C 0.66833 0.43088 0.5217 0.0
C1810 C 0.64244 0.476 0.51722 0.0
C1811 C 0.62342 0.4661 0.54193 0.0
N1812 N 0.60968 0.43112 0.58236 0.0
N1813 N 0.67386 0.46013 0.47483 0.0
C1814 C 0.62899 0.4408 0.55918 0.0
C1815 C 0.66241 0.45625 0.5045 0.0
N1816 N 0.66437 0.40488 0.57094 0.0
N1817 N 0.64064 0.50398 0.50549 0.0
H1818 H 0.68723 0.44513 0.4636 0.0
H1819 H 0.66745 0.47631 0.45973 0.0
H1820 H 0.62596 0.51881 0.51467 0.0
H1821 H 0.65585 0.51383 0.48933 0.0
H1822 H 0.65649 0.40185 0.59389 0.0
H1823 H 0.68329 0.3936 0.56623 0.0
H1824 H 0.60994 0.4103 0.59275 0.0
H1825 H 0.59225 0.44331 0.58999 0.0
C1826 C 0.12694 0.05708 0.45534 0.0
C1827 C 0.14735 0.07598 0.48184 0.0
C1828 C 0.11645 0.04948 0.52161 0.0
C1829 C 0.0938 0.03353 0.49548 0.0
N1830 N 0.07639 0.02156 0.43742 0.0
N1831 N 0.15925 0.09362 0.54007 0.0
C1832 C 0.09887 0.0369 0.46222 0.0
C1833 C 0.1415 0.07309 0.51496 0.0
N1834 N 0.13454 0.05844 0.42378 0.0
N1835 N 0.11432 0.04133 0.55271 0.0
H1836 H 0.17748 0.11171 0.53616 0.0
H1837 H 0.15398 0.09456 0.5644 0.0
H1838 H 0.09661 0.02332 0.55787 0.0
H1839 H 0.13183 0.04979 0.5724 0.0
H1840 H 0.12254 0.0432 0.40353 0.0
H1841 H 0.15415 0.07404 0.41799 0.0
H1842 H 0.0768 0.02536 0.41284 0.0
H1843 H 0.05639 0.00559 0.44168 0.0
C1844 C 0.20288 0.92598 0.74823 0.0
C1845 C 0.19075 0.93384 0.77854 0.0
C1846 C 0.20279 0.88568 0.79859 0.0
C1847 C 0.21348 0.87715 0.76774 0.0
N1848 N 0.23174 0.89201 0.71684 0.0
N1849 N 0.18658 0.926 0.83535 0.0
C1850 C 0.21644 0.89844 0.74386 0.0
C1851 C 0.19307 0.91515 0.80465 0.0
N1852 N 0.19946 0.9436 0.72286 0.0
N1853 N 0.20121 0.86509 0.82169 0.0
H1854 H 0.17977 0.94769 0.84056 0.0
H1855 H 0.19046 0.91497 0.85626 0.0
H1856 H 0.21052 0.8445 0.81901 0.0
H1857 H 0.18984 0.86774 0.8429 0.0
H1858 H 0.20441 0.93713 0.699 0.0
H1859 H 0.18956 0.96383 0.72493 0.0
H1860 H 0.23747 0.9079 0.70002 0.0
H1861 H 0.2413 0.87169 0.71281 0.0
C1862 C 0.35325 0.90737 0.98103 0.0
C1863 C 0.33158 0.92822 0.98523 0.0
C1864 C 0.37466 0.97005 0.01271 0.0
C1865 C 0.3954 0.94806 0.01206 0.0
N1866 N 0.40779 0.89896 0.98941 0.0
N1867 N 0.32035 0.97845 0.00707 0.0
C1868 C 0.38566 0.91759 -0.00574 0.0
C1869 C 0.34205 0.95959 0.00082 0.0
N1870 N 0.34236 0.87747 0.96553 0.0
N1871 N 0.386 0.00087 0.02494 0.0
H1872 H 0.29612 0.972 -0.00094 0.0
H1873 H 0.32574 -0.00024 0.02237 0.0
H1874 H 0.40922 0.00928 0.03561 0.0
H1875 H 0.3732 0.01881 0.02222 0.0
H1876 H 0.35574 0.85978 0.96413 0.0
H1877 H 0.31906 0.86985 0.95447 0.0
H1878 H 0.40331 0.87729 0.97484 0.0
H1879 H 0.43178 0.90619 -0.00158 0.0
C1880 C 0.79435 0.59597 0.80212 0.0
C1881 C 0.8092 0.58421 0.77531 0.0
C1882 C 0.78923 0.61984 0.74019 0.0
C1883 C 0.77614 0.63323 0.7677 0.0
N1884 N 0.75812 0.62926 0.82118 0.0
N1885 N 0.81277 0.57697 0.7169 0.0
C1886 C 0.77577 0.61935 0.79742 0.0
C1887 C 0.80369 0.59337 0.74358 0.0
N1888 N 0.79948 0.58599 0.83229 0.0
N1889 N 0.79047 0.63393 0.71193 0.0
H1890 H 0.82374 0.55757 0.71888 0.0
H1891 H 0.80678 0.58062 0.69264 0.0
H1892 H 0.7796 0.65291 0.70776 0.0
H1893 H 0.8038 0.62785 0.69308 0.0
H1894 H 0.79236 0.59616 0.85382 0.0
H1895 H 0.8122 0.5681 0.83604 0.0
H1896 H 0.75503 0.61892 0.84272 0.0
H1897 H 0.74428 0.64636 0.81785 0.0
C1898 C 0.85068 0.58827 0.03276 0.0
C1899 C 0.82892 0.57631 0.00428 0.0
C1900 C 0.86471 0.5418 0.98499 0.0
C1901 C 0.88709 0.55466 0.01281 0.0
N1902 N 0.90358 0.59263 0.06114 0.0
N1903 N 0.8163 0.54529 0.95114 0.0
C1904 C 0.88064 0.57854 0.0362 0.0
C1905 C 0.83631 0.55413 0.97972 0.0
N1906 N 0.84225 0.60832 0.05698 0.0
N1907 N 0.87018 0.51699 0.96433 0.0
H1908 H 0.79526 0.55378 0.94678 0.0
H1909 H 0.82154 0.53158 0.93075 0.0
H1910 H 0.89059 0.50726 0.96762 0.0
H1911 H 0.8536 0.50436 0.94545 0.0
H1912 H 0.85511 0.61496 0.08012 0.0
H1913 H 0.82127 0.61725 0.05461 0.0
H1914 H 0.90232 0.61296 0.07638 0.0
H1915 H 0.92501 0.58498 0.06552 0.0
C1916 C 0.20002 0.14119 0.82772 0.0
C1917 C 0.19648 0.11665 0.80121 0.0
C1918 C 0.23921 0.1471 0.77547 0.0
C1919 C 0.2388 0.17331 0.7987 0.0
N1920 N 0.22466 0.19506 0.8502 0.0
N1921 N 0.21187 0.09568 0.7494 0.0
C1922 C 0.22116 0.17011 0.82613 0.0
C1923 C 0.21636 0.11911 0.7753 0.0
N1924 N 0.18294 0.13666 0.85401 0.0
N1925 N 0.26156 0.14921 0.75368 0.0
H1926 H 0.19551 0.07465 0.74831 0.0
H1927 H 0.22284 0.09774 0.72789 0.0
H1928 H 0.27888 0.16944 0.75417 0.0
H1929 H 0.26503 0.13029 0.73757 0.0
H1930 H 0.18434 0.15312 0.8746 0.0
H1931 H 0.16784 0.1154 0.85588 0.0
H1932 H 0.21138 0.19584 0.87016 0.0
H1933 H 0.24182 0.21535 0.85024 0.0
C1934 C 0.35452 0.8978 0.31099 0.0
C1935 C 0.3443 0.91983 0.29136 0.0
C1936 C 0.30339 0.87802 0.26006 0.0
C1937 C 0.31741 0.85549 0.27576 0.0
N1938 N 0.3551 0.84288 0.31687 0.0
N1939 N 0.30951 0.93162 0.24675 0.0
C1940 C 0.34239 0.86511 0.30178 0.0
C1941 C 0.31832 0.9103 0.26628 0.0
N1942 N 0.3756 0.90837 0.33853 0.0
N1943 N 0.27629 0.86845 0.23861 0.0
H1944 H 0.31954 0.95554 0.25057 0.0
H1945 H 0.29362 0.92547 0.22543 0.0
H1946 H 0.26559 0.84487 0.23219 0.0
H1947 H 0.26293 0.88386 0.22912 0.0
H1948 H 0.38219 0.89395 0.35557 0.0
H1949 H 0.38448 0.93228 0.34587 0.0
H1950 H 0.37571 0.84797 0.33337 0.0
H1951 H 0.34554 0.81884 0.3118 0.0
C1952 C 0.48949 0.37332 0.59833 0.0
C1953 C 0.51532 0.35885 0.58973 0.0
C1954 C 0.52501 0.3945 0.54785 0.0
C1955 C 0.50622 0.41395 0.56324 0.0
N1956 N 0.46648 0.42059 0.59944 0.0
N1957 N 0.55844 0.3562 0.55571 0.0
C1958 C 0.48664 0.40257 0.58694 0.0
C1959 C 0.53286 0.36899 0.56368 0.0
N1960 N 0.4678 0.35899 0.6171 0.0
N1961 N 0.5357 0.4009 0.51853 0.0
H1962 H 0.56593 0.33818 0.56727 0.0
H1963 H 0.57396 0.36538 0.53946 0.0
H1964 H 0.52831 0.41843 0.50598 0.0
H1965 H 0.54812 0.38647 0.50498 0.0
H1966 H 0.44721 0.36722 0.62224 0.0
H1967 H 0.46885 0.33706 0.62485 0.0
H1968 H 0.45368 0.41542 0.61922 0.0
H1969 H 0.4634 0.44144 0.59013 0.0
C1970 C 0.37919 0.73562 0.33991 0.0
C1971 C 0.40488 0.74156 0.32054 0.0
C1972 C 0.36783 0.74249 0.27201 0.0
C1973 C 0.34201 0.73661 0.2914 0.0
N1974 N 0.32298 0.71474 0.33916 0.0
N1975 N 0.4225 0.73792 0.26631 0.0
C1976 C 0.34769 0.72895 0.32391 0.0
C1977 C 0.39877 0.74073 0.28592 0.0
N1978 N 0.38444 0.7381 0.3735 0.0
N1979 N 0.36368 0.75171 0.24135 0.0
H1980 H 0.4452 0.7355 0.27576 0.0
H1981 H 0.41856 0.73433 0.24064 0.0
H1982 H 0.34182 0.75378 0.22966 0.0
H1983 H 0.3827 0.75986 0.22839 0.0
H1984 H 0.36609 0.73678 0.38861 0.0
H1985 H 0.40701 0.74404 0.38658 0.0
H1986 H 0.32601 0.70645 0.36194 0.0
H1987 H 0.30007 0.70774 0.3269 0.0
C1988 C 0.05065 0.65105 0.11891 0.0
C1989 C 0.02923 0.67247 0.11623 0.0
C1990 C -0.00517 0.63457 0.07403 0.0
C1991 C 0.01249 0.61148 0.08176 0.0
N1992 N 0.05881 0.59714 0.10848 0.0
N1993 N 0.97768 0.68188 0.09467 0.0
C1994 C 0.0411 0.61962 0.10313 0.0
C1995 C 0.00065 0.66378 0.09429 0.0
N1996 N 0.08027 0.66096 0.13575 0.0
N1997 N 0.97249 0.62848 0.04722 0.0
H1998 H 0.97929 0.70227 0.11097 0.0
H1999 H 0.95526 0.67468 0.08135 0.0
H2000 H 0.96855 0.60732 0.03159 0.0
H2001 H 0.96068 0.64549 0.03864 0.0
H2002 H 0.09792 0.64738 0.13627 0.0
H2003 H 0.08825 0.68385 0.14715 0.0
H2004 H 0.07764 0.6 0.12703 0.0
H2005 H 0.05393 0.57508 0.09441 0.0
C2006 C 0.09623 0.27465 0.83359 0.0
C2007 C 0.07502 0.24549 0.83253 0.0
C2008 C 0.10813 0.22052 0.79632 0.0
C2009 C 0.13238 0.24791 0.80298 0.0
N2010 N 0.15043 0.30063 0.83182 0.0
N2011 N 0.06237 0.18939 0.81547 0.0
C2012 C 0.12661 0.2751 0.82225 0.0
C2013 C 0.08113 0.21808 0.81424 0.0
N2014 N 0.08713 0.30205 0.84486 0.0
N2015 N 0.11078 0.19694 0.77255 0.0
H2016 H 0.04271 0.18632 0.82883 0.0
H2017 H 0.068 0.16825 0.80563 0.0
H2018 H 0.1298 0.19851 0.75821 0.0
H2019 H 0.09257 0.17761 0.76464 0.0
H2020 H 0.10045 0.32423 0.84316 0.0
H2021 H 0.06469 0.30269 0.85254 0.0
H2022 H 0.14832 0.31915 0.84927 0.0
H2023 H 0.1732 0.30237 0.82468 0.0
C2024 C 0.51207 0.68865 -0.00145 0.0
C2025 C 0.50604 0.68951 0.96403 0.0
C2026 C 0.48668 0.63254 0.95679 0.0
C2027 C 0.49982 0.63113 0.98921 0.0
N2028 N 0.52502 0.65754 0.04186 0.0
N2029 N 0.49153 0.66029 0.90926 0.0
C2030 C 0.51221 0.65915 0.01056 0.0
C2031 C 0.49377 0.66103 0.9428 0.0
N2032 N 0.51687 0.71583 0.0198 0.0
N2033 N 0.46775 0.60649 0.93924 0.0
H2034 H 0.4989 0.67973 0.89715 0.0
H2035 H 0.48571 0.63938 0.89323 0.0
H2036 H 0.46177 0.5856 0.94951 0.0
H2037 H 0.45528 0.6068 0.91633 0.0
H2038 H 0.51884 0.71626 0.04534 0.0
H2039 H 0.51539 0.73759 0.01187 0.0
H2040 H 0.5378 0.67708 0.05734 0.0
H2041 H 0.52413 0.63623 0.05165 0.0
C2042 C 0.09642 0.71315 0.69736 0.0
C2043 C 0.08898 0.73609 0.67731 0.0
C2044 C 0.14431 0.76381 0.68571 0.0
C2045 C 0.15136 0.74187 0.70726 0.0
N2046 N 0.13411 0.69918 0.73833 0.0
N2047 N 0.10371 0.7861 0.65683 0.0
C2048 C 0.12737 0.71758 0.71459 0.0
C2049 C 0.11233 0.76224 0.67268 0.0
N2050 N 0.07431 0.68662 0.69883 0.0
N2051 N 0.16831 0.78572 0.67714 0.0
H2052 H 0.0805 0.78563 0.64651 0.0
H2053 H 0.11889 0.80751 0.65612 0.0
H2054 H 0.19201 0.78863 0.68712 0.0
H2055 H 0.16522 0.79972 0.65848 0.0
H2056 H 0.07921 0.66761 0.71049 0.0
H2057 H 0.05162 0.68237 0.68592 0.0
H2058 H 0.11687 0.68318 0.74728 0.0
H2059 H 0.15678 0.70173 0.75101 0.0
C2060 C 0.02277 0.3792 0.48371 0.0
C2061 C 0.04856 0.38028 0.46424 0.0
C2062 C 0.06842 0.43561 0.48707 0.0
C2063 C 0.04211 0.43437 0.50603 0.0
N2064 N 0.00477 0.39977 0.53379 0.0
N2065 N 0.0999 0.40686 0.45277 0.0
C2066 C 0.0227 0.4046 0.50821 0.0
C2067 C 0.07268 0.40778 0.46754 0.0
N2068 N -0.00294 0.35495 0.47759 0.0
N2069 N 0.08975 0.46322 0.48857 0.0
H2070 H 0.10395 0.38656 0.43923 0.0
H2071 H 0.11956 0.42517 0.45591 0.0
H2072 H 0.08958 0.48261 0.50579 0.0
H2073 H 0.10734 0.46715 0.47276 0.0
H2074 H 0.97624 0.35516 0.48887 0.0
H2075 H -0.00521 0.33643 0.45873 0.0
H2076 H -0.00742 0.37754 0.53716 0.0
H2077 H 0.00535 0.41623 0.55416 0.0
C2078 C 0.39066 0.25844 0.18272 0.0
C2079 C 0.40918 0.23792 0.19617 0.0
C2080 C 0.36999 0.22561 0.23473 0.0
C2081 C 0.34871 0.24107 0.2171 0.0
N2082 N 0.33726 0.26609 0.16834 0.0
N2083 N 0.40947 0.1935 0.22736 0.0
C2084 C 0.35846 0.25558 0.18918 0.0
C2085 C 0.39699 0.21909 0.22012 0.0
N2086 N 0.40377 0.28143 0.16502 0.0
N2087 N 0.36464 0.21641 0.26487 0.0
H2088 H 0.4268 0.18526 0.21447 0.0
H2089 H 0.39931 0.17786 0.24284 0.0
H2090 H 0.3461 0.22158 0.27769 0.0
H2091 H 0.38121 0.20701 0.27896 0.0
H2092 H 0.39138 0.29832 0.15709 0.0
H2093 H 0.42791 0.28614 0.16185 0.0
H2094 H 0.34312 0.2741 0.14616 0.0
H2095 H 0.31326 0.2642 0.17153 0.0
C2096 C 0.55951 0.48964 0.39307 0.0
C2097 C 0.5803 0.51755 0.38817 0.0
C2098 C 0.57519 0.54132 0.44355 0.0
C2099 C 0.55517 0.51287 0.44936 0.0
N2100 N 0.53696 0.45704 0.4327 0.0
N2101 N 0.61541 0.56577 0.41157 0.0
C2102 C 0.54983 0.4861 0.42499 0.0
C2103 C 0.59063 0.54195 0.41442 0.0
N2104 N 0.54837 0.46685 0.3671 0.0
N2105 N 0.57796 0.56852 0.46442 0.0
H2106 H 0.6272 0.56701 0.39041 0.0
H2107 H 0.62635 0.58234 0.43132 0.0
H2108 H 0.56632 0.57031 0.48541 0.0
H2109 H 0.58921 0.59038 0.459 0.0
H2110 H 0.53026 0.44767 0.36833 0.0
H2111 H 0.55574 0.46829 0.34364 0.0
H2112 H 0.53527 0.43638 0.41678 0.0
H2113 H 0.53132 0.45304 0.45628 0.0
C2114 C 0.26634 0.78769 0.07979 0.0
C2115 C 0.25151 0.81434 0.08402 0.0
C2116 C 0.24403 0.8054 0.14099 0.0
C2117 C 0.26026 0.7797 0.13732 0.0
N2118 N 0.29033 0.74834 0.10552 0.0
N2119 N 0.23014 0.85148 0.1194 0.0
C2120 C 0.27237 0.77133 0.10731 0.0
C2121 C 0.2417 0.82416 0.11492 0.0
N2122 N 0.27445 0.77801 0.04942 0.0
N2123 N 0.22949 0.81094 0.16885 0.0
H2124 H 0.22603 0.86495 0.10045 0.0
H2125 H 0.22653 0.86204 0.14238 0.0
H2126 H 0.23086 0.79806 0.18877 0.0
H2127 H 0.21399 0.8267 0.1714 0.0
H2128 H 0.28209 0.75691 0.04361 0.0
H2129 H 0.27208 0.79045 0.02923 0.0
H2130 H 0.30264 0.74306 0.08557 0.0
H2131 H 0.29472 0.73574 0.12518 0.0
C2132 C 0.93446 0.51815 0.9006 0.0
C2133 C 0.94854 0.54453 0.8862 0.0
C2134 C -0.00996 0.55794 0.93279 0.0
C2135 C 0.97994 0.52759 0.94249 0.0
N2136 N 0.94691 0.47562 0.9288 0.0
N2137 N -0.00991 0.58987 0.88766 0.0
C2138 C 0.95313 0.50683 0.92474 0.0
C2139 C 0.97639 0.56477 0.90219 0.0
N2140 N 0.90409 0.50277 0.88989 0.0
N2141 N 0.01164 0.58033 0.95294 0.0
H2142 H 0.97938 0.59599 0.86603 0.0
H2143 H 0.01238 0.60351 0.89631 0.0
H2144 H 0.02129 0.57655 0.97607 0.0
H2145 H 0.01761 0.60355 0.94801 0.0
H2146 H 0.89243 0.48434 0.90129 0.0
H2147 H 0.88939 0.51075 0.87239 0.0
H2148 H 0.92899 0.45929 0.91425 0.0
H2149 H 0.96231 0.46531 0.94325 0.0
C2150 C 0.27696 0.19166 0.60961 0.0
C2151 C 0.2479 0.16932 0.60282 0.0
C2152 C 0.23683 0.18029 0.6602 0.0
C2153 C 0.26554 0.20278 0.66643 0.0
N2154 N 0.30634 0.23771 0.64479 0.0
N2155 N 0.19588 0.15006 0.61897 0.0
C2156 C 0.28331 0.21113 0.64025 0.0
C2157 C 0.22643 0.16601 0.62733 0.0
N2158 N 0.29976 0.19273 0.58826 0.0
N2159 N 0.22016 0.17169 0.68572 0.0
H2160 H 0.18706 0.141 0.59474 0.0
H2161 H 0.17847 0.14896 0.6352 0.0
H2162 H 0.22643 0.18268 0.70984 0.0
H2163 H 0.20126 0.15258 0.68324 0.0
H2164 H 0.32246 0.20655 0.59394 0.0
H2165 H 0.29761 0.17751 0.56651 0.0
H2166 H 0.31822 0.24657 0.62568 0.0
H2167 H 0.31064 0.25278 0.66685 0.0
C2168 C 0.60845 0.49089 0.17107 0.0
C2169 C 0.59861 0.51445 0.19213 0.0
C2170 C 0.56916 0.53022 0.14465 0.0
C2171 C 0.57676 0.50472 0.12431 0.0
N2172 N 0.5953 0.4553 0.12064 0.0
N2173 N 0.56634 0.55413 0.20022 0.0
C2174 C 0.59411 0.48351 0.13817 0.0
C2175 C 0.57773 0.53325 0.17934 0.0
N2176 N 0.63168 0.4756 0.18224 0.0
N2177 N 0.5552 0.55232 0.13074 0.0
H2178 H 0.57348 0.55824 0.22549 0.0
H2179 H 0.5483 0.56586 0.19284 0.0
H2180 H 0.54904 0.55118 0.10543 0.0
H2181 H 0.55213 0.57317 0.1439 0.0
H2182 H 0.64207 0.46078 0.16672 0.0
H2183 H 0.64265 0.47974 0.20635 0.0
H2184 H 0.60494 0.43766 0.13086 0.0
H2185 H 0.58327 0.44787 0.09718 0.0
C2186 C 0.19724 0.79624 0.87347 0.0
C2187 C 0.22084 0.81994 0.89237 0.0
C2188 C 0.26257 0.80033 0.86474 0.0
C2189 C 0.23916 0.77857 0.84345 0.0
N2190 N 0.18402 0.75686 0.8251 0.0
N2191 N 0.27482 0.84955 0.9002 0.0
C2192 C 0.20631 0.77672 0.84711 0.0
C2193 C 0.25314 0.82347 0.88625 0.0
N2194 N 0.16653 0.79228 0.88101 0.0
N2195 N 0.29396 0.79826 0.8652 0.0
H2196 H 0.26908 0.86747 0.91614 0.0
H2197 H 0.29779 0.85493 0.89334 0.0
H2198 H 0.30162 0.78091 0.8503 0.0
H2199 H 0.31172 0.81139 0.88272 0.0
H2200 H 0.14866 0.77364 0.87024 0.0
H2201 H 0.15938 0.80694 0.89956 0.0
H2202 H 0.15967 0.75661 0.82424 0.0
H2203 H 0.1902 0.74156 0.80647 0.0
C2204 C 0.92877 0.53135 0.66944 0.0
C2205 C 0.92526 0.5131 0.6958 0.0
C2206 C 0.96301 0.48184 0.67587 0.0
C2207 C 0.96515 0.4987 0.64827 0.0
N2208 N 0.94117 0.53198 0.61339 0.0
N2209 N 0.92961 0.46439 0.71714 0.0
C2210 C 0.94559 0.52146 0.64339 0.0
C2211 C 0.93961 0.48633 0.69702 0.0
N2212 N 0.91607 0.55798 0.66922 0.0
N2213 N 0.98356 0.46203 0.68225 0.0
H2214 H 0.91016 0.46582 0.73028 0.0
H2215 H 0.93763 0.44315 0.71724 0.0
H2216 H 0.00154 0.45858 0.6675 0.0
H2217 H 0.98462 0.45143 0.70386 0.0
H2218 H 0.92082 0.5739 0.65216 0.0
H2219 H 0.90241 0.56515 0.68737 0.0
H2220 H 0.92477 0.54623 0.60803 0.0
H2221 H 0.95113 0.52396 0.59269 0.0
C2222 C 0.24806 0.22429 0.41199 0.0
C2223 C 0.26487 0.19925 0.41543 0.0
C2224 C 0.2955 0.21502 0.36999 0.0
C2225 C 0.27709 0.2385 0.36562 0.0
N2226 N 0.24915 0.2751 0.39276 0.0
N2227 N 0.3104 0.17605 0.40375 0.0
C2228 C 0.25757 0.24627 0.38992 0.0
C2229 C 0.29045 0.19614 0.39618 0.0
N2230 N 0.22175 0.22613 0.42804 0.0
N2231 N 0.31843 0.21173 0.34958 0.0
H2232 H 0.30834 0.16319 0.42377 0.0
H2233 H 0.33047 0.1737 0.39196 0.0
H2234 H 0.32482 0.22804 0.33322 0.0
H2235 H 0.33079 0.19321 0.34849 0.0
H2236 H 0.20704 0.24223 0.42356 0.0
H2237 H 0.21257 0.20964 0.44309 0.0
H2238 H 0.23678 0.28291 0.41176 0.0
H2239 H 0.25844 0.29261 0.37887 0.0
C2240 C 0.35959 0.54977 0.54917 0.0
C2241 C 0.34172 0.56145 0.52401 0.0
C2242 C 0.37323 0.541 0.48267 0.0
C2243 C 0.39197 0.53147 0.50834 0.0
N2244 N 0.39595 0.51493 0.56211 0.0
N2245 N 0.32558 0.56085 0.46597 0.0
C2246 C 0.38222 0.53145 0.5402 0.0
C2247 C 0.34662 0.55474 0.49034 0.0
N2248 N 0.3569 0.55825 0.58172 0.0
N2249 N 0.38153 0.5375 0.45136 0.0
H2250 H 0.30552 0.57027 0.47085 0.0
H2251 H 0.32651 0.55448 0.44097 0.0
H2252 H 0.39921 0.5249 0.44536 0.0
H2253 H 0.37147 0.54717 0.43179 0.0
H2254 H 0.37142 0.55248 0.60092 0.0
H2255 H 0.34243 0.5737 0.58978 0.0
H2256 H 0.38827 0.51185 0.58514 0.0
H2257 H 0.41296 0.50167 0.55553 0.0
C2258 C 0.88289 0.96683 0.57263 0.0
C2259 C 0.86441 0.94244 0.54967 0.0
C2260 C 0.90646 0.94662 0.51341 0.0
C2261 C 0.92604 0.97018 0.5369 0.0
N2262 N 0.93596 0.99523 0.59336 0.0
N2263 N 0.86298 0.90187 0.50478 0.0
C2264 C 0.91523 0.97814 0.56798 0.0
C2265 C 0.87792 0.92971 0.52248 0.0
N2266 N 0.86939 0.97947 0.59847 0.0
N2267 N 0.91349 0.94193 0.48161 0.0
H2268 H 0.8422 0.88884 0.51148 0.0
H2269 H 0.87318 0.8902 0.48622 0.0
H2270 H 0.93224 0.95584 0.47239 0.0
H2271 H 0.8982 0.92688 0.46317 0.0
H2272 H 0.88057 -0.00031 0.61396 0.0
H2273 H 0.84626 0.97037 0.60327 0.0
H2274 H 0.92978 -0.00062 0.6172 0.0
H2275 H 0.9602 0.00234 0.59157 0.0
C2276 C 0.82581 0.10273 0.23324 0.0
C2277 C 0.81888 0.07676 0.25124 0.0
C2278 C 0.78199 0.10309 0.28086 0.0
C2279 C 0.79341 0.1311 0.26724 0.0
N2280 N 0.82978 0.15875 0.23321 0.0
N2281 N 0.79158 0.05211 0.29345 0.0
C2282 C 0.81588 0.13121 0.2437 0.0
C2283 C 0.79693 0.07666 0.27512 0.0
N2284 N 0.84182 0.10009 0.20602 0.0
N2285 N 0.75664 0.10175 0.29898 0.0
H2286 H 0.80178 0.03217 0.28961 0.0
H2287 H 0.77879 0.05242 0.31387 0.0
H2288 H 0.74493 0.12063 0.30311 0.0
H2289 H 0.74535 0.08116 0.30714 0.0
H2290 H 0.84461 0.11712 0.18988 0.0
H2291 H 0.84941 0.07944 0.19769 0.0
H2292 H 0.84883 0.16039 0.219 0.0
H2293 H 0.82464 0.18065 0.24098 0.0
C2294 C 0.65575 0.11423 0.02264 0.0
C2295 C 0.67959 0.1068 0.04488 0.0
C2296 C 0.64377 0.05963 0.05511 0.0
C2297 C 0.61905 0.06763 0.03424 0.0
N2298 N 0.59915 0.10866 0.00769 0.0
N2299 N 0.692 0.08025 0.09149 0.0
C2300 C 0.62423 0.09681 0.02078 0.0
C2301 C 0.67216 0.08202 0.06418 0.0
N2302 N 0.66325 0.13702 0.00259 0.0
N2303 N 0.64132 0.03018 0.06462 0.0
H2304 H 0.7117 0.09798 0.09994 0.0
H2305 H 0.68645 0.06376 0.10782 0.0
H2306 H 0.62226 0.01182 0.0562 0.0
H2307 H 0.66012 0.02297 0.07769 0.0
H2308 H 0.64737 0.14075 0.98334 0.0
H2309 H 0.68601 0.15071 0.00376 0.0
H2310 H 0.60178 0.13096 -6e-05 0.0
H2311 H 0.57546 0.09809 0.00837 0.0
C2312 C 0.18672 0.39105 0.25489 0.0
C2313 C 0.19392 0.42247 0.27073 0.0
C2314 C 0.23973 0.41101 0.30432 0.0
C2315 C 0.23257 0.37968 0.28843 0.0
N2316 N 0.20219 0.3402 0.24602 0.0
N2317 N 0.22358 0.46174 0.31343 0.0
C2318 C 0.20659 0.36964 0.26329 0.0
C2319 C 0.21959 0.4324 0.29612 0.0
N2320 N 0.16069 0.38165 0.23187 0.0
N2321 N 0.26622 0.42035 0.32667 0.0
H2322 H 0.2091 0.47786 0.30826 0.0
H2323 H 0.23973 0.46961 0.33432 0.0
H2324 H 0.28065 0.40487 0.33409 0.0
H2325 H 0.27503 0.44356 0.33674 0.0
H2326 H 0.15115 0.35829 0.22292 0.0
H2327 H 0.14738 0.39717 0.22241 0.0
H2328 H 0.1864 0.33254 0.22484 0.0
H2329 H 0.21573 0.32345 0.25149 0.0
C2330 C 0.16744 0.43958 0.01219 0.0
C2331 C 0.18011 0.43804 0.045 0.0
C2332 C 0.14324 0.47022 0.06615 0.0
C2333 C 0.12742 0.46745 0.03387 0.0
N2334 N 0.12275 0.44794 0.97603 0.0
N2335 N 0.17966 0.45044 0.10361 0.0
C2336 C 0.13931 0.45214 0.00671 0.0
C2337 C 0.1682 0.45334 0.07213 0.0
N2338 N 0.18265 0.42955 0.98634 0.0
N2339 N 0.13439 0.48927 0.09094 0.0
H2340 H 0.19822 0.43857 0.10893 0.0
H2341 H 0.16945 0.45789 0.1244 0.0
H2342 H 0.11636 0.50213 0.08701 0.0
H2343 H 0.14667 0.49465 0.11447 0.0
H2344 H 0.17651 0.43299 0.96205 0.0
H2345 H 0.20333 0.42026 0.9895 0.0
H2346 H 0.12796 0.4335 0.95616 0.0
H2347 H 0.10243 0.45734 0.97082 0.0
C2348 C 0.81293 0.87611 0.21177 0.0
C2349 C 0.83665 0.89447 0.23562 0.0
C2350 C 0.82056 0.85943 0.27642 0.0
C2351 C 0.79997 0.83843 0.25149 0.0
N2352 N 0.78118 0.82437 0.19345 0.0
N2353 N 0.86731 0.90045 0.28896 0.0
C2354 C 0.79705 0.84618 0.21859 0.0
C2355 C 0.84175 0.88518 0.26744 0.0
N2356 N 0.80575 0.88713 0.18259 0.0
N2357 N 0.81915 0.85553 0.30891 0.0
H2358 H 0.88349 0.91968 0.28362 0.0
H2359 H 0.8741 0.89225 0.31098 0.0
H2360 H 0.80304 0.83773 0.31678 0.0
H2361 H 0.8314 0.87198 0.32816 0.0
H2362 H 0.78636 0.87628 0.16568 0.0
H2363 H 0.81769 0.90854 0.17658 0.0
H2364 H 0.78124 0.82781 0.1687 0.0
H2365 H 0.7706 0.8016 0.19677 0.0
C2366 C 0.68264 0.09272 0.72666 0.0
C2367 C 0.66579 0.07955 0.75168 0.0
C2368 C 0.69685 0.12091 0.79302 0.0
C2369 C 0.70929 0.13705 0.76733 0.0
N2370 N 0.72828 0.12911 0.71396 0.0
N2371 N 0.65554 0.08144 0.80869 0.0
C2372 C 0.70635 0.12046 0.73514 0.0
C2373 C 0.67283 0.0935 0.78497 0.0
N2374 N 0.67568 0.07899 0.69473 0.0
N2375 N 0.70993 0.1303 0.82488 0.0
H2376 H 0.6375 0.06154 0.80365 0.0
H2377 H 0.65718 0.09265 0.83266 0.0
H2378 H 0.73033 0.14775 0.83094 0.0
H2379 H 0.70365 0.11797 0.8445 0.0
H2380 H 0.68385 0.08971 0.67475 0.0
H2381 H 0.66015 0.0575 0.68805 0.0
H2382 H 0.7285 0.11685 0.69082 0.0
H2383 H 0.74933 0.14529 0.72151 0.0
loop_
_geom_bond_atom_site_label_1
_geom_bond_atom_site_label_2
_geom_bond_distance
_geom_bond_site_symmetry_2
_ccdc_geom_bond_type
C0 O1 1.306 . S
C0 O3 1.160 . S
O1 C0 1.306 . S
O1 Cd2 2.228 1_655 S
Cd2 O1 2.228 1_455 S
Cd2 O6 2.273 . S
Cd2 O10 2.277 . S
O3 C0 1.160 . S
O3 Cd4 2.203 1_655 S
Cd4 O3 2.203 1_455 S
Cd4 O6 2.411 . S
Cd4 O7 2.333 . S
Cd4 O8 2.352 . S
Cd4 O12 2.277 . S
Cd4 O13 2.356 . S
C5 O10 1.209 . S
C5 O12 1.226 . S
O6 Cd2 2.273 . S
O6 Cd4 2.411 . S
O6 C9 1.320 . S
O7 Cd4 2.333 . S
O7 C9 1.214 . S
O8 Cd4 2.352 . S
O8 C11 1.258 . S
C9 O6 1.320 . S
C9 O7 1.214 . S
O10 Cd2 2.277 . S
O10 C5 1.209 . S
C11 O8 1.258 . S
C11 O13 1.282 . S
O12 Cd4 2.277 . S
O12 C5 1.226 . S
O13 Cd4 2.356 . S
O13 C11 1.282 . S
C14 O15 1.306 . S
C14 O17 1.160 . S
O15 C14 1.306 . S
O15 Cd16 2.228 1_655 S
Cd16 O15 2.228 1_455 S
Cd16 O20 2.273 . S
Cd16 O24 2.277 . S
O17 C14 1.160 . S
O17 Cd18 2.203 1_655 S
Cd18 O17 2.203 1_455 S
Cd18 O20 2.411 . S
Cd18 O21 2.333 . S
Cd18 O22 2.352 . S
Cd18 O26 2.277 . S
Cd18 O27 2.356 . S
C19 O24 1.209 . S
C19 O26 1.226 . S
O20 Cd16 2.273 . S
O20 Cd18 2.411 . S
O20 C23 1.320 . S
O21 Cd18 2.333 . S
O21 C23 1.214 . S
O22 Cd18 2.352 . S
O22 C25 1.258 . S
C23 O20 1.320 . S
C23 O21 1.214 . S
O24 Cd16 2.277 . S
O24 C19 1.209 . S
C25 O22 1.258 . S
C25 O27 1.282 . S
O26 Cd18 2.277 . S
O26 C19 1.226 . S
O27 Cd18 2.356 . S
O27 C25 1.282 . S
C28 O29 1.306 . S
C28 O31 1.160 . S
O29 C28 1.306 . S
O29 Cd30 2.228 . S
Cd30 O29 2.228 . S
Cd30 O34 2.273 . S
Cd30 O38 2.277 . S
O31 C28 1.160 . S
O31 Cd32 2.203 . S
Cd32 O31 2.203 . S
Cd32 O34 2.411 . S
Cd32 O35 2.333 . S
Cd32 O36 2.352 . S
Cd32 O40 2.277 . S
Cd32 O41 2.356 . S
C33 O38 1.209 . S
C33 O40 1.226 . S
O34 Cd30 2.273 . S
O34 Cd32 2.411 . S
O34 C37 1.320 . S
O35 Cd32 2.333 . S
O35 C37 1.214 . S
O36 Cd32 2.352 . S
O36 C39 1.258 . S
C37 O34 1.320 . S
C37 O35 1.214 . S
O38 Cd30 2.277 . S
O38 C33 1.209 . S
C39 O36 1.258 . S
C39 O41 1.282 . S
O40 Cd32 2.277 . S
O40 C33 1.226 . S
O41 Cd32 2.356 . S
O41 C39 1.282 . S
C42 O43 1.306 . S
C42 O45 1.160 . S
O43 C42 1.306 . S
O43 Cd44 2.228 . S
Cd44 O43 2.228 . S
Cd44 O48 2.273 . S
Cd44 O52 2.277 . S
O45 C42 1.160 . S
O45 Cd46 2.203 . S
Cd46 O45 2.203 . S
Cd46 O48 2.411 . S
Cd46 O49 2.333 . S
Cd46 O50 2.352 . S
Cd46 O54 2.277 . S
Cd46 O55 2.356 . S
C47 O52 1.209 . S
C47 O54 1.226 . S
O48 Cd44 2.273 . S
O48 Cd46 2.411 . S
O48 C51 1.320 . S
O49 Cd46 2.333 . S
O49 C51 1.214 . S
O50 Cd46 2.352 . S
O50 C53 1.258 . S
C51 O48 1.320 . S
C51 O49 1.214 . S
O52 Cd44 2.277 . S
O52 C47 1.209 . S
C53 O50 1.258 . S
C53 O55 1.282 . S
O54 Cd46 2.277 . S
O54 C47 1.226 . S
O55 Cd46 2.356 . S
O55 C53 1.282 . S
C56 O57 1.306 1_655 S
C56 O59 1.160 . S
O57 C56 1.306 1_455 S
O57 Cd58 2.228 . S
Cd58 O57 2.228 . S
Cd58 O62 2.273 . S
Cd58 O66 2.277 . S
O59 C56 1.160 . S
O59 Cd60 2.203 1_655 S
Cd60 O59 2.203 1_455 S
Cd60 O62 2.411 . S
Cd60 O63 2.333 . S
Cd60 O64 2.352 . S
Cd60 O68 2.277 . S
Cd60 O69 2.356 . S
C61 O66 1.209 . S
C61 O68 1.226 . S
O62 Cd58 2.273 . S
O62 Cd60 2.411 . S
O62 C65 1.320 . S
O63 Cd60 2.333 . S
O63 C65 1.214 . S
O64 Cd60 2.352 . S
O64 C67 1.258 . S
C65 O62 1.320 . S
C65 O63 1.214 . S
O66 Cd58 2.277 . S
O66 C61 1.209 . S
C67 O64 1.258 . S
C67 O69 1.282 . S
O68 Cd60 2.277 . S
O68 C61 1.226 . S
O69 Cd60 2.356 . S
O69 C67 1.282 . S
C70 O71 1.306 . S
C70 O73 1.160 . S
O71 C70 1.306 . S
O71 Cd72 2.228 . S
Cd72 O71 2.228 . S
Cd72 O76 2.273 . S
Cd72 O80 2.277 . S
O73 C70 1.160 . S
O73 Cd74 2.203 . S
Cd74 O73 2.203 . S
Cd74 O76 2.411 . S
Cd74 O77 2.333 . S
Cd74 O78 2.352 . S
Cd74 O82 2.277 . S
Cd74 O83 2.356 . S
C75 O80 1.209 . S
C75 O82 1.226 . S
O76 Cd72 2.273 . S
O76 Cd74 2.411 . S
O76 C79 1.320 . S
O77 Cd74 2.333 . S
O77 C79 1.214 . S
O78 Cd74 2.352 . S
O78 C81 1.258 . S
C79 O76 1.320 . S
C79 O77 1.214 . S
O80 Cd72 2.277 . S
O80 C75 1.209 . S
C81 O78 1.258 . S
C81 O83 1.282 . S
O82 Cd74 2.277 . S
O82 C75 1.226 . S
O83 Cd74 2.356 . S
O83 C81 1.282 . S
C84 O85 1.306 . S
C84 O87 1.160 . S
O85 C84 1.306 . S
O85 Cd86 2.228 . S
Cd86 O85 2.228 . S
Cd86 O90 2.273 . S
Cd86 O94 2.277 . S
O87 C84 1.160 . S
O87 Cd88 2.203 . S
Cd88 O87 2.203 . S
Cd88 O90 2.411 . S
Cd88 O91 2.333 . S
Cd88 O92 2.352 . S
Cd88 O96 2.277 . S
Cd88 O97 2.356 . S
C89 O94 1.209 . S
C89 O96 1.226 . S
O90 Cd86 2.273 . S
O90 Cd88 2.411 . S
O90 C93 1.320 . S
O91 Cd88 2.333 . S
O91 C93 1.214 . S
O92 Cd88 2.352 . S
O92 C95 1.258 . S
C93 O90 1.320 . S
C93 O91 1.214 . S
O94 Cd86 2.277 . S
O94 C89 1.209 . S
C95 O92 1.258 . S
C95 O97 1.282 . S
O96 Cd88 2.277 . S
O96 C89 1.226 . S
O97 Cd88 2.356 . S
O97 C95 1.282 . S
C98 O99 1.306 . S
C98 O101 1.160 . S
O99 C98 1.306 . S
O99 Cd100 2.228 1_655 S
Cd100 O99 2.228 1_455 S
Cd100 O104 2.273 . S
Cd100 O108 2.277 . S
O101 C98 1.160 . S
O101 Cd102 2.203 1_655 S
Cd102 O101 2.203 1_455 S
Cd102 O104 2.411 . S
Cd102 O105 2.333 . S
Cd102 O106 2.352 1_455 S
Cd102 O110 2.277 . S
Cd102 O111 2.356 . S
C103 O108 1.209 . S
C103 O110 1.226 . S
O104 Cd100 2.273 . S
O104 Cd102 2.411 . S
O104 C107 1.320 . S
O105 Cd102 2.333 . S
O105 C107 1.214 . S
O106 Cd102 2.352 1_655 S
O106 C109 1.258 . S
C107 O104 1.320 . S
C107 O105 1.214 . S
O108 Cd100 2.277 . S
O108 C103 1.209 . S
C109 O106 1.258 . S
C109 O111 1.282 1_655 S
O110 Cd102 2.277 . S
O110 C103 1.226 . S
O111 Cd102 2.356 . S
O111 C109 1.282 1_455 S
C112 O113 1.306 . S
C112 O115 1.160 . S
O113 C112 1.306 . S
O113 Cd114 2.228 1_545 S
Cd114 O113 2.228 1_565 S
Cd114 O118 2.273 1_565 S
Cd114 O122 2.277 . S
O115 C112 1.160 . S
O115 Cd116 2.203 . S
Cd116 O115 2.203 . S
Cd116 O118 2.411 . S
Cd116 O119 2.333 . S
Cd116 O120 2.352 . S
Cd116 O124 2.277 1_545 S
Cd116 O125 2.356 . S
C117 O122 1.209 . S
C117 O124 1.226 . S
O118 Cd114 2.273 1_545 S
O118 Cd116 2.411 . S
O118 C121 1.320 . S
O119 Cd116 2.333 . S
O119 C121 1.214 . S
O120 Cd116 2.352 . S
O120 C123 1.258 . S
C121 O118 1.320 . S
C121 O119 1.214 . S
O122 Cd114 2.277 . S
O122 C117 1.209 . S
C123 O120 1.258 . S
C123 O125 1.282 . S
O124 Cd116 2.277 1_565 S
O124 C117 1.226 . S
O125 Cd116 2.356 . S
O125 C123 1.282 . S
C126 O127 1.306 . S
C126 O129 1.160 . S
O127 C126 1.306 . S
O127 Cd128 2.228 . S
Cd128 O127 2.228 . S
Cd128 O132 2.273 . S
Cd128 O136 2.277 . S
O129 C126 1.160 . S
O129 Cd130 2.203 . S
Cd130 O129 2.203 . S
Cd130 O132 2.411 . S
Cd130 O133 2.333 . S
Cd130 O134 2.352 . S
Cd130 O138 2.277 . S
Cd130 O139 2.356 . S
C131 O136 1.209 . S
C131 O138 1.226 . S
O132 Cd128 2.273 . S
O132 Cd130 2.411 . S
O132 C135 1.320 . S
O133 Cd130 2.333 . S
O133 C135 1.214 . S
O134 Cd130 2.352 . S
O134 C137 1.258 . S
C135 O132 1.320 . S
C135 O133 1.214 . S
O136 Cd128 2.277 . S
O136 C131 1.209 . S
C137 O134 1.258 . S
C137 O139 1.282 . S
O138 Cd130 2.277 . S
O138 C131 1.226 . S
O139 Cd130 2.356 . S
O139 C137 1.282 . S
C140 O141 1.306 . S
C140 O143 1.160 . S
O141 C140 1.306 . S
O141 Cd142 2.228 . S
Cd142 O141 2.228 . S
Cd142 O146 2.273 . S
Cd142 O150 2.277 . S
O143 C140 1.160 . S
O143 Cd144 2.203 . S
Cd144 O143 2.203 . S
Cd144 O146 2.411 . S
Cd144 O147 2.333 . S
Cd144 O148 2.352 1_545 S
Cd144 O152 2.277 . S
Cd144 O153 2.356 1_545 S
C145 O150 1.209 . S
C145 O152 1.226 . S
O146 Cd142 2.273 . S
O146 Cd144 2.411 . S
O146 C149 1.320 . S
O147 Cd144 2.333 . S
O147 C149 1.214 . S
O148 Cd144 2.352 1_565 S
O148 C151 1.258 . S
C149 O146 1.320 . S
C149 O147 1.214 . S
O150 Cd142 2.277 . S
O150 C145 1.209 . S
C151 O148 1.258 . S
C151 O153 1.282 . S
O152 Cd144 2.277 . S
O152 C145 1.226 . S
O153 Cd144 2.356 1_565 S
O153 C151 1.282 . S
C154 O155 1.306 . S
C154 O157 1.160 . S
O155 C154 1.306 . S
O155 Cd156 2.228 1_554 S
Cd156 O155 2.228 1_556 S
Cd156 O160 2.273 1_556 S
Cd156 O164 2.277 . S
O157 C154 1.160 . S
O157 Cd158 2.203 . S
Cd158 O157 2.203 . S
Cd158 O160 2.411 . S
Cd158 O161 2.333 . S
Cd158 O162 2.352 . S
Cd158 O166 2.277 1_554 S
Cd158 O167 2.356 . S
C159 O164 1.209 . S
C159 O166 1.226 . S
O160 Cd156 2.273 1_554 S
O160 Cd158 2.411 . S
O160 C163 1.320 . S
O161 Cd158 2.333 . S
O161 C163 1.214 . S
O162 Cd158 2.352 . S
O162 C165 1.258 . S
C163 O160 1.320 . S
C163 O161 1.214 . S
O164 Cd156 2.277 . S
O164 C159 1.209 . S
C165 O162 1.258 . S
C165 O167 1.282 . S
O166 Cd158 2.277 1_556 S
O166 C159 1.226 . S
O167 Cd158 2.356 . S
O167 C165 1.282 . S
C168 O169 1.306 . S
C168 O171 1.160 . S
O169 C168 1.306 . S
O169 Cd170 2.228 . S
Cd170 O169 2.228 . S
Cd170 O174 2.273 . S
Cd170 O178 2.277 1_554 S
O171 C168 1.160 . S
O171 Cd172 2.203 . S
Cd172 O171 2.203 . S
Cd172 O174 2.411 . S
Cd172 O175 2.333 . S
Cd172 O176 2.352 . S
Cd172 O180 2.277 . S
Cd172 O181 2.356 . S
C173 O178 1.209 . S
C173 O180 1.226 1_556 S
O174 Cd170 2.273 . S
O174 Cd172 2.411 . S
O174 C177 1.320 . S
O175 Cd172 2.333 . S
O175 C177 1.214 . S
O176 Cd172 2.352 . S
O176 C179 1.258 . S
C177 O174 1.320 . S
C177 O175 1.214 . S
O178 Cd170 2.277 1_556 S
O178 C173 1.209 . S
C179 O176 1.258 . S
C179 O181 1.282 . S
O180 Cd172 2.277 . S
O180 C173 1.226 1_554 S
O181 Cd172 2.356 . S
O181 C179 1.282 . S
C182 O183 1.306 . S
C182 O185 1.160 . S
O183 C182 1.306 . S
O183 Cd184 2.228 . S
Cd184 O183 2.228 . S
Cd184 O188 2.273 . S
Cd184 O192 2.277 . S
O185 C182 1.160 . S
O185 Cd186 2.203 . S
Cd186 O185 2.203 . S
Cd186 O188 2.411 . S
Cd186 O189 2.333 . S
Cd186 O190 2.352 1_554 S
Cd186 O194 2.277 . S
Cd186 O195 2.377 . S
C187 O192 1.209 . S
C187 O194 1.226 . S
O188 Cd184 2.273 . S
O188 Cd186 2.411 . S
O188 C191 1.320 . S
O189 Cd186 2.333 . S
O189 C191 1.214 . S
O190 Cd186 2.352 1_556 S
O190 C193 1.258 . S
C191 O188 1.320 . S
C191 O189 1.214 . S
O192 Cd184 2.277 . S
O192 C187 1.209 . S
C193 O190 1.258 . S
C193 O195 1.261 1_556 S
O194 Cd186 2.277 . S
O194 C187 1.226 . S
O195 Cd186 2.377 . S
O195 C193 1.261 1_554 S
C196 O197 1.306 . S
C196 O199 1.160 . S
O197 C196 1.306 . S
O197 Cd198 2.228 . S
Cd198 O197 2.228 . S
Cd198 O202 2.273 . S
Cd198 O206 2.277 . S
O199 C196 1.160 . S
O199 Cd200 2.203 . S
Cd200 O199 2.203 . S
Cd200 O202 2.411 . S
Cd200 O203 2.333 . S
Cd200 O204 2.352 . S
Cd200 O208 2.277 . S
Cd200 O209 2.356 . S
C201 O206 1.209 . S
C201 O208 1.226 . S
O202 Cd198 2.273 . S
O202 Cd200 2.411 . S
O202 C205 1.320 . S
O203 Cd200 2.333 . S
O203 C205 1.214 . S
O204 Cd200 2.352 . S
O204 C207 1.258 . S
C205 O202 1.320 . S
C205 O203 1.214 . S
O206 Cd198 2.277 . S
O206 C201 1.209 . S
C207 O204 1.258 . S
C207 O209 1.282 . S
O208 Cd200 2.277 . S
O208 C201 1.226 . S
O209 Cd200 2.356 . S
O209 C207 1.282 . S
C210 O211 1.306 . S
C210 O213 1.160 . S
O211 C210 1.306 . S
O211 Cd212 2.228 . S
Cd212 O211 2.228 . S
Cd212 O216 2.273 . S
Cd212 O220 2.277 . S
O213 C210 1.160 . S
O213 Cd214 2.203 . S
Cd214 O213 2.203 . S
Cd214 O216 2.411 . S
Cd214 O217 2.333 . S
Cd214 O218 2.352 . S
Cd214 O222 2.277 . S
Cd214 O223 2.356 . S
C215 O220 1.209 . S
C215 O222 1.226 . S
O216 Cd212 2.273 . S
O216 Cd214 2.411 . S
O216 C219 1.320 . S
O217 Cd214 2.333 . S
O217 C219 1.214 . S
O218 Cd214 2.352 . S
O218 C221 1.258 . S
C219 O216 1.320 . S
C219 O217 1.214 . S
O220 Cd212 2.277 . S
O220 C215 1.209 . S
C221 O218 1.258 . S
C221 O223 1.282 . S
O222 Cd214 2.277 . S
O222 C215 1.226 . S
O223 Cd214 2.356 . S
O223 C221 1.282 . S
C224 O225 1.306 1_545 S
C224 O227 1.160 . S
O225 C224 1.306 1_565 S
O225 Cd226 2.228 . S
Cd226 O225 2.228 . S
Cd226 O230 2.273 1_565 S
Cd226 O234 2.277 . S
O227 C224 1.160 . S
O227 Cd228 2.203 . S
Cd228 O227 2.203 . S
Cd228 O230 2.411 . S
Cd228 O231 2.333 . S
Cd228 O232 2.352 . S
Cd228 O236 2.277 1_545 S
Cd228 O237 2.356 . S
C229 O234 1.209 . S
C229 O236 1.226 . S
O230 Cd226 2.273 1_545 S
O230 Cd228 2.411 . S
O230 C233 1.320 . S
O231 Cd228 2.333 . S
O231 C233 1.214 . S
O232 Cd228 2.352 . S
O232 C235 1.258 . S
C233 O230 1.320 . S
C233 O231 1.214 . S
O234 Cd226 2.277 . S
O234 C229 1.209 . S
C235 O232 1.258 . S
C235 O237 1.282 . S
O236 Cd228 2.277 1_565 S
O236 C229 1.226 . S
O237 Cd228 2.356 . S
O237 C235 1.282 . S
C238 O239 1.306 . S
C238 O241 1.160 . S
O239 C238 1.306 . S
O239 Cd240 2.228 . S
Cd240 O239 2.228 . S
Cd240 O244 2.273 . S
Cd240 O248 2.277 . S
O241 C238 1.160 . S
O241 Cd242 2.203 . S
Cd242 O241 2.203 . S
Cd242 O244 2.411 . S
Cd242 O245 2.333 . S
Cd242 O246 2.352 . S
Cd242 O250 2.277 . S
Cd242 O251 2.356 . S
C243 O248 1.209 . S
C243 O250 1.226 . S
O244 Cd240 2.273 . S
O244 Cd242 2.411 . S
O244 C247 1.320 . S
O245 Cd242 2.333 . S
O245 C247 1.214 . S
O246 Cd242 2.352 . S
O246 C249 1.258 . S
C247 O244 1.320 . S
C247 O245 1.214 . S
O248 Cd240 2.277 . S
O248 C243 1.209 . S
C249 O246 1.258 . S
C249 O251 1.282 . S
O250 Cd242 2.277 . S
O250 C243 1.226 . S
O251 Cd242 2.356 . S
O251 C249 1.282 . S
C252 O253 1.306 . S
C252 O255 1.160 . S
O253 C252 1.306 . S
O253 Cd254 2.228 . S
Cd254 O253 2.228 . S
Cd254 O258 2.273 . S
Cd254 O262 2.277 . S
O255 C252 1.160 . S
O255 Cd256 2.203 . S
Cd256 O255 2.203 . S
Cd256 O258 2.411 . S
Cd256 O259 2.333 . S
Cd256 O260 2.352 . S
Cd256 O264 2.277 . S
Cd256 O265 2.356 . S
C257 O262 1.209 . S
C257 O264 1.226 . S
O258 Cd254 2.273 . S
O258 Cd256 2.411 . S
O258 C261 1.320 . S
O259 Cd256 2.333 . S
O259 C261 1.214 . S
O260 Cd256 2.352 . S
O260 C263 1.258 . S
C261 O258 1.320 . S
C261 O259 1.214 . S
O262 Cd254 2.277 . S
O262 C257 1.209 . S
C263 O260 1.258 . S
C263 O265 1.282 . S
O264 Cd256 2.277 . S
O264 C257 1.226 . S
O265 Cd256 2.356 . S
O265 C263 1.282 . S
C266 O267 1.306 . S
C266 O269 1.152 1_545 S
O267 C266 1.306 . S
O267 Cd268 2.228 . S
Cd268 O267 2.228 . S
Cd268 O272 2.273 1_545 S
Cd268 O276 2.277 . S
O269 C266 1.152 1_565 S
O269 Cd270 2.203 . S
Cd270 O269 2.203 . S
Cd270 O272 2.411 . S
Cd270 O273 2.333 . S
Cd270 O274 2.352 . S
Cd270 O278 2.277 1_565 S
Cd270 O279 2.356 . S
C271 O276 1.209 . S
C271 O278 1.226 . S
O272 Cd268 2.273 1_565 S
O272 Cd270 2.411 . S
O272 C275 1.320 . S
O273 Cd270 2.333 . S
O273 C275 1.214 . S
O274 Cd270 2.352 . S
O274 C277 1.258 . S
C275 O272 1.320 . S
C275 O273 1.214 . S
O276 Cd268 2.277 . S
O276 C271 1.209 . S
C277 O274 1.258 . S
C277 O279 1.282 . S
O278 Cd270 2.277 1_545 S
O278 C271 1.226 . S
O279 Cd270 2.356 . S
O279 C277 1.282 . S
C280 O281 1.306 . S
C280 O283 1.148 1_554 S
O281 C280 1.306 . S
O281 Cd282 2.228 . S
Cd282 O281 2.228 . S
Cd282 O286 2.273 1_554 S
Cd282 O290 2.277 . S
O283 C280 1.148 1_556 S
O283 Cd284 2.204 . S
Cd284 O283 2.204 . S
Cd284 O286 2.411 . S
Cd284 O287 2.333 . S
Cd284 O288 2.352 . S
Cd284 O292 2.277 1_556 S
Cd284 O293 2.356 . S
C285 O290 1.209 . S
C285 O292 1.226 . S
O286 Cd282 2.273 1_556 S
O286 Cd284 2.411 . S
O286 C289 1.320 . S
O287 Cd284 2.333 . S
O287 C289 1.214 . S
O288 Cd284 2.352 . S
O288 C291 1.258 . S
C289 O286 1.320 . S
C289 O287 1.214 . S
O290 Cd282 2.277 . S
O290 C285 1.209 . S
C291 O288 1.258 . S
C291 O293 1.282 . S
O292 Cd284 2.277 1_554 S
O292 C285 1.226 . S
O293 Cd284 2.356 . S
O293 C291 1.282 . S
C294 O295 1.306 . S
C294 O297 1.160 . S
O295 C294 1.306 . S
O295 Cd296 2.228 . S
Cd296 O295 2.228 . S
Cd296 O300 2.273 . S
Cd296 O304 2.277 . S
O297 C294 1.160 . S
O297 Cd298 2.203 . S
Cd298 O297 2.203 . S
Cd298 O300 2.411 . S
Cd298 O301 2.333 . S
Cd298 O302 2.352 . S
Cd298 O306 2.277 . S
Cd298 O307 2.356 . S
C299 O304 1.209 . S
C299 O306 1.226 . S
O300 Cd296 2.273 . S
O300 Cd298 2.411 . S
O300 C303 1.320 . S
O301 Cd298 2.333 . S
O301 C303 1.214 . S
O302 Cd298 2.352 . S
O302 C305 1.258 . S
C303 O300 1.320 . S
C303 O301 1.214 . S
O304 Cd296 2.277 . S
O304 C299 1.209 . S
C305 O302 1.258 . S
C305 O307 1.282 . S
O306 Cd298 2.277 . S
O306 C299 1.226 . S
O307 Cd298 2.356 . S
O307 C305 1.282 . S
C308 O309 1.306 . S
C308 O311 1.160 . S
O309 C308 1.306 . S
O309 Cd310 2.228 . S
Cd310 O309 2.228 . S
Cd310 O314 2.273 . S
Cd310 O318 2.277 . S
O311 C308 1.160 . S
O311 Cd312 2.203 . S
Cd312 O311 2.203 . S
Cd312 O314 2.411 . S
Cd312 O315 2.333 . S
Cd312 O316 2.352 . S
Cd312 O320 2.277 . S
Cd312 O321 2.356 . S
C313 O318 1.209 . S
C313 O320 1.226 . S
O314 Cd310 2.273 . S
O314 Cd312 2.411 . S
O314 C317 1.320 . S
O315 Cd312 2.333 . S
O315 C317 1.214 . S
O316 Cd312 2.352 . S
O316 C319 1.258 . S
C317 O314 1.320 . S
C317 O315 1.214 . S
O318 Cd310 2.277 . S
O318 C313 1.209 . S
C319 O316 1.258 . S
C319 O321 1.282 . S
O320 Cd312 2.277 . S
O320 C313 1.226 . S
O321 Cd312 2.356 . S
O321 C319 1.282 . S
C322 O323 1.306 . S
C322 O325 1.160 . S
O323 C322 1.306 . S
O323 Cd324 2.228 . S
Cd324 O323 2.228 . S
Cd324 O328 2.273 . S
Cd324 O332 2.277 . S
O325 C322 1.160 . S
O325 Cd326 2.203 . S
Cd326 O325 2.203 . S
Cd326 O328 2.411 . S
Cd326 O329 2.333 . S
Cd326 O330 2.352 . S
Cd326 O334 2.277 . S
Cd326 O335 2.356 . S
C327 O332 1.209 . S
C327 O334 1.226 . S
O328 Cd324 2.273 . S
O328 Cd326 2.411 . S
O328 C331 1.320 . S
O329 Cd326 2.333 . S
O329 C331 1.214 . S
O330 Cd326 2.352 . S
O330 C333 1.258 . S
C331 O328 1.320 . S
C331 O329 1.214 . S
O332 Cd324 2.277 . S
O332 C327 1.209 . S
C333 O330 1.258 . S
C333 O335 1.282 . S
O334 Cd326 2.277 . S
O334 C327 1.226 . S
O335 Cd326 2.356 . S
O335 C333 1.282 . S
Zn336 O342 1.969 . S
Zn336 O343 1.965 1_565 S
Zn336 O347 2.024 . S
Zn336 O352 1.963 1_565 S
Zn337 O344 1.969 1_654 S
Zn337 O350 1.969 1_554 S
Zn337 O351 1.965 . S
Zn337 O353 2.024 1_655 S
C338 O339 1.229 . S
C338 O347 1.058 . S
O339 C338 1.229 . S
C340 O341 1.229 1_454 S
C340 O353 1.058 . S
O341 C340 1.229 1_656 S
O342 Zn336 1.969 . S
O342 C345 1.267 . S
O343 Zn336 1.965 1_545 S
O343 C354 1.260 1_554 S
O344 Zn337 1.969 1_456 S
O344 C354 1.258 . S
C345 O342 1.267 . S
C345 O346 1.228 . S
O346 C345 1.228 . S
O347 Zn336 2.024 . S
O347 C338 1.058 . S
C348 O349 1.228 . S
C348 O350 1.267 1_554 S
O349 C348 1.228 . S
O350 Zn337 1.969 1_556 S
O350 C348 1.267 1_556 S
O351 Zn337 1.965 . S
O351 C355 1.260 1_655 S
O352 Zn336 1.963 1_545 S
O352 C355 1.268 . S
O353 Zn337 2.024 1_455 S
O353 C340 1.058 . S
C354 O343 1.260 1_556 S
C354 O344 1.258 . S
C355 O351 1.260 1_455 S
C355 O352 1.268 . S
Zn356 O362 1.969 . S
Zn356 O363 1.965 . S
Zn356 O367 2.024 . S
Zn356 O372 1.969 . S
Zn357 O364 1.969 . S
Zn357 O370 1.969 . S
Zn357 O371 1.965 . S
Zn357 O373 2.024 . S
C358 O359 1.229 . S
C358 O367 1.058 . S
O359 C358 1.229 . S
C360 O361 1.229 . S
C360 O373 1.058 . S
O361 C360 1.229 . S
O362 Zn356 1.969 . S
O362 C365 1.267 . S
O363 Zn356 1.965 . S
O363 C374 1.260 . S
O364 Zn357 1.969 . S
O364 C374 1.258 . S
C365 O362 1.267 . S
C365 O366 1.228 . S
O366 C365 1.228 . S
O367 Zn356 2.024 . S
O367 C358 1.058 . S
C368 O369 1.228 . S
C368 O370 1.267 . S
O369 C368 1.228 . S
O370 Zn357 1.969 . S
O370 C368 1.267 . S
O371 Zn357 1.965 . S
O371 C375 1.260 . S
O372 Zn356 1.969 . S
O372 C375 1.258 . S
O373 Zn357 2.024 . S
O373 C360 1.058 . S
C374 O363 1.260 . S
C374 O364 1.258 . S
C375 O371 1.260 . S
C375 O372 1.258 . S
Zn376 O382 1.969 . S
Zn376 O383 1.965 . S
Zn376 O387 2.024 . S
Zn376 O392 1.969 . S
Zn377 O384 1.969 . S
Zn377 O390 1.969 . S
Zn377 O391 1.965 1_565 S
Zn377 O393 2.024 . S
C378 O379 1.229 . S
C378 O387 1.058 . S
O379 C378 1.229 . S
C380 O381 1.229 . S
C380 O393 1.058 . S
O381 C380 1.229 . S
O382 Zn376 1.969 . S
O382 C385 1.267 . S
O383 Zn376 1.965 . S
O383 C394 1.260 . S
O384 Zn377 1.969 . S
O384 C394 1.258 1_565 S
C385 O382 1.267 . S
C385 O386 1.228 . S
O386 C385 1.228 . S
O387 Zn376 2.024 . S
O387 C378 1.058 . S
C388 O389 1.228 . S
C388 O390 1.267 . S
O389 C388 1.228 . S
O390 Zn377 1.969 . S
O390 C388 1.267 . S
O391 Zn377 1.965 1_545 S
O391 C395 1.260 . S
O392 Zn376 1.969 . S
O392 C395 1.258 . S
O393 Zn377 2.024 . S
O393 C380 1.058 . S
C394 O383 1.260 . S
C394 O384 1.258 1_545 S
C395 O391 1.260 . S
C395 O392 1.258 . S
Zn396 O402 1.969 . S
Zn396 O403 1.965 . S
Zn396 O407 2.024 . S
Zn396 O412 1.969 . S
Zn397 O404 1.969 . S
Zn397 O410 1.969 . S
Zn397 O411 1.965 . S
Zn397 O413 2.024 . S
C398 O399 1.229 . S
C398 O407 1.058 . S
O399 C398 1.229 . S
C400 O401 1.229 . S
C400 O413 1.058 . S
O401 C400 1.229 . S
O402 Zn396 1.969 . S
O402 C405 1.267 . S
O403 Zn396 1.965 . S
O403 C414 1.260 . S
O404 Zn397 1.969 . S
O404 C414 1.258 . S
C405 O402 1.267 . S
C405 O406 1.228 . S
O406 C405 1.228 . S
O407 Zn396 2.024 . S
O407 C398 1.058 . S
C408 O409 1.228 . S
C408 O410 1.267 . S
O409 C408 1.228 . S
O410 Zn397 1.969 . S
O410 C408 1.267 . S
O411 Zn397 1.965 . S
O411 C415 1.260 . S
O412 Zn396 1.969 . S
O412 C415 1.258 . S
O413 Zn397 2.024 . S
O413 C400 1.058 . S
C414 O403 1.260 . S
C414 O404 1.258 . S
C415 O411 1.260 . S
C415 O412 1.258 . S
Zn416 O422 1.969 . S
Zn416 O423 1.945 1_455 S
Zn416 O427 2.024 1_565 S
Zn416 O432 1.969 1_565 S
Zn417 O424 1.969 1_455 S
Zn417 O430 1.969 1_455 S
Zn417 O431 1.965 . S
Zn417 O433 2.024 . S
C418 O419 1.229 1_545 S
C418 O427 1.058 . S
O419 C418 1.229 1_565 S
C420 O421 1.229 . S
C420 O433 1.058 1_655 S
O421 C420 1.229 . S
O422 Zn416 1.969 . S
O422 C425 1.267 . S
O423 Zn416 1.945 1_655 S
O423 C434 1.282 . S
O424 Zn417 1.969 1_655 S
O424 C434 1.258 1_545 S
C425 O422 1.267 . S
C425 O426 1.228 . S
O426 C425 1.228 . S
O427 Zn416 2.024 1_545 S
O427 C418 1.058 . S
C428 O429 1.228 . S
C428 O430 1.267 1_455 S
O429 C428 1.228 . S
O430 Zn417 1.969 1_655 S
O430 C428 1.267 1_655 S
O431 Zn417 1.965 . S
O431 C435 1.260 . S
O432 Zn416 1.969 1_545 S
O432 C435 1.258 . S
O433 Zn417 2.024 . S
O433 C420 1.058 1_455 S
C434 O423 1.282 . S
C434 O424 1.258 1_565 S
C435 O431 1.260 . S
C435 O432 1.258 . S
Zn436 O442 1.969 . S
Zn436 O443 1.965 . S
Zn436 O447 2.024 . S
Zn436 O452 1.969 . S
Zn437 O444 1.969 . S
Zn437 O450 1.969 . S
Zn437 O451 1.965 . S
Zn437 O453 2.024 . S
C438 O439 1.229 . S
C438 O447 1.058 . S
O439 C438 1.229 . S
C440 O441 1.229 . S
C440 O453 1.058 . S
O441 C440 1.229 . S
O442 Zn436 1.969 . S
O442 C445 1.267 . S
O443 Zn436 1.965 . S
O443 C454 1.260 . S
O444 Zn437 1.969 . S
O444 C454 1.258 . S
C445 O442 1.267 . S
C445 O446 1.228 . S
O446 C445 1.228 . S
O447 Zn436 2.024 . S
O447 C438 1.058 . S
C448 O449 1.228 . S
C448 O450 1.267 . S
O449 C448 1.228 . S
O450 Zn437 1.969 . S
O450 C448 1.267 . S
O451 Zn437 1.965 . S
O451 C455 1.260 . S
O452 Zn436 1.969 . S
O452 C455 1.258 . S
O453 Zn437 2.024 . S
O453 C440 1.058 . S
C454 O443 1.260 . S
C454 O444 1.258 . S
C455 O451 1.260 . S
C455 O452 1.258 . S
Zn456 O462 1.969 . S
Zn456 O463 1.965 1_545 S
Zn456 O467 2.024 1_556 S
Zn456 O472 1.969 1_556 S
Zn457 O464 1.969 . S
Zn457 O470 1.969 . S
Zn457 O471 1.965 1_565 S
Zn457 O473 2.024 . S
C458 O459 1.229 . S
C458 O467 1.058 . S
O459 C458 1.229 . S
C460 O461 1.229 . S
C460 O473 1.058 . S
O461 C460 1.229 . S
O462 Zn456 1.969 . S
O462 C465 1.267 . S
O463 Zn456 1.965 1_565 S
O463 C474 1.260 1_556 S
O464 Zn457 1.969 . S
O464 C474 1.258 . S
C465 O462 1.267 . S
C465 O466 1.228 . S
O466 C465 1.228 . S
O467 Zn456 2.024 1_554 S
O467 C458 1.058 . S
C468 O469 1.235 . S
C468 O470 1.263 1_545 S
O469 C468 1.235 . S
O470 Zn457 1.969 . S
O470 C468 1.263 1_565 S
O471 Zn457 1.965 1_545 S
O471 C475 1.260 . S
O472 Zn456 1.969 1_554 S
O472 C475 1.258 . S
O473 Zn457 2.024 . S
O473 C460 1.058 . S
C474 O463 1.260 1_554 S
C474 O464 1.258 . S
C475 O471 1.260 . S
C475 O472 1.258 . S
Zn476 O482 1.969 . S
Zn476 O483 1.965 . S
Zn476 O487 2.024 . S
Zn476 O492 1.969 . S
Zn477 O484 1.969 . S
Zn477 O490 1.969 . S
Zn477 O491 1.965 . S
Zn477 O493 2.024 . S
C478 O479 1.229 . S
C478 O487 1.058 . S
O479 C478 1.229 . S
C480 O481 1.229 . S
C480 O493 1.058 . S
O481 C480 1.229 . S
O482 Zn476 1.969 . S
O482 C485 1.267 . S
O483 Zn476 1.965 . S
O483 C494 1.260 . S
O484 Zn477 1.969 . S
O484 C494 1.258 . S
C485 O482 1.267 . S
C485 O486 1.228 . S
O486 C485 1.228 . S
O487 Zn476 2.024 . S
O487 C478 1.058 . S
C488 O489 1.228 . S
C488 O490 1.267 . S
O489 C488 1.228 . S
O490 Zn477 1.969 . S
O490 C488 1.267 . S
O491 Zn477 1.965 . S
O491 C495 1.260 . S
O492 Zn476 1.969 . S
O492 C495 1.258 . S
O493 Zn477 2.024 . S
O493 C480 1.058 . S
C494 O483 1.260 . S
C494 O484 1.258 . S
C495 O491 1.260 . S
C495 O492 1.258 . S
Zn496 O502 1.969 . S
Zn496 O503 1.965 . S
Zn496 O507 2.024 . S
Zn496 O512 1.969 . S
Zn497 O504 1.969 1_556 S
Zn497 O510 1.969 1_556 S
Zn497 O511 1.965 1_556 S
Zn497 O513 2.024 . S
C498 O499 1.229 . S
C498 O507 1.058 . S
O499 C498 1.229 . S
C500 O501 1.229 . S
C500 O513 1.058 . S
O501 C500 1.229 . S
O502 Zn496 1.969 . S
O502 C505 1.267 . S
O503 Zn496 1.965 . S
O503 C514 1.260 . S
O504 Zn497 1.969 1_554 S
O504 C514 1.258 . S
C505 O502 1.267 . S
C505 O506 1.228 . S
O506 C505 1.228 . S
O507 Zn496 2.024 . S
O507 C498 1.058 . S
C508 O509 1.228 . S
C508 O510 1.267 1_556 S
O509 C508 1.228 . S
O510 Zn497 1.969 1_554 S
O510 C508 1.267 1_554 S
O511 Zn497 1.965 1_554 S
O511 C515 1.260 . S
O512 Zn496 1.969 . S
O512 C515 1.258 . S
O513 Zn497 2.024 . S
O513 C500 1.058 . S
C514 O503 1.260 . S
C514 O504 1.258 . S
C515 O511 1.260 . S
C515 O512 1.258 . S
Zn516 O522 1.969 . S
Zn516 O523 1.965 . S
Zn516 O527 2.024 . S
Zn516 O532 1.969 . S
Zn517 O524 1.969 . S
Zn517 O530 1.969 . S
Zn517 O531 1.965 . S
Zn517 O533 2.024 . S
C518 O519 1.229 . S
C518 O527 1.058 . S
O519 C518 1.229 . S
C520 O521 1.229 . S
C520 O533 1.058 . S
O521 C520 1.229 . S
O522 Zn516 1.969 . S
O522 C525 1.267 . S
O523 Zn516 1.965 . S
O523 C534 1.260 . S
O524 Zn517 1.969 . S
O524 C534 1.258 . S
C525 O522 1.267 . S
C525 O526 1.228 . S
O526 C525 1.228 . S
O527 Zn516 2.024 . S
O527 C518 1.058 . S
C528 O529 1.228 . S
C528 O530 1.267 . S
O529 C528 1.228 . S
O530 Zn517 1.969 . S
O530 C528 1.267 . S
O531 Zn517 1.965 . S
O531 C535 1.260 . S
O532 Zn516 1.969 . S
O532 C535 1.258 . S
O533 Zn517 2.024 . S
O533 C520 1.058 . S
C534 O523 1.260 . S
C534 O524 1.258 . S
C535 O531 1.260 . S
C535 O532 1.258 . S
Zn536 O542 1.969 . S
Zn536 O543 1.965 . S
Zn536 O547 2.024 . S
Zn536 O552 1.969 . S
Zn537 O544 1.969 1_655 S
Zn537 O550 1.969 . S
Zn537 O551 1.965 1_655 S
Zn537 O553 2.024 . S
C538 O539 1.229 . S
C538 O547 1.058 . S
O539 C538 1.229 . S
C540 O541 1.229 . S
C540 O553 1.058 . S
O541 C540 1.229 . S
O542 Zn536 1.969 . S
O542 C545 1.267 . S
O543 Zn536 1.965 . S
O543 C554 1.260 . S
O544 Zn537 1.969 1_455 S
O544 C554 1.258 . S
C545 O542 1.267 . S
C545 O546 1.228 . S
O546 C545 1.228 . S
O547 Zn536 2.024 . S
O547 C538 1.058 . S
C548 O549 1.228 . S
C548 O550 1.267 . S
O549 C548 1.228 . S
O550 Zn537 1.969 . S
O550 C548 1.267 . S
O551 Zn537 1.965 1_455 S
O551 C555 1.260 . S
O552 Zn536 1.969 . S
O552 C555 1.258 . S
O553 Zn537 2.024 . S
O553 C540 1.058 . S
C554 O543 1.260 . S
C554 O544 1.258 . S
C555 O551 1.260 . S
C555 O552 1.258 . S
Zn556 O562 1.969 . S
Zn556 O563 1.965 . S
Zn556 O567 2.024 . S
Zn556 O572 1.969 . S
Zn557 O564 1.969 . S
Zn557 O570 1.969 . S
Zn557 O571 1.965 . S
Zn557 O573 2.024 . S
C558 O559 1.229 . S
C558 O567 1.058 . S
O559 C558 1.229 . S
C560 O561 1.229 . S
C560 O573 1.058 . S
O561 C560 1.229 . S
O562 Zn556 1.969 . S
O562 C565 1.267 . S
O563 Zn556 1.965 . S
O563 C574 1.260 . S
O564 Zn557 1.969 . S
O564 C574 1.258 . S
C565 O562 1.267 . S
C565 O566 1.228 . S
O566 C565 1.228 . S
O567 Zn556 2.024 . S
O567 C558 1.058 . S
C568 O569 1.228 . S
C568 O570 1.267 . S
O569 C568 1.228 . S
O570 Zn557 1.969 . S
O570 C568 1.267 . S
O571 Zn557 1.965 . S
O571 C575 1.260 . S
O572 Zn556 1.969 . S
O572 C575 1.258 . S
O573 Zn557 2.024 . S
O573 C560 1.058 . S
C574 O563 1.260 . S
C574 O564 1.258 . S
C575 O571 1.260 . S
C575 O572 1.258 . S
Zn576 O582 1.969 . S
Zn576 O583 1.965 . S
Zn576 O587 2.024 . S
Zn576 O592 1.969 . S
Zn577 O584 1.969 . S
Zn577 O590 1.969 . S
Zn577 O591 1.965 . S
Zn577 O593 2.024 . S
C578 O579 1.229 . S
C578 O587 1.058 . S
O579 C578 1.229 . S
C580 O581 1.229 . S
C580 O593 1.058 . S
O581 C580 1.229 . S
O582 Zn576 1.969 . S
O582 C585 1.267 . S
O583 Zn576 1.965 . S
O583 C594 1.260 . S
O584 Zn577 1.969 . S
O584 C594 1.258 . S
C585 O582 1.267 . S
C585 O586 1.228 . S
O586 C585 1.228 . S
O587 Zn576 2.024 . S
O587 C578 1.058 . S
C588 O589 1.228 . S
C588 O590 1.267 . S
O589 C588 1.228 . S
O590 Zn577 1.969 . S
O590 C588 1.267 . S
O591 Zn577 1.965 . S
O591 C595 1.260 . S
O592 Zn576 1.969 . S
O592 C595 1.258 . S
O593 Zn577 2.024 . S
O593 C580 1.058 . S
C594 O583 1.260 . S
C594 O584 1.258 . S
C595 O591 1.260 . S
C595 O592 1.258 . S
Zn596 O602 1.969 . S
Zn596 O603 1.965 . S
Zn596 O607 2.024 . S
Zn596 O612 1.969 . S
Zn597 O604 1.969 . S
Zn597 O610 1.969 . S
Zn597 O611 1.965 . S
Zn597 O613 2.024 . S
C598 O599 1.229 . S
C598 O607 1.058 . S
O599 C598 1.229 . S
C600 O601 1.229 . S
C600 O613 1.058 . S
O601 C600 1.229 . S
O602 Zn596 1.969 . S
O602 C605 1.267 . S
O603 Zn596 1.965 . S
O603 C614 1.260 . S
O604 Zn597 1.969 . S
O604 C614 1.258 . S
C605 O602 1.267 . S
C605 O606 1.228 . S
O606 C605 1.228 . S
O607 Zn596 2.024 . S
O607 C598 1.058 . S
C608 O609 1.228 . S
C608 O610 1.267 . S
O609 C608 1.228 . S
O610 Zn597 1.969 . S
O610 C608 1.267 . S
O611 Zn597 1.965 . S
O611 C615 1.260 . S
O612 Zn596 1.969 . S
O612 C615 1.258 . S
O613 Zn597 2.024 . S
O613 C600 1.058 . S
C614 O603 1.260 . S
C614 O604 1.258 . S
C615 O611 1.260 . S
C615 O612 1.258 . S
Zn616 O622 1.969 . S
Zn616 O623 1.965 . S
Zn616 O627 2.024 . S
Zn616 O632 1.969 . S
Zn617 O624 1.969 . S
Zn617 O630 1.969 . S
Zn617 O631 1.965 . S
Zn617 O633 2.024 . S
C618 O619 1.229 . S
C618 O627 1.058 . S
O619 C618 1.229 . S
C620 O621 1.229 . S
C620 O633 1.058 . S
O621 C620 1.229 . S
O622 Zn616 1.969 . S
O622 C625 1.267 . S
O623 Zn616 1.965 . S
O623 C634 1.260 . S
O624 Zn617 1.969 . S
O624 C634 1.258 . S
C625 O622 1.267 . S
C625 O626 1.228 . S
O626 C625 1.228 . S
O627 Zn616 2.024 . S
O627 C618 1.058 . S
C628 O629 1.228 . S
C628 O630 1.267 . S
O629 C628 1.228 . S
O630 Zn617 1.969 . S
O630 C628 1.267 . S
O631 Zn617 1.965 . S
O631 C635 1.260 . S
O632 Zn616 1.969 . S
O632 C635 1.258 . S
O633 Zn617 2.024 . S
O633 C620 1.058 . S
C634 O623 1.260 . S
C634 O624 1.258 . S
C635 O631 1.260 . S
C635 O632 1.258 . S
Zn636 O642 1.969 . S
Zn636 O643 1.965 . S
Zn636 O647 2.024 1_655 S
Zn636 O652 1.969 1_655 S
Zn637 O644 1.969 1_554 S
Zn637 O650 1.969 . S
Zn637 O651 1.965 . S
Zn637 O653 2.024 . S
C638 O639 1.229 . S
C638 O647 1.058 . S
O639 C638 1.229 . S
C640 O641 1.229 . S
C640 O653 1.058 1_556 S
O641 C640 1.229 . S
O642 Zn636 1.969 . S
O642 C645 1.267 . S
O643 Zn636 1.965 . S
O643 C654 1.260 1_654 S
O644 Zn637 1.969 1_556 S
O644 C654 1.258 . S
C645 O642 1.267 . S
C645 O646 1.228 . S
O646 C645 1.228 . S
O647 Zn636 2.024 1_455 S
O647 C638 1.058 . S
C648 O649 1.228 . S
C648 O650 1.267 . S
O649 C648 1.228 . S
O650 Zn637 1.969 . S
O650 C648 1.267 . S
O651 Zn637 1.965 . S
O651 C655 1.260 . S
O652 Zn636 1.969 1_455 S
O652 C655 1.258 . S
O653 Zn637 2.024 . S
O653 C640 1.058 1_554 S
C654 O643 1.260 1_456 S
C654 O644 1.258 . S
C655 O651 1.260 . S
C655 O652 1.258 . S
C656 C657 1.363 1_655 S
C656 C662 1.379 . S
C656 N664 1.356 . S
C657 C656 1.363 1_455 S
C657 C663 1.363 . S
C658 C659 1.375 . S
C658 C663 1.379 . S
C658 N665 1.351 1_556 S
C659 C658 1.375 . S
C659 C662 1.368 1_455 S
N660 C662 1.356 1_554 S
N660 H672 0.984 . S
N660 H673 0.985 . S
N661 C663 1.356 . S
N661 H666 0.984 . S
N661 H667 0.985 . S
C662 C656 1.379 . S
C662 C659 1.368 1_655 S
C662 N660 1.356 1_556 S
C663 C657 1.363 . S
C663 C658 1.379 . S
C663 N661 1.356 . S
N664 C656 1.356 . S
N664 H670 0.984 . S
N664 H671 0.984 . S
N665 C658 1.351 1_554 S
N665 H668 0.994 . S
N665 H669 0.980 1_554 S
H666 N661 0.984 . S
H667 N661 0.985 . S
H668 N665 0.994 . S
H669 N665 0.980 1_556 S
H670 N664 0.984 . S
H671 N664 0.984 . S
H672 N660 0.984 . S
H673 N660 0.985 . S
C674 C675 1.363 . S
C674 C680 1.379 . S
C674 N682 1.356 . S
C675 C674 1.363 . S
C675 C681 1.363 . S
C676 C677 1.363 . S
C676 C681 1.379 . S
C676 N683 1.356 . S
C677 C676 1.363 . S
C677 C680 1.363 . S
N678 C680 1.356 . S
N678 H690 0.984 . S
N678 H691 0.985 . S
N679 C681 1.356 . S
N679 H684 0.984 . S
N679 H685 0.985 . S
C680 C674 1.379 . S
C680 C677 1.363 . S
C680 N678 1.356 . S
C681 C675 1.363 . S
C681 C676 1.379 . S
C681 N679 1.356 . S
N682 C674 1.356 . S
N682 H688 0.984 . S
N682 H689 0.984 . S
N683 C676 1.356 . S
N683 H686 0.984 . S
N683 H687 0.985 . S
H684 N679 0.984 . S
H685 N679 0.985 . S
H686 N683 0.984 . S
H687 N683 0.985 . S
H688 N682 0.984 . S
H689 N682 0.984 . S
H690 N678 0.984 . S
H691 N678 0.985 . S
C692 C693 1.363 . S
C692 C698 1.379 . S
C692 N700 1.356 . S
C693 C692 1.363 . S
C693 C699 1.363 . S
C694 C695 1.363 . S
C694 C699 1.379 . S
C694 N701 1.356 . S
C695 C694 1.363 . S
C695 C698 1.363 . S
N696 C698 1.356 . S
N696 H708 0.984 . S
N696 H709 0.985 . S
N697 C699 1.356 . S
N697 H702 0.984 . S
N697 H703 0.985 . S
C698 C692 1.379 . S
C698 C695 1.363 . S
C698 N696 1.356 . S
C699 C693 1.363 . S
C699 C694 1.379 . S
C699 N697 1.356 . S
N700 C692 1.356 . S
N700 H706 0.984 . S
N700 H707 0.984 . S
N701 C694 1.356 . S
N701 H704 0.984 . S
N701 H705 0.985 . S
H702 N697 0.984 . S
H703 N697 0.985 . S
H704 N701 0.984 . S
H705 N701 0.985 . S
H706 N700 0.984 . S
H707 N700 0.984 . S
H708 N696 0.984 . S
H709 N696 0.985 . S
C710 C711 1.363 . S
C710 C716 1.379 . S
C710 N718 1.356 . S
C711 C710 1.363 . S
C711 C717 1.363 . S
C712 C713 1.363 . S
C712 C717 1.379 . S
C712 N719 1.356 . S
C713 C712 1.363 . S
C713 C716 1.363 . S
N714 C716 1.356 . S
N714 H726 0.984 . S
N714 H727 0.985 . S
N715 C717 1.356 . S
N715 H720 0.984 . S
N715 H721 0.985 . S
C716 C710 1.379 . S
C716 C713 1.363 . S
C716 N714 1.356 . S
C717 C711 1.363 . S
C717 C712 1.379 . S
C717 N715 1.356 . S
N718 C710 1.356 . S
N718 H724 0.984 . S
N718 H725 0.984 . S
N719 C712 1.356 . S
N719 H722 0.984 . S
N719 H723 0.985 . S
H720 N715 0.984 . S
H721 N715 0.985 . S
H722 N719 0.984 . S
H723 N719 0.985 . S
H724 N718 0.984 . S
H725 N718 0.984 . S
H726 N714 0.984 . S
H727 N714 0.985 . S
C728 C729 1.363 . S
C728 C734 1.379 . S
C728 N736 1.356 . S
C729 C728 1.363 . S
C729 C735 1.363 . S
C730 C731 1.363 . S
C730 C735 1.379 . S
C730 N737 1.356 . S
C731 C730 1.363 . S
C731 C734 1.363 . S
N732 C734 1.356 . S
N732 H744 0.984 . S
N732 H745 0.985 . S
N733 C735 1.341 1_655 S
N733 H738 0.982 . S
N733 H739 1.005 . S
C734 C728 1.379 . S
C734 C731 1.363 . S
C734 N732 1.356 . S
C735 C729 1.363 . S
C735 C730 1.379 . S
C735 N733 1.341 1_455 S
N736 C728 1.356 . S
N736 H742 0.984 . S
N736 H743 0.984 . S
N737 C730 1.356 . S
N737 H740 0.984 . S
N737 H741 0.985 . S
H738 N733 0.982 . S
H739 N733 1.005 . S
H740 N737 0.984 . S
H741 N737 0.985 . S
H742 N736 0.984 . S
H743 N736 0.984 . S
H744 N732 0.984 . S
H745 N732 0.985 . S
C746 C747 1.363 . S
C746 C752 1.379 . S
C746 N754 1.356 . S
C747 C746 1.363 . S
C747 C753 1.363 . S
C748 C749 1.363 . S
C748 C753 1.379 . S
C748 N755 1.356 . S
C749 C748 1.363 . S
C749 C752 1.363 . S
N750 C752 1.356 . S
N750 H762 0.984 . S
N750 H763 0.985 . S
N751 C753 1.356 . S
N751 H756 0.984 . S
N751 H757 0.985 . S
C752 C746 1.379 . S
C752 C749 1.363 . S
C752 N750 1.356 . S
C753 C747 1.363 . S
C753 C748 1.379 . S
C753 N751 1.356 . S
N754 C746 1.356 . S
N754 H760 0.984 . S
N754 H761 0.984 . S
N755 C748 1.356 . S
N755 H758 0.984 . S
N755 H759 0.985 . S
H756 N751 0.984 . S
H757 N751 0.985 . S
H758 N755 0.984 . S
H759 N755 0.985 . S
H760 N754 0.984 . S
H761 N754 0.984 . S
H762 N750 0.984 . S
H763 N750 0.985 . S
C764 C765 1.363 . S
C764 C770 1.379 . S
C764 N772 1.356 . S
C765 C764 1.363 . S
C765 C771 1.363 . S
C766 C767 1.363 . S
C766 C771 1.379 . S
C766 N773 1.356 . S
C767 C766 1.363 . S
C767 C770 1.363 . S
N768 C770 1.356 . S
N768 H780 0.984 . S
N768 H781 0.985 . S
N769 C771 1.356 . S
N769 H774 0.984 . S
N769 H775 0.985 . S
C770 C764 1.379 . S
C770 C767 1.363 . S
C770 N768 1.356 . S
C771 C765 1.363 . S
C771 C766 1.379 . S
C771 N769 1.356 . S
N772 C764 1.356 . S
N772 H778 0.984 . S
N772 H779 0.984 . S
N773 C766 1.356 . S
N773 H776 0.984 . S
N773 H777 0.998 . S
H774 N769 0.984 . S
H775 N769 0.985 . S
H776 N773 0.984 . S
H777 N773 0.998 . S
H778 N772 0.984 . S
H779 N772 0.984 . S
H780 N768 0.984 . S
H781 N768 0.985 . S
C782 C783 1.363 . S
C782 C788 1.379 . S
C782 N790 1.356 . S
C783 C782 1.363 . S
C783 C789 1.363 . S
C784 C785 1.363 . S
C784 C789 1.379 . S
C784 N791 1.356 . S
C785 C784 1.363 . S
C785 C788 1.363 . S
N786 C788 1.356 . S
N786 H798 0.984 . S
N786 H799 0.985 . S
N787 C789 1.356 . S
N787 H792 0.984 . S
N787 H793 0.985 . S
C788 C782 1.379 . S
C788 C785 1.363 . S
C788 N786 1.356 . S
C789 C783 1.363 . S
C789 C784 1.379 . S
C789 N787 1.356 . S
N790 C782 1.356 . S
N790 H796 0.984 . S
N790 H797 0.984 . S
N791 C784 1.356 . S
N791 H794 0.984 . S
N791 H795 0.985 . S
H792 N787 0.984 . S
H793 N787 0.985 . S
H794 N791 0.984 . S
H795 N791 0.985 . S
H796 N790 0.984 . S
H797 N790 0.984 . S
H798 N786 0.984 . S
H799 N786 0.985 . S
C800 C801 1.360 1_565 S
C800 C806 1.375 1_565 S
C800 N808 1.364 . S
C801 C800 1.360 1_545 S
C801 C807 1.363 . S
C802 C803 1.363 . S
C802 C807 1.379 . S
C802 N809 1.356 1_655 S
C803 C802 1.363 . S
C803 C806 1.363 . S
N804 C806 1.356 . S
N804 H816 0.985 1_545 S
N804 H817 0.984 . S
N805 C807 1.356 . S
N805 H810 0.984 . S
N805 H811 0.985 . S
C806 C800 1.375 1_545 S
C806 C803 1.363 . S
C806 N804 1.356 . S
C807 C801 1.363 . S
C807 C802 1.379 . S
C807 N805 1.356 . S
N808 C800 1.364 . S
N808 H814 0.984 . S
N808 H815 0.984 . S
N809 C802 1.356 1_455 S
N809 H812 0.984 . S
N809 H813 0.985 . S
H810 N805 0.984 . S
H811 N805 0.985 . S
H812 N809 0.984 . S
H813 N809 0.985 . S
H814 N808 0.984 . S
H815 N808 0.984 . S
H816 N804 0.985 1_565 S
H817 N804 0.984 . S
C818 C819 1.363 . S
C818 C824 1.379 . S
C818 N826 1.356 . S
C819 C818 1.363 . S
C819 C825 1.363 . S
C820 C821 1.363 . S
C820 C825 1.379 . S
C820 N827 1.356 . S
C821 C820 1.363 . S
C821 C824 1.363 . S
N822 C824 1.356 . S
N822 H834 0.984 . S
N822 H835 0.985 . S
N823 C825 1.356 . S
N823 H828 0.984 . S
N823 H829 0.985 . S
C824 C818 1.379 . S
C824 C821 1.363 . S
C824 N822 1.356 . S
C825 C819 1.363 . S
C825 C820 1.379 . S
C825 N823 1.356 . S
N826 C818 1.356 . S
N826 H832 0.984 . S
N826 H833 0.984 . S
N827 C820 1.356 . S
N827 H830 0.984 . S
N827 H831 0.985 . S
H828 N823 0.984 . S
H829 N823 0.985 . S
H830 N827 0.984 . S
H831 N827 0.985 . S
H832 N826 0.984 . S
H833 N826 0.984 . S
H834 N822 0.984 . S
H835 N822 0.985 . S
C836 C837 1.363 . S
C836 C842 1.379 . S
C836 N844 1.356 . S
C837 C836 1.363 . S
C837 C843 1.363 1_565 S
C838 C839 1.355 1_545 S
C838 C843 1.379 . S
C838 N845 1.356 . S
C839 C838 1.355 1_565 S
C839 C842 1.375 . S
N840 C842 1.356 . S
N840 H852 0.984 . S
N840 H853 0.985 . S
N841 C843 1.356 . S
N841 H846 0.984 . S
N841 H847 0.985 . S
C842 C836 1.379 . S
C842 C839 1.375 . S
C842 N840 1.356 . S
C843 C837 1.363 1_545 S
C843 C838 1.379 . S
C843 N841 1.356 . S
N844 C836 1.356 . S
N844 H850 0.984 . S
N844 H851 0.984 . S
N845 C838 1.356 . S
N845 H848 0.984 . S
N845 H849 0.985 . S
H846 N841 0.984 . S
H847 N841 0.985 . S
H848 N845 0.984 . S
H849 N845 0.985 . S
H850 N844 0.984 . S
H851 N844 0.984 . S
H852 N840 0.984 . S
H853 N840 0.985 . S
C854 C855 1.363 . S
C854 C860 1.379 . S
C854 N862 1.356 . S
C855 C854 1.363 . S
C855 C861 1.363 . S
C856 C857 1.363 . S
C856 C861 1.379 . S
C856 N863 1.356 . S
C857 C856 1.363 . S
C857 C860 1.363 . S
N858 C860 1.356 . S
N858 H870 0.984 . S
N858 H871 0.985 . S
N859 C861 1.356 . S
N859 H864 0.984 1_556 S
N859 H865 0.985 1_556 S
C860 C854 1.379 . S
C860 C857 1.363 . S
C860 N858 1.356 . S
C861 C855 1.363 . S
C861 C856 1.379 . S
C861 N859 1.356 . S
N862 C854 1.356 . S
N862 H868 0.984 . S
N862 H869 0.984 . S
N863 C856 1.356 . S
N863 H866 0.984 . S
N863 H867 0.985 . S
H864 N859 0.984 1_554 S
H865 N859 0.985 1_554 S
H866 N863 0.984 . S
H867 N863 0.985 . S
H868 N862 0.984 . S
H869 N862 0.984 . S
H870 N858 0.984 . S
H871 N858 0.985 . S
C872 C873 1.363 . S
C872 C878 1.379 . S
C872 N880 1.356 . S
C873 C872 1.363 . S
C873 C879 1.363 1_545 S
C874 C875 1.363 1_565 S
C874 C879 1.379 . S
C874 N881 1.356 . S
C875 C874 1.363 1_545 S
C875 C878 1.363 . S
N876 C878 1.356 1_455 S
N876 H888 0.984 . S
N876 H889 0.985 . S
N877 C879 1.356 . S
N877 H882 0.984 . S
N877 H883 0.985 . S
C878 C872 1.379 . S
C878 C875 1.363 . S
C878 N876 1.356 1_655 S
C879 C873 1.363 1_565 S
C879 C874 1.379 . S
C879 N877 1.356 . S
N880 C872 1.356 . S
N880 H886 0.984 . S
N880 H887 0.984 . S
N881 C874 1.356 . S
N881 H884 0.984 . S
N881 H885 0.985 . S
H882 N877 0.984 . S
H883 N877 0.985 . S
H884 N881 0.984 . S
H885 N881 0.985 . S
H886 N880 0.984 . S
H887 N880 0.984 . S
H888 N876 0.984 . S
H889 N876 0.985 . S
C890 C891 1.363 . S
C890 C896 1.379 . S
C890 N898 1.356 . S
C891 C890 1.363 . S
C891 C897 1.363 . S
C892 C893 1.363 . S
C892 C897 1.379 . S
C892 N899 1.356 . S
C893 C892 1.363 . S
C893 C896 1.363 . S
N894 C896 1.356 . S
N894 H906 0.984 . S
N894 H907 0.985 . S
N895 C897 1.356 . S
N895 H900 0.984 . S
N895 H901 0.985 . S
C896 C890 1.379 . S
C896 C893 1.363 . S
C896 N894 1.356 . S
C897 C891 1.363 . S
C897 C892 1.379 . S
C897 N895 1.356 . S
N898 C890 1.356 . S
N898 H904 0.984 . S
N898 H905 0.984 . S
N899 C892 1.356 . S
N899 H902 0.984 . S
N899 H903 0.985 . S
H900 N895 0.984 . S
H901 N895 0.985 . S
H902 N899 0.984 . S
H903 N899 0.985 . S
H904 N898 0.984 . S
H905 N898 0.984 . S
H906 N894 0.984 . S
H907 N894 0.985 . S
C908 C909 1.363 1_565 S
C908 C914 1.379 1_565 S
C908 N916 1.356 . S
C909 C908 1.363 1_545 S
C909 C915 1.363 . S
C910 C911 1.363 . S
C910 C915 1.379 . S
C910 N917 1.356 . S
C911 C910 1.363 . S
C911 C914 1.363 . S
N912 C914 1.356 1_565 S
N912 H924 0.984 . S
N912 H925 0.985 1_565 S
N913 C915 1.356 . S
N913 H918 0.984 . S
N913 H919 0.985 . S
C914 C908 1.379 1_545 S
C914 C911 1.363 . S
C914 N912 1.356 1_545 S
C915 C909 1.363 . S
C915 C910 1.379 . S
C915 N913 1.356 . S
N916 C908 1.356 . S
N916 H922 0.984 . S
N916 H923 0.984 . S
N917 C910 1.356 . S
N917 H920 0.984 . S
N917 H921 0.985 . S
H918 N913 0.984 . S
H919 N913 0.985 . S
H920 N917 0.984 . S
H921 N917 0.985 . S
H922 N916 0.984 . S
H923 N916 0.984 . S
H924 N912 0.984 . S
H925 N912 0.985 1_545 S
C926 C927 1.363 . S
C926 C932 1.379 . S
C926 N934 1.356 . S
C927 C926 1.363 . S
C927 C933 1.363 . S
C928 C929 1.363 . S
C928 C933 1.379 . S
C928 N935 1.356 . S
C929 C928 1.363 . S
C929 C932 1.363 . S
N930 C932 1.356 . S
N930 H942 0.984 . S
N930 H943 0.985 . S
N931 C933 1.356 . S
N931 H936 0.984 . S
N931 H937 0.985 . S
C932 C926 1.379 . S
C932 C929 1.363 . S
C932 N930 1.356 . S
C933 C927 1.363 . S
C933 C928 1.379 . S
C933 N931 1.356 . S
N934 C926 1.356 . S
N934 H940 0.984 . S
N934 H941 0.984 . S
N935 C928 1.356 . S
N935 H938 0.984 . S
N935 H939 0.985 . S
H936 N931 0.984 . S
H937 N931 0.985 . S
H938 N935 0.984 . S
H939 N935 0.985 . S
H940 N934 0.984 . S
H941 N934 0.984 . S
H942 N930 0.984 . S
H943 N930 0.985 . S
C944 C945 1.363 . S
C944 C950 1.379 . S
C944 N952 1.356 1_554 S
C945 C944 1.363 . S
C945 C951 1.363 . S
C946 C947 1.363 . S
C946 C951 1.379 . S
C946 N953 1.356 . S
C947 C946 1.363 . S
C947 C950 1.363 . S
N948 C950 1.356 1_545 S
N948 H960 0.984 . S
N948 H961 0.985 . S
N949 C951 1.356 . S
N949 H954 0.984 . S
N949 H955 0.985 . S
C950 C944 1.379 . S
C950 C947 1.363 . S
C950 N948 1.356 1_565 S
C951 C945 1.363 . S
C951 C946 1.379 . S
C951 N949 1.356 . S
N952 C944 1.356 1_556 S
N952 H958 0.984 . S
N952 H959 0.984 . S
N953 C946 1.356 . S
N953 H956 0.984 . S
N953 H957 0.985 . S
H954 N949 0.984 . S
H955 N949 0.985 . S
H956 N953 0.984 . S
H957 N953 0.985 . S
H958 N952 0.984 . S
H959 N952 0.984 . S
H960 N948 0.984 . S
H961 N948 0.985 . S
C962 C963 1.350 1_554 S
C962 C968 1.379 . S
C962 N970 1.356 . S
C963 C962 1.350 1_556 S
C963 C969 1.371 . S
C964 C965 1.363 1_556 S
C964 C969 1.379 . S
C964 N971 1.356 . S
C965 C964 1.363 1_554 S
C965 C968 1.363 . S
N966 C968 1.356 . S
N966 H978 0.984 . S
N966 H979 0.985 . S
N967 C969 1.356 . S
N967 H972 0.984 . S
N967 H973 0.985 . S
C968 C962 1.379 . S
C968 C965 1.363 . S
C968 N966 1.356 . S
C969 C963 1.371 . S
C969 C964 1.379 . S
C969 N967 1.356 . S
N970 C962 1.356 . S
N970 H976 0.984 . S
N970 H977 0.984 . S
N971 C964 1.356 . S
N971 H974 0.984 . S
N971 H975 0.985 . S
H972 N967 0.984 . S
H973 N967 0.985 . S
H974 N971 0.984 . S
H975 N971 0.985 . S
H976 N970 0.984 . S
H977 N970 0.984 . S
H978 N966 0.984 . S
H979 N966 0.985 . S
C980 C981 1.363 . S
C980 C986 1.379 . S
C980 N988 1.356 . S
C981 C980 1.363 . S
C981 C987 1.363 . S
C982 C983 1.363 . S
C982 C987 1.379 . S
C982 N989 1.356 . S
C983 C982 1.363 . S
C983 C986 1.363 . S
N984 C986 1.356 . S
N984 H996 0.984 . S
N984 H997 0.985 . S
N985 C987 1.356 . S
N985 H990 0.984 . S
N985 H991 0.985 . S
C986 C980 1.379 . S
C986 C983 1.363 . S
C986 N984 1.356 . S
C987 C981 1.363 . S
C987 C982 1.379 . S
C987 N985 1.356 . S
N988 C980 1.356 . S
N988 H994 0.984 . S
N988 H995 0.984 . S
N989 C982 1.356 . S
N989 H992 0.984 . S
N989 H993 0.985 . S
H990 N985 0.984 . S
H991 N985 0.985 . S
H992 N989 0.984 . S
H993 N989 0.985 . S
H994 N988 0.984 . S
H995 N988 0.984 . S
H996 N984 0.984 . S
H997 N984 0.985 . S
C998 C999 1.363 . S
C998 C1004 1.379 . S
C998 N1006 1.356 . S
C999 C998 1.363 . S
C999 C1005 1.363 . S
C1000 C1001 1.363 . S
C1000 C1005 1.379 . S
C1000 N1007 1.356 . S
C1001 C1000 1.363 . S
C1001 C1004 1.363 . S
N1002 C1004 1.356 . S
N1002 H1014 0.984 . S
N1002 H1015 0.985 . S
N1003 C1005 1.356 . S
N1003 H1008 0.984 . S
N1003 H1009 0.985 . S
C1004 C998 1.379 . S
C1004 C1001 1.363 . S
C1004 N1002 1.356 . S
C1005 C999 1.363 . S
C1005 C1000 1.379 . S
C1005 N1003 1.356 . S
N1006 C998 1.356 . S
N1006 H1012 0.984 . S
N1006 H1013 0.984 . S
N1007 C1000 1.356 . S
N1007 H1010 0.984 . S
N1007 H1011 0.985 . S
H1008 N1003 0.984 . S
H1009 N1003 0.985 . S
H1010 N1007 0.984 . S
H1011 N1007 0.985 . S
H1012 N1006 0.984 . S
H1013 N1006 0.984 . S
H1014 N1002 0.984 . S
H1015 N1002 0.985 . S
C1016 C1017 1.363 . S
C1016 C1022 1.379 . S
C1016 N1024 1.356 . S
C1017 C1016 1.363 . S
C1017 C1023 1.363 . S
C1018 C1019 1.363 . S
C1018 C1023 1.379 . S
C1018 N1025 1.356 . S
C1019 C1018 1.363 . S
C1019 C1022 1.363 . S
N1020 C1022 1.356 . S
N1020 H1032 0.984 . S
N1020 H1033 0.985 . S
N1021 C1023 1.356 . S
N1021 H1026 0.984 . S
N1021 H1027 0.985 . S
C1022 C1016 1.379 . S
C1022 C1019 1.363 . S
C1022 N1020 1.356 . S
C1023 C1017 1.363 . S
C1023 C1018 1.379 . S
C1023 N1021 1.356 . S
N1024 C1016 1.356 . S
N1024 H1030 0.984 . S
N1024 H1031 0.984 . S
N1025 C1018 1.356 . S
N1025 H1028 0.984 . S
N1025 H1029 0.985 . S
H1026 N1021 0.984 . S
H1027 N1021 0.985 . S
H1028 N1025 0.984 . S
H1029 N1025 0.985 . S
H1030 N1024 0.984 . S
H1031 N1024 0.984 . S
H1032 N1020 0.984 . S
H1033 N1020 0.985 . S
C1034 C1035 1.363 . S
C1034 C1040 1.379 . S
C1034 N1042 1.356 . S
C1035 C1034 1.363 . S
C1035 C1041 1.363 . S
C1036 C1037 1.363 . S
C1036 C1041 1.379 . S
C1036 N1043 1.356 . S
C1037 C1036 1.363 . S
C1037 C1040 1.363 . S
N1038 C1040 1.356 . S
N1038 H1050 0.984 . S
N1038 H1051 0.985 . S
N1039 C1041 1.356 . S
N1039 H1044 0.984 . S
N1039 H1045 0.985 . S
C1040 C1034 1.379 . S
C1040 C1037 1.363 . S
C1040 N1038 1.356 . S
C1041 C1035 1.363 . S
C1041 C1036 1.379 . S
C1041 N1039 1.356 . S
N1042 C1034 1.356 . S
N1042 H1048 0.984 . S
N1042 H1049 0.984 . S
N1043 C1036 1.356 . S
N1043 H1046 0.984 . S
N1043 H1047 0.985 . S
H1044 N1039 0.984 . S
H1045 N1039 0.985 . S
H1046 N1043 0.984 . S
H1047 N1043 0.985 . S
H1048 N1042 0.984 . S
H1049 N1042 0.984 . S
H1050 N1038 0.984 . S
H1051 N1038 0.985 . S
C1052 C1053 1.363 . S
C1052 C1058 1.379 . S
C1052 N1060 1.356 . S
C1053 C1052 1.363 . S
C1053 C1059 1.363 . S
C1054 C1055 1.363 . S
C1054 C1059 1.379 . S
C1054 N1061 1.356 . S
C1055 C1054 1.363 . S
C1055 C1058 1.363 . S
N1056 C1058 1.356 . S
N1056 H1068 0.984 . S
N1056 H1069 0.985 . S
N1057 C1059 1.356 . S
N1057 H1062 0.984 . S
N1057 H1063 0.985 . S
C1058 C1052 1.379 . S
C1058 C1055 1.363 . S
C1058 N1056 1.356 . S
C1059 C1053 1.363 . S
C1059 C1054 1.379 . S
C1059 N1057 1.356 . S
N1060 C1052 1.356 . S
N1060 H1066 0.984 . S
N1060 H1067 0.984 . S
N1061 C1054 1.356 . S
N1061 H1064 0.984 . S
N1061 H1065 0.985 . S
H1062 N1057 0.984 . S
H1063 N1057 0.985 . S
H1064 N1061 0.984 . S
H1065 N1061 0.985 . S
H1066 N1060 0.984 . S
H1067 N1060 0.984 . S
H1068 N1056 0.984 . S
H1069 N1056 0.985 . S
C1070 C1071 1.363 . S
C1070 C1076 1.379 . S
C1070 N1078 1.356 . S
C1071 C1070 1.363 . S
C1071 C1077 1.363 . S
C1072 C1073 1.363 . S
C1072 C1077 1.379 . S
C1072 N1079 1.356 . S
C1073 C1072 1.363 . S
C1073 C1076 1.363 . S
N1074 C1076 1.356 . S
N1074 H1086 0.984 . S
N1074 H1087 0.985 . S
N1075 C1077 1.356 . S
N1075 H1080 0.984 . S
N1075 H1081 0.985 . S
C1076 C1070 1.379 . S
C1076 C1073 1.363 . S
C1076 N1074 1.356 . S
C1077 C1071 1.363 . S
C1077 C1072 1.379 . S
C1077 N1075 1.356 . S
N1078 C1070 1.356 . S
N1078 H1084 0.984 . S
N1078 H1085 0.984 . S
N1079 C1072 1.356 . S
N1079 H1082 0.984 . S
N1079 H1083 0.985 . S
H1080 N1075 0.984 . S
H1081 N1075 0.985 . S
H1082 N1079 0.984 . S
H1083 N1079 0.985 . S
H1084 N1078 0.984 . S
H1085 N1078 0.984 . S
H1086 N1074 0.984 . S
H1087 N1074 0.985 . S
C1088 C1089 1.363 . S
C1088 C1094 1.379 . S
C1088 N1096 1.356 . S
C1089 C1088 1.363 . S
C1089 C1095 1.363 . S
C1090 C1091 1.363 . S
C1090 C1095 1.379 . S
C1090 N1097 1.356 . S
C1091 C1090 1.363 . S
C1091 C1094 1.363 . S
N1092 C1094 1.356 . S
N1092 H1104 0.984 1_455 S
N1092 H1105 0.986 . S
N1093 C1095 1.356 . S
N1093 H1098 0.984 . S
N1093 H1099 0.985 . S
C1094 C1088 1.379 . S
C1094 C1091 1.363 . S
C1094 N1092 1.356 . S
C1095 C1089 1.363 . S
C1095 C1090 1.379 . S
C1095 N1093 1.356 . S
N1096 C1088 1.356 . S
N1096 H1102 0.984 . S
N1096 H1103 0.984 . S
N1097 C1090 1.356 . S
N1097 H1100 0.984 . S
N1097 H1101 0.985 . S
H1098 N1093 0.984 . S
H1099 N1093 0.985 . S
H1100 N1097 0.984 . S
H1101 N1097 0.985 . S
H1102 N1096 0.984 . S
H1103 N1096 0.984 . S
H1104 N1092 0.984 1_655 S
H1105 N1092 0.986 . S
C1106 C1107 1.363 . S
C1106 C1112 1.379 . S
C1106 N1114 1.356 . S
C1107 C1106 1.363 . S
C1107 C1113 1.363 . S
C1108 C1109 1.363 . S
C1108 C1113 1.379 . S
C1108 N1115 1.356 . S
C1109 C1108 1.363 . S
C1109 C1112 1.363 . S
N1110 C1112 1.356 . S
N1110 H1122 0.984 . S
N1110 H1123 0.985 . S
N1111 C1113 1.356 . S
N1111 H1116 0.984 . S
N1111 H1117 0.985 . S
C1112 C1106 1.379 . S
C1112 C1109 1.363 . S
C1112 N1110 1.356 . S
C1113 C1107 1.363 . S
C1113 C1108 1.379 . S
C1113 N1111 1.356 . S
N1114 C1106 1.356 . S
N1114 H1120 0.984 . S
N1114 H1121 0.984 . S
N1115 C1108 1.356 . S
N1115 H1118 0.984 . S
N1115 H1119 0.985 . S
H1116 N1111 0.984 . S
H1117 N1111 0.985 . S
H1118 N1115 0.984 . S
H1119 N1115 0.985 . S
H1120 N1114 0.984 . S
H1121 N1114 0.984 . S
H1122 N1110 0.984 . S
H1123 N1110 0.985 . S
C1124 C1125 1.363 . S
C1124 C1130 1.379 . S
C1124 N1132 1.356 . S
C1125 C1124 1.363 . S
C1125 C1131 1.363 . S
C1126 C1127 1.363 . S
C1126 C1131 1.379 . S
C1126 N1133 1.356 . S
C1127 C1126 1.363 . S
C1127 C1130 1.363 . S
N1128 C1130 1.356 . S
N1128 H1140 0.984 . S
N1128 H1141 0.985 . S
N1129 C1131 1.356 . S
N1129 H1134 0.984 . S
N1129 H1135 0.985 . S
C1130 C1124 1.379 . S
C1130 C1127 1.363 . S
C1130 N1128 1.356 . S
C1131 C1125 1.363 . S
C1131 C1126 1.379 . S
C1131 N1129 1.356 . S
N1132 C1124 1.356 . S
N1132 H1138 0.984 . S
N1132 H1139 0.984 . S
N1133 C1126 1.356 . S
N1133 H1136 0.984 . S
N1133 H1137 0.985 . S
H1134 N1129 0.984 . S
H1135 N1129 0.985 . S
H1136 N1133 0.984 . S
H1137 N1133 0.985 . S
H1138 N1132 0.984 . S
H1139 N1132 0.984 . S
H1140 N1128 0.984 . S
H1141 N1128 0.985 . S
C1142 C1143 1.363 . S
C1142 C1148 1.379 . S
C1142 N1150 1.356 . S
C1143 C1142 1.363 . S
C1143 C1149 1.363 . S
C1144 C1145 1.363 . S
C1144 C1149 1.379 . S
C1144 N1151 1.356 . S
C1145 C1144 1.363 . S
C1145 C1148 1.363 . S
N1146 C1148 1.356 . S
N1146 H1158 0.984 . S
N1146 H1159 0.985 . S
N1147 C1149 1.356 . S
N1147 H1152 0.984 . S
N1147 H1153 0.985 . S
C1148 C1142 1.379 . S
C1148 C1145 1.363 . S
C1148 N1146 1.356 . S
C1149 C1143 1.363 . S
C1149 C1144 1.379 . S
C1149 N1147 1.356 . S
N1150 C1142 1.356 . S
N1150 H1156 0.984 . S
N1150 H1157 0.984 . S
N1151 C1144 1.356 . S
N1151 H1154 0.984 . S
N1151 H1155 0.985 . S
H1152 N1147 0.984 . S
H1153 N1147 0.985 . S
H1154 N1151 0.984 . S
H1155 N1151 0.985 . S
H1156 N1150 0.984 . S
H1157 N1150 0.984 . S
H1158 N1146 0.984 . S
H1159 N1146 0.985 . S
C1160 C1161 1.363 . S
C1160 C1166 1.379 . S
C1160 N1168 1.356 . S
C1161 C1160 1.363 . S
C1161 C1167 1.363 . S
C1162 C1163 1.363 . S
C1162 C1167 1.379 . S
C1162 N1169 1.356 . S
C1163 C1162 1.363 . S
C1163 C1166 1.363 . S
N1164 C1166 1.356 . S
N1164 H1176 0.984 . S
N1164 H1177 0.985 . S
N1165 C1167 1.356 . S
N1165 H1170 0.984 . S
N1165 H1171 0.985 . S
C1166 C1160 1.379 . S
C1166 C1163 1.363 . S
C1166 N1164 1.356 . S
C1167 C1161 1.363 . S
C1167 C1162 1.379 . S
C1167 N1165 1.356 . S
N1168 C1160 1.356 . S
N1168 H1174 0.984 . S
N1168 H1175 0.984 . S
N1169 C1162 1.356 . S
N1169 H1172 0.984 . S
N1169 H1173 0.985 . S
H1170 N1165 0.984 . S
H1171 N1165 0.985 . S
H1172 N1169 0.984 . S
H1173 N1169 0.985 . S
H1174 N1168 0.984 . S
H1175 N1168 0.984 . S
H1176 N1164 0.984 . S
H1177 N1164 0.985 . S
C1178 C1179 1.363 . S
C1178 C1184 1.379 . S
C1178 N1186 1.356 . S
C1179 C1178 1.363 . S
C1179 C1185 1.363 . S
C1180 C1181 1.363 . S
C1180 C1185 1.379 . S
C1180 N1187 1.356 . S
C1181 C1180 1.363 . S
C1181 C1184 1.363 . S
N1182 C1184 1.356 . S
N1182 H1194 0.984 . S
N1182 H1195 0.985 . S
N1183 C1185 1.356 . S
N1183 H1188 0.984 . S
N1183 H1189 0.985 . S
C1184 C1178 1.379 . S
C1184 C1181 1.363 . S
C1184 N1182 1.356 . S
C1185 C1179 1.363 . S
C1185 C1180 1.379 . S
C1185 N1183 1.356 . S
N1186 C1178 1.356 . S
N1186 H1192 0.984 . S
N1186 H1193 0.984 . S
N1187 C1180 1.356 . S
N1187 H1190 0.984 . S
N1187 H1191 0.985 . S
H1188 N1183 0.984 . S
H1189 N1183 0.985 . S
H1190 N1187 0.984 . S
H1191 N1187 0.985 . S
H1192 N1186 0.984 . S
H1193 N1186 0.984 . S
H1194 N1182 0.984 . S
H1195 N1182 0.985 . S
C1196 C1197 1.363 . S
C1196 C1202 1.379 . S
C1196 N1204 1.356 . S
C1197 C1196 1.363 . S
C1197 C1203 1.363 . S
C1198 C1199 1.363 1_554 S
C1198 C1203 1.379 1_554 S
C1198 N1205 1.356 . S
C1199 C1198 1.363 1_556 S
C1199 C1202 1.363 . S
N1200 C1202 1.356 . S
N1200 H1212 0.984 . S
N1200 H1213 0.985 . S
N1201 C1203 1.356 . S
N1201 H1206 0.984 . S
N1201 H1207 0.985 1_556 S
C1202 C1196 1.379 . S
C1202 C1199 1.363 . S
C1202 N1200 1.356 . S
C1203 C1197 1.363 . S
C1203 C1198 1.379 1_556 S
C1203 N1201 1.356 . S
N1204 C1196 1.356 . S
N1204 H1210 0.984 . S
N1204 H1211 0.984 . S
N1205 C1198 1.356 . S
N1205 H1208 0.984 . S
N1205 H1209 0.985 . S
H1206 N1201 0.984 . S
H1207 N1201 0.985 1_554 S
H1208 N1205 0.984 . S
H1209 N1205 0.985 . S
H1210 N1204 0.984 . S
H1211 N1204 0.984 . S
H1212 N1200 0.984 . S
H1213 N1200 0.985 . S
C1214 C1215 1.363 . S
C1214 C1220 1.379 . S
C1214 N1222 1.356 . S
C1215 C1214 1.363 . S
C1215 C1221 1.363 . S
C1216 C1217 1.363 . S
C1216 C1221 1.379 . S
C1216 N1223 1.356 . S
C1217 C1216 1.363 . S
C1217 C1220 1.363 . S
N1218 C1220 1.356 . S
N1218 H1230 0.984 . S
N1218 H1231 0.985 . S
N1219 C1221 1.356 . S
N1219 H1224 0.984 . S
N1219 H1225 0.985 . S
C1220 C1214 1.379 . S
C1220 C1217 1.363 . S
C1220 N1218 1.356 . S
C1221 C1215 1.363 . S
C1221 C1216 1.379 . S
C1221 N1219 1.356 . S
N1222 C1214 1.356 . S
N1222 H1228 0.984 . S
N1222 H1229 0.984 . S
N1223 C1216 1.356 . S
N1223 H1226 0.984 . S
N1223 H1227 0.985 . S
H1224 N1219 0.984 . S
H1225 N1219 0.985 . S
H1226 N1223 0.984 . S
H1227 N1223 0.985 . S
H1228 N1222 0.984 . S
H1229 N1222 0.984 . S
H1230 N1218 0.984 . S
H1231 N1218 0.985 . S
C1232 C1233 1.363 . S
C1232 C1238 1.379 . S
C1232 N1240 1.356 . S
C1233 C1232 1.363 . S
C1233 C1239 1.363 1_545 S
C1234 C1235 1.363 1_565 S
C1234 C1239 1.379 . S
C1234 N1241 1.356 . S
C1235 C1234 1.363 1_545 S
C1235 C1238 1.363 . S
N1236 C1238 1.356 . S
N1236 H1248 0.984 . S
N1236 H1249 0.985 . S
N1237 C1239 1.356 . S
N1237 H1242 0.984 . S
N1237 H1243 0.985 . S
C1238 C1232 1.379 . S
C1238 C1235 1.363 . S
C1238 N1236 1.356 . S
C1239 C1233 1.363 1_565 S
C1239 C1234 1.379 . S
C1239 N1237 1.356 . S
N1240 C1232 1.356 . S
N1240 H1246 0.984 . S
N1240 H1247 0.984 . S
N1241 C1234 1.356 . S
N1241 H1244 0.984 . S
N1241 H1245 0.985 . S
H1242 N1237 0.984 . S
H1243 N1237 0.985 . S
H1244 N1241 0.984 . S
H1245 N1241 0.985 . S
H1246 N1240 0.984 . S
H1247 N1240 0.984 . S
H1248 N1236 0.984 . S
H1249 N1236 0.985 . S
C1250 C1251 1.363 . S
C1250 C1256 1.379 . S
C1250 N1258 1.356 . S
C1251 C1250 1.363 . S
C1251 C1257 1.363 . S
C1252 C1253 1.363 . S
C1252 C1257 1.379 . S
C1252 N1259 1.356 . S
C1253 C1252 1.363 . S
C1253 C1256 1.363 . S
N1254 C1256 1.356 . S
N1254 H1266 0.984 . S
N1254 H1267 0.985 . S
N1255 C1257 1.356 . S
N1255 H1260 0.984 . S
N1255 H1261 0.985 . S
C1256 C1250 1.379 . S
C1256 C1253 1.363 . S
C1256 N1254 1.356 . S
C1257 C1251 1.363 . S
C1257 C1252 1.379 . S
C1257 N1255 1.356 . S
N1258 C1250 1.356 . S
N1258 H1264 0.984 . S
N1258 H1265 0.984 . S
N1259 C1252 1.356 . S
N1259 H1262 0.984 . S
N1259 H1263 0.985 . S
H1260 N1255 0.984 . S
H1261 N1255 0.985 . S
H1262 N1259 0.984 . S
H1263 N1259 0.985 . S
H1264 N1258 0.984 . S
H1265 N1258 0.984 . S
H1266 N1254 0.984 . S
H1267 N1254 0.985 . S
C1268 C1269 1.363 . S
C1268 C1274 1.376 1_545 S
C1268 N1276 1.356 1_545 S
C1269 C1268 1.363 . S
C1269 C1275 1.363 . S
C1270 C1271 1.363 . S
C1270 C1275 1.379 . S
C1270 N1277 1.356 . S
C1271 C1270 1.363 . S
C1271 C1274 1.357 1_545 S
N1272 C1274 1.365 . S
N1272 H1284 0.984 . S
N1272 H1285 0.985 . S
N1273 C1275 1.356 . S
N1273 H1278 0.984 . S
N1273 H1279 0.985 . S
C1274 C1268 1.376 1_565 S
C1274 C1271 1.357 1_565 S
C1274 N1272 1.365 . S
C1275 C1269 1.363 . S
C1275 C1270 1.379 . S
C1275 N1273 1.356 . S
N1276 C1268 1.356 1_565 S
N1276 H1282 0.984 . S
N1276 H1283 0.984 . S
N1277 C1270 1.356 . S
N1277 H1280 0.984 . S
N1277 H1281 0.985 . S
H1278 N1273 0.984 . S
H1279 N1273 0.985 . S
H1280 N1277 0.984 . S
H1281 N1277 0.985 . S
H1282 N1276 0.984 . S
H1283 N1276 0.984 . S
H1284 N1272 0.984 . S
H1285 N1272 0.985 . S
C1286 C1287 1.363 . S
C1286 C1292 1.379 . S
C1286 N1294 1.356 . S
C1287 C1286 1.363 . S
C1287 C1293 1.363 . S
C1288 C1289 1.363 . S
C1288 C1293 1.379 . S
C1288 N1295 1.356 . S
C1289 C1288 1.363 . S
C1289 C1292 1.363 . S
N1290 C1292 1.356 . S
N1290 H1302 0.984 . S
N1290 H1303 0.985 . S
N1291 C1293 1.356 . S
N1291 H1296 0.984 . S
N1291 H1297 0.985 . S
C1292 C1286 1.379 . S
C1292 C1289 1.363 . S
C1292 N1290 1.356 . S
C1293 C1287 1.363 . S
C1293 C1288 1.379 . S
C1293 N1291 1.356 . S
N1294 C1286 1.356 . S
N1294 H1300 0.984 . S
N1294 H1301 0.984 . S
N1295 C1288 1.356 . S
N1295 H1298 0.984 . S
N1295 H1299 0.985 . S
H1296 N1291 0.984 . S
H1297 N1291 0.985 . S
H1298 N1295 0.984 . S
H1299 N1295 0.985 . S
H1300 N1294 0.984 . S
H1301 N1294 0.984 . S
H1302 N1290 0.984 . S
H1303 N1290 0.985 . S
C1304 C1305 1.363 . S
C1304 C1310 1.379 . S
C1304 N1312 1.356 . S
C1305 C1304 1.363 . S
C1305 C1311 1.363 1_545 S
C1306 C1307 1.363 1_565 S
C1306 C1311 1.379 . S
C1306 N1313 1.356 . S
C1307 C1306 1.363 1_545 S
C1307 C1310 1.363 . S
N1308 C1310 1.356 . S
N1308 H1320 0.984 . S
N1308 H1321 0.985 . S
N1309 C1311 1.356 . S
N1309 H1314 0.984 . S
N1309 H1315 0.985 . S
C1310 C1304 1.379 . S
C1310 C1307 1.363 . S
C1310 N1308 1.356 . S
C1311 C1305 1.363 1_565 S
C1311 C1306 1.379 . S
C1311 N1309 1.356 . S
N1312 C1304 1.356 . S
N1312 H1318 0.984 . S
N1312 H1319 0.984 . S
N1313 C1306 1.356 . S
N1313 H1316 0.984 . S
N1313 H1317 0.985 . S
H1314 N1309 0.984 . S
H1315 N1309 0.985 . S
H1316 N1313 0.984 . S
H1317 N1313 0.985 . S
H1318 N1312 0.984 . S
H1319 N1312 0.984 . S
H1320 N1308 0.984 . S
H1321 N1308 0.985 . S
C1322 C1323 1.363 . S
C1322 C1328 1.379 . S
C1322 N1330 1.356 . S
C1323 C1322 1.363 . S
C1323 C1329 1.363 . S
C1324 C1325 1.363 . S
C1324 C1329 1.379 . S
C1324 N1331 1.356 . S
C1325 C1324 1.363 . S
C1325 C1328 1.363 . S
N1326 C1328 1.356 . S
N1326 H1338 0.984 . S
N1326 H1339 0.985 . S
N1327 C1329 1.356 . S
N1327 H1332 0.984 . S
N1327 H1333 0.985 . S
C1328 C1322 1.379 . S
C1328 C1325 1.363 . S
C1328 N1326 1.356 . S
C1329 C1323 1.363 . S
C1329 C1324 1.379 . S
C1329 N1327 1.356 . S
N1330 C1322 1.356 . S
N1330 H1336 0.984 . S
N1330 H1337 0.984 . S
N1331 C1324 1.356 . S
N1331 H1334 0.984 . S
N1331 H1335 0.985 . S
H1332 N1327 0.984 . S
H1333 N1327 0.985 . S
H1334 N1331 0.984 . S
H1335 N1331 0.985 . S
H1336 N1330 0.984 . S
H1337 N1330 0.984 . S
H1338 N1326 0.984 . S
H1339 N1326 0.985 . S
C1340 C1341 1.363 . S
C1340 C1346 1.379 . S
C1340 N1348 1.356 . S
C1341 C1340 1.363 . S
C1341 C1347 1.363 . S
C1342 C1343 1.358 1_565 S
C1342 C1347 1.379 1_565 S
C1342 N1349 1.356 . S
C1343 C1342 1.358 1_545 S
C1343 C1346 1.374 . S
N1344 C1346 1.356 . S
N1344 H1356 0.984 . S
N1344 H1357 0.985 . S
N1345 C1347 1.356 . S
N1345 H1350 0.984 . S
N1345 H1351 0.983 1_545 S
C1346 C1340 1.379 . S
C1346 C1343 1.374 . S
C1346 N1344 1.356 . S
C1347 C1341 1.363 . S
C1347 C1342 1.379 1_545 S
C1347 N1345 1.356 . S
N1348 C1340 1.356 . S
N1348 H1354 0.984 . S
N1348 H1355 0.984 . S
N1349 C1342 1.356 . S
N1349 H1352 0.984 . S
N1349 H1353 0.985 . S
H1350 N1345 0.984 . S
H1351 N1345 0.983 1_565 S
H1352 N1349 0.984 . S
H1353 N1349 0.985 . S
H1354 N1348 0.984 . S
H1355 N1348 0.984 . S
H1356 N1344 0.984 . S
H1357 N1344 0.985 . S
C1358 C1359 1.363 . S
C1358 C1364 1.379 . S
C1358 N1366 1.356 . S
C1359 C1358 1.363 . S
C1359 C1365 1.363 . S
C1360 C1361 1.363 . S
C1360 C1365 1.379 . S
C1360 N1367 1.356 . S
C1361 C1360 1.363 . S
C1361 C1364 1.363 . S
N1362 C1364 1.356 . S
N1362 H1374 0.984 . S
N1362 H1375 0.985 . S
N1363 C1365 1.356 . S
N1363 H1368 0.984 . S
N1363 H1369 0.985 . S
C1364 C1358 1.379 . S
C1364 C1361 1.363 . S
C1364 N1362 1.356 . S
C1365 C1359 1.363 . S
C1365 C1360 1.379 . S
C1365 N1363 1.356 . S
N1366 C1358 1.356 . S
N1366 H1372 0.984 . S
N1366 H1373 0.984 . S
N1367 C1360 1.356 . S
N1367 H1370 0.984 . S
N1367 H1371 0.985 . S
H1368 N1363 0.984 . S
H1369 N1363 0.985 . S
H1370 N1367 0.984 . S
H1371 N1367 0.985 . S
H1372 N1366 0.984 . S
H1373 N1366 0.984 . S
H1374 N1362 0.984 . S
H1375 N1362 0.985 . S
C1376 C1377 1.363 . S
C1376 C1382 1.379 . S
C1376 N1384 1.356 . S
C1377 C1376 1.363 . S
C1377 C1383 1.363 . S
C1378 C1379 1.363 1_556 S
C1378 C1383 1.379 1_556 S
C1378 N1385 1.356 . S
C1379 C1378 1.363 1_554 S
C1379 C1382 1.363 . S
N1380 C1382 1.356 . S
N1380 H1392 0.984 . S
N1380 H1393 0.985 . S
N1381 C1383 1.356 1_556 S
N1381 H1386 0.984 1_556 S
N1381 H1387 0.985 . S
C1382 C1376 1.379 . S
C1382 C1379 1.363 . S
C1382 N1380 1.356 . S
C1383 C1377 1.363 . S
C1383 C1378 1.379 1_554 S
C1383 N1381 1.356 1_554 S
N1384 C1376 1.356 . S
N1384 H1390 0.984 . S
N1384 H1391 0.984 . S
N1385 C1378 1.356 . S
N1385 H1388 0.984 . S
N1385 H1389 0.985 . S
H1386 N1381 0.984 1_554 S
H1387 N1381 0.985 . S
H1388 N1385 0.984 . S
H1389 N1385 0.985 . S
H1390 N1384 0.984 . S
H1391 N1384 0.984 . S
H1392 N1380 0.984 . S
H1393 N1380 0.985 . S
C1394 C1395 1.363 . S
C1394 C1400 1.379 . S
C1394 N1402 1.356 . S
C1395 C1394 1.363 . S
C1395 C1401 1.363 . S
C1396 C1397 1.363 . S
C1396 C1401 1.379 . S
C1396 N1403 1.356 . S
C1397 C1396 1.363 . S
C1397 C1400 1.363 . S
N1398 C1400 1.356 . S
N1398 H1410 0.984 . S
N1398 H1411 0.985 . S
N1399 C1401 1.356 . S
N1399 H1404 0.984 . S
N1399 H1405 0.985 . S
C1400 C1394 1.379 . S
C1400 C1397 1.363 . S
C1400 N1398 1.356 . S
C1401 C1395 1.363 . S
C1401 C1396 1.379 . S
C1401 N1399 1.356 . S
N1402 C1394 1.356 . S
N1402 H1408 0.984 . S
N1402 H1409 0.984 . S
N1403 C1396 1.356 . S
N1403 H1406 0.984 . S
N1403 H1407 0.985 1_554 S
H1404 N1399 0.984 . S
H1405 N1399 0.985 . S
H1406 N1403 0.984 . S
H1407 N1403 0.985 1_556 S
H1408 N1402 0.984 . S
H1409 N1402 0.984 . S
H1410 N1398 0.984 . S
H1411 N1398 0.985 . S
C1412 C1413 1.363 . S
C1412 C1418 1.379 . S
C1412 N1420 1.356 . S
C1413 C1412 1.363 . S
C1413 C1419 1.363 . S
C1414 C1415 1.363 . S
C1414 C1419 1.379 . S
C1414 N1421 1.356 . S
C1415 C1414 1.363 . S
C1415 C1418 1.363 . S
N1416 C1418 1.356 . S
N1416 H1428 0.984 . S
N1416 H1429 0.985 . S
N1417 C1419 1.356 . S
N1417 H1422 0.984 . S
N1417 H1423 0.985 . S
C1418 C1412 1.379 . S
C1418 C1415 1.363 . S
C1418 N1416 1.356 . S
C1419 C1413 1.363 . S
C1419 C1414 1.379 . S
C1419 N1417 1.356 . S
N1420 C1412 1.356 . S
N1420 H1426 0.984 . S
N1420 H1427 0.984 . S
N1421 C1414 1.356 . S
N1421 H1424 0.984 . S
N1421 H1425 0.985 . S
H1422 N1417 0.984 . S
H1423 N1417 0.985 . S
H1424 N1421 0.984 . S
H1425 N1421 0.985 . S
H1426 N1420 0.984 . S
H1427 N1420 0.984 . S
H1428 N1416 0.984 . S
H1429 N1416 0.985 . S
C1430 C1431 1.363 . S
C1430 C1436 1.379 . S
C1430 N1438 1.356 . S
C1431 C1430 1.363 . S
C1431 C1437 1.363 . S
C1432 C1433 1.363 . S
C1432 C1437 1.379 . S
C1432 N1439 1.356 . S
C1433 C1432 1.363 . S
C1433 C1436 1.363 . S
N1434 C1436 1.356 . S
N1434 H1446 0.984 . S
N1434 H1447 0.985 . S
N1435 C1437 1.356 . S
N1435 H1440 0.984 . S
N1435 H1441 0.985 . S
C1436 C1430 1.379 . S
C1436 C1433 1.363 . S
C1436 N1434 1.356 . S
C1437 C1431 1.363 . S
C1437 C1432 1.379 . S
C1437 N1435 1.356 . S
N1438 C1430 1.356 . S
N1438 H1444 0.984 . S
N1438 H1445 0.984 . S
N1439 C1432 1.356 . S
N1439 H1442 0.984 . S
N1439 H1443 0.985 . S
H1440 N1435 0.984 . S
H1441 N1435 0.985 . S
H1442 N1439 0.984 . S
H1443 N1439 0.985 . S
H1444 N1438 0.984 . S
H1445 N1438 0.984 . S
H1446 N1434 0.984 . S
H1447 N1434 0.985 . S
C1448 C1449 1.363 . S
C1448 C1454 1.379 . S
C1448 N1456 1.356 . S
C1449 C1448 1.363 . S
C1449 C1455 1.363 . S
C1450 C1451 1.363 . S
C1450 C1455 1.379 . S
C1450 N1457 1.356 . S
C1451 C1450 1.363 . S
C1451 C1454 1.363 . S
N1452 C1454 1.356 . S
N1452 H1464 0.984 . S
N1452 H1465 0.985 . S
N1453 C1455 1.356 . S
N1453 H1458 0.984 . S
N1453 H1459 0.985 . S
C1454 C1448 1.379 . S
C1454 C1451 1.363 . S
C1454 N1452 1.356 . S
C1455 C1449 1.363 . S
C1455 C1450 1.379 . S
C1455 N1453 1.356 . S
N1456 C1448 1.356 . S
N1456 H1462 0.984 . S
N1456 H1463 0.984 . S
N1457 C1450 1.356 . S
N1457 H1460 0.984 . S
N1457 H1461 0.985 . S
H1458 N1453 0.984 . S
H1459 N1453 0.985 . S
H1460 N1457 0.984 . S
H1461 N1457 0.985 . S
H1462 N1456 0.984 . S
H1463 N1456 0.984 . S
H1464 N1452 0.984 . S
H1465 N1452 0.985 . S
C1466 C1467 1.363 . S
C1466 C1472 1.379 . S
C1466 N1474 1.356 . S
C1467 C1466 1.363 . S
C1467 C1473 1.363 . S
C1468 C1469 1.363 . S
C1468 C1473 1.379 . S
C1468 N1475 1.356 . S
C1469 C1468 1.363 . S
C1469 C1472 1.363 . S
N1470 C1472 1.356 . S
N1470 H1482 0.984 . S
N1470 H1483 0.985 . S
N1471 C1473 1.356 . S
N1471 H1476 0.984 . S
N1471 H1477 0.985 . S
C1472 C1466 1.379 . S
C1472 C1469 1.363 . S
C1472 N1470 1.356 . S
C1473 C1467 1.363 . S
C1473 C1468 1.379 . S
C1473 N1471 1.356 . S
N1474 C1466 1.356 . S
N1474 H1480 0.984 . S
N1474 H1481 0.984 . S
N1475 C1468 1.356 . S
N1475 H1478 0.984 . S
N1475 H1479 0.985 . S
H1476 N1471 0.984 . S
H1477 N1471 0.985 . S
H1478 N1475 0.984 . S
H1479 N1475 0.985 . S
H1480 N1474 0.984 . S
H1481 N1474 0.984 . S
H1482 N1470 0.984 . S
H1483 N1470 0.985 . S
C1484 C1485 1.363 . S
C1484 C1490 1.379 . S
C1484 N1492 1.356 . S
C1485 C1484 1.363 . S
C1485 C1491 1.363 . S
C1486 C1487 1.363 . S
C1486 C1491 1.379 . S
C1486 N1493 1.356 . S
C1487 C1486 1.363 . S
C1487 C1490 1.363 . S
N1488 C1490 1.356 . S
N1488 H1500 0.984 . S
N1488 H1501 0.985 . S
N1489 C1491 1.356 . S
N1489 H1494 0.984 . S
N1489 H1495 0.985 . S
C1490 C1484 1.379 . S
C1490 C1487 1.363 . S
C1490 N1488 1.356 . S
C1491 C1485 1.363 . S
C1491 C1486 1.379 . S
C1491 N1489 1.356 . S
N1492 C1484 1.356 . S
N1492 H1498 0.984 . S
N1492 H1499 0.984 . S
N1493 C1486 1.356 . S
N1493 H1496 0.984 . S
N1493 H1497 0.985 . S
H1494 N1489 0.984 . S
H1495 N1489 0.985 . S
H1496 N1493 0.984 . S
H1497 N1493 0.985 . S
H1498 N1492 0.984 . S
H1499 N1492 0.984 . S
H1500 N1488 0.984 . S
H1501 N1488 0.985 . S
C1502 C1503 1.363 . S
C1502 C1508 1.379 . S
C1502 N1510 1.356 . S
C1503 C1502 1.363 . S
C1503 C1509 1.363 . S
C1504 C1505 1.363 . S
C1504 C1509 1.379 . S
C1504 N1511 1.356 . S
C1505 C1504 1.363 . S
C1505 C1508 1.363 . S
N1506 C1508 1.356 . S
N1506 H1518 0.984 . S
N1506 H1519 0.985 . S
N1507 C1509 1.356 . S
N1507 H1512 0.984 . S
N1507 H1513 0.985 . S
C1508 C1502 1.379 . S
C1508 C1505 1.363 . S
C1508 N1506 1.356 . S
C1509 C1503 1.363 . S
C1509 C1504 1.379 . S
C1509 N1507 1.356 . S
N1510 C1502 1.356 . S
N1510 H1516 0.984 . S
N1510 H1517 0.984 . S
N1511 C1504 1.356 . S
N1511 H1514 0.984 . S
N1511 H1515 0.985 . S
H1512 N1507 0.984 . S
H1513 N1507 0.985 . S
H1514 N1511 0.984 . S
H1515 N1511 0.985 . S
H1516 N1510 0.984 . S
H1517 N1510 0.984 . S
H1518 N1506 0.984 . S
H1519 N1506 0.985 . S
C1520 C1521 1.363 . S
C1520 C1526 1.379 . S
C1520 N1528 1.356 . S
C1521 C1520 1.363 . S
C1521 C1527 1.363 . S
C1522 C1523 1.363 . S
C1522 C1527 1.379 . S
C1522 N1529 1.356 . S
C1523 C1522 1.363 . S
C1523 C1526 1.363 . S
N1524 C1526 1.356 . S
N1524 H1536 0.984 . S
N1524 H1537 0.985 . S
N1525 C1527 1.356 . S
N1525 H1530 0.984 . S
N1525 H1531 0.985 . S
C1526 C1520 1.379 . S
C1526 C1523 1.363 . S
C1526 N1524 1.356 . S
C1527 C1521 1.363 . S
C1527 C1522 1.379 . S
C1527 N1525 1.356 . S
N1528 C1520 1.356 . S
N1528 H1534 0.984 . S
N1528 H1535 0.984 . S
N1529 C1522 1.356 . S
N1529 H1532 0.984 . S
N1529 H1533 0.985 . S
H1530 N1525 0.984 . S
H1531 N1525 0.985 . S
H1532 N1529 0.984 . S
H1533 N1529 0.985 . S
H1534 N1528 0.984 . S
H1535 N1528 0.984 . S
H1536 N1524 0.984 . S
H1537 N1524 0.985 . S
C1538 C1539 1.363 . S
C1538 C1544 1.379 . S
C1538 N1546 1.356 . S
C1539 C1538 1.363 . S
C1539 C1545 1.363 . S
C1540 C1541 1.363 . S
C1540 C1545 1.379 . S
C1540 N1547 1.356 . S
C1541 C1540 1.363 . S
C1541 C1544 1.363 . S
N1542 C1544 1.356 . S
N1542 H1554 0.984 . S
N1542 H1555 0.985 . S
N1543 C1545 1.356 . S
N1543 H1548 0.984 . S
N1543 H1549 0.985 . S
C1544 C1538 1.379 . S
C1544 C1541 1.363 . S
C1544 N1542 1.356 . S
C1545 C1539 1.363 . S
C1545 C1540 1.379 . S
C1545 N1543 1.356 . S
N1546 C1538 1.356 . S
N1546 H1552 0.984 . S
N1546 H1553 0.984 . S
N1547 C1540 1.356 . S
N1547 H1550 0.984 . S
N1547 H1551 0.985 . S
H1548 N1543 0.984 . S
H1549 N1543 0.985 . S
H1550 N1547 0.984 . S
H1551 N1547 0.985 . S
H1552 N1546 0.984 . S
H1553 N1546 0.984 . S
H1554 N1542 0.984 . S
H1555 N1542 0.985 . S
C1556 C1557 1.363 . S
C1556 C1562 1.379 . S
C1556 N1564 1.356 . S
C1557 C1556 1.363 . S
C1557 C1563 1.363 1_455 S
C1558 C1559 1.363 1_655 S
C1558 C1563 1.379 . S
C1558 N1565 1.356 1_556 S
C1559 C1558 1.363 1_455 S
C1559 C1562 1.363 . S
N1560 C1562 1.356 . S
N1560 H1572 0.984 . S
N1560 H1573 0.985 . S
N1561 C1563 1.356 . S
N1561 H1566 0.984 . S
N1561 H1567 0.985 . S
C1562 C1556 1.379 . S
C1562 C1559 1.363 . S
C1562 N1560 1.356 . S
C1563 C1557 1.363 1_655 S
C1563 C1558 1.379 . S
C1563 N1561 1.356 . S
N1564 C1556 1.356 . S
N1564 H1570 0.984 . S
N1564 H1571 0.984 . S
N1565 C1558 1.356 1_554 S
N1565 H1568 0.984 . S
N1565 H1569 0.985 . S
H1566 N1561 0.984 . S
H1567 N1561 0.985 . S
H1568 N1565 0.984 . S
H1569 N1565 0.985 . S
H1570 N1564 0.984 . S
H1571 N1564 0.984 . S
H1572 N1560 0.984 . S
H1573 N1560 0.985 . S
C1574 C1575 1.363 . S
C1574 C1580 1.379 . S
C1574 N1582 1.356 . S
C1575 C1574 1.363 . S
C1575 C1581 1.363 . S
C1576 C1577 1.363 . S
C1576 C1581 1.379 . S
C1576 N1583 1.356 . S
C1577 C1576 1.363 . S
C1577 C1580 1.363 . S
N1578 C1580 1.356 . S
N1578 H1590 0.984 . S
N1578 H1591 0.985 . S
N1579 C1581 1.356 . S
N1579 H1584 0.984 . S
N1579 H1585 0.985 . S
C1580 C1574 1.379 . S
C1580 C1577 1.363 . S
C1580 N1578 1.356 . S
C1581 C1575 1.363 . S
C1581 C1576 1.379 . S
C1581 N1579 1.356 . S
N1582 C1574 1.356 . S
N1582 H1588 0.984 . S
N1582 H1589 0.984 . S
N1583 C1576 1.356 . S
N1583 H1586 0.984 . S
N1583 H1587 0.985 . S
H1584 N1579 0.984 . S
H1585 N1579 0.985 . S
H1586 N1583 0.984 . S
H1587 N1583 0.985 . S
H1588 N1582 0.984 . S
H1589 N1582 0.984 . S
H1590 N1578 0.984 . S
H1591 N1578 0.985 . S
C1592 C1593 1.363 . S
C1592 C1598 1.379 . S
C1592 N1600 1.356 . S
C1593 C1592 1.363 . S
C1593 C1599 1.363 . S
C1594 C1595 1.363 . S
C1594 C1599 1.379 . S
C1594 N1601 1.356 . S
C1595 C1594 1.363 . S
C1595 C1598 1.363 . S
N1596 C1598 1.356 . S
N1596 H1608 0.984 . S
N1596 H1609 0.985 . S
N1597 C1599 1.356 . S
N1597 H1602 0.984 . S
N1597 H1603 0.985 . S
C1598 C1592 1.379 . S
C1598 C1595 1.363 . S
C1598 N1596 1.356 . S
C1599 C1593 1.363 . S
C1599 C1594 1.379 . S
C1599 N1597 1.356 . S
N1600 C1592 1.356 . S
N1600 H1606 0.984 . S
N1600 H1607 0.984 . S
N1601 C1594 1.356 . S
N1601 H1604 0.984 . S
N1601 H1605 0.985 . S
H1602 N1597 0.984 . S
H1603 N1597 0.985 . S
H1604 N1601 0.984 . S
H1605 N1601 0.985 . S
H1606 N1600 0.984 . S
H1607 N1600 0.984 . S
H1608 N1596 0.984 . S
H1609 N1596 0.985 . S
C1610 C1611 1.363 . S
C1610 C1616 1.379 . S
C1610 N1618 1.356 . S
C1611 C1610 1.363 . S
C1611 C1617 1.363 . S
C1612 C1613 1.363 . S
C1612 C1617 1.379 . S
C1612 N1619 1.356 . S
C1613 C1612 1.363 . S
C1613 C1616 1.363 . S
N1614 C1616 1.356 . S
N1614 H1626 0.984 . S
N1614 H1627 0.985 . S
N1615 C1617 1.356 . S
N1615 H1620 0.984 . S
N1615 H1621 0.985 . S
C1616 C1610 1.379 . S
C1616 C1613 1.363 . S
C1616 N1614 1.356 . S
C1617 C1611 1.363 . S
C1617 C1612 1.379 . S
C1617 N1615 1.356 . S
N1618 C1610 1.356 . S
N1618 H1624 0.984 . S
N1618 H1625 0.984 . S
N1619 C1612 1.356 . S
N1619 H1622 0.984 . S
N1619 H1623 0.985 . S
H1620 N1615 0.984 . S
H1621 N1615 0.985 . S
H1622 N1619 0.984 . S
H1623 N1619 0.985 . S
H1624 N1618 0.984 . S
H1625 N1618 0.984 . S
H1626 N1614 0.984 . S
H1627 N1614 0.985 . S
C1628 C1629 1.363 . S
C1628 C1634 1.379 . S
C1628 N1636 1.356 . S
C1629 C1628 1.363 . S
C1629 C1635 1.363 1_455 S
C1630 C1631 1.363 1_655 S
C1630 C1635 1.379 . S
C1630 N1637 1.356 . S
C1631 C1630 1.363 1_455 S
C1631 C1634 1.363 . S
N1632 C1634 1.356 . S
N1632 H1644 0.984 . S
N1632 H1645 0.985 . S
N1633 C1635 1.356 . S
N1633 H1638 0.984 . S
N1633 H1639 0.985 . S
C1634 C1628 1.379 . S
C1634 C1631 1.363 . S
C1634 N1632 1.356 . S
C1635 C1629 1.363 1_655 S
C1635 C1630 1.379 . S
C1635 N1633 1.356 . S
N1636 C1628 1.356 . S
N1636 H1642 0.984 . S
N1636 H1643 0.984 . S
N1637 C1630 1.356 . S
N1637 H1640 0.984 . S
N1637 H1641 0.985 . S
H1638 N1633 0.984 . S
H1639 N1633 0.985 . S
H1640 N1637 0.984 . S
H1641 N1637 0.985 . S
H1642 N1636 0.984 . S
H1643 N1636 0.984 . S
H1644 N1632 0.984 . S
H1645 N1632 0.985 . S
C1646 C1647 1.363 . S
C1646 C1652 1.379 . S
C1646 N1654 1.356 . S
C1647 C1646 1.363 . S
C1647 C1653 1.363 . S
C1648 C1649 1.363 . S
C1648 C1653 1.379 . S
C1648 N1655 1.356 . S
C1649 C1648 1.363 . S
C1649 C1652 1.363 . S
N1650 C1652 1.356 . S
N1650 H1662 0.984 . S
N1650 H1663 0.985 . S
N1651 C1653 1.356 . S
N1651 H1656 0.984 . S
N1651 H1657 0.985 . S
C1652 C1646 1.379 . S
C1652 C1649 1.363 . S
C1652 N1650 1.356 . S
C1653 C1647 1.363 . S
C1653 C1648 1.379 . S
C1653 N1651 1.356 . S
N1654 C1646 1.356 . S
N1654 H1660 0.984 . S
N1654 H1661 0.984 . S
N1655 C1648 1.356 . S
N1655 H1658 0.984 . S
N1655 H1659 0.985 . S
H1656 N1651 0.984 . S
H1657 N1651 0.985 . S
H1658 N1655 0.984 . S
H1659 N1655 0.985 . S
H1660 N1654 0.984 . S
H1661 N1654 0.984 . S
H1662 N1650 0.984 . S
H1663 N1650 0.985 . S
C1664 C1665 1.363 . S
C1664 C1670 1.379 . S
C1664 N1672 1.356 . S
C1665 C1664 1.363 . S
C1665 C1671 1.363 . S
C1666 C1667 1.363 . S
C1666 C1671 1.379 . S
C1666 N1673 1.356 . S
C1667 C1666 1.363 . S
C1667 C1670 1.363 . S
N1668 C1670 1.356 . S
N1668 H1680 0.984 . S
N1668 H1681 0.985 . S
N1669 C1671 1.356 . S
N1669 H1674 0.984 . S
N1669 H1675 0.985 . S
C1670 C1664 1.379 . S
C1670 C1667 1.363 . S
C1670 N1668 1.356 . S
C1671 C1665 1.363 . S
C1671 C1666 1.379 . S
C1671 N1669 1.356 . S
N1672 C1664 1.356 . S
N1672 H1678 0.984 . S
N1672 H1679 0.984 . S
N1673 C1666 1.356 . S
N1673 H1676 0.984 . S
N1673 H1677 0.985 . S
H1674 N1669 0.984 . S
H1675 N1669 0.985 . S
H1676 N1673 0.984 . S
H1677 N1673 0.985 . S
H1678 N1672 0.984 . S
H1679 N1672 0.984 . S
H1680 N1668 0.984 . S
H1681 N1668 0.985 . S
C1682 C1683 1.363 . S
C1682 C1688 1.379 . S
C1682 N1690 1.356 . S
C1683 C1682 1.363 . S
C1683 C1689 1.363 . S
C1684 C1685 1.363 . S
C1684 C1689 1.379 . S
C1684 N1691 1.356 . S
C1685 C1684 1.363 . S
C1685 C1688 1.363 . S
N1686 C1688 1.356 . S
N1686 H1698 0.984 . S
N1686 H1699 0.985 . S
N1687 C1689 1.356 . S
N1687 H1692 0.984 1_556 S
N1687 H1693 0.992 . S
C1688 C1682 1.379 . S
C1688 C1685 1.363 . S
C1688 N1686 1.356 . S
C1689 C1683 1.363 . S
C1689 C1684 1.379 . S
C1689 N1687 1.356 . S
N1690 C1682 1.356 . S
N1690 H1696 0.984 . S
N1690 H1697 0.984 . S
N1691 C1684 1.356 . S
N1691 H1694 0.984 . S
N1691 H1695 0.985 . S
H1692 N1687 0.984 1_554 S
H1693 N1687 0.992 . S
H1694 N1691 0.984 . S
H1695 N1691 0.985 . S
H1696 N1690 0.984 . S
H1697 N1690 0.984 . S
H1698 N1686 0.984 . S
H1699 N1686 0.985 . S
C1700 C1701 1.363 . S
C1700 C1706 1.379 . S
C1700 N1708 1.356 . S
C1701 C1700 1.363 . S
C1701 C1707 1.363 . S
C1702 C1703 1.363 . S
C1702 C1707 1.379 . S
C1702 N1709 1.356 . S
C1703 C1702 1.363 . S
C1703 C1706 1.363 . S
N1704 C1706 1.356 . S
N1704 H1716 0.984 . S
N1704 H1717 0.985 . S
N1705 C1707 1.356 . S
N1705 H1710 0.984 . S
N1705 H1711 0.985 . S
C1706 C1700 1.379 . S
C1706 C1703 1.363 . S
C1706 N1704 1.356 . S
C1707 C1701 1.363 . S
C1707 C1702 1.379 . S
C1707 N1705 1.356 . S
N1708 C1700 1.356 . S
N1708 H1714 0.984 . S
N1708 H1715 0.984 . S
N1709 C1702 1.356 . S
N1709 H1712 0.984 . S
N1709 H1713 0.985 . S
H1710 N1705 0.984 . S
H1711 N1705 0.985 . S
H1712 N1709 0.984 . S
H1713 N1709 0.985 . S
H1714 N1708 0.984 . S
H1715 N1708 0.984 . S
H1716 N1704 0.984 . S
H1717 N1704 0.985 . S
C1718 C1719 1.363 . S
C1718 C1724 1.379 . S
C1718 N1726 1.356 . S
C1719 C1718 1.363 . S
C1719 C1725 1.363 . S
C1720 C1721 1.363 . S
C1720 C1725 1.379 . S
C1720 N1727 1.356 . S
C1721 C1720 1.363 . S
C1721 C1724 1.363 . S
N1722 C1724 1.356 . S
N1722 H1734 0.984 . S
N1722 H1735 0.985 . S
N1723 C1725 1.356 . S
N1723 H1728 0.984 . S
N1723 H1729 0.985 . S
C1724 C1718 1.379 . S
C1724 C1721 1.363 . S
C1724 N1722 1.356 . S
C1725 C1719 1.363 . S
C1725 C1720 1.379 . S
C1725 N1723 1.356 . S
N1726 C1718 1.356 . S
N1726 H1732 0.984 . S
N1726 H1733 0.984 . S
N1727 C1720 1.356 . S
N1727 H1730 0.984 . S
N1727 H1731 0.985 . S
H1728 N1723 0.984 . S
H1729 N1723 0.985 . S
H1730 N1727 0.984 . S
H1731 N1727 0.985 . S
H1732 N1726 0.984 . S
H1733 N1726 0.984 . S
H1734 N1722 0.984 . S
H1735 N1722 0.985 . S
C1736 C1737 1.363 . S
C1736 C1742 1.379 . S
C1736 N1744 1.356 . S
C1737 C1736 1.363 . S
C1737 C1743 1.363 . S
C1738 C1739 1.363 . S
C1738 C1743 1.379 . S
C1738 N1745 1.356 . S
C1739 C1738 1.363 . S
C1739 C1742 1.363 . S
N1740 C1742 1.356 . S
N1740 H1752 0.984 . S
N1740 H1753 0.985 . S
N1741 C1743 1.356 . S
N1741 H1746 0.984 . S
N1741 H1747 0.985 . S
C1742 C1736 1.379 . S
C1742 C1739 1.363 . S
C1742 N1740 1.356 . S
C1743 C1737 1.363 . S
C1743 C1738 1.379 . S
C1743 N1741 1.356 . S
N1744 C1736 1.356 . S
N1744 H1750 0.984 . S
N1744 H1751 0.984 . S
N1745 C1738 1.356 . S
N1745 H1748 0.984 . S
N1745 H1749 0.985 . S
H1746 N1741 0.984 . S
H1747 N1741 0.985 . S
H1748 N1745 0.984 . S
H1749 N1745 0.985 . S
H1750 N1744 0.984 . S
H1751 N1744 0.984 . S
H1752 N1740 0.984 . S
H1753 N1740 0.985 . S
C1754 C1755 1.363 . S
C1754 C1760 1.379 . S
C1754 N1762 1.356 . S
C1755 C1754 1.363 . S
C1755 C1761 1.363 . S
C1756 C1757 1.363 . S
C1756 C1761 1.379 . S
C1756 N1763 1.356 . S
C1757 C1756 1.363 . S
C1757 C1760 1.363 . S
N1758 C1760 1.356 . S
N1758 H1770 0.984 . S
N1758 H1771 0.985 . S
N1759 C1761 1.356 . S
N1759 H1764 0.984 . S
N1759 H1765 0.985 . S
C1760 C1754 1.379 . S
C1760 C1757 1.363 . S
C1760 N1758 1.356 . S
C1761 C1755 1.363 . S
C1761 C1756 1.379 . S
C1761 N1759 1.356 . S
N1762 C1754 1.356 . S
N1762 H1768 0.984 . S
N1762 H1769 0.984 . S
N1763 C1756 1.356 . S
N1763 H1766 0.984 . S
N1763 H1767 0.985 . S
H1764 N1759 0.984 . S
H1765 N1759 0.985 . S
H1766 N1763 0.984 . S
H1767 N1763 0.985 . S
H1768 N1762 0.984 . S
H1769 N1762 0.984 . S
H1770 N1758 0.984 . S
H1771 N1758 0.985 . S
C1772 C1773 1.363 . S
C1772 C1778 1.379 . S
C1772 N1780 1.356 . S
C1773 C1772 1.363 . S
C1773 C1779 1.363 . S
C1774 C1775 1.363 . S
C1774 C1779 1.379 . S
C1774 N1781 1.356 . S
C1775 C1774 1.363 . S
C1775 C1778 1.363 . S
N1776 C1778 1.356 . S
N1776 H1788 0.984 . S
N1776 H1789 0.985 . S
N1777 C1779 1.356 . S
N1777 H1782 0.984 . S
N1777 H1783 0.985 . S
C1778 C1772 1.379 . S
C1778 C1775 1.363 . S
C1778 N1776 1.356 . S
C1779 C1773 1.363 . S
C1779 C1774 1.379 . S
C1779 N1777 1.356 . S
N1780 C1772 1.356 . S
N1780 H1786 0.984 . S
N1780 H1787 0.984 . S
N1781 C1774 1.356 . S
N1781 H1784 0.984 . S
N1781 H1785 0.985 . S
H1782 N1777 0.984 . S
H1783 N1777 0.985 . S
H1784 N1781 0.984 . S
H1785 N1781 0.985 . S
H1786 N1780 0.984 . S
H1787 N1780 0.984 . S
H1788 N1776 0.984 . S
H1789 N1776 0.985 . S
C1790 C1791 1.363 . S
C1790 C1796 1.379 . S
C1790 N1798 1.356 . S
C1791 C1790 1.363 . S
C1791 C1797 1.363 . S
C1792 C1793 1.363 . S
C1792 C1797 1.379 . S
C1792 N1799 1.356 . S
C1793 C1792 1.363 . S
C1793 C1796 1.363 . S
N1794 C1796 1.356 . S
N1794 H1806 0.984 . S
N1794 H1807 0.985 . S
N1795 C1797 1.356 . S
N1795 H1800 0.984 . S
N1795 H1801 0.985 . S
C1796 C1790 1.379 . S
C1796 C1793 1.363 . S
C1796 N1794 1.356 . S
C1797 C1791 1.363 . S
C1797 C1792 1.379 . S
C1797 N1795 1.356 . S
N1798 C1790 1.356 . S
N1798 H1804 0.984 . S
N1798 H1805 0.984 . S
N1799 C1792 1.356 . S
N1799 H1802 0.984 . S
N1799 H1803 0.985 . S
H1800 N1795 0.984 . S
H1801 N1795 0.985 . S
H1802 N1799 0.984 . S
H1803 N1799 0.985 . S
H1804 N1798 0.984 . S
H1805 N1798 0.984 . S
H1806 N1794 0.984 . S
H1807 N1794 0.985 . S
C1808 C1809 1.363 . S
C1808 C1814 1.379 . S
C1808 N1816 1.356 . S
C1809 C1808 1.363 . S
C1809 C1815 1.363 . S
C1810 C1811 1.363 . S
C1810 C1815 1.379 . S
C1810 N1817 1.356 . S
C1811 C1810 1.363 . S
C1811 C1814 1.363 . S
N1812 C1814 1.356 . S
N1812 H1824 0.984 . S
N1812 H1825 0.985 . S
N1813 C1815 1.356 . S
N1813 H1818 0.984 . S
N1813 H1819 0.985 . S
C1814 C1808 1.379 . S
C1814 C1811 1.363 . S
C1814 N1812 1.356 . S
C1815 C1809 1.363 . S
C1815 C1810 1.379 . S
C1815 N1813 1.356 . S
N1816 C1808 1.356 . S
N1816 H1822 0.984 . S
N1816 H1823 0.984 . S
N1817 C1810 1.356 . S
N1817 H1820 0.984 . S
N1817 H1821 0.985 . S
H1818 N1813 0.984 . S
H1819 N1813 0.985 . S
H1820 N1817 0.984 . S
H1821 N1817 0.985 . S
H1822 N1816 0.984 . S
H1823 N1816 0.984 . S
H1824 N1812 0.984 . S
H1825 N1812 0.985 . S
C1826 C1827 1.363 . S
C1826 C1832 1.379 . S
C1826 N1834 1.356 . S
C1827 C1826 1.363 . S
C1827 C1833 1.363 . S
C1828 C1829 1.363 . S
C1828 C1833 1.379 . S
C1828 N1835 1.356 . S
C1829 C1828 1.363 . S
C1829 C1832 1.363 . S
N1830 C1832 1.356 . S
N1830 H1842 0.984 . S
N1830 H1843 0.985 . S
N1831 C1833 1.356 . S
N1831 H1836 0.984 . S
N1831 H1837 0.985 . S
C1832 C1826 1.379 . S
C1832 C1829 1.363 . S
C1832 N1830 1.356 . S
C1833 C1827 1.363 . S
C1833 C1828 1.379 . S
C1833 N1831 1.356 . S
N1834 C1826 1.356 . S
N1834 H1840 0.984 . S
N1834 H1841 0.984 . S
N1835 C1828 1.356 . S
N1835 H1838 0.984 . S
N1835 H1839 0.985 . S
H1836 N1831 0.984 . S
H1837 N1831 0.985 . S
H1838 N1835 0.984 . S
H1839 N1835 0.985 . S
H1840 N1834 0.984 . S
H1841 N1834 0.984 . S
H1842 N1830 0.984 . S
H1843 N1830 0.985 . S
C1844 C1845 1.363 . S
C1844 C1850 1.379 . S
C1844 N1852 1.356 . S
C1845 C1844 1.363 . S
C1845 C1851 1.363 . S
C1846 C1847 1.363 . S
C1846 C1851 1.379 . S
C1846 N1853 1.356 . S
C1847 C1846 1.363 . S
C1847 C1850 1.363 . S
N1848 C1850 1.356 . S
N1848 H1860 0.984 . S
N1848 H1861 0.985 . S
N1849 C1851 1.356 . S
N1849 H1854 0.984 . S
N1849 H1855 0.985 . S
C1850 C1844 1.379 . S
C1850 C1847 1.363 . S
C1850 N1848 1.356 . S
C1851 C1845 1.363 . S
C1851 C1846 1.379 . S
C1851 N1849 1.356 . S
N1852 C1844 1.356 . S
N1852 H1858 0.984 . S
N1852 H1859 0.984 . S
N1853 C1846 1.356 . S
N1853 H1856 0.984 . S
N1853 H1857 0.985 . S
H1854 N1849 0.984 . S
H1855 N1849 0.985 . S
H1856 N1853 0.984 . S
H1857 N1853 0.985 . S
H1858 N1852 0.984 . S
H1859 N1852 0.984 . S
H1860 N1848 0.984 . S
H1861 N1848 0.985 . S
C1862 C1863 1.363 . S
C1862 C1868 1.379 . S
C1862 N1870 1.356 . S
C1863 C1862 1.363 . S
C1863 C1869 1.363 . S
C1864 C1865 1.363 . S
C1864 C1869 1.379 . S
C1864 N1871 1.356 1_565 S
C1865 C1864 1.363 . S
C1865 C1868 1.363 . S
N1866 C1868 1.356 . S
N1866 H1878 0.984 . S
N1866 H1879 0.985 . S
N1867 C1869 1.356 . S
N1867 H1872 0.984 . S
N1867 H1873 0.985 . S
C1868 C1862 1.379 . S
C1868 C1865 1.363 . S
C1868 N1866 1.356 . S
C1869 C1863 1.363 . S
C1869 C1864 1.379 . S
C1869 N1867 1.356 . S
N1870 C1862 1.356 . S
N1870 H1876 0.984 . S
N1870 H1877 0.984 . S
N1871 C1864 1.356 1_545 S
N1871 H1874 0.984 . S
N1871 H1875 0.985 . S
H1872 N1867 0.984 . S
H1873 N1867 0.985 . S
H1874 N1871 0.984 . S
H1875 N1871 0.985 . S
H1876 N1870 0.984 . S
H1877 N1870 0.984 . S
H1878 N1866 0.984 . S
H1879 N1866 0.985 . S
C1880 C1881 1.363 . S
C1880 C1886 1.379 . S
C1880 N1888 1.356 . S
C1881 C1880 1.363 . S
C1881 C1887 1.363 . S
C1882 C1883 1.363 . S
C1882 C1887 1.379 . S
C1882 N1889 1.356 . S
C1883 C1882 1.363 . S
C1883 C1886 1.363 . S
N1884 C1886 1.356 . S
N1884 H1896 0.984 . S
N1884 H1897 0.985 . S
N1885 C1887 1.356 . S
N1885 H1890 0.984 . S
N1885 H1891 0.985 . S
C1886 C1880 1.379 . S
C1886 C1883 1.363 . S
C1886 N1884 1.356 . S
C1887 C1881 1.363 . S
C1887 C1882 1.379 . S
C1887 N1885 1.356 . S
N1888 C1880 1.356 . S
N1888 H1894 0.984 . S
N1888 H1895 0.984 . S
N1889 C1882 1.356 . S
N1889 H1892 0.984 . S
N1889 H1893 0.985 . S
H1890 N1885 0.984 . S
H1891 N1885 0.985 . S
H1892 N1889 0.984 . S
H1893 N1889 0.985 . S
H1894 N1888 0.984 . S
H1895 N1888 0.984 . S
H1896 N1884 0.984 . S
H1897 N1884 0.985 . S
C1898 C1899 1.363 . S
C1898 C1904 1.379 . S
C1898 N1906 1.356 . S
C1899 C1898 1.363 . S
C1899 C1905 1.363 1_554 S
C1900 C1901 1.363 . S
C1900 C1905 1.379 1_554 S
C1900 N1907 1.356 1_554 S
C1901 C1900 1.363 . S
C1901 C1904 1.363 . S
N1902 C1904 1.356 . S
N1902 H1914 0.984 . S
N1902 H1915 0.985 . S
N1903 C1905 1.356 . S
N1903 H1908 0.984 . S
N1903 H1909 0.985 . S
C1904 C1898 1.379 . S
C1904 C1901 1.363 . S
C1904 N1902 1.356 . S
C1905 C1899 1.363 1_556 S
C1905 C1900 1.379 1_556 S
C1905 N1903 1.356 . S
N1906 C1898 1.356 . S
N1906 H1912 0.984 . S
N1906 H1913 0.984 . S
N1907 C1900 1.356 1_556 S
N1907 H1910 0.984 1_556 S
N1907 H1911 0.985 . S
H1908 N1903 0.984 . S
H1909 N1903 0.985 . S
H1910 N1907 0.984 1_554 S
H1911 N1907 0.985 . S
H1912 N1906 0.984 . S
H1913 N1906 0.984 . S
H1914 N1902 0.984 . S
H1915 N1902 0.985 . S
C1916 C1917 1.363 . S
C1916 C1922 1.379 . S
C1916 N1924 1.356 . S
C1917 C1916 1.363 . S
C1917 C1923 1.363 . S
C1918 C1919 1.363 . S
C1918 C1923 1.379 . S
C1918 N1925 1.356 . S
C1919 C1918 1.363 . S
C1919 C1922 1.363 . S
N1920 C1922 1.356 . S
N1920 H1932 0.984 . S
N1920 H1933 0.985 . S
N1921 C1923 1.356 . S
N1921 H1926 0.984 . S
N1921 H1927 0.985 . S
C1922 C1916 1.379 . S
C1922 C1919 1.363 . S
C1922 N1920 1.356 . S
C1923 C1917 1.363 . S
C1923 C1918 1.379 . S
C1923 N1921 1.356 . S
N1924 C1916 1.356 . S
N1924 H1930 0.984 . S
N1924 H1931 0.984 . S
N1925 C1918 1.356 . S
N1925 H1928 0.984 . S
N1925 H1929 0.985 . S
H1926 N1921 0.984 . S
H1927 N1921 0.985 . S
H1928 N1925 0.984 . S
H1929 N1925 0.985 . S
H1930 N1924 0.984 . S
H1931 N1924 0.984 . S
H1932 N1920 0.984 . S
H1933 N1920 0.985 . S
C1934 C1935 1.363 . S
C1934 C1940 1.379 . S
C1934 N1942 1.356 . S
C1935 C1934 1.363 . S
C1935 C1941 1.363 . S
C1936 C1937 1.363 . S
C1936 C1941 1.379 . S
C1936 N1943 1.356 . S
C1937 C1936 1.363 . S
C1937 C1940 1.363 . S
N1938 C1940 1.356 . S
N1938 H1950 0.984 . S
N1938 H1951 0.985 . S
N1939 C1941 1.356 . S
N1939 H1944 0.984 . S
N1939 H1945 0.985 . S
C1940 C1934 1.379 . S
C1940 C1937 1.363 . S
C1940 N1938 1.356 . S
C1941 C1935 1.363 . S
C1941 C1936 1.379 . S
C1941 N1939 1.356 . S
N1942 C1934 1.356 . S
N1942 H1948 0.984 . S
N1942 H1949 0.984 . S
N1943 C1936 1.356 . S
N1943 H1946 0.984 . S
N1943 H1947 0.985 . S
H1944 N1939 0.984 . S
H1945 N1939 0.985 . S
H1946 N1943 0.984 . S
H1947 N1943 0.985 . S
H1948 N1942 0.984 . S
H1949 N1942 0.984 . S
H1950 N1938 0.984 . S
H1951 N1938 0.985 . S
C1952 C1953 1.363 . S
C1952 C1958 1.379 . S
C1952 N1960 1.356 . S
C1953 C1952 1.363 . S
C1953 C1959 1.363 . S
C1954 C1955 1.363 . S
C1954 C1959 1.379 . S
C1954 N1961 1.356 . S
C1955 C1954 1.363 . S
C1955 C1958 1.363 . S
N1956 C1958 1.356 . S
N1956 H1968 0.984 . S
N1956 H1969 0.985 . S
N1957 C1959 1.356 . S
N1957 H1962 0.984 . S
N1957 H1963 0.985 . S
C1958 C1952 1.379 . S
C1958 C1955 1.363 . S
C1958 N1956 1.356 . S
C1959 C1953 1.363 . S
C1959 C1954 1.379 . S
C1959 N1957 1.356 . S
N1960 C1952 1.356 . S
N1960 H1966 0.984 . S
N1960 H1967 0.984 . S
N1961 C1954 1.356 . S
N1961 H1964 0.984 . S
N1961 H1965 0.985 . S
H1962 N1957 0.984 . S
H1963 N1957 0.985 . S
H1964 N1961 0.984 . S
H1965 N1961 0.985 . S
H1966 N1960 0.984 . S
H1967 N1960 0.984 . S
H1968 N1956 0.984 . S
H1969 N1956 0.985 . S
C1970 C1971 1.363 . S
C1970 C1976 1.379 . S
C1970 N1978 1.356 . S
C1971 C1970 1.363 . S
C1971 C1977 1.363 . S
C1972 C1973 1.363 . S
C1972 C1977 1.379 . S
C1972 N1979 1.356 . S
C1973 C1972 1.363 . S
C1973 C1976 1.363 . S
N1974 C1976 1.356 . S
N1974 H1986 0.984 . S
N1974 H1987 0.985 . S
N1975 C1977 1.356 . S
N1975 H1980 0.984 . S
N1975 H1981 0.985 . S
C1976 C1970 1.379 . S
C1976 C1973 1.363 . S
C1976 N1974 1.356 . S
C1977 C1971 1.363 . S
C1977 C1972 1.379 . S
C1977 N1975 1.356 . S
N1978 C1970 1.356 . S
N1978 H1984 0.984 . S
N1978 H1985 0.984 . S
N1979 C1972 1.356 . S
N1979 H1982 0.984 . S
N1979 H1983 0.985 . S
H1980 N1975 0.984 . S
H1981 N1975 0.985 . S
H1982 N1979 0.984 . S
H1983 N1979 0.985 . S
H1984 N1978 0.984 . S
H1985 N1978 0.984 . S
H1986 N1974 0.984 . S
H1987 N1974 0.985 . S
C1988 C1989 1.363 . S
C1988 C1994 1.379 . S
C1988 N1996 1.356 . S
C1989 C1988 1.363 . S
C1989 C1995 1.363 . S
C1990 C1991 1.363 . S
C1990 C1995 1.379 . S
C1990 N1997 1.356 . S
C1991 C1990 1.363 . S
C1991 C1994 1.363 . S
N1992 C1994 1.356 . S
N1992 H2004 0.984 . S
N1992 H2005 0.985 . S
N1993 C1995 1.356 . S
N1993 H1998 0.984 . S
N1993 H1999 0.985 . S
C1994 C1988 1.379 . S
C1994 C1991 1.363 . S
C1994 N1992 1.356 . S
C1995 C1989 1.363 . S
C1995 C1990 1.379 . S
C1995 N1993 1.356 . S
N1996 C1988 1.356 . S
N1996 H2002 0.984 . S
N1996 H2003 0.984 . S
N1997 C1990 1.356 . S
N1997 H2000 0.984 . S
N1997 H2001 0.985 . S
H1998 N1993 0.984 . S
H1999 N1993 0.985 . S
H2000 N1997 0.984 . S
H2001 N1997 0.985 . S
H2002 N1996 0.984 . S
H2003 N1996 0.984 . S
H2004 N1992 0.984 . S
H2005 N1992 0.985 . S
C2006 C2007 1.363 . S
C2006 C2012 1.379 . S
C2006 N2014 1.356 . S
C2007 C2006 1.363 . S
C2007 C2013 1.363 . S
C2008 C2009 1.363 . S
C2008 C2013 1.379 . S
C2008 N2015 1.356 . S
C2009 C2008 1.363 . S
C2009 C2012 1.363 . S
N2010 C2012 1.356 . S
N2010 H2022 0.984 . S
N2010 H2023 0.985 . S
N2011 C2013 1.356 . S
N2011 H2016 0.984 . S
N2011 H2017 0.985 . S
C2012 C2006 1.379 . S
C2012 C2009 1.363 . S
C2012 N2010 1.356 . S
C2013 C2007 1.363 . S
C2013 C2008 1.379 . S
C2013 N2011 1.356 . S
N2014 C2006 1.356 . S
N2014 H2020 0.984 . S
N2014 H2021 0.984 . S
N2015 C2008 1.356 . S
N2015 H2018 0.984 . S
N2015 H2019 0.985 . S
H2016 N2011 0.984 . S
H2017 N2011 0.985 . S
H2018 N2015 0.984 . S
H2019 N2015 0.985 . S
H2020 N2014 0.984 . S
H2021 N2014 0.984 . S
H2022 N2010 0.984 . S
H2023 N2010 0.985 . S
C2024 C2025 1.363 . S
C2024 C2030 1.379 1_556 S
C2024 N2032 1.356 . S
C2025 C2024 1.363 . S
C2025 C2031 1.363 . S
C2026 C2027 1.363 . S
C2026 C2031 1.379 . S
C2026 N2033 1.356 . S
C2027 C2026 1.363 . S
C2027 C2030 1.363 1_556 S
N2028 C2030 1.356 . S
N2028 H2040 0.984 . S
N2028 H2041 0.985 . S
N2029 C2031 1.356 . S
N2029 H2034 0.984 . S
N2029 H2035 0.985 . S
C2030 C2024 1.379 1_554 S
C2030 C2027 1.363 1_554 S
C2030 N2028 1.356 . S
C2031 C2025 1.363 . S
C2031 C2026 1.379 . S
C2031 N2029 1.356 . S
N2032 C2024 1.356 . S
N2032 H2038 0.984 1_556 S
N2032 H2039 0.984 . S
N2033 C2026 1.356 . S
N2033 H2036 0.984 . S
N2033 H2037 0.985 . S
H2034 N2029 0.984 . S
H2035 N2029 0.985 . S
H2036 N2033 0.984 . S
H2037 N2033 0.985 . S
H2038 N2032 0.984 1_554 S
H2039 N2032 0.984 . S
H2040 N2028 0.984 . S
H2041 N2028 0.985 . S
C2042 C2043 1.363 . S
C2042 C2048 1.379 . S
C2042 N2050 1.356 . S
C2043 C2042 1.363 . S
C2043 C2049 1.363 . S
C2044 C2045 1.363 . S
C2044 C2049 1.379 . S
C2044 N2051 1.356 . S
C2045 C2044 1.363 . S
C2045 C2048 1.363 . S
N2046 C2048 1.356 . S
N2046 H2058 0.984 . S
N2046 H2059 0.985 . S
N2047 C2049 1.356 . S
N2047 H2052 0.984 . S
N2047 H2053 0.985 . S
C2048 C2042 1.379 . S
C2048 C2045 1.363 . S
C2048 N2046 1.356 . S
C2049 C2043 1.363 . S
C2049 C2044 1.379 . S
C2049 N2047 1.356 . S
N2050 C2042 1.356 . S
N2050 H2056 0.984 . S
N2050 H2057 0.984 . S
N2051 C2044 1.356 . S
N2051 H2054 0.984 . S
N2051 H2055 0.985 . S
H2052 N2047 0.984 . S
H2053 N2047 0.985 . S
H2054 N2051 0.984 . S
H2055 N2051 0.985 . S
H2056 N2050 0.984 . S
H2057 N2050 0.984 . S
H2058 N2046 0.984 . S
H2059 N2046 0.985 . S
C2060 C2061 1.363 . S
C2060 C2066 1.379 . S
C2060 N2068 1.356 . S
C2061 C2060 1.363 . S
C2061 C2067 1.363 . S
C2062 C2063 1.363 . S
C2062 C2067 1.379 . S
C2062 N2069 1.356 . S
C2063 C2062 1.363 . S
C2063 C2066 1.363 . S
N2064 C2066 1.345 1_655 S
N2064 H2076 0.994 . S
N2064 H2077 0.986 1_655 S
N2065 C2067 1.356 . S
N2065 H2070 0.984 . S
N2065 H2071 0.985 . S
C2066 C2060 1.379 . S
C2066 C2063 1.363 . S
C2066 N2064 1.345 1_455 S
C2067 C2061 1.363 . S
C2067 C2062 1.379 . S
C2067 N2065 1.356 . S
N2068 C2060 1.356 . S
N2068 H2074 0.984 1_455 S
N2068 H2075 0.984 . S
N2069 C2062 1.356 . S
N2069 H2072 0.984 . S
N2069 H2073 0.985 . S
H2070 N2065 0.984 . S
H2071 N2065 0.985 . S
H2072 N2069 0.984 . S
H2073 N2069 0.985 . S
H2074 N2068 0.984 1_655 S
H2075 N2068 0.984 . S
H2076 N2064 0.994 . S
H2077 N2064 0.986 1_455 S
C2078 C2079 1.363 . S
C2078 C2084 1.379 . S
C2078 N2086 1.356 . S
C2079 C2078 1.363 . S
C2079 C2085 1.363 . S
C2080 C2081 1.363 . S
C2080 C2085 1.379 . S
C2080 N2087 1.356 . S
C2081 C2080 1.363 . S
C2081 C2084 1.363 . S
N2082 C2084 1.356 . S
N2082 H2094 0.984 . S
N2082 H2095 0.985 . S
N2083 C2085 1.356 . S
N2083 H2088 0.984 . S
N2083 H2089 0.985 . S
C2084 C2078 1.379 . S
C2084 C2081 1.363 . S
C2084 N2082 1.356 . S
C2085 C2079 1.363 . S
C2085 C2080 1.379 . S
C2085 N2083 1.356 . S
N2086 C2078 1.356 . S
N2086 H2092 0.984 . S
N2086 H2093 0.984 . S
N2087 C2080 1.356 . S
N2087 H2090 0.984 . S
N2087 H2091 0.985 . S
H2088 N2083 0.984 . S
H2089 N2083 0.985 . S
H2090 N2087 0.984 . S
H2091 N2087 0.985 . S
H2092 N2086 0.984 . S
H2093 N2086 0.984 . S
H2094 N2082 0.984 . S
H2095 N2082 0.985 . S
C2096 C2097 1.363 . S
C2096 C2102 1.379 . S
C2096 N2104 1.356 . S
C2097 C2096 1.363 . S
C2097 C2103 1.363 . S
C2098 C2099 1.363 . S
C2098 C2103 1.379 . S
C2098 N2105 1.356 . S
C2099 C2098 1.363 . S
C2099 C2102 1.363 . S
N2100 C2102 1.356 . S
N2100 H2112 0.984 . S
N2100 H2113 0.985 . S
N2101 C2103 1.356 . S
N2101 H2106 0.984 . S
N2101 H2107 0.985 . S
C2102 C2096 1.379 . S
C2102 C2099 1.363 . S
C2102 N2100 1.356 . S
C2103 C2097 1.363 . S
C2103 C2098 1.379 . S
C2103 N2101 1.356 . S
N2104 C2096 1.356 . S
N2104 H2110 0.984 . S
N2104 H2111 0.984 . S
N2105 C2098 1.356 . S
N2105 H2108 0.984 . S
N2105 H2109 0.985 . S
H2106 N2101 0.984 . S
H2107 N2101 0.985 . S
H2108 N2105 0.984 . S
H2109 N2105 0.985 . S
H2110 N2104 0.984 . S
H2111 N2104 0.984 . S
H2112 N2100 0.984 . S
H2113 N2100 0.985 . S
C2114 C2115 1.363 . S
C2114 C2120 1.379 . S
C2114 N2122 1.356 . S
C2115 C2114 1.363 . S
C2115 C2121 1.363 . S
C2116 C2117 1.363 . S
C2116 C2121 1.379 . S
C2116 N2123 1.356 . S
C2117 C2116 1.363 . S
C2117 C2120 1.363 . S
N2118 C2120 1.356 . S
N2118 H2130 0.984 . S
N2118 H2131 0.985 . S
N2119 C2121 1.356 . S
N2119 H2124 0.984 . S
N2119 H2125 0.985 . S
C2120 C2114 1.379 . S
C2120 C2117 1.363 . S
C2120 N2118 1.356 . S
C2121 C2115 1.363 . S
C2121 C2116 1.379 . S
C2121 N2119 1.356 . S
N2122 C2114 1.356 . S
N2122 H2128 0.984 . S
N2122 H2129 0.984 . S
N2123 C2116 1.356 . S
N2123 H2126 0.984 . S
N2123 H2127 0.985 . S
H2124 N2119 0.984 . S
H2125 N2119 0.985 . S
H2126 N2123 0.984 . S
H2127 N2123 0.985 . S
H2128 N2122 0.984 . S
H2129 N2122 0.984 . S
H2130 N2118 0.984 . S
H2131 N2118 0.985 . S
C2132 C2133 1.363 . S
C2132 C2138 1.379 . S
C2132 N2140 1.356 . S
C2133 C2132 1.363 . S
C2133 C2139 1.363 . S
C2134 C2135 1.363 . S
C2134 C2139 1.379 . S
C2134 N2141 1.356 1_655 S
C2135 C2134 1.363 . S
C2135 C2138 1.363 . S
N2136 C2138 1.356 . S
N2136 H2148 0.984 . S
N2136 H2149 0.985 . S
N2137 C2139 1.356 . S
N2137 H2142 0.984 . S
N2137 H2143 0.985 . S
C2138 C2132 1.379 . S
C2138 C2135 1.363 . S
C2138 N2136 1.356 . S
C2139 C2133 1.363 . S
C2139 C2134 1.379 . S
C2139 N2137 1.356 . S
N2140 C2132 1.356 . S
N2140 H2146 0.984 . S
N2140 H2147 0.984 . S
N2141 C2134 1.356 1_455 S
N2141 H2144 0.984 . S
N2141 H2145 0.985 . S
H2142 N2137 0.984 . S
H2143 N2137 0.985 . S
H2144 N2141 0.984 . S
H2145 N2141 0.985 . S
H2146 N2140 0.984 . S
H2147 N2140 0.984 . S
H2148 N2136 0.984 . S
H2149 N2136 0.985 . S
C2150 C2151 1.363 . S
C2150 C2156 1.379 . S
C2150 N2158 1.356 . S
C2151 C2150 1.363 . S
C2151 C2157 1.363 . S
C2152 C2153 1.363 . S
C2152 C2157 1.379 . S
C2152 N2159 1.356 . S
C2153 C2152 1.363 . S
C2153 C2156 1.363 . S
N2154 C2156 1.356 . S
N2154 H2166 0.984 . S
N2154 H2167 0.985 . S
N2155 C2157 1.356 . S
N2155 H2160 0.984 . S
N2155 H2161 0.985 . S
C2156 C2150 1.379 . S
C2156 C2153 1.363 . S
C2156 N2154 1.356 . S
C2157 C2151 1.363 . S
C2157 C2152 1.379 . S
C2157 N2155 1.356 . S
N2158 C2150 1.356 . S
N2158 H2164 0.984 . S
N2158 H2165 0.984 . S
N2159 C2152 1.356 . S
N2159 H2162 0.984 . S
N2159 H2163 0.985 . S
H2160 N2155 0.984 . S
H2161 N2155 0.985 . S
H2162 N2159 0.984 . S
H2163 N2159 0.985 . S
H2164 N2158 0.984 . S
H2165 N2158 0.984 . S
H2166 N2154 0.984 . S
H2167 N2154 0.985 . S
C2168 C2169 1.363 . S
C2168 C2174 1.379 . S
C2168 N2176 1.356 . S
C2169 C2168 1.363 . S
C2169 C2175 1.363 . S
C2170 C2171 1.363 . S
C2170 C2175 1.379 . S
C2170 N2177 1.356 . S
C2171 C2170 1.363 . S
C2171 C2174 1.363 . S
N2172 C2174 1.356 . S
N2172 H2184 0.984 . S
N2172 H2185 0.985 . S
N2173 C2175 1.356 . S
N2173 H2178 0.984 . S
N2173 H2179 0.985 . S
C2174 C2168 1.379 . S
C2174 C2171 1.363 . S
C2174 N2172 1.356 . S
C2175 C2169 1.363 . S
C2175 C2170 1.379 . S
C2175 N2173 1.356 . S
N2176 C2168 1.356 . S
N2176 H2182 0.984 . S
N2176 H2183 0.984 . S
N2177 C2170 1.356 . S
N2177 H2180 0.984 . S
N2177 H2181 0.985 . S
H2178 N2173 0.984 . S
H2179 N2173 0.985 . S
H2180 N2177 0.984 . S
H2181 N2177 0.985 . S
H2182 N2176 0.984 . S
H2183 N2176 0.984 . S
H2184 N2172 0.984 . S
H2185 N2172 0.985 . S
C2186 C2187 1.363 . S
C2186 C2192 1.379 . S
C2186 N2194 1.356 . S
C2187 C2186 1.363 . S
C2187 C2193 1.363 . S
C2188 C2189 1.363 . S
C2188 C2193 1.379 . S
C2188 N2195 1.356 . S
C2189 C2188 1.363 . S
C2189 C2192 1.363 . S
N2190 C2192 1.356 . S
N2190 H2202 0.984 . S
N2190 H2203 0.985 . S
N2191 C2193 1.356 . S
N2191 H2196 0.984 . S
N2191 H2197 0.985 . S
C2192 C2186 1.379 . S
C2192 C2189 1.363 . S
C2192 N2190 1.356 . S
C2193 C2187 1.363 . S
C2193 C2188 1.379 . S
C2193 N2191 1.356 . S
N2194 C2186 1.356 . S
N2194 H2200 0.984 . S
N2194 H2201 0.984 . S
N2195 C2188 1.356 . S
N2195 H2198 0.984 . S
N2195 H2199 0.985 . S
H2196 N2191 0.984 . S
H2197 N2191 0.985 . S
H2198 N2195 0.984 . S
H2199 N2195 0.985 . S
H2200 N2194 0.984 . S
H2201 N2194 0.984 . S
H2202 N2190 0.984 . S
H2203 N2190 0.985 . S
C2204 C2205 1.363 . S
C2204 C2210 1.379 . S
C2204 N2212 1.356 . S
C2205 C2204 1.363 . S
C2205 C2211 1.363 . S
C2206 C2207 1.363 . S
C2206 C2211 1.379 . S
C2206 N2213 1.356 . S
C2207 C2206 1.363 . S
C2207 C2210 1.363 . S
N2208 C2210 1.356 . S
N2208 H2220 0.984 . S
N2208 H2221 0.985 . S
N2209 C2211 1.356 . S
N2209 H2214 0.984 . S
N2209 H2215 0.985 . S
C2210 C2204 1.379 . S
C2210 C2207 1.363 . S
C2210 N2208 1.356 . S
C2211 C2205 1.363 . S
C2211 C2206 1.379 . S
C2211 N2209 1.356 . S
N2212 C2204 1.356 . S
N2212 H2218 0.984 . S
N2212 H2219 0.984 . S
N2213 C2206 1.356 . S
N2213 H2216 0.984 . S
N2213 H2217 0.985 . S
H2214 N2209 0.984 . S
H2215 N2209 0.985 . S
H2216 N2213 0.984 . S
H2217 N2213 0.985 . S
H2218 N2212 0.984 . S
H2219 N2212 0.984 . S
H2220 N2208 0.984 . S
H2221 N2208 0.985 . S
C2222 C2223 1.363 . S
C2222 C2228 1.379 . S
C2222 N2230 1.356 . S
C2223 C2222 1.363 . S
C2223 C2229 1.363 . S
C2224 C2225 1.363 . S
C2224 C2229 1.379 . S
C2224 N2231 1.356 . S
C2225 C2224 1.363 . S
C2225 C2228 1.363 . S
N2226 C2228 1.356 . S
N2226 H2238 0.984 . S
N2226 H2239 0.985 . S
N2227 C2229 1.356 . S
N2227 H2232 0.984 . S
N2227 H2233 0.985 . S
C2228 C2222 1.379 . S
C2228 C2225 1.363 . S
C2228 N2226 1.356 . S
C2229 C2223 1.363 . S
C2229 C2224 1.379 . S
C2229 N2227 1.356 . S
N2230 C2222 1.356 . S
N2230 H2236 0.984 . S
N2230 H2237 0.984 . S
N2231 C2224 1.356 . S
N2231 H2234 0.984 . S
N2231 H2235 0.985 . S
H2232 N2227 0.984 . S
H2233 N2227 0.985 . S
H2234 N2231 0.984 . S
H2235 N2231 0.985 . S
H2236 N2230 0.984 . S
H2237 N2230 0.984 . S
H2238 N2226 0.984 . S
H2239 N2226 0.985 . S
C2240 C2241 1.363 . S
C2240 C2246 1.379 . S
C2240 N2248 1.356 . S
C2241 C2240 1.363 . S
C2241 C2247 1.363 . S
C2242 C2243 1.363 . S
C2242 C2247 1.379 . S
C2242 N2249 1.356 . S
C2243 C2242 1.363 . S
C2243 C2246 1.363 . S
N2244 C2246 1.356 . S
N2244 H2256 0.984 . S
N2244 H2257 0.985 . S
N2245 C2247 1.356 . S
N2245 H2250 0.984 . S
N2245 H2251 0.985 . S
C2246 C2240 1.379 . S
C2246 C2243 1.363 . S
C2246 N2244 1.356 . S
C2247 C2241 1.363 . S
C2247 C2242 1.379 . S
C2247 N2245 1.356 . S
N2248 C2240 1.356 . S
N2248 H2254 0.984 . S
N2248 H2255 0.984 . S
N2249 C2242 1.356 . S
N2249 H2252 0.984 . S
N2249 H2253 0.985 . S
H2250 N2245 0.984 . S
H2251 N2245 0.985 . S
H2252 N2249 0.984 . S
H2253 N2249 0.985 . S
H2254 N2248 0.984 . S
H2255 N2248 0.984 . S
H2256 N2244 0.984 . S
H2257 N2244 0.985 . S
C2258 C2259 1.363 . S
C2258 C2264 1.379 . S
C2258 N2266 1.356 . S
C2259 C2258 1.363 . S
C2259 C2265 1.363 . S
C2260 C2261 1.363 . S
C2260 C2265 1.379 . S
C2260 N2267 1.356 . S
C2261 C2260 1.363 . S
C2261 C2264 1.363 . S
N2262 C2264 1.356 1_545 S
N2262 H2274 0.984 . S
N2262 H2275 0.985 . S
N2263 C2265 1.356 . S
N2263 H2268 0.984 . S
N2263 H2269 0.985 . S
C2264 C2258 1.379 . S
C2264 C2261 1.363 . S
C2264 N2262 1.356 1_565 S
C2265 C2259 1.363 . S
C2265 C2260 1.379 . S
C2265 N2263 1.356 . S
N2266 C2258 1.356 . S
N2266 H2272 0.984 . S
N2266 H2273 0.984 . S
N2267 C2260 1.356 . S
N2267 H2270 0.984 . S
N2267 H2271 0.985 . S
H2268 N2263 0.984 . S
H2269 N2263 0.985 . S
H2270 N2267 0.984 . S
H2271 N2267 0.985 . S
H2272 N2266 0.984 . S
H2273 N2266 0.984 . S
H2274 N2262 0.984 . S
H2275 N2262 0.985 . S
C2276 C2277 1.363 . S
C2276 C2282 1.379 . S
C2276 N2284 1.356 . S
C2277 C2276 1.363 . S
C2277 C2283 1.363 . S
C2278 C2279 1.363 . S
C2278 C2283 1.379 . S
C2278 N2285 1.356 . S
C2279 C2278 1.363 . S
C2279 C2282 1.363 . S
N2280 C2282 1.356 . S
N2280 H2292 0.984 . S
N2280 H2293 0.985 . S
N2281 C2283 1.356 . S
N2281 H2286 0.984 . S
N2281 H2287 0.985 . S
C2282 C2276 1.379 . S
C2282 C2279 1.363 . S
C2282 N2280 1.356 . S
C2283 C2277 1.363 . S
C2283 C2278 1.379 . S
C2283 N2281 1.356 . S
N2284 C2276 1.356 . S
N2284 H2290 0.984 . S
N2284 H2291 0.984 . S
N2285 C2278 1.356 . S
N2285 H2288 0.984 . S
N2285 H2289 0.985 . S
H2286 N2281 0.984 . S
H2287 N2281 0.985 . S
H2288 N2285 0.984 . S
H2289 N2285 0.985 . S
H2290 N2284 0.984 . S
H2291 N2284 0.984 . S
H2292 N2280 0.984 . S
H2293 N2280 0.985 . S
C2294 C2295 1.363 . S
C2294 C2300 1.379 . S
C2294 N2302 1.356 1_554 S
C2295 C2294 1.363 . S
C2295 C2301 1.363 . S
C2296 C2297 1.363 . S
C2296 C2301 1.379 . S
C2296 N2303 1.356 . S
C2297 C2296 1.363 . S
C2297 C2300 1.363 . S
N2298 C2300 1.356 1_556 S
N2298 H2310 0.984 . S
N2298 H2311 0.985 . S
N2299 C2301 1.356 . S
N2299 H2304 0.984 . S
N2299 H2305 0.985 . S
C2300 C2294 1.379 . S
C2300 C2297 1.363 . S
C2300 N2298 1.356 1_554 S
C2301 C2295 1.363 . S
C2301 C2296 1.379 . S
C2301 N2299 1.356 . S
N2302 C2294 1.356 1_556 S
N2302 H2308 0.984 . S
N2302 H2309 0.985 . S
N2303 C2296 1.356 . S
N2303 H2306 0.984 . S
N2303 H2307 0.985 . S
H2304 N2299 0.984 . S
H2305 N2299 0.985 . S
H2306 N2303 0.984 . S
H2307 N2303 0.985 . S
H2308 N2302 0.984 . S
H2309 N2302 0.985 . S
H2310 N2298 0.984 . S
H2311 N2298 0.985 . S
C2312 C2313 1.363 . S
C2312 C2318 1.379 . S
C2312 N2320 1.356 . S
C2313 C2312 1.363 . S
C2313 C2319 1.363 . S
C2314 C2315 1.363 . S
C2314 C2319 1.379 . S
C2314 N2321 1.356 . S
C2315 C2314 1.363 . S
C2315 C2318 1.363 . S
N2316 C2318 1.356 . S
N2316 H2328 0.984 . S
N2316 H2329 0.985 . S
N2317 C2319 1.356 . S
N2317 H2322 0.984 . S
N2317 H2323 0.985 . S
C2318 C2312 1.379 . S
C2318 C2315 1.363 . S
C2318 N2316 1.356 . S
C2319 C2313 1.363 . S
C2319 C2314 1.379 . S
C2319 N2317 1.356 . S
N2320 C2312 1.356 . S
N2320 H2326 0.984 . S
N2320 H2327 0.984 . S
N2321 C2314 1.356 . S
N2321 H2324 0.984 . S
N2321 H2325 0.985 . S
H2322 N2317 0.984 . S
H2323 N2317 0.985 . S
H2324 N2321 0.984 . S
H2325 N2321 0.985 . S
H2326 N2320 0.984 . S
H2327 N2320 0.984 . S
H2328 N2316 0.984 . S
H2329 N2316 0.985 . S
C2330 C2331 1.363 . S
C2330 C2336 1.379 . S
C2330 N2338 1.356 . S
C2331 C2330 1.363 . S
C2331 C2337 1.363 . S
C2332 C2333 1.363 . S
C2332 C2337 1.379 . S
C2332 N2339 1.356 . S
C2333 C2332 1.363 . S
C2333 C2336 1.363 . S
N2334 C2336 1.356 1_556 S
N2334 H2346 0.984 . S
N2334 H2347 0.985 . S
N2335 C2337 1.356 . S
N2335 H2340 0.984 . S
N2335 H2341 0.985 . S
C2336 C2330 1.379 . S
C2336 C2333 1.363 . S
C2336 N2334 1.356 1_554 S
C2337 C2331 1.363 . S
C2337 C2332 1.379 . S
C2337 N2335 1.356 . S
N2338 C2330 1.356 . S
N2338 H2344 0.984 1_554 S
N2338 H2345 0.984 . S
N2339 C2332 1.356 . S
N2339 H2342 0.984 . S
N2339 H2343 0.985 . S
H2340 N2335 0.984 . S
H2341 N2335 0.985 . S
H2342 N2339 0.984 . S
H2343 N2339 0.985 . S
H2344 N2338 0.984 1_556 S
H2345 N2338 0.984 . S
H2346 N2334 0.984 . S
H2347 N2334 0.985 . S
C2348 C2349 1.363 . S
C2348 C2354 1.379 . S
C2348 N2356 1.356 . S
C2349 C2348 1.363 . S
C2349 C2355 1.363 . S
C2350 C2351 1.363 . S
C2350 C2355 1.379 . S
C2350 N2357 1.356 . S
C2351 C2350 1.363 . S
C2351 C2354 1.363 . S
N2352 C2354 1.356 . S
N2352 H2364 0.984 . S
N2352 H2365 0.985 . S
N2353 C2355 1.356 . S
N2353 H2358 0.984 . S
N2353 H2359 0.985 . S
C2354 C2348 1.379 . S
C2354 C2351 1.363 . S
C2354 N2352 1.356 . S
C2355 C2349 1.363 . S
C2355 C2350 1.379 . S
C2355 N2353 1.356 . S
N2356 C2348 1.356 . S
N2356 H2362 0.984 . S
N2356 H2363 0.984 . S
N2357 C2350 1.356 . S
N2357 H2360 0.984 . S
N2357 H2361 0.985 . S
H2358 N2353 0.984 . S
H2359 N2353 0.985 . S
H2360 N2357 0.984 . S
H2361 N2357 0.985 . S
H2362 N2356 0.984 . S
H2363 N2356 0.984 . S
H2364 N2352 0.984 . S
H2365 N2352 0.985 . S
C2366 C2367 1.363 . S
C2366 C2372 1.379 . S
C2366 N2374 1.356 . S
C2367 C2366 1.363 . S
C2367 C2373 1.363 . S
C2368 C2369 1.363 . S
C2368 C2373 1.379 . S
C2368 N2375 1.356 . S
C2369 C2368 1.363 . S
C2369 C2372 1.363 . S
N2370 C2372 1.356 . S
N2370 H2382 0.984 . S
N2370 H2383 0.985 . S
N2371 C2373 1.356 . S
N2371 H2376 0.984 . S
N2371 H2377 0.985 . S
C2372 C2366 1.379 . S
C2372 C2369 1.363 . S
C2372 N2370 1.356 . S
C2373 C2367 1.363 . S
C2373 C2368 1.379 . S
C2373 N2371 1.356 . S
N2374 C2366 1.356 . S
N2374 H2380 0.984 . S
N2374 H2381 0.984 . S
N2375 C2368 1.356 . S
N2375 H2378 0.984 . S
N2375 H2379 0.985 . S
H2376 N2371 0.984 . S
H2377 N2371 0.985 . S
H2378 N2375 0.984 . S
H2379 N2375 0.985 . S
H2380 N2374 0.984 . S
H2381 N2374 0.984 . S
H2382 N2370 0.984 . S
H2383 N2370 0.985 . S
C657 C109 1.543 1_455 S
C659 C340 1.282 1_556 S
C675 C65 1.558 . S
C677 C375 1.516 . S
C693 C75 1.245 . S
C695 C380 1.116 . S
C713 C405 1.390 . S
C711 C84 1.467 . S
C729 C25 1.454 . S
C731 C425 1.367 . S
C749 C440 1.098 . S
C747 C28 1.205 . S
C767 C475 1.549 . S
C765 C47 1.581 . S
C783 C9 1.589 . S
C785 C480 1.312 . S
C803 C355 1.686 1_655 S
C801 C233 1.798 . S
C819 C249 1.132 . S
C821 C365 1.055 . S
C839 C395 1.473 1_565 S
C837 C275 1.520 . S
C857 C400 1.193 . S
C855 C173 1.318 . S
C873 C224 1.329 . S
C875 C420 1.222 . S
C893 C455 1.449 . S
C891 C243 1.484 . S
C911 C465 1.072 . S
C909 C266 1.127 . S
C929 C495 1.589 . S
C927 C179 1.670 . S
C947 C345 1.400 . S
C945 C163 1.621 . S
C963 C289 1.781 . S
C965 C515 1.748 . S
C983 C525 1.448 . S
C981 C333 1.565 . S
C1001 C540 1.057 . S
C999 C308 1.139 . S
C1017 C123 1.576 . S
C1019 C485 1.377 . S
C1035 C126 1.612 . S
C1037 C385 1.509 . S
C1053 C327 1.805 . S
C1055 C575 1.791 . S
C1073 C580 1.119 . S
C1071 C299 1.242 . S
C1091 C338 1.290 . S
C1089 C67 1.541 . S
C1109 C594 1.535 . S
C1107 C98 1.549 . S
C1125 C89 1.253 . S
C1127 C378 1.125 . S
C1143 C79 1.512 . S
C1145 C568 1.423 . S
C1163 C428 1.388 . S
C1161 C11 1.478 . S
C1179 C51 1.233 . S
C1181 C518 1.111 . S
C1199 C474 1.583 1_556 S
C1197 C33 1.613 . S
C1217 C598 1.298 . S
C1215 C14 1.549 . S
C1235 C354 1.662 . S
C1233 C140 1.762 . S
C1253 C588 1.069 . S
C1251 C319 1.153 . S
C1269 C112 1.505 . S
C1271 C394 1.489 . S
C1287 C285 1.328 . S
C1289 C558 1.198 . S
C1305 C149 1.364 . S
C1307 C418 1.244 . S
C1325 C534 1.479 . S
C1323 C313 1.512 . S
C1341 C121 1.191 . S
C1343 C468 1.115 . S
C1359 C291 1.682 . S
C1361 C614 1.605 . S
C1377 C182 1.594 . S
C1379 C348 1.387 . S
C1395 C168 1.758 . S
C1397 C514 1.763 . S
C1413 C263 1.606 . S
C1415 C448 1.477 . S
C1431 C247 1.182 . S
C1433 C538 1.082 . S
C1451 C608 1.374 . S
C1449 C277 1.578 . S
C1467 C219 1.679 . S
C1469 C388 1.533 . S
C1487 C414 1.824 . S
C1485 C257 1.839 . S
C1505 C358 1.117 . S
C1503 C201 1.231 . S
C1521 C81 1.543 . S
C1523 C620 1.291 . S
C1541 C595 1.516 . S
C1539 C93 1.558 . S
C1557 C103 1.245 . S
C1559 C640 1.115 . S
C1575 C56 1.467 . S
C1577 C565 1.390 . S
C1593 C53 1.454 . S
C1595 C505 1.367 . S
C1613 C520 1.098 . S
C1611 C0 1.205 . S
C1631 C555 1.549 . S
C1629 C19 1.581 . S
C1649 C600 1.312 . S
C1647 C37 1.589 . S
C1667 C635 1.686 . S
C1665 C261 1.798 . S
C1683 C193 1.132 . S
C1685 C585 1.055 . S
C1703 C655 1.480 . S
C1701 C205 1.521 . S
C1721 C560 1.193 . S
C1719 C215 1.318 . S
C1739 C500 1.222 . S
C1737 C252 1.329 . S
C1755 C187 1.484 . S
C1757 C535 1.449 . S
C1775 C545 1.072 . S
C1773 C196 1.127 . S
C1791 C221 1.670 . S
C1793 C615 1.589 . S
C1811 C625 1.400 . S
C1809 C317 1.621 . S
C1827 C135 1.777 . S
C1829 C435 1.750 . S
C1847 C445 1.448 . S
C1845 C151 1.565 . S
C1865 C460 1.057 . S
C1863 C154 1.139 . S
C1883 C605 1.377 . S
C1881 C305 1.576 . S
C1899 C280 1.612 . S
C1901 C645 1.509 . S
C1919 C415 1.791 . S
C1917 C145 1.805 . S
C1937 C360 1.119 . S
C1935 C117 1.242 . S
C1953 C95 1.541 . S
C1955 C618 1.290 . S
C1973 C374 1.535 . S
C1971 C70 1.548 . S
C1989 C61 1.253 . S
C1991 C638 1.125 . S
C2007 C107 1.512 . S
C2009 C408 1.422 . S
C2025 C39 1.478 . S
C2027 C508 1.388 . S
C2045 C438 1.111 . S
C2043 C23 1.233 . S
C2061 C5 1.613 . S
C2063 C554 1.583 . S
C2079 C42 1.549 . S
C2081 C478 1.298 . S
C2099 C634 1.662 . S
C2097 C322 1.762 . S
C2115 C165 1.153 . S
C2117 C368 1.069 . S
C2135 C654 1.489 1_655 S
C2133 C294 1.506 . S
C2151 C131 1.328 . S
C2153 C398 1.202 . S
C2169 C331 1.364 . S
C2171 C498 1.244 . S
C2189 C454 1.479 . S
C2187 C159 1.512 . S
C2205 C303 1.191 . S
C2207 C548 1.114 . S
C2225 C494 1.601 . S
C2223 C137 1.682 . S
C2243 C628 1.387 . S
C2241 C238 1.594 . S
C2261 C434 1.763 . S
C2259 C210 1.758 . S
C2277 C235 1.606 . S
C2279 C528 1.478 . S
C2297 C458 1.082 . S
C2295 C191 1.182 . S
C2313 C207 1.575 . S
C2315 C488 1.374 . S
C2331 C177 1.679 . S
C2333 C648 1.533 . S
C2351 C574 1.824 . S
C2349 C229 1.839 . S
C2369 C578 1.117 . S
C2367 C271 1.228 . S
