# Generated by pormake.
# Topology cor, (4,6)-cn, num edge types: 1
# Building blocks:
#     Node 0, Type 0, BuildingBlock: CEKHIL_clean_sbu_0, # of connection points: 4
#     Node 1, Type 0, BuildingBlock: CEKHIL_clean_sbu_0, # of connection points: 4
#     Node 2, Type 0, BuildingBlock: CEKHIL_clean_sbu_0, # of connection points: 4
#     Node 3, Type 0, BuildingBlock: CEKHIL_clean_sbu_0, # of connection points: 4
#     Node 4, Type 0, BuildingBlock: CEKHIL_clean_sbu_0, # of connection points: 4
#     Node 5, Type 0, BuildingBlock: CEKHIL_clean_sbu_0, # of connection points: 4
#     Node 6, Type 0, BuildingBlock: CEKHIL_clean_sbu_0, # of connection points: 4
#     Node 7, Type 0, BuildingBlock: CEKHIL_clean_sbu_0, # of connection points: 4
#     Node 8, Type 0, BuildingBlock: CEKHIL_clean_sbu_0, # of connection points: 4
#     Node 9, Type 0, BuildingBlock: CEKHIL_clean_sbu_0, # of connection points: 4
#     Node 10, Type 0, BuildingBlock: CEKHIL_clean_sbu_0, # of connection points: 4
#     Node 11, Type 0, BuildingBlock: CEKHIL_clean_sbu_0, # of connection points: 4
#     Node 12, Type 0, BuildingBlock: CEKHIL_clean_sbu_0, # of connection points: 4
#     Node 13, Type 0, BuildingBlock: CEKHIL_clean_sbu_0, # of connection points: 4
#     Node 14, Type 0, BuildingBlock: CEKHIL_clean_sbu_0, # of connection points: 4
#     Node 15, Type 0, BuildingBlock: CEKHIL_clean_sbu_0, # of connection points: 4
#     Node 16, Type 0, BuildingBlock: CEKHIL_clean_sbu_0, # of connection points: 4
#     Node 17, Type 0, BuildingBlock: CEKHIL_clean_sbu_0, # of connection points: 4
#     Node 18, Type 1, BuildingBlock: MIDCAF_clean_sbu_0, # of connection points: 6
#     Node 19, Type 1, BuildingBlock: MIDCAF_clean_sbu_0, # of connection points: 6
#     Node 20, Type 1, BuildingBlock: MIDCAF_clean_sbu_0, # of connection points: 6
#     Node 21, Type 1, BuildingBlock: MIDCAF_clean_sbu_0, # of connection points: 6
#     Node 22, Type 1, BuildingBlock: MIDCAF_clean_sbu_0, # of connection points: 6
#     Node 23, Type 1, BuildingBlock: MIDCAF_clean_sbu_0, # of connection points: 6
#     Node 24, Type 1, BuildingBlock: MIDCAF_clean_sbu_0, # of connection points: 6
#     Node 25, Type 1, BuildingBlock: MIDCAF_clean_sbu_0, # of connection points: 6
#     Node 26, Type 1, BuildingBlock: MIDCAF_clean_sbu_0, # of connection points: 6
#     Node 27, Type 1, BuildingBlock: MIDCAF_clean_sbu_0, # of connection points: 6
#     Node 28, Type 1, BuildingBlock: MIDCAF_clean_sbu_0, # of connection points: 6
#     Node 29, Type 1, BuildingBlock: MIDCAF_clean_sbu_0, # of connection points: 6
#     Edge 30, Type (0, 1), BuildingBlock: AJUNOK_clean_linker_0, # of connection points: 2
#     Edge 31, Type (0, 1), BuildingBlock: AJUNOK_clean_linker_0, # of connection points: 2
#     Edge 32, Type (0, 1), BuildingBlock: AJUNOK_clean_linker_0, # of connection points: 2
#     Edge 33, Type (0, 1), BuildingBlock: AJUNOK_clean_linker_0, # of connection points: 2
#     Edge 34, Type (0, 1), BuildingBlock: AJUNOK_clean_linker_0, # of connection points: 2
#     Edge 35, Type (0, 1), BuildingBlock: AJUNOK_clean_linker_0, # of connection points: 2
#     Edge 36, Type (0, 1), BuildingBlock: AJUNOK_clean_linker_0, # of connection points: 2
#     Edge 37, Type (0, 1), BuildingBlock: AJUNOK_clean_linker_0, # of connection points: 2
#     Edge 38, Type (0, 1), BuildingBlock: AJUNOK_clean_linker_0, # of connection points: 2
#     Edge 39, Type (0, 1), BuildingBlock: AJUNOK_clean_linker_0, # of connection points: 2
#     Edge 40, Type (0, 1), BuildingBlock: AJUNOK_clean_linker_0, # of connection points: 2
#     Edge 41, Type (0, 1), BuildingBlock: AJUNOK_clean_linker_0, # of connection points: 2
#     Edge 42, Type (0, 1), BuildingBlock: AJUNOK_clean_linker_0, # of connection points: 2
#     Edge 43, Type (0, 1), BuildingBlock: AJUNOK_clean_linker_0, # of connection points: 2
#     Edge 44, Type (0, 1), BuildingBlock: AJUNOK_clean_linker_0, # of connection points: 2
#     Edge 45, Type (0, 1), BuildingBlock: AJUNOK_clean_linker_0, # of connection points: 2
#     Edge 46, Type (0, 1), BuildingBlock: AJUNOK_clean_linker_0, # of connection points: 2
#     Edge 47, Type (0, 1), BuildingBlock: AJUNOK_clean_linker_0, # of connection points: 2
#     Edge 48, Type (0, 1), BuildingBlock: AJUNOK_clean_linker_0, # of connection points: 2
#     Edge 49, Type (0, 1), BuildingBlock: AJUNOK_clean_linker_0, # of connection points: 2
#     Edge 50, Type (0, 1), BuildingBlock: AJUNOK_clean_linker_0, # of connection points: 2
#     Edge 51, Type (0, 1), BuildingBlock: AJUNOK_clean_linker_0, # of connection points: 2
#     Edge 52, Type (0, 1), BuildingBlock: AJUNOK_clean_linker_0, # of connection points: 2
#     Edge 53, Type (0, 1), BuildingBlock: AJUNOK_clean_linker_0, # of connection points: 2
#     Edge 54, Type (0, 1), BuildingBlock: AJUNOK_clean_linker_0, # of connection points: 2
#     Edge 55, Type (0, 1), BuildingBlock: AJUNOK_clean_linker_0, # of connection points: 2
#     Edge 56, Type (0, 1), BuildingBlock: AJUNOK_clean_linker_0, # of connection points: 2
#     Edge 57, Type (0, 1), BuildingBlock: AJUNOK_clean_linker_0, # of connection points: 2
#     Edge 58, Type (0, 1), BuildingBlock: AJUNOK_clean_linker_0, # of connection points: 2
#     Edge 59, Type (0, 1), BuildingBlock: AJUNOK_clean_linker_0, # of connection points: 2
#     Edge 60, Type (0, 1), BuildingBlock: AJUNOK_clean_linker_0, # of connection points: 2
#     Edge 61, Type (0, 1), BuildingBlock: AJUNOK_clean_linker_0, # of connection points: 2
#     Edge 62, Type (0, 1), BuildingBlock: AJUNOK_clean_linker_0, # of connection points: 2
#     Edge 63, Type (0, 1), BuildingBlock: AJUNOK_clean_linker_0, # of connection points: 2
#     Edge 64, Type (0, 1), BuildingBlock: AJUNOK_clean_linker_0, # of connection points: 2
#     Edge 65, Type (0, 1), BuildingBlock: AJUNOK_clean_linker_0, # of connection points: 2
#     Edge 66, Type (0, 1), BuildingBlock: AJUNOK_clean_linker_0, # of connection points: 2
#     Edge 67, Type (0, 1), BuildingBlock: AJUNOK_clean_linker_0, # of connection points: 2
#     Edge 68, Type (0, 1), BuildingBlock: AJUNOK_clean_linker_0, # of connection points: 2
#     Edge 69, Type (0, 1), BuildingBlock: AJUNOK_clean_linker_0, # of connection points: 2
#     Edge 70, Type (0, 1), BuildingBlock: AJUNOK_clean_linker_0, # of connection points: 2
#     Edge 71, Type (0, 1), BuildingBlock: AJUNOK_clean_linker_0, # of connection points: 2
#     Edge 72, Type (0, 1), BuildingBlock: AJUNOK_clean_linker_0, # of connection points: 2
#     Edge 73, Type (0, 1), BuildingBlock: AJUNOK_clean_linker_0, # of connection points: 2
#     Edge 74, Type (0, 1), BuildingBlock: AJUNOK_clean_linker_0, # of connection points: 2
#     Edge 75, Type (0, 1), BuildingBlock: AJUNOK_clean_linker_0, # of connection points: 2
#     Edge 76, Type (0, 1), BuildingBlock: AJUNOK_clean_linker_0, # of connection points: 2
#     Edge 77, Type (0, 1), BuildingBlock: AJUNOK_clean_linker_0, # of connection points: 2
#     Edge 78, Type (0, 1), BuildingBlock: AJUNOK_clean_linker_0, # of connection points: 2
#     Edge 79, Type (0, 1), BuildingBlock: AJUNOK_clean_linker_0, # of connection points: 2
#     Edge 80, Type (0, 1), BuildingBlock: AJUNOK_clean_linker_0, # of connection points: 2
#     Edge 81, Type (0, 1), BuildingBlock: AJUNOK_clean_linker_0, # of connection points: 2
#     Edge 82, Type (0, 1), BuildingBlock: AJUNOK_clean_linker_0, # of connection points: 2
#     Edge 83, Type (0, 1), BuildingBlock: AJUNOK_clean_linker_0, # of connection points: 2
#     Edge 84, Type (0, 1), BuildingBlock: AJUNOK_clean_linker_0, # of connection points: 2
#     Edge 85, Type (0, 1), BuildingBlock: AJUNOK_clean_linker_0, # of connection points: 2
#     Edge 86, Type (0, 1), BuildingBlock: AJUNOK_clean_linker_0, # of connection points: 2
#     Edge 87, Type (0, 1), BuildingBlock: AJUNOK_clean_linker_0, # of connection points: 2
#     Edge 88, Type (0, 1), BuildingBlock: AJUNOK_clean_linker_0, # of connection points: 2
#     Edge 89, Type (0, 1), BuildingBlock: AJUNOK_clean_linker_0, # of connection points: 2
#     Edge 90, Type (0, 1), BuildingBlock: AJUNOK_clean_linker_0, # of connection points: 2
#     Edge 91, Type (0, 1), BuildingBlock: AJUNOK_clean_linker_0, # of connection points: 2
#     Edge 92, Type (0, 1), BuildingBlock: AJUNOK_clean_linker_0, # of connection points: 2
#     Edge 93, Type (0, 1), BuildingBlock: AJUNOK_clean_linker_0, # of connection points: 2
#     Edge 94, Type (0, 1), BuildingBlock: AJUNOK_clean_linker_0, # of connection points: 2
#     Edge 95, Type (0, 1), BuildingBlock: AJUNOK_clean_linker_0, # of connection points: 2
#     Edge 96, Type (0, 1), BuildingBlock: AJUNOK_clean_linker_0, # of connection points: 2
#     Edge 97, Type (0, 1), BuildingBlock: AJUNOK_clean_linker_0, # of connection points: 2
#     Edge 98, Type (0, 1), BuildingBlock: AJUNOK_clean_linker_0, # of connection points: 2
#     Edge 99, Type (0, 1), BuildingBlock: AJUNOK_clean_linker_0, # of connection points: 2
#     Edge 100, Type (0, 1), BuildingBlock: AJUNOK_clean_linker_0, # of connection points: 2
#     Edge 101, Type (0, 1), BuildingBlock: AJUNOK_clean_linker_0, # of connection points: 2
# Relax obj value: 0.112
# Max RMSD: 0.162
# Mean RMSD: 0.107
data_MOF--net-cor--node1-CEKHIL_clean_sbu_0--node2-MIDCAF_clean_sbu_0--edge1-AJUNOK_clean_linker_0
_symmetry_space_group_name_H-M    P1
_symmetry_Int_Tables_number       1
_symmetry_cell_setting            triclinic
loop_
_symmetry_equiv_pos_as_xyz
'x, y, z'
_cell_length_a     28.539804
_cell_length_b     28.365987
_cell_length_c     73.741067
_cell_angle_alpha  90.776142
_cell_angle_beta   89.594024
_cell_angle_gamma 120.82354
loop_
_atom_site_label
_atom_site_type_symbol
_atom_site_fract_x
_atom_site_fract_y
_atom_site_fract_z
_atom_type_partial_charge
Co0 Co 0.72256 0.02404 0.26112 0.0
O1 O 0.68871 0.04972 0.24434 0.0
O2 O 0.76047 0.10341 0.26135 0.0
C3 C 0.64677 0.95597 0.27456 0.0
O4 O 0.76727 0.01295 0.28038 0.0
Co5 Co 0.70478 0.90723 0.25728 0.0
O6 O 0.73808 0.92299 0.28194 0.0
C7 C 0.77017 0.99029 0.23 0.0
C8 C 0.72678 0.09927 0.24877 0.0
C9 C 0.76552 0.97177 0.28833 0.0
O10 O 0.77213 0.02712 0.24085 0.0
O11 O 0.74136 0.9389 0.23335 0.0
O12 O 0.66626 0.00678 0.27967 0.0
O13 O 0.66919 0.94954 0.2602 0.0
Co14 Co 0.01529 0.72632 0.26324 0.0
O15 O 0.0389 0.68943 0.2795 0.0
O16 O 0.0938 0.76191 0.26304 0.0
C17 C 0.94616 0.65289 0.24883 0.0
O18 O 0.00676 0.77399 0.24457 0.0
Co19 Co 0.90216 0.71425 0.26727 0.0
O20 O 0.91845 0.74892 0.24295 0.0
C21 C 0.98457 0.77291 0.29539 0.0
C22 C 0.08851 0.72672 0.2752 0.0
C23 C 0.96686 0.77462 0.23667 0.0
O24 O 0.02047 0.77556 0.28417 0.0
O25 O 0.93343 0.74534 0.29189 0.0
O26 O 0.9965 0.67084 0.24406 0.0
O27 O 0.94038 0.67466 0.26356 0.0
Co28 Co 0.32021 0.32379 0.26599 0.0
O29 O 0.38271 0.35874 0.25012 0.0
O30 O 0.36209 0.28797 0.26772 0.0
C31 C 0.32606 0.3994 0.2787 0.0
O32 O 0.26147 0.27862 0.28464 0.0
Co33 Co 0.22054 0.33807 0.26089 0.0
O34 O 0.20034 0.30602 0.28562 0.0
C35 C 0.24535 0.27718 0.23358 0.0
C36 C 0.39411 0.32233 0.25555 0.0
C37 C 0.22141 0.27992 0.29235 0.0
O38 O 0.27647 0.27309 0.24521 0.0
O39 O 0.22293 0.30573 0.23667 0.0
O40 O 0.35679 0.38135 0.28464 0.0
O41 O 0.29886 0.37553 0.26416 0.0
Co42 Co 0.32333 0.03528 0.76423 0.0
O43 O 0.36425 0.01437 0.77958 0.0
O44 O 0.28851 0.95595 0.76509 0.0
C45 C 0.39346 0.10122 0.74823 0.0
O46 O 0.273 0.0441 0.7465 0.0
Co47 Co 0.342 0.1524 0.76889 0.0
O48 O 0.30613 0.13503 0.74475 0.0
C49 C 0.27615 0.06924 0.7961 0.0
C50 C 0.32753 0.96376 0.77608 0.0
C51 C 0.27593 0.08621 0.7387 0.0
O52 O 0.27778 0.03287 0.78592 0.0
O53 O 0.30268 0.12041 0.79232 0.0
O54 O 0.37349 0.04985 0.74396 0.0
O55 O 0.37609 0.10995 0.76343 0.0
Co56 Co 0.00862 0.30411 0.76242 0.0
O57 O 0.97923 0.33026 0.7444 0.0
O58 O 0.92943 0.26276 0.7633 0.0
C59 C 0.07321 0.38669 0.7732 0.0
O60 O 0.02583 0.2678 0.78314 0.0
Co61 Co 0.12481 0.32695 0.75771 0.0
O62 O 0.11569 0.29875 0.78285 0.0
C63 C 0.04014 0.24759 0.73327 0.0
C64 C 0.9312 0.2923 0.74963 0.0
C65 C 0.06898 0.27201 0.79037 0.0
O66 O 0.00573 0.24965 0.74403 0.0
O67 O 0.0917 0.27903 0.73539 0.0
O68 O 0.02336 0.36428 0.77906 0.0
O69 O 0.08107 0.36166 0.75975 0.0
Co70 Co 0.72372 0.70561 0.77018 0.0
O71 O 0.66018 0.66617 0.78549 0.0
O72 O 0.67582 0.73398 0.76723 0.0
C73 C 0.72567 0.633 0.75889 0.0
O74 O 0.7827 0.75351 0.7517 0.0
Co75 Co 0.82886 0.7031 0.77755 0.0
O76 O 0.84966 0.73412 0.7527 0.0
C77 C 0.79458 0.76061 0.80298 0.0
C78 C 0.64424 0.69818 0.77918 0.0
C79 C 0.82595 0.75622 0.74496 0.0
O80 O 0.76217 0.75935 0.79072 0.0
O81 O 0.82151 0.73605 0.80103 0.0
O82 O 0.69283 0.64704 0.75197 0.0
O83 O 0.75097 0.65917 0.77345 0.0
Co84 Co 0.3821 0.3419 0.59592 0.0
O85 O 0.34635 0.37111 0.58155 0.0
O86 O 0.42122 0.42129 0.59765 0.0
C87 C 0.30842 0.27224 0.60994 0.0
O88 O 0.42941 0.32652 0.61282 0.0
Co89 Co 0.36164 0.22616 0.58753 0.0
O90 O 0.40046 0.23658 0.61087 0.0
C91 C 0.42339 0.31342 0.56156 0.0
C92 C 0.38568 0.41969 0.58632 0.0
C93 C 0.4291 0.28344 0.61849 0.0
O94 O 0.4278 0.34787 0.57394 0.0
O95 O 0.39388 0.26151 0.56366 0.0
O96 O 0.32953 0.32245 0.61594 0.0
O97 O 0.3273 0.26764 0.59444 0.0
Co98 Co 0.69002 0.05766 0.59454 0.0
O99 O 0.71394 0.01952 0.60986 0.0
O100 O 0.76776 0.08845 0.59184 0.0
C101 C 0.61484 0.98448 0.5827 0.0
O102 O 0.6797 0.10564 0.57646 0.0
Co103 Co 0.58135 0.05284 0.60244 0.0
O104 O 0.59278 0.08575 0.57791 0.0
C105 C 0.67261 0.11003 0.62793 0.0
C106 C 0.76292 0.05367 0.6041 0.0
C107 C 0.63925 0.10861 0.57012 0.0
O108 O 0.704 0.11013 0.61534 0.0
O109 O 0.62065 0.08458 0.62612 0.0
O110 O 0.66274 0.99937 0.57601 0.0
O111 O 0.61523 0.00973 0.59745 0.0
Co112 Co 0.97674 0.64769 0.5988 0.0
O113 O 0.04031 0.68481 0.5833 0.0
O114 O 0.01619 0.60928 0.59872 0.0
C115 C 0.98377 0.72069 0.61417 0.0
O116 O 0.91673 0.59886 0.61649 0.0
Co117 Co 0.87912 0.66582 0.59533 0.0
O118 O 0.85639 0.62699 0.61897 0.0
C119 C 0.90032 0.60674 0.56636 0.0
C120 C 0.04944 0.64564 0.58725 0.0
C121 C 0.87612 0.59826 0.62444 0.0
O122 O 0.93305 0.60227 0.57712 0.0
O123 O 0.87839 0.63515 0.57047 0.0
O124 O 0.01354 0.70021 0.61885 0.0
O125 O 0.95719 0.70138 0.59916 0.0
Co126 Co 0.98843 0.36308 0.097 0.0
O127 O 0.02345 0.33921 0.11392 0.0
O128 O 0.95654 0.28455 0.09522 0.0
C129 C 0.06274 0.43688 0.08485 0.0
O130 O 0.94349 0.37231 0.07758 0.0
Co131 Co 0.99405 0.47346 0.10313 0.0
O132 O 0.96328 0.45976 0.07814 0.0
C133 C 0.92405 0.38174 0.12692 0.0
C134 C 0.98909 0.28952 0.10833 0.0
C135 C 0.94069 0.41228 0.07067 0.0
O136 O 0.9327 0.35082 0.11627 0.0
O137 O 0.94868 0.4339 0.12506 0.0
O138 O 0.0479 0.38739 0.07935 0.0
O139 O 0.03748 0.43924 0.0992 0.0
Co140 Co 0.68821 0.66084 0.09476 0.0
O141 O 0.66269 0.69581 0.07838 0.0
O142 O 0.60928 0.62511 0.09564 0.0
C143 C 0.75948 0.73606 0.10774 0.0
O144 O 0.70008 0.61513 0.11358 0.0
Co145 Co 0.80155 0.67397 0.08876 0.0
O146 O 0.78853 0.63971 0.11305 0.0
C147 C 0.71511 0.61361 0.06212 0.0
C148 C 0.61341 0.65855 0.08296 0.0
C149 C 0.74144 0.61447 0.12038 0.0
O150 O 0.68083 0.60979 0.07423 0.0
O151 O 0.76671 0.64275 0.06458 0.0
O152 O 0.70998 0.71882 0.1134 0.0
O153 O 0.76255 0.7123 0.09312 0.0
Co154 Co 0.39815 0.06409 0.09802 0.0
O155 O 0.33936 0.03206 0.11565 0.0
O156 O 0.35571 0.09939 0.09713 0.0
C157 C 0.39051 0.98705 0.08585 0.0
O158 O 0.45164 0.10602 0.07768 0.0
Co159 Co 0.50016 0.0531 0.10099 0.0
O160 O 0.51324 0.07945 0.07549 0.0
C161 C 0.48584 0.12421 0.12698 0.0
C162 C 0.32663 0.06762 0.11029 0.0
C163 C 0.48983 0.10367 0.06905 0.0
O164 O 0.44673 0.11928 0.11701 0.0
O165 O 0.51015 0.09759 0.12371 0.0
O166 O 0.3576 0.00343 0.08077 0.0
O167 O 0.42097 0.01312 0.09965 0.0
Co168 Co 0.05645 0.67778 0.92416 0.0
O169 O 0.02287 0.70675 0.90834 0.0
O170 O 0.09993 0.75773 0.92313 0.0
C171 C 0.98166 0.6175 0.94011 0.0
O172 O 0.1023 0.66328 0.94244 0.0
Co173 Co 0.0247 0.55609 0.92134 0.0
O174 O 0.06457 0.57189 0.94462 0.0
C175 C 0.08781 0.62961 0.89205 0.0
C176 C 0.06364 0.75553 0.91201 0.0
C177 C 0.09768 0.62047 0.9503 0.0
O178 O 0.09665 0.67063 0.90235 0.0
O179 O 0.05535 0.57984 0.89653 0.0
O180 O 0.00725 0.66955 0.94426 0.0
O181 O 0.99754 0.60546 0.92523 0.0
Co182 Co 0.36745 0.40551 0.92496 0.0
O183 O 0.38512 0.37139 0.94426 0.0
O184 O 0.44464 0.43378 0.92541 0.0
C185 C 0.29474 0.32814 0.91336 0.0
O186 O 0.36695 0.44913 0.90309 0.0
Co187 Co 0.25943 0.40507 0.92353 0.0
O188 O 0.28087 0.42759 0.89795 0.0
C189 C 0.34382 0.47695 0.95012 0.0
C190 C 0.43563 0.40213 0.93917 0.0
C191 C 0.33056 0.44974 0.89302 0.0
O192 O 0.37726 0.46493 0.94268 0.0
O193 O 0.29413 0.45577 0.94502 0.0
O194 O 0.3443 0.34146 0.9091 0.0
O195 O 0.29083 0.35884 0.92568 0.0
Co196 Co 0.63954 0.99418 0.92417 0.0
O197 O 0.70169 0.0237 0.90768 0.0
O198 O 0.67502 0.95098 0.92465 0.0
C199 C 0.65741 0.07395 0.93762 0.0
O200 O 0.58017 0.9533 0.94369 0.0
Co201 Co 0.55 0.02436 0.92116 0.0
O202 O 0.53043 0.99393 0.94593 0.0
C203 C 0.55599 0.95348 0.89322 0.0
C204 C 0.70952 0.98463 0.91279 0.0
C205 C 0.54494 0.96164 0.9521 0.0
O206 O 0.58944 0.94768 0.90342 0.0
O207 O 0.53944 0.98646 0.89726 0.0
O208 O 0.68321 0.04962 0.94276 0.0
O209 O 0.62749 0.05297 0.92338 0.0
Co210 Co 0.64305 0.69198 0.43155 0.0
O211 O 0.67769 0.66597 0.44777 0.0
O212 O 0.60711 0.6129 0.43012 0.0
C213 C 0.71807 0.76241 0.4187 0.0
O214 O 0.59809 0.70373 0.41262 0.0
Co215 Co 0.65693 0.80648 0.43698 0.0
O216 O 0.62533 0.79331 0.41215 0.0
C217 C 0.59421 0.7205 0.46356 0.0
C218 C 0.64104 0.61669 0.44255 0.0
C219 C 0.59939 0.74526 0.40513 0.0
O220 O 0.59243 0.68523 0.45202 0.0
O221 O 0.62251 0.77227 0.46084 0.0
O222 O 0.69987 0.71228 0.41307 0.0
O223 O 0.69506 0.76687 0.43325 0.0
Co224 Co 0.34151 0.97972 0.43344 0.0
O225 O 0.31709 0.0156 0.41703 0.0
O226 O 0.2632 0.94629 0.43475 0.0
C227 C 0.41432 0.05487 0.44586 0.0
O228 O 0.3512 0.93356 0.45252 0.0
Co229 Co 0.45314 0.98836 0.42832 0.0
O230 O 0.4386 0.95498 0.45282 0.0
C231 C 0.36706 0.93121 0.40109 0.0
C232 C 0.26773 0.98003 0.42215 0.0
C233 C 0.39102 0.93136 0.45982 0.0
O234 O 0.33229 0.92729 0.41305 0.0
O235 O 0.41857 0.95885 0.40393 0.0
O236 O 0.36528 0.03888 0.45173 0.0
O237 O 0.41631 0.02936 0.43154 0.0
Co238 Co 0.0531 0.39248 0.43211 0.0
O239 O 0.99072 0.35775 0.44815 0.0
O240 O 0.01318 0.43058 0.43152 0.0
C241 C 0.04488 0.31682 0.41854 0.0
O242 O 0.11201 0.43806 0.41343 0.0
Co243 Co 0.15096 0.37476 0.43615 0.0
O244 O 0.17199 0.40923 0.41178 0.0
C245 C 0.12831 0.43455 0.46446 0.0
C246 C 0.98086 0.39597 0.44359 0.0
C247 C 0.15177 0.43665 0.4055 0.0
O248 O 0.09804 0.44082 0.45308 0.0
O249 O 0.14954 0.40519 0.46084 0.0
O250 O 0.01494 0.33639 0.41309 0.0
O251 O 0.07267 0.33929 0.43309 0.0
Zn252 Zn 0.0267 0.02686 0.12717 0.0
Zn253 Zn 0.02994 0.03587 0.18875 0.0
Zn254 Zn 0.02584 0.03069 0.15956 0.0
C255 C 0.02072 0.94202 0.18411 0.0
C256 C 0.11994 0.12247 0.18181 0.0
O257 O 0.99151 0.08252 0.15102 0.0
O258 O 0.01246 0.08604 0.12199 0.0
C259 C 0.94976 0.92139 0.1378 0.0
O260 O 0.99288 0.94728 0.17139 0.0
O261 O 0.05737 0.98483 0.19194 0.0
O262 O 0.0801 0.11504 0.19139 0.0
O263 O 0.11213 0.08724 0.16917 0.0
O264 O 0.9654 0.95148 0.12401 0.0
O265 O 0.97148 0.94153 0.15338 0.0
O266 O 0.11361 0.06482 0.1519 0.0
O267 O 0.10095 0.0411 0.12289 0.0
C268 C 0.13229 0.06008 0.13641 0.0
O269 O 0.97034 0.06022 0.16858 0.0
O270 O 0.95219 0.00827 0.19257 0.0
C271 C 0.99505 0.10209 0.13502 0.0
C272 C 0.93935 0.03483 0.18222 0.0
Zn273 Zn 0.02457 0.02411 0.33839 0.0
Zn274 Zn 0.01177 0.0222 0.39982 0.0
Zn275 Zn 0.01499 0.02091 0.36737 0.0
C276 C 0.04481 0.12826 0.39021 0.0
C277 C 0.9057 0.94762 0.38855 0.0
O278 O 0.04583 0.96547 0.3593 0.0
O279 O 0.99592 0.94565 0.33467 0.0
C280 C 0.10673 0.1157 0.34561 0.0
O281 O 0.04799 0.10881 0.37467 0.0
O282 O 0.028 0.09758 0.40386 0.0
O283 O 0.93562 0.96311 0.40245 0.0
O284 O 0.92623 0.96777 0.37294 0.0
O285 O 0.10474 0.07491 0.33781 0.0
O286 O 0.06888 0.10681 0.35715 0.0
O287 O 0.93305 0.98812 0.3545 0.0
O288 O 0.97426 0.05176 0.33395 0.0
C289 C 0.93039 0.01656 0.34143 0.0
O290 O 0.06688 0.98692 0.37687 0.0
O291 O 0.06832 0.0056 0.40612 0.0
C292 C 0.02162 0.93344 0.3456 0.0
C293 C 0.0849 0.98883 0.39307 0.0
Zn294 Zn 0.01955 0.02181 0.90262 0.0
Zn295 Zn 0.00574 0.01865 0.83944 0.0
Zn296 Zn 0.01848 0.02162 0.86891 0.0
C297 C 0.02449 0.11534 0.84578 0.0
C298 C 0.91595 0.93281 0.84753 0.0
O299 O 0.05306 0.96769 0.8753 0.0
O300 O 0.03387 0.95998 0.90457 0.0
C301 C 0.09822 0.12883 0.89109 0.0
O302 O 0.05285 0.10649 0.85737 0.0
O303 O 0.98383 0.07456 0.83853 0.0
O304 O 0.95015 0.94304 0.8351 0.0
O305 O 0.93005 0.96432 0.86171 0.0
O306 O 0.084 0.09811 0.90476 0.0
O307 O 0.07405 0.1096 0.87577 0.0
O308 O 0.93144 0.9898 0.87817 0.0
O309 O 0.94431 0.00822 0.90752 0.0
C310 C 0.91289 0.993 0.89394 0.0
O311 O 0.07219 0.99261 0.85755 0.0
O312 O 0.08067 0.0394 0.83289 0.0
C313 C 0.05029 0.94551 0.89079 0.0
C314 C 0.09778 0.01532 0.84272 0.0
Zn315 Zn 0.99633 0.04224 0.71001 0.0
Zn316 Zn 0.01874 0.00721 0.62985 0.0
Zn317 Zn 0.01202 0.01648 0.66277 0.0
C318 C 0.98284 0.90384 0.64481 0.0
C319 C 0.12349 0.08533 0.64122 0.0
O320 O 0.9779 0.06926 0.66527 0.0
O321 O 0.9447 0.02581 0.68985 0.0
C322 C 0.94242 0.92481 0.69423 0.0
O323 O 0.97769 0.92671 0.6593 0.0
O324 O 0.00242 0.93137 0.63059 0.0
O325 O 0.09497 0.06541 0.62712 0.0
O326 O 0.10146 0.06924 0.65699 0.0
O327 O 0.95072 0.9606 0.70635 0.0
O328 O 0.96369 0.93754 0.67812 0.0
O329 O 0.09191 0.05627 0.67612 0.0
O330 O 0.07424 0.06184 0.70557 0.0
C331 C 0.10655 0.06601 0.69294 0.0
O332 O 0.96271 0.04527 0.64744 0.0
O333 O 0.96357 0.02018 0.61909 0.0
C334 C 0.95871 0.06831 0.68097 0.0
C335 C 0.94596 0.03975 0.63091 0.0
Zn336 Zn 0.68365 0.36761 0.52162 0.0
Zn337 Zn 0.67971 0.35268 0.45953 0.0
Zn338 Zn 0.6808 0.35895 0.49248 0.0
C339 C 0.78669 0.38911 0.46928 0.0
C340 C 0.60585 0.24709 0.47212 0.0
O341 O 0.62378 0.38739 0.50067 0.0
O342 O 0.60535 0.3375 0.52519 0.0
C343 C 0.77214 0.45534 0.51329 0.0
O344 O 0.76804 0.39403 0.48472 0.0
O345 O 0.75526 0.36912 0.4558 0.0
O346 O 0.61965 0.27561 0.45795 0.0
O347 O 0.62833 0.2693 0.48743 0.0
O348 O 0.73097 0.4481 0.52203 0.0
O349 O 0.76643 0.41786 0.50188 0.0
O350 O 0.65102 0.27733 0.50534 0.0
O351 O 0.71409 0.31957 0.52615 0.0
C352 C 0.6797 0.27524 0.51843 0.0
O353 O 0.64518 0.40886 0.48334 0.0
O354 O 0.66308 0.41044 0.45407 0.0
C355 C 0.59249 0.36292 0.51433 0.0
C356 C 0.64694 0.42726 0.46726 0.0
Zn357 Zn 0.67894 0.33461 0.73207 0.0
Zn358 Zn 0.71974 0.36113 0.64933 0.0
Zn359 Zn 0.68965 0.3488 0.69914 0.0
C360 C 0.60376 0.31877 0.66474 0.0
C361 C 0.75227 0.43857 0.67928 0.0
O362 O 0.73538 0.30748 0.7068 0.0
O363 O 0.72087 0.29889 0.7363 0.0
C364 C 0.57421 0.27918 0.7163 0.0
O365 O 0.61572 0.32038 0.68178 0.0
O366 O 0.63873 0.33307 0.65197 0.0
O367 O 0.72673 0.39239 0.67213 0.0
O368 O 0.74211 0.43967 0.69594 0.0
O369 O 0.59969 0.28882 0.73107 0.0
O370 O 0.60025 0.29917 0.70141 0.0
O371 O 0.72316 0.43021 0.71344 0.0
O372 O 0.70841 0.40842 0.74241 0.0
C373 C 0.72529 0.44429 0.73027 0.0
O374 O 0.72445 0.29962 0.68699 0.0
O375 O 0.73931 0.30677 0.65669 0.0
C376 C 0.74368 0.29318 0.72245 0.0
C377 C 0.73879 0.286 0.67194 0.0
Zn378 Zn 0.69695 0.362 0.23247 0.0
Zn379 Zn 0.64374 0.32182 0.15144 0.0
Zn380 Zn 0.68227 0.35454 0.19925 0.0
C381 C 0.69941 0.44197 0.16852 0.0
C382 C 0.57824 0.30111 0.17993 0.0
O383 O 0.71973 0.30355 0.20534 0.0
O384 O 0.71556 0.30499 0.23527 0.0
C385 C 0.7648 0.46652 0.21743 0.0
O386 O 0.71181 0.43289 0.18444 0.0
O387 O 0.67257 0.4035 0.15698 0.0
O388 O 0.60887 0.34282 0.17083 0.0
O389 O 0.59467 0.30098 0.19593 0.0
O390 O 0.75719 0.4384 0.23143 0.0
O391 O 0.73633 0.44414 0.20302 0.0
O392 O 0.60239 0.32367 0.21376 0.0
O393 O 0.62634 0.34778 0.24229 0.0
C394 C 0.58992 0.32879 0.23022 0.0
O395 O 0.72687 0.31935 0.18611 0.0
O396 O 0.70494 0.30745 0.15653 0.0
C397 C 0.72531 0.28683 0.22094 0.0
C398 C 0.73396 0.30811 0.16963 0.0
Zn399 Zn 0.67443 0.35817 0.02381 0.0
Zn400 Zn 0.69677 0.36716 0.96414 0.0
Zn401 Zn 0.68713 0.36259 0.99456 0.0
C402 C 0.67904 0.26647 0.97246 0.0
C403 C 0.79248 0.45133 0.97577 0.0
O404 O 0.65353 0.41589 1.00113 0.0
O405 O 0.69621 0.43512 0.02736 0.0
C406 C 0.59578 0.2639 0.01498 0.0
O407 O 0.6572 0.27733 0.98595 0.0
O408 O 0.70769 0.30361 0.96127 0.0
O409 O 0.76039 0.44215 0.96278 0.0
O410 O 0.77587 0.41869 0.98939 0.0
O411 O 0.59537 0.30274 0.02331 0.0
O412 O 0.63512 0.27562 1.0038 0.0
O413 O 0.76854 0.39682 1.00704 0.0
O414 O 0.72939 0.33633 0.02869 0.0
C415 C 0.77223 0.36988 0.02033 0.0
O416 O 0.63415 0.39317 0.98414 0.0
O417 O 0.62686 0.35874 0.95664 0.0
C418 C 0.67295 0.44693 0.01531 0.0
C419 C 0.6112 0.38044 0.96839 0.0
Zn420 Zn 0.3476 0.68725 0.84846 0.0
Zn421 Zn 0.35023 0.6902 0.78947 0.0
Zn422 Zn 0.34793 0.68659 0.81951 0.0
C423 C 0.44163 0.68891 0.79897 0.0
C424 C 0.25547 0.59675 0.79604 0.0
O425 O 0.26203 0.64797 0.82857 0.0
O426 O 0.29568 0.71453 0.84877 0.0
C427 C 0.43341 0.78057 0.84185 0.0
O428 O 0.4097 0.66412 0.81243 0.0
O429 O 0.42776 0.71266 0.78769 0.0
O430 O 0.29411 0.61325 0.7848 0.0
O431 O 0.26307 0.62429 0.8109 0.0
O432 O 0.42747 0.73915 0.85004 0.0
O433 O 0.39747 0.77311 0.82982 0.0
O434 O 0.38316 0.63659 0.82922 0.0
O435 O 0.31972 0.60778 0.85019 0.0
C436 C 0.3538 0.601 0.84134 0.0
O437 O 0.36999 0.77308 0.81371 0.0
O438 O 0.32781 0.74504 0.78748 0.0
C439 C 0.25461 0.6776 0.84035 0.0
C440 C 0.34702 0.78079 0.79996 0.0
Zn441 Zn 0.35583 0.69403 0.06301 0.0
Zn442 Zn 0.36201 0.70369 0.99906 0.0
Zn443 Zn 0.35736 0.69615 0.02975 0.0
C444 C 0.25687 0.63938 1.00206 0.0
C445 C 0.40569 0.80547 1.0045 0.0
O446 O 0.40849 0.65989 0.03809 0.0
O447 O 0.40764 0.67034 0.06776 0.0
C448 C 0.24837 0.62496 0.05382 0.0
O449 O 0.27268 0.65921 0.01822 0.0
O450 O 0.29133 0.64078 0.99098 0.0
O451 O 0.37072 0.7748 0.99295 0.0
O452 O 0.40867 0.7845 0.01963 0.0
O453 O 0.2792 0.64061 0.06748 0.0
O454 O 0.26856 0.64323 0.03795 0.0
O455 O 0.39306 0.78308 0.03915 0.0
O456 O 0.37959 0.7705 0.06863 0.0
C457 C 0.39453 0.80211 0.05524 0.0
O458 O 0.39108 0.64675 0.01759 0.0
O459 O 0.43015 0.70163 0.99497 0.0
C460 C 0.4249 0.65679 0.05407 0.0
C461 C 0.4165 0.65663 1.00233 0.0
Zn462 Zn 0.35078 0.6846 0.57061 0.0
Zn463 Zn 0.34078 0.67612 0.50832 0.0
Zn464 Zn 0.34678 0.68057 0.5375 0.0
C465 C 0.34741 0.76828 0.51305 0.0
C466 C 0.25286 0.58786 0.51639 0.0
O467 O 0.38238 0.62877 0.54525 0.0
O468 O 0.36997 0.6281 0.57489 0.0
C469 C 0.42149 0.79137 0.55854 0.0
O470 O 0.37712 0.76386 0.52528 0.0
O471 O 0.31066 0.7251 0.50542 0.0
O472 O 0.29242 0.59637 0.50646 0.0
O473 O 0.26032 0.62329 0.52888 0.0
O474 O 0.4088 0.76246 0.5726 0.0
O475 O 0.39925 0.76934 0.54321 0.0
O476 O 0.26051 0.64624 0.54628 0.0
O477 O 0.27514 0.66576 0.57555 0.0
C478 C 0.2429 0.64873 0.56222 0.0
O479 O 0.40145 0.65131 0.52754 0.0
O480 O 0.41911 0.70591 0.50434 0.0
C481 C 0.3836 0.61087 0.56116 0.0
C482 C 0.43221 0.67824 0.51405 0.0
Zn483 Zn 0.35036 0.69109 0.29496 0.0
Zn484 Zn 0.34444 0.69481 0.35657 0.0
Zn485 Zn 0.34943 0.69446 0.32757 0.0
C486 C 0.43931 0.70516 0.35182 0.0
C487 C 0.26354 0.60039 0.35134 0.0
O488 O 0.29406 0.72428 0.31849 0.0
O489 O 0.29333 0.70753 0.28912 0.0
C490 C 0.45703 0.76853 0.30443 0.0
O491 O 0.43361 0.73203 0.33888 0.0
O492 O 0.39743 0.67035 0.36028 0.0
O493 O 0.26526 0.64132 0.35892 0.0
O494 O 0.29984 0.60913 0.33915 0.0
O495 O 0.42616 0.74928 0.29079 0.0
O496 O 0.43768 0.75099 0.32041 0.0
O497 O 0.31875 0.60655 0.32122 0.0
O498 O 0.33308 0.61508 0.29167 0.0
C499 C 0.3195 0.58583 0.30565 0.0
O500 O 0.31357 0.74504 0.33636 0.0
O501 O 0.3698 0.773 0.35956 0.0
C502 C 0.27569 0.72249 0.30237 0.0
C503 C 0.33803 0.77938 0.34951 0.0
C504 C 0.22596 0.19204 0.2163 0.0
C505 C 0.23017 0.24373 0.21659 0.0
C506 C 0.19798 0.15397 0.20222 0.0
C507 C 0.17367 0.16655 0.18801 0.0
H508 H 0.23948 0.17883 0.22783 0.0
H509 H 0.18924 0.11227 0.20375 0.0
S510 S 0.18649 0.30108 0.17989 0.0
N511 N 0.21814 0.30938 0.19938 0.0
N512 N 0.16513 0.23742 0.1732 0.0
C513 C 0.18464 0.22054 0.18685 0.0
C514 C 0.21273 0.25919 0.20114 0.0
C515 C 0.85394 0.06084 0.21345 0.0
C516 C 0.80659 0.00816 0.21379 0.0
C517 C 0.89506 0.07418 0.20045 0.0
C518 C 0.8899 0.03565 0.18723 0.0
H519 H 0.86165 0.09034 0.2242 0.0
H520 H 0.93359 0.11238 0.20207 0.0
S521 S 0.76918 0.89733 0.17953 0.0
N522 N 0.75312 0.92114 0.19761 0.0
N523 N 0.83054 0.94666 0.17336 0.0
C524 C 0.84002 0.98587 0.18601 0.0
C525 C 0.7984 0.97186 0.19929 0.0
C526 C 0.03294 0.84548 0.21515 0.0
C527 C 0.97849 0.80934 0.22031 0.0
C528 C 0.04592 0.8846 0.20168 0.0
C529 C 0.0051 0.88914 0.19269 0.0
H530 H 0.06627 0.8459 0.22225 0.0
H531 H 0.08859 0.91415 0.1992 0.0
S532 S 0.85592 0.79793 0.1984 0.0
N533 N 0.88286 0.7754 0.21323 0.0
N534 N 0.90792 0.84968 0.18801 0.0
C535 C 0.95043 0.84998 0.19632 0.0
C536 C 0.93695 0.81002 0.21016 0.0
C537 C 0.21948 0.21708 0.31625 0.0
C538 C 0.19729 0.24726 0.30912 0.0
C539 C 0.19312 0.17914 0.3301 0.0
C540 C 0.14354 0.16978 0.33749 0.0
H541 H 0.25592 0.22025 0.31042 0.0
H542 H 0.20939 0.15362 0.33402 0.0
S543 S 0.07372 0.2456 0.32648 0.0
N544 N 0.12694 0.27131 0.31274 0.0
N545 N 0.07732 0.19915 0.33867 0.0
C546 C 0.12391 0.20367 0.33199 0.0
C547 C 0.15069 0.24247 0.31778 0.0
C548 C 0.83971 0.03618 0.30963 0.0
C549 C 0.79992 0.98202 0.30479 0.0
C550 C 0.87843 0.04704 0.3231 0.0
C551 C 0.879 0.00435 0.33245 0.0
H552 H 0.84318 0.07062 0.30227 0.0
H553 H 0.91053 0.08928 0.32538 0.0
S554 S 0.77763 0.85593 0.32766 0.0
N555 N 0.75863 0.88532 0.31254 0.0
N556 N 0.83211 0.90635 0.33777 0.0
C557 C 0.83647 0.95039 0.3291 0.0
C558 C 0.7969 0.93908 0.31526 0.0
C559 C 0.96416 0.79652 0.32615 0.0
C560 C 0.00256 0.80673 0.31236 0.0
C561 C 0.97542 0.83491 0.3401 0.0
C562 C 0.02517 0.88512 0.34068 0.0
H563 H 0.92351 0.76067 0.32541 0.0
H564 H 0.94233 0.82846 0.34903 0.0
S565 S 0.1442 0.92606 0.31072 0.0
N566 N 0.09659 0.86601 0.30247 0.0
N567 N 0.11662 0.93858 0.32852 0.0
C568 C 0.06649 0.8923 0.32862 0.0
C569 C 0.05534 0.8531 0.3144 0.0
C570 C 0.8049 0.84578 0.81745 0.0
C571 C 0.80682 0.7974 0.81899 0.0
C572 C 0.83179 0.88888 0.83009 0.0
C573 C 0.86153 0.88489 0.84452 0.0
H574 H 0.78781 0.85293 0.80546 0.0
H575 H 0.83622 0.92821 0.827 0.0
S576 S 0.86211 0.76018 0.85805 0.0
N577 N 0.82783 0.74267 0.83876 0.0
N578 N 0.87887 0.82429 0.86229 0.0
C579 C 0.85514 0.83347 0.84794 0.0
C580 C 0.82817 0.78964 0.83507 0.0
C581 C 0.19303 0.99649 0.81271 0.0
C582 C 0.23773 0.05092 0.81188 0.0
C583 C 0.14968 0.98181 0.82499 0.0
C584 C 0.15001 0.02068 0.83712 0.0
H585 H 0.18916 0.96608 0.80283 0.0
H586 H 0.11352 0.94137 0.8238 0.0
S587 S 0.26013 0.16607 0.84229 0.0
N588 N 0.28204 0.14171 0.826 0.0
N589 N 0.20055 0.11405 0.84863 0.0
C590 C 0.19661 0.07347 0.83757 0.0
C591 C 0.24045 0.08862 0.82509 0.0
C592 C 0.01421 0.21766 0.81727 0.0
C593 C 0.06358 0.24186 0.8075 0.0
C594 C 0.00451 0.18178 0.83163 0.0
C595 C 0.04379 0.16875 0.83696 0.0
H596 H 0.98147 0.224 0.8132 0.0
H597 H 0.96419 0.16058 0.83767 0.0
S598 S 0.18224 0.22569 0.81755 0.0
N599 N 0.15466 0.25424 0.80564 0.0
N600 N 0.13568 0.18654 0.83257 0.0
C601 C 0.09502 0.19623 0.82848 0.0
C602 C 0.10504 0.23272 0.81375 0.0
C603 C 0.82654 0.81539 0.71973 0.0
C604 C 0.85102 0.7891 0.72818 0.0
C605 C 0.8535 0.85391 0.70599 0.0
C606 C 0.90598 0.86779 0.70006 0.0
H607 H 0.78777 0.809 0.72452 0.0
H608 H 0.8355 0.87717 0.70129 0.0
S609 S 0.98396 0.80377 0.71489 0.0
N610 N 0.92777 0.77375 0.72727 0.0
N611 N 0.97828 0.84725 0.70175 0.0
C612 C 0.92843 0.83783 0.70689 0.0
C613 C 0.90108 0.79836 0.72091 0.0
C614 C 0.19145 0.0277 0.72027 0.0
C615 C 0.23939 0.07861 0.72317 0.0
C616 C 0.1508 0.02285 0.70849 0.0
C617 C 0.1567 0.06847 0.69907 0.0
H618 H 0.18333 0.99227 0.72811 0.0
H619 H 0.1125 0.98402 0.70785 0.0
S620 S 0.27861 0.20786 0.69878 0.0
N621 N 0.2941 0.17358 0.7131 0.0
N622 N 0.21646 0.16384 0.69138 0.0
C623 C 0.20624 0.11809 0.7004 0.0
C624 C 0.24796 0.12326 0.71234 0.0
C625 C 0.05437 0.19987 0.70641 0.0
C626 C 0.01853 0.20568 0.71827 0.0
C627 C 0.03467 0.15779 0.69317 0.0
C628 C 0.97846 0.11993 0.69135 0.0
H629 H 0.09809 0.22685 0.70771 0.0
H630 H 0.06374 0.15297 0.68503 0.0
S631 S 0.86681 0.11938 0.71734 0.0
N632 N 0.92304 0.17176 0.72587 0.0
N633 N 0.88718 0.09245 0.70141 0.0
C634 C 0.94218 0.12654 0.70243 0.0
C635 C 0.96185 0.16947 0.71575 0.0
C636 C 0.85853 0.58878 0.53545 0.0
C637 C 0.88327 0.57448 0.54906 0.0
C638 C 0.83002 0.55262 0.52109 0.0
C639 C 0.82485 0.50067 0.51983 0.0
H640 H 0.85753 0.62637 0.5366 0.0
H641 H 0.8063 0.56262 0.51221 0.0
S642 S 0.89174 0.44814 0.54945 0.0
N643 N 0.90898 0.50868 0.55835 0.0
N644 N 0.85422 0.44047 0.53146 0.0
C645 C 0.85535 0.48894 0.53184 0.0
C646 C 0.88467 0.52584 0.54652 0.0
C647 C 0.50663 0.38668 0.54562 0.0
C648 C 0.45902 0.33422 0.54522 0.0
C649 C 0.54815 0.40146 0.5327 0.0
C650 C 0.54326 0.36453 0.5189 0.0
H651 H 0.51438 0.41453 0.55692 0.0
H652 H 0.58691 0.43901 0.53491 0.0
S653 S 0.42147 0.2289 0.50888 0.0
N654 N 0.40505 0.25027 0.52749 0.0
N655 N 0.48355 0.27841 0.50345 0.0
C656 C 0.49296 0.31568 0.51682 0.0
C657 C 0.45077 0.30026 0.52998 0.0
C658 C 0.70171 0.18364 0.5491 0.0
C659 C 0.64823 0.14355 0.55402 0.0
C660 C 0.71151 0.22302 0.53602 0.0
C661 C 0.66837 0.22368 0.52711 0.0
H662 H 0.73643 0.18692 0.55616 0.0
H663 H 0.7533 0.25543 0.53369 0.0
S664 S 0.52115 0.12199 0.53245 0.0
N665 N 0.55154 0.10246 0.547 0.0
N666 N 0.5705 0.17686 0.52238 0.0
C667 C 0.61495 0.18095 0.53058 0.0
C668 C 0.60475 0.14092 0.54408 0.0
C669 C 0.81285 0.56725 0.6514 0.0
C670 C 0.85005 0.56144 0.6402 0.0
C671 C 0.78423 0.53002 0.66538 0.0
C672 C 0.79175 0.48571 0.66853 0.0
H673 H 0.80451 0.59986 0.64902 0.0
H674 H 0.75379 0.534 0.67299 0.0
S675 S 0.88709 0.45407 0.64455 0.0
N676 N 0.89527 0.50941 0.63447 0.0
N677 N 0.84102 0.43971 0.66051 0.0
C678 C 0.83058 0.48095 0.65817 0.0
C679 C 0.85992 0.51877 0.64408 0.0
C680 C 0.50046 0.34054 0.64188 0.0
C681 C 0.46588 0.28882 0.63375 0.0
C682 C 0.54136 0.34849 0.65416 0.0
C683 C 0.54901 0.30508 0.65891 0.0
H684 H 0.49818 0.37598 0.63799 0.0
H685 H 0.57008 0.38989 0.6588 0.0
S686 S 0.46555 0.16031 0.6438 0.0
N687 N 0.43851 0.19185 0.63332 0.0
N688 N 0.51631 0.20804 0.65606 0.0
C689 C 0.51234 0.25253 0.65213 0.0
C690 C 0.4705 0.24407 0.63965 0.0
C691 C 0.66357 0.14425 0.65859 0.0
C692 C 0.69737 0.14553 0.64433 0.0
C693 C 0.6828 0.18675 0.67157 0.0
C694 C 0.73569 0.23283 0.67023 0.0
H695 H 0.62069 0.11291 0.65887 0.0
H696 H 0.65334 0.18779 0.68068 0.0
S697 S 0.84572 0.2463 0.63997 0.0
N698 N 0.79104 0.18865 0.63326 0.0
N699 N 0.82568 0.26963 0.65717 0.0
C700 C 0.77241 0.22931 0.65835 0.0
C701 C 0.75335 0.18573 0.64528 0.0
C702 C 0.48765 0.20296 0.14359 0.0
C703 C 0.50479 0.16438 0.14241 0.0
C704 C 0.50871 0.24475 0.15681 0.0
C705 C 0.5467 0.24902 0.1697 0.0
H706 H 0.45953 0.20257 0.13371 0.0
H707 H 0.49697 0.27552 0.15646 0.0
S708 S 0.60243 0.15685 0.17362 0.0
N709 N 0.56038 0.13188 0.15615 0.0
N710 N 0.5991 0.21016 0.18112 0.0
C711 C 0.56212 0.20926 0.1694 0.0
C712 C 0.54139 0.16706 0.15574 0.0
C713 C 0.87989 0.38596 0.15609 0.0
C714 C 0.88032 0.35542 0.14093 0.0
C715 C 0.83424 0.36563 0.1676 0.0
C716 C 0.78681 0.31455 0.16412 0.0
H717 H 0.91382 0.42718 0.15852 0.0
H718 H 0.83392 0.39278 0.17802 0.0
S719 S 0.76971 0.21471 0.1281 0.0
N720 N 0.83169 0.2677 0.12477 0.0
N721 N 0.74546 0.23107 0.14595 0.0
C722 C 0.78864 0.28152 0.15012 0.0
C723 C 0.83542 0.30161 0.1386 0.0
C724 C 0.68036 0.54315 0.14287 0.0
C725 C 0.73341 0.57953 0.13649 0.0
C726 C 0.67049 0.50264 0.15554 0.0
C727 C 0.71316 0.49701 0.16251 0.0
H728 H 0.64558 0.5433 0.13716 0.0
H729 H 0.62851 0.47237 0.15873 0.0
S730 S 0.86035 0.5879 0.15324 0.0
N731 N 0.83034 0.61234 0.14052 0.0
N732 N 0.81076 0.53524 0.16412 0.0
C733 C 0.76672 0.53632 0.1578 0.0
C734 C 0.77709 0.57776 0.14483 0.0
C735 C 0.56069 0.14474 0.0444 0.0
C736 C 0.51019 0.13375 0.05166 0.0
C737 C 0.58563 0.18173 0.03008 0.0
C738 C 0.56085 0.20884 0.02258 0.0
H739 H 0.58314 0.12792 0.05064 0.0
H740 H 0.62691 0.19345 0.02625 0.0
S741 S 0.42348 0.18492 0.03349 0.0
N742 N 0.43204 0.14547 0.04771 0.0
N743 N 0.47957 0.21543 0.02112 0.0
C744 C 0.50779 0.19329 0.02819 0.0
C745 C 0.48235 0.15578 0.04271 0.0
C746 C 0.90296 0.44549 0.04652 0.0
C747 C 0.90587 0.4019 0.0544 0.0
C748 C 0.86307 0.43562 0.03353 0.0
C749 C 0.82465 0.38186 0.02807 0.0
H750 H 0.92958 0.48737 0.05115 0.0
H751 H 0.85935 0.46974 0.02899 0.0
S752 S 0.82056 0.25443 0.04151 0.0
N753 N 0.87154 0.30351 0.05334 0.0
N754 N 0.7963 0.28546 0.02926 0.0
C755 C 0.8303 0.3386 0.03441 0.0
C756 C 0.87101 0.34848 0.04749 0.0
C757 C 0.73186 0.58655 0.03143 0.0
C758 C 0.69496 0.57844 0.04553 0.0
C759 C 0.7191 0.54599 0.01816 0.0
C760 C 0.66941 0.49585 0.0187 0.0
H761 H 0.77269 0.62223 0.0315 0.0
H762 H 0.75127 0.5507 1.00909 0.0
S763 S 0.55278 0.46089 0.04913 0.0
N764 N 0.60147 0.52184 0.05639 0.0
N765 N 0.57873 0.44519 0.0316 0.0
C766 C 0.62909 0.49104 0.03076 0.0
C767 C 0.64172 0.53238 0.04428 0.0
C768 C 0.54781 0.8797 0.87198 0.0
C769 C 0.53196 0.91763 0.8768 0.0
C770 C 0.5194 0.83918 0.85871 0.0
C771 C 0.47377 0.83463 0.84972 0.0
H772 H 0.58048 0.87916 0.87919 0.0
H773 H 0.53065 0.80841 0.85648 0.0
S774 S 0.4218 0.92984 0.85453 0.0
N775 N 0.47256 0.95317 0.8692 0.0
N776 N 0.41886 0.8759 0.8446 0.0
C777 C 0.46095 0.87549 0.85294 0.0
C778 C 0.48998 0.91713 0.86645 0.0
C779 C 0.15678 0.69414 0.8697 0.0
C780 C 0.12048 0.63994 0.87513 0.0
C781 C 0.19602 0.70564 0.85627 0.0
C782 C 0.2008 0.66347 0.84779 0.0
H783 H 0.15736 0.72838 0.87664 0.0
H784 H 0.22599 0.74824 0.85365 0.0
S785 S 0.10853 0.51414 0.85404 0.0
N786 N 0.08578 0.54291 0.86845 0.0
N787 N 0.16076 0.56538 0.84358 0.0
C788 C 0.16097 0.60903 0.85147 0.0
C789 C 0.1206 0.59701 0.86512 0.0
C790 C 0.30778 0.46722 0.86211 0.0
C791 C 0.34674 0.48193 0.87596 0.0
C792 C 0.3154 0.50379 0.84822 0.0
C793 C 0.36199 0.5567 0.84771 0.0
H794 H 0.26913 0.42885 0.86278 0.0
H795 H 0.28162 0.49305 0.83912 0.0
S796 S 0.48062 0.61172 0.87867 0.0
N797 N 0.43767 0.54987 0.88654 0.0
N798 N 0.45101 0.61903 0.86063 0.0
C799 C 0.40408 0.56937 0.86011 0.0
C800 C 0.39662 0.53191 0.87424 0.0
C801 C 0.52794 0.89075 0.97579 0.0
C802 C 0.51686 0.93016 0.96892 0.0
C803 C 0.49603 0.85505 0.98975 0.0
C804 C 0.45159 0.85701 0.99734 0.0
H805 H 0.55941 0.88518 0.96968 0.0
H806 H 0.50294 0.82222 0.9934 0.0
S807 S 0.41074 0.95801 0.98678 0.0
N808 N 0.46275 0.97402 0.97311 0.0
N809 N 0.402 0.90502 0.99856 0.0
C810 C 0.44294 0.89887 0.99176 0.0
C811 C 0.47576 0.9359 0.97778 0.0
C812 C 0.13175 0.57879 0.97282 0.0
C813 C 0.13316 0.62608 0.96611 0.0
C814 C 0.16829 0.58231 0.98619 0.0
C815 C 0.20671 0.63294 0.99392 0.0
H816 H 0.10406 0.53862 0.96706 0.0
H817 H 0.16865 0.54553 0.98971 0.0
S818 S 0.22568 0.76873 0.98263 0.0
N819 N 0.17521 0.72515 0.96931 0.0
N820 N 0.24274 0.7312 0.99472 0.0
C821 C 0.20645 0.68008 0.98831 0.0
C822 C 0.17002 0.67682 0.97439 0.0
C823 C 0.3586 0.56669 0.9605 0.0
C824 C 0.36484 0.52177 0.9638 0.0
C825 C 0.37728 0.61019 0.97291 0.0
C826 C 0.40175 0.61023 0.9895 0.0
H827 H 0.3394 0.56849 0.94811 0.0
H828 H 0.37119 0.64374 0.96955 0.0
S829 S 0.42717 0.50139 1.0047 0.0
N830 N 0.39812 0.47957 0.98458 0.0
N831 N 0.43088 0.56081 1.00856 0.0
C832 C 0.40792 0.56523 0.9931 0.0
C833 C 0.39022 0.52124 0.98007 0.0
C834 C 0.14427 0.51631 0.48311 0.0
C835 C 0.14383 0.46647 0.48178 0.0
C836 C 0.17177 0.5537 0.49737 0.0
C837 C 0.19945 0.5423 0.51071 0.0
H838 H 0.12799 0.52894 0.47221 0.0
H839 H 0.17756 0.59449 0.49657 0.0
S840 S 0.19734 0.41182 0.51626 0.0
N841 N 0.16303 0.40298 0.49733 0.0
N842 N 0.21516 0.47384 0.52383 0.0
C843 C 0.1921 0.48955 0.511 0.0
C844 C 0.16452 0.45157 0.49651 0.0
C845 C 0.56876 0.73854 0.49435 0.0
C846 C 0.55907 0.70117 0.48005 0.0
C847 C 0.53008 0.72615 0.50809 0.0
C848 C 0.48019 0.67607 0.50803 0.0
H849 H 0.60468 0.77932 0.49427 0.0
H850 H 0.53648 0.75852 0.51754 0.0
S851 S 0.43939 0.55965 0.47609 0.0
N852 N 0.49963 0.60797 0.46863 0.0
N853 N 0.42663 0.58569 0.49433 0.0
C854 C 0.47293 0.63583 0.49523 0.0
C855 C 0.51239 0.64819 0.48121 0.0
C856 C 0.42386 0.89311 0.48408 0.0
C857 C 0.38101 0.89756 0.4764 0.0
C858 C 0.41413 0.85545 0.49792 0.0
C859 C 0.3612 0.82077 0.50456 0.0
H860 H 0.4649 0.91673 0.47874 0.0
H861 H 0.44735 0.85019 0.50226 0.0
S862 S 0.23665 0.82251 0.49186 0.0
N863 N 0.28482 0.86902 0.47872 0.0
N864 N 0.26691 0.79806 0.5044 0.0
C865 C 0.31908 0.82824 0.49828 0.0
C866 C 0.32884 0.8666 0.48428 0.0
C867 C 0.15265 0.49867 0.3814 0.0
C868 C 0.17612 0.47001 0.38882 0.0
C869 C 0.17827 0.53625 0.36737 0.0
C870 C 0.22835 0.54678 0.36005 0.0
H871 H 0.1155 0.49428 0.38704 0.0
H872 H 0.16073 0.56038 0.36315 0.0
S873 S 0.30302 0.47679 0.37234 0.0
N874 N 0.24938 0.44984 0.38592 0.0
N875 N 0.29745 0.52124 0.35968 0.0
C876 C 0.24981 0.51494 0.36605 0.0
C877 C 0.22382 0.47652 0.38044 0.0
C878 C 0.56282 0.78057 0.38116 0.0
C879 C 0.56702 0.73685 0.3883 0.0
C880 C 0.526 0.77187 0.36713 0.0
C881 C 0.49221 0.7192 0.35974 0.0
H882 H 0.58564 0.82129 0.38715 0.0
H883 H 0.52037 0.80538 0.36329 0.0
S884 S 0.49419 0.59318 0.3708 0.0
N885 N 0.53966 0.64055 0.38464 0.0
N886 N 0.47023 0.62457 0.3586 0.0
C887 C 0.49982 0.67652 0.36542 0.0
C888 C 0.53719 0.68518 0.37964 0.0
C889 C 0.3 0.84586 0.38415 0.0
C890 C 0.34749 0.89822 0.3841 0.0
C891 C 0.28956 0.80814 0.36996 0.0
C892 C 0.32625 0.82177 0.35539 0.0
H893 H 0.27389 0.83191 0.396 0.0
H894 H 0.25699 0.76596 0.3717 0.0
S895 S 0.44632 0.95863 0.34625 0.0
N896 N 0.42383 0.96583 0.36619 0.0
N897 N 0.40426 0.89447 0.33976 0.0
C898 C 0.36856 0.87648 0.35386 0.0
C899 C 0.37949 0.91479 0.36826 0.0
C900 C 0.25114 0.03767 0.13334 0.0
C901 C 0.28167 0.07228 0.11892 0.0
C902 C 0.20556 0.03812 0.14059 0.0
C903 C 0.189 0.07324 0.13369 0.0
H904 H 0.2611 0.0084 0.13861 0.0
H905 H 0.18094 0.00812 0.15073 0.0
S906 S 0.2577 0.17608 0.09759 0.0
N907 N 0.29437 0.14643 0.09932 0.0
N908 N 0.20845 0.14612 0.11274 0.0
C909 C 0.22085 0.11015 0.1201 0.0
C910 C 0.26726 0.11003 0.11277 0.0
C911 C 0.95986 0.19009 0.1073 0.0
C912 C 0.9856 0.24048 0.11678 0.0
C913 C 0.95899 0.14391 0.11421 0.0
C914 C 0.98289 0.14572 0.13105 0.0
H915 H 0.94219 0.18677 0.09405 0.0
H916 H 0.94163 0.10699 0.10588 0.0
S917 S 0.04882 0.26531 0.16243 0.0
N918 N 0.03096 0.28794 0.14479 0.0
N919 N 0.02876 0.20052 0.15779 0.0
C920 C 0.0054 0.19457 0.14128 0.0
C921 C 0.00705 0.24214 0.13412 0.0
C922 C 0.80524 0.80505 0.13325 0.0
C923 C 0.80924 0.777 0.11791 0.0
C924 C 0.85225 0.84832 0.14161 0.0
C925 C 0.90466 0.86446 0.13501 0.0
H926 H 0.7656 0.79564 0.13823 0.0
H927 H 0.84737 0.87208 0.15227 0.0
S928 S 0.93849 0.79993 0.0972 0.0
N929 N 0.87122 0.76571 0.09787 0.0
N930 N 0.95832 0.84566 0.11383 0.0
C931 C 0.90928 0.83377 0.12083 0.0
C932 C 0.86191 0.79049 0.11218 0.0
C933 C 0.08706 0.25905 0.41519 0.0
C934 C 0.051 0.27463 0.4084 0.0
C935 C 0.08955 0.21493 0.40764 0.0
C936 C 0.05655 0.1848 0.39287 0.0
H937 H 0.11175 0.27918 0.42706 0.0
H938 H 0.11475 0.20184 0.41423 0.0
S939 S 0.96024 0.21234 0.36846 0.0
N940 N 0.98551 0.25957 0.38473 0.0
N941 N 0.99013 0.17592 0.37065 0.0
C942 C 0.02348 0.20229 0.38498 0.0
C943 C 0.02065 0.24736 0.39274 0.0
C944 C 0.78637 0.80487 0.3933 0.0
C945 C 0.75958 0.81121 0.40848 0.0
C946 C 0.83032 0.85066 0.38489 0.0
C947 C 0.84844 0.90419 0.39128 0.0
H948 H 0.77543 0.76422 0.38852 0.0
H949 H 0.85307 0.84384 0.3744 0.0
S950 S 0.7877 0.94417 0.42855 0.0
N951 N 0.75133 0.87646 0.42807 0.0
N952 N 0.83289 0.96155 0.4121 0.0
C953 C 0.81904 0.91123 0.4053 0.0
C954 C 0.77496 0.86501 0.41398 0.0
C955 C 0.22493 0.00731 0.39776 0.0
C956 C 0.21901 0.97643 0.41338 0.0
C957 C 0.17986 0.00672 0.3898 0.0
C958 C 0.12734 0.97542 0.39724 0.0
H959 H 0.26492 0.03342 0.3919 0.0
H960 H 0.18679 0.03373 0.37855 0.0
S961 S 0.08839 0.88346 0.43682 0.0
N962 N 0.15495 0.91013 0.43494 0.0
N963 N 0.07112 0.91005 0.42021 0.0
C964 C 0.12041 0.94228 0.41221 0.0
C965 C 0.16596 0.9425 0.42022 0.0
C966 C 0.77967 0.95732 0.91754 0.0
C967 C 0.75744 0.98084 0.90636 0.0
C968 C 0.82842 0.95892 0.91291 0.0
C969 C 0.85639 0.98258 0.89663 0.0
H970 H 0.7607 0.9398 0.93043 0.0
H971 H 0.84525 0.94278 0.92245 0.0
S972 S 0.81294 0.04523 0.86171 0.0
N973 N 0.76584 0.02589 0.87767 0.0
N974 N 0.85624 0.02709 0.86876 0.0
C975 C 0.83301 0.0034 0.88481 0.0
C976 C 0.784 0.00306 0.88974 0.0
C977 C 0.09111 0.85481 0.91518 0.0
C978 C 0.06694 0.8062 0.9047 0.0
C979 C 0.0888 0.90101 0.90981 0.0
C980 C 0.06358 0.90146 0.89346 0.0
H981 H 0.10949 0.85631 0.92814 0.0
H982 H 0.10513 0.93614 0.91894 0.0
S983 S 1.00129 0.78756 0.85975 0.0
N984 N 0.02137 0.76317 0.87628 0.0
N985 N 0.01852 0.8506 0.86601 0.0
C986 C 0.04272 0.8546 0.8822 0.0
C987 C 0.04392 0.80687 0.88788 0.0
C988 C 0.19505 0.27701 0.90488 0.0
C989 C 0.24588 0.27984 0.90515 0.0
C990 C 0.14736 0.22938 0.89875 0.0
C991 C 0.1489 0.18296 0.89274 0.0
H992 H 0.19178 0.31128 0.90989 0.0
H993 H 0.10871 0.22788 0.89958 0.0
S994 S 0.27043 0.16787 0.89164 0.0
N995 N 0.29414 0.23145 0.89891 0.0
N996 N 0.20457 0.14191 0.88811 0.0
C997 C 0.1994 0.18559 0.8927 0.0
C998 C 0.24791 0.23408 0.89867 0.0
C999 C 0.93519 0.77117 0.62135 0.0
C1000 C 0.97631 0.75981 0.62579 0.0
C1001 C 0.93163 0.81338 0.6301 0.0
C1002 C 0.96913 0.84627 0.64361 0.0
H1003 H 0.90727 0.7495 0.61029 0.0
H1004 H 0.90271 0.82395 0.62497 0.0
S1005 S 0.07932 0.82874 0.66226 0.0
N1006 N 0.05095 0.78057 0.64637 0.0
N1007 N 0.04484 0.86103 0.66245 0.0
C1008 C 0.00714 0.83221 0.64939 0.0
C1009 C 0.0107 0.78882 0.64053 0.0
C1010 C 0.24031 0.22989 0.63553 0.0
C1011 C 0.26779 0.22356 0.62054 0.0
C1012 C 0.19701 0.18396 0.6442 0.0
C1013 C 0.18039 0.13022 0.63835 0.0
H1014 H 0.25003 0.27052 0.6399 0.0
H1015 H 0.17359 0.19066 0.65446 0.0
S1016 S 0.2443 0.09055 0.60203 0.0
N1017 N 0.27851 0.15826 0.60185 0.0
N1018 N 0.19889 0.07314 0.61841 0.0
C1019 C 0.21083 0.12347 0.62462 0.0
C1020 C 0.25394 0.16977 0.61561 0.0
C1021 C 0.85742 0.07008 0.60097 0.0
C1022 C 0.81115 0.05452 0.61179 0.0
C1023 C 0.90213 0.06778 0.60764 0.0
C1024 C 0.90289 0.05127 0.62552 0.0
H1025 H 0.85829 0.08213 0.58704 0.0
H1026 H 0.93588 0.07774 0.59855 0.0
S1027 S 0.79415 0.01231 0.65996 0.0
N1028 N 0.77029 0.02596 0.64168 0.0
N1029 N 0.85472 0.02256 0.65426 0.0
C1030 C 0.85813 0.03856 0.63679 0.0
C1031 C 0.8121 0.03985 0.62989 0.0
C1032 C 0.90229 0.36246 0.4654 0.0
C1033 C 0.93572 0.40039 0.45212 0.0
C1034 C 0.85676 0.3629 0.47261 0.0
C1035 C 0.84308 0.40131 0.46683 0.0
H1036 H 0.90999 0.33076 0.46978 0.0
H1037 H 0.83 0.33063 0.48181 0.0
S1038 S 0.91992 0.51319 0.4341 0.0
N1039 N 0.95432 0.48092 0.43491 0.0
N1040 N 0.86811 0.48048 0.4482 0.0
C1041 C 0.87763 0.44125 0.4544 0.0
C1042 C 0.92416 0.44118 0.44713 0.0
C1043 C 0.61047 0.51689 0.44086 0.0
C1044 C 0.6374 0.56701 0.45048 0.0
C1045 C 0.61011 0.47034 0.4472 0.0
C1046 C 0.63548 0.47156 0.46365 0.0
H1047 H 0.59156 0.51412 0.42789 0.0
H1048 H 0.59173 0.43361 0.43877 0.0
S1049 S 0.70636 0.59063 0.49506 0.0
N1050 N 0.68655 0.61381 0.47809 0.0
N1051 N 0.68489 0.52573 0.49008 0.0
C1052 C 0.65949 0.52023 0.47401 0.0
C1053 C 0.66081 0.56814 0.46739 0.0
C1054 C 0.46206 0.12773 0.47016 0.0
C1055 C 0.46486 0.09775 0.45519 0.0
C1056 C 0.50956 0.17303 0.47751 0.0
C1057 C 0.56128 0.18952 0.47018 0.0
H1058 H 0.42282 0.11812 0.4756 0.0
H1059 H 0.50536 0.19785 0.48794 0.0
S1060 S 0.59231 0.12076 0.433 0.0
N1061 N 0.52523 0.08494 0.43482 0.0
N1062 N 0.61335 0.16934 0.44872 0.0
C1063 C 0.56497 0.15725 0.45635 0.0
C1064 C 0.51706 0.11161 0.4488 0.0
C1065 C 0.71408 0.57031 0.73296 0.0
C1066 C 0.73462 0.59079 0.75042 0.0
C1067 C 0.71641 0.52581 0.72554 0.0
C1068 C 0.7386 0.49998 0.73549 0.0
H1069 H 0.69419 0.58735 0.72524 0.0
H1070 H 0.69702 0.50902 0.71256 0.0
S1071 S 0.80525 0.54283 0.7805 0.0
N1072 N 0.78408 0.58601 0.77645 0.0
N1073 N 0.78717 0.50163 0.7626 0.0
C1074 C 0.76287 0.52255 0.75233 0.0
C1075 C 0.76118 0.56819 0.75979 0.0
C1076 C 0.44425 0.20069 0.74034 0.0
C1077 C 0.43045 0.14664 0.73602 0.0
C1078 C 0.48585 0.24545 0.73104 0.0
C1079 C 0.51575 0.23795 0.71723 0.0
H1080 H 0.4254 0.20895 0.75178 0.0
H1081 H 0.49907 0.28641 0.73615 0.0
S1082 S 0.48829 0.10491 0.69808 0.0
N1083 N 0.44357 0.08791 0.71473 0.0
N1084 N 0.52309 0.1727 0.69768 0.0
C1085 C 0.49798 0.18424 0.71127 0.0
C1086 C 0.45524 0.13834 0.72066 0.0
C1087 C 0.83011 0.25298 0.74875 0.0
C1088 C 0.88125 0.28367 0.74035 0.0
C1089 C 0.78381 0.25113 0.74157 0.0
C1090 C 0.78667 0.2796 0.72567 0.0
H1091 H 0.82629 0.23284 0.76151 0.0
H1092 H 0.74617 0.23024 0.74926 0.0
S1093 S 0.90865 0.35672 0.69653 0.0
N1094 N 0.93031 0.33608 0.71369 0.0
N1095 N 0.84329 0.33295 0.70042 0.0
C1096 C 0.83629 0.3058 0.71617 0.0
C1097 C 0.88365 0.30795 0.72351 0.0
C1098 C 0.46717 0.29919 0.25873 0.0
C1099 C 0.44092 0.31951 0.24805 0.0
C1100 C 0.51392 0.29966 0.25244 0.0
C1101 C 0.53522 0.31895 0.23504 0.0
H1102 H 0.45283 0.28484 0.27233 0.0
H1103 H 0.53442 0.28613 0.26146 0.0
S1104 S 0.47868 0.3719 0.20115 0.0
N1105 N 0.43769 0.3565 0.21883 0.0
N1106 N 0.52484 0.35621 0.20689 0.0
C1107 C 0.50771 0.3367 0.22387 0.0
C1108 C 0.46079 0.33737 0.23042 0.0
C1109 C 0.69425 0.14215 0.22613 0.0
C1110 C 0.73247 0.14834 0.23941 0.0
C1111 C 0.6961 0.188 0.21821 0.0
C1112 C 0.73636 0.24172 0.2232 0.0
H1113 H 0.6611 0.10164 0.22238 0.0
H1114 H 0.66326 0.18135 0.20929 0.0
S1115 S 0.84998 0.28099 0.25541 0.0
N1116 N 0.81528 0.21322 0.25564 0.0
N1117 N 0.81788 0.29869 0.24096 0.0
C1118 C 0.7768 0.24845 0.23548 0.0
C1119 C 0.7751 0.20201 0.24353 0.0
C1120 C 0.90615 0.58378 0.22323 0.0
C1121 C 0.89877 0.61278 0.23757 0.0
C1122 C 0.8612 0.54016 0.21419 0.0
C1123 C 0.80746 0.52476 0.21896 0.0
H1124 H 0.94668 0.59226 0.21978 0.0
H1125 H 0.86843 0.51509 0.20469 0.0
S1126 S 0.7656 0.59253 0.25323 0.0
N1127 N 0.83283 0.62642 0.25443 0.0
N1128 N 0.74939 0.54562 0.23717 0.0
C1129 C 0.79981 0.55688 0.23188 0.0
C1130 C 0.84516 0.60046 0.24131 0.0
C1131 C 0.69508 0.14506 0.96264 0.0
C1132 C 0.65767 0.11897 0.94832 0.0
C1133 C 0.69886 0.19062 0.97189 0.0
C1134 C 0.66421 0.21033 0.96747 0.0
H1135 H 0.72335 0.13189 0.96618 0.0
H1136 H 0.73087 0.21225 0.98186 0.0
S1137 S 0.55712 0.15559 0.93219 0.0
N1138 N 0.58416 0.11635 0.93078 0.0
N1139 N 0.59004 0.19973 0.9488 0.0
C1140 C 0.62483 0.18301 0.95401 0.0
C1141 C 0.62182 0.13785 0.94426 0.0
C1142 C 0.91313 0.58889 0.96541 0.0
C1143 C 0.93955 0.57463 0.9521 0.0
C1144 C 0.86836 0.54828 0.97521 0.0
C1145 C 0.84998 0.4923 0.9725 0.0
H1146 H 0.92468 0.6314 0.96743 0.0
H1147 H 0.84557 0.56046 0.98393 0.0
S1148 S 0.90785 0.43284 0.941 0.0
N1149 N 0.94517 0.49965 0.93782 0.0
N1150 N 0.86358 0.42468 0.95695 0.0
C1151 C 0.87874 0.47784 0.96047 0.0
C1152 C 0.92284 0.51863 0.95005 0.0
C1153 C 0.52898 0.41643 0.93802 0.0
C1154 C 0.48121 0.40054 0.94803 0.0
C1155 C 0.57179 0.41224 0.94523 0.0
C1156 C 0.56924 0.39309 0.96291 0.0
H1157 H 0.53268 0.43039 0.92419 0.0
H1158 H 0.60681 0.42284 0.93668 0.0
S1159 S 0.4559 0.35171 0.99556 0.0
N1160 N 0.43528 0.36834 0.9771 0.0
N1161 N 0.51696 0.36157 0.99079 0.0
C1162 C 0.52316 0.37983 0.97351 0.0
C1163 C 0.47875 0.38312 0.96602 0.0
C1164 C 0.5785 0.73078 0.77783 0.0
C1165 C 0.59308 0.69498 0.7854 0.0
C1166 C 0.53037 0.72888 0.78284 0.0
C1167 C 0.49412 0.69106 0.79563 0.0
H1168 H 0.60417 0.7604 0.76778 0.0
H1169 H 0.52145 0.75749 0.77632 0.0
S1170 S 0.51442 0.58993 0.82034 0.0
N1171 N 0.56852 0.6217 0.80706 0.0
N1172 N 0.47727 0.61812 0.81636 0.0
C1173 C 0.50864 0.65578 0.80376 0.0
C1174 C 0.55819 0.65774 0.79861 0.0
C1175 C 0.37972 0.92658 0.792 0.0
C1176 C 0.33045 0.91767 0.78436 0.0
C1177 C 0.3845 0.88276 0.79862 0.0
C1178 C 0.33995 0.8287 0.79795 0.0
H1179 H 0.41558 0.96738 0.79219 0.0
H1180 H 0.42389 0.8908 0.80326 0.0
S1181 S 0.19993 0.78437 0.78213 0.0
N1182 N 0.23489 0.85113 0.77855 0.0
N1183 N 0.24362 0.76948 0.79104 0.0
C1184 C 0.28969 0.81996 0.79153 0.0
C1185 C 0.28496 0.86417 0.7847 0.0
C1186 C 0.12893 0.45371 0.79798 0.0
C1187 C 0.11613 0.4417 0.77944 0.0
C1188 C 0.17246 0.50534 0.8037 0.0
C1189 C 0.20326 0.54666 0.79104 0.0
H1190 H 0.10682 0.42228 0.808 0.0
H1191 H 0.18382 0.51181 0.81788 0.0
S1192 S 0.1797 0.53771 0.74128 0.0
N1193 N 0.13399 0.47637 0.74877 0.0
N1194 N 0.21359 0.57358 0.75938 0.0
C1195 C 0.18812 0.53579 0.77262 0.0
C1196 C 0.14509 0.48326 0.76684 0.0
C1197 C 0.43293 0.92923 0.08236 0.0
C1198 C 0.39735 0.94539 0.07558 0.0
C1199 C 0.43665 0.88635 0.07423 0.0
C1200 C 0.40555 0.85822 0.05885 0.0
H1201 H 0.45629 0.94798 0.09459 0.0
H1202 H 0.46142 0.87264 0.08077 0.0
S1203 S 0.31089 0.88817 0.03444 0.0
N1204 N 0.33412 0.933 0.05143 0.0
N1205 N 0.34115 0.85201 0.03627 0.0
C1206 C 0.37291 0.87644 0.05108 0.0
C1207 C 0.36869 0.92003 0.05945 0.0
C1208 C 0.13002 0.4812 0.05919 0.0
C1209 C 0.10365 0.48662 0.07469 0.0
C1210 C 0.17303 0.52745 0.05058 0.0
C1211 C 0.19115 0.58089 0.0571 0.0
H1212 H 0.11931 0.44082 0.05418 0.0
H1213 H 0.19517 0.52105 0.03977 0.0
S1214 S 0.13134 0.61853 0.09541 0.0
N1215 N 0.0954 0.55078 0.09475 0.0
N1216 N 0.17595 0.6369 0.07869 0.0
C1217 C 0.16235 0.58698 0.07161 0.0
C1218 C 0.11878 0.54015 0.08038 0.0
C1219 C 0.51218 0.61924 0.08108 0.0
C1220 C 0.56433 0.65247 0.07354 0.0
C1221 C 0.46575 0.61596 0.07334 0.0
C1222 C 0.4691 0.645 0.05754 0.0
H1223 H 0.50735 0.59749 0.09357 0.0
H1224 H 0.42722 0.59305 0.08044 0.0
S1225 S 0.59444 0.73144 0.03089 0.0
N1226 N 0.61553 0.71035 0.0481 0.0
N1227 N 0.52799 0.70384 0.03365 0.0
C1228 C 0.52014 0.6749 0.04904 0.0
C1229 C 0.56779 0.67887 0.05704 0.0
C1230 C 0.11391 0.61072 0.58773 0.0
C1231 C 0.095 0.64167 0.57904 0.0
C1232 C 0.15948 0.60941 0.58121 0.0
C1233 C 0.1871 0.63775 0.56547 0.0
H1234 H 0.09498 0.58932 0.60017 0.0
H1235 H 0.17478 0.58805 0.58903 0.0
S1236 S 0.15072 0.7199 0.53649 0.0
N1237 N 0.1051 0.69805 0.553 0.0
N1238 N 0.19028 0.69453 0.54062 0.0
C1239 C 0.16664 0.6659 0.55595 0.0
C1240 C 0.12077 0.66824 0.56279 0.0
C1241 C 0.35852 0.46694 0.56353 0.0
C1242 C 0.39099 0.47049 0.57846 0.0
C1243 C 0.36062 0.51393 0.55648 0.0
C1244 C 0.39497 0.56616 0.56418 0.0
H1245 H 0.33007 0.42736 0.55753 0.0
H1246 H 0.33246 0.5088 0.54579 0.0
S1247 S 0.49171 0.59913 0.60219 0.0
N1248 N 0.46188 0.53189 0.59962 0.0
N1249 N 0.46461 0.61938 0.58666 0.0
C1250 C 0.4295 0.57066 0.57845 0.0
C1251 C 0.42786 0.52311 0.58551 0.0
C1252 C 0.5644 0.91174 0.55881 0.0
C1253 C 0.56321 0.94174 0.57404 0.0
C1254 C 0.51636 0.86594 0.55208 0.0
C1255 C 0.46575 0.84892 0.56036 0.0
H1256 H 0.60296 0.92169 0.55267 0.0
H1257 H 0.51952 0.84112 0.54139 0.0
S1258 S 0.43871 0.91797 0.59848 0.0
N1259 N 0.50543 0.95462 0.59558 0.0
N1260 N 0.41598 0.86867 0.58296 0.0
C1261 C 0.46339 0.88117 0.57449 0.0
C1262 C 0.51194 0.92757 0.58134 0.0
C1263 C 0.28138 0.45501 0.2813 0.0
C1264 C 0.3183 0.4411 0.28844 0.0
C1265 C 0.27728 0.49855 0.28853 0.0
C1266 C 0.30955 0.52981 0.30329 0.0
H1267 H 0.25723 0.43399 0.26941 0.0
H1268 H 0.25136 0.51032 0.2817 0.0
S1269 S 0.40746 0.50645 0.32853 0.0
N1270 N 0.38364 0.45867 0.31244 0.0
N1271 N 0.37612 0.54132 0.32589 0.0
C1272 C 0.34343 0.51389 0.31153 0.0
C1273 C 0.34785 0.46938 0.30411 0.0
C1274 C 0.58401 0.85485 0.27744 0.0
C1275 C 0.60405 0.90786 0.28475 0.0
C1276 C 0.53975 0.80875 0.2853 0.0
C1277 C 0.51368 0.81331 0.30091 0.0
H1278 H 0.60084 0.84892 0.265 0.0
H1279 H 0.5235 0.76947 0.27838 0.0
S1280 S 0.55542 0.94106 0.32715 0.0
N1281 N 0.59849 0.96125 0.30991 0.0
N1282 N 0.51471 0.874 0.32461 0.0
C1283 C 0.53593 0.86516 0.3093 0.0
C1284 C 0.58114 0.91258 0.3012 0.0
C1285 C 0.18835 0.76033 0.27551 0.0
C1286 C 0.13707 0.73022 0.28393 0.0
C1287 C 0.23434 0.76142 0.28258 0.0
C1288 C 0.23137 0.73348 0.29857 0.0
H1289 H 0.19267 0.78137 0.26291 0.0
H1290 H 0.27216 0.78231 0.27498 0.0
S1291 S 0.10855 0.65398 0.32707 0.0
N1292 N 0.08711 0.67546 0.31007 0.0
N1293 N 0.17417 0.67832 0.3234 0.0
C1294 C 0.18137 0.70624 0.30781 0.0
C1295 C 0.13404 0.70428 0.30045 0.0
loop_
_geom_bond_atom_site_label_1
_geom_bond_atom_site_label_2
_geom_bond_distance
_geom_bond_site_symmetry_2
_ccdc_geom_bond_type
Co0 O1 2.216 . S
Co0 O2 2.091 . S
Co0 O4 2.004 . S
Co0 O10 2.021 . S
Co0 O12 2.138 1_545 S
Co0 O13 2.244 1_545 S
O1 Co0 2.216 . S
O1 C8 1.247 . S
O2 Co0 2.091 . S
O2 C8 1.261 . S
C3 O12 1.267 . S
C3 O13 1.272 . S
O4 Co0 2.004 . S
O4 C9 1.259 . S
Co5 O6 2.061 . S
Co5 O11 2.052 . S
Co5 O13 2.135 . S
O6 Co5 2.061 . S
O6 C9 1.235 1_565 S
C7 O10 1.238 . S
C7 O11 1.241 1_545 S
C8 O1 1.247 . S
C8 O2 1.261 . S
C9 O4 1.259 . S
C9 O6 1.235 1_545 S
O10 Co0 2.021 . S
O10 C7 1.238 . S
O11 Co5 2.052 . S
O11 C7 1.241 1_565 S
O12 Co0 2.138 1_565 S
O12 C3 1.267 . S
O13 Co0 2.244 1_565 S
O13 C3 1.272 . S
O13 Co5 2.135 . S
Co14 O15 2.216 . S
Co14 O16 2.091 . S
Co14 O18 2.004 . S
Co14 O24 2.021 . S
Co14 O26 2.137 1_455 S
Co14 O27 2.244 1_455 S
O15 Co14 2.216 . S
O15 C22 1.247 . S
O16 Co14 2.091 . S
O16 C22 1.261 . S
C17 O26 1.247 . S
C17 O27 1.272 . S
O18 Co14 2.004 . S
O18 C23 1.259 . S
Co19 O20 2.061 . S
Co19 O25 2.052 . S
Co19 O27 2.135 . S
O20 Co19 2.061 . S
O20 C23 1.235 1_655 S
C21 O24 1.238 1_655 S
C21 O25 1.241 . S
C22 O15 1.247 . S
C22 O16 1.261 . S
C23 O18 1.259 . S
C23 O20 1.235 1_455 S
O24 Co14 2.021 . S
O24 C21 1.238 1_455 S
O25 Co19 2.052 . S
O25 C21 1.241 . S
O26 Co14 2.137 1_655 S
O26 C17 1.247 . S
O27 Co14 2.244 1_655 S
O27 C17 1.272 . S
O27 Co19 2.135 . S
Co28 O29 2.216 . S
Co28 O30 2.091 . S
Co28 O32 2.004 . S
Co28 O38 2.021 . S
Co28 O40 2.137 . S
Co28 O41 2.244 . S
O29 Co28 2.216 . S
O29 C36 1.247 . S
O30 Co28 2.091 . S
O30 C36 1.261 . S
C31 O40 1.247 . S
C31 O41 1.272 . S
O32 Co28 2.004 . S
O32 C37 1.259 . S
Co33 O34 2.061 . S
Co33 O39 2.052 . S
Co33 O41 2.135 . S
O34 Co33 2.061 . S
O34 C37 1.235 . S
C35 O38 1.238 . S
C35 O39 1.241 . S
C36 O29 1.247 . S
C36 O30 1.261 . S
C37 O32 1.259 . S
C37 O34 1.235 . S
O38 Co28 2.021 . S
O38 C35 1.238 . S
O39 Co33 2.052 . S
O39 C35 1.241 . S
O40 Co28 2.137 . S
O40 C31 1.247 . S
O41 Co28 2.244 . S
O41 C31 1.272 . S
O41 Co33 2.135 . S
Co42 O43 2.216 1_545 S
Co42 O44 2.091 1_545 S
Co42 O46 2.004 1_545 S
Co42 O52 2.021 . S
Co42 O54 2.137 . S
Co42 O55 2.244 . S
O43 Co42 2.216 1_565 S
O43 C50 1.247 . S
O44 Co42 2.091 1_565 S
O44 C50 1.261 . S
C45 O54 1.247 . S
C45 O55 1.272 . S
O46 Co42 2.004 1_565 S
O46 C51 1.259 1_565 S
Co47 O48 2.061 . S
Co47 O53 2.052 . S
Co47 O55 2.135 . S
O48 Co47 2.061 . S
O48 C51 1.235 . S
C49 O52 1.238 . S
C49 O53 1.241 . S
C50 O43 1.247 . S
C50 O44 1.261 . S
C51 O46 1.259 1_545 S
C51 O48 1.235 . S
O52 Co42 2.021 . S
O52 C49 1.238 . S
O53 Co47 2.052 . S
O53 C49 1.241 . S
O54 Co42 2.137 . S
O54 C45 1.247 . S
O55 Co42 2.244 . S
O55 C45 1.272 . S
O55 Co47 2.135 . S
Co56 O57 2.216 1_455 S
Co56 O58 2.091 1_455 S
Co56 O60 2.004 1_455 S
Co56 O66 2.021 1_455 S
Co56 O68 2.137 . S
Co56 O69 2.244 . S
O57 Co56 2.216 1_655 S
O57 C64 1.247 . S
O58 Co56 2.091 1_655 S
O58 C64 1.261 . S
C59 O68 1.247 . S
C59 O69 1.272 . S
O60 Co56 2.004 1_655 S
O60 C65 1.259 1_655 S
Co61 O62 2.061 . S
Co61 O67 2.052 . S
Co61 O69 2.135 . S
O62 Co61 2.061 . S
O62 C65 1.235 . S
C63 O66 1.238 1_455 S
C63 O67 1.241 . S
C64 O57 1.247 . S
C64 O58 1.261 . S
C65 O60 1.259 1_455 S
C65 O62 1.235 . S
O66 Co56 2.021 1_655 S
O66 C63 1.238 1_655 S
O67 Co61 2.052 . S
O67 C63 1.241 . S
O68 Co56 2.137 . S
O68 C59 1.247 . S
O69 Co56 2.244 . S
O69 C59 1.272 . S
O69 Co61 2.135 . S
Co70 O71 2.216 . S
Co70 O72 2.091 . S
Co70 O74 2.004 . S
Co70 O80 2.021 . S
Co70 O82 2.137 . S
Co70 O83 2.244 . S
O71 Co70 2.216 . S
O71 C78 1.247 . S
O72 Co70 2.091 . S
O72 C78 1.261 . S
C73 O82 1.247 . S
C73 O83 1.272 . S
O74 Co70 2.004 . S
O74 C79 1.259 . S
Co75 O76 2.061 . S
Co75 O81 2.052 . S
Co75 O83 2.135 . S
O76 Co75 2.061 . S
O76 C79 1.235 . S
C77 O80 1.238 . S
C77 O81 1.241 . S
C78 O71 1.247 . S
C78 O72 1.261 . S
C79 O74 1.259 . S
C79 O76 1.235 . S
O80 Co70 2.021 . S
O80 C77 1.238 . S
O81 Co75 2.052 . S
O81 C77 1.241 . S
O82 Co70 2.137 . S
O82 C73 1.247 . S
O83 Co70 2.244 . S
O83 C73 1.272 . S
O83 Co75 2.135 . S
Co84 O85 2.216 . S
Co84 O86 2.091 . S
Co84 O88 2.004 . S
Co84 O94 2.021 . S
Co84 O96 2.137 . S
Co84 O97 2.244 . S
O85 Co84 2.216 . S
O85 C92 1.247 . S
O86 Co84 2.091 . S
O86 C92 1.261 . S
C87 O96 1.247 . S
C87 O97 1.272 . S
O88 Co84 2.004 . S
O88 C93 1.259 . S
Co89 O90 2.061 . S
Co89 O95 2.052 . S
Co89 O97 2.135 . S
O90 Co89 2.061 . S
O90 C93 1.235 . S
C91 O94 1.238 . S
C91 O95 1.241 . S
C92 O85 1.247 . S
C92 O86 1.261 . S
C93 O88 1.259 . S
C93 O90 1.235 . S
O94 Co84 2.021 . S
O94 C91 1.238 . S
O95 Co89 2.052 . S
O95 C91 1.241 . S
O96 Co84 2.137 . S
O96 C87 1.247 . S
O97 Co84 2.244 . S
O97 C87 1.272 . S
O97 Co89 2.135 . S
Co98 O99 2.216 . S
Co98 O100 2.091 . S
Co98 O102 2.004 . S
Co98 O108 2.021 . S
Co98 O110 2.137 1_545 S
Co98 O111 2.244 . S
O99 Co98 2.216 . S
O99 C106 1.247 . S
O100 Co98 2.091 . S
O100 C106 1.261 . S
C101 O110 1.247 . S
C101 O111 1.272 1_565 S
O102 Co98 2.004 . S
O102 C107 1.259 . S
Co103 O104 2.061 . S
Co103 O109 2.052 . S
Co103 O111 2.135 . S
O104 Co103 2.061 . S
O104 C107 1.235 . S
C105 O108 1.238 . S
C105 O109 1.241 . S
C106 O99 1.247 . S
C106 O100 1.261 . S
C107 O102 1.259 . S
C107 O104 1.235 . S
O108 Co98 2.021 . S
O108 C105 1.238 . S
O109 Co103 2.052 . S
O109 C105 1.241 . S
O110 Co98 2.137 1_565 S
O110 C101 1.247 . S
O111 Co98 2.244 . S
O111 C101 1.272 1_545 S
O111 Co103 2.135 . S
Co112 O113 2.216 1_655 S
Co112 O114 2.091 1_655 S
Co112 O116 2.004 . S
Co112 O122 2.021 . S
Co112 O124 2.137 1_655 S
Co112 O125 2.244 . S
O113 Co112 2.216 1_455 S
O113 C120 1.247 . S
O114 Co112 2.091 1_455 S
O114 C120 1.261 . S
C115 O124 1.247 1_655 S
C115 O125 1.272 . S
O116 Co112 2.004 . S
O116 C121 1.259 . S
Co117 O118 2.061 . S
Co117 O123 2.052 . S
Co117 O125 2.135 . S
O118 Co117 2.061 . S
O118 C121 1.235 . S
C119 O122 1.238 . S
C119 O123 1.241 . S
C120 O113 1.247 . S
C120 O114 1.261 . S
C121 O116 1.259 . S
C121 O118 1.235 . S
O122 Co112 2.021 . S
O122 C119 1.238 . S
O123 Co117 2.052 . S
O123 C119 1.241 . S
O124 Co112 2.137 1_455 S
O124 C115 1.247 1_455 S
O125 Co112 2.244 . S
O125 C115 1.272 . S
O125 Co117 2.135 . S
Co126 O127 2.216 1_655 S
Co126 O128 2.091 . S
Co126 O130 2.004 . S
Co126 O136 2.021 . S
Co126 O138 2.137 1_655 S
Co126 O139 2.244 1_655 S
O127 Co126 2.216 1_455 S
O127 C134 1.247 1_455 S
O128 Co126 2.091 . S
O128 C134 1.261 . S
C129 O138 1.247 . S
C129 O139 1.272 . S
O130 Co126 2.004 . S
O130 C135 1.259 . S
Co131 O132 2.061 . S
Co131 O137 2.052 . S
Co131 O139 2.135 1_655 S
O132 Co131 2.061 . S
O132 C135 1.235 . S
C133 O136 1.238 . S
C133 O137 1.241 . S
C134 O127 1.247 1_655 S
C134 O128 1.261 . S
C135 O130 1.259 . S
C135 O132 1.235 . S
O136 Co126 2.021 . S
O136 C133 1.238 . S
O137 Co131 2.052 . S
O137 C133 1.241 . S
O138 Co126 2.137 1_455 S
O138 C129 1.247 . S
O139 Co126 2.244 1_455 S
O139 C129 1.272 . S
O139 Co131 2.135 1_455 S
Co140 O141 2.216 . S
Co140 O142 2.091 . S
Co140 O144 2.004 . S
Co140 O150 2.021 . S
Co140 O152 2.137 . S
Co140 O153 2.244 . S
O141 Co140 2.216 . S
O141 C148 1.247 . S
O142 Co140 2.091 . S
O142 C148 1.261 . S
C143 O152 1.247 . S
C143 O153 1.272 . S
O144 Co140 2.004 . S
O144 C149 1.259 . S
Co145 O146 2.061 . S
Co145 O151 2.052 . S
Co145 O153 2.135 . S
O146 Co145 2.061 . S
O146 C149 1.235 . S
C147 O150 1.238 . S
C147 O151 1.241 . S
C148 O141 1.247 . S
C148 O142 1.261 . S
C149 O144 1.259 . S
C149 O146 1.235 . S
O150 Co140 2.021 . S
O150 C147 1.238 . S
O151 Co145 2.052 . S
O151 C147 1.241 . S
O152 Co140 2.137 . S
O152 C143 1.247 . S
O153 Co140 2.244 . S
O153 C143 1.272 . S
O153 Co145 2.135 . S
Co154 O155 2.216 . S
Co154 O156 2.091 . S
Co154 O158 2.004 . S
Co154 O164 2.021 . S
Co154 O166 2.137 1_545 S
Co154 O167 2.244 . S
O155 Co154 2.216 . S
O155 C162 1.247 . S
O156 Co154 2.091 . S
O156 C162 1.261 . S
C157 O166 1.247 . S
C157 O167 1.272 1_565 S
O158 Co154 2.004 . S
O158 C163 1.259 . S
Co159 O160 2.061 . S
Co159 O165 2.052 . S
Co159 O167 2.135 . S
O160 Co159 2.061 . S
O160 C163 1.235 . S
C161 O164 1.238 . S
C161 O165 1.241 . S
C162 O155 1.247 . S
C162 O156 1.261 . S
C163 O158 1.259 . S
C163 O160 1.235 . S
O164 Co154 2.021 . S
O164 C161 1.238 . S
O165 Co159 2.052 . S
O165 C161 1.241 . S
O166 Co154 2.137 1_565 S
O166 C157 1.247 . S
O167 Co154 2.244 . S
O167 C157 1.272 1_545 S
O167 Co159 2.135 . S
Co168 O169 2.216 . S
Co168 O170 2.091 . S
Co168 O172 2.004 . S
Co168 O178 2.021 . S
Co168 O180 2.137 1_455 S
Co168 O181 2.244 . S
O169 Co168 2.216 . S
O169 C176 1.247 . S
O170 Co168 2.091 . S
O170 C176 1.261 . S
C171 O180 1.247 . S
C171 O181 1.272 1_655 S
O172 Co168 2.004 . S
O172 C177 1.259 . S
Co173 O174 2.061 . S
Co173 O179 2.052 . S
Co173 O181 2.135 . S
O174 Co173 2.061 . S
O174 C177 1.235 . S
C175 O178 1.238 . S
C175 O179 1.241 . S
C176 O169 1.247 . S
C176 O170 1.261 . S
C177 O172 1.259 . S
C177 O174 1.235 . S
O178 Co168 2.021 . S
O178 C175 1.238 . S
O179 Co173 2.052 . S
O179 C175 1.241 . S
O180 Co168 2.137 1_655 S
O180 C171 1.247 . S
O181 Co168 2.244 . S
O181 C171 1.272 1_455 S
O181 Co173 2.135 . S
Co182 O183 2.216 . S
Co182 O184 2.091 . S
Co182 O186 2.004 . S
Co182 O192 2.021 . S
Co182 O194 2.137 . S
Co182 O195 2.244 . S
O183 Co182 2.216 . S
O183 C190 1.247 . S
O184 Co182 2.091 . S
O184 C190 1.261 . S
C185 O194 1.247 . S
C185 O195 1.272 . S
O186 Co182 2.004 . S
O186 C191 1.259 . S
Co187 O188 2.061 . S
Co187 O193 2.052 . S
Co187 O195 2.135 . S
O188 Co187 2.061 . S
O188 C191 1.235 . S
C189 O192 1.238 . S
C189 O193 1.241 . S
C190 O183 1.247 . S
C190 O184 1.261 . S
C191 O186 1.259 . S
C191 O188 1.235 . S
O192 Co182 2.021 . S
O192 C189 1.238 . S
O193 Co187 2.052 . S
O193 C189 1.241 . S
O194 Co182 2.137 . S
O194 C185 1.247 . S
O195 Co182 2.244 . S
O195 C185 1.272 . S
O195 Co187 2.135 . S
Co196 O197 2.216 1_565 S
Co196 O198 2.091 . S
Co196 O200 2.004 . S
Co196 O206 2.021 . S
Co196 O208 2.137 1_565 S
Co196 O209 2.244 1_565 S
O197 Co196 2.216 1_545 S
O197 C204 1.247 1_545 S
O198 Co196 2.091 . S
O198 C204 1.261 . S
C199 O208 1.247 . S
C199 O209 1.272 . S
O200 Co196 2.004 . S
O200 C205 1.259 . S
Co201 O202 2.061 . S
Co201 O207 2.052 . S
Co201 O209 2.135 1_565 S
O202 Co201 2.061 . S
O202 C205 1.235 . S
C203 O206 1.238 . S
C203 O207 1.241 . S
C204 O197 1.247 1_565 S
C204 O198 1.261 . S
C205 O200 1.259 . S
C205 O202 1.235 . S
O206 Co196 2.021 . S
O206 C203 1.238 . S
O207 Co201 2.052 . S
O207 C203 1.241 . S
O208 Co196 2.137 1_545 S
O208 C199 1.247 . S
O209 Co196 2.244 1_545 S
O209 C199 1.272 . S
O209 Co201 2.135 1_545 S
Co210 O211 2.216 . S
Co210 O212 2.091 . S
Co210 O214 2.004 . S
Co210 O220 2.021 . S
Co210 O222 2.137 . S
Co210 O223 2.244 . S
O211 Co210 2.216 . S
O211 C218 1.247 . S
O212 Co210 2.091 . S
O212 C218 1.261 . S
C213 O222 1.247 . S
C213 O223 1.272 . S
O214 Co210 2.004 . S
O214 C219 1.259 . S
Co215 O216 2.061 . S
Co215 O221 2.052 . S
Co215 O223 2.135 . S
O216 Co215 2.061 . S
O216 C219 1.235 . S
C217 O220 1.238 . S
C217 O221 1.241 . S
C218 O211 1.247 . S
C218 O212 1.261 . S
C219 O214 1.259 . S
C219 O216 1.235 . S
O220 Co210 2.021 . S
O220 C217 1.238 . S
O221 Co215 2.052 . S
O221 C217 1.241 . S
O222 Co210 2.137 . S
O222 C213 1.247 . S
O223 Co210 2.244 . S
O223 C213 1.272 . S
O223 Co215 2.135 . S
Co224 O225 2.216 1_565 S
Co224 O226 2.091 . S
Co224 O228 2.004 . S
Co224 O234 2.021 . S
Co224 O236 2.137 1_565 S
Co224 O237 2.244 1_565 S
O225 Co224 2.216 1_545 S
O225 C232 1.247 1_545 S
O226 Co224 2.091 . S
O226 C232 1.261 . S
C227 O236 1.247 . S
C227 O237 1.272 . S
O228 Co224 2.004 . S
O228 C233 1.259 . S
Co229 O230 2.061 . S
Co229 O235 2.052 . S
Co229 O237 2.135 1_565 S
O230 Co229 2.061 . S
O230 C233 1.235 . S
C231 O234 1.238 . S
C231 O235 1.241 . S
C232 O225 1.247 1_565 S
C232 O226 1.261 . S
C233 O228 1.259 . S
C233 O230 1.235 . S
O234 Co224 2.021 . S
O234 C231 1.238 . S
O235 Co229 2.052 . S
O235 C231 1.241 . S
O236 Co224 2.137 1_545 S
O236 C227 1.247 . S
O237 Co224 2.244 1_545 S
O237 C227 1.272 . S
O237 Co229 2.135 1_545 S
Co238 O239 2.216 1_455 S
Co238 O240 2.091 1_455 S
Co238 O242 2.004 . S
Co238 O248 2.021 . S
Co238 O250 2.137 . S
Co238 O251 2.244 . S
O239 Co238 2.216 1_655 S
O239 C246 1.247 . S
O240 Co238 2.091 1_655 S
O240 C246 1.261 . S
C241 O250 1.247 . S
C241 O251 1.272 . S
O242 Co238 2.004 . S
O242 C247 1.259 . S
Co243 O244 2.061 . S
Co243 O249 2.052 . S
Co243 O251 2.135 . S
O244 Co243 2.061 . S
O244 C247 1.235 . S
C245 O248 1.238 . S
C245 O249 1.241 . S
C246 O239 1.247 . S
C246 O240 1.261 . S
C247 O242 1.259 . S
C247 O244 1.235 . S
O248 Co238 2.021 . S
O248 C245 1.238 . S
O249 Co243 2.052 . S
O249 C245 1.241 . S
O250 Co238 2.137 . S
O250 C241 1.247 . S
O251 Co238 2.244 . S
O251 C241 1.272 . S
O251 Co243 2.135 . S
Zn252 O258 1.920 1_455 S
Zn252 O264 1.898 1_445 S
Zn252 O267 1.905 . S
Zn253 O261 1.905 1_445 S
Zn253 O262 1.898 . S
Zn253 O270 1.920 1_455 S
Zn254 O257 2.080 . S
Zn254 O260 2.114 1_545 S
Zn254 O263 2.120 . S
Zn254 O265 2.120 1_445 S
Zn254 O266 2.114 . S
Zn254 O269 2.080 1_455 S
C255 O260 1.166 1_655 S
C255 O261 1.182 . S
C256 O262 1.167 . S
C256 O263 1.299 . S
O257 Zn254 2.080 . S
O257 C271 1.305 1_455 S
O258 Zn252 1.920 1_655 S
O258 C271 1.234 . S
C259 O264 1.167 . S
C259 O265 1.299 . S
O260 Zn254 2.114 1_565 S
O260 C255 1.166 1_455 S
O261 Zn253 1.905 1_665 S
O261 C255 1.182 . S
O262 Zn253 1.898 . S
O262 C256 1.167 . S
O263 Zn254 2.120 . S
O263 C256 1.299 . S
O264 Zn252 1.898 1_665 S
O264 C259 1.167 . S
O265 Zn254 2.120 1_665 S
O265 C259 1.299 . S
O266 Zn254 2.114 . S
O266 C268 1.166 . S
O267 Zn252 1.905 . S
O267 C268 1.182 . S
C268 O266 1.166 . S
C268 O267 1.182 . S
O269 Zn254 2.080 1_655 S
O269 C272 1.305 . S
O270 Zn253 1.920 1_655 S
O270 C272 1.234 . S
C271 O257 1.305 1_655 S
C271 O258 1.234 . S
C272 O269 1.305 . S
C272 O270 1.234 . S
Zn273 O279 1.920 1_545 S
Zn273 O285 1.898 . S
Zn273 O288 1.905 1_445 S
Zn274 O282 1.905 . S
Zn274 O283 1.898 1_445 S
Zn274 O291 1.920 1_545 S
Zn275 O278 2.080 1_545 S
Zn275 O281 2.114 . S
Zn275 O284 2.120 1_445 S
Zn275 O286 2.120 . S
Zn275 O287 2.114 1_455 S
Zn275 O290 2.080 . S
C276 O281 1.166 . S
C276 O282 1.182 . S
C277 O283 1.167 . S
C277 O284 1.299 . S
O278 Zn275 2.080 1_565 S
O278 C292 1.305 . S
O279 Zn273 1.920 1_565 S
O279 C292 1.234 . S
C280 O285 1.167 . S
C280 O286 1.299 . S
O281 Zn275 2.114 . S
O281 C276 1.166 . S
O282 Zn274 1.905 . S
O282 C276 1.182 . S
O283 Zn274 1.898 1_665 S
O283 C277 1.167 . S
O284 Zn275 2.120 1_665 S
O284 C277 1.299 . S
O285 Zn273 1.898 . S
O285 C280 1.167 . S
O286 Zn275 2.120 . S
O286 C280 1.299 . S
O287 Zn275 2.114 1_655 S
O287 C289 1.166 . S
O288 Zn273 1.905 1_665 S
O288 C289 1.182 1_565 S
C289 O287 1.166 . S
C289 O288 1.182 1_545 S
O290 Zn275 2.080 . S
O290 C293 1.305 1_545 S
O291 Zn274 1.920 1_565 S
O291 C293 1.234 . S
C292 O278 1.305 . S
C292 O279 1.234 . S
C293 O290 1.305 1_565 S
C293 O291 1.234 . S
Zn294 O300 1.920 1_545 S
Zn294 O306 1.898 . S
Zn294 O309 1.905 1_445 S
Zn295 O303 1.905 . S
Zn295 O304 1.898 1_445 S
Zn295 O312 1.920 1_545 S
Zn296 O299 2.080 1_545 S
Zn296 O302 2.114 . S
Zn296 O305 2.120 1_445 S
Zn296 O307 2.120 . S
Zn296 O308 2.114 1_455 S
Zn296 O311 2.080 . S
C297 O302 1.166 . S
C297 O303 1.182 . S
C298 O304 1.167 . S
C298 O305 1.299 . S
O299 Zn296 2.080 1_565 S
O299 C313 1.305 . S
O300 Zn294 1.920 1_565 S
O300 C313 1.234 . S
C301 O306 1.167 . S
C301 O307 1.299 . S
O302 Zn296 2.114 . S
O302 C297 1.166 . S
O303 Zn295 1.905 . S
O303 C297 1.182 . S
O304 Zn295 1.898 1_665 S
O304 C298 1.167 . S
O305 Zn296 2.120 1_665 S
O305 C298 1.299 . S
O306 Zn294 1.898 . S
O306 C301 1.167 . S
O307 Zn296 2.120 . S
O307 C301 1.299 . S
O308 Zn296 2.114 1_655 S
O308 C310 1.165 1_545 S
O309 Zn294 1.905 1_665 S
O309 C310 1.184 . S
C310 O308 1.165 1_565 S
C310 O309 1.184 . S
O311 Zn296 2.080 . S
O311 C314 1.305 . S
O312 Zn295 1.920 1_565 S
O312 C314 1.234 1_565 S
C313 O299 1.305 . S
C313 O300 1.234 . S
C314 O311 1.305 . S
C314 O312 1.234 1_545 S
Zn315 O321 1.920 1_455 S
Zn315 O327 1.898 1_445 S
Zn315 O330 1.905 . S
Zn316 O324 1.905 1_445 S
Zn316 O325 1.898 . S
Zn316 O333 1.920 1_455 S
Zn317 O320 2.080 . S
Zn317 O323 2.114 1_545 S
Zn317 O326 2.120 . S
Zn317 O328 2.120 1_445 S
Zn317 O329 2.114 . S
Zn317 O332 2.080 1_455 S
C318 O323 1.166 1_655 S
C318 O324 1.182 . S
C319 O325 1.167 . S
C319 O326 1.299 . S
O320 Zn317 2.080 . S
O320 C334 1.305 . S
O321 Zn315 1.920 1_655 S
O321 C334 1.234 1_655 S
C322 O327 1.167 . S
C322 O328 1.299 . S
O323 Zn317 2.114 1_565 S
O323 C318 1.166 1_455 S
O324 Zn316 1.905 1_665 S
O324 C318 1.182 . S
O325 Zn316 1.898 . S
O325 C319 1.167 . S
O326 Zn317 2.120 . S
O326 C319 1.299 . S
O327 Zn315 1.898 1_665 S
O327 C322 1.167 . S
O328 Zn317 2.120 1_665 S
O328 C322 1.299 . S
O329 Zn317 2.114 . S
O329 C331 1.166 . S
O330 Zn315 1.905 . S
O330 C331 1.182 . S
C331 O329 1.166 . S
C331 O330 1.182 . S
O332 Zn317 2.080 1_655 S
O332 C335 1.305 . S
O333 Zn316 1.920 1_655 S
O333 C335 1.234 . S
C334 O320 1.305 . S
C334 O321 1.234 1_455 S
C335 O332 1.305 . S
C335 O333 1.234 . S
Zn336 O342 1.920 . S
Zn336 O348 1.898 . S
Zn336 O351 1.905 . S
Zn337 O345 1.905 . S
Zn337 O346 1.898 . S
Zn337 O354 1.920 . S
Zn338 O341 2.080 . S
Zn338 O344 2.114 . S
Zn338 O347 2.120 . S
Zn338 O349 2.120 . S
Zn338 O350 2.114 . S
Zn338 O353 2.080 . S
C339 O344 1.166 . S
C339 O345 1.182 . S
C340 O346 1.167 . S
C340 O347 1.299 . S
O341 Zn338 2.080 . S
O341 C355 1.305 . S
O342 Zn336 1.920 . S
O342 C355 1.234 . S
C343 O348 1.167 . S
C343 O349 1.299 . S
O344 Zn338 2.114 . S
O344 C339 1.166 . S
O345 Zn337 1.905 . S
O345 C339 1.182 . S
O346 Zn337 1.898 . S
O346 C340 1.167 . S
O347 Zn338 2.120 . S
O347 C340 1.299 . S
O348 Zn336 1.898 . S
O348 C343 1.167 . S
O349 Zn338 2.120 . S
O349 C343 1.299 . S
O350 Zn338 2.114 . S
O350 C352 1.166 . S
O351 Zn336 1.905 . S
O351 C352 1.182 . S
C352 O350 1.166 . S
C352 O351 1.182 . S
O353 Zn338 2.080 . S
O353 C356 1.305 . S
O354 Zn337 1.920 . S
O354 C356 1.234 . S
C355 O341 1.305 . S
C355 O342 1.234 . S
C356 O353 1.305 . S
C356 O354 1.234 . S
Zn357 O363 1.920 . S
Zn357 O369 1.898 . S
Zn357 O372 1.905 . S
Zn358 O366 1.905 . S
Zn358 O367 1.898 . S
Zn358 O375 1.920 . S
Zn359 O362 2.080 . S
Zn359 O365 2.114 . S
Zn359 O368 2.120 . S
Zn359 O370 2.120 . S
Zn359 O371 2.114 . S
Zn359 O374 2.080 . S
C360 O365 1.166 . S
C360 O366 1.182 . S
C361 O367 1.167 . S
C361 O368 1.299 . S
O362 Zn359 2.080 . S
O362 C376 1.305 . S
O363 Zn357 1.920 . S
O363 C376 1.234 . S
C364 O369 1.167 . S
C364 O370 1.299 . S
O365 Zn359 2.114 . S
O365 C360 1.166 . S
O366 Zn358 1.905 . S
O366 C360 1.182 . S
O367 Zn358 1.898 . S
O367 C361 1.167 . S
O368 Zn359 2.120 . S
O368 C361 1.299 . S
O369 Zn357 1.898 . S
O369 C364 1.167 . S
O370 Zn359 2.120 . S
O370 C364 1.299 . S
O371 Zn359 2.114 . S
O371 C373 1.166 . S
O372 Zn357 1.905 . S
O372 C373 1.182 . S
C373 O371 1.166 . S
C373 O372 1.182 . S
O374 Zn359 2.080 . S
O374 C377 1.305 . S
O375 Zn358 1.920 . S
O375 C377 1.234 . S
C376 O362 1.305 . S
C376 O363 1.234 . S
C377 O374 1.305 . S
C377 O375 1.234 . S
Zn378 O384 1.920 . S
Zn378 O390 1.898 . S
Zn378 O393 1.905 . S
Zn379 O387 1.905 . S
Zn379 O388 1.898 . S
Zn379 O396 1.920 . S
Zn380 O383 2.080 . S
Zn380 O386 2.114 . S
Zn380 O389 2.120 . S
Zn380 O391 2.120 . S
Zn380 O392 2.114 . S
Zn380 O395 2.080 . S
C381 O386 1.166 . S
C381 O387 1.182 . S
C382 O388 1.167 . S
C382 O389 1.299 . S
O383 Zn380 2.080 . S
O383 C397 1.305 . S
O384 Zn378 1.920 . S
O384 C397 1.234 . S
C385 O390 1.167 . S
C385 O391 1.299 . S
O386 Zn380 2.114 . S
O386 C381 1.166 . S
O387 Zn379 1.905 . S
O387 C381 1.182 . S
O388 Zn379 1.898 . S
O388 C382 1.167 . S
O389 Zn380 2.120 . S
O389 C382 1.299 . S
O390 Zn378 1.898 . S
O390 C385 1.167 . S
O391 Zn380 2.120 . S
O391 C385 1.299 . S
O392 Zn380 2.114 . S
O392 C394 1.166 . S
O393 Zn378 1.905 . S
O393 C394 1.182 . S
C394 O392 1.166 . S
C394 O393 1.182 . S
O395 Zn380 2.080 . S
O395 C398 1.305 . S
O396 Zn379 1.920 . S
O396 C398 1.234 . S
C397 O383 1.305 . S
C397 O384 1.234 . S
C398 O395 1.305 . S
C398 O396 1.234 . S
Zn399 O405 1.920 . S
Zn399 O411 1.898 . S
Zn399 O414 1.905 . S
Zn400 O408 1.905 . S
Zn400 O409 1.898 . S
Zn400 O417 1.920 . S
Zn401 O404 2.080 . S
Zn401 O407 2.114 . S
Zn401 O410 2.120 . S
Zn401 O412 2.120 . S
Zn401 O413 2.114 . S
Zn401 O416 2.080 . S
C402 O407 1.166 . S
C402 O408 1.182 . S
C403 O409 1.167 . S
C403 O410 1.299 . S
O404 Zn401 2.080 . S
O404 C418 1.305 1_556 S
O405 Zn399 1.920 . S
O405 C418 1.234 . S
C406 O411 1.167 . S
C406 O412 1.299 1_554 S
O407 Zn401 2.114 . S
O407 C402 1.166 . S
O408 Zn400 1.905 . S
O408 C402 1.182 . S
O409 Zn400 1.898 . S
O409 C403 1.167 . S
O410 Zn401 2.120 . S
O410 C403 1.299 . S
O411 Zn399 1.898 . S
O411 C406 1.167 . S
O412 Zn401 2.120 . S
O412 C406 1.299 1_556 S
O413 Zn401 2.114 . S
O413 C415 1.166 1_556 S
O414 Zn399 1.905 . S
O414 C415 1.182 . S
C415 O413 1.166 1_554 S
C415 O414 1.182 . S
O416 Zn401 2.080 . S
O416 C419 1.305 . S
O417 Zn400 1.920 . S
O417 C419 1.234 . S
C418 O404 1.305 1_554 S
C418 O405 1.234 . S
C419 O416 1.305 . S
C419 O417 1.234 . S
Zn420 O426 1.920 . S
Zn420 O432 1.898 . S
Zn420 O435 1.905 . S
Zn421 O429 1.905 . S
Zn421 O430 1.898 . S
Zn421 O438 1.920 . S
Zn422 O425 2.080 . S
Zn422 O428 2.114 . S
Zn422 O431 2.120 . S
Zn422 O433 2.120 . S
Zn422 O434 2.114 . S
Zn422 O437 2.080 . S
C423 O428 1.166 . S
C423 O429 1.182 . S
C424 O430 1.167 . S
C424 O431 1.299 . S
O425 Zn422 2.080 . S
O425 C439 1.305 . S
O426 Zn420 1.920 . S
O426 C439 1.234 . S
C427 O432 1.167 . S
C427 O433 1.299 . S
O428 Zn422 2.114 . S
O428 C423 1.166 . S
O429 Zn421 1.905 . S
O429 C423 1.182 . S
O430 Zn421 1.898 . S
O430 C424 1.167 . S
O431 Zn422 2.120 . S
O431 C424 1.299 . S
O432 Zn420 1.898 . S
O432 C427 1.167 . S
O433 Zn422 2.120 . S
O433 C427 1.299 . S
O434 Zn422 2.114 . S
O434 C436 1.166 . S
O435 Zn420 1.905 . S
O435 C436 1.182 . S
C436 O434 1.166 . S
C436 O435 1.182 . S
O437 Zn422 2.080 . S
O437 C440 1.305 . S
O438 Zn421 1.920 . S
O438 C440 1.234 . S
C439 O425 1.305 . S
C439 O426 1.234 . S
C440 O437 1.305 . S
C440 O438 1.234 . S
Zn441 O447 1.920 . S
Zn441 O453 1.898 . S
Zn441 O456 1.905 . S
Zn442 O450 1.905 . S
Zn442 O451 1.898 . S
Zn442 O459 1.920 . S
Zn443 O446 2.080 . S
Zn443 O449 2.114 . S
Zn443 O452 2.120 . S
Zn443 O454 2.120 . S
Zn443 O455 2.114 . S
Zn443 O458 2.080 . S
C444 O449 1.166 1_556 S
C444 O450 1.182 . S
C445 O451 1.167 . S
C445 O452 1.299 1_556 S
O446 Zn443 2.080 . S
O446 C460 1.305 . S
O447 Zn441 1.920 . S
O447 C460 1.234 . S
C448 O453 1.167 . S
C448 O454 1.299 . S
O449 Zn443 2.114 . S
O449 C444 1.166 1_554 S
O450 Zn442 1.905 . S
O450 C444 1.182 . S
O451 Zn442 1.898 . S
O451 C445 1.167 . S
O452 Zn443 2.120 . S
O452 C445 1.299 1_554 S
O453 Zn441 1.898 . S
O453 C448 1.167 . S
O454 Zn443 2.120 . S
O454 C448 1.299 . S
O455 Zn443 2.114 . S
O455 C457 1.166 . S
O456 Zn441 1.905 . S
O456 C457 1.182 . S
C457 O455 1.166 . S
C457 O456 1.182 . S
O458 Zn443 2.080 . S
O458 C461 1.305 1_554 S
O459 Zn442 1.920 . S
O459 C461 1.234 . S
C460 O446 1.305 . S
C460 O447 1.234 . S
C461 O458 1.305 1_556 S
C461 O459 1.234 . S
Zn462 O468 1.920 . S
Zn462 O474 1.898 . S
Zn462 O477 1.905 . S
Zn463 O471 1.905 . S
Zn463 O472 1.898 . S
Zn463 O480 1.920 . S
Zn464 O467 2.080 . S
Zn464 O470 2.114 . S
Zn464 O473 2.120 . S
Zn464 O475 2.120 . S
Zn464 O476 2.114 . S
Zn464 O479 2.080 . S
C465 O470 1.166 . S
C465 O471 1.182 . S
C466 O472 1.167 . S
C466 O473 1.299 . S
O467 Zn464 2.080 . S
O467 C481 1.305 . S
O468 Zn462 1.920 . S
O468 C481 1.234 . S
C469 O474 1.167 . S
C469 O475 1.299 . S
O470 Zn464 2.114 . S
O470 C465 1.166 . S
O471 Zn463 1.905 . S
O471 C465 1.182 . S
O472 Zn463 1.898 . S
O472 C466 1.167 . S
O473 Zn464 2.120 . S
O473 C466 1.299 . S
O474 Zn462 1.898 . S
O474 C469 1.167 . S
O475 Zn464 2.120 . S
O475 C469 1.299 . S
O476 Zn464 2.114 . S
O476 C478 1.166 . S
O477 Zn462 1.905 . S
O477 C478 1.182 . S
C478 O476 1.166 . S
C478 O477 1.182 . S
O479 Zn464 2.080 . S
O479 C482 1.305 . S
O480 Zn463 1.920 . S
O480 C482 1.234 . S
C481 O467 1.305 . S
C481 O468 1.234 . S
C482 O479 1.305 . S
C482 O480 1.234 . S
Zn483 O489 1.920 . S
Zn483 O495 1.898 . S
Zn483 O498 1.905 . S
Zn484 O492 1.905 . S
Zn484 O493 1.898 . S
Zn484 O501 1.920 . S
Zn485 O488 2.080 . S
Zn485 O491 2.114 . S
Zn485 O494 2.120 . S
Zn485 O496 2.120 . S
Zn485 O497 2.114 . S
Zn485 O500 2.080 . S
C486 O491 1.166 . S
C486 O492 1.182 . S
C487 O493 1.167 . S
C487 O494 1.299 . S
O488 Zn485 2.080 . S
O488 C502 1.305 . S
O489 Zn483 1.920 . S
O489 C502 1.234 . S
C490 O495 1.167 . S
C490 O496 1.299 . S
O491 Zn485 2.114 . S
O491 C486 1.166 . S
O492 Zn484 1.905 . S
O492 C486 1.182 . S
O493 Zn484 1.898 . S
O493 C487 1.167 . S
O494 Zn485 2.120 . S
O494 C487 1.299 . S
O495 Zn483 1.898 . S
O495 C490 1.167 . S
O496 Zn485 2.120 . S
O496 C490 1.299 . S
O497 Zn485 2.114 . S
O497 C499 1.166 . S
O498 Zn483 1.905 . S
O498 C499 1.182 . S
C499 O497 1.166 . S
C499 O498 1.182 . S
O500 Zn485 2.080 . S
O500 C503 1.305 . S
O501 Zn484 1.920 . S
O501 C503 1.234 . S
C502 O488 1.305 . S
C502 O489 1.234 . S
C503 O500 1.305 . S
C503 O501 1.234 . S
C504 C505 1.369 . S
C504 C506 1.419 . S
C504 H508 0.930 . S
C505 C504 1.369 . S
C505 C514 1.429 . S
C506 C504 1.419 . S
C506 C507 1.363 . S
C506 H509 0.929 . S
C507 C506 1.363 . S
C507 C513 1.428 . S
H508 C504 0.930 . S
H509 C506 0.929 . S
S510 N511 1.613 . S
S510 N512 1.610 . S
N511 S510 1.613 . S
N511 C514 1.350 . S
N512 S510 1.610 . S
N512 C513 1.351 . S
C513 C507 1.428 . S
C513 N512 1.351 . S
C513 C514 1.434 . S
C514 C505 1.429 . S
C514 N511 1.350 . S
C514 C513 1.434 . S
C515 C516 1.369 . S
C515 C517 1.419 . S
C515 H519 0.930 . S
C516 C515 1.369 . S
C516 C525 1.429 . S
C517 C515 1.419 . S
C517 C518 1.363 . S
C517 H520 0.929 . S
C518 C517 1.363 . S
C518 C524 1.428 . S
H519 C515 0.930 . S
H520 C517 0.929 . S
S521 N522 1.613 . S
S521 N523 1.610 1_565 S
N522 S521 1.613 . S
N522 C525 1.350 1_565 S
N523 S521 1.610 1_545 S
N523 C524 1.351 . S
C524 C518 1.428 . S
C524 N523 1.351 . S
C524 C525 1.434 . S
C525 C516 1.429 . S
C525 N522 1.350 1_545 S
C525 C524 1.434 . S
C526 C527 1.369 . S
C526 C528 1.419 . S
C526 H530 0.930 . S
C527 C526 1.369 . S
C527 C536 1.429 1_455 S
C528 C526 1.419 . S
C528 C529 1.363 1_455 S
C528 H531 0.929 . S
C529 C528 1.363 1_655 S
C529 C535 1.428 . S
H530 C526 0.930 . S
H531 C528 0.929 . S
S532 N533 1.613 . S
S532 N534 1.610 . S
N533 S532 1.613 . S
N533 C536 1.350 . S
N534 S532 1.610 . S
N534 C535 1.351 . S
C535 C529 1.428 . S
C535 N534 1.351 . S
C535 C536 1.434 . S
C536 C527 1.429 1_655 S
C536 N533 1.350 . S
C536 C535 1.434 . S
C537 C538 1.369 . S
C537 C539 1.419 . S
C537 H541 0.930 . S
C538 C537 1.369 . S
C538 C547 1.429 . S
C539 C537 1.419 . S
C539 C540 1.363 . S
C539 H542 0.929 . S
C540 C539 1.363 . S
C540 C546 1.428 . S
H541 C537 0.930 . S
H542 C539 0.929 . S
S543 N544 1.613 . S
S543 N545 1.610 . S
N544 S543 1.613 . S
N544 C547 1.350 . S
N545 S543 1.610 . S
N545 C546 1.351 . S
C546 C540 1.428 . S
C546 N545 1.351 . S
C546 C547 1.434 . S
C547 C538 1.429 . S
C547 N544 1.350 . S
C547 C546 1.434 . S
C548 C549 1.369 . S
C548 C550 1.419 . S
C548 H552 0.930 . S
C549 C548 1.369 . S
C549 C558 1.429 . S
C550 C548 1.419 . S
C550 C551 1.363 . S
C550 H553 0.929 . S
C551 C550 1.363 . S
C551 C557 1.428 1_545 S
H552 C548 0.930 . S
H553 C550 0.929 . S
S554 N555 1.613 . S
S554 N556 1.610 . S
N555 S554 1.613 . S
N555 C558 1.350 1_565 S
N556 S554 1.610 . S
N556 C557 1.351 . S
C557 C551 1.428 1_565 S
C557 N556 1.351 . S
C557 C558 1.434 1_565 S
C558 C549 1.429 . S
C558 N555 1.350 1_545 S
C558 C557 1.434 1_545 S
C559 C560 1.369 1_655 S
C559 C561 1.419 . S
C559 H563 0.930 . S
C560 C559 1.369 1_455 S
C560 C569 1.429 . S
C561 C559 1.419 . S
C561 C562 1.363 1_655 S
C561 H564 0.929 . S
C562 C561 1.363 1_455 S
C562 C568 1.428 . S
H563 C559 0.930 . S
H564 C561 0.929 . S
S565 N566 1.613 . S
S565 N567 1.610 . S
N566 S565 1.613 . S
N566 C569 1.350 . S
N567 S565 1.610 . S
N567 C568 1.351 . S
C568 C562 1.428 . S
C568 N567 1.351 . S
C568 C569 1.434 . S
C569 C560 1.429 . S
C569 N566 1.350 . S
C569 C568 1.434 . S
C570 C571 1.369 . S
C570 C572 1.419 . S
C570 H574 0.930 . S
C571 C570 1.369 . S
C571 C580 1.429 . S
C572 C570 1.419 . S
C572 C573 1.363 . S
C572 H575 0.929 . S
C573 C572 1.363 . S
C573 C579 1.428 . S
H574 C570 0.930 . S
H575 C572 0.929 . S
S576 N577 1.613 . S
S576 N578 1.610 . S
N577 S576 1.613 . S
N577 C580 1.350 . S
N578 S576 1.610 . S
N578 C579 1.351 . S
C579 C573 1.428 . S
C579 N578 1.351 . S
C579 C580 1.434 . S
C580 C571 1.429 . S
C580 N577 1.350 . S
C580 C579 1.434 . S
C581 C582 1.369 1_565 S
C581 C583 1.419 . S
C581 H585 0.930 . S
C582 C581 1.369 1_545 S
C582 C591 1.429 . S
C583 C581 1.419 . S
C583 C584 1.363 1_565 S
C583 H586 0.929 . S
C584 C583 1.363 1_545 S
C584 C590 1.428 . S
H585 C581 0.930 . S
H586 C583 0.929 . S
S587 N588 1.613 . S
S587 N589 1.610 . S
N588 S587 1.613 . S
N588 C591 1.350 . S
N589 S587 1.610 . S
N589 C590 1.351 . S
C590 C584 1.428 . S
C590 N589 1.351 . S
C590 C591 1.434 . S
C591 C582 1.429 . S
C591 N588 1.350 . S
C591 C590 1.434 . S
C592 C593 1.369 . S
C592 C594 1.419 . S
C592 H596 0.930 1_455 S
C593 C592 1.369 . S
C593 C602 1.429 . S
C594 C592 1.419 . S
C594 C595 1.363 . S
C594 H597 0.929 . S
C595 C594 1.363 . S
C595 C601 1.428 . S
H596 C592 0.930 1_655 S
H597 C594 0.929 . S
S598 N599 1.613 . S
S598 N600 1.610 . S
N599 S598 1.613 . S
N599 C602 1.350 . S
N600 S598 1.610 . S
N600 C601 1.351 . S
C601 C595 1.428 . S
C601 N600 1.351 . S
C601 C602 1.434 . S
C602 C593 1.429 . S
C602 N599 1.350 . S
C602 C601 1.434 . S
C603 C604 1.369 . S
C603 C605 1.419 . S
C603 H607 0.930 . S
C604 C603 1.369 . S
C604 C613 1.429 . S
C605 C603 1.419 . S
C605 C606 1.363 . S
C605 H608 0.929 . S
C606 C605 1.363 . S
C606 C612 1.428 . S
H607 C603 0.930 . S
H608 C605 0.929 . S
S609 N610 1.613 . S
S609 N611 1.610 . S
N610 S609 1.613 . S
N610 C613 1.350 . S
N611 S609 1.610 . S
N611 C612 1.351 . S
C612 C606 1.428 . S
C612 N611 1.351 . S
C612 C613 1.434 . S
C613 C604 1.429 . S
C613 N610 1.350 . S
C613 C612 1.434 . S
C614 C615 1.369 1_565 S
C614 C616 1.419 1_565 S
C614 H618 0.930 . S
C615 C614 1.369 1_545 S
C615 C624 1.429 . S
C616 C614 1.419 1_545 S
C616 C617 1.363 . S
C616 H619 0.929 1_545 S
C617 C616 1.363 . S
C617 C623 1.428 . S
H618 C614 0.930 . S
H619 C616 0.929 1_565 S
S620 N621 1.613 . S
S620 N622 1.610 . S
N621 S620 1.613 . S
N621 C624 1.350 . S
N622 S620 1.610 . S
N622 C623 1.351 . S
C623 C617 1.428 . S
C623 N622 1.351 . S
C623 C624 1.434 . S
C624 C615 1.429 . S
C624 N621 1.350 . S
C624 C623 1.434 . S
C625 C626 1.369 . S
C625 C627 1.419 . S
C625 H629 0.930 . S
C626 C625 1.369 . S
C626 C635 1.429 . S
C627 C625 1.419 . S
C627 C628 1.363 . S
C627 H630 0.929 . S
C628 C627 1.363 . S
C628 C634 1.428 . S
H629 C625 0.930 . S
H630 C627 0.929 . S
S631 N632 1.613 . S
S631 N633 1.610 1_455 S
N632 S631 1.613 . S
N632 C635 1.350 . S
N633 S631 1.610 1_655 S
N633 C634 1.351 1_655 S
C634 C628 1.428 . S
C634 N633 1.351 1_455 S
C634 C635 1.434 . S
C635 C626 1.429 . S
C635 N632 1.350 . S
C635 C634 1.434 . S
C636 C637 1.369 . S
C636 C638 1.419 . S
C636 H640 0.930 . S
C637 C636 1.369 . S
C637 C646 1.429 . S
C638 C636 1.419 . S
C638 C639 1.363 . S
C638 H641 0.929 . S
C639 C638 1.363 . S
C639 C645 1.428 . S
H640 C636 0.930 . S
H641 C638 0.929 . S
S642 N643 1.613 . S
S642 N644 1.610 . S
N643 S642 1.613 . S
N643 C646 1.350 . S
N644 S642 1.610 . S
N644 C645 1.351 . S
C645 C639 1.428 . S
C645 N644 1.351 . S
C645 C646 1.434 . S
C646 C637 1.429 . S
C646 N643 1.350 . S
C646 C645 1.434 . S
C647 C648 1.369 . S
C647 C649 1.419 . S
C647 H651 0.930 . S
C648 C647 1.369 . S
C648 C657 1.429 . S
C649 C647 1.419 . S
C649 C650 1.363 . S
C649 H652 0.929 . S
C650 C649 1.363 . S
C650 C656 1.428 . S
H651 C647 0.930 . S
H652 C649 0.929 . S
S653 N654 1.613 . S
S653 N655 1.610 . S
N654 S653 1.613 . S
N654 C657 1.350 . S
N655 S653 1.610 . S
N655 C656 1.351 . S
C656 C650 1.428 . S
C656 N655 1.351 . S
C656 C657 1.434 . S
C657 C648 1.429 . S
C657 N654 1.350 . S
C657 C656 1.434 . S
C658 C659 1.369 . S
C658 C660 1.419 . S
C658 H662 0.930 . S
C659 C658 1.369 . S
C659 C668 1.429 . S
C660 C658 1.419 . S
C660 C661 1.363 . S
C660 H663 0.929 . S
C661 C660 1.363 . S
C661 C667 1.428 . S
H662 C658 0.930 . S
H663 C660 0.929 . S
S664 N665 1.613 . S
S664 N666 1.610 . S
N665 S664 1.613 . S
N665 C668 1.350 . S
N666 S664 1.610 . S
N666 C667 1.351 . S
C667 C661 1.428 . S
C667 N666 1.351 . S
C667 C668 1.434 . S
C668 C659 1.429 . S
C668 N665 1.350 . S
C668 C667 1.434 . S
C669 C670 1.369 . S
C669 C671 1.419 . S
C669 H673 0.930 . S
C670 C669 1.369 . S
C670 C679 1.429 . S
C671 C669 1.419 . S
C671 C672 1.363 . S
C671 H674 0.929 . S
C672 C671 1.363 . S
C672 C678 1.428 . S
H673 C669 0.930 . S
H674 C671 0.929 . S
S675 N676 1.613 . S
S675 N677 1.610 . S
N676 S675 1.613 . S
N676 C679 1.350 . S
N677 S675 1.610 . S
N677 C678 1.351 . S
C678 C672 1.428 . S
C678 N677 1.351 . S
C678 C679 1.434 . S
C679 C670 1.429 . S
C679 N676 1.350 . S
C679 C678 1.434 . S
C680 C681 1.369 . S
C680 C682 1.419 . S
C680 H684 0.930 . S
C681 C680 1.369 . S
C681 C690 1.429 . S
C682 C680 1.419 . S
C682 C683 1.363 . S
C682 H685 0.929 . S
C683 C682 1.363 . S
C683 C689 1.428 . S
H684 C680 0.930 . S
H685 C682 0.929 . S
S686 N687 1.613 . S
S686 N688 1.610 . S
N687 S686 1.613 . S
N687 C690 1.350 . S
N688 S686 1.610 . S
N688 C689 1.351 . S
C689 C683 1.428 . S
C689 N688 1.351 . S
C689 C690 1.434 . S
C690 C681 1.429 . S
C690 N687 1.350 . S
C690 C689 1.434 . S
C691 C692 1.369 . S
C691 C693 1.419 . S
C691 H695 0.930 . S
C692 C691 1.369 . S
C692 C701 1.429 . S
C693 C691 1.419 . S
C693 C694 1.363 . S
C693 H696 0.929 . S
C694 C693 1.363 . S
C694 C700 1.428 . S
H695 C691 0.930 . S
H696 C693 0.929 . S
S697 N698 1.613 . S
S697 N699 1.610 . S
N698 S697 1.613 . S
N698 C701 1.350 . S
N699 S697 1.610 . S
N699 C700 1.351 . S
C700 C694 1.428 . S
C700 N699 1.351 . S
C700 C701 1.434 . S
C701 C692 1.429 . S
C701 N698 1.350 . S
C701 C700 1.434 . S
C702 C703 1.369 . S
C702 C704 1.419 . S
C702 H706 0.930 . S
C703 C702 1.369 . S
C703 C712 1.429 . S
C704 C702 1.419 . S
C704 C705 1.363 . S
C704 H707 0.929 . S
C705 C704 1.363 . S
C705 C711 1.428 . S
H706 C702 0.930 . S
H707 C704 0.929 . S
S708 N709 1.613 . S
S708 N710 1.610 . S
N709 S708 1.613 . S
N709 C712 1.350 . S
N710 S708 1.610 . S
N710 C711 1.351 . S
C711 C705 1.428 . S
C711 N710 1.351 . S
C711 C712 1.434 . S
C712 C703 1.429 . S
C712 N709 1.350 . S
C712 C711 1.434 . S
C713 C714 1.369 . S
C713 C715 1.419 . S
C713 H717 0.930 . S
C714 C713 1.369 . S
C714 C723 1.429 . S
C715 C713 1.419 . S
C715 C716 1.363 . S
C715 H718 0.929 . S
C716 C715 1.363 . S
C716 C722 1.428 . S
H717 C713 0.930 . S
H718 C715 0.929 . S
S719 N720 1.613 . S
S719 N721 1.610 . S
N720 S719 1.613 . S
N720 C723 1.350 . S
N721 S719 1.610 . S
N721 C722 1.351 . S
C722 C716 1.428 . S
C722 N721 1.351 . S
C722 C723 1.434 . S
C723 C714 1.429 . S
C723 N720 1.350 . S
C723 C722 1.434 . S
C724 C725 1.369 . S
C724 C726 1.419 . S
C724 H728 0.930 . S
C725 C724 1.369 . S
C725 C734 1.429 . S
C726 C724 1.419 . S
C726 C727 1.363 . S
C726 H729 0.929 . S
C727 C726 1.363 . S
C727 C733 1.428 . S
H728 C724 0.930 . S
H729 C726 0.929 . S
S730 N731 1.613 . S
S730 N732 1.610 . S
N731 S730 1.613 . S
N731 C734 1.350 . S
N732 S730 1.610 . S
N732 C733 1.351 . S
C733 C727 1.428 . S
C733 N732 1.351 . S
C733 C734 1.434 . S
C734 C725 1.429 . S
C734 N731 1.350 . S
C734 C733 1.434 . S
C735 C736 1.369 . S
C735 C737 1.419 . S
C735 H739 0.930 . S
C736 C735 1.369 . S
C736 C745 1.429 . S
C737 C735 1.419 . S
C737 C738 1.363 . S
C737 H740 0.931 . S
C738 C737 1.363 . S
C738 C744 1.428 . S
H739 C735 0.930 . S
H740 C737 0.931 . S
S741 N742 1.613 . S
S741 N743 1.610 . S
N742 S741 1.613 . S
N742 C745 1.350 . S
N743 S741 1.610 . S
N743 C744 1.351 . S
C744 C738 1.428 . S
C744 N743 1.351 . S
C744 C745 1.434 . S
C745 C736 1.429 . S
C745 N742 1.350 . S
C745 C744 1.434 . S
C746 C747 1.369 . S
C746 C748 1.419 . S
C746 H750 0.930 . S
C747 C746 1.369 . S
C747 C756 1.429 . S
C748 C746 1.419 . S
C748 C749 1.363 . S
C748 H751 0.934 1_554 S
C749 C748 1.363 . S
C749 C755 1.428 . S
H750 C746 0.930 . S
H751 C748 0.934 1_556 S
S752 N753 1.613 . S
S752 N754 1.610 . S
N753 S752 1.613 . S
N753 C756 1.350 . S
N754 S752 1.610 . S
N754 C755 1.351 . S
C755 C749 1.428 . S
C755 N754 1.351 . S
C755 C756 1.434 . S
C756 C747 1.429 . S
C756 N753 1.350 . S
C756 C755 1.434 . S
C757 C758 1.369 . S
C757 C759 1.419 . S
C757 H761 0.930 . S
C758 C757 1.369 . S
C758 C767 1.429 . S
C759 C757 1.419 . S
C759 C760 1.363 . S
C759 H762 0.929 . S
C760 C759 1.363 . S
C760 C766 1.428 . S
H761 C757 0.930 . S
H762 C759 0.929 . S
S763 N764 1.613 . S
S763 N765 1.610 . S
N764 S763 1.613 . S
N764 C767 1.350 . S
N765 S763 1.610 . S
N765 C766 1.351 . S
C766 C760 1.428 . S
C766 N765 1.351 . S
C766 C767 1.434 . S
C767 C758 1.429 . S
C767 N764 1.350 . S
C767 C766 1.434 . S
C768 C769 1.369 . S
C768 C770 1.419 . S
C768 H772 0.930 . S
C769 C768 1.369 . S
C769 C778 1.429 . S
C770 C768 1.419 . S
C770 C771 1.363 . S
C770 H773 0.929 . S
C771 C770 1.363 . S
C771 C777 1.428 . S
H772 C768 0.930 . S
H773 C770 0.929 . S
S774 N775 1.613 . S
S774 N776 1.610 . S
N775 S774 1.613 . S
N775 C778 1.350 . S
N776 S774 1.610 . S
N776 C777 1.351 . S
C777 C771 1.428 . S
C777 N776 1.351 . S
C777 C778 1.434 . S
C778 C769 1.429 . S
C778 N775 1.350 . S
C778 C777 1.434 . S
C779 C780 1.369 . S
C779 C781 1.419 . S
C779 H783 0.930 . S
C780 C779 1.369 . S
C780 C789 1.429 . S
C781 C779 1.419 . S
C781 C782 1.363 . S
C781 H784 0.929 . S
C782 C781 1.363 . S
C782 C788 1.428 . S
H783 C779 0.930 . S
H784 C781 0.929 . S
S785 N786 1.613 . S
S785 N787 1.610 . S
N786 S785 1.613 . S
N786 C789 1.350 . S
N787 S785 1.610 . S
N787 C788 1.351 . S
C788 C782 1.428 . S
C788 N787 1.351 . S
C788 C789 1.434 . S
C789 C780 1.429 . S
C789 N786 1.350 . S
C789 C788 1.434 . S
C790 C791 1.369 . S
C790 C792 1.419 . S
C790 H794 0.930 . S
C791 C790 1.369 . S
C791 C800 1.429 . S
C792 C790 1.419 . S
C792 C793 1.363 . S
C792 H795 0.929 . S
C793 C792 1.363 . S
C793 C799 1.428 . S
H794 C790 0.930 . S
H795 C792 0.929 . S
S796 N797 1.613 . S
S796 N798 1.610 . S
N797 S796 1.613 . S
N797 C800 1.350 . S
N798 S796 1.610 . S
N798 C799 1.351 . S
C799 C793 1.428 . S
C799 N798 1.351 . S
C799 C800 1.434 . S
C800 C791 1.429 . S
C800 N797 1.350 . S
C800 C799 1.434 . S
C801 C802 1.369 . S
C801 C803 1.419 . S
C801 H805 0.930 . S
C802 C801 1.369 . S
C802 C811 1.429 . S
C803 C801 1.419 . S
C803 C804 1.363 . S
C803 H806 0.929 . S
C804 C803 1.363 . S
C804 C810 1.428 . S
H805 C801 0.930 . S
H806 C803 0.929 . S
S807 N808 1.613 1_554 S
S807 N809 1.610 . S
N808 S807 1.613 1_556 S
N808 C811 1.350 . S
N809 S807 1.610 . S
N809 C810 1.351 1_554 S
C810 C804 1.428 . S
C810 N809 1.351 1_556 S
C810 C811 1.434 . S
C811 C802 1.429 . S
C811 N808 1.350 . S
C811 C810 1.434 . S
C812 C813 1.369 . S
C812 C814 1.419 . S
C812 H816 0.930 . S
C813 C812 1.369 . S
C813 C822 1.429 . S
C814 C812 1.419 . S
C814 C815 1.363 . S
C814 H817 0.889 1_556 S
C815 C814 1.363 . S
C815 C821 1.428 . S
H816 C812 0.930 . S
H817 C814 0.889 1_554 S
S818 N819 1.613 . S
S818 N820 1.610 . S
N819 S818 1.613 . S
N819 C822 1.350 . S
N820 S818 1.610 . S
N820 C821 1.351 . S
C821 C815 1.428 . S
C821 N820 1.351 . S
C821 C822 1.434 . S
C822 C813 1.429 . S
C822 N819 1.350 . S
C822 C821 1.434 . S
C823 C824 1.369 . S
C823 C825 1.419 . S
C823 H827 0.930 . S
C824 C823 1.369 . S
C824 C833 1.429 . S
C825 C823 1.419 . S
C825 C826 1.363 . S
C825 H828 0.929 . S
C826 C825 1.363 . S
C826 C832 1.428 . S
H827 C823 0.930 . S
H828 C825 0.929 . S
S829 N830 1.613 . S
S829 N831 1.610 . S
N830 S829 1.613 . S
N830 C833 1.350 . S
N831 S829 1.610 . S
N831 C832 1.351 . S
C832 C826 1.428 . S
C832 N831 1.351 . S
C832 C833 1.434 . S
C833 C824 1.429 . S
C833 N830 1.350 . S
C833 C832 1.434 . S
C834 C835 1.369 . S
C834 C836 1.419 . S
C834 H838 0.930 . S
C835 C834 1.369 . S
C835 C844 1.429 . S
C836 C834 1.419 . S
C836 C837 1.363 . S
C836 H839 0.929 . S
C837 C836 1.363 . S
C837 C843 1.428 . S
H838 C834 0.930 . S
H839 C836 0.929 . S
S840 N841 1.613 . S
S840 N842 1.610 . S
N841 S840 1.613 . S
N841 C844 1.350 . S
N842 S840 1.610 . S
N842 C843 1.351 . S
C843 C837 1.428 . S
C843 N842 1.351 . S
C843 C844 1.434 . S
C844 C835 1.429 . S
C844 N841 1.350 . S
C844 C843 1.434 . S
C845 C846 1.369 . S
C845 C847 1.419 . S
C845 H849 0.930 . S
C846 C845 1.369 . S
C846 C855 1.429 . S
C847 C845 1.419 . S
C847 C848 1.363 . S
C847 H850 0.929 . S
C848 C847 1.363 . S
C848 C854 1.428 . S
H849 C845 0.930 . S
H850 C847 0.929 . S
S851 N852 1.613 . S
S851 N853 1.610 . S
N852 S851 1.613 . S
N852 C855 1.350 . S
N853 S851 1.610 . S
N853 C854 1.351 . S
C854 C848 1.428 . S
C854 N853 1.351 . S
C854 C855 1.434 . S
C855 C846 1.429 . S
C855 N852 1.350 . S
C855 C854 1.434 . S
C856 C857 1.369 . S
C856 C858 1.419 . S
C856 H860 0.930 . S
C857 C856 1.369 . S
C857 C866 1.429 . S
C858 C856 1.419 . S
C858 C859 1.363 . S
C858 H861 0.929 . S
C859 C858 1.363 . S
C859 C865 1.428 . S
H860 C856 0.930 . S
H861 C858 0.929 . S
S862 N863 1.613 . S
S862 N864 1.610 . S
N863 S862 1.613 . S
N863 C866 1.350 . S
N864 S862 1.610 . S
N864 C865 1.351 . S
C865 C859 1.428 . S
C865 N864 1.351 . S
C865 C866 1.434 . S
C866 C857 1.429 . S
C866 N863 1.350 . S
C866 C865 1.434 . S
C867 C868 1.369 . S
C867 C869 1.419 . S
C867 H871 0.930 . S
C868 C867 1.369 . S
C868 C877 1.429 . S
C869 C867 1.419 . S
C869 C870 1.363 . S
C869 H872 0.929 . S
C870 C869 1.363 . S
C870 C876 1.428 . S
H871 C867 0.930 . S
H872 C869 0.929 . S
S873 N874 1.613 . S
S873 N875 1.610 . S
N874 S873 1.613 . S
N874 C877 1.350 . S
N875 S873 1.610 . S
N875 C876 1.351 . S
C876 C870 1.428 . S
C876 N875 1.351 . S
C876 C877 1.434 . S
C877 C868 1.429 . S
C877 N874 1.350 . S
C877 C876 1.434 . S
C878 C879 1.369 . S
C878 C880 1.419 . S
C878 H882 0.930 . S
C879 C878 1.369 . S
C879 C888 1.429 . S
C880 C878 1.419 . S
C880 C881 1.363 . S
C880 H883 0.929 . S
C881 C880 1.363 . S
C881 C887 1.428 . S
H882 C878 0.930 . S
H883 C880 0.929 . S
S884 N885 1.613 . S
S884 N886 1.610 . S
N885 S884 1.613 . S
N885 C888 1.350 . S
N886 S884 1.610 . S
N886 C887 1.351 . S
C887 C881 1.428 . S
C887 N886 1.351 . S
C887 C888 1.434 . S
C888 C879 1.429 . S
C888 N885 1.350 . S
C888 C887 1.434 . S
C889 C890 1.369 . S
C889 C891 1.419 . S
C889 H893 0.930 . S
C890 C889 1.369 . S
C890 C899 1.429 . S
C891 C889 1.419 . S
C891 C892 1.363 . S
C891 H894 0.929 . S
C892 C891 1.363 . S
C892 C898 1.428 . S
H893 C889 0.930 . S
H894 C891 0.929 . S
S895 N896 1.613 . S
S895 N897 1.610 . S
N896 S895 1.613 . S
N896 C899 1.350 . S
N897 S895 1.610 . S
N897 C898 1.351 . S
C898 C892 1.428 . S
C898 N897 1.351 . S
C898 C899 1.434 . S
C899 C890 1.429 . S
C899 N896 1.350 . S
C899 C898 1.434 . S
C900 C901 1.369 . S
C900 C902 1.419 . S
C900 H904 0.930 1_545 S
C901 C900 1.369 . S
C901 C910 1.429 . S
C902 C900 1.419 . S
C902 C903 1.363 . S
C902 H905 0.929 1_545 S
C903 C902 1.363 . S
C903 C909 1.428 . S
H904 C900 0.930 1_565 S
H905 C902 0.929 1_565 S
S906 N907 1.613 . S
S906 N908 1.610 . S
N907 S906 1.613 . S
N907 C910 1.350 . S
N908 S906 1.610 . S
N908 C909 1.351 . S
C909 C903 1.428 . S
C909 N908 1.351 . S
C909 C910 1.434 . S
C910 C901 1.429 . S
C910 N907 1.350 . S
C910 C909 1.434 . S
C911 C912 1.381 . S
C911 C913 1.410 . S
C911 H915 0.927 1_655 S
C912 C911 1.381 . S
C912 C921 1.429 . S
C913 C911 1.410 . S
C913 C914 1.363 . S
C913 H916 0.929 1_655 S
C914 C913 1.363 . S
C914 C920 1.428 . S
H915 C911 0.927 1_455 S
H916 C913 0.929 1_455 S
S917 N918 1.613 . S
S917 N919 1.610 . S
N918 S917 1.613 . S
N918 C921 1.350 . S
N919 S917 1.610 . S
N919 C920 1.351 . S
C920 C914 1.428 . S
C920 N919 1.351 . S
C920 C921 1.434 . S
C921 C912 1.429 . S
C921 N918 1.350 . S
C921 C920 1.434 . S
C922 C923 1.369 . S
C922 C924 1.419 . S
C922 H926 0.930 . S
C923 C922 1.369 . S
C923 C932 1.429 . S
C924 C922 1.419 . S
C924 C925 1.363 . S
C924 H927 0.929 . S
C925 C924 1.363 . S
C925 C931 1.428 . S
H926 C922 0.930 . S
H927 C924 0.929 . S
S928 N929 1.613 . S
S928 N930 1.610 . S
N929 S928 1.613 . S
N929 C932 1.350 . S
N930 S928 1.610 . S
N930 C931 1.351 . S
C931 C925 1.428 . S
C931 N930 1.351 . S
C931 C932 1.434 . S
C932 C923 1.429 . S
C932 N929 1.350 . S
C932 C931 1.434 . S
C933 C934 1.369 . S
C933 C935 1.419 . S
C933 H937 0.930 . S
C934 C933 1.369 . S
C934 C943 1.429 1_455 S
C935 C933 1.419 . S
C935 C936 1.363 . S
C935 H938 0.929 . S
C936 C935 1.363 . S
C936 C942 1.428 1_455 S
H937 C933 0.930 . S
H938 C935 0.929 . S
S939 N940 1.613 . S
S939 N941 1.610 . S
N940 S939 1.613 . S
N940 C943 1.350 . S
N941 S939 1.610 . S
N941 C942 1.351 . S
C942 C936 1.428 1_655 S
C942 N941 1.351 . S
C942 C943 1.434 . S
C943 C934 1.429 1_655 S
C943 N940 1.350 . S
C943 C942 1.434 . S
C944 C945 1.369 . S
C944 C946 1.419 . S
C944 H948 0.930 . S
C945 C944 1.369 . S
C945 C954 1.429 . S
C946 C944 1.419 . S
C946 C947 1.363 . S
C946 H949 0.929 . S
C947 C946 1.363 . S
C947 C953 1.428 . S
H948 C944 0.930 . S
H949 C946 0.929 . S
S950 N951 1.613 . S
S950 N952 1.610 . S
N951 S950 1.613 . S
N951 C954 1.350 . S
N952 S950 1.610 . S
N952 C953 1.351 . S
C953 C947 1.428 . S
C953 N952 1.351 . S
C953 C954 1.434 . S
C954 C945 1.429 . S
C954 N951 1.350 . S
C954 C953 1.434 . S
C955 C956 1.369 . S
C955 C957 1.419 . S
C955 H959 0.930 . S
C956 C955 1.369 . S
C956 C965 1.429 1_565 S
C957 C955 1.419 . S
C957 C958 1.363 . S
C957 H960 0.929 . S
C958 C957 1.363 . S
C958 C964 1.428 1_565 S
H959 C955 0.930 . S
H960 C957 0.929 . S
S961 N962 1.613 . S
S961 N963 1.610 . S
N962 S961 1.613 . S
N962 C965 1.350 . S
N963 S961 1.610 . S
N963 C964 1.351 . S
C964 C958 1.428 1_545 S
C964 N963 1.351 . S
C964 C965 1.434 . S
C965 C956 1.429 1_545 S
C965 N962 1.350 . S
C965 C964 1.434 . S
C966 C967 1.347 1_565 S
C966 C968 1.419 . S
C966 H970 0.930 . S
C967 C966 1.347 1_545 S
C967 C976 1.439 . S
C968 C966 1.419 . S
C968 C969 1.363 . S
C968 H971 0.929 . S
C969 C968 1.363 . S
C969 C975 1.428 1_565 S
H970 C966 0.930 . S
H971 C968 0.929 . S
S972 N973 1.613 . S
S972 N974 1.610 . S
N973 S972 1.613 . S
N973 C976 1.350 . S
N974 S972 1.610 . S
N974 C975 1.351 . S
C975 C969 1.428 1_545 S
C975 N974 1.351 . S
C975 C976 1.434 . S
C976 C967 1.439 . S
C976 N973 1.350 . S
C976 C975 1.434 . S
C977 C978 1.369 . S
C977 C979 1.419 . S
C977 H981 0.930 . S
C978 C977 1.369 . S
C978 C987 1.434 . S
C979 C977 1.419 . S
C979 C980 1.363 . S
C979 H982 0.929 . S
C980 C979 1.363 . S
C980 C986 1.428 . S
H981 C977 0.930 . S
H982 C979 0.929 . S
S983 N984 1.613 . S
S983 N985 1.610 . S
N984 S983 1.613 . S
N984 C987 1.347 1_655 S
N985 S983 1.610 . S
N985 C986 1.351 1_655 S
C986 C980 1.428 . S
C986 N985 1.351 1_455 S
C986 C987 1.431 . S
C987 C978 1.434 . S
C987 N984 1.347 1_455 S
C987 C986 1.431 . S
C988 C989 1.369 . S
C988 C990 1.419 . S
C988 H992 0.930 . S
C989 C988 1.369 . S
C989 C998 1.429 . S
C990 C988 1.419 . S
C990 C991 1.363 . S
C990 H993 0.929 . S
C991 C990 1.363 . S
C991 C997 1.428 . S
H992 C988 0.930 . S
H993 C990 0.929 . S
S994 N995 1.613 . S
S994 N996 1.610 . S
N995 S994 1.613 . S
N995 C998 1.350 . S
N996 S994 1.610 . S
N996 C997 1.351 . S
C997 C991 1.428 . S
C997 N996 1.351 . S
C997 C998 1.434 . S
C998 C989 1.429 . S
C998 N995 1.350 . S
C998 C997 1.434 . S
C999 C1000 1.369 . S
C999 C1001 1.419 . S
C999 H1003 0.930 . S
C1000 C999 1.369 . S
C1000 C1009 1.429 1_655 S
C1001 C999 1.419 . S
C1001 C1002 1.363 . S
C1001 H1004 0.929 . S
C1002 C1001 1.363 . S
C1002 C1008 1.428 1_655 S
H1003 C999 0.930 . S
H1004 C1001 0.929 . S
S1005 N1006 1.613 . S
S1005 N1007 1.610 . S
N1006 S1005 1.613 . S
N1006 C1009 1.350 . S
N1007 S1005 1.610 . S
N1007 C1008 1.351 . S
C1008 C1002 1.428 1_455 S
C1008 N1007 1.351 . S
C1008 C1009 1.434 . S
C1009 C1000 1.429 1_455 S
C1009 N1006 1.350 . S
C1009 C1008 1.434 . S
C1010 C1011 1.369 . S
C1010 C1012 1.419 . S
C1010 H1014 0.930 . S
C1011 C1010 1.369 . S
C1011 C1020 1.429 . S
C1012 C1010 1.419 . S
C1012 C1013 1.363 . S
C1012 H1015 0.929 . S
C1013 C1012 1.363 . S
C1013 C1019 1.428 . S
H1014 C1010 0.930 . S
H1015 C1012 0.929 . S
S1016 N1017 1.613 . S
S1016 N1018 1.610 . S
N1017 S1016 1.613 . S
N1017 C1020 1.350 . S
N1018 S1016 1.610 . S
N1018 C1019 1.351 . S
C1019 C1013 1.428 . S
C1019 N1018 1.351 . S
C1019 C1020 1.434 . S
C1020 C1011 1.429 . S
C1020 N1017 1.350 . S
C1020 C1019 1.434 . S
C1021 C1022 1.369 . S
C1021 C1023 1.419 . S
C1021 H1025 0.930 . S
C1022 C1021 1.369 . S
C1022 C1031 1.429 . S
C1023 C1021 1.419 . S
C1023 C1024 1.363 . S
C1023 H1026 0.929 . S
C1024 C1023 1.363 . S
C1024 C1030 1.428 . S
H1025 C1021 0.930 . S
H1026 C1023 0.929 . S
S1027 N1028 1.613 . S
S1027 N1029 1.610 . S
N1028 S1027 1.613 . S
N1028 C1031 1.350 . S
N1029 S1027 1.610 . S
N1029 C1030 1.351 . S
C1030 C1024 1.428 . S
C1030 N1029 1.351 . S
C1030 C1031 1.434 . S
C1031 C1022 1.429 . S
C1031 N1028 1.350 . S
C1031 C1030 1.434 . S
C1032 C1033 1.369 . S
C1032 C1034 1.419 . S
C1032 H1036 0.930 . S
C1033 C1032 1.369 . S
C1033 C1042 1.429 . S
C1034 C1032 1.419 . S
C1034 C1035 1.363 . S
C1034 H1037 0.929 . S
C1035 C1034 1.363 . S
C1035 C1041 1.428 . S
H1036 C1032 0.930 . S
H1037 C1034 0.929 . S
S1038 N1039 1.613 . S
S1038 N1040 1.610 . S
N1039 S1038 1.613 . S
N1039 C1042 1.350 . S
N1040 S1038 1.610 . S
N1040 C1041 1.351 . S
C1041 C1035 1.428 . S
C1041 N1040 1.351 . S
C1041 C1042 1.434 . S
C1042 C1033 1.429 . S
C1042 N1039 1.350 . S
C1042 C1041 1.434 . S
C1043 C1044 1.369 . S
C1043 C1045 1.419 . S
C1043 H1047 0.930 . S
C1044 C1043 1.369 . S
C1044 C1053 1.429 . S
C1045 C1043 1.419 . S
C1045 C1046 1.363 . S
C1045 H1048 0.929 . S
C1046 C1045 1.363 . S
C1046 C1052 1.428 . S
H1047 C1043 0.930 . S
H1048 C1045 0.929 . S
S1049 N1050 1.613 . S
S1049 N1051 1.610 . S
N1050 S1049 1.613 . S
N1050 C1053 1.350 . S
N1051 S1049 1.610 . S
N1051 C1052 1.351 . S
C1052 C1046 1.428 . S
C1052 N1051 1.351 . S
C1052 C1053 1.434 . S
C1053 C1044 1.429 . S
C1053 N1050 1.350 . S
C1053 C1052 1.434 . S
C1054 C1055 1.369 . S
C1054 C1056 1.419 . S
C1054 H1058 0.930 . S
C1055 C1054 1.369 . S
C1055 C1064 1.429 . S
C1056 C1054 1.419 . S
C1056 C1057 1.363 . S
C1056 H1059 0.929 . S
C1057 C1056 1.363 . S
C1057 C1063 1.428 . S
H1058 C1054 0.930 . S
H1059 C1056 0.929 . S
S1060 N1061 1.613 . S
S1060 N1062 1.610 . S
N1061 S1060 1.613 . S
N1061 C1064 1.350 . S
N1062 S1060 1.610 . S
N1062 C1063 1.351 . S
C1063 C1057 1.428 . S
C1063 N1062 1.351 . S
C1063 C1064 1.434 . S
C1064 C1055 1.429 . S
C1064 N1061 1.350 . S
C1064 C1063 1.434 . S
C1065 C1066 1.369 . S
C1065 C1067 1.419 . S
C1065 H1069 0.930 . S
C1066 C1065 1.369 . S
C1066 C1075 1.429 . S
C1067 C1065 1.419 . S
C1067 C1068 1.363 . S
C1067 H1070 0.929 . S
C1068 C1067 1.363 . S
C1068 C1074 1.428 . S
H1069 C1065 0.930 . S
H1070 C1067 0.929 . S
S1071 N1072 1.613 . S
S1071 N1073 1.610 . S
N1072 S1071 1.613 . S
N1072 C1075 1.350 . S
N1073 S1071 1.610 . S
N1073 C1074 1.351 . S
C1074 C1068 1.428 . S
C1074 N1073 1.351 . S
C1074 C1075 1.434 . S
C1075 C1066 1.429 . S
C1075 N1072 1.350 . S
C1075 C1074 1.434 . S
C1076 C1077 1.369 . S
C1076 C1078 1.419 . S
C1076 H1080 0.930 . S
C1077 C1076 1.369 . S
C1077 C1086 1.429 . S
C1078 C1076 1.419 . S
C1078 C1079 1.363 . S
C1078 H1081 0.929 . S
C1079 C1078 1.363 . S
C1079 C1085 1.428 . S
H1080 C1076 0.930 . S
H1081 C1078 0.929 . S
S1082 N1083 1.613 . S
S1082 N1084 1.610 . S
N1083 S1082 1.613 . S
N1083 C1086 1.350 . S
N1084 S1082 1.610 . S
N1084 C1085 1.351 . S
C1085 C1079 1.428 . S
C1085 N1084 1.351 . S
C1085 C1086 1.434 . S
C1086 C1077 1.429 . S
C1086 N1083 1.350 . S
C1086 C1085 1.434 . S
C1087 C1088 1.369 . S
C1087 C1089 1.419 . S
C1087 H1091 0.930 . S
C1088 C1087 1.369 . S
C1088 C1097 1.429 . S
C1089 C1087 1.419 . S
C1089 C1090 1.363 . S
C1089 H1092 0.929 . S
C1090 C1089 1.363 . S
C1090 C1096 1.428 . S
H1091 C1087 0.930 . S
H1092 C1089 0.929 . S
S1093 N1094 1.613 . S
S1093 N1095 1.610 . S
N1094 S1093 1.613 . S
N1094 C1097 1.350 . S
N1095 S1093 1.610 . S
N1095 C1096 1.351 . S
C1096 C1090 1.428 . S
C1096 N1095 1.351 . S
C1096 C1097 1.434 . S
C1097 C1088 1.429 . S
C1097 N1094 1.350 . S
C1097 C1096 1.434 . S
C1098 C1099 1.369 . S
C1098 C1100 1.419 . S
C1098 H1102 0.930 . S
C1099 C1098 1.369 . S
C1099 C1108 1.429 . S
C1100 C1098 1.419 . S
C1100 C1101 1.363 . S
C1100 H1103 0.929 . S
C1101 C1100 1.363 . S
C1101 C1107 1.428 . S
H1102 C1098 0.930 . S
H1103 C1100 0.929 . S
S1104 N1105 1.613 . S
S1104 N1106 1.610 . S
N1105 S1104 1.613 . S
N1105 C1108 1.350 . S
N1106 S1104 1.610 . S
N1106 C1107 1.351 . S
C1107 C1101 1.428 . S
C1107 N1106 1.351 . S
C1107 C1108 1.434 . S
C1108 C1099 1.429 . S
C1108 N1105 1.350 . S
C1108 C1107 1.434 . S
C1109 C1110 1.369 . S
C1109 C1111 1.419 . S
C1109 H1113 0.930 . S
C1110 C1109 1.369 . S
C1110 C1119 1.429 . S
C1111 C1109 1.419 . S
C1111 C1112 1.363 . S
C1111 H1114 0.929 . S
C1112 C1111 1.363 . S
C1112 C1118 1.428 . S
H1113 C1109 0.930 . S
H1114 C1111 0.929 . S
S1115 N1116 1.613 . S
S1115 N1117 1.610 . S
N1116 S1115 1.613 . S
N1116 C1119 1.350 . S
N1117 S1115 1.610 . S
N1117 C1118 1.351 . S
C1118 C1112 1.428 . S
C1118 N1117 1.351 . S
C1118 C1119 1.434 . S
C1119 C1110 1.429 . S
C1119 N1116 1.350 . S
C1119 C1118 1.434 . S
C1120 C1121 1.369 . S
C1120 C1122 1.419 . S
C1120 H1124 0.930 . S
C1121 C1120 1.369 . S
C1121 C1130 1.429 . S
C1122 C1120 1.419 . S
C1122 C1123 1.363 . S
C1122 H1125 0.929 . S
C1123 C1122 1.363 . S
C1123 C1129 1.428 . S
H1124 C1120 0.930 . S
H1125 C1122 0.929 . S
S1126 N1127 1.613 . S
S1126 N1128 1.610 . S
N1127 S1126 1.613 . S
N1127 C1130 1.350 . S
N1128 S1126 1.610 . S
N1128 C1129 1.351 . S
C1129 C1123 1.428 . S
C1129 N1128 1.351 . S
C1129 C1130 1.434 . S
C1130 C1121 1.429 . S
C1130 N1127 1.350 . S
C1130 C1129 1.434 . S
C1131 C1132 1.369 . S
C1131 C1133 1.419 . S
C1131 H1135 0.930 . S
C1132 C1131 1.369 . S
C1132 C1141 1.429 . S
C1133 C1131 1.419 . S
C1133 C1134 1.363 . S
C1133 H1136 0.929 . S
C1134 C1133 1.363 . S
C1134 C1140 1.428 . S
H1135 C1131 0.930 . S
H1136 C1133 0.929 . S
S1137 N1138 1.613 . S
S1137 N1139 1.610 . S
N1138 S1137 1.613 . S
N1138 C1141 1.350 . S
N1139 S1137 1.610 . S
N1139 C1140 1.351 . S
C1140 C1134 1.428 . S
C1140 N1139 1.351 . S
C1140 C1141 1.434 . S
C1141 C1132 1.429 . S
C1141 N1138 1.350 . S
C1141 C1140 1.434 . S
C1142 C1143 1.369 . S
C1142 C1144 1.419 . S
C1142 H1146 0.930 . S
C1143 C1142 1.369 . S
C1143 C1152 1.429 . S
C1144 C1142 1.419 . S
C1144 C1145 1.363 . S
C1144 H1147 0.929 . S
C1145 C1144 1.363 . S
C1145 C1151 1.428 . S
H1146 C1142 0.930 . S
H1147 C1144 0.929 . S
S1148 N1149 1.613 . S
S1148 N1150 1.610 . S
N1149 S1148 1.613 . S
N1149 C1152 1.350 . S
N1150 S1148 1.610 . S
N1150 C1151 1.351 . S
C1151 C1145 1.428 . S
C1151 N1150 1.351 . S
C1151 C1152 1.434 . S
C1152 C1143 1.429 . S
C1152 N1149 1.350 . S
C1152 C1151 1.434 . S
C1153 C1154 1.369 . S
C1153 C1155 1.419 . S
C1153 H1157 0.930 . S
C1154 C1153 1.369 . S
C1154 C1163 1.429 . S
C1155 C1153 1.419 . S
C1155 C1156 1.363 . S
C1155 H1158 0.929 . S
C1156 C1155 1.363 . S
C1156 C1162 1.428 . S
H1157 C1153 0.930 . S
H1158 C1155 0.929 . S
S1159 N1160 1.613 . S
S1159 N1161 1.610 . S
N1160 S1159 1.613 . S
N1160 C1163 1.350 . S
N1161 S1159 1.610 . S
N1161 C1162 1.351 . S
C1162 C1156 1.428 . S
C1162 N1161 1.351 . S
C1162 C1163 1.434 . S
C1163 C1154 1.429 . S
C1163 N1160 1.350 . S
C1163 C1162 1.434 . S
C1164 C1165 1.369 . S
C1164 C1166 1.419 . S
C1164 H1168 0.930 . S
C1165 C1164 1.369 . S
C1165 C1174 1.429 . S
C1166 C1164 1.419 . S
C1166 C1167 1.363 . S
C1166 H1169 0.929 . S
C1167 C1166 1.363 . S
C1167 C1173 1.428 . S
H1168 C1164 0.930 . S
H1169 C1166 0.929 . S
S1170 N1171 1.613 . S
S1170 N1172 1.610 . S
N1171 S1170 1.613 . S
N1171 C1174 1.350 . S
N1172 S1170 1.610 . S
N1172 C1173 1.351 . S
C1173 C1167 1.428 . S
C1173 N1172 1.351 . S
C1173 C1174 1.434 . S
C1174 C1165 1.429 . S
C1174 N1171 1.350 . S
C1174 C1173 1.434 . S
C1175 C1176 1.369 . S
C1175 C1177 1.419 . S
C1175 H1179 0.930 . S
C1176 C1175 1.369 . S
C1176 C1185 1.429 . S
C1177 C1175 1.419 . S
C1177 C1178 1.363 . S
C1177 H1180 0.929 . S
C1178 C1177 1.363 . S
C1178 C1184 1.428 . S
H1179 C1175 0.930 . S
H1180 C1177 0.929 . S
S1181 N1182 1.613 . S
S1181 N1183 1.610 . S
N1182 S1181 1.613 . S
N1182 C1185 1.350 . S
N1183 S1181 1.610 . S
N1183 C1184 1.351 . S
C1184 C1178 1.428 . S
C1184 N1183 1.351 . S
C1184 C1185 1.434 . S
C1185 C1176 1.429 . S
C1185 N1182 1.350 . S
C1185 C1184 1.434 . S
C1186 C1187 1.369 . S
C1186 C1188 1.419 . S
C1186 H1190 0.930 . S
C1187 C1186 1.369 . S
C1187 C1196 1.429 . S
C1188 C1186 1.419 . S
C1188 C1189 1.363 . S
C1188 H1191 0.929 . S
C1189 C1188 1.363 . S
C1189 C1195 1.428 . S
H1190 C1186 0.930 . S
H1191 C1188 0.929 . S
S1192 N1193 1.613 . S
S1192 N1194 1.610 . S
N1193 S1192 1.613 . S
N1193 C1196 1.350 . S
N1194 S1192 1.610 . S
N1194 C1195 1.351 . S
C1195 C1189 1.428 . S
C1195 N1194 1.351 . S
C1195 C1196 1.434 . S
C1196 C1187 1.429 . S
C1196 N1193 1.350 . S
C1196 C1195 1.434 . S
C1197 C1198 1.369 . S
C1197 C1199 1.419 . S
C1197 H1201 0.930 . S
C1198 C1197 1.369 . S
C1198 C1207 1.429 . S
C1199 C1197 1.419 . S
C1199 C1200 1.363 . S
C1199 H1202 0.929 . S
C1200 C1199 1.363 . S
C1200 C1206 1.428 . S
H1201 C1197 0.930 . S
H1202 C1199 0.929 . S
S1203 N1204 1.613 . S
S1203 N1205 1.610 . S
N1204 S1203 1.613 . S
N1204 C1207 1.350 . S
N1205 S1203 1.610 . S
N1205 C1206 1.351 . S
C1206 C1200 1.428 . S
C1206 N1205 1.351 . S
C1206 C1207 1.434 . S
C1207 C1198 1.429 . S
C1207 N1204 1.350 . S
C1207 C1206 1.434 . S
C1208 C1209 1.369 . S
C1208 C1210 1.419 . S
C1208 H1212 0.930 . S
C1209 C1208 1.369 . S
C1209 C1218 1.429 . S
C1210 C1208 1.419 . S
C1210 C1211 1.363 . S
C1210 H1213 0.929 . S
C1211 C1210 1.363 . S
C1211 C1217 1.428 . S
H1212 C1208 0.930 . S
H1213 C1210 0.929 . S
S1214 N1215 1.613 . S
S1214 N1216 1.610 . S
N1215 S1214 1.613 . S
N1215 C1218 1.350 . S
N1216 S1214 1.610 . S
N1216 C1217 1.351 . S
C1217 C1211 1.428 . S
C1217 N1216 1.351 . S
C1217 C1218 1.434 . S
C1218 C1209 1.429 . S
C1218 N1215 1.350 . S
C1218 C1217 1.434 . S
C1219 C1220 1.369 . S
C1219 C1221 1.419 . S
C1219 H1223 0.930 . S
C1220 C1219 1.369 . S
C1220 C1229 1.429 . S
C1221 C1219 1.419 . S
C1221 C1222 1.363 . S
C1221 H1224 0.929 . S
C1222 C1221 1.363 . S
C1222 C1228 1.428 . S
H1223 C1219 0.930 . S
H1224 C1221 0.929 . S
S1225 N1226 1.613 . S
S1225 N1227 1.610 . S
N1226 S1225 1.613 . S
N1226 C1229 1.350 . S
N1227 S1225 1.610 . S
N1227 C1228 1.351 . S
C1228 C1222 1.428 . S
C1228 N1227 1.351 . S
C1228 C1229 1.434 . S
C1229 C1220 1.429 . S
C1229 N1226 1.350 . S
C1229 C1228 1.434 . S
C1230 C1231 1.369 . S
C1230 C1232 1.419 . S
C1230 H1234 0.930 . S
C1231 C1230 1.369 . S
C1231 C1240 1.429 . S
C1232 C1230 1.419 . S
C1232 C1233 1.363 . S
C1232 H1235 0.929 . S
C1233 C1232 1.363 . S
C1233 C1239 1.428 . S
H1234 C1230 0.930 . S
H1235 C1232 0.929 . S
S1236 N1237 1.613 . S
S1236 N1238 1.610 . S
N1237 S1236 1.613 . S
N1237 C1240 1.350 . S
N1238 S1236 1.610 . S
N1238 C1239 1.351 . S
C1239 C1233 1.428 . S
C1239 N1238 1.351 . S
C1239 C1240 1.434 . S
C1240 C1231 1.429 . S
C1240 N1237 1.350 . S
C1240 C1239 1.434 . S
C1241 C1242 1.369 . S
C1241 C1243 1.419 . S
C1241 H1245 0.930 . S
C1242 C1241 1.369 . S
C1242 C1251 1.429 . S
C1243 C1241 1.419 . S
C1243 C1244 1.363 . S
C1243 H1246 0.929 . S
C1244 C1243 1.363 . S
C1244 C1250 1.428 . S
H1245 C1241 0.930 . S
H1246 C1243 0.929 . S
S1247 N1248 1.613 . S
S1247 N1249 1.610 . S
N1248 S1247 1.613 . S
N1248 C1251 1.350 . S
N1249 S1247 1.610 . S
N1249 C1250 1.351 . S
C1250 C1244 1.428 . S
C1250 N1249 1.351 . S
C1250 C1251 1.434 . S
C1251 C1242 1.429 . S
C1251 N1248 1.350 . S
C1251 C1250 1.434 . S
C1252 C1253 1.369 . S
C1252 C1254 1.419 . S
C1252 H1256 0.930 . S
C1253 C1252 1.369 . S
C1253 C1262 1.429 . S
C1254 C1252 1.419 . S
C1254 C1255 1.363 . S
C1254 H1257 0.929 . S
C1255 C1254 1.363 . S
C1255 C1261 1.428 . S
H1256 C1252 0.930 . S
H1257 C1254 0.929 . S
S1258 N1259 1.613 . S
S1258 N1260 1.610 . S
N1259 S1258 1.613 . S
N1259 C1262 1.350 . S
N1260 S1258 1.610 . S
N1260 C1261 1.351 . S
C1261 C1255 1.428 . S
C1261 N1260 1.351 . S
C1261 C1262 1.434 . S
C1262 C1253 1.429 . S
C1262 N1259 1.350 . S
C1262 C1261 1.434 . S
C1263 C1264 1.369 . S
C1263 C1265 1.419 . S
C1263 H1267 0.930 . S
C1264 C1263 1.369 . S
C1264 C1273 1.429 . S
C1265 C1263 1.419 . S
C1265 C1266 1.363 . S
C1265 H1268 0.929 . S
C1266 C1265 1.363 . S
C1266 C1272 1.428 . S
H1267 C1263 0.930 . S
H1268 C1265 0.929 . S
S1269 N1270 1.613 . S
S1269 N1271 1.610 . S
N1270 S1269 1.613 . S
N1270 C1273 1.350 . S
N1271 S1269 1.610 . S
N1271 C1272 1.351 . S
C1272 C1266 1.428 . S
C1272 N1271 1.351 . S
C1272 C1273 1.434 . S
C1273 C1264 1.429 . S
C1273 N1270 1.350 . S
C1273 C1272 1.434 . S
C1274 C1275 1.369 . S
C1274 C1276 1.419 . S
C1274 H1278 0.930 . S
C1275 C1274 1.369 . S
C1275 C1284 1.429 . S
C1276 C1274 1.419 . S
C1276 C1277 1.363 . S
C1276 H1279 0.929 . S
C1277 C1276 1.363 . S
C1277 C1283 1.428 . S
H1278 C1274 0.930 . S
H1279 C1276 0.929 . S
S1280 N1281 1.613 . S
S1280 N1282 1.610 . S
N1281 S1280 1.613 . S
N1281 C1284 1.350 . S
N1282 S1280 1.610 . S
N1282 C1283 1.351 . S
C1283 C1277 1.428 . S
C1283 N1282 1.351 . S
C1283 C1284 1.434 . S
C1284 C1275 1.429 . S
C1284 N1281 1.350 . S
C1284 C1283 1.434 . S
C1285 C1286 1.369 . S
C1285 C1287 1.419 . S
C1285 H1289 0.930 . S
C1286 C1285 1.369 . S
C1286 C1295 1.429 . S
C1287 C1285 1.419 . S
C1287 C1288 1.363 . S
C1287 H1290 0.929 . S
C1288 C1287 1.363 . S
C1288 C1294 1.428 . S
H1289 C1285 0.930 . S
H1290 C1287 0.929 . S
S1291 N1292 1.613 . S
S1291 N1293 1.610 . S
N1292 S1291 1.613 . S
N1292 C1295 1.350 . S
N1293 S1291 1.610 . S
N1293 C1294 1.351 . S
C1294 C1288 1.428 . S
C1294 N1293 1.351 . S
C1294 C1295 1.434 . S
C1295 C1286 1.429 . S
C1295 N1292 1.350 . S
C1295 C1294 1.434 . S
C505 C35 1.377 . S
C507 C256 1.170 . S
C516 C7 1.388 . S
C518 C272 1.188 . S
C529 C255 1.178 . S
C527 C23 1.338 . S
C540 C280 1.165 . S
C538 C37 1.337 . S
C549 C9 1.360 . S
C551 C289 1.198 . S
C562 C292 1.186 . S
C560 C21 1.380 1_455 S
C571 C77 1.382 . S
C573 C298 1.184 . S
C584 C314 1.187 . S
C582 C49 1.387 . S
C595 C297 1.172 . S
C593 C65 1.342 . S
C604 C79 1.332 . S
C606 C322 1.152 . S
C617 C331 1.196 . S
C615 C51 1.355 . S
C628 C334 1.171 . S
C626 C63 1.374 . S
C639 C343 1.185 . S
C637 C119 1.382 . S
C650 C355 1.186 . S
C648 C91 1.387 . S
C661 C352 1.187 . S
C659 C107 1.342 . S
C670 C121 1.339 . S
C672 C361 1.155 . S
C683 C360 1.187 . S
C681 C93 1.354 . S
C692 C105 1.380 . S
C694 C377 1.186 . S
C705 C382 1.177 . S
C703 C161 1.380 . S
C716 C398 1.176 . S
C714 C133 1.383 . S
C725 C149 1.341 . S
C727 C381 1.172 . S
C738 C406 1.149 . S
C736 C163 1.336 . S
C749 C415 1.183 . S
C747 C135 1.360 . S
C758 C147 1.376 . S
C760 C418 1.177 . S
C769 C203 1.380 . S
C771 C427 1.178 . S
C782 C439 1.176 . S
C780 C175 1.383 . S
C793 C436 1.172 . S
C791 C191 1.340 . S
C802 C205 1.338 . S
C804 C445 1.163 . S
C815 C444 1.186 . S
C813 C177 1.355 . S
C824 C189 1.380 . S
C826 C461 1.186 . S
C837 C466 1.180 . S
C835 C245 1.381 . S
C848 C482 1.189 . S
C846 C217 1.388 . S
C857 C233 1.341 . S
C859 C465 1.187 . S
C870 C487 1.165 . S
C868 C247 1.335 . S
C881 C486 1.184 . S
C879 C219 1.361 . S
C892 C503 1.185 . S
C890 C231 1.379 . S
C903 C268 1.506 . S
C901 C162 1.598 . S
C912 C134 1.599 . S
C914 C271 1.495 . S
C925 C259 1.457 . S
C923 C143 1.573 . S
C934 C241 1.609 . S
C936 C276 1.502 . S
C945 C213 1.605 . S
C947 C277 1.493 . S
C958 C293 1.510 . S
C956 C232 1.609 . S
C969 C310 1.498 . S
C967 C204 1.610 1_545 S
C980 C313 1.493 . S
C978 C176 1.600 . S
C989 C185 1.575 . S
C991 C301 1.453 . S
C1002 C318 1.503 . S
C1000 C115 1.608 . S
C1011 C87 1.608 . S
C1013 C319 1.484 . S
C1022 C106 1.610 . S
C1024 C335 1.519 . S
C1033 C246 1.599 . S
C1035 C339 1.506 . S
C1044 C218 1.600 . S
C1046 C356 1.491 . S
C1057 C340 1.450 . S
C1055 C227 1.575 . S
C1068 C373 1.501 . S
C1066 C73 1.608 . S
C1079 C364 1.489 . S
C1077 C45 1.607 . S
C1088 C64 1.611 . S
C1090 C376 1.513 . S
C1101 C394 1.502 . S
C1099 C36 1.601 . S
C1112 C397 1.496 . S
C1110 C8 1.597 . S
C1121 C17 1.576 . S
C1123 C385 1.449 . S
C1134 C402 1.505 . S
C1132 C199 1.607 . S
C1145 C403 1.483 . S
C1143 C171 1.608 . S
C1156 C419 1.518 . S
C1154 C190 1.610 . S
C1167 C423 1.505 . S
C1165 C78 1.600 . S
C1178 C440 1.496 . S
C1176 C50 1.597 . S
C1187 C59 1.575 . S
C1189 C424 1.450 . S
C1198 C157 1.609 . S
C1200 C457 1.501 . S
C1209 C129 1.606 . S
C1211 C448 1.487 . S
C1222 C460 1.510 . S
C1220 C148 1.610 . S
C1231 C120 1.601 . S
C1233 C478 1.498 . S
C1242 C92 1.596 . S
C1244 C481 1.494 . S
C1255 C469 1.452 . S
C1253 C101 1.574 . S
C1266 C499 1.509 . S
C1264 C31 1.606 . S
C1277 C490 1.486 . S
C1275 C3 1.608 . S
C1286 C22 1.612 . S
C1288 C502 1.513 . S
