# Generated by pormake.
# Topology cml, (3,6)-cn, num edge types: 1
# Building blocks:
#     Node 0, Type 0, BuildingBlock: OLANEW_clean_sbu_2, # of connection points: 3
#     Node 1, Type 0, BuildingBlock: OLANEW_clean_sbu_2, # of connection points: 3
#     Node 2, Type 0, BuildingBlock: OLANEW_clean_sbu_2, # of connection points: 3
#     Node 3, Type 0, BuildingBlock: OLANEW_clean_sbu_2, # of connection points: 3
#     Node 4, Type 0, BuildingBlock: OLANEW_clean_sbu_2, # of connection points: 3
#     Node 5, Type 0, BuildingBlock: OLANEW_clean_sbu_2, # of connection points: 3
#     Node 6, Type 0, BuildingBlock: OLANEW_clean_sbu_2, # of connection points: 3
#     Node 7, Type 0, BuildingBlock: OLANEW_clean_sbu_2, # of connection points: 3
#     Node 8, Type 1, BuildingBlock: OJICUG_clean_sbu_0, # of connection points: 6
#     Node 9, Type 1, BuildingBlock: OJICUG_clean_sbu_0, # of connection points: 6
#     Node 10, Type 1, BuildingBlock: OJICUG_clean_sbu_0, # of connection points: 6
#     Node 11, Type 1, BuildingBlock: OJICUG_clean_sbu_0, # of connection points: 6
#     Edge 12, Type (0, 1), BuildingBlock: KIFKEQ_clean_linker_1, # of connection points: 2
#     Edge 13, Type (0, 1), BuildingBlock: KIFKEQ_clean_linker_1, # of connection points: 2
#     Edge 14, Type (0, 1), BuildingBlock: KIFKEQ_clean_linker_1, # of connection points: 2
#     Edge 15, Type (0, 1), BuildingBlock: KIFKEQ_clean_linker_1, # of connection points: 2
#     Edge 16, Type (0, 1), BuildingBlock: KIFKEQ_clean_linker_1, # of connection points: 2
#     Edge 17, Type (0, 1), BuildingBlock: KIFKEQ_clean_linker_1, # of connection points: 2
#     Edge 18, Type (0, 1), BuildingBlock: KIFKEQ_clean_linker_1, # of connection points: 2
#     Edge 19, Type (0, 1), BuildingBlock: KIFKEQ_clean_linker_1, # of connection points: 2
#     Edge 20, Type (0, 1), BuildingBlock: KIFKEQ_clean_linker_1, # of connection points: 2
#     Edge 21, Type (0, 1), BuildingBlock: KIFKEQ_clean_linker_1, # of connection points: 2
#     Edge 22, Type (0, 1), BuildingBlock: KIFKEQ_clean_linker_1, # of connection points: 2
#     Edge 23, Type (0, 1), BuildingBlock: KIFKEQ_clean_linker_1, # of connection points: 2
#     Edge 24, Type (0, 1), BuildingBlock: KIFKEQ_clean_linker_1, # of connection points: 2
#     Edge 25, Type (0, 1), BuildingBlock: KIFKEQ_clean_linker_1, # of connection points: 2
#     Edge 26, Type (0, 1), BuildingBlock: KIFKEQ_clean_linker_1, # of connection points: 2
#     Edge 27, Type (0, 1), BuildingBlock: KIFKEQ_clean_linker_1, # of connection points: 2
#     Edge 28, Type (0, 1), BuildingBlock: KIFKEQ_clean_linker_1, # of connection points: 2
#     Edge 29, Type (0, 1), BuildingBlock: KIFKEQ_clean_linker_1, # of connection points: 2
#     Edge 30, Type (0, 1), BuildingBlock: KIFKEQ_clean_linker_1, # of connection points: 2
#     Edge 31, Type (0, 1), BuildingBlock: KIFKEQ_clean_linker_1, # of connection points: 2
#     Edge 32, Type (0, 1), BuildingBlock: KIFKEQ_clean_linker_1, # of connection points: 2
#     Edge 33, Type (0, 1), BuildingBlock: KIFKEQ_clean_linker_1, # of connection points: 2
#     Edge 34, Type (0, 1), BuildingBlock: KIFKEQ_clean_linker_1, # of connection points: 2
#     Edge 35, Type (0, 1), BuildingBlock: KIFKEQ_clean_linker_1, # of connection points: 2
# Relax obj value: 0.021
# Max RMSD: 0.072
# Mean RMSD: 0.061
data_MOF--net-cml--node1-OLANEW_clean_sbu_2--node2-OJICUG_clean_sbu_0--edge1-KIFKEQ_clean_linker_1
_symmetry_space_group_name_H-M    P1
_symmetry_Int_Tables_number       1
_symmetry_cell_setting            triclinic
loop_
_symmetry_equiv_pos_as_xyz
'x, y, z'
_cell_length_a     43.627453
_cell_length_b     42.349399
_cell_length_c     39.89659
_cell_angle_alpha  87.947862
_cell_angle_beta   87.703653
_cell_angle_gamma 88.508754
loop_
_atom_site_label
_atom_site_type_symbol
_atom_site_fract_x
_atom_site_fract_y
_atom_site_fract_z
_atom_type_partial_charge
O0 O 0.30489 0.41493 0.94051 0.0
Cd1 Cd 0.27398 0.37714 0.97535 0.0
O2 O 0.34687 0.3851 0.9431 0.0
Cd3 Cd 0.32816 0.34993 0.97912 0.0
O4 O 0.33766 0.32855 0.02837 0.0
C5 C 0.32694 0.34164 0.05467 0.0
O6 O 0.30785 0.36598 0.05145 0.0
C7 C 0.33318 0.41021 0.93263 0.0
C8 C 0.23065 0.3409 0.94462 0.0
O9 O 0.22414 0.36917 0.95351 0.0
O10 O 0.25797 0.3301 0.94911 0.0
O11 O 0.70861 0.64892 0.5116 0.0
Cd12 Cd 0.72368 0.64436 0.45215 0.0
O13 O 0.719 0.5988 0.52364 0.0
Cd14 Cd 0.72753 0.58603 0.47161 0.0
O15 O 0.70333 0.55557 0.43916 0.0
C16 C 0.67776 0.5473 0.45266 0.0
O17 O 0.66954 0.55822 0.4822 0.0
C18 C 0.71002 0.626 0.53301 0.0
C19 C 0.77619 0.67788 0.4335 0.0
O20 O 0.74954 0.69136 0.43363 0.0
O21 O 0.77805 0.64851 0.44234 0.0
O22 O 0.72363 0.40995 0.95983 0.0
Cd23 Cd 0.75341 0.37314 -0.00463 0.0
O24 O 0.73282 0.44901 -0.00736 0.0
Cd25 Cd 0.74735 0.41697 0.0334 0.0
O26 O 0.72677 0.38867 0.07485 0.0
C27 C 0.70094 0.37763 0.06832 0.0
O28 O 0.69089 0.38228 0.03787 0.0
C29 C 0.72177 0.43927 0.96594 0.0
C30 C 0.79704 0.33576 0.96116 0.0
O31 O 0.80169 0.36501 0.96571 0.0
O32 O 0.77158 0.32419 0.97222 0.0
O33 O 0.29112 0.55793 0.45673 0.0
Cd34 Cd 0.27329 0.60315 0.48965 0.0
O35 O 0.28873 0.52546 0.50099 0.0
Cd36 Cd 0.27637 0.56183 0.53662 0.0
O37 O 0.29635 0.58458 0.57836 0.0
C38 C 0.31771 0.60393 0.57173 0.0
O39 O 0.32454 0.61174 0.54018 0.0
C40 C 0.29471 0.5303 0.46981 0.0
C41 C 0.2252 0.63945 0.46301 0.0
O42 O 0.25317 0.64454 0.45375 0.0
O43 O 0.21991 0.61673 0.48438 0.0
O44 O 0.78416 0.93324 0.91515 0.0
Cd45 Cd 0.75204 0.89354 0.94555 0.0
O46 O 0.80822 0.92162 0.96076 0.0
Cd47 Cd 0.84248 0.91863 -0.00086 0.0
O48 O 0.86503 0.90628 0.04564 0.0
C49 C 0.88359 0.92474 0.0582 0.0
O50 O 0.88985 0.95168 0.04235 0.0
C51 C 0.80669 0.93797 0.93346 0.0
C52 C 0.71221 0.85468 0.91376 0.0
O53 O 0.70255 0.88067 0.92648 0.0
O54 O 0.74102 0.84794 0.91437 0.0
O55 O 0.20993 0.13114 0.53864 0.0
Cd56 Cd 0.229 0.11062 0.48477 0.0
O57 O 0.24378 0.10645 0.57022 0.0
Cd58 Cd 0.25944 0.07855 0.52785 0.0
O59 O 0.23962 0.04228 0.49865 0.0
C60 C 0.21775 0.02818 0.51438 0.0
O61 O 0.21088 0.03565 0.54553 0.0
C62 C 0.22099 0.12557 0.56735 0.0
C63 C 0.27857 0.14362 0.45608 0.0
O64 O 0.2509 0.15357 0.4522 0.0
O65 O 0.28288 0.11811 0.47369 0.0
O66 O 0.23466 0.91376 0.94334 0.0
Cd67 Cd 0.26456 0.87302 0.97368 0.0
O68 O 0.22245 0.9349 -0.0082 0.0
Cd69 Cd 0.24317 0.8993 0.02525 0.0
O70 O 0.23274 0.87992 0.07561 0.0
C71 C 0.22442 0.90094 0.09624 0.0
O72 O 0.22553 0.93078 0.08611 0.0
C73 C 0.22102 0.93539 0.96002 0.0
C74 C 0.30507 0.83575 0.93523 0.0
O75 O 0.27766 0.82686 0.94252 0.0
O76 O 0.31299 0.86264 0.94534 0.0
O77 O 0.81022 0.09198 0.46518 0.0
Cd78 Cd 0.77999 0.13222 0.49568 0.0
O79 O 0.80039 0.05583 0.50487 0.0
Cd80 Cd 0.78382 0.09007 0.54136 0.0
O81 O 0.80054 0.11205 0.58559 0.0
C82 C 0.82211 0.13159 0.58135 0.0
O83 O 0.83117 0.14 0.55058 0.0
C84 C 0.81221 0.06342 0.47614 0.0
C85 C 0.73203 0.16107 0.46039 0.0
O86 O 0.75848 0.17357 0.46038 0.0
O87 O 0.72841 0.13462 0.47652 0.0
Sc88 Sc 0.02133 0.8176 0.31975 0.0
Sc89 Sc 0.02693 0.89947 0.33025 0.0
Sc90 Sc 0.01424 0.84882 0.40085 0.0
O91 O 0.02078 0.85524 0.35026 0.0
C92 C 0.96701 0.80064 0.37328 0.0
C93 C 0.98594 0.86938 0.27531 0.0
C94 C 0.97379 0.91172 0.38548 0.0
C95 C 0.07585 0.85929 0.28733 0.0
C96 C 0.05827 0.78978 0.38216 0.0
C97 C 0.06488 0.90163 0.39704 0.0
O98 O 0.98136 0.79723 0.34517 0.0
O99 O 0.99766 0.89244 0.28928 0.0
O100 O 0.98165 0.88819 0.4043 0.0
O101 O 0.06127 0.83364 0.29072 0.0
O102 O 0.04597 0.80876 0.40308 0.0
O103 O 0.05733 0.91229 0.36831 0.0
O104 O 0.05191 0.79053 0.35131 0.0
O105 O 0.06683 0.88469 0.30108 0.0
O106 O 0.05197 0.87816 0.41185 0.0
O107 O 0.9913 0.84073 0.28431 0.0
O108 O 0.9759 0.81882 0.39542 0.0
O109 O 0.98748 0.91834 0.35749 0.0
Sc110 Sc 0.02019 0.19145 0.80218 0.0
Sc111 Sc 0.02303 0.10807 0.80105 0.0
Sc112 Sc 0.01899 0.14582 0.87823 0.0
O113 O 0.02074 0.14849 0.82717 0.0
C114 C 0.06395 0.20407 0.86228 0.0
C115 C 0.06895 0.15198 0.75739 0.0
C116 C 0.06774 0.09062 0.86077 0.0
C117 C 0.97649 0.15157 0.75841 0.0
C118 C 0.97181 0.20286 0.86319 0.0
C119 C 0.97551 0.08903 0.86076 0.0
O120 O 0.05468 0.20977 0.83281 0.0
O121 O 0.05945 0.12519 0.76801 0.0
O122 O 0.05638 0.11147 0.88018 0.0
O123 O 0.98537 0.17772 0.76888 0.0
O124 O 0.98133 0.1797 0.88143 0.0
O125 O 0.98701 0.08628 0.83122 0.0
O126 O 0.98402 0.21047 0.83466 0.0
O127 O 0.98839 0.12505 0.76748 0.0
O128 O 0.98485 0.10915 0.8808 0.0
O129 O 0.05664 0.17792 0.76678 0.0
O130 O 0.05294 0.18221 0.88164 0.0
O131 O 0.05771 0.08635 0.83184 0.0
Sc132 Sc 0.50395 0.28781 0.3016 0.0
Sc133 Sc 0.49576 0.37118 0.29878 0.0
Sc134 Sc 0.49721 0.32973 0.37649 0.0
O135 O 0.49902 0.32954 0.32557 0.0
C136 C 0.45694 0.26998 0.36225 0.0
C137 C 0.45523 0.32656 0.25681 0.0
C138 C 0.44699 0.38307 0.35923 0.0
C139 C 0.54626 0.33267 0.25499 0.0
C140 C 0.54912 0.27676 0.36255 0.0
C141 C 0.53855 0.38966 0.35733 0.0
O142 O 0.46827 0.2657 0.33281 0.0
O143 O 0.46156 0.35345 0.26754 0.0
O144 O 0.45751 0.36107 0.37832 0.0
O145 O 0.54006 0.30545 0.26765 0.0
O146 O 0.53667 0.29833 0.38023 0.0
O147 O 0.52985 0.39309 0.32733 0.0
O148 O 0.5393 0.26969 0.33422 0.0
O149 O 0.53164 0.35769 0.26336 0.0
O150 O 0.52806 0.36851 0.3778 0.0
O151 O 0.46921 0.30112 0.26603 0.0
O152 O 0.46586 0.29143 0.3808 0.0
O153 O 0.45911 0.39013 0.33054 0.0
Sc154 Sc 0.52095 0.67793 0.77997 0.0
Sc155 Sc 0.52857 0.59498 0.784 0.0
Sc156 Sc 0.51883 0.63682 0.85863 0.0
O157 O 0.52279 0.63658 0.80759 0.0
C158 C 0.56246 0.6956 0.83996 0.0
C159 C 0.57231 0.6389 0.73817 0.0
C160 C 0.57083 0.5831 0.84701 0.0
C161 C 0.48045 0.63347 0.73822 0.0
C162 C 0.47089 0.69165 0.83906 0.0
C163 C 0.47944 0.57655 0.84262 0.0
O164 O 0.55471 0.69852 0.80959 0.0
O165 O 0.56526 0.61215 0.75122 0.0
O166 O 0.55709 0.60399 0.86465 0.0
O167 O 0.48703 0.66063 0.74804 0.0
O168 O 0.48013 0.66944 0.8587 0.0
O169 O 0.49281 0.57272 0.81412 0.0
O170 O 0.48397 0.69784 0.81064 0.0
O171 O 0.49423 0.60815 0.74815 0.0
O172 O 0.48628 0.59857 0.86177 0.0
O173 O 0.55764 0.66427 0.74515 0.0
O174 O 0.55078 0.67534 0.86089 0.0
O175 O 0.5631 0.57726 0.8175 0.0
H176 H 0.23362 0.27711 0.93522 0.0
H177 H 0.17374 0.3593 0.92366 0.0
H178 H 0.19352 0.24386 0.9155 0.0
H179 H 0.13378 0.32604 0.90386 0.0
H180 H 0.08384 0.26055 0.83523 0.0
H181 H 0.12439 0.2932 0.85437 0.0
H182 H 0.14087 0.22564 0.93563 0.0
H183 H 0.10014 0.19276 0.91654 0.0
C184 C 0.21199 0.28813 0.92828 0.0
C185 C 0.20692 0.3209 0.93097 0.0
C186 C 0.18894 0.26902 0.91723 0.0
C187 C 0.16044 0.28229 0.9082 0.0
C188 C 0.15556 0.31513 0.91039 0.0
C189 C 0.17845 0.33417 0.92183 0.0
C190 C 0.09606 0.25255 0.85719 0.0
C191 C 0.08862 0.22396 0.87435 0.0
C192 C 0.11922 0.27141 0.86825 0.0
C193 C 0.13584 0.26204 0.89652 0.0
C194 C 0.12863 0.23338 0.91359 0.0
C195 C 0.10515 0.21465 0.90278 0.0
H196 H 0.78086 0.74174 0.42373 0.0
H197 H 0.83432 0.65447 0.42052 0.0
H198 H 0.82677 0.77137 0.40789 0.0
H199 H 0.88023 0.68423 0.40455 0.0
H200 H 0.94713 0.74879 0.34182 0.0
H201 H 0.90073 0.71894 0.35542 0.0
H202 H 0.87651 0.78214 0.43532 0.0
H203 H 0.92269 0.81192 0.42195 0.0
C204 C 0.80238 0.72887 0.41957 0.0
C205 C 0.80398 0.69576 0.42348 0.0
C206 C 0.82867 0.74586 0.41062 0.0
C207 C 0.85704 0.73009 0.40502 0.0
C208 C 0.85859 0.69696 0.40845 0.0
C209 C 0.83236 0.67997 0.41779 0.0
C210 C 0.93186 0.75637 0.36222 0.0
C211 C 0.93868 0.78271 0.38083 0.0
C212 C 0.90541 0.73918 0.3701 0.0
C213 C 0.88504 0.74826 0.3964 0.0
C214 C 0.89167 0.77477 0.41473 0.0
C215 C 0.91824 0.79169 0.40717 0.0
H216 H 0.83602 0.35205 0.90882 0.0
H217 H 0.81197 0.27454 0.97696 0.0
H218 H 0.87631 0.31945 0.88263 0.0
H219 H 0.85396 0.24261 0.95332 0.0
H220 H 0.91816 0.18172 0.89144 0.0
H221 H 0.87427 0.21308 0.91196 0.0
H222 H 0.92394 0.29857 0.88676 0.0
H223 H 0.9663 0.26684 0.86345 0.0
C224 C 0.83966 0.32802 0.91835 0.0
C225 C 0.82092 0.31571 0.94476 0.0
C226 C 0.86304 0.30931 0.90363 0.0
C227 C 0.86899 0.27815 0.91581 0.0
C228 C 0.84998 0.26605 0.94243 0.0
C229 C 0.82594 0.28443 0.95631 0.0
C230 C 0.91938 0.20727 0.89016 0.0
C231 C 0.94543 0.22196 0.87588 0.0
C232 C 0.89433 0.22539 0.90224 0.0
C233 C 0.8952 0.2587 0.90142 0.0
C234 C 0.92169 0.27318 0.88724 0.0
C235 C 0.94625 0.25503 0.87411 0.0
H236 H 0.22809 0.68387 0.41168 0.0
H237 H 0.16514 0.64143 0.4855 0.0
H238 H 0.18691 0.7191 0.39206 0.0
H239 H 0.12396 0.67677 0.46579 0.0
H240 H 0.07194 0.77293 0.44702 0.0
H241 H 0.11157 0.73537 0.46598 0.0
H242 H 0.13715 0.71587 0.363 0.0
H243 H 0.0977 0.75335 0.34391 0.0
C244 C 0.20544 0.68195 0.42361 0.0
C245 C 0.19989 0.65985 0.45015 0.0
C246 C 0.18183 0.70204 0.41227 0.0
C247 C 0.15224 0.70071 0.42743 0.0
C248 C 0.14662 0.67851 0.45384 0.0
C249 C 0.17016 0.65816 0.46496 0.0
C250 C 0.08593 0.76058 0.4284 0.0
C251 C 0.08162 0.76624 0.39393 0.0
C252 C 0.10851 0.73894 0.43929 0.0
C253 C 0.12747 0.72274 0.41596 0.0
C254 C 0.12306 0.72823 0.38154 0.0
C255 C 0.10031 0.74959 0.37065 0.0
H256 H 0.72529 0.804 0.87449 0.0
H257 H 0.65008 0.85374 0.92491 0.0
H258 H 0.68973 0.76456 0.85697 0.0
H259 H 0.61472 0.81402 0.90778 0.0
H260 H 0.571 0.71505 0.90373 0.0
H261 H 0.60753 0.7538 0.92096 0.0
H262 H 0.64309 0.76394 0.81875 0.0
H263 H 0.60649 0.72569 0.80139 0.0
C264 C 0.70118 0.80661 0.88167 0.0
C265 C 0.69049 0.83206 0.90098 0.0
C266 C 0.68085 0.78404 0.87165 0.0
C267 C 0.64954 0.78613 0.88125 0.0
C268 C 0.63881 0.81166 0.90035 0.0
C269 C 0.65902 0.83453 0.90987 0.0
C270 C 0.58676 0.72539 0.88501 0.0
C271 C 0.58577 0.71738 0.85119 0.0
C272 C 0.60749 0.7477 0.89482 0.0
C273 C 0.62803 0.76193 0.87114 0.0
C274 C 0.62761 0.75326 0.83754 0.0
C275 C 0.60655 0.73146 0.82762 0.0
H276 H 0.33802 0.12267 0.44674 0.0
H277 H 0.27824 0.20435 0.43091 0.0
H278 H 0.38143 0.15237 0.42243 0.0
H279 H 0.32169 0.23401 0.4071 0.0
H280 H 0.41458 0.28425 0.41167 0.0
H281 H 0.3715 0.25292 0.43285 0.0
H282 H 0.39774 0.17977 0.364 0.0
H283 H 0.44098 0.21139 0.34224 0.0
C284 C 0.33415 0.14692 0.43806 0.0
C285 C 0.30475 0.16123 0.44084 0.0
C286 C 0.35893 0.1638 0.42399 0.0
C287 C 0.35485 0.19544 0.41299 0.0
C288 C 0.32545 0.20968 0.4156 0.0
C289 C 0.3006 0.19268 0.42912 0.0
C290 C 0.41133 0.26144 0.40105 0.0
C291 C 0.43127 0.25026 0.37529 0.0
C292 C 0.38652 0.24364 0.41306 0.0
C293 C 0.3813 0.21403 0.39997 0.0
C294 C 0.40138 0.20252 0.37455 0.0
C295 C 0.426 0.22064 0.36206 0.0
H296 H 0.29886 0.77367 0.92074 0.0
H297 H 0.36201 0.85062 0.9093 0.0
H298 H 0.33738 0.73828 0.89493 0.0
H299 H 0.40041 0.8152 0.88351 0.0
H300 H 0.4517 0.74862 0.81159 0.0
H301 H 0.40997 0.78326 0.83194 0.0
H302 H 0.38853 0.71542 0.91226 0.0
H303 H 0.43019 0.68066 0.89202 0.0
C304 C 0.32083 0.78312 0.91242 0.0
C305 C 0.32742 0.81493 0.91716 0.0
C306 C 0.34292 0.7628 0.89783 0.0
C307 C 0.37191 0.77396 0.88732 0.0
C308 C 0.37817 0.80599 0.89112 0.0
C309 C 0.35622 0.82623 0.90603 0.0
C310 C 0.43797 0.74092 0.83344 0.0
C311 C 0.44443 0.71188 0.85026 0.0
C312 C 0.41417 0.76087 0.84517 0.0
C313 C 0.39606 0.75208 0.87372 0.0
C314 C 0.40195 0.72271 0.89002 0.0
C315 C 0.42595 0.7029 0.87853 0.0
H316 H 0.72871 0.22217 0.43614 0.0
H317 H 0.67667 0.1367 0.44639 0.0
H318 H 0.68493 0.24981 0.41109 0.0
H319 H 0.63298 0.1644 0.42105 0.0
H320 H 0.57366 0.2197 0.34295 0.0
H321 H 0.61855 0.19124 0.36486 0.0
H322 H 0.63136 0.26622 0.43304 0.0
H323 H 0.58654 0.29459 0.41147 0.0
C324 C 0.70803 0.2092 0.43279 0.0
C325 C 0.70613 0.17726 0.44335 0.0
C326 C 0.68293 0.22509 0.41862 0.0
C327 C 0.65553 0.20927 0.41424 0.0
C328 C 0.65388 0.17712 0.42394 0.0
C329 C 0.67884 0.16133 0.43858 0.0
C330 C 0.58608 0.23014 0.36257 0.0
C331 C 0.57644 0.2594 0.37549 0.0
C332 C 0.61167 0.21376 0.3752 0.0
C333 C 0.62846 0.22656 0.40058 0.0
C334 C 0.61903 0.25592 0.41325 0.0
C335 C 0.59321 0.27205 0.40103 0.0
H336 H 0.31887 0.47351 0.92457 0.0
H337 H 0.38923 0.40333 0.90065 0.0
H338 H 0.35234 0.51513 0.90132 0.0
H339 H 0.42241 0.44471 0.87754 0.0
H340 H 0.46377 0.52306 0.81167 0.0
H341 H 0.42609 0.48433 0.83028 0.0
H342 H 0.40252 0.53878 0.91742 0.0
H343 H 0.4404 0.578 0.89876 0.0
C344 C 0.34121 0.4669 0.91384 0.0
C345 C 0.35135 0.43507 0.91444 0.0
C346 C 0.36049 0.49077 0.90086 0.0
C347 C 0.39008 0.48324 0.88774 0.0
C348 C 0.39968 0.45131 0.88722 0.0
C349 C 0.38065 0.42757 0.90054 0.0
C350 C 0.45054 0.52703 0.83476 0.0
C351 C 0.4554 0.5537 0.85382 0.0
C352 C 0.42896 0.50467 0.84545 0.0
C353 C 0.4114 0.50837 0.87538 0.0
C354 C 0.41555 0.53539 0.89409 0.0
C355 C 0.43742 0.55774 0.88351 0.0
H356 H 0.62384 0.52381 0.47775 0.0
H357 H 0.68683 0.5199 0.39146 0.0
H358 H 0.59175 0.48552 0.45317 0.0
H359 H 0.6545 0.48105 0.36686 0.0
H360 H 0.56714 0.43841 0.32224 0.0
H361 H 0.60185 0.47655 0.34382 0.0
H362 H 0.59605 0.4288 0.44123 0.0
H363 H 0.56131 0.391 0.42007 0.0
C364 C 0.63087 0.51479 0.45349 0.0
C365 C 0.658 0.52481 0.43664 0.0
C366 C 0.61253 0.49267 0.43951 0.0
C367 C 0.62077 0.48004 0.40826 0.0
C368 C 0.64755 0.49048 0.39095 0.0
C369 C 0.66608 0.51261 0.40508 0.0
C370 C 0.57338 0.43594 0.34822 0.0
C371 C 0.56114 0.41176 0.36947 0.0
C372 C 0.59339 0.45771 0.3605 0.0
C373 C 0.6014 0.45582 0.39428 0.0
C374 C 0.58986 0.43117 0.41522 0.0
C375 C 0.57002 0.40941 0.40299 0.0
H376 H 0.6861 0.42564 0.91361 0.0
H377 H 0.71779 0.50363 0.9688 0.0
H378 H 0.6522 0.4618 0.88277 0.0
H379 H 0.68456 0.53987 0.93736 0.0
H380 H 0.5911 0.5844 0.91103 0.0
H381 H 0.6304 0.55086 0.93652 0.0
H382 H 0.6481 0.50525 0.84229 0.0
H383 H 0.60815 0.53832 0.81687 0.0
C384 C 0.68629 0.45058 0.91871 0.0
C385 C 0.70445 0.46166 0.94392 0.0
C386 C 0.66691 0.47137 0.90092 0.0
C387 C 0.66536 0.50374 0.90783 0.0
C388 C 0.68466 0.515 0.9319 0.0
C389 C 0.7039 0.49422 0.94978 0.0
C390 C 0.60346 0.56739 0.8956 0.0
C391 C 0.59625 0.56402 0.8619 0.0
C392 C 0.62621 0.54825 0.9102 0.0
C393 C 0.64247 0.52531 0.89148 0.0
C394 C 0.63575 0.52238 0.85757 0.0
C395 C 0.61291 0.54148 0.84296 0.0
H396 H 0.30644 0.52908 0.40168 0.0
H397 H 0.318 0.47406 0.49379 0.0
H398 H 0.33832 0.49052 0.37135 0.0
H399 H 0.35101 0.43676 0.46424 0.0
H400 H 0.40161 0.36475 0.40435 0.0
H401 H 0.35897 0.39684 0.42681 0.0
H402 H 0.39021 0.47678 0.36526 0.0
H403 H 0.43159 0.44405 0.34152 0.0
C404 C 0.31553 0.50861 0.41538 0.0
C405 C 0.30982 0.50479 0.45018 0.0
C406 C 0.33409 0.48662 0.39808 0.0
C407 C 0.34776 0.4606 0.4153 0.0
C408 C 0.3407 0.45611 0.44983 0.0
C409 C 0.3218 0.47774 0.46695 0.0
C410 C 0.3991 0.38912 0.39544 0.0
C411 C 0.42008 0.40197 0.37141 0.0
C412 C 0.37473 0.40762 0.40841 0.0
C413 C 0.37115 0.43967 0.39824 0.0
C414 C 0.39174 0.45216 0.37342 0.0
C415 C 0.41572 0.43345 0.35995 0.0
H416 H 0.82073 0.96162 0.87021 0.0
H417 H 0.84543 0.9686 0.97329 0.0
H418 H 0.86012 -0.00064 0.8529 0.0
H419 H 0.88594 0.00461 0.95597 0.0
H420 H 0.93817 0.09158 0.91797 0.0
H421 H 0.89631 0.0567 0.93524 0.0
H422 H 0.91429 0.00271 0.84639 0.0
H423 H 0.95527 0.03795 0.8287 0.0
C424 C 0.83477 0.97093 0.88916 0.0
C425 C 0.83045 0.96128 0.92305 0.0
C426 C 0.85756 0.99241 0.87922 0.0
C427 C 0.87662 0.00485 0.90294 0.0
C428 C 0.87176 -0.00431 0.93694 0.0
C429 C 0.84888 0.97437 0.94685 0.0
C430 C 0.93317 0.07227 0.90213 0.0
C431 C 0.95018 0.06769 0.87192 0.0
C432 C 0.90921 0.05214 0.9121 0.0
C433 C 0.90175 0.0268 0.89222 0.0
C434 C 0.91887 0.02224 0.86209 0.0
C435 C 0.94263 0.04242 0.85204 0.0
H436 H 0.16892 -0.00405 0.54137 0.0
H437 H 0.22293 0.00999 0.44908 0.0
H438 H 0.13422 0.96305 0.5127 0.0
H439 H 0.18844 0.97632 0.42048 0.0
H440 H 0.09679 0.95334 0.37416 0.0
H441 H 0.13602 0.98076 0.40237 0.0
H442 H 0.12922 0.91313 0.48585 0.0
H443 H 0.08934 0.88593 0.45794 0.0
C444 C 0.17365 0.99167 0.51504 0.0
C445 C 0.19857 0.0058 0.49744 0.0
C446 C 0.15382 0.9726 0.49865 0.0
C447 C 0.15847 0.96715 0.46427 0.0
C448 C 0.18399 0.98045 0.44689 0.0
C449 C 0.20384 -0.00042 0.46331 0.0
C450 C 0.10367 0.94417 0.39848 0.0
C451 C 0.08966 0.91751 0.41386 0.0
C452 C 0.1264 0.95978 0.41454 0.0
C453 C 0.13579 0.94914 0.44636 0.0
C454 C 0.12224 0.92215 0.46151 0.0
C455 C 0.09943 0.90651 0.44545 0.0
H456 H 0.18426 0.97972 -0.00984 0.0
H457 H 0.21413 0.9474 0.89236 0.0
H458 H 0.14988 0.01817 0.96432 0.0
H459 H 0.18024 0.98716 0.86612 0.0
H460 H 0.08745 0.03362 0.8366 0.0
H461 H 0.12702 -0.00204 0.85863 0.0
H462 H 0.14648 0.06589 0.93281 0.0
H463 H 0.10603 0.1009 0.91165 0.0
C464 C 0.18387 0.98114 0.96302 0.0
C465 C 0.20195 0.96034 0.94335 0.0
C466 C 0.16422 0.00348 0.94813 0.0
C467 C 0.16226 0.00598 0.91306 0.0
C468 C 0.18085 0.98565 0.89323 0.0
C469 C 0.20043 0.96299 0.90823 0.0
C470 C 0.1003 0.04101 0.8575 0.0
C471 C 0.0933 0.06995 0.87264 0.0
C472 C 0.12319 0.02063 0.87 0.0
C473 C 0.13987 0.02884 0.89772 0.0
C474 C 0.13365 0.05839 0.91195 0.0
C475 C 0.1105 0.07857 0.89974 0.0
H476 H 0.81415 -0.00061 0.48717 0.0
H477 H 0.85378 0.07387 0.42397 0.0
H478 H 0.85053 0.96133 0.46271 0.0
H479 H 0.89092 0.03606 0.40034 0.0
H480 H 0.94299 0.95692 0.34822 0.0
H481 H 0.9007 0.9916 0.36657 0.0
H482 H 0.90363 0.94886 0.46645 0.0
H483 H 0.94518 0.91347 0.44782 0.0
C484 C 0.83047 0.0076 0.46783 0.0
C485 C 0.83118 0.03972 0.45768 0.0
C486 C 0.85154 0.98581 0.454 0.0
C487 C 0.87406 -0.00437 0.42992 0.0
C488 C 0.8738 0.02752 0.41863 0.0
C489 C 0.85251 0.04928 0.43224 0.0
C490 C 0.93456 0.95483 0.37409 0.0
C491 C 0.94763 0.93245 0.39658 0.0
C492 C 0.91033 0.97484 0.38465 0.0
C493 C 0.89868 0.97315 0.41802 0.0
C494 C 0.91157 0.95052 0.4404 0.0
C495 C 0.93562 0.93033 0.42978 0.0
H496 H 0.30988 0.36536 0.11567 0.0
H497 H 0.37357 0.29923 0.0684 0.0
H498 H 0.33636 0.35785 0.16811 0.0
H499 H 0.40051 0.29238 0.1205 0.0
H500 H 0.43654 0.2748 0.22398 0.0
H501 H 0.40064 0.27403 0.17864 0.0
H502 H 0.38512 0.37479 0.1858 0.0
H503 H 0.42018 0.37551 0.23136 0.0
C504 C 0.32929 0.34892 0.11655 0.0
C505 C 0.33984 0.33322 0.08771 0.0
C506 C 0.34459 0.34476 0.14658 0.0
C507 C 0.37087 0.32489 0.14841 0.0
C508 C 0.38025 0.30771 0.12011 0.0
C509 C 0.36487 0.31177 0.09012 0.0
C510 C 0.42517 0.29672 0.21616 0.0
C511 C 0.43152 0.32526 0.23122 0.0
C512 C 0.40469 0.29629 0.19005 0.0
C513 C 0.39004 0.32435 0.17847 0.0
C514 C 0.3956 0.35263 0.19434 0.0
C515 C 0.416 0.35308 0.22037 0.0
H516 H 0.69618 0.68102 0.56528 0.0
H517 H 0.69462 0.57942 0.57894 0.0
H518 H 0.66838 0.6866 0.61911 0.0
H519 H 0.66555 0.58478 0.6314 0.0
H520 H 0.62183 0.59849 0.73193 0.0
H521 H 0.66134 0.59805 0.68706 0.0
H522 H 0.61837 0.68084 0.64053 0.0
H523 H 0.58012 0.6822 0.68646 0.0
C524 C 0.69015 0.65989 0.57992 0.0
C525 C 0.69745 0.6298 0.56771 0.0
C526 C 0.67394 0.66305 0.61066 0.0
C527 C 0.6642 0.63617 0.62961 0.0
C528 C 0.6729 0.60612 0.618 0.0
C529 C 0.68951 0.60299 0.58763 0.0
C530 C 0.62113 0.6168 0.71228 0.0
C531 C 0.59773 0.6402 0.71254 0.0
C532 C 0.64369 0.61648 0.6864 0.0
C533 C 0.64298 0.63914 0.65971 0.0
C534 C 0.62011 0.66323 0.66074 0.0
C535 C 0.59794 0.66391 0.68701 0.0
H536 H 0.6411 0.3623 0.06385 0.0
H537 H 0.7142 0.36253 0.13388 0.0
H538 H 0.60501 0.34745 0.10948 0.0
H539 H 0.67773 0.34706 0.17962 0.0
H540 H 0.5964 0.2933 0.24262 0.0
H541 H 0.63599 0.29944 0.19727 0.0
H542 H 0.58963 0.38451 0.16135 0.0
H543 H 0.55076 0.37897 0.20645 0.0
C544 C 0.64964 0.35862 0.08884 0.0
C545 C 0.68048 0.36401 0.0953 0.0
C546 C 0.62892 0.35012 0.11493 0.0
C547 C 0.63864 0.34635 0.14795 0.0
C548 C 0.66979 0.34975 0.15426 0.0
C549 C 0.69055 0.35871 0.12815 0.0
C550 C 0.59477 0.31329 0.22501 0.0
C551 C 0.57051 0.33568 0.22812 0.0
C552 C 0.61741 0.31681 0.19925 0.0
C553 C 0.6156 0.34231 0.17585 0.0
C554 C 0.59134 0.36451 0.17895 0.0
C555 C 0.56921 0.36139 0.20491 0.0
H556 H 0.36476 0.64542 0.56642 0.0
H557 H 0.31672 0.58291 0.63736 0.0
H558 H 0.40267 0.65457 0.60813 0.0
H559 H 0.35458 0.59224 0.67901 0.0
H560 H 0.45179 0.58017 0.72068 0.0
H561 H 0.41008 0.57629 0.68239 0.0
H562 H 0.40979 0.67745 0.66447 0.0
H563 H 0.45172 0.6815 0.70272 0.0
C564 C 0.362 0.63403 0.59106 0.0
C565 C 0.33788 0.61321 0.59846 0.0
C566 C 0.38367 0.63937 0.61498 0.0
C567 C 0.38176 0.62381 0.64666 0.0
C568 C 0.35687 0.60414 0.65459 0.0
C569 C 0.33507 0.599 0.63079 0.0
C570 C 0.44292 0.60163 0.70859 0.0
C571 C 0.45521 0.63114 0.71472 0.0
C572 C 0.41881 0.59941 0.68689 0.0
C573 C 0.40658 0.62659 0.67061 0.0
C574 C 0.41887 0.6561 0.67659 0.0
C575 C 0.44282 0.65838 0.69856 0.0
H576 H 0.9263 0.95705 0.0906 0.0
H577 H 0.87196 0.87305 0.09932 0.0
H578 H 0.94884 0.94297 0.14413 0.0
H579 H 0.89393 0.8594 0.15328 0.0
H580 H 0.96755 0.82834 0.22886 0.0
H581 H 0.94177 0.84149 0.17691 0.0
H582 H 0.93543 0.93958 0.20331 0.0
H583 H 0.96179 0.92665 0.25474 0.0
C584 C 0.91905 0.93567 0.10401 0.0
C585 C 0.89737 0.91618 0.09067 0.0
C586 C 0.9318 0.9277 0.13483 0.0
C587 C 0.92306 0.90012 0.15309 0.0
C588 C 0.9014 0.88061 0.13971 0.0
C589 C 0.88871 0.88853 0.10883 0.0
C590 C 0.96033 0.85265 0.22378 0.0
C591 C 0.96701 0.87647 0.24584 0.0
C592 C 0.94549 0.86018 0.19401 0.0
C593 C 0.93687 0.89166 0.18576 0.0
C594 C 0.9424 0.91522 0.20852 0.0
C595 C 0.95734 0.90774 0.23815 0.0
H596 H 0.23312 0.11178 0.63315 0.0
H597 H 0.17139 0.16638 0.5703 0.0
H598 H 0.20005 0.12309 0.6822 0.0
H599 H 0.13822 0.17727 0.61929 0.0
H600 H 0.08963 0.20225 0.718 0.0
H601 H 0.13108 0.20178 0.67483 0.0
H602 H 0.14885 0.1027 0.69771 0.0
H603 H 0.10794 0.10312 0.74075 0.0
C604 C 0.21286 0.12673 0.62985 0.0
C605 C 0.20467 0.13776 0.5977 0.0
C606 C 0.19383 0.13305 0.65795 0.0
C607 C 0.16628 0.15063 0.65452 0.0
C608 C 0.15932 0.16373 0.62279 0.0
C609 C 0.1783 0.15734 0.59467 0.0
C610 C 0.10262 0.18047 0.71405 0.0
C611 C 0.09525 0.15265 0.73266 0.0
C612 C 0.12629 0.18021 0.68928 0.0
C613 C 0.14328 0.15224 0.68292 0.0
C614 C 0.13652 0.12476 0.70229 0.0
C615 C 0.11279 0.12494 0.72677 0.0
H616 H 0.19909 0.9408 0.14218 0.0
H617 H 0.21557 0.8416 0.12453 0.0
H618 H 0.16798 0.92735 0.19194 0.0
H619 H 0.18515 0.82797 0.17551 0.0
H620 H 0.09093 0.8215 0.23472 0.0
H621 H 0.13214 0.82901 0.19241 0.0
H622 H 0.1652 0.9066 0.24735 0.0
H623 H 0.12317 0.89992 0.28876 0.0
C624 C 0.19663 0.91605 0.14934 0.0
C625 C 0.20954 0.89228 0.12915 0.0
C626 C 0.17892 0.90829 0.17816 0.0
C627 C 0.17388 0.87652 0.1878 0.0
C628 C 0.18813 0.85268 0.16854 0.0
C629 C 0.20574 0.86048 0.13945 0.0
C630 C 0.10731 0.83983 0.238 0.0
C631 C 0.10352 0.86047 0.26473 0.0
C632 C 0.13108 0.84405 0.21382 0.0
C633 C 0.1518 0.86874 0.21614 0.0
C634 C 0.1492 0.88789 0.24425 0.0
C635 C 0.12519 0.88399 0.26809 0.0
H636 H 0.81534 0.11084 0.64693 0.0
H637 H 0.87 0.17202 0.58084 0.0
H638 H 0.84998 0.119 0.69215 0.0
H639 H 0.90474 0.17989 0.62603 0.0
H640 H 0.95132 0.20216 0.72313 0.0
H641 H 0.91046 0.20141 0.68294 0.0
H642 H 0.90363 0.10052 0.69994 0.0
H643 H 0.94405 0.10115 0.74003 0.0
C644 C 0.83444 0.12641 0.64217 0.0
C645 C 0.8401 0.14048 0.61014 0.0
C646 C 0.85439 0.13093 0.66803 0.0
C647 C 0.8803 0.14975 0.66251 0.0
C648 C 0.88491 0.16536 0.63111 0.0
C649 C 0.86505 0.16071 0.60517 0.0
C650 C 0.94096 0.17986 0.71844 0.0
C651 C 0.95113 0.15169 0.7347 0.0
C652 C 0.91763 0.17944 0.69535 0.0
C653 C 0.90376 0.15094 0.68838 0.0
C654 C 0.91354 0.12294 0.70511 0.0
C655 C 0.93696 0.12329 0.72789 0.0
loop_
_geom_bond_atom_site_label_1
_geom_bond_atom_site_label_2
_geom_bond_distance
_geom_bond_site_symmetry_2
_ccdc_geom_bond_type
O0 Cd1 2.300 . S
O0 C7 1.275 . S
Cd1 O0 2.300 . S
Cd1 O9 2.381 . S
Cd1 O10 2.378 . S
O2 Cd3 2.385 1_556 S
O2 C7 1.255 . S
Cd3 O2 2.385 1_554 S
Cd3 O4 2.317 . S
O4 Cd3 2.317 . S
O4 C5 1.232 . S
C5 O4 1.232 . S
C5 O6 1.218 . S
O6 C5 1.218 . S
C7 O0 1.275 . S
C7 O2 1.255 . S
C8 O9 1.258 . S
C8 O10 1.256 . S
O9 Cd1 2.381 . S
O9 C8 1.258 . S
O10 Cd1 2.378 . S
O10 C8 1.256 . S
O11 Cd12 2.300 . S
O11 C18 1.275 . S
Cd12 O11 2.300 . S
Cd12 O20 2.381 . S
Cd12 O21 2.378 . S
O13 Cd14 2.385 . S
O13 C18 1.255 . S
Cd14 O13 2.385 . S
Cd14 O15 2.317 . S
O15 Cd14 2.317 . S
O15 C16 1.232 . S
C16 O15 1.232 . S
C16 O17 1.218 . S
O17 C16 1.218 . S
C18 O11 1.275 . S
C18 O13 1.255 . S
C19 O20 1.258 . S
C19 O21 1.256 . S
O20 Cd12 2.381 . S
O20 C19 1.258 . S
O21 Cd12 2.378 . S
O21 C19 1.256 . S
O22 Cd23 2.300 . S
O22 C29 1.275 . S
Cd23 O22 2.300 . S
Cd23 O31 2.381 . S
Cd23 O32 2.378 . S
O24 Cd25 2.385 . S
O24 C29 1.255 1_554 S
Cd25 O24 2.385 . S
Cd25 O26 2.317 . S
O26 Cd25 2.317 . S
O26 C27 1.232 . S
C27 O26 1.232 . S
C27 O28 1.218 . S
O28 C27 1.218 . S
C29 O22 1.275 . S
C29 O24 1.255 1_556 S
C30 O31 1.258 . S
C30 O32 1.256 . S
O31 Cd23 2.381 . S
O31 C30 1.258 . S
O32 Cd23 2.378 . S
O32 C30 1.256 . S
O33 Cd34 2.300 . S
O33 C40 1.275 . S
Cd34 O33 2.300 . S
Cd34 O42 2.381 . S
Cd34 O43 2.378 . S
O35 Cd36 2.385 . S
O35 C40 1.255 . S
Cd36 O35 2.385 . S
Cd36 O37 2.317 . S
O37 Cd36 2.317 . S
O37 C38 1.232 . S
C38 O37 1.232 . S
C38 O39 1.218 . S
O39 C38 1.218 . S
C40 O33 1.275 . S
C40 O35 1.255 . S
C41 O42 1.258 . S
C41 O43 1.256 . S
O42 Cd34 2.381 . S
O42 C41 1.258 . S
O43 Cd34 2.378 . S
O43 C41 1.256 . S
O44 Cd45 2.300 . S
O44 C51 1.275 . S
Cd45 O44 2.300 . S
Cd45 O53 2.381 . S
Cd45 O54 2.378 . S
O46 Cd47 2.385 1_556 S
O46 C51 1.255 . S
Cd47 O46 2.385 1_554 S
Cd47 O48 2.317 . S
O48 Cd47 2.317 . S
O48 C49 1.232 . S
C49 O48 1.232 . S
C49 O50 1.218 . S
O50 C49 1.218 . S
C51 O44 1.275 . S
C51 O46 1.255 . S
C52 O53 1.258 . S
C52 O54 1.256 . S
O53 Cd45 2.381 . S
O53 C52 1.258 . S
O54 Cd45 2.378 . S
O54 C52 1.256 . S
O55 Cd56 2.300 . S
O55 C62 1.275 . S
Cd56 O55 2.300 . S
Cd56 O64 2.381 . S
Cd56 O65 2.378 . S
O57 Cd58 2.385 . S
O57 C62 1.255 . S
Cd58 O57 2.385 . S
Cd58 O59 2.317 . S
O59 Cd58 2.317 . S
O59 C60 1.232 . S
C60 O59 1.232 . S
C60 O61 1.218 . S
O61 C60 1.218 . S
C62 O55 1.275 . S
C62 O57 1.255 . S
C63 O64 1.258 . S
C63 O65 1.256 . S
O64 Cd56 2.381 . S
O64 C63 1.258 . S
O65 Cd56 2.378 . S
O65 C63 1.256 . S
O66 Cd67 2.300 . S
O66 C73 1.275 . S
Cd67 O66 2.300 . S
Cd67 O75 2.381 . S
Cd67 O76 2.378 . S
O68 Cd69 2.385 . S
O68 C73 1.255 1_554 S
Cd69 O68 2.385 . S
Cd69 O70 2.317 . S
O70 Cd69 2.317 . S
O70 C71 1.232 . S
C71 O70 1.232 . S
C71 O72 1.218 . S
O72 C71 1.218 . S
C73 O66 1.275 . S
C73 O68 1.255 1_556 S
C74 O75 1.258 . S
C74 O76 1.256 . S
O75 Cd67 2.381 . S
O75 C74 1.258 . S
O76 Cd67 2.378 . S
O76 C74 1.256 . S
O77 Cd78 2.300 . S
O77 C84 1.275 . S
Cd78 O77 2.300 . S
Cd78 O86 2.381 . S
Cd78 O87 2.378 . S
O79 Cd80 2.385 . S
O79 C84 1.255 . S
Cd80 O79 2.385 . S
Cd80 O81 2.317 . S
O81 Cd80 2.317 . S
O81 C82 1.232 . S
C82 O81 1.232 . S
C82 O83 1.218 . S
O83 C82 1.218 . S
C84 O77 1.275 . S
C84 O79 1.255 . S
C85 O86 1.258 . S
C85 O87 1.256 . S
O86 Cd78 2.381 . S
O86 C85 1.258 . S
O87 Cd78 2.378 . S
O87 C85 1.256 . S
Sc88 O91 2.025 . S
Sc88 O98 2.105 1_455 S
Sc88 O101 2.105 . S
Sc88 O104 2.105 . S
Sc88 O107 2.105 1_455 S
Sc89 O91 2.025 . S
Sc89 O99 2.105 1_455 S
Sc89 O103 2.105 . S
Sc89 O105 2.105 . S
Sc89 O109 2.105 1_455 S
Sc90 O91 2.025 . S
Sc90 O100 2.105 1_455 S
Sc90 O102 2.105 . S
Sc90 O106 2.105 . S
Sc90 O108 2.105 1_455 S
O91 Sc88 2.025 . S
O91 Sc89 2.025 . S
O91 Sc90 2.025 . S
C92 O98 1.268 . S
C92 O108 1.268 . S
C93 O99 1.268 . S
C93 O107 1.268 . S
C94 O100 1.268 . S
C94 O109 1.268 . S
C95 O101 1.268 . S
C95 O105 1.268 . S
C96 O102 1.268 . S
C96 O104 1.268 . S
C97 O103 1.268 . S
C97 O106 1.268 . S
O98 Sc88 2.105 1_655 S
O98 C92 1.268 . S
O99 Sc89 2.105 1_655 S
O99 C93 1.268 . S
O100 Sc90 2.105 1_655 S
O100 C94 1.268 . S
O101 Sc88 2.105 . S
O101 C95 1.268 . S
O102 Sc90 2.105 . S
O102 C96 1.268 . S
O103 Sc89 2.105 . S
O103 C97 1.268 . S
O104 Sc88 2.105 . S
O104 C96 1.268 . S
O105 Sc89 2.105 . S
O105 C95 1.268 . S
O106 Sc90 2.105 . S
O106 C97 1.268 . S
O107 Sc88 2.105 1_655 S
O107 C93 1.268 . S
O108 Sc90 2.105 1_655 S
O108 C92 1.268 . S
O109 Sc89 2.105 1_655 S
O109 C94 1.268 . S
Sc110 O113 2.025 . S
Sc110 O120 2.105 . S
Sc110 O123 2.105 1_455 S
Sc110 O126 2.105 1_455 S
Sc110 O129 2.105 . S
Sc111 O113 2.025 . S
Sc111 O121 2.105 . S
Sc111 O125 2.105 1_455 S
Sc111 O127 2.105 1_455 S
Sc111 O131 2.105 . S
Sc112 O113 2.025 . S
Sc112 O122 2.105 . S
Sc112 O124 2.105 1_455 S
Sc112 O128 2.105 1_455 S
Sc112 O130 2.105 . S
O113 Sc110 2.025 . S
O113 Sc111 2.025 . S
O113 Sc112 2.025 . S
C114 O120 1.268 . S
C114 O130 1.268 . S
C115 O121 1.268 . S
C115 O129 1.268 . S
C116 O122 1.268 . S
C116 O131 1.268 . S
C117 O123 1.268 . S
C117 O127 1.268 . S
C118 O124 1.268 . S
C118 O126 1.268 . S
C119 O125 1.268 . S
C119 O128 1.268 . S
O120 Sc110 2.105 . S
O120 C114 1.268 . S
O121 Sc111 2.105 . S
O121 C115 1.268 . S
O122 Sc112 2.105 . S
O122 C116 1.268 . S
O123 Sc110 2.105 1_655 S
O123 C117 1.268 . S
O124 Sc112 2.105 1_655 S
O124 C118 1.268 . S
O125 Sc111 2.105 1_655 S
O125 C119 1.268 . S
O126 Sc110 2.105 1_655 S
O126 C118 1.268 . S
O127 Sc111 2.105 1_655 S
O127 C117 1.268 . S
O128 Sc112 2.105 1_655 S
O128 C119 1.268 . S
O129 Sc110 2.105 . S
O129 C115 1.268 . S
O130 Sc112 2.105 . S
O130 C114 1.268 . S
O131 Sc111 2.105 . S
O131 C116 1.268 . S
Sc132 O135 2.025 . S
Sc132 O142 2.105 . S
Sc132 O145 2.105 . S
Sc132 O148 2.105 . S
Sc132 O151 2.105 . S
Sc133 O135 2.025 . S
Sc133 O143 2.105 . S
Sc133 O147 2.105 . S
Sc133 O149 2.105 . S
Sc133 O153 2.105 . S
Sc134 O135 2.025 . S
Sc134 O144 2.105 . S
Sc134 O146 2.105 . S
Sc134 O150 2.105 . S
Sc134 O152 2.105 . S
O135 Sc132 2.025 . S
O135 Sc133 2.025 . S
O135 Sc134 2.025 . S
C136 O142 1.268 . S
C136 O152 1.268 . S
C137 O143 1.268 . S
C137 O151 1.268 . S
C138 O144 1.268 . S
C138 O153 1.268 . S
C139 O145 1.268 . S
C139 O149 1.268 . S
C140 O146 1.268 . S
C140 O148 1.268 . S
C141 O147 1.268 . S
C141 O150 1.268 . S
O142 Sc132 2.105 . S
O142 C136 1.268 . S
O143 Sc133 2.105 . S
O143 C137 1.268 . S
O144 Sc134 2.105 . S
O144 C138 1.268 . S
O145 Sc132 2.105 . S
O145 C139 1.268 . S
O146 Sc134 2.105 . S
O146 C140 1.268 . S
O147 Sc133 2.105 . S
O147 C141 1.268 . S
O148 Sc132 2.105 . S
O148 C140 1.268 . S
O149 Sc133 2.105 . S
O149 C139 1.268 . S
O150 Sc134 2.105 . S
O150 C141 1.268 . S
O151 Sc132 2.105 . S
O151 C137 1.268 . S
O152 Sc134 2.105 . S
O152 C136 1.268 . S
O153 Sc133 2.105 . S
O153 C138 1.268 . S
Sc154 O157 2.025 . S
Sc154 O164 2.105 . S
Sc154 O167 2.105 . S
Sc154 O170 2.105 . S
Sc154 O173 2.105 . S
Sc155 O157 2.025 . S
Sc155 O165 2.105 . S
Sc155 O169 2.105 . S
Sc155 O171 2.105 . S
Sc155 O175 2.105 . S
Sc156 O157 2.025 . S
Sc156 O166 2.105 . S
Sc156 O168 2.105 . S
Sc156 O172 2.105 . S
Sc156 O174 2.105 . S
O157 Sc154 2.025 . S
O157 Sc155 2.025 . S
O157 Sc156 2.025 . S
C158 O164 1.268 . S
C158 O174 1.268 . S
C159 O165 1.268 . S
C159 O173 1.268 . S
C160 O166 1.268 . S
C160 O175 1.268 . S
C161 O167 1.268 . S
C161 O171 1.268 . S
C162 O168 1.268 . S
C162 O170 1.268 . S
C163 O169 1.268 . S
C163 O172 1.268 . S
O164 Sc154 2.105 . S
O164 C158 1.268 . S
O165 Sc155 2.105 . S
O165 C159 1.268 . S
O166 Sc156 2.105 . S
O166 C160 1.268 . S
O167 Sc154 2.105 . S
O167 C161 1.268 . S
O168 Sc156 2.105 . S
O168 C162 1.268 . S
O169 Sc155 2.105 . S
O169 C163 1.268 . S
O170 Sc154 2.105 . S
O170 C162 1.268 . S
O171 Sc155 2.105 . S
O171 C161 1.268 . S
O172 Sc156 2.105 . S
O172 C163 1.268 . S
O173 Sc154 2.105 . S
O173 C159 1.268 . S
O174 Sc156 2.105 . S
O174 C158 1.268 . S
O175 Sc155 2.105 . S
O175 C160 1.268 . S
H176 C184 0.950 . S
H177 C189 0.950 . S
H178 C186 0.950 . S
H179 C188 0.950 . S
H180 C190 0.950 . S
H181 C192 0.950 . S
H182 C194 0.950 . S
H183 C195 0.950 . S
C184 H176 0.950 . S
C184 C185 1.386 . S
C184 C186 1.391 . S
C185 C184 1.386 . S
C185 C189 1.393 . S
C186 H178 0.950 . S
C186 C184 1.391 . S
C186 C187 1.400 . S
C187 C186 1.400 . S
C187 C188 1.398 . S
C187 C193 1.491 . S
C188 H179 0.950 . S
C188 C187 1.398 . S
C188 C189 1.391 . S
C189 H177 0.950 . S
C189 C185 1.393 . S
C189 C188 1.391 . S
C190 H180 0.950 . S
C190 C191 1.386 . S
C190 C192 1.391 . S
C191 C190 1.386 . S
C191 C195 1.393 . S
C192 H181 0.950 . S
C192 C190 1.391 . S
C192 C193 1.400 . S
C193 C187 1.491 . S
C193 C192 1.400 . S
C193 C194 1.398 . S
C194 H182 0.950 . S
C194 C193 1.398 . S
C194 C195 1.391 . S
C195 H183 0.950 . S
C195 C191 1.393 . S
C195 C194 1.391 . S
H196 C204 0.950 . S
H197 C209 0.950 . S
H198 C206 0.950 . S
H199 C208 0.950 . S
H200 C210 0.950 . S
H201 C212 0.950 . S
H202 C214 0.950 . S
H203 C215 0.950 . S
C204 H196 0.950 . S
C204 C205 1.386 . S
C204 C206 1.391 . S
C205 C204 1.386 . S
C205 C209 1.393 . S
C206 H198 0.950 . S
C206 C204 1.391 . S
C206 C207 1.400 . S
C207 C206 1.400 . S
C207 C208 1.398 . S
C207 C213 1.491 . S
C208 H199 0.950 . S
C208 C207 1.398 . S
C208 C209 1.391 . S
C209 H197 0.950 . S
C209 C205 1.393 . S
C209 C208 1.391 . S
C210 H200 0.950 . S
C210 C211 1.386 . S
C210 C212 1.391 . S
C211 C210 1.386 . S
C211 C215 1.393 . S
C212 H201 0.950 . S
C212 C210 1.391 . S
C212 C213 1.400 . S
C213 C207 1.491 . S
C213 C212 1.400 . S
C213 C214 1.398 . S
C214 H202 0.950 . S
C214 C213 1.398 . S
C214 C215 1.391 . S
C215 H203 0.950 . S
C215 C211 1.393 . S
C215 C214 1.391 . S
H216 C224 0.950 . S
H217 C229 0.950 . S
H218 C226 0.950 . S
H219 C228 0.950 . S
H220 C230 0.950 . S
H221 C232 0.950 . S
H222 C234 0.950 . S
H223 C235 0.950 . S
C224 H216 0.950 . S
C224 C225 1.386 . S
C224 C226 1.391 . S
C225 C224 1.386 . S
C225 C229 1.393 . S
C226 H218 0.950 . S
C226 C224 1.391 . S
C226 C227 1.400 . S
C227 C226 1.400 . S
C227 C228 1.398 . S
C227 C233 1.491 . S
C228 H219 0.950 . S
C228 C227 1.398 . S
C228 C229 1.391 . S
C229 H217 0.950 . S
C229 C225 1.393 . S
C229 C228 1.391 . S
C230 H220 0.950 . S
C230 C231 1.386 . S
C230 C232 1.391 . S
C231 C230 1.386 . S
C231 C235 1.393 . S
C232 H221 0.950 . S
C232 C230 1.391 . S
C232 C233 1.400 . S
C233 C227 1.491 . S
C233 C232 1.400 . S
C233 C234 1.398 . S
C234 H222 0.950 . S
C234 C233 1.398 . S
C234 C235 1.391 . S
C235 H223 0.950 . S
C235 C231 1.393 . S
C235 C234 1.391 . S
H236 C244 0.950 . S
H237 C249 0.950 . S
H238 C246 0.950 . S
H239 C248 0.950 . S
H240 C250 0.950 . S
H241 C252 0.950 . S
H242 C254 0.950 . S
H243 C255 0.950 . S
C244 H236 0.950 . S
C244 C245 1.386 . S
C244 C246 1.391 . S
C245 C244 1.386 . S
C245 C249 1.393 . S
C246 H238 0.950 . S
C246 C244 1.391 . S
C246 C247 1.400 . S
C247 C246 1.400 . S
C247 C248 1.398 . S
C247 C253 1.491 . S
C248 H239 0.950 . S
C248 C247 1.398 . S
C248 C249 1.391 . S
C249 H237 0.950 . S
C249 C245 1.393 . S
C249 C248 1.391 . S
C250 H240 0.950 . S
C250 C251 1.386 . S
C250 C252 1.391 . S
C251 C250 1.386 . S
C251 C255 1.393 . S
C252 H241 0.950 . S
C252 C250 1.391 . S
C252 C253 1.400 . S
C253 C247 1.491 . S
C253 C252 1.400 . S
C253 C254 1.398 . S
C254 H242 0.950 . S
C254 C253 1.398 . S
C254 C255 1.391 . S
C255 H243 0.950 . S
C255 C251 1.393 . S
C255 C254 1.391 . S
H256 C264 0.950 . S
H257 C269 0.950 . S
H258 C266 0.950 . S
H259 C268 0.950 . S
H260 C270 0.950 . S
H261 C272 0.950 . S
H262 C274 0.950 . S
H263 C275 0.950 . S
C264 H256 0.950 . S
C264 C265 1.386 . S
C264 C266 1.391 . S
C265 C264 1.386 . S
C265 C269 1.393 . S
C266 H258 0.950 . S
C266 C264 1.391 . S
C266 C267 1.400 . S
C267 C266 1.400 . S
C267 C268 1.398 . S
C267 C273 1.491 . S
C268 H259 0.950 . S
C268 C267 1.398 . S
C268 C269 1.391 . S
C269 H257 0.950 . S
C269 C265 1.393 . S
C269 C268 1.391 . S
C270 H260 0.950 . S
C270 C271 1.386 . S
C270 C272 1.391 . S
C271 C270 1.386 . S
C271 C275 1.393 . S
C272 H261 0.950 . S
C272 C270 1.391 . S
C272 C273 1.400 . S
C273 C267 1.491 . S
C273 C272 1.400 . S
C273 C274 1.398 . S
C274 H262 0.950 . S
C274 C273 1.398 . S
C274 C275 1.391 . S
C275 H263 0.950 . S
C275 C271 1.393 . S
C275 C274 1.391 . S
H276 C284 0.950 . S
H277 C289 0.950 . S
H278 C286 0.950 . S
H279 C288 0.950 . S
H280 C290 0.950 . S
H281 C292 0.950 . S
H282 C294 0.950 . S
H283 C295 0.950 . S
C284 H276 0.950 . S
C284 C285 1.386 . S
C284 C286 1.391 . S
C285 C284 1.386 . S
C285 C289 1.393 . S
C286 H278 0.950 . S
C286 C284 1.391 . S
C286 C287 1.400 . S
C287 C286 1.400 . S
C287 C288 1.398 . S
C287 C293 1.491 . S
C288 H279 0.950 . S
C288 C287 1.398 . S
C288 C289 1.391 . S
C289 H277 0.950 . S
C289 C285 1.393 . S
C289 C288 1.391 . S
C290 H280 0.950 . S
C290 C291 1.386 . S
C290 C292 1.391 . S
C291 C290 1.386 . S
C291 C295 1.393 . S
C292 H281 0.950 . S
C292 C290 1.391 . S
C292 C293 1.400 . S
C293 C287 1.491 . S
C293 C292 1.400 . S
C293 C294 1.398 . S
C294 H282 0.950 . S
C294 C293 1.398 . S
C294 C295 1.391 . S
C295 H283 0.950 . S
C295 C291 1.393 . S
C295 C294 1.391 . S
H296 C304 0.950 . S
H297 C309 0.950 . S
H298 C306 0.950 . S
H299 C308 0.950 . S
H300 C310 0.950 . S
H301 C312 0.950 . S
H302 C314 0.950 . S
H303 C315 0.950 . S
C304 H296 0.950 . S
C304 C305 1.386 . S
C304 C306 1.391 . S
C305 C304 1.386 . S
C305 C309 1.393 . S
C306 H298 0.950 . S
C306 C304 1.391 . S
C306 C307 1.400 . S
C307 C306 1.400 . S
C307 C308 1.398 . S
C307 C313 1.491 . S
C308 H299 0.950 . S
C308 C307 1.398 . S
C308 C309 1.391 . S
C309 H297 0.950 . S
C309 C305 1.393 . S
C309 C308 1.391 . S
C310 H300 0.950 . S
C310 C311 1.386 . S
C310 C312 1.391 . S
C311 C310 1.386 . S
C311 C315 1.393 . S
C312 H301 0.950 . S
C312 C310 1.391 . S
C312 C313 1.400 . S
C313 C307 1.491 . S
C313 C312 1.400 . S
C313 C314 1.398 . S
C314 H302 0.950 . S
C314 C313 1.398 . S
C314 C315 1.391 . S
C315 H303 0.950 . S
C315 C311 1.393 . S
C315 C314 1.391 . S
H316 C324 0.950 . S
H317 C329 0.950 . S
H318 C326 0.950 . S
H319 C328 0.950 . S
H320 C330 0.950 . S
H321 C332 0.950 . S
H322 C334 0.950 . S
H323 C335 0.950 . S
C324 H316 0.950 . S
C324 C325 1.386 . S
C324 C326 1.391 . S
C325 C324 1.386 . S
C325 C329 1.393 . S
C326 H318 0.950 . S
C326 C324 1.391 . S
C326 C327 1.400 . S
C327 C326 1.400 . S
C327 C328 1.398 . S
C327 C333 1.491 . S
C328 H319 0.950 . S
C328 C327 1.398 . S
C328 C329 1.391 . S
C329 H317 0.950 . S
C329 C325 1.393 . S
C329 C328 1.391 . S
C330 H320 0.950 . S
C330 C331 1.386 . S
C330 C332 1.391 . S
C331 C330 1.386 . S
C331 C335 1.393 . S
C332 H321 0.950 . S
C332 C330 1.391 . S
C332 C333 1.400 . S
C333 C327 1.491 . S
C333 C332 1.400 . S
C333 C334 1.398 . S
C334 H322 0.950 . S
C334 C333 1.398 . S
C334 C335 1.391 . S
C335 H323 0.950 . S
C335 C331 1.393 . S
C335 C334 1.391 . S
H336 C344 0.950 . S
H337 C349 0.950 . S
H338 C346 0.950 . S
H339 C348 0.950 . S
H340 C350 0.950 . S
H341 C352 0.950 . S
H342 C354 0.950 . S
H343 C355 0.950 . S
C344 H336 0.950 . S
C344 C345 1.386 . S
C344 C346 1.391 . S
C345 C344 1.386 . S
C345 C349 1.393 . S
C346 H338 0.950 . S
C346 C344 1.391 . S
C346 C347 1.400 . S
C347 C346 1.400 . S
C347 C348 1.398 . S
C347 C353 1.491 . S
C348 H339 0.950 . S
C348 C347 1.398 . S
C348 C349 1.391 . S
C349 H337 0.950 . S
C349 C345 1.393 . S
C349 C348 1.391 . S
C350 H340 0.950 . S
C350 C351 1.386 . S
C350 C352 1.391 . S
C351 C350 1.386 . S
C351 C355 1.393 . S
C352 H341 0.950 . S
C352 C350 1.391 . S
C352 C353 1.400 . S
C353 C347 1.491 . S
C353 C352 1.400 . S
C353 C354 1.398 . S
C354 H342 0.950 . S
C354 C353 1.398 . S
C354 C355 1.391 . S
C355 H343 0.950 . S
C355 C351 1.393 . S
C355 C354 1.391 . S
H356 C364 0.950 . S
H357 C369 0.950 . S
H358 C366 0.950 . S
H359 C368 0.950 . S
H360 C370 0.950 . S
H361 C372 0.950 . S
H362 C374 0.950 . S
H363 C375 0.950 . S
C364 H356 0.950 . S
C364 C365 1.386 . S
C364 C366 1.391 . S
C365 C364 1.386 . S
C365 C369 1.393 . S
C366 H358 0.950 . S
C366 C364 1.391 . S
C366 C367 1.400 . S
C367 C366 1.400 . S
C367 C368 1.398 . S
C367 C373 1.491 . S
C368 H359 0.950 . S
C368 C367 1.398 . S
C368 C369 1.391 . S
C369 H357 0.950 . S
C369 C365 1.393 . S
C369 C368 1.391 . S
C370 H360 0.950 . S
C370 C371 1.386 . S
C370 C372 1.391 . S
C371 C370 1.386 . S
C371 C375 1.393 . S
C372 H361 0.950 . S
C372 C370 1.391 . S
C372 C373 1.400 . S
C373 C367 1.491 . S
C373 C372 1.400 . S
C373 C374 1.398 . S
C374 H362 0.950 . S
C374 C373 1.398 . S
C374 C375 1.391 . S
C375 H363 0.950 . S
C375 C371 1.393 . S
C375 C374 1.391 . S
H376 C384 0.950 . S
H377 C389 0.950 . S
H378 C386 0.950 . S
H379 C388 0.950 . S
H380 C390 0.950 . S
H381 C392 0.950 . S
H382 C394 0.950 . S
H383 C395 0.950 . S
C384 H376 0.950 . S
C384 C385 1.386 . S
C384 C386 1.391 . S
C385 C384 1.386 . S
C385 C389 1.393 . S
C386 H378 0.950 . S
C386 C384 1.391 . S
C386 C387 1.400 . S
C387 C386 1.400 . S
C387 C388 1.398 . S
C387 C393 1.491 . S
C388 H379 0.950 . S
C388 C387 1.398 . S
C388 C389 1.391 . S
C389 H377 0.950 . S
C389 C385 1.393 . S
C389 C388 1.391 . S
C390 H380 0.950 . S
C390 C391 1.386 . S
C390 C392 1.391 . S
C391 C390 1.386 . S
C391 C395 1.393 . S
C392 H381 0.950 . S
C392 C390 1.391 . S
C392 C393 1.400 . S
C393 C387 1.491 . S
C393 C392 1.400 . S
C393 C394 1.398 . S
C394 H382 0.950 . S
C394 C393 1.398 . S
C394 C395 1.391 . S
C395 H383 0.950 . S
C395 C391 1.393 . S
C395 C394 1.391 . S
H396 C404 0.950 . S
H397 C409 0.950 . S
H398 C406 0.950 . S
H399 C408 0.950 . S
H400 C410 0.950 . S
H401 C412 0.950 . S
H402 C414 0.950 . S
H403 C415 0.950 . S
C404 H396 0.950 . S
C404 C405 1.386 . S
C404 C406 1.391 . S
C405 C404 1.386 . S
C405 C409 1.393 . S
C406 H398 0.950 . S
C406 C404 1.391 . S
C406 C407 1.400 . S
C407 C406 1.400 . S
C407 C408 1.398 . S
C407 C413 1.491 . S
C408 H399 0.950 . S
C408 C407 1.398 . S
C408 C409 1.391 . S
C409 H397 0.950 . S
C409 C405 1.393 . S
C409 C408 1.391 . S
C410 H400 0.950 . S
C410 C411 1.386 . S
C410 C412 1.391 . S
C411 C410 1.386 . S
C411 C415 1.393 . S
C412 H401 0.950 . S
C412 C410 1.391 . S
C412 C413 1.400 . S
C413 C407 1.491 . S
C413 C412 1.400 . S
C413 C414 1.398 . S
C414 H402 0.950 . S
C414 C413 1.398 . S
C414 C415 1.391 . S
C415 H403 0.950 . S
C415 C411 1.393 . S
C415 C414 1.391 . S
H416 C424 0.950 . S
H417 C429 0.950 1_554 S
H418 C426 0.950 . S
H419 C428 0.950 1_545 S
H420 C430 0.950 . S
H421 C432 0.950 . S
H422 C434 0.950 . S
H423 C435 0.950 . S
C424 H416 0.950 . S
C424 C425 1.386 . S
C424 C426 1.391 . S
C425 C424 1.386 . S
C425 C429 1.393 . S
C426 H418 0.950 . S
C426 C424 1.391 . S
C426 C427 1.400 . S
C427 C426 1.400 . S
C427 C428 1.398 . S
C427 C433 1.491 1_565 S
C428 H419 0.950 1_565 S
C428 C427 1.398 . S
C428 C429 1.391 . S
C429 H417 0.950 1_556 S
C429 C425 1.393 . S
C429 C428 1.391 . S
C430 H420 0.950 . S
C430 C431 1.386 . S
C430 C432 1.391 . S
C431 C430 1.386 . S
C431 C435 1.393 . S
C432 H421 0.950 . S
C432 C430 1.391 . S
C432 C433 1.400 . S
C433 C427 1.491 1_545 S
C433 C432 1.400 . S
C433 C434 1.398 . S
C434 H422 0.950 . S
C434 C433 1.398 . S
C434 C435 1.391 . S
C435 H423 0.950 . S
C435 C431 1.393 . S
C435 C434 1.391 . S
H436 C444 0.950 1_565 S
H437 C449 0.950 . S
H438 C446 0.950 . S
H439 C448 0.950 . S
H440 C450 0.950 . S
H441 C452 0.950 . S
H442 C454 0.950 . S
H443 C455 0.950 . S
C444 H436 0.950 1_545 S
C444 C445 1.386 . S
C444 C446 1.391 1_545 S
C445 C444 1.386 . S
C445 C449 1.393 . S
C446 H438 0.950 . S
C446 C444 1.391 1_565 S
C446 C447 1.400 . S
C447 C446 1.400 . S
C447 C448 1.398 1_565 S
C447 C453 1.491 . S
C448 H439 0.950 . S
C448 C447 1.398 1_545 S
C448 C449 1.391 . S
C449 H437 0.950 . S
C449 C445 1.393 . S
C449 C448 1.391 . S
C450 H440 0.950 . S
C450 C451 1.386 . S
C450 C452 1.391 . S
C451 C450 1.386 . S
C451 C455 1.393 . S
C452 H441 0.950 . S
C452 C450 1.391 . S
C452 C453 1.400 . S
C453 C447 1.491 . S
C453 C452 1.400 . S
C453 C454 1.398 . S
C454 H442 0.950 . S
C454 C453 1.398 . S
C454 C455 1.391 . S
C455 H443 0.950 . S
C455 C451 1.393 . S
C455 C454 1.391 . S
H456 C464 0.950 . S
H457 C469 0.950 . S
H458 C466 0.950 . S
H459 C468 0.950 . S
H460 C470 0.950 . S
H461 C472 0.950 1_565 S
H462 C474 0.950 . S
H463 C475 0.950 . S
C464 H456 0.950 . S
C464 C465 1.386 . S
C464 C466 1.391 1_565 S
C465 C464 1.386 . S
C465 C469 1.393 . S
C466 H458 0.950 . S
C466 C464 1.391 1_545 S
C466 C467 1.400 1_545 S
C467 C466 1.400 1_565 S
C467 C468 1.398 . S
C467 C473 1.491 1_565 S
C468 H459 0.950 . S
C468 C467 1.398 . S
C468 C469 1.391 . S
C469 H457 0.950 . S
C469 C465 1.393 . S
C469 C468 1.391 . S
C470 H460 0.950 . S
C470 C471 1.386 . S
C470 C472 1.391 . S
C471 C470 1.386 . S
C471 C475 1.393 . S
C472 H461 0.950 1_545 S
C472 C470 1.391 . S
C472 C473 1.400 . S
C473 C467 1.491 1_545 S
C473 C472 1.400 . S
C473 C474 1.398 . S
C474 H462 0.950 . S
C474 C473 1.398 . S
C474 C475 1.391 . S
C475 H463 0.950 . S
C475 C471 1.393 . S
C475 C474 1.391 . S
H476 C484 0.950 . S
H477 C489 0.950 . S
H478 C486 0.950 . S
H479 C488 0.950 . S
H480 C490 0.950 . S
H481 C492 0.950 1_545 S
H482 C494 0.950 . S
H483 C495 0.950 . S
C484 H476 0.950 . S
C484 C485 1.386 . S
C484 C486 1.391 1_545 S
C485 C484 1.386 . S
C485 C489 1.393 . S
C486 H478 0.950 . S
C486 C484 1.391 1_565 S
C486 C487 1.400 1_565 S
C487 C486 1.400 1_545 S
C487 C488 1.398 . S
C487 C493 1.491 1_545 S
C488 H479 0.950 . S
C488 C487 1.398 . S
C488 C489 1.391 . S
C489 H477 0.950 . S
C489 C485 1.393 . S
C489 C488 1.391 . S
C490 H480 0.950 . S
C490 C491 1.386 . S
C490 C492 1.391 . S
C491 C490 1.386 . S
C491 C495 1.393 . S
C492 H481 0.950 1_565 S
C492 C490 1.391 . S
C492 C493 1.400 . S
C493 C487 1.491 1_565 S
C493 C492 1.400 . S
C493 C494 1.398 . S
C494 H482 0.950 . S
C494 C493 1.398 . S
C494 C495 1.391 . S
C495 H483 0.950 . S
C495 C491 1.393 . S
C495 C494 1.391 . S
H496 C504 0.950 . S
H497 C509 0.950 . S
H498 C506 0.950 . S
H499 C508 0.950 . S
H500 C510 0.950 . S
H501 C512 0.950 . S
H502 C514 0.950 . S
H503 C515 0.950 . S
C504 H496 0.950 . S
C504 C505 1.386 . S
C504 C506 1.391 . S
C505 C504 1.386 . S
C505 C509 1.393 . S
C506 H498 0.950 . S
C506 C504 1.391 . S
C506 C507 1.400 . S
C507 C506 1.400 . S
C507 C508 1.398 . S
C507 C513 1.491 . S
C508 H499 0.950 . S
C508 C507 1.398 . S
C508 C509 1.391 . S
C509 H497 0.950 . S
C509 C505 1.393 . S
C509 C508 1.391 . S
C510 H500 0.950 . S
C510 C511 1.386 . S
C510 C512 1.391 . S
C511 C510 1.386 . S
C511 C515 1.393 . S
C512 H501 0.950 . S
C512 C510 1.391 . S
C512 C513 1.400 . S
C513 C507 1.491 . S
C513 C512 1.400 . S
C513 C514 1.398 . S
C514 H502 0.950 . S
C514 C513 1.398 . S
C514 C515 1.391 . S
C515 H503 0.950 . S
C515 C511 1.393 . S
C515 C514 1.391 . S
H516 C524 0.950 . S
H517 C529 0.950 . S
H518 C526 0.950 . S
H519 C528 0.950 . S
H520 C530 0.950 . S
H521 C532 0.950 . S
H522 C534 0.950 . S
H523 C535 0.950 . S
C524 H516 0.950 . S
C524 C525 1.386 . S
C524 C526 1.391 . S
C525 C524 1.386 . S
C525 C529 1.393 . S
C526 H518 0.950 . S
C526 C524 1.391 . S
C526 C527 1.400 . S
C527 C526 1.400 . S
C527 C528 1.398 . S
C527 C533 1.491 . S
C528 H519 0.950 . S
C528 C527 1.398 . S
C528 C529 1.391 . S
C529 H517 0.950 . S
C529 C525 1.393 . S
C529 C528 1.391 . S
C530 H520 0.950 . S
C530 C531 1.386 . S
C530 C532 1.391 . S
C531 C530 1.386 . S
C531 C535 1.393 . S
C532 H521 0.950 . S
C532 C530 1.391 . S
C532 C533 1.400 . S
C533 C527 1.491 . S
C533 C532 1.400 . S
C533 C534 1.398 . S
C534 H522 0.950 . S
C534 C533 1.398 . S
C534 C535 1.391 . S
C535 H523 0.950 . S
C535 C531 1.393 . S
C535 C534 1.391 . S
H536 C544 0.950 . S
H537 C549 0.950 . S
H538 C546 0.950 . S
H539 C548 0.950 . S
H540 C550 0.950 . S
H541 C552 0.950 . S
H542 C554 0.950 . S
H543 C555 0.950 . S
C544 H536 0.950 . S
C544 C545 1.386 . S
C544 C546 1.391 . S
C545 C544 1.386 . S
C545 C549 1.393 . S
C546 H538 0.950 . S
C546 C544 1.391 . S
C546 C547 1.400 . S
C547 C546 1.400 . S
C547 C548 1.398 . S
C547 C553 1.491 . S
C548 H539 0.950 . S
C548 C547 1.398 . S
C548 C549 1.391 . S
C549 H537 0.950 . S
C549 C545 1.393 . S
C549 C548 1.391 . S
C550 H540 0.950 . S
C550 C551 1.386 . S
C550 C552 1.391 . S
C551 C550 1.386 . S
C551 C555 1.393 . S
C552 H541 0.950 . S
C552 C550 1.391 . S
C552 C553 1.400 . S
C553 C547 1.491 . S
C553 C552 1.400 . S
C553 C554 1.398 . S
C554 H542 0.950 . S
C554 C553 1.398 . S
C554 C555 1.391 . S
C555 H543 0.950 . S
C555 C551 1.393 . S
C555 C554 1.391 . S
H556 C564 0.950 . S
H557 C569 0.950 . S
H558 C566 0.950 . S
H559 C568 0.950 . S
H560 C570 0.950 . S
H561 C572 0.950 . S
H562 C574 0.950 . S
H563 C575 0.950 . S
C564 H556 0.950 . S
C564 C565 1.386 . S
C564 C566 1.391 . S
C565 C564 1.386 . S
C565 C569 1.393 . S
C566 H558 0.950 . S
C566 C564 1.391 . S
C566 C567 1.400 . S
C567 C566 1.400 . S
C567 C568 1.398 . S
C567 C573 1.491 . S
C568 H559 0.950 . S
C568 C567 1.398 . S
C568 C569 1.391 . S
C569 H557 0.950 . S
C569 C565 1.393 . S
C569 C568 1.391 . S
C570 H560 0.950 . S
C570 C571 1.386 . S
C570 C572 1.391 . S
C571 C570 1.386 . S
C571 C575 1.393 . S
C572 H561 0.950 . S
C572 C570 1.391 . S
C572 C573 1.400 . S
C573 C567 1.491 . S
C573 C572 1.400 . S
C573 C574 1.398 . S
C574 H562 0.950 . S
C574 C573 1.398 . S
C574 C575 1.391 . S
C575 H563 0.950 . S
C575 C571 1.393 . S
C575 C574 1.391 . S
H576 C584 0.950 . S
H577 C589 0.950 . S
H578 C586 0.950 . S
H579 C588 0.950 . S
H580 C590 0.950 . S
H581 C592 0.950 . S
H582 C594 0.950 . S
H583 C595 0.950 . S
C584 H576 0.950 . S
C584 C585 1.386 . S
C584 C586 1.391 . S
C585 C584 1.386 . S
C585 C589 1.393 . S
C586 H578 0.950 . S
C586 C584 1.391 . S
C586 C587 1.400 . S
C587 C586 1.400 . S
C587 C588 1.398 . S
C587 C593 1.491 . S
C588 H579 0.950 . S
C588 C587 1.398 . S
C588 C589 1.391 . S
C589 H577 0.950 . S
C589 C585 1.393 . S
C589 C588 1.391 . S
C590 H580 0.950 . S
C590 C591 1.386 . S
C590 C592 1.391 . S
C591 C590 1.386 . S
C591 C595 1.393 . S
C592 H581 0.950 . S
C592 C590 1.391 . S
C592 C593 1.400 . S
C593 C587 1.491 . S
C593 C592 1.400 . S
C593 C594 1.398 . S
C594 H582 0.950 . S
C594 C593 1.398 . S
C594 C595 1.391 . S
C595 H583 0.950 . S
C595 C591 1.393 . S
C595 C594 1.391 . S
H596 C604 0.950 . S
H597 C609 0.950 . S
H598 C606 0.950 . S
H599 C608 0.950 . S
H600 C610 0.950 . S
H601 C612 0.950 . S
H602 C614 0.950 . S
H603 C615 0.950 . S
C604 H596 0.950 . S
C604 C605 1.386 . S
C604 C606 1.391 . S
C605 C604 1.386 . S
C605 C609 1.393 . S
C606 H598 0.950 . S
C606 C604 1.391 . S
C606 C607 1.400 . S
C607 C606 1.400 . S
C607 C608 1.398 . S
C607 C613 1.491 . S
C608 H599 0.950 . S
C608 C607 1.398 . S
C608 C609 1.391 . S
C609 H597 0.950 . S
C609 C605 1.393 . S
C609 C608 1.391 . S
C610 H600 0.950 . S
C610 C611 1.386 . S
C610 C612 1.391 . S
C611 C610 1.386 . S
C611 C615 1.393 . S
C612 H601 0.950 . S
C612 C610 1.391 . S
C612 C613 1.400 . S
C613 C607 1.491 . S
C613 C612 1.400 . S
C613 C614 1.398 . S
C614 H602 0.950 . S
C614 C613 1.398 . S
C614 C615 1.391 . S
C615 H603 0.950 . S
C615 C611 1.393 . S
C615 C614 1.391 . S
H616 C624 0.950 . S
H617 C629 0.950 . S
H618 C626 0.950 . S
H619 C628 0.950 . S
H620 C630 0.950 . S
H621 C632 0.950 . S
H622 C634 0.950 . S
H623 C635 0.950 . S
C624 H616 0.950 . S
C624 C625 1.386 . S
C624 C626 1.391 . S
C625 C624 1.386 . S
C625 C629 1.393 . S
C626 H618 0.950 . S
C626 C624 1.391 . S
C626 C627 1.400 . S
C627 C626 1.400 . S
C627 C628 1.398 . S
C627 C633 1.491 . S
C628 H619 0.950 . S
C628 C627 1.398 . S
C628 C629 1.391 . S
C629 H617 0.950 . S
C629 C625 1.393 . S
C629 C628 1.391 . S
C630 H620 0.950 . S
C630 C631 1.386 . S
C630 C632 1.391 . S
C631 C630 1.386 . S
C631 C635 1.393 . S
C632 H621 0.950 . S
C632 C630 1.391 . S
C632 C633 1.400 . S
C633 C627 1.491 . S
C633 C632 1.400 . S
C633 C634 1.398 . S
C634 H622 0.950 . S
C634 C633 1.398 . S
C634 C635 1.391 . S
C635 H623 0.950 . S
C635 C631 1.393 . S
C635 C634 1.391 . S
H636 C644 0.950 . S
H637 C649 0.950 . S
H638 C646 0.950 . S
H639 C648 0.950 . S
H640 C650 0.950 . S
H641 C652 0.950 . S
H642 C654 0.950 . S
H643 C655 0.950 . S
C644 H636 0.950 . S
C644 C645 1.386 . S
C644 C646 1.391 . S
C645 C644 1.386 . S
C645 C649 1.393 . S
C646 H638 0.950 . S
C646 C644 1.391 . S
C646 C647 1.400 . S
C647 C646 1.400 . S
C647 C648 1.398 . S
C647 C653 1.491 . S
C648 H639 0.950 . S
C648 C647 1.398 . S
C648 C649 1.391 . S
C649 H637 0.950 . S
C649 C645 1.393 . S
C649 C648 1.391 . S
C650 H640 0.950 . S
C650 C651 1.386 . S
C650 C652 1.391 . S
C651 C650 1.386 . S
C651 C655 1.393 . S
C652 H641 0.950 . S
C652 C650 1.391 . S
C652 C653 1.400 . S
C653 C647 1.491 . S
C653 C652 1.400 . S
C653 C654 1.398 . S
C654 H642 0.950 . S
C654 C653 1.398 . S
C654 C655 1.391 . S
C655 H643 0.950 . S
C655 C651 1.393 . S
C655 C654 1.391 . S
C185 C8 1.698 . S
C191 C114 1.700 . S
C211 C92 1.407 . S
C205 C19 1.429 . S
C231 C118 1.527 . S
C225 C30 1.548 . S
C251 C96 1.527 . S
C245 C41 1.551 . S
C271 C158 1.693 . S
C265 C52 1.690 . S
C291 C136 1.387 . S
C285 C63 1.427 . S
C305 C74 1.548 . S
C311 C162 1.513 . S
C331 C140 1.520 . S
C325 C85 1.551 . S
C345 C7 1.664 . S
C351 C163 1.718 . S
C371 C141 1.334 . S
C365 C16 1.238 . S
C385 C29 1.583 . S
C391 C160 1.574 . S
C405 C40 1.519 . S
C411 C138 1.509 . S
C431 C119 1.709 . S
C425 C51 1.673 . S
C445 C60 1.237 . S
C451 C97 1.334 . S
C471 C116 1.563 . S
C465 C73 1.574 . S
C491 C94 1.499 . S
C485 C84 1.512 . S
C511 C137 1.459 . S
C505 C5 1.237 . S
C531 C159 1.465 . S
C525 C18 1.475 . S
C545 C27 1.373 . S
C551 C139 1.471 . S
C571 C161 1.447 . S
C565 C38 1.339 . S
C591 C93 1.454 . S
C585 C49 1.233 . S
C605 C62 1.465 . S
C611 C115 1.451 . S
C625 C71 1.375 . S
C631 C95 1.466 . S
C645 C82 1.323 . S
C651 C117 1.458 . S
