# Generated by pormake.
# Topology zzz, (3,6)-cn, num edge types: 1
# Building blocks:
#     Node 0, Type 0, BuildingBlock: OLANEW_clean_sbu_2, # of connection points: 3
#     Node 1, Type 0, BuildingBlock: OLANEW_clean_sbu_2, # of connection points: 3
#     Node 2, Type 0, BuildingBlock: OLANEW_clean_sbu_2, # of connection points: 3
#     Node 3, Type 0, BuildingBlock: OLANEW_clean_sbu_2, # of connection points: 3
#     Node 4, Type 0, BuildingBlock: OLANEW_clean_sbu_2, # of connection points: 3
#     Node 5, Type 0, BuildingBlock: OLANEW_clean_sbu_2, # of connection points: 3
#     Node 6, Type 0, BuildingBlock: OLANEW_clean_sbu_2, # of connection points: 3
#     Node 7, Type 0, BuildingBlock: OLANEW_clean_sbu_2, # of connection points: 3
#     Node 8, Type 1, BuildingBlock: VOLQOD_clean_sbu_1, # of connection points: 6
#     Node 9, Type 1, BuildingBlock: VOLQOD_clean_sbu_1, # of connection points: 6
#     Node 10, Type 1, BuildingBlock: VOLQOD_clean_sbu_1, # of connection points: 6
#     Node 11, Type 1, BuildingBlock: VOLQOD_clean_sbu_1, # of connection points: 6
#     Edge 12, Type (0, 1), BuildingBlock: KIFKEQ_clean_linker_1, # of connection points: 2
#     Edge 13, Type (0, 1), BuildingBlock: KIFKEQ_clean_linker_1, # of connection points: 2
#     Edge 14, Type (0, 1), BuildingBlock: KIFKEQ_clean_linker_1, # of connection points: 2
#     Edge 15, Type (0, 1), BuildingBlock: KIFKEQ_clean_linker_1, # of connection points: 2
#     Edge 16, Type (0, 1), BuildingBlock: KIFKEQ_clean_linker_1, # of connection points: 2
#     Edge 17, Type (0, 1), BuildingBlock: KIFKEQ_clean_linker_1, # of connection points: 2
#     Edge 18, Type (0, 1), BuildingBlock: KIFKEQ_clean_linker_1, # of connection points: 2
#     Edge 19, Type (0, 1), BuildingBlock: KIFKEQ_clean_linker_1, # of connection points: 2
#     Edge 20, Type (0, 1), BuildingBlock: KIFKEQ_clean_linker_1, # of connection points: 2
#     Edge 21, Type (0, 1), BuildingBlock: KIFKEQ_clean_linker_1, # of connection points: 2
#     Edge 22, Type (0, 1), BuildingBlock: KIFKEQ_clean_linker_1, # of connection points: 2
#     Edge 23, Type (0, 1), BuildingBlock: KIFKEQ_clean_linker_1, # of connection points: 2
#     Edge 24, Type (0, 1), BuildingBlock: KIFKEQ_clean_linker_1, # of connection points: 2
#     Edge 25, Type (0, 1), BuildingBlock: KIFKEQ_clean_linker_1, # of connection points: 2
#     Edge 26, Type (0, 1), BuildingBlock: KIFKEQ_clean_linker_1, # of connection points: 2
#     Edge 27, Type (0, 1), BuildingBlock: KIFKEQ_clean_linker_1, # of connection points: 2
#     Edge 28, Type (0, 1), BuildingBlock: KIFKEQ_clean_linker_1, # of connection points: 2
#     Edge 29, Type (0, 1), BuildingBlock: KIFKEQ_clean_linker_1, # of connection points: 2
#     Edge 30, Type (0, 1), BuildingBlock: KIFKEQ_clean_linker_1, # of connection points: 2
#     Edge 31, Type (0, 1), BuildingBlock: KIFKEQ_clean_linker_1, # of connection points: 2
#     Edge 32, Type (0, 1), BuildingBlock: KIFKEQ_clean_linker_1, # of connection points: 2
#     Edge 33, Type (0, 1), BuildingBlock: KIFKEQ_clean_linker_1, # of connection points: 2
#     Edge 34, Type (0, 1), BuildingBlock: KIFKEQ_clean_linker_1, # of connection points: 2
#     Edge 35, Type (0, 1), BuildingBlock: KIFKEQ_clean_linker_1, # of connection points: 2
# Relax obj value: 0.182
# Max RMSD: 0.232
# Mean RMSD: 0.108
data_MOF--net-zzz--node1-OLANEW_clean_sbu_2--node2-VOLQOD_clean_sbu_1--edge1-KIFKEQ_clean_linker_1
_symmetry_space_group_name_H-M    P1
_symmetry_Int_Tables_number       1
_symmetry_cell_setting            triclinic
loop_
_symmetry_equiv_pos_as_xyz
'x, y, z'
_cell_length_a     54.736517
_cell_length_b     54.425954
_cell_length_c     19.394773
_cell_angle_alpha  90.185384
_cell_angle_beta   89.833003
_cell_angle_gamma 91.104686
loop_
_atom_site_label
_atom_site_type_symbol
_atom_site_fract_x
_atom_site_fract_y
_atom_site_fract_z
_atom_type_partial_charge
O0 O 0.78583 0.40237 0.98315 0.0
Cd1 Cd 0.74348 0.39736 0.02145 0.0
O2 O 0.79443 0.41913 0.08348 0.0
Cd3 Cd 0.81872 0.43822 0.15696 0.0
O4 O 0.84522 0.45494 0.22843 0.0
C5 C 0.86617 0.44536 0.23196 0.0
O6 O 0.8707 0.42607 0.19362 0.0
C7 C 0.80141 0.41186 0.02428 0.0
C8 C 0.70942 0.41326 0.92542 0.0
O9 O 0.71883 0.42811 0.96987 0.0
O10 O 0.71637 0.3909 0.92579 0.0
O11 O 0.89307 0.77504 0.95018 0.0
Cd12 Cd 0.87031 0.73947 0.99463 0.0
O13 O 0.89082 0.79155 0.05302 0.0
Cd14 Cd 0.8951 0.82178 0.12649 0.0
O15 O 0.90212 0.85122 0.20046 0.0
C16 C 0.90958 0.87236 0.18109 0.0
O17 O 0.91275 0.8766 0.11499 0.0
C18 C 0.89815 0.79273 0.99082 0.0
C19 C 0.89438 0.69628 0.96283 0.0
O20 O 0.87837 0.70499 0.92199 0.0
O21 O 0.89883 0.70792 0.01912 0.0
O22 O 0.71642 0.13253 0.92321 0.0
Cd23 Cd 0.7532 0.14824 0.9808 0.0
O24 O 0.69808 0.13412 0.02373 0.0
Cd25 Cd 0.66794 0.12317 0.09147 0.0
O26 O 0.63984 0.10456 0.15275 0.0
C27 C 0.63949 0.08122 0.15429 0.0
O28 O 0.65584 0.06923 0.11843 0.0
C29 C 0.6975 0.12865 0.96 0.0
C30 C 0.79486 0.12553 0.93044 0.0
O31 O 0.78054 0.11459 0.9733 0.0
O32 O 0.78965 0.14732 0.91137 0.0
O33 O 0.63565 0.71555 0.89438 0.0
Cd34 Cd 0.65702 0.7526 0.93467 0.0
O35 O 0.61292 0.71544 0.98785 0.0
Cd36 Cd 0.58684 0.69633 0.05525 0.0
O37 O 0.56842 0.66745 0.1144 0.0
C38 C 0.57594 0.64564 0.10709 0.0
O39 O 0.59387 0.64154 0.0636 0.0
C40 C 0.61853 0.70592 0.93014 0.0
C41 C 0.63283 0.7941 0.88972 0.0
O42 O 0.62746 0.78403 0.94761 0.0
O43 O 0.64989 0.78468 0.85342 0.0
O44 O 0.21651 0.64289 0.53706 0.0
Cd45 Cd 0.25462 0.66498 0.51048 0.0
O46 O 0.22166 0.6173 0.4503 0.0
Cd47 Cd 0.20581 0.58716 0.38892 0.0
O48 O 0.18065 0.56423 0.32783 0.0
C49 C 0.18386 0.56286 0.26304 0.0
O50 O 0.20268 0.57454 0.23541 0.0
C51 C 0.20933 0.6244 0.502 0.0
C52 C 0.29509 0.63626 0.53819 0.0
O53 O 0.28525 0.64922 0.58565 0.0
O54 O 0.28583 0.63693 0.47761 0.0
O55 O 0.14376 0.21335 0.49368 0.0
Cd56 Cd 0.16407 0.25019 0.44887 0.0
O57 O 0.14752 0.19406 0.39469 0.0
Cd58 Cd 0.13638 0.1642 0.32519 0.0
O59 O 0.11624 0.1359 0.26785 0.0
C60 C 0.12655 0.11819 0.23725 0.0
O61 O 0.15045 0.11659 0.23977 0.0
C62 C 0.13948 0.19459 0.45624 0.0
C63 C 0.14088 0.29035 0.50717 0.0
O64 O 0.13178 0.27901 0.45499 0.0
O65 O 0.16138 0.28321 0.53087 0.0
O66 O 0.28362 0.87215 0.46705 0.0
Cd67 Cd 0.2436 0.85655 0.43015 0.0
O68 O 0.28681 0.89364 0.37168 0.0
Cd69 Cd 0.30806 0.91619 0.2986 0.0
O70 O 0.33295 0.93193 0.22137 0.0
C71 C 0.34934 0.94807 0.23522 0.0
O72 O 0.35135 0.9564 0.29864 0.0
C73 C 0.29571 0.887 0.42903 0.0
C74 C 0.20519 0.88204 0.49011 0.0
O75 O 0.21332 0.86255 0.5182 0.0
O76 O 0.21533 0.88947 0.43408 0.0
O77 O 0.3934 0.27726 0.39923 0.0
Cd78 Cd 0.37593 0.23799 0.36123 0.0
O79 O 0.38083 0.29711 0.30776 0.0
Cd80 Cd 0.38216 0.32964 0.24148 0.0
O81 O 0.39262 0.36151 0.17896 0.0
C82 C 0.41334 0.37172 0.18987 0.0
O83 O 0.4272 0.36311 0.23907 0.0
C84 C 0.39231 0.297 0.36468 0.0
C85 C 0.39437 0.2001 0.44116 0.0
O86 O 0.40641 0.20881 0.38972 0.0
O87 O 0.37342 0.2091 0.45461 0.0
O88 O 0.04957 0.96839 0.73098 0.0
Zn89 Zn 0.02054 0.98287 0.78144 0.0
O90 O 0.0014 0.00372 0.71896 0.0
Zn91 Zn 0.0006 0.0374 0.75306 0.0
Zn92 Zn 0.01587 0.00383 0.62666 0.0
Zn93 Zn 0.96789 0.99142 0.71348 0.0
O94 O 0.96629 0.04963 0.76666 0.0
O95 O 0.94379 0.01581 0.74924 0.0
O96 O 0.03343 0.00294 0.86273 0.0
O97 O 0.01769 0.03963 0.84376 0.0
O98 O 0.0189 0.06045 0.69018 0.0
O99 O 0.02872 0.03748 0.59996 0.0
O100 O 0.99217 0.99118 0.55499 0.0
O101 O -0.00034 0.95424 0.81777 0.0
O102 O 0.95886 0.98234 0.61618 0.0
O103 O 0.96373 0.961 0.7693 0.0
C104 C 0.05633 0.96932 0.66804 0.0
C105 C 0.94569 0.03837 0.76606 0.0
C106 C 0.02901 0.05806 0.63144 0.0
C107 C 0.03025 0.02525 0.88049 0.0
C108 C 0.97023 0.98308 0.55883 0.0
C109 C 0.97731 0.94819 0.80762 0.0
O110 O 0.04468 0.98177 0.62397 0.0
O111 O 0.4788 0.05079 0.7151 0.0
Zn112 Zn 0.49757 0.02288 0.75874 0.0
O113 O 0.50285 0.9964 0.69021 0.0
Zn114 Zn 0.48916 0.96541 0.72374 0.0
Zn115 Zn 0.48716 0.00424 0.60295 0.0
Zn116 Zn 0.53767 0.99226 0.67348 0.0
O117 O 0.51496 0.94013 0.73759 0.0
O118 O 0.5491 0.95881 0.70229 0.0
O119 O 0.47754 0.0101 0.84089 0.0
O120 O 0.47281 0.97058 0.81431 0.0
O121 O 0.46331 0.95152 0.66024 0.0
O122 O 0.46233 0.97849 0.57488 0.0
O123 O 0.51171 0.00865 0.5261 0.0
O124 O 0.53013 0.03728 0.7922 0.0
O125 O 0.54663 -0.00198 0.57426 0.0
O126 O 0.55681 0.01732 0.72719 0.0
C127 C 0.46821 0.05266 0.65689 0.0
C128 C 0.53793 0.94009 0.72713 0.0
C129 C 0.45459 0.95875 0.60318 0.0
C130 C 0.46922 0.98859 0.8548 0.0
C131 C 0.5346 0.00516 0.5222 0.0
C132 C 0.552 0.03354 0.77233 0.0
O133 O 0.46949 0.03587 0.61133 0.0
O134 O 0.45675 0.53768 0.68393 0.0
Zn135 Zn 0.48758 0.52202 0.7193 0.0
O136 O 0.5033 0.50292 0.64528 0.0
Zn137 Zn 0.50762 0.46917 0.67516 0.0
Zn138 Zn 0.48319 0.50319 0.56202 0.0
Zn139 Zn 0.53547 0.51685 0.62354 0.0
O140 O 0.54306 0.4606 0.68435 0.0
O141 O 0.5627 0.49393 0.64679 0.0
O142 O 0.47787 0.50007 0.80021 0.0
O143 O 0.49268 0.46405 0.76816 0.0
O144 O 0.49101 0.4453 0.61065 0.0
O145 O 0.47341 0.4688 0.53247 0.0
O146 O 0.50093 0.5199 0.48307 0.0
O147 O 0.51029 0.54952 0.75322 0.0
O148 O 0.53813 0.52722 0.52445 0.0
O149 O 0.54155 0.54691 0.68043 0.0
C150 C 0.44487 0.53549 0.6277 0.0
C151 C 0.5629 0.4723 0.67152 0.0
C152 C 0.47794 0.44768 0.55695 0.0
C153 C 0.48154 0.47737 0.81163 0.0
C154 C 0.52273 0.52806 0.47548 0.0
C155 C 0.53085 0.55745 0.73041 0.0
O156 O 0.4526 0.52224 0.5783 0.0
O157 O 0.99107 0.50559 0.63387 0.0
Zn158 Zn 0.01225 0.5165 0.7148 0.0
O159 O 0.01994 0.48889 0.77593 0.0
Zn160 Zn 0.00881 0.49595 0.87031 0.0
Zn161 Zn 0.0039 0.45911 0.74186 0.0
Zn162 Zn 0.055 0.48336 0.77587 0.0
O163 O 0.03723 0.49718 0.9378 0.0
O164 O 0.0689 0.48908 0.87011 0.0
O165 O 0.99411 0.54253 0.76638 0.0
O166 O 0.99288 0.52908 0.87427 0.0
O167 O 0.9824 0.47149 0.9 0.0
O168 O 0.97841 0.44709 0.80854 0.0
O169 O 0.0275 0.43228 0.72 0.0
O170 O 0.04317 0.53239 0.67751 0.0
O171 O 0.06356 0.44919 0.74549 0.0
O172 O 0.07212 0.50705 0.71198 0.0
C173 C 0.98251 0.48445 0.61734 0.0
C174 C 0.06013 0.49434 0.92909 0.0
C175 C 0.97178 0.45362 0.86874 0.0
C176 C 0.98799 0.54525 0.82928 0.0
C177 C 0.05065 0.4311 0.72389 0.0
C178 C 0.06538 0.52588 0.67884 0.0
O179 O 0.98643 0.4657 0.6543 0.0
H180 H 0.17625 0.8681 0.59918 0.0
H181 H 0.18703 0.92601 0.44968 0.0
H182 H 0.14053 0.889 0.64457 0.0
H183 H 0.15187 0.9472 0.49617 0.0
H184 H 0.07229 0.96297 0.53605 0.0
H185 H 0.10844 0.94199 0.49657 0.0
H186 H 0.12689 0.92489 0.70728 0.0
H187 H 0.0901 0.94547 0.74706 0.0
C188 C 0.17114 0.88541 0.57646 0.0
C189 C 0.18436 0.8953 0.52045 0.0
C190 C 0.15074 0.89745 0.60273 0.0
C191 C 0.14319 0.91969 0.57369 0.0
C192 C 0.15685 0.92985 0.51887 0.0
C193 C 0.17712 0.91777 0.49242 0.0
C194 C 0.084 0.95475 0.5742 0.0
C195 C 0.07829 0.95601 0.64485 0.0
C196 C 0.10487 0.94284 0.55148 0.0
C197 C 0.12075 0.93196 0.59874 0.0
C198 C 0.11496 0.93292 0.66944 0.0
C199 C 0.09392 0.9448 0.69227 0.0
H200 H 0.36918 0.16747 0.52265 0.0
H201 H 0.44206 0.18747 0.45435 0.0
H202 H 0.38563 0.13266 0.58626 0.0
H203 H 0.45845 0.15307 0.51933 0.0
H204 H 0.47897 0.09998 0.69591 0.0
H205 H 0.46009 0.13745 0.65236 0.0
H206 H 0.40875 0.0932 0.53501 0.0
H207 H 0.42791 0.05592 0.57672 0.0
C208 C 0.38871 0.16463 0.52201 0.0
C209 C 0.40433 0.18005 0.48317 0.0
C210 C 0.39808 0.14476 0.55834 0.0
C211 C 0.42327 0.14036 0.55782 0.0
C212 C 0.43898 0.15627 0.52105 0.0
C213 C 0.42958 0.17579 0.48349 0.0
C214 C 0.46339 0.09833 0.66179 0.0
C215 C 0.45493 0.07512 0.63939 0.0
C216 C 0.45271 0.11969 0.63671 0.0
C217 C 0.43302 0.1181 0.59045 0.0
C218 C 0.42379 0.09488 0.57101 0.0
C219 C 0.43481 0.0736 0.59463 0.0
H220 H 0.32498 0.61382 0.44545 0.0
H221 H 0.31376 0.62429 0.66402 0.0
H222 H 0.3607 0.58936 0.46909 0.0
H223 H 0.34892 0.59891 0.68803 0.0
H224 H 0.42835 0.5744 0.70338 0.0
H225 H 0.39208 0.59853 0.68257 0.0
H226 H 0.37293 0.55102 0.51116 0.0
H227 H 0.40967 0.52763 0.53027 0.0
C228 C 0.33002 0.61069 0.49863 0.0
C229 C 0.31657 0.62102 0.55284 0.0
C230 C 0.35044 0.5965 0.51229 0.0
C231 C 0.35774 0.592 0.58057 0.0
C232 C 0.34412 0.60226 0.63481 0.0
C233 C 0.32385 0.6167 0.62108 0.0
C234 C 0.41632 0.56906 0.66147 0.0
C235 C 0.42199 0.54919 0.61825 0.0
C236 C 0.39543 0.58283 0.64968 0.0
C237 C 0.37956 0.57687 0.59486 0.0
C238 C 0.38496 0.55655 0.55286 0.0
C239 C 0.40598 0.54299 0.56413 0.0
H240 H 0.1601 0.33006 0.57554 0.0
H241 H 0.09178 0.29579 0.51459 0.0
H242 H 0.13806 0.36356 0.62923 0.0
H243 H 0.06949 0.328 0.5728 0.0
H244 H 0.03573 0.40131 0.6191 0.0
H245 H 0.05762 0.36764 0.567 0.0
H246 H 0.11474 0.37667 0.71958 0.0
H247 H 0.09348 0.41171 0.76787 0.0
C248 C 0.14031 0.32961 0.57445 0.0
C249 C 0.12762 0.31053 0.54046 0.0
C250 C 0.12758 0.34869 0.60588 0.0
C251 C 0.10182 0.34872 0.60577 0.0
C252 C 0.08925 0.32917 0.57271 0.0
C253 C 0.10201 0.31053 0.5396 0.0
C254 C 0.05289 0.39593 0.64169 0.0
C255 C 0.06292 0.40908 0.69745 0.0
C256 C 0.06547 0.37646 0.61206 0.0
C257 C 0.08813 0.36918 0.63871 0.0
C258 C 0.09771 0.38197 0.69622 0.0
C259 C 0.08542 0.40192 0.72457 0.0
H260 H 0.83922 0.14627 0.89959 0.0
H261 H 0.7995 0.07709 0.90102 0.0
H262 H 0.87584 0.12553 0.86086 0.0
H263 H 0.83519 0.05645 0.85638 0.0
H264 H 0.93393 0.08595 0.7402 0.0
H265 H 0.89702 0.10706 0.77509 0.0
H266 H 0.87208 0.04145 0.8822 0.0
H267 H 0.9079 0.02009 0.84177 0.0
C268 C 0.8383 0.12662 0.8904 0.0
C269 C 0.81669 0.11321 0.9037 0.0
C270 C 0.85924 0.11467 0.86755 0.0
C271 C 0.85881 0.0891 0.85537 0.0
C272 C 0.83674 0.07594 0.86696 0.0
C273 C 0.8161 0.08779 0.89196 0.0
C274 C 0.92036 0.07613 0.77081 0.0
C275 C 0.9236 0.0514 0.78794 0.0
C276 C 0.89924 0.08826 0.7915 0.0
C277 C 0.88123 0.07613 0.83176 0.0
C278 C 0.88493 0.0514 0.8497 0.0
C279 C 0.90564 0.03911 0.82708 0.0
H280 H 0.59525 0.8174 0.9537 0.0
H281 H 0.64005 0.81964 0.76987 0.0
H282 H 0.57264 0.85251 0.91233 0.0
H283 H 0.61712 0.85456 0.72799 0.0
H284 H 0.58728 0.93328 0.71559 0.0
H285 H 0.61047 0.8981 0.75422 0.0
H286 H 0.54358 0.86208 0.82136 0.0
H287 H 0.52041 0.89731 0.78392 0.0
C288 C 0.60026 0.82536 0.90442 0.0
C289 C 0.61944 0.81571 0.86506 0.0
C290 C 0.58719 0.84539 0.8805 0.0
C291 C 0.59301 0.85625 0.81671 0.0
C292 C 0.61234 0.84674 0.77762 0.0
C293 C 0.6254 0.82667 0.8015 0.0
C294 C 0.57749 0.91782 0.7383 0.0
C295 C 0.55197 0.91819 0.74687 0.0
C296 C 0.59079 0.89762 0.76017 0.0
C297 C 0.57888 0.87737 0.7912 0.0
C298 C 0.55334 0.87757 0.79867 0.0
C299 C 0.54004 0.89772 0.77674 0.0
H300 H 0.68331 0.38544 0.83252 0.0
H301 H 0.69239 0.4597 0.90908 0.0
H302 H 0.64992 0.39861 0.75889 0.0
H303 H 0.65889 0.47273 0.83633 0.0
H304 H 0.60857 0.49374 0.66556 0.0
H305 H 0.64606 0.4787 0.71656 0.0
H306 H 0.60794 0.41216 0.77891 0.0
H307 H 0.57055 0.42694 0.72719 0.0
C308 C 0.67832 0.4046 0.83326 0.0
C309 C 0.69041 0.42149 0.87698 0.0
C310 C 0.65913 0.41211 0.79128 0.0
C311 C 0.65172 0.43669 0.79185 0.0
C312 C 0.66434 0.45372 0.83397 0.0
C313 C 0.68344 0.4462 0.8761 0.0
C314 C 0.60825 0.47571 0.68905 0.0
C315 C 0.58644 0.46167 0.69285 0.0
C316 C 0.62972 0.46717 0.71868 0.0
C317 C 0.62991 0.44437 0.75248 0.0
C318 C 0.60847 0.42973 0.75288 0.0
C319 C 0.58698 0.43829 0.72346 0.0
H320 H 0.88878 0.66759 0.84796 0.0
H321 H 0.93002 0.67394 0.03708 0.0
H322 H 0.91121 0.63091 0.81711 0.0
H323 H 0.9528 0.63748 0.0055 0.0
H324 H 0.97055 0.55703 0.95759 0.0
H325 H 0.94751 0.59312 0.99071 0.0
H326 H 0.95228 0.62 0.78167 0.0
H327 H 0.97487 0.58379 0.74812 0.0
C328 C 0.90265 0.66118 0.88293 0.0
C329 C 0.90764 0.6737 0.94492 0.0
C330 C 0.91561 0.64024 0.86503 0.0
C331 C 0.93387 0.63134 0.9087 0.0
C332 C 0.93868 0.64372 0.97108 0.0
C333 C 0.9257 0.66468 0.98899 0.0
C334 C 0.96672 0.57065 0.91867 0.0
C335 C 0.97454 0.56746 0.85013 0.0
C336 C 0.95361 0.59139 0.93777 0.0
C337 C 0.948 0.60939 0.88879 0.0
C338 C 0.95597 0.60628 0.82042 0.0
C339 C 0.96907 0.58557 0.80131 0.0
H340 H 0.09871 0.19946 0.53413 0.0
H341 H 0.14394 0.14509 0.43754 0.0
H342 H 0.0704 0.16718 0.57257 0.0
H343 H 0.11596 0.11258 0.47703 0.0
H344 H 0.04057 0.10164 0.69445 0.0
H345 H 0.06717 0.13442 0.65197 0.0
H346 H 0.07591 0.09527 0.45945 0.0
H347 H 0.0499 0.06189 0.50311 0.0
C348 C 0.10265 0.18052 0.52165 0.0
C349 C 0.12327 0.17474 0.48211 0.0
C350 C 0.08648 0.16201 0.54372 0.0
C351 C 0.09079 0.13724 0.52761 0.0
C352 C 0.11173 0.13148 0.48898 0.0
C353 C 0.1278 0.15006 0.46643 0.0
C354 C 0.04795 0.10007 0.64278 0.0
C355 C 0.04313 0.07907 0.60227 0.0
C356 C 0.06318 0.11897 0.61827 0.0
C357 C 0.0738 0.11749 0.55233 0.0
C358 C 0.06841 0.0968 0.51098 0.0
C359 C 0.05332 0.07776 0.53577 0.0
H360 H 0.33068 0.86152 0.49611 0.0
H361 H 0.31509 0.93305 0.41374 0.0
H362 H 0.37101 0.87653 0.53271 0.0
H363 H 0.35502 0.94827 0.45109 0.0
H364 H 0.43489 0.9649 0.47509 0.0
H365 H 0.39785 0.94568 0.42897 0.0
H366 H 0.38925 0.90347 0.61619 0.0
H367 H 0.42669 0.92205 0.66129 0.0
C368 C 0.33595 0.88045 0.48579 0.0
C369 C 0.32005 0.89601 0.45087 0.0
C370 C 0.35898 0.88908 0.50686 0.0
C371 C 0.36638 0.91356 0.49428 0.0
C372 C 0.35024 0.92914 0.4599 0.0
C373 C 0.32735 0.92044 0.4384 0.0
C374 C 0.42526 0.95128 0.50606 0.0
C375 C 0.43367 0.94514 0.57209 0.0
C376 C 0.40392 0.94039 0.47981 0.0
C377 C 0.39037 0.92325 0.5192 0.0
C378 C 0.39932 0.91641 0.58413 0.0
C379 C 0.42077 0.92716 0.61015 0.0
H380 H 0.43671 0.29923 0.42595 0.0
H381 H 0.37733 0.34453 0.36032 0.0
H382 H 0.45889 0.33565 0.46727 0.0
H383 H 0.39919 0.38103 0.40273 0.0
H384 H 0.45365 0.44417 0.43373 0.0
H385 H 0.43403 0.40771 0.38342 0.0
H386 H 0.4568 0.36483 0.55827 0.0
H387 H 0.47703 0.4009 0.60715 0.0
C388 C 0.42843 0.31704 0.42052 0.0
C389 C 0.40551 0.31918 0.38916 0.0
C390 C 0.44106 0.33789 0.44434 0.0
C391 C 0.43084 0.36131 0.43832 0.0
C392 C 0.40782 0.36337 0.40697 0.0
C393 C 0.39529 0.34249 0.38261 0.0
C394 C 0.4546 0.42691 0.46113 0.0
C395 C 0.46691 0.42547 0.52448 0.0
C396 C 0.44322 0.40605 0.43252 0.0
C397 C 0.44377 0.38334 0.46686 0.0
C398 C 0.45633 0.3819 0.52979 0.0
C399 C 0.46785 0.40266 0.55807 0.0
H400 H 0.20579 0.57605 0.53002 0.0
H401 H 0.16346 0.64186 0.52048 0.0
H402 H 0.17007 0.55282 0.56871 0.0
H403 H 0.12678 0.61841 0.55339 0.0
H404 H 0.0719 0.57536 0.68653 0.0
H405 H 0.10606 0.59966 0.64095 0.0
H406 H 0.13407 0.53445 0.54202 0.0
H407 H 0.10109 0.51012 0.59355 0.0
C408 C 0.18855 0.58537 0.53511 0.0
C409 C 0.18719 0.6106 0.52246 0.0
C410 C 0.16791 0.57204 0.55653 0.0
C411 C 0.14517 0.58351 0.56385 0.0
C412 C 0.1439 0.60888 0.54982 0.0
C413 C 0.16483 0.62236 0.53041 0.0
C414 C 0.08539 0.56642 0.65462 0.0
C415 C 0.08413 0.54096 0.64377 0.0
C416 C 0.10495 0.58033 0.62795 0.0
C417 C 0.12326 0.56914 0.58809 0.0
C418 C 0.12098 0.54374 0.57433 0.0
C419 C 0.10192 0.52975 0.60304 0.0
H420 H 0.89523 0.81258 0.86306 0.0
H421 H 0.93182 0.82177 0.05855 0.0
H422 H 0.91577 0.84968 0.82013 0.0
H423 H 0.95178 0.85943 0.01652 0.0
H424 H 0.00015 0.91344 0.88651 0.0
H425 H 0.98229 0.87506 0.93134 0.0
H426 H 0.91259 0.89364 0.84387 0.0
H427 H 0.93022 0.93146 0.79869 0.0
C428 C 0.9076 0.82262 0.89692 0.0
C429 C 0.91135 0.81474 0.9648 0.0
C430 C 0.91924 0.84393 0.87256 0.0
C431 C 0.93508 0.85772 0.91536 0.0
C432 C 0.9396 0.84927 0.98242 0.0
C433 C 0.92784 0.82797 0.00691 0.0
C434 C 0.981 0.90934 0.87713 0.0
C435 C 0.9667 0.92549 0.83858 0.0
C436 C 0.97077 0.88741 0.90294 0.0
C437 C 0.9461 0.88121 0.89041 0.0
C438 C 0.93177 0.89762 0.85317 0.0
C439 C 0.94191 0.91943 0.82763 0.0
H440 H 0.69681 0.08998 0.8716 0.0
H441 H 0.64954 0.13901 0.98199 0.0
H442 H 0.66132 0.06723 0.82825 0.0
H443 H 0.61376 0.11704 0.93639 0.0
H444 H 0.59495 0.04435 0.70843 0.0
H445 H 0.62918 0.06868 0.75153 0.0
H446 H 0.59026 0.08059 0.94284 0.0
H447 H 0.55523 0.05722 0.89737 0.0
C448 C 0.67873 0.09606 0.88571 0.0
C449 C 0.67585 0.11605 0.93051 0.0
C450 C 0.65832 0.08312 0.86068 0.0
C451 C 0.63449 0.09024 0.87858 0.0
C452 C 0.63172 0.11065 0.92253 0.0
C453 C 0.6522 0.12333 0.94846 0.0
C454 C 0.59367 0.05219 0.75971 0.0
C455 C 0.57246 0.04874 0.79974 0.0
C456 C 0.61343 0.06604 0.78474 0.0
C457 C 0.61277 0.07643 0.85119 0.0
C458 C 0.59138 0.07317 0.8911 0.0
C459 C 0.57134 0.05965 0.86534 0.0
H460 H 0.56982 0.69503 0.93856 0.0
H461 H 0.63813 0.66698 0.86342 0.0
H462 H 0.54829 0.65874 0.89378 0.0
H463 H 0.61682 0.63041 0.81953 0.0
H464 H 0.52029 0.57997 0.85383 0.0
H465 H 0.54177 0.61512 0.90622 0.0
H466 H 0.58965 0.61971 0.72888 0.0
H467 H 0.5689 0.58438 0.67808 0.0
C468 C 0.58028 0.68079 0.91382 0.0
C469 C 0.60566 0.68358 0.90525 0.0
C470 C 0.56795 0.66001 0.88803 0.0
C471 C 0.58078 0.64162 0.85295 0.0
C472 C 0.60628 0.64438 0.84523 0.0
C473 C 0.61854 0.66525 0.87057 0.0
C474 C 0.5354 0.58853 0.82618 0.0
C475 C 0.54295 0.57928 0.762 0.0
C476 C 0.54767 0.60872 0.85604 0.0
C477 C 0.56759 0.62014 0.82204 0.0
C478 C 0.5748 0.61105 0.75739 0.0
C479 C 0.56273 0.59084 0.72796 0.0
H480 H 0.8419 0.40508 0.10213 0.0
H481 H 0.81885 0.4237 0.89685 0.0
H482 H 0.88473 0.4118 0.06811 0.0
H483 H 0.86153 0.4302 0.8625 0.0
H484 H 0.94095 0.41991 0.8082 0.0
H485 H 0.90046 0.40693 0.84738 0.0
H486 H 0.91033 0.44919 0.03431 0.0
H487 H 0.95097 0.46234 0.99529 0.0
C488 C 0.84605 0.41109 0.0502 0.0
C489 C 0.82717 0.41477 0.00282 0.0
C490 C 0.87046 0.4147 0.03065 0.0
C491 C 0.87641 0.42184 0.9631 0.0
C492 C 0.8575 0.4246 0.91492 0.0
C493 C 0.8331 0.421 0.93457 0.0
C494 C 0.93474 0.42615 0.85824 0.0
C495 C 0.94919 0.44239 0.89832 0.0
C496 C 0.91144 0.41882 0.88035 0.0
C497 C 0.90213 0.42732 0.94336 0.0
C498 C 0.91708 0.44232 0.98548 0.0
C499 C 0.94035 0.44987 0.96307 0.0
H500 H 0.14276 0.0834 0.14649 0.0
H501 H 0.07688 0.11326 0.23365 0.0
H502 H 0.11816 0.05783 0.06862 0.0
H503 H 0.05235 0.08731 0.1572 0.0
H504 H 0.0223 0.06949 0.94141 0.0
H505 H 0.04484 0.0887 0.03497 0.0
H506 H 0.08835 0.02374 0.05554 0.0
H507 H 0.0659 0.00446 0.95998 0.0
C508 C 0.12304 0.08421 0.14984 0.0
C509 C 0.11179 0.10066 0.19544 0.0
C510 C 0.10893 0.06942 0.10552 0.0
C511 C 0.08329 0.07072 0.10618 0.0
C512 C 0.07207 0.08623 0.15444 0.0
C513 C 0.08614 0.10107 0.19838 0.0
C514 C 0.0365 0.05911 0.96611 0.0
C515 C 0.04239 0.03547 0.94276 0.0
C516 C 0.04933 0.0701 0.02032 0.0
C517 C 0.06842 0.05777 0.05283 0.0
C518 C 0.07388 0.0338 0.03107 0.0
C519 C 0.06092 0.0227 0.97669 0.0
H520 H 0.38721 0.98174 0.24623 0.0
H521 H 0.3509 0.93301 0.10111 0.0
H522 H 0.4173 0.99308 0.15754 0.0
H523 H 0.38067 0.94445 0.01317 0.0
H524 H 0.45313 0.94444 0.90415 0.0
H525 H 0.4247 0.93648 0.99775 0.0
H526 H 0.42145 0.01424 0.04057 0.0
H527 H 0.45036 0.02243 0.94603 0.0
C528 C 0.38552 0.97359 0.19541 0.0
C529 C 0.36675 0.9563 0.18095 0.0
C530 C 0.40269 0.98018 0.14463 0.0
C531 C 0.4015 0.96944 0.07871 0.0
C532 C 0.38234 0.95271 0.06389 0.0
C533 C 0.36519 0.94623 0.11428 0.0
C534 C 0.44655 0.95995 0.93348 0.0
C535 C 0.45385 0.98415 0.91686 0.0
C536 C 0.43012 0.95534 0.98705 0.0
C537 C 0.4205 0.97474 0.0257 0.0
C538 C 0.42856 -0.00109 0.0115 0.0
C539 C 0.44508 0.00359 0.95738 0.0
H540 H 0.38857 0.39621 0.0894 0.0
H541 H 0.45941 0.3918 0.186 0.0
H542 H 0.40545 0.42546 0.00565 0.0
H543 H 0.47617 0.4209 0.10212 0.0
H544 H 0.49945 0.43703 0.8741 0.0
H545 H 0.4828 0.41509 0.97326 0.0
H546 H 0.42601 0.46864 0.99289 0.0
H547 H 0.44294 0.49098 0.89321 0.0
C548 C 0.40764 0.4017 0.09334 0.0
C549 C 0.42271 0.39144 0.14385 0.0
C550 C 0.41724 0.41858 0.04567 0.0
C551 C 0.44214 0.42531 0.04722 0.0
C552 C 0.45696 0.41585 0.09945 0.0
C553 C 0.44732 0.39921 0.1475 0.0
C554 C 0.48357 0.44432 0.89992 0.0
C555 C 0.47244 0.46568 0.87571 0.0
C556 C 0.47413 0.43183 0.95701 0.0
C557 C 0.45313 0.44018 0.99076 0.0
C558 C 0.44219 0.4618 0.96758 0.0
C559 C 0.45193 0.47462 0.9109 0.0
H560 H 0.18612 0.55611 0.12387 0.0
H561 H 0.141 0.53965 0.30166 0.0
H562 H 0.15589 0.53645 0.04946 0.0
H563 H 0.11078 0.51948 0.22682 0.0
H564 H 0.05103 0.51704 0.05305 0.0
H565 H 0.08109 0.53089 0.1383 0.0
H566 H 0.13828 0.49672 0.02021 0.0
H567 H 0.10848 0.48336 0.93461 0.0
C568 C 0.16985 0.54807 0.14722 0.0
C569 C 0.16598 0.54952 0.21872 0.0
C570 C 0.15256 0.53662 0.10453 0.0
C571 C 0.13093 0.52628 0.13218 0.0
C572 C 0.12716 0.52743 0.20386 0.0
C573 C 0.14454 0.53887 0.24673 0.0
C574 C 0.06995 0.51213 0.04591 0.0
C575 C 0.07738 0.49938 0.98649 0.0
C576 C 0.08719 0.52003 0.09487 0.0
C577 C 0.11216 0.51524 0.08548 0.0
C578 C 0.11929 0.50121 0.02818 0.0
C579 C 0.10215 0.49344 0.97926 0.0
H580 H 0.92996 0.91806 0.15904 0.0
H581 H 0.9031 0.86995 0.32038 0.0
H582 H 0.942 0.9486 0.24578 0.0
H583 H 0.91542 0.90017 0.40658 0.0
H584 H 0.92361 0.96458 0.54694 0.0
H585 H 0.90644 0.94092 0.45136 0.0
H586 H 0.97335 0.95201 0.336 0.0
H587 H 0.99043 0.97609 0.43099 0.0
C588 C 0.92648 0.91405 0.21289 0.0
C589 C 0.91567 0.89153 0.23284 0.0
C590 C 0.93347 0.93151 0.26253 0.0
C591 C 0.92964 0.92683 0.33302 0.0
C592 C 0.91829 0.90453 0.35268 0.0
C593 C 0.9114 0.8871 0.30322 0.0
C594 C 0.93455 0.96233 0.50081 0.0
C595 C 0.95853 0.97198 0.49705 0.0
C596 C 0.92473 0.94865 0.44617 0.0
C597 C 0.93866 0.94429 0.38655 0.0
C598 C 0.96209 0.95515 0.38108 0.0
C599 C 0.97192 0.96887 0.43574 0.0
H600 H 0.63839 0.0322 0.18484 0.0
H601 H 0.60079 0.0999 0.22513 0.0
H602 H 0.6111 0.0107 0.26529 0.0
H603 H 0.57368 0.0784 0.30561 0.0
H604 H 0.51735 0.02976 0.41 0.0
H605 H 0.54099 0.04582 0.31266 0.0
H606 H 0.60581 0.01233 0.39311 0.0
H607 H 0.58228 0.99613 0.49015 0.0
C608 C 0.62418 0.04245 0.21035 0.0
C609 C 0.62187 0.0678 0.19902 0.0
C610 C 0.60863 0.03014 0.25654 0.0
C611 C 0.5903 0.04287 0.29178 0.0
C612 C 0.58746 0.06803 0.27864 0.0
C613 C 0.60312 0.08038 0.23292 0.0
C614 C 0.53655 0.02544 0.40636 0.0
C615 C 0.54797 0.01184 0.45825 0.0
C616 C 0.55009 0.03478 0.3508 0.0
C617 C 0.57527 0.03051 0.34564 0.0
C618 C 0.5864 0.0158 0.39546 0.0
C619 C 0.57292 0.00662 0.45128 0.0
H620 H 0.59386 0.59947 0.12227 0.0
H621 H 0.53583 0.64643 0.19136 0.0
H622 H 0.57987 0.5677 0.20263 0.0
H623 H 0.5219 0.61462 0.2715 0.0
H624 H 0.49265 0.54539 0.37491 0.0
H625 H 0.50415 0.57128 0.27688 0.0
H626 H 0.58014 0.56586 0.33279 0.0
H627 H 0.56877 0.54006 0.43069 0.0
C628 C 0.57796 0.60291 0.15397 0.0
C629 C 0.56608 0.62556 0.15093 0.0
C630 C 0.57002 0.58474 0.20008 0.0
C631 C 0.54987 0.58873 0.24341 0.0
C632 C 0.53736 0.61095 0.23828 0.0
C633 C 0.54545 0.62923 0.19273 0.0
C634 C 0.51185 0.54936 0.36562 0.0
C635 C 0.5298 0.54081 0.41091 0.0
C636 C 0.51838 0.5643 0.30974 0.0
C637 C 0.543 0.57068 0.29751 0.0
C638 C 0.56103 0.5611 0.34067 0.0
C639 C 0.55449 0.54643 0.39697 0.0
H640 H 0.91305 0.43032 0.24438 0.0
H641 H 0.86165 0.48152 0.33011 0.0
H642 H 0.94286 0.44257 0.3312 0.0
H643 H 0.89162 0.49357 0.41799 0.0
H644 H 0.9603 0.51983 0.53938 0.0
H645 H 0.93341 0.51313 0.43973 0.0
H646 H 0.94347 0.43486 0.45624 0.0
H647 H 0.97018 0.4414 0.55424 0.0
C648 C 0.90814 0.44431 0.28152 0.0
C649 C 0.88483 0.45468 0.281 0.0
C650 C 0.92524 0.4513 0.33131 0.0
C651 C 0.91946 0.4688 0.38186 0.0
C652 C 0.89661 0.48011 0.37944 0.0
C653 C 0.87942 0.47309 0.32942 0.0
C654 C 0.95691 0.50125 0.52115 0.0
C655 C 0.96734 0.48116 0.55481 0.0
C656 C 0.94144 0.49742 0.46447 0.0
C657 C 0.93645 0.47349 0.44007 0.0
C658 C 0.94724 0.45355 0.47312 0.0
C659 C 0.96243 0.45731 0.52974 0.0
loop_
_geom_bond_atom_site_label_1
_geom_bond_atom_site_label_2
_geom_bond_distance
_geom_bond_site_symmetry_2
_ccdc_geom_bond_type
O0 Cd1 2.300 . S
O0 C7 1.275 . S
Cd1 O0 2.300 . S
Cd1 O9 2.381 . S
Cd1 O10 2.378 1_556 S
O2 Cd3 2.385 . S
O2 C7 1.255 1_554 S
Cd3 O2 2.385 . S
Cd3 O4 2.317 . S
O4 Cd3 2.317 . S
O4 C5 1.232 . S
C5 O4 1.232 . S
C5 O6 1.218 . S
O6 C5 1.218 . S
C7 O0 1.275 . S
C7 O2 1.255 1_556 S
C8 O9 1.258 . S
C8 O10 1.256 1_556 S
O9 Cd1 2.381 . S
O9 C8 1.258 . S
O10 Cd1 2.378 1_554 S
O10 C8 1.256 1_554 S
O11 Cd12 2.300 1_655 S
O11 C18 1.275 1_655 S
Cd12 O11 2.300 1_455 S
Cd12 O20 2.381 1_455 S
Cd12 O21 2.378 . S
O13 Cd14 2.385 . S
O13 C18 1.255 . S
Cd14 O13 2.385 . S
Cd14 O15 2.317 . S
O15 Cd14 2.317 . S
O15 C16 1.232 . S
C16 O15 1.232 . S
C16 O17 1.218 . S
O17 C16 1.218 . S
C18 O11 1.275 1_455 S
C18 O13 1.255 . S
C19 O20 1.254 1_455 S
C19 O21 1.262 . S
O20 Cd12 2.381 1_655 S
O20 C19 1.254 1_655 S
O21 Cd12 2.378 . S
O21 C19 1.262 . S
O22 Cd23 2.300 1_566 S
O22 C29 1.275 1_566 S
Cd23 O22 2.300 1_544 S
Cd23 O31 2.381 1_544 S
Cd23 O32 2.378 . S
O24 Cd25 2.385 . S
O24 C29 1.255 . S
Cd25 O24 2.385 . S
Cd25 O26 2.317 . S
O26 Cd25 2.317 . S
O26 C27 1.232 . S
C27 O26 1.232 . S
C27 O28 1.218 . S
O28 C27 1.218 . S
C29 O22 1.275 1_544 S
C29 O24 1.255 . S
C30 O31 1.258 1_544 S
C30 O32 1.256 . S
O31 Cd23 2.381 1_566 S
O31 C30 1.258 1_566 S
O32 Cd23 2.378 . S
O32 C30 1.256 . S
O33 Cd34 2.300 1_556 S
O33 C40 1.275 . S
Cd34 O33 2.300 1_554 S
Cd34 O42 2.381 1_554 S
Cd34 O43 2.378 . S
O35 Cd36 2.385 . S
O35 C40 1.255 1_554 S
Cd36 O35 2.385 . S
Cd36 O37 2.317 . S
O37 Cd36 2.317 . S
O37 C38 1.232 . S
C38 O37 1.232 . S
C38 O39 1.218 . S
O39 C38 1.218 . S
C40 O33 1.275 . S
C40 O35 1.255 1_556 S
C41 O42 1.258 . S
C41 O43 1.256 1_556 S
O42 Cd34 2.381 1_556 S
O42 C41 1.258 . S
O43 Cd34 2.378 . S
O43 C41 1.256 1_554 S
O44 Cd45 2.300 . S
O44 C51 1.275 . S
Cd45 O44 2.300 . S
Cd45 O53 2.381 . S
Cd45 O54 2.378 . S
O46 Cd47 2.385 . S
O46 C51 1.255 . S
Cd47 O46 2.385 . S
Cd47 O48 2.317 . S
O48 Cd47 2.317 . S
O48 C49 1.232 . S
C49 O48 1.232 . S
C49 O50 1.218 . S
O50 C49 1.218 . S
C51 O44 1.275 . S
C51 O46 1.255 . S
C52 O53 1.258 . S
C52 O54 1.256 . S
O53 Cd45 2.381 . S
O53 C52 1.258 . S
O54 Cd45 2.378 . S
O54 C52 1.256 . S
O55 Cd56 2.300 . S
O55 C62 1.275 . S
Cd56 O55 2.300 . S
Cd56 O64 2.381 . S
Cd56 O65 2.378 . S
O57 Cd58 2.385 . S
O57 C62 1.255 . S
Cd58 O57 2.385 . S
Cd58 O59 2.317 . S
O59 Cd58 2.317 . S
O59 C60 1.232 . S
C60 O59 1.232 . S
C60 O61 1.218 . S
O61 C60 1.218 . S
C62 O55 1.275 . S
C62 O57 1.255 . S
C63 O64 1.258 . S
C63 O65 1.256 . S
O64 Cd56 2.381 . S
O64 C63 1.258 . S
O65 Cd56 2.378 . S
O65 C63 1.256 . S
O66 Cd67 2.300 . S
O66 C73 1.275 . S
Cd67 O66 2.300 . S
Cd67 O75 2.381 1_545 S
Cd67 O76 2.378 . S
O68 Cd69 2.385 . S
O68 C73 1.255 . S
Cd69 O68 2.385 . S
Cd69 O70 2.317 . S
O70 Cd69 2.317 . S
O70 C71 1.232 . S
C71 O70 1.232 . S
C71 O72 1.218 . S
O72 C71 1.218 . S
C73 O66 1.275 . S
C73 O68 1.255 . S
C74 O75 1.258 1_545 S
C74 O76 1.256 . S
O75 Cd67 2.381 1_565 S
O75 C74 1.258 1_565 S
O76 Cd67 2.378 . S
O76 C74 1.256 . S
O77 Cd78 2.300 . S
O77 C84 1.275 . S
Cd78 O77 2.300 . S
Cd78 O86 2.381 . S
Cd78 O87 2.378 . S
O79 Cd80 2.385 . S
O79 C84 1.255 . S
Cd80 O79 2.385 . S
Cd80 O81 2.317 . S
O81 Cd80 2.317 . S
O81 C82 1.232 . S
C82 O81 1.232 . S
C82 O83 1.218 . S
O83 C82 1.218 . S
C84 O77 1.275 . S
C84 O79 1.255 . S
C85 O86 1.258 . S
C85 O87 1.256 . S
O86 Cd78 2.381 . S
O86 C85 1.258 . S
O87 Cd78 2.378 . S
O87 C85 1.256 . S
O88 Zn89 1.954 . S
O88 C104 1.225 1_545 S
Zn89 O88 1.954 . S
Zn89 O90 1.949 1_545 S
Zn89 O96 1.924 . S
Zn89 O101 1.917 1_545 S
O90 Zn89 1.949 1_565 S
O90 Zn91 1.888 1_465 S
O90 Zn92 1.952 . S
O90 Zn93 1.965 1_455 S
Zn91 O90 1.888 1_645 S
Zn91 O94 1.957 . S
Zn91 O97 1.933 1_655 S
Zn91 O98 1.963 1_655 S
Zn92 O90 1.952 . S
Zn92 O99 1.938 1_565 S
Zn92 O100 1.906 . S
Zn92 O110 1.953 . S
Zn93 O90 1.965 1_655 S
Zn93 O95 1.932 . S
Zn93 O102 1.977 . S
Zn93 O103 1.910 1_655 S
O94 Zn91 1.957 . S
O94 C105 1.226 . S
O95 Zn93 1.932 . S
O95 C105 1.307 1_565 S
O96 Zn89 1.924 . S
O96 C107 1.253 . S
O97 Zn91 1.933 1_455 S
O97 C107 1.283 . S
O98 Zn91 1.963 1_455 S
O98 C106 1.303 . S
O99 Zn92 1.938 1_545 S
O99 C106 1.247 . S
O100 Zn92 1.906 . S
O100 C108 1.304 1_455 S
O101 Zn89 1.917 1_565 S
O101 C109 1.311 . S
O102 Zn93 1.977 . S
O102 C108 1.272 . S
O103 Zn93 1.910 1_455 S
O103 C109 1.231 . S
C104 O88 1.225 1_565 S
C104 O110 1.298 . S
C105 O94 1.226 . S
C105 O95 1.307 1_545 S
C106 O98 1.303 . S
C106 O99 1.247 . S
C107 O96 1.253 . S
C107 O97 1.283 . S
C108 O100 1.304 1_655 S
C108 O102 1.272 . S
C109 O101 1.311 . S
C109 O103 1.231 . S
O110 Zn92 1.953 . S
O110 C104 1.298 . S
O111 Zn112 1.953 . S
O111 C127 1.225 . S
Zn112 O111 1.953 . S
Zn112 O113 1.949 . S
Zn112 O119 1.919 . S
Zn112 O124 1.924 . S
O113 Zn112 1.949 . S
O113 Zn114 1.923 1_545 S
O113 Zn115 1.950 . S
O113 Zn116 1.945 1_545 S
Zn114 O113 1.923 1_565 S
Zn114 O117 1.933 . S
Zn114 O120 1.941 . S
Zn114 O121 1.965 . S
Zn115 O113 1.950 . S
Zn115 O122 1.938 . S
Zn115 O123 1.906 . S
Zn115 O133 1.953 . S
Zn116 O113 1.945 1_565 S
Zn116 O118 1.932 . S
Zn116 O125 1.977 . S
Zn116 O126 1.910 1_565 S
O117 Zn114 1.933 . S
O117 C128 1.226 . S
O118 Zn116 1.932 . S
O118 C128 1.307 . S
O119 Zn112 1.919 . S
O119 C130 1.253 . S
O120 Zn114 1.941 . S
O120 C130 1.283 1_565 S
O121 Zn114 1.965 . S
O121 C129 1.303 1_565 S
O122 Zn115 1.938 . S
O122 C129 1.247 . S
O123 Zn115 1.906 . S
O123 C131 1.304 1_545 S
O124 Zn112 1.924 . S
O124 C132 1.311 . S
O125 Zn116 1.977 . S
O125 C131 1.272 . S
O126 Zn116 1.910 1_545 S
O126 C132 1.231 . S
C127 O111 1.225 . S
C127 O133 1.298 . S
C128 O117 1.226 . S
C128 O118 1.307 . S
C129 O121 1.303 1_545 S
C129 O122 1.247 . S
C130 O119 1.253 . S
C130 O120 1.283 1_545 S
C131 O123 1.304 1_565 S
C131 O125 1.272 . S
C132 O124 1.311 . S
C132 O126 1.231 . S
O133 Zn115 1.953 . S
O133 C127 1.298 . S
O134 Zn135 1.953 . S
O134 C150 1.225 . S
Zn135 O134 1.953 . S
Zn135 O136 1.949 . S
Zn135 O142 1.919 . S
Zn135 O147 1.924 . S
O136 Zn135 1.949 . S
O136 Zn137 1.923 . S
O136 Zn138 1.950 . S
O136 Zn139 1.945 . S
Zn137 O136 1.923 . S
Zn137 O140 1.933 . S
Zn137 O143 1.941 . S
Zn137 O144 1.965 . S
Zn138 O136 1.950 . S
Zn138 O145 1.938 . S
Zn138 O146 1.906 . S
Zn138 O156 1.953 . S
Zn139 O136 1.945 . S
Zn139 O141 1.932 . S
Zn139 O148 1.977 . S
Zn139 O149 1.910 . S
O140 Zn137 1.933 . S
O140 C151 1.226 . S
O141 Zn139 1.932 . S
O141 C151 1.307 . S
O142 Zn135 1.919 . S
O142 C153 1.253 . S
O143 Zn137 1.941 . S
O143 C153 1.283 . S
O144 Zn137 1.965 . S
O144 C152 1.303 . S
O145 Zn138 1.938 . S
O145 C152 1.247 . S
O146 Zn138 1.906 . S
O146 C154 1.304 . S
O147 Zn135 1.924 . S
O147 C155 1.311 . S
O148 Zn139 1.977 . S
O148 C154 1.272 . S
O149 Zn139 1.910 . S
O149 C155 1.231 . S
C150 O134 1.225 . S
C150 O156 1.298 . S
C151 O140 1.226 . S
C151 O141 1.307 . S
C152 O144 1.303 . S
C152 O145 1.247 . S
C153 O142 1.253 . S
C153 O143 1.283 . S
C154 O146 1.304 . S
C154 O148 1.272 . S
C155 O147 1.311 . S
C155 O149 1.231 . S
O156 Zn138 1.953 . S
O156 C150 1.298 . S
O157 Zn158 1.953 1_655 S
O157 C173 1.225 . S
Zn158 O157 1.953 1_455 S
Zn158 O159 1.949 . S
Zn158 O165 1.919 . S
Zn158 O170 1.924 . S
O159 Zn158 1.949 . S
O159 Zn160 1.917 1_455 S
O159 Zn161 1.929 1_455 S
O159 Zn162 1.973 . S
Zn160 O159 1.917 1_655 S
Zn160 O163 1.933 1_655 S
Zn160 O166 1.941 . S
Zn160 O167 1.965 . S
Zn161 O159 1.929 1_655 S
Zn161 O168 1.938 . S
Zn161 O169 1.906 . S
Zn161 O179 1.953 . S
Zn162 O159 1.973 . S
Zn162 O164 1.932 . S
Zn162 O171 1.977 . S
Zn162 O172 1.910 . S
O163 Zn160 1.933 1_455 S
O163 C174 1.226 . S
O164 Zn162 1.932 . S
O164 C174 1.307 . S
O165 Zn158 1.919 . S
O165 C176 1.252 1_455 S
O166 Zn160 1.941 . S
O166 C176 1.287 . S
O167 Zn160 1.965 . S
O167 C175 1.303 . S
O168 Zn161 1.938 . S
O168 C175 1.247 . S
O169 Zn161 1.906 . S
O169 C177 1.304 1_655 S
O170 Zn158 1.924 . S
O170 C178 1.311 . S
O171 Zn162 1.977 . S
O171 C177 1.272 . S
O172 Zn162 1.910 . S
O172 C178 1.231 . S
C173 O157 1.225 . S
C173 O179 1.298 . S
C174 O163 1.226 . S
C174 O164 1.307 . S
C175 O167 1.303 . S
C175 O168 1.247 . S
C176 O165 1.252 1_655 S
C176 O166 1.287 . S
C177 O169 1.304 1_455 S
C177 O171 1.272 . S
C178 O170 1.311 . S
C178 O172 1.231 . S
O179 Zn161 1.953 . S
O179 C173 1.298 . S
H180 C188 0.950 . S
H181 C193 0.950 . S
H182 C190 0.950 . S
H183 C192 0.950 . S
H184 C194 0.950 . S
H185 C196 0.950 . S
H186 C198 0.950 . S
H187 C199 0.950 . S
C188 H180 0.950 . S
C188 C189 1.386 1_565 S
C188 C190 1.391 . S
C189 C188 1.386 1_545 S
C189 C193 1.393 . S
C190 H182 0.950 . S
C190 C188 1.391 . S
C190 C191 1.400 1_565 S
C191 C190 1.400 1_545 S
C191 C192 1.398 . S
C191 C197 1.494 . S
C192 H183 0.950 . S
C192 C191 1.398 . S
C192 C193 1.391 . S
C193 H181 0.950 . S
C193 C189 1.393 . S
C193 C192 1.391 . S
C194 H184 0.950 . S
C194 C195 1.386 1_545 S
C194 C196 1.391 . S
C195 C194 1.386 1_565 S
C195 C199 1.393 . S
C196 H185 0.950 . S
C196 C194 1.391 . S
C196 C197 1.413 . S
C197 C191 1.494 . S
C197 C196 1.413 . S
C197 C198 1.383 1_545 S
C198 H186 0.950 . S
C198 C197 1.383 1_565 S
C198 C199 1.391 . S
C199 H187 0.950 . S
C199 C195 1.393 . S
C199 C198 1.391 . S
H200 C208 0.950 . S
H201 C213 0.950 . S
H202 C210 0.950 . S
H203 C212 0.950 . S
H204 C214 0.950 . S
H205 C216 0.950 . S
H206 C218 0.950 . S
H207 C219 0.950 . S
C208 H200 0.950 . S
C208 C209 1.386 . S
C208 C210 1.391 . S
C209 C208 1.386 . S
C209 C213 1.393 . S
C210 H202 0.950 . S
C210 C208 1.391 . S
C210 C211 1.400 . S
C211 C210 1.400 . S
C211 C212 1.398 . S
C211 C217 1.491 . S
C212 H203 0.950 . S
C212 C211 1.398 . S
C212 C213 1.391 . S
C213 H201 0.950 . S
C213 C209 1.393 . S
C213 C212 1.391 . S
C214 H204 0.950 . S
C214 C215 1.386 . S
C214 C216 1.391 . S
C215 C214 1.386 . S
C215 C219 1.393 . S
C216 H205 0.950 . S
C216 C214 1.391 . S
C216 C217 1.400 . S
C217 C211 1.491 . S
C217 C216 1.400 . S
C217 C218 1.398 . S
C218 H206 0.950 . S
C218 C217 1.398 . S
C218 C219 1.391 . S
C219 H207 0.950 . S
C219 C215 1.393 . S
C219 C218 1.391 . S
H220 C228 0.950 . S
H221 C233 0.950 . S
H222 C230 0.950 . S
H223 C232 0.950 . S
H224 C234 0.950 . S
H225 C236 0.950 . S
H226 C238 0.950 . S
H227 C239 0.950 . S
C228 H220 0.950 . S
C228 C229 1.386 . S
C228 C230 1.391 . S
C229 C228 1.386 . S
C229 C233 1.393 . S
C230 H222 0.950 . S
C230 C228 1.391 . S
C230 C231 1.400 . S
C231 C230 1.400 . S
C231 C232 1.398 . S
C231 C237 1.491 . S
C232 H223 0.950 . S
C232 C231 1.398 . S
C232 C233 1.391 . S
C233 H221 0.950 . S
C233 C229 1.393 . S
C233 C232 1.391 . S
C234 H224 0.950 . S
C234 C235 1.386 . S
C234 C236 1.391 . S
C235 C234 1.386 . S
C235 C239 1.393 . S
C236 H225 0.950 . S
C236 C234 1.391 . S
C236 C237 1.400 . S
C237 C231 1.491 . S
C237 C236 1.400 . S
C237 C238 1.398 . S
C238 H226 0.950 . S
C238 C237 1.398 . S
C238 C239 1.391 . S
C239 H227 0.950 . S
C239 C235 1.393 . S
C239 C238 1.391 . S
H240 C248 0.950 . S
H241 C253 0.950 . S
H242 C250 0.950 . S
H243 C252 0.950 . S
H244 C254 0.950 . S
H245 C256 0.950 . S
H246 C258 0.950 . S
H247 C259 0.950 . S
C248 H240 0.950 . S
C248 C249 1.386 . S
C248 C250 1.391 . S
C249 C248 1.386 . S
C249 C253 1.393 . S
C250 H242 0.950 . S
C250 C248 1.391 . S
C250 C251 1.400 . S
C251 C250 1.400 . S
C251 C252 1.398 . S
C251 C257 1.491 . S
C252 H243 0.950 . S
C252 C251 1.398 . S
C252 C253 1.391 . S
C253 H241 0.950 . S
C253 C249 1.393 . S
C253 C252 1.391 . S
C254 H244 0.950 . S
C254 C255 1.386 . S
C254 C256 1.391 . S
C255 C254 1.386 . S
C255 C259 1.393 . S
C256 H245 0.950 . S
C256 C254 1.391 . S
C256 C257 1.400 . S
C257 C251 1.491 . S
C257 C256 1.400 . S
C257 C258 1.398 . S
C258 H246 0.950 . S
C258 C257 1.398 . S
C258 C259 1.391 . S
C259 H247 0.950 . S
C259 C255 1.393 . S
C259 C258 1.391 . S
H260 C268 0.950 . S
H261 C273 0.950 . S
H262 C270 0.950 1_554 S
H263 C272 0.950 . S
H264 C274 0.950 . S
H265 C276 0.950 . S
H266 C278 0.950 . S
H267 C279 0.950 . S
C268 H260 0.950 . S
C268 C269 1.386 1_554 S
C268 C270 1.391 1_554 S
C269 C268 1.386 1_556 S
C269 C273 1.393 1_565 S
C270 H262 0.950 1_556 S
C270 C268 1.391 1_556 S
C270 C271 1.395 1_565 S
C271 C270 1.395 1_545 S
C271 C272 1.404 . S
C271 C277 1.491 . S
C272 H263 0.950 . S
C272 C271 1.404 . S
C272 C273 1.391 . S
C273 H261 0.950 . S
C273 C269 1.393 1_545 S
C273 C272 1.391 . S
C274 H264 0.950 . S
C274 C275 1.386 . S
C274 C276 1.391 . S
C275 C274 1.386 . S
C275 C279 1.393 1_545 S
C276 H265 0.950 . S
C276 C274 1.391 . S
C276 C277 1.400 . S
C277 C271 1.491 . S
C277 C276 1.400 . S
C277 C278 1.398 1_545 S
C278 H266 0.950 . S
C278 C277 1.398 1_565 S
C278 C279 1.391 . S
C279 H267 0.950 . S
C279 C275 1.393 1_565 S
C279 C278 1.391 . S
H280 C288 0.950 . S
H281 C293 0.950 . S
H282 C290 0.950 . S
H283 C292 0.950 . S
H284 C294 0.950 . S
H285 C296 0.950 . S
H286 C298 0.950 . S
H287 C299 0.950 . S
C288 H280 0.950 . S
C288 C289 1.386 . S
C288 C290 1.391 . S
C289 C288 1.386 . S
C289 C293 1.393 . S
C290 H282 0.950 . S
C290 C288 1.391 . S
C290 C291 1.400 . S
C291 C290 1.400 . S
C291 C292 1.398 . S
C291 C297 1.491 . S
C292 H283 0.950 . S
C292 C291 1.398 . S
C292 C293 1.391 . S
C293 H281 0.950 . S
C293 C289 1.393 . S
C293 C292 1.391 . S
C294 H284 0.950 . S
C294 C295 1.386 . S
C294 C296 1.391 . S
C295 C294 1.386 . S
C295 C299 1.393 . S
C296 H285 0.950 . S
C296 C294 1.391 . S
C296 C297 1.400 . S
C297 C291 1.491 . S
C297 C296 1.400 . S
C297 C298 1.398 . S
C298 H286 0.950 . S
C298 C297 1.398 . S
C298 C299 1.391 . S
C299 H287 0.950 . S
C299 C295 1.393 . S
C299 C298 1.391 . S
H300 C308 0.950 . S
H301 C313 0.950 1_554 S
H302 C310 0.950 . S
H303 C312 0.950 . S
H304 C314 0.950 . S
H305 C316 0.950 . S
H306 C318 0.950 . S
H307 C319 0.950 . S
C308 H300 0.950 . S
C308 C309 1.386 . S
C308 C310 1.391 . S
C309 C308 1.386 . S
C309 C313 1.393 . S
C310 H302 0.950 . S
C310 C308 1.391 . S
C310 C311 1.400 . S
C311 C310 1.400 . S
C311 C312 1.398 . S
C311 C317 1.491 . S
C312 H303 0.950 . S
C312 C311 1.398 . S
C312 C313 1.391 . S
C313 H301 0.950 1_556 S
C313 C309 1.393 . S
C313 C312 1.391 . S
C314 H304 0.950 . S
C314 C315 1.386 . S
C314 C316 1.391 . S
C315 C314 1.386 . S
C315 C319 1.393 . S
C316 H305 0.950 . S
C316 C314 1.391 . S
C316 C317 1.400 . S
C317 C311 1.491 . S
C317 C316 1.400 . S
C317 C318 1.398 . S
C318 H306 0.950 . S
C318 C317 1.398 . S
C318 C319 1.391 . S
C319 H307 0.950 . S
C319 C315 1.393 . S
C319 C318 1.391 . S
H320 C328 0.950 . S
H321 C333 0.950 . S
H322 C330 0.950 . S
H323 C332 0.950 . S
H324 C334 0.950 . S
H325 C336 0.950 . S
H326 C338 0.950 . S
H327 C339 0.950 . S
C328 H320 0.950 . S
C328 C329 1.386 1_556 S
C328 C330 1.391 . S
C329 C328 1.386 1_554 S
C329 C333 1.393 1_655 S
C330 H322 0.950 . S
C330 C328 1.391 . S
C330 C331 1.392 1_655 S
C331 C330 1.392 1_455 S
C331 C332 1.406 . S
C331 C337 1.490 . S
C332 H323 0.950 . S
C332 C331 1.406 . S
C332 C333 1.391 1_556 S
C333 H321 0.950 . S
C333 C329 1.393 1_455 S
C333 C332 1.391 1_554 S
C334 H324 0.950 . S
C334 C335 1.386 . S
C334 C336 1.391 . S
C335 C334 1.386 . S
C335 C339 1.393 1_455 S
C336 H325 0.950 . S
C336 C334 1.391 . S
C336 C337 1.433 . S
C337 C331 1.490 . S
C337 C336 1.433 . S
C337 C338 1.368 1_455 S
C338 H326 0.950 . S
C338 C337 1.368 1_655 S
C338 C339 1.391 . S
C339 H327 0.950 . S
C339 C335 1.393 1_655 S
C339 C338 1.391 . S
H340 C348 0.950 . S
H341 C353 0.950 . S
H342 C350 0.950 . S
H343 C352 0.950 . S
H344 C354 0.950 . S
H345 C356 0.950 . S
H346 C358 0.950 . S
H347 C359 0.950 . S
C348 H340 0.950 . S
C348 C349 1.386 . S
C348 C350 1.391 . S
C349 C348 1.386 . S
C349 C353 1.393 . S
C350 H342 0.950 . S
C350 C348 1.391 . S
C350 C351 1.400 . S
C351 C350 1.400 . S
C351 C352 1.398 . S
C351 C357 1.491 . S
C352 H343 0.950 . S
C352 C351 1.398 . S
C352 C353 1.391 . S
C353 H341 0.950 . S
C353 C349 1.393 . S
C353 C352 1.391 . S
C354 H344 0.950 . S
C354 C355 1.386 . S
C354 C356 1.391 . S
C355 C354 1.386 . S
C355 C359 1.393 . S
C356 H345 0.950 . S
C356 C354 1.391 . S
C356 C357 1.400 . S
C357 C351 1.491 . S
C357 C356 1.400 . S
C357 C358 1.398 . S
C358 H346 0.950 . S
C358 C357 1.398 . S
C358 C359 1.391 . S
C359 H347 0.950 . S
C359 C355 1.393 . S
C359 C358 1.391 . S
H360 C368 0.950 . S
H361 C373 0.950 . S
H362 C370 0.950 . S
H363 C372 0.950 . S
H364 C374 0.950 . S
H365 C376 0.950 . S
H366 C378 0.950 . S
H367 C379 0.950 . S
C368 H360 0.950 . S
C368 C369 1.386 1_565 S
C368 C370 1.391 . S
C369 C368 1.386 1_545 S
C369 C373 1.393 . S
C370 H362 0.950 . S
C370 C368 1.391 . S
C370 C371 1.400 1_565 S
C371 C370 1.400 1_545 S
C371 C372 1.398 . S
C371 C377 1.491 . S
C372 H363 0.950 . S
C372 C371 1.398 . S
C372 C373 1.391 . S
C373 H361 0.950 . S
C373 C369 1.393 . S
C373 C372 1.391 . S
C374 H364 0.950 . S
C374 C375 1.386 . S
C374 C376 1.391 . S
C375 C374 1.386 . S
C375 C379 1.393 1_545 S
C376 H365 0.950 . S
C376 C374 1.391 . S
C376 C377 1.400 . S
C377 C371 1.491 . S
C377 C376 1.400 . S
C377 C378 1.398 1_545 S
C378 H366 0.950 . S
C378 C377 1.398 1_565 S
C378 C379 1.391 . S
C379 H367 0.950 . S
C379 C375 1.393 1_565 S
C379 C378 1.391 . S
H380 C388 0.950 . S
H381 C393 0.950 . S
H382 C390 0.950 . S
H383 C392 0.950 . S
H384 C394 0.950 . S
H385 C396 0.950 . S
H386 C398 0.950 . S
H387 C399 0.950 . S
C388 H380 0.950 . S
C388 C389 1.386 . S
C388 C390 1.391 . S
C389 C388 1.386 . S
C389 C393 1.393 . S
C390 H382 0.950 . S
C390 C388 1.391 . S
C390 C391 1.400 . S
C391 C390 1.400 . S
C391 C392 1.398 . S
C391 C397 1.491 . S
C392 H383 0.950 . S
C392 C391 1.398 . S
C392 C393 1.391 . S
C393 H381 0.950 . S
C393 C389 1.393 . S
C393 C392 1.391 . S
C394 H384 0.950 . S
C394 C395 1.386 . S
C394 C396 1.391 . S
C395 C394 1.386 . S
C395 C399 1.393 . S
C396 H385 0.950 . S
C396 C394 1.391 . S
C396 C397 1.400 . S
C397 C391 1.491 . S
C397 C396 1.400 . S
C397 C398 1.398 . S
C398 H386 0.950 . S
C398 C397 1.398 . S
C398 C399 1.391 . S
C399 H387 0.950 . S
C399 C395 1.393 . S
C399 C398 1.391 . S
H400 C408 0.950 . S
H401 C413 0.950 . S
H402 C410 0.950 . S
H403 C412 0.950 . S
H404 C414 0.950 . S
H405 C416 0.950 . S
H406 C418 0.950 . S
H407 C419 0.950 . S
C408 H400 0.950 . S
C408 C409 1.386 . S
C408 C410 1.391 . S
C409 C408 1.386 . S
C409 C413 1.393 . S
C410 H402 0.950 . S
C410 C408 1.391 . S
C410 C411 1.400 . S
C411 C410 1.400 . S
C411 C412 1.398 . S
C411 C417 1.491 . S
C412 H403 0.950 . S
C412 C411 1.398 . S
C412 C413 1.391 . S
C413 H401 0.950 . S
C413 C409 1.393 . S
C413 C412 1.391 . S
C414 H404 0.950 . S
C414 C415 1.386 . S
C414 C416 1.391 . S
C415 C414 1.386 . S
C415 C419 1.393 . S
C416 H405 0.950 . S
C416 C414 1.391 . S
C416 C417 1.400 . S
C417 C411 1.491 . S
C417 C416 1.400 . S
C417 C418 1.398 . S
C418 H406 0.950 . S
C418 C417 1.398 . S
C418 C419 1.391 . S
C419 H407 0.950 . S
C419 C415 1.393 . S
C419 C418 1.391 . S
H420 C428 0.950 . S
H421 C433 0.950 . S
H422 C430 0.950 . S
H423 C432 0.950 . S
H424 C434 0.950 . S
H425 C436 0.950 . S
H426 C438 0.950 1_554 S
H427 C439 0.950 . S
C428 H420 0.950 . S
C428 C429 1.386 . S
C428 C430 1.391 . S
C429 C428 1.386 . S
C429 C433 1.393 1_554 S
C430 H422 0.950 . S
C430 C428 1.391 . S
C430 C431 1.400 1_554 S
C431 C430 1.400 1_556 S
C431 C432 1.398 . S
C431 C437 1.491 . S
C432 H423 0.950 . S
C432 C431 1.398 . S
C432 C433 1.391 . S
C433 H421 0.950 . S
C433 C429 1.393 1_556 S
C433 C432 1.391 . S
C434 H424 0.950 . S
C434 C435 1.386 . S
C434 C436 1.391 . S
C435 C434 1.386 . S
C435 C439 1.393 . S
C436 H425 0.950 . S
C436 C434 1.391 . S
C436 C437 1.400 . S
C437 C431 1.491 . S
C437 C436 1.400 . S
C437 C438 1.398 . S
C438 H426 0.950 1_556 S
C438 C437 1.398 . S
C438 C439 1.391 . S
C439 H427 0.950 . S
C439 C435 1.393 . S
C439 C438 1.391 . S
H440 C448 0.950 . S
H441 C453 0.950 . S
H442 C450 0.950 1_554 S
H443 C452 0.950 . S
H444 C454 0.950 . S
H445 C456 0.950 . S
H446 C458 0.950 . S
H447 C459 0.950 . S
C448 H440 0.950 . S
C448 C449 1.382 1_564 S
C448 C450 1.391 1_564 S
C449 C448 1.382 1_546 S
C449 C453 1.411 . S
C450 H442 0.950 1_556 S
C450 C448 1.391 1_546 S
C450 C451 1.400 . S
C451 C450 1.400 . S
C451 C452 1.398 . S
C451 C457 1.491 . S
C452 H443 0.950 . S
C452 C451 1.398 . S
C452 C453 1.391 . S
C453 H441 0.950 . S
C453 C449 1.411 . S
C453 C452 1.391 . S
C454 H444 0.950 . S
C454 C455 1.386 . S
C454 C456 1.391 . S
C455 C454 1.386 . S
C455 C459 1.393 . S
C456 H445 0.950 . S
C456 C454 1.391 . S
C456 C457 1.400 . S
C457 C451 1.491 . S
C457 C456 1.400 . S
C457 C458 1.398 . S
C458 H446 0.950 . S
C458 C457 1.398 . S
C458 C459 1.391 . S
C459 H447 0.950 . S
C459 C455 1.393 . S
C459 C458 1.391 . S
H460 C468 0.950 . S
H461 C473 0.950 . S
H462 C470 0.950 . S
H463 C472 0.950 . S
H464 C474 0.950 . S
H465 C476 0.950 . S
H466 C478 0.950 . S
H467 C479 0.950 . S
C468 H460 0.950 . S
C468 C469 1.386 . S
C468 C470 1.391 . S
C469 C468 1.386 . S
C469 C473 1.393 . S
C470 H462 0.950 . S
C470 C468 1.391 . S
C470 C471 1.400 . S
C471 C470 1.400 . S
C471 C472 1.398 . S
C471 C477 1.491 . S
C472 H463 0.950 . S
C472 C471 1.398 . S
C472 C473 1.391 . S
C473 H461 0.950 . S
C473 C469 1.393 . S
C473 C472 1.391 . S
C474 H464 0.950 . S
C474 C475 1.386 . S
C474 C476 1.391 . S
C475 C474 1.386 . S
C475 C479 1.393 . S
C476 H465 0.950 . S
C476 C474 1.391 . S
C476 C477 1.400 . S
C477 C471 1.491 . S
C477 C476 1.400 . S
C477 C478 1.398 . S
C478 H466 0.950 . S
C478 C477 1.398 . S
C478 C479 1.391 . S
C479 H467 0.950 . S
C479 C475 1.393 . S
C479 C478 1.391 . S
H480 C488 0.950 1_554 S
H481 C493 0.950 . S
H482 C490 0.950 . S
H483 C492 0.950 . S
H484 C494 0.950 . S
H485 C496 0.950 . S
H486 C498 0.950 . S
H487 C499 0.950 . S
C488 H480 0.950 1_556 S
C488 C489 1.386 . S
C488 C490 1.391 . S
C489 C488 1.386 . S
C489 C493 1.393 . S
C490 H482 0.950 . S
C490 C488 1.391 . S
C490 C491 1.400 . S
C491 C490 1.400 . S
C491 C492 1.398 . S
C491 C497 1.491 . S
C492 H483 0.950 . S
C492 C491 1.398 . S
C492 C493 1.391 . S
C493 H481 0.950 . S
C493 C489 1.393 . S
C493 C492 1.391 . S
C494 H484 0.950 . S
C494 C495 1.386 . S
C494 C496 1.391 . S
C495 C494 1.386 . S
C495 C499 1.393 . S
C496 H485 0.950 . S
C496 C494 1.391 . S
C496 C497 1.400 . S
C497 C491 1.491 . S
C497 C496 1.400 . S
C497 C498 1.398 . S
C498 H486 0.950 . S
C498 C497 1.398 . S
C498 C499 1.391 . S
C499 H487 0.950 . S
C499 C495 1.393 . S
C499 C498 1.391 . S
H500 C508 0.950 . S
H501 C513 0.950 . S
H502 C510 0.950 . S
H503 C512 0.950 . S
H504 C514 0.950 1_655 S
H505 C516 0.950 . S
H506 C518 0.950 . S
H507 C519 0.950 . S
C508 H500 0.950 . S
C508 C509 1.386 . S
C508 C510 1.391 . S
C509 C508 1.386 . S
C509 C513 1.393 . S
C510 H502 0.950 . S
C510 C508 1.391 . S
C510 C511 1.400 . S
C511 C510 1.400 . S
C511 C512 1.398 . S
C511 C517 1.491 . S
C512 H503 0.950 . S
C512 C511 1.398 . S
C512 C513 1.391 . S
C513 H501 0.950 . S
C513 C509 1.393 . S
C513 C512 1.391 . S
C514 H504 0.950 1_455 S
C514 C515 1.386 . S
C514 C516 1.391 . S
C515 C514 1.386 . S
C515 C519 1.393 . S
C516 H505 0.950 . S
C516 C514 1.391 . S
C516 C517 1.400 1_556 S
C517 C511 1.491 . S
C517 C516 1.400 1_554 S
C517 C518 1.398 . S
C518 H506 0.950 . S
C518 C517 1.398 . S
C518 C519 1.391 1_554 S
C519 H507 0.950 . S
C519 C515 1.393 . S
C519 C518 1.391 1_556 S
H520 C528 0.950 . S
H521 C533 0.950 . S
H522 C530 0.950 . S
H523 C532 0.950 1_556 S
H524 C534 0.950 . S
H525 C536 0.950 . S
H526 C538 0.950 . S
H527 C539 0.950 . S
C528 H520 0.950 . S
C528 C529 1.386 . S
C528 C530 1.391 . S
C529 C528 1.386 . S
C529 C533 1.393 1_545 S
C530 H522 0.950 . S
C530 C528 1.391 . S
C530 C531 1.400 . S
C531 C530 1.400 . S
C531 C532 1.398 1_545 S
C531 C537 1.491 1_554 S
C532 H523 0.950 1_554 S
C532 C531 1.398 1_565 S
C532 C533 1.391 . S
C533 H521 0.950 . S
C533 C529 1.393 1_565 S
C533 C532 1.391 . S
C534 H524 0.950 . S
C534 C535 1.386 1_565 S
C534 C536 1.391 . S
C535 C534 1.386 1_545 S
C535 C539 1.393 . S
C536 H525 0.950 . S
C536 C534 1.391 . S
C536 C537 1.400 1_565 S
C537 C531 1.491 1_556 S
C537 C536 1.400 1_545 S
C537 C538 1.398 1_556 S
C538 H526 0.950 . S
C538 C537 1.398 1_554 S
C538 C539 1.391 1_554 S
C539 H527 0.950 . S
C539 C535 1.393 . S
C539 C538 1.391 1_556 S
H540 C548 0.950 . S
H541 C553 0.950 . S
H542 C550 0.950 . S
H543 C552 0.950 . S
H544 C554 0.950 . S
H545 C556 0.950 . S
H546 C558 0.950 . S
H547 C559 0.950 . S
C548 H540 0.950 . S
C548 C549 1.386 . S
C548 C550 1.391 . S
C549 C548 1.386 . S
C549 C553 1.393 . S
C550 H542 0.950 . S
C550 C548 1.391 . S
C550 C551 1.400 . S
C551 C550 1.400 . S
C551 C552 1.398 . S
C551 C557 1.491 1_554 S
C552 H543 0.950 . S
C552 C551 1.398 . S
C552 C553 1.391 . S
C553 H541 0.950 . S
C553 C549 1.393 . S
C553 C552 1.391 . S
C554 H544 0.950 . S
C554 C555 1.386 . S
C554 C556 1.391 . S
C555 C554 1.386 . S
C555 C559 1.393 . S
C556 H545 0.950 . S
C556 C554 1.391 . S
C556 C557 1.400 . S
C557 C551 1.491 1_556 S
C557 C556 1.400 . S
C557 C558 1.398 . S
C558 H546 0.950 . S
C558 C557 1.398 . S
C558 C559 1.391 . S
C559 H547 0.950 . S
C559 C555 1.393 . S
C559 C558 1.391 . S
H560 C568 0.950 . S
H561 C573 0.950 . S
H562 C570 0.950 1_556 S
H563 C572 0.950 . S
H564 C574 0.950 . S
H565 C576 0.950 1_554 S
H566 C578 0.950 . S
H567 C579 0.950 . S
C568 H560 0.950 . S
C568 C569 1.386 . S
C568 C570 1.391 . S
C569 C568 1.386 . S
C569 C573 1.393 . S
C570 H562 0.950 1_554 S
C570 C568 1.391 . S
C570 C571 1.400 . S
C571 C570 1.400 . S
C571 C572 1.398 . S
C571 C577 1.491 1_554 S
C572 H563 0.950 . S
C572 C571 1.398 . S
C572 C573 1.391 . S
C573 H561 0.950 . S
C573 C569 1.393 . S
C573 C572 1.391 . S
C574 H564 0.950 . S
C574 C575 1.386 . S
C574 C576 1.391 . S
C575 C574 1.386 . S
C575 C579 1.393 . S
C576 H565 0.950 1_556 S
C576 C574 1.391 . S
C576 C577 1.400 . S
C577 C571 1.491 1_556 S
C577 C576 1.400 . S
C577 C578 1.398 . S
C578 H566 0.950 . S
C578 C577 1.398 . S
C578 C579 1.391 . S
C579 H567 0.950 . S
C579 C575 1.393 . S
C579 C578 1.391 . S
H580 C588 0.950 . S
H581 C593 0.950 . S
H582 C590 0.950 . S
H583 C592 0.950 . S
H584 C594 0.950 . S
H585 C596 0.950 . S
H586 C598 0.950 . S
H587 C599 0.950 . S
C588 H580 0.950 . S
C588 C589 1.399 . S
C588 C590 1.391 . S
C589 C588 1.399 . S
C589 C593 1.382 1_655 S
C590 H582 0.950 . S
C590 C588 1.391 . S
C590 C591 1.400 . S
C591 C590 1.400 . S
C591 C592 1.398 1_655 S
C591 C597 1.491 . S
C592 H583 0.950 . S
C592 C591 1.398 1_455 S
C592 C593 1.391 . S
C593 H581 0.950 . S
C593 C589 1.382 1_455 S
C593 C592 1.391 . S
C594 H584 0.950 . S
C594 C595 1.386 1_455 S
C594 C596 1.391 . S
C595 C594 1.386 1_655 S
C595 C599 1.393 . S
C596 H585 0.950 . S
C596 C594 1.391 . S
C596 C597 1.400 1_455 S
C597 C591 1.491 . S
C597 C596 1.400 1_655 S
C597 C598 1.398 . S
C598 H586 0.950 . S
C598 C597 1.398 . S
C598 C599 1.391 . S
C599 H587 0.950 . S
C599 C595 1.393 . S
C599 C598 1.391 . S
H600 C608 0.950 . S
H601 C613 0.950 . S
H602 C610 0.950 . S
H603 C612 0.950 . S
H604 C614 0.950 . S
H605 C616 0.950 . S
H606 C618 0.950 . S
H607 C619 0.950 . S
C608 H600 0.950 . S
C608 C609 1.386 . S
C608 C610 1.391 . S
C609 C608 1.386 . S
C609 C613 1.393 1_565 S
C610 H602 0.950 . S
C610 C608 1.391 . S
C610 C611 1.400 . S
C611 C610 1.400 . S
C611 C612 1.398 1_565 S
C611 C617 1.491 . S
C612 H603 0.950 . S
C612 C611 1.398 1_545 S
C612 C613 1.391 . S
C613 H601 0.950 . S
C613 C609 1.393 1_545 S
C613 C612 1.391 . S
C614 H604 0.950 . S
C614 C615 1.386 1_545 S
C614 C616 1.391 . S
C615 C614 1.386 1_565 S
C615 C619 1.393 . S
C616 H605 0.950 . S
C616 C614 1.391 . S
C616 C617 1.400 1_545 S
C617 C611 1.491 . S
C617 C616 1.400 1_565 S
C617 C618 1.398 . S
C618 H606 0.950 . S
C618 C617 1.398 . S
C618 C619 1.391 . S
C619 H607 0.950 . S
C619 C615 1.393 . S
C619 C618 1.391 . S
H620 C628 0.950 . S
H621 C633 0.950 . S
H622 C630 0.950 . S
H623 C632 0.950 . S
H624 C634 0.950 . S
H625 C636 0.950 . S
H626 C638 0.950 . S
H627 C639 0.950 . S
C628 H620 0.950 . S
C628 C629 1.386 . S
C628 C630 1.391 . S
C629 C628 1.386 . S
C629 C633 1.393 . S
C630 H622 0.950 . S
C630 C628 1.391 . S
C630 C631 1.400 . S
C631 C630 1.400 . S
C631 C632 1.398 . S
C631 C637 1.491 . S
C632 H623 0.950 . S
C632 C631 1.398 . S
C632 C633 1.391 . S
C633 H621 0.950 . S
C633 C629 1.393 . S
C633 C632 1.391 . S
C634 H624 0.950 . S
C634 C635 1.386 . S
C634 C636 1.391 . S
C635 C634 1.386 . S
C635 C639 1.393 . S
C636 H625 0.950 . S
C636 C634 1.391 . S
C636 C637 1.400 . S
C637 C631 1.491 . S
C637 C636 1.400 . S
C637 C638 1.398 . S
C638 H626 0.950 . S
C638 C637 1.398 . S
C638 C639 1.391 . S
C639 H627 0.950 . S
C639 C635 1.393 . S
C639 C638 1.391 . S
H640 C648 0.950 . S
H641 C653 0.950 . S
H642 C650 0.950 . S
H643 C652 0.950 . S
H644 C654 0.950 . S
H645 C656 0.950 . S
H646 C658 0.950 . S
H647 C659 0.950 . S
C648 H640 0.950 . S
C648 C649 1.386 . S
C648 C650 1.391 . S
C649 C648 1.386 . S
C649 C653 1.393 . S
C650 H642 0.950 . S
C650 C648 1.391 . S
C650 C651 1.400 . S
C651 C650 1.400 . S
C651 C652 1.398 . S
C651 C657 1.491 . S
C652 H643 0.950 . S
C652 C651 1.398 . S
C652 C653 1.391 . S
C653 H641 0.950 . S
C653 C649 1.393 . S
C653 C652 1.391 . S
C654 H644 0.950 . S
C654 C655 1.386 . S
C654 C656 1.391 . S
C655 C654 1.386 . S
C655 C659 1.393 . S
C656 H645 0.950 . S
C656 C654 1.391 . S
C656 C657 1.400 . S
C657 C651 1.491 . S
C657 C656 1.400 . S
C657 C658 1.398 . S
C658 H646 0.950 . S
C658 C657 1.398 . S
C658 C659 1.391 . S
C659 H647 0.950 . S
C659 C655 1.393 . S
C659 C658 1.391 . S
C189 C74 1.527 . S
C195 C104 1.534 . S
C215 C127 1.599 . S
C209 C85 1.601 . S
C235 C150 1.604 . S
C229 C52 1.600 . S
C255 C177 1.494 . S
C249 C63 1.571 . S
C275 C105 1.527 . S
C269 C30 1.512 1_566 S
C289 C41 1.455 . S
C295 C128 1.477 . S
C309 C8 1.424 . S
C315 C151 1.444 . S
C329 C19 1.525 1_655 S
C335 C176 1.530 1_455 S
C355 C106 0.393 . S
C349 C62 0.389 . S
C375 C129 0.408 . S
C369 C73 0.429 . S
C395 C152 0.443 . S
C389 C84 0.444 . S
C409 C51 0.540 . S
C415 C178 0.627 . S
C429 C18 0.673 . S
C435 C109 0.675 . S
C455 C132 0.656 . S
C449 C29 0.666 1_556 S
C475 C155 0.688 . S
C469 C40 0.669 . S
C489 C7 0.433 . S
C495 C175 0.393 . S
C509 C60 1.433 . S
C515 C107 1.539 . S
C529 C71 1.322 . S
C535 C130 1.502 . S
C555 C153 1.524 . S
C549 C82 1.351 . S
C575 C174 1.356 . S
C569 C49 1.105 . S
C589 C16 1.396 1_655 S
C595 C108 1.513 . S
C615 C131 1.470 . S
C609 C27 1.378 1_565 S
C635 C154 1.470 . S
C629 C38 1.319 . S
C649 C5 1.461 . S
C655 C173 1.706 . S
