# Generated by pormake.
# Topology rtl, (3,6)-cn, num edge types: 1
# Building blocks:
#     Node 0, Type 0, BuildingBlock: WUSLED_clean_sbu_0, # of connection points: 3
#     Node 1, Type 0, BuildingBlock: WUSLED_clean_sbu_0, # of connection points: 3
#     Node 2, Type 0, BuildingBlock: WUSLED_clean_sbu_0, # of connection points: 3
#     Node 3, Type 0, BuildingBlock: WUSLED_clean_sbu_0, # of connection points: 3
#     Node 4, Type 1, BuildingBlock: KUMBOL_clean_sbu_1, # of connection points: 6
#     Node 5, Type 1, BuildingBlock: KUMBOL_clean_sbu_1, # of connection points: 6
#     Edge 6, Type (0, 1), BuildingBlock: XIVTED_clean_linker_0, # of connection points: 2
#     Edge 7, Type (0, 1), BuildingBlock: XIVTED_clean_linker_0, # of connection points: 2
#     Edge 8, Type (0, 1), BuildingBlock: XIVTED_clean_linker_0, # of connection points: 2
#     Edge 9, Type (0, 1), BuildingBlock: XIVTED_clean_linker_0, # of connection points: 2
#     Edge 10, Type (0, 1), BuildingBlock: XIVTED_clean_linker_0, # of connection points: 2
#     Edge 11, Type (0, 1), BuildingBlock: XIVTED_clean_linker_0, # of connection points: 2
#     Edge 12, Type (0, 1), BuildingBlock: XIVTED_clean_linker_0, # of connection points: 2
#     Edge 13, Type (0, 1), BuildingBlock: XIVTED_clean_linker_0, # of connection points: 2
#     Edge 14, Type (0, 1), BuildingBlock: XIVTED_clean_linker_0, # of connection points: 2
#     Edge 15, Type (0, 1), BuildingBlock: XIVTED_clean_linker_0, # of connection points: 2
#     Edge 16, Type (0, 1), BuildingBlock: XIVTED_clean_linker_0, # of connection points: 2
#     Edge 17, Type (0, 1), BuildingBlock: XIVTED_clean_linker_0, # of connection points: 2
# Relax obj value: 0.016
# Max RMSD: 0.102
# Mean RMSD: 0.058
data_MOF--net-rtl--node1-WUSLED_clean_sbu_0--node2-KUMBOL_clean_sbu_1--edge1-XIVTED_clean_linker_0
_symmetry_space_group_name_H-M    P1
_symmetry_Int_Tables_number       1
_symmetry_cell_setting            triclinic
loop_
_symmetry_equiv_pos_as_xyz
'x, y, z'
_cell_length_a     42.516544
_cell_length_b     43.08644
_cell_length_c     36.674413
_cell_angle_alpha  81.185959
_cell_angle_beta   99.316961
_cell_angle_gamma 90.606004
loop_
_atom_site_label
_atom_site_type_symbol
_atom_site_fract_x
_atom_site_fract_y
_atom_site_fract_z
_atom_type_partial_charge
C0 C 0.20197 0.8392 0.12893 0.0
C1 C 0.17485 0.85848 0.11596 0.0
C2 C 0.17174 0.86657 0.17965 0.0
C3 C 0.15983 0.87196 0.14106 0.0
C4 C 0.19913 0.84736 0.19242 0.0
C5 C 0.21408 0.8338 0.16725 0.0
U6 U 0.21135 0.83364 0.02934 0.0
O7 O 0.25366 0.82771 1.00353 0.0
O8 O 0.21574 0.79269 1.0011 0.0
C9 C 0.24425 0.80056 0.99372 0.0
C10 C 0.21758 0.82474 0.10257 0.0
C11 C 0.26834 0.7751 1.0016 0.0
C12 C 0.31359 0.74627 0.04083 0.0
C13 C 0.29 0.7698 0.03524 0.0
C14 C 0.29355 0.73278 0.97965 0.0
C15 C 0.31587 0.72772 1.01286 0.0
C16 C 0.27011 0.75624 0.97411 0.0
C17 C 0.16018 0.88793 0.95063 0.0
C18 C 0.16365 0.88712 0.88531 0.0
C19 C 0.12505 0.92127 0.90183 0.0
C20 C 0.13564 0.91048 0.93972 0.0
C21 C 0.13885 0.90968 0.87411 0.0
C22 C 0.17421 0.87633 0.92326 0.0
C23 C 0.17059 0.87645 0.99055 0.0
O24 O 0.1989 0.80778 0.08141 0.0
O25 O 0.23608 0.84342 0.08388 0.0
O26 O 0.20019 0.88269 1.00381 0.0
O27 O 0.16254 0.84751 1.00202 0.0
H28 H 0.16518 0.86294 0.0864 0.0
H29 H 0.13857 0.8862 0.13022 0.0
H30 H 0.20924 0.84305 0.22182 0.0
H31 H 0.23511 0.8191 0.1777 0.0
H32 H 0.33047 0.74312 0.06664 0.0
H33 H 0.28894 0.7841 0.05688 0.0
H34 H 0.29414 0.71855 0.95785 0.0
H35 H 0.25348 0.75986 0.94806 0.0
H36 H 0.17507 0.87796 0.86477 0.0
H37 H 0.1056 0.93826 0.89427 0.0
H38 H 0.12448 0.91958 0.96054 0.0
H39 H 0.19325 0.85889 0.93127 0.0
C40 C 0.67127 0.67785 0.71895 0.0
C41 C 0.65504 0.69474 0.74021 0.0
C42 C 0.64063 0.64606 0.77692 0.0
C43 C 0.6398 0.67907 0.76874 0.0
C44 C 0.65673 0.62915 0.75541 0.0
C45 C 0.67177 0.64483 0.72669 0.0
U46 U 0.68942 0.6946 0.6184 0.0
O47 O 0.69613 0.7395 0.58274 0.0
O48 O 0.73478 0.70414 0.59748 0.0
C49 C 0.72577 0.73259 0.58068 0.0
C50 C 0.68811 0.69514 0.68974 0.0
C51 C 0.74932 0.75807 0.58379 0.0
C52 C 0.8015 0.77741 0.60802 0.0
C53 C 0.77793 0.75437 0.6095 0.0
C54 C 0.76789 0.8085 0.55596 0.0
C55 C 0.79704 0.80446 0.58066 0.0
C56 C 0.74441 0.78559 0.55749 0.0
C57 C 0.64554 0.64648 0.54568 0.0
C58 C 0.6611 0.63872 0.48662 0.0
C59 C 0.60854 0.62366 0.49965 0.0
C60 C 0.61559 0.6341 0.53428 0.0
C61 C 0.63139 0.62528 0.47561 0.0
C62 C 0.66812 0.64923 0.52136 0.0
C63 C 0.65283 0.65516 0.58351 0.0
O64 O 0.70937 0.67916 0.67754 0.0
O65 O 0.67038 0.71403 0.66285 0.0
O66 O 0.64308 0.68321 0.58706 0.0
O67 O 0.68156 0.64777 0.60205 0.0
H68 H 0.6544 0.72019 0.73496 0.0
H69 H 0.62794 0.69287 0.78495 0.0
H70 H 0.65752 0.60372 0.7606 0.0
H71 H 0.68391 0.63105 0.71071 0.0
H72 H 0.8237 0.77343 0.62735 0.0
H73 H 0.78251 0.73333 0.63 0.0
H74 H 0.76335 0.82926 0.535 0.0
H75 H 0.72267 0.78897 0.53725 0.0
H76 H 0.67934 0.64014 0.46898 0.0
H77 H 0.58522 0.61403 0.49185 0.0
H78 H 0.59775 0.63199 0.5525 0.0
H79 H 0.69138 0.65887 0.52955 0.0
C80 C 0.83745 0.15613 0.16193 0.0
C81 C 0.8708 0.15258 0.16762 0.0
C82 C 0.87011 0.123 0.22972 0.0
C83 C 0.88697 0.13628 0.20127 0.0
C84 C 0.83668 0.12587 0.22347 0.0
C85 C 0.82056 0.14237 0.18996 0.0
U86 U 0.81835 0.18219 0.05532 0.0
O87 O 0.77169 0.19416 0.02003 0.0
O88 O 0.80912 0.22959 0.02346 0.0
C89 C 0.77899 0.22386 1.01191 0.0
C90 C 0.81989 0.17518 0.12798 0.0
C91 C 0.75544 0.24689 0.0176 0.0
C92 C 0.73999 0.2886 0.04935 0.0
C93 C 0.76239 0.26632 0.04528 0.0
C94 C 0.70306 0.27178 0.99889 0.0
C95 C 0.71007 0.29178 0.02605 0.0
C96 C 0.72554 0.2497 0.99466 0.0
C97 C 0.86284 0.1446 0.98948 0.0
C98 C 0.8675 0.16674 0.92548 0.0
C99 C 0.88218 0.11229 0.94873 0.0
C100 C 0.87405 0.11568 0.98338 0.0
C101 C 0.87938 0.13787 0.91941 0.0
C102 C 0.85924 0.17005 0.96016 0.0
C103 C 0.85593 0.14782 0.02685 0.0
O104 O 0.83631 0.19653 0.10974 0.0
O105 O 0.80011 0.15992 0.10587 0.0
O106 O 0.82759 0.13871 0.03374 0.0
O107 O 0.86478 0.17423 0.03908 0.0
H108 H 0.88442 0.16276 0.14634 0.0
H109 H 0.91269 0.13412 0.20506 0.0
H110 H 0.82303 0.11618 0.24494 0.0
H111 H 0.79486 0.14489 0.1862 0.0
H112 H 0.74644 0.30375 0.07027 0.0
H113 H 0.78523 0.26454 0.06355 0.0
H114 H 0.68009 0.27303 0.98094 0.0
H115 H 0.71959 0.23481 0.97332 0.0
H116 H 0.8653 0.18703 0.90375 0.0
H117 H 0.89062 0.08957 0.94493 0.0
H118 H 0.8768 0.09571 1.0056 0.0
H119 H 0.8505 0.19259 0.96424 0.0
C120 C 0.34775 0.33541 0.35725 0.0
C121 C 0.36735 0.36108 0.36371 0.0
C122 C 0.37935 0.36672 0.30006 0.0
C123 C 0.38295 0.37662 0.33539 0.0
C124 C 0.35983 0.34078 0.29396 0.0
C125 C 0.3442 0.32535 0.32225 0.0
U126 U 0.3317 0.32089 0.4581 0.0
O127 O 0.28644 0.31465 0.48027 0.0
O128 O 0.32291 0.27715 0.4944 0.0
C129 C 0.29388 0.28584 0.49699 0.0
C130 C 0.33066 0.31917 0.38651 0.0
C131 C 0.26838 0.26206 0.49418 0.0
C132 C 0.25128 0.20807 0.49162 0.0
C133 C 0.27457 0.23123 0.48869 0.0
C134 C 0.21491 0.24622 0.50455 0.0
C135 C 0.22133 0.21511 0.50032 0.0
C136 C 0.23815 0.26932 0.50165 0.0
C137 C 0.38006 0.36753 0.52944 0.0
C138 C 0.3658 0.38326 0.58574 0.0
C139 C 0.42117 0.38226 0.57775 0.0
C140 C 0.41224 0.37198 0.54323 0.0
C141 C 0.39805 0.38853 0.59925 0.0
C142 C 0.35689 0.37282 0.55122 0.0
C143 C 0.37139 0.35869 0.49175 0.0
O144 O 0.34798 0.29976 0.4132 0.0
O145 O 0.31125 0.33689 0.39922 0.0
O146 O 0.34292 0.36758 0.47345 0.0
O147 O 0.3793 0.33002 0.48827 0.0
H148 H 0.37053 0.36914 0.39063 0.0
H149 H 0.39809 0.39619 0.34132 0.0
H150 H 0.35615 0.33272 0.26706 0.0
H151 H 0.32912 0.30562 0.31669 0.0
H152 H 0.25724 0.18435 0.48849 0.0
H153 H 0.29771 0.22468 0.4833 0.0
H154 H 0.19198 0.25271 0.51061 0.0
H155 H 0.23276 0.29276 0.50637 0.0
H156 H 0.34729 0.38807 0.6013 0.0
H157 H 0.44626 0.38541 0.5875 0.0
H158 H 0.43052 0.3679 0.527 0.0
H159 H 0.33186 0.36945 0.54129 0.0
C160 C 0.94433 0.08236 0.50631 0.0
C161 C 0.89188 0.05947 0.49759 0.0
C162 C 0.92398 0.05806 0.51527 0.0
C163 C 0.88107 0.08492 0.4697 0.0
C164 C 0.93336 0.10849 0.47929 0.0
C165 C 0.90176 0.1094 0.46061 0.0
N166 N 0.975 0.08039 0.52409 0.0
C167 C 0.99548 0.10457 0.51802 0.0
C168 C 0.9545 0.13296 0.47199 0.0
C169 C 0.98559 0.13112 0.49173 0.0
Gd170 Gd 0.03754 0.97431 0.51908 0.0
Gd171 Gd 0.9899 0.03477 0.56714 0.0
N172 N 0.93518 0.03379 0.54241 0.0
C173 C 0.87138 0.0357 0.50921 0.0
C174 C 0.91461 0.01209 0.55592 0.0
C175 C 0.88267 0.01223 0.53899 0.0
H176 H 0.92247 0.99493 0.58027 0.0
H177 H 0.86669 0.99452 0.54931 0.0
H178 H 0.1124 0.99727 0.54044 0.0
H179 H 0.01948 0.10313 0.53331 0.0
H180 H 0.16308 0.97599 0.57897 0.0
H181 H 0.84656 0.03592 0.49634 0.0
H182 H 0.85657 0.08623 0.45557 0.0
H183 H 0.98957 0.91178 0.51108 0.0
H184 H 0.94697 0.15345 0.45144 0.0
H185 H 1.00198 0.15008 0.48662 0.0
H186 H 0.13774 0.87069 0.62885 0.0
H187 H 0.89296 0.12911 0.43945 0.0
H188 H 0.0338 0.83308 0.58651 0.0
H189 H 0.98786 0.85665 0.54078 0.0
N190 N 0.0342 0.92069 0.54311 0.0
C191 C 0.06055 0.90762 0.56617 0.0
C192 C 1.00897 0.90238 0.53253 0.0
C193 C 0.03427 0.85761 0.57437 0.0
C194 C 1.00825 0.87085 0.54867 0.0
C195 C 0.0612 0.87578 0.58269 0.0
H196 H 0.08981 0.83853 0.61916 0.0
N197 N 0.08642 0.95601 0.55468 0.0
C198 C 0.08762 0.92566 0.57163 0.0
C199 C 0.14318 0.93108 0.59691 0.0
C200 C 0.11595 0.91249 0.59374 0.0
C201 C 0.11333 0.97369 0.55572 0.0
C202 C 0.14197 0.96169 0.5774 0.0
O203 O 0.99616 0.04322 0.50621 0.0
O204 O 0.99013 0.9948 0.48902 0.0
O205 O 0.05786 0.99304 0.46974 0.0
O206 O 0.04802 0.9436 0.48056 0.0
O207 O 0.97693 0.98299 0.57648 0.0
O208 O 0.98519 0.96499 0.52254 0.0
O209 O 0.05667 0.98201 0.5786 0.0
O210 O 0.0115 0.9907 0.60264 0.0
O211 O 0.96167 0.04784 0.60699 0.0
O212 O 1.01032 0.06304 0.60921 0.0
O213 O 0.05559 0.02425 0.51581 0.0
O214 O 0.04209 0.04589 0.56587 0.0
C215 C 0.98458 0.02511 0.48185 0.0
C216 C 0.9708 0.96332 0.55203 0.0
C217 C 0.04459 0.96675 0.41759 0.0
C218 C 0.05138 0.95547 0.35601 0.0
C219 C 1.00218 0.97966 0.36473 0.0
C220 C 0.014 0.97892 0.40264 0.0
C221 C 0.0207 0.96808 0.34149 0.0
C222 C 0.06315 0.95492 0.3943 0.0
C223 C 0.05747 0.96628 0.45737 0.0
C224 C 0.1163 0.88116 0.61144 0.0
C225 C 0.08897 0.86286 0.60598 0.0
H226 H 0.16541 0.92183 0.61366 0.0
C227 C 0.04146 0.98213 0.60702 0.0
C228 C 0.05973 0.04478 0.53949 0.0
C229 C 0.97443 0.09454 0.63184 0.0
C230 C 0.95246 0.12391 0.67426 0.0
C231 C 0.96674 0.151 0.61607 0.0
C232 C 0.97664 0.1226 0.60743 0.0
C233 C 0.9547 0.15173 0.64918 0.0
C234 C 0.9624 0.09532 0.66523 0.0
C235 C 0.98412 0.06413 0.62312 0.0
H236 H 0.97853 0.98914 0.35335 0.0
H237 H 0.99933 0.98779 0.42028 0.0
H238 H 0.0108 0.96853 0.31228 0.0
H239 H 0.08688 0.94569 0.40594 0.0
H240 H 0.96857 0.17258 0.59711 0.0
H241 H 0.98606 0.12263 0.58185 0.0
H242 H 0.94766 0.17416 0.65545 0.0
H243 H 0.96046 0.07357 0.68394 0.0
C244 C 0.59528 0.57097 0.04523 0.0
C245 C 0.57486 0.62383 0.04117 0.0
C246 C 0.57199 0.59109 0.05088 0.0
C247 C 0.60054 0.63577 0.02379 0.0
C248 C 0.62202 0.58284 0.02974 0.0
C249 C 0.62411 0.6153 0.01814 0.0
N250 N 0.59238 0.53973 0.0564 0.0
C251 C 0.61663 0.51925 0.05625 0.0
C252 C 0.64621 0.56176 0.02736 0.0
C253 C 0.64374 0.52989 0.04128 0.0
Gd254 Gd 0.48014 0.4887 1.00342 0.0
Gd255 Gd 0.54566 0.52345 0.0795 0.0
N256 N 0.54786 0.57875 0.06839 0.0
C257 C 0.55255 0.64361 0.05059 0.0
C258 C 0.52785 0.59803 0.08058 0.0
C259 C 0.52932 0.63065 0.07105 0.0
H260 H 0.51081 0.58837 0.09795 0.0
H261 H 0.51282 0.64577 0.07993 0.0
H262 H 0.49861 0.41263 0.01917 0.0
H263 H 0.61454 0.49461 0.06684 0.0
H264 H 0.47652 0.36256 0.04675 0.0
H265 H 0.55388 0.6689 0.04361 0.0
H266 H 0.60294 0.66083 0.01573 0.0
H267 H 0.41924 0.54176 0.98784 0.0
H268 H 0.66719 0.56995 0.01569 0.0
H269 H 0.66262 0.51353 0.04032 0.0
H270 H 0.37882 0.39374 0.08195 0.0
H271 H 0.64427 0.62488 1.00571 0.0
H272 H 0.34534 0.50143 0.04542 0.0
H273 H 0.36743 0.54683 1.00829 0.0
N274 N 0.42869 0.49547 0.01745 0.0
C275 C 0.41586 0.46955 0.03523 0.0
C276 C 0.41088 0.52242 1.00594 0.0
C277 C 0.36863 0.49941 0.03753 0.0
C278 C 0.38105 0.52511 0.01668 0.0
C279 C 0.38562 0.47088 0.04611 0.0
H280 H 0.3498 0.44419 0.0728 0.0
N281 N 0.46089 0.44052 0.02901 0.0
C282 C 0.43211 0.44109 0.04042 0.0
C283 C 0.43516 0.38481 0.05922 0.0
C284 C 0.41872 0.41329 0.05654 0.0
C285 C 0.47638 0.41276 0.02987 0.0
C286 C 0.46392 0.38451 0.04538 0.0
O287 O 0.55476 0.52381 0.01994 0.0
O288 O 0.50541 0.53334 0.98456 0.0
O289 O 0.49143 0.46876 0.956 0.0
O290 O 0.44418 0.48691 0.95442 0.0
O291 O 0.49459 0.54202 0.07033 0.0
O292 O 0.47621 0.54043 1.00792 0.0
O293 O 0.49198 0.46508 0.06418 0.0
O294 O 0.49885 0.50667 0.09594 0.0
O295 O 0.56668 0.54138 0.13113 0.0
O296 O 0.56921 0.49141 0.12686 0.0
O297 O 0.52964 0.46796 1.01071 0.0
O298 O 0.55464 0.47334 0.07078 0.0
C299 C 0.53649 0.53638 0.98892 0.0
C300 C 0.47674 0.55338 0.03832 0.0
C301 C 0.46379 0.49167 0.89743 0.0
C302 C 0.45783 0.49027 0.83022 0.0
C303 C 0.47137 0.539 0.85483 0.0
C304 C 0.4707 0.52374 0.89107 0.0
C305 C 0.46498 0.52248 0.8246 0.0
C306 C 0.45729 0.475 0.86701 0.0
C307 C 0.46363 0.4755 0.93575 0.0
C308 C 0.38931 0.41478 0.06899 0.0
C309 C 0.37283 0.44353 0.06388 0.0
H310 H 0.42565 0.36292 0.0714 0.0
C311 C 0.48819 0.47838 0.09312 0.0
C312 C 0.5515 0.45971 0.04046 0.0
C313 C 0.59474 0.50604 0.18557 0.0
C314 C 0.6099 0.51706 0.24954 0.0
C315 C 0.62957 0.46979 0.23152 0.0
C316 C 0.61299 0.47812 0.19538 0.0
C317 C 0.62792 0.48897 0.25849 0.0
C318 C 0.59366 0.52583 0.21268 0.0
C319 C 0.57643 0.51338 0.14734 0.0
H320 H 0.47672 0.56378 0.85013 0.0
H321 H 0.47546 0.53695 0.91413 0.0
H322 H 0.46515 0.5351 0.79672 0.0
H323 H 0.45224 0.45014 0.87208 0.0
H324 H 0.64357 0.44824 0.23875 0.0
H325 H 0.61444 0.4626 0.17506 0.0
H326 H 0.64087 0.48187 0.28647 0.0
H327 H 0.57944 0.54729 0.20557 0.0
H328 H 0.18183 0.20711 0.55335 0.0
H329 H 0.10011 0.05205 0.48751 0.0
H330 H 0.20623 0.16542 0.46167 0.0
H331 H 0.07614 0.09316 0.5799 0.0
H332 H 0.13932 0.09299 0.47816 0.0
H333 H 0.14305 0.16576 0.56337 0.0
C334 C 0.1789 0.18943 0.53507 0.0
C335 C 0.19736 0.18999 0.50643 0.0
C336 C 0.12554 0.09306 0.50052 0.0
C337 C 0.15306 0.14203 0.51825 0.0
C338 C 0.10308 0.06959 0.50597 0.0
C339 C 0.08457 0.06903 0.53456 0.0
C340 C 0.12969 0.11634 0.52375 0.0
C341 C 0.08973 0.09254 0.55748 0.0
C342 C 0.15686 0.16564 0.54104 0.0
C343 C 0.19284 0.1659 0.48429 0.0
N344 N 0.1117 0.11522 0.55151 0.0
N345 N 0.17117 0.14301 0.49061 0.0
H346 H 0.35077 0.71408 0.96063 0.0
H347 H 0.45016 0.57184 0.09503 0.0
H348 H 0.33993 0.68629 0.07605 0.0
H349 H 0.45433 0.59656 0.97744 0.0
H350 H 0.41257 0.61563 0.09024 0.0
H351 H 0.39118 0.67299 0.96774 0.0
C352 C 0.35677 0.69924 0.98748 0.0
C353 C 0.3416 0.70352 0.01768 0.0
C354 C 0.42181 0.61154 0.06553 0.0
C355 C 0.38842 0.65643 0.02618 0.0
C356 C 0.44336 0.58667 0.0683 0.0
C357 C 0.45529 0.58057 0.03656 0.0
C358 C 0.41222 0.63049 0.03079 0.0
C359 C 0.44553 0.60032 1.00255 0.0
C360 C 0.38004 0.67585 0.99158 0.0
C361 C 0.35106 0.684 0.05205 0.0
N362 N 0.42454 0.62431 1.00056 0.0
N363 N 0.37375 0.66121 0.05532 0.0
H364 H 0.81531 0.83415 0.51596 0.0
H365 H 0.95116 0.93692 0.61725 0.0
H366 H 0.83839 0.8277 0.63589 0.0
H367 H 0.93316 0.93574 0.49834 0.0
H368 H 0.90927 0.89805 0.6249 0.0
H369 H 0.85743 0.87245 0.50924 0.0
C370 C 0.82907 0.84094 0.54095 0.0
C371 C 0.82302 0.82774 0.57658 0.0
C372 C 0.91454 0.9062 0.59714 0.0
C373 C 0.87185 0.8716 0.56901 0.0
C374 C 0.9384 0.92844 0.59275 0.0
C375 C 0.94579 0.93947 0.55712 0.0
C376 C 0.89773 0.89501 0.56563 0.0
C377 C 0.92852 0.92764 0.52638 0.0
C378 C 0.85334 0.8627 0.53706 0.0
C379 C 0.84225 0.83706 0.60788 0.0
N380 N 0.90531 0.90615 0.53133 0.0
N381 N 0.86568 0.85847 0.60336 0.0
H382 H 0.69705 0.31204 0.08996 0.0
H383 H 0.55731 0.43026 0.98081 0.0
H384 H 0.6693 0.32756 0.96992 0.0
H385 H 0.59795 0.4311 0.09651 0.0
H386 H 0.59544 0.38934 0.97798 0.0
H387 H 0.65867 0.3527 0.09431 0.0
C388 C 0.68306 0.32403 0.06448 0.0
C389 C 0.68652 0.31618 0.02948 0.0
C390 C 0.59607 0.39845 1.00401 0.0
C391 C 0.6421 0.36248 0.03444 0.0
C392 C 0.57419 0.42184 1.00573 0.0
C393 C 0.57435 0.4343 0.03898 0.0
C394 C 0.61831 0.38713 0.0358 0.0
C395 C 0.59692 0.42228 0.07025 0.0
C396 C 0.66102 0.34715 0.06706 0.0
C397 C 0.6672 0.33226 0.99758 0.0
N398 N 0.61797 0.39934 0.06791 0.0
N399 N 0.64587 0.35452 1.00085 0.0
H400 H 0.14422 0.92532 0.17027 0.0
H401 H 0.08787 0.90142 0.37083 0.0
H402 H 0.16204 0.84025 0.25015 0.0
H403 H 0.05925 0.98053 0.28471 0.0
H404 H 0.11862 0.88038 0.32897 0.0
H405 H 0.11603 0.94737 0.21351 0.0
C406 C 0.14212 0.91118 0.19682 0.0
C407 C 0.15546 0.88074 0.20637 0.0
C408 C 0.10564 0.90236 0.31924 0.0
C409 C 0.12346 0.90615 0.25642 0.0
C410 C 0.08824 0.91449 0.34322 0.0
C411 C 0.07086 0.94276 0.33125 0.0
C412 C 0.10586 0.91868 0.28305 0.0
C413 C 0.07192 0.95846 0.29496 0.0
C414 C 0.12614 0.92389 0.22161 0.0
C415 C 0.15251 0.8639 0.24163 0.0
N416 N 0.0891 0.94623 0.2722 0.0
N417 N 0.13679 0.8768 0.26529 0.0
H418 H 0.66354 0.59536 0.82918 0.0
H419 H 0.51013 0.58232 0.93237 0.0
H420 H 0.58258 0.65875 0.796 0.0
H421 H 0.59637 0.52761 0.97355 0.0
H422 H 0.535 0.60888 0.88046 0.0
H423 H 0.63817 0.56864 0.88037 0.0
C424 C 0.64033 0.60356 0.83247 0.0
C425 C 0.62522 0.62938 0.8081 0.0
C426 C 0.54856 0.59116 0.90094 0.0
C427 C 0.59599 0.59889 0.86705 0.0
C428 C 0.5343 0.57587 0.93047 0.0
C429 C 0.55127 0.55282 0.95748 0.0
C430 C 0.58 0.58323 0.89819 0.0
C431 C 0.5826 0.54559 0.95376 0.0
C432 C 0.62592 0.58839 0.86191 0.0
C433 C 0.59532 0.63918 0.81425 0.0
N434 N 0.59591 0.56066 0.9247 0.0
N435 N 0.58168 0.6239 0.84298 0.0
H436 H 0.85524 0.068 0.27167 0.0
H437 H 0.99501 0.08228 0.44282 0.0
H438 H 0.92403 0.14234 0.27135 0.0
H439 H 0.93702 1.00005 0.4362 0.0
H440 H 0.9672 0.1059 0.38137 0.0
H441 H 0.88301 0.04373 0.33306 0.0
C442 C 0.87617 0.07922 0.28452 0.0
C443 C 0.88734 0.10724 0.26631 0.0
C444 C 0.96055 0.08266 0.39324 0.0
C445 C 0.91922 0.07961 0.33655 0.0
C446 C 0.97628 0.06928 0.42841 0.0
C447 C 0.96813 0.0393 0.44457 0.0
C448 C 0.93642 0.06593 0.37403 0.0
C449 C 0.94403 0.02322 0.42455 0.0
C450 C 0.89209 0.06529 0.31948 0.0
C451 C 0.91478 0.12056 0.28412 0.0
N452 N 0.92893 0.03677 0.39032 0.0
N453 N 0.92966 0.10672 0.31828 0.0
H454 H 0.37345 0.37533 0.66505 0.0
H455 H 0.48774 0.49532 0.76875 0.0
H456 H 0.44421 0.43181 0.61476 0.0
H457 H 0.41198 0.44582 0.81717 0.0
H458 H 0.47401 0.46946 0.71375 0.0
H459 H 0.38876 0.39838 0.72227 0.0
C460 C 0.39214 0.39259 0.66592 0.0
C461 C 0.40753 0.40155 0.63485 0.0
C462 C 0.46038 0.46416 0.73639 0.0
C463 C 0.42543 0.42781 0.70058 0.0
C464 C 0.46814 0.47905 0.76781 0.0
C465 C 0.45082 0.47301 0.79761 0.0
C466 C 0.43507 0.44294 0.73451 0.0
C467 C 0.42612 0.4511 0.79503 0.0
C468 C 0.40099 0.40562 0.69873 0.0
C469 C 0.43194 0.42371 0.63803 0.0
N470 N 0.41889 0.43699 0.76398 0.0
N471 N 0.44004 0.43605 0.67016 0.0
H472 H 0.60073 0.57053 0.46456 0.0
H473 H 0.62199 0.57998 0.24971 0.0
H474 H 0.64709 0.64796 0.40624 0.0
H475 H 0.59363 0.4972 0.31787 0.0
H476 H 0.62454 0.60867 0.30331 0.0
H477 H 0.59124 0.54685 0.40771 0.0
C478 C 0.60863 0.58279 0.43968 0.0
C479 C 0.62473 0.61138 0.44034 0.0
C480 C 0.61752 0.58429 0.30636 0.0
C481 C 0.61427 0.58393 0.37481 0.0
C482 C 0.61584 0.56804 0.27576 0.0
C483 C 0.6078 0.53616 0.27954 0.0
C484 C 0.61074 0.56856 0.3407 0.0
C485 C 0.60026 0.52167 0.31392 0.0
C486 C 0.60339 0.56909 0.4072 0.0
C487 C 0.6349 0.62575 0.40721 0.0
N488 N 0.60199 0.53791 0.3431 0.0
N489 N 0.62953 0.61187 0.3758 0.0
H490 H 0.93072 0.10475 0.90757 0.0
H491 H 0.90163 0.15799 0.68559 0.0
H492 H 0.85147 0.16363 0.84818 0.0
H493 H 0.97533 0.09218 0.74422 0.0
H494 H 0.88315 0.16079 0.74478 0.0
H495 H 0.94733 0.09997 0.84804 0.0
C496 C 0.91659 0.11648 0.88203 0.0
C497 C 0.88954 0.13459 0.88308 0.0
C498 C 0.9033 0.14566 0.74471 0.0
C499 C 0.90888 0.12958 0.81453 0.0
C500 C 0.91398 0.14417 0.71092 0.0
C501 C 0.94017 0.12489 0.70988 0.0
C502 C 0.91898 0.12787 0.77787 0.0
C503 C 0.95488 0.10713 0.74357 0.0
C504 C 0.92625 0.11387 0.84798 0.0
C505 C 0.87269 0.14975 0.84893 0.0
N506 N 0.94419 0.10917 0.77615 0.0
N507 N 0.88266 0.14693 0.81612 0.0
H508 H 0.38758 0.43029 0.28153 0.0
H509 H 0.48315 0.41474 0.1133 0.0
H510 H 0.40815 0.34157 0.24888 0.0
H511 H 0.45786 0.50332 0.14244 0.0
H512 H 0.45609 0.38739 0.16281 0.0
H513 H 0.41405 0.45727 0.23149 0.0
C514 C 0.39783 0.41641 0.26403 0.0
C515 C 0.39559 0.38351 0.26963 0.0
C516 C 0.45639 0.41281 0.15838 0.0
C517 C 0.4258 0.41445 0.21173 0.0
C518 C 0.47165 0.42843 0.12991 0.0
C519 C 0.47238 0.46135 0.12336 0.0
C520 C 0.44201 0.43023 0.18084 0.0
C521 C 0.45787 0.47789 0.14648 0.0
C522 C 0.41278 0.43189 0.23523 0.0
C523 C 0.40891 0.36695 0.24547 0.0
N524 N 0.44329 0.46219 0.17411 0.0
N525 N 0.42345 0.38255 0.21771 0.0
H526 H 0.12988 0.875 0.81645 0.0
H527 H 0.05189 0.01747 0.66283 0.0
H528 H 0.12049 0.96942 0.83963 0.0
H529 H 0.06726 0.92472 0.63869 0.0
H530 H 0.07779 1.00071 0.72761 0.0
H531 H 0.10857 0.89316 0.75081 0.0
C532 C 0.12364 0.89962 0.80772 0.0
C533 C 0.12694 0.92067 0.83376 0.0
C534 C 0.0759 0.98409 0.70803 0.0
C535 C 0.102 0.94158 0.75852 0.0
C536 C 0.06115 0.99367 0.67116 0.0
C537 C 0.05835 0.97261 0.64532 0.0
C538 C 0.08747 0.95306 0.71917 0.0
C539 C 0.07021 0.94195 0.65736 0.0
C540 C 0.11127 0.90995 0.77022 0.0
C541 C 0.11791 0.95222 0.82077 0.0
N542 N 0.08419 0.93302 0.69346 0.0
N543 N 0.10579 0.96167 0.78414 0.0
loop_
_geom_bond_atom_site_label_1
_geom_bond_atom_site_label_2
_geom_bond_distance
_geom_bond_site_symmetry_2
_ccdc_geom_bond_type
C0 C1 1.264 . S
C0 C5 1.479 . S
C0 C10 1.465 . S
C1 C0 1.264 . S
C1 C3 1.339 . S
C1 H28 0.931 . S
C2 C3 1.395 . S
C2 C4 1.320 . S
C3 C1 1.339 . S
C3 C2 1.395 . S
C3 H29 0.929 . S
C4 C2 1.320 . S
C4 C5 1.405 . S
C4 H30 0.930 . S
C5 C0 1.479 . S
C5 C4 1.405 . S
C5 H31 0.931 . S
U6 O7 2.454 . S
U6 O8 2.454 1_554 S
U6 C9 2.984 . S
U6 C10 2.847 . S
U6 C23 2.882 1_554 S
U6 O24 2.441 . S
U6 O25 2.420 . S
U6 O26 2.455 1_554 S
U6 O27 2.449 1_554 S
O7 U6 2.454 . S
O7 C9 1.353 . S
O8 U6 2.454 1_556 S
O8 C9 1.281 1_556 S
C9 U6 2.984 . S
C9 O7 1.353 . S
C9 O8 1.281 1_554 S
C9 C11 1.363 . S
C10 C0 1.465 . S
C10 U6 2.847 . S
C10 O24 1.249 . S
C10 O25 1.202 . S
C11 C9 1.363 . S
C11 C13 1.408 . S
C11 C16 1.342 . S
C12 C13 1.310 . S
C12 C15 1.461 . S
C12 H32 0.932 . S
C13 C11 1.408 . S
C13 C12 1.310 . S
C13 H33 0.930 . S
C14 C15 1.474 . S
C14 C16 1.285 . S
C14 H34 0.929 1_554 S
C15 C12 1.461 . S
C15 C14 1.474 . S
C16 C11 1.342 . S
C16 C14 1.285 . S
C16 H35 0.930 1_554 S
C17 C20 1.424 . S
C17 C22 1.245 . S
C17 C23 1.428 . S
C18 C21 1.260 . S
C18 C22 1.477 . S
C18 H36 0.932 . S
C19 C20 1.384 . S
C19 C21 1.479 . S
C19 H37 0.929 . S
C20 C17 1.424 . S
C20 C19 1.384 . S
C20 H38 0.928 . S
C21 C18 1.260 . S
C21 C19 1.479 . S
C22 C17 1.245 . S
C22 C18 1.477 . S
C22 H39 0.932 . S
C23 U6 2.882 1_556 S
C23 C17 1.428 . S
C23 O26 1.301 . S
C23 O27 1.282 . S
O24 U6 2.441 . S
O24 C10 1.249 . S
O25 U6 2.420 . S
O25 C10 1.202 . S
O26 U6 2.455 1_556 S
O26 C23 1.301 . S
O27 U6 2.449 1_556 S
O27 C23 1.282 . S
H28 C1 0.931 . S
H29 C3 0.929 . S
H30 C4 0.930 . S
H31 C5 0.931 . S
H32 C12 0.932 . S
H33 C13 0.930 . S
H34 C14 0.929 1_556 S
H35 C16 0.930 1_556 S
H36 C18 0.932 . S
H37 C19 0.929 . S
H38 C20 0.928 . S
H39 C22 0.932 . S
C40 C41 1.264 . S
C40 C45 1.479 . S
C40 C50 1.465 . S
C41 C40 1.264 . S
C41 C43 1.339 . S
C41 H68 0.931 . S
C42 C43 1.395 . S
C42 C44 1.320 . S
C43 C41 1.339 . S
C43 C42 1.395 . S
C43 H69 0.929 . S
C44 C42 1.320 . S
C44 C45 1.405 . S
C44 H70 0.930 . S
C45 C40 1.479 . S
C45 C44 1.405 . S
C45 H71 0.931 . S
U46 O47 2.454 . S
U46 O48 2.458 . S
U46 C49 2.984 . S
U46 C50 2.847 . S
U46 C63 2.882 . S
U46 O64 2.441 . S
U46 O65 2.420 . S
U46 O66 2.455 . S
U46 O67 2.449 . S
O47 U46 2.454 . S
O47 C49 1.353 . S
O48 U46 2.458 . S
O48 C49 1.286 . S
C49 U46 2.984 . S
C49 O47 1.353 . S
C49 O48 1.286 . S
C49 C51 1.363 . S
C50 C40 1.465 . S
C50 U46 2.847 . S
C50 O64 1.249 . S
C50 O65 1.202 . S
C51 C49 1.363 . S
C51 C53 1.408 . S
C51 C56 1.342 . S
C52 C53 1.310 . S
C52 C55 1.461 . S
C52 H72 0.932 . S
C53 C51 1.408 . S
C53 C52 1.310 . S
C53 H73 0.930 . S
C54 C55 1.474 . S
C54 C56 1.285 . S
C54 H74 0.929 . S
C55 C52 1.461 . S
C55 C54 1.474 . S
C56 C51 1.342 . S
C56 C54 1.285 . S
C56 H75 0.930 . S
C57 C60 1.424 . S
C57 C62 1.245 . S
C57 C63 1.428 . S
C58 C61 1.260 . S
C58 C62 1.477 . S
C58 H76 0.932 . S
C59 C60 1.384 . S
C59 C61 1.479 . S
C59 H77 0.929 . S
C60 C57 1.424 . S
C60 C59 1.384 . S
C60 H78 0.928 . S
C61 C58 1.260 . S
C61 C59 1.479 . S
C62 C57 1.245 . S
C62 C58 1.477 . S
C62 H79 0.932 . S
C63 U46 2.882 . S
C63 C57 1.428 . S
C63 O66 1.301 . S
C63 O67 1.282 . S
O64 U46 2.441 . S
O64 C50 1.249 . S
O65 U46 2.420 . S
O65 C50 1.202 . S
O66 U46 2.455 . S
O66 C63 1.301 . S
O67 U46 2.449 . S
O67 C63 1.282 . S
H68 C41 0.931 . S
H69 C43 0.929 . S
H70 C44 0.930 . S
H71 C45 0.931 . S
H72 C52 0.932 . S
H73 C53 0.930 . S
H74 C54 0.929 . S
H75 C56 0.930 . S
H76 C58 0.932 . S
H77 C59 0.929 . S
H78 C60 0.928 . S
H79 C62 0.932 . S
C80 C81 1.264 . S
C80 C85 1.479 . S
C80 C90 1.465 . S
C81 C80 1.264 . S
C81 C83 1.339 . S
C81 H108 0.931 . S
C82 C83 1.395 . S
C82 C84 1.320 . S
C83 C81 1.339 . S
C83 C82 1.395 . S
C83 H109 0.929 . S
C84 C82 1.320 . S
C84 C85 1.405 . S
C84 H110 0.930 . S
C85 C80 1.479 . S
C85 C84 1.405 . S
C85 H111 0.931 . S
U86 O87 2.454 . S
U86 O88 2.465 . S
U86 C89 2.984 . S
U86 C90 2.847 . S
U86 C103 2.882 1_554 S
U86 O104 2.441 . S
U86 O105 2.420 . S
U86 O106 2.455 1_554 S
U86 O107 2.449 . S
O87 U86 2.454 . S
O87 C89 1.353 . S
O88 U86 2.465 . S
O88 C89 1.303 . S
C89 U86 2.984 . S
C89 O87 1.353 . S
C89 O88 1.303 . S
C89 C91 1.363 . S
C90 C80 1.465 . S
C90 U86 2.847 . S
C90 O104 1.249 . S
C90 O105 1.202 . S
C91 C89 1.363 . S
C91 C93 1.408 . S
C91 C96 1.342 1_554 S
C92 C93 1.310 . S
C92 C95 1.461 . S
C92 H112 0.932 . S
C93 C91 1.408 . S
C93 C92 1.310 . S
C93 H113 0.930 . S
C94 C95 1.474 1_556 S
C94 C96 1.285 . S
C94 H114 0.929 . S
C95 C92 1.461 . S
C95 C94 1.474 1_554 S
C96 C91 1.342 1_556 S
C96 C94 1.285 . S
C96 H115 0.930 . S
C97 C100 1.424 . S
C97 C102 1.245 . S
C97 C103 1.428 . S
C98 C101 1.260 . S
C98 C102 1.477 . S
C98 H116 0.932 . S
C99 C100 1.384 . S
C99 C101 1.479 . S
C99 H117 0.929 . S
C100 C97 1.424 . S
C100 C99 1.384 . S
C100 H118 0.928 . S
C101 C98 1.260 . S
C101 C99 1.479 . S
C102 C97 1.245 . S
C102 C98 1.477 . S
C102 H119 0.932 . S
C103 U86 2.882 1_556 S
C103 C97 1.428 . S
C103 O106 1.301 . S
C103 O107 1.282 1_556 S
O104 U86 2.441 . S
O104 C90 1.249 . S
O105 U86 2.420 . S
O105 C90 1.202 . S
O106 U86 2.455 1_556 S
O106 C103 1.301 . S
O107 U86 2.449 . S
O107 C103 1.282 1_554 S
H108 C81 0.931 . S
H109 C83 0.929 . S
H110 C84 0.930 . S
H111 C85 0.931 . S
H112 C92 0.932 . S
H113 C93 0.930 . S
H114 C94 0.929 . S
H115 C96 0.930 . S
H116 C98 0.932 . S
H117 C99 0.929 . S
H118 C100 0.928 . S
H119 C102 0.932 . S
C120 C121 1.264 . S
C120 C125 1.479 . S
C120 C130 1.465 . S
C121 C120 1.264 . S
C121 C123 1.339 . S
C121 H148 0.931 . S
C122 C123 1.395 . S
C122 C124 1.320 . S
C123 C121 1.339 . S
C123 C122 1.395 . S
C123 H149 0.929 . S
C124 C122 1.320 . S
C124 C125 1.405 . S
C124 H150 0.930 . S
C125 C120 1.479 . S
C125 C124 1.405 . S
C125 H151 0.931 . S
U126 O127 2.454 . S
U126 O128 2.458 . S
U126 C129 2.984 . S
U126 C130 2.847 . S
U126 C143 2.882 . S
U126 O144 2.441 . S
U126 O145 2.420 . S
U126 O146 2.455 . S
U126 O147 2.449 . S
O127 U126 2.454 . S
O127 C129 1.353 . S
O128 U126 2.458 . S
O128 C129 1.286 . S
C129 U126 2.984 . S
C129 O127 1.353 . S
C129 O128 1.286 . S
C129 C131 1.363 . S
C130 C120 1.465 . S
C130 U126 2.847 . S
C130 O144 1.249 . S
C130 O145 1.202 . S
C131 C129 1.363 . S
C131 C133 1.408 . S
C131 C136 1.342 . S
C132 C133 1.310 . S
C132 C135 1.461 . S
C132 H152 0.932 . S
C133 C131 1.408 . S
C133 C132 1.310 . S
C133 H153 0.930 . S
C134 C135 1.474 . S
C134 C136 1.285 . S
C134 H154 0.929 . S
C135 C132 1.461 . S
C135 C134 1.474 . S
C136 C131 1.342 . S
C136 C134 1.285 . S
C136 H155 0.930 . S
C137 C140 1.424 . S
C137 C142 1.245 . S
C137 C143 1.428 . S
C138 C141 1.260 . S
C138 C142 1.477 . S
C138 H156 0.932 . S
C139 C140 1.384 . S
C139 C141 1.479 . S
C139 H157 0.929 . S
C140 C137 1.424 . S
C140 C139 1.384 . S
C140 H158 0.928 . S
C141 C138 1.260 . S
C141 C139 1.479 . S
C142 C137 1.245 . S
C142 C138 1.477 . S
C142 H159 0.932 . S
C143 U126 2.882 . S
C143 C137 1.428 . S
C143 O146 1.301 . S
C143 O147 1.282 . S
O144 U126 2.441 . S
O144 C130 1.249 . S
O145 U126 2.420 . S
O145 C130 1.202 . S
O146 U126 2.455 . S
O146 C143 1.301 . S
O147 U126 2.449 . S
O147 C143 1.282 . S
H148 C121 0.931 . S
H149 C123 0.929 . S
H150 C124 0.930 . S
H151 C125 0.931 . S
H152 C132 0.932 . S
H153 C133 0.930 . S
H154 C134 0.929 . S
H155 C136 0.930 . S
H156 C138 0.932 . S
H157 C139 0.929 . S
H158 C140 0.928 . S
H159 C142 0.932 . S
C160 C162 1.422 . S
C160 C164 1.415 . S
C160 N166 1.369 . S
C161 C162 1.421 . S
C161 C163 1.417 . S
C161 C173 1.422 . S
C162 C160 1.422 . S
C162 C161 1.421 . S
C162 N172 1.359 . S
C163 C161 1.417 . S
C163 C165 1.329 . S
C163 H182 0.930 . S
C164 C160 1.415 . S
C164 C165 1.437 . S
C164 C168 1.413 . S
C165 C163 1.329 . S
C165 C164 1.437 . S
C165 H187 0.929 . S
N166 C160 1.369 . S
N166 C167 1.338 1_655 S
N166 Gd171 2.622 . S
C167 N166 1.338 1_455 S
C167 C169 1.378 1_455 S
C167 H179 0.929 . S
C168 C164 1.413 . S
C168 C169 1.348 . S
C168 H184 0.931 . S
C169 C167 1.378 1_655 S
C169 C168 1.348 . S
C169 H185 0.930 1_655 S
Gd170 N190 2.622 . S
Gd170 N197 2.570 . S
Gd170 O204 2.361 1_455 S
Gd170 O205 2.468 . S
Gd170 O206 2.427 . S
Gd170 O208 2.388 1_455 S
Gd170 O209 2.386 . S
Gd170 O213 2.307 1_565 S
Gd170 C223 2.805 . S
Gd171 N166 2.622 . S
Gd171 N172 2.570 . S
Gd171 O203 2.386 . S
Gd171 O207 2.307 1_545 S
Gd171 O210 2.353 1_655 S
Gd171 O211 2.468 . S
Gd171 O212 2.427 . S
Gd171 O214 2.388 1_655 S
Gd171 C235 2.805 . S
N172 C162 1.359 . S
N172 Gd171 2.570 . S
N172 C174 1.343 . S
C173 C161 1.422 . S
C173 C175 1.321 . S
C173 H181 0.931 . S
C174 N172 1.343 . S
C174 C175 1.390 . S
C174 H176 0.931 . S
C175 C173 1.321 . S
C175 C174 1.390 . S
C175 H177 0.930 . S
H176 C174 0.931 . S
H177 C175 0.930 . S
H178 C201 0.931 . S
H179 C167 0.929 . S
H180 C202 0.930 . S
H181 C173 0.931 . S
H182 C163 0.930 . S
H183 C192 0.929 1_655 S
H184 C168 0.931 . S
H185 C169 0.930 1_455 S
H186 C224 0.930 . S
H187 C165 0.929 . S
H188 C193 0.931 . S
H189 C194 0.930 1_655 S
N190 Gd170 2.622 . S
N190 C191 1.369 . S
N190 C192 1.338 . S
C191 N190 1.369 . S
C191 C195 1.415 . S
C191 C198 1.422 . S
C192 H183 0.929 1_455 S
C192 N190 1.338 . S
C192 C194 1.378 . S
C193 H188 0.931 . S
C193 C194 1.348 . S
C193 C195 1.413 . S
C194 H189 0.930 1_455 S
C194 C192 1.378 . S
C194 C193 1.348 . S
C195 C191 1.415 . S
C195 C193 1.413 . S
C195 C225 1.437 . S
H196 C225 0.929 . S
N197 Gd170 2.570 . S
N197 C198 1.359 . S
N197 C201 1.343 . S
C198 C191 1.422 . S
C198 N197 1.359 . S
C198 C200 1.421 . S
C199 C200 1.422 . S
C199 C202 1.321 . S
C199 H226 0.931 . S
C200 C198 1.421 . S
C200 C199 1.422 . S
C200 C224 1.417 . S
C201 H178 0.931 . S
C201 N197 1.343 . S
C201 C202 1.390 . S
C202 H180 0.930 . S
C202 C199 1.321 . S
C202 C201 1.390 . S
O203 Gd171 2.386 . S
O203 C215 1.265 . S
O204 Gd170 2.361 1_655 S
O204 C215 1.230 1_565 S
O205 Gd170 2.468 . S
O205 C223 1.263 . S
O206 Gd170 2.427 . S
O206 C223 1.252 . S
O207 Gd171 2.307 1_565 S
O207 C216 1.261 . S
O208 Gd170 2.388 1_655 S
O208 C216 1.252 . S
O209 Gd170 2.386 . S
O209 C227 1.265 . S
O210 Gd171 2.353 1_455 S
O210 C227 1.242 1_545 S
O211 Gd171 2.468 . S
O211 C235 1.263 . S
O212 Gd171 2.427 . S
O212 C235 1.252 . S
O213 Gd170 2.307 1_545 S
O213 C228 1.261 . S
O214 Gd171 2.388 1_455 S
O214 C228 1.252 . S
C215 O203 1.265 . S
C215 O204 1.230 1_545 S
C216 O207 1.261 . S
C216 O208 1.252 . S
C217 C220 1.394 . S
C217 C222 1.370 . S
C217 C223 1.500 . S
C218 C221 1.383 . S
C218 C222 1.395 . S
C219 C220 1.396 . S
C219 C221 1.365 . S
C219 H236 0.929 . S
C220 C217 1.394 . S
C220 C219 1.396 . S
C220 H237 0.930 . S
C221 C218 1.383 . S
C221 C219 1.365 . S
C221 H238 0.931 . S
C222 C217 1.370 . S
C222 C218 1.395 . S
C222 H239 0.930 . S
C223 Gd170 2.805 . S
C223 O205 1.263 . S
C223 O206 1.252 . S
C223 C217 1.500 . S
C224 H186 0.930 . S
C224 C200 1.417 . S
C224 C225 1.329 . S
C225 C195 1.437 . S
C225 H196 0.929 . S
C225 C224 1.329 . S
H226 C199 0.931 . S
C227 O209 1.265 . S
C227 O210 1.242 1_565 S
C228 O213 1.261 . S
C228 O214 1.252 . S
C229 C232 1.394 . S
C229 C234 1.370 . S
C229 C235 1.500 . S
C230 C233 1.383 . S
C230 C234 1.395 . S
C231 C232 1.396 . S
C231 C233 1.365 . S
C231 H240 0.929 . S
C232 C229 1.394 . S
C232 C231 1.396 . S
C232 H241 0.930 . S
C233 C230 1.383 . S
C233 C231 1.365 . S
C233 H242 0.931 . S
C234 C229 1.370 . S
C234 C230 1.395 . S
C234 H243 0.930 . S
C235 Gd171 2.805 . S
C235 O211 1.263 . S
C235 O212 1.252 . S
C235 C229 1.500 . S
H236 C219 0.929 . S
H237 C220 0.930 . S
H238 C221 0.931 . S
H239 C222 0.930 . S
H240 C231 0.929 . S
H241 C232 0.930 . S
H242 C233 0.931 . S
H243 C234 0.930 . S
C244 C246 1.422 . S
C244 C248 1.415 . S
C244 N250 1.369 . S
C245 C246 1.421 . S
C245 C247 1.417 . S
C245 C257 1.422 . S
C246 C244 1.422 . S
C246 C245 1.421 . S
C246 N256 1.359 . S
C247 C245 1.417 . S
C247 C249 1.329 . S
C247 H266 0.930 . S
C248 C244 1.415 . S
C248 C249 1.437 . S
C248 C252 1.413 . S
C249 C247 1.329 . S
C249 C248 1.437 . S
C249 H271 0.929 . S
N250 C244 1.369 . S
N250 C251 1.338 . S
N250 Gd255 2.622 . S
C251 N250 1.338 . S
C251 C253 1.378 . S
C251 H263 0.929 . S
C252 C248 1.413 . S
C252 C253 1.348 . S
C252 H268 0.931 . S
C253 C251 1.378 . S
C253 C252 1.348 . S
C253 H269 0.930 . S
Gd254 N274 2.622 . S
Gd254 N281 2.570 1_556 S
Gd254 O288 2.353 . S
Gd254 O289 2.468 . S
Gd254 O290 2.427 . S
Gd254 O292 2.388 . S
Gd254 O293 2.386 1_556 S
Gd254 O297 2.307 1_556 S
Gd254 C307 2.805 . S
Gd255 N250 2.622 . S
Gd255 N256 2.570 . S
Gd255 O287 2.386 1_554 S
Gd255 O291 2.307 . S
Gd255 O294 2.353 . S
Gd255 O295 2.468 . S
Gd255 O296 2.427 . S
Gd255 O298 2.388 . S
Gd255 C319 2.805 . S
N256 C246 1.359 . S
N256 Gd255 2.570 . S
N256 C258 1.343 . S
C257 C245 1.422 . S
C257 C259 1.321 . S
C257 H265 0.931 . S
C258 N256 1.343 . S
C258 C259 1.390 . S
C258 H260 0.931 . S
C259 C257 1.321 . S
C259 C258 1.390 . S
C259 H261 0.930 . S
H260 C258 0.931 . S
H261 C259 0.930 . S
H262 C285 0.931 . S
H263 C251 0.929 . S
H264 C286 0.930 . S
H265 C257 0.931 . S
H266 C247 0.930 . S
H267 C276 0.929 . S
H268 C252 0.931 . S
H269 C253 0.930 . S
H270 C308 0.930 . S
H271 C249 0.929 . S
H272 C277 0.931 . S
H273 C278 0.930 . S
N274 Gd254 2.622 . S
N274 C275 1.369 1_556 S
N274 C276 1.338 . S
C275 N274 1.369 1_554 S
C275 C279 1.415 . S
C275 C282 1.422 . S
C276 H267 0.929 . S
C276 N274 1.338 . S
C276 C278 1.378 . S
C277 H272 0.931 . S
C277 C278 1.348 1_554 S
C277 C279 1.413 . S
C278 H273 0.930 . S
C278 C276 1.378 . S
C278 C277 1.348 1_556 S
C279 C275 1.415 . S
C279 C277 1.413 . S
C279 C309 1.437 . S
H280 C309 0.929 . S
N281 Gd254 2.570 1_554 S
N281 C282 1.359 . S
N281 C285 1.343 . S
C282 C275 1.422 . S
C282 N281 1.359 . S
C282 C284 1.421 . S
C283 C284 1.422 . S
C283 C286 1.321 . S
C283 H310 0.931 . S
C284 C282 1.421 . S
C284 C283 1.422 . S
C284 C308 1.417 . S
C285 H262 0.931 . S
C285 N281 1.343 . S
C285 C286 1.390 . S
C286 H264 0.930 . S
C286 C283 1.321 . S
C286 C285 1.390 . S
O287 Gd255 2.386 1_556 S
O287 C299 1.265 . S
O288 Gd254 2.353 . S
O288 C299 1.242 . S
O289 Gd254 2.468 . S
O289 C307 1.263 . S
O290 Gd254 2.427 . S
O290 C307 1.252 . S
O291 Gd255 2.307 . S
O291 C300 1.261 . S
O292 Gd254 2.388 . S
O292 C300 1.252 1_556 S
O293 Gd254 2.386 1_554 S
O293 C311 1.265 . S
O294 Gd255 2.353 . S
O294 C311 1.242 . S
O295 Gd255 2.468 . S
O295 C319 1.263 . S
O296 Gd255 2.427 . S
O296 C319 1.252 . S
O297 Gd254 2.307 1_554 S
O297 C312 1.261 . S
O298 Gd255 2.388 . S
O298 C312 1.252 . S
C299 O287 1.265 . S
C299 O288 1.242 . S
C300 O291 1.261 . S
C300 O292 1.252 1_554 S
C301 C304 1.394 . S
C301 C306 1.370 . S
C301 C307 1.500 . S
C302 C305 1.383 . S
C302 C306 1.395 . S
C303 C304 1.396 . S
C303 C305 1.365 . S
C303 H320 0.929 . S
C304 C301 1.394 . S
C304 C303 1.396 . S
C304 H321 0.930 . S
C305 C302 1.383 . S
C305 C303 1.365 . S
C305 H322 0.931 . S
C306 C301 1.370 . S
C306 C302 1.395 . S
C306 H323 0.930 . S
C307 Gd254 2.805 . S
C307 O289 1.263 . S
C307 O290 1.252 . S
C307 C301 1.500 . S
C308 H270 0.930 . S
C308 C284 1.417 . S
C308 C309 1.329 . S
C309 C279 1.437 . S
C309 H280 0.929 . S
C309 C308 1.329 . S
H310 C283 0.931 . S
C311 O293 1.265 . S
C311 O294 1.242 . S
C312 O297 1.261 . S
C312 O298 1.252 . S
C313 C316 1.394 . S
C313 C318 1.370 . S
C313 C319 1.500 . S
C314 C317 1.383 . S
C314 C318 1.395 . S
C315 C316 1.396 . S
C315 C317 1.365 . S
C315 H324 0.929 . S
C316 C313 1.394 . S
C316 C315 1.396 . S
C316 H325 0.930 . S
C317 C314 1.383 . S
C317 C315 1.365 . S
C317 H326 0.931 . S
C318 C313 1.370 . S
C318 C314 1.395 . S
C318 H327 0.930 . S
C319 Gd255 2.805 . S
C319 O295 1.263 . S
C319 O296 1.252 . S
C319 C313 1.500 . S
H320 C303 0.929 . S
H321 C304 0.930 . S
H322 C305 0.931 . S
H323 C306 0.930 . S
H324 C315 0.929 . S
H325 C316 0.930 . S
H326 C317 0.931 . S
H327 C318 0.930 . S
H328 C334 0.930 . S
H329 C338 0.930 . S
H330 C343 0.929 . S
H331 C341 0.929 . S
H332 C336 0.929 . S
H333 C342 0.929 . S
C334 H328 0.930 . S
C334 C335 1.367 . S
C334 C342 1.378 . S
C335 C334 1.367 . S
C335 C343 1.433 . S
C336 H332 0.929 . S
C336 C338 1.378 . S
C336 C340 1.350 . S
C337 C340 1.463 . S
C337 C342 1.350 . S
C337 N345 1.427 . S
C338 H329 0.930 . S
C338 C336 1.378 . S
C338 C339 1.367 . S
C339 C338 1.367 . S
C339 C341 1.433 . S
C340 C336 1.350 . S
C340 C337 1.463 . S
C340 N344 1.427 . S
C341 H331 0.929 . S
C341 C339 1.433 . S
C341 N344 1.384 . S
C342 H333 0.929 . S
C342 C334 1.378 . S
C342 C337 1.350 . S
C343 H330 0.929 . S
C343 C335 1.433 . S
C343 N345 1.384 . S
N344 C340 1.427 . S
N344 C341 1.384 . S
N345 C337 1.427 . S
N345 C343 1.384 . S
H346 C352 0.930 . S
H347 C356 0.930 . S
H348 C361 0.929 . S
H349 C359 0.943 . S
H350 C354 0.929 . S
H351 C360 0.929 . S
C352 H346 0.930 . S
C352 C353 1.367 . S
C352 C360 1.378 . S
C353 C352 1.367 . S
C353 C361 1.433 . S
C354 H350 0.929 . S
C354 C356 1.378 . S
C354 C358 1.350 . S
C355 C358 1.463 . S
C355 C360 1.350 . S
C355 N363 1.427 . S
C356 H347 0.930 . S
C356 C354 1.378 . S
C356 C357 1.367 . S
C357 C356 1.367 . S
C357 C359 1.433 . S
C358 C354 1.350 . S
C358 C355 1.463 . S
C358 N362 1.427 . S
C359 H349 0.943 . S
C359 C357 1.433 . S
C359 N362 1.384 . S
C360 H351 0.929 . S
C360 C352 1.378 . S
C360 C355 1.350 . S
C361 H348 0.929 . S
C361 C353 1.433 . S
C361 N363 1.384 . S
N362 C358 1.427 . S
N362 C359 1.384 . S
N363 C355 1.427 . S
N363 C361 1.384 . S
H364 C370 0.930 . S
H365 C374 0.930 . S
H366 C379 0.929 . S
H367 C377 0.929 . S
H368 C372 0.929 . S
H369 C378 0.929 . S
C370 H364 0.930 . S
C370 C371 1.367 . S
C370 C378 1.378 . S
C371 C370 1.367 . S
C371 C379 1.433 . S
C372 H368 0.929 . S
C372 C374 1.378 . S
C372 C376 1.350 . S
C373 C376 1.463 . S
C373 C378 1.350 . S
C373 N381 1.427 . S
C374 H365 0.930 . S
C374 C372 1.378 . S
C374 C375 1.367 . S
C375 C374 1.367 . S
C375 C377 1.433 . S
C376 C372 1.350 . S
C376 C373 1.463 . S
C376 N380 1.427 . S
C377 H367 0.929 . S
C377 C375 1.433 . S
C377 N380 1.384 . S
C378 H369 0.929 . S
C378 C370 1.378 . S
C378 C373 1.350 . S
C379 H366 0.929 . S
C379 C371 1.433 . S
C379 N381 1.384 . S
N380 C376 1.427 . S
N380 C377 1.384 . S
N381 C373 1.427 . S
N381 C379 1.384 . S
H382 C388 0.930 . S
H383 C392 0.930 . S
H384 C397 0.929 . S
H385 C395 0.929 . S
H386 C390 0.929 . S
H387 C396 0.929 . S
C388 H382 0.930 . S
C388 C389 1.367 . S
C388 C396 1.378 . S
C389 C388 1.367 . S
C389 C397 1.433 . S
C390 H386 0.929 . S
C390 C392 1.378 . S
C390 C394 1.350 . S
C391 C394 1.463 . S
C391 C396 1.350 . S
C391 N399 1.427 . S
C392 H383 0.930 . S
C392 C390 1.378 . S
C392 C393 1.367 . S
C393 C392 1.367 . S
C393 C395 1.433 . S
C394 C390 1.350 . S
C394 C391 1.463 . S
C394 N398 1.427 . S
C395 H385 0.929 . S
C395 C393 1.433 . S
C395 N398 1.384 . S
C396 H387 0.929 . S
C396 C388 1.378 . S
C396 C391 1.350 . S
C397 H384 0.929 . S
C397 C389 1.433 . S
C397 N399 1.384 . S
N398 C394 1.427 . S
N398 C395 1.384 . S
N399 C391 1.427 . S
N399 C397 1.384 . S
H400 C406 0.930 . S
H401 C410 0.930 . S
H402 C415 0.929 . S
H403 C413 0.929 1_545 S
H404 C408 0.929 . S
H405 C414 0.929 . S
C406 H400 0.930 . S
C406 C407 1.367 . S
C406 C414 1.378 . S
C407 C406 1.367 . S
C407 C415 1.433 . S
C408 H404 0.929 . S
C408 C410 1.378 . S
C408 C412 1.350 . S
C409 C412 1.463 . S
C409 C414 1.350 . S
C409 N417 1.427 . S
C410 H401 0.930 . S
C410 C408 1.378 . S
C410 C411 1.367 . S
C411 C410 1.367 . S
C411 C413 1.433 . S
C412 C408 1.350 . S
C412 C409 1.463 . S
C412 N416 1.427 . S
C413 H403 0.929 1_565 S
C413 C411 1.433 . S
C413 N416 1.384 . S
C414 H405 0.929 . S
C414 C406 1.378 . S
C414 C409 1.350 . S
C415 H402 0.929 . S
C415 C407 1.433 . S
C415 N417 1.384 . S
N416 C412 1.427 . S
N416 C413 1.384 . S
N417 C409 1.427 . S
N417 C415 1.384 . S
H418 C424 0.930 . S
H419 C428 0.930 . S
H420 C433 0.929 . S
H421 C431 0.929 . S
H422 C426 0.929 . S
H423 C432 0.929 . S
C424 H418 0.930 . S
C424 C425 1.367 . S
C424 C432 1.378 . S
C425 C424 1.367 . S
C425 C433 1.433 . S
C426 H422 0.929 . S
C426 C428 1.378 . S
C426 C430 1.350 . S
C427 C430 1.463 . S
C427 C432 1.350 . S
C427 N435 1.427 . S
C428 H419 0.930 . S
C428 C426 1.378 . S
C428 C429 1.367 . S
C429 C428 1.367 . S
C429 C431 1.433 . S
C430 C426 1.350 . S
C430 C427 1.463 . S
C430 N434 1.427 . S
C431 H421 0.929 . S
C431 C429 1.433 . S
C431 N434 1.384 . S
C432 H423 0.929 . S
C432 C424 1.378 . S
C432 C427 1.350 . S
C433 H420 0.929 . S
C433 C425 1.433 . S
C433 N435 1.384 . S
N434 C430 1.427 . S
N434 C431 1.384 . S
N435 C427 1.427 . S
N435 C433 1.384 . S
H436 C442 0.930 . S
H437 C446 0.930 . S
H438 C451 0.929 . S
H439 C449 0.929 1_565 S
H440 C444 0.929 . S
H441 C450 0.929 . S
C442 H436 0.930 . S
C442 C443 1.367 . S
C442 C450 1.378 . S
C443 C442 1.367 . S
C443 C451 1.433 . S
C444 H440 0.929 . S
C444 C446 1.378 . S
C444 C448 1.350 . S
C445 C448 1.463 . S
C445 C450 1.350 . S
C445 N453 1.427 . S
C446 H437 0.930 . S
C446 C444 1.378 . S
C446 C447 1.367 . S
C447 C446 1.367 . S
C447 C449 1.433 . S
C448 C444 1.350 . S
C448 C445 1.463 . S
C448 N452 1.427 . S
C449 H439 0.929 1_545 S
C449 C447 1.433 . S
C449 N452 1.384 . S
C450 H441 0.929 . S
C450 C442 1.378 . S
C450 C445 1.350 . S
C451 H438 0.929 . S
C451 C443 1.433 . S
C451 N453 1.384 . S
N452 C448 1.427 . S
N452 C449 1.384 . S
N453 C445 1.427 . S
N453 C451 1.384 . S
H454 C460 0.930 . S
H455 C464 0.930 . S
H456 C469 0.929 . S
H457 C467 0.929 . S
H458 C462 0.929 . S
H459 C468 0.929 . S
C460 H454 0.930 . S
C460 C461 1.367 . S
C460 C468 1.378 . S
C461 C460 1.367 . S
C461 C469 1.433 . S
C462 H458 0.929 . S
C462 C464 1.378 . S
C462 C466 1.350 . S
C463 C466 1.463 . S
C463 C468 1.350 . S
C463 N471 1.427 . S
C464 H455 0.930 . S
C464 C462 1.378 . S
C464 C465 1.367 . S
C465 C464 1.367 . S
C465 C467 1.433 . S
C466 C462 1.350 . S
C466 C463 1.463 . S
C466 N470 1.427 . S
C467 H457 0.929 . S
C467 C465 1.433 . S
C467 N470 1.384 . S
C468 H459 0.929 . S
C468 C460 1.378 . S
C468 C463 1.350 . S
C469 H456 0.929 . S
C469 C461 1.433 . S
C469 N471 1.384 . S
N470 C466 1.427 . S
N470 C467 1.384 . S
N471 C463 1.427 . S
N471 C469 1.384 . S
H472 C478 0.930 . S
H473 C482 0.930 . S
H474 C487 0.929 . S
H475 C485 0.929 . S
H476 C480 0.929 . S
H477 C486 0.929 . S
C478 H472 0.930 . S
C478 C479 1.367 . S
C478 C486 1.378 . S
C479 C478 1.367 . S
C479 C487 1.433 . S
C480 H476 0.929 . S
C480 C482 1.378 . S
C480 C484 1.350 . S
C481 C484 1.463 . S
C481 C486 1.350 . S
C481 N489 1.427 . S
C482 H473 0.930 . S
C482 C480 1.378 . S
C482 C483 1.367 . S
C483 C482 1.367 . S
C483 C485 1.433 . S
C484 C480 1.350 . S
C484 C481 1.463 . S
C484 N488 1.427 . S
C485 H475 0.929 . S
C485 C483 1.433 . S
C485 N488 1.384 . S
C486 H477 0.929 . S
C486 C478 1.378 . S
C486 C481 1.350 . S
C487 H474 0.929 . S
C487 C479 1.433 . S
C487 N489 1.384 . S
N488 C484 1.427 . S
N488 C485 1.384 . S
N489 C481 1.427 . S
N489 C487 1.384 . S
H490 C496 0.930 . S
H491 C500 0.930 . S
H492 C505 0.929 . S
H493 C503 0.929 . S
H494 C498 0.929 . S
H495 C504 0.929 . S
C496 H490 0.930 . S
C496 C497 1.367 . S
C496 C504 1.378 . S
C497 C496 1.367 . S
C497 C505 1.433 . S
C498 H494 0.929 . S
C498 C500 1.378 . S
C498 C502 1.350 . S
C499 C502 1.463 . S
C499 C504 1.350 . S
C499 N507 1.427 . S
C500 H491 0.930 . S
C500 C498 1.378 . S
C500 C501 1.367 . S
C501 C500 1.367 . S
C501 C503 1.433 . S
C502 C498 1.350 . S
C502 C499 1.463 . S
C502 N506 1.427 . S
C503 H493 0.929 . S
C503 C501 1.433 . S
C503 N506 1.384 . S
C504 H495 0.929 . S
C504 C496 1.378 . S
C504 C499 1.350 . S
C505 H492 0.929 . S
C505 C497 1.433 . S
C505 N507 1.384 . S
N506 C502 1.427 . S
N506 C503 1.384 . S
N507 C499 1.427 . S
N507 C505 1.384 . S
H508 C514 0.930 . S
H509 C518 0.930 . S
H510 C523 0.929 . S
H511 C521 0.929 . S
H512 C516 0.929 . S
H513 C522 0.929 . S
C514 H508 0.930 . S
C514 C515 1.367 . S
C514 C522 1.378 . S
C515 C514 1.367 . S
C515 C523 1.433 . S
C516 H512 0.929 . S
C516 C518 1.378 . S
C516 C520 1.350 . S
C517 C520 1.463 . S
C517 C522 1.350 . S
C517 N525 1.427 . S
C518 H509 0.930 . S
C518 C516 1.378 . S
C518 C519 1.367 . S
C519 C518 1.367 . S
C519 C521 1.433 . S
C520 C516 1.350 . S
C520 C517 1.463 . S
C520 N524 1.427 . S
C521 H511 0.929 . S
C521 C519 1.433 . S
C521 N524 1.384 . S
C522 H513 0.929 . S
C522 C514 1.378 . S
C522 C517 1.350 . S
C523 H510 0.929 . S
C523 C515 1.433 . S
C523 N525 1.384 . S
N524 C520 1.427 . S
N524 C521 1.384 . S
N525 C517 1.427 . S
N525 C523 1.384 . S
H526 C532 0.930 . S
H527 C536 0.930 1_545 S
H528 C541 0.929 . S
H529 C539 0.929 . S
H530 C534 0.929 1_545 S
H531 C540 0.929 . S
C532 H526 0.930 . S
C532 C533 1.367 . S
C532 C540 1.378 . S
C533 C532 1.367 . S
C533 C541 1.433 . S
C534 H530 0.929 1_565 S
C534 C536 1.378 . S
C534 C538 1.350 . S
C535 C538 1.463 . S
C535 C540 1.350 . S
C535 N543 1.427 . S
C536 H527 0.930 1_565 S
C536 C534 1.378 . S
C536 C537 1.367 . S
C537 C536 1.367 . S
C537 C539 1.433 . S
C538 C534 1.350 . S
C538 C535 1.463 . S
C538 N542 1.427 . S
C539 H529 0.929 . S
C539 C537 1.433 . S
C539 N542 1.384 . S
C540 H531 0.929 . S
C540 C532 1.378 . S
C540 C535 1.350 . S
C541 H528 0.929 . S
C541 C533 1.433 . S
C541 N543 1.384 . S
N542 C538 1.427 . S
N542 C539 1.384 . S
N543 C535 1.427 . S
N543 C541 1.384 . S
C339 C228 1.668 . S
C335 C135 1.659 . S
C353 C15 1.649 . S
C357 C300 1.652 . S
C371 C55 1.651 . S
C375 C216 1.658 . S
C389 C95 1.661 . S
C393 C312 1.667 . S
C411 C218 1.409 . S
C407 C2 1.559 . S
C429 C299 1.619 . S
C425 C42 1.619 . S
C443 C82 1.620 . S
C447 C215 1.630 . S
C461 C141 1.519 . S
C465 C302 1.400 . S
C483 C314 1.426 . S
C479 C61 1.563 . S
C501 C230 1.455 . S
C497 C101 1.588 . S
C519 C311 1.646 . S
C515 C122 1.603 . S
C533 C21 1.657 . S
C537 C227 1.658 . S
