# Generated by pormake.
# Topology ocu, (6,8)-cn, num edge types: 1
# Building blocks:
#     Node 0, Type 0, BuildingBlock: PAMTUU_clean_sbu_0, # of connection points: 6
#     Node 1, Type 0, BuildingBlock: PAMTUU_clean_sbu_0, # of connection points: 6
#     Node 2, Type 0, BuildingBlock: PAMTUU_clean_sbu_0, # of connection points: 6
#     Node 3, Type 0, BuildingBlock: PAMTUU_clean_sbu_0, # of connection points: 6
#     Node 4, Type 0, BuildingBlock: PAMTUU_clean_sbu_0, # of connection points: 6
#     Node 5, Type 0, BuildingBlock: PAMTUU_clean_sbu_0, # of connection points: 6
#     Node 6, Type 0, BuildingBlock: PAMTUU_clean_sbu_0, # of connection points: 6
#     Node 7, Type 0, BuildingBlock: PAMTUU_clean_sbu_0, # of connection points: 6
#     Node 8, Type 1, BuildingBlock: VETTIZ_charged_sbu_0, # of connection points: 8
#     Node 9, Type 1, BuildingBlock: VETTIZ_charged_sbu_0, # of connection points: 8
#     Node 10, Type 1, BuildingBlock: VETTIZ_charged_sbu_0, # of connection points: 8
#     Node 11, Type 1, BuildingBlock: VETTIZ_charged_sbu_0, # of connection points: 8
#     Node 12, Type 1, BuildingBlock: VETTIZ_charged_sbu_0, # of connection points: 8
#     Node 13, Type 1, BuildingBlock: VETTIZ_charged_sbu_0, # of connection points: 8
#     Edge 14, Type (0, 1), BuildingBlock: KIFKEQ_clean_linker_1, # of connection points: 2
#     Edge 15, Type (0, 1), BuildingBlock: KIFKEQ_clean_linker_1, # of connection points: 2
#     Edge 16, Type (0, 1), BuildingBlock: KIFKEQ_clean_linker_1, # of connection points: 2
#     Edge 17, Type (0, 1), BuildingBlock: KIFKEQ_clean_linker_1, # of connection points: 2
#     Edge 18, Type (0, 1), BuildingBlock: KIFKEQ_clean_linker_1, # of connection points: 2
#     Edge 19, Type (0, 1), BuildingBlock: KIFKEQ_clean_linker_1, # of connection points: 2
#     Edge 20, Type (0, 1), BuildingBlock: KIFKEQ_clean_linker_1, # of connection points: 2
#     Edge 21, Type (0, 1), BuildingBlock: KIFKEQ_clean_linker_1, # of connection points: 2
#     Edge 22, Type (0, 1), BuildingBlock: KIFKEQ_clean_linker_1, # of connection points: 2
#     Edge 23, Type (0, 1), BuildingBlock: KIFKEQ_clean_linker_1, # of connection points: 2
#     Edge 24, Type (0, 1), BuildingBlock: KIFKEQ_clean_linker_1, # of connection points: 2
#     Edge 25, Type (0, 1), BuildingBlock: KIFKEQ_clean_linker_1, # of connection points: 2
#     Edge 26, Type (0, 1), BuildingBlock: KIFKEQ_clean_linker_1, # of connection points: 2
#     Edge 27, Type (0, 1), BuildingBlock: KIFKEQ_clean_linker_1, # of connection points: 2
#     Edge 28, Type (0, 1), BuildingBlock: KIFKEQ_clean_linker_1, # of connection points: 2
#     Edge 29, Type (0, 1), BuildingBlock: KIFKEQ_clean_linker_1, # of connection points: 2
#     Edge 30, Type (0, 1), BuildingBlock: KIFKEQ_clean_linker_1, # of connection points: 2
#     Edge 31, Type (0, 1), BuildingBlock: KIFKEQ_clean_linker_1, # of connection points: 2
#     Edge 32, Type (0, 1), BuildingBlock: KIFKEQ_clean_linker_1, # of connection points: 2
#     Edge 33, Type (0, 1), BuildingBlock: KIFKEQ_clean_linker_1, # of connection points: 2
#     Edge 34, Type (0, 1), BuildingBlock: KIFKEQ_clean_linker_1, # of connection points: 2
#     Edge 35, Type (0, 1), BuildingBlock: KIFKEQ_clean_linker_1, # of connection points: 2
#     Edge 36, Type (0, 1), BuildingBlock: KIFKEQ_clean_linker_1, # of connection points: 2
#     Edge 37, Type (0, 1), BuildingBlock: KIFKEQ_clean_linker_1, # of connection points: 2
#     Edge 38, Type (0, 1), BuildingBlock: KIFKEQ_clean_linker_1, # of connection points: 2
#     Edge 39, Type (0, 1), BuildingBlock: KIFKEQ_clean_linker_1, # of connection points: 2
#     Edge 40, Type (0, 1), BuildingBlock: KIFKEQ_clean_linker_1, # of connection points: 2
#     Edge 41, Type (0, 1), BuildingBlock: KIFKEQ_clean_linker_1, # of connection points: 2
#     Edge 42, Type (0, 1), BuildingBlock: KIFKEQ_clean_linker_1, # of connection points: 2
#     Edge 43, Type (0, 1), BuildingBlock: KIFKEQ_clean_linker_1, # of connection points: 2
#     Edge 44, Type (0, 1), BuildingBlock: KIFKEQ_clean_linker_1, # of connection points: 2
#     Edge 45, Type (0, 1), BuildingBlock: KIFKEQ_clean_linker_1, # of connection points: 2
#     Edge 46, Type (0, 1), BuildingBlock: KIFKEQ_clean_linker_1, # of connection points: 2
#     Edge 47, Type (0, 1), BuildingBlock: KIFKEQ_clean_linker_1, # of connection points: 2
#     Edge 48, Type (0, 1), BuildingBlock: KIFKEQ_clean_linker_1, # of connection points: 2
#     Edge 49, Type (0, 1), BuildingBlock: KIFKEQ_clean_linker_1, # of connection points: 2
#     Edge 50, Type (0, 1), BuildingBlock: KIFKEQ_clean_linker_1, # of connection points: 2
#     Edge 51, Type (0, 1), BuildingBlock: KIFKEQ_clean_linker_1, # of connection points: 2
#     Edge 52, Type (0, 1), BuildingBlock: KIFKEQ_clean_linker_1, # of connection points: 2
#     Edge 53, Type (0, 1), BuildingBlock: KIFKEQ_clean_linker_1, # of connection points: 2
#     Edge 54, Type (0, 1), BuildingBlock: KIFKEQ_clean_linker_1, # of connection points: 2
#     Edge 55, Type (0, 1), BuildingBlock: KIFKEQ_clean_linker_1, # of connection points: 2
#     Edge 56, Type (0, 1), BuildingBlock: KIFKEQ_clean_linker_1, # of connection points: 2
#     Edge 57, Type (0, 1), BuildingBlock: KIFKEQ_clean_linker_1, # of connection points: 2
#     Edge 58, Type (0, 1), BuildingBlock: KIFKEQ_clean_linker_1, # of connection points: 2
#     Edge 59, Type (0, 1), BuildingBlock: KIFKEQ_clean_linker_1, # of connection points: 2
#     Edge 60, Type (0, 1), BuildingBlock: KIFKEQ_clean_linker_1, # of connection points: 2
#     Edge 61, Type (0, 1), BuildingBlock: KIFKEQ_clean_linker_1, # of connection points: 2
# Relax obj value: 0.129
# Max RMSD: 0.238
# Mean RMSD: 0.147
data_MOF--net-ocu--node1-PAMTUU_clean_sbu_0--node2-VETTIZ_charged_sbu_0--edge1-KIFKEQ_clean_linker_1
_symmetry_space_group_name_H-M    P1
_symmetry_Int_Tables_number       1
_symmetry_cell_setting            triclinic
loop_
_symmetry_equiv_pos_as_xyz
'x, y, z'
_cell_length_a     37.652974
_cell_length_b     41.444336
_cell_length_c     40.431893
_cell_angle_alpha  84.28121
_cell_angle_beta   95.689457
_cell_angle_gamma 101.98449
loop_
_atom_site_label
_atom_site_type_symbol
_atom_site_fract_x
_atom_site_fract_y
_atom_site_fract_z
_atom_type_partial_charge
Tb0 Tb 0.27783 0.29358 0.24516 0.0
Tb1 Tb 0.33955 0.29893 0.30445 0.0
C2 C 0.27053 0.24593 0.30929 0.0
C3 C 0.18568 0.2795 0.20675 0.0
C4 C 0.11483 0.28734 0.2143 0.0
C5 C 0.13881 0.28308 0.24251 0.0
C6 C 0.1741 0.2794 0.23872 0.0
C7 C 0.16077 0.28018 0.17881 0.0
C8 C 0.12542 0.28392 0.18256 0.0
C9 C 0.2244 0.28238 0.20269 0.0
O10 O 0.26038 0.33064 0.27457 0.0
O11 O 0.29945 0.32686 0.32122 0.0
O12 O 0.35504 0.34457 0.27386 0.0
O13 O 0.32329 0.32884 0.2249 0.0
O14 O 0.35022 0.30226 0.35586 0.0
O15 O 0.39373 0.30261 0.32491 0.0
O16 O 0.36252 0.27093 0.2688 0.0
O17 O 0.31305 0.25985 0.23095 0.0
O18 O 0.25519 0.26663 0.28938 0.0
O19 O 0.30591 0.24998 0.31228 0.0
C20 C 0.27098 0.33832 0.3058 0.0
O21 O 0.24441 0.31185 0.20619 0.0
O22 O 0.23914 0.25917 0.21928 0.0
C23 C 0.34951 0.34848 0.24138 0.0
C24 C 0.39463 0.27373 0.37819 0.0
C25 C 0.40369 0.22031 0.4245 0.0
C26 C 0.40757 0.25227 0.43506 0.0
C27 C 0.40307 0.27879 0.41202 0.0
C28 C 0.39097 0.24199 0.36746 0.0
C29 C 0.39572 0.21554 0.39039 0.0
C30 C 0.38413 0.30031 0.35531 0.0
C31 C 0.34673 0.25612 0.24166 0.0
H32 H 0.13138 0.28561 0.2672 0.0
H33 H 0.19304 0.27878 0.26061 0.0
H34 H 0.16931 0.2801 0.15401 0.0
H35 H 0.10774 0.28754 0.16027 0.0
H36 H 0.41338 0.25667 0.46119 0.0
H37 H 0.40507 0.30305 0.42074 0.0
H38 H 0.38366 0.23752 0.34147 0.0
H39 H 0.39329 0.19138 0.38134 0.0
Tb40 Tb 0.75433 0.33611 0.31541 0.0
Tb41 Tb 0.78712 0.28241 0.27915 0.0
C42 C 0.83396 0.32683 0.32991 0.0
C43 C 0.72581 0.40969 0.34267 0.0
C44 C 0.7007 0.46539 0.31344 0.0
C45 C 0.68453 0.44748 0.34135 0.0
C46 C 0.69682 0.41932 0.35565 0.0
C47 C 0.74654 0.43132 0.3198 0.0
C48 C 0.7343 0.45942 0.30552 0.0
C49 C 0.72714 0.3746 0.34549 0.0
O50 O 0.77344 0.36416 0.26887 0.0
O51 O 0.81018 0.33002 0.25499 0.0
O52 O 0.74201 0.29755 0.24871 0.0
O53 O 0.71064 0.30035 0.29243 0.0
O54 O 0.82986 0.26742 0.25928 0.0
O55 O 0.77512 0.2383 0.25517 0.0
O56 O 0.75539 0.2537 0.31824 0.0
O57 O 0.75616 0.29474 0.35261 0.0
O58 O 0.81283 0.34826 0.32191 0.0
O59 O 0.82427 0.29599 0.32244 0.0
C60 C 0.79906 0.35834 0.25126 0.0
O61 O 0.71081 0.35895 0.32001 0.0
O62 O 0.75848 0.36655 0.35491 0.0
C63 C 0.71087 0.29407 0.26147 0.0
C64 C 0.82387 0.21008 0.26231 0.0
C65 C 0.8615 0.16005 0.28825 0.0
C66 C 0.86486 0.17369 0.25517 0.0
C67 C 0.84614 0.19857 0.2423 0.0
C68 C 0.81891 0.19537 0.29469 0.0
C69 C 0.83745 0.17045 0.30751 0.0
C70 C 0.80928 0.23968 0.25067 0.0
C71 C 0.75052 0.26331 0.3472 0.0
H72 H 0.65921 0.45209 0.34859 0.0
H73 H 0.68085 0.40294 0.37372 0.0
H74 H 0.76925 0.4243 0.30977 0.0
H75 H 0.74799 0.47297 0.28453 0.0
H76 H 0.88307 0.16605 0.23974 0.0
H77 H 0.85029 0.20982 0.21725 0.0
H78 H 0.80209 0.20424 0.31059 0.0
H79 H 0.83474 0.1609 0.33327 0.0
Tb80 Tb 0.8522 0.8001 0.25609 0.0
Tb81 Tb 0.79144 0.77147 0.30586 0.0
C82 C 0.85462 0.82766 0.32388 0.0
C83 C 0.94103 0.8235 0.22351 0.0
C84 C 0.99467 0.78683 0.22034 0.0
C85 C 0.9818 0.78935 0.25121 0.0
C86 C 0.95487 0.80756 0.25277 0.0
C87 C 0.95851 0.82588 0.19417 0.0
C88 C 0.98555 0.80778 0.19263 0.0
C89 C 0.90338 0.82798 0.22109 0.0
O90 O 0.8763 0.75819 0.28274 0.0
O91 O 0.83536 0.74174 0.32255 0.0
O92 O 0.78147 0.73376 0.27121 0.0
O93 O 0.81763 0.76027 0.22993 0.0
O94 O 0.78356 0.75698 0.3561 0.0
O95 O 0.73768 0.7557 0.31945 0.0
O96 O 0.76162 0.80291 0.26849 0.0
O97 O 0.81012 0.83177 0.24104 0.0
O98 O 0.87286 0.81374 0.30572 0.0
O99 O 0.81917 0.82005 0.32061 0.0
C100 C 0.86597 0.73889 0.30991 0.0
O101 O 0.87974 0.80157 0.21332 0.0
O102 O 0.89375 0.8414 0.2457 0.0
C103 C 0.7933 0.73533 0.24161 0.0
C104 C 0.73452 0.77586 0.37114 0.0
C105 C 0.72232 0.82107 0.41391 0.0
C106 C 0.7191 0.78739 0.42495 0.0
C107 C 0.7253 0.7649 0.40365 0.0
C108 C 0.7367 0.80923 0.3598 0.0
C109 C 0.73069 0.83163 0.38097 0.0
C110 C 0.74847 0.75451 0.35116 0.0
C111 C 0.77495 0.82721 0.24621 0.0
H112 H 0.98882 0.77375 0.27298 0.0
H113 H 0.94179 0.80566 0.27577 0.0
H114 H 0.94814 0.83815 0.17143 0.0
H115 H 0.99514 0.80644 0.16851 0.0
H116 H 0.71233 0.77856 0.45012 0.0
H117 H 0.72426 0.7393 0.41292 0.0
H118 H 0.74474 0.81829 0.33502 0.0
H119 H 0.73402 0.85748 0.37189 0.0
Tb120 Tb 0.36854 0.74826 0.30981 0.0
Tb121 Tb 0.31626 0.80293 0.30431 0.0
C122 C 0.30741 0.74291 0.3585 0.0
C123 C 0.43756 0.70662 0.28612 0.0
C124 C 0.48574 0.7012 0.23922 0.0
C125 C 0.48666 0.68313 0.27054 0.0
C126 C 0.46265 0.68584 0.29388 0.0
C127 C 0.43713 0.72529 0.25526 0.0
C128 C 0.46103 0.7226 0.23197 0.0
C129 C 0.41276 0.71005 0.31054 0.0
O130 O 0.32968 0.73792 0.26618 0.0
O131 O 0.28325 0.76146 0.27956 0.0
O132 O 0.34134 0.80542 0.25828 0.0
O133 O 0.39418 0.79316 0.28223 0.0
O134 O 0.26878 0.81982 0.311 0.0
O135 O 0.3137 0.85188 0.28743 0.0
O136 O 0.3663 0.82159 0.33452 0.0
O137 O 0.38081 0.77241 0.3559 0.0
O138 O 0.3256 0.72704 0.34175 0.0
O139 O 0.30513 0.77402 0.35097 0.0
C140 C 0.2953 0.74116 0.26244 0.0
O141 O 0.42051 0.73832 0.32366 0.0
O142 O 0.37812 0.70167 0.30141 0.0
C143 C 0.37658 0.80907 0.2588 0.0
C144 C 0.28338 0.87538 0.32325 0.0
C145 C 0.28392 0.92352 0.36768 0.0
C146 C 0.2624 0.92336 0.33713 0.0
C147 C 0.26218 0.89944 0.31506 0.0
C148 C 0.30554 0.87583 0.3533 0.0
C149 C 0.30585 0.89974 0.37534 0.0
C150 C 0.28294 0.85009 0.30037 0.0
C151 C 0.38288 0.80413 0.35769 0.0
H152 H 0.50512 0.66614 0.27658 0.0
H153 H 0.46345 0.67156 0.31779 0.0
H154 H 0.41816 0.74182 0.24915 0.0
H155 H 0.45996 0.737 0.20814 0.0
H156 H 0.24471 0.94098 0.33077 0.0
H157 H 0.24509 0.89944 0.29187 0.0
H158 H 0.32231 0.85748 0.35984 0.0
H159 H 0.32286 0.89937 0.39855 0.0
Tb160 Tb 0.26855 0.79282 0.80313 0.0
Tb161 Tb 0.33769 0.75984 0.80426 0.0
C162 C 0.34032 0.81831 0.8523 0.0
C163 C 0.20404 0.84863 0.80977 0.0
C164 C 0.18782 0.91218 0.80378 0.0
C165 C 0.15988 0.88393 0.80028 0.0
C166 C 0.16801 0.85248 0.80324 0.0
C167 C 0.23159 0.87606 0.81679 0.0
C168 C 0.22345 0.90769 0.81414 0.0
C169 C 0.21263 0.81676 0.80492 0.0
O170 O 0.30878 0.82975 0.77777 0.0
O171 O 0.33211 0.79036 0.75785 0.0
O172 O 0.29665 0.72677 0.77316 0.0
O173 O 0.2563 0.76161 0.75972 0.0
O174 O 0.38898 0.76713 0.78585 0.0
O175 O 0.36846 0.72279 0.81666 0.0
O176 O 0.30975 0.73702 0.84847 0.0
O177 O 0.25403 0.74248 0.82465 0.0
O178 O 0.30461 0.81517 0.84566 0.0
O179 O 0.35837 0.80144 0.83623 0.0
C180 C 0.32845 0.82113 0.75657 0.0
O181 O 0.22819 0.81582 0.77767 0.0
O182 O 0.22777 0.80179 0.83074 0.0
C183 C 0.26793 0.73439 0.7548 0.0
C184 C 0.431 0.74769 0.82442 0.0
C185 C 0.49696 0.76197 0.86446 0.0
C186 C 0.46334 0.75417 0.8789 0.0
C187 C 0.43071 0.74735 0.85906 0.0
C188 C 0.46415 0.75713 0.80967 0.0
C189 C 0.49688 0.76442 0.82949 0.0
C190 C 0.39684 0.74106 0.8032 0.0
C191 C 0.27412 0.7282 0.84729 0.0
H192 H 0.13217 0.88603 0.79199 0.0
H193 H 0.14646 0.8314 0.79795 0.0
H194 H 0.25961 0.87328 0.82223 0.0
H195 H 0.24549 0.92876 0.81772 0.0
H196 H 0.46206 0.75142 0.90569 0.0
H197 H 0.40533 0.74115 0.87094 0.0
H198 H 0.46473 0.75856 0.78281 0.0
H199 H 0.52217 0.7708 0.81751 0.0
Tb200 Tb 0.3484 0.30638 0.76958 0.0
Tb201 Tb 0.28296 0.29032 0.81975 0.0
C202 C 0.34592 0.35294 0.8239 0.0
C203 C 0.42833 0.30312 0.7248 0.0
C204 C 0.48019 0.26886 0.70851 0.0
C205 C 0.47557 0.29853 0.69011 0.0
C206 C 0.44977 0.31558 0.69827 0.0
C207 C 0.43335 0.27397 0.74371 0.0
C208 C 0.45918 0.25698 0.73567 0.0
C209 C 0.40015 0.32012 0.73217 0.0
O210 O 0.36971 0.28096 0.81518 0.0
O211 O 0.31586 0.25293 0.83502 0.0
O212 O 0.26542 0.26064 0.77758 0.0
O213 O 0.32038 0.2564 0.76065 0.0
O214 O 0.26517 0.2836 0.86806 0.0
O215 O 0.22673 0.27758 0.82485 0.0
O216 O 0.27318 0.33365 0.78757 0.0
O217 O 0.30225 0.32493 0.74306 0.0
O218 O 0.3501 0.35153 0.79244 0.0
O219 O 0.32529 0.3287 0.84079 0.0
C220 C 0.35157 0.25764 0.83524 0.0
O221 O 0.36692 0.30643 0.7223 0.0
O222 O 0.4026 0.32879 0.76253 0.0
C223 C 0.28492 0.24667 0.76028 0.0
C224 C 0.21038 0.30264 0.86865 0.0
C225 C 0.16917 0.34678 0.88656 0.0
C226 C 0.15256 0.31384 0.8811 0.0
C227 C 0.17304 0.29197 0.87226 0.0
C228 C 0.22707 0.33546 0.87394 0.0
C229 C 0.20674 0.35723 0.88305 0.0
C230 C 0.23103 0.28026 0.85684 0.0
C231 C 0.27872 0.33876 0.7557 0.0
H232 H 0.49156 0.30827 0.66918 0.0
H233 H 0.44614 0.33816 0.68356 0.0
H234 H 0.41681 0.26405 0.76426 0.0
H235 H 0.46171 0.2339 0.74992 0.0
H236 H 0.12364 0.30508 0.8832 0.0
H237 H 0.15963 0.26684 0.86772 0.0
H238 H 0.25581 0.34436 0.87082 0.0
H239 H 0.22063 0.38218 0.88768 0.0
Tb240 Tb 0.85696 0.26178 0.80714 0.0
Tb241 Tb 0.79252 0.29926 0.77592 0.0
C242 C 0.782 0.24766 0.8412 0.0
C243 C 0.91509 0.20607 0.79924 0.0
C244 C 0.91573 0.16434 0.74844 0.0
C245 C 0.91107 0.1509 0.7814 0.0
C246 C 0.91055 0.17166 0.80662 0.0
C247 C 0.9224 0.21947 0.7667 0.0
C248 C 0.92267 0.19884 0.74164 0.0
C249 C 0.90387 0.22668 0.82249 0.0
O250 O 0.82001 0.22913 0.77505 0.0
O251 O 0.79947 0.26744 0.73838 0.0
O252 O 0.83975 0.32684 0.74963 0.0
O253 O 0.87712 0.28906 0.76021 0.0
O254 O 0.74021 0.29366 0.75126 0.0
O255 O 0.76965 0.34162 0.76478 0.0
O256 O 0.81464 0.324 0.82092 0.0
O257 O 0.86954 0.30717 0.83186 0.0
O258 O 0.8178 0.25111 0.84604 0.0
O259 O 0.76722 0.2601 0.813 0.0
C260 C 0.80634 0.23778 0.74541 0.0
O261 O 0.91229 0.25868 0.81576 0.0
O262 O 0.87009 0.21728 0.82947 0.0
C263 C 0.86928 0.31639 0.74386 0.0
C264 C 0.7068 0.32899 0.77115 0.0
C265 C 0.65557 0.34149 0.81204 0.0
C266 C 0.67396 0.36702 0.79058 0.0
C267 C 0.69926 0.36078 0.77028 0.0
C268 C 0.6867 0.30297 0.79082 0.0
C269 C 0.6612 0.30914 0.81095 0.0
C270 C 0.7382 0.32419 0.75456 0.0
C271 C 0.84738 0.32664 0.83657 0.0
H272 H 0.90584 0.12435 0.78726 0.0
H273 H 0.90432 0.16071 0.83136 0.0
H274 H 0.92573 0.24581 0.75998 0.0
H275 H 0.92714 0.20987 0.71657 0.0
H276 H 0.67072 0.39233 0.79104 0.0
H277 H 0.71445 0.38118 0.7553 0.0
H278 H 0.6918 0.2781 0.79189 0.0
H279 H 0.64712 0.28885 0.82679 0.0
Tb280 Tb 0.85122 0.83868 0.83957 0.0
Tb281 Tb 0.85187 0.78655 0.78366 0.0
C282 C 0.90197 0.8553 0.78035 0.0
C283 C 0.81588 0.89542 0.88776 0.0
C284 C 0.75904 0.92473 0.90362 0.0
C285 C 0.76733 0.9257 0.87035 0.0
C286 C 0.79533 0.91097 0.86244 0.0
C287 C 0.80762 0.89449 0.92094 0.0
C288 C 0.77941 0.90887 0.9288 0.0
C289 C 0.84554 0.87961 0.88019 0.0
O290 O 0.80029 0.83537 0.80862 0.0
O291 O 0.8196 0.82187 0.76068 0.0
O292 O 0.80276 0.76975 0.80921 0.0
O293 O 0.82539 0.78936 0.85917 0.0
O294 O 0.86395 0.77525 0.73688 0.0
O295 O 0.83509 0.73779 0.77103 0.0
O296 O 0.88648 0.77238 0.82665 0.0
O297 O 0.90116 0.82046 0.85391 0.0
O298 O 0.87893 0.86573 0.79704 0.0
O299 O 0.90129 0.82365 0.77977 0.0
C300 C 0.7964 0.83338 0.77619 0.0
O301 O 0.84101 0.84785 0.88768 0.0
O302 O 0.85863 0.88802 0.85126 0.0
C303 C 0.80251 0.76796 0.8416 0.0
C304 C 0.87341 0.71989 0.7372 0.0
C305 C 0.9117 0.67237 0.7217 0.0
C306 C 0.88211 0.66304 0.74151 0.0
C307 C 0.86307 0.6865 0.74903 0.0
C308 C 0.90366 0.72946 0.71817 0.0
C309 C 0.92267 0.70591 0.71055 0.0
C310 C 0.85102 0.74371 0.74329 0.0
C311 C 0.9066 0.79103 0.84882 0.0
H312 H 0.75192 0.93757 0.85044 0.0
H313 H 0.80082 0.91174 0.83654 0.0
H314 H 0.82306 0.88262 0.94083 0.0
H315 H 0.77395 0.9081 0.9547 0.0
H316 H 0.87321 0.63745 0.7507 0.0
H317 H 0.83971 0.6783 0.76358 0.0
H318 H 0.91211 0.75494 0.70844 0.0
H319 H 0.94503 0.7138 0.69477 0.0
Fe320 Fe 0.0594 0.12239 0.53138 0.0
O321 O 0.06236 0.07618 0.54603 0.0
Fe322 Fe 0.11075 0.06145 0.53984 0.0
Fe323 Fe 1.02756 0.0364 0.52985 0.0
O324 O 0.06569 0.07746 0.54564 0.0
O325 O 0.07623 0.02234 0.52209 0.0
O326 O 0.07255 0.02114 0.52177 0.0
Fe327 Fe 0.08023 0.97647 0.53724 0.0
C328 C 0.98652 0.0847 0.55671 0.0
O329 O 1.02463 0.1104 0.48992 0.0
O330 O 1.0253 0.0579 0.48199 0.0
O331 O 0.12564 0.98984 0.51052 0.0
O332 O 0.15401 0.0397 0.53098 0.0
O333 O 0.11425 0.084 0.49254 0.0
O334 O 0.10235 0.13277 0.50121 0.0
O335 O 0.99718 0.99258 0.50986 0.0
O336 O 1.04112 0.96447 0.49866 0.0
C337 C 0.11617 0.11468 0.48445 0.0
O338 O 0.11451 0.98904 0.57932 0.0
O339 O 0.10897 0.04014 0.58719 0.0
O340 O 1.01401 0.10955 0.55808 0.0
O341 O 0.98504 0.05778 0.54196 0.0
C342 C 1.01912 0.08631 0.47153 0.0
C343 C 1.00814 0.97013 0.49501 0.0
C344 C 1.02639 0.98348 0.58586 0.0
O345 O 1.0277 1.01414 0.5779 0.0
O346 O 1.03729 0.9654 0.56699 0.0
C347 C 0.1532 1.01423 0.51439 0.0
O348 O 0.14115 0.10404 0.56071 0.0
O349 O 0.09824 0.13353 0.57069 0.0
C350 C 0.11588 1.01227 0.59811 0.0
C351 C 0.1304 0.12618 0.5759 0.0
Fe352 Fe 0.54797 0.0201 0.06891 0.0
O353 O 0.57992 0.0585 0.08926 0.0
Fe354 Fe 0.46482 0.05073 0.05451 0.0
Fe355 Fe 0.63331 0.07022 0.088 0.0
O356 O 0.51865 0.05685 0.05315 0.0
O357 O 0.52034 0.06302 0.05637 0.0
O358 O 0.57718 0.0728 0.08822 0.0
Fe359 Fe 0.54911 0.11088 0.06234 0.0
C360 C 0.61573 0.99403 0.11223 0.0
O361 O 0.57402 0.02886 0.02579 0.0
O362 O 0.63132 0.04529 0.04626 0.0
O363 O 0.51125 0.12768 0.0255 0.0
O364 O 0.46404 0.08513 1.01396 0.0
O365 O 0.46358 1.0116 1.02424 0.0
O366 O 0.50857 0.9833 0.04288 0.0
O367 O 0.63811 0.11411 0.0559 0.0
O368 O 0.58532 0.1123 1.02439 0.0
C369 C 0.47895 0.98638 1.02389 0.0
O370 O 0.51576 0.11801 0.10072 0.0
O371 O 0.46089 0.08887 0.08597 0.0
O372 O 0.5857 0.98739 0.09189 0.0
O373 O 0.63111 0.02446 0.1172 0.0
C374 C 0.60807 0.03413 1.02313 0.0
C375 C 0.62057 0.12003 0.02774 0.0
C376 C 0.61471 0.11608 0.12612 0.0
O377 O 0.63805 0.09747 0.12885 0.0
O378 O 0.59084 0.11248 0.10122 0.0
C379 C 0.48167 0.11499 1.00821 0.0
O380 O 0.46476 1.01746 0.09602 0.0
O381 O 0.52151 1.00939 0.11115 0.0
C382 C 0.4809 0.11177 0.10288 0.0
C383 C 0.48812 1.00584 0.11629 0.0
Fe384 Fe 1.05158 0.58628 0.05063 0.0
O385 O 1.00813 0.55788 0.02773 0.0
Fe386 Fe 0.10923 0.53124 0.07619 0.0
Fe387 Fe 0.95793 0.56628 0.02779 0.0
O388 O 0.06189 0.54367 0.07221 0.0
O389 O 0.06019 0.54093 0.07281 0.0
O390 O 1.006 0.55477 0.02871 0.0
Fe391 Fe 1.01636 0.51245 0.05133 0.0
C392 C 0.9959 0.60217 0.0884 0.0
O393 O 1.03396 0.62774 1.02382 0.0
O394 O 0.97974 0.60469 0.99499 0.0
O395 O 1.04478 0.50689 1.01213 0.0
O396 O 0.09685 0.49829 0.03995 0.0
O397 O 0.13058 0.5676 0.04013 0.0
O398 O 0.08316 0.58545 1.0121 0.0
O399 O 0.94396 0.52868 0.99525 0.0
O400 O 0.96954 0.48779 0.02532 0.0
C401 C 0.11659 0.58304 1.01484 0.0
O402 O 1.03199 0.4716 0.07787 0.0
O403 O 0.085 0.49287 0.10897 0.0
O404 O 1.02214 0.58746 0.08947 0.0
O405 O 0.9718 0.60063 0.06377 0.0
C406 C 1.00793 0.62836 0.99987 0.0
C407 C 0.94818 0.49812 1.00108 0.0
C408 C 0.95368 0.51632 0.08975 0.0
O409 O 0.93815 0.52996 0.06433 0.0
O410 O 0.98733 0.51536 0.09123 0.0
C411 C 0.07458 0.49664 1.01401 0.0
O412 O 0.12163 0.56796 0.10862 0.0
O413 O 0.09798 0.61066 0.07955 0.0
C414 C 0.05583 0.47042 0.10316 0.0
C415 C 0.11922 0.59892 0.10333 0.0
Fe416 Fe 0.59334 0.53616 0.99231 0.0
O417 O 0.63397 0.54093 0.02829 0.0
Fe418 Fe 0.51834 0.5424 0.03327 0.0
Fe419 Fe 0.67745 0.52184 0.02859 0.0
O420 O 0.56129 0.52308 0.02989 0.0
O421 O 0.56167 0.52315 0.03303 0.0
O422 O 0.63445 0.54172 0.03148 0.0
Fe423 Fe 0.60217 0.52851 0.06892 0.0
C424 C 0.62188 0.47513 0.98469 0.0
O425 O 0.63235 0.55215 0.95744 0.0
O426 O 0.68748 0.55683 0.98895 0.0
O427 O 0.60002 0.57689 0.07271 0.0
O428 O 0.53998 0.57296 0.07023 0.0
O429 O 0.53341 0.58193 0.99878 0.0
O430 O 0.59246 0.58479 0.99485 0.0
O431 O 0.69674 0.55233 0.06658 0.0
O432 O 0.64973 0.53791 0.10142 0.0
C433 C 0.56519 0.59843 0.99364 0.0
O434 O 0.56218 0.51198 0.1036 0.0
O435 O 0.50751 0.50551 0.07081 0.0
O436 O 0.59461 0.48755 0.98858 0.0
O437 O 0.65443 0.48869 0.99399 0.0
C438 C 0.66722 0.56371 0.96235 0.0
C439 C 0.6826 0.55291 0.09462 0.0
C440 C 0.63506 0.47189 0.0788 0.0
O441 O 0.66508 0.48562 0.0669 0.0
O442 O 0.60611 0.48052 0.06591 0.0
C443 C 0.57231 0.58797 0.07779 0.0
O444 O 0.49922 0.51447 0.99407 0.0
O445 O 0.54591 0.52844 0.95912 0.0
C446 C 0.5274 0.49977 0.09802 0.0
C447 C 0.51287 0.5142 0.96594 0.0
Fe448 Fe 0.10295 0.44978 0.52033 0.0
O449 O 0.10498 0.49826 0.51962 0.0
Fe450 Fe 0.07952 0.52175 0.47429 0.0
Fe451 Fe 0.08393 0.51644 0.55634 0.0
O452 O 0.10343 0.49794 0.51429 0.0
O453 O 0.05892 0.53957 0.51188 0.0
O454 O 0.06026 0.54008 0.51685 0.0
Fe455 Fe 0.05838 0.58697 0.51608 0.0
C456 C 1.04 0.44812 0.56648 0.0
O457 O 0.14199 0.46042 0.5594 0.0
O458 O 0.11297 0.48803 0.59199 0.0
O459 O 0.09864 0.60296 0.4841 0.0
O460 O 0.12364 0.55968 0.47659 0.0
O461 O 0.10871 0.49472 0.44197 0.0
O462 O 0.13658 0.46065 0.4804 0.0
O463 O 0.12896 0.55645 0.56364 0.0
O464 O 0.09728 0.59636 0.55627 0.0
C465 C 0.13106 0.47304 0.44982 0.0
O466 O 1.02133 0.58095 0.47425 0.0
O467 O 1.04795 0.5543 0.43876 0.0
O468 O 0.06581 0.43577 0.55791 0.0
O469 O 1.03836 0.47795 0.55646 0.0
C470 C 0.13761 0.47103 0.58763 0.0
C471 C 0.12454 0.58507 0.57029 0.0
C472 C 1.02985 0.55404 0.58112 0.0
O473 O 0.05609 0.53767 0.58814 0.0
O474 O 1.02261 0.56924 0.55226 0.0
C475 C 0.12544 0.59053 0.4782 0.0
O476 O 1.03507 0.48369 0.47155 0.0
O477 O 0.06081 0.43946 0.48464 0.0
C478 C 1.02526 0.57401 0.44442 0.0
C479 C 1.03468 0.45285 0.47169 0.0
Fe480 Fe 0.57972 0.97325 0.58567 0.0
O481 O 0.59698 1.01279 0.61186 0.0
Fe482 Fe 0.57865 1.01264 0.50332 0.0
Fe483 Fe 0.59603 1.01695 0.65899 0.0
O484 O 0.57732 1.01087 0.55118 0.0
O485 O 0.59161 1.01598 0.55044 0.0
O486 O 0.58606 1.01744 0.61128 0.0
Fe487 Fe 0.59822 0.05511 0.57683 0.0
C488 C 0.52128 0.97415 0.636 0.0
O489 O 0.59165 0.93965 0.62407 0.0
O490 O 0.61567 0.97365 0.66481 0.0
O491 O 0.61607 0.08991 0.5385 0.0
O492 O 0.615 0.05703 0.49698 0.0
O493 O 0.62055 0.98685 0.50925 0.0
O494 O 0.62914 0.97265 0.56567 0.0
O495 O 0.64756 0.04508 0.65314 0.0
O496 O 0.6523 0.05676 0.59676 0.0
C497 C 0.63835 0.97524 0.53527 0.0
O498 O 0.54467 0.05642 0.55757 0.0
O499 O 0.53763 0.03888 0.50469 0.0
O500 O 0.52953 0.97071 0.60624 0.0
O501 O 0.54382 0.98872 0.65877 0.0
C502 C 0.60974 0.9456 0.65219 0.0
C503 C 0.66573 0.05716 0.62761 0.0
C504 C 0.5838 0.08811 0.63583 0.0
O505 O 0.5766 0.06069 0.65404 0.0
O506 O 0.59731 0.09099 0.60762 0.0
C507 C 0.62398 0.08506 0.50949 0.0
O508 O 0.54238 0.96813 0.50739 0.0
O509 O 0.55572 0.9367 0.55442 0.0
C510 C 0.52699 0.0523 0.52862 0.0
C511 C 0.54016 0.94038 0.52494 0.0
H512 H 0.19657 0.23064 0.30677 0.0
H513 H 0.29272 0.20562 0.36221 0.0
H514 H 0.15854 0.19569 0.34682 0.0
H515 H 0.25424 0.17047 0.40259 0.0
H516 H 0.16692 0.09106 0.45467 0.0
H517 H 0.20414 0.11912 0.40992 0.0
H518 H 0.15062 0.20221 0.40594 0.0
H519 H 0.11347 0.17432 0.4503 0.0
C520 C 0.20963 0.21744 0.32735 0.0
C521 C 0.24776 0.22125 0.3315 0.0
C522 C 0.18777 0.19748 0.35036 0.0
C523 C 0.20342 0.18071 0.37806 0.0
C524 C 0.24141 0.18305 0.38139 0.0
C525 C 0.26343 0.20322 0.35833 0.0
C526 C 0.16287 0.11517 0.44398 0.0
C527 C 0.13725 0.13049 0.45605 0.0
C528 C 0.18437 0.1313 0.41856 0.0
C529 C 0.18026 0.16281 0.40441 0.0
C530 C 0.15415 0.17777 0.41608 0.0
C531 C 0.13301 0.16187 0.44166 0.0
H532 H 0.84566 0.10461 0.33129 0.0
H533 H 0.93444 0.16866 0.28265 0.0
H534 H 0.88933 0.08026 0.36917 0.0
H535 H 0.97796 0.14369 0.31988 0.0
H536 H 0.97639 0.03971 0.4335 0.0
H537 H 0.9415 0.0499 0.38041 0.0
H538 H 0.98947 0.15413 0.37997 0.0
H539 H 1.02405 0.14403 0.43263 0.0
C540 C 0.87444 0.11272 0.32802 0.0
C541 C 0.88664 0.13897 0.30447 0.0
C542 C 0.89945 0.09856 0.34949 0.0
C543 C 0.93703 0.11051 0.34777 0.0
C544 C 0.94911 0.13434 0.32197 0.0
C545 C 0.92414 0.14844 0.30048 0.0
C546 C 0.98 0.06465 0.42161 0.0
C547 C 1.00244 0.09121 0.43735 0.0
C548 C 0.96002 0.07045 0.39132 0.0
C549 C 0.96275 0.10277 0.37611 0.0
C550 C 0.9871 0.12888 0.39086 0.0
C551 C 1.0066 0.12318 0.42123 0.0
H552 H 0.82666 0.85625 0.37167 0.0
H553 H 0.9276 0.85105 0.33205 0.0
H554 H 0.86103 0.89139 0.41426 0.0
H555 H 0.96142 0.88613 0.3738 0.0
H556 H 1.01444 0.91135 0.47409 0.0
H557 H 0.97505 0.87836 0.43376 0.0
H558 H 0.9022 0.94727 0.42317 0.0
H559 H 0.9419 0.98065 0.46446 0.0
C560 C 0.85606 0.86279 0.37186 0.0
C561 C 0.8744 0.85052 0.34867 0.0
C562 C 0.87571 0.88301 0.39615 0.0
C563 C 0.91401 0.89119 0.39773 0.0
C564 C 0.93202 0.87972 0.37381 0.0
C565 C 0.91255 0.85966 0.34971 0.0
C566 C 0.99005 0.91966 0.46335 0.0
C567 C 0.98171 0.94902 0.4723 0.0
C568 C 0.96745 0.90069 0.44004 0.0
C569 C 0.9358 0.91046 0.42471 0.0
C570 C 0.92642 0.93908 0.43453 0.0
C571 C 0.94918 0.9582 0.45813 0.0
H572 H 0.281 0.98933 0.35736 0.0
H573 H 0.2786 0.909 0.43444 0.0
H574 H 0.26181 0.0227 0.39616 0.0
H575 H 0.25951 0.9421 0.47294 0.0
H576 H 0.15505 0.02417 0.44823 0.0
H577 H 0.2004 1.0122 0.41498 0.0
H578 H 0.26628 0.99077 0.50514 0.0
H579 H 0.22014 1.00288 0.53847 0.0
C580 C 0.27712 0.97908 0.38276 0.0
C581 C 0.28053 0.94632 0.39266 0.0
C582 C 0.26634 0.99822 0.40498 0.0
C583 C 0.25865 0.98485 0.43743 0.0
C584 C 0.26553 0.95328 0.44823 0.0
C585 C 0.27635 0.93419 0.42605 0.0
C586 C 0.17982 1.0179 0.46078 0.0
C587 C 0.18434 1.01414 0.49562 0.0
C588 C 0.20597 1.01132 0.44182 0.0
C589 C 0.23688 1.00036 0.45746 0.0
C590 C 0.24261 0.99898 0.49248 0.0
C591 C 0.21643 1.00595 0.51151 0.0
H592 H 0.12609 0.93828 0.8039 0.0
H593 H 0.23376 0.96003 0.76811 0.0
H594 H 0.10559 0.97409 0.75748 0.0
H595 H 0.21366 0.99712 0.72359 0.0
H596 H 0.09442 0.95652 0.6379 0.0
H597 H 0.11038 0.94706 0.69763 0.0
H598 H 0.17472 0.04623 0.69878 0.0
H599 H 0.15753 0.05622 0.63896 0.0
C600 C 0.14585 0.95183 0.78724 0.0
C601 C 0.18101 0.94479 0.7887 0.0
C602 C 0.13411 0.97253 0.76089 0.0
C603 C 0.15791 0.98744 0.7367 0.0
C604 C 0.1948 0.98563 0.74194 0.0
C605 C 0.20632 0.9643 0.76773 0.0
C606 C 0.11168 0.97634 0.65101 0.0
C607 C 0.12531 1.00682 0.63399 0.0
C608 C 0.12028 0.97119 0.68517 0.0
C609 C 0.14328 0.99618 0.70266 0.0
C610 C 0.15648 0.02689 0.68578 0.0
C611 C 0.14698 0.03239 0.6517 0.0
H612 H 0.31132 0.22514 0.7072 0.0
H613 H 0.21392 0.21492 0.75882 0.0
H614 H 0.27561 0.19423 0.66242 0.0
H615 H 0.17864 0.18391 0.71451 0.0
H616 H 0.12066 0.17624 0.61112 0.0
H617 H 0.15988 0.20147 0.65676 0.0
H618 H 0.23712 0.13994 0.64678 0.0
H619 H 0.19788 0.11458 0.60056 0.0
C620 C 0.28252 0.21569 0.70939 0.0
C621 C 0.26539 0.22288 0.73638 0.0
C622 C 0.26207 0.19801 0.68372 0.0
C623 C 0.22418 0.18725 0.68462 0.0
C624 C 0.20762 0.19261 0.71268 0.0
C625 C 0.22794 0.21021 0.73821 0.0
C626 C 0.14602 0.16805 0.61841 0.0
C627 C 0.15592 0.14322 0.60208 0.0
C628 C 0.16842 0.1824 0.64482 0.0
C629 C 0.20136 0.17236 0.65571 0.0
C630 C 0.21191 0.14822 0.63891 0.0
C631 C 0.18938 0.13372 0.61242 0.0
H632 H 0.94818 0.1117 0.7444 0.0
H633 H 0.87497 0.16901 0.68958 0.0
H634 H 0.95024 0.0835 0.69457 0.0
H635 H 0.87543 0.13987 0.64032 0.0
H636 H 0.95461 0.03759 0.6024 0.0
H637 H 0.9238 0.04861 0.64948 0.0
H638 H 0.92406 0.14799 0.60501 0.0
H639 H 0.95433 0.13675 0.55855 0.0
C640 C 0.93162 0.11745 0.72199 0.0
C641 C 0.91201 0.14294 0.72058 0.0
C642 C 0.93248 0.10112 0.69348 0.0
C643 C 0.91337 0.10978 0.66325 0.0
C644 C 0.89105 0.1331 0.66296 0.0
C645 C 0.89073 0.14976 0.69118 0.0
C646 C 0.94641 0.06118 0.60211 0.0
C647 C 0.95693 0.08646 0.57712 0.0
C648 C 0.92923 0.06765 0.62922 0.0
C649 C 0.92201 0.09935 0.63134 0.0
C650 C 0.92889 0.12322 0.60425 0.0
C651 C 0.94631 0.11686 0.57751 0.0
H652 H 0.893 0.91657 0.75308 0.0
H653 H 0.96445 0.84695 0.75689 0.0
H654 H 0.92623 0.95047 0.7087 0.0
H655 H 0.99858 0.88135 0.71372 0.0
H656 H 1.01122 0.91772 0.60537 0.0
H657 H 0.98533 0.89063 0.65566 0.0
H658 H 0.98112 0.9856 0.68894 0.0
H659 H 1.00655 1.01304 0.63751 0.0
C660 C 0.9164 0.90898 0.74505 0.0
C661 C 0.92579 0.87885 0.75808 0.0
C662 C 0.93554 0.92846 0.71966 0.0
C663 C 0.96467 0.91833 0.70709 0.0
C664 C 0.97562 0.88943 0.72204 0.0
C665 C 0.95622 0.86979 0.74697 0.0
C666 C 1.00495 0.93302 0.62334 0.0
C667 C 1.01085 0.96762 0.61721 0.0
C668 C 0.99036 0.91741 0.6525 0.0
C669 C 0.98146 0.93587 0.67669 0.0
C670 C 0.98746 0.97058 0.67076 0.0
C671 C 1.00204 0.98631 0.64131 0.0
H672 H 0.32191 0.21777 0.18655 0.0
H673 H 0.41942 0.24426 0.25078 0.0
H674 H 0.35261 0.18518 0.15574 0.0
H675 H 0.45047 0.21148 0.22003 0.0
H676 H 0.5111 0.16282 0.14655 0.0
H677 H 0.48118 0.19557 0.17844 0.0
H678 H 0.37647 0.14193 0.14197 0.0
H679 H 0.40642 0.10959 0.11025 0.0
C680 C 0.35 0.21683 0.19456 0.0
C681 C 0.36711 0.23466 0.22221 0.0
C682 C 0.36815 0.19745 0.17648 0.0
C683 C 0.40524 0.19429 0.18421 0.0
C684 C 0.42243 0.21234 0.21187 0.0
C685 C 0.40412 0.23156 0.23015 0.0
C686 C 0.48163 0.1576 0.14521 0.0
C687 C 0.46217 0.13236 0.12489 0.0
C688 C 0.46392 0.17684 0.16404 0.0
C689 C 0.42518 0.17278 0.16394 0.0
C690 C 0.40591 0.14744 0.14359 0.0
C691 C 0.42358 0.1281 0.12502 0.0
H692 H 0.85008 0.35121 0.21094 0.0
H693 H 0.79355 0.4246 0.23734 0.0
H694 H 0.88652 0.39241 0.17535 0.0
H695 H 0.8308 0.46658 0.20055 0.0
H696 H 0.97434 0.47606 0.1431 0.0
H697 H 0.93595 0.44155 0.18338 0.0
H698 H 0.84305 0.48018 0.13813 0.0
H699 H 0.88156 0.51508 0.09768 0.0
C700 C 0.84521 0.3762 0.20924 0.0
C701 C 0.81875 0.3844 0.2275 0.0
C702 C 0.86653 0.4 0.18879 0.0
C703 C 0.86219 0.43298 0.18549 0.0
C704 C 0.83495 0.44134 0.2027 0.0
C705 C 0.81357 0.41731 0.22372 0.0
C706 C 0.94588 0.47767 0.14189 0.0
C707 C 0.93111 0.49822 0.11677 0.0
C708 C 0.92377 0.45772 0.16497 0.0
C709 C 0.88626 0.45779 0.16379 0.0
C710 C 0.8718 0.47959 0.13984 0.0
C711 C 0.89391 0.49945 0.11652 0.0
H712 H 0.79392 0.88637 0.20513 0.0
H713 H 0.69782 0.82236 0.24044 0.0
H714 H 0.75644 0.92269 0.17412 0.0
H715 H 0.65988 0.8587 0.20896 0.0
H716 H 0.59421 0.92285 0.12762 0.0
H717 H 0.62969 0.88375 0.15854 0.0
H718 H 0.72173 0.96382 0.17126 0.0
H719 H 0.68686 1.00213 0.14121 0.0
C720 C 0.76473 0.87967 0.20658 0.0
C721 C 0.75009 0.85042 0.22633 0.0
C722 C 0.7426 0.90112 0.18845 0.0
C723 C 0.70381 0.89497 0.18807 0.0
C724 C 0.68906 0.8654 0.20752 0.0
C725 C 0.71134 0.84414 0.22614 0.0
C726 C 0.62202 0.93239 0.13681 0.0
C727 C 0.63654 0.9669 0.13091 0.0
C728 C 0.64285 0.90953 0.15511 0.0
C729 C 0.67993 0.91935 0.16828 0.0
C730 C 0.69412 0.95375 0.16197 0.0
C731 C 0.67335 0.97641 0.14438 0.0
H732 H 0.22312 0.74304 0.24613 0.0
H733 H 0.30914 0.69728 0.22125 0.0
H734 H 0.18052 0.71109 0.20623 0.0
H735 H 0.2667 0.66585 0.18105 0.0
H736 H 0.1736 0.58434 0.14839 0.0
H737 H 0.2151 0.6202 0.18462 0.0
H738 H 0.16443 0.7021 0.14604 0.0
H739 H 0.12169 0.66558 0.10937 0.0
C740 C 0.23308 0.72634 0.23204 0.0
C741 C 0.26962 0.72255 0.23724 0.0
C742 C 0.20863 0.70822 0.20893 0.0
C743 C 0.22004 0.68573 0.19053 0.0
C744 C 0.25678 0.68255 0.19517 0.0
C745 C 0.28121 0.70068 0.2182 0.0
C746 C 0.17093 0.60994 0.14737 0.0
C747 C 0.14406 0.62192 0.12563 0.0
C748 C 0.19519 0.63067 0.16812 0.0
C749 C 0.19355 0.66418 0.16802 0.0
C750 C 0.16643 0.67635 0.14674 0.0
C751 C 0.14204 0.65547 0.12562 0.0
H752 H 0.31433 0.8599 0.89031 0.0
H753 H 0.41435 0.83092 0.87468 0.0
H754 H 0.34697 0.89726 0.93116 0.0
H755 H 0.44746 0.86895 0.91509 0.0
H756 H 0.49818 0.92704 1.00824 0.0
H757 H 0.46613 0.88685 0.96895 0.0
H758 H 0.38434 0.94616 0.94373 0.0
H759 H 0.41544 0.98518 0.98285 0.0
C760 C 0.34339 0.86141 0.89535 0.0
C761 C 0.36107 0.84177 0.8784 0.0
C762 C 0.3626 0.88343 0.919 0.0
C763 C 0.40078 0.88728 0.92723 0.0
C764 C 0.41837 0.86726 0.91045 0.0
C765 C 0.39911 0.84524 0.88672 0.0
C766 C 0.47326 0.93151 0.99449 0.0
C767 C 0.45999 0.96006 0.99968 0.0
C768 C 0.45465 0.90826 0.97143 0.0
C769 C 0.42166 0.91219 0.95238 0.0
C770 C 0.40877 0.94085 0.9577 0.0
C771 C 0.42723 0.96389 0.98048 0.0
H772 H 0.17535 0.4129 0.86728 0.0
H773 H 0.11481 0.3334 0.92927 0.0
H774 H 0.147 0.45245 0.89066 0.0
H775 H 0.08566 0.37291 0.95159 0.0
H776 H 1.02791 0.45278 0.97586 0.0
H777 H 1.04499 0.41759 0.93708 0.0
H778 H 0.15734 0.46765 0.95182 0.0
H779 H 0.14046 0.50209 0.99076 0.0
C780 C 0.15573 0.40378 0.88558 0.0
C781 C 0.14792 0.37003 0.89689 0.0
C782 C 0.13928 0.4264 0.89867 0.0
C783 C 0.11429 0.41568 0.92293 0.0
C784 C 0.10454 0.38174 0.93259 0.0
C785 C 0.12131 0.35912 0.91981 0.0
C786 C 0.05605 0.45666 0.97008 0.0
C787 C 0.08301 0.47981 0.98634 0.0
C788 C 0.06581 0.43652 0.94812 0.0
C789 C 0.10245 0.43996 0.94158 0.0
C790 C 0.12887 0.4647 0.95619 0.0
C791 C 0.11929 0.48424 0.97859 0.0
H792 H 0.80052 0.2104 0.89889 0.0
H793 H 0.70725 0.24148 0.84507 0.0
H794 H 0.76205 0.17975 0.94112 0.0
H795 H 0.66859 0.21187 0.88804 0.0
H796 H 0.59861 0.13598 0.96044 0.0
H797 H 0.63588 0.16531 0.91604 0.0
H798 H 0.73073 0.17731 0.98644 0.0
H799 H 0.69405 0.14727 0.02976 0.0
C800 C 0.77178 0.21106 0.89606 0.0
C801 C 0.7576 0.22889 0.86799 0.0
C802 C 0.7493 0.19341 0.92079 0.0
C803 C 0.71133 0.19286 0.91911 0.0
C804 C 0.69719 0.21075 0.89087 0.0
C805 C 0.7197 0.2282 0.86595 0.0
C806 C 0.62745 0.14479 0.96647 0.0
C807 C 0.64273 0.13873 0.99932 0.0
C808 C 0.64916 0.16202 0.94076 0.0
C809 C 0.68724 0.17419 0.94665 0.0
C810 C 0.70215 0.16819 0.97968 0.0
C811 C 0.68063 0.15088 1.00511 0.0
H812 H 0.92276 0.79339 0.91599 0.0
H813 H 0.95316 0.75626 0.82922 0.0
H814 H 0.95924 0.75948 0.95196 0.0
H815 H 0.99159 0.72413 0.86468 0.0
H816 H 0.98903 0.6292 0.93402 0.0
H817 H 0.97487 0.67495 0.89703 0.0
H818 H 1.01358 0.74122 0.97486 0.0
H819 H 1.02675 0.69415 1.0127 0.0
C820 C 0.93836 0.77886 0.90463 0.0
C821 C 0.93474 0.7769 0.86997 0.0
C822 C 0.95948 0.75953 0.92521 0.0
C823 C 0.97784 0.73837 0.91135 0.0
C824 C 0.97694 0.73921 0.87637 0.0
C825 C 0.95512 0.75778 0.85597 0.0
C826 C 0.99533 0.65367 0.94306 0.0
C827 C 1.00864 0.65808 0.9763 0.0
C828 C 0.98748 0.68016 0.92168 0.0
C829 C 0.99283 0.71203 0.93283 0.0
C830 C 1.00865 0.71695 0.96554 0.0
C831 C 1.01663 0.69015 0.98711 0.0
H832 H 1.04517 0.27431 0.1839 0.0
H833 H 0.11695 0.34063 0.2485 0.0
H834 H 1.01043 0.31736 0.16607 0.0
H835 H 0.08468 0.38377 0.22946 0.0
H836 H 0.0573 0.4683 0.17063 0.0
H837 H 1.04817 0.41901 0.20971 0.0
H838 H 1.03089 0.35782 0.12632 0.0
H839 H 1.03682 0.40692 0.08809 0.0
C840 C 1.05262 0.29763 0.19524 0.0
C841 C 0.08466 0.30467 0.21635 0.0
C842 C 1.03309 0.32253 0.18473 0.0
C843 C 1.04636 0.35493 0.19426 0.0
C844 C 0.07389 0.35963 0.22056 0.0
C845 C 0.09271 0.33456 0.23169 0.0
C846 C 1.05114 0.4441 0.16102 0.0
C847 C 1.04902 0.44105 0.12667 0.0
C848 C 1.04574 0.41583 0.18328 0.0
C849 C 1.03972 0.38407 0.17155 0.0
C850 C 1.03509 0.38146 0.13679 0.0
C851 C 1.03924 0.40967 0.11465 0.0
H852 H 0.20773 0.68923 0.83591 0.0
H853 H 0.29671 0.70818 0.91189 0.0
H854 H 0.17149 0.65158 0.87522 0.0
H855 H 0.25967 0.67078 0.9521 0.0
H856 H 0.18898 0.58282 1.01002 0.0
H857 H 0.22917 0.61469 0.96934 0.0
H858 H 0.13959 0.65685 0.92141 0.0
H859 H 0.09942 0.62461 0.96133 0.0
C860 C 0.21965 0.68524 0.86112 0.0
C861 C 0.25503 0.70201 0.87086 0.0
C862 C 0.19867 0.66375 0.8838 0.0
C863 C 0.21218 0.65858 0.91715 0.0
C864 C 0.24833 0.67409 0.92661 0.0
C865 C 0.26961 0.69553 0.90362 0.0
C866 C 0.17777 0.59869 0.99062 0.0
C867 C 0.14078 0.60094 0.98898 0.0
C868 C 0.20096 0.61718 0.96741 0.0
C869 C 0.18777 0.63836 0.94191 0.0
C870 C 0.15072 0.64038 0.94023 0.0
C871 C 0.12758 0.6219 0.96331 0.0
H872 H 0.42588 0.26151 0.84632 0.0
H873 H 0.32364 0.20604 0.87949 0.0
H874 H 0.45868 0.22783 0.88661 0.0
H875 H 0.35628 0.17283 0.91984 0.0
H876 H 0.42091 0.09661 0.9656 0.0
H877 H 0.39149 0.13056 0.92368 0.0
H878 H 0.47461 0.21596 0.94616 0.0
H879 H 0.50469 0.18162 0.98826 0.0
C880 C 0.4103 0.24215 0.86213 0.0
C881 C 0.37191 0.23658 0.85935 0.0
C882 C 0.42921 0.22292 0.88548 0.0
C883 C 0.41034 0.19735 0.90666 0.0
C884 C 0.37196 0.19183 0.90376 0.0
C885 C 0.35311 0.2111 0.88058 0.0
C886 C 0.43326 0.12258 0.96172 0.0
C887 C 0.46536 0.13615 0.98079 0.0
C888 C 0.41605 0.14223 0.93763 0.0
C889 C 0.4302 0.17629 0.93152 0.0
C890 C 0.46286 0.18984 0.94989 0.0
C891 C 0.48013 0.17009 0.97421 0.0
H892 H 0.91171 0.33751 0.87529 0.0
H893 H 0.81172 0.37394 0.85273 0.0
H894 H 0.93297 0.37915 0.91474 0.0
H895 H 0.83308 0.41563 0.89293 0.0
H896 H 0.90709 0.50771 0.94175 0.0
H897 H 0.88059 0.46654 0.90211 0.0
H898 H 0.91858 0.39073 0.96903 0.0
H899 H 0.94525 0.43139 1.00816 0.0
C900 C 0.89411 0.35429 0.8788 0.0
C901 C 0.85987 0.35216 0.86084 0.0
C902 C 0.90628 0.37812 0.90164 0.0
C903 C 0.88462 0.40058 0.90724 0.0
C904 C 0.85051 0.3988 0.88907 0.0
C905 C 0.8382 0.37478 0.86618 0.0
C906 C 0.90947 0.48221 0.94815 0.0
C907 C 0.92869 0.47309 0.97811 0.0
C908 C 0.89419 0.45859 0.92545 0.0
C909 C 0.8979 0.42542 0.9322 0.0
C910 C 0.91588 0.41618 0.96268 0.0
C911 C 0.93105 0.43961 0.98526 0.0
H912 H 0.74719 0.98658 0.88209 0.0
H913 H 0.7055 0.89943 0.94527 0.0
H914 H 0.70376 1.0154 0.90179 0.0
H915 H 0.66244 0.92823 0.96516 0.0
H916 H 0.57744 0.98122 0.98739 0.0
H917 H 0.60841 0.95514 0.95007 0.0
H918 H 0.70192 0.03527 0.95782 0.0
H919 H 0.6711 0.06117 0.99493 0.0
C920 C 0.72827 0.9734 0.89969 0.0
C921 C 0.72996 0.94089 0.91243 0.0
C922 C 0.70355 0.98993 0.91105 0.0
C923 C 0.67973 0.97411 0.93505 0.0
C924 C 0.68013 0.94099 0.94639 0.0
C925 C 0.70508 0.92462 0.93532 0.0
C926 C 0.60411 0.99375 0.98018 0.0
C927 C 0.62208 0.023 0.9943 0.0
C928 C 0.62195 0.9787 0.95908 0.0
C929 C 0.65777 0.99295 0.95137 0.0
C930 C 0.67431 0.02373 0.96315 0.0
C931 C 0.65673 0.0385 0.98454 0.0
H932 H 0.96147 0.72444 0.23939 0.0
H933 H 1.05055 0.77991 0.18466 0.0
H934 H 0.96381 0.67513 0.2125 0.0
H935 H 1.05303 0.72997 0.15795 0.0
H936 H 1.05408 0.6246 0.13114 0.0
H937 H 0.05947 0.66579 0.17097 0.0
H938 H 0.94708 0.67258 0.14543 0.0
H939 H 0.94152 0.6315 0.10452 0.0
C940 C 0.98279 0.72574 0.2229 0.0
C941 C 1.00584 0.75608 0.21399 0.0
C942 C 0.98367 0.69759 0.20719 0.0
C943 C 1.00806 0.69919 0.18287 0.0
C944 C 1.03389 0.72839 0.17665 0.0
C945 C 1.03264 0.75682 0.192 0.0
C946 C 1.03022 0.63446 0.13413 0.0
C947 C 0.99724 0.62486 0.11453 0.0
C948 C 1.03351 0.65807 0.15696 0.0
C949 C 1.00372 0.67202 0.16118 0.0
C950 C 0.97031 0.66171 0.14265 0.0
C951 C 0.96716 0.63845 0.11921 0.0
H952 H 0.4456 0.84351 0.2716 0.0
H953 H 0.35119 0.83789 0.20069 0.0
H954 H 0.474 0.89547 0.24267 0.0
H955 H 0.38006 0.88903 0.17097 0.0
H956 H 0.42091 0.99395 0.14055 0.0
H957 H 0.39574 0.94716 0.17836 0.0
H958 H 0.5001 0.91748 0.19193 0.0
H959 H 0.52562 0.96472 0.15555 0.0
C960 C 0.43133 0.85302 0.24935 0.0
C961 C 0.39625 0.83686 0.23829 0.0
C962 C 0.44748 0.88283 0.23293 0.0
C963 C 0.42894 0.89664 0.20496 0.0
C964 C 0.39452 0.87956 0.1931 0.0
C965 C 0.37823 0.85005 0.20975 0.0
C966 C 0.43866 0.97788 0.15225 0.0
C967 C 0.475 0.98267 0.14452 0.0
C968 C 0.42419 0.95093 0.17363 0.0
C969 C 0.44572 0.92818 0.18731 0.0
C970 C 0.4828 0.93454 0.18178 0.0
C971 C 0.49739 0.96167 0.16078 0.0
H972 H 0.68987 0.29757 0.19559 0.0
H973 H 0.66266 0.24302 0.28934 0.0
H974 H 0.65142 0.25313 0.16563 0.0
H975 H 0.62476 0.198 0.25929 0.0
H976 H 0.65015 0.11912 0.1881 0.0
H977 H 0.65764 0.16393 0.22454 0.0
H978 H 0.58789 0.21324 0.15477 0.0
H979 H 0.57989 0.16807 0.11837 0.0
C980 C 0.67438 0.27665 0.2097 0.0
C981 C 0.67924 0.27346 0.2446 0.0
C982 C 0.65232 0.25128 0.19261 0.0
C983 C 0.63551 0.2221 0.21026 0.0
C984 C 0.63752 0.22032 0.24524 0.0
C985 C 0.65901 0.24609 0.26237 0.0
C986 C 0.63576 0.13913 0.18092 0.0
C987 C 0.61494 0.14045 0.15025 0.0
C988 C 0.63966 0.16456 0.20193 0.0
C989 C 0.62324 0.19192 0.19239 0.0
C990 C 0.60067 0.1923 0.16264 0.0
C991 C 0.59626 0.16656 0.14185 0.0
H992 H 0.80615 0.74583 0.90751 0.0
H993 H 0.74469 0.72562 0.81317 0.0
H994 H 0.77116 0.69497 0.93343 0.0
H995 H 0.70973 0.67473 0.83925 0.0
H996 H 0.63467 0.60347 0.91556 0.0
H997 H 0.66495 0.6541 0.88503 0.0
H998 H 0.76964 0.63448 0.92514 0.0
H999 H 0.73982 0.58411 0.95538 0.0
C1000 C 0.78487 0.73081 0.89243 0.0
C1001 C 0.7784 0.73958 0.85827 0.0
C1002 C 0.76505 0.70158 0.90719 0.0
C1003 C 0.73814 0.68075 0.88817 0.0
C1004 C 0.73036 0.69033 0.85442 0.0
C1005 C 0.75047 0.7194 0.83954 0.0
C1006 C 0.66416 0.60948 0.91714 0.0
C1007 C 0.68481 0.58987 0.93815 0.0
C1008 C 0.68143 0.63858 0.89985 0.0
C1009 C 0.71955 0.64849 0.9034 0.0
C1010 C 0.74017 0.6278 0.92265 0.0
C1011 C 0.72303 0.5988 0.93974 0.0
H1012 H 0.51685 0.7845 0.92692 0.0
H1013 H 0.55462 0.73595 0.8513 0.0
H1014 H 0.55286 0.75659 0.96959 0.0
H1015 H 0.59116 0.70954 0.89336 0.0
H1016 H 0.62506 0.6392 0.96849 0.0
H1017 H 0.62979 0.69643 0.9452 0.0
H1018 H 0.52249 0.69573 0.97496 0.0
H1019 H 0.51757 0.63883 0.99776 0.0
C1020 C 0.53413 0.76922 0.91917 0.0
C1021 C 0.53101 0.7607 0.88603 0.0
C1022 C 0.55504 0.75355 0.94361 0.0
C1023 C 0.57326 0.72971 0.93484 0.0
C1024 C 0.57678 0.72731 0.90098 0.0
C1025 C 0.55554 0.74256 0.87664 0.0
C1026 C 0.60278 0.65152 0.97064 0.0
C1027 C 0.57037 0.63423 0.98395 0.0
C1028 C 0.60577 0.6844 0.95768 0.0
C1029 C 0.57659 0.70056 0.95823 0.0
C1030 C 0.54572 0.68417 0.97451 0.0
C1031 C 0.54253 0.65127 0.98698 0.0
H1032 H 0.33266 0.37522 0.8818 0.0
H1033 H 0.40767 0.39455 0.80462 0.0
H1034 H 0.37188 0.41822 0.91299 0.0
H1035 H 0.44785 0.43635 0.83652 0.0
H1036 H 0.46984 0.45564 0.98108 0.0
H1037 H 0.42819 0.4203 0.9444 0.0
H1038 H 0.4603 0.48906 0.85987 0.0
H1039 H 0.5038 0.52431 0.89727 0.0
C1040 C 0.35748 0.38874 0.8715 0.0
C1041 C 0.36732 0.3813 0.84105 0.0
C1042 C 0.3801 0.41325 0.88939 0.0
C1043 C 0.41346 0.43027 0.87759 0.0
C1044 C 0.42234 0.42392 0.84628 0.0
C1045 C 0.39936 0.3998 0.82809 0.0
C1046 C 0.46798 0.46336 0.95465 0.0
C1047 C 0.48958 0.49294 0.94199 0.0
C1048 C 0.4438 0.4432 0.93361 0.0
C1049 C 0.44005 0.45223 0.89927 0.0
C1050 C 0.46245 0.48146 0.88627 0.0
C1051 C 0.48731 0.50162 0.90754 0.0
H1052 H 0.65584 0.31609 0.87704 0.0
H1053 H 0.61016 0.38601 0.80779 0.0
H1054 H 0.63591 0.33906 0.92327 0.0
H1055 H 0.59186 0.41008 0.85434 0.0
H1056 H 0.56234 0.45026 0.94331 0.0
H1057 H 0.55836 0.40806 0.90419 0.0
H1058 H 0.66512 0.3924 0.94308 0.0
H1059 H 0.66891 0.43391 0.98215 0.0
C1060 C 0.64053 0.33566 0.8715 0.0
C1061 C 0.63529 0.34971 0.83869 0.0
C1062 C 0.62943 0.34904 0.89812 0.0
C1063 C 0.61314 0.37687 0.89252 0.0
C1064 C 0.60441 0.38866 0.85952 0.0
C1065 C 0.61532 0.37514 0.83284 0.0
C1066 C 0.58453 0.43716 0.94404 0.0
C1067 C 0.61624 0.44577 0.96543 0.0
C1068 C 0.58227 0.41311 0.92156 0.0
C1069 C 0.61148 0.39705 0.9204 0.0
C1070 C 0.64192 0.40399 0.94354 0.0
C1071 C 0.6443 0.4281 0.96575 0.0
H1072 H 0.63032 0.43929 0.29321 0.0
H1073 H 0.7189 0.52069 0.27017 0.0
H1074 H 0.60749 0.44046 0.23529 0.0
H1075 H 0.69571 0.5218 0.21176 0.0
H1076 H 0.69652 0.4686 0.1201 0.0
H1077 H 0.70317 0.47601 0.17912 0.0
H1078 H 0.58649 0.46349 0.18007 0.0
H1079 H 0.57958 0.45463 0.12066 0.0
C1080 C 0.64383 0.45883 0.27624 0.0
C1081 C 0.67752 0.47898 0.28603 0.0
C1082 C 0.63075 0.4592 0.24277 0.0
C1083 C 0.6509 0.48007 0.21892 0.0
C1084 C 0.68044 0.50458 0.22965 0.0
C1085 C 0.6935 0.50424 0.26315 0.0
C1086 C 0.67209 0.46666 0.13285 0.0
C1087 C 0.63755 0.4629 0.11522 0.0
C1088 C 0.67601 0.47171 0.16658 0.0
C1089 C 0.64551 0.47249 0.18362 0.0
C1090 C 0.61059 0.46432 0.16718 0.0
C1091 C 0.60665 0.45912 0.13326 0.0
H1092 H 0.82887 0.71152 0.19693 0.0
H1093 H 0.72603 0.69567 0.24069 0.0
H1094 H 0.80632 0.66353 0.16502 0.0
H1095 H 0.70237 0.64912 0.20727 0.0
H1096 H 0.67272 0.55331 0.16082 0.0
H1097 H 0.70271 0.59483 0.19854 0.0
H1098 H 0.76788 0.64618 0.11972 0.0
H1099 H 0.73983 0.60369 0.0832 0.0
C1100 C 0.80121 0.69801 0.19927 0.0
C1101 C 0.7791 0.70734 0.22106 0.0
C1102 C 0.78817 0.67051 0.18095 0.0
C1103 C 0.75238 0.65224 0.18339 0.0
C1104 C 0.73031 0.6619 0.2052 0.0
C1105 C 0.74368 0.68888 0.2241 0.0
C1106 C 0.6941 0.57308 0.15193 0.0
C1107 C 0.70391 0.57512 0.11906 0.0
C1108 C 0.71101 0.59719 0.17338 0.0
C1109 C 0.73748 0.62432 0.16217 0.0
C1110 C 0.74813 0.62554 0.12962 0.0
C1111 C 0.73184 0.60111 0.10849 0.0
H1112 H 0.55804 0.69736 0.24499 0.0
H1113 H 0.46322 0.69137 0.1747 0.0
H1114 H 0.59196 0.6813 0.20279 0.0
H1115 H 0.4961 0.67468 0.13328 0.0
H1116 H 0.55077 0.64565 0.05897 0.0
H1117 H 0.54152 0.6854 0.09621 0.0
H1118 H 0.59074 0.63104 0.17909 0.0
H1119 H 0.60239 0.59308 0.14102 0.0
C1120 C 0.54465 0.69295 0.22041 0.0
C1121 C 0.50801 0.69548 0.21309 0.0
C1122 C 0.56401 0.68381 0.19628 0.0
C1123 C 0.54689 0.67671 0.16455 0.0
C1124 C 0.51069 0.68074 0.15702 0.0
C1125 C 0.49159 0.69013 0.18092 0.0
C1126 C 0.56102 0.6433 0.08489 0.0
C1127 C 0.57688 0.61645 0.09743 0.0
C1128 C 0.55542 0.66575 0.10632 0.0
C1129 C 0.56413 0.66072 0.14087 0.0
C1130 C 0.58361 0.63576 0.1527 0.0
C1131 C 0.59021 0.61388 0.13098 0.0
H1132 H 0.41508 0.38416 0.2653 0.0
H1133 H 0.34381 0.36953 0.17517 0.0
H1134 H 0.4616 0.42015 0.23332 0.0
H1135 H 0.38971 0.40632 0.14346 0.0
H1136 H 0.52255 0.50776 0.164 0.0
H1137 H 0.47949 0.47254 0.20091 0.0
H1138 H 0.44673 0.40361 0.12477 0.0
H1139 H 0.48829 0.43927 0.08803 0.0
C1140 C 0.40904 0.38906 0.23875 0.0
C1141 C 0.37576 0.3737 0.22274 0.0
C1142 C 0.43577 0.40978 0.22043 0.0
C1143 C 0.42976 0.41571 0.18571 0.0
C1144 C 0.39576 0.40156 0.17003 0.0
C1145 C 0.36922 0.38068 0.18826 0.0
C1146 C 0.50654 0.48472 0.15567 0.0
C1147 C 0.50831 0.47623 0.12324 0.0
C1148 C 0.48182 0.4646 0.17665 0.0
C1149 C 0.45886 0.43566 0.16545 0.0
C1150 C 0.46293 0.42625 0.13382 0.0
C1151 C 0.48708 0.44643 0.1129 0.0
H1152 H 0.9843 0.67488 0.71692 0.0
H1153 H 0.87804 0.61247 0.70005 0.0
H1154 H 1.01124 0.63695 0.68954 0.0
H1155 H 0.90514 0.57413 0.67369 0.0
H1156 H 0.96002 0.56258 0.57691 0.0
H1157 H 0.93059 0.58364 0.61867 0.0
H1158 H 1.02425 0.57997 0.68889 0.0
H1159 H 1.05392 0.55887 0.64675 0.0
C1160 C 0.96684 0.65276 0.70794 0.0
C1161 C 0.92902 0.6469 0.71023 0.0
C1162 C 0.98231 0.63081 0.69268 0.0
C1163 C 0.9602 0.60269 0.67933 0.0
C1164 C 0.92275 0.59575 0.68355 0.0
C1165 C 0.9073 0.61763 0.69885 0.0
C1166 C 0.97395 0.56549 0.60153 0.0
C1167 C 1.00934 0.55945 0.60853 0.0
C1168 C 0.95701 0.57733 0.62555 0.0
C1169 C 0.97528 0.58368 0.65696 0.0
C1170 C 1.00972 0.57551 0.66476 0.0
C1171 C 1.02654 0.56322 0.64077 0.0
H1172 H 0.36987 0.80983 0.70898 0.0
H1173 H 0.33263 0.88847 0.74935 0.0
H1174 H 0.40925 0.85025 0.67435 0.0
H1175 H 0.37163 0.92922 0.71379 0.0
H1176 H 0.48906 0.98415 0.69075 0.0
H1177 H 0.43605 0.94957 0.7144 0.0
H1178 H 0.41646 0.89207 0.6286 0.0
H1179 H 0.47053 0.92629 0.60519 0.0
C1180 C 0.36953 0.83578 0.71002 0.0
C1181 C 0.34836 0.84589 0.73229 0.0
C1182 C 0.39197 0.85904 0.68983 0.0
C1183 C 0.39386 0.89312 0.69128 0.0
C1184 C 0.37126 0.9032 0.71234 0.0
C1185 C 0.34875 0.87984 0.73263 0.0
C1186 C 0.47318 0.96451 0.67653 0.0
C1187 C 0.48457 0.95771 0.64628 0.0
C1188 C 0.44245 0.94476 0.69006 0.0
C1189 C 0.42214 0.91766 0.6737 0.0
C1190 C 0.43188 0.91236 0.6422 0.0
C1191 C 0.46273 0.93219 0.62861 0.0
H1192 H 0.27703 0.34873 0.68781 0.0
H1193 H 0.23403 0.37862 0.77247 0.0
H1194 H 0.24419 0.38401 0.65065 0.0
H1195 H 0.20179 0.41513 0.73506 0.0
H1196 H 0.1177 0.44723 0.65049 0.0
H1197 H 0.15223 0.41716 0.69313 0.0
H1198 H 0.24399 0.43936 0.6326 0.0
H1199 H 0.20898 0.46788 0.58985 0.0
C1200 C 0.26083 0.36311 0.69861 0.0
C1201 C 0.25842 0.36081 0.73327 0.0
C1202 C 0.2421 0.3837 0.6772 0.0
C1203 C 0.22055 0.40303 0.68967 0.0
C1204 C 0.21789 0.40059 0.72439 0.0
C1205 C 0.23654 0.37971 0.74591 0.0
C1206 C 0.14557 0.44629 0.6468 0.0
C1207 C 0.16058 0.45979 0.61676 0.0
C1208 C 0.1654 0.42894 0.67119 0.0
C1209 C 0.20078 0.42502 0.66614 0.0
C1210 C 0.21649 0.44077 0.63706 0.0
C1211 C 0.19657 0.45756 0.61264 0.0
H1212 H 0.83184 0.1809 0.74587 0.0
H1213 H 0.75974 0.23821 0.68896 0.0
H1214 H 0.81078 0.13616 0.70962 0.0
H1215 H 0.73779 0.19307 0.6532 0.0
H1216 H 0.69952 0.11178 0.59059 0.0
H1217 H 0.74504 0.15696 0.6129 0.0
H1218 H 0.75642 0.0967 0.70549 0.0
H1219 H 0.7122 0.05161 0.68285 0.0
C1220 C 0.81161 0.18402 0.72544 0.0
C1221 C 0.79681 0.21278 0.72067 0.0
C1222 C 0.79957 0.15836 0.70461 0.0
C1223 C 0.77226 0.16071 0.67866 0.0
C1224 C 0.7592 0.19044 0.67262 0.0
C1225 C 0.77149 0.21627 0.69333 0.0
C1226 C 0.71306 0.10768 0.61511 0.0
C1227 C 0.70176 0.07838 0.63526 0.0
C1228 C 0.73875 0.13379 0.62811 0.0
C1229 C 0.75359 0.13093 0.66138 0.0
C1230 C 0.74564 0.10003 0.67983 0.0
C1231 C 0.72009 0.07404 0.66686 0.0
H1232 H 0.88102 0.38238 0.31283 0.0
H1233 H 0.86424 0.29939 0.38694 0.0
H1234 H 0.93112 0.41102 0.34851 0.0
H1235 H 0.914 0.32853 0.4235 0.0
H1236 H 1.02499 0.38637 0.46676 0.0
H1237 H 0.9796 0.35253 0.43105 0.0
H1238 H 0.92983 0.43685 0.40012 0.0
H1239 H 0.97587 0.47119 0.43512 0.0
C1240 C 0.88877 0.37007 0.33658 0.0
C1241 C 0.86909 0.33895 0.34748 0.0
C1242 C 0.917 0.38657 0.35712 0.0
C1243 C 0.9256 0.37237 0.38909 0.0
C1244 C 0.90774 0.34003 0.39897 0.0
C1245 C 0.87956 0.32328 0.3781 0.0
C1246 C 1.00426 0.39776 0.45252 0.0
C1247 C 1.00434 0.43167 0.4534 0.0
C1248 C 0.97822 0.37824 0.43217 0.0
C1249 C 0.95173 0.39222 0.41243 0.0
C1250 C 0.95064 0.42568 0.41451 0.0
C1251 C 0.97676 0.44527 0.43478 0.0
H1252 H 0.68644 0.87178 0.39915 0.0
H1253 H 0.74789 0.82571 0.47962 0.0
H1254 H 0.68068 0.9137 0.43482 0.0
H1255 H 0.74135 0.86782 0.51594 0.0
H1256 H 0.65578 0.9185 0.56582 0.0
H1257 H 0.68723 0.88267 0.54028 0.0
H1258 H 0.71942 0.96096 0.46385 0.0
H1259 H 0.68708 0.9964 0.48881 0.0
C1260 C 0.69911 0.87085 0.42439 0.0
C1261 C 0.71778 0.84558 0.43651 0.0
C1262 C 0.69603 0.89501 0.44479 0.0
C1263 C 0.71136 0.89441 0.47791 0.0
C1264 C 0.72963 0.86893 0.49038 0.0
C1265 C 0.733 0.84475 0.46974 0.0
C1266 C 0.67102 0.92853 0.54447 0.0
C1267 C 0.66831 0.95976 0.52864 0.0
C1268 C 0.68902 0.90801 0.52985 0.0
C1269 C 0.70466 0.91881 0.49955 0.0
C1270 C 0.70669 0.95186 0.48678 0.0
C1271 C 0.68836 0.97215 0.50109 0.0
H1272 H 0.32556 0.69013 0.39657 0.0
H1273 H 0.24907 0.7559 0.38519 0.0
H1274 H 0.28971 0.65504 0.43832 0.0
H1275 H 0.2125 0.72029 0.42578 0.0
H1276 H 0.17963 0.57888 0.44417 0.0
H1277 H 0.23234 0.61877 0.42652 0.0
H1278 H 0.20221 0.69293 0.48026 0.0
H1279 H 0.14852 0.65306 0.4971 0.0
C1280 C 0.30126 0.6972 0.40331 0.0
C1281 C 0.28929 0.72502 0.38713 0.0
C1282 C 0.28091 0.67726 0.42724 0.0
C1283 C 0.248 0.68458 0.43476 0.0
C1284 C 0.23788 0.71409 0.42069 0.0
C1285 C 0.25856 0.73431 0.39715 0.0
C1286 C 0.18456 0.60354 0.45262 0.0
C1287 C 0.15955 0.61329 0.47105 0.0
C1288 C 0.21503 0.62632 0.44291 0.0
C1289 C 0.22117 0.65907 0.45182 0.0
C1290 C 0.1977 0.66799 0.47259 0.0
C1291 C 0.16696 0.64529 0.482 0.0
H1292 H 0.4555 0.22078 0.47663 0.0
H1293 H 0.36537 0.1563 0.42663 0.0
H1294 H 0.47192 0.17341 0.51001 0.0
H1295 H 0.3825 0.10848 0.45982 0.0
H1296 H 0.48065 0.0497 0.47188 0.0
H1297 H 0.43823 0.08607 0.45447 0.0
H1298 H 0.45639 0.12489 0.55131 0.0
H1299 H 0.49926 0.08879 0.56887 0.0
C1300 C 0.4385 0.19661 0.47345 0.0
C1301 C 0.40958 0.19221 0.44854 0.0
C1302 C 0.44783 0.1694 0.49272 0.0
C1303 C 0.42858 0.13725 0.48733 0.0
C1304 C 0.39796 0.13301 0.4642 0.0
C1305 C 0.38843 0.16032 0.44506 0.0
C1306 C 0.47492 0.06528 0.48985 0.0
C1307 C 0.49434 0.06715 0.52135 0.0
C1308 C 0.45026 0.08592 0.47994 0.0
C1309 C 0.44464 0.10874 0.50137 0.0
C1310 C 0.46077 0.10786 0.53417 0.0
C1311 C 0.48536 0.08717 0.54414 0.0
H1312 H 0.7872 0.85053 0.70929 0.0
H1313 H 0.73243 0.83671 0.80013 0.0
H1314 H 0.7353 0.87001 0.67898 0.0
H1315 H 0.67998 0.85461 0.76971 0.0
H1316 H 0.62883 0.93999 0.71848 0.0
H1317 H 0.66952 0.90673 0.7476 0.0
H1318 H 0.67219 0.85947 0.65746 0.0
H1319 H 0.63196 0.89413 0.62769 0.0
C1320 C 0.7638 0.85114 0.72263 0.0
C1321 C 0.76412 0.84278 0.75716 0.0
C1322 C 0.73388 0.86196 0.70521 0.0
C1323 C 0.70355 0.86415 0.72196 0.0
C1324 C 0.7032 0.85394 0.75617 0.0
C1325 C 0.73328 0.8437 0.77363 0.0
C1326 C 0.63755 0.92212 0.70492 0.0
C1327 C 0.6276 0.91999 0.67069 0.0
C1328 C 0.66072 0.90275 0.72175 0.0
C1329 C 0.67443 0.88055 0.70485 0.0
C1330 C 0.66253 0.87673 0.67106 0.0
C1331 C 0.63918 0.89627 0.6541 0.0
H1332 H 0.74633 0.19642 0.35038 0.0
H1333 H 0.72277 0.27304 0.40481 0.0
H1334 H 0.71907 0.15465 0.39206 0.0
H1335 H 0.69423 0.23109 0.44598 0.0
H1336 H 0.66632 0.1448 0.5274 0.0
H1337 H 0.70064 0.18846 0.49056 0.0
H1338 H 0.65916 0.13161 0.40609 0.0
H1339 H 0.62623 0.08834 0.44238 0.0
C1340 C 0.73535 0.20438 0.37125 0.0
C1341 C 0.73645 0.23809 0.374 0.0
C1342 C 0.71949 0.18039 0.39513 0.0
C1343 C 0.70382 0.18938 0.42221 0.0
C1344 C 0.70616 0.2232 0.42565 0.0
C1345 C 0.72239 0.24728 0.40188 0.0
C1346 C 0.66461 0.14178 0.50094 0.0
C1347 C 0.64381 0.11286 0.48799 0.0
C1348 C 0.68422 0.16678 0.47981 0.0
C1349 C 0.68322 0.16337 0.44532 0.0
C1350 C 0.66163 0.13478 0.43254 0.0
C1351 C 0.64242 0.10994 0.45348 0.0
H1352 H 0.93243 0.72391 0.29355 0.0
H1353 H 0.85495 0.69436 0.36734 0.0
H1354 H 0.96859 0.68434 0.32086 0.0
H1355 H 0.89089 0.65552 0.39509 0.0
H1356 H 0.9518 0.57511 0.4423 0.0
H1357 H 0.91571 0.61171 0.41095 0.0
H1358 H 1.00758 0.65677 0.35521 0.0
H1359 H 1.04362 0.61897 0.38686 0.0
C1360 C 0.92268 0.70909 0.31563 0.0
C1361 C 0.88956 0.71338 0.32731 0.0
C1362 C 0.94404 0.68586 0.33187 0.0
C1363 C 0.93405 0.66493 0.36121 0.0
C1364 C 0.90088 0.66956 0.37277 0.0
C1365 C 0.87962 0.69268 0.35654 0.0
C1366 C 0.96444 0.592 0.42266 0.0
C1367 C 1.00125 0.59194 0.41722 0.0
C1368 C 0.94337 0.6142 0.40454 0.0
C1369 C 0.95734 0.63912 0.37957 0.0
C1370 C 0.99415 0.63871 0.37349 0.0
C1371 C 1.01533 0.61615 0.39172 0.0
H1372 H 0.40508 0.8704 0.36357 0.0
H1373 H 0.40947 0.77508 0.41626 0.0
H1374 H 0.44378 0.8976 0.40891 0.0
H1375 H 0.44792 0.80273 0.46198 0.0
H1376 H 0.48131 0.89247 0.54336 0.0
H1377 H 0.44126 0.85476 0.5054 0.0
H1378 H 0.51525 0.88816 0.42848 0.0
H1379 H 0.55497 0.92501 0.46599 0.0
C1380 C 0.41399 0.85525 0.38491 0.0
C1381 C 0.4046 0.82057 0.38609 0.0
C1382 C 0.43606 0.87083 0.41085 0.0
C1383 C 0.44873 0.85213 0.43874 0.0
C1384 C 0.43829 0.81756 0.44072 0.0
C1385 C 0.41658 0.80186 0.41446 0.0
C1386 C 0.4895 0.89063 0.51879 0.0
C1387 C 0.52103 0.91151 0.50742 0.0
C1388 C 0.4666 0.86936 0.49709 0.0
C1389 C 0.47513 0.86915 0.46401 0.0
C1390 C 0.50801 0.88822 0.45375 0.0
C1391 C 0.53074 0.9091 0.47525 0.0
H1392 H 0.28538 0.36056 0.37051 0.0
H1393 H 0.20771 0.36639 0.28607 0.0
H1394 H 0.25451 0.39266 0.40086 0.0
H1395 H 0.17605 0.39891 0.3165 0.0
H1396 H 0.1159 0.45984 0.3795 0.0
H1397 H 0.14734 0.4297 0.34574 0.0
H1398 H 0.22646 0.42046 0.4289 0.0
H1399 H 0.19567 0.44999 0.46145 0.0
C1400 C 0.26161 0.36864 0.35794 0.0
C1401 C 0.25027 0.35989 0.32481 0.0
C1402 C 0.24309 0.38773 0.37591 0.0
C1403 C 0.21124 0.39997 0.36255 0.0
C1404 C 0.19986 0.39112 0.32919 0.0
C1405 C 0.21855 0.37193 0.31114 0.0
C1406 C 0.14046 0.45209 0.39056 0.0
C1407 C 0.15247 0.45885 0.42425 0.0
C1408 C 0.15889 0.43393 0.37086 0.0
C1409 C 0.19079 0.421 0.38319 0.0
C1410 C 0.20272 0.42862 0.41663 0.0
C1411 C 0.18446 0.44642 0.43605 0.0
H1412 H 0.52792 0.23715 0.74766 0.0
H1413 H 0.48632 0.25459 0.64537 0.0
H1414 H 0.56012 0.19676 0.73082 0.0
H1415 H 0.51823 0.2143 0.62861 0.0
H1416 H 0.59394 0.15083 0.60492 0.0
H1417 H 0.57694 0.19928 0.62343 0.0
H1418 H 0.53687 0.14131 0.71181 0.0
H1419 H 0.55438 0.09307 0.69382 0.0
C1420 C 0.52607 0.23262 0.72155 0.0
C1421 C 0.50439 0.24871 0.69785 0.0
C1422 C 0.54443 0.20956 0.71194 0.0
C1423 C 0.54135 0.20218 0.67849 0.0
C1424 C 0.52144 0.21974 0.65452 0.0
C1425 C 0.50315 0.24282 0.66411 0.0
C1426 C 0.58178 0.14844 0.62845 0.0
C1427 C 0.57518 0.11794 0.64773 0.0
C1428 C 0.57204 0.17621 0.63899 0.0
C1429 C 0.55559 0.17404 0.66902 0.0
C1430 C 0.55002 0.14386 0.68878 0.0
C1431 C 0.55972 0.1161 0.67827 0.0
H1432 H 0.93572 0.3061 0.72677 0.0
H1433 H 0.85955 0.37065 0.70008 0.0
H1434 H 0.97528 0.33688 0.68519 0.0
H1435 H 0.89826 0.40082 0.65763 0.0
H1436 H 0.98785 0.46877 0.59904 0.0
H1437 H 0.94826 0.4382 0.64069 0.0
H1438 H 0.9912 0.35093 0.63166 0.0
H1439 H 1.03162 0.38204 0.59092 0.0
C1440 C 0.92709 0.32675 0.71194 0.0
C1441 C 0.89393 0.33549 0.71744 0.0
C1442 C 0.94996 0.34456 0.68752 0.0
C1443 C 0.9408 0.372 0.66707 0.0
C1444 C 0.90744 0.38056 0.67262 0.0
C1445 C 0.88471 0.36286 0.69718 0.0
C1446 C 0.9888 0.44297 0.60568 0.0
C1447 C 1.01336 0.42826 0.59091 0.0
C1448 C 0.96566 0.42508 0.62985 0.0
C1449 C 0.96567 0.3914 0.64048 0.0
C1450 C 0.99008 0.37669 0.62531 0.0
C1451 C 1.01337 0.39466 0.60131 0.0
H1452 H 0.216 0.74657 0.70385 0.0
H1453 H 0.2751 0.67078 0.74271 0.0
H1454 H 0.1854 0.71207 0.66027 0.0
H1455 H 0.2431 0.63506 0.69992 0.0
H1456 H 0.19283 0.57954 0.60556 0.0
H1457 H 0.22785 0.61447 0.64825 0.0
H1458 H 0.14313 0.67145 0.64058 0.0
H1459 H 0.11 0.63826 0.59783 0.0
C1460 C 0.22232 0.72229 0.70348 0.0
C1461 C 0.24839 0.71202 0.72757 0.0
C1462 C 0.20422 0.70187 0.6782 0.0
C1463 C 0.21054 0.66956 0.67571 0.0
C1464 C 0.23692 0.6594 0.69986 0.0
C1465 C 0.25542 0.68011 0.72496 0.0
C1466 C 0.18187 0.59975 0.61275 0.0
C1467 C 0.14827 0.60574 0.5971 0.0
C1468 C 0.20203 0.62 0.63777 0.0
C1469 C 0.18941 0.64703 0.64866 0.0
C1470 C 0.15547 0.65225 0.63316 0.0
C1471 C 0.13583 0.63253 0.60819 0.0
loop_
_geom_bond_atom_site_label_1
_geom_bond_atom_site_label_2
_geom_bond_distance
_geom_bond_site_symmetry_2
_ccdc_geom_bond_type
Tb0 C9 2.764 . S
Tb0 O10 2.325 . S
Tb0 O13 2.303 . S
Tb0 O17 2.322 . S
Tb0 O18 2.349 . S
Tb0 O21 2.415 . S
Tb0 O22 2.399 . S
Tb1 O11 2.322 . S
Tb1 O12 2.349 . S
Tb1 O14 2.415 . S
Tb1 O15 2.399 . S
Tb1 O16 2.325 . S
Tb1 O19 2.303 . S
Tb1 C30 2.764 . S
C2 O18 1.261 . S
C2 O19 1.257 . S
C3 C6 1.358 . S
C3 C7 1.332 . S
C3 C9 1.504 . S
C4 C5 1.373 . S
C4 C8 1.308 . S
C5 C4 1.373 . S
C5 C6 1.429 . S
C5 H32 0.932 . S
C6 C3 1.358 . S
C6 C5 1.429 . S
C6 H33 0.930 . S
C7 C3 1.332 . S
C7 C8 1.394 . S
C7 H34 0.932 . S
C8 C4 1.308 . S
C8 C7 1.394 . S
C8 H35 0.929 . S
C9 Tb0 2.764 . S
C9 C3 1.504 . S
C9 O21 1.239 . S
C9 O22 1.263 . S
O10 Tb0 2.325 . S
O10 C20 1.236 . S
O11 Tb1 2.322 . S
O11 C20 1.257 . S
O12 Tb1 2.349 . S
O12 C23 1.261 . S
O13 Tb0 2.303 . S
O13 C23 1.257 . S
O14 Tb1 2.415 . S
O14 C30 1.239 . S
O15 Tb1 2.399 . S
O15 C30 1.263 . S
O16 Tb1 2.325 . S
O16 C31 1.236 . S
O17 Tb0 2.322 . S
O17 C31 1.257 . S
O18 Tb0 2.349 . S
O18 C2 1.261 . S
O19 Tb1 2.303 . S
O19 C2 1.257 . S
C20 O10 1.236 . S
C20 O11 1.257 . S
O21 Tb0 2.415 . S
O21 C9 1.239 . S
O22 Tb0 2.399 . S
O22 C9 1.263 . S
C23 O12 1.261 . S
C23 O13 1.257 . S
C24 C27 1.358 . S
C24 C28 1.332 . S
C24 C30 1.504 . S
C25 C26 1.373 . S
C25 C29 1.308 . S
C26 C25 1.373 . S
C26 C27 1.429 . S
C26 H36 0.932 . S
C27 C24 1.358 . S
C27 C26 1.429 . S
C27 H37 0.930 . S
C28 C24 1.332 . S
C28 C29 1.394 . S
C28 H38 0.932 . S
C29 C25 1.308 . S
C29 C28 1.394 . S
C29 H39 0.929 . S
C30 Tb1 2.764 . S
C30 O14 1.239 . S
C30 O15 1.263 . S
C30 C24 1.504 . S
C31 O16 1.236 . S
C31 O17 1.257 . S
H32 C5 0.932 . S
H33 C6 0.930 . S
H34 C7 0.932 . S
H35 C8 0.929 . S
H36 C26 0.932 . S
H37 C27 0.930 . S
H38 C28 0.932 . S
H39 C29 0.929 . S
Tb40 C49 2.764 . S
Tb40 O50 2.325 . S
Tb40 O53 2.303 . S
Tb40 O57 2.322 . S
Tb40 O58 2.349 . S
Tb40 O61 2.415 . S
Tb40 O62 2.399 . S
Tb41 O51 2.322 . S
Tb41 O52 2.349 . S
Tb41 O54 2.415 . S
Tb41 O55 2.399 . S
Tb41 O56 2.325 . S
Tb41 O59 2.303 . S
Tb41 C70 2.764 . S
C42 O58 1.261 . S
C42 O59 1.257 . S
C43 C46 1.358 . S
C43 C47 1.332 . S
C43 C49 1.504 . S
C44 C45 1.373 . S
C44 C48 1.308 . S
C45 C44 1.373 . S
C45 C46 1.429 . S
C45 H72 0.932 . S
C46 C43 1.358 . S
C46 C45 1.429 . S
C46 H73 0.930 . S
C47 C43 1.332 . S
C47 C48 1.394 . S
C47 H74 0.932 . S
C48 C44 1.308 . S
C48 C47 1.394 . S
C48 H75 0.929 . S
C49 Tb40 2.764 . S
C49 C43 1.504 . S
C49 O61 1.239 . S
C49 O62 1.263 . S
O50 Tb40 2.325 . S
O50 C60 1.236 . S
O51 Tb41 2.322 . S
O51 C60 1.257 . S
O52 Tb41 2.349 . S
O52 C63 1.261 . S
O53 Tb40 2.303 . S
O53 C63 1.257 . S
O54 Tb41 2.415 . S
O54 C70 1.239 . S
O55 Tb41 2.399 . S
O55 C70 1.263 . S
O56 Tb41 2.325 . S
O56 C71 1.236 . S
O57 Tb40 2.322 . S
O57 C71 1.257 . S
O58 Tb40 2.349 . S
O58 C42 1.261 . S
O59 Tb41 2.303 . S
O59 C42 1.257 . S
C60 O50 1.236 . S
C60 O51 1.257 . S
O61 Tb40 2.415 . S
O61 C49 1.239 . S
O62 Tb40 2.399 . S
O62 C49 1.263 . S
C63 O52 1.261 . S
C63 O53 1.257 . S
C64 C67 1.358 . S
C64 C68 1.332 . S
C64 C70 1.504 . S
C65 C66 1.373 . S
C65 C69 1.308 . S
C66 C65 1.373 . S
C66 C67 1.429 . S
C66 H76 0.932 . S
C67 C64 1.358 . S
C67 C66 1.429 . S
C67 H77 0.930 . S
C68 C64 1.332 . S
C68 C69 1.394 . S
C68 H78 0.932 . S
C69 C65 1.308 . S
C69 C68 1.394 . S
C69 H79 0.929 . S
C70 Tb41 2.764 . S
C70 O54 1.239 . S
C70 O55 1.263 . S
C70 C64 1.504 . S
C71 O56 1.236 . S
C71 O57 1.257 . S
H72 C45 0.932 . S
H73 C46 0.930 . S
H74 C47 0.932 . S
H75 C48 0.929 . S
H76 C66 0.932 . S
H77 C67 0.930 . S
H78 C68 0.932 . S
H79 C69 0.929 . S
Tb80 C89 2.764 . S
Tb80 O90 2.325 . S
Tb80 O93 2.303 . S
Tb80 O97 2.322 . S
Tb80 O98 2.349 . S
Tb80 O101 2.415 . S
Tb80 O102 2.399 . S
Tb81 O91 2.322 . S
Tb81 O92 2.349 . S
Tb81 O94 2.415 . S
Tb81 O95 2.399 . S
Tb81 O96 2.325 . S
Tb81 O99 2.303 . S
Tb81 C110 2.764 . S
C82 O98 1.261 . S
C82 O99 1.257 . S
C83 C86 1.358 . S
C83 C87 1.332 . S
C83 C89 1.504 . S
C84 C85 1.373 . S
C84 C88 1.308 . S
C85 C84 1.373 . S
C85 C86 1.429 . S
C85 H112 0.932 . S
C86 C83 1.358 . S
C86 C85 1.429 . S
C86 H113 0.930 . S
C87 C83 1.332 . S
C87 C88 1.394 . S
C87 H114 0.932 . S
C88 C84 1.308 . S
C88 C87 1.394 . S
C88 H115 0.929 . S
C89 Tb80 2.764 . S
C89 C83 1.504 . S
C89 O101 1.239 . S
C89 O102 1.263 . S
O90 Tb80 2.325 . S
O90 C100 1.236 . S
O91 Tb81 2.322 . S
O91 C100 1.257 . S
O92 Tb81 2.349 . S
O92 C103 1.261 . S
O93 Tb80 2.303 . S
O93 C103 1.257 . S
O94 Tb81 2.415 . S
O94 C110 1.239 . S
O95 Tb81 2.399 . S
O95 C110 1.263 . S
O96 Tb81 2.325 . S
O96 C111 1.236 . S
O97 Tb80 2.322 . S
O97 C111 1.257 . S
O98 Tb80 2.349 . S
O98 C82 1.261 . S
O99 Tb81 2.303 . S
O99 C82 1.257 . S
C100 O90 1.236 . S
C100 O91 1.257 . S
O101 Tb80 2.415 . S
O101 C89 1.239 . S
O102 Tb80 2.399 . S
O102 C89 1.263 . S
C103 O92 1.261 . S
C103 O93 1.257 . S
C104 C107 1.358 . S
C104 C108 1.332 . S
C104 C110 1.504 . S
C105 C106 1.373 . S
C105 C109 1.308 . S
C106 C105 1.373 . S
C106 C107 1.429 . S
C106 H116 0.932 . S
C107 C104 1.358 . S
C107 C106 1.429 . S
C107 H117 0.930 . S
C108 C104 1.332 . S
C108 C109 1.394 . S
C108 H118 0.932 . S
C109 C105 1.308 . S
C109 C108 1.394 . S
C109 H119 0.929 . S
C110 Tb81 2.764 . S
C110 O94 1.239 . S
C110 O95 1.263 . S
C110 C104 1.504 . S
C111 O96 1.236 . S
C111 O97 1.257 . S
H112 C85 0.932 . S
H113 C86 0.930 . S
H114 C87 0.932 . S
H115 C88 0.929 . S
H116 C106 0.932 . S
H117 C107 0.930 . S
H118 C108 0.932 . S
H119 C109 0.929 . S
Tb120 C129 2.764 . S
Tb120 O130 2.325 . S
Tb120 O133 2.303 . S
Tb120 O137 2.322 . S
Tb120 O138 2.349 . S
Tb120 O141 2.415 . S
Tb120 O142 2.399 . S
Tb121 O131 2.322 . S
Tb121 O132 2.349 . S
Tb121 O134 2.415 . S
Tb121 O135 2.399 . S
Tb121 O136 2.325 . S
Tb121 O139 2.303 . S
Tb121 C150 2.764 . S
C122 O138 1.261 . S
C122 O139 1.257 . S
C123 C126 1.358 . S
C123 C127 1.332 . S
C123 C129 1.504 . S
C124 C125 1.373 . S
C124 C128 1.308 . S
C125 C124 1.373 . S
C125 C126 1.429 . S
C125 H152 0.932 . S
C126 C123 1.358 . S
C126 C125 1.429 . S
C126 H153 0.930 . S
C127 C123 1.332 . S
C127 C128 1.394 . S
C127 H154 0.932 . S
C128 C124 1.308 . S
C128 C127 1.394 . S
C128 H155 0.929 . S
C129 Tb120 2.764 . S
C129 C123 1.504 . S
C129 O141 1.239 . S
C129 O142 1.263 . S
O130 Tb120 2.325 . S
O130 C140 1.236 . S
O131 Tb121 2.322 . S
O131 C140 1.257 . S
O132 Tb121 2.349 . S
O132 C143 1.261 . S
O133 Tb120 2.303 . S
O133 C143 1.257 . S
O134 Tb121 2.415 . S
O134 C150 1.239 . S
O135 Tb121 2.399 . S
O135 C150 1.263 . S
O136 Tb121 2.325 . S
O136 C151 1.236 . S
O137 Tb120 2.322 . S
O137 C151 1.257 . S
O138 Tb120 2.349 . S
O138 C122 1.261 . S
O139 Tb121 2.303 . S
O139 C122 1.257 . S
C140 O130 1.236 . S
C140 O131 1.257 . S
O141 Tb120 2.415 . S
O141 C129 1.239 . S
O142 Tb120 2.399 . S
O142 C129 1.263 . S
C143 O132 1.261 . S
C143 O133 1.257 . S
C144 C147 1.358 . S
C144 C148 1.332 . S
C144 C150 1.504 . S
C145 C146 1.373 . S
C145 C149 1.308 . S
C146 C145 1.373 . S
C146 C147 1.429 . S
C146 H156 0.932 . S
C147 C144 1.358 . S
C147 C146 1.429 . S
C147 H157 0.930 . S
C148 C144 1.332 . S
C148 C149 1.394 . S
C148 H158 0.932 . S
C149 C145 1.308 . S
C149 C148 1.394 . S
C149 H159 0.929 . S
C150 Tb121 2.764 . S
C150 O134 1.239 . S
C150 O135 1.263 . S
C150 C144 1.504 . S
C151 O136 1.236 . S
C151 O137 1.257 . S
H152 C125 0.932 . S
H153 C126 0.930 . S
H154 C127 0.932 . S
H155 C128 0.929 . S
H156 C146 0.932 . S
H157 C147 0.930 . S
H158 C148 0.932 . S
H159 C149 0.929 . S
Tb160 C169 2.764 . S
Tb160 O170 2.325 . S
Tb160 O173 2.303 . S
Tb160 O177 2.322 . S
Tb160 O178 2.349 . S
Tb160 O181 2.415 . S
Tb160 O182 2.399 . S
Tb161 O171 2.322 . S
Tb161 O172 2.349 . S
Tb161 O174 2.415 . S
Tb161 O175 2.399 . S
Tb161 O176 2.325 . S
Tb161 O179 2.303 . S
Tb161 C190 2.764 . S
C162 O178 1.261 . S
C162 O179 1.257 . S
C163 C166 1.358 . S
C163 C167 1.332 . S
C163 C169 1.504 . S
C164 C165 1.373 . S
C164 C168 1.308 . S
C165 C164 1.373 . S
C165 C166 1.429 . S
C165 H192 0.932 . S
C166 C163 1.358 . S
C166 C165 1.429 . S
C166 H193 0.930 . S
C167 C163 1.332 . S
C167 C168 1.394 . S
C167 H194 0.932 . S
C168 C164 1.308 . S
C168 C167 1.394 . S
C168 H195 0.929 . S
C169 Tb160 2.764 . S
C169 C163 1.504 . S
C169 O181 1.239 . S
C169 O182 1.263 . S
O170 Tb160 2.325 . S
O170 C180 1.236 . S
O171 Tb161 2.322 . S
O171 C180 1.257 . S
O172 Tb161 2.349 . S
O172 C183 1.261 . S
O173 Tb160 2.303 . S
O173 C183 1.257 . S
O174 Tb161 2.415 . S
O174 C190 1.239 . S
O175 Tb161 2.399 . S
O175 C190 1.263 . S
O176 Tb161 2.325 . S
O176 C191 1.236 . S
O177 Tb160 2.322 . S
O177 C191 1.257 . S
O178 Tb160 2.349 . S
O178 C162 1.261 . S
O179 Tb161 2.303 . S
O179 C162 1.257 . S
C180 O170 1.236 . S
C180 O171 1.257 . S
O181 Tb160 2.415 . S
O181 C169 1.239 . S
O182 Tb160 2.399 . S
O182 C169 1.263 . S
C183 O172 1.261 . S
C183 O173 1.257 . S
C184 C187 1.358 . S
C184 C188 1.332 . S
C184 C190 1.504 . S
C185 C186 1.373 . S
C185 C189 1.308 . S
C186 C185 1.373 . S
C186 C187 1.429 . S
C186 H196 0.932 . S
C187 C184 1.358 . S
C187 C186 1.429 . S
C187 H197 0.930 . S
C188 C184 1.332 . S
C188 C189 1.394 . S
C188 H198 0.932 . S
C189 C185 1.308 . S
C189 C188 1.394 . S
C189 H199 0.929 . S
C190 Tb161 2.764 . S
C190 O174 1.239 . S
C190 O175 1.263 . S
C190 C184 1.504 . S
C191 O176 1.236 . S
C191 O177 1.257 . S
H192 C165 0.932 . S
H193 C166 0.930 . S
H194 C167 0.932 . S
H195 C168 0.929 . S
H196 C186 0.932 . S
H197 C187 0.930 . S
H198 C188 0.932 . S
H199 C189 0.929 . S
Tb200 C209 2.764 . S
Tb200 O210 2.325 . S
Tb200 O213 2.303 . S
Tb200 O217 2.322 . S
Tb200 O218 2.349 . S
Tb200 O221 2.415 . S
Tb200 O222 2.399 . S
Tb201 O211 2.322 . S
Tb201 O212 2.349 . S
Tb201 O214 2.415 . S
Tb201 O215 2.399 . S
Tb201 O216 2.325 . S
Tb201 O219 2.303 . S
Tb201 C230 2.764 . S
C202 O218 1.261 . S
C202 O219 1.257 . S
C203 C206 1.358 . S
C203 C207 1.332 . S
C203 C209 1.504 . S
C204 C205 1.373 . S
C204 C208 1.308 . S
C205 C204 1.373 . S
C205 C206 1.429 . S
C205 H232 0.932 . S
C206 C203 1.358 . S
C206 C205 1.429 . S
C206 H233 0.930 . S
C207 C203 1.332 . S
C207 C208 1.394 . S
C207 H234 0.932 . S
C208 C204 1.308 . S
C208 C207 1.394 . S
C208 H235 0.929 . S
C209 Tb200 2.764 . S
C209 C203 1.504 . S
C209 O221 1.239 . S
C209 O222 1.263 . S
O210 Tb200 2.325 . S
O210 C220 1.236 . S
O211 Tb201 2.322 . S
O211 C220 1.257 . S
O212 Tb201 2.349 . S
O212 C223 1.261 . S
O213 Tb200 2.303 . S
O213 C223 1.257 . S
O214 Tb201 2.415 . S
O214 C230 1.239 . S
O215 Tb201 2.399 . S
O215 C230 1.263 . S
O216 Tb201 2.325 . S
O216 C231 1.236 . S
O217 Tb200 2.322 . S
O217 C231 1.257 . S
O218 Tb200 2.349 . S
O218 C202 1.261 . S
O219 Tb201 2.303 . S
O219 C202 1.257 . S
C220 O210 1.236 . S
C220 O211 1.257 . S
O221 Tb200 2.415 . S
O221 C209 1.239 . S
O222 Tb200 2.399 . S
O222 C209 1.263 . S
C223 O212 1.261 . S
C223 O213 1.257 . S
C224 C227 1.358 . S
C224 C228 1.332 . S
C224 C230 1.504 . S
C225 C226 1.373 . S
C225 C229 1.308 . S
C226 C225 1.373 . S
C226 C227 1.429 . S
C226 H236 0.932 . S
C227 C224 1.358 . S
C227 C226 1.429 . S
C227 H237 0.930 . S
C228 C224 1.332 . S
C228 C229 1.394 . S
C228 H238 0.932 . S
C229 C225 1.308 . S
C229 C228 1.394 . S
C229 H239 0.929 . S
C230 Tb201 2.764 . S
C230 O214 1.239 . S
C230 O215 1.263 . S
C230 C224 1.504 . S
C231 O216 1.236 . S
C231 O217 1.257 . S
H232 C205 0.932 . S
H233 C206 0.930 . S
H234 C207 0.932 . S
H235 C208 0.929 . S
H236 C226 0.932 . S
H237 C227 0.930 . S
H238 C228 0.932 . S
H239 C229 0.929 . S
Tb240 C249 2.764 . S
Tb240 O250 2.325 . S
Tb240 O253 2.303 . S
Tb240 O257 2.322 . S
Tb240 O258 2.349 . S
Tb240 O261 2.415 . S
Tb240 O262 2.399 . S
Tb241 O251 2.322 . S
Tb241 O252 2.349 . S
Tb241 O254 2.415 . S
Tb241 O255 2.399 . S
Tb241 O256 2.325 . S
Tb241 O259 2.303 . S
Tb241 C270 2.764 . S
C242 O258 1.261 . S
C242 O259 1.257 . S
C243 C246 1.358 . S
C243 C247 1.332 . S
C243 C249 1.504 . S
C244 C245 1.373 . S
C244 C248 1.308 . S
C245 C244 1.373 . S
C245 C246 1.429 . S
C245 H272 0.932 . S
C246 C243 1.358 . S
C246 C245 1.429 . S
C246 H273 0.930 . S
C247 C243 1.332 . S
C247 C248 1.394 . S
C247 H274 0.932 . S
C248 C244 1.308 . S
C248 C247 1.394 . S
C248 H275 0.929 . S
C249 Tb240 2.764 . S
C249 C243 1.504 . S
C249 O261 1.239 . S
C249 O262 1.263 . S
O250 Tb240 2.325 . S
O250 C260 1.236 . S
O251 Tb241 2.322 . S
O251 C260 1.257 . S
O252 Tb241 2.349 . S
O252 C263 1.261 . S
O253 Tb240 2.303 . S
O253 C263 1.257 . S
O254 Tb241 2.415 . S
O254 C270 1.239 . S
O255 Tb241 2.399 . S
O255 C270 1.263 . S
O256 Tb241 2.325 . S
O256 C271 1.236 . S
O257 Tb240 2.322 . S
O257 C271 1.257 . S
O258 Tb240 2.349 . S
O258 C242 1.261 . S
O259 Tb241 2.303 . S
O259 C242 1.257 . S
C260 O250 1.236 . S
C260 O251 1.257 . S
O261 Tb240 2.415 . S
O261 C249 1.239 . S
O262 Tb240 2.399 . S
O262 C249 1.263 . S
C263 O252 1.261 . S
C263 O253 1.257 . S
C264 C267 1.358 . S
C264 C268 1.332 . S
C264 C270 1.504 . S
C265 C266 1.373 . S
C265 C269 1.308 . S
C266 C265 1.373 . S
C266 C267 1.429 . S
C266 H276 0.932 . S
C267 C264 1.358 . S
C267 C266 1.429 . S
C267 H277 0.930 . S
C268 C264 1.332 . S
C268 C269 1.394 . S
C268 H278 0.932 . S
C269 C265 1.308 . S
C269 C268 1.394 . S
C269 H279 0.929 . S
C270 Tb241 2.764 . S
C270 O254 1.239 . S
C270 O255 1.263 . S
C270 C264 1.504 . S
C271 O256 1.236 . S
C271 O257 1.257 . S
H272 C245 0.932 . S
H273 C246 0.930 . S
H274 C247 0.932 . S
H275 C248 0.929 . S
H276 C266 0.932 . S
H277 C267 0.930 . S
H278 C268 0.932 . S
H279 C269 0.929 . S
Tb280 C289 2.764 . S
Tb280 O290 2.325 . S
Tb280 O293 2.303 . S
Tb280 O297 2.322 . S
Tb280 O298 2.349 . S
Tb280 O301 2.415 . S
Tb280 O302 2.399 . S
Tb281 O291 2.322 . S
Tb281 O292 2.349 . S
Tb281 O294 2.415 . S
Tb281 O295 2.399 . S
Tb281 O296 2.325 . S
Tb281 O299 2.303 . S
Tb281 C310 2.764 . S
C282 O298 1.261 . S
C282 O299 1.257 . S
C283 C286 1.358 . S
C283 C287 1.332 . S
C283 C289 1.504 . S
C284 C285 1.373 . S
C284 C288 1.308 . S
C285 C284 1.373 . S
C285 C286 1.429 . S
C285 H312 0.932 . S
C286 C283 1.358 . S
C286 C285 1.429 . S
C286 H313 0.930 . S
C287 C283 1.332 . S
C287 C288 1.394 . S
C287 H314 0.932 . S
C288 C284 1.308 . S
C288 C287 1.394 . S
C288 H315 0.929 . S
C289 Tb280 2.764 . S
C289 C283 1.504 . S
C289 O301 1.239 . S
C289 O302 1.263 . S
O290 Tb280 2.325 . S
O290 C300 1.236 . S
O291 Tb281 2.322 . S
O291 C300 1.257 . S
O292 Tb281 2.349 . S
O292 C303 1.261 . S
O293 Tb280 2.303 . S
O293 C303 1.257 . S
O294 Tb281 2.415 . S
O294 C310 1.239 . S
O295 Tb281 2.399 . S
O295 C310 1.263 . S
O296 Tb281 2.325 . S
O296 C311 1.236 . S
O297 Tb280 2.322 . S
O297 C311 1.257 . S
O298 Tb280 2.349 . S
O298 C282 1.261 . S
O299 Tb281 2.303 . S
O299 C282 1.257 . S
C300 O290 1.236 . S
C300 O291 1.257 . S
O301 Tb280 2.415 . S
O301 C289 1.239 . S
O302 Tb280 2.399 . S
O302 C289 1.263 . S
C303 O292 1.261 . S
C303 O293 1.257 . S
C304 C307 1.358 . S
C304 C308 1.332 . S
C304 C310 1.504 . S
C305 C306 1.373 . S
C305 C309 1.308 . S
C306 C305 1.373 . S
C306 C307 1.429 . S
C306 H316 0.932 . S
C307 C304 1.358 . S
C307 C306 1.429 . S
C307 H317 0.930 . S
C308 C304 1.332 . S
C308 C309 1.394 . S
C308 H318 0.932 . S
C309 C305 1.308 . S
C309 C308 1.394 . S
C309 H319 0.929 . S
C310 Tb281 2.764 . S
C310 O294 1.239 . S
C310 O295 1.263 . S
C310 C304 1.504 . S
C311 O296 1.236 . S
C311 O297 1.257 . S
H312 C285 0.932 . S
H313 C286 0.930 . S
H314 C287 0.932 . S
H315 C288 0.929 . S
H316 C306 0.932 . S
H317 C307 0.930 . S
H318 C308 0.932 . S
H319 C309 0.929 . S
Fe320 O321 1.886 1_455 S
Fe320 O324 1.715 . S
Fe320 O329 2.077 1_455 S
Fe320 O334 1.935 . S
Fe320 O340 2.077 1_455 S
Fe320 O349 1.935 . S
O321 Fe320 1.886 1_655 S
O321 Fe323 1.715 . S
Fe322 O324 1.886 . S
Fe322 O325 1.715 1_545 S
Fe322 O332 1.935 . S
Fe322 O333 2.077 . S
Fe322 O339 1.935 . S
Fe322 O348 2.077 . S
Fe323 O321 1.715 . S
Fe323 O326 1.886 1_545 S
Fe323 O330 1.935 . S
Fe323 O335 2.077 1_545 S
Fe323 O341 1.935 . S
Fe323 O345 2.077 1_545 S
O324 Fe320 1.715 . S
O324 Fe322 1.886 . S
O325 Fe322 1.715 1_565 S
O325 Fe327 1.886 . S
O326 Fe323 1.886 1_565 S
O326 Fe327 1.715 1_655 S
Fe327 O325 1.886 . S
Fe327 O326 1.715 1_455 S
Fe327 O331 2.077 . S
Fe327 O336 1.935 1_455 S
Fe327 O338 2.077 . S
Fe327 O346 1.935 1_455 S
C328 O340 1.381 . S
C328 O341 1.421 . S
O329 Fe320 2.077 1_655 S
O329 C342 1.381 . S
O330 Fe323 1.935 . S
O330 C342 1.421 . S
O331 Fe327 2.077 . S
O331 C347 1.381 . S
O332 Fe322 1.935 . S
O332 C347 1.421 1_545 S
O333 Fe322 2.077 . S
O333 C337 1.381 . S
O334 Fe320 1.935 . S
O334 C337 1.421 . S
O335 Fe323 2.077 1_565 S
O335 C343 1.381 . S
O336 Fe327 1.935 1_655 S
O336 C343 1.421 . S
C337 O333 1.381 . S
C337 O334 1.421 . S
O338 Fe327 2.077 . S
O338 C350 1.381 . S
O339 Fe322 1.935 . S
O339 C350 1.421 1_545 S
O340 Fe320 2.077 1_655 S
O340 C328 1.381 . S
O341 Fe323 1.935 . S
O341 C328 1.421 . S
C342 O329 1.381 . S
C342 O330 1.421 . S
C343 O335 1.381 . S
C343 O336 1.421 . S
C344 O345 1.381 . S
C344 O346 1.421 . S
O345 Fe323 2.077 1_565 S
O345 C344 1.381 . S
O346 Fe327 1.935 1_655 S
O346 C344 1.421 . S
C347 O331 1.381 . S
C347 O332 1.421 1_565 S
O348 Fe322 2.077 . S
O348 C351 1.381 . S
O349 Fe320 1.935 . S
O349 C351 1.421 . S
C350 O338 1.381 . S
C350 O339 1.421 1_565 S
C351 O348 1.381 . S
C351 O349 1.421 . S
Fe352 O353 1.886 1_565 S
Fe352 O356 1.715 . S
Fe352 O361 2.077 . S
Fe352 O366 1.935 . S
Fe352 O372 2.077 . S
Fe352 O381 1.935 . S
O353 Fe352 1.886 1_545 S
O353 Fe355 1.715 . S
Fe354 O356 1.886 1_545 S
Fe354 O357 1.715 . S
Fe354 O364 1.935 . S
Fe354 O365 2.077 1_545 S
Fe354 O371 1.935 . S
Fe354 O380 2.077 1_545 S
Fe355 O353 1.715 . S
Fe355 O358 1.886 . S
Fe355 O362 1.935 . S
Fe355 O367 2.077 . S
Fe355 O373 1.935 . S
Fe355 O377 2.077 . S
O356 Fe352 1.715 . S
O356 Fe354 1.886 1_565 S
O357 Fe354 1.715 . S
O357 Fe359 1.886 . S
O358 Fe355 1.886 . S
O358 Fe359 1.715 . S
Fe359 O357 1.886 . S
Fe359 O358 1.715 . S
Fe359 O363 2.077 . S
Fe359 O368 1.935 . S
Fe359 O370 2.077 . S
Fe359 O378 1.935 . S
C360 O372 1.381 . S
C360 O373 1.421 1_565 S
O361 Fe352 2.077 . S
O361 C374 1.387 . S
O362 Fe355 1.935 . S
O362 C374 1.425 1_545 S
O363 Fe359 2.077 . S
O363 C379 1.381 1_554 S
O364 Fe354 1.935 . S
O364 C379 1.421 1_554 S
O365 Fe354 2.077 1_565 S
O365 C369 1.381 1_554 S
O366 Fe352 1.935 . S
O366 C369 1.421 1_554 S
O367 Fe355 2.077 . S
O367 C375 1.381 1_554 S
O368 Fe359 1.935 . S
O368 C375 1.421 1_554 S
C369 O365 1.381 1_556 S
C369 O366 1.421 1_556 S
O370 Fe359 2.077 . S
O370 C382 1.381 . S
O371 Fe354 1.935 . S
O371 C382 1.421 . S
O372 Fe352 2.077 . S
O372 C360 1.381 . S
O373 Fe355 1.935 . S
O373 C360 1.421 1_545 S
C374 O361 1.387 . S
C374 O362 1.425 1_565 S
C375 O367 1.381 1_556 S
C375 O368 1.421 1_556 S
C376 O377 1.381 . S
C376 O378 1.421 . S
O377 Fe355 2.077 . S
O377 C376 1.381 . S
O378 Fe359 1.935 . S
O378 C376 1.421 . S
C379 O363 1.381 1_556 S
C379 O364 1.421 1_556 S
O380 Fe354 2.077 1_565 S
O380 C383 1.381 . S
O381 Fe352 1.935 . S
O381 C383 1.421 . S
C382 O370 1.381 . S
C382 O371 1.421 . S
C383 O380 1.381 . S
C383 O381 1.421 . S
Fe384 O385 1.886 1_455 S
Fe384 O388 1.719 1_556 S
Fe384 O393 2.098 1_455 S
Fe384 O398 1.961 . S
Fe384 O404 2.055 1_456 S
Fe384 O413 1.910 1_556 S
O385 Fe384 1.886 1_655 S
O385 Fe387 1.715 . S
Fe386 O388 1.884 . S
Fe386 O389 1.715 . S
Fe386 O396 1.935 1_554 S
Fe386 O397 2.077 1_554 S
Fe386 O403 1.935 . S
Fe386 O412 2.077 . S
Fe387 O385 1.715 . S
Fe387 O390 1.887 1_556 S
Fe387 O394 1.935 . S
Fe387 O399 2.077 . S
Fe387 O405 1.935 1_556 S
Fe387 O409 2.077 1_556 S
O388 Fe384 1.719 1_554 S
O388 Fe386 1.884 . S
O389 Fe386 1.715 . S
O389 Fe391 1.886 1_455 S
O390 Fe387 1.887 1_554 S
O390 Fe391 1.714 . S
Fe391 O389 1.886 1_655 S
Fe391 O390 1.714 . S
Fe391 O395 2.077 1_654 S
Fe391 O400 1.935 1_554 S
Fe391 O402 2.077 1_655 S
Fe391 O410 1.935 . S
C392 O404 1.381 . S
C392 O405 1.421 . S
O393 Fe384 2.098 1_655 S
O393 C406 1.381 . S
O394 Fe387 1.935 . S
O394 C406 1.421 . S
O395 Fe391 2.077 1_456 S
O395 C411 1.381 . S
O396 Fe386 1.935 1_556 S
O396 C411 1.421 . S
O397 Fe386 2.077 1_556 S
O397 C401 1.381 . S
O398 Fe384 1.961 . S
O398 C401 1.421 . S
O399 Fe387 2.077 . S
O399 C407 1.381 . S
O400 Fe391 1.935 1_556 S
O400 C407 1.421 . S
C401 O397 1.381 . S
C401 O398 1.421 . S
O402 Fe391 2.077 1_455 S
O402 C414 1.381 . S
O403 Fe386 1.935 . S
O403 C414 1.421 . S
O404 Fe384 2.055 1_654 S
O404 C392 1.381 . S
O405 Fe387 1.935 1_554 S
O405 C392 1.421 . S
C406 O393 1.381 . S
C406 O394 1.421 . S
C407 O399 1.381 . S
C407 O400 1.421 . S
C408 O409 1.381 . S
C408 O410 1.421 . S
O409 Fe387 2.077 1_554 S
O409 C408 1.381 . S
O410 Fe391 1.935 . S
O410 C408 1.421 . S
C411 O395 1.381 . S
C411 O396 1.421 . S
O412 Fe386 2.077 . S
O412 C415 1.381 . S
O413 Fe384 1.910 1_554 S
O413 C415 1.421 . S
C414 O402 1.381 . S
C414 O403 1.421 . S
C415 O412 1.381 . S
C415 O413 1.421 . S
Fe416 O417 1.886 . S
Fe416 O420 1.715 . S
Fe416 O425 2.077 . S
Fe416 O430 1.935 . S
Fe416 O436 2.077 . S
Fe416 O445 1.935 . S
O417 Fe416 1.886 . S
O417 Fe419 1.715 1_556 S
Fe418 O420 1.886 1_554 S
Fe418 O421 1.715 . S
Fe418 O428 1.935 . S
Fe418 O429 2.077 1_554 S
Fe418 O435 1.935 . S
Fe418 O444 2.077 1_554 S
Fe419 O417 1.715 1_554 S
Fe419 O422 1.886 . S
Fe419 O426 1.934 1_554 S
Fe419 O431 2.077 . S
Fe419 O437 1.935 . S
Fe419 O441 2.077 . S
O420 Fe416 1.715 . S
O420 Fe418 1.886 1_556 S
O421 Fe418 1.715 . S
O421 Fe423 1.886 . S
O422 Fe419 1.886 . S
O422 Fe423 1.715 . S
Fe423 O421 1.886 . S
Fe423 O422 1.715 . S
Fe423 O427 2.077 . S
Fe423 O432 1.935 . S
Fe423 O434 2.077 . S
Fe423 O442 1.935 . S
C424 O436 1.381 . S
C424 O437 1.421 1_556 S
O425 Fe416 2.077 . S
O425 C438 1.381 . S
O426 Fe419 1.934 1_556 S
O426 C438 1.423 . S
O427 Fe423 2.077 . S
O427 C443 1.381 . S
O428 Fe418 1.935 . S
O428 C443 1.421 . S
O429 Fe418 2.077 1_556 S
O429 C433 1.381 . S
O430 Fe416 1.935 . S
O430 C433 1.421 . S
O431 Fe419 2.077 . S
O431 C439 1.381 . S
O432 Fe423 1.935 . S
O432 C439 1.421 . S
C433 O429 1.381 . S
C433 O430 1.421 . S
O434 Fe423 2.077 . S
O434 C446 1.381 . S
O435 Fe418 1.935 . S
O435 C446 1.421 . S
O436 Fe416 2.077 . S
O436 C424 1.381 . S
O437 Fe419 1.935 . S
O437 C424 1.421 1_554 S
C438 O425 1.381 . S
C438 O426 1.423 . S
C439 O431 1.381 . S
C439 O432 1.421 . S
C440 O441 1.381 . S
C440 O442 1.421 . S
O441 Fe419 2.077 . S
O441 C440 1.381 . S
O442 Fe423 1.935 . S
O442 C440 1.421 . S
C443 O427 1.381 . S
C443 O428 1.421 . S
O444 Fe418 2.077 1_556 S
O444 C447 1.381 . S
O445 Fe416 1.935 . S
O445 C447 1.421 . S
C446 O434 1.381 . S
C446 O435 1.421 . S
C447 O444 1.381 . S
C447 O445 1.421 . S
Fe448 O449 1.886 . S
Fe448 O452 1.715 . S
Fe448 O457 2.077 . S
Fe448 O462 1.935 . S
Fe448 O468 2.077 1_455 S
Fe448 O477 1.935 1_455 S
O449 Fe448 1.886 . S
O449 Fe451 1.715 . S
Fe450 O452 1.886 . S
Fe450 O453 1.715 . S
Fe450 O460 1.935 . S
Fe450 O461 2.077 . S
Fe450 O467 1.935 1_455 S
Fe450 O476 2.077 1_455 S
Fe451 O449 1.715 . S
Fe451 O454 1.886 . S
Fe451 O458 1.935 . S
Fe451 O463 2.077 . S
Fe451 O469 1.935 1_455 S
Fe451 O473 2.077 . S
O452 Fe448 1.715 . S
O452 Fe450 1.886 . S
O453 Fe450 1.715 . S
O453 Fe455 1.886 . S
O454 Fe451 1.886 . S
O454 Fe455 1.715 . S
Fe455 O453 1.886 . S
Fe455 O454 1.715 . S
Fe455 O459 2.077 . S
Fe455 O464 1.935 . S
Fe455 O466 2.077 . S
Fe455 O474 1.935 . S
C456 O468 1.381 . S
C456 O469 1.421 . S
O457 Fe448 2.077 . S
O457 C470 1.381 . S
O458 Fe451 1.935 . S
O458 C470 1.421 . S
O459 Fe455 2.077 . S
O459 C475 1.381 . S
O460 Fe450 1.935 . S
O460 C475 1.421 . S
O461 Fe450 2.077 . S
O461 C465 1.381 . S
O462 Fe448 1.935 . S
O462 C465 1.421 . S
O463 Fe451 2.077 . S
O463 C471 1.381 . S
O464 Fe455 1.935 . S
O464 C471 1.421 . S
C465 O461 1.381 . S
C465 O462 1.421 . S
O466 Fe455 2.077 . S
O466 C478 1.381 1_455 S
O467 Fe450 1.935 1_655 S
O467 C478 1.421 . S
O468 Fe448 2.077 1_655 S
O468 C456 1.381 . S
O469 Fe451 1.935 1_655 S
O469 C456 1.421 . S
C470 O457 1.381 . S
C470 O458 1.421 . S
C471 O463 1.381 . S
C471 O464 1.421 . S
C472 O473 1.381 1_655 S
C472 O474 1.421 1_655 S
O473 Fe451 2.077 . S
O473 C472 1.381 1_455 S
O474 Fe455 1.935 . S
O474 C472 1.421 1_455 S
C475 O459 1.381 . S
C475 O460 1.421 . S
O476 Fe450 2.077 1_655 S
O476 C479 1.381 . S
O477 Fe448 1.935 1_655 S
O477 C479 1.421 . S
C478 O466 1.381 1_655 S
C478 O467 1.421 . S
C479 O476 1.381 . S
C479 O477 1.421 . S
Fe480 O481 1.886 . S
Fe480 O484 1.715 . S
Fe480 O489 2.077 . S
Fe480 O494 1.935 . S
Fe480 O500 2.077 . S
Fe480 O509 1.935 . S
O481 Fe480 1.886 . S
O481 Fe483 1.715 1_565 S
Fe482 O484 1.886 1_545 S
Fe482 O485 1.715 . S
Fe482 O492 1.935 . S
Fe482 O493 2.077 1_545 S
Fe482 O499 1.935 . S
Fe482 O508 2.077 1_545 S
Fe483 O481 1.715 1_545 S
Fe483 O486 1.886 . S
Fe483 O490 1.935 1_545 S
Fe483 O495 2.077 . S
Fe483 O501 1.935 1_545 S
Fe483 O505 2.077 . S
O484 Fe480 1.715 . S
O484 Fe482 1.886 1_565 S
O485 Fe482 1.715 . S
O485 Fe487 1.886 . S
O486 Fe483 1.886 . S
O486 Fe487 1.715 . S
Fe487 O485 1.886 . S
Fe487 O486 1.715 . S
Fe487 O491 2.077 . S
Fe487 O496 1.935 . S
Fe487 O498 2.077 . S
Fe487 O506 1.935 . S
C488 O500 1.381 . S
C488 O501 1.421 . S
O489 Fe480 2.077 . S
O489 C502 1.381 . S
O490 Fe483 1.935 1_565 S
O490 C502 1.421 . S
O491 Fe487 2.077 . S
O491 C507 1.381 . S
O492 Fe482 1.935 . S
O492 C507 1.421 . S
O493 Fe482 2.077 1_565 S
O493 C497 1.381 . S
O494 Fe480 1.935 . S
O494 C497 1.421 . S
O495 Fe483 2.077 . S
O495 C503 1.381 . S
O496 Fe487 1.935 . S
O496 C503 1.421 . S
C497 O493 1.381 . S
C497 O494 1.421 . S
O498 Fe487 2.077 . S
O498 C510 1.381 . S
O499 Fe482 1.935 . S
O499 C510 1.421 . S
O500 Fe480 2.077 . S
O500 C488 1.381 . S
O501 Fe483 1.935 1_565 S
O501 C488 1.421 . S
C502 O489 1.381 . S
C502 O490 1.421 . S
C503 O495 1.381 . S
C503 O496 1.421 . S
C504 O505 1.381 . S
C504 O506 1.421 . S
O505 Fe483 2.077 . S
O505 C504 1.381 . S
O506 Fe487 1.935 . S
O506 C504 1.421 . S
C507 O491 1.381 . S
C507 O492 1.421 . S
O508 Fe482 2.077 1_565 S
O508 C511 1.381 . S
O509 Fe480 1.935 . S
O509 C511 1.421 . S
C510 O498 1.381 . S
C510 O499 1.421 . S
C511 O508 1.381 . S
C511 O509 1.421 . S
H512 C520 0.950 . S
H513 C525 0.950 . S
H514 C522 0.950 . S
H515 C524 0.950 . S
H516 C526 0.950 . S
H517 C528 0.950 . S
H518 C530 0.950 . S
H519 C531 0.950 . S
C520 H512 0.950 . S
C520 C521 1.386 . S
C520 C522 1.391 . S
C521 C520 1.386 . S
C521 C525 1.393 . S
C522 H514 0.950 . S
C522 C520 1.391 . S
C522 C523 1.400 . S
C523 C522 1.400 . S
C523 C524 1.398 . S
C523 C529 1.491 . S
C524 H515 0.950 . S
C524 C523 1.398 . S
C524 C525 1.391 . S
C525 H513 0.950 . S
C525 C521 1.393 . S
C525 C524 1.391 . S
C526 H516 0.950 . S
C526 C527 1.386 . S
C526 C528 1.391 . S
C527 C526 1.386 . S
C527 C531 1.393 . S
C528 H517 0.950 . S
C528 C526 1.391 . S
C528 C529 1.400 . S
C529 C523 1.491 . S
C529 C528 1.400 . S
C529 C530 1.398 . S
C530 H518 0.950 . S
C530 C529 1.398 . S
C530 C531 1.391 . S
C531 H519 0.950 . S
C531 C527 1.393 . S
C531 C530 1.391 . S
H532 C540 0.950 . S
H533 C545 0.950 . S
H534 C542 0.950 . S
H535 C544 0.950 . S
H536 C546 0.950 . S
H537 C548 0.950 . S
H538 C550 0.950 . S
H539 C551 0.950 . S
C540 H532 0.950 . S
C540 C541 1.386 . S
C540 C542 1.391 . S
C541 C540 1.386 . S
C541 C545 1.393 . S
C542 H534 0.950 . S
C542 C540 1.391 . S
C542 C543 1.400 . S
C543 C542 1.400 . S
C543 C544 1.398 . S
C543 C549 1.491 . S
C544 H535 0.950 . S
C544 C543 1.398 . S
C544 C545 1.391 . S
C545 H533 0.950 . S
C545 C541 1.393 . S
C545 C544 1.391 . S
C546 H536 0.950 . S
C546 C547 1.386 . S
C546 C548 1.391 . S
C547 C546 1.386 . S
C547 C551 1.393 . S
C548 H537 0.950 . S
C548 C546 1.391 . S
C548 C549 1.400 . S
C549 C543 1.491 . S
C549 C548 1.400 . S
C549 C550 1.398 . S
C550 H538 0.950 . S
C550 C549 1.398 . S
C550 C551 1.391 . S
C551 H539 0.950 . S
C551 C547 1.393 . S
C551 C550 1.391 . S
H552 C560 0.950 . S
H553 C565 0.950 . S
H554 C562 0.950 . S
H555 C564 0.950 . S
H556 C566 0.950 . S
H557 C568 0.950 . S
H558 C570 0.950 . S
H559 C571 0.950 . S
C560 H552 0.950 . S
C560 C561 1.386 . S
C560 C562 1.391 . S
C561 C560 1.386 . S
C561 C565 1.393 . S
C562 H554 0.950 . S
C562 C560 1.391 . S
C562 C563 1.400 . S
C563 C562 1.400 . S
C563 C564 1.398 . S
C563 C569 1.491 . S
C564 H555 0.950 . S
C564 C563 1.398 . S
C564 C565 1.391 . S
C565 H553 0.950 . S
C565 C561 1.393 . S
C565 C564 1.391 . S
C566 H556 0.950 . S
C566 C567 1.386 . S
C566 C568 1.391 . S
C567 C566 1.386 . S
C567 C571 1.393 . S
C568 H557 0.950 . S
C568 C566 1.391 . S
C568 C569 1.400 . S
C569 C563 1.491 . S
C569 C568 1.400 . S
C569 C570 1.398 . S
C570 H558 0.950 . S
C570 C569 1.398 . S
C570 C571 1.391 . S
C571 H559 0.950 . S
C571 C567 1.393 . S
C571 C570 1.391 . S
H572 C580 0.950 . S
H573 C585 0.950 . S
H574 C582 0.950 . S
H575 C584 0.950 . S
H576 C586 0.950 . S
H577 C588 0.950 . S
H578 C590 0.950 . S
H579 C591 0.950 1_545 S
C580 H572 0.950 . S
C580 C581 1.386 . S
C580 C582 1.391 . S
C581 C580 1.386 . S
C581 C585 1.393 . S
C582 H574 0.950 . S
C582 C580 1.391 . S
C582 C583 1.400 . S
C583 C582 1.400 . S
C583 C584 1.398 . S
C583 C589 1.491 . S
C584 H575 0.950 . S
C584 C583 1.398 . S
C584 C585 1.391 . S
C585 H573 0.950 . S
C585 C581 1.393 . S
C585 C584 1.391 . S
C586 H576 0.950 . S
C586 C587 1.386 . S
C586 C588 1.391 . S
C587 C586 1.386 . S
C587 C591 1.393 . S
C588 H577 0.950 . S
C588 C586 1.391 . S
C588 C589 1.400 . S
C589 C583 1.491 . S
C589 C588 1.400 . S
C589 C590 1.398 . S
C590 H578 0.950 . S
C590 C589 1.398 . S
C590 C591 1.391 . S
C591 H579 0.950 1_565 S
C591 C587 1.393 . S
C591 C590 1.391 . S
H592 C600 0.950 . S
H593 C605 0.950 . S
H594 C602 0.950 . S
H595 C604 0.950 . S
H596 C606 0.950 . S
H597 C608 0.950 . S
H598 C610 0.950 . S
H599 C611 0.955 . S
C600 H592 0.950 . S
C600 C601 1.386 . S
C600 C602 1.391 . S
C601 C600 1.386 . S
C601 C605 1.393 . S
C602 H594 0.950 . S
C602 C600 1.391 . S
C602 C603 1.400 . S
C603 C602 1.400 . S
C603 C604 1.398 . S
C603 C609 1.491 . S
C604 H595 0.950 . S
C604 C603 1.398 . S
C604 C605 1.391 . S
C605 H593 0.950 . S
C605 C601 1.393 . S
C605 C604 1.391 . S
C606 H596 0.950 . S
C606 C607 1.386 . S
C606 C608 1.391 . S
C607 C606 1.386 . S
C607 C611 1.393 . S
C608 H597 0.950 . S
C608 C606 1.391 . S
C608 C609 1.400 . S
C609 C603 1.491 . S
C609 C608 1.400 . S
C609 C610 1.398 . S
C610 H598 0.950 . S
C610 C609 1.398 . S
C610 C611 1.391 . S
C611 H599 0.955 . S
C611 C607 1.393 . S
C611 C610 1.391 . S
H612 C620 0.950 . S
H613 C625 0.950 . S
H614 C622 0.950 . S
H615 C624 0.950 . S
H616 C626 0.950 . S
H617 C628 0.950 . S
H618 C630 0.950 . S
H619 C631 0.950 . S
C620 H612 0.950 . S
C620 C621 1.386 . S
C620 C622 1.391 . S
C621 C620 1.386 . S
C621 C625 1.393 . S
C622 H614 0.950 . S
C622 C620 1.391 . S
C622 C623 1.400 . S
C623 C622 1.400 . S
C623 C624 1.398 . S
C623 C629 1.491 . S
C624 H615 0.950 . S
C624 C623 1.398 . S
C624 C625 1.391 . S
C625 H613 0.950 . S
C625 C621 1.393 . S
C625 C624 1.391 . S
C626 H616 0.950 . S
C626 C627 1.386 . S
C626 C628 1.391 . S
C627 C626 1.386 . S
C627 C631 1.393 . S
C628 H617 0.950 . S
C628 C626 1.391 . S
C628 C629 1.400 . S
C629 C623 1.491 . S
C629 C628 1.400 . S
C629 C630 1.398 . S
C630 H618 0.950 . S
C630 C629 1.398 . S
C630 C631 1.391 . S
C631 H619 0.950 . S
C631 C627 1.393 . S
C631 C630 1.391 . S
H632 C640 0.950 . S
H633 C645 0.950 . S
H634 C642 0.950 . S
H635 C644 0.950 . S
H636 C646 0.950 . S
H637 C648 0.950 . S
H638 C650 0.950 . S
H639 C651 0.950 1_455 S
C640 H632 0.950 . S
C640 C641 1.386 . S
C640 C642 1.391 . S
C641 C640 1.386 . S
C641 C645 1.393 . S
C642 H634 0.950 . S
C642 C640 1.391 . S
C642 C643 1.400 . S
C643 C642 1.400 . S
C643 C644 1.398 . S
C643 C649 1.491 . S
C644 H635 0.950 . S
C644 C643 1.398 . S
C644 C645 1.391 . S
C645 H633 0.950 . S
C645 C641 1.393 . S
C645 C644 1.391 . S
C646 H636 0.950 . S
C646 C647 1.386 . S
C646 C648 1.391 . S
C647 C646 1.386 . S
C647 C651 1.393 . S
C648 H637 0.950 . S
C648 C646 1.391 . S
C648 C649 1.400 . S
C649 C643 1.491 . S
C649 C648 1.400 . S
C649 C650 1.398 . S
C650 H638 0.950 . S
C650 C649 1.398 . S
C650 C651 1.391 . S
C651 H639 0.950 1_655 S
C651 C647 1.393 . S
C651 C650 1.391 . S
H652 C660 0.950 . S
H653 C665 0.950 . S
H654 C662 0.950 . S
H655 C664 0.950 . S
H656 C666 0.950 . S
H657 C668 0.950 . S
H658 C670 0.950 . S
H659 C671 0.950 . S
C660 H652 0.950 . S
C660 C661 1.386 . S
C660 C662 1.391 . S
C661 C660 1.386 . S
C661 C665 1.393 . S
C662 H654 0.950 . S
C662 C660 1.391 . S
C662 C663 1.400 . S
C663 C662 1.400 . S
C663 C664 1.398 . S
C663 C669 1.491 . S
C664 H655 0.950 . S
C664 C663 1.398 . S
C664 C665 1.391 . S
C665 H653 0.950 . S
C665 C661 1.393 . S
C665 C664 1.391 . S
C666 H656 0.950 . S
C666 C667 1.386 . S
C666 C668 1.391 . S
C667 C666 1.386 . S
C667 C671 1.393 . S
C668 H657 0.950 . S
C668 C666 1.391 . S
C668 C669 1.400 . S
C669 C663 1.491 . S
C669 C668 1.400 . S
C669 C670 1.398 . S
C670 H658 0.950 . S
C670 C669 1.398 . S
C670 C671 1.391 . S
C671 H659 0.950 . S
C671 C667 1.393 . S
C671 C670 1.391 . S
H672 C680 0.950 . S
H673 C685 0.950 . S
H674 C682 0.950 . S
H675 C684 0.950 . S
H676 C686 0.950 . S
H677 C688 0.950 . S
H678 C690 0.950 . S
H679 C691 0.950 . S
C680 H672 0.950 . S
C680 C681 1.386 . S
C680 C682 1.391 . S
C681 C680 1.386 . S
C681 C685 1.393 . S
C682 H674 0.950 . S
C682 C680 1.391 . S
C682 C683 1.400 . S
C683 C682 1.400 . S
C683 C684 1.398 . S
C683 C689 1.491 . S
C684 H675 0.950 . S
C684 C683 1.398 . S
C684 C685 1.391 . S
C685 H673 0.950 . S
C685 C681 1.393 . S
C685 C684 1.391 . S
C686 H676 0.950 . S
C686 C687 1.386 . S
C686 C688 1.391 . S
C687 C686 1.386 . S
C687 C691 1.393 . S
C688 H677 0.950 . S
C688 C686 1.391 . S
C688 C689 1.400 . S
C689 C683 1.491 . S
C689 C688 1.400 . S
C689 C690 1.398 . S
C690 H678 0.950 . S
C690 C689 1.398 . S
C690 C691 1.391 . S
C691 H679 0.950 . S
C691 C687 1.393 . S
C691 C690 1.391 . S
H692 C700 0.950 . S
H693 C705 0.950 . S
H694 C702 0.950 . S
H695 C704 0.950 . S
H696 C706 0.950 . S
H697 C708 0.950 . S
H698 C710 0.950 . S
H699 C711 0.950 . S
C700 H692 0.950 . S
C700 C701 1.386 . S
C700 C702 1.391 . S
C701 C700 1.386 . S
C701 C705 1.393 . S
C702 H694 0.950 . S
C702 C700 1.391 . S
C702 C703 1.400 . S
C703 C702 1.400 . S
C703 C704 1.398 . S
C703 C709 1.491 . S
C704 H695 0.950 . S
C704 C703 1.398 . S
C704 C705 1.391 . S
C705 H693 0.950 . S
C705 C701 1.393 . S
C705 C704 1.391 . S
C706 H696 0.950 . S
C706 C707 1.386 . S
C706 C708 1.391 . S
C707 C706 1.386 . S
C707 C711 1.393 . S
C708 H697 0.950 . S
C708 C706 1.391 . S
C708 C709 1.400 . S
C709 C703 1.491 . S
C709 C708 1.400 . S
C709 C710 1.398 . S
C710 H698 0.950 . S
C710 C709 1.398 . S
C710 C711 1.391 . S
C711 H699 0.950 . S
C711 C707 1.393 . S
C711 C710 1.391 . S
H712 C720 0.950 . S
H713 C725 0.950 . S
H714 C722 0.950 . S
H715 C724 0.950 . S
H716 C726 0.950 . S
H717 C728 0.950 . S
H718 C730 0.950 . S
H719 C731 0.950 . S
C720 H712 0.950 . S
C720 C721 1.386 . S
C720 C722 1.391 . S
C721 C720 1.386 . S
C721 C725 1.393 . S
C722 H714 0.950 . S
C722 C720 1.391 . S
C722 C723 1.400 . S
C723 C722 1.400 . S
C723 C724 1.398 . S
C723 C729 1.491 . S
C724 H715 0.950 . S
C724 C723 1.398 . S
C724 C725 1.391 . S
C725 H713 0.950 . S
C725 C721 1.393 . S
C725 C724 1.391 . S
C726 H716 0.950 . S
C726 C727 1.386 . S
C726 C728 1.391 . S
C727 C726 1.386 . S
C727 C731 1.393 . S
C728 H717 0.950 . S
C728 C726 1.391 . S
C728 C729 1.400 . S
C729 C723 1.491 . S
C729 C728 1.400 . S
C729 C730 1.398 . S
C730 H718 0.950 . S
C730 C729 1.398 . S
C730 C731 1.391 . S
C731 H719 0.950 . S
C731 C727 1.393 . S
C731 C730 1.391 . S
H732 C740 0.950 . S
H733 C745 0.950 . S
H734 C742 0.950 . S
H735 C744 0.950 . S
H736 C746 0.950 . S
H737 C748 0.950 . S
H738 C750 0.950 . S
H739 C751 0.950 . S
C740 H732 0.950 . S
C740 C741 1.386 . S
C740 C742 1.391 . S
C741 C740 1.386 . S
C741 C745 1.393 . S
C742 H734 0.950 . S
C742 C740 1.391 . S
C742 C743 1.400 . S
C743 C742 1.400 . S
C743 C744 1.398 . S
C743 C749 1.491 . S
C744 H735 0.950 . S
C744 C743 1.398 . S
C744 C745 1.391 . S
C745 H733 0.950 . S
C745 C741 1.393 . S
C745 C744 1.391 . S
C746 H736 0.950 . S
C746 C747 1.386 . S
C746 C748 1.391 . S
C747 C746 1.386 . S
C747 C751 1.393 . S
C748 H737 0.950 . S
C748 C746 1.391 . S
C748 C749 1.400 . S
C749 C743 1.491 . S
C749 C748 1.400 . S
C749 C750 1.398 . S
C750 H738 0.950 . S
C750 C749 1.398 . S
C750 C751 1.391 . S
C751 H739 0.950 . S
C751 C747 1.393 . S
C751 C750 1.391 . S
H752 C760 0.950 . S
H753 C765 0.950 . S
H754 C762 0.950 . S
H755 C764 0.950 . S
H756 C766 0.950 . S
H757 C768 0.950 . S
H758 C770 0.950 . S
H759 C771 0.950 . S
C760 H752 0.950 . S
C760 C761 1.386 . S
C760 C762 1.391 . S
C761 C760 1.386 . S
C761 C765 1.393 . S
C762 H754 0.950 . S
C762 C760 1.391 . S
C762 C763 1.400 . S
C763 C762 1.400 . S
C763 C764 1.398 . S
C763 C769 1.491 . S
C764 H755 0.950 . S
C764 C763 1.398 . S
C764 C765 1.391 . S
C765 H753 0.950 . S
C765 C761 1.393 . S
C765 C764 1.391 . S
C766 H756 0.950 . S
C766 C767 1.386 . S
C766 C768 1.391 . S
C767 C766 1.386 . S
C767 C771 1.393 . S
C768 H757 0.950 . S
C768 C766 1.391 . S
C768 C769 1.400 . S
C769 C763 1.491 . S
C769 C768 1.400 . S
C769 C770 1.398 . S
C770 H758 0.950 . S
C770 C769 1.398 . S
C770 C771 1.391 . S
C771 H759 0.950 . S
C771 C767 1.393 . S
C771 C770 1.391 . S
H772 C780 0.950 . S
H773 C785 0.950 . S
H774 C782 0.950 . S
H775 C784 0.950 . S
H776 C786 0.950 . S
H777 C788 0.950 . S
H778 C790 0.950 . S
H779 C791 0.950 . S
C780 H772 0.950 . S
C780 C781 1.386 . S
C780 C782 1.391 . S
C781 C780 1.386 . S
C781 C785 1.393 . S
C782 H774 0.950 . S
C782 C780 1.391 . S
C782 C783 1.400 . S
C783 C782 1.400 . S
C783 C784 1.398 . S
C783 C789 1.491 . S
C784 H775 0.950 . S
C784 C783 1.398 . S
C784 C785 1.391 . S
C785 H773 0.950 . S
C785 C781 1.393 . S
C785 C784 1.391 . S
C786 H776 0.950 . S
C786 C787 1.386 . S
C786 C788 1.391 . S
C787 C786 1.386 . S
C787 C791 1.393 . S
C788 H777 0.950 . S
C788 C786 1.391 . S
C788 C789 1.400 . S
C789 C783 1.491 . S
C789 C788 1.400 . S
C789 C790 1.398 . S
C790 H778 0.950 . S
C790 C789 1.398 . S
C790 C791 1.391 . S
C791 H779 0.950 . S
C791 C787 1.393 . S
C791 C790 1.391 . S
H792 C800 0.950 . S
H793 C805 0.950 . S
H794 C802 0.950 . S
H795 C804 0.950 . S
H796 C806 0.950 . S
H797 C808 0.950 . S
H798 C810 0.950 . S
H799 C811 0.950 . S
C800 H792 0.950 . S
C800 C801 1.386 . S
C800 C802 1.391 . S
C801 C800 1.386 . S
C801 C805 1.393 . S
C802 H794 0.950 . S
C802 C800 1.391 . S
C802 C803 1.400 . S
C803 C802 1.400 . S
C803 C804 1.398 . S
C803 C809 1.491 . S
C804 H795 0.950 . S
C804 C803 1.398 . S
C804 C805 1.391 . S
C805 H793 0.950 . S
C805 C801 1.393 . S
C805 C804 1.391 . S
C806 H796 0.950 . S
C806 C807 1.386 . S
C806 C808 1.391 . S
C807 C806 1.386 . S
C807 C811 1.393 . S
C808 H797 0.950 . S
C808 C806 1.391 . S
C808 C809 1.400 . S
C809 C803 1.491 . S
C809 C808 1.400 . S
C809 C810 1.398 . S
C810 H798 0.950 . S
C810 C809 1.398 . S
C810 C811 1.391 . S
C811 H799 0.950 . S
C811 C807 1.393 . S
C811 C810 1.391 . S
H812 C820 0.950 . S
H813 C825 0.950 . S
H814 C822 0.950 . S
H815 C824 0.950 . S
H816 C826 0.950 . S
H817 C828 0.950 . S
H818 C830 0.950 . S
H819 C831 0.950 . S
C820 H812 0.950 . S
C820 C821 1.386 . S
C820 C822 1.391 . S
C821 C820 1.386 . S
C821 C825 1.393 . S
C822 H814 0.950 . S
C822 C820 1.391 . S
C822 C823 1.400 . S
C823 C822 1.400 . S
C823 C824 1.398 . S
C823 C829 1.491 . S
C824 H815 0.950 . S
C824 C823 1.398 . S
C824 C825 1.391 . S
C825 H813 0.950 . S
C825 C821 1.393 . S
C825 C824 1.391 . S
C826 H816 0.950 . S
C826 C827 1.386 . S
C826 C828 1.391 . S
C827 C826 1.386 . S
C827 C831 1.393 . S
C828 H817 0.950 . S
C828 C826 1.391 . S
C828 C829 1.400 . S
C829 C823 1.491 . S
C829 C828 1.400 . S
C829 C830 1.398 . S
C830 H818 0.950 . S
C830 C829 1.398 . S
C830 C831 1.391 . S
C831 H819 0.950 . S
C831 C827 1.393 . S
C831 C830 1.391 . S
H832 C840 0.950 . S
H833 C845 0.950 . S
H834 C842 0.950 . S
H835 C844 0.950 . S
H836 C846 0.950 . S
H837 C848 0.950 . S
H838 C850 0.950 . S
H839 C851 0.950 . S
C840 H832 0.950 . S
C840 C841 1.386 . S
C840 C842 1.391 . S
C841 C840 1.386 . S
C841 C845 1.393 . S
C842 H834 0.950 . S
C842 C840 1.391 . S
C842 C843 1.400 . S
C843 C842 1.400 . S
C843 C844 1.398 . S
C843 C849 1.491 . S
C844 H835 0.950 . S
C844 C843 1.398 . S
C844 C845 1.391 . S
C845 H833 0.950 . S
C845 C841 1.393 . S
C845 C844 1.391 . S
C846 H836 0.950 . S
C846 C847 1.386 . S
C846 C848 1.391 . S
C847 C846 1.386 . S
C847 C851 1.393 . S
C848 H837 0.950 . S
C848 C846 1.391 . S
C848 C849 1.400 . S
C849 C843 1.491 . S
C849 C848 1.400 . S
C849 C850 1.398 . S
C850 H838 0.950 . S
C850 C849 1.398 . S
C850 C851 1.391 . S
C851 H839 0.950 . S
C851 C847 1.393 . S
C851 C850 1.391 . S
H852 C860 0.950 . S
H853 C865 0.950 . S
H854 C862 0.950 . S
H855 C864 0.950 . S
H856 C866 0.950 . S
H857 C868 0.950 . S
H858 C870 0.950 . S
H859 C871 0.950 . S
C860 H852 0.950 . S
C860 C861 1.386 . S
C860 C862 1.391 . S
C861 C860 1.386 . S
C861 C865 1.393 . S
C862 H854 0.950 . S
C862 C860 1.391 . S
C862 C863 1.400 . S
C863 C862 1.400 . S
C863 C864 1.398 . S
C863 C869 1.491 . S
C864 H855 0.950 . S
C864 C863 1.398 . S
C864 C865 1.391 . S
C865 H853 0.950 . S
C865 C861 1.393 . S
C865 C864 1.391 . S
C866 H856 0.950 . S
C866 C867 1.386 . S
C866 C868 1.391 . S
C867 C866 1.386 . S
C867 C871 1.393 . S
C868 H857 0.950 . S
C868 C866 1.391 . S
C868 C869 1.400 . S
C869 C863 1.491 . S
C869 C868 1.400 . S
C869 C870 1.398 . S
C870 H858 0.950 . S
C870 C869 1.398 . S
C870 C871 1.391 . S
C871 H859 0.950 . S
C871 C867 1.393 . S
C871 C870 1.391 . S
H872 C880 0.950 . S
H873 C885 0.950 . S
H874 C882 0.950 . S
H875 C884 0.950 . S
H876 C886 0.950 . S
H877 C888 0.950 . S
H878 C890 0.950 . S
H879 C891 0.950 . S
C880 H872 0.950 . S
C880 C881 1.386 . S
C880 C882 1.391 . S
C881 C880 1.386 . S
C881 C885 1.393 . S
C882 H874 0.950 . S
C882 C880 1.391 . S
C882 C883 1.400 . S
C883 C882 1.400 . S
C883 C884 1.398 . S
C883 C889 1.491 . S
C884 H875 0.950 . S
C884 C883 1.398 . S
C884 C885 1.391 . S
C885 H873 0.950 . S
C885 C881 1.393 . S
C885 C884 1.391 . S
C886 H876 0.950 . S
C886 C887 1.386 . S
C886 C888 1.391 . S
C887 C886 1.386 . S
C887 C891 1.393 . S
C888 H877 0.950 . S
C888 C886 1.391 . S
C888 C889 1.400 . S
C889 C883 1.491 . S
C889 C888 1.400 . S
C889 C890 1.398 . S
C890 H878 0.950 . S
C890 C889 1.398 . S
C890 C891 1.391 . S
C891 H879 0.950 . S
C891 C887 1.393 . S
C891 C890 1.391 . S
H892 C900 0.950 . S
H893 C905 0.950 . S
H894 C902 0.950 . S
H895 C904 0.950 . S
H896 C906 0.950 . S
H897 C908 0.950 . S
H898 C910 0.950 . S
H899 C911 0.950 . S
C900 H892 0.950 . S
C900 C901 1.386 . S
C900 C902 1.391 . S
C901 C900 1.386 . S
C901 C905 1.393 . S
C902 H894 0.950 . S
C902 C900 1.391 . S
C902 C903 1.400 . S
C903 C902 1.400 . S
C903 C904 1.398 . S
C903 C909 1.491 . S
C904 H895 0.950 . S
C904 C903 1.398 . S
C904 C905 1.391 . S
C905 H893 0.950 . S
C905 C901 1.393 . S
C905 C904 1.391 . S
C906 H896 0.950 . S
C906 C907 1.386 . S
C906 C908 1.391 . S
C907 C906 1.386 . S
C907 C911 1.393 . S
C908 H897 0.950 . S
C908 C906 1.391 . S
C908 C909 1.400 . S
C909 C903 1.491 . S
C909 C908 1.400 . S
C909 C910 1.398 . S
C910 H898 0.950 . S
C910 C909 1.398 . S
C910 C911 1.391 . S
C911 H899 0.950 . S
C911 C907 1.393 . S
C911 C910 1.391 . S
H912 C920 0.950 . S
H913 C925 0.950 . S
H914 C922 0.950 . S
H915 C924 0.950 . S
H916 C926 0.950 . S
H917 C928 0.950 . S
H918 C930 0.950 . S
H919 C931 0.950 1_554 S
C920 H912 0.950 . S
C920 C921 1.386 . S
C920 C922 1.391 . S
C921 C920 1.386 . S
C921 C925 1.393 . S
C922 H914 0.950 . S
C922 C920 1.391 . S
C922 C923 1.400 . S
C923 C922 1.400 . S
C923 C924 1.398 . S
C923 C929 1.491 . S
C924 H915 0.950 . S
C924 C923 1.398 . S
C924 C925 1.391 . S
C925 H913 0.950 . S
C925 C921 1.393 . S
C925 C924 1.391 . S
C926 H916 0.950 . S
C926 C927 1.386 . S
C926 C928 1.391 . S
C927 C926 1.386 . S
C927 C931 1.393 . S
C928 H917 0.950 . S
C928 C926 1.391 . S
C928 C929 1.400 . S
C929 C923 1.491 . S
C929 C928 1.400 . S
C929 C930 1.398 . S
C930 H918 0.950 . S
C930 C929 1.398 . S
C930 C931 1.391 . S
C931 H919 0.950 1_556 S
C931 C927 1.393 . S
C931 C930 1.391 . S
H932 C940 0.950 . S
H933 C945 0.950 . S
H934 C942 0.950 . S
H935 C944 0.950 . S
H936 C946 0.950 . S
H937 C948 0.950 . S
H938 C950 0.950 . S
H939 C951 0.950 . S
C940 H932 0.950 . S
C940 C941 1.386 . S
C940 C942 1.391 . S
C941 C940 1.386 . S
C941 C945 1.393 . S
C942 H934 0.950 . S
C942 C940 1.391 . S
C942 C943 1.400 . S
C943 C942 1.400 . S
C943 C944 1.398 . S
C943 C949 1.491 . S
C944 H935 0.950 . S
C944 C943 1.398 . S
C944 C945 1.391 . S
C945 H933 0.950 . S
C945 C941 1.393 . S
C945 C944 1.391 . S
C946 H936 0.950 . S
C946 C947 1.386 . S
C946 C948 1.391 . S
C947 C946 1.386 . S
C947 C951 1.393 . S
C948 H937 0.950 . S
C948 C946 1.391 . S
C948 C949 1.400 . S
C949 C943 1.491 . S
C949 C948 1.400 . S
C949 C950 1.398 . S
C950 H938 0.950 . S
C950 C949 1.398 . S
C950 C951 1.391 . S
C951 H939 0.950 . S
C951 C947 1.393 . S
C951 C950 1.391 . S
H952 C960 0.950 . S
H953 C965 0.950 . S
H954 C962 0.950 . S
H955 C964 0.950 . S
H956 C966 0.950 . S
H957 C968 0.950 . S
H958 C970 0.950 . S
H959 C971 0.950 . S
C960 H952 0.950 . S
C960 C961 1.386 . S
C960 C962 1.391 . S
C961 C960 1.386 . S
C961 C965 1.393 . S
C962 H954 0.950 . S
C962 C960 1.391 . S
C962 C963 1.400 . S
C963 C962 1.400 . S
C963 C964 1.398 . S
C963 C969 1.491 . S
C964 H955 0.950 . S
C964 C963 1.398 . S
C964 C965 1.391 . S
C965 H953 0.950 . S
C965 C961 1.393 . S
C965 C964 1.391 . S
C966 H956 0.950 . S
C966 C967 1.386 . S
C966 C968 1.391 . S
C967 C966 1.386 . S
C967 C971 1.393 . S
C968 H957 0.950 . S
C968 C966 1.391 . S
C968 C969 1.400 . S
C969 C963 1.491 . S
C969 C968 1.400 . S
C969 C970 1.398 . S
C970 H958 0.950 . S
C970 C969 1.398 . S
C970 C971 1.391 . S
C971 H959 0.950 . S
C971 C967 1.393 . S
C971 C970 1.391 . S
H972 C980 0.950 . S
H973 C985 0.950 . S
H974 C982 0.950 . S
H975 C984 0.950 . S
H976 C986 0.950 . S
H977 C988 0.950 . S
H978 C990 0.950 . S
H979 C991 0.950 . S
C980 H972 0.950 . S
C980 C981 1.386 . S
C980 C982 1.391 . S
C981 C980 1.386 . S
C981 C985 1.393 . S
C982 H974 0.950 . S
C982 C980 1.391 . S
C982 C983 1.400 . S
C983 C982 1.400 . S
C983 C984 1.398 . S
C983 C989 1.491 . S
C984 H975 0.950 . S
C984 C983 1.398 . S
C984 C985 1.391 . S
C985 H973 0.950 . S
C985 C981 1.393 . S
C985 C984 1.391 . S
C986 H976 0.950 . S
C986 C987 1.386 . S
C986 C988 1.391 . S
C987 C986 1.386 . S
C987 C991 1.393 . S
C988 H977 0.950 . S
C988 C986 1.391 . S
C988 C989 1.400 . S
C989 C983 1.491 . S
C989 C988 1.400 . S
C989 C990 1.398 . S
C990 H978 0.950 . S
C990 C989 1.398 . S
C990 C991 1.391 . S
C991 H979 0.950 . S
C991 C987 1.393 . S
C991 C990 1.391 . S
H992 C1000 0.950 . S
H993 C1005 0.950 . S
H994 C1002 0.950 . S
H995 C1004 0.950 . S
H996 C1006 0.950 . S
H997 C1008 0.950 . S
H998 C1010 0.950 . S
H999 C1011 0.950 . S
C1000 H992 0.950 . S
C1000 C1001 1.386 . S
C1000 C1002 1.391 . S
C1001 C1000 1.386 . S
C1001 C1005 1.393 . S
C1002 H994 0.950 . S
C1002 C1000 1.391 . S
C1002 C1003 1.400 . S
C1003 C1002 1.400 . S
C1003 C1004 1.398 . S
C1003 C1009 1.491 . S
C1004 H995 0.950 . S
C1004 C1003 1.398 . S
C1004 C1005 1.391 . S
C1005 H993 0.950 . S
C1005 C1001 1.393 . S
C1005 C1004 1.391 . S
C1006 H996 0.950 . S
C1006 C1007 1.386 . S
C1006 C1008 1.391 . S
C1007 C1006 1.386 . S
C1007 C1011 1.393 . S
C1008 H997 0.950 . S
C1008 C1006 1.391 . S
C1008 C1009 1.400 . S
C1009 C1003 1.491 . S
C1009 C1008 1.400 . S
C1009 C1010 1.398 . S
C1010 H998 0.950 . S
C1010 C1009 1.398 . S
C1010 C1011 1.391 . S
C1011 H999 0.950 . S
C1011 C1007 1.393 . S
C1011 C1010 1.391 . S
H1012 C1020 0.950 . S
H1013 C1025 0.950 . S
H1014 C1022 0.950 . S
H1015 C1024 0.950 . S
H1016 C1026 0.950 . S
H1017 C1028 0.950 . S
H1018 C1030 0.950 . S
H1019 C1031 0.950 . S
C1020 H1012 0.950 . S
C1020 C1021 1.386 . S
C1020 C1022 1.391 . S
C1021 C1020 1.386 . S
C1021 C1025 1.393 . S
C1022 H1014 0.950 . S
C1022 C1020 1.391 . S
C1022 C1023 1.400 . S
C1023 C1022 1.400 . S
C1023 C1024 1.398 . S
C1023 C1029 1.491 . S
C1024 H1015 0.950 . S
C1024 C1023 1.398 . S
C1024 C1025 1.391 . S
C1025 H1013 0.950 . S
C1025 C1021 1.393 . S
C1025 C1024 1.391 . S
C1026 H1016 0.950 . S
C1026 C1027 1.386 . S
C1026 C1028 1.391 . S
C1027 C1026 1.386 . S
C1027 C1031 1.393 . S
C1028 H1017 0.950 . S
C1028 C1026 1.391 . S
C1028 C1029 1.400 . S
C1029 C1023 1.491 . S
C1029 C1028 1.400 . S
C1029 C1030 1.398 . S
C1030 H1018 0.950 . S
C1030 C1029 1.398 . S
C1030 C1031 1.391 . S
C1031 H1019 0.950 . S
C1031 C1027 1.393 . S
C1031 C1030 1.391 . S
H1032 C1040 0.950 . S
H1033 C1045 0.950 . S
H1034 C1042 0.950 . S
H1035 C1044 0.950 . S
H1036 C1046 0.950 . S
H1037 C1048 0.950 . S
H1038 C1050 0.950 . S
H1039 C1051 0.950 . S
C1040 H1032 0.950 . S
C1040 C1041 1.386 . S
C1040 C1042 1.391 . S
C1041 C1040 1.386 . S
C1041 C1045 1.393 . S
C1042 H1034 0.950 . S
C1042 C1040 1.391 . S
C1042 C1043 1.400 . S
C1043 C1042 1.400 . S
C1043 C1044 1.398 . S
C1043 C1049 1.491 . S
C1044 H1035 0.950 . S
C1044 C1043 1.398 . S
C1044 C1045 1.391 . S
C1045 H1033 0.950 . S
C1045 C1041 1.393 . S
C1045 C1044 1.391 . S
C1046 H1036 0.950 . S
C1046 C1047 1.386 . S
C1046 C1048 1.391 . S
C1047 C1046 1.386 . S
C1047 C1051 1.393 . S
C1048 H1037 0.950 . S
C1048 C1046 1.391 . S
C1048 C1049 1.400 . S
C1049 C1043 1.491 . S
C1049 C1048 1.400 . S
C1049 C1050 1.398 . S
C1050 H1038 0.950 . S
C1050 C1049 1.398 . S
C1050 C1051 1.391 . S
C1051 H1039 0.950 . S
C1051 C1047 1.393 . S
C1051 C1050 1.391 . S
H1052 C1060 0.950 . S
H1053 C1065 0.950 . S
H1054 C1062 0.950 . S
H1055 C1064 0.950 . S
H1056 C1066 0.950 . S
H1057 C1068 0.950 . S
H1058 C1070 0.950 . S
H1059 C1071 0.950 . S
C1060 H1052 0.950 . S
C1060 C1061 1.386 . S
C1060 C1062 1.391 . S
C1061 C1060 1.386 . S
C1061 C1065 1.393 . S
C1062 H1054 0.950 . S
C1062 C1060 1.391 . S
C1062 C1063 1.400 . S
C1063 C1062 1.400 . S
C1063 C1064 1.398 . S
C1063 C1069 1.491 . S
C1064 H1055 0.950 . S
C1064 C1063 1.398 . S
C1064 C1065 1.391 . S
C1065 H1053 0.950 . S
C1065 C1061 1.393 . S
C1065 C1064 1.391 . S
C1066 H1056 0.950 . S
C1066 C1067 1.386 . S
C1066 C1068 1.391 . S
C1067 C1066 1.386 . S
C1067 C1071 1.393 . S
C1068 H1057 0.950 . S
C1068 C1066 1.391 . S
C1068 C1069 1.400 . S
C1069 C1063 1.491 . S
C1069 C1068 1.400 . S
C1069 C1070 1.398 . S
C1070 H1058 0.950 . S
C1070 C1069 1.398 . S
C1070 C1071 1.391 . S
C1071 H1059 0.950 . S
C1071 C1067 1.393 . S
C1071 C1070 1.391 . S
H1072 C1080 0.950 . S
H1073 C1085 0.950 . S
H1074 C1082 0.950 . S
H1075 C1084 0.950 . S
H1076 C1086 0.950 . S
H1077 C1088 0.950 . S
H1078 C1090 0.950 . S
H1079 C1091 0.950 . S
C1080 H1072 0.950 . S
C1080 C1081 1.386 . S
C1080 C1082 1.391 . S
C1081 C1080 1.386 . S
C1081 C1085 1.393 . S
C1082 H1074 0.950 . S
C1082 C1080 1.391 . S
C1082 C1083 1.400 . S
C1083 C1082 1.400 . S
C1083 C1084 1.398 . S
C1083 C1089 1.491 . S
C1084 H1075 0.950 . S
C1084 C1083 1.398 . S
C1084 C1085 1.391 . S
C1085 H1073 0.950 . S
C1085 C1081 1.393 . S
C1085 C1084 1.391 . S
C1086 H1076 0.950 . S
C1086 C1087 1.386 . S
C1086 C1088 1.391 . S
C1087 C1086 1.386 . S
C1087 C1091 1.393 . S
C1088 H1077 0.950 . S
C1088 C1086 1.391 . S
C1088 C1089 1.400 . S
C1089 C1083 1.491 . S
C1089 C1088 1.400 . S
C1089 C1090 1.398 . S
C1090 H1078 0.950 . S
C1090 C1089 1.398 . S
C1090 C1091 1.391 . S
C1091 H1079 0.950 . S
C1091 C1087 1.393 . S
C1091 C1090 1.391 . S
H1092 C1100 0.950 . S
H1093 C1105 0.950 . S
H1094 C1102 0.950 . S
H1095 C1104 0.950 . S
H1096 C1106 0.950 . S
H1097 C1108 0.950 . S
H1098 C1110 0.950 . S
H1099 C1111 0.950 . S
C1100 H1092 0.950 . S
C1100 C1101 1.386 . S
C1100 C1102 1.391 . S
C1101 C1100 1.386 . S
C1101 C1105 1.393 . S
C1102 H1094 0.950 . S
C1102 C1100 1.391 . S
C1102 C1103 1.400 . S
C1103 C1102 1.400 . S
C1103 C1104 1.398 . S
C1103 C1109 1.491 . S
C1104 H1095 0.950 . S
C1104 C1103 1.398 . S
C1104 C1105 1.391 . S
C1105 H1093 0.950 . S
C1105 C1101 1.393 . S
C1105 C1104 1.391 . S
C1106 H1096 0.950 . S
C1106 C1107 1.386 . S
C1106 C1108 1.391 . S
C1107 C1106 1.386 . S
C1107 C1111 1.393 . S
C1108 H1097 0.950 . S
C1108 C1106 1.391 . S
C1108 C1109 1.400 . S
C1109 C1103 1.491 . S
C1109 C1108 1.400 . S
C1109 C1110 1.398 . S
C1110 H1098 0.950 . S
C1110 C1109 1.398 . S
C1110 C1111 1.391 . S
C1111 H1099 0.950 . S
C1111 C1107 1.393 . S
C1111 C1110 1.391 . S
H1112 C1120 0.950 . S
H1113 C1125 0.950 . S
H1114 C1122 0.950 . S
H1115 C1124 0.950 . S
H1116 C1126 0.950 . S
H1117 C1128 0.950 . S
H1118 C1130 0.950 . S
H1119 C1131 0.950 . S
C1120 H1112 0.950 . S
C1120 C1121 1.386 . S
C1120 C1122 1.391 . S
C1121 C1120 1.386 . S
C1121 C1125 1.393 . S
C1122 H1114 0.950 . S
C1122 C1120 1.391 . S
C1122 C1123 1.400 . S
C1123 C1122 1.400 . S
C1123 C1124 1.398 . S
C1123 C1129 1.491 . S
C1124 H1115 0.950 . S
C1124 C1123 1.398 . S
C1124 C1125 1.391 . S
C1125 H1113 0.950 . S
C1125 C1121 1.393 . S
C1125 C1124 1.391 . S
C1126 H1116 0.950 . S
C1126 C1127 1.386 . S
C1126 C1128 1.391 . S
C1127 C1126 1.386 . S
C1127 C1131 1.393 . S
C1128 H1117 0.950 . S
C1128 C1126 1.391 . S
C1128 C1129 1.400 . S
C1129 C1123 1.491 . S
C1129 C1128 1.400 . S
C1129 C1130 1.398 . S
C1130 H1118 0.950 . S
C1130 C1129 1.398 . S
C1130 C1131 1.391 . S
C1131 H1119 0.950 . S
C1131 C1127 1.393 . S
C1131 C1130 1.391 . S
H1132 C1140 0.950 . S
H1133 C1145 0.950 . S
H1134 C1142 0.950 . S
H1135 C1144 0.950 . S
H1136 C1146 0.950 . S
H1137 C1148 0.950 . S
H1138 C1150 0.950 . S
H1139 C1151 0.950 . S
C1140 H1132 0.950 . S
C1140 C1141 1.386 . S
C1140 C1142 1.391 . S
C1141 C1140 1.386 . S
C1141 C1145 1.393 . S
C1142 H1134 0.950 . S
C1142 C1140 1.391 . S
C1142 C1143 1.400 . S
C1143 C1142 1.400 . S
C1143 C1144 1.398 . S
C1143 C1149 1.491 . S
C1144 H1135 0.950 . S
C1144 C1143 1.398 . S
C1144 C1145 1.391 . S
C1145 H1133 0.950 . S
C1145 C1141 1.393 . S
C1145 C1144 1.391 . S
C1146 H1136 0.950 . S
C1146 C1147 1.386 . S
C1146 C1148 1.391 . S
C1147 C1146 1.386 . S
C1147 C1151 1.393 . S
C1148 H1137 0.950 . S
C1148 C1146 1.391 . S
C1148 C1149 1.400 . S
C1149 C1143 1.491 . S
C1149 C1148 1.400 . S
C1149 C1150 1.398 . S
C1150 H1138 0.950 . S
C1150 C1149 1.398 . S
C1150 C1151 1.391 . S
C1151 H1139 0.950 . S
C1151 C1147 1.393 . S
C1151 C1150 1.391 . S
H1152 C1160 0.950 . S
H1153 C1165 0.950 . S
H1154 C1162 0.950 . S
H1155 C1164 0.950 . S
H1156 C1166 0.950 . S
H1157 C1168 0.950 . S
H1158 C1170 0.950 . S
H1159 C1171 0.950 . S
C1160 H1152 0.950 . S
C1160 C1161 1.386 . S
C1160 C1162 1.391 . S
C1161 C1160 1.386 . S
C1161 C1165 1.393 . S
C1162 H1154 0.950 . S
C1162 C1160 1.391 . S
C1162 C1163 1.400 . S
C1163 C1162 1.400 . S
C1163 C1164 1.398 . S
C1163 C1169 1.491 . S
C1164 H1155 0.950 . S
C1164 C1163 1.398 . S
C1164 C1165 1.391 . S
C1165 H1153 0.950 . S
C1165 C1161 1.393 . S
C1165 C1164 1.391 . S
C1166 H1156 0.950 . S
C1166 C1167 1.386 . S
C1166 C1168 1.391 . S
C1167 C1166 1.386 . S
C1167 C1171 1.393 . S
C1168 H1157 0.950 . S
C1168 C1166 1.391 . S
C1168 C1169 1.400 . S
C1169 C1163 1.491 . S
C1169 C1168 1.400 . S
C1169 C1170 1.398 . S
C1170 H1158 0.950 . S
C1170 C1169 1.398 . S
C1170 C1171 1.391 . S
C1171 H1159 0.950 . S
C1171 C1167 1.393 . S
C1171 C1170 1.391 . S
H1172 C1180 0.950 . S
H1173 C1185 0.950 . S
H1174 C1182 0.950 . S
H1175 C1184 0.950 . S
H1176 C1186 0.950 . S
H1177 C1188 0.950 . S
H1178 C1190 0.950 . S
H1179 C1191 0.950 . S
C1180 H1172 0.950 . S
C1180 C1181 1.386 . S
C1180 C1182 1.391 . S
C1181 C1180 1.386 . S
C1181 C1185 1.393 . S
C1182 H1174 0.950 . S
C1182 C1180 1.391 . S
C1182 C1183 1.400 . S
C1183 C1182 1.400 . S
C1183 C1184 1.398 . S
C1183 C1189 1.491 . S
C1184 H1175 0.950 . S
C1184 C1183 1.398 . S
C1184 C1185 1.391 . S
C1185 H1173 0.950 . S
C1185 C1181 1.393 . S
C1185 C1184 1.391 . S
C1186 H1176 0.950 . S
C1186 C1187 1.386 . S
C1186 C1188 1.391 . S
C1187 C1186 1.386 . S
C1187 C1191 1.393 . S
C1188 H1177 0.950 . S
C1188 C1186 1.391 . S
C1188 C1189 1.400 . S
C1189 C1183 1.491 . S
C1189 C1188 1.400 . S
C1189 C1190 1.398 . S
C1190 H1178 0.950 . S
C1190 C1189 1.398 . S
C1190 C1191 1.391 . S
C1191 H1179 0.950 . S
C1191 C1187 1.393 . S
C1191 C1190 1.391 . S
H1192 C1200 0.950 . S
H1193 C1205 0.950 . S
H1194 C1202 0.950 . S
H1195 C1204 0.950 . S
H1196 C1206 0.950 . S
H1197 C1208 0.950 . S
H1198 C1210 0.950 . S
H1199 C1211 0.950 . S
C1200 H1192 0.950 . S
C1200 C1201 1.386 . S
C1200 C1202 1.391 . S
C1201 C1200 1.386 . S
C1201 C1205 1.393 . S
C1202 H1194 0.950 . S
C1202 C1200 1.391 . S
C1202 C1203 1.400 . S
C1203 C1202 1.400 . S
C1203 C1204 1.398 . S
C1203 C1209 1.491 . S
C1204 H1195 0.950 . S
C1204 C1203 1.398 . S
C1204 C1205 1.391 . S
C1205 H1193 0.950 . S
C1205 C1201 1.393 . S
C1205 C1204 1.391 . S
C1206 H1196 0.950 . S
C1206 C1207 1.386 . S
C1206 C1208 1.391 . S
C1207 C1206 1.386 . S
C1207 C1211 1.393 . S
C1208 H1197 0.950 . S
C1208 C1206 1.391 . S
C1208 C1209 1.400 . S
C1209 C1203 1.491 . S
C1209 C1208 1.400 . S
C1209 C1210 1.398 . S
C1210 H1198 0.950 . S
C1210 C1209 1.398 . S
C1210 C1211 1.391 . S
C1211 H1199 0.950 . S
C1211 C1207 1.393 . S
C1211 C1210 1.391 . S
H1212 C1220 0.950 . S
H1213 C1225 0.950 . S
H1214 C1222 0.950 . S
H1215 C1224 0.950 . S
H1216 C1226 0.950 . S
H1217 C1228 0.950 . S
H1218 C1230 0.950 . S
H1219 C1231 0.950 . S
C1220 H1212 0.950 . S
C1220 C1221 1.386 . S
C1220 C1222 1.391 . S
C1221 C1220 1.386 . S
C1221 C1225 1.393 . S
C1222 H1214 0.950 . S
C1222 C1220 1.391 . S
C1222 C1223 1.400 . S
C1223 C1222 1.400 . S
C1223 C1224 1.398 . S
C1223 C1229 1.491 . S
C1224 H1215 0.950 . S
C1224 C1223 1.398 . S
C1224 C1225 1.391 . S
C1225 H1213 0.950 . S
C1225 C1221 1.393 . S
C1225 C1224 1.391 . S
C1226 H1216 0.950 . S
C1226 C1227 1.386 . S
C1226 C1228 1.391 . S
C1227 C1226 1.386 . S
C1227 C1231 1.393 . S
C1228 H1217 0.950 . S
C1228 C1226 1.391 . S
C1228 C1229 1.400 . S
C1229 C1223 1.491 . S
C1229 C1228 1.400 . S
C1229 C1230 1.398 . S
C1230 H1218 0.950 . S
C1230 C1229 1.398 . S
C1230 C1231 1.391 . S
C1231 H1219 0.950 . S
C1231 C1227 1.393 . S
C1231 C1230 1.391 . S
H1232 C1240 0.950 . S
H1233 C1245 0.950 . S
H1234 C1242 0.950 . S
H1235 C1244 0.950 . S
H1236 C1246 0.950 . S
H1237 C1248 0.950 . S
H1238 C1250 0.950 . S
H1239 C1251 0.950 . S
C1240 H1232 0.950 . S
C1240 C1241 1.386 . S
C1240 C1242 1.391 . S
C1241 C1240 1.386 . S
C1241 C1245 1.393 . S
C1242 H1234 0.950 . S
C1242 C1240 1.391 . S
C1242 C1243 1.400 . S
C1243 C1242 1.400 . S
C1243 C1244 1.398 . S
C1243 C1249 1.491 . S
C1244 H1235 0.950 . S
C1244 C1243 1.398 . S
C1244 C1245 1.391 . S
C1245 H1233 0.950 . S
C1245 C1241 1.393 . S
C1245 C1244 1.391 . S
C1246 H1236 0.950 . S
C1246 C1247 1.386 . S
C1246 C1248 1.391 . S
C1247 C1246 1.386 . S
C1247 C1251 1.393 . S
C1248 H1237 0.950 . S
C1248 C1246 1.391 . S
C1248 C1249 1.400 . S
C1249 C1243 1.491 . S
C1249 C1248 1.400 . S
C1249 C1250 1.398 . S
C1250 H1238 0.950 . S
C1250 C1249 1.398 . S
C1250 C1251 1.391 . S
C1251 H1239 0.950 . S
C1251 C1247 1.393 . S
C1251 C1250 1.391 . S
H1252 C1260 0.950 . S
H1253 C1265 0.950 . S
H1254 C1262 0.950 . S
H1255 C1264 0.950 . S
H1256 C1266 0.950 . S
H1257 C1268 0.950 . S
H1258 C1270 0.950 . S
H1259 C1271 0.950 . S
C1260 H1252 0.950 . S
C1260 C1261 1.386 . S
C1260 C1262 1.391 . S
C1261 C1260 1.386 . S
C1261 C1265 1.393 . S
C1262 H1254 0.950 . S
C1262 C1260 1.391 . S
C1262 C1263 1.400 . S
C1263 C1262 1.400 . S
C1263 C1264 1.398 . S
C1263 C1269 1.491 . S
C1264 H1255 0.950 . S
C1264 C1263 1.398 . S
C1264 C1265 1.391 . S
C1265 H1253 0.950 . S
C1265 C1261 1.393 . S
C1265 C1264 1.391 . S
C1266 H1256 0.950 . S
C1266 C1267 1.386 . S
C1266 C1268 1.391 . S
C1267 C1266 1.386 . S
C1267 C1271 1.393 . S
C1268 H1257 0.950 . S
C1268 C1266 1.391 . S
C1268 C1269 1.400 . S
C1269 C1263 1.491 . S
C1269 C1268 1.400 . S
C1269 C1270 1.398 . S
C1270 H1258 0.950 . S
C1270 C1269 1.398 . S
C1270 C1271 1.391 . S
C1271 H1259 0.950 . S
C1271 C1267 1.393 . S
C1271 C1270 1.391 . S
H1272 C1280 0.950 . S
H1273 C1285 0.950 . S
H1274 C1282 0.950 . S
H1275 C1284 0.950 . S
H1276 C1286 0.950 . S
H1277 C1288 0.950 . S
H1278 C1290 0.950 . S
H1279 C1291 0.950 . S
C1280 H1272 0.950 . S
C1280 C1281 1.386 . S
C1280 C1282 1.391 . S
C1281 C1280 1.386 . S
C1281 C1285 1.393 . S
C1282 H1274 0.950 . S
C1282 C1280 1.391 . S
C1282 C1283 1.400 . S
C1283 C1282 1.400 . S
C1283 C1284 1.398 . S
C1283 C1289 1.491 . S
C1284 H1275 0.950 . S
C1284 C1283 1.398 . S
C1284 C1285 1.391 . S
C1285 H1273 0.950 . S
C1285 C1281 1.393 . S
C1285 C1284 1.391 . S
C1286 H1276 0.950 . S
C1286 C1287 1.386 . S
C1286 C1288 1.391 . S
C1287 C1286 1.386 . S
C1287 C1291 1.393 . S
C1288 H1277 0.950 . S
C1288 C1286 1.391 . S
C1288 C1289 1.400 . S
C1289 C1283 1.491 . S
C1289 C1288 1.400 . S
C1289 C1290 1.398 . S
C1290 H1278 0.950 . S
C1290 C1289 1.398 . S
C1290 C1291 1.391 . S
C1291 H1279 0.950 . S
C1291 C1287 1.393 . S
C1291 C1290 1.391 . S
H1292 C1300 0.950 . S
H1293 C1305 0.950 . S
H1294 C1302 0.950 . S
H1295 C1304 0.950 . S
H1296 C1306 0.950 . S
H1297 C1308 0.950 . S
H1298 C1310 0.950 . S
H1299 C1311 0.950 . S
C1300 H1292 0.950 . S
C1300 C1301 1.386 . S
C1300 C1302 1.391 . S
C1301 C1300 1.386 . S
C1301 C1305 1.393 . S
C1302 H1294 0.950 . S
C1302 C1300 1.391 . S
C1302 C1303 1.400 . S
C1303 C1302 1.400 . S
C1303 C1304 1.398 . S
C1303 C1309 1.491 . S
C1304 H1295 0.950 . S
C1304 C1303 1.398 . S
C1304 C1305 1.391 . S
C1305 H1293 0.950 . S
C1305 C1301 1.393 . S
C1305 C1304 1.391 . S
C1306 H1296 0.950 . S
C1306 C1307 1.386 . S
C1306 C1308 1.391 . S
C1307 C1306 1.386 . S
C1307 C1311 1.393 . S
C1308 H1297 0.950 . S
C1308 C1306 1.391 . S
C1308 C1309 1.400 . S
C1309 C1303 1.491 . S
C1309 C1308 1.400 . S
C1309 C1310 1.398 . S
C1310 H1298 0.950 . S
C1310 C1309 1.398 . S
C1310 C1311 1.391 . S
C1311 H1299 0.950 . S
C1311 C1307 1.393 . S
C1311 C1310 1.391 . S
H1312 C1320 0.950 . S
H1313 C1325 0.950 . S
H1314 C1322 0.950 . S
H1315 C1324 0.950 . S
H1316 C1326 0.950 . S
H1317 C1328 0.950 . S
H1318 C1330 0.950 . S
H1319 C1331 0.950 . S
C1320 H1312 0.950 . S
C1320 C1321 1.386 . S
C1320 C1322 1.391 . S
C1321 C1320 1.386 . S
C1321 C1325 1.393 . S
C1322 H1314 0.950 . S
C1322 C1320 1.391 . S
C1322 C1323 1.400 . S
C1323 C1322 1.400 . S
C1323 C1324 1.398 . S
C1323 C1329 1.491 . S
C1324 H1315 0.950 . S
C1324 C1323 1.398 . S
C1324 C1325 1.391 . S
C1325 H1313 0.950 . S
C1325 C1321 1.393 . S
C1325 C1324 1.391 . S
C1326 H1316 0.950 . S
C1326 C1327 1.386 . S
C1326 C1328 1.391 . S
C1327 C1326 1.386 . S
C1327 C1331 1.393 . S
C1328 H1317 0.950 . S
C1328 C1326 1.391 . S
C1328 C1329 1.400 . S
C1329 C1323 1.491 . S
C1329 C1328 1.400 . S
C1329 C1330 1.398 . S
C1330 H1318 0.950 . S
C1330 C1329 1.398 . S
C1330 C1331 1.391 . S
C1331 H1319 0.950 . S
C1331 C1327 1.393 . S
C1331 C1330 1.391 . S
H1332 C1340 0.950 . S
H1333 C1345 0.950 . S
H1334 C1342 0.950 . S
H1335 C1344 0.950 . S
H1336 C1346 0.950 . S
H1337 C1348 0.950 . S
H1338 C1350 0.950 . S
H1339 C1351 0.950 . S
C1340 H1332 0.950 . S
C1340 C1341 1.386 . S
C1340 C1342 1.391 . S
C1341 C1340 1.386 . S
C1341 C1345 1.393 . S
C1342 H1334 0.950 . S
C1342 C1340 1.391 . S
C1342 C1343 1.400 . S
C1343 C1342 1.400 . S
C1343 C1344 1.398 . S
C1343 C1349 1.491 . S
C1344 H1335 0.950 . S
C1344 C1343 1.398 . S
C1344 C1345 1.391 . S
C1345 H1333 0.950 . S
C1345 C1341 1.393 . S
C1345 C1344 1.391 . S
C1346 H1336 0.950 . S
C1346 C1347 1.386 . S
C1346 C1348 1.391 . S
C1347 C1346 1.386 . S
C1347 C1351 1.393 . S
C1348 H1337 0.950 . S
C1348 C1346 1.391 . S
C1348 C1349 1.400 . S
C1349 C1343 1.491 . S
C1349 C1348 1.400 . S
C1349 C1350 1.398 . S
C1350 H1338 0.950 . S
C1350 C1349 1.398 . S
C1350 C1351 1.391 . S
C1351 H1339 0.950 . S
C1351 C1347 1.393 . S
C1351 C1350 1.391 . S
H1352 C1360 0.950 . S
H1353 C1365 0.950 . S
H1354 C1362 0.950 . S
H1355 C1364 0.950 . S
H1356 C1366 0.950 . S
H1357 C1368 0.950 . S
H1358 C1370 0.950 . S
H1359 C1371 0.950 . S
C1360 H1352 0.950 . S
C1360 C1361 1.386 . S
C1360 C1362 1.391 . S
C1361 C1360 1.386 . S
C1361 C1365 1.393 . S
C1362 H1354 0.950 . S
C1362 C1360 1.391 . S
C1362 C1363 1.400 . S
C1363 C1362 1.400 . S
C1363 C1364 1.398 . S
C1363 C1369 1.491 . S
C1364 H1355 0.950 . S
C1364 C1363 1.398 . S
C1364 C1365 1.391 . S
C1365 H1353 0.950 . S
C1365 C1361 1.393 . S
C1365 C1364 1.391 . S
C1366 H1356 0.950 . S
C1366 C1367 1.386 . S
C1366 C1368 1.391 . S
C1367 C1366 1.386 . S
C1367 C1371 1.393 . S
C1368 H1357 0.950 . S
C1368 C1366 1.391 . S
C1368 C1369 1.400 . S
C1369 C1363 1.491 . S
C1369 C1368 1.400 . S
C1369 C1370 1.398 . S
C1370 H1358 0.950 . S
C1370 C1369 1.398 . S
C1370 C1371 1.391 . S
C1371 H1359 0.950 . S
C1371 C1367 1.393 . S
C1371 C1370 1.391 . S
H1372 C1380 0.950 . S
H1373 C1385 0.950 . S
H1374 C1382 0.950 . S
H1375 C1384 0.950 . S
H1376 C1386 0.950 . S
H1377 C1388 0.950 . S
H1378 C1390 0.950 . S
H1379 C1391 0.950 . S
C1380 H1372 0.950 . S
C1380 C1381 1.386 . S
C1380 C1382 1.391 . S
C1381 C1380 1.386 . S
C1381 C1385 1.393 . S
C1382 H1374 0.950 . S
C1382 C1380 1.391 . S
C1382 C1383 1.400 . S
C1383 C1382 1.400 . S
C1383 C1384 1.398 . S
C1383 C1389 1.491 . S
C1384 H1375 0.950 . S
C1384 C1383 1.398 . S
C1384 C1385 1.391 . S
C1385 H1373 0.950 . S
C1385 C1381 1.393 . S
C1385 C1384 1.391 . S
C1386 H1376 0.950 . S
C1386 C1387 1.386 . S
C1386 C1388 1.391 . S
C1387 C1386 1.386 . S
C1387 C1391 1.393 . S
C1388 H1377 0.950 . S
C1388 C1386 1.391 . S
C1388 C1389 1.400 . S
C1389 C1383 1.491 . S
C1389 C1388 1.400 . S
C1389 C1390 1.398 . S
C1390 H1378 0.950 . S
C1390 C1389 1.398 . S
C1390 C1391 1.391 . S
C1391 H1379 0.950 . S
C1391 C1387 1.393 . S
C1391 C1390 1.391 . S
H1392 C1400 0.950 . S
H1393 C1405 0.950 . S
H1394 C1402 0.950 . S
H1395 C1404 0.950 . S
H1396 C1406 0.950 . S
H1397 C1408 0.950 . S
H1398 C1410 0.950 . S
H1399 C1411 0.950 . S
C1400 H1392 0.950 . S
C1400 C1401 1.386 . S
C1400 C1402 1.391 . S
C1401 C1400 1.386 . S
C1401 C1405 1.393 . S
C1402 H1394 0.950 . S
C1402 C1400 1.391 . S
C1402 C1403 1.400 . S
C1403 C1402 1.400 . S
C1403 C1404 1.398 . S
C1403 C1409 1.491 . S
C1404 H1395 0.950 . S
C1404 C1403 1.398 . S
C1404 C1405 1.391 . S
C1405 H1393 0.950 . S
C1405 C1401 1.393 . S
C1405 C1404 1.391 . S
C1406 H1396 0.950 . S
C1406 C1407 1.386 . S
C1406 C1408 1.391 . S
C1407 C1406 1.386 . S
C1407 C1411 1.393 . S
C1408 H1397 0.950 . S
C1408 C1406 1.391 . S
C1408 C1409 1.400 . S
C1409 C1403 1.491 . S
C1409 C1408 1.400 . S
C1409 C1410 1.398 . S
C1410 H1398 0.950 . S
C1410 C1409 1.398 . S
C1410 C1411 1.391 . S
C1411 H1399 0.950 . S
C1411 C1407 1.393 . S
C1411 C1410 1.391 . S
H1412 C1420 0.950 . S
H1413 C1425 0.950 . S
H1414 C1422 0.950 . S
H1415 C1424 0.950 . S
H1416 C1426 0.950 . S
H1417 C1428 0.950 . S
H1418 C1430 0.950 . S
H1419 C1431 0.950 . S
C1420 H1412 0.950 . S
C1420 C1421 1.386 . S
C1420 C1422 1.391 . S
C1421 C1420 1.386 . S
C1421 C1425 1.393 . S
C1422 H1414 0.950 . S
C1422 C1420 1.391 . S
C1422 C1423 1.400 . S
C1423 C1422 1.400 . S
C1423 C1424 1.398 . S
C1423 C1429 1.491 . S
C1424 H1415 0.950 . S
C1424 C1423 1.398 . S
C1424 C1425 1.391 . S
C1425 H1413 0.950 . S
C1425 C1421 1.393 . S
C1425 C1424 1.391 . S
C1426 H1416 0.950 . S
C1426 C1427 1.386 . S
C1426 C1428 1.391 . S
C1427 C1426 1.386 . S
C1427 C1431 1.393 . S
C1428 H1417 0.950 . S
C1428 C1426 1.391 . S
C1428 C1429 1.400 . S
C1429 C1423 1.491 . S
C1429 C1428 1.400 . S
C1429 C1430 1.398 . S
C1430 H1418 0.950 . S
C1430 C1429 1.398 . S
C1430 C1431 1.391 . S
C1431 H1419 0.950 . S
C1431 C1427 1.393 . S
C1431 C1430 1.391 . S
H1432 C1440 0.950 . S
H1433 C1445 0.950 . S
H1434 C1442 0.950 . S
H1435 C1444 0.950 . S
H1436 C1446 0.950 . S
H1437 C1448 0.950 . S
H1438 C1450 0.950 . S
H1439 C1451 0.950 . S
C1440 H1432 0.950 . S
C1440 C1441 1.386 . S
C1440 C1442 1.391 . S
C1441 C1440 1.386 . S
C1441 C1445 1.393 . S
C1442 H1434 0.950 . S
C1442 C1440 1.391 . S
C1442 C1443 1.400 . S
C1443 C1442 1.400 . S
C1443 C1444 1.398 . S
C1443 C1449 1.491 . S
C1444 H1435 0.950 . S
C1444 C1443 1.398 . S
C1444 C1445 1.391 . S
C1445 H1433 0.950 . S
C1445 C1441 1.393 . S
C1445 C1444 1.391 . S
C1446 H1436 0.950 . S
C1446 C1447 1.386 . S
C1446 C1448 1.391 . S
C1447 C1446 1.386 . S
C1447 C1451 1.393 . S
C1448 H1437 0.950 . S
C1448 C1446 1.391 . S
C1448 C1449 1.400 . S
C1449 C1443 1.491 . S
C1449 C1448 1.400 . S
C1449 C1450 1.398 . S
C1450 H1438 0.950 . S
C1450 C1449 1.398 . S
C1450 C1451 1.391 . S
C1451 H1439 0.950 . S
C1451 C1447 1.393 . S
C1451 C1450 1.391 . S
H1452 C1460 0.950 . S
H1453 C1465 0.950 . S
H1454 C1462 0.950 . S
H1455 C1464 0.950 . S
H1456 C1466 0.950 . S
H1457 C1468 0.950 . S
H1458 C1470 0.950 . S
H1459 C1471 0.950 . S
C1460 H1452 0.950 . S
C1460 C1461 1.386 . S
C1460 C1462 1.391 . S
C1461 C1460 1.386 . S
C1461 C1465 1.393 . S
C1462 H1454 0.950 . S
C1462 C1460 1.391 . S
C1462 C1463 1.400 . S
C1463 C1462 1.400 . S
C1463 C1464 1.398 . S
C1463 C1469 1.491 . S
C1464 H1455 0.950 . S
C1464 C1463 1.398 . S
C1464 C1465 1.391 . S
C1465 H1453 0.950 . S
C1465 C1461 1.393 . S
C1465 C1464 1.391 . S
C1466 H1456 0.950 . S
C1466 C1467 1.386 . S
C1466 C1468 1.391 . S
C1467 C1466 1.386 . S
C1467 C1471 1.393 . S
C1468 H1457 0.950 . S
C1468 C1466 1.391 . S
C1468 C1469 1.400 . S
C1469 C1463 1.491 . S
C1469 C1468 1.400 . S
C1469 C1470 1.398 . S
C1470 H1458 0.950 . S
C1470 C1469 1.398 . S
C1470 C1471 1.391 . S
C1471 H1459 0.950 . S
C1471 C1467 1.393 . S
C1471 C1470 1.391 . S
C527 C337 1.575 . S
C521 C2 1.573 . S
C547 C342 0.444 . S
C541 C65 0.245 . S
C567 C343 1.582 . S
C561 C82 1.580 . S
C581 C145 0.721 . S
C587 C347 0.695 . S
C601 C164 0.193 . S
C607 C350 0.560 . S
C627 C351 1.558 . S
C621 C223 1.557 . S
C641 C244 0.956 . S
C647 C328 0.926 . S
C661 C282 1.541 . S
C667 C344 1.553 . S
C687 C382 3.114 . S
C681 C31 3.150 . S
C701 C60 1.801 . S
C707 C408 1.780 . S
C727 C360 3.155 . S
C721 C111 3.240 . S
C747 C415 1.684 . S
C741 C140 1.695 . S
C761 C162 1.755 . S
C767 C369 1.759 . S
C787 C411 1.126 . S
C781 C225 1.168 . S
C801 C242 1.860 . S
C807 C375 1.855 . S
C821 C311 2.296 . S
C827 C406 2.275 . S
C841 C4 0.901 . S
C847 C414 0.872 . S
C861 C191 1.092 . S
C867 C401 1.076 . S
C887 C379 2.791 . S
C881 C220 2.809 . S
C907 C407 1.184 . S
C901 C271 1.223 . S
C921 C284 1.476 . S
C927 C374 1.419 1_556 S
C941 C84 0.800 . S
C947 C392 0.827 . S
C967 C383 1.192 . S
C961 C143 1.192 . S
C981 C63 1.273 . S
C987 C376 1.256 . S
C1001 C303 1.529 . S
C1007 C438 1.477 . S
C1021 C185 0.196 . S
C1027 C433 0.398 . S
C1047 C447 1.485 . S
C1041 C202 1.539 . S
C1067 C424 0.885 . S
C1061 C265 0.913 . S
C1081 C44 0.238 . S
C1087 C440 0.423 . S
C1107 C439 1.496 . S
C1101 C103 1.552 . S
C1121 C124 0.700 . S
C1127 C443 0.726 . S
C1141 C23 1.532 . S
C1147 C446 1.482 . S
C1161 C305 1.484 . S
C1167 C472 1.477 . S
C1187 C488 1.113 . S
C1181 C180 1.125 . S
C1201 C231 2.820 . S
C1207 C470 2.810 . S
C1221 C260 1.234 . S
C1227 C503 1.203 . S
C1247 C479 1.239 . S
C1241 C42 1.260 . S
C1261 C105 0.842 . S
C1267 C497 0.838 . S
C1287 C475 1.154 . S
C1281 C122 1.179 . S
C1307 C510 0.873 . S
C1301 C25 0.901 . S
C1327 C502 2.313 . S
C1321 C300 2.332 . S
C1341 C71 1.812 . S
C1347 C507 1.722 . S
C1361 C100 3.252 . S
C1367 C478 3.261 . S
C1387 C511 1.643 . S
C1381 C151 1.701 . S
C1401 C20 3.175 . S
C1407 C465 3.156 . S
C1421 C204 1.164 . S
C1427 C504 1.108 . S
C1447 C456 1.799 . S
C1441 C263 1.852 . S
C1467 C471 1.651 . S
C1461 C183 1.719 . S
