# Generated by pormake.
# Topology pyr, (3,6)-cn, num edge types: 1
# Building blocks:
#     Node 0, Type 0, BuildingBlock: WUSLED_clean_sbu_0, # of connection points: 3
#     Node 1, Type 0, BuildingBlock: WUSLED_clean_sbu_0, # of connection points: 3
#     Node 2, Type 0, BuildingBlock: WUSLED_clean_sbu_0, # of connection points: 3
#     Node 3, Type 0, BuildingBlock: WUSLED_clean_sbu_0, # of connection points: 3
#     Node 4, Type 0, BuildingBlock: WUSLED_clean_sbu_0, # of connection points: 3
#     Node 5, Type 0, BuildingBlock: WUSLED_clean_sbu_0, # of connection points: 3
#     Node 6, Type 0, BuildingBlock: WUSLED_clean_sbu_0, # of connection points: 3
#     Node 7, Type 0, BuildingBlock: WUSLED_clean_sbu_0, # of connection points: 3
#     Node 8, Type 1, BuildingBlock: PAMTOO_clean_sbu_0, # of connection points: 6
#     Node 9, Type 1, BuildingBlock: PAMTOO_clean_sbu_0, # of connection points: 6
#     Node 10, Type 1, BuildingBlock: PAMTOO_clean_sbu_0, # of connection points: 6
#     Node 11, Type 1, BuildingBlock: PAMTOO_clean_sbu_0, # of connection points: 6
#     Edge 12, Type (0, 1), BuildingBlock: TEMPAE_clean_linker_10, # of connection points: 2
#     Edge 13, Type (0, 1), BuildingBlock: TEMPAE_clean_linker_10, # of connection points: 2
#     Edge 14, Type (0, 1), BuildingBlock: TEMPAE_clean_linker_10, # of connection points: 2
#     Edge 15, Type (0, 1), BuildingBlock: TEMPAE_clean_linker_10, # of connection points: 2
#     Edge 16, Type (0, 1), BuildingBlock: TEMPAE_clean_linker_10, # of connection points: 2
#     Edge 17, Type (0, 1), BuildingBlock: TEMPAE_clean_linker_10, # of connection points: 2
#     Edge 18, Type (0, 1), BuildingBlock: TEMPAE_clean_linker_10, # of connection points: 2
#     Edge 19, Type (0, 1), BuildingBlock: TEMPAE_clean_linker_10, # of connection points: 2
#     Edge 20, Type (0, 1), BuildingBlock: TEMPAE_clean_linker_10, # of connection points: 2
#     Edge 21, Type (0, 1), BuildingBlock: TEMPAE_clean_linker_10, # of connection points: 2
#     Edge 22, Type (0, 1), BuildingBlock: TEMPAE_clean_linker_10, # of connection points: 2
#     Edge 23, Type (0, 1), BuildingBlock: TEMPAE_clean_linker_10, # of connection points: 2
#     Edge 24, Type (0, 1), BuildingBlock: TEMPAE_clean_linker_10, # of connection points: 2
#     Edge 25, Type (0, 1), BuildingBlock: TEMPAE_clean_linker_10, # of connection points: 2
#     Edge 26, Type (0, 1), BuildingBlock: TEMPAE_clean_linker_10, # of connection points: 2
#     Edge 27, Type (0, 1), BuildingBlock: TEMPAE_clean_linker_10, # of connection points: 2
#     Edge 28, Type (0, 1), BuildingBlock: TEMPAE_clean_linker_10, # of connection points: 2
#     Edge 29, Type (0, 1), BuildingBlock: TEMPAE_clean_linker_10, # of connection points: 2
#     Edge 30, Type (0, 1), BuildingBlock: TEMPAE_clean_linker_10, # of connection points: 2
#     Edge 31, Type (0, 1), BuildingBlock: TEMPAE_clean_linker_10, # of connection points: 2
#     Edge 32, Type (0, 1), BuildingBlock: TEMPAE_clean_linker_10, # of connection points: 2
#     Edge 33, Type (0, 1), BuildingBlock: TEMPAE_clean_linker_10, # of connection points: 2
#     Edge 34, Type (0, 1), BuildingBlock: TEMPAE_clean_linker_10, # of connection points: 2
#     Edge 35, Type (0, 1), BuildingBlock: TEMPAE_clean_linker_10, # of connection points: 2
# Relax obj value: 0.079
# Max RMSD: 0.154
# Mean RMSD: 0.063
data_MOF--net-pyr--node1-WUSLED_clean_sbu_0--node2-PAMTOO_clean_sbu_0--edge1-TEMPAE_clean_linker_10
_symmetry_space_group_name_H-M    P1
_symmetry_Int_Tables_number       1
_symmetry_cell_setting            triclinic
loop_
_symmetry_equiv_pos_as_xyz
'x, y, z'
_cell_length_a     48.061255
_cell_length_b     50.94011
_cell_length_c     51.835838
_cell_angle_alpha  89.810767
_cell_angle_beta   90.045619
_cell_angle_gamma 102.14438
loop_
_atom_site_label
_atom_site_type_symbol
_atom_site_fract_x
_atom_site_fract_y
_atom_site_fract_z
_atom_type_partial_charge
C0 C 0.30887 0.3125 0.15376 0.0
C1 C 0.29148 0.3188 0.17355 0.0
C2 C 0.26929 0.34477 0.14345 0.0
C3 C 0.27189 0.33483 0.16845 0.0
C4 C 0.28752 0.33926 0.12389 0.0
C5 C 0.30712 0.32311 0.12901 0.0
U6 U 0.32563 0.26109 0.19849 0.0
O7 O 0.32892 0.21922 0.1932 0.0
O8 O 0.36511 0.24826 0.20937 0.0
C9 C 0.35565 0.22378 0.20068 0.0
C10 C 0.32635 0.29262 0.15855 0.0
C11 C 0.37498 0.21296 0.18378 0.0
C12 C 0.38769 0.19887 0.1415 0.0
C13 C 0.37124 0.21216 0.15691 0.0
C14 C 0.41283 0.18844 0.1795 0.0
C15 C 0.40826 0.18647 0.15274 0.0
C16 C 0.39622 0.20152 0.1949 0.0
C17 C 0.28205 0.2512 0.26014 0.0
C18 C 0.27278 0.20959 0.28446 0.0
C19 C 0.25688 0.24855 0.30077 0.0
C20 C 0.26864 0.26334 0.27929 0.0
C21 C 0.2582 0.22134 0.30323 0.0
C22 C 0.28474 0.22447 0.2631 0.0
C23 C 0.29104 0.2659 0.2363 0.0
O24 O 0.34461 0.29828 0.17769 0.0
O25 O 0.31167 0.26776 0.15913 0.0
O26 O 0.28284 0.25238 0.21512 0.0
O27 O 0.31761 0.27923 0.23556 0.0
H28 H 0.29242 0.31058 0.19276 0.0
H29 H 0.25834 0.33897 0.18395 0.0
H30 H 0.28577 0.34644 0.10439 0.0
H31 H 0.32018 0.31816 0.11349 0.0
H32 H 0.38396 0.19782 0.12088 0.0
H33 H 0.35506 0.22108 0.14794 0.0
H34 H 0.42838 0.17884 0.18864 0.0
H35 H 0.39933 0.20195 0.21562 0.0
H36 H 0.27388 0.1886 0.28567 0.0
H37 H 0.24619 0.25824 0.31515 0.0
H38 H 0.26654 0.28401 0.27725 0.0
H39 H 0.29511 0.21484 0.24841 0.0
C40 C 0.16438 0.81164 0.65817 0.0
C41 C 0.16908 0.8368 0.67031 0.0
C42 C 0.13364 0.85029 0.64276 0.0
C43 C 0.15395 0.85602 0.66256 0.0
C44 C 0.12821 0.82471 0.63132 0.0
C45 C 0.14359 0.80553 0.63893 0.0
U46 U 0.21268 0.7891 0.70608 0.0
O47 O 0.21963 0.74928 0.71784 0.0
O48 O 0.25491 0.77991 0.70222 0.0
C49 C 0.24641 0.7551 0.7105 0.0
C50 C 0.18187 0.79228 0.66509 0.0
C51 C 0.25687 0.73466 0.69576 0.0
C52 C 0.27538 0.71997 0.656 0.0
C53 C 0.2601 0.7365 0.66885 0.0
C54 C 0.28251 0.69853 0.6966 0.0
C55 C 0.2876 0.70153 0.66996 0.0
C56 C 0.2673 0.71502 0.70938 0.0
C57 C 0.22997 0.82774 0.76723 0.0
C58 C 0.27206 0.82284 0.791 0.0
C59 C 0.24188 0.85174 0.80726 0.0
C60 C 0.22376 0.84515 0.78614 0.0
C61 C 0.2665 0.84108 0.80954 0.0
C62 C 0.25382 0.81611 0.77003 0.0
C63 C 0.21287 0.82312 0.74372 0.0
O64 O 0.20932 0.80259 0.66623 0.0
O65 O 0.17249 0.77637 0.68467 0.0
O66 O 0.19467 0.79995 0.74261 0.0
O67 O 0.22765 0.82919 0.72243 0.0
H68 H 0.18487 0.84177 0.68543 0.0
H69 H 0.1583 0.87546 0.67188 0.0
H70 H 0.11278 0.81986 0.6159 0.0
H71 H 0.13965 0.78617 0.62948 0.0
H72 H 0.27909 0.72276 0.63547 0.0
H73 H 0.25216 0.75161 0.65801 0.0
H74 H 0.29133 0.68419 0.70773 0.0
H75 H 0.26496 0.71336 0.73016 0.0
H76 H 0.29083 0.8143 0.79244 0.0
H77 H 0.23736 0.86611 0.82117 0.0
H78 H 0.20545 0.8543 0.78415 0.0
H79 H 0.25882 0.80252 0.75554 0.0
C80 C 0.63766 0.40163 0.77986 0.0
C81 C 0.62577 0.42451 0.78223 0.0
C82 C 0.61891 0.42658 0.73534 0.0
C83 C 0.61667 0.43684 0.76036 0.0
C84 C 0.63062 0.40347 0.73314 0.0
C85 C 0.63996 0.39131 0.755 0.0
U86 U 0.66631 0.36697 0.84411 0.0
O87 O 0.6322 0.34437 0.86922 0.0
O88 O 0.65733 0.32266 0.84501 0.0
C89 C 0.63649 0.32088 0.86179 0.0
C90 C 0.64808 0.38899 0.8031 0.0
C91 C 0.63118 0.29808 0.88048 0.0
C92 C 0.59578 0.26368 0.90221 0.0
C93 C 0.60289 0.28731 0.88757 0.0
C94 C 0.64542 0.26129 0.90395 0.0
C95 C 0.61683 0.25003 0.91057 0.0
C96 C 0.65249 0.28492 0.88895 0.0
C97 C 0.73901 0.40157 0.88227 0.0
C98 C 0.76829 0.39787 0.92007 0.0
C99 C 0.78304 0.43439 0.88983 0.0
C100 C 0.75881 0.4247 0.87491 0.0
C101 C 0.78835 0.42111 0.9126 0.0
C102 C 0.74383 0.38818 0.90503 0.0
C103 C 0.71371 0.39269 0.86563 0.0
O104 O 0.66483 0.37169 0.80154 0.0
O105 O 0.64096 0.39416 0.82673 0.0
O106 O 0.68846 0.39586 0.87301 0.0
O107 O 0.71326 0.37427 0.84784 0.0
H108 H 0.62385 0.43318 0.80102 0.0
H109 H 0.60832 0.45478 0.76313 0.0
H110 H 0.63233 0.39444 0.71449 0.0
H111 H 0.64888 0.37366 0.75241 0.0
H112 H 0.5735 0.25569 0.90615 0.0
H113 H 0.58594 0.29672 0.88093 0.0
H114 H 0.66242 0.2518 0.91022 0.0
H115 H 0.67449 0.29258 0.88363 0.0
H116 H 0.77166 0.38694 0.93734 0.0
H117 H 0.79745 0.4526 0.8836 0.0
H118 H 0.75543 0.4355 0.85753 0.0
H119 H 0.72881 0.37028 0.91112 0.0
C120 C 0.80541 0.64237 0.37403 0.0
C121 C 0.80798 0.64538 0.40099 0.0
C122 C 0.75729 0.62475 0.40687 0.0
C123 C 0.78415 0.6368 0.41721 0.0
C124 C 0.75485 0.62263 0.37984 0.0
C125 C 0.77847 0.63127 0.36376 0.0
U126 U 0.87783 0.68121 0.3421 0.0
O127 O 0.91192 0.66291 0.32565 0.0
O128 O 0.88727 0.68388 0.3002 0.0
C129 C 0.90813 0.67093 0.30202 0.0
C130 C 0.83027 0.64778 0.35602 0.0
C131 C 0.91462 0.65471 0.27956 0.0
C132 C 0.90324 0.61833 0.24781 0.0
C133 C 0.89568 0.6321 0.2696 0.0
C134 C 0.94849 0.64959 0.24556 0.0
C135 C 0.9299 0.62682 0.23536 0.0
C136 C 0.94101 0.66311 0.26721 0.0
C137 C 0.90546 0.75118 0.38284 0.0
C138 C 0.94199 0.79118 0.39244 0.0
C139 C 0.89715 0.78347 0.41521 0.0
C140 C 0.88781 0.75959 0.40124 0.0
C141 C 0.92441 0.7998 0.41103 0.0
C142 C 0.93268 0.76717 0.37863 0.0
C143 C 0.89549 0.72587 0.36809 0.0
O144 O 0.83123 0.66679 0.33863 0.0
O145 O 0.85554 0.64645 0.36503 0.0
O146 O 0.90352 0.70343 0.37385 0.0
O147 O 0.87787 0.72431 0.34848 0.0
H148 H 0.82845 0.65374 0.40959 0.0
H149 H 0.78701 0.63877 0.43788 0.0
H150 H 0.73458 0.61404 0.37097 0.0
H151 H 0.77579 0.62858 0.34311 0.0
H152 H 0.88825 0.60085 0.24092 0.0
H153 H 0.87512 0.62511 0.2786 0.0
H154 H 0.96884 0.65749 0.23654 0.0
H155 H 0.95599 0.68059 0.27421 0.0
H156 H 0.96289 0.80318 0.38819 0.0
H157 H 0.88304 0.78892 0.42956 0.0
H158 H 0.86678 0.74756 0.40497 0.0
H159 H 0.9467 0.76122 0.36446 0.0
C160 C 0.73441 0.73288 0.89562 0.0
C161 C 0.74876 0.72252 0.87577 0.0
C162 C 0.77457 0.70168 0.90748 0.0
C163 C 0.76858 0.7069 0.88165 0.0
C164 C 0.75941 0.71138 0.92725 0.0
C165 C 0.7395 0.72689 0.92134 0.0
U166 U 0.71614 0.78332 0.84946 0.0
O167 O 0.67607 0.79614 0.84062 0.0
O168 O 0.71339 0.8253 0.85467 0.0
C169 C 0.68612 0.82064 0.84905 0.0
C170 C 0.71702 0.75259 0.8898 0.0
C171 C 0.66814 0.83146 0.86741 0.0
C172 C 0.66168 0.85098 0.90906 0.0
C173 C 0.67708 0.8374 0.89295 0.0
C174 C 0.62706 0.85111 0.87504 0.0
C175 C 0.63689 0.85837 0.90004 0.0
C176 C 0.64271 0.83787 0.85875 0.0
C177 C 0.75686 0.795 0.78692 0.0
C178 C 0.76186 0.83745 0.76434 0.0
C179 C 0.78328 0.80222 0.74688 0.0
C180 C 0.77251 0.78558 0.76758 0.0
C181 C 0.77865 0.82852 0.74549 0.0
C182 C 0.75094 0.82075 0.7849 0.0
C183 C 0.74923 0.77908 0.81034 0.0
O184 O 0.73174 0.77739 0.88837 0.0
O185 O 0.69845 0.74625 0.87097 0.0
O186 O 0.72275 0.76559 0.8118 0.0
O187 O 0.75835 0.79194 0.83165 0.0
H188 H 0.74543 0.72736 0.85578 0.0
H189 H 0.78017 0.69997 0.86605 0.0
H190 H 0.76343 0.70745 0.94731 0.0
H191 H 0.72881 0.73499 0.93686 0.0
H192 H 0.66948 0.85632 0.92837 0.0
H193 H 0.69647 0.8324 0.9002 0.0
H194 H 0.60805 0.85681 0.86771 0.0
H195 H 0.63549 0.83344 0.83913 0.0
H196 H 0.75782 0.85758 0.76351 0.0
H197 H 0.79635 0.79498 0.73267 0.0
H198 H 0.77731 0.76577 0.76901 0.0
H199 H 0.73881 0.82827 0.79973 0.0
C200 C 0.7823 0.25492 0.29131 0.0
C201 C 0.78887 0.22978 0.28683 0.0
C202 C 0.7581 0.22395 0.24918 0.0
C203 C 0.7768 0.21435 0.26588 0.0
C204 C 0.75283 0.24976 0.25307 0.0
C205 C 0.7648 0.2651 0.27407 0.0
U206 U 0.82594 0.26524 0.3531 0.0
O207 O 0.84319 0.30278 0.37395 0.0
O208 O 0.81166 0.27085 0.39248 0.0
C209 C 0.82505 0.29615 0.39306 0.0
C210 C 0.79111 0.26943 0.31518 0.0
C211 C 0.80628 0.31489 0.39778 0.0
C212 C 0.76294 0.32988 0.38724 0.0
C213 C 0.78255 0.31408 0.38175 0.0
C214 C 0.79131 0.34872 0.42407 0.0
C215 C 0.76688 0.347 0.40868 0.0
C216 C 0.81086 0.33259 0.41871 0.0
C217 C 0.87633 0.21825 0.3688 0.0
C218 C 0.8871 0.20259 0.41119 0.0
C219 C 0.91463 0.19434 0.37405 0.0
C220 C 0.89852 0.20776 0.3583 0.0
C221 C 0.90856 0.19104 0.40051 0.0
C222 C 0.8712 0.21625 0.39548 0.0
C223 C 0.85723 0.22893 0.35139 0.0
O224 O 0.78327 0.25544 0.33625 0.0
O225 O 0.81748 0.28324 0.31595 0.0
O226 O 0.86631 0.25365 0.34299 0.0
O227 O 0.83026 0.22363 0.35816 0.0
H228 H 0.80232 0.22165 0.30013 0.0
H229 H 0.78103 0.19443 0.2635 0.0
H230 H 0.73884 0.25779 0.24026 0.0
H231 H 0.75958 0.2845 0.27736 0.0
H232 H 0.74442 0.32843 0.37496 0.0
H233 H 0.7788 0.30066 0.36537 0.0
H234 H 0.79468 0.36174 0.44077 0.0
H235 H 0.82911 0.33346 0.4312 0.0
H236 H 0.88222 0.20052 0.4316 0.0
H237 H 0.93091 0.18544 0.36533 0.0
H238 H 0.90271 0.20908 0.33774 0.0
H239 H 0.85427 0.2244 0.40401 0.0
C240 C 0.30494 0.64958 0.17925 0.0
C241 C 0.30514 0.65968 0.15397 0.0
C242 C 0.25682 0.63309 0.14653 0.0
C243 C 0.28126 0.65154 0.13777 0.0
C244 C 0.25712 0.62312 0.17187 0.0
C245 C 0.2807 0.63134 0.18793 0.0
U246 U 0.37707 0.68326 0.21762 0.0
O247 O 0.37845 0.67891 0.2601 0.0
O248 O 0.40458 0.65807 0.2355 0.0
C249 C 0.3966 0.66292 0.25895 0.0
C250 C 0.32954 0.65606 0.19715 0.0
C251 C 0.40712 0.6513 0.28265 0.0
C252 C 0.39841 0.63153 0.32578 0.0
C253 C 0.38886 0.64321 0.30373 0.0
C254 C 0.44504 0.63653 0.30662 0.0
C255 C 0.42669 0.6281 0.32764 0.0
C256 C 0.4353 0.64769 0.28433 0.0
C257 C 0.40973 0.7515 0.17913 0.0
C258 C 0.44373 0.78217 0.15219 0.0
C259 C 0.39669 0.79068 0.15884 0.0
C260 C 0.38967 0.7675 0.17446 0.0
C261 C 0.42403 0.79864 0.14773 0.0
C262 C 0.43664 0.75902 0.16753 0.0
C263 C 0.40533 0.72943 0.19867 0.0
O264 O 0.35491 0.65349 0.18949 0.0
O265 O 0.33007 0.67449 0.21493 0.0
O266 O 0.38472 0.72757 0.21572 0.0
O267 O 0.41031 0.706 0.19188 0.0
H268 H 0.32365 0.6737 0.14676 0.0
H269 H 0.28188 0.65985 0.11848 0.0
H270 H 0.23927 0.60844 0.17929 0.0
H271 H 0.28016 0.62299 0.20723 0.0
H272 H 0.38369 0.62546 0.34157 0.0
H273 H 0.367 0.64558 0.30301 0.0
H274 H 0.46687 0.63405 0.30723 0.0
H275 H 0.4499 0.65367 0.26843 0.0
H276 H 0.46518 0.78762 0.14464 0.0
H277 H 0.38069 0.80246 0.15569 0.0
H278 H 0.36882 0.7625 0.18332 0.0
H279 H 0.45279 0.74748 0.17119 0.0
C280 C 0.13807 0.29987 0.67573 0.0
C281 C 0.15547 0.29238 0.65655 0.0
C282 C 0.11947 0.25161 0.64699 0.0
C283 C 0.14628 0.2686 0.64232 0.0
C284 C 0.10223 0.25935 0.66637 0.0
C285 C 0.11137 0.28314 0.68043 0.0
U286 U 0.1675 0.3701 0.71536 0.0
O287 O 0.13383 0.38832 0.73272 0.0
O288 O 0.16068 0.36918 0.75768 0.0
C289 C 0.13937 0.38164 0.75638 0.0
C290 C 0.14726 0.32492 0.69097 0.0
C291 C 0.13347 0.39864 0.77852 0.0
C292 C 0.09743 0.41176 0.80629 0.0
C293 C 0.10494 0.39909 0.78409 0.0
C294 C 0.14703 0.42497 0.81789 0.0
C295 C 0.11822 0.42467 0.82385 0.0
C296 C 0.15454 0.41193 0.79565 0.0
C297 C 0.23685 0.40938 0.67869 0.0
C298 C 0.26915 0.44361 0.65366 0.0
C299 C 0.27619 0.39805 0.65405 0.0
C300 C 0.2524 0.39039 0.67047 0.0
C301 C 0.28521 0.42493 0.64557 0.0
C302 C 0.2454 0.43592 0.66981 0.0
C303 C 0.21377 0.40348 0.69851 0.0
O304 O 0.16632 0.32681 0.70945 0.0
O305 O 0.13974 0.34753 0.68496 0.0
O306 O 0.18786 0.40498 0.69148 0.0
O307 O 0.21421 0.38422 0.71538 0.0
H308 H 0.17611 0.30499 0.65245 0.0
H309 H 0.16011 0.26375 0.62741 0.0
H310 H 0.08174 0.2468 0.67104 0.0
H311 H 0.09758 0.28839 0.6952 0.0
H312 H 0.07511 0.41133 0.80973 0.0
H313 H 0.08813 0.38889 0.77148 0.0
H314 H 0.16374 0.43454 0.83087 0.0
H315 H 0.17672 0.41179 0.79216 0.0
H316 H 0.2754 0.46456 0.64827 0.0
H317 H 0.28755 0.38286 0.6481 0.0
H318 H 0.24651 0.36977 0.67705 0.0
H319 H 0.23417 0.45111 0.67609 0.0
Dy320 Dy 0.0481 0.02985 0.5086 0.0
Dy321 Dy 0.99495 0.0227 0.55005 0.0
C322 C 0.04728 0.07316 0.55422 0.0
O323 O 0.05735 1.00107 0.53827 0.0
O324 O 0.01982 0.99503 0.56703 0.0
O325 O 0.09363 0.03985 0.50381 0.0
O326 O 0.06607 0.02761 0.47084 0.0
O327 O 0.98354 0.98578 0.52475 0.0
O328 O 0.02073 0.99124 0.49571 0.0
O329 O 0.99222 0.05725 0.52428 0.0
O330 O 0.01582 0.04776 0.48829 0.0
O331 O 0.94962 1.01859 0.55427 0.0
O332 O 0.97708 0.02387 0.58799 0.0
C333 C 0.04386 0.9899 0.55883 0.0
O334 O 0.05393 0.06919 0.5301 0.0
O335 O 0.02907 0.05489 0.56702 0.0
C336 C 0.10984 0.05661 0.463 0.0
C337 C 0.14319 0.09471 0.4306 0.0
C338 C 0.12596 0.10287 0.44959 0.0
C339 C 0.10923 0.08386 0.46568 0.0
C340 C 0.1272 0.04848 0.44434 0.0
C341 C 0.1438 0.06739 0.42823 0.0
C342 C 0.09207 0.03613 0.47891 0.0
C343 C 0.99651 0.97757 0.50483 0.0
C344 C 0.99844 0.06059 0.49974 0.0
C345 C 0.93116 0.99787 0.59286 0.0
C346 C 0.8942 0.95789 0.62076 0.0
C347 C 0.91429 0.95096 0.60378 0.0
C348 C 0.93271 0.97087 0.58991 0.0
C349 C 0.91103 1.00484 0.60948 0.0
C350 C 0.89266 0.98501 0.62337 0.0
C351 C 0.951 1.01908 0.57942 0.0
H352 H 0.125 0.12383 0.45161 0.0
H353 H 0.0957 0.09033 0.47999 0.0
H354 H 0.12778 0.02745 0.44212 0.0
H355 H 0.15717 0.06065 0.41395 0.0
H356 H 0.91576 0.9302 0.60126 0.0
H357 H 0.94829 0.96527 0.57709 0.0
H358 H 0.9098 0.02568 0.612 0.0
H359 H 0.87773 0.99097 0.63663 0.0
Dy360 Dy 0.49678 1.01919 1.00683 0.0
Dy361 Dy 0.55047 0.02662 0.04748 0.0
C362 C 0.49848 0.97521 0.05224 0.0
O363 O 0.49458 0.05455 0.03107 0.0
O364 O 0.51695 0.04353 0.06726 0.0
O365 O 0.45173 1.01473 1.00006 0.0
O366 O 0.48144 0.01977 0.96789 0.0
O367 O 0.5563 0.06606 0.02628 0.0
O368 O 0.53142 0.05096 0.98971 0.0
O369 O 0.56236 1.00284 1.0149 0.0
O370 O 0.51934 0.98765 0.9946 0.0
O371 O 0.59577 0.0366 0.05364 0.0
O372 O 0.56712 0.02376 0.08577 0.0
C373 C 0.50042 0.05732 0.05567 0.0
O374 O 0.48274 0.98689 0.03692 0.0
O375 O 0.52567 0.9853 0.05585 0.0
C376 C 0.43604 0.99362 0.96043 0.0
C377 C 0.40054 0.95415 0.93084 0.0
C378 C 0.40654 0.94887 0.95667 0.0
C379 C 0.42431 0.96847 0.97138 0.0
C380 C 0.43043 0.99872 0.93464 0.0
C381 C 0.41298 0.97915 0.91991 0.0
C382 C 0.45484 1.01472 0.97502 0.0
C383 C 0.54939 0.06969 1.00216 0.0
C384 C 0.54606 0.98701 0.99859 0.0
C385 C 0.61047 0.05319 0.09461 0.0
C386 C 0.64381 0.09194 0.12625 0.0
C387 C 0.62299 0.09895 0.11008 0.0
C388 C 0.60634 0.07962 0.09433 0.0
C389 C 0.63125 0.04618 0.11053 0.0
C390 C 0.64785 0.06542 0.12625 0.0
C391 C 0.59339 0.03257 0.07846 0.0
H392 H 0.39715 0.92983 0.96561 0.0
H393 H 0.42874 0.96403 0.99123 0.0
H394 H 0.43967 1.0179 0.92582 0.0
H395 H 0.4093 0.98359 0.8999 0.0
H396 H 0.61931 0.11921 0.10992 0.0
H397 H 0.59025 0.08521 0.08206 0.0
H398 H 0.63465 0.02581 0.11079 0.0
H399 H 0.66401 0.0596 0.13827 0.0
Dy400 Dy 0.525 0.49884 0.51537 0.0
Dy401 Dy 0.5235 0.55386 0.54488 0.0
C402 C 0.54827 0.50822 0.57313 0.0
O403 O 0.47927 0.49219 0.52854 0.0
O404 O 0.48589 0.52417 0.56026 0.0
O405 O 0.52893 0.45743 0.51588 0.0
O406 O 0.52522 0.4772 0.47954 0.0
O407 O 0.49319 0.55286 0.5116 0.0
O408 O 0.51439 0.52724 0.48534 0.0
O409 O 0.56022 0.56436 0.51725 0.0
O410 O 0.57024 0.52263 0.5145 0.0
O411 O 0.5234 0.59624 0.54417 0.0
O412 O 0.52235 0.57524 0.58058 0.0
C413 C 0.47033 0.50272 0.54938 0.0
O414 O 0.53264 0.49133 0.55717 0.0
O415 O 0.55328 0.53416 0.56822 0.0
C416 C 0.55697 0.4481 0.48146 0.0
C417 C 0.60612 0.4325 0.46317 0.0
C418 C 0.6079 0.45051 0.48386 0.0
C419 C 0.58354 0.45835 0.49285 0.0
C420 C 0.55515 0.43046 0.46058 0.0
C421 C 0.57957 0.42274 0.45144 0.0
C422 C 0.53136 0.45634 0.49092 0.0
C423 C 0.49816 0.54478 0.48833 0.0
C424 C 0.57751 0.5487 0.51068 0.0
C425 C 0.49383 0.60764 0.57716 0.0
C426 C 0.44442 0.62503 0.5926 0.0
C427 C 0.45477 0.62966 0.5673 0.0
C428 C 0.47921 0.62103 0.55963 0.0
C429 C 0.48373 0.6035 0.6026 0.0
C430 C 0.45922 0.612 0.6102 0.0
C431 C 0.51876 0.59699 0.56891 0.0
H432 H 0.62815 0.45857 0.49302 0.0
H433 H 0.58545 0.47232 0.50879 0.0
H434 H 0.53483 0.42258 0.45145 0.0
H435 H 0.57761 0.40867 0.43557 0.0
H436 H 0.4437 0.63958 0.55333 0.0
H437 H 0.48642 0.62457 0.53988 0.0
H438 H 0.49462 0.59344 0.6166 0.0
H439 H 0.45199 0.60859 0.62996 0.0
Dy440 Dy 0.02147 0.55384 1.01282 0.0
Dy441 Dy 0.02539 0.49918 0.04413 0.0
C442 C 0.99789 0.54506 0.07153 0.0
O443 O 0.06676 0.56286 0.02692 0.0
O444 O 0.06472 0.52835 0.05612 0.0
O445 O 0.0194 0.59576 1.01063 0.0
O446 O 0.01852 0.57259 0.97575 0.0
O447 O 0.05407 0.4989 1.00974 0.0
O448 O 0.03335 0.52531 0.98354 0.0
O449 O 0.98694 0.48785 1.01864 0.0
O450 O 0.97686 0.52937 1.01262 0.0
O451 O 0.02434 0.45659 0.04475 0.0
O452 O 0.02962 0.47927 0.08032 0.0
C453 C 0.07796 0.55116 0.04584 0.0
O454 O 1.00921 0.56213 0.05341 0.0
O455 O 0.99747 0.51919 0.06929 0.0
C456 C 0.98958 0.60448 0.97648 0.0
C457 C 0.94077 0.62074 0.95749 0.0
C458 C 0.94479 0.61808 0.98419 0.0
C459 C 0.96886 0.60992 0.9936 0.0
C460 C 0.98572 0.60725 0.94986 0.0
C461 C 0.96153 0.61521 0.94043 0.0
C462 C 1.01468 0.59488 0.98587 0.0
C463 C 0.04931 0.50747 0.98652 0.0
C464 C 0.96958 0.50309 1.01091 0.0
C465 C 0.05569 0.44542 0.07626 0.0
C466 C 0.10436 0.42669 0.09141 0.0
C467 C 0.10145 0.435 0.06585 0.0
C468 C 0.07741 0.44447 0.05836 0.0
C469 C 0.05851 0.43703 0.10173 0.0
C470 C 0.08268 0.42781 0.10929 0.0
C471 C 0.03092 0.45668 0.06918 0.0
H472 H 0.92947 0.62262 0.99789 0.0
H473 H 0.97114 0.60783 1.01425 0.0
H474 H 1.00131 0.60295 0.9363 0.0
H475 H 0.95894 0.61674 0.91976 0.0
H476 H 0.11801 0.43459 0.05178 0.0
H477 H 0.076 0.45129 0.03868 0.0
H478 H 0.04211 0.43786 0.11585 0.0
H479 H 0.08432 0.42133 0.12905 0.0
C480 C 0.21509 0.20743 0.33079 0.0
C481 C 0.24266 0.20475 0.32423 0.0
C482 C 0.19915 0.19061 0.34924 0.0
C483 C 0.21104 0.17054 0.36121 0.0
C484 C 0.23904 0.16804 0.3551 0.0
C485 C 0.25458 0.18527 0.33668 0.0
C486 C 0.16928 0.19374 0.35528 0.0
C487 C 0.25227 0.14673 0.36751 0.0
C488 C 0.17683 0.13838 0.42248 0.0
C489 C 0.16023 0.11445 0.41293 0.0
C490 C 0.19362 0.15689 0.40583 0.0
C491 C 0.19358 0.15125 0.37913 0.0
C492 C 0.17665 0.12722 0.36938 0.0
C493 C 0.16017 0.10907 0.38645 0.0
C494 C 0.21152 0.18235 0.41678 0.0
C495 C 0.17595 0.12068 0.34095 0.0
H496 H 0.20556 0.22212 0.32088 0.0
H497 H 0.276 0.18334 0.33184 0.0
H498 H 0.15377 0.17546 0.34922 0.0
H499 H 0.16669 0.19597 0.37637 0.0
H500 H 0.16386 0.21139 0.34538 0.0
H501 H 0.27473 0.14827 0.36147 0.0
H502 H 0.25155 0.14834 0.38882 0.0
H503 H 0.23991 0.12652 0.36225 0.0
H504 H 0.17704 0.14237 0.44302 0.0
H505 H 0.147 0.0907 0.37905 0.0
H506 H 0.20565 0.2001 0.40754 0.0
H507 H 0.23431 0.18328 0.41245 0.0
H508 H 0.20896 0.18377 0.43799 0.0
H509 H 0.16876 0.13665 0.32978 0.0
H510 H 0.16154 0.10113 0.33656 0.0
H511 H 0.19766 0.12 0.33414 0.0
C512 C 0.27888 0.85336 0.8553 0.0
C513 C 0.28761 0.85104 0.8298 0.0
C514 C 0.29809 0.86639 0.87383 0.0
C515 C 0.32643 0.87767 0.86643 0.0
C516 C 0.33576 0.87394 0.8411 0.0
C517 C 0.31619 0.86054 0.82305 0.0
C518 C 0.28759 0.86962 0.90082 0.0
C519 C 0.36575 0.88594 0.83245 0.0
C520 C 0.3613 0.94243 0.89884 0.0
C521 C 0.38094 0.93406 0.91525 0.0
C522 C 0.34344 0.92418 0.88294 0.0
C523 C 0.3449 0.89674 0.88382 0.0
C524 C 0.36416 0.88794 0.90077 0.0
C525 C 0.38212 0.90679 0.91627 0.0
C526 C 0.32326 0.93436 0.86496 0.0
C527 C 0.36606 0.85878 0.90224 0.0
H528 H 0.25682 0.8457 0.86052 0.0
H529 H 0.32289 0.85894 0.80325 0.0
H530 H 0.30295 0.8651 0.91529 0.0
H531 H 0.28572 0.89075 0.90375 0.0
H532 H 0.26645 0.85637 0.90447 0.0
H533 H 0.37062 0.87826 0.8133 0.0
H534 H 0.36858 0.9081 0.83112 0.0
H535 H 0.38144 0.8816 0.84667 0.0
H536 H 0.35989 0.96339 0.89839 0.0
H537 H 0.39745 0.90028 0.92879 0.0
H538 H 0.301 0.92413 0.86919 0.0
H539 H 0.32778 0.92968 0.84469 0.0
H540 H 0.32495 0.95638 0.8666 0.0
H541 H 0.34476 0.84609 0.90631 0.0
H542 H 0.38113 0.85504 0.9174 0.0
H543 H 0.37314 0.85226 0.8834 0.0
C544 C 0.58574 0.45242 0.71287 0.0
C545 C 0.6092 0.43987 0.71178 0.0
C546 C 0.57636 0.46467 0.69093 0.0
C547 C 0.59044 0.46435 0.66692 0.0
C548 C 0.61418 0.4519 0.66566 0.0
C549 C 0.62328 0.44003 0.68794 0.0
C550 C 0.55099 0.47763 0.69336 0.0
C551 C 0.62991 0.4509 0.64062 0.0
C552 C 0.54945 0.47042 0.60441 0.0
C553 C 0.55936 0.49744 0.59722 0.0
C554 C 0.55916 0.45962 0.62697 0.0
C555 C 0.57966 0.47598 0.64295 0.0
C556 C 0.58981 0.50328 0.63584 0.0
C557 C 0.57948 0.51369 0.61323 0.0
C558 C 0.54736 0.43055 0.63372 0.0
C559 C 0.61171 0.52151 0.65212 0.0
H560 H 0.57421 0.45226 0.73083 0.0
H561 H 0.64174 0.43104 0.68663 0.0
H562 H 0.55659 0.49875 0.68656 0.0
H563 H 0.53342 0.46696 0.68094 0.0
H564 H 0.54312 0.47737 0.71352 0.0
H565 H 0.6483 0.44102 0.64283 0.0
H566 H 0.61523 0.43977 0.62596 0.0
H567 H 0.63774 0.47154 0.63308 0.0
H568 H 0.53378 0.45757 0.59245 0.0
H569 H 0.58736 0.53454 0.60801 0.0
H570 H 0.53734 0.4291 0.65309 0.0
H571 H 0.56488 0.41945 0.63458 0.0
H572 H 0.53129 0.42052 0.61954 0.0
H573 H 0.60343 0.52258 0.67198 0.0
H574 H 0.61757 0.54217 0.64407 0.0
H575 H 0.63121 0.51319 0.65363 0.0
C576 C 0.96726 0.61151 0.20748 0.0
C577 C 0.93854 0.61258 0.21183 0.0
C578 C 0.97611 0.59979 0.18503 0.0
C579 C 0.9559 0.58831 0.16608 0.0
C580 C 0.92681 0.58867 0.17054 0.0
C581 C 0.91854 0.60074 0.19312 0.0
C582 C 1.00732 0.6 0.18147 0.0
C583 C 0.90434 0.57666 0.15115 0.0
C584 C 0.98345 0.58266 0.0969 0.0
C585 C 0.98585 0.55562 0.09538 0.0
C586 C 0.97335 0.59328 0.11941 0.0
C587 C 0.96542 0.57672 0.14141 0.0
C588 C 0.96754 0.54934 0.13994 0.0
C589 C 0.97757 0.53918 0.1171 0.0
C590 C 0.97153 0.62249 0.11974 0.0
C591 C 0.95959 0.53079 0.16271 0.0
H592 H 0.98311 0.61982 0.22176 0.0
H593 H 0.89636 0.60145 0.19574 0.0
H594 H 1.01045 0.57919 0.17897 0.0
H595 H 1.01527 0.61133 0.16371 0.0
H596 H 0.02041 0.60926 0.19805 0.0
H597 H 0.88254 0.57734 0.1578 0.0
H598 H 0.9084 0.58772 0.13259 0.0
H599 H 0.90533 0.55546 0.14731 0.0
H600 H 0.98965 0.59575 0.08044 0.0
H601 H 0.97934 0.51833 0.11644 0.0
H602 H 0.98583 0.63322 0.13488 0.0
H603 H 0.94956 0.62438 0.12462 0.0
H604 H 0.97754 0.63259 0.10092 0.0
H605 H 0.97355 0.53822 0.17934 0.0
H606 H 0.96152 0.5099 0.1584 0.0
H607 H 0.93739 0.53057 0.16871 0.0
C608 C 0.40792 0.15038 0.12038 0.0
C609 C 0.42337 0.16974 0.13699 0.0
C610 C 0.42135 0.13274 0.10689 0.0
C611 C 0.45099 0.13476 0.10992 0.0
C612 C 0.46687 0.15479 0.12609 0.0
C613 C 0.4528 0.17194 0.13965 0.0
C614 C 0.40368 0.11147 0.08999 0.0
C615 C 0.49863 0.15789 0.12926 0.0
C616 C 0.48026 0.07275 0.09569 0.0
C617 C 0.48911 0.07751 0.0701 0.0
C618 C 0.46786 0.09133 0.10897 0.0
C619 C 0.46519 0.11549 0.09653 0.0
C620 C 0.47512 0.12077 0.07097 0.0
C621 C 0.48658 0.10148 0.0579 0.0
C622 C 0.45689 0.08479 0.13602 0.0
C623 C 0.4734 0.14664 0.05736 0.0
H624 H 0.3851 0.14842 0.11859 0.0
H625 H 0.46476 0.18705 0.15238 0.0
H626 H 0.41204 0.1133 0.06999 0.0
H627 H 0.40509 0.09125 0.09718 0.0
H628 H 0.38092 0.11285 0.08949 0.0
H629 H 0.50808 0.17545 0.1414 0.0
H630 H 0.50335 0.13955 0.13829 0.0
H631 H 0.50918 0.16025 0.11011 0.0
H632 H 0.48214 0.05411 0.10499 0.0
H633 H 0.49381 0.10523 0.03815 0.0
H634 H 0.43368 0.08414 0.13665 0.0
H635 H 0.46727 0.10072 0.14952 0.0
H636 H 0.46073 0.0652 0.14295 0.0
H637 H 0.45079 0.14781 0.05466 0.0
H638 H 0.48392 0.14842 0.03817 0.0
H639 H 0.48353 0.16409 0.06929 0.0
C640 C 0.0899 0.86589 0.62882 0.0
C641 C 0.11934 0.87144 0.63312 0.0
C642 C 0.0765 0.88552 0.61846 0.0
C643 C 0.09305 0.91112 0.61205 0.0
C644 C 0.12268 0.91698 0.61687 0.0
C645 C 0.13547 0.89707 0.62741 0.0
C646 C 0.0448 0.87866 0.61371 0.0
C647 C 0.14105 0.94399 0.61013 0.0
C648 C 0.06774 0.95128 0.55865 0.0
C649 C 0.05602 0.96975 0.57266 0.0
C650 C 0.07924 0.93168 0.5713 0.0
C651 C 0.07977 0.93114 0.5986 0.0
C652 C 0.06814 0.94994 0.61285 0.0
C653 C 0.05593 0.96883 0.59965 0.0
C654 C 0.09083 0.91156 0.55546 0.0
C655 C 0.06897 0.95035 0.64195 0.0
H656 H 0.07738 0.84615 0.63347 0.0
H657 H 0.1583 0.9013 0.63045 0.0
H658 H 0.03448 0.89376 0.62294 0.0
H659 H 0.04056 0.87924 0.59269 0.0
H660 H 0.03474 0.85845 0.62122 0.0
H661 H 0.16336 0.94596 0.61681 0.0
H662 H 0.14122 0.94694 0.58891 0.0
H663 H 0.13216 0.96032 0.61885 0.0
H664 H 0.06744 0.95188 0.53774 0.0
H665 H 0.04695 0.98329 0.61038 0.0
H666 H 0.08005 0.89085 0.56096 0.0
H667 H 0.11386 0.91355 0.55942 0.0
H668 H 0.08791 0.91419 0.53442 0.0
H669 H 0.05777 0.93065 0.64973 0.0
H670 H 0.05903 0.9663 0.65012 0.0
H671 H 0.09136 0.95369 0.64868 0.0
C672 C 0.81407 0.43159 0.95531 0.0
C673 C 0.81471 0.43176 0.9282 0.0
C674 C 0.8385 0.44266 0.96996 0.0
C675 C 0.86436 0.45425 0.95732 0.0
C676 C 0.86523 0.45418 0.93 0.0
C677 C 0.84058 0.44294 0.91586 0.0
C678 C 0.83654 0.44227 0.99901 0.0
C679 C 0.89225 0.46614 0.91561 0.0
C680 C 0.92197 0.50581 0.99155 0.0
C681 C 0.94178 0.49035 0.9987 0.0
C682 C 0.89648 0.49424 0.97868 0.0
C683 C 0.89054 0.46651 0.97251 0.0
C684 C 0.91027 0.45075 0.97996 0.0
C685 C 0.93547 0.46278 0.99298 0.0
C686 C 0.87609 0.51185 0.97126 0.0
C687 C 0.90509 0.42121 0.97365 0.0
H688 H 0.79427 0.42334 0.96516 0.0
H689 H 0.84168 0.4428 0.89499 0.0
H690 H 0.85257 0.43181 1.00727 0.0
H691 H 0.84143 0.46312 1.00647 0.0
H692 H 0.81512 0.43211 1.00599 0.0
H693 H 0.88954 0.46442 0.89436 0.0
H694 H 0.8993 0.48768 0.9206 0.0
H695 H 0.9095 0.45592 0.92148 0.0
H696 H 0.92649 0.52711 0.99579 0.0
H697 H 0.95056 0.45057 0.99821 0.0
H698 H 0.85462 0.50337 0.97915 0.0
H699 H 0.87406 0.51241 0.94996 0.0
H700 H 0.88313 0.53275 0.97836 0.0
H701 H 0.88422 0.4107 0.98149 0.0
H702 H 0.92193 0.41151 0.98156 0.0
H703 H 0.90426 0.41848 0.95242 0.0
C704 C 0.72608 0.6272 0.44612 0.0
C705 C 0.73201 0.61365 0.42385 0.0
C706 C 0.70178 0.61717 0.46146 0.0
C707 C 0.68276 0.59292 0.45455 0.0
C708 C 0.68892 0.57896 0.43237 0.0
C709 C 0.7133 0.58938 0.41745 0.0
C710 C 0.69631 0.63271 0.48497 0.0
C711 C 0.66948 0.55307 0.42413 0.0
C712 C 0.63003 0.552 0.50287 0.0
C713 C 0.60477 0.56052 0.49722 0.0
C714 C 0.65574 0.56312 0.48993 0.0
C715 C 0.65606 0.58239 0.46999 0.0
C716 C 0.63041 0.59076 0.46408 0.0
C717 C 0.60535 0.58017 0.47807 0.0
C718 C 0.68261 0.55421 0.49761 0.0
C719 C 0.6292 0.61043 0.44249 0.0
H720 H 0.74012 0.646 0.4513 0.0
H721 H 0.71778 0.57832 0.40069 0.0
H722 H 0.67609 0.63967 0.48255 0.0
H723 H 0.69389 0.61951 0.50226 0.0
H724 H 0.7137 0.65047 0.48854 0.0
H725 H 0.67716 0.5446 0.40643 0.0
H726 H 0.66767 0.53794 0.4398 0.0
H727 H 0.6478 0.55655 0.42043 0.0
H728 H 0.62979 0.53693 0.51773 0.0
H729 H 0.58583 0.58663 0.47339 0.0
H730 H 0.69963 0.57196 0.50214 0.0
H731 H 0.69028 0.54359 0.48131 0.0
H732 H 0.67936 0.54062 0.51465 0.0
H733 H 0.64455 0.62957 0.44618 0.0
H734 H 0.60764 0.61477 0.44014 0.0
H735 H 0.63546 0.60227 0.42406 0.0
C736 C 0.25165 0.38242 0.12211 0.0
C737 C 0.24629 0.3592 0.13745 0.0
C738 C 0.22958 0.39532 0.11533 0.0
C739 C 0.20152 0.38452 0.12387 0.0
C740 C 0.19612 0.36138 0.13978 0.0
C741 C 0.21858 0.34903 0.14641 0.0
C742 C 0.23616 0.42017 0.09861 0.0
C743 C 0.16644 0.34916 0.14912 0.0
C744 C 0.14441 0.42591 0.1221 0.0
C745 C 0.12985 0.41665 0.09936 0.0
C746 C 0.16826 0.41613 0.13005 0.0
C747 C 0.17746 0.39641 0.11502 0.0
C748 C 0.16295 0.38718 0.09193 0.0
C749 C 0.13939 0.39752 0.08431 0.0
C750 C 0.18338 0.42663 0.15464 0.0
C751 C 0.17194 0.36593 0.07558 0.0
H752 H 0.27311 0.39047 0.11538 0.0
H753 H 0.21426 0.33087 0.15799 0.0
H754 H 0.22517 0.41604 0.07977 0.0
H755 H 0.22806 0.43672 0.10783 0.0
H756 H 0.25934 0.42705 0.09504 0.0
H757 H 0.16606 0.33188 0.16235 0.0
H758 H 0.15723 0.36445 0.15932 0.0
H759 H 0.15248 0.34217 0.13237 0.0
H760 H 0.13723 0.44095 0.1336 0.0
H761 H 0.12799 0.39017 0.06684 0.0
H762 H 0.20639 0.43424 0.15082 0.0
H763 H 0.18159 0.4101 0.16892 0.0
H764 H 0.17452 0.44303 0.16332 0.0
H765 H 0.19459 0.37249 0.0699 0.0
H766 H 0.15886 0.36143 0.05783 0.0
H767 H 0.17004 0.34712 0.08692 0.0
C768 C 0.585 0.21916 0.9421 0.0
C769 C 0.60863 0.22391 0.92537 0.0
C770 C 0.57591 0.19432 0.95483 0.0
C771 C 0.59103 0.17351 0.95137 0.0
C772 C 0.6153 0.17829 0.9351 0.0
C773 C 0.62365 0.2032 0.92223 0.0
C774 C 0.5498 0.19024 0.97176 0.0
C775 C 0.63223 0.15685 0.93093 0.0
C776 C 0.58037 0.11649 1.00136 0.0
C777 C 0.56094 0.09594 0.98891 0.0
C778 C 0.59053 0.1416 0.98935 0.0
C779 C 0.581 0.1466 0.96424 0.0
C780 C 0.56149 0.12591 0.95155 0.0
C781 C 0.5518 0.10096 0.96393 0.0
C782 C 0.61137 0.1629 1.00364 0.0
C783 C 0.5505 0.13024 0.92492 0.0
H784 H 0.57342 0.23493 0.94536 0.0
H785 H 0.64164 0.20612 0.90919 0.0
H786 H 0.53342 0.17323 0.96441 0.0
H787 H 0.55523 0.18498 0.99166 0.0
H788 H 0.54042 0.20838 0.97258 0.0
H789 H 0.65135 0.16402 0.91876 0.0
H790 H 0.63914 0.14997 0.94976 0.0
H791 H 0.61868 0.13917 0.92149 0.0
H792 H 0.58759 0.11302 1.02065 0.0
H793 H 0.53671 0.08544 0.95405 0.0
H794 H 0.60204 0.18081 1.00661 0.0
H795 H 0.63099 0.1694 0.99201 0.0
H796 H 0.61728 0.15575 1.02274 0.0
H797 H 0.53932 0.1472 0.92524 0.0
H798 H 0.5356 0.11214 0.91751 0.0
H799 H 0.56854 0.13571 0.91123 0.0
C800 C 0.91517 0.84196 0.43255 0.0
C801 C 0.93431 0.82565 0.4258 0.0
C802 C 0.92417 0.86632 0.44609 0.0
C803 C 0.95314 0.87497 0.45321 0.0
C804 C 0.97256 0.85856 0.44668 0.0
C805 C 0.96298 0.83429 0.43315 0.0
C806 C 0.90266 0.88308 0.45235 0.0
C807 C 1.00359 0.86669 0.45394 0.0
C808 C 0.9844 0.9497 0.4649 0.0
C809 C 0.98377 0.95164 0.4919 0.0
C810 C 0.97385 0.92518 0.45216 0.0
C811 C 0.96331 0.90153 0.4667 0.0
C812 C 0.96283 0.90337 0.49404 0.0
C813 C 0.97258 0.92843 0.50626 0.0
C814 C 0.9741 0.92459 0.42306 0.0
C815 C 0.95263 0.87872 0.51045 0.0
H816 H 0.89308 0.83601 0.42679 0.0
H817 H 0.97806 0.82189 0.42859 0.0
H818 H 0.90238 0.88675 0.47342 0.0
H819 H 0.90877 0.90295 0.44273 0.0
H820 H 0.88081 0.87336 0.44611 0.0
H821 H 0.01583 0.85136 0.44835 0.0
H822 H 1.01331 0.88594 0.44437 0.0
H823 H 1.00571 0.86999 0.47506 0.0
H824 H 0.99298 0.96754 0.45365 0.0
H825 H 0.97242 0.92967 0.52714 0.0
H826 H 0.95242 0.91604 0.41568 0.0
H827 H 0.98826 0.91142 0.41629 0.0
H828 H 0.98152 0.94489 0.41452 0.0
H829 H 0.93038 0.86924 0.50533 0.0
H830 H 0.95362 0.88338 0.53139 0.0
H831 H 0.96587 0.86375 0.5066 0.0
C832 C 0.30235 0.67541 0.63332 0.0
C833 C 0.30812 0.68765 0.65747 0.0
C834 C 0.32256 0.66347 0.62101 0.0
C835 C 0.34915 0.66415 0.63306 0.0
C836 C 0.35494 0.67631 0.65751 0.0
C837 C 0.33434 0.68785 0.66943 0.0
C838 C 0.31561 0.65042 0.59504 0.0
C839 C 0.38318 0.67769 0.67086 0.0
C840 C 0.39774 0.61726 0.6157 0.0
C841 C 0.41854 0.63416 0.60087 0.0
C842 C 0.37416 0.62633 0.62526 0.0
C843 C 0.3715 0.65295 0.61998 0.0
C844 C 0.39187 0.66977 0.60421 0.0
C845 C 0.41515 0.66013 0.59478 0.0
C846 C 0.35273 0.60777 0.64183 0.0
C847 C 0.38984 0.69836 0.59836 0.0
H848 H 0.28204 0.67518 0.62411 0.0
H849 H 0.33908 0.69775 0.68788 0.0
H850 H 0.33062 0.66104 0.5803 0.0
H851 H 0.31827 0.62931 0.59571 0.0
H852 H 0.29355 0.65062 0.58879 0.0
H853 H 0.38409 0.6875 0.69004 0.0
H854 H 0.3872 0.65719 0.67349 0.0
H855 H 0.40065 0.68909 0.65873 0.0
H856 H 0.40009 0.59702 0.62007 0.0
H857 H 0.43129 0.67329 0.58346 0.0
H858 H 0.3308 0.60745 0.63493 0.0
H859 H 0.35415 0.61524 0.66197 0.0
H860 H 0.35626 0.58691 0.64191 0.0
H861 H 0.36841 0.69904 0.5908 0.0
H862 H 0.40605 0.70806 0.5841 0.0
H863 H 0.3929 0.71031 0.6164 0.0
C864 C 0.7931 0.83941 0.69978 0.0
C865 C 0.79322 0.84727 0.72564 0.0
C866 C 0.80823 0.85667 0.68112 0.0
C867 C 0.82401 0.88213 0.68872 0.0
C868 C 0.82395 0.89025 0.71478 0.0
C869 C 0.80844 0.87272 0.73294 0.0
C870 C 0.80766 0.84757 0.65341 0.0
C871 C 0.84081 0.91718 0.72359 0.0
C872 C 0.88689 0.91728 0.649 0.0
C873 C 0.8756 0.93714 0.63652 0.0
C874 C 0.87004 0.89869 0.66552 0.0
C875 C 0.8413 0.90012 0.66962 0.0
C876 C 0.82956 0.91966 0.65655 0.0
C877 C 0.84689 0.93796 0.6401 0.0
C878 C 0.88327 0.87815 0.67928 0.0
C879 C 0.79895 0.92169 0.66046 0.0
H880 H 0.78118 0.81975 0.69418 0.0
H881 H 0.80889 0.87861 0.75305 0.0
H882 H 0.80055 0.86244 0.64068 0.0
H883 H 0.82944 0.84633 0.64721 0.0
H884 H 0.79332 0.82765 0.65052 0.0
H885 H 0.83788 0.92066 0.74447 0.0
H886 H 0.86379 0.91849 0.71987 0.0
H887 H 0.83434 0.93356 0.71247 0.0
H888 H 0.90917 0.91681 0.64653 0.0
H889 H 0.83803 0.9531 0.63019 0.0
H890 H 0.87041 0.85765 0.676 0.0
H891 H 0.88353 0.88184 0.70037 0.0
H892 H 0.90543 0.87874 0.67279 0.0
H893 H 0.78457 0.90198 0.6568 0.0
H894 H 0.79267 0.93697 0.64762 0.0
H895 H 0.79568 0.92714 0.68077 0.0
C896 C 0.75615 0.19003 0.21409 0.0
C897 C 0.7424 0.20629 0.22909 0.0
C898 C 0.74089 0.17194 0.19625 0.0
C899 C 0.71127 0.17018 0.19346 0.0
C900 C 0.69738 0.1869 0.20819 0.0
C901 C 0.71313 0.20475 0.22587 0.0
C902 C 0.75632 0.15435 0.18079 0.0
C903 C 0.66575 0.18539 0.20581 0.0
C904 C 0.67321 0.13779 0.13403 0.0
C905 C 0.66115 0.11207 0.14334 0.0
C906 C 0.68991 0.15691 0.15009 0.0
C907 C 0.69448 0.15004 0.17598 0.0
C908 C 0.68237 0.12409 0.18547 0.0
C909 C 0.66581 0.10539 0.169 0.0
C910 C 0.70259 0.18443 0.13942 0.0
C911 C 0.68666 0.11617 0.21306 0.0
H912 H 0.77882 0.19136 0.21642 0.0
H913 H 0.70231 0.21692 0.23779 0.0
H914 H 0.74777 0.13294 0.18561 0.0
H915 H 0.75269 0.15688 0.15987 0.0
H916 H 0.7796 0.15899 0.18452 0.0
H917 H 0.65846 0.2006 0.21791 0.0
H918 H 0.66006 0.18843 0.18543 0.0
H919 H 0.65393 0.16515 0.21172 0.0
H920 H 0.66986 0.14284 0.1141 0.0
H921 H 0.65617 0.0856 0.1763 0.0
H922 H 0.72608 0.18869 0.14157 0.0
H923 H 0.69466 0.19995 0.15051 0.0
H924 H 0.69733 0.18641 0.11873 0.0
H925 H 0.70972 0.1188 0.21728 0.0
H926 H 0.67614 0.09501 0.21723 0.0
H927 H 0.67799 0.12944 0.22641 0.0
C928 C 0.42057 0.5923 0.36245 0.0
C929 C 0.43693 0.61573 0.35133 0.0
C930 C 0.42998 0.58035 0.38456 0.0
C931 C 0.45623 0.59227 0.3964 0.0
C932 C 0.47271 0.61606 0.38537 0.0
C933 C 0.46305 0.6273 0.36296 0.0
C934 C 0.41188 0.55476 0.39516 0.0
C935 C 0.50057 0.6298 0.39737 0.0
C936 C 0.46905 0.57518 0.46723 0.0
C937 C 0.48661 0.55644 0.46494 0.0
C938 C 0.45895 0.58683 0.44523 0.0
C939 C 0.46654 0.57976 0.42011 0.0
C940 C 0.48417 0.56079 0.41771 0.0
C941 C 0.4939 0.54943 0.43998 0.0
C942 C 0.44027 0.60691 0.44889 0.0
C943 C 0.49294 0.55253 0.39151 0.0
H944 H 0.40053 0.58297 0.35355 0.0
H945 H 0.47577 0.64551 0.35475 0.0
H946 H 0.42425 0.53866 0.39531 0.0
H947 H 0.40585 0.55783 0.4154 0.0
H948 H 0.39218 0.54781 0.38371 0.0
H949 H 0.51072 0.64835 0.38681 0.0
H950 H 0.49705 0.6351 0.41768 0.0
H951 H 0.51554 0.61593 0.39768 0.0
H952 H 0.46325 0.58092 0.48628 0.0
H953 H 0.50752 0.53512 0.43776 0.0
H954 H 0.41958 0.59983 0.43901 0.0
H955 H 0.45046 0.62638 0.43995 0.0
H956 H 0.43616 0.61031 0.46957 0.0
H957 H 0.47379 0.54419 0.37983 0.0
H958 H 0.50636 0.53728 0.3928 0.0
H959 H 0.50505 0.57034 0.38104 0.0
C960 C 0.08537 0.42415 0.8624 0.0
C961 C 0.10952 0.43705 0.84835 0.0
C962 C 0.07636 0.43555 0.88495 0.0
C963 C 0.09157 0.46075 0.89406 0.0
C964 C 0.11605 0.47385 0.88009 0.0
C965 C 0.12477 0.46186 0.85766 0.0
C966 C 0.05034 0.42054 0.89904 0.0
C967 C 0.1329 0.50079 0.88869 0.0
C968 C 0.05191 0.50159 0.93805 0.0
C969 C 0.06099 0.49609 0.96296 0.0
C970 C 0.06175 0.49048 0.9157 0.0
C971 C 0.08156 0.47346 0.91787 0.0
C972 C 0.09111 0.46809 0.94293 0.0
C973 C 0.08066 0.47926 0.96502 0.0
C974 C 0.05056 0.49673 0.88969 0.0
C975 C 0.11228 0.45031 0.94643 0.0
H976 H 0.07353 0.40483 0.85587 0.0
H977 H 0.14325 0.47229 0.84705 0.0
H978 H 0.0559 0.41672 0.91929 0.0
H979 H 0.03392 0.43293 0.89966 0.0
H980 H 0.04097 0.40103 0.88981 0.0
H981 H 0.15164 0.50828 0.87615 0.0
H982 H 0.1191 0.51572 0.88851 0.0
H983 H 0.14036 0.49941 0.90881 0.0
H984 H 0.03665 0.51437 0.93596 0.0
H985 H 0.08797 0.47475 0.98399 0.0
H986 H 0.03926 0.4779 0.88039 0.0
H987 H 0.0685 0.50585 0.87688 0.0
H988 H 0.03569 0.51067 0.89108 0.0
H989 H 0.10318 0.42991 0.93899 0.0
H990 H 0.11831 0.44861 0.96697 0.0
H991 H 0.13181 0.45835 0.9351 0.0
C992 C 0.59381 0.86823 0.92161 0.0
C993 C 0.62283 0.87577 0.91581 0.0
C994 C 0.58031 0.88526 0.93595 0.0
C995 C 0.59615 0.91062 0.94387 0.0
C996 C 0.62547 0.91827 0.93794 0.0
C997 C 0.63855 0.90058 0.9242 0.0
C998 C 0.54919 0.87619 0.94262 0.0
C999 C 0.6429 0.94538 0.94558 0.0
C1000 C 0.55639 0.96581 0.95778 0.0
C1001 C 0.55821 0.96719 0.98465 0.0
C1002 C 0.56872 0.94743 0.94418 0.0
C1003 C 0.58207 0.92945 0.95801 0.0
C1004 C 0.58302 0.93024 0.98529 0.0
C1005 C 0.57154 0.94957 0.99831 0.0
C1006 C 0.56814 0.94775 0.91506 0.0
C1007 C 0.59618 0.91074 1.00068 0.0
H1008 H 0.5818 0.84894 0.91508 0.0
H1009 H 0.66095 0.90642 0.91937 0.0
H1010 H 0.54618 0.87738 0.96377 0.0
H1011 H 0.53675 0.8897 0.9334 0.0
H1012 H 0.54036 0.85529 0.93624 0.0
H1013 H 0.66538 0.94834 0.93911 0.0
H1014 H 0.63342 0.96153 0.93712 0.0
H1015 H 0.64266 0.94768 0.96684 0.0
H1016 H 0.54607 0.97965 0.94741 0.0
H1017 H 0.57251 0.95062 1.0192 0.0
H1018 H 0.55721 0.92784 0.90768 0.0
H1019 H 0.59022 0.9518 0.90747 0.0
H1020 H 0.55714 0.96322 0.9073 0.0
H1021 H 0.58651 0.88982 0.995 0.0
H1022 H 0.59335 0.91283 1.02179 0.0
H1023 H 0.61928 0.91406 0.99647 0.0
C1024 C 0.90676 0.15324 0.43151 0.0
C1025 C 0.92299 0.17376 0.41644 0.0
C1026 C 0.91969 0.13533 0.44529 0.0
C1027 C 0.94961 0.13826 0.44423 0.0
C1028 C 0.9662 0.15936 0.42956 0.0
C1029 C 0.95264 0.17674 0.41559 0.0
C1030 C 0.90125 0.11287 0.46045 0.0
C1031 C 0.99821 0.16342 0.42848 0.0
C1032 C 0.9824 0.10386 0.49772 0.0
C1033 C 0.98688 0.08075 0.48522 0.0
C1034 C 0.97112 0.12321 0.48437 0.0
C1035 C 0.96339 0.11888 0.45814 0.0
C1036 C 0.96794 0.09556 0.44544 0.0
C1037 C 0.98006 0.07692 0.45907 0.0
C1038 C 0.96733 0.14818 0.49835 0.0
C1039 C 0.95936 0.08999 0.41764 0.0
H1040 H 0.88379 0.15069 0.43186 0.0
H1041 H 0.96518 0.19271 0.40403 0.0
H1042 H 0.90408 0.0932 0.453 0.0
H1043 H 0.9078 0.114 0.48101 0.0
H1044 H 0.87831 0.1135 0.45938 0.0
H1045 H 1.00811 0.18159 0.41724 0.0
H1046 H 1.00716 0.16528 0.44829 0.0
H1047 H 1.00429 0.14569 0.41952 0.0
H1048 H 0.98806 0.10698 0.5179 0.0
H1049 H 0.98345 0.05896 0.44949 0.0
H1050 H 0.94439 0.14865 0.49943 0.0
H1051 H 0.97804 0.16635 0.48754 0.0
H1052 H 0.97607 0.14928 0.51826 0.0
H1053 H 0.93616 0.08881 0.41548 0.0
H1054 H 0.96438 0.07094 0.4106 0.0
H1055 H 0.97041 0.10667 0.40516 0.0
C1056 C 0.20361 0.61842 0.14022 0.0
C1057 C 0.23118 0.62373 0.12959 0.0
C1058 C 0.17943 0.60772 0.12525 0.0
C1059 C 0.18251 0.60232 0.09873 0.0
C1060 C 0.21011 0.60836 0.08763 0.0
C1061 C 0.23402 0.61891 0.10313 0.0
C1062 C 0.15054 0.60168 0.13802 0.0
C1063 C 0.21446 0.60299 0.05947 0.0
C1064 C 0.12285 0.54887 0.0698 0.0
C1065 C 0.10605 0.56435 0.05706 0.0
C1066 C 0.14824 0.56091 0.0825 0.0
C1067 C 0.15695 0.58928 0.08308 0.0
C1068 C 0.14032 0.60502 0.06987 0.0
C1069 C 0.11528 0.59239 0.05683 0.0
C1070 C 0.16537 0.54322 0.0959 0.0
C1071 C 0.14843 0.63528 0.07028 0.0
H1072 H 0.20082 0.62255 0.16043 0.0
H1073 H 0.25507 0.6226 0.09461 0.0
H1074 H 0.13579 0.61209 0.12762 0.0
H1075 H 0.14136 0.57982 0.13706 0.0
H1076 H 0.15152 0.60792 0.15857 0.0
H1077 H 0.23693 0.61014 0.05336 0.0
H1078 H 0.20814 0.58112 0.05571 0.0
H1079 H 0.2007 0.61299 0.04735 0.0
H1080 H 0.11602 0.52718 0.07003 0.0
H1081 H 0.10233 0.60455 0.0473 0.0
H1082 H 0.16531 0.54667 0.11702 0.0
H1083 H 0.18785 0.5484 0.08938 0.0
H1084 H 0.15684 0.52154 0.09221 0.0
H1085 H 0.14738 0.64251 0.09035 0.0
H1086 H 0.1342 0.64464 0.058 0.0
H1087 H 0.17067 0.64223 0.06354 0.0
C1088 C 0.31323 0.45485 0.611 0.0
C1089 C 0.31156 0.4339 0.62912 0.0
C1090 C 0.33835 0.46496 0.59691 0.0
C1091 C 0.36271 0.45377 0.6005 0.0
C1092 C 0.36096 0.43201 0.61802 0.0
C1093 C 0.33563 0.42247 0.63212 0.0
C1094 C 0.33898 0.48815 0.57857 0.0
C1095 C 0.38622 0.41928 0.62249 0.0
C1096 C 0.4232 0.46873 0.55036 0.0
C1097 C 0.44257 0.48994 0.56196 0.0
C1098 C 0.39724 0.45675 0.56257 0.0
C1099 C 0.3904 0.46592 0.58716 0.0
C1100 C 0.40999 0.48717 0.59898 0.0
C1101 C 0.43555 0.4989 0.5863 0.0
C1102 C 0.37705 0.4343 0.5491 0.0
C1103 C 0.40397 0.49762 0.62517 0.0
H1104 H 0.29483 0.46359 0.60781 0.0
H1105 H 0.3351 0.40654 0.64611 0.0
H1106 H 0.35487 0.50588 0.58525 0.0
H1107 H 0.34564 0.48294 0.55909 0.0
H1108 H 0.31797 0.49386 0.57699 0.0
H1109 H 0.38095 0.40131 0.63519 0.0
H1110 H 0.3943 0.41329 0.60384 0.0
H1111 H 0.40373 0.43408 0.63152 0.0
H1112 H 0.42822 0.46153 0.53164 0.0
H1113 H 0.45023 0.51511 0.59572 0.0
H1114 H 0.35625 0.44001 0.54601 0.0
H1115 H 0.37308 0.41602 0.56139 0.0
H1116 H 0.38537 0.42934 0.53015 0.0
H1117 H 0.38404 0.50532 0.62445 0.0
H1118 H 0.42148 0.51399 0.63198 0.0
H1119 H 0.40076 0.48107 0.63954 0.0
C1120 C 0.80097 0.66474 0.90043 0.0
C1121 C 0.79792 0.68783 0.91384 0.0
C1122 C 0.82359 0.65208 0.90592 0.0
C1123 C 0.84362 0.6629 0.92516 0.0
C1124 C 0.84067 0.68626 0.93866 0.0
C1125 C 0.81783 0.69841 0.93287 0.0
C1126 C 0.82609 0.62718 0.89118 0.0
C1127 C 0.86175 0.69854 0.95915 0.0
C1128 C 0.8886 0.6206 0.9592 0.0
C1129 C 0.91528 0.62976 0.94762 0.0
C1130 C 0.86481 0.63052 0.95142 0.0
C1131 C 0.8677 0.6499 0.93145 0.0
C1132 C 0.89423 0.65835 0.91889 0.0
C1133 C 0.91774 0.64827 0.92721 0.0
C1134 C 0.83683 0.62099 0.96521 0.0
C1135 C 0.89807 0.67884 0.89738 0.0
H1136 H 0.78553 0.65647 0.88577 0.0
H1137 H 0.81587 0.71656 0.94292 0.0
H1138 H 0.84697 0.6304 0.88124 0.0
H1139 H 0.82514 0.61012 0.90474 0.0
H1140 H 0.80895 0.62151 0.87659 0.0
H1141 H 0.85645 0.7168 0.9678 0.0
H1142 H 0.86235 0.68369 0.97474 0.0
H1143 H 0.88344 0.704 0.95076 0.0
H1144 H 0.88637 0.60584 0.97458 0.0
H1145 H 0.9383 0.65564 0.91829 0.0
H1146 H 0.81957 0.6139 0.95107 0.0
H1147 H 0.83117 0.63796 0.97592 0.0
H1148 H 0.83759 0.60448 0.97908 0.0
H1149 H 0.88134 0.67292 0.8825 0.0
H1150 H 0.91924 0.68137 0.888 0.0
H1151 H 0.8958 0.69855 0.90516 0.0
C1152 C 0.42231 0.84741 0.13879 0.0
C1153 C 0.43253 0.82432 0.13234 0.0
C1154 C 0.43138 0.87192 0.1254 0.0
C1155 C 0.45142 0.87375 0.10505 0.0
C1156 C 0.46151 0.8505 0.09817 0.0
C1157 C 0.45188 0.82621 0.11169 0.0
C1158 C 0.42004 0.8961 0.1335 0.0
C1159 C 0.48291 0.85136 0.07672 0.0
C1160 C 0.46062 0.93262 0.05702 0.0
C1161 C 0.48559 0.94964 0.06599 0.0
C1162 C 0.44927 0.90794 0.06945 0.0
C1163 C 0.46282 0.90019 0.09173 0.0
C1164 C 0.48772 0.91759 0.1011 0.0
C1165 C 0.49887 0.94183 0.08806 0.0
C1166 C 0.42297 0.88995 0.0585 0.0
C1167 C 0.50274 0.91054 0.12492 0.0
H1168 H 0.40776 0.84663 0.15485 0.0
H1169 H 0.45964 0.80861 0.10597 0.0
H1170 H 0.43772 0.91191 0.14088 0.0
H1171 H 0.41076 0.90467 0.11665 0.0
H1172 H 0.40351 0.89117 0.14875 0.0
H1173 H 0.48802 0.83142 0.07311 0.0
H1174 H 0.47464 0.85856 0.05862 0.0
H1175 H 0.5029 0.86577 0.08164 0.0
H1176 H 0.45027 0.93829 0.03992 0.0
H1177 H 0.51806 0.95483 0.09534 0.0
H1178 H 0.40595 0.88595 0.07332 0.0
H1179 H 0.42776 0.87031 0.05309 0.0
H1180 H 0.41479 0.89884 0.04122 0.0
H1181 H 0.48775 0.90703 0.14145 0.0
H1182 H 0.52132 0.92657 0.13026 0.0
H1183 H 0.51024 0.89165 0.1217 0.0
C1184 C 0.08066 0.21696 0.6255 0.0
C1185 C 0.10954 0.22593 0.632 0.0
C1186 C 0.07089 0.19261 0.6122 0.0
C1187 C 0.09033 0.17649 0.60497 0.0
C1188 C 0.11955 0.18558 0.61107 0.0
C1189 C 0.12875 0.21001 0.62443 0.0
C1190 C 0.0396 0.18404 0.606 0.0
C1191 C 0.14112 0.1692 0.60386 0.0
C1192 C 0.06027 0.10139 0.59407 0.0
C1193 C 0.05936 0.09942 0.56704 0.0
C1194 C 0.07073 0.1261 0.60653 0.0
C1195 C 0.07997 0.14983 0.59176 0.0
C1196 C 0.07897 0.14799 0.56443 0.0
C1197 C 0.06901 0.12287 0.55245 0.0
C1198 C 0.07178 0.12681 0.63562 0.0
C1199 C 0.08798 0.17268 0.54781 0.0
H1200 H 0.06553 0.22911 0.63065 0.0
H1201 H 0.15102 0.21629 0.62948 0.0
H1202 H 0.03662 0.18072 0.58495 0.0
H1203 H 0.0306 0.1647 0.61576 0.0
H1204 H 0.02732 0.19912 0.61216 0.0
H1205 H 0.16314 0.17928 0.60926 0.0
H1206 H 0.13582 0.14936 0.61363 0.0
H1207 H 0.14044 0.16543 0.58279 0.0
H1208 H 0.05296 0.08347 0.60559 0.0
H1209 H 0.06812 0.12172 0.53158 0.0
H1210 H 0.05786 0.13994 0.64298 0.0
H1211 H 0.09375 0.1355 0.6422 0.0
H1212 H 0.06485 0.10655 0.64435 0.0
H1213 H 0.07468 0.18743 0.5523 0.0
H1214 H 0.08605 0.16798 0.52688 0.0
H1215 H 0.11038 0.18245 0.55206 0.0
C1216 C 0.71621 0.34754 0.41776 0.0
C1217 C 0.7445 0.3616 0.41575 0.0
C1218 C 0.69455 0.36067 0.42479 0.0
C1219 C 0.70132 0.38862 0.42959 0.0
C1220 C 0.72981 0.40304 0.42719 0.0
C1221 C 0.75119 0.38926 0.42053 0.0
C1222 C 0.66451 0.34452 0.42757 0.0
C1223 C 0.73766 0.43293 0.43176 0.0
C1224 C 0.63804 0.42227 0.42818 0.0
C1225 C 0.6317 0.42313 0.45451 0.0
C1226 C 0.66146 0.41214 0.41978 0.0
C1227 C 0.67859 0.40233 0.43817 0.0
C1228 C 0.67264 0.40374 0.4648 0.0
C1229 C 0.64932 0.41425 0.47266 0.0
C1230 C 0.6674 0.41129 0.39125 0.0
C1231 C 0.69021 0.39315 0.48494 0.0
H1232 H 0.71112 0.32608 0.41431 0.0
H1233 H 0.77307 0.40011 0.41877 0.0
H1234 H 0.65702 0.34596 0.44766 0.0
H1235 H 0.64996 0.35279 0.41473 0.0
H1236 H 0.66278 0.32299 0.42281 0.0
H1237 H 0.76049 0.44139 0.42775 0.0
H1238 H 0.72452 0.44332 0.41934 0.0
H1239 H 0.73311 0.43735 0.45207 0.0
H1240 H 0.62461 0.42944 0.41416 0.0
H1241 H 0.64429 0.41469 0.49301 0.0
H1242 H 0.66363 0.39012 0.38473 0.0
H1243 H 0.69004 0.42048 0.38723 0.0
H1244 H 0.65372 0.42195 0.37968 0.0
H1245 H 0.68787 0.37115 0.48253 0.0
H1246 H 0.68376 0.3971 0.50489 0.0
H1247 H 0.71309 0.40242 0.48246 0.0
loop_
_geom_bond_atom_site_label_1
_geom_bond_atom_site_label_2
_geom_bond_distance
_geom_bond_site_symmetry_2
_ccdc_geom_bond_type
C0 C1 1.264 . S
C0 C5 1.479 . S
C0 C10 1.465 . S
C1 C0 1.264 . S
C1 C3 1.339 . S
C1 H28 0.931 . S
C2 C3 1.395 . S
C2 C4 1.320 . S
C3 C1 1.339 . S
C3 C2 1.395 . S
C3 H29 0.929 . S
C4 C2 1.320 . S
C4 C5 1.405 . S
C4 H30 0.930 . S
C5 C0 1.479 . S
C5 C4 1.405 . S
C5 H31 0.931 . S
U6 O7 2.454 . S
U6 O8 2.458 . S
U6 C9 2.984 . S
U6 C10 2.847 . S
U6 C23 2.882 . S
U6 O24 2.441 . S
U6 O25 2.420 . S
U6 O26 2.455 . S
U6 O27 2.449 . S
O7 U6 2.454 . S
O7 C9 1.353 . S
O8 U6 2.458 . S
O8 C9 1.286 . S
C9 U6 2.984 . S
C9 O7 1.353 . S
C9 O8 1.286 . S
C9 C11 1.363 . S
C10 C0 1.465 . S
C10 U6 2.847 . S
C10 O24 1.249 . S
C10 O25 1.202 . S
C11 C9 1.363 . S
C11 C13 1.408 . S
C11 C16 1.342 . S
C12 C13 1.310 . S
C12 C15 1.461 . S
C12 H32 0.932 . S
C13 C11 1.408 . S
C13 C12 1.310 . S
C13 H33 0.930 . S
C14 C15 1.474 . S
C14 C16 1.285 . S
C14 H34 0.929 . S
C15 C12 1.461 . S
C15 C14 1.474 . S
C16 C11 1.342 . S
C16 C14 1.285 . S
C16 H35 0.930 . S
C17 C20 1.424 . S
C17 C22 1.245 . S
C17 C23 1.428 . S
C18 C21 1.260 . S
C18 C22 1.477 . S
C18 H36 0.932 . S
C19 C20 1.384 . S
C19 C21 1.479 . S
C19 H37 0.929 . S
C20 C17 1.424 . S
C20 C19 1.384 . S
C20 H38 0.928 . S
C21 C18 1.260 . S
C21 C19 1.479 . S
C22 C17 1.245 . S
C22 C18 1.477 . S
C22 H39 0.932 . S
C23 U6 2.882 . S
C23 C17 1.428 . S
C23 O26 1.301 . S
C23 O27 1.282 . S
O24 U6 2.441 . S
O24 C10 1.249 . S
O25 U6 2.420 . S
O25 C10 1.202 . S
O26 U6 2.455 . S
O26 C23 1.301 . S
O27 U6 2.449 . S
O27 C23 1.282 . S
H28 C1 0.931 . S
H29 C3 0.929 . S
H30 C4 0.930 . S
H31 C5 0.931 . S
H32 C12 0.932 . S
H33 C13 0.930 . S
H34 C14 0.929 . S
H35 C16 0.930 . S
H36 C18 0.932 . S
H37 C19 0.929 . S
H38 C20 0.928 . S
H39 C22 0.932 . S
C40 C41 1.264 . S
C40 C45 1.479 . S
C40 C50 1.465 . S
C41 C40 1.264 . S
C41 C43 1.339 . S
C41 H68 0.931 . S
C42 C43 1.395 . S
C42 C44 1.320 . S
C43 C41 1.339 . S
C43 C42 1.395 . S
C43 H69 0.929 . S
C44 C42 1.320 . S
C44 C45 1.405 . S
C44 H70 0.930 . S
C45 C40 1.479 . S
C45 C44 1.405 . S
C45 H71 0.931 . S
U46 O47 2.454 . S
U46 O48 2.458 . S
U46 C49 2.984 . S
U46 C50 2.847 . S
U46 C63 2.882 . S
U46 O64 2.441 . S
U46 O65 2.420 . S
U46 O66 2.455 . S
U46 O67 2.449 . S
O47 U46 2.454 . S
O47 C49 1.353 . S
O48 U46 2.458 . S
O48 C49 1.286 . S
C49 U46 2.984 . S
C49 O47 1.353 . S
C49 O48 1.286 . S
C49 C51 1.363 . S
C50 C40 1.465 . S
C50 U46 2.847 . S
C50 O64 1.249 . S
C50 O65 1.202 . S
C51 C49 1.363 . S
C51 C53 1.408 . S
C51 C56 1.342 . S
C52 C53 1.310 . S
C52 C55 1.461 . S
C52 H72 0.932 . S
C53 C51 1.408 . S
C53 C52 1.310 . S
C53 H73 0.930 . S
C54 C55 1.474 . S
C54 C56 1.285 . S
C54 H74 0.929 . S
C55 C52 1.461 . S
C55 C54 1.474 . S
C56 C51 1.342 . S
C56 C54 1.285 . S
C56 H75 0.930 . S
C57 C60 1.424 . S
C57 C62 1.245 . S
C57 C63 1.428 . S
C58 C61 1.260 . S
C58 C62 1.477 . S
C58 H76 0.932 . S
C59 C60 1.384 . S
C59 C61 1.479 . S
C59 H77 0.929 . S
C60 C57 1.424 . S
C60 C59 1.384 . S
C60 H78 0.928 . S
C61 C58 1.260 . S
C61 C59 1.479 . S
C62 C57 1.245 . S
C62 C58 1.477 . S
C62 H79 0.932 . S
C63 U46 2.882 . S
C63 C57 1.428 . S
C63 O66 1.301 . S
C63 O67 1.282 . S
O64 U46 2.441 . S
O64 C50 1.249 . S
O65 U46 2.420 . S
O65 C50 1.202 . S
O66 U46 2.455 . S
O66 C63 1.301 . S
O67 U46 2.449 . S
O67 C63 1.282 . S
H68 C41 0.931 . S
H69 C43 0.929 . S
H70 C44 0.930 . S
H71 C45 0.931 . S
H72 C52 0.932 . S
H73 C53 0.930 . S
H74 C54 0.929 . S
H75 C56 0.930 . S
H76 C58 0.932 . S
H77 C59 0.929 . S
H78 C60 0.928 . S
H79 C62 0.932 . S
C80 C81 1.264 . S
C80 C85 1.479 . S
C80 C90 1.465 . S
C81 C80 1.264 . S
C81 C83 1.339 . S
C81 H108 0.931 . S
C82 C83 1.395 . S
C82 C84 1.320 . S
C83 C81 1.339 . S
C83 C82 1.395 . S
C83 H109 0.929 . S
C84 C82 1.320 . S
C84 C85 1.405 . S
C84 H110 0.930 . S
C85 C80 1.479 . S
C85 C84 1.405 . S
C85 H111 0.931 . S
U86 O87 2.454 . S
U86 O88 2.458 . S
U86 C89 2.984 . S
U86 C90 2.847 . S
U86 C103 2.882 . S
U86 O104 2.441 . S
U86 O105 2.420 . S
U86 O106 2.455 . S
U86 O107 2.449 . S
O87 U86 2.454 . S
O87 C89 1.353 . S
O88 U86 2.458 . S
O88 C89 1.286 . S
C89 U86 2.984 . S
C89 O87 1.353 . S
C89 O88 1.286 . S
C89 C91 1.363 . S
C90 C80 1.465 . S
C90 U86 2.847 . S
C90 O104 1.249 . S
C90 O105 1.202 . S
C91 C89 1.363 . S
C91 C93 1.408 . S
C91 C96 1.342 . S
C92 C93 1.310 . S
C92 C95 1.461 . S
C92 H112 0.932 . S
C93 C91 1.408 . S
C93 C92 1.310 . S
C93 H113 0.930 . S
C94 C95 1.474 . S
C94 C96 1.285 . S
C94 H114 0.929 . S
C95 C92 1.461 . S
C95 C94 1.474 . S
C96 C91 1.342 . S
C96 C94 1.285 . S
C96 H115 0.930 . S
C97 C100 1.424 . S
C97 C102 1.245 . S
C97 C103 1.428 . S
C98 C101 1.260 . S
C98 C102 1.477 . S
C98 H116 0.932 . S
C99 C100 1.384 . S
C99 C101 1.479 . S
C99 H117 0.929 . S
C100 C97 1.424 . S
C100 C99 1.384 . S
C100 H118 0.928 . S
C101 C98 1.260 . S
C101 C99 1.479 . S
C102 C97 1.245 . S
C102 C98 1.477 . S
C102 H119 0.932 . S
C103 U86 2.882 . S
C103 C97 1.428 . S
C103 O106 1.301 . S
C103 O107 1.282 . S
O104 U86 2.441 . S
O104 C90 1.249 . S
O105 U86 2.420 . S
O105 C90 1.202 . S
O106 U86 2.455 . S
O106 C103 1.301 . S
O107 U86 2.449 . S
O107 C103 1.282 . S
H108 C81 0.931 . S
H109 C83 0.929 . S
H110 C84 0.930 . S
H111 C85 0.931 . S
H112 C92 0.932 . S
H113 C93 0.930 . S
H114 C94 0.929 . S
H115 C96 0.930 . S
H116 C98 0.932 . S
H117 C99 0.929 . S
H118 C100 0.928 . S
H119 C102 0.932 . S
C120 C121 1.264 . S
C120 C125 1.479 . S
C120 C130 1.465 . S
C121 C120 1.264 . S
C121 C123 1.339 . S
C121 H148 0.931 . S
C122 C123 1.395 . S
C122 C124 1.320 . S
C123 C121 1.339 . S
C123 C122 1.395 . S
C123 H149 0.929 . S
C124 C122 1.320 . S
C124 C125 1.405 . S
C124 H150 0.930 . S
C125 C120 1.479 . S
C125 C124 1.405 . S
C125 H151 0.931 . S
U126 O127 2.454 . S
U126 O128 2.458 . S
U126 C129 2.984 . S
U126 C130 2.847 . S
U126 C143 2.882 . S
U126 O144 2.441 . S
U126 O145 2.420 . S
U126 O146 2.455 . S
U126 O147 2.449 . S
O127 U126 2.454 . S
O127 C129 1.353 . S
O128 U126 2.458 . S
O128 C129 1.286 . S
C129 U126 2.984 . S
C129 O127 1.353 . S
C129 O128 1.286 . S
C129 C131 1.363 . S
C130 C120 1.465 . S
C130 U126 2.847 . S
C130 O144 1.249 . S
C130 O145 1.202 . S
C131 C129 1.363 . S
C131 C133 1.408 . S
C131 C136 1.342 . S
C132 C133 1.310 . S
C132 C135 1.461 . S
C132 H152 0.932 . S
C133 C131 1.408 . S
C133 C132 1.310 . S
C133 H153 0.930 . S
C134 C135 1.474 . S
C134 C136 1.285 . S
C134 H154 0.929 . S
C135 C132 1.461 . S
C135 C134 1.474 . S
C136 C131 1.342 . S
C136 C134 1.285 . S
C136 H155 0.930 . S
C137 C140 1.424 . S
C137 C142 1.245 . S
C137 C143 1.428 . S
C138 C141 1.260 . S
C138 C142 1.477 . S
C138 H156 0.932 . S
C139 C140 1.384 . S
C139 C141 1.479 . S
C139 H157 0.929 . S
C140 C137 1.424 . S
C140 C139 1.384 . S
C140 H158 0.928 . S
C141 C138 1.260 . S
C141 C139 1.479 . S
C142 C137 1.245 . S
C142 C138 1.477 . S
C142 H159 0.932 . S
C143 U126 2.882 . S
C143 C137 1.428 . S
C143 O146 1.301 . S
C143 O147 1.282 . S
O144 U126 2.441 . S
O144 C130 1.249 . S
O145 U126 2.420 . S
O145 C130 1.202 . S
O146 U126 2.455 . S
O146 C143 1.301 . S
O147 U126 2.449 . S
O147 C143 1.282 . S
H148 C121 0.931 . S
H149 C123 0.929 . S
H150 C124 0.930 . S
H151 C125 0.931 . S
H152 C132 0.932 . S
H153 C133 0.930 . S
H154 C134 0.929 . S
H155 C136 0.930 . S
H156 C138 0.932 . S
H157 C139 0.929 . S
H158 C140 0.928 . S
H159 C142 0.932 . S
C160 C161 1.264 . S
C160 C165 1.479 . S
C160 C170 1.465 . S
C161 C160 1.264 . S
C161 C163 1.339 . S
C161 H188 0.931 . S
C162 C163 1.395 . S
C162 C164 1.320 . S
C163 C161 1.339 . S
C163 C162 1.395 . S
C163 H189 0.929 . S
C164 C162 1.320 . S
C164 C165 1.405 . S
C164 H190 0.930 . S
C165 C160 1.479 . S
C165 C164 1.405 . S
C165 H191 0.931 . S
U166 O167 2.454 . S
U166 O168 2.458 . S
U166 C169 2.984 . S
U166 C170 2.847 . S
U166 C183 2.882 . S
U166 O184 2.441 . S
U166 O185 2.420 . S
U166 O186 2.455 . S
U166 O187 2.449 . S
O167 U166 2.454 . S
O167 C169 1.353 . S
O168 U166 2.458 . S
O168 C169 1.286 . S
C169 U166 2.984 . S
C169 O167 1.353 . S
C169 O168 1.286 . S
C169 C171 1.363 . S
C170 C160 1.465 . S
C170 U166 2.847 . S
C170 O184 1.249 . S
C170 O185 1.202 . S
C171 C169 1.363 . S
C171 C173 1.408 . S
C171 C176 1.342 . S
C172 C173 1.310 . S
C172 C175 1.461 . S
C172 H192 0.932 . S
C173 C171 1.408 . S
C173 C172 1.310 . S
C173 H193 0.930 . S
C174 C175 1.474 . S
C174 C176 1.285 . S
C174 H194 0.929 . S
C175 C172 1.461 . S
C175 C174 1.474 . S
C176 C171 1.342 . S
C176 C174 1.285 . S
C176 H195 0.930 . S
C177 C180 1.424 . S
C177 C182 1.245 . S
C177 C183 1.428 . S
C178 C181 1.260 . S
C178 C182 1.477 . S
C178 H196 0.932 . S
C179 C180 1.384 . S
C179 C181 1.479 . S
C179 H197 0.929 . S
C180 C177 1.424 . S
C180 C179 1.384 . S
C180 H198 0.928 . S
C181 C178 1.260 . S
C181 C179 1.479 . S
C182 C177 1.245 . S
C182 C178 1.477 . S
C182 H199 0.932 . S
C183 U166 2.882 . S
C183 C177 1.428 . S
C183 O186 1.301 . S
C183 O187 1.282 . S
O184 U166 2.441 . S
O184 C170 1.249 . S
O185 U166 2.420 . S
O185 C170 1.202 . S
O186 U166 2.455 . S
O186 C183 1.301 . S
O187 U166 2.449 . S
O187 C183 1.282 . S
H188 C161 0.931 . S
H189 C163 0.929 . S
H190 C164 0.930 . S
H191 C165 0.931 . S
H192 C172 0.932 . S
H193 C173 0.930 . S
H194 C174 0.929 . S
H195 C176 0.930 . S
H196 C178 0.932 . S
H197 C179 0.929 . S
H198 C180 0.928 . S
H199 C182 0.932 . S
C200 C201 1.264 . S
C200 C205 1.479 . S
C200 C210 1.465 . S
C201 C200 1.264 . S
C201 C203 1.339 . S
C201 H228 0.931 . S
C202 C203 1.395 . S
C202 C204 1.320 . S
C203 C201 1.339 . S
C203 C202 1.395 . S
C203 H229 0.929 . S
C204 C202 1.320 . S
C204 C205 1.405 . S
C204 H230 0.930 . S
C205 C200 1.479 . S
C205 C204 1.405 . S
C205 H231 0.931 . S
U206 O207 2.454 . S
U206 O208 2.458 . S
U206 C209 2.984 . S
U206 C210 2.847 . S
U206 C223 2.882 . S
U206 O224 2.441 . S
U206 O225 2.420 . S
U206 O226 2.455 . S
U206 O227 2.449 . S
O207 U206 2.454 . S
O207 C209 1.353 . S
O208 U206 2.458 . S
O208 C209 1.286 . S
C209 U206 2.984 . S
C209 O207 1.353 . S
C209 O208 1.286 . S
C209 C211 1.363 . S
C210 C200 1.465 . S
C210 U206 2.847 . S
C210 O224 1.249 . S
C210 O225 1.202 . S
C211 C209 1.363 . S
C211 C213 1.408 . S
C211 C216 1.342 . S
C212 C213 1.310 . S
C212 C215 1.461 . S
C212 H232 0.932 . S
C213 C211 1.408 . S
C213 C212 1.310 . S
C213 H233 0.930 . S
C214 C215 1.474 . S
C214 C216 1.285 . S
C214 H234 0.929 . S
C215 C212 1.461 . S
C215 C214 1.474 . S
C216 C211 1.342 . S
C216 C214 1.285 . S
C216 H235 0.930 . S
C217 C220 1.424 . S
C217 C222 1.245 . S
C217 C223 1.428 . S
C218 C221 1.260 . S
C218 C222 1.477 . S
C218 H236 0.932 . S
C219 C220 1.384 . S
C219 C221 1.479 . S
C219 H237 0.929 . S
C220 C217 1.424 . S
C220 C219 1.384 . S
C220 H238 0.928 . S
C221 C218 1.260 . S
C221 C219 1.479 . S
C222 C217 1.245 . S
C222 C218 1.477 . S
C222 H239 0.932 . S
C223 U206 2.882 . S
C223 C217 1.428 . S
C223 O226 1.301 . S
C223 O227 1.282 . S
O224 U206 2.441 . S
O224 C210 1.249 . S
O225 U206 2.420 . S
O225 C210 1.202 . S
O226 U206 2.455 . S
O226 C223 1.301 . S
O227 U206 2.449 . S
O227 C223 1.282 . S
H228 C201 0.931 . S
H229 C203 0.929 . S
H230 C204 0.930 . S
H231 C205 0.931 . S
H232 C212 0.932 . S
H233 C213 0.930 . S
H234 C214 0.929 . S
H235 C216 0.930 . S
H236 C218 0.932 . S
H237 C219 0.929 . S
H238 C220 0.928 . S
H239 C222 0.932 . S
C240 C241 1.264 . S
C240 C245 1.479 . S
C240 C250 1.465 . S
C241 C240 1.264 . S
C241 C243 1.339 . S
C241 H268 0.931 . S
C242 C243 1.395 . S
C242 C244 1.320 . S
C243 C241 1.339 . S
C243 C242 1.395 . S
C243 H269 0.929 . S
C244 C242 1.320 . S
C244 C245 1.405 . S
C244 H270 0.930 . S
C245 C240 1.479 . S
C245 C244 1.405 . S
C245 H271 0.931 . S
U246 O247 2.454 . S
U246 O248 2.458 . S
U246 C249 2.984 . S
U246 C250 2.847 . S
U246 C263 2.882 . S
U246 O264 2.441 . S
U246 O265 2.420 . S
U246 O266 2.455 . S
U246 O267 2.449 . S
O247 U246 2.454 . S
O247 C249 1.353 . S
O248 U246 2.458 . S
O248 C249 1.286 . S
C249 U246 2.984 . S
C249 O247 1.353 . S
C249 O248 1.286 . S
C249 C251 1.363 . S
C250 C240 1.465 . S
C250 U246 2.847 . S
C250 O264 1.249 . S
C250 O265 1.202 . S
C251 C249 1.363 . S
C251 C253 1.408 . S
C251 C256 1.342 . S
C252 C253 1.310 . S
C252 C255 1.461 . S
C252 H272 0.932 . S
C253 C251 1.408 . S
C253 C252 1.310 . S
C253 H273 0.930 . S
C254 C255 1.474 . S
C254 C256 1.285 . S
C254 H274 0.929 . S
C255 C252 1.461 . S
C255 C254 1.474 . S
C256 C251 1.342 . S
C256 C254 1.285 . S
C256 H275 0.930 . S
C257 C260 1.424 . S
C257 C262 1.245 . S
C257 C263 1.428 . S
C258 C261 1.260 . S
C258 C262 1.477 . S
C258 H276 0.932 . S
C259 C260 1.384 . S
C259 C261 1.479 . S
C259 H277 0.929 . S
C260 C257 1.424 . S
C260 C259 1.384 . S
C260 H278 0.928 . S
C261 C258 1.260 . S
C261 C259 1.479 . S
C262 C257 1.245 . S
C262 C258 1.477 . S
C262 H279 0.932 . S
C263 U246 2.882 . S
C263 C257 1.428 . S
C263 O266 1.301 . S
C263 O267 1.282 . S
O264 U246 2.441 . S
O264 C250 1.249 . S
O265 U246 2.420 . S
O265 C250 1.202 . S
O266 U246 2.455 . S
O266 C263 1.301 . S
O267 U246 2.449 . S
O267 C263 1.282 . S
H268 C241 0.931 . S
H269 C243 0.929 . S
H270 C244 0.930 . S
H271 C245 0.931 . S
H272 C252 0.932 . S
H273 C253 0.930 . S
H274 C254 0.929 . S
H275 C256 0.930 . S
H276 C258 0.932 . S
H277 C259 0.929 . S
H278 C260 0.928 . S
H279 C262 0.932 . S
C280 C281 1.264 . S
C280 C285 1.479 . S
C280 C290 1.465 . S
C281 C280 1.264 . S
C281 C283 1.339 . S
C281 H308 0.931 . S
C282 C283 1.395 . S
C282 C284 1.320 . S
C283 C281 1.339 . S
C283 C282 1.395 . S
C283 H309 0.929 . S
C284 C282 1.320 . S
C284 C285 1.405 . S
C284 H310 0.930 . S
C285 C280 1.479 . S
C285 C284 1.405 . S
C285 H311 0.931 . S
U286 O287 2.454 . S
U286 O288 2.458 . S
U286 C289 2.984 . S
U286 C290 2.847 . S
U286 C303 2.882 . S
U286 O304 2.441 . S
U286 O305 2.420 . S
U286 O306 2.455 . S
U286 O307 2.449 . S
O287 U286 2.454 . S
O287 C289 1.353 . S
O288 U286 2.458 . S
O288 C289 1.286 . S
C289 U286 2.984 . S
C289 O287 1.353 . S
C289 O288 1.286 . S
C289 C291 1.363 . S
C290 C280 1.465 . S
C290 U286 2.847 . S
C290 O304 1.249 . S
C290 O305 1.202 . S
C291 C289 1.363 . S
C291 C293 1.408 . S
C291 C296 1.342 . S
C292 C293 1.310 . S
C292 C295 1.461 . S
C292 H312 0.932 . S
C293 C291 1.408 . S
C293 C292 1.310 . S
C293 H313 0.930 . S
C294 C295 1.474 . S
C294 C296 1.285 . S
C294 H314 0.929 . S
C295 C292 1.461 . S
C295 C294 1.474 . S
C296 C291 1.342 . S
C296 C294 1.285 . S
C296 H315 0.930 . S
C297 C300 1.424 . S
C297 C302 1.245 . S
C297 C303 1.428 . S
C298 C301 1.260 . S
C298 C302 1.477 . S
C298 H316 0.932 . S
C299 C300 1.384 . S
C299 C301 1.479 . S
C299 H317 0.929 . S
C300 C297 1.424 . S
C300 C299 1.384 . S
C300 H318 0.928 . S
C301 C298 1.260 . S
C301 C299 1.479 . S
C302 C297 1.245 . S
C302 C298 1.477 . S
C302 H319 0.932 . S
C303 U286 2.882 . S
C303 C297 1.428 . S
C303 O306 1.301 . S
C303 O307 1.282 . S
O304 U286 2.441 . S
O304 C290 1.249 . S
O305 U286 2.420 . S
O305 C290 1.202 . S
O306 U286 2.455 . S
O306 C303 1.301 . S
O307 U286 2.449 . S
O307 C303 1.282 . S
H308 C281 0.931 . S
H309 C283 0.929 . S
H310 C284 0.930 . S
H311 C285 0.931 . S
H312 C292 0.932 . S
H313 C293 0.930 . S
H314 C294 0.929 . S
H315 C296 0.930 . S
H316 C298 0.932 . S
H317 C299 0.929 . S
H318 C300 0.928 . S
H319 C302 0.932 . S
Dy320 O323 2.307 1_545 S
Dy320 O325 2.395 . S
Dy320 O326 2.379 . S
Dy320 O328 2.339 1_545 S
Dy320 O330 2.298 . S
Dy320 O334 2.275 . S
Dy320 C342 2.738 . S
Dy321 O324 2.298 1_645 S
Dy321 O327 2.275 1_545 S
Dy321 O329 2.307 . S
Dy321 O331 2.395 1_545 S
Dy321 O332 2.379 1_545 S
Dy321 O335 2.353 . S
Dy321 C351 2.738 1_545 S
C322 O334 1.254 . S
C322 O335 1.227 1_455 S
O323 Dy320 2.307 1_565 S
O323 C333 1.266 . S
O324 Dy321 2.298 1_465 S
O324 C333 1.236 . S
O325 Dy320 2.395 . S
O325 C342 1.255 . S
O326 Dy320 2.379 . S
O326 C342 1.249 . S
O327 Dy321 2.275 1_565 S
O327 C343 1.254 . S
O328 Dy320 2.339 1_565 S
O328 C343 1.257 1_455 S
O329 Dy321 2.307 . S
O329 C344 1.266 . S
O330 Dy320 2.298 . S
O330 C344 1.236 1_455 S
O331 Dy321 2.395 1_565 S
O331 C351 1.255 . S
O332 Dy321 2.379 1_565 S
O332 C351 1.249 . S
C333 O323 1.266 . S
C333 O324 1.236 . S
O334 Dy320 2.275 . S
O334 C322 1.254 . S
O335 Dy321 2.353 . S
O335 C322 1.227 1_655 S
C336 C339 1.344 . S
C336 C340 1.328 . S
C336 C342 1.516 . S
C337 C338 1.304 . S
C337 C341 1.323 . S
C338 C337 1.304 . S
C338 C339 1.371 . S
C338 H352 0.930 . S
C339 C336 1.344 . S
C339 C338 1.371 . S
C339 H353 0.931 . S
C340 C336 1.328 . S
C340 C341 1.433 . S
C340 H354 0.931 . S
C341 C337 1.323 . S
C341 C340 1.433 . S
C341 H355 0.933 . S
C342 Dy320 2.738 . S
C342 O325 1.255 . S
C342 O326 1.249 . S
C342 C336 1.516 . S
C343 O327 1.254 . S
C343 O328 1.257 1_655 S
C344 O329 1.266 . S
C344 O330 1.236 1_655 S
C345 C348 1.344 . S
C345 C349 1.328 . S
C345 C351 1.516 . S
C346 C347 1.304 . S
C346 C350 1.323 . S
C347 C346 1.304 . S
C347 C348 1.371 . S
C347 H356 0.930 . S
C348 C345 1.344 . S
C348 C347 1.371 . S
C348 H357 0.931 . S
C349 C345 1.328 . S
C349 C350 1.433 . S
C349 H358 0.931 . S
C350 C346 1.323 . S
C350 C349 1.433 . S
C350 H359 0.933 . S
C351 Dy321 2.738 1_565 S
C351 O331 1.255 . S
C351 O332 1.249 . S
C351 C345 1.516 . S
H352 C338 0.930 . S
H353 C339 0.931 . S
H354 C340 0.931 . S
H355 C341 0.933 . S
H356 C347 0.930 . S
H357 C348 0.931 . S
H358 C349 0.931 . S
H359 C350 0.933 . S
Dy360 O363 2.292 1_566 S
Dy360 O365 2.413 . S
Dy360 O366 2.382 . S
Dy360 O368 2.322 1_565 S
Dy360 O370 2.310 . S
Dy360 O374 2.288 1_556 S
Dy360 C382 2.750 . S
Dy361 O364 2.298 . S
Dy361 O367 2.275 1_554 S
Dy361 O369 2.307 1_544 S
Dy361 O371 2.395 . S
Dy361 O372 2.379 . S
Dy361 O375 2.339 1_545 S
Dy361 C391 2.738 . S
C362 O374 1.254 . S
C362 O375 1.257 . S
O363 Dy360 2.292 1_544 S
O363 C373 1.266 . S
O364 Dy361 2.298 . S
O364 C373 1.236 . S
O365 Dy360 2.413 . S
O365 C382 1.255 . S
O366 Dy360 2.382 . S
O366 C382 1.249 . S
O367 Dy361 2.275 1_556 S
O367 C383 1.254 . S
O368 Dy360 2.322 1_545 S
O368 C383 1.257 . S
O369 Dy361 2.307 1_566 S
O369 C384 1.266 . S
O370 Dy360 2.310 . S
O370 C384 1.236 . S
O371 Dy361 2.395 . S
O371 C391 1.255 . S
O372 Dy361 2.379 . S
O372 C391 1.249 . S
C373 O363 1.266 . S
C373 O364 1.236 . S
O374 Dy360 2.288 1_554 S
O374 C362 1.254 . S
O375 Dy361 2.339 1_565 S
O375 C362 1.257 . S
C376 C379 1.344 . S
C376 C380 1.328 . S
C376 C382 1.516 . S
C377 C378 1.304 . S
C377 C381 1.323 . S
C378 C377 1.304 . S
C378 C379 1.371 . S
C378 H392 0.930 . S
C379 C376 1.344 . S
C379 C378 1.371 . S
C379 H393 0.931 . S
C380 C376 1.328 . S
C380 C381 1.433 . S
C380 H394 0.931 . S
C381 C377 1.323 . S
C381 C380 1.433 . S
C381 H395 0.933 . S
C382 Dy360 2.750 . S
C382 O365 1.255 . S
C382 O366 1.249 . S
C382 C376 1.516 . S
C383 O367 1.254 . S
C383 O368 1.257 . S
C384 O369 1.266 . S
C384 O370 1.236 . S
C385 C388 1.344 . S
C385 C389 1.328 . S
C385 C391 1.516 . S
C386 C387 1.304 . S
C386 C390 1.323 . S
C387 C386 1.304 . S
C387 C388 1.371 . S
C387 H396 0.930 . S
C388 C385 1.344 . S
C388 C387 1.371 . S
C388 H397 0.931 . S
C389 C385 1.328 . S
C389 C390 1.433 . S
C389 H398 0.931 . S
C390 C386 1.323 . S
C390 C389 1.433 . S
C390 H399 0.933 . S
C391 Dy361 2.738 . S
C391 O371 1.255 . S
C391 O372 1.249 . S
C391 C385 1.516 . S
H392 C378 0.930 . S
H393 C379 0.931 . S
H394 C380 0.931 . S
H395 C381 0.933 . S
H396 C387 0.930 . S
H397 C388 0.931 . S
H398 C389 0.931 . S
H399 C390 0.933 . S
Dy400 O403 2.307 . S
Dy400 O405 2.395 . S
Dy400 O406 2.379 . S
Dy400 O408 2.339 . S
Dy400 O410 2.298 . S
Dy400 O414 2.275 . S
Dy400 C422 2.738 . S
Dy401 O404 2.298 . S
Dy401 O407 2.275 . S
Dy401 O409 2.307 . S
Dy401 O411 2.395 . S
Dy401 O412 2.379 . S
Dy401 O415 2.339 . S
Dy401 C431 2.738 . S
C402 O414 1.254 . S
C402 O415 1.257 . S
O403 Dy400 2.307 . S
O403 C413 1.266 . S
O404 Dy401 2.298 . S
O404 C413 1.236 . S
O405 Dy400 2.395 . S
O405 C422 1.255 . S
O406 Dy400 2.379 . S
O406 C422 1.249 . S
O407 Dy401 2.275 . S
O407 C423 1.254 . S
O408 Dy400 2.339 . S
O408 C423 1.257 . S
O409 Dy401 2.307 . S
O409 C424 1.266 . S
O410 Dy400 2.298 . S
O410 C424 1.236 . S
O411 Dy401 2.395 . S
O411 C431 1.255 . S
O412 Dy401 2.379 . S
O412 C431 1.249 . S
C413 O403 1.266 . S
C413 O404 1.236 . S
O414 Dy400 2.275 . S
O414 C402 1.254 . S
O415 Dy401 2.339 . S
O415 C402 1.257 . S
C416 C419 1.344 . S
C416 C420 1.328 . S
C416 C422 1.516 . S
C417 C418 1.304 . S
C417 C421 1.323 . S
C418 C417 1.304 . S
C418 C419 1.371 . S
C418 H432 0.930 . S
C419 C416 1.344 . S
C419 C418 1.371 . S
C419 H433 0.931 . S
C420 C416 1.328 . S
C420 C421 1.433 . S
C420 H434 0.931 . S
C421 C417 1.323 . S
C421 C420 1.433 . S
C421 H435 0.933 . S
C422 Dy400 2.738 . S
C422 O405 1.255 . S
C422 O406 1.249 . S
C422 C416 1.516 . S
C423 O407 1.254 . S
C423 O408 1.257 . S
C424 O409 1.266 . S
C424 O410 1.236 . S
C425 C428 1.344 . S
C425 C429 1.328 . S
C425 C431 1.516 . S
C426 C427 1.304 . S
C426 C430 1.323 . S
C427 C426 1.304 . S
C427 C428 1.371 . S
C427 H436 0.930 . S
C428 C425 1.344 . S
C428 C427 1.371 . S
C428 H437 0.931 . S
C429 C425 1.328 . S
C429 C430 1.433 . S
C429 H438 0.931 . S
C430 C426 1.323 . S
C430 C429 1.433 . S
C430 H439 0.933 . S
C431 Dy401 2.738 . S
C431 O411 1.255 . S
C431 O412 1.249 . S
C431 C425 1.516 . S
H432 C418 0.930 . S
H433 C419 0.931 . S
H434 C420 0.931 . S
H435 C421 0.933 . S
H436 C427 0.930 . S
H437 C428 0.931 . S
H438 C429 0.931 . S
H439 C430 0.933 . S
Dy440 O443 2.307 1_556 S
Dy440 O445 2.395 1_455 S
Dy440 O446 2.379 1_455 S
Dy440 O448 2.339 . S
Dy440 O450 2.298 1_455 S
Dy440 O454 2.275 1_456 S
Dy440 C462 2.738 1_455 S
Dy441 O444 2.298 . S
Dy441 O447 2.275 1_554 S
Dy441 O449 2.307 1_455 S
Dy441 O451 2.395 . S
Dy441 O452 2.379 . S
Dy441 O455 2.339 1_455 S
Dy441 C471 2.738 . S
C442 O454 1.254 . S
C442 O455 1.257 . S
O443 Dy440 2.307 1_554 S
O443 C453 1.266 . S
O444 Dy441 2.298 . S
O444 C453 1.236 . S
O445 Dy440 2.395 1_655 S
O445 C462 1.255 . S
O446 Dy440 2.379 1_655 S
O446 C462 1.249 . S
O447 Dy441 2.275 1_556 S
O447 C463 1.254 . S
O448 Dy440 2.339 . S
O448 C463 1.257 . S
O449 Dy441 2.307 1_655 S
O449 C464 1.266 1_554 S
O450 Dy440 2.298 1_655 S
O450 C464 1.236 . S
O451 Dy441 2.395 . S
O451 C471 1.255 . S
O452 Dy441 2.379 . S
O452 C471 1.249 . S
C453 O443 1.266 . S
C453 O444 1.236 . S
O454 Dy440 2.275 1_654 S
O454 C442 1.254 . S
O455 Dy441 2.339 1_655 S
O455 C442 1.257 . S
C456 C459 1.344 . S
C456 C460 1.328 . S
C456 C462 1.516 . S
C457 C458 1.304 . S
C457 C461 1.323 . S
C458 C457 1.304 . S
C458 C459 1.371 . S
C458 H472 0.930 . S
C459 C456 1.344 . S
C459 C458 1.371 . S
C459 H473 0.931 . S
C460 C456 1.328 . S
C460 C461 1.433 . S
C460 H474 0.931 . S
C461 C457 1.323 . S
C461 C460 1.433 . S
C461 H475 0.933 . S
C462 Dy440 2.738 1_655 S
C462 O445 1.255 . S
C462 O446 1.249 . S
C462 C456 1.516 . S
C463 O447 1.254 . S
C463 O448 1.257 . S
C464 O449 1.266 1_556 S
C464 O450 1.236 . S
C465 C468 1.344 . S
C465 C469 1.328 . S
C465 C471 1.516 . S
C466 C467 1.304 . S
C466 C470 1.323 . S
C467 C466 1.304 . S
C467 C468 1.371 . S
C467 H476 0.930 . S
C468 C465 1.344 . S
C468 C467 1.371 . S
C468 H477 0.931 . S
C469 C465 1.328 . S
C469 C470 1.433 . S
C469 H478 0.931 . S
C470 C466 1.323 . S
C470 C469 1.433 . S
C470 H479 0.933 . S
C471 Dy441 2.738 . S
C471 O451 1.255 . S
C471 O452 1.249 . S
C471 C465 1.516 . S
H472 C458 0.930 . S
H473 C459 0.931 . S
H474 C460 0.931 . S
H475 C461 0.933 . S
H476 C467 0.930 . S
H477 C468 0.931 . S
H478 C469 0.931 . S
H479 C470 0.933 . S
C480 C481 1.391 . S
C480 C482 1.394 . S
C480 H496 0.931 . S
C481 C480 1.391 . S
C481 C485 1.376 . S
C482 C480 1.394 . S
C482 C483 1.369 . S
C482 C486 1.531 . S
C483 C482 1.369 . S
C483 C484 1.410 . S
C483 C491 1.503 . S
C484 C483 1.410 . S
C484 C485 1.392 . S
C484 C487 1.511 . S
C485 C481 1.376 . S
C485 C484 1.392 . S
C485 H497 0.929 . S
C486 C482 1.531 . S
C486 H498 0.960 . S
C486 H499 0.962 . S
C486 H500 0.960 . S
C487 C484 1.511 . S
C487 H501 0.961 . S
C487 H502 0.961 . S
C487 H503 0.961 . S
C488 C489 1.370 . S
C488 C490 1.363 . S
C488 H504 0.931 . S
C489 C488 1.370 . S
C489 C493 1.408 . S
C490 C488 1.363 . S
C490 C491 1.370 . S
C490 C494 1.524 . S
C491 C483 1.503 . S
C491 C490 1.370 . S
C491 C492 1.403 . S
C492 C491 1.403 . S
C492 C493 1.404 . S
C492 C495 1.539 . S
C493 C489 1.408 . S
C493 C492 1.404 . S
C493 H505 0.930 . S
C494 C490 1.524 . S
C494 H506 0.956 . S
C494 H507 0.961 . S
C494 H508 0.961 . S
C495 C492 1.539 . S
C495 H509 0.958 . S
C495 H510 0.961 . S
C495 H511 0.960 . S
H496 C480 0.931 . S
H497 C485 0.929 . S
H498 C486 0.960 . S
H499 C486 0.962 . S
H500 C486 0.960 . S
H501 C487 0.961 . S
H502 C487 0.961 . S
H503 C487 0.961 . S
H504 C488 0.931 . S
H505 C493 0.930 . S
H506 C494 0.956 . S
H507 C494 0.961 . S
H508 C494 0.961 . S
H509 C495 0.958 . S
H510 C495 0.961 . S
H511 C495 0.960 . S
C512 C513 1.391 . S
C512 C514 1.394 . S
C512 H528 0.931 . S
C513 C512 1.391 . S
C513 C517 1.376 . S
C514 C512 1.394 . S
C514 C515 1.369 . S
C514 C518 1.531 . S
C515 C514 1.369 . S
C515 C516 1.410 . S
C515 C523 1.503 . S
C516 C515 1.410 . S
C516 C517 1.392 . S
C516 C519 1.511 . S
C517 C513 1.376 . S
C517 C516 1.392 . S
C517 H529 0.929 . S
C518 C514 1.531 . S
C518 H530 0.960 . S
C518 H531 0.962 . S
C518 H532 0.960 . S
C519 C516 1.511 . S
C519 H533 0.961 . S
C519 H534 0.961 . S
C519 H535 0.961 . S
C520 C521 1.370 . S
C520 C522 1.363 . S
C520 H536 0.931 . S
C521 C520 1.370 . S
C521 C525 1.408 . S
C522 C520 1.363 . S
C522 C523 1.370 . S
C522 C526 1.524 . S
C523 C515 1.503 . S
C523 C522 1.370 . S
C523 C524 1.403 . S
C524 C523 1.403 . S
C524 C525 1.404 . S
C524 C527 1.539 . S
C525 C521 1.408 . S
C525 C524 1.404 . S
C525 H537 0.930 . S
C526 C522 1.524 . S
C526 H538 0.956 . S
C526 H539 0.961 . S
C526 H540 0.961 . S
C527 C524 1.539 . S
C527 H541 0.958 . S
C527 H542 0.961 . S
C527 H543 0.960 . S
H528 C512 0.931 . S
H529 C517 0.929 . S
H530 C518 0.960 . S
H531 C518 0.962 . S
H532 C518 0.960 . S
H533 C519 0.961 . S
H534 C519 0.961 . S
H535 C519 0.961 . S
H536 C520 0.931 . S
H537 C525 0.930 . S
H538 C526 0.956 . S
H539 C526 0.961 . S
H540 C526 0.961 . S
H541 C527 0.958 . S
H542 C527 0.961 . S
H543 C527 0.960 . S
C544 C545 1.391 . S
C544 C546 1.394 . S
C544 H560 0.931 . S
C545 C544 1.391 . S
C545 C549 1.376 . S
C546 C544 1.394 . S
C546 C547 1.369 . S
C546 C550 1.531 . S
C547 C546 1.369 . S
C547 C548 1.410 . S
C547 C555 1.503 . S
C548 C547 1.410 . S
C548 C549 1.392 . S
C548 C551 1.511 . S
C549 C545 1.376 . S
C549 C548 1.392 . S
C549 H561 0.929 . S
C550 C546 1.531 . S
C550 H562 0.960 . S
C550 H563 0.962 . S
C550 H564 0.960 . S
C551 C548 1.511 . S
C551 H565 0.961 . S
C551 H566 0.961 . S
C551 H567 0.961 . S
C552 C553 1.370 . S
C552 C554 1.363 . S
C552 H568 0.931 . S
C553 C552 1.370 . S
C553 C557 1.408 . S
C554 C552 1.363 . S
C554 C555 1.370 . S
C554 C558 1.524 . S
C555 C547 1.503 . S
C555 C554 1.370 . S
C555 C556 1.403 . S
C556 C555 1.403 . S
C556 C557 1.404 . S
C556 C559 1.539 . S
C557 C553 1.408 . S
C557 C556 1.404 . S
C557 H569 0.930 . S
C558 C554 1.524 . S
C558 H570 0.956 . S
C558 H571 0.961 . S
C558 H572 0.961 . S
C559 C556 1.539 . S
C559 H573 0.958 . S
C559 H574 0.961 . S
C559 H575 0.960 . S
H560 C544 0.931 . S
H561 C549 0.929 . S
H562 C550 0.960 . S
H563 C550 0.962 . S
H564 C550 0.960 . S
H565 C551 0.961 . S
H566 C551 0.961 . S
H567 C551 0.961 . S
H568 C552 0.931 . S
H569 C557 0.930 . S
H570 C558 0.956 . S
H571 C558 0.961 . S
H572 C558 0.961 . S
H573 C559 0.958 . S
H574 C559 0.961 . S
H575 C559 0.960 . S
C576 C577 1.391 . S
C576 C578 1.394 . S
C576 H592 0.931 . S
C577 C576 1.391 . S
C577 C581 1.376 . S
C578 C576 1.394 . S
C578 C579 1.369 . S
C578 C582 1.531 . S
C579 C578 1.369 . S
C579 C580 1.410 . S
C579 C587 1.503 . S
C580 C579 1.410 . S
C580 C581 1.392 . S
C580 C583 1.511 . S
C581 C577 1.376 . S
C581 C580 1.392 . S
C581 H593 0.929 . S
C582 C578 1.531 . S
C582 H594 0.960 . S
C582 H595 0.963 1_655 S
C582 H596 0.960 1_655 S
C583 C580 1.511 . S
C583 H597 0.961 . S
C583 H598 0.961 . S
C583 H599 0.961 . S
C584 C585 1.370 . S
C584 C586 1.363 . S
C584 H600 0.931 . S
C585 C584 1.370 . S
C585 C589 1.408 . S
C586 C584 1.363 . S
C586 C587 1.370 . S
C586 C590 1.524 . S
C587 C579 1.503 . S
C587 C586 1.370 . S
C587 C588 1.403 . S
C588 C587 1.403 . S
C588 C589 1.404 . S
C588 C591 1.539 . S
C589 C585 1.408 . S
C589 C588 1.404 . S
C589 H601 0.930 . S
C590 C586 1.524 . S
C590 H602 0.956 . S
C590 H603 0.961 . S
C590 H604 0.961 . S
C591 C588 1.539 . S
C591 H605 0.958 . S
C591 H606 0.961 . S
C591 H607 0.960 . S
H592 C576 0.931 . S
H593 C581 0.929 . S
H594 C582 0.960 . S
H595 C582 0.963 1_455 S
H596 C582 0.960 1_455 S
H597 C583 0.961 . S
H598 C583 0.961 . S
H599 C583 0.961 . S
H600 C584 0.931 . S
H601 C589 0.930 . S
H602 C590 0.956 . S
H603 C590 0.961 . S
H604 C590 0.961 . S
H605 C591 0.958 . S
H606 C591 0.961 . S
H607 C591 0.960 . S
C608 C609 1.391 . S
C608 C610 1.394 . S
C608 H624 0.931 . S
C609 C608 1.391 . S
C609 C613 1.376 . S
C610 C608 1.394 . S
C610 C611 1.369 . S
C610 C614 1.531 . S
C611 C610 1.369 . S
C611 C612 1.410 . S
C611 C619 1.503 . S
C612 C611 1.410 . S
C612 C613 1.392 . S
C612 C615 1.511 . S
C613 C609 1.376 . S
C613 C612 1.392 . S
C613 H625 0.929 . S
C614 C610 1.531 . S
C614 H626 0.960 . S
C614 H627 0.962 . S
C614 H628 0.960 . S
C615 C612 1.511 . S
C615 H629 0.961 . S
C615 H630 0.961 . S
C615 H631 0.961 . S
C616 C617 1.370 . S
C616 C618 1.363 . S
C616 H632 0.931 . S
C617 C616 1.370 . S
C617 C621 1.408 . S
C618 C616 1.363 . S
C618 C619 1.370 . S
C618 C622 1.524 . S
C619 C611 1.503 . S
C619 C618 1.370 . S
C619 C620 1.403 . S
C620 C619 1.403 . S
C620 C621 1.404 . S
C620 C623 1.539 . S
C621 C617 1.408 . S
C621 C620 1.404 . S
C621 H633 0.930 . S
C622 C618 1.524 . S
C622 H634 0.956 . S
C622 H635 0.961 . S
C622 H636 0.961 . S
C623 C620 1.539 . S
C623 H637 0.958 . S
C623 H638 0.961 . S
C623 H639 0.960 . S
H624 C608 0.931 . S
H625 C613 0.929 . S
H626 C614 0.960 . S
H627 C614 0.962 . S
H628 C614 0.960 . S
H629 C615 0.961 . S
H630 C615 0.961 . S
H631 C615 0.961 . S
H632 C616 0.931 . S
H633 C621 0.930 . S
H634 C622 0.956 . S
H635 C622 0.961 . S
H636 C622 0.961 . S
H637 C623 0.958 . S
H638 C623 0.961 . S
H639 C623 0.960 . S
C640 C641 1.391 . S
C640 C642 1.394 . S
C640 H656 0.931 . S
C641 C640 1.391 . S
C641 C645 1.376 . S
C642 C640 1.394 . S
C642 C643 1.369 . S
C642 C646 1.531 . S
C643 C642 1.369 . S
C643 C644 1.410 . S
C643 C651 1.503 . S
C644 C643 1.410 . S
C644 C645 1.392 . S
C644 C647 1.511 . S
C645 C641 1.376 . S
C645 C644 1.392 . S
C645 H657 0.929 . S
C646 C642 1.531 . S
C646 H658 0.960 . S
C646 H659 0.948 1_455 S
C646 H660 0.960 . S
C647 C644 1.511 . S
C647 H661 0.961 . S
C647 H662 0.961 . S
C647 H663 0.961 . S
C648 C649 1.370 . S
C648 C650 1.363 . S
C648 H664 0.931 . S
C649 C648 1.370 . S
C649 C653 1.408 . S
C650 C648 1.363 . S
C650 C651 1.370 . S
C650 C654 1.524 . S
C651 C643 1.503 . S
C651 C650 1.370 . S
C651 C652 1.403 . S
C652 C651 1.403 . S
C652 C653 1.404 . S
C652 C655 1.539 . S
C653 C649 1.408 . S
C653 C652 1.404 . S
C653 H665 0.930 . S
C654 C650 1.524 . S
C654 H666 0.956 . S
C654 H667 0.961 . S
C654 H668 0.961 . S
C655 C652 1.539 . S
C655 H669 0.958 . S
C655 H670 0.961 . S
C655 H671 0.960 . S
H656 C640 0.931 . S
H657 C645 0.929 . S
H658 C646 0.960 . S
H659 C646 0.948 1_655 S
H660 C646 0.960 . S
H661 C647 0.961 . S
H662 C647 0.961 . S
H663 C647 0.961 . S
H664 C648 0.931 . S
H665 C653 0.930 . S
H666 C654 0.956 . S
H667 C654 0.961 . S
H668 C654 0.961 . S
H669 C655 0.958 . S
H670 C655 0.961 . S
H671 C655 0.960 . S
C672 C673 1.391 . S
C672 C674 1.394 . S
C672 H688 0.931 . S
C673 C672 1.391 . S
C673 C677 1.376 . S
C674 C672 1.394 . S
C674 C675 1.369 . S
C674 C678 1.531 . S
C675 C674 1.369 . S
C675 C676 1.410 . S
C675 C683 1.503 . S
C676 C675 1.410 . S
C676 C677 1.392 . S
C676 C679 1.511 . S
C677 C673 1.376 . S
C677 C676 1.392 . S
C677 H689 0.929 . S
C678 C674 1.531 . S
C678 H690 0.960 . S
C678 H691 0.962 . S
C678 H692 0.960 . S
C679 C676 1.511 . S
C679 H693 0.961 . S
C679 H694 0.961 . S
C679 H695 0.961 . S
C680 C681 1.370 . S
C680 C682 1.363 . S
C680 H696 0.931 . S
C681 C680 1.370 . S
C681 C685 1.408 . S
C682 C680 1.363 . S
C682 C683 1.370 . S
C682 C686 1.524 . S
C683 C675 1.503 . S
C683 C682 1.370 . S
C683 C684 1.403 . S
C684 C683 1.403 . S
C684 C685 1.404 . S
C684 C687 1.539 . S
C685 C681 1.408 . S
C685 C684 1.404 . S
C685 H697 0.930 . S
C686 C682 1.524 . S
C686 H698 0.956 . S
C686 H699 0.961 . S
C686 H700 0.961 . S
C687 C684 1.539 . S
C687 H701 0.958 . S
C687 H702 0.961 . S
C687 H703 0.960 . S
H688 C672 0.931 . S
H689 C677 0.929 . S
H690 C678 0.960 . S
H691 C678 0.962 . S
H692 C678 0.960 . S
H693 C679 0.961 . S
H694 C679 0.961 . S
H695 C679 0.961 . S
H696 C680 0.931 . S
H697 C685 0.930 . S
H698 C686 0.956 . S
H699 C686 0.961 . S
H700 C686 0.961 . S
H701 C687 0.958 . S
H702 C687 0.961 . S
H703 C687 0.960 . S
C704 C705 1.391 . S
C704 C706 1.394 . S
C704 H720 0.931 . S
C705 C704 1.391 . S
C705 C709 1.376 . S
C706 C704 1.394 . S
C706 C707 1.369 . S
C706 C710 1.531 . S
C707 C706 1.369 . S
C707 C708 1.410 . S
C707 C715 1.503 . S
C708 C707 1.410 . S
C708 C709 1.392 . S
C708 C711 1.511 . S
C709 C705 1.376 . S
C709 C708 1.392 . S
C709 H721 0.929 . S
C710 C706 1.531 . S
C710 H722 0.960 . S
C710 H723 0.962 . S
C710 H724 0.960 . S
C711 C708 1.511 . S
C711 H725 0.961 . S
C711 H726 0.961 . S
C711 H727 0.961 . S
C712 C713 1.370 . S
C712 C714 1.363 . S
C712 H728 0.931 . S
C713 C712 1.370 . S
C713 C717 1.408 . S
C714 C712 1.363 . S
C714 C715 1.370 . S
C714 C718 1.524 . S
C715 C707 1.503 . S
C715 C714 1.370 . S
C715 C716 1.403 . S
C716 C715 1.403 . S
C716 C717 1.404 . S
C716 C719 1.539 . S
C717 C713 1.408 . S
C717 C716 1.404 . S
C717 H729 0.930 . S
C718 C714 1.524 . S
C718 H730 0.956 . S
C718 H731 0.961 . S
C718 H732 0.961 . S
C719 C716 1.539 . S
C719 H733 0.958 . S
C719 H734 0.961 . S
C719 H735 0.960 . S
H720 C704 0.931 . S
H721 C709 0.929 . S
H722 C710 0.960 . S
H723 C710 0.962 . S
H724 C710 0.960 . S
H725 C711 0.961 . S
H726 C711 0.961 . S
H727 C711 0.961 . S
H728 C712 0.931 . S
H729 C717 0.930 . S
H730 C718 0.956 . S
H731 C718 0.961 . S
H732 C718 0.961 . S
H733 C719 0.958 . S
H734 C719 0.961 . S
H735 C719 0.960 . S
C736 C737 1.391 . S
C736 C738 1.394 . S
C736 H752 0.931 . S
C737 C736 1.391 . S
C737 C741 1.376 . S
C738 C736 1.394 . S
C738 C739 1.369 . S
C738 C742 1.531 . S
C739 C738 1.369 . S
C739 C740 1.410 . S
C739 C747 1.503 . S
C740 C739 1.410 . S
C740 C741 1.392 . S
C740 C743 1.511 . S
C741 C737 1.376 . S
C741 C740 1.392 . S
C741 H753 0.929 . S
C742 C738 1.531 . S
C742 H754 0.960 . S
C742 H755 0.962 . S
C742 H756 0.960 . S
C743 C740 1.511 . S
C743 H757 0.961 . S
C743 H758 0.961 . S
C743 H759 0.961 . S
C744 C745 1.370 . S
C744 C746 1.363 . S
C744 H760 0.931 . S
C745 C744 1.370 . S
C745 C749 1.408 . S
C746 C744 1.363 . S
C746 C747 1.370 . S
C746 C750 1.524 . S
C747 C739 1.503 . S
C747 C746 1.370 . S
C747 C748 1.403 . S
C748 C747 1.403 . S
C748 C749 1.404 . S
C748 C751 1.539 . S
C749 C745 1.408 . S
C749 C748 1.404 . S
C749 H761 0.930 . S
C750 C746 1.524 . S
C750 H762 0.956 . S
C750 H763 0.961 . S
C750 H764 0.961 . S
C751 C748 1.539 . S
C751 H765 0.958 . S
C751 H766 0.961 . S
C751 H767 0.960 . S
H752 C736 0.931 . S
H753 C741 0.929 . S
H754 C742 0.960 . S
H755 C742 0.962 . S
H756 C742 0.960 . S
H757 C743 0.961 . S
H758 C743 0.961 . S
H759 C743 0.961 . S
H760 C744 0.931 . S
H761 C749 0.930 . S
H762 C750 0.956 . S
H763 C750 0.961 . S
H764 C750 0.961 . S
H765 C751 0.958 . S
H766 C751 0.961 . S
H767 C751 0.960 . S
C768 C769 1.391 . S
C768 C770 1.394 . S
C768 H784 0.931 . S
C769 C768 1.391 . S
C769 C773 1.376 . S
C770 C768 1.394 . S
C770 C771 1.369 . S
C770 C774 1.531 . S
C771 C770 1.369 . S
C771 C772 1.410 . S
C771 C779 1.503 . S
C772 C771 1.410 . S
C772 C773 1.392 . S
C772 C775 1.511 . S
C773 C769 1.376 . S
C773 C772 1.392 . S
C773 H785 0.929 . S
C774 C770 1.531 . S
C774 H786 0.960 . S
C774 H787 0.962 . S
C774 H788 0.960 . S
C775 C772 1.511 . S
C775 H789 0.961 . S
C775 H790 0.961 . S
C775 H791 0.961 . S
C776 C777 1.370 . S
C776 C778 1.363 . S
C776 H792 0.931 . S
C777 C776 1.370 . S
C777 C781 1.408 . S
C778 C776 1.363 . S
C778 C779 1.370 . S
C778 C782 1.524 . S
C779 C771 1.503 . S
C779 C778 1.370 . S
C779 C780 1.403 . S
C780 C779 1.403 . S
C780 C781 1.404 . S
C780 C783 1.539 . S
C781 C777 1.408 . S
C781 C780 1.404 . S
C781 H793 0.930 . S
C782 C778 1.524 . S
C782 H794 0.956 . S
C782 H795 0.961 . S
C782 H796 0.961 . S
C783 C780 1.539 . S
C783 H797 0.958 . S
C783 H798 0.961 . S
C783 H799 0.960 . S
H784 C768 0.931 . S
H785 C773 0.929 . S
H786 C774 0.960 . S
H787 C774 0.962 . S
H788 C774 0.960 . S
H789 C775 0.961 . S
H790 C775 0.961 . S
H791 C775 0.961 . S
H792 C776 0.931 . S
H793 C781 0.930 . S
H794 C782 0.956 . S
H795 C782 0.961 . S
H796 C782 0.961 . S
H797 C783 0.958 . S
H798 C783 0.961 . S
H799 C783 0.960 . S
C800 C801 1.391 . S
C800 C802 1.394 . S
C800 H816 0.931 . S
C801 C800 1.391 . S
C801 C805 1.376 . S
C802 C800 1.394 . S
C802 C803 1.369 . S
C802 C806 1.531 . S
C803 C802 1.369 . S
C803 C804 1.410 . S
C803 C811 1.503 . S
C804 C803 1.410 . S
C804 C805 1.392 . S
C804 C807 1.511 1_655 S
C805 C801 1.376 . S
C805 C804 1.392 . S
C805 H817 0.929 . S
C806 C802 1.531 . S
C806 H818 0.960 . S
C806 H819 0.962 . S
C806 H820 0.960 . S
C807 C804 1.511 1_455 S
C807 H821 0.961 . S
C807 H822 0.961 . S
C807 H823 0.961 . S
C808 C809 1.370 . S
C808 C810 1.363 . S
C808 H824 0.931 . S
C809 C808 1.370 . S
C809 C813 1.408 . S
C810 C808 1.363 . S
C810 C811 1.370 . S
C810 C814 1.524 . S
C811 C803 1.503 . S
C811 C810 1.370 . S
C811 C812 1.403 . S
C812 C811 1.403 . S
C812 C813 1.404 . S
C812 C815 1.539 . S
C813 C809 1.408 . S
C813 C812 1.404 . S
C813 H825 0.930 . S
C814 C810 1.524 . S
C814 H826 0.956 . S
C814 H827 0.961 . S
C814 H828 0.961 . S
C815 C812 1.539 . S
C815 H829 0.958 . S
C815 H830 0.961 . S
C815 H831 0.960 . S
H816 C800 0.931 . S
H817 C805 0.929 . S
H818 C806 0.960 . S
H819 C806 0.962 . S
H820 C806 0.960 . S
H821 C807 0.961 . S
H822 C807 0.961 . S
H823 C807 0.961 . S
H824 C808 0.931 . S
H825 C813 0.930 . S
H826 C814 0.956 . S
H827 C814 0.961 . S
H828 C814 0.961 . S
H829 C815 0.958 . S
H830 C815 0.961 . S
H831 C815 0.960 . S
C832 C833 1.391 . S
C832 C834 1.394 . S
C832 H848 0.931 . S
C833 C832 1.391 . S
C833 C837 1.376 . S
C834 C832 1.394 . S
C834 C835 1.369 . S
C834 C838 1.531 . S
C835 C834 1.369 . S
C835 C836 1.410 . S
C835 C843 1.503 . S
C836 C835 1.410 . S
C836 C837 1.392 . S
C836 C839 1.511 . S
C837 C833 1.376 . S
C837 C836 1.392 . S
C837 H849 0.929 . S
C838 C834 1.531 . S
C838 H850 0.960 . S
C838 H851 0.962 . S
C838 H852 0.960 . S
C839 C836 1.511 . S
C839 H853 0.961 . S
C839 H854 0.961 . S
C839 H855 0.961 . S
C840 C841 1.370 . S
C840 C842 1.363 . S
C840 H856 0.931 . S
C841 C840 1.370 . S
C841 C845 1.408 . S
C842 C840 1.363 . S
C842 C843 1.370 . S
C842 C846 1.524 . S
C843 C835 1.503 . S
C843 C842 1.370 . S
C843 C844 1.403 . S
C844 C843 1.403 . S
C844 C845 1.404 . S
C844 C847 1.539 . S
C845 C841 1.408 . S
C845 C844 1.404 . S
C845 H857 0.930 . S
C846 C842 1.524 . S
C846 H858 0.956 . S
C846 H859 0.961 . S
C846 H860 0.961 . S
C847 C844 1.539 . S
C847 H861 0.958 . S
C847 H862 0.961 . S
C847 H863 0.960 . S
H848 C832 0.931 . S
H849 C837 0.929 . S
H850 C838 0.960 . S
H851 C838 0.962 . S
H852 C838 0.960 . S
H853 C839 0.961 . S
H854 C839 0.961 . S
H855 C839 0.961 . S
H856 C840 0.931 . S
H857 C845 0.930 . S
H858 C846 0.956 . S
H859 C846 0.961 . S
H860 C846 0.961 . S
H861 C847 0.958 . S
H862 C847 0.961 . S
H863 C847 0.960 . S
C864 C865 1.391 . S
C864 C866 1.394 . S
C864 H880 0.931 . S
C865 C864 1.391 . S
C865 C869 1.376 . S
C866 C864 1.394 . S
C866 C867 1.369 . S
C866 C870 1.531 . S
C867 C866 1.369 . S
C867 C868 1.410 . S
C867 C875 1.503 . S
C868 C867 1.410 . S
C868 C869 1.392 . S
C868 C871 1.511 . S
C869 C865 1.376 . S
C869 C868 1.392 . S
C869 H881 0.929 . S
C870 C866 1.531 . S
C870 H882 0.960 . S
C870 H883 0.962 . S
C870 H884 0.960 . S
C871 C868 1.511 . S
C871 H885 0.961 . S
C871 H886 0.961 . S
C871 H887 0.961 . S
C872 C873 1.370 . S
C872 C874 1.363 . S
C872 H888 0.931 . S
C873 C872 1.370 . S
C873 C877 1.408 . S
C874 C872 1.363 . S
C874 C875 1.370 . S
C874 C878 1.524 . S
C875 C867 1.503 . S
C875 C874 1.370 . S
C875 C876 1.403 . S
C876 C875 1.403 . S
C876 C877 1.404 . S
C876 C879 1.539 . S
C877 C873 1.408 . S
C877 C876 1.404 . S
C877 H889 0.930 . S
C878 C874 1.524 . S
C878 H890 0.956 . S
C878 H891 0.961 . S
C878 H892 0.961 . S
C879 C876 1.539 . S
C879 H893 0.958 . S
C879 H894 0.961 . S
C879 H895 0.960 . S
H880 C864 0.931 . S
H881 C869 0.929 . S
H882 C870 0.960 . S
H883 C870 0.962 . S
H884 C870 0.960 . S
H885 C871 0.961 . S
H886 C871 0.961 . S
H887 C871 0.961 . S
H888 C872 0.931 . S
H889 C877 0.930 . S
H890 C878 0.956 . S
H891 C878 0.961 . S
H892 C878 0.961 . S
H893 C879 0.958 . S
H894 C879 0.961 . S
H895 C879 0.960 . S
C896 C897 1.391 . S
C896 C898 1.394 . S
C896 H912 0.931 . S
C897 C896 1.391 . S
C897 C901 1.376 . S
C898 C896 1.394 . S
C898 C899 1.369 . S
C898 C902 1.531 . S
C899 C898 1.369 . S
C899 C900 1.410 . S
C899 C907 1.503 . S
C900 C899 1.410 . S
C900 C901 1.392 . S
C900 C903 1.511 . S
C901 C897 1.376 . S
C901 C900 1.392 . S
C901 H913 0.929 . S
C902 C898 1.531 . S
C902 H914 0.960 . S
C902 H915 0.962 . S
C902 H916 0.960 . S
C903 C900 1.511 . S
C903 H917 0.961 . S
C903 H918 0.961 . S
C903 H919 0.961 . S
C904 C905 1.370 . S
C904 C906 1.363 . S
C904 H920 0.931 . S
C905 C904 1.370 . S
C905 C909 1.408 . S
C906 C904 1.363 . S
C906 C907 1.370 . S
C906 C910 1.524 . S
C907 C899 1.503 . S
C907 C906 1.370 . S
C907 C908 1.403 . S
C908 C907 1.403 . S
C908 C909 1.404 . S
C908 C911 1.539 . S
C909 C905 1.408 . S
C909 C908 1.404 . S
C909 H921 0.930 . S
C910 C906 1.524 . S
C910 H922 0.956 . S
C910 H923 0.961 . S
C910 H924 0.961 . S
C911 C908 1.539 . S
C911 H925 0.958 . S
C911 H926 0.961 . S
C911 H927 0.960 . S
H912 C896 0.931 . S
H913 C901 0.929 . S
H914 C902 0.960 . S
H915 C902 0.962 . S
H916 C902 0.960 . S
H917 C903 0.961 . S
H918 C903 0.961 . S
H919 C903 0.961 . S
H920 C904 0.931 . S
H921 C909 0.930 . S
H922 C910 0.956 . S
H923 C910 0.961 . S
H924 C910 0.961 . S
H925 C911 0.958 . S
H926 C911 0.961 . S
H927 C911 0.960 . S
C928 C929 1.391 . S
C928 C930 1.394 . S
C928 H944 0.931 . S
C929 C928 1.391 . S
C929 C933 1.376 . S
C930 C928 1.394 . S
C930 C931 1.369 . S
C930 C934 1.531 . S
C931 C930 1.369 . S
C931 C932 1.410 . S
C931 C939 1.503 . S
C932 C931 1.410 . S
C932 C933 1.392 . S
C932 C935 1.511 . S
C933 C929 1.376 . S
C933 C932 1.392 . S
C933 H945 0.929 . S
C934 C930 1.531 . S
C934 H946 0.960 . S
C934 H947 0.962 . S
C934 H948 0.960 . S
C935 C932 1.511 . S
C935 H949 0.961 . S
C935 H950 0.961 . S
C935 H951 0.961 . S
C936 C937 1.370 . S
C936 C938 1.363 . S
C936 H952 0.931 . S
C937 C936 1.370 . S
C937 C941 1.408 . S
C938 C936 1.363 . S
C938 C939 1.370 . S
C938 C942 1.524 . S
C939 C931 1.503 . S
C939 C938 1.370 . S
C939 C940 1.403 . S
C940 C939 1.403 . S
C940 C941 1.404 . S
C940 C943 1.539 . S
C941 C937 1.408 . S
C941 C940 1.404 . S
C941 H953 0.930 . S
C942 C938 1.524 . S
C942 H954 0.956 . S
C942 H955 0.961 . S
C942 H956 0.961 . S
C943 C940 1.539 . S
C943 H957 0.958 . S
C943 H958 0.961 . S
C943 H959 0.960 . S
H944 C928 0.931 . S
H945 C933 0.929 . S
H946 C934 0.960 . S
H947 C934 0.962 . S
H948 C934 0.960 . S
H949 C935 0.961 . S
H950 C935 0.961 . S
H951 C935 0.961 . S
H952 C936 0.931 . S
H953 C941 0.930 . S
H954 C942 0.956 . S
H955 C942 0.961 . S
H956 C942 0.961 . S
H957 C943 0.958 . S
H958 C943 0.961 . S
H959 C943 0.960 . S
C960 C961 1.391 . S
C960 C962 1.394 . S
C960 H976 0.931 . S
C961 C960 1.391 . S
C961 C965 1.376 . S
C962 C960 1.394 . S
C962 C963 1.369 . S
C962 C966 1.531 . S
C963 C962 1.369 . S
C963 C964 1.410 . S
C963 C971 1.503 . S
C964 C963 1.410 . S
C964 C965 1.392 . S
C964 C967 1.511 . S
C965 C961 1.376 . S
C965 C964 1.392 . S
C965 H977 0.929 . S
C966 C962 1.531 . S
C966 H978 0.960 . S
C966 H979 0.962 . S
C966 H980 0.960 . S
C967 C964 1.511 . S
C967 H981 0.961 . S
C967 H982 0.961 . S
C967 H983 0.961 . S
C968 C969 1.370 . S
C968 C970 1.363 . S
C968 H984 0.931 . S
C969 C968 1.370 . S
C969 C973 1.408 . S
C970 C968 1.363 . S
C970 C971 1.370 . S
C970 C974 1.524 . S
C971 C963 1.503 . S
C971 C970 1.370 . S
C971 C972 1.403 . S
C972 C971 1.403 . S
C972 C973 1.404 . S
C972 C975 1.539 . S
C973 C969 1.408 . S
C973 C972 1.404 . S
C973 H985 0.930 . S
C974 C970 1.524 . S
C974 H986 0.956 . S
C974 H987 0.961 . S
C974 H988 0.961 . S
C975 C972 1.539 . S
C975 H989 0.958 . S
C975 H990 0.961 . S
C975 H991 0.960 . S
H976 C960 0.931 . S
H977 C965 0.929 . S
H978 C966 0.960 . S
H979 C966 0.962 . S
H980 C966 0.960 . S
H981 C967 0.961 . S
H982 C967 0.961 . S
H983 C967 0.961 . S
H984 C968 0.931 . S
H985 C973 0.930 . S
H986 C974 0.956 . S
H987 C974 0.961 . S
H988 C974 0.961 . S
H989 C975 0.958 . S
H990 C975 0.961 . S
H991 C975 0.960 . S
C992 C993 1.391 . S
C992 C994 1.394 . S
C992 H1008 0.931 . S
C993 C992 1.391 . S
C993 C997 1.376 . S
C994 C992 1.394 . S
C994 C995 1.369 . S
C994 C998 1.531 . S
C995 C994 1.369 . S
C995 C996 1.410 . S
C995 C1003 1.503 . S
C996 C995 1.410 . S
C996 C997 1.392 . S
C996 C999 1.511 . S
C997 C993 1.376 . S
C997 C996 1.392 . S
C997 H1009 0.929 . S
C998 C994 1.531 . S
C998 H1010 0.960 . S
C998 H1011 0.962 . S
C998 H1012 0.960 . S
C999 C996 1.511 . S
C999 H1013 0.961 . S
C999 H1014 0.961 . S
C999 H1015 0.961 . S
C1000 C1001 1.370 . S
C1000 C1002 1.363 . S
C1000 H1016 0.931 . S
C1001 C1000 1.370 . S
C1001 C1005 1.408 . S
C1002 C1000 1.363 . S
C1002 C1003 1.370 . S
C1002 C1006 1.524 . S
C1003 C995 1.503 . S
C1003 C1002 1.370 . S
C1003 C1004 1.403 . S
C1004 C1003 1.403 . S
C1004 C1005 1.404 . S
C1004 C1007 1.539 . S
C1005 C1001 1.408 . S
C1005 C1004 1.404 . S
C1005 H1017 0.930 . S
C1006 C1002 1.524 . S
C1006 H1018 0.956 . S
C1006 H1019 0.961 . S
C1006 H1020 0.961 . S
C1007 C1004 1.539 . S
C1007 H1021 0.958 . S
C1007 H1022 0.961 . S
C1007 H1023 0.960 . S
H1008 C992 0.931 . S
H1009 C997 0.929 . S
H1010 C998 0.960 . S
H1011 C998 0.962 . S
H1012 C998 0.960 . S
H1013 C999 0.961 . S
H1014 C999 0.961 . S
H1015 C999 0.961 . S
H1016 C1000 0.931 . S
H1017 C1005 0.930 . S
H1018 C1006 0.956 . S
H1019 C1006 0.961 . S
H1020 C1006 0.961 . S
H1021 C1007 0.958 . S
H1022 C1007 0.961 . S
H1023 C1007 0.960 . S
C1024 C1025 1.391 . S
C1024 C1026 1.394 . S
C1024 H1040 0.931 . S
C1025 C1024 1.391 . S
C1025 C1029 1.376 . S
C1026 C1024 1.394 . S
C1026 C1027 1.369 . S
C1026 C1030 1.531 . S
C1027 C1026 1.369 . S
C1027 C1028 1.410 . S
C1027 C1035 1.503 . S
C1028 C1027 1.410 . S
C1028 C1029 1.392 . S
C1028 C1031 1.515 . S
C1029 C1025 1.376 . S
C1029 C1028 1.392 . S
C1029 H1041 0.929 . S
C1030 C1026 1.531 . S
C1030 H1042 0.960 . S
C1030 H1043 0.962 . S
C1030 H1044 0.960 . S
C1031 C1028 1.515 . S
C1031 H1045 0.958 1_655 S
C1031 H1046 0.960 1_655 S
C1031 H1047 0.959 1_655 S
C1032 C1033 1.370 . S
C1032 C1034 1.363 . S
C1032 H1048 0.931 . S
C1033 C1032 1.370 . S
C1033 C1037 1.408 . S
C1034 C1032 1.363 . S
C1034 C1035 1.370 . S
C1034 C1038 1.524 . S
C1035 C1027 1.503 . S
C1035 C1034 1.370 . S
C1035 C1036 1.403 . S
C1036 C1035 1.403 . S
C1036 C1037 1.404 . S
C1036 C1039 1.539 . S
C1037 C1033 1.408 . S
C1037 C1036 1.404 . S
C1037 H1049 0.930 . S
C1038 C1034 1.524 . S
C1038 H1050 0.956 . S
C1038 H1051 0.961 . S
C1038 H1052 0.961 . S
C1039 C1036 1.539 . S
C1039 H1053 0.958 . S
C1039 H1054 0.961 . S
C1039 H1055 0.960 . S
H1040 C1024 0.931 . S
H1041 C1029 0.929 . S
H1042 C1030 0.960 . S
H1043 C1030 0.962 . S
H1044 C1030 0.960 . S
H1045 C1031 0.958 1_455 S
H1046 C1031 0.960 1_455 S
H1047 C1031 0.959 1_455 S
H1048 C1032 0.931 . S
H1049 C1037 0.930 . S
H1050 C1038 0.956 . S
H1051 C1038 0.961 . S
H1052 C1038 0.961 . S
H1053 C1039 0.958 . S
H1054 C1039 0.961 . S
H1055 C1039 0.960 . S
C1056 C1057 1.391 . S
C1056 C1058 1.394 . S
C1056 H1072 0.931 . S
C1057 C1056 1.391 . S
C1057 C1061 1.376 . S
C1058 C1056 1.394 . S
C1058 C1059 1.369 . S
C1058 C1062 1.531 . S
C1059 C1058 1.369 . S
C1059 C1060 1.410 . S
C1059 C1067 1.503 . S
C1060 C1059 1.410 . S
C1060 C1061 1.392 . S
C1060 C1063 1.511 . S
C1061 C1057 1.376 . S
C1061 C1060 1.392 . S
C1061 H1073 0.929 . S
C1062 C1058 1.531 . S
C1062 H1074 0.960 . S
C1062 H1075 0.962 . S
C1062 H1076 0.960 . S
C1063 C1060 1.511 . S
C1063 H1077 0.961 . S
C1063 H1078 0.961 . S
C1063 H1079 0.961 . S
C1064 C1065 1.370 . S
C1064 C1066 1.363 . S
C1064 H1080 0.931 . S
C1065 C1064 1.370 . S
C1065 C1069 1.408 . S
C1066 C1064 1.363 . S
C1066 C1067 1.370 . S
C1066 C1070 1.524 . S
C1067 C1059 1.503 . S
C1067 C1066 1.370 . S
C1067 C1068 1.403 . S
C1068 C1067 1.403 . S
C1068 C1069 1.404 . S
C1068 C1071 1.539 . S
C1069 C1065 1.408 . S
C1069 C1068 1.404 . S
C1069 H1081 0.930 . S
C1070 C1066 1.524 . S
C1070 H1082 0.956 . S
C1070 H1083 0.961 . S
C1070 H1084 0.961 . S
C1071 C1068 1.539 . S
C1071 H1085 0.958 . S
C1071 H1086 0.961 . S
C1071 H1087 0.960 . S
H1072 C1056 0.931 . S
H1073 C1061 0.929 . S
H1074 C1062 0.960 . S
H1075 C1062 0.962 . S
H1076 C1062 0.960 . S
H1077 C1063 0.961 . S
H1078 C1063 0.961 . S
H1079 C1063 0.961 . S
H1080 C1064 0.931 . S
H1081 C1069 0.930 . S
H1082 C1070 0.956 . S
H1083 C1070 0.961 . S
H1084 C1070 0.961 . S
H1085 C1071 0.958 . S
H1086 C1071 0.961 . S
H1087 C1071 0.960 . S
C1088 C1089 1.391 . S
C1088 C1090 1.394 . S
C1088 H1104 0.931 . S
C1089 C1088 1.391 . S
C1089 C1093 1.376 . S
C1090 C1088 1.394 . S
C1090 C1091 1.369 . S
C1090 C1094 1.531 . S
C1091 C1090 1.369 . S
C1091 C1092 1.410 . S
C1091 C1099 1.503 . S
C1092 C1091 1.410 . S
C1092 C1093 1.392 . S
C1092 C1095 1.511 . S
C1093 C1089 1.376 . S
C1093 C1092 1.392 . S
C1093 H1105 0.929 . S
C1094 C1090 1.531 . S
C1094 H1106 0.960 . S
C1094 H1107 0.962 . S
C1094 H1108 0.960 . S
C1095 C1092 1.511 . S
C1095 H1109 0.961 . S
C1095 H1110 0.961 . S
C1095 H1111 0.961 . S
C1096 C1097 1.370 . S
C1096 C1098 1.363 . S
C1096 H1112 0.931 . S
C1097 C1096 1.370 . S
C1097 C1101 1.408 . S
C1098 C1096 1.363 . S
C1098 C1099 1.370 . S
C1098 C1102 1.524 . S
C1099 C1091 1.503 . S
C1099 C1098 1.370 . S
C1099 C1100 1.403 . S
C1100 C1099 1.403 . S
C1100 C1101 1.404 . S
C1100 C1103 1.539 . S
C1101 C1097 1.408 . S
C1101 C1100 1.404 . S
C1101 H1113 0.930 . S
C1102 C1098 1.524 . S
C1102 H1114 0.956 . S
C1102 H1115 0.961 . S
C1102 H1116 0.961 . S
C1103 C1100 1.539 . S
C1103 H1117 0.958 . S
C1103 H1118 0.961 . S
C1103 H1119 0.960 . S
H1104 C1088 0.931 . S
H1105 C1093 0.929 . S
H1106 C1094 0.960 . S
H1107 C1094 0.962 . S
H1108 C1094 0.960 . S
H1109 C1095 0.961 . S
H1110 C1095 0.961 . S
H1111 C1095 0.961 . S
H1112 C1096 0.931 . S
H1113 C1101 0.930 . S
H1114 C1102 0.956 . S
H1115 C1102 0.961 . S
H1116 C1102 0.961 . S
H1117 C1103 0.958 . S
H1118 C1103 0.961 . S
H1119 C1103 0.960 . S
C1120 C1121 1.391 . S
C1120 C1122 1.394 . S
C1120 H1136 0.931 . S
C1121 C1120 1.391 . S
C1121 C1125 1.376 . S
C1122 C1120 1.394 . S
C1122 C1123 1.369 . S
C1122 C1126 1.531 . S
C1123 C1122 1.369 . S
C1123 C1124 1.410 . S
C1123 C1131 1.503 . S
C1124 C1123 1.410 . S
C1124 C1125 1.392 . S
C1124 C1127 1.511 . S
C1125 C1121 1.376 . S
C1125 C1124 1.392 . S
C1125 H1137 0.929 . S
C1126 C1122 1.531 . S
C1126 H1138 0.960 . S
C1126 H1139 0.962 . S
C1126 H1140 0.960 . S
C1127 C1124 1.511 . S
C1127 H1141 0.961 . S
C1127 H1142 0.961 . S
C1127 H1143 0.961 . S
C1128 C1129 1.370 . S
C1128 C1130 1.363 . S
C1128 H1144 0.931 . S
C1129 C1128 1.370 . S
C1129 C1133 1.408 . S
C1130 C1128 1.363 . S
C1130 C1131 1.370 . S
C1130 C1134 1.524 . S
C1131 C1123 1.503 . S
C1131 C1130 1.370 . S
C1131 C1132 1.403 . S
C1132 C1131 1.403 . S
C1132 C1133 1.404 . S
C1132 C1135 1.539 . S
C1133 C1129 1.408 . S
C1133 C1132 1.404 . S
C1133 H1145 0.930 . S
C1134 C1130 1.524 . S
C1134 H1146 0.956 . S
C1134 H1147 0.961 . S
C1134 H1148 0.961 . S
C1135 C1132 1.539 . S
C1135 H1149 0.958 . S
C1135 H1150 0.961 . S
C1135 H1151 0.960 . S
H1136 C1120 0.931 . S
H1137 C1125 0.929 . S
H1138 C1126 0.960 . S
H1139 C1126 0.962 . S
H1140 C1126 0.960 . S
H1141 C1127 0.961 . S
H1142 C1127 0.961 . S
H1143 C1127 0.961 . S
H1144 C1128 0.931 . S
H1145 C1133 0.930 . S
H1146 C1134 0.956 . S
H1147 C1134 0.961 . S
H1148 C1134 0.961 . S
H1149 C1135 0.958 . S
H1150 C1135 0.961 . S
H1151 C1135 0.960 . S
C1152 C1153 1.391 . S
C1152 C1154 1.394 . S
C1152 H1168 0.931 . S
C1153 C1152 1.391 . S
C1153 C1157 1.376 . S
C1154 C1152 1.394 . S
C1154 C1155 1.369 . S
C1154 C1158 1.531 . S
C1155 C1154 1.369 . S
C1155 C1156 1.410 . S
C1155 C1163 1.503 . S
C1156 C1155 1.410 . S
C1156 C1157 1.392 . S
C1156 C1159 1.511 . S
C1157 C1153 1.376 . S
C1157 C1156 1.392 . S
C1157 H1169 0.929 . S
C1158 C1154 1.531 . S
C1158 H1170 0.960 . S
C1158 H1171 0.962 . S
C1158 H1172 0.960 . S
C1159 C1156 1.511 . S
C1159 H1173 0.961 . S
C1159 H1174 0.961 . S
C1159 H1175 0.961 . S
C1160 C1161 1.370 . S
C1160 C1162 1.363 . S
C1160 H1176 0.931 . S
C1161 C1160 1.370 . S
C1161 C1165 1.408 . S
C1162 C1160 1.363 . S
C1162 C1163 1.370 . S
C1162 C1166 1.524 . S
C1163 C1155 1.503 . S
C1163 C1162 1.370 . S
C1163 C1164 1.403 . S
C1164 C1163 1.403 . S
C1164 C1165 1.404 . S
C1164 C1167 1.539 . S
C1165 C1161 1.408 . S
C1165 C1164 1.404 . S
C1165 H1177 0.930 . S
C1166 C1162 1.524 . S
C1166 H1178 0.956 . S
C1166 H1179 0.961 . S
C1166 H1180 0.961 . S
C1167 C1164 1.539 . S
C1167 H1181 0.958 . S
C1167 H1182 0.961 . S
C1167 H1183 0.960 . S
H1168 C1152 0.931 . S
H1169 C1157 0.929 . S
H1170 C1158 0.960 . S
H1171 C1158 0.962 . S
H1172 C1158 0.960 . S
H1173 C1159 0.961 . S
H1174 C1159 0.961 . S
H1175 C1159 0.961 . S
H1176 C1160 0.931 . S
H1177 C1165 0.930 . S
H1178 C1166 0.956 . S
H1179 C1166 0.961 . S
H1180 C1166 0.961 . S
H1181 C1167 0.958 . S
H1182 C1167 0.961 . S
H1183 C1167 0.960 . S
C1184 C1185 1.391 . S
C1184 C1186 1.394 . S
C1184 H1200 0.931 . S
C1185 C1184 1.391 . S
C1185 C1189 1.376 . S
C1186 C1184 1.394 . S
C1186 C1187 1.369 . S
C1186 C1190 1.531 . S
C1187 C1186 1.369 . S
C1187 C1188 1.410 . S
C1187 C1195 1.503 . S
C1188 C1187 1.410 . S
C1188 C1189 1.392 . S
C1188 C1191 1.511 . S
C1189 C1185 1.376 . S
C1189 C1188 1.392 . S
C1189 H1201 0.929 . S
C1190 C1186 1.531 . S
C1190 H1202 0.960 . S
C1190 H1203 0.962 . S
C1190 H1204 0.976 . S
C1191 C1188 1.511 . S
C1191 H1205 0.961 . S
C1191 H1206 0.961 . S
C1191 H1207 0.961 . S
C1192 C1193 1.370 . S
C1192 C1194 1.363 . S
C1192 H1208 0.931 . S
C1193 C1192 1.370 . S
C1193 C1197 1.408 . S
C1194 C1192 1.363 . S
C1194 C1195 1.370 . S
C1194 C1198 1.524 . S
C1195 C1187 1.503 . S
C1195 C1194 1.370 . S
C1195 C1196 1.403 . S
C1196 C1195 1.403 . S
C1196 C1197 1.404 . S
C1196 C1199 1.539 . S
C1197 C1193 1.408 . S
C1197 C1196 1.404 . S
C1197 H1209 0.930 . S
C1198 C1194 1.524 . S
C1198 H1210 0.956 . S
C1198 H1211 0.961 . S
C1198 H1212 0.961 . S
C1199 C1196 1.539 . S
C1199 H1213 0.958 . S
C1199 H1214 0.961 . S
C1199 H1215 0.960 . S
H1200 C1184 0.931 . S
H1201 C1189 0.929 . S
H1202 C1190 0.960 . S
H1203 C1190 0.962 . S
H1204 C1190 0.976 . S
H1205 C1191 0.961 . S
H1206 C1191 0.961 . S
H1207 C1191 0.961 . S
H1208 C1192 0.931 . S
H1209 C1197 0.930 . S
H1210 C1198 0.956 . S
H1211 C1198 0.961 . S
H1212 C1198 0.961 . S
H1213 C1199 0.958 . S
H1214 C1199 0.961 . S
H1215 C1199 0.960 . S
C1216 C1217 1.391 . S
C1216 C1218 1.394 . S
C1216 H1232 0.931 . S
C1217 C1216 1.391 . S
C1217 C1221 1.376 . S
C1218 C1216 1.394 . S
C1218 C1219 1.369 . S
C1218 C1222 1.531 . S
C1219 C1218 1.369 . S
C1219 C1220 1.410 . S
C1219 C1227 1.503 . S
C1220 C1219 1.410 . S
C1220 C1221 1.392 . S
C1220 C1223 1.511 . S
C1221 C1217 1.376 . S
C1221 C1220 1.392 . S
C1221 H1233 0.929 . S
C1222 C1218 1.531 . S
C1222 H1234 0.960 . S
C1222 H1235 0.962 . S
C1222 H1236 0.960 . S
C1223 C1220 1.511 . S
C1223 H1237 0.961 . S
C1223 H1238 0.961 . S
C1223 H1239 0.961 . S
C1224 C1225 1.370 . S
C1224 C1226 1.363 . S
C1224 H1240 0.931 . S
C1225 C1224 1.370 . S
C1225 C1229 1.408 . S
C1226 C1224 1.363 . S
C1226 C1227 1.370 . S
C1226 C1230 1.524 . S
C1227 C1219 1.503 . S
C1227 C1226 1.370 . S
C1227 C1228 1.403 . S
C1228 C1227 1.403 . S
C1228 C1229 1.404 . S
C1228 C1231 1.539 . S
C1229 C1225 1.408 . S
C1229 C1228 1.404 . S
C1229 H1241 0.930 . S
C1230 C1226 1.524 . S
C1230 H1242 0.956 . S
C1230 H1243 0.961 . S
C1230 H1244 0.961 . S
C1231 C1228 1.539 . S
C1231 H1245 0.958 . S
C1231 H1246 0.961 . S
C1231 H1247 0.960 . S
H1232 C1216 0.931 . S
H1233 C1221 0.929 . S
H1234 C1222 0.960 . S
H1235 C1222 0.962 . S
H1236 C1222 0.960 . S
H1237 C1223 0.961 . S
H1238 C1223 0.961 . S
H1239 C1223 0.961 . S
H1240 C1224 0.931 . S
H1241 C1229 0.930 . S
H1242 C1230 0.956 . S
H1243 C1230 0.961 . S
H1244 C1230 0.961 . S
H1245 C1231 0.958 . S
H1246 C1231 0.961 . S
H1247 C1231 0.960 . S
C481 C21 1.188 . S
C489 C337 1.341 . S
C513 C61 1.326 . S
C521 C377 1.329 . S
C553 C402 2.300 . S
C545 C82 2.350 . S
C577 C135 2.431 . S
C585 C442 2.371 . S
C617 C373 1.929 . S
C609 C15 1.851 . S
C649 C333 1.933 . S
C641 C42 1.897 . S
C681 C464 1.664 . S
C673 C101 1.679 . S
C713 C424 1.610 . S
C705 C122 1.649 . S
C737 C2 1.353 . S
C745 C466 1.470 . S
C777 C383 2.063 . S
C769 C95 2.110 . S
C801 C141 2.191 . S
C809 C343 2.174 . S
C833 C55 1.408 . S
C841 C426 1.479 . S
C873 C346 1.337 . S
C865 C181 1.363 . S
C897 C202 1.291 . S
C905 C386 1.320 . S
C929 C255 2.374 . S
C937 C423 2.307 . S
C961 C295 2.399 . S
C969 C463 2.353 . S
C993 C175 1.826 . S
C1001 C384 1.908 . S
C1033 C344 1.927 . S
C1025 C221 1.878 . S
C1065 C453 1.593 . S
C1057 C242 1.594 . S
C1097 C413 1.675 . S
C1089 C301 1.702 . S
C1121 C162 1.456 . S
C1129 C457 1.467 . S
C1161 C362 2.110 . S
C1153 C261 2.134 . S
C1193 C322 2.148 . S
C1185 C282 2.176 . S
C1217 C215 1.452 . S
C1225 C417 1.471 . S
