# Generated by pormake.
# Topology gar, (4,6)-cn, num edge types: 1
# Building blocks:
#     Node 0, Type 0, BuildingBlock: GALJAG_clean_sbu_0, # of connection points: 4
#     Node 1, Type 0, BuildingBlock: GALJAG_clean_sbu_0, # of connection points: 4
#     Node 2, Type 0, BuildingBlock: GALJAG_clean_sbu_0, # of connection points: 4
#     Node 3, Type 0, BuildingBlock: GALJAG_clean_sbu_0, # of connection points: 4
#     Node 4, Type 0, BuildingBlock: GALJAG_clean_sbu_0, # of connection points: 4
#     Node 5, Type 0, BuildingBlock: GALJAG_clean_sbu_0, # of connection points: 4
#     Node 6, Type 0, BuildingBlock: GALJAG_clean_sbu_0, # of connection points: 4
#     Node 7, Type 0, BuildingBlock: GALJAG_clean_sbu_0, # of connection points: 4
#     Node 8, Type 0, BuildingBlock: GALJAG_clean_sbu_0, # of connection points: 4
#     Node 9, Type 0, BuildingBlock: GALJAG_clean_sbu_0, # of connection points: 4
#     Node 10, Type 0, BuildingBlock: GALJAG_clean_sbu_0, # of connection points: 4
#     Node 11, Type 0, BuildingBlock: GALJAG_clean_sbu_0, # of connection points: 4
#     Node 12, Type 0, BuildingBlock: GALJAG_clean_sbu_0, # of connection points: 4
#     Node 13, Type 0, BuildingBlock: GALJAG_clean_sbu_0, # of connection points: 4
#     Node 14, Type 0, BuildingBlock: GALJAG_clean_sbu_0, # of connection points: 4
#     Node 15, Type 0, BuildingBlock: GALJAG_clean_sbu_0, # of connection points: 4
#     Node 16, Type 0, BuildingBlock: GALJAG_clean_sbu_0, # of connection points: 4
#     Node 17, Type 0, BuildingBlock: GALJAG_clean_sbu_0, # of connection points: 4
#     Node 18, Type 0, BuildingBlock: GALJAG_clean_sbu_0, # of connection points: 4
#     Node 19, Type 0, BuildingBlock: GALJAG_clean_sbu_0, # of connection points: 4
#     Node 20, Type 0, BuildingBlock: GALJAG_clean_sbu_0, # of connection points: 4
#     Node 21, Type 0, BuildingBlock: GALJAG_clean_sbu_0, # of connection points: 4
#     Node 22, Type 0, BuildingBlock: GALJAG_clean_sbu_0, # of connection points: 4
#     Node 23, Type 0, BuildingBlock: GALJAG_clean_sbu_0, # of connection points: 4
#     Node 24, Type 1, BuildingBlock: KUMBOL_clean_sbu_1, # of connection points: 6
#     Node 25, Type 1, BuildingBlock: KUMBOL_clean_sbu_1, # of connection points: 6
#     Node 26, Type 1, BuildingBlock: KUMBOL_clean_sbu_1, # of connection points: 6
#     Node 27, Type 1, BuildingBlock: KUMBOL_clean_sbu_1, # of connection points: 6
#     Node 28, Type 1, BuildingBlock: KUMBOL_clean_sbu_1, # of connection points: 6
#     Node 29, Type 1, BuildingBlock: KUMBOL_clean_sbu_1, # of connection points: 6
#     Node 30, Type 1, BuildingBlock: KUMBOL_clean_sbu_1, # of connection points: 6
#     Node 31, Type 1, BuildingBlock: KUMBOL_clean_sbu_1, # of connection points: 6
#     Node 32, Type 1, BuildingBlock: KUMBOL_clean_sbu_1, # of connection points: 6
#     Node 33, Type 1, BuildingBlock: KUMBOL_clean_sbu_1, # of connection points: 6
#     Node 34, Type 1, BuildingBlock: KUMBOL_clean_sbu_1, # of connection points: 6
#     Node 35, Type 1, BuildingBlock: KUMBOL_clean_sbu_1, # of connection points: 6
#     Node 36, Type 1, BuildingBlock: KUMBOL_clean_sbu_1, # of connection points: 6
#     Node 37, Type 1, BuildingBlock: KUMBOL_clean_sbu_1, # of connection points: 6
#     Node 38, Type 1, BuildingBlock: KUMBOL_clean_sbu_1, # of connection points: 6
#     Node 39, Type 1, BuildingBlock: KUMBOL_clean_sbu_1, # of connection points: 6
#     Edge 40, Type (0, 1), BuildingBlock: TEMPAE_clean_linker_10, # of connection points: 2
#     Edge 41, Type (0, 1), BuildingBlock: TEMPAE_clean_linker_10, # of connection points: 2
#     Edge 42, Type (0, 1), BuildingBlock: TEMPAE_clean_linker_10, # of connection points: 2
#     Edge 43, Type (0, 1), BuildingBlock: TEMPAE_clean_linker_10, # of connection points: 2
#     Edge 44, Type (0, 1), BuildingBlock: TEMPAE_clean_linker_10, # of connection points: 2
#     Edge 45, Type (0, 1), BuildingBlock: TEMPAE_clean_linker_10, # of connection points: 2
#     Edge 46, Type (0, 1), BuildingBlock: TEMPAE_clean_linker_10, # of connection points: 2
#     Edge 47, Type (0, 1), BuildingBlock: TEMPAE_clean_linker_10, # of connection points: 2
#     Edge 48, Type (0, 1), BuildingBlock: TEMPAE_clean_linker_10, # of connection points: 2
#     Edge 49, Type (0, 1), BuildingBlock: TEMPAE_clean_linker_10, # of connection points: 2
#     Edge 50, Type (0, 1), BuildingBlock: TEMPAE_clean_linker_10, # of connection points: 2
#     Edge 51, Type (0, 1), BuildingBlock: TEMPAE_clean_linker_10, # of connection points: 2
#     Edge 52, Type (0, 1), BuildingBlock: TEMPAE_clean_linker_10, # of connection points: 2
#     Edge 53, Type (0, 1), BuildingBlock: TEMPAE_clean_linker_10, # of connection points: 2
#     Edge 54, Type (0, 1), BuildingBlock: TEMPAE_clean_linker_10, # of connection points: 2
#     Edge 55, Type (0, 1), BuildingBlock: TEMPAE_clean_linker_10, # of connection points: 2
#     Edge 56, Type (0, 1), BuildingBlock: TEMPAE_clean_linker_10, # of connection points: 2
#     Edge 57, Type (0, 1), BuildingBlock: TEMPAE_clean_linker_10, # of connection points: 2
#     Edge 58, Type (0, 1), BuildingBlock: TEMPAE_clean_linker_10, # of connection points: 2
#     Edge 59, Type (0, 1), BuildingBlock: TEMPAE_clean_linker_10, # of connection points: 2
#     Edge 60, Type (0, 1), BuildingBlock: TEMPAE_clean_linker_10, # of connection points: 2
#     Edge 61, Type (0, 1), BuildingBlock: TEMPAE_clean_linker_10, # of connection points: 2
#     Edge 62, Type (0, 1), BuildingBlock: TEMPAE_clean_linker_10, # of connection points: 2
#     Edge 63, Type (0, 1), BuildingBlock: TEMPAE_clean_linker_10, # of connection points: 2
#     Edge 64, Type (0, 1), BuildingBlock: TEMPAE_clean_linker_10, # of connection points: 2
#     Edge 65, Type (0, 1), BuildingBlock: TEMPAE_clean_linker_10, # of connection points: 2
#     Edge 66, Type (0, 1), BuildingBlock: TEMPAE_clean_linker_10, # of connection points: 2
#     Edge 67, Type (0, 1), BuildingBlock: TEMPAE_clean_linker_10, # of connection points: 2
#     Edge 68, Type (0, 1), BuildingBlock: TEMPAE_clean_linker_10, # of connection points: 2
#     Edge 69, Type (0, 1), BuildingBlock: TEMPAE_clean_linker_10, # of connection points: 2
#     Edge 70, Type (0, 1), BuildingBlock: TEMPAE_clean_linker_10, # of connection points: 2
#     Edge 71, Type (0, 1), BuildingBlock: TEMPAE_clean_linker_10, # of connection points: 2
#     Edge 72, Type (0, 1), BuildingBlock: TEMPAE_clean_linker_10, # of connection points: 2
#     Edge 73, Type (0, 1), BuildingBlock: TEMPAE_clean_linker_10, # of connection points: 2
#     Edge 74, Type (0, 1), BuildingBlock: TEMPAE_clean_linker_10, # of connection points: 2
#     Edge 75, Type (0, 1), BuildingBlock: TEMPAE_clean_linker_10, # of connection points: 2
#     Edge 76, Type (0, 1), BuildingBlock: TEMPAE_clean_linker_10, # of connection points: 2
#     Edge 77, Type (0, 1), BuildingBlock: TEMPAE_clean_linker_10, # of connection points: 2
#     Edge 78, Type (0, 1), BuildingBlock: TEMPAE_clean_linker_10, # of connection points: 2
#     Edge 79, Type (0, 1), BuildingBlock: TEMPAE_clean_linker_10, # of connection points: 2
#     Edge 80, Type (0, 1), BuildingBlock: TEMPAE_clean_linker_10, # of connection points: 2
#     Edge 81, Type (0, 1), BuildingBlock: TEMPAE_clean_linker_10, # of connection points: 2
#     Edge 82, Type (0, 1), BuildingBlock: TEMPAE_clean_linker_10, # of connection points: 2
#     Edge 83, Type (0, 1), BuildingBlock: TEMPAE_clean_linker_10, # of connection points: 2
#     Edge 84, Type (0, 1), BuildingBlock: TEMPAE_clean_linker_10, # of connection points: 2
#     Edge 85, Type (0, 1), BuildingBlock: TEMPAE_clean_linker_10, # of connection points: 2
#     Edge 86, Type (0, 1), BuildingBlock: TEMPAE_clean_linker_10, # of connection points: 2
#     Edge 87, Type (0, 1), BuildingBlock: TEMPAE_clean_linker_10, # of connection points: 2
#     Edge 88, Type (0, 1), BuildingBlock: TEMPAE_clean_linker_10, # of connection points: 2
#     Edge 89, Type (0, 1), BuildingBlock: TEMPAE_clean_linker_10, # of connection points: 2
#     Edge 90, Type (0, 1), BuildingBlock: TEMPAE_clean_linker_10, # of connection points: 2
#     Edge 91, Type (0, 1), BuildingBlock: TEMPAE_clean_linker_10, # of connection points: 2
#     Edge 92, Type (0, 1), BuildingBlock: TEMPAE_clean_linker_10, # of connection points: 2
#     Edge 93, Type (0, 1), BuildingBlock: TEMPAE_clean_linker_10, # of connection points: 2
#     Edge 94, Type (0, 1), BuildingBlock: TEMPAE_clean_linker_10, # of connection points: 2
#     Edge 95, Type (0, 1), BuildingBlock: TEMPAE_clean_linker_10, # of connection points: 2
#     Edge 96, Type (0, 1), BuildingBlock: TEMPAE_clean_linker_10, # of connection points: 2
#     Edge 97, Type (0, 1), BuildingBlock: TEMPAE_clean_linker_10, # of connection points: 2
#     Edge 98, Type (0, 1), BuildingBlock: TEMPAE_clean_linker_10, # of connection points: 2
#     Edge 99, Type (0, 1), BuildingBlock: TEMPAE_clean_linker_10, # of connection points: 2
#     Edge 100, Type (0, 1), BuildingBlock: TEMPAE_clean_linker_10, # of connection points: 2
#     Edge 101, Type (0, 1), BuildingBlock: TEMPAE_clean_linker_10, # of connection points: 2
#     Edge 102, Type (0, 1), BuildingBlock: TEMPAE_clean_linker_10, # of connection points: 2
#     Edge 103, Type (0, 1), BuildingBlock: TEMPAE_clean_linker_10, # of connection points: 2
#     Edge 104, Type (0, 1), BuildingBlock: TEMPAE_clean_linker_10, # of connection points: 2
#     Edge 105, Type (0, 1), BuildingBlock: TEMPAE_clean_linker_10, # of connection points: 2
#     Edge 106, Type (0, 1), BuildingBlock: TEMPAE_clean_linker_10, # of connection points: 2
#     Edge 107, Type (0, 1), BuildingBlock: TEMPAE_clean_linker_10, # of connection points: 2
#     Edge 108, Type (0, 1), BuildingBlock: TEMPAE_clean_linker_10, # of connection points: 2
#     Edge 109, Type (0, 1), BuildingBlock: TEMPAE_clean_linker_10, # of connection points: 2
#     Edge 110, Type (0, 1), BuildingBlock: TEMPAE_clean_linker_10, # of connection points: 2
#     Edge 111, Type (0, 1), BuildingBlock: TEMPAE_clean_linker_10, # of connection points: 2
#     Edge 112, Type (0, 1), BuildingBlock: TEMPAE_clean_linker_10, # of connection points: 2
#     Edge 113, Type (0, 1), BuildingBlock: TEMPAE_clean_linker_10, # of connection points: 2
#     Edge 114, Type (0, 1), BuildingBlock: TEMPAE_clean_linker_10, # of connection points: 2
#     Edge 115, Type (0, 1), BuildingBlock: TEMPAE_clean_linker_10, # of connection points: 2
#     Edge 116, Type (0, 1), BuildingBlock: TEMPAE_clean_linker_10, # of connection points: 2
#     Edge 117, Type (0, 1), BuildingBlock: TEMPAE_clean_linker_10, # of connection points: 2
#     Edge 118, Type (0, 1), BuildingBlock: TEMPAE_clean_linker_10, # of connection points: 2
#     Edge 119, Type (0, 1), BuildingBlock: TEMPAE_clean_linker_10, # of connection points: 2
#     Edge 120, Type (0, 1), BuildingBlock: TEMPAE_clean_linker_10, # of connection points: 2
#     Edge 121, Type (0, 1), BuildingBlock: TEMPAE_clean_linker_10, # of connection points: 2
#     Edge 122, Type (0, 1), BuildingBlock: TEMPAE_clean_linker_10, # of connection points: 2
#     Edge 123, Type (0, 1), BuildingBlock: TEMPAE_clean_linker_10, # of connection points: 2
#     Edge 124, Type (0, 1), BuildingBlock: TEMPAE_clean_linker_10, # of connection points: 2
#     Edge 125, Type (0, 1), BuildingBlock: TEMPAE_clean_linker_10, # of connection points: 2
#     Edge 126, Type (0, 1), BuildingBlock: TEMPAE_clean_linker_10, # of connection points: 2
#     Edge 127, Type (0, 1), BuildingBlock: TEMPAE_clean_linker_10, # of connection points: 2
#     Edge 128, Type (0, 1), BuildingBlock: TEMPAE_clean_linker_10, # of connection points: 2
#     Edge 129, Type (0, 1), BuildingBlock: TEMPAE_clean_linker_10, # of connection points: 2
#     Edge 130, Type (0, 1), BuildingBlock: TEMPAE_clean_linker_10, # of connection points: 2
#     Edge 131, Type (0, 1), BuildingBlock: TEMPAE_clean_linker_10, # of connection points: 2
#     Edge 132, Type (0, 1), BuildingBlock: TEMPAE_clean_linker_10, # of connection points: 2
#     Edge 133, Type (0, 1), BuildingBlock: TEMPAE_clean_linker_10, # of connection points: 2
#     Edge 134, Type (0, 1), BuildingBlock: TEMPAE_clean_linker_10, # of connection points: 2
#     Edge 135, Type (0, 1), BuildingBlock: TEMPAE_clean_linker_10, # of connection points: 2
# Relax obj value: 0.084
# Max RMSD: 0.181
# Mean RMSD: 0.130
data_MOF--net-gar--node1-GALJAG_clean_sbu_0--node2-KUMBOL_clean_sbu_1--edge1-TEMPAE_clean_linker_10
_symmetry_space_group_name_H-M    P1
_symmetry_Int_Tables_number       1
_symmetry_cell_setting            triclinic
loop_
_symmetry_equiv_pos_as_xyz
'x, y, z'
_cell_length_a     61.03557
_cell_length_b     61.097258
_cell_length_c     56.979708
_cell_angle_alpha  96.185181
_cell_angle_beta   96.196138
_cell_angle_gamma 100.9992
loop_
_atom_site_label
_atom_site_type_symbol
_atom_site_fract_x
_atom_site_fract_y
_atom_site_fract_z
_atom_type_partial_charge
In0 In 0.05152 0.32045 0.36535 0.0
O1 O 0.07159 0.30982 0.33334 0.0
O2 O 0.09121 0.32523 0.36531 0.0
C3 C 1.0073 0.3172 0.34266 0.0
C4 C 0.04929 0.28267 0.38844 0.0
C5 C 0.05324 0.36211 0.39256 0.0
O6 O 0.02437 0.32014 0.33153 0.0
O7 O 0.01257 0.3155 0.36428 0.0
O8 O 0.04832 0.34325 0.39993 0.0
O9 O 0.05869 0.36042 0.37167 0.0
C10 C 0.09138 0.31571 0.34449 0.0
O11 O 0.05963 0.30203 0.39796 0.0
O12 O 0.03999 0.28236 0.36749 0.0
In13 In 0.02543 0.7578 0.69767 0.0
O14 O 0.03406 0.77443 0.66469 0.0
O15 O 0.02448 0.7945 0.6932 0.0
C16 C 0.02031 0.71765 0.6677 0.0
C17 C 0.07103 0.76574 0.72011 0.0
C18 C 0.98328 0.7587 0.71578 0.0
O19 O 0.01472 0.73507 0.66105 0.0
O20 O 0.02789 0.72005 0.68954 0.0
O21 O 1.00131 0.75836 0.72915 0.0
O22 O 0.98655 0.7578 0.6943 0.0
C23 C 0.03028 0.79332 0.67254 0.0
O24 O 0.05669 0.74776 0.72022 0.0
O25 O 0.06197 0.78033 0.71102 0.0
In26 In 0.55138 0.82205 0.86418 0.0
O27 O 0.57209 0.81509 0.83136 0.0
O28 O 0.59024 0.82144 0.86553 0.0
C29 C 0.50703 0.81771 0.84152 0.0
C30 C 0.54938 0.78439 0.88714 0.0
C31 C 0.55292 0.86387 0.89125 0.0
O32 O 0.52417 0.82317 0.83091 0.0
O33 O 0.51235 0.81379 0.86242 0.0
O34 O 0.54559 0.845 0.89756 0.0
O35 O 0.56085 0.86211 0.87163 0.0
C36 C 0.59105 0.81618 0.84361 0.0
O37 O 0.55989 0.80373 0.8966 0.0
O38 O 0.53975 0.78403 0.86628 0.0
In39 In 0.5269 0.25885 0.19752 0.0
O40 O 0.51488 0.23514 0.16214 0.0
O41 O 0.53054 0.22125 0.19012 0.0
C42 C 0.52921 0.29485 0.17317 0.0
C43 C 0.48455 0.25861 0.21583 0.0
C44 C 0.57376 0.26757 0.21652 0.0
O45 O 0.53104 0.27564 0.1641 0.0
O46 O 0.52623 0.29623 0.19488 0.0
O47 O 0.55825 0.25764 0.2273 0.0
O48 O 0.56555 0.27365 0.19761 0.0
C49 C 0.52173 0.21828 0.16857 0.0
O50 O 0.50343 0.26301 0.22915 0.0
O51 O 0.48718 0.25368 0.1944 0.0
In52 In 0.06828 0.8005 0.11643 0.0
O53 O 0.04985 0.76703 0.08974 0.0
O54 O 0.07944 0.7654 0.11098 0.0
C55 C 0.06658 0.84239 0.09774 0.0
C56 C 0.0325 0.79472 0.14143 0.0
C57 C 0.108 0.80612 0.14696 0.0
O58 O 0.07293 0.82616 0.08626 0.0
O59 O 0.06143 0.83734 0.11752 0.0
O60 O 0.08916 0.80699 0.15382 0.0
O61 O 0.10724 0.80323 0.12448 0.0
C62 C 0.06316 0.75447 0.09613 0.0
O63 O 0.05217 0.80424 0.15068 0.0
O64 O 0.03076 0.7876 0.11952 0.0
In65 In 0.50515 0.77517 0.45011 0.0
O66 O 0.52405 0.77834 0.41673 0.0
O67 O 0.54289 0.77506 0.44909 0.0
C68 C 0.46354 0.77374 0.42238 0.0
C69 C 0.50817 0.73503 0.4714 0.0
C70 C 0.51114 0.81971 0.4733 0.0
O71 O 0.48086 0.76986 0.41365 0.0
O72 O 0.4667 0.77686 0.4449 0.0
O73 O 0.49767 0.80318 0.47888 0.0
O74 O 0.52237 0.81366 0.45735 0.0
C75 C 0.54301 0.77702 0.42728 0.0
O76 O 0.51473 0.75483 0.48226 0.0
O77 O 0.49854 0.73529 0.45064 0.0
In78 In 0.56722 0.30119 0.61736 0.0
O79 O 0.55977 0.26926 0.58665 0.0
O80 O 0.56652 0.26336 0.62207 0.0
C81 C 0.56698 0.34303 0.59865 0.0
C82 C 0.52914 0.29832 0.63873 0.0
C83 C 0.60838 0.30622 0.64487 0.0
O84 O 0.56421 0.32429 0.58538 0.0
O85 O 0.57068 0.34054 0.62028 0.0
O86 O 0.59053 0.30862 0.65316 0.0
O87 O 0.60597 0.30184 0.62235 0.0
C88 C 0.56162 0.25454 0.60059 0.0
O89 O 0.54842 0.30749 0.64929 0.0
O90 O 0.52882 0.29043 0.61728 0.0
In91 In 1.00402 0.27398 0.94877 0.0
O92 O 1.00404 0.25139 0.98148 0.0
O93 O 0.01368 0.2382 0.94996 0.0
C94 C 0.01081 0.31843 0.97234 0.0
C95 C 0.04107 0.2765 0.925 0.0
C96 C 0.96218 0.27207 0.92059 0.0
O97 O 0.99959 0.30156 0.97994 0.0
O98 O 0.01935 0.31279 0.95401 0.0
O99 O 0.98076 0.27369 0.91249 0.0
O100 O 0.96426 0.27005 0.94248 0.0
C101 C 0.011 0.23514 0.97101 0.0
O102 O 0.02235 0.26346 0.91717 0.0
O103 O 0.04107 0.28862 0.94449 0.0
In104 In 0.39546 0.02692 0.31568 0.0
O105 O 0.4237 0.02704 0.29325 0.0
O106 O 0.39104 0.02779 0.27611 0.0
C107 C 0.41874 0.02952 0.35766 0.0
C108 C 0.37971 0.06395 0.32238 0.0
C109 C 0.37143 0.98567 0.3089 0.0
O110 O 0.42816 0.03071 0.33899 0.0
O111 O 0.39761 0.02737 0.35495 0.0
O112 O 0.36379 1.00175 0.30142 0.0
O113 O 0.39112 0.9904 0.31982 0.0
C114 C 0.41132 0.02743 0.27411 0.0
O115 O 0.36815 0.04496 0.32436 0.0
O116 O 0.39949 0.06414 0.31778 0.0
In117 In 0.27066 0.18853 0.51878 0.0
O118 O 0.29033 0.21325 0.552 0.0
O119 O 0.25628 0.19933 0.55314 0.0
C120 C 0.27192 0.20597 0.47599 0.0
C121 C 0.30501 0.16684 0.52399 0.0
C122 C 0.23123 0.15803 0.51206 0.0
O123 O 0.26794 0.21695 0.49467 0.0
O124 O 0.27519 0.18668 0.47903 0.0
O125 O 0.25011 0.15306 0.51732 0.0
O126 O 0.23213 0.17848 0.50943 0.0
C127 C 0.2743 0.21107 0.56439 0.0
O128 O 0.28521 0.15847 0.52721 0.0
O129 O 0.3077 0.18637 0.51794 0.0
In130 In 0.13838 0.0549 0.79637 0.0
O131 O 0.11649 0.03443 0.7619 0.0
O132 O 0.1258 0.06947 0.76268 0.0
C133 C 0.12099 0.05363 0.83927 0.0
C134 C 0.1612 0.02128 0.79179 0.0
C135 C 0.1668 0.09528 0.8008 0.0
O136 O 0.10854 0.04945 0.8194 0.0
O137 O 0.1416 0.05891 0.83736 0.0
O138 O 0.1735 0.07693 0.80084 0.0
O139 O 0.14562 0.09334 0.79904 0.0
C140 C 0.11649 0.05097 0.75045 0.0
O141 O 0.16975 0.04144 0.79015 0.0
O142 O 0.14103 0.01798 0.79595 0.0
In143 In 0.29716 0.9288 0.99952 0.0
O144 O 0.28378 0.90124 0.02089 0.0
O145 O 0.30384 0.93216 0.03915 0.0
C146 C 0.29756 0.90605 0.95804 0.0
C147 C 0.2619 0.94734 0.99369 0.0
C148 C 0.33925 0.95052 0.00755 0.0
O149 O 0.30016 0.89763 0.97716 0.0
O150 O 0.29423 0.92585 0.95991 0.0
O151 O 0.32313 0.96055 0.0096 0.0
O152 O 0.33395 0.92959 1.00111 0.0
C153 C 0.29302 0.9127 0.04042 0.0
O154 O 0.28154 0.95837 0.99322 0.0
O155 O 0.26032 0.92694 0.99653 0.0
In156 In 0.30966 0.39333 0.04634 0.0
O157 O 0.2912 0.36484 0.06498 0.0
O158 O 0.32023 0.38603 0.08466 0.0
C159 C 0.30862 0.37051 0.00203 0.0
C160 C 0.27404 0.41416 0.04625 0.0
C161 C 0.35095 0.42079 0.04914 0.0
O162 O 0.30511 0.36052 0.01998 0.0
O163 O 0.31295 0.39161 0.00653 0.0
O164 O 0.33267 0.42744 0.04528 0.0
O165 O 0.34853 0.40037 0.05253 0.0
C166 C 0.304 0.36972 0.0845 0.0
O167 O 0.29153 0.42074 0.06119 0.0
O168 O 0.27477 0.39753 0.0315 0.0
In169 In 0.76993 0.13384 0.0631 0.0
O170 O 0.78629 0.10393 0.06514 0.0
O171 O 0.80653 0.13738 0.07042 0.0
C172 C 0.72741 0.11418 0.05693 0.0
C173 C 0.77829 0.15819 0.10456 0.0
C174 C 0.76833 0.1528 0.02362 0.0
O175 O 0.74183 0.10475 0.04789 0.0
O176 O 0.73497 0.13223 0.07065 0.0
O177 O 0.76158 0.1606 0.04223 0.0
O178 O 0.7769 0.13573 0.02503 0.0
C179 C 0.80566 0.11659 0.06971 0.0
O180 O 0.78351 0.166 0.0858 0.0
O181 O 0.76831 0.13778 0.10236 0.0
In182 In 0.19621 0.55791 0.2512 0.0
O183 O 0.22138 0.53721 0.23974 0.0
O184 O 0.19286 0.52222 0.2553 0.0
C185 C 0.22127 0.59857 0.25885 0.0
C186 C 0.16945 0.55345 0.21138 0.0
C187 C 0.17318 0.5565 0.28818 0.0
O188 O 0.22615 0.58315 0.27018 0.0
O189 O 0.20434 0.59321 0.24317 0.0
O190 O 0.16415 0.54963 0.26708 0.0
O191 O 0.19415 0.5642 0.2908 0.0
C192 C 0.20973 0.51964 0.24536 0.0
O193 O 0.16383 0.55971 0.23127 0.0
O194 O 0.1896 0.55125 0.21119 0.0
In195 In 0.81003 0.8923 0.54721 0.0
O196 O 0.79177 0.86468 0.567 0.0
O197 O 0.82081 0.88611 0.58603 0.0
C198 C 0.8061 0.86854 0.503 0.0
C199 C 0.77468 0.91351 0.54718 0.0
C200 C 0.85195 0.91819 0.54692 0.0
O201 O 0.81579 0.86277 0.52142 0.0
O202 O 0.79824 0.88609 0.50685 0.0
O203 O 0.8362 0.92609 0.55511 0.0
O204 O 0.84665 0.89747 0.53932 0.0
C205 C 0.80443 0.87019 0.58649 0.0
O206 O 0.79454 0.92363 0.55543 0.0
O207 O 0.77306 0.89335 0.53845 0.0
In208 In 0.93336 0.01639 0.26812 0.0
O209 O 0.96513 0.02467 0.24975 0.0
O210 O 0.93468 0.01017 0.22739 0.0
C211 C 0.95502 0.02101 0.31349 0.0
C212 C 0.91409 0.05327 0.26868 0.0
C213 C 0.90885 0.9735 0.26449 0.0
O214 O 0.96543 0.02473 0.29591 0.0
O215 O 0.93399 0.01537 0.30833 0.0
O216 O 0.90032 0.98983 0.25891 0.0
O217 O 0.92998 0.97848 0.27023 0.0
C218 C 0.95544 0.01863 0.2287 0.0
O219 O 0.9041 0.03463 0.27355 0.0
O220 O 0.9336 0.05334 0.26354 0.0
In221 In 0.2708 0.63268 0.56089 0.0
O222 O 0.28825 0.60373 0.56601 0.0
O223 O 0.30703 0.63599 0.56132 0.0
C224 C 0.22804 0.61511 0.55546 0.0
C225 C 0.27929 0.65552 0.60298 0.0
C226 C 0.27088 0.65443 0.52355 0.0
O227 O 0.24202 0.60392 0.54825 0.0
O228 O 0.23602 0.63462 0.56617 0.0
O229 O 0.27412 0.66413 0.54458 0.0
O230 O 0.26723 0.6332 0.52095 0.0
C231 C 0.30718 0.61637 0.56579 0.0
O232 O 0.28398 0.66385 0.58445 0.0
O233 O 0.2692 0.63515 0.60042 0.0
In234 In 0.4318 0.51592 0.76782 0.0
O235 O 0.40292 0.53372 0.7582 0.0
O236 O 0.4324 0.55304 0.7797 0.0
C237 C 0.40631 0.47324 0.76462 0.0
C238 C 0.45227 0.52138 0.72757 0.0
C239 C 0.45421 0.5219 0.813 0.0
O240 O 0.39779 0.49044 0.76389 0.0
O241 O 0.42746 0.4774 0.76599 0.0
O242 O 0.46432 0.52276 0.79476 0.0
O243 O 0.43305 0.51855 0.80842 0.0
C244 C 0.41311 0.55276 0.76889 0.0
O245 O 0.45993 0.51152 0.74402 0.0
O246 O 0.43441 0.52775 0.73115 0.0
In247 In 0.69304 0.05614 0.74898 0.0
O248 O 0.72073 0.03724 0.7442 0.0
O249 O 0.68782 0.01974 0.74916 0.0
C250 C 0.71314 0.09815 0.75119 0.0
C251 C 0.6666 0.0445 0.70872 0.0
C252 C 0.67541 0.06178 0.7889 0.0
O253 O 0.72359 0.08409 0.75947 0.0
O254 O 0.69381 0.09038 0.74003 0.0
O255 O 0.66616 0.06473 0.769 0.0
O256 O 0.69385 0.05529 0.78887 0.0
C257 C 0.70747 0.01875 0.74504 0.0
O258 O 0.65955 0.04338 0.72865 0.0
O259 O 0.68743 0.05215 0.70907 0.0
In260 In 0.76943 0.68681 0.01973 0.0
O261 O 0.78465 0.6561 0.01151 0.0
O262 O 0.80528 0.68448 0.03367 0.0
C263 C 0.72862 0.65812 0.01189 0.0
C264 C 0.77319 0.70682 0.06638 0.0
C265 C 0.77419 0.70714 0.97879 0.0
O266 O 0.74705 0.65168 0.01216 0.0
O267 O 0.7306 0.67924 0.01503 0.0
O268 O 0.7607 0.71171 0.99305 0.0
O269 O 0.7856 0.69341 0.98571 0.0
C270 C 0.8035 0.66462 0.02361 0.0
O271 O 0.78072 0.71747 0.05007 0.0
O272 O 0.7635 0.68677 0.05898 0.0
In273 In 0.89675 0.52727 0.81236 0.0
O274 O 0.86351 0.53582 0.81636 0.0
O275 O 0.89283 0.56244 0.82302 0.0
C276 C 0.8779 0.48456 0.80077 0.0
C277 C 0.91408 0.53325 0.77229 0.0
C278 C 0.91858 0.52925 0.8549 0.0
O279 O 0.86745 0.49983 0.79605 0.0
O280 O 0.89777 0.49099 0.81108 0.0
O281 O 0.92764 0.53943 0.83908 0.0
O282 O 0.89847 0.51889 0.84924 0.0
C283 C 0.87165 0.55663 0.82153 0.0
O284 O 0.92277 0.52344 0.78809 0.0
O285 O 0.89755 0.54147 0.7774 0.0
In286 In 0.80049 0.42777 0.49746 0.0
O287 O 0.78644 0.39879 0.51734 0.0
O288 O 0.80883 0.42801 0.53631 0.0
C289 C 0.79885 0.4101 0.45313 0.0
C290 C 0.76751 0.44964 0.4969 0.0
C291 C 0.84289 0.44796 0.50488 0.0
O292 O 0.80416 0.39983 0.47031 0.0
O293 O 0.79343 0.42874 0.45833 0.0
O294 O 0.82775 0.4577 0.5116 0.0
O295 O 0.8366 0.4283 0.49399 0.0
C296 C 0.79682 0.40904 0.53707 0.0
O297 O 0.7877 0.45949 0.49692 0.0
O298 O 0.76403 0.42851 0.49624 0.0
In299 In 0.63781 0.5554 0.29544 0.0
O300 O 0.66759 0.53937 0.30585 0.0
O301 O 0.63757 0.51797 0.28763 0.0
C302 C 0.66621 0.59562 0.29796 0.0
C303 C 0.61815 0.55192 0.2486 0.0
C304 C 0.61949 0.55339 0.33778 0.0
O305 O 0.67131 0.57724 0.29085 0.0
O306 O 0.64653 0.59399 0.30348 0.0
O307 O 0.60811 0.54496 0.3178 0.0
O308 O 0.63935 0.56292 0.3361 0.0
C309 C 0.65779 0.51981 0.29657 0.0
O310 O 0.60918 0.5597 0.26592 0.0
O311 O 0.63621 0.54591 0.25509 0.0
C312 C 0.99951 0.98365 0.99987 0.0
C313 C 0.97805 0.96379 0.02751 0.0
C314 C 0.99194 0.98333 0.02205 0.0
C315 C 0.97182 0.94464 0.0104 0.0
C316 C 0.99286 0.96455 0.98251 0.0
C317 C 0.97912 0.94505 0.98795 0.0
N318 N 0.01274 1.00282 0.99501 0.0
C319 C 0.01899 1.00423 0.97281 0.0
C320 C 0.99981 0.96573 0.95999 0.0
C321 C 0.01279 0.9857 0.95509 0.0
Gd322 Gd 0.07864 0.05878 0.05884 0.0
Gd323 Gd 0.01945 0.03347 0.02534 0.0
N324 N 0.99817 1.00211 0.03831 0.0
C325 C 0.97068 0.96415 0.04996 0.0
C326 C 0.98973 1.00302 0.0595 0.0
C327 C 0.97639 0.98394 0.06595 0.0
H328 H 0.99252 0.01858 0.07112 0.0
H329 H 0.97009 0.98469 0.083 0.0
H330 H 0.09841 0.07794 0.01001 0.0
H331 H 0.02792 0.01982 0.9682 0.0
H332 H 0.11748 0.1136 0.99879 0.0
H333 H 0.96012 0.94944 0.05487 0.0
H334 H 0.96116 0.92949 0.01427 0.0
H335 H 0.06701 0.07078 0.11533 0.0
H336 H 0.99486 0.95148 0.94612 0.0
H337 H 0.0177 0.98697 0.93751 0.0
H338 H 0.12638 0.1658 0.0698 0.0
H339 H 0.97387 0.93023 0.97482 0.0
H340 H 0.0962 0.13993 0.1382 0.0
H341 H 0.07542 0.10331 0.14637 0.0
N342 N 0.0808 0.08905 0.08864 0.0
C343 C 0.09255 0.10903 0.08382 0.0
C344 C 0.07469 0.08688 0.11081 0.0
C345 C 0.09185 0.12584 0.12411 0.0
C346 C 0.07999 0.10524 0.12876 0.0
C347 C 0.0983 0.12796 0.10149 0.0
H348 H 0.11533 0.16292 0.10971 0.0
N349 N 0.09392 0.09203 0.04442 0.0
C350 C 0.09921 0.11058 0.06119 0.0
C351 C 0.11745 0.1323 0.03305 0.0
C352 C 0.11122 0.13118 0.05588 0.0
C353 C 0.10078 0.09286 0.02248 0.0
C354 C 0.1122 0.11305 0.01629 0.0
O355 O 0.03595 1.00524 0.03897 0.0
O356 O 0.07112 0.02037 0.06028 0.0
O357 O 0.11358 0.05887 0.05524 0.0
O358 O 0.10278 0.06142 0.09015 0.0
O359 O 0.02286 0.05086 0.06336 0.0
O360 O 0.05427 0.04166 0.08135 0.0
O361 O 0.05574 0.08442 0.05009 0.0
O362 O 0.03498 0.06756 0.01504 0.0
O363 O 0.99111 0.0484 0.03325 0.0
O364 O 0.99232 0.03178 0.99723 0.0
O365 O 0.07885 0.04126 0.02118 0.0
O366 O 0.04543 0.0461 0.00219 0.0
C367 C 0.05467 1.00279 0.0517 0.0
C368 C 0.03383 0.04502 0.08201 0.0
C369 C 0.1339 0.04466 0.08586 0.0
C370 C 0.16263 0.02369 0.0775 0.0
C371 C 0.14987 0.02521 0.11635 0.0
C372 C 0.13499 0.03866 0.10905 0.0
C373 C 0.16368 0.01769 0.10064 0.0
C374 C 0.14794 0.03731 0.07035 0.0
C375 C 0.11934 0.0597 0.0781 0.0
C376 C 0.11692 0.14994 0.07352 0.0
C377 C 0.1106 0.14831 0.09625 0.0
H378 H 0.12666 0.14783 0.02831 0.0
C379 C 0.04352 0.08603 0.02985 0.0
C380 C 0.06572 0.04221 0.00152 0.0
C381 C 0.96003 0.04788 0.00266 0.0
C382 C 0.93006 0.0673 0.00974 0.0
C383 C 0.93042 0.04758 0.97057 0.0
C384 C 0.95027 0.04114 0.97887 0.0
C385 C 0.92032 0.06071 0.98592 0.0
C386 C 0.94983 0.06084 0.01802 0.0
C387 C 0.98157 0.0428 0.0112 0.0
H388 H 0.1507 0.02063 0.1342 0.0
H389 H 0.12456 0.04449 0.12158 0.0
H390 H 0.17498 0.00707 0.10644 0.0
H391 H 0.14772 0.04245 0.0527 0.0
H392 H 0.92288 0.04241 0.95225 0.0
H393 H 0.95806 0.03116 0.96666 0.0
H394 H 0.90472 0.06534 0.97938 0.0
H395 H 0.95738 0.06623 0.03637 0.0
C396 C 0.31208 0.75198 0.23842 0.0
C397 C 0.27978 0.73205 0.21057 0.0
C398 C 0.29024 0.75059 0.22769 0.0
C399 C 0.29156 0.71509 0.20447 0.0
C400 C 0.32396 0.735 0.23237 0.0
C401 C 0.31362 0.7166 0.21528 0.0
N402 N 0.32133 0.76948 0.25559 0.0
C403 C 0.34252 0.77139 0.26705 0.0
C404 C 0.34579 0.73686 0.24398 0.0
C405 C 0.35511 0.75516 0.26138 0.0
Gd406 Gd 0.26182 0.79582 0.32455 0.0
Gd407 Gd 0.29947 0.79599 0.26449 0.0
N408 N 0.27913 0.7671 0.23439 0.0
C409 C 0.25776 0.73104 0.20009 0.0
C410 C 0.25799 0.76659 0.22326 0.0
C411 C 0.24693 0.7485 0.20631 0.0
H412 H 0.24946 0.78007 0.22667 0.0
H413 H 0.23008 0.74819 0.19787 0.0
H414 H 0.30831 0.80913 0.36665 0.0
H415 H 0.34976 0.78549 0.28055 0.0
H416 H 0.32417 0.83827 0.40017 0.0
H417 H 0.24912 0.71705 0.18695 0.0
H418 H 0.28375 0.70072 0.19142 0.0
H419 H 0.2102 0.80428 0.30736 0.0
H420 H 0.35551 0.7242 0.23978 0.0
H421 H 0.37195 0.75672 0.27049 0.0
H422 H 0.26729 0.88197 0.40754 0.0
H423 H 0.32246 0.70334 0.21044 0.0
H424 H 0.19935 0.86069 0.3526 0.0
H425 H 0.18607 0.83071 0.31848 0.0
N426 N 0.23699 0.81911 0.33489 0.0
C427 C 0.24428 0.83494 0.35424 0.0
C428 C 0.21626 0.8173 0.32227 0.0
C429 C 0.20998 0.84901 0.34792 0.0
C430 C 0.20246 0.83217 0.3286 0.0
C431 C 0.23112 0.85059 0.36101 0.0
H432 H 0.22978 0.87978 0.38564 0.0
N433 N 0.27797 0.8211 0.35921 0.0
C434 C 0.26538 0.836 0.36677 0.0
C435 C 0.29539 0.85389 0.39808 0.0
C436 C 0.27391 0.85299 0.38616 0.0
C437 C 0.2986 0.82144 0.37144 0.0
C438 C 0.30767 0.83791 0.39083 0.0
O439 O 0.29111 0.76254 0.27703 0.0
O440 O 0.26318 0.77592 0.29023 0.0
O441 O 0.2612 0.77 0.34772 0.0
O442 O 0.23013 0.77479 0.32866 0.0
O443 O 0.26556 0.80771 0.25859 0.0
O444 O 0.24211 0.79641 0.28755 0.0
O445 O 0.27473 0.83182 0.32123 0.0
O446 O 0.28874 0.81246 0.29569 0.0
O447 O 0.29941 0.81694 0.23661 0.0
O448 O 0.33152 0.81547 0.25734 0.0
O449 O 0.298 0.78742 0.32938 0.0
O450 O 0.3207 0.80288 0.30155 0.0
C451 C 0.27436 0.76003 0.28924 0.0
C452 C 0.24561 0.80407 0.26682 0.0
C453 C 0.22809 0.76247 0.36624 0.0
C454 C 0.22834 0.74957 0.40506 0.0
C455 C 0.19419 0.75811 0.38541 0.0
C456 C 0.20528 0.76359 0.36602 0.0
C457 C 0.20548 0.7507 0.40467 0.0
C458 C 0.23967 0.75653 0.38624 0.0
C459 C 0.23924 0.76471 0.34485 0.0
C460 C 0.26092 0.86872 0.39281 0.0
C461 C 0.23957 0.86748 0.38032 0.0
H462 H 0.30258 0.86676 0.41297 0.0
C463 C 0.28691 0.83235 0.30432 0.0
C464 C 0.31804 0.79363 0.32158 0.0
C465 C 0.33268 0.83922 0.22554 0.0
C466 C 0.331 0.85844 0.19067 0.0
C467 C 0.36682 0.86102 0.21478 0.0
C468 C 0.35609 0.84715 0.22985 0.0
C469 C 0.35435 0.8665 0.19505 0.0
C470 C 0.32018 0.8452 0.20607 0.0
C471 C 0.32122 0.82357 0.24011 0.0
H472 H 0.17655 0.75868 0.38506 0.0
H473 H 0.19588 0.76811 0.35069 0.0
H474 H 0.19604 0.74504 0.41867 0.0
H475 H 0.2574 0.75623 0.38658 0.0
H476 H 0.38486 0.86713 0.2181 0.0
H477 H 0.36609 0.84242 0.24461 0.0
H478 H 0.36287 0.87673 0.18305 0.0
H479 H 0.30214 0.83884 0.20219 0.0
C480 C 0.58393 0.07873 0.50358 0.0
C481 C 0.61152 0.1052 0.5325 0.0
C482 C 0.59535 0.08495 0.5267 0.0
C483 C 0.61531 0.11972 0.51525 0.0
C484 C 0.58836 0.09309 0.48609 0.0
C485 C 0.60365 0.11377 0.49219 0.0
N486 N 0.5696 0.05828 0.49786 0.0
C487 C 0.56098 0.05051 0.47462 0.0
C488 C 0.57788 0.08595 0.46272 0.0
C489 C 0.56444 0.06444 0.45691 0.0
Gd490 Gd 0.49994 0.03115 0.55927 0.0
Gd491 Gd 0.56489 0.03808 0.53046 0.0
N492 N 0.59099 0.07107 0.54347 0.0
C493 C 0.62348 0.1102 0.55551 0.0
C494 C 0.60374 0.0749 0.56521 0.0
C495 C 0.61982 0.09479 0.57182 0.0
H496 H 0.6017 0.06242 0.57716 0.0
H497 H 0.62959 0.09805 0.58931 0.0
H498 H 0.46483 0.01048 0.50915 0.0
H499 H 0.55164 0.0335 0.46934 0.0
H500 H 0.43993 0.97433 0.49142 0.0
H501 H 0.63598 0.12563 0.56065 0.0
H502 H 0.62742 0.1355 0.51948 0.0
H503 H 0.50364 0.0314 0.62001 0.0
H504 H 0.58078 0.09656 0.44884 0.0
H505 H 0.55708 0.05842 0.43866 0.0
H506 H 0.43839 0.9294 0.55555 0.0
H507 H 0.60706 0.12504 0.479 0.0
H508 H 0.47482 0.96493 0.63248 0.0
H509 H 0.49514 1.0037 0.64774 0.0
N510 N 0.49035 0.00795 0.58881 0.0
C511 C 0.4774 0.98731 0.58027 0.0
C512 C 0.49542 0.01433 0.61289 0.0
C513 C 0.47886 0.9769 0.62009 0.0
C514 C 0.49035 0.99876 0.62877 0.0
C515 C 0.47162 0.97113 0.59568 0.0
H516 H 0.45375 0.93734 0.59798 0.0
N517 N 0.47336 0.99907 0.542 0.0
C518 C 0.4685 0.98283 0.55629 0.0
C519 C 0.44416 0.95882 0.5234 0.0
C520 C 0.454 0.96208 0.54721 0.0
C521 C 0.4626 0.99662 0.51938 0.0
C522 C 0.44815 0.97634 0.50955 0.0
O523 O 0.55757 0.07155 0.54924 0.0
O524 O 0.52163 0.06724 0.56223 0.0
O525 O 0.46945 0.04207 0.54534 0.0
O526 O 0.48479 0.05211 0.58233 0.0
O527 O 0.54278 0.03268 0.5574 0.0
O528 O 0.52718 0.03414 0.58927 0.0
O529 O 0.50978 0.99824 0.54147 0.0
O530 O 0.54387 1.00178 0.52393 0.0
O531 O 0.58765 0.02062 0.54991 0.0
O532 O 0.59292 0.02899 0.5147 0.0
O533 O 0.51498 0.04414 0.52779 0.0
O534 O 0.53484 0.02702 0.50321 0.0
C535 C 0.54113 0.07991 0.55865 0.0
C536 C 0.54534 0.03359 0.5802 0.0
C537 C 0.4472 0.05595 0.5737 0.0
C538 C 0.41739 0.07715 0.5723 0.0
C539 C 0.42312 0.05556 0.60494 0.0
C540 C 0.44096 0.04853 0.595 0.0
C541 C 0.41155 0.07007 0.59382 0.0
C542 C 0.43502 0.06982 0.56212 0.0
C543 C 0.46875 0.05351 0.56587 0.0
C544 C 0.44931 0.94553 0.56227 0.0
C545 C 0.45809 0.95004 0.58643 0.0
H546 H 0.43288 0.94314 0.51578 0.0
C547 C 0.52501 0.98972 0.52986 0.0
C548 C 0.51557 0.03146 0.50802 0.0
C549 C 0.60521 0.997 0.52509 0.0
C550 C 0.63369 0.97396 0.52376 0.0
C551 C 0.5989 0.96328 0.49641 0.0
C552 C 0.5915 0.98196 0.50646 0.0
C553 C 0.61998 0.95942 0.50479 0.0
C554 C 0.62616 0.99268 0.53407 0.0
C555 C 0.59952 0.01887 0.53233 0.0
H556 H 0.41863 0.05022 0.6216 0.0
H557 H 0.45042 0.0381 0.60441 0.0
H558 H 0.39804 0.07577 0.60197 0.0
H559 H 0.44008 0.07601 0.54597 0.0
H560 H 0.58848 0.95204 0.4817 0.0
H561 H 0.57549 0.98517 0.49904 0.0
H562 H 0.62565 0.94509 0.49644 0.0
H563 H 0.63701 1.00441 0.54814 0.0
C564 C 0.24022 0.30418 0.73619 0.0
C565 C 0.21726 0.26958 0.7144 0.0
C566 C 0.23173 0.28119 0.73471 0.0
C567 C 0.21174 0.28131 0.69546 0.0
C568 C 0.2346 0.31602 0.71729 0.0
C569 C 0.22039 0.30445 0.69689 0.0
N570 N 0.25423 0.31485 0.75598 0.0
C571 C 0.2627 0.33744 0.75835 0.0
C572 C 0.24353 0.33914 0.71941 0.0
C573 C 0.25756 0.3499 0.74008 0.0
Gd574 Gd 0.32121 0.27054 0.78958 0.0
Gd575 Gd 0.26267 0.29217 0.78486 0.0
N576 N 0.23803 0.27013 0.75297 0.0
C577 C 0.20873 0.24653 0.71382 0.0
C578 C 0.22869 0.24808 0.75316 0.0
C579 C 0.21422 0.23581 0.73345 0.0
H580 H 0.23187 0.24011 0.76868 0.0
H581 H 0.20711 0.21818 0.73353 0.0
H582 H 0.35116 0.32314 0.80642 0.0
H583 H 0.27324 0.34596 0.77443 0.0
H584 H 0.37809 0.34413 0.84037 0.0
H585 H 0.19753 0.23699 0.69855 0.0
H586 H 0.20073 0.27265 0.67965 0.0
H587 H 0.30808 0.21714 0.80156 0.0
H588 H 0.23962 0.34885 0.70526 0.0
H589 H 0.26437 0.36779 0.74197 0.0
H590 H 0.38758 0.28863 0.89203 0.0
H591 H 0.21595 0.31327 0.68214 0.0
H592 H 0.3452 0.21348 0.86859 0.0
H593 H 0.31786 0.19519 0.8335 0.0
N594 N 0.32883 0.24792 0.81889 0.0
C595 C 0.34424 0.25823 0.83779 0.0
C596 C 0.31952 0.22553 0.81708 0.0
C597 C 0.34078 0.22331 0.85474 0.0
C598 C 0.32527 0.21294 0.83501 0.0
C599 C 0.35053 0.24619 0.8563 0.0
H600 H 0.37126 0.24834 0.89017 0.0
N601 N 0.34646 0.29243 0.82113 0.0
C602 C 0.35349 0.28104 0.83882 0.0
C603 C 0.3779 0.31527 0.85905 0.0
C604 C 0.36922 0.29226 0.85841 0.0
C605 C 0.35553 0.31461 0.8212 0.0
C606 C 0.37113 0.32645 0.84028 0.0
O607 O 0.27586 0.28191 0.74968 0.0
O608 O 0.29563 0.25465 0.75786 0.0
O609 O 0.34965 0.27963 0.76885 0.0
O610 O 0.34083 0.24624 0.77994 0.0
O611 O 0.26518 0.26091 0.80241 0.0
O612 O 0.28936 0.24383 0.78223 0.0
O613 O 0.30856 0.28144 0.82478 0.0
O614 O 0.28933 0.3086 0.81506 0.0
O615 O 0.23531 0.28156 0.8068 0.0
O616 O 0.24184 0.31502 0.79569 0.0
O617 O 0.31989 0.30221 0.77218 0.0
O618 O 0.29455 0.31938 0.79076 0.0
C619 C 0.2856 0.26529 0.74251 0.0
C620 C 0.27214 0.24284 0.79432 0.0
C621 C 0.37213 0.25129 0.75725 0.0
C622 C 0.40484 0.25621 0.73541 0.0
C623 C 0.39009 0.21983 0.74736 0.0
C624 C 0.37358 0.22864 0.75784 0.0
C625 C 0.40557 0.23343 0.73625 0.0
C626 C 0.38779 0.26514 0.74572 0.0
C627 C 0.35401 0.25952 0.76874 0.0
C628 C 0.37557 0.28027 0.87681 0.0
C629 C 0.36625 0.25732 0.87577 0.0
H630 H 0.38996 0.3245 0.87382 0.0
C631 C 0.2986 0.29813 0.83107 0.0
C632 C 0.31223 0.32027 0.77913 0.0
C633 C 0.21212 0.30887 0.82071 0.0
C634 C 0.1794 0.30316 0.84305 0.0
C635 C 0.19713 0.34076 0.83665 0.0
C636 C 0.21267 0.33213 0.82424 0.0
C637 C 0.1807 0.32648 0.84595 0.0
C638 C 0.19525 0.29418 0.8303 0.0
C639 C 0.22982 0.30121 0.80748 0.0
H640 H 0.39091 0.20235 0.74789 0.0
H641 H 0.36185 0.21751 0.76639 0.0
H642 H 0.41819 0.22606 0.72815 0.0
H643 H 0.387 0.28264 0.74513 0.0
H644 H 0.19786 0.35871 0.8391 0.0
H645 H 0.2253 0.34391 0.81748 0.0
H646 H 0.16878 0.33371 0.85548 0.0
H647 H 0.19448 0.27621 0.82794 0.0
C648 C 0.01765 0.08266 0.57975 0.0
C649 C 0.05049 0.10648 0.604 0.0
C650 C 0.04046 0.09227 0.58296 0.0
C651 C 0.03745 0.10995 0.62239 0.0
C652 C 1.00436 0.08661 0.59786 0.0
C653 C 0.01446 0.09996 0.61937 0.0
N654 N 0.00837 0.07006 0.55861 0.0
C655 C 0.98569 0.06198 0.55393 0.0
C656 C 0.98124 0.07735 0.59363 0.0
C657 C 0.97185 0.06519 0.57148 0.0
Gd658 Gd 0.05463 1.00499 0.52416 0.0
Gd659 Gd 0.0337 0.06407 0.53155 0.0
N660 N 0.05278 0.08795 0.56518 0.0
C661 C 0.07316 0.11718 0.60559 0.0
C662 C 0.07407 0.09981 0.56564 0.0
C663 C 0.08485 0.11425 0.58606 0.0
H664 H 0.08224 0.09863 0.54988 0.0
H665 H 0.10197 0.12337 0.58656 0.0
H666 H 1.00176 0.97621 0.50634 0.0
H667 H 0.97816 0.05329 0.53661 0.0
H668 H 0.98033 0.95098 0.47138 0.0
H669 H 0.08149 0.12839 0.62139 0.0
H670 H 0.04489 0.12064 0.63884 0.0
H671 H 0.10861 0.0164 0.51322 0.0
H672 H 0.97044 0.07993 0.60713 0.0
H673 H 0.95391 0.05847 0.56783 0.0
H674 H 0.03559 0.94295 0.419 0.0
H675 H 1.00455 0.10307 0.63357 0.0
H676 H 0.11166 0.98198 0.44463 0.0
H677 H 0.1305 0.00712 0.48107 0.0
N678 N 0.07728 0.99785 0.49464 0.0
C679 C 0.06666 0.98363 0.47496 0.0
C680 C 0.09997 0.00604 0.4971 0.0
C681 C 0.10185 0.9863 0.45854 0.0
C682 C 0.11253 1.00054 0.47905 0.0
C683 C 0.07868 0.97755 0.45633 0.0
H684 H 0.07625 0.95802 0.42171 0.0
N685 N 0.0324 0.98148 0.49152 0.0
C686 C 0.04364 0.97509 0.47342 0.0
C687 C 0.00909 0.95186 0.4524 0.0
C688 C 0.03219 0.96029 0.45323 0.0
C689 C 0.01014 0.97254 0.49125 0.0
C690 C 0.99807 0.95788 0.47158 0.0
O691 O 0.04653 0.05121 0.56589 0.0
O692 O 0.07136 0.02821 0.55734 0.0
O693 O 0.04392 0.97543 0.54279 0.0
O694 O 0.07775 0.98371 0.53259 0.0
O695 O 0.06617 0.06257 0.51578 0.0
O696 O 0.08266 0.03573 0.53231 0.0
O697 O 0.04395 0.01978 0.49024 0.0
O698 O 0.01664 0.03908 0.50016 0.0
O699 O 0.04618 0.08987 0.50954 0.0
O700 O 0.01501 0.08999 0.52407 0.0
O701 O 0.0236 0.00724 0.54244 0.0
O702 O 1.0061 0.03246 0.52433 0.0
C703 C 0.06217 0.0401 0.57264 0.0
C704 C 0.08393 0.05462 0.52303 0.0
C705 C 0.07055 0.95059 0.55243 0.0
C706 C 0.06512 0.91896 0.5757 0.0
C707 C 0.09937 0.92827 0.55767 0.0
C708 C 0.09165 0.94594 0.54832 0.0
C709 C 0.08625 0.9149 0.57128 0.0
C710 C 0.05713 0.93686 0.56619 0.0
C711 C 0.06367 0.97019 0.54264 0.0
C712 C 0.04412 0.95429 0.43464 0.0
C713 C 0.06728 0.96288 0.43618 0.0
H714 H 0.9997 0.94043 0.43721 0.0
C715 C 0.02665 0.02905 0.48416 0.0
C716 C 1.00524 0.01417 0.53496 0.0
C717 C 0.01989 0.10868 0.48973 0.0
C718 C 0.01975 0.13929 0.46483 0.0
C719 C 0.98921 0.1063 0.45802 0.0
C720 C 0.99939 0.09712 0.47665 0.0
C721 C 0.99916 0.12723 0.45228 0.0
C722 C 0.03026 0.12978 0.48352 0.0
C723 C 0.02928 0.09991 0.51117 0.0
H724 H 0.11566 0.92498 0.55441 0.0
H725 H 0.10238 0.95606 0.53789 0.0
H726 H 0.09264 0.90128 0.57848 0.0
H727 H 0.04089 0.94018 0.5697 0.0
H728 H 0.97326 0.09734 0.44826 0.0
H729 H 0.99091 0.08125 0.48128 0.0
H730 H 0.99067 0.13414 0.43801 0.0
H731 H 0.04591 0.13908 0.49371 0.0
C732 C 0.24633 0.74321 0.80837 0.0
C733 C 0.21977 0.71757 0.7777 0.0
C734 C 0.24041 0.73294 0.78464 0.0
C735 C 0.20511 0.71255 0.7946 0.0
C736 C 0.23162 0.73781 0.82533 0.0
C737 C 0.21101 0.72262 0.81828 0.0
N738 N 0.26655 0.75782 0.81502 0.0
C739 C 0.27361 0.76612 0.83844 0.0
C740 C 0.23824 0.74745 0.84907 0.0
C741 C 0.25938 0.76148 0.85567 0.0
Gd742 Gd 0.29359 0.82483 0.75511 0.0
Gd743 Gd 0.28861 0.76215 0.78408 0.0
N744 N 0.2546 0.73836 0.76825 0.0
C745 C 0.21452 0.70751 0.75394 0.0
C746 C 0.25008 0.72791 0.74539 0.0
C747 C 0.22982 0.71258 0.73777 0.0
H748 H 0.26212 0.73121 0.73315 0.0
H749 H 0.22611 0.7045 0.71953 0.0
H750 H 0.31336 0.86599 0.79991 0.0
H751 H 0.29038 0.77586 0.84426 0.0
H752 H 0.34775 0.8954 0.81294 0.0
H753 H 0.19885 0.69557 0.74797 0.0
H754 H 0.1892 0.70075 0.78957 0.0
H755 H 0.29436 0.8094 0.69513 0.0
H756 H 0.22739 0.74368 0.86258 0.0
H757 H 0.26492 0.76838 0.87413 0.0
H758 H 0.39226 0.88912 0.74905 0.0
H759 H 0.19956 0.71832 0.83112 0.0
H760 H 0.35918 0.83852 0.67886 0.0
H761 H 0.3217 0.81384 0.66682 0.0
N762 N 0.31688 0.82905 0.72458 0.0
C763 C 0.33675 0.84415 0.73096 0.0
C764 C 0.311 0.81919 0.70143 0.0
C765 C 0.34743 0.83613 0.69178 0.0
C766 C 0.32633 0.82211 0.68494 0.0
C767 C 0.35264 0.84785 0.71479 0.0
H768 H 0.38534 0.86651 0.70962 0.0
N769 N 0.32494 0.85372 0.76832 0.0
C770 C 0.34072 0.85706 0.75326 0.0
C771 C 0.36325 0.88732 0.78179 0.0
C772 C 0.36054 0.87374 0.75982 0.0
C773 C 0.32685 0.8677 0.78906 0.0
C774 C 0.34615 0.88452 0.79629 0.0
O775 O 0.25502 0.77218 0.77014 0.0
O776 O 0.25765 0.80343 0.74922 0.0
O777 O 0.27933 0.8535 0.76823 0.0
O778 O 0.27659 0.8418 0.73026 0.0
O779 O 0.30199 0.777 0.75348 0.0
O780 O 0.28332 0.79454 0.72865 0.0
O781 O 0.32786 0.81794 0.77315 0.0
O782 O 0.32486 0.7828 0.78792 0.0
O783 O 0.30113 0.73299 0.76908 0.0
O784 O 0.29759 0.73823 0.80649 0.0
O785 O 0.28287 0.81247 0.78847 0.0
O786 O 0.30123 0.79198 0.81089 0.0
C787 C 0.24581 0.78601 0.75747 0.0
C788 C 0.28988 0.77641 0.73329 0.0
C789 C 0.27151 0.87874 0.74017 0.0
C790 C 0.25154 0.90961 0.74051 0.0
C791 C 0.2777 0.90556 0.71186 0.0
C792 C 0.28239 0.88653 0.72123 0.0
C793 C 0.26218 0.91694 0.72126 0.0
C794 C 0.25645 0.8906 0.75004 0.0
C795 C 0.27193 0.85621 0.74656 0.0
C796 C 0.3768 0.8766 0.74418 0.0
C797 C 0.37288 0.86368 0.72174 0.0
H798 H 0.37821 0.90033 0.78744 0.0
C799 C 0.33687 0.80225 0.7834 0.0
C800 C 0.29693 0.81144 0.80702 0.0
C801 C 0.32582 0.71873 0.79663 0.0
C802 C 0.34879 0.69014 0.79351 0.0
C803 C 0.35833 0.7207 0.82613 0.0
C804 C 0.34023 0.72963 0.81727 0.0
C805 C 0.36253 0.70101 0.81443 0.0
C806 C 0.33035 0.69899 0.78459 0.0
C807 C 0.30454 0.72608 0.78978 0.0
H808 H 0.28575 0.91125 0.69696 0.0
H809 H 0.29381 0.87742 0.71306 0.0
H810 H 0.2586 0.93156 0.71361 0.0
H811 H 0.2476 0.88433 0.76426 0.0
H812 H 0.36895 0.72888 0.84236 0.0
H813 H 0.33712 0.7447 0.82705 0.0
H814 H 0.37646 0.69411 0.8218 0.0
H815 H 0.31925 0.69021 0.76888 0.0
C816 C 0.57106 0.01368 0.07589 0.0
C817 C 0.59385 0.04642 0.10095 0.0
C818 C 0.5745 0.03625 0.08471 0.0
C819 C 0.60956 0.03356 0.10803 0.0
C820 C 0.58669 1.00064 0.0831 0.0
C821 C 0.60599 0.01073 0.09913 0.0
N822 N 0.55253 1.00448 0.06004 0.0
C823 C 0.54798 0.98216 0.05155 0.0
C824 C 0.58245 0.97783 0.07395 0.0
C825 C 0.56291 0.96851 0.05823 0.0
Gd826 Gd 0.5277 0.06527 0.98812 0.0
Gd827 Gd 0.52852 0.02814 0.04863 0.0
N828 N 0.55914 0.04831 0.07711 0.0
C829 C 0.5969 0.06921 0.10961 0.0
C830 C 0.56196 0.07049 0.0861 0.0
C831 C 0.58079 0.08124 0.10227 0.0
H832 H 0.54996 0.0803 0.08131 0.0
H833 H 0.5828 0.09884 0.1091 0.0
H834 H 0.50162 0.01519 0.95533 0.0
H835 H 0.53269 0.97482 0.03971 0.0
H836 H 0.4732 1.00132 0.92066 0.0
H837 H 0.61152 0.07762 0.12209 0.0
H838 H 0.62453 0.04113 0.12039 0.0
H839 H 0.52396 0.11867 0.00423 0.0
H840 H 0.59404 0.96724 0.07905 0.0
H841 H 0.55931 0.95083 0.05128 0.0
H842 H 0.44289 0.06581 0.90515 0.0
H843 H 0.61824 1.00101 0.10478 0.0
H844 H 0.47107 0.13436 0.9577 0.0
H845 H 0.50101 0.14561 0.99211 0.0
N846 N 0.50662 0.09206 0.97781 0.0
C847 C 0.49062 0.0857 0.95846 0.0
C848 C 0.51052 0.11333 0.98971 0.0
C849 C 0.48101 0.12239 0.96308 0.0
C850 C 0.49778 0.12876 0.9826 0.0
C851 C 0.47723 0.10067 0.95073 0.0
H852 H 0.44981 0.10467 0.92511 0.0
N853 N 0.49898 0.04936 0.95604 0.0
C854 C 0.48691 0.06384 0.94696 0.0
C855 C 0.46495 0.03373 0.91785 0.0
C856 C 0.46944 0.05632 0.9278 0.0
C857 C 0.49394 0.02711 0.94689 0.0
C858 C 0.47714 0.01903 0.92758 0.0
O859 O 0.56088 0.03553 0.03453 0.0
O860 O 0.55048 0.06571 0.02182 0.0
O861 O 0.55197 0.06212 0.96359 0.0
O862 O 0.54774 0.09515 0.97832 0.0
O863 O 0.51794 0.06242 0.05426 0.0
O864 O 0.52816 0.08581 0.02496 0.0
O865 O 0.49204 0.05176 0.99095 0.0
O866 O 0.51142 0.04048 0.01883 0.0
O867 O 0.50972 0.03009 0.07821 0.0
O868 O 0.5052 0.99825 0.05506 0.0
O869 O 0.53498 0.02889 0.98248 0.0
O870 O 0.52501 0.00588 0.01243 0.0
C871 C 0.5654 0.05306 0.02348 0.0
C872 C 0.52116 0.08233 0.04601 0.0
C873 C 0.55708 0.09096 0.93944 0.0
C874 C 0.57451 0.09102 0.90361 0.0
C875 C 0.54576 0.11276 0.90879 0.0
C876 C 0.54362 0.10553 0.93106 0.0
C877 C 0.56132 0.1056 0.89503 0.0
C878 C 0.57228 0.08367 0.92557 0.0
C879 C 0.55679 0.08376 0.96291 0.0
C880 C 0.45639 0.0713 0.91981 0.0
C881 C 0.46028 0.09341 0.93123 0.0
H882 H 0.4516 0.0273 0.90321 0.0
C883 C 0.49144 0.03967 0.00786 0.0
C884 C 0.53186 0.00906 0.9912 0.0
C885 C 0.49943 0.99779 0.09589 0.0
C886 C 0.48327 0.99504 0.13265 0.0
C887 C 0.51127 0.97327 0.12318 0.0
C888 C 0.51282 0.98243 0.10182 0.0
C889 C 0.49643 0.97941 0.13852 0.0
C890 C 0.48496 1.00421 0.11144 0.0
C891 C 0.50054 0.00876 0.0745 0.0
H892 H 0.53562 0.12415 0.90237 0.0
H893 H 0.5318 0.11153 0.9417 0.0
H894 H 0.56332 0.11159 0.87802 0.0
H895 H 0.58289 0.07266 0.93216 0.0
H896 H 0.52162 0.96145 0.12788 0.0
H897 H 0.52445 0.97766 0.09019 0.0
H898 H 0.49546 0.97228 0.15508 0.0
H899 H 0.47491 0.01642 0.10701 0.0
C900 C 0.3442 0.32691 0.31367 0.0
C901 C 0.36605 0.34524 0.28531 0.0
C902 C 0.3459 0.33233 0.2907 0.0
C903 C 0.38471 0.35194 0.303 0.0
C904 C 0.36275 0.33442 0.33166 0.0
C905 C 0.38307 0.34653 0.32609 0.0
N906 N 0.32402 0.3159 0.31885 0.0
C907 C 0.32101 0.31346 0.34195 0.0
C908 C 0.36007 0.33045 0.35501 0.0
C909 C 0.33904 0.32019 0.3602 0.0
Gd910 Gd 0.26766 0.24638 0.2553 0.0
Gd911 Gd 0.29456 0.30804 0.28696 0.0
N912 N 0.32757 0.32575 0.27383 0.0
C913 C 0.36664 0.35165 0.26247 0.0
C914 C 0.32772 0.33298 0.25201 0.0
C915 C 0.34731 0.34561 0.24579 0.0
H916 H 0.31261 0.32959 0.23967 0.0
H917 H 0.34737 0.35102 0.22832 0.0
H918 H 0.24902 0.2159 0.29674 0.0
H919 H 0.30454 0.30729 0.34672 0.0
H920 H 0.21332 0.19401 0.30557 0.0
H921 H 0.38176 0.36164 0.2577 0.0
H922 H 0.40034 0.36177 0.29915 0.0
H923 H 0.25703 0.25827 0.19838 0.0
H924 H 0.37388 0.33608 0.36931 0.0
H925 H 0.33653 0.31801 0.37839 0.0
H926 H 0.16026 0.19727 0.23846 0.0
H927 H 0.39746 0.35238 0.3397 0.0
H928 H 0.18722 0.23497 0.17491 0.0
H929 H 0.22487 0.25408 0.16779 0.0
N930 N 0.23781 0.24569 0.22492 0.0
C931 C 0.21736 0.23397 0.22873 0.0
C932 C 0.24062 0.25212 0.20298 0.0
C933 C 0.2012 0.23796 0.18909 0.0
C934 C 0.22238 0.24888 0.18505 0.0
C935 C 0.19856 0.22989 0.21087 0.0
H936 H 0.16345 0.21364 0.20118 0.0
N937 N 0.2341 0.22738 0.26627 0.0
C938 C 0.21551 0.22448 0.24984 0.0
C939 C 0.19402 0.20063 0.27416 0.0
C940 C 0.19492 0.21106 0.25348 0.0
C941 C 0.23365 0.21592 0.28551 0.0
C942 C 0.21356 0.20287 0.29011 0.0
O943 O 0.32097 0.29057 0.27065 0.0
O944 O 0.30658 0.25284 0.25694 0.0
O945 O 0.27147 0.21269 0.25985 0.0
O946 O 0.26382 0.2212 0.22443 0.0
O947 O 0.27417 0.30174 0.25043 0.0
O948 O 0.28424 0.2711 0.2325 0.0
O949 O 0.2415 0.26593 0.26972 0.0
O950 O 0.25893 0.2975 0.29642 0.0
O951 O 0.28376 0.33697 0.27448 0.0
O952 O 0.29808 0.3384 0.31137 0.0
O953 O 0.28021 0.2474 0.2947 0.0
O954 O 0.28365 0.28399 0.31309 0.0
C955 C 0.32372 0.27046 0.26166 0.0
C956 C 0.28037 0.29137 0.23176 0.0
C957 C 0.2807 0.18967 0.22788 0.0
C958 C 0.30008 0.15943 0.23504 0.0
C959 C 0.29455 0.16982 0.19523 0.0
C960 C 0.28353 0.18653 0.20368 0.0
C961 C 0.30293 0.15634 0.21085 0.0
C962 C 0.28854 0.17574 0.24319 0.0
C963 C 0.26756 0.20556 0.23711 0.0
C964 C 0.17614 0.20764 0.236 0.0
C965 C 0.17796 0.217 0.21477 0.0
H966 H 0.17856 0.19011 0.2775 0.0
C967 C 0.24064 0.28308 0.28587 0.0
C968 C 0.28155 0.26223 0.31375 0.0
C969 C 0.27029 0.35916 0.3034 0.0
C970 C 0.24838 0.38735 0.29732 0.0
C971 C 0.24366 0.36609 0.33059 0.0
C972 C 0.25975 0.35415 0.3235 0.0
C973 C 0.2381 0.38288 0.31766 0.0
C974 C 0.26436 0.37548 0.29033 0.0
C975 C 0.28802 0.34835 0.29574 0.0
H976 H 0.29664 0.16735 0.17658 0.0
H977 H 0.27696 0.19669 0.19129 0.0
H978 H 0.31183 0.14378 0.20409 0.0
H979 H 0.28534 0.17735 0.2616 0.0
H980 H 0.23568 0.36248 0.34619 0.0
H981 H 0.26406 0.3413 0.33377 0.0
H982 H 0.22584 0.39228 0.3234 0.0
H983 H 0.27273 0.37942 0.27495 0.0
C984 C 0.52519 0.58566 0.07966 0.0
C985 C 0.55985 0.6086 0.10155 0.0
C986 C 0.54821 0.59424 0.08119 0.0
C987 C 0.54837 0.61308 0.12101 0.0
C988 C 0.5134 0.59123 0.09867 0.0
C989 C 0.52523 0.60438 0.1196 0.0
N990 N 0.51406 0.57346 0.05895 0.0
C991 C 0.49104 0.56841 0.05528 0.0
C992 C 0.48994 0.58426 0.09572 0.0
C993 C 0.47869 0.57318 0.07377 0.0
Gd994 Gd 0.55349 0.50302 0.02416 0.0
Gd995 Gd 0.53708 0.56551 0.02996 0.0
N996 N 0.55904 0.58938 0.06225 0.0
C997 C 0.58248 0.61865 0.10137 0.0
C998 C 0.58046 0.60051 0.06114 0.0
C999 C 0.59269 0.61495 0.08088 0.0
H1000 H 0.58805 0.59796 0.04508 0.0
H1001 H 0.60992 0.62324 0.08027 0.0
H1002 H 0.50569 0.46498 0.00731 0.0
H1003 H 0.48205 0.56078 0.03806 0.0
H1004 H 0.48741 0.43792 0.97214 0.0
H1005 H 0.59198 0.62983 0.11667 0.0
H1006 H 0.5571 0.62382 0.13696 0.0
H1007 H 0.60889 0.51728 0.01627 0.0
H1008 H 0.48029 0.58819 0.10991 0.0
H1009 H 0.46049 0.56859 0.07097 0.0
H1010 H 0.54324 0.44242 0.91873 0.0
H1011 H 0.51647 0.60861 0.13447 0.0
H1012 H 0.61557 0.48937 0.94619 0.0
H1013 H 0.63214 0.51279 0.98437 0.0
N1014 N 0.57829 0.49905 0.99557 0.0
C1015 C 0.56925 0.48479 0.97533 0.0
C1016 C 0.60088 0.50811 0.99933 0.0
C1017 C 0.60499 0.49185 0.95993 0.0
C1018 C 0.61438 0.50514 0.98141 0.0
C1019 C 0.58232 0.48102 0.95687 0.0
H1020 H 0.58238 0.46311 0.92191 0.0
N1021 N 0.5351 0.47651 0.99179 0.0
C1022 C 0.54714 0.47302 0.9735 0.0
C1023 C 0.51573 0.44493 0.95263 0.0
C1024 C 0.53763 0.45733 0.95325 0.0
C1025 C 0.51423 0.46366 0.9918 0.0
C1026 C 0.50408 0.44792 0.97212 0.0
O1027 O 0.5604 0.55667 0.06023 0.0
O1028 O 0.54635 0.5192 0.05966 0.0
O1029 O 0.54538 0.46967 0.0361 0.0
O1030 O 0.57997 0.48917 0.04177 0.0
O1031 O 0.5645 0.55631 0.00992 0.0
O1032 O 0.58137 0.53418 0.03255 0.0
O1033 O 0.54035 0.51559 0.98976 0.0
O1034 O 0.51748 0.54099 0.9991 0.0
O1035 O 0.54916 0.58855 0.00489 0.0
O1036 O 0.52231 0.59447 0.02457 0.0
O1037 O 0.51819 0.50185 0.03273 0.0
O1038 O 0.507 0.5363 0.02925 0.0
C1039 C 0.55732 0.53864 0.07122 0.0
C1040 C 0.58268 0.55132 0.02033 0.0
C1041 C 0.57464 0.45229 0.05482 0.0
C1042 C 0.57002 0.4206 0.07794 0.0
C1043 C 0.60458 0.43159 0.06076 0.0
C1044 C 0.59623 0.44892 0.05133 0.0
C1045 C 0.59165 0.4176 0.07407 0.0
C1046 C 0.56131 0.43783 0.06794 0.0
C1047 C 0.56632 0.47056 0.04405 0.0
C1048 C 0.55034 0.45424 0.93451 0.0
C1049 C 0.57262 0.46606 0.9363 0.0
H1050 H 0.50785 0.43269 0.93742 0.0
C1051 C 0.52515 0.52758 0.98372 0.0
C1052 C 0.50313 0.51472 0.03242 0.0
C1053 C 0.52427 0.61083 0.98877 0.0
C1054 C 0.523 0.64172 0.96459 0.0
C1055 C 0.49106 0.61031 0.96092 0.0
C1056 C 0.50247 0.60037 0.97803 0.0
C1057 C 0.50114 0.63085 0.95436 0.0
C1058 C 0.53466 0.63152 0.98178 0.0
C1059 C 0.5351 0.60161 0.00902 0.0
H1060 H 0.6212 0.42905 0.05784 0.0
H1061 H 0.6066 0.45958 0.04102 0.0
H1062 H 0.59858 0.40437 0.08146 0.0
H1063 H 0.54463 0.44027 0.07083 0.0
H1064 H 0.47418 0.60219 0.9529 0.0
H1065 H 0.4941 0.58468 0.98321 0.0
H1066 H 0.49179 0.63838 0.9413 0.0
H1067 H 0.55133 0.63999 0.99024 0.0
C1068 C 0.75179 0.2392 0.30944 0.0
C1069 C 0.72149 0.21631 0.28064 0.0
C1070 C 0.74271 0.23104 0.28583 0.0
C1071 C 0.70887 0.21108 0.2992 0.0
C1072 C 0.7397 0.23264 0.32814 0.0
C1073 C 0.71792 0.21923 0.32286 0.0
N1074 N 0.77303 0.25196 0.31419 0.0
C1075 C 0.78418 0.25593 0.33694 0.0
C1076 C 0.75021 0.23887 0.35164 0.0
C1077 C 0.77271 0.2501 0.35602 0.0
Gd1078 Gd 0.79759 0.33002 0.25392 0.0
Gd1079 Gd 0.78881 0.26238 0.28012 0.0
N1080 N 0.7552 0.23618 0.26809 0.0
C1081 C 0.71391 0.20657 0.25704 0.0
C1082 C 0.74844 0.22588 0.24522 0.0
C1083 C 0.72767 0.21098 0.23936 0.0
H1084 H 0.75885 0.22965 0.23144 0.0
H1085 H 0.72216 0.2032 0.22116 0.0
H1086 H 0.82825 0.35961 0.30447 0.0
H1087 H 0.80168 0.26449 0.34032 0.0
H1088 H 0.86377 0.38706 0.31608 0.0
H1089 H 0.69772 0.19514 0.25241 0.0
H1090 H 0.69238 0.20008 0.2955 0.0
H1091 H 0.78919 0.3261 0.19265 0.0
H1092 H 0.74141 0.23423 0.36647 0.0
H1093 H 0.78125 0.2542 0.37408 0.0
H1094 H 0.8959 0.3925 0.24345 0.0
H1095 H 0.70828 0.21434 0.33702 0.0
H1096 H 0.85211 0.35465 0.1709 0.0
H1097 H 0.81262 0.33418 0.16081 0.0
N1098 N 0.81607 0.33926 0.22084 0.0
C1099 C 0.83703 0.35255 0.22673 0.0
C1100 C 0.80669 0.33434 0.19743 0.0
C1101 C 0.84206 0.35075 0.18504 0.0
C1102 C 0.81979 0.33917 0.17927 0.0
C1103 C 0.85066 0.35837 0.20889 0.0
H1104 H 0.88284 0.3766 0.20176 0.0
N1105 N 0.83129 0.35604 0.26758 0.0
C1106 C 0.84456 0.36155 0.25049 0.0
C1107 C 0.8724 0.38597 0.28039 0.0
C1108 C 0.86568 0.37647 0.25661 0.0
C1109 C 0.83804 0.36497 0.29087 0.0
C1110 C 0.8585 0.3802 0.29757 0.0
O1111 O 0.75911 0.27131 0.25585 0.0
O1112 O 0.76207 0.31058 0.25995 0.0
O1113 O 0.79223 0.36355 0.26606 0.0
O1114 O 0.76896 0.3413 0.23799 0.0
O1115 O 0.79739 0.28509 0.25361 0.0
O1116 O 0.79383 0.30289 0.22329 0.0
O1117 O 0.83002 0.32027 0.27228 0.0
O1118 O 0.82429 0.28529 0.28775 0.0
O1119 O 0.79317 0.22906 0.2652 0.0
O1120 O 0.81978 0.2512 0.28895 0.0
O1121 O 0.79122 0.31118 0.28463 0.0
O1122 O 0.78566 0.28763 0.31056 0.0
C1123 C 0.74979 0.28951 0.25612 0.0
C1124 C 0.79479 0.28391 0.23074 0.0
C1125 C 0.76872 0.37978 0.23983 0.0
C1126 C 0.75028 0.4117 0.24137 0.0
C1127 C 0.76278 0.39788 0.20452 0.0
C1128 C 0.7709 0.38125 0.21575 0.0
C1129 C 0.75246 0.41301 0.21722 0.0
C1130 C 0.75856 0.39507 0.25257 0.0
C1131 C 0.77378 0.36073 0.25129 0.0
C1132 C 0.8795 0.3814 0.23896 0.0
C1133 C 0.8721 0.37226 0.21522 0.0
H1134 H 0.88845 0.39751 0.28571 0.0
C1135 C 0.83744 0.30426 0.28349 0.0
C1136 C 0.78754 0.30829 0.30624 0.0
C1137 C 0.81792 0.21287 0.28991 0.0
C1138 C 0.83938 0.18356 0.29515 0.0
C1139 C 0.81802 0.19521 0.32609 0.0
C1140 C 0.81072 0.21056 0.31224 0.0
C1141 C 0.83239 0.18187 0.3177 0.0
C1142 C 0.83207 0.19911 0.28126 0.0
C1143 C 0.81305 0.23133 0.27701 0.0
H1144 H 0.7641 0.39878 0.18585 0.0
H1145 H 0.77828 0.36923 0.20551 0.0
H1146 H 0.74576 0.42543 0.20805 0.0
H1147 H 0.75662 0.39367 0.27109 0.0
H1148 H 0.81263 0.19376 0.34345 0.0
H1149 H 0.79988 0.22094 0.31919 0.0
H1150 H 0.83782 0.16997 0.32866 0.0
H1151 H 0.83799 0.20093 0.26419 0.0
C1152 C 0.0673 0.50955 0.57999 0.0
C1153 C 0.08676 0.54058 0.60956 0.0
C1154 C 0.06929 0.53141 0.59065 0.0
C1155 C 0.10172 0.52737 0.61768 0.0
C1156 C 0.08254 0.49632 0.58786 0.0
C1157 C 0.09963 0.5053 0.60683 0.0
N1158 N 0.05109 0.50148 0.56124 0.0
C1159 C 0.04898 0.48027 0.54968 0.0
C1160 C 0.08045 0.47457 0.57609 0.0
C1161 C 0.06357 0.46651 0.55691 0.0
Gd1162 Gd 0.02788 0.56421 0.48809 0.0
Gd1163 Gd 0.02786 0.5255 0.54871 0.0
N1164 N 0.05526 0.54415 0.58152 0.0
C1165 C 0.08927 0.56301 0.61927 0.0
C1166 C 0.05838 0.56638 0.59069 0.0
C1167 C 0.07507 0.57597 0.60969 0.0
H1168 H 0.04875 0.57744 0.58355 0.0
H1169 H 0.07717 0.59355 0.61668 0.0
H1170 H 0.01831 0.52339 0.44115 0.0
H1171 H 0.03596 0.47386 0.53481 0.0
H1172 H 0.98798 0.50669 0.40836 0.0
H1173 H 0.10246 0.57064 0.63372 0.0
H1174 H 0.11523 0.53421 0.63205 0.0
H1175 H 0.02093 0.61668 0.50441 0.0
H1176 H 0.09188 0.46394 0.58154 0.0
H1177 H 0.06185 0.44975 0.5476 0.0
H1178 H 0.9374 0.55811 0.41031 0.0
H1179 H 0.11152 0.49542 0.61303 0.0
H1180 H 0.95911 0.62501 0.46696 0.0
H1181 H 0.99226 0.63961 0.49748 0.0
N1182 N 1.00354 0.58889 0.47964 0.0
C1183 C 0.98643 0.58138 0.46157 0.0
C1184 C 1.0062 0.60989 0.49178 0.0
C1185 C 0.97157 0.61484 0.47018 0.0
C1186 C 0.99018 0.62308 0.4875 0.0
C1187 C 0.96969 0.59387 0.45667 0.0
H1188 H 0.93862 0.59435 0.43454 0.0
N1189 N 1.00248 0.5498 0.4531 0.0
C1190 C 0.98593 0.56122 0.44773 0.0
C1191 C 0.96891 0.53246 0.41499 0.0
C1192 C 0.96843 0.55266 0.42888 0.0
C1193 C 1.00396 0.5311 0.43848 0.0
C1194 C 0.98701 0.52188 0.41952 0.0
O1195 O 0.06057 0.53365 0.53545 0.0
O1196 O 0.05073 0.56402 0.52195 0.0
O1197 O 0.05243 0.56478 0.46326 0.0
O1198 O 0.04825 0.59589 0.48288 0.0
O1199 O 0.01901 0.56031 0.55569 0.0
O1200 O 0.02539 0.58339 0.52508 0.0
O1201 O 0.99266 0.54753 0.49032 0.0
O1202 O 0.01394 0.53715 0.5173 0.0
O1203 O 0.99933 0.52549 0.56806 0.0
O1204 O 1.00695 0.49392 0.554 0.0
O1205 O 0.03507 0.52766 0.4816 0.0
O1206 O 0.0272 0.50481 0.51231 0.0
C1207 C 0.06545 0.55112 0.52428 0.0
C1208 C 0.02039 0.57991 0.54694 0.0
C1209 C 0.06354 0.59881 0.44653 0.0
C1210 C 0.08079 0.59969 0.41005 0.0
C1211 C 0.0755 0.63438 0.43176 0.0
C1212 C 0.06592 0.6223 0.4488 0.0
C1213 C 0.08322 0.62324 0.41266 0.0
C1214 C 0.07038 0.58759 0.42677 0.0
C1215 C 0.05829 0.58668 0.46671 0.0
C1216 C 0.95116 0.56455 0.42452 0.0
C1217 C 0.95183 0.58516 0.43834 0.0
H1218 H 0.95573 0.52523 0.4004 0.0
C1219 C 0.99363 0.53585 0.50746 0.0
C1220 C 0.0325 0.50793 0.49057 0.0
C1221 C 0.99167 0.49556 0.59041 0.0
C1222 C 0.97762 0.5003 0.6283 0.0
C1223 C 0.99745 0.47026 0.6195 0.0
C1224 C 1.00025 0.47705 0.59719 0.0
C1225 C 0.98633 0.48197 0.63514 0.0
C1226 C 0.97999 0.50685 0.60592 0.0
C1227 C 0.99493 0.50374 0.56757 0.0
H1228 H 0.07775 0.65252 0.43386 0.0
H1229 H 0.06124 0.63144 0.46421 0.0
H1230 H 0.09177 0.63317 0.40047 0.0
H1231 H 0.06857 0.56947 0.42503 0.0
H1232 H 1.00405 0.45602 0.62472 0.0
H1233 H 0.0092 0.46794 0.58542 0.0
H1234 H 0.98437 0.47669 0.65249 0.0
H1235 H 0.97314 0.52105 0.60083 0.0
C1236 C 0.73946 0.80909 0.24023 0.0
C1237 C 0.71583 0.77562 0.21687 0.0
C1238 C 0.73145 0.78591 0.23692 0.0
C1239 C 0.70793 0.78897 0.20061 0.0
C1240 C 0.73211 0.82241 0.2235 0.0
C1241 C 0.71614 0.81227 0.20385 0.0
N1242 N 0.75511 0.81847 0.25924 0.0
C1243 C 0.76406 0.841 0.26267 0.0
C1244 C 0.74131 0.84552 0.2268 0.0
C1245 C 0.75739 0.85483 0.24644 0.0
Gd1246 Gd 0.82197 0.77122 0.29064 0.0
Gd1247 Gd 0.76388 0.79389 0.28585 0.0
N1248 N 0.74042 0.77329 0.25217 0.0
C1249 C 0.70942 0.75213 0.21313 0.0
C1250 C 0.73476 0.75039 0.24815 0.0
C1251 C 0.71911 0.73947 0.22872 0.0
H1252 H 0.74287 0.7405 0.25929 0.0
H1253 H 0.71477 0.72128 0.22561 0.0
H1254 H 0.85165 0.82431 0.30716 0.0
H1255 H 0.77593 0.84848 0.27821 0.0
H1256 H 0.87568 0.84669 0.34226 0.0
H1257 H 0.69757 0.74361 0.19787 0.0
H1258 H 0.69597 0.78135 0.1851 0.0
H1259 H 0.8172 0.71736 0.29955 0.0
H1260 H 0.73618 0.8563 0.21427 0.0
H1261 H 0.76451 0.87269 0.2492 0.0
H1262 H 0.8855 0.79252 0.39544 0.0
H1263 H 0.71025 0.82226 0.19085 0.0
H1264 H 0.85151 0.71523 0.36859 0.0
H1265 H 0.82817 0.69556 0.33134 0.0
N1266 N 0.83277 0.74902 0.31925 0.0
C1267 C 0.84631 0.76008 0.33913 0.0
C1268 C 0.8267 0.72612 0.31611 0.0
C1269 C 0.84642 0.72488 0.35485 0.0
C1270 C 0.83321 0.71372 0.33389 0.0
C1271 C 0.85336 0.74832 0.35758 0.0
H1272 H 0.87283 0.75148 0.39235 0.0
N1273 N 0.8466 0.79398 0.32252 0.0
C1274 C 0.8535 0.78322 0.34081 0.0
C1275 C 0.87542 0.81838 0.36179 0.0
C1276 C 0.86786 0.79518 0.36107 0.0
C1277 C 0.85512 0.81628 0.32252 0.0
C1278 C 0.86927 0.82891 0.34227 0.0
O1279 O 0.77666 0.78382 0.25042 0.0
O1280 O 0.79574 0.75626 0.25917 0.0
O1281 O 0.8514 0.7808 0.27094 0.0
O1282 O 0.83926 0.74633 0.2774 0.0
O1283 O 0.76412 0.76213 0.30272 0.0
O1284 O 0.79047 0.74372 0.28744 0.0
O1285 O 0.80808 0.78011 0.3255 0.0
O1286 O 0.79046 0.80887 0.31703 0.0
O1287 O 0.73482 0.78234 0.30547 0.0
O1288 O 0.74373 0.81687 0.2978 0.0
O1289 O 0.82058 0.80321 0.27347 0.0
O1290 O 0.79602 0.82047 0.29307 0.0
C1291 C 0.7869 0.76745 0.24355 0.0
C1292 C 0.77193 0.74384 0.2975 0.0
C1293 C 0.87054 0.75073 0.25503 0.0
C1294 C 0.9042 0.75424 0.2346 0.0
C1295 C 0.88324 0.71731 0.23938 0.0
C1296 C 0.86817 0.72718 0.25124 0.0
C1297 C 0.90106 0.73065 0.23112 0.0
C1298 C 0.88861 0.76437 0.24637 0.0
C1299 C 0.85378 0.75993 0.26807 0.0
C1300 C 0.87452 0.7836 0.37972 0.0
C1301 C 0.86731 0.76023 0.37796 0.0
H1302 H 0.88648 0.82817 0.37701 0.0
C1303 C 0.79955 0.79762 0.33241 0.0
C1304 C 0.81331 0.8214 0.28096 0.0
C1305 C 0.71058 0.80935 0.31775 0.0
C1306 C 0.67923 0.80518 0.34215 0.0
C1307 C 0.68818 0.83821 0.32196 0.0
C1308 C 0.70562 0.83006 0.3127 0.0
C1309 C 0.67518 0.82599 0.33651 0.0
C1310 C 0.69701 0.79659 0.33248 0.0
C1311 C 0.73 0.80232 0.30713 0.0
H1312 H 0.88111 0.69918 0.23659 0.0
H1313 H 0.85452 0.71615 0.25744 0.0
H1314 H 0.91244 0.72242 0.22178 0.0
H1315 H 0.89076 0.78252 0.24912 0.0
H1316 H 0.68472 0.8542 0.31783 0.0
H1317 H 0.71529 0.8402 0.30142 0.0
H1318 H 0.66169 0.83286 0.34342 0.0
H1319 H 0.70042 0.78059 0.33666 0.0
C1320 C 0.81311 0.25072 0.74094 0.0
C1321 C 0.78332 0.23224 0.7094 0.0
C1322 C 0.79247 0.25015 0.72772 0.0
C1323 C 0.79508 0.21494 0.70479 0.0
C1324 C 0.82502 0.23345 0.7363 0.0
C1325 C 0.81588 0.21556 0.71818 0.0
N1326 N 0.82131 0.26795 0.75875 0.0
C1327 C 0.84159 0.26937 0.77207 0.0
C1328 C 0.84573 0.23463 0.7501 0.0
C1329 C 0.85408 0.25271 0.76801 0.0
Gd1330 Gd 0.76143 0.29748 0.82397 0.0
Gd1331 Gd 0.79979 0.29548 0.76409 0.0
N1332 N 0.78128 0.26697 0.73293 0.0
C1333 C 0.76269 0.23228 0.69611 0.0
C1334 C 0.76159 0.26746 0.71924 0.0
C1335 C 0.7519 0.25008 0.70094 0.0
H1336 H 0.7531 0.28106 0.722 0.0
H1337 H 0.73611 0.2505 0.69049 0.0
H1338 H 0.80872 0.31084 0.86492 0.0
H1339 H 0.84835 0.28351 0.78562 0.0
H1340 H 0.82579 0.34055 0.89759 0.0
H1341 H 0.7551 0.21881 0.68195 0.0
H1342 H 0.78827 0.20104 0.69084 0.0
H1343 H 0.70924 0.30527 0.80944 0.0
H1344 H 0.85543 0.22172 0.74703 0.0
H1345 H 0.87016 0.25388 0.77864 0.0
H1346 H 0.76987 0.38534 0.90583 0.0
H1347 H 0.82477 0.20211 0.71437 0.0
H1348 H 0.70039 0.36346 0.8533 0.0
H1349 H 0.68572 0.33243 0.82047 0.0
N1350 N 0.73703 0.321 0.83518 0.0
C1351 C 0.745 0.33727 0.854 0.0
C1352 C 0.71589 0.31891 0.82349 0.0
C1353 C 0.71074 0.35153 0.84853 0.0
C1354 C 0.70244 0.33412 0.82991 0.0
C1355 C 0.73223 0.35325 0.86089 0.0
H1356 H 0.73189 0.38311 0.88502 0.0
N1357 N 0.77846 0.32306 0.85823 0.0
C1358 C 0.76629 0.3383 0.86599 0.0
C1359 C 0.79724 0.35654 0.8961 0.0
C1360 C 0.77551 0.35566 0.88483 0.0
C1361 C 0.79933 0.32338 0.86989 0.0
C1362 C 0.80908 0.34019 0.88876 0.0
O1363 O 0.7884 0.2624 0.77633 0.0
O1364 O 0.76064 0.27623 0.78979 0.0
O1365 O 0.76179 0.27145 0.84657 0.0
O1366 O 0.72994 0.27752 0.83063 0.0
O1367 O 0.76554 0.30596 0.75661 0.0
O1368 O 0.74212 0.30032 0.78708 0.0
O1369 O 0.77692 0.33288 0.82179 0.0
O1370 O 0.78815 0.31332 0.79402 0.0
O1371 O 0.79994 0.31708 0.73677 0.0
O1372 O 0.8321 0.31158 0.754 0.0
O1373 O 0.79692 0.28761 0.82823 0.0
O1374 O 0.82022 0.30388 0.80147 0.0
C1375 C 0.77136 0.25989 0.78827 0.0
C1376 C 0.74584 0.30516 0.76517 0.0
C1377 C 0.731 0.26372 0.86779 0.0
C1378 C 0.73221 0.24597 0.90354 0.0
C1379 C 0.70464 0.2689 0.8959 0.0
C1380 C 0.71294 0.27315 0.87453 0.0
C1381 C 0.71432 0.25537 0.91051 0.0
C1382 C 0.74042 0.25013 0.88233 0.0
C1383 C 0.73992 0.2666 0.84534 0.0
C1384 C 0.76297 0.37178 0.89153 0.0
C1385 C 0.74136 0.37054 0.87965 0.0
H1386 H 0.80498 0.36969 0.91054 0.0
C1387 C 0.78864 0.33337 0.80454 0.0
C1388 C 0.81714 0.29386 0.82092 0.0
C1389 C 0.83326 0.33514 0.722 0.0
C1390 C 0.83118 0.35455 0.68725 0.0
C1391 C 0.86754 0.3534 0.7083 0.0
C1392 C 0.85686 0.3404 0.72409 0.0
C1393 C 0.85476 0.3603 0.68977 0.0
C1394 C 0.82048 0.34249 0.70365 0.0
C1395 C 0.82175 0.32074 0.73767 0.0
H1396 H 0.69061 0.27593 0.90104 0.0
H1397 H 0.70518 0.28355 0.86333 0.0
H1398 H 0.70763 0.25186 0.92687 0.0
H1399 H 0.75412 0.24249 0.87702 0.0
H1400 H 0.88574 0.35763 0.71007 0.0
H1401 H 0.86702 0.33452 0.73789 0.0
H1402 H 0.86321 0.36964 0.67705 0.0
H1403 H 0.80223 0.33786 0.70126 0.0
C1404 C 0.84283 0.83175 0.81626 0.0
C1405 C 0.86452 0.84823 0.78687 0.0
C1406 C 0.84452 0.83547 0.79283 0.0
C1407 C 0.88278 0.85696 0.80465 0.0
C1408 C 0.86104 0.84099 0.83425 0.0
C1409 C 0.88104 0.85336 0.82827 0.0
N1410 N 0.82318 0.81993 0.82164 0.0
C1411 C 0.82028 0.81817 0.84491 0.0
C1412 C 0.85846 0.83808 0.85787 0.0
C1413 C 0.83789 0.82684 0.86324 0.0
Gd1414 Gd 0.76721 0.74714 0.75484 0.0
Gd1415 Gd 0.79402 0.80769 0.7895 0.0
N1416 N 0.82665 0.82663 0.77586 0.0
C1417 C 0.8656 0.85188 0.76316 0.0
C1418 C 0.82744 0.83098 0.75295 0.0
C1419 C 0.84691 0.84329 0.74615 0.0
H1420 H 0.81314 0.82525 0.7399 0.0
H1421 H 0.84737 0.84635 0.72782 0.0
H1422 H 0.74903 0.70978 0.79053 0.0
H1423 H 0.80399 0.8109 0.84951 0.0
H1424 H 0.71305 0.68814 0.7992 0.0
H1425 H 0.88068 0.86149 0.75788 0.0
H1426 H 0.89826 0.86669 0.80035 0.0
H1427 H 0.75817 0.75705 0.6975 0.0
H1428 H 0.87202 0.84502 0.87217 0.0
H1429 H 0.83541 0.82527 0.88155 0.0
H1430 H 0.65947 0.69775 0.73526 0.0
H1431 H 0.89518 0.86051 0.84186 0.0
H1432 H 0.68817 0.73606 0.67267 0.0
H1433 H 0.72652 0.75385 0.66611 0.0
N1434 N 0.73806 0.74463 0.72314 0.0
C1435 C 0.71736 0.73335 0.72648 0.0
C1436 C 0.7415 0.75113 0.70141 0.0
C1437 C 0.70197 0.7384 0.68696 0.0
C1438 C 0.72356 0.74855 0.68323 0.0
C1439 C 0.69872 0.73017 0.70856 0.0
H1440 H 0.66326 0.71538 0.69872 0.0
N1441 N 0.73392 0.72467 0.76282 0.0
C1442 C 0.71523 0.72312 0.74696 0.0
C1443 C 0.6935 0.69799 0.76986 0.0
C1444 C 0.69444 0.70982 0.75016 0.0
C1445 C 0.73356 0.71127 0.78046 0.0
C1446 C 0.71328 0.69833 0.78479 0.0
O1447 O 0.82194 0.791 0.77613 0.0
O1448 O 0.80562 0.7569 0.75321 0.0
O1449 O 0.78034 0.71751 0.76089 0.0
O1450 O 0.7643 0.7209 0.72522 0.0
O1451 O 0.77306 0.80338 0.75315 0.0
O1452 O 0.78308 0.77343 0.73363 0.0
O1453 O 0.74055 0.76689 0.7669 0.0
O1454 O 0.75868 0.79361 0.79832 0.0
O1455 O 0.78664 0.83963 0.77991 0.0
O1456 O 0.78806 0.83172 0.81683 0.0
O1457 O 0.77329 0.74683 0.79515 0.0
O1458 O 0.79156 0.78185 0.81501 0.0
C1459 C 0.82362 0.77268 0.76232 0.0
C1460 C 0.778 0.79322 0.73355 0.0
C1461 C 0.77854 0.68709 0.72923 0.0
C1462 C 0.79516 0.65514 0.7361 0.0
C1463 C 0.77802 0.65804 0.69647 0.0
C1464 C 0.77254 0.67835 0.70507 0.0
C1465 C 0.78941 0.64644 0.71192 0.0
C1466 C 0.78978 0.67542 0.74456 0.0
C1467 C 0.77443 0.70889 0.73854 0.0
C1468 C 0.67558 0.70781 0.73304 0.0
C1469 C 0.67774 0.71787 0.71224 0.0
H1470 H 0.67786 0.6876 0.77295 0.0
C1471 C 0.73999 0.78189 0.78539 0.0
C1472 C 0.78274 0.76042 0.81476 0.0
C1473 C 0.78296 0.86829 0.81158 0.0
C1474 C 0.76504 0.89963 0.80695 0.0
C1475 C 0.79128 0.90029 0.84238 0.0
C1476 C 0.7945 0.87909 0.83366 0.0
C1477 C 0.77669 0.91066 0.82903 0.0
C1478 C 0.76813 0.87835 0.7985 0.0
C1479 C 0.7857 0.84621 0.80229 0.0
H1480 H 0.77351 0.65135 0.67783 0.0
H1481 H 0.76394 0.68729 0.69283 0.0
H1482 H 0.7935 0.63067 0.70511 0.0
H1483 H 0.79483 0.68233 0.76314 0.0
H1484 H 0.80024 0.90877 0.85934 0.0
H1485 H 0.806 0.8712 0.84402 0.0
H1486 H 0.7749 0.9274 0.83574 0.0
H1487 H 0.75885 0.86945 0.78177 0.0
C1488 C 0.49864 0.48339 0.49465 0.0
C1489 C 0.47751 0.46124 0.52093 0.0
C1490 C 0.49182 0.48116 0.51697 0.0
C1491 C 0.46989 0.44371 0.50213 0.0
C1492 C 0.49101 0.46571 0.47577 0.0
C1493 C 0.4766 0.44594 0.47962 0.0
N1494 N 0.51213 0.503 0.49123 0.0
C1495 C 0.51831 0.50596 0.46923 0.0
C1496 C 0.49769 0.46857 0.45339 0.0
C1497 C 0.51141 0.48876 0.45014 0.0
Gd1498 Gd 0.57715 0.55751 0.55778 0.0
Gd1499 Gd 0.5179 0.53204 0.52335 0.0
N1500 N 0.4994 0.49841 0.53488 0.0
C1501 C 0.47109 0.45959 0.54365 0.0
C1502 C 0.49338 0.49675 0.55705 0.0
C1503 C 0.47911 0.47744 0.56182 0.0
H1504 H 0.50019 0.50988 0.57121 0.0
H1505 H 0.47461 0.47625 0.57957 0.0
H1506 H 0.59941 0.57479 0.50948 0.0
H1507 H 0.52742 0.52193 0.4658 0.0
H1508 H 0.61822 0.60966 0.49656 0.0
H1509 H 0.46013 0.44457 0.54738 0.0
H1510 H 0.45875 0.42836 0.50479 0.0
H1511 H 0.5772 0.56966 0.61644 0.0
H1512 H 0.49205 0.45544 0.43841 0.0
H1513 H 0.51617 0.49133 0.43273 0.0
H1514 H 0.62816 0.66421 0.56573 0.0
H1515 H 0.47045 0.43229 0.46525 0.0
H1516 H 0.60386 0.63951 0.6372 0.0
H1517 H 0.58654 0.60241 0.64751 0.0
N1518 N 0.58472 0.58826 0.58824 0.0
C1519 C 0.59534 0.6082 0.5824 0.0
C1520 C 0.58214 0.58605 0.6114 0.0
C1521 C 0.59847 0.62531 0.62331 0.0
C1522 C 0.58852 0.60449 0.62917 0.0
C1523 C 0.60241 0.6273 0.59981 0.0
H1524 H 0.61956 0.66226 0.60667 0.0
N1525 N 0.59451 0.59022 0.54315 0.0
C1526 C 0.60041 0.60921 0.55926 0.0
C1527 C 0.61819 0.62971 0.53 0.0
C1528 C 0.61237 0.62946 0.55305 0.0
C1529 C 0.60153 0.59013 0.52122 0.0
C1530 C 0.61295 0.60988 0.5141 0.0
O1531 O 0.53493 0.50414 0.53698 0.0
O1532 O 0.56825 0.51983 0.56139 0.0
O1533 O 0.61097 0.55377 0.55195 0.0
O1534 O 0.60088 0.55487 0.5879 0.0
O1535 O 0.51844 0.54999 0.56055 0.0
O1536 O 0.55108 0.54572 0.5819 0.0
O1537 O 0.55579 0.58433 0.54908 0.0
O1538 O 0.53167 0.56779 0.51534 0.0
O1539 O 0.48715 0.5423 0.53133 0.0
O1540 O 0.49142 0.53042 0.49449 0.0
O1541 O 0.57578 0.53973 0.51973 0.0
O1542 O 0.54355 0.54715 0.50129 0.0
C1543 C 0.55264 0.50213 0.55161 0.0
C1544 C 0.53006 0.54824 0.58084 0.0
C1545 C 0.63904 0.55194 0.58471 0.0
C1546 C 0.672 0.53607 0.58063 0.0
C1547 C 0.67027 0.56076 0.6165 0.0
C1548 C 0.6488 0.56305 0.6073 0.0
C1549 C 0.68195 0.54743 0.60319 0.0
C1550 C 0.65039 0.53824 0.57174 0.0
C1551 C 0.61668 0.55375 0.57469 0.0
C1552 C 0.61886 0.6486 0.57019 0.0
C1553 C 0.61395 0.6475 0.59351 0.0
H1554 H 0.6274 0.6449 0.52457 0.0
C1555 C 0.54199 0.58599 0.52994 0.0
C1556 C 0.5636 0.54293 0.50033 0.0
C1557 C 0.4564 0.54088 0.50032 0.0
C1558 C 0.42585 0.55978 0.50597 0.0
C1559 C 0.42385 0.53366 0.47017 0.0
C1560 C 0.44495 0.52974 0.47832 0.0
C1561 C 0.41422 0.54859 0.48397 0.0
C1562 C 0.44696 0.55596 0.51389 0.0
C1563 C 0.47866 0.53784 0.50888 0.0
H1564 H 0.67792 0.56943 0.63386 0.0
H1565 H 0.63992 0.57355 0.61767 0.0
H1566 H 0.69878 0.54626 0.61039 0.0
H1567 H 0.6421 0.52892 0.55481 0.0
H1568 H 0.4149 0.52504 0.45326 0.0
H1569 H 0.45227 0.51807 0.46751 0.0
H1570 H 0.39758 0.55105 0.4777 0.0
H1571 H 0.4562 0.565 0.53057 0.0
C1572 C 0.08251 0.57985 0.00659 0.0
C1573 C 0.10856 0.60555 0.0376 0.0
C1574 C 0.09291 0.58516 0.03024 0.0
C1575 C 0.11329 0.62084 0.02124 0.0
C1576 C 0.08768 0.59513 0.99012 0.0
C1577 C 0.10285 0.61569 0.99764 0.0
N1578 N 0.06813 0.55959 0.99948 0.0
C1579 C 0.0598 0.5531 0.97597 0.0
C1580 C 0.07791 0.58911 0.96636 0.0
C1581 C 0.06412 0.56793 0.95924 0.0
Gd1582 Gd 1.00044 0.52969 0.05713 0.0
Gd1583 Gd 0.06331 0.53701 0.03008 0.0
N1584 N 0.0878 0.57038 0.04606 0.0
C1585 C 0.11934 0.6098 0.06112 0.0
C1586 C 0.09935 0.57363 0.06838 0.0
C1587 C 0.11496 0.59359 0.07646 0.0
H1588 H 0.09703 0.56053 0.07957 0.0
H1589 H 0.1239 0.59628 0.09434 0.0
H1590 H 0.96642 0.50498 0.00802 0.0
H1591 H 0.05024 0.53636 0.96966 0.0
H1592 H 0.93943 0.46921 0.99417 0.0
H1593 H 0.13156 0.62523 0.06738 0.0
H1594 H 0.1252 0.63664 0.02661 0.0
H1595 H 0.01586 0.52957 0.11751 0.0
H1596 H 0.08145 0.60043 0.95323 0.0
H1597 H 0.05716 0.56284 0.94073 0.0
H1598 H 0.94033 0.42926 0.06201 0.0
H1599 H 0.10693 0.62759 0.9852 0.0
H1600 H 0.98598 0.46537 0.13416 0.0
H1601 H 0.01013 0.503 0.14625 0.0
N1602 N 0.99792 0.50632 0.08757 0.0
C1603 C 0.98359 0.48593 0.08076 0.0
C1604 C 1.00663 0.51276 0.11105 0.0
C1605 C 0.98918 0.47666 0.12094 0.0
C1606 C 1.0029 0.49786 0.12782 0.0
C1607 C 0.97892 0.47064 0.09738 0.0
H1608 H 0.95978 0.43833 0.10291 0.0
N1609 N 0.9766 0.4956 0.04151 0.0
C1610 C 0.97238 0.48065 0.05741 0.0
C1611 C 0.94507 0.45593 0.02734 0.0
C1612 C 0.95662 0.46022 0.05051 0.0
C1613 C 0.96442 0.49212 0.01946 0.0
C1614 C 0.94884 0.47205 0.01183 0.0
O1615 O 0.05291 0.57012 0.04541 0.0
O1616 O 0.02002 0.56673 0.06419 0.0
O1617 O 0.97233 0.54478 0.04363 0.0
O1618 O 0.97415 0.53326 0.07824 0.0
O1619 O 0.04741 0.52423 0.06025 0.0
O1620 O 0.02971 0.54273 0.08482 0.0
O1621 O 0.01002 0.49695 0.03929 0.0
O1622 O 0.04373 0.50042 0.02192 0.0
O1623 O 0.09005 0.52229 0.04694 0.0
O1624 O 0.08993 0.52986 0.01059 0.0
O1625 O 0.01243 0.5425 0.02445 0.0
O1626 O 0.03397 0.52488 0.00248 0.0
C1627 C 0.03811 0.57905 0.05709 0.0
C1628 C 0.04818 0.53677 0.08017 0.0
C1629 C 0.95315 0.56128 0.07373 0.0
C1630 C 0.92286 0.58209 0.07147 0.0
C1631 C 0.94524 0.58247 0.10942 0.0
C1632 C 0.95802 0.56884 0.09836 0.0
C1633 C 0.92759 0.58888 0.09613 0.0
C1634 C 0.93577 0.56839 0.06024 0.0
C1635 C 0.96313 0.54299 0.06316 0.0
C1636 C 0.95244 0.44498 0.067 0.0
C1637 C 0.96355 0.45015 0.0903 0.0
H1638 H 0.93277 0.44048 0.02146 0.0
C1639 C 0.02501 0.48828 0.02773 0.0
C1640 C 0.01439 0.52953 0.00541 0.0
C1641 C 0.10638 0.49966 0.01967 0.0
C1642 C 0.13517 0.47699 0.01987 0.0
C1643 C 0.10177 0.46638 0.9906 0.0
C1644 C 0.09366 0.48476 1.00029 0.0
C1645 C 0.12248 0.46257 1.00024 0.0
C1646 C 0.1271 0.49556 0.02961 0.0
C1647 C 0.09958 0.52086 0.02752 0.0
H1648 H 0.94876 0.58774 0.12843 0.0
H1649 H 0.97116 0.56354 0.10933 0.0
H1650 H 0.9177 0.59933 0.10506 0.0
H1651 H 0.9316 0.56246 0.04135 0.0
H1652 H 0.09211 0.45525 0.97538 0.0
H1653 H 0.07777 0.48771 0.99218 0.0
H1654 H 0.12868 0.44838 0.99235 0.0
H1655 H 0.13716 0.50706 0.04438 0.0
C1656 C 0.03445 0.2047 0.97522 0.0
C1657 C 0.01652 0.21452 0.982 0.0
C1658 C 0.03983 0.18522 0.98441 0.0
C1659 C 0.0265 0.17391 1.00025 0.0
C1660 C 0.00827 0.1837 0.00712 0.0
C1661 C 1.00387 0.20386 0.99846 0.0
C1662 C 0.05998 0.17666 0.97698 0.0
C1663 C 0.99308 0.17267 0.02352 0.0
C1664 C 0.02592 0.10981 1.00136 0.0
C1665 C 0.03946 0.10881 0.02283 0.0
C1666 C 0.02151 0.13042 0.99421 0.0
C1667 C 0.03091 0.15145 0.00844 0.0
C1668 C 0.04471 0.15064 0.03015 0.0
C1669 C 0.04867 0.12966 0.03703 0.0
C1670 C 1.00644 0.1296 0.97121 0.0
C1671 C 0.0558 0.17208 0.04607 0.0
H1672 H 0.04464 0.21252 0.96276 0.0
H1673 H 0.98994 0.21086 0.004 0.0
H1674 H 0.0709 0.17407 0.99289 0.0
H1675 H 0.05431 0.16014 0.96571 0.0
H1676 H 0.07017 0.18841 0.96683 0.0
H1677 H 0.978 0.18023 0.02477 0.0
H1678 H 0.98744 0.1544 0.0173 0.0
H1679 H 1.00253 0.17449 0.04161 0.0
H1680 H 0.01848 0.09423 0.98993 0.0
H1681 H 0.0591 0.12969 0.05365 0.0
H1682 H 0.01591 0.13915 0.95872 0.0
H1683 H 0.99211 0.13773 0.97467 0.0
H1684 H 0.99967 0.11212 0.96241 0.0
H1685 H 0.06901 0.18175 0.03712 0.0
H1686 H 0.06372 0.16882 0.0635 0.0
H1687 H 0.04338 0.1828 0.0493 0.0
C1688 C 0.13162 0.81901 0.1871 0.0
C1689 C 0.12877 0.80699 0.16413 0.0
C1690 C 0.15057 0.81929 0.20391 0.0
C1691 C 0.16691 0.80656 0.19814 0.0
C1692 C 0.16388 0.79409 0.17505 0.0
C1693 C 0.14516 0.79476 0.1583 0.0
C1694 C 0.15324 0.83348 0.22781 0.0
C1695 C 0.18002 0.77934 0.16828 0.0
C1696 C 0.22675 0.82054 0.23294 0.0
C1697 C 0.2252 0.80566 0.25014 0.0
C1698 C 0.20796 0.82129 0.21635 0.0
C1699 C 0.18704 0.80628 0.21621 0.0
C1700 C 0.18546 0.79104 0.2334 0.0
C1701 C 0.20432 0.79117 0.25028 0.0
C1702 C 0.21051 0.83823 0.19892 0.0
C1703 C 0.1639 0.77429 0.23381 0.0
H1704 H 0.11908 0.82849 0.19187 0.0
H1705 H 0.14294 0.78503 0.14083 0.0
H1706 H 0.15431 0.82288 0.24234 0.0
H1707 H 0.1692 0.84621 0.23021 0.0
H1708 H 0.13909 0.8423 0.22972 0.0
H1709 H 0.1763 0.77186 0.14928 0.0
H1710 H 0.19761 0.78906 0.17166 0.0
H1711 H 0.17895 0.76551 0.17952 0.0
H1712 H 0.24272 0.83178 0.23253 0.0
H1713 H 0.20288 0.77931 0.26316 0.0
H1714 H 0.19768 0.84878 0.20043 0.0
H1715 H 0.20759 0.82942 0.18045 0.0
H1716 H 0.22748 0.84938 0.20189 0.0
H1717 H 0.15072 0.78325 0.23928 0.0
H1718 H 0.16608 0.7619 0.24634 0.0
H1719 H 0.15766 0.76505 0.21574 0.0
C1720 C 0.5317 0.86095 0.48108 0.0
C1721 C 0.51282 0.84429 0.48325 0.0
C1722 C 0.53323 0.88413 0.4893 0.0
C1723 C 0.51521 0.89152 0.49957 0.0
C1724 C 0.49597 0.87479 0.50155 0.0
C1725 C 0.49514 0.85162 0.49375 0.0
C1726 C 0.55438 0.90078 0.48711 0.0
C1727 C 0.47578 0.88146 0.51116 0.0
C1728 C 0.52604 0.94985 0.53887 0.0
C1729 C 0.52078 0.96441 0.52255 0.0
C1730 C 0.5243 0.9264 0.53178 0.0
C1731 C 0.51642 0.91663 0.50776 0.0
C1732 C 0.51043 0.93124 0.49141 0.0
C1733 C 0.51326 0.95473 0.4988 0.0
C1734 C 0.5316 0.91215 0.54995 0.0
C1735 C 0.50137 0.92222 0.4658 0.0
H1736 H 0.54552 0.85583 0.473 0.0
H1737 H 0.48024 0.83924 0.49525 0.0
H1738 H 0.55024 0.91398 0.4765 0.0
H1739 H 0.56228 0.90931 0.50504 0.0
H1740 H 0.56684 0.89266 0.47856 0.0
H1741 H 0.46255 0.86664 0.51274 0.0
H1742 H 0.48085 0.89166 0.52891 0.0
H1743 H 0.46845 0.8921 0.49914 0.0
H1744 H 0.53226 0.95697 0.55718 0.0
H1745 H 0.50975 0.96553 0.48572 0.0
H1746 H 0.54566 0.90466 0.54416 0.0
H1747 H 0.51756 0.89805 0.55132 0.0
H1748 H 0.53722 0.92197 0.56787 0.0
H1749 H 0.51537 0.91874 0.45606 0.0
H1750 H 0.49324 0.93438 0.45671 0.0
H1751 H 0.48891 0.90619 0.4646 0.0
C1752 C 0.50704 0.31312 0.66899 0.0
C1753 C 0.50883 0.29623 0.65102 0.0
C1754 C 0.4887 0.31065 0.68213 0.0
C1755 C 0.47234 0.29033 0.67799 0.0
C1756 C 0.47383 0.27344 0.6594 0.0
C1757 C 0.49183 0.27681 0.64582 0.0
C1758 C 0.4874 0.32945 0.70108 0.0
C1759 C 0.45708 0.25131 0.65466 0.0
C1760 C 0.44497 0.26848 0.72985 0.0
C1761 C 0.42242 0.26978 0.72374 0.0
C1762 C 0.46147 0.27589 0.71559 0.0
C1763 C 0.45546 0.28544 0.69487 0.0
C1764 C 0.43309 0.28859 0.68967 0.0
C1765 C 0.41673 0.2806 0.70414 0.0
C1766 C 0.48498 0.27195 0.72181 0.0
C1767 C 0.42632 0.29964 0.66836 0.0
H1768 H 0.52009 0.32826 0.67286 0.0
H1769 H 0.49325 0.26372 0.63196 0.0
H1770 H 0.46978 0.33165 0.70126 0.0
H1771 H 0.49336 0.3253 0.71882 0.0
H1772 H 0.49804 0.34565 0.69839 0.0
H1773 H 0.46094 0.23971 0.64 0.0
H1774 H 0.45695 0.24292 0.67099 0.0
H1775 H 0.43988 0.25427 0.64991 0.0
H1776 H 0.44944 0.26034 0.74516 0.0
H1777 H 0.39932 0.28166 0.69936 0.0
H1778 H 0.49752 0.28791 0.72321 0.0
H1779 H 0.48892 0.2601 0.70745 0.0
H1780 H 0.48702 0.26485 0.73888 0.0
H1781 H 0.43727 0.31655 0.6694 0.0
H1782 H 0.40848 0.30144 0.6671 0.0
H1783 H 0.42875 0.28965 0.65176 0.0
C1784 C 0.0504 0.81679 0.64509 0.0
C1785 C 0.03263 0.8126 0.65868 0.0
C1786 C 0.05312 0.83527 0.63216 0.0
C1787 C 0.03717 0.8494 0.63206 0.0
C1788 C 0.01888 0.84488 0.64538 0.0
C1789 C 0.01707 0.82677 0.6589 0.0
C1790 C 0.07332 0.83989 0.61894 0.0
C1791 C 1.00098 0.85884 0.64493 0.0
C1792 C 0.0588 0.90752 0.61533 0.0
C1793 C 0.05242 0.90411 0.59065 0.0
C1794 C 0.05276 0.89027 0.62932 0.0
C1795 C 0.04005 0.86906 0.6183 0.0
C1796 C 0.03218 0.86615 0.59359 0.0
C1797 C 0.03861 0.88368 0.58002 0.0
C1798 C 0.06152 0.89418 0.65554 0.0
C1799 C 0.01841 0.84397 0.5811 0.0
H1800 H 0.06251 0.80591 0.64506 0.0
H1801 H 1.00316 0.82334 0.66919 0.0
H1802 H 0.06776 0.83953 0.59969 0.0
H1803 H 0.08346 0.85696 0.62557 0.0
H1804 H 0.0843 0.82748 0.62102 0.0
H1805 H 0.9888 0.85427 0.65763 0.0
H1806 H 0.00872 0.87699 0.64925 0.0
H1807 H 0.9916 0.85633 0.62672 0.0
H1808 H 0.0699 0.92317 0.62343 0.0
H1809 H 0.03413 0.88086 0.56084 0.0
H1810 H 0.07433 0.88385 0.65909 0.0
H1811 H 0.04773 0.88886 0.66618 0.0
H1812 H 0.06934 0.91211 0.66179 0.0
H1813 H 0.02955 0.83172 0.57883 0.0
H1814 H 0.01016 0.84566 0.56321 0.0
H1815 H 1.00529 0.83693 0.59183 0.0
C1816 C 0.46598 0.81656 0.84685 0.0
C1817 C 0.48259 0.81672 0.83143 0.0
C1818 C 0.443 0.81566 0.83848 0.0
C1819 C 0.43562 0.81424 0.81373 0.0
C1820 C 0.45229 0.81438 0.79797 0.0
C1821 C 0.4754 0.81591 0.80694 0.0
C1822 C 0.42649 0.81612 0.85633 0.0
C1823 C 0.44569 0.81278 0.77148 0.0
C1824 C 0.37257 0.78739 0.79351 0.0
C1825 C 0.36236 0.80592 0.79024 0.0
C1826 C 0.39607 0.78985 0.80034 0.0
C1827 C 0.41047 0.8115 0.80455 0.0
C1828 C 0.40037 0.83033 0.80102 0.0
C1829 C 0.3767 0.82734 0.79395 0.0
C1830 C 0.40549 0.76903 0.80317 0.0
C1831 C 0.41442 0.85387 0.80553 0.0
H1832 H 0.47101 0.81736 0.86581 0.0
H1833 H 0.48779 0.81606 0.79466 0.0
H1834 H 0.41659 0.82927 0.85335 0.0
H1835 H 0.41443 0.79973 0.85396 0.0
H1836 H 0.43497 0.81945 0.87499 0.0
H1837 H 0.45995 0.81104 0.76134 0.0
H1838 H 0.43162 0.79818 0.76528 0.0
H1839 H 0.43962 0.82811 0.76732 0.0
H1840 H 0.3621 0.77064 0.79059 0.0
H1841 H 0.36937 0.84191 0.79196 0.0
H1842 H 0.41249 0.76937 0.82203 0.0
H1843 H 0.41948 0.76861 0.79231 0.0
H1844 H 0.39254 0.75332 0.79776 0.0
H1845 H 0.41892 0.85892 0.82502 0.0
H1846 H 0.40528 0.86621 0.79815 0.0
H1847 H 0.43036 0.85467 0.79768 0.0
C1848 C 0.50272 0.19029 0.13304 0.0
C1849 C 0.52072 0.19754 0.1515 0.0
C1850 C 0.50205 0.17156 0.11588 0.0
C1851 C 0.52022 0.16009 0.11649 0.0
C1852 C 0.53861 0.16758 0.13495 0.0
C1853 C 0.53847 0.1859 0.15237 0.0
C1854 C 0.48179 0.16396 0.0971 0.0
C1855 C 0.55879 0.15661 0.13593 0.0
C1856 C 0.51069 0.09959 0.0847 0.0
C1857 C 0.51966 0.10249 0.0632 0.0
C1858 C 0.51086 0.11801 0.10205 0.0
C1859 C 0.51991 0.14024 0.09797 0.0
C1860 C 0.52871 0.14338 0.07622 0.0
C1861 C 0.5287 0.12458 0.05935 0.0
C1862 C 0.50154 0.11363 0.12496 0.0
C1863 C 0.53832 0.16665 0.07077 0.0
H1864 H 0.48896 0.1992 0.13214 0.0
H1865 H 0.55268 0.19165 0.16623 0.0
H1866 H 0.48708 0.16399 0.07908 0.0
H1867 H 0.47356 0.14642 0.09862 0.0
H1868 H 0.46921 0.17481 0.09871 0.0
H1869 H 0.57119 0.16352 0.15199 0.0
H1870 H 0.55343 0.13819 0.13577 0.0
H1871 H 0.56728 0.15927 0.11989 0.0
H1872 H 0.50382 0.08275 0.08826 0.0
H1873 H 0.5364 0.12729 0.04343 0.0
H1874 H 0.4876 0.12265 0.12715 0.0
H1875 H 0.5148 0.12021 0.14034 0.0
H1876 H 0.49517 0.09544 0.12558 0.0
H1877 H 0.52481 0.17646 0.06933 0.0
H1878 H 0.54585 0.16627 0.05387 0.0
H1879 H 0.55137 0.17571 0.08547 0.0
C1880 C 0.13434 0.31791 0.34839 0.0
C1881 C 0.11288 0.31084 0.33473 0.0
C1882 C 0.15441 0.31289 0.34017 0.0
C1883 C 0.15378 0.30039 0.31738 0.0
C1884 C 0.13215 0.29324 0.30345 0.0
C1885 C 0.11229 0.29838 0.31218 0.0
C1886 C 0.17648 0.32092 0.35618 0.0
C1887 C 0.12987 0.27987 0.27916 0.0
C1888 C 0.21049 0.30686 0.28982 0.0
C1889 C 0.21781 0.28666 0.2928 0.0
C1890 C 0.18967 0.31104 0.29673 0.0
C1891 C 0.17562 0.29521 0.3082 0.0
C1892 C 0.18305 0.27476 0.31135 0.0
C1893 C 0.20356 0.27063 0.30335 0.0
C1894 C 0.18268 0.33259 0.29157 0.0
C1895 C 0.16981 0.25744 0.32415 0.0
H1896 H 0.1355 0.32739 0.36584 0.0
H1897 H 0.09614 0.29245 0.30125 0.0
H1898 H 0.18489 0.30658 0.35859 0.0
H1899 H 0.18789 0.33326 0.3478 0.0
H1900 H 0.17428 0.32898 0.37396 0.0
H1901 H 0.11276 0.27783 0.26923 0.0
H1902 H 0.14243 0.28814 0.26848 0.0
H1903 H 0.13328 0.26291 0.28108 0.0
H1904 H 0.22105 0.31948 0.28171 0.0
H1905 H 0.20884 0.25505 0.30616 0.0
H1906 H 0.1827 0.34338 0.30851 0.0
H1907 H 0.16527 0.32885 0.28204 0.0
H1908 H 0.19407 0.3422 0.28063 0.0
H1909 H 0.17158 0.26405 0.34333 0.0
H1910 H 0.17578 0.24133 0.32249 0.0
H1911 H 0.15164 0.25408 0.31724 0.0
C1912 C 0.98773 0.03842 0.20985 0.0
C1913 C 0.96725 0.02276 0.20742 0.0
C1914 C 0.99884 0.04329 0.18998 0.0
C1915 C 0.98956 0.03193 0.167 0.0
C1916 C 0.9689 0.01604 0.16445 0.0
C1917 C 0.9579 0.01184 0.18459 0.0
C1918 C 0.02035 0.06091 0.19358 0.0
C1919 C 0.95862 1.00312 0.14047 0.0
C1920 C 1.00709 0.0551 0.11031 0.0
C1921 C 0.02337 0.04277 0.10442 0.0
C1922 C 0.99645 0.05225 0.13091 0.0
C1923 C 1.00168 0.0362 0.14573 0.0
C1924 C 0.01825 0.02384 0.13988 0.0
C1925 C 0.02907 0.02749 0.11958 0.0
C1926 C 0.97946 0.06633 0.13672 0.0
C1927 C 0.02427 0.00639 0.15488 0.0
H1928 H 0.99493 0.04725 0.22732 0.0
H1929 H 0.94208 0.99978 0.18249 0.0
H1930 H 0.03407 0.05383 0.18641 0.0
H1931 H 0.01786 0.07507 0.18362 0.0
H1932 H 0.02584 0.06763 0.21265 0.0
H1933 H 0.94195 0.99223 0.14114 0.0
H1934 H 0.95656 0.01485 0.12721 0.0
H1935 H 0.97007 0.99239 0.13401 0.0
H1936 H 1.0027 0.06706 0.09881 0.0
H1937 H 0.04155 0.01781 0.11513 0.0
H1938 H 0.98411 0.07524 0.15513 0.0
H1939 H 0.96262 0.05532 0.13592 0.0
H1940 H 0.9782 0.07896 0.12426 0.0
H1941 H 0.03152 0.01453 0.17314 0.0
H1942 H 0.03662 0.99738 0.14733 0.0
H1943 H 0.0089 0.99389 0.15646 0.0
C1944 C 0.25286 0.6605 0.48477 0.0
C1945 C 0.26999 0.66746 0.50387 0.0
C1946 C 0.2488 0.67532 0.46859 0.0
C1947 C 0.26275 0.69706 0.47151 0.0
C1948 C 0.28112 0.70342 0.4898 0.0
C1949 C 0.28429 0.68857 0.50613 0.0
C1950 C 0.22894 0.66816 0.44921 0.0
C1951 C 0.29667 0.72623 0.49286 0.0
C1952 C 0.2551 0.72532 0.41714 0.0
C1953 C 0.23978 0.73879 0.42344 0.0
C1954 C 0.26438 0.71316 0.4335 0.0
C1955 C 0.25716 0.71347 0.45615 0.0
C1956 C 0.24257 0.72767 0.46312 0.0
C1957 C 0.23436 0.74054 0.44673 0.0
C1958 C 0.2808 0.69894 0.42601 0.0
C1959 C 0.23421 0.72799 0.48714 0.0
H1960 H 0.24174 0.64417 0.48347 0.0
H1961 H 0.29754 0.69369 0.52112 0.0
H1962 H 0.21768 0.68042 0.45017 0.0
H1963 H 0.23492 0.6679 0.4315 0.0
H1964 H 0.21896 0.6512 0.45046 0.0
H1965 H 0.31188 0.7272 0.50586 0.0
H1966 H 0.30208 0.73021 0.47555 0.0
H1967 H 0.28764 0.73936 0.4993 0.0
H1968 H 0.25917 0.72333 0.3991 0.0
H1969 H 0.22303 0.75131 0.45191 0.0
H1970 H 0.27198 0.68109 0.42167 0.0
H1971 H 0.29465 0.69989 0.44065 0.0
H1972 H 0.28824 0.70425 0.41005 0.0
H1973 H 0.22165 0.71227 0.48726 0.0
H1974 H 0.22608 0.7425 0.49118 0.0
H1975 H 0.24812 0.72864 0.50158 0.0
C1976 C 0.65845 0.04231 0.66498 0.0
C1977 C 0.65107 0.03851 0.68686 0.0
C1978 C 0.64288 0.03947 0.64456 0.0
C1979 C 0.6198 0.03291 0.64659 0.0
C1980 C 0.61242 0.02769 0.66834 0.0
C1981 C 0.62829 0.0304 0.6883 0.0
C1982 C 0.6509 0.04493 0.62129 0.0
C1983 C 0.58772 0.02054 0.67087 0.0
C1984 C 0.57576 0.05385 0.61017 0.0
C1985 C 0.56612 0.03446 0.5946 0.0
C1986 C 0.5947 0.05408 0.62613 0.0
C1987 C 0.60301 0.03403 0.62692 0.0
C1988 C 0.59307 0.01434 0.61119 0.0
C1989 C 0.5744 0.01478 0.59514 0.0
C1990 C 0.60498 0.07529 0.64295 0.0
C1991 C 0.60148 0.9927 0.61206 0.0
H1992 H 0.67618 0.04839 0.66401 0.0
H1993 H 0.6227 0.02713 0.70525 0.0
H1994 H 0.6427 0.03151 0.60657 0.0
H1995 H 0.64609 0.06078 0.61689 0.0
H1996 H 0.66945 0.04701 0.62207 0.0
H1997 H 0.585 0.01746 0.6893 0.0
H1998 H 0.57849 0.0337 0.66592 0.0
H1999 H 0.58018 1.00492 0.6586 0.0
H2000 H 0.56849 0.06871 0.60978 0.0
H2001 H 0.56588 0.99965 0.58343 0.0
H2002 H 0.62348 0.07943 0.64296 0.0
H2003 H 0.6018 0.07266 0.66135 0.0
H2004 H 0.5979 0.08992 0.63814 0.0
H2005 H 0.61936 0.99543 0.60892 0.0
H2006 H 0.59154 0.97889 0.59858 0.0
H2007 H 0.60071 0.98726 0.62996 0.0
C2008 C 0.29341 0.33751 0.97033 0.0
C2009 C 0.30732 0.35878 0.97751 0.0
C2010 C 0.29115 0.32698 0.94666 0.0
C2011 C 0.30377 0.33756 0.92999 0.0
C2012 C 0.3181 0.35891 0.93734 0.0
C2013 C 0.3194 0.36939 0.96083 0.0
C2014 C 0.27508 0.30462 0.93947 0.0
C2015 C 0.33201 0.37078 0.92033 0.0
C2016 C 0.31403 0.30141 0.87469 0.0
C2017 C 0.29949 0.30719 0.85666 0.0
C2018 C 0.31571 0.31124 0.89855 0.0
C2019 C 0.30184 0.32654 0.9048 0.0
C2020 C 0.28647 0.33172 0.88681 0.0
C2021 C 0.28566 0.32221 0.86306 0.0
C2022 C 0.33268 0.3056 0.91701 0.0
C2023 C 0.27065 0.34717 0.89264 0.0
H2024 H 0.28379 0.32938 0.98305 0.0
H2025 H 0.33012 0.38587 0.96625 0.0
H2026 H 0.264 0.30491 0.92278 0.0
H2027 H 0.28474 0.29124 0.93596 0.0
H2028 H 0.26436 0.30008 0.95349 0.0
H2029 H 0.34355 0.38649 0.92924 0.0
H2030 H 0.34216 0.3595 0.91214 0.0
H2031 H 0.32076 0.37511 0.90569 0.0
H2032 H 0.32435 0.28947 0.8702 0.0
H2033 H 0.27395 0.32648 0.84944 0.0
H2034 H 0.32405 0.29819 0.93132 0.0
H2035 H 0.34466 0.32121 0.9254 0.0
H2036 H 0.34238 0.2936 0.90931 0.0
H2037 H 0.25896 0.3395 0.90452 0.0
H2038 H 0.26053 0.35042 0.87645 0.0
H2039 H 0.28019 0.36349 0.90234 0.0
C2040 C 0.98457 0.03939 0.34761 0.0
C2041 C 0.96639 0.02192 0.338 0.0
C2042 C 0.99481 0.04067 0.37125 0.0
C2043 C 0.98737 0.02348 0.38518 0.0
C2044 C 0.96933 1.00551 0.37521 0.0
C2045 C 0.95877 1.00522 0.35195 0.0
C2046 C 0.01335 0.06058 0.38143 0.0
C2047 C 0.96102 0.98667 0.3892 0.0
C2048 C 0.0265 0.01713 0.44013 0.0
C2049 C 0.01683 0.02712 0.45868 0.0
C2050 C 0.017 0.01558 0.41616 0.0
C2051 C 0.9977 0.02475 0.41049 0.0
C2052 C 0.98799 0.03496 0.42913 0.0
C2053 C 0.99746 0.03574 0.45285 0.0
C2054 C 0.02754 1.00405 0.39688 0.0
C2055 C 0.96777 0.04546 0.42408 0.0
H2056 H 0.99033 0.05242 0.33688 0.0
H2057 H 0.94474 0.99165 0.34447 0.0
H2058 H 0.00966 0.06843 0.39866 0.0
H2059 H 0.02945 0.05488 0.38498 0.0
H2060 H 0.01564 0.07358 0.36919 0.0
H2061 H 0.94836 0.97289 0.37815 0.0
H2062 H 0.97532 0.97957 0.3966 0.0
H2063 H 0.95325 0.99328 0.40446 0.0
H2064 H 0.04152 0.01056 0.44428 0.0
H2065 H 0.98958 0.04326 0.46689 0.0
H2066 H 0.03352 0.01613 0.38461 0.0
H2067 H 0.01479 0.99016 0.38618 0.0
H2068 H 0.04197 0.99707 0.40421 0.0
H2069 H 0.97244 0.06007 0.4143 0.0
H2070 H 0.96131 0.05135 0.44062 0.0
H2071 H 0.95395 0.0333 0.41258 0.0
C2072 C 0.3028 0.68733 0.62858 0.0
C2073 C 0.28394 0.66979 0.62537 0.0
C2074 C 0.30473 0.70541 0.64605 0.0
C2075 C 0.28766 0.70517 0.66086 0.0
C2076 C 0.26928 0.68675 0.65875 0.0
C2077 C 0.2676 0.669 0.64072 0.0
C2078 C 0.32433 0.72513 0.64784 0.0
C2079 C 0.25094 0.68643 0.67462 0.0
C2080 C 0.30402 0.74368 0.7176 0.0
C2081 C 0.29065 0.75948 0.71386 0.0
C2082 C 0.30232 0.72518 0.70077 0.0
C2083 C 0.28914 0.72425 0.67872 0.0
C2084 C 0.27766 0.74154 0.67366 0.0
C2085 C 0.27786 0.75873 0.69181 0.0
C2086 C 0.31388 0.70635 0.70693 0.0
C2087 C 0.26533 0.74188 0.64928 0.0
H2088 H 0.31532 0.68754 0.6164 0.0
H2089 H 0.25288 0.65542 0.63762 0.0
H2090 H 0.31828 0.74116 0.64823 0.0
H2091 H 0.33569 0.7261 0.66463 0.0
H2092 H 0.33433 0.72375 0.63277 0.0
H2093 H 0.23914 0.66985 0.67219 0.0
H2094 H 0.25838 0.6906 0.69361 0.0
H2095 H 0.24113 0.6994 0.67054 0.0
H2096 H 0.31534 0.74536 0.73392 0.0
H2097 H 0.26806 0.77145 0.68877 0.0
H2098 H 0.32675 0.70442 0.695 0.0
H2099 H 0.30139 0.69022 0.70428 0.0
H2100 H 0.32218 0.70927 0.72566 0.0
H2101 H 0.27725 0.74198 0.63587 0.0
H2102 H 0.25751 0.75683 0.64845 0.0
H2103 H 0.25199 0.7265 0.64414 0.0
C2104 C 0.66924 0.05502 0.83017 0.0
C2105 C 0.665 0.06587 0.81027 0.0
C2106 C 0.65704 0.05728 0.84942 0.0
C2107 C 0.64058 0.07071 0.84833 0.0
C2108 C 0.63715 0.08253 0.82869 0.0
C2109 C 0.64944 0.07991 0.80986 0.0
C2110 C 0.66094 0.04441 0.87013 0.0
C2111 C 0.6199 0.09732 0.82707 0.0
C2112 C 0.58715 0.06468 0.87487 0.0
C2113 C 0.59199 0.08443 0.89086 0.0
C2114 C 0.60401 0.05817 0.86273 0.0
C2115 C 0.62582 0.07203 0.86681 0.0
C2116 C 0.63116 0.09078 0.88473 0.0
C2117 C 0.61398 0.09684 0.89662 0.0
C2118 C 0.598 0.03776 0.84404 0.0
C2119 C 0.65444 0.10548 0.88981 0.0
H2120 H 0.68135 0.04414 0.83027 0.0
H2121 H 0.64653 0.08856 0.79452 0.0
H2122 H 0.65958 0.05424 0.88726 0.0
H2123 H 0.6479 0.0287 0.86779 0.0
H2124 H 0.6777 0.03974 0.87119 0.0
H2125 H 0.62001 0.10585 0.81081 0.0
H2126 H 0.60278 0.08705 0.82686 0.0
H2127 H 0.62315 0.11039 0.84284 0.0
H2128 H 0.57013 0.05473 0.87146 0.0
H2129 H 0.61755 0.11158 0.90993 0.0
H2130 H 0.61153 0.02794 0.84469 0.0
H2131 H 0.59618 0.04328 0.82612 0.0
H2132 H 0.58191 0.02661 0.84626 0.0
H2133 H 0.66736 0.09501 0.89167 0.0
H2134 H 0.65647 0.11763 0.90626 0.0
H2135 H 0.6577 0.11509 0.87465 0.0
C2136 C 0.27909 0.34308 0.10602 0.0
C2137 C 0.29975 0.35779 0.10567 0.0
C2138 C 0.27457 0.33204 0.12603 0.0
C2139 C 0.29116 0.33557 0.14626 0.0
C2140 C 0.31206 0.3504 0.14598 0.0
C2141 C 0.31604 0.36138 0.12582 0.0
C2142 C 0.25191 0.31676 0.12556 0.0
C2143 C 0.33035 0.3545 0.16695 0.0
C2144 C 0.27483 0.32245 0.20714 0.0
C2145 C 0.28175 0.30199 0.20923 0.0
C2146 C 0.27753 0.33341 0.18675 0.0
C2147 C 0.28694 0.32354 0.16758 0.0
C2148 C 0.29317 0.30249 0.16921 0.0
C2149 C 0.29078 0.29217 0.19003 0.0
C2150 C 0.27082 0.35589 0.18601 0.0
C2151 C 0.3026 0.29095 0.14899 0.0
H2152 H 0.26627 0.34036 0.09069 0.0
H2153 H 0.33204 0.3727 0.12578 0.0
H2154 H 0.25406 0.3 0.13003 0.0
H2155 H 0.24266 0.3239 0.13921 0.0
H2156 H 0.24144 0.31451 0.10793 0.0
H2157 H 0.34521 0.36732 0.16454 0.0
H2158 H 0.32378 0.36013 0.18349 0.0
H2159 H 0.33593 0.33857 0.16953 0.0
H2160 H 0.2678 0.33025 0.22175 0.0
H2161 H 0.29619 0.27639 0.19131 0.0
H2162 H 0.25856 0.35524 0.16998 0.0
H2163 H 0.28582 0.36898 0.1847 0.0
H2164 H 0.26324 0.36109 0.20205 0.0
H2165 H 0.29035 0.288 0.13253 0.0
H2166 H 0.30646 0.27456 0.15286 0.0
H2167 H 0.31822 0.30191 0.14531 0.0
C2168 C 0.24449 0.98051 0.99123 0.0
C2169 C 0.2432 0.95849 0.99645 0.0
C2170 C 0.22977 0.99337 0.99987 0.0
C2171 C 0.21431 0.98399 0.01463 0.0
C2172 C 0.21191 0.96121 0.01842 0.0
C2173 C 0.2261 0.94852 0.00867 0.0
C2174 C 0.232 0.01737 0.99479 0.0
C2175 C 0.19582 0.95076 0.03449 0.0
C2176 C 0.19954 0.01716 0.06743 0.0
C2177 C 0.17662 0.01574 0.06045 0.0
C2178 C 0.2127 0.00846 0.05175 0.0
C2179 C 0.20249 0.9983 0.02865 0.0
C2180 C 0.17976 0.99826 0.02094 0.0
C2181 C 0.16694 0.00684 0.03709 0.0
C2182 C 0.23699 0.00854 0.06053 0.0
C2183 C 0.16871 0.98791 0.99618 0.0
H2184 H 0.25773 0.98804 0.98156 0.0
H2185 H 0.22518 0.93142 0.01264 0.0
H2186 H 0.21526 0.02198 0.99207 0.0
H2187 H 0.24214 0.02885 0.0102 0.0
H2188 H 0.24055 0.02018 0.9788 0.0
H2189 H 0.19692 0.93307 0.03631 0.0
H2190 H 0.19946 0.96058 0.05252 0.0
H2191 H 0.17827 0.95107 0.02735 0.0
H2192 H 0.20702 0.02461 0.08533 0.0
H2193 H 0.14915 0.00587 0.0317 0.0
H2194 H 0.24812 0.015 0.04761 0.0
H2195 H 0.23895 0.99107 0.06225 0.0
H2196 H 0.24279 0.01896 0.07812 0.0
H2197 H 0.17956 0.99371 0.98271 0.0
H2198 H 0.15193 0.99211 0.9919 0.0
H2199 H 0.16651 0.96934 0.99462 0.0
C2200 C 0.68695 0.6497 0.01342 0.0
C2201 C 0.70673 0.64204 0.00986 0.0
C2202 C 0.66657 0.63448 0.01373 0.0
C2203 C 0.66594 0.61103 0.01033 0.0
C2204 C 0.68564 0.60321 0.00574 0.0
C2205 C 0.70581 0.61879 0.00565 0.0
C2206 C 0.6459 0.64352 0.01852 0.0
C2207 C 0.68545 0.57836 1.00118 0.0
C2208 C 0.62149 0.5721 0.03694 0.0
C2209 C 0.60469 0.56494 0.01744 0.0
C2210 C 0.6414 0.58732 0.0349 0.0
C2211 C 0.64495 0.59469 0.01257 0.0
C2212 C 0.62838 0.58657 0.99257 0.0
C2213 C 0.60823 0.57218 0.99539 0.0
C2214 C 0.65835 0.59603 0.05679 0.0
C2215 C 0.63157 0.59346 0.9683 0.0
H2216 H 0.68753 0.66763 0.01663 0.0
H2217 H 0.72097 0.61271 0.00266 0.0
H2218 H 0.63147 0.63555 0.0048 0.0
H2219 H 0.64113 0.63931 0.036 0.0
H2220 H 0.64866 0.66206 0.01877 0.0
H2221 H 0.70214 0.57498 0.99773 0.0
H2222 H 0.68038 0.57008 0.01672 0.0
H2223 H 0.67284 0.57046 0.9856 0.0
H2224 H 0.61855 0.5667 0.05405 0.0
H2225 H 0.5952 0.56652 0.98028 0.0
H2226 H 0.66086 0.61463 0.06029 0.0
H2227 H 0.67486 0.59193 0.05384 0.0
H2228 H 0.65296 0.58886 0.07286 0.0
H2229 H 0.62898 0.61091 0.96796 0.0
H2230 H 0.61944 0.58233 0.95398 0.0
H2231 H 0.64891 0.59318 0.9643 0.0
C2232 C 0.66514 0.48694 0.27156 0.0
C2233 C 0.67015 0.50155 0.29297 0.0
C2234 C 0.67891 0.47179 0.26585 0.0
C2235 C 0.69762 0.47068 0.28237 0.0
C2236 C 0.70201 0.48454 0.30461 0.0
C2237 C 0.68846 0.50022 0.30945 0.0
C2238 C 0.67404 0.45771 0.24167 0.0
C2239 C 0.72149 0.48341 0.32285 0.0
C2240 C 0.72148 0.41878 0.26779 0.0
C2241 C 0.73857 0.42714 0.25455 0.0
C2242 C 0.70877 0.43308 0.27829 0.0
C2243 C 0.71334 0.45615 0.27539 0.0
C2244 C 0.73152 0.46485 0.26331 0.0
C2245 C 0.74386 0.45018 0.25295 0.0
C2246 C 0.68975 0.42331 0.29139 0.0
C2247 C 0.73707 0.48934 0.25983 0.0
H2248 H 0.65119 0.48827 0.25867 0.0
H2249 H 0.69234 0.51163 0.32597 0.0
H2250 H 0.68884 0.46119 0.2319 0.0
H2251 H 0.67095 0.43959 0.24378 0.0
H2252 H 0.65918 0.46105 0.23065 0.0
H2253 H 0.72079 0.49303 0.34035 0.0
H2254 H 0.72167 0.46568 0.32536 0.0
H2255 H 0.73758 0.49043 0.31646 0.0
H2256 H 0.71739 0.40092 0.26907 0.0
H2257 H 0.75737 0.45666 0.24309 0.0
H2258 H 0.6734 0.42293 0.28059 0.0
H2259 H 0.6902 0.43398 0.30855 0.0
H2260 H 0.69041 0.40591 0.29498 0.0
H2261 H 0.7245 0.49257 0.24573 0.0
H2262 H 0.75407 0.49411 0.25433 0.0
H2263 H 0.73629 0.5004 0.27634 0.0
C2264 C 0.87589 0.46905 0.53196 0.0
C2265 C 0.86627 0.4588 0.50913 0.0
C2266 C 0.8984 0.4801 0.53598 0.0
C2267 C 0.91061 0.4817 0.51636 0.0
C2268 C 0.90094 0.47094 0.49331 0.0
C2269 C 0.87882 0.45904 0.49012 0.0
C2270 C 0.90886 0.49061 0.56087 0.0
C2271 C 0.91347 0.47292 0.47186 0.0
C2272 C 0.95479 0.53269 0.51491 0.0
C2273 C 0.97366 0.52301 0.51439 0.0
C2274 C 0.93396 0.51947 0.51662 0.0
C2275 C 0.93266 0.4965 0.51914 0.0
C2276 C 0.95205 0.48709 0.52027 0.0
C2277 C 0.9722 0.50028 0.51639 0.0
C2278 C 0.91322 0.52954 0.5134 0.0
C2279 C 0.95124 0.46293 0.52431 0.0
H2280 H 0.86586 0.4683 0.54656 0.0
H2281 H 0.87095 0.45084 0.47257 0.0
H2282 H 0.926 0.48718 0.56483 0.0
H2283 H 0.91058 0.50912 0.56239 0.0
H2284 H 0.8985 0.48429 0.57455 0.0
H2285 H 0.90276 0.4647 0.45503 0.0
H2286 H 0.91969 0.49089 0.47011 0.0
H2287 H 0.92835 0.46503 0.47406 0.0
H2288 H 0.9561 0.55023 0.51242 0.0
H2289 H 0.98645 0.49257 0.51403 0.0
H2290 H 0.90306 0.52654 0.52816 0.0
H2291 H 0.90252 0.52128 0.4966 0.0
H2292 H 0.91745 0.54792 0.51257 0.0
H2293 H 0.94262 0.45938 0.54009 0.0
H2294 H 0.96833 0.45909 0.52718 0.0
H2295 H 0.94142 0.45139 0.50879 0.0
C2296 C 0.34723 0.08232 0.32485 0.0
C2297 C 0.36911 0.083 0.31931 0.0
C2298 C 0.33417 0.09637 0.31513 0.0
C2299 C 0.34326 0.11069 0.29918 0.0
C2300 C 0.366 0.11276 0.29522 0.0
C2301 C 0.37888 0.09918 0.3059 0.0
C2302 C 0.31022 0.09453 0.32039 0.0
C2303 C 0.37619 0.12786 0.27814 0.0
C2304 C 0.30797 0.12314 0.24624 0.0
C2305 C 0.30937 0.1462 0.25226 0.0
C2306 C 0.31778 0.11083 0.26216 0.0
C2307 C 0.32874 0.12195 0.28466 0.0
C2308 C 0.32887 0.14482 0.29146 0.0
C2309 C 0.31954 0.15683 0.27497 0.0
C2310 C 0.31775 0.0864 0.2543 0.0
C2311 C 0.33988 0.15681 0.31566 0.0
H2312 H 0.33985 0.06984 0.33545 0.0
H2313 H 0.39589 0.0997 0.30176 0.0
H2314 H 0.30577 0.11134 0.32261 0.0
H2315 H 0.29857 0.08413 0.30526 0.0
H2316 H 0.30746 0.08649 0.33671 0.0
H2317 H 0.39359 0.126 0.27568 0.0
H2318 H 0.36573 0.12401 0.26044 0.0
H2319 H 0.37668 0.14568 0.28486 0.0
H2320 H 0.29961 0.11483 0.22893 0.0
H2321 H 0.3208 0.17474 0.27967 0.0
H2322 H 0.3116 0.07584 0.26784 0.0
H2323 H 0.33522 0.0844 0.2525 0.0
H2324 H 0.30708 0.07995 0.23697 0.0
H2325 H 0.33461 0.14663 0.32985 0.0
H2326 H 0.33565 0.17363 0.3194 0.0
H2327 H 0.35843 0.15907 0.31666 0.0
C2328 C 0.34328 0.16016 0.51754 0.0
C2329 C 0.32356 0.15485 0.52808 0.0
C2330 C 0.36091 0.14866 0.5217 0.0
C2331 C 0.35877 0.13189 0.5371 0.0
C2332 C 0.33887 0.12658 0.54779 0.0
C2333 C 0.32142 0.13795 0.54292 0.0
C2334 C 0.38165 0.15427 0.50952 0.0
C2335 C 0.33617 0.10919 0.56482 0.0
C2336 C 0.39134 0.08532 0.53936 0.0
C2337 C 0.40541 0.09272 0.5609 0.0
C2338 C 0.37711 0.09876 0.53022 0.0
C2339 C 0.37734 0.12008 0.54289 0.0
C2340 C 0.39304 0.12833 0.56359 0.0
C2341 C 0.40683 0.11441 0.57247 0.0
C2342 C 0.36059 0.08937 0.50815 0.0
C2343 C 0.39425 0.15127 0.57715 0.0
H2344 H 0.34481 0.1731 0.50586 0.0
H2345 H 0.30622 0.13393 0.55121 0.0
H2346 H 0.39701 0.15837 0.52279 0.0
H2347 H 0.38307 0.13942 0.49718 0.0
H2348 H 0.38126 0.16865 0.4992 0.0
H2349 H 0.31943 0.10676 0.57124 0.0
H2350 H 0.33838 0.09279 0.55607 0.0
H2351 H 0.34935 0.11444 0.58049 0.0
H2352 H 0.39053 0.06854 0.53043 0.0
H2353 H 0.41817 0.12014 0.58892 0.0
H2354 H 0.36026 0.10217 0.49578 0.0
H2355 H 0.34341 0.08481 0.51321 0.0
H2356 H 0.36468 0.07412 0.49862 0.0
H2357 H 0.3978 0.16438 0.56526 0.0
H2358 H 0.4075 0.15519 0.59283 0.0
H2359 H 0.37781 0.15225 0.58337 0.0
C2360 C 0.68516 0.63318 0.31994 0.0
C2361 C 0.68229 0.6172 0.29972 0.0
C2362 C 0.7012 0.65338 0.32213 0.0
C2363 C 0.71365 0.65816 0.30303 0.0
C2364 C 0.71064 0.64202 0.28251 0.0
C2365 C 0.69541 0.62147 0.28141 0.0
C2366 C 0.70468 0.66951 0.34486 0.0
C2367 C 0.72312 0.64661 0.26148 0.0
C2368 C 0.7338 0.71978 0.29708 0.0
C2369 C 0.75731 0.72222 0.3008 0.0
C2370 C 0.71947 0.69896 0.29727 0.0
C2371 C 0.7287 0.68055 0.30365 0.0
C2372 C 0.7523 0.68342 0.30964 0.0
C2373 C 0.7663 0.70406 0.30757 0.0
C2374 C 0.69452 0.6966 0.28988 0.0
C2375 C 0.76272 0.66497 0.31886 0.0
H2376 H 0.67527 0.62961 0.3343 0.0
H2377 H 0.69324 0.60896 0.26586 0.0
H2378 H 0.72266 0.67786 0.34973 0.0
H2379 H 0.69482 0.68275 0.34241 0.0
H2380 H 0.69892 0.66082 0.35993 0.0
H2381 H 0.71718 0.63328 0.24602 0.0
H2382 H 0.72103 0.66301 0.25584 0.0
H2383 H 0.74138 0.64767 0.2666 0.0
H2384 H 0.72648 0.73394 0.29293 0.0
H2385 H 0.78417 0.70605 0.31198 0.0
H2386 H 0.68544 0.69467 0.30559 0.0
H2387 H 0.68793 0.68138 0.2767 0.0
H2388 H 0.69057 0.71145 0.28193 0.0
H2389 H 0.75743 0.6622 0.33653 0.0
H2390 H 0.78141 0.66918 0.32083 0.0
H2391 H 0.75673 0.64887 0.30692 0.0
C2392 C 0.84809 0.45337 0.78006 0.0
C2393 C 0.86696 0.46106 0.79718 0.0
C2394 C 0.83604 0.43137 0.77843 0.0
C2395 C 0.84272 0.41751 0.79497 0.0
C2396 C 0.86219 0.42499 0.8118 0.0
C2397 C 0.87442 0.44674 0.81238 0.0
C2398 C 0.81576 0.42321 0.75972 0.0
C2399 C 0.86952 0.41043 0.82977 0.0
C2400 C 0.79614 0.37441 0.81016 0.0
C2401 C 0.80132 0.35458 0.79964 0.0
C2402 C 0.80986 0.39511 0.80916 0.0
C2403 C 0.82827 0.39586 0.79607 0.0
C2404 C 0.83339 0.37598 0.78511 0.0
C2405 C 0.82002 0.35542 0.78766 0.0
C2406 C 0.80534 0.41594 0.82308 0.0
C2407 C 0.85287 0.37627 0.77087 0.0
H2408 H 0.84261 0.46463 0.76826 0.0
H2409 H 0.88907 0.45292 0.82563 0.0
H2410 H 0.81622 0.40635 0.75056 0.0
H2411 H 0.80016 0.42154 0.7683 0.0
H2412 H 0.81482 0.43494 0.74622 0.0
H2413 H 0.88437 0.41945 0.84252 0.0
H2414 H 0.85552 0.40458 0.83998 0.0
H2415 H 0.87389 0.39525 0.82047 0.0
H2416 H 0.78189 0.37372 0.82012 0.0
H2417 H 0.82483 0.34011 0.7815 0.0
H2418 H 0.80142 0.42797 0.81081 0.0
H2419 H 0.8206 0.42449 0.83549 0.0
H2420 H 0.79112 0.41203 0.83361 0.0
H2421 H 0.84705 0.37839 0.75228 0.0
H2422 H 0.85906 0.36034 0.77088 0.0
H2423 H 0.86725 0.39037 0.77761 0.0
C2424 C 0.07157 0.87238 0.06814 0.0
C2425 C 0.06503 0.86559 0.08975 0.0
C2426 C 0.07012 0.89416 0.06146 0.0
C2427 C 0.06194 0.91025 0.07648 0.0
C2428 C 0.05519 0.90335 0.09818 0.0
C2429 C 0.05681 0.88159 0.1044 0.0
C2430 C 0.0776 0.90005 0.03818 0.0
C2431 C 0.04585 0.91897 0.11494 0.0
C2432 C 0.07622 0.97504 0.07108 0.0
C2433 C 0.05679 0.97903 0.05771 0.0
C2434 C 0.07819 0.95317 0.07693 0.0
C2435 C 0.06029 0.93402 0.06967 0.0
C2436 C 0.04058 0.938 0.05634 0.0
C2437 C 0.03922 0.95995 0.05047 0.0
C2438 C 0.09965 0.95059 0.09111 0.0
C2439 C 0.02069 0.91891 0.04809 0.0
H2440 H 0.07795 0.86066 0.05637 0.0
H2441 H 0.05148 0.87707 0.12108 0.0
H2442 H 0.06395 0.90553 0.02729 0.0
H2443 H 0.09226 0.91438 0.04167 0.0
H2444 H 0.0824 0.8857 0.02772 0.0
H2445 H 0.04299 0.91219 0.13193 0.0
H2446 H 0.05748 0.93562 0.11904 0.0
H2447 H 0.0296 0.92171 0.10627 0.0
H2448 H 0.09014 0.98913 0.07707 0.0
H2449 H 0.02409 0.96209 0.04012 0.0
H2450 H 0.10723 0.93805 0.08099 0.0
H2451 H 0.09591 0.94415 0.10803 0.0
H2452 H 0.11219 0.9667 0.09532 0.0
H2453 H 0.02524 0.90684 0.0344 0.0
H2454 H 1.00573 0.92484 0.04032 0.0
H2455 H 0.01604 0.90965 0.06313 0.0
C2456 C 0.93793 0.27243 0.88102 0.0
C2457 C 0.94025 0.27395 0.90607 0.0
C2458 C 0.9178 0.27494 0.86736 0.0
C2459 C 0.89931 0.27986 0.87873 0.0
C2460 C 0.90164 0.28156 0.90405 0.0
C2461 C 0.92171 0.2783 0.91721 0.0
C2462 C 0.91637 0.27238 0.84058 0.0
C2463 C 0.88293 0.28705 0.91742 0.0
C2464 C 0.85682 0.30797 0.843 0.0
C2465 C 0.83785 0.29041 0.8362 0.0
C2466 C 0.87639 0.30496 0.85724 0.0
C2467 C 0.87786 0.28354 0.86425 0.0
C2468 C 0.85877 0.26568 0.85711 0.0
C2469 C 0.83905 0.26941 0.8437 0.0
C2470 C 0.89549 0.32493 0.86507 0.0
C2471 C 0.85939 0.2423 0.86295 0.0
H2472 H 0.95192 0.26913 0.87197 0.0
H2473 H 0.92306 0.27971 0.93646 0.0
H2474 H 0.9005 0.26071 0.83235 0.0
H2475 H 0.91613 0.28889 0.83426 0.0
H2476 H 0.93081 0.26597 0.83418 0.0
H2477 H 0.88829 0.29084 0.93693 0.0
H2478 H 0.87695 0.30171 0.91106 0.0
H2479 H 0.86844 0.27257 0.91407 0.0
H2480 H 0.85618 0.32432 0.83756 0.0
H2481 H 0.82471 0.2556 0.8384 0.0
H2482 H 0.91077 0.32195 0.85739 0.0
H2483 H 0.89967 0.3272 0.88475 0.0
H2484 H 0.89138 0.34073 0.85955 0.0
H2485 H 0.87228 0.2357 0.8536 0.0
H2486 H 0.8429 0.23052 0.85756 0.0
H2487 H 0.86433 0.24263 0.88231 0.0
C2488 C 0.56679 0.21534 0.60904 0.0
C2489 C 0.55836 0.22901 0.59325 0.0
C2490 C 0.56382 0.19155 0.60335 0.0
C2491 C 0.5516 0.18021 0.58132 0.0
C2492 C 0.54273 0.19383 0.56535 0.0
C2493 C 0.54636 0.21777 0.57131 0.0
C2494 C 0.57402 0.17847 0.62108 0.0
C2495 C 0.52885 0.183 0.54205 0.0
C2496 C 0.56178 0.1209 0.55788 0.0
C2497 C 0.54403 0.10561 0.56482 0.0
C2498 C 0.56424 0.14472 0.5628 0.0
C2499 C 0.54851 0.15437 0.57505 0.0
C2500 C 0.53029 0.13907 0.58186 0.0
C2501 C 0.52835 0.11528 0.57682 0.0
C2502 C 0.58389 0.15967 0.55477 0.0
C2503 C 0.51276 0.14775 0.59481 0.0
H2504 H 0.57606 0.22336 0.62606 0.0
H2505 H 0.53934 0.22766 0.5589 0.0
H2506 H 0.56068 0.16545 0.62613 0.0
H2507 H 0.58613 0.16961 0.61285 0.0
H2508 H 0.58293 0.18941 0.63748 0.0
H2509 H 0.52433 0.19561 0.53076 0.0
H2510 H 0.53809 0.17201 0.53197 0.0
H2511 H 0.5131 0.17215 0.54563 0.0
H2512 H 0.57377 0.11429 0.54821 0.0
H2513 H 0.51432 0.10421 0.58237 0.0
H2514 H 0.59438 0.17055 0.57039 0.0
H2515 H 0.5777 0.17089 0.54269 0.0
H2516 H 0.59465 0.14993 0.54534 0.0
H2517 H 0.52006 0.15427 0.61351 0.0
H2518 H 0.49764 0.13439 0.59498 0.0
H2519 H 0.50745 0.16185 0.58652 0.0
C2520 C 0.56706 0.78985 0.39595 0.0
C2521 C 0.56382 0.77784 0.41536 0.0
C2522 C 0.5872 0.79171 0.38547 0.0
C2523 C 0.6043 0.78049 0.39383 0.0
C2524 C 0.60072 0.76771 0.41296 0.0
C2525 C 0.58085 0.76695 0.42377 0.0
C2526 C 0.59038 0.80616 0.36572 0.0
C2527 C 0.61803 0.75503 0.42228 0.0
C2528 C 0.64676 0.77539 0.34941 0.0
C2529 C 0.66425 0.79384 0.35836 0.0
C2530 C 0.6279 0.76972 0.36169 0.0
C2531 C 0.62616 0.78311 0.38317 0.0
C2532 C 0.6447 0.80058 0.39316 0.0
C2533 C 0.66343 0.80557 0.38077 0.0
C2534 C 0.60917 0.75023 0.35091 0.0
C2535 C 0.64397 0.81566 0.41574 0.0
H2536 H 0.55411 0.79843 0.38942 0.0
H2537 H 0.5785 0.75754 0.4387 0.0
H2538 H 0.60654 0.81859 0.37 0.0
H2539 H 0.59117 0.79549 0.34894 0.0
H2540 H 0.5765 0.81535 0.36265 0.0
H2541 H 0.61122 0.74294 0.43423 0.0
H2542 H 0.62411 0.74571 0.40734 0.0
H2543 H 0.63277 0.76709 0.43245 0.0
H2544 H 0.64702 0.7664 0.332 0.0
H2545 H 0.67671 0.82004 0.38768 0.0
H2546 H 0.59455 0.75667 0.34323 0.0
H2547 H 0.60346 0.73985 0.3648 0.0
H2548 H 0.61445 0.73935 0.33658 0.0
H2549 H 0.63387 0.82834 0.41145 0.0
H2550 H 0.6611 0.82471 0.42393 0.0
H2551 H 0.63591 0.80607 0.42906 0.0
C2552 C 0.05993 0.2628 0.42346 0.0
C2553 C 0.04794 0.26205 0.40079 0.0
C2554 C 0.05825 0.24352 0.43542 0.0
C2555 C 0.04414 0.22288 0.4246 0.0
C2556 C 0.03241 0.22197 0.40148 0.0
C2557 C 0.03446 0.24144 0.38993 0.0
C2558 C 0.0715 0.24529 0.45972 0.0
C2559 C 0.01709 0.20051 0.38914 0.0
C2560 C 0.04751 0.16574 0.44579 0.0
C2561 C 0.02896 0.16209 0.45848 0.0
C2562 C 0.05329 0.18578 0.43546 0.0
C2563 C 0.04026 0.20266 0.43789 0.0
C2564 C 0.02224 0.19942 0.45177 0.0
C2565 C 0.01677 0.17923 0.46171 0.0
C2566 C 0.07264 0.18837 0.42091 0.0
C2567 C 1.00808 0.21695 0.45532 0.0
H2568 H 0.07059 0.27852 0.43197 0.0
H2569 H 0.02517 0.24056 0.37242 0.0
H2570 H 0.06008 0.23984 0.47282 0.0
H2571 H 0.08362 0.23388 0.45907 0.0
H2572 H 0.081 0.26267 0.46618 0.0
H2573 H 0.01084 0.20189 0.37042 0.0
H2574 H 0.02601 0.1863 0.38921 0.0
H2575 H 1.00239 0.19635 0.39892 0.0
H2576 H 0.05679 0.15244 0.44292 0.0
H2577 H 1.00233 0.17645 0.47136 0.0
H2578 H 0.08414 0.20495 0.42651 0.0
H2579 H 0.06608 0.18778 0.40187 0.0
H2580 H 0.08243 0.17491 0.42256 0.0
H2581 H 0.01895 0.2333 0.46335 0.0
H2582 H 0.99498 0.21217 0.46699 0.0
H2583 H 0.99968 0.21948 0.43784 0.0
C2584 C 0.61474 0.28044 0.20885 0.0
C2585 C 0.59949 0.27122 0.22398 0.0
C2586 C 0.63864 0.28356 0.21442 0.0
C2587 C 0.64856 0.27757 0.23598 0.0
C2588 C 0.63331 0.26852 0.25156 0.0
C2589 C 0.60934 0.26539 0.24543 0.0
C2590 C 0.65338 0.29309 0.19683 0.0
C2591 C 0.64239 0.26238 0.27507 0.0
C2592 C 0.70993 0.26597 0.23985 0.0
C2593 C 0.72384 0.28635 0.25122 0.0
C2594 C 0.68593 0.26287 0.23515 0.0
C2595 C 0.6746 0.2805 0.24188 0.0
C2596 C 0.68854 0.30115 0.25348 0.0
C2597 C 0.71255 0.30383 0.25772 0.0
C2598 C 0.67264 0.24058 0.22252 0.0
C2599 C 0.6782 0.3208 0.26127 0.0
H2600 H 0.60793 0.28512 0.19219 0.0
H2601 H 0.59828 0.25837 0.25758 0.0
H2602 H 0.66567 0.30831 0.20559 0.0
H2603 H 0.66315 0.28059 0.19044 0.0
H2604 H 0.64349 0.29762 0.18121 0.0
H2605 H 0.62879 0.25436 0.28473 0.0
H2606 H 0.65407 0.25075 0.27232 0.0
H2607 H 0.65219 0.27779 0.28642 0.0
H2608 H 0.71786 0.25241 0.23395 0.0
H2609 H 0.72254 0.31982 0.2664 0.0
H2610 H 0.66317 0.24313 0.20563 0.0
H2611 H 0.66011 0.23312 0.23367 0.0
H2612 H 0.68354 0.22842 0.21844 0.0
H2613 H 0.67357 0.32899 0.24554 0.0
H2614 H 0.69005 0.33357 0.27441 0.0
H2615 H 0.66261 0.31516 0.26924 0.0
C2616 C 0.56672 0.90588 0.90657 0.0
C2617 C 0.55053 0.88583 0.90504 0.0
C2618 C 0.56456 0.92615 0.92022 0.0
C2619 C 0.54525 0.92701 0.93205 0.0
C2620 C 0.5285 0.90694 0.92975 0.0
C2621 C 0.53158 0.88672 0.91691 0.0
C2622 C 0.58331 0.94657 0.9225 0.0
C2623 C 0.50683 0.90695 0.94023 0.0
C2624 C 0.54417 0.97123 0.98598 0.0
C2625 C 0.53598 0.98853 0.97567 0.0
C2626 C 0.54799 0.95184 0.97215 0.0
C2627 C 0.54256 0.94859 0.94694 0.0
C2628 C 0.5344 0.96604 0.9363 0.0
C2629 C 0.53229 0.98598 0.95054 0.0
C2630 C 0.55828 0.93495 0.98467 0.0
C2631 C 0.52771 0.96392 0.90974 0.0
H2632 H 0.58147 0.90557 0.89762 0.0
H2633 H 0.5187 0.87158 0.91564 0.0
H2634 H 0.57676 0.96088 0.91611 0.0
H2635 H 0.59029 0.95169 0.94154 0.0
H2636 H 0.59715 0.94345 0.91226 0.0
H2637 H 0.49539 0.89014 0.93699 0.0
H2638 H 0.51034 0.91239 0.9597 0.0
H2639 H 0.49798 0.91922 0.93229 0.0
H2640 H 0.54849 0.97318 0.005 0.0
H2641 H 0.52742 0.99937 0.94165 0.0
H2642 H 0.5732 0.93168 0.97641 0.0
H2643 H 0.54601 0.91875 0.9827 0.0
H2644 H 0.56353 0.94077 0.00397 0.0
H2645 H 0.54262 0.97061 0.9012 0.0
H2646 H 0.5147 0.97387 0.90539 0.0
H2647 H 0.52106 0.94617 0.90183 0.0
C2648 C 0.95398 0.75605 0.74608 0.0
C2649 C 0.9602 0.76075 0.72369 0.0
C2650 C 0.93215 0.7575 0.75259 0.0
C2651 C 0.91562 0.7643 0.73678 0.0
C2652 C 0.92207 0.7695 0.71438 0.0
C2653 C 0.94374 0.76744 0.70815 0.0
C2654 C 0.92659 0.75131 0.77646 0.0
C2655 C 0.90614 0.77779 0.69695 0.0
C2656 C 0.85095 0.75048 0.74296 0.0
C2657 C 0.84716 0.77021 0.75589 0.0
C2658 C 0.87276 0.74824 0.73705 0.0
C2659 C 0.89193 0.76623 0.74357 0.0
C2660 C 0.88811 0.78627 0.7563 0.0
C2661 C 0.86631 0.7878 0.76249 0.0
C2662 C 0.87528 0.72634 0.72379 0.0
C2663 C 0.90716 0.80639 0.76348 0.0
H2664 H 0.96608 0.75082 0.75848 0.0
H2665 H 0.94792 0.77145 0.69089 0.0
H2666 H 0.92108 0.76535 0.78663 0.0
H2667 H 0.91234 0.73658 0.7738 0.0
H2668 H 0.94113 0.74713 0.78726 0.0
H2669 H 0.91279 0.7799 0.67976 0.0
H2670 H 0.8896 0.76595 0.69339 0.0
H2671 H 0.90319 0.79424 0.70478 0.0
H2672 H 0.8368 0.73651 0.73755 0.0
H2673 H 0.86434 0.8031 0.77255 0.0
H2674 H 0.88809 0.7193 0.73421 0.0
H2675 H 0.88136 0.72927 0.70652 0.0
H2676 H 0.8592 0.7137 0.72033 0.0
H2677 H 0.91948 0.80256 0.77743 0.0
H2678 H 0.90123 0.82157 0.77057 0.0
H2679 H 0.91617 0.81029 0.74805 0.0
C2680 C 0.09109 0.03979 0.86491 0.0
C2681 C 0.11268 0.05188 0.86298 0.0
C2682 C 0.08378 0.03721 0.88739 0.0
C2683 C 0.09811 0.04746 0.90864 0.0
C2684 C 0.11982 0.05995 0.90671 0.0
C2685 C 0.12691 0.0617 0.88408 0.0
C2686 C 0.06067 0.02344 0.88839 0.0
C2687 C 0.13561 0.07159 0.92862 0.0
C2688 C 0.07004 0.06001 0.9642 0.0
C2689 C 0.07501 0.04364 0.97833 0.0
C2690 C 0.07778 0.06166 0.9419 0.0
C2691 C 0.09014 0.04598 0.93276 0.0
C2692 C 0.09506 0.02926 0.9469 0.0
C2693 C 0.08776 0.02851 0.96963 0.0
C2694 C 0.07296 0.08045 0.92827 0.0
C2695 C 0.10748 0.0117 0.93772 0.0
H2696 H 0.08003 0.03194 0.84882 0.0
H2697 H 0.14365 0.07104 0.8829 0.0
H2698 H 0.06164 0.01104 0.90115 0.0
H2699 H 0.04963 0.03462 0.89484 0.0
H2700 H 0.05269 0.01432 0.87069 0.0
H2701 H 0.15095 0.08244 0.9241 0.0
H2702 H 0.12694 0.08211 0.94006 0.0
H2703 H 0.14086 0.05887 0.93926 0.0
H2704 H 0.06033 0.07191 0.97085 0.0
H2705 H 0.0914 0.01565 0.98027 0.0
H2706 H 0.06267 0.0734 0.91091 0.0
H2707 H 0.08899 0.09061 0.92445 0.0
H2708 H 0.06388 0.09178 0.93818 0.0
H2709 H 0.097 1.00088 0.92206 0.0
H2710 H 0.11145 1.00088 0.9514 0.0
H2711 H 0.1234 0.01975 0.9317 0.0
C2712 C 0.77758 0.38345 0.56311 0.0
C2713 C 0.79586 0.39983 0.55959 0.0
C2714 C 0.77716 0.37477 0.5849 0.0
C2715 C 0.79569 0.38245 0.60297 0.0
C2716 C 0.81385 0.39954 0.59958 0.0
C2717 C 0.81358 0.40813 0.57796 0.0
C2718 C 0.75715 0.3573 0.58849 0.0
C2719 C 0.83424 0.40786 0.61821 0.0
C2720 C 0.80382 0.37428 0.66722 0.0
C2721 C 0.81788 0.35872 0.66591 0.0
C2722 C 0.79384 0.38049 0.64631 0.0
C2723 C 0.79823 0.37078 0.62406 0.0
C2724 C 0.81035 0.35321 0.62287 0.0
C2725 C 0.82016 0.34746 0.64396 0.0
C2726 C 0.7806 0.39896 0.64807 0.0
C2727 C 0.81518 0.34229 0.59944 0.0
H2728 H 0.76367 0.37752 0.54894 0.0
H2729 H 0.8277 0.4209 0.57515 0.0
H2730 H 0.76265 0.34209 0.5939 0.0
H2731 H 0.74872 0.36411 0.6031 0.0
H2732 H 0.74469 0.35229 0.57217 0.0
H2733 H 0.84625 0.4221 0.61314 0.0
H2734 H 0.82904 0.41343 0.63554 0.0
H2735 H 0.84325 0.39397 0.62083 0.0
H2736 H 0.80177 0.38251 0.68445 0.0
H2737 H 0.83059 0.33494 0.6433 0.0
H2738 H 0.76628 0.39575 0.63355 0.0
H2739 H 0.79169 0.41518 0.64626 0.0
H2740 H 0.77409 0.40075 0.6655 0.0
H2741 H 0.79969 0.33761 0.58638 0.0
H2742 H 0.82216 0.32698 0.60152 0.0
H2743 H 0.82762 0.35441 0.59192 0.0
C2744 C 0.45454 0.03081 0.38282 0.0
C2745 C 0.43129 0.02947 0.38082 0.0
C2746 C 0.46672 0.03026 0.40475 0.0
C2747 C 0.45517 0.0282 0.42486 0.0
C2748 C 0.43167 0.02652 0.42295 0.0
C2749 C 0.41993 0.02735 0.4008 0.0
C2750 C 0.49191 0.03194 0.40643 0.0
C2751 C 0.41902 0.02411 0.44423 0.0
C2752 C 0.48978 0.00972 0.47404 0.0
C2753 C 0.49845 0.03022 0.48822 0.0
C2754 C 0.47381 0.00842 0.45434 0.0
C2755 C 0.46807 0.0285 0.44799 0.0
C2756 C 0.47679 0.04932 0.4624 0.0
C2757 C 0.49165 0.04983 0.48284 0.0
C2758 C 0.46363 0.98579 0.44002 0.0
C2759 C 0.47169 0.07116 0.45541 0.0
H2760 H 0.46322 0.03226 0.36725 0.0
H2761 H 0.40187 0.02624 0.39914 0.0
H2762 H 0.50078 0.04609 0.42009 0.0
H2763 H 0.4963 0.01632 0.41204 0.0
H2764 H 0.49833 0.03453 0.38921 0.0
H2765 H 0.40051 0.01943 0.43895 0.0
H2766 H 0.42435 0.01122 0.45461 0.0
H2767 H 0.42291 0.04029 0.45622 0.0
H2768 H 0.49503 0.99472 0.4788 0.0
H2769 H 0.49887 0.06569 0.49392 0.0
H2770 H 0.46995 0.9848 0.42249 0.0
H2771 H 0.44504 0.9836 0.43661 0.0
H2772 H 0.46778 0.97168 0.44923 0.0
H2773 H 0.47929 0.07485 0.43906 0.0
H2774 H 0.47847 0.08555 0.46962 0.0
H2775 H 0.45328 0.06981 0.45127 0.0
C2776 C 0.78866 0.73795 0.1008 0.0
C2777 C 0.77589 0.71635 0.09224 0.0
C2778 C 0.79146 0.74662 0.12528 0.0
C2779 C 0.78117 0.73352 0.14182 0.0
C2780 C 0.76833 0.71167 0.13322 0.0
C2781 C 0.76593 0.7034 0.10875 0.0
C2782 C 0.8057 0.76977 0.1335 0.0
C2783 C 0.75666 0.6971 0.14982 0.0
C2784 C 0.80091 0.74634 0.20935 0.0
C2785 C 0.78587 0.7594 0.21741 0.0
C2786 C 0.8001 0.73848 0.1849 0.0
C2787 C 0.78318 0.74282 0.16789 0.0
C2788 C 0.76787 0.75582 0.17598 0.0
C2789 C 0.76992 0.76452 0.2003 0.0
C2790 C 0.81743 0.72554 0.17727 0.0
C2791 C 0.74906 0.76039 0.15894 0.0
H2792 H 0.79663 0.74807 0.08837 0.0
H2793 H 0.75605 0.68667 0.1025 0.0
H2794 H 0.79586 0.78054 0.14298 0.0
H2795 H 0.82031 0.76852 0.1463 0.0
H2796 H 0.81202 0.77816 0.11848 0.0
H2797 H 0.74866 0.67995 0.1408 0.0
H2798 H 0.76877 0.69555 0.16522 0.0
H2799 H 0.74346 0.70509 0.15698 0.0
H2800 H 0.81367 0.74255 0.22217 0.0
H2801 H 0.75872 0.77511 0.20588 0.0
H2802 H 0.82623 0.73369 0.16344 0.0
H2803 H 0.80905 0.70822 0.16921 0.0
H2804 H 0.83016 0.72451 0.19238 0.0
H2805 H 0.75619 0.77121 0.14605 0.0
H2806 H 0.73728 0.76887 0.16826 0.0
H2807 H 0.73937 0.74441 0.14858 0.0
C2808 C 0.1138 0.06719 0.71165 0.0
C2809 C 0.10825 0.04886 0.72436 0.0
C2810 C 0.10722 0.06541 0.68687 0.0
C2811 C 0.09429 0.04493 0.67429 0.0
C2812 C 0.08881 0.02626 0.68698 0.0
C2813 C 0.096 0.02839 0.71172 0.0
C2814 C 0.11423 0.0855 0.67411 0.0
C2815 C 0.07542 1.00397 0.67436 0.0
C2816 C 0.05809 0.04897 0.61612 0.0
C2817 C 0.0706 0.04172 0.59862 0.0
C2818 C 0.06545 0.04975 0.64061 0.0
C2819 C 0.086 0.04335 0.64809 0.0
C2820 C 0.09874 0.03602 0.63048 0.0
C2821 C 0.09089 0.03526 0.6061 0.0
C2822 C 0.05103 0.05726 0.65854 0.0
C2823 C 0.12098 0.02949 0.63728 0.0
H2824 H 0.12365 0.08296 0.72103 0.0
H2825 H 0.09194 0.01399 0.7212 0.0
H2826 H 0.12304 0.08073 0.65889 0.0
H2827 H 0.0991 0.09134 0.66673 0.0
H2828 H 0.12552 0.09972 0.68602 0.0
H2829 H 0.07124 0.99152 0.68688 0.0
H2830 H 0.05955 0.00632 0.66442 0.0
H2831 H 0.08519 0.99693 0.66116 0.0
H2832 H 0.04225 0.05367 0.61069 0.0
H2833 H 0.10083 0.0297 0.59286 0.0
H2834 H 0.06058 0.07249 0.67032 0.0
H2835 H 0.04662 0.04391 0.67 0.0
H2836 H 0.03524 0.06113 0.64994 0.0
H2837 H 0.13394 0.04491 0.64391 0.0
H2838 H 0.1267 0.02036 0.62191 0.0
H2839 H 0.11994 0.01878 0.6518 0.0
C2840 C 0.77997 0.39957 0.41224 0.0
C2841 C 0.79896 0.401 0.42873 0.0
C2842 C 0.77833 0.38766 0.38964 0.0
C2843 C 0.79659 0.37803 0.38354 0.0
C2844 C 0.81686 0.3818 0.39934 0.0
C2845 C 0.81759 0.39285 0.42222 0.0
C2846 C 0.75613 0.38315 0.37361 0.0
C2847 C 0.83711 0.37292 0.39262 0.0
C2848 C 0.78427 0.32079 0.34805 0.0
C2849 C 0.78692 0.32619 0.32516 0.0
C2850 C 0.78653 0.3377 0.3671 0.0
C2851 C 0.79282 0.36039 0.36319 0.0
C2852 C 0.79501 0.36592 0.34006 0.0
C2853 C 0.79058 0.34855 0.32112 0.0
C2854 C 0.78284 0.33117 0.39146 0.0
C2855 C 0.80304 0.38987 0.33548 0.0
H2856 H 0.76577 0.40622 0.41765 0.0
H2857 H 0.83246 0.39473 0.43515 0.0
H2858 H 0.75863 0.38476 0.35486 0.0
H2859 H 0.74721 0.36562 0.37414 0.0
H2860 H 0.74513 0.39472 0.3793 0.0
H2861 H 0.85216 0.3792 0.40616 0.0
H2862 H 0.83337 0.35428 0.39066 0.0
H2863 H 0.84118 0.37792 0.37518 0.0
H2864 H 0.78072 0.30337 0.35122 0.0
H2865 H 0.79117 0.35237 0.30333 0.0
H2866 H 0.77184 0.34133 0.3999 0.0
H2867 H 0.79919 0.33453 0.40314 0.0
H2868 H 0.77505 0.31307 0.39064 0.0
H2869 H 0.79078 0.4003 0.34019 0.0
H2870 H 0.80555 0.39094 0.31658 0.0
H2871 H 0.81923 0.39734 0.3469 0.0
C2872 C 0.44134 0.0227 0.24939 0.0
C2873 C 0.4196 0.0263 0.25095 0.0
C2874 C 0.44893 0.01956 0.22731 0.0
C2875 C 0.43447 0.0204 0.2064 0.0
C2876 C 0.41282 0.02504 0.20789 0.0
C2877 C 0.40551 0.02775 0.23028 0.0
C2878 C 0.47231 0.01489 0.22642 0.0
C2879 C 0.39722 0.02646 0.18592 0.0
C2880 C 0.46937 0.02493 0.15641 0.0
C2881 C 0.46785 1.00206 0.14864 0.0
C2882 C 0.45645 0.03157 0.17368 0.0
C2883 C 0.44192 0.01485 0.18316 0.0
C2884 C 0.4386 0.99198 0.17342 0.0
C2885 C 0.45185 0.98583 0.15635 0.0
C2886 C 0.4598 0.05619 0.18319 0.0
C2887 C 0.42289 0.97364 0.18267 0.0
H2888 H 0.45224 0.0217 0.26541 0.0
H2889 H 0.38868 0.03067 0.23156 0.0
H2890 H 0.47167 0.99933 0.21414 0.0
H2891 H 0.48298 0.02896 0.21954 0.0
H2892 H 0.48058 0.01294 0.2442 0.0
H2893 H 0.38209 0.0328 0.19039 0.0
H2894 H 0.40615 0.03767 0.17437 0.0
H2895 H 0.3916 0.00957 0.1754 0.0
H2896 H 0.4815 0.03751 0.14997 0.0
H2897 H 0.45028 0.96822 0.14962 0.0
H2898 H 0.47109 0.05971 0.20036 0.0
H2899 H 0.44357 0.06072 0.18662 0.0
H2900 H 0.46755 0.06716 0.17069 0.0
H2901 H 0.43181 0.96881 0.19872 0.0
H2902 H 0.4175 0.95844 0.1692 0.0
H2903 H 0.40768 0.97933 0.18782 0.0
C2904 C 0.76201 0.73 0.94692 0.0
C2905 C 0.77591 0.71585 0.95524 0.0
C2906 C 0.76311 0.73738 0.92427 0.0
C2907 C 0.77832 0.73032 0.90928 0.0
C2908 C 0.7924 0.71606 0.91766 0.0
C2909 C 0.79111 0.70915 0.94041 0.0
C2910 C 0.74791 0.75272 0.91634 0.0
C2911 C 0.80883 0.70796 0.9025 0.0
C2912 C 0.76615 0.73305 0.84212 0.0
C2913 C 0.78229 0.75173 0.83861 0.0
C2914 C 0.76507 0.72555 0.86468 0.0
C2915 C 0.77958 0.73777 0.88491 0.0
C2916 C 0.79571 0.75684 0.88165 0.0
C2917 C 0.79733 0.76301 0.85862 0.0
C2918 C 0.74836 0.70444 0.86679 0.0
C2919 C 0.811 0.77109 0.90259 0.0
H2920 H 0.75014 0.73522 0.95807 0.0
H2921 H 0.80195 0.6982 0.94651 0.0
H2922 H 0.75801 0.768 0.9109 0.0
H2923 H 0.73592 0.74406 0.90058 0.0
H2924 H 0.73813 0.75792 0.93055 0.0
H2925 H 0.81704 0.69529 0.91051 0.0
H2926 H 0.80013 0.70047 0.8845 0.0
H2927 H 0.82214 0.7224 0.90018 0.0
H2928 H 0.75395 0.72442 0.82743 0.0
H2929 H 0.81057 0.77673 0.85636 0.0
H2930 H 0.73588 0.70849 0.87847 0.0
H2931 H 0.75718 0.69238 0.87517 0.0
H2932 H 0.73921 0.69607 0.84923 0.0
H2933 H 0.80069 0.77804 0.91527 0.0
H2934 H 0.82278 0.78529 0.89714 0.0
H2935 H 0.82096 0.76069 0.9123 0.0
C2936 C 0.82705 0.08993 0.05361 0.0
C2937 C 0.82624 0.10824 0.07006 0.0
C2938 C 0.84773 0.08592 0.04822 0.0
C2939 C 0.86774 0.10019 0.06035 0.0
C2940 C 0.86692 0.11757 0.07842 0.0
C2941 C 0.84597 0.12159 0.08291 0.0
C2942 C 0.8481 0.06735 0.02851 0.0
C2943 C 0.88801 0.13283 0.09172 0.0
C2944 C 0.91413 0.07153 0.04763 0.0
C2945 C 0.91892 0.07982 0.02637 0.0
C2946 C 0.89931 0.0803 0.0611 0.0
C2947 C 0.88924 0.09742 0.05274 0.0
C2948 C 0.89639 0.10781 0.03308 0.0
C2949 C 0.91126 0.09873 0.01998 0.0
C2950 C 0.89229 0.06938 0.08242 0.0
C2951 C 0.88614 0.12632 0.02377 0.0
H2952 H 0.8116 0.08002 0.0435 0.0
H2953 H 0.84501 0.1359 0.09552 0.0
H2954 H 0.85758 0.07426 0.01448 0.0
H2955 H 0.85679 0.05466 0.03572 0.0
H2956 H 0.83092 0.05873 0.02007 0.0
H2957 H 0.88444 0.14311 0.10762 0.0
H2958 H 0.90059 0.12291 0.09747 0.0
H2959 H 0.89573 0.14441 0.07979 0.0
H2960 H 0.92044 0.05704 0.05267 0.0
H2961 H 0.9157 0.10543 0.00386 0.0
H2962 H 0.87586 0.0575 0.07716 0.0
H2963 H 0.89005 0.08215 0.09687 0.0
H2964 H 0.90477 0.05985 0.08944 0.0
H2965 H 0.87051 0.11866 0.01151 0.0
H2966 H 0.8978 0.13667 0.01363 0.0
H2967 H 0.88165 0.1375 0.03831 0.0
C2968 C 0.37452 0.45474 0.03653 0.0
C2969 C 0.37325 0.43544 0.04806 0.0
C2970 C 0.3954 0.46824 0.03416 0.0
C2971 C 0.41564 0.46263 0.0439 0.0
C2972 C 0.41448 0.4433 0.05585 0.0
C2973 C 0.39333 0.42987 0.05763 0.0
C2974 C 0.39579 0.48828 0.02072 0.0
C2975 C 0.43557 0.43676 0.0667 0.0
C2976 C 0.46877 0.48532 0.01713 0.0
C2977 C 0.47983 0.50323 0.03438 0.0
C2978 C 0.44827 0.47166 0.0203 0.0
C2979 C 0.43795 0.47661 0.04081 0.0
C2980 C 0.44869 0.4953 0.05789 0.0
C2981 C 0.46961 0.50826 0.05458 0.0
C2982 C 0.43783 0.45173 0.00181 0.0
C2983 C 0.43812 0.50153 0.07973 0.0
H2984 H 0.35912 0.45903 0.02881 0.0
H2985 H 0.3925 0.41501 0.06658 0.0
H2986 H 0.40589 0.50368 0.0318 0.0
H2987 H 0.40397 0.48568 0.00446 0.0
H2988 H 0.37863 0.49114 0.01532 0.0
H2989 H 0.43191 0.42055 0.0741 0.0
H2990 H 0.44721 0.43535 0.0532 0.0
H2991 H 0.44449 0.45005 0.08125 0.0
H2992 H 0.47623 0.48192 1.00111 0.0
H2993 H 0.47826 0.52196 0.06806 0.0
H2994 H 0.42116 0.45381 0.9936 0.0
H2995 H 0.43503 0.43611 0.01034 0.0
H2996 H 0.44854 0.44954 0.9875 0.0
H2997 H 0.42186 0.50632 0.0743 0.0
H2998 H 0.4491 0.51577 0.09191 0.0
H2999 H 0.43445 0.48685 0.08962 0.0
C3000 C 0.41241 0.59235 0.78491 0.0
C3001 C 0.40352 0.57327 0.76824 0.0
C3002 C 0.40293 0.61159 0.78518 0.0
C3003 C 0.38429 0.61189 0.76816 0.0
C3004 C 0.37613 0.59318 0.75039 0.0
C3005 C 0.38566 0.57397 0.75082 0.0
C3006 C 0.41234 0.63126 0.80429 0.0
C3007 C 0.35716 0.5934 0.73116 0.0
C3008 C 0.34564 0.64881 0.79088 0.0
C3009 C 0.3537 0.669 0.78225 0.0
C3010 C 0.35461 0.62968 0.78521 0.0
C3011 C 0.37208 0.63083 0.77059 0.0
C3012 C 0.37913 0.65082 0.7605 0.0
C3013 C 0.36995 0.66976 0.76664 0.0
C3014 C 0.34652 0.6087 0.79624 0.0
C3015 C 0.3975 0.65293 0.74467 0.0
H3016 H 0.4264 0.59201 0.79822 0.0
H3017 H 0.37912 0.55948 0.73748 0.0
H3018 H 0.41606 0.64708 0.79623 0.0
H3019 H 0.39962 0.63314 0.81648 0.0
H3020 H 0.42798 0.62916 0.81493 0.0
H3021 H 0.35344 0.57797 0.71796 0.0
H3022 H 0.34168 0.59492 0.73922 0.0
H3023 H 0.36153 0.60826 0.72167 0.0
H3024 H 0.33329 0.64842 0.80323 0.0
H3025 H 0.37639 0.68555 0.7603 0.0
H3026 H 0.3604 0.60558 0.80889 0.0
H3027 H 0.34162 0.59388 0.7823 0.0
H3028 H 0.33192 0.61003 0.80598 0.0
H3029 H 0.41409 0.65809 0.75594 0.0
H3030 H 0.39602 0.66596 0.73274 0.0
H3031 H 0.39722 0.63675 0.73363 0.0
C3032 C 0.19547 0.58616 0.53627 0.0
C3033 C 0.20396 0.60703 0.54995 0.0
C3034 C 0.17239 0.57871 0.53011 0.0
C3035 C 0.1579 0.59262 0.53792 0.0
C3036 C 0.16635 0.61388 0.55134 0.0
C3037 C 0.18948 0.62087 0.55732 0.0
C3038 C 0.16347 0.55564 0.51621 0.0
C3039 C 0.15097 0.62857 0.5605 0.0
C3040 C 0.0979 0.57453 0.51052 0.0
C3041 C 0.08909 0.56174 0.52736 0.0
C3042 C 0.12034 0.58565 0.51408 0.0
C3043 C 0.13394 0.58342 0.53497 0.0
C3044 C 0.12502 0.57083 0.55235 0.0
C3045 C 0.10266 0.55996 0.54814 0.0
C3046 C 0.12957 0.59927 0.4954 0.0
C3047 C 0.1387 0.56794 0.57518 0.0
H3048 H 0.20682 0.57561 0.53052 0.0
H3049 H 0.19619 0.63709 0.56789 0.0
H3050 H 0.15404 0.54455 0.52754 0.0
H3051 H 0.15155 0.55671 0.50043 0.0
H3052 H 0.17712 0.54766 0.51011 0.0
H3053 H 0.16029 0.64581 0.5679 0.0
H3054 H 0.13766 0.62978 0.54611 0.0
H3055 H 0.14249 0.62085 0.57478 0.0
H3056 H 0.08754 0.57533 0.49439 0.0
H3057 H 0.09592 0.55014 0.56131 0.0
H3058 H 0.14239 0.5914 0.48729 0.0
H3059 H 0.13806 0.61649 0.50371 0.0
H3060 H 0.1162 0.60054 0.48103 0.0
H3061 H 0.14055 0.55016 0.57443 0.0
H3062 H 0.12949 0.57135 0.59051 0.0
H3063 H 0.15568 0.57893 0.57879 0.0
C3064 C 0.73682 0.99689 0.75126 0.0
C3065 C 0.7145 0.99744 0.74372 0.0
C3066 C 0.74243 0.97683 0.75667 0.0
C3067 C 0.72523 0.95718 0.7537 0.0
C3068 C 0.70325 0.95721 0.74326 0.0
C3069 C 0.69804 0.9776 0.73852 0.0
C3070 C 0.76624 0.97716 0.76755 0.0
C3071 C 0.6848 0.93634 0.73933 0.0
C3072 C 0.75161 0.90939 0.76742 0.0
C3073 C 0.75062 0.91071 0.79204 0.0
C3074 C 0.74078 0.92269 0.75372 0.0
C3075 C 0.72961 0.93801 0.76525 0.0
C3076 C 0.72669 0.93785 0.78954 0.0
C3077 C 0.73706 0.92383 0.80263 0.0
C3078 C 0.74309 0.9219 0.72753 0.0
C3079 C 0.71502 0.95428 0.80249 0.0
H3080 H 0.74941 0.01239 0.75498 0.0
H3081 H 0.68078 0.97825 0.7322 0.0
H3082 H 0.76623 0.97115 0.78525 0.0
H3083 H 0.77384 0.96567 0.75605 0.0
H3084 H 0.77712 0.99424 0.76982 0.0
H3085 H 0.6704 0.93809 0.72646 0.0
H3086 H 0.69122 0.92134 0.73273 0.0
H3087 H 0.67844 0.93333 0.75646 0.0
H3088 H 0.76197 0.89909 0.75907 0.0
H3089 H 0.73567 0.92413 0.82147 0.0
H3090 H 0.75657 0.93603 0.72484 0.0
H3091 H 0.72725 0.92378 0.71713 0.0
H3092 H 0.74754 0.90593 0.72031 0.0
H3093 H 0.72619 0.97122 0.80552 0.0
H3094 H 0.7111 0.94944 0.82005 0.0
H3095 H 0.69916 0.95557 0.7918 0.0
C3096 C 0.73336 0.91139 0.53772 0.0
C3097 C 0.75465 0.92398 0.54775 0.0
C3098 C 0.71414 0.92086 0.53726 0.0
C3099 C 0.71616 0.94359 0.54696 0.0
C3100 C 0.7374 0.95613 0.5581 0.0
C3101 C 0.75644 0.94619 0.55832 0.0
C3102 C 0.69176 0.90672 0.52563 0.0
C3103 C 0.74001 0.98014 0.56937 0.0
C3104 C 0.67246 0.97113 0.51611 0.0
C3105 C 0.65621 0.96975 0.53172 0.0
C3106 C 0.69265 0.96388 0.52162 0.0
C3107 C 0.69651 0.95467 0.54312 0.0
C3108 C 0.68052 0.95422 0.55948 0.0
C3109 C 0.66055 0.9619 0.5536 0.0
C3110 C 0.70934 0.96498 0.50383 0.0
C3111 C 0.68358 0.94424 0.5824 0.0
H3112 H 0.73173 0.8941 0.52982 0.0
H3113 H 0.77275 0.95589 0.56651 0.0
H3114 H 0.67865 0.90779 0.53752 0.0
H3115 H 0.68637 0.91323 0.50897 0.0
H3116 H 0.69256 0.88875 0.5212 0.0
H3117 H 0.75747 0.98741 0.57803 0.0
H3118 H 0.73544 0.99066 0.55565 0.0
H3119 H 0.72833 0.98102 0.58291 0.0
H3120 H 0.66902 0.97726 0.49921 0.0
H3121 H 0.64781 0.96067 0.56554 0.0
H3122 H 0.71025 0.94768 0.49636 0.0
H3123 H 0.72641 0.97336 0.51273 0.0
H3124 H 0.70469 0.9742 0.4889 0.0
H3125 H 0.67734 0.92576 0.57874 0.0
H3126 H 0.67381 0.95103 0.59581 0.0
H3127 H 0.70154 0.94743 0.59013 0.0
C3128 C 0.3696 0.44502 0.75777 0.0
C3129 C 0.39283 0.45035 0.7655 0.0
C3130 C 0.35663 0.4236 0.75923 0.0
C3131 C 0.36694 0.40728 0.76941 0.0
C3132 C 0.39039 0.41267 0.77744 0.0
C3133 C 0.40307 0.43395 0.77502 0.0
C3134 C 0.33183 0.41846 0.74998 0.0
C3135 C 0.40212 0.39605 0.78878 0.0
C3136 C 0.32775 0.36108 0.79384 0.0
C3137 C 0.3257 0.3426 0.77627 0.0
C3138 C 0.3416 0.38196 0.79215 0.0
C3139 C 0.35308 0.38476 0.77198 0.0
C3140 C 0.35094 0.36614 0.75413 0.0
C3141 C 0.33755 0.34524 0.75666 0.0
C3142 C 0.34426 0.40094 0.8122 0.0
C3143 C 0.36239 0.36837 0.73207 0.0
H3144 H 0.36156 0.45758 0.75039 0.0
H3145 H 0.42098 0.43798 0.78121 0.0
H3146 H 0.32747 0.40259 0.73746 0.0
H3147 H 0.32184 0.416 0.76498 0.0
H3148 H 0.32674 0.43215 0.7407 0.0
H3149 H 0.41956 0.40387 0.7971 0.0
H3150 H 0.39257 0.38874 0.80258 0.0
H3151 H 0.40292 0.38199 0.77507 0.0
H3152 H 0.31905 0.359 0.80931 0.0
H3153 H 0.33607 0.33099 0.74307 0.0
H3154 H 0.3377 0.41517 0.80558 0.0
H3155 H 0.36237 0.40723 0.81897 0.0
H3156 H 0.33524 0.39571 0.82726 0.0
H3157 H 0.35487 0.37981 0.72128 0.0
H3158 H 0.36067 0.35193 0.72087 0.0
H3159 H 0.38055 0.37594 0.7369 0.0
C3160 C 0.22157 0.63109 0.28746 0.0
C3161 C 0.23005 0.62184 0.26774 0.0
C3162 C 0.22698 0.65418 0.29466 0.0
C3163 C 0.24133 0.66781 0.28183 0.0
C3164 C 0.25016 0.65838 0.26198 0.0
C3165 C 0.24411 0.63525 0.25496 0.0
C3166 C 0.21673 0.66404 0.31529 0.0
C3167 C 0.26558 0.67274 0.24799 0.0
C3168 C 0.24244 0.7287 0.27962 0.0
C3169 C 0.26358 0.7378 0.29249 0.0
C3170 C 0.23401 0.70567 0.27723 0.0
C3171 C 0.24697 0.69208 0.28867 0.0
C3172 C 0.26722 0.7017 0.30377 0.0
C3173 C 0.27562 0.7247 0.30514 0.0
C3174 C 0.2126 0.69577 0.26054 0.0
C3175 C 0.28086 0.68749 0.31678 0.0
H3176 H 0.21003 0.62032 0.29663 0.0
H3177 H 0.25003 0.62768 0.23938 0.0
H3178 H 0.22994 0.6755 0.32826 0.0
H3179 H 0.2047 0.67418 0.30867 0.0
H3180 H 0.2076 0.65083 0.32468 0.0
H3181 H 0.27053 0.66267 0.23277 0.0
H3182 H 0.25722 0.68577 0.241 0.0
H3183 H 0.28108 0.68163 0.25982 0.0
H3184 H 0.23349 0.73925 0.26971 0.0
H3185 H 0.29198 0.73227 0.3151 0.0
H3186 H 0.20137 0.68313 0.26872 0.0
H3187 H 0.21681 0.68704 0.24402 0.0
H3188 H 0.20327 0.70887 0.2555 0.0
H3189 H 0.26996 0.6761 0.32665 0.0
H3190 H 0.29502 0.69789 0.32953 0.0
H3191 H 0.28785 0.6768 0.30373 0.0
C3192 C 0.52726 0.71436 0.50273 0.0
C3193 C 0.51277 0.71351 0.48138 0.0
C3194 C 0.53255 0.69456 0.51149 0.0
C3195 C 0.52322 0.67265 0.49897 0.0
C3196 C 0.5084 0.67171 0.47754 0.0
C3197 C 0.50354 0.69177 0.4691 0.0
C3198 C 0.54859 0.69723 0.53413 0.0
C3199 C 0.49745 0.64927 0.46339 0.0
C3200 C 0.55153 0.62095 0.50832 0.0
C3201 C 0.53843 0.60905 0.52362 0.0
C3202 C 0.54715 0.6415 0.5007 0.0
C3203 C 0.52888 0.6509 0.50804 0.0
C3204 C 0.51571 0.63894 0.52365 0.0
C3205 C 0.52056 0.6185 0.5311 0.0
C3206 C 0.56205 0.65304 0.48435 0.0
C3207 C 0.49623 0.6477 0.53254 0.0
H3208 H 0.53488 0.7307 0.51258 0.0
H3209 H 0.49239 0.69036 0.45263 0.0
H3210 H 0.54124 0.68612 0.54669 0.0
H3211 H 0.56436 0.69204 0.53001 0.0
H3212 H 0.55289 0.71485 0.54311 0.0
H3213 H 0.48714 0.65103 0.44666 0.0
H3214 H 0.51047 0.63968 0.45886 0.0
H3215 H 0.48644 0.63922 0.47432 0.0
H3216 H 0.56515 0.61397 0.50192 0.0
H3217 H 0.51001 0.60964 0.54263 0.0
H3218 H 0.56952 0.67059 0.49242 0.0
H3219 H 0.55186 0.65387 0.46725 0.0
H3220 H 0.57587 0.64423 0.48059 0.0
H3221 H 0.50259 0.66417 0.54377 0.0
H3222 H 0.48662 0.63601 0.54321 0.0
H3223 H 0.48459 0.65051 0.51732 0.0
C3224 C 0.63856 0.28769 0.66281 0.0
C3225 C 0.62982 0.30715 0.66077 0.0
C3226 C 0.65738 0.28773 0.67973 0.0
C3227 C 0.66815 0.30783 0.69481 0.0
C3228 C 0.65958 0.32764 0.69236 0.0
C3229 C 0.6404 0.32696 0.67573 0.0
C3230 C 0.66537 0.26604 0.68187 0.0
C3231 C 0.67065 0.3496 0.70745 0.0
C3232 C 0.70372 0.30228 0.75321 0.0
C3233 C 0.72596 0.30748 0.74785 0.0
C3234 C 0.68498 0.30302 0.73655 0.0
C3235 C 0.68814 0.30812 0.71326 0.0
C3236 C 0.71048 0.31339 0.70766 0.0
C3237 C 0.72895 0.31355 0.72504 0.0
C3238 C 0.66168 0.29807 0.74385 0.0
C3239 C 0.71493 0.31815 0.68298 0.0
H3240 H 0.63017 0.27219 0.6517 0.0
H3241 H 0.63363 0.34201 0.6744 0.0
H3242 H 0.68374 0.26859 0.68101 0.0
H3243 H 0.66241 0.26058 0.69941 0.0
H3244 H 0.6565 0.25233 0.66768 0.0
H3245 H 0.6617 0.36337 0.70395 0.0
H3246 H 0.67126 0.34757 0.72661 0.0
H3247 H 0.68829 0.35464 0.70382 0.0
H3248 H 0.70074 0.29712 0.77029 0.0
H3249 H 0.74585 0.31786 0.72039 0.0
H3250 H 0.65163 0.28249 0.73306 0.0
H3251 H 0.65287 0.31193 0.7404 0.0
H3252 H 0.66205 0.29593 0.763 0.0
H3253 H 0.7086 0.30259 0.67023 0.0
H3254 H 0.73315 0.32397 0.68193 0.0
H3255 H 0.70576 0.33107 0.67715 0.0
C3256 C 0.99776 0.34976 0.99767 0.0
C3257 C 0.01294 0.34294 0.98283 0.0
C3258 C 0.99875 0.37288 0.0059 0.0
C3259 C 0.01557 0.39007 0.99964 0.0
C3260 C 0.03131 0.38316 0.98523 0.0
C3261 C 0.02966 0.36002 0.97689 0.0
C3262 C 0.98138 0.37895 0.02094 0.0
C3263 C 0.05008 0.40033 0.97859 0.0
C3264 C 1.00768 0.45188 1.00018 0.0
C3265 C 0.02106 0.46299 0.02131 0.0
C3266 C 1.00542 0.42836 0.99325 0.0
C3267 C 0.01667 0.41515 0.00772 0.0
C3268 C 0.02977 0.42636 0.02939 0.0
C3269 C 0.03183 0.4499 0.0358 0.0
C3270 C 0.99129 0.41767 0.97004 0.0
C3271 C 0.04184 0.41349 0.04588 0.0
H3272 H 0.98462 0.33701 0.00237 0.0
H3273 H 0.04165 0.35527 0.96561 0.0
H3274 H 0.98974 0.38963 0.03769 0.0
H3275 H 0.97089 0.38891 0.01123 0.0
H3276 H 0.97017 0.36385 0.02548 0.0
H3277 H 0.06062 0.39259 0.96676 0.0
H3278 H 0.04305 0.41313 0.9695 0.0
H3279 H 0.06103 0.40929 0.99496 0.0
H3280 H 0.9993 0.46172 0.98877 0.0
H3281 H 0.04216 0.4582 0.05219 0.0
H3282 H 0.97823 0.40333 0.97315 0.0
H3283 H 1.00204 0.41086 0.95779 0.0
H3284 H 0.98289 0.42977 0.96117 0.0
H3285 H 0.02933 0.40117 0.05304 0.0
H3286 H 0.05269 0.42471 0.0611 0.0
H3287 H 0.05243 0.40387 0.03602 0.0
C3288 C 0.99393 0.7754 0.14786 0.0
C3289 C 0.01315 0.79235 0.15529 0.0
C3290 C 0.9761 0.77224 0.1617 0.0
C3291 C 0.97718 0.78686 0.1831 0.0
C3292 C 0.99611 0.80468 0.19003 0.0
C3293 C 0.01402 0.80696 0.17629 0.0
C3294 C 0.95643 0.75279 0.15379 0.0
C3295 C 0.99775 0.82099 0.21233 0.0
C3296 C 0.92146 0.78224 0.20892 0.0
C3297 C 0.92401 0.76725 0.22551 0.0
C3298 C 0.93914 0.78994 0.19587 0.0
C3299 C 0.95957 0.78211 0.19925 0.0
C3300 C 0.96265 0.76826 0.2172 0.0
C3301 C 0.945 0.7613 0.23027 0.0
C3302 C 0.9355 0.80545 0.17759 0.0
C3303 C 0.98388 0.75913 0.22131 0.0
H3304 H 0.99317 0.76411 0.13162 0.0
H3305 H 0.02875 0.82027 0.18198 0.0
H3306 H 0.95407 0.74198 0.16815 0.0
H3307 H 0.94076 0.75922 0.15019 0.0
H3308 H 0.95871 0.74225 0.13744 0.0
H3309 H 0.01157 0.83592 0.21315 0.0
H3310 H 0.98167 0.82677 0.21336 0.0
H3311 H 1.00095 0.81248 0.22821 0.0
H3312 H 0.90528 0.78687 0.20513 0.0
H3313 H 0.9471 0.74989 0.24327 0.0
H3314 H 0.93268 0.79584 0.15949 0.0
H3315 H 0.95062 0.81905 0.1785 0.0
H3316 H 0.92068 0.81314 0.18004 0.0
H3317 H 0.98445 0.74655 0.20592 0.0
H3318 H 0.98471 0.75087 0.23773 0.0
H3319 H 0.99906 0.77268 0.22266 0.0
C3320 C 0.54635 0.3155 0.14215 0.0
C3321 C 0.53171 0.31425 0.15949 0.0
C3322 C 0.54957 0.33384 0.12914 0.0
C3323 C 0.53724 0.35107 0.13296 0.0
C3324 C 0.52182 0.3495 0.14994 0.0
C3325 C 0.51952 0.33127 0.16332 0.0
C3326 C 0.5667 0.33509 0.11182 0.0
C3327 C 0.50759 0.3669 0.15374 0.0
C3328 C 0.5668 0.40687 0.11709 0.0
C3329 C 0.55762 0.40591 0.09331 0.0
C3330 C 0.55918 0.38986 0.13073 0.0
C3331 C 0.54192 0.37135 0.12032 0.0
C3332 C 0.53139 0.37117 0.09682 0.0
C3333 C 0.53946 0.38847 0.0835 0.0
C3334 C 0.57087 0.39086 0.15568 0.0
C3335 C 0.51274 0.35195 0.08513 0.0
H3336 H 0.55584 0.30237 0.13922 0.0
H3337 H 0.5079 0.3301 0.17646 0.0
H3338 H 0.55862 0.33634 0.09376 0.0
H3339 H 0.58006 0.35044 0.1173 0.0
H3340 H 0.57474 0.32022 0.11077 0.0
H3341 H 0.4977 0.36425 0.16882 0.0
H3342 H 0.51826 0.38407 0.15714 0.0
H3343 H 0.49574 0.36613 0.13732 0.0
H3344 H 0.58091 0.42034 0.12459 0.0
H3345 H 0.53251 0.3876 0.06501 0.0
H3346 H 0.58063 0.37729 0.15623 0.0
H3347 H 0.55835 0.38802 0.16835 0.0
H3348 H 0.58257 0.40725 0.16186 0.0
H3349 H 0.52004 0.33727 0.07938 0.0
H3350 H 0.50327 0.35647 0.06922 0.0
H3351 H 0.50081 0.34669 0.09783 0.0
C3352 C 0.96743 0.32208 0.34713 0.0
C3353 C 0.98303 0.31643 0.33218 0.0
C3354 C 0.94453 0.32122 0.33843 0.0
C3355 C 0.93612 0.31366 0.31407 0.0
C3356 C 0.95177 0.30786 0.2988 0.0
C3357 C 0.97491 0.30969 0.30786 0.0
C3358 C 0.92922 0.32844 0.35552 0.0
C3359 C 0.94404 0.2995 0.2728 0.0
C3360 C 0.8717 0.28965 0.30084 0.0
C3361 C 0.86284 0.30697 0.29114 0.0
C3362 C 0.89517 0.29133 0.30744 0.0
C3363 C 0.91094 0.3111 0.30508 0.0
C3364 C 0.90225 0.32858 0.29506 0.0
C3365 C 0.87866 0.32619 0.28808 0.0
C3366 C 0.90312 0.27166 0.31692 0.0
C3367 C 0.91774 0.35027 0.29229 0.0
H3368 H 0.97324 0.32751 0.36589 0.0
H3369 H 0.98651 0.30521 0.29596 0.0
H3370 H 0.92024 0.34087 0.34814 0.0
H3371 H 0.9163 0.31371 0.35793 0.0
H3372 H 0.93857 0.33602 0.37324 0.0
H3373 H 0.9573 0.29313 0.26382 0.0
H3374 H 0.92883 0.28583 0.2707 0.0
H3375 H 0.93936 0.31338 0.26361 0.0
H3376 H 0.86029 0.27442 0.3032 0.0
H3377 H 0.87265 0.33954 0.28022 0.0
H3378 H 0.9107 0.27652 0.33579 0.0
H3379 H 0.91638 0.26683 0.30676 0.0
H3380 H 0.88923 0.25676 0.31583 0.0
H3381 H 0.9223 0.36083 0.30989 0.0
H3382 H 0.90965 0.35992 0.27967 0.0
H3383 H 0.93357 0.34716 0.28598 0.0
C3384 C 0.03844 0.68721 0.64956 0.0
C3385 C 0.01933 0.69672 0.6509 0.0
C3386 C 0.03828 0.66832 0.63273 0.0
C3387 C 0.01828 0.65802 0.61721 0.0
C3388 C 0.99874 0.66723 0.61906 0.0
C3389 C 0.99963 0.68665 0.63545 0.0
C3390 C 0.05973 0.65973 0.63119 0.0
C3391 C 0.9768 0.65649 0.60375 0.0
C3392 C 0.02421 0.62222 0.55913 0.0
C3393 C 0.0184 0.59999 0.56429 0.0
C3394 C 0.02346 0.641 0.57571 0.0
C3395 C 0.0179 0.63793 0.59885 0.0
C3396 C 0.01232 0.61561 0.60442 0.0
C3397 C 0.01223 0.5971 0.58712 0.0
C3398 C 0.029 0.66427 0.56849 0.0
C3399 C 1.00711 0.61123 0.62899 0.0
H3400 H 0.05381 0.69505 0.6612 0.0
H3401 H 0.98476 0.6938 0.63644 0.0
H3402 H 0.05671 0.64142 0.63237 0.0
H3403 H 0.06553 0.66221 0.61368 0.0
H3404 H 0.07342 0.6685 0.64545 0.0
H3405 H 0.96316 0.6657 0.60703 0.0
H3406 H 0.97906 0.65579 0.58464 0.0
H3407 H 0.97141 0.63891 0.60737 0.0
H3408 H 0.03001 0.62519 0.54237 0.0
H3409 H 1.00794 0.58024 0.59186 0.0
H3410 H 0.04446 0.67413 0.57968 0.0
H3411 H 0.01517 0.67327 0.5715 0.0
H3412 H 0.03163 0.66389 0.54948 0.0
H3413 H 0.02261 0.61715 0.64194 0.0
H3414 H 1.0008 0.59308 0.62992 0.0
H3415 H 0.9944 0.62076 0.63467 0.0
C3416 C 0.63136 0.80879 0.84923 0.0
C3417 C 0.61231 0.81076 0.83375 0.0
C3418 C 0.65112 0.80321 0.84083 0.0
C3419 C 0.65287 0.79981 0.81601 0.0
C3420 C 0.63369 0.80181 0.80022 0.0
C3421 C 0.61387 0.80691 0.80912 0.0
C3422 C 0.67025 0.80077 0.85879 0.0
C3423 C 0.634 0.79848 0.77366 0.0
C3424 C 0.71416 0.80812 0.7989 0.0
C3425 C 0.71727 0.7861 0.79224 0.0
C3426 C 0.69339 0.81269 0.80555 0.0
C3427 C 0.67483 0.7949 0.80689 0.0
C3428 C 0.67789 0.77254 0.80017 0.0
C3429 C 0.69862 0.76851 0.79268 0.0
C3430 C 0.69127 0.83684 0.81095 0.0
C3431 C 0.65955 0.7526 0.80179 0.0
H3432 H 0.63076 0.81136 0.86825 0.0
H3433 H 0.59955 0.80805 0.79665 0.0
H3434 H 0.67517 0.7844 0.85428 0.0
H3435 H 0.68517 0.81421 0.85825 0.0
H3436 H 0.66583 0.80183 0.87723 0.0
H3437 H 0.61973 0.80402 0.76384 0.0
H3438 H 0.65003 0.80787 0.76899 0.0
H3439 H 0.63285 0.7804 0.76751 0.0
H3440 H 0.72804 0.82205 0.79851 0.0
H3441 H 0.70048 0.75137 0.78792 0.0
H3442 H 0.68933 0.84061 0.83 0.0
H3443 H 0.67598 0.83969 0.80028 0.0
H3444 H 0.70615 0.84882 0.80705 0.0
H3445 H 0.65876 0.75054 0.82082 0.0
H3446 H 0.66264 0.73679 0.7924 0.0
H3447 H 0.64288 0.75525 0.79427 0.0
C3448 C 0.47629 0.51175 0.69628 0.0
C3449 C 0.46351 0.5262 0.70625 0.0
C3450 C 0.48615 0.51596 0.6755 0.0
C3451 C 0.48425 0.5358 0.66513 0.0
C3452 C 0.47196 0.55083 0.67575 0.0
C3453 C 0.46122 0.54549 0.69566 0.0
C3454 C 0.49854 0.49902 0.66474 0.0
C3455 C 0.4703 0.5728 0.66648 0.0
C3456 C 0.53018 0.55098 0.62586 0.0
C3457 C 0.51823 0.54754 0.60282 0.0
C3458 C 0.51916 0.54942 0.64627 0.0
C3459 C 0.49566 0.54106 0.64372 0.0
C3460 C 0.48334 0.53714 0.62058 0.0
C3461 C 0.49455 0.54208 0.60078 0.0
C3462 C 0.53285 0.55666 0.67053 0.0
C3463 C 0.45867 0.52619 0.61642 0.0
H3464 H 0.47806 0.49679 0.70434 0.0
H3465 H 0.45148 0.55683 0.70339 0.0
H3466 H 0.496 0.49736 0.64499 0.0
H3467 H 0.51682 0.50457 0.67087 0.0
H3468 H 0.493 0.48219 0.67032 0.0
H3469 H 0.4667 0.58521 0.68052 0.0
H3470 H 0.48603 0.5803 0.6597 0.0
H3471 H 0.4563 0.56986 0.65166 0.0
H3472 H 0.54814 0.55482 0.62839 0.0
H3473 H 0.48476 0.53982 0.58335 0.0
H3474 H 0.53641 0.54172 0.67842 0.0
H3475 H 0.52348 0.56561 0.68275 0.0
H3476 H 0.54921 0.56795 0.66946 0.0
H3477 H 0.45638 0.50948 0.62288 0.0
H3478 H 0.45161 0.52379 0.5973 0.0
H3479 H 0.44883 0.53635 0.62663 0.0
C3480 C 0.78138 0.1643 0.98629 0.0
C3481 C 0.76496 0.16233 0.00165 0.0
C3482 C 0.7791 0.17609 0.96674 0.0
C3483 C 0.75975 0.18542 0.96264 0.0
C3484 C 0.74236 0.18181 0.97718 0.0
C3485 C 0.74536 0.17051 0.99678 0.0
C3486 C 0.79806 0.17988 0.95174 0.0
C3487 C 0.72112 0.19097 0.97288 0.0
C3488 C 0.75539 0.23907 0.9391 0.0
C3489 C 0.74185 0.23073 0.9175 0.0
C3490 C 0.76399 0.22437 0.95292 0.0
C3491 C 0.75817 0.20098 0.94499 0.0
C3492 C 0.74608 0.19278 0.92221 0.0
C3493 C 0.73812 0.20793 0.90853 0.0
C3494 C 0.77752 0.23363 0.97691 0.0
C3495 C 0.73982 0.16794 0.91326 0.0
H3496 H 0.79648 0.15775 0.9903 0.0
H3497 H 0.73253 0.16841 0.0086 0.0
H3498 H 0.79171 0.18021 0.93283 0.0
H3499 H 0.80929 0.19639 0.95848 0.0
H3500 H 0.80827 0.16669 0.95275 0.0
H3501 H 0.70848 0.1848 0.98456 0.0
H3502 H 0.7253 0.20961 0.9763 0.0
H3503 H 0.71333 0.18612 0.95406 0.0
H3504 H 0.75878 0.25695 0.94536 0.0
H3505 H 0.72812 0.20188 0.89133 0.0
H3506 H 0.79179 0.22504 0.98027 0.0
H3507 H 0.76662 0.23055 0.99109 0.0
H3508 H 0.78422 0.25202 0.97832 0.0
H3509 H 0.75464 0.16002 0.91615 0.0
H3510 H 0.73306 0.16465 0.89403 0.0
H3511 H 0.7268 0.15966 0.92342 0.0
C3512 C 0.15827 0.5483 0.16784 0.0
C3513 C 0.15265 0.54637 0.19073 0.0
C3514 C 0.14136 0.54318 0.14839 0.0
C3515 C 0.11887 0.53575 0.15246 0.0
C3516 C 0.11356 0.53174 0.17528 0.0
C3517 C 0.13062 0.53739 0.19432 0.0
C3518 C 0.14725 0.54732 0.12396 0.0
C3519 C 0.08971 0.52289 0.17977 0.0
C3520 C 0.07326 0.55505 0.11613 0.0
C3521 C 0.06514 0.53607 0.09946 0.0
C3522 C 0.09148 0.55533 0.13312 0.0
C3523 C 0.10051 0.53568 0.13394 0.0
C3524 C 0.09138 0.51601 0.11794 0.0
C3525 C 0.07391 0.51659 0.10044 0.0
C3526 C 0.10131 0.5767 0.14987 0.0
C3527 C 0.10021 0.49459 0.11894 0.0
H3528 H 0.17555 0.55483 0.16533 0.0
H3529 H 0.12665 0.53516 0.21213 0.0
H3530 H 0.13871 0.53296 0.11042 0.0
H3531 H 0.14125 0.56245 0.11898 0.0
H3532 H 0.16568 0.55004 0.12331 0.0
H3533 H 0.08889 0.51891 0.19826 0.0
H3534 H 0.0793 0.5356 0.17663 0.0
H3535 H 0.08207 0.50749 0.1672 0.0
H3536 H 0.0662 0.56997 0.11496 0.0
H3537 H 0.06705 0.5018 0.08755 0.0
H3538 H 0.1195 0.58206 0.14846 0.0
H3539 H 0.09982 0.57367 0.16854 0.0
H3540 H 0.0928 0.5907 0.14604 0.0
H3541 H 0.11623 0.4963 0.11114 0.0
H3542 H 0.08816 0.47981 0.10873 0.0
H3543 H 0.10372 0.49123 0.13758 0.0
C3544 C 0.82295 0.84688 0.47225 0.0
C3545 C 0.80495 0.85641 0.47869 0.0
C3546 C 0.8228 0.83665 0.44882 0.0
C3547 C 0.80381 0.83511 0.43156 0.0
C3548 C 0.78524 0.84406 0.43827 0.0
C3549 C 0.78623 0.85498 0.46158 0.0
C3550 C 0.84334 0.82823 0.44233 0.0
C3551 C 0.76422 0.84193 0.42087 0.0
C3552 C 0.80931 0.82989 0.36513 0.0
C3553 C 0.80238 0.80667 0.35805 0.0
C3554 C 0.8105 0.83921 0.38903 0.0
C3555 C 0.80377 0.82509 0.40627 0.0
C3556 C 0.79674 0.80155 0.39915 0.0
C3557 C 0.79662 0.79258 0.37522 0.0
C3558 C 0.81869 0.86426 0.39576 0.0
C3559 C 0.7888 0.7859 0.41665 0.0
H3560 H 0.83756 0.84817 0.48536 0.0
H3561 H 0.77219 0.86217 0.46654 0.0
H3562 H 0.83865 0.81025 0.43467 0.0
H3563 H 0.85061 0.83771 0.42846 0.0
H3564 H 0.85651 0.83014 0.45789 0.0
H3565 H 0.75147 0.85024 0.42862 0.0
H3566 H 0.76839 0.84941 0.40461 0.0
H3567 H 0.75661 0.82387 0.41525 0.0
H3568 H 0.8139 0.84081 0.35189 0.0
H3569 H 0.79107 0.77464 0.36973 0.0
H3570 H 0.83252 0.8677 0.41083 0.0
H3571 H 0.80484 0.87192 0.40176 0.0
H3572 H 0.82485 0.87265 0.38067 0.0
H3573 H 0.80311 0.78527 0.43014 0.0
H3574 H 0.78152 0.76853 0.40782 0.0
H3575 H 0.77591 0.79222 0.42627 0.0
C3576 C 0.48932 0.52546 0.84209 0.0
C3577 C 0.46595 0.52387 0.83774 0.0
C3578 C 0.50033 0.5264 0.86538 0.0
C3579 C 0.48768 0.52563 0.88487 0.0
C3580 C 0.46413 0.52434 0.88056 0.0
C3581 C 0.4536 0.52349 0.85715 0.0
C3582 C 0.52545 0.52785 0.86904 0.0
C3583 C 0.44998 0.52374 0.90074 0.0
C3584 C 0.50997 0.50647 0.94297 0.0
C3585 C 0.51672 0.52685 0.9581 0.0
C3586 C 0.50095 0.50582 0.91899 0.0
C3587 C 0.49889 0.52612 0.90978 0.0
C3588 C 0.50648 0.54683 0.92486 0.0
C3589 C 0.51505 0.5469 0.94882 0.0
C3590 C 0.49299 0.48335 0.90369 0.0
C3591 C 0.50533 0.56895 0.91576 0.0
H3592 H 0.49902 0.52573 0.82723 0.0
H3593 H 0.43555 0.52235 0.85404 0.0
H3594 H 0.53364 0.54136 0.88368 0.0
H3595 H 0.52901 0.51178 0.87428 0.0
H3596 H 0.53322 0.53114 0.85268 0.0
H3597 H 0.43177 0.52179 0.89438 0.0
H3598 H 0.4523 0.50962 0.91085 0.0
H3599 H 0.45551 0.53951 0.91331 0.0
H3600 H 0.51095 0.49097 0.95011 0.0
H3601 H 0.52069 0.56274 0.96034 0.0
H3602 H 0.50137 0.48312 0.88736 0.0
H3603 H 0.47461 0.48061 0.89795 0.0
H3604 H 0.49643 0.46917 0.9132 0.0
H3605 H 0.51317 0.56996 0.89912 0.0
H3606 H 0.51399 0.58358 0.92895 0.0
H3607 H 0.48748 0.57018 0.91147 0.0
C3608 C 0.80062 0.19098 0.13044 0.0
C3609 C 0.78256 0.17261 0.12701 0.0
C3610 C 0.80272 0.20772 0.1495 0.0
C3611 C 0.78635 0.20564 0.16529 0.0
C3612 C 0.76891 0.18637 0.16282 0.0
C3613 C 0.76724 0.16981 0.1435 0.0
C3614 C 0.82168 0.22813 0.15193 0.0
C3615 C 0.75125 0.18407 0.17955 0.0
C3616 C 0.80312 0.24695 0.22039 0.0
C3617 C 0.791 0.26325 0.21487 0.0
C3618 C 0.80046 0.2271 0.20502 0.0
C3619 C 0.78656 0.22462 0.1831 0.0
C3620 C 0.77478 0.24147 0.17707 0.0
C3621 C 0.77694 0.26066 0.19336 0.0
C3622 C 0.81288 0.20912 0.21187 0.0
C3623 C 0.76108 0.23987 0.15298 0.0
H3624 H 0.81253 0.1927 0.1176 0.0
H3625 H 0.75322 0.1555 0.14047 0.0
H3626 H 0.81483 0.24371 0.15226 0.0
H3627 H 0.83277 0.22936 0.16896 0.0
H3628 H 0.83212 0.22751 0.13715 0.0
H3629 H 0.74051 0.16691 0.17689 0.0
H3630 H 0.75928 0.18804 0.19835 0.0
H3631 H 0.74026 0.1963 0.17653 0.0
H3632 H 0.81521 0.25014 0.23632 0.0
H3633 H 0.76815 0.27386 0.18908 0.0
H3634 H 0.82415 0.20564 0.19855 0.0
H3635 H 0.80063 0.19323 0.21218 0.0
H3636 H 0.82317 0.21401 0.22958 0.0
H3637 H 0.77248 0.24072 0.13903 0.0
H3638 H 0.75165 0.25367 0.15195 0.0
H3639 H 0.74895 0.22354 0.14879 0.0
C3640 C 0.16765 0.57243 0.32835 0.0
C3641 C 0.15966 0.55717 0.30775 0.0
C3642 C 0.1534 0.57602 0.34533 0.0
C3643 C 0.13093 0.56363 0.34168 0.0
C3644 C 0.12334 0.54699 0.32176 0.0
C3645 C 0.1378 0.54412 0.30481 0.0
C3646 C 0.16198 0.59397 0.36644 0.0
C3647 C 0.0996 0.53321 0.31764 0.0
C3648 C 0.10182 0.57041 0.39603 0.0
C3649 C 0.09087 0.58801 0.39117 0.0
C3650 C 0.1135 0.56092 0.37917 0.0
C3651 C 0.11494 0.56987 0.35744 0.0
C3652 C 0.103 0.58675 0.3519 0.0
C3653 C 0.09084 0.5954 0.36876 0.0
C3654 C 0.12532 0.54224 0.38513 0.0
C3655 C 0.10443 0.59696 0.32897 0.0
H3656 H 0.1846 0.58248 0.33051 0.0
H3657 H 0.13176 0.53215 0.28888 0.0
H3658 H 0.15157 0.60702 0.36639 0.0
H3659 H 0.16052 0.58652 0.38324 0.0
H3660 H 0.17983 0.60228 0.36641 0.0
H3661 H 0.09748 0.5188 0.30335 0.0
H3662 H 0.09489 0.52671 0.33424 0.0
H3663 H 0.08768 0.54399 0.3124 0.0
H3664 H 0.10219 0.56466 0.41337 0.0
H3665 H 0.08194 0.60855 0.36468 0.0
H3666 H 0.14367 0.54904 0.38956 0.0
H3667 H 0.12288 0.52895 0.36963 0.0
H3668 H 0.11917 0.53445 0.40057 0.0
H3669 H 0.12111 0.60835 0.33004 0.0
H3670 H 0.09118 0.60686 0.32562 0.0
H3671 H 0.10288 0.58383 0.31351 0.0
C3672 C 0.81651 0.86106 0.62739 0.0
C3673 C 0.79953 0.85973 0.60832 0.0
C3674 C 0.81189 0.85106 0.648 0.0
C3675 C 0.78968 0.83976 0.64983 0.0
C3676 C 0.77235 0.839 0.63088 0.0
C3677 C 0.77752 0.84879 0.61034 0.0
C3678 C 0.83092 0.85219 0.66765 0.0
C3679 C 0.74836 0.82767 0.63224 0.0
C3680 C 0.7863 0.79444 0.69114 0.0
C3681 C 0.77905 0.80458 0.71145 0.0
C3682 C 0.78834 0.80516 0.6706 0.0
C3683 C 0.78496 0.82746 0.6708 0.0
C3684 C 0.77804 0.83806 0.69133 0.0
C3685 C 0.77465 0.82633 0.71112 0.0
C3686 C 0.79453 0.79266 0.64876 0.0
C3687 C 0.77531 0.86219 0.69299 0.0
H3688 H 0.83352 0.86957 0.62603 0.0
H3689 H 0.7642 0.84807 0.59588 0.0
H3690 H 0.82623 0.85844 0.68504 0.0
H3691 H 0.83419 0.83508 0.66891 0.0
H3692 H 0.84674 0.86328 0.66458 0.0
H3693 H 0.73687 0.82824 0.6159 0.0
H3694 H 0.74755 0.80984 0.63498 0.0
H3695 H 0.74216 0.836 0.64774 0.0
H3696 H 0.79072 0.77811 0.69126 0.0
H3697 H 0.76956 0.83464 0.72679 0.0
H3698 H 0.81164 0.80066 0.64551 0.0
H3699 H 0.78267 0.79352 0.63284 0.0
H3700 H 0.79423 0.77468 0.65056 0.0
H3701 H 0.79222 0.8734 0.69564 0.0
H3702 H 0.76627 0.86674 0.70812 0.0
H3703 H 0.76612 0.8655 0.67629 0.0
C3704 C 0.72851 0.45049 0.50391 0.0
C3705 C 0.75021 0.46214 0.50211 0.0
C3706 C 0.71347 0.46149 0.51473 0.0
C3707 C 0.72055 0.48451 0.52371 0.0
C3708 C 0.74187 0.49669 0.52039 0.0
C3709 C 0.75646 0.48532 0.50934 0.0
C3710 C 0.69051 0.44832 0.5175 0.0
C3711 C 0.74995 0.52128 0.53016 0.0
C3712 C 0.68144 0.5218 0.54116 0.0
C3713 C 0.68386 0.52205 0.566 0.0
C3714 C 0.69217 0.50836 0.52693 0.0
C3715 C 0.70639 0.49576 0.53796 0.0
C3716 C 0.70883 0.49569 0.56291 0.0
C3717 C 0.69716 0.50861 0.57666 0.0
C3718 C 0.68898 0.50828 0.50023 0.0
C3719 C 0.72413 0.4824 0.57512 0.0
H3720 H 0.72373 0.43255 0.49807 0.0
H3721 H 0.7733 0.49429 0.50791 0.0
H3722 H 0.68784 0.4498 0.53651 0.0
H3723 H 0.67731 0.45537 0.50776 0.0
H3724 H 0.68819 0.4302 0.51059 0.0
H3725 H 0.76644 0.52853 0.52466 0.0
H3726 H 0.7375 0.53121 0.52411 0.0
H3727 H 0.75175 0.52321 0.54991 0.0
H3728 H 0.67146 0.53242 0.53279 0.0
H3729 H 0.69856 0.50829 0.59574 0.0
H3730 H 0.68503 0.49077 0.49101 0.0
H3731 H 0.70483 0.5169 0.49449 0.0
H3732 H 0.67529 0.51688 0.49429 0.0
H3733 H 0.71812 0.46419 0.56883 0.0
H3734 H 0.72488 0.48507 0.59481 0.0
H3735 H 0.74145 0.48724 0.5705 0.0
C3736 C 0.20986 0.12124 0.52051 0.0
C3737 C 0.20983 0.1415 0.51102 0.0
C3738 C 0.18968 0.10606 0.5215 0.0
C3739 C 0.16892 0.11106 0.51247 0.0
C3740 C 0.1688 0.13126 0.50238 0.0
C3741 C 0.18927 0.14629 0.50185 0.0
C3742 C 0.19048 0.08513 0.53316 0.0
C3743 C 0.14701 0.13757 0.49325 0.0
C3744 C 0.11525 0.06567 0.49909 0.0
C3745 C 0.10636 0.06763 0.52066 0.0
C3746 C 0.13611 0.07907 0.49649 0.0
C3747 C 0.14735 0.09593 0.51529 0.0
C3748 C 0.13827 0.09779 0.53714 0.0
C3749 C 0.11856 0.08276 0.53987 0.0
C3750 C 0.14617 0.07511 0.47374 0.0
C3751 C 0.14851 0.11586 0.55771 0.0
H3752 H 0.22566 0.11754 0.52791 0.0
H3753 H 0.18915 0.16196 0.49459 0.0
H3754 H 0.18262 0.08624 0.54982 0.0
H3755 H 0.18067 0.07007 0.52126 0.0
H3756 H 0.20797 0.08277 0.53766 0.0
H3757 H 0.14984 0.15273 0.48393 0.0
H3758 H 0.13617 0.12348 0.48082 0.0
H3759 H 0.13766 0.14096 0.50845 0.0
H3760 H 0.10602 0.0535 0.48439 0.0
H3761 H 0.1124 0.08337 0.557 0.0
H3762 H 0.16361 0.0725 0.47792 0.0
H3763 H 0.14717 0.0901 0.46423 0.0
H3764 H 0.13621 0.06023 0.46165 0.0
H3765 H 0.15075 0.10813 0.57434 0.0
H3766 H 0.13658 0.12727 0.5604 0.0
H3767 H 0.16488 0.12618 0.55517 0.0
C3768 C 0.16363 0.9807 0.78981 0.0
C3769 C 0.17356 1.00298 0.78778 0.0
C3770 C 0.17477 0.96307 0.7843 0.0
C3771 C 0.1962 0.96795 0.77652 0.0
C3772 C 0.20653 0.9905 0.77513 0.0
C3773 C 0.19511 0.00774 0.78086 0.0
C3774 C 0.16349 0.93926 0.78641 0.0
C3775 C 0.22928 0.99635 0.7666 0.0
C3776 C 0.23743 0.92899 0.77485 0.0
C3777 C 0.23514 0.92171 0.75038 0.0
C3778 C 0.22379 0.94299 0.784 0.0
C3779 C 0.20746 0.94963 0.76824 0.0
C3780 C 0.20402 0.94096 0.74376 0.0
C3781 C 0.21795 0.92708 0.73512 0.0
C3782 C 0.22785 0.95183 0.81021 0.0
C3783 C 0.18632 0.94715 0.72652 0.0
H3784 H 0.14702 0.977 0.79533 0.0
H3785 H 0.20287 0.02493 0.7793 0.0
H3786 H 0.16136 0.92861 0.76895 0.0
H3787 H 0.17428 0.93201 0.79911 0.0
H3788 H 0.14673 0.9383 0.7926 0.0
H3789 H 0.23556 0.0148 0.76791 0.0
H3790 H 0.24184 0.98913 0.77715 0.0
H3791 H 0.22812 0.98893 0.74774 0.0
H3792 H 0.25066 0.92467 0.78665 0.0
H3793 H 0.21582 0.92088 0.71628 0.0
H3794 H 0.21169 0.95 0.81777 0.0
H3795 H 0.23558 0.97003 0.81266 0.0
H3796 H 0.23923 0.94302 0.82044 0.0
H3797 H 0.16938 0.941 0.73153 0.0
H3798 H 0.18662 0.93987 0.70786 0.0
H3799 H 0.1888 0.9657 0.72733 0.0
C3800 C 0.36782 0.98505 0.02171 0.0
C3801 C 0.36259 0.96237 0.01209 0.0
C3802 C 0.38991 0.99708 0.02434 0.0
C3803 C 0.40679 0.98595 0.01711 0.0
C3804 C 0.40187 0.96273 0.00881 0.0
C3805 C 0.37961 0.95112 0.00628 0.0
C3806 C 0.39501 0.02187 0.03366 0.0
C3807 C 0.41995 0.95046 0.00183 0.0
C3808 C 0.45394 0.01887 0.99109 0.0
C3809 C 0.47035 0.02553 0.01101 0.0
C3810 C 0.4329 0.00642 0.99309 0.0
C3811 C 0.42888 0.99923 0.01525 0.0
C3812 C 0.44534 0.00593 0.03546 0.0
C3813 C 0.46554 0.02022 0.03319 0.0
C3814 C 0.41488 1.00159 0.97171 0.0
C3815 C 0.44192 0.99852 0.05947 0.0
H3816 H 0.3546 0.99354 0.0266 0.0
H3817 H 0.37549 0.93344 0.9991 0.0
H3818 H 0.40823 0.02541 0.04932 0.0
H3819 H 0.4016 0.03177 0.01977 0.0
H3820 H 0.37993 0.02778 0.039 0.0
H3821 H 0.41356 0.932 0.99764 0.0
H3822 H 0.42668 0.95673 0.98593 0.0
H3823 H 0.43419 0.95379 0.01647 0.0
H3824 H 0.45728 0.02394 0.97397 0.0
H3825 H 0.47696 0.02818 0.04866 0.0
H3826 H 0.39955 0.00729 0.97656 0.0
H3827 H 0.41008 0.98324 0.96576 0.0
H3828 H 0.42047 0.01012 0.95647 0.0
H3829 H 0.44541 0.01345 0.07329 0.0
H3830 H 0.45413 0.98785 0.06409 0.0
H3831 H 0.42482 0.9887 0.06024 0.0
C3832 C 0.8372 0.56626 0.80356 0.0
C3833 C 0.85749 0.57301 0.8188 0.0
C3834 C 0.8272 0.58211 0.79319 0.0
C3835 C 0.83727 0.60514 0.79929 0.0
C3836 C 0.85629 0.61217 0.8168 0.0
C3837 C 0.86643 0.59583 0.82627 0.0
C3838 C 0.80731 0.57403 0.77392 0.0
C3839 C 0.86666 0.63674 0.82433 0.0
C3840 C 0.82645 0.63636 0.74769 0.0
C3841 C 0.80692 0.64348 0.75295 0.0
C3842 C 0.83773 0.62525 0.76372 0.0
C3843 C 0.82904 0.62132 0.7853 0.0
C3844 C 0.81008 0.62963 0.79128 0.0
C3845 C 0.79907 0.64053 0.77487 0.0
C3846 C 0.85811 0.61661 0.75696 0.0
C3847 C 0.8006 0.62572 0.81425 0.0
H3848 H 0.83041 0.54854 0.79769 0.0
H3849 H 0.8821 0.60085 0.83824 0.0
H3850 H 0.79341 0.58274 0.77742 0.0
H3851 H 0.81241 0.57805 0.7565 0.0
H3852 H 0.80079 0.5556 0.77238 0.0
H3853 H 0.88214 0.63925 0.83733 0.0
H3854 H 0.87092 0.64513 0.80861 0.0
H3855 H 0.8543 0.64523 0.83255 0.0
H3856 H 0.83275 0.63932 0.73099 0.0
H3857 H 0.78398 0.64627 0.7789 0.0
H3858 H 0.85388 0.59796 0.75348 0.0
H3859 H 0.87217 0.6214 0.77178 0.0
H3860 H 0.86399 0.62316 0.74079 0.0
H3861 H 0.79162 0.60795 0.81292 0.0
H3862 H 0.78854 0.63671 0.81817 0.0
H3863 H 0.81428 0.6287 0.82942 0.0
C3864 C 0.83931 0.65905 0.04523 0.0
C3865 C 0.82169 0.65194 0.02649 0.0
C3866 C 0.85575 0.64624 0.04939 0.0
C3867 C 0.85476 0.62607 0.03413 0.0
C3868 C 0.83754 0.6193 0.01456 0.0
C3869 C 0.82102 0.6322 0.01113 0.0
C3870 C 0.87378 0.65392 0.07058 0.0
C3871 C 0.83613 0.59807 0.99774 0.0
C3872 C 0.90874 0.60395 0.04083 0.0
C3873 C 0.90426 0.58952 0.05796 0.0
C3874 C 0.89226 0.61509 0.0317 0.0
C3875 C 0.87089 0.61143 0.03985 0.0
C3876 C 0.86581 0.59541 0.05569 0.0
C3877 C 0.88265 0.58473 0.06469 0.0
C3878 C 0.89823 0.63191 0.01469 0.0
C3879 C 0.84318 0.59083 0.06464 0.0
H3880 H 0.83984 0.67428 0.05714 0.0
H3881 H 0.80746 0.62673 0.99652 0.0
H3882 H 0.8729 0.64089 0.08278 0.0
H3883 H 0.89067 0.65626 0.06459 0.0
H3884 H 0.87212 0.66997 0.08074 0.0
H3885 H 0.82393 0.59698 0.98151 0.0
H3886 H 0.85288 0.59711 0.9923 0.0
H3887 H 0.83075 0.58322 0.00693 0.0
H3888 H 0.92555 0.60762 0.03576 0.0
H3889 H 0.87927 0.5734 0.07787 0.0
H3890 H 0.90033 0.64919 0.02411 0.0
H3891 H 0.8845 0.62975 0.99966 0.0
H3892 H 0.91412 0.63036 0.00743 0.0
H3893 H 0.84178 0.60545 0.07734 0.0
H3894 H 0.84081 0.57562 0.0739 0.0
H3895 H 0.82931 0.5886 0.04976 0.0
C3896 C 0.20594 0.11841 0.80523 0.0
C3897 C 0.18259 0.11712 0.80149 0.0
C3898 C 0.22117 0.13873 0.80484 0.0
C3899 C 0.21288 0.15821 0.80039 0.0
C3900 C 0.18932 0.15706 0.79676 0.0
C3901 C 0.17447 0.13655 0.79746 0.0
C3902 C 0.24615 0.13936 0.80919 0.0
C3903 C 0.17978 0.17731 0.79141 0.0
C3904 C 0.25024 0.21645 0.81788 0.0
C3905 C 0.25846 0.22065 0.79647 0.0
C3906 C 0.23594 0.1959 0.81962 0.0
C3907 C 0.22887 0.17969 0.79912 0.0
C3908 C 0.23702 0.18406 0.77737 0.0
C3909 C 0.25227 0.20422 0.7765 0.0
C3910 C 0.22826 0.1916 0.84332 0.0
C3911 C 0.22928 0.16768 0.75487 0.0
H3912 H 0.21236 0.10347 0.80837 0.0
H3913 H 0.15646 0.13564 0.79437 0.0
H3914 H 0.25429 0.14487 0.79374 0.0
H3915 H 0.25392 0.15181 0.82493 0.0
H3916 H 0.24989 0.12272 0.81227 0.0
H3917 H 0.16117 0.1741 0.79077 0.0
H3918 H 0.18725 0.19196 0.80504 0.0
H3919 H 0.18418 0.182 0.77397 0.0
H3920 H 0.25515 0.22919 0.83332 0.0
H3921 H 0.25844 0.20768 0.75985 0.0
H3922 H 0.2324 0.17565 0.84827 0.0
H3923 H 0.20971 0.18969 0.84201 0.0
H3924 H 0.2362 0.20542 0.85778 0.0
H3925 H 0.23559 0.15201 0.75674 0.0
H3926 H 0.23533 0.17467 0.73898 0.0
H3927 H 0.21062 0.16305 0.75178 0.0
C3928 C 0.35945 0.94956 0.3234 0.0
C3929 C 0.35834 0.963 0.30519 0.0
C3930 C 0.34658 0.92781 0.32032 0.0
C3931 C 0.33333 0.91939 0.29808 0.0
C3932 C 0.33266 0.93277 0.27944 0.0
C3933 C 0.34491 0.95482 0.28344 0.0
C3934 C 0.34709 0.91399 0.34079 0.0
C3935 C 0.31899 0.92381 0.25546 0.0
C3936 C 0.31843 0.85668 0.29056 0.0
C3937 C 0.29664 0.85332 0.29653 0.0
C3938 C 0.33009 0.87827 0.28894 0.0
C3939 C 0.3198 0.89663 0.29467 0.0
C3940 C 0.29743 0.89324 0.29996 0.0
C3941 C 0.28588 0.87138 0.30032 0.0
C3942 C 0.35387 0.88158 0.28284 0.0
C3943 C 0.28659 0.91257 0.30788 0.0
H3944 H 0.36992 0.95627 0.34021 0.0
H3945 H 0.34443 0.96551 0.26945 0.0
H3946 H 0.32972 0.90669 0.34391 0.0
H3947 H 0.35551 0.89979 0.33642 0.0
H3948 H 0.35625 0.92408 0.35759 0.0
H3949 H 0.32192 0.93582 0.24226 0.0
H3950 H 0.32319 0.90767 0.24841 0.0
H3951 H 0.3008 0.92032 0.25736 0.0
H3952 H 0.32708 0.84288 0.28937 0.0
H3953 H 0.26906 0.86857 0.30546 0.0
H3954 H 0.36574 0.89259 0.2974 0.0
H3955 H 0.35491 0.89005 0.2666 0.0
H3956 H 0.35956 0.86543 0.27979 0.0
H3957 H 0.29424 0.91997 0.32628 0.0
H3958 H 0.26816 0.90707 0.30788 0.0
H3959 H 0.28956 0.92605 0.29635 0.0
C3960 C 0.55855 0.36902 0.5668 0.0
C3961 C 0.56545 0.36613 0.59055 0.0
C3962 C 0.55649 0.39057 0.55995 0.0
C3963 C 0.56153 0.41041 0.57698 0.0
C3964 C 0.56853 0.40752 0.60094 0.0
C3965 C 0.57029 0.38584 0.60729 0.0
C3966 C 0.54892 0.39211 0.53423 0.0
C3967 C 0.57369 0.42737 0.62026 0.0
C3968 C 0.57567 0.47137 0.55872 0.0
C3969 C 0.55496 0.47857 0.55779 0.0
C3970 C 0.57787 0.44944 0.56416 0.0
C3971 C 0.55922 0.43393 0.57001 0.0
C3972 C 0.53844 0.44139 0.56969 0.0
C3973 C 0.53654 0.46299 0.56318 0.0
C3974 C 0.60035 0.44279 0.56349 0.0
C3975 C 0.51799 0.42661 0.57651 0.0
H3976 H 0.5545 0.35432 0.55345 0.0
H3977 H 0.57546 0.38436 0.62575 0.0
H3978 H 0.53391 0.3999 0.53277 0.0
H3979 H 0.56244 0.40313 0.5269 0.0
H3980 H 0.54471 0.37539 0.52316 0.0
H3981 H 0.58112 0.42315 0.63745 0.0
H3982 H 0.58551 0.44157 0.61495 0.0
H3983 H 0.55793 0.43326 0.62303 0.0
H3984 H 0.59023 0.48281 0.55465 0.0
H3985 H 0.52055 0.4679 0.56304 0.0
H3986 H 0.59839 0.42707 0.55103 0.0
H3987 H 0.60679 0.43931 0.58138 0.0
H3988 H 0.61305 0.45606 0.5578 0.0
H3989 H 0.51202 0.41177 0.56273 0.0
H3990 H 0.50395 0.43561 0.57835 0.0
H3991 H 0.52233 0.42029 0.5936 0.0
C3992 C 0.42569 0.78605 0.41813 0.0
C3993 C 0.44187 0.77603 0.40761 0.0
C3994 C 0.40588 0.78943 0.40458 0.0
C3995 C 0.4013 0.7821 0.37964 0.0
C3996 C 0.41747 0.77175 0.36895 0.0
C3997 C 0.43748 0.76915 0.38283 0.0
C3998 C 0.38991 0.80115 0.41708 0.0
C3999 C 0.41368 0.76341 0.34264 0.0
C4000 C 0.33923 0.77243 0.34958 0.0
C4001 C 0.33916 0.79091 0.33682 0.0
C4002 C 0.35915 0.76919 0.36304 0.0
C4003 C 0.37975 0.78522 0.36486 0.0
C4004 C 0.37959 0.8042 0.3524 0.0
C4005 C 0.35963 0.80657 0.33836 0.0
C4006 C 0.35818 0.74827 0.37503 0.0
C4007 C 0.4004 0.82249 0.3544 0.0
H4008 H 0.42872 0.79174 0.43709 0.0
H4009 H 0.44968 0.76154 0.37421 0.0
H4010 H 0.38556 0.81475 0.40718 0.0
H4011 H 0.37404 0.78898 0.41764 0.0
H4012 H 0.39711 0.80852 0.43563 0.0
H4013 H 0.42637 0.75367 0.33731 0.0
H4014 H 0.39663 0.75263 0.3376 0.0
H4015 H 0.41456 0.77791 0.33237 0.0
H4016 H 0.32374 0.76005 0.34852 0.0
H4017 H 0.35995 0.82108 0.3289 0.0
H4018 H 0.36162 0.75291 0.39462 0.0
H4019 H 0.37139 0.73928 0.36961 0.0
H4020 H 0.34154 0.73659 0.3706 0.0
H4021 H 0.40416 0.83126 0.37292 0.0
H4022 H 0.39835 0.83509 0.34209 0.0
H4023 H 0.41518 0.81525 0.35062 0.0
C4024 C 0.0401 0.71616 0.07415 0.0
C4025 C 0.05964 0.72888 0.08856 0.0
C4026 C 0.03652 0.6922 0.06837 0.0
C4027 C 0.05265 0.67992 0.07717 0.0
C4028 C 0.07249 0.69275 0.09146 0.0
C4029 C 0.07567 0.71662 0.09688 0.0
C4030 C 0.01515 0.67994 0.05295 0.0
C4031 C 0.09051 0.68116 0.10128 0.0
C4032 C 0.03393 0.61563 0.08188 0.0
C4033 C 0.04207 0.60485 0.06246 0.0
C4034 C 0.03731 0.63958 0.08684 0.0
C4035 C 0.04878 0.65389 0.07187 0.0
C4036 C 0.05679 0.64305 0.05204 0.0
C4037 C 0.05349 0.61908 0.04773 0.0
C4038 C 0.0286 0.64964 0.10839 0.0
C4039 C 0.06847 0.65679 0.03485 0.0
H4040 H 0.02735 0.72492 0.06753 0.0
H4041 H 0.09088 0.72575 0.108 0.0
H4042 H 0.01906 0.66853 0.03817 0.0
H4043 H 1.00443 0.66936 0.06368 0.0
H4044 H 1.00537 0.69167 0.0453 0.0
H4045 H 0.1045 0.69304 0.11293 0.0
H4046 H 0.08317 0.66785 0.11164 0.0
H4047 H 0.09754 0.67281 0.0864 0.0
H4048 H 0.02503 0.60528 0.09355 0.0
H4049 H 0.05937 0.61144 0.03224 0.0
H4050 H 0.0158 0.65935 0.10273 0.0
H4051 H 0.04254 0.66155 0.12005 0.0
H4052 H 0.0209 0.63663 0.11893 0.0
H4053 H 0.05649 0.66567 0.02569 0.0
H4054 H 0.07495 0.64628 0.02116 0.0
H4055 H 0.08271 0.6698 0.04454 0.0
C4056 C 0.06865 0.25727 0.90526 0.0
C4057 C 0.06153 0.27716 0.91263 0.0
C4058 C 0.08839 0.25773 0.8942 0.0
C4059 C 0.1009 0.2785 0.88944 0.0
C4060 C 0.09347 0.29858 0.89658 0.0
C4061 C 0.07424 0.2977 0.90849 0.0
C4062 C 0.09616 0.23603 0.88821 0.0
C4063 C 0.10565 0.32106 0.89127 0.0
C4064 C 0.1627 0.28967 0.87842 0.0
C4065 C 0.16082 0.28952 0.85361 0.0
C4066 C 0.14347 0.28454 0.89017 0.0
C4067 C 0.12164 0.27951 0.87691 0.0
C4068 C 0.1198 0.27781 0.85168 0.0
C4069 C 0.13935 0.28281 0.84039 0.0
C4070 C 0.1465 0.28611 0.91697 0.0
C4071 C 0.09705 0.27236 0.83668 0.0
H4072 H 0.05909 0.24136 0.90876 0.0
H4073 H 0.06879 0.31311 0.91408 0.0
H4074 H 0.09896 0.23381 0.86927 0.0
H4075 H 0.11251 0.23666 0.89913 0.0
H4076 H 0.0839 0.22115 0.89162 0.0
H4077 H 0.09785 0.33511 0.89796 0.0
H4078 H 0.1235 0.32449 0.89945 0.0
H4079 H 0.10559 0.32073 0.87174 0.0
H4080 H 0.17915 0.29539 0.88884 0.0
H4081 H 0.1377 0.28321 0.82132 0.0
H4082 H 0.13594 0.27128 0.92273 0.0
H4083 H 0.14092 0.30127 0.92468 0.0
H4084 H 0.16433 0.28726 0.92441 0.0
H4085 H 0.08716 0.25623 0.84049 0.0
H4086 H 0.09839 0.27107 0.81732 0.0
H4087 H 0.08749 0.28562 0.84128 0.0
C4088 C 0.56337 0.76356 0.91985 0.0
C4089 C 0.54828 0.76381 0.89946 0.0
C4090 C 0.56229 0.74424 0.93165 0.0
C4091 C 0.54544 0.7247 0.92322 0.0
C4092 C 0.53031 0.72485 0.90251 0.0
C4093 C 0.53202 0.74424 0.89084 0.0
C4094 C 0.57925 0.74471 0.95312 0.0
C4095 C 0.51183 0.70468 0.89297 0.0
C4096 C 0.54763 0.66608 0.94071 0.0
C4097 C 0.53246 0.66412 0.95756 0.0
C4098 C 0.55288 0.68603 0.93016 0.0
C4099 C 0.5427 0.7045 0.93655 0.0
C4100 C 0.52829 0.70289 0.95452 0.0
C4101 C 0.52329 0.68275 0.96466 0.0
C4102 C 0.56843 0.6869 0.91127 0.0
C4103 C 0.5173 0.72211 0.96227 0.0
H4104 H 0.57618 0.77847 0.92652 0.0
H4105 H 0.52026 0.7442 0.87515 0.0
H4106 H 0.57054 0.74044 0.96863 0.0
H4107 H 0.58944 0.73181 0.9494 0.0
H4108 H 0.59081 0.76137 0.95801 0.0
H4109 H 0.50234 0.70685 0.87591 0.0
H4110 H 0.51895 0.68935 0.89015 0.0
H4111 H 0.49985 0.70182 0.90621 0.0
H4112 H 0.55449 0.6516 0.93491 0.0
H4113 H 0.51143 0.68123 0.97754 0.0
H4114 H 0.58152 0.70261 0.91495 0.0
H4115 H 0.55869 0.68703 0.89369 0.0
H4116 H 0.57682 0.67228 0.91008 0.0
H4117 H 0.53035 0.73751 0.96871 0.0
H4118 H 0.5068 0.71838 0.97667 0.0
H4119 H 0.50651 0.72585 0.94688 0.0
C4120 C 0.11131 0.78992 0.72877 0.0
C4121 C 0.09657 0.76884 0.72764 0.0
C4122 C 0.1352 0.79285 0.73435 0.0
C4123 C 0.14544 0.77422 0.73839 0.0
C4124 C 0.13063 0.75291 0.73725 0.0
C4125 C 0.10675 0.75056 0.73222 0.0
C4126 C 0.14953 0.81609 0.73572 0.0
C4127 C 0.1401 0.7323 0.74102 0.0
C4128 C 0.2088 0.77941 0.72921 0.0
C4129 C 0.22015 0.78208 0.75254 0.0
C4130 C 0.18487 0.77631 0.72442 0.0
C4131 C 0.17137 0.77687 0.74335 0.0
C4132 C 0.18292 0.77996 0.76701 0.0
C4133 C 0.20678 0.78202 0.77122 0.0
C4134 C 0.174 0.7723 0.69888 0.0
C4135 C 0.17021 0.78213 0.78811 0.0
H4136 H 0.10415 0.80433 0.72521 0.0
H4137 H 0.09601 0.73409 0.7313 0.0
H4138 H 0.16247 0.81969 0.75166 0.0
H4139 H 0.15848 0.81715 0.71982 0.0
H4140 H 0.13931 0.82932 0.73641 0.0
H4141 H 0.1269 0.71665 0.73752 0.0
H4142 H 0.15318 0.73071 0.7292 0.0
H4143 H 0.14833 0.73395 0.75964 0.0
H4144 H 0.2187 0.77939 0.71451 0.0
H4145 H 0.21514 0.7844 0.78936 0.0
H4146 H 0.16649 0.78681 0.69475 0.0
H4147 H 0.16018 0.75717 0.696 0.0
H4148 H 0.18623 0.76994 0.6862 0.0
H4149 H 0.16404 0.79811 0.78877 0.0
H4150 H 0.18089 0.78218 0.8052 0.0
H4151 H 0.15526 0.76824 0.78635 0.0
C4152 C 0.03669 0.38365 0.42463 0.0
C4153 C 0.05111 0.38394 0.40688 0.0
C4154 C 0.03366 0.40371 0.43784 0.0
C4155 C 0.04575 0.42505 0.43397 0.0
C4156 C 0.06063 0.42543 0.41632 0.0
C4157 C 0.06286 0.4051 0.40287 0.0
C4158 C 0.01707 0.40203 0.45571 0.0
C4159 C 0.07451 0.44742 0.41186 0.0
C4160 C 0.02329 0.47868 0.45335 0.0
C4161 C 0.03631 0.48733 0.47547 0.0
C4162 C 0.02636 0.45885 0.43968 0.0
C4163 C 0.04271 0.44679 0.44822 0.0
C4164 C 0.05571 0.45537 0.47074 0.0
C4165 C 0.0523 0.47526 0.48396 0.0
C4166 C 0.01168 0.45053 0.41618 0.0
C4167 C 0.07316 0.44339 0.48112 0.0
H4168 H 0.02726 0.3676 0.42789 0.0
H4169 H 0.07413 0.40576 0.3894 0.0
H4170 H 0.02544 0.4105 0.47349 0.0
H4171 H 1.00338 0.41081 0.4503 0.0
H4172 H 0.00945 0.38432 0.45731 0.0
H4173 H 0.08453 0.44525 0.39693 0.0
H4174 H 0.06347 0.45936 0.4078 0.0
H4175 H 0.08619 0.45516 0.4282 0.0
H4176 H 0.01007 0.48691 0.447 0.0
H4177 H 0.06233 0.48148 0.5011 0.0
H4178 H 1.00142 0.43359 0.41685 0.0
H4179 H 0.02231 0.44886 0.40173 0.0
H4180 H 1.0002 0.46195 0.41156 0.0
H4181 H 0.06472 0.42691 0.4856 0.0
H4182 H 0.0834 0.45321 0.49753 0.0
H4183 H 0.08457 0.44004 0.46787 0.0
C4184 C 0.44188 0.257 0.20644 0.0
C4185 C 0.46113 0.25974 0.22362 0.0
C4186 C 0.41997 0.25828 0.21258 0.0
C4187 C 0.41621 0.26228 0.2368 0.0
C4188 C 0.43552 0.26493 0.2543 0.0
C4189 C 0.4574 0.26376 0.24763 0.0
C4190 C 0.40074 0.25573 0.19285 0.0
C4191 C 0.43302 0.26877 0.28035 0.0
C4192 C 0.36385 0.28694 0.25257 0.0
C4193 C 0.34739 0.26805 0.25545 0.0
C4194 C 0.38575 0.28532 0.24663 0.0
C4195 C 0.39244 0.26418 0.24361 0.0
C4196 C 0.37595 0.24496 0.24659 0.0
C4197 C 0.35393 0.24706 0.25204 0.0
C4198 C 0.40174 0.30647 0.24322 0.0
C4199 C 0.38137 0.22186 0.24375 0.0
H4200 H 0.44396 0.25402 0.1878 0.0
H4201 H 0.47163 0.26594 0.26139 0.0
H4202 H 0.38654 0.24236 0.1956 0.0
H4203 H 0.39447 0.27164 0.19313 0.0
H4204 H 0.40575 0.25153 0.175 0.0
H4205 H 0.44935 0.27119 0.29196 0.0
H4206 H 0.42556 0.28376 0.28414 0.0
H4207 H 0.42128 0.25412 0.28503 0.0
H4208 H 0.35948 0.30324 0.25444 0.0
H4209 H 0.34185 0.23207 0.2539 0.0
H4210 H 0.40668 0.30481 0.22503 0.0
H4211 H 0.41734 0.30903 0.256 0.0
H4212 H 0.39428 0.32161 0.24573 0.0
H4213 H 0.38063 0.21592 0.22453 0.0
H4214 H 0.36925 0.20951 0.25141 0.0
H4215 H 0.39865 0.22223 0.25241 0.0
C4216 C 0.62424 0.56406 0.38239 0.0
C4217 C 0.61097 0.55206 0.36153 0.0
C4218 C 0.61706 0.56288 0.40507 0.0
C4219 C 0.59617 0.54896 0.40738 0.0
C4220 C 0.58266 0.53681 0.38639 0.0
C4221 C 0.59012 0.5386 0.36382 0.0
C4222 C 0.6319 0.57662 0.42662 0.0
C4223 C 0.56019 0.52194 0.38778 0.0
C4224 C 0.58716 0.53077 0.46904 0.0
C4225 C 0.57303 0.54471 0.47717 0.0
C4226 C 0.59456 0.53175 0.44636 0.0
C4227 C 0.58829 0.54752 0.4316 0.0
C4228 C 0.57455 0.56208 0.44017 0.0
C4229 C 0.56694 0.56031 0.46254 0.0
C4230 C 0.6089 0.51568 0.43803 0.0
C4231 C 0.56823 0.57995 0.42595 0.0
H4232 H 0.64038 0.57457 0.38101 0.0
H4233 H 0.57969 0.52923 0.34797 0.0
H4234 H 0.62208 0.58659 0.43718 0.0
H4235 H 0.63836 0.56524 0.4383 0.0
H4236 H 0.64649 0.58828 0.4217 0.0
H4237 H 0.55247 0.51221 0.37027 0.0
H4238 H 0.56213 0.51002 0.40087 0.0
H4239 H 0.54846 0.53241 0.39407 0.0
H4240 H 0.59189 0.51864 0.48012 0.0
H4241 H 0.55633 0.57147 0.46878 0.0
H4242 H 0.62569 0.52522 0.43559 0.0
H4243 H 0.60105 0.50613 0.42049 0.0
H4244 H 0.61124 0.50356 0.45082 0.0
H4245 H 0.58352 0.59289 0.42524 0.0
H4246 H 0.55564 0.58838 0.43386 0.0
H4247 H 0.56133 0.57263 0.40736 0.0
C4248 C 0.27527 0.887 0.06699 0.0
C4249 C 0.29322 0.90348 0.06289 0.0
C4250 C 0.27615 0.87753 0.0883 0.0
C4251 C 0.29567 0.88446 0.10521 0.0
C4252 C 0.31377 0.90124 0.10102 0.0
C4253 C 0.31214 0.91078 0.07998 0.0
C4254 C 0.25629 0.86028 0.09268 0.0
C4255 C 0.33525 0.90852 0.1183 0.0
C4256 C 0.30473 0.87848 0.16986 0.0
C4257 C 0.31809 0.8623 0.169 0.0
C4258 C 0.29474 0.88424 0.14875 0.0
C4259 C 0.29843 0.87344 0.12672 0.0
C4260 C 0.30986 0.85535 0.12602 0.0
C4261 C 0.31976 0.85008 0.14735 0.0
C4262 C 0.28233 0.90337 0.15 0.0
C4263 C 0.31372 0.84322 0.10278 0.0
H4264 H 0.2606 0.88165 0.05363 0.0
H4265 H 0.32609 0.92338 0.07648 0.0
H4266 H 0.26183 0.84527 0.09861 0.0
H4267 H 0.24803 0.8676 0.10715 0.0
H4268 H 0.24363 0.85484 0.07656 0.0
H4269 H 0.34747 0.92208 0.11241 0.0
H4270 H 0.33145 0.91464 0.13615 0.0
H4271 H 0.34343 0.89396 0.12024 0.0
H4272 H 0.30317 0.88745 0.1869 0.0
H4273 H 0.32968 0.83711 0.1471 0.0
H4274 H 0.26754 0.89996 0.13602 0.0
H4275 H 0.29372 0.91896 0.14691 0.0
H4276 H 0.27661 0.90646 0.1677 0.0
H4277 H 0.29801 0.83893 0.09001 0.0
H4278 H 0.31985 0.82753 0.10531 0.0
H4279 H 0.32648 0.85441 0.09463 0.0
C4280 C 0.92231 0.51146 0.8915 0.0
C4281 C 0.93094 0.52796 0.87774 0.0
C4282 C 0.93444 0.50916 0.9129 0.0
C4283 C 0.95531 0.52394 0.92052 0.0
C4284 C 0.96407 0.54065 0.90675 0.0
C4285 C 0.95171 0.54241 0.8853 0.0
C4286 C 0.9249 0.49114 0.92738 0.0
C4287 C 0.98653 0.55653 0.91459 0.0
C4288 C 0.98065 0.53864 0.98405 0.0
C4289 C 0.99757 0.5261 0.98464 0.0
C4290 C 0.96539 0.53658 0.96362 0.0
C4291 C 0.968 0.52251 0.94324 0.0
C4292 C 0.98458 0.50925 0.94392 0.0
C4293 C 0.99903 0.51093 0.96494 0.0
C4294 C 0.94734 0.55043 0.96344 0.0
C4295 C 0.98767 0.49409 0.92228 0.0
H4296 H 0.90627 0.50013 0.88537 0.0
H4297 H 0.95826 0.55506 0.87448 0.0
H4298 H 0.93744 0.48075 0.93181 0.0
H4299 H 0.92107 0.4991 0.94448 0.0
H4300 H 0.90927 0.47989 0.91789 0.0
H4301 H 0.99077 0.56862 0.90173 0.0
H4302 H 0.98639 0.56621 0.93219 0.0
H4303 H 1.00006 0.54679 0.91665 0.0
H4304 H 0.97957 0.55036 0.99934 0.0
H4305 H 0.01195 0.50096 0.96569 0.0
H4306 H 0.93073 0.53979 0.95587 0.0
H4307 H 0.95118 0.56387 0.95197 0.0
H4308 H 0.94605 0.55842 0.98157 0.0
H4309 H 0.97261 0.48033 0.91733 0.0
H4310 H 1.00271 0.48649 0.9254 0.0
H4311 H 0.98943 0.50363 0.90684 0.0
C4312 C 0.25858 0.2137 0.6035 0.0
C4313 C 0.27664 0.21956 0.59047 0.0
C4314 C 0.26052 0.22045 0.62825 0.0
C4315 C 0.28095 0.23375 0.64059 0.0
C4316 C 0.2994 0.23945 0.62763 0.0
C4317 C 0.29707 0.23224 0.60285 0.0
C4318 C 0.24062 0.21324 0.64126 0.0
C4319 C 0.32173 0.25299 0.64003 0.0
C4320 C 0.27687 0.26975 0.69898 0.0
C4321 C 0.2842 0.25723 0.71642 0.0
C4322 C 0.27613 0.2625 0.67444 0.0
C4323 C 0.28269 0.24206 0.66684 0.0
C4324 C 0.29015 0.22935 0.6844 0.0
C4325 C 0.29082 0.23705 0.7088 0.0
C4326 C 0.26838 0.27682 0.65656 0.0
C4327 C 0.29692 0.20725 0.67754 0.0
H4328 H 0.24284 0.20353 0.59435 0.0
H4329 H 0.31131 0.23649 0.59318 0.0
H4330 H 0.24568 0.20449 0.65641 0.0
H4331 H 0.23469 0.22826 0.64876 0.0
H4332 H 0.22637 0.20184 0.62949 0.0
H4333 H 0.33402 0.25725 0.62737 0.0
H4334 H 0.31934 0.2688 0.65003 0.0
H4335 H 0.32901 0.2433 0.65316 0.0
H4336 H 0.27192 0.28543 0.70449 0.0
H4337 H 0.29645 0.22707 0.72195 0.0
H4338 H 0.25317 0.26715 0.6448 0.0
H4339 H 0.28167 0.2814 0.64507 0.0
H4340 H 0.26434 0.29249 0.6652 0.0
H4341 H 0.28155 0.19409 0.67132 0.0
H4342 H 0.30649 0.2018 0.6928 0.0
H4343 H 0.30731 0.20831 0.66273 0.0
C4344 C 0.58975 0.55814 0.21502 0.0
C4345 C 0.60898 0.55 0.22264 0.0
C4346 C 0.58159 0.55653 0.19048 0.0
C4347 C 0.5927 0.54636 0.17289 0.0
C4348 C 0.61214 0.53814 0.18055 0.0
C4349 C 0.62 0.54011 0.2051 0.0
C4350 C 0.56094 0.56569 0.18334 0.0
C4351 C 0.62491 0.52748 0.16277 0.0
C4352 C 0.5597 0.52312 0.11082 0.0
C4353 C 0.56672 0.54033 0.09709 0.0
C4354 C 0.56807 0.52481 0.13526 0.0
C4355 C 0.58394 0.54419 0.1466 0.0
C4356 C 0.59149 0.56134 0.13266 0.0
C4357 C 0.5829 0.55916 0.10827 0.0
C4358 C 0.5599 0.50576 0.149 0.0
C4359 C 0.60857 0.5822 0.14353 0.0
H4360 H 0.58112 0.5659 0.22823 0.0
H4361 H 0.63496 0.53384 0.21057 0.0
H4362 H 0.56469 0.57806 0.17067 0.0
H4363 H 0.54731 0.55181 0.17403 0.0
H4364 H 0.55472 0.57396 0.19888 0.0
H4365 H 0.63815 0.51972 0.17149 0.0
H4366 H 0.61328 0.51439 0.14983 0.0
H4367 H 0.63307 0.54046 0.1525 0.0
H4368 H 0.54746 0.50832 0.1025 0.0
H4369 H 0.58911 0.57221 0.09784 0.0
H4370 H 0.55187 0.51204 0.16421 0.0
H4371 H 0.57439 0.49897 0.15646 0.0
H4372 H 0.5476 0.49182 0.13775 0.0
H4373 H 0.60097 0.59232 0.15652 0.0
H4374 H 0.61447 0.59286 0.12993 0.0
H4375 H 0.62337 0.5776 0.15337 0.0
C4376 C 0.30996 0.87572 0.93462 0.0
C4377 C 0.29914 0.89392 0.93527 0.0
C4378 C 0.31118 0.86346 0.91299 0.0
C4379 C 0.30128 0.86975 0.89187 0.0
C4380 C 0.29095 0.88856 0.89234 0.0
C4381 C 0.29002 0.90056 0.91427 0.0
C4382 C 0.32242 0.84342 0.91279 0.0
C4383 C 0.28018 0.89542 0.86989 0.0
C4384 C 0.31762 0.84283 0.83612 0.0
C4385 C 0.29795 0.82698 0.82792 0.0
C4386 C 0.31842 0.85812 0.85629 0.0
C4387 C 0.30004 0.85539 0.86952 0.0
C4388 C 0.28073 0.83818 0.86206 0.0
C4389 C 0.2796 0.82459 0.84065 0.0
C4390 C 0.33854 0.87729 0.86313 0.0
C4391 C 0.26175 0.83363 0.87699 0.0
H4392 H 0.31735 0.87101 0.95101 0.0
H4393 H 0.2817 0.91475 0.91502 0.0
H4394 H 0.3103 0.82798 0.90421 0.0
H4395 H 0.33669 0.84583 0.90218 0.0
H4396 H 0.32891 0.84069 0.93099 0.0
H4397 H 0.2761 0.91236 0.87304 0.0
H4398 H 0.29142 0.89537 0.85582 0.0
H4399 H 0.26433 0.88313 0.863 0.0
H4400 H 0.33203 0.84359 0.82644 0.0
H4401 H 0.26478 0.81155 0.83425 0.0
H4402 H 0.34579 0.87783 0.88193 0.0
H4403 H 0.33306 0.89344 0.86156 0.0
H4404 H 0.35193 0.87609 0.85159 0.0
H4405 H 0.26837 0.82973 0.89464 0.0
H4406 H 0.24815 0.81929 0.8685 0.0
H4407 H 0.25438 0.84875 0.88014 0.0
C4408 C 0.92744 0.51283 0.73914 0.0
C4409 C 0.92052 0.5321 0.74844 0.0
C4410 C 0.93322 0.51078 0.71616 0.0
C4411 C 0.93286 0.52889 0.70266 0.0
C4412 C 0.92505 0.54807 0.71164 0.0
C4413 C 0.91853 0.54928 0.73449 0.0
C4414 C 0.94068 0.48964 0.70682 0.0
C4415 C 0.92439 0.5675 0.69754 0.0
C4416 C 0.97846 0.52576 0.66512 0.0
C4417 C 0.9661 0.51265 0.64468 0.0
C4418 C 0.96741 0.5341 0.68321 0.0
C4419 C 0.94361 0.5285 0.68079 0.0
C4420 C 0.93111 0.5174 0.65898 0.0
C4421 C 0.94266 0.50964 0.64095 0.0
C4422 C 0.98125 0.54643 0.70605 0.0
C4423 C 0.90574 0.51111 0.65562 0.0
H4424 H 0.92815 0.49924 0.74981 0.0
H4425 H 0.91261 0.5639 0.74175 0.0
H4426 H 0.9323 0.48324 0.68845 0.0
H4427 H 0.95912 0.49345 0.70624 0.0
H4428 H 0.93688 0.47606 0.71817 0.0
H4429 H 0.91772 0.58112 0.70712 0.0
H4430 H 0.94157 0.57458 0.69372 0.0
H4431 H 0.9137 0.56157 0.68016 0.0
H4432 H 0.99668 0.52836 0.6675 0.0
H4433 H 0.93332 0.49973 0.62476 0.0
H4434 H 0.9818 0.53458 0.71945 0.0
H4435 H 0.97362 0.56031 0.71347 0.0
H4436 H 0.99883 0.55348 0.70333 0.0
H4437 H 0.90047 0.494 0.66059 0.0
H4438 H 0.89885 0.51071 0.63668 0.0
H4439 H 0.8982 0.52286 0.66688 0.0
C4440 C 0.28119 0.20293 0.43379 0.0
C4441 C 0.27282 0.21463 0.45233 0.0
C4442 C 0.28222 0.21061 0.41133 0.0
C4443 C 0.27467 0.23055 0.40698 0.0
C4444 C 0.2659 0.24226 0.42553 0.0
C4445 C 0.26519 0.23426 0.44792 0.0
C4446 C 0.29147 0.19734 0.39222 0.0
C4447 C 0.25711 0.26323 0.42167 0.0
C4448 C 0.29804 0.26003 0.35588 0.0
C4449 C 0.27987 0.25406 0.33753 0.0
C4450 C 0.29626 0.25329 0.37871 0.0
C4451 C 0.2762 0.23918 0.38316 0.0
C4452 C 0.25781 0.2331 0.36462 0.0
C4453 C 0.25963 0.2413 0.34251 0.0
C4454 C 0.31592 0.26132 0.39812 0.0
C4455 C 0.23635 0.21734 0.36771 0.0
H4456 H 0.28712 0.18772 0.43686 0.0
H4457 H 0.25847 0.24332 0.46193 0.0
H4458 H 0.27935 0.19344 0.37561 0.0
H4459 H 0.30728 0.20754 0.388 0.0
H4460 H 0.29506 0.18133 0.39767 0.0
H4461 H 0.25159 0.2709 0.43801 0.0
H4462 H 0.27032 0.27582 0.41579 0.0
H4463 H 0.2426 0.25914 0.40732 0.0
H4464 H 0.31374 0.26995 0.3524 0.0
H4465 H 0.24497 0.23801 0.32929 0.0
H4466 H 0.32307 0.24681 0.40307 0.0
H4467 H 0.31021 0.26905 0.41429 0.0
H4468 H 0.32946 0.27385 0.39259 0.0
H4469 H 0.23942 0.19996 0.36686 0.0
H4470 H 0.22238 0.2175 0.35355 0.0
H4471 H 0.23095 0.22159 0.38531 0.0
C4472 C 0.32897 0.58707 0.55949 0.0
C4473 C 0.32823 0.60897 0.56841 0.0
C4474 C 0.3494 0.58191 0.55472 0.0
C4475 C 0.36912 0.59913 0.55964 0.0
C4476 C 0.36871 0.62044 0.57151 0.0
C4477 C 0.34801 0.62519 0.57571 0.0
C4478 C 0.34947 0.55878 0.54228 0.0
C4479 C 0.38954 0.63891 0.57738 0.0
C4480 C 0.41654 0.57263 0.5458 0.0
C4481 C 0.4156 0.57452 0.52138 0.0
C4482 C 0.40347 0.58348 0.55978 0.0
C4483 C 0.38887 0.59565 0.5487 0.0
C4484 C 0.38988 0.59982 0.52483 0.0
C4485 C 0.40354 0.58924 0.51144 0.0
C4486 C 0.40336 0.57983 0.58558 0.0
C4487 C 0.37442 0.61282 0.51242 0.0
H4488 H 0.31345 0.5747 0.5541 0.0
H4489 H 0.34712 0.6421 0.58304 0.0
H4490 H 0.35572 0.56011 0.5248 0.0
H4491 H 0.36098 0.55062 0.55311 0.0
H4492 H 0.33246 0.54769 0.53921 0.0
H4493 H 0.38735 0.65224 0.59129 0.0
H4494 H 0.40447 0.63214 0.58353 0.0
H4495 H 0.39302 0.64681 0.56117 0.0
H4496 H 0.42617 0.56143 0.55365 0.0
H4497 H 0.40362 0.59128 0.49277 0.0
H4498 H 0.3888 0.56634 0.58718 0.0
H4499 H 0.40153 0.59529 0.59668 0.0
H4500 H 0.41898 0.5747 0.59281 0.0
H4501 H 0.35744 0.60188 0.50751 0.0
H4502 H 0.38053 0.61827 0.49587 0.0
H4503 H 0.37267 0.62787 0.52418 0.0
C4504 C 0.883 0.95226 0.5607 0.0
C4505 C 0.87466 0.93197 0.54564 0.0
C4506 C 0.90458 0.96516 0.55962 0.0
C4507 C 0.91792 0.95806 0.54253 0.0
C4508 C 0.90946 0.93764 0.52716 0.0
C4509 C 0.88815 0.92473 0.52915 0.0
C4510 C 0.91314 0.98646 0.57677 0.0
C4511 C 0.92292 0.92937 0.50859 0.0
C4512 C 0.96307 1.00327 0.52428 0.0
C4513 C 0.98285 1.00013 0.53731 0.0
C4514 C 0.94198 0.98961 0.52566 0.0
C4515 C 0.94045 0.97226 0.54043 0.0
C4516 C 0.96041 0.96874 0.55332 0.0
C4517 C 0.98128 0.9827 0.55165 0.0
C4518 C 0.92131 0.9936 0.51108 0.0
C4519 C 0.95976 0.95048 0.56925 0.0
H4520 H 0.87278 0.95788 0.57362 0.0
H4521 H 0.88184 0.90908 0.51742 0.0
H4522 H 0.9299 0.98613 0.58631 0.0
H4523 H 0.91532 1.00119 0.56679 0.0
H4524 H 0.90153 0.98888 0.59011 0.0
H4525 H 0.91297 0.91464 0.49628 0.0
H4526 H 0.92897 0.94296 0.49797 0.0
H4527 H 0.93797 0.92442 0.51748 0.0
H4528 H 0.96406 0.01623 0.51264 0.0
H4529 H 0.99642 0.97991 0.56165 0.0
H4530 H 0.90918 0.99806 0.52302 0.0
H4531 H 0.91279 0.97797 0.49927 0.0
H4532 H 0.92535 0.0073 0.49993 0.0
H4533 H 0.95193 0.95525 0.58521 0.0
H4534 H 0.97686 0.94774 0.57521 0.0
H4535 H 0.94933 0.93436 0.56 0.0
C4536 C 0.88622 0.07511 0.28261 0.0
C4537 C 0.90411 0.07355 0.26951 0.0
C4538 C 0.8773 0.09468 0.28456 0.0
C4539 C 0.8861 0.11291 0.27257 0.0
C4540 C 0.90381 0.11121 0.2588 0.0
C4541 C 0.91283 0.09165 0.25771 0.0
C4542 C 0.85864 0.09597 0.29972 0.0
C4543 C 0.91352 0.13017 0.24562 0.0
C4544 C 0.84616 0.15303 0.26582 0.0
C4545 C 0.85387 0.16855 0.28633 0.0
C4546 C 0.85744 0.13555 0.2601 0.0
C4547 C 0.87693 0.13383 0.27516 0.0
C4548 C 0.88588 0.15078 0.29462 0.0
C4549 C 0.87409 0.16784 0.3001 0.0
C4550 C 0.84761 0.11807 0.23893 0.0
C4551 C 0.90687 0.14999 0.31086 0.0
H4552 H 0.87953 0.06122 0.29186 0.0
H4553 H 0.92665 0.09048 0.24751 0.0
H4554 H 0.8637 0.11081 0.31364 0.0
H4555 H 0.84335 0.09814 0.28855 0.0
H4556 H 0.85424 0.08068 0.30857 0.0
H4557 H 0.92471 0.12492 0.2329 0.0
H4558 H 0.89989 0.13652 0.23569 0.0
H4559 H 0.92346 0.14437 0.25858 0.0
H4560 H 0.83053 0.15368 0.25515 0.0
H4561 H 0.88015 0.18008 0.31581 0.0
H4562 H 0.8401 0.10211 0.24525 0.0
H4563 H 0.86097 0.11455 0.22821 0.0
H4564 H 0.83432 0.12338 0.22729 0.0
H4565 H 0.90259 0.13749 0.32326 0.0
H4566 H 0.91422 0.16657 0.32158 0.0
H4567 H 0.91983 0.14469 0.30059 0.0
C4568 C 0.6884 0.11732 0.06106 0.0
C4569 C 0.70344 0.1071 0.0491 0.0
C4570 C 0.66545 0.11176 0.05307 0.0
C4571 C 0.65771 0.09559 0.0328 0.0
C4572 C 0.67294 0.0865 0.01966 0.0
C4573 C 0.6958 0.09218 0.02819 0.0
C4574 C 0.64948 0.12178 0.06741 0.0
C4575 C 0.66489 0.06976 0.99747 0.0
C4576 C 0.60536 0.054 0.03638 0.0
C4577 C 0.58908 0.06292 0.02351 0.0
C4578 C 0.62772 0.06502 0.04001 0.0
C4579 C 0.63411 0.08433 0.0288 0.0
C4580 C 0.61808 0.09274 0.01458 0.0
C4581 C 0.59546 0.08237 0.01296 0.0
C4582 C 0.64429 0.05636 0.0565 0.0
C4583 C 0.62453 0.11298 0.00183 0.0
H4584 H 0.69451 0.12935 0.07693 0.0
H4585 H 0.70763 0.08497 0.0185 0.0
H4586 H 0.63577 0.12618 0.05561 0.0
H4587 H 0.64161 0.10922 0.07831 0.0
H4588 H 0.65828 0.13712 0.07958 0.0
H4589 H 0.67895 0.06691 0.98745 0.0
H4590 H 0.65661 0.05342 0.00246 0.0
H4591 H 0.65221 0.07565 0.9856 0.0
H4592 H 0.60059 0.03901 0.04473 0.0
H4593 H 0.58287 0.08978 0.0039 0.0
H4594 H 0.65232 0.06975 0.07132 0.0
H4595 H 0.65782 0.05165 0.04674 0.0
H4596 H 0.63618 0.04146 0.06431 0.0
H4597 H 0.62607 0.12855 0.01438 0.0
H4598 H 0.61156 0.11321 0.98663 0.0
H4599 H 0.64097 0.11334 0.99507 0.0
C4600 C 0.19938 0.47908 0.24579 0.0
C4601 C 0.21517 0.49756 0.24155 0.0
C4602 C 0.20559 0.45871 0.24824 0.0
C4603 C 0.22801 0.45697 0.24592 0.0
C4604 C 0.24294 0.47446 0.23798 0.0
C4605 C 0.23633 0.49493 0.23603 0.0
C4606 C 0.18915 0.44041 0.25678 0.0
C4607 C 0.26651 0.4723 0.23404 0.0
C4608 C 0.24741 0.42715 0.29541 0.0
C4609 C 0.24379 0.40525 0.28381 0.0
C4610 C 0.24413 0.44469 0.28264 0.0
C4611 C 0.23689 0.43988 0.2578 0.0
C4612 C 0.23436 0.41795 0.24579 0.0
C4613 C 0.23783 0.40074 0.25907 0.0
C4614 C 0.24716 0.46808 0.29598 0.0
C4615 C 0.22667 0.41236 0.21936 0.0
H4616 H 0.18264 0.48101 0.24916 0.0
H4617 H 0.24819 0.50918 0.23195 0.0
H4618 H 0.18974 0.42362 0.24766 0.0
H4619 H 0.19377 0.44041 0.27617 0.0
H4620 H 0.17158 0.44298 0.25381 0.0
H4621 H 0.27522 0.48662 0.22579 0.0
H4622 H 0.27651 0.47161 0.25131 0.0
H4623 H 0.26606 0.4564 0.22242 0.0
H4624 H 0.25279 0.4305 0.31445 0.0
H4625 H 0.23551 0.38367 0.25021 0.0
H4626 H 0.23059 0.47306 0.29579 0.0
H4627 H 0.25815 0.48045 0.28724 0.0
H4628 H 0.25467 0.46915 0.31482 0.0
H4629 H 0.20801 0.40912 0.21616 0.0
H4630 H 0.23209 0.39701 0.21185 0.0
H4631 H 0.23318 0.42647 0.2096 0.0
C4632 C 0.2538 0.44371 0.06199 0.0
C4633 C 0.25414 0.42481 0.04579 0.0
C4634 C 0.23504 0.45404 0.06102 0.0
C4635 C 0.21623 0.4452 0.04349 0.0
C4636 C 0.21633 0.42581 0.02749 0.0
C4637 C 0.23527 0.41593 0.0288 0.0
C4638 C 0.23538 0.47448 0.07857 0.0
C4639 C 0.19662 0.41577 0.00854 0.0
C4640 C 0.15789 0.45764 0.04643 0.0
C4641 C 0.15704 0.47249 0.02947 0.0
C4642 C 0.17758 0.44961 0.05236 0.0
C4643 C 0.19674 0.45659 0.0409 0.0
C4644 C 0.19624 0.4726 0.02471 0.0
C4645 C 0.17631 0.48033 0.01913 0.0
C4646 C 0.17732 0.43247 0.06957 0.0
C4647 C 0.21634 0.48054 0.01224 0.0
H4648 H 0.26827 0.45054 0.07529 0.0
H4649 H 0.23534 0.40126 0.0163 0.0
H4650 H 0.23276 0.48881 0.06894 0.0
H4651 H 0.22135 0.47097 0.08938 0.0
H4652 H 0.25147 0.4796 0.09077 0.0
H4653 H 0.19851 0.39956 0.99892 0.0
H4654 H 0.1807 0.41289 0.01653 0.0
H4655 H 0.19504 0.4277 0.99538 0.0
H4656 H 0.14279 0.45148 0.05417 0.0
H4657 H 0.17544 0.4917 0.00585 0.0
H4658 H 0.19265 0.43696 0.08288 0.0
H4659 H 0.17731 0.41579 0.05971 0.0
H4660 H 0.16226 0.43095 0.07909 0.0
H4661 H 0.23151 0.48712 0.0255 0.0
H4662 H 0.21365 0.4939 1.00112 0.0
H4663 H 0.21986 0.46618 1.00062 0.0
C4664 C 0.90501 0.93431 0.27574 0.0
C4665 C 0.89499 0.95091 0.26632 0.0
C4666 C 0.892 0.91341 0.27898 0.0
C4667 C 0.86834 0.90871 0.27232 0.0
C4668 C 0.85813 0.92545 0.26289 0.0
C4669 C 0.87151 0.94631 0.26011 0.0
C4670 C 0.90365 0.89635 0.28955 0.0
C4671 C 0.83298 0.92134 0.25585 0.0
C4672 C 0.83764 0.84711 0.25822 0.0
C4673 C 0.82684 0.84384 0.27842 0.0
C4674 C 0.85096 0.86813 0.25594 0.0
C4675 C 0.85427 0.88619 0.27469 0.0
C4676 C 0.84379 0.88277 0.29542 0.0
C4677 C 0.82991 0.8618 0.29684 0.0
C4678 C 0.86135 0.87108 0.23333 0.0
C4679 C 0.84771 0.901 0.3164 0.0
H4680 H 0.92307 0.93776 0.28092 0.0
H4681 H 0.86352 0.95908 0.25315 0.0
H4682 H 0.89485 0.88959 0.30409 0.0
H4683 H 0.90314 0.882 0.27567 0.0
H4684 H 0.92153 0.9036 0.29671 0.0
H4685 H 0.82768 0.93556 0.24775 0.0
H4686 H 0.82727 0.90579 0.24296 0.0
H4687 H 0.82426 0.91877 0.27175 0.0
H4688 H 0.83539 0.83326 0.24399 0.0
H4689 H 0.82205 0.85922 0.31277 0.0
H4690 H 0.87996 0.87553 0.23745 0.0
H4691 H 0.85587 0.88514 0.22511 0.0
H4692 H 0.85666 0.85564 0.22014 0.0
H4693 H 0.86564 0.90435 0.32434 0.0
H4694 H 0.83705 0.8963 0.33043 0.0
H4695 H 0.84427 0.91691 0.31061 0.0
C4696 C 0.74305 0.13214 0.76306 0.0
C4697 C 0.72027 0.12207 0.75866 0.0
C4698 C 0.74956 0.15514 0.77083 0.0
C4699 C 0.73276 0.16766 0.77499 0.0
C4700 C 0.70979 0.15724 0.77172 0.0
C4701 C 0.70376 0.13449 0.76313 0.0
C4702 C 0.77421 0.16621 0.77357 0.0
C4703 C 0.6916 0.17029 0.77612 0.0
C4704 C 0.75726 0.22574 0.80592 0.0
C4705 C 0.75838 0.23739 0.78624 0.0
C4706 C 0.74695 0.20301 0.80284 0.0
C4707 C 0.73906 0.19208 0.77946 0.0
C4708 C 0.73923 0.20425 0.75976 0.0
C4709 C 0.7485 0.22704 0.76361 0.0
C4710 C 0.74554 0.19051 0.82426 0.0
C4711 C 0.73166 0.19313 0.73439 0.0
H4712 H 0.75561 0.12219 0.75983 0.0
H4713 H 0.68609 0.12633 0.76023 0.0
H4714 H 0.77687 0.17895 0.7611 0.0
H4715 H 0.77971 0.17513 0.79187 0.0
H4716 H 0.78507 0.1539 0.76996 0.0
H4717 H 0.67514 0.15902 0.77675 0.0
H4718 H 0.69637 0.18186 0.79308 0.0
H4719 H 0.68945 0.18072 0.76158 0.0
H4720 H 0.7651 0.23405 0.82337 0.0
H4721 H 0.74911 0.23654 0.7487 0.0
H4722 H 0.75782 0.17927 0.82444 0.0
H4723 H 0.72852 0.17978 0.82335 0.0
H4724 H 0.7492 0.20216 0.84122 0.0
H4725 H 0.74525 0.18524 0.72801 0.0
H4726 H 0.72816 0.20548 0.72226 0.0
H4727 H 0.71634 0.17975 0.73298 0.0
loop_
_geom_bond_atom_site_label_1
_geom_bond_atom_site_label_2
_geom_bond_distance
_geom_bond_site_symmetry_2
_ccdc_geom_bond_type
In0 O1 2.294 . S
In0 O2 2.326 . S
In0 O6 2.266 . S
In0 O7 2.326 . S
In0 O8 2.266 . S
In0 O9 2.326 . S
In0 O11 2.294 . S
In0 O12 2.326 . S
O1 In0 2.294 . S
O1 C10 1.240 . S
O2 In0 2.326 . S
O2 C10 1.252 . S
C3 O6 1.252 1_655 S
C3 O7 1.260 1_655 S
C4 O11 1.240 . S
C4 O12 1.252 . S
C5 O8 1.252 . S
C5 O9 1.260 . S
O6 In0 2.266 . S
O6 C3 1.252 1_455 S
O7 In0 2.326 . S
O7 C3 1.260 1_455 S
O8 In0 2.266 . S
O8 C5 1.252 . S
O9 In0 2.326 . S
O9 C5 1.260 . S
C10 O1 1.240 . S
C10 O2 1.252 . S
O11 In0 2.294 . S
O11 C4 1.240 . S
O12 In0 2.326 . S
O12 C4 1.252 . S
In13 O14 2.294 . S
In13 O15 2.326 . S
In13 O19 2.266 . S
In13 O20 2.326 . S
In13 O21 2.266 1_455 S
In13 O22 2.326 1_455 S
In13 O24 2.294 . S
In13 O25 2.326 . S
O14 In13 2.294 . S
O14 C23 1.240 . S
O15 In13 2.326 . S
O15 C23 1.252 . S
C16 O19 1.252 . S
C16 O20 1.260 . S
C17 O24 1.240 . S
C17 O25 1.252 . S
C18 O21 1.252 . S
C18 O22 1.260 . S
O19 In13 2.266 . S
O19 C16 1.252 . S
O20 In13 2.326 . S
O20 C16 1.260 . S
O21 In13 2.266 1_655 S
O21 C18 1.252 . S
O22 In13 2.326 1_655 S
O22 C18 1.260 . S
C23 O14 1.240 . S
C23 O15 1.252 . S
O24 In13 2.294 . S
O24 C17 1.240 . S
O25 In13 2.326 . S
O25 C17 1.252 . S
In26 O27 2.294 . S
In26 O28 2.326 . S
In26 O32 2.266 . S
In26 O33 2.326 . S
In26 O34 2.266 . S
In26 O35 2.326 . S
In26 O37 2.294 . S
In26 O38 2.326 . S
O27 In26 2.294 . S
O27 C36 1.240 . S
O28 In26 2.326 . S
O28 C36 1.252 . S
C29 O32 1.252 . S
C29 O33 1.260 . S
C30 O37 1.240 . S
C30 O38 1.252 . S
C31 O34 1.252 . S
C31 O35 1.260 . S
O32 In26 2.266 . S
O32 C29 1.252 . S
O33 In26 2.326 . S
O33 C29 1.260 . S
O34 In26 2.266 . S
O34 C31 1.252 . S
O35 In26 2.326 . S
O35 C31 1.260 . S
C36 O27 1.240 . S
C36 O28 1.252 . S
O37 In26 2.294 . S
O37 C30 1.240 . S
O38 In26 2.326 . S
O38 C30 1.252 . S
In39 O40 2.294 . S
In39 O41 2.326 . S
In39 O45 2.266 . S
In39 O46 2.326 . S
In39 O47 2.266 . S
In39 O48 2.326 . S
In39 O50 2.294 . S
In39 O51 2.326 . S
O40 In39 2.294 . S
O40 C49 1.240 . S
O41 In39 2.326 . S
O41 C49 1.252 . S
C42 O45 1.252 . S
C42 O46 1.260 . S
C43 O50 1.240 . S
C43 O51 1.252 . S
C44 O47 1.252 . S
C44 O48 1.260 . S
O45 In39 2.266 . S
O45 C42 1.252 . S
O46 In39 2.326 . S
O46 C42 1.260 . S
O47 In39 2.266 . S
O47 C44 1.252 . S
O48 In39 2.326 . S
O48 C44 1.260 . S
C49 O40 1.240 . S
C49 O41 1.252 . S
O50 In39 2.294 . S
O50 C43 1.240 . S
O51 In39 2.326 . S
O51 C43 1.252 . S
In52 O53 2.294 . S
In52 O54 2.326 . S
In52 O58 2.266 . S
In52 O59 2.326 . S
In52 O60 2.266 . S
In52 O61 2.326 . S
In52 O63 2.294 . S
In52 O64 2.326 . S
O53 In52 2.294 . S
O53 C62 1.240 . S
O54 In52 2.326 . S
O54 C62 1.252 . S
C55 O58 1.252 . S
C55 O59 1.260 . S
C56 O63 1.240 . S
C56 O64 1.252 . S
C57 O60 1.252 . S
C57 O61 1.260 . S
O58 In52 2.266 . S
O58 C55 1.252 . S
O59 In52 2.326 . S
O59 C55 1.260 . S
O60 In52 2.266 . S
O60 C57 1.252 . S
O61 In52 2.326 . S
O61 C57 1.260 . S
C62 O53 1.240 . S
C62 O54 1.252 . S
O63 In52 2.294 . S
O63 C56 1.240 . S
O64 In52 2.326 . S
O64 C56 1.252 . S
In65 O66 2.294 . S
In65 O67 2.326 . S
In65 O71 2.266 . S
In65 O72 2.326 . S
In65 O73 2.266 . S
In65 O74 2.326 . S
In65 O76 2.294 . S
In65 O77 2.326 . S
O66 In65 2.294 . S
O66 C75 1.240 . S
O67 In65 2.326 . S
O67 C75 1.252 . S
C68 O71 1.252 . S
C68 O72 1.260 . S
C69 O76 1.240 . S
C69 O77 1.252 . S
C70 O73 1.252 . S
C70 O74 1.260 . S
O71 In65 2.266 . S
O71 C68 1.252 . S
O72 In65 2.326 . S
O72 C68 1.260 . S
O73 In65 2.266 . S
O73 C70 1.252 . S
O74 In65 2.326 . S
O74 C70 1.260 . S
C75 O66 1.240 . S
C75 O67 1.252 . S
O76 In65 2.294 . S
O76 C69 1.240 . S
O77 In65 2.326 . S
O77 C69 1.252 . S
In78 O79 2.294 . S
In78 O80 2.326 . S
In78 O84 2.266 . S
In78 O85 2.326 . S
In78 O86 2.266 . S
In78 O87 2.326 . S
In78 O89 2.294 . S
In78 O90 2.326 . S
O79 In78 2.294 . S
O79 C88 1.240 . S
O80 In78 2.326 . S
O80 C88 1.252 . S
C81 O84 1.252 . S
C81 O85 1.260 . S
C82 O89 1.240 . S
C82 O90 1.252 . S
C83 O86 1.252 . S
C83 O87 1.260 . S
O84 In78 2.266 . S
O84 C81 1.252 . S
O85 In78 2.326 . S
O85 C81 1.260 . S
O86 In78 2.266 . S
O86 C83 1.252 . S
O87 In78 2.326 . S
O87 C83 1.260 . S
C88 O79 1.240 . S
C88 O80 1.252 . S
O89 In78 2.294 . S
O89 C82 1.240 . S
O90 In78 2.326 . S
O90 C82 1.252 . S
In91 O92 2.296 . S
In91 O93 2.335 1_455 S
In91 O97 2.270 . S
In91 O98 2.324 . S
In91 O99 2.258 1_455 S
In91 O100 2.313 1_455 S
In91 O102 2.302 . S
In91 O103 2.339 . S
O92 In91 2.296 . S
O92 C101 1.240 . S
O93 In91 2.335 1_655 S
O93 C101 1.251 1_655 S
C94 O97 1.251 . S
C94 O98 1.260 . S
C95 O102 1.240 . S
C95 O103 1.252 . S
C96 O99 1.252 . S
C96 O100 1.260 . S
O97 In91 2.270 . S
O97 C94 1.251 . S
O98 In91 2.324 . S
O98 C94 1.260 . S
O99 In91 2.258 1_655 S
O99 C96 1.252 . S
O100 In91 2.313 1_655 S
O100 C96 1.260 . S
C101 O92 1.240 . S
C101 O93 1.251 1_455 S
O102 In91 2.302 . S
O102 C95 1.240 . S
O103 In91 2.339 . S
O103 C95 1.252 . S
In104 O105 2.294 . S
In104 O106 2.326 . S
In104 O110 2.266 . S
In104 O111 2.326 . S
In104 O112 2.266 1_545 S
In104 O113 2.326 1_545 S
In104 O115 2.294 . S
In104 O116 2.326 . S
O105 In104 2.294 . S
O105 C114 1.240 . S
O106 In104 2.326 . S
O106 C114 1.252 . S
C107 O110 1.252 . S
C107 O111 1.260 . S
C108 O115 1.240 . S
C108 O116 1.252 . S
C109 O112 1.252 . S
C109 O113 1.260 . S
O110 In104 2.266 . S
O110 C107 1.252 . S
O111 In104 2.326 . S
O111 C107 1.260 . S
O112 In104 2.266 1_565 S
O112 C109 1.252 . S
O113 In104 2.326 1_565 S
O113 C109 1.260 . S
C114 O105 1.240 . S
C114 O106 1.252 . S
O115 In104 2.294 . S
O115 C108 1.240 . S
O116 In104 2.326 . S
O116 C108 1.252 . S
In117 O118 2.294 . S
In117 O119 2.326 . S
In117 O123 2.266 . S
In117 O124 2.326 . S
In117 O125 2.266 . S
In117 O126 2.326 . S
In117 O128 2.294 . S
In117 O129 2.326 . S
O118 In117 2.294 . S
O118 C127 1.240 . S
O119 In117 2.326 . S
O119 C127 1.252 . S
C120 O123 1.252 . S
C120 O124 1.260 . S
C121 O128 1.240 . S
C121 O129 1.252 . S
C122 O125 1.252 . S
C122 O126 1.260 . S
O123 In117 2.266 . S
O123 C120 1.252 . S
O124 In117 2.326 . S
O124 C120 1.260 . S
O125 In117 2.266 . S
O125 C122 1.252 . S
O126 In117 2.326 . S
O126 C122 1.260 . S
C127 O118 1.240 . S
C127 O119 1.252 . S
O128 In117 2.294 . S
O128 C121 1.240 . S
O129 In117 2.326 . S
O129 C121 1.252 . S
In130 O131 2.294 . S
In130 O132 2.326 . S
In130 O136 2.266 . S
In130 O137 2.326 . S
In130 O138 2.266 . S
In130 O139 2.326 . S
In130 O141 2.294 . S
In130 O142 2.326 . S
O131 In130 2.294 . S
O131 C140 1.240 . S
O132 In130 2.326 . S
O132 C140 1.252 . S
C133 O136 1.252 . S
C133 O137 1.260 . S
C134 O141 1.240 . S
C134 O142 1.252 . S
C135 O138 1.252 . S
C135 O139 1.260 . S
O136 In130 2.266 . S
O136 C133 1.252 . S
O137 In130 2.326 . S
O137 C133 1.260 . S
O138 In130 2.266 . S
O138 C135 1.252 . S
O139 In130 2.326 . S
O139 C135 1.260 . S
C140 O131 1.240 . S
C140 O132 1.252 . S
O141 In130 2.294 . S
O141 C134 1.240 . S
O142 In130 2.326 . S
O142 C134 1.252 . S
In143 O144 2.296 . S
In143 O145 2.329 . S
In143 O149 2.264 1_554 S
In143 O150 2.322 1_554 S
In143 O151 2.266 1_554 S
In143 O152 2.323 1_554 S
In143 O154 2.294 . S
In143 O155 2.327 . S
O144 In143 2.296 . S
O144 C153 1.240 . S
O145 In143 2.329 . S
O145 C153 1.252 . S
C146 O149 1.252 . S
C146 O150 1.260 . S
C147 O154 1.240 . S
C147 O155 1.252 . S
C148 O151 1.252 . S
C148 O152 1.257 . S
O149 In143 2.264 1_556 S
O149 C146 1.252 . S
O150 In143 2.322 1_556 S
O150 C146 1.260 . S
O151 In143 2.266 1_556 S
O151 C148 1.252 . S
O152 In143 2.323 1_556 S
O152 C148 1.257 . S
C153 O144 1.240 . S
C153 O145 1.252 . S
O154 In143 2.294 . S
O154 C147 1.240 . S
O155 In143 2.327 . S
O155 C147 1.252 . S
In156 O157 2.294 . S
In156 O158 2.326 . S
In156 O162 2.266 . S
In156 O163 2.326 . S
In156 O164 2.266 . S
In156 O165 2.326 . S
In156 O167 2.294 . S
In156 O168 2.326 . S
O157 In156 2.294 . S
O157 C166 1.240 . S
O158 In156 2.326 . S
O158 C166 1.252 . S
C159 O162 1.233 1_556 S
C159 O163 1.258 1_556 S
C160 O167 1.240 . S
C160 O168 1.252 . S
C161 O164 1.252 . S
C161 O165 1.260 . S
O162 In156 2.266 . S
O162 C159 1.233 1_554 S
O163 In156 2.326 . S
O163 C159 1.258 1_554 S
O164 In156 2.266 . S
O164 C161 1.252 . S
O165 In156 2.326 . S
O165 C161 1.260 . S
C166 O157 1.240 . S
C166 O158 1.252 . S
O167 In156 2.294 . S
O167 C160 1.240 . S
O168 In156 2.326 . S
O168 C160 1.252 . S
In169 O170 2.294 . S
In169 O171 2.326 . S
In169 O175 2.266 . S
In169 O176 2.326 . S
In169 O177 2.266 . S
In169 O178 2.326 . S
In169 O180 2.294 . S
In169 O181 2.326 . S
O170 In169 2.294 . S
O170 C179 1.240 . S
O171 In169 2.326 . S
O171 C179 1.252 . S
C172 O175 1.252 . S
C172 O176 1.260 . S
C173 O180 1.240 . S
C173 O181 1.252 . S
C174 O177 1.252 . S
C174 O178 1.260 . S
O175 In169 2.266 . S
O175 C172 1.252 . S
O176 In169 2.326 . S
O176 C172 1.260 . S
O177 In169 2.266 . S
O177 C174 1.252 . S
O178 In169 2.326 . S
O178 C174 1.260 . S
C179 O170 1.240 . S
C179 O171 1.252 . S
O180 In169 2.294 . S
O180 C173 1.240 . S
O181 In169 2.326 . S
O181 C173 1.252 . S
In182 O183 2.294 . S
In182 O184 2.326 . S
In182 O188 2.266 . S
In182 O189 2.326 . S
In182 O190 2.266 . S
In182 O191 2.326 . S
In182 O193 2.294 . S
In182 O194 2.326 . S
O183 In182 2.294 . S
O183 C192 1.240 . S
O184 In182 2.326 . S
O184 C192 1.252 . S
C185 O188 1.252 . S
C185 O189 1.260 . S
C186 O193 1.240 . S
C186 O194 1.252 . S
C187 O190 1.252 . S
C187 O191 1.260 . S
O188 In182 2.266 . S
O188 C185 1.252 . S
O189 In182 2.326 . S
O189 C185 1.260 . S
O190 In182 2.266 . S
O190 C187 1.252 . S
O191 In182 2.326 . S
O191 C187 1.260 . S
C192 O183 1.240 . S
C192 O184 1.252 . S
O193 In182 2.294 . S
O193 C186 1.240 . S
O194 In182 2.326 . S
O194 C186 1.252 . S
In195 O196 2.294 . S
In195 O197 2.326 . S
In195 O201 2.266 . S
In195 O202 2.326 . S
In195 O203 2.266 . S
In195 O204 2.326 . S
In195 O206 2.294 . S
In195 O207 2.326 . S
O196 In195 2.294 . S
O196 C205 1.240 . S
O197 In195 2.326 . S
O197 C205 1.252 . S
C198 O201 1.252 . S
C198 O202 1.260 . S
C199 O206 1.240 . S
C199 O207 1.252 . S
C200 O203 1.252 . S
C200 O204 1.260 . S
O201 In195 2.266 . S
O201 C198 1.252 . S
O202 In195 2.326 . S
O202 C198 1.260 . S
O203 In195 2.266 . S
O203 C200 1.252 . S
O204 In195 2.326 . S
O204 C200 1.260 . S
C205 O196 1.240 . S
C205 O197 1.252 . S
O206 In195 2.294 . S
O206 C199 1.240 . S
O207 In195 2.326 . S
O207 C199 1.252 . S
In208 O209 2.294 . S
In208 O210 2.326 . S
In208 O214 2.266 . S
In208 O215 2.326 . S
In208 O216 2.266 1_545 S
In208 O217 2.326 1_545 S
In208 O219 2.294 . S
In208 O220 2.326 . S
O209 In208 2.294 . S
O209 C218 1.240 . S
O210 In208 2.326 . S
O210 C218 1.252 . S
C211 O214 1.252 . S
C211 O215 1.260 . S
C212 O219 1.240 . S
C212 O220 1.252 . S
C213 O216 1.252 . S
C213 O217 1.260 . S
O214 In208 2.266 . S
O214 C211 1.252 . S
O215 In208 2.326 . S
O215 C211 1.260 . S
O216 In208 2.266 1_565 S
O216 C213 1.252 . S
O217 In208 2.326 1_565 S
O217 C213 1.260 . S
C218 O209 1.240 . S
C218 O210 1.252 . S
O219 In208 2.294 . S
O219 C212 1.240 . S
O220 In208 2.326 . S
O220 C212 1.252 . S
In221 O222 2.294 . S
In221 O223 2.326 . S
In221 O227 2.266 . S
In221 O228 2.326 . S
In221 O229 2.266 . S
In221 O230 2.326 . S
In221 O232 2.294 . S
In221 O233 2.326 . S
O222 In221 2.294 . S
O222 C231 1.240 . S
O223 In221 2.326 . S
O223 C231 1.252 . S
C224 O227 1.252 . S
C224 O228 1.260 . S
C225 O232 1.240 . S
C225 O233 1.252 . S
C226 O229 1.252 . S
C226 O230 1.260 . S
O227 In221 2.266 . S
O227 C224 1.252 . S
O228 In221 2.326 . S
O228 C224 1.260 . S
O229 In221 2.266 . S
O229 C226 1.252 . S
O230 In221 2.326 . S
O230 C226 1.260 . S
C231 O222 1.240 . S
C231 O223 1.252 . S
O232 In221 2.294 . S
O232 C225 1.240 . S
O233 In221 2.326 . S
O233 C225 1.252 . S
In234 O235 2.294 . S
In234 O236 2.326 . S
In234 O240 2.266 . S
In234 O241 2.326 . S
In234 O242 2.266 . S
In234 O243 2.326 . S
In234 O245 2.294 . S
In234 O246 2.326 . S
O235 In234 2.294 . S
O235 C244 1.240 . S
O236 In234 2.326 . S
O236 C244 1.252 . S
C237 O240 1.252 . S
C237 O241 1.260 . S
C238 O245 1.240 . S
C238 O246 1.252 . S
C239 O242 1.252 . S
C239 O243 1.260 . S
O240 In234 2.266 . S
O240 C237 1.252 . S
O241 In234 2.326 . S
O241 C237 1.260 . S
O242 In234 2.266 . S
O242 C239 1.252 . S
O243 In234 2.326 . S
O243 C239 1.260 . S
C244 O235 1.240 . S
C244 O236 1.252 . S
O245 In234 2.294 . S
O245 C238 1.240 . S
O246 In234 2.326 . S
O246 C238 1.252 . S
In247 O248 2.294 . S
In247 O249 2.326 . S
In247 O253 2.266 . S
In247 O254 2.326 . S
In247 O255 2.266 . S
In247 O256 2.326 . S
In247 O258 2.294 . S
In247 O259 2.326 . S
O248 In247 2.294 . S
O248 C257 1.240 . S
O249 In247 2.326 . S
O249 C257 1.252 . S
C250 O253 1.252 . S
C250 O254 1.260 . S
C251 O258 1.240 . S
C251 O259 1.252 . S
C252 O255 1.252 . S
C252 O256 1.260 . S
O253 In247 2.266 . S
O253 C250 1.252 . S
O254 In247 2.326 . S
O254 C250 1.260 . S
O255 In247 2.266 . S
O255 C252 1.252 . S
O256 In247 2.326 . S
O256 C252 1.260 . S
C257 O248 1.240 . S
C257 O249 1.252 . S
O258 In247 2.294 . S
O258 C251 1.240 . S
O259 In247 2.326 . S
O259 C251 1.252 . S
In260 O261 2.294 . S
In260 O262 2.326 . S
In260 O266 2.266 . S
In260 O267 2.326 . S
In260 O268 2.266 1_554 S
In260 O269 2.326 1_554 S
In260 O271 2.294 . S
In260 O272 2.326 . S
O261 In260 2.294 . S
O261 C270 1.240 . S
O262 In260 2.326 . S
O262 C270 1.252 . S
C263 O266 1.252 . S
C263 O267 1.260 . S
C264 O271 1.240 . S
C264 O272 1.252 . S
C265 O268 1.252 . S
C265 O269 1.260 . S
O266 In260 2.266 . S
O266 C263 1.252 . S
O267 In260 2.326 . S
O267 C263 1.260 . S
O268 In260 2.266 1_556 S
O268 C265 1.252 . S
O269 In260 2.326 1_556 S
O269 C265 1.260 . S
C270 O261 1.240 . S
C270 O262 1.252 . S
O271 In260 2.294 . S
O271 C264 1.240 . S
O272 In260 2.326 . S
O272 C264 1.252 . S
In273 O274 2.294 . S
In273 O275 2.326 . S
In273 O279 2.266 . S
In273 O280 2.326 . S
In273 O281 2.266 . S
In273 O282 2.326 . S
In273 O284 2.294 . S
In273 O285 2.326 . S
O274 In273 2.294 . S
O274 C283 1.240 . S
O275 In273 2.326 . S
O275 C283 1.252 . S
C276 O279 1.252 . S
C276 O280 1.260 . S
C277 O284 1.240 . S
C277 O285 1.252 . S
C278 O281 1.252 . S
C278 O282 1.260 . S
O279 In273 2.266 . S
O279 C276 1.252 . S
O280 In273 2.326 . S
O280 C276 1.260 . S
O281 In273 2.266 . S
O281 C278 1.252 . S
O282 In273 2.326 . S
O282 C278 1.260 . S
C283 O274 1.240 . S
C283 O275 1.252 . S
O284 In273 2.294 . S
O284 C277 1.240 . S
O285 In273 2.326 . S
O285 C277 1.252 . S
In286 O287 2.294 . S
In286 O288 2.326 . S
In286 O292 2.266 . S
In286 O293 2.326 . S
In286 O294 2.266 . S
In286 O295 2.326 . S
In286 O297 2.294 . S
In286 O298 2.326 . S
O287 In286 2.294 . S
O287 C296 1.240 . S
O288 In286 2.326 . S
O288 C296 1.252 . S
C289 O292 1.252 . S
C289 O293 1.260 . S
C290 O297 1.240 . S
C290 O298 1.252 . S
C291 O294 1.252 . S
C291 O295 1.260 . S
O292 In286 2.266 . S
O292 C289 1.252 . S
O293 In286 2.326 . S
O293 C289 1.260 . S
O294 In286 2.266 . S
O294 C291 1.252 . S
O295 In286 2.326 . S
O295 C291 1.260 . S
C296 O287 1.240 . S
C296 O288 1.252 . S
O297 In286 2.294 . S
O297 C290 1.240 . S
O298 In286 2.326 . S
O298 C290 1.252 . S
In299 O300 2.294 . S
In299 O301 2.326 . S
In299 O305 2.266 . S
In299 O306 2.326 . S
In299 O307 2.266 . S
In299 O308 2.326 . S
In299 O310 2.294 . S
In299 O311 2.326 . S
O300 In299 2.294 . S
O300 C309 1.240 . S
O301 In299 2.326 . S
O301 C309 1.252 . S
C302 O305 1.252 . S
C302 O306 1.260 . S
C303 O310 1.240 . S
C303 O311 1.252 . S
C304 O307 1.252 . S
C304 O308 1.260 . S
O305 In299 2.266 . S
O305 C302 1.252 . S
O306 In299 2.326 . S
O306 C302 1.260 . S
O307 In299 2.266 . S
O307 C304 1.252 . S
O308 In299 2.326 . S
O308 C304 1.260 . S
C309 O300 1.240 . S
C309 O301 1.252 . S
O310 In299 2.294 . S
O310 C303 1.240 . S
O311 In299 2.326 . S
O311 C303 1.252 . S
C312 C314 1.422 1_556 S
C312 C316 1.415 . S
C312 N318 1.369 . S
C313 C314 1.421 . S
C313 C315 1.417 . S
C313 C325 1.422 . S
C314 C312 1.422 1_554 S
C314 C313 1.421 . S
C314 N324 1.359 . S
C315 C313 1.417 . S
C315 C317 1.329 1_554 S
C315 H334 0.930 . S
C316 C312 1.415 . S
C316 C317 1.437 . S
C316 C320 1.413 . S
C317 C315 1.329 1_556 S
C317 C316 1.437 . S
C317 H339 0.929 . S
N318 C312 1.369 . S
N318 C319 1.342 . S
N318 Gd323 2.622 1_666 S
C319 N318 1.342 . S
C319 C321 1.406 . S
C319 H331 0.898 1_665 S
C320 C316 1.413 . S
C320 C321 1.348 . S
C320 H336 0.931 . S
C321 C319 1.406 . S
C321 C320 1.348 . S
C321 H337 0.930 . S
Gd322 N342 2.622 . S
Gd322 N349 2.570 . S
Gd322 O356 2.353 . S
Gd322 O357 2.468 . S
Gd322 O358 2.427 . S
Gd322 O360 2.388 . S
Gd322 O361 2.386 . S
Gd322 O365 2.307 . S
Gd322 C375 2.805 . S
Gd323 N318 2.622 1_444 S
Gd323 N324 2.570 1_445 S
Gd323 O355 2.386 . S
Gd323 O359 2.307 . S
Gd323 O362 2.353 . S
Gd323 O363 2.468 1_455 S
Gd323 O364 2.427 1_455 S
Gd323 O366 2.388 1_554 S
Gd323 C387 2.805 1_455 S
N324 C314 1.359 . S
N324 Gd323 2.570 1_665 S
N324 C326 1.343 . S
C325 C313 1.422 . S
C325 C327 1.321 . S
C325 H333 0.931 . S
C326 N324 1.343 . S
C326 C327 1.390 . S
C326 H328 0.931 1_565 S
C327 C325 1.321 . S
C327 C326 1.390 . S
C327 H329 0.930 . S
H328 C326 0.931 1_545 S
H329 C327 0.930 . S
H330 C353 0.931 . S
H331 C319 0.898 1_445 S
H332 C354 0.930 . S
H333 C325 0.931 . S
H334 C315 0.930 . S
H335 C344 0.929 . S
H336 C320 0.931 . S
H337 C321 0.930 . S
H338 C376 0.930 . S
H339 C317 0.929 . S
H340 C345 0.931 . S
H341 C346 0.930 . S
N342 Gd322 2.622 . S
N342 C343 1.369 . S
N342 C344 1.338 . S
C343 N342 1.369 . S
C343 C347 1.415 . S
C343 C350 1.422 . S
C344 H335 0.929 . S
C344 N342 1.338 . S
C344 C346 1.378 . S
C345 H340 0.931 . S
C345 C346 1.348 . S
C345 C347 1.413 . S
C346 H341 0.930 . S
C346 C344 1.378 . S
C346 C345 1.348 . S
C347 C343 1.415 . S
C347 C345 1.413 . S
C347 C377 1.437 . S
H348 C377 0.929 . S
N349 Gd322 2.570 . S
N349 C350 1.359 . S
N349 C353 1.343 . S
C350 C343 1.422 . S
C350 N349 1.359 . S
C350 C352 1.421 . S
C351 C352 1.422 . S
C351 C354 1.321 . S
C351 H378 0.931 . S
C352 C350 1.421 . S
C352 C351 1.422 . S
C352 C376 1.417 . S
C353 H330 0.931 . S
C353 N349 1.343 . S
C353 C354 1.390 . S
C354 H332 0.930 . S
C354 C351 1.321 . S
C354 C353 1.390 . S
O355 Gd323 2.386 . S
O355 C367 1.283 . S
O356 Gd322 2.353 . S
O356 C367 1.269 . S
O357 Gd322 2.468 . S
O357 C375 1.263 . S
O358 Gd322 2.427 . S
O358 C375 1.252 . S
O359 Gd323 2.307 . S
O359 C368 1.261 . S
O360 Gd322 2.388 . S
O360 C368 1.252 . S
O361 Gd322 2.386 . S
O361 C379 1.265 . S
O362 Gd323 2.353 . S
O362 C379 1.242 . S
O363 Gd323 2.468 1_655 S
O363 C387 1.263 . S
O364 Gd323 2.427 1_655 S
O364 C387 1.252 . S
O365 Gd322 2.307 . S
O365 C380 1.261 . S
O366 Gd323 2.388 1_556 S
O366 C380 1.252 1_556 S
C367 O355 1.283 . S
C367 O356 1.269 . S
C368 O359 1.261 . S
C368 O360 1.252 . S
C369 C372 1.394 . S
C369 C374 1.370 . S
C369 C375 1.500 . S
C370 C373 1.383 . S
C370 C374 1.395 . S
C371 C372 1.396 . S
C371 C373 1.365 . S
C371 H388 0.929 . S
C372 C369 1.394 . S
C372 C371 1.396 . S
C372 H389 0.930 . S
C373 C370 1.383 . S
C373 C371 1.365 . S
C373 H390 0.931 . S
C374 C369 1.370 . S
C374 C370 1.395 . S
C374 H391 0.930 . S
C375 Gd322 2.805 . S
C375 O357 1.263 . S
C375 O358 1.252 . S
C375 C369 1.500 . S
C376 H338 0.930 . S
C376 C352 1.417 . S
C376 C377 1.329 . S
C377 C347 1.437 . S
C377 H348 0.929 . S
C377 C376 1.329 . S
H378 C351 0.931 . S
C379 O361 1.265 . S
C379 O362 1.242 . S
C380 O365 1.261 . S
C380 O366 1.252 1_554 S
C381 C384 1.394 1_554 S
C381 C386 1.370 . S
C381 C387 1.500 . S
C382 C385 1.383 . S
C382 C386 1.395 . S
C383 C384 1.396 . S
C383 C385 1.365 1_556 S
C383 H392 0.929 . S
C384 C381 1.394 1_556 S
C384 C383 1.396 . S
C384 H393 0.930 . S
C385 C382 1.383 . S
C385 C383 1.365 1_554 S
C385 H394 0.931 . S
C386 C381 1.370 . S
C386 C382 1.395 . S
C386 H395 0.930 . S
C387 Gd323 2.805 1_655 S
C387 O363 1.263 . S
C387 O364 1.252 . S
C387 C381 1.500 . S
H388 C371 0.929 . S
H389 C372 0.930 . S
H390 C373 0.931 . S
H391 C374 0.930 . S
H392 C383 0.929 . S
H393 C384 0.930 . S
H394 C385 0.931 . S
H395 C386 0.930 . S
C396 C398 1.422 . S
C396 C400 1.415 . S
C396 N402 1.369 . S
C397 C398 1.421 . S
C397 C399 1.417 . S
C397 C409 1.422 . S
C398 C396 1.422 . S
C398 C397 1.421 . S
C398 N408 1.359 . S
C399 C397 1.417 . S
C399 C401 1.329 . S
C399 H418 0.930 . S
C400 C396 1.415 . S
C400 C401 1.437 . S
C400 C404 1.413 . S
C401 C399 1.329 . S
C401 C400 1.437 . S
C401 H423 0.929 . S
N402 C396 1.369 . S
N402 C403 1.338 . S
N402 Gd407 2.622 . S
C403 N402 1.338 . S
C403 C405 1.378 . S
C403 H415 0.929 . S
C404 C400 1.413 . S
C404 C405 1.348 . S
C404 H420 0.931 . S
C405 C403 1.378 . S
C405 C404 1.348 . S
C405 H421 0.930 . S
Gd406 N426 2.622 . S
Gd406 N433 2.570 . S
Gd406 O440 2.353 . S
Gd406 O441 2.468 . S
Gd406 O442 2.427 . S
Gd406 O444 2.388 . S
Gd406 O445 2.386 . S
Gd406 O449 2.307 . S
Gd406 C459 2.805 . S
Gd407 N402 2.622 . S
Gd407 N408 2.570 . S
Gd407 O439 2.386 . S
Gd407 O443 2.307 . S
Gd407 O446 2.353 . S
Gd407 O447 2.468 . S
Gd407 O448 2.427 . S
Gd407 O450 2.388 . S
Gd407 C471 2.805 . S
N408 C398 1.359 . S
N408 Gd407 2.570 . S
N408 C410 1.343 . S
C409 C397 1.422 . S
C409 C411 1.321 . S
C409 H417 0.931 . S
C410 N408 1.343 . S
C410 C411 1.390 . S
C410 H412 0.931 . S
C411 C409 1.321 . S
C411 C410 1.390 . S
C411 H413 0.930 . S
H412 C410 0.931 . S
H413 C411 0.930 . S
H414 C437 0.931 . S
H415 C403 0.929 . S
H416 C438 0.930 . S
H417 C409 0.931 . S
H418 C399 0.930 . S
H419 C428 0.929 . S
H420 C404 0.931 . S
H421 C405 0.930 . S
H422 C460 0.930 . S
H423 C401 0.929 . S
H424 C429 0.931 . S
H425 C430 0.930 . S
N426 Gd406 2.622 . S
N426 C427 1.369 . S
N426 C428 1.338 . S
C427 N426 1.369 . S
C427 C431 1.415 . S
C427 C434 1.422 . S
C428 H419 0.929 . S
C428 N426 1.338 . S
C428 C430 1.378 . S
C429 H424 0.931 . S
C429 C430 1.348 . S
C429 C431 1.413 . S
C430 H425 0.930 . S
C430 C428 1.378 . S
C430 C429 1.348 . S
C431 C427 1.415 . S
C431 C429 1.413 . S
C431 C461 1.437 . S
H432 C461 0.929 . S
N433 Gd406 2.570 . S
N433 C434 1.359 . S
N433 C437 1.343 . S
C434 C427 1.422 . S
C434 N433 1.359 . S
C434 C436 1.421 . S
C435 C436 1.422 . S
C435 C438 1.321 . S
C435 H462 0.931 . S
C436 C434 1.421 . S
C436 C435 1.422 . S
C436 C460 1.417 . S
C437 H414 0.931 . S
C437 N433 1.343 . S
C437 C438 1.390 . S
C438 H416 0.930 . S
C438 C435 1.321 . S
C438 C437 1.390 . S
O439 Gd407 2.386 . S
O439 C451 1.265 . S
O440 Gd406 2.353 . S
O440 C451 1.242 . S
O441 Gd406 2.468 . S
O441 C459 1.263 . S
O442 Gd406 2.427 . S
O442 C459 1.252 . S
O443 Gd407 2.307 . S
O443 C452 1.261 . S
O444 Gd406 2.388 . S
O444 C452 1.252 . S
O445 Gd406 2.386 . S
O445 C463 1.265 . S
O446 Gd407 2.353 . S
O446 C463 1.242 . S
O447 Gd407 2.468 . S
O447 C471 1.263 . S
O448 Gd407 2.427 . S
O448 C471 1.252 . S
O449 Gd406 2.307 . S
O449 C464 1.261 . S
O450 Gd407 2.388 . S
O450 C464 1.252 . S
C451 O439 1.265 . S
C451 O440 1.242 . S
C452 O443 1.261 . S
C452 O444 1.252 . S
C453 C456 1.394 . S
C453 C458 1.370 . S
C453 C459 1.500 . S
C454 C457 1.383 . S
C454 C458 1.395 . S
C455 C456 1.396 . S
C455 C457 1.365 . S
C455 H472 0.929 . S
C456 C453 1.394 . S
C456 C455 1.396 . S
C456 H473 0.930 . S
C457 C454 1.383 . S
C457 C455 1.365 . S
C457 H474 0.931 . S
C458 C453 1.370 . S
C458 C454 1.395 . S
C458 H475 0.930 . S
C459 Gd406 2.805 . S
C459 O441 1.263 . S
C459 O442 1.252 . S
C459 C453 1.500 . S
C460 H422 0.930 . S
C460 C436 1.417 . S
C460 C461 1.329 . S
C461 C431 1.437 . S
C461 H432 0.929 . S
C461 C460 1.329 . S
H462 C435 0.931 . S
C463 O445 1.265 . S
C463 O446 1.242 . S
C464 O449 1.261 . S
C464 O450 1.252 . S
C465 C468 1.394 . S
C465 C470 1.370 . S
C465 C471 1.500 . S
C466 C469 1.383 . S
C466 C470 1.395 . S
C467 C468 1.396 . S
C467 C469 1.365 . S
C467 H476 0.929 . S
C468 C465 1.394 . S
C468 C467 1.396 . S
C468 H477 0.930 . S
C469 C466 1.383 . S
C469 C467 1.365 . S
C469 H478 0.931 . S
C470 C465 1.370 . S
C470 C466 1.395 . S
C470 H479 0.930 . S
C471 Gd407 2.805 . S
C471 O447 1.263 . S
C471 O448 1.252 . S
C471 C465 1.500 . S
H472 C455 0.929 . S
H473 C456 0.930 . S
H474 C457 0.931 . S
H475 C458 0.930 . S
H476 C467 0.929 . S
H477 C468 0.930 . S
H478 C469 0.931 . S
H479 C470 0.930 . S
C480 C482 1.422 . S
C480 C484 1.415 . S
C480 N486 1.369 . S
C481 C482 1.421 . S
C481 C483 1.417 . S
C481 C493 1.422 . S
C482 C480 1.422 . S
C482 C481 1.421 . S
C482 N492 1.359 . S
C483 C481 1.417 . S
C483 C485 1.329 . S
C483 H502 0.930 . S
C484 C480 1.415 . S
C484 C485 1.437 . S
C484 C488 1.413 . S
C485 C483 1.329 . S
C485 C484 1.437 . S
C485 H507 0.929 . S
N486 C480 1.369 . S
N486 C487 1.338 . S
N486 Gd491 2.622 . S
C487 N486 1.338 . S
C487 C489 1.378 . S
C487 H499 0.929 . S
C488 C484 1.413 . S
C488 C489 1.348 . S
C488 H504 0.931 . S
C489 C487 1.378 . S
C489 C488 1.348 . S
C489 H505 0.930 . S
Gd490 N510 2.622 1_545 S
Gd490 N517 2.570 1_545 S
Gd490 O524 2.353 . S
Gd490 O525 2.468 . S
Gd490 O526 2.427 . S
Gd490 O528 2.388 . S
Gd490 O529 2.386 1_545 S
Gd490 O533 2.307 . S
Gd490 C543 2.805 . S
Gd491 N486 2.622 . S
Gd491 N492 2.570 . S
Gd491 O523 2.386 . S
Gd491 O527 2.307 . S
Gd491 O530 2.353 1_545 S
Gd491 O531 2.468 . S
Gd491 O532 2.427 . S
Gd491 O534 2.388 . S
Gd491 C555 2.805 . S
N492 C482 1.359 . S
N492 Gd491 2.570 . S
N492 C494 1.343 . S
C493 C481 1.422 . S
C493 C495 1.321 . S
C493 H501 0.931 . S
C494 N492 1.343 . S
C494 C495 1.390 . S
C494 H496 0.931 . S
C495 C493 1.321 . S
C495 C494 1.390 . S
C495 H497 0.930 . S
H496 C494 0.931 . S
H497 C495 0.930 . S
H498 C521 0.931 . S
H499 C487 0.929 . S
H500 C522 0.930 . S
H501 C493 0.931 . S
H502 C483 0.930 . S
H503 C512 0.929 1_545 S
H504 C488 0.931 . S
H505 C489 0.930 . S
H506 C544 0.930 . S
H507 C485 0.929 . S
H508 C513 0.931 . S
H509 C514 0.930 . S
N510 Gd490 2.622 1_565 S
N510 C511 1.369 . S
N510 C512 1.338 . S
C511 N510 1.369 . S
C511 C515 1.415 . S
C511 C518 1.422 . S
C512 H503 0.929 1_565 S
C512 N510 1.338 . S
C512 C514 1.378 . S
C513 H508 0.931 . S
C513 C514 1.348 . S
C513 C515 1.413 . S
C514 H509 0.930 . S
C514 C512 1.378 . S
C514 C513 1.348 . S
C515 C511 1.415 . S
C515 C513 1.413 . S
C515 C545 1.437 . S
H516 C545 0.929 . S
N517 Gd490 2.570 1_565 S
N517 C518 1.359 . S
N517 C521 1.343 . S
C518 C511 1.422 . S
C518 N517 1.359 . S
C518 C520 1.421 . S
C519 C520 1.422 . S
C519 C522 1.321 . S
C519 H546 0.931 . S
C520 C518 1.421 . S
C520 C519 1.422 . S
C520 C544 1.417 . S
C521 H498 0.931 . S
C521 N517 1.343 . S
C521 C522 1.390 . S
C522 H500 0.930 . S
C522 C519 1.321 . S
C522 C521 1.390 . S
O523 Gd491 2.386 . S
O523 C535 1.265 . S
O524 Gd490 2.353 . S
O524 C535 1.242 . S
O525 Gd490 2.468 . S
O525 C543 1.263 . S
O526 Gd490 2.427 . S
O526 C543 1.252 . S
O527 Gd491 2.307 . S
O527 C536 1.261 . S
O528 Gd490 2.388 . S
O528 C536 1.252 . S
O529 Gd490 2.386 1_565 S
O529 C547 1.265 . S
O530 Gd491 2.353 1_565 S
O530 C547 1.242 . S
O531 Gd491 2.468 . S
O531 C555 1.263 . S
O532 Gd491 2.427 . S
O532 C555 1.252 . S
O533 Gd490 2.307 . S
O533 C548 1.261 . S
O534 Gd491 2.388 . S
O534 C548 1.252 . S
C535 O523 1.265 . S
C535 O524 1.242 . S
C536 O527 1.261 . S
C536 O528 1.252 . S
C537 C540 1.394 . S
C537 C542 1.370 . S
C537 C543 1.500 . S
C538 C541 1.383 . S
C538 C542 1.395 . S
C539 C540 1.396 . S
C539 C541 1.365 . S
C539 H556 0.929 . S
C540 C537 1.394 . S
C540 C539 1.396 . S
C540 H557 0.930 . S
C541 C538 1.383 . S
C541 C539 1.365 . S
C541 H558 0.931 . S
C542 C537 1.370 . S
C542 C538 1.395 . S
C542 H559 0.930 . S
C543 Gd490 2.805 . S
C543 O525 1.263 . S
C543 O526 1.252 . S
C543 C537 1.500 . S
C544 H506 0.930 . S
C544 C520 1.417 . S
C544 C545 1.329 . S
C545 C515 1.437 . S
C545 H516 0.929 . S
C545 C544 1.329 . S
H546 C519 0.931 . S
C547 O529 1.265 . S
C547 O530 1.242 . S
C548 O533 1.261 . S
C548 O534 1.252 . S
C549 C552 1.394 . S
C549 C554 1.370 . S
C549 C555 1.500 1_565 S
C550 C553 1.383 . S
C550 C554 1.395 . S
C551 C552 1.396 . S
C551 C553 1.365 . S
C551 H560 0.929 . S
C552 C549 1.394 . S
C552 C551 1.396 . S
C552 H561 0.930 . S
C553 C550 1.383 . S
C553 C551 1.365 . S
C553 H562 0.931 . S
C554 C549 1.370 . S
C554 C550 1.395 . S
C554 H563 0.930 . S
C555 Gd491 2.805 . S
C555 O531 1.263 . S
C555 O532 1.252 . S
C555 C549 1.500 1_545 S
H556 C539 0.929 . S
H557 C540 0.930 . S
H558 C541 0.931 . S
H559 C542 0.930 . S
H560 C551 0.929 . S
H561 C552 0.930 . S
H562 C553 0.931 . S
H563 C554 0.930 . S
C564 C566 1.422 . S
C564 C568 1.415 . S
C564 N570 1.369 . S
C565 C566 1.421 . S
C565 C567 1.417 . S
C565 C577 1.422 . S
C566 C564 1.422 . S
C566 C565 1.421 . S
C566 N576 1.359 . S
C567 C565 1.417 . S
C567 C569 1.329 . S
C567 H586 0.930 . S
C568 C564 1.415 . S
C568 C569 1.437 . S
C568 C572 1.413 . S
C569 C567 1.329 . S
C569 C568 1.437 . S
C569 H591 0.929 . S
N570 C564 1.369 . S
N570 C571 1.338 . S
N570 Gd575 2.622 . S
C571 N570 1.338 . S
C571 C573 1.378 . S
C571 H583 0.929 . S
C572 C568 1.413 . S
C572 C573 1.348 . S
C572 H588 0.931 . S
C573 C571 1.378 . S
C573 C572 1.348 . S
C573 H589 0.930 . S
Gd574 N594 2.622 . S
Gd574 N601 2.570 . S
Gd574 O608 2.353 . S
Gd574 O609 2.468 . S
Gd574 O610 2.427 . S
Gd574 O612 2.388 . S
Gd574 O613 2.386 . S
Gd574 O617 2.307 . S
Gd574 C627 2.805 . S
Gd575 N570 2.622 . S
Gd575 N576 2.570 . S
Gd575 O607 2.386 . S
Gd575 O611 2.307 . S
Gd575 O614 2.353 . S
Gd575 O615 2.468 . S
Gd575 O616 2.427 . S
Gd575 O618 2.388 . S
Gd575 C639 2.805 . S
N576 C566 1.359 . S
N576 Gd575 2.570 . S
N576 C578 1.343 . S
C577 C565 1.422 . S
C577 C579 1.321 . S
C577 H585 0.931 . S
C578 N576 1.343 . S
C578 C579 1.390 . S
C578 H580 0.931 . S
C579 C577 1.321 . S
C579 C578 1.390 . S
C579 H581 0.930 . S
H580 C578 0.931 . S
H581 C579 0.930 . S
H582 C605 0.931 . S
H583 C571 0.929 . S
H584 C606 0.930 . S
H585 C577 0.931 . S
H586 C567 0.930 . S
H587 C596 0.929 . S
H588 C572 0.931 . S
H589 C573 0.930 . S
H590 C628 0.930 . S
H591 C569 0.929 . S
H592 C597 0.931 . S
H593 C598 0.930 . S
N594 Gd574 2.622 . S
N594 C595 1.369 . S
N594 C596 1.338 . S
C595 N594 1.369 . S
C595 C599 1.415 . S
C595 C602 1.422 . S
C596 H587 0.929 . S
C596 N594 1.338 . S
C596 C598 1.378 . S
C597 H592 0.931 . S
C597 C598 1.348 . S
C597 C599 1.413 . S
C598 H593 0.930 . S
C598 C596 1.378 . S
C598 C597 1.348 . S
C599 C595 1.415 . S
C599 C597 1.413 . S
C599 C629 1.437 . S
H600 C629 0.929 . S
N601 Gd574 2.570 . S
N601 C602 1.359 . S
N601 C605 1.343 . S
C602 C595 1.422 . S
C602 N601 1.359 . S
C602 C604 1.421 . S
C603 C604 1.422 . S
C603 C606 1.321 . S
C603 H630 0.931 . S
C604 C602 1.421 . S
C604 C603 1.422 . S
C604 C628 1.417 . S
C605 H582 0.931 . S
C605 N601 1.343 . S
C605 C606 1.390 . S
C606 H584 0.930 . S
C606 C603 1.321 . S
C606 C605 1.390 . S
O607 Gd575 2.386 . S
O607 C619 1.265 . S
O608 Gd574 2.353 . S
O608 C619 1.242 . S
O609 Gd574 2.468 . S
O609 C627 1.263 . S
O610 Gd574 2.427 . S
O610 C627 1.252 . S
O611 Gd575 2.307 . S
O611 C620 1.261 . S
O612 Gd574 2.388 . S
O612 C620 1.252 . S
O613 Gd574 2.386 . S
O613 C631 1.265 . S
O614 Gd575 2.353 . S
O614 C631 1.242 . S
O615 Gd575 2.468 . S
O615 C639 1.263 . S
O616 Gd575 2.427 . S
O616 C639 1.252 . S
O617 Gd574 2.307 . S
O617 C632 1.261 . S
O618 Gd575 2.388 . S
O618 C632 1.252 . S
C619 O607 1.265 . S
C619 O608 1.242 . S
C620 O611 1.261 . S
C620 O612 1.252 . S
C621 C624 1.394 . S
C621 C626 1.370 . S
C621 C627 1.500 . S
C622 C625 1.383 . S
C622 C626 1.395 . S
C623 C624 1.396 . S
C623 C625 1.365 . S
C623 H640 0.929 . S
C624 C621 1.394 . S
C624 C623 1.396 . S
C624 H641 0.930 . S
C625 C622 1.383 . S
C625 C623 1.365 . S
C625 H642 0.931 . S
C626 C621 1.370 . S
C626 C622 1.395 . S
C626 H643 0.930 . S
C627 Gd574 2.805 . S
C627 O609 1.263 . S
C627 O610 1.252 . S
C627 C621 1.500 . S
C628 H590 0.930 . S
C628 C604 1.417 . S
C628 C629 1.329 . S
C629 C599 1.437 . S
C629 H600 0.929 . S
C629 C628 1.329 . S
H630 C603 0.931 . S
C631 O613 1.265 . S
C631 O614 1.242 . S
C632 O617 1.261 . S
C632 O618 1.252 . S
C633 C636 1.394 . S
C633 C638 1.370 . S
C633 C639 1.500 . S
C634 C637 1.383 . S
C634 C638 1.395 . S
C635 C636 1.396 . S
C635 C637 1.365 . S
C635 H644 0.929 . S
C636 C633 1.394 . S
C636 C635 1.396 . S
C636 H645 0.930 . S
C637 C634 1.383 . S
C637 C635 1.365 . S
C637 H646 0.931 . S
C638 C633 1.370 . S
C638 C634 1.395 . S
C638 H647 0.930 . S
C639 Gd575 2.805 . S
C639 O615 1.263 . S
C639 O616 1.252 . S
C639 C633 1.500 . S
H640 C623 0.929 . S
H641 C624 0.930 . S
H642 C625 0.931 . S
H643 C626 0.930 . S
H644 C635 0.929 . S
H645 C636 0.930 . S
H646 C637 0.931 . S
H647 C638 0.930 . S
C648 C650 1.422 . S
C648 C652 1.439 . S
C648 N654 1.369 . S
C649 C650 1.421 . S
C649 C651 1.417 . S
C649 C661 1.422 . S
C650 C648 1.422 . S
C650 C649 1.421 . S
C650 N660 1.359 . S
C651 C649 1.417 . S
C651 C653 1.329 . S
C651 H670 0.930 . S
C652 C648 1.439 . S
C652 C653 1.449 . S
C652 C656 1.380 1_455 S
C653 C651 1.329 . S
C653 C652 1.449 . S
C653 H675 0.929 . S
N654 C648 1.369 . S
N654 C655 1.338 1_455 S
N654 Gd659 2.622 . S
C655 N654 1.338 1_655 S
C655 C657 1.378 . S
C655 H667 0.929 . S
C656 C652 1.380 1_655 S
C656 C657 1.348 . S
C656 H672 0.931 . S
C657 C655 1.378 . S
C657 C656 1.348 . S
C657 H673 0.930 . S
Gd658 N678 2.622 . S
Gd658 N685 2.570 . S
Gd658 O692 2.353 1_565 S
Gd658 O693 2.468 . S
Gd658 O694 2.427 . S
Gd658 O696 2.388 1_565 S
Gd658 O697 2.386 1_565 S
Gd658 O701 2.319 . S
Gd658 C711 2.805 . S
Gd659 N654 2.622 . S
Gd659 N660 2.570 . S
Gd659 O691 2.386 . S
Gd659 O695 2.307 . S
Gd659 O698 2.353 . S
Gd659 O699 2.468 . S
Gd659 O700 2.427 . S
Gd659 O702 2.388 1_455 S
Gd659 C723 2.805 . S
N660 C650 1.359 . S
N660 Gd659 2.570 . S
N660 C662 1.343 . S
C661 C649 1.422 . S
C661 C663 1.321 . S
C661 H669 0.931 . S
C662 N660 1.343 . S
C662 C663 1.390 . S
C662 H664 0.931 . S
C663 C661 1.321 . S
C663 C662 1.390 . S
C663 H665 0.930 . S
H664 C662 0.931 . S
H665 C663 0.930 . S
H666 C689 0.931 . S
H667 C655 0.929 . S
H668 C690 0.930 . S
H669 C661 0.931 . S
H670 C651 0.930 . S
H671 C680 0.929 1_545 S
H672 C656 0.931 . S
H673 C657 0.930 . S
H674 C712 0.930 . S
H675 C653 0.929 . S
H676 C681 0.931 . S
H677 C682 0.930 . S
N678 Gd658 2.622 . S
N678 C679 1.369 . S
N678 C680 1.338 . S
C679 N678 1.369 . S
C679 C683 1.415 . S
C679 C686 1.422 . S
C680 H671 0.929 1_565 S
C680 N678 1.338 . S
C680 C682 1.378 . S
C681 H676 0.931 . S
C681 C682 1.348 . S
C681 C683 1.413 . S
C682 H677 0.930 . S
C682 C680 1.378 . S
C682 C681 1.348 . S
C683 C679 1.415 . S
C683 C681 1.413 . S
C683 C713 1.437 . S
H684 C713 0.929 . S
N685 Gd658 2.570 . S
N685 C686 1.359 . S
N685 C689 1.343 . S
C686 C679 1.422 . S
C686 N685 1.359 . S
C686 C688 1.421 . S
C687 C688 1.422 . S
C687 C690 1.321 1_455 S
C687 H714 0.931 1_455 S
C688 C686 1.421 . S
C688 C687 1.422 . S
C688 C712 1.417 . S
C689 H666 0.931 . S
C689 N685 1.343 . S
C689 C690 1.390 1_455 S
C690 H668 0.930 . S
C690 C687 1.321 1_655 S
C690 C689 1.390 1_655 S
O691 Gd659 2.386 . S
O691 C703 1.265 . S
O692 Gd658 2.353 1_545 S
O692 C703 1.242 . S
O693 Gd658 2.468 . S
O693 C711 1.263 . S
O694 Gd658 2.427 . S
O694 C711 1.252 . S
O695 Gd659 2.307 . S
O695 C704 1.261 . S
O696 Gd658 2.388 1_545 S
O696 C704 1.252 . S
O697 Gd658 2.386 1_545 S
O697 C715 1.265 . S
O698 Gd659 2.353 . S
O698 C715 1.242 . S
O699 Gd659 2.468 . S
O699 C723 1.263 . S
O700 Gd659 2.427 . S
O700 C723 1.252 . S
O701 Gd658 2.319 . S
O701 C716 1.243 1_465 S
O702 Gd659 2.388 1_655 S
O702 C716 1.252 . S
C703 O691 1.265 . S
C703 O692 1.242 . S
C704 O695 1.261 . S
C704 O696 1.252 . S
C705 C708 1.394 . S
C705 C710 1.370 . S
C705 C711 1.500 . S
C706 C709 1.383 . S
C706 C710 1.395 . S
C707 C708 1.396 . S
C707 C709 1.365 . S
C707 H724 0.929 . S
C708 C705 1.394 . S
C708 C707 1.396 . S
C708 H725 0.930 . S
C709 C706 1.383 . S
C709 C707 1.365 . S
C709 H726 0.931 . S
C710 C705 1.370 . S
C710 C706 1.395 . S
C710 H727 0.930 . S
C711 Gd658 2.805 . S
C711 O693 1.263 . S
C711 O694 1.252 . S
C711 C705 1.500 . S
C712 H674 0.930 . S
C712 C688 1.417 . S
C712 C713 1.329 . S
C713 C683 1.437 . S
C713 H684 0.929 . S
C713 C712 1.329 . S
H714 C687 0.931 1_655 S
C715 O697 1.265 . S
C715 O698 1.242 . S
C716 O701 1.243 1_645 S
C716 O702 1.252 . S
C717 C720 1.394 1_455 S
C717 C722 1.370 . S
C717 C723 1.500 . S
C718 C721 1.383 . S
C718 C722 1.395 . S
C719 C720 1.396 . S
C719 C721 1.365 1_655 S
C719 H728 0.929 . S
C720 C717 1.394 1_655 S
C720 C719 1.396 . S
C720 H729 0.930 . S
C721 C718 1.383 . S
C721 C719 1.365 1_455 S
C721 H730 0.931 . S
C722 C717 1.370 . S
C722 C718 1.395 . S
C722 H731 0.930 . S
C723 Gd659 2.805 . S
C723 O699 1.263 . S
C723 O700 1.252 . S
C723 C717 1.500 . S
H724 C707 0.929 . S
H725 C708 0.930 . S
H726 C709 0.931 . S
H727 C710 0.930 . S
H728 C719 0.929 . S
H729 C720 0.930 . S
H730 C721 0.931 . S
H731 C722 0.930 . S
C732 C734 1.422 . S
C732 C736 1.415 . S
C732 N738 1.369 . S
C733 C734 1.421 . S
C733 C735 1.417 . S
C733 C745 1.422 . S
C734 C732 1.422 . S
C734 C733 1.421 . S
C734 N744 1.359 . S
C735 C733 1.417 . S
C735 C737 1.329 . S
C735 H754 0.930 . S
C736 C732 1.415 . S
C736 C737 1.437 . S
C736 C740 1.413 . S
C737 C735 1.329 . S
C737 C736 1.437 . S
C737 H759 0.929 . S
N738 C732 1.369 . S
N738 C739 1.338 . S
N738 Gd743 2.622 . S
C739 N738 1.338 . S
C739 C741 1.378 . S
C739 H751 0.929 . S
C740 C736 1.413 . S
C740 C741 1.348 . S
C740 H756 0.931 . S
C741 C739 1.378 . S
C741 C740 1.348 . S
C741 H757 0.930 . S
Gd742 N762 2.622 . S
Gd742 N769 2.570 . S
Gd742 O776 2.353 . S
Gd742 O777 2.468 . S
Gd742 O778 2.427 . S
Gd742 O780 2.388 . S
Gd742 O781 2.386 . S
Gd742 O785 2.307 . S
Gd742 C795 2.805 . S
Gd743 N738 2.622 . S
Gd743 N744 2.570 . S
Gd743 O775 2.386 . S
Gd743 O779 2.307 . S
Gd743 O782 2.353 . S
Gd743 O783 2.468 . S
Gd743 O784 2.427 . S
Gd743 O786 2.388 . S
Gd743 C807 2.805 . S
N744 C734 1.359 . S
N744 Gd743 2.570 . S
N744 C746 1.343 . S
C745 C733 1.422 . S
C745 C747 1.321 . S
C745 H753 0.931 . S
C746 N744 1.343 . S
C746 C747 1.390 . S
C746 H748 0.931 . S
C747 C745 1.321 . S
C747 C746 1.390 . S
C747 H749 0.930 . S
H748 C746 0.931 . S
H749 C747 0.930 . S
H750 C773 0.931 . S
H751 C739 0.929 . S
H752 C774 0.930 . S
H753 C745 0.931 . S
H754 C735 0.930 . S
H755 C764 0.929 . S
H756 C740 0.931 . S
H757 C741 0.930 . S
H758 C796 0.930 . S
H759 C737 0.929 . S
H760 C765 0.931 . S
H761 C766 0.930 . S
N762 Gd742 2.622 . S
N762 C763 1.369 . S
N762 C764 1.338 . S
C763 N762 1.369 . S
C763 C767 1.415 . S
C763 C770 1.422 . S
C764 H755 0.929 . S
C764 N762 1.338 . S
C764 C766 1.378 . S
C765 H760 0.931 . S
C765 C766 1.348 . S
C765 C767 1.413 . S
C766 H761 0.930 . S
C766 C764 1.378 . S
C766 C765 1.348 . S
C767 C763 1.415 . S
C767 C765 1.413 . S
C767 C797 1.437 . S
H768 C797 0.929 . S
N769 Gd742 2.570 . S
N769 C770 1.359 . S
N769 C773 1.343 . S
C770 C763 1.422 . S
C770 N769 1.359 . S
C770 C772 1.421 . S
C771 C772 1.422 . S
C771 C774 1.321 . S
C771 H798 0.931 . S
C772 C770 1.421 . S
C772 C771 1.422 . S
C772 C796 1.417 . S
C773 H750 0.931 . S
C773 N769 1.343 . S
C773 C774 1.390 . S
C774 H752 0.930 . S
C774 C771 1.321 . S
C774 C773 1.390 . S
O775 Gd743 2.386 . S
O775 C787 1.265 . S
O776 Gd742 2.353 . S
O776 C787 1.242 . S
O777 Gd742 2.468 . S
O777 C795 1.263 . S
O778 Gd742 2.427 . S
O778 C795 1.252 . S
O779 Gd743 2.307 . S
O779 C788 1.261 . S
O780 Gd742 2.388 . S
O780 C788 1.252 . S
O781 Gd742 2.386 . S
O781 C799 1.265 . S
O782 Gd743 2.353 . S
O782 C799 1.242 . S
O783 Gd743 2.468 . S
O783 C807 1.263 . S
O784 Gd743 2.427 . S
O784 C807 1.252 . S
O785 Gd742 2.307 . S
O785 C800 1.261 . S
O786 Gd743 2.388 . S
O786 C800 1.252 . S
C787 O775 1.265 . S
C787 O776 1.242 . S
C788 O779 1.261 . S
C788 O780 1.252 . S
C789 C792 1.394 . S
C789 C794 1.370 . S
C789 C795 1.500 . S
C790 C793 1.383 . S
C790 C794 1.395 . S
C791 C792 1.396 . S
C791 C793 1.365 . S
C791 H808 0.929 . S
C792 C789 1.394 . S
C792 C791 1.396 . S
C792 H809 0.930 . S
C793 C790 1.383 . S
C793 C791 1.365 . S
C793 H810 0.931 . S
C794 C789 1.370 . S
C794 C790 1.395 . S
C794 H811 0.930 . S
C795 Gd742 2.805 . S
C795 O777 1.263 . S
C795 O778 1.252 . S
C795 C789 1.500 . S
C796 H758 0.930 . S
C796 C772 1.417 . S
C796 C797 1.329 . S
C797 C767 1.437 . S
C797 H768 0.929 . S
C797 C796 1.329 . S
H798 C771 0.931 . S
C799 O781 1.265 . S
C799 O782 1.242 . S
C800 O785 1.261 . S
C800 O786 1.252 . S
C801 C804 1.394 . S
C801 C806 1.370 . S
C801 C807 1.500 . S
C802 C805 1.383 . S
C802 C806 1.395 . S
C803 C804 1.396 . S
C803 C805 1.365 . S
C803 H812 0.929 . S
C804 C801 1.394 . S
C804 C803 1.396 . S
C804 H813 0.930 . S
C805 C802 1.383 . S
C805 C803 1.365 . S
C805 H814 0.931 . S
C806 C801 1.370 . S
C806 C802 1.395 . S
C806 H815 0.930 . S
C807 Gd743 2.805 . S
C807 O783 1.263 . S
C807 O784 1.252 . S
C807 C801 1.500 . S
H808 C791 0.929 . S
H809 C792 0.930 . S
H810 C793 0.931 . S
H811 C794 0.930 . S
H812 C803 0.929 . S
H813 C804 0.930 . S
H814 C805 0.931 . S
H815 C806 0.930 . S
C816 C818 1.422 . S
C816 C820 1.413 . S
C816 N822 1.369 . S
C817 C818 1.421 . S
C817 C819 1.417 . S
C817 C829 1.422 . S
C818 C816 1.422 . S
C818 C817 1.421 . S
C818 N828 1.359 . S
C819 C817 1.417 . S
C819 C821 1.329 . S
C819 H838 0.930 . S
C820 C816 1.413 . S
C820 C821 1.437 . S
C820 C824 1.415 1_545 S
C821 C819 1.329 . S
C821 C820 1.437 . S
C821 H843 0.929 . S
N822 C816 1.369 . S
N822 C823 1.338 1_545 S
N822 Gd827 2.622 . S
C823 N822 1.338 1_565 S
C823 C825 1.378 . S
C823 H835 0.929 . S
C824 C820 1.415 1_565 S
C824 C825 1.348 . S
C824 H840 0.931 . S
C825 C823 1.378 . S
C825 C824 1.348 . S
C825 H841 0.930 . S
Gd826 N846 2.622 . S
Gd826 N853 2.570 . S
Gd826 O860 2.353 1_556 S
Gd826 O861 2.468 . S
Gd826 O862 2.427 . S
Gd826 O864 2.388 1_556 S
Gd826 O865 2.386 1_556 S
Gd826 O869 2.307 . S
Gd826 C879 2.805 . S
Gd827 N822 2.622 . S
Gd827 N828 2.570 . S
Gd827 O859 2.386 . S
Gd827 O863 2.307 . S
Gd827 O866 2.353 . S
Gd827 O867 2.468 . S
Gd827 O868 2.430 1_545 S
Gd827 O870 2.362 1_545 S
Gd827 C891 2.805 . S
N828 C818 1.359 . S
N828 Gd827 2.570 . S
N828 C830 1.343 . S
C829 C817 1.422 . S
C829 C831 1.321 . S
C829 H837 0.931 . S
C830 N828 1.343 . S
C830 C831 1.390 . S
C830 H832 0.931 . S
C831 C829 1.321 . S
C831 C830 1.390 . S
C831 H833 0.930 . S
H832 C830 0.931 . S
H833 C831 0.930 . S
H834 C857 0.931 . S
H835 C823 0.929 . S
H836 C858 0.930 1_565 S
H837 C829 0.931 . S
H838 C819 0.930 . S
H839 C848 0.929 . S
H840 C824 0.931 . S
H841 C825 0.930 . S
H842 C880 0.930 . S
H843 C821 0.929 . S
H844 C849 0.931 . S
H845 C850 0.930 . S
N846 Gd826 2.622 . S
N846 C847 1.369 . S
N846 C848 1.338 . S
C847 N846 1.369 . S
C847 C851 1.415 . S
C847 C854 1.422 . S
C848 H839 0.929 . S
C848 N846 1.338 . S
C848 C850 1.378 . S
C849 H844 0.931 . S
C849 C850 1.348 . S
C849 C851 1.413 . S
C850 H845 0.930 . S
C850 C848 1.378 . S
C850 C849 1.348 . S
C851 C847 1.415 . S
C851 C849 1.413 . S
C851 C881 1.437 . S
H852 C881 0.929 . S
N853 Gd826 2.570 . S
N853 C854 1.359 . S
N853 C857 1.343 . S
C854 C847 1.422 . S
C854 N853 1.359 . S
C854 C856 1.421 . S
C855 C856 1.422 . S
C855 C858 1.321 . S
C855 H882 0.931 . S
C856 C854 1.421 . S
C856 C855 1.422 . S
C856 C880 1.417 . S
C857 H834 0.931 . S
C857 N853 1.343 . S
C857 C858 1.390 . S
C858 H836 0.930 1_545 S
C858 C855 1.321 . S
C858 C857 1.390 . S
O859 Gd827 2.386 . S
O859 C871 1.265 . S
O860 Gd826 2.353 1_554 S
O860 C871 1.242 . S
O861 Gd826 2.468 . S
O861 C879 1.263 . S
O862 Gd826 2.427 . S
O862 C879 1.252 . S
O863 Gd827 2.307 . S
O863 C872 1.261 . S
O864 Gd826 2.388 1_554 S
O864 C872 1.252 . S
O865 Gd826 2.386 1_554 S
O865 C883 1.265 . S
O866 Gd827 2.353 . S
O866 C883 1.242 . S
O867 Gd827 2.468 . S
O867 C891 1.263 . S
O868 Gd827 2.430 1_565 S
O868 C891 1.256 1_565 S
O869 Gd826 2.307 . S
O869 C884 1.261 . S
O870 Gd827 2.362 1_565 S
O870 C884 1.238 1_564 S
C871 O859 1.265 . S
C871 O860 1.242 . S
C872 O863 1.261 . S
C872 O864 1.252 . S
C873 C876 1.394 . S
C873 C878 1.370 . S
C873 C879 1.500 . S
C874 C877 1.383 . S
C874 C878 1.395 . S
C875 C876 1.396 . S
C875 C877 1.365 . S
C875 H892 0.929 . S
C876 C873 1.394 . S
C876 C875 1.396 . S
C876 H893 0.930 . S
C877 C874 1.383 . S
C877 C875 1.365 . S
C877 H894 0.931 . S
C878 C873 1.370 . S
C878 C874 1.395 . S
C878 H895 0.930 . S
C879 Gd826 2.805 . S
C879 O861 1.263 . S
C879 O862 1.252 . S
C879 C873 1.500 . S
C880 H842 0.930 . S
C880 C856 1.417 . S
C880 C881 1.329 . S
C881 C851 1.437 . S
C881 H852 0.929 . S
C881 C880 1.329 . S
H882 C855 0.931 . S
C883 O865 1.265 . S
C883 O866 1.242 . S
C884 O869 1.261 . S
C884 O870 1.238 1_546 S
C885 C888 1.394 1_545 S
C885 C890 1.370 . S
C885 C891 1.500 . S
C886 C889 1.383 1_545 S
C886 C890 1.395 . S
C887 C888 1.396 . S
C887 C889 1.365 . S
C887 H896 0.929 . S
C888 C885 1.394 1_565 S
C888 C887 1.396 . S
C888 H897 0.930 . S
C889 C886 1.383 1_565 S
C889 C887 1.365 . S
C889 H898 0.931 . S
C890 C885 1.370 . S
C890 C886 1.395 . S
C890 H899 0.930 . S
C891 Gd827 2.805 . S
C891 O867 1.263 . S
C891 O868 1.256 1_545 S
C891 C885 1.500 . S
H892 C875 0.929 . S
H893 C876 0.930 . S
H894 C877 0.931 . S
H895 C878 0.930 . S
H896 C887 0.929 . S
H897 C888 0.930 . S
H898 C889 0.931 . S
H899 C890 0.930 . S
C900 C902 1.422 . S
C900 C904 1.415 . S
C900 N906 1.369 . S
C901 C902 1.421 . S
C901 C903 1.417 . S
C901 C913 1.422 . S
C902 C900 1.422 . S
C902 C901 1.421 . S
C902 N912 1.359 . S
C903 C901 1.417 . S
C903 C905 1.329 . S
C903 H922 0.930 . S
C904 C900 1.415 . S
C904 C905 1.437 . S
C904 C908 1.413 . S
C905 C903 1.329 . S
C905 C904 1.437 . S
C905 H927 0.929 . S
N906 C900 1.369 . S
N906 C907 1.338 . S
N906 Gd911 2.622 . S
C907 N906 1.338 . S
C907 C909 1.378 . S
C907 H919 0.929 . S
C908 C904 1.413 . S
C908 C909 1.348 . S
C908 H924 0.931 . S
C909 C907 1.378 . S
C909 C908 1.348 . S
C909 H925 0.930 . S
Gd910 N930 2.622 . S
Gd910 N937 2.570 . S
Gd910 O944 2.353 . S
Gd910 O945 2.468 . S
Gd910 O946 2.427 . S
Gd910 O948 2.388 . S
Gd910 O949 2.386 . S
Gd910 O953 2.307 . S
Gd910 C963 2.805 . S
Gd911 N906 2.622 . S
Gd911 N912 2.570 . S
Gd911 O943 2.386 . S
Gd911 O947 2.307 . S
Gd911 O950 2.353 . S
Gd911 O951 2.468 . S
Gd911 O952 2.427 . S
Gd911 O954 2.388 . S
Gd911 C975 2.805 . S
N912 C902 1.359 . S
N912 Gd911 2.570 . S
N912 C914 1.343 . S
C913 C901 1.422 . S
C913 C915 1.321 . S
C913 H921 0.931 . S
C914 N912 1.343 . S
C914 C915 1.390 . S
C914 H916 0.931 . S
C915 C913 1.321 . S
C915 C914 1.390 . S
C915 H917 0.930 . S
H916 C914 0.931 . S
H917 C915 0.930 . S
H918 C941 0.931 . S
H919 C907 0.929 . S
H920 C942 0.930 . S
H921 C913 0.931 . S
H922 C903 0.930 . S
H923 C932 0.929 . S
H924 C908 0.931 . S
H925 C909 0.930 . S
H926 C964 0.930 . S
H927 C905 0.929 . S
H928 C933 0.931 . S
H929 C934 0.930 . S
N930 Gd910 2.622 . S
N930 C931 1.369 . S
N930 C932 1.338 . S
C931 N930 1.369 . S
C931 C935 1.415 . S
C931 C938 1.422 . S
C932 H923 0.929 . S
C932 N930 1.338 . S
C932 C934 1.378 . S
C933 H928 0.931 . S
C933 C934 1.348 . S
C933 C935 1.413 . S
C934 H929 0.930 . S
C934 C932 1.378 . S
C934 C933 1.348 . S
C935 C931 1.415 . S
C935 C933 1.413 . S
C935 C965 1.437 . S
H936 C965 0.929 . S
N937 Gd910 2.570 . S
N937 C938 1.359 . S
N937 C941 1.343 . S
C938 C931 1.422 . S
C938 N937 1.359 . S
C938 C940 1.421 . S
C939 C940 1.422 . S
C939 C942 1.321 . S
C939 H966 0.931 . S
C940 C938 1.421 . S
C940 C939 1.422 . S
C940 C964 1.417 . S
C941 H918 0.931 . S
C941 N937 1.343 . S
C941 C942 1.390 . S
C942 H920 0.930 . S
C942 C939 1.321 . S
C942 C941 1.390 . S
O943 Gd911 2.386 . S
O943 C955 1.265 . S
O944 Gd910 2.353 . S
O944 C955 1.242 . S
O945 Gd910 2.468 . S
O945 C963 1.263 . S
O946 Gd910 2.427 . S
O946 C963 1.252 . S
O947 Gd911 2.307 . S
O947 C956 1.261 . S
O948 Gd910 2.388 . S
O948 C956 1.252 . S
O949 Gd910 2.386 . S
O949 C967 1.265 . S
O950 Gd911 2.353 . S
O950 C967 1.242 . S
O951 Gd911 2.468 . S
O951 C975 1.263 . S
O952 Gd911 2.427 . S
O952 C975 1.252 . S
O953 Gd910 2.307 . S
O953 C968 1.261 . S
O954 Gd911 2.388 . S
O954 C968 1.252 . S
C955 O943 1.265 . S
C955 O944 1.242 . S
C956 O947 1.261 . S
C956 O948 1.252 . S
C957 C960 1.394 . S
C957 C962 1.370 . S
C957 C963 1.500 . S
C958 C961 1.383 . S
C958 C962 1.395 . S
C959 C960 1.396 . S
C959 C961 1.365 . S
C959 H976 0.929 . S
C960 C957 1.394 . S
C960 C959 1.396 . S
C960 H977 0.930 . S
C961 C958 1.383 . S
C961 C959 1.365 . S
C961 H978 0.931 . S
C962 C957 1.370 . S
C962 C958 1.395 . S
C962 H979 0.930 . S
C963 Gd910 2.805 . S
C963 O945 1.263 . S
C963 O946 1.252 . S
C963 C957 1.500 . S
C964 H926 0.930 . S
C964 C940 1.417 . S
C964 C965 1.329 . S
C965 C935 1.437 . S
C965 H936 0.929 . S
C965 C964 1.329 . S
H966 C939 0.931 . S
C967 O949 1.265 . S
C967 O950 1.242 . S
C968 O953 1.261 . S
C968 O954 1.252 . S
C969 C972 1.394 . S
C969 C974 1.370 . S
C969 C975 1.500 . S
C970 C973 1.383 . S
C970 C974 1.395 . S
C971 C972 1.396 . S
C971 C973 1.365 . S
C971 H980 0.929 . S
C972 C969 1.394 . S
C972 C971 1.396 . S
C972 H981 0.930 . S
C973 C970 1.383 . S
C973 C971 1.365 . S
C973 H982 0.931 . S
C974 C969 1.370 . S
C974 C970 1.395 . S
C974 H983 0.930 . S
C975 Gd911 2.805 . S
C975 O951 1.263 . S
C975 O952 1.252 . S
C975 C969 1.500 . S
H976 C959 0.929 . S
H977 C960 0.930 . S
H978 C961 0.931 . S
H979 C962 0.930 . S
H980 C971 0.929 . S
H981 C972 0.930 . S
H982 C973 0.931 . S
H983 C974 0.930 . S
C984 C986 1.422 . S
C984 C988 1.415 . S
C984 N990 1.369 . S
C985 C986 1.421 . S
C985 C987 1.417 . S
C985 C997 1.422 . S
C986 C984 1.422 . S
C986 C985 1.421 . S
C986 N996 1.359 . S
C987 C985 1.417 . S
C987 C989 1.329 . S
C987 H1006 0.930 . S
C988 C984 1.415 . S
C988 C989 1.437 . S
C988 C992 1.413 . S
C989 C987 1.329 . S
C989 C988 1.437 . S
C989 H1011 0.929 . S
N990 C984 1.369 . S
N990 C991 1.338 . S
N990 Gd995 2.622 . S
C991 N990 1.338 . S
C991 C993 1.378 . S
C991 H1003 0.929 . S
C992 C988 1.413 . S
C992 C993 1.348 . S
C992 H1008 0.931 . S
C993 C991 1.378 . S
C993 C992 1.348 . S
C993 H1009 0.930 . S
Gd994 N1014 2.622 1_554 S
Gd994 N1021 2.570 1_554 S
Gd994 O1028 2.353 . S
Gd994 O1029 2.468 . S
Gd994 O1030 2.427 . S
Gd994 O1032 2.388 . S
Gd994 O1033 2.386 1_554 S
Gd994 O1037 2.307 . S
Gd994 C1047 2.805 . S
Gd995 N990 2.622 . S
Gd995 N996 2.570 . S
Gd995 O1027 2.386 . S
Gd995 O1031 2.307 . S
Gd995 O1034 2.353 1_554 S
Gd995 O1035 2.468 . S
Gd995 O1036 2.427 . S
Gd995 O1038 2.388 . S
Gd995 C1059 2.805 . S
N996 C986 1.359 . S
N996 Gd995 2.570 . S
N996 C998 1.343 . S
C997 C985 1.422 . S
C997 C999 1.321 . S
C997 H1005 0.931 . S
C998 N996 1.343 . S
C998 C999 1.390 . S
C998 H1000 0.931 . S
C999 C997 1.321 . S
C999 C998 1.390 . S
C999 H1001 0.930 . S
H1000 C998 0.931 . S
H1001 C999 0.930 . S
H1002 C1025 0.931 . S
H1003 C991 0.929 . S
H1004 C1026 0.930 . S
H1005 C997 0.931 . S
H1006 C987 0.930 . S
H1007 C1016 0.929 . S
H1008 C992 0.931 . S
H1009 C993 0.930 . S
H1010 C1048 0.930 . S
H1011 C989 0.929 . S
H1012 C1017 0.931 . S
H1013 C1018 0.930 . S
N1014 Gd994 2.622 1_556 S
N1014 C1015 1.369 . S
N1014 C1016 1.338 . S
C1015 N1014 1.369 . S
C1015 C1019 1.415 . S
C1015 C1022 1.422 . S
C1016 H1007 0.929 . S
C1016 N1014 1.338 . S
C1016 C1018 1.378 . S
C1017 H1012 0.931 . S
C1017 C1018 1.348 . S
C1017 C1019 1.413 . S
C1018 H1013 0.930 . S
C1018 C1016 1.378 . S
C1018 C1017 1.348 . S
C1019 C1015 1.415 . S
C1019 C1017 1.413 . S
C1019 C1049 1.437 . S
H1020 C1049 0.929 . S
N1021 Gd994 2.570 1_556 S
N1021 C1022 1.359 . S
N1021 C1025 1.343 . S
C1022 C1015 1.422 . S
C1022 N1021 1.359 . S
C1022 C1024 1.421 . S
C1023 C1024 1.422 . S
C1023 C1026 1.321 . S
C1023 H1050 0.931 . S
C1024 C1022 1.421 . S
C1024 C1023 1.422 . S
C1024 C1048 1.417 . S
C1025 H1002 0.931 . S
C1025 N1021 1.343 . S
C1025 C1026 1.390 . S
C1026 H1004 0.930 . S
C1026 C1023 1.321 . S
C1026 C1025 1.390 . S
O1027 Gd995 2.386 . S
O1027 C1039 1.265 . S
O1028 Gd994 2.353 . S
O1028 C1039 1.242 . S
O1029 Gd994 2.468 . S
O1029 C1047 1.263 . S
O1030 Gd994 2.427 . S
O1030 C1047 1.252 . S
O1031 Gd995 2.307 . S
O1031 C1040 1.261 . S
O1032 Gd994 2.388 . S
O1032 C1040 1.252 . S
O1033 Gd994 2.386 1_556 S
O1033 C1051 1.265 . S
O1034 Gd995 2.353 1_556 S
O1034 C1051 1.242 . S
O1035 Gd995 2.468 . S
O1035 C1059 1.263 . S
O1036 Gd995 2.427 . S
O1036 C1059 1.252 . S
O1037 Gd994 2.307 . S
O1037 C1052 1.261 . S
O1038 Gd995 2.388 . S
O1038 C1052 1.252 . S
C1039 O1027 1.265 . S
C1039 O1028 1.242 . S
C1040 O1031 1.261 . S
C1040 O1032 1.252 . S
C1041 C1044 1.394 . S
C1041 C1046 1.370 . S
C1041 C1047 1.500 . S
C1042 C1045 1.383 . S
C1042 C1046 1.395 . S
C1043 C1044 1.396 . S
C1043 C1045 1.365 . S
C1043 H1060 0.929 . S
C1044 C1041 1.394 . S
C1044 C1043 1.396 . S
C1044 H1061 0.930 . S
C1045 C1042 1.383 . S
C1045 C1043 1.365 . S
C1045 H1062 0.931 . S
C1046 C1041 1.370 . S
C1046 C1042 1.395 . S
C1046 H1063 0.930 . S
C1047 Gd994 2.805 . S
C1047 O1029 1.263 . S
C1047 O1030 1.252 . S
C1047 C1041 1.500 . S
C1048 H1010 0.930 . S
C1048 C1024 1.417 . S
C1048 C1049 1.329 . S
C1049 C1019 1.437 . S
C1049 H1020 0.929 . S
C1049 C1048 1.329 . S
H1050 C1023 0.931 . S
C1051 O1033 1.265 . S
C1051 O1034 1.242 . S
C1052 O1037 1.261 . S
C1052 O1038 1.252 . S
C1053 C1056 1.394 . S
C1053 C1058 1.370 . S
C1053 C1059 1.500 1_556 S
C1054 C1057 1.383 . S
C1054 C1058 1.395 . S
C1055 C1056 1.396 . S
C1055 C1057 1.365 . S
C1055 H1064 0.929 . S
C1056 C1053 1.394 . S
C1056 C1055 1.396 . S
C1056 H1065 0.930 . S
C1057 C1054 1.383 . S
C1057 C1055 1.365 . S
C1057 H1066 0.931 . S
C1058 C1053 1.370 . S
C1058 C1054 1.395 . S
C1058 H1067 0.930 . S
C1059 Gd995 2.805 . S
C1059 O1035 1.263 . S
C1059 O1036 1.252 . S
C1059 C1053 1.500 1_554 S
H1060 C1043 0.929 . S
H1061 C1044 0.930 . S
H1062 C1045 0.931 . S
H1063 C1046 0.930 . S
H1064 C1055 0.929 . S
H1065 C1056 0.930 . S
H1066 C1057 0.931 . S
H1067 C1058 0.930 . S
C1068 C1070 1.422 . S
C1068 C1072 1.415 . S
C1068 N1074 1.369 . S
C1069 C1070 1.421 . S
C1069 C1071 1.417 . S
C1069 C1081 1.422 . S
C1070 C1068 1.422 . S
C1070 C1069 1.421 . S
C1070 N1080 1.359 . S
C1071 C1069 1.417 . S
C1071 C1073 1.329 . S
C1071 H1090 0.930 . S
C1072 C1068 1.415 . S
C1072 C1073 1.437 . S
C1072 C1076 1.413 . S
C1073 C1071 1.329 . S
C1073 C1072 1.437 . S
C1073 H1095 0.929 . S
N1074 C1068 1.369 . S
N1074 C1075 1.338 . S
N1074 Gd1079 2.622 . S
C1075 N1074 1.338 . S
C1075 C1077 1.378 . S
C1075 H1087 0.929 . S
C1076 C1072 1.413 . S
C1076 C1077 1.348 . S
C1076 H1092 0.931 . S
C1077 C1075 1.378 . S
C1077 C1076 1.348 . S
C1077 H1093 0.930 . S
Gd1078 N1098 2.622 . S
Gd1078 N1105 2.570 . S
Gd1078 O1112 2.353 . S
Gd1078 O1113 2.468 . S
Gd1078 O1114 2.427 . S
Gd1078 O1116 2.388 . S
Gd1078 O1117 2.386 . S
Gd1078 O1121 2.307 . S
Gd1078 C1131 2.805 . S
Gd1079 N1074 2.622 . S
Gd1079 N1080 2.570 . S
Gd1079 O1111 2.386 . S
Gd1079 O1115 2.307 . S
Gd1079 O1118 2.353 . S
Gd1079 O1119 2.468 . S
Gd1079 O1120 2.427 . S
Gd1079 O1122 2.388 . S
Gd1079 C1143 2.805 . S
N1080 C1070 1.359 . S
N1080 Gd1079 2.570 . S
N1080 C1082 1.343 . S
C1081 C1069 1.422 . S
C1081 C1083 1.321 . S
C1081 H1089 0.931 . S
C1082 N1080 1.343 . S
C1082 C1083 1.390 . S
C1082 H1084 0.931 . S
C1083 C1081 1.321 . S
C1083 C1082 1.390 . S
C1083 H1085 0.930 . S
H1084 C1082 0.931 . S
H1085 C1083 0.930 . S
H1086 C1109 0.931 . S
H1087 C1075 0.929 . S
H1088 C1110 0.930 . S
H1089 C1081 0.931 . S
H1090 C1071 0.930 . S
H1091 C1100 0.929 . S
H1092 C1076 0.931 . S
H1093 C1077 0.930 . S
H1094 C1132 0.930 . S
H1095 C1073 0.929 . S
H1096 C1101 0.931 . S
H1097 C1102 0.930 . S
N1098 Gd1078 2.622 . S
N1098 C1099 1.369 . S
N1098 C1100 1.338 . S
C1099 N1098 1.369 . S
C1099 C1103 1.415 . S
C1099 C1106 1.422 . S
C1100 H1091 0.929 . S
C1100 N1098 1.338 . S
C1100 C1102 1.378 . S
C1101 H1096 0.931 . S
C1101 C1102 1.348 . S
C1101 C1103 1.413 . S
C1102 H1097 0.930 . S
C1102 C1100 1.378 . S
C1102 C1101 1.348 . S
C1103 C1099 1.415 . S
C1103 C1101 1.413 . S
C1103 C1133 1.437 . S
H1104 C1133 0.929 . S
N1105 Gd1078 2.570 . S
N1105 C1106 1.359 . S
N1105 C1109 1.343 . S
C1106 C1099 1.422 . S
C1106 N1105 1.359 . S
C1106 C1108 1.421 . S
C1107 C1108 1.422 . S
C1107 C1110 1.321 . S
C1107 H1134 0.931 . S
C1108 C1106 1.421 . S
C1108 C1107 1.422 . S
C1108 C1132 1.417 . S
C1109 H1086 0.931 . S
C1109 N1105 1.343 . S
C1109 C1110 1.390 . S
C1110 H1088 0.930 . S
C1110 C1107 1.321 . S
C1110 C1109 1.390 . S
O1111 Gd1079 2.386 . S
O1111 C1123 1.265 . S
O1112 Gd1078 2.353 . S
O1112 C1123 1.242 . S
O1113 Gd1078 2.468 . S
O1113 C1131 1.263 . S
O1114 Gd1078 2.427 . S
O1114 C1131 1.252 . S
O1115 Gd1079 2.307 . S
O1115 C1124 1.261 . S
O1116 Gd1078 2.388 . S
O1116 C1124 1.252 . S
O1117 Gd1078 2.386 . S
O1117 C1135 1.265 . S
O1118 Gd1079 2.353 . S
O1118 C1135 1.242 . S
O1119 Gd1079 2.468 . S
O1119 C1143 1.263 . S
O1120 Gd1079 2.427 . S
O1120 C1143 1.252 . S
O1121 Gd1078 2.307 . S
O1121 C1136 1.261 . S
O1122 Gd1079 2.388 . S
O1122 C1136 1.252 . S
C1123 O1111 1.265 . S
C1123 O1112 1.242 . S
C1124 O1115 1.261 . S
C1124 O1116 1.252 . S
C1125 C1128 1.394 . S
C1125 C1130 1.370 . S
C1125 C1131 1.500 . S
C1126 C1129 1.383 . S
C1126 C1130 1.395 . S
C1127 C1128 1.396 . S
C1127 C1129 1.365 . S
C1127 H1144 0.929 . S
C1128 C1125 1.394 . S
C1128 C1127 1.396 . S
C1128 H1145 0.930 . S
C1129 C1126 1.383 . S
C1129 C1127 1.365 . S
C1129 H1146 0.931 . S
C1130 C1125 1.370 . S
C1130 C1126 1.395 . S
C1130 H1147 0.930 . S
C1131 Gd1078 2.805 . S
C1131 O1113 1.263 . S
C1131 O1114 1.252 . S
C1131 C1125 1.500 . S
C1132 H1094 0.930 . S
C1132 C1108 1.417 . S
C1132 C1133 1.329 . S
C1133 C1103 1.437 . S
C1133 H1104 0.929 . S
C1133 C1132 1.329 . S
H1134 C1107 0.931 . S
C1135 O1117 1.265 . S
C1135 O1118 1.242 . S
C1136 O1121 1.261 . S
C1136 O1122 1.252 . S
C1137 C1140 1.394 . S
C1137 C1142 1.370 . S
C1137 C1143 1.500 . S
C1138 C1141 1.383 . S
C1138 C1142 1.395 . S
C1139 C1140 1.396 . S
C1139 C1141 1.365 . S
C1139 H1148 0.929 . S
C1140 C1137 1.394 . S
C1140 C1139 1.396 . S
C1140 H1149 0.930 . S
C1141 C1138 1.383 . S
C1141 C1139 1.365 . S
C1141 H1150 0.931 . S
C1142 C1137 1.370 . S
C1142 C1138 1.395 . S
C1142 H1151 0.930 . S
C1143 Gd1079 2.805 . S
C1143 O1119 1.263 . S
C1143 O1120 1.252 . S
C1143 C1137 1.500 . S
H1144 C1127 0.929 . S
H1145 C1128 0.930 . S
H1146 C1129 0.931 . S
H1147 C1130 0.930 . S
H1148 C1139 0.929 . S
H1149 C1140 0.930 . S
H1150 C1141 0.931 . S
H1151 C1142 0.930 . S
C1152 C1154 1.422 . S
C1152 C1156 1.415 . S
C1152 N1158 1.369 . S
C1153 C1154 1.421 . S
C1153 C1155 1.417 . S
C1153 C1165 1.422 . S
C1154 C1152 1.422 . S
C1154 C1153 1.421 . S
C1154 N1164 1.359 . S
C1155 C1153 1.417 . S
C1155 C1157 1.329 . S
C1155 H1174 0.930 . S
C1156 C1152 1.415 . S
C1156 C1157 1.437 . S
C1156 C1160 1.413 . S
C1157 C1155 1.329 . S
C1157 C1156 1.437 . S
C1157 H1179 0.929 . S
N1158 C1152 1.369 . S
N1158 C1159 1.338 . S
N1158 Gd1163 2.622 . S
C1159 N1158 1.338 . S
C1159 C1161 1.378 . S
C1159 H1171 0.929 . S
C1160 C1156 1.413 . S
C1160 C1161 1.348 . S
C1160 H1176 0.931 . S
C1161 C1159 1.378 . S
C1161 C1160 1.348 . S
C1161 H1177 0.930 . S
Gd1162 N1182 2.622 1_455 S
Gd1162 N1189 2.570 1_455 S
Gd1162 O1196 2.353 . S
Gd1162 O1197 2.468 . S
Gd1162 O1198 2.427 . S
Gd1162 O1200 2.388 . S
Gd1162 O1201 2.386 1_455 S
Gd1162 O1205 2.307 . S
Gd1162 C1215 2.805 . S
Gd1163 N1158 2.622 . S
Gd1163 N1164 2.570 . S
Gd1163 O1195 2.386 . S
Gd1163 O1199 2.307 . S
Gd1163 O1202 2.353 1_455 S
Gd1163 O1203 2.468 . S
Gd1163 O1204 2.427 . S
Gd1163 O1206 2.388 . S
Gd1163 C1227 2.805 1_455 S
N1164 C1154 1.359 . S
N1164 Gd1163 2.570 . S
N1164 C1166 1.343 . S
C1165 C1153 1.422 . S
C1165 C1167 1.321 . S
C1165 H1173 0.931 . S
C1166 N1164 1.343 . S
C1166 C1167 1.390 . S
C1166 H1168 0.931 . S
C1167 C1165 1.321 . S
C1167 C1166 1.390 . S
C1167 H1169 0.930 . S
H1168 C1166 0.931 . S
H1169 C1167 0.930 . S
H1170 C1193 0.931 . S
H1171 C1159 0.929 . S
H1172 C1194 0.930 . S
H1173 C1165 0.931 . S
H1174 C1155 0.930 . S
H1175 C1184 0.929 1_455 S
H1176 C1160 0.931 . S
H1177 C1161 0.930 . S
H1178 C1216 0.930 . S
H1179 C1157 0.929 . S
H1180 C1185 0.931 . S
H1181 C1186 0.930 . S
N1182 Gd1162 2.622 1_655 S
N1182 C1183 1.369 . S
N1182 C1184 1.338 . S
C1183 N1182 1.369 . S
C1183 C1187 1.415 . S
C1183 C1190 1.422 . S
C1184 H1175 0.929 1_655 S
C1184 N1182 1.338 . S
C1184 C1186 1.378 . S
C1185 H1180 0.931 . S
C1185 C1186 1.348 . S
C1185 C1187 1.413 . S
C1186 H1181 0.930 . S
C1186 C1184 1.378 . S
C1186 C1185 1.348 . S
C1187 C1183 1.415 . S
C1187 C1185 1.413 . S
C1187 C1217 1.437 . S
H1188 C1217 0.929 . S
N1189 Gd1162 2.570 1_655 S
N1189 C1190 1.359 . S
N1189 C1193 1.343 . S
C1190 C1183 1.422 . S
C1190 N1189 1.359 . S
C1190 C1192 1.421 . S
C1191 C1192 1.422 . S
C1191 C1194 1.321 . S
C1191 H1218 0.931 . S
C1192 C1190 1.421 . S
C1192 C1191 1.422 . S
C1192 C1216 1.417 . S
C1193 H1170 0.931 . S
C1193 N1189 1.343 . S
C1193 C1194 1.390 . S
C1194 H1172 0.930 . S
C1194 C1191 1.321 . S
C1194 C1193 1.390 . S
O1195 Gd1163 2.386 . S
O1195 C1207 1.265 . S
O1196 Gd1162 2.353 . S
O1196 C1207 1.242 . S
O1197 Gd1162 2.468 . S
O1197 C1215 1.263 . S
O1198 Gd1162 2.427 . S
O1198 C1215 1.252 . S
O1199 Gd1163 2.307 . S
O1199 C1208 1.261 . S
O1200 Gd1162 2.388 . S
O1200 C1208 1.252 . S
O1201 Gd1162 2.386 1_655 S
O1201 C1219 1.265 . S
O1202 Gd1163 2.353 1_655 S
O1202 C1219 1.242 . S
O1203 Gd1163 2.468 . S
O1203 C1227 1.263 1_455 S
O1204 Gd1163 2.427 . S
O1204 C1227 1.252 1_455 S
O1205 Gd1162 2.307 . S
O1205 C1220 1.261 . S
O1206 Gd1163 2.388 . S
O1206 C1220 1.252 . S
C1207 O1195 1.265 . S
C1207 O1196 1.242 . S
C1208 O1199 1.261 . S
C1208 O1200 1.252 . S
C1209 C1212 1.394 . S
C1209 C1214 1.370 . S
C1209 C1215 1.500 . S
C1210 C1213 1.383 . S
C1210 C1214 1.395 . S
C1211 C1212 1.396 . S
C1211 C1213 1.365 . S
C1211 H1228 0.929 . S
C1212 C1209 1.394 . S
C1212 C1211 1.396 . S
C1212 H1229 0.930 . S
C1213 C1210 1.383 . S
C1213 C1211 1.365 . S
C1213 H1230 0.931 . S
C1214 C1209 1.370 . S
C1214 C1210 1.395 . S
C1214 H1231 0.930 . S
C1215 Gd1162 2.805 . S
C1215 O1197 1.263 . S
C1215 O1198 1.252 . S
C1215 C1209 1.500 . S
C1216 H1178 0.930 . S
C1216 C1192 1.417 . S
C1216 C1217 1.329 . S
C1217 C1187 1.437 . S
C1217 H1188 0.929 . S
C1217 C1216 1.329 . S
H1218 C1191 0.931 . S
C1219 O1201 1.265 . S
C1219 O1202 1.242 . S
C1220 O1205 1.261 . S
C1220 O1206 1.252 . S
C1221 C1224 1.394 . S
C1221 C1226 1.370 . S
C1221 C1227 1.500 . S
C1222 C1225 1.383 . S
C1222 C1226 1.395 . S
C1223 C1224 1.396 . S
C1223 C1225 1.365 . S
C1223 H1232 0.929 . S
C1224 C1221 1.394 . S
C1224 C1223 1.396 . S
C1224 H1233 0.930 . S
C1225 C1222 1.383 . S
C1225 C1223 1.365 . S
C1225 H1234 0.931 . S
C1226 C1221 1.370 . S
C1226 C1222 1.395 . S
C1226 H1235 0.930 . S
C1227 Gd1163 2.805 1_655 S
C1227 O1203 1.263 1_655 S
C1227 O1204 1.252 1_655 S
C1227 C1221 1.500 . S
H1228 C1211 0.929 . S
H1229 C1212 0.930 . S
H1230 C1213 0.931 . S
H1231 C1214 0.930 . S
H1232 C1223 0.929 . S
H1233 C1224 0.930 . S
H1234 C1225 0.931 . S
H1235 C1226 0.930 . S
C1236 C1238 1.422 . S
C1236 C1240 1.415 . S
C1236 N1242 1.369 . S
C1237 C1238 1.421 . S
C1237 C1239 1.417 . S
C1237 C1249 1.422 . S
C1238 C1236 1.422 . S
C1238 C1237 1.421 . S
C1238 N1248 1.359 . S
C1239 C1237 1.417 . S
C1239 C1241 1.329 . S
C1239 H1258 0.930 . S
C1240 C1236 1.415 . S
C1240 C1241 1.437 . S
C1240 C1244 1.413 . S
C1241 C1239 1.329 . S
C1241 C1240 1.437 . S
C1241 H1263 0.929 . S
N1242 C1236 1.369 . S
N1242 C1243 1.338 . S
N1242 Gd1247 2.622 . S
C1243 N1242 1.338 . S
C1243 C1245 1.378 . S
C1243 H1255 0.929 . S
C1244 C1240 1.413 . S
C1244 C1245 1.348 . S
C1244 H1260 0.931 . S
C1245 C1243 1.378 . S
C1245 C1244 1.348 . S
C1245 H1261 0.930 . S
Gd1246 N1266 2.622 . S
Gd1246 N1273 2.570 . S
Gd1246 O1280 2.353 . S
Gd1246 O1281 2.468 . S
Gd1246 O1282 2.427 . S
Gd1246 O1284 2.388 . S
Gd1246 O1285 2.386 . S
Gd1246 O1289 2.307 . S
Gd1246 C1299 2.805 . S
Gd1247 N1242 2.622 . S
Gd1247 N1248 2.570 . S
Gd1247 O1279 2.386 . S
Gd1247 O1283 2.307 . S
Gd1247 O1286 2.353 . S
Gd1247 O1287 2.468 . S
Gd1247 O1288 2.427 . S
Gd1247 O1290 2.388 . S
Gd1247 C1311 2.805 . S
N1248 C1238 1.359 . S
N1248 Gd1247 2.570 . S
N1248 C1250 1.343 . S
C1249 C1237 1.422 . S
C1249 C1251 1.321 . S
C1249 H1257 0.931 . S
C1250 N1248 1.343 . S
C1250 C1251 1.390 . S
C1250 H1252 0.931 . S
C1251 C1249 1.321 . S
C1251 C1250 1.390 . S
C1251 H1253 0.930 . S
H1252 C1250 0.931 . S
H1253 C1251 0.930 . S
H1254 C1277 0.931 . S
H1255 C1243 0.929 . S
H1256 C1278 0.930 . S
H1257 C1249 0.931 . S
H1258 C1239 0.930 . S
H1259 C1268 0.929 . S
H1260 C1244 0.931 . S
H1261 C1245 0.930 . S
H1262 C1300 0.930 . S
H1263 C1241 0.929 . S
H1264 C1269 0.931 . S
H1265 C1270 0.930 . S
N1266 Gd1246 2.622 . S
N1266 C1267 1.369 . S
N1266 C1268 1.338 . S
C1267 N1266 1.369 . S
C1267 C1271 1.415 . S
C1267 C1274 1.422 . S
C1268 H1259 0.929 . S
C1268 N1266 1.338 . S
C1268 C1270 1.378 . S
C1269 H1264 0.931 . S
C1269 C1270 1.348 . S
C1269 C1271 1.413 . S
C1270 H1265 0.930 . S
C1270 C1268 1.378 . S
C1270 C1269 1.348 . S
C1271 C1267 1.415 . S
C1271 C1269 1.413 . S
C1271 C1301 1.437 . S
H1272 C1301 0.929 . S
N1273 Gd1246 2.570 . S
N1273 C1274 1.359 . S
N1273 C1277 1.343 . S
C1274 C1267 1.422 . S
C1274 N1273 1.359 . S
C1274 C1276 1.421 . S
C1275 C1276 1.422 . S
C1275 C1278 1.321 . S
C1275 H1302 0.931 . S
C1276 C1274 1.421 . S
C1276 C1275 1.422 . S
C1276 C1300 1.417 . S
C1277 H1254 0.931 . S
C1277 N1273 1.343 . S
C1277 C1278 1.390 . S
C1278 H1256 0.930 . S
C1278 C1275 1.321 . S
C1278 C1277 1.390 . S
O1279 Gd1247 2.386 . S
O1279 C1291 1.265 . S
O1280 Gd1246 2.353 . S
O1280 C1291 1.242 . S
O1281 Gd1246 2.468 . S
O1281 C1299 1.263 . S
O1282 Gd1246 2.427 . S
O1282 C1299 1.252 . S
O1283 Gd1247 2.307 . S
O1283 C1292 1.261 . S
O1284 Gd1246 2.388 . S
O1284 C1292 1.252 . S
O1285 Gd1246 2.386 . S
O1285 C1303 1.265 . S
O1286 Gd1247 2.353 . S
O1286 C1303 1.242 . S
O1287 Gd1247 2.468 . S
O1287 C1311 1.263 . S
O1288 Gd1247 2.427 . S
O1288 C1311 1.252 . S
O1289 Gd1246 2.307 . S
O1289 C1304 1.261 . S
O1290 Gd1247 2.388 . S
O1290 C1304 1.252 . S
C1291 O1279 1.265 . S
C1291 O1280 1.242 . S
C1292 O1283 1.261 . S
C1292 O1284 1.252 . S
C1293 C1296 1.394 . S
C1293 C1298 1.370 . S
C1293 C1299 1.500 . S
C1294 C1297 1.383 . S
C1294 C1298 1.395 . S
C1295 C1296 1.396 . S
C1295 C1297 1.365 . S
C1295 H1312 0.929 . S
C1296 C1293 1.394 . S
C1296 C1295 1.396 . S
C1296 H1313 0.930 . S
C1297 C1294 1.383 . S
C1297 C1295 1.365 . S
C1297 H1314 0.931 . S
C1298 C1293 1.370 . S
C1298 C1294 1.395 . S
C1298 H1315 0.930 . S
C1299 Gd1246 2.805 . S
C1299 O1281 1.263 . S
C1299 O1282 1.252 . S
C1299 C1293 1.500 . S
C1300 H1262 0.930 . S
C1300 C1276 1.417 . S
C1300 C1301 1.329 . S
C1301 C1271 1.437 . S
C1301 H1272 0.929 . S
C1301 C1300 1.329 . S
H1302 C1275 0.931 . S
C1303 O1285 1.265 . S
C1303 O1286 1.242 . S
C1304 O1289 1.261 . S
C1304 O1290 1.252 . S
C1305 C1308 1.394 . S
C1305 C1310 1.370 . S
C1305 C1311 1.500 . S
C1306 C1309 1.383 . S
C1306 C1310 1.395 . S
C1307 C1308 1.396 . S
C1307 C1309 1.365 . S
C1307 H1316 0.929 . S
C1308 C1305 1.394 . S
C1308 C1307 1.396 . S
C1308 H1317 0.930 . S
C1309 C1306 1.383 . S
C1309 C1307 1.365 . S
C1309 H1318 0.931 . S
C1310 C1305 1.370 . S
C1310 C1306 1.395 . S
C1310 H1319 0.930 . S
C1311 Gd1247 2.805 . S
C1311 O1287 1.263 . S
C1311 O1288 1.252 . S
C1311 C1305 1.500 . S
H1312 C1295 0.929 . S
H1313 C1296 0.930 . S
H1314 C1297 0.931 . S
H1315 C1298 0.930 . S
H1316 C1307 0.929 . S
H1317 C1308 0.930 . S
H1318 C1309 0.931 . S
H1319 C1310 0.930 . S
C1320 C1322 1.422 . S
C1320 C1324 1.415 . S
C1320 N1326 1.369 . S
C1321 C1322 1.421 . S
C1321 C1323 1.417 . S
C1321 C1333 1.422 . S
C1322 C1320 1.422 . S
C1322 C1321 1.421 . S
C1322 N1332 1.359 . S
C1323 C1321 1.417 . S
C1323 C1325 1.329 . S
C1323 H1342 0.930 . S
C1324 C1320 1.415 . S
C1324 C1325 1.437 . S
C1324 C1328 1.413 . S
C1325 C1323 1.329 . S
C1325 C1324 1.437 . S
C1325 H1347 0.929 . S
N1326 C1320 1.369 . S
N1326 C1327 1.338 . S
N1326 Gd1331 2.622 . S
C1327 N1326 1.338 . S
C1327 C1329 1.378 . S
C1327 H1339 0.929 . S
C1328 C1324 1.413 . S
C1328 C1329 1.348 . S
C1328 H1344 0.931 . S
C1329 C1327 1.378 . S
C1329 C1328 1.348 . S
C1329 H1345 0.930 . S
Gd1330 N1350 2.622 . S
Gd1330 N1357 2.570 . S
Gd1330 O1364 2.353 . S
Gd1330 O1365 2.468 . S
Gd1330 O1366 2.427 . S
Gd1330 O1368 2.388 . S
Gd1330 O1369 2.386 . S
Gd1330 O1373 2.307 . S
Gd1330 C1383 2.805 . S
Gd1331 N1326 2.622 . S
Gd1331 N1332 2.570 . S
Gd1331 O1363 2.386 . S
Gd1331 O1367 2.307 . S
Gd1331 O1370 2.353 . S
Gd1331 O1371 2.468 . S
Gd1331 O1372 2.427 . S
Gd1331 O1374 2.388 . S
Gd1331 C1395 2.805 . S
N1332 C1322 1.359 . S
N1332 Gd1331 2.570 . S
N1332 C1334 1.343 . S
C1333 C1321 1.422 . S
C1333 C1335 1.321 . S
C1333 H1341 0.931 . S
C1334 N1332 1.343 . S
C1334 C1335 1.390 . S
C1334 H1336 0.931 . S
C1335 C1333 1.321 . S
C1335 C1334 1.390 . S
C1335 H1337 0.930 . S
H1336 C1334 0.931 . S
H1337 C1335 0.930 . S
H1338 C1361 0.931 . S
H1339 C1327 0.929 . S
H1340 C1362 0.930 . S
H1341 C1333 0.931 . S
H1342 C1323 0.930 . S
H1343 C1352 0.929 . S
H1344 C1328 0.931 . S
H1345 C1329 0.930 . S
H1346 C1384 0.930 . S
H1347 C1325 0.929 . S
H1348 C1353 0.931 . S
H1349 C1354 0.930 . S
N1350 Gd1330 2.622 . S
N1350 C1351 1.369 . S
N1350 C1352 1.338 . S
C1351 N1350 1.369 . S
C1351 C1355 1.415 . S
C1351 C1358 1.422 . S
C1352 H1343 0.929 . S
C1352 N1350 1.338 . S
C1352 C1354 1.378 . S
C1353 H1348 0.931 . S
C1353 C1354 1.348 . S
C1353 C1355 1.413 . S
C1354 H1349 0.930 . S
C1354 C1352 1.378 . S
C1354 C1353 1.348 . S
C1355 C1351 1.415 . S
C1355 C1353 1.413 . S
C1355 C1385 1.437 . S
H1356 C1385 0.929 . S
N1357 Gd1330 2.570 . S
N1357 C1358 1.359 . S
N1357 C1361 1.343 . S
C1358 C1351 1.422 . S
C1358 N1357 1.359 . S
C1358 C1360 1.421 . S
C1359 C1360 1.422 . S
C1359 C1362 1.321 . S
C1359 H1386 0.931 . S
C1360 C1358 1.421 . S
C1360 C1359 1.422 . S
C1360 C1384 1.417 . S
C1361 H1338 0.931 . S
C1361 N1357 1.343 . S
C1361 C1362 1.390 . S
C1362 H1340 0.930 . S
C1362 C1359 1.321 . S
C1362 C1361 1.390 . S
O1363 Gd1331 2.386 . S
O1363 C1375 1.265 . S
O1364 Gd1330 2.353 . S
O1364 C1375 1.242 . S
O1365 Gd1330 2.468 . S
O1365 C1383 1.263 . S
O1366 Gd1330 2.427 . S
O1366 C1383 1.252 . S
O1367 Gd1331 2.307 . S
O1367 C1376 1.261 . S
O1368 Gd1330 2.388 . S
O1368 C1376 1.252 . S
O1369 Gd1330 2.386 . S
O1369 C1387 1.265 . S
O1370 Gd1331 2.353 . S
O1370 C1387 1.242 . S
O1371 Gd1331 2.468 . S
O1371 C1395 1.263 . S
O1372 Gd1331 2.427 . S
O1372 C1395 1.252 . S
O1373 Gd1330 2.307 . S
O1373 C1388 1.261 . S
O1374 Gd1331 2.388 . S
O1374 C1388 1.252 . S
C1375 O1363 1.265 . S
C1375 O1364 1.242 . S
C1376 O1367 1.261 . S
C1376 O1368 1.252 . S
C1377 C1380 1.394 . S
C1377 C1382 1.370 . S
C1377 C1383 1.500 . S
C1378 C1381 1.383 . S
C1378 C1382 1.395 . S
C1379 C1380 1.396 . S
C1379 C1381 1.365 . S
C1379 H1396 0.929 . S
C1380 C1377 1.394 . S
C1380 C1379 1.396 . S
C1380 H1397 0.930 . S
C1381 C1378 1.383 . S
C1381 C1379 1.365 . S
C1381 H1398 0.931 . S
C1382 C1377 1.370 . S
C1382 C1378 1.395 . S
C1382 H1399 0.930 . S
C1383 Gd1330 2.805 . S
C1383 O1365 1.263 . S
C1383 O1366 1.252 . S
C1383 C1377 1.500 . S
C1384 H1346 0.930 . S
C1384 C1360 1.417 . S
C1384 C1385 1.329 . S
C1385 C1355 1.437 . S
C1385 H1356 0.929 . S
C1385 C1384 1.329 . S
H1386 C1359 0.931 . S
C1387 O1369 1.265 . S
C1387 O1370 1.242 . S
C1388 O1373 1.261 . S
C1388 O1374 1.252 . S
C1389 C1392 1.394 . S
C1389 C1394 1.370 . S
C1389 C1395 1.500 . S
C1390 C1393 1.383 . S
C1390 C1394 1.395 . S
C1391 C1392 1.396 . S
C1391 C1393 1.365 . S
C1391 H1400 0.929 . S
C1392 C1389 1.394 . S
C1392 C1391 1.396 . S
C1392 H1401 0.930 . S
C1393 C1390 1.383 . S
C1393 C1391 1.365 . S
C1393 H1402 0.931 . S
C1394 C1389 1.370 . S
C1394 C1390 1.395 . S
C1394 H1403 0.930 . S
C1395 Gd1331 2.805 . S
C1395 O1371 1.263 . S
C1395 O1372 1.252 . S
C1395 C1389 1.500 . S
H1396 C1379 0.929 . S
H1397 C1380 0.930 . S
H1398 C1381 0.931 . S
H1399 C1382 0.930 . S
H1400 C1391 0.929 . S
H1401 C1392 0.930 . S
H1402 C1393 0.931 . S
H1403 C1394 0.930 . S
C1404 C1406 1.422 . S
C1404 C1408 1.415 . S
C1404 N1410 1.369 . S
C1405 C1406 1.421 . S
C1405 C1407 1.417 . S
C1405 C1417 1.422 . S
C1406 C1404 1.422 . S
C1406 C1405 1.421 . S
C1406 N1416 1.359 . S
C1407 C1405 1.417 . S
C1407 C1409 1.329 . S
C1407 H1426 0.930 . S
C1408 C1404 1.415 . S
C1408 C1409 1.437 . S
C1408 C1412 1.413 . S
C1409 C1407 1.329 . S
C1409 C1408 1.437 . S
C1409 H1431 0.929 . S
N1410 C1404 1.369 . S
N1410 C1411 1.338 . S
N1410 Gd1415 2.622 . S
C1411 N1410 1.338 . S
C1411 C1413 1.378 . S
C1411 H1423 0.929 . S
C1412 C1408 1.413 . S
C1412 C1413 1.348 . S
C1412 H1428 0.931 . S
C1413 C1411 1.378 . S
C1413 C1412 1.348 . S
C1413 H1429 0.930 . S
Gd1414 N1434 2.622 . S
Gd1414 N1441 2.570 . S
Gd1414 O1448 2.353 . S
Gd1414 O1449 2.468 . S
Gd1414 O1450 2.427 . S
Gd1414 O1452 2.388 . S
Gd1414 O1453 2.386 . S
Gd1414 O1457 2.307 . S
Gd1414 C1467 2.805 . S
Gd1415 N1410 2.622 . S
Gd1415 N1416 2.570 . S
Gd1415 O1447 2.386 . S
Gd1415 O1451 2.307 . S
Gd1415 O1454 2.353 . S
Gd1415 O1455 2.468 . S
Gd1415 O1456 2.427 . S
Gd1415 O1458 2.388 . S
Gd1415 C1479 2.805 . S
N1416 C1406 1.359 . S
N1416 Gd1415 2.570 . S
N1416 C1418 1.343 . S
C1417 C1405 1.422 . S
C1417 C1419 1.321 . S
C1417 H1425 0.931 . S
C1418 N1416 1.343 . S
C1418 C1419 1.390 . S
C1418 H1420 0.931 . S
C1419 C1417 1.321 . S
C1419 C1418 1.390 . S
C1419 H1421 0.930 . S
H1420 C1418 0.931 . S
H1421 C1419 0.930 . S
H1422 C1445 0.931 . S
H1423 C1411 0.929 . S
H1424 C1446 0.930 . S
H1425 C1417 0.931 . S
H1426 C1407 0.930 . S
H1427 C1436 0.929 . S
H1428 C1412 0.931 . S
H1429 C1413 0.930 . S
H1430 C1468 0.930 . S
H1431 C1409 0.929 . S
H1432 C1437 0.931 . S
H1433 C1438 0.930 . S
N1434 Gd1414 2.622 . S
N1434 C1435 1.369 . S
N1434 C1436 1.338 . S
C1435 N1434 1.369 . S
C1435 C1439 1.415 . S
C1435 C1442 1.422 . S
C1436 H1427 0.929 . S
C1436 N1434 1.338 . S
C1436 C1438 1.378 . S
C1437 H1432 0.931 . S
C1437 C1438 1.348 . S
C1437 C1439 1.413 . S
C1438 H1433 0.930 . S
C1438 C1436 1.378 . S
C1438 C1437 1.348 . S
C1439 C1435 1.415 . S
C1439 C1437 1.413 . S
C1439 C1469 1.437 . S
H1440 C1469 0.929 . S
N1441 Gd1414 2.570 . S
N1441 C1442 1.359 . S
N1441 C1445 1.343 . S
C1442 C1435 1.422 . S
C1442 N1441 1.359 . S
C1442 C1444 1.421 . S
C1443 C1444 1.422 . S
C1443 C1446 1.321 . S
C1443 H1470 0.931 . S
C1444 C1442 1.421 . S
C1444 C1443 1.422 . S
C1444 C1468 1.417 . S
C1445 H1422 0.931 . S
C1445 N1441 1.343 . S
C1445 C1446 1.390 . S
C1446 H1424 0.930 . S
C1446 C1443 1.321 . S
C1446 C1445 1.390 . S
O1447 Gd1415 2.386 . S
O1447 C1459 1.265 . S
O1448 Gd1414 2.353 . S
O1448 C1459 1.242 . S
O1449 Gd1414 2.468 . S
O1449 C1467 1.263 . S
O1450 Gd1414 2.427 . S
O1450 C1467 1.252 . S
O1451 Gd1415 2.307 . S
O1451 C1460 1.261 . S
O1452 Gd1414 2.388 . S
O1452 C1460 1.252 . S
O1453 Gd1414 2.386 . S
O1453 C1471 1.265 . S
O1454 Gd1415 2.353 . S
O1454 C1471 1.242 . S
O1455 Gd1415 2.468 . S
O1455 C1479 1.263 . S
O1456 Gd1415 2.427 . S
O1456 C1479 1.252 . S
O1457 Gd1414 2.307 . S
O1457 C1472 1.261 . S
O1458 Gd1415 2.388 . S
O1458 C1472 1.252 . S
C1459 O1447 1.265 . S
C1459 O1448 1.242 . S
C1460 O1451 1.261 . S
C1460 O1452 1.252 . S
C1461 C1464 1.394 . S
C1461 C1466 1.370 . S
C1461 C1467 1.500 . S
C1462 C1465 1.383 . S
C1462 C1466 1.395 . S
C1463 C1464 1.396 . S
C1463 C1465 1.365 . S
C1463 H1480 0.929 . S
C1464 C1461 1.394 . S
C1464 C1463 1.396 . S
C1464 H1481 0.930 . S
C1465 C1462 1.383 . S
C1465 C1463 1.365 . S
C1465 H1482 0.931 . S
C1466 C1461 1.370 . S
C1466 C1462 1.395 . S
C1466 H1483 0.930 . S
C1467 Gd1414 2.805 . S
C1467 O1449 1.263 . S
C1467 O1450 1.252 . S
C1467 C1461 1.500 . S
C1468 H1430 0.930 . S
C1468 C1444 1.417 . S
C1468 C1469 1.329 . S
C1469 C1439 1.437 . S
C1469 H1440 0.929 . S
C1469 C1468 1.329 . S
H1470 C1443 0.931 . S
C1471 O1453 1.265 . S
C1471 O1454 1.242 . S
C1472 O1457 1.261 . S
C1472 O1458 1.252 . S
C1473 C1476 1.394 . S
C1473 C1478 1.370 . S
C1473 C1479 1.500 . S
C1474 C1477 1.383 . S
C1474 C1478 1.395 . S
C1475 C1476 1.396 . S
C1475 C1477 1.365 . S
C1475 H1484 0.929 . S
C1476 C1473 1.394 . S
C1476 C1475 1.396 . S
C1476 H1485 0.930 . S
C1477 C1474 1.383 . S
C1477 C1475 1.365 . S
C1477 H1486 0.931 . S
C1478 C1473 1.370 . S
C1478 C1474 1.395 . S
C1478 H1487 0.930 . S
C1479 Gd1415 2.805 . S
C1479 O1455 1.263 . S
C1479 O1456 1.252 . S
C1479 C1473 1.500 . S
H1480 C1463 0.929 . S
H1481 C1464 0.930 . S
H1482 C1465 0.931 . S
H1483 C1466 0.930 . S
H1484 C1475 0.929 . S
H1485 C1476 0.930 . S
H1486 C1477 0.931 . S
H1487 C1478 0.930 . S
C1488 C1490 1.422 . S
C1488 C1492 1.415 . S
C1488 N1494 1.369 . S
C1489 C1490 1.421 . S
C1489 C1491 1.417 . S
C1489 C1501 1.422 . S
C1490 C1488 1.422 . S
C1490 C1489 1.421 . S
C1490 N1500 1.359 . S
C1491 C1489 1.417 . S
C1491 C1493 1.329 . S
C1491 H1510 0.930 . S
C1492 C1488 1.415 . S
C1492 C1493 1.437 . S
C1492 C1496 1.413 . S
C1493 C1491 1.329 . S
C1493 C1492 1.437 . S
C1493 H1515 0.929 . S
N1494 C1488 1.369 . S
N1494 C1495 1.338 . S
N1494 Gd1499 2.622 . S
C1495 N1494 1.338 . S
C1495 C1497 1.378 . S
C1495 H1507 0.929 . S
C1496 C1492 1.413 . S
C1496 C1497 1.348 . S
C1496 H1512 0.931 . S
C1497 C1495 1.378 . S
C1497 C1496 1.348 . S
C1497 H1513 0.930 . S
Gd1498 N1518 2.622 . S
Gd1498 N1525 2.570 . S
Gd1498 O1532 2.353 . S
Gd1498 O1533 2.468 . S
Gd1498 O1534 2.427 . S
Gd1498 O1536 2.388 . S
Gd1498 O1537 2.386 . S
Gd1498 O1541 2.307 . S
Gd1498 C1551 2.805 . S
Gd1499 N1494 2.622 . S
Gd1499 N1500 2.570 . S
Gd1499 O1531 2.386 . S
Gd1499 O1535 2.307 . S
Gd1499 O1538 2.353 . S
Gd1499 O1539 2.468 . S
Gd1499 O1540 2.427 . S
Gd1499 O1542 2.388 . S
Gd1499 C1563 2.805 . S
N1500 C1490 1.359 . S
N1500 Gd1499 2.570 . S
N1500 C1502 1.343 . S
C1501 C1489 1.422 . S
C1501 C1503 1.321 . S
C1501 H1509 0.931 . S
C1502 N1500 1.343 . S
C1502 C1503 1.390 . S
C1502 H1504 0.931 . S
C1503 C1501 1.321 . S
C1503 C1502 1.390 . S
C1503 H1505 0.930 . S
H1504 C1502 0.931 . S
H1505 C1503 0.930 . S
H1506 C1529 0.931 . S
H1507 C1495 0.929 . S
H1508 C1530 0.930 . S
H1509 C1501 0.931 . S
H1510 C1491 0.930 . S
H1511 C1520 0.929 . S
H1512 C1496 0.931 . S
H1513 C1497 0.930 . S
H1514 C1552 0.930 . S
H1515 C1493 0.929 . S
H1516 C1521 0.931 . S
H1517 C1522 0.930 . S
N1518 Gd1498 2.622 . S
N1518 C1519 1.369 . S
N1518 C1520 1.338 . S
C1519 N1518 1.369 . S
C1519 C1523 1.415 . S
C1519 C1526 1.422 . S
C1520 H1511 0.929 . S
C1520 N1518 1.338 . S
C1520 C1522 1.378 . S
C1521 H1516 0.931 . S
C1521 C1522 1.348 . S
C1521 C1523 1.413 . S
C1522 H1517 0.930 . S
C1522 C1520 1.378 . S
C1522 C1521 1.348 . S
C1523 C1519 1.415 . S
C1523 C1521 1.413 . S
C1523 C1553 1.437 . S
H1524 C1553 0.929 . S
N1525 Gd1498 2.570 . S
N1525 C1526 1.359 . S
N1525 C1529 1.343 . S
C1526 C1519 1.422 . S
C1526 N1525 1.359 . S
C1526 C1528 1.421 . S
C1527 C1528 1.422 . S
C1527 C1530 1.321 . S
C1527 H1554 0.931 . S
C1528 C1526 1.421 . S
C1528 C1527 1.422 . S
C1528 C1552 1.417 . S
C1529 H1506 0.931 . S
C1529 N1525 1.343 . S
C1529 C1530 1.390 . S
C1530 H1508 0.930 . S
C1530 C1527 1.321 . S
C1530 C1529 1.390 . S
O1531 Gd1499 2.386 . S
O1531 C1543 1.265 . S
O1532 Gd1498 2.353 . S
O1532 C1543 1.242 . S
O1533 Gd1498 2.468 . S
O1533 C1551 1.263 . S
O1534 Gd1498 2.427 . S
O1534 C1551 1.252 . S
O1535 Gd1499 2.307 . S
O1535 C1544 1.261 . S
O1536 Gd1498 2.388 . S
O1536 C1544 1.252 . S
O1537 Gd1498 2.386 . S
O1537 C1555 1.265 . S
O1538 Gd1499 2.353 . S
O1538 C1555 1.242 . S
O1539 Gd1499 2.468 . S
O1539 C1563 1.263 . S
O1540 Gd1499 2.427 . S
O1540 C1563 1.252 . S
O1541 Gd1498 2.307 . S
O1541 C1556 1.261 . S
O1542 Gd1499 2.388 . S
O1542 C1556 1.252 . S
C1543 O1531 1.265 . S
C1543 O1532 1.242 . S
C1544 O1535 1.261 . S
C1544 O1536 1.252 . S
C1545 C1548 1.394 . S
C1545 C1550 1.370 . S
C1545 C1551 1.500 . S
C1546 C1549 1.383 . S
C1546 C1550 1.395 . S
C1547 C1548 1.396 . S
C1547 C1549 1.365 . S
C1547 H1564 0.929 . S
C1548 C1545 1.394 . S
C1548 C1547 1.396 . S
C1548 H1565 0.930 . S
C1549 C1546 1.383 . S
C1549 C1547 1.365 . S
C1549 H1566 0.931 . S
C1550 C1545 1.370 . S
C1550 C1546 1.395 . S
C1550 H1567 0.930 . S
C1551 Gd1498 2.805 . S
C1551 O1533 1.263 . S
C1551 O1534 1.252 . S
C1551 C1545 1.500 . S
C1552 H1514 0.930 . S
C1552 C1528 1.417 . S
C1552 C1553 1.329 . S
C1553 C1523 1.437 . S
C1553 H1524 0.929 . S
C1553 C1552 1.329 . S
H1554 C1527 0.931 . S
C1555 O1537 1.265 . S
C1555 O1538 1.242 . S
C1556 O1541 1.261 . S
C1556 O1542 1.252 . S
C1557 C1560 1.394 . S
C1557 C1562 1.370 . S
C1557 C1563 1.500 . S
C1558 C1561 1.383 . S
C1558 C1562 1.395 . S
C1559 C1560 1.396 . S
C1559 C1561 1.365 . S
C1559 H1568 0.929 . S
C1560 C1557 1.394 . S
C1560 C1559 1.396 . S
C1560 H1569 0.930 . S
C1561 C1558 1.383 . S
C1561 C1559 1.365 . S
C1561 H1570 0.931 . S
C1562 C1557 1.370 . S
C1562 C1558 1.395 . S
C1562 H1571 0.930 . S
C1563 Gd1499 2.805 . S
C1563 O1539 1.263 . S
C1563 O1540 1.252 . S
C1563 C1557 1.500 . S
H1564 C1547 0.929 . S
H1565 C1548 0.930 . S
H1566 C1549 0.931 . S
H1567 C1550 0.930 . S
H1568 C1559 0.929 . S
H1569 C1560 0.930 . S
H1570 C1561 0.931 . S
H1571 C1562 0.930 . S
C1572 C1574 1.451 . S
C1572 C1576 1.391 1_554 S
C1572 N1578 1.366 1_554 S
C1573 C1574 1.421 . S
C1573 C1575 1.417 . S
C1573 C1585 1.422 . S
C1574 C1572 1.451 . S
C1574 C1573 1.421 . S
C1574 N1584 1.359 . S
C1575 C1573 1.417 . S
C1575 C1577 1.329 1_554 S
C1575 H1594 0.930 . S
C1576 C1572 1.391 1_556 S
C1576 C1577 1.437 . S
C1576 C1580 1.413 . S
C1577 C1575 1.329 1_556 S
C1577 C1576 1.437 . S
C1577 H1599 0.929 . S
N1578 C1572 1.366 1_556 S
N1578 C1579 1.338 . S
N1578 Gd1583 2.622 1_556 S
C1579 N1578 1.338 . S
C1579 C1581 1.378 . S
C1579 H1591 0.929 . S
C1580 C1576 1.413 . S
C1580 C1581 1.348 . S
C1580 H1596 0.931 . S
C1581 C1579 1.378 . S
C1581 C1580 1.348 . S
C1581 H1597 0.930 . S
Gd1582 N1602 2.622 . S
Gd1582 N1609 2.570 . S
Gd1582 O1616 2.353 1_655 S
Gd1582 O1617 2.468 . S
Gd1582 O1618 2.427 . S
Gd1582 O1620 2.388 1_655 S
Gd1582 O1621 2.386 1_655 S
Gd1582 O1625 2.307 . S
Gd1582 C1635 2.805 . S
Gd1583 N1578 2.622 1_554 S
Gd1583 N1584 2.570 . S
Gd1583 O1615 2.386 . S
Gd1583 O1619 2.307 . S
Gd1583 O1622 2.353 . S
Gd1583 O1623 2.468 . S
Gd1583 O1624 2.437 . S
Gd1583 O1626 2.388 1_554 S
Gd1583 C1647 2.805 . S
N1584 C1574 1.359 . S
N1584 Gd1583 2.570 . S
N1584 C1586 1.343 . S
C1585 C1573 1.422 . S
C1585 C1587 1.321 . S
C1585 H1593 0.931 . S
C1586 N1584 1.343 . S
C1586 C1587 1.390 . S
C1586 H1588 0.931 . S
C1587 C1585 1.321 . S
C1587 C1586 1.390 . S
C1587 H1589 0.930 . S
H1588 C1586 0.931 . S
H1589 C1587 0.930 . S
H1590 C1613 0.931 . S
H1591 C1579 0.929 . S
H1592 C1614 0.975 . S
H1593 C1585 0.931 . S
H1594 C1575 0.930 . S
H1595 C1604 0.929 1_455 S
H1596 C1580 0.931 . S
H1597 C1581 0.930 . S
H1598 C1636 0.930 . S
H1599 C1577 0.929 . S
H1600 C1605 0.931 . S
H1601 C1606 0.930 . S
N1602 Gd1582 2.622 . S
N1602 C1603 1.369 . S
N1602 C1604 1.338 . S
C1603 N1602 1.369 . S
C1603 C1607 1.415 . S
C1603 C1610 1.422 . S
C1604 H1595 0.929 1_655 S
C1604 N1602 1.338 . S
C1604 C1606 1.378 . S
C1605 H1600 0.931 . S
C1605 C1606 1.348 . S
C1605 C1607 1.413 . S
C1606 H1601 0.930 . S
C1606 C1604 1.378 . S
C1606 C1605 1.348 . S
C1607 C1603 1.415 . S
C1607 C1605 1.413 . S
C1607 C1637 1.437 . S
H1608 C1637 0.929 . S
N1609 Gd1582 2.570 . S
N1609 C1610 1.359 . S
N1609 C1613 1.343 . S
C1610 C1603 1.422 . S
C1610 N1609 1.359 . S
C1610 C1612 1.421 . S
C1611 C1612 1.422 . S
C1611 C1614 1.321 . S
C1611 H1638 0.931 . S
C1612 C1610 1.421 . S
C1612 C1611 1.422 . S
C1612 C1636 1.417 . S
C1613 H1590 0.931 . S
C1613 N1609 1.343 . S
C1613 C1614 1.390 . S
C1614 H1592 0.975 . S
C1614 C1611 1.321 . S
C1614 C1613 1.390 . S
O1615 Gd1583 2.386 . S
O1615 C1627 1.265 . S
O1616 Gd1582 2.353 1_455 S
O1616 C1627 1.242 . S
O1617 Gd1582 2.468 . S
O1617 C1635 1.263 . S
O1618 Gd1582 2.427 . S
O1618 C1635 1.252 . S
O1619 Gd1583 2.307 . S
O1619 C1628 1.261 . S
O1620 Gd1582 2.388 1_455 S
O1620 C1628 1.252 . S
O1621 Gd1582 2.386 1_455 S
O1621 C1639 1.265 . S
O1622 Gd1583 2.353 . S
O1622 C1639 1.242 . S
O1623 Gd1583 2.468 . S
O1623 C1647 1.263 . S
O1624 Gd1583 2.437 . S
O1624 C1647 1.264 . S
O1625 Gd1582 2.307 . S
O1625 C1640 1.267 1_655 S
O1626 Gd1583 2.388 1_556 S
O1626 C1640 1.273 1_556 S
C1627 O1615 1.265 . S
C1627 O1616 1.242 . S
C1628 O1619 1.261 . S
C1628 O1620 1.252 . S
C1629 C1632 1.394 . S
C1629 C1634 1.370 . S
C1629 C1635 1.500 . S
C1630 C1633 1.383 . S
C1630 C1634 1.395 . S
C1631 C1632 1.396 . S
C1631 C1633 1.365 . S
C1631 H1648 0.929 . S
C1632 C1629 1.394 . S
C1632 C1631 1.396 . S
C1632 H1649 0.930 . S
C1633 C1630 1.383 . S
C1633 C1631 1.365 . S
C1633 H1650 0.931 . S
C1634 C1629 1.370 . S
C1634 C1630 1.395 . S
C1634 H1651 0.930 . S
C1635 Gd1582 2.805 . S
C1635 O1617 1.263 . S
C1635 O1618 1.252 . S
C1635 C1629 1.500 . S
C1636 H1598 0.930 . S
C1636 C1612 1.417 . S
C1636 C1637 1.329 . S
C1637 C1607 1.437 . S
C1637 H1608 0.929 . S
C1637 C1636 1.329 . S
H1638 C1611 0.931 . S
C1639 O1621 1.265 . S
C1639 O1622 1.242 . S
C1640 O1625 1.267 1_455 S
C1640 O1626 1.273 1_554 S
C1641 C1644 1.394 1_554 S
C1641 C1646 1.370 . S
C1641 C1647 1.500 . S
C1642 C1645 1.383 . S
C1642 C1646 1.395 . S
C1643 C1644 1.396 . S
C1643 C1645 1.365 1_556 S
C1643 H1652 0.929 . S
C1644 C1641 1.394 1_556 S
C1644 C1643 1.396 . S
C1644 H1653 0.930 . S
C1645 C1642 1.383 . S
C1645 C1643 1.365 1_554 S
C1645 H1654 0.931 1_554 S
C1646 C1641 1.370 . S
C1646 C1642 1.395 . S
C1646 H1655 0.930 . S
C1647 Gd1583 2.805 . S
C1647 O1623 1.263 . S
C1647 O1624 1.264 . S
C1647 C1641 1.500 . S
H1648 C1631 0.929 . S
H1649 C1632 0.930 . S
H1650 C1633 0.931 . S
H1651 C1634 0.930 . S
H1652 C1643 0.929 . S
H1653 C1644 0.930 . S
H1654 C1645 0.931 1_556 S
H1655 C1646 0.930 . S
C1656 C1657 1.391 . S
C1656 C1658 1.394 . S
C1656 H1672 0.931 . S
C1657 C1656 1.391 . S
C1657 C1661 1.376 1_455 S
C1658 C1656 1.394 . S
C1658 C1659 1.369 1_556 S
C1658 C1662 1.531 . S
C1659 C1658 1.369 1_554 S
C1659 C1660 1.405 . S
C1659 C1667 1.503 . S
C1660 C1659 1.405 . S
C1660 C1661 1.394 1_454 S
C1660 C1663 1.514 1_455 S
C1661 C1657 1.376 1_655 S
C1661 C1660 1.394 1_656 S
C1661 H1673 0.929 . S
C1662 C1658 1.531 . S
C1662 H1674 1.003 . S
C1662 H1675 0.962 . S
C1662 H1676 0.960 . S
C1663 C1660 1.514 1_655 S
C1663 H1677 0.961 . S
C1663 H1678 0.961 . S
C1663 H1679 0.961 . S
C1664 C1665 1.370 . S
C1664 C1666 1.352 1_554 S
C1664 H1680 0.931 1_554 S
C1665 C1664 1.370 . S
C1665 C1669 1.408 . S
C1666 C1664 1.352 1_556 S
C1666 C1667 1.360 1_556 S
C1666 C1670 1.546 . S
C1667 C1659 1.503 . S
C1667 C1666 1.360 1_554 S
C1667 C1668 1.403 . S
C1668 C1667 1.403 . S
C1668 C1669 1.404 . S
C1668 C1671 1.539 . S
C1669 C1665 1.408 . S
C1669 C1668 1.404 . S
C1669 H1681 0.930 . S
C1670 C1666 1.546 . S
C1670 H1682 0.956 . S
C1670 H1683 0.961 1_455 S
C1670 H1684 0.961 1_455 S
C1671 C1668 1.539 . S
C1671 H1685 0.958 . S
C1671 H1686 0.961 . S
C1671 H1687 0.960 . S
H1672 C1656 0.931 . S
H1673 C1661 0.929 . S
H1674 C1662 1.003 . S
H1675 C1662 0.962 . S
H1676 C1662 0.960 . S
H1677 C1663 0.961 . S
H1678 C1663 0.961 . S
H1679 C1663 0.961 . S
H1680 C1664 0.931 1_556 S
H1681 C1669 0.930 . S
H1682 C1670 0.956 . S
H1683 C1670 0.961 1_655 S
H1684 C1670 0.961 1_655 S
H1685 C1671 0.958 . S
H1686 C1671 0.961 . S
H1687 C1671 0.960 . S
C1688 C1689 1.391 . S
C1688 C1690 1.394 . S
C1688 H1704 0.931 . S
C1689 C1688 1.391 . S
C1689 C1693 1.376 . S
C1690 C1688 1.394 . S
C1690 C1691 1.369 . S
C1690 C1694 1.531 . S
C1691 C1690 1.369 . S
C1691 C1692 1.410 . S
C1691 C1699 1.503 . S
C1692 C1691 1.410 . S
C1692 C1693 1.392 . S
C1692 C1695 1.511 . S
C1693 C1689 1.376 . S
C1693 C1692 1.392 . S
C1693 H1705 0.929 . S
C1694 C1690 1.531 . S
C1694 H1706 0.960 . S
C1694 H1707 0.962 . S
C1694 H1708 0.960 . S
C1695 C1692 1.511 . S
C1695 H1709 0.961 . S
C1695 H1710 0.961 . S
C1695 H1711 0.961 . S
C1696 C1697 1.370 . S
C1696 C1698 1.363 . S
C1696 H1712 0.931 . S
C1697 C1696 1.370 . S
C1697 C1701 1.408 . S
C1698 C1696 1.363 . S
C1698 C1699 1.370 . S
C1698 C1702 1.524 . S
C1699 C1691 1.503 . S
C1699 C1698 1.370 . S
C1699 C1700 1.403 . S
C1700 C1699 1.403 . S
C1700 C1701 1.404 . S
C1700 C1703 1.539 . S
C1701 C1697 1.408 . S
C1701 C1700 1.404 . S
C1701 H1713 0.930 . S
C1702 C1698 1.524 . S
C1702 H1714 0.956 . S
C1702 H1715 0.961 . S
C1702 H1716 0.961 . S
C1703 C1700 1.539 . S
C1703 H1717 0.958 . S
C1703 H1718 0.961 . S
C1703 H1719 0.960 . S
H1704 C1688 0.931 . S
H1705 C1693 0.929 . S
H1706 C1694 0.960 . S
H1707 C1694 0.962 . S
H1708 C1694 0.960 . S
H1709 C1695 0.961 . S
H1710 C1695 0.961 . S
H1711 C1695 0.961 . S
H1712 C1696 0.931 . S
H1713 C1701 0.930 . S
H1714 C1702 0.956 . S
H1715 C1702 0.961 . S
H1716 C1702 0.961 . S
H1717 C1703 0.958 . S
H1718 C1703 0.961 . S
H1719 C1703 0.960 . S
C1720 C1721 1.391 . S
C1720 C1722 1.394 . S
C1720 H1736 0.931 . S
C1721 C1720 1.391 . S
C1721 C1725 1.376 . S
C1722 C1720 1.394 . S
C1722 C1723 1.369 . S
C1722 C1726 1.531 . S
C1723 C1722 1.369 . S
C1723 C1724 1.410 . S
C1723 C1731 1.503 . S
C1724 C1723 1.410 . S
C1724 C1725 1.392 . S
C1724 C1727 1.511 . S
C1725 C1721 1.376 . S
C1725 C1724 1.392 . S
C1725 H1737 0.929 . S
C1726 C1722 1.531 . S
C1726 H1738 0.960 . S
C1726 H1739 0.962 . S
C1726 H1740 0.960 . S
C1727 C1724 1.511 . S
C1727 H1741 0.961 . S
C1727 H1742 0.961 . S
C1727 H1743 0.961 . S
C1728 C1729 1.370 . S
C1728 C1730 1.363 . S
C1728 H1744 0.931 . S
C1729 C1728 1.370 . S
C1729 C1733 1.408 . S
C1730 C1728 1.363 . S
C1730 C1731 1.370 . S
C1730 C1734 1.524 . S
C1731 C1723 1.503 . S
C1731 C1730 1.370 . S
C1731 C1732 1.403 . S
C1732 C1731 1.403 . S
C1732 C1733 1.404 . S
C1732 C1735 1.539 . S
C1733 C1729 1.408 . S
C1733 C1732 1.404 . S
C1733 H1745 0.930 . S
C1734 C1730 1.524 . S
C1734 H1746 0.956 . S
C1734 H1747 0.961 . S
C1734 H1748 0.961 . S
C1735 C1732 1.539 . S
C1735 H1749 0.958 . S
C1735 H1750 0.961 . S
C1735 H1751 0.960 . S
H1736 C1720 0.931 . S
H1737 C1725 0.929 . S
H1738 C1726 0.960 . S
H1739 C1726 0.962 . S
H1740 C1726 0.960 . S
H1741 C1727 0.961 . S
H1742 C1727 0.961 . S
H1743 C1727 0.961 . S
H1744 C1728 0.931 . S
H1745 C1733 0.930 . S
H1746 C1734 0.956 . S
H1747 C1734 0.961 . S
H1748 C1734 0.961 . S
H1749 C1735 0.958 . S
H1750 C1735 0.961 . S
H1751 C1735 0.960 . S
C1752 C1753 1.391 . S
C1752 C1754 1.394 . S
C1752 H1768 0.931 . S
C1753 C1752 1.391 . S
C1753 C1757 1.376 . S
C1754 C1752 1.394 . S
C1754 C1755 1.369 . S
C1754 C1758 1.531 . S
C1755 C1754 1.369 . S
C1755 C1756 1.410 . S
C1755 C1763 1.503 . S
C1756 C1755 1.410 . S
C1756 C1757 1.392 . S
C1756 C1759 1.511 . S
C1757 C1753 1.376 . S
C1757 C1756 1.392 . S
C1757 H1769 0.929 . S
C1758 C1754 1.531 . S
C1758 H1770 0.960 . S
C1758 H1771 0.962 . S
C1758 H1772 0.960 . S
C1759 C1756 1.511 . S
C1759 H1773 0.961 . S
C1759 H1774 0.961 . S
C1759 H1775 0.961 . S
C1760 C1761 1.370 . S
C1760 C1762 1.363 . S
C1760 H1776 0.931 . S
C1761 C1760 1.370 . S
C1761 C1765 1.408 . S
C1762 C1760 1.363 . S
C1762 C1763 1.370 . S
C1762 C1766 1.524 . S
C1763 C1755 1.503 . S
C1763 C1762 1.370 . S
C1763 C1764 1.403 . S
C1764 C1763 1.403 . S
C1764 C1765 1.404 . S
C1764 C1767 1.539 . S
C1765 C1761 1.408 . S
C1765 C1764 1.404 . S
C1765 H1777 0.930 . S
C1766 C1762 1.524 . S
C1766 H1778 0.956 . S
C1766 H1779 0.961 . S
C1766 H1780 0.961 . S
C1767 C1764 1.539 . S
C1767 H1781 0.958 . S
C1767 H1782 0.961 . S
C1767 H1783 0.960 . S
H1768 C1752 0.931 . S
H1769 C1757 0.929 . S
H1770 C1758 0.960 . S
H1771 C1758 0.962 . S
H1772 C1758 0.960 . S
H1773 C1759 0.961 . S
H1774 C1759 0.961 . S
H1775 C1759 0.961 . S
H1776 C1760 0.931 . S
H1777 C1765 0.930 . S
H1778 C1766 0.956 . S
H1779 C1766 0.961 . S
H1780 C1766 0.961 . S
H1781 C1767 0.958 . S
H1782 C1767 0.961 . S
H1783 C1767 0.960 . S
C1784 C1785 1.391 . S
C1784 C1786 1.394 . S
C1784 H1800 0.931 . S
C1785 C1784 1.391 . S
C1785 C1789 1.376 . S
C1786 C1784 1.394 . S
C1786 C1787 1.369 . S
C1786 C1790 1.531 . S
C1787 C1786 1.369 . S
C1787 C1788 1.410 . S
C1787 C1795 1.503 . S
C1788 C1787 1.410 . S
C1788 C1789 1.392 . S
C1788 C1791 1.511 1_455 S
C1789 C1785 1.376 . S
C1789 C1788 1.392 . S
C1789 H1801 0.894 1_455 S
C1790 C1786 1.531 . S
C1790 H1802 0.960 . S
C1790 H1803 0.962 . S
C1790 H1804 0.960 . S
C1791 C1788 1.511 1_655 S
C1791 H1805 0.961 . S
C1791 H1806 0.961 . S
C1791 H1807 0.961 . S
C1792 C1793 1.370 . S
C1792 C1794 1.363 . S
C1792 H1808 0.931 . S
C1793 C1792 1.370 . S
C1793 C1797 1.408 . S
C1794 C1792 1.363 . S
C1794 C1795 1.370 . S
C1794 C1798 1.524 . S
C1795 C1787 1.503 . S
C1795 C1794 1.370 . S
C1795 C1796 1.403 . S
C1796 C1795 1.403 . S
C1796 C1797 1.404 . S
C1796 C1799 1.539 . S
C1797 C1793 1.408 . S
C1797 C1796 1.404 . S
C1797 H1809 0.930 . S
C1798 C1794 1.524 . S
C1798 H1810 0.956 . S
C1798 H1811 0.961 . S
C1798 H1812 0.961 . S
C1799 C1796 1.539 . S
C1799 H1813 0.958 . S
C1799 H1814 0.986 . S
C1799 H1815 0.960 . S
H1800 C1784 0.931 . S
H1801 C1789 0.894 1_655 S
H1802 C1790 0.960 . S
H1803 C1790 0.962 . S
H1804 C1790 0.960 . S
H1805 C1791 0.961 . S
H1806 C1791 0.961 . S
H1807 C1791 0.961 . S
H1808 C1792 0.931 . S
H1809 C1797 0.930 . S
H1810 C1798 0.956 . S
H1811 C1798 0.961 . S
H1812 C1798 0.961 . S
H1813 C1799 0.958 . S
H1814 C1799 0.986 . S
H1815 C1799 0.960 . S
C1816 C1817 1.391 . S
C1816 C1818 1.394 . S
C1816 H1832 0.931 . S
C1817 C1816 1.391 . S
C1817 C1821 1.376 . S
C1818 C1816 1.394 . S
C1818 C1819 1.369 . S
C1818 C1822 1.531 . S
C1819 C1818 1.369 . S
C1819 C1820 1.410 . S
C1819 C1827 1.503 . S
C1820 C1819 1.410 . S
C1820 C1821 1.392 . S
C1820 C1823 1.511 . S
C1821 C1817 1.376 . S
C1821 C1820 1.392 . S
C1821 H1833 0.929 . S
C1822 C1818 1.531 . S
C1822 H1834 0.960 . S
C1822 H1835 0.962 . S
C1822 H1836 0.960 . S
C1823 C1820 1.511 . S
C1823 H1837 0.961 . S
C1823 H1838 0.961 . S
C1823 H1839 0.961 . S
C1824 C1825 1.370 . S
C1824 C1826 1.363 . S
C1824 H1840 0.931 . S
C1825 C1824 1.370 . S
C1825 C1829 1.408 . S
C1826 C1824 1.363 . S
C1826 C1827 1.370 . S
C1826 C1830 1.524 . S
C1827 C1819 1.503 . S
C1827 C1826 1.370 . S
C1827 C1828 1.403 . S
C1828 C1827 1.403 . S
C1828 C1829 1.404 . S
C1828 C1831 1.539 . S
C1829 C1825 1.408 . S
C1829 C1828 1.404 . S
C1829 H1841 0.930 . S
C1830 C1826 1.524 . S
C1830 H1842 0.956 . S
C1830 H1843 0.961 . S
C1830 H1844 0.961 . S
C1831 C1828 1.539 . S
C1831 H1845 0.958 . S
C1831 H1846 0.961 . S
C1831 H1847 0.960 . S
H1832 C1816 0.931 . S
H1833 C1821 0.929 . S
H1834 C1822 0.960 . S
H1835 C1822 0.962 . S
H1836 C1822 0.960 . S
H1837 C1823 0.961 . S
H1838 C1823 0.961 . S
H1839 C1823 0.961 . S
H1840 C1824 0.931 . S
H1841 C1829 0.930 . S
H1842 C1830 0.956 . S
H1843 C1830 0.961 . S
H1844 C1830 0.961 . S
H1845 C1831 0.958 . S
H1846 C1831 0.961 . S
H1847 C1831 0.960 . S
C1848 C1849 1.391 . S
C1848 C1850 1.394 . S
C1848 H1864 0.931 . S
C1849 C1848 1.391 . S
C1849 C1853 1.376 . S
C1850 C1848 1.394 . S
C1850 C1851 1.369 . S
C1850 C1854 1.531 . S
C1851 C1850 1.369 . S
C1851 C1852 1.410 . S
C1851 C1859 1.503 . S
C1852 C1851 1.410 . S
C1852 C1853 1.392 . S
C1852 C1855 1.511 . S
C1853 C1849 1.376 . S
C1853 C1852 1.392 . S
C1853 H1865 0.929 . S
C1854 C1850 1.531 . S
C1854 H1866 0.960 . S
C1854 H1867 0.962 . S
C1854 H1868 0.960 . S
C1855 C1852 1.511 . S
C1855 H1869 0.961 . S
C1855 H1870 0.961 . S
C1855 H1871 0.961 . S
C1856 C1857 1.370 . S
C1856 C1858 1.363 . S
C1856 H1872 0.931 . S
C1857 C1856 1.370 . S
C1857 C1861 1.408 . S
C1858 C1856 1.363 . S
C1858 C1859 1.370 . S
C1858 C1862 1.524 . S
C1859 C1851 1.503 . S
C1859 C1858 1.370 . S
C1859 C1860 1.403 . S
C1860 C1859 1.403 . S
C1860 C1861 1.404 . S
C1860 C1863 1.539 . S
C1861 C1857 1.408 . S
C1861 C1860 1.404 . S
C1861 H1873 0.930 . S
C1862 C1858 1.524 . S
C1862 H1874 0.956 . S
C1862 H1875 0.961 . S
C1862 H1876 0.961 . S
C1863 C1860 1.539 . S
C1863 H1877 0.958 . S
C1863 H1878 0.961 . S
C1863 H1879 0.960 . S
H1864 C1848 0.931 . S
H1865 C1853 0.929 . S
H1866 C1854 0.960 . S
H1867 C1854 0.962 . S
H1868 C1854 0.960 . S
H1869 C1855 0.961 . S
H1870 C1855 0.961 . S
H1871 C1855 0.961 . S
H1872 C1856 0.931 . S
H1873 C1861 0.930 . S
H1874 C1862 0.956 . S
H1875 C1862 0.961 . S
H1876 C1862 0.961 . S
H1877 C1863 0.958 . S
H1878 C1863 0.961 . S
H1879 C1863 0.960 . S
C1880 C1881 1.391 . S
C1880 C1882 1.394 . S
C1880 H1896 0.931 . S
C1881 C1880 1.391 . S
C1881 C1885 1.376 . S
C1882 C1880 1.394 . S
C1882 C1883 1.369 . S
C1882 C1886 1.531 . S
C1883 C1882 1.369 . S
C1883 C1884 1.410 . S
C1883 C1891 1.503 . S
C1884 C1883 1.410 . S
C1884 C1885 1.392 . S
C1884 C1887 1.511 . S
C1885 C1881 1.376 . S
C1885 C1884 1.392 . S
C1885 H1897 0.929 . S
C1886 C1882 1.531 . S
C1886 H1898 0.960 . S
C1886 H1899 0.962 . S
C1886 H1900 0.960 . S
C1887 C1884 1.511 . S
C1887 H1901 0.961 . S
C1887 H1902 0.961 . S
C1887 H1903 0.961 . S
C1888 C1889 1.370 . S
C1888 C1890 1.363 . S
C1888 H1904 0.931 . S
C1889 C1888 1.370 . S
C1889 C1893 1.408 . S
C1890 C1888 1.363 . S
C1890 C1891 1.370 . S
C1890 C1894 1.524 . S
C1891 C1883 1.503 . S
C1891 C1890 1.370 . S
C1891 C1892 1.403 . S
C1892 C1891 1.403 . S
C1892 C1893 1.404 . S
C1892 C1895 1.539 . S
C1893 C1889 1.408 . S
C1893 C1892 1.404 . S
C1893 H1905 0.930 . S
C1894 C1890 1.524 . S
C1894 H1906 0.956 . S
C1894 H1907 0.961 . S
C1894 H1908 0.961 . S
C1895 C1892 1.539 . S
C1895 H1909 0.958 . S
C1895 H1910 0.961 . S
C1895 H1911 0.960 . S
H1896 C1880 0.931 . S
H1897 C1885 0.929 . S
H1898 C1886 0.960 . S
H1899 C1886 0.962 . S
H1900 C1886 0.960 . S
H1901 C1887 0.961 . S
H1902 C1887 0.961 . S
H1903 C1887 0.961 . S
H1904 C1888 0.931 . S
H1905 C1893 0.930 . S
H1906 C1894 0.956 . S
H1907 C1894 0.961 . S
H1908 C1894 0.961 . S
H1909 C1895 0.958 . S
H1910 C1895 0.961 . S
H1911 C1895 0.960 . S
C1912 C1913 1.391 . S
C1912 C1914 1.394 . S
C1912 H1928 0.931 . S
C1913 C1912 1.391 . S
C1913 C1917 1.376 . S
C1914 C1912 1.394 . S
C1914 C1915 1.369 . S
C1914 C1918 1.531 1_655 S
C1915 C1914 1.369 . S
C1915 C1916 1.410 . S
C1915 C1923 1.503 . S
C1916 C1915 1.410 . S
C1916 C1917 1.392 . S
C1916 C1919 1.502 1_545 S
C1917 C1913 1.376 . S
C1917 C1916 1.392 . S
C1917 H1929 0.914 1_545 S
C1918 C1914 1.531 1_455 S
C1918 H1930 0.960 . S
C1918 H1931 0.962 . S
C1918 H1932 0.960 . S
C1919 C1916 1.502 1_565 S
C1919 H1933 0.962 . S
C1919 H1934 0.947 1_565 S
C1919 H1935 0.983 . S
C1920 C1921 1.353 1_655 S
C1920 C1922 1.375 . S
C1920 H1936 0.937 . S
C1921 C1920 1.353 1_455 S
C1921 C1925 1.408 . S
C1922 C1920 1.375 . S
C1922 C1923 1.370 . S
C1922 C1926 1.524 . S
C1923 C1915 1.503 . S
C1923 C1922 1.370 . S
C1923 C1924 1.403 1_655 S
C1924 C1923 1.403 1_455 S
C1924 C1925 1.404 . S
C1924 C1927 1.539 . S
C1925 C1921 1.408 . S
C1925 C1924 1.404 . S
C1925 H1937 0.930 . S
C1926 C1922 1.524 . S
C1926 H1938 0.956 . S
C1926 H1939 0.961 . S
C1926 H1940 0.961 . S
C1927 C1924 1.539 . S
C1927 H1941 0.958 . S
C1927 H1942 0.961 1_545 S
C1927 H1943 0.960 1_545 S
H1928 C1912 0.931 . S
H1929 C1917 0.914 1_565 S
H1930 C1918 0.960 . S
H1931 C1918 0.962 . S
H1932 C1918 0.960 . S
H1933 C1919 0.962 . S
H1934 C1919 0.947 1_545 S
H1935 C1919 0.983 . S
H1936 C1920 0.937 . S
H1937 C1925 0.930 . S
H1938 C1926 0.956 . S
H1939 C1926 0.961 . S
H1940 C1926 0.961 . S
H1941 C1927 0.958 . S
H1942 C1927 0.961 1_565 S
H1943 C1927 0.960 1_565 S
C1944 C1945 1.391 . S
C1944 C1946 1.394 . S
C1944 H1960 0.931 . S
C1945 C1944 1.391 . S
C1945 C1949 1.376 . S
C1946 C1944 1.394 . S
C1946 C1947 1.369 . S
C1946 C1950 1.531 . S
C1947 C1946 1.369 . S
C1947 C1948 1.410 . S
C1947 C1955 1.503 . S
C1948 C1947 1.410 . S
C1948 C1949 1.392 . S
C1948 C1951 1.511 . S
C1949 C1945 1.376 . S
C1949 C1948 1.392 . S
C1949 H1961 0.929 . S
C1950 C1946 1.531 . S
C1950 H1962 0.960 . S
C1950 H1963 0.962 . S
C1950 H1964 0.960 . S
C1951 C1948 1.511 . S
C1951 H1965 0.961 . S
C1951 H1966 0.961 . S
C1951 H1967 0.961 . S
C1952 C1953 1.370 . S
C1952 C1954 1.363 . S
C1952 H1968 0.931 . S
C1953 C1952 1.370 . S
C1953 C1957 1.408 . S
C1954 C1952 1.363 . S
C1954 C1955 1.370 . S
C1954 C1958 1.524 . S
C1955 C1947 1.503 . S
C1955 C1954 1.370 . S
C1955 C1956 1.403 . S
C1956 C1955 1.403 . S
C1956 C1957 1.404 . S
C1956 C1959 1.539 . S
C1957 C1953 1.408 . S
C1957 C1956 1.404 . S
C1957 H1969 0.930 . S
C1958 C1954 1.524 . S
C1958 H1970 0.956 . S
C1958 H1971 0.961 . S
C1958 H1972 0.961 . S
C1959 C1956 1.539 . S
C1959 H1973 0.958 . S
C1959 H1974 0.961 . S
C1959 H1975 0.960 . S
H1960 C1944 0.931 . S
H1961 C1949 0.929 . S
H1962 C1950 0.960 . S
H1963 C1950 0.962 . S
H1964 C1950 0.960 . S
H1965 C1951 0.961 . S
H1966 C1951 0.961 . S
H1967 C1951 0.961 . S
H1968 C1952 0.931 . S
H1969 C1957 0.930 . S
H1970 C1958 0.956 . S
H1971 C1958 0.961 . S
H1972 C1958 0.961 . S
H1973 C1959 0.958 . S
H1974 C1959 0.961 . S
H1975 C1959 0.960 . S
C1976 C1977 1.391 . S
C1976 C1978 1.394 . S
C1976 H1992 0.931 . S
C1977 C1976 1.391 . S
C1977 C1981 1.376 . S
C1978 C1976 1.394 . S
C1978 C1979 1.369 . S
C1978 C1982 1.531 . S
C1979 C1978 1.369 . S
C1979 C1980 1.410 . S
C1979 C1987 1.503 . S
C1980 C1979 1.410 . S
C1980 C1981 1.392 . S
C1980 C1983 1.511 . S
C1981 C1977 1.376 . S
C1981 C1980 1.392 . S
C1981 H1993 0.929 . S
C1982 C1978 1.531 . S
C1982 H1994 0.960 . S
C1982 H1995 0.962 . S
C1982 H1996 0.960 . S
C1983 C1980 1.511 . S
C1983 H1997 0.961 . S
C1983 H1998 0.961 . S
C1983 H1999 0.961 . S
C1984 C1985 1.370 . S
C1984 C1986 1.363 . S
C1984 H2000 0.931 . S
C1985 C1984 1.370 . S
C1985 C1989 1.408 . S
C1986 C1984 1.363 . S
C1986 C1987 1.370 . S
C1986 C1990 1.524 . S
C1987 C1979 1.503 . S
C1987 C1986 1.370 . S
C1987 C1988 1.403 . S
C1988 C1987 1.403 . S
C1988 C1989 1.404 . S
C1988 C1991 1.539 1_545 S
C1989 C1985 1.408 . S
C1989 C1988 1.404 . S
C1989 H2001 0.930 1_545 S
C1990 C1986 1.524 . S
C1990 H2002 0.956 . S
C1990 H2003 0.961 . S
C1990 H2004 0.961 . S
C1991 C1988 1.539 1_565 S
C1991 H2005 0.958 . S
C1991 H2006 0.961 . S
C1991 H2007 0.960 . S
H1992 C1976 0.931 . S
H1993 C1981 0.929 . S
H1994 C1982 0.960 . S
H1995 C1982 0.962 . S
H1996 C1982 0.960 . S
H1997 C1983 0.961 . S
H1998 C1983 0.961 . S
H1999 C1983 0.961 . S
H2000 C1984 0.931 . S
H2001 C1989 0.930 1_565 S
H2002 C1990 0.956 . S
H2003 C1990 0.961 . S
H2004 C1990 0.961 . S
H2005 C1991 0.958 . S
H2006 C1991 0.961 . S
H2007 C1991 0.960 . S
C2008 C2009 1.391 . S
C2008 C2010 1.394 . S
C2008 H2024 0.931 . S
C2009 C2008 1.391 . S
C2009 C2013 1.376 . S
C2010 C2008 1.394 . S
C2010 C2011 1.369 . S
C2010 C2014 1.531 . S
C2011 C2010 1.369 . S
C2011 C2012 1.410 . S
C2011 C2019 1.503 . S
C2012 C2011 1.410 . S
C2012 C2013 1.392 . S
C2012 C2015 1.511 . S
C2013 C2009 1.376 . S
C2013 C2012 1.392 . S
C2013 H2025 0.929 . S
C2014 C2010 1.531 . S
C2014 H2026 0.960 . S
C2014 H2027 0.962 . S
C2014 H2028 0.960 . S
C2015 C2012 1.511 . S
C2015 H2029 0.961 . S
C2015 H2030 0.961 . S
C2015 H2031 0.961 . S
C2016 C2017 1.370 . S
C2016 C2018 1.363 . S
C2016 H2032 0.931 . S
C2017 C2016 1.370 . S
C2017 C2021 1.408 . S
C2018 C2016 1.363 . S
C2018 C2019 1.370 . S
C2018 C2022 1.524 . S
C2019 C2011 1.503 . S
C2019 C2018 1.370 . S
C2019 C2020 1.403 . S
C2020 C2019 1.403 . S
C2020 C2021 1.404 . S
C2020 C2023 1.539 . S
C2021 C2017 1.408 . S
C2021 C2020 1.404 . S
C2021 H2033 0.930 . S
C2022 C2018 1.524 . S
C2022 H2034 0.956 . S
C2022 H2035 0.961 . S
C2022 H2036 0.961 . S
C2023 C2020 1.539 . S
C2023 H2037 0.958 . S
C2023 H2038 0.961 . S
C2023 H2039 0.960 . S
H2024 C2008 0.931 . S
H2025 C2013 0.929 . S
H2026 C2014 0.960 . S
H2027 C2014 0.962 . S
H2028 C2014 0.960 . S
H2029 C2015 0.961 . S
H2030 C2015 0.961 . S
H2031 C2015 0.961 . S
H2032 C2016 0.931 . S
H2033 C2021 0.930 . S
H2034 C2022 0.956 . S
H2035 C2022 0.961 . S
H2036 C2022 0.961 . S
H2037 C2023 0.958 . S
H2038 C2023 0.961 . S
H2039 C2023 0.960 . S
C2040 C2041 1.391 . S
C2040 C2042 1.394 . S
C2040 H2056 0.931 . S
C2041 C2040 1.391 . S
C2041 C2045 1.372 . S
C2042 C2040 1.394 . S
C2042 C2043 1.369 . S
C2042 C2046 1.531 . S
C2043 C2042 1.369 . S
C2043 C2044 1.410 . S
C2043 C2051 1.503 . S
C2044 C2043 1.410 . S
C2044 C2045 1.393 . S
C2044 C2047 1.511 1_545 S
C2045 C2041 1.372 . S
C2045 C2044 1.393 . S
C2045 H2057 0.932 1_545 S
C2046 C2042 1.531 . S
C2046 H2058 0.960 . S
C2046 H2059 0.962 1_655 S
C2046 H2060 0.960 . S
C2047 C2044 1.511 1_565 S
C2047 H2061 0.961 . S
C2047 H2062 0.961 . S
C2047 H2063 0.961 . S
C2048 C2049 1.370 . S
C2048 C2050 1.363 . S
C2048 H2064 0.931 . S
C2049 C2048 1.370 . S
C2049 C2053 1.408 1_455 S
C2050 C2048 1.363 . S
C2050 C2051 1.370 1_455 S
C2050 C2054 1.524 . S
C2051 C2043 1.503 . S
C2051 C2050 1.370 1_655 S
C2051 C2052 1.403 . S
C2052 C2051 1.403 . S
C2052 C2053 1.404 . S
C2052 C2055 1.539 . S
C2053 C2049 1.408 1_655 S
C2053 C2052 1.404 . S
C2053 H2065 0.930 . S
C2054 C2050 1.524 . S
C2054 H2066 0.956 . S
C2054 H2067 0.961 1_545 S
C2054 H2068 0.961 1_545 S
C2055 C2052 1.539 . S
C2055 H2069 0.958 . S
C2055 H2070 0.961 . S
C2055 H2071 0.960 . S
H2056 C2040 0.931 . S
H2057 C2045 0.932 1_565 S
H2058 C2046 0.960 . S
H2059 C2046 0.962 1_455 S
H2060 C2046 0.960 . S
H2061 C2047 0.961 . S
H2062 C2047 0.961 . S
H2063 C2047 0.961 . S
H2064 C2048 0.931 . S
H2065 C2053 0.930 . S
H2066 C2054 0.956 . S
H2067 C2054 0.961 1_565 S
H2068 C2054 0.961 1_565 S
H2069 C2055 0.958 . S
H2070 C2055 0.961 . S
H2071 C2055 0.960 . S
C2072 C2073 1.391 . S
C2072 C2074 1.394 . S
C2072 H2088 0.931 . S
C2073 C2072 1.391 . S
C2073 C2077 1.376 . S
C2074 C2072 1.394 . S
C2074 C2075 1.369 . S
C2074 C2078 1.531 . S
C2075 C2074 1.369 . S
C2075 C2076 1.410 . S
C2075 C2083 1.503 . S
C2076 C2075 1.410 . S
C2076 C2077 1.392 . S
C2076 C2079 1.511 . S
C2077 C2073 1.376 . S
C2077 C2076 1.392 . S
C2077 H2089 0.929 . S
C2078 C2074 1.531 . S
C2078 H2090 0.960 . S
C2078 H2091 0.962 . S
C2078 H2092 0.960 . S
C2079 C2076 1.511 . S
C2079 H2093 0.961 . S
C2079 H2094 0.961 . S
C2079 H2095 0.961 . S
C2080 C2081 1.370 . S
C2080 C2082 1.363 . S
C2080 H2096 0.931 . S
C2081 C2080 1.370 . S
C2081 C2085 1.408 . S
C2082 C2080 1.363 . S
C2082 C2083 1.370 . S
C2082 C2086 1.524 . S
C2083 C2075 1.503 . S
C2083 C2082 1.370 . S
C2083 C2084 1.403 . S
C2084 C2083 1.403 . S
C2084 C2085 1.404 . S
C2084 C2087 1.539 . S
C2085 C2081 1.408 . S
C2085 C2084 1.404 . S
C2085 H2097 0.930 . S
C2086 C2082 1.524 . S
C2086 H2098 0.956 . S
C2086 H2099 0.961 . S
C2086 H2100 0.961 . S
C2087 C2084 1.539 . S
C2087 H2101 0.958 . S
C2087 H2102 0.961 . S
C2087 H2103 0.960 . S
H2088 C2072 0.931 . S
H2089 C2077 0.929 . S
H2090 C2078 0.960 . S
H2091 C2078 0.962 . S
H2092 C2078 0.960 . S
H2093 C2079 0.961 . S
H2094 C2079 0.961 . S
H2095 C2079 0.961 . S
H2096 C2080 0.931 . S
H2097 C2085 0.930 . S
H2098 C2086 0.956 . S
H2099 C2086 0.961 . S
H2100 C2086 0.961 . S
H2101 C2087 0.958 . S
H2102 C2087 0.961 . S
H2103 C2087 0.960 . S
C2104 C2105 1.391 . S
C2104 C2106 1.394 . S
C2104 H2120 0.931 . S
C2105 C2104 1.391 . S
C2105 C2109 1.376 . S
C2106 C2104 1.394 . S
C2106 C2107 1.369 . S
C2106 C2110 1.531 . S
C2107 C2106 1.369 . S
C2107 C2108 1.410 . S
C2107 C2115 1.503 . S
C2108 C2107 1.410 . S
C2108 C2109 1.392 . S
C2108 C2111 1.511 . S
C2109 C2105 1.376 . S
C2109 C2108 1.392 . S
C2109 H2121 0.929 . S
C2110 C2106 1.531 . S
C2110 H2122 0.960 . S
C2110 H2123 0.962 . S
C2110 H2124 0.960 . S
C2111 C2108 1.511 . S
C2111 H2125 0.961 . S
C2111 H2126 0.961 . S
C2111 H2127 0.961 . S
C2112 C2113 1.370 . S
C2112 C2114 1.363 . S
C2112 H2128 0.931 . S
C2113 C2112 1.370 . S
C2113 C2117 1.408 . S
C2114 C2112 1.363 . S
C2114 C2115 1.370 . S
C2114 C2118 1.524 . S
C2115 C2107 1.503 . S
C2115 C2114 1.370 . S
C2115 C2116 1.403 . S
C2116 C2115 1.403 . S
C2116 C2117 1.404 . S
C2116 C2119 1.539 . S
C2117 C2113 1.408 . S
C2117 C2116 1.404 . S
C2117 H2129 0.930 . S
C2118 C2114 1.524 . S
C2118 H2130 0.956 . S
C2118 H2131 0.961 . S
C2118 H2132 0.961 . S
C2119 C2116 1.539 . S
C2119 H2133 0.958 . S
C2119 H2134 0.961 . S
C2119 H2135 0.960 . S
H2120 C2104 0.931 . S
H2121 C2109 0.929 . S
H2122 C2110 0.960 . S
H2123 C2110 0.962 . S
H2124 C2110 0.960 . S
H2125 C2111 0.961 . S
H2126 C2111 0.961 . S
H2127 C2111 0.961 . S
H2128 C2112 0.931 . S
H2129 C2117 0.930 . S
H2130 C2118 0.956 . S
H2131 C2118 0.961 . S
H2132 C2118 0.961 . S
H2133 C2119 0.958 . S
H2134 C2119 0.961 . S
H2135 C2119 0.960 . S
C2136 C2137 1.391 . S
C2136 C2138 1.394 . S
C2136 H2152 0.931 . S
C2137 C2136 1.391 . S
C2137 C2141 1.376 . S
C2138 C2136 1.394 . S
C2138 C2139 1.369 . S
C2138 C2142 1.531 . S
C2139 C2138 1.369 . S
C2139 C2140 1.410 . S
C2139 C2147 1.503 . S
C2140 C2139 1.410 . S
C2140 C2141 1.392 . S
C2140 C2143 1.511 . S
C2141 C2137 1.376 . S
C2141 C2140 1.392 . S
C2141 H2153 0.929 . S
C2142 C2138 1.531 . S
C2142 H2154 0.960 . S
C2142 H2155 0.962 . S
C2142 H2156 0.960 . S
C2143 C2140 1.511 . S
C2143 H2157 0.961 . S
C2143 H2158 0.961 . S
C2143 H2159 0.961 . S
C2144 C2145 1.370 . S
C2144 C2146 1.363 . S
C2144 H2160 0.931 . S
C2145 C2144 1.370 . S
C2145 C2149 1.408 . S
C2146 C2144 1.363 . S
C2146 C2147 1.370 . S
C2146 C2150 1.524 . S
C2147 C2139 1.503 . S
C2147 C2146 1.370 . S
C2147 C2148 1.403 . S
C2148 C2147 1.403 . S
C2148 C2149 1.404 . S
C2148 C2151 1.539 . S
C2149 C2145 1.408 . S
C2149 C2148 1.404 . S
C2149 H2161 0.930 . S
C2150 C2146 1.524 . S
C2150 H2162 0.956 . S
C2150 H2163 0.961 . S
C2150 H2164 0.961 . S
C2151 C2148 1.539 . S
C2151 H2165 0.958 . S
C2151 H2166 0.961 . S
C2151 H2167 0.960 . S
H2152 C2136 0.931 . S
H2153 C2141 0.929 . S
H2154 C2142 0.960 . S
H2155 C2142 0.962 . S
H2156 C2142 0.960 . S
H2157 C2143 0.961 . S
H2158 C2143 0.961 . S
H2159 C2143 0.961 . S
H2160 C2144 0.931 . S
H2161 C2149 0.930 . S
H2162 C2150 0.956 . S
H2163 C2150 0.961 . S
H2164 C2150 0.961 . S
H2165 C2151 0.958 . S
H2166 C2151 0.961 . S
H2167 C2151 0.960 . S
C2168 C2169 1.391 1_556 S
C2168 C2170 1.394 1_556 S
C2168 H2184 0.931 . S
C2169 C2168 1.391 1_554 S
C2169 C2173 1.376 . S
C2170 C2168 1.394 1_554 S
C2170 C2171 1.369 . S
C2170 C2174 1.531 1_564 S
C2171 C2170 1.369 . S
C2171 C2172 1.410 . S
C2171 C2179 1.503 . S
C2172 C2171 1.410 . S
C2172 C2173 1.392 . S
C2172 C2175 1.511 . S
C2173 C2169 1.376 . S
C2173 C2172 1.392 . S
C2173 H2185 0.929 . S
C2174 C2170 1.531 1_546 S
C2174 H2186 0.960 . S
C2174 H2187 0.962 1_556 S
C2174 H2188 0.960 . S
C2175 C2172 1.511 . S
C2175 H2189 0.961 . S
C2175 H2190 0.961 . S
C2175 H2191 0.961 . S
C2176 C2177 1.370 . S
C2176 C2178 1.363 1_545 S
C2176 H2192 0.931 . S
C2177 C2176 1.370 . S
C2177 C2181 1.408 1_545 S
C2178 C2176 1.363 1_565 S
C2178 C2179 1.370 . S
C2178 C2182 1.515 . S
C2179 C2171 1.503 . S
C2179 C2178 1.370 . S
C2179 C2180 1.403 . S
C2180 C2179 1.403 . S
C2180 C2181 1.404 . S
C2180 C2183 1.539 1_554 S
C2181 C2177 1.408 1_565 S
C2181 C2180 1.404 . S
C2181 H2193 0.930 . S
C2182 C2178 1.515 . S
C2182 H2194 0.941 1_565 S
C2182 H2195 1.006 . S
C2182 H2196 0.942 1_565 S
C2183 C2180 1.539 1_556 S
C2183 H2197 0.958 . S
C2183 H2198 0.961 . S
C2183 H2199 0.960 . S
H2184 C2168 0.931 . S
H2185 C2173 0.929 . S
H2186 C2174 0.960 . S
H2187 C2174 0.962 1_554 S
H2188 C2174 0.960 . S
H2189 C2175 0.961 . S
H2190 C2175 0.961 . S
H2191 C2175 0.961 . S
H2192 C2176 0.931 . S
H2193 C2181 0.930 . S
H2194 C2182 0.941 1_545 S
H2195 C2182 1.006 . S
H2196 C2182 0.942 1_545 S
H2197 C2183 0.958 . S
H2198 C2183 0.961 . S
H2199 C2183 0.960 . S
C2200 C2201 1.391 . S
C2200 C2202 1.394 . S
C2200 H2216 0.931 . S
C2201 C2200 1.391 . S
C2201 C2205 1.376 1_554 S
C2202 C2200 1.394 . S
C2202 C2203 1.369 . S
C2202 C2206 1.531 . S
C2203 C2202 1.369 . S
C2203 C2204 1.410 1_554 S
C2203 C2211 1.503 . S
C2204 C2203 1.410 1_556 S
C2204 C2205 1.392 . S
C2204 C2207 1.511 . S
C2205 C2201 1.376 1_556 S
C2205 C2204 1.392 . S
C2205 H2217 0.929 . S
C2206 C2202 1.531 . S
C2206 H2218 0.955 1_554 S
C2206 H2219 0.962 . S
C2206 H2220 0.960 . S
C2207 C2204 1.511 . S
C2207 H2221 0.968 . S
C2207 H2222 0.961 1_556 S
C2207 H2223 0.961 . S
C2208 C2209 1.370 . S
C2208 C2210 1.363 . S
C2208 H2224 0.931 . S
C2209 C2208 1.370 . S
C2209 C2213 1.408 1_554 S
C2210 C2208 1.363 . S
C2210 C2211 1.370 . S
C2210 C2214 1.524 . S
C2211 C2203 1.503 . S
C2211 C2210 1.370 . S
C2211 C2212 1.403 1_554 S
C2212 C2211 1.403 1_556 S
C2212 C2213 1.404 . S
C2212 C2215 1.539 . S
C2213 C2209 1.408 1_556 S
C2213 C2212 1.404 . S
C2213 H2225 0.930 . S
C2214 C2210 1.524 . S
C2214 H2226 0.956 . S
C2214 H2227 0.961 . S
C2214 H2228 0.961 . S
C2215 C2212 1.539 . S
C2215 H2229 0.958 . S
C2215 H2230 0.961 . S
C2215 H2231 0.960 . S
H2216 C2200 0.931 . S
H2217 C2205 0.929 . S
H2218 C2206 0.955 1_556 S
H2219 C2206 0.962 . S
H2220 C2206 0.960 . S
H2221 C2207 0.968 . S
H2222 C2207 0.961 1_554 S
H2223 C2207 0.961 . S
H2224 C2208 0.931 . S
H2225 C2213 0.930 . S
H2226 C2214 0.956 . S
H2227 C2214 0.961 . S
H2228 C2214 0.961 . S
H2229 C2215 0.958 . S
H2230 C2215 0.961 . S
H2231 C2215 0.960 . S
C2232 C2233 1.391 . S
C2232 C2234 1.394 . S
C2232 H2248 0.931 . S
C2233 C2232 1.391 . S
C2233 C2237 1.376 . S
C2234 C2232 1.394 . S
C2234 C2235 1.369 . S
C2234 C2238 1.531 . S
C2235 C2234 1.369 . S
C2235 C2236 1.410 . S
C2235 C2243 1.503 . S
C2236 C2235 1.410 . S
C2236 C2237 1.392 . S
C2236 C2239 1.511 . S
C2237 C2233 1.376 . S
C2237 C2236 1.392 . S
C2237 H2249 0.929 . S
C2238 C2234 1.531 . S
C2238 H2250 0.960 . S
C2238 H2251 0.962 . S
C2238 H2252 0.960 . S
C2239 C2236 1.511 . S
C2239 H2253 0.961 . S
C2239 H2254 0.961 . S
C2239 H2255 0.961 . S
C2240 C2241 1.370 . S
C2240 C2242 1.363 . S
C2240 H2256 0.931 . S
C2241 C2240 1.370 . S
C2241 C2245 1.408 . S
C2242 C2240 1.363 . S
C2242 C2243 1.370 . S
C2242 C2246 1.524 . S
C2243 C2235 1.503 . S
C2243 C2242 1.370 . S
C2243 C2244 1.403 . S
C2244 C2243 1.403 . S
C2244 C2245 1.404 . S
C2244 C2247 1.539 . S
C2245 C2241 1.408 . S
C2245 C2244 1.404 . S
C2245 H2257 0.930 . S
C2246 C2242 1.524 . S
C2246 H2258 0.956 . S
C2246 H2259 0.961 . S
C2246 H2260 0.961 . S
C2247 C2244 1.539 . S
C2247 H2261 0.958 . S
C2247 H2262 0.961 . S
C2247 H2263 0.960 . S
H2248 C2232 0.931 . S
H2249 C2237 0.929 . S
H2250 C2238 0.960 . S
H2251 C2238 0.962 . S
H2252 C2238 0.960 . S
H2253 C2239 0.961 . S
H2254 C2239 0.961 . S
H2255 C2239 0.961 . S
H2256 C2240 0.931 . S
H2257 C2245 0.930 . S
H2258 C2246 0.956 . S
H2259 C2246 0.961 . S
H2260 C2246 0.961 . S
H2261 C2247 0.958 . S
H2262 C2247 0.961 . S
H2263 C2247 0.960 . S
C2264 C2265 1.391 . S
C2264 C2266 1.394 . S
C2264 H2280 0.931 . S
C2265 C2264 1.391 . S
C2265 C2269 1.376 . S
C2266 C2264 1.394 . S
C2266 C2267 1.369 . S
C2266 C2270 1.531 . S
C2267 C2266 1.369 . S
C2267 C2268 1.410 . S
C2267 C2275 1.503 . S
C2268 C2267 1.410 . S
C2268 C2269 1.392 . S
C2268 C2271 1.511 . S
C2269 C2265 1.376 . S
C2269 C2268 1.392 . S
C2269 H2281 0.929 . S
C2270 C2266 1.531 . S
C2270 H2282 0.960 . S
C2270 H2283 0.962 . S
C2270 H2284 0.960 . S
C2271 C2268 1.511 . S
C2271 H2285 0.961 . S
C2271 H2286 0.961 . S
C2271 H2287 0.961 . S
C2272 C2273 1.370 . S
C2272 C2274 1.363 . S
C2272 H2288 0.931 . S
C2273 C2272 1.370 . S
C2273 C2277 1.408 . S
C2274 C2272 1.363 . S
C2274 C2275 1.370 . S
C2274 C2278 1.524 . S
C2275 C2267 1.503 . S
C2275 C2274 1.370 . S
C2275 C2276 1.403 . S
C2276 C2275 1.403 . S
C2276 C2277 1.404 . S
C2276 C2279 1.539 . S
C2277 C2273 1.408 . S
C2277 C2276 1.404 . S
C2277 H2289 0.930 . S
C2278 C2274 1.524 . S
C2278 H2290 0.956 . S
C2278 H2291 0.961 . S
C2278 H2292 0.961 . S
C2279 C2276 1.539 . S
C2279 H2293 0.958 . S
C2279 H2294 0.961 . S
C2279 H2295 0.960 . S
H2280 C2264 0.931 . S
H2281 C2269 0.929 . S
H2282 C2270 0.960 . S
H2283 C2270 0.962 . S
H2284 C2270 0.960 . S
H2285 C2271 0.961 . S
H2286 C2271 0.961 . S
H2287 C2271 0.961 . S
H2288 C2272 0.931 . S
H2289 C2277 0.930 . S
H2290 C2278 0.956 . S
H2291 C2278 0.961 . S
H2292 C2278 0.961 . S
H2293 C2279 0.958 . S
H2294 C2279 0.961 . S
H2295 C2279 0.960 . S
C2296 C2297 1.391 . S
C2296 C2298 1.394 . S
C2296 H2312 0.931 . S
C2297 C2296 1.391 . S
C2297 C2301 1.376 . S
C2298 C2296 1.394 . S
C2298 C2299 1.369 . S
C2298 C2302 1.531 . S
C2299 C2298 1.369 . S
C2299 C2300 1.410 . S
C2299 C2307 1.503 . S
C2300 C2299 1.410 . S
C2300 C2301 1.392 . S
C2300 C2303 1.511 . S
C2301 C2297 1.376 . S
C2301 C2300 1.392 . S
C2301 H2313 0.929 . S
C2302 C2298 1.531 . S
C2302 H2314 0.960 . S
C2302 H2315 0.962 . S
C2302 H2316 0.960 . S
C2303 C2300 1.511 . S
C2303 H2317 0.961 . S
C2303 H2318 0.961 . S
C2303 H2319 0.961 . S
C2304 C2305 1.370 . S
C2304 C2306 1.363 . S
C2304 H2320 0.931 . S
C2305 C2304 1.370 . S
C2305 C2309 1.408 . S
C2306 C2304 1.363 . S
C2306 C2307 1.370 . S
C2306 C2310 1.524 . S
C2307 C2299 1.503 . S
C2307 C2306 1.370 . S
C2307 C2308 1.403 . S
C2308 C2307 1.403 . S
C2308 C2309 1.404 . S
C2308 C2311 1.539 . S
C2309 C2305 1.408 . S
C2309 C2308 1.404 . S
C2309 H2321 0.930 . S
C2310 C2306 1.524 . S
C2310 H2322 0.956 . S
C2310 H2323 0.961 . S
C2310 H2324 0.961 . S
C2311 C2308 1.539 . S
C2311 H2325 0.958 . S
C2311 H2326 0.961 . S
C2311 H2327 0.960 . S
H2312 C2296 0.931 . S
H2313 C2301 0.929 . S
H2314 C2302 0.960 . S
H2315 C2302 0.962 . S
H2316 C2302 0.960 . S
H2317 C2303 0.961 . S
H2318 C2303 0.961 . S
H2319 C2303 0.961 . S
H2320 C2304 0.931 . S
H2321 C2309 0.930 . S
H2322 C2310 0.956 . S
H2323 C2310 0.961 . S
H2324 C2310 0.961 . S
H2325 C2311 0.958 . S
H2326 C2311 0.961 . S
H2327 C2311 0.960 . S
C2328 C2329 1.391 . S
C2328 C2330 1.394 . S
C2328 H2344 0.931 . S
C2329 C2328 1.391 . S
C2329 C2333 1.376 . S
C2330 C2328 1.394 . S
C2330 C2331 1.369 . S
C2330 C2334 1.531 . S
C2331 C2330 1.369 . S
C2331 C2332 1.410 . S
C2331 C2339 1.503 . S
C2332 C2331 1.410 . S
C2332 C2333 1.392 . S
C2332 C2335 1.511 . S
C2333 C2329 1.376 . S
C2333 C2332 1.392 . S
C2333 H2345 0.929 . S
C2334 C2330 1.531 . S
C2334 H2346 0.960 . S
C2334 H2347 0.962 . S
C2334 H2348 0.960 . S
C2335 C2332 1.511 . S
C2335 H2349 0.961 . S
C2335 H2350 0.961 . S
C2335 H2351 0.961 . S
C2336 C2337 1.370 . S
C2336 C2338 1.363 . S
C2336 H2352 0.931 . S
C2337 C2336 1.370 . S
C2337 C2341 1.408 . S
C2338 C2336 1.363 . S
C2338 C2339 1.370 . S
C2338 C2342 1.524 . S
C2339 C2331 1.503 . S
C2339 C2338 1.370 . S
C2339 C2340 1.403 . S
C2340 C2339 1.403 . S
C2340 C2341 1.404 . S
C2340 C2343 1.539 . S
C2341 C2337 1.408 . S
C2341 C2340 1.404 . S
C2341 H2353 0.930 . S
C2342 C2338 1.524 . S
C2342 H2354 0.956 . S
C2342 H2355 0.961 . S
C2342 H2356 0.961 . S
C2343 C2340 1.539 . S
C2343 H2357 0.958 . S
C2343 H2358 0.961 . S
C2343 H2359 0.960 . S
H2344 C2328 0.931 . S
H2345 C2333 0.929 . S
H2346 C2334 0.960 . S
H2347 C2334 0.962 . S
H2348 C2334 0.960 . S
H2349 C2335 0.961 . S
H2350 C2335 0.961 . S
H2351 C2335 0.961 . S
H2352 C2336 0.931 . S
H2353 C2341 0.930 . S
H2354 C2342 0.956 . S
H2355 C2342 0.961 . S
H2356 C2342 0.961 . S
H2357 C2343 0.958 . S
H2358 C2343 0.961 . S
H2359 C2343 0.960 . S
C2360 C2361 1.391 . S
C2360 C2362 1.394 . S
C2360 H2376 0.931 . S
C2361 C2360 1.391 . S
C2361 C2365 1.376 . S
C2362 C2360 1.394 . S
C2362 C2363 1.369 . S
C2362 C2366 1.531 . S
C2363 C2362 1.369 . S
C2363 C2364 1.410 . S
C2363 C2371 1.503 . S
C2364 C2363 1.410 . S
C2364 C2365 1.392 . S
C2364 C2367 1.511 . S
C2365 C2361 1.376 . S
C2365 C2364 1.392 . S
C2365 H2377 0.929 . S
C2366 C2362 1.531 . S
C2366 H2378 0.960 . S
C2366 H2379 0.962 . S
C2366 H2380 0.960 . S
C2367 C2364 1.511 . S
C2367 H2381 0.961 . S
C2367 H2382 0.961 . S
C2367 H2383 0.961 . S
C2368 C2369 1.370 . S
C2368 C2370 1.363 . S
C2368 H2384 0.931 . S
C2369 C2368 1.370 . S
C2369 C2373 1.408 . S
C2370 C2368 1.363 . S
C2370 C2371 1.370 . S
C2370 C2374 1.524 . S
C2371 C2363 1.503 . S
C2371 C2370 1.370 . S
C2371 C2372 1.403 . S
C2372 C2371 1.403 . S
C2372 C2373 1.404 . S
C2372 C2375 1.539 . S
C2373 C2369 1.408 . S
C2373 C2372 1.404 . S
C2373 H2385 0.930 . S
C2374 C2370 1.524 . S
C2374 H2386 0.956 . S
C2374 H2387 0.961 . S
C2374 H2388 0.961 . S
C2375 C2372 1.539 . S
C2375 H2389 0.958 . S
C2375 H2390 0.961 . S
C2375 H2391 0.960 . S
H2376 C2360 0.931 . S
H2377 C2365 0.929 . S
H2378 C2366 0.960 . S
H2379 C2366 0.962 . S
H2380 C2366 0.960 . S
H2381 C2367 0.961 . S
H2382 C2367 0.961 . S
H2383 C2367 0.961 . S
H2384 C2368 0.931 . S
H2385 C2373 0.930 . S
H2386 C2374 0.956 . S
H2387 C2374 0.961 . S
H2388 C2374 0.961 . S
H2389 C2375 0.958 . S
H2390 C2375 0.961 . S
H2391 C2375 0.960 . S
C2392 C2393 1.391 . S
C2392 C2394 1.394 . S
C2392 H2408 0.931 . S
C2393 C2392 1.391 . S
C2393 C2397 1.376 . S
C2394 C2392 1.394 . S
C2394 C2395 1.369 . S
C2394 C2398 1.531 . S
C2395 C2394 1.369 . S
C2395 C2396 1.410 . S
C2395 C2403 1.503 . S
C2396 C2395 1.410 . S
C2396 C2397 1.392 . S
C2396 C2399 1.511 . S
C2397 C2393 1.376 . S
C2397 C2396 1.392 . S
C2397 H2409 0.929 . S
C2398 C2394 1.531 . S
C2398 H2410 0.960 . S
C2398 H2411 0.962 . S
C2398 H2412 0.960 . S
C2399 C2396 1.511 . S
C2399 H2413 0.961 . S
C2399 H2414 0.961 . S
C2399 H2415 0.961 . S
C2400 C2401 1.370 . S
C2400 C2402 1.363 . S
C2400 H2416 0.931 . S
C2401 C2400 1.370 . S
C2401 C2405 1.408 . S
C2402 C2400 1.363 . S
C2402 C2403 1.370 . S
C2402 C2406 1.524 . S
C2403 C2395 1.503 . S
C2403 C2402 1.370 . S
C2403 C2404 1.403 . S
C2404 C2403 1.403 . S
C2404 C2405 1.404 . S
C2404 C2407 1.539 . S
C2405 C2401 1.408 . S
C2405 C2404 1.404 . S
C2405 H2417 0.930 . S
C2406 C2402 1.524 . S
C2406 H2418 0.956 . S
C2406 H2419 0.961 . S
C2406 H2420 0.961 . S
C2407 C2404 1.539 . S
C2407 H2421 0.958 . S
C2407 H2422 0.961 . S
C2407 H2423 0.960 . S
H2408 C2392 0.931 . S
H2409 C2397 0.929 . S
H2410 C2398 0.960 . S
H2411 C2398 0.962 . S
H2412 C2398 0.960 . S
H2413 C2399 0.961 . S
H2414 C2399 0.961 . S
H2415 C2399 0.961 . S
H2416 C2400 0.931 . S
H2417 C2405 0.930 . S
H2418 C2406 0.956 . S
H2419 C2406 0.961 . S
H2420 C2406 0.961 . S
H2421 C2407 0.958 . S
H2422 C2407 0.961 . S
H2423 C2407 0.960 . S
C2424 C2425 1.391 . S
C2424 C2426 1.394 . S
C2424 H2440 0.931 . S
C2425 C2424 1.391 . S
C2425 C2429 1.376 . S
C2426 C2424 1.394 . S
C2426 C2427 1.369 . S
C2426 C2430 1.531 . S
C2427 C2426 1.369 . S
C2427 C2428 1.410 . S
C2427 C2435 1.503 . S
C2428 C2427 1.410 . S
C2428 C2429 1.392 . S
C2428 C2431 1.511 . S
C2429 C2425 1.376 . S
C2429 C2428 1.392 . S
C2429 H2441 0.929 . S
C2430 C2426 1.531 . S
C2430 H2442 0.960 . S
C2430 H2443 0.962 . S
C2430 H2444 0.960 . S
C2431 C2428 1.511 . S
C2431 H2445 0.961 . S
C2431 H2446 0.961 . S
C2431 H2447 0.961 . S
C2432 C2433 1.370 . S
C2432 C2434 1.363 . S
C2432 H2448 0.931 . S
C2433 C2432 1.370 . S
C2433 C2437 1.408 . S
C2434 C2432 1.363 . S
C2434 C2435 1.370 . S
C2434 C2438 1.524 . S
C2435 C2427 1.503 . S
C2435 C2434 1.370 . S
C2435 C2436 1.403 . S
C2436 C2435 1.403 . S
C2436 C2437 1.404 . S
C2436 C2439 1.539 . S
C2437 C2433 1.408 . S
C2437 C2436 1.404 . S
C2437 H2449 0.930 . S
C2438 C2434 1.524 . S
C2438 H2450 0.956 . S
C2438 H2451 0.961 . S
C2438 H2452 0.961 . S
C2439 C2436 1.539 . S
C2439 H2453 0.958 . S
C2439 H2454 0.961 1_455 S
C2439 H2455 0.960 . S
H2440 C2424 0.931 . S
H2441 C2429 0.929 . S
H2442 C2430 0.960 . S
H2443 C2430 0.962 . S
H2444 C2430 0.960 . S
H2445 C2431 0.961 . S
H2446 C2431 0.961 . S
H2447 C2431 0.961 . S
H2448 C2432 0.931 . S
H2449 C2437 0.930 . S
H2450 C2438 0.956 . S
H2451 C2438 0.961 . S
H2452 C2438 0.961 . S
H2453 C2439 0.958 . S
H2454 C2439 0.961 1_655 S
H2455 C2439 0.960 . S
C2456 C2457 1.391 . S
C2456 C2458 1.394 . S
C2456 H2472 0.931 . S
C2457 C2456 1.391 . S
C2457 C2461 1.376 . S
C2458 C2456 1.394 . S
C2458 C2459 1.369 . S
C2458 C2462 1.531 . S
C2459 C2458 1.369 . S
C2459 C2460 1.410 . S
C2459 C2467 1.503 . S
C2460 C2459 1.410 . S
C2460 C2461 1.392 . S
C2460 C2463 1.511 . S
C2461 C2457 1.376 . S
C2461 C2460 1.392 . S
C2461 H2473 0.929 . S
C2462 C2458 1.531 . S
C2462 H2474 0.960 . S
C2462 H2475 0.962 . S
C2462 H2476 0.960 . S
C2463 C2460 1.511 . S
C2463 H2477 0.961 . S
C2463 H2478 0.961 . S
C2463 H2479 0.961 . S
C2464 C2465 1.370 . S
C2464 C2466 1.363 . S
C2464 H2480 0.931 . S
C2465 C2464 1.370 . S
C2465 C2469 1.408 . S
C2466 C2464 1.363 . S
C2466 C2467 1.370 . S
C2466 C2470 1.524 . S
C2467 C2459 1.503 . S
C2467 C2466 1.370 . S
C2467 C2468 1.403 . S
C2468 C2467 1.403 . S
C2468 C2469 1.404 . S
C2468 C2471 1.539 . S
C2469 C2465 1.408 . S
C2469 C2468 1.404 . S
C2469 H2481 0.930 . S
C2470 C2466 1.524 . S
C2470 H2482 0.956 . S
C2470 H2483 0.961 . S
C2470 H2484 0.961 . S
C2471 C2468 1.539 . S
C2471 H2485 0.958 . S
C2471 H2486 0.961 . S
C2471 H2487 0.960 . S
H2472 C2456 0.931 . S
H2473 C2461 0.929 . S
H2474 C2462 0.960 . S
H2475 C2462 0.962 . S
H2476 C2462 0.960 . S
H2477 C2463 0.961 . S
H2478 C2463 0.961 . S
H2479 C2463 0.961 . S
H2480 C2464 0.931 . S
H2481 C2469 0.930 . S
H2482 C2470 0.956 . S
H2483 C2470 0.961 . S
H2484 C2470 0.961 . S
H2485 C2471 0.958 . S
H2486 C2471 0.961 . S
H2487 C2471 0.960 . S
C2488 C2489 1.391 . S
C2488 C2490 1.394 . S
C2488 H2504 0.931 . S
C2489 C2488 1.391 . S
C2489 C2493 1.376 . S
C2490 C2488 1.394 . S
C2490 C2491 1.369 . S
C2490 C2494 1.531 . S
C2491 C2490 1.369 . S
C2491 C2492 1.410 . S
C2491 C2499 1.503 . S
C2492 C2491 1.410 . S
C2492 C2493 1.392 . S
C2492 C2495 1.511 . S
C2493 C2489 1.376 . S
C2493 C2492 1.392 . S
C2493 H2505 0.929 . S
C2494 C2490 1.531 . S
C2494 H2506 0.960 . S
C2494 H2507 0.962 . S
C2494 H2508 0.960 . S
C2495 C2492 1.511 . S
C2495 H2509 0.961 . S
C2495 H2510 0.961 . S
C2495 H2511 0.961 . S
C2496 C2497 1.370 . S
C2496 C2498 1.363 . S
C2496 H2512 0.931 . S
C2497 C2496 1.370 . S
C2497 C2501 1.408 . S
C2498 C2496 1.363 . S
C2498 C2499 1.370 . S
C2498 C2502 1.524 . S
C2499 C2491 1.503 . S
C2499 C2498 1.370 . S
C2499 C2500 1.403 . S
C2500 C2499 1.403 . S
C2500 C2501 1.404 . S
C2500 C2503 1.539 . S
C2501 C2497 1.408 . S
C2501 C2500 1.404 . S
C2501 H2513 0.930 . S
C2502 C2498 1.524 . S
C2502 H2514 0.956 . S
C2502 H2515 0.961 . S
C2502 H2516 0.961 . S
C2503 C2500 1.539 . S
C2503 H2517 0.958 . S
C2503 H2518 0.961 . S
C2503 H2519 0.960 . S
H2504 C2488 0.931 . S
H2505 C2493 0.929 . S
H2506 C2494 0.960 . S
H2507 C2494 0.962 . S
H2508 C2494 0.960 . S
H2509 C2495 0.961 . S
H2510 C2495 0.961 . S
H2511 C2495 0.961 . S
H2512 C2496 0.931 . S
H2513 C2501 0.930 . S
H2514 C2502 0.956 . S
H2515 C2502 0.961 . S
H2516 C2502 0.961 . S
H2517 C2503 0.958 . S
H2518 C2503 0.961 . S
H2519 C2503 0.960 . S
C2520 C2521 1.391 . S
C2520 C2522 1.394 . S
C2520 H2536 0.931 . S
C2521 C2520 1.391 . S
C2521 C2525 1.376 . S
C2522 C2520 1.394 . S
C2522 C2523 1.369 . S
C2522 C2526 1.531 . S
C2523 C2522 1.369 . S
C2523 C2524 1.410 . S
C2523 C2531 1.503 . S
C2524 C2523 1.410 . S
C2524 C2525 1.392 . S
C2524 C2527 1.511 . S
C2525 C2521 1.376 . S
C2525 C2524 1.392 . S
C2525 H2537 0.929 . S
C2526 C2522 1.531 . S
C2526 H2538 0.960 . S
C2526 H2539 0.962 . S
C2526 H2540 0.960 . S
C2527 C2524 1.511 . S
C2527 H2541 0.961 . S
C2527 H2542 0.961 . S
C2527 H2543 0.961 . S
C2528 C2529 1.370 . S
C2528 C2530 1.363 . S
C2528 H2544 0.931 . S
C2529 C2528 1.370 . S
C2529 C2533 1.408 . S
C2530 C2528 1.363 . S
C2530 C2531 1.370 . S
C2530 C2534 1.524 . S
C2531 C2523 1.503 . S
C2531 C2530 1.370 . S
C2531 C2532 1.403 . S
C2532 C2531 1.403 . S
C2532 C2533 1.404 . S
C2532 C2535 1.539 . S
C2533 C2529 1.408 . S
C2533 C2532 1.404 . S
C2533 H2545 0.930 . S
C2534 C2530 1.524 . S
C2534 H2546 0.956 . S
C2534 H2547 0.961 . S
C2534 H2548 0.961 . S
C2535 C2532 1.539 . S
C2535 H2549 0.958 . S
C2535 H2550 0.961 . S
C2535 H2551 0.960 . S
H2536 C2520 0.931 . S
H2537 C2525 0.929 . S
H2538 C2526 0.960 . S
H2539 C2526 0.962 . S
H2540 C2526 0.960 . S
H2541 C2527 0.961 . S
H2542 C2527 0.961 . S
H2543 C2527 0.961 . S
H2544 C2528 0.931 . S
H2545 C2533 0.930 . S
H2546 C2534 0.956 . S
H2547 C2534 0.961 . S
H2548 C2534 0.961 . S
H2549 C2535 0.958 . S
H2550 C2535 0.961 . S
H2551 C2535 0.960 . S
C2552 C2553 1.391 . S
C2552 C2554 1.394 . S
C2552 H2568 0.931 . S
C2553 C2552 1.391 . S
C2553 C2557 1.376 . S
C2554 C2552 1.394 . S
C2554 C2555 1.369 . S
C2554 C2558 1.531 . S
C2555 C2554 1.369 . S
C2555 C2556 1.410 . S
C2555 C2563 1.503 . S
C2556 C2555 1.410 . S
C2556 C2557 1.392 . S
C2556 C2559 1.511 . S
C2557 C2553 1.376 . S
C2557 C2556 1.392 . S
C2557 H2569 0.929 . S
C2558 C2554 1.531 . S
C2558 H2570 0.960 . S
C2558 H2571 0.962 . S
C2558 H2572 0.960 . S
C2559 C2556 1.511 . S
C2559 H2573 0.961 . S
C2559 H2574 0.961 . S
C2559 H2575 0.961 1_455 S
C2560 C2561 1.370 . S
C2560 C2562 1.363 . S
C2560 H2576 0.931 . S
C2561 C2560 1.370 . S
C2561 C2565 1.408 . S
C2562 C2560 1.363 . S
C2562 C2563 1.370 . S
C2562 C2566 1.524 . S
C2563 C2555 1.503 . S
C2563 C2562 1.370 . S
C2563 C2564 1.403 . S
C2564 C2563 1.403 . S
C2564 C2565 1.404 . S
C2564 C2567 1.539 . S
C2565 C2561 1.408 . S
C2565 C2564 1.404 . S
C2565 H2577 0.930 . S
C2566 C2562 1.524 . S
C2566 H2578 0.956 . S
C2566 H2579 0.961 . S
C2566 H2580 0.961 . S
C2567 C2564 1.539 . S
C2567 H2581 0.958 . S
C2567 H2582 0.961 1_455 S
C2567 H2583 0.960 1_455 S
H2568 C2552 0.931 . S
H2569 C2557 0.929 . S
H2570 C2558 0.960 . S
H2571 C2558 0.962 . S
H2572 C2558 0.960 . S
H2573 C2559 0.961 . S
H2574 C2559 0.961 . S
H2575 C2559 0.961 1_655 S
H2576 C2560 0.931 . S
H2577 C2565 0.930 . S
H2578 C2566 0.956 . S
H2579 C2566 0.961 . S
H2580 C2566 0.961 . S
H2581 C2567 0.958 . S
H2582 C2567 0.961 1_655 S
H2583 C2567 0.960 1_655 S
C2584 C2585 1.391 . S
C2584 C2586 1.394 . S
C2584 H2600 0.931 . S
C2585 C2584 1.391 . S
C2585 C2589 1.376 . S
C2586 C2584 1.394 . S
C2586 C2587 1.369 . S
C2586 C2590 1.531 . S
C2587 C2586 1.369 . S
C2587 C2588 1.410 . S
C2587 C2595 1.503 . S
C2588 C2587 1.410 . S
C2588 C2589 1.392 . S
C2588 C2591 1.511 . S
C2589 C2585 1.376 . S
C2589 C2588 1.392 . S
C2589 H2601 0.929 . S
C2590 C2586 1.531 . S
C2590 H2602 0.960 . S
C2590 H2603 0.962 . S
C2590 H2604 0.960 . S
C2591 C2588 1.511 . S
C2591 H2605 0.961 . S
C2591 H2606 0.961 . S
C2591 H2607 0.961 . S
C2592 C2593 1.370 . S
C2592 C2594 1.363 . S
C2592 H2608 0.931 . S
C2593 C2592 1.370 . S
C2593 C2597 1.408 . S
C2594 C2592 1.363 . S
C2594 C2595 1.370 . S
C2594 C2598 1.524 . S
C2595 C2587 1.503 . S
C2595 C2594 1.370 . S
C2595 C2596 1.403 . S
C2596 C2595 1.403 . S
C2596 C2597 1.404 . S
C2596 C2599 1.539 . S
C2597 C2593 1.408 . S
C2597 C2596 1.404 . S
C2597 H2609 0.930 . S
C2598 C2594 1.524 . S
C2598 H2610 0.956 . S
C2598 H2611 0.961 . S
C2598 H2612 0.961 . S
C2599 C2596 1.539 . S
C2599 H2613 0.958 . S
C2599 H2614 0.961 . S
C2599 H2615 0.960 . S
H2600 C2584 0.931 . S
H2601 C2589 0.929 . S
H2602 C2590 0.960 . S
H2603 C2590 0.962 . S
H2604 C2590 0.960 . S
H2605 C2591 0.961 . S
H2606 C2591 0.961 . S
H2607 C2591 0.961 . S
H2608 C2592 0.931 . S
H2609 C2597 0.930 . S
H2610 C2598 0.956 . S
H2611 C2598 0.961 . S
H2612 C2598 0.961 . S
H2613 C2599 0.958 . S
H2614 C2599 0.961 . S
H2615 C2599 0.960 . S
C2616 C2617 1.391 . S
C2616 C2618 1.394 . S
C2616 H2632 0.931 . S
C2617 C2616 1.391 . S
C2617 C2621 1.376 . S
C2618 C2616 1.394 . S
C2618 C2619 1.369 . S
C2618 C2622 1.531 . S
C2619 C2618 1.369 . S
C2619 C2620 1.410 . S
C2619 C2627 1.503 . S
C2620 C2619 1.410 . S
C2620 C2621 1.392 . S
C2620 C2623 1.511 . S
C2621 C2617 1.376 . S
C2621 C2620 1.392 . S
C2621 H2633 0.929 . S
C2622 C2618 1.531 . S
C2622 H2634 0.960 . S
C2622 H2635 0.962 . S
C2622 H2636 0.960 . S
C2623 C2620 1.511 . S
C2623 H2637 0.961 . S
C2623 H2638 0.961 . S
C2623 H2639 0.961 . S
C2624 C2625 1.370 . S
C2624 C2626 1.363 . S
C2624 H2640 0.931 . S
C2625 C2624 1.370 . S
C2625 C2629 1.408 . S
C2626 C2624 1.363 . S
C2626 C2627 1.370 . S
C2626 C2630 1.524 . S
C2627 C2619 1.503 . S
C2627 C2626 1.370 . S
C2627 C2628 1.403 . S
C2628 C2627 1.403 . S
C2628 C2629 1.404 . S
C2628 C2631 1.539 . S
C2629 C2625 1.408 . S
C2629 C2628 1.404 . S
C2629 H2641 0.930 . S
C2630 C2626 1.524 . S
C2630 H2642 0.956 . S
C2630 H2643 0.961 . S
C2630 H2644 0.961 . S
C2631 C2628 1.539 . S
C2631 H2645 0.958 . S
C2631 H2646 0.961 . S
C2631 H2647 0.960 . S
H2632 C2616 0.931 . S
H2633 C2621 0.929 . S
H2634 C2622 0.960 . S
H2635 C2622 0.962 . S
H2636 C2622 0.960 . S
H2637 C2623 0.961 . S
H2638 C2623 0.961 . S
H2639 C2623 0.961 . S
H2640 C2624 0.931 . S
H2641 C2629 0.930 . S
H2642 C2630 0.956 . S
H2643 C2630 0.961 . S
H2644 C2630 0.961 . S
H2645 C2631 0.958 . S
H2646 C2631 0.961 . S
H2647 C2631 0.960 . S
C2648 C2649 1.391 . S
C2648 C2650 1.394 . S
C2648 H2664 0.931 . S
C2649 C2648 1.391 . S
C2649 C2653 1.376 . S
C2650 C2648 1.394 . S
C2650 C2651 1.369 . S
C2650 C2654 1.531 . S
C2651 C2650 1.369 . S
C2651 C2652 1.410 . S
C2651 C2659 1.503 . S
C2652 C2651 1.410 . S
C2652 C2653 1.392 . S
C2652 C2655 1.511 . S
C2653 C2649 1.376 . S
C2653 C2652 1.392 . S
C2653 H2665 0.929 . S
C2654 C2650 1.531 . S
C2654 H2666 0.960 . S
C2654 H2667 0.962 . S
C2654 H2668 0.960 . S
C2655 C2652 1.511 . S
C2655 H2669 0.961 . S
C2655 H2670 0.961 . S
C2655 H2671 0.961 . S
C2656 C2657 1.370 . S
C2656 C2658 1.363 . S
C2656 H2672 0.931 . S
C2657 C2656 1.370 . S
C2657 C2661 1.408 . S
C2658 C2656 1.363 . S
C2658 C2659 1.370 . S
C2658 C2662 1.524 . S
C2659 C2651 1.503 . S
C2659 C2658 1.370 . S
C2659 C2660 1.403 . S
C2660 C2659 1.403 . S
C2660 C2661 1.404 . S
C2660 C2663 1.539 . S
C2661 C2657 1.408 . S
C2661 C2660 1.404 . S
C2661 H2673 0.930 . S
C2662 C2658 1.524 . S
C2662 H2674 0.956 . S
C2662 H2675 0.961 . S
C2662 H2676 0.961 . S
C2663 C2660 1.539 . S
C2663 H2677 0.958 . S
C2663 H2678 0.961 . S
C2663 H2679 0.960 . S
H2664 C2648 0.931 . S
H2665 C2653 0.929 . S
H2666 C2654 0.960 . S
H2667 C2654 0.962 . S
H2668 C2654 0.960 . S
H2669 C2655 0.961 . S
H2670 C2655 0.961 . S
H2671 C2655 0.961 . S
H2672 C2656 0.931 . S
H2673 C2661 0.930 . S
H2674 C2662 0.956 . S
H2675 C2662 0.961 . S
H2676 C2662 0.961 . S
H2677 C2663 0.958 . S
H2678 C2663 0.961 . S
H2679 C2663 0.960 . S
C2680 C2681 1.391 . S
C2680 C2682 1.394 . S
C2680 H2696 0.931 . S
C2681 C2680 1.391 . S
C2681 C2685 1.376 . S
C2682 C2680 1.394 . S
C2682 C2683 1.369 . S
C2682 C2686 1.531 . S
C2683 C2682 1.369 . S
C2683 C2684 1.410 . S
C2683 C2691 1.503 . S
C2684 C2683 1.410 . S
C2684 C2685 1.392 . S
C2684 C2687 1.511 . S
C2685 C2681 1.376 . S
C2685 C2684 1.392 . S
C2685 H2697 0.929 . S
C2686 C2682 1.531 . S
C2686 H2698 0.960 . S
C2686 H2699 0.962 . S
C2686 H2700 0.960 . S
C2687 C2684 1.511 . S
C2687 H2701 0.961 . S
C2687 H2702 0.961 . S
C2687 H2703 0.961 . S
C2688 C2689 1.370 . S
C2688 C2690 1.363 . S
C2688 H2704 0.931 . S
C2689 C2688 1.370 . S
C2689 C2693 1.408 . S
C2690 C2688 1.363 . S
C2690 C2691 1.370 . S
C2690 C2694 1.524 . S
C2691 C2683 1.503 . S
C2691 C2690 1.370 . S
C2691 C2692 1.403 . S
C2692 C2691 1.403 . S
C2692 C2693 1.404 . S
C2692 C2695 1.539 . S
C2693 C2689 1.408 . S
C2693 C2692 1.404 . S
C2693 H2705 0.930 . S
C2694 C2690 1.524 . S
C2694 H2706 0.956 . S
C2694 H2707 0.961 . S
C2694 H2708 0.961 . S
C2695 C2692 1.539 . S
C2695 H2709 0.958 1_545 S
C2695 H2710 0.963 . S
C2695 H2711 0.960 . S
H2696 C2680 0.931 . S
H2697 C2685 0.929 . S
H2698 C2686 0.960 . S
H2699 C2686 0.962 . S
H2700 C2686 0.960 . S
H2701 C2687 0.961 . S
H2702 C2687 0.961 . S
H2703 C2687 0.961 . S
H2704 C2688 0.931 . S
H2705 C2693 0.930 . S
H2706 C2694 0.956 . S
H2707 C2694 0.961 . S
H2708 C2694 0.961 . S
H2709 C2695 0.958 1_565 S
H2710 C2695 0.963 . S
H2711 C2695 0.960 . S
C2712 C2713 1.391 . S
C2712 C2714 1.394 . S
C2712 H2728 0.931 . S
C2713 C2712 1.391 . S
C2713 C2717 1.376 . S
C2714 C2712 1.394 . S
C2714 C2715 1.369 . S
C2714 C2718 1.531 . S
C2715 C2714 1.369 . S
C2715 C2716 1.410 . S
C2715 C2723 1.503 . S
C2716 C2715 1.410 . S
C2716 C2717 1.392 . S
C2716 C2719 1.511 . S
C2717 C2713 1.376 . S
C2717 C2716 1.392 . S
C2717 H2729 0.929 . S
C2718 C2714 1.531 . S
C2718 H2730 0.960 . S
C2718 H2731 0.962 . S
C2718 H2732 0.960 . S
C2719 C2716 1.511 . S
C2719 H2733 0.961 . S
C2719 H2734 0.961 . S
C2719 H2735 0.961 . S
C2720 C2721 1.370 . S
C2720 C2722 1.363 . S
C2720 H2736 0.931 . S
C2721 C2720 1.370 . S
C2721 C2725 1.408 . S
C2722 C2720 1.363 . S
C2722 C2723 1.370 . S
C2722 C2726 1.524 . S
C2723 C2715 1.503 . S
C2723 C2722 1.370 . S
C2723 C2724 1.403 . S
C2724 C2723 1.403 . S
C2724 C2725 1.404 . S
C2724 C2727 1.539 . S
C2725 C2721 1.408 . S
C2725 C2724 1.404 . S
C2725 H2737 0.930 . S
C2726 C2722 1.524 . S
C2726 H2738 0.956 . S
C2726 H2739 0.961 . S
C2726 H2740 0.961 . S
C2727 C2724 1.539 . S
C2727 H2741 0.958 . S
C2727 H2742 0.961 . S
C2727 H2743 0.960 . S
H2728 C2712 0.931 . S
H2729 C2717 0.929 . S
H2730 C2718 0.960 . S
H2731 C2718 0.962 . S
H2732 C2718 0.960 . S
H2733 C2719 0.961 . S
H2734 C2719 0.961 . S
H2735 C2719 0.961 . S
H2736 C2720 0.931 . S
H2737 C2725 0.930 . S
H2738 C2726 0.956 . S
H2739 C2726 0.961 . S
H2740 C2726 0.961 . S
H2741 C2727 0.958 . S
H2742 C2727 0.961 . S
H2743 C2727 0.960 . S
C2744 C2745 1.391 . S
C2744 C2746 1.394 . S
C2744 H2760 0.931 . S
C2745 C2744 1.391 . S
C2745 C2749 1.376 . S
C2746 C2744 1.394 . S
C2746 C2747 1.369 . S
C2746 C2750 1.531 . S
C2747 C2746 1.369 . S
C2747 C2748 1.410 . S
C2747 C2755 1.503 . S
C2748 C2747 1.410 . S
C2748 C2749 1.392 . S
C2748 C2751 1.511 . S
C2749 C2745 1.376 . S
C2749 C2748 1.392 . S
C2749 H2761 0.929 . S
C2750 C2746 1.531 . S
C2750 H2762 0.960 . S
C2750 H2763 0.962 . S
C2750 H2764 0.960 . S
C2751 C2748 1.511 . S
C2751 H2765 0.961 . S
C2751 H2766 0.961 . S
C2751 H2767 0.961 . S
C2752 C2753 1.370 . S
C2752 C2754 1.363 . S
C2752 H2768 0.931 1_545 S
C2753 C2752 1.370 . S
C2753 C2757 1.408 . S
C2754 C2752 1.363 . S
C2754 C2755 1.370 . S
C2754 C2758 1.524 1_545 S
C2755 C2747 1.503 . S
C2755 C2754 1.370 . S
C2755 C2756 1.403 . S
C2756 C2755 1.403 . S
C2756 C2757 1.404 . S
C2756 C2759 1.539 . S
C2757 C2753 1.408 . S
C2757 C2756 1.404 . S
C2757 H2769 0.930 . S
C2758 C2754 1.524 1_565 S
C2758 H2770 0.956 . S
C2758 H2771 0.961 . S
C2758 H2772 0.961 . S
C2759 C2756 1.539 . S
C2759 H2773 0.958 . S
C2759 H2774 0.961 . S
C2759 H2775 0.960 . S
H2760 C2744 0.931 . S
H2761 C2749 0.929 . S
H2762 C2750 0.960 . S
H2763 C2750 0.962 . S
H2764 C2750 0.960 . S
H2765 C2751 0.961 . S
H2766 C2751 0.961 . S
H2767 C2751 0.961 . S
H2768 C2752 0.931 1_565 S
H2769 C2757 0.930 . S
H2770 C2758 0.956 . S
H2771 C2758 0.961 . S
H2772 C2758 0.961 . S
H2773 C2759 0.958 . S
H2774 C2759 0.961 . S
H2775 C2759 0.960 . S
C2776 C2777 1.391 . S
C2776 C2778 1.394 . S
C2776 H2792 0.931 . S
C2777 C2776 1.391 . S
C2777 C2781 1.376 . S
C2778 C2776 1.394 . S
C2778 C2779 1.369 . S
C2778 C2782 1.531 . S
C2779 C2778 1.369 . S
C2779 C2780 1.410 . S
C2779 C2787 1.503 . S
C2780 C2779 1.410 . S
C2780 C2781 1.392 . S
C2780 C2783 1.511 . S
C2781 C2777 1.376 . S
C2781 C2780 1.392 . S
C2781 H2793 0.929 . S
C2782 C2778 1.531 . S
C2782 H2794 0.960 . S
C2782 H2795 0.962 . S
C2782 H2796 0.960 . S
C2783 C2780 1.511 . S
C2783 H2797 0.961 . S
C2783 H2798 0.961 . S
C2783 H2799 0.961 . S
C2784 C2785 1.370 . S
C2784 C2786 1.363 . S
C2784 H2800 0.931 . S
C2785 C2784 1.370 . S
C2785 C2789 1.408 . S
C2786 C2784 1.363 . S
C2786 C2787 1.370 . S
C2786 C2790 1.524 . S
C2787 C2779 1.503 . S
C2787 C2786 1.370 . S
C2787 C2788 1.403 . S
C2788 C2787 1.403 . S
C2788 C2789 1.404 . S
C2788 C2791 1.539 . S
C2789 C2785 1.408 . S
C2789 C2788 1.404 . S
C2789 H2801 0.930 . S
C2790 C2786 1.524 . S
C2790 H2802 0.956 . S
C2790 H2803 0.961 . S
C2790 H2804 0.961 . S
C2791 C2788 1.539 . S
C2791 H2805 0.958 . S
C2791 H2806 0.961 . S
C2791 H2807 0.960 . S
H2792 C2776 0.931 . S
H2793 C2781 0.929 . S
H2794 C2782 0.960 . S
H2795 C2782 0.962 . S
H2796 C2782 0.960 . S
H2797 C2783 0.961 . S
H2798 C2783 0.961 . S
H2799 C2783 0.961 . S
H2800 C2784 0.931 . S
H2801 C2789 0.930 . S
H2802 C2790 0.956 . S
H2803 C2790 0.961 . S
H2804 C2790 0.961 . S
H2805 C2791 0.958 . S
H2806 C2791 0.961 . S
H2807 C2791 0.960 . S
C2808 C2809 1.391 . S
C2808 C2810 1.394 . S
C2808 H2824 0.931 . S
C2809 C2808 1.391 . S
C2809 C2813 1.376 . S
C2810 C2808 1.394 . S
C2810 C2811 1.369 . S
C2810 C2814 1.531 . S
C2811 C2810 1.369 . S
C2811 C2812 1.410 . S
C2811 C2819 1.503 . S
C2812 C2811 1.410 . S
C2812 C2813 1.392 . S
C2812 C2815 1.511 1_545 S
C2813 C2809 1.376 . S
C2813 C2812 1.392 . S
C2813 H2825 0.929 . S
C2814 C2810 1.531 . S
C2814 H2826 0.960 . S
C2814 H2827 0.962 . S
C2814 H2828 0.960 . S
C2815 C2812 1.511 1_565 S
C2815 H2829 0.961 . S
C2815 H2830 0.961 . S
C2815 H2831 0.961 . S
C2816 C2817 1.370 . S
C2816 C2818 1.363 . S
C2816 H2832 0.931 . S
C2817 C2816 1.370 . S
C2817 C2821 1.408 . S
C2818 C2816 1.363 . S
C2818 C2819 1.370 . S
C2818 C2822 1.524 . S
C2819 C2811 1.503 . S
C2819 C2818 1.370 . S
C2819 C2820 1.403 . S
C2820 C2819 1.403 . S
C2820 C2821 1.404 . S
C2820 C2823 1.539 . S
C2821 C2817 1.408 . S
C2821 C2820 1.404 . S
C2821 H2833 0.930 . S
C2822 C2818 1.524 . S
C2822 H2834 0.956 . S
C2822 H2835 0.961 . S
C2822 H2836 0.961 . S
C2823 C2820 1.539 . S
C2823 H2837 0.958 . S
C2823 H2838 0.961 . S
C2823 H2839 0.960 . S
H2824 C2808 0.931 . S
H2825 C2813 0.929 . S
H2826 C2814 0.960 . S
H2827 C2814 0.962 . S
H2828 C2814 0.960 . S
H2829 C2815 0.961 . S
H2830 C2815 0.961 . S
H2831 C2815 0.961 . S
H2832 C2816 0.931 . S
H2833 C2821 0.930 . S
H2834 C2822 0.956 . S
H2835 C2822 0.961 . S
H2836 C2822 0.961 . S
H2837 C2823 0.958 . S
H2838 C2823 0.961 . S
H2839 C2823 0.960 . S
C2840 C2841 1.391 . S
C2840 C2842 1.394 . S
C2840 H2856 0.931 . S
C2841 C2840 1.391 . S
C2841 C2845 1.376 . S
C2842 C2840 1.394 . S
C2842 C2843 1.369 . S
C2842 C2846 1.531 . S
C2843 C2842 1.369 . S
C2843 C2844 1.410 . S
C2843 C2851 1.503 . S
C2844 C2843 1.410 . S
C2844 C2845 1.392 . S
C2844 C2847 1.511 . S
C2845 C2841 1.376 . S
C2845 C2844 1.392 . S
C2845 H2857 0.929 . S
C2846 C2842 1.531 . S
C2846 H2858 0.960 . S
C2846 H2859 0.962 . S
C2846 H2860 0.960 . S
C2847 C2844 1.511 . S
C2847 H2861 0.961 . S
C2847 H2862 0.961 . S
C2847 H2863 0.961 . S
C2848 C2849 1.370 . S
C2848 C2850 1.363 . S
C2848 H2864 0.931 . S
C2849 C2848 1.370 . S
C2849 C2853 1.408 . S
C2850 C2848 1.363 . S
C2850 C2851 1.370 . S
C2850 C2854 1.524 . S
C2851 C2843 1.503 . S
C2851 C2850 1.370 . S
C2851 C2852 1.403 . S
C2852 C2851 1.403 . S
C2852 C2853 1.404 . S
C2852 C2855 1.539 . S
C2853 C2849 1.408 . S
C2853 C2852 1.404 . S
C2853 H2865 0.930 . S
C2854 C2850 1.524 . S
C2854 H2866 0.956 . S
C2854 H2867 0.961 . S
C2854 H2868 0.961 . S
C2855 C2852 1.539 . S
C2855 H2869 0.958 . S
C2855 H2870 0.961 . S
C2855 H2871 0.960 . S
H2856 C2840 0.931 . S
H2857 C2845 0.929 . S
H2858 C2846 0.960 . S
H2859 C2846 0.962 . S
H2860 C2846 0.960 . S
H2861 C2847 0.961 . S
H2862 C2847 0.961 . S
H2863 C2847 0.961 . S
H2864 C2848 0.931 . S
H2865 C2853 0.930 . S
H2866 C2854 0.956 . S
H2867 C2854 0.961 . S
H2868 C2854 0.961 . S
H2869 C2855 0.958 . S
H2870 C2855 0.961 . S
H2871 C2855 0.960 . S
C2872 C2873 1.391 . S
C2872 C2874 1.394 . S
C2872 H2888 0.931 . S
C2873 C2872 1.391 . S
C2873 C2877 1.376 . S
C2874 C2872 1.394 . S
C2874 C2875 1.369 . S
C2874 C2878 1.531 . S
C2875 C2874 1.369 . S
C2875 C2876 1.410 . S
C2875 C2883 1.503 . S
C2876 C2875 1.410 . S
C2876 C2877 1.392 . S
C2876 C2879 1.511 . S
C2877 C2873 1.376 . S
C2877 C2876 1.392 . S
C2877 H2889 0.929 . S
C2878 C2874 1.531 . S
C2878 H2890 0.960 . S
C2878 H2891 0.962 . S
C2878 H2892 0.960 . S
C2879 C2876 1.511 . S
C2879 H2893 0.961 . S
C2879 H2894 0.961 . S
C2879 H2895 0.961 1_545 S
C2880 C2881 1.370 . S
C2880 C2882 1.363 . S
C2880 H2896 0.931 . S
C2881 C2880 1.370 . S
C2881 C2885 1.422 . S
C2882 C2880 1.363 . S
C2882 C2883 1.370 . S
C2882 C2886 1.524 . S
C2883 C2875 1.503 . S
C2883 C2882 1.370 . S
C2883 C2884 1.403 1_545 S
C2884 C2883 1.403 1_565 S
C2884 C2885 1.402 1_565 S
C2884 C2887 1.539 . S
C2885 C2881 1.422 . S
C2885 C2884 1.402 1_545 S
C2885 H2897 0.918 1_545 S
C2886 C2882 1.524 . S
C2886 H2898 0.956 . S
C2886 H2899 0.961 . S
C2886 H2900 0.961 . S
C2887 C2884 1.539 . S
C2887 H2901 0.958 . S
C2887 H2902 0.961 . S
C2887 H2903 0.960 . S
H2888 C2872 0.931 . S
H2889 C2877 0.929 . S
H2890 C2878 0.960 . S
H2891 C2878 0.962 . S
H2892 C2878 0.960 . S
H2893 C2879 0.961 . S
H2894 C2879 0.961 . S
H2895 C2879 0.961 1_565 S
H2896 C2880 0.931 . S
H2897 C2885 0.918 1_565 S
H2898 C2886 0.956 . S
H2899 C2886 0.961 . S
H2900 C2886 0.961 . S
H2901 C2887 0.958 . S
H2902 C2887 0.961 . S
H2903 C2887 0.960 . S
C2904 C2905 1.391 . S
C2904 C2906 1.394 . S
C2904 H2920 0.931 . S
C2905 C2904 1.391 . S
C2905 C2909 1.376 . S
C2906 C2904 1.394 . S
C2906 C2907 1.369 . S
C2906 C2910 1.531 . S
C2907 C2906 1.369 . S
C2907 C2908 1.410 . S
C2907 C2915 1.503 . S
C2908 C2907 1.410 . S
C2908 C2909 1.392 . S
C2908 C2911 1.511 . S
C2909 C2905 1.376 . S
C2909 C2908 1.392 . S
C2909 H2921 0.929 . S
C2910 C2906 1.531 . S
C2910 H2922 0.960 . S
C2910 H2923 0.962 . S
C2910 H2924 0.960 . S
C2911 C2908 1.511 . S
C2911 H2925 0.961 . S
C2911 H2926 0.961 . S
C2911 H2927 0.961 . S
C2912 C2913 1.370 . S
C2912 C2914 1.363 . S
C2912 H2928 0.931 . S
C2913 C2912 1.370 . S
C2913 C2917 1.408 . S
C2914 C2912 1.363 . S
C2914 C2915 1.370 . S
C2914 C2918 1.524 . S
C2915 C2907 1.503 . S
C2915 C2914 1.370 . S
C2915 C2916 1.403 . S
C2916 C2915 1.403 . S
C2916 C2917 1.404 . S
C2916 C2919 1.539 . S
C2917 C2913 1.408 . S
C2917 C2916 1.404 . S
C2917 H2929 0.930 . S
C2918 C2914 1.524 . S
C2918 H2930 0.956 . S
C2918 H2931 0.961 . S
C2918 H2932 0.961 . S
C2919 C2916 1.539 . S
C2919 H2933 0.958 . S
C2919 H2934 0.961 . S
C2919 H2935 0.960 . S
H2920 C2904 0.931 . S
H2921 C2909 0.929 . S
H2922 C2910 0.960 . S
H2923 C2910 0.962 . S
H2924 C2910 0.960 . S
H2925 C2911 0.961 . S
H2926 C2911 0.961 . S
H2927 C2911 0.961 . S
H2928 C2912 0.931 . S
H2929 C2917 0.930 . S
H2930 C2918 0.956 . S
H2931 C2918 0.961 . S
H2932 C2918 0.961 . S
H2933 C2919 0.958 . S
H2934 C2919 0.961 . S
H2935 C2919 0.960 . S
C2936 C2937 1.391 . S
C2936 C2938 1.394 . S
C2936 H2952 0.931 . S
C2937 C2936 1.391 . S
C2937 C2941 1.376 . S
C2938 C2936 1.394 . S
C2938 C2939 1.369 . S
C2938 C2942 1.531 . S
C2939 C2938 1.369 . S
C2939 C2940 1.410 . S
C2939 C2947 1.503 . S
C2940 C2939 1.410 . S
C2940 C2941 1.392 . S
C2940 C2943 1.511 . S
C2941 C2937 1.376 . S
C2941 C2940 1.392 . S
C2941 H2953 0.929 . S
C2942 C2938 1.531 . S
C2942 H2954 0.960 . S
C2942 H2955 0.962 . S
C2942 H2956 0.960 . S
C2943 C2940 1.511 . S
C2943 H2957 0.961 . S
C2943 H2958 0.961 . S
C2943 H2959 0.961 . S
C2944 C2945 1.370 . S
C2944 C2946 1.363 . S
C2944 H2960 0.931 . S
C2945 C2944 1.370 . S
C2945 C2949 1.408 . S
C2946 C2944 1.363 . S
C2946 C2947 1.370 . S
C2946 C2950 1.524 . S
C2947 C2939 1.503 . S
C2947 C2946 1.370 . S
C2947 C2948 1.403 . S
C2948 C2947 1.403 . S
C2948 C2949 1.404 . S
C2948 C2951 1.539 . S
C2949 C2945 1.408 . S
C2949 C2948 1.404 . S
C2949 H2961 0.930 . S
C2950 C2946 1.524 . S
C2950 H2962 0.956 . S
C2950 H2963 0.961 . S
C2950 H2964 0.961 . S
C2951 C2948 1.539 . S
C2951 H2965 0.952 1_554 S
C2951 H2966 0.961 . S
C2951 H2967 0.960 . S
H2952 C2936 0.931 . S
H2953 C2941 0.929 . S
H2954 C2942 0.960 . S
H2955 C2942 0.962 . S
H2956 C2942 0.960 . S
H2957 C2943 0.961 . S
H2958 C2943 0.961 . S
H2959 C2943 0.961 . S
H2960 C2944 0.931 . S
H2961 C2949 0.930 . S
H2962 C2950 0.956 . S
H2963 C2950 0.961 . S
H2964 C2950 0.961 . S
H2965 C2951 0.952 1_556 S
H2966 C2951 0.961 . S
H2967 C2951 0.960 . S
C2968 C2969 1.391 . S
C2968 C2970 1.394 . S
C2968 H2984 0.931 . S
C2969 C2968 1.391 . S
C2969 C2973 1.376 . S
C2970 C2968 1.394 . S
C2970 C2971 1.369 . S
C2970 C2974 1.531 . S
C2971 C2970 1.369 . S
C2971 C2972 1.410 . S
C2971 C2979 1.503 . S
C2972 C2971 1.410 . S
C2972 C2973 1.392 . S
C2972 C2975 1.511 . S
C2973 C2969 1.376 . S
C2973 C2972 1.392 . S
C2973 H2985 0.929 . S
C2974 C2970 1.531 . S
C2974 H2986 0.960 . S
C2974 H2987 0.952 1_554 S
C2974 H2988 0.960 . S
C2975 C2972 1.511 . S
C2975 H2989 0.961 . S
C2975 H2990 0.961 . S
C2975 H2991 0.961 . S
C2976 C2977 1.370 . S
C2976 C2978 1.363 . S
C2976 H2992 0.931 . S
C2977 C2976 1.370 . S
C2977 C2981 1.408 . S
C2978 C2976 1.363 . S
C2978 C2979 1.370 . S
C2978 C2982 1.524 . S
C2979 C2971 1.503 . S
C2979 C2978 1.370 . S
C2979 C2980 1.403 . S
C2980 C2979 1.403 . S
C2980 C2981 1.404 . S
C2980 C2983 1.539 . S
C2981 C2977 1.408 . S
C2981 C2980 1.404 . S
C2981 H2993 0.930 . S
C2982 C2978 1.524 . S
C2982 H2994 0.956 1_554 S
C2982 H2995 0.961 . S
C2982 H2996 0.961 1_554 S
C2983 C2980 1.539 . S
C2983 H2997 0.958 . S
C2983 H2998 0.961 . S
C2983 H2999 0.960 . S
H2984 C2968 0.931 . S
H2985 C2973 0.929 . S
H2986 C2974 0.960 . S
H2987 C2974 0.952 1_556 S
H2988 C2974 0.960 . S
H2989 C2975 0.961 . S
H2990 C2975 0.961 . S
H2991 C2975 0.961 . S
H2992 C2976 0.931 . S
H2993 C2981 0.930 . S
H2994 C2982 0.956 1_556 S
H2995 C2982 0.961 . S
H2996 C2982 0.961 1_556 S
H2997 C2983 0.958 . S
H2998 C2983 0.961 . S
H2999 C2983 0.960 . S
C3000 C3001 1.391 . S
C3000 C3002 1.394 . S
C3000 H3016 0.931 . S
C3001 C3000 1.391 . S
C3001 C3005 1.376 . S
C3002 C3000 1.394 . S
C3002 C3003 1.369 . S
C3002 C3006 1.531 . S
C3003 C3002 1.369 . S
C3003 C3004 1.410 . S
C3003 C3011 1.503 . S
C3004 C3003 1.410 . S
C3004 C3005 1.392 . S
C3004 C3007 1.511 . S
C3005 C3001 1.376 . S
C3005 C3004 1.392 . S
C3005 H3017 0.929 . S
C3006 C3002 1.531 . S
C3006 H3018 0.960 . S
C3006 H3019 0.962 . S
C3006 H3020 0.960 . S
C3007 C3004 1.511 . S
C3007 H3021 0.961 . S
C3007 H3022 0.961 . S
C3007 H3023 0.961 . S
C3008 C3009 1.370 . S
C3008 C3010 1.363 . S
C3008 H3024 0.931 . S
C3009 C3008 1.370 . S
C3009 C3013 1.408 . S
C3010 C3008 1.363 . S
C3010 C3011 1.370 . S
C3010 C3014 1.524 . S
C3011 C3003 1.503 . S
C3011 C3010 1.370 . S
C3011 C3012 1.403 . S
C3012 C3011 1.403 . S
C3012 C3013 1.404 . S
C3012 C3015 1.539 . S
C3013 C3009 1.408 . S
C3013 C3012 1.404 . S
C3013 H3025 0.930 . S
C3014 C3010 1.524 . S
C3014 H3026 0.956 . S
C3014 H3027 0.961 . S
C3014 H3028 0.961 . S
C3015 C3012 1.539 . S
C3015 H3029 0.958 . S
C3015 H3030 0.961 . S
C3015 H3031 0.960 . S
H3016 C3000 0.931 . S
H3017 C3005 0.929 . S
H3018 C3006 0.960 . S
H3019 C3006 0.962 . S
H3020 C3006 0.960 . S
H3021 C3007 0.961 . S
H3022 C3007 0.961 . S
H3023 C3007 0.961 . S
H3024 C3008 0.931 . S
H3025 C3013 0.930 . S
H3026 C3014 0.956 . S
H3027 C3014 0.961 . S
H3028 C3014 0.961 . S
H3029 C3015 0.958 . S
H3030 C3015 0.961 . S
H3031 C3015 0.960 . S
C3032 C3033 1.391 . S
C3032 C3034 1.394 . S
C3032 H3048 0.931 . S
C3033 C3032 1.391 . S
C3033 C3037 1.376 . S
C3034 C3032 1.394 . S
C3034 C3035 1.369 . S
C3034 C3038 1.531 . S
C3035 C3034 1.369 . S
C3035 C3036 1.410 . S
C3035 C3043 1.503 . S
C3036 C3035 1.410 . S
C3036 C3037 1.392 . S
C3036 C3039 1.511 . S
C3037 C3033 1.376 . S
C3037 C3036 1.392 . S
C3037 H3049 0.929 . S
C3038 C3034 1.531 . S
C3038 H3050 0.960 . S
C3038 H3051 0.962 . S
C3038 H3052 0.960 . S
C3039 C3036 1.511 . S
C3039 H3053 0.961 . S
C3039 H3054 0.961 . S
C3039 H3055 0.961 . S
C3040 C3041 1.370 . S
C3040 C3042 1.363 . S
C3040 H3056 0.931 . S
C3041 C3040 1.370 . S
C3041 C3045 1.408 . S
C3042 C3040 1.363 . S
C3042 C3043 1.370 . S
C3042 C3046 1.524 . S
C3043 C3035 1.503 . S
C3043 C3042 1.370 . S
C3043 C3044 1.403 . S
C3044 C3043 1.403 . S
C3044 C3045 1.404 . S
C3044 C3047 1.539 . S
C3045 C3041 1.408 . S
C3045 C3044 1.404 . S
C3045 H3057 0.930 . S
C3046 C3042 1.524 . S
C3046 H3058 0.956 . S
C3046 H3059 0.961 . S
C3046 H3060 0.961 . S
C3047 C3044 1.539 . S
C3047 H3061 0.958 . S
C3047 H3062 0.961 . S
C3047 H3063 0.960 . S
H3048 C3032 0.931 . S
H3049 C3037 0.929 . S
H3050 C3038 0.960 . S
H3051 C3038 0.962 . S
H3052 C3038 0.960 . S
H3053 C3039 0.961 . S
H3054 C3039 0.961 . S
H3055 C3039 0.961 . S
H3056 C3040 0.931 . S
H3057 C3045 0.930 . S
H3058 C3046 0.956 . S
H3059 C3046 0.961 . S
H3060 C3046 0.961 . S
H3061 C3047 0.958 . S
H3062 C3047 0.961 . S
H3063 C3047 0.960 . S
C3064 C3065 1.391 . S
C3064 C3066 1.394 1_545 S
C3064 H3080 0.931 . S
C3065 C3064 1.391 . S
C3065 C3069 1.376 1_545 S
C3066 C3064 1.394 1_565 S
C3066 C3067 1.369 . S
C3066 C3070 1.531 . S
C3067 C3066 1.369 . S
C3067 C3068 1.410 . S
C3067 C3075 1.503 . S
C3068 C3067 1.410 . S
C3068 C3069 1.392 . S
C3068 C3071 1.511 . S
C3069 C3065 1.376 1_565 S
C3069 C3068 1.392 . S
C3069 H3081 0.929 . S
C3070 C3066 1.531 . S
C3070 H3082 0.960 . S
C3070 H3083 0.962 . S
C3070 H3084 0.960 1_565 S
C3071 C3068 1.511 . S
C3071 H3085 0.961 . S
C3071 H3086 0.961 . S
C3071 H3087 0.961 . S
C3072 C3073 1.370 . S
C3072 C3074 1.363 . S
C3072 H3088 0.931 . S
C3073 C3072 1.370 . S
C3073 C3077 1.408 . S
C3074 C3072 1.363 . S
C3074 C3075 1.370 . S
C3074 C3078 1.524 . S
C3075 C3067 1.503 . S
C3075 C3074 1.370 . S
C3075 C3076 1.403 . S
C3076 C3075 1.403 . S
C3076 C3077 1.404 . S
C3076 C3079 1.539 . S
C3077 C3073 1.408 . S
C3077 C3076 1.404 . S
C3077 H3089 0.930 . S
C3078 C3074 1.524 . S
C3078 H3090 0.956 . S
C3078 H3091 0.961 . S
C3078 H3092 0.961 . S
C3079 C3076 1.539 . S
C3079 H3093 0.958 . S
C3079 H3094 0.961 . S
C3079 H3095 0.960 . S
H3080 C3064 0.931 . S
H3081 C3069 0.929 . S
H3082 C3070 0.960 . S
H3083 C3070 0.962 . S
H3084 C3070 0.960 1_545 S
H3085 C3071 0.961 . S
H3086 C3071 0.961 . S
H3087 C3071 0.961 . S
H3088 C3072 0.931 . S
H3089 C3077 0.930 . S
H3090 C3078 0.956 . S
H3091 C3078 0.961 . S
H3092 C3078 0.961 . S
H3093 C3079 0.958 . S
H3094 C3079 0.961 . S
H3095 C3079 0.960 . S
C3096 C3097 1.391 . S
C3096 C3098 1.394 . S
C3096 H3112 0.931 . S
C3097 C3096 1.391 . S
C3097 C3101 1.376 . S
C3098 C3096 1.394 . S
C3098 C3099 1.369 . S
C3098 C3102 1.531 . S
C3099 C3098 1.369 . S
C3099 C3100 1.410 . S
C3099 C3107 1.503 . S
C3100 C3099 1.410 . S
C3100 C3101 1.392 . S
C3100 C3103 1.511 . S
C3101 C3097 1.376 . S
C3101 C3100 1.392 . S
C3101 H3113 0.929 . S
C3102 C3098 1.531 . S
C3102 H3114 0.960 . S
C3102 H3115 0.962 . S
C3102 H3116 0.960 . S
C3103 C3100 1.511 . S
C3103 H3117 0.961 . S
C3103 H3118 0.961 . S
C3103 H3119 0.961 . S
C3104 C3105 1.370 . S
C3104 C3106 1.363 . S
C3104 H3120 0.931 . S
C3105 C3104 1.370 . S
C3105 C3109 1.408 . S
C3106 C3104 1.363 . S
C3106 C3107 1.370 . S
C3106 C3110 1.524 . S
C3107 C3099 1.503 . S
C3107 C3106 1.370 . S
C3107 C3108 1.403 . S
C3108 C3107 1.403 . S
C3108 C3109 1.404 . S
C3108 C3111 1.539 . S
C3109 C3105 1.408 . S
C3109 C3108 1.404 . S
C3109 H3121 0.930 . S
C3110 C3106 1.524 . S
C3110 H3122 0.956 . S
C3110 H3123 0.961 . S
C3110 H3124 0.961 . S
C3111 C3108 1.539 . S
C3111 H3125 0.958 . S
C3111 H3126 0.961 . S
C3111 H3127 0.960 . S
H3112 C3096 0.931 . S
H3113 C3101 0.929 . S
H3114 C3102 0.960 . S
H3115 C3102 0.962 . S
H3116 C3102 0.960 . S
H3117 C3103 0.961 . S
H3118 C3103 0.961 . S
H3119 C3103 0.961 . S
H3120 C3104 0.931 . S
H3121 C3109 0.930 . S
H3122 C3110 0.956 . S
H3123 C3110 0.961 . S
H3124 C3110 0.961 . S
H3125 C3111 0.958 . S
H3126 C3111 0.961 . S
H3127 C3111 0.960 . S
C3128 C3129 1.391 . S
C3128 C3130 1.394 . S
C3128 H3144 0.931 . S
C3129 C3128 1.391 . S
C3129 C3133 1.376 . S
C3130 C3128 1.394 . S
C3130 C3131 1.369 . S
C3130 C3134 1.531 . S
C3131 C3130 1.369 . S
C3131 C3132 1.410 . S
C3131 C3139 1.503 . S
C3132 C3131 1.410 . S
C3132 C3133 1.392 . S
C3132 C3135 1.511 . S
C3133 C3129 1.376 . S
C3133 C3132 1.392 . S
C3133 H3145 0.929 . S
C3134 C3130 1.531 . S
C3134 H3146 0.960 . S
C3134 H3147 0.962 . S
C3134 H3148 0.960 . S
C3135 C3132 1.511 . S
C3135 H3149 0.961 . S
C3135 H3150 0.961 . S
C3135 H3151 0.961 . S
C3136 C3137 1.370 . S
C3136 C3138 1.363 . S
C3136 H3152 0.931 . S
C3137 C3136 1.370 . S
C3137 C3141 1.408 . S
C3138 C3136 1.363 . S
C3138 C3139 1.370 . S
C3138 C3142 1.524 . S
C3139 C3131 1.503 . S
C3139 C3138 1.370 . S
C3139 C3140 1.403 . S
C3140 C3139 1.403 . S
C3140 C3141 1.404 . S
C3140 C3143 1.539 . S
C3141 C3137 1.408 . S
C3141 C3140 1.404 . S
C3141 H3153 0.930 . S
C3142 C3138 1.524 . S
C3142 H3154 0.956 . S
C3142 H3155 0.961 . S
C3142 H3156 0.961 . S
C3143 C3140 1.539 . S
C3143 H3157 0.958 . S
C3143 H3158 0.961 . S
C3143 H3159 0.960 . S
H3144 C3128 0.931 . S
H3145 C3133 0.929 . S
H3146 C3134 0.960 . S
H3147 C3134 0.962 . S
H3148 C3134 0.960 . S
H3149 C3135 0.961 . S
H3150 C3135 0.961 . S
H3151 C3135 0.961 . S
H3152 C3136 0.931 . S
H3153 C3141 0.930 . S
H3154 C3142 0.956 . S
H3155 C3142 0.961 . S
H3156 C3142 0.961 . S
H3157 C3143 0.958 . S
H3158 C3143 0.961 . S
H3159 C3143 0.960 . S
C3160 C3161 1.391 . S
C3160 C3162 1.394 . S
C3160 H3176 0.931 . S
C3161 C3160 1.391 . S
C3161 C3165 1.376 . S
C3162 C3160 1.394 . S
C3162 C3163 1.369 . S
C3162 C3166 1.531 . S
C3163 C3162 1.369 . S
C3163 C3164 1.410 . S
C3163 C3171 1.503 . S
C3164 C3163 1.410 . S
C3164 C3165 1.392 . S
C3164 C3167 1.511 . S
C3165 C3161 1.376 . S
C3165 C3164 1.392 . S
C3165 H3177 0.929 . S
C3166 C3162 1.531 . S
C3166 H3178 0.960 . S
C3166 H3179 0.962 . S
C3166 H3180 0.960 . S
C3167 C3164 1.511 . S
C3167 H3181 0.961 . S
C3167 H3182 0.961 . S
C3167 H3183 0.961 . S
C3168 C3169 1.370 . S
C3168 C3170 1.363 . S
C3168 H3184 0.931 . S
C3169 C3168 1.370 . S
C3169 C3173 1.408 . S
C3170 C3168 1.363 . S
C3170 C3171 1.370 . S
C3170 C3174 1.524 . S
C3171 C3163 1.503 . S
C3171 C3170 1.370 . S
C3171 C3172 1.403 . S
C3172 C3171 1.403 . S
C3172 C3173 1.404 . S
C3172 C3175 1.539 . S
C3173 C3169 1.408 . S
C3173 C3172 1.404 . S
C3173 H3185 0.930 . S
C3174 C3170 1.524 . S
C3174 H3186 0.956 . S
C3174 H3187 0.961 . S
C3174 H3188 0.961 . S
C3175 C3172 1.539 . S
C3175 H3189 0.958 . S
C3175 H3190 0.961 . S
C3175 H3191 0.960 . S
H3176 C3160 0.931 . S
H3177 C3165 0.929 . S
H3178 C3166 0.960 . S
H3179 C3166 0.962 . S
H3180 C3166 0.960 . S
H3181 C3167 0.961 . S
H3182 C3167 0.961 . S
H3183 C3167 0.961 . S
H3184 C3168 0.931 . S
H3185 C3173 0.930 . S
H3186 C3174 0.956 . S
H3187 C3174 0.961 . S
H3188 C3174 0.961 . S
H3189 C3175 0.958 . S
H3190 C3175 0.961 . S
H3191 C3175 0.960 . S
C3192 C3193 1.391 . S
C3192 C3194 1.394 . S
C3192 H3208 0.931 . S
C3193 C3192 1.391 . S
C3193 C3197 1.376 . S
C3194 C3192 1.394 . S
C3194 C3195 1.369 . S
C3194 C3198 1.531 . S
C3195 C3194 1.369 . S
C3195 C3196 1.410 . S
C3195 C3203 1.503 . S
C3196 C3195 1.410 . S
C3196 C3197 1.392 . S
C3196 C3199 1.511 . S
C3197 C3193 1.376 . S
C3197 C3196 1.392 . S
C3197 H3209 0.929 . S
C3198 C3194 1.531 . S
C3198 H3210 0.960 . S
C3198 H3211 0.962 . S
C3198 H3212 0.960 . S
C3199 C3196 1.511 . S
C3199 H3213 0.961 . S
C3199 H3214 0.961 . S
C3199 H3215 0.961 . S
C3200 C3201 1.370 . S
C3200 C3202 1.363 . S
C3200 H3216 0.931 . S
C3201 C3200 1.370 . S
C3201 C3205 1.408 . S
C3202 C3200 1.363 . S
C3202 C3203 1.370 . S
C3202 C3206 1.524 . S
C3203 C3195 1.503 . S
C3203 C3202 1.370 . S
C3203 C3204 1.403 . S
C3204 C3203 1.403 . S
C3204 C3205 1.404 . S
C3204 C3207 1.539 . S
C3205 C3201 1.408 . S
C3205 C3204 1.404 . S
C3205 H3217 0.930 . S
C3206 C3202 1.524 . S
C3206 H3218 0.956 . S
C3206 H3219 0.961 . S
C3206 H3220 0.961 . S
C3207 C3204 1.539 . S
C3207 H3221 0.958 . S
C3207 H3222 0.961 . S
C3207 H3223 0.960 . S
H3208 C3192 0.931 . S
H3209 C3197 0.929 . S
H3210 C3198 0.960 . S
H3211 C3198 0.962 . S
H3212 C3198 0.960 . S
H3213 C3199 0.961 . S
H3214 C3199 0.961 . S
H3215 C3199 0.961 . S
H3216 C3200 0.931 . S
H3217 C3205 0.930 . S
H3218 C3206 0.956 . S
H3219 C3206 0.961 . S
H3220 C3206 0.961 . S
H3221 C3207 0.958 . S
H3222 C3207 0.961 . S
H3223 C3207 0.960 . S
C3224 C3225 1.391 . S
C3224 C3226 1.394 . S
C3224 H3240 0.931 . S
C3225 C3224 1.391 . S
C3225 C3229 1.376 . S
C3226 C3224 1.394 . S
C3226 C3227 1.369 . S
C3226 C3230 1.531 . S
C3227 C3226 1.369 . S
C3227 C3228 1.410 . S
C3227 C3235 1.503 . S
C3228 C3227 1.410 . S
C3228 C3229 1.392 . S
C3228 C3231 1.511 . S
C3229 C3225 1.376 . S
C3229 C3228 1.392 . S
C3229 H3241 0.929 . S
C3230 C3226 1.531 . S
C3230 H3242 0.960 . S
C3230 H3243 0.962 . S
C3230 H3244 0.960 . S
C3231 C3228 1.511 . S
C3231 H3245 0.961 . S
C3231 H3246 0.961 . S
C3231 H3247 0.961 . S
C3232 C3233 1.370 . S
C3232 C3234 1.363 . S
C3232 H3248 0.931 . S
C3233 C3232 1.370 . S
C3233 C3237 1.408 . S
C3234 C3232 1.363 . S
C3234 C3235 1.370 . S
C3234 C3238 1.524 . S
C3235 C3227 1.503 . S
C3235 C3234 1.370 . S
C3235 C3236 1.403 . S
C3236 C3235 1.403 . S
C3236 C3237 1.404 . S
C3236 C3239 1.539 . S
C3237 C3233 1.408 . S
C3237 C3236 1.404 . S
C3237 H3249 0.930 . S
C3238 C3234 1.524 . S
C3238 H3250 0.956 . S
C3238 H3251 0.961 . S
C3238 H3252 0.961 . S
C3239 C3236 1.539 . S
C3239 H3253 0.958 . S
C3239 H3254 0.961 . S
C3239 H3255 0.960 . S
H3240 C3224 0.931 . S
H3241 C3229 0.929 . S
H3242 C3230 0.960 . S
H3243 C3230 0.962 . S
H3244 C3230 0.960 . S
H3245 C3231 0.961 . S
H3246 C3231 0.961 . S
H3247 C3231 0.961 . S
H3248 C3232 0.931 . S
H3249 C3237 0.930 . S
H3250 C3238 0.956 . S
H3251 C3238 0.961 . S
H3252 C3238 0.961 . S
H3253 C3239 0.958 . S
H3254 C3239 0.961 . S
H3255 C3239 0.960 . S
C3256 C3257 1.391 1_655 S
C3256 C3258 1.394 1_556 S
C3256 H3272 0.931 . S
C3257 C3256 1.391 1_455 S
C3257 C3261 1.376 . S
C3258 C3256 1.394 1_554 S
C3258 C3259 1.369 1_655 S
C3258 C3262 1.531 . S
C3259 C3258 1.369 1_455 S
C3259 C3260 1.410 1_554 S
C3259 C3267 1.503 . S
C3260 C3259 1.410 1_556 S
C3260 C3261 1.392 . S
C3260 C3263 1.511 . S
C3261 C3257 1.376 . S
C3261 C3260 1.392 . S
C3261 H3273 0.929 . S
C3262 C3258 1.531 . S
C3262 H3274 0.960 . S
C3262 H3275 0.962 . S
C3262 H3276 0.960 . S
C3263 C3260 1.511 . S
C3263 H3277 0.961 . S
C3263 H3278 0.961 . S
C3263 H3279 0.961 . S
C3264 C3265 1.370 . S
C3264 C3266 1.363 1_554 S
C3264 H3280 0.931 1_454 S
C3265 C3264 1.370 . S
C3265 C3269 1.408 . S
C3266 C3264 1.363 1_556 S
C3266 C3267 1.370 1_556 S
C3266 C3270 1.524 1_455 S
C3267 C3259 1.503 . S
C3267 C3266 1.370 1_554 S
C3267 C3268 1.403 . S
C3268 C3267 1.403 . S
C3268 C3269 1.404 . S
C3268 C3271 1.539 . S
C3269 C3265 1.408 . S
C3269 C3268 1.404 . S
C3269 H3281 0.930 . S
C3270 C3266 1.524 1_655 S
C3270 H3282 0.956 . S
C3270 H3283 0.961 . S
C3270 H3284 0.961 . S
C3271 C3268 1.539 . S
C3271 H3285 0.958 . S
C3271 H3286 0.961 . S
C3271 H3287 0.960 . S
H3272 C3256 0.931 . S
H3273 C3261 0.929 . S
H3274 C3262 0.960 . S
H3275 C3262 0.962 . S
H3276 C3262 0.960 . S
H3277 C3263 0.961 . S
H3278 C3263 0.961 . S
H3279 C3263 0.961 . S
H3280 C3264 0.931 1_656 S
H3281 C3269 0.930 . S
H3282 C3270 0.956 . S
H3283 C3270 0.961 . S
H3284 C3270 0.961 . S
H3285 C3271 0.958 . S
H3286 C3271 0.961 . S
H3287 C3271 0.960 . S
C3288 C3289 1.397 . S
C3288 C3290 1.394 . S
C3288 H3304 0.931 . S
C3289 C3288 1.397 . S
C3289 C3293 1.376 1_655 S
C3290 C3288 1.394 . S
C3290 C3291 1.369 . S
C3290 C3294 1.531 . S
C3291 C3290 1.369 . S
C3291 C3292 1.410 . S
C3291 C3299 1.503 . S
C3292 C3291 1.410 . S
C3292 C3293 1.392 1_655 S
C3292 C3295 1.511 . S
C3293 C3289 1.376 1_455 S
C3293 C3292 1.392 1_455 S
C3293 H3305 0.929 . S
C3294 C3290 1.531 . S
C3294 H3306 0.960 . S
C3294 H3307 0.962 . S
C3294 H3308 0.960 . S
C3295 C3292 1.511 . S
C3295 H3309 0.961 1_655 S
C3295 H3310 0.961 . S
C3295 H3311 0.943 1_655 S
C3296 C3297 1.370 . S
C3296 C3298 1.363 . S
C3296 H3312 0.931 . S
C3297 C3296 1.370 . S
C3297 C3301 1.408 . S
C3298 C3296 1.363 . S
C3298 C3299 1.370 . S
C3298 C3302 1.524 . S
C3299 C3291 1.503 . S
C3299 C3298 1.370 . S
C3299 C3300 1.403 . S
C3300 C3299 1.403 . S
C3300 C3301 1.404 . S
C3300 C3303 1.539 . S
C3301 C3297 1.408 . S
C3301 C3300 1.404 . S
C3301 H3313 0.930 . S
C3302 C3298 1.524 . S
C3302 H3314 0.956 . S
C3302 H3315 0.961 . S
C3302 H3316 0.961 . S
C3303 C3300 1.539 . S
C3303 H3317 0.958 . S
C3303 H3318 0.961 . S
C3303 H3319 0.960 . S
H3304 C3288 0.931 . S
H3305 C3293 0.929 . S
H3306 C3294 0.960 . S
H3307 C3294 0.962 . S
H3308 C3294 0.960 . S
H3309 C3295 0.961 1_455 S
H3310 C3295 0.961 . S
H3311 C3295 0.943 1_455 S
H3312 C3296 0.931 . S
H3313 C3301 0.930 . S
H3314 C3302 0.956 . S
H3315 C3302 0.961 . S
H3316 C3302 0.961 . S
H3317 C3303 0.958 . S
H3318 C3303 0.961 . S
H3319 C3303 0.960 . S
C3320 C3321 1.391 . S
C3320 C3322 1.394 . S
C3320 H3336 0.931 . S
C3321 C3320 1.391 . S
C3321 C3325 1.376 . S
C3322 C3320 1.394 . S
C3322 C3323 1.369 . S
C3322 C3326 1.531 . S
C3323 C3322 1.369 . S
C3323 C3324 1.410 . S
C3323 C3331 1.503 . S
C3324 C3323 1.410 . S
C3324 C3325 1.392 . S
C3324 C3327 1.511 . S
C3325 C3321 1.376 . S
C3325 C3324 1.392 . S
C3325 H3337 0.929 . S
C3326 C3322 1.531 . S
C3326 H3338 0.960 . S
C3326 H3339 0.962 . S
C3326 H3340 0.960 . S
C3327 C3324 1.511 . S
C3327 H3341 0.961 . S
C3327 H3342 0.961 . S
C3327 H3343 0.961 . S
C3328 C3329 1.370 . S
C3328 C3330 1.363 . S
C3328 H3344 0.931 . S
C3329 C3328 1.370 . S
C3329 C3333 1.408 . S
C3330 C3328 1.363 . S
C3330 C3331 1.370 . S
C3330 C3334 1.524 . S
C3331 C3323 1.503 . S
C3331 C3330 1.370 . S
C3331 C3332 1.403 . S
C3332 C3331 1.403 . S
C3332 C3333 1.404 . S
C3332 C3335 1.539 . S
C3333 C3329 1.408 . S
C3333 C3332 1.404 . S
C3333 H3345 0.930 . S
C3334 C3330 1.524 . S
C3334 H3346 0.956 . S
C3334 H3347 0.961 . S
C3334 H3348 0.961 . S
C3335 C3332 1.539 . S
C3335 H3349 0.958 . S
C3335 H3350 0.961 . S
C3335 H3351 0.960 . S
H3336 C3320 0.931 . S
H3337 C3325 0.929 . S
H3338 C3326 0.960 . S
H3339 C3326 0.962 . S
H3340 C3326 0.960 . S
H3341 C3327 0.961 . S
H3342 C3327 0.961 . S
H3343 C3327 0.961 . S
H3344 C3328 0.931 . S
H3345 C3333 0.930 . S
H3346 C3334 0.956 . S
H3347 C3334 0.961 . S
H3348 C3334 0.961 . S
H3349 C3335 0.958 . S
H3350 C3335 0.961 . S
H3351 C3335 0.960 . S
C3352 C3353 1.391 . S
C3352 C3354 1.394 . S
C3352 H3368 0.931 . S
C3353 C3352 1.391 . S
C3353 C3357 1.376 . S
C3354 C3352 1.394 . S
C3354 C3355 1.369 . S
C3354 C3358 1.531 . S
C3355 C3354 1.369 . S
C3355 C3356 1.410 . S
C3355 C3363 1.503 . S
C3356 C3355 1.410 . S
C3356 C3357 1.392 . S
C3356 C3359 1.511 . S
C3357 C3353 1.376 . S
C3357 C3356 1.392 . S
C3357 H3369 0.929 . S
C3358 C3354 1.531 . S
C3358 H3370 0.960 . S
C3358 H3371 0.962 . S
C3358 H3372 0.960 . S
C3359 C3356 1.511 . S
C3359 H3373 0.961 . S
C3359 H3374 0.961 . S
C3359 H3375 0.961 . S
C3360 C3361 1.370 . S
C3360 C3362 1.363 . S
C3360 H3376 0.931 . S
C3361 C3360 1.370 . S
C3361 C3365 1.408 . S
C3362 C3360 1.363 . S
C3362 C3363 1.370 . S
C3362 C3366 1.524 . S
C3363 C3355 1.503 . S
C3363 C3362 1.370 . S
C3363 C3364 1.403 . S
C3364 C3363 1.403 . S
C3364 C3365 1.404 . S
C3364 C3367 1.539 . S
C3365 C3361 1.408 . S
C3365 C3364 1.404 . S
C3365 H3377 0.930 . S
C3366 C3362 1.524 . S
C3366 H3378 0.956 . S
C3366 H3379 0.961 . S
C3366 H3380 0.961 . S
C3367 C3364 1.539 . S
C3367 H3381 0.958 . S
C3367 H3382 0.961 . S
C3367 H3383 0.960 . S
H3368 C3352 0.931 . S
H3369 C3357 0.929 . S
H3370 C3358 0.960 . S
H3371 C3358 0.962 . S
H3372 C3358 0.960 . S
H3373 C3359 0.961 . S
H3374 C3359 0.961 . S
H3375 C3359 0.961 . S
H3376 C3360 0.931 . S
H3377 C3365 0.930 . S
H3378 C3366 0.956 . S
H3379 C3366 0.961 . S
H3380 C3366 0.961 . S
H3381 C3367 0.958 . S
H3382 C3367 0.961 . S
H3383 C3367 0.960 . S
C3384 C3385 1.391 . S
C3384 C3386 1.394 . S
C3384 H3400 0.931 . S
C3385 C3384 1.391 . S
C3385 C3389 1.376 1_455 S
C3386 C3384 1.394 . S
C3386 C3387 1.369 . S
C3386 C3390 1.531 . S
C3387 C3386 1.369 . S
C3387 C3388 1.410 1_455 S
C3387 C3395 1.503 . S
C3388 C3387 1.410 1_655 S
C3388 C3389 1.392 . S
C3388 C3391 1.511 . S
C3389 C3385 1.376 1_655 S
C3389 C3388 1.392 . S
C3389 H3401 0.929 . S
C3390 C3386 1.531 . S
C3390 H3402 0.960 . S
C3390 H3403 0.962 . S
C3390 H3404 0.960 . S
C3391 C3388 1.511 . S
C3391 H3405 0.961 . S
C3391 H3406 0.961 . S
C3391 H3407 0.961 . S
C3392 C3393 1.370 . S
C3392 C3394 1.363 . S
C3392 H3408 0.931 . S
C3393 C3392 1.370 . S
C3393 C3397 1.408 . S
C3394 C3392 1.363 . S
C3394 C3395 1.370 . S
C3394 C3398 1.524 . S
C3395 C3387 1.503 . S
C3395 C3394 1.370 . S
C3395 C3396 1.403 . S
C3396 C3395 1.403 . S
C3396 C3397 1.404 . S
C3396 C3399 1.539 . S
C3397 C3393 1.408 . S
C3397 C3396 1.404 . S
C3397 H3409 0.930 . S
C3398 C3394 1.524 . S
C3398 H3410 0.956 . S
C3398 H3411 0.938 1_455 S
C3398 H3412 0.961 . S
C3399 C3396 1.539 . S
C3399 H3413 0.958 . S
C3399 H3414 0.961 1_455 S
C3399 H3415 0.960 1_455 S
H3400 C3384 0.931 . S
H3401 C3389 0.929 . S
H3402 C3390 0.960 . S
H3403 C3390 0.962 . S
H3404 C3390 0.960 . S
H3405 C3391 0.961 . S
H3406 C3391 0.961 . S
H3407 C3391 0.961 . S
H3408 C3392 0.931 . S
H3409 C3397 0.930 . S
H3410 C3398 0.956 . S
H3411 C3398 0.938 1_655 S
H3412 C3398 0.961 . S
H3413 C3399 0.958 . S
H3414 C3399 0.961 1_655 S
H3415 C3399 0.960 1_655 S
C3416 C3417 1.391 . S
C3416 C3418 1.394 . S
C3416 H3432 0.931 . S
C3417 C3416 1.391 . S
C3417 C3421 1.376 . S
C3418 C3416 1.394 . S
C3418 C3419 1.369 . S
C3418 C3422 1.531 . S
C3419 C3418 1.369 . S
C3419 C3420 1.410 . S
C3419 C3427 1.503 . S
C3420 C3419 1.410 . S
C3420 C3421 1.392 . S
C3420 C3423 1.511 . S
C3421 C3417 1.376 . S
C3421 C3420 1.392 . S
C3421 H3433 0.929 . S
C3422 C3418 1.531 . S
C3422 H3434 0.960 . S
C3422 H3435 0.962 . S
C3422 H3436 0.960 . S
C3423 C3420 1.511 . S
C3423 H3437 0.961 . S
C3423 H3438 0.961 . S
C3423 H3439 0.961 . S
C3424 C3425 1.370 . S
C3424 C3426 1.363 . S
C3424 H3440 0.931 . S
C3425 C3424 1.370 . S
C3425 C3429 1.408 . S
C3426 C3424 1.363 . S
C3426 C3427 1.370 . S
C3426 C3430 1.524 . S
C3427 C3419 1.503 . S
C3427 C3426 1.370 . S
C3427 C3428 1.403 . S
C3428 C3427 1.403 . S
C3428 C3429 1.404 . S
C3428 C3431 1.539 . S
C3429 C3425 1.408 . S
C3429 C3428 1.404 . S
C3429 H3441 0.930 . S
C3430 C3426 1.524 . S
C3430 H3442 0.956 . S
C3430 H3443 0.961 . S
C3430 H3444 0.961 . S
C3431 C3428 1.539 . S
C3431 H3445 0.958 . S
C3431 H3446 0.961 . S
C3431 H3447 0.960 . S
H3432 C3416 0.931 . S
H3433 C3421 0.929 . S
H3434 C3422 0.960 . S
H3435 C3422 0.962 . S
H3436 C3422 0.960 . S
H3437 C3423 0.961 . S
H3438 C3423 0.961 . S
H3439 C3423 0.961 . S
H3440 C3424 0.931 . S
H3441 C3429 0.930 . S
H3442 C3430 0.956 . S
H3443 C3430 0.961 . S
H3444 C3430 0.961 . S
H3445 C3431 0.958 . S
H3446 C3431 0.961 . S
H3447 C3431 0.960 . S
C3448 C3449 1.391 . S
C3448 C3450 1.394 . S
C3448 H3464 0.931 . S
C3449 C3448 1.391 . S
C3449 C3453 1.376 . S
C3450 C3448 1.394 . S
C3450 C3451 1.369 . S
C3450 C3454 1.531 . S
C3451 C3450 1.369 . S
C3451 C3452 1.410 . S
C3451 C3459 1.503 . S
C3452 C3451 1.410 . S
C3452 C3453 1.392 . S
C3452 C3455 1.511 . S
C3453 C3449 1.376 . S
C3453 C3452 1.392 . S
C3453 H3465 0.929 . S
C3454 C3450 1.531 . S
C3454 H3466 0.960 . S
C3454 H3467 0.962 . S
C3454 H3468 0.960 . S
C3455 C3452 1.511 . S
C3455 H3469 0.961 . S
C3455 H3470 0.961 . S
C3455 H3471 0.961 . S
C3456 C3457 1.370 . S
C3456 C3458 1.363 . S
C3456 H3472 0.931 . S
C3457 C3456 1.370 . S
C3457 C3461 1.408 . S
C3458 C3456 1.363 . S
C3458 C3459 1.370 . S
C3458 C3462 1.524 . S
C3459 C3451 1.503 . S
C3459 C3458 1.370 . S
C3459 C3460 1.403 . S
C3460 C3459 1.403 . S
C3460 C3461 1.404 . S
C3460 C3463 1.539 . S
C3461 C3457 1.408 . S
C3461 C3460 1.404 . S
C3461 H3473 0.930 . S
C3462 C3458 1.524 . S
C3462 H3474 0.956 . S
C3462 H3475 0.961 . S
C3462 H3476 0.961 . S
C3463 C3460 1.539 . S
C3463 H3477 0.958 . S
C3463 H3478 0.961 . S
C3463 H3479 0.960 . S
H3464 C3448 0.931 . S
H3465 C3453 0.929 . S
H3466 C3454 0.960 . S
H3467 C3454 0.962 . S
H3468 C3454 0.960 . S
H3469 C3455 0.961 . S
H3470 C3455 0.961 . S
H3471 C3455 0.961 . S
H3472 C3456 0.931 . S
H3473 C3461 0.930 . S
H3474 C3462 0.956 . S
H3475 C3462 0.961 . S
H3476 C3462 0.961 . S
H3477 C3463 0.958 . S
H3478 C3463 0.961 . S
H3479 C3463 0.960 . S
C3480 C3481 1.391 1_556 S
C3480 C3482 1.394 . S
C3480 H3496 0.931 . S
C3481 C3480 1.391 1_554 S
C3481 C3485 1.376 1_554 S
C3482 C3480 1.394 . S
C3482 C3483 1.369 . S
C3482 C3486 1.531 . S
C3483 C3482 1.369 . S
C3483 C3484 1.410 . S
C3483 C3491 1.503 . S
C3484 C3483 1.410 . S
C3484 C3485 1.392 . S
C3484 C3487 1.511 . S
C3485 C3481 1.376 1_556 S
C3485 C3484 1.392 . S
C3485 H3497 0.929 1_556 S
C3486 C3482 1.531 . S
C3486 H3498 0.960 . S
C3486 H3499 0.962 . S
C3486 H3500 0.960 . S
C3487 C3484 1.511 . S
C3487 H3501 0.961 . S
C3487 H3502 0.961 . S
C3487 H3503 0.961 . S
C3488 C3489 1.370 . S
C3488 C3490 1.363 . S
C3488 H3504 0.931 . S
C3489 C3488 1.370 . S
C3489 C3493 1.408 . S
C3490 C3488 1.363 . S
C3490 C3491 1.370 . S
C3490 C3494 1.524 . S
C3491 C3483 1.503 . S
C3491 C3490 1.370 . S
C3491 C3492 1.403 . S
C3492 C3491 1.403 . S
C3492 C3493 1.404 . S
C3492 C3495 1.539 . S
C3493 C3489 1.408 . S
C3493 C3492 1.404 . S
C3493 H3505 0.930 . S
C3494 C3490 1.524 . S
C3494 H3506 0.956 . S
C3494 H3507 0.961 . S
C3494 H3508 0.961 . S
C3495 C3492 1.539 . S
C3495 H3509 0.958 . S
C3495 H3510 0.961 . S
C3495 H3511 0.960 . S
H3496 C3480 0.931 . S
H3497 C3485 0.929 1_554 S
H3498 C3486 0.960 . S
H3499 C3486 0.962 . S
H3500 C3486 0.960 . S
H3501 C3487 0.961 . S
H3502 C3487 0.961 . S
H3503 C3487 0.961 . S
H3504 C3488 0.931 . S
H3505 C3493 0.930 . S
H3506 C3494 0.956 . S
H3507 C3494 0.961 . S
H3508 C3494 0.961 . S
H3509 C3495 0.958 . S
H3510 C3495 0.961 . S
H3511 C3495 0.960 . S
C3512 C3513 1.391 . S
C3512 C3514 1.394 . S
C3512 H3528 0.931 . S
C3513 C3512 1.391 . S
C3513 C3517 1.376 . S
C3514 C3512 1.394 . S
C3514 C3515 1.369 . S
C3514 C3518 1.531 . S
C3515 C3514 1.369 . S
C3515 C3516 1.410 . S
C3515 C3523 1.503 . S
C3516 C3515 1.410 . S
C3516 C3517 1.392 . S
C3516 C3519 1.511 . S
C3517 C3513 1.376 . S
C3517 C3516 1.392 . S
C3517 H3529 0.929 . S
C3518 C3514 1.531 . S
C3518 H3530 0.960 . S
C3518 H3531 0.962 . S
C3518 H3532 0.960 . S
C3519 C3516 1.511 . S
C3519 H3533 0.961 . S
C3519 H3534 0.961 . S
C3519 H3535 0.961 . S
C3520 C3521 1.370 . S
C3520 C3522 1.363 . S
C3520 H3536 0.931 . S
C3521 C3520 1.370 . S
C3521 C3525 1.408 . S
C3522 C3520 1.363 . S
C3522 C3523 1.370 . S
C3522 C3526 1.524 . S
C3523 C3515 1.503 . S
C3523 C3522 1.370 . S
C3523 C3524 1.403 . S
C3524 C3523 1.403 . S
C3524 C3525 1.404 . S
C3524 C3527 1.539 . S
C3525 C3521 1.408 . S
C3525 C3524 1.404 . S
C3525 H3537 0.930 . S
C3526 C3522 1.524 . S
C3526 H3538 0.956 . S
C3526 H3539 0.961 . S
C3526 H3540 0.961 . S
C3527 C3524 1.539 . S
C3527 H3541 0.958 . S
C3527 H3542 0.961 . S
C3527 H3543 0.960 . S
H3528 C3512 0.931 . S
H3529 C3517 0.929 . S
H3530 C3518 0.960 . S
H3531 C3518 0.962 . S
H3532 C3518 0.960 . S
H3533 C3519 0.961 . S
H3534 C3519 0.961 . S
H3535 C3519 0.961 . S
H3536 C3520 0.931 . S
H3537 C3525 0.930 . S
H3538 C3526 0.956 . S
H3539 C3526 0.961 . S
H3540 C3526 0.961 . S
H3541 C3527 0.958 . S
H3542 C3527 0.961 . S
H3543 C3527 0.960 . S
C3544 C3545 1.391 . S
C3544 C3546 1.394 . S
C3544 H3560 0.931 . S
C3545 C3544 1.391 . S
C3545 C3549 1.376 . S
C3546 C3544 1.394 . S
C3546 C3547 1.369 . S
C3546 C3550 1.531 . S
C3547 C3546 1.369 . S
C3547 C3548 1.410 . S
C3547 C3555 1.503 . S
C3548 C3547 1.410 . S
C3548 C3549 1.392 . S
C3548 C3551 1.511 . S
C3549 C3545 1.376 . S
C3549 C3548 1.392 . S
C3549 H3561 0.929 . S
C3550 C3546 1.531 . S
C3550 H3562 0.960 . S
C3550 H3563 0.962 . S
C3550 H3564 0.960 . S
C3551 C3548 1.511 . S
C3551 H3565 0.961 . S
C3551 H3566 0.961 . S
C3551 H3567 0.961 . S
C3552 C3553 1.370 . S
C3552 C3554 1.363 . S
C3552 H3568 0.931 . S
C3553 C3552 1.370 . S
C3553 C3557 1.408 . S
C3554 C3552 1.363 . S
C3554 C3555 1.370 . S
C3554 C3558 1.524 . S
C3555 C3547 1.503 . S
C3555 C3554 1.370 . S
C3555 C3556 1.403 . S
C3556 C3555 1.403 . S
C3556 C3557 1.404 . S
C3556 C3559 1.539 . S
C3557 C3553 1.408 . S
C3557 C3556 1.404 . S
C3557 H3569 0.930 . S
C3558 C3554 1.524 . S
C3558 H3570 0.956 . S
C3558 H3571 0.961 . S
C3558 H3572 0.961 . S
C3559 C3556 1.539 . S
C3559 H3573 0.958 . S
C3559 H3574 0.961 . S
C3559 H3575 0.960 . S
H3560 C3544 0.931 . S
H3561 C3549 0.929 . S
H3562 C3550 0.960 . S
H3563 C3550 0.962 . S
H3564 C3550 0.960 . S
H3565 C3551 0.961 . S
H3566 C3551 0.961 . S
H3567 C3551 0.961 . S
H3568 C3552 0.931 . S
H3569 C3557 0.930 . S
H3570 C3558 0.956 . S
H3571 C3558 0.961 . S
H3572 C3558 0.961 . S
H3573 C3559 0.958 . S
H3574 C3559 0.961 . S
H3575 C3559 0.960 . S
C3576 C3577 1.391 . S
C3576 C3578 1.394 . S
C3576 H3592 0.931 . S
C3577 C3576 1.391 . S
C3577 C3581 1.376 . S
C3578 C3576 1.394 . S
C3578 C3579 1.369 . S
C3578 C3582 1.531 . S
C3579 C3578 1.369 . S
C3579 C3580 1.410 . S
C3579 C3587 1.503 . S
C3580 C3579 1.410 . S
C3580 C3581 1.392 . S
C3580 C3583 1.511 . S
C3581 C3577 1.376 . S
C3581 C3580 1.392 . S
C3581 H3593 0.929 . S
C3582 C3578 1.531 . S
C3582 H3594 0.960 . S
C3582 H3595 0.962 . S
C3582 H3596 0.960 . S
C3583 C3580 1.511 . S
C3583 H3597 0.961 . S
C3583 H3598 0.961 . S
C3583 H3599 0.961 . S
C3584 C3585 1.370 . S
C3584 C3586 1.363 . S
C3584 H3600 0.931 . S
C3585 C3584 1.370 . S
C3585 C3589 1.408 . S
C3586 C3584 1.363 . S
C3586 C3587 1.370 . S
C3586 C3590 1.524 . S
C3587 C3579 1.503 . S
C3587 C3586 1.370 . S
C3587 C3588 1.403 . S
C3588 C3587 1.403 . S
C3588 C3589 1.404 . S
C3588 C3591 1.539 . S
C3589 C3585 1.408 . S
C3589 C3588 1.404 . S
C3589 H3601 0.930 . S
C3590 C3586 1.524 . S
C3590 H3602 0.956 . S
C3590 H3603 0.961 . S
C3590 H3604 0.961 . S
C3591 C3588 1.539 . S
C3591 H3605 0.958 . S
C3591 H3606 0.961 . S
C3591 H3607 0.960 . S
H3592 C3576 0.931 . S
H3593 C3581 0.929 . S
H3594 C3582 0.960 . S
H3595 C3582 0.962 . S
H3596 C3582 0.960 . S
H3597 C3583 0.961 . S
H3598 C3583 0.961 . S
H3599 C3583 0.961 . S
H3600 C3584 0.931 . S
H3601 C3589 0.930 . S
H3602 C3590 0.956 . S
H3603 C3590 0.961 . S
H3604 C3590 0.961 . S
H3605 C3591 0.958 . S
H3606 C3591 0.961 . S
H3607 C3591 0.960 . S
C3608 C3609 1.391 . S
C3608 C3610 1.394 . S
C3608 H3624 0.931 . S
C3609 C3608 1.391 . S
C3609 C3613 1.376 . S
C3610 C3608 1.394 . S
C3610 C3611 1.369 . S
C3610 C3614 1.531 . S
C3611 C3610 1.369 . S
C3611 C3612 1.410 . S
C3611 C3619 1.503 . S
C3612 C3611 1.410 . S
C3612 C3613 1.392 . S
C3612 C3615 1.511 . S
C3613 C3609 1.376 . S
C3613 C3612 1.392 . S
C3613 H3625 0.929 . S
C3614 C3610 1.531 . S
C3614 H3626 0.960 . S
C3614 H3627 0.962 . S
C3614 H3628 0.960 . S
C3615 C3612 1.511 . S
C3615 H3629 0.961 . S
C3615 H3630 0.961 . S
C3615 H3631 0.961 . S
C3616 C3617 1.370 . S
C3616 C3618 1.363 . S
C3616 H3632 0.931 . S
C3617 C3616 1.370 . S
C3617 C3621 1.408 . S
C3618 C3616 1.363 . S
C3618 C3619 1.370 . S
C3618 C3622 1.524 . S
C3619 C3611 1.503 . S
C3619 C3618 1.370 . S
C3619 C3620 1.403 . S
C3620 C3619 1.403 . S
C3620 C3621 1.404 . S
C3620 C3623 1.539 . S
C3621 C3617 1.408 . S
C3621 C3620 1.404 . S
C3621 H3633 0.930 . S
C3622 C3618 1.524 . S
C3622 H3634 0.956 . S
C3622 H3635 0.961 . S
C3622 H3636 0.961 . S
C3623 C3620 1.539 . S
C3623 H3637 0.958 . S
C3623 H3638 0.961 . S
C3623 H3639 0.960 . S
H3624 C3608 0.931 . S
H3625 C3613 0.929 . S
H3626 C3614 0.960 . S
H3627 C3614 0.962 . S
H3628 C3614 0.960 . S
H3629 C3615 0.961 . S
H3630 C3615 0.961 . S
H3631 C3615 0.961 . S
H3632 C3616 0.931 . S
H3633 C3621 0.930 . S
H3634 C3622 0.956 . S
H3635 C3622 0.961 . S
H3636 C3622 0.961 . S
H3637 C3623 0.958 . S
H3638 C3623 0.961 . S
H3639 C3623 0.960 . S
C3640 C3641 1.391 . S
C3640 C3642 1.394 . S
C3640 H3656 0.931 . S
C3641 C3640 1.391 . S
C3641 C3645 1.376 . S
C3642 C3640 1.394 . S
C3642 C3643 1.369 . S
C3642 C3646 1.531 . S
C3643 C3642 1.369 . S
C3643 C3644 1.410 . S
C3643 C3651 1.503 . S
C3644 C3643 1.410 . S
C3644 C3645 1.392 . S
C3644 C3647 1.511 . S
C3645 C3641 1.376 . S
C3645 C3644 1.392 . S
C3645 H3657 0.929 . S
C3646 C3642 1.531 . S
C3646 H3658 0.960 . S
C3646 H3659 0.962 . S
C3646 H3660 0.960 . S
C3647 C3644 1.511 . S
C3647 H3661 0.961 . S
C3647 H3662 0.961 . S
C3647 H3663 0.961 . S
C3648 C3649 1.370 . S
C3648 C3650 1.363 . S
C3648 H3664 0.931 . S
C3649 C3648 1.370 . S
C3649 C3653 1.408 . S
C3650 C3648 1.363 . S
C3650 C3651 1.370 . S
C3650 C3654 1.524 . S
C3651 C3643 1.503 . S
C3651 C3650 1.370 . S
C3651 C3652 1.403 . S
C3652 C3651 1.403 . S
C3652 C3653 1.404 . S
C3652 C3655 1.539 . S
C3653 C3649 1.408 . S
C3653 C3652 1.404 . S
C3653 H3665 0.930 . S
C3654 C3650 1.524 . S
C3654 H3666 0.956 . S
C3654 H3667 0.961 . S
C3654 H3668 0.961 . S
C3655 C3652 1.539 . S
C3655 H3669 0.958 . S
C3655 H3670 0.961 . S
C3655 H3671 0.960 . S
H3656 C3640 0.931 . S
H3657 C3645 0.929 . S
H3658 C3646 0.960 . S
H3659 C3646 0.962 . S
H3660 C3646 0.960 . S
H3661 C3647 0.961 . S
H3662 C3647 0.961 . S
H3663 C3647 0.961 . S
H3664 C3648 0.931 . S
H3665 C3653 0.930 . S
H3666 C3654 0.956 . S
H3667 C3654 0.961 . S
H3668 C3654 0.961 . S
H3669 C3655 0.958 . S
H3670 C3655 0.961 . S
H3671 C3655 0.960 . S
C3672 C3673 1.391 . S
C3672 C3674 1.394 . S
C3672 H3688 0.931 . S
C3673 C3672 1.391 . S
C3673 C3677 1.376 . S
C3674 C3672 1.394 . S
C3674 C3675 1.369 . S
C3674 C3678 1.531 . S
C3675 C3674 1.369 . S
C3675 C3676 1.410 . S
C3675 C3683 1.503 . S
C3676 C3675 1.410 . S
C3676 C3677 1.392 . S
C3676 C3679 1.511 . S
C3677 C3673 1.376 . S
C3677 C3676 1.392 . S
C3677 H3689 0.929 . S
C3678 C3674 1.531 . S
C3678 H3690 0.960 . S
C3678 H3691 0.962 . S
C3678 H3692 0.960 . S
C3679 C3676 1.511 . S
C3679 H3693 0.961 . S
C3679 H3694 0.961 . S
C3679 H3695 0.961 . S
C3680 C3681 1.370 . S
C3680 C3682 1.363 . S
C3680 H3696 0.931 . S
C3681 C3680 1.370 . S
C3681 C3685 1.408 . S
C3682 C3680 1.363 . S
C3682 C3683 1.370 . S
C3682 C3686 1.524 . S
C3683 C3675 1.503 . S
C3683 C3682 1.370 . S
C3683 C3684 1.403 . S
C3684 C3683 1.403 . S
C3684 C3685 1.404 . S
C3684 C3687 1.539 . S
C3685 C3681 1.408 . S
C3685 C3684 1.404 . S
C3685 H3697 0.930 . S
C3686 C3682 1.524 . S
C3686 H3698 0.956 . S
C3686 H3699 0.961 . S
C3686 H3700 0.961 . S
C3687 C3684 1.539 . S
C3687 H3701 0.958 . S
C3687 H3702 0.961 . S
C3687 H3703 0.960 . S
H3688 C3672 0.931 . S
H3689 C3677 0.929 . S
H3690 C3678 0.960 . S
H3691 C3678 0.962 . S
H3692 C3678 0.960 . S
H3693 C3679 0.961 . S
H3694 C3679 0.961 . S
H3695 C3679 0.961 . S
H3696 C3680 0.931 . S
H3697 C3685 0.930 . S
H3698 C3686 0.956 . S
H3699 C3686 0.961 . S
H3700 C3686 0.961 . S
H3701 C3687 0.958 . S
H3702 C3687 0.961 . S
H3703 C3687 0.960 . S
C3704 C3705 1.391 . S
C3704 C3706 1.394 . S
C3704 H3720 0.931 . S
C3705 C3704 1.391 . S
C3705 C3709 1.376 . S
C3706 C3704 1.394 . S
C3706 C3707 1.369 . S
C3706 C3710 1.531 . S
C3707 C3706 1.369 . S
C3707 C3708 1.410 . S
C3707 C3715 1.503 . S
C3708 C3707 1.410 . S
C3708 C3709 1.392 . S
C3708 C3711 1.511 . S
C3709 C3705 1.376 . S
C3709 C3708 1.392 . S
C3709 H3721 0.929 . S
C3710 C3706 1.531 . S
C3710 H3722 0.960 . S
C3710 H3723 0.962 . S
C3710 H3724 0.960 . S
C3711 C3708 1.511 . S
C3711 H3725 0.961 . S
C3711 H3726 0.961 . S
C3711 H3727 0.961 . S
C3712 C3713 1.370 . S
C3712 C3714 1.363 . S
C3712 H3728 0.931 . S
C3713 C3712 1.370 . S
C3713 C3717 1.408 . S
C3714 C3712 1.363 . S
C3714 C3715 1.370 . S
C3714 C3718 1.524 . S
C3715 C3707 1.503 . S
C3715 C3714 1.370 . S
C3715 C3716 1.403 . S
C3716 C3715 1.403 . S
C3716 C3717 1.404 . S
C3716 C3719 1.539 . S
C3717 C3713 1.408 . S
C3717 C3716 1.404 . S
C3717 H3729 0.930 . S
C3718 C3714 1.524 . S
C3718 H3730 0.956 . S
C3718 H3731 0.961 . S
C3718 H3732 0.961 . S
C3719 C3716 1.539 . S
C3719 H3733 0.958 . S
C3719 H3734 0.961 . S
C3719 H3735 0.960 . S
H3720 C3704 0.931 . S
H3721 C3709 0.929 . S
H3722 C3710 0.960 . S
H3723 C3710 0.962 . S
H3724 C3710 0.960 . S
H3725 C3711 0.961 . S
H3726 C3711 0.961 . S
H3727 C3711 0.961 . S
H3728 C3712 0.931 . S
H3729 C3717 0.930 . S
H3730 C3718 0.956 . S
H3731 C3718 0.961 . S
H3732 C3718 0.961 . S
H3733 C3719 0.958 . S
H3734 C3719 0.961 . S
H3735 C3719 0.960 . S
C3736 C3737 1.391 . S
C3736 C3738 1.394 . S
C3736 H3752 0.931 . S
C3737 C3736 1.391 . S
C3737 C3741 1.376 . S
C3738 C3736 1.394 . S
C3738 C3739 1.369 . S
C3738 C3742 1.531 . S
C3739 C3738 1.369 . S
C3739 C3740 1.410 . S
C3739 C3747 1.503 . S
C3740 C3739 1.410 . S
C3740 C3741 1.392 . S
C3740 C3743 1.511 . S
C3741 C3737 1.376 . S
C3741 C3740 1.392 . S
C3741 H3753 0.929 . S
C3742 C3738 1.531 . S
C3742 H3754 0.960 . S
C3742 H3755 0.962 . S
C3742 H3756 0.960 . S
C3743 C3740 1.511 . S
C3743 H3757 0.961 . S
C3743 H3758 0.961 . S
C3743 H3759 0.961 . S
C3744 C3745 1.370 . S
C3744 C3746 1.363 . S
C3744 H3760 0.931 . S
C3745 C3744 1.370 . S
C3745 C3749 1.408 . S
C3746 C3744 1.363 . S
C3746 C3747 1.370 . S
C3746 C3750 1.524 . S
C3747 C3739 1.503 . S
C3747 C3746 1.370 . S
C3747 C3748 1.403 . S
C3748 C3747 1.403 . S
C3748 C3749 1.404 . S
C3748 C3751 1.539 . S
C3749 C3745 1.408 . S
C3749 C3748 1.404 . S
C3749 H3761 0.930 . S
C3750 C3746 1.524 . S
C3750 H3762 0.956 . S
C3750 H3763 0.961 . S
C3750 H3764 0.961 . S
C3751 C3748 1.539 . S
C3751 H3765 0.958 . S
C3751 H3766 0.961 . S
C3751 H3767 0.960 . S
H3752 C3736 0.931 . S
H3753 C3741 0.929 . S
H3754 C3742 0.960 . S
H3755 C3742 0.962 . S
H3756 C3742 0.960 . S
H3757 C3743 0.961 . S
H3758 C3743 0.961 . S
H3759 C3743 0.961 . S
H3760 C3744 0.931 . S
H3761 C3749 0.930 . S
H3762 C3750 0.956 . S
H3763 C3750 0.961 . S
H3764 C3750 0.961 . S
H3765 C3751 0.958 . S
H3766 C3751 0.961 . S
H3767 C3751 0.960 . S
C3768 C3769 1.391 . S
C3768 C3770 1.394 . S
C3768 H3784 0.931 . S
C3769 C3768 1.391 . S
C3769 C3773 1.376 . S
C3770 C3768 1.394 . S
C3770 C3771 1.369 . S
C3770 C3774 1.531 . S
C3771 C3770 1.369 . S
C3771 C3772 1.410 . S
C3771 C3779 1.503 . S
C3772 C3771 1.410 . S
C3772 C3773 1.392 . S
C3772 C3775 1.511 . S
C3773 C3769 1.376 . S
C3773 C3772 1.392 . S
C3773 H3785 0.929 1_565 S
C3774 C3770 1.531 . S
C3774 H3786 0.960 . S
C3774 H3787 0.962 . S
C3774 H3788 0.960 . S
C3775 C3772 1.511 . S
C3775 H3789 0.961 1_565 S
C3775 H3790 0.961 . S
C3775 H3791 0.961 . S
C3776 C3777 1.370 . S
C3776 C3778 1.363 . S
C3776 H3792 0.931 . S
C3777 C3776 1.370 . S
C3777 C3781 1.408 . S
C3778 C3776 1.363 . S
C3778 C3779 1.370 . S
C3778 C3782 1.524 . S
C3779 C3771 1.503 . S
C3779 C3778 1.370 . S
C3779 C3780 1.403 . S
C3780 C3779 1.403 . S
C3780 C3781 1.404 . S
C3780 C3783 1.539 . S
C3781 C3777 1.408 . S
C3781 C3780 1.404 . S
C3781 H3793 0.930 . S
C3782 C3778 1.524 . S
C3782 H3794 0.956 . S
C3782 H3795 0.961 . S
C3782 H3796 0.961 . S
C3783 C3780 1.539 . S
C3783 H3797 0.958 . S
C3783 H3798 0.961 . S
C3783 H3799 0.960 . S
H3784 C3768 0.931 . S
H3785 C3773 0.929 1_545 S
H3786 C3774 0.960 . S
H3787 C3774 0.962 . S
H3788 C3774 0.960 . S
H3789 C3775 0.961 1_545 S
H3790 C3775 0.961 . S
H3791 C3775 0.961 . S
H3792 C3776 0.931 . S
H3793 C3781 0.930 . S
H3794 C3782 0.956 . S
H3795 C3782 0.961 . S
H3796 C3782 0.961 . S
H3797 C3783 0.958 . S
H3798 C3783 0.961 . S
H3799 C3783 0.960 . S
C3800 C3801 1.409 . S
C3800 C3802 1.394 . S
C3800 H3816 0.931 . S
C3801 C3800 1.409 . S
C3801 C3805 1.360 1_554 S
C3802 C3800 1.394 . S
C3802 C3803 1.369 . S
C3802 C3806 1.531 1_565 S
C3803 C3802 1.369 . S
C3803 C3804 1.410 1_554 S
C3803 C3811 1.503 . S
C3804 C3803 1.410 1_556 S
C3804 C3805 1.392 . S
C3804 C3807 1.511 . S
C3805 C3801 1.360 1_556 S
C3805 C3804 1.392 . S
C3805 H3817 0.929 . S
C3806 C3802 1.531 1_545 S
C3806 H3818 0.960 . S
C3806 H3819 0.962 . S
C3806 H3820 0.960 . S
C3807 C3804 1.511 . S
C3807 H3821 0.961 . S
C3807 H3822 0.961 . S
C3807 H3823 0.961 1_556 S
C3808 C3809 1.370 1_556 S
C3808 C3810 1.363 . S
C3808 H3824 0.931 . S
C3809 C3808 1.370 1_554 S
C3809 C3813 1.408 . S
C3810 C3808 1.363 . S
C3810 C3811 1.370 1_546 S
C3810 C3814 1.524 . S
C3811 C3803 1.503 . S
C3811 C3810 1.370 1_564 S
C3811 C3812 1.403 . S
C3812 C3811 1.403 . S
C3812 C3813 1.404 1_565 S
C3812 C3815 1.539 . S
C3813 C3809 1.408 . S
C3813 C3812 1.404 1_545 S
C3813 H3825 0.930 . S
C3814 C3810 1.524 . S
C3814 H3826 0.956 . S
C3814 H3827 0.961 1_545 S
C3814 H3828 0.961 . S
C3815 C3812 1.539 . S
C3815 H3829 0.958 . S
C3815 H3830 0.961 . S
C3815 H3831 0.960 . S
H3816 C3800 0.931 . S
H3817 C3805 0.929 . S
H3818 C3806 0.960 . S
H3819 C3806 0.962 . S
H3820 C3806 0.960 . S
H3821 C3807 0.961 . S
H3822 C3807 0.961 . S
H3823 C3807 0.961 1_554 S
H3824 C3808 0.931 . S
H3825 C3813 0.930 . S
H3826 C3814 0.956 . S
H3827 C3814 0.961 1_565 S
H3828 C3814 0.961 . S
H3829 C3815 0.958 . S
H3830 C3815 0.961 . S
H3831 C3815 0.960 . S
C3832 C3833 1.391 . S
C3832 C3834 1.394 . S
C3832 H3848 0.931 . S
C3833 C3832 1.391 . S
C3833 C3837 1.376 . S
C3834 C3832 1.394 . S
C3834 C3835 1.369 . S
C3834 C3838 1.531 . S
C3835 C3834 1.369 . S
C3835 C3836 1.410 . S
C3835 C3843 1.503 . S
C3836 C3835 1.410 . S
C3836 C3837 1.392 . S
C3836 C3839 1.511 . S
C3837 C3833 1.376 . S
C3837 C3836 1.392 . S
C3837 H3849 0.929 . S
C3838 C3834 1.531 . S
C3838 H3850 0.960 . S
C3838 H3851 0.962 . S
C3838 H3852 0.960 . S
C3839 C3836 1.511 . S
C3839 H3853 0.961 . S
C3839 H3854 0.961 . S
C3839 H3855 0.961 . S
C3840 C3841 1.370 . S
C3840 C3842 1.363 . S
C3840 H3856 0.931 . S
C3841 C3840 1.370 . S
C3841 C3845 1.408 . S
C3842 C3840 1.363 . S
C3842 C3843 1.370 . S
C3842 C3846 1.524 . S
C3843 C3835 1.503 . S
C3843 C3842 1.370 . S
C3843 C3844 1.403 . S
C3844 C3843 1.403 . S
C3844 C3845 1.404 . S
C3844 C3847 1.539 . S
C3845 C3841 1.408 . S
C3845 C3844 1.404 . S
C3845 H3857 0.930 . S
C3846 C3842 1.524 . S
C3846 H3858 0.956 . S
C3846 H3859 0.961 . S
C3846 H3860 0.961 . S
C3847 C3844 1.539 . S
C3847 H3861 0.958 . S
C3847 H3862 0.961 . S
C3847 H3863 0.960 . S
H3848 C3832 0.931 . S
H3849 C3837 0.929 . S
H3850 C3838 0.960 . S
H3851 C3838 0.962 . S
H3852 C3838 0.960 . S
H3853 C3839 0.961 . S
H3854 C3839 0.961 . S
H3855 C3839 0.961 . S
H3856 C3840 0.931 . S
H3857 C3845 0.930 . S
H3858 C3846 0.956 . S
H3859 C3846 0.961 . S
H3860 C3846 0.961 . S
H3861 C3847 0.958 . S
H3862 C3847 0.961 . S
H3863 C3847 0.960 . S
C3864 C3865 1.391 . S
C3864 C3866 1.394 . S
C3864 H3880 0.931 . S
C3865 C3864 1.391 . S
C3865 C3869 1.376 . S
C3866 C3864 1.394 . S
C3866 C3867 1.369 . S
C3866 C3870 1.531 . S
C3867 C3866 1.369 . S
C3867 C3868 1.410 . S
C3867 C3875 1.503 . S
C3868 C3867 1.410 . S
C3868 C3869 1.392 . S
C3868 C3871 1.511 . S
C3869 C3865 1.376 . S
C3869 C3868 1.392 . S
C3869 H3881 0.929 1_554 S
C3870 C3866 1.531 . S
C3870 H3882 0.960 . S
C3870 H3883 0.962 . S
C3870 H3884 0.960 . S
C3871 C3868 1.511 . S
C3871 H3885 0.961 1_554 S
C3871 H3886 0.961 . S
C3871 H3887 0.961 . S
C3872 C3873 1.370 . S
C3872 C3874 1.363 . S
C3872 H3888 0.931 . S
C3873 C3872 1.370 . S
C3873 C3877 1.408 . S
C3874 C3872 1.363 . S
C3874 C3875 1.370 . S
C3874 C3878 1.524 . S
C3875 C3867 1.503 . S
C3875 C3874 1.370 . S
C3875 C3876 1.403 . S
C3876 C3875 1.403 . S
C3876 C3877 1.404 . S
C3876 C3879 1.539 . S
C3877 C3873 1.408 . S
C3877 C3876 1.404 . S
C3877 H3889 0.930 . S
C3878 C3874 1.524 . S
C3878 H3890 0.956 . S
C3878 H3891 0.961 . S
C3878 H3892 0.961 . S
C3879 C3876 1.539 . S
C3879 H3893 0.958 . S
C3879 H3894 0.961 . S
C3879 H3895 0.960 . S
H3880 C3864 0.931 . S
H3881 C3869 0.929 1_556 S
H3882 C3870 0.960 . S
H3883 C3870 0.962 . S
H3884 C3870 0.960 . S
H3885 C3871 0.961 1_556 S
H3886 C3871 0.961 . S
H3887 C3871 0.961 . S
H3888 C3872 0.931 . S
H3889 C3877 0.930 . S
H3890 C3878 0.956 . S
H3891 C3878 0.961 . S
H3892 C3878 0.961 . S
H3893 C3879 0.958 . S
H3894 C3879 0.961 . S
H3895 C3879 0.960 . S
C3896 C3897 1.391 . S
C3896 C3898 1.394 . S
C3896 H3912 0.931 . S
C3897 C3896 1.391 . S
C3897 C3901 1.376 . S
C3898 C3896 1.394 . S
C3898 C3899 1.369 . S
C3898 C3902 1.531 . S
C3899 C3898 1.369 . S
C3899 C3900 1.410 . S
C3899 C3907 1.503 . S
C3900 C3899 1.410 . S
C3900 C3901 1.392 . S
C3900 C3903 1.511 . S
C3901 C3897 1.376 . S
C3901 C3900 1.392 . S
C3901 H3913 0.929 . S
C3902 C3898 1.531 . S
C3902 H3914 0.960 . S
C3902 H3915 0.962 . S
C3902 H3916 0.960 . S
C3903 C3900 1.511 . S
C3903 H3917 0.961 . S
C3903 H3918 0.961 . S
C3903 H3919 0.961 . S
C3904 C3905 1.370 . S
C3904 C3906 1.363 . S
C3904 H3920 0.931 . S
C3905 C3904 1.370 . S
C3905 C3909 1.408 . S
C3906 C3904 1.363 . S
C3906 C3907 1.370 . S
C3906 C3910 1.524 . S
C3907 C3899 1.503 . S
C3907 C3906 1.370 . S
C3907 C3908 1.403 . S
C3908 C3907 1.403 . S
C3908 C3909 1.404 . S
C3908 C3911 1.539 . S
C3909 C3905 1.408 . S
C3909 C3908 1.404 . S
C3909 H3921 0.930 . S
C3910 C3906 1.524 . S
C3910 H3922 0.956 . S
C3910 H3923 0.961 . S
C3910 H3924 0.961 . S
C3911 C3908 1.539 . S
C3911 H3925 0.958 . S
C3911 H3926 0.961 . S
C3911 H3927 0.960 . S
H3912 C3896 0.931 . S
H3913 C3901 0.929 . S
H3914 C3902 0.960 . S
H3915 C3902 0.962 . S
H3916 C3902 0.960 . S
H3917 C3903 0.961 . S
H3918 C3903 0.961 . S
H3919 C3903 0.961 . S
H3920 C3904 0.931 . S
H3921 C3909 0.930 . S
H3922 C3910 0.956 . S
H3923 C3910 0.961 . S
H3924 C3910 0.961 . S
H3925 C3911 0.958 . S
H3926 C3911 0.961 . S
H3927 C3911 0.960 . S
C3928 C3929 1.391 . S
C3928 C3930 1.394 . S
C3928 H3944 0.931 . S
C3929 C3928 1.391 . S
C3929 C3933 1.376 . S
C3930 C3928 1.394 . S
C3930 C3931 1.369 . S
C3930 C3934 1.531 . S
C3931 C3930 1.369 . S
C3931 C3932 1.410 . S
C3931 C3939 1.503 . S
C3932 C3931 1.410 . S
C3932 C3933 1.392 . S
C3932 C3935 1.511 . S
C3933 C3929 1.376 . S
C3933 C3932 1.392 . S
C3933 H3945 0.929 . S
C3934 C3930 1.531 . S
C3934 H3946 0.960 . S
C3934 H3947 0.962 . S
C3934 H3948 0.960 . S
C3935 C3932 1.511 . S
C3935 H3949 0.961 . S
C3935 H3950 0.961 . S
C3935 H3951 0.961 . S
C3936 C3937 1.370 . S
C3936 C3938 1.363 . S
C3936 H3952 0.931 . S
C3937 C3936 1.370 . S
C3937 C3941 1.408 . S
C3938 C3936 1.363 . S
C3938 C3939 1.370 . S
C3938 C3942 1.524 . S
C3939 C3931 1.503 . S
C3939 C3938 1.370 . S
C3939 C3940 1.403 . S
C3940 C3939 1.403 . S
C3940 C3941 1.404 . S
C3940 C3943 1.539 . S
C3941 C3937 1.408 . S
C3941 C3940 1.404 . S
C3941 H3953 0.930 . S
C3942 C3938 1.524 . S
C3942 H3954 0.956 . S
C3942 H3955 0.961 . S
C3942 H3956 0.961 . S
C3943 C3940 1.539 . S
C3943 H3957 0.958 . S
C3943 H3958 0.961 . S
C3943 H3959 0.960 . S
H3944 C3928 0.931 . S
H3945 C3933 0.929 . S
H3946 C3934 0.960 . S
H3947 C3934 0.962 . S
H3948 C3934 0.960 . S
H3949 C3935 0.961 . S
H3950 C3935 0.961 . S
H3951 C3935 0.961 . S
H3952 C3936 0.931 . S
H3953 C3941 0.930 . S
H3954 C3942 0.956 . S
H3955 C3942 0.961 . S
H3956 C3942 0.961 . S
H3957 C3943 0.958 . S
H3958 C3943 0.961 . S
H3959 C3943 0.960 . S
C3960 C3961 1.391 . S
C3960 C3962 1.394 . S
C3960 H3976 0.931 . S
C3961 C3960 1.391 . S
C3961 C3965 1.376 . S
C3962 C3960 1.394 . S
C3962 C3963 1.369 . S
C3962 C3966 1.531 . S
C3963 C3962 1.369 . S
C3963 C3964 1.410 . S
C3963 C3971 1.503 . S
C3964 C3963 1.410 . S
C3964 C3965 1.392 . S
C3964 C3967 1.511 . S
C3965 C3961 1.376 . S
C3965 C3964 1.392 . S
C3965 H3977 0.929 . S
C3966 C3962 1.531 . S
C3966 H3978 0.960 . S
C3966 H3979 0.962 . S
C3966 H3980 0.960 . S
C3967 C3964 1.511 . S
C3967 H3981 0.961 . S
C3967 H3982 0.961 . S
C3967 H3983 0.961 . S
C3968 C3969 1.370 . S
C3968 C3970 1.363 . S
C3968 H3984 0.931 . S
C3969 C3968 1.370 . S
C3969 C3973 1.408 . S
C3970 C3968 1.363 . S
C3970 C3971 1.370 . S
C3970 C3974 1.524 . S
C3971 C3963 1.503 . S
C3971 C3970 1.370 . S
C3971 C3972 1.403 . S
C3972 C3971 1.403 . S
C3972 C3973 1.404 . S
C3972 C3975 1.539 . S
C3973 C3969 1.408 . S
C3973 C3972 1.404 . S
C3973 H3985 0.930 . S
C3974 C3970 1.524 . S
C3974 H3986 0.956 . S
C3974 H3987 0.961 . S
C3974 H3988 0.961 . S
C3975 C3972 1.539 . S
C3975 H3989 0.958 . S
C3975 H3990 0.961 . S
C3975 H3991 0.960 . S
H3976 C3960 0.931 . S
H3977 C3965 0.929 . S
H3978 C3966 0.960 . S
H3979 C3966 0.962 . S
H3980 C3966 0.960 . S
H3981 C3967 0.961 . S
H3982 C3967 0.961 . S
H3983 C3967 0.961 . S
H3984 C3968 0.931 . S
H3985 C3973 0.930 . S
H3986 C3974 0.956 . S
H3987 C3974 0.961 . S
H3988 C3974 0.961 . S
H3989 C3975 0.958 . S
H3990 C3975 0.961 . S
H3991 C3975 0.960 . S
C3992 C3993 1.391 . S
C3992 C3994 1.394 . S
C3992 H4008 0.931 . S
C3993 C3992 1.391 . S
C3993 C3997 1.376 . S
C3994 C3992 1.394 . S
C3994 C3995 1.369 . S
C3994 C3998 1.531 . S
C3995 C3994 1.369 . S
C3995 C3996 1.410 . S
C3995 C4003 1.503 . S
C3996 C3995 1.410 . S
C3996 C3997 1.392 . S
C3996 C3999 1.511 . S
C3997 C3993 1.376 . S
C3997 C3996 1.392 . S
C3997 H4009 0.929 . S
C3998 C3994 1.531 . S
C3998 H4010 0.960 . S
C3998 H4011 0.962 . S
C3998 H4012 0.960 . S
C3999 C3996 1.511 . S
C3999 H4013 0.961 . S
C3999 H4014 0.961 . S
C3999 H4015 0.961 . S
C4000 C4001 1.370 . S
C4000 C4002 1.363 . S
C4000 H4016 0.931 . S
C4001 C4000 1.370 . S
C4001 C4005 1.408 . S
C4002 C4000 1.363 . S
C4002 C4003 1.370 . S
C4002 C4006 1.524 . S
C4003 C3995 1.503 . S
C4003 C4002 1.370 . S
C4003 C4004 1.403 . S
C4004 C4003 1.403 . S
C4004 C4005 1.404 . S
C4004 C4007 1.539 . S
C4005 C4001 1.408 . S
C4005 C4004 1.404 . S
C4005 H4017 0.930 . S
C4006 C4002 1.524 . S
C4006 H4018 0.956 . S
C4006 H4019 0.961 . S
C4006 H4020 0.961 . S
C4007 C4004 1.539 . S
C4007 H4021 0.958 . S
C4007 H4022 0.961 . S
C4007 H4023 0.960 . S
H4008 C3992 0.931 . S
H4009 C3997 0.929 . S
H4010 C3998 0.960 . S
H4011 C3998 0.962 . S
H4012 C3998 0.960 . S
H4013 C3999 0.961 . S
H4014 C3999 0.961 . S
H4015 C3999 0.961 . S
H4016 C4000 0.931 . S
H4017 C4005 0.930 . S
H4018 C4006 0.956 . S
H4019 C4006 0.961 . S
H4020 C4006 0.961 . S
H4021 C4007 0.958 . S
H4022 C4007 0.961 . S
H4023 C4007 0.960 . S
C4024 C4025 1.391 . S
C4024 C4026 1.394 . S
C4024 H4040 0.931 . S
C4025 C4024 1.391 . S
C4025 C4029 1.376 . S
C4026 C4024 1.394 . S
C4026 C4027 1.369 . S
C4026 C4030 1.531 . S
C4027 C4026 1.369 . S
C4027 C4028 1.410 . S
C4027 C4035 1.503 . S
C4028 C4027 1.410 . S
C4028 C4029 1.392 . S
C4028 C4031 1.511 . S
C4029 C4025 1.376 . S
C4029 C4028 1.392 . S
C4029 H4041 0.929 . S
C4030 C4026 1.531 . S
C4030 H4042 0.960 . S
C4030 H4043 0.962 1_455 S
C4030 H4044 0.960 1_455 S
C4031 C4028 1.511 . S
C4031 H4045 0.961 . S
C4031 H4046 0.961 . S
C4031 H4047 0.961 . S
C4032 C4033 1.370 . S
C4032 C4034 1.363 . S
C4032 H4048 0.931 . S
C4033 C4032 1.370 . S
C4033 C4037 1.408 . S
C4034 C4032 1.363 . S
C4034 C4035 1.370 . S
C4034 C4038 1.524 . S
C4035 C4027 1.503 . S
C4035 C4034 1.370 . S
C4035 C4036 1.403 . S
C4036 C4035 1.403 . S
C4036 C4037 1.404 . S
C4036 C4039 1.539 . S
C4037 C4033 1.408 . S
C4037 C4036 1.404 . S
C4037 H4049 0.930 . S
C4038 C4034 1.524 . S
C4038 H4050 0.956 . S
C4038 H4051 0.961 . S
C4038 H4052 0.961 . S
C4039 C4036 1.539 . S
C4039 H4053 0.958 . S
C4039 H4054 0.961 . S
C4039 H4055 0.960 . S
H4040 C4024 0.931 . S
H4041 C4029 0.929 . S
H4042 C4030 0.960 . S
H4043 C4030 0.962 1_655 S
H4044 C4030 0.960 1_655 S
H4045 C4031 0.961 . S
H4046 C4031 0.961 . S
H4047 C4031 0.961 . S
H4048 C4032 0.931 . S
H4049 C4037 0.930 . S
H4050 C4038 0.956 . S
H4051 C4038 0.961 . S
H4052 C4038 0.961 . S
H4053 C4039 0.958 . S
H4054 C4039 0.961 . S
H4055 C4039 0.960 . S
C4056 C4057 1.391 . S
C4056 C4058 1.394 . S
C4056 H4072 0.931 . S
C4057 C4056 1.391 . S
C4057 C4061 1.376 . S
C4058 C4056 1.394 . S
C4058 C4059 1.369 . S
C4058 C4062 1.531 . S
C4059 C4058 1.369 . S
C4059 C4060 1.410 . S
C4059 C4067 1.503 . S
C4060 C4059 1.410 . S
C4060 C4061 1.392 . S
C4060 C4063 1.511 . S
C4061 C4057 1.376 . S
C4061 C4060 1.392 . S
C4061 H4073 0.929 . S
C4062 C4058 1.531 . S
C4062 H4074 0.960 . S
C4062 H4075 0.962 . S
C4062 H4076 0.960 . S
C4063 C4060 1.511 . S
C4063 H4077 0.961 . S
C4063 H4078 0.961 . S
C4063 H4079 0.961 . S
C4064 C4065 1.370 . S
C4064 C4066 1.363 . S
C4064 H4080 0.931 . S
C4065 C4064 1.370 . S
C4065 C4069 1.408 . S
C4066 C4064 1.363 . S
C4066 C4067 1.370 . S
C4066 C4070 1.524 . S
C4067 C4059 1.503 . S
C4067 C4066 1.370 . S
C4067 C4068 1.403 . S
C4068 C4067 1.403 . S
C4068 C4069 1.404 . S
C4068 C4071 1.539 . S
C4069 C4065 1.408 . S
C4069 C4068 1.404 . S
C4069 H4081 0.930 . S
C4070 C4066 1.524 . S
C4070 H4082 0.956 . S
C4070 H4083 0.961 . S
C4070 H4084 0.961 . S
C4071 C4068 1.539 . S
C4071 H4085 0.958 . S
C4071 H4086 0.961 . S
C4071 H4087 0.960 . S
H4072 C4056 0.931 . S
H4073 C4061 0.929 . S
H4074 C4062 0.960 . S
H4075 C4062 0.962 . S
H4076 C4062 0.960 . S
H4077 C4063 0.961 . S
H4078 C4063 0.961 . S
H4079 C4063 0.961 . S
H4080 C4064 0.931 . S
H4081 C4069 0.930 . S
H4082 C4070 0.956 . S
H4083 C4070 0.961 . S
H4084 C4070 0.961 . S
H4085 C4071 0.958 . S
H4086 C4071 0.961 . S
H4087 C4071 0.960 . S
C4088 C4089 1.391 . S
C4088 C4090 1.394 . S
C4088 H4104 0.931 . S
C4089 C4088 1.391 . S
C4089 C4093 1.376 . S
C4090 C4088 1.394 . S
C4090 C4091 1.369 . S
C4090 C4094 1.531 . S
C4091 C4090 1.369 . S
C4091 C4092 1.410 . S
C4091 C4099 1.503 . S
C4092 C4091 1.410 . S
C4092 C4093 1.392 . S
C4092 C4095 1.511 . S
C4093 C4089 1.376 . S
C4093 C4092 1.392 . S
C4093 H4105 0.929 . S
C4094 C4090 1.531 . S
C4094 H4106 0.960 . S
C4094 H4107 0.962 . S
C4094 H4108 0.960 . S
C4095 C4092 1.511 . S
C4095 H4109 0.961 . S
C4095 H4110 0.961 . S
C4095 H4111 0.961 . S
C4096 C4097 1.370 . S
C4096 C4098 1.363 . S
C4096 H4112 0.931 . S
C4097 C4096 1.370 . S
C4097 C4101 1.408 . S
C4098 C4096 1.363 . S
C4098 C4099 1.370 . S
C4098 C4102 1.524 . S
C4099 C4091 1.503 . S
C4099 C4098 1.370 . S
C4099 C4100 1.403 . S
C4100 C4099 1.403 . S
C4100 C4101 1.404 . S
C4100 C4103 1.539 . S
C4101 C4097 1.408 . S
C4101 C4100 1.404 . S
C4101 H4113 0.930 . S
C4102 C4098 1.524 . S
C4102 H4114 0.956 . S
C4102 H4115 0.961 . S
C4102 H4116 0.961 . S
C4103 C4100 1.539 . S
C4103 H4117 0.958 . S
C4103 H4118 0.961 . S
C4103 H4119 0.960 . S
H4104 C4088 0.931 . S
H4105 C4093 0.929 . S
H4106 C4094 0.960 . S
H4107 C4094 0.962 . S
H4108 C4094 0.960 . S
H4109 C4095 0.961 . S
H4110 C4095 0.961 . S
H4111 C4095 0.961 . S
H4112 C4096 0.931 . S
H4113 C4101 0.930 . S
H4114 C4102 0.956 . S
H4115 C4102 0.961 . S
H4116 C4102 0.961 . S
H4117 C4103 0.958 . S
H4118 C4103 0.961 . S
H4119 C4103 0.960 . S
C4120 C4121 1.391 . S
C4120 C4122 1.394 . S
C4120 H4136 0.931 . S
C4121 C4120 1.391 . S
C4121 C4125 1.376 . S
C4122 C4120 1.394 . S
C4122 C4123 1.369 . S
C4122 C4126 1.531 . S
C4123 C4122 1.369 . S
C4123 C4124 1.410 . S
C4123 C4131 1.503 . S
C4124 C4123 1.410 . S
C4124 C4125 1.392 . S
C4124 C4127 1.511 . S
C4125 C4121 1.376 . S
C4125 C4124 1.392 . S
C4125 H4137 0.929 . S
C4126 C4122 1.531 . S
C4126 H4138 0.960 . S
C4126 H4139 0.962 . S
C4126 H4140 0.960 . S
C4127 C4124 1.511 . S
C4127 H4141 0.961 . S
C4127 H4142 0.961 . S
C4127 H4143 0.961 . S
C4128 C4129 1.370 . S
C4128 C4130 1.363 . S
C4128 H4144 0.931 . S
C4129 C4128 1.370 . S
C4129 C4133 1.408 . S
C4130 C4128 1.363 . S
C4130 C4131 1.370 . S
C4130 C4134 1.524 . S
C4131 C4123 1.503 . S
C4131 C4130 1.370 . S
C4131 C4132 1.403 . S
C4132 C4131 1.403 . S
C4132 C4133 1.404 . S
C4132 C4135 1.539 . S
C4133 C4129 1.408 . S
C4133 C4132 1.404 . S
C4133 H4145 0.930 . S
C4134 C4130 1.524 . S
C4134 H4146 0.956 . S
C4134 H4147 0.961 . S
C4134 H4148 0.961 . S
C4135 C4132 1.539 . S
C4135 H4149 0.958 . S
C4135 H4150 0.961 . S
C4135 H4151 0.960 . S
H4136 C4120 0.931 . S
H4137 C4125 0.929 . S
H4138 C4126 0.960 . S
H4139 C4126 0.962 . S
H4140 C4126 0.960 . S
H4141 C4127 0.961 . S
H4142 C4127 0.961 . S
H4143 C4127 0.961 . S
H4144 C4128 0.931 . S
H4145 C4133 0.930 . S
H4146 C4134 0.956 . S
H4147 C4134 0.961 . S
H4148 C4134 0.961 . S
H4149 C4135 0.958 . S
H4150 C4135 0.961 . S
H4151 C4135 0.960 . S
C4152 C4153 1.391 . S
C4152 C4154 1.394 . S
C4152 H4168 0.931 . S
C4153 C4152 1.391 . S
C4153 C4157 1.376 . S
C4154 C4152 1.394 . S
C4154 C4155 1.369 . S
C4154 C4158 1.531 . S
C4155 C4154 1.369 . S
C4155 C4156 1.410 . S
C4155 C4163 1.503 . S
C4156 C4155 1.410 . S
C4156 C4157 1.392 . S
C4156 C4159 1.511 . S
C4157 C4153 1.376 . S
C4157 C4156 1.392 . S
C4157 H4169 0.929 . S
C4158 C4154 1.531 . S
C4158 H4170 0.960 . S
C4158 H4171 0.962 1_455 S
C4158 H4172 0.960 . S
C4159 C4156 1.511 . S
C4159 H4173 0.961 . S
C4159 H4174 0.961 . S
C4159 H4175 0.961 . S
C4160 C4161 1.370 . S
C4160 C4162 1.363 . S
C4160 H4176 0.931 . S
C4161 C4160 1.370 . S
C4161 C4165 1.408 . S
C4162 C4160 1.363 . S
C4162 C4163 1.370 . S
C4162 C4166 1.524 . S
C4163 C4155 1.503 . S
C4163 C4162 1.370 . S
C4163 C4164 1.403 . S
C4164 C4163 1.403 . S
C4164 C4165 1.404 . S
C4164 C4167 1.539 . S
C4165 C4161 1.408 . S
C4165 C4164 1.404 . S
C4165 H4177 0.930 . S
C4166 C4162 1.524 . S
C4166 H4178 0.956 1_455 S
C4166 H4179 0.961 . S
C4166 H4180 0.973 . S
C4167 C4164 1.539 . S
C4167 H4181 0.958 . S
C4167 H4182 0.961 . S
C4167 H4183 0.960 . S
H4168 C4152 0.931 . S
H4169 C4157 0.929 . S
H4170 C4158 0.960 . S
H4171 C4158 0.962 1_655 S
H4172 C4158 0.960 . S
H4173 C4159 0.961 . S
H4174 C4159 0.961 . S
H4175 C4159 0.961 . S
H4176 C4160 0.931 . S
H4177 C4165 0.930 . S
H4178 C4166 0.956 1_655 S
H4179 C4166 0.961 . S
H4180 C4166 0.973 . S
H4181 C4167 0.958 . S
H4182 C4167 0.961 . S
H4183 C4167 0.960 . S
C4184 C4185 1.391 . S
C4184 C4186 1.394 . S
C4184 H4200 0.931 . S
C4185 C4184 1.391 . S
C4185 C4189 1.376 . S
C4186 C4184 1.394 . S
C4186 C4187 1.369 . S
C4186 C4190 1.531 . S
C4187 C4186 1.369 . S
C4187 C4188 1.410 . S
C4187 C4195 1.503 . S
C4188 C4187 1.410 . S
C4188 C4189 1.392 . S
C4188 C4191 1.511 . S
C4189 C4185 1.376 . S
C4189 C4188 1.392 . S
C4189 H4201 0.929 . S
C4190 C4186 1.531 . S
C4190 H4202 0.960 . S
C4190 H4203 0.962 . S
C4190 H4204 0.960 . S
C4191 C4188 1.511 . S
C4191 H4205 0.961 . S
C4191 H4206 0.961 . S
C4191 H4207 0.961 . S
C4192 C4193 1.370 . S
C4192 C4194 1.363 . S
C4192 H4208 0.931 . S
C4193 C4192 1.370 . S
C4193 C4197 1.408 . S
C4194 C4192 1.363 . S
C4194 C4195 1.370 . S
C4194 C4198 1.524 . S
C4195 C4187 1.503 . S
C4195 C4194 1.370 . S
C4195 C4196 1.403 . S
C4196 C4195 1.403 . S
C4196 C4197 1.404 . S
C4196 C4199 1.539 . S
C4197 C4193 1.408 . S
C4197 C4196 1.404 . S
C4197 H4209 0.930 . S
C4198 C4194 1.524 . S
C4198 H4210 0.956 . S
C4198 H4211 0.961 . S
C4198 H4212 0.961 . S
C4199 C4196 1.539 . S
C4199 H4213 0.958 . S
C4199 H4214 0.961 . S
C4199 H4215 0.960 . S
H4200 C4184 0.931 . S
H4201 C4189 0.929 . S
H4202 C4190 0.960 . S
H4203 C4190 0.962 . S
H4204 C4190 0.960 . S
H4205 C4191 0.961 . S
H4206 C4191 0.961 . S
H4207 C4191 0.961 . S
H4208 C4192 0.931 . S
H4209 C4197 0.930 . S
H4210 C4198 0.956 . S
H4211 C4198 0.961 . S
H4212 C4198 0.961 . S
H4213 C4199 0.958 . S
H4214 C4199 0.961 . S
H4215 C4199 0.960 . S
C4216 C4217 1.391 . S
C4216 C4218 1.394 . S
C4216 H4232 0.931 . S
C4217 C4216 1.391 . S
C4217 C4221 1.376 . S
C4218 C4216 1.394 . S
C4218 C4219 1.369 . S
C4218 C4222 1.531 . S
C4219 C4218 1.369 . S
C4219 C4220 1.410 . S
C4219 C4227 1.503 . S
C4220 C4219 1.410 . S
C4220 C4221 1.392 . S
C4220 C4223 1.511 . S
C4221 C4217 1.376 . S
C4221 C4220 1.392 . S
C4221 H4233 0.929 . S
C4222 C4218 1.531 . S
C4222 H4234 0.960 . S
C4222 H4235 0.962 . S
C4222 H4236 0.960 . S
C4223 C4220 1.511 . S
C4223 H4237 0.961 . S
C4223 H4238 0.961 . S
C4223 H4239 0.961 . S
C4224 C4225 1.370 . S
C4224 C4226 1.363 . S
C4224 H4240 0.931 . S
C4225 C4224 1.370 . S
C4225 C4229 1.408 . S
C4226 C4224 1.363 . S
C4226 C4227 1.370 . S
C4226 C4230 1.524 . S
C4227 C4219 1.503 . S
C4227 C4226 1.370 . S
C4227 C4228 1.403 . S
C4228 C4227 1.403 . S
C4228 C4229 1.404 . S
C4228 C4231 1.539 . S
C4229 C4225 1.408 . S
C4229 C4228 1.404 . S
C4229 H4241 0.930 . S
C4230 C4226 1.524 . S
C4230 H4242 0.956 . S
C4230 H4243 0.961 . S
C4230 H4244 0.961 . S
C4231 C4228 1.539 . S
C4231 H4245 0.958 . S
C4231 H4246 0.961 . S
C4231 H4247 0.960 . S
H4232 C4216 0.931 . S
H4233 C4221 0.929 . S
H4234 C4222 0.960 . S
H4235 C4222 0.962 . S
H4236 C4222 0.960 . S
H4237 C4223 0.961 . S
H4238 C4223 0.961 . S
H4239 C4223 0.961 . S
H4240 C4224 0.931 . S
H4241 C4229 0.930 . S
H4242 C4230 0.956 . S
H4243 C4230 0.961 . S
H4244 C4230 0.961 . S
H4245 C4231 0.958 . S
H4246 C4231 0.961 . S
H4247 C4231 0.960 . S
C4248 C4249 1.391 . S
C4248 C4250 1.394 . S
C4248 H4264 0.931 . S
C4249 C4248 1.391 . S
C4249 C4253 1.376 . S
C4250 C4248 1.394 . S
C4250 C4251 1.369 . S
C4250 C4254 1.531 . S
C4251 C4250 1.369 . S
C4251 C4252 1.410 . S
C4251 C4259 1.503 . S
C4252 C4251 1.410 . S
C4252 C4253 1.392 . S
C4252 C4255 1.511 . S
C4253 C4249 1.376 . S
C4253 C4252 1.392 . S
C4253 H4265 0.929 . S
C4254 C4250 1.531 . S
C4254 H4266 0.960 . S
C4254 H4267 0.962 . S
C4254 H4268 0.960 . S
C4255 C4252 1.511 . S
C4255 H4269 0.961 . S
C4255 H4270 0.961 . S
C4255 H4271 0.961 . S
C4256 C4257 1.370 . S
C4256 C4258 1.363 . S
C4256 H4272 0.931 . S
C4257 C4256 1.370 . S
C4257 C4261 1.408 . S
C4258 C4256 1.363 . S
C4258 C4259 1.370 . S
C4258 C4262 1.524 . S
C4259 C4251 1.503 . S
C4259 C4258 1.370 . S
C4259 C4260 1.403 . S
C4260 C4259 1.403 . S
C4260 C4261 1.404 . S
C4260 C4263 1.539 . S
C4261 C4257 1.408 . S
C4261 C4260 1.404 . S
C4261 H4273 0.930 . S
C4262 C4258 1.524 . S
C4262 H4274 0.956 . S
C4262 H4275 0.961 . S
C4262 H4276 0.961 . S
C4263 C4260 1.539 . S
C4263 H4277 0.958 . S
C4263 H4278 0.961 . S
C4263 H4279 0.960 . S
H4264 C4248 0.931 . S
H4265 C4253 0.929 . S
H4266 C4254 0.960 . S
H4267 C4254 0.962 . S
H4268 C4254 0.960 . S
H4269 C4255 0.961 . S
H4270 C4255 0.961 . S
H4271 C4255 0.961 . S
H4272 C4256 0.931 . S
H4273 C4261 0.930 . S
H4274 C4262 0.956 . S
H4275 C4262 0.961 . S
H4276 C4262 0.961 . S
H4277 C4263 0.958 . S
H4278 C4263 0.961 . S
H4279 C4263 0.960 . S
C4280 C4281 1.391 . S
C4280 C4282 1.394 . S
C4280 H4296 0.931 . S
C4281 C4280 1.391 . S
C4281 C4285 1.376 . S
C4282 C4280 1.394 . S
C4282 C4283 1.369 . S
C4282 C4286 1.531 . S
C4283 C4282 1.369 . S
C4283 C4284 1.410 . S
C4283 C4291 1.503 . S
C4284 C4283 1.410 . S
C4284 C4285 1.392 . S
C4284 C4287 1.511 . S
C4285 C4281 1.376 . S
C4285 C4284 1.392 . S
C4285 H4297 0.929 . S
C4286 C4282 1.531 . S
C4286 H4298 0.960 . S
C4286 H4299 0.962 . S
C4286 H4300 0.960 . S
C4287 C4284 1.511 . S
C4287 H4301 0.961 . S
C4287 H4302 0.961 . S
C4287 H4303 0.961 . S
C4288 C4289 1.370 . S
C4288 C4290 1.363 . S
C4288 H4304 0.931 . S
C4289 C4288 1.370 . S
C4289 C4293 1.408 . S
C4290 C4288 1.363 . S
C4290 C4291 1.370 . S
C4290 C4294 1.524 . S
C4291 C4283 1.503 . S
C4291 C4290 1.370 . S
C4291 C4292 1.403 . S
C4292 C4291 1.403 . S
C4292 C4293 1.404 . S
C4292 C4295 1.539 . S
C4293 C4289 1.408 . S
C4293 C4292 1.404 . S
C4293 H4305 0.930 1_655 S
C4294 C4290 1.524 . S
C4294 H4306 0.956 . S
C4294 H4307 0.961 . S
C4294 H4308 0.961 . S
C4295 C4292 1.539 . S
C4295 H4309 0.958 . S
C4295 H4310 0.961 . S
C4295 H4311 0.960 . S
H4296 C4280 0.931 . S
H4297 C4285 0.929 . S
H4298 C4286 0.960 . S
H4299 C4286 0.962 . S
H4300 C4286 0.960 . S
H4301 C4287 0.961 . S
H4302 C4287 0.961 . S
H4303 C4287 0.961 . S
H4304 C4288 0.931 . S
H4305 C4293 0.930 1_455 S
H4306 C4294 0.956 . S
H4307 C4294 0.961 . S
H4308 C4294 0.961 . S
H4309 C4295 0.958 . S
H4310 C4295 0.961 . S
H4311 C4295 0.960 . S
C4312 C4313 1.391 . S
C4312 C4314 1.394 . S
C4312 H4328 0.931 . S
C4313 C4312 1.391 . S
C4313 C4317 1.376 . S
C4314 C4312 1.394 . S
C4314 C4315 1.369 . S
C4314 C4318 1.531 . S
C4315 C4314 1.369 . S
C4315 C4316 1.410 . S
C4315 C4323 1.503 . S
C4316 C4315 1.410 . S
C4316 C4317 1.392 . S
C4316 C4319 1.511 . S
C4317 C4313 1.376 . S
C4317 C4316 1.392 . S
C4317 H4329 0.929 . S
C4318 C4314 1.531 . S
C4318 H4330 0.960 . S
C4318 H4331 0.962 . S
C4318 H4332 0.960 . S
C4319 C4316 1.511 . S
C4319 H4333 0.961 . S
C4319 H4334 0.961 . S
C4319 H4335 0.961 . S
C4320 C4321 1.370 . S
C4320 C4322 1.363 . S
C4320 H4336 0.931 . S
C4321 C4320 1.370 . S
C4321 C4325 1.408 . S
C4322 C4320 1.363 . S
C4322 C4323 1.370 . S
C4322 C4326 1.524 . S
C4323 C4315 1.503 . S
C4323 C4322 1.370 . S
C4323 C4324 1.403 . S
C4324 C4323 1.403 . S
C4324 C4325 1.404 . S
C4324 C4327 1.539 . S
C4325 C4321 1.408 . S
C4325 C4324 1.404 . S
C4325 H4337 0.930 . S
C4326 C4322 1.524 . S
C4326 H4338 0.956 . S
C4326 H4339 0.961 . S
C4326 H4340 0.961 . S
C4327 C4324 1.539 . S
C4327 H4341 0.958 . S
C4327 H4342 0.961 . S
C4327 H4343 0.960 . S
H4328 C4312 0.931 . S
H4329 C4317 0.929 . S
H4330 C4318 0.960 . S
H4331 C4318 0.962 . S
H4332 C4318 0.960 . S
H4333 C4319 0.961 . S
H4334 C4319 0.961 . S
H4335 C4319 0.961 . S
H4336 C4320 0.931 . S
H4337 C4325 0.930 . S
H4338 C4326 0.956 . S
H4339 C4326 0.961 . S
H4340 C4326 0.961 . S
H4341 C4327 0.958 . S
H4342 C4327 0.961 . S
H4343 C4327 0.960 . S
C4344 C4345 1.391 . S
C4344 C4346 1.394 . S
C4344 H4360 0.931 . S
C4345 C4344 1.391 . S
C4345 C4349 1.376 . S
C4346 C4344 1.394 . S
C4346 C4347 1.369 . S
C4346 C4350 1.531 . S
C4347 C4346 1.369 . S
C4347 C4348 1.410 . S
C4347 C4355 1.503 . S
C4348 C4347 1.410 . S
C4348 C4349 1.392 . S
C4348 C4351 1.511 . S
C4349 C4345 1.376 . S
C4349 C4348 1.392 . S
C4349 H4361 0.929 . S
C4350 C4346 1.531 . S
C4350 H4362 0.960 . S
C4350 H4363 0.962 . S
C4350 H4364 0.960 . S
C4351 C4348 1.511 . S
C4351 H4365 0.961 . S
C4351 H4366 0.961 . S
C4351 H4367 0.961 . S
C4352 C4353 1.370 . S
C4352 C4354 1.363 . S
C4352 H4368 0.931 . S
C4353 C4352 1.370 . S
C4353 C4357 1.408 . S
C4354 C4352 1.363 . S
C4354 C4355 1.370 . S
C4354 C4358 1.524 . S
C4355 C4347 1.503 . S
C4355 C4354 1.370 . S
C4355 C4356 1.403 . S
C4356 C4355 1.403 . S
C4356 C4357 1.404 . S
C4356 C4359 1.539 . S
C4357 C4353 1.408 . S
C4357 C4356 1.404 . S
C4357 H4369 0.930 . S
C4358 C4354 1.524 . S
C4358 H4370 0.956 . S
C4358 H4371 0.961 . S
C4358 H4372 0.961 . S
C4359 C4356 1.539 . S
C4359 H4373 0.958 . S
C4359 H4374 0.961 . S
C4359 H4375 0.960 . S
H4360 C4344 0.931 . S
H4361 C4349 0.929 . S
H4362 C4350 0.960 . S
H4363 C4350 0.962 . S
H4364 C4350 0.960 . S
H4365 C4351 0.961 . S
H4366 C4351 0.961 . S
H4367 C4351 0.961 . S
H4368 C4352 0.931 . S
H4369 C4357 0.930 . S
H4370 C4358 0.956 . S
H4371 C4358 0.961 . S
H4372 C4358 0.961 . S
H4373 C4359 0.958 . S
H4374 C4359 0.961 . S
H4375 C4359 0.960 . S
C4376 C4377 1.391 . S
C4376 C4378 1.394 . S
C4376 H4392 0.931 . S
C4377 C4376 1.391 . S
C4377 C4381 1.376 . S
C4378 C4376 1.394 . S
C4378 C4379 1.369 . S
C4378 C4382 1.531 . S
C4379 C4378 1.369 . S
C4379 C4380 1.410 . S
C4379 C4387 1.503 . S
C4380 C4379 1.410 . S
C4380 C4381 1.392 . S
C4380 C4383 1.511 . S
C4381 C4377 1.376 . S
C4381 C4380 1.392 . S
C4381 H4393 0.929 . S
C4382 C4378 1.531 . S
C4382 H4394 0.960 . S
C4382 H4395 0.962 . S
C4382 H4396 0.960 . S
C4383 C4380 1.511 . S
C4383 H4397 0.961 . S
C4383 H4398 0.961 . S
C4383 H4399 0.961 . S
C4384 C4385 1.370 . S
C4384 C4386 1.363 . S
C4384 H4400 0.931 . S
C4385 C4384 1.370 . S
C4385 C4389 1.408 . S
C4386 C4384 1.363 . S
C4386 C4387 1.370 . S
C4386 C4390 1.524 . S
C4387 C4379 1.503 . S
C4387 C4386 1.370 . S
C4387 C4388 1.403 . S
C4388 C4387 1.403 . S
C4388 C4389 1.404 . S
C4388 C4391 1.539 . S
C4389 C4385 1.408 . S
C4389 C4388 1.404 . S
C4389 H4401 0.930 . S
C4390 C4386 1.524 . S
C4390 H4402 0.956 . S
C4390 H4403 0.961 . S
C4390 H4404 0.961 . S
C4391 C4388 1.539 . S
C4391 H4405 0.958 . S
C4391 H4406 0.961 . S
C4391 H4407 0.960 . S
H4392 C4376 0.931 . S
H4393 C4381 0.929 . S
H4394 C4382 0.960 . S
H4395 C4382 0.962 . S
H4396 C4382 0.960 . S
H4397 C4383 0.961 . S
H4398 C4383 0.961 . S
H4399 C4383 0.961 . S
H4400 C4384 0.931 . S
H4401 C4389 0.930 . S
H4402 C4390 0.956 . S
H4403 C4390 0.961 . S
H4404 C4390 0.961 . S
H4405 C4391 0.958 . S
H4406 C4391 0.961 . S
H4407 C4391 0.960 . S
C4408 C4409 1.391 . S
C4408 C4410 1.394 . S
C4408 H4424 0.931 . S
C4409 C4408 1.391 . S
C4409 C4413 1.376 . S
C4410 C4408 1.394 . S
C4410 C4411 1.369 . S
C4410 C4414 1.531 . S
C4411 C4410 1.369 . S
C4411 C4412 1.410 . S
C4411 C4419 1.503 . S
C4412 C4411 1.410 . S
C4412 C4413 1.392 . S
C4412 C4415 1.511 . S
C4413 C4409 1.376 . S
C4413 C4412 1.392 . S
C4413 H4425 0.929 . S
C4414 C4410 1.531 . S
C4414 H4426 0.960 . S
C4414 H4427 0.962 . S
C4414 H4428 0.960 . S
C4415 C4412 1.511 . S
C4415 H4429 0.961 . S
C4415 H4430 0.961 . S
C4415 H4431 0.961 . S
C4416 C4417 1.370 . S
C4416 C4418 1.363 . S
C4416 H4432 0.931 . S
C4417 C4416 1.370 . S
C4417 C4421 1.408 . S
C4418 C4416 1.363 . S
C4418 C4419 1.370 . S
C4418 C4422 1.524 . S
C4419 C4411 1.503 . S
C4419 C4418 1.370 . S
C4419 C4420 1.403 . S
C4420 C4419 1.403 . S
C4420 C4421 1.404 . S
C4420 C4423 1.539 . S
C4421 C4417 1.408 . S
C4421 C4420 1.404 . S
C4421 H4433 0.930 . S
C4422 C4418 1.524 . S
C4422 H4434 0.956 . S
C4422 H4435 0.961 . S
C4422 H4436 0.961 . S
C4423 C4420 1.539 . S
C4423 H4437 0.958 . S
C4423 H4438 0.961 . S
C4423 H4439 0.960 . S
H4424 C4408 0.931 . S
H4425 C4413 0.929 . S
H4426 C4414 0.960 . S
H4427 C4414 0.962 . S
H4428 C4414 0.960 . S
H4429 C4415 0.961 . S
H4430 C4415 0.961 . S
H4431 C4415 0.961 . S
H4432 C4416 0.931 . S
H4433 C4421 0.930 . S
H4434 C4422 0.956 . S
H4435 C4422 0.961 . S
H4436 C4422 0.961 . S
H4437 C4423 0.958 . S
H4438 C4423 0.961 . S
H4439 C4423 0.960 . S
C4440 C4441 1.391 . S
C4440 C4442 1.394 . S
C4440 H4456 0.931 . S
C4441 C4440 1.391 . S
C4441 C4445 1.376 . S
C4442 C4440 1.394 . S
C4442 C4443 1.369 . S
C4442 C4446 1.531 . S
C4443 C4442 1.369 . S
C4443 C4444 1.410 . S
C4443 C4451 1.503 . S
C4444 C4443 1.410 . S
C4444 C4445 1.392 . S
C4444 C4447 1.511 . S
C4445 C4441 1.376 . S
C4445 C4444 1.392 . S
C4445 H4457 0.929 . S
C4446 C4442 1.531 . S
C4446 H4458 0.960 . S
C4446 H4459 0.962 . S
C4446 H4460 0.960 . S
C4447 C4444 1.511 . S
C4447 H4461 0.961 . S
C4447 H4462 0.961 . S
C4447 H4463 0.961 . S
C4448 C4449 1.370 . S
C4448 C4450 1.363 . S
C4448 H4464 0.931 . S
C4449 C4448 1.370 . S
C4449 C4453 1.408 . S
C4450 C4448 1.363 . S
C4450 C4451 1.370 . S
C4450 C4454 1.524 . S
C4451 C4443 1.503 . S
C4451 C4450 1.370 . S
C4451 C4452 1.403 . S
C4452 C4451 1.403 . S
C4452 C4453 1.404 . S
C4452 C4455 1.539 . S
C4453 C4449 1.408 . S
C4453 C4452 1.404 . S
C4453 H4465 0.930 . S
C4454 C4450 1.524 . S
C4454 H4466 0.956 . S
C4454 H4467 0.961 . S
C4454 H4468 0.961 . S
C4455 C4452 1.539 . S
C4455 H4469 0.958 . S
C4455 H4470 0.961 . S
C4455 H4471 0.960 . S
H4456 C4440 0.931 . S
H4457 C4445 0.929 . S
H4458 C4446 0.960 . S
H4459 C4446 0.962 . S
H4460 C4446 0.960 . S
H4461 C4447 0.961 . S
H4462 C4447 0.961 . S
H4463 C4447 0.961 . S
H4464 C4448 0.931 . S
H4465 C4453 0.930 . S
H4466 C4454 0.956 . S
H4467 C4454 0.961 . S
H4468 C4454 0.961 . S
H4469 C4455 0.958 . S
H4470 C4455 0.961 . S
H4471 C4455 0.960 . S
C4472 C4473 1.391 . S
C4472 C4474 1.394 . S
C4472 H4488 0.931 . S
C4473 C4472 1.391 . S
C4473 C4477 1.376 . S
C4474 C4472 1.394 . S
C4474 C4475 1.369 . S
C4474 C4478 1.531 . S
C4475 C4474 1.369 . S
C4475 C4476 1.410 . S
C4475 C4483 1.503 . S
C4476 C4475 1.410 . S
C4476 C4477 1.392 . S
C4476 C4479 1.511 . S
C4477 C4473 1.376 . S
C4477 C4476 1.392 . S
C4477 H4489 0.929 . S
C4478 C4474 1.531 . S
C4478 H4490 0.960 . S
C4478 H4491 0.962 . S
C4478 H4492 0.960 . S
C4479 C4476 1.511 . S
C4479 H4493 0.961 . S
C4479 H4494 0.961 . S
C4479 H4495 0.961 . S
C4480 C4481 1.370 . S
C4480 C4482 1.363 . S
C4480 H4496 0.931 . S
C4481 C4480 1.370 . S
C4481 C4485 1.408 . S
C4482 C4480 1.363 . S
C4482 C4483 1.370 . S
C4482 C4486 1.524 . S
C4483 C4475 1.503 . S
C4483 C4482 1.370 . S
C4483 C4484 1.403 . S
C4484 C4483 1.403 . S
C4484 C4485 1.404 . S
C4484 C4487 1.539 . S
C4485 C4481 1.408 . S
C4485 C4484 1.404 . S
C4485 H4497 0.930 . S
C4486 C4482 1.524 . S
C4486 H4498 0.956 . S
C4486 H4499 0.961 . S
C4486 H4500 0.961 . S
C4487 C4484 1.539 . S
C4487 H4501 0.958 . S
C4487 H4502 0.961 . S
C4487 H4503 0.960 . S
H4488 C4472 0.931 . S
H4489 C4477 0.929 . S
H4490 C4478 0.960 . S
H4491 C4478 0.962 . S
H4492 C4478 0.960 . S
H4493 C4479 0.961 . S
H4494 C4479 0.961 . S
H4495 C4479 0.961 . S
H4496 C4480 0.931 . S
H4497 C4485 0.930 . S
H4498 C4486 0.956 . S
H4499 C4486 0.961 . S
H4500 C4486 0.961 . S
H4501 C4487 0.958 . S
H4502 C4487 0.961 . S
H4503 C4487 0.960 . S
C4504 C4505 1.391 . S
C4504 C4506 1.394 . S
C4504 H4520 0.931 . S
C4505 C4504 1.391 . S
C4505 C4509 1.376 . S
C4506 C4504 1.394 . S
C4506 C4507 1.369 . S
C4506 C4510 1.531 . S
C4507 C4506 1.369 . S
C4507 C4508 1.410 . S
C4507 C4515 1.503 . S
C4508 C4507 1.410 . S
C4508 C4509 1.392 . S
C4508 C4511 1.511 . S
C4509 C4505 1.376 . S
C4509 C4508 1.392 . S
C4509 H4521 0.929 . S
C4510 C4506 1.531 . S
C4510 H4522 0.960 . S
C4510 H4523 0.962 . S
C4510 H4524 0.960 . S
C4511 C4508 1.511 . S
C4511 H4525 0.961 . S
C4511 H4526 0.961 . S
C4511 H4527 0.961 . S
C4512 C4513 1.370 . S
C4512 C4514 1.363 . S
C4512 H4528 0.893 1_565 S
C4513 C4512 1.370 . S
C4513 C4517 1.408 . S
C4514 C4512 1.363 . S
C4514 C4515 1.370 . S
C4514 C4518 1.524 . S
C4515 C4507 1.503 . S
C4515 C4514 1.370 . S
C4515 C4516 1.403 . S
C4516 C4515 1.403 . S
C4516 C4517 1.404 . S
C4516 C4519 1.539 . S
C4517 C4513 1.408 . S
C4517 C4516 1.404 . S
C4517 H4529 0.930 . S
C4518 C4514 1.524 . S
C4518 H4530 0.956 . S
C4518 H4531 0.961 . S
C4518 H4532 0.961 . S
C4519 C4516 1.539 . S
C4519 H4533 0.958 . S
C4519 H4534 0.961 . S
C4519 H4535 0.960 . S
H4520 C4504 0.931 . S
H4521 C4509 0.929 . S
H4522 C4510 0.960 . S
H4523 C4510 0.962 . S
H4524 C4510 0.960 . S
H4525 C4511 0.961 . S
H4526 C4511 0.961 . S
H4527 C4511 0.961 . S
H4528 C4512 0.893 1_545 S
H4529 C4517 0.930 . S
H4530 C4518 0.956 . S
H4531 C4518 0.961 . S
H4532 C4518 0.961 . S
H4533 C4519 0.958 . S
H4534 C4519 0.961 . S
H4535 C4519 0.960 . S
C4536 C4537 1.391 . S
C4536 C4538 1.394 . S
C4536 H4552 0.931 . S
C4537 C4536 1.391 . S
C4537 C4541 1.376 . S
C4538 C4536 1.394 . S
C4538 C4539 1.369 . S
C4538 C4542 1.531 . S
C4539 C4538 1.369 . S
C4539 C4540 1.410 . S
C4539 C4547 1.503 . S
C4540 C4539 1.410 . S
C4540 C4541 1.392 . S
C4540 C4543 1.511 . S
C4541 C4537 1.376 . S
C4541 C4540 1.392 . S
C4541 H4553 0.929 . S
C4542 C4538 1.531 . S
C4542 H4554 0.960 . S
C4542 H4555 0.962 . S
C4542 H4556 0.960 . S
C4543 C4540 1.511 . S
C4543 H4557 0.961 . S
C4543 H4558 0.961 . S
C4543 H4559 0.961 . S
C4544 C4545 1.370 . S
C4544 C4546 1.363 . S
C4544 H4560 0.931 . S
C4545 C4544 1.370 . S
C4545 C4549 1.408 . S
C4546 C4544 1.363 . S
C4546 C4547 1.370 . S
C4546 C4550 1.524 . S
C4547 C4539 1.503 . S
C4547 C4546 1.370 . S
C4547 C4548 1.403 . S
C4548 C4547 1.403 . S
C4548 C4549 1.404 . S
C4548 C4551 1.539 . S
C4549 C4545 1.408 . S
C4549 C4548 1.404 . S
C4549 H4561 0.930 . S
C4550 C4546 1.524 . S
C4550 H4562 0.956 . S
C4550 H4563 0.961 . S
C4550 H4564 0.961 . S
C4551 C4548 1.539 . S
C4551 H4565 0.958 . S
C4551 H4566 0.961 . S
C4551 H4567 0.960 . S
H4552 C4536 0.931 . S
H4553 C4541 0.929 . S
H4554 C4542 0.960 . S
H4555 C4542 0.962 . S
H4556 C4542 0.960 . S
H4557 C4543 0.961 . S
H4558 C4543 0.961 . S
H4559 C4543 0.961 . S
H4560 C4544 0.931 . S
H4561 C4549 0.930 . S
H4562 C4550 0.956 . S
H4563 C4550 0.961 . S
H4564 C4550 0.961 . S
H4565 C4551 0.958 . S
H4566 C4551 0.961 . S
H4567 C4551 0.960 . S
C4568 C4569 1.391 . S
C4568 C4570 1.394 . S
C4568 H4584 0.931 . S
C4569 C4568 1.391 . S
C4569 C4573 1.376 . S
C4570 C4568 1.394 . S
C4570 C4571 1.369 . S
C4570 C4574 1.531 . S
C4571 C4570 1.369 . S
C4571 C4572 1.410 . S
C4571 C4579 1.503 . S
C4572 C4571 1.410 . S
C4572 C4573 1.392 . S
C4572 C4575 1.511 . S
C4573 C4569 1.376 . S
C4573 C4572 1.392 . S
C4573 H4585 0.929 . S
C4574 C4570 1.531 . S
C4574 H4586 0.960 . S
C4574 H4587 0.962 . S
C4574 H4588 0.960 . S
C4575 C4572 1.511 . S
C4575 H4589 0.961 1_554 S
C4575 H4590 0.961 . S
C4575 H4591 0.961 1_554 S
C4576 C4577 1.370 . S
C4576 C4578 1.363 . S
C4576 H4592 0.931 . S
C4577 C4576 1.370 . S
C4577 C4581 1.408 . S
C4578 C4576 1.363 . S
C4578 C4579 1.370 . S
C4578 C4582 1.524 . S
C4579 C4571 1.503 . S
C4579 C4578 1.370 . S
C4579 C4580 1.403 . S
C4580 C4579 1.403 . S
C4580 C4581 1.404 . S
C4580 C4583 1.543 . S
C4581 C4577 1.408 . S
C4581 C4580 1.404 . S
C4581 H4593 0.930 . S
C4582 C4578 1.524 . S
C4582 H4594 0.956 . S
C4582 H4595 0.961 . S
C4582 H4596 0.961 . S
C4583 C4580 1.543 . S
C4583 H4597 0.960 . S
C4583 H4598 0.957 1_554 S
C4583 H4599 0.958 1_554 S
H4584 C4568 0.931 . S
H4585 C4573 0.929 . S
H4586 C4574 0.960 . S
H4587 C4574 0.962 . S
H4588 C4574 0.960 . S
H4589 C4575 0.961 1_556 S
H4590 C4575 0.961 . S
H4591 C4575 0.961 1_556 S
H4592 C4576 0.931 . S
H4593 C4581 0.930 . S
H4594 C4582 0.956 . S
H4595 C4582 0.961 . S
H4596 C4582 0.961 . S
H4597 C4583 0.960 . S
H4598 C4583 0.957 1_556 S
H4599 C4583 0.958 1_556 S
C4600 C4601 1.391 . S
C4600 C4602 1.394 . S
C4600 H4616 0.931 . S
C4601 C4600 1.391 . S
C4601 C4605 1.376 . S
C4602 C4600 1.394 . S
C4602 C4603 1.369 . S
C4602 C4606 1.531 . S
C4603 C4602 1.369 . S
C4603 C4604 1.410 . S
C4603 C4611 1.503 . S
C4604 C4603 1.410 . S
C4604 C4605 1.392 . S
C4604 C4607 1.511 . S
C4605 C4601 1.376 . S
C4605 C4604 1.392 . S
C4605 H4617 0.929 . S
C4606 C4602 1.531 . S
C4606 H4618 0.960 . S
C4606 H4619 0.962 . S
C4606 H4620 0.960 . S
C4607 C4604 1.511 . S
C4607 H4621 0.961 . S
C4607 H4622 0.961 . S
C4607 H4623 0.961 . S
C4608 C4609 1.370 . S
C4608 C4610 1.363 . S
C4608 H4624 0.931 . S
C4609 C4608 1.370 . S
C4609 C4613 1.408 . S
C4610 C4608 1.363 . S
C4610 C4611 1.370 . S
C4610 C4614 1.524 . S
C4611 C4603 1.503 . S
C4611 C4610 1.370 . S
C4611 C4612 1.403 . S
C4612 C4611 1.403 . S
C4612 C4613 1.404 . S
C4612 C4615 1.539 . S
C4613 C4609 1.408 . S
C4613 C4612 1.404 . S
C4613 H4625 0.930 . S
C4614 C4610 1.524 . S
C4614 H4626 0.956 . S
C4614 H4627 0.961 . S
C4614 H4628 0.961 . S
C4615 C4612 1.539 . S
C4615 H4629 0.958 . S
C4615 H4630 0.961 . S
C4615 H4631 0.960 . S
H4616 C4600 0.931 . S
H4617 C4605 0.929 . S
H4618 C4606 0.960 . S
H4619 C4606 0.962 . S
H4620 C4606 0.960 . S
H4621 C4607 0.961 . S
H4622 C4607 0.961 . S
H4623 C4607 0.961 . S
H4624 C4608 0.931 . S
H4625 C4613 0.930 . S
H4626 C4614 0.956 . S
H4627 C4614 0.961 . S
H4628 C4614 0.961 . S
H4629 C4615 0.958 . S
H4630 C4615 0.961 . S
H4631 C4615 0.960 . S
C4632 C4633 1.391 . S
C4632 C4634 1.394 . S
C4632 H4648 0.931 . S
C4633 C4632 1.391 . S
C4633 C4637 1.376 . S
C4634 C4632 1.394 . S
C4634 C4635 1.369 . S
C4634 C4638 1.531 . S
C4635 C4634 1.369 . S
C4635 C4636 1.410 . S
C4635 C4643 1.503 . S
C4636 C4635 1.410 . S
C4636 C4637 1.392 . S
C4636 C4639 1.511 . S
C4637 C4633 1.376 . S
C4637 C4636 1.392 . S
C4637 H4649 0.929 . S
C4638 C4634 1.531 . S
C4638 H4650 0.960 . S
C4638 H4651 0.962 . S
C4638 H4652 0.960 . S
C4639 C4636 1.511 . S
C4639 H4653 0.961 . S
C4639 H4654 0.961 . S
C4639 H4655 0.961 1_554 S
C4640 C4641 1.370 . S
C4640 C4642 1.363 . S
C4640 H4656 0.931 . S
C4641 C4640 1.370 . S
C4641 C4645 1.408 . S
C4642 C4640 1.363 . S
C4642 C4643 1.370 . S
C4642 C4646 1.524 . S
C4643 C4635 1.503 . S
C4643 C4642 1.370 . S
C4643 C4644 1.403 . S
C4644 C4643 1.403 . S
C4644 C4645 1.404 . S
C4644 C4647 1.539 . S
C4645 C4641 1.408 . S
C4645 C4644 1.404 . S
C4645 H4657 0.930 . S
C4646 C4642 1.524 . S
C4646 H4658 0.956 . S
C4646 H4659 0.961 . S
C4646 H4660 0.961 . S
C4647 C4644 1.539 . S
C4647 H4661 0.958 . S
C4647 H4662 0.961 1_554 S
C4647 H4663 0.960 . S
H4648 C4632 0.931 . S
H4649 C4637 0.929 . S
H4650 C4638 0.960 . S
H4651 C4638 0.962 . S
H4652 C4638 0.960 . S
H4653 C4639 0.961 . S
H4654 C4639 0.961 . S
H4655 C4639 0.961 1_556 S
H4656 C4640 0.931 . S
H4657 C4645 0.930 . S
H4658 C4646 0.956 . S
H4659 C4646 0.961 . S
H4660 C4646 0.961 . S
H4661 C4647 0.958 . S
H4662 C4647 0.961 1_556 S
H4663 C4647 0.960 . S
C4664 C4665 1.391 . S
C4664 C4666 1.394 . S
C4664 H4680 0.931 . S
C4665 C4664 1.391 . S
C4665 C4669 1.376 . S
C4666 C4664 1.394 . S
C4666 C4667 1.369 . S
C4666 C4670 1.531 . S
C4667 C4666 1.369 . S
C4667 C4668 1.410 . S
C4667 C4675 1.503 . S
C4668 C4667 1.410 . S
C4668 C4669 1.392 . S
C4668 C4671 1.511 . S
C4669 C4665 1.376 . S
C4669 C4668 1.392 . S
C4669 H4681 0.929 . S
C4670 C4666 1.531 . S
C4670 H4682 0.960 . S
C4670 H4683 0.962 . S
C4670 H4684 0.960 . S
C4671 C4668 1.511 . S
C4671 H4685 0.961 . S
C4671 H4686 0.961 . S
C4671 H4687 0.961 . S
C4672 C4673 1.370 . S
C4672 C4674 1.363 . S
C4672 H4688 0.931 . S
C4673 C4672 1.370 . S
C4673 C4677 1.408 . S
C4674 C4672 1.363 . S
C4674 C4675 1.370 . S
C4674 C4678 1.524 . S
C4675 C4667 1.503 . S
C4675 C4674 1.370 . S
C4675 C4676 1.403 . S
C4676 C4675 1.403 . S
C4676 C4677 1.404 . S
C4676 C4679 1.539 . S
C4677 C4673 1.408 . S
C4677 C4676 1.404 . S
C4677 H4689 0.930 . S
C4678 C4674 1.524 . S
C4678 H4690 0.956 . S
C4678 H4691 0.961 . S
C4678 H4692 0.961 . S
C4679 C4676 1.539 . S
C4679 H4693 0.958 . S
C4679 H4694 0.961 . S
C4679 H4695 0.960 . S
H4680 C4664 0.931 . S
H4681 C4669 0.929 . S
H4682 C4670 0.960 . S
H4683 C4670 0.962 . S
H4684 C4670 0.960 . S
H4685 C4671 0.961 . S
H4686 C4671 0.961 . S
H4687 C4671 0.961 . S
H4688 C4672 0.931 . S
H4689 C4677 0.930 . S
H4690 C4678 0.956 . S
H4691 C4678 0.961 . S
H4692 C4678 0.961 . S
H4693 C4679 0.958 . S
H4694 C4679 0.961 . S
H4695 C4679 0.960 . S
C4696 C4697 1.391 . S
C4696 C4698 1.394 . S
C4696 H4712 0.931 . S
C4697 C4696 1.391 . S
C4697 C4701 1.376 . S
C4698 C4696 1.394 . S
C4698 C4699 1.369 . S
C4698 C4702 1.531 . S
C4699 C4698 1.369 . S
C4699 C4700 1.410 . S
C4699 C4707 1.503 . S
C4700 C4699 1.410 . S
C4700 C4701 1.392 . S
C4700 C4703 1.511 . S
C4701 C4697 1.376 . S
C4701 C4700 1.392 . S
C4701 H4713 0.929 . S
C4702 C4698 1.531 . S
C4702 H4714 0.960 . S
C4702 H4715 0.962 . S
C4702 H4716 0.960 . S
C4703 C4700 1.511 . S
C4703 H4717 0.961 . S
C4703 H4718 0.961 . S
C4703 H4719 0.961 . S
C4704 C4705 1.370 . S
C4704 C4706 1.363 . S
C4704 H4720 0.931 . S
C4705 C4704 1.370 . S
C4705 C4709 1.408 . S
C4706 C4704 1.363 . S
C4706 C4707 1.370 . S
C4706 C4710 1.524 . S
C4707 C4699 1.503 . S
C4707 C4706 1.370 . S
C4707 C4708 1.403 . S
C4708 C4707 1.403 . S
C4708 C4709 1.404 . S
C4708 C4711 1.539 . S
C4709 C4705 1.408 . S
C4709 C4708 1.404 . S
C4709 H4721 0.930 . S
C4710 C4706 1.524 . S
C4710 H4722 0.956 . S
C4710 H4723 0.961 . S
C4710 H4724 0.961 . S
C4711 C4708 1.539 . S
C4711 H4725 0.958 . S
C4711 H4726 0.961 . S
C4711 H4727 0.960 . S
H4712 C4696 0.931 . S
H4713 C4701 0.929 . S
H4714 C4702 0.960 . S
H4715 C4702 0.962 . S
H4716 C4702 0.960 . S
H4717 C4703 0.961 . S
H4718 C4703 0.961 . S
H4719 C4703 0.961 . S
H4720 C4704 0.931 . S
H4721 C4709 0.930 . S
H4722 C4710 0.956 . S
H4723 C4710 0.961 . S
H4724 C4710 0.961 . S
H4725 C4711 0.958 . S
H4726 C4711 0.961 . S
H4727 C4711 0.960 . S
C1657 C101 2.019 . S
C1665 C379 2.031 . S
C1689 C57 1.759 . S
C1697 C452 1.806 . S
C1721 C70 1.691 . S
C1729 C547 1.695 . S
C1761 C622 1.403 . S
C1753 C82 1.494 . S
C1785 C23 1.460 . S
C1793 C706 1.408 . S
C1825 C799 1.699 . S
C1817 C29 1.697 . S
C1857 C872 1.800 . S
C1849 C49 1.752 . S
C1881 C10 2.017 . S
C1889 C967 2.029 . S
C1921 C368 1.594 . S
C1913 C218 1.636 . S
C1945 C226 0.900 . S
C1953 C454 0.880 . S
C1985 C536 1.157 . S
C1977 C251 1.140 . S
C2017 C631 1.532 . S
C2009 C159 1.561 . S
C2041 C211 1.541 . S
C2049 C715 1.533 . S
C2081 C788 1.142 . S
C2073 C225 1.100 . S
C2113 C874 0.867 . S
C2105 C252 0.941 . S
C2145 C956 1.597 . S
C2137 C166 1.629 . S
C2177 C370 1.047 . S
C2169 C147 1.082 . S
C2201 C263 1.620 . S
C2209 C1040 1.623 . S
C2241 C1126 1.368 . S
C2233 C309 1.393 . S
C2273 C1219 0.715 . S
C2265 C291 0.737 . S
C2297 C108 1.082 . S
C2305 C958 1.046 . S
C2329 C121 1.424 . S
C2337 C538 1.354 . S
C2361 C302 1.600 . S
C2369 C1292 1.619 . S
C2401 C1387 0.714 . S
C2393 C276 0.726 . S
C2433 C367 2.221 1_565 S
C2425 C55 2.234 . S
C2465 C1388 2.100 . S
C2457 C96 2.103 . S
C2489 C88 2.027 . S
C2497 C535 2.042 . S
C2521 C75 1.670 . S
C2529 C1306 1.536 . S
C2561 C718 1.529 . S
C2553 C4 1.660 . S
C2585 C44 2.045 . S
C2593 C1123 2.050 . S
C2625 C884 2.094 1_565 S
C2617 C31 2.099 . S
C2657 C1459 2.269 . S
C2649 C18 2.234 . S
C2689 C380 1.897 1_556 S
C2681 C133 1.918 . S
C2721 C1390 1.019 . S
C2713 C296 1.110 . S
C2745 C107 1.362 . S
C2753 C548 1.366 . S
C2777 C264 1.838 . S
C2785 C1291 1.847 . S
C2809 C140 1.840 . S
C2817 C703 1.845 . S
C2849 C1136 1.356 . S
C2841 C289 1.382 . S
C2873 C114 1.122 . S
C2881 C886 1.017 . S
C2905 C265 1.922 . S
C2913 C1472 1.891 . S
C2937 C179 1.091 . S
C2945 C382 1.048 . S
C2969 C161 1.858 . S
C2977 C1052 1.845 . S
C3001 C244 1.520 . S
C3009 C802 1.430 . S
C3033 C224 1.063 . S
C3041 C1207 1.062 . S
C3073 C1474 1.040 . S
C3065 C257 1.086 . S
C3097 C199 1.518 . S
C3105 C550 1.434 . S
C3137 C632 1.848 . S
C3129 C237 1.863 . S
C3169 C451 1.057 . S
C3161 C185 1.065 . S
C3193 C69 2.033 . S
C3201 C1555 2.026 . S
C3233 C1376 1.813 . S
C3225 C83 1.800 . S
C3257 C94 1.698 . S
C3265 C1639 1.696 . S
C3289 C56 1.455 1_655 S
C3297 C1294 1.388 . S
C3321 C42 1.472 . S
C3329 C1042 1.418 . S
C3361 C1135 1.699 . S
C3353 C3 1.698 . S
C3393 C1208 1.813 . S
C3385 C16 1.800 . S
C3425 C1471 2.031 . S
C3417 C36 2.015 . S
C3457 C1544 1.602 . S
C3449 C238 1.649 . S
C3481 C174 0.948 . S
C3489 C1378 0.874 . S
C3521 C1628 1.157 . S
C3513 C186 1.141 . S
C3553 C1303 1.536 . S
C3545 C198 1.531 . S
C3585 C1051 1.533 . S
C3577 C239 1.537 . S
C3609 C173 1.101 . S
C3617 C1124 1.141 . S
C3649 C1210 0.877 . S
C3641 C187 0.904 . S
C3673 C205 1.645 . S
C3681 C1460 1.608 . S
C3713 C1546 1.017 . S
C3705 C290 1.026 . S
C3737 C122 1.605 . S
C3745 C704 1.614 . S
C3777 C790 1.354 . S
C3769 C134 1.414 1_565 S
C3809 C883 0.715 . S
C3801 C148 0.729 1_554 S
C3841 C1462 1.052 . S
C3833 C283 1.061 . S
C3865 C270 1.394 . S
C3873 C1630 1.364 . S
C3905 C620 1.611 . S
C3897 C135 1.592 . S
C3937 C463 0.732 . S
C3929 C109 0.712 . S
C3961 C81 2.229 . S
C3969 C1543 2.268 . S
C4001 C464 2.089 . S
C3993 C68 2.086 . S
C4025 C62 2.038 . S
C4033 C1627 2.043 . S
C4057 C95 1.656 . S
C4065 C634 1.542 . S
C4089 C30 1.658 . S
C4097 C1054 1.530 . S
C4129 C787 2.042 . S
C4121 C17 2.040 . S
C4153 C5 2.093 . S
C4161 C1220 2.096 . S
C4185 C43 2.249 . S
C4193 C955 2.256 . S
C4225 C1556 1.880 . S
C4217 C304 1.932 . S
C4249 C153 1.108 . S
C4257 C466 1.015 . S
C4289 C1640 1.323 1_656 S
C4281 C278 1.357 . S
C4313 C127 1.840 . S
C4321 C619 1.844 . S
C4345 C303 1.832 . S
C4353 C1039 1.844 . S
C4385 C800 1.362 . S
C4377 C146 1.357 . S
C4409 C277 1.126 . S
C4417 C1222 1.038 . S
C4449 C968 1.883 . S
C4441 C120 1.932 . S
C4481 C1558 1.041 . S
C4473 C231 1.087 . S
C4513 C716 1.847 1_565 S
C4505 C200 1.865 . S
C4537 C212 1.512 . S
C4545 C1138 1.406 . S
C4577 C871 1.062 . S
C4569 C172 1.052 . S
C4601 C192 1.123 . S
C4609 C970 1.082 . S
C4633 C160 1.497 . S
C4641 C1642 1.403 . S
C4673 C1304 1.836 . S
C4665 C213 1.852 . S
C4705 C1375 1.063 . S
C4697 C250 1.059 . S
