# Generated by pormake.
# Topology anh, (6,3)-cn, num edge types: 1
# Building blocks:
#     Node 0, Type 0, BuildingBlock: HISSIN_clean_sbu_0, # of connection points: 6
#     Node 1, Type 0, BuildingBlock: HISSIN_clean_sbu_0, # of connection points: 6
#     Node 2, Type 0, BuildingBlock: HISSIN_clean_sbu_0, # of connection points: 6
#     Node 3, Type 1, BuildingBlock: OLANEW_clean_sbu_2, # of connection points: 3
#     Node 4, Type 1, BuildingBlock: OLANEW_clean_sbu_2, # of connection points: 3
#     Node 5, Type 1, BuildingBlock: OLANEW_clean_sbu_2, # of connection points: 3
#     Node 6, Type 1, BuildingBlock: OLANEW_clean_sbu_2, # of connection points: 3
#     Node 7, Type 1, BuildingBlock: OLANEW_clean_sbu_2, # of connection points: 3
#     Node 8, Type 1, BuildingBlock: OLANEW_clean_sbu_2, # of connection points: 3
#     Edge 9, Type (0, 1), BuildingBlock: EZIPEK_clean_linker_0, # of connection points: 2
#     Edge 10, Type (0, 1), BuildingBlock: EZIPEK_clean_linker_0, # of connection points: 2
#     Edge 11, Type (0, 1), BuildingBlock: EZIPEK_clean_linker_0, # of connection points: 2
#     Edge 12, Type (0, 1), BuildingBlock: EZIPEK_clean_linker_0, # of connection points: 2
#     Edge 13, Type (0, 1), BuildingBlock: EZIPEK_clean_linker_0, # of connection points: 2
#     Edge 14, Type (0, 1), BuildingBlock: EZIPEK_clean_linker_0, # of connection points: 2
#     Edge 15, Type (0, 1), BuildingBlock: EZIPEK_clean_linker_0, # of connection points: 2
#     Edge 16, Type (0, 1), BuildingBlock: EZIPEK_clean_linker_0, # of connection points: 2
#     Edge 17, Type (0, 1), BuildingBlock: EZIPEK_clean_linker_0, # of connection points: 2
#     Edge 18, Type (0, 1), BuildingBlock: EZIPEK_clean_linker_0, # of connection points: 2
#     Edge 19, Type (0, 1), BuildingBlock: EZIPEK_clean_linker_0, # of connection points: 2
#     Edge 20, Type (0, 1), BuildingBlock: EZIPEK_clean_linker_0, # of connection points: 2
#     Edge 21, Type (0, 1), BuildingBlock: EZIPEK_clean_linker_0, # of connection points: 2
#     Edge 22, Type (0, 1), BuildingBlock: EZIPEK_clean_linker_0, # of connection points: 2
#     Edge 23, Type (0, 1), BuildingBlock: EZIPEK_clean_linker_0, # of connection points: 2
#     Edge 24, Type (0, 1), BuildingBlock: EZIPEK_clean_linker_0, # of connection points: 2
#     Edge 25, Type (0, 1), BuildingBlock: EZIPEK_clean_linker_0, # of connection points: 2
#     Edge 26, Type (0, 1), BuildingBlock: EZIPEK_clean_linker_0, # of connection points: 2
# Relax obj value: 0.327
# Max RMSD: 0.144
# Mean RMSD: 0.120
data_MOF--net-anh--node1-HISSIN_clean_sbu_0--node2-OLANEW_clean_sbu_2--edge1-EZIPEK_clean_linker_0
_symmetry_space_group_name_H-M    P1
_symmetry_Int_Tables_number       1
_symmetry_cell_setting            triclinic
loop_
_symmetry_equiv_pos_as_xyz
'x, y, z'
_cell_length_a     28.563207
_cell_length_b     28.327919
_cell_length_c     36.729502
_cell_angle_alpha  92.285369
_cell_angle_beta   91.239489
_cell_angle_gamma 119.84019
loop_
_atom_site_label
_atom_site_type_symbol
_atom_site_fract_x
_atom_site_fract_y
_atom_site_fract_z
_atom_type_partial_charge
Eu0 Eu 0.98701 0.4602 0.16636 0.0
Eu1 Eu 0.05421 0.59325 0.17323 0.0
C2 C 1.0221 0.52507 0.2438 0.0
C3 C 0.86941 0.31794 0.15723 0.0
C4 C 0.83597 0.34092 0.15433 0.0
C5 C 0.78999 0.22813 0.15811 0.0
C6 C 0.78009 0.30811 0.1547 0.0
C7 C 0.84624 0.26126 0.15817 0.0
C8 C 0.75691 0.25181 0.15768 0.0
C9 C 0.92791 0.3539 0.16286 0.0
O10 O 0.11855 0.56805 0.17546 0.0
O11 O 0.07067 0.48055 0.14988 0.0
C12 C 0.11674 0.52457 0.15966 0.0
O13 O 0.97677 0.48667 0.11097 0.0
O14 O 0.10536 0.66761 0.20678 0.0
O15 O 0.08499 0.67313 0.15073 0.0
O16 O 0.05363 0.57035 0.11407 0.0
C17 C 1.01326 0.52969 0.09537 0.0
O18 O 0.92282 0.48442 0.17484 0.0
O19 O 0.96844 0.57457 0.16076 0.0
O20 O 1.01795 0.56327 0.2275 0.0
O21 O 0.9529 0.38181 0.13524 0.0
O22 O 0.94282 0.38402 0.19325 0.0
O23 O 1.02529 0.48731 0.22389 0.0
C24 C 0.17449 0.7315 0.17338 0.0
C25 C 0.19978 0.70949 0.15166 0.0
C26 C 0.26218 0.80874 0.19169 0.0
C27 C 0.25601 0.73675 0.15028 0.0
C28 C 0.20594 0.78152 0.19305 0.0
C29 C 0.28744 0.7861 0.17073 0.0
C30 C 0.1166 0.69876 0.17946 0.0
C31 C 0.9232 0.52932 0.16615 0.0
H32 H 0.85319 0.38453 0.15351 0.0
H33 H 0.77248 0.18465 0.16055 0.0
H34 H 0.75505 0.32692 0.15435 0.0
H35 H 0.87158 0.24296 0.16046 0.0
H36 H 0.17616 0.67034 0.13681 0.0
H37 H 0.28614 0.84673 0.20777 0.0
H38 H 0.27506 0.71872 0.13416 0.0
H39 H 0.18716 0.79849 0.21043 0.0
Eu40 Eu 0.56923 1.01344 0.49986 0.0
Eu41 Eu 0.50713 0.08301 0.51268 0.0
C42 C 0.54857 0.04464 0.58099 0.0
C43 C 0.60159 0.9013 0.5082 0.0
C44 C 0.56615 0.88156 0.53684 0.0
C45 C 0.61543 0.82379 0.51054 0.0
C46 C 0.55604 0.83358 0.55264 0.0
C47 C 0.62567 0.87192 0.49482 0.0
C48 C 0.58103 0.80475 0.53976 0.0
C49 C 0.61361 0.95268 0.49263 0.0
O50 O 0.59002 0.14418 0.49364 0.0
O51 O 0.63843 0.10091 0.50403 0.0
C52 C 0.63623 0.14443 0.49549 0.0
O53 O 0.56477 0.04471 0.44497 0.0
O54 O 0.48545 0.13322 0.54724 0.0
O55 O 0.46056 0.11801 0.49013 0.0
O56 O 0.48859 0.04981 0.45455 0.0
C57 C 0.52343 0.04858 0.43266 0.0
O58 O 0.48015 0.95162 0.49075 0.0
O59 O 0.4408 0.99576 0.51982 0.0
O60 O 0.54466 0.08494 0.56787 0.0
O61 O 0.57669 0.9498 0.46969 0.0
O62 O 0.63163 0.99461 0.51599 0.0
O63 O 0.54765 1.00624 0.55923 0.0
C64 C 0.49907 0.20799 0.51487 0.0
C65 C 0.54112 0.22887 0.4904 0.0
C66 C 0.53149 0.29962 0.54085 0.0
C67 C 0.5795 0.28417 0.49237 0.0
C68 C 0.49338 0.24395 0.53924 0.0
C69 C 0.57594 0.31948 0.51846 0.0
C70 C 0.46873 0.14899 0.51945 0.0
C71 C 0.43774 0.95147 0.50416 0.0
H72 H 0.54712 0.90382 0.54736 0.0
H73 H 0.6352 0.802 0.5005 0.0
H74 H 0.52971 0.81951 0.57531 0.0
H75 H 0.65291 0.88659 0.47265 0.0
H76 H 0.54649 0.20199 0.47133 0.0
H77 H 0.52852 0.32654 0.56129 0.0
H78 H 0.61374 0.29881 0.47511 0.0
H79 H 0.46165 0.22858 0.55855 0.0
Eu80 Eu 0.50543 0.50211 0.83456 0.0
Eu81 Eu 0.62998 0.56905 0.86577 0.0
C82 C 0.53429 0.53083 0.92016 0.0
C83 C 0.36353 0.46762 0.82573 0.0
C84 C 0.3666 0.48958 0.86131 0.0
C85 C 0.29897 0.49523 0.80759 0.0
C86 C 0.33692 0.51498 0.86975 0.0
C87 C 0.32875 0.46965 0.79909 0.0
C88 C 0.30398 0.51895 0.84275 0.0
C89 C 0.40334 0.45195 0.81513 0.0
O90 O 0.61872 0.4897 0.83895 0.0
O91 O 0.52794 0.43755 0.8454 0.0
C92 C 0.57453 0.44151 0.83817 0.0
O93 O 0.55351 0.50992 0.78473 0.0
O94 O 0.69435 0.57112 0.8999 0.0
O95 O 0.70865 0.64311 0.8725 0.0
O96 O 0.63569 0.58185 0.80589 0.0
C97 C 0.6027 0.5494 0.77926 0.0
O98 O 0.53093 0.59007 0.82586 0.0
O99 O 0.60207 0.63175 0.86809 0.0
O100 O 0.58023 0.533 0.9143 0.0
O101 O 0.44068 0.48625 0.79482 0.0
O102 O 0.42326 0.43624 0.84125 0.0
O103 O 0.50351 0.53036 0.89299 0.0
C104 C 0.78117 0.6261 0.87717 0.0
C105 C 0.7883 0.5808 0.87097 0.0
C106 C 0.86948 0.68443 0.85365 0.0
C107 C 0.83561 0.58736 0.85622 0.0
C108 C 0.82237 0.678 0.86875 0.0
C109 C 0.87618 0.63909 0.84725 0.0
C110 C 0.73027 0.61963 0.89072 0.0
C111 C 0.56711 0.63372 0.84507 0.0
H112 H 0.39377 0.4894 0.88225 0.0
H113 H 0.27348 0.49813 0.78656 0.0
H114 H 0.34104 0.53321 0.89699 0.0
H115 H 0.3266 0.45378 0.77139 0.0
H116 H 0.75719 0.5402 0.87701 0.0
H117 H 0.90057 0.72459 0.84679 0.0
H118 H 0.84037 0.55203 0.85139 0.0
H119 H 0.8177 0.71344 0.87329 0.0
O120 O 0.44396 0.10113 0.28139 0.0
Cd121 Cd 0.43147 0.1161 0.2176 0.0
O122 O 0.49319 0.06864 0.25868 0.0
Cd123 Cd 0.53875 1.02612 0.26311 0.0
O124 O 0.50936 0.94478 0.23863 0.0
C125 C 0.49946 0.9404 0.2044 0.0
O126 O 0.51418 0.98564 0.18781 0.0
C127 C 0.47395 0.08034 0.28613 0.0
C128 C 0.53202 0.15407 0.18867 0.0
O129 O 0.51826 0.18715 0.2029 0.0
O130 O 0.4973 0.10305 0.18617 0.0
O131 O 0.7648 0.62438 0.648 0.0
Cd132 Cd 0.80985 0.63944 0.58986 0.0
O133 O 0.69054 0.57886 0.61345 0.0
Cd134 Cd 0.603 0.53667 0.60504 0.0
O135 O 0.56545 0.58068 0.58384 0.0
C136 C 0.56602 0.61672 0.60577 0.0
O137 O 0.58008 0.61842 0.6403 0.0
C138 C 0.71351 0.59575 0.64493 0.0
C139 C 0.75034 0.53832 0.55349 0.0
O140 O 0.79572 0.55188 0.56987 0.0
O141 O 0.73679 0.57486 0.55039 0.0
O142 O 0.08378 0.63657 0.94829 0.0
Cd143 Cd 0.13151 0.68306 0.89549 0.0
O144 O 1.02086 0.56243 0.91741 0.0
Cd145 Cd 0.04759 0.59412 0.86353 0.0
O146 O 0.08275 0.62168 0.81028 0.0
C147 C 0.06292 0.64251 0.78933 0.0
O148 O 0.08422 0.65985 0.75787 0.0
C149 C 0.0431 0.58873 0.94761 0.0
C150 C 0.19592 0.63913 0.87738 0.0
O151 O 0.21573 0.68311 0.89782 0.0
O152 O 0.14709 0.6174 0.86497 0.0
O153 O 0.09349 0.59046 0.41402 0.0
Cd154 Cd 0.14203 0.63598 0.4744 0.0
O155 O 1.01636 0.51835 0.42728 0.0
Cd156 Cd 0.93486 0.44092 0.42855 0.0
O157 O 0.86678 0.36281 0.44933 0.0
C158 C 0.8161 0.34577 0.44546 0.0
O159 O 0.79993 0.3748 0.42766 0.0
C160 C 0.04813 0.54857 0.40335 0.0
C161 C 0.23776 0.7412 0.48053 0.0
O162 O 0.24015 0.69745 0.4751 0.0
O163 O 0.19061 0.73612 0.48144 0.0
O164 O 0.55957 0.97256 0.74313 0.0
Cd165 Cd 0.55834 0.93072 0.80316 0.0
O166 O 0.56567 0.05041 0.76338 0.0
Cd167 Cd 0.56742 0.13132 0.7675 0.0
O168 O 0.56056 0.20357 0.78952 0.0
C169 C 0.59402 0.25388 0.78523 0.0
O170 O 0.63679 0.26672 0.76627 0.0
C171 C 0.56185 1.01788 0.7367 0.0
C172 C 0.56277 0.83285 0.81278 0.0
O173 O 0.51868 0.8311 0.80248 0.0
O174 O 0.60532 0.88009 0.81644 0.0
O175 O 0.57288 0.52833 0.08277 0.0
Cd176 Cd 0.61764 0.52703 0.14226 0.0
O177 O 0.49874 0.52829 0.10004 0.0
Cd178 Cd 0.42094 0.5311 0.09928 0.0
O179 O 0.34944 0.542 0.11188 0.0
C180 C 0.30694 0.50641 0.12664 0.0
O181 O 0.30353 0.46009 0.13477 0.0
C182 C 0.52909 0.5286 0.07474 0.0
C183 C 0.71871 0.52898 0.14611 0.0
O184 O 0.67376 0.48395 0.14197 0.0
O185 O 0.71666 0.57322 0.14677 0.0
C186 C 0.19344 0.50912 0.17921 0.0
C187 C 0.16846 0.52503 0.15232 0.0
C188 C 0.23479 0.53013 0.10836 0.0
C189 C 0.26156 0.51682 0.13579 0.0
N190 N 0.27343 0.5064 0.19962 0.0
N191 N 0.17261 0.56255 0.094 0.0
C192 C 0.2428 0.50991 0.17189 0.0
C193 C 0.19151 0.53931 0.11776 0.0
N194 N 0.16939 0.4921 0.21156 0.0
N195 N 0.24844 0.53098 0.07286 0.0
H196 H 0.14112 0.56973 0.09991 0.0
H197 H 0.19125 0.57921 0.07003 0.0
H198 H 0.279 0.5236 0.06458 0.0
H199 H 0.22635 0.53418 0.05113 0.0
H200 H 0.18184 0.47378 0.23056 0.0
H201 H 0.13444 0.4928 0.21835 0.0
H202 H 0.26489 0.50672 0.22701 0.0
H203 H 0.31059 0.50881 0.19566 0.0
C204 C 0.70085 0.24627 0.50335 0.0
C205 C 0.68682 0.19515 0.48561 0.0
C206 C 0.76535 0.24241 0.44694 0.0
C207 C 0.77467 0.29385 0.46139 0.0
N208 N 0.74881 0.34491 0.50217 0.0
N209 N 0.70294 0.14533 0.43722 0.0
C210 C 0.74164 0.29572 0.48925 0.0
C211 C 0.71882 0.19333 0.45686 0.0
N212 N 0.67702 0.24754 0.53495 0.0
N213 N 0.80063 0.24027 0.42328 0.0
H214 H 0.66946 0.10853 0.44304 0.0
H215 H 0.72016 0.14253 0.41312 0.0
H216 H 0.83313 0.27491 0.41362 0.0
H217 H 0.80018 0.20435 0.41532 0.0
H218 H 0.6906 0.2827 0.55181 0.0
H219 H 0.64774 0.21245 0.54647 0.0
H220 H 0.72157 0.34878 0.51865 0.0
H221 H 0.78055 0.38212 0.49484 0.0
C222 C 0.61043 0.72786 0.82039 0.0
C223 C 0.56828 0.68659 0.8397 0.0
C224 C 0.52574 0.74387 0.84498 0.0
C225 C 0.56421 0.78198 0.82171 0.0
N226 N 0.63702 0.80345 0.78147 0.0
N227 N 0.48233 0.65263 0.86723 0.0
C228 C 0.60515 0.77231 0.80806 0.0
C229 C 0.52473 0.69372 0.85083 0.0
N230 N 0.6557 0.72475 0.81364 0.0
N231 N 0.49215 0.75681 0.86336 0.0
H232 H 0.48171 0.61702 0.87429 0.0
H233 H 0.44641 0.65243 0.87194 0.0
H234 H 0.49325 0.79396 0.86162 0.0
H235 H 0.46706 0.73326 0.88336 0.0
H236 H 0.69022 0.75648 0.80332 0.0
H237 H 0.66054 0.69222 0.82099 0.0
H238 H 0.66347 0.79467 0.76762 0.0
H239 H 0.63292 0.83455 0.77034 0.0
C240 C 0.83376 0.49797 0.1315 0.0
C241 C 0.87044 0.52863 0.16145 0.0
C242 C 0.80575 0.55623 0.18283 0.0
C243 C 0.77147 0.52969 0.15111 0.0
N244 N 0.75804 0.48368 0.09198 0.0
N245 N 0.89406 0.59202 0.21357 0.0
C246 C 0.78678 0.50257 0.12466 0.0
C247 C 0.85733 0.55955 0.18633 0.0
N248 N 0.84357 0.46419 0.10943 0.0
N249 N 0.78776 0.57554 0.21071 0.0
H250 H 0.93047 0.59274 0.21872 0.0
H251 H 0.89003 0.62077 0.22968 0.0
H252 H 0.74993 0.57268 0.20982 0.0
H253 H 0.80801 0.58979 0.23613 0.0
H254 H 0.81523 0.43564 0.09024 0.0
H255 H 0.87858 0.46167 0.11199 0.0
H256 H 0.77048 0.46913 0.06991 0.0
H257 H 0.72432 0.48737 0.08551 0.0
C258 C 0.34389 0.89302 0.47441 0.0
C259 C 0.38466 0.89909 0.50024 0.0
C260 C 0.3265 0.80364 0.51575 0.0
C261 C 0.28819 0.79587 0.48734 0.0
N262 N 0.26484 0.83131 0.43573 0.0
N263 N 0.41787 0.85779 0.54211 0.0
C264 C 0.29788 0.84024 0.4658 0.0
C265 C 0.37687 0.85359 0.5198 0.0
N266 N 0.34924 0.93766 0.45779 0.0
N267 N 0.31369 0.76435 0.54024 0.0
H268 H 0.45411 0.89418 0.54747 0.0
H269 H 0.41743 0.82441 0.55335 0.0
H270 H 0.2768 0.72802 0.53912 0.0
H271 H 0.33727 0.76994 0.56378 0.0
H272 H 0.31844 0.93734 0.44191 0.0
H273 H 0.38312 0.97631 0.46203 0.0
H274 H 0.27292 0.86014 0.41652 0.0
H275 H 0.23171 0.79326 0.42799 0.0
C276 C 0.54055 0.35361 0.79831 0.0
C277 C 0.5767 0.39084 0.82662 0.0
C278 C 0.62337 0.33717 0.82838 0.0
C279 C 0.58558 0.29862 0.80147 0.0
N280 N 0.50253 0.26529 0.76538 0.0
N281 N 0.64481 0.41061 0.8739 0.0
C282 C 0.54216 0.30513 0.78819 0.0
C283 C 0.6161 0.38059 0.84303 0.0
N284 N 0.50711 0.36621 0.77902 0.0
N285 N 0.66649 0.33235 0.84006 0.0
H286 H 0.63924 0.44113 0.88626 0.0
H287 H 0.67019 0.40188 0.88942 0.0
H288 H 0.671 0.29902 0.83248 0.0
H289 H 0.69929 0.36275 0.85572 0.0
H290 H 0.48495 0.34439 0.75534 0.0
H291 H 0.50532 0.40164 0.78413 0.0
H292 H 0.46631 0.26403 0.75863 0.0
H293 H 0.50378 0.23107 0.75527 0.0
C294 C 0.52649 0.70583 0.55353 0.0
C295 C 0.57483 0.75693 0.55867 0.0
C296 C 0.61744 0.71532 0.59321 0.0
C297 C 0.56789 0.66509 0.59066 0.0
N298 N 0.47299 0.61369 0.57324 0.0
N299 N 0.66156 0.81321 0.59026 0.0
C300 C 0.52163 0.66065 0.57222 0.0
C301 C 0.6188 0.76257 0.58072 0.0
N302 N 0.48615 0.70012 0.52987 0.0
N303 N 0.66404 0.71738 0.60545 0.0
H304 H 0.66403 0.84904 0.58173 0.0
H305 H 0.69197 0.81996 0.60946 0.0
H306 H 0.66566 0.68323 0.61323 0.0
H307 H 0.70211 0.75176 0.60421 0.0
H308 H 0.45241 0.66269 0.52196 0.0
H309 H 0.48822 0.73248 0.516 0.0
H310 H 0.43663 0.60972 0.5635 0.0
H311 H 0.46837 0.57985 0.58653 0.0
C312 C 0.92171 0.62309 0.7946 0.0
C313 C 0.92544 0.64528 0.83057 0.0
C314 C 1.02234 0.67804 0.83429 0.0
C315 C 1.01676 0.64801 0.80114 0.0
N316 N 0.95993 0.587 0.75102 0.0
N317 N 0.97777 0.68764 0.8869 0.0
C318 C 0.96623 0.61958 0.78134 0.0
C319 C 0.97543 0.67143 0.85103 0.0
N320 N 0.87596 0.60621 0.77299 0.0
N321 N 0.0726 0.71392 0.84926 0.0
H322 H 0.94413 0.68307 0.9004 0.0
H323 H 1.01209 0.7012 0.90408 0.0
H324 H 0.10795 0.72069 0.83709 0.0
H325 H 0.07919 0.74065 0.87163 0.0
H326 H 0.873 0.59472 0.74537 0.0
H327 H 0.84267 0.6086 0.78179 0.0
H328 H 0.9225 0.56052 0.73802 0.0
H329 H 0.99146 0.58307 0.74042 0.0
C330 C 0.37452 0.8047 0.20152 0.0
C331 C 0.34715 0.81331 0.17203 0.0
C332 C 0.43314 0.88629 0.15248 0.0
C333 C 0.45689 0.8871 0.18684 0.0
N334 N 0.46084 0.83142 0.23295 0.0
N335 N 0.35007 0.85784 0.11682 0.0
C336 C 0.43092 0.84092 0.20791 0.0
C337 C 0.37657 0.85191 0.14613 0.0
N338 N 0.346 0.76382 0.22423 0.0
N339 N 0.46512 0.91703 0.1259 0.0
H340 H 0.3088 0.8322 0.1109 0.0
H341 H 0.36842 0.88967 0.09946 0.0
H342 H 0.50718 0.93867 0.12957 0.0
H343 H 0.45092 0.91569 0.09931 0.0
H344 H 0.36214 0.75875 0.24844 0.0
H345 H 0.3051 0.73543 0.21922 0.0
H346 H 0.44547 0.79707 0.24819 0.0
H347 H 0.50286 0.85567 0.23539 0.0
C348 C 0.63572 0.4159 0.50103 0.0
C349 C 0.62285 0.37487 0.52608 0.0
C350 C 0.6961 0.43993 0.56838 0.0
C351 C 0.71093 0.48064 0.54253 0.0
N352 N 0.70321 0.50377 0.4811 0.0
N353 N 0.64876 0.34379 0.57905 0.0
C354 C 0.68319 0.4675 0.50784 0.0
C355 C 0.65564 0.38564 0.55829 0.0
N356 N 0.60167 0.40618 0.47142 0.0
N357 N 0.71769 0.45323 0.6034 0.0
H358 H 0.61937 0.30323 0.57286 0.0
H359 H 0.67575 0.34836 0.60027 0.0
H360 H 0.74554 0.49256 0.61336 0.0
H361 H 0.70344 0.4261 0.62413 0.0
H362 H 0.60584 0.43635 0.45431 0.0
H363 H 0.56657 0.36879 0.46562 0.0
H364 H 0.68768 0.49462 0.45422 0.0
H365 H 0.73891 0.54117 0.48491 0.0
C366 C 0.29976 0.60498 0.84133 0.0
C367 C 0.27658 0.55019 0.85134 0.0
C368 C 0.20719 0.55844 0.88391 0.0
C369 C 0.22656 0.61089 0.87043 0.0
N370 N 0.28707 0.68243 0.83309 0.0
N371 N 0.20478 0.47183 0.87791 0.0
C372 C 0.27194 0.63398 0.84841 0.0
C373 C 0.22927 0.52604 0.87146 0.0
N374 N 0.34893 0.62962 0.8259 0.0
N375 N 0.16909 0.54055 0.90969 0.0
H376 H 0.22014 0.44684 0.86939 0.0
H377 H 0.167 0.45058 0.88898 0.0
H378 H 0.15309 0.564 0.92021 0.0
H379 H 0.15726 0.50503 0.92327 0.0
H380 H 0.37078 0.6712 0.82193 0.0
H381 H 0.37003 0.60932 0.81958 0.0
H382 H 0.31596 0.69829 0.81348 0.0
H383 H 0.26793 0.70509 0.83801 0.0
C384 C 0.68343 0.2122 0.20163 0.0
C385 C 0.69875 0.21952 0.16489 0.0
C386 C 0.60361 0.17566 0.14334 0.0
C387 C 0.58889 0.17377 0.18012 0.0
N388 N 0.6133 0.1904 0.24459 0.0
N389 N 0.67564 0.21051 0.1006 0.0
C390 C 0.62839 0.19175 0.20936 0.0
C391 C 0.65937 0.20141 0.13562 0.0
N392 N 0.72163 0.22462 0.22911 0.0
N393 N 0.56424 0.15289 0.11595 0.0
H394 H 0.71597 0.22694 0.09403 0.0
H395 H 0.64994 0.20421 0.07816 0.0
H396 H 0.52321 0.1357 0.12064 0.0
H397 H 0.57161 0.14794 0.08885 0.0
H398 H 0.71264 0.21432 0.25594 0.0
H399 H 0.76279 0.24218 0.22488 0.0
H400 H 0.64027 0.20929 0.26696 0.0
H401 H 0.57314 0.17243 0.25163 0.0
C402 C 0.98629 0.56395 0.04185 0.0
C403 C 1.00934 0.53358 0.05552 0.0
C404 C 1.03884 0.5253 0.99463 0.0
C405 C 1.02377 0.56314 0.98261 0.0
N406 N 0.98212 0.61795 0.99347 0.0
N407 N 0.05704 0.48439 0.04599 0.0
C408 C 0.99661 0.58186 1.00577 0.0
C409 C 1.03477 0.51322 0.03205 0.0
N410 N 0.95412 0.57506 0.06338 0.0
N411 N 0.05726 0.50126 0.97028 0.0
H412 H 0.05247 0.47271 0.07285 0.0
H413 H 0.08223 0.47433 0.03171 0.0
H414 H 0.06116 0.50958 0.94278 0.0
H415 H 0.06448 0.46984 0.97643 0.0
H416 H 0.93203 0.59278 0.05425 0.0
H417 H 0.94571 0.56199 0.08978 0.0
H418 H 0.96811 0.6384 1.01012 0.0
H419 H 0.98626 0.62928 0.96652 0.0
C420 C 0.47503 1.00966 0.37187 0.0
C421 C 0.51614 0.05437 0.39347 0.0
C422 C 0.52719 0.11615 0.3454 0.0
C423 C 0.48778 0.07112 0.32314 0.0
N424 N 0.43011 0.97401 0.31212 0.0
N425 N 0.58878 0.14762 0.39859 0.0
C426 C 0.46364 1.01745 0.3354 0.0
C427 C 0.54464 0.10682 0.37946 0.0
N428 N 0.44592 0.96019 0.38664 0.0
N429 N 0.54703 0.16802 0.33439 0.0
H430 H 0.60237 0.14214 0.42367 0.0
H431 H 0.61484 0.18513 0.38829 0.0
H432 H 0.53613 0.17666 0.30932 0.0
H433 H 0.57109 0.20286 0.35115 0.0
H434 H 0.41108 0.92776 0.37408 0.0
H435 H 0.45507 0.95238 0.41259 0.0
H436 H 0.41604 0.93361 0.318 0.0
H437 H 0.41898 0.97834 0.28577 0.0
C438 C 0.62984 0.51726 0.72296 0.0
C439 C 0.62338 0.55795 0.7421 0.0
C440 C 0.67605 0.62387 0.69736 0.0
C441 C 0.6805 0.58248 0.67744 0.0
N442 N 0.64946 0.48653 0.66605 0.0
N443 N 0.62689 0.64464 0.74222 0.0
C444 C 0.65317 0.52804 0.68844 0.0
C445 C 0.64253 0.60978 0.72768 0.0
N446 N 0.617 0.46964 0.73865 0.0
N447 N 0.70389 0.67658 0.68746 0.0
H448 H 0.6003 0.63418 0.76338 0.0
H449 H 0.63544 0.68109 0.73095 0.0
H450 H 0.72702 0.68813 0.66447 0.0
H451 H 0.7068 0.70933 0.70331 0.0
H452 H 0.62673 0.44123 0.7278 0.0
H453 H 0.601 0.46068 0.76424 0.0
H454 H 0.62515 0.44552 0.67107 0.0
H455 H 0.66652 0.49268 0.64073 0.0
C456 C 0.59746 0.07932 0.643 0.0
C457 C 0.55092 0.04078 0.62147 0.0
C458 C 0.50818 0.99508 0.67704 0.0
C459 C 0.55681 1.02982 0.69791 0.0
N460 N 0.64925 0.10283 0.7009 0.0
N461 N 0.46206 0.96113 0.61745 0.0
C462 C 0.60166 0.07186 0.68101 0.0
C463 C 0.50634 0.99839 0.63839 0.0
N464 N 0.63782 0.12299 0.62705 0.0
N465 N 0.46296 0.96033 0.69454 0.0
H466 H 0.45687 0.96499 0.58977 0.0
H467 H 0.43147 0.92506 0.62696 0.0
H468 H 0.4626 0.95761 0.72279 0.0
H469 H 0.42468 0.93768 0.68179 0.0
H470 H 0.66975 0.15596 0.64164 0.0
H471 H 0.63787 0.1281 0.59908 0.0
H472 H 0.68546 0.12977 0.6896 0.0
H473 H 0.65352 0.0992 0.72875 0.0
C474 C 0.48726 0.48167 0.97547 0.0
C475 C 0.51917 0.53143 0.95867 0.0
C476 C 0.54525 0.58133 0.01859 0.0
C477 C 0.51624 0.53121 0.03559 0.0
N478 N 0.44915 0.43609 0.03113 0.0
N479 N 0.56547 0.62934 0.96252 0.0
C480 C 0.48342 0.48214 0.0142 0.0
C481 C 0.5438 0.58159 0.97978 0.0
N482 N 0.46282 0.43388 0.95446 0.0
N483 N 0.57593 0.62834 0.03969 0.0
H484 H 0.56395 0.63028 0.93417 0.0
H485 H 0.58033 0.66747 0.97594 0.0
H486 H 0.57533 0.62981 0.06811 0.0
H487 H 0.60339 0.66528 0.02933 0.0
H488 H 0.44391 0.39547 0.96498 0.0
H489 H 0.46321 0.43269 0.92604 0.0
H490 H 0.42091 0.39972 0.01735 0.0
H491 H 0.44601 0.43569 0.05938 0.0
C492 C 1.00053 0.48101 0.30568 0.0
C493 C 1.02722 0.52801 0.28489 0.0
C494 C 0.05161 0.58491 0.34169 0.0
C495 C 1.03424 0.53873 0.36294 0.0
N496 N 1.00117 0.44169 0.36301 0.0
N497 N 0.0949 0.62341 0.28654 0.0
C498 C 1.01091 0.48621 0.34443 0.0
C499 C 0.05743 0.57968 0.30386 0.0
N500 N 0.96394 0.43187 0.28904 0.0
N501 N 0.06184 0.63389 0.3573 0.0
H502 H 0.10628 0.61917 0.26041 0.0
H503 H 0.12017 0.66121 0.3001 0.0
H504 H 0.05401 0.63869 0.3844 0.0
H505 H 0.07139 0.66751 0.34199 0.0
H506 H 0.94016 0.39765 0.30356 0.0
H507 H 0.95306 0.42689 0.26133 0.0
H508 H 0.98886 0.40368 0.34998 0.0
H509 H 1.01074 0.44383 0.39075 0.0
loop_
_geom_bond_atom_site_label_1
_geom_bond_atom_site_label_2
_geom_bond_distance
_geom_bond_site_symmetry_2
_ccdc_geom_bond_type
Eu0 C9 2.828 . S
Eu0 O11 2.392 1_655 S
Eu0 O13 2.418 . S
Eu0 O18 2.373 . S
Eu0 O21 2.488 . S
Eu0 O22 2.471 . S
Eu0 O23 2.349 . S
Eu1 O10 2.373 . S
Eu1 O14 2.488 . S
Eu1 O15 2.471 . S
Eu1 O16 2.349 . S
Eu1 O19 2.392 1_455 S
Eu1 O20 2.418 . S
Eu1 C30 2.828 . S
C2 O20 1.244 . S
C2 O23 1.265 1_455 S
C3 C4 1.379 . S
C3 C7 1.373 . S
C3 C9 1.505 . S
C4 C3 1.379 . S
C4 C6 1.369 . S
C4 H32 0.930 . S
C5 C7 1.383 . S
C5 C8 1.382 . S
C5 H33 0.930 . S
C6 C4 1.369 . S
C6 C8 1.392 . S
C6 H34 0.930 . S
C7 C3 1.373 . S
C7 C5 1.383 . S
C7 H35 0.931 . S
C8 C5 1.382 . S
C8 C6 1.392 . S
C9 Eu0 2.828 . S
C9 C3 1.505 . S
C9 O21 1.249 . S
C9 O22 1.244 . S
O10 Eu1 2.373 . S
O10 C12 1.258 . S
O11 Eu0 2.392 1_455 S
O11 C12 1.242 . S
C12 O10 1.258 . S
C12 O11 1.242 . S
O13 Eu0 2.418 . S
O13 C17 1.244 . S
O14 Eu1 2.488 . S
O14 C30 1.249 . S
O15 Eu1 2.471 . S
O15 C30 1.244 . S
O16 Eu1 2.349 . S
O16 C17 1.265 1_455 S
C17 O13 1.244 . S
C17 O16 1.265 1_655 S
O18 Eu0 2.373 . S
O18 C31 1.258 . S
O19 Eu1 2.392 1_655 S
O19 C31 1.242 . S
O20 Eu1 2.418 . S
O20 C2 1.244 . S
O21 Eu0 2.488 . S
O21 C9 1.249 . S
O22 Eu0 2.471 . S
O22 C9 1.244 . S
O23 Eu0 2.349 . S
O23 C2 1.265 1_655 S
C24 C25 1.379 . S
C24 C28 1.373 . S
C24 C30 1.505 . S
C25 C24 1.379 . S
C25 C27 1.369 . S
C25 H36 0.930 . S
C26 C28 1.383 . S
C26 C29 1.382 . S
C26 H37 0.930 . S
C27 C25 1.369 . S
C27 C29 1.392 . S
C27 H38 0.930 . S
C28 C24 1.373 . S
C28 C26 1.383 . S
C28 H39 0.931 . S
C29 C26 1.382 . S
C29 C27 1.392 . S
C30 Eu1 2.828 . S
C30 O14 1.249 . S
C30 O15 1.244 . S
C30 C24 1.505 . S
C31 O18 1.258 . S
C31 O19 1.242 . S
H32 C4 0.930 . S
H33 C5 0.930 . S
H34 C6 0.930 . S
H35 C7 0.931 . S
H36 C25 0.930 . S
H37 C26 0.930 . S
H38 C27 0.930 . S
H39 C28 0.931 . S
Eu40 C49 2.828 . S
Eu40 O51 2.392 1_565 S
Eu40 O53 2.418 . S
Eu40 O58 2.373 . S
Eu40 O61 2.488 . S
Eu40 O62 2.471 . S
Eu40 O63 2.349 . S
Eu41 O50 2.373 . S
Eu41 O54 2.488 . S
Eu41 O55 2.471 . S
Eu41 O56 2.349 . S
Eu41 O59 2.392 1_545 S
Eu41 O60 2.418 . S
Eu41 C70 2.828 . S
C42 O60 1.244 . S
C42 O63 1.265 1_545 S
C43 C44 1.379 . S
C43 C47 1.373 . S
C43 C49 1.505 . S
C44 C43 1.379 . S
C44 C46 1.369 . S
C44 H72 0.930 . S
C45 C47 1.383 . S
C45 C48 1.382 . S
C45 H73 0.930 . S
C46 C44 1.369 . S
C46 C48 1.392 . S
C46 H74 0.930 . S
C47 C43 1.373 . S
C47 C45 1.383 . S
C47 H75 0.931 . S
C48 C45 1.382 . S
C48 C46 1.392 . S
C49 Eu40 2.828 . S
C49 C43 1.505 . S
C49 O61 1.249 . S
C49 O62 1.244 . S
O50 Eu41 2.373 . S
O50 C52 1.258 . S
O51 Eu40 2.392 1_545 S
O51 C52 1.242 . S
C52 O50 1.258 . S
C52 O51 1.242 . S
O53 Eu40 2.418 . S
O53 C57 1.244 1_565 S
O54 Eu41 2.488 . S
O54 C70 1.249 . S
O55 Eu41 2.471 . S
O55 C70 1.244 . S
O56 Eu41 2.349 . S
O56 C57 1.265 . S
C57 O53 1.244 1_545 S
C57 O56 1.265 . S
O58 Eu40 2.373 . S
O58 C71 1.258 . S
O59 Eu41 2.392 1_565 S
O59 C71 1.242 . S
O60 Eu41 2.418 . S
O60 C42 1.244 . S
O61 Eu40 2.488 . S
O61 C49 1.249 . S
O62 Eu40 2.471 . S
O62 C49 1.244 . S
O63 Eu40 2.349 . S
O63 C42 1.265 1_565 S
C64 C65 1.379 . S
C64 C68 1.373 . S
C64 C70 1.505 . S
C65 C64 1.379 . S
C65 C67 1.369 . S
C65 H76 0.930 . S
C66 C68 1.383 . S
C66 C69 1.382 . S
C66 H77 0.930 . S
C67 C65 1.369 . S
C67 C69 1.392 . S
C67 H78 0.930 . S
C68 C64 1.373 . S
C68 C66 1.383 . S
C68 H79 0.931 . S
C69 C66 1.382 . S
C69 C67 1.392 . S
C70 Eu41 2.828 . S
C70 O54 1.249 . S
C70 O55 1.244 . S
C70 C64 1.505 . S
C71 O58 1.258 . S
C71 O59 1.242 . S
H72 C44 0.930 . S
H73 C45 0.930 . S
H74 C46 0.930 . S
H75 C47 0.931 . S
H76 C65 0.930 . S
H77 C66 0.930 . S
H78 C67 0.930 . S
H79 C68 0.931 . S
Eu80 C89 2.828 . S
Eu80 O91 2.392 . S
Eu80 O93 2.418 . S
Eu80 O98 2.373 . S
Eu80 O101 2.488 . S
Eu80 O102 2.471 . S
Eu80 O103 2.349 . S
Eu81 O90 2.373 . S
Eu81 O94 2.488 . S
Eu81 O95 2.471 . S
Eu81 O96 2.349 . S
Eu81 O99 2.392 . S
Eu81 O100 2.418 . S
Eu81 C110 2.828 . S
C82 O100 1.244 . S
C82 O103 1.265 . S
C83 C84 1.379 . S
C83 C87 1.373 . S
C83 C89 1.505 . S
C84 C83 1.379 . S
C84 C86 1.369 . S
C84 H112 0.930 . S
C85 C87 1.383 . S
C85 C88 1.382 . S
C85 H113 0.930 . S
C86 C84 1.369 . S
C86 C88 1.392 . S
C86 H114 0.930 . S
C87 C83 1.373 . S
C87 C85 1.383 . S
C87 H115 0.931 . S
C88 C85 1.382 . S
C88 C86 1.392 . S
C89 Eu80 2.828 . S
C89 C83 1.505 . S
C89 O101 1.249 . S
C89 O102 1.244 . S
O90 Eu81 2.373 . S
O90 C92 1.258 . S
O91 Eu80 2.392 . S
O91 C92 1.242 . S
C92 O90 1.258 . S
C92 O91 1.242 . S
O93 Eu80 2.418 . S
O93 C97 1.244 . S
O94 Eu81 2.488 . S
O94 C110 1.249 . S
O95 Eu81 2.471 . S
O95 C110 1.244 . S
O96 Eu81 2.349 . S
O96 C97 1.265 . S
C97 O93 1.244 . S
C97 O96 1.265 . S
O98 Eu80 2.373 . S
O98 C111 1.258 . S
O99 Eu81 2.392 . S
O99 C111 1.242 . S
O100 Eu81 2.418 . S
O100 C82 1.244 . S
O101 Eu80 2.488 . S
O101 C89 1.249 . S
O102 Eu80 2.471 . S
O102 C89 1.244 . S
O103 Eu80 2.349 . S
O103 C82 1.265 . S
C104 C105 1.379 . S
C104 C108 1.373 . S
C104 C110 1.505 . S
C105 C104 1.379 . S
C105 C107 1.369 . S
C105 H116 0.930 . S
C106 C108 1.383 . S
C106 C109 1.382 . S
C106 H117 0.930 . S
C107 C105 1.369 . S
C107 C109 1.392 . S
C107 H118 0.930 . S
C108 C104 1.373 . S
C108 C106 1.383 . S
C108 H119 0.931 . S
C109 C106 1.382 . S
C109 C107 1.392 . S
C110 Eu81 2.828 . S
C110 O94 1.249 . S
C110 O95 1.244 . S
C110 C104 1.505 . S
C111 O98 1.258 . S
C111 O99 1.242 . S
H112 C84 0.930 . S
H113 C85 0.930 . S
H114 C86 0.930 . S
H115 C87 0.931 . S
H116 C105 0.930 . S
H117 C106 0.930 . S
H118 C107 0.930 . S
H119 C108 0.931 . S
O120 Cd121 2.300 . S
O120 C127 1.275 . S
Cd121 O120 2.300 . S
Cd121 O129 2.381 . S
Cd121 O130 2.378 . S
O122 Cd123 2.385 . S
O122 C127 1.255 1_565 S
Cd123 O122 2.385 . S
Cd123 O124 2.317 . S
O124 Cd123 2.317 . S
O124 C125 1.232 . S
C125 O124 1.232 . S
C125 O126 1.218 . S
O126 C125 1.218 . S
C127 O120 1.275 . S
C127 O122 1.255 1_545 S
C128 O129 1.258 . S
C128 O130 1.256 . S
O129 Cd121 2.381 . S
O129 C128 1.258 . S
O130 Cd121 2.378 . S
O130 C128 1.256 . S
O131 Cd132 2.300 . S
O131 C138 1.275 . S
Cd132 O131 2.300 . S
Cd132 O140 2.381 . S
Cd132 O141 2.378 . S
O133 Cd134 2.385 . S
O133 C138 1.255 . S
Cd134 O133 2.385 . S
Cd134 O135 2.317 . S
O135 Cd134 2.317 . S
O135 C136 1.232 . S
C136 O135 1.232 . S
C136 O137 1.218 . S
O137 C136 1.218 . S
C138 O131 1.275 . S
C138 O133 1.255 . S
C139 O140 1.258 . S
C139 O141 1.256 . S
O140 Cd132 2.381 . S
O140 C139 1.258 . S
O141 Cd132 2.378 . S
O141 C139 1.256 . S
O142 Cd143 2.300 . S
O142 C149 1.275 . S
Cd143 O142 2.300 . S
Cd143 O151 2.381 . S
Cd143 O152 2.378 . S
O144 Cd145 2.385 . S
O144 C149 1.255 1_655 S
Cd145 O144 2.385 . S
Cd145 O146 2.317 . S
O146 Cd145 2.317 . S
O146 C147 1.232 . S
C147 O146 1.232 . S
C147 O148 1.218 . S
O148 C147 1.218 . S
C149 O142 1.275 . S
C149 O144 1.255 1_455 S
C150 O151 1.258 . S
C150 O152 1.256 . S
O151 Cd143 2.381 . S
O151 C150 1.258 . S
O152 Cd143 2.378 . S
O152 C150 1.256 . S
O153 Cd154 2.300 . S
O153 C160 1.274 1_455 S
Cd154 O153 2.300 . S
Cd154 O162 2.381 . S
Cd154 O163 2.378 . S
O155 Cd156 2.385 . S
O155 C160 1.256 . S
Cd156 O155 2.385 . S
Cd156 O157 2.317 . S
O157 Cd156 2.317 . S
O157 C158 1.232 . S
C158 O157 1.232 . S
C158 O159 1.218 . S
O159 C158 1.218 . S
C160 O153 1.274 1_655 S
C160 O155 1.256 . S
C161 O162 1.258 . S
C161 O163 1.256 . S
O162 Cd154 2.381 . S
O162 C161 1.258 . S
O163 Cd154 2.378 . S
O163 C161 1.256 . S
O164 Cd165 2.300 . S
O164 C171 1.275 1_565 S
Cd165 O164 2.300 . S
Cd165 O173 2.381 . S
Cd165 O174 2.378 . S
O166 Cd167 2.385 . S
O166 C171 1.255 . S
Cd167 O166 2.385 . S
Cd167 O168 2.317 . S
O168 Cd167 2.317 . S
O168 C169 1.232 . S
C169 O168 1.232 . S
C169 O170 1.218 . S
O170 C169 1.218 . S
C171 O164 1.275 1_545 S
C171 O166 1.255 . S
C172 O173 1.258 . S
C172 O174 1.256 . S
O173 Cd165 2.381 . S
O173 C172 1.258 . S
O174 Cd165 2.378 . S
O174 C172 1.256 . S
O175 Cd176 2.300 . S
O175 C182 1.275 . S
Cd176 O175 2.300 . S
Cd176 O184 2.381 . S
Cd176 O185 2.378 . S
O177 Cd178 2.385 . S
O177 C182 1.255 . S
Cd178 O177 2.385 . S
Cd178 O179 2.317 . S
O179 Cd178 2.317 . S
O179 C180 1.232 . S
C180 O179 1.232 . S
C180 O181 1.218 . S
O181 C180 1.218 . S
C182 O175 1.275 . S
C182 O177 1.255 . S
C183 O184 1.258 . S
C183 O185 1.256 . S
O184 Cd176 2.381 . S
O184 C183 1.258 . S
O185 Cd176 2.378 . S
O185 C183 1.256 . S
C186 C187 1.363 . S
C186 C192 1.379 . S
C186 N194 1.356 . S
C187 C186 1.363 . S
C187 C193 1.363 . S
C188 C189 1.363 . S
C188 C193 1.379 . S
C188 N195 1.356 . S
C189 C188 1.363 . S
C189 C192 1.363 . S
N190 C192 1.356 . S
N190 H202 0.984 . S
N190 H203 0.985 . S
N191 C193 1.356 . S
N191 H196 0.984 . S
N191 H197 0.985 . S
C192 C186 1.379 . S
C192 C189 1.363 . S
C192 N190 1.356 . S
C193 C187 1.363 . S
C193 C188 1.379 . S
C193 N191 1.356 . S
N194 C186 1.356 . S
N194 H200 0.984 . S
N194 H201 0.984 . S
N195 C188 1.356 . S
N195 H198 0.984 . S
N195 H199 0.985 . S
H196 N191 0.984 . S
H197 N191 0.985 . S
H198 N195 0.984 . S
H199 N195 0.985 . S
H200 N194 0.984 . S
H201 N194 0.984 . S
H202 N190 0.984 . S
H203 N190 0.985 . S
C204 C205 1.363 . S
C204 C210 1.379 . S
C204 N212 1.356 . S
C205 C204 1.363 . S
C205 C211 1.363 . S
C206 C207 1.363 . S
C206 C211 1.379 . S
C206 N213 1.356 . S
C207 C206 1.363 . S
C207 C210 1.363 . S
N208 C210 1.356 . S
N208 H220 0.984 . S
N208 H221 0.985 . S
N209 C211 1.356 . S
N209 H214 0.984 . S
N209 H215 0.985 . S
C210 C204 1.379 . S
C210 C207 1.363 . S
C210 N208 1.356 . S
C211 C205 1.363 . S
C211 C206 1.379 . S
C211 N209 1.356 . S
N212 C204 1.356 . S
N212 H218 0.984 . S
N212 H219 0.984 . S
N213 C206 1.356 . S
N213 H216 0.984 . S
N213 H217 0.985 . S
H214 N209 0.984 . S
H215 N209 0.985 . S
H216 N213 0.984 . S
H217 N213 0.985 . S
H218 N212 0.984 . S
H219 N212 0.984 . S
H220 N208 0.984 . S
H221 N208 0.985 . S
C222 C223 1.363 . S
C222 C228 1.379 . S
C222 N230 1.356 . S
C223 C222 1.363 . S
C223 C229 1.363 . S
C224 C225 1.363 . S
C224 C229 1.379 . S
C224 N231 1.356 . S
C225 C224 1.363 . S
C225 C228 1.363 . S
N226 C228 1.356 . S
N226 H238 0.984 . S
N226 H239 0.985 . S
N227 C229 1.356 . S
N227 H232 0.984 . S
N227 H233 0.985 . S
C228 C222 1.379 . S
C228 C225 1.363 . S
C228 N226 1.356 . S
C229 C223 1.363 . S
C229 C224 1.379 . S
C229 N227 1.356 . S
N230 C222 1.356 . S
N230 H236 0.984 . S
N230 H237 0.984 . S
N231 C224 1.356 . S
N231 H234 0.984 . S
N231 H235 0.985 . S
H232 N227 0.984 . S
H233 N227 0.985 . S
H234 N231 0.984 . S
H235 N231 0.985 . S
H236 N230 0.984 . S
H237 N230 0.984 . S
H238 N226 0.984 . S
H239 N226 0.985 . S
C240 C241 1.363 . S
C240 C246 1.379 . S
C240 N248 1.356 . S
C241 C240 1.363 . S
C241 C247 1.363 . S
C242 C243 1.363 . S
C242 C247 1.379 . S
C242 N249 1.356 . S
C243 C242 1.363 . S
C243 C246 1.363 . S
N244 C246 1.356 . S
N244 H256 0.984 . S
N244 H257 0.985 . S
N245 C247 1.356 . S
N245 H250 0.984 . S
N245 H251 0.985 . S
C246 C240 1.379 . S
C246 C243 1.363 . S
C246 N244 1.356 . S
C247 C241 1.363 . S
C247 C242 1.379 . S
C247 N245 1.356 . S
N248 C240 1.356 . S
N248 H254 0.984 . S
N248 H255 0.984 . S
N249 C242 1.356 . S
N249 H252 0.984 . S
N249 H253 0.985 . S
H250 N245 0.984 . S
H251 N245 0.985 . S
H252 N249 0.984 . S
H253 N249 0.985 . S
H254 N248 0.984 . S
H255 N248 0.984 . S
H256 N244 0.984 . S
H257 N244 0.985 . S
C258 C259 1.363 . S
C258 C264 1.379 . S
C258 N266 1.356 . S
C259 C258 1.363 . S
C259 C265 1.363 . S
C260 C261 1.363 . S
C260 C265 1.379 . S
C260 N267 1.356 . S
C261 C260 1.363 . S
C261 C264 1.363 . S
N262 C264 1.356 . S
N262 H274 0.984 . S
N262 H275 0.985 . S
N263 C265 1.356 . S
N263 H268 0.984 . S
N263 H269 0.985 . S
C264 C258 1.379 . S
C264 C261 1.363 . S
C264 N262 1.356 . S
C265 C259 1.363 . S
C265 C260 1.379 . S
C265 N263 1.356 . S
N266 C258 1.356 . S
N266 H272 0.984 . S
N266 H273 0.984 . S
N267 C260 1.356 . S
N267 H270 0.984 . S
N267 H271 0.985 . S
H268 N263 0.984 . S
H269 N263 0.985 . S
H270 N267 0.984 . S
H271 N267 0.985 . S
H272 N266 0.984 . S
H273 N266 0.984 . S
H274 N262 0.984 . S
H275 N262 0.985 . S
C276 C277 1.363 . S
C276 C282 1.379 . S
C276 N284 1.356 . S
C277 C276 1.363 . S
C277 C283 1.363 . S
C278 C279 1.363 . S
C278 C283 1.379 . S
C278 N285 1.356 . S
C279 C278 1.363 . S
C279 C282 1.363 . S
N280 C282 1.356 . S
N280 H292 0.984 . S
N280 H293 0.985 . S
N281 C283 1.356 . S
N281 H286 0.984 . S
N281 H287 0.985 . S
C282 C276 1.379 . S
C282 C279 1.363 . S
C282 N280 1.356 . S
C283 C277 1.363 . S
C283 C278 1.379 . S
C283 N281 1.356 . S
N284 C276 1.356 . S
N284 H290 0.984 . S
N284 H291 0.984 . S
N285 C278 1.356 . S
N285 H288 0.984 . S
N285 H289 0.985 . S
H286 N281 0.984 . S
H287 N281 0.985 . S
H288 N285 0.984 . S
H289 N285 0.985 . S
H290 N284 0.984 . S
H291 N284 0.984 . S
H292 N280 0.984 . S
H293 N280 0.985 . S
C294 C295 1.363 . S
C294 C300 1.379 . S
C294 N302 1.356 . S
C295 C294 1.363 . S
C295 C301 1.363 . S
C296 C297 1.363 . S
C296 C301 1.379 . S
C296 N303 1.356 . S
C297 C296 1.363 . S
C297 C300 1.363 . S
N298 C300 1.356 . S
N298 H310 0.984 . S
N298 H311 0.985 . S
N299 C301 1.356 . S
N299 H304 0.984 . S
N299 H305 0.985 . S
C300 C294 1.379 . S
C300 C297 1.363 . S
C300 N298 1.356 . S
C301 C295 1.363 . S
C301 C296 1.379 . S
C301 N299 1.356 . S
N302 C294 1.356 . S
N302 H308 0.984 . S
N302 H309 0.984 . S
N303 C296 1.356 . S
N303 H306 0.984 . S
N303 H307 0.985 . S
H304 N299 0.984 . S
H305 N299 0.985 . S
H306 N303 0.984 . S
H307 N303 0.985 . S
H308 N302 0.984 . S
H309 N302 0.984 . S
H310 N298 0.984 . S
H311 N298 0.985 . S
C312 C313 1.363 . S
C312 C318 1.379 . S
C312 N320 1.356 . S
C313 C312 1.363 . S
C313 C319 1.363 . S
C314 C315 1.363 . S
C314 C319 1.379 . S
C314 N321 1.356 . S
C315 C314 1.363 . S
C315 C318 1.363 . S
N316 C318 1.356 . S
N316 H328 0.984 . S
N316 H329 0.985 . S
N317 C319 1.356 . S
N317 H322 0.984 . S
N317 H323 0.985 . S
C318 C312 1.379 . S
C318 C315 1.363 . S
C318 N316 1.356 . S
C319 C313 1.363 . S
C319 C314 1.379 . S
C319 N317 1.356 . S
N320 C312 1.356 . S
N320 H326 0.984 . S
N320 H327 0.984 . S
N321 C314 1.356 . S
N321 H324 0.984 . S
N321 H325 0.985 . S
H322 N317 0.984 . S
H323 N317 0.985 . S
H324 N321 0.984 . S
H325 N321 0.985 . S
H326 N320 0.984 . S
H327 N320 0.984 . S
H328 N316 0.984 . S
H329 N316 0.985 . S
C330 C331 1.363 . S
C330 C336 1.379 . S
C330 N338 1.356 . S
C331 C330 1.363 . S
C331 C337 1.363 . S
C332 C333 1.363 . S
C332 C337 1.379 . S
C332 N339 1.356 . S
C333 C332 1.363 . S
C333 C336 1.363 . S
N334 C336 1.356 . S
N334 H346 0.984 . S
N334 H347 0.985 . S
N335 C337 1.356 . S
N335 H340 0.984 . S
N335 H341 0.985 . S
C336 C330 1.379 . S
C336 C333 1.363 . S
C336 N334 1.356 . S
C337 C331 1.363 . S
C337 C332 1.379 . S
C337 N335 1.356 . S
N338 C330 1.356 . S
N338 H344 0.984 . S
N338 H345 0.984 . S
N339 C332 1.356 . S
N339 H342 0.984 . S
N339 H343 0.985 . S
H340 N335 0.984 . S
H341 N335 0.985 . S
H342 N339 0.984 . S
H343 N339 0.985 . S
H344 N338 0.984 . S
H345 N338 0.984 . S
H346 N334 0.984 . S
H347 N334 0.985 . S
C348 C349 1.363 . S
C348 C354 1.379 . S
C348 N356 1.356 . S
C349 C348 1.363 . S
C349 C355 1.363 . S
C350 C351 1.363 . S
C350 C355 1.379 . S
C350 N357 1.356 . S
C351 C350 1.363 . S
C351 C354 1.363 . S
N352 C354 1.356 . S
N352 H364 0.984 . S
N352 H365 0.985 . S
N353 C355 1.356 . S
N353 H358 0.984 . S
N353 H359 0.985 . S
C354 C348 1.379 . S
C354 C351 1.363 . S
C354 N352 1.356 . S
C355 C349 1.363 . S
C355 C350 1.379 . S
C355 N353 1.356 . S
N356 C348 1.356 . S
N356 H362 0.984 . S
N356 H363 0.984 . S
N357 C350 1.356 . S
N357 H360 0.984 . S
N357 H361 0.985 . S
H358 N353 0.984 . S
H359 N353 0.985 . S
H360 N357 0.984 . S
H361 N357 0.985 . S
H362 N356 0.984 . S
H363 N356 0.984 . S
H364 N352 0.984 . S
H365 N352 0.985 . S
C366 C367 1.363 . S
C366 C372 1.379 . S
C366 N374 1.356 . S
C367 C366 1.363 . S
C367 C373 1.363 . S
C368 C369 1.363 . S
C368 C373 1.379 . S
C368 N375 1.356 . S
C369 C368 1.363 . S
C369 C372 1.363 . S
N370 C372 1.356 . S
N370 H382 0.984 . S
N370 H383 0.985 . S
N371 C373 1.356 . S
N371 H376 0.984 . S
N371 H377 0.985 . S
C372 C366 1.379 . S
C372 C369 1.363 . S
C372 N370 1.356 . S
C373 C367 1.363 . S
C373 C368 1.379 . S
C373 N371 1.356 . S
N374 C366 1.356 . S
N374 H380 0.984 . S
N374 H381 0.984 . S
N375 C368 1.356 . S
N375 H378 0.984 . S
N375 H379 0.985 . S
H376 N371 0.984 . S
H377 N371 0.985 . S
H378 N375 0.984 . S
H379 N375 0.985 . S
H380 N374 0.984 . S
H381 N374 0.984 . S
H382 N370 0.984 . S
H383 N370 0.985 . S
C384 C385 1.363 . S
C384 C390 1.379 . S
C384 N392 1.356 . S
C385 C384 1.363 . S
C385 C391 1.363 . S
C386 C387 1.363 . S
C386 C391 1.379 . S
C386 N393 1.356 . S
C387 C386 1.363 . S
C387 C390 1.363 . S
N388 C390 1.356 . S
N388 H400 0.984 . S
N388 H401 0.985 . S
N389 C391 1.356 . S
N389 H394 0.984 . S
N389 H395 0.985 . S
C390 C384 1.379 . S
C390 C387 1.363 . S
C390 N388 1.356 . S
C391 C385 1.363 . S
C391 C386 1.379 . S
C391 N389 1.356 . S
N392 C384 1.356 . S
N392 H398 0.984 . S
N392 H399 0.984 . S
N393 C386 1.356 . S
N393 H396 0.984 . S
N393 H397 0.985 . S
H394 N389 0.984 . S
H395 N389 0.985 . S
H396 N393 0.984 . S
H397 N393 0.985 . S
H398 N392 0.984 . S
H399 N392 0.984 . S
H400 N388 0.984 . S
H401 N388 0.985 . S
C402 C403 1.363 . S
C402 C408 1.379 . S
C402 N410 1.356 . S
C403 C402 1.363 . S
C403 C409 1.363 1_455 S
C404 C405 1.363 1_655 S
C404 C409 1.379 1_556 S
C404 N411 1.356 . S
C405 C404 1.363 1_455 S
C405 C408 1.363 1_556 S
N406 C408 1.356 1_556 S
N406 H418 0.984 1_556 S
N406 H419 0.985 . S
N407 C409 1.356 . S
N407 H412 0.984 . S
N407 H413 0.985 . S
C408 C402 1.379 . S
C408 C405 1.363 1_554 S
C408 N406 1.356 1_554 S
C409 C403 1.363 1_655 S
C409 C404 1.379 1_554 S
C409 N407 1.356 . S
N410 C402 1.356 . S
N410 H416 0.984 . S
N410 H417 0.984 . S
N411 C404 1.356 . S
N411 H414 0.984 . S
N411 H415 0.985 . S
H412 N407 0.984 . S
H413 N407 0.985 . S
H414 N411 0.984 . S
H415 N411 0.985 . S
H416 N410 0.984 . S
H417 N410 0.984 . S
H418 N406 0.984 1_554 S
H419 N406 0.985 . S
C420 C421 1.363 1_565 S
C420 C426 1.379 . S
C420 N428 1.356 . S
C421 C420 1.363 1_545 S
C421 C427 1.363 . S
C422 C423 1.363 . S
C422 C427 1.379 . S
C422 N429 1.356 . S
C423 C422 1.363 . S
C423 C426 1.363 1_545 S
N424 C426 1.356 . S
N424 H436 0.984 . S
N424 H437 0.985 . S
N425 C427 1.356 . S
N425 H430 0.984 . S
N425 H431 0.985 . S
C426 C420 1.379 . S
C426 C423 1.363 1_565 S
C426 N424 1.356 . S
C427 C421 1.363 . S
C427 C422 1.379 . S
C427 N425 1.356 . S
N428 C420 1.356 . S
N428 H434 0.984 . S
N428 H435 0.984 . S
N429 C422 1.356 . S
N429 H432 0.984 . S
N429 H433 0.985 . S
H430 N425 0.984 . S
H431 N425 0.985 . S
H432 N429 0.984 . S
H433 N429 0.985 . S
H434 N428 0.984 . S
H435 N428 0.984 . S
H436 N424 0.984 . S
H437 N424 0.985 . S
C438 C439 1.363 . S
C438 C444 1.379 . S
C438 N446 1.356 . S
C439 C438 1.363 . S
C439 C445 1.363 . S
C440 C441 1.363 . S
C440 C445 1.379 . S
C440 N447 1.356 . S
C441 C440 1.363 . S
C441 C444 1.363 . S
N442 C444 1.356 . S
N442 H454 0.984 . S
N442 H455 0.985 . S
N443 C445 1.356 . S
N443 H448 0.984 . S
N443 H449 0.985 . S
C444 C438 1.379 . S
C444 C441 1.363 . S
C444 N442 1.356 . S
C445 C439 1.363 . S
C445 C440 1.379 . S
C445 N443 1.356 . S
N446 C438 1.356 . S
N446 H452 0.984 . S
N446 H453 0.984 . S
N447 C440 1.356 . S
N447 H450 0.984 . S
N447 H451 0.985 . S
H448 N443 0.984 . S
H449 N443 0.985 . S
H450 N447 0.984 . S
H451 N447 0.985 . S
H452 N446 0.984 . S
H453 N446 0.984 . S
H454 N442 0.984 . S
H455 N442 0.985 . S
C456 C457 1.363 . S
C456 C462 1.379 . S
C456 N464 1.356 . S
C457 C456 1.363 . S
C457 C463 1.363 1_545 S
C458 C459 1.363 1_565 S
C458 C463 1.379 . S
C458 N465 1.356 . S
C459 C458 1.363 1_545 S
C459 C462 1.363 . S
N460 C462 1.356 . S
N460 H472 0.984 . S
N460 H473 0.985 . S
N461 C463 1.356 . S
N461 H466 0.984 . S
N461 H467 0.985 . S
C462 C456 1.379 . S
C462 C459 1.363 . S
C462 N460 1.356 . S
C463 C457 1.363 1_565 S
C463 C458 1.379 . S
C463 N461 1.356 . S
N464 C456 1.356 . S
N464 H470 0.984 . S
N464 H471 0.984 . S
N465 C458 1.356 . S
N465 H468 0.984 . S
N465 H469 0.985 . S
H466 N461 0.984 . S
H467 N461 0.985 . S
H468 N465 0.984 . S
H469 N465 0.985 . S
H470 N464 0.984 . S
H471 N464 0.984 . S
H472 N460 0.984 . S
H473 N460 0.985 . S
C474 C475 1.363 . S
C474 C480 1.379 . S
C474 N482 1.356 . S
C475 C474 1.363 . S
C475 C481 1.363 . S
C476 C477 1.363 1_556 S
C476 C481 1.379 . S
C476 N483 1.356 1_556 S
C477 C476 1.363 1_554 S
C477 C480 1.363 1_554 S
N478 C480 1.356 1_554 S
N478 H490 0.984 1_554 S
N478 H491 0.985 . S
N479 C481 1.356 . S
N479 H484 0.984 . S
N479 H485 0.985 . S
C480 C474 1.379 . S
C480 C477 1.363 1_556 S
C480 N478 1.356 1_556 S
C481 C475 1.363 . S
C481 C476 1.379 . S
C481 N479 1.356 . S
N482 C474 1.356 . S
N482 H488 0.984 . S
N482 H489 0.984 . S
N483 C476 1.356 1_554 S
N483 H486 0.984 . S
N483 H487 0.985 . S
H484 N479 0.984 . S
H485 N479 0.985 . S
H486 N483 0.984 . S
H487 N483 0.985 . S
H488 N482 0.984 . S
H489 N482 0.984 . S
H490 N478 0.984 1_556 S
H491 N478 0.985 . S
C492 C493 1.363 . S
C492 C498 1.379 . S
C492 N500 1.356 . S
C493 C492 1.363 . S
C493 C499 1.363 1_655 S
C494 C495 1.363 1_455 S
C494 C499 1.379 . S
C494 N501 1.356 . S
C495 C494 1.363 1_655 S
C495 C498 1.363 . S
N496 C498 1.356 . S
N496 H508 0.984 . S
N496 H509 0.985 . S
N497 C499 1.356 . S
N497 H502 0.984 . S
N497 H503 0.985 . S
C498 C492 1.379 . S
C498 C495 1.363 . S
C498 N496 1.356 . S
C499 C493 1.363 1_455 S
C499 C494 1.379 . S
C499 N497 1.356 . S
N500 C492 1.356 . S
N500 H506 0.984 . S
N500 H507 0.984 . S
N501 C494 1.356 . S
N501 H504 0.984 . S
N501 H505 0.985 . S
H502 N497 0.984 . S
H503 N497 0.985 . S
H504 N501 0.984 . S
H505 N501 0.985 . S
H506 N500 0.984 . S
H507 N500 0.984 . S
H508 N496 0.984 . S
H509 N496 0.985 . S
C187 C12 3.156 . S
C189 C180 2.803 . S
C205 C52 3.163 . S
C207 C158 2.817 . S
C223 C111 2.965 . S
C225 C172 2.882 . S
C241 C31 3.057 . S
C243 C183 2.959 . S
C261 C161 2.956 . S
C259 C71 3.056 . S
C279 C169 2.866 . S
C277 C92 3.228 . S
C295 C48 0.756 . S
C297 C136 0.750 . S
C313 C109 0.780 . S
C315 C147 0.764 . S
C331 C29 0.760 . S
C333 C125 0.755 . S
C351 C139 0.512 . S
C349 C69 0.590 . S
C369 C150 0.401 . S
C367 C88 0.401 . S
C385 C8 0.418 . S
C387 C128 0.379 . S
C405 C149 1.072 . S
C403 C17 1.119 1_455 S
C421 C57 1.128 . S
C423 C127 1.075 . S
C439 C97 1.155 . S
C441 C138 1.087 . S
C459 C171 1.694 . S
C457 C42 1.702 . S
C477 C182 1.697 . S
C475 C82 1.763 . S
C493 C2 1.769 1_655 S
C495 C160 1.701 . S
