# Generated by pormake.
# Topology anh, (6,3)-cn, num edge types: 1
# Building blocks:
#     Node 0, Type 0, BuildingBlock: MIFKUJ_clean_sbu_0, # of connection points: 6
#     Node 1, Type 0, BuildingBlock: MIFKUJ_clean_sbu_0, # of connection points: 6
#     Node 2, Type 0, BuildingBlock: MIFKUJ_clean_sbu_0, # of connection points: 6
#     Node 3, Type 1, BuildingBlock: OLANEW_clean_sbu_2, # of connection points: 3
#     Node 4, Type 1, BuildingBlock: OLANEW_clean_sbu_2, # of connection points: 3
#     Node 5, Type 1, BuildingBlock: OLANEW_clean_sbu_2, # of connection points: 3
#     Node 6, Type 1, BuildingBlock: OLANEW_clean_sbu_2, # of connection points: 3
#     Node 7, Type 1, BuildingBlock: OLANEW_clean_sbu_2, # of connection points: 3
#     Node 8, Type 1, BuildingBlock: OLANEW_clean_sbu_2, # of connection points: 3
#     Edge 9, Type (0, 1), BuildingBlock: UVAHIK_clean_linker_0, # of connection points: 2
#     Edge 10, Type (0, 1), BuildingBlock: UVAHIK_clean_linker_0, # of connection points: 2
#     Edge 11, Type (0, 1), BuildingBlock: UVAHIK_clean_linker_0, # of connection points: 2
#     Edge 12, Type (0, 1), BuildingBlock: UVAHIK_clean_linker_0, # of connection points: 2
#     Edge 13, Type (0, 1), BuildingBlock: UVAHIK_clean_linker_0, # of connection points: 2
#     Edge 14, Type (0, 1), BuildingBlock: UVAHIK_clean_linker_0, # of connection points: 2
#     Edge 15, Type (0, 1), BuildingBlock: UVAHIK_clean_linker_0, # of connection points: 2
#     Edge 16, Type (0, 1), BuildingBlock: UVAHIK_clean_linker_0, # of connection points: 2
#     Edge 17, Type (0, 1), BuildingBlock: UVAHIK_clean_linker_0, # of connection points: 2
#     Edge 18, Type (0, 1), BuildingBlock: UVAHIK_clean_linker_0, # of connection points: 2
#     Edge 19, Type (0, 1), BuildingBlock: UVAHIK_clean_linker_0, # of connection points: 2
#     Edge 20, Type (0, 1), BuildingBlock: UVAHIK_clean_linker_0, # of connection points: 2
#     Edge 21, Type (0, 1), BuildingBlock: UVAHIK_clean_linker_0, # of connection points: 2
#     Edge 22, Type (0, 1), BuildingBlock: UVAHIK_clean_linker_0, # of connection points: 2
#     Edge 23, Type (0, 1), BuildingBlock: UVAHIK_clean_linker_0, # of connection points: 2
#     Edge 24, Type (0, 1), BuildingBlock: UVAHIK_clean_linker_0, # of connection points: 2
#     Edge 25, Type (0, 1), BuildingBlock: UVAHIK_clean_linker_0, # of connection points: 2
#     Edge 26, Type (0, 1), BuildingBlock: UVAHIK_clean_linker_0, # of connection points: 2
# Relax obj value: 0.071
# Max RMSD: 0.125
# Mean RMSD: 0.106
data_MOF--net-anh--node1-MIFKUJ_clean_sbu_0--node2-OLANEW_clean_sbu_2--edge1-UVAHIK_clean_linker_0
_symmetry_space_group_name_H-M    P1
_symmetry_Int_Tables_number       1
_symmetry_cell_setting            triclinic
loop_
_symmetry_equiv_pos_as_xyz
'x, y, z'
_cell_length_a     42.552434
_cell_length_b     42.600267
_cell_length_c     63.038633
_cell_angle_alpha  93.379175
_cell_angle_beta   90.795349
_cell_angle_gamma 120.04397
loop_
_atom_site_label
_atom_site_type_symbol
_atom_site_fract_x
_atom_site_fract_y
_atom_site_fract_z
_atom_type_partial_charge
Zn0 Zn 0.02653 0.55384 0.16715 0.0
Zn1 Zn 0.96539 0.47681 0.16589 0.0
C2 C 0.08566 0.54607 0.18191 0.0
O3 O 0.08689 0.56978 0.1967 0.0
C4 C 0.91264 0.49454 0.15116 0.0
O5 O 0.91001 0.47187 0.13525 0.0
O6 O 0.06047 0.60775 0.16699 0.0
O7 O 0.99804 0.53844 0.13894 0.0
O8 O 0.99131 0.48392 0.1386 0.0
C9 C 0.08248 0.61795 0.15205 0.0
O10 O 0.08025 0.59338 0.13754 0.0
O11 O 0.06045 0.53333 0.16734 0.0
C12 C 0.90178 0.41727 0.17874 0.0
O13 O 0.90558 0.4435 0.19248 0.0
O14 O 0.92628 0.42414 0.1655 0.0
O15 O 0.99477 0.48965 0.19353 0.0
O16 O 0.00114 0.54417 0.19492 0.0
O17 O 0.93647 0.50299 0.16615 0.0
C18 C 0.99514 0.51054 0.12861 0.0
C19 C 0.99903 0.5177 0.20439 0.0
Zn20 Zn 0.53163 0.04783 0.49831 0.0
Zn21 Zn 0.54314 0.98168 0.49691 0.0
C22 C 0.60106 0.10369 0.5142 0.0
O23 O 0.58036 0.10548 0.52895 0.0
C24 C 0.47257 0.9266 0.48151 0.0
O25 O 0.49203 0.92535 0.46582 0.0
O26 O 0.51568 0.08498 0.49857 0.0
O27 O 0.51369 0.01879 0.47008 0.0
O28 O 0.55783 0.00625 0.4695 0.0
C29 C 0.52386 0.10443 0.48278 0.0
O30 O 0.5396 0.09748 0.46684 0.0
O31 O 0.58646 0.07886 0.49909 0.0
C32 C 0.55546 0.92839 0.51348 0.0
O33 O 0.54387 0.93833 0.53036 0.0
O34 O 0.55911 0.94451 0.49658 0.0
O35 O 0.56169 0.01164 0.52496 0.0
O36 O 0.51653 0.02266 0.52546 0.0
O37 O 0.48834 0.95069 0.49688 0.0
C38 C 0.53565 0.01268 0.45967 0.0
C39 C 0.53951 0.01742 0.53537 0.0
Zn40 Zn 0.56224 0.53835 0.83191 0.0
Zn41 Zn 0.48476 0.51894 0.83243 0.0
C42 C 0.55448 0.47226 0.8454 0.0
O43 O 0.5809 0.49586 0.85877 0.0
C44 C 0.49163 0.58472 0.82 0.0
O45 O 0.46437 0.56063 0.80728 0.0
O46 O 0.61593 0.55765 0.83015 0.0
O47 O 0.54628 0.54916 0.80448 0.0
O48 O 0.49248 0.50011 0.80407 0.0
C49 C 0.62544 0.54592 0.81389 0.0
O50 O 0.60037 0.52386 0.79937 0.0
O51 O 0.54065 0.48388 0.83213 0.0
C52 C 0.42345 0.51672 0.84943 0.0
O53 O 0.44954 0.53975 0.86316 0.0
O54 O 0.43129 0.50118 0.83428 0.0
O55 O 0.50061 0.50672 0.85951 0.0
O56 O 0.55342 0.55705 0.86006 0.0
O57 O 0.50731 0.57372 0.83242 0.0
C58 C 0.51895 0.52315 0.79408 0.0
C59 C 0.52787 0.53272 0.86997 0.0
O60 O 0.49592 0.0306 0.22465 0.0
Cd61 Cd 0.48864 0.03465 0.18656 0.0
O62 O 0.52438 0.9998 0.22 0.0
Cd63 Cd 0.50141 0.98363 0.18743 0.0
O64 O 0.44832 0.94812 0.17127 0.0
C65 C 0.42173 0.94664 0.18104 0.0
O66 O 0.42855 0.96752 0.19868 0.0
C67 C 0.51396 0.01713 0.23235 0.0
C68 C 0.55279 0.09415 0.17499 0.0
O69 O 0.52632 0.09776 0.18156 0.0
O70 O 0.54845 0.06208 0.17316 0.0
O71 O 0.56168 0.52318 0.55802 0.0
Cd72 Cd 0.56978 0.52518 0.51973 0.0
O73 O 0.5025 0.48684 0.55417 0.0
Cd74 Cd 0.5039 0.50411 0.52216 0.0
O75 O 0.51676 0.55655 0.51094 0.0
C76 C 0.52888 0.58124 0.52615 0.0
O77 O 0.53259 0.57252 0.5453 0.0
C78 C 0.53142 0.50293 0.5661 0.0
C79 C 0.56138 0.45824 0.50521 0.0
O80 O 0.59258 0.48489 0.51177 0.0
O81 O 0.53436 0.46366 0.50478 0.0
O82 O 0.03387 0.54483 0.89318 0.0
Cd83 Cd 0.04262 0.5534 0.85532 0.0
O84 O 0.99024 0.48772 0.88832 0.0
Cd85 Cd 0.98262 0.49453 0.85502 0.0
O86 O 0.95288 0.51255 0.83553 0.0
C87 C 0.95052 0.53899 0.84414 0.0
O88 O 0.96796 0.55423 0.86257 0.0
C89 C 0.01233 0.51478 0.90075 0.0
C90 C 0.1021 0.54534 0.84625 0.0
O91 O 0.1062 0.57627 0.85284 0.0
O92 O 0.06966 0.51838 0.84306 0.0
O93 O 0.0485 0.52613 0.44252 0.0
Cd94 Cd 0.05902 0.53597 0.48114 0.0
O95 O 0.99522 0.52288 0.44292 0.0
Cd96 Cd 0.98467 0.50439 0.47502 0.0
O97 O 0.94656 0.4556 0.49048 0.0
C98 C 0.93499 0.42585 0.47913 0.0
O99 O 0.9479 0.42683 0.46021 0.0
C100 C 0.02199 0.52576 0.43273 0.0
C101 C 0.12435 0.60179 0.48934 0.0
O102 O 0.12376 0.57136 0.48773 0.0
O103 O 0.09393 0.60105 0.48778 0.0
O104 O 0.55939 0.01848 0.77524 0.0
Cd105 Cd 0.55907 0.01537 0.81381 0.0
O106 O 0.52568 0.04423 0.77316 0.0
Cd107 Cd 0.52595 0.06039 0.8067 0.0
O108 O 0.5227 0.10518 0.82333 0.0
C109 C 0.49964 0.1121 0.81501 0.0
O110 O 0.47875 0.09079 0.79871 0.0
C111 C 0.54224 0.0296 0.76416 0.0
C112 C 0.55079 0.94798 0.82228 0.0
O113 O 0.52317 0.95177 0.8188 0.0
O114 O 0.58246 0.97631 0.82235 0.0
O115 O 0.51697 0.51237 0.10779 0.0
Cd116 Cd 0.52304 0.51438 0.14649 0.0
O117 O 0.50605 0.55776 0.10736 0.0
Cd118 Cd 0.48468 0.552 0.13913 0.0
O119 O 0.43586 0.54435 0.15482 0.0
C120 C 0.40613 0.52533 0.14383 0.0
O121 O 0.40693 0.51074 0.12503 0.0
C122 C 0.5138 0.53567 0.09767 0.0
C123 C 0.59009 0.51963 0.15605 0.0
O124 O 0.56065 0.48872 0.15427 0.0
O125 O 0.58771 0.54814 0.15403 0.0
C126 C 0.11717 0.51602 0.16386 0.0
C127 C 0.11539 0.53749 0.18109 0.0
C128 C 0.14714 0.51095 0.16221 0.0
C129 C 0.24392 0.55522 0.1797 0.0
H130 H 0.23556 0.46425 0.15781 0.0
C131 C 0.37061 0.53996 0.17024 0.0
C132 C 0.37161 0.52198 0.15106 0.0
C133 C 0.33844 0.53889 0.17604 0.0
C134 C 0.23839 0.48992 0.16383 0.0
H135 H 0.14302 0.56918 0.21056 0.0
H136 H 0.19496 0.56007 0.20776 0.0
H137 H 0.18068 0.46748 0.16389 0.0
H138 H 0.33923 0.48785 0.12325 0.0
H139 H 0.28357 0.48638 0.13319 0.0
H140 H 0.30151 0.57793 0.17924 0.0
C141 C 0.17353 0.54765 0.19533 0.0
C142 C 0.20691 0.49176 0.1673 0.0
C143 C 0.14361 0.55269 0.19699 0.0
C144 C 0.33949 0.50204 0.13814 0.0
C145 C 0.30741 0.50098 0.14392 0.0
C146 C 0.27536 0.55341 0.17619 0.0
C147 C 0.176 0.52726 0.17774 0.0
C148 C 0.2093 0.52453 0.1751 0.0
C149 C 0.30656 0.51979 0.16279 0.0
C150 C 0.27303 0.52085 0.168 0.0
H151 H 0.09592 0.50396 0.15133 0.0
H152 H 0.14829 0.49533 0.14836 0.0
H153 H 0.24679 0.58106 0.1854 0.0
H154 H 0.39482 0.55544 0.1806 0.0
H155 H 0.33862 0.55326 0.19084 0.0
C156 C 0.6548 0.16075 0.53042 0.0
C157 C 0.63956 0.13293 0.51389 0.0
C158 C 0.68963 0.19068 0.52914 0.0
C159 C 0.77512 0.22528 0.50063 0.0
H160 H 0.78386 0.31925 0.5148 0.0
C161 C 0.89183 0.35893 0.47269 0.0
C162 C 0.90538 0.39104 0.48609 0.0
C163 C 0.86205 0.32654 0.47825 0.0
C164 C 0.7822 0.29329 0.51113 0.0
H165 H 0.64965 0.11403 0.48345 0.0
H166 H 0.71043 0.16644 0.48115 0.0
H167 H 0.72731 0.26401 0.52054 0.0
H168 H 0.899 0.41391 0.51627 0.0
H169 H 0.84719 0.35716 0.52613 0.0
H170 H 0.82992 0.25467 0.49092 0.0
C171 C 0.6955 0.16497 0.49519 0.0
C172 C 0.74969 0.26154 0.5144 0.0
C173 C 0.66059 0.13497 0.49646 0.0
C174 C 0.88913 0.38971 0.50553 0.0
C175 C 0.85929 0.35723 0.51112 0.0
C176 C 0.80771 0.25707 0.4974 0.0
C177 C 0.71011 0.19355 0.51131 0.0
C178 C 0.74559 0.22714 0.50899 0.0
C179 C 0.84505 0.32535 0.49739 0.0
C180 C 0.81151 0.29149 0.50237 0.0
H181 H 0.63949 0.15994 0.54417 0.0
H182 H 0.70032 0.21189 0.54201 0.0
H183 H 0.77302 0.19922 0.49656 0.0
H184 H 0.90365 0.35893 0.45759 0.0
H185 H 0.85159 0.30272 0.46716 0.0
C186 C 0.4769 0.6328 0.81221 0.0
C187 C 0.50107 0.6233 0.82127 0.0
C188 C 0.4842 0.66865 0.81431 0.0
C189 C 0.55625 0.76303 0.82218 0.0
H190 H 0.47919 0.77993 0.84095 0.0
C191 C 0.57592 0.90802 0.83164 0.0
C192 C 0.54623 0.91169 0.8252 0.0
C193 C 0.57178 0.87353 0.83332 0.0
C194 C 0.5009 0.77575 0.83544 0.0
H195 H 0.55232 0.64416 0.83924 0.0
H196 H 0.56556 0.7074 0.84245 0.0
H197 H 0.46991 0.71857 0.83916 0.0
H198 H 0.48889 0.88202 0.81554 0.0
H199 H 0.48188 0.82216 0.81782 0.0
H200 H 0.58678 0.81987 0.81759 0.0
C201 C 0.54079 0.6868 0.8339 0.0
C202 C 0.4956 0.74058 0.83454 0.0
C203 C 0.53318 0.65067 0.8321 0.0
C204 C 0.51227 0.88018 0.82071 0.0
C205 C 0.50821 0.84576 0.82215 0.0
C206 C 0.56141 0.79823 0.82279 0.0
C207 C 0.51609 0.69598 0.82526 0.0
C208 C 0.52302 0.73379 0.82764 0.0
C209 C 0.53792 0.8419 0.8284 0.0
C210 C 0.53359 0.80498 0.82916 0.0
H211 H 0.45186 0.6124 0.80382 0.0
H212 H 0.4649 0.67506 0.80728 0.0
H213 H 0.57774 0.75846 0.81668 0.0
H214 H 0.60243 0.9318 0.8353 0.0
H215 H 0.59514 0.87172 0.8385 0.0
C216 C 0.86259 0.50135 0.13497 0.0
C217 C 0.88516 0.50608 0.1528 0.0
C218 C 0.83397 0.50839 0.13687 0.0
C219 C 0.77113 0.5086 0.17561 0.0
H220 H 0.74667 0.55583 0.13289 0.0
C221 C 0.6281 0.49125 0.1634 0.0
C222 C 0.62591 0.52215 0.15917 0.0
C223 C 0.66178 0.49297 0.16472 0.0
C224 C 0.75332 0.5429 0.14507 0.0
H225 H 0.89598 0.52285 0.18651 0.0
H226 H 0.84564 0.53485 0.18986 0.0
H227 H 0.80296 0.55382 0.13089 0.0
H228 H 0.65753 0.57933 0.15347 0.0
H229 H 0.71629 0.58219 0.15561 0.0
H230 H 0.72109 0.49699 0.18952 0.0
C231 C 0.85019 0.52567 0.17442 0.0
C232 C 0.7854 0.54151 0.14383 0.0
C233 C 0.87915 0.51906 0.17246 0.0
C234 C 0.65824 0.55502 0.15676 0.0
C235 C 0.6919 0.55663 0.15786 0.0
C236 C 0.73884 0.50964 0.17672 0.0
C237 C 0.827 0.51994 0.15669 0.0
C238 C 0.79448 0.52403 0.15896 0.0
C239 C 0.694 0.52553 0.16163 0.0
C240 C 0.7294 0.52649 0.16134 0.0
H241 H 0.86653 0.49141 0.1196 0.0
H242 H 0.81643 0.50344 0.12296 0.0
H243 H 0.77723 0.49466 0.1874 0.0
H244 H 0.60373 0.46552 0.16534 0.0
H245 H 0.66248 0.46846 0.16746 0.0
C246 C 0.41656 0.87256 0.4647 0.0
C247 C 0.43414 0.89746 0.4824 0.0
C248 C 0.38188 0.84248 0.4661 0.0
C249 C 0.30064 0.80269 0.49882 0.0
H250 H 0.28594 0.71208 0.47144 0.0
C251 C 0.16007 0.66997 0.49031 0.0
C252 C 0.15927 0.63675 0.49168 0.0
C253 C 0.19322 0.70268 0.49058 0.0
C254 C 0.28963 0.73703 0.47939 0.0
H255 H 0.42843 0.91106 0.51528 0.0
H256 H 0.36799 0.85821 0.51783 0.0
H257 H 0.34363 0.76765 0.4689 0.0
H258 H 0.1927 0.61205 0.49535 0.0
H259 H 0.25038 0.66901 0.49624 0.0
H260 H 0.24674 0.77164 0.50972 0.0
C261 C 0.38089 0.86213 0.50277 0.0
C262 C 0.3226 0.76909 0.47765 0.0
C263 C 0.4156 0.89241 0.50132 0.0
C264 C 0.19233 0.63712 0.49409 0.0
C265 C 0.22543 0.66979 0.49445 0.0
C266 C 0.26757 0.7705 0.5006 0.0
C267 C 0.36394 0.83637 0.48529 0.0
C268 C 0.32853 0.80239 0.48724 0.0
C269 C 0.22634 0.70292 0.49229 0.0
C270 C 0.26166 0.73725 0.49089 0.0
H271 H 0.42991 0.87582 0.44981 0.0
H272 H 0.36932 0.8237 0.45217 0.0
H273 H 0.30418 0.82787 0.50631 0.0
H274 H 0.13509 0.67066 0.48839 0.0
H275 H 0.19285 0.72759 0.48869 0.0
C276 C 0.56118 0.42122 0.85808 0.0
C277 C 0.54297 0.43314 0.84489 0.0
C278 C 0.55222 0.38479 0.85664 0.0
C279 C 0.51015 0.30303 0.81904 0.0
H280 H 0.51389 0.25443 0.86835 0.0
C281 C 0.47447 0.15358 0.81148 0.0
C282 C 0.49899 0.1457 0.82172 0.0
C283 C 0.47617 0.18691 0.81596 0.0
C284 C 0.51292 0.26773 0.85443 0.0
H285 H 0.50009 0.41582 0.82036 0.0
H286 H 0.484 0.35208 0.81809 0.0
H287 H 0.52284 0.31577 0.87308 0.0
H288 H 0.54355 0.16612 0.84545 0.0
H289 H 0.54659 0.22448 0.85325 0.0
H290 H 0.50053 0.25521 0.80038 0.0
C291 C 0.50575 0.37106 0.82927 0.0
C292 C 0.51809 0.30288 0.85712 0.0
C293 C 0.51482 0.40757 0.83066 0.0
C294 C 0.52428 0.17134 0.83726 0.0
C295 C 0.52593 0.20473 0.84179 0.0
C296 C 0.50484 0.2679 0.81637 0.0
C297 C 0.5247 0.35931 0.84203 0.0
C298 C 0.51707 0.3211 0.83943 0.0
C299 C 0.50239 0.21318 0.83084 0.0
C300 C 0.50642 0.24991 0.834 0.0
H301 H 0.58304 0.4402 0.86921 0.0
H302 H 0.56772 0.37687 0.86652 0.0
H303 H 0.50988 0.31642 0.80502 0.0
H304 H 0.45444 0.13437 0.79954 0.0
H305 H 0.45723 0.19232 0.80754 0.0
C306 C 0.56179 0.88247 0.53299 0.0
C307 C 0.56004 0.89625 0.5136 0.0
C308 C 0.56203 0.84988 0.53327 0.0
C309 C 0.57386 0.78172 0.50014 0.0
H310 H 0.51456 0.71811 0.54253 0.0
C311 C 0.53307 0.62902 0.50278 0.0
C312 C 0.53648 0.61851 0.52304 0.0
C313 C 0.53832 0.66382 0.50045 0.0
C314 C 0.53143 0.73568 0.5307 0.0
H315 H 0.55846 0.8874 0.47928 0.0
H316 H 0.558 0.8299 0.47975 0.0
H317 H 0.51993 0.77739 0.54076 0.0
H318 H 0.54924 0.63668 0.55657 0.0
H319 H 0.55806 0.69686 0.55247 0.0
H320 H 0.5846 0.73914 0.48993 0.0
C321 C 0.55978 0.84458 0.49475 0.0
C322 C 0.53469 0.76976 0.52974 0.0
C323 C 0.55994 0.87748 0.49448 0.0
C324 C 0.54614 0.64373 0.54076 0.0
C325 C 0.55108 0.67821 0.53845 0.0
C326 C 0.57032 0.74732 0.50101 0.0
C327 C 0.56001 0.83 0.51417 0.0
C328 C 0.55632 0.79345 0.51466 0.0
C329 C 0.5467 0.68844 0.51835 0.0
C330 C 0.54943 0.72421 0.51649 0.0
H331 H 0.56233 0.89655 0.54799 0.0
H332 H 0.56321 0.83997 0.54852 0.0
H333 H 0.59087 0.79935 0.4884 0.0
H334 H 0.52578 0.61022 0.48882 0.0
H335 H 0.53471 0.67105 0.48478 0.0
C336 C 0.68988 0.57496 0.82849 0.0
C337 C 0.66332 0.5538 0.81227 0.0
C338 C 0.72464 0.57923 0.82787 0.0
C339 C 0.76955 0.53084 0.80705 0.0
H340 H 0.85826 0.61974 0.82586 0.0
C341 C 0.9042 0.53151 0.81621 0.0
C342 C 0.92446 0.54885 0.83535 0.0
C343 C 0.87609 0.53723 0.80955 0.0
C344 C 0.83371 0.59466 0.82063 0.0
H345 H 0.653 0.52206 0.78211 0.0
H346 H 0.71357 0.52955 0.78107 0.0
H347 H 0.80145 0.62044 0.82163 0.0
H348 H 0.93252 0.58743 0.86188 0.0
H349 H 0.88318 0.59668 0.8506 0.0
H350 H 0.80109 0.50459 0.80689 0.0
C351 C 0.70738 0.54247 0.79438 0.0
C352 C 0.80122 0.59511 0.81819 0.0
C353 C 0.67272 0.5383 0.79497 0.0
C354 C 0.91737 0.57353 0.84707 0.0
C355 C 0.88916 0.57906 0.8405 0.0
C356 C 0.80191 0.53032 0.80961 0.0
C357 C 0.73348 0.56234 0.81103 0.0
C358 C 0.76869 0.56305 0.8117 0.0
C359 C 0.86752 0.56023 0.82197 0.0
C360 C 0.83429 0.56208 0.81679 0.0
H361 H 0.68352 0.58732 0.84202 0.0
H362 H 0.74407 0.59446 0.84102 0.0
H363 H 0.74484 0.50556 0.80232 0.0
H364 H 0.90923 0.5126 0.8067 0.0
H365 H 0.86043 0.52285 0.79496 0.0
C366 C 0.13963 0.66574 0.13732 0.0
C367 C 0.11247 0.65605 0.15213 0.0
C368 C 0.16989 0.70076 0.13854 0.0
C369 C 0.22332 0.77849 0.17757 0.0
H370 H 0.27287 0.82649 0.12791 0.0
C371 C 0.35499 0.91674 0.18612 0.0
C372 C 0.38379 0.91898 0.17437 0.0
C373 C 0.31955 0.8881 0.18164 0.0
C374 C 0.25934 0.81334 0.14191 0.0
H375 H 0.09487 0.67606 0.1792 0.0
H376 H 0.14739 0.73745 0.1811 0.0
H377 H 0.2142 0.77015 0.12337 0.0
H378 H 0.39766 0.89397 0.14795 0.0
H379 H 0.33566 0.84376 0.1402 0.0
H380 H 0.26857 0.82128 0.19609 0.0
C381 C 0.14568 0.71771 0.16881 0.0
C382 C 0.22578 0.78107 0.13933 0.0
C383 C 0.11547 0.68259 0.16766 0.0
C384 C 0.37608 0.89297 0.15733 0.0
C385 C 0.34053 0.8643 0.15282 0.0
C386 C 0.2567 0.81078 0.18014 0.0
C387 C 0.17362 0.727 0.15453 0.0
C388 C 0.20761 0.76299 0.15714 0.0
C389 C 0.31206 0.86108 0.16529 0.0
C390 C 0.27531 0.82833 0.16235 0.0
H391 H 0.13817 0.64595 0.12515 0.0
H392 H 0.19104 0.70676 0.12745 0.0
H393 H 0.21052 0.765 0.19163 0.0
H394 H 0.3599 0.93651 0.19923 0.0
H395 H 0.29807 0.88669 0.19129 0.0
C396 C 0.51148 0.14974 0.50231 0.0
C397 C 0.52015 0.13717 0.48343 0.0
C398 C 0.51232 0.18302 0.50362 0.0
C399 C 0.51269 0.25338 0.47191 0.0
H400 H 0.56625 0.3182 0.52142 0.0
C401 C 0.52209 0.39272 0.49214 0.0
C402 C 0.55626 0.42169 0.49966 0.0
C403 C 0.51643 0.35748 0.48882 0.0
C404 C 0.55138 0.30047 0.50745 0.0
H405 H 0.53471 0.14876 0.45079 0.0
H406 H 0.53605 0.20675 0.45309 0.0
H407 H 0.55645 0.2566 0.51845 0.0
H408 H 0.61159 0.43661 0.50892 0.0
H409 H 0.60166 0.37515 0.50313 0.0
H410 H 0.50804 0.2976 0.46084 0.0
C411 C 0.52861 0.19089 0.46687 0.0
C412 C 0.54537 0.26506 0.50588 0.0
C413 C 0.52801 0.15774 0.4656 0.0
C414 C 0.58492 0.41489 0.50317 0.0
C415 C 0.57919 0.37965 0.5 0.0
C416 C 0.51846 0.28879 0.47357 0.0
C417 C 0.52158 0.20425 0.48603 0.0
C418 C 0.52614 0.24119 0.48805 0.0
C419 C 0.54475 0.3505 0.49312 0.0
C420 C 0.53814 0.31278 0.49129 0.0
H421 H 0.50524 0.1345 0.51632 0.0
H422 H 0.50631 0.19244 0.51852 0.0
H423 H 0.49764 0.2355 0.45803 0.0
H424 H 0.49945 0.39708 0.48927 0.0
H425 H 0.48956 0.3355 0.48361 0.0
C426 C 0.35834 0.48797 0.83592 0.0
C427 C 0.38706 0.51311 0.85 0.0
C428 C 0.32498 0.48705 0.83544 0.0
C429 C 0.27175 0.52063 0.86609 0.0
H430 H 0.22303 0.50837 0.81119 0.0
C431 C 0.16792 0.56685 0.85329 0.0
C432 C 0.13391 0.54038 0.844 0.0
C433 C 0.19721 0.56073 0.85329 0.0
C434 C 0.23625 0.51152 0.82661 0.0
H435 H 0.40315 0.55669 0.87477 0.0
H436 H 0.34586 0.55585 0.87352 0.0
H437 H 0.27674 0.50161 0.8133 0.0
H438 H 0.10431 0.4874 0.82661 0.0
H439 H 0.15613 0.47718 0.82614 0.0
H440 H 0.23211 0.5321 0.8792 0.0
C441 C 0.34845 0.53612 0.86321 0.0
C442 C 0.26686 0.50745 0.82789 0.0
C443 C 0.38153 0.53676 0.86384 0.0
C444 C 0.13019 0.50826 0.83393 0.0
C445 C 0.15976 0.50241 0.83362 0.0
C446 C 0.24158 0.52525 0.86475 0.0
C447 C 0.31979 0.51147 0.8489 0.0
C448 C 0.28534 0.51251 0.84763 0.0
C449 C 0.19327 0.52829 0.84371 0.0
C450 C 0.22388 0.52123 0.845 0.0
H451 H 0.36176 0.46932 0.82509 0.0
H452 H 0.30336 0.46734 0.82444 0.0
H453 H 0.28462 0.52379 0.88162 0.0
H454 H 0.17167 0.59185 0.86121 0.0
H455 H 0.22293 0.58125 0.86097 0.0
C456 C 0.83688 0.37871 0.18726 0.0
C457 C 0.86742 0.38197 0.17705 0.0
C458 C 0.80346 0.34655 0.18448 0.0
C459 C 0.76002 0.24918 0.17202 0.0
H460 H 0.67546 0.25682 0.15712 0.0
C461 C 0.61616 0.12236 0.1622 0.0
C462 C 0.58802 0.12635 0.17091 0.0
C463 C 0.65038 0.15283 0.16002 0.0
C464 C 0.69868 0.25417 0.16149 0.0
H465 H 0.8871 0.3537 0.15639 0.0
H466 H 0.82846 0.29683 0.15199 0.0
H467 H 0.73554 0.31114 0.15979 0.0
H468 H 0.57352 0.16546 0.18382 0.0
H469 H 0.63311 0.21826 0.1806 0.0
H470 H 0.72319 0.19254 0.17468 0.0
C471 C 0.83058 0.31949 0.16194 0.0
C472 C 0.73309 0.28528 0.16291 0.0
C473 C 0.86403 0.35197 0.16445 0.0
C474 C 0.59454 0.16145 0.17693 0.0
C475 C 0.62876 0.19182 0.17494 0.0
C476 C 0.72549 0.21805 0.17088 0.0
C477 C 0.7999 0.31675 0.17168 0.0
C478 C 0.76398 0.28318 0.16851 0.0
C479 C 0.65727 0.18792 0.16667 0.0
C480 C 0.6943 0.22027 0.16595 0.0
H481 H 0.8385 0.40132 0.19702 0.0
H482 H 0.7803 0.34497 0.19238 0.0
H483 H 0.78344 0.24692 0.17648 0.0
H484 H 0.61192 0.09565 0.15732 0.0
H485 H 0.67148 0.14882 0.15326 0.0
C486 C 0.99212 0.53438 0.09381 0.0
C487 C 0.99631 0.50923 0.10518 0.0
C488 C 0.99393 0.5337 0.07171 0.0
C489 C 0.98957 0.47543 0.02417 0.0
H490 H 0.03441 0.56724 0.99805 0.0
C491 C 0.9825 0.48339 0.93318 0.0
C492 C 0.01223 0.51187 0.92401 0.0
C493 C 0.98141 0.48205 0.95527 0.0
C494 C 0.02224 0.54133 0.00505 0.0
H495 H 0.00578 0.46369 0.10235 0.0
H496 H 0.01009 0.4632 0.06384 0.0
H497 H 0.03151 0.56699 0.03644 0.0
H498 H 0.0648 0.56047 0.93072 0.0
H499 H 0.06355 0.55747 0.96914 0.0
H500 H 0.98159 0.44987 0.99278 0.0
C501 C 0.00449 0.4829 0.07189 0.0
C502 C 0.02 0.54117 0.02711 0.0
C503 C 0.00221 0.48329 0.094 0.0
C504 C 0.04132 0.53837 0.93733 0.0
C505 C 0.04047 0.53677 0.95938 0.0
C506 C 0.99217 0.47561 0.00209 0.0
C507 C 1.00047 0.50818 0.06047 0.0
C508 C 0.0034 0.50822 0.03696 0.0
C509 C 0.01025 0.50892 0.96868 0.0
C510 C 0.00837 0.50857 0.99223 0.0
H511 H 0.98722 0.5545 0.10197 0.0
H512 H 0.98992 0.55309 0.06344 0.0
H513 H 0.97625 0.4495 0.03115 0.0
H514 H 0.95957 0.46266 0.92333 0.0
H515 H 0.95747 0.46047 0.96182 0.0
C516 C 0.55704 0.00332 0.42425 0.0
C517 C 0.53584 0.0139 0.43627 0.0
C518 C 0.55755 0.00506 0.40217 0.0
C519 C 0.5405 0.05039 0.3593 0.0
H520 H 0.52918 0.96854 0.32277 0.0
C521 C 0.50608 0.03567 0.26939 0.0
C522 C 0.52126 0.02025 0.25563 0.0
C523 C 0.51105 0.03676 0.29141 0.0
C524 C 0.533 0.9919 0.33273 0.0
H525 H 0.4985 0.03452 0.43453 0.0
H526 H 0.49951 0.0376 0.39606 0.0
H527 H 0.5317 0.96655 0.36132 0.0
H528 H 0.55447 0.99479 0.25422 0.0
H529 H 0.56371 0.99732 0.2927 0.0
H530 H 0.54184 0.07581 0.33082 0.0
C531 C 0.5159 0.0282 0.40373 0.0
C532 C 0.53433 0.99069 0.35482 0.0
C533 C 0.51515 0.02619 0.42575 0.0
C534 C 0.54225 0.00669 0.26439 0.0
C535 C 0.54736 0.00794 0.28644 0.0
C536 C 0.5394 0.05171 0.33724 0.0
C537 C 0.53713 0.0177 0.39171 0.0
C538 C 0.53763 0.01973 0.36831 0.0
C539 C 0.5315 0.02266 0.30022 0.0
C540 C 0.53515 0.02228 0.32368 0.0
H541 H 0.57327 0.99371 0.43188 0.0
H542 H 0.57433 0.99701 0.39331 0.0
H543 H 0.54367 0.07343 0.36934 0.0
H544 H 0.48965 0.04625 0.26319 0.0
H545 H 0.49799 0.0478 0.30152 0.0
C546 C 0.48744 0.49339 0.75854 0.0
C547 C 0.51872 0.51946 0.7706 0.0
C548 C 0.48769 0.48998 0.73634 0.0
C549 C 0.53857 0.54056 0.69099 0.0
H550 H 0.49051 0.44545 0.66014 0.0
C551 C 0.56098 0.52188 0.60275 0.0
C552 C 0.52968 0.50039 0.58941 0.0
C553 C 0.55893 0.52223 0.62482 0.0
C554 C 0.50381 0.47217 0.66856 0.0
H555 H 0.57495 0.56202 0.76883 0.0
H556 H 0.57558 0.55561 0.73034 0.0
H557 H 0.48791 0.45027 0.69884 0.0
H558 H 0.47191 0.46128 0.58885 0.0
H559 H 0.46844 0.46182 0.62753 0.0
H560 H 0.55483 0.56243 0.66079 0.0
C561 C 0.55057 0.53832 0.73791 0.0
C562 C 0.50224 0.47497 0.6907 0.0
C563 C 0.55026 0.54187 0.76002 0.0
C564 C 0.49651 0.4782 0.59868 0.0
C565 C 0.49452 0.47839 0.62081 0.0
C566 C 0.54033 0.53774 0.66894 0.0
C567 C 0.51928 0.51246 0.72577 0.0
C568 C 0.51982 0.50922 0.70218 0.0
C569 C 0.5256 0.50095 0.63408 0.0
C570 C 0.52317 0.50354 0.6575 0.0
H571 H 0.46269 0.47577 0.76623 0.0
H572 H 0.46299 0.47006 0.72746 0.0
H573 H 0.55173 0.5674 0.69925 0.0
H574 H 0.58701 0.53918 0.59616 0.0
H575 H 0.58344 0.53945 0.63467 0.0
C576 C 0.51736 0.0264 0.57055 0.0
C577 C 0.54023 0.01773 0.55886 0.0
C578 C 0.51765 0.02622 0.5927 0.0
C579 C 0.57349 0.03048 0.63947 0.0
H580 H 0.48235 0.99315 0.6675 0.0
C581 C 0.5627 0.01348 0.73008 0.0
C582 C 0.54161 0.02591 0.74061 0.0
C583 C 0.56245 0.01083 0.70784 0.0
C584 C 0.50804 0.00388 0.6599 0.0
H585 H 0.58145 0.00215 0.5613 0.0
H586 H 0.58151 0.00128 0.59992 0.0
H587 H 0.48223 0.99183 0.6288 0.0
H588 H 0.50348 0.04501 0.73597 0.0
H589 H 0.50312 0.04038 0.69733 0.0
H590 H 0.59923 0.04248 0.67067 0.0
C591 C 0.56372 0.00872 0.59199 0.0
C592 C 0.508 0.00321 0.63773 0.0
C593 C 0.56352 0.00903 0.56983 0.0
C594 C 0.52004 0.0353 0.72841 0.0
C595 C 0.51964 0.03244 0.70623 0.0
C596 C 0.57351 0.03101 0.66166 0.0
C597 C 0.54072 0.01723 0.60368 0.0
C598 C 0.54075 0.01683 0.62725 0.0
C599 C 0.5409 0.02029 0.6957 0.0
C600 C 0.54081 0.01804 0.67212 0.0
H601 H 0.49924 0.03343 0.56261 0.0
H602 H 0.50004 0.03353 0.60124 0.0
H603 H 0.59924 0.0416 0.63192 0.0
H604 H 0.5796 0.00602 0.739 0.0
H605 H 0.57888 0.00108 0.70015 0.0
C606 C 0.5107 0.50223 0.90395 0.0
C607 C 0.5298 0.53425 0.89341 0.0
C608 C 0.51198 0.50357 0.92615 0.0
C609 C 0.52029 0.56019 0.97282 0.0
H610 H 0.54952 0.50179 0.00333 0.0
C611 C 0.52805 0.56873 0.06449 0.0
C612 C 0.51863 0.53682 0.07451 0.0
C613 C 0.53203 0.56968 0.04253 0.0
C614 C 0.5407 0.51786 0.99511 0.0
H615 H 0.56505 0.59275 0.89773 0.0
H616 H 0.56624 0.59516 0.93672 0.0
H617 H 0.5509 0.50051 0.96463 0.0
H618 H 0.50569 0.48078 0.06945 0.0
H619 H 0.51079 0.48173 0.03108 0.0
H620 H 0.50823 0.57627 0.00289 0.0
C621 C 0.55078 0.56908 0.9277 0.0
C622 C 0.5418 0.51729 0.97295 0.0
C623 C 0.55019 0.56766 0.90547 0.0
C624 C 0.51328 0.50587 0.06216 0.0
C625 C 0.51648 0.50656 0.04014 0.0
C626 C 0.51843 0.56021 0.99492 0.0
C627 C 0.53172 0.53703 0.93819 0.0
C628 C 0.53161 0.53845 0.96165 0.0
C629 C 0.52589 0.53848 0.02998 0.0
C630 C 0.52859 0.53902 0.00642 0.0
H631 H 0.49492 0.4761 0.89503 0.0
H632 H 0.49693 0.47855 0.93394 0.0
H633 H 0.51192 0.57642 0.96436 0.0
H634 H 0.53272 0.59314 0.07365 0.0
H635 H 0.54012 0.59503 0.03547 0.0
C636 C 0.99362 0.54255 0.24024 0.0
C637 C 0.00238 0.51981 0.22783 0.0
C638 C 0.99629 0.54402 0.26244 0.0
C639 C 0.00429 0.49364 0.3068 0.0
H640 H 0.03074 0.58344 0.34035 0.0
C641 C 0.04275 0.51724 0.39702 0.0
C642 C 0.02173 0.52758 0.4094 0.0
C643 C 0.04112 0.51719 0.37487 0.0
C644 C 0.02324 0.5582 0.33111 0.0
H645 H 0.02181 0.48162 0.22878 0.0
H646 H 0.02819 0.48539 0.26738 0.0
H647 H 0.02731 0.58184 0.30159 0.0
H648 H 0.98336 0.54696 0.40835 0.0
H649 H 0.98143 0.54789 0.36956 0.0
H650 H 0.00161 0.4706 0.33651 0.0
C651 C 0.01784 0.50107 0.26016 0.0
C652 C 0.02099 0.55712 0.30891 0.0
C653 C 0.01443 0.49904 0.23799 0.0
C654 C 0.99975 0.53873 0.39922 0.0
C655 C 0.99874 0.53942 0.37708 0.0
C656 C 0.00728 0.49498 0.32896 0.0
C657 C 0.00852 0.52334 0.27273 0.0
C658 C 0.01132 0.52475 0.29642 0.0
C659 C 0.01908 0.52823 0.36474 0.0
C660 C 0.01661 0.5272 0.34128 0.0
H661 H 0.98402 0.55868 0.23279 0.0
H662 H 0.98819 0.56097 0.27149 0.0
H663 H 0.99595 0.46798 0.29786 0.0
H664 H 0.05983 0.50839 0.40442 0.0
H665 H 0.05715 0.5086 0.36563 0.0
loop_
_geom_bond_atom_site_label_1
_geom_bond_atom_site_label_2
_geom_bond_distance
_geom_bond_site_symmetry_2
_ccdc_geom_bond_type
Zn0 O6 1.969 . S
Zn0 O7 1.965 . S
Zn0 O11 2.024 . S
Zn0 O16 1.969 . S
Zn1 O8 1.969 . S
Zn1 O14 1.969 . S
Zn1 O15 1.965 . S
Zn1 O17 2.024 . S
C2 O3 1.229 . S
C2 O11 1.058 . S
O3 C2 1.229 . S
C4 O5 1.229 . S
C4 O17 1.058 . S
O5 C4 1.229 . S
O6 Zn0 1.969 . S
O6 C9 1.267 . S
O7 Zn0 1.965 . S
O7 C18 1.260 1_455 S
O8 Zn1 1.969 . S
O8 C18 1.258 . S
C9 O6 1.267 . S
C9 O10 1.228 . S
O10 C9 1.228 . S
O11 Zn0 2.024 . S
O11 C2 1.058 . S
C12 O13 1.228 . S
C12 O14 1.267 . S
O13 C12 1.228 . S
O14 Zn1 1.969 . S
O14 C12 1.267 . S
O15 Zn1 1.965 . S
O15 C19 1.260 1_655 S
O16 Zn0 1.969 . S
O16 C19 1.258 . S
O17 Zn1 2.024 . S
O17 C4 1.058 . S
C18 O7 1.260 1_655 S
C18 O8 1.258 . S
C19 O15 1.260 1_455 S
C19 O16 1.258 . S
Zn20 O26 1.969 . S
Zn20 O27 1.965 . S
Zn20 O31 2.024 . S
Zn20 O36 1.969 . S
Zn21 O28 1.969 . S
Zn21 O34 1.969 . S
Zn21 O35 1.965 . S
Zn21 O37 2.024 . S
C22 O23 1.229 . S
C22 O31 1.058 . S
O23 C22 1.229 . S
C24 O25 1.229 . S
C24 O37 1.058 . S
O25 C24 1.229 . S
O26 Zn20 1.969 . S
O26 C29 1.267 . S
O27 Zn20 1.965 . S
O27 C38 1.260 . S
O28 Zn21 1.969 . S
O28 C38 1.258 1_565 S
C29 O26 1.267 . S
C29 O30 1.228 . S
O30 C29 1.228 . S
O31 Zn20 2.024 . S
O31 C22 1.058 . S
C32 O33 1.228 . S
C32 O34 1.267 . S
O33 C32 1.228 . S
O34 Zn21 1.969 . S
O34 C32 1.267 . S
O35 Zn21 1.965 . S
O35 C39 1.260 1_565 S
O36 Zn20 1.969 . S
O36 C39 1.258 . S
O37 Zn21 2.024 . S
O37 C24 1.058 . S
C38 O27 1.260 . S
C38 O28 1.258 1_545 S
C39 O35 1.260 1_545 S
C39 O36 1.258 . S
Zn40 O46 1.969 . S
Zn40 O47 1.965 . S
Zn40 O51 2.024 . S
Zn40 O56 1.969 . S
Zn41 O48 1.969 . S
Zn41 O54 1.969 . S
Zn41 O55 1.965 . S
Zn41 O57 2.024 . S
C42 O43 1.229 . S
C42 O51 1.058 . S
O43 C42 1.229 . S
C44 O45 1.229 . S
C44 O57 1.058 . S
O45 C44 1.229 . S
O46 Zn40 1.969 . S
O46 C49 1.267 . S
O47 Zn40 1.965 . S
O47 C58 1.260 . S
O48 Zn41 1.969 . S
O48 C58 1.258 . S
C49 O46 1.267 . S
C49 O50 1.228 . S
O50 C49 1.228 . S
O51 Zn40 2.024 . S
O51 C42 1.058 . S
C52 O53 1.228 . S
C52 O54 1.267 . S
O53 C52 1.228 . S
O54 Zn41 1.969 . S
O54 C52 1.267 . S
O55 Zn41 1.965 . S
O55 C59 1.260 . S
O56 Zn40 1.969 . S
O56 C59 1.258 . S
O57 Zn41 2.024 . S
O57 C44 1.058 . S
C58 O47 1.260 . S
C58 O48 1.258 . S
C59 O55 1.260 . S
C59 O56 1.258 . S
O60 Cd61 2.300 . S
O60 C67 1.275 . S
Cd61 O60 2.300 . S
Cd61 O69 2.381 . S
Cd61 O70 2.378 . S
O62 Cd63 2.385 1_545 S
O62 C67 1.255 . S
Cd63 O62 2.385 1_565 S
Cd63 O64 2.317 . S
O64 Cd63 2.317 . S
O64 C65 1.232 . S
C65 O64 1.232 . S
C65 O66 1.218 . S
O66 C65 1.218 . S
C67 O60 1.275 . S
C67 O62 1.255 . S
C68 O69 1.258 . S
C68 O70 1.256 . S
O69 Cd61 2.381 . S
O69 C68 1.258 . S
O70 Cd61 2.378 . S
O70 C68 1.256 . S
O71 Cd72 2.300 . S
O71 C78 1.275 . S
Cd72 O71 2.300 . S
Cd72 O80 2.381 . S
Cd72 O81 2.378 . S
O73 Cd74 2.385 . S
O73 C78 1.255 . S
Cd74 O73 2.385 . S
Cd74 O75 2.317 . S
O75 Cd74 2.317 . S
O75 C76 1.232 . S
C76 O75 1.232 . S
C76 O77 1.218 . S
O77 C76 1.218 . S
C78 O71 1.275 . S
C78 O73 1.255 . S
C79 O80 1.258 . S
C79 O81 1.256 . S
O80 Cd72 2.381 . S
O80 C79 1.258 . S
O81 Cd72 2.378 . S
O81 C79 1.256 . S
O82 Cd83 2.300 . S
O82 C89 1.275 . S
Cd83 O82 2.300 . S
Cd83 O91 2.381 . S
Cd83 O92 2.378 . S
O84 Cd85 2.385 1_455 S
O84 C89 1.255 . S
Cd85 O84 2.385 1_655 S
Cd85 O86 2.317 . S
O86 Cd85 2.317 . S
O86 C87 1.232 . S
C87 O86 1.232 . S
C87 O88 1.218 . S
O88 C87 1.218 . S
C89 O82 1.275 . S
C89 O84 1.255 . S
C90 O91 1.258 . S
C90 O92 1.256 . S
O91 Cd83 2.381 . S
O91 C90 1.258 . S
O92 Cd83 2.378 . S
O92 C90 1.256 . S
O93 Cd94 2.300 . S
O93 C100 1.275 . S
Cd94 O93 2.300 . S
Cd94 O102 2.381 . S
Cd94 O103 2.378 . S
O95 Cd96 2.385 . S
O95 C100 1.255 1_655 S
Cd96 O95 2.385 . S
Cd96 O97 2.317 . S
O97 Cd96 2.317 . S
O97 C98 1.232 . S
C98 O97 1.232 . S
C98 O99 1.218 . S
O99 C98 1.218 . S
C100 O93 1.275 . S
C100 O95 1.255 1_455 S
C101 O102 1.258 . S
C101 O103 1.256 . S
O102 Cd94 2.381 . S
O102 C101 1.258 . S
O103 Cd94 2.378 . S
O103 C101 1.256 . S
O104 Cd105 2.300 . S
O104 C111 1.275 1_565 S
Cd105 O104 2.300 . S
Cd105 O113 2.381 . S
Cd105 O114 2.378 . S
O106 Cd107 2.385 . S
O106 C111 1.255 . S
Cd107 O106 2.385 . S
Cd107 O108 2.317 . S
O108 Cd107 2.317 . S
O108 C109 1.232 . S
C109 O108 1.232 . S
C109 O110 1.218 . S
O110 C109 1.218 . S
C111 O104 1.275 1_545 S
C111 O106 1.255 . S
C112 O113 1.258 . S
C112 O114 1.256 . S
O113 Cd105 2.381 . S
O113 C112 1.258 . S
O114 Cd105 2.378 . S
O114 C112 1.256 . S
O115 Cd116 2.300 . S
O115 C122 1.275 . S
Cd116 O115 2.300 . S
Cd116 O124 2.381 . S
Cd116 O125 2.378 . S
O117 Cd118 2.385 . S
O117 C122 1.255 . S
Cd118 O117 2.385 . S
Cd118 O119 2.317 . S
O119 Cd118 2.317 . S
O119 C120 1.232 . S
C120 O119 1.232 . S
C120 O121 1.218 . S
O121 C120 1.218 . S
C122 O115 1.275 . S
C122 O117 1.255 . S
C123 O124 1.258 . S
C123 O125 1.256 . S
O124 Cd116 2.381 . S
O124 C123 1.258 . S
O125 Cd116 2.378 . S
O125 C123 1.256 . S
C126 C127 1.349 . S
C126 C128 1.327 . S
C126 H151 0.950 . S
C127 C126 1.349 . S
C127 C143 1.349 . S
C128 C126 1.327 . S
C128 C147 1.429 . S
C128 H152 0.950 . S
C129 C146 1.574 . S
C129 C148 1.368 . S
C129 H153 0.949 . S
H130 C134 0.949 . S
C131 C132 1.349 . S
C131 C133 1.327 . S
C131 H154 0.950 . S
C132 C131 1.349 . S
C132 C144 1.349 . S
C133 C131 1.327 . S
C133 C149 1.429 . S
C133 H155 0.950 . S
C134 H130 0.949 . S
C134 C142 1.574 . S
C134 C150 1.368 . S
H135 C143 0.950 . S
H136 C141 0.950 . S
H137 C142 0.949 . S
H138 C144 0.950 . S
H139 C145 0.950 . S
H140 C146 0.949 . S
C141 H136 0.950 . S
C141 C143 1.327 . S
C141 C147 1.429 . S
C142 C134 1.574 . S
C142 H137 0.949 . S
C142 C148 1.368 . S
C143 C127 1.349 . S
C143 H135 0.950 . S
C143 C141 1.327 . S
C144 C132 1.349 . S
C144 H138 0.950 . S
C144 C145 1.327 . S
C145 H139 0.950 . S
C145 C144 1.327 . S
C145 C149 1.429 . S
C146 C129 1.574 . S
C146 H140 0.949 . S
C146 C150 1.368 . S
C147 C128 1.429 . S
C147 C141 1.429 . S
C147 C148 1.523 . S
C148 C129 1.368 . S
C148 C142 1.368 . S
C148 C147 1.523 . S
C149 C133 1.429 . S
C149 C145 1.429 . S
C149 C150 1.523 . S
C150 C134 1.368 . S
C150 C146 1.368 . S
C150 C149 1.523 . S
H151 C126 0.950 . S
H152 C128 0.950 . S
H153 C129 0.949 . S
H154 C131 0.950 . S
H155 C133 0.950 . S
C156 C157 1.349 . S
C156 C158 1.327 . S
C156 H181 0.950 . S
C157 C156 1.349 . S
C157 C173 1.349 . S
C158 C156 1.327 . S
C158 C177 1.429 . S
C158 H182 0.950 . S
C159 C176 1.574 . S
C159 C178 1.368 . S
C159 H183 0.949 . S
H160 C164 0.949 . S
C161 C162 1.349 . S
C161 C163 1.327 . S
C161 H184 0.950 . S
C162 C161 1.349 . S
C162 C174 1.349 . S
C163 C161 1.327 . S
C163 C179 1.429 . S
C163 H185 0.950 . S
C164 H160 0.949 . S
C164 C172 1.574 . S
C164 C180 1.368 . S
H165 C173 0.950 . S
H166 C171 0.950 . S
H167 C172 0.949 . S
H168 C174 0.950 . S
H169 C175 0.950 . S
H170 C176 0.949 . S
C171 H166 0.950 . S
C171 C173 1.327 . S
C171 C177 1.429 . S
C172 C164 1.574 . S
C172 H167 0.949 . S
C172 C178 1.368 . S
C173 C157 1.349 . S
C173 H165 0.950 . S
C173 C171 1.327 . S
C174 C162 1.349 . S
C174 H168 0.950 . S
C174 C175 1.327 . S
C175 H169 0.950 . S
C175 C174 1.327 . S
C175 C179 1.429 . S
C176 C159 1.574 . S
C176 H170 0.949 . S
C176 C180 1.368 . S
C177 C158 1.429 . S
C177 C171 1.429 . S
C177 C178 1.523 . S
C178 C159 1.368 . S
C178 C172 1.368 . S
C178 C177 1.523 . S
C179 C163 1.429 . S
C179 C175 1.429 . S
C179 C180 1.523 . S
C180 C164 1.368 . S
C180 C176 1.368 . S
C180 C179 1.523 . S
H181 C156 0.950 . S
H182 C158 0.950 . S
H183 C159 0.949 . S
H184 C161 0.950 . S
H185 C163 0.950 . S
C186 C187 1.349 . S
C186 C188 1.327 . S
C186 H211 0.950 . S
C187 C186 1.349 . S
C187 C203 1.349 . S
C188 C186 1.327 . S
C188 C207 1.429 . S
C188 H212 0.950 . S
C189 C206 1.574 . S
C189 C208 1.368 . S
C189 H213 0.949 . S
H190 C194 0.949 . S
C191 C192 1.349 . S
C191 C193 1.327 . S
C191 H214 0.950 . S
C192 C191 1.349 . S
C192 C204 1.349 . S
C193 C191 1.327 . S
C193 C209 1.429 . S
C193 H215 0.950 . S
C194 H190 0.949 . S
C194 C202 1.574 . S
C194 C210 1.368 . S
H195 C203 0.950 . S
H196 C201 0.950 . S
H197 C202 0.949 . S
H198 C204 0.950 . S
H199 C205 0.950 . S
H200 C206 0.949 . S
C201 H196 0.950 . S
C201 C203 1.327 . S
C201 C207 1.429 . S
C202 C194 1.574 . S
C202 H197 0.949 . S
C202 C208 1.368 . S
C203 C187 1.349 . S
C203 H195 0.950 . S
C203 C201 1.327 . S
C204 C192 1.349 . S
C204 H198 0.950 . S
C204 C205 1.327 . S
C205 H199 0.950 . S
C205 C204 1.327 . S
C205 C209 1.429 . S
C206 C189 1.574 . S
C206 H200 0.949 . S
C206 C210 1.368 . S
C207 C188 1.429 . S
C207 C201 1.429 . S
C207 C208 1.523 . S
C208 C189 1.368 . S
C208 C202 1.368 . S
C208 C207 1.523 . S
C209 C193 1.429 . S
C209 C205 1.429 . S
C209 C210 1.523 . S
C210 C194 1.368 . S
C210 C206 1.368 . S
C210 C209 1.523 . S
H211 C186 0.950 . S
H212 C188 0.950 . S
H213 C189 0.949 . S
H214 C191 0.950 . S
H215 C193 0.950 . S
C216 C217 1.349 . S
C216 C218 1.327 . S
C216 H241 0.950 . S
C217 C216 1.349 . S
C217 C233 1.349 . S
C218 C216 1.327 . S
C218 C237 1.429 . S
C218 H242 0.950 . S
C219 C236 1.574 . S
C219 C238 1.368 . S
C219 H243 0.949 . S
H220 C224 0.949 . S
C221 C222 1.349 . S
C221 C223 1.327 . S
C221 H244 0.950 . S
C222 C221 1.349 . S
C222 C234 1.349 . S
C223 C221 1.327 . S
C223 C239 1.429 . S
C223 H245 0.950 . S
C224 H220 0.949 . S
C224 C232 1.574 . S
C224 C240 1.368 . S
H225 C233 0.950 . S
H226 C231 0.950 . S
H227 C232 0.949 . S
H228 C234 0.950 . S
H229 C235 0.950 . S
H230 C236 0.949 . S
C231 H226 0.950 . S
C231 C233 1.327 . S
C231 C237 1.429 . S
C232 C224 1.574 . S
C232 H227 0.949 . S
C232 C238 1.368 . S
C233 C217 1.349 . S
C233 H225 0.950 . S
C233 C231 1.327 . S
C234 C222 1.349 . S
C234 H228 0.950 . S
C234 C235 1.327 . S
C235 H229 0.950 . S
C235 C234 1.327 . S
C235 C239 1.429 . S
C236 C219 1.574 . S
C236 H230 0.949 . S
C236 C240 1.368 . S
C237 C218 1.429 . S
C237 C231 1.429 . S
C237 C238 1.523 . S
C238 C219 1.368 . S
C238 C232 1.368 . S
C238 C237 1.523 . S
C239 C223 1.429 . S
C239 C235 1.429 . S
C239 C240 1.523 . S
C240 C224 1.368 . S
C240 C236 1.368 . S
C240 C239 1.523 . S
H241 C216 0.950 . S
H242 C218 0.950 . S
H243 C219 0.949 . S
H244 C221 0.950 . S
H245 C223 0.950 . S
C246 C247 1.349 . S
C246 C248 1.327 . S
C246 H271 0.950 . S
C247 C246 1.349 . S
C247 C263 1.349 . S
C248 C246 1.327 . S
C248 C267 1.429 . S
C248 H272 0.950 . S
C249 C266 1.574 . S
C249 C268 1.368 . S
C249 H273 0.949 . S
H250 C254 0.949 . S
C251 C252 1.349 . S
C251 C253 1.327 . S
C251 H274 0.950 . S
C252 C251 1.349 . S
C252 C264 1.349 . S
C253 C251 1.327 . S
C253 C269 1.429 . S
C253 H275 0.950 . S
C254 H250 0.949 . S
C254 C262 1.574 . S
C254 C270 1.368 . S
H255 C263 0.950 . S
H256 C261 0.950 . S
H257 C262 0.949 . S
H258 C264 0.950 . S
H259 C265 0.950 . S
H260 C266 0.949 . S
C261 H256 0.950 . S
C261 C263 1.327 . S
C261 C267 1.429 . S
C262 C254 1.574 . S
C262 H257 0.949 . S
C262 C268 1.368 . S
C263 C247 1.349 . S
C263 H255 0.950 . S
C263 C261 1.327 . S
C264 C252 1.349 . S
C264 H258 0.950 . S
C264 C265 1.327 . S
C265 H259 0.950 . S
C265 C264 1.327 . S
C265 C269 1.429 . S
C266 C249 1.574 . S
C266 H260 0.949 . S
C266 C270 1.368 . S
C267 C248 1.429 . S
C267 C261 1.429 . S
C267 C268 1.523 . S
C268 C249 1.368 . S
C268 C262 1.368 . S
C268 C267 1.523 . S
C269 C253 1.429 . S
C269 C265 1.429 . S
C269 C270 1.523 . S
C270 C254 1.368 . S
C270 C266 1.368 . S
C270 C269 1.523 . S
H271 C246 0.950 . S
H272 C248 0.950 . S
H273 C249 0.949 . S
H274 C251 0.950 . S
H275 C253 0.950 . S
C276 C277 1.349 . S
C276 C278 1.327 . S
C276 H301 0.950 . S
C277 C276 1.349 . S
C277 C293 1.349 . S
C278 C276 1.327 . S
C278 C297 1.429 . S
C278 H302 0.950 . S
C279 C296 1.574 . S
C279 C298 1.368 . S
C279 H303 0.949 . S
H280 C284 0.949 . S
C281 C282 1.349 . S
C281 C283 1.327 . S
C281 H304 0.950 . S
C282 C281 1.349 . S
C282 C294 1.349 . S
C283 C281 1.327 . S
C283 C299 1.429 . S
C283 H305 0.950 . S
C284 H280 0.949 . S
C284 C292 1.574 . S
C284 C300 1.368 . S
H285 C293 0.950 . S
H286 C291 0.950 . S
H287 C292 0.949 . S
H288 C294 0.950 . S
H289 C295 0.950 . S
H290 C296 0.949 . S
C291 H286 0.950 . S
C291 C293 1.327 . S
C291 C297 1.429 . S
C292 C284 1.574 . S
C292 H287 0.949 . S
C292 C298 1.368 . S
C293 C277 1.349 . S
C293 H285 0.950 . S
C293 C291 1.327 . S
C294 C282 1.349 . S
C294 H288 0.950 . S
C294 C295 1.327 . S
C295 H289 0.950 . S
C295 C294 1.327 . S
C295 C299 1.429 . S
C296 C279 1.574 . S
C296 H290 0.949 . S
C296 C300 1.368 . S
C297 C278 1.429 . S
C297 C291 1.429 . S
C297 C298 1.523 . S
C298 C279 1.368 . S
C298 C292 1.368 . S
C298 C297 1.523 . S
C299 C283 1.429 . S
C299 C295 1.429 . S
C299 C300 1.523 . S
C300 C284 1.368 . S
C300 C296 1.368 . S
C300 C299 1.523 . S
H301 C276 0.950 . S
H302 C278 0.950 . S
H303 C279 0.949 . S
H304 C281 0.950 . S
H305 C283 0.950 . S
C306 C307 1.349 . S
C306 C308 1.327 . S
C306 H331 0.950 . S
C307 C306 1.349 . S
C307 C323 1.349 . S
C308 C306 1.327 . S
C308 C327 1.429 . S
C308 H332 0.950 . S
C309 C326 1.574 . S
C309 C328 1.368 . S
C309 H333 0.949 . S
H310 C314 0.949 . S
C311 C312 1.349 . S
C311 C313 1.327 . S
C311 H334 0.950 . S
C312 C311 1.349 . S
C312 C324 1.349 . S
C313 C311 1.327 . S
C313 C329 1.429 . S
C313 H335 0.950 . S
C314 H310 0.949 . S
C314 C322 1.574 . S
C314 C330 1.368 . S
H315 C323 0.950 . S
H316 C321 0.950 . S
H317 C322 0.949 . S
H318 C324 0.950 . S
H319 C325 0.950 . S
H320 C326 0.949 . S
C321 H316 0.950 . S
C321 C323 1.327 . S
C321 C327 1.429 . S
C322 C314 1.574 . S
C322 H317 0.949 . S
C322 C328 1.368 . S
C323 C307 1.349 . S
C323 H315 0.950 . S
C323 C321 1.327 . S
C324 C312 1.349 . S
C324 H318 0.950 . S
C324 C325 1.327 . S
C325 H319 0.950 . S
C325 C324 1.327 . S
C325 C329 1.429 . S
C326 C309 1.574 . S
C326 H320 0.949 . S
C326 C330 1.368 . S
C327 C308 1.429 . S
C327 C321 1.429 . S
C327 C328 1.523 . S
C328 C309 1.368 . S
C328 C322 1.368 . S
C328 C327 1.523 . S
C329 C313 1.429 . S
C329 C325 1.429 . S
C329 C330 1.523 . S
C330 C314 1.368 . S
C330 C326 1.368 . S
C330 C329 1.523 . S
H331 C306 0.950 . S
H332 C308 0.950 . S
H333 C309 0.949 . S
H334 C311 0.950 . S
H335 C313 0.950 . S
C336 C337 1.349 . S
C336 C338 1.327 . S
C336 H361 0.950 . S
C337 C336 1.349 . S
C337 C353 1.349 . S
C338 C336 1.327 . S
C338 C357 1.429 . S
C338 H362 0.950 . S
C339 C356 1.574 . S
C339 C358 1.368 . S
C339 H363 0.949 . S
H340 C344 0.949 . S
C341 C342 1.349 . S
C341 C343 1.327 . S
C341 H364 0.950 . S
C342 C341 1.349 . S
C342 C354 1.349 . S
C343 C341 1.327 . S
C343 C359 1.429 . S
C343 H365 0.950 . S
C344 H340 0.949 . S
C344 C352 1.574 . S
C344 C360 1.368 . S
H345 C353 0.950 . S
H346 C351 0.950 . S
H347 C352 0.949 . S
H348 C354 0.950 . S
H349 C355 0.950 . S
H350 C356 0.949 . S
C351 H346 0.950 . S
C351 C353 1.327 . S
C351 C357 1.429 . S
C352 C344 1.574 . S
C352 H347 0.949 . S
C352 C358 1.368 . S
C353 C337 1.349 . S
C353 H345 0.950 . S
C353 C351 1.327 . S
C354 C342 1.349 . S
C354 H348 0.950 . S
C354 C355 1.327 . S
C355 H349 0.950 . S
C355 C354 1.327 . S
C355 C359 1.429 . S
C356 C339 1.574 . S
C356 H350 0.949 . S
C356 C360 1.368 . S
C357 C338 1.429 . S
C357 C351 1.429 . S
C357 C358 1.523 . S
C358 C339 1.368 . S
C358 C352 1.368 . S
C358 C357 1.523 . S
C359 C343 1.429 . S
C359 C355 1.429 . S
C359 C360 1.523 . S
C360 C344 1.368 . S
C360 C356 1.368 . S
C360 C359 1.523 . S
H361 C336 0.950 . S
H362 C338 0.950 . S
H363 C339 0.949 . S
H364 C341 0.950 . S
H365 C343 0.950 . S
C366 C367 1.349 . S
C366 C368 1.327 . S
C366 H391 0.950 . S
C367 C366 1.349 . S
C367 C383 1.349 . S
C368 C366 1.327 . S
C368 C387 1.429 . S
C368 H392 0.950 . S
C369 C386 1.574 . S
C369 C388 1.368 . S
C369 H393 0.949 . S
H370 C374 0.949 . S
C371 C372 1.349 . S
C371 C373 1.327 . S
C371 H394 0.950 . S
C372 C371 1.349 . S
C372 C384 1.349 . S
C373 C371 1.327 . S
C373 C389 1.429 . S
C373 H395 0.950 . S
C374 H370 0.949 . S
C374 C382 1.574 . S
C374 C390 1.368 . S
H375 C383 0.950 . S
H376 C381 0.950 . S
H377 C382 0.949 . S
H378 C384 0.950 . S
H379 C385 0.950 . S
H380 C386 0.949 . S
C381 H376 0.950 . S
C381 C383 1.327 . S
C381 C387 1.429 . S
C382 C374 1.574 . S
C382 H377 0.949 . S
C382 C388 1.368 . S
C383 C367 1.349 . S
C383 H375 0.950 . S
C383 C381 1.327 . S
C384 C372 1.349 . S
C384 H378 0.950 . S
C384 C385 1.327 . S
C385 H379 0.950 . S
C385 C384 1.327 . S
C385 C389 1.429 . S
C386 C369 1.574 . S
C386 H380 0.949 . S
C386 C390 1.368 . S
C387 C368 1.429 . S
C387 C381 1.429 . S
C387 C388 1.523 . S
C388 C369 1.368 . S
C388 C382 1.368 . S
C388 C387 1.523 . S
C389 C373 1.429 . S
C389 C385 1.429 . S
C389 C390 1.523 . S
C390 C374 1.368 . S
C390 C386 1.368 . S
C390 C389 1.523 . S
H391 C366 0.950 . S
H392 C368 0.950 . S
H393 C369 0.949 . S
H394 C371 0.950 . S
H395 C373 0.950 . S
C396 C397 1.349 . S
C396 C398 1.327 . S
C396 H421 0.950 . S
C397 C396 1.349 . S
C397 C413 1.349 . S
C398 C396 1.327 . S
C398 C417 1.429 . S
C398 H422 0.950 . S
C399 C416 1.574 . S
C399 C418 1.368 . S
C399 H423 0.949 . S
H400 C404 0.949 . S
C401 C402 1.349 . S
C401 C403 1.327 . S
C401 H424 0.950 . S
C402 C401 1.349 . S
C402 C414 1.349 . S
C403 C401 1.327 . S
C403 C419 1.429 . S
C403 H425 0.950 . S
C404 H400 0.949 . S
C404 C412 1.574 . S
C404 C420 1.368 . S
H405 C413 0.950 . S
H406 C411 0.950 . S
H407 C412 0.949 . S
H408 C414 0.950 . S
H409 C415 0.950 . S
H410 C416 0.949 . S
C411 H406 0.950 . S
C411 C413 1.327 . S
C411 C417 1.429 . S
C412 C404 1.574 . S
C412 H407 0.949 . S
C412 C418 1.368 . S
C413 C397 1.349 . S
C413 H405 0.950 . S
C413 C411 1.327 . S
C414 C402 1.349 . S
C414 H408 0.950 . S
C414 C415 1.327 . S
C415 H409 0.950 . S
C415 C414 1.327 . S
C415 C419 1.429 . S
C416 C399 1.574 . S
C416 H410 0.949 . S
C416 C420 1.368 . S
C417 C398 1.429 . S
C417 C411 1.429 . S
C417 C418 1.523 . S
C418 C399 1.368 . S
C418 C412 1.368 . S
C418 C417 1.523 . S
C419 C403 1.429 . S
C419 C415 1.429 . S
C419 C420 1.523 . S
C420 C404 1.368 . S
C420 C416 1.368 . S
C420 C419 1.523 . S
H421 C396 0.950 . S
H422 C398 0.950 . S
H423 C399 0.949 . S
H424 C401 0.950 . S
H425 C403 0.950 . S
C426 C427 1.349 . S
C426 C428 1.327 . S
C426 H451 0.950 . S
C427 C426 1.349 . S
C427 C443 1.349 . S
C428 C426 1.327 . S
C428 C447 1.429 . S
C428 H452 0.950 . S
C429 C446 1.574 . S
C429 C448 1.368 . S
C429 H453 0.949 . S
H430 C434 0.949 . S
C431 C432 1.349 . S
C431 C433 1.327 . S
C431 H454 0.950 . S
C432 C431 1.349 . S
C432 C444 1.349 . S
C433 C431 1.327 . S
C433 C449 1.429 . S
C433 H455 0.950 . S
C434 H430 0.949 . S
C434 C442 1.574 . S
C434 C450 1.368 . S
H435 C443 0.950 . S
H436 C441 0.950 . S
H437 C442 0.949 . S
H438 C444 0.950 . S
H439 C445 0.950 . S
H440 C446 0.949 . S
C441 H436 0.950 . S
C441 C443 1.327 . S
C441 C447 1.429 . S
C442 C434 1.574 . S
C442 H437 0.949 . S
C442 C448 1.368 . S
C443 C427 1.349 . S
C443 H435 0.950 . S
C443 C441 1.327 . S
C444 C432 1.349 . S
C444 H438 0.950 . S
C444 C445 1.327 . S
C445 H439 0.950 . S
C445 C444 1.327 . S
C445 C449 1.429 . S
C446 C429 1.574 . S
C446 H440 0.949 . S
C446 C450 1.368 . S
C447 C428 1.429 . S
C447 C441 1.429 . S
C447 C448 1.523 . S
C448 C429 1.368 . S
C448 C442 1.368 . S
C448 C447 1.523 . S
C449 C433 1.429 . S
C449 C445 1.429 . S
C449 C450 1.523 . S
C450 C434 1.368 . S
C450 C446 1.368 . S
C450 C449 1.523 . S
H451 C426 0.950 . S
H452 C428 0.950 . S
H453 C429 0.949 . S
H454 C431 0.950 . S
H455 C433 0.950 . S
C456 C457 1.349 . S
C456 C458 1.327 . S
C456 H481 0.950 . S
C457 C456 1.349 . S
C457 C473 1.349 . S
C458 C456 1.327 . S
C458 C477 1.429 . S
C458 H482 0.950 . S
C459 C476 1.574 . S
C459 C478 1.368 . S
C459 H483 0.949 . S
H460 C464 0.949 . S
C461 C462 1.349 . S
C461 C463 1.327 . S
C461 H484 0.950 . S
C462 C461 1.349 . S
C462 C474 1.349 . S
C463 C461 1.327 . S
C463 C479 1.429 . S
C463 H485 0.950 . S
C464 H460 0.949 . S
C464 C472 1.574 . S
C464 C480 1.368 . S
H465 C473 0.950 . S
H466 C471 0.950 . S
H467 C472 0.949 . S
H468 C474 0.950 . S
H469 C475 0.950 . S
H470 C476 0.949 . S
C471 H466 0.950 . S
C471 C473 1.327 . S
C471 C477 1.429 . S
C472 C464 1.574 . S
C472 H467 0.949 . S
C472 C478 1.368 . S
C473 C457 1.349 . S
C473 H465 0.950 . S
C473 C471 1.327 . S
C474 C462 1.349 . S
C474 H468 0.950 . S
C474 C475 1.327 . S
C475 H469 0.950 . S
C475 C474 1.327 . S
C475 C479 1.429 . S
C476 C459 1.574 . S
C476 H470 0.949 . S
C476 C480 1.368 . S
C477 C458 1.429 . S
C477 C471 1.429 . S
C477 C478 1.523 . S
C478 C459 1.368 . S
C478 C472 1.368 . S
C478 C477 1.523 . S
C479 C463 1.429 . S
C479 C475 1.429 . S
C479 C480 1.523 . S
C480 C464 1.368 . S
C480 C476 1.368 . S
C480 C479 1.523 . S
H481 C456 0.950 . S
H482 C458 0.950 . S
H483 C459 0.949 . S
H484 C461 0.950 . S
H485 C463 0.950 . S
C486 C487 1.349 . S
C486 C488 1.327 . S
C486 H511 0.950 . S
C487 C486 1.349 . S
C487 C503 1.349 1_455 S
C488 C486 1.327 . S
C488 C507 1.429 . S
C488 H512 0.950 . S
C489 C506 1.574 . S
C489 C508 1.368 1_655 S
C489 H513 0.949 . S
H490 C494 0.949 . S
C491 C492 1.349 1_655 S
C491 C493 1.327 . S
C491 H514 0.950 . S
C492 C491 1.349 1_455 S
C492 C504 1.349 . S
C493 C491 1.327 . S
C493 C509 1.429 1_655 S
C493 H515 0.950 . S
C494 H490 0.949 . S
C494 C502 1.574 . S
C494 C510 1.368 . S
H495 C503 0.950 . S
H496 C501 0.950 . S
H497 C502 0.949 . S
H498 C504 0.950 . S
H499 C505 0.950 . S
H500 C506 0.949 1_556 S
C501 H496 0.950 . S
C501 C503 1.327 . S
C501 C507 1.429 1_655 S
C502 C494 1.574 . S
C502 H497 0.949 . S
C502 C508 1.368 . S
C503 C487 1.349 1_655 S
C503 H495 0.950 . S
C503 C501 1.327 . S
C504 C492 1.349 . S
C504 H498 0.950 . S
C504 C505 1.327 . S
C505 H499 0.950 . S
C505 C504 1.327 . S
C505 C509 1.429 . S
C506 C489 1.574 . S
C506 H500 0.949 1_554 S
C506 C510 1.368 1_655 S
C507 C488 1.429 . S
C507 C501 1.429 1_455 S
C507 C508 1.523 . S
C508 C489 1.368 1_455 S
C508 C502 1.368 . S
C508 C507 1.523 . S
C509 C493 1.429 1_455 S
C509 C505 1.429 . S
C509 C510 1.523 1_556 S
C510 C494 1.368 . S
C510 C506 1.368 1_455 S
C510 C509 1.523 1_554 S
H511 C486 0.950 . S
H512 C488 0.950 . S
H513 C489 0.949 . S
H514 C491 0.950 . S
H515 C493 0.950 . S
C516 C517 1.349 . S
C516 C518 1.327 . S
C516 H541 0.950 . S
C517 C516 1.349 . S
C517 C533 1.349 1_545 S
C518 C516 1.327 . S
C518 C537 1.429 . S
C518 H542 0.950 . S
C519 C536 1.574 . S
C519 C538 1.368 1_565 S
C519 H543 0.949 . S
H520 C524 0.949 . S
C521 C522 1.349 1_565 S
C521 C523 1.327 . S
C521 H544 0.950 . S
C522 C521 1.349 1_545 S
C522 C534 1.349 . S
C523 C521 1.327 . S
C523 C539 1.429 1_565 S
C523 H545 0.950 . S
C524 H520 0.949 . S
C524 C532 1.574 . S
C524 C540 1.368 . S
H525 C533 0.950 . S
H526 C531 0.950 . S
H527 C532 0.949 . S
H528 C534 0.950 . S
H529 C535 0.950 . S
H530 C536 0.949 . S
C531 H526 0.950 . S
C531 C533 1.327 . S
C531 C537 1.429 1_565 S
C532 C524 1.574 . S
C532 H527 0.949 . S
C532 C538 1.368 . S
C533 C517 1.349 1_565 S
C533 H525 0.950 . S
C533 C531 1.327 . S
C534 C522 1.349 . S
C534 H528 0.950 . S
C534 C535 1.327 . S
C535 H529 0.950 . S
C535 C534 1.327 . S
C535 C539 1.429 . S
C536 C519 1.574 . S
C536 H530 0.949 . S
C536 C540 1.368 1_565 S
C537 C518 1.429 . S
C537 C531 1.429 1_545 S
C537 C538 1.523 . S
C538 C519 1.368 1_545 S
C538 C532 1.368 . S
C538 C537 1.523 . S
C539 C523 1.429 1_545 S
C539 C535 1.429 . S
C539 C540 1.523 . S
C540 C524 1.368 . S
C540 C536 1.368 1_545 S
C540 C539 1.523 . S
H541 C516 0.950 . S
H542 C518 0.950 . S
H543 C519 0.949 . S
H544 C521 0.950 . S
H545 C523 0.950 . S
C546 C547 1.349 . S
C546 C548 1.327 . S
C546 H571 0.950 . S
C547 C546 1.349 . S
C547 C563 1.349 . S
C548 C546 1.327 . S
C548 C567 1.429 . S
C548 H572 0.950 . S
C549 C566 1.574 . S
C549 C568 1.368 . S
C549 H573 0.949 . S
H550 C554 0.949 . S
C551 C552 1.349 . S
C551 C553 1.327 . S
C551 H574 0.950 . S
C552 C551 1.349 . S
C552 C564 1.349 . S
C553 C551 1.327 . S
C553 C569 1.429 . S
C553 H575 0.950 . S
C554 H550 0.949 . S
C554 C562 1.574 . S
C554 C570 1.368 . S
H555 C563 0.950 . S
H556 C561 0.950 . S
H557 C562 0.949 . S
H558 C564 0.950 . S
H559 C565 0.950 . S
H560 C566 0.949 . S
C561 H556 0.950 . S
C561 C563 1.327 . S
C561 C567 1.429 . S
C562 C554 1.574 . S
C562 H557 0.949 . S
C562 C568 1.368 . S
C563 C547 1.349 . S
C563 H555 0.950 . S
C563 C561 1.327 . S
C564 C552 1.349 . S
C564 H558 0.950 . S
C564 C565 1.327 . S
C565 H559 0.950 . S
C565 C564 1.327 . S
C565 C569 1.429 . S
C566 C549 1.574 . S
C566 H560 0.949 . S
C566 C570 1.368 . S
C567 C548 1.429 . S
C567 C561 1.429 . S
C567 C568 1.523 . S
C568 C549 1.368 . S
C568 C562 1.368 . S
C568 C567 1.523 . S
C569 C553 1.429 . S
C569 C565 1.429 . S
C569 C570 1.523 . S
C570 C554 1.368 . S
C570 C566 1.368 . S
C570 C569 1.523 . S
H571 C546 0.950 . S
H572 C548 0.950 . S
H573 C549 0.949 . S
H574 C551 0.950 . S
H575 C553 0.950 . S
C576 C577 1.349 . S
C576 C578 1.327 . S
C576 H601 0.950 . S
C577 C576 1.349 . S
C577 C593 1.349 1_545 S
C578 C576 1.327 . S
C578 C597 1.429 . S
C578 H602 0.950 . S
C579 C596 1.574 . S
C579 C598 1.368 1_565 S
C579 H603 0.949 . S
H580 C584 0.949 . S
C581 C582 1.349 1_565 S
C581 C583 1.327 . S
C581 H604 0.950 . S
C582 C581 1.349 1_545 S
C582 C594 1.349 . S
C583 C581 1.327 . S
C583 C599 1.429 1_565 S
C583 H605 0.950 . S
C584 H580 0.949 . S
C584 C592 1.574 . S
C584 C600 1.368 . S
H585 C593 0.950 . S
H586 C591 0.950 . S
H587 C592 0.949 . S
H588 C594 0.950 . S
H589 C595 0.950 . S
H590 C596 0.949 . S
C591 H586 0.950 . S
C591 C593 1.327 . S
C591 C597 1.429 1_565 S
C592 C584 1.574 . S
C592 H587 0.949 . S
C592 C598 1.368 . S
C593 C577 1.349 1_565 S
C593 H585 0.950 . S
C593 C591 1.327 . S
C594 C582 1.349 . S
C594 H588 0.950 . S
C594 C595 1.327 . S
C595 H589 0.950 . S
C595 C594 1.327 . S
C595 C599 1.429 . S
C596 C579 1.574 . S
C596 H590 0.949 . S
C596 C600 1.368 1_565 S
C597 C578 1.429 . S
C597 C591 1.429 1_545 S
C597 C598 1.523 . S
C598 C579 1.368 1_545 S
C598 C592 1.368 . S
C598 C597 1.523 . S
C599 C583 1.429 1_545 S
C599 C595 1.429 . S
C599 C600 1.523 . S
C600 C584 1.368 . S
C600 C596 1.368 1_545 S
C600 C599 1.523 . S
H601 C576 0.950 . S
H602 C578 0.950 . S
H603 C579 0.949 . S
H604 C581 0.950 . S
H605 C583 0.950 . S
C606 C607 1.349 . S
C606 C608 1.327 . S
C606 H631 0.950 . S
C607 C606 1.349 . S
C607 C623 1.349 . S
C608 C606 1.327 . S
C608 C627 1.429 . S
C608 H632 0.950 . S
C609 C626 1.574 . S
C609 C628 1.368 . S
C609 H633 0.949 . S
H610 C614 0.949 . S
C611 C612 1.349 . S
C611 C613 1.327 . S
C611 H634 0.950 . S
C612 C611 1.349 . S
C612 C624 1.349 . S
C613 C611 1.327 . S
C613 C629 1.429 . S
C613 H635 0.950 . S
C614 H610 0.949 . S
C614 C622 1.574 . S
C614 C630 1.368 . S
H615 C623 0.950 . S
H616 C621 0.950 . S
H617 C622 0.949 . S
H618 C624 0.950 . S
H619 C625 0.950 . S
H620 C626 0.949 . S
C621 H616 0.950 . S
C621 C623 1.327 . S
C621 C627 1.429 . S
C622 C614 1.574 . S
C622 H617 0.949 . S
C622 C628 1.368 . S
C623 C607 1.349 . S
C623 H615 0.950 . S
C623 C621 1.327 . S
C624 C612 1.349 . S
C624 H618 0.950 . S
C624 C625 1.327 . S
C625 H619 0.950 . S
C625 C624 1.327 . S
C625 C629 1.429 . S
C626 C609 1.574 . S
C626 H620 0.949 . S
C626 C630 1.368 . S
C627 C608 1.429 . S
C627 C621 1.429 . S
C627 C628 1.523 . S
C628 C609 1.368 . S
C628 C622 1.368 . S
C628 C627 1.523 . S
C629 C613 1.429 . S
C629 C625 1.429 . S
C629 C630 1.523 1_554 S
C630 C614 1.368 . S
C630 C626 1.368 . S
C630 C629 1.523 1_556 S
H631 C606 0.950 . S
H632 C608 0.950 . S
H633 C609 0.949 . S
H634 C611 0.950 . S
H635 C613 0.950 . S
C636 C637 1.349 . S
C636 C638 1.327 . S
C636 H661 0.950 . S
C637 C636 1.349 . S
C637 C653 1.349 . S
C638 C636 1.327 . S
C638 C657 1.429 . S
C638 H662 0.950 . S
C639 C656 1.574 . S
C639 C658 1.382 . S
C639 H663 0.949 . S
H640 C644 0.940 . S
C641 C642 1.349 . S
C641 C643 1.327 . S
C641 H664 0.950 . S
C642 C641 1.349 . S
C642 C654 1.349 . S
C643 C641 1.327 . S
C643 C659 1.429 . S
C643 H665 0.950 . S
C644 H640 0.940 . S
C644 C652 1.573 1_455 S
C644 C660 1.381 . S
H645 C653 0.943 1_455 S
H646 C651 0.961 . S
H647 C652 0.951 . S
H648 C654 0.950 . S
H649 C655 0.950 . S
H650 C656 0.949 . S
C651 H646 0.961 . S
C651 C653 1.326 1_455 S
C651 C657 1.419 1_455 S
C652 C644 1.573 1_655 S
C652 H647 0.951 . S
C652 C658 1.353 1_655 S
C653 C637 1.349 . S
C653 H645 0.943 1_655 S
C653 C651 1.326 1_655 S
C654 C642 1.349 . S
C654 H648 0.950 . S
C654 C655 1.327 . S
C655 H649 0.950 . S
C655 C654 1.327 . S
C655 C659 1.429 . S
C656 C639 1.574 . S
C656 H650 0.949 . S
C656 C660 1.368 . S
C657 C638 1.429 . S
C657 C651 1.419 1_655 S
C657 C658 1.522 1_655 S
C658 C639 1.382 . S
C658 C652 1.353 1_455 S
C658 C657 1.522 1_455 S
C659 C643 1.429 . S
C659 C655 1.429 . S
C659 C660 1.523 . S
C660 C644 1.381 . S
C660 C656 1.368 . S
C660 C659 1.523 . S
H661 C636 0.950 . S
H662 C638 0.950 . S
H663 C639 0.949 . S
H664 C641 0.950 . S
H665 C643 0.950 . S
C127 C2 1.495 . S
C132 C120 1.371 . S
C157 C22 1.496 . S
C162 C98 1.379 . S
C187 C44 1.198 . S
C192 C112 1.249 . S
C217 C4 1.351 . S
C222 C123 1.403 . S
C252 C101 1.409 . S
C247 C24 1.362 . S
C282 C109 1.493 . S
C277 C42 1.629 . S
C307 C32 1.484 . S
C312 C76 1.270 . S
C337 C49 1.378 . S
C342 C87 1.186 . S
C367 C9 1.375 . S
C372 C65 1.187 . S
C402 C79 1.012 . S
C397 C29 1.004 . S
C432 C90 1.105 . S
C427 C52 1.092 . S
C457 C12 1.085 . S
C462 C68 1.097 . S
C492 C89 1.418 . S
C487 C18 1.465 1_455 S
C517 C38 1.463 . S
C522 C67 1.420 . S
C547 C58 1.478 . S
C552 C78 1.426 . S
C582 C111 1.461 . S
C577 C39 1.506 . S
C612 C122 1.465 . S
C607 C59 1.515 . S
C637 C19 1.517 1_655 S
C642 C100 1.469 . S
