# Generated by pormake.
# Topology cml, (3,6)-cn, num edge types: 1
# Building blocks:
#     Node 0, Type 0, BuildingBlock: WUSLED_clean_sbu_0, # of connection points: 3
#     Node 1, Type 0, BuildingBlock: WUSLED_clean_sbu_0, # of connection points: 3
#     Node 2, Type 0, BuildingBlock: WUSLED_clean_sbu_0, # of connection points: 3
#     Node 3, Type 0, BuildingBlock: WUSLED_clean_sbu_0, # of connection points: 3
#     Node 4, Type 0, BuildingBlock: WUSLED_clean_sbu_0, # of connection points: 3
#     Node 5, Type 0, BuildingBlock: WUSLED_clean_sbu_0, # of connection points: 3
#     Node 6, Type 0, BuildingBlock: WUSLED_clean_sbu_0, # of connection points: 3
#     Node 7, Type 0, BuildingBlock: WUSLED_clean_sbu_0, # of connection points: 3
#     Node 8, Type 1, BuildingBlock: OJICUG_clean_sbu_0, # of connection points: 6
#     Node 9, Type 1, BuildingBlock: OJICUG_clean_sbu_0, # of connection points: 6
#     Node 10, Type 1, BuildingBlock: OJICUG_clean_sbu_0, # of connection points: 6
#     Node 11, Type 1, BuildingBlock: OJICUG_clean_sbu_0, # of connection points: 6
#     Edge 12, Type (0, 1), BuildingBlock: XIVTED_clean_linker_0, # of connection points: 2
#     Edge 13, Type (0, 1), BuildingBlock: XIVTED_clean_linker_0, # of connection points: 2
#     Edge 14, Type (0, 1), BuildingBlock: XIVTED_clean_linker_0, # of connection points: 2
#     Edge 15, Type (0, 1), BuildingBlock: XIVTED_clean_linker_0, # of connection points: 2
#     Edge 16, Type (0, 1), BuildingBlock: XIVTED_clean_linker_0, # of connection points: 2
#     Edge 17, Type (0, 1), BuildingBlock: XIVTED_clean_linker_0, # of connection points: 2
#     Edge 18, Type (0, 1), BuildingBlock: XIVTED_clean_linker_0, # of connection points: 2
#     Edge 19, Type (0, 1), BuildingBlock: XIVTED_clean_linker_0, # of connection points: 2
#     Edge 20, Type (0, 1), BuildingBlock: XIVTED_clean_linker_0, # of connection points: 2
#     Edge 21, Type (0, 1), BuildingBlock: XIVTED_clean_linker_0, # of connection points: 2
#     Edge 22, Type (0, 1), BuildingBlock: XIVTED_clean_linker_0, # of connection points: 2
#     Edge 23, Type (0, 1), BuildingBlock: XIVTED_clean_linker_0, # of connection points: 2
#     Edge 24, Type (0, 1), BuildingBlock: XIVTED_clean_linker_0, # of connection points: 2
#     Edge 25, Type (0, 1), BuildingBlock: XIVTED_clean_linker_0, # of connection points: 2
#     Edge 26, Type (0, 1), BuildingBlock: XIVTED_clean_linker_0, # of connection points: 2
#     Edge 27, Type (0, 1), BuildingBlock: XIVTED_clean_linker_0, # of connection points: 2
#     Edge 28, Type (0, 1), BuildingBlock: XIVTED_clean_linker_0, # of connection points: 2
#     Edge 29, Type (0, 1), BuildingBlock: XIVTED_clean_linker_0, # of connection points: 2
#     Edge 30, Type (0, 1), BuildingBlock: XIVTED_clean_linker_0, # of connection points: 2
#     Edge 31, Type (0, 1), BuildingBlock: XIVTED_clean_linker_0, # of connection points: 2
#     Edge 32, Type (0, 1), BuildingBlock: XIVTED_clean_linker_0, # of connection points: 2
#     Edge 33, Type (0, 1), BuildingBlock: XIVTED_clean_linker_0, # of connection points: 2
#     Edge 34, Type (0, 1), BuildingBlock: XIVTED_clean_linker_0, # of connection points: 2
#     Edge 35, Type (0, 1), BuildingBlock: XIVTED_clean_linker_0, # of connection points: 2
# Relax obj value: 0.068
# Max RMSD: 0.082
# Mean RMSD: 0.077
data_MOF--net-cml--node1-WUSLED_clean_sbu_0--node2-OJICUG_clean_sbu_0--edge1-XIVTED_clean_linker_0
_symmetry_space_group_name_H-M    P1
_symmetry_Int_Tables_number       1
_symmetry_cell_setting            triclinic
loop_
_symmetry_equiv_pos_as_xyz
'x, y, z'
_cell_length_a     50.488829
_cell_length_b     51.246096
_cell_length_c     48.14707
_cell_angle_alpha  90.360843
_cell_angle_beta   90.141102
_cell_angle_gamma 89.893361
loop_
_atom_site_label
_atom_site_type_symbol
_atom_site_fract_x
_atom_site_fract_y
_atom_site_fract_z
_atom_type_partial_charge
C0 C 0.30249 0.4248 0.93909 0.0
C1 C 0.32209 0.43546 0.95643 0.0
C2 C 0.33396 0.46668 0.92063 0.0
C3 C 0.33768 0.45619 0.9473 0.0
C4 C 0.31415 0.45596 0.90337 0.0
C5 C 0.29853 0.43519 0.91256 0.0
U6 U 0.28747 0.37627 0.99514 0.0
O7 O 0.24997 0.36123 0.01161 0.0
O8 O 0.27896 0.33414 0.99335 0.0
C9 C 0.25498 0.33718 0.00345 0.0
C10 C 0.28653 0.40267 0.94866 0.0
C11 C 0.23362 0.32391 0.98803 0.0
C12 C 0.19783 0.32401 0.95409 0.0
C13 C 0.21863 0.33688 0.96773 0.0
C14 C 0.20726 0.28492 0.98039 0.0
C15 C 0.19172 0.29791 0.96044 0.0
C16 C 0.22793 0.29783 0.99406 0.0
C17 C 0.33087 0.38305 0.06124 0.0
C18 C 0.33764 0.35135 0.09799 0.0
C19 C 0.3533 0.39571 0.10384 0.0
C20 C 0.3435 0.40198 0.07759 0.0
C21 C 0.35066 0.3703 0.11435 0.0
C22 C 0.32774 0.3577 0.07163 0.0
C23 C 0.32211 0.39027 0.03316 0.0
O24 O 0.29972 0.38072 0.95162 0.0
O25 O 0.27079 0.40784 0.9697 0.0
O26 O 0.29836 0.40062 0.03124 0.0
O27 O 0.32741 0.37351 0.01314 0.0
H28 H 0.32548 0.42757 0.97697 0.0
H29 H 0.353 0.46364 0.96097 0.0
H30 H 0.31058 0.46375 0.88284 0.0
H31 H 0.28344 0.4272 0.89894 0.0
H32 H 0.18619 0.33468 0.93903 0.0
H33 H 0.22281 0.35703 0.96268 0.0
H34 H 0.20354 0.2647 0.98542 0.0
H35 H 0.23941 0.28743 0.0095 0.0
H36 H 0.33508 0.33166 0.10555 0.0
H37 H 0.36361 0.41068 0.11558 0.0
H38 H 0.34619 0.42161 0.06985 0.0
H39 H 0.31794 0.34282 0.05929 0.0
C40 C 0.70253 0.66573 0.57625 0.0
C41 C 0.6844 0.64574 0.58175 0.0
C42 C 0.6716 0.66715 0.625 0.0
C43 C 0.6691 0.64642 0.60587 0.0
C44 C 0.68976 0.68724 0.61933 0.0
C45 C 0.70514 0.6865 0.59514 0.0
U46 U 0.71686 0.63286 0.50796 0.0
O47 O 0.72451 0.64862 0.46626 0.0
O48 O 0.75393 0.62331 0.48635 0.0
C49 C 0.74839 0.63842 0.46512 0.0
C50 C 0.71822 0.66498 0.55057 0.0
C51 C 0.76967 0.65604 0.45609 0.0
C52 C 0.8074 0.68406 0.46592 0.0
C53 C 0.7866 0.66837 0.47524 0.0
C54 C 0.79417 0.67576 0.41829 0.0
C55 C 0.81157 0.68781 0.43729 0.0
C56 C 0.77349 0.66001 0.42762 0.0
C57 C 0.67399 0.57222 0.491 0.0
C58 C 0.64844 0.55485 0.45212 0.0
C59 C 0.66879 0.52531 0.48492 0.0
C60 C 0.67908 0.54658 0.49969 0.0
C61 C 0.65293 0.52918 0.46124 0.0
C62 C 0.65883 0.57613 0.46683 0.0
C63 C 0.68258 0.59441 0.5087 0.0
O64 O 0.73413 0.64475 0.54809 0.0
O65 O 0.7047 0.66977 0.5278 0.0
O66 O 0.67676 0.618 0.49996 0.0
O67 O 0.70638 0.59272 0.51969 0.0
H68 H 0.68197 0.62965 0.56726 0.0
H69 H 0.655 0.63088 0.60929 0.0
H70 H 0.6923 0.70337 0.63373 0.0
H71 H 0.71902 0.70213 0.59116 0.0
H72 H 0.82054 0.6928 0.48115 0.0
H73 H 0.78396 0.66559 0.49734 0.0
H74 H 0.79642 0.67858 0.39615 0.0
H75 H 0.76054 0.65076 0.41253 0.0
H76 H 0.63603 0.55862 0.43421 0.0
H77 H 0.67298 0.50582 0.49232 0.0
H78 H 0.69053 0.54297 0.51834 0.0
H79 H 0.65431 0.59562 0.45965 0.0
C80 C 0.70552 0.42763 0.94578 0.0
C81 C 0.70066 0.4491 0.96337 0.0
C82 C 0.67316 0.46945 0.92786 0.0
C83 C 0.68483 0.46982 0.95445 0.0
C84 C 0.67831 0.44801 0.91021 0.0
C85 C 0.69438 0.42738 0.91908 0.0
U86 U 0.72007 0.37789 1.00148 0.0
O87 O 0.72831 0.33579 0.99927 0.0
O88 O 0.75763 0.36231 0.01784 0.0
C89 C 0.75235 0.33841 0.00949 0.0
C90 C 0.72098 0.40492 0.95547 0.0
C91 C 0.77365 0.32511 0.99407 0.0
C92 C 0.79565 0.31323 0.95088 0.0
C93 C 0.77554 0.32668 0.96504 0.0
C94 C 0.81244 0.29705 0.99471 0.0
C95 C 0.81423 0.29804 0.96555 0.0
C96 C 0.79234 0.3104 0.00877 0.0
C97 C 0.6767 0.38423 0.06746 0.0
C98 C 0.66834 0.35177 0.10302 0.0
C99 C 0.6543 0.39655 0.11012 0.0
C100 C 0.66465 0.40319 0.08427 0.0
C101 C 0.65579 0.37072 0.11977 0.0
C102 C 0.67878 0.35849 0.07707 0.0
C103 C 0.68561 0.3918 0.03958 0.0
O104 O 0.73726 0.40924 0.97637 0.0
O105 O 0.70746 0.38317 0.95801 0.0
O106 O 0.68014 0.37542 0.01925 0.0
O107 O 0.70946 0.40188 0.03795 0.0
H108 H 0.70885 0.44979 0.98418 0.0
H109 H 0.68173 0.48614 0.96846 0.0
H110 H 0.66939 0.44679 0.88978 0.0
H111 H 0.69769 0.41094 0.90525 0.0
H112 H 0.7963 0.3143 0.92844 0.0
H113 H 0.76134 0.33807 0.95332 0.0
H114 H 0.82667 0.28602 0.00675 0.0
H115 H 0.79132 0.30915 0.0312 0.0
H116 H 0.67003 0.33177 0.10993 0.0
H117 H 0.64439 0.41156 0.12216 0.0
H118 H 0.66274 0.42312 0.07713 0.0
H119 H 0.68809 0.34357 0.06437 0.0
C120 C 0.29801 0.66284 0.57877 0.0
C121 C 0.3012 0.64078 0.59566 0.0
C122 C 0.33114 0.66479 0.62624 0.0
C123 C 0.3174 0.64181 0.61918 0.0
C124 C 0.32742 0.68705 0.60967 0.0
C125 C 0.31098 0.68607 0.58619 0.0
U126 U 0.2838 0.62747 0.5115 0.0
O127 O 0.24665 0.61761 0.48989 0.0
O128 O 0.27669 0.64134 0.46899 0.0
C129 C 0.25261 0.63162 0.46802 0.0
C130 C 0.28277 0.66128 0.55254 0.0
C131 C 0.23165 0.64936 0.45829 0.0
C132 C 0.2088 0.69115 0.45952 0.0
C133 C 0.2289 0.67465 0.46924 0.0
C134 C 0.19389 0.65709 0.42809 0.0
C135 C 0.19105 0.68258 0.43876 0.0
C136 C 0.214 0.6407 0.43775 0.0
C137 C 0.3262 0.56578 0.49914 0.0
C138 C 0.33029 0.54199 0.45553 0.0
C139 C 0.35166 0.52563 0.49706 0.0
C140 C 0.34168 0.54677 0.5122 0.0
C141 C 0.34633 0.52308 0.46847 0.0
C142 C 0.32026 0.56318 0.47077 0.0
C143 C 0.31759 0.58863 0.51535 0.0
O144 O 0.2967 0.66489 0.52985 0.0
O145 O 0.26598 0.64177 0.55035 0.0
O146 O 0.29347 0.58772 0.52549 0.0
O147 O 0.32368 0.61146 0.5049 0.0
H148 H 0.29157 0.62251 0.59046 0.0
H149 H 0.31932 0.62443 0.63171 0.0
H150 H 0.33786 0.70501 0.61427 0.0
H151 H 0.30894 0.70328 0.5734 0.0
H152 H 0.20741 0.71071 0.46802 0.0
H153 H 0.24233 0.68165 0.4852 0.0
H154 H 0.18034 0.64964 0.41249 0.0
H155 H 0.21573 0.62116 0.4292 0.0
H156 H 0.32559 0.54047 0.43362 0.0
H157 H 0.36427 0.51173 0.50762 0.0
H158 H 0.34654 0.54856 0.53407 0.0
H159 H 0.30824 0.5777 0.46038 0.0
C160 C 0.80076 0.92643 0.94167 0.0
C161 C 0.81598 0.92379 0.91746 0.0
C162 C 0.83236 0.96828 0.92279 0.0
C163 C 0.83167 0.94442 0.90816 0.0
C164 C 0.81656 0.97109 0.94666 0.0
C165 C 0.80103 0.9504 0.95606 0.0
U166 U 0.78713 0.87723 0.99847 0.0
O167 O 0.75004 0.86145 0.01512 0.0
O168 O 0.77933 0.83497 0.99642 0.0
C169 C 0.75537 0.83755 0.00671 0.0
C170 C 0.78566 0.90379 0.95213 0.0
C171 C 0.73411 0.82417 0.99125 0.0
C172 C 0.6985 0.82414 0.95711 0.0
C173 C 0.71929 0.83704 0.97075 0.0
C174 C 0.70761 0.78525 0.98385 0.0
C175 C 0.69224 0.79813 0.96368 0.0
C176 C 0.72827 0.79817 0.99751 0.0
C177 C 0.83059 0.88434 0.06443 0.0
C178 C 0.83804 0.8524 0.1008 0.0
C179 C 0.85321 0.89689 0.10697 0.0
C180 C 0.84311 0.90328 0.08088 0.0
C181 C 0.85098 0.87134 0.11723 0.0
C182 C 0.82785 0.85887 0.0746 0.0
C183 C 0.82164 0.89165 0.03644 0.0
O184 O 0.79935 0.88212 0.95493 0.0
O185 O 0.76953 0.9083 0.97305 0.0
O186 O 0.7977 0.90163 0.03465 0.0
O187 O 0.82717 0.87511 0.01629 0.0
H188 H 0.81615 0.90552 0.906 0.0
H189 H 0.84381 0.94138 0.88991 0.0
H190 H 0.8162 0.9893 0.95819 0.0
H191 H 0.7895 0.95316 0.9748 0.0
H192 H 0.68699 0.83474 0.94188 0.0
H193 H 0.72357 0.85713 0.96554 0.0
H194 H 0.70376 0.76508 0.98906 0.0
H195 H 0.73961 0.78788 0.01313 0.0
H196 H 0.8358 0.83261 0.10818 0.0
H197 H 0.86344 0.91186 0.11876 0.0
H198 H 0.84552 0.92301 0.0733 0.0
H199 H 0.81815 0.84398 0.06219 0.0
C200 C 0.20692 0.16549 0.57784 0.0
C201 C 0.20833 0.14572 0.59792 0.0
C202 C 0.17477 0.1677 0.62591 0.0
C203 C 0.19254 0.14688 0.62168 0.0
C204 C 0.17404 0.18793 0.60628 0.0
C205 C 0.18999 0.18684 0.58254 0.0
U206 U 0.21977 0.12906 0.51069 0.0
O207 O 0.22623 0.1424 0.46792 0.0
O208 O 0.25651 0.11866 0.48872 0.0
C209 C 0.25026 0.1325 0.46676 0.0
C210 C 0.22166 0.16329 0.55132 0.0
C211 C 0.27111 0.15002 0.45664 0.0
C212 C 0.2944 0.19148 0.45774 0.0
C213 C 0.27433 0.17522 0.46769 0.0
C214 C 0.30833 0.15742 0.42583 0.0
C215 C 0.31167 0.18278 0.43666 0.0
C216 C 0.28823 0.14124 0.43572 0.0
C217 C 0.17711 0.06759 0.49949 0.0
C218 C 0.17345 0.04304 0.45632 0.0
C219 C 0.15107 0.02789 0.49765 0.0
C220 C 0.16109 0.04914 0.51257 0.0
C221 C 0.1569 0.02468 0.46927 0.0
C222 C 0.18351 0.06434 0.47134 0.0
C223 C 0.18593 0.09051 0.51544 0.0
O224 O 0.2383 0.14359 0.54915 0.0
O225 O 0.20743 0.16679 0.52873 0.0
O226 O 0.17973 0.11328 0.50481 0.0
O227 O 0.21019 0.08955 0.52531 0.0
H228 H 0.22122 0.129 0.5951 0.0
H229 H 0.19408 0.13123 0.63662 0.0
H230 H 0.16047 0.20416 0.60872 0.0
H231 H 0.18854 0.20236 0.56743 0.0
H232 H 0.29618 0.21097 0.46636 0.0
H233 H 0.26131 0.18231 0.48393 0.0
H234 H 0.32149 0.14987 0.40997 0.0
H235 H 0.28613 0.12177 0.4271 0.0
H236 H 0.17853 0.041 0.43458 0.0
H237 H 0.13807 0.01442 0.5082 0.0
H238 H 0.15588 0.05144 0.53428 0.0
H239 H 0.19596 0.07842 0.46095 0.0
C240 C 0.20498 0.92833 0.94389 0.0
C241 C 0.18932 0.92527 0.91996 0.0
C242 C 0.17262 0.96976 0.92486 0.0
C243 C 0.17325 0.9457 0.9106 0.0
C244 C 0.1888 0.97296 0.94847 0.0
C245 C 0.20471 0.95248 0.95793 0.0
U246 U 0.22038 0.8797 1.00088 0.0
O247 O 0.22918 0.8377 0.99939 0.0
O248 O 0.25828 0.8649 0.01719 0.0
C249 C 0.25328 0.84081 0.00929 0.0
C250 C 0.22066 0.90599 0.95435 0.0
C251 C 0.2746 0.82761 0.99381 0.0
C252 C 0.29644 0.81579 0.95052 0.0
C253 C 0.27631 0.82912 0.96476 0.0
C254 C 0.31361 0.79985 0.99428 0.0
C255 C 0.31522 0.80078 0.96511 0.0
C256 C 0.29348 0.81309 0.00844 0.0
C257 C 0.17755 0.88638 0.06718 0.0
C258 C 0.16936 0.85416 0.10305 0.0
C259 C 0.15622 0.89918 0.11029 0.0
C260 C 0.16615 0.90558 0.08419 0.0
C261 C 0.15747 0.87336 0.12 0.0
C262 C 0.1794 0.86064 0.07685 0.0
C263 C 0.18604 0.89371 0.03908 0.0
O264 O 0.23696 0.91089 0.97509 0.0
O265 O 0.20748 0.88409 0.95741 0.0
O266 O 0.18062 0.87699 0.01904 0.0
O267 O 0.20971 0.90412 0.03702 0.0
H268 H 0.18914 0.90686 0.90877 0.0
H269 H 0.16083 0.94236 0.89256 0.0
H270 H 0.18921 0.99132 0.95971 0.0
H271 H 0.21657 0.95558 0.97643 0.0
H272 H 0.29694 0.8168 0.92807 0.0
H273 H 0.26194 0.84036 0.9531 0.0
H274 H 0.328 0.78897 0.00627 0.0
H275 H 0.2926 0.81189 0.03088 0.0
H276 H 0.17086 0.83416 0.11 0.0
H277 H 0.14681 0.91438 0.12251 0.0
H278 H 0.16443 0.92552 0.07702 0.0
H279 H 0.18822 0.84553 0.06403 0.0
C280 C 0.79622 0.16429 0.57689 0.0
C281 C 0.79708 0.14314 0.59531 0.0
C282 C 0.82859 0.16624 0.62494 0.0
C283 C 0.81294 0.14417 0.6191 0.0
C284 C 0.82707 0.18772 0.60693 0.0
C285 C 0.81101 0.18675 0.58318 0.0
U286 U 0.78381 0.12914 0.50891 0.0
O287 O 0.74743 0.11896 0.48625 0.0
O288 O 0.77731 0.1437 0.46644 0.0
C289 C 0.7534 0.13368 0.46489 0.0
C290 C 0.78151 0.16252 0.5503 0.0
C291 C 0.73235 0.15146 0.45536 0.0
C292 C 0.69579 0.18114 0.46475 0.0
C293 C 0.71633 0.16513 0.4743 0.0
C294 C 0.70745 0.17047 0.41725 0.0
C295 C 0.69097 0.18391 0.43608 0.0
C296 C 0.72788 0.15438 0.42682 0.0
C297 C 0.82736 0.06806 0.49699 0.0
C298 C 0.8324 0.04418 0.45355 0.0
C299 C 0.85336 0.02823 0.49548 0.0
C300 C 0.84291 0.0493 0.51037 0.0
C301 C 0.84845 0.0255 0.46683 0.0
C302 C 0.82189 0.06531 0.46853 0.0
C303 C 0.81807 0.09074 0.51306 0.0
O304 O 0.79577 0.16654 0.52792 0.0
O305 O 0.76509 0.14275 0.54759 0.0
O306 O 0.79378 0.0894 0.52268 0.0
O307 O 0.82401 0.11372 0.50287 0.0
H308 H 0.78594 0.1255 0.59113 0.0
H309 H 0.81315 0.12747 0.63277 0.0
H310 H 0.839 0.20495 0.61059 0.0
H311 H 0.81073 0.2033 0.56928 0.0
H312 H 0.68336 0.19093 0.47989 0.0
H313 H 0.7195 0.16319 0.49645 0.0
H314 H 0.70469 0.17247 0.39505 0.0
H315 H 0.74014 0.14408 0.41189 0.0
H316 H 0.82802 0.04252 0.43158 0.0
H317 H 0.86597 0.01451 0.50632 0.0
H318 H 0.8474 0.0512 0.53231 0.0
H319 H 0.80983 0.07963 0.4579 0.0
Sc320 Sc 1.00315 0.81157 0.32128 0.0
Sc321 Sc 1.00355 0.88049 0.32372 0.0
Sc322 Sc 1.00316 0.84487 0.38589 0.0
O323 O 1.00329 0.84562 0.34361 0.0
C324 C 0.96307 0.79864 0.37088 0.0
C325 C 0.96384 0.84715 0.28562 0.0
C326 C 0.96398 0.89264 0.37381 0.0
C327 C 0.04294 0.84665 0.28591 0.0
C328 C 0.04276 0.79793 0.37122 0.0
C329 C 0.04306 0.89191 0.3743 0.0
O330 O 0.97234 0.79459 0.34665 0.0
O331 O 0.97304 0.86853 0.29507 0.0
O332 O 0.97287 0.87452 0.38921 0.0
O333 O 0.03369 0.82461 0.29311 0.0
O334 O 0.03345 0.81522 0.38758 0.0
O335 O 0.03402 0.89656 0.35015 0.0
O336 O 0.03395 0.79441 0.34668 0.0
O337 O 0.0342 0.86816 0.29552 0.0
O338 O 0.03409 0.87374 0.38949 0.0
O339 O 0.97259 0.82495 0.29309 0.0
O340 O 0.97217 0.81613 0.38712 0.0
O341 O 0.97298 0.89696 0.34964 0.0
Sc342 Sc 1.00151 0.19104 0.82092 0.0
Sc343 Sc 1.00198 0.12243 0.81308 0.0
Sc344 Sc 1.00141 0.15025 0.87996 0.0
O345 O 1.00164 0.15461 0.83797 0.0
C346 C 0.04093 0.19856 0.87251 0.0
C347 C 0.04144 0.16028 0.78071 0.0
C348 C 0.04149 0.10504 0.86164 0.0
C349 C 0.96228 0.16007 0.7802 0.0
C350 C 0.9613 0.19803 0.8719 0.0
C351 C 0.96231 0.10445 0.86084 0.0
O352 O 0.03239 0.20499 0.84859 0.0
O353 O 0.03265 0.13787 0.78706 0.0
O354 O 0.03247 0.12122 0.8794 0.0
O355 O 0.97074 0.18116 0.79117 0.0
O356 O 0.97027 0.17857 0.88524 0.0
O357 O 0.97119 0.1032 0.83618 0.0
O358 O 0.97073 0.2051 0.84861 0.0
O359 O 0.97174 0.1378 0.78625 0.0
O360 O 0.97133 0.12037 0.87888 0.0
O361 O 0.03219 0.1813 0.79112 0.0
O362 O 0.03145 0.17952 0.88606 0.0
O363 O 0.03244 0.10332 0.83702 0.0
Sc364 Sc 0.50036 0.31046 0.3201 0.0
Sc365 Sc 0.50045 0.37936 0.32322 0.0
Sc366 Sc 0.50018 0.34321 0.38502 0.0
O367 O 0.50032 0.34432 0.34275 0.0
C368 C 0.46052 0.29662 0.36945 0.0
C369 C 0.46115 0.34627 0.2845 0.0
C370 C 0.46049 0.39056 0.37337 0.0
C371 C 0.54023 0.34592 0.28537 0.0
C372 C 0.54021 0.29688 0.36999 0.0
C373 C 0.53947 0.39094 0.37404 0.0
O374 O 0.46917 0.29339 0.34484 0.0
O375 O 0.4699 0.36761 0.29451 0.0
O376 O 0.4691 0.37205 0.38842 0.0
O377 O 0.53129 0.32374 0.29253 0.0
O378 O 0.53133 0.31447 0.38625 0.0
O379 O 0.53099 0.39532 0.34963 0.0
O380 O 0.53078 0.29292 0.34577 0.0
O381 O 0.53107 0.36732 0.29485 0.0
O382 O 0.5302 0.37289 0.38918 0.0
O383 O 0.47021 0.32408 0.29158 0.0
O384 O 0.47005 0.31354 0.38609 0.0
O385 O 0.46993 0.39549 0.3495 0.0
Sc386 Sc 0.50249 0.69129 0.82353 0.0
Sc387 Sc 0.50403 0.62269 0.81559 0.0
Sc388 Sc 0.50217 0.65039 0.88249 0.0
O389 O 0.50289 0.65483 0.84052 0.0
C390 C 0.54154 0.69887 0.87546 0.0
C391 C 0.54332 0.66105 0.78381 0.0
C392 C 0.54281 0.60543 0.86474 0.0
C393 C 0.46417 0.65993 0.78227 0.0
C394 C 0.46193 0.69803 0.8742 0.0
C395 C 0.46363 0.60445 0.86264 0.0
O396 O 0.53304 0.70536 0.85154 0.0
O397 O 0.53495 0.6385 0.79017 0.0
O398 O 0.53323 0.62135 0.88244 0.0
O399 O 0.47204 0.6811 0.79354 0.0
O400 O 0.47098 0.67863 0.88756 0.0
O401 O 0.47313 0.60308 0.83823 0.0
O402 O 0.47138 0.70514 0.85095 0.0
O403 O 0.47401 0.6378 0.78825 0.0
O404 O 0.47208 0.62057 0.88078 0.0
O405 O 0.53344 0.68193 0.7939 0.0
O406 O 0.53214 0.67971 0.88889 0.0
O407 O 0.53436 0.60387 0.83989 0.0
H408 H 0.17498 0.30085 0.90594 0.0
H409 H 0.06097 0.19416 0.92517 0.0
H410 H 0.15643 0.26396 0.98386 0.0
H411 H 0.07103 0.23772 0.84942 0.0
H412 H 0.09701 0.21882 0.94618 0.0
H413 H 0.13788 0.2776 0.88426 0.0
C414 C 0.16307 0.28801 0.91855 0.0
C415 C 0.16903 0.28429 0.9468 0.0
C416 C 0.09135 0.22307 0.92497 0.0
C417 C 0.1267 0.25737 0.92196 0.0
C418 C 0.07073 0.20891 0.91288 0.0
C419 C 0.06284 0.21379 0.88539 0.0
C420 C 0.10445 0.24226 0.90954 0.0
C421 C 0.07635 0.23327 0.87066 0.0
C422 C 0.14196 0.27464 0.9061 0.0
C423 C 0.15301 0.26711 0.96194 0.0
N424 N 0.09653 0.24674 0.88289 0.0
N425 N 0.1327 0.2543 0.94934 0.0
H426 H 0.84347 0.679 0.39198 0.0
H427 H 0.93469 0.80419 0.41908 0.0
H428 H 0.83126 0.73343 0.45958 0.0
H429 H 0.94021 0.75599 0.34539 0.0
H430 H 0.89807 0.77735 0.43519 0.0
H431 H 0.87996 0.70592 0.3755 0.0
C432 C 0.8483 0.6967 0.40329 0.0
C433 C 0.83409 0.70395 0.42721 0.0
C434 C 0.90726 0.77264 0.41548 0.0
C435 C 0.8763 0.73472 0.40859 0.0
C436 C 0.92826 0.78795 0.40624 0.0
C437 C 0.94068 0.7824 0.38077 0.0
C438 C 0.89856 0.75146 0.39927 0.0
C439 C 0.93129 0.76109 0.36512 0.0
C440 C 0.86928 0.712 0.39392 0.0
C441 C 0.84177 0.72684 0.44127 0.0
N442 N 0.91086 0.74638 0.37464 0.0
N443 N 0.86231 0.74137 0.43176 0.0
H444 H 0.8325 0.24892 0.97718 0.0
H445 H 0.93877 0.24404 0.85385 0.0
H446 H 0.84359 0.31239 0.91985 0.0
H447 H 0.93272 0.18621 0.9184 0.0
H448 H 0.90237 0.26835 0.87559 0.0
H449 H 0.86763 0.22477 0.95383 0.0
C450 C 0.84242 0.25789 0.95977 0.0
C451 C 0.83515 0.2829 0.9507 0.0
C452 C 0.90905 0.25033 0.88493 0.0
C453 C 0.87539 0.255 0.92344 0.0
C454 C 0.92981 0.2364 0.87251 0.0
C455 C 0.93898 0.21302 0.8843 0.0
C456 C 0.89725 0.24076 0.90923 0.0
C457 C 0.92652 0.20415 0.90854 0.0
C458 C 0.86243 0.24398 0.94631 0.0
C459 C 0.84836 0.29313 0.9275 0.0
N460 N 0.90638 0.21799 0.92013 0.0
N461 N 0.86788 0.27918 0.91472 0.0
H462 H 0.1728 0.68772 0.38522 0.0
H463 H 0.06492 0.79687 0.42333 0.0
H464 H 0.16028 0.7173 0.46833 0.0
H465 H 0.07113 0.76081 0.34226 0.0
H466 H 0.10113 0.76931 0.43961 0.0
H467 H 0.13688 0.71559 0.36869 0.0
C468 C 0.16244 0.69996 0.40006 0.0
C469 C 0.16961 0.70001 0.42829 0.0
C470 C 0.09457 0.7674 0.41826 0.0
C471 C 0.12855 0.73234 0.40932 0.0
C472 C 0.07387 0.78318 0.40889 0.0
C473 C 0.06483 0.78121 0.38132 0.0
C474 C 0.10652 0.74951 0.39997 0.0
C475 C 0.07731 0.76304 0.36369 0.0
C476 C 0.14199 0.71599 0.39055 0.0
C477 C 0.15574 0.71677 0.44636 0.0
N478 N 0.09751 0.74794 0.3733 0.0
N479 N 0.1359 0.7322 0.43658 0.0
H480 H 0.6758 0.80075 0.90907 0.0
H481 H 0.56121 0.69467 0.9283 0.0
H482 H 0.65665 0.7645 0.98717 0.0
H483 H 0.57179 0.73793 0.85243 0.0
H484 H 0.59722 0.71933 0.94942 0.0
H485 H 0.63867 0.77757 0.88737 0.0
C486 C 0.66375 0.78806 0.92172 0.0
C487 C 0.66955 0.78451 0.95002 0.0
C488 C 0.59167 0.72351 0.92817 0.0
C489 C 0.62718 0.75766 0.92517 0.0
C490 C 0.57108 0.70936 0.91601 0.0
C491 C 0.56336 0.71414 0.88845 0.0
C492 C 0.60491 0.7426 0.91272 0.0
C493 C 0.57698 0.73355 0.87373 0.0
C494 C 0.64262 0.77474 0.90926 0.0
C495 C 0.65336 0.76752 0.96521 0.0
N496 N 0.59714 0.74701 0.88602 0.0
N497 N 0.63304 0.75474 0.9526 0.0
H498 H 0.32931 0.18806 0.38297 0.0
H499 H 0.43883 0.29518 0.42159 0.0
H500 H 0.34332 0.21664 0.46626 0.0
H501 H 0.43152 0.2602 0.34007 0.0
H502 H 0.40254 0.26794 0.43768 0.0
H503 H 0.36541 0.21551 0.3664 0.0
C504 C 0.34002 0.2 0.39784 0.0
C505 C 0.33321 0.19991 0.42613 0.0
C506 C 0.40887 0.26619 0.41627 0.0
C507 C 0.37446 0.23174 0.40713 0.0
C508 C 0.42963 0.28179 0.407 0.0
C509 C 0.43839 0.28004 0.37936 0.0
C510 C 0.39656 0.24867 0.39782 0.0
C511 C 0.42556 0.26224 0.36155 0.0
C512 C 0.36057 0.21578 0.3883 0.0
C513 C 0.34755 0.21624 0.44424 0.0
N514 N 0.4053 0.24729 0.37108 0.0
N515 N 0.36746 0.23144 0.43444 0.0
H516 H 0.34419 0.81526 0.9192 0.0
H517 H 0.43316 0.68577 0.9204 0.0
H518 H 0.33399 0.75183 0.97675 0.0
H519 H 0.43942 0.74421 0.8565 0.0
H520 H 0.39716 0.71046 0.94136 0.0
H521 H 0.3791 0.79018 0.89584 0.0
C522 C 0.34914 0.79603 0.92685 0.0
C523 C 0.33617 0.78576 0.95016 0.0
C524 C 0.40632 0.71792 0.92272 0.0
C525 C 0.37633 0.75707 0.92365 0.0
C526 C 0.427 0.70381 0.9107 0.0
C527 C 0.43952 0.71289 0.8866 0.0
C528 C 0.39798 0.74146 0.91075 0.0
C529 C 0.43041 0.73641 0.87505 0.0
C530 C 0.36917 0.78178 0.91356 0.0
C531 C 0.34371 0.76083 0.95925 0.0
N532 N 0.41026 0.74993 0.88728 0.0
N533 N 0.36326 0.74744 0.94606 0.0
H534 H 0.65769 0.1748 0.39176 0.0
H535 H 0.5696 0.30257 0.41765 0.0
H536 H 0.67328 0.2309 0.45704 0.0
H537 H 0.56197 0.25351 0.3448 0.0
H538 H 0.60618 0.2753 0.43355 0.0
H539 H 0.62145 0.20229 0.37529 0.0
C540 C 0.65367 0.19297 0.40255 0.0
C541 C 0.66873 0.2005 0.42585 0.0
C542 C 0.59654 0.27051 0.41407 0.0
C543 C 0.62679 0.23193 0.40726 0.0
C544 C 0.57555 0.28606 0.40497 0.0
C545 C 0.56256 0.28039 0.37979 0.0
C546 C 0.60462 0.24896 0.39804 0.0
C547 C 0.57135 0.25871 0.3643 0.0
C548 C 0.63283 0.2086 0.39319 0.0
C549 C 0.66208 0.22405 0.43925 0.0
N550 N 0.59176 0.24378 0.3737 0.0
N551 N 0.64164 0.23888 0.42979 0.0
H552 H 0.35573 0.47329 0.86891 0.0
H553 H 0.43764 0.60087 0.91254 0.0
H554 H 0.35135 0.50951 0.94995 0.0
H555 H 0.44124 0.56545 0.83097 0.0
H556 H 0.40454 0.56871 0.9259 0.0
H557 H 0.38535 0.50809 0.8539 0.0
C558 C 0.36077 0.48868 0.88348 0.0
C559 C 0.35107 0.48836 0.9108 0.0
C560 C 0.41249 0.56803 0.90504 0.0
C561 C 0.38533 0.52816 0.89381 0.0
C562 C 0.43143 0.58643 0.89736 0.0
C563 C 0.44245 0.58587 0.87059 0.0
C564 C 0.40445 0.54882 0.88588 0.0
C565 C 0.43345 0.56666 0.85186 0.0
C566 C 0.37784 0.50848 0.87494 0.0
C567 C 0.35865 0.50868 0.92885 0.0
N568 N 0.41509 0.54887 0.8599 0.0
N569 N 0.37536 0.52767 0.92007 0.0
H570 H 0.64471 0.52132 0.40523 0.0
H571 H 0.56034 0.39083 0.42676 0.0
H572 H 0.63085 0.48585 0.48499 0.0
H573 H 0.56514 0.43157 0.34866 0.0
H574 H 0.59086 0.42249 0.44714 0.0
H575 H 0.61994 0.48587 0.38307 0.0
C576 C 0.63653 0.50608 0.4181 0.0
C577 C 0.6398 0.50672 0.44709 0.0
C578 C 0.58535 0.42442 0.42549 0.0
C579 C 0.61161 0.46591 0.42176 0.0
C580 C 0.56794 0.40628 0.41379 0.0
C581 C 0.55988 0.4086 0.38596 0.0
C582 C 0.59488 0.44507 0.40932 0.0
C583 C 0.57058 0.42905 0.37024 0.0
C584 C 0.62249 0.48577 0.4054 0.0
C585 C 0.62915 0.48611 0.46259 0.0
N586 N 0.58738 0.44656 0.38217 0.0
N587 N 0.61545 0.46667 0.44976 0.0
H588 H 0.63725 0.49696 0.95944 0.0
H589 H 0.57462 0.57453 0.83206 0.0
H590 H 0.66762 0.491 0.87584 0.0
H591 H 0.55921 0.59443 0.91781 0.0
H592 H 0.60753 0.54266 0.84738 0.0
H593 H 0.60742 0.53156 0.94435 0.0
C594 C 0.63791 0.50306 0.93796 0.0
C595 C 0.65515 0.49094 0.91893 0.0
C596 C 0.59705 0.55412 0.86283 0.0
C597 C 0.62042 0.53036 0.90138 0.0
C598 C 0.5782 0.5723 0.85411 0.0
C599 C 0.56399 0.58717 0.87366 0.0
C600 C 0.60158 0.55051 0.89133 0.0
C601 C 0.56965 0.58346 0.90196 0.0
C602 C 0.62071 0.52277 0.92933 0.0
C603 C 0.65448 0.4994 0.89121 0.0
N604 N 0.58783 0.56538 0.90993 0.0
N605 N 0.63735 0.51848 0.88326 0.0
H606 H 0.353 0.47191 0.48367 0.0
H607 H 0.43987 0.43504 0.35017 0.0
H608 H 0.36801 0.52496 0.41625 0.0
H609 H 0.4336 0.38625 0.42269 0.0
H610 H 0.4086 0.46565 0.3712 0.0
H611 H 0.37757 0.43801 0.45878 0.0
C612 C 0.36138 0.47642 0.46359 0.0
C613 C 0.35865 0.50147 0.45221 0.0
C614 C 0.41394 0.44816 0.38243 0.0
C615 C 0.3867 0.46259 0.42347 0.0
C616 C 0.43178 0.4306 0.37041 0.0
C617 C 0.43966 0.40807 0.38476 0.0
C618 C 0.40379 0.44322 0.409 0.0
C619 C 0.42834 0.40342 0.4109 0.0
C620 C 0.37533 0.45701 0.44934 0.0
C621 C 0.36945 0.50595 0.4258 0.0
N622 N 0.41112 0.4209 0.42222 0.0
N623 N 0.38316 0.48678 0.41244 0.0
H624 H 0.86118 0.00218 0.95532 0.0
H625 H 0.93463 0.06998 0.8279 0.0
H626 H 0.84425 0.98358 0.86949 0.0
H627 H 0.94198 0.09639 0.91294 0.0
H628 H 0.90177 0.03804 0.84262 0.0
H629 H 0.89092 0.03665 0.94011 0.0
C630 C 0.86346 0.00547 0.93326 0.0
C631 C 0.85007 0.98984 0.91369 0.0
C632 C 0.91048 0.05091 0.85803 0.0
C633 C 0.88467 0.02915 0.8961 0.0
C634 C 0.9293 0.06917 0.84965 0.0
C635 C 0.94126 0.08591 0.8692 0.0
C636 C 0.90363 0.04918 0.88622 0.0
C637 C 0.93338 0.08393 0.89709 0.0
C638 C 0.88062 0.02511 0.92459 0.0
C639 C 0.85438 0.9948 0.88537 0.0
N640 N 0.91521 0.06582 0.90476 0.0
N641 N 0.87135 0.01393 0.87745 0.0
H642 H 0.14937 0.97394 0.48546 0.0
H643 H 0.06449 0.93568 0.35066 0.0
H644 H 0.13621 0.02582 0.41648 0.0
H645 H 0.06907 0.88817 0.42433 0.0
H646 H 0.09571 0.96626 0.37178 0.0
H647 H 0.1249 0.93989 0.46071 0.0
C648 C 0.14142 0.97816 0.46506 0.0
C649 C 0.14463 0.00293 0.4532 0.0
C650 C 0.09001 0.94906 0.38324 0.0
C651 C 0.11671 0.96389 0.42461 0.0
C652 C 0.0722 0.93151 0.37118 0.0
C653 C 0.06385 0.90936 0.38581 0.0
C654 C 0.09967 0.94448 0.41015 0.0
C655 C 0.0747 0.90505 0.4123 0.0
C656 C 0.12752 0.95866 0.4509 0.0
C657 C 0.13438 0.00703 0.42642 0.0
N658 N 0.0919 0.92251 0.42366 0.0
N659 N 0.12071 0.98779 0.41314 0.0
H660 H 0.14404 0.00406 0.95714 0.0
H661 H 0.06928 0.07037 0.82911 0.0
H662 H 0.15999 0.98431 0.87146 0.0
H663 H 0.06216 0.0976 0.91386 0.0
H664 H 0.10237 0.03865 0.84417 0.0
H665 H 0.11401 0.03836 0.94165 0.0
C666 C 0.14148 0.00706 0.93505 0.0
C667 C 0.15468 0.99116 0.91561 0.0
C668 C 0.09367 0.05166 0.85945 0.0
C669 C 0.11977 0.03028 0.89771 0.0
C670 C 0.07471 0.0698 0.85088 0.0
C671 C 0.06274 0.08669 0.87024 0.0
C672 C 0.10066 0.0502 0.88765 0.0
C673 C 0.07076 0.08501 0.89815 0.0
C674 C 0.12416 0.0266 0.92623 0.0
C675 C 0.15001 0.99575 0.88726 0.0
N676 N 0.08907 0.06701 0.90601 0.0
N677 N 0.13291 0.0148 0.87919 0.0
H678 H 0.85534 0.97449 0.48254 0.0
H679 H 0.94329 0.93683 0.35004 0.0
H680 H 0.87076 0.02716 0.41488 0.0
H681 H 0.93731 0.88901 0.42333 0.0
H682 H 0.91185 0.96756 0.37061 0.0
H683 H 0.88045 0.9406 0.45826 0.0
C684 C 0.86393 0.97893 0.46253 0.0
C685 C 0.86115 0.00387 0.45091 0.0
C686 C 0.9173 0.95026 0.38211 0.0
C687 C 0.88981 0.96499 0.42286 0.0
C688 C 0.93524 0.93263 0.37036 0.0
C689 C 0.94323 0.91033 0.38505 0.0
C690 C 0.90715 0.9456 0.40874 0.0
C691 C 0.93197 0.906 0.41128 0.0
C692 C 0.8782 0.95952 0.44863 0.0
C693 C 0.87223 0.00823 0.42461 0.0
N694 N 0.91463 0.92352 0.42232 0.0
N695 N 0.88623 0.98906 0.41158 0.0
H696 H 0.37764 0.3258 0.12927 0.0
H697 H 0.4291 0.3876 0.27174 0.0
H698 H 0.35072 0.39978 0.16209 0.0
H699 H 0.44642 0.3083 0.24689 0.0
H700 H 0.39862 0.39132 0.23266 0.0
H701 H 0.40089 0.31768 0.17306 0.0
C702 C 0.37626 0.34017 0.1458 0.0
C703 C 0.36243 0.36367 0.14181 0.0
C704 C 0.40888 0.373 0.23584 0.0
C705 C 0.38937 0.35465 0.19184 0.0
C706 C 0.42637 0.37087 0.25817 0.0
C707 C 0.44056 0.34767 0.26252 0.0
C708 C 0.4057 0.35189 0.21739 0.0
C709 C 0.43595 0.32659 0.24434 0.0
C710 C 0.38967 0.33557 0.17076 0.0
C711 C 0.3616 0.38165 0.16394 0.0
N712 N 0.41915 0.3293 0.22238 0.0
N713 N 0.37506 0.37687 0.18783 0.0
H714 H 0.64638 0.70911 0.64934 0.0
H715 H 0.57369 0.62132 0.76286 0.0
H716 H 0.65916 0.62637 0.65907 0.0
H717 H 0.56205 0.70461 0.75686 0.0
H718 H 0.60673 0.62362 0.72629 0.0
H719 H 0.61736 0.70871 0.69004 0.0
C720 C 0.64331 0.69091 0.66017 0.0
C721 C 0.65509 0.66769 0.65059 0.0
C722 C 0.59708 0.64146 0.73301 0.0
C723 C 0.62168 0.66706 0.69703 0.0
C724 C 0.57813 0.64017 0.75395 0.0
C725 C 0.56483 0.66279 0.76291 0.0
C726 C 0.60284 0.66553 0.72066 0.0
C727 C 0.57171 0.68665 0.75062 0.0
C728 C 0.62662 0.69068 0.68333 0.0
C729 C 0.65014 0.64466 0.66533 0.0
N730 N 0.5901 0.68736 0.72999 0.0
N731 N 0.63377 0.64492 0.68767 0.0
H732 H 0.62699 0.32682 0.13236 0.0
H733 H 0.57307 0.38686 0.2743 0.0
H734 H 0.65564 0.39874 0.16851 0.0
H735 H 0.55541 0.30818 0.24768 0.0
H736 H 0.60469 0.39057 0.2364 0.0
H737 H 0.60236 0.31832 0.17508 0.0
C738 C 0.62846 0.34064 0.1494 0.0
C739 C 0.64319 0.36371 0.14664 0.0
C740 C 0.59411 0.37238 0.23894 0.0
C741 C 0.61467 0.35429 0.19544 0.0
C742 C 0.57596 0.37027 0.26058 0.0
C743 C 0.56136 0.34724 0.26408 0.0
C744 C 0.59754 0.35146 0.22031 0.0
C745 C 0.5662 0.32632 0.24576 0.0
C746 C 0.61426 0.33583 0.17375 0.0
C747 C 0.64409 0.38099 0.16939 0.0
N748 N 0.58365 0.32903 0.22446 0.0
N749 N 0.62985 0.37605 0.19266 0.0
H750 H 0.34111 0.70436 0.6641 0.0
H751 H 0.44516 0.61942 0.75084 0.0
H752 H 0.36483 0.6258 0.64263 0.0
H753 H 0.43551 0.70241 0.76369 0.0
H754 H 0.41243 0.62104 0.71383 0.0
H755 H 0.37281 0.70381 0.70275 0.0
C756 C 0.35297 0.68704 0.6674 0.0
C757 C 0.35008 0.66502 0.65007 0.0
C758 C 0.41741 0.63894 0.72472 0.0
C759 C 0.38614 0.6642 0.69451 0.0
C760 C 0.43612 0.63804 0.746 0.0
C761 C 0.4433 0.66085 0.76047 0.0
C762 C 0.40554 0.66279 0.71772 0.0
C763 C 0.43071 0.68433 0.75309 0.0
C764 C 0.37098 0.68671 0.68956 0.0
C765 C 0.36584 0.64304 0.65567 0.0
N766 N 0.41245 0.6847 0.73221 0.0
N767 N 0.38308 0.6432 0.67735 0.0
H768 H 0.8786 0.82699 0.13139 0.0
H769 H 0.93164 0.88843 0.27329 0.0
H770 H 0.85125 0.90039 0.16527 0.0
H771 H 0.94864 0.80913 0.24825 0.0
H772 H 0.90061 0.89212 0.23469 0.0
H773 H 0.90247 0.81875 0.17479 0.0
C774 C 0.87725 0.84119 0.14807 0.0
C775 C 0.86313 0.86459 0.14448 0.0
C776 C 0.91091 0.8738 0.23772 0.0
C777 C 0.89077 0.85544 0.19406 0.0
C778 C 0.92873 0.8717 0.25977 0.0
C779 C 0.94299 0.8485 0.26392 0.0
C780 C 0.90748 0.85268 0.21934 0.0
C781 C 0.93813 0.8274 0.24583 0.0
C782 C 0.89102 0.83653 0.1728 0.0
C783 C 0.86236 0.88237 0.1668 0.0
N784 N 0.92101 0.8301 0.22413 0.0
N785 N 0.87617 0.87754 0.19046 0.0
H786 H 0.15811 0.20911 0.6585 0.0
H787 H 0.06585 0.11972 0.75373 0.0
H788 H 0.14873 0.12589 0.64807 0.0
H789 H 0.06568 0.20391 0.75904 0.0
H790 H 0.09901 0.12196 0.71736 0.0
H791 H 0.12664 0.20793 0.69717 0.0
C792 C 0.14946 0.19061 0.66427 0.0
C793 C 0.15625 0.16754 0.64998 0.0
C794 C 0.09179 0.13998 0.72646 0.0
C795 C 0.12042 0.16606 0.69442 0.0
C796 C 0.07281 0.13874 0.74736 0.0
C797 C 0.06273 0.16169 0.7595 0.0
C798 C 0.10097 0.16434 0.71746 0.0
C799 C 0.07277 0.1857 0.75028 0.0
C800 C 0.13159 0.18995 0.68644 0.0
C801 C 0.14459 0.14411 0.65869 0.0
N802 N 0.09128 0.18641 0.72976 0.0
N803 N 0.12732 0.144 0.68025 0.0
H804 H 0.15894 0.9014 0.16869 0.0
H805 H 0.05792 0.80822 0.24894 0.0
H806 H 0.1281 0.83003 0.13332 0.0
H807 H 0.07553 0.8875 0.2735 0.0
H808 H 0.08947 0.81226 0.21058 0.0
H809 H 0.13443 0.8928 0.21126 0.0
C810 C 0.14709 0.88386 0.16989 0.0
C811 C 0.1453 0.86663 0.14716 0.0
C812 C 0.08654 0.82867 0.22454 0.0
C813 C 0.11728 0.85653 0.19609 0.0
C814 C 0.06863 0.82635 0.24651 0.0
C815 C 0.06385 0.84764 0.26435 0.0
C816 C 0.09995 0.85234 0.22055 0.0
C817 C 0.07831 0.87066 0.26012 0.0
C818 C 0.13315 0.87892 0.19426 0.0
C819 C 0.13014 0.84385 0.15028 0.0
N820 N 0.09558 0.87241 0.23864 0.0
N821 N 0.11653 0.83957 0.17419 0.0
H822 H 0.84161 0.20683 0.66045 0.0
H823 H 0.94063 0.11943 0.75093 0.0
H824 H 0.8587 0.12559 0.64408 0.0
H825 H 0.93555 0.2032 0.76025 0.0
H826 H 0.9075 0.12133 0.71435 0.0
H827 H 0.8733 0.20594 0.6991 0.0
C828 C 0.852 0.18883 0.6649 0.0
C829 C 0.84729 0.16621 0.64896 0.0
C830 C 0.91356 0.13933 0.72437 0.0
C831 C 0.88335 0.16503 0.69338 0.0
C832 C 0.93251 0.13829 0.7454 0.0
C833 C 0.94111 0.16123 0.75874 0.0
C834 C 0.90288 0.16348 0.71646 0.0
C835 C 0.92965 0.18501 0.75054 0.0
C836 C 0.87 0.18833 0.68705 0.0
C837 C 0.86117 0.14339 0.65601 0.0
N838 N 0.91115 0.18553 0.72989 0.0
N839 N 0.87848 0.14341 0.67762 0.0
loop_
_geom_bond_atom_site_label_1
_geom_bond_atom_site_label_2
_geom_bond_distance
_geom_bond_site_symmetry_2
_ccdc_geom_bond_type
C0 C1 1.264 . S
C0 C5 1.479 . S
C0 C10 1.465 . S
C1 C0 1.264 . S
C1 C3 1.339 . S
C1 H28 0.952 . S
C2 C3 1.395 . S
C2 C4 1.320 . S
C3 C1 1.339 . S
C3 C2 1.395 . S
C3 H29 0.929 . S
C4 C2 1.320 . S
C4 C5 1.405 . S
C4 H30 0.930 . S
C5 C0 1.479 . S
C5 C4 1.405 . S
C5 H31 0.931 . S
U6 O7 2.454 1_554 S
U6 O8 2.458 . S
U6 C9 2.984 1_554 S
U6 C10 2.847 1_554 S
U6 C23 2.882 . S
U6 O24 2.441 1_554 S
U6 O25 2.420 . S
U6 O26 2.455 . S
U6 O27 2.449 . S
O7 U6 2.454 1_556 S
O7 C9 1.353 . S
O8 U6 2.458 . S
O8 C9 1.286 1_554 S
C9 U6 2.984 1_556 S
C9 O7 1.353 . S
C9 O8 1.286 1_556 S
C9 C11 1.363 . S
C10 C0 1.465 . S
C10 U6 2.847 1_556 S
C10 O24 1.249 . S
C10 O25 1.202 1_556 S
C11 C9 1.363 . S
C11 C13 1.408 . S
C11 C16 1.342 . S
C12 C13 1.310 . S
C12 C15 1.461 . S
C12 H32 0.932 . S
C13 C11 1.408 . S
C13 C12 1.310 . S
C13 H33 0.930 . S
C14 C15 1.474 . S
C14 C16 1.285 . S
C14 H34 0.929 . S
C15 C12 1.461 . S
C15 C14 1.474 . S
C16 C11 1.342 . S
C16 C14 1.285 . S
C16 H35 0.930 1_556 S
C17 C20 1.424 . S
C17 C22 1.245 . S
C17 C23 1.428 . S
C18 C21 1.260 . S
C18 C22 1.477 . S
C18 H36 0.932 . S
C19 C20 1.384 . S
C19 C21 1.479 . S
C19 H37 0.929 . S
C20 C17 1.424 . S
C20 C19 1.384 . S
C20 H38 0.928 . S
C21 C18 1.260 . S
C21 C19 1.479 . S
C22 C17 1.245 . S
C22 C18 1.477 . S
C22 H39 0.932 . S
C23 U6 2.882 . S
C23 C17 1.428 . S
C23 O26 1.301 . S
C23 O27 1.282 . S
O24 U6 2.441 1_556 S
O24 C10 1.249 . S
O25 U6 2.420 . S
O25 C10 1.202 1_554 S
O26 U6 2.455 . S
O26 C23 1.301 . S
O27 U6 2.449 . S
O27 C23 1.282 . S
H28 C1 0.952 . S
H29 C3 0.929 . S
H30 C4 0.930 . S
H31 C5 0.931 . S
H32 C12 0.932 . S
H33 C13 0.930 . S
H34 C14 0.929 . S
H35 C16 0.930 1_554 S
H36 C18 0.932 . S
H37 C19 0.929 . S
H38 C20 0.928 . S
H39 C22 0.932 . S
C40 C41 1.264 . S
C40 C45 1.479 . S
C40 C50 1.465 . S
C41 C40 1.264 . S
C41 C43 1.339 . S
C41 H68 0.931 . S
C42 C43 1.395 . S
C42 C44 1.320 . S
C43 C41 1.339 . S
C43 C42 1.395 . S
C43 H69 0.929 . S
C44 C42 1.320 . S
C44 C45 1.405 . S
C44 H70 0.930 . S
C45 C40 1.479 . S
C45 C44 1.405 . S
C45 H71 0.931 . S
U46 O47 2.454 . S
U46 O48 2.458 . S
U46 C49 2.984 . S
U46 C50 2.847 . S
U46 C63 2.882 . S
U46 O64 2.441 . S
U46 O65 2.420 . S
U46 O66 2.455 . S
U46 O67 2.449 . S
O47 U46 2.454 . S
O47 C49 1.353 . S
O48 U46 2.458 . S
O48 C49 1.286 . S
C49 U46 2.984 . S
C49 O47 1.353 . S
C49 O48 1.286 . S
C49 C51 1.363 . S
C50 C40 1.465 . S
C50 U46 2.847 . S
C50 O64 1.249 . S
C50 O65 1.202 . S
C51 C49 1.363 . S
C51 C53 1.408 . S
C51 C56 1.342 . S
C52 C53 1.310 . S
C52 C55 1.461 . S
C52 H72 0.932 . S
C53 C51 1.408 . S
C53 C52 1.310 . S
C53 H73 0.930 . S
C54 C55 1.474 . S
C54 C56 1.285 . S
C54 H74 0.929 . S
C55 C52 1.461 . S
C55 C54 1.474 . S
C56 C51 1.342 . S
C56 C54 1.285 . S
C56 H75 0.930 . S
C57 C60 1.424 . S
C57 C62 1.245 . S
C57 C63 1.428 . S
C58 C61 1.260 . S
C58 C62 1.477 . S
C58 H76 0.932 . S
C59 C60 1.384 . S
C59 C61 1.479 . S
C59 H77 0.929 . S
C60 C57 1.424 . S
C60 C59 1.384 . S
C60 H78 0.928 . S
C61 C58 1.260 . S
C61 C59 1.479 . S
C62 C57 1.245 . S
C62 C58 1.477 . S
C62 H79 0.932 . S
C63 U46 2.882 . S
C63 C57 1.428 . S
C63 O66 1.301 . S
C63 O67 1.282 . S
O64 U46 2.441 . S
O64 C50 1.249 . S
O65 U46 2.420 . S
O65 C50 1.202 . S
O66 U46 2.455 . S
O66 C63 1.301 . S
O67 U46 2.449 . S
O67 C63 1.282 . S
H68 C41 0.931 . S
H69 C43 0.929 . S
H70 C44 0.930 . S
H71 C45 0.931 . S
H72 C52 0.932 . S
H73 C53 0.930 . S
H74 C54 0.929 . S
H75 C56 0.930 . S
H76 C58 0.932 . S
H77 C59 0.929 . S
H78 C60 0.928 . S
H79 C62 0.932 . S
C80 C81 1.264 . S
C80 C85 1.479 . S
C80 C90 1.465 . S
C81 C80 1.264 . S
C81 C83 1.339 . S
C81 H108 0.931 . S
C82 C83 1.395 . S
C82 C84 1.320 . S
C83 C81 1.339 . S
C83 C82 1.395 . S
C83 H109 0.929 . S
C84 C82 1.320 . S
C84 C85 1.405 . S
C84 H110 0.930 . S
C85 C80 1.479 . S
C85 C84 1.405 . S
C85 H111 0.931 . S
U86 O87 2.435 1_554 S
U86 O88 2.461 . S
U86 C89 2.976 1_554 S
U86 C90 2.830 1_554 S
U86 C103 2.910 . S
U86 O104 2.416 1_554 S
U86 O105 2.413 1_554 S
U86 O106 2.481 . S
U86 O107 2.471 . S
O87 U86 2.435 1_556 S
O87 C89 1.353 . S
O88 U86 2.461 . S
O88 C89 1.286 1_554 S
C89 U86 2.976 1_556 S
C89 O87 1.353 . S
C89 O88 1.286 1_556 S
C89 C91 1.363 . S
C90 C80 1.465 . S
C90 U86 2.830 1_556 S
C90 O104 1.249 . S
C90 O105 1.202 . S
C91 C89 1.363 . S
C91 C93 1.408 . S
C91 C96 1.342 . S
C92 C93 1.310 . S
C92 C95 1.461 . S
C92 H112 0.932 . S
C93 C91 1.408 . S
C93 C92 1.310 . S
C93 H113 0.930 . S
C94 C95 1.474 . S
C94 C96 1.285 . S
C94 H114 0.929 . S
C95 C92 1.461 . S
C95 C94 1.474 . S
C96 C91 1.342 . S
C96 C94 1.285 . S
C96 H115 0.930 1_556 S
C97 C100 1.424 . S
C97 C102 1.245 . S
C97 C103 1.428 . S
C98 C101 1.260 . S
C98 C102 1.477 . S
C98 H116 0.932 . S
C99 C100 1.384 . S
C99 C101 1.479 . S
C99 H117 0.929 . S
C100 C97 1.424 . S
C100 C99 1.384 . S
C100 H118 0.928 . S
C101 C98 1.260 . S
C101 C99 1.479 . S
C102 C97 1.245 . S
C102 C98 1.477 . S
C102 H119 0.932 . S
C103 U86 2.910 . S
C103 C97 1.428 . S
C103 O106 1.301 . S
C103 O107 1.282 . S
O104 U86 2.416 1_556 S
O104 C90 1.249 . S
O105 U86 2.413 1_556 S
O105 C90 1.202 . S
O106 U86 2.481 . S
O106 C103 1.301 . S
O107 U86 2.471 . S
O107 C103 1.282 . S
H108 C81 0.931 . S
H109 C83 0.929 . S
H110 C84 0.930 . S
H111 C85 0.931 . S
H112 C92 0.932 . S
H113 C93 0.930 . S
H114 C94 0.929 . S
H115 C96 0.930 1_554 S
H116 C98 0.932 . S
H117 C99 0.929 . S
H118 C100 0.928 . S
H119 C102 0.932 . S
C120 C121 1.264 . S
C120 C125 1.479 . S
C120 C130 1.465 . S
C121 C120 1.264 . S
C121 C123 1.339 . S
C121 H148 0.931 . S
C122 C123 1.395 . S
C122 C124 1.320 . S
C123 C121 1.339 . S
C123 C122 1.395 . S
C123 H149 0.929 . S
C124 C122 1.320 . S
C124 C125 1.405 . S
C124 H150 0.930 . S
C125 C120 1.479 . S
C125 C124 1.405 . S
C125 H151 0.931 . S
U126 O127 2.454 . S
U126 O128 2.458 . S
U126 C129 2.984 . S
U126 C130 2.847 . S
U126 C143 2.882 . S
U126 O144 2.441 . S
U126 O145 2.420 . S
U126 O146 2.455 . S
U126 O147 2.449 . S
O127 U126 2.454 . S
O127 C129 1.353 . S
O128 U126 2.458 . S
O128 C129 1.286 . S
C129 U126 2.984 . S
C129 O127 1.353 . S
C129 O128 1.286 . S
C129 C131 1.363 . S
C130 C120 1.465 . S
C130 U126 2.847 . S
C130 O144 1.249 . S
C130 O145 1.202 . S
C131 C129 1.363 . S
C131 C133 1.408 . S
C131 C136 1.342 . S
C132 C133 1.310 . S
C132 C135 1.461 . S
C132 H152 0.932 . S
C133 C131 1.408 . S
C133 C132 1.310 . S
C133 H153 0.930 . S
C134 C135 1.474 . S
C134 C136 1.285 . S
C134 H154 0.929 . S
C135 C132 1.461 . S
C135 C134 1.474 . S
C136 C131 1.342 . S
C136 C134 1.285 . S
C136 H155 0.930 . S
C137 C140 1.424 . S
C137 C142 1.245 . S
C137 C143 1.428 . S
C138 C141 1.260 . S
C138 C142 1.477 . S
C138 H156 0.932 . S
C139 C140 1.384 . S
C139 C141 1.479 . S
C139 H157 0.929 . S
C140 C137 1.424 . S
C140 C139 1.384 . S
C140 H158 0.928 . S
C141 C138 1.260 . S
C141 C139 1.479 . S
C142 C137 1.245 . S
C142 C138 1.477 . S
C142 H159 0.932 . S
C143 U126 2.882 . S
C143 C137 1.428 . S
C143 O146 1.301 . S
C143 O147 1.282 . S
O144 U126 2.441 . S
O144 C130 1.249 . S
O145 U126 2.420 . S
O145 C130 1.202 . S
O146 U126 2.455 . S
O146 C143 1.301 . S
O147 U126 2.449 . S
O147 C143 1.282 . S
H148 C121 0.931 . S
H149 C123 0.929 . S
H150 C124 0.930 . S
H151 C125 0.931 . S
H152 C132 0.932 . S
H153 C133 0.930 . S
H154 C134 0.929 . S
H155 C136 0.930 . S
H156 C138 0.932 . S
H157 C139 0.929 . S
H158 C140 0.928 . S
H159 C142 0.932 . S
C160 C161 1.264 . S
C160 C165 1.479 . S
C160 C170 1.465 . S
C161 C160 1.264 . S
C161 C163 1.339 1_565 S
C161 H188 0.952 . S
C162 C163 1.395 . S
C162 C164 1.320 . S
C163 C161 1.339 1_545 S
C163 C162 1.395 . S
C163 H189 0.929 . S
C164 C162 1.320 . S
C164 C165 1.405 1_545 S
C164 H190 0.930 . S
C165 C160 1.479 . S
C165 C164 1.405 1_565 S
C165 H191 0.931 . S
U166 O167 2.454 1_554 S
U166 O168 2.458 . S
U166 C169 2.984 1_554 S
U166 C170 2.847 1_554 S
U166 C183 2.882 . S
U166 O184 2.441 1_554 S
U166 O185 2.420 . S
U166 O186 2.455 . S
U166 O187 2.449 . S
O167 U166 2.454 1_556 S
O167 C169 1.353 . S
O168 U166 2.458 . S
O168 C169 1.286 1_554 S
C169 U166 2.984 1_556 S
C169 O167 1.353 . S
C169 O168 1.286 1_556 S
C169 C171 1.363 . S
C170 C160 1.465 . S
C170 U166 2.847 1_556 S
C170 O184 1.249 . S
C170 O185 1.202 1_556 S
C171 C169 1.363 . S
C171 C173 1.408 . S
C171 C176 1.342 . S
C172 C173 1.310 . S
C172 C175 1.461 . S
C172 H192 0.932 . S
C173 C171 1.408 . S
C173 C172 1.310 . S
C173 H193 0.930 . S
C174 C175 1.474 . S
C174 C176 1.285 . S
C174 H194 0.929 . S
C175 C172 1.461 . S
C175 C174 1.474 . S
C176 C171 1.342 . S
C176 C174 1.285 . S
C176 H195 0.930 1_556 S
C177 C180 1.424 . S
C177 C182 1.245 . S
C177 C183 1.428 . S
C178 C181 1.260 . S
C178 C182 1.477 . S
C178 H196 0.932 . S
C179 C180 1.384 . S
C179 C181 1.479 . S
C179 H197 0.929 . S
C180 C177 1.424 . S
C180 C179 1.384 . S
C180 H198 0.928 . S
C181 C178 1.260 . S
C181 C179 1.479 . S
C182 C177 1.245 . S
C182 C178 1.477 . S
C182 H199 0.932 . S
C183 U166 2.882 . S
C183 C177 1.428 . S
C183 O186 1.301 . S
C183 O187 1.282 . S
O184 U166 2.441 1_556 S
O184 C170 1.249 . S
O185 U166 2.420 . S
O185 C170 1.202 1_554 S
O186 U166 2.455 . S
O186 C183 1.301 . S
O187 U166 2.449 . S
O187 C183 1.282 . S
H188 C161 0.952 . S
H189 C163 0.929 . S
H190 C164 0.930 . S
H191 C165 0.931 . S
H192 C172 0.932 . S
H193 C173 0.930 . S
H194 C174 0.929 . S
H195 C176 0.930 1_554 S
H196 C178 0.932 . S
H197 C179 0.929 . S
H198 C180 0.928 . S
H199 C182 0.932 . S
C200 C201 1.264 . S
C200 C205 1.479 . S
C200 C210 1.465 . S
C201 C200 1.264 . S
C201 C203 1.339 . S
C201 H228 0.931 . S
C202 C203 1.395 . S
C202 C204 1.320 . S
C203 C201 1.339 . S
C203 C202 1.395 . S
C203 H229 0.929 . S
C204 C202 1.320 . S
C204 C205 1.405 . S
C204 H230 0.930 . S
C205 C200 1.479 . S
C205 C204 1.405 . S
C205 H231 0.931 . S
U206 O207 2.454 . S
U206 O208 2.458 . S
U206 C209 2.984 . S
U206 C210 2.847 . S
U206 C223 2.882 . S
U206 O224 2.441 . S
U206 O225 2.420 . S
U206 O226 2.455 . S
U206 O227 2.449 . S
O207 U206 2.454 . S
O207 C209 1.353 . S
O208 U206 2.458 . S
O208 C209 1.286 . S
C209 U206 2.984 . S
C209 O207 1.353 . S
C209 O208 1.286 . S
C209 C211 1.363 . S
C210 C200 1.465 . S
C210 U206 2.847 . S
C210 O224 1.249 . S
C210 O225 1.202 . S
C211 C209 1.363 . S
C211 C213 1.408 . S
C211 C216 1.342 . S
C212 C213 1.310 . S
C212 C215 1.461 . S
C212 H232 0.932 . S
C213 C211 1.408 . S
C213 C212 1.310 . S
C213 H233 0.930 . S
C214 C215 1.474 . S
C214 C216 1.285 . S
C214 H234 0.929 . S
C215 C212 1.461 . S
C215 C214 1.474 . S
C216 C211 1.342 . S
C216 C214 1.285 . S
C216 H235 0.930 . S
C217 C220 1.424 . S
C217 C222 1.245 . S
C217 C223 1.428 . S
C218 C221 1.260 1_545 S
C218 C222 1.477 . S
C218 H236 0.932 . S
C219 C220 1.384 . S
C219 C221 1.479 1_545 S
C219 H237 0.929 1_545 S
C220 C217 1.424 . S
C220 C219 1.384 . S
C220 H238 0.928 . S
C221 C218 1.260 1_565 S
C221 C219 1.479 1_565 S
C222 C217 1.245 . S
C222 C218 1.477 . S
C222 H239 0.932 . S
C223 U206 2.882 . S
C223 C217 1.428 . S
C223 O226 1.301 . S
C223 O227 1.282 . S
O224 U206 2.441 . S
O224 C210 1.249 . S
O225 U206 2.420 . S
O225 C210 1.202 . S
O226 U206 2.455 . S
O226 C223 1.301 . S
O227 U206 2.449 . S
O227 C223 1.282 . S
H228 C201 0.931 . S
H229 C203 0.929 . S
H230 C204 0.930 . S
H231 C205 0.931 . S
H232 C212 0.932 . S
H233 C213 0.930 . S
H234 C214 0.929 . S
H235 C216 0.930 . S
H236 C218 0.932 . S
H237 C219 0.929 1_565 S
H238 C220 0.928 . S
H239 C222 0.932 . S
C240 C241 1.264 . S
C240 C245 1.479 . S
C240 C250 1.465 . S
C241 C240 1.264 . S
C241 C243 1.339 . S
C241 H268 0.931 . S
C242 C243 1.395 1_545 S
C242 C244 1.320 1_545 S
C243 C241 1.339 . S
C243 C242 1.395 1_565 S
C243 H269 0.929 1_565 S
C244 C242 1.320 1_565 S
C244 C245 1.405 . S
C244 H270 0.930 1_565 S
C245 C240 1.479 . S
C245 C244 1.405 . S
C245 H271 0.931 . S
U246 O247 2.435 1_554 S
U246 O248 2.461 . S
U246 C249 2.976 1_554 S
U246 C250 2.830 1_554 S
U246 C263 2.910 . S
U246 O264 2.416 1_554 S
U246 O265 2.413 1_554 S
U246 O266 2.481 . S
U246 O267 2.471 . S
O247 U246 2.435 1_556 S
O247 C249 1.353 . S
O248 U246 2.461 . S
O248 C249 1.286 1_554 S
C249 U246 2.976 1_556 S
C249 O247 1.353 . S
C249 O248 1.286 1_556 S
C249 C251 1.363 . S
C250 C240 1.465 . S
C250 U246 2.830 1_556 S
C250 O264 1.249 . S
C250 O265 1.202 . S
C251 C249 1.363 . S
C251 C253 1.408 . S
C251 C256 1.342 . S
C252 C253 1.310 . S
C252 C255 1.461 . S
C252 H272 0.932 . S
C253 C251 1.408 . S
C253 C252 1.310 . S
C253 H273 0.930 . S
C254 C255 1.474 . S
C254 C256 1.285 . S
C254 H274 0.929 . S
C255 C252 1.461 . S
C255 C254 1.474 . S
C256 C251 1.342 . S
C256 C254 1.285 . S
C256 H275 0.930 1_556 S
C257 C260 1.424 . S
C257 C262 1.245 . S
C257 C263 1.428 . S
C258 C261 1.260 . S
C258 C262 1.477 . S
C258 H276 0.932 . S
C259 C260 1.384 . S
C259 C261 1.479 . S
C259 H277 0.929 . S
C260 C257 1.424 . S
C260 C259 1.384 . S
C260 H278 0.928 . S
C261 C258 1.260 . S
C261 C259 1.479 . S
C262 C257 1.245 . S
C262 C258 1.477 . S
C262 H279 0.932 . S
C263 U246 2.910 . S
C263 C257 1.428 . S
C263 O266 1.301 . S
C263 O267 1.282 . S
O264 U246 2.416 1_556 S
O264 C250 1.249 . S
O265 U246 2.413 1_556 S
O265 C250 1.202 . S
O266 U246 2.481 . S
O266 C263 1.301 . S
O267 U246 2.471 . S
O267 C263 1.282 . S
H268 C241 0.931 . S
H269 C243 0.929 1_545 S
H270 C244 0.930 1_545 S
H271 C245 0.931 . S
H272 C252 0.932 . S
H273 C253 0.930 . S
H274 C254 0.929 . S
H275 C256 0.930 1_554 S
H276 C258 0.932 . S
H277 C259 0.929 . S
H278 C260 0.928 . S
H279 C262 0.932 . S
C280 C281 1.264 . S
C280 C285 1.479 . S
C280 C290 1.465 . S
C281 C280 1.264 . S
C281 C283 1.339 . S
C281 H308 0.931 . S
C282 C283 1.395 . S
C282 C284 1.320 . S
C283 C281 1.339 . S
C283 C282 1.395 . S
C283 H309 0.929 . S
C284 C282 1.320 . S
C284 C285 1.405 . S
C284 H310 0.930 . S
C285 C280 1.479 . S
C285 C284 1.405 . S
C285 H311 0.931 . S
U286 O287 2.454 . S
U286 O288 2.458 . S
U286 C289 2.984 . S
U286 C290 2.847 . S
U286 C303 2.882 . S
U286 O304 2.441 . S
U286 O305 2.420 . S
U286 O306 2.455 . S
U286 O307 2.449 . S
O287 U286 2.454 . S
O287 C289 1.353 . S
O288 U286 2.458 . S
O288 C289 1.286 . S
C289 U286 2.984 . S
C289 O287 1.353 . S
C289 O288 1.286 . S
C289 C291 1.363 . S
C290 C280 1.465 . S
C290 U286 2.847 . S
C290 O304 1.249 . S
C290 O305 1.202 . S
C291 C289 1.363 . S
C291 C293 1.408 . S
C291 C296 1.342 . S
C292 C293 1.310 . S
C292 C295 1.461 . S
C292 H312 0.932 . S
C293 C291 1.408 . S
C293 C292 1.310 . S
C293 H313 0.930 . S
C294 C295 1.474 . S
C294 C296 1.285 . S
C294 H314 0.929 . S
C295 C292 1.461 . S
C295 C294 1.474 . S
C296 C291 1.342 . S
C296 C294 1.285 . S
C296 H315 0.930 . S
C297 C300 1.424 . S
C297 C302 1.245 . S
C297 C303 1.428 . S
C298 C301 1.280 . S
C298 C302 1.446 1_565 S
C298 H316 0.948 . S
C299 C300 1.384 1_565 S
C299 C301 1.479 . S
C299 H317 0.929 . S
C300 C297 1.424 . S
C300 C299 1.384 1_545 S
C300 H318 0.928 . S
C301 C298 1.280 . S
C301 C299 1.479 . S
C302 C297 1.245 . S
C302 C298 1.446 1_545 S
C302 H319 0.932 . S
C303 U286 2.882 . S
C303 C297 1.428 . S
C303 O306 1.301 . S
C303 O307 1.282 . S
O304 U286 2.441 . S
O304 C290 1.249 . S
O305 U286 2.420 . S
O305 C290 1.202 . S
O306 U286 2.455 . S
O306 C303 1.301 . S
O307 U286 2.449 . S
O307 C303 1.282 . S
H308 C281 0.931 . S
H309 C283 0.929 . S
H310 C284 0.930 . S
H311 C285 0.931 . S
H312 C292 0.932 . S
H313 C293 0.930 . S
H314 C294 0.929 . S
H315 C296 0.930 . S
H316 C298 0.948 . S
H317 C299 0.929 . S
H318 C300 0.928 . S
H319 C302 0.932 . S
Sc320 O323 2.025 . S
Sc320 O330 2.105 1_455 S
Sc320 O333 2.105 . S
Sc320 O336 2.105 . S
Sc320 O339 2.105 1_455 S
Sc321 O323 2.025 . S
Sc321 O331 2.105 1_455 S
Sc321 O335 2.105 . S
Sc321 O337 2.105 . S
Sc321 O341 2.105 1_455 S
Sc322 O323 2.025 . S
Sc322 O332 2.105 1_455 S
Sc322 O334 2.105 . S
Sc322 O338 2.105 . S
Sc322 O340 2.105 1_455 S
O323 Sc320 2.025 . S
O323 Sc321 2.025 . S
O323 Sc322 2.025 . S
C324 O330 1.268 . S
C324 O340 1.268 . S
C325 O331 1.268 . S
C325 O339 1.268 . S
C326 O332 1.268 . S
C326 O341 1.268 . S
C327 O333 1.268 . S
C327 O337 1.268 . S
C328 O334 1.268 . S
C328 O336 1.268 . S
C329 O335 1.268 . S
C329 O338 1.268 . S
O330 Sc320 2.105 1_655 S
O330 C324 1.268 . S
O331 Sc321 2.105 1_655 S
O331 C325 1.268 . S
O332 Sc322 2.105 1_655 S
O332 C326 1.268 . S
O333 Sc320 2.105 . S
O333 C327 1.268 . S
O334 Sc322 2.105 . S
O334 C328 1.268 . S
O335 Sc321 2.105 . S
O335 C329 1.268 . S
O336 Sc320 2.105 . S
O336 C328 1.268 . S
O337 Sc321 2.105 . S
O337 C327 1.268 . S
O338 Sc322 2.105 . S
O338 C329 1.268 . S
O339 Sc320 2.105 1_655 S
O339 C325 1.268 . S
O340 Sc322 2.105 1_655 S
O340 C324 1.268 . S
O341 Sc321 2.105 1_655 S
O341 C326 1.268 . S
Sc342 O345 2.025 . S
Sc342 O352 2.105 . S
Sc342 O355 2.105 1_455 S
Sc342 O358 2.105 1_455 S
Sc342 O361 2.105 . S
Sc343 O345 2.025 . S
Sc343 O353 2.105 . S
Sc343 O357 2.105 1_455 S
Sc343 O359 2.105 1_455 S
Sc343 O363 2.105 . S
Sc344 O345 2.025 . S
Sc344 O354 2.105 . S
Sc344 O356 2.105 1_455 S
Sc344 O360 2.105 1_455 S
Sc344 O362 2.105 . S
O345 Sc342 2.025 . S
O345 Sc343 2.025 . S
O345 Sc344 2.025 . S
C346 O352 1.268 . S
C346 O362 1.268 . S
C347 O353 1.268 . S
C347 O361 1.268 . S
C348 O354 1.268 . S
C348 O363 1.268 . S
C349 O355 1.268 . S
C349 O359 1.268 . S
C350 O356 1.268 . S
C350 O358 1.268 . S
C351 O357 1.268 . S
C351 O360 1.268 . S
O352 Sc342 2.105 . S
O352 C346 1.268 . S
O353 Sc343 2.105 . S
O353 C347 1.268 . S
O354 Sc344 2.105 . S
O354 C348 1.268 . S
O355 Sc342 2.105 1_655 S
O355 C349 1.268 . S
O356 Sc344 2.105 1_655 S
O356 C350 1.268 . S
O357 Sc343 2.105 1_655 S
O357 C351 1.268 . S
O358 Sc342 2.105 1_655 S
O358 C350 1.268 . S
O359 Sc343 2.105 1_655 S
O359 C349 1.268 . S
O360 Sc344 2.105 1_655 S
O360 C351 1.268 . S
O361 Sc342 2.105 . S
O361 C347 1.268 . S
O362 Sc344 2.105 . S
O362 C346 1.268 . S
O363 Sc343 2.105 . S
O363 C348 1.268 . S
Sc364 O367 2.025 . S
Sc364 O374 2.105 . S
Sc364 O377 2.105 . S
Sc364 O380 2.105 . S
Sc364 O383 2.105 . S
Sc365 O367 2.025 . S
Sc365 O375 2.105 . S
Sc365 O379 2.105 . S
Sc365 O381 2.105 . S
Sc365 O385 2.105 . S
Sc366 O367 2.025 . S
Sc366 O376 2.105 . S
Sc366 O378 2.105 . S
Sc366 O382 2.105 . S
Sc366 O384 2.105 . S
O367 Sc364 2.025 . S
O367 Sc365 2.025 . S
O367 Sc366 2.025 . S
C368 O374 1.268 . S
C368 O384 1.268 . S
C369 O375 1.268 . S
C369 O383 1.268 . S
C370 O376 1.268 . S
C370 O385 1.268 . S
C371 O377 1.268 . S
C371 O381 1.268 . S
C372 O378 1.268 . S
C372 O380 1.268 . S
C373 O379 1.268 . S
C373 O382 1.268 . S
O374 Sc364 2.105 . S
O374 C368 1.268 . S
O375 Sc365 2.105 . S
O375 C369 1.268 . S
O376 Sc366 2.105 . S
O376 C370 1.268 . S
O377 Sc364 2.105 . S
O377 C371 1.268 . S
O378 Sc366 2.105 . S
O378 C372 1.268 . S
O379 Sc365 2.105 . S
O379 C373 1.268 . S
O380 Sc364 2.105 . S
O380 C372 1.268 . S
O381 Sc365 2.105 . S
O381 C371 1.268 . S
O382 Sc366 2.105 . S
O382 C373 1.268 . S
O383 Sc364 2.105 . S
O383 C369 1.268 . S
O384 Sc366 2.105 . S
O384 C368 1.268 . S
O385 Sc365 2.105 . S
O385 C370 1.268 . S
Sc386 O389 2.025 . S
Sc386 O396 2.105 . S
Sc386 O399 2.105 . S
Sc386 O402 2.105 . S
Sc386 O405 2.105 . S
Sc387 O389 2.025 . S
Sc387 O397 2.105 . S
Sc387 O401 2.105 . S
Sc387 O403 2.105 . S
Sc387 O407 2.105 . S
Sc388 O389 2.025 . S
Sc388 O398 2.105 . S
Sc388 O400 2.105 . S
Sc388 O404 2.105 . S
Sc388 O406 2.105 . S
O389 Sc386 2.025 . S
O389 Sc387 2.025 . S
O389 Sc388 2.025 . S
C390 O396 1.268 . S
C390 O406 1.268 . S
C391 O397 1.268 . S
C391 O405 1.268 . S
C392 O398 1.268 . S
C392 O407 1.268 . S
C393 O399 1.268 . S
C393 O403 1.268 . S
C394 O400 1.268 . S
C394 O402 1.268 . S
C395 O401 1.268 . S
C395 O404 1.268 . S
O396 Sc386 2.105 . S
O396 C390 1.268 . S
O397 Sc387 2.105 . S
O397 C391 1.268 . S
O398 Sc388 2.105 . S
O398 C392 1.268 . S
O399 Sc386 2.105 . S
O399 C393 1.268 . S
O400 Sc388 2.105 . S
O400 C394 1.268 . S
O401 Sc387 2.105 . S
O401 C395 1.268 . S
O402 Sc386 2.105 . S
O402 C394 1.268 . S
O403 Sc387 2.105 . S
O403 C393 1.268 . S
O404 Sc388 2.105 . S
O404 C395 1.268 . S
O405 Sc386 2.105 . S
O405 C391 1.268 . S
O406 Sc388 2.105 . S
O406 C390 1.268 . S
O407 Sc387 2.105 . S
O407 C392 1.268 . S
H408 C414 0.930 . S
H409 C418 0.930 . S
H410 C423 0.929 . S
H411 C421 0.929 . S
H412 C416 0.929 . S
H413 C422 0.929 . S
C414 H408 0.930 . S
C414 C415 1.367 . S
C414 C422 1.378 . S
C415 C414 1.367 . S
C415 C423 1.433 . S
C416 H412 0.929 . S
C416 C418 1.378 . S
C416 C420 1.350 . S
C417 C420 1.463 . S
C417 C422 1.350 . S
C417 N425 1.427 . S
C418 H409 0.930 . S
C418 C416 1.378 . S
C418 C419 1.367 . S
C419 C418 1.367 . S
C419 C421 1.433 . S
C420 C416 1.350 . S
C420 C417 1.463 . S
C420 N424 1.427 . S
C421 H411 0.929 . S
C421 C419 1.433 . S
C421 N424 1.384 . S
C422 H413 0.929 . S
C422 C414 1.378 . S
C422 C417 1.350 . S
C423 H410 0.929 . S
C423 C415 1.433 . S
C423 N425 1.384 . S
N424 C420 1.427 . S
N424 C421 1.384 . S
N425 C417 1.427 . S
N425 C423 1.384 . S
H426 C432 0.930 . S
H427 C436 0.930 . S
H428 C441 0.929 . S
H429 C439 0.929 . S
H430 C434 0.929 . S
H431 C440 0.929 . S
C432 H426 0.930 . S
C432 C433 1.367 . S
C432 C440 1.378 . S
C433 C432 1.367 . S
C433 C441 1.433 . S
C434 H430 0.929 . S
C434 C436 1.378 . S
C434 C438 1.350 . S
C435 C438 1.463 . S
C435 C440 1.350 . S
C435 N443 1.427 . S
C436 H427 0.930 . S
C436 C434 1.378 . S
C436 C437 1.367 . S
C437 C436 1.367 . S
C437 C439 1.433 . S
C438 C434 1.350 . S
C438 C435 1.463 . S
C438 N442 1.427 . S
C439 H429 0.929 . S
C439 C437 1.433 . S
C439 N442 1.384 . S
C440 H431 0.929 . S
C440 C432 1.378 . S
C440 C435 1.350 . S
C441 H428 0.929 . S
C441 C433 1.433 . S
C441 N443 1.384 . S
N442 C438 1.427 . S
N442 C439 1.384 . S
N443 C435 1.427 . S
N443 C441 1.384 . S
H444 C450 0.930 . S
H445 C454 0.930 . S
H446 C459 0.929 . S
H447 C457 0.929 . S
H448 C452 0.929 . S
H449 C458 0.929 . S
C450 H444 0.930 . S
C450 C451 1.367 . S
C450 C458 1.378 . S
C451 C450 1.367 . S
C451 C459 1.433 . S
C452 H448 0.929 . S
C452 C454 1.378 . S
C452 C456 1.350 . S
C453 C456 1.463 . S
C453 C458 1.350 . S
C453 N461 1.427 . S
C454 H445 0.930 . S
C454 C452 1.378 . S
C454 C455 1.367 . S
C455 C454 1.367 . S
C455 C457 1.433 . S
C456 C452 1.350 . S
C456 C453 1.463 . S
C456 N460 1.427 . S
C457 H447 0.929 . S
C457 C455 1.433 . S
C457 N460 1.384 . S
C458 H449 0.929 . S
C458 C450 1.378 . S
C458 C453 1.350 . S
C459 H446 0.929 . S
C459 C451 1.433 . S
C459 N461 1.384 . S
N460 C456 1.427 . S
N460 C457 1.384 . S
N461 C453 1.427 . S
N461 C459 1.384 . S
H462 C468 0.930 . S
H463 C472 0.930 . S
H464 C477 0.929 . S
H465 C475 0.929 . S
H466 C470 0.929 . S
H467 C476 0.929 . S
C468 H462 0.930 . S
C468 C469 1.367 . S
C468 C476 1.378 . S
C469 C468 1.367 . S
C469 C477 1.433 . S
C470 H466 0.929 . S
C470 C472 1.378 . S
C470 C474 1.350 . S
C471 C474 1.463 . S
C471 C476 1.350 . S
C471 N479 1.427 . S
C472 H463 0.930 . S
C472 C470 1.378 . S
C472 C473 1.367 . S
C473 C472 1.367 . S
C473 C475 1.433 . S
C474 C470 1.350 . S
C474 C471 1.463 . S
C474 N478 1.427 . S
C475 H465 0.929 . S
C475 C473 1.433 . S
C475 N478 1.384 . S
C476 H467 0.929 . S
C476 C468 1.378 . S
C476 C471 1.350 . S
C477 H464 0.929 . S
C477 C469 1.433 . S
C477 N479 1.384 . S
N478 C474 1.427 . S
N478 C475 1.384 . S
N479 C471 1.427 . S
N479 C477 1.384 . S
H480 C486 0.930 . S
H481 C490 0.930 . S
H482 C495 0.929 . S
H483 C493 0.929 . S
H484 C488 0.929 . S
H485 C494 0.929 . S
C486 H480 0.930 . S
C486 C487 1.367 . S
C486 C494 1.378 . S
C487 C486 1.367 . S
C487 C495 1.433 . S
C488 H484 0.929 . S
C488 C490 1.378 . S
C488 C492 1.350 . S
C489 C492 1.463 . S
C489 C494 1.350 . S
C489 N497 1.427 . S
C490 H481 0.930 . S
C490 C488 1.378 . S
C490 C491 1.367 . S
C491 C490 1.367 . S
C491 C493 1.433 . S
C492 C488 1.350 . S
C492 C489 1.463 . S
C492 N496 1.427 . S
C493 H483 0.929 . S
C493 C491 1.433 . S
C493 N496 1.384 . S
C494 H485 0.929 . S
C494 C486 1.378 . S
C494 C489 1.350 . S
C495 H482 0.929 . S
C495 C487 1.433 . S
C495 N497 1.384 . S
N496 C492 1.427 . S
N496 C493 1.384 . S
N497 C489 1.427 . S
N497 C495 1.384 . S
H498 C504 0.930 . S
H499 C508 0.930 . S
H500 C513 0.929 . S
H501 C511 0.929 . S
H502 C506 0.929 . S
H503 C512 0.929 . S
C504 H498 0.930 . S
C504 C505 1.367 . S
C504 C512 1.378 . S
C505 C504 1.367 . S
C505 C513 1.433 . S
C506 H502 0.929 . S
C506 C508 1.378 . S
C506 C510 1.350 . S
C507 C510 1.463 . S
C507 C512 1.350 . S
C507 N515 1.427 . S
C508 H499 0.930 . S
C508 C506 1.378 . S
C508 C509 1.367 . S
C509 C508 1.367 . S
C509 C511 1.433 . S
C510 C506 1.350 . S
C510 C507 1.463 . S
C510 N514 1.427 . S
C511 H501 0.929 . S
C511 C509 1.433 . S
C511 N514 1.384 . S
C512 H503 0.929 . S
C512 C504 1.378 . S
C512 C507 1.350 . S
C513 H500 0.929 . S
C513 C505 1.433 . S
C513 N515 1.384 . S
N514 C510 1.427 . S
N514 C511 1.384 . S
N515 C507 1.427 . S
N515 C513 1.384 . S
H516 C522 0.930 . S
H517 C526 0.930 . S
H518 C531 0.929 . S
H519 C529 0.929 . S
H520 C524 0.929 . S
H521 C530 0.929 . S
C522 H516 0.930 . S
C522 C523 1.367 . S
C522 C530 1.378 . S
C523 C522 1.367 . S
C523 C531 1.433 . S
C524 H520 0.929 . S
C524 C526 1.378 . S
C524 C528 1.350 . S
C525 C528 1.463 . S
C525 C530 1.350 . S
C525 N533 1.427 . S
C526 H517 0.930 . S
C526 C524 1.378 . S
C526 C527 1.367 . S
C527 C526 1.367 . S
C527 C529 1.433 . S
C528 C524 1.350 . S
C528 C525 1.463 . S
C528 N532 1.427 . S
C529 H519 0.929 . S
C529 C527 1.433 . S
C529 N532 1.384 . S
C530 H521 0.929 . S
C530 C522 1.378 . S
C530 C525 1.350 . S
C531 H518 0.929 . S
C531 C523 1.433 . S
C531 N533 1.384 . S
N532 C528 1.427 . S
N532 C529 1.384 . S
N533 C525 1.427 . S
N533 C531 1.384 . S
H534 C540 0.930 . S
H535 C544 0.930 . S
H536 C549 0.929 . S
H537 C547 0.929 . S
H538 C542 0.929 . S
H539 C548 0.929 . S
C540 H534 0.930 . S
C540 C541 1.367 . S
C540 C548 1.378 . S
C541 C540 1.367 . S
C541 C549 1.433 . S
C542 H538 0.929 . S
C542 C544 1.378 . S
C542 C546 1.350 . S
C543 C546 1.463 . S
C543 C548 1.350 . S
C543 N551 1.427 . S
C544 H535 0.930 . S
C544 C542 1.378 . S
C544 C545 1.367 . S
C545 C544 1.367 . S
C545 C547 1.433 . S
C546 C542 1.350 . S
C546 C543 1.463 . S
C546 N550 1.427 . S
C547 H537 0.929 . S
C547 C545 1.433 . S
C547 N550 1.384 . S
C548 H539 0.929 . S
C548 C540 1.378 . S
C548 C543 1.350 . S
C549 H536 0.929 . S
C549 C541 1.433 . S
C549 N551 1.384 . S
N550 C546 1.427 . S
N550 C547 1.384 . S
N551 C543 1.427 . S
N551 C549 1.384 . S
H552 C558 0.930 . S
H553 C562 0.930 . S
H554 C567 0.929 . S
H555 C565 0.929 . S
H556 C560 0.929 . S
H557 C566 0.929 . S
C558 H552 0.930 . S
C558 C559 1.367 . S
C558 C566 1.378 . S
C559 C558 1.367 . S
C559 C567 1.433 . S
C560 H556 0.929 . S
C560 C562 1.378 . S
C560 C564 1.350 . S
C561 C564 1.463 . S
C561 C566 1.350 . S
C561 N569 1.427 . S
C562 H553 0.930 . S
C562 C560 1.378 . S
C562 C563 1.367 . S
C563 C562 1.367 . S
C563 C565 1.433 . S
C564 C560 1.350 . S
C564 C561 1.463 . S
C564 N568 1.427 . S
C565 H555 0.929 . S
C565 C563 1.433 . S
C565 N568 1.384 . S
C566 H557 0.929 . S
C566 C558 1.378 . S
C566 C561 1.350 . S
C567 H554 0.929 . S
C567 C559 1.433 . S
C567 N569 1.384 . S
N568 C564 1.427 . S
N568 C565 1.384 . S
N569 C561 1.427 . S
N569 C567 1.384 . S
H570 C576 0.930 . S
H571 C580 0.930 . S
H572 C585 0.929 . S
H573 C583 0.929 . S
H574 C578 0.929 . S
H575 C584 0.929 . S
C576 H570 0.930 . S
C576 C577 1.367 . S
C576 C584 1.378 . S
C577 C576 1.367 . S
C577 C585 1.433 . S
C578 H574 0.929 . S
C578 C580 1.378 . S
C578 C582 1.350 . S
C579 C582 1.463 . S
C579 C584 1.350 . S
C579 N587 1.427 . S
C580 H571 0.930 . S
C580 C578 1.378 . S
C580 C581 1.367 . S
C581 C580 1.367 . S
C581 C583 1.433 . S
C582 C578 1.350 . S
C582 C579 1.463 . S
C582 N586 1.427 . S
C583 H573 0.929 . S
C583 C581 1.433 . S
C583 N586 1.384 . S
C584 H575 0.929 . S
C584 C576 1.378 . S
C584 C579 1.350 . S
C585 H572 0.929 . S
C585 C577 1.433 . S
C585 N587 1.384 . S
N586 C582 1.427 . S
N586 C583 1.384 . S
N587 C579 1.427 . S
N587 C585 1.384 . S
H588 C594 0.930 . S
H589 C598 0.930 . S
H590 C603 0.929 . S
H591 C601 0.929 . S
H592 C596 0.929 . S
H593 C602 0.929 . S
C594 H588 0.930 . S
C594 C595 1.367 . S
C594 C602 1.378 . S
C595 C594 1.367 . S
C595 C603 1.433 . S
C596 H592 0.929 . S
C596 C598 1.378 . S
C596 C600 1.350 . S
C597 C600 1.463 . S
C597 C602 1.350 . S
C597 N605 1.427 . S
C598 H589 0.930 . S
C598 C596 1.378 . S
C598 C599 1.367 . S
C599 C598 1.367 . S
C599 C601 1.433 . S
C600 C596 1.350 . S
C600 C597 1.463 . S
C600 N604 1.427 . S
C601 H591 0.929 . S
C601 C599 1.433 . S
C601 N604 1.384 . S
C602 H593 0.929 . S
C602 C594 1.378 . S
C602 C597 1.350 . S
C603 H590 0.929 . S
C603 C595 1.433 . S
C603 N605 1.384 . S
N604 C600 1.427 . S
N604 C601 1.384 . S
N605 C597 1.427 . S
N605 C603 1.384 . S
H606 C612 0.930 . S
H607 C616 0.930 . S
H608 C621 0.929 . S
H609 C619 0.929 . S
H610 C614 0.929 . S
H611 C620 0.929 . S
C612 H606 0.930 . S
C612 C613 1.367 . S
C612 C620 1.378 . S
C613 C612 1.367 . S
C613 C621 1.433 . S
C614 H610 0.929 . S
C614 C616 1.378 . S
C614 C618 1.350 . S
C615 C618 1.463 . S
C615 C620 1.350 . S
C615 N623 1.427 . S
C616 H607 0.930 . S
C616 C614 1.378 . S
C616 C617 1.367 . S
C617 C616 1.367 . S
C617 C619 1.433 . S
C618 C614 1.350 . S
C618 C615 1.463 . S
C618 N622 1.427 . S
C619 H609 0.929 . S
C619 C617 1.433 . S
C619 N622 1.384 . S
C620 H611 0.929 . S
C620 C612 1.378 . S
C620 C615 1.350 . S
C621 H608 0.929 . S
C621 C613 1.433 . S
C621 N623 1.384 . S
N622 C618 1.427 . S
N622 C619 1.384 . S
N623 C615 1.427 . S
N623 C621 1.384 . S
H624 C630 0.930 . S
H625 C634 0.930 . S
H626 C639 0.929 . S
H627 C637 0.929 . S
H628 C632 0.929 . S
H629 C638 0.929 . S
C630 H624 0.930 . S
C630 C631 1.367 . S
C630 C638 1.378 . S
C631 C630 1.367 . S
C631 C639 1.433 . S
C632 H628 0.929 . S
C632 C634 1.378 . S
C632 C636 1.350 . S
C633 C636 1.463 . S
C633 C638 1.350 . S
C633 N641 1.427 . S
C634 H625 0.930 . S
C634 C632 1.378 . S
C634 C635 1.367 . S
C635 C634 1.367 . S
C635 C637 1.433 . S
C636 C632 1.350 . S
C636 C633 1.463 . S
C636 N640 1.427 . S
C637 H627 0.929 . S
C637 C635 1.433 . S
C637 N640 1.384 . S
C638 H629 0.929 . S
C638 C630 1.378 . S
C638 C633 1.350 . S
C639 H626 0.929 . S
C639 C631 1.433 . S
C639 N641 1.384 . S
N640 C636 1.427 . S
N640 C637 1.384 . S
N641 C633 1.427 . S
N641 C639 1.384 . S
H642 C648 0.930 . S
H643 C652 0.930 . S
H644 C657 0.929 . S
H645 C655 0.929 . S
H646 C650 0.929 . S
H647 C656 0.929 . S
C648 H642 0.930 . S
C648 C649 1.367 . S
C648 C656 1.378 . S
C649 C648 1.367 . S
C649 C657 1.433 . S
C650 H646 0.929 . S
C650 C652 1.378 . S
C650 C654 1.350 . S
C651 C654 1.463 . S
C651 C656 1.350 . S
C651 N659 1.427 . S
C652 H643 0.930 . S
C652 C650 1.378 . S
C652 C653 1.367 . S
C653 C652 1.367 . S
C653 C655 1.433 . S
C654 C650 1.350 . S
C654 C651 1.463 . S
C654 N658 1.427 . S
C655 H645 0.929 . S
C655 C653 1.433 . S
C655 N658 1.384 . S
C656 H647 0.929 . S
C656 C648 1.378 . S
C656 C651 1.350 . S
C657 H644 0.929 . S
C657 C649 1.433 . S
C657 N659 1.384 . S
N658 C654 1.427 . S
N658 C655 1.384 . S
N659 C651 1.427 . S
N659 C657 1.384 . S
H660 C666 0.930 . S
H661 C670 0.930 . S
H662 C675 0.929 . S
H663 C673 0.929 . S
H664 C668 0.929 . S
H665 C674 0.929 . S
C666 H660 0.930 . S
C666 C667 1.367 . S
C666 C674 1.378 . S
C667 C666 1.367 . S
C667 C675 1.433 . S
C668 H664 0.929 . S
C668 C670 1.378 . S
C668 C672 1.350 . S
C669 C672 1.463 . S
C669 C674 1.350 . S
C669 N677 1.427 . S
C670 H661 0.930 . S
C670 C668 1.378 . S
C670 C671 1.367 . S
C671 C670 1.367 . S
C671 C673 1.433 . S
C672 C668 1.350 . S
C672 C669 1.463 . S
C672 N676 1.427 . S
C673 H663 0.929 . S
C673 C671 1.433 . S
C673 N676 1.384 . S
C674 H665 0.929 . S
C674 C666 1.378 . S
C674 C669 1.350 . S
C675 H662 0.929 . S
C675 C667 1.433 . S
C675 N677 1.384 . S
N676 C672 1.427 . S
N676 C673 1.384 . S
N677 C669 1.427 . S
N677 C675 1.384 . S
H678 C684 0.930 . S
H679 C688 0.930 . S
H680 C693 0.929 . S
H681 C691 0.929 . S
H682 C686 0.929 . S
H683 C692 0.929 . S
C684 H678 0.930 . S
C684 C685 1.367 . S
C684 C692 1.378 . S
C685 C684 1.367 . S
C685 C693 1.433 . S
C686 H682 0.929 . S
C686 C688 1.378 . S
C686 C690 1.350 . S
C687 C690 1.463 . S
C687 C692 1.350 . S
C687 N695 1.427 . S
C688 H679 0.930 . S
C688 C686 1.378 . S
C688 C689 1.367 . S
C689 C688 1.367 . S
C689 C691 1.433 . S
C690 C686 1.350 . S
C690 C687 1.463 . S
C690 N694 1.427 . S
C691 H681 0.929 . S
C691 C689 1.433 . S
C691 N694 1.384 . S
C692 H683 0.929 . S
C692 C684 1.378 . S
C692 C687 1.350 . S
C693 H680 0.929 . S
C693 C685 1.433 . S
C693 N695 1.384 . S
N694 C690 1.427 . S
N694 C691 1.384 . S
N695 C687 1.427 . S
N695 C693 1.384 . S
H696 C702 0.930 . S
H697 C706 0.930 . S
H698 C711 0.929 . S
H699 C709 0.929 . S
H700 C704 0.929 . S
H701 C710 0.929 . S
C702 H696 0.930 . S
C702 C703 1.367 . S
C702 C710 1.378 . S
C703 C702 1.367 . S
C703 C711 1.433 . S
C704 H700 0.929 . S
C704 C706 1.378 . S
C704 C708 1.350 . S
C705 C708 1.463 . S
C705 C710 1.350 . S
C705 N713 1.427 . S
C706 H697 0.930 . S
C706 C704 1.378 . S
C706 C707 1.367 . S
C707 C706 1.367 . S
C707 C709 1.433 . S
C708 C704 1.350 . S
C708 C705 1.463 . S
C708 N712 1.427 . S
C709 H699 0.929 . S
C709 C707 1.433 . S
C709 N712 1.384 . S
C710 H701 0.929 . S
C710 C702 1.378 . S
C710 C705 1.350 . S
C711 H698 0.929 . S
C711 C703 1.433 . S
C711 N713 1.384 . S
N712 C708 1.427 . S
N712 C709 1.384 . S
N713 C705 1.427 . S
N713 C711 1.384 . S
H714 C720 0.930 . S
H715 C724 0.930 . S
H716 C729 0.929 . S
H717 C727 0.929 . S
H718 C722 0.929 . S
H719 C728 0.929 . S
C720 H714 0.930 . S
C720 C721 1.367 . S
C720 C728 1.378 . S
C721 C720 1.367 . S
C721 C729 1.433 . S
C722 H718 0.929 . S
C722 C724 1.378 . S
C722 C726 1.350 . S
C723 C726 1.463 . S
C723 C728 1.350 . S
C723 N731 1.427 . S
C724 H715 0.930 . S
C724 C722 1.378 . S
C724 C725 1.367 . S
C725 C724 1.367 . S
C725 C727 1.433 . S
C726 C722 1.350 . S
C726 C723 1.463 . S
C726 N730 1.427 . S
C727 H717 0.929 . S
C727 C725 1.433 . S
C727 N730 1.384 . S
C728 H719 0.929 . S
C728 C720 1.378 . S
C728 C723 1.350 . S
C729 H716 0.929 . S
C729 C721 1.433 . S
C729 N731 1.384 . S
N730 C726 1.427 . S
N730 C727 1.384 . S
N731 C723 1.427 . S
N731 C729 1.384 . S
H732 C738 0.930 . S
H733 C742 0.930 . S
H734 C747 0.929 . S
H735 C745 0.929 . S
H736 C740 0.929 . S
H737 C746 0.929 . S
C738 H732 0.930 . S
C738 C739 1.367 . S
C738 C746 1.378 . S
C739 C738 1.367 . S
C739 C747 1.433 . S
C740 H736 0.929 . S
C740 C742 1.378 . S
C740 C744 1.350 . S
C741 C744 1.463 . S
C741 C746 1.350 . S
C741 N749 1.427 . S
C742 H733 0.930 . S
C742 C740 1.378 . S
C742 C743 1.367 . S
C743 C742 1.367 . S
C743 C745 1.433 . S
C744 C740 1.350 . S
C744 C741 1.463 . S
C744 N748 1.427 . S
C745 H735 0.929 . S
C745 C743 1.433 . S
C745 N748 1.384 . S
C746 H737 0.929 . S
C746 C738 1.378 . S
C746 C741 1.350 . S
C747 H734 0.929 . S
C747 C739 1.433 . S
C747 N749 1.384 . S
N748 C744 1.427 . S
N748 C745 1.384 . S
N749 C741 1.427 . S
N749 C747 1.384 . S
H750 C756 0.930 . S
H751 C760 0.930 . S
H752 C765 0.929 . S
H753 C763 0.929 . S
H754 C758 0.929 . S
H755 C764 0.929 . S
C756 H750 0.930 . S
C756 C757 1.367 . S
C756 C764 1.378 . S
C757 C756 1.367 . S
C757 C765 1.433 . S
C758 H754 0.929 . S
C758 C760 1.378 . S
C758 C762 1.350 . S
C759 C762 1.463 . S
C759 C764 1.350 . S
C759 N767 1.427 . S
C760 H751 0.930 . S
C760 C758 1.378 . S
C760 C761 1.367 . S
C761 C760 1.367 . S
C761 C763 1.433 . S
C762 C758 1.350 . S
C762 C759 1.463 . S
C762 N766 1.427 . S
C763 H753 0.929 . S
C763 C761 1.433 . S
C763 N766 1.384 . S
C764 H755 0.929 . S
C764 C756 1.378 . S
C764 C759 1.350 . S
C765 H752 0.929 . S
C765 C757 1.433 . S
C765 N767 1.384 . S
N766 C762 1.427 . S
N766 C763 1.384 . S
N767 C759 1.427 . S
N767 C765 1.384 . S
H768 C774 0.930 . S
H769 C778 0.930 . S
H770 C783 0.929 . S
H771 C781 0.929 . S
H772 C776 0.929 . S
H773 C782 0.929 . S
C774 H768 0.930 . S
C774 C775 1.367 . S
C774 C782 1.378 . S
C775 C774 1.367 . S
C775 C783 1.433 . S
C776 H772 0.929 . S
C776 C778 1.378 . S
C776 C780 1.350 . S
C777 C780 1.463 . S
C777 C782 1.350 . S
C777 N785 1.427 . S
C778 H769 0.930 . S
C778 C776 1.378 . S
C778 C779 1.367 . S
C779 C778 1.367 . S
C779 C781 1.433 . S
C780 C776 1.350 . S
C780 C777 1.463 . S
C780 N784 1.427 . S
C781 H771 0.929 . S
C781 C779 1.433 . S
C781 N784 1.384 . S
C782 H773 0.929 . S
C782 C774 1.378 . S
C782 C777 1.350 . S
C783 H770 0.929 . S
C783 C775 1.433 . S
C783 N785 1.384 . S
N784 C780 1.427 . S
N784 C781 1.384 . S
N785 C777 1.427 . S
N785 C783 1.384 . S
H786 C792 0.930 . S
H787 C796 0.930 . S
H788 C801 0.929 . S
H789 C799 0.929 . S
H790 C794 0.929 . S
H791 C800 0.929 . S
C792 H786 0.930 . S
C792 C793 1.367 . S
C792 C800 1.378 . S
C793 C792 1.367 . S
C793 C801 1.433 . S
C794 H790 0.929 . S
C794 C796 1.378 . S
C794 C798 1.350 . S
C795 C798 1.463 . S
C795 C800 1.350 . S
C795 N803 1.427 . S
C796 H787 0.930 . S
C796 C794 1.378 . S
C796 C797 1.367 . S
C797 C796 1.367 . S
C797 C799 1.433 . S
C798 C794 1.350 . S
C798 C795 1.463 . S
C798 N802 1.427 . S
C799 H789 0.929 . S
C799 C797 1.433 . S
C799 N802 1.384 . S
C800 H791 0.929 . S
C800 C792 1.378 . S
C800 C795 1.350 . S
C801 H788 0.929 . S
C801 C793 1.433 . S
C801 N803 1.384 . S
N802 C798 1.427 . S
N802 C799 1.384 . S
N803 C795 1.427 . S
N803 C801 1.384 . S
H804 C810 0.930 . S
H805 C814 0.930 . S
H806 C819 0.929 . S
H807 C817 0.929 . S
H808 C812 0.929 . S
H809 C818 0.929 . S
C810 H804 0.930 . S
C810 C811 1.367 . S
C810 C818 1.378 . S
C811 C810 1.367 . S
C811 C819 1.433 . S
C812 H808 0.929 . S
C812 C814 1.378 . S
C812 C816 1.350 . S
C813 C816 1.463 . S
C813 C818 1.350 . S
C813 N821 1.427 . S
C814 H805 0.930 . S
C814 C812 1.378 . S
C814 C815 1.367 . S
C815 C814 1.367 . S
C815 C817 1.433 . S
C816 C812 1.350 . S
C816 C813 1.463 . S
C816 N820 1.427 . S
C817 H807 0.929 . S
C817 C815 1.433 . S
C817 N820 1.384 . S
C818 H809 0.929 . S
C818 C810 1.378 . S
C818 C813 1.350 . S
C819 H806 0.929 . S
C819 C811 1.433 . S
C819 N821 1.384 . S
N820 C816 1.427 . S
N820 C817 1.384 . S
N821 C813 1.427 . S
N821 C819 1.384 . S
H822 C828 0.930 . S
H823 C832 0.930 . S
H824 C837 0.929 . S
H825 C835 0.929 . S
H826 C830 0.929 . S
H827 C836 0.929 . S
C828 H822 0.930 . S
C828 C829 1.367 . S
C828 C836 1.378 . S
C829 C828 1.367 . S
C829 C837 1.433 . S
C830 H826 0.929 . S
C830 C832 1.378 . S
C830 C834 1.350 . S
C831 C834 1.463 . S
C831 C836 1.350 . S
C831 N839 1.427 . S
C832 H823 0.930 . S
C832 C830 1.378 . S
C832 C833 1.367 . S
C833 C832 1.367 . S
C833 C835 1.433 . S
C834 C830 1.350 . S
C834 C831 1.463 . S
C834 N838 1.427 . S
C835 H825 0.929 . S
C835 C833 1.433 . S
C835 N838 1.384 . S
C836 H827 0.929 . S
C836 C828 1.378 . S
C836 C831 1.350 . S
C837 H824 0.929 . S
C837 C829 1.433 . S
C837 N839 1.384 . S
N838 C834 1.427 . S
N838 C835 1.384 . S
N839 C831 1.427 . S
N839 C837 1.384 . S
C415 C15 1.544 . S
C419 C346 1.507 . S
C437 C324 1.559 . S
C433 C55 1.591 . S
C455 C350 1.516 . S
C451 C95 1.544 . S
C473 C328 1.553 . S
C469 C135 1.587 . S
C491 C390 1.513 . S
C487 C175 1.546 . S
C509 C368 1.554 . S
C505 C215 1.585 . S
C523 C255 1.545 . S
C527 C394 1.520 . S
C545 C372 1.564 . S
C541 C295 1.596 . S
C559 C2 1.572 . S
C563 C395 1.567 . S
C581 C373 1.639 . S
C577 C61 1.580 . S
C595 C82 1.517 . S
C599 C392 1.569 . S
C613 C141 1.630 . S
C617 C370 1.639 . S
C635 C351 1.563 . S
C631 C162 1.575 . S
C649 C221 1.570 . S
C653 C329 1.640 . S
C671 C348 1.563 . S
C667 C242 1.528 . S
C689 C326 1.638 . S
C685 C301 1.633 . S
C707 C369 1.576 . S
C703 C21 1.573 . S
C725 C391 1.570 . S
C721 C42 1.516 . S
C739 C101 1.506 . S
C743 C371 1.576 . S
C761 C393 1.566 . S
C757 C122 1.581 . S
C779 C325 1.577 . S
C775 C181 1.575 . S
C793 C202 1.528 . S
C797 C347 1.563 . S
C811 C261 1.509 . S
C815 C327 1.577 . S
C829 C282 1.581 . S
C833 C349 1.569 . S
