# Generated by pormake.
# Topology gar, (4,6)-cn, num edge types: 1
# Building blocks:
#     Node 0, Type 0, BuildingBlock: NAHDIM_clean_sbu_0, # of connection points: 4
#     Node 1, Type 0, BuildingBlock: NAHDIM_clean_sbu_0, # of connection points: 4
#     Node 2, Type 0, BuildingBlock: NAHDIM_clean_sbu_0, # of connection points: 4
#     Node 3, Type 0, BuildingBlock: NAHDIM_clean_sbu_0, # of connection points: 4
#     Node 4, Type 0, BuildingBlock: NAHDIM_clean_sbu_0, # of connection points: 4
#     Node 5, Type 0, BuildingBlock: NAHDIM_clean_sbu_0, # of connection points: 4
#     Node 6, Type 0, BuildingBlock: NAHDIM_clean_sbu_0, # of connection points: 4
#     Node 7, Type 0, BuildingBlock: NAHDIM_clean_sbu_0, # of connection points: 4
#     Node 8, Type 0, BuildingBlock: NAHDIM_clean_sbu_0, # of connection points: 4
#     Node 9, Type 0, BuildingBlock: NAHDIM_clean_sbu_0, # of connection points: 4
#     Node 10, Type 0, BuildingBlock: NAHDIM_clean_sbu_0, # of connection points: 4
#     Node 11, Type 0, BuildingBlock: NAHDIM_clean_sbu_0, # of connection points: 4
#     Node 12, Type 0, BuildingBlock: NAHDIM_clean_sbu_0, # of connection points: 4
#     Node 13, Type 0, BuildingBlock: NAHDIM_clean_sbu_0, # of connection points: 4
#     Node 14, Type 0, BuildingBlock: NAHDIM_clean_sbu_0, # of connection points: 4
#     Node 15, Type 0, BuildingBlock: NAHDIM_clean_sbu_0, # of connection points: 4
#     Node 16, Type 0, BuildingBlock: NAHDIM_clean_sbu_0, # of connection points: 4
#     Node 17, Type 0, BuildingBlock: NAHDIM_clean_sbu_0, # of connection points: 4
#     Node 18, Type 0, BuildingBlock: NAHDIM_clean_sbu_0, # of connection points: 4
#     Node 19, Type 0, BuildingBlock: NAHDIM_clean_sbu_0, # of connection points: 4
#     Node 20, Type 0, BuildingBlock: NAHDIM_clean_sbu_0, # of connection points: 4
#     Node 21, Type 0, BuildingBlock: NAHDIM_clean_sbu_0, # of connection points: 4
#     Node 22, Type 0, BuildingBlock: NAHDIM_clean_sbu_0, # of connection points: 4
#     Node 23, Type 0, BuildingBlock: NAHDIM_clean_sbu_0, # of connection points: 4
#     Node 24, Type 1, BuildingBlock: HISSIN_clean_sbu_0, # of connection points: 6
#     Node 25, Type 1, BuildingBlock: HISSIN_clean_sbu_0, # of connection points: 6
#     Node 26, Type 1, BuildingBlock: HISSIN_clean_sbu_0, # of connection points: 6
#     Node 27, Type 1, BuildingBlock: HISSIN_clean_sbu_0, # of connection points: 6
#     Node 28, Type 1, BuildingBlock: HISSIN_clean_sbu_0, # of connection points: 6
#     Node 29, Type 1, BuildingBlock: HISSIN_clean_sbu_0, # of connection points: 6
#     Node 30, Type 1, BuildingBlock: HISSIN_clean_sbu_0, # of connection points: 6
#     Node 31, Type 1, BuildingBlock: HISSIN_clean_sbu_0, # of connection points: 6
#     Node 32, Type 1, BuildingBlock: HISSIN_clean_sbu_0, # of connection points: 6
#     Node 33, Type 1, BuildingBlock: HISSIN_clean_sbu_0, # of connection points: 6
#     Node 34, Type 1, BuildingBlock: HISSIN_clean_sbu_0, # of connection points: 6
#     Node 35, Type 1, BuildingBlock: HISSIN_clean_sbu_0, # of connection points: 6
#     Node 36, Type 1, BuildingBlock: HISSIN_clean_sbu_0, # of connection points: 6
#     Node 37, Type 1, BuildingBlock: HISSIN_clean_sbu_0, # of connection points: 6
#     Node 38, Type 1, BuildingBlock: HISSIN_clean_sbu_0, # of connection points: 6
#     Node 39, Type 1, BuildingBlock: HISSIN_clean_sbu_0, # of connection points: 6
#     Edge 40, Type (0, 1), BuildingBlock: EZIPEK_clean_linker_0, # of connection points: 2
#     Edge 41, Type (0, 1), BuildingBlock: EZIPEK_clean_linker_0, # of connection points: 2
#     Edge 42, Type (0, 1), BuildingBlock: EZIPEK_clean_linker_0, # of connection points: 2
#     Edge 43, Type (0, 1), BuildingBlock: EZIPEK_clean_linker_0, # of connection points: 2
#     Edge 44, Type (0, 1), BuildingBlock: EZIPEK_clean_linker_0, # of connection points: 2
#     Edge 45, Type (0, 1), BuildingBlock: EZIPEK_clean_linker_0, # of connection points: 2
#     Edge 46, Type (0, 1), BuildingBlock: EZIPEK_clean_linker_0, # of connection points: 2
#     Edge 47, Type (0, 1), BuildingBlock: EZIPEK_clean_linker_0, # of connection points: 2
#     Edge 48, Type (0, 1), BuildingBlock: EZIPEK_clean_linker_0, # of connection points: 2
#     Edge 49, Type (0, 1), BuildingBlock: EZIPEK_clean_linker_0, # of connection points: 2
#     Edge 50, Type (0, 1), BuildingBlock: EZIPEK_clean_linker_0, # of connection points: 2
#     Edge 51, Type (0, 1), BuildingBlock: EZIPEK_clean_linker_0, # of connection points: 2
#     Edge 52, Type (0, 1), BuildingBlock: EZIPEK_clean_linker_0, # of connection points: 2
#     Edge 53, Type (0, 1), BuildingBlock: EZIPEK_clean_linker_0, # of connection points: 2
#     Edge 54, Type (0, 1), BuildingBlock: EZIPEK_clean_linker_0, # of connection points: 2
#     Edge 55, Type (0, 1), BuildingBlock: EZIPEK_clean_linker_0, # of connection points: 2
#     Edge 56, Type (0, 1), BuildingBlock: EZIPEK_clean_linker_0, # of connection points: 2
#     Edge 57, Type (0, 1), BuildingBlock: EZIPEK_clean_linker_0, # of connection points: 2
#     Edge 58, Type (0, 1), BuildingBlock: EZIPEK_clean_linker_0, # of connection points: 2
#     Edge 59, Type (0, 1), BuildingBlock: EZIPEK_clean_linker_0, # of connection points: 2
#     Edge 60, Type (0, 1), BuildingBlock: EZIPEK_clean_linker_0, # of connection points: 2
#     Edge 61, Type (0, 1), BuildingBlock: EZIPEK_clean_linker_0, # of connection points: 2
#     Edge 62, Type (0, 1), BuildingBlock: EZIPEK_clean_linker_0, # of connection points: 2
#     Edge 63, Type (0, 1), BuildingBlock: EZIPEK_clean_linker_0, # of connection points: 2
#     Edge 64, Type (0, 1), BuildingBlock: EZIPEK_clean_linker_0, # of connection points: 2
#     Edge 65, Type (0, 1), BuildingBlock: EZIPEK_clean_linker_0, # of connection points: 2
#     Edge 66, Type (0, 1), BuildingBlock: EZIPEK_clean_linker_0, # of connection points: 2
#     Edge 67, Type (0, 1), BuildingBlock: EZIPEK_clean_linker_0, # of connection points: 2
#     Edge 68, Type (0, 1), BuildingBlock: EZIPEK_clean_linker_0, # of connection points: 2
#     Edge 69, Type (0, 1), BuildingBlock: EZIPEK_clean_linker_0, # of connection points: 2
#     Edge 70, Type (0, 1), BuildingBlock: EZIPEK_clean_linker_0, # of connection points: 2
#     Edge 71, Type (0, 1), BuildingBlock: EZIPEK_clean_linker_0, # of connection points: 2
#     Edge 72, Type (0, 1), BuildingBlock: EZIPEK_clean_linker_0, # of connection points: 2
#     Edge 73, Type (0, 1), BuildingBlock: EZIPEK_clean_linker_0, # of connection points: 2
#     Edge 74, Type (0, 1), BuildingBlock: EZIPEK_clean_linker_0, # of connection points: 2
#     Edge 75, Type (0, 1), BuildingBlock: EZIPEK_clean_linker_0, # of connection points: 2
#     Edge 76, Type (0, 1), BuildingBlock: EZIPEK_clean_linker_0, # of connection points: 2
#     Edge 77, Type (0, 1), BuildingBlock: EZIPEK_clean_linker_0, # of connection points: 2
#     Edge 78, Type (0, 1), BuildingBlock: EZIPEK_clean_linker_0, # of connection points: 2
#     Edge 79, Type (0, 1), BuildingBlock: EZIPEK_clean_linker_0, # of connection points: 2
#     Edge 80, Type (0, 1), BuildingBlock: EZIPEK_clean_linker_0, # of connection points: 2
#     Edge 81, Type (0, 1), BuildingBlock: EZIPEK_clean_linker_0, # of connection points: 2
#     Edge 82, Type (0, 1), BuildingBlock: EZIPEK_clean_linker_0, # of connection points: 2
#     Edge 83, Type (0, 1), BuildingBlock: EZIPEK_clean_linker_0, # of connection points: 2
#     Edge 84, Type (0, 1), BuildingBlock: EZIPEK_clean_linker_0, # of connection points: 2
#     Edge 85, Type (0, 1), BuildingBlock: EZIPEK_clean_linker_0, # of connection points: 2
#     Edge 86, Type (0, 1), BuildingBlock: EZIPEK_clean_linker_0, # of connection points: 2
#     Edge 87, Type (0, 1), BuildingBlock: EZIPEK_clean_linker_0, # of connection points: 2
#     Edge 88, Type (0, 1), BuildingBlock: EZIPEK_clean_linker_0, # of connection points: 2
#     Edge 89, Type (0, 1), BuildingBlock: EZIPEK_clean_linker_0, # of connection points: 2
#     Edge 90, Type (0, 1), BuildingBlock: EZIPEK_clean_linker_0, # of connection points: 2
#     Edge 91, Type (0, 1), BuildingBlock: EZIPEK_clean_linker_0, # of connection points: 2
#     Edge 92, Type (0, 1), BuildingBlock: EZIPEK_clean_linker_0, # of connection points: 2
#     Edge 93, Type (0, 1), BuildingBlock: EZIPEK_clean_linker_0, # of connection points: 2
#     Edge 94, Type (0, 1), BuildingBlock: EZIPEK_clean_linker_0, # of connection points: 2
#     Edge 95, Type (0, 1), BuildingBlock: EZIPEK_clean_linker_0, # of connection points: 2
#     Edge 96, Type (0, 1), BuildingBlock: EZIPEK_clean_linker_0, # of connection points: 2
#     Edge 97, Type (0, 1), BuildingBlock: EZIPEK_clean_linker_0, # of connection points: 2
#     Edge 98, Type (0, 1), BuildingBlock: EZIPEK_clean_linker_0, # of connection points: 2
#     Edge 99, Type (0, 1), BuildingBlock: EZIPEK_clean_linker_0, # of connection points: 2
#     Edge 100, Type (0, 1), BuildingBlock: EZIPEK_clean_linker_0, # of connection points: 2
#     Edge 101, Type (0, 1), BuildingBlock: EZIPEK_clean_linker_0, # of connection points: 2
#     Edge 102, Type (0, 1), BuildingBlock: EZIPEK_clean_linker_0, # of connection points: 2
#     Edge 103, Type (0, 1), BuildingBlock: EZIPEK_clean_linker_0, # of connection points: 2
#     Edge 104, Type (0, 1), BuildingBlock: EZIPEK_clean_linker_0, # of connection points: 2
#     Edge 105, Type (0, 1), BuildingBlock: EZIPEK_clean_linker_0, # of connection points: 2
#     Edge 106, Type (0, 1), BuildingBlock: EZIPEK_clean_linker_0, # of connection points: 2
#     Edge 107, Type (0, 1), BuildingBlock: EZIPEK_clean_linker_0, # of connection points: 2
#     Edge 108, Type (0, 1), BuildingBlock: EZIPEK_clean_linker_0, # of connection points: 2
#     Edge 109, Type (0, 1), BuildingBlock: EZIPEK_clean_linker_0, # of connection points: 2
#     Edge 110, Type (0, 1), BuildingBlock: EZIPEK_clean_linker_0, # of connection points: 2
#     Edge 111, Type (0, 1), BuildingBlock: EZIPEK_clean_linker_0, # of connection points: 2
#     Edge 112, Type (0, 1), BuildingBlock: EZIPEK_clean_linker_0, # of connection points: 2
#     Edge 113, Type (0, 1), BuildingBlock: EZIPEK_clean_linker_0, # of connection points: 2
#     Edge 114, Type (0, 1), BuildingBlock: EZIPEK_clean_linker_0, # of connection points: 2
#     Edge 115, Type (0, 1), BuildingBlock: EZIPEK_clean_linker_0, # of connection points: 2
#     Edge 116, Type (0, 1), BuildingBlock: EZIPEK_clean_linker_0, # of connection points: 2
#     Edge 117, Type (0, 1), BuildingBlock: EZIPEK_clean_linker_0, # of connection points: 2
#     Edge 118, Type (0, 1), BuildingBlock: EZIPEK_clean_linker_0, # of connection points: 2
#     Edge 119, Type (0, 1), BuildingBlock: EZIPEK_clean_linker_0, # of connection points: 2
#     Edge 120, Type (0, 1), BuildingBlock: EZIPEK_clean_linker_0, # of connection points: 2
#     Edge 121, Type (0, 1), BuildingBlock: EZIPEK_clean_linker_0, # of connection points: 2
#     Edge 122, Type (0, 1), BuildingBlock: EZIPEK_clean_linker_0, # of connection points: 2
#     Edge 123, Type (0, 1), BuildingBlock: EZIPEK_clean_linker_0, # of connection points: 2
#     Edge 124, Type (0, 1), BuildingBlock: EZIPEK_clean_linker_0, # of connection points: 2
#     Edge 125, Type (0, 1), BuildingBlock: EZIPEK_clean_linker_0, # of connection points: 2
#     Edge 126, Type (0, 1), BuildingBlock: EZIPEK_clean_linker_0, # of connection points: 2
#     Edge 127, Type (0, 1), BuildingBlock: EZIPEK_clean_linker_0, # of connection points: 2
#     Edge 128, Type (0, 1), BuildingBlock: EZIPEK_clean_linker_0, # of connection points: 2
#     Edge 129, Type (0, 1), BuildingBlock: EZIPEK_clean_linker_0, # of connection points: 2
#     Edge 130, Type (0, 1), BuildingBlock: EZIPEK_clean_linker_0, # of connection points: 2
#     Edge 131, Type (0, 1), BuildingBlock: EZIPEK_clean_linker_0, # of connection points: 2
#     Edge 132, Type (0, 1), BuildingBlock: EZIPEK_clean_linker_0, # of connection points: 2
#     Edge 133, Type (0, 1), BuildingBlock: EZIPEK_clean_linker_0, # of connection points: 2
#     Edge 134, Type (0, 1), BuildingBlock: EZIPEK_clean_linker_0, # of connection points: 2
#     Edge 135, Type (0, 1), BuildingBlock: EZIPEK_clean_linker_0, # of connection points: 2
# Relax obj value: 0.255
# Max RMSD: 0.325
# Mean RMSD: 0.183
data_MOF--net-gar--node1-NAHDIM_clean_sbu_0--node2-HISSIN_clean_sbu_0--edge1-EZIPEK_clean_linker_0
_symmetry_space_group_name_H-M    P1
_symmetry_Int_Tables_number       1
_symmetry_cell_setting            triclinic
loop_
_symmetry_equiv_pos_as_xyz
'x, y, z'
_cell_length_a     46.139519
_cell_length_b     45.480378
_cell_length_c     42.999723
_cell_angle_alpha  103.00052
_cell_angle_beta   93.66525
_cell_angle_gamma 102.11878
loop_
_atom_site_label
_atom_site_type_symbol
_atom_site_fract_x
_atom_site_fract_y
_atom_site_fract_z
_atom_type_partial_charge
C0 C 0.18917 0.35376 0.37628 0.0
O1 O 0.19018 0.38138 0.39458 0.0
O2 O 0.11871 0.30235 0.42105 0.0
Zn3 Zn 0.12904 0.33407 0.39499 0.0
O4 O 0.13007 0.37668 0.42218 0.0
C5 C 0.09847 0.31054 0.33006 0.0
O6 O 0.12178 0.29908 0.32314 0.0
O7 O 0.16675 0.33162 0.37486 0.0
C8 C 0.10535 0.38105 0.43144 0.0
O9 O 0.08152 0.35809 0.42354 0.0
C10 C 0.13183 0.30612 0.44904 0.0
O11 O 0.15348 0.33076 0.46115 0.0
O12 O 0.09674 0.32492 0.35862 0.0
C13 C 0.98192 0.76707 0.68819 0.0
O14 O 0.97686 0.74639 0.6605 0.0
O15 O 0.04572 0.74081 0.65206 0.0
Zn16 Zn 0.04381 0.78431 0.67391 0.0
O17 O 0.04491 0.81004 0.6409 0.0
C18 C 0.07663 0.80534 0.7394 0.0
O19 O 0.08277 0.80352 0.70996 0.0
O20 O 1.0077 0.78468 0.69739 0.0
C21 C 0.06897 0.82832 0.6379 0.0
O22 O 0.0933 0.83156 0.65713 0.0
C23 C 0.06779 0.73728 0.63651 0.0
O24 O 0.08822 0.76178 0.63529 0.0
O25 O 0.08097 0.80287 0.70988 0.0
C26 C 0.68913 0.85278 0.8747 0.0
O27 O 0.68775 0.88047 0.89105 0.0
O28 O 0.61957 0.8009 0.91972 0.0
Zn29 Zn 0.62947 0.83165 0.89245 0.0
O30 O 0.63005 0.87439 0.91889 0.0
C31 C 0.59966 0.80894 0.82672 0.0
O32 O 0.62381 0.79935 0.81917 0.0
O33 O 0.66782 0.82961 0.87351 0.0
C34 C 0.60488 0.88022 0.92462 0.0
O35 O 0.58042 0.85854 0.91354 0.0
C36 C 0.62697 0.80883 0.94995 0.0
O37 O 0.64217 0.83715 0.96367 0.0
O38 O 0.59737 0.82168 0.85567 0.0
C39 C 0.47234 0.24586 0.19356 0.0
O40 O 0.48474 0.22201 0.18951 0.0
O41 O 0.5288 0.2324 0.14207 0.0
Zn42 Zn 0.52331 0.27428 0.16535 0.0
O43 O 0.52503 0.30134 0.13349 0.0
C44 C 0.56459 0.27491 0.21777 0.0
O45 O 0.54854 0.24647 0.21306 0.0
O46 O 0.48443 0.26999 0.18473 0.0
C47 C 0.54872 0.32152 0.13334 0.0
O48 O 0.57155 0.32605 0.15507 0.0
C49 C 0.55265 0.23109 0.12911 0.0
O50 O 0.57247 0.25675 0.13026 0.0
O51 O 0.55709 0.29257 0.20122 0.0
C52 C 0.06934 0.77088 0.11884 0.0
O53 O 0.06569 0.75884 0.08768 0.0
O54 O 0.13403 0.74165 0.0884 0.0
Zn55 Zn 0.13311 0.78475 0.1121 0.0
O56 O 0.13287 0.81207 0.08149 0.0
C57 C 0.19282 0.79613 0.14356 0.0
O58 O 0.19849 0.78297 0.11492 0.0
O59 O 0.09544 0.78293 0.13342 0.0
C60 C 0.1546 0.82511 0.06893 0.0
O61 O 0.18181 0.82236 0.07617 0.0
C62 C 0.14888 0.73474 0.06503 0.0
O63 O 0.16497 0.75646 0.05371 0.0
O64 O 0.16697 0.80059 0.14765 0.0
C65 C 0.58983 0.80411 0.43296 0.0
O66 O 0.58717 0.78938 0.45599 0.0
O67 O 0.52583 0.79364 0.47876 0.0
Zn68 Zn 0.53375 0.82202 0.44906 0.0
O69 O 0.53701 0.8656 0.47332 0.0
C70 C 0.48103 0.78885 0.40204 0.0
O71 O 0.48282 0.76315 0.41035 0.0
O72 O 0.57039 0.81871 0.42683 0.0
C73 C 0.51574 0.87253 0.48859 0.0
O74 O 0.49229 0.85087 0.48967 0.0
C75 C 0.53514 0.80379 0.50853 0.0
O76 O 0.55223 0.83189 0.51819 0.0
O77 O 0.49966 0.81406 0.41526 0.0
C78 C 0.57467 0.28004 0.62561 0.0
O79 O 0.57157 0.27093 0.5941 0.0
O80 O 0.63985 0.25164 0.59478 0.0
Zn81 Zn 0.63757 0.29409 0.61884 0.0
O82 O 0.63488 0.32059 0.58794 0.0
C83 C 0.68007 0.29448 0.66871 0.0
O84 O 0.66374 0.26608 0.66356 0.0
O85 O 0.60059 0.29065 0.64101 0.0
C86 C 0.64862 0.32036 0.56323 0.0
O87 O 0.66821 0.30328 0.55725 0.0
C88 C 0.66374 0.24349 0.58747 0.0
O89 O 0.68954 0.26371 0.59471 0.0
O90 O 0.67268 0.31248 0.65255 0.0
C91 C 0.09135 0.3411 0.93001 0.0
O92 O 0.09757 0.35271 0.96116 0.0
O93 O 0.03453 0.29739 0.97262 0.0
Zn94 Zn 0.02936 0.32472 0.94322 0.0
O95 O 0.02609 0.36586 0.9685 0.0
C96 C 0.99315 0.28986 0.88457 0.0
O97 O 1.01667 0.27848 0.87854 0.0
O98 O 0.06447 0.32922 0.91784 0.0
C99 C 1.00587 0.36888 0.98686 0.0
O100 O 0.98628 0.34447 0.98987 0.0
C101 C 0.04799 0.30926 1.00084 0.0
O102 O 0.05699 0.33949 0.01113 0.0
O103 O 0.99298 0.30825 0.91151 0.0
C104 C 0.37565 0.08308 0.30884 0.0
O105 O 0.37879 0.05818 0.28818 0.0
O106 O 0.44058 0.05776 0.30269 0.0
Zn107 Zn 0.41828 0.06398 0.34137 0.0
O108 O 0.44882 0.07957 0.38011 0.0
C109 C 0.39149 0.99923 0.3221 0.0
O110 O 0.40662 1.00134 0.29755 0.0
O111 O 0.39131 0.09191 0.33609 0.0
C112 C 0.46388 0.05973 0.38301 0.0
O113 O 0.45776 0.03272 0.36212 0.0
C114 C 0.46521 0.07589 0.30145 0.0
O115 O 0.47609 0.10026 0.32536 0.0
O116 O 0.39239 0.02334 0.34411 0.0
C117 C 0.36509 0.19964 0.52974 0.0
O118 O 0.3667 0.22749 0.54776 0.0
O119 O 0.30806 0.23218 0.55389 0.0
Zn120 Zn 0.308 0.2081 0.50652 0.0
O121 O 0.31448 0.23373 0.4715 0.0
C122 C 0.24482 0.17751 0.50547 0.0
O123 O 0.24322 0.20536 0.52107 0.0
O124 O 0.34255 0.18674 0.50877 0.0
C125 C 0.31547 0.22002 0.44219 0.0
O126 O 0.31141 0.18968 0.43456 0.0
C127 C 0.31598 0.26082 0.56855 0.0
O128 O 0.3242 0.28164 0.5521 0.0
O129 O 0.26937 0.17344 0.4952 0.0
C130 C 0.23636 0.96469 0.7776 0.0
O131 O 0.20948 0.95283 0.78377 0.0
O132 O 0.18724 0.03753 0.73344 0.0
Zn133 Zn 0.21448 0.03706 0.78106 0.0
O134 O 0.18941 0.04065 0.8282 0.0
C135 C 0.23959 0.11044 0.77833 0.0
O136 O 0.2129 0.10667 0.76331 0.0
O137 O 0.24158 0.99425 0.77567 0.0
C138 C 0.16206 0.03686 0.8364 0.0
O139 O 0.14011 0.02812 0.81289 0.0
C140 C 0.16215 0.0249 0.71459 0.0
O141 O 0.14332 1.00281 0.72287 0.0
O142 O 0.24554 0.08649 0.78771 0.0
C143 C 0.26451 1.00825 0.03194 0.0
O144 O 0.27377 1.00039 0.05777 0.0
O145 O 0.32273 0.96912 0.04496 0.0
Zn146 Zn 0.32237 0.98893 1.00694 0.0
O147 O 0.31696 0.9532 0.96445 0.0
C148 C 0.39102 1.00951 0.02145 0.0
O149 O 0.38685 0.98463 0.03267 0.0
O150 O 0.28154 1.0076 1.00902 0.0
C151 C 0.33888 0.94281 0.95312 0.0
O152 O 0.36589 0.95528 0.96786 0.0
C153 C 0.33125 0.94408 0.0436 0.0
O154 O 0.33872 0.92941 0.01654 0.0
O155 O 0.36778 0.01749 0.01044 0.0
C156 C 0.29761 0.39924 0.03662 0.0
O157 O 0.29408 0.36914 0.03253 0.0
O158 O 0.35933 0.37973 0.09307 0.0
Zn159 Zn 0.35968 0.39826 0.05178 0.0
O160 O 0.35561 0.36716 1.00721 0.0
C161 C 0.42454 0.43458 0.06521 0.0
O162 O 0.43006 0.41257 0.07828 0.0
O163 O 0.32345 0.41682 0.04685 0.0
C164 C 0.35895 0.38021 0.98379 0.0
O165 O 0.36661 0.41064 0.9905 0.0
C166 C 0.33676 0.3744 0.10869 0.0
O167 O 0.31148 0.37968 0.09821 0.0
O168 O 0.39776 0.43321 0.05423 0.0
C169 C 0.91421 0.11145 0.04204 0.0
O170 O 0.91948 0.14167 0.04598 0.0
O171 O 0.85604 0.15357 0.09529 0.0
Zn172 Zn 0.84991 0.12092 0.0507 0.0
O173 O 0.85444 0.14648 0.01716 0.0
C174 C 0.7821 0.10409 0.05884 0.0
O175 O 0.79044 0.12576 0.08557 0.0
O176 O 0.88716 0.09702 0.04389 0.0
C177 C 0.83207 0.15029 1.00094 0.0
O178 O 0.80508 0.13622 1.00449 0.0
C179 C 0.84436 0.17716 0.09859 0.0
O180 O 0.82956 0.18112 0.07334 0.0
O181 O 0.8026 0.09589 0.04191 0.0
C182 C 0.28924 0.53397 0.25918 0.0
O183 O 0.28844 0.56022 0.27917 0.0
O184 O 0.22398 0.54838 0.18587 0.0
Zn185 Zn 0.25035 0.55719 0.2273 0.0
O186 O 0.22428 0.5619 0.26323 0.0
C187 C 0.27522 0.61843 0.22122 0.0
O188 O 0.24954 0.61432 0.20391 0.0
O189 O 0.27303 0.52548 0.23223 0.0
C190 C 0.21631 0.58684 0.27485 0.0
O191 O 0.22534 0.61145 0.26379 0.0
C192 C 0.19835 0.53019 0.18183 0.0
O193 O 0.19105 0.51343 0.20254 0.0
O194 O 0.28104 0.59647 0.2322 0.0
C195 C 0.80076 0.90653 0.54267 0.0
O196 O 0.79413 0.87697 0.54261 0.0
O197 O 0.85191 0.87671 0.59209 0.0
Zn198 Zn 0.86111 0.89962 0.55517 0.0
O199 O 0.85829 0.87005 0.5099 0.0
C200 C 0.92489 0.93031 0.55322 0.0
O201 O 0.92641 0.90303 0.53595 0.0
O202 O 0.82785 0.92165 0.54922 0.0
C203 C 0.86438 0.88257 0.48657 0.0
O204 O 0.87464 0.91274 0.49299 0.0
C205 C 0.86151 0.88802 0.62192 0.0
O206 O 0.87961 0.91566 0.63077 0.0
O207 O 0.90072 0.93351 0.56503 0.0
C208 C 0.9338 0.14734 0.27895 0.0
O209 O 0.96179 0.15986 0.27709 0.0
O210 O 0.97943 0.06878 0.22936 0.0
Zn211 Zn 0.95469 0.07482 0.27665 0.0
O212 O 0.98363 0.08096 0.3253 0.0
C213 C 0.92895 0.9986 0.27078 0.0
O214 O 0.95581 0.99594 0.26421 0.0
O215 O 0.92762 0.11731 0.27909 0.0
C216 C 0.99799 0.06265 0.33633 0.0
O217 O 0.99943 0.03671 0.31631 0.0
C218 C 1.00649 0.07562 0.22078 0.0
O219 O 0.02827 0.09015 0.24377 0.0
O220 O 0.92348 0.0264 0.27511 0.0
C221 C 0.41362 0.61347 0.54668 0.0
O222 O 0.42038 0.64319 0.56092 0.0
O223 O 0.35407 0.65486 0.59455 0.0
Zn224 Zn 0.3477 0.62235 0.54975 0.0
O225 O 0.34978 0.64732 0.51555 0.0
C226 C 0.2799 0.6071 0.55548 0.0
O227 O 0.28695 0.63569 0.57309 0.0
O228 O 0.38555 0.59941 0.54121 0.0
C229 C 0.32712 0.65432 0.50326 0.0
O230 O 0.30074 0.64466 0.51182 0.0
C231 C 0.34511 0.68015 0.59787 0.0
O232 O 0.33346 0.68669 0.57236 0.0
O233 O 0.30122 0.59519 0.54374 0.0
C234 C 0.43326 0.64693 0.77792 0.0
O235 O 0.46109 0.65927 0.77518 0.0
O236 O 0.47993 0.57135 0.7283 0.0
Zn237 Zn 0.45439 0.57459 0.77509 0.0
O238 O 0.48126 0.57787 0.82444 0.0
C239 C 0.42925 0.49951 0.77244 0.0
O240 O 0.45763 0.49928 0.77635 0.0
O241 O 0.42719 0.617 0.77842 0.0
C242 C 0.50147 0.5642 0.83379 0.0
O243 O 0.51256 0.54671 0.8112 0.0
C244 C 0.5059 0.56747 0.71918 0.0
O245 O 0.52553 0.56461 0.74115 0.0
O246 O 0.42274 0.52584 0.77031 0.0
C247 C 0.80232 0.02695 0.73771 0.0
O248 O 0.80338 0.05186 0.76063 0.0
O249 O 0.727 0.04378 0.68039 0.0
Zn250 Zn 0.7567 0.04993 0.71835 0.0
O251 O 0.7339 0.04726 0.75663 0.0
C252 C 0.77556 0.11353 0.7164 0.0
O253 O 0.74947 0.10783 0.69935 0.0
O254 O 0.78256 0.0197 0.71362 0.0
C255 C 0.72361 0.0701 0.7702 0.0
O256 O 0.72851 0.09552 0.75987 0.0
C257 C 0.70288 0.0231 0.67512 0.0
O258 O 0.69879 1.00232 0.69219 0.0
O259 O 0.78385 0.09197 0.72615 0.0
C260 C 0.84414 0.67636 0.03513 0.0
O261 O 0.82398 0.67438 0.05521 0.0
O262 O 0.80791 0.73545 0.05834 0.0
Zn263 Zn 0.80703 0.71181 0.01112 0.0
O264 O 0.8155 0.73939 0.97833 0.0
C265 C 0.7522 0.66961 0.01958 0.0
O266 O 0.76271 0.68139 0.04996 0.0
O267 O 0.84129 0.69035 0.01299 0.0
C268 C 0.81928 0.72746 0.94934 0.0
O269 O 0.81678 0.69736 0.94034 0.0
C270 C 0.81961 0.76348 0.07316 0.0
O271 O 0.83191 0.78316 0.05696 0.0
O272 O 0.76696 0.67879 0.99801 0.0
C273 C 0.86597 0.59172 0.85131 0.0
O274 O 0.86214 0.575 0.8726 0.0
O275 O 0.94108 0.56651 0.7997 0.0
Zn276 Zn 0.91664 0.56464 0.83617 0.0
O277 O 0.94477 0.57501 0.87667 0.0
C278 C 0.90069 0.49904 0.81221 0.0
O279 O 0.9237 0.50446 0.79621 0.0
O280 O 0.8883 0.59199 0.8355 0.0
C281 C 0.96605 0.56111 0.8741 0.0
O282 O 0.96883 0.54377 0.8461 0.0
C283 C 0.95276 0.59133 0.7921 0.0
O284 O 0.94773 0.61792 0.80731 0.0
O285 O 0.89302 0.52129 0.83072 0.0
C286 C 0.76252 0.50879 0.52976 0.0
O287 O 0.77051 0.49895 0.55475 0.0
O288 O 0.81806 0.46451 0.53934 0.0
Zn289 Zn 0.82051 0.48936 0.50504 0.0
O290 O 0.81571 0.4563 0.46057 0.0
C291 C 0.88888 0.50708 0.52221 0.0
O292 O 0.88283 0.47947 0.52798 0.0
O293 O 0.78033 0.50916 0.50761 0.0
C294 C 0.83774 0.44731 0.44789 0.0
O295 O 0.8649 0.46111 0.46155 0.0
C296 C 0.82654 0.43914 0.53494 0.0
O297 O 0.836 0.42819 0.50758 0.0
O298 O 0.86665 0.51775 0.51318 0.0
C299 C 0.73639 0.4643 0.27679 0.0
O300 O 0.70938 0.4523 0.28247 0.0
O301 O 0.68883 0.53518 0.23091 0.0
Zn302 Zn 0.71404 0.53616 0.28026 0.0
O303 O 0.68367 0.5347 0.32305 0.0
C304 C 0.74017 0.60975 0.27792 0.0
O305 O 0.71541 0.60522 0.25887 0.0
O306 O 0.74171 0.49396 0.27526 0.0
C307 C 0.67989 0.55505 0.34878 0.0
O308 O 0.69528 0.58371 0.35299 0.0
C309 C 0.66171 0.53502 0.21959 0.0
O310 O 0.64103 0.53236 0.23907 0.0
O311 O 0.74446 0.5863 0.28939 0.0
Eu312 Eu 0.1013 0.09056 0.04062 0.0
Eu313 Eu 0.07092 0.01956 0.01921 0.0
C314 C 0.10918 0.05219 0.96628 0.0
C315 C 0.11545 0.17734 0.07108 0.0
C316 C 0.08459 0.17489 0.07104 0.0
C317 C 0.1229 0.23202 0.0734 0.0
C318 C 0.07277 0.20038 0.06939 0.0
C319 C 0.13469 0.2064 0.0746 0.0
C320 C 0.09186 0.22834 0.06808 0.0
C321 C 0.12634 0.14953 0.05887 0.0
O322 O 0.1199 0.01756 0.02985 0.0
O323 O 0.14204 0.06919 0.04467 0.0
C324 C 0.14435 0.04005 0.03735 0.0
O325 O 0.07839 0.08412 0.08654 0.0
O326 O 0.04777 0.97843 0.98203 0.0
O327 O 0.05648 0.97548 0.03134 0.0
O328 O 0.05757 0.03225 0.07158 0.0
C329 C 0.06141 0.05929 0.09307 0.0
O330 O 0.05171 0.0919 0.03421 0.0
O331 O 0.03058 0.04071 0.01145 0.0
O332 O 0.09739 0.02676 0.97563 0.0
O333 O 0.12682 0.13065 0.07759 0.0
O334 O 0.11535 0.13505 0.02936 0.0
O335 O 0.10823 0.07912 0.98581 0.0
C336 C 0.06276 0.93437 0.99196 0.0
C337 C 0.05084 0.90634 0.99971 0.0
C338 C 0.11053 0.92031 0.98764 0.0
C339 C 0.06917 0.88626 1.00331 0.0
C340 C 0.09218 0.94043 0.98406 0.0
C341 C 0.09951 0.89419 0.99926 0.0
C342 C 0.04826 0.96015 1.00149 0.0
C343 C 0.02771 0.06935 0.0229 0.0
H344 H 0.06948 0.15254 0.06846 0.0
H345 H 0.13785 0.25352 0.07235 0.0
H346 H 0.04878 0.19723 0.06525 0.0
H347 H 0.15854 0.20858 0.07462 0.0
H348 H 0.02834 0.90153 1.00625 0.0
H349 H 0.13396 0.92674 0.98459 0.0
H350 H 0.06044 0.86614 0.01233 0.0
H351 H 0.10186 0.96219 0.97842 0.0
Eu352 Eu 0.35739 0.81588 0.25252 0.0
Eu353 Eu 0.31554 0.80419 0.31217 0.0
C354 C 0.284 0.80927 0.2459 0.0
C355 C 0.37611 0.85025 0.18376 0.0
C356 C 0.34964 0.86074 0.18666 0.0
C357 C 0.38524 0.87401 0.13914 0.0
C358 C 0.34085 0.8775 0.16581 0.0
C359 C 0.394 0.85711 0.16005 0.0
C360 C 0.35851 0.88404 0.14184 0.0
C361 C 0.38426 0.83166 0.2052 0.0
O362 O 0.31472 0.75702 0.2819 0.0
O363 O 0.34932 0.76454 0.24607 0.0
C364 C 0.32986 0.74665 0.25868 0.0
O365 O 0.38963 0.80298 0.28503 0.0
O366 O 0.28005 0.77779 0.33289 0.0
O367 O 0.31112 0.81794 0.36331 0.0
O368 O 0.36312 0.80576 0.32899 0.0
C369 C 0.3871 0.80227 0.31505 0.0
O370 O 0.36412 0.86024 0.29046 0.0
O371 O 0.31912 0.85382 0.31067 0.0
O372 O 0.28023 0.80333 0.27396 0.0
O373 O 0.3922 0.84659 0.23519 0.0
O374 O 0.36551 0.80514 0.2023 0.0
O375 O 0.31007 0.81559 0.23522 0.0
C376 C 0.29863 0.77339 0.38305 0.0
C377 C 0.32477 0.76229 0.37958 0.0
C378 C 0.28688 0.74487 0.42372 0.0
C379 C 0.33206 0.74286 0.39819 0.0
C380 C 0.27969 0.76458 0.4052 0.0
C381 C 0.31309 0.73394 0.42023 0.0
C382 C 0.29084 0.79282 0.36228 0.0
C383 C 0.34342 0.87155 0.30502 0.0
H384 H 0.33559 0.85563 0.20483 0.0
H385 H 0.39902 0.87893 0.12063 0.0
H386 H 0.32017 0.88509 0.16812 0.0
H387 H 0.41448 0.84917 0.15753 0.0
H388 H 0.33941 0.76839 0.36222 0.0
H389 H 0.27204 0.73807 0.44069 0.0
H390 H 0.35228 0.73451 0.39518 0.0
H391 H 0.25932 0.77269 0.40794 0.0
Eu392 Eu 0.61119 0.04296 0.50918 0.0
Eu393 Eu 0.56632 0.07381 0.559 0.0
C394 C 0.6178 0.04502 0.58548 0.0
C395 C 0.66994 0.9999 0.48392 0.0
C396 C 0.66484 0.98463 0.50876 0.0
C397 C 0.71644 0.98315 0.47823 0.0
C398 C 0.6854 0.96878 0.5183 0.0
C399 C 0.6958 0.99896 0.46864 0.0
C400 C 0.71148 0.96817 0.5033 0.0
C401 C 0.64965 0.01892 0.47598 0.0
O402 O 0.61172 0.10563 0.56659 0.0
O403 O 0.62214 0.0945 0.51473 0.0
C404 C 0.62475 0.11402 0.5428 0.0
O405 O 0.57105 0.04453 0.47728 0.0
O406 O 0.55694 0.11592 0.58807 0.0
O407 O 0.52559 0.07209 0.58271 0.0
O408 O 0.55761 0.08478 0.51146 0.0
C409 C 0.55508 0.06553 0.48323 0.0
O410 O 0.58155 1.00401 0.52384 0.0
O411 O 0.54121 0.0254 0.53397 0.0
O412 O 0.59138 0.05093 0.58953 0.0
O413 O 0.62112 1.0061 0.47208 0.0
O414 O 0.65564 0.04731 0.49357 0.0
O415 O 0.63078 0.04641 0.55937 0.0
C416 C 0.50594 0.11594 0.58252 0.0
C417 C 0.5026 0.12052 0.55137 0.0
C418 C 0.46296 0.13769 0.59473 0.0
C419 C 0.47951 0.1333 0.54185 0.0
C420 C 0.48598 0.12462 0.60416 0.0
C421 C 0.45957 0.14207 0.56348 0.0
C422 C 0.53022 0.10218 0.59224 0.0
C423 C 0.55314 1.00137 0.5269 0.0
H424 H 0.64518 0.98539 0.5211 0.0
H425 H 0.73643 0.98287 0.46638 0.0
H426 H 0.68118 0.95729 0.5376 0.0
H427 H 0.70029 1.01089 0.4497 0.0
H428 H 0.51794 0.11433 0.53442 0.0
H429 H 0.4478 0.14443 0.61176 0.0
H430 H 0.47727 0.13652 0.51768 0.0
H431 H 0.48825 0.12137 0.62832 0.0
Eu432 Eu 0.30054 0.3147 0.77724 0.0
Eu433 Eu 0.36541 0.29778 0.77795 0.0
C434 C 0.3049 0.24267 0.78163 0.0
C435 C 0.22643 0.33122 0.80212 0.0
C436 C 0.22957 0.32089 0.83029 0.0
C437 C 0.18073 0.34569 0.81747 0.0
C438 C 0.20832 0.32297 0.85196 0.0
C439 C 0.20196 0.34362 0.79582 0.0
C440 C 0.18384 0.33543 0.84565 0.0
C441 C 0.2494 0.33091 0.78013 0.0
O442 O 0.35024 0.2886 0.7248 0.0
O443 O 0.30569 0.30368 0.72431 0.0
C444 C 0.32667 0.29304 0.70932 0.0
O445 O 0.33254 0.36163 0.77606 0.0
O446 O 0.3909 0.26246 0.7649 0.0
O447 O 0.4138 0.30896 0.79031 0.0
O448 O 0.37786 0.34867 0.77246 0.0
C449 C 0.36155 0.36968 0.77357 0.0
O450 O 0.31364 0.31862 0.82982 0.0
O451 O 0.36338 0.31833 0.8307 0.0
O452 O 0.33442 0.25276 0.78539 0.0
O453 O 0.27511 0.34968 0.79174 0.0
O454 O 0.25218 0.30384 0.76421 0.0
O455 O 0.28799 0.26199 0.7768 0.0
C456 C 0.43828 0.28148 0.75139 0.0
C457 C 0.43407 0.29325 0.72433 0.0
C458 C 0.48327 0.26768 0.73278 0.0
C459 C 0.45449 0.29238 0.70168 0.0
C460 C 0.46285 0.26855 0.75542 0.0
C461 C 0.47926 0.27971 0.70591 0.0
C462 C 0.41662 0.28177 0.77487 0.0
C463 C 0.3401 0.32284 0.84556 0.0
H464 H 0.24852 0.31149 0.83558 0.0
H465 H 0.16186 0.35524 0.81228 0.0
H466 H 0.21092 0.31488 0.87361 0.0
H467 H 0.19941 0.35191 0.7743 0.0
H468 H 0.41505 0.30312 0.7208 0.0
H469 H 0.50237 0.25793 0.73634 0.0
H470 H 0.45118 0.30182 0.68108 0.0
H471 H 0.46625 0.25919 0.77606 0.0
Eu472 Eu 0.07657 0.08635 0.54694 0.0
Eu473 Eu 0.09183 0.02229 0.50928 0.0
C474 C 0.13776 0.08707 0.51176 0.0
C475 C 0.07826 0.1696 0.55694 0.0
C476 C 0.10772 0.17778 0.54948 0.0
C477 C 0.06566 0.20929 0.53243 0.0
C478 C 0.11593 0.20119 0.53345 0.0
C479 C 0.05743 0.18589 0.54868 0.0
C480 C 0.09487 0.21675 0.52433 0.0
C481 C 0.06848 0.14179 0.56944 0.0
O482 O 0.11218 0.02882 0.56239 0.0
O483 O 0.09691 0.0711 0.59001 0.0
C484 C 0.11087 0.04834 0.59013 0.0
O485 O 0.03916 0.05131 0.5589 0.0
O486 O 0.12164 0.99033 0.50387 0.0
O487 O 0.07829 0.97663 0.47588 0.0
O488 O 0.04646 1.00728 0.52501 0.0
C489 C 0.03092 0.02146 0.54539 0.0
O490 O 0.05668 0.0801 0.49372 0.0
O491 O 0.07011 0.03656 0.46627 0.0
O492 O 0.12877 0.05759 0.49701 0.0
O493 O 0.04797 0.11953 0.55075 0.0
O494 O 0.08959 0.13124 0.5817 0.0
O495 O 0.12272 0.10095 0.53294 0.0
C496 C 0.0931 0.94038 0.50154 0.0
C497 C 0.06466 0.93228 0.5116 0.0
C498 C 0.11001 0.90514 0.52967 0.0
C499 C 0.05921 0.91144 0.53108 0.0
C500 C 0.11549 0.92599 0.51005 0.0
C501 C 0.08208 0.89846 0.54096 0.0
C502 C 0.10071 0.96721 0.48709 0.0
C503 C 0.05689 0.05984 0.46612 0.0
H504 H 0.12427 0.16543 0.55503 0.0
H505 H 0.0491 0.22104 0.52545 0.0
H506 H 0.13852 0.20656 0.52727 0.0
H507 H 0.03456 0.17977 0.55379 0.0
H508 H 0.04696 0.94315 0.50581 0.0
H509 H 0.1279 0.89531 0.53723 0.0
H510 H 0.03756 0.90651 0.53965 0.0
H511 H 0.13763 0.9321 0.50293 0.0
Eu512 Eu 0.36764 0.82745 0.77599 0.0
Eu513 Eu 0.30556 0.78667 0.78085 0.0
C514 C 0.33936 0.8428 0.84039 0.0
C515 C 0.44734 0.85305 0.76264 0.0
C516 C 0.44717 0.8237 0.74306 0.0
C517 C 0.49967 0.86008 0.78047 0.0
C518 C 0.473 0.81222 0.74307 0.0
C519 C 0.47407 0.87172 0.78006 0.0
C520 C 0.4988 0.8297 0.76336 0.0
C521 C 0.4193 0.86129 0.77094 0.0
O522 O 0.28978 0.83116 0.7729 0.0
O523 O 0.3353 0.86149 0.77085 0.0
C524 C 0.30578 0.85889 0.77128 0.0
O525 O 0.35969 0.78975 0.72993 0.0
O526 O 0.2785 0.76367 0.81219 0.0
O527 O 0.26106 0.75865 0.76255 0.0
O528 O 0.30986 0.76919 0.72806 0.0
C529 C 0.33505 0.77006 0.71534 0.0
O530 O 0.38255 0.78126 0.77861 0.0
O531 O 0.33819 0.75342 0.78772 0.0
O532 O 0.31384 0.82873 0.82313 0.0
O533 O 0.39694 0.85296 0.74814 0.0
O534 O 0.41142 0.85522 0.79782 0.0
O535 O 0.36381 0.83678 0.82943 0.0
C536 C 0.22761 0.76363 0.80044 0.0
C537 C 0.22895 0.79269 0.82131 0.0
C538 C 0.17527 0.7588 0.78452 0.0
C539 C 0.20368 0.80514 0.82292 0.0
C540 C 0.20028 0.74615 0.78336 0.0
C541 C 0.17729 0.78898 0.80294 0.0
C542 C 0.25496 0.75452 0.79073 0.0
C543 C 0.3669 0.75462 0.7832 0.0
H544 H 0.42661 0.80876 0.72974 0.0
H545 H 0.51953 0.87392 0.79606 0.0
H546 H 0.47209 0.78877 0.72964 0.0
H547 H 0.4745 0.89426 0.79548 0.0
H548 H 0.24993 0.80672 0.83449 0.0
H549 H 0.15493 0.74593 0.76919 0.0
H550 H 0.20543 0.82838 0.83743 0.0
H551 H 0.19891 0.72382 0.76703 0.0
Eu552 Eu 0.58672 0.04585 0.0639 0.0
Eu553 Eu 0.58489 0.06868 0.99593 0.0
C554 C 0.57685 0.11475 0.06305 0.0
C555 C 0.56651 0.03319 0.14373 0.0
C556 C 0.53791 0.0383 0.13774 0.0
C557 C 0.5611 0.04174 0.20052 0.0
C558 C 0.52097 0.04502 0.16302 0.0
C559 C 0.57798 0.03485 0.17519 0.0
C560 C 0.5326 0.04701 0.19454 0.0
C561 C 0.5853 0.02869 0.1177 0.0
O562 O 0.63477 0.07295 1.00983 0.0
O563 O 0.63631 0.06273 0.05993 0.0
C564 C 0.6499 0.07051 0.03591 0.0
O565 O 0.59862 1.0075 0.02804 0.0
O566 O 0.60007 0.10341 0.96939 0.0
O567 O 0.56952 0.0601 0.94494 0.0
O568 O 0.58185 0.01734 0.98076 0.0
C569 C 0.59175 0.99944 0.99682 0.0
O570 O 0.53674 0.0348 0.04557 0.0
O571 O 0.53576 0.05939 1.00428 0.0
O572 O 0.58014 0.11072 0.03244 0.0
O573 O 0.57199 1.01072 0.09018 0.0
O574 O 0.60295 0.05401 0.11449 0.0
O575 O 0.57815 0.09361 0.07905 0.0
C576 C 0.60707 0.08123 0.91679 0.0
C577 C 0.63105 0.06744 0.92115 0.0
C578 C 0.62223 0.08812 0.86554 0.0
C579 C 0.65056 0.06402 0.89785 0.0
C580 C 0.60264 0.09146 0.88888 0.0
C581 C 0.64633 0.07453 0.87005 0.0
C582 C 0.58722 0.08541 0.94179 0.0
C583 C 0.5218 0.04435 0.02395 0.0
H584 H 0.52887 0.03749 0.11361 0.0
H585 H 0.57027 0.04318 0.22479 0.0
H586 H 0.49897 0.04899 0.15809 0.0
H587 H 0.60014 0.03132 0.18019 0.0
H588 H 0.63479 0.05962 0.94272 0.0
H589 H 0.61875 0.09627 0.84408 0.0
H590 H 0.66904 0.05344 0.90155 0.0
H591 H 0.58423 0.10218 0.88527 0.0
Eu592 Eu 0.35341 0.33147 0.29848 0.0
Eu593 Eu 0.30424 0.26961 0.25766 0.0
C594 C 0.32944 0.32585 0.22457 0.0
C595 C 0.38667 0.41547 0.3232 0.0
C596 C 0.3708 0.43301 0.34397 0.0
C597 C 0.38334 0.44791 0.28581 0.0
C598 C 0.35961 0.45635 0.33469 0.0
C599 C 0.39445 0.42448 0.29498 0.0
C600 C 0.36459 0.46273 0.30484 0.0
C601 C 0.38896 0.38456 0.32725 0.0
O602 O 0.34758 0.25461 0.26086 0.0
O603 O 0.37918 0.30221 0.26744 0.0
C604 C 0.37344 0.27191 0.25835 0.0
O605 O 0.35458 0.29743 0.32972 0.0
O606 O 0.29123 0.22818 0.21798 0.0
O607 O 0.25968 0.23917 0.25117 0.0
O608 O 0.30871 0.26507 0.30946 0.0
C609 C 0.3315 0.27576 0.33215 0.0
O610 O 0.30891 0.334 0.31623 0.0
O611 O 0.27814 0.30627 0.27084 0.0
O612 O 0.32032 0.29563 0.22029 0.0
O613 O 0.36736 0.37049 0.34056 0.0
O614 O 0.39533 0.36572 0.30236 0.0
O615 O 0.33609 0.34429 0.25372 0.0
C616 C 0.26687 0.18814 0.2394 0.0
C617 C 0.26695 0.18776 0.2721 0.0
C618 C 0.2874 0.1424 0.22975 0.0
C619 C 0.27916 0.1663 0.28379 0.0
C620 C 0.27526 0.16399 0.21799 0.0
C621 C 0.29105 0.14481 0.26293 0.0
C622 C 0.26716 0.21744 0.23004 0.0
C623 C 0.28257 0.32515 0.29946 0.0
H624 H 0.36472 0.42687 0.366 0.0
H625 H 0.38739 0.45274 0.26271 0.0
H626 H 0.34519 0.46776 0.34964 0.0
H627 H 0.40694 0.41173 0.2786 0.0
H628 H 0.26062 0.20598 0.28932 0.0
H629 H 0.29655 0.12581 0.21342 0.0
H630 H 0.28185 0.16833 0.30947 0.0
H631 H 0.27552 0.16387 0.19278 0.0
Eu632 Eu 0.57611 0.58617 0.04536 0.0
Eu633 Eu 0.58947 0.52066 1.00987 0.0
C634 C 0.63843 0.58421 0.0128 0.0
C635 C 0.57507 0.66801 0.05232 0.0
C636 C 0.58944 0.66417 0.02438 0.0
C637 C 0.5763 0.72125 0.05042 0.0
C638 C 0.59716 0.68848 1.00952 0.0
C639 C 0.56848 0.69669 0.06533 0.0
C640 C 0.5907 0.71718 0.0224 0.0
C641 C 0.56768 0.64173 0.06734 0.0
O642 O 0.6032 0.52449 0.06429 0.0
O643 O 0.6028 0.57481 0.0873 0.0
C644 C 0.60955 0.54838 0.08996 0.0
O645 O 0.53999 0.55155 0.06045 0.0
O646 O 0.61678 0.48637 1.00638 0.0
O647 O 0.57511 0.47541 0.97573 0.0
O648 O 0.5424 0.50855 0.0219 0.0
C649 C 0.52913 0.52245 0.04491 0.0
O650 O 0.55412 0.57783 0.9926 0.0
O651 O 0.57169 0.53682 0.96591 0.0
O652 O 0.63196 0.55376 1.00489 0.0
O653 O 0.54661 0.61845 0.05115 0.0
O654 O 0.59065 0.63249 0.07738 0.0
O655 O 0.61972 0.60009 0.0257 0.0
C656 C 0.5853 0.43744 1.00178 0.0
C657 C 0.55669 0.43208 0.01206 0.0
C658 C 0.59747 0.3987 0.02798 0.0
C659 C 0.54885 0.4108 0.0307 0.0
C660 C 0.60536 0.42002 1.00925 0.0
C661 C 0.56946 0.3946 0.03946 0.0
C662 C 0.59574 0.46437 0.98818 0.0
C663 C 0.5566 0.55866 0.96509 0.0
H664 H 0.59483 0.64231 0.01411 0.0
H665 H 0.57123 0.74337 0.06066 0.0
H666 H 0.60829 0.68493 0.98799 0.0
H667 H 0.55746 0.70009 0.08692 0.0
H668 H 0.54081 0.44536 1.00707 0.0
H669 H 0.61366 0.38642 0.0347 0.0
H670 H 0.52719 0.40798 0.03949 0.0
H671 H 0.62761 0.42404 1.00198 0.0
Eu672 Eu 0.86791 0.32744 0.27437 0.0
Eu673 Eu 0.80608 0.28666 0.28008 0.0
C674 C 0.8394 0.34418 0.33851 0.0
C675 C 0.94742 0.35332 0.26054 0.0
C676 C 0.94737 0.32358 0.24196 0.0
C677 C 0.99974 0.36103 0.27876 0.0
C678 C 0.97323 0.31223 0.2428 0.0
C679 C 0.9741 0.37252 0.27752 0.0
C680 C 0.99892 0.33028 0.26292 0.0
C681 C 0.91933 0.3614 0.2688 0.0
O682 O 0.79003 0.33099 0.272 0.0
O683 O 0.83534 0.36107 0.26869 0.0
C684 C 0.8059 0.35857 0.26974 0.0
O685 O 0.85992 0.28926 0.22866 0.0
O686 O 0.77805 0.26504 0.31174 0.0
O687 O 0.76272 0.25657 0.26091 0.0
O688 O 0.81008 0.26919 0.22719 0.0
C689 C 0.83517 0.26963 0.21436 0.0
O690 O 0.88307 0.2815 0.27761 0.0
O691 O 0.83912 0.25417 0.28818 0.0
O692 O 0.81389 0.32933 0.32157 0.0
O693 O 0.89689 0.35271 0.24607 0.0
O694 O 0.91166 0.35549 0.29581 0.0
O695 O 0.86391 0.33798 0.32783 0.0
C696 C 0.72665 0.25971 0.29577 0.0
C697 C 0.70099 0.23736 0.28059 0.0
C698 C 0.69701 0.29828 0.30752 0.0
C699 C 0.67392 0.24586 0.27704 0.0
C700 C 0.72435 0.2899 0.31056 0.0
C701 C 0.67224 0.27672 0.28887 0.0
C702 C 0.75565 0.25321 0.28903 0.0
C703 C 0.86767 0.25514 0.28306 0.0
H704 H 0.92684 0.30825 0.22901 0.0
H705 H 1.01952 0.37529 0.29421 0.0
H706 H 0.97237 0.28848 0.23037 0.0
H707 H 0.97443 0.39537 0.29218 0.0
H708 H 0.70245 0.21407 0.26887 0.0
H709 H 0.69593 0.32218 0.31683 0.0
H710 H 0.65488 0.22894 0.26278 0.0
H711 H 0.74406 0.30756 0.32207 0.0
Eu712 Eu 0.08522 0.54731 0.56834 0.0
Eu713 Eu 0.08254 0.56832 0.5014 0.0
C714 C 0.08025 0.61617 0.56797 0.0
C715 C 0.0673 0.54442 0.65048 0.0
C716 C 0.06206 0.5744 0.65527 0.0
C717 C 0.03741 0.53521 0.69316 0.0
C718 C 0.04459 0.58467 0.6788 0.0
C719 C 0.05509 0.52497 0.6697 0.0
C720 C 0.03189 0.56497 0.69753 0.0
C721 C 0.08271 0.53254 0.62329 0.0
O722 O 0.13285 0.58127 0.51958 0.0
O723 O 0.13355 0.55284 0.55743 0.0
C724 C 0.14779 0.56981 0.5395 0.0
O725 O 0.08069 0.50314 0.52995 0.0
O726 O 0.09223 0.60475 0.47575 0.0
O727 O 0.06724 0.55871 0.45036 0.0
O728 O 0.09752 0.52375 0.48858 0.0
C729 C 0.09084 0.50035 0.50187 0.0
O730 O 0.03749 0.55297 0.5586 0.0
O731 O 0.03438 0.54317 0.50417 0.0
O732 O 0.06986 0.60621 0.5375 0.0
O733 O 0.06515 0.51656 0.59736 0.0
O734 O 0.10511 0.55239 0.61716 0.0
O735 O 0.09274 0.5992 0.58306 0.0
C736 C 0.10022 0.58664 0.42244 0.0
C737 C 0.12631 0.5756 0.42436 0.0
C738 C 0.11173 0.59909 0.3721 0.0
C739 C 0.14505 0.57629 0.40023 0.0
C740 C 0.09298 0.5984 0.39629 0.0
C741 C 0.1378 0.58801 0.37401 0.0
C742 C 0.0808 0.58618 0.44791 0.0
C743 C 1.02098 0.54501 0.53052 0.0
H744 H 0.07083 0.58959 0.64028 0.0
H745 H 0.02759 0.51979 0.70749 0.0
H746 H 0.04033 0.60764 0.68189 0.0
H747 H 0.05856 0.50165 0.66597 0.0
H748 H 0.13211 0.5665 0.44452 0.0
H749 H 0.10596 0.60817 0.3519 0.0
H750 H 0.16513 0.56766 0.40192 0.0
H751 H 0.07291 0.60704 0.39461 0.0
Eu752 Eu 0.80196 0.81454 0.28173 0.0
Eu753 Eu 0.86673 0.7976 0.28086 0.0
C754 C 0.80669 0.74241 0.28466 0.0
C755 C 0.72607 0.82119 0.30777 0.0
C756 C 0.71968 0.79305 0.31718 0.0
C757 C 0.6892 0.83909 0.34038 0.0
C758 C 0.698 0.78792 0.33789 0.0
C759 C 0.7107 0.84413 0.31952 0.0
C760 C 0.68276 0.81099 0.34967 0.0
C761 C 0.7498 0.82773 0.28732 0.0
O762 O 0.84946 0.78725 0.22819 0.0
O763 O 0.8082 0.80811 0.22918 0.0
C764 C 0.82746 0.79497 0.21346 0.0
O765 O 0.83309 0.86182 0.28012 0.0
O766 O 0.89204 0.7621 0.26771 0.0
O767 O 0.91544 0.80916 0.29026 0.0
O768 O 0.87839 0.84879 0.2758 0.0
C769 C 0.86206 0.86986 0.27726 0.0
O770 O 0.81651 0.81792 0.33391 0.0
O771 O 0.86638 0.81877 0.33368 0.0
O772 O 0.83615 0.75317 0.29026 0.0
O773 O 0.77472 0.84617 0.30229 0.0
O774 O 0.75422 0.80423 0.26592 0.0
O775 O 0.7899 0.76127 0.27828 0.0
C776 C 0.93836 0.78003 0.2509 0.0
C777 C 0.932 0.78887 0.22241 0.0
C778 C 0.98345 0.767 0.2316 0.0
C779 C 0.95135 0.78688 0.19867 0.0
C780 C 0.96409 0.76898 0.25531 0.0
C781 C 0.97724 0.77604 0.20323 0.0
C782 C 0.91789 0.78157 0.27568 0.0
C783 C 0.84335 0.82292 0.34908 0.0
H784 H 0.73154 0.77517 0.30871 0.0
H785 H 0.67754 0.85706 0.34926 0.0
H786 H 0.69321 0.7661 0.34487 0.0
H787 H 0.71554 0.86607 0.31278 0.0
H788 H 0.91211 0.79729 0.2186 0.0
H789 H 1.00339 0.75864 0.23544 0.0
H790 H 0.94629 0.79396 0.1769 0.0
H791 H 0.9692 0.76192 0.27708 0.0
Eu792 Eu 0.85794 0.30777 0.73982 0.0
Eu793 Eu 0.82822 0.30302 0.80785 0.0
C794 C 0.78958 0.31143 0.74828 0.0
C795 C 0.86744 0.32955 0.66153 0.0
C796 C 0.83718 0.32964 0.65533 0.0
C797 C 0.88013 0.3645 0.62677 0.0
C798 C 0.82854 0.34732 0.63536 0.0
C799 C 0.88884 0.34691 0.64694 0.0
C800 C 0.84994 0.36499 0.62115 0.0
C801 C 0.87692 0.3137 0.68527 0.0
O802 O 0.8127 0.25734 0.77182 0.0
O803 O 0.85279 0.25845 0.74302 0.0
C804 C 0.82923 0.24322 0.75283 0.0
O805 O 0.89713 0.30981 0.77448 0.0
O806 O 0.793 0.28042 0.8321 0.0
O807 O 0.8302 0.31576 0.86002 0.0
O808 O 0.87197 0.28894 0.81191 0.0
C809 C 0.8967 0.29823 0.7998 0.0
O810 O 0.85399 0.35587 0.76367 0.0
O811 O 0.85084 0.3531 0.81621 0.0
O812 O 0.7958 0.32063 0.77966 0.0
O813 O 0.88948 0.33185 0.71294 0.0
O814 O 0.8577 0.28932 0.68843 0.0
O815 O 0.80813 0.30013 0.72966 0.0
C816 C 0.81293 0.27221 0.88022 0.0
C817 C 0.83949 0.26166 0.87937 0.0
C818 C 0.79664 0.24102 0.91755 0.0
C819 C 0.84474 0.24124 0.89776 0.0
C820 C 0.79146 0.26163 0.89926 0.0
C821 C 0.82335 0.23086 0.91696 0.0
C822 C 0.8074 0.2935 0.8606 0.0
C823 C 0.85617 0.36898 0.79448 0.0
H824 H 0.82027 0.31648 0.66638 0.0
H825 H 0.89692 0.37809 0.61594 0.0
H826 H 0.80524 0.34749 0.6311 0.0
H827 H 0.91229 0.34735 0.65166 0.0
H828 H 0.85624 0.2693 0.86457 0.0
H829 H 0.77997 0.23316 0.93236 0.0
H830 H 0.86544 0.23357 0.89708 0.0
H831 H 0.77077 0.26933 0.89999 0.0
Eu832 Eu 0.86128 0.84233 0.8074 0.0
Eu833 Eu 0.8154 0.77687 0.76684 0.0
C834 C 0.83603 0.83086 0.72969 0.0
C835 C 0.90143 0.92297 0.81572 0.0
C836 C 0.90111 0.91662 0.78209 0.0
C837 C 0.88911 0.97211 0.81551 0.0
C838 C 0.89245 0.93672 0.76516 0.0
C839 C 0.89759 0.95186 0.83246 0.0
C840 C 0.88439 0.9634 0.78181 0.0
C841 C 0.89612 0.89701 0.83126 0.0
O842 O 0.86006 0.77565 0.74948 0.0
O843 O 0.89086 0.80946 0.79229 0.0
C844 C 0.88665 0.78861 0.76492 0.0
O845 O 0.85739 0.81676 0.84668 0.0
O846 O 0.8079 0.72974 0.73708 0.0
O847 O 0.77068 0.74622 0.75665 0.0
O848 O 0.82599 0.77096 0.81754 0.0
C849 C 0.84122 0.78879 0.84466 0.0
O850 O 0.81598 0.84234 0.82407 0.0
O851 O 0.78643 0.81079 0.77926 0.0
O852 O 0.82089 0.8023 0.72728 0.0
O853 O 0.86874 0.88922 0.83769 0.0
O854 O 0.90604 0.87284 0.81821 0.0
O855 O 0.84975 0.84922 0.75732 0.0
C856 C 0.77598 0.69647 0.76046 0.0
C857 C 0.77411 0.70305 0.79378 0.0
C858 C 0.78895 0.64807 0.76324 0.0
C859 C 0.78148 0.68325 0.81191 0.0
C860 C 0.78161 0.66792 0.74508 0.0
C861 C 0.79066 0.65665 0.79687 0.0
C862 C 0.78074 0.72197 0.74411 0.0
C863 C 0.78986 0.83093 0.807 0.0
H864 H 0.90402 0.89454 0.76855 0.0
H865 H 0.8828 0.99266 0.8286 0.0
H866 H 0.88873 0.92968 0.73914 0.0
H867 H 0.89757 0.95711 0.85832 0.0
H868 H 0.76995 0.72491 0.80637 0.0
H869 H 0.79612 0.62759 0.75137 0.0
H870 H 0.78287 0.69022 0.83788 0.0
H871 H 0.78341 0.66249 0.71952 0.0
Eu872 Eu 0.60049 0.59177 0.53964 0.0
Eu873 Eu 0.56902 0.52058 0.51657 0.0
C874 C 0.60928 0.55228 0.46499 0.0
C875 C 0.61029 0.6779 0.56597 0.0
C876 C 0.58285 0.67409 0.57879 0.0
C877 C 0.6042 0.72659 0.55603 0.0
C878 C 0.56565 0.69601 0.57911 0.0
C879 C 0.62151 0.70495 0.55611 0.0
C880 C 0.57559 0.72137 0.56592 0.0
C881 C 0.62322 0.6512 0.55514 0.0
O882 O 0.61873 0.51964 0.52431 0.0
O883 O 0.64079 0.57064 0.5466 0.0
C884 C 0.64309 0.54182 0.53539 0.0
O885 O 0.57857 0.58483 0.5859 0.0
O886 O 0.54495 0.47886 0.48067 0.0
O887 O 0.55648 0.47682 0.52978 0.0
O888 O 0.55658 0.53322 0.56935 0.0
C889 C 0.56113 0.55984 0.59165 0.0
O890 O 0.55074 0.59295 0.53214 0.0
O891 O 0.52842 0.54173 0.51117 0.0
O892 O 0.59098 0.5276 0.47032 0.0
O893 O 0.6253 0.63351 0.57493 0.0
O894 O 0.61251 0.63533 0.52597 0.0
O895 O 0.6143 0.5788 0.48746 0.0
C896 C 0.56048 0.43486 0.49005 0.0
C897 C 0.58992 0.4404 0.48219 0.0
C898 C 0.56525 0.38552 0.49938 0.0
C899 C 0.60749 0.41934 0.48479 0.0
C900 C 0.54771 0.40655 0.49676 0.0
C901 C 0.59566 0.39281 0.49543 0.0
C902 C 0.54667 0.46103 0.50037 0.0
C903 C 0.52626 0.57067 0.52209 0.0
H904 H 0.57366 0.65304 0.58604 0.0
H905 H 0.61217 0.74623 0.54599 0.0
H906 H 0.54361 0.69182 0.58691 0.0
H907 H 0.64245 0.70801 0.54581 0.0
H908 H 0.60021 0.46235 0.47733 0.0
H909 H 0.55589 0.36511 0.50764 0.0
H910 H 0.63098 0.42528 0.48183 0.0
H911 H 0.52517 0.40212 0.50323 0.0
Eu912 Eu 0.10166 0.53215 1.00783 0.0
Eu913 Eu 0.05944 0.56844 0.05699 0.0
C914 C 0.11337 0.54355 0.08503 0.0
C915 C 0.15796 0.48468 0.98295 0.0
C916 C 0.15597 0.47331 0.01074 0.0
C917 C 0.20284 0.4655 0.97389 0.0
C918 C 0.17734 0.45824 0.02011 0.0
C919 C 0.1814 0.48047 0.96448 0.0
C920 C 0.20118 0.4546 1.00197 0.0
C921 C 0.13709 0.50296 0.97459 0.0
O922 O 0.1041 0.59997 0.05833 0.0
O923 O 0.11234 0.58233 1.0064 0.0
C924 C 0.11519 0.6049 0.03221 0.0
O925 O 0.06162 0.53336 0.97551 0.0
O926 O 0.05023 0.61245 0.0812 0.0
O927 O 0.02224 0.5696 0.08608 0.0
O928 O 0.04746 0.57459 1.00776 0.0
C929 C 0.04604 0.55481 0.97999 0.0
O930 O 0.07175 0.49739 0.02808 0.0
O931 O 0.0322 0.52043 0.03403 0.0
O932 O 0.08676 0.54894 0.0892 0.0
O933 O 0.1087 0.49107 0.9743 0.0
O934 O 0.14445 0.53242 0.98891 0.0
O935 O 0.1249 0.54242 0.0578 0.0
C936 C 0.99903 0.61042 0.08211 0.0
C937 C 0.99092 0.61009 0.04995 0.0
C938 C 0.95678 0.63229 0.09742 0.0
C939 C 0.96588 0.62065 0.04156 0.0
C940 C 0.98183 0.62161 0.10581 0.0
C941 C 0.94867 0.63185 0.06524 0.0
C942 C 0.02561 0.59955 0.09088 0.0
C943 C 0.04319 0.49571 0.02932 0.0
H944 H 0.13817 0.47658 0.02546 0.0
H945 H 0.22097 0.46276 0.9595 0.0
H946 H 0.17558 0.44987 0.04175 0.0
H947 H 0.18342 0.48923 0.94309 0.0
H948 H 1.00408 0.60185 0.03137 0.0
H949 H 0.94372 0.64091 0.11598 0.0
H950 H 0.95997 0.62022 0.01664 0.0
H951 H 0.98782 0.62219 0.13074 0.0
C952 C 0.07783 0.27034 1.00444 0.0
C953 C 0.05919 0.28921 0.01896 0.0
C954 C 0.06427 0.27062 0.06787 0.0
C955 C 0.08008 0.24938 0.05171 0.0
N956 N 0.09521 0.22362 1.0018 0.0
N957 N 0.0313 0.3049 0.06286 0.0
C958 C 0.08484 0.24759 0.01913 0.0
C959 C 0.05151 0.28882 0.05035 0.0
N960 N 0.09017 0.27517 0.97743 0.0
N961 N 0.06192 0.27367 0.09989 0.0
H962 H 0.02134 0.31812 0.05043 0.0
H963 H 0.02262 0.30317 0.08431 0.0
H964 H 0.07068 0.26022 0.11307 0.0
H965 H 0.05326 0.29091 0.11381 0.0
H966 H 0.10632 0.26404 0.9678 0.0
H967 H 0.08695 0.29286 0.96683 0.0
H968 H 0.09598 0.21971 0.97706 0.0
H969 H 0.10012 0.20578 0.01121 0.0
C970 C 0.22718 0.82925 0.19203 0.0
C971 C 0.21417 0.79949 0.17181 0.0
C972 C 0.24477 0.7757 0.20274 0.0
C973 C 0.25746 0.80539 0.22319 0.0
N974 N 0.25561 0.85869 0.24302 0.0
N975 N 0.20444 0.74376 0.16276 0.0
C976 C 0.24705 0.8317 0.21961 0.0
C977 C 0.22116 0.77247 0.17857 0.0
N978 N 0.22144 0.85514 0.1842 0.0
N979 N 0.25576 0.75072 0.20597 0.0
H980 H 0.18633 0.74046 0.14552 0.0
H981 H 0.20657 0.72334 0.16882 0.0
H982 H 0.27189 0.75181 0.22457 0.0
H983 H 0.25011 0.72936 0.18924 0.0
H984 H 0.23275 0.87761 0.19607 0.0
H985 H 0.20686 0.85415 0.16422 0.0
H986 H 0.24698 0.87811 0.24318 0.0
H987 H 0.26913 0.86048 0.26407 0.0
C988 C 0.5082 0.92296 0.48102 0.0
C989 C 0.51637 0.90536 0.502 0.0
C990 C 0.537 0.95259 0.54399 0.0
C991 C 0.53429 0.96992 0.5209 0.0
N992 N 0.51506 0.97337 0.46877 0.0
N993 N 0.53497 0.90187 0.55424 0.0
C994 C 0.51853 0.9557 0.48999 0.0
C995 C 0.52921 0.91973 0.53402 0.0
N996 N 0.49085 0.90816 0.45256 0.0
N997 N 0.54708 0.96781 0.57524 0.0
H998 H 0.52763 0.87778 0.54796 0.0
H999 H 0.54738 0.91058 0.57674 0.0
H1000 H 0.55243 0.99198 0.58285 0.0
H1001 H 0.54803 0.95689 0.59397 0.0
H1002 H 0.48206 0.91953 0.4371 0.0
H1003 H 0.4832 0.88409 0.44555 0.0
H1004 H 0.50699 0.96432 0.4446 0.0
H1005 H 0.52116 0.99753 0.47527 0.0
C1006 C 0.54512 0.30853 0.6632 0.0
C1007 C 0.54822 0.28016 0.64331 0.0
C1008 C 0.50235 0.25279 0.65975 0.0
C1009 C 0.5019 0.28026 0.68299 0.0
N1010 N 0.52451 0.33366 0.70955 0.0
N1011 N 0.53166 0.22447 0.62475 0.0
C1012 C 0.52367 0.30804 0.68539 0.0
C1013 C 0.52716 0.25204 0.64183 0.0
N1014 N 0.562 0.33605 0.66008 0.0
N1015 N 0.47888 0.22759 0.65456 0.0
H1016 H 0.54966 0.22286 0.6115 0.0
H1017 H 0.51887 0.20295 0.62566 0.0
H1018 H 0.46051 0.22732 0.66754 0.0
H1019 H 0.47636 0.20808 0.63561 0.0
H1020 H 0.55862 0.35758 0.67161 0.0
H1021 H 0.57739 0.33739 0.6434 0.0
H1022 H 0.54198 0.35334 0.71476 0.0
H1023 H 0.50894 0.33445 0.72609 0.0
C1024 C 0.07622 0.87881 0.62215 0.0
C1025 C 0.06995 0.84596 0.61279 0.0
C1026 C 0.06823 0.84746 0.55599 0.0
C1027 C 0.07753 0.88025 0.56557 0.0
N1028 N 0.09324 0.9275 0.60745 0.0
N1029 N 0.06314 0.79863 0.57134 0.0
C1030 C 0.08227 0.89605 0.5986 0.0
C1031 C 0.06656 0.83011 0.57981 0.0
N1032 N 0.07534 0.89346 0.65345 0.0
N1033 N 0.06055 0.83299 0.52413 0.0
H1034 H 0.06152 0.78504 0.58799 0.0
H1035 H 0.06404 0.78613 0.5481 0.0
H1036 H 0.06224 0.84496 0.50603 0.0
H1037 H 0.05043 0.80952 0.51574 0.0
H1038 H 0.07657 0.91712 0.66128 0.0
H1039 H 0.07067 0.88153 0.67129 0.0
H1040 H 0.10046 0.93995 0.6311 0.0
H1041 H 0.09717 0.94111 0.59093 0.0
C1042 C 0.57803 0.8241 0.77924 0.0
C1043 C 0.57478 0.80568 0.80197 0.0
C1044 C 0.52053 0.79578 0.79229 0.0
C1045 C 0.5237 0.81555 0.77077 0.0
N1046 N 0.55385 0.84053 0.73637 0.0
N1047 N 0.54424 0.7659 0.82185 0.0
C1048 C 0.55203 0.82681 0.76158 0.0
C1049 C 0.54635 0.78863 0.80548 0.0
N1050 N 0.6056 0.84071 0.77623 0.0
N1051 N 0.49336 0.78584 0.80212 0.0
H1052 H 0.56307 0.76029 0.83162 0.0
H1053 H 0.52421 0.75067 0.82286 0.0
H1054 H 0.47369 0.7904 0.79323 0.0
H1055 H 0.49056 0.77469 0.82076 0.0
H1056 H 0.60896 0.85743 0.76297 0.0
H1057 H 0.62521 0.83901 0.78842 0.0
H1058 H 0.57362 0.84703 0.72667 0.0
H1059 H 0.53489 0.84266 0.72325 0.0
C1060 C 0.58316 0.19112 0.12463 0.0
C1061 C 0.55831 0.20092 0.11278 0.0
C1062 C 0.544 0.15278 0.07046 0.0
C1063 C 0.57052 0.14441 0.08023 0.0
N1064 N 0.61784 0.15781 0.11336 0.0
N1065 N 0.51794 0.1939 0.07132 0.0
C1066 C 0.59079 0.16415 0.10651 0.0
C1067 C 0.53945 0.1825 0.08488 0.0
N1068 N 0.59886 0.20701 0.15374 0.0
N1069 N 0.52256 0.13191 0.04828 0.0
H1070 H 0.51396 0.21566 0.08102 0.0
H1071 H 0.50583 0.18298 0.04894 0.0
H1072 H 0.52491 0.10987 0.03718 0.0
H1073 H 0.50135 0.13536 0.04306 0.0
H1074 H 0.61519 0.19915 0.16523 0.0
H1075 H 0.59373 0.22667 0.16787 0.0
H1076 H 0.63483 0.17308 0.12998 0.0
H1077 H 0.62439 0.13846 0.1004 0.0
C1078 C 0.22414 0.32044 0.35661 0.0
C1079 C 0.21381 0.34774 0.35698 0.0
C1080 C 0.24921 0.36093 0.31917 0.0
C1081 C 0.25673 0.33188 0.31614 0.0
N1082 N 0.24534 0.28068 0.32588 0.0
N1083 N 0.21205 0.39067 0.33281 0.0
C1084 C 0.24223 0.31056 0.33288 0.0
C1085 C 0.22518 0.36727 0.33677 0.0
N1086 N 0.21785 0.30462 0.37982 0.0
N1087 N 0.26503 0.38249 0.30537 0.0
H1088 H 0.1935 0.39523 0.34387 0.0
H1089 H 0.21769 0.40355 0.31598 0.0
H1090 H 0.28181 0.37794 0.29112 0.0
H1091 H 0.2628 0.40535 0.30987 0.0
H1092 H 0.2271 0.2861 0.38217 0.0
H1093 H 0.20626 0.31217 0.39897 0.0
H1094 H 0.23316 0.26351 0.33548 0.0
H1095 H 0.25748 0.2723 0.30776 0.0
C1096 C 0.03589 0.04713 0.17769 0.0
C1097 C 1.01578 0.06725 0.18551 0.0
C1098 C 0.02599 0.08281 0.13349 0.0
C1099 C 0.0455 0.06196 0.12514 0.0
N1100 N 0.06551 0.02145 0.13957 0.0
N1101 N 0.98881 0.1008 0.16697 0.0
C1102 C 0.0491 0.04324 0.14732 0.0
C1103 C 1.01006 0.08392 0.16209 0.0
N1104 N 0.04318 0.03197 0.20005 0.0
N1105 N 0.0228 0.10229 0.1142 0.0
H1106 H 0.97752 0.10249 0.18732 0.0
H1107 H 0.98049 0.11086 0.14993 0.0
H1108 H 0.03202 0.10122 0.09264 0.0
H1109 H 1.01239 0.12064 0.12016 0.0
H1110 H 0.06051 0.02052 0.19899 0.0
H1111 H 0.03258 0.03205 0.22078 0.0
H1112 H 0.06599 1.00406 0.15158 0.0
H1113 H 0.07766 0.01968 0.1199 0.0
C1114 C 0.31341 0.6607 0.44844 0.0
C1115 C 0.32966 0.67342 0.47943 0.0
C1116 C 0.3375 0.72568 0.47035 0.0
C1117 C 0.32066 0.71298 0.43971 0.0
N1118 N 0.29895 0.6685 0.39619 0.0
N1119 N 0.36381 0.71639 0.51653 0.0
C1120 C 0.31065 0.68046 0.42765 0.0
C1121 C 0.344 0.70541 0.48926 0.0
N1122 N 0.3 0.62977 0.43925 0.0
N1123 N 0.34639 0.75716 0.48177 0.0
H1124 H 0.36933 0.70228 0.53086 0.0
H1125 H 0.37702 0.73887 0.52342 0.0
H1126 H 0.343 0.77269 0.46812 0.0
H1127 H 0.35549 0.76806 0.50536 0.0
H1128 H 0.28453 0.61974 0.41895 0.0
H1129 H 0.30354 0.61416 0.45274 0.0
H1130 H 0.29455 0.64499 0.38489 0.0
H1131 H 0.29581 0.68233 0.3805 0.0
C1132 C 0.6671 0.05414 0.66247 0.0
C1133 C 0.67766 0.02651 0.65442 0.0
C1134 C 0.64169 1.00777 0.60614 0.0
C1135 C 0.63486 0.0374 0.61151 0.0
N1136 N 0.64296 0.09006 0.64321 0.0
N1137 N 0.67667 0.97757 0.61778 0.0
C1138 C 0.64779 0.06087 0.63944 0.0
C1139 C 0.66516 1.00324 0.6262 0.0
N1140 N 0.67493 0.07355 0.69245 0.0
N1141 N 0.62537 0.98389 0.58212 0.0
H1142 H 0.69381 0.97344 0.63201 0.0
H1143 H 0.67073 0.96147 0.59568 0.0
H1144 H 0.60778 0.98649 0.56736 0.0
H1145 H 0.62734 0.96103 0.57877 0.0
H1146 H 0.66556 0.09237 0.70075 0.0
H1147 H 0.68856 0.06901 0.71018 0.0
H1148 H 0.6549 0.10906 0.66103 0.0
H1149 H 0.62854 0.09589 0.62717 0.0
C1150 C 0.36403 0.33676 0.93624 0.0
C1151 C 0.35185 0.36263 0.94904 0.0
C1152 C 0.33461 0.36363 0.89394 0.0
C1153 C 0.34411 0.33604 0.88128 0.0
N1154 N 0.36269 0.2929 0.89132 0.0
N1155 N 0.31826 0.39487 0.93958 0.0
C1156 C 0.35732 0.32157 0.90273 0.0
C1157 C 0.3349 0.37422 0.92772 0.0
N1158 N 0.38327 0.32761 0.95552 0.0
N1159 N 0.32686 0.38093 0.87394 0.0
H1160 H 0.31691 0.4027 0.96404 0.0
H1161 H 0.30312 0.40145 0.92501 0.0
H1162 H 0.32782 0.37518 0.84921 0.0
H1163 H 0.3228 0.40287 0.88233 0.0
H1164 H 0.39531 0.31115 0.94675 0.0
H1165 H 0.38931 0.33836 0.97983 0.0
H1166 H 0.36944 0.27982 0.90621 0.0
H1167 H 0.35767 0.28096 0.86719 0.0
C1168 C 0.99619 0.06315 0.39741 0.0
C1169 C 1.0132 0.06834 0.37163 0.0
C1170 C 0.05873 0.06805 0.40753 0.0
C1171 C 0.04183 0.06357 0.43366 0.0
N1172 N 0.99402 0.06095 0.45365 0.0
N1173 N 0.06197 0.08042 0.35497 0.0
C1174 C 1.01051 0.06265 0.42857 0.0
C1175 C 0.04483 0.07203 0.37771 0.0
N1176 N 0.9658 0.0569 0.39157 0.0
N1177 N 0.08844 0.06836 0.41105 0.0
H1178 H 0.05276 0.0838 0.3336 0.0
H1179 H 0.08517 0.08668 0.35817 0.0
H1180 H 0.09977 0.06795 0.43265 0.0
H1181 H 0.1017 0.0675 0.39235 0.0
H1182 H 0.95139 0.04883 0.40703 0.0
H1183 H 0.95484 0.05808 0.37005 0.0
H1184 H 0.97231 0.06409 0.45356 0.0
H1185 H 1.00263 0.05812 0.47549 0.0
C1186 C 0.3577 0.73426 0.6336 0.0
C1187 C 0.34568 0.70204 0.62994 0.0
C1188 C 0.32838 0.71413 0.68347 0.0
C1189 C 0.33692 0.74653 0.68514 0.0
N1190 N 0.35583 0.78707 0.65901 0.0
N1191 N 0.3158 0.66163 0.6501 0.0
C1192 C 0.35064 0.75646 0.65945 0.0
C1193 C 0.33015 0.69203 0.6546 0.0
N1194 N 0.3767 0.74364 0.61277 0.0
N1195 N 0.31983 0.70418 0.70991 0.0
H1196 H 0.31714 0.64437 0.63012 0.0
H1197 H 0.30076 0.65385 0.6652 0.0
H1198 H 0.31777 0.71907 0.73143 0.0
H1199 H 0.3173 0.68126 0.71142 0.0
H1200 H 0.38855 0.76646 0.61588 0.0
H1201 H 0.38309 0.72802 0.59424 0.0
H1202 H 0.36292 0.79533 0.6394 0.0
H1203 H 0.35016 0.80384 0.67691 0.0
C1204 C 0.67631 0.04823 0.79103 0.0
C1205 C 0.70526 0.06814 0.79687 0.0
C1206 C 0.69569 0.09221 0.85093 0.0
C1207 C 0.66726 0.07141 0.84554 0.0
N1208 N 0.63295 0.02532 0.81372 0.0
N1209 N 0.74521 0.10361 0.83439 0.0
C1210 C 0.65834 0.04801 0.81658 0.0
C1211 C 0.71579 0.08851 0.82749 0.0
N1212 N 0.66533 0.03073 0.76073 0.0
N1213 N 0.70308 0.11614 0.87788 0.0
H1214 H 0.76066 0.10057 0.81798 0.0
H1215 H 0.75488 0.11652 0.85725 0.0
H1216 H 0.68902 0.1195 0.89577 0.0
H1217 H 0.72211 0.13405 0.88138 0.0
H1218 H 0.64315 0.01869 0.75422 0.0
H1219 H 0.67781 0.03011 0.74139 0.0
H1220 H 0.62697 1.00579 0.79452 0.0
H1221 H 0.61913 0.02457 0.83195 0.0
C1222 C 0.32513 0.37822 0.16613 0.0
C1223 C 0.33836 0.36372 0.13955 0.0
C1224 C 0.35048 0.32809 0.1715 0.0
C1225 C 0.33297 0.33938 0.1956 0.0
N1226 N 0.29887 0.3719 0.21204 0.0
N1227 N 0.35967 0.32095 0.11567 0.0
C1228 C 0.31909 0.36364 0.19193 0.0
C1229 C 0.35012 0.33766 0.14193 0.0
N1230 N 0.31932 0.40671 0.16751 0.0
N1231 N 0.36849 0.30914 0.17727 0.0
H1232 H 0.35925 0.32653 0.09346 0.0
H1233 H 0.36539 0.29988 0.11513 0.0
H1234 H 0.37048 0.30287 0.19904 0.0
H1235 H 0.38384 0.30252 0.16196 0.0
H1236 H 0.31231 0.41958 0.18768 0.0
H1237 H 0.3249 0.41904 0.15017 0.0
H1238 H 0.28547 0.38676 0.20792 0.0
H1239 H 0.29318 0.36144 0.23073 0.0
C1240 C 0.22781 0.04235 0.02099 0.0
C1241 C 0.23329 0.01562 0.03019 0.0
C1242 C 0.18226 1.00758 0.04802 0.0
C1243 C 0.17548 0.03225 0.03572 0.0
N1244 N 0.19126 0.06809 1.00295 0.0
N1245 N 0.21087 0.9681 0.04428 0.0
C1246 C 0.19819 0.04825 0.02018 0.0
C1247 C 0.20906 0.99697 0.04135 0.0
N1248 N 0.25103 0.06304 0.01413 0.0
N1249 N 0.1639 0.99498 0.06763 0.0
H1250 H 0.22888 0.95848 0.03776 0.0
H1251 H 0.19295 0.95237 0.04933 0.0
H1252 H 0.14485 1.00257 0.07418 0.0
H1253 H 0.16967 0.97972 0.08042 0.0
H1254 H 0.24919 0.08462 0.01085 0.0
H1255 H 0.27278 0.05992 0.01464 0.0
H1256 H 0.20564 0.07784 0.98835 0.0
H1257 H 0.16997 0.072 1.00035 0.0
C1258 C 0.72301 0.61756 0.02314 0.0
C1259 C 0.72419 0.64453 0.01142 0.0
C1260 C 0.67063 0.62607 0.99211 0.0
C1261 C 0.66855 0.60217 1.0088 0.0
N1262 N 0.69286 0.57768 0.04395 0.0
N1263 N 0.6984 0.67593 0.98672 0.0
C1264 C 0.69483 0.59827 0.02496 0.0
C1265 C 0.69786 0.64904 0.99604 0.0
N1266 N 0.74897 0.6102 0.03226 0.0
N1267 N 0.64664 0.62641 0.97197 0.0
H1268 H 0.71785 0.6931 0.98887 0.0
H1269 H 0.67922 0.68221 0.97902 0.0
H1270 H 0.62694 0.60921 0.96776 0.0
H1271 H 0.64733 0.64161 0.95703 0.0
H1272 H 0.74968 0.5893 0.03806 0.0
H1273 H 0.76994 0.62354 0.0307 0.0
H1274 H 0.71084 0.57656 0.05922 0.0
H1275 H 0.6728 0.56356 0.04678 0.0
C1276 C 0.74842 0.41037 0.24883 0.0
C1277 C 0.75819 0.44035 0.27132 0.0
C1278 C 0.80168 0.41874 0.28932 0.0
C1279 C 0.79016 0.38753 0.26926 0.0
N1280 N 0.74995 0.35559 0.22985 0.0
N1281 N 0.79387 0.46998 0.31605 0.0
C1282 C 0.76273 0.3842 0.24925 0.0
C1283 C 0.78494 0.44352 0.29206 0.0
N1284 N 0.72572 0.40714 0.22542 0.0
N1285 N 0.8292 0.42531 0.30618 0.0
H1286 H 0.78323 0.48832 0.31813 0.0
H1287 H 0.81025 0.4729 0.33501 0.0
H1288 H 0.84139 0.40864 0.30644 0.0
H1289 H 0.84095 0.44769 0.31777 0.0
H1290 H 0.71892 0.38799 0.20595 0.0
H1291 H 0.71557 0.42524 0.2236 0.0
H1292 H 0.72833 0.34954 0.21818 0.0
H1293 H 0.76061 0.33727 0.22628 0.0
C1294 C 0.94057 0.52079 0.55287 0.0
C1295 C 0.92198 0.52357 0.52643 0.0
C1296 C 0.96847 0.54681 0.50602 0.0
C1297 C 0.98672 0.53803 0.52897 0.0
N1298 N 0.98683 0.50898 0.56976 0.0
N1299 N 0.91984 0.53631 0.47493 0.0
C1300 C 0.97185 0.52311 0.55132 0.0
C1301 C 0.93638 0.53595 0.50224 0.0
N1302 N 0.92835 0.51613 0.57996 0.0
N1303 N 0.98142 0.56671 0.48871 0.0
H1304 H 0.89667 0.52896 0.47123 0.0
H1305 H 0.92943 0.54171 0.45502 0.0
H1306 H 1.00419 0.57691 0.49215 0.0
H1307 H 0.96908 0.57596 0.47383 0.0
H1308 H 0.94117 0.51649 0.60097 0.0
H1309 H 0.90598 0.51585 0.58257 0.0
H1310 H 0.9763 0.49573 0.58446 0.0
H1311 H 1.00861 0.50677 0.56714 0.0
C1312 C 0.3229 0.08484 0.29397 0.0
C1313 C 0.35368 0.10006 0.30013 0.0
C1314 C 0.3431 0.14466 0.28243 0.0
C1315 C 0.31232 0.12945 0.27639 0.0
N1316 N 0.27184 0.08788 0.28018 0.0
N1317 N 0.39314 0.14549 0.30429 0.0
C1318 C 0.30188 0.10031 0.28327 0.0
C1319 C 0.36377 0.1304 0.29578 0.0
N1320 N 0.31392 0.05547 0.29816 0.0
N1321 N 0.3526 0.17229 0.27433 0.0
H1322 H 0.40948 0.13511 0.31189 0.0
H1323 H 0.40132 0.16891 0.30558 0.0
H1324 H 0.33814 0.18427 0.26582 0.0
H1325 H 0.37489 0.1829 0.27437 0.0
H1326 H 0.29262 0.04145 0.29045 0.0
H1327 H 0.32819 0.04442 0.30855 0.0
H1328 H 0.26231 0.06825 0.28776 0.0
H1329 H 0.25599 0.09836 0.27162 0.0
C1330 C 0.38187 0.15377 0.5425 0.0
C1331 C 0.38898 0.18332 0.53533 0.0
C1332 C 0.44227 0.18669 0.54894 0.0
C1333 C 0.43528 0.15612 0.55338 0.0
N1334 N 0.39898 0.10805 0.54777 0.0
N1335 N 0.42622 0.22461 0.52466 0.0
C1336 C 0.40522 0.13886 0.54809 0.0
C1337 C 0.4193 0.19883 0.5365 0.0
N1338 N 0.35312 0.14067 0.54595 0.0
N1339 N 0.47065 0.20456 0.55765 0.0
H1340 H 0.41004 0.23356 0.51428 0.0
H1341 H 0.44796 0.23513 0.52203 0.0
H1342 H 0.4881 0.19655 0.56693 0.0
H1343 H 0.47627 0.22814 0.55838 0.0
H1344 H 0.34731 0.12085 0.55461 0.0
H1345 H 0.33535 0.15106 0.54319 0.0
H1346 H 0.37779 0.09355 0.54063 0.0
H1347 H 0.41548 0.09633 0.55179 0.0
C1348 C 0.75102 0.66974 0.30201 0.0
C1349 C 0.76112 0.64331 0.28541 0.0
C1350 C 0.80113 0.68151 0.26803 0.0
C1351 C 0.79174 0.70803 0.28579 0.0
N1352 N 0.76088 0.7256 0.32569 0.0
N1353 N 0.79955 0.62575 0.25667 0.0
C1354 C 0.76749 0.70144 0.30434 0.0
C1355 C 0.78746 0.64993 0.26993 0.0
N1356 N 0.72496 0.66461 0.31544 0.0
N1357 N 0.822 0.68615 0.24742 0.0
H1358 H 0.78999 0.60294 0.25711 0.0
H1359 H 0.82023 0.62847 0.24794 0.0
H1360 H 0.83177 0.70805 0.24451 0.0
H1361 H 0.82772 0.66827 0.23105 0.0
H1362 H 0.71375 0.68191 0.32385 0.0
H1363 H 0.71365 0.64254 0.31662 0.0
H1364 H 0.74585 0.72279 0.34244 0.0
H1365 H 0.77265 0.74851 0.32895 0.0
C1366 C 0.90035 0.4514 0.83133 0.0
C1367 C 0.88639 0.46696 0.81188 0.0
C1368 C 0.84741 0.42004 0.78979 0.0
C1369 C 0.86431 0.40317 0.8046 0.0
N1370 N 0.90718 0.40238 0.83967 0.0
N1371 N 0.84714 0.46697 0.77213 0.0
C1372 C 0.8906 0.41876 0.82593 0.0
C1373 C 0.85986 0.45163 0.79117 0.0
N1374 N 0.92273 0.46793 0.85512 0.0
N1375 N 0.81909 0.40599 0.77539 0.0
H1376 H 0.85518 0.49048 0.77335 0.0
H1377 H 0.82979 0.45603 0.75382 0.0
H1378 H 0.80893 0.38328 0.7756 0.0
H1379 H 0.80463 0.41765 0.76637 0.0
H1380 H 0.93164 0.45851 0.87242 0.0
H1381 H 0.93067 0.49187 0.85937 0.0
H1382 H 0.92854 0.41198 0.85176 0.0
H1383 H 0.90046 0.37866 0.83761 0.0
C1384 C 0.13506 0.83077 0.01559 0.0
C1385 C 0.1487 0.84476 0.04749 0.0
C1386 C 0.13451 0.89301 0.04551 0.0
C1387 C 0.12027 0.87895 0.01375 0.0
N1388 N 0.11263 0.83774 0.96581 0.0
N1389 N 0.16921 0.89096 0.08927 0.0
C1390 C 0.12256 0.84886 0.99779 0.0
C1391 C 0.15125 0.87661 0.06111 0.0
N1392 N 0.13311 0.79995 1.00291 0.0
N1393 N 0.13014 0.92096 0.06174 0.0
H1394 H 0.18139 0.87927 0.10151 0.0
H1395 H 0.17427 0.91487 0.09875 0.0
H1396 H 0.11815 0.93409 0.05143 0.0
H1397 H 0.13651 0.93013 0.08628 0.0
H1398 H 0.12042 0.78734 0.98133 0.0
H1399 H 0.14346 0.78663 0.01483 0.0
H1400 H 0.11577 0.81696 0.95198 0.0
H1401 H 0.10331 0.85071 0.95245 0.0
C1402 C 0.94752 0.26352 0.84543 0.0
C1403 C 0.97148 0.28953 0.85779 0.0
C1404 C 0.94932 0.32023 0.82714 0.0
C1405 C 0.92483 0.29435 0.81523 0.0
N1406 N 0.90582 0.23905 0.80411 0.0
N1407 N 1.00003 0.33903 0.85349 0.0
C1408 C 0.92557 0.2652 0.82163 0.0
C1409 C 0.97395 0.31671 0.84629 0.0
N1410 N 0.94523 0.23771 0.85718 0.0
N1411 N 0.9485 0.3486 0.82189 0.0
H1412 H 1.01857 0.33717 0.8675 0.0
H1413 H 1.00435 0.35784 0.84308 0.0
H1414 H 0.9317 0.35236 0.80705 0.0
H1415 H 0.96371 0.36901 0.83386 0.0
H1416 H 0.9264 0.2194 0.85182 0.0
H1417 H 0.96152 0.23548 0.87392 0.0
H1418 H 0.90656 0.21676 0.8059 0.0
H1419 H 0.89078 0.23952 0.78515 0.0
C1420 C 0.64455 0.19866 0.54087 0.0
C1421 C 0.66181 0.21086 0.5712 0.0
C1422 C 0.66403 0.15851 0.57477 0.0
C1423 C 0.64155 0.14644 0.54821 0.0
N1424 N 0.60941 0.15493 0.50594 0.0
N1425 N 0.68891 0.20307 0.61742 0.0
C1426 C 0.63198 0.16635 0.53069 0.0
C1427 C 0.67244 0.19103 0.58801 0.0
N1428 N 0.64023 0.21815 0.52197 0.0
N1429 N 0.67718 0.13872 0.58723 0.0
H1430 H 0.69619 0.22682 0.62751 0.0
H1431 H 0.69406 0.18955 0.63262 0.0
H1432 H 0.67157 0.11477 0.57759 0.0
H1433 H 0.69543 0.14611 0.6049 0.0
H1434 H 0.63003 0.2105 0.49835 0.0
H1435 H 0.64981 0.24189 0.52892 0.0
H1436 H 0.59904 0.16899 0.49519 0.0
H1437 H 0.59951 0.13145 0.49733 0.0
C1438 C 0.6444 0.81554 0.42567 0.0
C1439 C 0.61425 0.80227 0.41239 0.0
C1440 C 0.62928 0.79307 0.35801 0.0
C1441 C 0.65945 0.80572 0.37131 0.0
N1442 N 0.69675 0.82298 0.41742 0.0
N1443 N 0.57871 0.77177 0.36719 0.0
C1444 C 0.66733 0.81496 0.40508 0.0
C1445 C 0.6069 0.78904 0.37888 0.0
N1446 N 0.65096 0.83021 0.45758 0.0
N1447 N 0.62192 0.78569 0.32543 0.0
H1448 H 0.56191 0.76779 0.3819 0.0
H1449 H 0.57268 0.75894 0.3435 0.0
H1450 H 0.6378 0.78715 0.30928 0.0
H1451 H 0.60004 0.78001 0.31442 0.0
H1452 H 0.67205 0.84333 0.46798 0.0
H1453 H 0.63481 0.83122 0.47343 0.0
H1454 H 0.70391 0.82649 0.44171 0.0
H1455 H 0.71412 0.82366 0.40302 0.0
C1456 C 0.12137 0.25146 0.4556 0.0
C1457 C 0.12205 0.28327 0.46827 0.0
C1458 C 0.1066 0.27181 0.51866 0.0
C1459 C 0.10324 0.23972 0.50482 0.0
N1460 N 0.10116 0.19843 0.45775 0.0
N1461 N 0.10891 0.32266 0.5091 0.0
C1462 C 0.10878 0.22936 0.47255 0.0
C1463 C 0.11293 0.29321 0.49909 0.0
N1464 N 0.13393 0.24246 0.42812 0.0
N1465 N 0.10459 0.28197 0.5507 0.0
H1466 H 0.11216 0.33869 0.495 0.0
H1467 H 0.09941 0.33017 0.52991 0.0
H1468 H 0.0999 0.267 0.56582 0.0
H1469 H 0.11009 0.30534 0.56281 0.0
H1470 H 0.13688 0.22006 0.41972 0.0
H1471 H 0.14412 0.258 0.41539 0.0
H1472 H 0.10196 0.18979 0.43331 0.0
H1473 H 0.09126 0.18158 0.46917 0.0
C1474 C 0.62061 0.29307 0.22788 0.0
C1475 C 0.59279 0.28462 0.23978 0.0
C1476 C 0.61861 0.27942 0.28919 0.0
C1477 C 0.6461 0.28661 0.27662 0.0
N1478 N 0.67435 0.30956 0.23924 0.0
N1479 N 0.56591 0.27931 0.28512 0.0
C1480 C 0.64742 0.29691 0.2479 0.0
C1481 C 0.59202 0.28094 0.27165 0.0
N1482 N 0.62165 0.29482 0.19664 0.0
N1483 N 0.61792 0.27005 0.31722 0.0
H1484 H 0.54649 0.28154 0.27301 0.0
H1485 H 0.56421 0.27898 0.30907 0.0
H1486 H 0.63733 0.27034 0.33128 0.0
H1487 H 0.59829 0.26087 0.32579 0.0
H1488 H 0.64111 0.29632 0.18549 0.0
H1489 H 0.6029 0.29247 0.18084 0.0
H1490 H 0.67638 0.32066 0.22051 0.0
H1491 H 0.69468 0.31172 0.25254 0.0
C1492 C 0.61579 0.93833 0.93454 0.0
C1493 C 0.60287 0.91094 0.94394 0.0
C1494 C 0.58068 0.94141 0.98645 0.0
C1495 C 0.5958 0.96901 0.9789 0.0
N1496 N 0.63341 0.99414 0.95085 0.0
N1497 N 0.57894 0.88729 0.98348 0.0
C1498 C 0.61502 0.96762 0.95439 0.0
C1499 C 0.587 0.91271 0.97126 0.0
N1500 N 0.62762 0.93645 0.906 0.0
N1501 N 0.55939 0.94237 1.00713 0.0
H1502 H 0.58407 0.86609 0.97372 0.0
H1503 H 0.56998 0.88811 1.00521 0.0
H1504 H 0.5536 0.96284 0.01826 0.0
H1505 H 0.5455 0.92254 0.01084 0.0
H1506 H 0.6344 0.95559 0.89648 0.0
H1507 H 0.62803 0.91548 0.89027 0.0
H1508 H 0.64997 0.99417 0.93547 0.0
H1509 H 0.63427 0.01591 0.96573 0.0
C1510 C 0.94245 0.74846 0.72168 0.0
C1511 C 0.95724 0.77214 0.70766 0.0
C1512 C 0.92703 0.80716 0.73312 0.0
C1513 C 0.91269 0.78377 0.74772 0.0
N1514 N 0.908 0.7338 0.75925 0.0
N1515 N 0.96495 0.82426 0.70045 0.0
C1516 C 0.92067 0.75477 0.7428 0.0
C1517 C 0.94997 0.8016 0.71366 0.0
N1518 N 0.94937 0.72006 0.71483 0.0
N1519 N 0.91752 0.83413 0.73649 0.0
H1520 H 0.9791 0.82017 0.68281 0.0
H1521 H 0.96425 0.8475 0.70751 0.0
H1522 H 0.90168 0.83972 0.75149 0.0
H1523 H 0.92383 0.85041 0.72319 0.0
H1524 H 0.93764 0.70071 0.72146 0.0
H1525 H 0.96644 0.71522 0.7012 0.0
H1526 H 0.91417 0.71306 0.7591 0.0
H1527 H 0.89224 0.73805 0.77502 0.0
C1528 C 0.13076 0.01671 0.87925 0.0
C1529 C 0.15267 0.04077 0.87177 0.0
C1530 C 0.14795 0.07305 0.9269 0.0
C1531 C 0.1237 0.0497 0.93303 0.0
N1532 N 0.08726 1.00273 0.90658 0.0
N1533 N 0.17783 0.09447 0.88839 0.0
C1534 C 0.11408 0.02247 0.90685 0.0
C1535 C 0.16006 0.06955 0.89576 0.0
N1536 N 0.12593 0.98745 0.85998 0.0
N1537 N 0.16046 0.09876 0.95088 0.0
H1538 H 0.18752 0.09276 0.86699 0.0
H1539 H 0.18106 0.11712 0.90219 0.0
H1540 H 0.15261 0.10389 0.97306 0.0
H1541 H 0.1804 0.11403 0.94973 0.0
H1542 H 0.11288 0.96813 0.86564 0.0
H1543 H 0.13771 0.98202 0.84037 0.0
H1544 H 0.07762 0.98421 0.88712 0.0
H1545 H 0.07253 1.00737 0.9234 0.0
C1546 C 0.84462 0.43604 0.59057 0.0
C1547 C 0.8273 0.42194 0.56029 0.0
C1548 C 0.82404 0.37052 0.57033 0.0
C1549 C 0.84072 0.38458 0.60084 0.0
N1550 N 0.85977 0.43056 0.6436 0.0
N1551 N 0.79314 0.37725 0.52597 0.0
C1552 C 0.84873 0.41734 0.61213 0.0
C1553 C 0.81461 0.3896 0.55171 0.0
N1554 N 0.85863 0.46678 0.59812 0.0
N1555 N 0.81839 0.3391 0.55844 0.0
H1556 H 0.78506 0.39093 0.51255 0.0
H1557 H 0.78114 0.35425 0.52017 0.0
H1558 H 0.82526 0.32427 0.57114 0.0
H1559 H 0.80916 0.32802 0.5349 0.0
H1560 H 0.87462 0.47712 0.61793 0.0
H1561 H 0.85593 0.48168 0.58358 0.0
H1562 H 0.86311 0.4542 0.65399 0.0
H1563 H 0.86291 0.41754 0.66013 0.0
C1564 C 0.51786 0.068 0.4027 0.0
C1565 C 0.48792 0.06614 0.40957 0.0
C1566 C 0.50197 0.06361 0.46442 0.0
C1567 C 0.53225 0.0668 0.4581 0.0
N1568 N 0.57005 0.07907 0.42388 0.0
N1569 N 0.45246 0.06887 0.44841 0.0
C1570 C 0.54054 0.071 0.42796 0.0
C1571 C 0.48037 0.06642 0.44098 0.0
N1572 N 0.52457 0.06653 0.37196 0.0
N1573 N 0.4933 0.05571 0.49184 0.0
H1574 H 0.4354 0.06934 0.43156 0.0
H1575 H 0.44694 0.07311 0.47187 0.0
H1576 H 0.508 0.05287 0.50966 0.0
H1577 H 0.47108 0.04933 0.49581 0.0
H1578 H 0.54512 0.06379 0.36462 0.0
H1579 H 0.50899 0.06645 0.35325 0.0
H1580 H 0.57754 0.08551 0.40351 0.0
H1581 H 0.58724 0.08213 0.44212 0.0
C1582 C 0.79506 0.76614 0.1245 0.0
C1583 C 0.82114 0.77311 0.10909 0.0
C1584 C 0.84958 0.79929 0.16202 0.0
C1585 C 0.82462 0.78859 0.17752 0.0
N1586 N 0.77483 0.75668 0.17293 0.0
N1587 N 0.87492 0.79049 0.11446 0.0
C1588 C 0.79761 0.77069 0.15861 0.0
C1589 C 0.84888 0.78821 0.12818 0.0
N1590 N 0.76766 0.75613 0.10675 0.0
N1591 N 0.8737 0.8209 0.17941 0.0
H1592 H 0.87583 0.78154 0.09011 0.0
H1593 H 0.89588 0.79827 0.12788 0.0
H1594 H 0.87467 0.83047 0.204 0.0
H1595 H 0.89129 0.8317 0.16884 0.0
H1596 H 0.74771 0.75365 0.11701 0.0
H1597 H 0.76471 0.7534 0.08193 0.0
H1598 H 0.75597 0.7407 0.15999 0.0
H1599 H 0.77598 0.75859 0.19762 0.0
C1600 C 0.12277 0.04195 0.68054 0.0
C1601 C 0.15169 0.03525 0.68392 0.0
C1602 C 0.15557 0.04114 0.6272 0.0
C1603 C 0.12526 0.04417 0.62271 0.0
N1604 N 0.07879 0.04153 0.6456 0.0
N1605 N 0.1939 0.02493 0.65711 0.0
C1606 C 0.10872 0.04313 0.64968 0.0
C1607 C 0.1676 0.03408 0.65628 0.0
N1608 N 0.10876 0.04843 0.70745 0.0
N1609 N 0.17361 0.04629 0.60409 0.0
H1610 H 0.20348 0.02027 0.67756 0.0
H1611 H 0.20503 0.01978 0.63697 0.0
H1612 H 0.1662 0.05204 0.58332 0.0
H1613 H 0.19651 0.04785 0.60689 0.0
H1614 H 0.08937 0.05674 0.70778 0.0
H1615 H 0.11834 0.04887 0.73024 0.0
H1616 H 0.06464 0.03699 0.66274 0.0
H1617 H 0.06745 0.04151 0.62384 0.0
C1618 C 0.81753 0.39071 0.41676 0.0
C1619 C 0.83418 0.42125 0.41822 0.0
C1620 C 0.85759 0.4006 0.37058 0.0
C1621 C 0.8398 0.37013 0.36771 0.0
N1622 N 0.80182 0.33647 0.38786 0.0
N1623 N 0.86363 0.45595 0.39152 0.0
C1624 C 0.81935 0.36541 0.39067 0.0
C1625 C 0.85244 0.42624 0.39375 0.0
N1626 N 0.80102 0.38547 0.44106 0.0
N1627 N 0.87959 0.40559 0.35129 0.0
H1628 H 0.85915 0.47525 0.40705 0.0
H1629 H 0.87442 0.46137 0.3723 0.0
H1630 H 0.88226 0.38936 0.33116 0.0
H1631 H 0.89616 0.42602 0.35602 0.0
H1632 H 0.79208 0.36353 0.4443 0.0
H1633 H 0.79698 0.40318 0.45898 0.0
H1634 H 0.78331 0.33211 0.40017 0.0
H1635 H 0.80533 0.31659 0.37248 0.0
C1636 C 0.48903 0.03892 0.2651 0.0
C1637 C 0.48225 0.06856 0.27387 0.0
C1638 C 0.51063 0.08493 0.23206 0.0
C1639 C 0.51481 0.0544 0.22143 0.0
N1640 N 0.50282 1.00067 0.22342 0.0
N1641 N 0.48131 0.11762 0.26152 0.0
C1642 C 0.50243 0.03087 0.23662 0.0
C1643 C 0.49161 0.09105 0.25623 0.0
N1644 N 0.48411 0.01899 0.28472 0.0
N1645 N 0.52545 0.10825 0.21973 0.0
H1646 H 0.46662 0.12257 0.27836 0.0
H1647 H 0.48495 0.13329 0.24707 0.0
H1648 H 0.53959 0.10468 0.20195 0.0
H1649 H 0.52576 0.13155 0.22904 0.0
H1650 H 0.49163 0.99856 0.28116 0.0
H1651 H 0.47526 0.02424 0.30639 0.0
H1652 H 0.49121 0.98215 0.23154 0.0
H1653 H 0.51239 0.99379 0.20244 0.0
C1654 C 0.85252 0.7436 0.90841 0.0
C1655 C 0.82747 0.74684 0.92562 0.0
C1656 C 0.81732 0.78428 0.89526 0.0
C1657 C 0.83881 0.77678 0.87445 0.0
N1658 N 0.87801 0.75033 0.86162 0.0
N1659 N 0.78398 0.76822 0.93278 0.0
C1660 C 0.85677 0.7567 0.8812 0.0
C1661 C 0.80952 0.76694 0.9186 0.0
N1662 N 0.87286 0.72899 0.91892 0.0
N1663 N 0.80478 0.80854 0.89326 0.0
H1664 H 0.77691 0.75547 0.94932 0.0
H1665 H 0.76841 0.77989 0.92608 0.0
H1666 H 0.81026 0.82194 0.87684 0.0
H1667 H 0.79131 0.81726 0.90984 0.0
H1668 H 0.89293 0.72799 0.90947 0.0
H1669 H 0.87114 0.72037 0.93941 0.0
H1670 H 0.89076 0.7344 0.86362 0.0
H1671 H 0.88224 0.76034 0.8423 0.0
C1672 C 0.95023 0.07658 0.05237 0.0
C1673 C 0.94031 0.09571 0.03383 0.0
C1674 C 0.98726 0.09694 1.00742 0.0
C1675 C 0.99648 0.07655 0.02473 0.0
N1676 N 0.98267 0.04211 0.05939 0.0
N1677 N 0.94673 0.11714 0.98768 0.0
C1678 C 0.97654 0.06472 0.04562 0.0
C1679 C 0.95819 0.10385 1.00968 0.0
N1680 N 0.93568 0.07119 0.07792 0.0
N1681 N 1.00636 0.11 0.98868 0.0
H1682 H 0.92528 0.12118 0.98749 0.0
H1683 H 0.95697 0.12097 0.9676 0.0
H1684 H 0.02666 0.10405 0.98457 0.0
H1685 H 1.00291 0.12808 0.97881 0.0
H1686 H 0.94386 0.06109 0.09504 0.0
H1687 H 0.9166 0.07915 0.08357 0.0
H1688 H 0.96772 0.03015 0.07193 0.0
H1689 H 1.00169 0.03344 0.05612 0.0
C1690 C 0.45466 0.46383 0.02977 0.0
C1691 C 0.44997 0.45951 0.06094 0.0
C1692 C 0.49728 0.49792 0.08279 0.0
C1693 C 0.50044 0.50403 0.05202 0.0
N1694 N 0.47775 0.49835 0.99829 0.0
N1695 N 0.46396 0.47729 0.11821 0.0
C1696 C 0.47765 0.48876 0.02622 0.0
C1697 C 0.47043 0.47807 0.08781 0.0
N1698 N 0.43866 0.44285 1.00322 0.0
N1699 N 0.52047 0.50955 0.10679 0.0
H1700 H 0.44442 0.46345 0.12281 0.0
H1701 H 0.47649 0.4925 0.13876 0.0
H1702 H 0.54055 0.52369 0.104 0.0
H1703 H 0.52075 0.50304 0.12852 0.0
H1704 H 0.44316 0.44324 0.97985 0.0
H1705 H 0.42337 0.42291 1.00459 0.0
H1706 H 0.46027 0.48991 0.97971 0.0
H1707 H 0.49372 0.51713 0.99522 0.0
C1708 C 0.39665 0.68218 0.8052 0.0
C1709 C 0.41075 0.66986 0.77781 0.0
C1710 C 0.39696 0.71311 0.7547 0.0
C1711 C 0.38171 0.72485 0.78149 0.0
N1712 N 0.36486 0.71557 0.83099 0.0
N1713 N 0.41792 0.67188 0.72357 0.0
C1714 C 0.3808 0.70757 0.80606 0.0
C1715 C 0.40902 0.68516 0.75202 0.0
N1716 N 0.39961 0.67057 0.83153 0.0
N1717 N 0.40036 0.72883 0.73113 0.0
H1718 H 0.42604 0.65178 0.72035 0.0
H1719 H 0.41436 0.67856 0.70229 0.0
H1720 H 0.39011 0.74687 0.72992 0.0
H1721 H 0.41477 0.72525 0.71371 0.0
H1722 H 0.39372 0.6802 0.85388 0.0
H1723 H 0.40978 0.65209 0.83134 0.0
H1724 H 0.35973 0.7024 0.84764 0.0
H1725 H 0.35523 0.73465 0.83397 0.0
C1726 C 0.23011 0.58004 0.51901 0.0
C1727 C 0.24674 0.59085 0.55015 0.0
C1728 C 0.19878 0.58922 0.57375 0.0
C1729 C 0.18197 0.57683 0.54286 0.0
N1730 N 0.18248 0.55385 0.4867 0.0
N1731 N 0.24566 0.59724 0.6071 0.0
C1732 C 0.19793 0.57036 0.51566 0.0
C1733 C 0.23055 0.59267 0.57739 0.0
N1734 N 0.2448 0.58013 0.49246 0.0
N1735 N 0.18473 0.59956 0.59967 0.0
H1736 H 0.2686 0.59888 0.61054 0.0
H1737 H 0.23508 0.59586 0.62759 0.0
H1738 H 0.16195 0.59888 0.59811 0.0
H1739 H 0.19615 0.61187 0.62204 0.0
H1740 H 0.23396 0.5765 0.46945 0.0
H1741 H 0.26798 0.58565 0.49368 0.0
H1742 H 0.19273 0.54569 0.46668 0.0
H1743 H 0.15936 0.54566 0.48354 0.0
C1744 C 0.85426 0.01933 0.74253 0.0
C1745 C 0.82313 1.00719 0.74151 0.0
C1746 C 0.83252 0.96449 0.76322 0.0
C1747 C 0.86368 0.97699 0.76501 0.0
N1748 N 0.90462 1.01186 0.75086 0.0
N1749 N 0.78232 0.96488 0.74344 0.0
C1750 C 0.87471 1.003 0.75274 0.0
C1751 C 0.81217 0.97853 0.74918 0.0
N1752 N 0.8641 0.04684 0.73444 0.0
N1753 N 0.82233 0.9402 0.77657 0.0
H1754 H 0.7664 0.97503 0.73457 0.0
H1755 H 0.77343 0.9423 0.74496 0.0
H1756 H 0.83618 0.92806 0.78583 0.0
H1757 H 0.80015 0.93305 0.7802 0.0
H1758 H 0.88633 0.05894 0.73811 0.0
H1759 H 0.84965 0.05824 0.72486 0.0
H1760 H 0.91405 0.02899 0.73965 0.0
H1761 H 0.91998 1.0004 0.75865 0.0
C1762 C 0.75939 0.90917 0.50279 0.0
C1763 C 0.77709 0.92166 0.53314 0.0
C1764 C 0.75275 0.96551 0.54317 0.0
C1765 C 0.73372 0.95189 0.51392 0.0
N1766 N 0.71505 0.90823 0.46867 0.0
N1767 N 0.78638 0.95814 0.58496 0.0
C1768 C 0.7359 0.92294 0.49456 0.0
C1769 C 0.77262 0.94889 0.5541 0.0
N1770 N 0.76582 0.88503 0.48116 0.0
N1771 N 0.75248 0.99475 0.56006 0.0
H1772 H 0.80057 0.94623 0.59409 0.0
H1773 H 0.78156 0.97582 0.60243 0.0
H1774 H 0.73812 1.00758 0.55299 0.0
H1775 H 0.76809 1.00731 0.57959 0.0
H1776 H 0.75604 0.87734 0.4574 0.0
H1777 H 0.78293 0.87434 0.48585 0.0
H1778 H 0.71356 0.88568 0.45546 0.0
H1779 H 0.69753 0.91756 0.46189 0.0
C1780 C 0.39018 0.44723 0.74491 0.0
C1781 C 0.40657 0.46866 0.77336 0.0
C1782 C 0.3938 0.42528 0.8016 0.0
C1783 C 0.37663 0.40411 0.77345 0.0
N1784 N 0.35508 0.39773 0.7193 0.0
N1785 N 0.41845 0.47852 0.83042 0.0
C1786 C 0.37377 0.41613 0.74553 0.0
C1787 C 0.40669 0.45756 0.80205 0.0
N1788 N 0.3913 0.45614 0.71667 0.0
N1789 N 0.3983 0.41438 0.82822 0.0
H1790 H 0.42702 0.50195 0.8317 0.0
H1791 H 0.41715 0.47361 0.85285 0.0
H1792 H 0.38835 0.39191 0.82946 0.0
H1793 H 0.41331 0.42675 0.84829 0.0
H1794 H 0.38329 0.44114 0.69426 0.0
H1795 H 0.40187 0.4785 0.71563 0.0
H1796 H 0.34916 0.40544 0.69931 0.0
H1797 H 0.34376 0.37512 0.71851 0.0
C1798 C 0.3023 0.6653 0.20552 0.0
C1799 C 0.29595 0.64932 0.22992 0.0
C1800 C 0.32422 0.69504 0.27014 0.0
C1801 C 0.32413 0.7127 0.24695 0.0
N1802 N 0.3116 0.71493 0.19206 0.0
N1803 N 0.29909 0.65022 0.28683 0.0
C1804 C 0.31335 0.69792 0.2143 0.0
C1805 C 0.30695 0.66421 0.2626 0.0
N1806 N 0.29795 0.64924 0.17402 0.0
N1807 N 0.34047 0.70802 0.29958 0.0
H1808 H 0.28586 0.62798 0.28323 0.0
H1809 H 0.30357 0.66186 0.31105 0.0
H1810 H 0.35329 0.73075 0.3058 0.0
H1811 H 0.34363 0.69536 0.31642 0.0
H1812 H 0.30472 0.65934 0.15542 0.0
H1813 H 0.29057 0.62514 0.16694 0.0
H1814 H 0.30044 0.7054 0.16897 0.0
H1815 H 0.31914 0.73891 0.19713 0.0
C1816 C 0.54731 0.79255 0.5621 0.0
C1817 C 0.53284 0.78215 0.53024 0.0
C1818 C 0.53467 0.72897 0.52964 0.0
C1819 C 0.55517 0.74041 0.55811 0.0
N1820 N 0.57769 0.78154 0.60443 0.0
N1821 N 0.49715 0.73988 0.49462 0.0
C1822 C 0.55992 0.7717 0.57571 0.0
C1823 C 0.52136 0.75004 0.51742 0.0
N1824 N 0.54757 0.82169 0.57948 0.0
N1825 N 0.52976 0.69869 0.51288 0.0
H1826 H 0.48548 0.75518 0.48777 0.0
H1827 H 0.48637 0.71659 0.48601 0.0
H1828 H 0.53869 0.68219 0.52101 0.0
H1829 H 0.51821 0.69037 0.48988 0.0
H1830 H 0.55637 0.83044 0.60348 0.0
H1831 H 0.53555 0.83573 0.57069 0.0
H1832 H 0.58497 0.80471 0.61683 0.0
H1833 H 0.5859 0.76622 0.61545 0.0
C1834 C 0.73496 0.31981 0.68412 0.0
C1835 C 0.70736 0.30445 0.69218 0.0
C1836 C 0.73334 0.29667 0.74013 0.0
C1837 C 0.76066 0.31295 0.73257 0.0
N1838 N 0.78554 0.34871 0.70372 0.0
N1839 N 0.67952 0.288 0.73337 0.0
C1840 C 0.76076 0.3275 0.70671 0.0
C1841 C 0.7063 0.29603 0.72202 0.0
N1842 N 0.7374 0.32498 0.65419 0.0
N1843 N 0.73313 0.2802 0.76309 0.0
H1844 H 0.65935 0.28866 0.72141 0.0
H1845 H 0.67773 0.28424 0.75628 0.0
H1846 H 0.75238 0.27935 0.77656 0.0
H1847 H 0.71399 0.26517 0.7668 0.0
H1848 H 0.75779 0.3332 0.6465 0.0
H1849 H 0.71987 0.31825 0.63576 0.0
H1850 H 0.78564 0.36251 0.68737 0.0
H1851 H 0.80502 0.3546 0.71966 0.0
C1852 C 1.01918 0.41367 0.03469 0.0
C1853 C 1.0042 0.40034 1.00335 0.0
C1854 C 1.00539 0.45137 0.99383 0.0
C1855 C 0.02338 0.4647 0.02377 0.0
N1856 N 0.03972 0.46074 0.07653 0.0
N1857 N 0.97427 0.40487 0.95772 0.0
C1858 C 0.0275 0.44645 0.04563 0.0
C1859 C 0.99409 0.4188 0.98462 0.0
N1860 N 0.02681 0.39492 0.05302 0.0
N1861 N 1.00116 0.46941 0.97325 0.0
H1862 H 0.96594 0.38087 0.95079 0.0
H1863 H 0.96409 0.41696 0.94412 0.0
H1864 H 1.00864 0.49342 0.97944 0.0
H1865 H 0.99142 0.46062 0.94955 0.0
H1866 H 0.04078 0.40294 0.07461 0.0
H1867 H 1.01941 0.37084 0.04599 0.0
H1868 H 0.04184 0.44906 0.09447 0.0
H1869 H 0.04562 0.48485 0.08482 0.0
C1870 C 0.03973 0.80135 0.1545 0.0
C1871 C 0.04324 0.77211 0.13708 0.0
C1872 C 0.99917 0.74622 0.15787 0.0
C1873 C 0.99857 0.775 0.1788 0.0
N1874 N 1.01984 0.82976 0.19954 0.0
N1875 N 0.02802 0.71617 0.12398 0.0
C1876 C 1.01917 0.80258 0.17767 0.0
C1877 C 0.0232 0.74434 0.1389 0.0
N1878 N 0.05541 0.82795 0.1481 0.0
N1879 N 0.97659 0.72081 0.15596 0.0
H1880 H 0.04546 0.71375 0.11006 0.0
H1881 H 1.01616 0.69517 0.1273 0.0
H1882 H 0.95878 0.72143 0.16969 0.0
H1883 H 0.9741 0.69991 0.13893 0.0
H1884 H 0.05162 0.84979 0.15766 0.0
H1885 H 0.07013 0.82791 0.13066 0.0
H1886 H 0.03664 0.84975 0.20236 0.0
H1887 H 1.00485 0.83179 0.21663 0.0
C1888 C 0.55717 0.3726 0.11875 0.0
C1889 C 0.55116 0.33978 0.1087 0.0
C1890 C 0.5533 0.34285 0.05256 0.0
C1891 C 0.56266 0.37559 0.06313 0.0
N1892 N 0.57735 0.42179 0.10648 0.0
N1893 N 0.5471 0.29337 0.06664 0.0
C1894 C 0.56559 0.39054 0.0963 0.0
C1895 C 0.54994 0.32475 0.07571 0.0
N1896 N 0.55384 0.38658 0.14955 0.0
N1897 N 0.54714 0.32914 0.02041 0.0
H1898 H 0.54457 0.27922 0.08273 0.0
H1899 H 0.54956 0.28159 0.04358 0.0
H1900 H 0.54987 0.3417 1.00284 0.0
H1901 H 0.53711 0.30574 0.0112 0.0
H1902 H 0.55484 0.4102 0.15744 0.0
H1903 H 0.54718 0.37412 0.16651 0.0
H1904 H 0.58323 0.43342 0.13058 0.0
H1905 H 0.58355 0.43588 0.09081 0.0
C1906 C 0.07766 0.32407 0.28118 0.0
C1907 C 0.07376 0.30703 0.30507 0.0
C1908 C 1.01965 0.29799 0.29477 0.0
C1909 C 0.02345 0.31635 0.27193 0.0
N1910 N 0.05441 0.3389 0.23656 0.0
N1911 N 0.04227 0.26937 0.32684 0.0
C1912 C 0.05202 0.32651 0.26268 0.0
C1913 C 0.04505 0.291 0.30906 0.0
N1914 N 0.10554 0.33962 0.27771 0.0
N1915 N 0.99227 0.28927 0.30471 0.0
H1916 H 0.06078 0.26388 0.33745 0.0
H1917 H 0.02199 0.25479 0.32829 0.0
H1918 H 0.97285 0.29377 0.29508 0.0
H1919 H 0.98904 0.27929 0.32415 0.0
H1920 H 0.10947 0.35542 0.26344 0.0
H1921 H 0.12487 0.33799 0.2905 0.0
H1922 H 0.07435 0.34452 0.22686 0.0
H1923 H 0.03573 0.34083 0.22281 0.0
C1924 C 0.04655 0.68547 0.59794 0.0
C1925 C 0.07057 0.7059 0.61973 0.0
C1926 C 0.10192 0.66876 0.60499 0.0
C1927 C 0.0769 0.64695 0.58603 0.0
N1928 N 0.02344 0.63225 0.57109 0.0
N1929 N 0.11889 0.71376 0.64959 0.0
C1930 C 0.04862 0.65461 0.58437 0.0
C1931 C 0.09765 0.69663 0.6249 0.0
N1932 N 0.02229 0.69579 0.58896 0.0
N1933 N 0.12998 0.66364 0.60296 0.0
H1934 H 0.11618 0.73371 0.66555 0.0
H1935 H 0.13771 0.70634 0.65631 0.0
H1936 H 0.13435 0.64419 0.58764 0.0
H1937 H 0.14921 0.68027 0.61392 0.0
H1938 H 1.00566 0.68263 0.57062 0.0
H1939 H 1.02025 0.71854 0.59731 0.0
H1940 H 1.00201 0.63609 0.57224 0.0
H1941 H 0.02364 0.60905 0.56208 0.0
C1942 C 0.72606 0.86691 0.83646 0.0
C1943 C 0.71532 0.84808 0.85751 0.0
C1944 C 0.74955 0.81494 0.83984 0.0
C1945 C 0.76306 0.83613 0.82244 0.0
N1946 N 0.76671 0.8843 0.80692 0.0
N1947 N 0.72182 0.80826 0.88448 0.0
C1948 C 0.75216 0.86284 0.82169 0.0
C1949 C 0.72839 0.82314 0.86061 0.0
N1950 N 0.71046 0.88733 0.82901 0.0
N1951 N 0.75672 0.78682 0.83638 0.0
H1952 H 0.70802 0.8149 0.90174 0.0
H1953 H 0.73263 0.7916 0.88936 0.0
H1954 H 0.77247 0.78012 0.82174 0.0
H1955 H 0.74526 0.76922 0.84592 0.0
H1956 H 0.7157 0.89933 0.81138 0.0
H1957 H 0.69043 0.88996 0.83791 0.0
H1958 H 0.76169 0.90586 0.80865 0.0
H1959 H 0.78518 0.88134 0.79481 0.0
C1960 C 0.52815 0.53866 0.66974 0.0
C1961 C 0.5155 0.56416 0.68393 0.0
C1962 C 0.52958 0.58523 0.63576 0.0
C1963 C 0.54551 0.56165 0.62384 0.0
N1964 N 0.56315 0.51854 0.63514 0.0
N1965 N 0.50814 0.61405 0.68035 0.0
C1966 C 0.54536 0.53905 0.64239 0.0
C1967 C 0.51725 0.58793 0.66668 0.0
N1968 N 0.52283 0.51297 0.68183 0.0
N1969 N 0.52483 0.60457 0.61685 0.0
H1970 H 0.4986 0.61651 0.70186 0.0
H1971 H 0.51199 0.63396 0.67167 0.0
H1972 H 0.53255 0.60327 0.59447 0.0
H1973 H 0.51075 0.61975 0.62183 0.0
H1974 H 0.52825 0.49225 0.67096 0.0
H1975 H 0.50991 0.51121 0.70067 0.0
H1976 H 0.56698 0.50384 0.64954 0.0
H1977 H 0.57669 0.51851 0.61665 0.0
C1978 C 0.82305 0.15746 0.94537 0.0
C1979 C 0.83565 0.17034 0.9779 0.0
C1980 C 0.84246 0.22286 0.96953 0.0
C1981 C 0.82929 0.20997 0.9373 0.0
N1982 N 0.81239 0.16571 0.8923 0.0
N1983 N 0.86385 0.2145 0.01884 0.0
C1984 C 0.82129 0.17742 0.9245 0.0
C1985 C 0.84758 0.2028 0.98928 0.0
N1986 N 0.81236 0.12609 0.93466 0.0
N1987 N 0.84907 0.25433 0.98158 0.0
H1988 H 0.86789 0.20084 0.03427 0.0
H1989 H 0.87571 0.23744 0.02712 0.0
H1990 H 0.84681 0.26985 0.96754 0.0
H1991 H 0.85502 0.26516 1.00586 0.0
H1992 H 0.79931 0.11539 0.91278 0.0
H1993 H 0.81584 0.11055 0.94826 0.0
H1994 H 0.80938 0.14243 0.88064 0.0
H1995 H 0.80996 0.17967 0.87654 0.0
C1996 C 0.16151 0.50717 0.13243 0.0
C1997 C 0.17503 0.53292 0.15814 0.0
C1998 C 0.14663 0.5655 0.13689 0.0
C1999 C 0.13207 0.53938 0.11209 0.0
N2000 N 0.12096 0.48418 0.08945 0.0
N2001 N 0.17576 0.58458 0.18907 0.0
C2002 C 0.1381 0.50981 0.11085 0.0
C2003 C 0.16622 0.56153 0.16162 0.0
N2004 N 0.17191 0.48066 0.12784 0.0
N2005 N 0.14275 0.59434 0.13612 0.0
H2006 H 0.19001 0.58263 0.20789 0.0
H2007 H 0.16747 0.60451 0.19449 0.0
H2008 H 0.12801 0.59815 0.11885 0.0
H2009 H 0.15572 0.61473 0.15118 0.0
H2010 H 0.16535 0.46239 0.10744 0.0
H2011 H 0.18895 0.47789 0.1433 0.0
H2012 H 0.12225 0.46159 0.08936 0.0
H2013 H 0.1035 0.48536 0.07353 0.0
C2014 C 0.86805 0.83809 0.43968 0.0
C2015 C 0.85688 0.86476 0.45203 0.0
C2016 C 0.83934 0.86503 0.39683 0.0
C2017 C 0.84801 0.83684 0.38463 0.0
N2018 N 0.86587 0.79352 0.39522 0.0
N2019 N 0.82493 0.89841 0.44238 0.0
C2020 C 0.86101 0.82247 0.40631 0.0
C2021 C 0.84042 0.8766 0.43058 0.0
N2022 N 0.88655 0.82848 0.45936 0.0
N2023 N 0.8316 0.88186 0.3763 0.0
H2024 H 0.82432 0.90704 0.46687 0.0
H2025 H 0.81002 0.90535 0.42789 0.0
H2026 H 0.83175 0.87517 0.35149 0.0
H2027 H 0.82822 0.90416 0.38418 0.0
H2028 H 0.89799 0.81137 0.45102 0.0
H2029 H 0.89246 0.83937 0.48367 0.0
H2030 H 0.87239 0.78047 0.41027 0.0
H2031 H 0.86078 0.78141 0.37115 0.0
C2032 C 0.50868 0.53567 0.87935 0.0
C2033 C 0.51168 0.56435 0.86962 0.0
C2034 C 0.54455 0.58959 0.92219 0.0
C2035 C 0.54077 0.56099 0.93225 0.0
N2036 N 0.51244 0.50829 0.92175 0.0
N2037 N 0.52957 0.6196 0.8856 0.0
C2038 C 0.52103 0.53453 0.91101 0.0
C2039 C 0.52858 0.59154 0.89242 0.0
N2040 N 0.4939 0.50882 0.85801 0.0
N2041 N 0.56491 0.61489 0.94027 0.0
H2042 H 0.51923 0.6217 0.86419 0.0
H2043 H 0.5384 0.64077 0.902 0.0
H2044 H 0.57708 0.61437 0.96125 0.0
H2045 H 0.57167 0.63551 0.9333 0.0
H2046 H 0.49454 0.48683 0.86092 0.0
H2047 H 0.48203 0.50846 0.83645 0.0
H2048 H 0.49546 0.48943 0.90972 0.0
H2049 H 0.52012 0.50645 0.9444 0.0
C2050 C 0.85541 0.23228 0.13189 0.0
C2051 C 0.84586 0.20008 0.13031 0.0
C2052 C 0.8306 0.21341 0.18478 0.0
C2053 C 0.83682 0.24546 0.18458 0.0
N2054 N 0.8518 0.2849 0.15596 0.0
N2055 N 0.82285 0.1598 0.15509 0.0
C2056 C 0.84844 0.25472 0.1576 0.0
C2057 C 0.8333 0.19062 0.15684 0.0
N2058 N 0.87228 0.24145 0.10929 0.0
N2059 N 0.82332 0.20465 0.2122 0.0
H2060 H 0.82655 0.14224 0.13672 0.0
H2061 H 0.80928 0.15154 0.17116 0.0
H2062 H 0.81955 0.21989 0.23264 0.0
H2063 H 0.82305 0.18264 0.21558 0.0
H2064 H 0.88241 0.26447 0.11052 0.0
H2065 H 0.87892 0.22569 0.09115 0.0
H2066 H 0.85714 0.2926 0.13554 0.0
H2067 H 0.84646 0.3018 0.174 0.0
C2068 C 0.20506 0.60924 0.33032 0.0
C2069 C 0.19593 0.58779 0.3 0.0
C2070 C 0.1494 0.56539 0.31895 0.0
C2071 C 0.15752 0.58835 0.34831 0.0
N2072 N 0.19024 0.63549 0.38025 0.0
N2073 N 0.15672 0.55032 0.26296 0.0
C2074 C 0.18452 0.61135 0.35349 0.0
C2075 C 0.16734 0.56715 0.29359 0.0
N2076 N 0.23372 0.6266 0.33755 0.0
N2077 N 0.12496 0.54145 0.31558 0.0
H2078 H 0.16878 0.55183 0.24351 0.0
H2079 H 0.13485 0.53736 0.25627 0.0
H2080 H 0.11101 0.53952 0.33353 0.0
H2081 H 0.11993 0.52219 0.29606 0.0
H2082 H 0.24243 0.64034 0.36035 0.0
H2083 H 0.24968 0.62521 0.32153 0.0
H2084 H 0.20796 0.65477 0.38367 0.0
H2085 H 0.1758 0.63758 0.39792 0.0
C2086 C 0.83654 0.88494 0.67253 0.0
C2087 C 0.85166 0.87108 0.64728 0.0
C2088 C 0.85461 0.82938 0.67486 0.0
C2089 C 0.83914 0.84304 0.69987 0.0
N2090 N 0.80988 0.8799 0.7188 0.0
N2091 N 0.87105 0.8275 0.62196 0.0
C2092 C 0.82866 0.8698 0.69765 0.0
C2093 C 0.85917 0.84236 0.6476 0.0
N2094 N 0.82977 0.91282 0.67263 0.0
N2095 N 0.86658 0.80498 0.67798 0.0
H2096 H 0.87682 0.83707 0.60274 0.0
H2097 H 0.87344 0.80479 0.61859 0.0
H2098 H 0.86334 0.7943 0.69687 0.0
H2099 H 0.88158 0.79664 0.66325 0.0
H2100 H 0.82278 0.92636 0.69232 0.0
H2101 H 0.83229 0.9232 0.65337 0.0
H2102 H 0.79846 0.89686 0.71644 0.0
H2103 H 0.80345 0.86925 0.73717 0.0
C2104 C 0.70655 0.49701 0.53646 0.0
C2105 C 0.73155 0.51672 0.52769 0.0
C2106 C 0.69758 0.55134 0.52023 0.0
C2107 C 0.67408 0.53393 0.53367 0.0
N2108 N 0.6603 0.49304 0.56081 0.0
N2109 N 0.75083 0.56595 0.51584 0.0
C2110 C 0.67977 0.50753 0.54339 0.0
C2111 C 0.72697 0.54475 0.52074 0.0
N2112 N 0.70764 0.46729 0.53678 0.0
N2113 N 0.69169 0.57336 0.5054 0.0
H2114 H 0.77237 0.56225 0.51608 0.0
H2115 H 0.74967 0.58823 0.51434 0.0
H2116 H 0.6708 0.57847 0.50351 0.0
H2117 H 0.70665 0.58423 0.49206 0.0
H2118 H 0.68921 0.45096 0.53991 0.0
H2119 H 0.7257 0.45788 0.52999 0.0
H2120 H 0.66521 0.47629 0.57198 0.0
H2121 H 0.64109 0.5003 0.56738 0.0
C2122 C 0.22012 0.1264 0.51705 0.0
C2123 C 0.21841 0.15098 0.50203 0.0
C2124 C 0.16397 0.1311 0.48978 0.0
C2125 C 0.16572 0.10638 0.50448 0.0
N2126 N 0.19581 0.07675 0.52624 0.0
N2127 N 0.19006 0.17289 0.46808 0.0
C2128 C 0.19398 0.10269 0.51592 0.0
C2129 C 0.19067 0.15213 0.48657 0.0
N2130 N 0.24617 0.12686 0.53442 0.0
N2131 N 0.13663 0.13479 0.47938 0.0
H2132 H 0.20927 0.18816 0.4648 0.0
H2133 H 0.17118 0.17324 0.4537 0.0
H2134 H 0.11675 0.11879 0.47929 0.0
H2135 H 0.13342 0.15437 0.47224 0.0
H2136 H 0.24793 0.11188 0.54916 0.0
H2137 H 0.26573 0.1438 0.5363 0.0
H2138 H 0.2159 0.07095 0.53157 0.0
H2139 H 0.17715 0.05956 0.52701 0.0
C2140 C 0.24865 0.91083 0.74963 0.0
C2141 C 0.25818 0.94073 0.77232 0.0
C2142 C 0.30112 0.91884 0.79138 0.0
C2143 C 0.29004 0.88785 0.77071 0.0
N2144 N 0.25082 0.85625 0.72997 0.0
N2145 N 0.29312 0.97013 0.81776 0.0
C2146 C 0.26305 0.88469 0.75002 0.0
C2147 C 0.28452 0.94373 0.79364 0.0
N2148 N 0.22604 0.90768 0.72613 0.0
N2149 N 0.32802 0.92501 0.80943 0.0
H2150 H 0.28262 0.98855 0.81948 0.0
H2151 H 0.30908 0.97302 0.8371 0.0
H2152 H 0.33974 0.90806 0.81032 0.0
H2153 H 0.33969 0.9472 0.82169 0.0
H2154 H 0.21924 0.88859 0.7066 0.0
H2155 H 0.21581 0.92574 0.72442 0.0
H2156 H 0.22951 0.8501 0.71753 0.0
H2157 H 0.26169 0.83808 0.72651 0.0
C2158 C 0.44229 0.03911 0.0506 0.0
C2159 C 0.42338 0.0259 0.02104 0.0
C2160 C 0.4688 0.02479 0.99306 0.0
C2161 C 0.48777 0.03889 0.02256 0.0
N2162 N 0.49148 0.06687 0.07797 0.0
N2163 N 0.41924 1.0131 0.96337 0.0
C2164 C 0.47414 0.04816 0.0509 0.0
C2165 C 0.43692 0.02121 0.99205 0.0
N2166 N 0.42978 0.04252 0.07877 0.0
N2167 N 0.48096 1.01289 0.96624 0.0
H2168 H 0.3962 1.01073 0.96197 0.0
H2169 H 0.42757 1.01194 0.9413 0.0
H2170 H 0.50372 0.01388 0.96608 0.0
H2171 H 0.46828 0.99942 0.94497 0.0
H2172 H 0.44214 0.04785 0.10126 0.0
H2173 H 0.40674 0.03848 0.07949 0.0
H2174 H 0.4828 0.07702 0.09838 0.0
H2175 H 0.51449 0.07489 0.07897 0.0
C2176 C 0.81384 0.59564 0.83377 0.0
C2177 C 0.84443 0.61005 0.84451 0.0
C2178 C 0.83893 0.65564 0.82581 0.0
C2179 C 0.80818 0.64184 0.81611 0.0
N2180 N 0.76478 0.60234 0.81725 0.0
N2181 N 0.88334 0.65686 0.85953 0.0
C2182 C 0.79507 0.61305 0.82241 0.0
C2183 C 0.85601 0.64113 0.84343 0.0
N2184 N 0.80318 0.56486 0.83209 0.0
N2185 N 0.85232 0.68162 0.81661 0.0
H2186 H 0.89603 0.64711 0.8736 0.0
H2187 H 0.89191 0.6804 0.86163 0.0
H2188 H 0.84075 0.69366 0.80421 0.0
H2189 H 0.87542 0.68957 0.81879 0.0
H2190 H 0.78206 0.55246 0.82098 0.0
H2191 H 0.81608 0.55091 0.8395 0.0
H2192 H 0.75362 0.58296 0.82433 0.0
H2193 H 0.75064 0.61451 0.80845 0.0
C2194 C 0.8984 0.68662 0.05542 0.0
C2195 C 0.87145 0.66508 0.04062 0.0
C2196 C 0.89473 0.62175 0.04321 0.0
C2197 C 0.92215 0.64327 0.0563 0.0
N2198 N 0.95178 0.69579 0.0702 0.0
N2199 N 0.84471 0.61264 0.01598 0.0
C2200 C 0.92448 0.67563 0.06103 0.0
C2201 C 0.86984 0.63275 0.03322 0.0
N2202 N 0.89872 0.71747 0.0653 0.0
N2203 N 0.89225 0.59088 0.04133 0.0
H2204 H 0.82604 0.61996 1.00852 0.0
H2205 H 0.84312 0.58906 1.00682 0.0
H2206 H 0.91009 0.58193 0.04798 0.0
H2207 H 0.87211 0.57436 0.0354 0.0
H2208 H 0.91654 0.73387 0.07966 0.0
H2209 H 0.88024 0.72649 0.06115 0.0
H2210 H 0.95557 0.71932 0.07087 0.0
H2211 H 0.9713 0.6886 0.07483 0.0
C2212 C 0.25224 0.17037 0.80308 0.0
C2213 C 0.26067 0.14379 0.78424 0.0
C2214 C 0.2979 0.18175 0.7633 0.0
C2215 C 0.29019 0.20837 0.78309 0.0
N2216 N 0.26351 0.22628 0.82704 0.0
N2217 N 0.29551 0.12578 0.74996 0.0
C2218 C 0.26825 0.20199 0.80431 0.0
C2219 C 0.28487 0.15017 0.76568 0.0
N2220 N 0.22823 0.16544 0.81981 0.0
N2221 N 0.31644 0.18637 0.74046 0.0
H2222 H 0.28628 0.10298 0.75068 0.0
H2223 H 0.31487 0.12825 0.73868 0.0
H2224 H 0.32566 0.20832 0.73727 0.0
H2225 H 0.32066 0.16852 0.72279 0.0
H2226 H 0.21787 0.18285 0.83026 0.0
H2227 H 0.21766 0.14342 0.82189 0.0
H2228 H 0.25059 0.22362 0.84564 0.0
H2229 H 0.27483 0.24918 0.82925 0.0
C2230 C 0.37842 0.95405 0.34737 0.0
C2231 C 0.37257 0.96896 0.32272 0.0
C2232 C 0.34126 0.92059 0.2896 0.0
C2233 C 0.34783 0.90543 0.31366 0.0
N2234 N 0.36559 0.9081 0.36822 0.0
N2235 N 0.34118 0.96943 0.27599 0.0
C2236 C 0.36386 0.92244 0.34367 0.0
C2237 C 0.35146 0.95315 0.29569 0.0
N2238 N 0.39931 0.96927 0.37306 0.0
N2239 N 0.32677 0.90365 0.2603 0.0
H2240 H 0.34796 0.99352 0.28037 0.0
H2241 H 0.32384 0.95957 0.25742 0.0
H2242 H 0.31862 0.87972 0.25522 0.0
H2243 H 0.32453 0.91297 0.2405 0.0
H2244 H 0.40717 0.95845 0.38968 0.0
H2245 H 0.41021 0.9925 0.37694 0.0
H2246 H 0.37482 0.91975 0.3916 0.0
H2247 H 0.35529 0.88482 0.36577 0.0
C2248 C 0.62782 0.32676 0.51024 0.0
C2249 C 0.64241 0.34014 0.54193 0.0
C2250 C 0.6304 0.3896 0.54089 0.0
C2251 C 0.61567 0.37637 0.50924 0.0
N2252 N 0.60654 0.33552 0.46086 0.0
N2253 N 0.66597 0.38599 0.58292 0.0
C2254 C 0.61663 0.34597 0.49284 0.0
C2255 C 0.64657 0.37222 0.55566 0.0
N2256 N 0.62286 0.29552 0.49762 0.0
N2257 N 0.62717 0.41779 0.55782 0.0
H2258 H 0.67838 0.37368 0.59406 0.0
H2259 H 0.67204 0.40991 0.59237 0.0
H2260 H 0.6154 0.43155 0.54825 0.0
H2261 H 0.63422 0.42648 0.5823 0.0
H2262 H 0.6093 0.28395 0.47624 0.0
H2263 H 0.63082 0.28074 0.50952 0.0
H2264 H 0.60901 0.31455 0.44677 0.0
H2265 H 0.59806 0.34925 0.44781 0.0
C2266 C 0.45051 0.77133 0.34762 0.0
C2267 C 0.45588 0.78994 0.3796 0.0
C2268 C 0.42101 0.82 0.36621 0.0
C2269 C 0.41269 0.79911 0.33554 0.0
N2270 N 0.41599 0.7513 0.29891 0.0
N2271 N 0.44002 0.82622 0.42139 0.0
C2272 C 0.42647 0.77374 0.32662 0.0
C2273 C 0.43926 0.81259 0.38952 0.0
N2274 N 0.46895 0.75229 0.33687 0.0
N2275 N 0.41237 0.84752 0.37279 0.0
H2276 H 0.45183 0.81999 0.43941 0.0
H2277 H 0.42624 0.84094 0.42999 0.0
H2278 H 0.40034 0.85469 0.35566 0.0
H2279 H 0.42015 0.86469 0.39394 0.0
H2280 H 0.46797 0.74082 0.31281 0.0
H2281 H 0.4869 0.75002 0.35141 0.0
H2282 H 0.42308 0.73064 0.29326 0.0
H2283 H 0.39841 0.75196 0.28284 0.0
C2284 C 0.16449 0.68517 0.0618 0.0
C2285 C 0.14593 0.70189 0.04929 0.0
C2286 C 0.1148 0.65378 0.0152 0.0
C2287 C 0.12983 0.637 0.03235 0.0
N2288 N 0.17008 0.63544 0.06998 0.0
N2289 N 0.10466 0.70363 0.01313 0.0
C2290 C 0.15537 0.65234 0.05473 0.0
C2291 C 0.12179 0.68665 0.02516 0.0
N2292 N 0.1907 0.70082 0.08039 0.0
N2293 N 0.09351 0.63831 0.98997 0.0
H2294 H 0.1101 0.72783 0.01889 0.0
H2295 H 0.08447 0.69401 0.99856 0.0
H2296 H 0.08741 0.61428 0.98248 0.0
H2297 H 0.0836 0.6491 0.97469 0.0
H2298 H 0.20644 0.69011 0.08859 0.0
H2299 H 0.19791 0.72489 0.08533 0.0
H2300 H 0.18656 0.64517 0.08941 0.0
H2301 H 0.16499 0.61123 0.0637 0.0
C2302 C 0.11785 0.31064 0.88993 0.0
C2303 C 0.11565 0.33975 0.90918 0.0
C2304 C 0.16051 0.36549 0.88951 0.0
C2305 C 0.16081 0.33688 0.86807 0.0
N2306 N 0.13731 0.28322 0.84392 0.0
N2307 N 0.1319 0.39561 0.92369 0.0
C2308 C 0.1388 0.30972 0.86718 0.0
C2309 C 0.13627 0.36742 0.90814 0.0
N2310 N 0.10078 0.2837 0.89422 0.0
N2311 N 0.18365 0.39064 0.89238 0.0
H2312 H 0.11414 0.39807 0.93712 0.0
H2313 H 0.14433 0.41667 0.92112 0.0
H2314 H 0.20165 0.39004 0.87894 0.0
H2315 H 0.18627 0.41134 0.90977 0.0
H2316 H 0.10399 0.26184 0.88364 0.0
H2317 H 0.08512 0.28305 0.91059 0.0
H2318 H 0.11959 0.26384 0.83962 0.0
H2319 H 0.15251 0.28141 0.82704 0.0
C2320 C 0.6394 0.77755 0.98804 0.0
C2321 C 0.61756 0.78656 0.96983 0.0
C2322 C 0.57779 0.75032 0.98644 0.0
C2323 C 0.59951 0.74281 1.00625 0.0
N2324 N 0.65022 0.75324 0.03082 0.0
N2325 N 0.56589 0.78665 0.95695 0.0
C2326 C 0.63012 0.75771 1.00858 0.0
C2327 C 0.58669 0.77441 0.97052 0.0
N2328 N 0.66895 0.78669 0.98454 0.0
N2329 N 0.54886 0.73368 0.98184 0.0
H2330 H 0.57151 0.80459 0.94543 0.0
H2331 H 0.54328 0.78105 0.95967 0.0
H2332 H 0.54135 0.71613 0.99339 0.0
H2333 H 0.5328 0.73561 0.96473 0.0
H2334 H 0.68561 0.77807 0.9944 0.0
H2335 H 0.67664 0.80088 0.96941 0.0
H2336 H 0.6723 0.76585 0.03598 0.0
H2337 H 0.64417 0.73885 0.04624 0.0
C2338 C 0.12959 0.83073 0.76266 0.0
C2339 C 0.10153 0.81234 0.76534 0.0
C2340 C 0.12465 0.79315 0.80704 0.0
C2341 C 0.1528 0.80425 0.79729 0.0
N2342 N 0.18286 0.83553 0.76706 0.0
N2343 N 0.07066 0.78126 0.79446 0.0
C2344 C 0.15569 0.82442 0.7762 0.0
C2345 C 0.09846 0.79587 0.78966 0.0
N2346 N 0.13098 0.85409 0.74728 0.0
N2347 N 0.12331 0.77942 0.83223 0.0
H2348 H 0.05126 0.78411 0.78279 0.0
H2349 H 0.06674 0.76601 0.80931 0.0
H2350 H 0.14254 0.77751 0.84506 0.0
H2351 H 0.10376 0.77229 0.842 0.0
H2352 H 0.15069 0.86995 0.74664 0.0
H2353 H 0.11172 0.85961 0.73843 0.0
H2354 H 0.18546 0.84717 0.74879 0.0
H2355 H 0.20275 0.83176 0.7764 0.0
C2356 C 0.1186 0.42592 0.48019 0.0
C2357 C 0.10271 0.41211 0.4492 0.0
C2358 C 0.07706 0.45475 0.45429 0.0
C2359 C 0.09458 0.46971 0.48419 0.0
N2360 N 0.13563 0.47243 0.52322 0.0
N2361 N 0.07142 0.41615 0.40391 0.0
C2362 C 0.11634 0.45609 0.49654 0.0
C2363 C 0.08319 0.42729 0.43544 0.0
N2364 N 0.13498 0.40977 0.49455 0.0
N2365 N 0.05385 0.46617 0.44442 0.0
H2366 H 0.07586 0.39644 0.38908 0.0
H2367 H 0.05962 0.42802 0.39157 0.0
H2368 H 0.04848 0.4861 0.45768 0.0
H2369 H 0.03827 0.45442 0.42459 0.0
H2370 H 0.14411 0.41703 0.51855 0.0
H2371 H 0.13755 0.38782 0.48323 0.0
H2372 H 0.15417 0.46528 0.53118 0.0
H2373 H 0.13458 0.49447 0.536 0.0
C2374 C 0.41707 0.23571 0.19419 0.0
C2375 C 0.44601 0.24611 0.21133 0.0
C2376 C 0.42478 0.26286 0.2613 0.0
C2377 C 0.39665 0.2576 0.24319 0.0
N2378 N 0.3654 0.23932 0.19224 0.0
N2379 N 0.47822 0.26856 0.26104 0.0
C2380 C 0.39241 0.24345 0.20967 0.0
C2381 C 0.45006 0.25902 0.24498 0.0
N2382 N 0.41331 0.21856 0.16311 0.0
N2383 N 0.42704 0.27118 0.29411 0.0
H2384 H 0.49698 0.26468 0.24997 0.0
H2385 H 0.48323 0.28147 0.28478 0.0
H2386 H 0.40865 0.27378 0.30652 0.0
H2387 H 0.44627 0.27283 0.30904 0.0
H2388 H 0.39253 0.20761 0.15017 0.0
H2389 H 0.43112 0.21301 0.15108 0.0
H2390 H 0.36193 0.23288 0.16725 0.0
H2391 H 0.34668 0.24436 0.20257 0.0
C2392 C 0.63611 0.56708 0.38184 0.0
C2393 C 0.65805 0.54899 0.37495 0.0
C2394 C 0.64523 0.52985 0.42459 0.0
C2395 C 0.62532 0.55021 0.43308 0.0
N2396 N 0.60411 0.59004 0.41893 0.0
N2397 N 0.68505 0.5153 0.39332 0.0
C2398 C 0.62161 0.56928 0.41135 0.0
C2399 C 0.66264 0.53073 0.39722 0.0
N2400 N 0.62806 0.58151 0.35913 0.0
N2401 N 0.64793 0.50952 0.44302 0.0
H2402 H 0.69725 0.51465 0.37368 0.0
H2403 H 0.69284 0.50484 0.4103 0.0
H2404 H 0.63772 0.50942 0.4639 0.0
H2405 H 0.65879 0.49154 0.43672 0.0
H2406 H 0.6103 0.59238 0.36007 0.0
H2407 H 0.63735 0.57995 0.33749 0.0
H2408 H 0.60334 0.60766 0.40731 0.0
H2409 H 0.59146 0.59079 0.4382 0.0
C2410 C 0.31923 0.89972 0.06899 0.0
C2411 C 0.33357 0.93119 0.0721 0.0
C2412 C 0.35902 0.93318 0.12466 0.0
C2413 C 0.34847 0.90062 0.11882 0.0
N2414 N 0.31957 0.85211 0.08522 0.0
N2415 N 0.3679 0.97828 0.10255 0.0
C2416 C 0.32863 0.88367 0.09104 0.0
C2417 C 0.35332 0.94826 0.1001 0.0
N2418 N 0.29609 0.88549 0.0453 0.0
N2419 N 0.37423 0.94966 0.15382 0.0
H2420 H 0.36343 0.99091 0.08618 0.0
H2421 H 0.38563 0.99035 0.12005 0.0
H2422 H 0.37931 0.93922 0.17209 0.0
H2423 H 0.37968 0.97379 0.16093 0.0
H2424 H 0.28282 0.86348 0.04348 0.0
H2425 H 0.28819 0.897 0.02931 0.0
H2426 H 0.30798 0.83808 0.06359 0.0
H2427 H 0.32538 0.83956 0.10123 0.0
C2428 C 0.97454 0.55078 0.9284 0.0
C2429 C 0.98629 0.56192 0.90246 0.0
C2430 C 0.0372 0.5656 0.92585 0.0
C2431 C 0.02556 0.55684 0.95305 0.0
N2432 N 0.98334 0.54587 0.98274 0.0
N2433 N 0.02851 0.58558 0.87921 0.0
C2434 C 0.99432 0.55114 0.9552 0.0
C2435 C 1.01758 0.57088 0.90192 0.0
N2436 N 0.94469 0.53791 0.92661 0.0
N2437 N 0.06694 0.56881 0.92276 0.0
H2438 H 1.01475 0.59045 0.86176 0.0
H2439 H 0.05102 0.59561 0.87944 0.0
H2440 H 0.08241 0.56667 0.94037 0.0
H2441 H 0.07605 0.57154 0.90176 0.0
H2442 H 0.93549 0.52589 0.94294 0.0
H2443 H 0.92926 0.53658 0.90727 0.0
H2444 H 0.96139 0.54588 0.98714 0.0
H2445 H 0.99646 0.54363 1.00228 0.0
C2446 C 0.34562 0.28833 0.62301 0.0
C2447 C 0.31835 0.2702 0.60464 0.0
C2448 C 0.29756 0.2647 0.65501 0.0
C2449 C 0.3236 0.2855 0.67328 0.0
N2450 N 0.36989 0.32223 0.67399 0.0
N2451 N 0.26624 0.24678 0.6039 0.0
C2452 C 0.34691 0.29878 0.65707 0.0
C2453 C 0.29371 0.25999 0.62089 0.0
N2454 N 0.37085 0.29433 0.6083 0.0
N2455 N 0.27704 0.24825 0.66998 0.0
H2456 H 0.26228 0.24397 0.57916 0.0
H2457 H 0.24686 0.2417 0.61475 0.0
H2458 H 0.27937 0.25017 0.69469 0.0
H2459 H 0.2593 0.23039 0.65754 0.0
H2460 H 0.39194 0.30435 0.62096 0.0
H2461 H 0.37138 0.28655 0.58368 0.0
H2462 H 0.38579 0.33502 0.66305 0.0
H2463 H 0.37143 0.33107 0.69877 0.0
C2464 C 0.63285 0.56109 0.18356 0.0
C2465 C 0.6521 0.54043 0.18577 0.0
C2466 C 0.64716 0.52821 0.12511 0.0
C2467 C 0.62439 0.54537 0.12305 0.0
N2468 N 0.59158 0.57224 0.15377 0.0
N2469 N 0.67369 0.5007 0.15597 0.0
C2470 C 0.61633 0.56021 0.1533 0.0
C2471 C 0.65818 0.52309 0.15571 0.0
N2472 N 0.63102 0.5829 0.21051 0.0
N2473 N 0.65969 0.51788 0.09807 0.0
H2474 H 0.68219 0.49656 0.17722 0.0
H2475 H 0.67593 0.4847 0.13526 0.0
H2476 H 0.65387 0.52217 0.076 0.0
H2477 H 0.67819 0.50812 0.09832 0.0
H2478 H 0.61992 0.60058 0.21008 0.0
H2479 H 0.64367 0.58573 0.23241 0.0
H2480 H 0.58279 0.58033 0.17492 0.0
H2481 H 0.57768 0.57067 0.13314 0.0
C2482 C 0.31919 0.8868 0.92095 0.0
C2483 C 0.33541 0.91754 0.92294 0.0
C2484 C 0.35761 0.89859 0.87383 0.0
C2485 C 0.33998 0.86796 0.87032 0.0
N2486 N 0.30267 0.83323 0.89015 0.0
N2487 N 0.36416 0.95364 0.89719 0.0
C2488 C 0.32022 0.86229 0.89369 0.0
C2489 C 0.35303 0.92357 0.89827 0.0
N2490 N 0.30399 0.88066 0.94588 0.0
N2491 N 0.3789 0.90434 0.85391 0.0
H2492 H 0.36023 0.97252 0.91386 0.0
H2493 H 0.37437 0.95989 0.87798 0.0
H2494 H 0.38097 0.88865 0.83304 0.0
H2495 H 0.39544 0.92479 0.85879 0.0
H2496 H 0.295 0.8584 0.94824 0.0
H2497 H 0.30158 0.89794 0.96536 0.0
H2498 H 0.28476 0.8284 0.90317 0.0
H2499 H 0.30543 0.81384 0.87339 0.0
C2500 C 0.96092 0.57389 0.73475 0.0
C2501 C 0.9729 0.58971 0.76681 0.0
C2502 C 0.02377 0.59101 0.75301 0.0
C2503 C 1.01177 0.57511 0.72101 0.0
N2504 N 0.97007 0.55628 0.67941 0.0
N2505 N 1.0151 0.61816 0.80575 0.0
C2506 C 0.98064 0.5681 0.71124 0.0
C2507 C 1.00419 0.60001 0.77565 0.0
N2508 N 0.93067 0.56378 0.72708 0.0
N2509 N 0.05378 0.59633 0.76196 0.0
H2510 H 1.00148 0.62427 0.82337 0.0
H2511 H 0.0375 0.62905 0.81277 0.0
H2512 H 0.06887 0.59086 0.74577 0.0
H2513 H 0.0637 0.60447 0.78563 0.0
H2514 H 0.92045 0.54872 0.70538 0.0
H2515 H 0.91554 0.56948 0.74315 0.0
H2516 H 0.94803 0.55358 0.67011 0.0
H2517 H 0.98383 0.55104 0.66162 0.0
C2518 C 0.34416 0.23096 0.39599 0.0
C2519 C 0.32187 0.2374 0.41636 0.0
C2520 C 0.31067 0.27378 0.385 0.0
C2521 C 0.32985 0.26397 0.36218 0.0
N2522 N 0.36225 0.23012 0.34398 0.0
N2523 N 0.28064 0.26184 0.4268 0.0
C2524 C 0.34594 0.24174 0.36719 0.0
C2525 C 0.30439 0.2582 0.4101 0.0
N2526 N 0.3645 0.21554 0.40481 0.0
N2527 N 0.29891 0.29858 0.38318 0.0
H2528 H 0.27476 0.2505 0.44479 0.0
H2529 H 0.26513 0.27393 0.42087 0.0
H2530 H 0.30334 0.31073 0.36552 0.0
H2531 H 0.28727 0.30893 0.40086 0.0
H2532 H 0.38291 0.21266 0.39265 0.0
H2533 H 0.36485 0.20853 0.42629 0.0
H2534 H 0.37161 0.21125 0.3444 0.0
H2535 H 0.36445 0.2378 0.32295 0.0
C2536 C 0.46047 0.61233 0.51698 0.0
C2537 C 0.43956 0.59834 0.53573 0.0
C2538 C 0.47437 0.56459 0.54364 0.0
C2539 C 0.49528 0.57855 0.52482 0.0
N2540 N 0.50488 0.61197 0.48884 0.0
N2541 N 0.42499 0.55722 0.56222 0.0
C2542 C 0.48732 0.60148 0.51033 0.0
C2543 C 0.446 0.57313 0.54734 0.0
N2544 N 0.45459 0.6363 0.50527 0.0
N2545 N 0.48234 0.54439 0.5599 0.0
H2546 H 0.40498 0.56356 0.56685 0.0
H2547 H 0.42622 0.53637 0.56779 0.0
H2548 H 0.50199 0.53682 0.55754 0.0
H2549 H 0.47066 0.53681 0.57762 0.0
H2550 H 0.4702 0.65081 0.49575 0.0
H2551 H 0.43401 0.64235 0.50585 0.0
H2552 H 0.49938 0.62621 0.47468 0.0
H2553 H 0.52405 0.60424 0.48301 0.0
C2554 C 0.97917 0.95592 0.5713 0.0
C2555 C 0.95101 0.95733 0.55703 0.0
C2556 C 0.97471 1.00594 0.54313 0.0
C2557 C 1.00327 1.00204 0.55332 0.0
N2558 N 0.03321 0.9742 0.57818 0.0
N2559 N 0.92177 0.98309 0.52824 0.0
C2560 C 1.00559 0.97733 0.5679 0.0
C2561 C 0.94863 0.98253 0.54321 0.0
N2562 N 0.98039 0.93452 0.58889 0.0
N2563 N 0.97248 0.03187 0.53294 0.0
H2564 H 0.90197 0.96728 0.5286 0.0
H2565 H 0.91916 0.99811 0.5138 0.0
H2566 H 0.99094 0.04864 0.53081 0.0
H2567 H 0.95237 0.03806 0.5288 0.0
H2568 H 0.99959 0.93358 0.60233 0.0
H2569 H 0.96138 0.91908 0.59232 0.0
H2570 H 0.03706 0.95499 0.58565 0.0
H2571 H 0.0528 0.99058 0.57827 0.0
C2572 C 0.90976 0.18542 0.25257 0.0
C2573 C 0.91132 0.17026 0.27848 0.0
C2574 C 0.88152 0.2083 0.30642 0.0
C2575 C 0.88251 0.2254 0.28168 0.0
N2576 N 0.90123 0.22888 0.23122 0.0
N2577 N 0.90009 0.17139 0.33224 0.0
C2578 C 0.89776 0.21339 0.25498 0.0
C2579 C 0.89724 0.18284 0.30577 0.0
N2580 N 0.91879 0.17198 0.22425 0.0
N2581 N 0.86564 0.21656 0.33133 0.0
H2582 H 0.91012 0.15284 0.3322 0.0
H2583 H 0.89424 0.18121 0.35454 0.0
H2584 H 0.85624 0.23578 0.33429 0.0
H2585 H 0.86039 0.2035 0.34806 0.0
H2586 H 0.91533 0.17851 0.20287 0.0
H2587 H 0.92695 0.15191 0.22127 0.0
H2588 H 0.91569 0.22516 0.21389 0.0
H2589 H 0.89092 0.24682 0.22971 0.0
C2590 C 0.73212 0.11681 0.04591 0.0
C2591 C 0.74859 0.09372 0.0475 0.0
C2592 C 0.70022 0.05451 0.0367 0.0
C2593 C 0.68394 0.07822 0.03892 0.0
N2594 N 0.68497 0.13267 0.04939 0.0
N2595 N 0.74762 0.04053 0.04684 0.0
C2596 C 0.70012 0.10951 0.04431 0.0
C2597 C 0.7324 0.06247 0.0432 0.0
N2598 N 0.74711 0.14588 0.04506 0.0
N2599 N 0.6849 0.0242 0.02767 0.0
H2600 H 0.77085 0.04535 0.05089 0.0
H2601 H 0.7373 0.01815 0.04786 0.0
H2602 H 0.66167 0.01766 0.02326 0.0
H2603 H 0.69515 1.00565 0.02212 0.0
H2604 H 0.73658 0.16275 0.04018 0.0
H2605 H 0.77025 0.15233 0.04614 0.0
H2606 H 0.69539 0.15609 0.05752 0.0
H2607 H 0.66176 0.12844 0.04808 0.0
C2608 C 0.33991 0.52857 0.2777 0.0
C2609 C 0.30902 0.51496 0.26837 0.0
C2610 C 0.31628 0.46594 0.27793 0.0
C2611 C 0.34613 0.48071 0.2912 0.0
N2612 N 0.38591 0.5267 0.30706 0.0
N2613 N 0.26662 0.47237 0.26483 0.0
C2614 C 0.35789 0.51224 0.292 0.0
C2615 C 0.29684 0.48401 0.26967 0.0
N2616 N 0.35225 0.55657 0.27179 0.0
N2617 N 0.30663 0.43451 0.27268 0.0
H2618 H 0.25141 0.485 0.2594 0.0
H2619 H 0.25641 0.45121 0.2692 0.0
H2620 H 0.32019 0.42031 0.27831 0.0
H2621 H 0.28601 0.42223 0.26014 0.0
H2622 H 0.37511 0.56627 0.27526 0.0
H2623 H 0.33995 0.56881 0.26045 0.0
H2624 H 0.39446 0.55054 0.31161 0.0
H2625 H 0.39987 0.51514 0.31715 0.0
C2626 C 0.26661 0.43911 0.05012 0.0
C2627 C 0.27179 0.41245 0.02871 0.0
C2628 C 0.22679 0.41026 0.99355 0.0
C2629 C 0.2246 0.43945 0.01226 0.0
N2630 N 0.24522 0.48409 0.05617 0.0
N2631 N 0.25898 0.37566 0.97661 0.0
C2632 C 0.24527 0.45457 0.04 0.0
C2633 C 0.25238 0.39869 0.99953 0.0
N2634 N 0.28095 0.44888 0.08072 0.0
N2635 N 0.20401 0.39316 0.97051 0.0
H2636 H 0.27786 0.36685 0.97898 0.0
H2637 H 0.24734 0.36749 0.95364 0.0
H2638 H 0.18462 0.40064 0.96605 0.0
H2639 H 0.20297 0.37035 0.95827 0.0
H2640 H 0.27582 0.46633 0.09823 0.0
H2641 H 0.29549 0.43729 0.08976 0.0
H2642 H 0.26185 0.49741 0.07443 0.0
H2643 H 0.23009 0.49632 0.04951 0.0
C2644 C 0.91442 0.95484 0.30113 0.0
C2645 C 0.90737 0.96842 0.27533 0.0
C2646 C 0.8704 0.91751 0.25058 0.0
C2647 C 0.87713 0.90425 0.27674 0.0
N2648 N 0.90223 0.91389 0.32995 0.0
N2649 N 0.87507 0.96285 0.22745 0.0
C2650 C 0.89828 0.92406 0.30274 0.0
C2651 C 0.88414 0.9497 0.25081 0.0
N2652 N 0.93732 0.97136 0.32426 0.0
N2653 N 0.85175 0.89871 0.2245 0.0
H2654 H 0.88477 0.98558 0.22683 0.0
H2655 H 0.85666 0.95243 0.21034 0.0
H2656 H 0.84149 0.87573 0.22352 0.0
H2657 H 0.84796 0.90494 0.20302 0.0
H2658 H 0.94688 0.96201 0.3412 0.0
H2659 H 0.94776 0.99438 0.32564 0.0
H2660 H 0.91435 0.92783 0.35133 0.0
H2661 H 0.89122 0.89205 0.33208 0.0
C2662 C 0.80278 0.16081 0.75861 0.0
C2663 C 0.79426 0.14539 0.72563 0.0
C2664 C 0.81165 0.19398 0.70996 0.0
C2665 C 0.82062 0.20921 0.7428 0.0
N2666 N 0.8313 0.20643 0.7976 0.0
N2667 N 0.79813 0.14505 0.66992 0.0
C2668 C 0.81837 0.19233 0.76685 0.0
C2669 C 0.80114 0.1613 0.70128 0.0
N2670 N 0.79443 0.14616 0.78222 0.0
N2671 N 0.81131 0.21078 0.68732 0.0
H2672 H 0.79107 0.12093 0.66285 0.0
H2673 H 0.80551 0.15506 0.65146 0.0
H2674 H 0.81841 0.23485 0.69267 0.0
H2675 H 0.80166 0.20111 0.66367 0.0
H2676 H 0.79632 0.15761 0.80639 0.0
H2677 H 0.78368 0.1229 0.77776 0.0
H2678 H 0.83343 0.19449 0.81533 0.0
H2679 H 0.84234 0.22975 0.80477 0.0
loop_
_geom_bond_atom_site_label_1
_geom_bond_atom_site_label_2
_geom_bond_distance
_geom_bond_site_symmetry_2
_ccdc_geom_bond_type
C0 O1 1.160 . S
C0 O7 1.185 . S
O1 C0 1.160 . S
O2 Zn3 1.899 . S
O2 C10 1.284 . S
Zn3 O2 1.899 . S
Zn3 O4 2.032 . S
Zn3 O7 2.086 . S
Zn3 O12 1.977 . S
O4 Zn3 2.032 . S
O4 C8 1.278 . S
C5 O6 1.203 . S
C5 O12 1.267 . S
O6 C5 1.203 . S
O7 C0 1.185 . S
O7 Zn3 2.086 . S
C8 O4 1.278 . S
C8 O9 1.211 . S
O9 C8 1.211 . S
C10 O2 1.284 . S
C10 O11 1.273 . S
O11 C10 1.273 . S
O12 Zn3 1.977 . S
O12 C5 1.267 . S
C13 O14 1.160 . S
C13 O20 1.185 . S
O14 C13 1.160 . S
O15 Zn16 1.899 . S
O15 C23 1.284 . S
Zn16 O15 1.899 . S
Zn16 O17 2.032 . S
Zn16 O20 2.086 . S
Zn16 O25 1.977 1_655 S
O17 Zn16 2.032 . S
O17 C21 1.278 1_655 S
C18 O19 1.203 . S
C18 O25 1.267 . S
O19 C18 1.203 . S
O20 C13 1.185 . S
O20 Zn16 2.086 . S
C21 O17 1.278 1_455 S
C21 O22 1.211 . S
O22 C21 1.211 . S
C23 O15 1.284 . S
C23 O24 1.273 1_655 S
O24 C23 1.273 1_455 S
O25 Zn16 1.977 1_455 S
O25 C18 1.267 . S
C26 O27 1.160 . S
C26 O33 1.185 . S
O27 C26 1.160 . S
O28 Zn29 1.899 . S
O28 C36 1.284 . S
Zn29 O28 1.899 . S
Zn29 O30 2.032 . S
Zn29 O33 2.086 . S
Zn29 O38 1.977 . S
O30 Zn29 2.032 . S
O30 C34 1.278 . S
C31 O32 1.203 . S
C31 O38 1.267 . S
O32 C31 1.203 . S
O33 C26 1.185 . S
O33 Zn29 2.086 . S
C34 O30 1.278 . S
C34 O35 1.211 . S
O35 C34 1.211 . S
C36 O28 1.284 . S
C36 O37 1.273 . S
O37 C36 1.273 . S
O38 Zn29 1.977 . S
O38 C31 1.267 . S
C39 O40 1.160 . S
C39 O46 1.185 . S
O40 C39 1.160 . S
O41 Zn42 1.899 . S
O41 C49 1.284 . S
Zn42 O41 1.899 . S
Zn42 O43 2.032 . S
Zn42 O46 2.086 . S
Zn42 O51 1.977 . S
O43 Zn42 2.032 . S
O43 C47 1.278 . S
C44 O45 1.203 . S
C44 O51 1.267 . S
O45 C44 1.203 . S
O46 C39 1.185 . S
O46 Zn42 2.086 . S
C47 O43 1.278 . S
C47 O48 1.211 . S
O48 C47 1.211 . S
C49 O41 1.284 . S
C49 O50 1.273 . S
O50 C49 1.273 . S
O51 Zn42 1.977 . S
O51 C44 1.267 . S
C52 O53 1.160 . S
C52 O59 1.185 . S
O53 C52 1.160 . S
O54 Zn55 1.899 . S
O54 C62 1.284 . S
Zn55 O54 1.899 . S
Zn55 O56 2.032 . S
Zn55 O59 2.086 . S
Zn55 O64 1.977 . S
O56 Zn55 2.032 . S
O56 C60 1.278 . S
C57 O58 1.203 . S
C57 O64 1.267 . S
O58 C57 1.203 . S
O59 C52 1.185 . S
O59 Zn55 2.086 . S
C60 O56 1.278 . S
C60 O61 1.211 . S
O61 C60 1.211 . S
C62 O54 1.284 . S
C62 O63 1.273 . S
O63 C62 1.273 . S
O64 Zn55 1.977 . S
O64 C57 1.267 . S
C65 O66 1.160 . S
C65 O72 1.185 . S
O66 C65 1.160 . S
O67 Zn68 1.899 . S
O67 C75 1.284 . S
Zn68 O67 1.899 . S
Zn68 O69 2.032 . S
Zn68 O72 2.086 . S
Zn68 O77 1.977 . S
O69 Zn68 2.032 . S
O69 C73 1.278 . S
C70 O71 1.203 . S
C70 O77 1.267 . S
O71 C70 1.203 . S
O72 C65 1.185 . S
O72 Zn68 2.086 . S
C73 O69 1.278 . S
C73 O74 1.211 . S
O74 C73 1.211 . S
C75 O67 1.284 . S
C75 O76 1.273 . S
O76 C75 1.273 . S
O77 Zn68 1.977 . S
O77 C70 1.267 . S
C78 O79 1.160 . S
C78 O85 1.185 . S
O79 C78 1.160 . S
O80 Zn81 1.899 . S
O80 C88 1.284 . S
Zn81 O80 1.899 . S
Zn81 O82 2.032 . S
Zn81 O85 2.086 . S
Zn81 O90 1.977 . S
O82 Zn81 2.032 . S
O82 C86 1.278 . S
C83 O84 1.203 . S
C83 O90 1.267 . S
O84 C83 1.203 . S
O85 C78 1.185 . S
O85 Zn81 2.086 . S
C86 O82 1.278 . S
C86 O87 1.211 . S
O87 C86 1.211 . S
C88 O80 1.284 . S
C88 O89 1.273 . S
O89 C88 1.273 . S
O90 Zn81 1.977 . S
O90 C83 1.267 . S
C91 O92 1.160 . S
C91 O98 1.185 . S
O92 C91 1.160 . S
O93 Zn94 1.899 . S
O93 C101 1.284 . S
Zn94 O93 1.899 . S
Zn94 O95 2.032 . S
Zn94 O98 2.086 . S
Zn94 O103 1.977 1_455 S
O95 Zn94 2.032 . S
O95 C99 1.278 . S
C96 O97 1.203 . S
C96 O103 1.267 . S
O97 C96 1.203 . S
O98 C91 1.185 . S
O98 Zn94 2.086 . S
C99 O95 1.278 . S
C99 O100 1.182 1_455 S
O100 C99 1.182 1_655 S
C101 O93 1.284 . S
C101 O102 1.273 . S
O102 C101 1.273 . S
O103 Zn94 1.977 1_655 S
O103 C96 1.267 . S
C104 O105 1.160 . S
C104 O111 1.185 . S
O105 C104 1.160 . S
O106 Zn107 1.901 1_565 S
O106 C114 1.289 . S
Zn107 O106 1.901 1_545 S
Zn107 O108 2.032 . S
Zn107 O111 2.086 . S
Zn107 O116 1.977 1_545 S
O108 Zn107 2.032 . S
O108 C112 1.278 . S
C109 O110 1.203 . S
C109 O116 1.267 . S
O110 C109 1.203 . S
O111 C104 1.185 . S
O111 Zn107 2.086 . S
C112 O108 1.278 . S
C112 O113 1.211 1_545 S
O113 C112 1.211 1_565 S
C114 O106 1.289 . S
C114 O115 1.273 . S
O115 C114 1.273 . S
O116 Zn107 1.977 1_565 S
O116 C109 1.267 . S
C117 O118 1.160 . S
C117 O124 1.185 . S
O118 C117 1.160 . S
O119 Zn120 1.899 . S
O119 C127 1.284 . S
Zn120 O119 1.899 . S
Zn120 O121 2.032 . S
Zn120 O124 2.086 . S
Zn120 O129 1.977 . S
O121 Zn120 2.032 . S
O121 C125 1.278 . S
C122 O123 1.203 . S
C122 O129 1.267 . S
O123 C122 1.203 . S
O124 C117 1.185 . S
O124 Zn120 2.086 . S
C125 O121 1.278 . S
C125 O126 1.211 . S
O126 C125 1.211 . S
C127 O119 1.284 . S
C127 O128 1.273 . S
O128 C127 1.273 . S
O129 Zn120 1.977 . S
O129 C122 1.267 . S
C130 O131 1.160 . S
C130 O137 1.185 . S
O131 C130 1.160 . S
O132 Zn133 1.899 . S
O132 C140 1.284 . S
Zn133 O132 1.899 . S
Zn133 O134 2.032 . S
Zn133 O137 2.086 1_545 S
Zn133 O142 1.977 . S
O134 Zn133 2.032 . S
O134 C138 1.278 . S
C135 O136 1.203 . S
C135 O142 1.267 . S
O136 C135 1.203 . S
O137 C130 1.185 . S
O137 Zn133 2.086 1_565 S
C138 O134 1.278 . S
C138 O139 1.211 . S
O139 C138 1.211 . S
C140 O132 1.284 . S
C140 O141 1.273 . S
O141 C140 1.273 . S
O142 Zn133 1.977 . S
O142 C135 1.267 . S
C143 O144 1.160 . S
C143 O150 1.185 . S
O144 C143 1.160 . S
O145 Zn146 1.899 . S
O145 C153 1.284 . S
Zn146 O145 1.899 . S
Zn146 O147 2.032 1_554 S
Zn146 O150 2.086 . S
Zn146 O155 1.977 . S
O147 Zn146 2.032 1_556 S
O147 C151 1.278 . S
C148 O149 1.203 . S
C148 O155 1.267 . S
O149 C148 1.203 . S
O150 C143 1.185 . S
O150 Zn146 2.086 . S
C151 O147 1.278 . S
C151 O152 1.211 . S
O152 C151 1.211 . S
C153 O145 1.284 . S
C153 O154 1.273 . S
O154 C153 1.273 . S
O155 Zn146 1.977 . S
O155 C148 1.267 . S
C156 O157 1.160 . S
C156 O163 1.185 . S
O157 C156 1.160 . S
O158 Zn159 1.899 . S
O158 C166 1.284 . S
Zn159 O158 1.899 . S
Zn159 O160 2.032 1_554 S
Zn159 O163 2.086 . S
Zn159 O168 1.977 . S
O160 Zn159 2.032 1_556 S
O160 C164 1.278 . S
C161 O162 1.203 . S
C161 O168 1.267 . S
O162 C161 1.203 . S
O163 C156 1.185 . S
O163 Zn159 2.086 . S
C164 O160 1.278 . S
C164 O165 1.211 . S
O165 C164 1.211 . S
C166 O158 1.284 . S
C166 O167 1.273 . S
O167 C166 1.273 . S
O168 Zn159 1.977 . S
O168 C161 1.267 . S
C169 O170 1.160 . S
C169 O176 1.185 . S
O170 C169 1.160 . S
O171 Zn172 1.899 . S
O171 C179 1.284 . S
Zn172 O171 1.899 . S
Zn172 O173 2.032 . S
Zn172 O176 2.086 . S
Zn172 O181 1.977 . S
O173 Zn172 2.032 . S
O173 C177 1.278 1_554 S
C174 O175 1.203 . S
C174 O181 1.267 . S
O175 C174 1.203 . S
O176 C169 1.185 . S
O176 Zn172 2.086 . S
C177 O173 1.278 1_556 S
C177 O178 1.211 . S
O178 C177 1.211 . S
C179 O171 1.284 . S
C179 O180 1.273 . S
O180 C179 1.273 . S
O181 Zn172 1.977 . S
O181 C174 1.267 . S
C182 O183 1.160 . S
C182 O189 1.185 . S
O183 C182 1.160 . S
O184 Zn185 1.899 . S
O184 C192 1.284 . S
Zn185 O184 1.899 . S
Zn185 O186 2.032 . S
Zn185 O189 2.086 . S
Zn185 O194 1.977 . S
O186 Zn185 2.032 . S
O186 C190 1.278 . S
C187 O188 1.203 . S
C187 O194 1.267 . S
O188 C187 1.203 . S
O189 C182 1.185 . S
O189 Zn185 2.086 . S
C190 O186 1.278 . S
C190 O191 1.211 . S
O191 C190 1.211 . S
C192 O184 1.284 . S
C192 O193 1.273 . S
O193 C192 1.273 . S
O194 Zn185 1.977 . S
O194 C187 1.267 . S
C195 O196 1.160 . S
C195 O202 1.185 . S
O196 C195 1.160 . S
O197 Zn198 1.899 . S
O197 C205 1.284 . S
Zn198 O197 1.899 . S
Zn198 O199 2.032 . S
Zn198 O202 2.086 . S
Zn198 O207 1.977 . S
O199 Zn198 2.032 . S
O199 C203 1.278 . S
C200 O201 1.203 . S
C200 O207 1.267 . S
O201 C200 1.203 . S
O202 C195 1.185 . S
O202 Zn198 2.086 . S
C203 O199 1.278 . S
C203 O204 1.211 . S
O204 C203 1.211 . S
C205 O197 1.284 . S
C205 O206 1.273 . S
O206 C205 1.273 . S
O207 Zn198 1.977 . S
O207 C200 1.267 . S
C208 O209 1.160 . S
C208 O215 1.185 . S
O209 C208 1.160 . S
O210 Zn211 1.899 . S
O210 C218 1.284 . S
Zn211 O210 1.899 . S
Zn211 O212 2.032 . S
Zn211 O215 2.086 . S
Zn211 O220 1.977 . S
O212 Zn211 2.032 . S
O212 C216 1.278 . S
C213 O214 1.195 1_545 S
C213 O220 1.267 . S
O214 C213 1.195 1_565 S
O215 C208 1.185 . S
O215 Zn211 2.086 . S
C216 O212 1.278 . S
C216 O217 1.211 . S
O217 C216 1.211 . S
C218 O210 1.284 . S
C218 O219 1.273 . S
O219 C218 1.273 . S
O220 Zn211 1.977 . S
O220 C213 1.267 . S
C221 O222 1.160 . S
C221 O228 1.185 . S
O222 C221 1.160 . S
O223 Zn224 1.899 . S
O223 C231 1.284 . S
Zn224 O223 1.899 . S
Zn224 O225 2.032 . S
Zn224 O228 2.086 . S
Zn224 O233 1.977 . S
O225 Zn224 2.032 . S
O225 C229 1.278 . S
C226 O227 1.203 . S
C226 O233 1.267 . S
O227 C226 1.203 . S
O228 C221 1.185 . S
O228 Zn224 2.086 . S
C229 O225 1.278 . S
C229 O230 1.211 . S
O230 C229 1.211 . S
C231 O223 1.284 . S
C231 O232 1.273 . S
O232 C231 1.273 . S
O233 Zn224 1.977 . S
O233 C226 1.267 . S
C234 O235 1.160 . S
C234 O241 1.185 . S
O235 C234 1.160 . S
O236 Zn237 1.899 . S
O236 C244 1.284 . S
Zn237 O236 1.899 . S
Zn237 O238 2.032 . S
Zn237 O241 2.086 . S
Zn237 O246 1.977 . S
O238 Zn237 2.032 . S
O238 C242 1.278 . S
C239 O240 1.203 . S
C239 O246 1.267 . S
O240 C239 1.203 . S
O241 C234 1.185 . S
O241 Zn237 2.086 . S
C242 O238 1.278 . S
C242 O243 1.211 . S
O243 C242 1.211 . S
C244 O236 1.284 . S
C244 O245 1.273 . S
O245 C244 1.273 . S
O246 Zn237 1.977 . S
O246 C239 1.267 . S
C247 O248 1.160 . S
C247 O254 1.185 . S
O248 C247 1.160 . S
O249 Zn250 1.899 . S
O249 C257 1.284 . S
Zn250 O249 1.899 . S
Zn250 O251 2.032 . S
Zn250 O254 2.086 . S
Zn250 O259 1.977 . S
O251 Zn250 2.032 . S
O251 C255 1.278 . S
C252 O253 1.203 . S
C252 O259 1.267 . S
O253 C252 1.203 . S
O254 C247 1.185 . S
O254 Zn250 2.086 . S
C255 O251 1.278 . S
C255 O256 1.211 . S
O256 C255 1.211 . S
C257 O249 1.284 . S
C257 O258 1.273 . S
O258 C257 1.273 . S
O259 Zn250 1.977 . S
O259 C252 1.267 . S
C260 O261 1.160 . S
C260 O267 1.185 . S
O261 C260 1.160 . S
O262 Zn263 1.899 . S
O262 C270 1.284 . S
Zn263 O262 1.899 . S
Zn263 O264 2.032 1_554 S
Zn263 O267 2.086 . S
Zn263 O272 1.978 . S
O264 Zn263 2.032 1_556 S
O264 C268 1.278 . S
C265 O266 1.203 . S
C265 O272 1.271 . S
O266 C265 1.203 . S
O267 C260 1.185 . S
O267 Zn263 2.086 . S
C268 O264 1.278 . S
C268 O269 1.211 . S
O269 C268 1.211 . S
C270 O262 1.284 . S
C270 O271 1.273 . S
O271 C270 1.273 . S
O272 Zn263 1.978 . S
O272 C265 1.271 . S
C273 O274 1.160 . S
C273 O280 1.185 . S
O274 C273 1.160 . S
O275 Zn276 1.899 . S
O275 C283 1.284 . S
Zn276 O275 1.899 . S
Zn276 O277 2.032 . S
Zn276 O280 2.086 . S
Zn276 O285 1.977 . S
O277 Zn276 2.032 . S
O277 C281 1.278 . S
C278 O279 1.203 . S
C278 O285 1.267 . S
O279 C278 1.203 . S
O280 C273 1.185 . S
O280 Zn276 2.086 . S
C281 O277 1.278 . S
C281 O282 1.211 . S
O282 C281 1.211 . S
C283 O275 1.284 . S
C283 O284 1.273 . S
O284 C283 1.273 . S
O285 Zn276 1.977 . S
O285 C278 1.267 . S
C286 O287 1.160 . S
C286 O293 1.185 . S
O287 C286 1.160 . S
O288 Zn289 1.899 . S
O288 C296 1.284 . S
Zn289 O288 1.899 . S
Zn289 O290 2.032 . S
Zn289 O293 2.086 . S
Zn289 O298 1.977 . S
O290 Zn289 2.032 . S
O290 C294 1.278 . S
C291 O292 1.203 . S
C291 O298 1.267 . S
O292 C291 1.203 . S
O293 C286 1.185 . S
O293 Zn289 2.086 . S
C294 O290 1.278 . S
C294 O295 1.211 . S
O295 C294 1.211 . S
C296 O288 1.284 . S
C296 O297 1.273 . S
O297 C296 1.273 . S
O298 Zn289 1.977 . S
O298 C291 1.267 . S
C299 O300 1.160 . S
C299 O306 1.185 . S
O300 C299 1.160 . S
O301 Zn302 1.899 . S
O301 C309 1.284 . S
Zn302 O301 1.899 . S
Zn302 O303 2.032 . S
Zn302 O306 2.086 . S
Zn302 O311 1.977 . S
O303 Zn302 2.032 . S
O303 C307 1.278 . S
C304 O305 1.203 . S
C304 O311 1.267 . S
O305 C304 1.203 . S
O306 C299 1.185 . S
O306 Zn302 2.086 . S
C307 O303 1.278 . S
C307 O308 1.211 . S
O308 C307 1.211 . S
C309 O301 1.284 . S
C309 O310 1.273 . S
O310 C309 1.273 . S
O311 Zn302 1.977 . S
O311 C304 1.267 . S
Eu312 C321 2.828 . S
Eu312 O323 2.392 . S
Eu312 O325 2.418 . S
Eu312 O330 2.373 . S
Eu312 O333 2.488 . S
Eu312 O334 2.471 1_554 S
Eu312 O335 2.349 1_554 S
Eu313 O322 2.373 1_565 S
Eu313 O326 2.488 1_554 S
Eu313 O327 2.471 . S
Eu313 O328 2.349 1_565 S
Eu313 O331 2.392 1_564 S
Eu313 O332 2.418 1_554 S
Eu313 C342 2.828 . S
C314 O332 1.244 1_545 S
C314 O335 1.265 . S
C315 C316 1.379 1_554 S
C315 C319 1.373 . S
C315 C321 1.505 . S
C316 C315 1.379 1_556 S
C316 C318 1.369 . S
C316 H344 0.930 . S
C317 C319 1.383 . S
C317 C320 1.382 1_554 S
C317 H345 0.930 . S
C318 C316 1.369 . S
C318 C320 1.392 . S
C318 H346 0.930 . S
C319 C315 1.373 . S
C319 C317 1.383 . S
C319 H347 0.931 . S
C320 C317 1.382 1_556 S
C320 C318 1.392 . S
C321 Eu312 2.828 . S
C321 C315 1.505 . S
C321 O333 1.249 . S
C321 O334 1.244 1_554 S
O322 Eu313 2.373 1_545 S
O322 C324 1.258 . S
O323 Eu312 2.392 . S
O323 C324 1.242 . S
C324 O322 1.258 . S
C324 O323 1.242 . S
O325 Eu312 2.418 . S
O325 C329 1.244 . S
O326 Eu313 2.488 1_556 S
O326 C342 1.249 1_556 S
O327 Eu313 2.471 . S
O327 C342 1.244 . S
O328 Eu313 2.349 1_545 S
O328 C329 1.265 . S
C329 O325 1.244 . S
C329 O328 1.265 . S
O330 Eu312 2.373 . S
O330 C343 1.258 . S
O331 Eu313 2.392 1_546 S
O331 C343 1.242 1_556 S
O332 Eu313 2.418 1_556 S
O332 C314 1.244 1_565 S
O333 Eu312 2.488 . S
O333 C321 1.249 . S
O334 Eu312 2.471 1_556 S
O334 C321 1.244 1_556 S
O335 Eu312 2.349 1_556 S
O335 C314 1.265 . S
C336 C337 1.379 . S
C336 C340 1.373 . S
C336 C342 1.505 . S
C337 C336 1.379 . S
C337 C339 1.369 . S
C337 H348 0.930 . S
C338 C340 1.383 . S
C338 C341 1.382 . S
C338 H349 0.932 1_554 S
C339 C337 1.369 . S
C339 C341 1.392 . S
C339 H350 0.930 . S
C340 C336 1.373 . S
C340 C338 1.383 . S
C340 H351 0.931 1_554 S
C341 C338 1.382 . S
C341 C339 1.392 . S
C342 Eu313 2.828 . S
C342 O326 1.249 1_554 S
C342 O327 1.244 . S
C342 C336 1.505 . S
C343 O330 1.258 . S
C343 O331 1.242 1_554 S
H344 C316 0.930 . S
H345 C317 0.930 . S
H346 C318 0.930 . S
H347 C319 0.931 . S
H348 C337 0.930 . S
H349 C338 0.932 1_556 S
H350 C339 0.930 . S
H351 C340 0.931 1_556 S
Eu352 C361 2.828 . S
Eu352 O363 2.392 . S
Eu352 O365 2.418 . S
Eu352 O370 2.373 . S
Eu352 O373 2.488 . S
Eu352 O374 2.471 . S
Eu352 O375 2.349 . S
Eu353 O362 2.373 . S
Eu353 O366 2.488 . S
Eu353 O367 2.471 . S
Eu353 O368 2.349 . S
Eu353 O371 2.392 . S
Eu353 O372 2.418 . S
Eu353 C382 2.828 . S
C354 O372 1.244 . S
C354 O375 1.265 . S
C355 C356 1.379 . S
C355 C359 1.373 . S
C355 C361 1.505 . S
C356 C355 1.379 . S
C356 C358 1.369 . S
C356 H384 0.930 . S
C357 C359 1.383 . S
C357 C360 1.382 . S
C357 H385 0.930 . S
C358 C356 1.369 . S
C358 C360 1.392 . S
C358 H386 0.930 . S
C359 C355 1.373 . S
C359 C357 1.383 . S
C359 H387 0.931 . S
C360 C357 1.382 . S
C360 C358 1.392 . S
C361 Eu352 2.828 . S
C361 C355 1.505 . S
C361 O373 1.249 . S
C361 O374 1.244 . S
O362 Eu353 2.373 . S
O362 C364 1.258 . S
O363 Eu352 2.392 . S
O363 C364 1.242 . S
C364 O362 1.258 . S
C364 O363 1.242 . S
O365 Eu352 2.418 . S
O365 C369 1.244 . S
O366 Eu353 2.488 . S
O366 C382 1.249 . S
O367 Eu353 2.471 . S
O367 C382 1.244 . S
O368 Eu353 2.349 . S
O368 C369 1.265 . S
C369 O365 1.244 . S
C369 O368 1.265 . S
O370 Eu352 2.373 . S
O370 C383 1.258 . S
O371 Eu353 2.392 . S
O371 C383 1.242 . S
O372 Eu353 2.418 . S
O372 C354 1.244 . S
O373 Eu352 2.488 . S
O373 C361 1.249 . S
O374 Eu352 2.471 . S
O374 C361 1.244 . S
O375 Eu352 2.349 . S
O375 C354 1.265 . S
C376 C377 1.379 . S
C376 C380 1.373 . S
C376 C382 1.505 . S
C377 C376 1.379 . S
C377 C379 1.369 . S
C377 H388 0.930 . S
C378 C380 1.383 . S
C378 C381 1.382 . S
C378 H389 0.930 . S
C379 C377 1.369 . S
C379 C381 1.392 . S
C379 H390 0.930 . S
C380 C376 1.373 . S
C380 C378 1.383 . S
C380 H391 0.931 . S
C381 C378 1.382 . S
C381 C379 1.392 . S
C382 Eu353 2.828 . S
C382 O366 1.249 . S
C382 O367 1.244 . S
C382 C376 1.505 . S
C383 O370 1.258 . S
C383 O371 1.242 . S
H384 C356 0.930 . S
H385 C357 0.930 . S
H386 C358 0.930 . S
H387 C359 0.931 . S
H388 C377 0.930 . S
H389 C378 0.930 . S
H390 C379 0.930 . S
H391 C380 0.931 . S
Eu392 C401 2.828 . S
Eu392 O403 2.392 . S
Eu392 O405 2.418 . S
Eu392 O410 2.350 1_545 S
Eu392 O413 2.488 . S
Eu392 O414 2.471 . S
Eu392 O415 2.349 . S
Eu393 O402 2.373 . S
Eu393 O406 2.488 . S
Eu393 O407 2.471 . S
Eu393 O408 2.349 . S
Eu393 O411 2.392 1_545 S
Eu393 O412 2.418 . S
Eu393 C422 2.828 . S
C394 O412 1.244 . S
C394 O415 1.265 . S
C395 C396 1.379 . S
C395 C399 1.373 . S
C395 C401 1.505 1_565 S
C396 C395 1.379 . S
C396 C398 1.369 . S
C396 H424 0.930 . S
C397 C399 1.383 . S
C397 C400 1.382 . S
C397 H425 0.930 . S
C398 C396 1.369 . S
C398 C400 1.392 . S
C398 H426 0.930 . S
C399 C395 1.373 . S
C399 C397 1.383 . S
C399 H427 0.917 1_565 S
C400 C397 1.382 . S
C400 C398 1.392 . S
C401 Eu392 2.828 . S
C401 C395 1.505 1_545 S
C401 O413 1.249 . S
C401 O414 1.244 . S
O402 Eu393 2.373 . S
O402 C404 1.258 . S
O403 Eu392 2.392 . S
O403 C404 1.242 . S
C404 O402 1.258 . S
C404 O403 1.242 . S
O405 Eu392 2.418 . S
O405 C409 1.244 . S
O406 Eu393 2.488 . S
O406 C422 1.249 . S
O407 Eu393 2.471 . S
O407 C422 1.244 . S
O408 Eu393 2.349 . S
O408 C409 1.265 . S
C409 O405 1.244 . S
C409 O408 1.265 . S
O410 Eu392 2.350 1_565 S
O410 C423 1.272 . S
O411 Eu393 2.392 1_565 S
O411 C423 1.242 . S
O412 Eu393 2.418 . S
O412 C394 1.244 . S
O413 Eu392 2.488 . S
O413 C401 1.249 . S
O414 Eu392 2.471 . S
O414 C401 1.244 . S
O415 Eu392 2.349 . S
O415 C394 1.265 . S
C416 C417 1.379 . S
C416 C420 1.373 . S
C416 C422 1.505 . S
C417 C416 1.379 . S
C417 C419 1.369 . S
C417 H428 0.930 . S
C418 C420 1.383 . S
C418 C421 1.382 . S
C418 H429 0.930 . S
C419 C417 1.369 . S
C419 C421 1.392 . S
C419 H430 0.930 . S
C420 C416 1.373 . S
C420 C418 1.383 . S
C420 H431 0.931 . S
C421 C418 1.382 . S
C421 C419 1.392 . S
C422 Eu393 2.828 . S
C422 O406 1.249 . S
C422 O407 1.244 . S
C422 C416 1.505 . S
C423 O410 1.272 . S
C423 O411 1.242 . S
H424 C396 0.930 . S
H425 C397 0.930 . S
H426 C398 0.930 . S
H427 C399 0.917 1_545 S
H428 C417 0.930 . S
H429 C418 0.930 . S
H430 C419 0.930 . S
H431 C420 0.931 . S
Eu432 C441 2.828 . S
Eu432 O443 2.392 . S
Eu432 O445 2.418 . S
Eu432 O450 2.373 . S
Eu432 O453 2.488 . S
Eu432 O454 2.471 . S
Eu432 O455 2.349 . S
Eu433 O442 2.373 . S
Eu433 O446 2.488 . S
Eu433 O447 2.471 . S
Eu433 O448 2.349 . S
Eu433 O451 2.392 . S
Eu433 O452 2.418 . S
Eu433 C462 2.828 . S
C434 O452 1.244 . S
C434 O455 1.265 . S
C435 C436 1.379 . S
C435 C439 1.373 . S
C435 C441 1.505 . S
C436 C435 1.379 . S
C436 C438 1.369 . S
C436 H464 0.930 . S
C437 C439 1.383 . S
C437 C440 1.382 . S
C437 H465 0.930 . S
C438 C436 1.369 . S
C438 C440 1.392 . S
C438 H466 0.930 . S
C439 C435 1.373 . S
C439 C437 1.383 . S
C439 H467 0.931 . S
C440 C437 1.382 . S
C440 C438 1.392 . S
C441 Eu432 2.828 . S
C441 C435 1.505 . S
C441 O453 1.249 . S
C441 O454 1.244 . S
O442 Eu433 2.373 . S
O442 C444 1.258 . S
O443 Eu432 2.392 . S
O443 C444 1.242 . S
C444 O442 1.258 . S
C444 O443 1.242 . S
O445 Eu432 2.418 . S
O445 C449 1.244 . S
O446 Eu433 2.488 . S
O446 C462 1.249 . S
O447 Eu433 2.471 . S
O447 C462 1.244 . S
O448 Eu433 2.349 . S
O448 C449 1.265 . S
C449 O445 1.244 . S
C449 O448 1.265 . S
O450 Eu432 2.373 . S
O450 C463 1.258 . S
O451 Eu433 2.392 . S
O451 C463 1.242 . S
O452 Eu433 2.418 . S
O452 C434 1.244 . S
O453 Eu432 2.488 . S
O453 C441 1.249 . S
O454 Eu432 2.471 . S
O454 C441 1.244 . S
O455 Eu432 2.349 . S
O455 C434 1.265 . S
C456 C457 1.379 . S
C456 C460 1.373 . S
C456 C462 1.505 . S
C457 C456 1.379 . S
C457 C459 1.369 . S
C457 H468 0.930 . S
C458 C460 1.383 . S
C458 C461 1.382 . S
C458 H469 0.930 . S
C459 C457 1.369 . S
C459 C461 1.392 . S
C459 H470 0.930 . S
C460 C456 1.373 . S
C460 C458 1.383 . S
C460 H471 0.931 . S
C461 C458 1.382 . S
C461 C459 1.392 . S
C462 Eu433 2.828 . S
C462 O446 1.249 . S
C462 O447 1.244 . S
C462 C456 1.505 . S
C463 O450 1.258 . S
C463 O451 1.242 . S
H464 C436 0.930 . S
H465 C437 0.930 . S
H466 C438 0.930 . S
H467 C439 0.931 . S
H468 C457 0.930 . S
H469 C458 0.930 . S
H470 C459 0.930 . S
H471 C460 0.931 . S
Eu472 C481 2.828 . S
Eu472 O483 2.392 . S
Eu472 O485 2.418 . S
Eu472 O490 2.373 . S
Eu472 O493 2.488 . S
Eu472 O494 2.471 . S
Eu472 O495 2.349 . S
Eu473 O482 2.373 . S
Eu473 O486 2.488 1_545 S
Eu473 O487 2.471 1_545 S
Eu473 O488 2.349 . S
Eu473 O491 2.392 . S
Eu473 O492 2.418 . S
Eu473 C502 2.828 1_545 S
C474 O492 1.244 . S
C474 O495 1.265 . S
C475 C476 1.379 . S
C475 C479 1.373 . S
C475 C481 1.505 . S
C476 C475 1.379 . S
C476 C478 1.369 . S
C476 H504 0.930 . S
C477 C479 1.383 . S
C477 C480 1.382 . S
C477 H505 0.930 . S
C478 C476 1.369 . S
C478 C480 1.392 . S
C478 H506 0.930 . S
C479 C475 1.373 . S
C479 C477 1.383 . S
C479 H507 0.931 . S
C480 C477 1.382 . S
C480 C478 1.392 . S
C481 Eu472 2.828 . S
C481 C475 1.505 . S
C481 O493 1.249 . S
C481 O494 1.244 . S
O482 Eu473 2.373 . S
O482 C484 1.258 . S
O483 Eu472 2.392 . S
O483 C484 1.242 . S
C484 O482 1.258 . S
C484 O483 1.242 . S
O485 Eu472 2.418 . S
O485 C489 1.244 . S
O486 Eu473 2.488 1_565 S
O486 C502 1.249 . S
O487 Eu473 2.471 1_565 S
O487 C502 1.244 . S
O488 Eu473 2.349 . S
O488 C489 1.265 . S
C489 O485 1.244 . S
C489 O488 1.265 . S
O490 Eu472 2.373 . S
O490 C503 1.258 . S
O491 Eu473 2.392 . S
O491 C503 1.242 . S
O492 Eu473 2.418 . S
O492 C474 1.244 . S
O493 Eu472 2.488 . S
O493 C481 1.249 . S
O494 Eu472 2.471 . S
O494 C481 1.244 . S
O495 Eu472 2.349 . S
O495 C474 1.265 . S
C496 C497 1.379 . S
C496 C500 1.373 . S
C496 C502 1.505 . S
C497 C496 1.379 . S
C497 C499 1.369 . S
C497 H508 0.930 . S
C498 C500 1.383 . S
C498 C501 1.382 . S
C498 H509 0.930 . S
C499 C497 1.369 . S
C499 C501 1.392 . S
C499 H510 0.930 . S
C500 C496 1.373 . S
C500 C498 1.383 . S
C500 H511 0.931 . S
C501 C498 1.382 . S
C501 C499 1.392 . S
C502 Eu473 2.828 1_565 S
C502 O486 1.249 . S
C502 O487 1.244 . S
C502 C496 1.505 . S
C503 O490 1.258 . S
C503 O491 1.242 . S
H504 C476 0.930 . S
H505 C477 0.930 . S
H506 C478 0.930 . S
H507 C479 0.931 . S
H508 C497 0.930 . S
H509 C498 0.930 . S
H510 C499 0.930 . S
H511 C500 0.931 . S
Eu512 C521 2.828 . S
Eu512 O523 2.392 . S
Eu512 O525 2.418 . S
Eu512 O530 2.373 . S
Eu512 O533 2.488 . S
Eu512 O534 2.471 . S
Eu512 O535 2.349 . S
Eu513 O522 2.373 . S
Eu513 O526 2.488 . S
Eu513 O527 2.471 . S
Eu513 O528 2.349 . S
Eu513 O531 2.392 . S
Eu513 O532 2.418 . S
Eu513 C542 2.828 . S
C514 O532 1.244 . S
C514 O535 1.265 . S
C515 C516 1.379 . S
C515 C519 1.373 . S
C515 C521 1.505 . S
C516 C515 1.379 . S
C516 C518 1.369 . S
C516 H544 0.930 . S
C517 C519 1.383 . S
C517 C520 1.382 . S
C517 H545 0.930 . S
C518 C516 1.369 . S
C518 C520 1.392 . S
C518 H546 0.930 . S
C519 C515 1.373 . S
C519 C517 1.383 . S
C519 H547 0.931 . S
C520 C517 1.382 . S
C520 C518 1.392 . S
C521 Eu512 2.828 . S
C521 C515 1.505 . S
C521 O533 1.249 . S
C521 O534 1.244 . S
O522 Eu513 2.373 . S
O522 C524 1.258 . S
O523 Eu512 2.392 . S
O523 C524 1.242 . S
C524 O522 1.258 . S
C524 O523 1.242 . S
O525 Eu512 2.418 . S
O525 C529 1.244 . S
O526 Eu513 2.488 . S
O526 C542 1.249 . S
O527 Eu513 2.471 . S
O527 C542 1.244 . S
O528 Eu513 2.349 . S
O528 C529 1.265 . S
C529 O525 1.244 . S
C529 O528 1.265 . S
O530 Eu512 2.373 . S
O530 C543 1.258 . S
O531 Eu513 2.392 . S
O531 C543 1.242 . S
O532 Eu513 2.418 . S
O532 C514 1.244 . S
O533 Eu512 2.488 . S
O533 C521 1.249 . S
O534 Eu512 2.471 . S
O534 C521 1.244 . S
O535 Eu512 2.349 . S
O535 C514 1.265 . S
C536 C537 1.379 . S
C536 C540 1.373 . S
C536 C542 1.505 . S
C537 C536 1.379 . S
C537 C539 1.369 . S
C537 H548 0.930 . S
C538 C540 1.383 . S
C538 C541 1.382 . S
C538 H549 0.930 . S
C539 C537 1.369 . S
C539 C541 1.392 . S
C539 H550 0.930 . S
C540 C536 1.373 . S
C540 C538 1.383 . S
C540 H551 0.931 . S
C541 C538 1.382 . S
C541 C539 1.392 . S
C542 Eu513 2.828 . S
C542 O526 1.249 . S
C542 O527 1.244 . S
C542 C536 1.505 . S
C543 O530 1.258 . S
C543 O531 1.242 . S
H544 C516 0.930 . S
H545 C517 0.930 . S
H546 C518 0.930 . S
H547 C519 0.931 . S
H548 C537 0.930 . S
H549 C538 0.930 . S
H550 C539 0.930 . S
H551 C540 0.931 . S
Eu552 C561 2.828 . S
Eu552 O563 2.392 . S
Eu552 O565 2.418 1_545 S
Eu552 O570 2.373 . S
Eu552 O573 2.488 1_545 S
Eu552 O574 2.471 . S
Eu552 O575 2.349 . S
Eu553 O562 2.373 1_556 S
Eu553 O566 2.488 . S
Eu553 O567 2.471 . S
Eu553 O568 2.349 . S
Eu553 O571 2.392 . S
Eu553 O572 2.418 1_556 S
Eu553 C582 2.828 . S
C554 O572 1.244 . S
C554 O575 1.265 . S
C555 C556 1.379 . S
C555 C559 1.373 1_545 S
C555 C561 1.505 . S
C556 C555 1.379 . S
C556 C558 1.369 . S
C556 H584 0.930 . S
C557 C559 1.383 . S
C557 C560 1.382 . S
C557 H585 0.930 . S
C558 C556 1.369 . S
C558 C560 1.392 1_545 S
C558 H586 0.930 . S
C559 C555 1.373 1_565 S
C559 C557 1.383 . S
C559 H587 0.931 . S
C560 C557 1.382 . S
C560 C558 1.392 1_565 S
C561 Eu552 2.828 . S
C561 C555 1.505 . S
C561 O573 1.249 1_545 S
C561 O574 1.244 . S
O562 Eu553 2.373 1_554 S
O562 C564 1.258 . S
O563 Eu552 2.392 . S
O563 C564 1.242 . S
C564 O562 1.258 . S
C564 O563 1.242 . S
O565 Eu552 2.418 1_565 S
O565 C569 1.244 . S
O566 Eu553 2.488 . S
O566 C582 1.249 . S
O567 Eu553 2.471 . S
O567 C582 1.244 . S
O568 Eu553 2.349 . S
O568 C569 1.265 1_546 S
C569 O565 1.244 . S
C569 O568 1.265 1_564 S
O570 Eu552 2.373 . S
O570 C583 1.258 . S
O571 Eu553 2.392 . S
O571 C583 1.242 1_556 S
O572 Eu553 2.418 1_554 S
O572 C554 1.244 . S
O573 Eu552 2.488 1_565 S
O573 C561 1.249 1_565 S
O574 Eu552 2.471 . S
O574 C561 1.244 . S
O575 Eu552 2.349 . S
O575 C554 1.265 . S
C576 C577 1.379 . S
C576 C580 1.373 . S
C576 C582 1.505 . S
C577 C576 1.379 . S
C577 C579 1.369 . S
C577 H588 0.930 . S
C578 C580 1.383 . S
C578 C581 1.382 . S
C578 H589 0.930 . S
C579 C577 1.369 . S
C579 C581 1.392 . S
C579 H590 0.930 . S
C580 C576 1.373 . S
C580 C578 1.383 . S
C580 H591 0.931 . S
C581 C578 1.382 . S
C581 C579 1.392 . S
C582 Eu553 2.828 . S
C582 O566 1.249 . S
C582 O567 1.244 . S
C582 C576 1.505 . S
C583 O570 1.258 . S
C583 O571 1.242 1_554 S
H584 C556 0.930 . S
H585 C557 0.930 . S
H586 C558 0.930 . S
H587 C559 0.931 . S
H588 C577 0.930 . S
H589 C578 0.930 . S
H590 C579 0.930 . S
H591 C580 0.931 . S
Eu592 C601 2.828 . S
Eu592 O603 2.392 . S
Eu592 O605 2.418 . S
Eu592 O610 2.373 . S
Eu592 O613 2.488 . S
Eu592 O614 2.471 . S
Eu592 O615 2.349 . S
Eu593 O602 2.373 . S
Eu593 O606 2.488 . S
Eu593 O607 2.471 . S
Eu593 O608 2.349 . S
Eu593 O611 2.392 . S
Eu593 O612 2.418 . S
Eu593 C622 2.828 . S
C594 O612 1.244 . S
C594 O615 1.265 . S
C595 C596 1.379 . S
C595 C599 1.373 . S
C595 C601 1.505 . S
C596 C595 1.379 . S
C596 C598 1.369 . S
C596 H624 0.930 . S
C597 C599 1.383 . S
C597 C600 1.382 . S
C597 H625 0.930 . S
C598 C596 1.369 . S
C598 C600 1.392 . S
C598 H626 0.930 . S
C599 C595 1.373 . S
C599 C597 1.383 . S
C599 H627 0.931 . S
C600 C597 1.382 . S
C600 C598 1.392 . S
C601 Eu592 2.828 . S
C601 C595 1.505 . S
C601 O613 1.249 . S
C601 O614 1.244 . S
O602 Eu593 2.373 . S
O602 C604 1.258 . S
O603 Eu592 2.392 . S
O603 C604 1.242 . S
C604 O602 1.258 . S
C604 O603 1.242 . S
O605 Eu592 2.418 . S
O605 C609 1.244 . S
O606 Eu593 2.488 . S
O606 C622 1.249 . S
O607 Eu593 2.471 . S
O607 C622 1.244 . S
O608 Eu593 2.349 . S
O608 C609 1.265 . S
C609 O605 1.244 . S
C609 O608 1.265 . S
O610 Eu592 2.373 . S
O610 C623 1.258 . S
O611 Eu593 2.392 . S
O611 C623 1.242 . S
O612 Eu593 2.418 . S
O612 C594 1.244 . S
O613 Eu592 2.488 . S
O613 C601 1.249 . S
O614 Eu592 2.471 . S
O614 C601 1.244 . S
O615 Eu592 2.349 . S
O615 C594 1.265 . S
C616 C617 1.379 . S
C616 C620 1.373 . S
C616 C622 1.505 . S
C617 C616 1.379 . S
C617 C619 1.369 . S
C617 H628 0.930 . S
C618 C620 1.383 . S
C618 C621 1.382 . S
C618 H629 0.930 . S
C619 C617 1.369 . S
C619 C621 1.392 . S
C619 H630 0.930 . S
C620 C616 1.373 . S
C620 C618 1.383 . S
C620 H631 0.931 . S
C621 C618 1.382 . S
C621 C619 1.392 . S
C622 Eu593 2.828 . S
C622 O606 1.249 . S
C622 O607 1.244 . S
C622 C616 1.505 . S
C623 O610 1.258 . S
C623 O611 1.242 . S
H624 C596 0.930 . S
H625 C597 0.930 . S
H626 C598 0.930 . S
H627 C599 0.931 . S
H628 C617 0.930 . S
H629 C618 0.930 . S
H630 C619 0.930 . S
H631 C620 0.931 . S
Eu632 C641 2.828 . S
Eu632 O643 2.392 . S
Eu632 O645 2.418 . S
Eu632 O650 2.373 1_554 S
Eu632 O653 2.488 . S
Eu632 O654 2.471 . S
Eu632 O655 2.349 . S
Eu633 O642 2.373 . S
Eu633 O646 2.488 . S
Eu633 O647 2.471 . S
Eu633 O648 2.349 . S
Eu633 O651 2.392 1_554 S
Eu633 O652 2.418 . S
Eu633 C662 2.828 . S
C634 O652 1.244 . S
C634 O655 1.265 . S
C635 C636 1.379 1_554 S
C635 C639 1.373 . S
C635 C641 1.505 . S
C636 C635 1.379 1_556 S
C636 C638 1.369 . S
C636 H664 0.930 . S
C637 C639 1.391 . S
C637 C640 1.372 1_554 S
C637 H665 0.932 . S
C638 C636 1.369 . S
C638 C640 1.392 . S
C638 H666 0.930 . S
C639 C635 1.373 . S
C639 C637 1.391 . S
C639 H667 0.931 . S
C640 C637 1.372 1_556 S
C640 C638 1.392 . S
C641 Eu632 2.828 . S
C641 C635 1.505 . S
C641 O653 1.249 . S
C641 O654 1.244 . S
O642 Eu633 2.373 . S
O642 C644 1.258 . S
O643 Eu632 2.392 . S
O643 C644 1.242 . S
C644 O642 1.258 . S
C644 O643 1.242 . S
O645 Eu632 2.418 . S
O645 C649 1.244 . S
O646 Eu633 2.488 . S
O646 C662 1.249 . S
O647 Eu633 2.471 . S
O647 C662 1.244 . S
O648 Eu633 2.349 . S
O648 C649 1.265 . S
C649 O645 1.244 . S
C649 O648 1.265 . S
O650 Eu632 2.373 1_556 S
O650 C663 1.258 . S
O651 Eu633 2.392 1_556 S
O651 C663 1.242 . S
O652 Eu633 2.418 . S
O652 C634 1.244 . S
O653 Eu632 2.488 . S
O653 C641 1.249 . S
O654 Eu632 2.471 . S
O654 C641 1.244 . S
O655 Eu632 2.349 . S
O655 C634 1.265 . S
C656 C657 1.379 . S
C656 C660 1.373 . S
C656 C662 1.505 . S
C657 C656 1.379 . S
C657 C659 1.369 . S
C657 H668 0.930 . S
C658 C660 1.383 . S
C658 C661 1.382 . S
C658 H669 0.930 . S
C659 C657 1.369 . S
C659 C661 1.392 . S
C659 H670 0.930 . S
C660 C656 1.373 . S
C660 C658 1.383 . S
C660 H671 0.931 . S
C661 C658 1.382 . S
C661 C659 1.392 . S
C662 Eu633 2.828 . S
C662 O646 1.249 . S
C662 O647 1.244 . S
C662 C656 1.505 . S
C663 O650 1.258 . S
C663 O651 1.242 . S
H664 C636 0.930 . S
H665 C637 0.932 . S
H666 C638 0.930 . S
H667 C639 0.931 . S
H668 C657 0.930 . S
H669 C658 0.930 . S
H670 C659 0.930 . S
H671 C660 0.931 . S
Eu672 C681 2.828 . S
Eu672 O683 2.392 . S
Eu672 O685 2.418 . S
Eu672 O690 2.373 . S
Eu672 O693 2.488 . S
Eu672 O694 2.471 . S
Eu672 O695 2.349 . S
Eu673 O682 2.373 . S
Eu673 O686 2.488 . S
Eu673 O687 2.471 . S
Eu673 O688 2.349 . S
Eu673 O691 2.392 . S
Eu673 O692 2.418 . S
Eu673 C702 2.828 . S
C674 O692 1.244 . S
C674 O695 1.265 . S
C675 C676 1.379 . S
C675 C679 1.373 . S
C675 C681 1.505 . S
C676 C675 1.379 . S
C676 C678 1.369 . S
C676 H704 0.930 . S
C677 C679 1.383 . S
C677 C680 1.382 . S
C677 H705 0.930 1_655 S
C678 C676 1.369 . S
C678 C680 1.392 . S
C678 H706 0.930 . S
C679 C675 1.373 . S
C679 C677 1.383 . S
C679 H707 0.931 . S
C680 C677 1.382 . S
C680 C678 1.392 . S
C681 Eu672 2.828 . S
C681 C675 1.505 . S
C681 O693 1.249 . S
C681 O694 1.244 . S
O682 Eu673 2.373 . S
O682 C684 1.258 . S
O683 Eu672 2.392 . S
O683 C684 1.242 . S
C684 O682 1.258 . S
C684 O683 1.242 . S
O685 Eu672 2.418 . S
O685 C689 1.244 . S
O686 Eu673 2.488 . S
O686 C702 1.249 . S
O687 Eu673 2.471 . S
O687 C702 1.244 . S
O688 Eu673 2.349 . S
O688 C689 1.265 . S
C689 O685 1.244 . S
C689 O688 1.265 . S
O690 Eu672 2.373 . S
O690 C703 1.258 . S
O691 Eu673 2.392 . S
O691 C703 1.242 . S
O692 Eu673 2.418 . S
O692 C674 1.244 . S
O693 Eu672 2.488 . S
O693 C681 1.249 . S
O694 Eu672 2.471 . S
O694 C681 1.244 . S
O695 Eu672 2.349 . S
O695 C674 1.265 . S
C696 C697 1.379 . S
C696 C700 1.373 . S
C696 C702 1.505 . S
C697 C696 1.379 . S
C697 C699 1.369 . S
C697 H708 0.930 . S
C698 C700 1.383 . S
C698 C701 1.382 . S
C698 H709 0.930 . S
C699 C697 1.369 . S
C699 C701 1.392 . S
C699 H710 0.930 . S
C700 C696 1.373 . S
C700 C698 1.383 . S
C700 H711 0.931 . S
C701 C698 1.382 . S
C701 C699 1.392 . S
C702 Eu673 2.828 . S
C702 O686 1.249 . S
C702 O687 1.244 . S
C702 C696 1.505 . S
C703 O690 1.258 . S
C703 O691 1.242 . S
H704 C676 0.930 . S
H705 C677 0.930 1_455 S
H706 C678 0.930 . S
H707 C679 0.931 . S
H708 C697 0.930 . S
H709 C698 0.930 . S
H710 C699 0.930 . S
H711 C700 0.931 . S
Eu712 C721 2.828 . S
Eu712 O723 2.392 . S
Eu712 O725 2.418 . S
Eu712 O730 2.373 . S
Eu712 O733 2.488 . S
Eu712 O734 2.471 . S
Eu712 O735 2.349 . S
Eu713 O722 2.373 . S
Eu713 O726 2.488 . S
Eu713 O727 2.471 . S
Eu713 O728 2.349 . S
Eu713 O731 2.392 . S
Eu713 O732 2.418 . S
Eu713 C742 2.828 . S
C714 O732 1.244 . S
C714 O735 1.265 . S
C715 C716 1.405 . S
C715 C719 1.373 . S
C715 C721 1.505 . S
C716 C715 1.405 . S
C716 C718 1.350 1_455 S
C716 H744 0.924 . S
C717 C719 1.383 . S
C717 C720 1.382 1_455 S
C717 H745 0.930 . S
C718 C716 1.350 1_655 S
C718 C720 1.392 . S
C718 H746 0.930 . S
C719 C715 1.373 . S
C719 C717 1.383 . S
C719 H747 0.931 . S
C720 C717 1.382 1_655 S
C720 C718 1.392 . S
C721 Eu712 2.828 . S
C721 C715 1.505 . S
C721 O733 1.249 . S
C721 O734 1.244 . S
O722 Eu713 2.373 . S
O722 C724 1.258 . S
O723 Eu712 2.392 . S
O723 C724 1.242 . S
C724 O722 1.258 . S
C724 O723 1.242 . S
O725 Eu712 2.418 . S
O725 C729 1.244 . S
O726 Eu713 2.488 . S
O726 C742 1.249 . S
O727 Eu713 2.471 . S
O727 C742 1.244 . S
O728 Eu713 2.349 . S
O728 C729 1.265 . S
C729 O725 1.244 . S
C729 O728 1.265 . S
O730 Eu712 2.373 . S
O730 C743 1.258 . S
O731 Eu713 2.392 . S
O731 C743 1.242 . S
O732 Eu713 2.418 . S
O732 C714 1.244 . S
O733 Eu712 2.488 . S
O733 C721 1.249 . S
O734 Eu712 2.471 . S
O734 C721 1.244 . S
O735 Eu712 2.349 . S
O735 C714 1.265 . S
C736 C737 1.379 . S
C736 C740 1.373 . S
C736 C742 1.505 . S
C737 C736 1.379 . S
C737 C739 1.369 . S
C737 H748 0.930 . S
C738 C740 1.383 . S
C738 C741 1.382 . S
C738 H749 0.930 . S
C739 C737 1.369 . S
C739 C741 1.392 . S
C739 H750 0.930 . S
C740 C736 1.373 . S
C740 C738 1.383 . S
C740 H751 0.931 . S
C741 C738 1.382 . S
C741 C739 1.392 . S
C742 Eu713 2.828 . S
C742 O726 1.249 . S
C742 O727 1.244 . S
C742 C736 1.505 . S
C743 O730 1.258 . S
C743 O731 1.242 . S
H744 C716 0.924 . S
H745 C717 0.930 . S
H746 C718 0.930 . S
H747 C719 0.931 . S
H748 C737 0.930 . S
H749 C738 0.930 . S
H750 C739 0.930 . S
H751 C740 0.931 . S
Eu752 C761 2.828 . S
Eu752 O763 2.392 . S
Eu752 O765 2.418 . S
Eu752 O770 2.373 . S
Eu752 O773 2.488 . S
Eu752 O774 2.471 . S
Eu752 O775 2.349 . S
Eu753 O762 2.373 . S
Eu753 O766 2.488 . S
Eu753 O767 2.471 . S
Eu753 O768 2.349 . S
Eu753 O771 2.392 . S
Eu753 O772 2.418 . S
Eu753 C782 2.828 . S
C754 O772 1.244 . S
C754 O775 1.265 . S
C755 C756 1.379 . S
C755 C759 1.373 . S
C755 C761 1.505 . S
C756 C755 1.379 . S
C756 C758 1.369 . S
C756 H784 0.930 . S
C757 C759 1.383 . S
C757 C760 1.382 . S
C757 H785 0.930 . S
C758 C756 1.369 . S
C758 C760 1.392 . S
C758 H786 0.930 . S
C759 C755 1.373 . S
C759 C757 1.383 . S
C759 H787 0.931 . S
C760 C757 1.382 . S
C760 C758 1.392 . S
C761 Eu752 2.828 . S
C761 C755 1.505 . S
C761 O773 1.249 . S
C761 O774 1.244 . S
O762 Eu753 2.373 . S
O762 C764 1.258 . S
O763 Eu752 2.392 . S
O763 C764 1.242 . S
C764 O762 1.258 . S
C764 O763 1.242 . S
O765 Eu752 2.418 . S
O765 C769 1.244 . S
O766 Eu753 2.488 . S
O766 C782 1.249 . S
O767 Eu753 2.471 . S
O767 C782 1.244 . S
O768 Eu753 2.349 . S
O768 C769 1.265 . S
C769 O765 1.244 . S
C769 O768 1.265 . S
O770 Eu752 2.373 . S
O770 C783 1.258 . S
O771 Eu753 2.392 . S
O771 C783 1.242 . S
O772 Eu753 2.418 . S
O772 C754 1.244 . S
O773 Eu752 2.488 . S
O773 C761 1.249 . S
O774 Eu752 2.471 . S
O774 C761 1.244 . S
O775 Eu752 2.349 . S
O775 C754 1.265 . S
C776 C777 1.379 . S
C776 C780 1.373 . S
C776 C782 1.505 . S
C777 C776 1.379 . S
C777 C779 1.369 . S
C777 H788 0.930 . S
C778 C780 1.383 . S
C778 C781 1.382 . S
C778 H789 0.930 . S
C779 C777 1.369 . S
C779 C781 1.392 . S
C779 H790 0.930 . S
C780 C776 1.373 . S
C780 C778 1.383 . S
C780 H791 0.931 . S
C781 C778 1.382 . S
C781 C779 1.392 . S
C782 Eu753 2.828 . S
C782 O766 1.249 . S
C782 O767 1.244 . S
C782 C776 1.505 . S
C783 O770 1.258 . S
C783 O771 1.242 . S
H784 C756 0.930 . S
H785 C757 0.930 . S
H786 C758 0.930 . S
H787 C759 0.931 . S
H788 C777 0.930 . S
H789 C778 0.930 . S
H790 C779 0.930 . S
H791 C780 0.931 . S
Eu792 C801 2.828 . S
Eu792 O803 2.392 . S
Eu792 O805 2.418 . S
Eu792 O810 2.373 . S
Eu792 O813 2.488 . S
Eu792 O814 2.471 . S
Eu792 O815 2.349 . S
Eu793 O802 2.373 . S
Eu793 O806 2.488 . S
Eu793 O807 2.471 . S
Eu793 O808 2.349 . S
Eu793 O811 2.392 . S
Eu793 O812 2.418 . S
Eu793 C822 2.828 . S
C794 O812 1.244 . S
C794 O815 1.265 . S
C795 C796 1.379 . S
C795 C799 1.373 . S
C795 C801 1.505 . S
C796 C795 1.379 . S
C796 C798 1.369 . S
C796 H824 0.930 . S
C797 C799 1.383 . S
C797 C800 1.382 . S
C797 H825 0.930 . S
C798 C796 1.369 . S
C798 C800 1.392 . S
C798 H826 0.930 . S
C799 C795 1.373 . S
C799 C797 1.383 . S
C799 H827 0.931 . S
C800 C797 1.382 . S
C800 C798 1.392 . S
C801 Eu792 2.828 . S
C801 C795 1.505 . S
C801 O813 1.249 . S
C801 O814 1.244 . S
O802 Eu793 2.373 . S
O802 C804 1.258 . S
O803 Eu792 2.392 . S
O803 C804 1.242 . S
C804 O802 1.258 . S
C804 O803 1.242 . S
O805 Eu792 2.418 . S
O805 C809 1.244 . S
O806 Eu793 2.488 . S
O806 C822 1.249 . S
O807 Eu793 2.471 . S
O807 C822 1.244 . S
O808 Eu793 2.349 . S
O808 C809 1.265 . S
C809 O805 1.244 . S
C809 O808 1.265 . S
O810 Eu792 2.373 . S
O810 C823 1.258 . S
O811 Eu793 2.392 . S
O811 C823 1.242 . S
O812 Eu793 2.418 . S
O812 C794 1.244 . S
O813 Eu792 2.488 . S
O813 C801 1.249 . S
O814 Eu792 2.471 . S
O814 C801 1.244 . S
O815 Eu792 2.349 . S
O815 C794 1.265 . S
C816 C817 1.379 . S
C816 C820 1.373 . S
C816 C822 1.505 . S
C817 C816 1.379 . S
C817 C819 1.369 . S
C817 H828 0.930 . S
C818 C820 1.383 . S
C818 C821 1.382 . S
C818 H829 0.930 . S
C819 C817 1.369 . S
C819 C821 1.392 . S
C819 H830 0.930 . S
C820 C816 1.373 . S
C820 C818 1.383 . S
C820 H831 0.931 . S
C821 C818 1.382 . S
C821 C819 1.392 . S
C822 Eu793 2.828 . S
C822 O806 1.249 . S
C822 O807 1.244 . S
C822 C816 1.505 . S
C823 O810 1.258 . S
C823 O811 1.242 . S
H824 C796 0.930 . S
H825 C797 0.930 . S
H826 C798 0.930 . S
H827 C799 0.931 . S
H828 C817 0.930 . S
H829 C818 0.930 . S
H830 C819 0.930 . S
H831 C820 0.931 . S
Eu832 C841 2.828 . S
Eu832 O843 2.392 . S
Eu832 O845 2.418 . S
Eu832 O850 2.373 . S
Eu832 O853 2.488 . S
Eu832 O854 2.471 . S
Eu832 O855 2.349 . S
Eu833 O842 2.373 . S
Eu833 O846 2.488 . S
Eu833 O847 2.471 . S
Eu833 O848 2.349 . S
Eu833 O851 2.392 . S
Eu833 O852 2.418 . S
Eu833 C862 2.828 . S
C834 O852 1.244 . S
C834 O855 1.265 . S
C835 C836 1.379 . S
C835 C839 1.373 . S
C835 C841 1.505 . S
C836 C835 1.379 . S
C836 C838 1.369 . S
C836 H864 0.930 . S
C837 C839 1.383 . S
C837 C840 1.382 . S
C837 H865 0.930 . S
C838 C836 1.369 . S
C838 C840 1.392 . S
C838 H866 0.930 . S
C839 C835 1.373 . S
C839 C837 1.383 . S
C839 H867 0.931 . S
C840 C837 1.382 . S
C840 C838 1.392 . S
C841 Eu832 2.828 . S
C841 C835 1.505 . S
C841 O853 1.249 . S
C841 O854 1.244 . S
O842 Eu833 2.373 . S
O842 C844 1.258 . S
O843 Eu832 2.392 . S
O843 C844 1.242 . S
C844 O842 1.258 . S
C844 O843 1.242 . S
O845 Eu832 2.418 . S
O845 C849 1.244 . S
O846 Eu833 2.488 . S
O846 C862 1.249 . S
O847 Eu833 2.471 . S
O847 C862 1.244 . S
O848 Eu833 2.349 . S
O848 C849 1.265 . S
C849 O845 1.244 . S
C849 O848 1.265 . S
O850 Eu832 2.373 . S
O850 C863 1.258 . S
O851 Eu833 2.392 . S
O851 C863 1.242 . S
O852 Eu833 2.418 . S
O852 C834 1.244 . S
O853 Eu832 2.488 . S
O853 C841 1.249 . S
O854 Eu832 2.471 . S
O854 C841 1.244 . S
O855 Eu832 2.349 . S
O855 C834 1.265 . S
C856 C857 1.379 . S
C856 C860 1.373 . S
C856 C862 1.505 . S
C857 C856 1.379 . S
C857 C859 1.369 . S
C857 H868 0.930 . S
C858 C860 1.383 . S
C858 C861 1.382 . S
C858 H869 0.930 . S
C859 C857 1.369 . S
C859 C861 1.392 . S
C859 H870 0.930 . S
C860 C856 1.373 . S
C860 C858 1.383 . S
C860 H871 0.931 . S
C861 C858 1.382 . S
C861 C859 1.392 . S
C862 Eu833 2.828 . S
C862 O846 1.249 . S
C862 O847 1.244 . S
C862 C856 1.505 . S
C863 O850 1.258 . S
C863 O851 1.242 . S
H864 C836 0.930 . S
H865 C837 0.930 . S
H866 C838 0.930 . S
H867 C839 0.931 . S
H868 C857 0.930 . S
H869 C858 0.930 . S
H870 C859 0.930 . S
H871 C860 0.931 . S
Eu872 C881 2.828 . S
Eu872 O883 2.392 . S
Eu872 O885 2.418 . S
Eu872 O890 2.373 . S
Eu872 O893 2.488 . S
Eu872 O894 2.471 . S
Eu872 O895 2.349 . S
Eu873 O882 2.373 . S
Eu873 O886 2.488 . S
Eu873 O887 2.471 . S
Eu873 O888 2.349 . S
Eu873 O891 2.392 . S
Eu873 O892 2.418 . S
Eu873 C902 2.828 . S
C874 O892 1.244 . S
C874 O895 1.265 . S
C875 C876 1.379 . S
C875 C879 1.373 . S
C875 C881 1.505 . S
C876 C875 1.379 . S
C876 C878 1.369 . S
C876 H904 0.930 . S
C877 C879 1.383 . S
C877 C880 1.382 . S
C877 H905 0.930 . S
C878 C876 1.369 . S
C878 C880 1.392 . S
C878 H906 0.930 . S
C879 C875 1.373 . S
C879 C877 1.383 . S
C879 H907 0.931 . S
C880 C877 1.382 . S
C880 C878 1.392 . S
C881 Eu872 2.828 . S
C881 C875 1.505 . S
C881 O893 1.249 . S
C881 O894 1.244 . S
O882 Eu873 2.373 . S
O882 C884 1.258 . S
O883 Eu872 2.392 . S
O883 C884 1.242 . S
C884 O882 1.258 . S
C884 O883 1.242 . S
O885 Eu872 2.418 . S
O885 C889 1.244 . S
O886 Eu873 2.488 . S
O886 C902 1.249 . S
O887 Eu873 2.471 . S
O887 C902 1.244 . S
O888 Eu873 2.349 . S
O888 C889 1.265 . S
C889 O885 1.244 . S
C889 O888 1.265 . S
O890 Eu872 2.373 . S
O890 C903 1.258 . S
O891 Eu873 2.392 . S
O891 C903 1.242 . S
O892 Eu873 2.418 . S
O892 C874 1.244 . S
O893 Eu872 2.488 . S
O893 C881 1.249 . S
O894 Eu872 2.471 . S
O894 C881 1.244 . S
O895 Eu872 2.349 . S
O895 C874 1.265 . S
C896 C897 1.379 . S
C896 C900 1.373 . S
C896 C902 1.505 . S
C897 C896 1.379 . S
C897 C899 1.369 . S
C897 H908 0.930 . S
C898 C900 1.383 . S
C898 C901 1.382 . S
C898 H909 0.930 . S
C899 C897 1.369 . S
C899 C901 1.392 . S
C899 H910 0.930 . S
C900 C896 1.373 . S
C900 C898 1.383 . S
C900 H911 0.931 . S
C901 C898 1.382 . S
C901 C899 1.392 . S
C902 Eu873 2.828 . S
C902 O886 1.249 . S
C902 O887 1.244 . S
C902 C896 1.505 . S
C903 O890 1.258 . S
C903 O891 1.242 . S
H904 C876 0.930 . S
H905 C877 0.930 . S
H906 C878 0.930 . S
H907 C879 0.931 . S
H908 C897 0.930 . S
H909 C898 0.930 . S
H910 C899 0.930 . S
H911 C900 0.931 . S
Eu912 C921 2.828 . S
Eu912 O923 2.392 1_556 S
Eu912 O925 2.418 . S
Eu912 O930 2.373 . S
Eu912 O933 2.488 . S
Eu912 O934 2.471 1_556 S
Eu912 O935 2.349 1_556 S
Eu913 O922 2.373 . S
Eu913 O926 2.463 1_455 S
Eu913 O927 2.471 1_455 S
Eu913 O928 2.349 1_554 S
Eu913 O931 2.392 . S
Eu913 O932 2.418 . S
Eu913 C942 2.828 1_455 S
C914 O932 1.244 . S
C914 O935 1.265 . S
C915 C916 1.379 1_556 S
C915 C919 1.373 . S
C915 C921 1.505 . S
C916 C915 1.379 1_554 S
C916 C918 1.369 1_554 S
C916 H944 0.930 . S
C917 C919 1.383 . S
C917 C920 1.382 . S
C917 H945 0.930 . S
C918 C916 1.369 1_556 S
C918 C920 1.392 . S
C918 H946 0.930 1_556 S
C919 C915 1.373 . S
C919 C917 1.383 . S
C919 H947 0.931 . S
C920 C917 1.382 . S
C920 C918 1.392 . S
C921 Eu912 2.828 . S
C921 C915 1.505 . S
C921 O933 1.249 . S
C921 O934 1.244 1_556 S
O922 Eu913 2.373 . S
O922 C924 1.258 . S
O923 Eu912 2.392 1_554 S
O923 C924 1.242 . S
C924 O922 1.258 . S
C924 O923 1.242 . S
O925 Eu912 2.418 . S
O925 C929 1.244 . S
O926 Eu913 2.463 1_655 S
O926 C942 1.264 . S
O927 Eu913 2.471 1_655 S
O927 C942 1.244 . S
O928 Eu913 2.349 1_556 S
O928 C929 1.265 . S
C929 O925 1.244 . S
C929 O928 1.265 . S
O930 Eu912 2.373 . S
O930 C943 1.258 . S
O931 Eu913 2.392 . S
O931 C943 1.242 1_554 S
O932 Eu913 2.418 . S
O932 C914 1.244 . S
O933 Eu912 2.488 . S
O933 C921 1.249 . S
O934 Eu912 2.471 1_554 S
O934 C921 1.244 1_554 S
O935 Eu912 2.349 1_554 S
O935 C914 1.265 . S
C936 C937 1.379 . S
C936 C940 1.373 . S
C936 C942 1.505 . S
C937 C936 1.379 . S
C937 C939 1.369 . S
C937 H948 0.930 . S
C938 C940 1.383 . S
C938 C941 1.382 . S
C938 H949 0.930 . S
C939 C937 1.369 . S
C939 C941 1.392 . S
C939 H950 0.930 . S
C940 C936 1.373 . S
C940 C938 1.383 . S
C940 H951 0.931 . S
C941 C938 1.382 . S
C941 C939 1.392 . S
C942 Eu913 2.828 1_655 S
C942 O926 1.264 . S
C942 O927 1.244 . S
C942 C936 1.505 . S
C943 O930 1.258 . S
C943 O931 1.242 1_556 S
H944 C916 0.930 . S
H945 C917 0.930 . S
H946 C918 0.930 1_554 S
H947 C919 0.931 . S
H948 C937 0.930 . S
H949 C938 0.930 . S
H950 C939 0.930 . S
H951 C940 0.931 . S
C952 C953 1.363 . S
C952 C958 1.379 . S
C952 N960 1.356 . S
C953 C952 1.363 . S
C953 C959 1.363 . S
C954 C955 1.363 . S
C954 C959 1.379 . S
C954 N961 1.356 1_556 S
C955 C954 1.363 . S
C955 C958 1.363 . S
N956 C958 1.356 . S
N956 H968 0.984 . S
N956 H969 0.985 . S
N957 C959 1.328 1_655 S
N957 H962 0.997 . S
N957 H963 1.003 1_556 S
C958 C952 1.379 . S
C958 C955 1.363 . S
C958 N956 1.356 . S
C959 C953 1.363 . S
C959 C954 1.379 . S
C959 N957 1.328 1_455 S
N960 C952 1.356 . S
N960 H966 0.984 . S
N960 H967 0.984 . S
N961 C954 1.356 1_554 S
N961 H964 0.984 . S
N961 H965 0.985 . S
H962 N957 0.997 . S
H963 N957 1.003 1_554 S
H964 N961 0.984 . S
H965 N961 0.985 . S
H966 N960 0.984 . S
H967 N960 0.984 . S
H968 N956 0.984 . S
H969 N956 0.985 . S
C970 C971 1.363 . S
C970 C976 1.379 . S
C970 N978 1.356 . S
C971 C970 1.363 . S
C971 C977 1.363 . S
C972 C973 1.363 . S
C972 C977 1.379 . S
C972 N979 1.356 . S
C973 C972 1.363 . S
C973 C976 1.363 . S
N974 C976 1.356 . S
N974 H986 0.984 . S
N974 H987 0.985 . S
N975 C977 1.356 . S
N975 H980 0.984 . S
N975 H981 0.985 . S
C976 C970 1.379 . S
C976 C973 1.363 . S
C976 N974 1.356 . S
C977 C971 1.363 . S
C977 C972 1.379 . S
C977 N975 1.356 . S
N978 C970 1.356 . S
N978 H984 0.984 . S
N978 H985 0.984 . S
N979 C972 1.356 . S
N979 H982 0.984 . S
N979 H983 0.985 . S
H980 N975 0.984 . S
H981 N975 0.985 . S
H982 N979 0.984 . S
H983 N979 0.985 . S
H984 N978 0.984 . S
H985 N978 0.984 . S
H986 N974 0.984 . S
H987 N974 0.985 . S
C988 C989 1.363 . S
C988 C994 1.379 . S
C988 N996 1.356 . S
C989 C988 1.363 . S
C989 C995 1.363 . S
C990 C991 1.363 . S
C990 C995 1.379 . S
C990 N997 1.356 . S
C991 C990 1.363 . S
C991 C994 1.363 . S
N992 C994 1.356 . S
N992 H1004 0.984 . S
N992 H1005 0.972 1_565 S
N993 C995 1.356 . S
N993 H998 0.984 . S
N993 H999 0.985 . S
C994 C988 1.379 . S
C994 C991 1.363 . S
C994 N992 1.356 . S
C995 C989 1.363 . S
C995 C990 1.379 . S
C995 N993 1.356 . S
N996 C988 1.356 . S
N996 H1002 0.984 . S
N996 H1003 0.984 . S
N997 C990 1.356 . S
N997 H1000 0.984 . S
N997 H1001 0.985 . S
H998 N993 0.984 . S
H999 N993 0.985 . S
H1000 N997 0.984 . S
H1001 N997 0.985 . S
H1002 N996 0.984 . S
H1003 N996 0.984 . S
H1004 N992 0.984 . S
H1005 N992 0.972 1_545 S
C1006 C1007 1.363 . S
C1006 C1012 1.379 . S
C1006 N1014 1.356 . S
C1007 C1006 1.363 . S
C1007 C1013 1.363 . S
C1008 C1009 1.363 . S
C1008 C1013 1.379 . S
C1008 N1015 1.356 . S
C1009 C1008 1.363 . S
C1009 C1012 1.363 . S
N1010 C1012 1.356 . S
N1010 H1022 0.984 . S
N1010 H1023 0.985 . S
N1011 C1013 1.356 . S
N1011 H1016 0.984 . S
N1011 H1017 0.985 . S
C1012 C1006 1.379 . S
C1012 C1009 1.363 . S
C1012 N1010 1.356 . S
C1013 C1007 1.363 . S
C1013 C1008 1.379 . S
C1013 N1011 1.356 . S
N1014 C1006 1.356 . S
N1014 H1020 0.984 . S
N1014 H1021 0.984 . S
N1015 C1008 1.356 . S
N1015 H1018 0.984 . S
N1015 H1019 0.985 . S
H1016 N1011 0.984 . S
H1017 N1011 0.985 . S
H1018 N1015 0.984 . S
H1019 N1015 0.985 . S
H1020 N1014 0.984 . S
H1021 N1014 0.984 . S
H1022 N1010 0.984 . S
H1023 N1010 0.985 . S
C1024 C1025 1.363 . S
C1024 C1030 1.379 . S
C1024 N1032 1.356 . S
C1025 C1024 1.363 . S
C1025 C1031 1.363 . S
C1026 C1027 1.363 . S
C1026 C1031 1.379 . S
C1026 N1033 1.356 . S
C1027 C1026 1.363 . S
C1027 C1030 1.363 . S
N1028 C1030 1.356 . S
N1028 H1040 0.984 . S
N1028 H1041 0.985 . S
N1029 C1031 1.356 . S
N1029 H1034 0.984 . S
N1029 H1035 0.985 . S
C1030 C1024 1.379 . S
C1030 C1027 1.363 . S
C1030 N1028 1.356 . S
C1031 C1025 1.363 . S
C1031 C1026 1.379 . S
C1031 N1029 1.356 . S
N1032 C1024 1.356 . S
N1032 H1038 0.996 . S
N1032 H1039 0.984 1_455 S
N1033 C1026 1.356 . S
N1033 H1036 0.984 . S
N1033 H1037 0.985 . S
H1034 N1029 0.984 . S
H1035 N1029 0.985 . S
H1036 N1033 0.984 . S
H1037 N1033 0.985 . S
H1038 N1032 0.996 . S
H1039 N1032 0.984 1_655 S
H1040 N1028 0.984 . S
H1041 N1028 0.985 . S
C1042 C1043 1.363 . S
C1042 C1048 1.379 . S
C1042 N1050 1.356 . S
C1043 C1042 1.363 . S
C1043 C1049 1.363 . S
C1044 C1045 1.363 . S
C1044 C1049 1.379 . S
C1044 N1051 1.356 . S
C1045 C1044 1.363 . S
C1045 C1048 1.363 . S
N1046 C1048 1.356 . S
N1046 H1058 0.984 . S
N1046 H1059 0.985 . S
N1047 C1049 1.356 . S
N1047 H1052 0.984 . S
N1047 H1053 0.985 . S
C1048 C1042 1.379 . S
C1048 C1045 1.363 . S
C1048 N1046 1.356 . S
C1049 C1043 1.363 . S
C1049 C1044 1.379 . S
C1049 N1047 1.356 . S
N1050 C1042 1.356 . S
N1050 H1056 0.984 . S
N1050 H1057 0.984 . S
N1051 C1044 1.356 . S
N1051 H1054 0.984 . S
N1051 H1055 0.985 . S
H1052 N1047 0.984 . S
H1053 N1047 0.985 . S
H1054 N1051 0.984 . S
H1055 N1051 0.985 . S
H1056 N1050 0.984 . S
H1057 N1050 0.984 . S
H1058 N1046 0.984 . S
H1059 N1046 0.985 . S
C1060 C1061 1.363 . S
C1060 C1066 1.379 . S
C1060 N1068 1.356 . S
C1061 C1060 1.363 . S
C1061 C1067 1.363 . S
C1062 C1063 1.363 . S
C1062 C1067 1.379 . S
C1062 N1069 1.356 . S
C1063 C1062 1.363 . S
C1063 C1066 1.363 . S
N1064 C1066 1.356 . S
N1064 H1076 0.984 . S
N1064 H1077 0.985 . S
N1065 C1067 1.356 . S
N1065 H1070 0.984 . S
N1065 H1071 0.985 . S
C1066 C1060 1.379 . S
C1066 C1063 1.363 . S
C1066 N1064 1.356 . S
C1067 C1061 1.363 . S
C1067 C1062 1.379 . S
C1067 N1065 1.356 . S
N1068 C1060 1.356 . S
N1068 H1074 0.984 . S
N1068 H1075 0.984 . S
N1069 C1062 1.356 . S
N1069 H1072 0.984 . S
N1069 H1073 0.985 . S
H1070 N1065 0.984 . S
H1071 N1065 0.985 . S
H1072 N1069 0.984 . S
H1073 N1069 0.985 . S
H1074 N1068 0.984 . S
H1075 N1068 0.984 . S
H1076 N1064 0.984 . S
H1077 N1064 0.985 . S
C1078 C1079 1.363 . S
C1078 C1084 1.379 . S
C1078 N1086 1.356 . S
C1079 C1078 1.363 . S
C1079 C1085 1.363 . S
C1080 C1081 1.363 . S
C1080 C1085 1.379 . S
C1080 N1087 1.356 . S
C1081 C1080 1.363 . S
C1081 C1084 1.363 . S
N1082 C1084 1.356 . S
N1082 H1094 0.984 . S
N1082 H1095 0.985 . S
N1083 C1085 1.356 . S
N1083 H1088 0.984 . S
N1083 H1089 0.985 . S
C1084 C1078 1.379 . S
C1084 C1081 1.363 . S
C1084 N1082 1.356 . S
C1085 C1079 1.363 . S
C1085 C1080 1.379 . S
C1085 N1083 1.356 . S
N1086 C1078 1.356 . S
N1086 H1092 0.984 . S
N1086 H1093 0.984 . S
N1087 C1080 1.356 . S
N1087 H1090 0.984 . S
N1087 H1091 0.985 . S
H1088 N1083 0.984 . S
H1089 N1083 0.985 . S
H1090 N1087 0.984 . S
H1091 N1087 0.985 . S
H1092 N1086 0.984 . S
H1093 N1086 0.984 . S
H1094 N1082 0.984 . S
H1095 N1082 0.985 . S
C1096 C1097 1.363 . S
C1096 C1102 1.379 . S
C1096 N1104 1.356 . S
C1097 C1096 1.363 . S
C1097 C1103 1.363 . S
C1098 C1099 1.363 . S
C1098 C1103 1.379 . S
C1098 N1105 1.356 . S
C1099 C1098 1.363 . S
C1099 C1102 1.363 . S
N1100 C1102 1.356 . S
N1100 H1112 0.984 . S
N1100 H1113 0.985 . S
N1101 C1103 1.356 1_655 S
N1101 H1106 0.984 . S
N1101 H1107 0.985 . S
C1102 C1096 1.379 . S
C1102 C1099 1.363 . S
C1102 N1100 1.356 . S
C1103 C1097 1.363 . S
C1103 C1098 1.379 . S
C1103 N1101 1.356 1_455 S
N1104 C1096 1.356 . S
N1104 H1110 0.984 . S
N1104 H1111 0.984 . S
N1105 C1098 1.356 . S
N1105 H1108 0.984 . S
N1105 H1109 0.985 . S
H1106 N1101 0.984 . S
H1107 N1101 0.985 . S
H1108 N1105 0.984 . S
H1109 N1105 0.985 . S
H1110 N1104 0.984 . S
H1111 N1104 0.984 . S
H1112 N1100 0.984 . S
H1113 N1100 0.985 . S
C1114 C1115 1.363 . S
C1114 C1120 1.379 . S
C1114 N1122 1.356 . S
C1115 C1114 1.363 . S
C1115 C1121 1.363 . S
C1116 C1117 1.363 . S
C1116 C1121 1.379 . S
C1116 N1123 1.356 . S
C1117 C1116 1.363 . S
C1117 C1120 1.363 . S
N1118 C1120 1.356 . S
N1118 H1130 0.984 . S
N1118 H1131 0.985 . S
N1119 C1121 1.356 . S
N1119 H1124 0.984 . S
N1119 H1125 0.985 . S
C1120 C1114 1.379 . S
C1120 C1117 1.363 . S
C1120 N1118 1.356 . S
C1121 C1115 1.363 . S
C1121 C1116 1.379 . S
C1121 N1119 1.356 . S
N1122 C1114 1.356 . S
N1122 H1128 0.984 . S
N1122 H1129 0.984 . S
N1123 C1116 1.356 . S
N1123 H1126 0.984 . S
N1123 H1127 0.985 . S
H1124 N1119 0.984 . S
H1125 N1119 0.985 . S
H1126 N1123 0.984 . S
H1127 N1123 0.985 . S
H1128 N1122 0.984 . S
H1129 N1122 0.984 . S
H1130 N1118 0.984 . S
H1131 N1118 0.985 . S
C1132 C1133 1.363 . S
C1132 C1138 1.379 . S
C1132 N1140 1.356 . S
C1133 C1132 1.363 . S
C1133 C1139 1.363 . S
C1134 C1135 1.363 . S
C1134 C1139 1.379 . S
C1134 N1141 1.356 . S
C1135 C1134 1.363 . S
C1135 C1138 1.363 . S
N1136 C1138 1.356 . S
N1136 H1148 0.984 . S
N1136 H1149 0.985 . S
N1137 C1139 1.356 . S
N1137 H1142 0.984 . S
N1137 H1143 0.985 . S
C1138 C1132 1.379 . S
C1138 C1135 1.363 . S
C1138 N1136 1.356 . S
C1139 C1133 1.363 . S
C1139 C1134 1.379 . S
C1139 N1137 1.356 . S
N1140 C1132 1.356 . S
N1140 H1146 0.984 . S
N1140 H1147 0.984 . S
N1141 C1134 1.356 . S
N1141 H1144 0.984 . S
N1141 H1145 0.985 . S
H1142 N1137 0.984 . S
H1143 N1137 0.985 . S
H1144 N1141 0.984 . S
H1145 N1141 0.985 . S
H1146 N1140 0.984 . S
H1147 N1140 0.984 . S
H1148 N1136 0.984 . S
H1149 N1136 0.985 . S
C1150 C1151 1.363 . S
C1150 C1156 1.379 . S
C1150 N1158 1.356 . S
C1151 C1150 1.363 . S
C1151 C1157 1.363 . S
C1152 C1153 1.363 . S
C1152 C1157 1.379 . S
C1152 N1159 1.356 . S
C1153 C1152 1.363 . S
C1153 C1156 1.363 . S
N1154 C1156 1.356 . S
N1154 H1166 0.984 . S
N1154 H1167 0.985 . S
N1155 C1157 1.356 . S
N1155 H1160 0.984 . S
N1155 H1161 0.985 . S
C1156 C1150 1.379 . S
C1156 C1153 1.363 . S
C1156 N1154 1.356 . S
C1157 C1151 1.363 . S
C1157 C1152 1.379 . S
C1157 N1155 1.356 . S
N1158 C1150 1.356 . S
N1158 H1164 0.984 . S
N1158 H1165 0.984 . S
N1159 C1152 1.356 . S
N1159 H1162 0.984 . S
N1159 H1163 0.985 . S
H1160 N1155 0.984 . S
H1161 N1155 0.985 . S
H1162 N1159 0.984 . S
H1163 N1159 0.985 . S
H1164 N1158 0.984 . S
H1165 N1158 0.984 . S
H1166 N1154 0.984 . S
H1167 N1154 0.985 . S
C1168 C1169 1.363 1_655 S
C1168 C1174 1.379 . S
C1168 N1176 1.356 . S
C1169 C1168 1.363 1_455 S
C1169 C1175 1.363 . S
C1170 C1171 1.363 . S
C1170 C1175 1.379 . S
C1170 N1177 1.356 . S
C1171 C1170 1.363 . S
C1171 C1174 1.363 1_455 S
N1172 C1174 1.356 . S
N1172 H1184 0.984 . S
N1172 H1185 0.985 1_655 S
N1173 C1175 1.356 . S
N1173 H1178 0.984 . S
N1173 H1179 0.985 . S
C1174 C1168 1.379 . S
C1174 C1171 1.363 1_655 S
C1174 N1172 1.356 . S
C1175 C1169 1.363 . S
C1175 C1170 1.379 . S
C1175 N1173 1.356 . S
N1176 C1168 1.356 . S
N1176 H1182 0.984 . S
N1176 H1183 0.984 . S
N1177 C1170 1.356 . S
N1177 H1180 0.984 . S
N1177 H1181 0.985 . S
H1178 N1173 0.984 . S
H1179 N1173 0.985 . S
H1180 N1177 0.984 . S
H1181 N1177 0.985 . S
H1182 N1176 0.984 . S
H1183 N1176 0.984 . S
H1184 N1172 0.984 . S
H1185 N1172 0.985 1_455 S
C1186 C1187 1.363 . S
C1186 C1192 1.379 . S
C1186 N1194 1.356 . S
C1187 C1186 1.363 . S
C1187 C1193 1.363 . S
C1188 C1189 1.363 . S
C1188 C1193 1.379 . S
C1188 N1195 1.356 . S
C1189 C1188 1.363 . S
C1189 C1192 1.363 . S
N1190 C1192 1.356 . S
N1190 H1202 0.984 . S
N1190 H1203 0.985 . S
N1191 C1193 1.356 . S
N1191 H1196 0.984 . S
N1191 H1197 0.985 . S
C1192 C1186 1.379 . S
C1192 C1189 1.363 . S
C1192 N1190 1.356 . S
C1193 C1187 1.363 . S
C1193 C1188 1.379 . S
C1193 N1191 1.356 . S
N1194 C1186 1.356 . S
N1194 H1200 0.984 . S
N1194 H1201 0.984 . S
N1195 C1188 1.356 . S
N1195 H1198 0.984 . S
N1195 H1199 0.985 . S
H1196 N1191 0.984 . S
H1197 N1191 0.985 . S
H1198 N1195 0.984 . S
H1199 N1195 0.985 . S
H1200 N1194 0.984 . S
H1201 N1194 0.984 . S
H1202 N1190 0.984 . S
H1203 N1190 0.985 . S
C1204 C1205 1.363 . S
C1204 C1210 1.379 . S
C1204 N1212 1.356 . S
C1205 C1204 1.363 . S
C1205 C1211 1.363 . S
C1206 C1207 1.363 . S
C1206 C1211 1.379 . S
C1206 N1213 1.356 . S
C1207 C1206 1.363 . S
C1207 C1210 1.363 . S
N1208 C1210 1.356 . S
N1208 H1220 0.984 . S
N1208 H1221 0.985 . S
N1209 C1211 1.356 . S
N1209 H1214 0.984 . S
N1209 H1215 0.985 . S
C1210 C1204 1.379 . S
C1210 C1207 1.363 . S
C1210 N1208 1.356 . S
C1211 C1205 1.363 . S
C1211 C1206 1.379 . S
C1211 N1209 1.356 . S
N1212 C1204 1.356 . S
N1212 H1218 0.984 . S
N1212 H1219 0.984 . S
N1213 C1206 1.356 . S
N1213 H1216 0.984 . S
N1213 H1217 0.985 . S
H1214 N1209 0.984 . S
H1215 N1209 0.985 . S
H1216 N1213 0.984 . S
H1217 N1213 0.985 . S
H1218 N1212 0.984 . S
H1219 N1212 0.984 . S
H1220 N1208 0.984 . S
H1221 N1208 0.985 . S
C1222 C1223 1.363 . S
C1222 C1228 1.379 . S
C1222 N1230 1.356 . S
C1223 C1222 1.363 . S
C1223 C1229 1.363 . S
C1224 C1225 1.363 . S
C1224 C1229 1.379 . S
C1224 N1231 1.356 . S
C1225 C1224 1.363 . S
C1225 C1228 1.363 . S
N1226 C1228 1.356 . S
N1226 H1238 0.984 . S
N1226 H1239 0.985 . S
N1227 C1229 1.356 . S
N1227 H1232 0.984 . S
N1227 H1233 0.985 . S
C1228 C1222 1.379 . S
C1228 C1225 1.363 . S
C1228 N1226 1.356 . S
C1229 C1223 1.363 . S
C1229 C1224 1.379 . S
C1229 N1227 1.356 . S
N1230 C1222 1.356 . S
N1230 H1236 0.984 . S
N1230 H1237 0.984 . S
N1231 C1224 1.356 . S
N1231 H1234 0.984 . S
N1231 H1235 0.985 . S
H1232 N1227 0.984 . S
H1233 N1227 0.985 . S
H1234 N1231 0.984 . S
H1235 N1231 0.985 . S
H1236 N1230 0.984 . S
H1237 N1230 0.984 . S
H1238 N1226 0.984 . S
H1239 N1226 0.985 . S
C1240 C1241 1.363 . S
C1240 C1246 1.379 . S
C1240 N1248 1.356 1_554 S
C1241 C1240 1.363 . S
C1241 C1247 1.363 1_545 S
C1242 C1243 1.363 1_565 S
C1242 C1247 1.379 . S
C1242 N1249 1.356 . S
C1243 C1242 1.363 1_545 S
C1243 C1246 1.363 . S
N1244 C1246 1.356 . S
N1244 H1256 0.984 . S
N1244 H1257 0.985 . S
N1245 C1247 1.356 . S
N1245 H1250 0.984 . S
N1245 H1251 0.985 . S
C1246 C1240 1.379 . S
C1246 C1243 1.363 . S
C1246 N1244 1.356 . S
C1247 C1241 1.363 1_565 S
C1247 C1242 1.379 . S
C1247 N1245 1.356 . S
N1248 C1240 1.356 1_556 S
N1248 H1254 0.984 . S
N1248 H1255 0.984 . S
N1249 C1242 1.356 . S
N1249 H1252 0.984 . S
N1249 H1253 0.985 . S
H1250 N1245 0.984 . S
H1251 N1245 0.985 . S
H1252 N1249 0.984 . S
H1253 N1249 0.985 . S
H1254 N1248 0.984 . S
H1255 N1248 0.984 . S
H1256 N1244 0.984 . S
H1257 N1244 0.985 . S
C1258 C1259 1.363 . S
C1258 C1264 1.379 . S
C1258 N1266 1.356 . S
C1259 C1258 1.363 . S
C1259 C1265 1.363 1_554 S
C1260 C1261 1.363 1_556 S
C1260 C1265 1.379 . S
C1260 N1267 1.356 . S
C1261 C1260 1.363 1_554 S
C1261 C1264 1.363 . S
N1262 C1264 1.356 . S
N1262 H1274 0.984 . S
N1262 H1275 0.985 . S
N1263 C1265 1.356 . S
N1263 H1268 0.984 . S
N1263 H1269 0.985 . S
C1264 C1258 1.379 . S
C1264 C1261 1.363 . S
C1264 N1262 1.356 . S
C1265 C1259 1.363 1_556 S
C1265 C1260 1.379 . S
C1265 N1263 1.356 . S
N1266 C1258 1.356 . S
N1266 H1272 0.984 . S
N1266 H1273 0.984 . S
N1267 C1260 1.356 . S
N1267 H1270 0.984 . S
N1267 H1271 0.985 . S
H1268 N1263 0.984 . S
H1269 N1263 0.985 . S
H1270 N1267 0.984 . S
H1271 N1267 0.985 . S
H1272 N1266 0.984 . S
H1273 N1266 0.984 . S
H1274 N1262 0.984 . S
H1275 N1262 0.985 . S
C1276 C1277 1.363 . S
C1276 C1282 1.379 . S
C1276 N1284 1.356 . S
C1277 C1276 1.363 . S
C1277 C1283 1.363 . S
C1278 C1279 1.363 . S
C1278 C1283 1.379 . S
C1278 N1285 1.356 . S
C1279 C1278 1.363 . S
C1279 C1282 1.363 . S
N1280 C1282 1.356 . S
N1280 H1292 0.984 . S
N1280 H1293 0.985 . S
N1281 C1283 1.356 . S
N1281 H1286 0.984 . S
N1281 H1287 0.985 . S
C1282 C1276 1.379 . S
C1282 C1279 1.363 . S
C1282 N1280 1.356 . S
C1283 C1277 1.363 . S
C1283 C1278 1.379 . S
C1283 N1281 1.356 . S
N1284 C1276 1.356 . S
N1284 H1290 0.984 . S
N1284 H1291 0.984 . S
N1285 C1278 1.356 . S
N1285 H1288 0.984 . S
N1285 H1289 0.985 . S
H1286 N1281 0.984 . S
H1287 N1281 0.985 . S
H1288 N1285 0.984 . S
H1289 N1285 0.985 . S
H1290 N1284 0.984 . S
H1291 N1284 0.984 . S
H1292 N1280 0.984 . S
H1293 N1280 0.985 . S
C1294 C1295 1.363 . S
C1294 C1300 1.379 . S
C1294 N1302 1.356 . S
C1295 C1294 1.363 . S
C1295 C1301 1.363 . S
C1296 C1297 1.363 . S
C1296 C1301 1.379 . S
C1296 N1303 1.356 . S
C1297 C1296 1.363 . S
C1297 C1300 1.363 . S
N1298 C1300 1.356 . S
N1298 H1310 0.984 . S
N1298 H1311 0.948 1_655 S
N1299 C1301 1.356 . S
N1299 H1304 0.984 . S
N1299 H1305 0.985 . S
C1300 C1294 1.379 . S
C1300 C1297 1.363 . S
C1300 N1298 1.356 . S
C1301 C1295 1.363 . S
C1301 C1296 1.379 . S
C1301 N1299 1.356 . S
N1302 C1294 1.356 . S
N1302 H1308 0.984 . S
N1302 H1309 0.984 . S
N1303 C1296 1.356 . S
N1303 H1306 0.984 . S
N1303 H1307 0.985 . S
H1304 N1299 0.984 . S
H1305 N1299 0.985 . S
H1306 N1303 0.984 . S
H1307 N1303 0.985 . S
H1308 N1302 0.984 . S
H1309 N1302 0.984 . S
H1310 N1298 0.984 . S
H1311 N1298 0.948 1_455 S
C1312 C1313 1.363 . S
C1312 C1318 1.379 . S
C1312 N1320 1.356 . S
C1313 C1312 1.363 . S
C1313 C1319 1.363 . S
C1314 C1315 1.363 . S
C1314 C1319 1.379 . S
C1314 N1321 1.356 . S
C1315 C1314 1.363 . S
C1315 C1318 1.363 . S
N1316 C1318 1.356 . S
N1316 H1328 0.984 . S
N1316 H1329 0.985 . S
N1317 C1319 1.356 . S
N1317 H1322 0.984 . S
N1317 H1323 0.985 . S
C1318 C1312 1.379 . S
C1318 C1315 1.363 . S
C1318 N1316 1.356 . S
C1319 C1313 1.363 . S
C1319 C1314 1.379 . S
C1319 N1317 1.356 . S
N1320 C1312 1.356 . S
N1320 H1326 0.984 . S
N1320 H1327 0.984 . S
N1321 C1314 1.356 . S
N1321 H1324 0.984 . S
N1321 H1325 0.985 . S
H1322 N1317 0.984 . S
H1323 N1317 0.985 . S
H1324 N1321 0.984 . S
H1325 N1321 0.985 . S
H1326 N1320 0.984 . S
H1327 N1320 0.984 . S
H1328 N1316 0.984 . S
H1329 N1316 0.985 . S
C1330 C1331 1.363 . S
C1330 C1336 1.379 . S
C1330 N1338 1.356 . S
C1331 C1330 1.363 . S
C1331 C1337 1.363 . S
C1332 C1333 1.363 . S
C1332 C1337 1.379 . S
C1332 N1339 1.356 . S
C1333 C1332 1.363 . S
C1333 C1336 1.363 . S
N1334 C1336 1.356 . S
N1334 H1346 0.984 . S
N1334 H1347 0.985 . S
N1335 C1337 1.356 . S
N1335 H1340 0.984 . S
N1335 H1341 0.985 . S
C1336 C1330 1.379 . S
C1336 C1333 1.363 . S
C1336 N1334 1.356 . S
C1337 C1331 1.363 . S
C1337 C1332 1.379 . S
C1337 N1335 1.356 . S
N1338 C1330 1.356 . S
N1338 H1344 0.984 . S
N1338 H1345 0.984 . S
N1339 C1332 1.356 . S
N1339 H1342 0.984 . S
N1339 H1343 0.985 . S
H1340 N1335 0.984 . S
H1341 N1335 0.985 . S
H1342 N1339 0.984 . S
H1343 N1339 0.985 . S
H1344 N1338 0.984 . S
H1345 N1338 0.984 . S
H1346 N1334 0.984 . S
H1347 N1334 0.985 . S
C1348 C1349 1.363 . S
C1348 C1354 1.379 . S
C1348 N1356 1.356 . S
C1349 C1348 1.363 . S
C1349 C1355 1.363 . S
C1350 C1351 1.363 . S
C1350 C1355 1.379 . S
C1350 N1357 1.356 . S
C1351 C1350 1.363 . S
C1351 C1354 1.363 . S
N1352 C1354 1.356 . S
N1352 H1364 0.984 . S
N1352 H1365 0.985 . S
N1353 C1355 1.356 . S
N1353 H1358 0.984 . S
N1353 H1359 0.985 . S
C1354 C1348 1.379 . S
C1354 C1351 1.363 . S
C1354 N1352 1.356 . S
C1355 C1349 1.363 . S
C1355 C1350 1.379 . S
C1355 N1353 1.356 . S
N1356 C1348 1.356 . S
N1356 H1362 0.984 . S
N1356 H1363 0.984 . S
N1357 C1350 1.356 . S
N1357 H1360 0.984 . S
N1357 H1361 0.985 . S
H1358 N1353 0.984 . S
H1359 N1353 0.985 . S
H1360 N1357 0.984 . S
H1361 N1357 0.985 . S
H1362 N1356 0.984 . S
H1363 N1356 0.984 . S
H1364 N1352 0.984 . S
H1365 N1352 0.985 . S
C1366 C1367 1.363 . S
C1366 C1372 1.379 . S
C1366 N1374 1.356 . S
C1367 C1366 1.363 . S
C1367 C1373 1.363 . S
C1368 C1369 1.363 . S
C1368 C1373 1.379 . S
C1368 N1375 1.356 . S
C1369 C1368 1.363 . S
C1369 C1372 1.363 . S
N1370 C1372 1.356 . S
N1370 H1382 0.984 . S
N1370 H1383 0.985 . S
N1371 C1373 1.356 . S
N1371 H1376 0.984 . S
N1371 H1377 0.985 . S
C1372 C1366 1.379 . S
C1372 C1369 1.363 . S
C1372 N1370 1.356 . S
C1373 C1367 1.363 . S
C1373 C1368 1.379 . S
C1373 N1371 1.356 . S
N1374 C1366 1.356 . S
N1374 H1380 0.984 . S
N1374 H1381 0.984 . S
N1375 C1368 1.356 . S
N1375 H1378 0.984 . S
N1375 H1379 0.985 . S
H1376 N1371 0.984 . S
H1377 N1371 0.985 . S
H1378 N1375 0.984 . S
H1379 N1375 0.985 . S
H1380 N1374 0.984 . S
H1381 N1374 0.984 . S
H1382 N1370 0.984 . S
H1383 N1370 0.985 . S
C1384 C1385 1.363 . S
C1384 C1390 1.379 . S
C1384 N1392 1.356 . S
C1385 C1384 1.363 . S
C1385 C1391 1.363 . S
C1386 C1387 1.363 . S
C1386 C1391 1.379 . S
C1386 N1393 1.356 . S
C1387 C1386 1.363 . S
C1387 C1390 1.363 . S
N1388 C1390 1.356 . S
N1388 H1400 0.984 . S
N1388 H1401 0.985 . S
N1389 C1391 1.356 . S
N1389 H1394 0.984 . S
N1389 H1395 0.985 . S
C1390 C1384 1.379 . S
C1390 C1387 1.363 . S
C1390 N1388 1.356 . S
C1391 C1385 1.363 . S
C1391 C1386 1.379 . S
C1391 N1389 1.356 . S
N1392 C1384 1.356 . S
N1392 H1398 0.984 . S
N1392 H1399 0.984 . S
N1393 C1386 1.356 . S
N1393 H1396 0.984 . S
N1393 H1397 0.985 . S
H1394 N1389 0.984 . S
H1395 N1389 0.985 . S
H1396 N1393 0.984 . S
H1397 N1393 0.985 . S
H1398 N1392 0.984 . S
H1399 N1392 0.984 . S
H1400 N1388 0.984 . S
H1401 N1388 0.985 . S
C1402 C1403 1.363 . S
C1402 C1408 1.379 . S
C1402 N1410 1.356 . S
C1403 C1402 1.363 . S
C1403 C1409 1.363 . S
C1404 C1405 1.363 . S
C1404 C1409 1.379 . S
C1404 N1411 1.356 . S
C1405 C1404 1.363 . S
C1405 C1408 1.363 . S
N1406 C1408 1.356 . S
N1406 H1418 0.984 . S
N1406 H1419 0.985 . S
N1407 C1409 1.356 . S
N1407 H1412 0.984 . S
N1407 H1413 0.985 . S
C1408 C1402 1.379 . S
C1408 C1405 1.363 . S
C1408 N1406 1.356 . S
C1409 C1403 1.363 . S
C1409 C1404 1.379 . S
C1409 N1407 1.356 . S
N1410 C1402 1.356 . S
N1410 H1416 0.984 . S
N1410 H1417 0.984 . S
N1411 C1404 1.356 . S
N1411 H1414 0.984 . S
N1411 H1415 0.985 . S
H1412 N1407 0.984 . S
H1413 N1407 0.985 . S
H1414 N1411 0.984 . S
H1415 N1411 0.985 . S
H1416 N1410 0.984 . S
H1417 N1410 0.984 . S
H1418 N1406 0.984 . S
H1419 N1406 0.985 . S
C1420 C1421 1.363 . S
C1420 C1426 1.379 . S
C1420 N1428 1.356 . S
C1421 C1420 1.363 . S
C1421 C1427 1.363 . S
C1422 C1423 1.363 . S
C1422 C1427 1.379 . S
C1422 N1429 1.356 . S
C1423 C1422 1.363 . S
C1423 C1426 1.363 . S
N1424 C1426 1.356 . S
N1424 H1436 0.984 . S
N1424 H1437 0.985 . S
N1425 C1427 1.356 . S
N1425 H1430 0.984 . S
N1425 H1431 0.985 . S
C1426 C1420 1.379 . S
C1426 C1423 1.363 . S
C1426 N1424 1.356 . S
C1427 C1421 1.363 . S
C1427 C1422 1.379 . S
C1427 N1425 1.356 . S
N1428 C1420 1.356 . S
N1428 H1434 0.984 . S
N1428 H1435 0.984 . S
N1429 C1422 1.356 . S
N1429 H1432 0.984 . S
N1429 H1433 0.985 . S
H1430 N1425 0.984 . S
H1431 N1425 0.985 . S
H1432 N1429 0.984 . S
H1433 N1429 0.985 . S
H1434 N1428 0.984 . S
H1435 N1428 0.984 . S
H1436 N1424 0.984 . S
H1437 N1424 0.985 . S
C1438 C1439 1.363 . S
C1438 C1444 1.379 . S
C1438 N1446 1.356 . S
C1439 C1438 1.363 . S
C1439 C1445 1.363 . S
C1440 C1441 1.363 . S
C1440 C1445 1.379 . S
C1440 N1447 1.356 . S
C1441 C1440 1.363 . S
C1441 C1444 1.363 . S
N1442 C1444 1.356 . S
N1442 H1454 0.984 . S
N1442 H1455 0.985 . S
N1443 C1445 1.356 . S
N1443 H1448 0.984 . S
N1443 H1449 0.985 . S
C1444 C1438 1.379 . S
C1444 C1441 1.363 . S
C1444 N1442 1.356 . S
C1445 C1439 1.363 . S
C1445 C1440 1.379 . S
C1445 N1443 1.356 . S
N1446 C1438 1.356 . S
N1446 H1452 0.984 . S
N1446 H1453 0.984 . S
N1447 C1440 1.356 . S
N1447 H1450 0.984 . S
N1447 H1451 0.985 . S
H1448 N1443 0.984 . S
H1449 N1443 0.985 . S
H1450 N1447 0.984 . S
H1451 N1447 0.985 . S
H1452 N1446 0.984 . S
H1453 N1446 0.984 . S
H1454 N1442 0.984 . S
H1455 N1442 0.985 . S
C1456 C1457 1.363 . S
C1456 C1462 1.379 . S
C1456 N1464 1.356 . S
C1457 C1456 1.363 . S
C1457 C1463 1.363 . S
C1458 C1459 1.363 . S
C1458 C1463 1.379 . S
C1458 N1465 1.356 . S
C1459 C1458 1.363 . S
C1459 C1462 1.363 . S
N1460 C1462 1.356 . S
N1460 H1472 0.984 . S
N1460 H1473 0.985 . S
N1461 C1463 1.356 . S
N1461 H1466 0.984 . S
N1461 H1467 0.985 . S
C1462 C1456 1.379 . S
C1462 C1459 1.363 . S
C1462 N1460 1.356 . S
C1463 C1457 1.363 . S
C1463 C1458 1.379 . S
C1463 N1461 1.356 . S
N1464 C1456 1.356 . S
N1464 H1470 0.984 . S
N1464 H1471 0.984 . S
N1465 C1458 1.356 . S
N1465 H1468 0.984 . S
N1465 H1469 0.985 . S
H1466 N1461 0.984 . S
H1467 N1461 0.985 . S
H1468 N1465 0.984 . S
H1469 N1465 0.985 . S
H1470 N1464 0.984 . S
H1471 N1464 0.984 . S
H1472 N1460 0.984 . S
H1473 N1460 0.985 . S
C1474 C1475 1.363 . S
C1474 C1480 1.379 . S
C1474 N1482 1.356 . S
C1475 C1474 1.363 . S
C1475 C1481 1.363 . S
C1476 C1477 1.363 . S
C1476 C1481 1.379 . S
C1476 N1483 1.356 . S
C1477 C1476 1.363 . S
C1477 C1480 1.363 . S
N1478 C1480 1.356 . S
N1478 H1490 0.984 . S
N1478 H1491 0.985 . S
N1479 C1481 1.356 . S
N1479 H1484 0.984 . S
N1479 H1485 0.985 . S
C1480 C1474 1.379 . S
C1480 C1477 1.363 . S
C1480 N1478 1.356 . S
C1481 C1475 1.363 . S
C1481 C1476 1.379 . S
C1481 N1479 1.356 . S
N1482 C1474 1.356 . S
N1482 H1488 0.984 . S
N1482 H1489 0.984 . S
N1483 C1476 1.356 . S
N1483 H1486 0.984 . S
N1483 H1487 0.985 . S
H1484 N1479 0.984 . S
H1485 N1479 0.985 . S
H1486 N1483 0.984 . S
H1487 N1483 0.985 . S
H1488 N1482 0.984 . S
H1489 N1482 0.984 . S
H1490 N1478 0.984 . S
H1491 N1478 0.985 . S
C1492 C1493 1.363 . S
C1492 C1498 1.379 . S
C1492 N1500 1.356 . S
C1493 C1492 1.363 . S
C1493 C1499 1.363 . S
C1494 C1495 1.363 . S
C1494 C1499 1.379 . S
C1494 N1501 1.356 1_556 S
C1495 C1494 1.363 . S
C1495 C1498 1.363 . S
N1496 C1498 1.356 . S
N1496 H1508 0.984 1_565 S
N1496 H1509 0.981 1_565 S
N1497 C1499 1.356 . S
N1497 H1502 0.984 . S
N1497 H1503 0.985 1_556 S
C1498 C1492 1.379 . S
C1498 C1495 1.363 . S
C1498 N1496 1.356 . S
C1499 C1493 1.363 . S
C1499 C1494 1.379 . S
C1499 N1497 1.356 . S
N1500 C1492 1.356 . S
N1500 H1506 0.984 . S
N1500 H1507 0.984 . S
N1501 C1494 1.356 1_554 S
N1501 H1504 0.984 . S
N1501 H1505 0.985 . S
H1502 N1497 0.984 . S
H1503 N1497 0.985 1_554 S
H1504 N1501 0.984 . S
H1505 N1501 0.985 . S
H1506 N1500 0.984 . S
H1507 N1500 0.984 . S
H1508 N1496 0.984 1_545 S
H1509 N1496 0.981 1_545 S
C1510 C1511 1.363 . S
C1510 C1516 1.379 . S
C1510 N1518 1.356 . S
C1511 C1510 1.363 . S
C1511 C1517 1.363 . S
C1512 C1513 1.363 . S
C1512 C1517 1.379 . S
C1512 N1519 1.356 . S
C1513 C1512 1.363 . S
C1513 C1516 1.363 . S
N1514 C1516 1.356 . S
N1514 H1526 0.984 . S
N1514 H1527 0.985 . S
N1515 C1517 1.356 . S
N1515 H1520 0.984 . S
N1515 H1521 0.985 . S
C1516 C1510 1.379 . S
C1516 C1513 1.363 . S
C1516 N1514 1.356 . S
C1517 C1511 1.363 . S
C1517 C1512 1.379 . S
C1517 N1515 1.356 . S
N1518 C1510 1.356 . S
N1518 H1524 0.984 . S
N1518 H1525 0.984 . S
N1519 C1512 1.356 . S
N1519 H1522 0.984 . S
N1519 H1523 0.985 . S
H1520 N1515 0.984 . S
H1521 N1515 0.985 . S
H1522 N1519 0.984 . S
H1523 N1519 0.985 . S
H1524 N1518 0.984 . S
H1525 N1518 0.984 . S
H1526 N1514 0.984 . S
H1527 N1514 0.985 . S
C1528 C1529 1.363 1_565 S
C1528 C1534 1.379 1_565 S
C1528 N1536 1.356 . S
C1529 C1528 1.363 1_545 S
C1529 C1535 1.363 . S
C1530 C1531 1.363 . S
C1530 C1535 1.379 . S
C1530 N1537 1.356 . S
C1531 C1530 1.363 . S
C1531 C1534 1.378 . S
N1532 C1534 1.344 1_565 S
N1532 H1544 0.984 . S
N1532 H1545 0.985 . S
N1533 C1535 1.356 . S
N1533 H1538 0.984 . S
N1533 H1539 0.985 . S
C1534 C1528 1.379 1_545 S
C1534 C1531 1.378 . S
C1534 N1532 1.344 1_545 S
C1535 C1529 1.363 . S
C1535 C1530 1.379 . S
C1535 N1533 1.356 . S
N1536 C1528 1.356 . S
N1536 H1542 0.984 . S
N1536 H1543 0.984 . S
N1537 C1530 1.356 . S
N1537 H1540 0.984 . S
N1537 H1541 0.985 . S
H1538 N1533 0.984 . S
H1539 N1533 0.985 . S
H1540 N1537 0.984 . S
H1541 N1537 0.985 . S
H1542 N1536 0.984 . S
H1543 N1536 0.984 . S
H1544 N1532 0.984 . S
H1545 N1532 0.985 . S
C1546 C1547 1.363 . S
C1546 C1552 1.379 . S
C1546 N1554 1.356 . S
C1547 C1546 1.363 . S
C1547 C1553 1.363 . S
C1548 C1549 1.363 . S
C1548 C1553 1.379 . S
C1548 N1555 1.356 . S
C1549 C1548 1.363 . S
C1549 C1552 1.363 . S
N1550 C1552 1.356 . S
N1550 H1562 0.984 . S
N1550 H1563 0.985 . S
N1551 C1553 1.356 . S
N1551 H1556 0.984 . S
N1551 H1557 0.985 . S
C1552 C1546 1.379 . S
C1552 C1549 1.363 . S
C1552 N1550 1.356 . S
C1553 C1547 1.363 . S
C1553 C1548 1.379 . S
C1553 N1551 1.356 . S
N1554 C1546 1.356 . S
N1554 H1560 0.984 . S
N1554 H1561 0.984 . S
N1555 C1548 1.356 . S
N1555 H1558 0.984 . S
N1555 H1559 0.985 . S
H1556 N1551 0.984 . S
H1557 N1551 0.985 . S
H1558 N1555 0.984 . S
H1559 N1555 0.985 . S
H1560 N1554 0.984 . S
H1561 N1554 0.984 . S
H1562 N1550 0.984 . S
H1563 N1550 0.985 . S
C1564 C1565 1.363 . S
C1564 C1570 1.379 . S
C1564 N1572 1.356 . S
C1565 C1564 1.363 . S
C1565 C1571 1.363 . S
C1566 C1567 1.363 . S
C1566 C1571 1.379 . S
C1566 N1573 1.356 . S
C1567 C1566 1.363 . S
C1567 C1570 1.363 . S
N1568 C1570 1.356 . S
N1568 H1580 0.984 . S
N1568 H1581 0.985 . S
N1569 C1571 1.356 1_565 S
N1569 H1574 0.984 . S
N1569 H1575 0.985 . S
C1570 C1564 1.379 . S
C1570 C1567 1.363 . S
C1570 N1568 1.356 . S
C1571 C1565 1.363 . S
C1571 C1566 1.379 . S
C1571 N1569 1.356 1_545 S
N1572 C1564 1.356 . S
N1572 H1578 0.984 . S
N1572 H1579 0.984 . S
N1573 C1566 1.356 . S
N1573 H1576 0.984 . S
N1573 H1577 0.985 . S
H1574 N1569 0.984 . S
H1575 N1569 0.985 . S
H1576 N1573 0.984 . S
H1577 N1573 0.985 . S
H1578 N1572 0.984 . S
H1579 N1572 0.984 . S
H1580 N1568 0.984 . S
H1581 N1568 0.985 . S
C1582 C1583 1.363 . S
C1582 C1588 1.379 . S
C1582 N1590 1.356 . S
C1583 C1582 1.363 . S
C1583 C1589 1.363 . S
C1584 C1585 1.363 . S
C1584 C1589 1.379 . S
C1584 N1591 1.356 . S
C1585 C1584 1.363 . S
C1585 C1588 1.363 . S
N1586 C1588 1.356 . S
N1586 H1598 0.984 . S
N1586 H1599 0.985 . S
N1587 C1589 1.356 . S
N1587 H1592 0.984 . S
N1587 H1593 0.985 . S
C1588 C1582 1.379 . S
C1588 C1585 1.363 . S
C1588 N1586 1.356 . S
C1589 C1583 1.363 . S
C1589 C1584 1.379 . S
C1589 N1587 1.356 . S
N1590 C1582 1.356 . S
N1590 H1596 0.984 . S
N1590 H1597 0.984 . S
N1591 C1584 1.356 . S
N1591 H1594 0.984 . S
N1591 H1595 0.985 . S
H1592 N1587 0.984 . S
H1593 N1587 0.985 . S
H1594 N1591 0.984 . S
H1595 N1591 0.985 . S
H1596 N1590 0.984 . S
H1597 N1590 0.984 . S
H1598 N1586 0.984 . S
H1599 N1586 0.985 . S
C1600 C1601 1.363 . S
C1600 C1606 1.379 . S
C1600 N1608 1.356 . S
C1601 C1600 1.363 . S
C1601 C1607 1.363 . S
C1602 C1603 1.363 . S
C1602 C1607 1.379 . S
C1602 N1609 1.356 . S
C1603 C1602 1.363 . S
C1603 C1606 1.363 . S
N1604 C1606 1.356 . S
N1604 H1616 0.984 . S
N1604 H1617 0.985 . S
N1605 C1607 1.356 1_565 S
N1605 H1610 0.984 . S
N1605 H1611 0.985 . S
C1606 C1600 1.379 . S
C1606 C1603 1.363 . S
C1606 N1604 1.356 . S
C1607 C1601 1.363 . S
C1607 C1602 1.379 . S
C1607 N1605 1.356 1_545 S
N1608 C1600 1.356 . S
N1608 H1614 0.984 . S
N1608 H1615 0.984 . S
N1609 C1602 1.356 . S
N1609 H1612 0.984 . S
N1609 H1613 0.985 1_545 S
H1610 N1605 0.984 . S
H1611 N1605 0.985 . S
H1612 N1609 0.984 . S
H1613 N1609 0.985 1_565 S
H1614 N1608 0.984 . S
H1615 N1608 0.984 . S
H1616 N1604 0.984 . S
H1617 N1604 0.985 . S
C1618 C1619 1.363 . S
C1618 C1624 1.379 . S
C1618 N1626 1.356 . S
C1619 C1618 1.363 . S
C1619 C1625 1.363 . S
C1620 C1621 1.363 . S
C1620 C1625 1.379 . S
C1620 N1627 1.356 . S
C1621 C1620 1.363 . S
C1621 C1624 1.363 . S
N1622 C1624 1.356 . S
N1622 H1634 0.984 . S
N1622 H1635 0.985 . S
N1623 C1625 1.356 . S
N1623 H1628 0.984 . S
N1623 H1629 0.985 . S
C1624 C1618 1.379 . S
C1624 C1621 1.363 . S
C1624 N1622 1.356 . S
C1625 C1619 1.363 . S
C1625 C1620 1.379 . S
C1625 N1623 1.356 . S
N1626 C1618 1.356 . S
N1626 H1632 0.984 . S
N1626 H1633 0.984 . S
N1627 C1620 1.356 . S
N1627 H1630 0.984 . S
N1627 H1631 0.985 . S
H1628 N1623 0.984 . S
H1629 N1623 0.985 . S
H1630 N1627 0.984 . S
H1631 N1627 0.985 . S
H1632 N1626 0.984 . S
H1633 N1626 0.984 . S
H1634 N1622 0.984 . S
H1635 N1622 0.985 . S
C1636 C1637 1.363 . S
C1636 C1642 1.379 . S
C1636 N1644 1.356 . S
C1637 C1636 1.363 . S
C1637 C1643 1.363 1_565 S
C1638 C1639 1.363 1_545 S
C1638 C1643 1.379 . S
C1638 N1645 1.356 . S
C1639 C1638 1.363 1_565 S
C1639 C1642 1.363 . S
N1640 C1642 1.356 . S
N1640 H1652 0.984 . S
N1640 H1653 0.985 . S
N1641 C1643 1.356 . S
N1641 H1646 0.984 . S
N1641 H1647 0.985 . S
C1642 C1636 1.379 . S
C1642 C1639 1.363 . S
C1642 N1640 1.356 . S
C1643 C1637 1.363 1_545 S
C1643 C1638 1.379 . S
C1643 N1641 1.356 . S
N1644 C1636 1.356 . S
N1644 H1650 0.984 . S
N1644 H1651 0.984 . S
N1645 C1638 1.356 . S
N1645 H1648 0.984 . S
N1645 H1649 0.985 . S
H1646 N1641 0.984 . S
H1647 N1641 0.985 . S
H1648 N1645 0.984 . S
H1649 N1645 0.985 . S
H1650 N1644 0.984 . S
H1651 N1644 0.984 . S
H1652 N1640 0.984 . S
H1653 N1640 0.985 . S
C1654 C1655 1.363 . S
C1654 C1660 1.379 . S
C1654 N1662 1.356 . S
C1655 C1654 1.363 . S
C1655 C1661 1.363 . S
C1656 C1657 1.363 . S
C1656 C1661 1.379 . S
C1656 N1663 1.356 . S
C1657 C1656 1.363 . S
C1657 C1660 1.363 . S
N1658 C1660 1.356 . S
N1658 H1670 0.984 . S
N1658 H1671 0.985 . S
N1659 C1661 1.356 . S
N1659 H1664 0.984 . S
N1659 H1665 0.985 . S
C1660 C1654 1.379 . S
C1660 C1657 1.363 . S
C1660 N1658 1.356 . S
C1661 C1655 1.363 . S
C1661 C1656 1.379 . S
C1661 N1659 1.356 . S
N1662 C1654 1.356 . S
N1662 H1668 0.984 . S
N1662 H1669 0.984 . S
N1663 C1656 1.356 . S
N1663 H1666 0.984 . S
N1663 H1667 0.985 . S
H1664 N1659 0.984 . S
H1665 N1659 0.985 . S
H1666 N1663 0.984 . S
H1667 N1663 0.985 . S
H1668 N1662 0.984 . S
H1669 N1662 0.984 . S
H1670 N1658 0.984 . S
H1671 N1658 0.985 . S
C1672 C1673 1.363 . S
C1672 C1678 1.379 . S
C1672 N1680 1.356 . S
C1673 C1672 1.363 . S
C1673 C1679 1.363 1_554 S
C1674 C1675 1.363 1_556 S
C1674 C1679 1.379 . S
C1674 N1681 1.356 . S
C1675 C1674 1.363 1_554 S
C1675 C1678 1.363 . S
N1676 C1678 1.356 . S
N1676 H1688 0.984 . S
N1676 H1689 0.985 . S
N1677 C1679 1.356 . S
N1677 H1682 0.984 . S
N1677 H1683 0.985 . S
C1678 C1672 1.379 . S
C1678 C1675 1.363 . S
C1678 N1676 1.356 . S
C1679 C1673 1.363 1_556 S
C1679 C1674 1.379 . S
C1679 N1677 1.356 . S
N1680 C1672 1.356 . S
N1680 H1686 0.984 . S
N1680 H1687 0.984 . S
N1681 C1674 1.356 . S
N1681 H1684 0.984 . S
N1681 H1685 0.985 . S
H1682 N1677 0.984 . S
H1683 N1677 0.985 . S
H1684 N1681 0.984 . S
H1685 N1681 0.985 . S
H1686 N1680 0.984 . S
H1687 N1680 0.984 . S
H1688 N1676 0.984 . S
H1689 N1676 0.985 . S
C1690 C1691 1.363 . S
C1690 C1696 1.379 . S
C1690 N1698 1.356 1_554 S
C1691 C1690 1.363 . S
C1691 C1697 1.363 . S
C1692 C1693 1.363 . S
C1692 C1697 1.379 . S
C1692 N1699 1.356 . S
C1693 C1692 1.363 . S
C1693 C1696 1.363 . S
N1694 C1696 1.356 1_556 S
N1694 H1706 0.984 . S
N1694 H1707 0.985 . S
N1695 C1697 1.356 . S
N1695 H1700 0.984 . S
N1695 H1701 0.985 . S
C1696 C1690 1.379 . S
C1696 C1693 1.363 . S
C1696 N1694 1.356 1_554 S
C1697 C1691 1.363 . S
C1697 C1692 1.379 . S
C1697 N1695 1.356 . S
N1698 C1690 1.356 1_556 S
N1698 H1704 0.984 . S
N1698 H1705 0.984 1_556 S
N1699 C1692 1.356 . S
N1699 H1702 0.984 . S
N1699 H1703 0.985 . S
H1700 N1695 0.984 . S
H1701 N1695 0.985 . S
H1702 N1699 0.984 . S
H1703 N1699 0.985 . S
H1704 N1698 0.984 . S
H1705 N1698 0.984 1_554 S
H1706 N1694 0.984 . S
H1707 N1694 0.985 . S
C1708 C1709 1.363 . S
C1708 C1714 1.379 . S
C1708 N1716 1.356 . S
C1709 C1708 1.363 . S
C1709 C1715 1.363 . S
C1710 C1711 1.363 . S
C1710 C1715 1.379 . S
C1710 N1717 1.356 . S
C1711 C1710 1.363 . S
C1711 C1714 1.363 . S
N1712 C1714 1.356 . S
N1712 H1724 0.984 . S
N1712 H1725 0.985 . S
N1713 C1715 1.356 . S
N1713 H1718 0.984 . S
N1713 H1719 0.985 . S
C1714 C1708 1.379 . S
C1714 C1711 1.363 . S
C1714 N1712 1.356 . S
C1715 C1709 1.363 . S
C1715 C1710 1.379 . S
C1715 N1713 1.356 . S
N1716 C1708 1.356 . S
N1716 H1722 0.984 . S
N1716 H1723 0.984 . S
N1717 C1710 1.356 . S
N1717 H1720 0.984 . S
N1717 H1721 0.985 . S
H1718 N1713 0.984 . S
H1719 N1713 0.985 . S
H1720 N1717 0.984 . S
H1721 N1717 0.985 . S
H1722 N1716 0.984 . S
H1723 N1716 0.984 . S
H1724 N1712 0.984 . S
H1725 N1712 0.985 . S
C1726 C1727 1.363 . S
C1726 C1732 1.379 . S
C1726 N1734 1.356 . S
C1727 C1726 1.363 . S
C1727 C1733 1.363 . S
C1728 C1729 1.363 . S
C1728 C1733 1.379 . S
C1728 N1735 1.356 . S
C1729 C1728 1.363 . S
C1729 C1732 1.363 . S
N1730 C1732 1.356 . S
N1730 H1742 0.984 . S
N1730 H1743 0.985 . S
N1731 C1733 1.356 . S
N1731 H1736 0.984 . S
N1731 H1737 0.985 . S
C1732 C1726 1.379 . S
C1732 C1729 1.363 . S
C1732 N1730 1.356 . S
C1733 C1727 1.363 . S
C1733 C1728 1.379 . S
C1733 N1731 1.356 . S
N1734 C1726 1.356 . S
N1734 H1740 0.984 . S
N1734 H1741 0.984 . S
N1735 C1728 1.356 . S
N1735 H1738 0.984 . S
N1735 H1739 0.985 . S
H1736 N1731 0.984 . S
H1737 N1731 0.985 . S
H1738 N1735 0.984 . S
H1739 N1735 0.985 . S
H1740 N1734 0.984 . S
H1741 N1734 0.984 . S
H1742 N1730 0.984 . S
H1743 N1730 0.985 . S
C1744 C1745 1.363 . S
C1744 C1750 1.379 . S
C1744 N1752 1.356 . S
C1745 C1744 1.363 . S
C1745 C1751 1.363 1_545 S
C1746 C1747 1.363 . S
C1746 C1751 1.379 . S
C1746 N1753 1.356 . S
C1747 C1746 1.363 . S
C1747 C1750 1.363 1_565 S
N1748 C1750 1.356 . S
N1748 H1760 0.984 . S
N1748 H1761 0.985 . S
N1749 C1751 1.356 . S
N1749 H1754 0.984 . S
N1749 H1755 0.985 . S
C1750 C1744 1.379 . S
C1750 C1747 1.363 1_545 S
C1750 N1748 1.356 . S
C1751 C1745 1.363 1_565 S
C1751 C1746 1.379 . S
C1751 N1749 1.356 . S
N1752 C1744 1.356 . S
N1752 H1758 0.984 . S
N1752 H1759 0.984 . S
N1753 C1746 1.356 . S
N1753 H1756 0.984 . S
N1753 H1757 0.985 . S
H1754 N1749 0.984 . S
H1755 N1749 0.985 . S
H1756 N1753 0.984 . S
H1757 N1753 0.985 . S
H1758 N1752 0.984 . S
H1759 N1752 0.984 . S
H1760 N1748 0.984 . S
H1761 N1748 0.985 . S
C1762 C1763 1.363 . S
C1762 C1768 1.379 . S
C1762 N1770 1.356 . S
C1763 C1762 1.363 . S
C1763 C1769 1.363 . S
C1764 C1765 1.363 . S
C1764 C1769 1.379 . S
C1764 N1771 1.356 . S
C1765 C1764 1.363 . S
C1765 C1768 1.363 . S
N1766 C1768 1.356 . S
N1766 H1778 0.984 . S
N1766 H1779 0.985 . S
N1767 C1769 1.356 . S
N1767 H1772 0.984 . S
N1767 H1773 0.985 . S
C1768 C1762 1.379 . S
C1768 C1765 1.363 . S
C1768 N1766 1.356 . S
C1769 C1763 1.363 . S
C1769 C1764 1.379 . S
C1769 N1767 1.356 . S
N1770 C1762 1.356 . S
N1770 H1776 0.984 . S
N1770 H1777 0.984 . S
N1771 C1764 1.356 . S
N1771 H1774 0.984 . S
N1771 H1775 0.985 . S
H1772 N1767 0.984 . S
H1773 N1767 0.985 . S
H1774 N1771 0.984 . S
H1775 N1771 0.985 . S
H1776 N1770 0.984 . S
H1777 N1770 0.984 . S
H1778 N1766 0.984 . S
H1779 N1766 0.985 . S
C1780 C1781 1.363 . S
C1780 C1786 1.379 . S
C1780 N1788 1.356 . S
C1781 C1780 1.363 . S
C1781 C1787 1.363 . S
C1782 C1783 1.363 . S
C1782 C1787 1.379 . S
C1782 N1789 1.356 . S
C1783 C1782 1.363 . S
C1783 C1786 1.363 . S
N1784 C1786 1.356 . S
N1784 H1796 0.984 . S
N1784 H1797 0.985 . S
N1785 C1787 1.356 . S
N1785 H1790 0.984 . S
N1785 H1791 0.985 . S
C1786 C1780 1.379 . S
C1786 C1783 1.363 . S
C1786 N1784 1.356 . S
C1787 C1781 1.363 . S
C1787 C1782 1.379 . S
C1787 N1785 1.356 . S
N1788 C1780 1.356 . S
N1788 H1794 0.984 . S
N1788 H1795 0.984 . S
N1789 C1782 1.356 . S
N1789 H1792 0.984 . S
N1789 H1793 0.985 . S
H1790 N1785 0.984 . S
H1791 N1785 0.985 . S
H1792 N1789 0.984 . S
H1793 N1789 0.985 . S
H1794 N1788 0.984 . S
H1795 N1788 0.984 . S
H1796 N1784 0.984 . S
H1797 N1784 0.985 . S
C1798 C1799 1.363 . S
C1798 C1804 1.379 . S
C1798 N1806 1.356 . S
C1799 C1798 1.363 . S
C1799 C1805 1.363 . S
C1800 C1801 1.363 . S
C1800 C1805 1.379 . S
C1800 N1807 1.356 . S
C1801 C1800 1.363 . S
C1801 C1804 1.363 . S
N1802 C1804 1.356 . S
N1802 H1814 0.984 . S
N1802 H1815 0.985 . S
N1803 C1805 1.356 . S
N1803 H1808 0.984 . S
N1803 H1809 0.985 . S
C1804 C1798 1.379 . S
C1804 C1801 1.363 . S
C1804 N1802 1.356 . S
C1805 C1799 1.363 . S
C1805 C1800 1.379 . S
C1805 N1803 1.356 . S
N1806 C1798 1.356 . S
N1806 H1812 0.984 . S
N1806 H1813 0.984 . S
N1807 C1800 1.356 . S
N1807 H1810 0.984 . S
N1807 H1811 0.985 . S
H1808 N1803 0.984 . S
H1809 N1803 0.985 . S
H1810 N1807 0.984 . S
H1811 N1807 0.985 . S
H1812 N1806 0.984 . S
H1813 N1806 0.984 . S
H1814 N1802 0.984 . S
H1815 N1802 0.985 . S
C1816 C1817 1.363 . S
C1816 C1822 1.379 . S
C1816 N1824 1.356 . S
C1817 C1816 1.363 . S
C1817 C1823 1.363 . S
C1818 C1819 1.363 . S
C1818 C1823 1.379 . S
C1818 N1825 1.356 . S
C1819 C1818 1.363 . S
C1819 C1822 1.363 . S
N1820 C1822 1.356 . S
N1820 H1832 0.984 . S
N1820 H1833 0.985 . S
N1821 C1823 1.356 . S
N1821 H1826 0.984 . S
N1821 H1827 0.985 . S
C1822 C1816 1.379 . S
C1822 C1819 1.363 . S
C1822 N1820 1.356 . S
C1823 C1817 1.363 . S
C1823 C1818 1.379 . S
C1823 N1821 1.356 . S
N1824 C1816 1.356 . S
N1824 H1830 0.984 . S
N1824 H1831 0.984 . S
N1825 C1818 1.356 . S
N1825 H1828 0.984 . S
N1825 H1829 0.985 . S
H1826 N1821 0.984 . S
H1827 N1821 0.985 . S
H1828 N1825 0.984 . S
H1829 N1825 0.985 . S
H1830 N1824 0.984 . S
H1831 N1824 0.984 . S
H1832 N1820 0.984 . S
H1833 N1820 0.985 . S
C1834 C1835 1.363 . S
C1834 C1840 1.379 . S
C1834 N1842 1.356 . S
C1835 C1834 1.363 . S
C1835 C1841 1.363 . S
C1836 C1837 1.363 . S
C1836 C1841 1.379 . S
C1836 N1843 1.356 . S
C1837 C1836 1.363 . S
C1837 C1840 1.363 . S
N1838 C1840 1.356 . S
N1838 H1850 0.984 . S
N1838 H1851 0.985 . S
N1839 C1841 1.356 . S
N1839 H1844 0.984 . S
N1839 H1845 0.985 . S
C1840 C1834 1.379 . S
C1840 C1837 1.363 . S
C1840 N1838 1.356 . S
C1841 C1835 1.363 . S
C1841 C1836 1.379 . S
C1841 N1839 1.356 . S
N1842 C1834 1.356 . S
N1842 H1848 0.984 . S
N1842 H1849 0.984 . S
N1843 C1836 1.356 . S
N1843 H1846 0.984 . S
N1843 H1847 0.985 . S
H1844 N1839 0.984 . S
H1845 N1839 0.985 . S
H1846 N1843 0.984 . S
H1847 N1843 0.985 . S
H1848 N1842 0.984 . S
H1849 N1842 0.984 . S
H1850 N1838 0.984 . S
H1851 N1838 0.985 . S
C1852 C1853 1.363 . S
C1852 C1858 1.379 1_556 S
C1852 N1860 1.356 . S
C1853 C1852 1.363 . S
C1853 C1859 1.363 . S
C1854 C1855 1.363 . S
C1854 C1859 1.379 . S
C1854 N1861 1.356 . S
C1855 C1854 1.363 . S
C1855 C1858 1.363 1_556 S
N1856 C1858 1.356 . S
N1856 H1868 0.984 . S
N1856 H1869 0.985 . S
N1857 C1859 1.356 . S
N1857 H1862 0.984 . S
N1857 H1863 0.985 . S
C1858 C1852 1.379 1_554 S
C1858 C1855 1.363 1_554 S
C1858 N1856 1.356 . S
C1859 C1853 1.363 . S
C1859 C1854 1.379 . S
C1859 N1857 1.356 . S
N1860 C1852 1.356 . S
N1860 H1866 0.984 1_556 S
N1860 H1867 0.984 . S
N1861 C1854 1.356 . S
N1861 H1864 0.984 . S
N1861 H1865 0.985 . S
H1862 N1857 0.984 . S
H1863 N1857 0.985 . S
H1864 N1861 0.984 . S
H1865 N1861 0.985 . S
H1866 N1860 0.984 1_554 S
H1867 N1860 0.984 . S
H1868 N1856 0.984 . S
H1869 N1856 0.985 . S
C1870 C1871 1.363 . S
C1870 C1876 1.376 1_455 S
C1870 N1878 1.356 . S
C1871 C1870 1.363 . S
C1871 C1877 1.363 . S
C1872 C1873 1.363 . S
C1872 C1877 1.379 1_655 S
C1872 N1879 1.356 . S
C1873 C1872 1.363 . S
C1873 C1876 1.364 . S
N1874 C1876 1.358 . S
N1874 H1886 0.984 . S
N1874 H1887 0.985 . S
N1875 C1877 1.356 . S
N1875 H1880 0.984 . S
N1875 H1881 0.985 . S
C1876 C1870 1.376 1_655 S
C1876 C1873 1.364 . S
C1876 N1874 1.358 . S
C1877 C1871 1.363 . S
C1877 C1872 1.379 1_455 S
C1877 N1875 1.356 . S
N1878 C1870 1.356 . S
N1878 H1884 0.984 . S
N1878 H1885 0.984 . S
N1879 C1872 1.356 . S
N1879 H1882 0.984 . S
N1879 H1883 0.985 . S
H1880 N1875 0.984 . S
H1881 N1875 0.985 . S
H1882 N1879 0.984 . S
H1883 N1879 0.985 . S
H1884 N1878 0.984 . S
H1885 N1878 0.984 . S
H1886 N1874 0.984 . S
H1887 N1874 0.985 . S
C1888 C1889 1.363 . S
C1888 C1894 1.379 . S
C1888 N1896 1.356 . S
C1889 C1888 1.363 . S
C1889 C1895 1.363 . S
C1890 C1891 1.363 . S
C1890 C1895 1.379 . S
C1890 N1897 1.356 . S
C1891 C1890 1.363 . S
C1891 C1894 1.363 . S
N1892 C1894 1.356 . S
N1892 H1904 0.984 . S
N1892 H1905 0.985 . S
N1893 C1895 1.356 . S
N1893 H1898 0.984 . S
N1893 H1899 0.985 . S
C1894 C1888 1.379 . S
C1894 C1891 1.363 . S
C1894 N1892 1.356 . S
C1895 C1889 1.363 . S
C1895 C1890 1.379 . S
C1895 N1893 1.356 . S
N1896 C1888 1.356 . S
N1896 H1902 0.984 . S
N1896 H1903 0.984 . S
N1897 C1890 1.356 . S
N1897 H1900 0.984 . S
N1897 H1901 0.985 . S
H1898 N1893 0.984 . S
H1899 N1893 0.985 . S
H1900 N1897 0.984 . S
H1901 N1897 0.985 . S
H1902 N1896 0.984 . S
H1903 N1896 0.984 . S
H1904 N1892 0.984 . S
H1905 N1892 0.985 . S
C1906 C1907 1.363 . S
C1906 C1912 1.379 . S
C1906 N1914 1.356 . S
C1907 C1906 1.363 . S
C1907 C1913 1.363 . S
C1908 C1909 1.363 . S
C1908 C1913 1.379 . S
C1908 N1915 1.356 1_455 S
C1909 C1908 1.363 . S
C1909 C1912 1.363 . S
N1910 C1912 1.356 . S
N1910 H1922 0.984 . S
N1910 H1923 0.985 1_455 S
N1911 C1913 1.356 . S
N1911 H1916 0.984 . S
N1911 H1917 0.985 . S
C1912 C1906 1.379 . S
C1912 C1909 1.363 . S
C1912 N1910 1.356 . S
C1913 C1907 1.363 . S
C1913 C1908 1.379 . S
C1913 N1911 1.356 . S
N1914 C1906 1.356 . S
N1914 H1920 0.984 . S
N1914 H1921 0.984 . S
N1915 C1908 1.356 1_655 S
N1915 H1918 0.984 . S
N1915 H1919 0.985 . S
H1916 N1911 0.984 . S
H1917 N1911 0.985 . S
H1918 N1915 0.984 . S
H1919 N1915 0.985 . S
H1920 N1914 0.984 . S
H1921 N1914 0.984 . S
H1922 N1910 0.984 . S
H1923 N1910 0.985 1_655 S
C1924 C1925 1.363 1_655 S
C1924 C1930 1.379 1_655 S
C1924 N1932 1.356 . S
C1925 C1924 1.363 1_455 S
C1925 C1931 1.363 . S
C1926 C1927 1.363 . S
C1926 C1931 1.379 . S
C1926 N1933 1.356 . S
C1927 C1926 1.363 . S
C1927 C1930 1.363 . S
N1928 C1930 1.356 . S
N1928 H1940 0.984 1_455 S
N1928 H1941 0.985 . S
N1929 C1931 1.356 . S
N1929 H1934 0.984 . S
N1929 H1935 0.985 . S
C1930 C1924 1.379 1_455 S
C1930 C1927 1.363 . S
C1930 N1928 1.356 . S
C1931 C1925 1.363 . S
C1931 C1926 1.379 . S
C1931 N1929 1.356 . S
N1932 C1924 1.356 . S
N1932 H1938 0.984 . S
N1932 H1939 0.984 . S
N1933 C1926 1.356 . S
N1933 H1936 0.984 . S
N1933 H1937 0.985 . S
H1934 N1929 0.984 . S
H1935 N1929 0.985 . S
H1936 N1933 0.984 . S
H1937 N1933 0.985 . S
H1938 N1932 0.984 . S
H1939 N1932 0.984 . S
H1940 N1928 0.984 1_655 S
H1941 N1928 0.985 . S
C1942 C1943 1.363 . S
C1942 C1948 1.379 . S
C1942 N1950 1.356 . S
C1943 C1942 1.363 . S
C1943 C1949 1.363 . S
C1944 C1945 1.363 . S
C1944 C1949 1.379 . S
C1944 N1951 1.356 . S
C1945 C1944 1.363 . S
C1945 C1948 1.363 . S
N1946 C1948 1.356 . S
N1946 H1958 0.984 . S
N1946 H1959 0.985 . S
N1947 C1949 1.356 . S
N1947 H1952 0.984 . S
N1947 H1953 0.985 . S
C1948 C1942 1.379 . S
C1948 C1945 1.363 . S
C1948 N1946 1.356 . S
C1949 C1943 1.363 . S
C1949 C1944 1.379 . S
C1949 N1947 1.356 . S
N1950 C1942 1.356 . S
N1950 H1956 0.984 . S
N1950 H1957 0.984 . S
N1951 C1944 1.356 . S
N1951 H1954 0.984 . S
N1951 H1955 0.985 . S
H1952 N1947 0.984 . S
H1953 N1947 0.985 . S
H1954 N1951 0.984 . S
H1955 N1951 0.985 . S
H1956 N1950 0.984 . S
H1957 N1950 0.984 . S
H1958 N1946 0.984 . S
H1959 N1946 0.985 . S
C1960 C1961 1.363 . S
C1960 C1966 1.379 . S
C1960 N1968 1.356 . S
C1961 C1960 1.363 . S
C1961 C1967 1.363 . S
C1962 C1963 1.363 . S
C1962 C1967 1.379 . S
C1962 N1969 1.356 . S
C1963 C1962 1.363 . S
C1963 C1966 1.363 . S
N1964 C1966 1.356 . S
N1964 H1976 0.984 . S
N1964 H1977 0.985 . S
N1965 C1967 1.356 . S
N1965 H1970 0.984 . S
N1965 H1971 0.985 . S
C1966 C1960 1.379 . S
C1966 C1963 1.363 . S
C1966 N1964 1.356 . S
C1967 C1961 1.363 . S
C1967 C1962 1.379 . S
C1967 N1965 1.356 . S
N1968 C1960 1.356 . S
N1968 H1974 0.984 . S
N1968 H1975 0.984 . S
N1969 C1962 1.356 . S
N1969 H1972 0.984 . S
N1969 H1973 0.985 . S
H1970 N1965 0.984 . S
H1971 N1965 0.985 . S
H1972 N1969 0.984 . S
H1973 N1969 0.985 . S
H1974 N1968 0.984 . S
H1975 N1968 0.984 . S
H1976 N1964 0.984 . S
H1977 N1964 0.985 . S
C1978 C1979 1.363 . S
C1978 C1984 1.379 . S
C1978 N1986 1.356 . S
C1979 C1978 1.363 . S
C1979 C1985 1.363 . S
C1980 C1981 1.363 . S
C1980 C1985 1.379 . S
C1980 N1987 1.356 . S
C1981 C1980 1.363 . S
C1981 C1984 1.363 . S
N1982 C1984 1.356 . S
N1982 H1994 0.984 . S
N1982 H1995 0.985 . S
N1983 C1985 1.356 1_554 S
N1983 H1988 0.984 . S
N1983 H1989 0.985 . S
C1984 C1978 1.379 . S
C1984 C1981 1.363 . S
C1984 N1982 1.356 . S
C1985 C1979 1.363 . S
C1985 C1980 1.379 . S
C1985 N1983 1.356 1_556 S
N1986 C1978 1.356 . S
N1986 H1992 0.984 . S
N1986 H1993 0.984 . S
N1987 C1980 1.356 . S
N1987 H1990 0.984 . S
N1987 H1991 0.985 . S
H1988 N1983 0.984 . S
H1989 N1983 0.985 . S
H1990 N1987 0.984 . S
H1991 N1987 0.985 . S
H1992 N1986 0.984 . S
H1993 N1986 0.984 . S
H1994 N1982 0.984 . S
H1995 N1982 0.985 . S
C1996 C1997 1.363 . S
C1996 C2002 1.379 . S
C1996 N2004 1.356 . S
C1997 C1996 1.363 . S
C1997 C2003 1.363 . S
C1998 C1999 1.363 . S
C1998 C2003 1.379 . S
C1998 N2005 1.356 . S
C1999 C1998 1.363 . S
C1999 C2002 1.363 . S
N2000 C2002 1.356 . S
N2000 H2012 0.984 . S
N2000 H2013 0.985 . S
N2001 C2003 1.356 . S
N2001 H2006 0.984 . S
N2001 H2007 0.985 . S
C2002 C1996 1.379 . S
C2002 C1999 1.363 . S
C2002 N2000 1.356 . S
C2003 C1997 1.363 . S
C2003 C1998 1.379 . S
C2003 N2001 1.356 . S
N2004 C1996 1.356 . S
N2004 H2010 0.984 . S
N2004 H2011 0.984 . S
N2005 C1998 1.356 . S
N2005 H2008 0.984 . S
N2005 H2009 0.985 . S
H2006 N2001 0.984 . S
H2007 N2001 0.985 . S
H2008 N2005 0.984 . S
H2009 N2005 0.985 . S
H2010 N2004 0.984 . S
H2011 N2004 0.984 . S
H2012 N2000 0.984 . S
H2013 N2000 0.985 . S
C2014 C2015 1.363 . S
C2014 C2020 1.379 . S
C2014 N2022 1.356 . S
C2015 C2014 1.363 . S
C2015 C2021 1.363 . S
C2016 C2017 1.363 . S
C2016 C2021 1.379 . S
C2016 N2023 1.356 . S
C2017 C2016 1.363 . S
C2017 C2020 1.363 . S
N2018 C2020 1.356 . S
N2018 H2030 0.984 . S
N2018 H2031 0.985 . S
N2019 C2021 1.356 . S
N2019 H2024 0.984 . S
N2019 H2025 0.985 . S
C2020 C2014 1.379 . S
C2020 C2017 1.363 . S
C2020 N2018 1.356 . S
C2021 C2015 1.363 . S
C2021 C2016 1.379 . S
C2021 N2019 1.356 . S
N2022 C2014 1.356 . S
N2022 H2028 0.984 . S
N2022 H2029 0.984 . S
N2023 C2016 1.356 . S
N2023 H2026 0.984 . S
N2023 H2027 0.985 . S
H2024 N2019 0.984 . S
H2025 N2019 0.985 . S
H2026 N2023 0.984 . S
H2027 N2023 0.985 . S
H2028 N2022 0.984 . S
H2029 N2022 0.984 . S
H2030 N2018 0.984 . S
H2031 N2018 0.985 . S
C2032 C2033 1.363 . S
C2032 C2038 1.379 . S
C2032 N2040 1.356 . S
C2033 C2032 1.363 . S
C2033 C2039 1.363 . S
C2034 C2035 1.363 . S
C2034 C2039 1.379 . S
C2034 N2041 1.356 . S
C2035 C2034 1.363 . S
C2035 C2038 1.363 . S
N2036 C2038 1.356 . S
N2036 H2048 0.984 . S
N2036 H2049 0.985 . S
N2037 C2039 1.356 . S
N2037 H2042 0.984 . S
N2037 H2043 0.985 . S
C2038 C2032 1.379 . S
C2038 C2035 1.363 . S
C2038 N2036 1.356 . S
C2039 C2033 1.363 . S
C2039 C2034 1.379 . S
C2039 N2037 1.356 . S
N2040 C2032 1.356 . S
N2040 H2046 0.984 . S
N2040 H2047 0.984 . S
N2041 C2034 1.356 . S
N2041 H2044 0.984 . S
N2041 H2045 0.985 . S
H2042 N2037 0.984 . S
H2043 N2037 0.985 . S
H2044 N2041 0.984 . S
H2045 N2041 0.985 . S
H2046 N2040 0.984 . S
H2047 N2040 0.984 . S
H2048 N2036 0.984 . S
H2049 N2036 0.985 . S
C2050 C2051 1.363 . S
C2050 C2056 1.379 . S
C2050 N2058 1.356 . S
C2051 C2050 1.363 . S
C2051 C2057 1.363 . S
C2052 C2053 1.363 . S
C2052 C2057 1.379 . S
C2052 N2059 1.356 . S
C2053 C2052 1.363 . S
C2053 C2056 1.363 . S
N2054 C2056 1.356 . S
N2054 H2066 0.984 . S
N2054 H2067 0.985 . S
N2055 C2057 1.356 . S
N2055 H2060 0.984 . S
N2055 H2061 0.985 . S
C2056 C2050 1.379 . S
C2056 C2053 1.363 . S
C2056 N2054 1.356 . S
C2057 C2051 1.363 . S
C2057 C2052 1.379 . S
C2057 N2055 1.356 . S
N2058 C2050 1.356 . S
N2058 H2064 0.984 . S
N2058 H2065 0.984 . S
N2059 C2052 1.356 . S
N2059 H2062 0.984 . S
N2059 H2063 0.985 . S
H2060 N2055 0.984 . S
H2061 N2055 0.985 . S
H2062 N2059 0.984 . S
H2063 N2059 0.985 . S
H2064 N2058 0.984 . S
H2065 N2058 0.984 . S
H2066 N2054 0.984 . S
H2067 N2054 0.985 . S
C2068 C2069 1.363 . S
C2068 C2074 1.379 . S
C2068 N2076 1.356 . S
C2069 C2068 1.363 . S
C2069 C2075 1.363 . S
C2070 C2071 1.363 . S
C2070 C2075 1.379 . S
C2070 N2077 1.356 . S
C2071 C2070 1.363 . S
C2071 C2074 1.363 . S
N2072 C2074 1.356 . S
N2072 H2084 0.984 . S
N2072 H2085 0.985 . S
N2073 C2075 1.356 . S
N2073 H2078 0.984 . S
N2073 H2079 0.985 . S
C2074 C2068 1.379 . S
C2074 C2071 1.363 . S
C2074 N2072 1.356 . S
C2075 C2069 1.363 . S
C2075 C2070 1.379 . S
C2075 N2073 1.356 . S
N2076 C2068 1.356 . S
N2076 H2082 0.984 . S
N2076 H2083 0.984 . S
N2077 C2070 1.356 . S
N2077 H2080 0.984 . S
N2077 H2081 0.985 . S
H2078 N2073 0.984 . S
H2079 N2073 0.985 . S
H2080 N2077 0.984 . S
H2081 N2077 0.985 . S
H2082 N2076 0.984 . S
H2083 N2076 0.984 . S
H2084 N2072 0.984 . S
H2085 N2072 0.985 . S
C2086 C2087 1.363 . S
C2086 C2092 1.379 . S
C2086 N2094 1.356 . S
C2087 C2086 1.363 . S
C2087 C2093 1.363 . S
C2088 C2089 1.363 . S
C2088 C2093 1.379 . S
C2088 N2095 1.356 . S
C2089 C2088 1.363 . S
C2089 C2092 1.363 . S
N2090 C2092 1.356 . S
N2090 H2102 0.984 . S
N2090 H2103 0.985 . S
N2091 C2093 1.356 . S
N2091 H2096 0.984 . S
N2091 H2097 0.985 . S
C2092 C2086 1.379 . S
C2092 C2089 1.363 . S
C2092 N2090 1.356 . S
C2093 C2087 1.363 . S
C2093 C2088 1.379 . S
C2093 N2091 1.356 . S
N2094 C2086 1.356 . S
N2094 H2100 0.984 . S
N2094 H2101 0.984 . S
N2095 C2088 1.356 . S
N2095 H2098 0.984 . S
N2095 H2099 0.985 . S
H2096 N2091 0.984 . S
H2097 N2091 0.985 . S
H2098 N2095 0.984 . S
H2099 N2095 0.985 . S
H2100 N2094 0.984 . S
H2101 N2094 0.984 . S
H2102 N2090 0.984 . S
H2103 N2090 0.985 . S
C2104 C2105 1.363 . S
C2104 C2110 1.379 . S
C2104 N2112 1.356 . S
C2105 C2104 1.363 . S
C2105 C2111 1.363 . S
C2106 C2107 1.363 . S
C2106 C2111 1.379 . S
C2106 N2113 1.356 . S
C2107 C2106 1.363 . S
C2107 C2110 1.363 . S
N2108 C2110 1.356 . S
N2108 H2120 0.984 . S
N2108 H2121 0.985 . S
N2109 C2111 1.356 . S
N2109 H2114 0.984 . S
N2109 H2115 0.985 . S
C2110 C2104 1.379 . S
C2110 C2107 1.363 . S
C2110 N2108 1.356 . S
C2111 C2105 1.363 . S
C2111 C2106 1.379 . S
C2111 N2109 1.356 . S
N2112 C2104 1.356 . S
N2112 H2118 0.984 . S
N2112 H2119 0.984 . S
N2113 C2106 1.356 . S
N2113 H2116 0.984 . S
N2113 H2117 0.985 . S
H2114 N2109 0.984 . S
H2115 N2109 0.985 . S
H2116 N2113 0.984 . S
H2117 N2113 0.985 . S
H2118 N2112 0.984 . S
H2119 N2112 0.984 . S
H2120 N2108 0.984 . S
H2121 N2108 0.985 . S
C2122 C2123 1.363 . S
C2122 C2128 1.379 . S
C2122 N2130 1.356 . S
C2123 C2122 1.363 . S
C2123 C2129 1.363 . S
C2124 C2125 1.363 . S
C2124 C2129 1.379 . S
C2124 N2131 1.356 . S
C2125 C2124 1.363 . S
C2125 C2128 1.363 . S
N2126 C2128 1.356 . S
N2126 H2138 0.984 . S
N2126 H2139 0.985 . S
N2127 C2129 1.356 . S
N2127 H2132 0.984 . S
N2127 H2133 0.985 . S
C2128 C2122 1.379 . S
C2128 C2125 1.363 . S
C2128 N2126 1.356 . S
C2129 C2123 1.363 . S
C2129 C2124 1.379 . S
C2129 N2127 1.356 . S
N2130 C2122 1.356 . S
N2130 H2136 0.984 . S
N2130 H2137 0.984 . S
N2131 C2124 1.356 . S
N2131 H2134 0.984 . S
N2131 H2135 0.985 . S
H2132 N2127 0.984 . S
H2133 N2127 0.985 . S
H2134 N2131 0.984 . S
H2135 N2131 0.985 . S
H2136 N2130 0.984 . S
H2137 N2130 0.984 . S
H2138 N2126 0.984 . S
H2139 N2126 0.985 . S
C2140 C2141 1.363 . S
C2140 C2146 1.379 . S
C2140 N2148 1.356 . S
C2141 C2140 1.363 . S
C2141 C2147 1.363 . S
C2142 C2143 1.363 . S
C2142 C2147 1.379 . S
C2142 N2149 1.356 . S
C2143 C2142 1.363 . S
C2143 C2146 1.363 . S
N2144 C2146 1.356 . S
N2144 H2156 0.984 . S
N2144 H2157 0.985 . S
N2145 C2147 1.356 . S
N2145 H2150 0.984 . S
N2145 H2151 0.985 . S
C2146 C2140 1.379 . S
C2146 C2143 1.363 . S
C2146 N2144 1.356 . S
C2147 C2141 1.363 . S
C2147 C2142 1.379 . S
C2147 N2145 1.356 . S
N2148 C2140 1.356 . S
N2148 H2154 0.984 . S
N2148 H2155 0.984 . S
N2149 C2142 1.356 . S
N2149 H2152 0.984 . S
N2149 H2153 0.985 . S
H2150 N2145 0.984 . S
H2151 N2145 0.985 . S
H2152 N2149 0.984 . S
H2153 N2149 0.985 . S
H2154 N2148 0.984 . S
H2155 N2148 0.984 . S
H2156 N2144 0.984 . S
H2157 N2144 0.985 . S
C2158 C2159 1.363 . S
C2158 C2164 1.379 . S
C2158 N2166 1.356 . S
C2159 C2158 1.363 . S
C2159 C2165 1.363 1_544 S
C2160 C2161 1.363 1_566 S
C2160 C2165 1.379 . S
C2160 N2167 1.356 . S
C2161 C2160 1.363 1_544 S
C2161 C2164 1.363 . S
N2162 C2164 1.356 . S
N2162 H2174 0.984 . S
N2162 H2175 0.985 . S
N2163 C2165 1.356 . S
N2163 H2168 0.984 . S
N2163 H2169 0.985 . S
C2164 C2158 1.379 . S
C2164 C2161 1.363 . S
C2164 N2162 1.356 . S
C2165 C2159 1.363 1_566 S
C2165 C2160 1.379 . S
C2165 N2163 1.356 . S
N2166 C2158 1.356 . S
N2166 H2172 0.984 . S
N2166 H2173 0.984 . S
N2167 C2160 1.356 . S
N2167 H2170 0.984 . S
N2167 H2171 0.985 . S
H2168 N2163 0.984 . S
H2169 N2163 0.985 . S
H2170 N2167 0.984 . S
H2171 N2167 0.985 . S
H2172 N2166 0.984 . S
H2173 N2166 0.984 . S
H2174 N2162 0.984 . S
H2175 N2162 0.985 . S
C2176 C2177 1.363 . S
C2176 C2182 1.379 . S
C2176 N2184 1.356 . S
C2177 C2176 1.363 . S
C2177 C2183 1.363 . S
C2178 C2179 1.363 . S
C2178 C2183 1.379 . S
C2178 N2185 1.356 . S
C2179 C2178 1.363 . S
C2179 C2182 1.363 . S
N2180 C2182 1.356 . S
N2180 H2192 0.984 . S
N2180 H2193 0.985 . S
N2181 C2183 1.356 . S
N2181 H2186 0.984 . S
N2181 H2187 0.985 . S
C2182 C2176 1.379 . S
C2182 C2179 1.363 . S
C2182 N2180 1.356 . S
C2183 C2177 1.363 . S
C2183 C2178 1.379 . S
C2183 N2181 1.356 . S
N2184 C2176 1.356 . S
N2184 H2190 0.984 . S
N2184 H2191 0.984 . S
N2185 C2178 1.356 . S
N2185 H2188 0.984 . S
N2185 H2189 0.985 . S
H2186 N2181 0.984 . S
H2187 N2181 0.985 . S
H2188 N2185 0.984 . S
H2189 N2185 0.985 . S
H2190 N2184 0.984 . S
H2191 N2184 0.984 . S
H2192 N2180 0.984 . S
H2193 N2180 0.985 . S
C2194 C2195 1.363 . S
C2194 C2200 1.379 . S
C2194 N2202 1.356 . S
C2195 C2194 1.363 . S
C2195 C2201 1.363 . S
C2196 C2197 1.363 . S
C2196 C2201 1.379 . S
C2196 N2203 1.356 . S
C2197 C2196 1.363 . S
C2197 C2200 1.363 . S
N2198 C2200 1.356 . S
N2198 H2210 0.984 . S
N2198 H2211 0.985 . S
N2199 C2201 1.356 1_556 S
N2199 H2204 0.984 . S
N2199 H2205 0.985 . S
C2200 C2194 1.379 . S
C2200 C2197 1.363 . S
C2200 N2198 1.356 . S
C2201 C2195 1.363 . S
C2201 C2196 1.379 . S
C2201 N2199 1.356 1_554 S
N2202 C2194 1.356 . S
N2202 H2208 0.984 . S
N2202 H2209 0.984 . S
N2203 C2196 1.356 . S
N2203 H2206 0.984 . S
N2203 H2207 0.985 . S
H2204 N2199 0.984 . S
H2205 N2199 0.985 . S
H2206 N2203 0.984 . S
H2207 N2203 0.985 . S
H2208 N2202 0.984 . S
H2209 N2202 0.984 . S
H2210 N2198 0.984 . S
H2211 N2198 0.985 . S
C2212 C2213 1.363 . S
C2212 C2218 1.379 . S
C2212 N2220 1.356 . S
C2213 C2212 1.363 . S
C2213 C2219 1.363 . S
C2214 C2215 1.363 . S
C2214 C2219 1.379 . S
C2214 N2221 1.356 . S
C2215 C2214 1.363 . S
C2215 C2218 1.363 . S
N2216 C2218 1.356 . S
N2216 H2228 0.984 . S
N2216 H2229 0.985 . S
N2217 C2219 1.356 . S
N2217 H2222 0.984 . S
N2217 H2223 0.985 . S
C2218 C2212 1.379 . S
C2218 C2215 1.363 . S
C2218 N2216 1.356 . S
C2219 C2213 1.363 . S
C2219 C2214 1.379 . S
C2219 N2217 1.356 . S
N2220 C2212 1.356 . S
N2220 H2226 0.984 . S
N2220 H2227 0.984 . S
N2221 C2214 1.356 . S
N2221 H2224 0.984 . S
N2221 H2225 0.985 . S
H2222 N2217 0.984 . S
H2223 N2217 0.985 . S
H2224 N2221 0.984 . S
H2225 N2221 0.985 . S
H2226 N2220 0.984 . S
H2227 N2220 0.984 . S
H2228 N2216 0.984 . S
H2229 N2216 0.985 . S
C2230 C2231 1.363 . S
C2230 C2236 1.379 . S
C2230 N2238 1.356 . S
C2231 C2230 1.363 . S
C2231 C2237 1.363 . S
C2232 C2233 1.363 . S
C2232 C2237 1.379 . S
C2232 N2239 1.356 . S
C2233 C2232 1.363 . S
C2233 C2236 1.363 . S
N2234 C2236 1.356 . S
N2234 H2246 0.984 . S
N2234 H2247 0.985 . S
N2235 C2237 1.356 . S
N2235 H2240 0.984 . S
N2235 H2241 0.985 . S
C2236 C2230 1.379 . S
C2236 C2233 1.363 . S
C2236 N2234 1.356 . S
C2237 C2231 1.363 . S
C2237 C2232 1.379 . S
C2237 N2235 1.356 . S
N2238 C2230 1.356 . S
N2238 H2244 0.984 . S
N2238 H2245 0.984 . S
N2239 C2232 1.356 . S
N2239 H2242 0.984 . S
N2239 H2243 0.985 . S
H2240 N2235 0.984 . S
H2241 N2235 0.985 . S
H2242 N2239 0.984 . S
H2243 N2239 0.985 . S
H2244 N2238 0.984 . S
H2245 N2238 0.984 . S
H2246 N2234 0.984 . S
H2247 N2234 0.985 . S
C2248 C2249 1.363 . S
C2248 C2254 1.379 . S
C2248 N2256 1.356 . S
C2249 C2248 1.363 . S
C2249 C2255 1.363 . S
C2250 C2251 1.363 . S
C2250 C2255 1.379 . S
C2250 N2257 1.356 . S
C2251 C2250 1.363 . S
C2251 C2254 1.363 . S
N2252 C2254 1.356 . S
N2252 H2264 0.984 . S
N2252 H2265 0.985 . S
N2253 C2255 1.356 . S
N2253 H2258 0.984 . S
N2253 H2259 0.985 . S
C2254 C2248 1.379 . S
C2254 C2251 1.363 . S
C2254 N2252 1.356 . S
C2255 C2249 1.363 . S
C2255 C2250 1.379 . S
C2255 N2253 1.356 . S
N2256 C2248 1.356 . S
N2256 H2262 0.984 . S
N2256 H2263 0.984 . S
N2257 C2250 1.356 . S
N2257 H2260 0.984 . S
N2257 H2261 0.985 . S
H2258 N2253 0.984 . S
H2259 N2253 0.985 . S
H2260 N2257 0.984 . S
H2261 N2257 0.985 . S
H2262 N2256 0.984 . S
H2263 N2256 0.984 . S
H2264 N2252 0.984 . S
H2265 N2252 0.985 . S
C2266 C2267 1.363 . S
C2266 C2272 1.379 . S
C2266 N2274 1.356 . S
C2267 C2266 1.363 . S
C2267 C2273 1.363 . S
C2268 C2269 1.363 . S
C2268 C2273 1.379 . S
C2268 N2275 1.356 . S
C2269 C2268 1.363 . S
C2269 C2272 1.363 . S
N2270 C2272 1.356 . S
N2270 H2282 0.984 . S
N2270 H2283 0.985 . S
N2271 C2273 1.356 . S
N2271 H2276 0.984 . S
N2271 H2277 0.985 . S
C2272 C2266 1.379 . S
C2272 C2269 1.363 . S
C2272 N2270 1.356 . S
C2273 C2267 1.363 . S
C2273 C2268 1.379 . S
C2273 N2271 1.356 . S
N2274 C2266 1.356 . S
N2274 H2280 0.984 . S
N2274 H2281 0.984 . S
N2275 C2268 1.356 . S
N2275 H2278 0.984 . S
N2275 H2279 0.985 . S
H2276 N2271 0.984 . S
H2277 N2271 0.985 . S
H2278 N2275 0.984 . S
H2279 N2275 0.985 . S
H2280 N2274 0.984 . S
H2281 N2274 0.984 . S
H2282 N2270 0.984 . S
H2283 N2270 0.985 . S
C2284 C2285 1.363 . S
C2284 C2290 1.379 . S
C2284 N2292 1.356 . S
C2285 C2284 1.363 . S
C2285 C2291 1.363 . S
C2286 C2287 1.363 . S
C2286 C2291 1.379 . S
C2286 N2293 1.356 . S
C2287 C2286 1.363 . S
C2287 C2290 1.363 . S
N2288 C2290 1.356 . S
N2288 H2300 0.984 . S
N2288 H2301 0.985 . S
N2289 C2291 1.356 . S
N2289 H2294 0.984 . S
N2289 H2295 0.985 . S
C2290 C2284 1.379 . S
C2290 C2287 1.363 . S
C2290 N2288 1.356 . S
C2291 C2285 1.363 . S
C2291 C2286 1.379 . S
C2291 N2289 1.356 . S
N2292 C2284 1.356 . S
N2292 H2298 0.984 . S
N2292 H2299 0.984 . S
N2293 C2286 1.356 . S
N2293 H2296 0.984 . S
N2293 H2297 0.985 . S
H2294 N2289 0.984 . S
H2295 N2289 0.985 . S
H2296 N2293 0.984 . S
H2297 N2293 0.985 . S
H2298 N2292 0.984 . S
H2299 N2292 0.984 . S
H2300 N2288 0.984 . S
H2301 N2288 0.985 . S
C2302 C2303 1.363 . S
C2302 C2308 1.379 . S
C2302 N2310 1.356 . S
C2303 C2302 1.363 . S
C2303 C2309 1.363 . S
C2304 C2305 1.363 . S
C2304 C2309 1.379 . S
C2304 N2311 1.356 . S
C2305 C2304 1.363 . S
C2305 C2308 1.363 . S
N2306 C2308 1.356 . S
N2306 H2318 0.984 . S
N2306 H2319 0.985 . S
N2307 C2309 1.356 . S
N2307 H2312 0.984 . S
N2307 H2313 0.985 . S
C2308 C2302 1.379 . S
C2308 C2305 1.363 . S
C2308 N2306 1.356 . S
C2309 C2303 1.363 . S
C2309 C2304 1.379 . S
C2309 N2307 1.356 . S
N2310 C2302 1.356 . S
N2310 H2316 0.984 . S
N2310 H2317 0.984 . S
N2311 C2304 1.356 . S
N2311 H2314 0.984 . S
N2311 H2315 0.985 . S
H2312 N2307 0.984 . S
H2313 N2307 0.985 . S
H2314 N2311 0.984 . S
H2315 N2311 0.985 . S
H2316 N2310 0.984 . S
H2317 N2310 0.984 . S
H2318 N2306 0.984 . S
H2319 N2306 0.985 . S
C2320 C2321 1.363 . S
C2320 C2326 1.379 . S
C2320 N2328 1.356 . S
C2321 C2320 1.363 . S
C2321 C2327 1.363 . S
C2322 C2323 1.363 . S
C2322 C2327 1.379 . S
C2322 N2329 1.356 . S
C2323 C2322 1.363 . S
C2323 C2326 1.363 . S
N2324 C2326 1.356 1_554 S
N2324 H2336 0.984 . S
N2324 H2337 0.985 . S
N2325 C2327 1.356 . S
N2325 H2330 0.984 . S
N2325 H2331 0.985 . S
C2326 C2320 1.379 . S
C2326 C2323 1.363 . S
C2326 N2324 1.356 1_556 S
C2327 C2321 1.363 . S
C2327 C2322 1.379 . S
C2327 N2325 1.356 . S
N2328 C2320 1.356 . S
N2328 H2334 0.984 1_556 S
N2328 H2335 0.984 . S
N2329 C2322 1.356 . S
N2329 H2332 0.984 . S
N2329 H2333 0.985 . S
H2330 N2325 0.984 . S
H2331 N2325 0.985 . S
H2332 N2329 0.984 . S
H2333 N2329 0.985 . S
H2334 N2328 0.984 1_554 S
H2335 N2328 0.984 . S
H2336 N2324 0.984 . S
H2337 N2324 0.985 . S
C2338 C2339 1.363 . S
C2338 C2344 1.379 . S
C2338 N2346 1.356 . S
C2339 C2338 1.363 . S
C2339 C2345 1.363 . S
C2340 C2341 1.363 . S
C2340 C2345 1.379 . S
C2340 N2347 1.356 . S
C2341 C2340 1.363 . S
C2341 C2344 1.363 . S
N2342 C2344 1.356 . S
N2342 H2354 0.984 . S
N2342 H2355 0.985 . S
N2343 C2345 1.356 . S
N2343 H2348 0.984 . S
N2343 H2349 0.985 . S
C2344 C2338 1.379 . S
C2344 C2341 1.363 . S
C2344 N2342 1.356 . S
C2345 C2339 1.363 . S
C2345 C2340 1.379 . S
C2345 N2343 1.356 . S
N2346 C2338 1.356 . S
N2346 H2352 0.984 . S
N2346 H2353 0.984 . S
N2347 C2340 1.356 . S
N2347 H2350 0.984 . S
N2347 H2351 0.985 . S
H2348 N2343 0.984 . S
H2349 N2343 0.985 . S
H2350 N2347 0.984 . S
H2351 N2347 0.985 . S
H2352 N2346 0.984 . S
H2353 N2346 0.984 . S
H2354 N2342 0.984 . S
H2355 N2342 0.985 . S
C2356 C2357 1.363 . S
C2356 C2362 1.379 . S
C2356 N2364 1.356 . S
C2357 C2356 1.363 . S
C2357 C2363 1.363 . S
C2358 C2359 1.363 . S
C2358 C2363 1.379 . S
C2358 N2365 1.356 . S
C2359 C2358 1.363 . S
C2359 C2362 1.363 . S
N2360 C2362 1.356 . S
N2360 H2372 0.984 . S
N2360 H2373 0.985 . S
N2361 C2363 1.356 . S
N2361 H2366 0.984 . S
N2361 H2367 0.985 . S
C2362 C2356 1.379 . S
C2362 C2359 1.363 . S
C2362 N2360 1.356 . S
C2363 C2357 1.363 . S
C2363 C2358 1.379 . S
C2363 N2361 1.356 . S
N2364 C2356 1.356 . S
N2364 H2370 0.984 . S
N2364 H2371 0.984 . S
N2365 C2358 1.356 . S
N2365 H2368 0.984 . S
N2365 H2369 0.985 . S
H2366 N2361 0.984 . S
H2367 N2361 0.985 . S
H2368 N2365 0.984 . S
H2369 N2365 0.985 . S
H2370 N2364 0.984 . S
H2371 N2364 0.984 . S
H2372 N2360 0.984 . S
H2373 N2360 0.985 . S
C2374 C2375 1.363 . S
C2374 C2380 1.379 . S
C2374 N2382 1.356 . S
C2375 C2374 1.363 . S
C2375 C2381 1.363 . S
C2376 C2377 1.363 . S
C2376 C2381 1.379 . S
C2376 N2383 1.356 . S
C2377 C2376 1.363 . S
C2377 C2380 1.363 . S
N2378 C2380 1.356 . S
N2378 H2390 0.984 . S
N2378 H2391 0.985 . S
N2379 C2381 1.356 . S
N2379 H2384 0.984 . S
N2379 H2385 0.985 . S
C2380 C2374 1.379 . S
C2380 C2377 1.363 . S
C2380 N2378 1.356 . S
C2381 C2375 1.363 . S
C2381 C2376 1.379 . S
C2381 N2379 1.356 . S
N2382 C2374 1.356 . S
N2382 H2388 0.984 . S
N2382 H2389 0.984 . S
N2383 C2376 1.356 . S
N2383 H2386 0.984 . S
N2383 H2387 0.985 . S
H2384 N2379 0.984 . S
H2385 N2379 0.985 . S
H2386 N2383 0.984 . S
H2387 N2383 0.985 . S
H2388 N2382 0.984 . S
H2389 N2382 0.984 . S
H2390 N2378 0.984 . S
H2391 N2378 0.985 . S
C2392 C2393 1.363 . S
C2392 C2398 1.379 . S
C2392 N2400 1.356 . S
C2393 C2392 1.363 . S
C2393 C2399 1.363 . S
C2394 C2395 1.363 . S
C2394 C2399 1.379 . S
C2394 N2401 1.356 . S
C2395 C2394 1.363 . S
C2395 C2398 1.363 . S
N2396 C2398 1.356 . S
N2396 H2408 0.984 . S
N2396 H2409 0.985 . S
N2397 C2399 1.356 . S
N2397 H2402 0.984 . S
N2397 H2403 0.985 . S
C2398 C2392 1.379 . S
C2398 C2395 1.363 . S
C2398 N2396 1.356 . S
C2399 C2393 1.363 . S
C2399 C2394 1.379 . S
C2399 N2397 1.356 . S
N2400 C2392 1.356 . S
N2400 H2406 0.984 . S
N2400 H2407 0.984 . S
N2401 C2394 1.356 . S
N2401 H2404 0.984 . S
N2401 H2405 0.985 . S
H2402 N2397 0.984 . S
H2403 N2397 0.985 . S
H2404 N2401 0.984 . S
H2405 N2401 0.985 . S
H2406 N2400 0.984 . S
H2407 N2400 0.984 . S
H2408 N2396 0.984 . S
H2409 N2396 0.985 . S
C2410 C2411 1.363 . S
C2410 C2416 1.379 . S
C2410 N2418 1.356 . S
C2411 C2410 1.363 . S
C2411 C2417 1.363 . S
C2412 C2413 1.363 . S
C2412 C2417 1.379 . S
C2412 N2419 1.356 . S
C2413 C2412 1.363 . S
C2413 C2416 1.363 . S
N2414 C2416 1.356 . S
N2414 H2426 0.984 . S
N2414 H2427 0.985 . S
N2415 C2417 1.356 . S
N2415 H2420 0.984 . S
N2415 H2421 0.985 . S
C2416 C2410 1.379 . S
C2416 C2413 1.363 . S
C2416 N2414 1.356 . S
C2417 C2411 1.363 . S
C2417 C2412 1.379 . S
C2417 N2415 1.356 . S
N2418 C2410 1.356 . S
N2418 H2424 0.984 . S
N2418 H2425 0.984 . S
N2419 C2412 1.356 . S
N2419 H2422 0.984 . S
N2419 H2423 0.985 . S
H2420 N2415 0.984 . S
H2421 N2415 0.985 . S
H2422 N2419 0.984 . S
H2423 N2419 0.985 . S
H2424 N2418 0.984 . S
H2425 N2418 0.984 . S
H2426 N2414 0.984 . S
H2427 N2414 0.985 . S
C2428 C2429 1.363 . S
C2428 C2434 1.379 1_655 S
C2428 N2436 1.356 . S
C2429 C2428 1.363 . S
C2429 C2435 1.363 1_655 S
C2430 C2431 1.363 . S
C2430 C2435 1.379 . S
C2430 N2437 1.356 . S
C2431 C2430 1.363 . S
C2431 C2434 1.363 . S
N2432 C2434 1.356 . S
N2432 H2444 0.996 . S
N2432 H2445 0.985 . S
N2433 C2435 1.356 . S
N2433 H2438 0.984 1_455 S
N2433 H2439 0.985 . S
C2434 C2428 1.379 1_455 S
C2434 C2431 1.363 . S
C2434 N2432 1.356 . S
C2435 C2429 1.363 1_455 S
C2435 C2430 1.379 . S
C2435 N2433 1.356 . S
N2436 C2428 1.356 . S
N2436 H2442 0.984 . S
N2436 H2443 0.984 . S
N2437 C2430 1.356 . S
N2437 H2440 0.984 . S
N2437 H2441 0.985 . S
H2438 N2433 0.984 1_655 S
H2439 N2433 0.985 . S
H2440 N2437 0.984 . S
H2441 N2437 0.985 . S
H2442 N2436 0.984 . S
H2443 N2436 0.984 . S
H2444 N2432 0.996 . S
H2445 N2432 0.985 . S
C2446 C2447 1.363 . S
C2446 C2452 1.379 . S
C2446 N2454 1.356 . S
C2447 C2446 1.363 . S
C2447 C2453 1.363 . S
C2448 C2449 1.363 . S
C2448 C2453 1.379 . S
C2448 N2455 1.356 . S
C2449 C2448 1.363 . S
C2449 C2452 1.363 . S
N2450 C2452 1.356 . S
N2450 H2462 0.984 . S
N2450 H2463 0.985 . S
N2451 C2453 1.356 . S
N2451 H2456 0.984 . S
N2451 H2457 0.985 . S
C2452 C2446 1.379 . S
C2452 C2449 1.363 . S
C2452 N2450 1.356 . S
C2453 C2447 1.363 . S
C2453 C2448 1.379 . S
C2453 N2451 1.356 . S
N2454 C2446 1.356 . S
N2454 H2460 0.984 . S
N2454 H2461 0.984 . S
N2455 C2448 1.356 . S
N2455 H2458 0.984 . S
N2455 H2459 0.985 . S
H2456 N2451 0.984 . S
H2457 N2451 0.985 . S
H2458 N2455 0.984 . S
H2459 N2455 0.985 . S
H2460 N2454 0.984 . S
H2461 N2454 0.984 . S
H2462 N2450 0.984 . S
H2463 N2450 0.985 . S
C2464 C2465 1.363 . S
C2464 C2470 1.379 . S
C2464 N2472 1.356 . S
C2465 C2464 1.363 . S
C2465 C2471 1.363 . S
C2466 C2467 1.363 . S
C2466 C2471 1.379 . S
C2466 N2473 1.356 . S
C2467 C2466 1.363 . S
C2467 C2470 1.363 . S
N2468 C2470 1.356 . S
N2468 H2480 0.984 . S
N2468 H2481 0.985 . S
N2469 C2471 1.356 . S
N2469 H2474 0.984 . S
N2469 H2475 0.985 . S
C2470 C2464 1.379 . S
C2470 C2467 1.363 . S
C2470 N2468 1.356 . S
C2471 C2465 1.363 . S
C2471 C2466 1.379 . S
C2471 N2469 1.356 . S
N2472 C2464 1.356 . S
N2472 H2478 0.984 . S
N2472 H2479 0.984 . S
N2473 C2466 1.356 . S
N2473 H2476 0.984 . S
N2473 H2477 0.985 . S
H2474 N2469 0.984 . S
H2475 N2469 0.985 . S
H2476 N2473 0.984 . S
H2477 N2473 0.985 . S
H2478 N2472 0.984 . S
H2479 N2472 0.984 . S
H2480 N2468 0.984 . S
H2481 N2468 0.985 . S
C2482 C2483 1.363 . S
C2482 C2488 1.379 . S
C2482 N2490 1.356 . S
C2483 C2482 1.363 . S
C2483 C2489 1.363 . S
C2484 C2485 1.363 . S
C2484 C2489 1.379 . S
C2484 N2491 1.356 . S
C2485 C2484 1.363 . S
C2485 C2488 1.363 . S
N2486 C2488 1.356 . S
N2486 H2498 0.984 . S
N2486 H2499 0.985 . S
N2487 C2489 1.356 . S
N2487 H2492 0.984 . S
N2487 H2493 0.985 . S
C2488 C2482 1.379 . S
C2488 C2485 1.363 . S
C2488 N2486 1.356 . S
C2489 C2483 1.363 . S
C2489 C2484 1.379 . S
C2489 N2487 1.356 . S
N2490 C2482 1.356 . S
N2490 H2496 0.984 . S
N2490 H2497 0.984 . S
N2491 C2484 1.356 . S
N2491 H2494 0.984 . S
N2491 H2495 0.985 . S
H2492 N2487 0.984 . S
H2493 N2487 0.985 . S
H2494 N2491 0.984 . S
H2495 N2491 0.985 . S
H2496 N2490 0.984 . S
H2497 N2490 0.984 . S
H2498 N2486 0.984 . S
H2499 N2486 0.985 . S
C2500 C2501 1.363 . S
C2500 C2506 1.379 . S
C2500 N2508 1.356 . S
C2501 C2500 1.363 . S
C2501 C2507 1.363 . S
C2502 C2503 1.363 . S
C2502 C2507 1.379 . S
C2502 N2509 1.356 . S
C2503 C2502 1.363 . S
C2503 C2506 1.363 . S
N2504 C2506 1.356 . S
N2504 H2516 0.984 . S
N2504 H2517 0.985 . S
N2505 C2507 1.356 . S
N2505 H2510 0.984 . S
N2505 H2511 0.985 1_655 S
C2506 C2500 1.379 . S
C2506 C2503 1.363 . S
C2506 N2504 1.356 . S
C2507 C2501 1.363 . S
C2507 C2502 1.379 . S
C2507 N2505 1.356 . S
N2508 C2500 1.356 . S
N2508 H2514 0.984 . S
N2508 H2515 0.984 . S
N2509 C2502 1.356 . S
N2509 H2512 0.984 . S
N2509 H2513 0.985 1_655 S
H2510 N2505 0.984 . S
H2511 N2505 0.985 1_455 S
H2512 N2509 0.984 . S
H2513 N2509 0.985 1_455 S
H2514 N2508 0.984 . S
H2515 N2508 0.984 . S
H2516 N2504 0.984 . S
H2517 N2504 0.985 . S
C2518 C2519 1.363 . S
C2518 C2524 1.379 . S
C2518 N2526 1.356 . S
C2519 C2518 1.363 . S
C2519 C2525 1.363 . S
C2520 C2521 1.363 . S
C2520 C2525 1.379 . S
C2520 N2527 1.356 . S
C2521 C2520 1.363 . S
C2521 C2524 1.363 . S
N2522 C2524 1.356 . S
N2522 H2534 0.984 . S
N2522 H2535 0.985 . S
N2523 C2525 1.356 . S
N2523 H2528 0.984 . S
N2523 H2529 0.985 . S
C2524 C2518 1.379 . S
C2524 C2521 1.363 . S
C2524 N2522 1.356 . S
C2525 C2519 1.363 . S
C2525 C2520 1.379 . S
C2525 N2523 1.356 . S
N2526 C2518 1.356 . S
N2526 H2532 0.984 . S
N2526 H2533 0.984 . S
N2527 C2520 1.356 . S
N2527 H2530 0.984 . S
N2527 H2531 0.985 . S
H2528 N2523 0.984 . S
H2529 N2523 0.985 . S
H2530 N2527 0.984 . S
H2531 N2527 0.985 . S
H2532 N2526 0.984 . S
H2533 N2526 0.984 . S
H2534 N2522 0.984 . S
H2535 N2522 0.985 . S
C2536 C2537 1.363 . S
C2536 C2542 1.379 . S
C2536 N2544 1.356 . S
C2537 C2536 1.363 . S
C2537 C2543 1.363 . S
C2538 C2539 1.363 . S
C2538 C2543 1.379 . S
C2538 N2545 1.356 . S
C2539 C2538 1.363 . S
C2539 C2542 1.363 . S
N2540 C2542 1.356 . S
N2540 H2552 0.984 . S
N2540 H2553 0.985 . S
N2541 C2543 1.356 . S
N2541 H2546 0.984 . S
N2541 H2547 0.985 . S
C2542 C2536 1.379 . S
C2542 C2539 1.363 . S
C2542 N2540 1.356 . S
C2543 C2537 1.363 . S
C2543 C2538 1.379 . S
C2543 N2541 1.356 . S
N2544 C2536 1.356 . S
N2544 H2550 0.984 . S
N2544 H2551 0.984 . S
N2545 C2538 1.356 . S
N2545 H2548 0.984 . S
N2545 H2549 0.985 . S
H2546 N2541 0.984 . S
H2547 N2541 0.985 . S
H2548 N2545 0.984 . S
H2549 N2545 0.985 . S
H2550 N2544 0.984 . S
H2551 N2544 0.984 . S
H2552 N2540 0.984 . S
H2553 N2540 0.985 . S
C2554 C2555 1.363 . S
C2554 C2560 1.379 . S
C2554 N2562 1.356 . S
C2555 C2554 1.363 . S
C2555 C2561 1.363 . S
C2556 C2557 1.363 . S
C2556 C2561 1.379 . S
C2556 N2563 1.356 . S
C2557 C2556 1.363 . S
C2557 C2560 1.363 . S
N2558 C2560 1.356 1_545 S
N2558 H2570 0.984 . S
N2558 H2571 0.985 . S
N2559 C2561 1.356 . S
N2559 H2564 0.984 . S
N2559 H2565 0.985 . S
C2560 C2554 1.379 . S
C2560 C2557 1.363 . S
C2560 N2558 1.356 1_565 S
C2561 C2555 1.363 . S
C2561 C2556 1.379 . S
C2561 N2559 1.356 . S
N2562 C2554 1.356 . S
N2562 H2568 0.984 . S
N2562 H2569 0.984 . S
N2563 C2556 1.356 . S
N2563 H2566 0.984 . S
N2563 H2567 0.985 . S
H2564 N2559 0.984 . S
H2565 N2559 0.985 . S
H2566 N2563 0.984 . S
H2567 N2563 0.985 . S
H2568 N2562 0.984 . S
H2569 N2562 0.984 . S
H2570 N2558 0.984 . S
H2571 N2558 0.985 . S
C2572 C2573 1.363 . S
C2572 C2578 1.379 . S
C2572 N2580 1.356 . S
C2573 C2572 1.363 . S
C2573 C2579 1.363 . S
C2574 C2575 1.363 . S
C2574 C2579 1.379 . S
C2574 N2581 1.356 . S
C2575 C2574 1.363 . S
C2575 C2578 1.363 . S
N2576 C2578 1.356 . S
N2576 H2588 0.984 . S
N2576 H2589 0.985 . S
N2577 C2579 1.356 . S
N2577 H2582 0.984 . S
N2577 H2583 0.985 . S
C2578 C2572 1.379 . S
C2578 C2575 1.363 . S
C2578 N2576 1.356 . S
C2579 C2573 1.363 . S
C2579 C2574 1.379 . S
C2579 N2577 1.356 . S
N2580 C2572 1.356 . S
N2580 H2586 0.984 . S
N2580 H2587 0.984 . S
N2581 C2574 1.356 . S
N2581 H2584 0.984 . S
N2581 H2585 0.985 . S
H2582 N2577 0.984 . S
H2583 N2577 0.985 . S
H2584 N2581 0.984 . S
H2585 N2581 0.985 . S
H2586 N2580 0.984 . S
H2587 N2580 0.984 . S
H2588 N2576 0.984 . S
H2589 N2576 0.985 . S
C2590 C2591 1.363 . S
C2590 C2596 1.379 . S
C2590 N2598 1.356 . S
C2591 C2590 1.363 . S
C2591 C2597 1.363 . S
C2592 C2593 1.363 . S
C2592 C2597 1.379 . S
C2592 N2599 1.356 . S
C2593 C2592 1.363 . S
C2593 C2596 1.363 . S
N2594 C2596 1.356 . S
N2594 H2606 0.984 . S
N2594 H2607 0.985 . S
N2595 C2597 1.356 . S
N2595 H2600 0.984 . S
N2595 H2601 0.985 . S
C2596 C2590 1.379 . S
C2596 C2593 1.363 . S
C2596 N2594 1.356 . S
C2597 C2591 1.363 . S
C2597 C2592 1.379 . S
C2597 N2595 1.356 . S
N2598 C2590 1.356 . S
N2598 H2604 0.984 . S
N2598 H2605 0.984 . S
N2599 C2592 1.356 . S
N2599 H2602 0.984 . S
N2599 H2603 0.985 . S
H2600 N2595 0.984 . S
H2601 N2595 0.985 . S
H2602 N2599 0.984 . S
H2603 N2599 0.985 . S
H2604 N2598 0.984 . S
H2605 N2598 0.984 . S
H2606 N2594 0.984 . S
H2607 N2594 0.985 . S
C2608 C2609 1.363 . S
C2608 C2614 1.379 . S
C2608 N2616 1.356 . S
C2609 C2608 1.363 . S
C2609 C2615 1.363 . S
C2610 C2611 1.363 . S
C2610 C2615 1.379 . S
C2610 N2617 1.356 . S
C2611 C2610 1.363 . S
C2611 C2614 1.363 . S
N2612 C2614 1.356 . S
N2612 H2624 0.984 . S
N2612 H2625 0.985 . S
N2613 C2615 1.356 . S
N2613 H2618 0.984 . S
N2613 H2619 0.985 . S
C2614 C2608 1.379 . S
C2614 C2611 1.363 . S
C2614 N2612 1.356 . S
C2615 C2609 1.363 . S
C2615 C2610 1.379 . S
C2615 N2613 1.356 . S
N2616 C2608 1.356 . S
N2616 H2622 0.984 . S
N2616 H2623 0.984 . S
N2617 C2610 1.356 . S
N2617 H2620 0.984 . S
N2617 H2621 0.985 . S
H2618 N2613 0.984 . S
H2619 N2613 0.985 . S
H2620 N2617 0.984 . S
H2621 N2617 0.985 . S
H2622 N2616 0.984 . S
H2623 N2616 0.984 . S
H2624 N2612 0.984 . S
H2625 N2612 0.985 . S
C2626 C2627 1.363 . S
C2626 C2632 1.379 . S
C2626 N2634 1.356 . S
C2627 C2626 1.363 . S
C2627 C2633 1.363 1_554 S
C2628 C2629 1.363 . S
C2628 C2633 1.379 . S
C2628 N2635 1.356 . S
C2629 C2628 1.363 . S
C2629 C2632 1.363 1_556 S
N2630 C2632 1.356 . S
N2630 H2642 0.984 . S
N2630 H2643 0.985 1_554 S
N2631 C2633 1.356 . S
N2631 H2636 0.984 1_556 S
N2631 H2637 0.985 . S
C2632 C2626 1.379 . S
C2632 C2629 1.363 1_554 S
C2632 N2630 1.356 . S
C2633 C2627 1.363 1_556 S
C2633 C2628 1.379 . S
C2633 N2631 1.356 . S
N2634 C2626 1.356 . S
N2634 H2640 0.984 . S
N2634 H2641 0.984 . S
N2635 C2628 1.356 . S
N2635 H2638 0.984 . S
N2635 H2639 0.985 . S
H2636 N2631 0.984 1_554 S
H2637 N2631 0.985 . S
H2638 N2635 0.984 . S
H2639 N2635 0.985 . S
H2640 N2634 0.984 . S
H2641 N2634 0.984 . S
H2642 N2630 0.984 . S
H2643 N2630 0.985 1_556 S
C2644 C2645 1.363 . S
C2644 C2650 1.379 . S
C2644 N2652 1.356 . S
C2645 C2644 1.363 . S
C2645 C2651 1.363 . S
C2646 C2647 1.363 . S
C2646 C2651 1.379 . S
C2646 N2653 1.356 . S
C2647 C2646 1.363 . S
C2647 C2650 1.363 . S
N2648 C2650 1.356 . S
N2648 H2660 0.984 . S
N2648 H2661 0.985 . S
N2649 C2651 1.356 . S
N2649 H2654 0.984 . S
N2649 H2655 0.985 . S
C2650 C2644 1.379 . S
C2650 C2647 1.363 . S
C2650 N2648 1.356 . S
C2651 C2645 1.363 . S
C2651 C2646 1.379 . S
C2651 N2649 1.356 . S
N2652 C2644 1.356 . S
N2652 H2658 0.984 . S
N2652 H2659 0.984 . S
N2653 C2646 1.356 . S
N2653 H2656 0.984 . S
N2653 H2657 0.985 . S
H2654 N2649 0.984 . S
H2655 N2649 0.985 . S
H2656 N2653 0.984 . S
H2657 N2653 0.985 . S
H2658 N2652 0.984 . S
H2659 N2652 0.984 . S
H2660 N2648 0.984 . S
H2661 N2648 0.985 . S
C2662 C2663 1.363 . S
C2662 C2668 1.379 . S
C2662 N2670 1.356 . S
C2663 C2662 1.363 . S
C2663 C2669 1.363 . S
C2664 C2665 1.363 . S
C2664 C2669 1.379 . S
C2664 N2671 1.356 . S
C2665 C2664 1.363 . S
C2665 C2668 1.363 . S
N2666 C2668 1.356 . S
N2666 H2678 0.984 . S
N2666 H2679 0.985 . S
N2667 C2669 1.356 . S
N2667 H2672 0.984 . S
N2667 H2673 0.985 . S
C2668 C2662 1.379 . S
C2668 C2665 1.363 . S
C2668 N2666 1.356 . S
C2669 C2663 1.363 . S
C2669 C2664 1.379 . S
C2669 N2667 1.356 . S
N2670 C2662 1.356 . S
N2670 H2676 0.984 . S
N2670 H2677 0.984 . S
N2671 C2664 1.356 . S
N2671 H2674 0.984 . S
N2671 H2675 0.985 . S
H2672 N2667 0.984 . S
H2673 N2667 0.985 . S
H2674 N2671 0.984 . S
H2675 N2671 0.985 . S
H2676 N2670 0.984 . S
H2677 N2670 0.984 . S
H2678 N2666 0.984 . S
H2679 N2666 0.985 . S
C953 C101 1.136 . S
C955 C320 1.159 . S
C971 C57 1.484 . S
C973 C354 1.479 . S
C989 C73 0.809 . S
C991 C423 0.809 . S
C1009 C461 0.989 . S
C1007 C78 0.981 . S
C1025 C21 1.581 . S
C1027 C501 1.686 . S
C1045 C520 0.524 . S
C1043 C31 0.551 . S
C1063 C554 1.550 . S
C1061 C49 1.514 . S
C1079 C0 1.713 . S
C1081 C623 1.774 . S
C1099 C329 2.493 . S
C1097 C218 2.530 1_455 S
C1115 C229 1.192 . S
C1117 C381 1.264 . S
C1135 C394 1.360 . S
C1133 C257 1.359 . S
C1153 C463 1.661 . S
C1151 C164 1.566 . S
C1169 C216 1.950 1_455 S
C1171 C503 2.118 . S
C1189 C529 1.860 . S
C1187 C231 1.874 . S
C1207 C581 0.622 . S
C1205 C255 0.628 . S
C1225 C594 2.335 . S
C1223 C166 2.354 . S
C1243 C324 2.508 . S
C1241 C143 2.424 1_545 S
C1259 C265 1.969 . S
C1261 C634 2.003 . S
C1279 C684 2.653 . S
C1277 C299 2.643 . S
C1297 C743 1.869 1_655 S
C1295 C291 1.713 . S
C1313 C104 1.568 . S
C1315 C621 1.694 . S
C1331 C117 1.424 . S
C1333 C421 1.510 . S
C1349 C304 2.374 . S
C1351 C754 2.412 . S
C1369 C823 0.873 . S
C1367 C278 0.886 . S
C1387 C341 1.157 . S
C1385 C60 1.161 . S
C1405 C809 1.456 . S
C1403 C96 1.458 . S
C1421 C88 0.741 . S
C1423 C404 0.741 . S
C1439 C65 0.904 . S
C1441 C760 0.928 . S
C1459 C480 1.673 . S
C1457 C10 1.739 . S
C1475 C44 0.516 . S
C1477 C701 0.504 . S
C1495 C569 1.458 1_556 S
C1493 C34 1.252 . S
C1513 C844 1.793 . S
C1511 C13 1.888 . S
C1531 C314 2.489 . S
C1529 C138 2.486 . S
C1549 C800 1.296 . S
C1547 C296 1.312 . S
C1565 C112 1.302 . S
C1567 C409 1.306 . S
C1583 C270 1.586 . S
C1585 C764 1.590 . S
C1601 C140 2.023 . S
C1603 C484 2.055 . S
C1621 C674 1.845 . S
C1619 C294 1.822 . S
C1637 C114 0.511 . S
C1639 C560 0.570 . S
C1655 C268 2.325 . S
C1657 C849 2.309 . S
C1673 C169 2.444 . S
C1675 C343 2.435 1_655 S
C1691 C161 1.962 . S
C1693 C649 1.957 . S
C1709 C234 2.597 . S
C1711 C543 2.599 . S
C1727 C226 1.616 . S
C1729 C724 1.763 . S
C1747 C840 1.736 . S
C1745 C247 1.898 . S
C1763 C195 1.635 . S
C1765 C400 1.531 . S
C1783 C449 2.323 . S
C1781 C239 2.317 . S
C1801 C364 0.857 . S
C1799 C187 0.883 . S
C1817 C75 1.136 . S
C1819 C880 1.159 . S
C1837 C794 1.479 . S
C1835 C83 1.484 . S
C1853 C99 0.809 . S
C1855 C943 0.809 . S
C1871 C52 0.981 . S
C1873 C781 0.989 . S
C1889 C47 1.581 . S
C1891 C661 1.688 . S
C1909 C680 0.524 1_455 S
C1907 C5 0.551 . S
C1927 C714 1.550 . S
C1925 C23 1.512 1_455 S
C1945 C863 1.774 . S
C1943 C26 1.713 . S
C1963 C889 2.493 . S
C1961 C244 2.530 . S
C1979 C177 1.192 . S
C1981 C821 1.264 . S
C1999 C914 1.359 . S
C1997 C192 1.359 . S
C2017 C783 1.661 . S
C2015 C203 1.566 . S
C2035 C663 2.118 . S
C2033 C242 1.950 . S
C2051 C179 1.874 . S
C2053 C689 1.860 . S
C2071 C741 0.622 . S
C2069 C190 0.628 . S
C2087 C205 2.354 . S
C2089 C834 2.335 . S
C2107 C884 2.508 . S
C2105 C286 2.424 . S
C2123 C122 1.969 . S
C2125 C474 2.003 . S
C2143 C524 2.653 . S
C2141 C130 2.643 . S
C2161 C583 1.869 . S
C2159 C148 1.713 1_545 S
C2179 C861 1.697 . S
C2177 C273 1.567 . S
C2195 C260 1.424 . S
C2197 C941 1.510 . S
C2215 C434 2.412 . S
C2213 C135 2.374 . S
C2233 C383 0.873 . S
C2231 C109 0.887 . S
C2249 C86 1.161 . S
C2251 C901 1.157 . S
C2269 C369 1.456 . S
C2267 C70 1.458 . S
C2285 C62 0.740 . S
C2287 C924 0.741 . S
C2303 C91 0.904 . S
C2305 C440 0.928 . S
C2321 C36 1.739 . S
C2323 C640 1.673 . S
C2341 C541 0.504 . S
C2339 C18 0.513 . S
C2357 C8 1.252 . S
C2359 C729 1.458 . S
C2375 C39 1.885 . S
C2377 C604 1.793 . S
C2395 C874 2.489 . S
C2393 C307 2.486 . S
C2411 C153 1.312 . S
C2413 C360 1.296 . S
C2431 C929 1.305 . S
C2429 C281 1.302 . S
C2447 C127 1.586 . S
C2449 C444 1.590 . S
C2465 C309 2.023 . S
C2467 C644 2.055 . S
C2485 C514 1.845 . S
C2483 C151 1.821 . S
C2501 C283 0.511 . S
C2503 C720 0.571 . S
C2521 C609 2.309 . S
C2519 C125 2.325 . S
C2539 C903 2.435 . S
C2537 C221 2.444 . S
C2557 C489 1.957 1_665 S
C2555 C200 1.962 . S
C2573 C208 2.597 . S
C2575 C703 2.599 . S
C2593 C564 1.763 . S
C2591 C174 1.616 . S
C2609 C182 1.897 . S
C2611 C600 1.736 . S
C2627 C156 1.635 . S
C2629 C920 1.531 . S
C2647 C769 2.323 . S
C2645 C213 2.317 1_565 S
C2665 C804 0.857 . S
C2663 C252 0.883 . S
