# Generated by pormake.
# Topology ctn, (3,4)-cn, num edge types: 1
# Building blocks:
#     Node 0, Type 0, BuildingBlock: WUSLED_clean_sbu_0, # of connection points: 3
#     Node 1, Type 0, BuildingBlock: WUSLED_clean_sbu_0, # of connection points: 3
#     Node 2, Type 0, BuildingBlock: WUSLED_clean_sbu_0, # of connection points: 3
#     Node 3, Type 0, BuildingBlock: WUSLED_clean_sbu_0, # of connection points: 3
#     Node 4, Type 0, BuildingBlock: WUSLED_clean_sbu_0, # of connection points: 3
#     Node 5, Type 0, BuildingBlock: WUSLED_clean_sbu_0, # of connection points: 3
#     Node 6, Type 0, BuildingBlock: WUSLED_clean_sbu_0, # of connection points: 3
#     Node 7, Type 0, BuildingBlock: WUSLED_clean_sbu_0, # of connection points: 3
#     Node 8, Type 0, BuildingBlock: WUSLED_clean_sbu_0, # of connection points: 3
#     Node 9, Type 0, BuildingBlock: WUSLED_clean_sbu_0, # of connection points: 3
#     Node 10, Type 0, BuildingBlock: WUSLED_clean_sbu_0, # of connection points: 3
#     Node 11, Type 0, BuildingBlock: WUSLED_clean_sbu_0, # of connection points: 3
#     Node 12, Type 0, BuildingBlock: WUSLED_clean_sbu_0, # of connection points: 3
#     Node 13, Type 0, BuildingBlock: WUSLED_clean_sbu_0, # of connection points: 3
#     Node 14, Type 0, BuildingBlock: WUSLED_clean_sbu_0, # of connection points: 3
#     Node 15, Type 0, BuildingBlock: WUSLED_clean_sbu_0, # of connection points: 3
#     Node 16, Type 1, BuildingBlock: KUFVIS_clean_sbu_0, # of connection points: 4
#     Node 17, Type 1, BuildingBlock: KUFVIS_clean_sbu_0, # of connection points: 4
#     Node 18, Type 1, BuildingBlock: KUFVIS_clean_sbu_0, # of connection points: 4
#     Node 19, Type 1, BuildingBlock: KUFVIS_clean_sbu_0, # of connection points: 4
#     Node 20, Type 1, BuildingBlock: KUFVIS_clean_sbu_0, # of connection points: 4
#     Node 21, Type 1, BuildingBlock: KUFVIS_clean_sbu_0, # of connection points: 4
#     Node 22, Type 1, BuildingBlock: KUFVIS_clean_sbu_0, # of connection points: 4
#     Node 23, Type 1, BuildingBlock: KUFVIS_clean_sbu_0, # of connection points: 4
#     Node 24, Type 1, BuildingBlock: KUFVIS_clean_sbu_0, # of connection points: 4
#     Node 25, Type 1, BuildingBlock: KUFVIS_clean_sbu_0, # of connection points: 4
#     Node 26, Type 1, BuildingBlock: KUFVIS_clean_sbu_0, # of connection points: 4
#     Node 27, Type 1, BuildingBlock: KUFVIS_clean_sbu_0, # of connection points: 4
#     Edge 28, Type (0, 1), BuildingBlock: OJICUG_clean_linker_0, # of connection points: 2
#     Edge 29, Type (0, 1), BuildingBlock: OJICUG_clean_linker_0, # of connection points: 2
#     Edge 30, Type (0, 1), BuildingBlock: OJICUG_clean_linker_0, # of connection points: 2
#     Edge 31, Type (0, 1), BuildingBlock: OJICUG_clean_linker_0, # of connection points: 2
#     Edge 32, Type (0, 1), BuildingBlock: OJICUG_clean_linker_0, # of connection points: 2
#     Edge 33, Type (0, 1), BuildingBlock: OJICUG_clean_linker_0, # of connection points: 2
#     Edge 34, Type (0, 1), BuildingBlock: OJICUG_clean_linker_0, # of connection points: 2
#     Edge 35, Type (0, 1), BuildingBlock: OJICUG_clean_linker_0, # of connection points: 2
#     Edge 36, Type (0, 1), BuildingBlock: OJICUG_clean_linker_0, # of connection points: 2
#     Edge 37, Type (0, 1), BuildingBlock: OJICUG_clean_linker_0, # of connection points: 2
#     Edge 38, Type (0, 1), BuildingBlock: OJICUG_clean_linker_0, # of connection points: 2
#     Edge 39, Type (0, 1), BuildingBlock: OJICUG_clean_linker_0, # of connection points: 2
#     Edge 40, Type (0, 1), BuildingBlock: OJICUG_clean_linker_0, # of connection points: 2
#     Edge 41, Type (0, 1), BuildingBlock: OJICUG_clean_linker_0, # of connection points: 2
#     Edge 42, Type (0, 1), BuildingBlock: OJICUG_clean_linker_0, # of connection points: 2
#     Edge 43, Type (0, 1), BuildingBlock: OJICUG_clean_linker_0, # of connection points: 2
#     Edge 44, Type (0, 1), BuildingBlock: OJICUG_clean_linker_0, # of connection points: 2
#     Edge 45, Type (0, 1), BuildingBlock: OJICUG_clean_linker_0, # of connection points: 2
#     Edge 46, Type (0, 1), BuildingBlock: OJICUG_clean_linker_0, # of connection points: 2
#     Edge 47, Type (0, 1), BuildingBlock: OJICUG_clean_linker_0, # of connection points: 2
#     Edge 48, Type (0, 1), BuildingBlock: OJICUG_clean_linker_0, # of connection points: 2
#     Edge 49, Type (0, 1), BuildingBlock: OJICUG_clean_linker_0, # of connection points: 2
#     Edge 50, Type (0, 1), BuildingBlock: OJICUG_clean_linker_0, # of connection points: 2
#     Edge 51, Type (0, 1), BuildingBlock: OJICUG_clean_linker_0, # of connection points: 2
#     Edge 52, Type (0, 1), BuildingBlock: OJICUG_clean_linker_0, # of connection points: 2
#     Edge 53, Type (0, 1), BuildingBlock: OJICUG_clean_linker_0, # of connection points: 2
#     Edge 54, Type (0, 1), BuildingBlock: OJICUG_clean_linker_0, # of connection points: 2
#     Edge 55, Type (0, 1), BuildingBlock: OJICUG_clean_linker_0, # of connection points: 2
#     Edge 56, Type (0, 1), BuildingBlock: OJICUG_clean_linker_0, # of connection points: 2
#     Edge 57, Type (0, 1), BuildingBlock: OJICUG_clean_linker_0, # of connection points: 2
#     Edge 58, Type (0, 1), BuildingBlock: OJICUG_clean_linker_0, # of connection points: 2
#     Edge 59, Type (0, 1), BuildingBlock: OJICUG_clean_linker_0, # of connection points: 2
#     Edge 60, Type (0, 1), BuildingBlock: OJICUG_clean_linker_0, # of connection points: 2
#     Edge 61, Type (0, 1), BuildingBlock: OJICUG_clean_linker_0, # of connection points: 2
#     Edge 62, Type (0, 1), BuildingBlock: OJICUG_clean_linker_0, # of connection points: 2
#     Edge 63, Type (0, 1), BuildingBlock: OJICUG_clean_linker_0, # of connection points: 2
#     Edge 64, Type (0, 1), BuildingBlock: OJICUG_clean_linker_0, # of connection points: 2
#     Edge 65, Type (0, 1), BuildingBlock: OJICUG_clean_linker_0, # of connection points: 2
#     Edge 66, Type (0, 1), BuildingBlock: OJICUG_clean_linker_0, # of connection points: 2
#     Edge 67, Type (0, 1), BuildingBlock: OJICUG_clean_linker_0, # of connection points: 2
#     Edge 68, Type (0, 1), BuildingBlock: OJICUG_clean_linker_0, # of connection points: 2
#     Edge 69, Type (0, 1), BuildingBlock: OJICUG_clean_linker_0, # of connection points: 2
#     Edge 70, Type (0, 1), BuildingBlock: OJICUG_clean_linker_0, # of connection points: 2
#     Edge 71, Type (0, 1), BuildingBlock: OJICUG_clean_linker_0, # of connection points: 2
#     Edge 72, Type (0, 1), BuildingBlock: OJICUG_clean_linker_0, # of connection points: 2
#     Edge 73, Type (0, 1), BuildingBlock: OJICUG_clean_linker_0, # of connection points: 2
#     Edge 74, Type (0, 1), BuildingBlock: OJICUG_clean_linker_0, # of connection points: 2
#     Edge 75, Type (0, 1), BuildingBlock: OJICUG_clean_linker_0, # of connection points: 2
# Relax obj value: 0.013
# Max RMSD: 0.064
# Mean RMSD: 0.032
data_MOF--net-ctn--node1-WUSLED_clean_sbu_0--node2-KUFVIS_clean_sbu_0--edge1-OJICUG_clean_linker_0
_symmetry_space_group_name_H-M    P1
_symmetry_Int_Tables_number       1
_symmetry_cell_setting            triclinic
loop_
_symmetry_equiv_pos_as_xyz
'x, y, z'
_cell_length_a     55.147353
_cell_length_b     55.364616
_cell_length_c     55.61037
_cell_angle_alpha  91.538189
_cell_angle_beta   90.169343
_cell_angle_gamma 91.429199
loop_
_atom_site_label
_atom_site_type_symbol
_atom_site_fract_x
_atom_site_fract_y
_atom_site_fract_z
_atom_type_partial_charge
C0 C 1.00696 0.05603 0.1085 0.0
C1 C 0.01779 0.03948 0.12369 0.0
C2 C 0.98259 0.04043 0.15052 0.0
C3 C 1.00569 0.03171 0.14448 0.0
C4 C 0.97183 0.05675 0.13496 0.0
C5 C 0.98386 0.06442 0.11428 0.0
U6 U 0.05593 0.05711 0.05773 0.0
O7 O 0.05069 0.06563 0.01961 0.0
O8 O 0.07431 0.08907 0.0424 0.0
C9 C 0.06373 0.08583 0.02129 0.0
C10 C 0.01922 0.06545 0.08687 0.0
C11 C 0.0539 0.10765 1.00989 0.0
C12 C 0.02275 0.12771 0.98685 0.0
C13 C 0.03048 0.10778 0.99974 0.0
C14 C 0.06144 0.14801 0.99439 0.0
C15 C 0.03825 0.14802 0.98366 0.0
C16 C 0.06914 0.12811 1.00722 0.0
C17 C 0.10559 1.00747 0.05592 0.0
C18 C 0.14339 1.00579 0.03326 0.0
C19 C 0.12988 0.9713 0.0559 0.0
C20 C 0.10932 0.9838 0.06324 0.0
C21 C 0.14739 0.98212 0.04097 0.0
C22 C 0.12272 0.01838 0.04072 0.0
C23 C 0.08414 0.02025 0.06534 0.0
O24 O 0.04099 0.07527 0.08998 0.0
O25 O 0.01727 0.05212 0.06702 0.0
O26 O 0.0642 0.01852 0.05234 0.0
O27 O 0.08795 0.04194 0.07503 0.0
H28 H 0.03563 0.03276 0.1196 0.0
H29 H 1.01464 0.01925 0.15605 0.0
H30 H 0.95393 0.06352 0.13864 0.0
H31 H 0.9751 0.07711 0.10279 0.0
H32 H 1.00488 0.12685 0.97872 0.0
H33 H 0.01827 0.09227 1.00125 0.0
H34 H 0.07379 0.16339 0.99278 0.0
H35 H 0.08732 0.12854 1.01467 0.0
H36 H 0.15649 1.01479 0.02188 0.0
H37 H 0.13198 0.953 0.06186 0.0
H38 H 0.09634 0.97498 0.07491 0.0
H39 H 0.12026 0.03666 0.03487 0.0
C40 C 0.30248 0.75512 0.16512 0.0
C41 C 0.28264 0.77049 0.16419 0.0
C42 C 0.30089 0.79247 0.13098 0.0
C43 C 0.28186 0.7889 0.14745 0.0
C44 C 0.32092 0.7772 0.13204 0.0
C45 C 0.32173 0.75876 0.14891 0.0
U46 U 0.32549 0.71758 0.21861 0.0
O47 O 0.30417 0.70045 0.24724 0.0
O48 O 0.32542 0.67803 0.22241 0.0
C49 C 0.31019 0.67847 0.24055 0.0
C50 C 0.30159 0.73453 0.18185 0.0
C51 C 0.29063 0.65971 0.24046 0.0
C52 C 0.25331 0.64074 0.22454 0.0
C53 C 0.27173 0.65875 0.22342 0.0
C54 C 0.27263 0.62459 0.25957 0.0
C55 C 0.25346 0.62354 0.2428 0.0
C56 C 0.29093 0.64243 0.2584 0.0
C57 C 0.38388 0.73963 0.25317 0.0
C58 C 0.40138 0.72217 0.28892 0.0
C59 C 0.42023 0.75766 0.27175 0.0
C60 C 0.40249 0.75733 0.25374 0.0
C61 C 0.41985 0.74025 0.28974 0.0
C62 C 0.38347 0.7219 0.27081 0.0
C63 C 0.36507 0.74071 0.23424 0.0
O64 O 0.31836 0.71814 0.1796 0.0
O65 O 0.2963 0.73976 0.2044 0.0
O66 O 0.34313 0.74603 0.24148 0.0
O67 O 0.36515 0.72368 0.21731 0.0
H68 H 0.26738 0.76794 0.17617 0.0
H69 H 0.26592 0.7999 0.14698 0.0
H70 H 0.33601 0.77949 0.11982 0.0
H71 H 0.33727 0.7472 0.14902 0.0
H72 H 0.2387 0.64058 0.21147 0.0
H73 H 0.27113 0.67198 0.20944 0.0
H74 H 0.27358 0.61148 0.27364 0.0
H75 H 0.30537 0.64278 0.27167 0.0
H76 H 0.40043 0.70862 0.30261 0.0
H77 H 0.43433 0.77163 0.27158 0.0
H78 H 0.4032 0.77112 0.24027 0.0
H79 H 0.36921 0.70809 0.27072 0.0
C80 C 0.9834 0.42852 1.01007 0.0
C81 C 1.00735 0.42563 1.00192 0.0
C82 C 0.99743 0.38446 0.98709 0.0
C83 C 1.01427 0.40384 0.99053 0.0
C84 C 0.97358 0.38751 0.99549 0.0
C85 C 0.96672 0.40916 1.00677 0.0
U86 U 0.9841 0.48374 0.05543 0.0
O87 O 0.97504 0.52159 0.04876 0.0
O88 O 0.95305 0.50043 0.07384 0.0
C89 C 0.95585 0.52097 0.06275 0.0
C90 C 0.9746 0.45175 0.02048 0.0
C91 C 0.9334 0.5326 0.05435 0.0
C92 C 0.90883 0.55129 0.02354 0.0
C93 C 0.9291 0.53786 0.03008 0.0
C94 C 0.89669 0.55391 0.06525 0.0
C95 C 0.89265 0.55996 0.04116 0.0
C96 C 0.91674 0.54047 0.07171 0.0
C97 C 0.03475 0.48774 0.10521 0.0
C98 C 0.03629 0.51047 0.14344 0.0
C99 C 0.07163 0.48924 0.12951 0.0
C100 C 0.05894 0.48143 0.10878 0.0
C101 C 0.06045 0.50363 0.14733 0.0
C102 C 0.02353 0.50252 0.12261 0.0
C103 C 0.02162 0.47732 0.08389 0.0
O104 O 0.96456 0.45087 0.04185 0.0
O105 O 0.98815 0.47136 0.01765 0.0
O106 O 0.02305 0.48938 0.06388 0.0
O107 O 0.99992 0.46783 0.08759 0.0
H108 H 0.02066 0.44024 1.00408 0.0
H109 H 0.0328 0.40219 0.98446 0.0
H110 H 0.95987 0.37335 0.99276 0.0
H111 H 0.94808 0.41095 1.01253 0.0
H112 H 0.90634 0.55564 1.00484 0.0
H113 H 0.94166 0.5321 0.01625 0.0
H114 H 0.88443 0.55983 0.07928 0.0
H115 H 0.91958 0.53675 0.09053 0.0
H116 H 0.02704 0.52142 0.15678 0.0
H117 H 0.09028 0.48397 0.13157 0.0
H118 H 0.06799 0.47006 0.09561 0.0
H119 H 1.00483 0.50757 0.12031 0.0
C120 C 0.71271 0.77283 0.17122 0.0
C121 C 0.71062 0.78185 0.14789 0.0
C122 C 0.72343 0.74336 0.13011 0.0
C123 C 0.71591 0.7673 0.12762 0.0
C124 C 0.72595 0.73456 0.15348 0.0
C125 C 0.72057 0.74907 0.17372 0.0
U126 U 0.71698 0.82627 0.2183 0.0
O127 O 0.68724 0.84673 0.23505 0.0
O128 O 0.71136 0.82579 0.25745 0.0
C129 C 0.69174 0.83878 0.25663 0.0
C130 C 0.70483 0.78691 0.19292 0.0
C131 C 0.67051 0.83033 0.27081 0.0
C132 C 0.64873 0.7994 0.29324 0.0
C133 C 0.66783 0.80628 0.27805 0.0
C134 C 0.6342 0.84027 0.29368 0.0
C135 C 0.6318 0.81636 0.30151 0.0
C136 C 0.65336 0.84715 0.2786 0.0
C137 C 0.76875 0.87489 0.21208 0.0
C138 C 0.77812 0.9086 0.23989 0.0
C139 C 0.80202 0.90317 0.20381 0.0
C140 C 0.78784 0.88268 0.19737 0.0
C141 C 0.79746 0.91644 0.2252 0.0
C142 C 0.76389 0.88803 0.23338 0.0
C143 C 0.7547 0.85276 0.20486 0.0
O144 O 0.71918 0.78686 0.21185 0.0
O145 O 0.6953 0.8081 0.1895 0.0
O146 O 0.73256 0.85576 0.19685 0.0
O147 O 0.75629 0.83434 0.21914 0.0
H148 H 0.70451 0.80002 0.14521 0.0
H149 H 0.71405 0.77482 0.10995 0.0
H150 H 0.73139 0.71616 0.15616 0.0
H151 H 0.72203 0.74146 0.1914 0.0
H152 H 0.64726 0.78074 0.29855 0.0
H153 H 0.68069 0.79284 0.2723 0.0
H154 H 0.6217 0.85388 0.2998 0.0
H155 H 0.65509 0.86584 0.27341 0.0
H156 H 0.77389 0.91844 0.25638 0.0
H157 H 0.81692 0.90827 0.19222 0.0
H158 H 0.79198 0.87271 0.18091 0.0
H159 H 0.74921 0.88233 0.245 0.0
C160 C 1.00849 0.98237 0.4333 0.0
C161 C 1.00059 1.00616 0.43055 0.0
C162 C 0.98577 0.99612 0.3898 0.0
C163 C 0.98935 1.01294 0.40905 0.0
C164 C 0.99383 0.97241 0.39271 0.0
C165 C 1.00497 0.96569 0.41408 0.0
U166 U 0.0559 0.98099 0.48574 0.0
O167 O 0.04993 0.97445 0.52437 0.0
O168 O 0.07115 0.94912 0.50248 0.0
C169 C 0.06147 0.95393 0.5236 0.0
C170 C 0.01865 0.97372 0.45633 0.0
C171 C 0.05071 0.93334 0.53695 0.0
C172 C 0.03865 0.89069 0.53968 0.0
C173 C 0.04528 0.91069 0.52582 0.0
C174 C 0.04195 0.91578 0.57585 0.0
C175 C 0.03749 0.89284 0.56497 0.0
C176 C 0.04848 0.9357 0.56204 0.0
C177 C 0.11163 0.02641 0.48475 0.0
C178 C 0.14007 0.04018 0.51627 0.0
C179 C 0.14818 0.04951 0.47482 0.0
C180 C 0.12681 0.03717 0.46776 0.0
C181 C 0.15517 0.05162 0.49925 0.0
C182 C 0.11851 0.02777 0.50911 0.0
C183 C 0.0884 1.0151 0.47623 0.0
O184 O 0.03877 0.96154 0.45475 0.0
O185 O 0.01814 0.98829 0.4754 0.0
O186 O 0.06902 0.01884 0.48939 0.0
O187 O 0.08926 0.99296 0.46721 0.0
H188 H 1.00283 0.01948 0.44506 0.0
H189 H 0.98352 0.03137 0.40751 0.0
H190 H 0.99097 0.95871 0.37867 0.0
H191 H 1.01044 0.94714 0.41575 0.0
H192 H 0.03549 0.87332 0.53065 0.0
H193 H 0.04694 0.9082 0.50652 0.0
H194 H 0.04085 0.91829 0.5952 0.0
H195 H 0.05264 0.95287 0.57113 0.0
H196 H 0.14479 0.04073 0.53517 0.0
H197 H 0.15871 0.05797 0.4609 0.0
H198 H 0.12186 0.03647 0.44887 0.0
H199 H 0.10714 0.01948 0.52259 0.0
C200 C 0.20954 0.76796 0.87524 0.0
C201 C 0.23013 0.76287 0.88893 0.0
C202 C 0.22163 0.79653 0.91688 0.0
C203 C 0.23613 0.77704 0.90954 0.0
C204 C 0.20099 0.80138 0.90304 0.0
C205 C 0.19505 0.78727 0.8825 0.0
U206 U 0.21695 0.71615 0.82732 0.0
O207 O 0.18829 0.69361 0.80945 0.0
O208 O 0.2114 0.71766 0.78815 0.0
C209 C 0.19256 0.70262 0.78821 0.0
C210 C 0.20277 0.75377 0.85323 0.0
C211 C 0.17102 0.70923 0.77404 0.0
C212 C 0.14393 0.73874 0.75734 0.0
C213 C 0.16398 0.7333 0.77174 0.0
C214 C 0.13764 0.69619 0.74759 0.0
C215 C 0.13046 0.72023 0.74506 0.0
C216 C 0.15762 0.69081 0.76187 0.0
C217 C 0.26928 0.67053 0.83232 0.0
C218 C 0.29348 0.64907 0.80236 0.0
C219 C 0.29042 0.63395 0.84266 0.0
C220 C 0.27534 0.65309 0.84909 0.0
C221 C 0.30001 0.63185 0.81929 0.0
C222 C 0.27828 0.66815 0.80877 0.0
C223 C 0.25503 0.69171 0.84035 0.0
O224 O 0.21774 0.75542 0.83497 0.0
O225 O 0.19445 0.73162 0.8563 0.0
O226 O 0.23299 0.68715 0.84828 0.0
O227 O 0.25642 0.71105 0.82715 0.0
H228 H 0.24155 0.74801 0.88365 0.0
H229 H 0.25204 0.77259 0.91981 0.0
H230 H 0.18961 0.81642 0.90777 0.0
H231 H 0.17914 0.79158 0.87213 0.0
H232 H 0.13883 0.75742 0.75604 0.0
H233 H 0.17399 0.74787 0.78098 0.0
H234 H 0.12806 0.68147 0.73816 0.0
H235 H 0.16279 0.67214 0.76323 0.0
H236 H 0.30016 0.64785 0.78409 0.0
H237 H 0.29518 0.62122 0.85624 0.0
H238 H 0.26879 0.65458 0.86741 0.0
H239 H 0.27391 0.68121 0.79537 0.0
C240 C 0.98448 0.60875 0.53204 0.0
C241 C 1.00869 0.61721 0.53128 0.0
C242 C 0.999 0.65208 0.55749 0.0
C243 C 1.01588 0.63866 0.54385 0.0
C244 C 0.97471 0.64346 0.55765 0.0
C245 C 0.96764 0.62218 0.54518 0.0
U246 U 0.98375 0.556 0.48336 0.0
O247 O 0.97331 0.51773 0.48862 0.0
O248 O 0.95154 0.53986 0.46507 0.0
C249 C 0.95347 0.519 0.47555 0.0
C250 C 0.97591 0.58584 0.52009 0.0
C251 C 0.93056 0.50805 0.48497 0.0
C252 C 0.90706 0.48698 0.51564 0.0
C253 C 0.92863 0.49871 0.50823 0.0
C254 C 0.88906 0.49387 0.47681 0.0
C255 C 0.88694 0.4844 0.49999 0.0
C256 C 0.9105 0.50547 0.46946 0.0
C257 C 0.03056 0.55576 0.43031 0.0
C258 C 0.05178 0.52591 0.40547 0.0
C259 C 0.04494 0.56567 0.39026 0.0
C260 C 0.03319 0.57216 0.41164 0.0
C261 C 0.0545 0.54248 0.38678 0.0
C262 C 0.03993 0.53247 0.42701 0.0
C263 C 0.01976 0.56446 0.45339 0.0
O264 O 0.96541 0.58763 0.49901 0.0
O265 O 0.98984 0.56698 0.52138 0.0
O266 O 0.02186 0.55109 0.47247 0.0
O267 O 0.99852 0.57456 0.45187 0.0
H268 H 0.02204 0.60722 0.52112 0.0
H269 H 0.03463 0.64472 0.54271 0.0
H270 H 0.96098 0.65271 0.56788 0.0
H271 H 0.94887 0.61601 0.5461 0.0
H272 H 0.90612 0.48002 0.53363 0.0
H273 H 0.94381 0.50022 0.52062 0.0
H274 H 0.87432 0.49179 0.46396 0.0
H275 H 0.91153 0.51208 0.45131 0.0
H276 H 0.05878 0.50787 0.40348 0.0
H277 H 0.04712 0.57923 0.37671 0.0
H278 H 0.02657 0.59035 0.41378 0.0
H279 H 0.03839 0.51942 0.44112 0.0
C280 C 0.80893 0.78963 0.88485 0.0
C281 C 0.80725 0.76475 0.87889 0.0
C282 C 0.80712 0.75473 0.92149 0.0
C283 C 0.80644 0.74751 0.897 0.0
C284 C 0.81001 0.77955 0.9273 0.0
C285 C 0.81084 0.79672 0.90924 0.0
U286 U 0.82631 0.8266 0.82802 0.0
O287 O 0.80213 0.83992 0.79986 0.0
O288 O 0.82295 0.86571 0.8229 0.0
C289 C 0.8063 0.86275 0.80602 0.0
C290 C 0.8058 0.8085 0.86655 0.0
C291 C 0.78494 0.87869 0.80711 0.0
C292 C 0.76229 0.91171 0.8256 0.0
C293 C 0.78106 0.89502 0.82649 0.0
C294 C 0.75065 0.89579 0.78623 0.0
C295 C 0.74695 0.91251 0.80533 0.0
C296 C 0.76937 0.87919 0.78711 0.0
C297 C 0.88544 0.81073 0.79239 0.0
C298 C 0.8977 0.80714 0.75027 0.0
C299 C 0.92824 0.81041 0.78156 0.0
C300 C 0.91004 0.81213 0.79897 0.0
C301 C 0.92235 0.80719 0.75702 0.0
C302 C 0.87942 0.80879 0.76777 0.0
C303 C 0.86695 0.80836 0.81165 0.0
O304 O 0.82113 0.82708 0.86739 0.0
O305 O 0.80018 0.80128 0.84446 0.0
O306 O 0.84527 0.79987 0.80544 0.0
O307 O 0.86635 0.82576 0.82818 0.0
H308 H 0.80561 0.75859 0.8603 0.0
H309 H 0.80399 0.72861 0.89182 0.0
H310 H 0.8109 0.7858 0.94591 0.0
H311 H 0.81202 0.81571 0.91445 0.0
H312 H 0.7599 0.92409 0.84077 0.0
H313 H 0.79278 0.89525 0.84215 0.0
H314 H 0.73961 0.89603 0.77011 0.0
H315 H 0.77211 0.86713 0.77174 0.0
H316 H 0.89247 0.80449 0.73158 0.0
H317 H 0.94701 0.81083 0.7874 0.0
H318 H 0.91523 0.81354 0.81777 0.0
H319 H 0.86062 0.80759 0.76208 0.0
C320 C 0.31044 0.28901 0.38312 0.0
C321 C 0.31174 0.26483 0.37489 0.0
C322 C 0.30755 0.25058 0.41598 0.0
C323 C 0.31028 0.24588 0.39111 0.0
C324 C 0.30775 0.27481 0.4243 0.0
C325 C 0.30907 0.29377 0.40804 0.0
U326 U 0.3285 0.32838 0.3284 0.0
O327 O 0.30476 0.34248 0.30034 0.0
O328 O 0.32511 0.36769 0.3244 0.0
C329 C 0.30875 0.36515 0.30718 0.0
C330 C 0.30763 0.30916 0.36621 0.0
C331 C 0.28725 0.38092 0.30825 0.0
C332 C 0.26438 0.41391 0.32652 0.0
C333 C 0.28339 0.39748 0.32745 0.0
C334 C 0.25254 0.39731 0.28746 0.0
C335 C 0.2488 0.41422 0.30639 0.0
C336 C 0.27147 0.38098 0.28839 0.0
C337 C 0.38724 0.31248 0.29207 0.0
C338 C 0.3993 0.30911 0.24988 0.0
C339 C 0.42999 0.31201 0.28103 0.0
C340 C 0.41187 0.3137 0.29854 0.0
C341 C 0.42398 0.30897 0.25651 0.0
C342 C 0.38111 0.31075 0.26747 0.0
C343 C 0.36881 0.30999 0.3114 0.0
O344 O 0.32353 0.32724 0.36784 0.0
O345 O 0.30166 0.30326 0.34386 0.0
O346 O 0.34701 0.30189 0.30515 0.0
O347 O 0.36851 0.32706 0.32828 0.0
H348 H 0.31291 0.26046 0.35583 0.0
H349 H 0.31047 0.22745 0.38408 0.0
H350 H 0.30544 0.27914 0.44325 0.0
H351 H 0.3079 0.31221 0.4149 0.0
H352 H 0.26199 0.42646 0.34154 0.0
H353 H 0.29528 0.39808 0.34299 0.0
H354 H 0.24133 0.39719 0.27144 0.0
H355 H 0.2742 0.36876 0.27314 0.0
H356 H 0.39398 0.30661 0.2312 0.0
H357 H 0.44878 0.31228 0.2868 0.0
H358 H 0.41716 0.31495 0.31733 0.0
H359 H 0.36229 0.30968 0.26185 0.0
C360 C 0.48784 0.93244 0.50736 0.0
C361 C 0.49007 0.91167 0.52116 0.0
C362 C 0.50168 0.88782 0.48548 0.0
C363 C 0.49687 0.88965 0.51035 0.0
C364 C 0.50037 0.90889 0.47196 0.0
C365 C 0.49346 0.93085 0.48275 0.0
U366 U 0.48512 0.98648 0.55361 0.0
O367 O 0.47809 0.02489 0.54705 0.0
O368 O 0.45313 1.00382 0.56943 0.0
C369 C 0.4576 0.02454 0.55908 0.0
C370 C 0.47779 0.95525 0.51753 0.0
C371 C 0.43673 0.03719 0.54846 0.0
C372 C 0.39388 0.03909 0.53734 0.0
C373 C 0.41399 0.02569 0.54425 0.0
C374 C 0.419 0.0755 0.538 0.0
C375 C 0.39598 0.06431 0.53467 0.0
C376 C 0.43903 0.06214 0.54482 0.0
C377 C 0.53378 0.98902 0.60556 0.0
C378 C 0.53532 1.0118 0.64376 0.0
C379 C 0.57037 0.98985 0.63027 0.0
C380 C 0.55778 0.98223 0.60942 0.0
C381 C 0.55929 1.00452 0.64791 0.0
C382 C 0.52264 1.00404 0.62281 0.0
C383 C 0.52095 0.97909 0.58387 0.0
O384 O 0.46635 0.95405 0.53821 0.0
O385 O 0.4914 0.97495 0.51582 0.0
O386 O 0.52369 0.99105 0.56393 0.0
O387 O 0.49877 0.97038 0.58669 0.0
H388 H 0.48597 0.91224 0.5402 0.0
H389 H 0.49797 0.87392 0.52143 0.0
H390 H 0.5036 0.9082 0.45275 0.0
H391 H 0.49176 0.94649 0.47163 0.0
H392 H 0.37645 0.02983 0.53508 0.0
H393 H 0.41153 1.00649 0.547 0.0
H394 H 0.4215 0.09477 0.53575 0.0
H395 H 0.45626 0.07153 0.548 0.0
H396 H 0.52615 0.02299 0.65697 0.0
H397 H 0.58889 0.98424 0.63251 0.0
H398 H 0.56678 0.9707 0.59636 0.0
H399 H 0.5041 1.0095 0.62024 0.0
C400 C 0.20981 0.27476 0.66655 0.0
C401 C 0.23401 0.27255 0.65909 0.0
C402 C 0.22114 0.24662 0.62476 0.0
C403 C 0.23961 0.25859 0.63845 0.0
C404 C 0.19694 0.24929 0.63217 0.0
C405 C 0.19139 0.26315 0.65278 0.0
U406 U 0.21693 0.32623 0.71535 0.0
O407 O 0.18832 0.34604 0.73444 0.0
O408 O 0.21331 0.32402 0.75477 0.0
C409 C 0.1939 0.33734 0.75547 0.0
C410 C 0.2032 0.28794 0.68908 0.0
C411 C 0.17361 0.32878 0.77085 0.0
C412 C 0.13157 0.31538 0.77681 0.0
C413 C 0.15068 0.3219 0.76141 0.0
C414 C 0.158 0.32231 0.81121 0.0
C415 C 0.13495 0.31553 0.80196 0.0
C416 C 0.177 0.32886 0.79587 0.0
C417 C 0.26836 0.37505 0.70898 0.0
C418 C 0.27772 0.40841 0.73724 0.0
C419 C 0.30177 0.40333 0.70121 0.0
C420 C 0.28757 0.38295 0.69447 0.0
C421 C 0.29712 0.41639 0.72271 0.0
C422 C 0.26346 0.38795 0.73043 0.0
C423 C 0.25406 0.35322 0.70131 0.0
O424 O 0.21857 0.28718 0.70716 0.0
O425 O 0.19382 0.30934 0.68673 0.0
O426 O 0.23158 0.35658 0.6945 0.0
O427 O 0.25628 0.33412 0.71459 0.0
H428 H 0.2486 0.28137 0.66934 0.0
H429 H 0.25843 0.25723 0.63319 0.0
H430 H 0.18223 0.24013 0.62241 0.0
H431 H 0.1726 0.26446 0.65823 0.0
H432 H 0.1142 0.30999 0.76898 0.0
H433 H 0.14748 0.32169 0.74218 0.0
H434 H 0.16129 0.323 0.83043 0.0
H435 H 0.1944 0.33433 0.80364 0.0
H436 H 0.27341 0.41807 0.7538 0.0
H437 H 0.31672 0.40856 0.68974 0.0
H438 H 0.29173 0.37319 0.6779 0.0
H439 H 0.24869 0.38217 0.74189 0.0
C440 C 0.80471 0.25249 0.66257 0.0
C441 C 0.80976 0.27665 0.66978 0.0
C442 C 0.80382 0.28993 0.62856 0.0
C443 C 0.80928 0.29514 0.65298 0.0
C444 C 0.79944 0.26562 0.62139 0.0
C445 C 0.79984 0.24719 0.63818 0.0
U446 U 0.82583 0.21674 0.71787 0.0
O447 O 0.80381 0.20056 0.74657 0.0
O448 O 0.82539 0.17734 0.72279 0.0
C449 C 0.80981 0.17837 0.74061 0.0
C450 C 0.8028 0.23272 0.6801 0.0
C451 C 0.79018 0.15968 0.74066 0.0
C452 C 0.75285 0.14064 0.7248 0.0
C453 C 0.77126 0.15867 0.72363 0.0
C454 C 0.77221 0.12457 0.75985 0.0
C455 C 0.75303 0.12346 0.74308 0.0
C456 C 0.7905 0.14243 0.75863 0.0
C457 C 0.88442 0.23896 0.75215 0.0
C458 C 0.90232 0.22171 0.78781 0.0
C459 C 0.9208 0.25727 0.77042 0.0
C460 C 0.9029 0.25679 0.75256 0.0
C461 C 0.92071 0.23989 0.78843 0.0
C462 C 0.88426 0.22128 0.76984 0.0
C463 C 0.86563 0.2397 0.73317 0.0
O464 O 0.81928 0.216 0.67862 0.0
O465 O 0.79739 0.23888 0.70242 0.0
O466 O 0.84374 0.2455 0.74016 0.0
O467 O 0.86555 0.22221 0.71672 0.0
H468 H 0.81368 0.28131 0.68845 0.0
H469 H 0.81304 0.31357 0.65916 0.0
H470 H 0.79482 0.26085 0.6029 0.0
H471 H 0.79573 0.22876 0.63217 0.0
H472 H 0.73824 0.14044 0.71174 0.0
H473 H 0.77066 0.17185 0.70961 0.0
H474 H 0.77321 0.11149 0.77393 0.0
H475 H 0.80496 0.14281 0.77188 0.0
H476 H 0.90159 0.20819 0.80153 0.0
H477 H 0.93481 0.27132 0.77009 0.0
H478 H 0.90343 0.27053 0.73904 0.0
H479 H 0.87012 0.20735 0.76986 0.0
C480 C 0.50624 0.55683 0.60718 0.0
C481 C 0.51676 0.53974 0.62197 0.0
C482 C 0.4819 0.54122 0.6492 0.0
C483 C 0.50468 0.53197 0.64276 0.0
C484 C 0.47148 0.55816 0.63407 0.0
C485 C 0.4835 0.56584 0.61339 0.0
U486 U 0.55551 0.557 0.55694 0.0
O487 O 0.55059 0.56399 0.51834 0.0
O488 O 0.57366 0.58846 0.54062 0.0
C489 C 0.5638 0.58408 0.51934 0.0
C490 C 0.51842 0.56595 0.58538 0.0
C491 C 0.55414 0.60505 0.50666 0.0
C492 C 0.53013 0.64146 0.50505 0.0
C493 C 0.53805 0.62128 0.51755 0.0
C494 C 0.55407 0.62922 0.47066 0.0
C495 C 0.53825 0.64585 0.48147 0.0
C496 C 0.56188 0.60915 0.48309 0.0
C497 C 0.6054 0.50771 0.55709 0.0
C498 C 0.64295 0.50546 0.5341 0.0
C499 C 0.62991 0.47171 0.55802 0.0
C500 C 0.60937 0.48436 0.56519 0.0
C501 C 0.64716 0.48208 0.5425 0.0
C502 C 0.6223 0.51818 0.54137 0.0
C503 C 0.58385 0.52062 0.56608 0.0
O504 O 0.54005 0.57612 0.58838 0.0
O505 O 0.51679 0.55205 0.56589 0.0
O506 O 0.56397 0.51832 0.55305 0.0
O507 O 0.58749 0.54263 0.57505 0.0
H508 H 0.53432 0.53253 0.61752 0.0
H509 H 0.51338 0.51904 0.65399 0.0
H510 H 0.45382 0.56537 0.63805 0.0
H511 H 0.47499 0.57895 0.6022 0.0
H512 H 0.51808 0.65389 0.51406 0.0
H513 H 0.53181 0.61851 0.53574 0.0
H514 H 0.56038 0.6316 0.45244 0.0
H515 H 0.57421 0.59684 0.47427 0.0
H516 H 0.65585 0.51413 0.52227 0.0
H517 H 0.63216 0.45364 0.56453 0.0
H518 H 0.59656 0.47588 0.57728 0.0
H519 H 0.61965 0.53621 0.5349 0.0
C520 C 0.50852 0.48276 0.9313 0.0
C521 C 0.50075 0.50658 0.92844 0.0
C522 C 0.48551 0.49629 0.88789 0.0
C523 C 0.48936 0.51325 0.90698 0.0
C524 C 0.49344 0.47256 0.89092 0.0
C525 C 0.50472 0.46594 0.91225 0.0
U526 U 0.55625 0.48196 0.98345 0.0
O527 O 0.55051 0.47567 0.02216 0.0
O528 O 0.57177 0.45031 1.00037 0.0
C529 C 0.56211 0.45519 0.02148 0.0
C530 C 0.51888 0.47424 0.95429 0.0
C531 C 0.5514 0.43463 0.03493 0.0
C532 C 0.53927 0.39201 0.03782 0.0
C533 C 0.54595 0.41194 0.02389 0.0
C534 C 0.54257 0.41724 0.0739 0.0
C535 C 0.53808 0.39425 0.06311 0.0
C536 C 0.54915 0.43709 0.06001 0.0
C537 C 0.6114 0.52812 0.98172 0.0
C538 C 0.64115 0.54014 1.01266 0.0
C539 C 0.64628 0.55379 0.97203 0.0
C540 C 0.62501 0.5412 0.96507 0.0
C541 C 0.65473 0.55378 0.99601 0.0
C542 C 0.6197 0.52749 1.0056 0.0
C543 C 0.58832 0.51633 0.97347 0.0
O544 O 0.5391 0.46223 0.95264 0.0
O545 O 0.51836 0.48887 0.97331 0.0
O546 O 0.56899 0.51995 0.98673 0.0
O547 O 0.58946 0.49409 0.96477 0.0
H548 H 0.50322 0.51999 0.94282 0.0
H549 H 0.48364 0.5317 0.90534 0.0
H550 H 0.49037 0.45876 0.87701 0.0
H551 H 0.51009 0.44737 0.91402 0.0
H552 H 0.53609 0.37461 0.02886 0.0
H553 H 0.54761 0.40938 1.0046 0.0
H554 H 0.54145 0.41983 0.09323 0.0
H555 H 0.55331 0.45429 0.06903 0.0
H556 H 0.64706 0.5391 0.03116 0.0
H557 H 0.65565 0.56402 0.95848 0.0
H558 H 0.61894 0.54205 0.94656 0.0
H559 H 0.60954 0.5174 0.01879 0.0
C560 C 0.71022 0.26814 0.37591 0.0
C561 C 0.73095 0.26319 0.38945 0.0
C562 C 0.72205 0.2964 0.41781 0.0
C563 C 0.73682 0.2772 0.4102 0.0
C564 C 0.70123 0.30105 0.40415 0.0
C565 C 0.69543 0.2871 0.38348 0.0
U566 U 0.71762 0.21693 0.32722 0.0
O567 O 0.68896 0.19555 0.30825 0.0
O568 O 0.71296 0.2196 0.28791 0.0
C569 C 0.69351 0.20536 0.2874 0.0
C570 C 0.70373 0.25435 0.35359 0.0
C571 C 0.67238 0.21356 0.2733 0.0
C572 C 0.6288 0.21849 0.26815 0.0
C573 C 0.64867 0.21295 0.28264 0.0
C574 C 0.65585 0.22601 0.2349 0.0
C575 C 0.63206 0.22482 0.24399 0.0
C576 C 0.6757 0.22035 0.24934 0.0
C577 C 0.76917 0.17029 0.33244 0.0
C578 C 0.79383 0.14899 0.30275 0.0
C579 C 0.79016 0.13368 0.34293 0.0
C580 C 0.77497 0.15277 0.34921 0.0
C581 C 0.80012 0.1317 0.31971 0.0
C582 C 0.77853 0.16803 0.30901 0.0
C583 C 0.75495 0.1915 0.34043 0.0
O584 O 0.71912 0.25603 0.33569 0.0
O585 O 0.69493 0.23229 0.35614 0.0
O586 O 0.73266 0.18708 0.34773 0.0
O587 O 0.75695 0.21108 0.32762 0.0
H588 H 0.74262 0.24862 0.38391 0.0
H589 H 0.75287 0.27291 0.42033 0.0
H590 H 0.68964 0.31586 0.40909 0.0
H591 H 0.67942 0.2913 0.37321 0.0
H592 H 0.61081 0.21771 0.27589 0.0
H593 H 0.64537 0.20779 0.30101 0.0
H594 H 0.65909 0.23054 0.21634 0.0
H595 H 0.69369 0.22073 0.24155 0.0
H596 H 0.8008 0.14786 0.28458 0.0
H597 H 0.79472 0.1209 0.35654 0.0
H598 H 0.76815 0.15417 0.36744 0.0
H599 H 0.77438 0.18118 0.29562 0.0
C600 C 0.48517 0.10935 0.03226 0.0
C601 C 0.50933 0.11795 0.03125 0.0
C602 C 0.49956 0.15313 0.05701 0.0
C603 C 0.51644 0.13963 0.04346 0.0
C604 C 0.47532 0.14439 0.05737 0.0
C605 C 0.46831 0.1229 0.04525 0.0
U606 U 0.48414 0.0557 0.98454 0.0
O607 O 0.47546 0.01717 0.99109 0.0
O608 O 0.45184 0.03796 0.96806 0.0
C609 C 0.45497 0.01748 0.97895 0.0
C610 C 0.47678 0.08604 0.02098 0.0
C611 C 0.43318 1.00616 0.99019 0.0
C612 C 0.39103 1.00782 1.0033 0.0
C613 C 0.41251 0.01952 0.99589 0.0
C614 C 0.41078 0.96934 1.00071 0.0
C615 C 0.38968 0.98249 1.00528 0.0
C616 C 0.43221 0.98104 0.99318 0.0
C617 C 0.52961 0.05565 0.93024 0.0
C618 C 0.5512 0.02585 0.90567 0.0
C619 C 0.54369 0.0653 0.89003 0.0
C620 C 0.53188 0.07184 0.91136 0.0
C621 C 0.55364 0.04225 0.88678 0.0
C622 C 0.53932 0.03247 0.92717 0.0
C623 C 0.51892 0.0645 0.9533 0.0
O624 O 0.46546 0.08712 1.00024 0.0
O625 O 0.49126 0.06759 0.02213 0.0
O626 O 0.52206 0.0518 0.97268 0.0
O627 O 0.49723 0.07371 0.95202 0.0
H628 H 0.5227 0.10787 0.02122 0.0
H629 H 0.53516 0.14575 0.04215 0.0
H630 H 0.46158 0.15369 0.06756 0.0
H631 H 0.44958 0.11661 0.04638 0.0
H632 H 0.37527 0.01859 1.00696 0.0
H633 H 0.41266 0.03893 0.99391 0.0
H634 H 0.41043 0.94984 1.00177 0.0
H635 H 0.44782 0.97028 0.98881 0.0
H636 H 0.55848 1.00792 0.90387 0.0
H637 H 0.54562 0.07873 0.87632 0.0
H638 H 0.52499 0.08994 0.91332 0.0
H639 H 0.53804 0.01959 0.94145 0.0
Mn640 Mn 0.26649 0.88568 0.02683 0.0
Mn641 Mn 0.2629 0.90861 0.97111 0.0
C642 C 0.24737 0.8636 0.99551 0.0
C643 C 0.28396 0.86285 0.05728 0.0
C644 C 0.23107 0.92533 1.01236 0.0
O645 O 0.29387 0.91177 0.02752 0.0
O646 O 0.28926 0.92554 0.98994 0.0
C647 C 0.31024 0.89245 0.95243 0.0
N648 N 0.28563 0.89291 0.95045 0.0
C649 C 0.28625 0.86894 0.91371 0.0
C650 C 0.3116 0.86834 0.91529 0.0
C651 C 0.32364 0.8801 0.93477 0.0
C652 C 0.27386 0.88159 0.93182 0.0
H653 H 0.31958 0.90142 0.96738 0.0
C654 C 0.30003 0.92578 1.01044 0.0
O655 O 0.26924 0.8802 0.06202 0.0
O656 O 0.28972 0.85952 0.0348 0.0
N657 N 0.23844 0.89364 0.95081 0.0
C658 C 0.21386 0.89496 0.95254 0.0
C659 C 0.19911 0.88371 0.93469 0.0
C660 C 0.20977 0.87137 0.91518 0.0
C661 C 0.2351 0.87041 0.91369 0.0
C662 C 0.24888 0.88214 0.93191 0.0
H663 H 0.20556 0.90444 0.96748 0.0
O664 O 0.24162 0.85976 0.01773 0.0
O665 O 0.26356 0.88063 0.99224 0.0
O666 O 0.24027 0.91155 0.02779 0.0
O667 O 0.23823 0.92575 0.99056 0.0
C668 C 0.2472 0.85793 0.89505 0.0
C669 C 0.27275 0.85715 0.89509 0.0
H670 H 0.322 0.85875 0.90176 0.0
H671 H 0.3432 0.87963 0.93617 0.0
H672 H 0.17957 0.8845 0.93599 0.0
H673 H 0.19832 0.86258 0.90153 0.0
H674 H 0.23701 0.84857 0.8808 0.0
H675 H 0.28183 0.84721 0.88085 0.0
Mn676 Mn 0.15525 0.51797 0.27008 0.0
Mn677 Mn 0.13228 0.57391 0.26708 0.0
C678 C 0.17786 0.54963 0.25357 0.0
C679 C 0.17783 0.4875 0.28782 0.0
C680 C 0.11655 0.53265 0.23317 0.0
O681 O 0.12829 0.51712 0.2957 0.0
O682 O 0.1143 0.55481 0.29142 0.0
C683 C 0.14659 0.59233 0.31571 0.0
N684 N 0.14727 0.59439 0.29136 0.0
C685 C 0.17234 0.63054 0.29486 0.0
C686 C 0.17177 0.62888 0.31996 0.0
C687 C 0.15887 0.60967 0.33042 0.0
C688 C 0.15962 0.61282 0.28111 0.0
H689 H 0.1368 0.57755 0.32385 0.0
C690 C 0.11388 0.53418 0.30142 0.0
O691 O 0.16094 0.48262 0.27205 0.0
O692 O 0.18078 0.5101 0.29438 0.0
N693 N 0.1484 0.5943 0.24455 0.0
C694 C 0.14819 0.5926 0.22006 0.0
C695 C 0.1608 0.61011 0.20682 0.0
C696 C 0.17341 0.6292 0.21888 0.0
C697 C 0.1732 0.63067 0.24409 0.0
C698 C 0.16013 0.61283 0.25632 0.0
H699 H 0.13862 0.57791 0.21069 0.0
O700 O 0.18198 0.52737 0.24724 0.0
O701 O 0.16023 0.55266 0.26868 0.0
O702 O 0.13008 0.51709 0.24261 0.0
O703 O 0.11596 0.55457 0.24088 0.0
C704 C 0.18584 0.64888 0.25756 0.0
C705 C 0.18542 0.64881 0.28293 0.0
H706 H 0.18136 0.64212 0.33138 0.0
H707 H 0.15845 0.6082 0.34978 0.0
H708 H 0.16091 0.60882 0.18737 0.0
H709 H 0.18334 0.64251 0.20862 0.0
H710 H 0.19623 0.66284 0.2486 0.0
H711 H 0.19547 0.66273 0.29308 0.0
Mn712 Mn 0.77284 0.64151 0.02271 0.0
Mn713 Mn 0.7226 0.66374 0.99683 0.0
C714 C 0.73654 0.61858 0.02068 0.0
C715 C 0.80961 0.62042 0.02333 0.0
C716 C 0.74029 0.68008 0.04638 0.0
O717 O 0.787 0.66886 1.00199 0.0
O718 O 0.752 0.68169 0.98606 0.0
C719 C 0.73278 0.64856 0.94648 0.0
N720 N 0.7178 0.64849 0.9659 0.0
C721 C 0.68703 0.62561 0.94382 0.0
C722 C 0.70208 0.62551 0.92354 0.0
C723 C 0.72511 0.63693 0.92492 0.0
C724 C 0.69577 0.63725 0.96488 0.0
H725 H 0.75042 0.65745 0.94743 0.0
C726 C 0.77509 0.68286 0.98853 0.0
O727 O 0.80443 0.63701 0.03921 0.0
O728 O 0.79374 0.61652 1.00622 0.0
N729 N 0.69261 0.64821 1.00541 0.0
C730 C 0.68052 0.64954 0.02673 0.0
C731 C 0.65729 0.63876 0.02848 0.0
C732 C 0.64657 0.62711 1.00822 0.0
C733 C 0.65919 0.62635 0.98637 0.0
C734 C 0.68232 0.63733 0.98573 0.0
H735 H 0.68855 0.65873 0.04228 0.0
O736 O 0.75272 0.61452 0.03699 0.0
O737 O 0.74188 0.63601 1.00629 0.0
O738 O 0.75857 0.66643 0.0465 0.0
O739 O 0.72549 0.68045 0.02871 0.0
C740 C 0.64975 0.61512 0.96521 0.0
C741 C 0.66373 0.61458 0.944 0.0
H742 H 0.69618 0.61667 0.90685 0.0
H743 H 0.73685 0.63688 0.90937 0.0
H744 H 0.64763 0.6395 0.04539 0.0
H745 H 0.62867 0.61877 1.00964 0.0
H746 H 0.63187 0.60656 0.96513 0.0
H747 H 0.65641 0.60555 0.92795 0.0
Mn748 Mn 0.88849 0.02489 0.27203 0.0
Mn749 Mn 0.91063 0.96862 0.26516 0.0
C750 C 0.86562 0.99414 0.25253 0.0
C751 C 0.86636 0.05564 0.29134 0.0
C752 C 0.92745 1.01042 0.23477 0.0
O753 O 0.915 0.02465 0.29831 0.0
O754 O 0.92828 0.98682 0.29144 0.0
C755 C 0.89493 0.94923 0.31192 0.0
N756 N 0.89498 0.94767 0.28743 0.0
C757 C 0.87056 0.91102 0.28742 0.0
C758 C 0.87036 0.91217 0.31264 0.0
C759 C 0.88255 0.9314 0.32493 0.0
C760 C 0.88324 0.92929 0.27542 0.0
H761 H 0.90423 0.96398 0.32145 0.0
C762 C 0.92892 1.00715 0.30309 0.0
O763 O 0.88363 0.06029 0.2763 0.0
O764 O 0.86271 0.03303 0.29634 0.0
N765 N 0.89498 0.94885 0.24066 0.0
C766 C 0.89595 0.951 0.21632 0.0
C767 C 0.88426 0.93344 0.20138 0.0
C768 C 0.87186 0.91379 0.2116 0.0
C769 C 0.87126 0.91187 0.23668 0.0
C770 C 0.88341 0.92981 0.25065 0.0
H771 H 0.90548 0.96604 0.20835 0.0
O772 O 0.86205 1.01664 0.24792 0.0
O773 O 0.88284 0.99024 0.26782 0.0
O774 O 0.91406 0.02594 0.24517 0.0
O775 O 0.92766 0.98835 0.24084 0.0
C776 C 0.85874 0.89307 0.24837 0.0
C777 C 0.85834 0.89269 0.27372 0.0
H778 H 0.86077 0.8985 0.32274 0.0
H779 H 0.88239 0.93247 0.34439 0.0
H780 H 0.88477 0.93507 0.18204 0.0
H781 H 0.86275 0.90037 0.20003 0.0
H782 H 0.84905 0.87903 0.23803 0.0
H783 H 0.84836 0.87833 0.2825 0.0
Mn784 Mn 0.27224 0.14155 0.52151 0.0
Mn785 Mn 0.22091 0.16076 0.49545 0.0
C786 C 0.23634 0.11774 0.52199 0.0
C787 C 0.30946 0.12126 0.52114 0.0
C788 C 0.24084 0.18168 0.54295 0.0
O789 O 0.28473 0.16835 0.49891 0.0
O790 O 0.24955 0.17599 0.47994 0.0
C791 C 0.2267 0.1379 0.44711 0.0
N792 N 0.21318 0.14161 0.46725 0.0
C793 C 0.17986 0.11775 0.45055 0.0
C794 C 0.19321 0.11413 0.42939 0.0
C795 C 0.21683 0.12405 0.42777 0.0
C796 C 0.19076 0.13149 0.46931 0.0
H797 H 0.24491 0.14532 0.44591 0.0
C798 C 0.27254 0.17882 0.48262 0.0
O799 O 0.30483 0.13838 0.53665 0.0
O800 O 0.29277 0.11637 0.50504 0.0
N801 N 0.19167 0.14724 0.50851 0.0
C802 C 0.18179 0.15122 0.53066 0.0
C803 C 0.15862 0.14154 0.53568 0.0
C804 C 0.1457 0.12823 0.51778 0.0
C805 C 0.15611 0.12462 0.49503 0.0
C806 C 0.17929 0.13461 0.49111 0.0
H807 H 0.19147 0.1617 0.54441 0.0
O808 O 0.25332 0.11467 0.53776 0.0
O809 O 0.24086 0.1345 0.50672 0.0
O810 O 0.2582 0.16706 0.54464 0.0
O811 O 0.22658 0.18154 0.52477 0.0
C812 C 0.14444 0.11143 0.47613 0.0
C813 C 0.15631 0.108 0.4539 0.0
H814 H 0.18563 0.1035 0.41442 0.0
H815 H 0.22738 0.12106 0.41163 0.0
H816 H 0.1507 0.14444 0.55327 0.0
H817 H 0.12784 0.12078 0.52172 0.0
H818 H 0.12648 0.10353 0.4786 0.0
H819 H 0.14731 0.0975 0.43962 0.0
Mn820 Mn 0.38771 0.52492 0.77052 0.0
Mn821 Mn 0.40992 0.46869 0.76341 0.0
C822 C 0.36486 0.4942 0.75091 0.0
C823 C 0.36567 0.55562 0.79001 0.0
C824 C 0.42665 0.51063 0.73316 0.0
O825 O 0.41429 0.52463 0.79673 0.0
O826 O 0.42758 0.48683 0.78972 0.0
C827 C 0.39429 0.44914 0.81012 0.0
N828 N 0.39435 0.44764 0.78563 0.0
C829 C 0.37005 0.41091 0.78554 0.0
C830 C 0.36986 0.412 0.81075 0.0
C831 C 0.38199 0.43123 0.82309 0.0
C832 C 0.38266 0.42926 0.77358 0.0
H833 H 0.40355 0.4639 0.81969 0.0
C834 C 0.42824 0.50714 0.80141 0.0
O835 O 0.38288 0.5603 0.77492 0.0
O836 O 0.362 0.53299 0.79492 0.0
N837 N 0.3943 0.44896 0.73886 0.0
C838 C 0.39528 0.45116 0.71453 0.0
C839 C 0.38368 0.43358 0.69956 0.0
C840 C 0.37135 0.41386 0.70972 0.0
C841 C 0.37075 0.41188 0.73479 0.0
C842 C 0.38282 0.42984 0.74881 0.0
H843 H 0.40476 0.46625 0.7066 0.0
O844 O 0.36124 0.51672 0.74643 0.0
O845 O 0.3821 0.49026 0.76618 0.0
O846 O 0.41324 0.52609 0.74363 0.0
O847 O 0.42689 0.48854 0.73914 0.0
C848 C 0.3583 0.39301 0.74644 0.0
C849 C 0.3579 0.39256 0.77179 0.0
H850 H 0.36032 0.39827 0.82083 0.0
H851 H 0.38183 0.43225 0.84255 0.0
H852 H 0.38419 0.43525 0.68022 0.0
H853 H 0.3623 0.40042 0.69812 0.0
H854 H 0.34868 0.37895 0.73607 0.0
H855 H 0.34799 0.37814 0.78054 0.0
Mn856 Mn 0.7666 0.38567 0.52768 0.0
Mn857 Mn 0.76225 0.40873 0.47209 0.0
C858 C 0.7474 0.36355 0.49645 0.0
C859 C 0.78463 0.36256 0.5576 0.0
C860 C 0.73059 0.42498 0.51364 0.0
O861 O 0.79378 0.41199 0.52828 0.0
O862 O 0.78841 0.42599 0.49088 0.0
C863 C 0.80976 0.39336 0.45316 0.0
N864 N 0.78513 0.39345 0.45128 0.0
C865 C 0.78594 0.36961 0.41447 0.0
C866 C 0.81132 0.36938 0.41595 0.0
C867 C 0.82327 0.38126 0.43541 0.0
C868 C 0.77345 0.38201 0.43267 0.0
H869 H 0.81903 0.40242 0.4681 0.0
C870 C 0.79942 0.42625 0.51124 0.0
O871 O 0.76983 0.37974 0.56282 0.0
O872 O 0.79017 0.35969 0.53502 0.0
N873 N 0.73792 0.39349 0.45183 0.0
C874 C 0.71333 0.39447 0.45366 0.0
C875 C 0.69866 0.38306 0.43583 0.0
C876 C 0.70941 0.37093 0.41625 0.0
C877 C 0.73476 0.37033 0.41465 0.0
C878 C 0.74845 0.3822 0.43286 0.0
H879 H 0.70495 0.40379 0.46865 0.0
O880 O 0.74186 0.35959 0.51869 0.0
O881 O 0.76338 0.38074 0.4931 0.0
O882 O 0.74014 0.41138 0.52904 0.0
O883 O 0.73747 0.42538 0.49175 0.0
C884 C 0.74696 0.35808 0.39594 0.0
C885 C 0.77253 0.35767 0.39588 0.0
H886 H 0.82181 0.35999 0.40234 0.0
H887 H 0.84285 0.38108 0.43673 0.0
H888 H 0.67911 0.38357 0.4372 0.0
H889 H 0.69803 0.36202 0.40262 0.0
H890 H 0.73685 0.34862 0.3817 0.0
H891 H 0.7817 0.34791 0.38157 0.0
Mn892 Mn 0.65462 0.01785 0.77016 0.0
Mn893 Mn 0.63198 0.07398 0.76767 0.0
C894 C 0.67738 0.04953 0.75383 0.0
C895 C 0.67698 0.98697 0.78747 0.0
C896 C 0.61586 0.03308 0.73355 0.0
O897 O 0.62774 0.01697 0.79587 0.0
O898 O 0.61395 0.05478 0.79189 0.0
C899 C 0.64654 0.09193 0.81639 0.0
N900 N 0.64715 0.09419 0.79207 0.0
C901 C 0.67237 0.13022 0.79577 0.0
C902 C 0.67188 0.12835 0.82086 0.0
C903 C 0.65893 0.1091 0.8312 0.0
C904 C 0.65954 0.11266 0.78193 0.0
H905 H 0.63671 0.07712 0.82444 0.0
C906 C 0.61343 0.03407 0.80173 0.0
O907 O 0.65999 0.98242 0.77174 0.0
O908 O 0.68019 1.00948 0.79426 0.0
N909 N 0.64815 0.09447 0.74527 0.0
C910 C 0.64786 0.09298 0.72076 0.0
C911 C 0.66049 0.11055 0.70763 0.0
C912 C 0.6732 0.1295 0.71981 0.0
C913 C 0.67308 0.13077 0.74502 0.0
C914 C 0.65997 0.11287 0.75714 0.0
H915 H 0.6382 0.0784 0.71131 0.0
O916 O 0.68133 0.02729 0.7473 0.0
O917 O 0.65982 0.05255 0.76903 0.0
O918 O 0.62933 0.01738 0.74283 0.0
O919 O 0.61546 0.05496 0.74137 0.0
C920 C 0.68583 0.14883 0.7586 0.0
C921 C 0.68548 0.14855 0.78395 0.0
H922 H 0.68154 0.14147 0.83235 0.0
H923 H 0.65856 0.10747 0.85055 0.0
H924 H 0.66054 0.10942 0.68818 0.0
H925 H 0.68316 0.14287 0.70962 0.0
H926 H 0.69623 0.16282 0.74971 0.0
H927 H 0.69562 0.16234 0.79419 0.0
Mn928 Mn 0.02523 0.2661 0.88724 0.0
Mn929 Mn 0.96843 0.26071 0.90963 0.0
C930 C 0.99368 0.24862 0.86403 0.0
C931 C 0.05675 0.28519 0.86574 0.0
C932 C 1.00929 0.22862 0.9247 0.0
O933 O 0.02555 0.29186 0.9148 0.0
O934 O 0.98711 0.28629 0.92805 0.0
C935 C 0.95022 0.3085 0.89649 0.0
N936 N 0.94825 0.28392 0.89518 0.0
C937 C 0.91267 0.28536 0.87013 0.0
C938 C 0.91425 0.31067 0.87132 0.0
C939 C 0.93312 0.32228 0.88454 0.0
C940 C 0.93013 0.27256 0.88254 0.0
H941 H 0.96474 0.31753 0.90652 0.0
C942 C 1.00795 0.29716 0.92891 0.0
O943 O 0.06089 0.2694 0.88193 0.0
O944 O 0.03425 0.29096 0.86281 0.0
N945 N 0.94851 0.2369 0.89289 0.0
C946 C 0.95037 0.21239 0.89237 0.0
C947 C 0.93324 0.19809 0.87934 0.0
C948 C 0.91438 0.2091 0.86702 0.0
C949 C 0.91277 0.23435 0.86791 0.0
C950 C 0.93022 0.24766 0.88139 0.0
H951 H 0.96489 0.20382 0.90171 0.0
O952 O 1.01601 0.24298 0.85981 0.0
O953 O 0.99055 0.26341 0.88216 0.0
O954 O 0.02522 0.2385 0.91133 0.0
O955 O 0.98737 0.2355 0.92548 0.0
C956 C 0.89481 0.24683 0.85557 0.0
C957 C 0.89477 0.27232 0.85667 0.0
H958 H 0.90121 0.32138 0.86199 0.0
H959 H 0.93454 0.34182 0.88545 0.0
H960 H 0.93465 0.17862 0.87868 0.0
H961 H 0.90136 0.19803 0.85677 0.0
H962 H 0.88116 0.23703 0.8449 0.0
H963 H 0.88107 0.28172 0.84683 0.0
Mn964 Mn 0.52411 0.7663 0.38862 0.0
Mn965 Mn 0.46756 0.76073 0.41151 0.0
C966 C 0.49246 0.7487 0.36566 0.0
C967 C 0.55528 0.78564 0.36691 0.0
C968 C 0.50879 0.7289 0.42632 0.0
O969 O 0.52453 0.792 0.4162 0.0
O970 O 0.48607 0.78679 0.42949 0.0
C971 C 0.44858 0.80812 0.39806 0.0
N972 N 0.44696 0.78352 0.39696 0.0
C973 C 0.41127 0.78425 0.37198 0.0
C974 C 0.4125 0.80958 0.37296 0.0
C975 C 0.43125 0.82156 0.38604 0.0
C976 C 0.42894 0.77181 0.38448 0.0
H977 H 0.46302 0.81744 0.40797 0.0
C978 C 0.50692 0.79767 0.43016 0.0
O979 O 0.55969 0.76978 0.38296 0.0
O980 O 0.53272 0.79132 0.36425 0.0
N981 N 0.44785 0.73651 0.3951 0.0
C982 C 0.4501 0.71205 0.39471 0.0
C983 C 0.43317 0.69741 0.38178 0.0
C984 C 0.41411 0.70806 0.36942 0.0
C985 C 0.41211 0.73326 0.37016 0.0
C986 C 0.42938 0.74692 0.38354 0.0
H987 H 0.46479 0.70376 0.40406 0.0
O988 O 0.51479 0.7432 0.36122 0.0
O989 O 0.48942 0.76345 0.38385 0.0
O990 O 0.52446 0.73865 0.41257 0.0
O991 O 0.48692 0.73588 0.42751 0.0
C992 C 0.39395 0.74539 0.35773 0.0
C993 C 0.39354 0.77086 0.35865 0.0
H994 H 0.39929 0.82001 0.36356 0.0
H995 H 0.4324 0.8411 0.38678 0.0
H996 H 0.43488 0.67798 0.38123 0.0
H997 H 0.40124 0.69672 0.35925 0.0
H998 H 0.38043 0.73531 0.34714 0.0
H999 H 0.37969 0.77999 0.34874 0.0
Mn1000 Mn 0.02509 0.77057 0.64412 0.0
Mn1001 Mn 0.99813 0.72036 0.66656 0.0
C1002 C 0.02341 0.73421 0.62153 0.0
C1003 C 0.02533 0.80697 0.62289 0.0
C1004 C 0.04792 0.7389 0.68269 0.0
O1005 O 1.00381 0.78451 0.67136 0.0
O1006 O 0.9869 0.7496 0.68419 0.0
C1007 C 0.9478 0.72943 0.65118 0.0
N1008 N 0.96733 0.71486 0.65131 0.0
C1009 C 0.94556 0.68358 0.62873 0.0
C1010 C 0.92517 0.6982 0.62843 0.0
C1011 C 0.92634 0.72128 0.63959 0.0
C1012 C 0.96652 0.69279 0.64031 0.0
H1013 H 0.9486 0.74711 0.65987 0.0
C1014 C 0.98968 0.77263 0.68527 0.0
O1015 O 0.04144 0.80259 0.63909 0.0
O1016 O 1.00845 0.79043 0.61934 0.0
N1017 N 1.00711 0.69051 0.65136 0.0
C1018 C 0.02854 0.6789 0.65283 0.0
C1019 C 0.03052 0.6557 0.64228 0.0
C1020 C 1.01035 0.64453 0.63071 0.0
C1021 C 0.98837 0.65667 0.62982 0.0
C1022 C 0.98751 0.67979 0.64056 0.0
H1023 H 0.04402 0.68728 0.66195 0.0
O1024 O 0.03993 0.75065 0.61725 0.0
O1025 O 1.0086 0.73941 0.63891 0.0
O1026 O 0.04871 0.757 0.66895 0.0
O1027 O 0.02985 0.72406 0.68315 0.0
C1028 C 0.96729 0.64676 0.61866 0.0
C1029 C 0.94595 0.66027 0.61796 0.0
H1030 H 0.90854 0.69193 0.61961 0.0
H1031 H 0.9107 0.7327 0.63938 0.0
H1032 H 0.04753 0.64642 0.64313 0.0
H1033 H 1.01196 0.62665 0.62256 0.0
H1034 H 0.96738 0.62887 0.61028 0.0
H1035 H 0.92997 0.65259 0.60898 0.0
Mn1036 Mn 0.52582 0.27228 0.14273 0.0
Mn1037 Mn 0.49935 0.22205 0.1657 0.0
C1038 C 0.52406 0.23582 0.12031 0.0
C1039 C 0.52585 0.30862 0.12139 0.0
C1040 C 0.54921 0.24089 0.18123 0.0
O1041 O 0.50474 0.28624 0.17014 0.0
O1042 O 0.48815 0.25131 0.1833 0.0
C1043 C 0.44882 0.23079 0.15076 0.0
N1044 N 0.46843 0.21632 0.15077 0.0
C1045 C 0.4466 0.18484 0.12853 0.0
C1046 C 0.42612 0.19936 0.12836 0.0
C1047 C 0.42728 0.22248 0.13942 0.0
C1048 C 0.46762 0.19421 0.13986 0.0
H1049 H 0.44961 0.24851 0.15938 0.0
C1050 C 0.49082 0.27435 0.18425 0.0
O1051 O 0.54207 0.3043 0.13749 0.0
O1052 O 0.50895 0.29207 0.11801 0.0
N1053 N 0.50833 0.19218 0.15054 0.0
C1054 C 0.52984 0.18068 0.15187 0.0
C1055 C 0.53184 0.15744 0.14141 0.0
C1056 C 0.51161 0.14612 0.13008 0.0
C1057 C 0.48956 0.15815 0.12933 0.0
C1058 C 0.48868 0.18131 0.13997 0.0
H1059 H 0.54536 0.18917 0.16081 0.0
O1060 O 0.54046 0.2523 0.1158 0.0
O1061 O 0.5094 0.24103 0.13783 0.0
O1062 O 0.54973 0.25888 0.16734 0.0
O1063 O 0.53121 0.22597 0.18201 0.0
C1064 C 0.46842 0.14809 0.11841 0.0
C1065 C 0.447 0.16149 0.11785 0.0
H1066 H 0.40944 0.19296 0.11974 0.0
H1067 H 0.41158 0.23381 0.13931 0.0
H1068 H 0.5489 0.14824 0.14214 0.0
H1069 H 0.51322 0.12822 0.12199 0.0
H1070 H 0.46852 0.13016 0.11011 0.0
H1071 H 0.43098 0.1537 0.10906 0.0
C1072 C 0.21027 0.82173 0.95364 0.0
C1073 C 0.22828 0.8123 0.93832 0.0
H1074 H 0.20219 0.84529 0.98384 0.0
C1075 C 0.25266 0.81894 0.94309 0.0
H1076 H 0.19136 0.81665 0.95091 0.0
C1077 C 0.25872 0.83534 0.96189 0.0
C1078 C 0.24061 0.84565 0.97628 0.0
H1079 H 0.26705 0.81222 0.93174 0.0
H1080 H 0.27763 0.84038 0.96489 0.0
C1081 C 0.21642 0.83804 0.97258 0.0
C1082 C 0.08923 0.52286 0.36409 0.0
C1083 C 0.06786 0.53638 0.36398 0.0
H1084 H 0.12048 0.51114 0.34422 0.0
C1085 C 0.06031 0.54582 0.34201 0.0
H1086 H 0.09573 0.51536 0.38062 0.0
C1087 C 0.07459 0.54362 0.32136 0.0
C1088 C 0.09668 0.53151 0.32183 0.0
H1089 H 0.04366 0.5557 0.34088 0.0
H1090 H 0.06873 0.55223 0.30514 0.0
C1091 C 0.10344 0.52037 0.3432 0.0
C1092 C 0.78616 0.74278 0.95958 0.0
C1093 C 0.8022 0.7369 0.94081 0.0
H1094 H 0.76542 0.73027 0.98948 0.0
C1095 C 0.81176 0.71349 0.93989 0.0
H1096 H 0.7781 0.76041 0.96076 0.0
C1097 C 0.80466 0.69618 0.95678 0.0
C1098 C 0.78764 0.70191 0.97467 0.0
H1099 H 0.82423 0.70836 0.92575 0.0
H1100 H 0.8113 0.67798 0.95494 0.0
C1101 C 0.77887 0.72549 0.97612 0.0
C1102 C 0.95269 0.01742 0.36707 0.0
C1103 C 0.97316 1.00261 0.36694 0.0
H1104 H 0.92271 0.03089 0.34688 0.0
C1105 C 0.98055 0.99244 0.34476 0.0
H1106 H 0.94635 0.02553 0.38375 0.0
C1107 C 0.96695 0.99536 0.32382 0.0
C1108 C 0.94567 1.00885 0.3242 0.0
H1109 H 0.99656 0.98153 0.34366 0.0
H1110 H 0.97267 0.98626 0.30738 0.0
C1111 C 0.93913 0.02057 0.3459 0.0
C1112 C 0.21195 0.23026 0.5827 0.0
C1113 C 0.22696 0.23089 0.60326 0.0
H1114 H 0.20449 0.21458 0.54774 0.0
C1115 C 0.24708 0.21573 0.60339 0.0
H1116 H 0.1965 0.24188 0.58172 0.0
C1117 C 0.25176 0.20008 0.58377 0.0
C1118 C 0.2365 0.19915 0.56338 0.0
H1119 H 0.2589 0.21545 0.61896 0.0
H1120 H 0.26722 0.18846 0.58478 0.0
C1121 C 0.21665 0.21465 0.56307 0.0
C1122 C 0.45578 0.55016 0.68549 0.0
C1123 C 0.46888 0.53343 0.67148 0.0
H1124 H 0.43253 0.55632 0.71567 0.0
C1125 C 0.46876 0.50921 0.67861 0.0
H1126 H 0.45575 0.56905 0.68092 0.0
C1127 C 0.45547 0.50186 0.69879 0.0
C1128 C 0.44194 0.51855 0.71247 0.0
H1129 H 0.47841 0.49573 0.66822 0.0
H1130 H 0.45548 0.48298 0.70339 0.0
C1131 C 0.44253 0.54285 0.70561 0.0
C1132 C 0.78991 0.33135 0.61744 0.0
C1133 C 0.80137 0.30972 0.61086 0.0
H1134 H 0.77585 0.36491 0.606 0.0
C1135 C 0.80914 0.30668 0.58686 0.0
H1136 H 0.78342 0.33432 0.63562 0.0
C1137 C 0.80476 0.32431 0.56979 0.0
C1138 C 0.7924 0.34543 0.57622 0.0
H1139 H 0.81834 0.29046 0.58115 0.0
H1140 H 0.81037 0.321 0.55137 0.0
C1141 C 0.78546 0.34891 0.60037 0.0
C1142 C 0.57164 0.03533 0.68054 0.0
C1143 C 0.57281 1.01176 0.67052 0.0
H1144 H 0.58425 0.06062 0.70799 0.0
C1145 C 0.58761 0.99515 0.68197 0.0
H1146 H 0.5606 0.04867 0.67216 0.0
C1147 C 0.60119 1.00197 0.70249 0.0
C1148 C 0.60047 0.02566 0.71226 0.0
H1149 H 0.58869 0.97673 0.67509 0.0
H1150 H 0.61247 0.98862 0.71055 0.0
C1151 C 0.58534 0.04221 0.70107 0.0
C1152 C 0.95119 0.22087 0.81602 0.0
C1153 C 0.93937 0.24148 0.80801 0.0
H1154 H 0.97808 0.2069 0.83987 0.0
C1155 C 0.94587 0.2641 0.81857 0.0
H1156 H 0.94683 0.20321 0.8081 0.0
C1157 C 0.9635 0.26611 0.83664 0.0
C1158 C 0.97504 0.24557 0.84486 0.0
H1159 H 0.93705 0.28034 0.81309 0.0
H1160 H 0.96805 0.28384 0.84432 0.0
C1161 C 0.96915 0.22295 0.83406 0.0
C1162 C 0.52254 0.86129 0.45421 0.0
C1163 C 0.50593 0.86378 0.47331 0.0
H1164 H 0.53643 0.83831 0.42591 0.0
C1165 C 0.49191 0.84336 0.47961 0.0
H1166 H 0.53384 0.87653 0.449 0.0
C1167 C 0.49343 0.82155 0.46645 0.0
C1168 C 0.50916 0.81934 0.44666 0.0
H1169 H 0.47875 0.84452 0.49399 0.0
H1170 H 0.48152 0.80661 0.47127 0.0
C1171 C 0.52425 0.83928 0.44113 0.0
C1172 C 0.11946 0.29457 0.83883 0.0
C1173 C 0.11476 0.30845 0.81857 0.0
H1174 H 0.10511 0.27663 0.86949 0.0
C1175 C 0.09073 0.31544 0.81448 0.0
H1176 H 0.1376 0.28854 0.84247 0.0
C1177 C 0.07194 0.30857 0.83012 0.0
C1178 C 0.0767 0.29442 0.85016 0.0
H1179 H 0.08642 0.32637 0.79926 0.0
H1180 H 0.05363 0.31401 0.82627 0.0
C1181 C 0.10074 0.28766 0.85435 0.0
C1182 C 0.54734 0.68015 0.45352 0.0
C1183 C 0.53067 0.66769 0.46813 0.0
H1184 H 0.55374 0.7089 0.42919 0.0
C1185 C 0.50677 0.67604 0.4694 0.0
H1186 H 0.56601 0.67463 0.45235 0.0
C1187 C 0.49968 0.69594 0.45607 0.0
C1188 C 0.51632 0.70815 0.44118 0.0
H1189 H 0.49335 0.66686 0.48027 0.0
H1190 H 0.48105 0.70157 0.45727 0.0
C1191 C 0.54029 0.70001 0.44027 0.0
C1192 C 0.9592 0.78428 0.74482 0.0
C1193 C 0.94162 0.8012 0.73909 0.0
H1194 H 0.98821 0.76232 0.73226 0.0
C1195 C 0.94185 0.81079 0.71584 0.0
H1196 H 0.95943 0.77622 0.76235 0.0
C1197 C 0.95881 0.803 0.69858 0.0
C1198 C 0.97551 0.78522 0.70418 0.0
H1199 H 0.92861 0.82389 0.71086 0.0
H1200 H 0.95795 0.80985 0.68054 0.0
C1201 C 0.97574 0.77628 0.72756 0.0
C1202 C 0.0471 0.86831 0.60116 0.0
C1203 C 0.03329 0.87112 0.58013 0.0
H1204 H 0.0554 0.84619 0.63092 0.0
C1205 C 1.01612 0.85279 0.57364 0.0
H1206 H 0.06076 0.88177 0.6066 0.0
C1207 C 1.01296 0.83223 0.58776 0.0
C1208 C 0.02711 0.82936 0.60856 0.0
H1209 H 1.00505 0.85437 0.55766 0.0
H1210 H 0.99977 0.81838 0.58215 0.0
C1211 C 0.04411 0.84776 0.61509 0.0
C1212 C 0.10934 0.74581 0.71461 0.0
C1213 C 0.10907 0.72569 0.72959 0.0
H1214 H 0.09056 0.76574 0.68805 0.0
C1215 C 0.08833 0.71034 0.72925 0.0
H1216 H 0.12505 0.75792 0.71418 0.0
C1217 C 0.06863 0.71472 0.71417 0.0
C1218 C 0.06896 0.73464 0.69894 0.0
H1219 H 0.08721 0.6949 0.74078 0.0
H1220 H 0.05312 0.70235 0.71447 0.0
C1221 C 0.08957 0.75021 0.69947 0.0
C1222 C 0.98956 0.69264 0.57718 0.0
C1223 C 1.00643 0.67444 0.57207 0.0
H1224 H 0.98165 0.72522 0.59707 0.0
C1225 C 0.0299 0.67739 0.58217 0.0
H1226 H 0.97164 0.69193 0.5692 0.0
C1227 C 0.03585 0.69724 0.59759 0.0
C1228 C 0.01825 0.71412 0.60394 0.0
H1229 H 0.0435 0.66393 0.57901 0.0
H1230 H 0.05382 0.69874 0.60548 0.0
C1231 C 0.99531 0.71198 0.59307 0.0
C1232 C 0.82036 0.9418 0.25657 0.0
C1233 C 0.81341 0.93773 0.2324 0.0
H1234 H 0.84232 0.9628 0.28171 0.0
C1235 C 0.82279 0.95356 0.21505 0.0
H1236 H 0.8137 0.93004 0.27046 0.0
C1237 C 0.83938 0.97225 0.22157 0.0
C1238 C 0.84733 0.9752 0.24546 0.0
H1239 H 0.81747 0.9514 0.19635 0.0
H1240 H 0.8466 0.98388 0.20782 0.0
C1241 C 0.83704 0.96036 0.26301 0.0
C1242 C 0.83807 0.11724 0.29929 0.0
C1243 C 0.81751 0.11216 0.31338 0.0
H1244 H 0.86961 0.10369 0.28174 0.0
C1245 C 0.81388 0.08838 0.32132 0.0
H1246 H 0.84178 0.13538 0.29322 0.0
C1247 C 0.83003 0.07009 0.31481 0.0
C1248 C 0.8503 0.07516 0.30032 0.0
H1249 H 0.7982 0.08373 0.33209 0.0
H1250 H 0.82636 0.05189 0.32073 0.0
C1251 C 0.85421 0.09905 0.2929 0.0
C1252 C 0.36427 0.94917 0.02429 0.0
C1253 C 0.36592 0.96965 1.00976 0.0
H1254 H 0.34196 0.9195 0.03652 0.0
C1255 C 0.34486 0.97682 0.99785 0.0
H1256 H 0.38006 0.94322 0.03388 0.0
C1257 C 0.3232 0.96326 0.99933 0.0
C1258 C 0.32176 0.94222 1.01297 0.0
H1259 H 0.34539 0.99226 0.9863 0.0
H1260 H 0.3077 0.96883 0.98901 0.0
C1261 C 0.34237 0.93571 0.02602 0.0
C1262 C 0.23348 0.45679 0.31229 0.0
C1263 C 0.2294 0.43261 0.30439 0.0
H1264 H 0.22042 0.49304 0.31347 0.0
C1265 C 0.20709 0.42647 0.29315 0.0
H1266 H 0.25046 0.46232 0.32084 0.0
C1267 C 0.18996 0.44412 0.28879 0.0
C1268 C 0.19452 0.46845 0.29568 0.0
H1269 H 0.20297 0.40802 0.28727 0.0
H1270 H 0.17337 0.43876 0.2794 0.0
C1271 C 0.21625 0.47447 0.30801 0.0
C1272 C 0.19664 0.07016 0.49024 0.0
C1273 C 0.17745 0.06649 0.50661 0.0
H1274 H 0.22965 0.08954 0.48218 0.0
C1275 C 0.1793 0.07844 0.52937 0.0
H1276 H 0.19691 0.06073 0.47298 0.0
C1277 C 0.19897 0.09432 0.53498 0.0
C1278 C 0.21676 0.09928 0.51769 0.0
H1279 H 0.16509 0.07649 0.54259 0.0
H1280 H 0.19957 0.10369 0.55233 0.0
C1281 C 0.21574 0.08655 0.49558 0.0
C1282 C 0.72399 0.09911 0.76808 0.0
C1283 C 0.73323 0.10468 0.74528 0.0
H1284 H 0.69929 0.07736 0.78844 0.0
C1285 C 0.72386 0.09172 0.725 0.0
H1286 H 0.73055 0.10879 0.78408 0.0
C1287 C 0.7058 0.07358 0.72759 0.0
C1288 C 0.69631 0.06858 0.75038 0.0
H1289 H 0.73077 0.09531 0.70722 0.0
H1290 H 0.69897 0.06374 0.71178 0.0
C1291 C 0.70589 0.08125 0.77058 0.0
C1292 C 0.37133 0.10148 0.54236 0.0
C1293 C 0.37416 0.07922 0.52997 0.0
H1294 H 0.34906 0.13199 0.54924 0.0
C1295 C 0.35575 0.0713 0.51375 0.0
H1296 H 0.38485 0.10808 0.55526 0.0
C1297 C 0.33506 0.08521 0.51019 0.0
C1298 C 0.33215 0.10723 0.52299 0.0
H1299 H 0.35734 0.05436 0.50376 0.0
H1300 H 0.32112 0.07845 0.49782 0.0
C1301 C 0.35066 0.1152 0.53898 0.0
C1302 C 0.68128 0.45407 0.55192 0.0
C1303 C 0.66927 0.4684 0.53528 0.0
H1304 H 0.7098 0.42945 0.55839 0.0
C1305 C 0.67824 0.46894 0.51161 0.0
H1306 H 0.67525 0.45345 0.57041 0.0
C1307 C 0.69824 0.45518 0.5047 0.0
C1308 C 0.70997 0.44052 0.52126 0.0
H1309 H 0.66941 0.47954 0.49821 0.0
H1310 H 0.70428 0.45581 0.48621 0.0
C1311 C 0.70128 0.44036 0.54504 0.0
C1312 C 0.75295 0.31909 0.44392 0.0
C1313 C 0.72863 0.31212 0.4393 0.0
H1314 H 0.77777 0.34081 0.46559 0.0
C1315 C 0.71059 0.32125 0.45477 0.0
H1316 H 0.76736 0.31261 0.43245 0.0
C1317 C 0.71664 0.3376 0.47369 0.0
C1318 C 0.74075 0.34555 0.47723 0.0
H1319 H 0.69173 0.3159 0.45215 0.0
H1320 H 0.70239 0.34462 0.48506 0.0
C1321 C 0.75891 0.33552 0.46271 0.0
C1322 C 0.58866 0.02287 0.86436 0.0
C1323 C 0.56713 0.03613 0.86407 0.0
H1324 H 0.62013 1.01137 0.84468 0.0
C1325 C 0.55955 0.04533 0.84199 0.0
H1326 H 0.5952 1.01556 0.88096 0.0
C1327 C 0.57394 0.04316 0.82142 0.0
C1328 C 0.59617 0.03131 0.82206 0.0
H1329 H 0.54278 0.05499 0.84073 0.0
H1330 H 0.56806 0.05161 0.80512 0.0
C1331 C 0.60298 0.0204 0.84353 0.0
C1332 C 0.31124 0.22963 0.45603 0.0
C1333 C 0.30143 0.2305 0.4326 0.0
H1334 H 0.3104 0.2121 0.49024 0.0
C1335 C 0.28392 0.21287 0.4255 0.0
H1336 H 0.32481 0.24294 0.46206 0.0
C1337 C 0.27561 0.19561 0.44156 0.0
C1338 C 0.28474 0.19506 0.46519 0.0
H1339 H 0.27566 0.2131 0.40782 0.0
H1340 H 0.26134 0.18308 0.43557 0.0
C1341 C 0.30316 0.21188 0.47211 0.0
C1342 C 0.47999 0.49235 0.84292 0.0
C1343 C 0.47278 0.50269 0.86507 0.0
H1344 H 0.47189 0.48601 0.80561 0.0
C1345 C 0.45238 0.5176 0.86525 0.0
H1346 H 0.49594 0.48135 0.84178 0.0
C1347 C 0.43871 0.52069 0.84414 0.0
C1348 C 0.44508 0.50881 0.82246 0.0
H1349 H 0.44618 0.52584 0.88192 0.0
H1350 H 0.42236 0.53109 0.84515 0.0
C1351 C 0.46629 0.49522 0.82203 0.0
C1352 C 0.74745 0.71139 0.10809 0.0
C1353 C 0.72802 0.72741 0.10849 0.0
H1354 H 0.76663 0.68413 0.08845 0.0
C1355 C 0.71271 0.72773 0.0882 0.0
H1356 H 0.75978 0.71079 0.12324 0.0
C1357 C 0.71663 0.7124 0.06817 0.0
C1358 C 0.73606 0.69635 0.06777 0.0
H1359 H 0.69736 0.73954 0.08793 0.0
H1360 H 0.70434 0.71313 0.053 0.0
C1361 C 0.75144 0.69613 0.08803 0.0
C1362 C 0.96992 1.00875 0.18047 0.0
C1363 C 0.96961 0.03281 0.17288 0.0
H1364 H 0.95697 0.98278 0.20567 0.0
C1365 C 0.95614 0.04954 0.18651 0.0
H1366 H 0.97989 0.99529 0.17039 0.0
C1367 C 0.94293 0.04238 0.20672 0.0
C1368 C 0.94274 0.01822 0.21402 0.0
H1369 H 0.95578 0.06831 0.18158 0.0
H1370 H 0.93263 0.05583 0.21647 0.0
C1371 C 0.95664 1.00155 0.20072 0.0
C1372 C 0.30673 0.80723 0.08853 0.0
C1373 C 0.29924 0.81158 0.11244 0.0
H1374 H 0.30797 0.81997 0.05237 0.0
C1375 C 0.28885 0.83395 0.11823 0.0
H1376 H 0.31465 0.79019 0.08329 0.0
C1377 C 0.28496 0.85094 0.1005 0.0
C1378 C 0.29141 0.84616 0.07642 0.0
H1379 H 0.28332 0.83824 0.13649 0.0
H1380 H 0.27624 0.86762 0.10562 0.0
C1381 C 0.30286 0.82432 0.07074 0.0
C1382 C 0.08916 0.4946 0.1812 0.0
C1383 C 0.07399 0.51099 0.1699 0.0
H1384 H 0.11415 0.48833 0.20976 0.0
C1385 C 0.07235 0.53443 0.18011 0.0
H1386 H 0.09062 0.47627 0.17416 0.0
C1387 C 0.0859 0.54141 0.20071 0.0
C1388 C 0.10136 0.52508 0.21179 0.0
H1389 H 0.06102 0.54761 0.17186 0.0
H1390 H 0.08442 0.55973 0.20778 0.0
C1391 C 0.10259 0.50151 0.2018 0.0
C1392 C 0.44465 0.76432 0.32025 0.0
C1393 C 0.43828 0.74175 0.30953 0.0
H1394 H 0.46669 0.78396 0.3462 0.0
C1395 C 0.45005 0.7211 0.31752 0.0
H1396 H 0.43585 0.78057 0.31479 0.0
C1397 C 0.4679 0.72312 0.33567 0.0
C1398 C 0.47373 0.7457 0.34658 0.0
H1399 H 0.44575 0.70348 0.30948 0.0
H1400 H 0.47684 0.70705 0.34142 0.0
C1401 C 0.46217 0.76625 0.33843 0.0
C1402 C 0.01891 0.36127 0.95361 0.0
C1403 C 1.00402 0.36135 0.97422 0.0
H1404 H 0.03226 0.34075 0.92319 0.0
C1405 C 0.99379 0.33916 0.98143 0.0
H1406 H 0.02707 0.37796 0.9474 0.0
C1407 C 0.99663 0.31802 0.9675 0.0
C1408 C 1.01011 0.31823 0.94608 0.0
H1409 H 0.98282 0.33823 0.99751 0.0
H1410 H 0.98738 0.3016 0.97303 0.0
C1411 C 0.02198 0.33991 0.93972 0.0
C1412 C 0.61705 0.79376 0.33764 0.0
C1413 C 0.61217 0.80929 0.3187 0.0
H1414 H 0.60323 0.77454 0.36775 0.0
C1415 C 0.58847 0.81797 0.31648 0.0
H1416 H 0.63513 0.78705 0.34024 0.0
C1417 C 0.57008 0.81085 0.33244 0.0
C1418 C 0.57496 0.795 0.3511 0.0
H1419 H 0.58397 0.82983 0.30205 0.0
H1420 H 0.55195 0.81743 0.32988 0.0
C1421 C 0.59875 0.78676 0.35361 0.0
C1422 C 0.04749 0.18061 0.95371 0.0
C1423 C 0.03068 0.16877 0.96869 0.0
H1424 H 0.05412 0.20838 0.92831 0.0
C1425 C 1.00665 0.17686 0.96899 0.0
H1426 H 0.06604 0.17473 0.95256 0.0
C1427 C 0.99971 0.19621 0.95484 0.0
C1428 C 0.01658 0.20805 0.93992 0.0
H1429 H 0.9932 0.16845 0.98041 0.0
H1430 H 0.98107 0.20187 0.95564 0.0
C1431 C 0.04057 0.19991 0.93959 0.0
C1432 C 0.46068 0.28595 0.24401 0.0
C1433 C 0.44314 0.30297 0.23845 0.0
H1434 H 0.48952 0.2639 0.23122 0.0
C1435 C 0.4433 0.31264 0.21523 0.0
H1436 H 0.46096 0.27782 0.2615 0.0
C1437 C 0.46013 0.30484 0.19784 0.0
C1438 C 0.47678 0.28695 0.20328 0.0
H1439 H 0.43009 0.32582 0.21037 0.0
H1440 H 0.45921 0.31175 0.17983 0.0
C1441 C 0.47709 0.27793 0.22664 0.0
C1442 C 0.54758 0.36989 0.09944 0.0
C1443 C 0.53383 0.3726 0.07836 0.0
H1444 H 0.55582 0.34791 0.12931 0.0
C1445 C 0.51666 0.35425 0.07192 0.0
H1446 H 0.56124 0.38336 0.10485 0.0
C1447 C 0.51347 0.33374 0.08614 0.0
C1448 C 0.52758 0.33097 0.10698 0.0
H1449 H 0.50563 0.35575 0.05591 0.0
H1450 H 0.50029 0.31986 0.08056 0.0
C1451 C 0.54456 0.3494 0.11346 0.0
C1452 C 0.58962 0.21461 0.22924 0.0
C1453 C 0.61074 0.22933 0.22812 0.0
H1454 H 0.55399 0.20649 0.21545 0.0
C1455 C 0.61141 0.24799 0.2114 0.0
H1456 H 0.58852 0.19983 0.2416 0.0
C1457 C 0.59152 0.25183 0.19628 0.0
C1458 C 0.57044 0.23701 0.19734 0.0
H1459 H 0.62727 0.25983 0.21015 0.0
H1460 H 0.59274 0.26642 0.18371 0.0
C1461 C 0.56981 0.21834 0.21406 0.0
C1462 C 0.49005 0.19378 0.0765 0.0
C1463 C 0.50698 0.17564 0.07137 0.0
H1464 H 0.48212 0.22643 0.09626 0.0
C1465 C 0.53053 0.17879 0.08126 0.0
H1466 H 0.47206 0.19292 0.06868 0.0
C1467 C 0.53649 0.19877 0.0965 0.0
C1468 C 0.51885 0.21559 0.10289 0.0
H1469 H 0.54418 0.1654 0.07808 0.0
H1470 H 0.55453 0.20043 0.10422 0.0
C1471 C 0.49583 0.21325 0.09222 0.0
C1472 C 0.31981 0.4416 0.75437 0.0
C1473 C 0.31299 0.43769 0.73014 0.0
H1474 H 0.34155 0.46252 0.77977 0.0
C1475 C 0.32237 0.4537 0.71296 0.0
H1476 H 0.31312 0.42971 0.76814 0.0
C1477 C 0.33884 0.47242 0.7197 0.0
C1478 C 0.34667 0.47524 0.74364 0.0
H1479 H 0.31714 0.45166 0.69422 0.0
H1480 H 0.34606 0.4842 0.70607 0.0
C1481 C 0.33637 0.46021 0.76102 0.0
C1482 C 0.31365 0.58848 0.82071 0.0
C1483 C 0.31727 0.61227 0.81275 0.0
H1484 H 0.326 0.55193 0.81988 0.0
C1485 C 0.33765 0.61729 0.79841 0.0
H1486 H 0.2981 0.58389 0.83167 0.0
C1487 C 0.35364 0.59905 0.79178 0.0
C1488 C 0.34974 0.57516 0.79921 0.0
H1489 H 0.34134 0.63543 0.79232 0.0
H1490 H 0.36891 0.60366 0.78044 0.0
C1491 C 0.32965 0.57013 0.81395 0.0
C1492 C 0.86427 0.44986 0.52015 0.0
C1493 C 0.86395 0.47135 0.50707 0.0
H1494 H 0.84391 0.41875 0.53218 0.0
C1495 C 0.84141 0.47936 0.49896 0.0
H1496 H 0.88125 0.44305 0.52664 0.0
C1497 C 0.82022 0.4654 0.50197 0.0
C1498 C 0.82075 0.44316 0.51354 0.0
H1499 H 0.84021 0.49611 0.48945 0.0
H1500 H 0.80346 0.47158 0.4943 0.0
C1501 C 0.84285 0.43593 0.52341 0.0
C1502 C 0.73217 0.95523 0.81166 0.0
C1503 C 0.72782 0.9312 0.80343 0.0
H1504 H 0.71955 0.99165 0.8133 0.0
C1505 C 0.70552 0.92549 0.79199 0.0
H1506 H 0.74916 0.96044 0.82037 0.0
C1507 C 0.68864 0.94342 0.78782 0.0
C1508 C 0.69345 0.96761 0.79508 0.0
H1509 H 0.70121 0.90716 0.78584 0.0
H1510 H 0.67203 0.93839 0.7783 0.0
C1511 C 0.71519 0.9732 0.80755 0.0
C1512 C 0.67968 0.57876 0.02687 0.0
C1513 C 0.67701 0.56859 1.0034 0.0
H1514 H 0.70074 0.60228 0.05087 0.0
C1515 C 0.69539 0.57382 0.98656 0.0
H1516 H 0.66608 0.57554 0.04046 0.0
C1517 C 0.71466 0.58987 0.9924 0.0
C1518 C 0.71652 0.60081 0.01538 0.0
H1519 H 0.6949 0.5658 0.96861 0.0
H1520 H 0.72804 0.59396 0.97878 0.0
C1521 C 0.69946 0.59435 0.03288 0.0
C1522 C 0.22427 0.59938 0.26777 0.0
C1523 C 0.23362 0.60482 0.24498 0.0
H1524 H 0.1995 0.57771 0.28813 0.0
C1525 C 0.22435 0.59176 0.22472 0.0
H1526 H 0.23076 0.60914 0.28375 0.0
C1527 C 0.2063 0.57362 0.22732 0.0
C1528 C 0.19672 0.56873 0.2501 0.0
H1529 H 0.23136 0.59527 0.20695 0.0
H1530 H 0.19957 0.56368 0.21153 0.0
C1531 C 0.20617 0.58152 0.27028 0.0
C1532 C 0.85701 0.57148 1.01494 0.0
C1533 C 0.87221 0.57614 0.03506 0.0
H1534 H 0.82522 0.58164 0.99537 0.0
C1535 C 0.86739 0.59631 0.05004 0.0
H1536 H 0.86016 0.5561 1.00302 0.0
C1537 C 0.8476 0.61089 0.04563 0.0
C1538 C 0.83184 0.60583 0.0261 0.0
H1539 H 0.87892 0.60083 0.06539 0.0
H1540 H 0.84442 0.62597 0.05793 0.0
C1541 C 0.83697 0.5861 1.01057 0.0
C1542 C 0.17895 0.9696 1.01028 0.0
C1543 C 0.16963 0.96863 0.03379 0.0
H1544 H 0.20535 0.95681 0.98503 0.0
C1545 C 0.18139 0.95404 0.05036 0.0
H1546 H 0.17032 0.98045 0.99695 0.0
C1547 C 0.20146 0.94043 0.04354 0.0
C1548 C 0.21047 0.94093 0.01989 0.0
H1549 H 0.17508 0.95311 0.06874 0.0
H1550 H 0.20974 0.92929 0.05684 0.0
C1551 C 0.19903 0.95591 1.00341 0.0
loop_
_geom_bond_atom_site_label_1
_geom_bond_atom_site_label_2
_geom_bond_distance
_geom_bond_site_symmetry_2
_ccdc_geom_bond_type
C0 C1 1.278 . S
C0 C5 1.479 . S
C0 C10 1.465 . S
C1 C0 1.278 . S
C1 C3 1.337 1_545 S
C1 H28 0.919 1_545 S
C2 C3 1.395 1_545 S
C2 C4 1.320 . S
C3 C1 1.337 1_565 S
C3 C2 1.395 1_565 S
C3 H29 0.929 . S
C4 C2 1.320 . S
C4 C5 1.405 . S
C4 H30 0.930 . S
C5 C0 1.479 . S
C5 C4 1.405 . S
C5 H31 0.931 . S
U6 O7 2.454 . S
U6 O8 2.458 1_554 S
U6 C9 2.964 1_554 S
U6 C10 2.847 1_455 S
U6 C23 2.882 1_545 S
U6 O24 2.441 1_455 S
U6 O25 2.420 . S
U6 O26 2.455 . S
U6 O27 2.449 1_545 S
O7 U6 2.454 . S
O7 C9 1.326 1_554 S
O8 U6 2.458 1_556 S
O8 C9 1.287 . S
C9 U6 2.964 1_556 S
C9 O7 1.326 1_556 S
C9 O8 1.287 . S
C9 C11 1.385 . S
C10 C0 1.465 . S
C10 U6 2.847 1_655 S
C10 O24 1.249 . S
C10 O25 1.202 1_655 S
C11 C9 1.385 . S
C11 C13 1.408 . S
C11 C16 1.342 . S
C12 C13 1.310 . S
C12 C15 1.461 . S
C12 H32 0.932 1_455 S
C13 C11 1.408 . S
C13 C12 1.310 . S
C13 H33 0.926 1_456 S
C14 C15 1.474 . S
C14 C16 1.285 . S
C14 H34 0.929 . S
C15 C12 1.461 . S
C15 C14 1.474 . S
C16 C11 1.342 . S
C16 C14 1.285 . S
C16 H35 0.930 . S
C17 C20 1.424 . S
C17 C22 1.245 . S
C17 C23 1.428 . S
C18 C21 1.260 . S
C18 C22 1.477 . S
C18 H36 0.932 1_554 S
C19 C20 1.384 . S
C19 C21 1.479 . S
C19 H37 0.929 . S
C20 C17 1.424 . S
C20 C19 1.384 . S
C20 H38 0.928 . S
C21 C18 1.260 . S
C21 C19 1.479 . S
C22 C17 1.245 . S
C22 C18 1.477 . S
C22 H39 0.932 1_554 S
C23 U6 2.882 1_565 S
C23 C17 1.428 . S
C23 O26 1.301 1_565 S
C23 O27 1.282 . S
O24 U6 2.441 1_655 S
O24 C10 1.249 . S
O25 U6 2.420 . S
O25 C10 1.202 1_455 S
O26 U6 2.455 . S
O26 C23 1.301 1_545 S
O27 U6 2.449 1_565 S
O27 C23 1.282 . S
H28 C1 0.919 1_565 S
H29 C3 0.929 . S
H30 C4 0.930 . S
H31 C5 0.931 . S
H32 C12 0.932 1_655 S
H33 C13 0.926 1_654 S
H34 C14 0.929 . S
H35 C16 0.930 . S
H36 C18 0.932 1_556 S
H37 C19 0.929 . S
H38 C20 0.928 . S
H39 C22 0.932 1_556 S
C40 C41 1.264 . S
C40 C45 1.479 . S
C40 C50 1.465 . S
C41 C40 1.264 . S
C41 C43 1.339 . S
C41 H68 0.931 . S
C42 C43 1.395 . S
C42 C44 1.320 . S
C43 C41 1.339 . S
C43 C42 1.395 . S
C43 H69 0.929 . S
C44 C42 1.320 . S
C44 C45 1.405 . S
C44 H70 0.930 . S
C45 C40 1.479 . S
C45 C44 1.405 . S
C45 H71 0.931 . S
U46 O47 2.454 . S
U46 O48 2.458 . S
U46 C49 2.984 . S
U46 C50 2.847 . S
U46 C63 2.882 . S
U46 O64 2.441 . S
U46 O65 2.420 . S
U46 O66 2.455 . S
U46 O67 2.449 . S
O47 U46 2.454 . S
O47 C49 1.353 . S
O48 U46 2.458 . S
O48 C49 1.286 . S
C49 U46 2.984 . S
C49 O47 1.353 . S
C49 O48 1.286 . S
C49 C51 1.363 . S
C50 C40 1.465 . S
C50 U46 2.847 . S
C50 O64 1.249 . S
C50 O65 1.202 . S
C51 C49 1.363 . S
C51 C53 1.408 . S
C51 C56 1.342 . S
C52 C53 1.310 . S
C52 C55 1.461 . S
C52 H72 0.932 . S
C53 C51 1.408 . S
C53 C52 1.310 . S
C53 H73 0.930 . S
C54 C55 1.474 . S
C54 C56 1.285 . S
C54 H74 0.929 . S
C55 C52 1.461 . S
C55 C54 1.474 . S
C56 C51 1.342 . S
C56 C54 1.285 . S
C56 H75 0.930 . S
C57 C60 1.424 . S
C57 C62 1.245 . S
C57 C63 1.428 . S
C58 C61 1.260 . S
C58 C62 1.477 . S
C58 H76 0.932 . S
C59 C60 1.384 . S
C59 C61 1.479 . S
C59 H77 0.929 . S
C60 C57 1.424 . S
C60 C59 1.384 . S
C60 H78 0.928 . S
C61 C58 1.260 . S
C61 C59 1.479 . S
C62 C57 1.245 . S
C62 C58 1.477 . S
C62 H79 0.932 . S
C63 U46 2.882 . S
C63 C57 1.428 . S
C63 O66 1.301 . S
C63 O67 1.282 . S
O64 U46 2.441 . S
O64 C50 1.249 . S
O65 U46 2.420 . S
O65 C50 1.202 . S
O66 U46 2.455 . S
O66 C63 1.301 . S
O67 U46 2.449 . S
O67 C63 1.282 . S
H68 C41 0.931 . S
H69 C43 0.929 . S
H70 C44 0.930 . S
H71 C45 0.931 . S
H72 C52 0.932 . S
H73 C53 0.930 . S
H74 C54 0.929 . S
H75 C56 0.930 . S
H76 C58 0.932 . S
H77 C59 0.929 . S
H78 C60 0.928 . S
H79 C62 0.932 . S
C80 C81 1.264 1_655 S
C80 C85 1.479 . S
C80 C90 1.465 . S
C81 C80 1.264 1_455 S
C81 C83 1.339 . S
C81 H108 0.931 . S
C82 C83 1.395 1_655 S
C82 C84 1.320 . S
C83 C81 1.339 . S
C83 C82 1.395 1_455 S
C83 H109 0.929 . S
C84 C82 1.320 . S
C84 C85 1.405 . S
C84 H110 0.930 . S
C85 C80 1.479 . S
C85 C84 1.405 . S
C85 H111 0.931 . S
U86 O87 2.454 . S
U86 O88 2.458 . S
U86 C89 2.984 . S
U86 C90 2.847 1_554 S
U86 C103 2.882 1_655 S
U86 O104 2.441 1_554 S
U86 O105 2.420 . S
U86 O106 2.455 . S
U86 O107 2.449 1_655 S
O87 U86 2.454 . S
O87 C89 1.353 . S
O88 U86 2.458 . S
O88 C89 1.286 . S
C89 U86 2.984 . S
C89 O87 1.353 . S
C89 O88 1.286 . S
C89 C91 1.363 . S
C90 C80 1.465 . S
C90 U86 2.847 1_556 S
C90 O104 1.249 . S
C90 O105 1.202 1_556 S
C91 C89 1.363 . S
C91 C93 1.408 . S
C91 C96 1.342 . S
C92 C93 1.315 . S
C92 C95 1.486 . S
C92 H112 0.903 1_554 S
C93 C91 1.408 . S
C93 C92 1.315 . S
C93 H113 0.930 1_554 S
C94 C95 1.474 . S
C94 C96 1.285 . S
C94 H114 0.929 . S
C95 C92 1.486 . S
C95 C94 1.474 . S
C96 C91 1.342 . S
C96 C94 1.285 . S
C96 H115 0.930 . S
C97 C100 1.424 . S
C97 C102 1.245 . S
C97 C103 1.428 . S
C98 C101 1.260 . S
C98 C102 1.477 . S
C98 H116 0.932 . S
C99 C100 1.384 . S
C99 C101 1.479 . S
C99 H117 0.929 . S
C100 C97 1.424 . S
C100 C99 1.384 . S
C100 H118 0.928 . S
C101 C98 1.260 . S
C101 C99 1.479 . S
C102 C97 1.245 . S
C102 C98 1.477 . S
C102 H119 0.932 . S
C103 U86 2.882 1_455 S
C103 C97 1.428 . S
C103 O106 1.301 1_455 S
C103 O107 1.282 . S
O104 U86 2.441 1_556 S
O104 C90 1.249 . S
O105 U86 2.420 . S
O105 C90 1.202 1_554 S
O106 U86 2.455 . S
O106 C103 1.301 1_655 S
O107 U86 2.449 1_455 S
O107 C103 1.282 . S
H108 C81 0.931 . S
H109 C83 0.929 . S
H110 C84 0.930 . S
H111 C85 0.931 . S
H112 C92 0.903 1_556 S
H113 C93 0.930 1_556 S
H114 C94 0.929 . S
H115 C96 0.930 . S
H116 C98 0.932 . S
H117 C99 0.929 . S
H118 C100 0.928 . S
H119 C102 0.932 . S
C120 C121 1.264 . S
C120 C125 1.479 . S
C120 C130 1.465 . S
C121 C120 1.264 . S
C121 C123 1.339 . S
C121 H148 0.931 . S
C122 C123 1.395 . S
C122 C124 1.320 . S
C123 C121 1.339 . S
C123 C122 1.395 . S
C123 H149 0.929 . S
C124 C122 1.320 . S
C124 C125 1.405 . S
C124 H150 0.930 . S
C125 C120 1.479 . S
C125 C124 1.405 . S
C125 H151 0.931 . S
U126 O127 2.454 . S
U126 O128 2.458 . S
U126 C129 2.984 . S
U126 C130 2.847 . S
U126 C143 2.882 . S
U126 O144 2.441 . S
U126 O145 2.420 . S
U126 O146 2.455 . S
U126 O147 2.449 . S
O127 U126 2.454 . S
O127 C129 1.353 . S
O128 U126 2.458 . S
O128 C129 1.286 . S
C129 U126 2.984 . S
C129 O127 1.353 . S
C129 O128 1.286 . S
C129 C131 1.363 . S
C130 C120 1.465 . S
C130 U126 2.847 . S
C130 O144 1.249 . S
C130 O145 1.202 . S
C131 C129 1.363 . S
C131 C133 1.408 . S
C131 C136 1.342 . S
C132 C133 1.310 . S
C132 C135 1.461 . S
C132 H152 0.932 . S
C133 C131 1.408 . S
C133 C132 1.310 . S
C133 H153 0.930 . S
C134 C135 1.474 . S
C134 C136 1.285 . S
C134 H154 0.929 . S
C135 C132 1.461 . S
C135 C134 1.474 . S
C136 C131 1.342 . S
C136 C134 1.285 . S
C136 H155 0.930 . S
C137 C140 1.424 . S
C137 C142 1.245 . S
C137 C143 1.428 . S
C138 C141 1.260 . S
C138 C142 1.477 . S
C138 H156 0.932 . S
C139 C140 1.384 . S
C139 C141 1.479 . S
C139 H157 0.929 . S
C140 C137 1.424 . S
C140 C139 1.384 . S
C140 H158 0.928 . S
C141 C138 1.260 . S
C141 C139 1.479 . S
C142 C137 1.245 . S
C142 C138 1.477 . S
C142 H159 0.932 . S
C143 U126 2.882 . S
C143 C137 1.428 . S
C143 O146 1.301 . S
C143 O147 1.282 . S
O144 U126 2.441 . S
O144 C130 1.249 . S
O145 U126 2.420 . S
O145 C130 1.202 . S
O146 U126 2.455 . S
O146 C143 1.301 . S
O147 U126 2.449 . S
O147 C143 1.282 . S
H148 C121 0.931 . S
H149 C123 0.929 . S
H150 C124 0.930 . S
H151 C125 0.931 . S
H152 C132 0.932 . S
H153 C133 0.930 . S
H154 C134 0.929 . S
H155 C136 0.930 . S
H156 C138 0.932 . S
H157 C139 0.929 . S
H158 C140 0.928 . S
H159 C142 0.932 . S
C160 C161 1.264 1_565 S
C160 C165 1.479 . S
C160 C170 1.465 . S
C161 C160 1.264 1_545 S
C161 C163 1.339 . S
C161 H188 0.916 1_655 S
C162 C163 1.395 1_565 S
C162 C164 1.320 . S
C163 C161 1.339 . S
C163 C162 1.395 1_545 S
C163 H189 0.929 . S
C164 C162 1.320 . S
C164 C165 1.405 . S
C164 H190 0.930 . S
C165 C160 1.479 . S
C165 C164 1.405 . S
C165 H191 0.931 . S
U166 O167 2.454 . S
U166 O168 2.458 . S
U166 C169 2.984 . S
U166 C170 2.847 1_455 S
U166 C183 2.882 1_565 S
U166 O184 2.441 1_455 S
U166 O185 2.418 . S
U166 O186 2.455 . S
U166 O187 2.449 1_565 S
O167 U166 2.454 . S
O167 C169 1.353 . S
O168 U166 2.458 . S
O168 C169 1.286 . S
C169 U166 2.984 . S
C169 O167 1.353 . S
C169 O168 1.286 . S
C169 C171 1.363 . S
C170 C160 1.465 . S
C170 U166 2.847 1_655 S
C170 O184 1.249 . S
C170 O185 1.200 1_655 S
C171 C169 1.363 . S
C171 C173 1.408 . S
C171 C176 1.342 . S
C172 C173 1.310 . S
C172 C175 1.461 . S
C172 H192 0.932 1_455 S
C173 C171 1.408 . S
C173 C172 1.310 . S
C173 H193 0.930 1_455 S
C174 C175 1.474 . S
C174 C176 1.285 . S
C174 H194 0.929 . S
C175 C172 1.461 . S
C175 C174 1.474 . S
C176 C171 1.342 . S
C176 C174 1.285 . S
C176 H195 0.930 . S
C177 C180 1.424 . S
C177 C182 1.245 . S
C177 C183 1.428 . S
C178 C181 1.260 . S
C178 C182 1.477 . S
C178 H196 0.932 . S
C179 C180 1.384 . S
C179 C181 1.479 . S
C179 H197 0.929 . S
C180 C177 1.424 . S
C180 C179 1.384 . S
C180 H198 0.928 . S
C181 C178 1.260 . S
C181 C179 1.479 . S
C182 C177 1.245 . S
C182 C178 1.477 . S
C182 H199 0.932 . S
C183 U166 2.882 1_545 S
C183 C177 1.428 . S
C183 O186 1.301 1_545 S
C183 O187 1.282 . S
O184 U166 2.441 1_655 S
O184 C170 1.249 . S
O185 U166 2.418 . S
O185 C170 1.200 1_455 S
O186 U166 2.455 . S
O186 C183 1.301 1_565 S
O187 U166 2.449 1_545 S
O187 C183 1.282 . S
H188 C161 0.916 1_455 S
H189 C163 0.929 . S
H190 C164 0.930 . S
H191 C165 0.931 . S
H192 C172 0.932 1_655 S
H193 C173 0.930 1_655 S
H194 C174 0.929 . S
H195 C176 0.930 . S
H196 C178 0.932 . S
H197 C179 0.929 . S
H198 C180 0.928 . S
H199 C182 0.932 . S
C200 C201 1.264 . S
C200 C205 1.479 . S
C200 C210 1.465 . S
C201 C200 1.264 . S
C201 C203 1.339 . S
C201 H228 0.931 . S
C202 C203 1.395 . S
C202 C204 1.320 . S
C203 C201 1.339 . S
C203 C202 1.395 . S
C203 H229 0.929 . S
C204 C202 1.320 . S
C204 C205 1.405 . S
C204 H230 0.930 . S
C205 C200 1.479 . S
C205 C204 1.405 . S
C205 H231 0.931 . S
U206 O207 2.454 . S
U206 O208 2.458 . S
U206 C209 2.984 . S
U206 C210 2.847 . S
U206 C223 2.882 . S
U206 O224 2.441 . S
U206 O225 2.420 . S
U206 O226 2.455 . S
U206 O227 2.449 . S
O207 U206 2.454 . S
O207 C209 1.353 . S
O208 U206 2.458 . S
O208 C209 1.286 . S
C209 U206 2.984 . S
C209 O207 1.353 . S
C209 O208 1.286 . S
C209 C211 1.363 . S
C210 C200 1.465 . S
C210 U206 2.847 . S
C210 O224 1.249 . S
C210 O225 1.202 . S
C211 C209 1.363 . S
C211 C213 1.408 . S
C211 C216 1.342 . S
C212 C213 1.310 . S
C212 C215 1.461 . S
C212 H232 0.932 . S
C213 C211 1.408 . S
C213 C212 1.310 . S
C213 H233 0.930 . S
C214 C215 1.474 . S
C214 C216 1.285 . S
C214 H234 0.929 . S
C215 C212 1.461 . S
C215 C214 1.474 . S
C216 C211 1.342 . S
C216 C214 1.285 . S
C216 H235 0.930 . S
C217 C220 1.424 . S
C217 C222 1.245 . S
C217 C223 1.428 . S
C218 C221 1.260 . S
C218 C222 1.477 . S
C218 H236 0.932 . S
C219 C220 1.384 . S
C219 C221 1.479 . S
C219 H237 0.929 . S
C220 C217 1.424 . S
C220 C219 1.384 . S
C220 H238 0.928 . S
C221 C218 1.260 . S
C221 C219 1.479 . S
C222 C217 1.245 . S
C222 C218 1.477 . S
C222 H239 0.932 . S
C223 U206 2.882 . S
C223 C217 1.428 . S
C223 O226 1.301 . S
C223 O227 1.282 . S
O224 U206 2.441 . S
O224 C210 1.249 . S
O225 U206 2.420 . S
O225 C210 1.202 . S
O226 U206 2.455 . S
O226 C223 1.301 . S
O227 U206 2.449 . S
O227 C223 1.282 . S
H228 C201 0.931 . S
H229 C203 0.929 . S
H230 C204 0.930 . S
H231 C205 0.931 . S
H232 C212 0.932 . S
H233 C213 0.930 . S
H234 C214 0.929 . S
H235 C216 0.930 . S
H236 C218 0.932 . S
H237 C219 0.929 . S
H238 C220 0.928 . S
H239 C222 0.932 . S
C240 C241 1.264 1_655 S
C240 C245 1.479 . S
C240 C250 1.465 . S
C241 C240 1.264 1_455 S
C241 C243 1.339 . S
C241 H268 0.931 . S
C242 C243 1.395 1_655 S
C242 C244 1.320 . S
C243 C241 1.339 . S
C243 C242 1.395 1_455 S
C243 H269 0.929 . S
C244 C242 1.320 . S
C244 C245 1.405 . S
C244 H270 0.930 . S
C245 C240 1.479 . S
C245 C244 1.405 . S
C245 H271 0.931 . S
U246 O247 2.454 . S
U246 O248 2.458 . S
U246 C249 2.984 . S
U246 C250 2.847 . S
U246 C263 2.882 1_655 S
U246 O264 2.441 . S
U246 O265 2.420 1_655 S
U246 O266 2.455 . S
U246 O267 2.449 1_655 S
O247 U246 2.454 . S
O247 C249 1.353 . S
O248 U246 2.458 . S
O248 C249 1.286 . S
C249 U246 2.984 . S
C249 O247 1.353 . S
C249 O248 1.286 . S
C249 C251 1.363 . S
C250 C240 1.465 . S
C250 U246 2.847 . S
C250 O264 1.249 . S
C250 O265 1.202 1_655 S
C251 C249 1.363 . S
C251 C253 1.408 . S
C251 C256 1.342 . S
C252 C253 1.310 . S
C252 C255 1.461 . S
C252 H272 0.932 . S
C253 C251 1.408 . S
C253 C252 1.310 . S
C253 H273 0.930 . S
C254 C255 1.474 . S
C254 C256 1.285 . S
C254 H274 0.929 . S
C255 C252 1.461 . S
C255 C254 1.474 . S
C256 C251 1.342 . S
C256 C254 1.285 . S
C256 H275 0.930 . S
C257 C260 1.424 . S
C257 C262 1.245 . S
C257 C263 1.428 . S
C258 C261 1.260 . S
C258 C262 1.477 . S
C258 H276 0.932 . S
C259 C260 1.384 . S
C259 C261 1.479 . S
C259 H277 0.929 . S
C260 C257 1.424 . S
C260 C259 1.384 . S
C260 H278 0.928 . S
C261 C258 1.260 . S
C261 C259 1.479 . S
C262 C257 1.245 . S
C262 C258 1.477 . S
C262 H279 0.932 . S
C263 U246 2.882 1_455 S
C263 C257 1.428 . S
C263 O266 1.301 1_455 S
C263 O267 1.282 . S
O264 U246 2.441 . S
O264 C250 1.249 . S
O265 U246 2.420 1_455 S
O265 C250 1.202 1_455 S
O266 U246 2.455 . S
O266 C263 1.301 1_655 S
O267 U246 2.449 1_455 S
O267 C263 1.282 . S
H268 C241 0.931 . S
H269 C243 0.929 . S
H270 C244 0.930 . S
H271 C245 0.931 . S
H272 C252 0.932 . S
H273 C253 0.930 . S
H274 C254 0.929 . S
H275 C256 0.930 . S
H276 C258 0.932 . S
H277 C259 0.929 . S
H278 C260 0.928 . S
H279 C262 0.932 . S
C280 C281 1.264 . S
C280 C285 1.479 . S
C280 C290 1.465 . S
C281 C280 1.264 . S
C281 C283 1.339 . S
C281 H308 0.931 . S
C282 C283 1.395 . S
C282 C284 1.320 . S
C283 C281 1.339 . S
C283 C282 1.395 . S
C283 H309 0.929 . S
C284 C282 1.320 . S
C284 C285 1.405 . S
C284 H310 0.930 . S
C285 C280 1.479 . S
C285 C284 1.405 . S
C285 H311 0.931 . S
U286 O287 2.454 . S
U286 O288 2.458 . S
U286 C289 2.984 . S
U286 C290 2.847 . S
U286 C303 2.882 . S
U286 O304 2.441 . S
U286 O305 2.420 . S
U286 O306 2.455 . S
U286 O307 2.449 . S
O287 U286 2.454 . S
O287 C289 1.353 . S
O288 U286 2.458 . S
O288 C289 1.286 . S
C289 U286 2.984 . S
C289 O287 1.353 . S
C289 O288 1.286 . S
C289 C291 1.363 . S
C290 C280 1.465 . S
C290 U286 2.847 . S
C290 O304 1.249 . S
C290 O305 1.202 . S
C291 C289 1.363 . S
C291 C293 1.408 . S
C291 C296 1.342 . S
C292 C293 1.310 . S
C292 C295 1.461 . S
C292 H312 0.932 . S
C293 C291 1.408 . S
C293 C292 1.310 . S
C293 H313 0.930 . S
C294 C295 1.474 . S
C294 C296 1.285 . S
C294 H314 0.929 . S
C295 C292 1.461 . S
C295 C294 1.474 . S
C296 C291 1.342 . S
C296 C294 1.285 . S
C296 H315 0.930 . S
C297 C300 1.424 . S
C297 C302 1.245 . S
C297 C303 1.428 . S
C298 C301 1.260 . S
C298 C302 1.477 . S
C298 H316 0.932 . S
C299 C300 1.384 . S
C299 C301 1.479 . S
C299 H317 0.929 . S
C300 C297 1.424 . S
C300 C299 1.384 . S
C300 H318 0.928 . S
C301 C298 1.260 . S
C301 C299 1.479 . S
C302 C297 1.245 . S
C302 C298 1.477 . S
C302 H319 0.932 . S
C303 U286 2.882 . S
C303 C297 1.428 . S
C303 O306 1.301 . S
C303 O307 1.282 . S
O304 U286 2.441 . S
O304 C290 1.249 . S
O305 U286 2.420 . S
O305 C290 1.202 . S
O306 U286 2.455 . S
O306 C303 1.301 . S
O307 U286 2.449 . S
O307 C303 1.282 . S
H308 C281 0.931 . S
H309 C283 0.929 . S
H310 C284 0.930 . S
H311 C285 0.931 . S
H312 C292 0.932 . S
H313 C293 0.930 . S
H314 C294 0.929 . S
H315 C296 0.930 . S
H316 C298 0.932 . S
H317 C299 0.929 . S
H318 C300 0.928 . S
H319 C302 0.932 . S
C320 C321 1.264 . S
C320 C325 1.479 . S
C320 C330 1.465 . S
C321 C320 1.264 . S
C321 C323 1.339 . S
C321 H348 0.931 . S
C322 C323 1.395 . S
C322 C324 1.320 . S
C323 C321 1.339 . S
C323 C322 1.395 . S
C323 H349 0.929 . S
C324 C322 1.320 . S
C324 C325 1.405 . S
C324 H350 0.930 . S
C325 C320 1.479 . S
C325 C324 1.405 . S
C325 H351 0.931 . S
U326 O327 2.454 . S
U326 O328 2.458 . S
U326 C329 2.984 . S
U326 C330 2.847 . S
U326 C343 2.882 . S
U326 O344 2.441 . S
U326 O345 2.420 . S
U326 O346 2.455 . S
U326 O347 2.449 . S
O327 U326 2.454 . S
O327 C329 1.353 . S
O328 U326 2.458 . S
O328 C329 1.286 . S
C329 U326 2.984 . S
C329 O327 1.353 . S
C329 O328 1.286 . S
C329 C331 1.363 . S
C330 C320 1.465 . S
C330 U326 2.847 . S
C330 O344 1.249 . S
C330 O345 1.202 . S
C331 C329 1.363 . S
C331 C333 1.408 . S
C331 C336 1.342 . S
C332 C333 1.310 . S
C332 C335 1.461 . S
C332 H352 0.932 . S
C333 C331 1.408 . S
C333 C332 1.310 . S
C333 H353 0.930 . S
C334 C335 1.474 . S
C334 C336 1.285 . S
C334 H354 0.929 . S
C335 C332 1.461 . S
C335 C334 1.474 . S
C336 C331 1.342 . S
C336 C334 1.285 . S
C336 H355 0.930 . S
C337 C340 1.424 . S
C337 C342 1.245 . S
C337 C343 1.428 . S
C338 C341 1.260 . S
C338 C342 1.477 . S
C338 H356 0.932 . S
C339 C340 1.384 . S
C339 C341 1.479 . S
C339 H357 0.929 . S
C340 C337 1.424 . S
C340 C339 1.384 . S
C340 H358 0.928 . S
C341 C338 1.260 . S
C341 C339 1.479 . S
C342 C337 1.245 . S
C342 C338 1.477 . S
C342 H359 0.932 . S
C343 U326 2.882 . S
C343 C337 1.428 . S
C343 O346 1.301 . S
C343 O347 1.282 . S
O344 U326 2.441 . S
O344 C330 1.249 . S
O345 U326 2.420 . S
O345 C330 1.202 . S
O346 U326 2.455 . S
O346 C343 1.301 . S
O347 U326 2.449 . S
O347 C343 1.282 . S
H348 C321 0.931 . S
H349 C323 0.929 . S
H350 C324 0.930 . S
H351 C325 0.931 . S
H352 C332 0.932 . S
H353 C333 0.930 . S
H354 C334 0.929 . S
H355 C336 0.930 . S
H356 C338 0.932 . S
H357 C339 0.929 . S
H358 C340 0.928 . S
H359 C342 0.932 . S
C360 C361 1.264 . S
C360 C365 1.479 . S
C360 C370 1.465 . S
C361 C360 1.264 . S
C361 C363 1.339 . S
C361 H388 0.931 . S
C362 C363 1.395 . S
C362 C364 1.320 . S
C363 C361 1.339 . S
C363 C362 1.395 . S
C363 H389 0.929 . S
C364 C362 1.320 . S
C364 C365 1.405 . S
C364 H390 0.930 . S
C365 C360 1.479 . S
C365 C364 1.405 . S
C365 H391 0.931 . S
U366 O367 2.454 . S
U366 O368 2.458 1_565 S
U366 C369 2.984 1_565 S
U366 C370 2.847 . S
U366 C383 2.882 . S
U366 O384 2.441 . S
U366 O385 2.420 . S
U366 O386 2.455 . S
U366 O387 2.449 . S
O367 U366 2.454 . S
O367 C369 1.353 1_565 S
O368 U366 2.458 1_545 S
O368 C369 1.286 . S
C369 U366 2.984 1_545 S
C369 O367 1.353 1_545 S
C369 O368 1.286 . S
C369 C371 1.363 . S
C370 C360 1.465 . S
C370 U366 2.847 . S
C370 O384 1.249 . S
C370 O385 1.202 . S
C371 C369 1.363 . S
C371 C373 1.408 . S
C371 C376 1.342 . S
C372 C373 1.310 . S
C372 C375 1.461 . S
C372 H392 0.932 . S
C373 C371 1.408 . S
C373 C372 1.310 . S
C373 H393 0.930 . S
C374 C375 1.474 . S
C374 C376 1.285 . S
C374 H394 0.929 . S
C375 C372 1.461 . S
C375 C374 1.474 . S
C376 C371 1.342 . S
C376 C374 1.285 . S
C376 H395 0.930 . S
C377 C380 1.424 . S
C377 C382 1.245 1_565 S
C377 C383 1.428 . S
C378 C381 1.260 1_545 S
C378 C382 1.477 . S
C378 H396 0.932 . S
C379 C380 1.384 . S
C379 C381 1.479 . S
C379 H397 0.929 . S
C380 C377 1.424 . S
C380 C379 1.384 . S
C380 H398 0.928 . S
C381 C378 1.260 1_565 S
C381 C379 1.479 . S
C382 C377 1.245 1_545 S
C382 C378 1.477 . S
C382 H399 0.932 . S
C383 U366 2.882 . S
C383 C377 1.428 . S
C383 O386 1.301 . S
C383 O387 1.282 . S
O384 U366 2.441 . S
O384 C370 1.249 . S
O385 U366 2.420 . S
O385 C370 1.202 . S
O386 U366 2.455 . S
O386 C383 1.301 . S
O387 U366 2.449 . S
O387 C383 1.282 . S
H388 C361 0.931 . S
H389 C363 0.929 . S
H390 C364 0.930 . S
H391 C365 0.931 . S
H392 C372 0.932 . S
H393 C373 0.930 . S
H394 C374 0.929 . S
H395 C376 0.930 . S
H396 C378 0.932 . S
H397 C379 0.929 . S
H398 C380 0.928 . S
H399 C382 0.932 . S
C400 C401 1.264 . S
C400 C405 1.479 . S
C400 C410 1.465 . S
C401 C400 1.264 . S
C401 C403 1.339 . S
C401 H428 0.931 . S
C402 C403 1.395 . S
C402 C404 1.320 . S
C403 C401 1.339 . S
C403 C402 1.395 . S
C403 H429 0.929 . S
C404 C402 1.320 . S
C404 C405 1.405 . S
C404 H430 0.930 . S
C405 C400 1.479 . S
C405 C404 1.405 . S
C405 H431 0.931 . S
U406 O407 2.454 . S
U406 O408 2.458 . S
U406 C409 2.984 . S
U406 C410 2.847 . S
U406 C423 2.882 . S
U406 O424 2.441 . S
U406 O425 2.420 . S
U406 O426 2.455 . S
U406 O427 2.449 . S
O407 U406 2.454 . S
O407 C409 1.353 . S
O408 U406 2.458 . S
O408 C409 1.286 . S
C409 U406 2.984 . S
C409 O407 1.353 . S
C409 O408 1.286 . S
C409 C411 1.363 . S
C410 C400 1.465 . S
C410 U406 2.847 . S
C410 O424 1.249 . S
C410 O425 1.202 . S
C411 C409 1.363 . S
C411 C413 1.408 . S
C411 C416 1.342 . S
C412 C413 1.310 . S
C412 C415 1.461 . S
C412 H432 0.932 . S
C413 C411 1.408 . S
C413 C412 1.310 . S
C413 H433 0.930 . S
C414 C415 1.474 . S
C414 C416 1.285 . S
C414 H434 0.929 . S
C415 C412 1.461 . S
C415 C414 1.474 . S
C416 C411 1.342 . S
C416 C414 1.285 . S
C416 H435 0.930 . S
C417 C420 1.424 . S
C417 C422 1.245 . S
C417 C423 1.428 . S
C418 C421 1.260 . S
C418 C422 1.477 . S
C418 H436 0.932 . S
C419 C420 1.384 . S
C419 C421 1.479 . S
C419 H437 0.929 . S
C420 C417 1.424 . S
C420 C419 1.384 . S
C420 H438 0.928 . S
C421 C418 1.260 . S
C421 C419 1.479 . S
C422 C417 1.245 . S
C422 C418 1.477 . S
C422 H439 0.932 . S
C423 U406 2.882 . S
C423 C417 1.428 . S
C423 O426 1.301 . S
C423 O427 1.282 . S
O424 U406 2.441 . S
O424 C410 1.249 . S
O425 U406 2.420 . S
O425 C410 1.202 . S
O426 U406 2.455 . S
O426 C423 1.301 . S
O427 U406 2.449 . S
O427 C423 1.282 . S
H428 C401 0.931 . S
H429 C403 0.929 . S
H430 C404 0.930 . S
H431 C405 0.931 . S
H432 C412 0.932 . S
H433 C413 0.930 . S
H434 C414 0.929 . S
H435 C416 0.930 . S
H436 C418 0.932 . S
H437 C419 0.929 . S
H438 C420 0.928 . S
H439 C422 0.932 . S
C440 C441 1.264 . S
C440 C445 1.479 . S
C440 C450 1.465 . S
C441 C440 1.264 . S
C441 C443 1.339 . S
C441 H468 0.931 . S
C442 C443 1.395 . S
C442 C444 1.320 . S
C443 C441 1.339 . S
C443 C442 1.395 . S
C443 H469 0.929 . S
C444 C442 1.320 . S
C444 C445 1.405 . S
C444 H470 0.930 . S
C445 C440 1.479 . S
C445 C444 1.405 . S
C445 H471 0.931 . S
U446 O447 2.454 . S
U446 O448 2.458 . S
U446 C449 2.984 . S
U446 C450 2.847 . S
U446 C463 2.882 . S
U446 O464 2.441 . S
U446 O465 2.420 . S
U446 O466 2.455 . S
U446 O467 2.449 . S
O447 U446 2.454 . S
O447 C449 1.353 . S
O448 U446 2.458 . S
O448 C449 1.286 . S
C449 U446 2.984 . S
C449 O447 1.353 . S
C449 O448 1.286 . S
C449 C451 1.363 . S
C450 C440 1.465 . S
C450 U446 2.847 . S
C450 O464 1.249 . S
C450 O465 1.202 . S
C451 C449 1.363 . S
C451 C453 1.408 . S
C451 C456 1.342 . S
C452 C453 1.310 . S
C452 C455 1.461 . S
C452 H472 0.932 . S
C453 C451 1.408 . S
C453 C452 1.310 . S
C453 H473 0.930 . S
C454 C455 1.474 . S
C454 C456 1.285 . S
C454 H474 0.929 . S
C455 C452 1.461 . S
C455 C454 1.474 . S
C456 C451 1.342 . S
C456 C454 1.285 . S
C456 H475 0.930 . S
C457 C460 1.424 . S
C457 C462 1.245 . S
C457 C463 1.428 . S
C458 C461 1.260 . S
C458 C462 1.477 . S
C458 H476 0.932 . S
C459 C460 1.384 . S
C459 C461 1.479 . S
C459 H477 0.929 . S
C460 C457 1.424 . S
C460 C459 1.384 . S
C460 H478 0.928 . S
C461 C458 1.260 . S
C461 C459 1.479 . S
C462 C457 1.245 . S
C462 C458 1.477 . S
C462 H479 0.932 . S
C463 U446 2.882 . S
C463 C457 1.428 . S
C463 O466 1.301 . S
C463 O467 1.282 . S
O464 U446 2.441 . S
O464 C450 1.249 . S
O465 U446 2.420 . S
O465 C450 1.202 . S
O466 U446 2.455 . S
O466 C463 1.301 . S
O467 U446 2.449 . S
O467 C463 1.282 . S
H468 C441 0.931 . S
H469 C443 0.929 . S
H470 C444 0.930 . S
H471 C445 0.931 . S
H472 C452 0.932 . S
H473 C453 0.930 . S
H474 C454 0.929 . S
H475 C456 0.930 . S
H476 C458 0.932 . S
H477 C459 0.929 . S
H478 C460 0.928 . S
H479 C462 0.932 . S
C480 C481 1.264 . S
C480 C485 1.479 . S
C480 C490 1.465 . S
C481 C480 1.264 . S
C481 C483 1.339 . S
C481 H508 0.931 . S
C482 C483 1.395 . S
C482 C484 1.320 . S
C483 C481 1.339 . S
C483 C482 1.395 . S
C483 H509 0.929 . S
C484 C482 1.320 . S
C484 C485 1.405 . S
C484 H510 0.930 . S
C485 C480 1.479 . S
C485 C484 1.405 . S
C485 H511 0.931 . S
U486 O487 2.454 . S
U486 O488 2.458 . S
U486 C489 2.984 . S
U486 C490 2.847 . S
U486 C503 2.882 . S
U486 O504 2.441 . S
U486 O505 2.420 . S
U486 O506 2.455 . S
U486 O507 2.449 . S
O487 U486 2.454 . S
O487 C489 1.353 . S
O488 U486 2.458 . S
O488 C489 1.286 . S
C489 U486 2.984 . S
C489 O487 1.353 . S
C489 O488 1.286 . S
C489 C491 1.363 . S
C490 C480 1.465 . S
C490 U486 2.847 . S
C490 O504 1.249 . S
C490 O505 1.202 . S
C491 C489 1.363 . S
C491 C493 1.408 . S
C491 C496 1.342 . S
C492 C493 1.310 . S
C492 C495 1.461 . S
C492 H512 0.932 . S
C493 C491 1.408 . S
C493 C492 1.310 . S
C493 H513 0.930 . S
C494 C495 1.474 . S
C494 C496 1.285 . S
C494 H514 0.929 . S
C495 C492 1.461 . S
C495 C494 1.474 . S
C496 C491 1.342 . S
C496 C494 1.285 . S
C496 H515 0.930 . S
C497 C500 1.424 . S
C497 C502 1.245 . S
C497 C503 1.428 . S
C498 C501 1.260 . S
C498 C502 1.477 . S
C498 H516 0.932 . S
C499 C500 1.384 . S
C499 C501 1.479 . S
C499 H517 0.929 . S
C500 C497 1.424 . S
C500 C499 1.384 . S
C500 H518 0.928 . S
C501 C498 1.260 . S
C501 C499 1.479 . S
C502 C497 1.245 . S
C502 C498 1.477 . S
C502 H519 0.932 . S
C503 U486 2.882 . S
C503 C497 1.428 . S
C503 O506 1.301 . S
C503 O507 1.282 . S
O504 U486 2.441 . S
O504 C490 1.249 . S
O505 U486 2.420 . S
O505 C490 1.202 . S
O506 U486 2.455 . S
O506 C503 1.301 . S
O507 U486 2.449 . S
O507 C503 1.282 . S
H508 C481 0.931 . S
H509 C483 0.929 . S
H510 C484 0.930 . S
H511 C485 0.931 . S
H512 C492 0.932 . S
H513 C493 0.930 . S
H514 C494 0.929 . S
H515 C496 0.930 . S
H516 C498 0.932 . S
H517 C499 0.929 . S
H518 C500 0.928 . S
H519 C502 0.932 . S
C520 C521 1.264 . S
C520 C525 1.479 . S
C520 C530 1.465 . S
C521 C520 1.264 . S
C521 C523 1.339 . S
C521 H548 0.931 . S
C522 C523 1.395 . S
C522 C524 1.320 . S
C523 C521 1.339 . S
C523 C522 1.395 . S
C523 H549 0.929 . S
C524 C522 1.320 . S
C524 C525 1.405 . S
C524 H550 0.930 . S
C525 C520 1.479 . S
C525 C524 1.405 . S
C525 H551 0.931 . S
U526 O527 2.454 . S
U526 O528 2.458 1_556 S
U526 C529 2.984 1_556 S
U526 C530 2.847 . S
U526 C543 2.882 . S
U526 O544 2.441 . S
U526 O545 2.420 . S
U526 O546 2.455 . S
U526 O547 2.449 . S
O527 U526 2.454 . S
O527 C529 1.353 1_556 S
O528 U526 2.458 1_554 S
O528 C529 1.286 . S
C529 U526 2.984 1_554 S
C529 O527 1.353 1_554 S
C529 O528 1.286 . S
C529 C531 1.363 . S
C530 C520 1.465 . S
C530 U526 2.847 . S
C530 O544 1.249 . S
C530 O545 1.202 . S
C531 C529 1.363 . S
C531 C533 1.408 . S
C531 C536 1.342 . S
C532 C533 1.310 . S
C532 C535 1.461 . S
C532 H552 0.932 . S
C533 C531 1.408 . S
C533 C532 1.310 . S
C533 H553 0.930 . S
C534 C535 1.474 . S
C534 C536 1.285 . S
C534 H554 0.929 . S
C535 C532 1.461 . S
C535 C534 1.474 . S
C536 C531 1.342 . S
C536 C534 1.285 . S
C536 H555 0.930 . S
C537 C540 1.424 . S
C537 C542 1.245 1_556 S
C537 C543 1.428 . S
C538 C541 1.260 1_554 S
C538 C542 1.477 . S
C538 H556 0.932 . S
C539 C540 1.384 . S
C539 C541 1.479 . S
C539 H557 0.929 . S
C540 C537 1.424 . S
C540 C539 1.384 . S
C540 H558 0.928 . S
C541 C538 1.260 1_556 S
C541 C539 1.479 . S
C542 C537 1.245 1_554 S
C542 C538 1.477 . S
C542 H559 0.932 . S
C543 U526 2.882 . S
C543 C537 1.428 . S
C543 O546 1.301 . S
C543 O547 1.282 . S
O544 U526 2.441 . S
O544 C530 1.249 . S
O545 U526 2.420 . S
O545 C530 1.202 . S
O546 U526 2.455 . S
O546 C543 1.301 . S
O547 U526 2.449 . S
O547 C543 1.282 . S
H548 C521 0.931 . S
H549 C523 0.929 . S
H550 C524 0.930 . S
H551 C525 0.931 . S
H552 C532 0.932 . S
H553 C533 0.930 . S
H554 C534 0.929 . S
H555 C536 0.930 . S
H556 C538 0.932 . S
H557 C539 0.929 . S
H558 C540 0.928 . S
H559 C542 0.932 . S
C560 C561 1.264 . S
C560 C565 1.479 . S
C560 C570 1.465 . S
C561 C560 1.264 . S
C561 C563 1.339 . S
C561 H588 0.931 . S
C562 C563 1.395 . S
C562 C564 1.320 . S
C563 C561 1.339 . S
C563 C562 1.395 . S
C563 H589 0.929 . S
C564 C562 1.320 . S
C564 C565 1.405 . S
C564 H590 0.930 . S
C565 C560 1.479 . S
C565 C564 1.405 . S
C565 H591 0.931 . S
U566 O567 2.454 . S
U566 O568 2.458 . S
U566 C569 2.984 . S
U566 C570 2.847 . S
U566 C583 2.882 . S
U566 O584 2.441 . S
U566 O585 2.420 . S
U566 O586 2.455 . S
U566 O587 2.449 . S
O567 U566 2.454 . S
O567 C569 1.353 . S
O568 U566 2.458 . S
O568 C569 1.286 . S
C569 U566 2.984 . S
C569 O567 1.353 . S
C569 O568 1.286 . S
C569 C571 1.363 . S
C570 C560 1.465 . S
C570 U566 2.847 . S
C570 O584 1.249 . S
C570 O585 1.202 . S
C571 C569 1.363 . S
C571 C573 1.408 . S
C571 C576 1.342 . S
C572 C573 1.310 . S
C572 C575 1.461 . S
C572 H592 0.932 . S
C573 C571 1.408 . S
C573 C572 1.310 . S
C573 H593 0.930 . S
C574 C575 1.474 . S
C574 C576 1.285 . S
C574 H594 0.929 . S
C575 C572 1.461 . S
C575 C574 1.474 . S
C576 C571 1.342 . S
C576 C574 1.285 . S
C576 H595 0.930 . S
C577 C580 1.424 . S
C577 C582 1.245 . S
C577 C583 1.428 . S
C578 C581 1.260 . S
C578 C582 1.477 . S
C578 H596 0.932 . S
C579 C580 1.384 . S
C579 C581 1.479 . S
C579 H597 0.929 . S
C580 C577 1.424 . S
C580 C579 1.384 . S
C580 H598 0.928 . S
C581 C578 1.260 . S
C581 C579 1.479 . S
C582 C577 1.245 . S
C582 C578 1.477 . S
C582 H599 0.932 . S
C583 U566 2.882 . S
C583 C577 1.428 . S
C583 O586 1.301 . S
C583 O587 1.282 . S
O584 U566 2.441 . S
O584 C570 1.249 . S
O585 U566 2.420 . S
O585 C570 1.202 . S
O586 U566 2.455 . S
O586 C583 1.301 . S
O587 U566 2.449 . S
O587 C583 1.282 . S
H588 C561 0.931 . S
H589 C563 0.929 . S
H590 C564 0.930 . S
H591 C565 0.931 . S
H592 C572 0.932 . S
H593 C573 0.930 . S
H594 C574 0.929 . S
H595 C576 0.930 . S
H596 C578 0.932 . S
H597 C579 0.929 . S
H598 C580 0.928 . S
H599 C582 0.932 . S
C600 C601 1.264 . S
C600 C605 1.479 . S
C600 C610 1.465 . S
C601 C600 1.264 . S
C601 C603 1.339 . S
C601 H628 0.931 . S
C602 C603 1.395 . S
C602 C604 1.320 . S
C603 C601 1.339 . S
C603 C602 1.395 . S
C603 H629 0.929 . S
C604 C602 1.320 . S
C604 C605 1.405 . S
C604 H630 0.930 . S
C605 C600 1.479 . S
C605 C604 1.405 . S
C605 H631 0.931 . S
U606 O607 2.437 1_556 S
U606 O608 2.458 1_545 S
U606 C609 2.984 . S
U606 C610 2.847 1_556 S
U606 C623 2.882 . S
U606 O624 2.441 1_556 S
U606 O625 2.420 1_556 S
U606 O626 2.455 . S
U606 O627 2.449 . S
O607 U606 2.437 1_554 S
O607 C609 1.329 1_554 S
O608 U606 2.458 1_565 S
O608 C609 1.286 1_565 S
C609 U606 2.984 . S
C609 O607 1.329 1_556 S
C609 O608 1.286 1_545 S
C609 C611 1.364 1_545 S
C610 C600 1.465 . S
C610 U606 2.847 1_554 S
C610 O624 1.249 . S
C610 O625 1.202 . S
C611 C609 1.364 1_565 S
C611 C613 1.408 1_556 S
C611 C616 1.342 . S
C612 C613 1.310 . S
C612 C615 1.461 1_554 S
C612 H632 0.932 . S
C613 C611 1.408 1_554 S
C613 C612 1.310 . S
C613 H633 0.930 1_565 S
C614 C615 1.474 . S
C614 C616 1.285 . S
C614 H634 0.929 . S
C615 C612 1.461 1_556 S
C615 C614 1.474 . S
C616 C611 1.342 . S
C616 C614 1.285 . S
C616 H635 0.930 . S
C617 C620 1.424 . S
C617 C622 1.245 . S
C617 C623 1.428 . S
C618 C621 1.260 . S
C618 C622 1.477 . S
C618 H636 0.932 1_545 S
C619 C620 1.384 . S
C619 C621 1.479 . S
C619 H637 0.929 . S
C620 C617 1.424 . S
C620 C619 1.384 . S
C620 H638 0.928 . S
C621 C618 1.260 . S
C621 C619 1.479 . S
C622 C617 1.245 . S
C622 C618 1.477 . S
C622 H639 0.932 1_545 S
C623 U606 2.882 . S
C623 C617 1.428 . S
C623 O626 1.301 . S
C623 O627 1.282 . S
O624 U606 2.441 1_554 S
O624 C610 1.249 . S
O625 U606 2.420 1_554 S
O625 C610 1.202 . S
O626 U606 2.455 . S
O626 C623 1.301 . S
O627 U606 2.449 . S
O627 C623 1.282 . S
H628 C601 0.931 . S
H629 C603 0.929 . S
H630 C604 0.930 . S
H631 C605 0.931 . S
H632 C612 0.932 . S
H633 C613 0.930 1_545 S
H634 C614 0.929 . S
H635 C616 0.930 . S
H636 C618 0.932 1_565 S
H637 C619 0.929 . S
H638 C620 0.928 . S
H639 C622 0.932 1_565 S
Mn640 O645 2.095 . S
Mn640 O655 2.162 . S
Mn640 O656 2.297 . S
Mn640 O664 2.385 . S
Mn640 O665 2.209 1_554 S
Mn640 O666 2.094 . S
Mn641 O646 2.121 . S
Mn641 N648 2.257 . S
Mn641 N657 2.282 . S
Mn641 O665 2.215 . S
Mn641 O667 2.117 . S
C642 O664 1.234 1_556 S
C642 O665 1.283 . S
C643 O655 1.281 . S
C643 O656 1.236 . S
C644 O666 1.240 . S
C644 O667 1.264 1_554 S
O645 Mn640 2.095 . S
O645 C654 1.250 . S
O646 Mn641 2.121 . S
O646 C654 1.258 1_556 S
C647 N648 1.326 . S
C647 C651 1.460 . S
C647 H653 0.929 . S
N648 Mn641 2.257 . S
N648 C647 1.326 . S
N648 C652 1.362 . S
C649 C650 1.258 . S
C649 C652 1.431 . S
C649 C669 1.449 . S
C650 C649 1.258 . S
C650 C651 1.477 . S
C650 H670 0.931 . S
C651 C647 1.460 . S
C651 C650 1.477 . S
C651 H671 0.930 . S
C652 N648 1.362 . S
C652 C649 1.431 . S
C652 C662 1.476 . S
H653 C647 0.929 . S
C654 O645 1.250 . S
C654 O646 1.258 1_554 S
O655 Mn640 2.162 . S
O655 C643 1.281 . S
O656 Mn640 2.297 . S
O656 C643 1.236 . S
N657 Mn641 2.282 . S
N657 C658 1.328 . S
N657 C662 1.318 . S
C658 N657 1.328 . S
C658 C659 1.457 . S
C658 H663 0.929 . S
C659 C658 1.457 . S
C659 C660 1.291 . S
C659 H672 0.931 . S
C660 C659 1.291 . S
C660 C661 1.373 . S
C660 H673 0.929 . S
C661 C660 1.373 . S
C661 C662 1.396 . S
C661 C668 1.403 . S
C662 C652 1.476 . S
C662 N657 1.318 . S
C662 C661 1.396 . S
H663 C658 0.929 . S
O664 Mn640 2.385 . S
O664 C642 1.234 1_554 S
O665 Mn640 2.209 1_556 S
O665 Mn641 2.215 . S
O665 C642 1.283 . S
O666 Mn640 2.094 . S
O666 C644 1.240 . S
O667 Mn641 2.117 . S
O667 C644 1.264 1_556 S
C668 C661 1.403 . S
C668 C669 1.399 . S
C668 H674 0.929 . S
C669 C649 1.449 . S
C669 C668 1.399 . S
C669 H675 0.930 . S
H670 C650 0.931 . S
H671 C651 0.930 . S
H672 C659 0.931 . S
H673 C660 0.929 . S
H674 C668 0.929 . S
H675 C669 0.930 . S
Mn676 O681 2.095 . S
Mn676 O691 2.162 . S
Mn676 O692 2.297 . S
Mn676 O700 2.385 . S
Mn676 O701 2.209 . S
Mn676 O702 2.094 . S
Mn677 O682 2.121 . S
Mn677 N684 2.257 . S
Mn677 N693 2.282 . S
Mn677 O701 2.215 . S
Mn677 O703 2.117 . S
C678 O700 1.234 . S
C678 O701 1.283 . S
C679 O691 1.281 . S
C679 O692 1.236 . S
C680 O702 1.240 . S
C680 O703 1.264 . S
O681 Mn676 2.095 . S
O681 C690 1.250 . S
O682 Mn677 2.121 . S
O682 C690 1.258 . S
C683 N684 1.326 . S
C683 C687 1.460 . S
C683 H689 0.929 . S
N684 Mn677 2.257 . S
N684 C683 1.326 . S
N684 C688 1.362 . S
C685 C686 1.258 . S
C685 C688 1.431 . S
C685 C705 1.449 . S
C686 C685 1.258 . S
C686 C687 1.477 . S
C686 H706 0.931 . S
C687 C683 1.460 . S
C687 C686 1.477 . S
C687 H707 0.930 . S
C688 N684 1.362 . S
C688 C685 1.431 . S
C688 C698 1.476 . S
H689 C683 0.929 . S
C690 O681 1.250 . S
C690 O682 1.258 . S
O691 Mn676 2.162 . S
O691 C679 1.281 . S
O692 Mn676 2.297 . S
O692 C679 1.236 . S
N693 Mn677 2.282 . S
N693 C694 1.328 . S
N693 C698 1.318 . S
C694 N693 1.328 . S
C694 C695 1.457 . S
C694 H699 0.929 . S
C695 C694 1.457 . S
C695 C696 1.291 . S
C695 H708 0.931 . S
C696 C695 1.291 . S
C696 C697 1.373 . S
C696 H709 0.929 . S
C697 C696 1.373 . S
C697 C698 1.396 . S
C697 C704 1.403 . S
C698 C688 1.476 . S
C698 N693 1.318 . S
C698 C697 1.396 . S
H699 C694 0.929 . S
O700 Mn676 2.385 . S
O700 C678 1.234 . S
O701 Mn676 2.209 . S
O701 Mn677 2.215 . S
O701 C678 1.283 . S
O702 Mn676 2.094 . S
O702 C680 1.240 . S
O703 Mn677 2.117 . S
O703 C680 1.264 . S
C704 C697 1.403 . S
C704 C705 1.399 . S
C704 H710 0.929 . S
C705 C685 1.449 . S
C705 C704 1.399 . S
C705 H711 0.930 . S
H706 C686 0.931 . S
H707 C687 0.930 . S
H708 C695 0.931 . S
H709 C696 0.929 . S
H710 C704 0.929 . S
H711 C705 0.930 . S
Mn712 O717 2.095 1_554 S
Mn712 O727 2.162 . S
Mn712 O728 2.297 1_554 S
Mn712 O736 2.385 . S
Mn712 O737 2.209 1_554 S
Mn712 O738 2.094 . S
Mn713 O718 2.121 . S
Mn713 N720 2.257 . S
Mn713 N729 2.282 . S
Mn713 O737 2.215 . S
Mn713 O739 2.117 1_556 S
C714 O736 1.197 1_556 S
C714 O737 1.310 . S
C715 O727 1.281 . S
C715 O728 1.236 1_554 S
C716 O738 1.240 . S
C716 O739 1.264 . S
O717 Mn712 2.095 1_556 S
O717 C726 1.250 . S
O718 Mn713 2.121 . S
O718 C726 1.258 . S
C719 N720 1.326 . S
C719 C723 1.460 . S
C719 H725 0.929 . S
N720 Mn713 2.257 . S
N720 C719 1.326 . S
N720 C724 1.362 . S
C721 C722 1.258 . S
C721 C724 1.431 . S
C721 C741 1.449 . S
C722 C721 1.258 . S
C722 C723 1.477 . S
C722 H742 0.931 . S
C723 C719 1.460 . S
C723 C722 1.477 . S
C723 H743 0.930 . S
C724 N720 1.362 . S
C724 C721 1.431 . S
C724 C734 1.476 . S
H725 C719 0.929 . S
C726 O717 1.250 . S
C726 O718 1.258 . S
O727 Mn712 2.162 . S
O727 C715 1.281 . S
O728 Mn712 2.297 1_556 S
O728 C715 1.236 1_556 S
N729 Mn713 2.282 . S
N729 C730 1.328 1_556 S
N729 C734 1.318 . S
C730 N729 1.328 1_554 S
C730 C731 1.457 . S
C730 H735 0.929 . S
C731 C730 1.457 . S
C731 C732 1.291 . S
C731 H744 0.931 . S
C732 C731 1.291 . S
C732 C733 1.373 1_554 S
C732 H745 0.929 . S
C733 C732 1.373 1_556 S
C733 C734 1.396 . S
C733 C740 1.403 . S
C734 C724 1.476 . S
C734 N729 1.318 . S
C734 C733 1.396 . S
H735 C730 0.929 . S
O736 Mn712 2.385 . S
O736 C714 1.197 1_554 S
O737 Mn712 2.209 1_556 S
O737 Mn713 2.215 . S
O737 C714 1.310 . S
O738 Mn712 2.094 . S
O738 C716 1.240 . S
O739 Mn713 2.117 1_554 S
O739 C716 1.264 . S
C740 C733 1.403 . S
C740 C741 1.399 . S
C740 H746 0.929 . S
C741 C721 1.449 . S
C741 C740 1.399 . S
C741 H747 0.930 . S
H742 C722 0.931 . S
H743 C723 0.930 . S
H744 C731 0.931 . S
H745 C732 0.929 . S
H746 C740 0.929 . S
H747 C741 0.930 . S
Mn748 O753 2.095 . S
Mn748 O763 2.162 . S
Mn748 O764 2.297 . S
Mn748 O772 2.385 1_545 S
Mn748 O773 2.209 1_545 S
Mn748 O774 2.094 . S
Mn749 O754 2.121 . S
Mn749 N756 2.257 . S
Mn749 N765 2.282 . S
Mn749 O773 2.215 . S
Mn749 O775 2.117 . S
C750 O772 1.234 . S
C750 O773 1.283 . S
C751 O763 1.281 . S
C751 O764 1.236 . S
C752 O774 1.240 . S
C752 O775 1.264 1_545 S
O753 Mn748 2.095 . S
O753 C762 1.250 1_545 S
O754 Mn749 2.121 . S
O754 C762 1.258 . S
C755 N756 1.326 . S
C755 C759 1.460 . S
C755 H761 0.929 . S
N756 Mn749 2.257 . S
N756 C755 1.326 . S
N756 C760 1.362 . S
C757 C758 1.258 . S
C757 C760 1.431 . S
C757 C777 1.449 . S
C758 C757 1.258 . S
C758 C759 1.477 . S
C758 H778 0.931 . S
C759 C755 1.460 . S
C759 C758 1.477 . S
C759 H779 0.930 . S
C760 N756 1.362 . S
C760 C757 1.431 . S
C760 C770 1.476 . S
H761 C755 0.929 . S
C762 O753 1.250 1_565 S
C762 O754 1.258 . S
O763 Mn748 2.162 . S
O763 C751 1.281 . S
O764 Mn748 2.297 . S
O764 C751 1.236 . S
N765 Mn749 2.282 . S
N765 C766 1.328 . S
N765 C770 1.318 . S
C766 N765 1.328 . S
C766 C767 1.457 . S
C766 H771 0.929 . S
C767 C766 1.457 . S
C767 C768 1.291 . S
C767 H780 0.931 . S
C768 C767 1.291 . S
C768 C769 1.373 . S
C768 H781 0.929 . S
C769 C768 1.373 . S
C769 C770 1.396 . S
C769 C776 1.403 . S
C770 C760 1.476 . S
C770 N765 1.318 . S
C770 C769 1.396 . S
H771 C766 0.929 . S
O772 Mn748 2.385 1_565 S
O772 C750 1.234 . S
O773 Mn748 2.209 1_565 S
O773 Mn749 2.215 . S
O773 C750 1.283 . S
O774 Mn748 2.094 . S
O774 C752 1.240 . S
O775 Mn749 2.117 . S
O775 C752 1.264 1_565 S
C776 C769 1.403 . S
C776 C777 1.399 . S
C776 H782 0.929 . S
C777 C757 1.449 . S
C777 C776 1.399 . S
C777 H783 0.930 . S
H778 C758 0.931 . S
H779 C759 0.930 . S
H780 C767 0.931 . S
H781 C768 0.929 . S
H782 C776 0.929 . S
H783 C777 0.930 . S
Mn784 O789 2.095 . S
Mn784 O799 2.162 . S
Mn784 O800 2.297 . S
Mn784 O808 2.385 . S
Mn784 O809 2.209 . S
Mn784 O810 2.094 . S
Mn785 O790 2.121 . S
Mn785 N792 2.257 . S
Mn785 N801 2.282 . S
Mn785 O809 2.215 . S
Mn785 O811 2.117 . S
C786 O808 1.234 . S
C786 O809 1.283 . S
C787 O799 1.281 . S
C787 O800 1.236 . S
C788 O810 1.240 . S
C788 O811 1.264 . S
O789 Mn784 2.095 . S
O789 C798 1.250 . S
O790 Mn785 2.121 . S
O790 C798 1.258 . S
C791 N792 1.326 . S
C791 C795 1.460 . S
C791 H797 0.929 . S
N792 Mn785 2.257 . S
N792 C791 1.326 . S
N792 C796 1.362 . S
C793 C794 1.258 . S
C793 C796 1.431 . S
C793 C813 1.449 . S
C794 C793 1.258 . S
C794 C795 1.477 . S
C794 H814 0.931 . S
C795 C791 1.460 . S
C795 C794 1.477 . S
C795 H815 0.930 . S
C796 N792 1.362 . S
C796 C793 1.431 . S
C796 C806 1.476 . S
H797 C791 0.929 . S
C798 O789 1.250 . S
C798 O790 1.258 . S
O799 Mn784 2.162 . S
O799 C787 1.281 . S
O800 Mn784 2.297 . S
O800 C787 1.236 . S
N801 Mn785 2.282 . S
N801 C802 1.328 . S
N801 C806 1.318 . S
C802 N801 1.328 . S
C802 C803 1.457 . S
C802 H807 0.929 . S
C803 C802 1.457 . S
C803 C804 1.291 . S
C803 H816 0.931 . S
C804 C803 1.291 . S
C804 C805 1.373 . S
C804 H817 0.929 . S
C805 C804 1.373 . S
C805 C806 1.396 . S
C805 C812 1.403 . S
C806 C796 1.476 . S
C806 N801 1.318 . S
C806 C805 1.396 . S
H807 C802 0.929 . S
O808 Mn784 2.385 . S
O808 C786 1.234 . S
O809 Mn784 2.209 . S
O809 Mn785 2.215 . S
O809 C786 1.283 . S
O810 Mn784 2.094 . S
O810 C788 1.240 . S
O811 Mn785 2.117 . S
O811 C788 1.264 . S
C812 C805 1.403 . S
C812 C813 1.399 . S
C812 H818 0.929 . S
C813 C793 1.449 . S
C813 C812 1.399 . S
C813 H819 0.930 . S
H814 C794 0.931 . S
H815 C795 0.930 . S
H816 C803 0.931 . S
H817 C804 0.929 . S
H818 C812 0.929 . S
H819 C813 0.930 . S
Mn820 O825 2.095 . S
Mn820 O835 2.162 . S
Mn820 O836 2.297 . S
Mn820 O844 2.385 . S
Mn820 O845 2.209 . S
Mn820 O846 2.094 . S
Mn821 O826 2.121 . S
Mn821 N828 2.257 . S
Mn821 N837 2.282 . S
Mn821 O845 2.215 . S
Mn821 O847 2.117 . S
C822 O844 1.234 . S
C822 O845 1.283 . S
C823 O835 1.281 . S
C823 O836 1.236 . S
C824 O846 1.240 . S
C824 O847 1.264 . S
O825 Mn820 2.095 . S
O825 C834 1.250 . S
O826 Mn821 2.121 . S
O826 C834 1.258 . S
C827 N828 1.326 . S
C827 C831 1.460 . S
C827 H833 0.929 . S
N828 Mn821 2.257 . S
N828 C827 1.326 . S
N828 C832 1.362 . S
C829 C830 1.258 . S
C829 C832 1.431 . S
C829 C849 1.449 . S
C830 C829 1.258 . S
C830 C831 1.477 . S
C830 H850 0.931 . S
C831 C827 1.460 . S
C831 C830 1.477 . S
C831 H851 0.930 . S
C832 N828 1.362 . S
C832 C829 1.431 . S
C832 C842 1.476 . S
H833 C827 0.929 . S
C834 O825 1.250 . S
C834 O826 1.258 . S
O835 Mn820 2.162 . S
O835 C823 1.281 . S
O836 Mn820 2.297 . S
O836 C823 1.236 . S
N837 Mn821 2.282 . S
N837 C838 1.328 . S
N837 C842 1.318 . S
C838 N837 1.328 . S
C838 C839 1.457 . S
C838 H843 0.929 . S
C839 C838 1.457 . S
C839 C840 1.291 . S
C839 H852 0.931 . S
C840 C839 1.291 . S
C840 C841 1.373 . S
C840 H853 0.929 . S
C841 C840 1.373 . S
C841 C842 1.396 . S
C841 C848 1.403 . S
C842 C832 1.476 . S
C842 N837 1.318 . S
C842 C841 1.396 . S
H843 C838 0.929 . S
O844 Mn820 2.385 . S
O844 C822 1.234 . S
O845 Mn820 2.209 . S
O845 Mn821 2.215 . S
O845 C822 1.283 . S
O846 Mn820 2.094 . S
O846 C824 1.240 . S
O847 Mn821 2.117 . S
O847 C824 1.264 . S
C848 C841 1.403 . S
C848 C849 1.399 . S
C848 H854 0.929 . S
C849 C829 1.449 . S
C849 C848 1.399 . S
C849 H855 0.930 . S
H850 C830 0.931 . S
H851 C831 0.930 . S
H852 C839 0.931 . S
H853 C840 0.929 . S
H854 C848 0.929 . S
H855 C849 0.930 . S
Mn856 O861 2.095 . S
Mn856 O871 2.162 . S
Mn856 O872 2.297 . S
Mn856 O880 2.385 . S
Mn856 O881 2.209 . S
Mn856 O882 2.094 . S
Mn857 O862 2.121 . S
Mn857 N864 2.257 . S
Mn857 N873 2.282 . S
Mn857 O881 2.215 . S
Mn857 O883 2.117 . S
C858 O880 1.234 . S
C858 O881 1.283 . S
C859 O871 1.281 . S
C859 O872 1.236 . S
C860 O882 1.240 . S
C860 O883 1.264 . S
O861 Mn856 2.095 . S
O861 C870 1.250 . S
O862 Mn857 2.121 . S
O862 C870 1.258 . S
C863 N864 1.326 . S
C863 C867 1.460 . S
C863 H869 0.929 . S
N864 Mn857 2.257 . S
N864 C863 1.326 . S
N864 C868 1.362 . S
C865 C866 1.258 . S
C865 C868 1.431 . S
C865 C885 1.449 . S
C866 C865 1.258 . S
C866 C867 1.477 . S
C866 H886 0.931 . S
C867 C863 1.460 . S
C867 C866 1.477 . S
C867 H887 0.930 . S
C868 N864 1.362 . S
C868 C865 1.431 . S
C868 C878 1.476 . S
H869 C863 0.929 . S
C870 O861 1.250 . S
C870 O862 1.258 . S
O871 Mn856 2.162 . S
O871 C859 1.281 . S
O872 Mn856 2.297 . S
O872 C859 1.236 . S
N873 Mn857 2.282 . S
N873 C874 1.328 . S
N873 C878 1.318 . S
C874 N873 1.328 . S
C874 C875 1.457 . S
C874 H879 0.929 . S
C875 C874 1.457 . S
C875 C876 1.291 . S
C875 H888 0.931 . S
C876 C875 1.291 . S
C876 C877 1.373 . S
C876 H889 0.929 . S
C877 C876 1.373 . S
C877 C878 1.396 . S
C877 C884 1.403 . S
C878 C868 1.476 . S
C878 N873 1.318 . S
C878 C877 1.396 . S
H879 C874 0.929 . S
O880 Mn856 2.385 . S
O880 C858 1.234 . S
O881 Mn856 2.209 . S
O881 Mn857 2.215 . S
O881 C858 1.283 . S
O882 Mn856 2.094 . S
O882 C860 1.240 . S
O883 Mn857 2.117 . S
O883 C860 1.264 . S
C884 C877 1.403 . S
C884 C885 1.399 . S
C884 H890 0.929 . S
C885 C865 1.449 . S
C885 C884 1.399 . S
C885 H891 0.930 . S
H886 C866 0.931 . S
H887 C867 0.930 . S
H888 C875 0.931 . S
H889 C876 0.929 . S
H890 C884 0.929 . S
H891 C885 0.930 . S
Mn892 O897 2.095 . S
Mn892 O907 2.162 . S
Mn892 O908 2.297 . S
Mn892 O916 2.385 1_565 S
Mn892 O917 2.209 1_565 S
Mn892 O918 2.094 . S
Mn893 O898 2.121 . S
Mn893 N900 2.257 . S
Mn893 N909 2.282 . S
Mn893 O917 2.215 . S
Mn893 O919 2.117 . S
C894 O916 1.234 . S
C894 O917 1.283 . S
C895 O907 1.281 . S
C895 O908 1.236 . S
C896 O918 1.221 1_545 S
C896 O919 1.289 . S
O897 Mn892 2.095 . S
O897 C906 1.250 1_565 S
O898 Mn893 2.121 . S
O898 C906 1.258 . S
C899 N900 1.326 . S
C899 C903 1.460 . S
C899 H905 0.929 . S
N900 Mn893 2.257 . S
N900 C899 1.326 . S
N900 C904 1.362 . S
C901 C902 1.258 . S
C901 C904 1.431 . S
C901 C921 1.449 . S
C902 C901 1.258 . S
C902 C903 1.477 . S
C902 H922 0.931 . S
C903 C899 1.460 . S
C903 C902 1.477 . S
C903 H923 0.930 . S
C904 N900 1.362 . S
C904 C901 1.431 . S
C904 C914 1.476 . S
H905 C899 0.929 . S
C906 O897 1.250 1_545 S
C906 O898 1.258 . S
O907 Mn892 2.162 . S
O907 C895 1.281 . S
O908 Mn892 2.297 . S
O908 C895 1.236 . S
N909 Mn893 2.282 . S
N909 C910 1.328 . S
N909 C914 1.318 . S
C910 N909 1.328 . S
C910 C911 1.457 . S
C910 H915 0.929 . S
C911 C910 1.457 . S
C911 C912 1.291 . S
C911 H924 0.931 . S
C912 C911 1.291 . S
C912 C913 1.373 . S
C912 H925 0.929 . S
C913 C912 1.373 . S
C913 C914 1.396 . S
C913 C920 1.403 . S
C914 C904 1.476 . S
C914 N909 1.318 . S
C914 C913 1.396 . S
H915 C910 0.929 . S
O916 Mn892 2.385 1_545 S
O916 C894 1.234 . S
O917 Mn892 2.209 1_545 S
O917 Mn893 2.215 . S
O917 C894 1.283 . S
O918 Mn892 2.094 . S
O918 C896 1.221 1_565 S
O919 Mn893 2.117 . S
O919 C896 1.289 . S
C920 C913 1.403 . S
C920 C921 1.399 . S
C920 H926 0.929 . S
C921 C901 1.449 . S
C921 C920 1.399 . S
C921 H927 0.930 . S
H922 C902 0.931 . S
H923 C903 0.930 . S
H924 C911 0.931 . S
H925 C912 0.929 . S
H926 C920 0.929 . S
H927 C921 0.930 . S
Mn928 O933 2.095 . S
Mn928 O943 2.162 . S
Mn928 O944 2.297 . S
Mn928 O952 2.385 1_455 S
Mn928 O953 2.209 1_455 S
Mn928 O954 2.094 . S
Mn929 O934 2.121 . S
Mn929 N936 2.257 . S
Mn929 N945 2.282 . S
Mn929 O953 2.215 . S
Mn929 O955 2.117 . S
C930 O952 1.234 . S
C930 O953 1.283 . S
C931 O943 1.281 . S
C931 O944 1.236 . S
C932 O954 1.240 . S
C932 O955 1.264 1_455 S
O933 Mn928 2.095 . S
O933 C942 1.250 1_455 S
O934 Mn929 2.121 . S
O934 C942 1.258 . S
C935 N936 1.326 . S
C935 C939 1.460 . S
C935 H941 0.929 . S
N936 Mn929 2.257 . S
N936 C935 1.326 . S
N936 C940 1.362 . S
C937 C938 1.258 . S
C937 C940 1.431 . S
C937 C957 1.449 . S
C938 C937 1.258 . S
C938 C939 1.477 . S
C938 H958 0.931 . S
C939 C935 1.460 . S
C939 C938 1.477 . S
C939 H959 0.930 . S
C940 N936 1.362 . S
C940 C937 1.431 . S
C940 C950 1.476 . S
H941 C935 0.929 . S
C942 O933 1.250 1_655 S
C942 O934 1.258 . S
O943 Mn928 2.162 . S
O943 C931 1.281 . S
O944 Mn928 2.297 . S
O944 C931 1.236 . S
N945 Mn929 2.282 . S
N945 C946 1.328 . S
N945 C950 1.318 . S
C946 N945 1.328 . S
C946 C947 1.457 . S
C946 H951 0.929 . S
C947 C946 1.457 . S
C947 C948 1.291 . S
C947 H960 0.931 . S
C948 C947 1.291 . S
C948 C949 1.373 . S
C948 H961 0.929 . S
C949 C948 1.373 . S
C949 C950 1.396 . S
C949 C956 1.403 . S
C950 C940 1.476 . S
C950 N945 1.318 . S
C950 C949 1.396 . S
H951 C946 0.929 . S
O952 Mn928 2.385 1_655 S
O952 C930 1.234 . S
O953 Mn928 2.209 1_655 S
O953 Mn929 2.215 . S
O953 C930 1.283 . S
O954 Mn928 2.094 . S
O954 C932 1.240 . S
O955 Mn929 2.117 . S
O955 C932 1.264 1_655 S
C956 C949 1.403 . S
C956 C957 1.399 . S
C956 H962 0.929 . S
C957 C937 1.449 . S
C957 C956 1.399 . S
C957 H963 0.930 . S
H958 C938 0.931 . S
H959 C939 0.930 . S
H960 C947 0.931 . S
H961 C948 0.929 . S
H962 C956 0.929 . S
H963 C957 0.930 . S
Mn964 O969 2.095 . S
Mn964 O979 2.162 . S
Mn964 O980 2.297 . S
Mn964 O988 2.385 . S
Mn964 O989 2.209 . S
Mn964 O990 2.094 . S
Mn965 O970 2.121 . S
Mn965 N972 2.257 . S
Mn965 N981 2.282 . S
Mn965 O989 2.215 . S
Mn965 O991 2.117 . S
C966 O988 1.234 . S
C966 O989 1.283 . S
C967 O979 1.281 . S
C967 O980 1.236 . S
C968 O990 1.240 . S
C968 O991 1.264 . S
O969 Mn964 2.095 . S
O969 C978 1.250 . S
O970 Mn965 2.121 . S
O970 C978 1.258 . S
C971 N972 1.326 . S
C971 C975 1.460 . S
C971 H977 0.929 . S
N972 Mn965 2.257 . S
N972 C971 1.326 . S
N972 C976 1.362 . S
C973 C974 1.258 . S
C973 C976 1.431 . S
C973 C993 1.449 . S
C974 C973 1.258 . S
C974 C975 1.477 . S
C974 H994 0.931 . S
C975 C971 1.460 . S
C975 C974 1.477 . S
C975 H995 0.930 . S
C976 N972 1.362 . S
C976 C973 1.431 . S
C976 C986 1.476 . S
H977 C971 0.929 . S
C978 O969 1.250 . S
C978 O970 1.258 . S
O979 Mn964 2.162 . S
O979 C967 1.281 . S
O980 Mn964 2.297 . S
O980 C967 1.236 . S
N981 Mn965 2.282 . S
N981 C982 1.328 . S
N981 C986 1.318 . S
C982 N981 1.328 . S
C982 C983 1.457 . S
C982 H987 0.929 . S
C983 C982 1.457 . S
C983 C984 1.291 . S
C983 H996 0.931 . S
C984 C983 1.291 . S
C984 C985 1.373 . S
C984 H997 0.929 . S
C985 C984 1.373 . S
C985 C986 1.396 . S
C985 C992 1.403 . S
C986 C976 1.476 . S
C986 N981 1.318 . S
C986 C985 1.396 . S
H987 C982 0.929 . S
O988 Mn964 2.385 . S
O988 C966 1.234 . S
O989 Mn964 2.209 . S
O989 Mn965 2.215 . S
O989 C966 1.283 . S
O990 Mn964 2.094 . S
O990 C968 1.240 . S
O991 Mn965 2.117 . S
O991 C968 1.264 . S
C992 C985 1.403 . S
C992 C993 1.399 . S
C992 H998 0.929 . S
C993 C973 1.449 . S
C993 C992 1.399 . S
C993 H999 0.930 . S
H994 C974 0.931 . S
H995 C975 0.930 . S
H996 C983 0.931 . S
H997 C984 0.929 . S
H998 C992 0.929 . S
H999 C993 0.930 . S
Mn1000 O1005 2.095 1_455 S
Mn1000 O1015 2.162 . S
Mn1000 O1016 2.297 1_455 S
Mn1000 O1024 2.385 . S
Mn1000 O1025 2.209 1_455 S
Mn1000 O1026 2.094 . S
Mn1001 O1006 2.121 . S
Mn1001 N1008 2.257 . S
Mn1001 N1017 2.282 1_655 S
Mn1001 O1025 2.215 . S
Mn1001 O1027 2.117 1_655 S
C1002 O1024 1.234 . S
C1002 O1025 1.283 1_455 S
C1003 O1015 1.281 . S
C1003 O1016 1.236 1_455 S
C1004 O1026 1.240 . S
C1004 O1027 1.264 . S
O1005 Mn1000 2.095 1_655 S
O1005 C1014 1.250 . S
O1006 Mn1001 2.121 . S
O1006 C1014 1.258 . S
C1007 N1008 1.326 . S
C1007 C1011 1.460 . S
C1007 H1013 0.929 . S
N1008 Mn1001 2.257 . S
N1008 C1007 1.326 . S
N1008 C1012 1.362 . S
C1009 C1010 1.258 . S
C1009 C1012 1.431 . S
C1009 C1029 1.449 . S
C1010 C1009 1.258 . S
C1010 C1011 1.477 . S
C1010 H1030 0.931 . S
C1011 C1007 1.460 . S
C1011 C1010 1.477 . S
C1011 H1031 0.930 . S
C1012 N1008 1.362 . S
C1012 C1009 1.431 . S
C1012 C1022 1.476 . S
H1013 C1007 0.929 . S
C1014 O1005 1.250 . S
C1014 O1006 1.258 . S
O1015 Mn1000 2.162 . S
O1015 C1003 1.281 . S
O1016 Mn1000 2.297 1_655 S
O1016 C1003 1.236 1_655 S
N1017 Mn1001 2.282 1_455 S
N1017 C1018 1.328 . S
N1017 C1022 1.318 1_455 S
C1018 N1017 1.328 . S
C1018 C1019 1.457 . S
C1018 H1023 0.929 . S
C1019 C1018 1.457 . S
C1019 C1020 1.291 . S
C1019 H1032 0.931 . S
C1020 C1019 1.291 . S
C1020 C1021 1.373 1_455 S
C1020 H1033 0.929 . S
C1021 C1020 1.373 1_655 S
C1021 C1022 1.396 . S
C1021 C1028 1.403 . S
C1022 C1012 1.476 . S
C1022 N1017 1.318 1_655 S
C1022 C1021 1.396 . S
H1023 C1018 0.929 . S
O1024 Mn1000 2.385 . S
O1024 C1002 1.234 . S
O1025 Mn1000 2.209 1_655 S
O1025 Mn1001 2.215 . S
O1025 C1002 1.283 1_655 S
O1026 Mn1000 2.094 . S
O1026 C1004 1.240 . S
O1027 Mn1001 2.117 1_455 S
O1027 C1004 1.264 . S
C1028 C1021 1.403 . S
C1028 C1029 1.399 . S
C1028 H1034 0.929 . S
C1029 C1009 1.449 . S
C1029 C1028 1.399 . S
C1029 H1035 0.930 . S
H1030 C1010 0.931 . S
H1031 C1011 0.930 . S
H1032 C1019 0.931 . S
H1033 C1020 0.929 . S
H1034 C1028 0.929 . S
H1035 C1029 0.930 . S
Mn1036 O1041 2.095 . S
Mn1036 O1051 2.162 . S
Mn1036 O1052 2.297 . S
Mn1036 O1060 2.385 . S
Mn1036 O1061 2.209 . S
Mn1036 O1062 2.094 . S
Mn1037 O1042 2.121 . S
Mn1037 N1044 2.257 . S
Mn1037 N1053 2.282 . S
Mn1037 O1061 2.215 . S
Mn1037 O1063 2.117 . S
C1038 O1060 1.234 . S
C1038 O1061 1.283 . S
C1039 O1051 1.281 . S
C1039 O1052 1.236 . S
C1040 O1062 1.240 . S
C1040 O1063 1.264 . S
O1041 Mn1036 2.095 . S
O1041 C1050 1.250 . S
O1042 Mn1037 2.121 . S
O1042 C1050 1.258 . S
C1043 N1044 1.326 . S
C1043 C1047 1.460 . S
C1043 H1049 0.929 . S
N1044 Mn1037 2.257 . S
N1044 C1043 1.326 . S
N1044 C1048 1.362 . S
C1045 C1046 1.258 . S
C1045 C1048 1.431 . S
C1045 C1065 1.449 . S
C1046 C1045 1.258 . S
C1046 C1047 1.477 . S
C1046 H1066 0.931 . S
C1047 C1043 1.460 . S
C1047 C1046 1.477 . S
C1047 H1067 0.930 . S
C1048 N1044 1.362 . S
C1048 C1045 1.431 . S
C1048 C1058 1.476 . S
H1049 C1043 0.929 . S
C1050 O1041 1.250 . S
C1050 O1042 1.258 . S
O1051 Mn1036 2.162 . S
O1051 C1039 1.281 . S
O1052 Mn1036 2.297 . S
O1052 C1039 1.236 . S
N1053 Mn1037 2.282 . S
N1053 C1054 1.328 . S
N1053 C1058 1.318 . S
C1054 N1053 1.328 . S
C1054 C1055 1.457 . S
C1054 H1059 0.929 . S
C1055 C1054 1.457 . S
C1055 C1056 1.291 . S
C1055 H1068 0.931 . S
C1056 C1055 1.291 . S
C1056 C1057 1.373 . S
C1056 H1069 0.929 . S
C1057 C1056 1.373 . S
C1057 C1058 1.396 . S
C1057 C1064 1.403 . S
C1058 C1048 1.476 . S
C1058 N1053 1.318 . S
C1058 C1057 1.396 . S
H1059 C1054 0.929 . S
O1060 Mn1036 2.385 . S
O1060 C1038 1.234 . S
O1061 Mn1036 2.209 . S
O1061 Mn1037 2.215 . S
O1061 C1038 1.283 . S
O1062 Mn1036 2.094 . S
O1062 C1040 1.240 . S
O1063 Mn1037 2.117 . S
O1063 C1040 1.264 . S
C1064 C1057 1.403 . S
C1064 C1065 1.399 . S
C1064 H1070 0.929 . S
C1065 C1045 1.449 . S
C1065 C1064 1.399 . S
C1065 H1071 0.930 . S
H1066 C1046 0.931 . S
H1067 C1047 0.930 . S
H1068 C1055 0.931 . S
H1069 C1056 0.929 . S
H1070 C1064 0.929 . S
H1071 C1065 0.930 . S
C1072 C1073 1.387 . S
C1072 H1076 0.950 . S
C1072 C1081 1.390 . S
C1073 C1072 1.387 . S
C1073 C1075 1.387 . S
H1074 C1081 0.950 . S
C1075 C1073 1.387 . S
C1075 C1077 1.390 . S
C1075 H1079 0.950 . S
H1076 C1072 0.950 . S
C1077 C1075 1.390 . S
C1077 C1078 1.387 . S
C1077 H1080 0.950 . S
C1078 C1077 1.387 . S
C1078 C1081 1.387 . S
H1079 C1075 0.950 . S
H1080 C1077 0.950 . S
C1081 C1072 1.390 . S
C1081 H1074 0.950 . S
C1081 C1078 1.387 . S
C1082 C1083 1.387 . S
C1082 H1086 0.950 . S
C1082 C1091 1.390 . S
C1083 C1082 1.387 . S
C1083 C1085 1.387 . S
H1084 C1091 0.950 . S
C1085 C1083 1.387 . S
C1085 C1087 1.390 . S
C1085 H1089 0.950 . S
H1086 C1082 0.950 . S
C1087 C1085 1.390 . S
C1087 C1088 1.387 . S
C1087 H1090 0.950 . S
C1088 C1087 1.387 . S
C1088 C1091 1.387 . S
H1089 C1085 0.950 . S
H1090 C1087 0.950 . S
C1091 C1082 1.390 . S
C1091 H1084 0.950 . S
C1091 C1088 1.387 . S
C1092 C1093 1.387 . S
C1092 H1096 0.950 . S
C1092 C1101 1.390 . S
C1093 C1092 1.387 . S
C1093 C1095 1.387 . S
H1094 C1101 0.950 . S
C1095 C1093 1.387 . S
C1095 C1097 1.390 . S
C1095 H1099 0.950 . S
H1096 C1092 0.950 . S
C1097 C1095 1.390 . S
C1097 C1098 1.387 . S
C1097 H1100 0.950 . S
C1098 C1097 1.387 . S
C1098 C1101 1.387 . S
H1099 C1095 0.950 . S
H1100 C1097 0.950 . S
C1101 C1092 1.390 . S
C1101 H1094 0.950 . S
C1101 C1098 1.387 . S
C1102 C1103 1.387 1_545 S
C1102 H1106 0.950 . S
C1102 C1111 1.390 . S
C1103 C1102 1.387 1_565 S
C1103 C1105 1.387 . S
H1104 C1111 0.950 . S
C1105 C1103 1.387 . S
C1105 C1107 1.390 . S
C1105 H1109 0.950 . S
H1106 C1102 0.950 . S
C1107 C1105 1.390 . S
C1107 C1108 1.375 1_565 S
C1107 H1110 0.950 . S
C1108 C1107 1.375 1_545 S
C1108 C1111 1.398 . S
H1109 C1105 0.950 . S
H1110 C1107 0.950 . S
C1111 C1102 1.390 . S
C1111 H1104 0.950 . S
C1111 C1108 1.398 . S
C1112 C1113 1.387 . S
C1112 H1116 0.950 . S
C1112 C1121 1.390 . S
C1113 C1112 1.387 . S
C1113 C1115 1.387 . S
H1114 C1121 0.950 . S
C1115 C1113 1.387 . S
C1115 C1117 1.390 . S
C1115 H1119 0.950 . S
H1116 C1112 0.950 . S
C1117 C1115 1.390 . S
C1117 C1118 1.387 . S
C1117 H1120 0.950 . S
C1118 C1117 1.387 . S
C1118 C1121 1.387 . S
H1119 C1115 0.950 . S
H1120 C1117 0.950 . S
C1121 C1112 1.390 . S
C1121 H1114 0.950 . S
C1121 C1118 1.387 . S
C1122 C1123 1.387 . S
C1122 H1126 0.950 . S
C1122 C1131 1.390 . S
C1123 C1122 1.387 . S
C1123 C1125 1.387 . S
H1124 C1131 0.950 . S
C1125 C1123 1.387 . S
C1125 C1127 1.390 . S
C1125 H1129 0.950 . S
H1126 C1122 0.950 . S
C1127 C1125 1.390 . S
C1127 C1128 1.387 . S
C1127 H1130 0.950 . S
C1128 C1127 1.387 . S
C1128 C1131 1.387 . S
H1129 C1125 0.950 . S
H1130 C1127 0.950 . S
C1131 C1122 1.390 . S
C1131 H1124 0.950 . S
C1131 C1128 1.387 . S
C1132 C1133 1.387 . S
C1132 H1136 0.950 . S
C1132 C1141 1.390 . S
C1133 C1132 1.387 . S
C1133 C1135 1.387 . S
H1134 C1141 0.950 . S
C1135 C1133 1.387 . S
C1135 C1137 1.390 . S
C1135 H1139 0.950 . S
H1136 C1132 0.950 . S
C1137 C1135 1.390 . S
C1137 C1138 1.387 . S
C1137 H1140 0.950 . S
C1138 C1137 1.387 . S
C1138 C1141 1.387 . S
H1139 C1135 0.950 . S
H1140 C1137 0.950 . S
C1141 C1132 1.390 . S
C1141 H1134 0.950 . S
C1141 C1138 1.387 . S
C1142 C1143 1.387 1_545 S
C1142 H1146 0.950 . S
C1142 C1151 1.390 . S
C1143 C1142 1.387 1_565 S
C1143 C1145 1.387 . S
H1144 C1151 0.950 . S
C1145 C1143 1.387 . S
C1145 C1147 1.390 . S
C1145 H1149 0.950 . S
H1146 C1142 0.950 . S
C1147 C1145 1.390 . S
C1147 C1148 1.387 . S
C1147 H1150 0.950 . S
C1148 C1147 1.387 . S
C1148 C1151 1.387 1_565 S
H1149 C1145 0.950 . S
H1150 C1147 0.950 . S
C1151 C1142 1.390 . S
C1151 H1144 0.950 . S
C1151 C1148 1.387 1_545 S
C1152 C1153 1.387 . S
C1152 H1156 0.950 . S
C1152 C1161 1.390 . S
C1153 C1152 1.387 . S
C1153 C1155 1.387 . S
H1154 C1161 0.950 . S
C1155 C1153 1.387 . S
C1155 C1157 1.390 . S
C1155 H1159 0.950 . S
H1156 C1152 0.950 . S
C1157 C1155 1.390 . S
C1157 C1158 1.387 . S
C1157 H1160 0.950 . S
C1158 C1157 1.387 . S
C1158 C1161 1.387 . S
H1159 C1155 0.950 . S
H1160 C1157 0.950 . S
C1161 C1152 1.390 . S
C1161 H1154 0.950 . S
C1161 C1158 1.387 . S
C1162 C1163 1.387 . S
C1162 H1166 0.950 . S
C1162 C1171 1.390 . S
C1163 C1162 1.387 . S
C1163 C1165 1.387 . S
H1164 C1171 0.950 . S
C1165 C1163 1.387 . S
C1165 C1167 1.390 . S
C1165 H1169 0.950 . S
H1166 C1162 0.950 . S
C1167 C1165 1.390 . S
C1167 C1168 1.387 . S
C1167 H1170 0.950 . S
C1168 C1167 1.387 . S
C1168 C1171 1.387 . S
H1169 C1165 0.950 . S
H1170 C1167 0.950 . S
C1171 C1162 1.390 . S
C1171 H1164 0.950 . S
C1171 C1168 1.387 . S
C1172 C1173 1.387 . S
C1172 H1176 0.950 . S
C1172 C1181 1.390 . S
C1173 C1172 1.387 . S
C1173 C1175 1.387 . S
H1174 C1181 0.950 . S
C1175 C1173 1.387 . S
C1175 C1177 1.390 . S
C1175 H1179 0.950 . S
H1176 C1172 0.950 . S
C1177 C1175 1.390 . S
C1177 C1178 1.387 . S
C1177 H1180 0.950 . S
C1178 C1177 1.387 . S
C1178 C1181 1.387 . S
H1179 C1175 0.950 . S
H1180 C1177 0.950 . S
C1181 C1172 1.390 . S
C1181 H1174 0.950 . S
C1181 C1178 1.387 . S
C1182 C1183 1.387 . S
C1182 H1186 0.950 . S
C1182 C1191 1.390 . S
C1183 C1182 1.387 . S
C1183 C1185 1.387 . S
H1184 C1191 0.950 . S
C1185 C1183 1.387 . S
C1185 C1187 1.390 . S
C1185 H1189 0.950 . S
H1186 C1182 0.950 . S
C1187 C1185 1.390 . S
C1187 C1188 1.387 . S
C1187 H1190 0.950 . S
C1188 C1187 1.387 . S
C1188 C1191 1.387 . S
H1189 C1185 0.950 . S
H1190 C1187 0.950 . S
C1191 C1182 1.390 . S
C1191 H1184 0.950 . S
C1191 C1188 1.387 . S
C1192 C1193 1.387 . S
C1192 H1196 0.950 . S
C1192 C1201 1.390 . S
C1193 C1192 1.387 . S
C1193 C1195 1.387 . S
H1194 C1201 0.950 . S
C1195 C1193 1.387 . S
C1195 C1197 1.390 . S
C1195 H1199 0.950 . S
H1196 C1192 0.950 . S
C1197 C1195 1.390 . S
C1197 C1198 1.387 . S
C1197 H1200 0.950 . S
C1198 C1197 1.387 . S
C1198 C1201 1.387 . S
H1199 C1195 0.950 . S
H1200 C1197 0.950 . S
C1201 C1192 1.390 . S
C1201 H1194 0.950 . S
C1201 C1198 1.387 . S
C1202 C1203 1.387 . S
C1202 H1206 0.950 . S
C1202 C1211 1.390 . S
C1203 C1202 1.387 . S
C1203 C1205 1.387 1_455 S
H1204 C1211 0.950 . S
C1205 C1203 1.387 1_655 S
C1205 C1207 1.390 . S
C1205 H1209 0.950 . S
H1206 C1202 0.950 . S
C1207 C1205 1.390 . S
C1207 C1208 1.387 1_655 S
C1207 H1210 0.950 . S
C1208 C1207 1.387 1_455 S
C1208 C1211 1.387 . S
H1209 C1205 0.950 . S
H1210 C1207 0.950 . S
C1211 C1202 1.390 . S
C1211 H1204 0.950 . S
C1211 C1208 1.387 . S
C1212 C1213 1.387 . S
C1212 H1216 0.950 . S
C1212 C1221 1.390 . S
C1213 C1212 1.387 . S
C1213 C1215 1.387 . S
H1214 C1221 0.950 . S
C1215 C1213 1.387 . S
C1215 C1217 1.390 . S
C1215 H1219 0.950 . S
H1216 C1212 0.950 . S
C1217 C1215 1.390 . S
C1217 C1218 1.387 . S
C1217 H1220 0.950 . S
C1218 C1217 1.387 . S
C1218 C1221 1.387 . S
H1219 C1215 0.950 . S
H1220 C1217 0.950 . S
C1221 C1212 1.390 . S
C1221 H1214 0.950 . S
C1221 C1218 1.387 . S
C1222 C1223 1.390 1_655 S
C1222 H1226 0.950 . S
C1222 C1231 1.390 . S
C1223 C1222 1.390 1_455 S
C1223 C1225 1.384 . S
H1224 C1231 0.950 . S
C1225 C1223 1.384 . S
C1225 C1227 1.390 . S
C1225 H1229 0.950 . S
H1226 C1222 0.950 . S
C1227 C1225 1.390 . S
C1227 C1228 1.387 . S
C1227 H1230 0.950 . S
C1228 C1227 1.387 . S
C1228 C1231 1.387 1_455 S
H1229 C1225 0.950 . S
H1230 C1227 0.950 . S
C1231 C1222 1.390 . S
C1231 H1224 0.950 . S
C1231 C1228 1.387 1_655 S
C1232 C1233 1.387 . S
C1232 H1236 0.950 . S
C1232 C1241 1.390 . S
C1233 C1232 1.387 . S
C1233 C1235 1.387 . S
H1234 C1241 0.950 . S
C1235 C1233 1.387 . S
C1235 C1237 1.390 . S
C1235 H1239 0.950 . S
H1236 C1232 0.950 . S
C1237 C1235 1.390 . S
C1237 C1238 1.387 . S
C1237 H1240 0.950 . S
C1238 C1237 1.387 . S
C1238 C1241 1.387 . S
H1239 C1235 0.950 . S
H1240 C1237 0.950 . S
C1241 C1232 1.390 . S
C1241 H1234 0.950 . S
C1241 C1238 1.387 . S
C1242 C1243 1.387 . S
C1242 H1246 0.950 . S
C1242 C1251 1.390 . S
C1243 C1242 1.387 . S
C1243 C1245 1.387 . S
H1244 C1251 0.950 . S
C1245 C1243 1.387 . S
C1245 C1247 1.390 . S
C1245 H1249 0.950 . S
H1246 C1242 0.950 . S
C1247 C1245 1.390 . S
C1247 C1248 1.387 . S
C1247 H1250 0.950 . S
C1248 C1247 1.387 . S
C1248 C1251 1.387 . S
H1249 C1245 0.950 . S
H1250 C1247 0.950 . S
C1251 C1242 1.390 . S
C1251 H1244 0.950 . S
C1251 C1248 1.387 . S
C1252 C1253 1.387 . S
C1252 H1256 0.950 . S
C1252 C1261 1.390 . S
C1253 C1252 1.387 . S
C1253 C1255 1.387 1_556 S
H1254 C1261 0.950 . S
C1255 C1253 1.387 1_554 S
C1255 C1257 1.390 . S
C1255 H1259 0.950 . S
H1256 C1252 0.950 . S
C1257 C1255 1.390 . S
C1257 C1258 1.387 . S
C1257 H1260 0.950 . S
C1258 C1257 1.387 . S
C1258 C1261 1.387 1_554 S
H1259 C1255 0.950 . S
H1260 C1257 0.950 . S
C1261 C1252 1.390 . S
C1261 H1254 0.950 . S
C1261 C1258 1.387 1_556 S
C1262 C1263 1.387 . S
C1262 H1266 0.950 . S
C1262 C1271 1.390 . S
C1263 C1262 1.387 . S
C1263 C1265 1.387 . S
H1264 C1271 0.950 . S
C1265 C1263 1.387 . S
C1265 C1267 1.390 . S
C1265 H1269 0.950 . S
H1266 C1262 0.950 . S
C1267 C1265 1.390 . S
C1267 C1268 1.387 . S
C1267 H1270 0.950 . S
C1268 C1267 1.387 . S
C1268 C1271 1.387 . S
H1269 C1265 0.950 . S
H1270 C1267 0.950 . S
C1271 C1262 1.390 . S
C1271 H1264 0.950 . S
C1271 C1268 1.387 . S
C1272 C1273 1.387 . S
C1272 H1276 0.950 . S
C1272 C1281 1.390 . S
C1273 C1272 1.387 . S
C1273 C1275 1.387 . S
H1274 C1281 0.950 . S
C1275 C1273 1.387 . S
C1275 C1277 1.390 . S
C1275 H1279 0.950 . S
H1276 C1272 0.950 . S
C1277 C1275 1.390 . S
C1277 C1278 1.387 . S
C1277 H1280 0.950 . S
C1278 C1277 1.387 . S
C1278 C1281 1.387 . S
H1279 C1275 0.950 . S
H1280 C1277 0.950 . S
C1281 C1272 1.390 . S
C1281 H1274 0.950 . S
C1281 C1278 1.387 . S
C1282 C1283 1.387 . S
C1282 H1286 0.950 . S
C1282 C1291 1.390 . S
C1283 C1282 1.387 . S
C1283 C1285 1.387 . S
H1284 C1291 0.950 . S
C1285 C1283 1.387 . S
C1285 C1287 1.390 . S
C1285 H1289 0.950 . S
H1286 C1282 0.950 . S
C1287 C1285 1.390 . S
C1287 C1288 1.387 . S
C1287 H1290 0.950 . S
C1288 C1287 1.387 . S
C1288 C1291 1.387 . S
H1289 C1285 0.950 . S
H1290 C1287 0.950 . S
C1291 C1282 1.390 . S
C1291 H1284 0.950 . S
C1291 C1288 1.387 . S
C1292 C1293 1.387 . S
C1292 H1296 0.950 . S
C1292 C1301 1.390 . S
C1293 C1292 1.387 . S
C1293 C1295 1.387 . S
H1294 C1301 0.950 . S
C1295 C1293 1.387 . S
C1295 C1297 1.390 . S
C1295 H1299 0.950 . S
H1296 C1292 0.950 . S
C1297 C1295 1.390 . S
C1297 C1298 1.387 . S
C1297 H1300 0.950 . S
C1298 C1297 1.387 . S
C1298 C1301 1.387 . S
H1299 C1295 0.950 . S
H1300 C1297 0.950 . S
C1301 C1292 1.390 . S
C1301 H1294 0.950 . S
C1301 C1298 1.387 . S
C1302 C1303 1.387 . S
C1302 H1306 0.950 . S
C1302 C1311 1.390 . S
C1303 C1302 1.387 . S
C1303 C1305 1.387 . S
H1304 C1311 0.950 . S
C1305 C1303 1.387 . S
C1305 C1307 1.390 . S
C1305 H1309 0.950 . S
H1306 C1302 0.950 . S
C1307 C1305 1.390 . S
C1307 C1308 1.387 . S
C1307 H1310 0.950 . S
C1308 C1307 1.387 . S
C1308 C1311 1.387 . S
H1309 C1305 0.950 . S
H1310 C1307 0.950 . S
C1311 C1302 1.390 . S
C1311 H1304 0.950 . S
C1311 C1308 1.387 . S
C1312 C1313 1.387 . S
C1312 H1316 0.950 . S
C1312 C1321 1.390 . S
C1313 C1312 1.387 . S
C1313 C1315 1.387 . S
H1314 C1321 0.950 . S
C1315 C1313 1.387 . S
C1315 C1317 1.390 . S
C1315 H1319 0.950 . S
H1316 C1312 0.950 . S
C1317 C1315 1.390 . S
C1317 C1318 1.387 . S
C1317 H1320 0.950 . S
C1318 C1317 1.387 . S
C1318 C1321 1.387 . S
H1319 C1315 0.950 . S
H1320 C1317 0.950 . S
C1321 C1312 1.390 . S
C1321 H1314 0.950 . S
C1321 C1318 1.387 . S
C1322 C1323 1.387 1_565 S
C1322 H1326 0.950 . S
C1322 C1331 1.390 . S
C1323 C1322 1.387 1_545 S
C1323 C1325 1.387 . S
H1324 C1331 0.950 . S
C1325 C1323 1.387 . S
C1325 C1327 1.390 . S
C1325 H1329 0.950 . S
H1326 C1322 0.950 . S
C1327 C1325 1.390 . S
C1327 C1328 1.387 . S
C1327 H1330 0.950 . S
C1328 C1327 1.387 . S
C1328 C1331 1.387 1_545 S
H1329 C1325 0.950 . S
H1330 C1327 0.950 . S
C1331 C1322 1.390 . S
C1331 H1324 0.950 . S
C1331 C1328 1.387 1_565 S
C1332 C1333 1.387 . S
C1332 H1336 0.950 . S
C1332 C1341 1.390 . S
C1333 C1332 1.387 . S
C1333 C1335 1.387 . S
H1334 C1341 0.950 . S
C1335 C1333 1.387 . S
C1335 C1337 1.390 . S
C1335 H1339 0.950 . S
H1336 C1332 0.950 . S
C1337 C1335 1.390 . S
C1337 C1338 1.387 . S
C1337 H1340 0.950 . S
C1338 C1337 1.387 . S
C1338 C1341 1.387 . S
H1339 C1335 0.950 . S
H1340 C1337 0.950 . S
C1341 C1332 1.390 . S
C1341 H1334 0.950 . S
C1341 C1338 1.387 . S
C1342 C1343 1.387 . S
C1342 H1346 0.950 . S
C1342 C1351 1.390 . S
C1343 C1342 1.387 . S
C1343 C1345 1.387 . S
H1344 C1351 0.950 . S
C1345 C1343 1.387 . S
C1345 C1347 1.390 . S
C1345 H1349 0.950 . S
H1346 C1342 0.950 . S
C1347 C1345 1.390 . S
C1347 C1348 1.387 . S
C1347 H1350 0.950 . S
C1348 C1347 1.387 . S
C1348 C1351 1.387 . S
H1349 C1345 0.950 . S
H1350 C1347 0.950 . S
C1351 C1342 1.390 . S
C1351 H1344 0.950 . S
C1351 C1348 1.387 . S
C1352 C1353 1.387 . S
C1352 H1356 0.950 . S
C1352 C1361 1.390 . S
C1353 C1352 1.387 . S
C1353 C1355 1.387 . S
H1354 C1361 0.950 . S
C1355 C1353 1.387 . S
C1355 C1357 1.390 . S
C1355 H1359 0.950 . S
H1356 C1352 0.950 . S
C1357 C1355 1.390 . S
C1357 C1358 1.387 . S
C1357 H1360 0.950 . S
C1358 C1357 1.387 . S
C1358 C1361 1.387 . S
H1359 C1355 0.950 . S
H1360 C1357 0.950 . S
C1361 C1352 1.390 . S
C1361 H1354 0.950 . S
C1361 C1358 1.387 . S
C1362 C1363 1.387 1_565 S
C1362 H1366 0.950 . S
C1362 C1371 1.390 . S
C1363 C1362 1.387 1_545 S
C1363 C1365 1.387 . S
H1364 C1371 0.950 . S
C1365 C1363 1.387 . S
C1365 C1367 1.390 . S
C1365 H1369 0.950 . S
H1366 C1362 0.950 . S
C1367 C1365 1.390 . S
C1367 C1368 1.387 . S
C1367 H1370 0.950 . S
C1368 C1367 1.387 . S
C1368 C1371 1.387 1_545 S
H1369 C1365 0.950 . S
H1370 C1367 0.950 . S
C1371 C1362 1.390 . S
C1371 H1364 0.950 . S
C1371 C1368 1.387 1_565 S
C1372 C1373 1.387 . S
C1372 H1376 0.950 . S
C1372 C1381 1.390 . S
C1373 C1372 1.387 . S
C1373 C1375 1.387 . S
H1374 C1381 0.950 . S
C1375 C1373 1.387 . S
C1375 C1377 1.390 . S
C1375 H1379 0.950 . S
H1376 C1372 0.950 . S
C1377 C1375 1.390 . S
C1377 C1378 1.387 . S
C1377 H1380 0.950 . S
C1378 C1377 1.387 . S
C1378 C1381 1.387 . S
H1379 C1375 0.950 . S
H1380 C1377 0.950 . S
C1381 C1372 1.390 . S
C1381 H1374 0.950 . S
C1381 C1378 1.387 . S
C1382 C1383 1.387 . S
C1382 H1386 0.950 . S
C1382 C1391 1.390 . S
C1383 C1382 1.387 . S
C1383 C1385 1.387 . S
H1384 C1391 0.950 . S
C1385 C1383 1.387 . S
C1385 C1387 1.390 . S
C1385 H1389 0.950 . S
H1386 C1382 0.950 . S
C1387 C1385 1.390 . S
C1387 C1388 1.387 . S
C1387 H1390 0.950 . S
C1388 C1387 1.387 . S
C1388 C1391 1.387 . S
H1389 C1385 0.950 . S
H1390 C1387 0.950 . S
C1391 C1382 1.390 . S
C1391 H1384 0.950 . S
C1391 C1388 1.387 . S
C1392 C1393 1.387 . S
C1392 H1396 0.950 . S
C1392 C1401 1.390 . S
C1393 C1392 1.387 . S
C1393 C1395 1.387 . S
H1394 C1401 0.950 . S
C1395 C1393 1.387 . S
C1395 C1397 1.390 . S
C1395 H1399 0.950 . S
H1396 C1392 0.950 . S
C1397 C1395 1.390 . S
C1397 C1398 1.387 . S
C1397 H1400 0.950 . S
C1398 C1397 1.387 . S
C1398 C1401 1.387 . S
H1399 C1395 0.950 . S
H1400 C1397 0.950 . S
C1401 C1392 1.390 . S
C1401 H1394 0.950 . S
C1401 C1398 1.387 . S
C1402 C1403 1.387 1_455 S
C1402 H1406 0.950 . S
C1402 C1411 1.390 . S
C1403 C1402 1.387 1_655 S
C1403 C1405 1.387 . S
H1404 C1411 0.950 . S
C1405 C1403 1.387 . S
C1405 C1407 1.390 . S
C1405 H1409 0.950 . S
H1406 C1402 0.950 . S
C1407 C1405 1.390 . S
C1407 C1408 1.376 1_655 S
C1407 H1410 0.950 . S
C1408 C1407 1.376 1_455 S
C1408 C1411 1.397 . S
H1409 C1405 0.950 . S
H1410 C1407 0.950 . S
C1411 C1402 1.390 . S
C1411 H1404 0.950 . S
C1411 C1408 1.397 . S
C1412 C1413 1.387 . S
C1412 H1416 0.950 . S
C1412 C1421 1.390 . S
C1413 C1412 1.387 . S
C1413 C1415 1.387 . S
H1414 C1421 0.950 . S
C1415 C1413 1.387 . S
C1415 C1417 1.390 . S
C1415 H1419 0.950 . S
H1416 C1412 0.950 . S
C1417 C1415 1.390 . S
C1417 C1418 1.387 . S
C1417 H1420 0.950 . S
C1418 C1417 1.387 . S
C1418 C1421 1.387 . S
H1419 C1415 0.950 . S
H1420 C1417 0.950 . S
C1421 C1412 1.390 . S
C1421 H1414 0.950 . S
C1421 C1418 1.387 . S
C1422 C1423 1.387 . S
C1422 H1426 0.950 . S
C1422 C1431 1.390 . S
C1423 C1422 1.387 . S
C1423 C1425 1.387 . S
H1424 C1431 0.950 . S
C1425 C1423 1.387 . S
C1425 C1427 1.390 . S
C1425 H1429 0.950 . S
H1426 C1422 0.950 . S
C1427 C1425 1.390 . S
C1427 C1428 1.387 . S
C1427 H1430 0.950 . S
C1428 C1427 1.387 . S
C1428 C1431 1.387 . S
H1429 C1425 0.950 . S
H1430 C1427 0.950 . S
C1431 C1422 1.390 . S
C1431 H1424 0.950 . S
C1431 C1428 1.387 . S
C1432 C1433 1.387 . S
C1432 H1436 0.950 . S
C1432 C1441 1.390 . S
C1433 C1432 1.387 . S
C1433 C1435 1.387 . S
H1434 C1441 0.950 . S
C1435 C1433 1.387 . S
C1435 C1437 1.390 . S
C1435 H1439 0.950 . S
H1436 C1432 0.950 . S
C1437 C1435 1.390 . S
C1437 C1438 1.387 . S
C1437 H1440 0.950 . S
C1438 C1437 1.387 . S
C1438 C1441 1.387 . S
H1439 C1435 0.950 . S
H1440 C1437 0.950 . S
C1441 C1432 1.390 . S
C1441 H1434 0.950 . S
C1441 C1438 1.387 . S
C1442 C1443 1.387 . S
C1442 H1446 0.950 . S
C1442 C1451 1.390 . S
C1443 C1442 1.387 . S
C1443 C1445 1.387 . S
H1444 C1451 0.950 . S
C1445 C1443 1.387 . S
C1445 C1447 1.390 . S
C1445 H1449 0.950 . S
H1446 C1442 0.950 . S
C1447 C1445 1.390 . S
C1447 C1448 1.387 . S
C1447 H1450 0.950 . S
C1448 C1447 1.387 . S
C1448 C1451 1.387 . S
H1449 C1445 0.950 . S
H1450 C1447 0.950 . S
C1451 C1442 1.390 . S
C1451 H1444 0.950 . S
C1451 C1448 1.387 . S
C1452 C1453 1.387 . S
C1452 H1456 0.950 . S
C1452 C1461 1.390 . S
C1453 C1452 1.387 . S
C1453 C1455 1.387 . S
H1454 C1461 0.950 . S
C1455 C1453 1.387 . S
C1455 C1457 1.390 . S
C1455 H1459 0.950 . S
H1456 C1452 0.950 . S
C1457 C1455 1.390 . S
C1457 C1458 1.387 . S
C1457 H1460 0.950 . S
C1458 C1457 1.387 . S
C1458 C1461 1.387 . S
H1459 C1455 0.950 . S
H1460 C1457 0.950 . S
C1461 C1452 1.390 . S
C1461 H1454 0.950 . S
C1461 C1458 1.387 . S
C1462 C1463 1.387 . S
C1462 H1466 0.950 . S
C1462 C1471 1.390 . S
C1463 C1462 1.387 . S
C1463 C1465 1.387 . S
H1464 C1471 0.950 . S
C1465 C1463 1.387 . S
C1465 C1467 1.390 . S
C1465 H1469 0.950 . S
H1466 C1462 0.950 . S
C1467 C1465 1.390 . S
C1467 C1468 1.387 . S
C1467 H1470 0.950 . S
C1468 C1467 1.387 . S
C1468 C1471 1.387 . S
H1469 C1465 0.950 . S
H1470 C1467 0.950 . S
C1471 C1462 1.390 . S
C1471 H1464 0.950 . S
C1471 C1468 1.387 . S
C1472 C1473 1.387 . S
C1472 H1476 0.950 . S
C1472 C1481 1.390 . S
C1473 C1472 1.387 . S
C1473 C1475 1.387 . S
H1474 C1481 0.950 . S
C1475 C1473 1.387 . S
C1475 C1477 1.390 . S
C1475 H1479 0.950 . S
H1476 C1472 0.950 . S
C1477 C1475 1.390 . S
C1477 C1478 1.387 . S
C1477 H1480 0.950 . S
C1478 C1477 1.387 . S
C1478 C1481 1.387 . S
H1479 C1475 0.950 . S
H1480 C1477 0.950 . S
C1481 C1472 1.390 . S
C1481 H1474 0.950 . S
C1481 C1478 1.387 . S
C1482 C1483 1.387 . S
C1482 H1486 0.950 . S
C1482 C1491 1.390 . S
C1483 C1482 1.387 . S
C1483 C1485 1.387 . S
H1484 C1491 0.950 . S
C1485 C1483 1.387 . S
C1485 C1487 1.390 . S
C1485 H1489 0.950 . S
H1486 C1482 0.950 . S
C1487 C1485 1.390 . S
C1487 C1488 1.387 . S
C1487 H1490 0.950 . S
C1488 C1487 1.387 . S
C1488 C1491 1.387 . S
H1489 C1485 0.950 . S
H1490 C1487 0.950 . S
C1491 C1482 1.390 . S
C1491 H1484 0.950 . S
C1491 C1488 1.387 . S
C1492 C1493 1.387 . S
C1492 H1496 0.950 . S
C1492 C1501 1.390 . S
C1493 C1492 1.387 . S
C1493 C1495 1.387 . S
H1494 C1501 0.950 . S
C1495 C1493 1.387 . S
C1495 C1497 1.390 . S
C1495 H1499 0.950 . S
H1496 C1492 0.950 . S
C1497 C1495 1.390 . S
C1497 C1498 1.387 . S
C1497 H1500 0.950 . S
C1498 C1497 1.387 . S
C1498 C1501 1.387 . S
H1499 C1495 0.950 . S
H1500 C1497 0.950 . S
C1501 C1492 1.390 . S
C1501 H1494 0.950 . S
C1501 C1498 1.387 . S
C1502 C1503 1.387 . S
C1502 H1506 0.950 . S
C1502 C1511 1.390 . S
C1503 C1502 1.387 . S
C1503 C1505 1.387 . S
H1504 C1511 0.950 . S
C1505 C1503 1.387 . S
C1505 C1507 1.390 . S
C1505 H1509 0.950 . S
H1506 C1502 0.950 . S
C1507 C1505 1.390 . S
C1507 C1508 1.387 . S
C1507 H1510 0.950 . S
C1508 C1507 1.387 . S
C1508 C1511 1.387 . S
H1509 C1505 0.950 . S
H1510 C1507 0.950 . S
C1511 C1502 1.390 . S
C1511 H1504 0.950 . S
C1511 C1508 1.387 . S
C1512 C1513 1.387 1_554 S
C1512 H1516 0.950 . S
C1512 C1521 1.390 . S
C1513 C1512 1.387 1_556 S
C1513 C1515 1.387 . S
H1514 C1521 0.950 . S
C1515 C1513 1.387 . S
C1515 C1517 1.390 . S
C1515 H1519 0.950 . S
H1516 C1512 0.950 . S
C1517 C1515 1.390 . S
C1517 C1518 1.387 . S
C1517 H1520 0.950 . S
C1518 C1517 1.387 . S
C1518 C1521 1.387 1_556 S
H1519 C1515 0.950 . S
H1520 C1517 0.950 . S
C1521 C1512 1.390 . S
C1521 H1514 0.950 . S
C1521 C1518 1.387 1_554 S
C1522 C1523 1.387 . S
C1522 H1526 0.950 . S
C1522 C1531 1.390 . S
C1523 C1522 1.387 . S
C1523 C1525 1.387 . S
H1524 C1531 0.950 . S
C1525 C1523 1.387 . S
C1525 C1527 1.390 . S
C1525 H1529 0.950 . S
H1526 C1522 0.950 . S
C1527 C1525 1.390 . S
C1527 C1528 1.387 . S
C1527 H1530 0.950 . S
C1528 C1527 1.387 . S
C1528 C1531 1.387 . S
H1529 C1525 0.950 . S
H1530 C1527 0.950 . S
C1531 C1522 1.390 . S
C1531 H1524 0.950 . S
C1531 C1528 1.387 . S
C1532 C1533 1.387 1_556 S
C1532 H1536 0.950 . S
C1532 C1541 1.390 . S
C1533 C1532 1.387 1_554 S
C1533 C1535 1.387 . S
H1534 C1541 0.950 . S
C1535 C1533 1.387 . S
C1535 C1537 1.390 . S
C1535 H1539 0.950 . S
H1536 C1532 0.950 . S
C1537 C1535 1.390 . S
C1537 C1538 1.387 . S
C1537 H1540 0.950 . S
C1538 C1537 1.387 . S
C1538 C1541 1.387 1_554 S
H1539 C1535 0.950 . S
H1540 C1537 0.950 . S
C1541 C1532 1.390 . S
C1541 H1534 0.950 . S
C1541 C1538 1.387 1_556 S
C1542 C1543 1.387 . S
C1542 H1546 0.950 1_554 S
C1542 C1551 1.391 . S
C1543 C1542 1.387 . S
C1543 C1545 1.387 . S
H1544 C1551 0.940 1_556 S
C1545 C1543 1.387 . S
C1545 C1547 1.390 . S
C1545 H1549 0.950 . S
H1546 C1542 0.950 1_556 S
C1547 C1545 1.390 . S
C1547 C1548 1.387 . S
C1547 H1550 0.950 . S
C1548 C1547 1.387 . S
C1548 C1551 1.397 . S
H1549 C1545 0.950 . S
H1550 C1547 0.950 . S
C1551 C1542 1.391 . S
C1551 H1544 0.940 1_554 S
C1551 C1548 1.397 . S
C1078 C642 1.502 . S
C1073 C202 1.531 . S
C1088 C690 1.633 . S
C1083 C261 1.675 . S
C1093 C282 1.434 . S
C1098 C726 1.428 . S
C1108 C762 1.568 1_545 S
C1103 C162 1.607 . S
C1118 C788 1.533 . S
C1113 C402 1.547 . S
C1128 C824 1.579 . S
C1123 C482 1.588 . S
C1133 C442 1.493 . S
C1138 C859 1.556 . S
C1148 C896 1.604 1_565 S
C1143 C381 1.609 . S
C1153 C461 1.476 . S
C1158 C930 1.510 . S
C1168 C978 1.528 . S
C1163 C362 1.565 . S
C1173 C415 1.484 . S
C1178 C931 1.511 . S
C1188 C968 1.624 . S
C1183 C495 1.624 . S
C1193 C301 1.495 . S
C1198 C1014 1.471 . S
C1203 C175 1.627 . S
C1208 C1003 1.619 . S
C1213 C215 1.525 . S
C1218 C1004 1.518 . S
C1223 C242 1.612 1_455 S
C1228 C1002 1.610 . S
C1233 C141 1.604 . S
C1238 C750 1.554 . S
C1243 C581 1.558 . S
C1248 C751 1.556 . S
C1258 C654 1.551 . S
C1253 C615 1.598 . S
C1268 C679 1.498 . S
C1263 C335 1.483 . S
C1273 C181 1.665 . S
C1278 C786 1.661 . S
C1288 C894 1.502 . S
C1283 C455 1.514 . S
C1298 C787 1.539 . S
C1293 C375 1.548 . S
C1308 C860 1.651 . S
C1303 C501 1.662 . S
C1318 C858 1.502 . S
C1313 C562 1.532 . S
C1323 C621 1.674 . S
C1328 C906 1.633 . S
C1333 C322 1.432 . S
C1338 C798 1.424 . S
C1348 C834 1.570 . S
C1343 C522 1.608 . S
C1353 C122 1.549 . S
C1358 C716 1.531 . S
C1368 C752 1.580 . S
C1363 C2 1.588 . S
C1378 C643 1.557 . S
C1373 C42 1.496 . S
C1388 C680 1.606 . S
C1383 C101 1.609 . S
C1393 C61 1.479 . S
C1398 C966 1.512 . S
C1403 C82 1.564 . S
C1408 C942 1.526 1_455 S
C1413 C135 1.486 . S
C1418 C967 1.512 . S
C1423 C15 1.625 . S
C1428 C932 1.624 . S
C1438 C1050 1.471 . S
C1433 C341 1.496 . S
C1448 C1039 1.619 . S
C1443 C535 1.627 . S
C1458 C1040 1.517 . S
C1453 C575 1.524 . S
C1463 C602 1.612 . S
C1468 C1038 1.610 . S
C1473 C421 1.604 . S
C1478 C822 1.554 . S
C1488 C823 1.555 . S
C1483 C221 1.558 . S
C1498 C870 1.549 . S
C1493 C255 1.599 . S
C1508 C895 1.498 . S
C1503 C295 1.484 . S
C1513 C541 1.665 . S
C1518 C714 1.671 . S
C1528 C678 1.503 . S
C1523 C55 1.516 . S
C1533 C95 1.548 . S
C1538 C715 1.539 . S
C1548 C644 1.652 . S
C1543 C21 1.661 . S
